# Generated by pormake.
# Topology ukt, (4)-cn, num edge types: 1
# Building blocks:
#     Node 0, Type 0, BuildingBlock: AZAVOO_clean_sbu_0, # of connection points: 4
#     Node 1, Type 0, BuildingBlock: AZAVOO_clean_sbu_0, # of connection points: 4
#     Node 2, Type 0, BuildingBlock: AZAVOO_clean_sbu_0, # of connection points: 4
#     Node 3, Type 0, BuildingBlock: AZAVOO_clean_sbu_0, # of connection points: 4
#     Node 4, Type 0, BuildingBlock: AZAVOO_clean_sbu_0, # of connection points: 4
#     Node 5, Type 0, BuildingBlock: AZAVOO_clean_sbu_0, # of connection points: 4
#     Node 6, Type 0, BuildingBlock: AZAVOO_clean_sbu_0, # of connection points: 4
#     Node 7, Type 0, BuildingBlock: AZAVOO_clean_sbu_0, # of connection points: 4
#     Node 8, Type 0, BuildingBlock: AZAVOO_clean_sbu_0, # of connection points: 4
#     Node 9, Type 0, BuildingBlock: AZAVOO_clean_sbu_0, # of connection points: 4
#     Node 10, Type 0, BuildingBlock: AZAVOO_clean_sbu_0, # of connection points: 4
#     Node 11, Type 0, BuildingBlock: AZAVOO_clean_sbu_0, # of connection points: 4
#     Node 12, Type 0, BuildingBlock: AZAVOO_clean_sbu_0, # of connection points: 4
#     Node 13, Type 0, BuildingBlock: AZAVOO_clean_sbu_0, # of connection points: 4
#     Node 14, Type 0, BuildingBlock: AZAVOO_clean_sbu_0, # of connection points: 4
#     Node 15, Type 0, BuildingBlock: AZAVOO_clean_sbu_0, # of connection points: 4
#     Edge 16, Type (0, 0), BuildingBlock: AJUNOK_clean_linker_0, # of connection points: 2
#     Edge 17, Type (0, 0), BuildingBlock: AJUNOK_clean_linker_0, # of connection points: 2
#     Edge 18, Type (0, 0), BuildingBlock: AJUNOK_clean_linker_0, # of connection points: 2
#     Edge 19, Type (0, 0), BuildingBlock: AJUNOK_clean_linker_0, # of connection points: 2
#     Edge 20, Type (0, 0), BuildingBlock: AJUNOK_clean_linker_0, # of connection points: 2
#     Edge 21, Type (0, 0), BuildingBlock: AJUNOK_clean_linker_0, # of connection points: 2
#     Edge 22, Type (0, 0), BuildingBlock: AJUNOK_clean_linker_0, # of connection points: 2
#     Edge 23, Type (0, 0), BuildingBlock: AJUNOK_clean_linker_0, # of connection points: 2
#     Edge 24, Type (0, 0), BuildingBlock: AJUNOK_clean_linker_0, # of connection points: 2
#     Edge 25, Type (0, 0), BuildingBlock: AJUNOK_clean_linker_0, # of connection points: 2
#     Edge 26, Type (0, 0), BuildingBlock: AJUNOK_clean_linker_0, # of connection points: 2
#     Edge 27, Type (0, 0), BuildingBlock: AJUNOK_clean_linker_0, # of connection points: 2
#     Edge 28, Type (0, 0), BuildingBlock: AJUNOK_clean_linker_0, # of connection points: 2
#     Edge 29, Type (0, 0), BuildingBlock: AJUNOK_clean_linker_0, # of connection points: 2
#     Edge 30, Type (0, 0), BuildingBlock: AJUNOK_clean_linker_0, # of connection points: 2
#     Edge 31, Type (0, 0), BuildingBlock: AJUNOK_clean_linker_0, # of connection points: 2
#     Edge 32, Type (0, 0), BuildingBlock: AJUNOK_clean_linker_0, # of connection points: 2
#     Edge 33, Type (0, 0), BuildingBlock: AJUNOK_clean_linker_0, # of connection points: 2
#     Edge 34, Type (0, 0), BuildingBlock: AJUNOK_clean_linker_0, # of connection points: 2
#     Edge 35, Type (0, 0), BuildingBlock: AJUNOK_clean_linker_0, # of connection points: 2
#     Edge 36, Type (0, 0), BuildingBlock: AJUNOK_clean_linker_0, # of connection points: 2
#     Edge 37, Type (0, 0), BuildingBlock: AJUNOK_clean_linker_0, # of connection points: 2
#     Edge 38, Type (0, 0), BuildingBlock: AJUNOK_clean_linker_0, # of connection points: 2
#     Edge 39, Type (0, 0), BuildingBlock: AJUNOK_clean_linker_0, # of connection points: 2
#     Edge 40, Type (0, 0), BuildingBlock: AJUNOK_clean_linker_0, # of connection points: 2
#     Edge 41, Type (0, 0), BuildingBlock: AJUNOK_clean_linker_0, # of connection points: 2
#     Edge 42, Type (0, 0), BuildingBlock: AJUNOK_clean_linker_0, # of connection points: 2
#     Edge 43, Type (0, 0), BuildingBlock: AJUNOK_clean_linker_0, # of connection points: 2
#     Edge 44, Type (0, 0), BuildingBlock: AJUNOK_clean_linker_0, # of connection points: 2
#     Edge 45, Type (0, 0), BuildingBlock: AJUNOK_clean_linker_0, # of connection points: 2
#     Edge 46, Type (0, 0), BuildingBlock: AJUNOK_clean_linker_0, # of connection points: 2
#     Edge 47, Type (0, 0), BuildingBlock: AJUNOK_clean_linker_0, # of connection points: 2
# Relax obj value: 0.285
# Max RMSD: 0.208
# Mean RMSD: 0.196
data_MOF--net-ukt--node1-AZAVOO_clean_sbu_0--edge1-AJUNOK_clean_linker_0
_symmetry_space_group_name_H-M    P1
_symmetry_Int_Tables_number       1
_symmetry_cell_setting            triclinic
loop_
_symmetry_equiv_pos_as_xyz
'x, y, z'
_cell_length_a     30.418561
_cell_length_b     30.402105
_cell_length_c     28.31132
_cell_angle_alpha  89.615591
_cell_angle_beta   90.065569
_cell_angle_gamma 89.898334
loop_
_atom_site_label
_atom_site_type_symbol
_atom_site_fract_x
_atom_site_fract_y
_atom_site_fract_z
_atom_type_partial_charge
Mg0 Mg 0.56549 0.16772 0.04482 0.0
O1 O 0.6395 0.16018 0.03298 0.0
O2 O 0.66945 0.22689 0.02589 0.0
Mg3 Mg 0.61529 0.27789 0.03659 0.0
C4 C 0.67262 0.18502 0.02583 0.0
C5 C 0.54076 0.07443 0.02256 0.0
O6 O 0.51944 0.09929 0.99219 0.0
O7 O 0.57699 0.18701 0.12333 0.0
O8 O 0.60614 0.25411 0.11271 0.0
O9 O 0.55633 0.17319 0.96596 0.0
O10 O 0.56711 0.22974 0.0131 0.0
C11 C 0.59303 0.22294 0.13954 0.0
C12 C 0.56267 0.21475 0.97112 0.0
O13 O 0.56155 0.09267 0.05625 0.0
Mg14 Mg 0.36513 0.58563 0.09172 0.0
O15 O 0.34628 0.65464 0.06876 0.0
O16 O 0.27747 0.65659 0.04135 0.0
Mg17 Mg 0.24834 0.58854 0.0588 0.0
C18 C 0.3142 0.67503 0.04982 0.0
C19 C 0.46871 0.61545 0.10731 0.0
O20 O 0.49743 0.63958 0.13012 0.0
O21 O 0.32807 0.59506 0.16231 0.0
O22 O 0.25781 0.597 0.13915 0.0
O23 O 0.37688 0.57168 0.01437 0.0
O24 O 0.31432 0.55912 0.05172 0.0
C25 C 0.28693 0.5984 0.1717 0.0
C26 C 0.336 0.56003 0.0129 0.0
O27 O 0.42872 0.61638 0.12088 0.0
Mg28 Mg 0.91865 0.3295 0.05967 0.0
O29 O 0.84626 0.34322 0.04115 0.0
O30 O 0.81007 0.27955 0.0468 0.0
Mg31 Mg 0.86072 0.22366 0.05634 0.0
C32 C 0.81075 0.32106 0.03983 0.0
C33 C 0.92269 0.42702 0.02988 0.0
O34 O 0.90021 0.40839 0.99583 0.0
O35 O 0.90314 0.31335 0.13925 0.0
O36 O 0.8763 0.24512 0.13128 0.0
O37 O 0.93546 0.31776 0.98285 0.0
O38 O 0.91483 0.26627 0.03337 0.0
C39 C 0.89036 0.2764 0.15702 0.0
C40 C 0.92714 0.27686 0.99156 0.0
O41 O 0.932 0.40387 0.06637 0.0
Mg42 Mg 0.18837 0.93933 0.05938 0.0
O43 O 0.18368 0.86625 0.04101 0.0
O44 O 0.25092 0.83662 0.0417 0.0
Mg45 Mg 0.29983 0.89267 0.05557 0.0
C46 C 0.20936 0.83337 0.03664 0.0
C47 C 0.09216 0.92921 0.03132 0.0
O48 O 0.11449 0.91281 0.99587 0.0
O49 O 0.20438 0.9222 0.13732 0.0
O50 O 0.27413 0.89925 0.13074 0.0
O51 O 0.19804 0.95629 0.98254 0.0
O52 O 0.25163 0.9425 0.03347 0.0
C53 C 0.24073 0.90912 0.15585 0.0
C54 C 0.23956 0.95184 0.99117 0.0
O55 O 0.11331 0.94199 0.06758 0.0
Mg56 Mg 0.55782 0.31846 0.43316 0.0
O57 O 0.62943 0.32969 0.45379 0.0
O58 O 0.66619 0.26621 0.45664 0.0
Mg59 Mg 0.61607 0.21226 0.43905 0.0
C60 C 0.66445 0.30783 0.46134 0.0
C61 C 0.56233 0.41548 0.46082 0.0
O62 O 0.58268 0.39419 0.49487 0.0
O63 O 0.57558 0.30363 0.35499 0.0
O64 O 0.60795 0.23752 0.36326 0.0
O65 O 0.54199 0.30793 0.50974 0.0
O66 O 0.56101 0.25496 0.4604 0.0
C67 C 0.59379 0.2692 0.33763 0.0
C68 C 0.55114 0.26701 0.50246 0.0
O69 O 0.54895 0.39357 0.4253 0.0
Mg70 Mg 0.15537 0.57663 0.45327 0.0
O71 O 0.15101 0.64956 0.46948 0.0
O72 O 0.21762 0.6759 0.48567 0.0
Mg73 Mg 0.26585 0.61817 0.47916 0.0
C74 C 0.17615 0.68105 0.48137 0.0
C75 C 0.06143 0.55041 0.45788 0.0
O76 O 0.08377 0.52169 0.48309 0.0
O77 O 0.18461 0.59091 0.37805 0.0
O78 O 0.25172 0.61204 0.40039 0.0
O79 O 0.1501 0.56354 0.53173 0.0
O80 O 0.21265 0.57179 0.49309 0.0
C81 C 0.2241 0.60287 0.36802 0.0
C82 C 0.19235 0.56678 0.53245 0.0
O83 O 0.08231 0.57882 0.43354 0.0
Mg84 Mg 0.93548 0.19202 0.45809 0.0
O85 O 0.86329 0.18047 0.47508 0.0
O86 O 0.82573 0.2432 0.47692 0.0
Mg87 Mg 0.87614 0.2979 0.46121 0.0
C88 C 0.82746 0.20137 0.48086 0.0
C89 C 0.9335 0.09762 0.49461 0.0
O90 O 0.91728 0.12229 0.52826 0.0
O91 O 0.91776 0.20617 0.37866 0.0
O92 O 0.88672 0.27268 0.38646 0.0
O93 O 0.95 0.20499 0.53506 0.0
O94 O 0.93124 0.25608 0.48307 0.0
C95 C 0.90074 0.24135 0.36066 0.0
C96 C 0.94059 0.2455 0.52575 0.0
O97 O 0.9441 0.11618 0.45557 0.0
Mg98 Mg 0.32565 0.93934 0.45365 0.0
O99 O 0.33151 0.86631 0.47276 0.0
O100 O 0.26431 0.83709 0.47506 0.0
Mg101 Mg 0.21443 0.89285 0.46265 0.0
C102 C 0.30596 0.8336 0.47862 0.0
C103 C 0.42206 0.92881 0.47913 0.0
O104 O 0.40016 0.91227 0.515 0.0
O105 O 0.30718 0.9226 0.37616 0.0
O106 O 0.23769 0.90036 0.38683 0.0
O107 O 0.31866 0.95589 0.53077 0.0
O108 O 0.26323 0.94219 0.4825 0.0
C109 C 0.26976 0.91029 0.35982 0.0
C110 C 0.27693 0.95096 0.52419 0.0
O111 O 0.40045 0.94201 0.44313 0.0
Mg112 Mg 0.46236 0.87071 0.89663 0.0
O113 O 0.41801 0.82951 0.94834 0.0
O114 O 0.38281 0.87336 0.99973 0.0
Mg115 Mg 0.42536 0.93411 0.99854 0.0
C116 C 0.389 0.83591 0.98061 0.0
C117 C 0.49115 0.81014 0.81468 0.0
O118 O 0.49046 0.84896 0.79403 0.0
O119 O 0.52421 0.87293 0.94465 0.0
O120 O 0.47747 0.8815 1.00044 0.0
O121 O 0.40004 0.88921 0.86114 0.0
O122 O 0.42882 0.92776 0.91968 0.0
C123 C 0.51492 0.89055 0.98399 0.0
C124 C 0.39603 0.9203 0.8919 0.0
O125 O 0.48334 0.8079 0.85879 0.0
Mg126 Mg 0.59344 0.44854 0.88427 0.0
O127 O 0.64488 0.42104 0.9373 0.0
O128 O 0.61004 0.37643 0.98771 0.0
Mg129 Mg 0.53663 0.37635 0.96874 0.0
C130 C 0.64522 0.39452 0.97259 0.0
C131 C 0.64238 0.49635 0.80728 0.0
O132 O 0.60728 0.47938 0.78743 0.0
O133 O 0.56583 0.4975 0.93987 0.0
O134 O 0.52977 0.44921 0.98548 0.0
O135 O 0.60457 0.38765 0.84188 0.0
O136 O 0.55278 0.39461 0.89599 0.0
C137 C 0.54032 0.48865 0.97479 0.0
C138 C 0.57405 0.36992 0.86735 0.0
O139 O 0.64568 0.49392 0.85211 0.0
Mg140 Mg 0.10929 0.60091 0.89088 0.0
O141 O 0.12657 0.65637 0.94232 0.0
O142 O 0.15888 0.62744 0.00602 0.0
Mg143 Mg 0.15932 0.55259 0.99777 0.0
C144 C 0.14545 0.6607 0.9823 0.0
C145 C 0.07486 0.64707 0.80062 0.0
O146 O 0.0965 0.61271 0.78497 0.0
O147 O 0.04901 0.57865 0.93557 0.0
O148 O 0.08445 0.54829 0.99688 0.0
O149 O 0.17939 0.60482 0.86365 0.0
O150 O 0.15756 0.56039 0.92069 0.0
C151 C 0.04883 0.55757 0.97503 0.0
C152 C 0.18915 0.57587 0.89572 0.0
O153 O 0.07101 0.65137 0.84515 0.0
Mg154 Mg 0.8885 0.03901 0.89729 0.0
O155 O 0.83812 0.07066 0.94929 0.0
O156 O 0.87386 0.11479 0.99994 0.0
Mg157 Mg 0.94151 0.08306 1.00194 0.0
C158 C 0.83855 0.10088 0.98067 0.0
C159 C 0.8328 0.0084 0.81285 0.0
O160 O 0.86909 0.02181 0.79218 0.0
O161 O 0.90236 0.97667 0.94202 0.0
O162 O 0.90127 0.02091 1.00113 0.0
O163 O 0.89493 0.10573 0.86518 0.0
O164 O 0.93789 0.082 0.92306 0.0
C165 C 0.91475 0.98506 0.98391 0.0
C166 C 0.92489 0.11407 0.89637 0.0
O167 O 0.83117 0.00841 0.85768 0.0
Mg168 Mg 0.42142 0.60339 0.62386 0.0
O169 O 0.39539 0.65772 0.57435 0.0
O170 O 0.35098 0.62805 0.52081 0.0
Mg171 Mg 0.35092 0.55377 0.53339 0.0
C172 C 0.36939 0.66152 0.53916 0.0
C173 C 0.46794 0.65302 0.70227 0.0
O174 O 0.44896 0.61971 0.72388 0.0
O175 O 0.47121 0.57943 0.5678 0.0
O176 O 0.424 0.54898 0.51699 0.0
O177 O 0.35919 0.61078 0.6659 0.0
O178 O 0.36829 0.56337 0.60789 0.0
C179 C 0.46314 0.5584 0.52961 0.0
C180 C 0.3427 0.58156 0.63803 0.0
O181 O 0.46663 0.65439 0.65738 0.0
Mg182 Mg 0.85842 0.4758 0.60965 0.0
O183 O 0.8133 0.43566 0.55789 0.0
O184 O 0.85463 0.39284 0.51123 0.0
Mg185 Mg 0.91933 0.42926 0.51135 0.0
C186 C 0.81734 0.40412 0.52812 0.0
C187 C 0.79884 0.50709 0.69073 0.0
O188 O 0.83626 0.49828 0.71207 0.0
O189 O 0.87105 0.53614 0.56019 0.0
O190 O 0.87222 0.48627 0.50686 0.0
O191 O 0.86802 0.41203 0.64684 0.0
O192 O 0.91201 0.4354 0.58959 0.0
C193 C 0.88413 0.52412 0.5196 0.0
C194 C 0.89974 0.40417 0.61762 0.0
O195 O 0.79734 0.50428 0.6459 0.0
Mg196 Mg 0.04852 0.89167 0.63704 0.0
O197 O 0.07536 0.84644 0.57749 0.0
O198 O 0.11835 0.88368 0.52682 0.0
Mg199 Mg 0.08683 0.95124 0.53241 0.0
C200 C 0.10352 0.84763 0.54392 0.0
C201 C 0.05401 0.79957 0.67957 0.0
O202 O 0.09234 0.80723 0.65997 0.0
O203 O 0.98366 0.91059 0.59701 0.0
O204 O 0.02583 0.90945 0.53581 0.0
O205 O 0.11749 0.89694 0.66312 0.0
O206 O 0.08917 0.94329 0.61088 0.0
C207 C 0.99064 0.92285 0.55446 0.0
C208 C 0.12307 0.9291 0.63364 0.0
O209 O 0.02416 0.82909 0.67678 0.0
Mg210 Mg 0.62059 0.04009 0.61219 0.0
O211 O 0.66907 0.07536 0.56066 0.0
O212 O 0.63141 0.11803 0.50955 0.0
Mg213 Mg 0.56578 0.08235 0.50695 0.0
C214 C 0.66735 0.106 0.52929 0.0
C215 C 0.67526 0.00716 0.69718 0.0
O216 O 0.63685 0.01482 0.71668 0.0
O217 O 0.61119 0.97748 0.56741 0.0
O218 O 0.6102 0.02299 0.50887 0.0
O219 O 0.61042 0.10637 0.64317 0.0
O220 O 0.56896 0.07993 0.58559 0.0
C221 C 0.59845 0.98618 0.52558 0.0
C222 C 0.58047 0.11281 0.6113 0.0
O223 O 0.67906 0.01222 0.65277 0.0
C224 C 0.60787 0.26326 0.92041 0.0
C225 C 0.56679 0.24456 0.93073 0.0
C226 C 0.61084 0.30148 0.89271 0.0
C227 C 0.57263 0.32241 0.87587 0.0
H228 H 0.63741 0.25032 0.93683 0.0
H229 H 0.64256 0.31736 0.88924 0.0
S230 S 0.45818 0.28286 0.88838 0.0
N231 N 0.48804 0.24618 0.91751 0.0
N232 N 0.49337 0.31908 0.86672 0.0
C233 C 0.53192 0.30165 0.88239 0.0
C234 C 0.52903 0.26238 0.90977 0.0
C235 C 0.26614 0.60048 0.91313 0.0
C236 C 0.23478 0.56656 0.91084 0.0
C237 C 0.30384 0.59588 0.94169 0.0
C238 C 0.31082 0.55747 0.96867 0.0
H239 H 0.25949 0.63209 0.89673 0.0
H240 H 0.325 0.62405 0.94659 0.0
S241 S 0.24365 0.45618 0.96655 0.0
N242 N 0.21751 0.49071 0.93103 0.0
N243 N 0.28745 0.48286 0.98542 0.0
C244 C 0.28245 0.52181 0.96216 0.0
C245 C 0.24457 0.5262 0.933 0.0
C246 C 0.90653 0.19455 0.89566 0.0
C247 C 0.9348 0.16002 0.90979 0.0
C248 C 0.907 0.23517 0.91911 0.0
C249 C 0.93548 0.24193 0.95731 0.0
H250 H 0.88141 0.18908 0.86922 0.0
H251 H 0.88259 0.25979 0.91003 0.0
S252 S 0.02403 0.16743 0.9988 0.0
N253 N 0.99892 0.13974 0.95671 0.0
N254 N 0.99794 0.21497 1.00227 0.0
C255 C 0.96722 0.2099 0.96782 0.0
C256 C 0.96745 0.16915 0.94349 0.0
C257 C 0.31464 0.91125 0.89652 0.0
C258 C 0.35219 0.93726 0.90459 0.0
C259 C 0.27543 0.91911 0.92115 0.0
C260 C 0.27293 0.95322 0.95413 0.0
H261 H 0.31662 0.88227 0.87457 0.0
H262 H 0.24854 0.89602 0.91766 0.0
S263 S 0.35853 0.03589 0.98054 0.0
N264 N 0.38164 0.00288 0.94167 0.0
N265 N 0.3083 0.01676 0.98874 0.0
C266 C 0.30852 0.98204 0.95873 0.0
C267 C 0.34813 0.97438 0.93353 0.0
C268 C 0.52241 0.20059 0.54146 0.0
C269 C 0.55328 0.23472 0.54084 0.0
C270 C 0.52956 0.16274 0.56865 0.0
C271 C 0.56819 0.15751 0.59548 0.0
H272 H 0.49391 0.20199 0.51849 0.0
H273 H 0.50613 0.13606 0.56595 0.0
S274 S 0.65769 0.23957 0.60768 0.0
N275 N 0.62211 0.26302 0.57123 0.0
N276 N 0.63625 0.19145 0.6223 0.0
C277 C 0.59787 0.19297 0.59772 0.0
C278 C 0.59032 0.2317 0.57011 0.0
C279 C 0.27973 0.53508 0.61684 0.0
C280 C 0.29515 0.57658 0.63088 0.0
C281 C 0.24153 0.5312 0.58971 0.0
C282 C 0.2175 0.56862 0.57643 0.0
H283 H 0.29992 0.50606 0.62222 0.0
H284 H 0.23351 0.49944 0.57486 0.0
S285 S 0.23909 0.68351 0.61189 0.0
N286 N 0.27999 0.65497 0.63544 0.0
N287 N 0.20727 0.64728 0.5853 0.0
C288 C 0.22924 0.60945 0.59543 0.0
C289 C 0.26839 0.61354 0.62279 0.0
C290 C 0.95558 0.35215 0.58738 0.0
C291 C 0.91387 0.35886 0.60746 0.0
C292 C 0.96599 0.31259 0.56509 0.0
C293 C 0.93517 0.27848 0.56254 0.0
H294 H 0.97919 0.37877 0.58591 0.0
H295 H 0.99708 0.30993 0.54664 0.0
S296 S 0.82248 0.27826 0.61152 0.0
N297 N 0.84244 0.32694 0.62565 0.0
N298 N 0.86247 0.25242 0.5836 0.0
C299 C 0.89461 0.28337 0.5853 0.0
C300 C 0.88386 0.32367 0.60805 0.0
C301 C 0.20179 0.90982 0.6193 0.0
C302 C 0.16742 0.94091 0.61679 0.0
C303 C 0.24015 0.91529 0.59242 0.0
C304 C 0.24516 0.95212 0.56281 0.0
H305 H 0.19762 0.87942 0.63894 0.0
H306 H 0.26426 0.88901 0.59187 0.0
S307 S 0.16855 0.04608 0.54967 0.0
N308 N 0.14387 0.01253 0.58728 0.0
N309 N 0.21563 0.02212 0.53621 0.0
C310 C 0.21294 0.98503 0.56312 0.0
C311 C 0.17413 0.97967 0.59048 0.0
C312 C 0.34961 0.76505 0.96694 0.0
C313 C 0.36326 0.79807 0.99822 0.0
C314 C 0.32923 0.72666 0.98372 0.0
C315 C 0.32289 0.71972 0.03233 0.0
H316 H 0.35576 0.76839 0.9294 0.0
H317 H 0.32098 0.70116 0.95877 0.0
S318 S 0.34927 0.79725 0.12845 0.0
N319 N 0.36557 0.82273 0.07983 0.0
N320 N 0.32886 0.74967 0.11119 0.0
C321 C 0.33439 0.75321 0.0637 0.0
C322 C 0.35418 0.7927 0.04666 0.0
C323 C 0.72718 0.38474 0.96685 0.0
C324 C 0.68818 0.38054 0.9934 0.0
C325 C 0.76712 0.36678 0.98301 0.0
C326 C 0.76948 0.34349 0.02599 0.0
H327 H 0.72665 0.40065 0.93251 0.0
H328 H 0.79599 0.36964 0.96082 0.0
S329 S 0.67964 0.32979 0.11276 0.0
N330 N 0.65651 0.35646 0.06817 0.0
N331 N 0.73121 0.3212 0.09718 0.0
C332 C 0.73153 0.34068 0.05385 0.0
C333 C 0.69102 0.35963 0.03794 0.0
C334 C 0.18749 0.71063 0.03617 0.0
C335 C 0.157 0.70562 0.99902 0.0
C336 C 0.20451 0.75198 0.04798 0.0
C337 C 0.19028 0.79023 0.02448 0.0
H338 H 0.19923 0.68222 0.05565 0.0
H339 H 0.22882 0.75405 0.07588 0.0
S340 S 0.10753 0.7966 0.92838 0.0
N341 N 0.11128 0.7436 0.94087 0.0
N342 N 0.14197 0.82133 0.96461 0.0
C343 C 0.15804 0.78627 0.98919 0.0
C344 C 0.14159 0.74404 0.9762 0.0
C345 C 0.7237 0.12013 0.0276 0.0
C346 C 0.71566 0.16442 0.01512 0.0
C347 C 0.76365 0.09954 0.01635 0.0
C348 C 0.79692 0.12267 0.99266 0.0
H349 H 0.69897 0.10115 0.04618 0.0
H350 H 0.76864 0.06546 0.02646 0.0
S351 S 0.79091 0.23689 0.94701 0.0
N352 N 0.74351 0.2293 0.97413 0.0
N353 N 0.81863 0.19059 0.95416 0.0
C354 C 0.7893 0.16652 0.97947 0.0
C355 C 0.74865 0.18744 0.99044 0.0
C356 C 0.3261 0.71066 0.48461 0.0
C357 C 0.35717 0.70618 0.52138 0.0
C358 C 0.31007 0.75198 0.47056 0.0
C359 C 0.32511 0.79061 0.492 0.0
H360 H 0.31336 0.68202 0.46682 0.0
H361 H 0.2857 0.7537 0.44267 0.0
S362 S 0.40816 0.7983 0.58749 0.0
N363 N 0.40375 0.74506 0.57744 0.0
N364 N 0.37395 0.82254 0.55023 0.0
C365 C 0.35741 0.78709 0.5273 0.0
C366 C 0.37339 0.74498 0.54217 0.0
C367 C 0.78071 0.35074 0.47347 0.0
C368 C 0.77773 0.37959 0.51225 0.0
C369 C 0.74421 0.32685 0.45765 0.0
C370 C 0.70315 0.3315 0.47945 0.0
H371 H 0.81134 0.34694 0.45458 0.0
H372 H 0.74792 0.30533 0.42755 0.0
S373 S 0.67764 0.39965 0.58408 0.0
N374 N 0.73013 0.40922 0.57349 0.0
N375 N 0.66165 0.36468 0.54317 0.0
C376 C 0.69959 0.35954 0.51851 0.0
C377 C 0.73679 0.38356 0.53501 0.0
C378 C 0.18243 0.76168 0.49768 0.0
C379 C 0.15613 0.72378 0.49454 0.0
C380 C 0.16488 0.80187 0.51267 0.0
C381 C 0.12053 0.80556 0.52571 0.0
H382 H 0.21698 0.76022 0.48901 0.0
H383 H 0.18647 0.82996 0.51563 0.0
S384 S 0.03736 0.71654 0.52461 0.0
N385 N 0.08296 0.69282 0.50605 0.0
N386 N 0.0504 0.76833 0.53458 0.0
C387 C 0.09373 0.76811 0.52285 0.0
C388 C 0.11139 0.72727 0.50707 0.0
C389 C 0.70739 0.17461 0.50642 0.0
C390 C 0.70832 0.12928 0.51651 0.0
C391 C 0.74599 0.19769 0.49534 0.0
C392 C 0.78696 0.17615 0.49298 0.0
H393 H 0.67666 0.19255 0.5081 0.0
H394 H 0.74364 0.23267 0.48859 0.0
S395 S 0.80644 0.05685 0.51547 0.0
N396 N 0.75312 0.06344 0.52344 0.0
N397 N 0.82543 0.10601 0.50136 0.0
C398 C 0.78805 0.13049 0.50267 0.0
C399 C 0.74884 0.10729 0.51477 0.0
C400 C 0.52842 0.95152 0.04059 0.0
C401 C 0.53127 0.93546 0.99403 0.0
C402 C 0.53452 0.99632 0.05057 0.0
C403 C 0.54274 0.02661 0.01408 0.0
H404 H 0.5194 0.92954 0.06926 0.0
H405 H 0.53006 0.00763 0.08645 0.0
S406 S 0.55836 0.0013 0.88713 0.0
N407 N 0.54717 0.95329 0.91186 0.0
N408 N 0.55774 0.03733 0.9305 0.0
C409 C 0.54825 0.01071 0.96789 0.0
C410 C 0.54281 0.96513 0.95784 0.0
C411 C 0.46456 0.54517 0.06234 0.0
C412 C 0.48412 0.58639 0.06881 0.0
C413 C 0.48241 0.51466 0.03079 0.0
C414 C 0.52062 0.52402 1.00421 0.0
H415 H 0.43629 0.53559 0.08322 0.0
H416 H 0.46642 0.48297 0.02801 0.0
S417 S 0.5823 0.62906 0.00552 0.0
N418 N 0.54227 0.63635 0.04408 0.0
N419 N 0.57574 0.5789 0.98463 0.0
C420 C 0.5394 0.56594 0.00882 0.0
C421 C 0.52131 0.59702 0.04128 0.0
C422 C 0.00876 0.51649 0.03855 0.0
C423 C 0.00823 0.53555 0.99292 0.0
C424 C 0.97842 0.48406 0.05195 0.0
C425 C 0.94599 0.46936 0.02039 0.0
H426 H 0.03488 0.52428 0.06316 0.0
H427 H 0.98252 0.46831 0.08609 0.0
S428 S 0.92328 0.51646 0.9012 0.0
N429 N 0.96747 0.54291 0.91938 0.0
N430 N 0.90988 0.48262 0.94468 0.0
C431 C 0.94165 0.49202 0.97687 0.0
C432 C 0.97282 0.525 0.96312 0.0
C433 C 0.02285 0.92227 0.98458 0.0
C434 C 0.04441 0.93822 0.02506 0.0
C435 C 0.9801 0.93567 0.9729 0.0
C436 C 0.95698 0.96581 1.0011 0.0
H437 H 0.03968 0.90039 0.96052 0.0
H438 H 0.9659 0.92361 0.94037 0.0
S439 S 0.99583 0.01219 0.11487 0.0
N440 N 0.03743 0.98197 0.09629 0.0
N441 N 0.95692 0.00699 0.07461 0.0
C442 C 0.97688 0.97952 0.04357 0.0
C443 C 0.02057 0.9658 0.05548 0.0
C444 C 0.53417 0.5174 0.53024 0.0
C445 C 0.49879 0.53497 0.50434 0.0
C446 C 0.55783 0.48114 0.51333 0.0
C447 C 0.54688 0.4611 0.47002 0.0
H448 H 0.54075 0.52858 0.56581 0.0
H449 H 0.58238 0.46657 0.53639 0.0
S450 S 0.46605 0.50367 0.38275 0.0
N451 N 0.46085 0.5365 0.42865 0.0
N452 N 0.50504 0.46811 0.39709 0.0
C453 C 0.51592 0.48242 0.44093 0.0
C454 C 0.49197 0.51948 0.45808 0.0
C455 C 0.98362 0.53227 0.4396 0.0
C456 C 0.0141 0.55488 0.4674 0.0
C457 C 0.9404 0.52576 0.45544 0.0
C458 C 0.9263 0.54107 0.49996 0.0
H459 H 0.99394 0.51714 0.40689 0.0
H460 H 0.91861 0.50619 0.4338 0.0
S461 S 0.99345 0.60657 0.58346 0.0
N462 N 0.02711 0.59592 0.53923 0.0
N463 N 0.94594 0.58395 0.56924 0.0
C464 C 0.95588 0.56665 0.52641 0.0
C465 C 0.99987 0.57325 0.51014 0.0
C466 C 0.94406 0.99073 0.56458 0.0
C467 C 0.97036 0.96416 0.53558 0.0
C468 C 0.93069 0.03286 0.54982 0.0
C469 C 0.94298 0.05043 0.50543 0.0
H470 H 0.93518 0.97979 0.59977 0.0
H471 H 0.91173 0.05237 0.57438 0.0
S472 S 0.00607 0.99162 0.41323 0.0
N473 N 0.00388 0.95651 0.4579 0.0
N474 N 0.97914 0.0358 0.4307 0.0
C475 C 0.96678 0.02311 0.47483 0.0
C476 C 0.98033 0.98005 0.48977 0.0
C477 C 0.53414 0.93565 0.53706 0.0
C478 C 0.55679 0.96611 0.50849 0.0
C479 C 0.49158 0.92186 0.52553 0.0
C480 C 0.46978 0.93777 0.4849 0.0
H481 H 0.54846 0.92375 0.56978 0.0
H482 H 0.47503 0.89984 0.54992 0.0
S483 S 0.51755 0.01192 0.39389 0.0
N484 N 0.55649 0.0071 0.43427 0.0
N485 N 0.47628 0.98142 0.41295 0.0
C486 C 0.4933 0.96546 0.45403 0.0
C487 C 0.53681 0.97953 0.46575 0.0
C488 C 0.5547 0.24865 0.26371 0.0
C489 C 0.5938 0.26174 0.2862 0.0
C490 C 0.55492 0.23362 0.2168 0.0
C491 C 0.59423 0.2315 0.19085 0.0
H492 H 0.52391 0.24904 0.28291 0.0
H493 H 0.52405 0.22463 0.2004 0.0
S494 S 0.70539 0.261 0.23405 0.0
N495 N 0.67284 0.27017 0.27966 0.0
N496 N 0.67314 0.24355 0.19108 0.0
C497 C 0.63344 0.24458 0.21299 0.0
C498 C 0.63328 0.25915 0.26084 0.0
C499 C 0.21111 0.59971 0.27973 0.0
C500 C 0.24031 0.60384 0.31798 0.0
C501 C 0.22641 0.59892 0.2328 0.0
C502 C 0.2717 0.60182 0.22187 0.0
H503 H 0.17612 0.59683 0.28598 0.0
H504 H 0.20234 0.59527 0.20488 0.0
S505 S 0.36227 0.6135 0.30891 0.0
N506 N 0.31728 0.61136 0.34128 0.0
N507 N 0.34545 0.60969 0.25371 0.0
C508 C 0.30121 0.60642 0.25975 0.0
C509 C 0.28574 0.60748 0.30749 0.0
C510 C 0.89008 0.30096 0.24185 0.0
C511 C 0.8941 0.26715 0.2087 0.0
C512 C 0.89202 0.29194 0.29056 0.0
C513 C 0.8988 0.2488 0.30842 0.0
H514 H 0.88463 0.33452 0.23015 0.0
H515 H 0.88841 0.31941 0.31443 0.0
S516 S 0.91416 0.14878 0.23609 0.0
N517 N 0.90696 0.18874 0.19706 0.0
N518 N 0.911 0.17226 0.28837 0.0
C519 C 0.90385 0.21483 0.27556 0.0
C520 C 0.90136 0.22388 0.22591 0.0
C521 C 0.29664 0.90483 0.27627 0.0
C522 C 0.26159 0.90919 0.30806 0.0
C523 C 0.28925 0.90386 0.22739 0.0
C524 C 0.24652 0.90786 0.20807 0.0
H525 H 0.33006 0.90189 0.28919 0.0
H526 H 0.31762 0.90063 0.2046 0.0
S527 S 0.14327 0.92068 0.27622 0.0
N528 N 0.18223 0.91783 0.31673 0.0
N529 N 0.16869 0.91627 0.22502 0.0
C530 C 0.21114 0.91222 0.2395 0.0
C531 C 0.21858 0.91282 0.28935 0.0
C532 C 0.48397 0.72841 0.80707 0.0
C533 C 0.49341 0.76935 0.78595 0.0
C534 C 0.47855 0.69049 0.77984 0.0
C535 C 0.48234 0.69173 0.73025 0.0
H536 H 0.47866 0.72585 0.84482 0.0
H537 H 0.46936 0.66035 0.79786 0.0
S538 S 0.51409 0.78914 0.65821 0.0
N539 N 0.51183 0.80768 0.71283 0.0
N540 N 0.50149 0.73642 0.66168 0.0
C541 C 0.49506 0.73171 0.70894 0.0
C542 C 0.50059 0.77046 0.73676 0.0
C543 C 0.7609 0.51282 0.76909 0.0
C544 C 0.75812 0.51282 0.71935 0.0
C545 C 0.72314 0.51067 0.79748 0.0
C546 C 0.6809 0.5083 0.77736 0.0
H547 H 0.79264 0.51252 0.78649 0.0
H548 H 0.72737 0.50843 0.83541 0.0
S549 S 0.65491 0.51418 0.64911 0.0
N550 N 0.70912 0.51536 0.65138 0.0
N551 N 0.63829 0.51149 0.70454 0.0
C552 C 0.67744 0.5116 0.72776 0.0
C553 C 0.71594 0.51382 0.69883 0.0
C554 C 0.03563 0.75904 0.75459 0.0
C555 C 0.04884 0.75828 0.70703 0.0
C556 C 0.04197 0.72213 0.78427 0.0
C557 C 0.0614 0.68306 0.7673 0.0
H558 H 0.0232 0.78922 0.76976 0.0
H559 H 0.03351 0.72503 0.82127 0.0
S560 S 0.09581 0.66313 0.64311 0.0
N561 N 0.07819 0.71449 0.64309 0.0
N562 N 0.08907 0.64503 0.69774 0.0
C563 C 0.07153 0.68115 0.71869 0.0
C564 C 0.06557 0.71878 0.6889 0.0
C565 C 0.75699 0.00308 0.7066 0.0
C566 C 0.71492 1.00001 0.727 0.0
C567 C 0.795 0.0034 0.73459 0.0
C568 C 0.79262 1.00053 0.78418 0.0
H569 H 0.76071 0.00723 0.66879 0.0
H570 H 0.82638 0.00766 0.71711 0.0
S571 S 0.69074 0.98549 0.85476 0.0
N572 N 0.6734 0.98926 0.79962 0.0
N573 N 0.74478 0.98981 0.8522 0.0
C574 C 0.75095 0.99442 0.80488 0.0
C575 C 0.71215 0.99421 0.77631 0.0
loop_
_geom_bond_atom_site_label_1
_geom_bond_atom_site_label_2
_geom_bond_distance
_geom_bond_site_symmetry_2
_ccdc_geom_bond_type
Mg0 O1 2.028 . S
Mg0 O7 1.986 . S
Mg0 O9 2.114 . S
Mg0 O10 2.251 . S
Mg0 O13 2.010 . S
O1 Mg0 2.028 . S
O1 C4 1.250 . S
O2 Mg3 2.028 . S
O2 C4 1.248 . S
Mg3 O2 2.028 . S
Mg3 O8 2.032 . S
Mg3 O10 2.079 . S
C4 O1 1.250 . S
C4 O2 1.248 . S
C5 O6 1.264 . S
C5 O13 1.249 . S
O6 C5 1.264 . S
O7 Mg0 1.986 . S
O7 C11 1.246 . S
O8 Mg3 2.032 . S
O8 C11 1.259 . S
O9 Mg0 2.114 . S
O9 C12 1.252 . S
O10 Mg0 2.251 . S
O10 Mg3 2.079 . S
O10 C12 1.273 . S
C11 O7 1.246 . S
C11 O8 1.259 . S
C12 O9 1.252 . S
C12 O10 1.273 . S
O13 Mg0 2.010 . S
O13 C5 1.249 . S
Mg14 O15 2.028 . S
Mg14 O21 1.986 . S
Mg14 O23 2.114 . S
Mg14 O24 2.251 . S
Mg14 O27 2.010 . S
O15 Mg14 2.028 . S
O15 C18 1.250 . S
O16 Mg17 2.028 . S
O16 C18 1.248 . S
Mg17 O16 2.028 . S
Mg17 O22 2.032 . S
Mg17 O24 2.079 . S
C18 O15 1.250 . S
C18 O16 1.248 . S
C19 O20 1.264 . S
C19 O27 1.249 . S
O20 C19 1.264 . S
O21 Mg14 1.986 . S
O21 C25 1.246 . S
O22 Mg17 2.032 . S
O22 C25 1.259 . S
O23 Mg14 2.114 . S
O23 C26 1.252 . S
O24 Mg14 2.251 . S
O24 Mg17 2.079 . S
O24 C26 1.273 . S
C25 O21 1.246 . S
C25 O22 1.259 . S
C26 O23 1.252 . S
C26 O24 1.273 . S
O27 Mg14 2.010 . S
O27 C19 1.249 . S
Mg28 O29 2.028 . S
Mg28 O35 1.986 . S
Mg28 O37 2.114 . S
Mg28 O38 2.251 . S
Mg28 O41 2.010 . S
O29 Mg28 2.028 . S
O29 C32 1.250 . S
O30 Mg31 2.028 . S
O30 C32 1.248 . S
Mg31 O30 2.028 . S
Mg31 O36 2.032 . S
Mg31 O38 2.079 . S
C32 O29 1.250 . S
C32 O30 1.248 . S
C33 O34 1.264 1_655 S
C33 O41 1.249 . S
O34 C33 1.264 1_455 S
O35 Mg28 1.986 . S
O35 C39 1.246 . S
O36 Mg31 2.032 . S
O36 C39 1.259 . S
O37 Mg28 2.114 . S
O37 C40 1.252 . S
O38 Mg28 2.251 . S
O38 Mg31 2.079 . S
O38 C40 1.273 . S
C39 O35 1.246 . S
C39 O36 1.259 . S
C40 O37 1.252 . S
C40 O38 1.273 . S
O41 Mg28 2.010 . S
O41 C33 1.249 . S
Mg42 O43 2.028 . S
Mg42 O49 1.986 . S
Mg42 O51 2.114 . S
Mg42 O52 2.251 . S
Mg42 O55 2.010 . S
O43 Mg42 2.028 . S
O43 C46 1.250 . S
O44 Mg45 2.028 . S
O44 C46 1.248 . S
Mg45 O44 2.028 . S
Mg45 O50 2.032 . S
Mg45 O52 2.079 . S
C46 O43 1.250 . S
C46 O44 1.248 . S
C47 O48 1.264 1_565 S
C47 O55 1.249 . S
O48 C47 1.264 1_545 S
O49 Mg42 1.986 . S
O49 C53 1.246 . S
O50 Mg45 2.032 . S
O50 C53 1.259 . S
O51 Mg42 2.114 . S
O51 C54 1.252 . S
O52 Mg42 2.251 . S
O52 Mg45 2.079 . S
O52 C54 1.273 . S
C53 O49 1.246 . S
C53 O50 1.259 . S
C54 O51 1.252 . S
C54 O52 1.273 . S
O55 Mg42 2.010 . S
O55 C47 1.249 . S
Mg56 O57 2.028 . S
Mg56 O63 1.986 . S
Mg56 O65 2.114 . S
Mg56 O66 2.251 . S
Mg56 O69 2.010 . S
O57 Mg56 2.028 . S
O57 C60 1.250 . S
O58 Mg59 2.028 . S
O58 C60 1.248 . S
Mg59 O58 2.028 . S
Mg59 O64 2.032 . S
Mg59 O66 2.079 . S
C60 O57 1.250 . S
C60 O58 1.248 . S
C61 O62 1.264 . S
C61 O69 1.249 . S
O62 C61 1.264 . S
O63 Mg56 1.986 . S
O63 C67 1.246 . S
O64 Mg59 2.032 . S
O64 C67 1.259 . S
O65 Mg56 2.114 . S
O65 C68 1.252 . S
O66 Mg56 2.251 . S
O66 Mg59 2.079 . S
O66 C68 1.273 . S
C67 O63 1.246 . S
C67 O64 1.259 . S
C68 O65 1.252 . S
C68 O66 1.273 . S
O69 Mg56 2.010 . S
O69 C61 1.249 . S
Mg70 O71 2.028 . S
Mg70 O77 1.986 . S
Mg70 O79 2.114 . S
Mg70 O80 2.251 . S
Mg70 O83 2.010 . S
O71 Mg70 2.028 . S
O71 C74 1.250 . S
O72 Mg73 2.028 . S
O72 C74 1.248 . S
Mg73 O72 2.028 . S
Mg73 O78 2.032 . S
Mg73 O80 2.079 . S
C74 O71 1.250 . S
C74 O72 1.248 . S
C75 O76 1.264 . S
C75 O83 1.249 . S
O76 C75 1.264 . S
O77 Mg70 1.986 . S
O77 C81 1.246 . S
O78 Mg73 2.032 . S
O78 C81 1.259 . S
O79 Mg70 2.114 . S
O79 C82 1.252 . S
O80 Mg70 2.251 . S
O80 Mg73 2.079 . S
O80 C82 1.273 . S
C81 O77 1.246 . S
C81 O78 1.259 . S
C82 O79 1.252 . S
C82 O80 1.273 . S
O83 Mg70 2.010 . S
O83 C75 1.249 . S
Mg84 O85 2.028 . S
Mg84 O91 1.986 . S
Mg84 O93 2.114 . S
Mg84 O94 2.251 . S
Mg84 O97 2.010 . S
O85 Mg84 2.028 . S
O85 C88 1.250 . S
O86 Mg87 2.028 . S
O86 C88 1.248 . S
Mg87 O86 2.028 . S
Mg87 O92 2.032 . S
Mg87 O94 2.079 . S
C88 O85 1.250 . S
C88 O86 1.248 . S
C89 O90 1.264 1_655 S
C89 O97 1.249 . S
O90 C89 1.264 1_455 S
O91 Mg84 1.986 . S
O91 C95 1.246 . S
O92 Mg87 2.032 . S
O92 C95 1.259 . S
O93 Mg84 2.114 . S
O93 C96 1.252 . S
O94 Mg84 2.251 . S
O94 Mg87 2.079 . S
O94 C96 1.273 . S
C95 O91 1.246 . S
C95 O92 1.259 . S
C96 O93 1.252 . S
C96 O94 1.273 . S
O97 Mg84 2.010 . S
O97 C89 1.249 . S
Mg98 O99 2.028 . S
Mg98 O105 1.986 . S
Mg98 O107 2.114 . S
Mg98 O108 2.251 . S
Mg98 O111 2.010 . S
O99 Mg98 2.028 . S
O99 C102 1.250 . S
O100 Mg101 2.028 . S
O100 C102 1.248 . S
Mg101 O100 2.028 . S
Mg101 O106 2.032 . S
Mg101 O108 2.079 . S
C102 O99 1.250 . S
C102 O100 1.248 . S
C103 O104 1.264 1_565 S
C103 O111 1.249 . S
O104 C103 1.264 1_545 S
O105 Mg98 1.986 . S
O105 C109 1.246 . S
O106 Mg101 2.032 . S
O106 C109 1.259 . S
O107 Mg98 2.114 . S
O107 C110 1.252 . S
O108 Mg98 2.251 . S
O108 Mg101 2.079 . S
O108 C110 1.273 . S
C109 O105 1.246 . S
C109 O106 1.259 . S
C110 O107 1.252 . S
C110 O108 1.273 . S
O111 Mg98 2.010 . S
O111 C103 1.249 . S
Mg112 O113 2.028 . S
Mg112 O119 1.986 . S
Mg112 O121 2.114 . S
Mg112 O122 2.251 . S
Mg112 O125 2.010 . S
O113 Mg112 2.028 . S
O113 C116 1.250 . S
O114 Mg115 2.028 . S
O114 C116 1.248 1_554 S
Mg115 O114 2.028 . S
Mg115 O120 2.032 . S
Mg115 O122 2.079 1_554 S
C116 O113 1.250 . S
C116 O114 1.248 1_556 S
C117 O118 1.264 . S
C117 O125 1.249 . S
O118 C117 1.264 . S
O119 Mg112 1.986 . S
O119 C123 1.246 . S
O120 Mg115 2.032 . S
O120 C123 1.259 1_554 S
O121 Mg112 2.114 . S
O121 C124 1.252 . S
O122 Mg112 2.251 . S
O122 Mg115 2.079 1_556 S
O122 C124 1.273 . S
C123 O119 1.246 . S
C123 O120 1.259 1_556 S
C124 O121 1.252 . S
C124 O122 1.273 . S
O125 Mg112 2.010 . S
O125 C117 1.249 . S
Mg126 O127 2.028 . S
Mg126 O133 1.986 . S
Mg126 O135 2.114 . S
Mg126 O136 2.251 . S
Mg126 O139 2.010 . S
O127 Mg126 2.028 . S
O127 C130 1.250 . S
O128 Mg129 2.028 . S
O128 C130 1.248 1_554 S
Mg129 O128 2.028 . S
Mg129 O134 2.032 . S
Mg129 O136 2.079 1_554 S
C130 O127 1.250 . S
C130 O128 1.248 1_556 S
C131 O132 1.264 . S
C131 O139 1.249 . S
O132 C131 1.264 . S
O133 Mg126 1.986 . S
O133 C137 1.246 . S
O134 Mg129 2.032 . S
O134 C137 1.259 1_554 S
O135 Mg126 2.114 . S
O135 C138 1.252 . S
O136 Mg126 2.251 . S
O136 Mg129 2.079 1_556 S
O136 C138 1.273 . S
C137 O133 1.246 . S
C137 O134 1.259 1_556 S
C138 O135 1.252 . S
C138 O136 1.273 . S
O139 Mg126 2.010 . S
O139 C131 1.249 . S
Mg140 O141 2.028 . S
Mg140 O147 1.986 . S
Mg140 O149 2.114 . S
Mg140 O150 2.251 . S
Mg140 O153 2.010 . S
O141 Mg140 2.028 . S
O141 C144 1.250 . S
O142 Mg143 2.028 . S
O142 C144 1.248 1_554 S
Mg143 O142 2.028 . S
Mg143 O148 2.032 . S
Mg143 O150 2.079 1_554 S
C144 O141 1.250 . S
C144 O142 1.248 1_556 S
C145 O146 1.264 . S
C145 O153 1.249 . S
O146 C145 1.264 . S
O147 Mg140 1.986 . S
O147 C151 1.246 . S
O148 Mg143 2.032 . S
O148 C151 1.259 1_554 S
O149 Mg140 2.114 . S
O149 C152 1.252 . S
O150 Mg140 2.251 . S
O150 Mg143 2.079 1_556 S
O150 C152 1.273 . S
C151 O147 1.246 . S
C151 O148 1.259 1_556 S
C152 O149 1.252 . S
C152 O150 1.273 . S
O153 Mg140 2.010 . S
O153 C145 1.249 . S
Mg154 O155 2.028 . S
Mg154 O161 1.986 . S
Mg154 O163 2.114 . S
Mg154 O164 2.251 . S
Mg154 O167 2.010 . S
O155 Mg154 2.028 . S
O155 C158 1.250 . S
O156 Mg157 2.028 . S
O156 C158 1.248 1_554 S
Mg157 O156 2.028 . S
Mg157 O162 2.032 . S
Mg157 O164 2.079 1_554 S
C158 O155 1.250 . S
C158 O156 1.248 1_556 S
C159 O160 1.264 . S
C159 O167 1.249 . S
O160 C159 1.264 . S
O161 Mg154 1.986 . S
O161 C165 1.246 . S
O162 Mg157 2.032 . S
O162 C165 1.259 1_554 S
O163 Mg154 2.114 . S
O163 C166 1.252 . S
O164 Mg154 2.251 . S
O164 Mg157 2.079 1_556 S
O164 C166 1.273 . S
C165 O161 1.246 . S
C165 O162 1.259 1_556 S
C166 O163 1.252 . S
C166 O164 1.273 . S
O167 Mg154 2.010 . S
O167 C159 1.249 . S
Mg168 O169 2.028 . S
Mg168 O175 1.986 . S
Mg168 O177 2.114 . S
Mg168 O178 2.251 . S
Mg168 O181 2.010 . S
O169 Mg168 2.028 . S
O169 C172 1.250 . S
O170 Mg171 2.028 . S
O170 C172 1.248 . S
Mg171 O170 2.028 . S
Mg171 O176 2.032 . S
Mg171 O178 2.079 . S
C172 O169 1.250 . S
C172 O170 1.248 . S
C173 O174 1.264 . S
C173 O181 1.249 . S
O174 C173 1.264 . S
O175 Mg168 1.986 . S
O175 C179 1.246 . S
O176 Mg171 2.032 . S
O176 C179 1.259 . S
O177 Mg168 2.114 . S
O177 C180 1.252 . S
O178 Mg168 2.251 . S
O178 Mg171 2.079 . S
O178 C180 1.273 . S
C179 O175 1.246 . S
C179 O176 1.259 . S
C180 O177 1.252 . S
C180 O178 1.273 . S
O181 Mg168 2.010 . S
O181 C173 1.249 . S
Mg182 O183 2.028 . S
Mg182 O189 1.986 . S
Mg182 O191 2.114 . S
Mg182 O192 2.251 . S
Mg182 O195 2.010 . S
O183 Mg182 2.028 . S
O183 C186 1.250 . S
O184 Mg185 2.028 . S
O184 C186 1.248 . S
Mg185 O184 2.028 . S
Mg185 O190 2.032 . S
Mg185 O192 2.079 . S
C186 O183 1.250 . S
C186 O184 1.248 . S
C187 O188 1.264 . S
C187 O195 1.249 . S
O188 C187 1.264 . S
O189 Mg182 1.986 . S
O189 C193 1.246 . S
O190 Mg185 2.032 . S
O190 C193 1.259 . S
O191 Mg182 2.114 . S
O191 C194 1.252 . S
O192 Mg182 2.251 . S
O192 Mg185 2.079 . S
O192 C194 1.273 . S
C193 O189 1.246 . S
C193 O190 1.259 . S
C194 O191 1.252 . S
C194 O192 1.273 . S
O195 Mg182 2.010 . S
O195 C187 1.249 . S
Mg196 O197 2.028 . S
Mg196 O203 1.986 . S
Mg196 O205 2.114 . S
Mg196 O206 2.251 . S
Mg196 O209 2.010 . S
O197 Mg196 2.028 . S
O197 C200 1.250 . S
O198 Mg199 2.028 . S
O198 C200 1.248 . S
Mg199 O198 2.028 . S
Mg199 O204 2.032 . S
Mg199 O206 2.079 . S
C200 O197 1.250 . S
C200 O198 1.248 . S
C201 O202 1.264 . S
C201 O209 1.249 . S
O202 C201 1.264 . S
O203 Mg196 1.986 . S
O203 C207 1.246 . S
O204 Mg199 2.032 . S
O204 C207 1.259 . S
O205 Mg196 2.114 . S
O205 C208 1.252 . S
O206 Mg196 2.251 . S
O206 Mg199 2.079 . S
O206 C208 1.273 . S
C207 O203 1.246 . S
C207 O204 1.259 . S
C208 O205 1.252 . S
C208 O206 1.273 . S
O209 Mg196 2.010 . S
O209 C201 1.249 . S
Mg210 O211 2.028 . S
Mg210 O217 1.986 . S
Mg210 O219 2.114 . S
Mg210 O220 2.251 . S
Mg210 O223 2.010 . S
O211 Mg210 2.028 . S
O211 C214 1.250 . S
O212 Mg213 2.028 . S
O212 C214 1.248 . S
Mg213 O212 2.028 . S
Mg213 O218 2.032 . S
Mg213 O220 2.079 . S
C214 O211 1.250 . S
C214 O212 1.248 . S
C215 O216 1.264 . S
C215 O223 1.249 . S
O216 C215 1.264 . S
O217 Mg210 1.986 . S
O217 C221 1.246 . S
O218 Mg213 2.032 . S
O218 C221 1.259 . S
O219 Mg210 2.114 . S
O219 C222 1.252 . S
O220 Mg210 2.251 . S
O220 Mg213 2.079 . S
O220 C222 1.273 . S
C221 O217 1.246 . S
C221 O218 1.259 . S
C222 O219 1.252 . S
C222 O220 1.273 . S
O223 Mg210 2.010 . S
O223 C215 1.249 . S
C224 C225 1.369 1_556 S
C224 C226 1.419 . S
C224 H228 0.930 . S
C225 C224 1.369 1_554 S
C225 C234 1.429 . S
C226 C224 1.419 . S
C226 C227 1.363 . S
C226 H229 0.929 . S
C227 C226 1.363 . S
C227 C233 1.428 . S
H228 C224 0.930 . S
H229 C226 0.929 . S
S230 N231 1.613 . S
S230 N232 1.610 . S
N231 S230 1.613 . S
N231 C234 1.350 . S
N232 S230 1.610 . S
N232 C233 1.351 1_554 S
C233 C227 1.428 . S
C233 N232 1.351 1_556 S
C233 C234 1.434 1_556 S
C234 C225 1.429 . S
C234 N231 1.350 . S
C234 C233 1.434 1_554 S
C235 C236 1.369 . S
C235 C237 1.419 . S
C235 H239 0.930 . S
C236 C235 1.369 . S
C236 C245 1.429 1_556 S
C237 C235 1.419 . S
C237 C238 1.363 1_556 S
C237 H240 0.929 . S
C238 C237 1.363 1_554 S
C238 C244 1.428 . S
H239 C235 0.930 . S
H240 C237 0.929 . S
S241 N242 1.613 . S
S241 N243 1.610 . S
N242 S241 1.613 . S
N242 C245 1.350 . S
N243 S241 1.610 . S
N243 C244 1.351 . S
C244 C238 1.428 . S
C244 N243 1.351 . S
C244 C245 1.434 . S
C245 C236 1.429 1_554 S
C245 N242 1.350 . S
C245 C244 1.434 . S
C246 C247 1.369 . S
C246 C248 1.419 . S
C246 H250 0.930 . S
C247 C246 1.369 . S
C247 C256 1.429 1_556 S
C248 C246 1.419 . S
C248 C249 1.363 1_556 S
C248 H251 0.929 . S
C249 C248 1.363 1_554 S
C249 C255 1.428 . S
H250 C246 0.930 . S
H251 C248 0.929 . S
S252 N253 1.613 . S
S252 N254 1.610 . S
N253 S252 1.613 . S
N253 C256 1.350 . S
N254 S252 1.610 . S
N254 C255 1.351 . S
C255 C249 1.428 . S
C255 N254 1.351 . S
C255 C256 1.434 . S
C256 C247 1.429 1_554 S
C256 N253 1.350 . S
C256 C255 1.434 . S
C257 C258 1.369 . S
C257 C259 1.419 1_556 S
C257 H261 0.930 . S
C258 C257 1.369 . S
C258 C267 1.429 . S
C259 C257 1.419 1_554 S
C259 C260 1.363 . S
C259 H262 0.929 . S
C260 C259 1.363 . S
C260 C266 1.428 1_554 S
H261 C257 0.930 . S
H262 C259 0.929 . S
S263 N264 1.613 1_545 S
S263 N265 1.610 1_545 S
N264 S263 1.613 1_565 S
N264 C267 1.350 . S
N265 S263 1.610 1_565 S
N265 C266 1.351 . S
C266 C260 1.428 1_556 S
C266 N265 1.351 . S
C266 C267 1.434 . S
C267 C258 1.429 . S
C267 N264 1.350 . S
C267 C266 1.434 . S
C268 C269 1.369 . S
C268 C270 1.419 . S
C268 H272 0.930 . S
C269 C268 1.369 . S
C269 C278 1.429 . S
C270 C268 1.419 . S
C270 C271 1.363 . S
C270 H273 0.929 . S
C271 C270 1.363 . S
C271 C277 1.428 . S
H272 C268 0.930 . S
H273 C270 0.929 . S
S274 N275 1.613 . S
S274 N276 1.610 . S
N275 S274 1.613 . S
N275 C278 1.350 . S
N276 S274 1.610 . S
N276 C277 1.351 . S
C277 C271 1.428 . S
C277 N276 1.351 . S
C277 C278 1.434 . S
C278 C269 1.429 . S
C278 N275 1.350 . S
C278 C277 1.434 . S
C279 C280 1.369 . S
C279 C281 1.419 . S
C279 H283 0.930 . S
C280 C279 1.369 . S
C280 C289 1.429 . S
C281 C279 1.419 . S
C281 C282 1.363 . S
C281 H284 0.929 . S
C282 C281 1.363 . S
C282 C288 1.428 . S
H283 C279 0.930 . S
H284 C281 0.929 . S
S285 N286 1.613 . S
S285 N287 1.610 . S
N286 S285 1.613 . S
N286 C289 1.350 . S
N287 S285 1.610 . S
N287 C288 1.351 . S
C288 C282 1.428 . S
C288 N287 1.351 . S
C288 C289 1.434 . S
C289 C280 1.429 . S
C289 N286 1.350 . S
C289 C288 1.434 . S
C290 C291 1.369 . S
C290 C292 1.419 . S
C290 H294 0.930 . S
C291 C290 1.369 . S
C291 C300 1.429 . S
C292 C290 1.419 . S
C292 C293 1.363 . S
C292 H295 0.929 . S
C293 C292 1.363 . S
C293 C299 1.428 . S
H294 C290 0.930 . S
H295 C292 0.929 . S
S296 N297 1.613 . S
S296 N298 1.610 . S
N297 S296 1.613 . S
N297 C300 1.350 . S
N298 S296 1.610 . S
N298 C299 1.351 . S
C299 C293 1.428 . S
C299 N298 1.351 . S
C299 C300 1.434 . S
C300 C291 1.429 . S
C300 N297 1.350 . S
C300 C299 1.434 . S
C301 C302 1.369 . S
C301 C303 1.419 . S
C301 H305 0.930 . S
C302 C301 1.369 . S
C302 C311 1.429 . S
C303 C301 1.419 . S
C303 C304 1.363 . S
C303 H306 0.929 . S
C304 C303 1.363 . S
C304 C310 1.428 . S
H305 C301 0.930 . S
H306 C303 0.929 . S
S307 N308 1.613 . S
S307 N309 1.610 . S
N308 S307 1.613 . S
N308 C311 1.350 . S
N309 S307 1.610 . S
N309 C310 1.351 . S
C310 C304 1.428 . S
C310 N309 1.351 . S
C310 C311 1.434 . S
C311 C302 1.429 . S
C311 N308 1.350 . S
C311 C310 1.434 . S
C312 C313 1.369 . S
C312 C314 1.419 1_556 S
C312 H316 0.930 . S
C313 C312 1.369 . S
C313 C322 1.429 1_556 S
C314 C312 1.419 1_554 S
C314 C315 1.363 . S
C314 H317 0.929 1_554 S
C315 C314 1.363 . S
C315 C321 1.428 . S
H316 C312 0.930 . S
H317 C314 0.929 1_556 S
S318 N319 1.613 . S
S318 N320 1.610 . S
N319 S318 1.613 . S
N319 C322 1.350 . S
N320 S318 1.610 . S
N320 C321 1.351 . S
C321 C315 1.428 . S
C321 N320 1.351 . S
C321 C322 1.434 . S
C322 C313 1.429 1_554 S
C322 N319 1.350 . S
C322 C321 1.434 . S
C323 C324 1.369 . S
C323 C325 1.419 1_556 S
C323 H327 0.930 . S
C324 C323 1.369 . S
C324 C333 1.429 1_556 S
C325 C323 1.419 1_554 S
C325 C326 1.363 . S
C325 H328 0.929 . S
C326 C325 1.363 . S
C326 C332 1.428 . S
H327 C323 0.930 . S
H328 C325 0.929 . S
S329 N330 1.613 . S
S329 N331 1.610 . S
N330 S329 1.613 . S
N330 C333 1.350 . S
N331 S329 1.610 . S
N331 C332 1.351 . S
C332 C326 1.428 . S
C332 N331 1.351 . S
C332 C333 1.434 . S
C333 C324 1.429 1_554 S
C333 N330 1.350 . S
C333 C332 1.434 . S
C334 C335 1.369 1_554 S
C334 C336 1.419 . S
C334 H338 0.930 . S
C335 C334 1.369 1_556 S
C335 C344 1.429 . S
C336 C334 1.419 . S
C336 C337 1.363 . S
C336 H339 0.929 . S
C337 C336 1.363 . S
C337 C343 1.428 . S
H338 C334 0.930 . S
H339 C336 0.929 . S
S340 N341 1.613 . S
S340 N342 1.610 1_556 S
N341 S340 1.613 . S
N341 C344 1.350 . S
N342 S340 1.610 1_554 S
N342 C343 1.351 . S
C343 C337 1.428 . S
C343 N342 1.351 . S
C343 C344 1.434 1_554 S
C344 C335 1.429 . S
C344 N341 1.350 . S
C344 C343 1.434 1_556 S
C345 C346 1.369 . S
C345 C347 1.419 . S
C345 H349 0.930 . S
C346 C345 1.369 . S
C346 C355 1.429 . S
C347 C345 1.419 . S
C347 C348 1.363 1_554 S
C347 H350 0.929 . S
C348 C347 1.363 1_556 S
C348 C354 1.428 . S
H349 C345 0.930 . S
H350 C347 0.929 . S
S351 N352 1.613 . S
S351 N353 1.610 . S
N352 S351 1.613 . S
N352 C355 1.350 1_556 S
N353 S351 1.610 . S
N353 C354 1.351 . S
C354 C348 1.428 . S
C354 N353 1.351 . S
C354 C355 1.434 1_556 S
C355 C346 1.429 . S
C355 N352 1.350 1_554 S
C355 C354 1.434 1_554 S
C356 C357 1.369 . S
C356 C358 1.419 . S
C356 H360 0.930 . S
C357 C356 1.369 . S
C357 C366 1.429 . S
C358 C356 1.419 . S
C358 C359 1.363 . S
C358 H361 0.929 . S
C359 C358 1.363 . S
C359 C365 1.428 . S
H360 C356 0.930 . S
H361 C358 0.929 . S
S362 N363 1.613 . S
S362 N364 1.610 . S
N363 S362 1.613 . S
N363 C366 1.350 . S
N364 S362 1.610 . S
N364 C365 1.351 . S
C365 C359 1.428 . S
C365 N364 1.351 . S
C365 C366 1.434 . S
C366 C357 1.429 . S
C366 N363 1.350 . S
C366 C365 1.434 . S
C367 C368 1.369 . S
C367 C369 1.419 . S
C367 H371 0.930 . S
C368 C367 1.369 . S
C368 C377 1.429 . S
C369 C367 1.419 . S
C369 C370 1.363 . S
C369 H372 0.929 . S
C370 C369 1.363 . S
C370 C376 1.428 . S
H371 C367 0.930 . S
H372 C369 0.929 . S
S373 N374 1.613 . S
S373 N375 1.610 . S
N374 S373 1.613 . S
N374 C377 1.350 . S
N375 S373 1.610 . S
N375 C376 1.351 . S
C376 C370 1.428 . S
C376 N375 1.351 . S
C376 C377 1.434 . S
C377 C368 1.429 . S
C377 N374 1.350 . S
C377 C376 1.434 . S
C378 C379 1.369 . S
C378 C380 1.419 . S
C378 H382 0.930 . S
C379 C378 1.369 . S
C379 C388 1.429 . S
C380 C378 1.419 . S
C380 C381 1.363 . S
C380 H383 0.929 . S
C381 C380 1.363 . S
C381 C387 1.428 . S
H382 C378 0.930 . S
H383 C380 0.929 . S
S384 N385 1.613 . S
S384 N386 1.610 . S
N385 S384 1.613 . S
N385 C388 1.350 . S
N386 S384 1.610 . S
N386 C387 1.351 . S
C387 C381 1.428 . S
C387 N386 1.351 . S
C387 C388 1.434 . S
C388 C379 1.429 . S
C388 N385 1.350 . S
C388 C387 1.434 . S
C389 C390 1.369 . S
C389 C391 1.419 . S
C389 H393 0.930 . S
C390 C389 1.369 . S
C390 C399 1.429 . S
C391 C389 1.419 . S
C391 C392 1.363 . S
C391 H394 0.929 . S
C392 C391 1.363 . S
C392 C398 1.428 . S
H393 C389 0.930 . S
H394 C391 0.929 . S
S395 N396 1.613 . S
S395 N397 1.610 . S
N396 S395 1.613 . S
N396 C399 1.350 . S
N397 S395 1.610 . S
N397 C398 1.351 . S
C398 C392 1.428 . S
C398 N397 1.351 . S
C398 C399 1.434 . S
C399 C390 1.429 . S
C399 N396 1.350 . S
C399 C398 1.434 . S
C400 C401 1.369 . S
C400 C402 1.419 1_566 S
C400 H404 0.930 . S
C401 C400 1.369 . S
C401 C410 1.429 . S
C402 C400 1.419 1_544 S
C402 C403 1.363 . S
C402 H405 0.929 . S
C403 C402 1.363 . S
C403 C409 1.428 . S
H404 C400 0.930 . S
H405 C402 0.929 . S
S406 N407 1.613 1_544 S
S406 N408 1.610 . S
N407 S406 1.613 1_566 S
N407 C410 1.350 . S
N408 S406 1.610 . S
N408 C409 1.351 . S
C409 C403 1.428 . S
C409 N408 1.351 . S
C409 C410 1.434 1_544 S
C410 C401 1.429 . S
C410 N407 1.350 . S
C410 C409 1.434 1_566 S
C411 C412 1.369 1_556 S
C411 C413 1.419 . S
C411 H415 0.930 . S
C412 C411 1.369 1_554 S
C412 C421 1.429 . S
C413 C411 1.419 . S
C413 C414 1.363 . S
C413 H416 0.929 . S
C414 C413 1.363 . S
C414 C420 1.428 1_556 S
H415 C411 0.930 . S
H416 C413 0.929 . S
S417 N418 1.613 . S
S417 N419 1.610 . S
N418 S417 1.613 . S
N418 C421 1.350 . S
N419 S417 1.610 . S
N419 C420 1.351 . S
C420 C414 1.428 1_554 S
C420 N419 1.351 . S
C420 C421 1.434 . S
C421 C412 1.429 . S
C421 N418 1.350 . S
C421 C420 1.434 . S
C422 C423 1.369 1_454 S
C422 C424 1.419 . S
C422 H426 0.930 . S
C423 C422 1.369 1_656 S
C423 C432 1.429 . S
C424 C422 1.419 . S
C424 C425 1.363 1_455 S
C424 H427 0.929 . S
C425 C424 1.363 1_655 S
C425 C431 1.428 1_554 S
H426 C422 0.930 . S
H427 C424 0.929 . S
S428 N429 1.613 . S
S428 N430 1.610 . S
N429 S428 1.613 . S
N429 C432 1.350 . S
N430 S428 1.610 . S
N430 C431 1.351 . S
C431 C425 1.428 1_556 S
C431 N430 1.351 . S
C431 C432 1.434 . S
C432 C423 1.429 . S
C432 N429 1.350 . S
C432 C431 1.434 . S
C433 C434 1.369 1_556 S
C433 C435 1.419 1_455 S
C433 H437 0.930 . S
C434 C433 1.369 1_554 S
C434 C443 1.429 1_465 S
C435 C433 1.419 1_655 S
C435 C436 1.375 . S
C435 H438 0.929 . S
C436 C435 1.375 . S
C436 C442 1.421 1_566 S
H437 C433 0.930 . S
H438 C435 0.929 . S
S439 N440 1.613 . S
S439 N441 1.610 . S
N440 S439 1.613 . S
N440 C443 1.350 . S
N441 S439 1.610 . S
N441 C442 1.351 . S
C442 C436 1.421 1_544 S
C442 N441 1.351 . S
C442 C443 1.434 . S
C443 C434 1.429 1_645 S
C443 N440 1.350 . S
C443 C442 1.434 . S
C444 C445 1.369 . S
C444 C446 1.419 . S
C444 H448 0.930 . S
C445 C444 1.369 . S
C445 C454 1.429 . S
C446 C444 1.419 . S
C446 C447 1.363 . S
C446 H449 0.929 . S
C447 C446 1.363 . S
C447 C453 1.428 . S
H448 C444 0.930 . S
H449 C446 0.929 . S
S450 N451 1.613 . S
S450 N452 1.610 . S
N451 S450 1.613 . S
N451 C454 1.350 . S
N452 S450 1.610 . S
N452 C453 1.351 . S
C453 C447 1.428 . S
C453 N452 1.351 . S
C453 C454 1.434 . S
C454 C445 1.429 . S
C454 N451 1.350 . S
C454 C453 1.434 . S
C455 C456 1.369 1_655 S
C455 C457 1.419 . S
C455 H459 0.930 . S
C456 C455 1.369 1_455 S
C456 C465 1.429 . S
C457 C455 1.419 . S
C457 C458 1.363 . S
C457 H460 0.929 . S
C458 C457 1.363 . S
C458 C464 1.428 . S
H459 C455 0.930 . S
H460 C457 0.929 . S
S461 N462 1.613 . S
S461 N463 1.610 1_455 S
N462 S461 1.613 . S
N462 C465 1.350 . S
N463 S461 1.610 1_655 S
N463 C464 1.351 . S
C464 C458 1.428 . S
C464 N463 1.351 . S
C464 C465 1.434 1_655 S
C465 C456 1.429 . S
C465 N462 1.350 . S
C465 C464 1.434 1_455 S
C466 C467 1.369 1_455 S
C466 C468 1.419 1_565 S
C466 H470 0.930 . S
C467 C466 1.369 1_655 S
C467 C476 1.429 . S
C468 C466 1.419 1_545 S
C468 C469 1.363 1_455 S
C468 H471 0.929 . S
C469 C468 1.363 1_655 S
C469 C475 1.428 1_545 S
H470 C466 0.930 . S
H471 C468 0.929 . S
S472 N473 1.613 . S
S472 N474 1.610 . S
N473 S472 1.613 . S
N473 C476 1.350 . S
N474 S472 1.610 . S
N474 C475 1.351 . S
C475 C469 1.428 1_565 S
C475 N474 1.351 . S
C475 C476 1.434 . S
C476 C467 1.429 . S
C476 N473 1.350 . S
C476 C475 1.434 . S
C477 C478 1.369 1_545 S
C477 C479 1.419 . S
C477 H481 0.930 . S
C478 C477 1.369 1_565 S
C478 C487 1.429 . S
C479 C477 1.419 . S
C479 C480 1.363 1_545 S
C479 H482 0.929 . S
C480 C479 1.363 1_565 S
C480 C486 1.428 . S
H481 C477 0.930 . S
H482 C479 0.929 . S
S483 N484 1.613 . S
S483 N485 1.610 . S
N484 S483 1.613 . S
N484 C487 1.350 . S
N485 S483 1.610 . S
N485 C486 1.351 . S
C486 C480 1.428 . S
C486 N485 1.351 . S
C486 C487 1.434 . S
C487 C478 1.429 . S
C487 N484 1.350 . S
C487 C486 1.434 . S
C488 C489 1.369 . S
C488 C490 1.419 . S
C488 H492 0.930 . S
C489 C488 1.369 . S
C489 C498 1.429 . S
C490 C488 1.419 . S
C490 C491 1.363 . S
C490 H493 0.929 . S
C491 C490 1.363 . S
C491 C497 1.428 . S
H492 C488 0.930 . S
H493 C490 0.929 . S
S494 N495 1.613 . S
S494 N496 1.610 . S
N495 S494 1.613 . S
N495 C498 1.350 . S
N496 S494 1.610 . S
N496 C497 1.351 . S
C497 C491 1.428 . S
C497 N496 1.351 . S
C497 C498 1.434 . S
C498 C489 1.429 . S
C498 N495 1.350 . S
C498 C497 1.434 . S
C499 C500 1.369 . S
C499 C501 1.419 . S
C499 H503 0.930 . S
C500 C499 1.369 . S
C500 C509 1.429 . S
C501 C499 1.419 . S
C501 C502 1.363 . S
C501 H504 0.929 . S
C502 C501 1.363 . S
C502 C508 1.428 . S
H503 C499 0.930 . S
H504 C501 0.929 . S
S505 N506 1.613 . S
S505 N507 1.610 . S
N506 S505 1.613 . S
N506 C509 1.350 . S
N507 S505 1.610 . S
N507 C508 1.351 . S
C508 C502 1.428 . S
C508 N507 1.351 . S
C508 C509 1.434 . S
C509 C500 1.429 . S
C509 N506 1.350 . S
C509 C508 1.434 . S
C510 C511 1.369 . S
C510 C512 1.419 . S
C510 H514 0.930 . S
C511 C510 1.369 . S
C511 C520 1.429 . S
C512 C510 1.419 . S
C512 C513 1.363 . S
C512 H515 0.929 . S
C513 C512 1.363 . S
C513 C519 1.428 . S
H514 C510 0.930 . S
H515 C512 0.929 . S
S516 N517 1.613 . S
S516 N518 1.610 . S
N517 S516 1.613 . S
N517 C520 1.350 . S
N518 S516 1.610 . S
N518 C519 1.351 . S
C519 C513 1.428 . S
C519 N518 1.351 . S
C519 C520 1.434 . S
C520 C511 1.429 . S
C520 N517 1.350 . S
C520 C519 1.434 . S
C521 C522 1.369 . S
C521 C523 1.419 . S
C521 H525 0.930 . S
C522 C521 1.369 . S
C522 C531 1.429 . S
C523 C521 1.419 . S
C523 C524 1.363 . S
C523 H526 0.929 . S
C524 C523 1.363 . S
C524 C530 1.428 . S
H525 C521 0.930 . S
H526 C523 0.929 . S
S527 N528 1.613 . S
S527 N529 1.610 . S
N528 S527 1.613 . S
N528 C531 1.350 . S
N529 S527 1.610 . S
N529 C530 1.351 . S
C530 C524 1.428 . S
C530 N529 1.351 . S
C530 C531 1.434 . S
C531 C522 1.429 . S
C531 N528 1.350 . S
C531 C530 1.434 . S
C532 C533 1.369 . S
C532 C534 1.419 . S
C532 H536 0.930 . S
C533 C532 1.369 . S
C533 C542 1.429 . S
C534 C532 1.419 . S
C534 C535 1.363 . S
C534 H537 0.929 . S
C535 C534 1.363 . S
C535 C541 1.428 . S
H536 C532 0.930 . S
H537 C534 0.929 . S
S538 N539 1.613 . S
S538 N540 1.610 . S
N539 S538 1.613 . S
N539 C542 1.350 . S
N540 S538 1.610 . S
N540 C541 1.351 . S
C541 C535 1.428 . S
C541 N540 1.351 . S
C541 C542 1.434 . S
C542 C533 1.429 . S
C542 N539 1.350 . S
C542 C541 1.434 . S
C543 C544 1.369 . S
C543 C545 1.419 . S
C543 H547 0.930 . S
C544 C543 1.369 . S
C544 C553 1.429 . S
C545 C543 1.419 . S
C545 C546 1.363 . S
C545 H548 0.929 . S
C546 C545 1.363 . S
C546 C552 1.428 . S
H547 C543 0.930 . S
H548 C545 0.929 . S
S549 N550 1.613 . S
S549 N551 1.610 . S
N550 S549 1.613 . S
N550 C553 1.350 . S
N551 S549 1.610 . S
N551 C552 1.351 . S
C552 C546 1.428 . S
C552 N551 1.351 . S
C552 C553 1.434 . S
C553 C544 1.429 . S
C553 N550 1.350 . S
C553 C552 1.434 . S
C554 C555 1.369 . S
C554 C556 1.419 . S
C554 H558 0.930 . S
C555 C554 1.369 . S
C555 C564 1.429 . S
C556 C554 1.419 . S
C556 C557 1.363 . S
C556 H559 0.929 . S
C557 C556 1.363 . S
C557 C563 1.428 . S
H558 C554 0.930 . S
H559 C556 0.929 . S
S560 N561 1.613 . S
S560 N562 1.610 . S
N561 S560 1.613 . S
N561 C564 1.350 . S
N562 S560 1.610 . S
N562 C563 1.351 . S
C563 C557 1.428 . S
C563 N562 1.351 . S
C563 C564 1.434 . S
C564 C555 1.429 . S
C564 N561 1.350 . S
C564 C563 1.434 . S
C565 C566 1.369 . S
C565 C567 1.419 . S
C565 H569 0.930 . S
C566 C565 1.369 . S
C566 C575 1.429 . S
C567 C565 1.419 . S
C567 C568 1.363 . S
C567 H570 0.929 . S
C568 C567 1.363 . S
C568 C574 1.428 . S
H569 C565 0.930 . S
H570 C567 0.929 . S
S571 N572 1.613 . S
S571 N573 1.610 . S
N572 S571 1.613 . S
N572 C575 1.350 . S
N573 S571 1.610 . S
N573 C574 1.351 . S
C574 C568 1.428 . S
C574 N573 1.351 . S
C574 C575 1.434 . S
C575 C566 1.429 . S
C575 N572 1.350 . S
C575 C574 1.434 . S
C225 C12 0.807 . S
C227 C138 0.802 . S
C236 C152 0.799 . S
C238 C26 0.800 . S
C247 C166 0.798 . S
C249 C40 0.801 . S
C258 C124 0.804 . S
C260 C54 0.806 . S
C269 C68 0.802 . S
C271 C222 0.799 . S
C280 C180 0.806 . S
C282 C82 0.801 . S
C291 C194 0.807 . S
C293 C96 0.803 . S
C302 C208 0.797 . S
C304 C110 0.802 . S
C313 C116 0.958 . S
C315 C18 0.999 . S
C324 C130 0.967 . S
C326 C32 1.000 . S
C335 C144 0.972 . S
C337 C46 0.996 . S
C346 C4 0.991 . S
C348 C158 0.966 . S
C357 C172 0.968 . S
C359 C102 0.992 . S
C368 C186 0.956 . S
C370 C60 0.990 . S
C379 C74 0.991 . S
C381 C200 0.966 . S
C390 C214 0.964 . S
C392 C88 1.000 . S
C401 C123 1.415 . S
C403 C5 1.486 . S
C412 C19 1.495 . S
C414 C137 1.420 . S
C423 C151 1.427 1_655 S
C425 C33 1.492 . S
C434 C47 1.491 . S
C436 C165 1.405 1_565 S
C445 C179 1.421 . S
C447 C61 1.494 . S
C456 C75 1.485 . S
C458 C193 1.415 . S
C467 C207 1.421 1_655 S
C469 C89 1.494 . S
C478 C221 1.424 1_565 S
C480 C103 1.494 . S
C489 C67 1.737 . S
C491 C11 1.729 . S
C500 C81 1.727 . S
C502 C25 1.739 . S
C511 C39 1.727 . S
C513 C95 1.739 . S
C522 C109 1.729 . S
C524 C53 1.739 . S
C533 C117 1.651 . S
C535 C173 1.657 . S
C544 C187 1.660 . S
C546 C131 1.653 . S
C555 C201 1.659 . S
C557 C145 1.652 . S
C566 C215 1.651 . S
C568 C159 1.659 . S
