# Generated by pormake.
# Topology unh, (4)-cn, num edge types: 1
# Building blocks:
#     Node 0, Type 0, BuildingBlock: ESEHIV_clean_sbu_0, # of connection points: 4
#     Node 1, Type 0, BuildingBlock: ESEHIV_clean_sbu_0, # of connection points: 4
#     Node 2, Type 0, BuildingBlock: ESEHIV_clean_sbu_0, # of connection points: 4
#     Node 3, Type 0, BuildingBlock: ESEHIV_clean_sbu_0, # of connection points: 4
#     Node 4, Type 0, BuildingBlock: ESEHIV_clean_sbu_0, # of connection points: 4
#     Node 5, Type 0, BuildingBlock: ESEHIV_clean_sbu_0, # of connection points: 4
#     Edge 6, Type (0, 0), BuildingBlock: CIFDUS_clean_linker_0, # of connection points: 2
#     Edge 7, Type (0, 0), BuildingBlock: CIFDUS_clean_linker_0, # of connection points: 2
#     Edge 8, Type (0, 0), BuildingBlock: CIFDUS_clean_linker_0, # of connection points: 2
#     Edge 9, Type (0, 0), BuildingBlock: CIFDUS_clean_linker_0, # of connection points: 2
#     Edge 10, Type (0, 0), BuildingBlock: CIFDUS_clean_linker_0, # of connection points: 2
#     Edge 11, Type (0, 0), BuildingBlock: CIFDUS_clean_linker_0, # of connection points: 2
#     Edge 12, Type (0, 0), BuildingBlock: CIFDUS_clean_linker_0, # of connection points: 2
#     Edge 13, Type (0, 0), BuildingBlock: CIFDUS_clean_linker_0, # of connection points: 2
#     Edge 14, Type (0, 0), BuildingBlock: CIFDUS_clean_linker_0, # of connection points: 2
#     Edge 15, Type (0, 0), BuildingBlock: CIFDUS_clean_linker_0, # of connection points: 2
#     Edge 16, Type (0, 0), BuildingBlock: CIFDUS_clean_linker_0, # of connection points: 2
#     Edge 17, Type (0, 0), BuildingBlock: CIFDUS_clean_linker_0, # of connection points: 2
# Relax obj value: 0.010
# Max RMSD: 0.159
# Mean RMSD: 0.159
data_MOF--net-unh--node1-ESEHIV_clean_sbu_0--edge1-CIFDUS_clean_linker_0
_symmetry_space_group_name_H-M    P1
_symmetry_Int_Tables_number       1
_symmetry_cell_setting            triclinic
loop_
_symmetry_equiv_pos_as_xyz
'x, y, z'
_cell_length_a     44.726299
_cell_length_b     44.863747
_cell_length_c     18.514099
_cell_angle_alpha  90.452013
_cell_angle_beta   90.09214
_cell_angle_gamma 119.61682
loop_
_atom_site_label
_atom_site_type_symbol
_atom_site_fract_x
_atom_site_fract_y
_atom_site_fract_z
_atom_type_partial_charge
Cu0 Cu 0.16546 0.57393 0.12148 0.0
N1 N 0.14215 0.54729 0.04065 0.0
N2 N 0.1016 0.52049 0.9559 0.0
C3 C 0.11059 0.53961 1.01722 0.0
C4 C 0.12864 0.51602 0.94047 0.0
C5 C 0.15355 0.53256 0.99275 0.0
O6 O 0.13141 0.57239 0.18858 0.0
C7 C 0.22048 0.62739 0.048 0.0
O8 O 0.22585 0.60237 0.02722 0.0
H9 H 0.09493 0.54859 0.0438 0.0
H10 H 0.17833 0.53388 0.99548 0.0
N11 N 0.19138 0.55651 0.16491 0.0
N12 N 0.23231 0.55293 0.22734 0.0
C13 C 0.21914 0.57318 0.20842 0.0
C14 C 0.18672 0.52466 0.15666 0.0
C15 C 0.21197 0.5224 0.1948 0.0
C16 C 0.11016 0.54404 0.21721 0.0
O17 O 0.1126 0.51663 0.2025 0.0
H18 H 0.22992 0.59981 0.22441 0.0
H19 H 0.16642 0.50449 0.12479 0.0
O20 O 0.19563 0.62072 0.09049 0.0
H21 H 0.1303 0.50169 0.89487 0.0
H22 H 0.21499 0.49997 0.19875 0.0
Cu23 Cu 0.60924 0.15722 0.27032 0.0
N24 N 0.61739 0.13558 0.19229 0.0
N25 N 0.61039 0.09643 0.1082 0.0
C26 C 0.59598 0.1043 0.16414 0.0
C27 C 0.64209 0.12403 0.10131 0.0
C28 C 0.64632 0.14797 0.15322 0.0
O29 O 0.57603 0.12254 0.33423 0.0
C30 C 0.60783 0.20959 0.18961 0.0
O31 O 0.63725 0.21389 0.16523 0.0
H32 H 0.57057 0.0876 0.18521 0.0
H33 H 0.66893 0.17276 0.1619 0.0
N34 N 0.65039 0.18442 0.32041 0.0
N35 N 0.69342 0.22906 0.37825 0.0
C36 C 0.66206 0.21637 0.34687 0.0
C37 C 0.67512 0.17659 0.33533 0.0
C38 C 0.70163 0.20399 0.37107 0.0
C39 C 0.58099 0.0988 0.35816 0.0
O40 O 0.60906 0.09828 0.33958 0.0
H41 H 0.64778 0.22997 0.34298 0.0
H42 H 0.67422 0.15285 0.32001 0.0
O43 O 0.59131 0.18617 0.23553 0.0
H44 H 0.66088 0.12712 0.06104 0.0
H45 H 0.72553 0.20564 0.38841 0.0
Cu46 Cu 0.47458 0.60273 0.4402 0.0
N47 N 0.50479 0.60759 0.36609 0.0
N48 N 0.53261 0.59477 0.28209 0.0
C49 C 0.51048 0.58304 0.33803 0.0
C50 C 0.54118 0.62798 0.27499 0.0
C51 C 0.52403 0.63581 0.32696 0.0
O52 O 0.47599 0.57157 0.51029 0.0
C53 C 0.40341 0.58492 0.42755 0.0
O54 O 0.40599 0.59561 0.49472 0.0
H55 H 0.49778 0.55685 0.35681 0.0
H56 H 0.52506 0.66021 0.33506 0.0
N57 N 0.48996 0.64525 0.48585 0.0
N58 N 0.49286 0.69298 0.53167 0.0
C59 C 0.47506 0.66502 0.48875 0.0
C60 C 0.51837 0.66144 0.5273 0.0
C61 C 0.52026 0.69081 0.5556 0.0
C62 C 0.4581 0.53909 0.50575 0.0
O63 O 0.43571 0.52503 0.45276 0.0
H64 H 0.45118 0.65853 0.46154 0.0
H65 H 0.53617 0.65214 0.53718 0.0
O66 O 0.42915 0.58538 0.39722 0.0
H67 H 0.55853 0.64537 0.235 0.0
H68 H 0.54025 0.70901 0.59127 0.0
Cu69 Cu 0.88567 0.45761 0.63982 0.0
N70 N 0.90961 0.47983 0.55666 0.0
N71 N 0.94937 0.49718 0.47012 0.0
C72 C 0.93718 0.47874 0.53098 0.0
C73 C 0.92859 0.5104 0.45693 0.0
C74 C 0.90393 0.49948 0.51024 0.0
O75 O 0.92021 0.46091 0.70829 0.0
C76 C 0.8293 0.40416 0.56951 0.0
O77 O 0.8266 0.43003 0.54428 0.0
H78 H 0.94823 0.46485 0.55695 0.0
H79 H 0.88317 0.50519 0.5144 0.0
N80 N 0.86153 0.47833 0.67763 0.0
N81 N 0.82186 0.48517 0.73703 0.0
C82 C 0.83318 0.46325 0.719 0.0
C83 C 0.86845 0.51092 0.66956 0.0
C84 C 0.84385 0.51515 0.70575 0.0
C85 C 0.91915 0.46412 0.77645 0.0
O86 O 0.89191 0.46301 0.80574 0.0
H87 H 0.82099 0.43667 0.73515 0.0
H88 H 0.89 0.53031 0.63985 0.0
O89 O 0.85346 0.41026 0.61401 0.0
H90 H 0.93059 0.52616 0.41121 0.0
H91 H 0.84259 0.53859 0.70994 0.0
Cu92 Cu 0.44246 0.87873 0.78498 0.0
N93 N 0.44348 0.90461 0.70546 0.0
N94 N 0.46492 0.94313 0.61697 0.0
C95 C 0.47206 0.92748 0.67094 0.0
C96 C 0.43041 0.92943 0.61752 0.0
C97 C 0.41725 0.9056 0.67205 0.0
O98 O 0.46667 0.9106 0.86353 0.0
C99 C 0.4514 0.83233 0.70093 0.0
O100 O 0.42688 0.83336 0.66375 0.0
H101 H 0.49766 0.93299 0.68614 0.0
H102 H 0.39046 0.89016 0.68631 0.0
N103 N 0.39748 0.84949 0.81508 0.0
N104 N 0.35183 0.80312 0.85957 0.0
C105 C 0.38422 0.81645 0.83413 0.0
C106 C 0.37277 0.85749 0.82907 0.0
C107 C 0.34454 0.82893 0.85627 0.0
C108 C 0.49923 0.92884 0.86781 0.0
O109 O 0.51834 0.92446 0.81975 0.0
H110 H 0.39862 0.80291 0.83184 0.0
H111 H 0.37541 0.88256 0.82153 0.0
O112 O 0.46297 0.85091 0.75763 0.0
H113 H 0.41569 0.93589 0.58075 0.0
H114 H 0.32063 0.82742 0.87264 0.0
Cu115 Cu 0.58065 0.43794 0.94085 0.0
N116 N 0.55101 0.43426 0.86617 0.0
N117 N 0.52509 0.44973 0.78285 0.0
C118 C 0.54686 0.4599 0.84014 0.0
C119 C 0.51513 0.41619 0.77305 0.0
C120 C 0.53118 0.40676 0.82445 0.0
O121 O 0.57953 0.46955 1.01198 0.0
C122 C 0.6526 0.45938 0.93188 0.0
O123 O 0.65069 0.45167 1.00063 0.0
H124 H 0.55989 0.48557 0.86281 0.0
H125 H 0.52918 0.38186 0.83004 0.0
N126 N 0.56553 0.39451 0.98047 0.0
N127 N 0.56452 0.34727 1.02226 0.0
C128 C 0.58329 0.37771 0.98895 0.0
C129 C 0.53429 0.37385 1.00837 0.0
C130 C 0.53358 0.34478 0.03427 0.0
C131 C 0.57897 0.46561 0.08007 0.0
O132 O 0.58144 0.43979 0.10629 0.0
H133 H 0.60963 0.38788 0.97211 0.0
H134 H 0.5136 0.37975 1.01034 0.0
O135 O 0.62608 0.45593 0.89889 0.0
H136 H 0.49836 0.39979 0.73044 0.0
H137 H 0.51184 0.32349 0.0597 0.0
H138 H 0.03918 0.50679 1.00476 0.0
H139 H 0.09354 0.50717 0.81211 0.0
H140 H 0.04135 0.48792 0.74039 0.0
H141 H 0.98088 0.47296 0.73122 0.0
H142 H 0.92644 0.47364 0.92304 0.0
H143 H 0.97805 0.49061 0.99595 0.0
C144 C 0.03968 0.50288 0.94705 0.0
C145 C 0.07039 0.50852 0.91406 0.0
C146 C 1.00953 0.49199 0.90584 0.0
C147 C 0.0703 0.50268 0.83927 0.0
C148 C 0.04046 0.49184 0.79802 0.0
C149 C 0.98016 0.47658 0.78906 0.0
C150 C 0.94975 0.47208 0.82144 0.0
C151 C 1.00999 0.4866 0.83063 0.0
C152 C 0.94943 0.47693 0.89653 0.0
C153 C 0.97899 0.48672 0.93833 0.0
H154 H 0.56751 0.97264 0.89237 0.0
H155 H 0.46647 0.94889 0.96488 0.0
H156 H 0.49198 0.99818 0.04689 0.0
H157 H 0.54263 0.0497 0.09337 0.0
H158 H 0.64381 0.07259 1.0234 0.0
H159 H 0.61845 0.02233 0.94467 0.0
C160 C 0.55105 0.97806 0.92647 0.0
C161 C 0.51509 0.95709 0.92199 0.0
C162 C 0.56587 1.00659 0.97355 0.0
C163 C 0.49423 0.96453 0.96694 0.0
C164 C 0.50879 0.99283 1.01383 0.0
C165 C 0.5593 0.04361 0.06184 0.0
C166 C 0.59522 0.06548 0.06428 0.0
C167 C 0.54456 1.01429 1.01696 0.0
C168 C 0.61611 0.05693 1.02197 0.0
C169 C 0.60162 0.02792 0.97706 0.0
H170 H 0.54066 0.54138 0.32159 0.0
H171 H 0.54863 0.60459 0.14027 0.0
H172 H 0.56514 0.57108 0.06225 0.0
H173 H 0.57538 0.5226 0.04437 0.0
H174 H 0.56774 0.45936 0.22575 0.0
H175 H 0.55306 0.49404 0.30466 0.0
C176 C 0.54589 0.54771 0.26496 0.0
C177 C 0.54328 0.57541 0.23684 0.0
C178 C 0.55544 0.52832 0.22033 0.0
C179 C 0.55074 0.58364 0.16353 0.0
C180 C 0.56002 0.56436 0.11874 0.0
C181 C 0.57071 0.51647 0.10124 0.0
C182 C 0.57254 0.48826 0.12886 0.0
C183 C 0.56225 0.53651 0.14643 0.0
C184 C 0.56653 0.48088 0.20286 0.0
C185 C 0.55802 0.50066 0.24809 0.0
H186 H 0.99299 0.55229 0.39247 0.0
H187 H 0.97013 0.45045 0.45174 0.0
H188 H 1.01835 0.45627 0.3797 0.0
H189 H 0.06648 0.48986 0.29859 0.0
H190 H 0.09036 0.59219 0.24009 0.0
H191 H 0.04231 0.58662 0.31287 0.0
C192 C 0.99849 0.53135 0.38918 0.0
C193 C 0.97796 0.50097 0.42739 0.0
C194 C 1.02646 0.53497 0.34787 0.0
C195 C 0.98572 0.47422 0.42353 0.0
C196 C 1.0132 0.47747 0.38205 0.0
C197 C 0.06125 0.511 0.30178 0.0
C198 C 0.08197 0.54135 0.26371 0.0
C199 C 0.03371 0.50769 0.34394 0.0
C200 C 0.0749 0.56855 0.26892 0.0
C201 C 0.04735 0.56535 0.3104 0.0
H202 H 0.58588 0.04707 0.42227 0.0
H203 H 0.51836 0.08964 0.40065 0.0
H204 H 0.4761 0.04476 0.47808 0.0
H205 H 0.45854 0.99364 0.553 0.0
H206 H 0.52637 0.9515 0.57419 0.0
H207 H 0.56833 0.99613 0.49634 0.0
C208 C 0.56193 0.04659 0.43438 0.0
C209 C 0.55536 0.07175 0.40556 0.0
C210 C 0.53779 0.02079 0.47909 0.0
C211 C 0.52416 0.07066 0.4221 0.0
C212 C 0.49993 0.04497 0.46636 0.0
C213 C 0.48235 0.99404 0.54002 0.0
C214 C 0.48926 0.96922 0.5696 0.0
C215 C 0.50647 0.01988 0.49516 0.0
C216 C 0.52053 0.97048 0.55304 0.0
C217 C 0.5445 0.99592 0.50818 0.0
H218 H 0.47025 0.42816 0.69252 0.0
H219 H 0.55979 0.51928 0.77291 0.0
H220 H 0.54564 0.5547 0.69767 0.0
H221 H 0.50938 0.56013 0.60558 0.0
H222 H 0.42136 0.4693 0.5201 0.0
H223 H 0.4337 0.43359 0.60018 0.0
C224 C 0.48687 0.4557 0.69341 0.0
C225 C 0.51611 0.47074 0.73891 0.0
C226 C 0.47894 0.47612 0.64876 0.0
C227 C 0.53687 0.5067 0.73968 0.0
C228 C 0.52894 0.52713 0.69609 0.0
C229 C 0.49271 0.53253 0.60467 0.0
C230 C 0.46446 0.51747 0.55679 0.0
C231 C 0.50019 0.51212 0.65012 0.0
C232 C 0.44331 0.48162 0.55627 0.0
C233 C 0.45036 0.46116 0.60205 0.0
H234 H 0.2777 0.53061 0.21086 0.0
H235 H 0.2542 0.59567 0.34325 0.0
H236 H 0.30445 0.61026 0.41971 0.0
H237 H 0.35544 0.60472 0.44817 0.0
H238 H 0.38027 0.54188 0.3111 0.0
H239 H 0.32896 0.52584 0.23777 0.0
C240 C 0.28347 0.54777 0.25678 0.0
C241 C 0.26219 0.56192 0.27164 0.0
C242 C 0.31258 0.55632 0.29976 0.0
C243 C 0.27034 0.58467 0.33047 0.0
C244 C 0.29895 0.59285 0.37436 0.0
C245 C 0.34941 0.58729 0.4026 0.0
C246 C 0.37149 0.57431 0.38539 0.0
C247 C 0.32028 0.57883 0.35951 0.0
C248 C 0.36369 0.55221 0.32546 0.0
C249 C 0.33436 0.54304 0.28349 0.0
H250 H 0.74309 0.24752 0.48002 0.0
H251 H 0.69156 0.28709 0.3469 0.0
H252 H 0.7282 0.34441 0.39663 0.0
H253 H 0.77612 0.38377 0.47465 0.0
H254 H 0.82869 0.34478 0.60621 0.0
H255 H 0.7906 0.28688 0.55978 0.0
C256 C 0.73998 0.26868 0.46149 0.0
C257 C 0.71452 0.26281 0.40951 0.0
C258 C 0.76142 0.30177 0.48988 0.0
C259 C 0.71055 0.29058 0.38731 0.0
C260 C 0.7317 0.3235 0.41542 0.0
C261 C 0.77924 0.36264 0.49346 0.0
C262 C 0.80537 0.36873 0.54375 0.0
C263 C 0.75736 0.32944 0.46635 0.0
C264 C 0.80888 0.34092 0.5675 0.0
C265 C 0.78711 0.30776 0.5409 0.0
H266 H 0.43457 0.79353 0.57848 0.0
H267 H 0.49665 0.81806 0.77193 0.0
H268 H 0.51549 0.77743 0.73576 0.0
H269 H 0.51277 0.73366 0.65124 0.0
H270 H 0.45149 0.7102 0.45672 0.0
H271 H 0.43359 0.75144 0.49198 0.0
C272 C 0.4523 0.79011 0.61279 0.0
C273 C 0.46407 0.80878 0.67802 0.0
C274 C 0.46301 0.76672 0.5917 0.0
C275 C 0.48717 0.80406 0.72147 0.0
C276 C 0.49791 0.78077 0.70086 0.0
C277 C 0.49589 0.7378 0.61588 0.0
C278 C 0.48346 0.71853 0.55134 0.0
C279 C 0.48584 0.76182 0.63627 0.0
C280 C 0.46111 0.72411 0.50713 0.0
C281 C 0.45098 0.7479 0.52708 0.0
H282 H 0.70071 0.44048 0.95734 0.0
H283 H 0.67538 0.49996 0.8134 0.0
H284 H 0.72654 0.5144 0.74156 0.0
H285 H 0.77763 0.50865 0.71748 0.0
H286 H 0.80067 0.44586 0.856 0.0
H287 H 0.75125 0.43391 0.93191 0.0
C288 C 0.70664 0.45689 0.91067 0.0
C289 C 0.68452 0.4694 0.89101 0.0
C290 C 0.73553 0.46421 0.86834 0.0
C291 C 0.69209 0.49008 0.82961 0.0
C292 C 0.7213 0.49831 0.78851 0.0
C293 C 0.77187 0.49256 0.7646 0.0
C294 C 0.79272 0.47821 0.78137 0.0
C295 C 0.74306 0.48531 0.80702 0.0
C296 C 0.78477 0.45693 0.84184 0.0
C297 C 0.75664 0.45025 0.88535 0.0
H298 H 0.30073 0.78331 0.95744 0.0
H299 H 0.35429 0.74565 0.82425 0.0
H300 H 0.31889 0.6882 0.87214 0.0
H301 H 0.27248 0.64844 0.95097 0.0
H302 H 0.21802 0.68561 0.08274 0.0
H303 H 0.25381 0.74334 0.03567 0.0
C304 C 0.30447 0.76252 0.93825 0.0
C305 C 0.33029 0.769 0.88722 0.0
C306 C 0.28385 0.72939 0.96581 0.0
C307 C 0.33502 0.74167 0.86408 0.0
C308 C 0.31463 0.70869 0.89119 0.0
C309 C 0.26842 0.66914 0.9696 0.0
C310 C 0.24255 0.66261 1.02044 0.0
C311 C 0.289 0.70226 0.94212 0.0
C312 C 0.2377 0.68983 0.0437 0.0
C313 C 0.25817 0.72289 1.01675 0.0
H314 H 0.53733 0.29895 0.12623 0.0
H315 H 0.61726 0.34113 0.96551 0.0
H316 H 0.6377 0.30248 1.00354 0.0
H317 H 0.63337 0.25696 0.08284 0.0
H318 H 0.55248 0.21346 0.24114 0.0
H319 H 0.53167 0.25199 0.20265 0.0
C320 C 0.55893 0.2995 0.09871 0.0
C321 C 0.57572 0.32329 0.04312 0.0
C322 C 0.57044 0.27687 0.1204 0.0
C323 C 0.60406 0.32369 1.00916 0.0
C324 C 0.61571 0.30137 0.03062 0.0
C325 C 0.61115 0.25583 0.10895 0.0
C326 C 0.59461 0.23236 0.16501 0.0
C327 C 0.59922 0.27798 0.0864 0.0
C328 C 0.56574 0.23121 0.19785 0.0
C329 C 0.55383 0.25329 0.17592 0.0
loop_
_geom_bond_atom_site_label_1
_geom_bond_atom_site_label_2
_geom_bond_distance
_geom_bond_site_symmetry_2
_ccdc_geom_bond_type
Cu0 N1 1.999 1_554 S
Cu0 O6 1.974 . S
Cu0 N11 1.985 . S
Cu0 O20 1.959 . S
N1 Cu0 1.999 1_556 S
N1 C3 1.263 1_556 S
N1 C5 1.389 . S
N2 C3 1.358 1_556 S
N2 C4 1.400 . S
C3 N1 1.263 1_554 S
C3 N2 1.358 1_554 S
C3 H9 0.930 . S
C4 N2 1.400 . S
C4 C5 1.351 . S
C4 H21 0.930 . S
C5 N1 1.389 . S
C5 C4 1.351 . S
C5 H10 0.930 . S
O6 Cu0 1.974 . S
O6 C16 1.282 . S
C7 O8 1.261 . S
C7 O20 1.251 . S
O8 C7 1.261 . S
H9 C3 0.930 . S
H10 C5 0.930 . S
N11 Cu0 1.985 . S
N11 C13 1.335 . S
N11 C14 1.390 . S
N12 C13 1.345 . S
N12 C15 1.336 . S
C13 N11 1.335 . S
C13 N12 1.345 . S
C13 H18 0.930 . S
C14 N11 1.390 . S
C14 C15 1.346 . S
C14 H19 0.930 . S
C15 N12 1.336 . S
C15 C14 1.346 . S
C15 H22 0.929 . S
C16 O6 1.282 . S
C16 O17 1.216 . S
O17 C16 1.216 . S
H18 C13 0.930 . S
H19 C14 0.930 . S
O20 Cu0 1.959 . S
O20 C7 1.251 . S
H21 C4 0.930 . S
H22 C15 0.929 . S
Cu23 N24 1.999 . S
Cu23 O29 1.974 . S
Cu23 N34 1.985 . S
Cu23 O43 1.959 . S
N24 Cu23 1.999 . S
N24 C26 1.263 . S
N24 C28 1.389 . S
N25 C26 1.358 . S
N25 C27 1.400 . S
C26 N24 1.263 . S
C26 N25 1.358 . S
C26 H32 0.930 . S
C27 N25 1.400 . S
C27 C28 1.351 . S
C27 H44 0.930 . S
C28 N24 1.389 . S
C28 C27 1.351 . S
C28 H33 0.930 . S
O29 Cu23 1.974 . S
O29 C39 1.282 . S
C30 O31 1.261 . S
C30 O43 1.251 . S
O31 C30 1.261 . S
H32 C26 0.930 . S
H33 C28 0.930 . S
N34 Cu23 1.985 . S
N34 C36 1.335 . S
N34 C37 1.390 . S
N35 C36 1.345 . S
N35 C38 1.336 . S
C36 N34 1.335 . S
C36 N35 1.345 . S
C36 H41 0.930 . S
C37 N34 1.390 . S
C37 C38 1.346 . S
C37 H42 0.930 . S
C38 N35 1.336 . S
C38 C37 1.346 . S
C38 H45 0.929 . S
C39 O29 1.282 . S
C39 O40 1.216 . S
O40 C39 1.216 . S
H41 C36 0.930 . S
H42 C37 0.930 . S
O43 Cu23 1.959 . S
O43 C30 1.251 . S
H44 C27 0.930 . S
H45 C38 0.929 . S
Cu46 N47 1.999 . S
Cu46 O52 1.974 . S
Cu46 N57 1.985 . S
Cu46 O66 1.959 . S
N47 Cu46 1.999 . S
N47 C49 1.263 . S
N47 C51 1.389 . S
N48 C49 1.358 . S
N48 C50 1.400 . S
C49 N47 1.263 . S
C49 N48 1.358 . S
C49 H55 0.930 . S
C50 N48 1.400 . S
C50 C51 1.351 . S
C50 H67 0.930 . S
C51 N47 1.389 . S
C51 C50 1.351 . S
C51 H56 0.930 . S
O52 Cu46 1.974 . S
O52 C62 1.282 . S
C53 O54 1.261 . S
C53 O66 1.251 . S
O54 C53 1.261 . S
H55 C49 0.930 . S
H56 C51 0.930 . S
N57 Cu46 1.985 . S
N57 C59 1.335 . S
N57 C60 1.390 . S
N58 C59 1.345 . S
N58 C61 1.336 . S
C59 N57 1.335 . S
C59 N58 1.345 . S
C59 H64 0.930 . S
C60 N57 1.390 . S
C60 C61 1.346 . S
C60 H65 0.930 . S
C61 N58 1.336 . S
C61 C60 1.346 . S
C61 H68 0.929 . S
C62 O52 1.282 . S
C62 O63 1.216 . S
O63 C62 1.216 . S
H64 C59 0.930 . S
H65 C60 0.930 . S
O66 Cu46 1.959 . S
O66 C53 1.251 . S
H67 C50 0.930 . S
H68 C61 0.929 . S
Cu69 N70 1.999 . S
Cu69 O75 1.974 . S
Cu69 N80 1.985 . S
Cu69 O89 1.959 . S
N70 Cu69 1.999 . S
N70 C72 1.263 . S
N70 C74 1.389 . S
N71 C72 1.358 . S
N71 C73 1.400 . S
C72 N70 1.263 . S
C72 N71 1.358 . S
C72 H78 0.930 . S
C73 N71 1.400 . S
C73 C74 1.351 . S
C73 H90 0.930 . S
C74 N70 1.389 . S
C74 C73 1.351 . S
C74 H79 0.930 . S
O75 Cu69 1.974 . S
O75 C85 1.282 . S
C76 O77 1.261 . S
C76 O89 1.251 . S
O77 C76 1.261 . S
H78 C72 0.930 . S
H79 C74 0.930 . S
N80 Cu69 1.985 . S
N80 C82 1.335 . S
N80 C83 1.390 . S
N81 C82 1.345 . S
N81 C84 1.336 . S
C82 N80 1.335 . S
C82 N81 1.345 . S
C82 H87 0.930 . S
C83 N80 1.390 . S
C83 C84 1.346 . S
C83 H88 0.930 . S
C84 N81 1.336 . S
C84 C83 1.346 . S
C84 H91 0.929 . S
C85 O75 1.282 . S
C85 O86 1.216 . S
O86 C85 1.216 . S
H87 C82 0.930 . S
H88 C83 0.930 . S
O89 Cu69 1.959 . S
O89 C76 1.251 . S
H90 C73 0.930 . S
H91 C84 0.929 . S
Cu92 N93 1.999 . S
Cu92 O98 1.974 . S
Cu92 N103 1.985 . S
Cu92 O112 1.959 . S
N93 Cu92 1.999 . S
N93 C95 1.263 . S
N93 C97 1.389 . S
N94 C95 1.358 . S
N94 C96 1.400 . S
C95 N93 1.263 . S
C95 N94 1.358 . S
C95 H101 0.930 . S
C96 N94 1.400 . S
C96 C97 1.351 . S
C96 H113 0.930 . S
C97 N93 1.389 . S
C97 C96 1.351 . S
C97 H102 0.930 . S
O98 Cu92 1.974 . S
O98 C108 1.282 . S
C99 O100 1.261 . S
C99 O112 1.251 . S
O100 C99 1.261 . S
H101 C95 0.930 . S
H102 C97 0.930 . S
N103 Cu92 1.985 . S
N103 C105 1.335 . S
N103 C106 1.390 . S
N104 C105 1.345 . S
N104 C107 1.336 . S
C105 N103 1.335 . S
C105 N104 1.345 . S
C105 H110 0.930 . S
C106 N103 1.390 . S
C106 C107 1.346 . S
C106 H111 0.930 . S
C107 N104 1.336 . S
C107 C106 1.346 . S
C107 H114 0.929 . S
C108 O98 1.282 . S
C108 O109 1.216 . S
O109 C108 1.216 . S
H110 C105 0.930 . S
H111 C106 0.930 . S
O112 Cu92 1.959 . S
O112 C99 1.251 . S
H113 C96 0.930 . S
H114 C107 0.929 . S
Cu115 N116 1.999 . S
Cu115 O121 1.974 . S
Cu115 N126 1.985 . S
Cu115 O135 1.959 . S
N116 Cu115 1.999 . S
N116 C118 1.263 . S
N116 C120 1.389 . S
N117 C118 1.358 . S
N117 C119 1.400 . S
C118 N116 1.263 . S
C118 N117 1.358 . S
C118 H124 0.930 . S
C119 N117 1.400 . S
C119 C120 1.351 . S
C119 H136 0.930 . S
C120 N116 1.389 . S
C120 C119 1.351 . S
C120 H125 0.930 . S
O121 Cu115 1.974 . S
O121 C131 1.282 1_556 S
C122 O123 1.261 . S
C122 O135 1.251 . S
O123 C122 1.261 . S
H124 C118 0.930 . S
H125 C120 0.930 . S
N126 Cu115 1.985 . S
N126 C128 1.335 . S
N126 C129 1.390 1_556 S
N127 C128 1.345 1_554 S
N127 C130 1.336 . S
C128 N126 1.335 . S
C128 N127 1.345 1_556 S
C128 H133 0.930 . S
C129 N126 1.390 1_554 S
C129 C130 1.346 . S
C129 H134 0.930 . S
C130 N127 1.336 . S
C130 C129 1.346 . S
C130 H137 0.929 . S
C131 O121 1.282 1_554 S
C131 O132 1.216 . S
O132 C131 1.216 . S
H133 C128 0.930 . S
H134 C129 0.930 . S
O135 Cu115 1.959 . S
O135 C122 1.251 . S
H136 C119 0.930 . S
H137 C130 0.929 . S
H138 C144 0.930 . S
H139 C147 0.930 . S
H140 C148 0.930 . S
H141 C149 0.930 . S
H142 C152 0.930 . S
H143 C153 0.930 . S
C144 H138 0.930 . S
C144 C145 1.355 . S
C144 C146 1.415 1_455 S
C145 C144 1.355 . S
C145 C147 1.419 . S
C146 C144 1.415 1_655 S
C146 C151 1.425 . S
C146 C153 1.409 . S
C147 H139 0.930 . S
C147 C145 1.419 . S
C147 C148 1.362 . S
C148 H140 0.930 . S
C148 C147 1.362 . S
C148 C151 1.409 1_455 S
C149 H141 0.930 . S
C149 C150 1.355 . S
C149 C151 1.415 . S
C150 C149 1.355 . S
C150 C152 1.419 . S
C151 C146 1.425 . S
C151 C148 1.409 1_655 S
C151 C149 1.415 . S
C152 H142 0.930 . S
C152 C150 1.419 . S
C152 C153 1.362 . S
C153 H143 0.930 . S
C153 C146 1.409 . S
C153 C152 1.362 . S
H154 C160 0.930 . S
H155 C163 0.930 . S
H156 C164 0.930 . S
H157 C165 0.930 . S
H158 C168 0.930 . S
H159 C169 0.930 . S
C160 H154 0.930 . S
C160 C161 1.355 . S
C160 C162 1.415 . S
C161 C160 1.355 . S
C161 C163 1.419 . S
C162 C160 1.415 . S
C162 C167 1.425 . S
C162 C169 1.409 1_565 S
C163 H155 0.930 . S
C163 C161 1.419 . S
C163 C164 1.362 . S
C164 H156 0.930 . S
C164 C163 1.362 . S
C164 C167 1.409 . S
C165 H157 0.930 . S
C165 C166 1.355 . S
C165 C167 1.415 1_544 S
C166 C165 1.355 . S
C166 C168 1.419 . S
C167 C162 1.425 . S
C167 C164 1.409 . S
C167 C165 1.415 1_566 S
C168 H158 0.930 . S
C168 C166 1.419 . S
C168 C169 1.362 1_554 S
C169 H159 0.930 . S
C169 C162 1.409 1_545 S
C169 C168 1.362 1_556 S
H170 C176 0.930 . S
H171 C179 0.930 . S
H172 C180 0.930 . S
H173 C181 0.930 . S
H174 C184 0.930 . S
H175 C185 0.930 . S
C176 H170 0.930 . S
C176 C177 1.355 . S
C176 C178 1.415 . S
C177 C176 1.355 . S
C177 C179 1.419 . S
C178 C176 1.415 . S
C178 C183 1.425 . S
C178 C185 1.409 . S
C179 H171 0.930 . S
C179 C177 1.419 . S
C179 C180 1.362 . S
C180 H172 0.930 . S
C180 C179 1.362 . S
C180 C183 1.409 . S
C181 H173 0.930 . S
C181 C182 1.355 . S
C181 C183 1.415 . S
C182 C181 1.355 . S
C182 C184 1.419 . S
C183 C178 1.425 . S
C183 C180 1.409 . S
C183 C181 1.415 . S
C184 H174 0.930 . S
C184 C182 1.419 . S
C184 C185 1.362 . S
C185 H175 0.930 . S
C185 C178 1.409 . S
C185 C184 1.362 . S
H186 C192 0.930 . S
H187 C195 0.931 . S
H188 C196 0.930 . S
H189 C197 0.930 . S
H190 C200 0.930 . S
H191 C201 0.930 . S
C192 H186 0.930 . S
C192 C193 1.355 . S
C192 C194 1.415 . S
C193 C192 1.355 . S
C193 C195 1.439 . S
C194 C192 1.415 . S
C194 C199 1.425 1_655 S
C194 C201 1.409 . S
C195 H187 0.931 . S
C195 C193 1.439 . S
C195 C196 1.338 1_655 S
C196 H188 0.930 . S
C196 C195 1.338 1_455 S
C196 C199 1.409 . S
C197 H189 0.930 . S
C197 C198 1.355 . S
C197 C199 1.415 . S
C198 C197 1.355 . S
C198 C200 1.419 . S
C199 C194 1.425 1_455 S
C199 C196 1.409 . S
C199 C197 1.415 . S
C200 H190 0.930 . S
C200 C198 1.419 . S
C200 C201 1.362 1_455 S
C201 H191 0.930 . S
C201 C194 1.409 . S
C201 C200 1.362 1_655 S
H202 C208 0.930 . S
H203 C211 0.930 . S
H204 C212 0.930 . S
H205 C213 0.930 . S
H206 C216 0.930 . S
H207 C217 0.930 . S
C208 H202 0.930 . S
C208 C209 1.355 . S
C208 C210 1.415 . S
C209 C208 1.355 . S
C209 C211 1.419 . S
C210 C208 1.415 . S
C210 C215 1.425 1_545 S
C210 C217 1.409 . S
C211 H203 0.930 . S
C211 C209 1.419 . S
C211 C212 1.362 1_545 S
C212 H204 0.930 . S
C212 C211 1.362 1_565 S
C212 C215 1.409 . S
C213 H205 0.930 . S
C213 C214 1.355 . S
C213 C215 1.415 . S
C214 C213 1.355 . S
C214 C216 1.419 1_565 S
C215 C210 1.425 1_565 S
C215 C212 1.409 . S
C215 C213 1.415 . S
C216 H206 0.930 . S
C216 C214 1.419 1_545 S
C216 C217 1.362 . S
C217 H207 0.930 . S
C217 C210 1.409 . S
C217 C216 1.362 . S
H218 C224 0.930 . S
H219 C227 0.930 . S
H220 C228 0.930 . S
H221 C229 0.930 . S
H222 C232 0.930 . S
H223 C233 0.930 . S
C224 H218 0.930 . S
C224 C225 1.355 . S
C224 C226 1.415 . S
C225 C224 1.355 . S
C225 C227 1.419 . S
C226 C224 1.415 . S
C226 C231 1.425 . S
C226 C233 1.409 . S
C227 H219 0.930 . S
C227 C225 1.419 . S
C227 C228 1.362 . S
C228 H220 0.930 . S
C228 C227 1.362 . S
C228 C231 1.409 . S
C229 H221 0.930 . S
C229 C230 1.355 . S
C229 C231 1.415 . S
C230 C229 1.355 . S
C230 C232 1.419 . S
C231 C226 1.425 . S
C231 C228 1.409 . S
C231 C229 1.415 . S
C232 H222 0.930 . S
C232 C230 1.419 . S
C232 C233 1.362 . S
C233 H223 0.930 . S
C233 C226 1.409 . S
C233 C232 1.362 . S
H234 C240 0.930 . S
H235 C243 0.930 . S
H236 C244 0.930 . S
H237 C245 0.930 . S
H238 C248 0.930 . S
H239 C249 0.930 . S
C240 H234 0.930 . S
C240 C241 1.355 . S
C240 C242 1.415 . S
C241 C240 1.355 . S
C241 C243 1.419 . S
C242 C240 1.415 . S
C242 C247 1.425 . S
C242 C249 1.409 . S
C243 H235 0.930 . S
C243 C241 1.419 . S
C243 C244 1.362 . S
C244 H236 0.930 . S
C244 C243 1.362 . S
C244 C247 1.409 . S
C245 H237 0.930 . S
C245 C246 1.355 . S
C245 C247 1.415 . S
C246 C245 1.355 . S
C246 C248 1.419 . S
C247 C242 1.425 . S
C247 C244 1.409 . S
C247 C245 1.415 . S
C248 H238 0.930 . S
C248 C246 1.419 . S
C248 C249 1.362 . S
C249 H239 0.930 . S
C249 C242 1.409 . S
C249 C248 1.362 . S
H250 C256 0.930 . S
H251 C259 0.930 . S
H252 C260 0.930 . S
H253 C261 0.930 . S
H254 C264 0.930 . S
H255 C265 0.930 . S
C256 H250 0.930 . S
C256 C257 1.355 . S
C256 C258 1.415 . S
C257 C256 1.355 . S
C257 C259 1.419 . S
C258 C256 1.415 . S
C258 C263 1.425 . S
C258 C265 1.409 . S
C259 H251 0.930 . S
C259 C257 1.419 . S
C259 C260 1.362 . S
C260 H252 0.930 . S
C260 C259 1.362 . S
C260 C263 1.409 . S
C261 H253 0.930 . S
C261 C262 1.355 . S
C261 C263 1.415 . S
C262 C261 1.355 . S
C262 C264 1.419 . S
C263 C258 1.425 . S
C263 C260 1.409 . S
C263 C261 1.415 . S
C264 H254 0.930 . S
C264 C262 1.419 . S
C264 C265 1.362 . S
C265 H255 0.930 . S
C265 C258 1.409 . S
C265 C264 1.362 . S
H266 C272 0.930 . S
H267 C275 0.930 . S
H268 C276 0.930 . S
H269 C277 0.930 . S
H270 C280 0.930 . S
H271 C281 0.930 . S
C272 H266 0.930 . S
C272 C273 1.355 . S
C272 C274 1.415 . S
C273 C272 1.355 . S
C273 C275 1.419 . S
C274 C272 1.415 . S
C274 C279 1.425 . S
C274 C281 1.409 . S
C275 H267 0.930 . S
C275 C273 1.419 . S
C275 C276 1.362 . S
C276 H268 0.930 . S
C276 C275 1.362 . S
C276 C279 1.409 . S
C277 H269 0.930 . S
C277 C278 1.355 . S
C277 C279 1.415 . S
C278 C277 1.355 . S
C278 C280 1.419 . S
C279 C274 1.425 . S
C279 C276 1.409 . S
C279 C277 1.415 . S
C280 H270 0.930 . S
C280 C278 1.419 . S
C280 C281 1.362 . S
C281 H271 0.930 . S
C281 C274 1.409 . S
C281 C280 1.362 . S
H282 C288 0.930 . S
H283 C291 0.930 . S
H284 C292 0.930 . S
H285 C293 0.930 . S
H286 C296 0.930 . S
H287 C297 0.930 . S
C288 H282 0.930 . S
C288 C289 1.355 . S
C288 C290 1.415 . S
C289 C288 1.355 . S
C289 C291 1.419 . S
C290 C288 1.415 . S
C290 C295 1.425 . S
C290 C297 1.409 . S
C291 H283 0.930 . S
C291 C289 1.419 . S
C291 C292 1.362 . S
C292 H284 0.930 . S
C292 C291 1.362 . S
C292 C295 1.409 . S
C293 H285 0.930 . S
C293 C294 1.355 . S
C293 C295 1.415 . S
C294 C293 1.355 . S
C294 C296 1.419 . S
C295 C290 1.425 . S
C295 C292 1.409 . S
C295 C293 1.415 . S
C296 H286 0.930 . S
C296 C294 1.419 . S
C296 C297 1.362 . S
C297 H287 0.930 . S
C297 C290 1.409 . S
C297 C296 1.362 . S
H298 C304 0.930 . S
H299 C307 0.930 . S
H300 C308 0.930 . S
H301 C309 0.930 . S
H302 C312 0.930 . S
H303 C313 0.930 . S
C304 H298 0.930 . S
C304 C305 1.355 . S
C304 C306 1.415 . S
C305 C304 1.355 . S
C305 C307 1.419 . S
C306 C304 1.415 . S
C306 C311 1.425 . S
C306 C313 1.409 . S
C307 H299 0.930 . S
C307 C305 1.419 . S
C307 C308 1.362 . S
C308 H300 0.930 . S
C308 C307 1.362 . S
C308 C311 1.409 . S
C309 H301 0.930 . S
C309 C310 1.355 . S
C309 C311 1.415 . S
C310 C309 1.355 . S
C310 C312 1.419 . S
C311 C306 1.425 . S
C311 C308 1.409 . S
C311 C309 1.415 . S
C312 H302 0.930 . S
C312 C310 1.419 . S
C312 C313 1.362 . S
C313 H303 0.930 . S
C313 C306 1.409 . S
C313 C312 1.362 . S
H314 C320 0.930 . S
H315 C323 0.930 1_556 S
H316 C324 0.930 1_556 S
H317 C325 0.930 . S
H318 C328 0.930 . S
H319 C329 0.930 . S
C320 H314 0.930 . S
C320 C321 1.355 . S
C320 C322 1.415 . S
C321 C320 1.355 . S
C321 C323 1.419 . S
C322 C320 1.415 . S
C322 C327 1.425 . S
C322 C329 1.409 . S
C323 H315 0.930 1_554 S
C323 C321 1.419 . S
C323 C324 1.362 . S
C324 H316 0.930 1_554 S
C324 C323 1.362 . S
C324 C327 1.409 . S
C325 H317 0.930 . S
C325 C326 1.355 . S
C325 C327 1.415 . S
C326 C325 1.355 . S
C326 C328 1.419 . S
C327 C322 1.425 . S
C327 C324 1.409 . S
C327 C325 1.415 . S
C328 H318 0.930 . S
C328 C326 1.419 . S
C328 C329 1.362 . S
C329 H319 0.930 . S
C329 C322 1.409 . S
C329 C328 1.362 . S
C145 N2 1.599 . S
C150 C85 1.646 . S
C161 C108 1.679 . S
C166 N25 1.569 . S
C177 N48 1.581 . S
C182 C131 1.653 . S
C193 N71 1.639 . S
C198 C16 1.692 . S
C209 C39 1.694 . S
C214 N94 1.637 . S
C225 N117 1.619 . S
C230 C62 1.646 . S
C241 N12 1.582 . S
C246 C53 1.625 . S
C257 N35 1.588 . S
C262 C76 1.611 . S
C273 C99 1.626 . S
C278 N58 1.580 . S
C289 C122 1.611 . S
C294 N81 1.603 . S
C305 N104 1.610 . S
C310 C7 1.605 1_556 S
C321 N127 1.622 . S
C326 C30 1.588 . S
