# Generated by pormake.
# Topology rob, (6)-cn, num edge types: 1
# Building blocks:
#     Node 0, Type 0, BuildingBlock: BETGAK_clean_sbu_0, # of connection points: 6
#     Node 1, Type 0, BuildingBlock: BETGAK_clean_sbu_0, # of connection points: 6
#     Node 2, Type 0, BuildingBlock: BETGAK_clean_sbu_0, # of connection points: 6
#     Node 3, Type 0, BuildingBlock: BETGAK_clean_sbu_0, # of connection points: 6
#     Edge 4, Type (0, 0), BuildingBlock: CIFDUS_clean_linker_0, # of connection points: 2
#     Edge 5, Type (0, 0), BuildingBlock: CIFDUS_clean_linker_0, # of connection points: 2
#     Edge 6, Type (0, 0), BuildingBlock: CIFDUS_clean_linker_0, # of connection points: 2
#     Edge 7, Type (0, 0), BuildingBlock: CIFDUS_clean_linker_0, # of connection points: 2
#     Edge 8, Type (0, 0), BuildingBlock: CIFDUS_clean_linker_0, # of connection points: 2
#     Edge 9, Type (0, 0), BuildingBlock: CIFDUS_clean_linker_0, # of connection points: 2
#     Edge 10, Type (0, 0), BuildingBlock: CIFDUS_clean_linker_0, # of connection points: 2
#     Edge 11, Type (0, 0), BuildingBlock: CIFDUS_clean_linker_0, # of connection points: 2
#     Edge 12, Type (0, 0), BuildingBlock: CIFDUS_clean_linker_0, # of connection points: 2
#     Edge 13, Type (0, 0), BuildingBlock: CIFDUS_clean_linker_0, # of connection points: 2
#     Edge 14, Type (0, 0), BuildingBlock: CIFDUS_clean_linker_0, # of connection points: 2
#     Edge 15, Type (0, 0), BuildingBlock: CIFDUS_clean_linker_0, # of connection points: 2
# Relax obj value: 0.198
# Max RMSD: 0.218
# Mean RMSD: 0.218
data_MOF--net-rob--node1-BETGAK_clean_sbu_0--edge1-CIFDUS_clean_linker_0
_symmetry_space_group_name_H-M    P1
_symmetry_Int_Tables_number       1
_symmetry_cell_setting            triclinic
loop_
_symmetry_equiv_pos_as_xyz
'x, y, z'
_cell_length_a     15.42094
_cell_length_b     19.646526
_cell_length_c     33.47677
_cell_angle_alpha  90.549509
_cell_angle_beta   128.83363
_cell_angle_gamma 90.088762
loop_
_atom_site_label
_atom_site_type_symbol
_atom_site_fract_x
_atom_site_fract_y
_atom_site_fract_z
_atom_type_partial_charge
La0 La 0.2201 0.31817 0.0217 0.0
La1 La 0.39721 0.24044 0.02784 0.0
C2 C 0.07912 0.35439 0.03255 0.0
C3 C 0.0685 0.34655 0.07318 0.0
C4 C 0.04835 0.404 0.09136 0.0
C5 C 1.04398 0.39858 0.1317 0.0
C6 C 0.05873 0.33527 0.15457 0.0
C7 C 0.07655 0.27746 0.13538 0.0
C8 C 0.08212 0.28308 0.09541 0.0
C9 C 0.36493 0.39442 0.02516 0.0
C10 C 0.43767 0.26346 0.1292 0.0
C11 C 0.53416 0.20075 1.01511 0.0
C12 C 0.53946 0.20024 0.97232 0.0
C13 C 0.543 0.13779 0.9527 0.0
C14 C 0.54937 0.13568 0.91281 0.0
C15 C 0.55375 0.19611 0.89176 0.0
C16 C 0.54939 0.25875 0.91129 0.0
C17 C 0.54207 0.26082 0.95098 0.0
C18 C 0.24802 0.16547 0.02269 0.0
C19 C 0.18451 0.29966 0.92101 0.0
O20 O 0.1612 0.39338 0.04425 0.0
O21 O 0.06929 0.29906 1.0078 0.0
O22 O 0.26127 0.41024 1.00032 0.0
O23 O 0.3856 0.34024 0.04953 0.0
O24 O 0.3307 0.27919 0.1003 0.0
O25 O 0.48871 0.25355 0.10943 0.0
O26 O 0.45868 0.16117 1.0094 0.0
O27 O 0.54099 0.25984 0.0354 0.0
O28 O 0.35199 0.14924 0.04902 0.0
O29 O 0.23082 0.21944 0.99888 0.0
O30 O 0.28946 0.27993 0.94981 0.0
O31 O 0.13223 0.31024 0.9401 0.0
H32 H 1.03809 0.45351 0.07495 0.0
H33 H 1.03205 0.44451 0.14579 0.0
H34 H 0.08645 0.22764 0.15124 0.0
H35 H 0.09815 0.2378 0.08231 0.0
H36 H 0.54085 0.09032 0.96829 0.0
H37 H 0.55024 0.08638 0.89834 0.0
H38 H 0.55398 0.30642 0.89672 0.0
H39 H 0.53937 0.30993 0.96514 0.0
La40 La 0.69989 0.82038 1.01076 0.0
La41 La 0.87872 0.7436 1.01742 0.0
C42 C 0.56126 0.85719 0.02312 0.0
C43 C 0.54947 0.84672 0.06332 0.0
C44 C 0.53634 0.90322 0.08497 0.0
C45 C 0.52919 0.89498 0.12434 0.0
C46 C 0.53408 0.82978 0.14283 0.0
C47 C 0.54573 0.77309 0.12043 0.0
C48 C 0.55391 0.78146 0.08138 0.0
C49 C 0.84831 0.89659 1.01623 0.0
C50 C 0.91219 0.76123 0.11743 0.0
C51 C 1.02079 0.70817 1.00715 0.0
C52 C 1.03022 0.71506 0.96605 0.0
C53 C 1.04 0.65645 0.94493 0.0
C54 C 1.0429 0.66128 0.90414 0.0
C55 C 1.03723 0.72506 0.88379 0.0
C56 C 1.0298 0.7839 0.90585 0.0
C57 C 1.02573 0.77896 0.9463 0.0
C58 C 0.73422 0.66668 1.01392 0.0
C59 C 0.66192 0.79876 0.90963 0.0
O60 O 0.64613 0.89466 0.03645 0.0
O61 O 0.54723 0.80385 0.99577 0.0
O62 O 0.74435 0.91268 0.99026 0.0
O63 O 0.8661 0.84223 0.03977 0.0
O64 O 0.8058 0.77804 0.08802 0.0
O65 O 0.96588 0.75307 0.09882 0.0
O66 O 0.9407 0.66815 0.99659 0.0
O67 O 1.02875 0.76411 0.03091 0.0
O68 O 0.83805 0.65116 0.03888 0.0
O69 O 0.71365 0.72082 0.98957 0.0
O70 O 0.76826 0.78152 0.93858 0.0
O71 O 0.61066 0.80998 0.92917 0.0
H72 H 0.53321 0.95408 0.0719 0.0
H73 H 0.52241 0.9401 0.141 0.0
H74 H 0.54817 0.72198 0.13287 0.0
H75 H 0.56437 0.73677 0.0656 0.0
H76 H 1.04327 0.60661 0.95939 0.0
H77 H 0.04675 0.6147 0.88778 0.0
H78 H 1.02713 0.83398 0.89192 0.0
H79 H 1.01804 0.82522 0.96171 0.0
La80 La 0.36388 0.80432 0.51511 0.0
La81 La 0.18557 0.72999 0.50735 0.0
C82 C 0.49829 0.84258 0.5005 0.0
C83 C 0.49581 0.84276 0.45546 0.0
C84 C 0.50456 0.90488 0.43779 0.0
C85 C 0.49781 0.90694 0.39414 0.0
C86 C 0.48313 0.84677 0.36734 0.0
C87 C 0.47595 0.78438 0.38543 0.0
C88 C 0.48166 0.78237 0.42888 0.0
C89 C 0.22659 0.88315 0.51679 0.0
C90 C 0.14214 0.75496 0.40609 0.0
C91 C 0.04926 0.69126 0.52048 0.0
C92 C 0.05002 0.69273 0.56485 0.0
C93 C 1.03546 0.63176 0.58161 0.0
C94 C 1.0434 0.63106 0.62557 0.0
C95 C 0.06481 0.69154 0.65329 0.0
C96 C 0.07754 0.75279 0.63604 0.0
C97 C 0.07092 0.75338 0.59241 0.0
C98 C 0.31635 0.65062 0.50219 0.0
C99 C 0.40923 0.77922 0.61657 0.0
O100 O 0.42787 0.88309 0.49795 0.0
O101 O 0.50353 0.78346 0.51962 0.0
O102 O 0.33221 0.89526 0.54295 0.0
O103 O 0.20094 0.83054 0.48935 0.0
O104 O 0.24932 0.77022 0.4352 0.0
O105 O 0.0912 0.74509 0.42582 0.0
O106 O 0.1226 0.65131 0.52499 0.0
O107 O 1.04284 0.74979 0.50041 0.0
O108 O 0.21075 0.64028 0.47706 0.0
O109 O 0.34706 0.70219 0.53143 0.0
O110 O 0.30178 0.76414 0.58778 0.0
O111 O 0.45908 0.78919 0.59639 0.0
H112 H 0.51578 0.95211 0.4576 0.0
H113 H 0.50511 0.95571 0.3816 0.0
H114 H 0.46373 0.73722 0.36539 0.0
H115 H 0.47379 0.73362 0.44123 0.0
H116 H 1.01956 0.58437 0.56108 0.0
H117 H 1.03242 0.58324 0.63782 0.0
H118 H 0.09517 0.8 0.65698 0.0
H119 H 0.08384 0.80111 0.58081 0.0
La120 La 0.9098 0.32965 0.53105 0.0
La121 La 0.73132 0.25504 0.52338 0.0
C122 C 0.04592 0.3682 0.51777 0.0
C123 C 1.04406 0.36662 0.47303 0.0
C124 C 0.0493 0.42802 0.45346 0.0
C125 C 1.03989 0.42818 0.4091 0.0
C126 C 1.0263 0.36681 0.38375 0.0
C127 C 1.02311 0.30523 0.40383 0.0
C128 C 1.03129 0.30509 0.44788 0.0
C129 C 0.7789 0.40908 0.53603 0.0
C130 C 0.68796 0.2789 0.42191 0.0
C131 C 0.59307 0.21653 0.53566 0.0
C132 C 0.58266 0.2222 0.57666 0.0
C133 C 0.55678 0.16382 0.59131 0.0
C134 C 0.54727 0.16738 0.63021 0.0
C135 C 0.56259 0.22963 0.65509 0.0
C136 C 0.58838 0.2882 0.64033 0.0
C137 C 0.59893 0.2845 0.60171 0.0
C138 C 0.86902 0.17647 0.52163 0.0
C139 C 0.95213 0.30552 0.63202 0.0
O140 O 0.97329 0.40836 0.51369 0.0
O141 O 0.05249 0.30972 0.53795 0.0
O142 O 0.88437 0.41964 0.56094 0.0
O143 O 0.74809 0.35717 0.50704 0.0
O144 O 0.79469 0.29564 0.45073 0.0
O145 O 0.63794 0.26783 0.44191 0.0
O146 O 0.67439 0.17882 0.54588 0.0
O147 O 0.58294 0.27245 0.51211 0.0
O148 O 0.76365 0.16388 0.49585 0.0
O149 O 0.89406 0.22908 0.54893 0.0
O150 O 0.84433 0.29174 0.60281 0.0
O151 O 1.00352 0.31386 0.61236 0.0
H152 H 0.05908 0.47609 0.47211 0.0
H153 H 1.04384 0.47631 0.39475 0.0
H154 H 1.01186 0.25725 0.38481 0.0
H155 H 1.0259 0.25689 0.46168 0.0
H156 H 0.54386 0.11526 0.57258 0.0
H157 H 0.52629 0.12153 0.64033 0.0
H158 H 0.60183 0.33673 0.65916 0.0
H159 H 0.62005 0.3303 0.59159 0.0
H160 H 0.7733 0.55337 0.06828 0.0
H161 H 0.50861 0.68171 0.95056 0.0
H162 H 0.37111 0.60898 0.94398 0.0
H163 H 0.32609 0.50799 0.97113 0.0
H164 H 0.59062 0.37925 0.08854 0.0
H165 H 0.72823 0.45231 0.0954 0.0
C166 C 0.68548 0.56538 0.04123 0.0
C167 C 0.6511 0.62315 1.01025 0.0
C168 C 0.60695 0.5229 0.03736 0.0
C169 C 0.53717 0.63808 0.97531 0.0
C170 C 0.45852 0.59627 0.97134 0.0
C171 C 0.41391 0.49598 0.9982 0.0
C172 C 0.44821 0.43807 0.02903 0.0
C173 C 0.49244 0.53849 1.00211 0.0
C174 C 0.56213 0.42309 0.06397 0.0
C175 C 0.64084 0.46504 0.06807 0.0
H176 H 0.54503 0.64981 0.5633 0.0
H177 H 0.2508 0.53866 0.44129 0.0
H178 H 0.36524 0.4534 0.44103 0.0
H179 H 0.55026 0.40953 0.47524 0.0
H180 H 0.84445 0.52059 0.59729 0.0
H181 H 0.73006 0.60576 0.59768 0.0
C182 C 0.50618 0.60711 0.53655 0.0
C183 C 0.38939 0.60091 0.50235 0.0
C184 C 0.57289 0.55771 0.53662 0.0
C185 C 0.34048 0.5449 0.46809 0.0
C186 C 0.40596 0.49586 0.4679 0.0
C187 C 0.58911 0.45219 0.50203 0.0
C188 C 0.70589 0.4585 0.53613 0.0
C189 C 0.5224 0.50151 0.50203 0.0
C190 C 0.75479 0.51439 0.57049 0.0
C191 C 0.68933 0.56334 0.57077 0.0
H192 H 0.27527 0.05086 0.07436 0.0
H193 H 1.02351 0.18307 0.95471 0.0
H194 H 0.87784 0.11247 0.94246 0.0
H195 H 0.82088 1.01175 0.96488 0.0
H196 H 0.07284 0.87956 0.08453 0.0
H197 H 0.21858 0.9505 0.09705 0.0
C198 C 0.18844 0.06415 0.04565 0.0
C199 C 0.16034 0.12253 1.01586 0.0
C200 C 0.10477 1.02278 0.03842 0.0
C201 C 0.04751 0.13901 0.97869 0.0
C202 C 0.96396 0.09835 0.97141 0.0
C203 C 0.90773 0.99854 0.99364 0.0
C204 C 0.93588 0.94001 0.0233 0.0
C205 C 0.99144 0.04 1.00095 0.0
C206 C 0.04878 0.92368 0.06058 0.0
C207 C 0.13234 0.96448 0.068 0.0
H208 H 0.82492 0.05753 0.46881 0.0
H209 H 0.09606 0.18782 0.5855 0.0
H210 H 0.23009 0.10923 0.59445 0.0
H211 H 0.2711 1.00229 0.56967 0.0
H212 H 0.99975 0.87207 0.45298 0.0
H213 H 0.86587 0.95074 0.44402 0.0
C214 C 0.91336 0.06876 0.49614 0.0
C215 C 0.95012 0.1289 0.5262 0.0
C216 C 0.9903 1.02281 0.50141 0.0
C217 C 0.06515 0.14243 0.5615 0.0
C218 C 0.14203 0.09722 0.56682 0.0
C219 C 0.18265 0.99109 0.54234 0.0
C220 C 0.14578 0.93092 0.51228 0.0
C221 C 0.10573 0.0371 0.53708 0.0
C222 C 1.03074 0.91747 0.47697 0.0
C223 C 0.95394 0.96272 0.47165 0.0
H224 H 0.77134 0.27742 0.37061 0.0
H225 H 0.46277 0.26309 0.34734 0.0
H226 H 0.35939 0.25406 0.25473 0.0
H227 H 0.35549 0.25416 0.18063 0.0
H228 H 0.66386 0.26763 0.20379 0.0
H229 H 0.76844 0.2728 0.29659 0.0
C230 C 0.68139 0.27231 0.3454 0.0
C231 C 0.62487 0.27146 0.36594 0.0
C232 C 0.62239 0.26691 0.2923 0.0
C233 C 0.50842 0.26406 0.33262 0.0
C234 C 0.44913 0.25896 0.27969 0.0
C235 C 0.44565 0.25786 0.20594 0.0
C236 C 0.50176 0.26072 0.18531 0.0
C237 C 0.50514 0.26085 0.25914 0.0
C238 C 0.61863 0.26496 0.21867 0.0
C239 C 0.67847 0.26824 0.27173 0.0
H240 H 0.41402 0.90303 0.16323 0.0
H241 H 0.64523 0.73668 0.22061 0.0
H242 H 0.64633 0.72568 0.2932 0.0
H243 H 0.58795 0.76597 0.34292 0.0
H244 H 0.36066 0.93389 0.28694 0.0
H245 H 0.35299 0.94198 0.21194 0.0
C246 C 0.46552 0.86468 0.19173 0.0
C247 C 0.53033 0.82131 0.18619 0.0
C248 C 0.4668 0.85895 0.23399 0.0
C249 C 0.59407 0.77083 0.22324 0.0
C250 C 0.59521 0.76458 0.26514 0.0
C251 C 0.53596 0.80391 0.31405 0.0
C252 C 0.47544 0.84946 0.32072 0.0
C253 C 0.53262 0.80866 0.27116 0.0
C254 C 0.40926 0.89878 0.28314 0.0
C255 C 0.40451 0.90328 0.24012 0.0
H256 H 0.7447 0.79733 0.85807 0.0
H257 H 0.43608 0.80582 0.83497 0.0
H258 H 0.33107 0.8012 0.74219 0.0
H259 H 0.32698 0.79101 0.668 0.0
H260 H 0.63557 0.78326 0.69108 0.0
H261 H 0.74049 0.79112 0.78385 0.0
C262 C 0.65445 0.79856 0.83282 0.0
C263 C 0.59838 0.80171 0.85351 0.0
C264 C 0.59462 0.79576 0.77958 0.0
C265 C 0.48143 0.80369 0.82013 0.0
C266 C 0.42125 0.80077 0.76704 0.0
C267 C 0.41725 0.79109 0.69325 0.0
C268 C 0.47334 0.78612 0.67262 0.0
C269 C 0.47704 0.79614 0.74642 0.0
C270 C 0.5903 0.78707 0.70592 0.0
C271 C 0.6504 0.79156 0.75895 0.0
H272 H 0.65151 0.14475 0.73587 0.0
H273 H 0.44723 0.32287 0.66611 0.0
H274 H 0.42514 0.32808 0.73238 0.0
H275 H 0.46203 0.28106 0.80961 0.0
H276 H 0.67247 0.10505 0.88083 0.0
H277 H 0.69206 0.09945 0.81421 0.0
C278 C 0.60181 0.18455 0.73509 0.0
C279 C 0.55103 0.23331 0.69605 0.0
C280 C 0.59008 0.18748 0.77352 0.0
C281 C 0.48806 0.28509 0.69598 0.0
C282 C 0.475 0.2879 0.73375 0.0
C283 C 0.5133 0.24188 0.81105 0.0
C284 C 0.56538 0.1935 0.85057 0.0
C285 C 0.52572 0.23938 0.77278 0.0
C286 C 0.62978 0.14248 0.85078 0.0
C287 C 0.64177 0.1394 0.81274 0.0
H288 H 0.82116 0.7527 0.16496 0.0
H289 H 0.1366 0.75159 0.19399 0.0
H290 H 0.23467 0.74622 0.28606 0.0
H291 H 0.23066 0.74716 0.3577 0.0
H292 H 0.91602 0.74998 0.32933 0.0
H293 H 0.81743 0.74899 0.23679 0.0
C294 C 0.9114 0.75101 0.19135 0.0
C295 C 0.97161 0.75298 0.17271 0.0
C296 C 0.96713 0.74827 0.2441 0.0
C297 C 0.08835 0.75004 0.20737 0.0
C298 C 0.14446 0.74717 0.25999 0.0
C299 C 0.14038 0.7474 0.33143 0.0
C300 C 0.08066 0.74934 0.35034 0.0
C301 C 0.08459 0.74711 0.27868 0.0
C302 C 0.96383 0.74858 0.31571 0.0
C303 C 0.90749 0.74815 0.26292 0.0
H304 H 0.13788 0.28886 0.36226 0.0
H305 H 0.89002 0.44553 0.29927 0.0
H306 H 0.87417 0.44768 0.2218 0.0
H307 H 0.93318 0.40616 0.17277 0.0
H308 H 0.1869 0.25233 0.23795 0.0
H309 H 0.1962 0.24707 0.31303 0.0
C310 C 0.07989 0.32309 0.33137 0.0
C311 C 1.01545 0.36708 0.33646 0.0
C312 C 0.0721 0.32452 0.28726 0.0
C313 C 0.9414 0.41172 0.29642 0.0
C314 C 0.93204 0.41277 0.25209 0.0
C315 C 0.99138 0.37189 0.20352 0.0
C316 C 0.05989 0.33015 0.19943 0.0
C317 C 0.99771 0.36977 0.24727 0.0
C318 C 0.13253 0.28488 0.23943 0.0
C319 C 0.13845 0.28201 0.28274 0.0
H320 H 0.86502 0.31789 0.68084 0.0
H321 H 0.17823 0.30596 0.70831 0.0
H322 H 0.27811 0.30643 0.80088 0.0
H323 H 0.27486 0.30412 0.87303 0.0
H324 H 0.96086 0.3149 0.84499 0.0
H325 H 0.86229 0.32122 0.75287 0.0
C326 C 0.95522 0.31557 0.70698 0.0
C327 C 1.01421 0.31118 0.6878 0.0
C328 C 1.0116 0.31553 0.75978 0.0
C329 C 0.13101 0.30927 0.72218 0.0
C330 C 0.18802 0.30933 0.77502 0.0
C331 C 0.18484 0.30808 0.84686 0.0
C332 C 0.12506 0.30841 0.86576 0.0
C333 C 0.12891 0.31146 0.79411 0.0
C334 C 1.00871 0.31446 0.83139 0.0
C335 C 0.95234 0.31792 0.77876 0.0
H336 H 0.9639 0.77509 0.67781 0.0
H337 H 0.18807 0.60552 0.73407 0.0
H338 H 0.20314 0.60255 0.81129 0.0
H339 H 0.15111 0.64751 0.86223 0.0
H340 H 0.91937 0.81385 0.8036 0.0
H341 H 0.91089 0.8196 0.72865 0.0
C342 C 1.01654 0.73782 0.70719 0.0
C343 C 0.07465 0.69055 0.7003 0.0
C344 C 1.02379 0.73595 0.75115 0.0
C345 C 0.14168 0.642 0.73834 0.0
C346 C 0.15063 0.64046 0.78254 0.0
C347 C 0.09774 0.68462 0.8329 0.0
C348 C 1.03557 0.72989 0.83883 0.0
C349 C 0.09144 0.68691 0.78919 0.0
C350 C 0.96913 0.77866 0.80069 0.0
C351 C 0.96356 0.78179 0.75747 0.0
loop_
_geom_bond_atom_site_label_1
_geom_bond_atom_site_label_2
_geom_bond_distance
_geom_bond_site_symmetry_2
_ccdc_geom_bond_type
La0 C2 2.928 1_556 S
La0 O20 2.521 1_556 S
La0 O21 2.628 1_556 S
La0 O22 2.554 1_556 S
La0 O23 2.757 . S
La0 O24 2.470 1_556 S
La0 O29 2.482 1_556 S
La0 O31 2.503 . S
La1 C11 2.928 1_554 S
La1 O23 2.482 1_554 S
La1 O25 2.503 . S
La1 O26 2.521 1_554 S
La1 O27 2.628 1_554 S
La1 O28 2.554 1_554 S
La1 O29 2.757 . S
La1 O30 2.470 1_554 S
C2 La0 2.928 1_554 S
C2 C3 1.503 . S
C2 O20 1.261 . S
C2 O21 1.243 . S
C3 C2 1.503 . S
C3 C4 1.394 . S
C3 C8 1.373 . S
C4 C3 1.394 . S
C4 C5 1.380 . S
C4 H32 0.930 . S
C5 C4 1.380 . S
C5 C6 1.376 . S
C5 H33 0.930 . S
C6 C5 1.376 . S
C6 C7 1.370 . S
C7 C6 1.370 . S
C7 C8 1.396 . S
C7 H34 0.929 . S
C8 C3 1.373 . S
C8 C7 1.396 . S
C8 H35 0.929 . S
C9 O22 1.240 . S
C9 O23 1.289 1_554 S
C10 O24 1.258 . S
C10 O25 1.256 . S
C11 La1 2.928 1_556 S
C11 C12 1.503 . S
C11 O26 1.261 . S
C11 O27 1.243 . S
C12 C11 1.503 . S
C12 C13 1.394 . S
C12 C17 1.373 . S
C13 C12 1.394 . S
C13 C14 1.380 . S
C13 H36 0.930 . S
C14 C13 1.380 . S
C14 C15 1.376 . S
C14 H37 0.930 . S
C15 C14 1.376 . S
C15 C16 1.370 . S
C16 C15 1.370 . S
C16 C17 1.396 . S
C16 H38 0.929 . S
C17 C12 1.373 . S
C17 C16 1.396 . S
C17 H39 0.929 . S
C18 O28 1.240 . S
C18 O29 1.289 1_556 S
C19 O30 1.258 . S
C19 O31 1.256 . S
O20 La0 2.521 1_554 S
O20 C2 1.261 . S
O21 La0 2.628 1_554 S
O21 C2 1.243 . S
O22 La0 2.554 1_554 S
O22 C9 1.240 . S
O23 La0 2.757 . S
O23 La1 2.482 1_556 S
O23 C9 1.289 1_556 S
O24 La0 2.470 1_554 S
O24 C10 1.258 . S
O25 La1 2.503 . S
O25 C10 1.256 . S
O26 La1 2.521 1_556 S
O26 C11 1.261 . S
O27 La1 2.628 1_556 S
O27 C11 1.243 . S
O28 La1 2.554 1_556 S
O28 C18 1.240 . S
O29 La0 2.482 1_554 S
O29 La1 2.757 . S
O29 C18 1.289 1_554 S
O30 La1 2.470 1_556 S
O30 C19 1.258 . S
O31 La0 2.503 . S
O31 C19 1.256 . S
H32 C4 0.930 . S
H33 C5 0.930 . S
H34 C7 0.929 . S
H35 C8 0.929 . S
H36 C13 0.930 . S
H37 C14 0.930 . S
H38 C16 0.929 . S
H39 C17 0.929 . S
La40 C42 2.928 1_556 S
La40 O60 2.521 1_556 S
La40 O61 2.628 1_556 S
La40 O62 2.554 1_556 S
La40 O63 2.757 . S
La40 O64 2.470 1_556 S
La40 O69 2.482 1_556 S
La40 O71 2.503 . S
La41 C51 2.928 1_554 S
La41 O63 2.482 1_554 S
La41 O65 2.503 . S
La41 O66 2.521 1_554 S
La41 O67 2.628 1_554 S
La41 O68 2.554 1_554 S
La41 O69 2.757 . S
La41 O70 2.470 1_554 S
C42 La40 2.928 1_554 S
C42 C43 1.503 . S
C42 O60 1.261 . S
C42 O61 1.243 . S
C43 C42 1.503 . S
C43 C44 1.394 . S
C43 C48 1.373 . S
C44 C43 1.394 . S
C44 C45 1.380 . S
C44 H72 0.930 . S
C45 C44 1.380 . S
C45 C46 1.376 . S
C45 H73 0.930 . S
C46 C45 1.376 . S
C46 C47 1.370 . S
C47 C46 1.370 . S
C47 C48 1.396 . S
C47 H74 0.929 . S
C48 C43 1.373 . S
C48 C47 1.396 . S
C48 H75 0.929 . S
C49 O62 1.240 . S
C49 O63 1.289 1_554 S
C50 O64 1.258 . S
C50 O65 1.256 . S
C51 La41 2.928 1_556 S
C51 C52 1.503 . S
C51 O66 1.261 . S
C51 O67 1.243 . S
C52 C51 1.503 . S
C52 C53 1.394 . S
C52 C57 1.373 . S
C53 C52 1.394 . S
C53 C54 1.380 . S
C53 H76 0.930 . S
C54 C53 1.380 . S
C54 C55 1.376 . S
C54 H77 0.930 . S
C55 C54 1.376 . S
C55 C56 1.370 . S
C56 C55 1.370 . S
C56 C57 1.396 . S
C56 H78 0.929 . S
C57 C52 1.373 . S
C57 C56 1.396 . S
C57 H79 0.929 . S
C58 O68 1.240 . S
C58 O69 1.289 1_556 S
C59 O70 1.258 . S
C59 O71 1.256 . S
O60 La40 2.521 1_554 S
O60 C42 1.261 . S
O61 La40 2.628 1_554 S
O61 C42 1.243 . S
O62 La40 2.554 1_554 S
O62 C49 1.240 . S
O63 La40 2.757 . S
O63 La41 2.482 1_556 S
O63 C49 1.289 1_556 S
O64 La40 2.470 1_554 S
O64 C50 1.258 . S
O65 La41 2.503 . S
O65 C50 1.256 . S
O66 La41 2.521 1_556 S
O66 C51 1.261 . S
O67 La41 2.628 1_556 S
O67 C51 1.243 . S
O68 La41 2.554 1_556 S
O68 C58 1.240 . S
O69 La40 2.482 1_554 S
O69 La41 2.757 . S
O69 C58 1.289 1_554 S
O70 La41 2.470 1_556 S
O70 C59 1.258 . S
O71 La40 2.503 . S
O71 C59 1.256 . S
H72 C44 0.930 . S
H73 C45 0.930 . S
H74 C47 0.929 . S
H75 C48 0.929 . S
H76 C53 0.930 . S
H77 C54 0.930 . S
H78 C56 0.929 . S
H79 C57 0.929 . S
La80 C82 2.928 . S
La80 O100 2.521 . S
La80 O101 2.628 . S
La80 O102 2.554 . S
La80 O103 2.757 . S
La80 O104 2.470 . S
La80 O109 2.482 . S
La80 O111 2.503 . S
La81 C91 2.928 . S
La81 O103 2.482 . S
La81 O105 2.503 . S
La81 O106 2.521 . S
La81 O107 2.628 . S
La81 O108 2.554 . S
La81 O109 2.757 . S
La81 O110 2.470 . S
C82 La80 2.928 . S
C82 C83 1.503 . S
C82 O100 1.261 . S
C82 O101 1.243 . S
C83 C82 1.503 . S
C83 C84 1.394 . S
C83 C88 1.373 . S
C84 C83 1.394 . S
C84 C85 1.380 . S
C84 H112 0.930 . S
C85 C84 1.380 . S
C85 C86 1.376 . S
C85 H113 0.930 . S
C86 C85 1.376 . S
C86 C87 1.370 . S
C87 C86 1.370 . S
C87 C88 1.396 . S
C87 H114 0.929 . S
C88 C83 1.373 . S
C88 C87 1.396 . S
C88 H115 0.929 . S
C89 O102 1.240 . S
C89 O103 1.289 . S
C90 O104 1.258 . S
C90 O105 1.256 . S
C91 La81 2.928 . S
C91 C92 1.503 . S
C91 O106 1.261 . S
C91 O107 1.243 . S
C92 C91 1.503 . S
C92 C93 1.394 . S
C92 C97 1.373 . S
C93 C92 1.394 . S
C93 C94 1.380 . S
C93 H116 0.930 . S
C94 C93 1.380 . S
C94 C95 1.376 . S
C94 H117 0.930 . S
C95 C94 1.376 . S
C95 C96 1.370 . S
C96 C95 1.370 . S
C96 C97 1.396 . S
C96 H118 0.929 . S
C97 C92 1.373 . S
C97 C96 1.396 . S
C97 H119 0.929 . S
C98 O108 1.240 . S
C98 O109 1.289 . S
C99 O110 1.258 . S
C99 O111 1.256 . S
O100 La80 2.521 . S
O100 C82 1.261 . S
O101 La80 2.628 . S
O101 C82 1.243 . S
O102 La80 2.554 . S
O102 C89 1.240 . S
O103 La80 2.757 . S
O103 La81 2.482 . S
O103 C89 1.289 . S
O104 La80 2.470 . S
O104 C90 1.258 . S
O105 La81 2.503 . S
O105 C90 1.256 . S
O106 La81 2.521 . S
O106 C91 1.261 . S
O107 La81 2.628 . S
O107 C91 1.243 . S
O108 La81 2.554 . S
O108 C98 1.240 . S
O109 La80 2.482 . S
O109 La81 2.757 . S
O109 C98 1.289 . S
O110 La81 2.470 . S
O110 C99 1.258 . S
O111 La80 2.503 . S
O111 C99 1.256 . S
H112 C84 0.930 . S
H113 C85 0.930 . S
H114 C87 0.929 . S
H115 C88 0.929 . S
H116 C93 0.930 . S
H117 C94 0.930 . S
H118 C96 0.929 . S
H119 C97 0.929 . S
La120 C122 2.928 . S
La120 O140 2.521 . S
La120 O141 2.628 . S
La120 O142 2.554 . S
La120 O143 2.757 . S
La120 O144 2.470 . S
La120 O149 2.482 . S
La120 O151 2.503 . S
La121 C131 2.928 . S
La121 O143 2.482 . S
La121 O145 2.503 . S
La121 O146 2.521 . S
La121 O147 2.628 . S
La121 O148 2.554 . S
La121 O149 2.757 . S
La121 O150 2.470 . S
C122 La120 2.928 . S
C122 C123 1.503 . S
C122 O140 1.261 . S
C122 O141 1.243 . S
C123 C122 1.503 . S
C123 C124 1.394 . S
C123 C128 1.373 . S
C124 C123 1.394 . S
C124 C125 1.380 . S
C124 H152 0.930 . S
C125 C124 1.380 . S
C125 C126 1.376 . S
C125 H153 0.930 . S
C126 C125 1.376 . S
C126 C127 1.370 . S
C127 C126 1.370 . S
C127 C128 1.396 . S
C127 H154 0.929 . S
C128 C123 1.373 . S
C128 C127 1.396 . S
C128 H155 0.929 . S
C129 O142 1.240 . S
C129 O143 1.289 . S
C130 O144 1.258 . S
C130 O145 1.256 . S
C131 La121 2.928 . S
C131 C132 1.503 . S
C131 O146 1.261 . S
C131 O147 1.243 . S
C132 C131 1.503 . S
C132 C133 1.394 . S
C132 C137 1.373 . S
C133 C132 1.394 . S
C133 C134 1.380 . S
C133 H156 0.930 . S
C134 C133 1.380 . S
C134 C135 1.376 . S
C134 H157 0.930 . S
C135 C134 1.376 . S
C135 C136 1.370 . S
C136 C135 1.370 . S
C136 C137 1.396 . S
C136 H158 0.929 . S
C137 C132 1.373 . S
C137 C136 1.396 . S
C137 H159 0.929 . S
C138 O148 1.240 . S
C138 O149 1.289 . S
C139 O150 1.258 . S
C139 O151 1.256 . S
O140 La120 2.521 . S
O140 C122 1.261 . S
O141 La120 2.628 . S
O141 C122 1.243 . S
O142 La120 2.554 . S
O142 C129 1.240 . S
O143 La120 2.757 . S
O143 La121 2.482 . S
O143 C129 1.289 . S
O144 La120 2.470 . S
O144 C130 1.258 . S
O145 La121 2.503 . S
O145 C130 1.256 . S
O146 La121 2.521 . S
O146 C131 1.261 . S
O147 La121 2.628 . S
O147 C131 1.243 . S
O148 La121 2.554 . S
O148 C138 1.240 . S
O149 La120 2.482 . S
O149 La121 2.757 . S
O149 C138 1.289 . S
O150 La121 2.470 . S
O150 C139 1.258 . S
O151 La120 2.503 . S
O151 C139 1.256 . S
H152 C124 0.930 . S
H153 C125 0.930 . S
H154 C127 0.929 . S
H155 C128 0.929 . S
H156 C133 0.930 . S
H157 C134 0.930 . S
H158 C136 0.929 . S
H159 C137 0.929 . S
H160 C166 0.930 . S
H161 C169 0.930 . S
H162 C170 0.930 . S
H163 C171 0.930 . S
H164 C174 0.930 . S
H165 C175 0.930 . S
C166 H160 0.930 . S
C166 C167 1.355 1_554 S
C166 C168 1.415 . S
C167 C166 1.355 1_556 S
C167 C169 1.419 . S
C168 C166 1.415 . S
C168 C173 1.425 1_554 S
C168 C175 1.409 . S
C169 H161 0.930 . S
C169 C167 1.419 . S
C169 C170 1.362 . S
C170 H162 0.930 . S
C170 C169 1.362 . S
C170 C173 1.409 . S
C171 H163 0.930 . S
C171 C172 1.355 1_556 S
C171 C173 1.415 . S
C172 C171 1.355 1_554 S
C172 C174 1.419 . S
C173 C168 1.425 1_556 S
C173 C170 1.409 . S
C173 C171 1.415 . S
C174 H164 0.930 . S
C174 C172 1.419 . S
C174 C175 1.362 . S
C175 H165 0.930 . S
C175 C168 1.409 . S
C175 C174 1.362 . S
H176 C182 0.930 . S
H177 C185 0.930 . S
H178 C186 0.930 . S
H179 C187 0.930 . S
H180 C190 0.930 . S
H181 C191 0.930 . S
C182 H176 0.930 . S
C182 C183 1.355 . S
C182 C184 1.415 . S
C183 C182 1.355 . S
C183 C185 1.419 . S
C184 C182 1.415 . S
C184 C189 1.425 . S
C184 C191 1.409 . S
C185 H177 0.930 . S
C185 C183 1.419 . S
C185 C186 1.362 . S
C186 H178 0.930 . S
C186 C185 1.362 . S
C186 C189 1.409 . S
C187 H179 0.930 . S
C187 C188 1.355 . S
C187 C189 1.415 . S
C188 C187 1.355 . S
C188 C190 1.419 . S
C189 C184 1.425 . S
C189 C186 1.409 . S
C189 C187 1.415 . S
C190 H180 0.930 . S
C190 C188 1.419 . S
C190 C191 1.362 . S
C191 H181 0.930 . S
C191 C184 1.409 . S
C191 C190 1.362 . S
H192 C198 0.930 . S
H193 C201 0.930 . S
H194 C202 0.930 . S
H195 C203 0.930 . S
H196 C206 0.930 . S
H197 C207 0.930 . S
C198 H192 0.930 . S
C198 C199 1.355 . S
C198 C200 1.415 1_545 S
C199 C198 1.355 . S
C199 C201 1.419 1_556 S
C200 C198 1.415 1_565 S
C200 C205 1.425 1_466 S
C200 C207 1.409 1_455 S
C201 H193 0.930 . S
C201 C199 1.419 1_554 S
C201 C202 1.362 . S
C202 H194 0.930 . S
C202 C201 1.362 . S
C202 C205 1.409 1_455 S
C203 H195 0.930 . S
C203 C204 1.355 . S
C203 C205 1.415 1_565 S
C204 C203 1.355 . S
C204 C206 1.419 1_554 S
C205 C200 1.425 1_644 S
C205 C202 1.409 1_655 S
C205 C203 1.415 1_545 S
C206 H196 0.930 . S
C206 C204 1.419 1_556 S
C206 C207 1.362 . S
C207 H197 0.930 . S
C207 C200 1.409 1_655 S
C207 C206 1.362 . S
H208 C214 0.930 . S
H209 C217 0.930 . S
H210 C218 0.930 1_455 S
H211 C219 0.930 . S
H212 C222 0.930 . S
H213 C223 0.930 1_655 S
C214 H208 0.930 . S
C214 C215 1.355 . S
C214 C216 1.415 . S
C215 C214 1.355 . S
C215 C217 1.419 . S
C216 C214 1.415 . S
C216 C221 1.425 1_645 S
C216 C223 1.409 1_655 S
C217 H209 0.930 . S
C217 C215 1.419 . S
C217 C218 1.362 1_545 S
C218 H210 0.930 1_655 S
C218 C217 1.362 1_565 S
C218 C221 1.409 1_655 S
C219 H211 0.930 . S
C219 C220 1.355 . S
C219 C221 1.415 . S
C220 C219 1.355 . S
C220 C222 1.419 . S
C221 C216 1.425 1_465 S
C221 C218 1.409 1_455 S
C221 C219 1.415 . S
C222 H212 0.930 . S
C222 C220 1.419 . S
C222 C223 1.362 1_565 S
C223 H213 0.930 1_455 S
C223 C216 1.409 1_455 S
C223 C222 1.362 1_545 S
H224 C230 0.930 . S
H225 C233 0.930 . S
H226 C234 0.930 . S
H227 C235 0.930 . S
H228 C238 0.930 . S
H229 C239 0.930 . S
C230 H224 0.930 . S
C230 C231 1.355 . S
C230 C232 1.415 . S
C231 C230 1.355 . S
C231 C233 1.419 . S
C232 C230 1.415 . S
C232 C237 1.425 . S
C232 C239 1.409 . S
C233 H225 0.930 . S
C233 C231 1.419 . S
C233 C234 1.362 . S
C234 H226 0.930 . S
C234 C233 1.362 . S
C234 C237 1.409 . S
C235 H227 0.930 . S
C235 C236 1.355 . S
C235 C237 1.415 . S
C236 C235 1.355 . S
C236 C238 1.419 . S
C237 C232 1.425 . S
C237 C234 1.409 . S
C237 C235 1.415 . S
C238 H228 0.930 . S
C238 C236 1.419 . S
C238 C239 1.362 . S
C239 H229 0.930 . S
C239 C232 1.409 . S
C239 C238 1.362 . S
H240 C246 0.930 . S
H241 C249 0.930 . S
H242 C250 0.930 . S
H243 C251 0.930 . S
H244 C254 0.930 . S
H245 C255 0.930 . S
C246 H240 0.930 . S
C246 C247 1.355 . S
C246 C248 1.415 . S
C247 C246 1.355 . S
C247 C249 1.419 . S
C248 C246 1.415 . S
C248 C253 1.425 . S
C248 C255 1.409 . S
C249 H241 0.930 . S
C249 C247 1.419 . S
C249 C250 1.362 . S
C250 H242 0.930 . S
C250 C249 1.362 . S
C250 C253 1.409 . S
C251 H243 0.930 . S
C251 C252 1.355 . S
C251 C253 1.415 . S
C252 C251 1.355 . S
C252 C254 1.419 . S
C253 C248 1.425 . S
C253 C250 1.409 . S
C253 C251 1.415 . S
C254 H244 0.930 . S
C254 C252 1.419 . S
C254 C255 1.362 . S
C255 H245 0.930 . S
C255 C248 1.409 . S
C255 C254 1.362 . S
H256 C262 0.930 . S
H257 C265 0.930 . S
H258 C266 0.930 . S
H259 C267 0.930 . S
H260 C270 0.930 . S
H261 C271 0.930 . S
C262 H256 0.930 . S
C262 C263 1.355 . S
C262 C264 1.415 . S
C263 C262 1.355 . S
C263 C265 1.419 . S
C264 C262 1.415 . S
C264 C269 1.425 . S
C264 C271 1.409 . S
C265 H257 0.930 . S
C265 C263 1.419 . S
C265 C266 1.362 . S
C266 H258 0.930 . S
C266 C265 1.362 . S
C266 C269 1.409 . S
C267 H259 0.930 . S
C267 C268 1.355 . S
C267 C269 1.415 . S
C268 C267 1.355 . S
C268 C270 1.419 . S
C269 C264 1.425 . S
C269 C266 1.409 . S
C269 C267 1.415 . S
C270 H260 0.930 . S
C270 C268 1.419 . S
C270 C271 1.362 . S
C271 H261 0.930 . S
C271 C264 1.409 . S
C271 C270 1.362 . S
H272 C278 0.930 . S
H273 C281 0.930 . S
H274 C282 0.930 . S
H275 C283 0.930 . S
H276 C286 0.930 . S
H277 C287 0.930 . S
C278 H272 0.930 . S
C278 C279 1.355 . S
C278 C280 1.415 . S
C279 C278 1.355 . S
C279 C281 1.419 . S
C280 C278 1.415 . S
C280 C285 1.425 . S
C280 C287 1.409 . S
C281 H273 0.930 . S
C281 C279 1.419 . S
C281 C282 1.362 . S
C282 H274 0.930 . S
C282 C281 1.362 . S
C282 C285 1.409 . S
C283 H275 0.930 . S
C283 C284 1.355 . S
C283 C285 1.415 . S
C284 C283 1.355 . S
C284 C286 1.419 . S
C285 C280 1.425 . S
C285 C282 1.409 . S
C285 C283 1.415 . S
C286 H276 0.930 . S
C286 C284 1.419 . S
C286 C287 1.362 . S
C287 H277 0.930 . S
C287 C280 1.409 . S
C287 C286 1.362 . S
H288 C294 0.930 . S
H289 C297 0.930 . S
H290 C298 0.930 . S
H291 C299 0.930 . S
H292 C302 0.930 . S
H293 C303 0.930 . S
C294 H288 0.930 . S
C294 C295 1.355 . S
C294 C296 1.415 . S
C295 C294 1.355 . S
C295 C297 1.419 1_655 S
C296 C294 1.415 . S
C296 C301 1.425 1_655 S
C296 C303 1.409 . S
C297 H289 0.930 . S
C297 C295 1.419 1_455 S
C297 C298 1.362 . S
C298 H290 0.930 . S
C298 C297 1.362 . S
C298 C301 1.409 . S
C299 H291 0.930 . S
C299 C300 1.355 . S
C299 C301 1.415 . S
C300 C299 1.355 . S
C300 C302 1.419 1_455 S
C301 C296 1.425 1_455 S
C301 C298 1.409 . S
C301 C299 1.415 . S
C302 H292 0.930 . S
C302 C300 1.419 1_655 S
C302 C303 1.362 . S
C303 H293 0.930 . S
C303 C296 1.409 . S
C303 C302 1.362 . S
H304 C310 0.930 . S
H305 C313 0.930 . S
H306 C314 0.930 . S
H307 C315 0.930 . S
H308 C318 0.930 . S
H309 C319 0.930 . S
C310 H304 0.930 . S
C310 C311 1.355 1_455 S
C310 C312 1.415 . S
C311 C310 1.355 1_655 S
C311 C313 1.419 . S
C312 C310 1.415 . S
C312 C317 1.425 1_455 S
C312 C319 1.409 . S
C313 H305 0.930 . S
C313 C311 1.419 . S
C313 C314 1.362 . S
C314 H306 0.930 . S
C314 C313 1.362 . S
C314 C317 1.409 . S
C315 H307 0.930 . S
C315 C316 1.355 1_655 S
C315 C317 1.415 . S
C316 C315 1.355 1_455 S
C316 C318 1.419 . S
C317 C312 1.425 1_655 S
C317 C314 1.409 . S
C317 C315 1.415 . S
C318 H308 0.930 . S
C318 C316 1.419 . S
C318 C319 1.362 . S
C319 H309 0.930 . S
C319 C312 1.409 . S
C319 C318 1.362 . S
H320 C326 0.930 . S
H321 C329 0.930 . S
H322 C330 0.930 1_455 S
H323 C331 0.930 . S
H324 C334 0.930 . S
H325 C335 0.930 1_655 S
C326 H320 0.930 . S
C326 C327 1.355 . S
C326 C328 1.415 . S
C327 C326 1.355 . S
C327 C329 1.419 . S
C328 C326 1.415 . S
C328 C333 1.425 1_655 S
C328 C335 1.413 1_655 S
C329 H321 0.930 . S
C329 C327 1.419 . S
C329 C330 1.358 . S
C330 H322 0.930 1_655 S
C330 C329 1.358 . S
C330 C333 1.413 1_655 S
C331 H323 0.930 . S
C331 C332 1.355 . S
C331 C333 1.415 . S
C332 C331 1.355 . S
C332 C334 1.419 . S
C333 C328 1.425 1_455 S
C333 C330 1.413 1_455 S
C333 C331 1.415 . S
C334 H324 0.930 . S
C334 C332 1.419 . S
C334 C335 1.358 . S
C335 H325 0.930 1_455 S
C335 C328 1.413 1_455 S
C335 C334 1.358 . S
H336 C342 0.930 . S
H337 C345 0.930 . S
H338 C346 0.930 . S
H339 C347 0.930 . S
H340 C350 0.930 . S
H341 C351 0.930 . S
C342 H336 0.930 . S
C342 C343 1.355 1_655 S
C342 C344 1.415 . S
C343 C342 1.355 1_455 S
C343 C345 1.419 . S
C344 C342 1.415 . S
C344 C349 1.425 1_655 S
C344 C351 1.409 . S
C345 H337 0.930 . S
C345 C343 1.419 . S
C345 C346 1.362 . S
C346 H338 0.930 . S
C346 C345 1.362 . S
C346 C349 1.409 . S
C347 H339 0.930 . S
C347 C348 1.355 1_455 S
C347 C349 1.415 . S
C348 C347 1.355 1_655 S
C348 C350 1.419 . S
C349 C344 1.425 1_455 S
C349 C346 1.409 . S
C349 C347 1.415 . S
C350 H340 0.930 . S
C350 C348 1.419 . S
C350 C351 1.362 . S
C351 H341 0.930 . S
C351 C344 1.409 . S
C351 C350 1.362 . S
C167 C58 1.629 . S
C172 C9 1.629 . S
C183 C98 1.615 . S
C188 C129 1.615 . S
C199 C18 1.633 . S
C204 C49 1.633 . S
C215 C138 1.627 . S
C220 C89 1.627 . S
C231 C130 1.748 . S
C236 C10 1.770 . S
C247 C46 1.037 . S
C252 C86 1.056 . S
C263 C59 1.771 . S
C268 C99 1.752 . S
C279 C135 1.067 . S
C284 C15 1.104 . S
C295 C50 1.746 . S
C300 C90 1.772 . S
C311 C126 1.060 . S
C316 C6 1.033 . S
C327 C139 1.775 . S
C332 C19 1.748 . S
C343 C95 1.045 . S
C348 C55 1.048 . S
