# Generated by pormake.
# Topology msp, (4)-cn, num edge types: 1
# Building blocks:
#     Node 0, Type 0, BuildingBlock: ESEHIV_clean_sbu_0, # of connection points: 4
#     Node 1, Type 0, BuildingBlock: ESEHIV_clean_sbu_0, # of connection points: 4
#     Node 2, Type 0, BuildingBlock: ESEHIV_clean_sbu_0, # of connection points: 4
#     Node 3, Type 0, BuildingBlock: ESEHIV_clean_sbu_0, # of connection points: 4
#     Node 4, Type 0, BuildingBlock: ESEHIV_clean_sbu_0, # of connection points: 4
#     Node 5, Type 0, BuildingBlock: ESEHIV_clean_sbu_0, # of connection points: 4
#     Node 6, Type 0, BuildingBlock: ESEHIV_clean_sbu_0, # of connection points: 4
#     Node 7, Type 0, BuildingBlock: ESEHIV_clean_sbu_0, # of connection points: 4
#     Edge 8, Type (0, 0), BuildingBlock: TEMPAE_clean_linker_10, # of connection points: 2
#     Edge 9, Type (0, 0), BuildingBlock: TEMPAE_clean_linker_10, # of connection points: 2
#     Edge 10, Type (0, 0), BuildingBlock: TEMPAE_clean_linker_10, # of connection points: 2
#     Edge 11, Type (0, 0), BuildingBlock: TEMPAE_clean_linker_10, # of connection points: 2
#     Edge 12, Type (0, 0), BuildingBlock: TEMPAE_clean_linker_10, # of connection points: 2
#     Edge 13, Type (0, 0), BuildingBlock: TEMPAE_clean_linker_10, # of connection points: 2
#     Edge 14, Type (0, 0), BuildingBlock: TEMPAE_clean_linker_10, # of connection points: 2
#     Edge 15, Type (0, 0), BuildingBlock: TEMPAE_clean_linker_10, # of connection points: 2
#     Edge 16, Type (0, 0), BuildingBlock: TEMPAE_clean_linker_10, # of connection points: 2
#     Edge 17, Type (0, 0), BuildingBlock: TEMPAE_clean_linker_10, # of connection points: 2
#     Edge 18, Type (0, 0), BuildingBlock: TEMPAE_clean_linker_10, # of connection points: 2
#     Edge 19, Type (0, 0), BuildingBlock: TEMPAE_clean_linker_10, # of connection points: 2
#     Edge 20, Type (0, 0), BuildingBlock: TEMPAE_clean_linker_10, # of connection points: 2
#     Edge 21, Type (0, 0), BuildingBlock: TEMPAE_clean_linker_10, # of connection points: 2
#     Edge 22, Type (0, 0), BuildingBlock: TEMPAE_clean_linker_10, # of connection points: 2
#     Edge 23, Type (0, 0), BuildingBlock: TEMPAE_clean_linker_10, # of connection points: 2
# Relax obj value: 0.063
# Max RMSD: 0.175
# Mean RMSD: 0.157
data_MOF--net-msp--node1-ESEHIV_clean_sbu_0--edge1-TEMPAE_clean_linker_10
_symmetry_space_group_name_H-M    P1
_symmetry_Int_Tables_number       1
_symmetry_cell_setting            triclinic
loop_
_symmetry_equiv_pos_as_xyz
'x, y, z'
_cell_length_a     23.068511
_cell_length_b     22.484768
_cell_length_c     50.150936
_cell_angle_alpha  90.075885
_cell_angle_beta   98.957584
_cell_angle_gamma 89.907774
loop_
_atom_site_label
_atom_site_type_symbol
_atom_site_fract_x
_atom_site_fract_y
_atom_site_fract_z
_atom_type_partial_charge
Cu0 Cu 0.02478 0.29198 0.37345 0.0
N1 N 0.05793 0.23443 0.39812 0.0
N2 N 0.1148 0.19452 0.43374 0.0
C3 C 0.10489 0.2422 0.41737 0.0
C4 C 0.07266 0.15491 0.42434 0.0
C5 C 0.03779 0.17956 0.40226 0.0
O6 O 1.0125 0.36169 0.39498 0.0
C7 C 0.09004 0.25406 0.33517 0.0
O8 O 0.06935 0.20357 0.34287 0.0
H9 H 0.1299 0.28294 0.42007 0.0
H10 H 0.99966 0.15937 0.39046 0.0
N11 N 0.95073 0.26643 0.35704 0.0
N12 N 0.87122 0.24755 0.32664 0.0
C13 C 0.92674 0.26877 0.33076 0.0
C14 C 0.9089 0.24372 0.36994 0.0
C15 C 0.86 0.23171 0.35128 0.0
C16 C 0.05254 0.3946 0.4076 0.0
O17 O 0.10658 0.38905 0.40268 0.0
H18 H 0.94955 0.28553 0.31503 0.0
H19 H 0.91352 0.23704 0.39153 0.0
O20 O 0.07565 0.30208 0.34604 0.0
H21 H 0.06704 0.11163 0.43301 0.0
H22 H 0.81883 0.21409 0.35561 0.0
Cu23 Cu 0.50022 0.29915 0.66289 0.0
N24 N 0.46044 0.24152 0.64033 0.0
N25 N 0.40147 0.20256 0.60518 0.0
C26 C 0.42543 0.25269 0.61683 0.0
C27 C 0.42244 0.15795 0.62194 0.0
C28 C 0.45861 0.18224 0.64376 0.0
O29 O 0.51073 0.36662 0.63957 0.0
C30 C 0.39904 0.31354 0.68823 0.0
O31 O 0.37048 0.30736 0.66361 0.0
H32 H 0.41762 0.29689 0.60848 0.0
H33 H 0.48146 0.15851 0.66102 0.0
N34 N 0.57341 0.26949 0.67866 0.0
N35 N 0.65832 0.25798 0.70654 0.0
C36 C 0.60822 0.28999 0.70086 0.0
C37 C 0.60222 0.22285 0.67013 0.0
C38 C 0.65452 0.2157 0.68721 0.0
C39 C 0.54504 0.35777 0.62232 0.0
O40 O 0.57292 0.30673 0.62277 0.0
H41 H 0.59722 0.32796 0.71238 0.0
H42 H 0.58638 0.19598 0.65262 0.0
O43 O 0.4549 0.31587 0.6918 0.0
H44 H 0.41127 0.11142 0.61897 0.0
H45 H 0.68677 0.18134 0.68572 0.0
Cu46 Cu 0.95254 0.6906 0.63898 0.0
N47 N 0.89092 0.67992 0.65886 0.0
N48 N 0.83063 0.69137 0.68944 0.0
C49 C 0.87952 0.7111 0.68048 0.0
C50 C 0.81071 0.64612 0.67281 0.0
C51 C 0.84777 0.63936 0.65396 0.0
O52 O 0.02483 0.70744 0.66325 0.0
C53 C 0.88794 0.78468 0.60896 0.0
O54 O 0.86075 0.79251 0.62983 0.0
H55 H 0.9066 0.74732 0.68951 0.0
H56 H 0.84329 0.60739 0.63764 0.0
N57 N 0.96418 0.62106 0.62 0.0
N58 N 0.98053 0.56231 0.58577 0.0
C59 C 0.97544 0.6188 0.59443 0.0
C60 C 0.96225 0.56415 0.62797 0.0
C61 C 0.97224 0.52783 0.60693 0.0
C62 C 0.03781 0.7568 0.67509 0.0
O63 O 1.00163 0.80203 0.67013 0.0
H64 H 0.98028 0.6581 0.58257 0.0
H65 H 0.95355 0.5501 0.64758 0.0
O66 O 0.93147 0.74929 0.61082 0.0
H67 H 0.77146 0.62047 0.67385 0.0
H68 H 0.9722 0.47972 0.60713 0.0
Cu69 Cu 0.58388 0.70045 0.39599 0.0
N70 N 0.6452 0.68961 0.37599 0.0
N71 N 0.70522 0.70025 0.3453 0.0
C72 C 0.65679 0.72079 0.35446 0.0
C73 C 0.7246 0.65447 0.36171 0.0
C74 C 0.68764 0.64816 0.3806 0.0
O75 O 0.5117 0.71829 0.37187 0.0
C76 C 0.64979 0.79221 0.42687 0.0
O77 O 0.67777 0.79904 0.40619 0.0
H78 H 0.63007 0.75746 0.34561 0.0
H79 H 0.69155 0.61576 0.39671 0.0
N80 N 0.57184 0.62991 0.41395 0.0
N81 N 0.55872 0.56763 0.44729 0.0
C82 C 0.56866 0.62441 0.44044 0.0
C83 C 0.56368 0.57487 0.40358 0.0
C84 C 0.5556 0.53634 0.42408 0.0
C85 C 0.49843 0.76785 0.36031 0.0
O86 O 0.53433 0.81316 0.36549 0.0
H87 H 0.57264 0.66158 0.45431 0.0
H88 H 0.56375 0.56361 0.38261 0.0
O89 O 0.60535 0.75807 0.42465 0.0
H90 H 0.76333 0.62803 0.36045 0.0
H91 H 0.54889 0.48882 0.42206 0.0
Cu92 Cu 0.53282 0.80223 0.87215 0.0
N93 N 0.57205 0.74488 0.89528 0.0
N94 N 0.63038 0.70532 0.93053 0.0
C95 C 0.61035 0.75581 0.91786 0.0
C96 C 0.60342 0.66062 0.91552 0.0
C97 C 0.56767 0.68522 0.89363 0.0
O98 O 0.51827 0.86948 0.89478 0.0
C99 C 0.63376 0.81349 0.8462 0.0
O100 O 0.66271 0.8051 0.8706 0.0
H101 H 0.62295 0.79993 0.92512 0.0
H102 H 0.54026 0.66133 0.87769 0.0
N103 N 0.45953 0.77239 0.8569 0.0
N104 N 0.37471 0.75842 0.82915 0.0
C105 C 0.42713 0.78673 0.833 0.0
C106 C 0.42667 0.7339 0.86856 0.0
C107 C 0.3746 0.725 0.85151 0.0
C108 C 0.55668 0.90498 0.9068 0.0
O109 O 0.61021 0.90357 0.90092 0.0
H110 H 0.44122 0.81839 0.8191 0.0
H111 H 0.43949 0.71415 0.88825 0.0
O112 O 0.57803 0.81826 0.84304 0.0
H113 H 0.60969 0.61371 0.91988 0.0
H114 H 0.33956 0.69583 0.85533 0.0
Cu115 Cu 1.00383 0.80797 0.16277 0.0
N116 N 0.96607 0.74977 0.13965 0.0
N117 N 0.90917 0.70883 0.10432 0.0
C118 C 0.92727 0.75977 0.11713 0.0
C119 C 0.93789 0.66485 0.11917 0.0
C120 C 0.97274 0.69028 0.14111 0.0
O121 O 0.01722 0.87541 0.14022 0.0
C122 C 0.90241 0.81853 0.18843 0.0
O123 O 0.8738 0.8095 0.16402 0.0
H124 H 0.91306 0.80355 0.10999 0.0
H125 H 1.00124 0.66709 0.1569 0.0
N126 N 0.0777 0.77969 0.17813 0.0
N127 N 0.16274 0.76771 0.20593 0.0
C128 C 0.10942 0.79437 0.20214 0.0
C129 C 0.11192 0.74271 0.16634 0.0
C130 C 0.16415 0.73501 0.18342 0.0
C131 C 0.97824 0.91028 0.12814 0.0
O132 O 0.92459 0.90784 0.13382 0.0
H133 H 0.09422 0.82518 0.21614 0.0
H134 H 0.09996 0.72327 0.14651 0.0
O135 O 0.9581 0.82362 0.19173 0.0
H136 H 0.93349 0.61785 0.11462 0.0
H137 H 0.20022 0.7072 0.17952 0.0
Cu138 Cu 0.44711 0.20216 0.13612 0.0
N139 N 0.38151 0.18952 0.15312 0.0
N140 N 0.31485 0.19807 0.18095 0.0
C141 C 0.36841 0.21484 0.17587 0.0
C142 C 0.29399 0.16051 0.16068 0.0
C143 C 0.33505 0.15544 0.1436 0.0
O144 O 0.51358 0.22636 0.16273 0.0
C145 C 0.38531 0.29658 0.10549 0.0
O146 O 0.35959 0.3069 0.12664 0.0
H147 H 0.39682 0.24623 0.18795 0.0
H148 H 0.33108 0.12935 0.12526 0.0
N149 N 0.46441 0.1325 0.11846 0.0
N150 N 0.48361 0.07304 0.08498 0.0
C151 C 0.4754 0.12957 0.09287 0.0
C152 C 0.46564 0.076 0.12722 0.0
C153 C 0.47755 0.03922 0.10666 0.0
C154 C 0.5663 0.21252 0.16076 0.0
O155 O 0.57706 0.1838 0.13923 0.0
H156 H 0.47746 0.16843 0.08037 0.0
H157 H 0.45741 0.06247 0.14698 0.0
O158 O 0.42708 0.25912 0.10725 0.0
H159 H 0.25211 0.13794 0.15838 0.0
H160 H 0.47998 0.99119 0.10748 0.0
Cu161 Cu 0.08001 0.19899 0.89585 0.0
N162 N 0.14146 0.18689 0.87602 0.0
N163 N 0.20145 0.19649 0.84524 0.0
C164 C 0.15235 0.21655 0.85395 0.0
C165 C 0.22202 0.15254 0.86248 0.0
C166 C 0.18512 0.14691 0.88145 0.0
O167 O 1.00797 0.21628 0.87165 0.0
C168 C 0.14435 0.29427 0.92489 0.0
O169 O 0.17124 0.30084 0.90385 0.0
H170 H 0.1248 0.25198 0.84446 0.0
H171 H 0.19006 0.11619 0.89823 0.0
N172 N 0.06795 0.13018 0.91508 0.0
N173 N 0.0512 0.07244 0.94946 0.0
C174 C 0.05683 0.12866 0.94067 0.0
C175 C 0.0693 0.07308 0.90724 0.0
C176 C 0.05904 0.03736 0.92838 0.0
C177 C 0.99629 0.26524 0.8593 0.0
O178 O 0.03383 0.30939 0.86363 0.0
H179 H 0.05246 0.16828 0.95245 0.0
H180 H 0.07777 0.0585 0.88764 0.0
O181 O 0.10123 0.25863 0.92353 0.0
H182 H 0.26165 0.12711 0.86179 0.0
H183 H 0.05858 0.98925 0.9283 0.0
C184 C 0.9847 0.42673 0.43947 0.0
C185 C 0.04004 0.43006 0.43117 0.0
C186 C 0.97447 0.45235 0.46389 0.0
C187 C 0.02047 0.48266 0.48043 0.0
C188 C 0.07553 0.48887 0.47154 0.0
C189 C 0.08473 0.46233 0.4471 0.0
C190 C 0.91516 0.44447 0.47259 0.0
C191 C 0.12546 0.52161 0.48835 0.0
C192 C 0.97914 0.58045 0.53682 0.0
C193 C 0.99167 0.543 0.55943 0.0
C194 C 0.9893 0.56198 0.51112 0.0
C195 C 1.01195 0.50435 0.50775 0.0
C196 C 0.02499 0.46646 0.53045 0.0
C197 C 1.01494 0.48627 0.55594 0.0
C198 C 0.97503 0.6039 0.48751 0.0
C199 C 0.0491 0.40459 0.52777 0.0
H200 H 0.94975 0.40199 0.42739 0.0
H201 H 0.12759 0.46537 0.4409 0.0
H202 H 0.91976 0.41647 0.49101 0.0
H203 H 0.89737 0.48809 0.47779 0.0
H204 H 0.88292 0.42311 0.45671 0.0
H205 H 0.16358 0.52737 0.47752 0.0
H206 H 0.11065 0.56608 0.49418 0.0
H207 H 0.14021 0.49661 0.50726 0.0
H208 H 0.96042 0.624 0.53902 0.0
H209 H 0.02574 0.45721 0.57318 0.0
H210 H 0.93833 0.5856 0.4729 0.0
H211 H 1.01335 0.60837 0.47676 0.0
H212 H 0.9623 0.64883 0.49383 0.0
H213 H 0.01788 0.37819 0.51336 0.0
H214 H 0.05715 0.38066 0.54737 0.0
H215 H 0.09095 0.40689 0.51951 0.0
C216 C 0.58086 0.57398 0.49722 0.0
C217 C 0.55338 0.54497 0.47379 0.0
C218 C 0.57832 0.55066 0.52304 0.0
C219 C 0.54758 0.49698 0.52556 0.0
C220 C 0.51824 0.46854 0.50206 0.0
C221 C 0.52149 0.49282 0.47655 0.0
C222 C 0.61021 0.58236 0.54756 0.0
C223 C 0.48485 0.41129 0.5038 0.0
C224 C 0.59421 0.3924 0.58431 0.0
C225 C 0.54924 0.39991 0.59992 0.0
C226 C 0.59538 0.42552 0.56073 0.0
C227 C 0.55036 0.46739 0.55238 0.0
C228 C 0.5063 0.47737 0.56871 0.0
C229 C 0.50628 0.44352 0.59236 0.0
C230 C 0.64344 0.41361 0.5441 0.0
C231 C 0.45774 0.52183 0.56057 0.0
H232 H 0.60597 0.61401 0.4954 0.0
H233 H 0.49914 0.47071 0.45868 0.0
H234 H 0.58027 0.58978 0.56254 0.0
H235 H 0.647 0.55429 0.5574 0.0
H236 H 0.62821 0.6259 0.54239 0.0
H237 H 0.46133 0.39677 0.48383 0.0
H238 H 0.5157 0.37551 0.51202 0.0
H239 H 0.45245 0.41662 0.51782 0.0
H240 H 0.62793 0.35919 0.59011 0.0
H241 H 0.4713 0.44948 0.60426 0.0
H242 H 0.66504 0.4558 0.5398 0.0
H243 H 0.62423 0.39386 0.52441 0.0
H244 H 0.67741 0.38271 0.55433 0.0
H245 H 0.47614 0.56509 0.55538 0.0
H246 H 0.43069 0.52912 0.57678 0.0
H247 H 0.42872 0.50563 0.54228 0.0
C248 C 0.47933 0.08867 0.03569 0.0
C249 C 0.49482 0.05308 0.05875 0.0
C250 C 0.48947 0.06955 1.01009 0.0
C251 C 0.51516 0.01312 1.00727 0.0
C252 C 0.53118 0.97708 0.0304 0.0
C253 C 0.52104 -0.00247 0.05579 0.0
C254 C 0.4719 0.10947 0.98599 0.0
C255 C 0.5586 0.91653 0.02831 0.0
C256 C 0.48943 0.93231 0.93971 0.0
C257 C 0.54369 0.93913 0.93065 0.0
C258 C 0.47908 0.95745 0.96421 0.0
C259 C 0.52384 0.99077 0.98007 0.0
C260 C 0.57776 0.0001 0.9705 0.0
C261 C 0.58711 0.97404 0.94598 0.0
C262 C 0.42102 0.94623 0.97365 0.0
C263 C 0.62633 0.03599 0.98661 0.0
H264 H 0.45828 0.13122 0.03747 0.0
H265 H 0.53405 0.96994 0.07337 0.0
H266 H 0.43612 0.08829 0.97182 0.0
H267 H 0.45654 0.15378 0.99181 0.0
H268 H 0.50947 0.11584 0.97491 0.0
H269 H 0.56894 0.89409 0.04821 0.0
H270 H 0.52836 0.88773 1.01457 0.0
H271 H 0.59967 0.92069 0.01953 0.0
H272 H 0.45548 0.90547 0.9281 0.0
H273 H 0.62914 0.97973 0.93921 0.0
H274 H 0.40074 0.98889 0.97845 0.0
H275 H 0.42822 0.91946 0.99245 0.0
H276 H 0.38963 0.92215 0.95833 0.0
H277 H 0.60944 0.07996 0.99194 0.0
H278 H 0.66375 0.04309 0.97545 0.0
H279 H 0.64278 0.01269 1.00579 0.0
C280 C 0.04601 0.93966 0.09589 0.0
C281 C 0.99098 0.94468 0.10439 0.0
C282 C 0.05636 0.9645 0.07138 0.0
C283 C 1.01079 0.99566 0.05495 0.0
C284 C 0.95608 0.0035 0.06401 0.0
C285 C 0.94676 0.97778 0.08857 0.0
C286 C 0.1153 0.95497 0.06249 0.0
C287 C 0.9066 0.03711 0.04728 0.0
C288 C 0.05335 0.09144 0.99838 0.0
C289 C 0.03992 0.05389 0.97583 0.0
C290 C 0.04309 0.07368 0.02413 0.0
C291 C 0.01936 0.01667 0.02759 0.0
C292 C 1.00538 0.97869 1.00495 0.0
C293 C 1.0156 -0.00221 0.97941 0.0
C294 C 0.05843 0.11562 0.0477 0.0
C295 C 0.98011 0.91747 1.00773 0.0
H296 H 0.0806 0.91431 0.10791 0.0
H297 H 0.90414 0.9821 0.09492 0.0
H298 H 0.10987 0.9268 0.04409 0.0
H299 H 0.1339 -0.00195 0.05721 0.0
H300 H 0.14728 0.93304 0.07831 0.0
H301 H 0.86874 0.04389 0.05819 0.0
H302 H 0.92216 0.08114 0.04139 0.0
H303 H 0.89123 0.01217 0.0284 0.0
H304 H 0.07289 0.13449 0.99609 0.0
H305 H 1.00412 0.9687 0.9622 0.0
H306 H 0.09463 0.0965 0.06234 0.0
H307 H 0.02022 0.12147 0.05843 0.0
H308 H 0.07229 0.16001 0.04134 0.0
H309 H 1.01105 0.89049 0.02202 0.0
H310 H 0.97116 0.89349 0.98814 0.0
H311 H 0.93857 0.92089 0.0162 0.0
C312 C 0.60433 0.25766 0.2059 0.0
C313 C 0.61442 0.22382 0.18354 0.0
C314 C 0.64832 0.26481 0.22843 0.0
C315 C 0.70357 0.23699 0.22876 0.0
C316 C 0.71455 0.20413 0.20597 0.0
C317 C 0.66998 0.19819 0.1836 0.0
C318 C 0.63506 0.30073 0.25223 0.0
C319 C 0.77268 0.17342 0.20558 0.0
C320 C 0.83238 0.28624 0.28117 0.0
C321 C 0.83111 0.24382 0.30156 0.0
C322 C 0.79133 0.28457 0.25729 0.0
C323 C 0.74843 0.23903 0.25361 0.0
C324 C 0.74781 0.19541 0.2739 0.0
C325 C 0.78894 0.1985 0.29762 0.0
C326 C 0.79317 0.3321 0.23621 0.0
C327 C 0.70338 0.14562 0.27066 0.0
H328 H 0.56168 0.27789 0.20599 0.0
H329 H 0.67826 0.1719 0.16645 0.0
H330 H 0.63556 0.27123 0.26998 0.0
H331 H 0.66936 0.33502 0.25778 0.0
H332 H 0.59161 0.32306 0.24804 0.0
H333 H 0.77549 0.15251 0.18574 0.0
H334 H 0.80925 0.20557 0.21036 0.0
H335 H 0.77914 0.13839 0.22133 0.0
H336 H 0.86447 0.32168 0.28422 0.0
H337 H 0.78834 0.16509 0.31312 0.0
H338 H 0.75138 0.35749 0.23329 0.0
H339 H 0.79762 0.31144 0.21653 0.0
H340 H 0.83004 0.36368 0.24185 0.0
H341 H 0.65836 0.16429 0.26861 0.0
H342 H 0.70971 0.11442 0.28803 0.0
H343 H 0.70642 0.12014 0.25196 0.0
C344 C 0.76288 0.24799 0.72612 0.0
C345 C 0.70575 0.26601 0.7287 0.0
C346 C 0.80901 0.25225 0.74785 0.0
C347 C 0.79794 0.27517 0.77288 0.0
C348 C 0.74075 0.29496 0.77547 0.0
C349 C 0.69534 0.29019 0.75333 0.0
C350 C 0.8694 0.23095 0.74417 0.0
C351 C 0.72718 0.31959 0.80183 0.0
C352 C 0.90344 0.2225 0.83408 0.0
C353 C 0.94285 0.27029 0.83866 0.0
C354 C 0.8551 0.22438 0.8133 0.0
C355 C 0.84574 0.2753 0.79661 0.0
C356 C 0.88417 0.32451 0.80163 0.0
C357 C 0.93228 0.32143 0.8226 0.0
C358 C 0.81512 0.17099 0.80866 0.0
C359 C 0.87554 0.37966 0.78433 0.0
H360 H 0.77159 0.23037 0.70704 0.0
H361 H 0.65131 0.30378 0.75558 0.0
H362 H 0.9021 0.26678 0.74968 0.0
H363 H 0.88259 0.19284 0.75783 0.0
H364 H 0.8713 0.2167 0.72311 0.0
H365 H 0.68153 0.33668 0.80004 0.0
H366 H 0.73332 0.2843 0.81746 0.0
H367 H 0.75796 0.35614 0.80901 0.0
H368 H 0.91095 0.18286 0.84642 0.0
H369 H 0.96235 0.35863 0.826 0.0
H370 H 0.81821 0.151 0.78869 0.0
H371 H 0.76882 0.18469 0.8084 0.0
H372 H 0.82634 0.13633 0.8244 0.0
H373 H 0.8819 0.36861 0.76341 0.0
H374 H 0.90664 0.41565 0.79204 0.0
H375 H 0.83006 0.3966 0.78332 0.0
C376 C 0.10529 0.81472 0.70994 0.0
C377 C 0.09131 0.76143 0.69579 0.0
C378 C 0.1536 0.81815 0.73081 0.0
C379 C 0.18867 0.76705 0.7378 0.0
C380 C 0.17575 0.71365 0.7231 0.0
C381 C 0.12741 0.71152 0.70229 0.0
C382 C 0.16612 0.87602 0.7459 0.0
C383 C 0.21188 0.65808 0.72991 0.0
C384 C 0.33993 0.77943 0.78073 0.0
C385 C 0.328 0.7632 0.80636 0.0
C386 C 0.29493 0.78212 0.75831 0.0
C387 C 0.23658 0.76807 0.76153 0.0
C388 C 0.22412 0.75269 0.78741 0.0
C389 C 0.26979 0.75064 0.80943 0.0
C390 C 0.31 0.79888 0.73107 0.0
C391 C 0.16253 0.73745 0.79178 0.0
H392 H 0.07788 0.85359 0.70505 0.0
H393 H 0.11721 0.67014 0.69148 0.0
H394 H 0.1594 0.87032 0.76717 0.0
H395 H 0.21259 0.88907 0.74621 0.0
H396 H 0.1374 0.91274 0.7368 0.0
H397 H 0.1981 0.62109 0.71563 0.0
H398 H 0.25899 0.6675 0.72968 0.0
H399 H 0.20764 0.64317 0.7506 0.0
H400 H 0.38466 0.78876 0.77802 0.0
H401 H 0.2597 0.7393 0.82916 0.0
H402 H 0.2821 0.83651 0.72241 0.0
H403 H 0.30088 0.76085 0.71693 0.0
H404 H 0.35681 0.81168 0.73218 0.0
H405 H 0.13231 0.77477 0.78501 0.0
H406 H 0.15989 0.72776 0.81327 0.0
H407 H 0.14666 0.69798 0.77948 0.0
C408 C 0.41002 0.72216 0.33249 0.0
C409 C 0.44491 0.77255 0.33964 0.0
C410 C 0.36179 0.72432 0.31164 0.0
C411 C 0.34768 0.77828 0.29759 0.0
C412 C 0.38144 0.82986 0.30527 0.0
C413 C 0.42975 0.82635 0.32615 0.0
C414 C 0.32713 0.66823 0.30405 0.0
C415 C 0.36751 0.88833 0.29093 0.0
C416 C 0.26779 0.76323 0.2257 0.0
C417 C 0.20913 0.77338 0.22879 0.0
C418 C 0.31323 0.76589 0.2478 0.0
C419 C 0.30002 0.77942 0.27377 0.0
C420 C 0.24118 0.79125 0.27701 0.0
C421 C 0.19644 0.788 0.2545 0.0
C422 C 0.37536 0.75304 0.24342 0.0
C423 C 0.22532 0.80602 0.30434 0.0
H424 H 0.42114 0.68036 0.34278 0.0
H425 H 0.45621 0.86559 0.33157 0.0
H426 H 0.27976 0.67629 0.30429 0.0
H427 H 0.33196 0.65482 0.28321 0.0
H428 H 0.34173 0.63071 0.31788 0.0
H429 H 0.39509 0.92527 0.30061 0.0
H430 H 0.37475 0.88433 0.26964 0.0
H431 H 0.32065 0.89998 0.2906 0.0
H432 H 0.2784 0.7532 0.2059 0.0
H433 H 0.15135 0.79551 0.25721 0.0
H434 H 0.39229 0.71326 0.25523 0.0
H435 H 0.40439 0.79084 0.25075 0.0
H436 H 0.37856 0.74495 0.22184 0.0
H437 H 0.23504 0.76736 0.31804 0.0
H438 H 0.17821 0.81778 0.30322 0.0
H439 H 0.2523 0.84376 0.31354 0.0
C440 C 0.31737 0.23152 0.22826 0.0
C441 C 0.28533 0.21624 0.20306 0.0
C442 C 0.28881 0.2447 0.25043 0.0
C443 C 0.2267 0.24274 0.24732 0.0
C444 C 0.19416 0.22994 0.22162 0.0
C445 C 0.22379 0.21686 0.19989 0.0
C446 C 0.32519 0.25805 0.27746 0.0
C447 C 0.12792 0.22766 0.2173 0.0
C448 C 0.15092 0.19894 0.30633 0.0
C449 C 0.1284 0.25338 0.31393 0.0
C450 C 0.18446 0.19543 0.28535 0.0
C451 C 0.19576 0.24764 0.2713 0.0
C452 C 0.17455 0.30312 0.27926 0.0
C453 C 0.14124 0.3054 0.30057 0.0
C454 C 0.20646 0.13537 0.27774 0.0
C455 C 0.18561 0.35975 0.26476 0.0
H456 H 0.36486 0.23097 0.23096 0.0
H457 H 0.19859 0.2065 0.18038 0.0
H458 H 0.3087 0.29863 0.28642 0.0
H459 H 0.32141 0.22074 0.29154 0.0
H460 H 0.37231 0.26439 0.27592 0.0
H461 H 0.10899 0.22209 0.19568 0.0
H462 H 0.1133 0.18988 0.22881 0.0
H463 H 0.10984 0.26891 0.22498 0.0
H464 H 0.14185 0.1585 0.31667 0.0
H465 H 0.12407 0.34763 0.30631 0.0
H466 H 0.25459 0.13682 0.27792 0.0
H467 H 0.18578 0.12362 0.25693 0.0
H468 H 0.19665 0.09956 0.2916 0.0
H469 H 0.23316 0.36476 0.26399 0.0
H470 H 0.17001 0.39974 0.27459 0.0
H471 H 0.16276 0.35771 0.24361 0.0
C472 C 0.39737 0.31168 0.73824 0.0
C473 C 0.36721 0.3079 0.71173 0.0
C474 C 0.36917 0.29871 0.76048 0.0
C475 C 0.30949 0.28106 0.75614 0.0
C476 C 0.27819 0.27965 0.72952 0.0
C477 C 0.3073 0.29333 0.70768 0.0
C478 C 0.40395 0.3015 0.78856 0.0
C479 C 0.21462 0.26088 0.72396 0.0
C480 C 0.2587 0.17882 0.80829 0.0
C481 C 0.22746 0.21785 0.82266 0.0
C482 C 0.28528 0.19884 0.7866 0.0
C483 C 0.28111 0.25964 0.77916 0.0
C484 C 0.24961 0.29936 0.79357 0.0
C485 C 0.22288 0.27792 0.81505 0.0
C486 C 0.31772 0.15476 0.77157 0.0
C487 C 0.24462 0.36457 0.78646 0.0
H488 H 0.44356 0.32312 0.74163 0.0
H489 H 0.28347 0.2903 0.68733 0.0
H490 H 0.37996 0.32793 0.80204 0.0
H491 H 0.4096 0.25597 0.79709 0.0
H492 H 0.44806 0.3214 0.78876 0.0
H493 H 0.1953 0.26641 0.70239 0.0
H494 H 0.21092 0.21342 0.7295 0.0
H495 H 0.18827 0.2871 0.7365 0.0
H496 H 0.26173 0.13225 0.81383 0.0
H497 H 0.19942 0.30844 0.82627 0.0
H498 H 0.36425 0.16841 0.77278 0.0
H499 H 0.29826 0.15412 0.7499 0.0
H500 H 0.31646 0.10894 0.77972 0.0
H501 H 0.28902 0.38455 0.78834 0.0
H502 H 0.21861 0.38965 0.79961 0.0
H503 H 0.22362 0.37007 0.76515 0.0
C504 C 0.72519 0.79476 0.82622 0.0
C505 C 0.66487 0.80769 0.82245 0.0
C506 C 0.75397 0.78078 0.80429 0.0
C507 C 0.7219 0.78002 0.77782 0.0
C508 C 0.66172 0.79609 0.7737 0.0
C509 C 0.6339 0.80957 0.79604 0.0
C510 C 0.81812 0.76388 0.80964 0.0
C511 C 0.62606 0.79649 0.74578 0.0
C512 C 0.8073 0.77454 0.71846 0.0
C513 C 0.80433 0.71387 0.71177 0.0
C514 C 0.78023 0.79698 0.73969 0.0
C515 C 0.75011 0.75768 0.75484 0.0
C516 C 0.74754 0.69631 0.74832 0.0
C517 C 0.77434 0.6753 0.72683 0.0
C518 C 0.78346 0.86274 0.7458 0.0
C519 C 0.7167 0.65265 0.76416 0.0
H520 H 0.74972 0.79336 0.84648 0.0
H521 H 0.58737 0.81967 0.79284 0.0
H522 H 0.82308 0.71619 0.80472 0.0
H523 H 0.84317 0.7899 0.79652 0.0
H524 H 0.83794 0.77126 0.83103 0.0
H525 H 0.58159 0.81564 0.74564 0.0
H526 H 0.64891 0.82242 0.73174 0.0
H527 H 0.62122 0.75035 0.73789 0.0
H528 H 0.8298 0.80467 0.7067 0.0
H529 H 0.77255 0.62831 0.722 0.0
H530 H 0.80497 0.87021 0.7669 0.0
H531 H 0.73852 0.88157 0.74396 0.0
H532 H 0.80817 0.88745 0.73204 0.0
H533 H 0.73676 0.65375 0.78575 0.0
H534 H 0.71888 0.60635 0.75661 0.0
H535 H 0.66991 0.66537 0.76307 0.0
C536 C 0.81078 0.80038 0.20826 0.0
C537 C 0.87105 0.81336 0.2121 0.0
C538 C 0.78182 0.78707 0.23018 0.0
C539 C 0.81369 0.78701 0.25669 0.0
C540 C 0.8738 0.80314 0.26087 0.0
C541 C 0.90179 0.81599 0.23854 0.0
C542 C 0.71774 0.77011 0.22478 0.0
C543 C 0.90924 0.80421 0.28883 0.0
C544 C 0.72829 0.78285 0.31603 0.0
C545 C 0.73144 0.7223 0.32289 0.0
C546 C 0.75519 0.80481 0.2947 0.0
C547 C 0.78543 0.76517 0.27968 0.0
C548 C 0.78821 0.70394 0.28638 0.0
C549 C 0.76144 0.68338 0.30791 0.0
C550 C 0.75165 0.87044 0.28835 0.0
C551 C 0.81928 0.65995 0.2707 0.0
H552 H 0.78645 0.79843 0.18797 0.0
H553 H 0.94827 0.82616 0.24178 0.0
H554 H 0.71292 0.72251 0.22982 0.0
H555 H 0.6925 0.79637 0.2378 0.0
H556 H 0.69803 0.77711 0.20336 0.0
H557 H 0.95367 0.82333 0.28897 0.0
H558 H 0.88616 0.83051 0.30271 0.0
H559 H 0.91418 0.75826 0.2969 0.0
H560 H 0.70577 0.81326 0.32771 0.0
H561 H 0.76334 0.63646 0.31284 0.0
H562 H 0.73029 0.87742 0.2672 0.0
H563 H 0.79649 0.88936 0.29021 0.0
H564 H 0.72666 0.89542 0.30196 0.0
H565 H 0.79924 0.66056 0.2491 0.0
H566 H 0.81732 0.61381 0.27841 0.0
H567 H 0.86602 0.67272 0.27176 0.0
C568 C 0.31901 0.24352 0.57336 0.0
C569 C 0.36046 0.19833 0.58049 0.0
C570 C 0.27901 0.24053 0.54929 0.0
C571 C 0.28105 0.1915 0.53172 0.0
C572 C 0.32284 0.14572 0.53878 0.0
C573 C 0.36178 0.14947 0.56322 0.0
C574 C 0.23453 0.28984 0.54268 0.0
C575 C 0.3269 0.09323 0.52036 0.0
C576 C 0.14453 0.16088 0.48067 0.0
C577 C 0.15795 0.18999 0.4577 0.0
C578 C 0.18456 0.1602 0.50481 0.0
C579 C 0.23961 0.18862 0.50586 0.0
C580 C 0.25407 0.21654 0.48248 0.0
C581 C 0.21287 0.21723 0.45874 0.0
C582 C 0.16719 0.13079 0.52943 0.0
C583 C 0.31261 0.24666 0.48268 0.0
H584 H 0.31735 0.28089 0.58687 0.0
H585 H 0.39418 0.11483 0.5686 0.0
H586 H 0.24083 0.3118 0.52355 0.0
H587 H 0.18947 0.27119 0.53964 0.0
H588 H 0.23784 0.32409 0.55883 0.0
H589 H 0.36185 0.0614 0.5288 0.0
H590 H 0.28439 0.06929 0.51674 0.0
H591 H 0.33607 0.10896 0.50047 0.0
H592 H 0.10183 0.14048 0.48002 0.0
H593 H 0.22352 0.23919 0.4409 0.0
H594 H 0.16559 0.1645 0.54548 0.0
H595 H 0.20043 0.09712 0.5376 0.0
H596 H 0.12367 0.10876 0.52501 0.0
H597 H 0.31666 0.28488 0.49686 0.0
H598 H 0.31839 0.26316 0.46239 0.0
H599 H 0.34884 0.21532 0.48993 0.0
C600 C 0.81627 0.84839 0.57868 0.0
C601 C 0.85937 0.80378 0.58178 0.0
C602 C 0.78204 0.8593 0.55339 0.0
C603 C 0.78988 0.82342 0.53099 0.0
C604 C 0.83521 0.78027 0.53377 0.0
C605 C 0.86994 0.77169 0.55899 0.0
C606 C 0.73557 0.90713 0.55099 0.0
C607 C 0.84448 0.74011 0.51061 0.0
C608 C 0.6624 0.7829 0.47703 0.0
C609 C 0.67812 0.81087 0.45419 0.0
C610 C 0.69676 0.78922 0.5025 0.0
C611 C 0.74725 0.82585 0.50543 0.0
C612 C 0.76029 0.85852 0.48298 0.0
C613 C 0.72601 0.85003 0.45751 0.0
C614 C 0.68163 0.75263 0.52571 0.0
C615 C 0.81248 0.89966 0.48549 0.0
H616 H 0.80813 0.87358 0.59617 0.0
H617 H 0.90292 0.73691 0.56116 0.0
H618 H 0.73603 0.9337 0.53239 0.0
H619 H 0.69163 0.88632 0.54951 0.0
H620 H 0.7417 0.93752 0.56869 0.0
H621 H 0.80493 0.71218 0.50466 0.0
H622 H 0.85086 0.76693 0.49276 0.0
H623 H 0.883 0.71029 0.51585 0.0
H624 H 0.62544 0.75266 0.47477 0.0
H625 H 0.73813 0.87228 0.44003 0.0
H626 H 0.68171 0.78067 0.5439 0.0
H627 H 0.7153 0.71744 0.53089 0.0
H628 H 0.63802 0.73096 0.52077 0.0
H629 H 0.81548 0.92689 0.50413 0.0
H630 H 0.81028 0.92981 0.46783 0.0
H631 H 0.85336 0.87302 0.48692 0.0
C632 C 0.81829 0.74016 0.07539 0.0
C633 C 0.86799 0.70346 0.07977 0.0
C634 C 0.7787 0.73725 0.05117 0.0
C635 C 0.7899 0.69761 0.03059 0.0
C636 C 0.83993 0.66016 0.03499 0.0
C637 C 0.87805 0.66305 0.05971 0.0
C638 C 0.72524 0.77706 0.04751 0.0
C639 C 0.8541 0.61838 1.01331 0.0
C640 C 0.66386 0.65933 0.97486 0.0
C641 C 0.67187 0.70098 0.95502 0.0
C642 C 0.70216 0.65737 0.99955 0.0
C643 C 0.7503 0.69711 1.00415 0.0
C644 C 0.75951 0.73804 0.98379 0.0
C645 C 0.71978 0.73989 0.95959 0.0
C646 C 0.69012 0.61407 0.02099 0.0
C647 C 0.81096 0.78033 0.98766 0.0
H648 H 0.8103 0.77093 0.09106 0.0
H649 H 0.91685 0.63516 0.06307 0.0
H650 H 0.72767 0.80906 0.03091 0.0
H651 H 0.68495 0.75016 0.04174 0.0
H652 H 0.721 0.80256 0.0661 0.0
H653 H 0.89402 0.59138 0.02013 0.0
H654 H 0.81674 0.5879 1.00697 0.0
H655 H 0.86106 0.64427 0.99525 0.0
H656 H 0.62645 0.62969 0.97137 0.0
H657 H 0.72628 0.7716 0.94408 0.0
H658 H 0.6819 0.63885 0.03919 0.0
H659 H 0.72897 0.58529 0.02717 0.0
H660 H 0.6516 0.58532 1.01403 0.0
H661 H 0.80698 0.81154 1.00443 0.0
H662 H 0.81393 0.80671 0.9692 0.0
H663 H 0.85254 0.75527 0.99329 0.0
C664 C 0.31286 0.35959 0.07527 0.0
C665 C 0.35674 0.31576 0.07833 0.0
C666 C 0.27822 0.36985 0.05003 0.0
C667 C 0.2866 0.33418 0.02764 0.0
C668 C 0.33307 0.29233 0.03032 0.0
C669 C 0.36808 0.28433 0.05549 0.0
C670 C 0.23057 0.41645 0.04772 0.0
C671 C 0.34308 0.25252 1.00714 0.0
C672 C 0.15906 0.28747 0.9751 0.0
C673 C 0.17285 0.31512 0.95181 0.0
C674 C 0.19397 0.296 1.00027 0.0
C675 C 0.24294 0.33458 1.00243 0.0
C676 C 0.25382 0.36695 0.97951 0.0
C677 C 0.21911 0.3562 0.95434 0.0
C678 C 0.18118 0.25974 0.02404 0.0
C679 C 0.30425 0.41014 0.98121 0.0
H680 H 0.3042 0.38444 0.09277 0.0
H681 H 0.40186 0.25035 0.05758 0.0
H682 H 0.22893 0.44208 0.02872 0.0
H683 H 0.18737 0.39453 0.04721 0.0
H684 H 0.23712 0.44784 0.06506 0.0
H685 H 0.30459 0.22295 1.0016 0.0
H686 H 0.34768 0.27949 0.98911 0.0
H687 H 0.38286 0.22433 1.0122 0.0
H688 H 0.12338 0.25572 0.97344 0.0
H689 H 0.22967 0.37821 0.93649 0.0
H690 H 0.13922 0.23489 0.01944 0.0
H691 H 0.17911 0.28883 0.04173 0.0
H692 H 0.21719 0.22726 0.02988 0.0
H693 H 0.30736 0.43759 0.99979 0.0
H694 H 0.29974 0.44007 0.9634 0.0
H695 H 0.34601 0.38515 0.98217 0.0
loop_
_geom_bond_atom_site_label_1
_geom_bond_atom_site_label_2
_geom_bond_distance
_geom_bond_site_symmetry_2
_ccdc_geom_bond_type
Cu0 N1 1.999 . S
Cu0 O6 1.974 1_455 S
Cu0 N11 1.985 1_455 S
Cu0 O20 1.959 . S
N1 Cu0 1.999 . S
N1 C3 1.263 . S
N1 C5 1.389 . S
N2 C3 1.358 . S
N2 C4 1.400 . S
C3 N1 1.263 . S
C3 N2 1.358 . S
C3 H9 0.930 . S
C4 N2 1.400 . S
C4 C5 1.351 . S
C4 H21 0.930 . S
C5 N1 1.389 . S
C5 C4 1.351 . S
C5 H10 0.930 . S
O6 Cu0 1.974 1_655 S
O6 C16 1.282 . S
C7 O8 1.261 . S
C7 O20 1.251 . S
O8 C7 1.261 . S
H9 C3 0.930 . S
H10 C5 0.930 . S
N11 Cu0 1.985 1_655 S
N11 C13 1.335 . S
N11 C14 1.390 . S
N12 C13 1.345 . S
N12 C15 1.336 . S
C13 N11 1.335 . S
C13 N12 1.345 . S
C13 H18 0.930 . S
C14 N11 1.390 . S
C14 C15 1.346 . S
C14 H19 0.930 . S
C15 N12 1.336 . S
C15 C14 1.346 . S
C15 H22 0.929 . S
C16 O6 1.282 . S
C16 O17 1.216 . S
O17 C16 1.216 . S
H18 C13 0.930 . S
H19 C14 0.930 . S
O20 Cu0 1.959 . S
O20 C7 1.251 . S
H21 C4 0.930 . S
H22 C15 0.929 . S
Cu23 N24 1.999 . S
Cu23 O29 1.974 . S
Cu23 N34 1.985 . S
Cu23 O43 1.959 . S
N24 Cu23 1.999 . S
N24 C26 1.263 . S
N24 C28 1.389 . S
N25 C26 1.358 . S
N25 C27 1.400 . S
C26 N24 1.263 . S
C26 N25 1.358 . S
C26 H32 0.930 . S
C27 N25 1.400 . S
C27 C28 1.351 . S
C27 H44 0.930 . S
C28 N24 1.389 . S
C28 C27 1.351 . S
C28 H33 0.930 . S
O29 Cu23 1.974 . S
O29 C39 1.282 . S
C30 O31 1.261 . S
C30 O43 1.251 . S
O31 C30 1.261 . S
H32 C26 0.930 . S
H33 C28 0.930 . S
N34 Cu23 1.985 . S
N34 C36 1.335 . S
N34 C37 1.390 . S
N35 C36 1.345 . S
N35 C38 1.336 . S
C36 N34 1.335 . S
C36 N35 1.345 . S
C36 H41 0.930 . S
C37 N34 1.390 . S
C37 C38 1.346 . S
C37 H42 0.930 . S
C38 N35 1.336 . S
C38 C37 1.346 . S
C38 H45 0.929 . S
C39 O29 1.282 . S
C39 O40 1.216 . S
O40 C39 1.216 . S
H41 C36 0.930 . S
H42 C37 0.930 . S
O43 Cu23 1.959 . S
O43 C30 1.251 . S
H44 C27 0.930 . S
H45 C38 0.929 . S
Cu46 N47 1.999 . S
Cu46 O52 1.974 . S
Cu46 N57 1.985 . S
Cu46 O66 1.959 . S
N47 Cu46 1.999 . S
N47 C49 1.263 . S
N47 C51 1.389 . S
N48 C49 1.358 . S
N48 C50 1.400 . S
C49 N47 1.263 . S
C49 N48 1.358 . S
C49 H55 0.930 . S
C50 N48 1.400 . S
C50 C51 1.351 . S
C50 H67 0.930 . S
C51 N47 1.389 . S
C51 C50 1.351 . S
C51 H56 0.930 . S
O52 Cu46 1.974 . S
O52 C62 1.282 1_655 S
C53 O54 1.261 . S
C53 O66 1.251 . S
O54 C53 1.261 . S
H55 C49 0.930 . S
H56 C51 0.930 . S
N57 Cu46 1.985 . S
N57 C59 1.335 . S
N57 C60 1.390 1_655 S
N58 C59 1.345 . S
N58 C61 1.336 1_655 S
C59 N57 1.335 . S
C59 N58 1.345 . S
C59 H64 0.930 . S
C60 N57 1.390 1_455 S
C60 C61 1.346 . S
C60 H65 0.930 . S
C61 N58 1.336 1_455 S
C61 C60 1.346 . S
C61 H68 0.929 . S
C62 O52 1.282 1_455 S
C62 O63 1.216 . S
O63 C62 1.216 . S
H64 C59 0.930 . S
H65 C60 0.930 . S
O66 Cu46 1.959 . S
O66 C53 1.251 . S
H67 C50 0.930 . S
H68 C61 0.929 . S
Cu69 N70 1.999 . S
Cu69 O75 1.974 . S
Cu69 N80 1.985 . S
Cu69 O89 1.959 . S
N70 Cu69 1.999 . S
N70 C72 1.263 . S
N70 C74 1.389 . S
N71 C72 1.358 . S
N71 C73 1.400 . S
C72 N70 1.263 . S
C72 N71 1.358 . S
C72 H78 0.930 . S
C73 N71 1.400 . S
C73 C74 1.351 . S
C73 H90 0.930 . S
C74 N70 1.389 . S
C74 C73 1.351 . S
C74 H79 0.930 . S
O75 Cu69 1.974 . S
O75 C85 1.282 . S
C76 O77 1.261 . S
C76 O89 1.251 . S
O77 C76 1.261 . S
H78 C72 0.930 . S
H79 C74 0.930 . S
N80 Cu69 1.985 . S
N80 C82 1.335 . S
N80 C83 1.390 . S
N81 C82 1.345 . S
N81 C84 1.336 . S
C82 N80 1.335 . S
C82 N81 1.345 . S
C82 H87 0.930 . S
C83 N80 1.390 . S
C83 C84 1.346 . S
C83 H88 0.930 . S
C84 N81 1.336 . S
C84 C83 1.346 . S
C84 H91 0.929 . S
C85 O75 1.282 . S
C85 O86 1.216 . S
O86 C85 1.216 . S
H87 C82 0.930 . S
H88 C83 0.930 . S
O89 Cu69 1.959 . S
O89 C76 1.251 . S
H90 C73 0.930 . S
H91 C84 0.929 . S
Cu92 N93 1.999 . S
Cu92 O98 1.974 . S
Cu92 N103 1.985 . S
Cu92 O112 1.959 . S
N93 Cu92 1.999 . S
N93 C95 1.263 . S
N93 C97 1.389 . S
N94 C95 1.358 . S
N94 C96 1.400 . S
C95 N93 1.263 . S
C95 N94 1.358 . S
C95 H101 0.930 . S
C96 N94 1.400 . S
C96 C97 1.351 . S
C96 H113 0.930 . S
C97 N93 1.389 . S
C97 C96 1.351 . S
C97 H102 0.930 . S
O98 Cu92 1.974 . S
O98 C108 1.282 . S
C99 O100 1.261 . S
C99 O112 1.251 . S
O100 C99 1.261 . S
H101 C95 0.930 . S
H102 C97 0.930 . S
N103 Cu92 1.985 . S
N103 C105 1.335 . S
N103 C106 1.390 . S
N104 C105 1.345 . S
N104 C107 1.336 . S
C105 N103 1.335 . S
C105 N104 1.345 . S
C105 H110 0.930 . S
C106 N103 1.390 . S
C106 C107 1.346 . S
C106 H111 0.930 . S
C107 N104 1.336 . S
C107 C106 1.346 . S
C107 H114 0.929 . S
C108 O98 1.282 . S
C108 O109 1.216 . S
O109 C108 1.216 . S
H110 C105 0.930 . S
H111 C106 0.930 . S
O112 Cu92 1.959 . S
O112 C99 1.251 . S
H113 C96 0.930 . S
H114 C107 0.929 . S
Cu115 N116 1.999 . S
Cu115 O121 1.974 1_655 S
Cu115 N126 1.985 1_655 S
Cu115 O135 1.959 . S
N116 Cu115 1.999 . S
N116 C118 1.263 . S
N116 C120 1.389 . S
N117 C118 1.358 . S
N117 C119 1.400 . S
C118 N116 1.263 . S
C118 N117 1.358 . S
C118 H124 0.930 . S
C119 N117 1.400 . S
C119 C120 1.351 . S
C119 H136 0.930 . S
C120 N116 1.389 . S
C120 C119 1.351 . S
C120 H125 0.930 . S
O121 Cu115 1.974 1_455 S
O121 C131 1.282 . S
C122 O123 1.261 . S
C122 O135 1.251 . S
O123 C122 1.261 . S
H124 C118 0.930 . S
H125 C120 0.930 . S
N126 Cu115 1.985 1_455 S
N126 C128 1.335 . S
N126 C129 1.390 . S
N127 C128 1.345 . S
N127 C130 1.336 . S
C128 N126 1.335 . S
C128 N127 1.345 . S
C128 H133 0.930 . S
C129 N126 1.390 . S
C129 C130 1.346 . S
C129 H134 0.930 . S
C130 N127 1.336 . S
C130 C129 1.346 . S
C130 H137 0.929 . S
C131 O121 1.282 . S
C131 O132 1.216 . S
O132 C131 1.216 . S
H133 C128 0.930 . S
H134 C129 0.930 . S
O135 Cu115 1.959 . S
O135 C122 1.251 . S
H136 C119 0.930 . S
H137 C130 0.929 . S
Cu138 N139 1.999 . S
Cu138 O144 1.974 . S
Cu138 N149 1.985 . S
Cu138 O158 1.959 . S
N139 Cu138 1.999 . S
N139 C141 1.263 . S
N139 C143 1.389 . S
N140 C141 1.358 . S
N140 C142 1.400 . S
C141 N139 1.263 . S
C141 N140 1.358 . S
C141 H147 0.930 . S
C142 N140 1.400 . S
C142 C143 1.351 . S
C142 H159 0.930 . S
C143 N139 1.389 . S
C143 C142 1.351 . S
C143 H148 0.930 . S
O144 Cu138 1.974 . S
O144 C154 1.282 . S
C145 O146 1.261 . S
C145 O158 1.251 . S
O146 C145 1.261 . S
H147 C141 0.930 . S
H148 C143 0.930 . S
N149 Cu138 1.985 . S
N149 C151 1.335 . S
N149 C152 1.390 . S
N150 C151 1.345 . S
N150 C153 1.336 . S
C151 N149 1.335 . S
C151 N150 1.345 . S
C151 H156 0.930 . S
C152 N149 1.390 . S
C152 C153 1.346 . S
C152 H157 0.930 . S
C153 N150 1.336 . S
C153 C152 1.346 . S
C153 H160 0.929 . S
C154 O144 1.282 . S
C154 O155 1.216 . S
O155 C154 1.216 . S
H156 C151 0.930 . S
H157 C152 0.930 . S
O158 Cu138 1.959 . S
O158 C145 1.251 . S
H159 C142 0.930 . S
H160 C153 0.929 . S
Cu161 N162 1.999 . S
Cu161 O167 1.974 . S
Cu161 N172 1.985 . S
Cu161 O181 1.959 . S
N162 Cu161 1.999 . S
N162 C164 1.263 . S
N162 C166 1.389 . S
N163 C164 1.358 . S
N163 C165 1.400 . S
C164 N162 1.263 . S
C164 N163 1.358 . S
C164 H170 0.930 . S
C165 N163 1.400 . S
C165 C166 1.351 . S
C165 H182 0.930 . S
C166 N162 1.389 . S
C166 C165 1.351 . S
C166 H171 0.930 . S
O167 Cu161 1.974 . S
O167 C177 1.282 1_455 S
C168 O169 1.261 . S
C168 O181 1.251 . S
O169 C168 1.261 . S
H170 C164 0.930 . S
H171 C166 0.930 . S
N172 Cu161 1.985 . S
N172 C174 1.335 . S
N172 C175 1.390 1_455 S
N173 C174 1.345 . S
N173 C176 1.336 1_455 S
C174 N172 1.335 . S
C174 N173 1.345 . S
C174 H179 0.930 . S
C175 N172 1.390 1_655 S
C175 C176 1.346 . S
C175 H180 0.930 . S
C176 N173 1.336 1_655 S
C176 C175 1.346 . S
C176 H183 0.929 . S
C177 O167 1.282 1_655 S
C177 O178 1.216 . S
O178 C177 1.216 . S
H179 C174 0.930 . S
H180 C175 0.930 . S
O181 Cu161 1.959 . S
O181 C168 1.251 . S
H182 C165 0.930 . S
H183 C176 0.929 . S
C184 C185 1.391 . S
C184 C186 1.394 . S
C184 H200 0.931 . S
C185 C184 1.391 . S
C185 C189 1.376 1_655 S
C186 C184 1.394 . S
C186 C187 1.369 . S
C186 C190 1.531 . S
C187 C186 1.369 . S
C187 C188 1.410 1_655 S
C187 C195 1.503 . S
C188 C187 1.410 1_455 S
C188 C189 1.392 . S
C188 C191 1.511 . S
C189 C185 1.376 1_455 S
C189 C188 1.392 . S
C189 H201 0.929 . S
C190 C186 1.531 . S
C190 H202 0.960 . S
C190 H203 0.962 . S
C190 H204 0.960 . S
C191 C188 1.511 . S
C191 H205 0.961 . S
C191 H206 0.961 . S
C191 H207 0.961 . S
C192 C193 1.370 . S
C192 C194 1.363 . S
C192 H208 0.931 . S
C193 C192 1.370 . S
C193 C197 1.408 1_655 S
C194 C192 1.363 . S
C194 C195 1.370 . S
C194 C198 1.524 . S
C195 C187 1.503 . S
C195 C194 1.370 . S
C195 C196 1.403 1_655 S
C196 C195 1.403 1_455 S
C196 C197 1.404 . S
C196 C199 1.539 . S
C197 C193 1.408 1_455 S
C197 C196 1.404 . S
C197 H209 0.930 . S
C198 C194 1.524 . S
C198 H210 0.956 . S
C198 H211 0.961 . S
C198 H212 0.961 . S
C199 C196 1.539 . S
C199 H213 0.958 . S
C199 H214 0.961 . S
C199 H215 0.960 . S
H200 C184 0.931 . S
H201 C189 0.929 . S
H202 C190 0.960 . S
H203 C190 0.962 . S
H204 C190 0.960 . S
H205 C191 0.961 . S
H206 C191 0.961 . S
H207 C191 0.961 . S
H208 C192 0.931 . S
H209 C197 0.930 . S
H210 C198 0.956 . S
H211 C198 0.961 . S
H212 C198 0.961 . S
H213 C199 0.958 . S
H214 C199 0.961 . S
H215 C199 0.960 . S
C216 C217 1.391 . S
C216 C218 1.394 . S
C216 H232 0.931 . S
C217 C216 1.391 . S
C217 C221 1.376 . S
C218 C216 1.394 . S
C218 C219 1.369 . S
C218 C222 1.531 . S
C219 C218 1.369 . S
C219 C220 1.410 . S
C219 C227 1.503 . S
C220 C219 1.410 . S
C220 C221 1.392 . S
C220 C223 1.511 . S
C221 C217 1.376 . S
C221 C220 1.392 . S
C221 H233 0.929 . S
C222 C218 1.531 . S
C222 H234 0.960 . S
C222 H235 0.962 . S
C222 H236 0.960 . S
C223 C220 1.511 . S
C223 H237 0.961 . S
C223 H238 0.961 . S
C223 H239 0.961 . S
C224 C225 1.370 . S
C224 C226 1.363 . S
C224 H240 0.931 . S
C225 C224 1.370 . S
C225 C229 1.408 . S
C226 C224 1.363 . S
C226 C227 1.370 . S
C226 C230 1.524 . S
C227 C219 1.503 . S
C227 C226 1.370 . S
C227 C228 1.403 . S
C228 C227 1.403 . S
C228 C229 1.404 . S
C228 C231 1.539 . S
C229 C225 1.408 . S
C229 C228 1.404 . S
C229 H241 0.930 . S
C230 C226 1.524 . S
C230 H242 0.956 . S
C230 H243 0.961 . S
C230 H244 0.961 . S
C231 C228 1.539 . S
C231 H245 0.958 . S
C231 H246 0.961 . S
C231 H247 0.960 . S
H232 C216 0.931 . S
H233 C221 0.929 . S
H234 C222 0.960 . S
H235 C222 0.962 . S
H236 C222 0.960 . S
H237 C223 0.961 . S
H238 C223 0.961 . S
H239 C223 0.961 . S
H240 C224 0.931 . S
H241 C229 0.930 . S
H242 C230 0.956 . S
H243 C230 0.961 . S
H244 C230 0.961 . S
H245 C231 0.958 . S
H246 C231 0.961 . S
H247 C231 0.960 . S
C248 C249 1.391 . S
C248 C250 1.394 1_554 S
C248 H264 0.931 . S
C249 C248 1.391 . S
C249 C253 1.376 . S
C250 C248 1.394 1_556 S
C250 C251 1.369 . S
C250 C254 1.531 . S
C251 C250 1.369 . S
C251 C252 1.410 1_556 S
C251 C259 1.503 1_545 S
C252 C251 1.410 1_554 S
C252 C253 1.392 . S
C252 C255 1.511 1_545 S
C253 C249 1.376 . S
C253 C252 1.392 . S
C253 H265 0.929 . S
C254 C250 1.531 . S
C254 H266 0.960 . S
C254 H267 0.962 . S
C254 H268 0.960 . S
C255 C252 1.511 1_565 S
C255 H269 0.961 . S
C255 H270 0.978 . S
C255 H271 0.961 . S
C256 C257 1.370 . S
C256 C258 1.363 . S
C256 H272 0.931 . S
C257 C256 1.370 . S
C257 C261 1.408 . S
C258 C256 1.363 . S
C258 C259 1.370 . S
C258 C262 1.524 . S
C259 C251 1.503 1_565 S
C259 C258 1.370 . S
C259 C260 1.403 . S
C260 C259 1.403 . S
C260 C261 1.404 . S
C260 C263 1.539 1_565 S
C261 C257 1.408 . S
C261 C260 1.404 . S
C261 H273 0.930 . S
C262 C258 1.524 . S
C262 H274 0.956 . S
C262 H275 0.961 1_556 S
C262 H276 0.961 . S
C263 C260 1.539 1_545 S
C263 H277 0.958 . S
C263 H278 0.961 . S
C263 H279 0.960 . S
H264 C248 0.931 . S
H265 C253 0.929 . S
H266 C254 0.960 . S
H267 C254 0.962 . S
H268 C254 0.960 . S
H269 C255 0.961 . S
H270 C255 0.978 . S
H271 C255 0.961 . S
H272 C256 0.931 . S
H273 C261 0.930 . S
H274 C262 0.956 . S
H275 C262 0.961 1_554 S
H276 C262 0.961 . S
H277 C263 0.958 . S
H278 C263 0.961 . S
H279 C263 0.960 . S
C280 C281 1.391 . S
C280 C282 1.394 . S
C280 H296 0.931 . S
C281 C280 1.391 . S
C281 C285 1.376 1_455 S
C282 C280 1.394 . S
C282 C283 1.369 . S
C282 C286 1.531 . S
C283 C282 1.369 . S
C283 C284 1.410 1_455 S
C283 C291 1.503 1_565 S
C284 C283 1.410 1_655 S
C284 C285 1.392 . S
C284 C287 1.511 1_565 S
C285 C281 1.376 1_655 S
C285 C284 1.392 . S
C285 H297 0.929 . S
C286 C282 1.531 . S
C286 H298 0.960 1_554 S
C286 H299 0.962 . S
C286 H300 0.960 . S
C287 C284 1.511 1_545 S
C287 H301 0.961 . S
C287 H302 0.961 . S
C287 H303 0.961 . S
C288 C289 1.370 . S
C288 C290 1.363 1_556 S
C288 H304 0.931 . S
C289 C288 1.370 . S
C289 C293 1.408 1_455 S
C290 C288 1.363 1_554 S
C290 C291 1.370 . S
C290 C294 1.524 . S
C291 C283 1.503 1_545 S
C291 C290 1.370 . S
C291 C292 1.403 1_454 S
C292 C291 1.403 1_656 S
C292 C293 1.404 . S
C292 C295 1.539 1_545 S
C293 C289 1.408 1_655 S
C293 C292 1.404 . S
C293 H305 0.930 . S
C294 C290 1.524 . S
C294 H306 0.956 . S
C294 H307 0.961 . S
C294 H308 0.961 . S
C295 C292 1.539 1_565 S
C295 H309 0.958 . S
C295 H310 0.961 . S
C295 H311 0.945 1_556 S
H296 C280 0.931 . S
H297 C285 0.929 . S
H298 C286 0.960 1_556 S
H299 C286 0.962 . S
H300 C286 0.960 . S
H301 C287 0.961 . S
H302 C287 0.961 . S
H303 C287 0.961 . S
H304 C288 0.931 . S
H305 C293 0.930 . S
H306 C294 0.956 . S
H307 C294 0.961 . S
H308 C294 0.961 . S
H309 C295 0.958 . S
H310 C295 0.961 . S
H311 C295 0.945 1_554 S
C312 C313 1.391 . S
C312 C314 1.394 . S
C312 H328 0.931 . S
C313 C312 1.391 . S
C313 C317 1.376 . S
C314 C312 1.394 . S
C314 C315 1.369 . S
C314 C318 1.531 . S
C315 C314 1.369 . S
C315 C316 1.410 . S
C315 C323 1.503 . S
C316 C315 1.410 . S
C316 C317 1.392 . S
C316 C319 1.511 . S
C317 C313 1.376 . S
C317 C316 1.392 . S
C317 H329 0.929 . S
C318 C314 1.531 . S
C318 H330 0.960 . S
C318 H331 0.962 . S
C318 H332 0.960 . S
C319 C316 1.511 . S
C319 H333 0.961 . S
C319 H334 0.961 . S
C319 H335 0.961 . S
C320 C321 1.370 . S
C320 C322 1.363 . S
C320 H336 0.931 . S
C321 C320 1.370 . S
C321 C325 1.408 . S
C322 C320 1.363 . S
C322 C323 1.370 . S
C322 C326 1.524 . S
C323 C315 1.503 . S
C323 C322 1.370 . S
C323 C324 1.403 . S
C324 C323 1.403 . S
C324 C325 1.404 . S
C324 C327 1.539 . S
C325 C321 1.408 . S
C325 C324 1.404 . S
C325 H337 0.930 . S
C326 C322 1.524 . S
C326 H338 0.956 . S
C326 H339 0.961 . S
C326 H340 0.961 . S
C327 C324 1.539 . S
C327 H341 0.958 . S
C327 H342 0.961 . S
C327 H343 0.960 . S
H328 C312 0.931 . S
H329 C317 0.929 . S
H330 C318 0.960 . S
H331 C318 0.962 . S
H332 C318 0.960 . S
H333 C319 0.961 . S
H334 C319 0.961 . S
H335 C319 0.961 . S
H336 C320 0.931 . S
H337 C325 0.930 . S
H338 C326 0.956 . S
H339 C326 0.961 . S
H340 C326 0.961 . S
H341 C327 0.958 . S
H342 C327 0.961 . S
H343 C327 0.960 . S
C344 C345 1.391 . S
C344 C346 1.394 . S
C344 H360 0.931 . S
C345 C344 1.391 . S
C345 C349 1.376 . S
C346 C344 1.394 . S
C346 C347 1.369 . S
C346 C350 1.531 . S
C347 C346 1.369 . S
C347 C348 1.410 . S
C347 C355 1.503 . S
C348 C347 1.410 . S
C348 C349 1.392 . S
C348 C351 1.511 . S
C349 C345 1.376 . S
C349 C348 1.392 . S
C349 H361 0.929 . S
C350 C346 1.531 . S
C350 H362 0.960 . S
C350 H363 0.962 . S
C350 H364 0.960 . S
C351 C348 1.511 . S
C351 H365 0.961 . S
C351 H366 0.961 . S
C351 H367 0.961 . S
C352 C353 1.370 . S
C352 C354 1.363 . S
C352 H368 0.931 . S
C353 C352 1.370 . S
C353 C357 1.408 . S
C354 C352 1.363 . S
C354 C355 1.370 . S
C354 C358 1.524 . S
C355 C347 1.503 . S
C355 C354 1.370 . S
C355 C356 1.403 . S
C356 C355 1.403 . S
C356 C357 1.404 . S
C356 C359 1.539 . S
C357 C353 1.408 . S
C357 C356 1.404 . S
C357 H369 0.930 . S
C358 C354 1.524 . S
C358 H370 0.956 . S
C358 H371 0.961 . S
C358 H372 0.961 . S
C359 C356 1.539 . S
C359 H373 0.958 . S
C359 H374 0.961 . S
C359 H375 0.960 . S
H360 C344 0.931 . S
H361 C349 0.929 . S
H362 C350 0.960 . S
H363 C350 0.962 . S
H364 C350 0.960 . S
H365 C351 0.961 . S
H366 C351 0.961 . S
H367 C351 0.961 . S
H368 C352 0.931 . S
H369 C357 0.930 . S
H370 C358 0.956 . S
H371 C358 0.961 . S
H372 C358 0.961 . S
H373 C359 0.958 . S
H374 C359 0.961 . S
H375 C359 0.960 . S
C376 C377 1.391 . S
C376 C378 1.394 . S
C376 H392 0.931 . S
C377 C376 1.391 . S
C377 C381 1.376 . S
C378 C376 1.394 . S
C378 C379 1.369 . S
C378 C382 1.531 . S
C379 C378 1.369 . S
C379 C380 1.410 . S
C379 C387 1.503 . S
C380 C379 1.410 . S
C380 C381 1.392 . S
C380 C383 1.511 . S
C381 C377 1.376 . S
C381 C380 1.392 . S
C381 H393 0.929 . S
C382 C378 1.531 . S
C382 H394 0.960 . S
C382 H395 0.962 . S
C382 H396 0.960 . S
C383 C380 1.511 . S
C383 H397 0.961 . S
C383 H398 0.961 . S
C383 H399 0.961 . S
C384 C385 1.370 . S
C384 C386 1.363 . S
C384 H400 0.931 . S
C385 C384 1.370 . S
C385 C389 1.408 . S
C386 C384 1.363 . S
C386 C387 1.370 . S
C386 C390 1.524 . S
C387 C379 1.503 . S
C387 C386 1.370 . S
C387 C388 1.403 . S
C388 C387 1.403 . S
C388 C389 1.404 . S
C388 C391 1.539 . S
C389 C385 1.408 . S
C389 C388 1.404 . S
C389 H401 0.930 . S
C390 C386 1.524 . S
C390 H402 0.956 . S
C390 H403 0.961 . S
C390 H404 0.961 . S
C391 C388 1.539 . S
C391 H405 0.958 . S
C391 H406 0.961 . S
C391 H407 0.960 . S
H392 C376 0.931 . S
H393 C381 0.929 . S
H394 C382 0.960 . S
H395 C382 0.962 . S
H396 C382 0.960 . S
H397 C383 0.961 . S
H398 C383 0.961 . S
H399 C383 0.961 . S
H400 C384 0.931 . S
H401 C389 0.930 . S
H402 C390 0.956 . S
H403 C390 0.961 . S
H404 C390 0.961 . S
H405 C391 0.958 . S
H406 C391 0.961 . S
H407 C391 0.960 . S
C408 C409 1.391 . S
C408 C410 1.394 . S
C408 H424 0.931 . S
C409 C408 1.391 . S
C409 C413 1.376 . S
C410 C408 1.394 . S
C410 C411 1.369 . S
C410 C414 1.531 . S
C411 C410 1.369 . S
C411 C412 1.410 . S
C411 C419 1.503 . S
C412 C411 1.410 . S
C412 C413 1.392 . S
C412 C415 1.511 . S
C413 C409 1.376 . S
C413 C412 1.392 . S
C413 H425 0.929 . S
C414 C410 1.531 . S
C414 H426 0.960 . S
C414 H427 0.962 . S
C414 H428 0.960 . S
C415 C412 1.511 . S
C415 H429 0.961 . S
C415 H430 0.961 . S
C415 H431 0.961 . S
C416 C417 1.370 . S
C416 C418 1.363 . S
C416 H432 0.931 . S
C417 C416 1.370 . S
C417 C421 1.408 . S
C418 C416 1.363 . S
C418 C419 1.370 . S
C418 C422 1.524 . S
C419 C411 1.503 . S
C419 C418 1.370 . S
C419 C420 1.403 . S
C420 C419 1.403 . S
C420 C421 1.404 . S
C420 C423 1.539 . S
C421 C417 1.408 . S
C421 C420 1.404 . S
C421 H433 0.930 . S
C422 C418 1.524 . S
C422 H434 0.956 . S
C422 H435 0.961 . S
C422 H436 0.961 . S
C423 C420 1.539 . S
C423 H437 0.958 . S
C423 H438 0.961 . S
C423 H439 0.960 . S
H424 C408 0.931 . S
H425 C413 0.929 . S
H426 C414 0.960 . S
H427 C414 0.962 . S
H428 C414 0.960 . S
H429 C415 0.961 . S
H430 C415 0.961 . S
H431 C415 0.961 . S
H432 C416 0.931 . S
H433 C421 0.930 . S
H434 C422 0.956 . S
H435 C422 0.961 . S
H436 C422 0.961 . S
H437 C423 0.958 . S
H438 C423 0.961 . S
H439 C423 0.960 . S
C440 C441 1.391 . S
C440 C442 1.394 . S
C440 H456 0.931 . S
C441 C440 1.391 . S
C441 C445 1.376 . S
C442 C440 1.394 . S
C442 C443 1.369 . S
C442 C446 1.531 . S
C443 C442 1.369 . S
C443 C444 1.410 . S
C443 C451 1.503 . S
C444 C443 1.410 . S
C444 C445 1.392 . S
C444 C447 1.511 . S
C445 C441 1.376 . S
C445 C444 1.392 . S
C445 H457 0.929 . S
C446 C442 1.531 . S
C446 H458 0.960 . S
C446 H459 0.962 . S
C446 H460 0.960 . S
C447 C444 1.511 . S
C447 H461 0.961 . S
C447 H462 0.961 . S
C447 H463 0.961 . S
C448 C449 1.370 . S
C448 C450 1.363 . S
C448 H464 0.931 . S
C449 C448 1.370 . S
C449 C453 1.408 . S
C450 C448 1.363 . S
C450 C451 1.370 . S
C450 C454 1.524 . S
C451 C443 1.503 . S
C451 C450 1.370 . S
C451 C452 1.403 . S
C452 C451 1.403 . S
C452 C453 1.404 . S
C452 C455 1.539 . S
C453 C449 1.408 . S
C453 C452 1.404 . S
C453 H465 0.930 . S
C454 C450 1.524 . S
C454 H466 0.956 . S
C454 H467 0.961 . S
C454 H468 0.961 . S
C455 C452 1.539 . S
C455 H469 0.958 . S
C455 H470 0.961 . S
C455 H471 0.960 . S
H456 C440 0.931 . S
H457 C445 0.929 . S
H458 C446 0.960 . S
H459 C446 0.962 . S
H460 C446 0.960 . S
H461 C447 0.961 . S
H462 C447 0.961 . S
H463 C447 0.961 . S
H464 C448 0.931 . S
H465 C453 0.930 . S
H466 C454 0.956 . S
H467 C454 0.961 . S
H468 C454 0.961 . S
H469 C455 0.958 . S
H470 C455 0.961 . S
H471 C455 0.960 . S
C472 C473 1.391 . S
C472 C474 1.394 . S
C472 H488 0.931 . S
C473 C472 1.391 . S
C473 C477 1.376 . S
C474 C472 1.394 . S
C474 C475 1.369 . S
C474 C478 1.531 . S
C475 C474 1.369 . S
C475 C476 1.410 . S
C475 C483 1.503 . S
C476 C475 1.410 . S
C476 C477 1.392 . S
C476 C479 1.511 . S
C477 C473 1.376 . S
C477 C476 1.392 . S
C477 H489 0.929 . S
C478 C474 1.531 . S
C478 H490 0.960 . S
C478 H491 0.962 . S
C478 H492 0.960 . S
C479 C476 1.511 . S
C479 H493 0.961 . S
C479 H494 0.961 . S
C479 H495 0.961 . S
C480 C481 1.370 . S
C480 C482 1.363 . S
C480 H496 0.931 . S
C481 C480 1.370 . S
C481 C485 1.408 . S
C482 C480 1.363 . S
C482 C483 1.370 . S
C482 C486 1.524 . S
C483 C475 1.503 . S
C483 C482 1.370 . S
C483 C484 1.403 . S
C484 C483 1.403 . S
C484 C485 1.404 . S
C484 C487 1.539 . S
C485 C481 1.408 . S
C485 C484 1.404 . S
C485 H497 0.930 . S
C486 C482 1.524 . S
C486 H498 0.956 . S
C486 H499 0.961 . S
C486 H500 0.961 . S
C487 C484 1.539 . S
C487 H501 0.958 . S
C487 H502 0.961 . S
C487 H503 0.960 . S
H488 C472 0.931 . S
H489 C477 0.929 . S
H490 C478 0.960 . S
H491 C478 0.962 . S
H492 C478 0.960 . S
H493 C479 0.961 . S
H494 C479 0.961 . S
H495 C479 0.961 . S
H496 C480 0.931 . S
H497 C485 0.930 . S
H498 C486 0.956 . S
H499 C486 0.961 . S
H500 C486 0.961 . S
H501 C487 0.958 . S
H502 C487 0.961 . S
H503 C487 0.960 . S
C504 C505 1.391 . S
C504 C506 1.394 . S
C504 H520 0.931 . S
C505 C504 1.391 . S
C505 C509 1.376 . S
C506 C504 1.394 . S
C506 C507 1.369 . S
C506 C510 1.531 . S
C507 C506 1.369 . S
C507 C508 1.410 . S
C507 C515 1.503 . S
C508 C507 1.410 . S
C508 C509 1.392 . S
C508 C511 1.511 . S
C509 C505 1.376 . S
C509 C508 1.392 . S
C509 H521 0.929 . S
C510 C506 1.531 . S
C510 H522 0.960 . S
C510 H523 0.962 . S
C510 H524 0.960 . S
C511 C508 1.511 . S
C511 H525 0.961 . S
C511 H526 0.961 . S
C511 H527 0.961 . S
C512 C513 1.370 . S
C512 C514 1.363 . S
C512 H528 0.931 . S
C513 C512 1.370 . S
C513 C517 1.408 . S
C514 C512 1.363 . S
C514 C515 1.370 . S
C514 C518 1.524 . S
C515 C507 1.503 . S
C515 C514 1.370 . S
C515 C516 1.403 . S
C516 C515 1.403 . S
C516 C517 1.404 . S
C516 C519 1.539 . S
C517 C513 1.408 . S
C517 C516 1.404 . S
C517 H529 0.930 . S
C518 C514 1.524 . S
C518 H530 0.956 . S
C518 H531 0.961 . S
C518 H532 0.961 . S
C519 C516 1.539 . S
C519 H533 0.958 . S
C519 H534 0.961 . S
C519 H535 0.960 . S
H520 C504 0.931 . S
H521 C509 0.929 . S
H522 C510 0.960 . S
H523 C510 0.962 . S
H524 C510 0.960 . S
H525 C511 0.961 . S
H526 C511 0.961 . S
H527 C511 0.961 . S
H528 C512 0.931 . S
H529 C517 0.930 . S
H530 C518 0.956 . S
H531 C518 0.961 . S
H532 C518 0.961 . S
H533 C519 0.958 . S
H534 C519 0.961 . S
H535 C519 0.960 . S
C536 C537 1.391 . S
C536 C538 1.394 . S
C536 H552 0.931 . S
C537 C536 1.391 . S
C537 C541 1.376 . S
C538 C536 1.394 . S
C538 C539 1.369 . S
C538 C542 1.531 . S
C539 C538 1.369 . S
C539 C540 1.410 . S
C539 C547 1.503 . S
C540 C539 1.410 . S
C540 C541 1.392 . S
C540 C543 1.511 . S
C541 C537 1.376 . S
C541 C540 1.392 . S
C541 H553 0.929 . S
C542 C538 1.531 . S
C542 H554 0.960 . S
C542 H555 0.962 . S
C542 H556 0.960 . S
C543 C540 1.511 . S
C543 H557 0.961 . S
C543 H558 0.961 . S
C543 H559 0.961 . S
C544 C545 1.370 . S
C544 C546 1.363 . S
C544 H560 0.931 . S
C545 C544 1.370 . S
C545 C549 1.408 . S
C546 C544 1.363 . S
C546 C547 1.370 . S
C546 C550 1.524 . S
C547 C539 1.503 . S
C547 C546 1.370 . S
C547 C548 1.403 . S
C548 C547 1.403 . S
C548 C549 1.404 . S
C548 C551 1.539 . S
C549 C545 1.408 . S
C549 C548 1.404 . S
C549 H561 0.930 . S
C550 C546 1.524 . S
C550 H562 0.956 . S
C550 H563 0.961 . S
C550 H564 0.961 . S
C551 C548 1.539 . S
C551 H565 0.958 . S
C551 H566 0.961 . S
C551 H567 0.960 . S
H552 C536 0.931 . S
H553 C541 0.929 . S
H554 C542 0.960 . S
H555 C542 0.962 . S
H556 C542 0.960 . S
H557 C543 0.961 . S
H558 C543 0.961 . S
H559 C543 0.961 . S
H560 C544 0.931 . S
H561 C549 0.930 . S
H562 C550 0.956 . S
H563 C550 0.961 . S
H564 C550 0.961 . S
H565 C551 0.958 . S
H566 C551 0.961 . S
H567 C551 0.960 . S
C568 C569 1.391 . S
C568 C570 1.394 . S
C568 H584 0.931 . S
C569 C568 1.391 . S
C569 C573 1.376 . S
C570 C568 1.394 . S
C570 C571 1.369 . S
C570 C574 1.531 . S
C571 C570 1.369 . S
C571 C572 1.410 . S
C571 C579 1.503 . S
C572 C571 1.410 . S
C572 C573 1.392 . S
C572 C575 1.511 . S
C573 C569 1.376 . S
C573 C572 1.392 . S
C573 H585 0.929 . S
C574 C570 1.531 . S
C574 H586 0.960 . S
C574 H587 0.962 . S
C574 H588 0.960 . S
C575 C572 1.511 . S
C575 H589 0.961 . S
C575 H590 0.961 . S
C575 H591 0.961 . S
C576 C577 1.370 . S
C576 C578 1.363 . S
C576 H592 0.931 . S
C577 C576 1.370 . S
C577 C581 1.408 . S
C578 C576 1.363 . S
C578 C579 1.370 . S
C578 C582 1.524 . S
C579 C571 1.503 . S
C579 C578 1.370 . S
C579 C580 1.403 . S
C580 C579 1.403 . S
C580 C581 1.404 . S
C580 C583 1.539 . S
C581 C577 1.408 . S
C581 C580 1.404 . S
C581 H593 0.930 . S
C582 C578 1.524 . S
C582 H594 0.956 . S
C582 H595 0.961 . S
C582 H596 0.961 . S
C583 C580 1.539 . S
C583 H597 0.958 . S
C583 H598 0.961 . S
C583 H599 0.960 . S
H584 C568 0.931 . S
H585 C573 0.929 . S
H586 C574 0.960 . S
H587 C574 0.962 . S
H588 C574 0.960 . S
H589 C575 0.961 . S
H590 C575 0.961 . S
H591 C575 0.961 . S
H592 C576 0.931 . S
H593 C581 0.930 . S
H594 C582 0.956 . S
H595 C582 0.961 . S
H596 C582 0.961 . S
H597 C583 0.958 . S
H598 C583 0.961 . S
H599 C583 0.960 . S
C600 C601 1.391 . S
C600 C602 1.394 . S
C600 H616 0.931 . S
C601 C600 1.391 . S
C601 C605 1.376 . S
C602 C600 1.394 . S
C602 C603 1.369 . S
C602 C606 1.531 . S
C603 C602 1.369 . S
C603 C604 1.410 . S
C603 C611 1.503 . S
C604 C603 1.410 . S
C604 C605 1.392 . S
C604 C607 1.511 . S
C605 C601 1.376 . S
C605 C604 1.392 . S
C605 H617 0.929 . S
C606 C602 1.531 . S
C606 H618 0.960 . S
C606 H619 0.962 . S
C606 H620 0.960 . S
C607 C604 1.511 . S
C607 H621 0.961 . S
C607 H622 0.961 . S
C607 H623 0.961 . S
C608 C609 1.370 . S
C608 C610 1.363 . S
C608 H624 0.931 . S
C609 C608 1.370 . S
C609 C613 1.408 . S
C610 C608 1.363 . S
C610 C611 1.370 . S
C610 C614 1.524 . S
C611 C603 1.503 . S
C611 C610 1.370 . S
C611 C612 1.403 . S
C612 C611 1.403 . S
C612 C613 1.404 . S
C612 C615 1.539 . S
C613 C609 1.408 . S
C613 C612 1.404 . S
C613 H625 0.930 . S
C614 C610 1.524 . S
C614 H626 0.956 . S
C614 H627 0.961 . S
C614 H628 0.961 . S
C615 C612 1.539 . S
C615 H629 0.958 . S
C615 H630 0.961 . S
C615 H631 0.960 . S
H616 C600 0.931 . S
H617 C605 0.929 . S
H618 C606 0.960 . S
H619 C606 0.962 . S
H620 C606 0.960 . S
H621 C607 0.961 . S
H622 C607 0.961 . S
H623 C607 0.961 . S
H624 C608 0.931 . S
H625 C613 0.930 . S
H626 C614 0.956 . S
H627 C614 0.961 . S
H628 C614 0.961 . S
H629 C615 0.958 . S
H630 C615 0.961 . S
H631 C615 0.960 . S
C632 C633 1.391 . S
C632 C634 1.394 . S
C632 H648 0.931 . S
C633 C632 1.391 . S
C633 C637 1.376 . S
C634 C632 1.394 . S
C634 C635 1.369 . S
C634 C638 1.531 . S
C635 C634 1.369 . S
C635 C636 1.410 . S
C635 C643 1.503 1_554 S
C636 C635 1.410 . S
C636 C637 1.392 . S
C636 C639 1.511 1_554 S
C637 C633 1.376 . S
C637 C636 1.392 . S
C637 H649 0.929 . S
C638 C634 1.531 . S
C638 H650 0.960 . S
C638 H651 0.962 . S
C638 H652 0.960 . S
C639 C636 1.511 1_556 S
C639 H653 0.961 1_556 S
C639 H654 0.961 . S
C639 H655 0.961 . S
C640 C641 1.370 . S
C640 C642 1.363 . S
C640 H656 0.931 . S
C641 C640 1.370 . S
C641 C645 1.408 . S
C642 C640 1.363 . S
C642 C643 1.370 . S
C642 C646 1.524 . S
C643 C635 1.503 1_556 S
C643 C642 1.370 . S
C643 C644 1.403 . S
C644 C643 1.403 . S
C644 C645 1.404 . S
C644 C647 1.539 . S
C645 C641 1.408 . S
C645 C644 1.404 . S
C645 H657 0.930 . S
C646 C642 1.524 . S
C646 H658 0.956 1_556 S
C646 H659 0.961 1_556 S
C646 H660 0.961 . S
C647 C644 1.539 . S
C647 H661 0.958 . S
C647 H662 0.961 . S
C647 H663 0.960 . S
H648 C632 0.931 . S
H649 C637 0.929 . S
H650 C638 0.960 . S
H651 C638 0.962 . S
H652 C638 0.960 . S
H653 C639 0.961 1_554 S
H654 C639 0.961 . S
H655 C639 0.961 . S
H656 C640 0.931 . S
H657 C645 0.930 . S
H658 C646 0.956 1_554 S
H659 C646 0.961 1_554 S
H660 C646 0.961 . S
H661 C647 0.958 . S
H662 C647 0.961 . S
H663 C647 0.960 . S
C664 C665 1.391 . S
C664 C666 1.394 . S
C664 H680 0.931 . S
C665 C664 1.391 . S
C665 C669 1.376 . S
C666 C664 1.394 . S
C666 C667 1.369 . S
C666 C670 1.531 . S
C667 C666 1.369 . S
C667 C668 1.410 . S
C667 C675 1.503 1_554 S
C668 C667 1.410 . S
C668 C669 1.392 . S
C668 C671 1.511 . S
C669 C665 1.376 . S
C669 C668 1.392 . S
C669 H681 0.929 . S
C670 C666 1.531 . S
C670 H682 0.960 . S
C670 H683 0.962 . S
C670 H684 0.960 . S
C671 C668 1.511 . S
C671 H685 0.961 . S
C671 H686 0.961 1_554 S
C671 H687 0.961 1_554 S
C672 C673 1.370 . S
C672 C674 1.363 . S
C672 H688 0.931 . S
C673 C672 1.370 . S
C673 C677 1.408 . S
C674 C672 1.363 . S
C674 C675 1.370 . S
C674 C678 1.493 1_556 S
C675 C667 1.503 1_556 S
C675 C674 1.370 . S
C675 C676 1.403 . S
C676 C675 1.403 . S
C676 C677 1.404 . S
C676 C679 1.539 . S
C677 C673 1.408 . S
C677 C676 1.404 . S
C677 H689 0.930 . S
C678 C674 1.493 1_554 S
C678 H690 0.986 . S
C678 H691 0.974 . S
C678 H692 0.950 1_554 S
C679 C676 1.539 . S
C679 H693 0.958 . S
C679 H694 0.961 . S
C679 H695 0.960 . S
H680 C664 0.931 . S
H681 C669 0.929 . S
H682 C670 0.960 . S
H683 C670 0.962 . S
H684 C670 0.960 . S
H685 C671 0.961 . S
H686 C671 0.961 1_556 S
H687 C671 0.961 1_556 S
H688 C672 0.931 . S
H689 C677 0.930 . S
H690 C678 0.986 . S
H691 C678 0.974 . S
H692 C678 0.950 1_556 S
H693 C679 0.958 . S
H694 C679 0.961 . S
H695 C679 0.960 . S
C185 C16 1.691 . S
C193 N58 1.762 . S
C217 N81 1.777 . S
C225 C39 1.675 . S
C249 N150 1.776 . S
C257 C108 1.673 . S
C281 C131 1.681 . S
C289 N173 1.764 . S
C313 C154 1.864 . S
C321 N12 1.842 . S
C345 N35 1.834 . S
C353 C177 1.853 . S
C377 C62 1.872 . S
C385 N104 1.831 . S
C409 C85 1.852 . S
C417 N127 1.846 . S
C441 N140 1.874 . S
C449 C7 1.976 . S
C473 C30 1.956 . S
C481 N163 1.863 . S
C505 C99 1.974 . S
C513 N48 1.849 . S
C537 C122 1.983 . S
C545 N71 1.843 . S
C569 N25 0.825 . S
C577 N2 0.811 . S
C601 C53 0.530 . S
C609 C76 0.555 . S
C633 N117 0.826 . S
C641 N94 0.811 . S
C665 C145 0.515 . S
C673 C168 0.561 . S
