# Generated by pormake.
# Topology qtz-e, (6)-cn, num edge types: 1
# Building blocks:
#     Node 0, Type 0, BuildingBlock: BETFEN_clean_sbu_0, # of connection points: 6
#     Node 1, Type 0, BuildingBlock: BETFEN_clean_sbu_0, # of connection points: 6
#     Node 2, Type 0, BuildingBlock: BETFEN_clean_sbu_0, # of connection points: 6
#     Node 3, Type 0, BuildingBlock: BETFEN_clean_sbu_0, # of connection points: 6
#     Node 4, Type 0, BuildingBlock: BETFEN_clean_sbu_0, # of connection points: 6
#     Node 5, Type 0, BuildingBlock: BETFEN_clean_sbu_0, # of connection points: 6
#     Edge 6, Type (0, 0), BuildingBlock: UVAHIK_clean_linker_0, # of connection points: 2
#     Edge 7, Type (0, 0), BuildingBlock: UVAHIK_clean_linker_0, # of connection points: 2
#     Edge 8, Type (0, 0), BuildingBlock: UVAHIK_clean_linker_0, # of connection points: 2
#     Edge 9, Type (0, 0), BuildingBlock: UVAHIK_clean_linker_0, # of connection points: 2
#     Edge 10, Type (0, 0), BuildingBlock: UVAHIK_clean_linker_0, # of connection points: 2
#     Edge 11, Type (0, 0), BuildingBlock: UVAHIK_clean_linker_0, # of connection points: 2
#     Edge 12, Type (0, 0), BuildingBlock: UVAHIK_clean_linker_0, # of connection points: 2
#     Edge 13, Type (0, 0), BuildingBlock: UVAHIK_clean_linker_0, # of connection points: 2
#     Edge 14, Type (0, 0), BuildingBlock: UVAHIK_clean_linker_0, # of connection points: 2
#     Edge 15, Type (0, 0), BuildingBlock: UVAHIK_clean_linker_0, # of connection points: 2
#     Edge 16, Type (0, 0), BuildingBlock: UVAHIK_clean_linker_0, # of connection points: 2
#     Edge 17, Type (0, 0), BuildingBlock: UVAHIK_clean_linker_0, # of connection points: 2
#     Edge 18, Type (0, 0), BuildingBlock: UVAHIK_clean_linker_0, # of connection points: 2
#     Edge 19, Type (0, 0), BuildingBlock: UVAHIK_clean_linker_0, # of connection points: 2
#     Edge 20, Type (0, 0), BuildingBlock: UVAHIK_clean_linker_0, # of connection points: 2
#     Edge 21, Type (0, 0), BuildingBlock: UVAHIK_clean_linker_0, # of connection points: 2
#     Edge 22, Type (0, 0), BuildingBlock: UVAHIK_clean_linker_0, # of connection points: 2
#     Edge 23, Type (0, 0), BuildingBlock: UVAHIK_clean_linker_0, # of connection points: 2
# Relax obj value: 0.166
# Max RMSD: 0.199
# Mean RMSD: 0.199
data_MOF--net-qtz-e--node1-BETFEN_clean_sbu_0--edge1-UVAHIK_clean_linker_0
_symmetry_space_group_name_H-M    P1
_symmetry_Int_Tables_number       1
_symmetry_cell_setting            triclinic
loop_
_symmetry_equiv_pos_as_xyz
'x, y, z'
_cell_length_a     32.370604
_cell_length_b     32.284417
_cell_length_c     64.420299
_cell_angle_alpha  89.97967
_cell_angle_beta   89.868634
_cell_angle_gamma 119.93157
loop_
_atom_site_label
_atom_site_type_symbol
_atom_site_fract_x
_atom_site_fract_y
_atom_site_fract_z
_atom_type_partial_charge
Pr0 Pr 0.25011 0.45374 0.0594 0.0
Pr1 Pr 0.18481 0.35421 0.07905 0.0
C2 C 0.32267 0.53048 0.04101 0.0
C3 C 0.33815 0.54301 0.01937 0.0
C4 C 0.37941 0.58615 0.01461 0.0
C5 C 0.3936 0.59836 0.99393 0.0
C6 C 0.36671 0.5675 0.97769 0.0
C7 C 0.32551 0.52402 0.98264 0.0
C8 C 0.31134 0.51195 1.0033 0.0
C9 C 0.15529 0.41712 0.0494 0.0
C10 C 0.23066 0.35509 0.03387 0.0
C11 C 0.11789 0.27627 0.09949 0.0
C12 C 0.09903 0.26622 0.12086 0.0
C13 C 0.07432 0.21909 0.12825 0.0
C14 C 0.05728 0.20952 0.14871 0.0
C15 C 0.06455 0.24699 0.16213 0.0
C16 C 0.08939 0.29421 0.15459 0.0
C17 C 0.10661 0.30369 0.13421 0.0
C18 C 0.28104 0.39888 0.08998 0.0
C19 C 0.20305 0.45339 0.10401 0.0
O20 O 0.32698 0.49537 0.04882 0.0
O21 O 0.28214 0.52795 0.04575 0.0
O22 O 0.17497 0.39178 0.05076 0.0
O23 O 0.18543 0.4624 0.05127 0.0
O24 O 0.1945 0.32826 0.04633 0.0
O25 O 0.25905 0.40107 0.03743 0.0
O26 O 0.1081 0.30425 0.08844 0.0
O27 O 0.16192 0.28588 0.0972 0.0
O28 O 0.25589 0.41818 0.08877 0.0
O29 O 0.25648 0.3536 0.08571 0.0
O30 O 0.24083 0.47843 0.09213 0.0
O31 O 0.17343 0.40743 0.10048 0.0
H32 H 0.40054 0.61044 0.02687 0.0
H33 H 0.42581 0.63181 0.99066 0.0
H34 H 0.30367 0.49974 0.97053 0.0
H35 H 0.27919 0.47854 0.00674 0.0
H36 H 0.06832 0.18969 0.1182 0.0
H37 H 0.03798 0.17274 0.15395 0.0
H38 H 0.09629 0.32398 0.16457 0.0
H39 H 0.12618 0.34034 0.12891 0.0
Pr40 Pr 0.73195 0.197 0.47771 0.0
Pr41 Pr 0.79105 0.15478 0.45972 0.0
C42 C 0.6649 0.20966 0.49665 0.0
C43 C 0.64692 0.20574 0.51809 0.0
C44 C 0.65033 0.24625 0.52778 0.0
C45 C 0.63588 0.24408 0.5484 0.0
C46 C 0.61729 0.20118 0.5597 0.0
C47 C 0.61305 0.16036 0.54989 0.0
C48 C 0.62792 0.16264 0.5293 0.0
C49 C 0.82863 0.25354 0.48441 0.0
C50 C 0.74928 0.11931 0.50588 0.0
C51 C 0.85484 0.13961 0.43913 0.0
C52 C 0.87043 0.14593 0.41729 0.0
C53 C 0.84361 0.15234 0.40185 0.0
C54 C 0.85916 0.16 0.3812 0.0
C55 C 0.90195 0.1615 0.37558 0.0
C56 C 0.92863 0.15494 0.39117 0.0
C57 C 0.913 0.14729 0.41184 0.0
C58 C 0.69361 0.1038 0.45192 0.0
C59 C 0.77316 0.23201 0.43125 0.0
O60 O 0.6554 0.16992 0.48722 0.0
O61 O 0.70819 0.24471 0.49309 0.0
O62 O 0.80661 0.20852 0.48594 0.0
O63 O 0.80058 0.27052 0.48068 0.0
O64 O 0.78497 0.12653 0.49359 0.0
O65 O 0.72148 0.13727 0.50151 0.0
O66 O 0.86664 0.179 0.44931 0.0
O67 O 0.81103 0.10582 0.44281 0.0
O68 O 0.72011 0.14802 0.4504 0.0
O69 O 0.71692 0.08264 0.45764 0.0
O70 O 0.73794 0.2247 0.44386 0.0
O71 O 0.80121 0.21413 0.43537 0.0
H72 H 0.66473 0.27982 0.51945 0.0
H73 H 0.63904 0.27595 0.55549 0.0
H74 H 0.59922 0.12692 0.55827 0.0
H75 H 0.62504 0.1308 0.52231 0.0
H76 H 0.81067 0.15157 0.40577 0.0
H77 H 0.83738 0.16431 0.36963 0.0
H78 H 0.96206 0.15657 0.38747 0.0
H79 H 0.93438 0.14285 0.42359 0.0
Pr80 Pr 0.51794 0.76176 0.72152 0.0
Pr81 Pr 0.6149 0.8231 0.74478 0.0
C82 C 0.43757 0.73293 0.6996 0.0
C83 C 0.4255 0.73886 0.6783 0.0
C84 C 0.38193 0.73665 0.67439 0.0
C85 C 0.37079 0.74433 0.65435 0.0
C86 C 0.40308 0.75419 0.63792 0.0
C87 C 0.4467 0.75617 0.64189 0.0
C88 C 0.45798 0.74886 0.66199 0.0
C89 C 0.57448 0.72 0.72241 0.0
C90 C 0.61189 0.85046 0.69636 0.0
C91 C 0.69384 0.85872 0.76865 0.0
C92 C 0.706 0.84722 0.78902 0.0
C93 C 0.75093 0.87698 0.79771 0.0
C94 C 0.76154 0.8677 0.81764 0.0
C95 C 0.72725 0.82851 0.82925 0.0
C96 C 0.68245 0.79841 0.82025 0.0
C97 C 0.67203 0.80773 0.80034 0.0
C98 C 0.5517 0.85808 0.74462 0.0
C99 C 0.52146 0.73374 0.7696 0.0
O100 O 0.45692 0.77168 0.71092 0.0
O101 O 0.45763 0.70669 0.702 0.0
O102 O 0.59056 0.76444 0.72015 0.0
O103 O 0.5282 0.69576 0.72226 0.0
O104 O 0.64083 0.85362 0.71147 0.0
O105 O 0.56516 0.82229 0.69769 0.0
O106 O 0.68489 0.82782 0.75378 0.0
O107 O 0.66401 0.87487 0.76899 0.0
O108 O 0.54123 0.81559 0.74767 0.0
O109 O 0.59735 0.88573 0.74198 0.0
O110 O 0.49273 0.73388 0.75512 0.0
O111 O 0.56838 0.75936 0.7677 0.0
H112 H 0.35666 0.7293 0.68687 0.0
H113 H 0.33675 0.74219 0.65167 0.0
H114 H 0.47241 0.76422 0.62955 0.0
H115 H 0.49216 0.75143 0.66482 0.0
H116 H 0.77761 0.9077 0.78919 0.0
H117 H 0.79661 0.89123 0.82395 0.0
H118 H 0.65491 0.76833 0.82878 0.0
H119 H 0.63713 0.78462 0.79392 0.0
Pr120 Pr 0.80125 0.55014 0.14832 0.0
Pr121 Pr 0.84031 0.648 0.12541 0.0
C122 C 0.77963 0.46511 0.1649 0.0
C123 C 0.7754 0.44584 0.18593 0.0
C124 C 0.77432 0.47158 0.20327 0.0
C125 C 0.77376 0.4547 0.22332 0.0
C126 C 0.77463 0.41197 0.22636 0.0
C127 C 0.77514 0.38608 0.20888 0.0
C128 C 0.77552 0.40291 0.18884 0.0
C129 C 0.75039 0.59765 0.15601 0.0
C130 C 0.87224 0.64913 0.17305 0.0
C131 C 0.85354 0.72295 0.10207 0.0
C132 C 0.83902 0.72925 0.08116 0.0
C133 C 0.83515 0.69866 0.06486 0.0
C134 C 0.82317 0.70587 0.04489 0.0
C135 C 0.81459 0.74374 0.04078 0.0
C136 C 0.81764 0.77376 0.05728 0.0
C137 C 0.82979 0.76657 0.07728 0.0
C138 C 0.90063 0.60932 0.12569 0.0
C139 C 0.77085 0.54793 0.09902 0.0
O140 O 0.82283 0.49725 0.15928 0.0
O141 O 0.74717 0.47585 0.15934 0.0
O142 O 0.76734 0.5947 0.13885 0.0
O143 O 0.75938 0.57469 0.17024 0.0
O144 O 0.85883 0.67179 0.16003 0.0
O145 O 0.86251 0.60485 0.16955 0.0
O146 O 0.81998 0.70349 0.11616 0.0
O147 O 0.88379 0.70731 0.10276 0.0
O148 O 0.85641 0.58682 0.12293 0.0
O149 O 0.9163 0.65492 0.12718 0.0
O150 O 0.76934 0.52227 0.11531 0.0
O151 O 0.794 0.59515 0.09926 0.0
H152 H 0.77482 0.50516 0.20128 0.0
H153 H 0.77396 0.47576 0.23644 0.0
H154 H 0.77527 0.35279 0.2107 0.0
H155 H 0.77662 0.38277 0.17561 0.0
H156 H 0.84212 0.66956 0.06747 0.0
H157 H 0.82178 0.68238 0.03257 0.0
H158 H 0.81054 0.80279 0.05478 0.0
H159 H 0.83233 0.79039 0.08968 0.0
Pr160 Pr 0.18925 0.74736 0.39075 0.0
Pr161 Pr 0.1435 0.80057 0.41391 0.0
C162 C 0.20287 0.68351 0.36939 0.0
C163 C 0.19908 0.66668 0.34782 0.0
C164 C 0.23761 0.66474 0.33889 0.0
C165 C 0.23521 0.64953 0.3184 0.0
C166 C 0.19406 0.63573 0.30645 0.0
C167 C 0.15533 0.63744 0.31546 0.0
C168 C 0.15785 0.65292 0.33593 0.0
C169 C 0.24328 0.84587 0.38793 0.0
C170 C 0.1101 0.76869 0.36608 0.0
C171 C 0.12457 0.85819 0.43747 0.0
C172 C 0.13674 0.87844 0.45863 0.0
C173 C 0.10021 0.87262 0.47217 0.0
C174 C 0.11062 0.88981 0.49253 0.0
C175 C 0.1579 0.91348 0.49972 0.0
C176 C 0.19454 0.91961 0.48609 0.0
C177 C 0.18407 0.90207 0.46578 0.0
C178 C 0.09506 0.70111 0.41727 0.0
C179 C 0.22455 0.78163 0.43814 0.0
O180 O 0.16307 0.67238 0.37912 0.0
O181 O 0.23727 0.72697 0.37324 0.0
O182 O 0.19816 0.82255 0.38754 0.0
O183 O 0.26142 0.81795 0.38777 0.0
O184 O 0.11244 0.79794 0.38096 0.0
O185 O 0.13176 0.74328 0.36755 0.0
O186 O 0.1589 0.87433 0.42369 0.0
O187 O 0.09594 0.81203 0.43627 0.0
O188 O 0.13931 0.72825 0.41834 0.0
O189 O 0.07328 0.72561 0.41571 0.0
O190 O 0.21914 0.74992 0.42387 0.0
O191 O 0.20376 0.80784 0.43653 0.0
H192 H 0.26967 0.67505 0.34779 0.0
H193 H 0.26539 0.64802 0.31199 0.0
H194 H 0.12334 0.62745 0.30657 0.0
H195 H 0.12763 0.65423 0.34242 0.0
H196 H 0.06346 0.85444 0.46703 0.0
H197 H 0.08167 0.88494 0.5026 0.0
H198 H 0.23125 0.93719 0.49125 0.0
H199 H 0.213 0.90667 0.45581 0.0
Pr200 Pr 0.46434 0.2329 0.81687 0.0
Pr201 Pr 0.36661 0.19997 0.79488 0.0
C202 C 0.54653 0.2831 0.8378 0.0
C203 C 0.56199 0.29896 0.85911 0.0
C204 C 0.60759 0.33789 0.86255 0.0
C205 C 0.62208 0.35532 0.88262 0.0
C206 C 0.59111 0.33405 0.89958 0.0
C207 C 0.54554 0.29451 0.89609 0.0
C208 C 0.53101 0.27719 0.87596 0.0
C209 C 0.40769 0.13503 0.81419 0.0
C210 C 0.37062 0.22256 0.84445 0.0
C211 C 0.28836 0.15776 0.77074 0.0
C212 C 0.27661 0.13583 0.74978 0.0
C213 C 0.27147 0.16097 0.73311 0.0
C214 C 0.26227 0.14178 0.71309 0.0
C215 C 0.25752 0.09674 0.70928 0.0
C216 C 0.26174 0.07112 0.72601 0.0
C217 C 0.27122 0.09044 0.74605 0.0
C218 C 0.42988 0.29808 0.7964 0.0
C219 C 0.45811 0.20588 0.76795 0.0
O220 O 0.52483 0.30293 0.82852 0.0
O221 O 0.52696 0.2372 0.83422 0.0
O222 O 0.39179 0.16304 0.81783 0.0
O223 O 0.45398 0.15687 0.81378 0.0
O224 O 0.34151 0.20174 0.82866 0.0
O225 O 0.41718 0.23968 0.843 0.0
O226 O 0.29694 0.13502 0.78542 0.0
O227 O 0.31683 0.20405 0.77143 0.0
O228 O 0.44022 0.26635 0.79229 0.0
O229 O 0.38426 0.27981 0.79931 0.0
O230 O 0.4876 0.23332 0.78257 0.0
O231 O 0.41135 0.18443 0.77037 0.0
H232 H 0.63183 0.35514 0.84968 0.0
H233 H 0.65759 0.38545 0.88487 0.0
H234 H 0.52078 0.27772 0.90883 0.0
H235 H 0.49547 0.24728 0.8735 0.0
H236 H 0.2749 0.19577 0.73552 0.0
H237 H 0.25846 0.16208 0.70059 0.0
H238 H 0.25856 0.03645 0.72356 0.0
H239 H 0.27468 0.06991 0.75852 0.0
C240 C 0.15084 0.57883 0.27726 0.0
C241 C 0.19175 0.61952 0.2847 0.0
C242 C 0.14968 0.56246 0.25704 0.0
C243 C 0.23057 0.56935 0.21486 0.0
H244 H 0.11667 0.51667 0.18094 0.0
C245 C 0.2339 0.52055 0.12954 0.0
C246 C 0.19713 0.47562 0.12304 0.0
C247 C 0.23092 0.53958 0.14856 0.0
C248 C 0.14862 0.531 0.19031 0.0
H249 H 0.2627 0.6761 0.2765 0.0
H250 H 0.26055 0.64801 0.24122 0.0
H251 H 0.11602 0.54739 0.21557 0.0
H252 H 0.12709 0.41671 0.13095 0.0
H253 H 0.12212 0.44985 0.16433 0.0
H254 H 0.2632 0.55306 0.18969 0.0
C255 C 0.22976 0.62796 0.25113 0.0
C256 C 0.14825 0.54852 0.21015 0.0
C257 C 0.231 0.64413 0.27134 0.0
C258 C 0.15631 0.45112 0.13561 0.0
C259 C 0.15328 0.47028 0.15466 0.0
C260 C 0.23098 0.55208 0.19506 0.0
C261 C 0.18934 0.58656 0.2438 0.0
C262 C 0.18931 0.56801 0.22265 0.0
C263 C 0.19103 0.51426 0.16153 0.0
C264 C 0.19009 0.53281 0.18252 0.0
H265 H 0.1202 0.55887 0.28726 0.0
H266 H 0.11819 0.53017 0.252 0.0
H267 H 0.26249 0.58307 0.22421 0.0
H268 H 0.26577 0.54055 0.12023 0.0
H269 H 0.26021 0.57395 0.15326 0.0
C270 C 0.44753 0.16653 0.73333 0.0
C271 C 0.47739 0.20118 0.74779 0.0
C272 C 0.46475 0.16423 0.7137 0.0
C273 C 0.55516 0.23978 0.67565 0.0
H274 H 0.52621 0.12002 0.64963 0.0
C275 C 0.63259 0.23556 0.59559 0.0
C276 C 0.60291 0.1993 0.58173 0.0
C277 C 0.61892 0.23434 0.61627 0.0
C278 C 0.53414 0.15374 0.65656 0.0
H279 H 0.54907 0.25982 0.75312 0.0
H280 H 0.57899 0.25593 0.71877 0.0
H281 H 0.49941 0.11996 0.6851 0.0
H282 H 0.53562 0.13334 0.57863 0.0
H283 H 0.51109 0.13167 0.61461 0.0
H284 H 0.58868 0.27361 0.64709 0.0
C285 C 0.54221 0.23071 0.72264 0.0
C286 C 0.51893 0.15367 0.67691 0.0
C287 C 0.52514 0.23272 0.74236 0.0
C288 C 0.55941 0.16156 0.58902 0.0
C289 C 0.54548 0.16055 0.60968 0.0
C290 C 0.56998 0.23984 0.65527 0.0
C291 C 0.51206 0.1968 0.70803 0.0
C292 C 0.52928 0.1967 0.68666 0.0
C293 C 0.57498 0.19706 0.62356 0.0
C294 C 0.55966 0.19683 0.64542 0.0
H295 H 0.41059 0.14154 0.73705 0.0
H296 H 0.44059 0.13791 0.70272 0.0
H297 H 0.56299 0.27343 0.68264 0.0
H298 H 0.66669 0.2647 0.59048 0.0
H299 H 0.64304 0.26253 0.62657 0.0
C300 C 0.37765 0.5467 0.94123 0.0
C301 C 0.38102 0.58092 0.95567 0.0
C302 C 0.39036 0.55925 0.92046 0.0
C303 C 0.40739 0.65047 0.88141 0.0
H304 H 0.48036 0.60354 0.85192 0.0
C305 C 0.45366 0.69224 0.79474 0.0
C306 C 0.50111 0.70735 0.78921 0.0
C307 C 0.43603 0.67184 0.81422 0.0
C308 C 0.46008 0.61703 0.85995 0.0
H309 H 0.40008 0.6551 0.95951 0.0
H310 H 0.42314 0.6772 0.92342 0.0
H311 H 0.45664 0.57942 0.88788 0.0
H312 H 0.56626 0.70991 0.79926 0.0
H313 H 0.53594 0.67538 0.83332 0.0
H314 H 0.41202 0.68923 0.85376 0.0
C315 C 0.41018 0.64051 0.9281 0.0
C316 C 0.44608 0.60284 0.8805 0.0
C317 C 0.39754 0.62799 0.94886 0.0
C318 C 0.52984 0.69956 0.80318 0.0
C319 C 0.51224 0.67918 0.82265 0.0
C320 C 0.42133 0.66461 0.86089 0.0
C321 C 0.40663 0.60628 0.91363 0.0
C322 C 0.41997 0.61978 0.89153 0.0
C323 C 0.46541 0.66595 0.82856 0.0
C324 C 0.44819 0.6484 0.84996 0.0
H325 H 0.36548 0.51023 0.94602 0.0
H326 H 0.38686 0.53194 0.90968 0.0
H327 H 0.38675 0.66367 0.88937 0.0
H328 H 0.4305 0.69751 0.78429 0.0
H329 H 0.39952 0.66125 0.81815 0.0
C330 C 0.74867 0.27499 0.40606 0.0
C331 C 0.77848 0.25641 0.41112 0.0
C332 C 0.75117 0.29467 0.38645 0.0
C333 C 0.78683 0.28985 0.33267 0.0
H334 H 0.77726 0.404 0.3254 0.0
C335 C 0.80676 0.37717 0.25228 0.0
C336 C 0.77617 0.39508 0.24766 0.0
C337 C 0.80872 0.3618 0.27235 0.0
C338 C 0.77942 0.37177 0.32715 0.0
H339 H 0.83533 0.24526 0.39965 0.0
H340 H 0.83962 0.2796 0.36548 0.0
H341 H 0.7787 0.37552 0.36033 0.0
H342 H 0.72319 0.41031 0.26047 0.0
H343 H 0.72619 0.38302 0.29545 0.0
H344 H 0.78689 0.28559 0.29954 0.0
C345 C 0.81396 0.27848 0.37663 0.0
C346 C 0.78036 0.35553 0.34717 0.0
C347 C 0.81167 0.25904 0.39628 0.0
C348 C 0.74755 0.39723 0.26359 0.0
C349 C 0.74938 0.38169 0.28365 0.0
C350 C 0.78571 0.30596 0.31265 0.0
C351 C 0.78338 0.29605 0.37141 0.0
C352 C 0.78393 0.3143 0.35016 0.0
C353 C 0.78002 0.36381 0.28829 0.0
C354 C 0.78185 0.34705 0.30963 0.0
H355 H 0.72269 0.27353 0.4171 0.0
H356 H 0.72682 0.30751 0.38285 0.0
H357 H 0.78884 0.25753 0.33444 0.0
H358 H 0.82986 0.37579 0.24044 0.0
H359 H 0.83331 0.34899 0.27543 0.0
C360 C 0.39789 0.73963 0.59956 0.0
C361 C 0.39113 0.76245 0.61672 0.0
C362 C 0.3845 0.74578 0.5797 0.0
C363 C 0.30504 0.78088 0.55362 0.0
H364 H 0.37721 0.78674 0.50446 0.0
C365 C 0.25495 0.81735 0.47309 0.0
C366 C 0.25139 0.78568 0.45729 0.0
C367 C 0.27651 0.81838 0.49195 0.0
C368 C 0.35666 0.78493 0.51807 0.0
H369 H 0.36711 0.81116 0.6265 0.0
H370 H 0.34457 0.82268 0.59183 0.0
H371 H 0.40671 0.78177 0.53875 0.0
H372 H 0.26969 0.73185 0.44859 0.0
H373 H 0.30743 0.73378 0.48163 0.0
H374 H 0.2551 0.78413 0.533 0.0
C375 C 0.35895 0.79899 0.59373 0.0
C376 C 0.37342 0.78196 0.53769 0.0
C377 C 0.37194 0.79251 0.61358 0.0
C378 C 0.27167 0.75652 0.46046 0.0
C379 C 0.29349 0.75776 0.47934 0.0
C380 C 0.28853 0.78419 0.53407 0.0
C381 C 0.36443 0.77518 0.57658 0.0
C382 C 0.34768 0.77972 0.5557 0.0
C383 C 0.29522 0.78802 0.4954 0.0
C384 C 0.31404 0.7861 0.5161 0.0
H385 H 0.41227 0.71595 0.60159 0.0
H386 H 0.38864 0.72641 0.5669 0.0
H387 H 0.28375 0.77817 0.56709 0.0
H388 H 0.24015 0.84068 0.47113 0.0
H389 H 0.27801 0.84259 0.50395 0.0
C390 C 0.74946 0.55034 0.06194 0.0
C391 C 0.74771 0.52344 0.07943 0.0
C392 C 0.73033 0.52795 0.04306 0.0
C393 C 0.64625 0.41315 0.01901 0.0
H394 H 0.7236 0.47078 0.96992 0.0
C395 C 0.59758 0.32358 0.93786 0.0
C396 C 0.60621 0.35386 0.92074 0.0
C397 C 0.61336 0.34271 0.95765 0.0
C398 C 0.70126 0.45453 0.98342 0.0
H399 H 0.72305 0.45159 0.09091 0.0
H400 H 0.68947 0.41243 0.05778 0.0
H401 H 0.75316 0.50688 1.00373 0.0
H402 H 0.6363 0.42769 0.91104 0.0
H403 H 0.66335 0.46101 0.9455 0.0
H404 H 0.5941 0.36099 0.99859 0.0
C405 C 0.7057 0.45092 0.0588 0.0
C406 C 0.71826 0.47519 1.0028 0.0
C407 C 0.7251 0.4734 0.07773 0.0
C408 C 0.62998 0.40351 0.92387 0.0
C409 C 0.64553 0.42258 0.94362 0.0
C410 C 0.62908 0.39253 0.99955 0.0
C411 C 0.70878 0.47809 0.0412 0.0
C412 C 0.69082 0.45498 0.02078 0.0
C413 C 0.6379 0.39247 0.96071 0.0
C414 C 0.65628 0.41325 0.98152 0.0
H415 H 0.76609 0.58887 0.06269 0.0
H416 H 0.73248 0.54975 0.02986 0.0
H417 H 0.6242 0.39701 0.0326 0.0
H418 H 0.57964 0.28517 0.93587 0.0
H419 H 0.60732 0.31856 0.97046 0.0
C420 C 0.34596 0.4685 0.10821 0.0
C421 C 0.32929 0.42368 0.09879 0.0
C422 C 0.39139 0.4928 0.11679 0.0
C423 C 0.47866 0.52033 0.1441 0.0
H424 H 0.58435 0.538 0.10946 0.0
C425 C 0.67007 0.57377 0.17051 0.0
C426 C 0.70681 0.60112 0.15635 0.0
C427 C 0.62323 0.56203 0.16603 0.0
C428 C 0.55521 0.53385 0.11922 0.0
H429 H 0.34673 0.36903 0.09086 0.0
H430 H 0.42739 0.41241 0.10556 0.0
H431 H 0.50323 0.49253 0.09623 0.0
H432 H 0.72512 0.64377 0.12828 0.0
H433 H 0.64356 0.62372 0.12062 0.0
H434 H 0.53096 0.56094 0.16728 0.0
C435 C 0.40482 0.4283 0.10639 0.0
C436 C 0.50885 0.50728 0.11175 0.0
C437 C 0.35888 0.40352 0.09804 0.0
C438 C 0.69727 0.62213 0.1393 0.0
C439 C 0.65062 0.61041 0.13484 0.0
C440 C 0.52516 0.54641 0.15172 0.0
C441 C 0.42131 0.4731 0.11585 0.0
C442 C 0.4702 0.50024 0.12411 0.0
C443 C 0.61295 0.57772 0.14742 0.0
C444 C 0.56381 0.55352 0.13928 0.0
H445 H 0.32381 0.48485 0.10906 0.0
H446 H 0.4035 0.52748 0.1238 0.0
H447 H 0.44925 0.51522 0.15391 0.0
H448 H 0.67653 0.55731 0.18383 0.0
H449 H 0.59473 0.53694 0.17603 0.0
C450 C 0.06759 0.6146 0.41473 0.0
C451 C 0.07297 0.65346 0.42646 0.0
C452 C 0.05314 0.57063 0.42433 0.0
C453 C 0.99349 0.50237 0.47169 0.0
H454 H 0.03953 0.41892 0.45222 0.0
C455 C 0.90098 0.31575 0.50122 0.0
C456 C 0.88026 0.28464 0.48443 0.0
C457 C 0.94191 0.36008 0.4982 0.0
C458 C 0.02685 0.44211 0.45799 0.0
H459 H 0.06939 0.67844 0.45717 0.0
H460 H 0.04468 0.60193 0.47415 0.0
H461 H 0.07376 0.49983 0.43809 0.0
H462 H 0.88821 0.27232 0.45207 0.0
H463 H 0.95923 0.34948 0.44664 0.0
H464 H 0.94558 0.44469 0.491 0.0
C465 C 0.05014 0.60454 0.4575 0.0
C466 C 0.04603 0.48821 0.44976 0.0
C467 C 0.06402 0.64823 0.44784 0.0
C468 C 0.90421 0.29544 0.46533 0.0
C469 C 0.9449 0.33991 0.46223 0.0
C470 C 0.97466 0.45664 0.47998 0.0
C471 C 0.04467 0.56521 0.44589 0.0
C472 C 0.02852 0.51833 0.4561 0.0
C473 C 0.96175 0.37404 0.47823 0.0
C474 C 0.99011 0.42546 0.47283 0.0
H475 H 0.0751 0.61843 0.39823 0.0
H476 H 0.04843 0.54089 0.41486 0.0
H477 H 0.97862 0.5242 0.47675 0.0
H478 H 0.88258 0.3082 0.51601 0.0
H479 H 0.95476 0.38538 0.51091 0.0
C480 C 0.35612 0.07262 0.78903 0.0
C481 C 0.37935 0.08474 0.80826 0.0
C482 C 0.34725 0.03054 0.77904 0.0
C483 C 0.36396 0.92435 0.7841 0.0
H484 H 0.4378 0.97502 0.73356 0.0
C485 C 0.46824 0.84043 0.74972 0.0
C486 C 0.51628 0.87393 0.74567 0.0
C487 C 0.4348 0.85523 0.75239 0.0
C488 C 0.41679 0.96007 0.74752 0.0
H489 H 0.40664 0.06082 0.8333 0.0
H490 H 0.39066 0.98731 0.8163 0.0
H491 H 0.39976 0.01584 0.74937 0.0
H492 H 0.56682 0.94878 0.7404 0.0
H493 H 0.50877 0.9751 0.74566 0.0
H494 H 0.38476 0.87118 0.7833 0.0
C495 C 0.37887 0.00956 0.80874 0.0
C496 C 0.39424 0.98299 0.75643 0.0
C497 C 0.38812 0.05175 0.81855 0.0
C498 C 0.53002 0.92231 0.74354 0.0
C499 C 0.49659 0.93721 0.74634 0.0
C500 C 0.38665 0.90151 0.77523 0.0
C501 C 0.36156 0.00024 0.78827 0.0
C502 C 0.36993 0.96695 0.77547 0.0
C503 C 0.44879 0.90391 0.75123 0.0
C504 C 0.41547 0.92072 0.75747 0.0
H505 H 0.34993 0.09794 0.78063 0.0
H506 H 0.33346 0.02407 0.76335 0.0
H507 H 0.34498 0.91086 0.79863 0.0
H508 H 0.4566 0.80279 0.75137 0.0
H509 H 0.39824 0.82868 0.75591 0.0
C510 C 0.62491 0.70802 0.74791 0.0
C511 C 0.60185 0.69712 0.72863 0.0
C512 C 0.6324 0.67419 0.75818 0.0
C513 C 0.61354 0.55042 0.75383 0.0
H514 H 0.54186 0.52987 0.80483 0.0
C515 C 0.51285 0.36443 0.79063 0.0
C516 C 0.46489 0.34948 0.79507 0.0
C517 C 0.54563 0.41264 0.78731 0.0
C518 C 0.56224 0.5352 0.79074 0.0
H519 H 0.57356 0.64535 0.70382 0.0
H520 H 0.58725 0.58675 0.72132 0.0
H521 H 0.5791 0.60789 0.78818 0.0
H522 H 0.41392 0.37316 0.80047 0.0
H523 H 0.4708 0.45745 0.79411 0.0
H524 H 0.59307 0.47658 0.75539 0.0
C525 C 0.59984 0.62112 0.7287 0.0
C526 C 0.58431 0.58019 0.78134 0.0
C527 C 0.59194 0.6547 0.7186 0.0
C528 C 0.45067 0.38379 0.79704 0.0
C529 C 0.48344 0.43209 0.79359 0.0
C530 C 0.59136 0.50539 0.76319 0.0
C531 C 0.617 0.62915 0.74919 0.0
C532 C 0.60804 0.58754 0.76219 0.0
C533 C 0.53104 0.4469 0.78819 0.0
C534 C 0.56344 0.49672 0.78118 0.0
H535 H 0.63199 0.73992 0.75615 0.0
H536 H 0.64612 0.68156 0.77388 0.0
H537 H 0.63202 0.55519 0.73921 0.0
H538 H 0.52486 0.3387 0.7891 0.0
H539 H 0.58209 0.42291 0.78345 0.0
C540 C 0.087 0.41844 0.03408 0.0
C541 C 0.10413 0.40004 0.04939 0.0
C542 C 0.05008 0.42744 0.03868 0.0
C543 C 0.96802 0.42518 0.07937 0.0
H544 H 0.03961 0.56283 0.07199 0.0
C545 C 0.92632 0.54916 0.12798 0.0
C546 C 0.92955 0.58932 0.11813 0.0
C547 C 0.94366 0.52231 0.1182 0.0
C548 C 0.01842 0.52444 0.07388 0.0
H549 H 0.09243 0.37092 0.08042 0.0
H550 H 0.02761 0.38559 0.08842 0.0
H551 H 0.06547 0.51331 0.0545 0.0
H552 H 0.95329 0.63368 0.09064 0.0
H553 H 0.98276 0.58652 0.0732 0.0
H554 H 0.92095 0.43643 0.09886 0.0
C555 C 0.04217 0.39282 0.07282 0.0
C556 C 0.03318 0.49596 0.06375 0.0
C557 C 0.07912 0.38384 0.06817 0.0
C558 C 0.95173 0.60346 0.09871 0.0
C559 C 0.9683 0.57618 0.08872 0.0
C560 C 0.95267 0.4537 0.08927 0.0
C561 C 0.0303 0.41839 0.05872 0.0
C562 C 0.0086 0.44617 0.06662 0.0
C563 C 0.9635 0.53461 0.09815 0.0
C564 C 0.97827 0.50382 0.08695 0.0
H565 H 0.10618 0.43171 0.01956 0.0
H566 H 0.04103 0.44663 0.02746 0.0
H567 H 0.94873 0.3869 0.08193 0.0
H568 H 0.90903 0.53768 0.14296 0.0
H569 H 0.94055 0.49137 0.1262 0.0
C570 C 0.27146 0.91097 0.41363 0.0
C571 C 0.27314 0.89641 0.39331 0.0
C572 C 0.31201 0.94865 0.42258 0.0
C573 C 0.43545 0.04351 0.41612 0.0
H574 H 0.46745 0.96551 0.45096 0.0
C575 C 0.62921 0.09414 0.42875 0.0
C576 C 0.64291 0.08072 0.44698 0.0
C577 C 0.58137 0.07837 0.42489 0.0
C578 C 0.45918 0.98858 0.44184 0.0
H579 H 0.31591 0.91325 0.36543 0.0
H580 H 0.38632 0.98062 0.38071 0.0
H581 H 0.38586 0.93447 0.43965 0.0
H582 H 0.61856 0.0417 0.47585 0.0
H583 H 0.53443 0.01535 0.46968 0.0
H584 H 0.50852 0.09784 0.41829 0.0
C585 C 0.35386 0.96275 0.38983 0.0
C586 C 0.41227 0.97067 0.43535 0.0
C587 C 0.31357 0.92434 0.38106 0.0
C588 C 0.60828 0.05126 0.46142 0.0
C589 C 0.56024 0.03648 0.45786 0.0
C590 C 0.48223 0.06207 0.4231 0.0
C591 C 0.35433 0.9727 0.41107 0.0
C592 C 0.40047 -0.00272 0.42184 0.0
C593 C 0.54618 0.05016 0.43957 0.0
C594 C 0.49516 0.03395 0.43525 0.0
H595 H 0.24137 0.88967 0.42348 0.0
H596 H 0.31176 0.95562 0.43902 0.0
H597 H 0.42697 0.06449 0.40567 0.0
H598 H 0.65572 0.11729 0.41751 0.0
H599 H 0.5722 0.08842 0.41032 0.0
C600 C 0.30597 0.223 0.86614 0.0
C601 C 0.35126 0.22724 0.86465 0.0
C602 C 0.28961 0.23062 0.88515 0.0
C603 C 0.25515 0.23074 0.92954 0.0
H604 H 0.35103 0.33405 0.9627 0.0
C605 C 0.217 0.28553 0.01104 0.0
C606 C 0.23994 0.33498 0.01486 0.0
C607 C 0.22786 0.268 0.99309 0.0
C608 C 0.32364 0.30523 0.95362 0.0
H609 H 0.4137 0.24014 0.8822 0.0
H610 H 0.3849 0.252 0.91519 0.0
H611 H 0.37419 0.31177 0.93072 0.0
H612 H 0.29088 0.4047 1.0023 0.0
H613 H 0.30869 0.37453 0.97134 0.0
H614 H 0.20432 0.22595 0.9523 0.0
C615 C 0.36247 0.2444 0.90165 0.0
C616 C 0.33708 0.29192 0.93535 0.0
C617 C 0.37897 0.23737 0.88269 0.0
C618 C 0.27291 0.36635 1.00015 0.0
C619 C 0.28343 0.349 0.98233 0.0
C620 C 0.2416 0.2443 0.94789 0.0
C621 C 0.31806 0.24221 0.90309 0.0
C622 C 0.30308 0.2547 0.92296 0.0
C623 C 0.26175 0.29965 0.97867 0.0
C624 C 0.27568 0.28221 0.95998 0.0
H625 H 0.28375 0.21523 0.85252 0.0
H626 H 0.25541 0.22903 0.88561 0.0
H627 H 0.22807 0.20156 0.92052 0.0
H628 H 0.19133 0.26043 0.02202 0.0
H629 H 0.21057 0.22974 0.99075 0.0
C630 C 0.93984 0.14527 0.34475 0.0
C631 C 0.9187 0.17009 0.35357 0.0
C632 C 0.95537 0.15323 0.32408 0.0
C633 C 0.98963 0.24122 0.28127 0.0
H634 H 0.96861 0.13423 0.24665 0.0
C635 C 0.02567 0.26182 0.19289 0.0
C636 C 0.04673 0.23707 0.18394 0.0
C637 C 0.0097 0.25319 0.21348 0.0
C638 C 0.97527 0.1646 0.25615 0.0
H639 H 0.89797 0.22332 0.34749 0.0
H640 H 0.9241 0.23642 0.31139 0.0
H641 H 0.94175 0.12025 0.28267 0.0
H642 H 0.06783 0.18408 0.18975 0.0
H643 H 0.04022 0.1692 0.22569 0.0
H644 H 0.02321 0.28558 0.25478 0.0
C645 C 0.92912 0.21111 0.32052 0.0
C646 C 0.95985 0.15657 0.27684 0.0
C647 C 0.91358 0.20314 0.34118 0.0
C648 C 0.05117 0.20327 0.19606 0.0
C649 C 0.0353 0.19473 0.21669 0.0
C650 C 0.00507 0.24924 0.2606 0.0
C651 C 0.95022 0.18625 0.31169 0.0
C652 C 0.96679 0.19477 0.28967 0.0
C653 C 0.01447 0.21968 0.22569 0.0
C654 C -0.00195 0.21105 0.24774 0.0
H655 H 0.94393 0.1192 0.35374 0.0
H656 H 0.97191 0.13381 0.31788 0.0
H657 H -0.0037 0.27159 0.29077 0.0
H658 H 0.02102 0.28754 0.1839 0.0
H659 H 0.99307 0.27245 0.21976 0.0
C660 C 0.68036 0.90215 0.67244 0.0
C661 C 0.63149 0.8798 0.67732 0.0
C662 C 0.69803 0.92971 0.65433 0.0
C663 C 0.67204 0.0006 0.61799 0.0
H664 H 0.74629 0.97671 0.57738 0.0
C665 C 0.69592 0.07484 0.53561 0.0
C666 C 0.73969 0.09129 0.52531 0.0
C667 C 0.6868 0.05048 0.55444 0.0
C668 C 0.7263 0.98445 0.5887 0.0
H669 H 0.56299 0.86905 0.66698 0.0
H670 H 0.59396 0.91759 0.63582 0.0
H671 H 0.72406 0.93251 0.61025 0.0
H672 H 0.80803 0.09429 0.52659 0.0
H673 H 0.79245 0.05234 0.5599 0.0
H674 H 0.67436 0.05265 0.59687 0.0
C675 C 0.61855 0.91371 0.64592 0.0
C676 C 0.71352 0.95904 0.60749 0.0
C677 C 0.60082 0.88569 0.66375 0.0
C678 C 0.77391 0.08197 0.53414 0.0
C679 C 0.7649 0.05782 0.55319 0.0
C680 C 0.68523 0.02631 0.59942 0.0
C681 C 0.66728 0.93608 0.64102 0.0
C682 C 0.68533 0.96615 0.62209 0.0
C683 C 0.72137 0.04227 0.5637 0.0
C684 C 0.71148 0.01777 0.58426 0.0
H685 H 0.70487 0.89815 0.68253 0.0
H686 H 0.73579 0.94669 0.6509 0.0
H687 H 0.651 0.00738 0.62914 0.0
H688 H 0.66842 0.08074 0.52914 0.0
H689 H 0.65235 0.0379 0.56169 0.0
C690 C 0.72073 0.77288 0.85812 0.0
C691 C 0.73756 0.81972 0.85084 0.0
C692 C 0.72898 0.76461 0.8786 0.0
C693 C 0.80718 0.82266 0.9236 0.0
H694 H 0.70399 0.72132 0.95509 0.0
C695 C 0.82307 0.79932 0.01157 0.0
C696 C 0.80374 0.75247 0.01927 0.0
C697 C 0.81436 0.80751 0.99115 0.0
C698 C 0.7334 0.74939 0.94646 0.0
H699 H 0.77611 0.89458 0.85958 0.0
H700 H 0.79094 0.88013 0.8952 0.0
H701 H 0.69089 0.73528 0.91913 0.0
H702 H 0.75907 0.67751 0.01152 0.0
H703 H 0.74504 0.69174 0.97579 0.0
H704 H 0.84988 0.83656 0.95081 0.0
C705 C 0.77175 0.84982 0.88497 0.0
C706 C 0.72585 0.75741 0.92584 0.0
C707 C 0.76333 0.85809 0.86451 0.0
C708 C 0.77504 0.71405 0.00606 0.0
C709 C 0.76649 0.72225 0.98562 0.0
C710 C 0.81482 0.81451 0.94419 0.0
C711 C 0.75446 0.80298 0.89229 0.0
C712 C 0.76263 0.79418 0.91417 0.0
C713 C 0.78624 0.76909 0.97785 0.0
C714 C 0.778 0.77781 0.95592 0.0
H715 H 0.70143 0.7425 0.84794 0.0
H716 H 0.71582 0.72814 0.88367 0.0
H717 H 0.83646 0.85085 0.91495 0.0
H718 H 0.84577 0.82979 0.02119 0.0
H719 H 0.82962 0.84408 0.98581 0.0
C720 C 0.06247 0.7925 0.34294 0.0
C721 C 0.08494 0.76539 0.34643 0.0
C722 C 0.04127 0.79048 0.32369 0.0
C723 C 0.04667 0.75978 0.269 0.0
H724 H 0.91603 0.73259 0.26454 0.0
C725 C 0.92733 0.65664 0.20149 0.0
C726 C 0.89973 0.6735 0.19182 0.0
C727 C 0.9527 0.67823 0.21948 0.0
C728 C 0.95287 0.74119 0.26554 0.0
H729 H 0.10157 0.71404 0.33252 0.0
H730 H 0.06487 0.71053 0.2995 0.0
H731 H 0.95527 0.75149 0.29855 0.0
H732 H 0.87684 0.72613 0.19342 0.0
H733 H 0.92084 0.7635 0.22549 0.0
H734 H 0.04365 0.74711 0.23631 0.0
C735 C 0.0642 0.73395 0.31138 0.0
C736 C 0.97528 0.75197 0.28496 0.0
C737 C 0.08496 0.73572 0.33046 0.0
C738 C 0.89806 0.71259 0.20052 0.0
C739 C 0.92297 0.7338 0.21885 0.0
C740 C 0.02432 0.74885 0.24973 0.0
C741 C 0.04271 0.76171 0.30764 0.0
C742 C 0.02176 0.75948 0.28695 0.0
C743 C 0.95066 0.71683 0.2284 0.0
C744 C 0.97668 0.73771 0.24794 0.0
H745 H 0.06177 0.81565 0.35492 0.0
H746 H 0.02471 0.81208 0.32122 0.0
H747 H 0.08291 0.76649 0.27 0.0
H748 H 0.92948 0.6267 0.19515 0.0
H749 H 0.9733 0.66406 0.22668 0.0
C750 C 0.21418 0.02861 0.6843 0.0
C751 C 0.24829 0.07675 0.68789 0.0
C752 C 0.20487 0.01019 0.66412 0.0
C753 C 0.25679 0.03095 0.61149 0.0
H754 H 0.12564 0.95216 0.59388 0.0
C755 C 0.20729 0.97733 0.52564 0.0
C756 C 0.1689 0.9315 0.5214 0.0
C757 C 0.21727 0.99447 0.54601 0.0
C758 C 0.16251 0.9735 0.59859 0.0
H759 H 0.30013 0.14297 0.67314 0.0
H760 H 0.28379 0.11086 0.63792 0.0
H761 H 0.1427 0.98245 0.6293 0.0
H762 H 0.11157 0.86728 0.5353 0.0
H763 H 0.12941 0.89667 0.57086 0.0
H764 H 0.27675 0.0217 0.58091 0.0
C765 C 0.26427 0.08735 0.65071 0.0
C766 C 0.17225 0.99095 0.61892 0.0
C767 C 0.27329 0.10586 0.67087 0.0
C768 C 0.14097 0.90303 0.53803 0.0
C769 C 0.15117 0.91998 0.55842 0.0
C770 C 0.24708 0.01322 0.5912 0.0
C771 C 0.22977 0.03937 0.64709 0.0
C772 C 0.21949 0.02003 0.62558 0.0
C773 C 0.18934 0.96603 0.5627 0.0
C774 C 0.19978 0.9844 0.58443 0.0
H775 H 0.19411 0.00535 0.69707 0.0
H776 H 0.17838 0.97297 0.66185 0.0
H777 H 0.29359 0.05275 0.61624 0.0
H778 H 0.22911 0.00034 0.51313 0.0
H779 H 0.24642 0.03039 0.54862 0.0
loop_
_geom_bond_atom_site_label_1
_geom_bond_atom_site_label_2
_geom_bond_distance
_geom_bond_site_symmetry_2
_ccdc_geom_bond_type
Pr0 C2 2.880 . S
Pr0 O20 2.562 . S
Pr0 O21 2.490 . S
Pr0 O22 2.695 . S
Pr0 O23 2.512 . S
Pr0 O25 2.437 . S
Pr0 O28 2.436 . S
Pr0 O30 2.438 . S
Pr1 C11 2.880 . S
Pr1 O22 2.436 . S
Pr1 O24 2.438 . S
Pr1 O26 2.562 . S
Pr1 O27 2.490 . S
Pr1 O28 2.695 . S
Pr1 O29 2.512 . S
Pr1 O31 2.437 . S
C2 Pr0 2.880 . S
C2 C3 1.491 1_554 S
C2 O20 1.254 . S
C2 O21 1.225 . S
C3 C2 1.491 1_556 S
C3 C4 1.392 . S
C3 C8 1.356 . S
C4 C3 1.392 . S
C4 C5 1.368 . S
C4 H32 0.929 . S
C5 C4 1.368 . S
C5 C6 1.386 . S
C5 H33 0.929 . S
C6 C5 1.386 . S
C6 C7 1.373 . S
C7 C6 1.373 . S
C7 C8 1.409 . S
C7 H34 0.931 . S
C8 C3 1.356 . S
C8 C7 1.409 . S
C8 H35 0.930 . S
C9 O22 1.270 . S
C9 O23 1.248 . S
C10 O24 1.267 . S
C10 O25 1.278 . S
C11 Pr1 2.880 . S
C11 C12 1.491 . S
C11 O26 1.254 . S
C11 O27 1.225 . S
C12 C11 1.491 . S
C12 C13 1.392 . S
C12 C17 1.356 . S
C13 C12 1.392 . S
C13 C14 1.368 . S
C13 H36 0.929 . S
C14 C13 1.368 . S
C14 C15 1.386 . S
C14 H37 0.929 . S
C15 C14 1.386 . S
C15 C16 1.373 . S
C16 C15 1.373 . S
C16 C17 1.409 . S
C16 H38 0.931 . S
C17 C12 1.356 . S
C17 C16 1.409 . S
C17 H39 0.930 . S
C18 O28 1.270 . S
C18 O29 1.248 . S
C19 O30 1.267 . S
C19 O31 1.278 . S
O20 Pr0 2.562 . S
O20 C2 1.254 . S
O21 Pr0 2.490 . S
O21 C2 1.225 . S
O22 Pr0 2.695 . S
O22 Pr1 2.436 . S
O22 C9 1.270 . S
O23 Pr0 2.512 . S
O23 C9 1.248 . S
O24 Pr1 2.438 . S
O24 C10 1.267 . S
O25 Pr0 2.437 . S
O25 C10 1.278 . S
O26 Pr1 2.562 . S
O26 C11 1.254 . S
O27 Pr1 2.490 . S
O27 C11 1.225 . S
O28 Pr0 2.436 . S
O28 Pr1 2.695 . S
O28 C18 1.270 . S
O29 Pr1 2.512 . S
O29 C18 1.248 . S
O30 Pr0 2.438 . S
O30 C19 1.267 . S
O31 Pr1 2.437 . S
O31 C19 1.278 . S
H32 C4 0.929 . S
H33 C5 0.929 . S
H34 C7 0.931 . S
H35 C8 0.930 . S
H36 C13 0.929 . S
H37 C14 0.929 . S
H38 C16 0.931 . S
H39 C17 0.930 . S
Pr40 C42 2.880 . S
Pr40 O60 2.562 . S
Pr40 O61 2.490 . S
Pr40 O62 2.695 . S
Pr40 O63 2.512 . S
Pr40 O65 2.437 . S
Pr40 O68 2.436 . S
Pr40 O70 2.438 . S
Pr41 C51 2.880 . S
Pr41 O62 2.436 . S
Pr41 O64 2.438 . S
Pr41 O66 2.562 . S
Pr41 O67 2.490 . S
Pr41 O68 2.695 . S
Pr41 O69 2.512 . S
Pr41 O71 2.437 . S
C42 Pr40 2.880 . S
C42 C43 1.491 . S
C42 O60 1.254 . S
C42 O61 1.225 . S
C43 C42 1.491 . S
C43 C44 1.392 . S
C43 C48 1.356 . S
C44 C43 1.392 . S
C44 C45 1.368 . S
C44 H72 0.929 . S
C45 C44 1.368 . S
C45 C46 1.386 . S
C45 H73 0.929 . S
C46 C45 1.386 . S
C46 C47 1.373 . S
C47 C46 1.373 . S
C47 C48 1.409 . S
C47 H74 0.931 . S
C48 C43 1.356 . S
C48 C47 1.409 . S
C48 H75 0.930 . S
C49 O62 1.270 . S
C49 O63 1.248 . S
C50 O64 1.267 . S
C50 O65 1.278 . S
C51 Pr41 2.880 . S
C51 C52 1.491 . S
C51 O66 1.254 . S
C51 O67 1.225 . S
C52 C51 1.491 . S
C52 C53 1.392 . S
C52 C57 1.356 . S
C53 C52 1.392 . S
C53 C54 1.368 . S
C53 H76 0.929 . S
C54 C53 1.368 . S
C54 C55 1.386 . S
C54 H77 0.929 . S
C55 C54 1.386 . S
C55 C56 1.373 . S
C56 C55 1.373 . S
C56 C57 1.409 . S
C56 H78 0.931 . S
C57 C52 1.356 . S
C57 C56 1.409 . S
C57 H79 0.930 . S
C58 O68 1.270 . S
C58 O69 1.248 . S
C59 O70 1.267 . S
C59 O71 1.278 . S
O60 Pr40 2.562 . S
O60 C42 1.254 . S
O61 Pr40 2.490 . S
O61 C42 1.225 . S
O62 Pr40 2.695 . S
O62 Pr41 2.436 . S
O62 C49 1.270 . S
O63 Pr40 2.512 . S
O63 C49 1.248 . S
O64 Pr41 2.438 . S
O64 C50 1.267 . S
O65 Pr40 2.437 . S
O65 C50 1.278 . S
O66 Pr41 2.562 . S
O66 C51 1.254 . S
O67 Pr41 2.490 . S
O67 C51 1.225 . S
O68 Pr40 2.436 . S
O68 Pr41 2.695 . S
O68 C58 1.270 . S
O69 Pr41 2.512 . S
O69 C58 1.248 . S
O70 Pr40 2.438 . S
O70 C59 1.267 . S
O71 Pr41 2.437 . S
O71 C59 1.278 . S
H72 C44 0.929 . S
H73 C45 0.929 . S
H74 C47 0.931 . S
H75 C48 0.930 . S
H76 C53 0.929 . S
H77 C54 0.929 . S
H78 C56 0.931 . S
H79 C57 0.930 . S
Pr80 C82 2.880 . S
Pr80 O100 2.562 . S
Pr80 O101 2.490 . S
Pr80 O102 2.695 . S
Pr80 O103 2.512 . S
Pr80 O105 2.437 . S
Pr80 O108 2.436 . S
Pr80 O110 2.438 . S
Pr81 C91 2.880 . S
Pr81 O102 2.436 . S
Pr81 O104 2.438 . S
Pr81 O106 2.562 . S
Pr81 O107 2.490 . S
Pr81 O108 2.695 . S
Pr81 O109 2.512 . S
Pr81 O111 2.437 . S
C82 Pr80 2.880 . S
C82 C83 1.491 . S
C82 O100 1.254 . S
C82 O101 1.225 . S
C83 C82 1.491 . S
C83 C84 1.392 . S
C83 C88 1.356 . S
C84 C83 1.392 . S
C84 C85 1.368 . S
C84 H112 0.929 . S
C85 C84 1.368 . S
C85 C86 1.386 . S
C85 H113 0.929 . S
C86 C85 1.386 . S
C86 C87 1.373 . S
C87 C86 1.373 . S
C87 C88 1.409 . S
C87 H114 0.931 . S
C88 C83 1.356 . S
C88 C87 1.409 . S
C88 H115 0.930 . S
C89 O102 1.270 . S
C89 O103 1.248 . S
C90 O104 1.267 . S
C90 O105 1.278 . S
C91 Pr81 2.880 . S
C91 C92 1.491 . S
C91 O106 1.254 . S
C91 O107 1.225 . S
C92 C91 1.491 . S
C92 C93 1.392 . S
C92 C97 1.356 . S
C93 C92 1.392 . S
C93 C94 1.368 . S
C93 H116 0.929 . S
C94 C93 1.368 . S
C94 C95 1.386 . S
C94 H117 0.929 . S
C95 C94 1.386 . S
C95 C96 1.373 . S
C96 C95 1.373 . S
C96 C97 1.409 . S
C96 H118 0.931 . S
C97 C92 1.356 . S
C97 C96 1.409 . S
C97 H119 0.930 . S
C98 O108 1.270 . S
C98 O109 1.248 . S
C99 O110 1.267 . S
C99 O111 1.278 . S
O100 Pr80 2.562 . S
O100 C82 1.254 . S
O101 Pr80 2.490 . S
O101 C82 1.225 . S
O102 Pr80 2.695 . S
O102 Pr81 2.436 . S
O102 C89 1.270 . S
O103 Pr80 2.512 . S
O103 C89 1.248 . S
O104 Pr81 2.438 . S
O104 C90 1.267 . S
O105 Pr80 2.437 . S
O105 C90 1.278 . S
O106 Pr81 2.562 . S
O106 C91 1.254 . S
O107 Pr81 2.490 . S
O107 C91 1.225 . S
O108 Pr80 2.436 . S
O108 Pr81 2.695 . S
O108 C98 1.270 . S
O109 Pr81 2.512 . S
O109 C98 1.248 . S
O110 Pr80 2.438 . S
O110 C99 1.267 . S
O111 Pr81 2.437 . S
O111 C99 1.278 . S
H112 C84 0.929 . S
H113 C85 0.929 . S
H114 C87 0.931 . S
H115 C88 0.930 . S
H116 C93 0.929 . S
H117 C94 0.929 . S
H118 C96 0.931 . S
H119 C97 0.930 . S
Pr120 C122 2.880 . S
Pr120 O140 2.562 . S
Pr120 O141 2.490 . S
Pr120 O142 2.695 . S
Pr120 O143 2.512 . S
Pr120 O145 2.437 . S
Pr120 O148 2.436 . S
Pr120 O150 2.438 . S
Pr121 C131 2.880 . S
Pr121 O142 2.436 . S
Pr121 O144 2.438 . S
Pr121 O146 2.562 . S
Pr121 O147 2.490 . S
Pr121 O148 2.695 . S
Pr121 O149 2.512 . S
Pr121 O151 2.437 . S
C122 Pr120 2.880 . S
C122 C123 1.491 . S
C122 O140 1.254 . S
C122 O141 1.225 . S
C123 C122 1.491 . S
C123 C124 1.392 . S
C123 C128 1.356 . S
C124 C123 1.392 . S
C124 C125 1.368 . S
C124 H152 0.929 . S
C125 C124 1.368 . S
C125 C126 1.386 . S
C125 H153 0.929 . S
C126 C125 1.386 . S
C126 C127 1.373 . S
C127 C126 1.373 . S
C127 C128 1.409 . S
C127 H154 0.931 . S
C128 C123 1.356 . S
C128 C127 1.409 . S
C128 H155 0.930 . S
C129 O142 1.270 . S
C129 O143 1.248 . S
C130 O144 1.267 . S
C130 O145 1.278 . S
C131 Pr121 2.880 . S
C131 C132 1.491 . S
C131 O146 1.254 . S
C131 O147 1.225 . S
C132 C131 1.491 . S
C132 C133 1.392 . S
C132 C137 1.356 . S
C133 C132 1.392 . S
C133 C134 1.368 . S
C133 H156 0.929 . S
C134 C133 1.368 . S
C134 C135 1.386 . S
C134 H157 0.929 . S
C135 C134 1.386 . S
C135 C136 1.373 . S
C136 C135 1.373 . S
C136 C137 1.409 . S
C136 H158 0.931 . S
C137 C132 1.356 . S
C137 C136 1.409 . S
C137 H159 0.930 . S
C138 O148 1.270 . S
C138 O149 1.248 . S
C139 O150 1.267 . S
C139 O151 1.278 . S
O140 Pr120 2.562 . S
O140 C122 1.254 . S
O141 Pr120 2.490 . S
O141 C122 1.225 . S
O142 Pr120 2.695 . S
O142 Pr121 2.436 . S
O142 C129 1.270 . S
O143 Pr120 2.512 . S
O143 C129 1.248 . S
O144 Pr121 2.438 . S
O144 C130 1.267 . S
O145 Pr120 2.437 . S
O145 C130 1.278 . S
O146 Pr121 2.562 . S
O146 C131 1.254 . S
O147 Pr121 2.490 . S
O147 C131 1.225 . S
O148 Pr120 2.436 . S
O148 Pr121 2.695 . S
O148 C138 1.270 . S
O149 Pr121 2.512 . S
O149 C138 1.248 . S
O150 Pr120 2.438 . S
O150 C139 1.267 . S
O151 Pr121 2.437 . S
O151 C139 1.278 . S
H152 C124 0.929 . S
H153 C125 0.929 . S
H154 C127 0.931 . S
H155 C128 0.930 . S
H156 C133 0.929 . S
H157 C134 0.929 . S
H158 C136 0.931 . S
H159 C137 0.930 . S
Pr160 C162 2.880 . S
Pr160 O180 2.562 . S
Pr160 O181 2.490 . S
Pr160 O182 2.695 . S
Pr160 O183 2.512 . S
Pr160 O185 2.437 . S
Pr160 O188 2.436 . S
Pr160 O190 2.438 . S
Pr161 C171 2.880 . S
Pr161 O182 2.436 . S
Pr161 O184 2.438 . S
Pr161 O186 2.562 . S
Pr161 O187 2.490 . S
Pr161 O188 2.695 . S
Pr161 O189 2.512 . S
Pr161 O191 2.437 . S
C162 Pr160 2.880 . S
C162 C163 1.491 . S
C162 O180 1.254 . S
C162 O181 1.225 . S
C163 C162 1.491 . S
C163 C164 1.392 . S
C163 C168 1.356 . S
C164 C163 1.392 . S
C164 C165 1.368 . S
C164 H192 0.929 . S
C165 C164 1.368 . S
C165 C166 1.386 . S
C165 H193 0.929 . S
C166 C165 1.386 . S
C166 C167 1.373 . S
C167 C166 1.373 . S
C167 C168 1.409 . S
C167 H194 0.931 . S
C168 C163 1.356 . S
C168 C167 1.409 . S
C168 H195 0.930 . S
C169 O182 1.270 . S
C169 O183 1.248 . S
C170 O184 1.267 . S
C170 O185 1.278 . S
C171 Pr161 2.880 . S
C171 C172 1.491 . S
C171 O186 1.254 . S
C171 O187 1.225 . S
C172 C171 1.491 . S
C172 C173 1.392 . S
C172 C177 1.356 . S
C173 C172 1.392 . S
C173 C174 1.368 . S
C173 H196 0.929 . S
C174 C173 1.368 . S
C174 C175 1.386 . S
C174 H197 0.929 . S
C175 C174 1.386 . S
C175 C176 1.373 . S
C176 C175 1.373 . S
C176 C177 1.409 . S
C176 H198 0.931 . S
C177 C172 1.356 . S
C177 C176 1.409 . S
C177 H199 0.930 . S
C178 O188 1.270 . S
C178 O189 1.248 . S
C179 O190 1.267 . S
C179 O191 1.278 . S
O180 Pr160 2.562 . S
O180 C162 1.254 . S
O181 Pr160 2.490 . S
O181 C162 1.225 . S
O182 Pr160 2.695 . S
O182 Pr161 2.436 . S
O182 C169 1.270 . S
O183 Pr160 2.512 . S
O183 C169 1.248 . S
O184 Pr161 2.438 . S
O184 C170 1.267 . S
O185 Pr160 2.437 . S
O185 C170 1.278 . S
O186 Pr161 2.562 . S
O186 C171 1.254 . S
O187 Pr161 2.490 . S
O187 C171 1.225 . S
O188 Pr160 2.436 . S
O188 Pr161 2.695 . S
O188 C178 1.270 . S
O189 Pr161 2.512 . S
O189 C178 1.248 . S
O190 Pr160 2.438 . S
O190 C179 1.267 . S
O191 Pr161 2.437 . S
O191 C179 1.278 . S
H192 C164 0.929 . S
H193 C165 0.929 . S
H194 C167 0.931 . S
H195 C168 0.930 . S
H196 C173 0.929 . S
H197 C174 0.929 . S
H198 C176 0.931 . S
H199 C177 0.930 . S
Pr200 C202 2.880 . S
Pr200 O220 2.562 . S
Pr200 O221 2.490 . S
Pr200 O222 2.695 . S
Pr200 O223 2.512 . S
Pr200 O225 2.437 . S
Pr200 O228 2.436 . S
Pr200 O230 2.438 . S
Pr201 C211 2.880 . S
Pr201 O222 2.436 . S
Pr201 O224 2.438 . S
Pr201 O226 2.562 . S
Pr201 O227 2.490 . S
Pr201 O228 2.695 . S
Pr201 O229 2.512 . S
Pr201 O231 2.437 . S
C202 Pr200 2.880 . S
C202 C203 1.491 . S
C202 O220 1.254 . S
C202 O221 1.225 . S
C203 C202 1.491 . S
C203 C204 1.392 . S
C203 C208 1.356 . S
C204 C203 1.392 . S
C204 C205 1.368 . S
C204 H232 0.929 . S
C205 C204 1.368 . S
C205 C206 1.386 . S
C205 H233 0.929 . S
C206 C205 1.386 . S
C206 C207 1.373 . S
C207 C206 1.373 . S
C207 C208 1.409 . S
C207 H234 0.931 . S
C208 C203 1.356 . S
C208 C207 1.409 . S
C208 H235 0.930 . S
C209 O222 1.270 . S
C209 O223 1.248 . S
C210 O224 1.267 . S
C210 O225 1.278 . S
C211 Pr201 2.880 . S
C211 C212 1.491 . S
C211 O226 1.254 . S
C211 O227 1.225 . S
C212 C211 1.491 . S
C212 C213 1.392 . S
C212 C217 1.356 . S
C213 C212 1.392 . S
C213 C214 1.368 . S
C213 H236 0.929 . S
C214 C213 1.368 . S
C214 C215 1.386 . S
C214 H237 0.929 . S
C215 C214 1.386 . S
C215 C216 1.373 . S
C216 C215 1.373 . S
C216 C217 1.409 . S
C216 H238 0.931 . S
C217 C212 1.356 . S
C217 C216 1.409 . S
C217 H239 0.930 . S
C218 O228 1.270 . S
C218 O229 1.248 . S
C219 O230 1.267 . S
C219 O231 1.278 . S
O220 Pr200 2.562 . S
O220 C202 1.254 . S
O221 Pr200 2.490 . S
O221 C202 1.225 . S
O222 Pr200 2.695 . S
O222 Pr201 2.436 . S
O222 C209 1.270 . S
O223 Pr200 2.512 . S
O223 C209 1.248 . S
O224 Pr201 2.438 . S
O224 C210 1.267 . S
O225 Pr200 2.437 . S
O225 C210 1.278 . S
O226 Pr201 2.562 . S
O226 C211 1.254 . S
O227 Pr201 2.490 . S
O227 C211 1.225 . S
O228 Pr200 2.436 . S
O228 Pr201 2.695 . S
O228 C218 1.270 . S
O229 Pr201 2.512 . S
O229 C218 1.248 . S
O230 Pr200 2.438 . S
O230 C219 1.267 . S
O231 Pr201 2.437 . S
O231 C219 1.278 . S
H232 C204 0.929 . S
H233 C205 0.929 . S
H234 C207 0.931 . S
H235 C208 0.930 . S
H236 C213 0.929 . S
H237 C214 0.929 . S
H238 C216 0.931 . S
H239 C217 0.930 . S
C240 C241 1.349 . S
C240 C242 1.327 . S
C240 H265 0.950 . S
C241 C240 1.349 . S
C241 C257 1.349 . S
C242 C240 1.327 . S
C242 C261 1.429 . S
C242 H266 0.950 . S
C243 C260 1.574 . S
C243 C262 1.368 . S
C243 H267 0.949 . S
H244 C248 0.949 . S
C245 C246 1.349 . S
C245 C247 1.327 . S
C245 H268 0.950 . S
C246 C245 1.349 . S
C246 C258 1.349 . S
C247 C245 1.327 . S
C247 C263 1.429 . S
C247 H269 0.950 . S
C248 H244 0.949 . S
C248 C256 1.574 . S
C248 C264 1.368 . S
H249 C257 0.950 . S
H250 C255 0.950 . S
H251 C256 0.949 . S
H252 C258 0.950 . S
H253 C259 0.950 . S
H254 C260 0.949 . S
C255 H250 0.950 . S
C255 C257 1.327 . S
C255 C261 1.429 . S
C256 C248 1.574 . S
C256 H251 0.949 . S
C256 C262 1.368 . S
C257 C241 1.349 . S
C257 H249 0.950 . S
C257 C255 1.327 . S
C258 C246 1.349 . S
C258 H252 0.950 . S
C258 C259 1.327 . S
C259 H253 0.950 . S
C259 C258 1.327 . S
C259 C263 1.429 . S
C260 C243 1.574 . S
C260 H254 0.949 . S
C260 C264 1.368 . S
C261 C242 1.429 . S
C261 C255 1.429 . S
C261 C262 1.523 . S
C262 C243 1.368 . S
C262 C256 1.368 . S
C262 C261 1.523 . S
C263 C247 1.429 . S
C263 C259 1.429 . S
C263 C264 1.523 . S
C264 C248 1.368 . S
C264 C260 1.368 . S
C264 C263 1.523 . S
H265 C240 0.950 . S
H266 C242 0.950 . S
H267 C243 0.949 . S
H268 C245 0.950 . S
H269 C247 0.950 . S
C270 C271 1.349 . S
C270 C272 1.327 . S
C270 H295 0.950 . S
C271 C270 1.349 . S
C271 C287 1.349 . S
C272 C270 1.327 . S
C272 C291 1.429 . S
C272 H296 0.950 . S
C273 C290 1.574 . S
C273 C292 1.368 . S
C273 H297 0.949 . S
H274 C278 0.949 . S
C275 C276 1.349 . S
C275 C277 1.327 . S
C275 H298 0.950 . S
C276 C275 1.349 . S
C276 C288 1.349 . S
C277 C275 1.327 . S
C277 C293 1.429 . S
C277 H299 0.950 . S
C278 H274 0.949 . S
C278 C286 1.574 . S
C278 C294 1.368 . S
H279 C287 0.950 . S
H280 C285 0.950 . S
H281 C286 0.949 . S
H282 C288 0.950 . S
H283 C289 0.950 . S
H284 C290 0.949 . S
C285 H280 0.950 . S
C285 C287 1.327 . S
C285 C291 1.429 . S
C286 C278 1.574 . S
C286 H281 0.949 . S
C286 C292 1.368 . S
C287 C271 1.349 . S
C287 H279 0.950 . S
C287 C285 1.327 . S
C288 C276 1.349 . S
C288 H282 0.950 . S
C288 C289 1.327 . S
C289 H283 0.950 . S
C289 C288 1.327 . S
C289 C293 1.429 . S
C290 C273 1.574 . S
C290 H284 0.949 . S
C290 C294 1.368 . S
C291 C272 1.429 . S
C291 C285 1.429 . S
C291 C292 1.523 . S
C292 C273 1.368 . S
C292 C286 1.368 . S
C292 C291 1.523 . S
C293 C277 1.429 . S
C293 C289 1.429 . S
C293 C294 1.523 . S
C294 C278 1.368 . S
C294 C290 1.368 . S
C294 C293 1.523 . S
H295 C270 0.950 . S
H296 C272 0.950 . S
H297 C273 0.949 . S
H298 C275 0.950 . S
H299 C277 0.950 . S
C300 C301 1.349 . S
C300 C302 1.327 . S
C300 H325 0.950 . S
C301 C300 1.349 . S
C301 C317 1.349 . S
C302 C300 1.327 . S
C302 C321 1.429 . S
C302 H326 0.950 . S
C303 C320 1.574 . S
C303 C322 1.368 . S
C303 H327 0.949 . S
H304 C308 0.949 . S
C305 C306 1.349 . S
C305 C307 1.327 . S
C305 H328 0.950 . S
C306 C305 1.349 . S
C306 C318 1.349 . S
C307 C305 1.327 . S
C307 C323 1.429 . S
C307 H329 0.950 . S
C308 H304 0.949 . S
C308 C316 1.574 . S
C308 C324 1.368 . S
H309 C317 0.950 . S
H310 C315 0.950 . S
H311 C316 0.949 . S
H312 C318 0.950 . S
H313 C319 0.950 . S
H314 C320 0.949 . S
C315 H310 0.950 . S
C315 C317 1.327 . S
C315 C321 1.429 . S
C316 C308 1.574 . S
C316 H311 0.949 . S
C316 C322 1.368 . S
C317 C301 1.349 . S
C317 H309 0.950 . S
C317 C315 1.327 . S
C318 C306 1.349 . S
C318 H312 0.950 . S
C318 C319 1.327 . S
C319 H313 0.950 . S
C319 C318 1.327 . S
C319 C323 1.429 . S
C320 C303 1.574 . S
C320 H314 0.949 . S
C320 C324 1.368 . S
C321 C302 1.429 . S
C321 C315 1.429 . S
C321 C322 1.523 . S
C322 C303 1.368 . S
C322 C316 1.368 . S
C322 C321 1.523 . S
C323 C307 1.429 . S
C323 C319 1.429 . S
C323 C324 1.523 . S
C324 C308 1.368 . S
C324 C320 1.368 . S
C324 C323 1.523 . S
H325 C300 0.950 . S
H326 C302 0.950 . S
H327 C303 0.949 . S
H328 C305 0.950 . S
H329 C307 0.950 . S
C330 C331 1.349 . S
C330 C332 1.327 . S
C330 H355 0.950 . S
C331 C330 1.349 . S
C331 C347 1.349 . S
C332 C330 1.327 . S
C332 C351 1.429 . S
C332 H356 0.950 . S
C333 C350 1.574 . S
C333 C352 1.368 . S
C333 H357 0.949 . S
H334 C338 0.949 . S
C335 C336 1.349 . S
C335 C337 1.327 . S
C335 H358 0.950 . S
C336 C335 1.349 . S
C336 C348 1.349 . S
C337 C335 1.327 . S
C337 C353 1.429 . S
C337 H359 0.950 . S
C338 H334 0.949 . S
C338 C346 1.574 . S
C338 C354 1.368 . S
H339 C347 0.950 . S
H340 C345 0.950 . S
H341 C346 0.949 . S
H342 C348 0.950 . S
H343 C349 0.950 . S
H344 C350 0.949 . S
C345 H340 0.950 . S
C345 C347 1.327 . S
C345 C351 1.429 . S
C346 C338 1.574 . S
C346 H341 0.949 . S
C346 C352 1.368 . S
C347 C331 1.349 . S
C347 H339 0.950 . S
C347 C345 1.327 . S
C348 C336 1.349 . S
C348 H342 0.950 . S
C348 C349 1.327 . S
C349 H343 0.950 . S
C349 C348 1.327 . S
C349 C353 1.429 . S
C350 C333 1.574 . S
C350 H344 0.949 . S
C350 C354 1.368 . S
C351 C332 1.429 . S
C351 C345 1.429 . S
C351 C352 1.523 . S
C352 C333 1.368 . S
C352 C346 1.368 . S
C352 C351 1.523 . S
C353 C337 1.429 . S
C353 C349 1.429 . S
C353 C354 1.523 . S
C354 C338 1.368 . S
C354 C350 1.368 . S
C354 C353 1.523 . S
H355 C330 0.950 . S
H356 C332 0.950 . S
H357 C333 0.949 . S
H358 C335 0.950 . S
H359 C337 0.950 . S
C360 C361 1.349 . S
C360 C362 1.327 . S
C360 H385 0.950 . S
C361 C360 1.349 . S
C361 C377 1.349 . S
C362 C360 1.327 . S
C362 C381 1.429 . S
C362 H386 0.950 . S
C363 C380 1.574 . S
C363 C382 1.368 . S
C363 H387 0.949 . S
H364 C368 0.949 . S
C365 C366 1.349 . S
C365 C367 1.327 . S
C365 H388 0.950 . S
C366 C365 1.349 . S
C366 C378 1.349 . S
C367 C365 1.327 . S
C367 C383 1.429 . S
C367 H389 0.950 . S
C368 H364 0.949 . S
C368 C376 1.574 . S
C368 C384 1.368 . S
H369 C377 0.950 . S
H370 C375 0.950 . S
H371 C376 0.949 . S
H372 C378 0.950 . S
H373 C379 0.950 . S
H374 C380 0.949 . S
C375 H370 0.950 . S
C375 C377 1.327 . S
C375 C381 1.429 . S
C376 C368 1.574 . S
C376 H371 0.949 . S
C376 C382 1.368 . S
C377 C361 1.349 . S
C377 H369 0.950 . S
C377 C375 1.327 . S
C378 C366 1.349 . S
C378 H372 0.950 . S
C378 C379 1.327 . S
C379 H373 0.950 . S
C379 C378 1.327 . S
C379 C383 1.429 . S
C380 C363 1.574 . S
C380 H374 0.949 . S
C380 C384 1.368 . S
C381 C362 1.429 . S
C381 C375 1.429 . S
C381 C382 1.523 . S
C382 C363 1.368 . S
C382 C376 1.368 . S
C382 C381 1.523 . S
C383 C367 1.429 . S
C383 C379 1.429 . S
C383 C384 1.523 . S
C384 C368 1.368 . S
C384 C380 1.368 . S
C384 C383 1.523 . S
H385 C360 0.950 . S
H386 C362 0.950 . S
H387 C363 0.949 . S
H388 C365 0.950 . S
H389 C367 0.950 . S
C390 C391 1.349 . S
C390 C392 1.327 . S
C390 H415 0.950 . S
C391 C390 1.349 . S
C391 C407 1.349 . S
C392 C390 1.327 . S
C392 C411 1.429 . S
C392 H416 0.950 . S
C393 C410 1.574 1_554 S
C393 C412 1.368 . S
C393 H417 0.949 . S
H394 C398 0.949 . S
C395 C396 1.349 . S
C395 C397 1.327 . S
C395 H418 0.950 . S
C396 C395 1.349 . S
C396 C408 1.349 . S
C397 C395 1.327 . S
C397 C413 1.429 . S
C397 H419 0.950 . S
C398 H394 0.949 . S
C398 C406 1.574 . S
C398 C414 1.368 . S
H399 C407 0.950 . S
H400 C405 0.950 . S
H401 C406 0.949 . S
H402 C408 0.950 . S
H403 C409 0.950 . S
H404 C410 0.949 . S
C405 H400 0.950 . S
C405 C407 1.327 . S
C405 C411 1.429 . S
C406 C398 1.574 . S
C406 H401 0.949 . S
C406 C412 1.368 1_556 S
C407 C391 1.349 . S
C407 H399 0.950 . S
C407 C405 1.327 . S
C408 C396 1.349 . S
C408 H402 0.950 . S
C408 C409 1.327 . S
C409 H403 0.950 . S
C409 C408 1.327 . S
C409 C413 1.429 . S
C410 C393 1.574 1_556 S
C410 H404 0.949 . S
C410 C414 1.368 . S
C411 C392 1.429 . S
C411 C405 1.429 . S
C411 C412 1.523 . S
C412 C393 1.368 . S
C412 C406 1.368 1_554 S
C412 C411 1.523 . S
C413 C397 1.429 . S
C413 C409 1.429 . S
C413 C414 1.523 . S
C414 C398 1.368 . S
C414 C410 1.368 . S
C414 C413 1.523 . S
H415 C390 0.950 . S
H416 C392 0.950 . S
H417 C393 0.949 . S
H418 C395 0.950 . S
H419 C397 0.950 . S
C420 C421 1.349 . S
C420 C422 1.327 . S
C420 H445 0.950 . S
C421 C420 1.349 . S
C421 C437 1.349 . S
C422 C420 1.327 . S
C422 C441 1.429 . S
C422 H446 0.950 . S
C423 C440 1.574 . S
C423 C442 1.368 . S
C423 H447 0.949 . S
H424 C428 0.949 . S
C425 C426 1.349 . S
C425 C427 1.327 . S
C425 H448 0.950 . S
C426 C425 1.349 . S
C426 C438 1.349 . S
C427 C425 1.327 . S
C427 C443 1.429 . S
C427 H449 0.950 . S
C428 H424 0.949 . S
C428 C436 1.574 . S
C428 C444 1.368 . S
H429 C437 0.950 . S
H430 C435 0.950 . S
H431 C436 0.949 . S
H432 C438 0.950 . S
H433 C439 0.950 . S
H434 C440 0.949 . S
C435 H430 0.950 . S
C435 C437 1.327 . S
C435 C441 1.429 . S
C436 C428 1.574 . S
C436 H431 0.949 . S
C436 C442 1.368 . S
C437 C421 1.349 . S
C437 H429 0.950 . S
C437 C435 1.327 . S
C438 C426 1.349 . S
C438 H432 0.950 . S
C438 C439 1.327 . S
C439 H433 0.950 . S
C439 C438 1.327 . S
C439 C443 1.429 . S
C440 C423 1.574 . S
C440 H434 0.949 . S
C440 C444 1.368 . S
C441 C422 1.429 . S
C441 C435 1.429 . S
C441 C442 1.523 . S
C442 C423 1.368 . S
C442 C436 1.368 . S
C442 C441 1.523 . S
C443 C427 1.429 . S
C443 C439 1.429 . S
C443 C444 1.523 . S
C444 C428 1.368 . S
C444 C440 1.368 . S
C444 C443 1.523 . S
H445 C420 0.950 . S
H446 C422 0.950 . S
H447 C423 0.949 . S
H448 C425 0.950 . S
H449 C427 0.950 . S
C450 C451 1.349 . S
C450 C452 1.327 . S
C450 H475 0.950 . S
C451 C450 1.349 . S
C451 C467 1.349 . S
C452 C450 1.327 . S
C452 C471 1.429 1_455 S
C452 H476 0.950 . S
C453 C470 1.574 . S
C453 C472 1.368 . S
C453 H477 0.949 . S
H454 C458 0.949 . S
C455 C456 1.349 . S
C455 C457 1.327 . S
C455 H478 0.950 . S
C456 C455 1.349 . S
C456 C468 1.349 . S
C457 C455 1.327 . S
C457 C473 1.429 . S
C457 H479 0.950 . S
C458 H454 0.949 . S
C458 C466 1.574 . S
C458 C474 1.368 . S
H459 C467 0.949 . S
H460 C465 0.950 . S
H461 C466 0.949 . S
H462 C468 0.950 . S
H463 C469 0.950 . S
H464 C470 0.949 . S
C465 H460 0.950 . S
C465 C467 1.327 1_655 S
C465 C471 1.429 . S
C466 C458 1.574 . S
C466 H461 0.949 . S
C466 C472 1.368 . S
C467 C451 1.349 . S
C467 H459 0.949 . S
C467 C465 1.327 1_455 S
C468 C456 1.349 . S
C468 H462 0.950 . S
C468 C469 1.327 . S
C469 H463 0.950 . S
C469 C468 1.327 . S
C469 C473 1.429 . S
C470 C453 1.574 . S
C470 H464 0.949 . S
C470 C474 1.368 . S
C471 C452 1.429 1_655 S
C471 C465 1.429 . S
C471 C472 1.523 . S
C472 C453 1.368 . S
C472 C466 1.368 . S
C472 C471 1.523 . S
C473 C457 1.429 . S
C473 C469 1.429 . S
C473 C474 1.523 . S
C474 C458 1.368 . S
C474 C470 1.368 . S
C474 C473 1.523 . S
H475 C450 0.950 . S
H476 C452 0.950 . S
H477 C453 0.949 . S
H478 C455 0.950 . S
H479 C457 0.950 . S
C480 C481 1.349 . S
C480 C482 1.327 . S
C480 H505 0.950 . S
C481 C480 1.349 . S
C481 C497 1.349 . S
C482 C480 1.327 . S
C482 C501 1.429 . S
C482 H506 0.950 . S
C483 C500 1.574 . S
C483 C502 1.368 . S
C483 H507 0.949 . S
H484 C488 0.949 . S
C485 C486 1.349 . S
C485 C487 1.327 . S
C485 H508 0.950 . S
C486 C485 1.349 . S
C486 C498 1.349 . S
C487 C485 1.327 . S
C487 C503 1.429 1_565 S
C487 H509 0.950 . S
C488 H484 0.949 . S
C488 C496 1.574 . S
C488 C504 1.368 . S
H489 C497 0.950 . S
H490 C495 0.950 . S
H491 C496 0.949 . S
H492 C498 0.950 1_545 S
H493 C499 0.950 . S
H494 C500 0.949 1_565 S
C495 H490 0.950 . S
C495 C497 1.327 . S
C495 C501 1.429 . S
C496 C488 1.574 . S
C496 H491 0.949 . S
C496 C502 1.368 . S
C497 C481 1.349 . S
C497 H489 0.950 . S
C497 C495 1.327 . S
C498 C486 1.349 . S
C498 H492 0.950 1_565 S
C498 C499 1.327 1_565 S
C499 H493 0.950 . S
C499 C498 1.327 1_545 S
C499 C503 1.429 . S
C500 C483 1.574 . S
C500 H494 0.949 1_545 S
C500 C504 1.368 . S
C501 C482 1.429 . S
C501 C495 1.429 . S
C501 C502 1.523 . S
C502 C483 1.368 . S
C502 C496 1.368 . S
C502 C501 1.523 . S
C503 C487 1.429 1_545 S
C503 C499 1.429 . S
C503 C504 1.523 . S
C504 C488 1.368 . S
C504 C500 1.368 . S
C504 C503 1.523 . S
H505 C480 0.950 . S
H506 C482 0.950 . S
H507 C483 0.949 . S
H508 C485 0.950 . S
H509 C487 0.950 . S
C510 C511 1.349 . S
C510 C512 1.327 . S
C510 H535 0.950 . S
C511 C510 1.349 . S
C511 C527 1.349 . S
C512 C510 1.327 . S
C512 C531 1.429 . S
C512 H536 0.950 . S
C513 C530 1.574 . S
C513 C532 1.368 . S
C513 H537 0.949 . S
H514 C518 0.949 . S
C515 C516 1.349 . S
C515 C517 1.327 . S
C515 H538 0.950 . S
C516 C515 1.349 . S
C516 C528 1.349 . S
C517 C515 1.327 . S
C517 C533 1.429 . S
C517 H539 0.950 . S
C518 H514 0.949 . S
C518 C526 1.574 . S
C518 C534 1.368 . S
H519 C527 0.950 . S
H520 C525 0.950 . S
H521 C526 0.949 . S
H522 C528 0.950 . S
H523 C529 0.950 . S
H524 C530 0.949 . S
C525 H520 0.950 . S
C525 C527 1.327 . S
C525 C531 1.429 . S
C526 C518 1.574 . S
C526 H521 0.949 . S
C526 C532 1.368 . S
C527 C511 1.349 . S
C527 H519 0.950 . S
C527 C525 1.327 . S
C528 C516 1.349 . S
C528 H522 0.950 . S
C528 C529 1.327 . S
C529 H523 0.950 . S
C529 C528 1.327 . S
C529 C533 1.429 . S
C530 C513 1.574 . S
C530 H524 0.949 . S
C530 C534 1.368 . S
C531 C512 1.429 . S
C531 C525 1.429 . S
C531 C532 1.523 . S
C532 C513 1.368 . S
C532 C526 1.368 . S
C532 C531 1.523 . S
C533 C517 1.429 . S
C533 C529 1.429 . S
C533 C534 1.523 . S
C534 C518 1.368 . S
C534 C530 1.368 . S
C534 C533 1.523 . S
H535 C510 0.950 . S
H536 C512 0.950 . S
H537 C513 0.949 . S
H538 C515 0.950 . S
H539 C517 0.950 . S
C540 C541 1.349 . S
C540 C542 1.327 . S
C540 H565 0.950 . S
C541 C540 1.349 . S
C541 C557 1.349 . S
C542 C540 1.327 . S
C542 C561 1.429 . S
C542 H566 0.950 . S
C543 C560 1.574 . S
C543 C562 1.368 . S
C543 H567 0.949 . S
H544 C548 0.949 . S
C545 C546 1.349 . S
C545 C547 1.327 1_655 S
C545 H568 0.950 . S
C546 C545 1.349 . S
C546 C558 1.349 . S
C547 C545 1.327 1_455 S
C547 C563 1.429 . S
C547 H569 0.950 . S
C548 H544 0.949 . S
C548 C556 1.574 . S
C548 C564 1.368 . S
H549 C557 0.950 . S
H550 C555 0.950 . S
H551 C556 0.949 . S
H552 C558 0.950 . S
H553 C559 0.950 . S
H554 C560 0.949 . S
C555 H550 0.950 . S
C555 C557 1.327 . S
C555 C561 1.429 . S
C556 C548 1.574 . S
C556 H551 0.949 . S
C556 C562 1.368 . S
C557 C541 1.349 . S
C557 H549 0.950 . S
C557 C555 1.327 . S
C558 C546 1.349 . S
C558 H552 0.950 . S
C558 C559 1.327 . S
C559 H553 0.950 . S
C559 C558 1.327 . S
C559 C563 1.429 1_655 S
C560 C543 1.574 . S
C560 H554 0.949 . S
C560 C564 1.368 . S
C561 C542 1.429 . S
C561 C555 1.429 . S
C561 C562 1.523 . S
C562 C543 1.368 . S
C562 C556 1.368 . S
C562 C561 1.523 . S
C563 C547 1.429 . S
C563 C559 1.429 1_455 S
C563 C564 1.523 . S
C564 C548 1.368 . S
C564 C560 1.368 . S
C564 C563 1.523 . S
H565 C540 0.950 . S
H566 C542 0.950 . S
H567 C543 0.949 . S
H568 C545 0.950 . S
H569 C547 0.950 . S
C570 C571 1.349 . S
C570 C572 1.327 . S
C570 H595 0.950 . S
C571 C570 1.349 . S
C571 C587 1.349 . S
C572 C570 1.327 . S
C572 C591 1.429 . S
C572 H596 0.950 . S
C573 C590 1.574 . S
C573 C592 1.368 . S
C573 H597 0.949 . S
H574 C578 0.949 . S
C575 C576 1.349 . S
C575 C577 1.327 . S
C575 H598 0.950 . S
C576 C575 1.349 . S
C576 C588 1.349 . S
C577 C575 1.327 . S
C577 C593 1.429 1_545 S
C577 H599 0.950 . S
C578 H574 0.949 . S
C578 C586 1.574 . S
C578 C594 1.368 . S
H579 C587 0.950 . S
H580 C585 0.950 . S
H581 C586 0.949 . S
H582 C588 0.950 1_565 S
H583 C589 0.950 . S
H584 C590 0.949 . S
C585 H580 0.950 . S
C585 C587 1.327 . S
C585 C591 1.429 . S
C586 C578 1.574 . S
C586 H581 0.949 . S
C586 C592 1.368 . S
C587 C571 1.349 . S
C587 H579 0.950 . S
C587 C585 1.327 . S
C588 C576 1.349 . S
C588 H582 0.950 1_545 S
C588 C589 1.327 1_545 S
C589 H583 0.950 . S
C589 C588 1.327 1_565 S
C589 C593 1.429 . S
C590 C573 1.574 . S
C590 H584 0.949 . S
C590 C594 1.368 . S
C591 C572 1.429 . S
C591 C585 1.429 . S
C591 C592 1.523 . S
C592 C573 1.368 . S
C592 C586 1.368 . S
C592 C591 1.523 . S
C593 C577 1.429 1_565 S
C593 C589 1.429 . S
C593 C594 1.523 . S
C594 C578 1.368 . S
C594 C590 1.368 . S
C594 C593 1.523 . S
H595 C570 0.950 . S
H596 C572 0.950 . S
H597 C573 0.949 . S
H598 C575 0.950 . S
H599 C577 0.950 . S
C600 C601 1.349 . S
C600 C602 1.327 . S
C600 H625 0.950 . S
C601 C600 1.349 . S
C601 C617 1.349 . S
C602 C600 1.327 . S
C602 C621 1.429 . S
C602 H626 0.950 . S
C603 C620 1.574 . S
C603 C622 1.368 . S
C603 H627 0.949 . S
H604 C608 0.949 . S
C605 C606 1.349 . S
C605 C607 1.327 1_554 S
C605 H628 0.950 . S
C606 C605 1.349 . S
C606 C618 1.349 1_554 S
C607 C605 1.327 1_556 S
C607 C623 1.429 . S
C607 H629 0.950 . S
C608 H604 0.949 . S
C608 C616 1.574 . S
C608 C624 1.368 . S
H609 C617 0.950 . S
H610 C615 0.950 . S
H611 C616 0.949 . S
H612 C618 0.950 . S
H613 C619 0.950 . S
H614 C620 0.949 . S
C615 H610 0.950 . S
C615 C617 1.327 . S
C615 C621 1.429 . S
C616 C608 1.574 . S
C616 H611 0.949 . S
C616 C622 1.368 . S
C617 C601 1.349 . S
C617 H609 0.950 . S
C617 C615 1.327 . S
C618 C606 1.349 1_556 S
C618 H612 0.950 . S
C618 C619 1.327 . S
C619 H613 0.950 . S
C619 C618 1.327 . S
C619 C623 1.429 . S
C620 C603 1.574 . S
C620 H614 0.949 . S
C620 C624 1.368 . S
C621 C602 1.429 . S
C621 C615 1.429 . S
C621 C622 1.523 . S
C622 C603 1.368 . S
C622 C616 1.368 . S
C622 C621 1.523 . S
C623 C607 1.429 . S
C623 C619 1.429 . S
C623 C624 1.523 . S
C624 C608 1.368 . S
C624 C620 1.368 . S
C624 C623 1.523 . S
H625 C600 0.950 . S
H626 C602 0.950 . S
H627 C603 0.949 . S
H628 C605 0.950 . S
H629 C607 0.950 . S
C630 C631 1.349 . S
C630 C632 1.327 . S
C630 H655 0.950 . S
C631 C630 1.349 . S
C631 C647 1.349 . S
C632 C630 1.327 . S
C632 C651 1.429 . S
C632 H656 0.950 . S
C633 C650 1.574 . S
C633 C652 1.368 . S
C633 H657 0.949 . S
H634 C638 0.949 . S
C635 C636 1.349 . S
C635 C637 1.327 . S
C635 H658 0.950 . S
C636 C635 1.349 . S
C636 C648 1.349 . S
C637 C635 1.327 . S
C637 C653 1.429 . S
C637 H659 0.950 . S
C638 H634 0.949 . S
C638 C646 1.574 . S
C638 C654 1.368 . S
H639 C647 0.950 . S
H640 C645 0.950 . S
H641 C646 0.949 . S
H642 C648 0.950 . S
H643 C649 0.950 . S
H644 C650 0.949 . S
C645 H640 0.950 . S
C645 C647 1.327 . S
C645 C651 1.429 . S
C646 C638 1.574 . S
C646 H641 0.949 . S
C646 C652 1.368 1_455 S
C647 C631 1.349 . S
C647 H639 0.950 . S
C647 C645 1.327 . S
C648 C636 1.349 . S
C648 H642 0.950 . S
C648 C649 1.327 . S
C649 H643 0.950 . S
C649 C648 1.327 . S
C649 C653 1.429 . S
C650 C633 1.574 . S
C650 H644 0.949 . S
C650 C654 1.368 1_655 S
C651 C632 1.429 . S
C651 C645 1.429 . S
C651 C652 1.523 . S
C652 C633 1.368 . S
C652 C646 1.368 1_655 S
C652 C651 1.523 . S
C653 C637 1.429 . S
C653 C649 1.429 . S
C653 C654 1.523 . S
C654 C638 1.368 . S
C654 C650 1.368 1_455 S
C654 C653 1.523 . S
H655 C630 0.950 . S
H656 C632 0.950 . S
H657 C633 0.949 . S
H658 C635 0.950 . S
H659 C637 0.950 . S
C660 C661 1.349 . S
C660 C662 1.327 . S
C660 H685 0.950 . S
C661 C660 1.349 . S
C661 C677 1.349 . S
C662 C660 1.327 . S
C662 C681 1.429 . S
C662 H686 0.950 1_565 S
C663 C680 1.574 . S
C663 C682 1.368 . S
C663 H687 0.949 . S
H664 C668 0.949 . S
C665 C666 1.349 . S
C665 C667 1.327 . S
C665 H688 0.950 . S
C666 C665 1.349 . S
C666 C678 1.349 . S
C667 C665 1.327 . S
C667 C683 1.429 . S
C667 H689 0.950 1_545 S
C668 H664 0.949 . S
C668 C676 1.574 . S
C668 C684 1.368 . S
H669 C677 0.950 . S
H670 C675 0.950 . S
H671 C676 0.949 . S
H672 C678 0.950 . S
H673 C679 0.950 . S
H674 C680 0.949 . S
C675 H670 0.950 . S
C675 C677 1.327 . S
C675 C681 1.429 . S
C676 C668 1.574 . S
C676 H671 0.949 . S
C676 C682 1.368 1_545 S
C677 C661 1.349 . S
C677 H669 0.950 . S
C677 C675 1.327 . S
C678 C666 1.349 . S
C678 H672 0.950 . S
C678 C679 1.327 . S
C679 H673 0.950 . S
C679 C678 1.327 . S
C679 C683 1.429 . S
C680 C663 1.574 . S
C680 H674 0.949 . S
C680 C684 1.368 1_565 S
C681 C662 1.429 . S
C681 C675 1.429 . S
C681 C682 1.523 . S
C682 C663 1.368 . S
C682 C676 1.368 1_565 S
C682 C681 1.523 . S
C683 C667 1.429 . S
C683 C679 1.429 . S
C683 C684 1.523 . S
C684 C668 1.368 . S
C684 C680 1.368 1_545 S
C684 C683 1.523 . S
H685 C660 0.950 . S
H686 C662 0.950 1_545 S
H687 C663 0.949 . S
H688 C665 0.950 . S
H689 C667 0.950 1_565 S
C690 C691 1.349 . S
C690 C692 1.327 . S
C690 H715 0.950 . S
C691 C690 1.349 . S
C691 C707 1.349 . S
C692 C690 1.327 . S
C692 C711 1.429 . S
C692 H716 0.950 . S
C693 C710 1.574 . S
C693 C712 1.368 . S
C693 H717 0.949 . S
H694 C698 0.949 . S
C695 C696 1.349 . S
C695 C697 1.327 1_554 S
C695 H718 0.950 . S
C696 C695 1.349 . S
C696 C708 1.349 1_554 S
C697 C695 1.327 1_556 S
C697 C713 1.429 . S
C697 H719 0.950 . S
C698 H694 0.949 . S
C698 C706 1.574 . S
C698 C714 1.368 . S
H699 C707 0.950 . S
H700 C705 0.950 . S
H701 C706 0.949 . S
H702 C708 0.950 . S
H703 C709 0.950 . S
H704 C710 0.949 . S
C705 H700 0.950 . S
C705 C707 1.327 . S
C705 C711 1.429 . S
C706 C698 1.574 . S
C706 H701 0.949 . S
C706 C712 1.368 . S
C707 C691 1.349 . S
C707 H699 0.950 . S
C707 C705 1.327 . S
C708 C696 1.349 1_556 S
C708 H702 0.950 . S
C708 C709 1.327 . S
C709 H703 0.950 . S
C709 C708 1.327 . S
C709 C713 1.429 . S
C710 C693 1.574 . S
C710 H704 0.949 . S
C710 C714 1.368 . S
C711 C692 1.429 . S
C711 C705 1.429 . S
C711 C712 1.523 . S
C712 C693 1.368 . S
C712 C706 1.368 . S
C712 C711 1.523 . S
C713 C697 1.429 . S
C713 C709 1.429 . S
C713 C714 1.523 . S
C714 C698 1.368 . S
C714 C710 1.368 . S
C714 C713 1.523 . S
H715 C690 0.950 . S
H716 C692 0.950 . S
H717 C693 0.949 . S
H718 C695 0.950 . S
H719 C697 0.950 . S
C720 C721 1.349 . S
C720 C722 1.327 . S
C720 H745 0.950 . S
C721 C720 1.349 . S
C721 C737 1.349 . S
C722 C720 1.327 . S
C722 C741 1.429 . S
C722 H746 0.950 1_455 S
C723 C740 1.574 . S
C723 C742 1.368 . S
C723 H747 0.949 . S
H724 C728 0.949 . S
C725 C726 1.349 . S
C725 C727 1.327 . S
C725 H748 0.950 . S
C726 C725 1.349 . S
C726 C738 1.349 . S
C727 C725 1.327 . S
C727 C743 1.429 . S
C727 H749 0.950 1_655 S
C728 H724 0.949 . S
C728 C736 1.574 . S
C728 C744 1.368 . S
H729 C737 0.950 . S
H730 C735 0.950 . S
H731 C736 0.949 . S
H732 C738 0.950 . S
H733 C739 0.950 . S
H734 C740 0.949 . S
C735 H730 0.950 . S
C735 C737 1.327 . S
C735 C741 1.429 . S
C736 C728 1.574 . S
C736 H731 0.949 . S
C736 C742 1.368 1_655 S
C737 C721 1.349 . S
C737 H729 0.950 . S
C737 C735 1.327 . S
C738 C726 1.349 . S
C738 H732 0.950 . S
C738 C739 1.327 . S
C739 H733 0.950 . S
C739 C738 1.327 . S
C739 C743 1.429 . S
C740 C723 1.574 . S
C740 H734 0.949 . S
C740 C744 1.368 1_455 S
C741 C722 1.429 . S
C741 C735 1.429 . S
C741 C742 1.523 . S
C742 C723 1.368 . S
C742 C736 1.368 1_455 S
C742 C741 1.523 . S
C743 C727 1.429 . S
C743 C739 1.429 . S
C743 C744 1.523 . S
C744 C728 1.368 . S
C744 C740 1.368 1_655 S
C744 C743 1.523 . S
H745 C720 0.950 . S
H746 C722 0.950 1_655 S
H747 C723 0.949 . S
H748 C725 0.950 . S
H749 C727 0.950 1_455 S
C750 C751 1.349 . S
C750 C752 1.327 . S
C750 H775 0.950 . S
C751 C750 1.349 . S
C751 C767 1.349 . S
C752 C750 1.327 . S
C752 C771 1.429 . S
C752 H776 0.950 . S
C753 C770 1.574 . S
C753 C772 1.368 . S
C753 H777 0.949 . S
H754 C758 0.949 . S
C755 C756 1.349 . S
C755 C757 1.327 . S
C755 H778 0.950 . S
C756 C755 1.349 . S
C756 C768 1.349 . S
C757 C755 1.327 . S
C757 C773 1.429 . S
C757 H779 0.950 . S
C758 H754 0.949 . S
C758 C766 1.574 . S
C758 C774 1.368 . S
H759 C767 0.950 . S
H760 C765 0.950 . S
H761 C766 0.949 . S
H762 C768 0.950 . S
H763 C769 0.950 . S
H764 C770 0.949 . S
C765 H760 0.950 . S
C765 C767 1.327 . S
C765 C771 1.429 . S
C766 C758 1.574 . S
C766 H761 0.949 . S
C766 C772 1.368 1_565 S
C767 C751 1.349 . S
C767 H759 0.950 . S
C767 C765 1.327 . S
C768 C756 1.349 . S
C768 H762 0.950 . S
C768 C769 1.327 . S
C769 H763 0.950 . S
C769 C768 1.327 . S
C769 C773 1.429 . S
C770 C753 1.574 . S
C770 H764 0.949 . S
C770 C774 1.368 1_545 S
C771 C752 1.429 . S
C771 C765 1.429 . S
C771 C772 1.523 . S
C772 C753 1.368 . S
C772 C766 1.368 1_545 S
C772 C771 1.523 . S
C773 C757 1.429 . S
C773 C769 1.429 . S
C773 C774 1.523 . S
C774 C758 1.368 . S
C774 C770 1.368 1_565 S
C774 C773 1.523 . S
H775 C750 0.950 . S
H776 C752 0.950 . S
H777 C753 0.949 . S
H778 C755 0.950 . S
H779 C757 0.950 . S
C241 C166 1.323 . S
C246 C19 1.334 . S
C271 C219 1.334 . S
C276 C46 1.323 . S
C301 C6 1.323 . S
C306 C99 1.334 . S
C331 C59 1.334 . S
C336 C126 1.323 . S
C361 C86 1.323 . S
C366 C179 1.334 . S
C391 C139 1.334 . S
C396 C206 1.323 . S
C421 C18 0.803 . S
C426 C129 0.783 . S
C451 C178 0.803 . S
C456 C49 0.784 . S
C481 C209 0.783 . S
C486 C98 0.803 . S
C511 C89 0.784 . S
C516 C218 0.803 . S
C541 C9 0.784 . S
C546 C138 0.803 . S
C571 C169 0.784 . S
C576 C58 0.803 . S
C601 C210 1.692 . S
C606 C10 1.692 . S
C631 C55 0.762 . S
C636 C15 0.762 . S
C661 C90 1.692 . S
C666 C50 1.692 . S
C691 C95 0.762 . S
C696 C135 0.762 . S
C721 C170 1.692 . S
C726 C130 1.692 . S
C751 C215 0.762 . S
C756 C175 0.762 . S
