# Generated by pormake.
# Topology zni, (4)-cn, num edge types: 1
# Building blocks:
#     Node 0, Type 0, BuildingBlock: NAHDIM_clean_sbu_0, # of connection points: 4
#     Node 1, Type 0, BuildingBlock: NAHDIM_clean_sbu_0, # of connection points: 4
#     Node 2, Type 0, BuildingBlock: NAHDIM_clean_sbu_0, # of connection points: 4
#     Node 3, Type 0, BuildingBlock: NAHDIM_clean_sbu_0, # of connection points: 4
#     Node 4, Type 0, BuildingBlock: NAHDIM_clean_sbu_0, # of connection points: 4
#     Node 5, Type 0, BuildingBlock: NAHDIM_clean_sbu_0, # of connection points: 4
#     Node 6, Type 0, BuildingBlock: NAHDIM_clean_sbu_0, # of connection points: 4
#     Node 7, Type 0, BuildingBlock: NAHDIM_clean_sbu_0, # of connection points: 4
#     Node 8, Type 0, BuildingBlock: NAHDIM_clean_sbu_0, # of connection points: 4
#     Node 9, Type 0, BuildingBlock: NAHDIM_clean_sbu_0, # of connection points: 4
#     Node 10, Type 0, BuildingBlock: NAHDIM_clean_sbu_0, # of connection points: 4
#     Node 11, Type 0, BuildingBlock: NAHDIM_clean_sbu_0, # of connection points: 4
#     Node 12, Type 0, BuildingBlock: NAHDIM_clean_sbu_0, # of connection points: 4
#     Node 13, Type 0, BuildingBlock: NAHDIM_clean_sbu_0, # of connection points: 4
#     Node 14, Type 0, BuildingBlock: NAHDIM_clean_sbu_0, # of connection points: 4
#     Node 15, Type 0, BuildingBlock: NAHDIM_clean_sbu_0, # of connection points: 4
#     Node 16, Type 0, BuildingBlock: NAHDIM_clean_sbu_0, # of connection points: 4
#     Node 17, Type 0, BuildingBlock: NAHDIM_clean_sbu_0, # of connection points: 4
#     Node 18, Type 0, BuildingBlock: NAHDIM_clean_sbu_0, # of connection points: 4
#     Node 19, Type 0, BuildingBlock: NAHDIM_clean_sbu_0, # of connection points: 4
#     Node 20, Type 0, BuildingBlock: NAHDIM_clean_sbu_0, # of connection points: 4
#     Node 21, Type 0, BuildingBlock: NAHDIM_clean_sbu_0, # of connection points: 4
#     Node 22, Type 0, BuildingBlock: NAHDIM_clean_sbu_0, # of connection points: 4
#     Node 23, Type 0, BuildingBlock: NAHDIM_clean_sbu_0, # of connection points: 4
#     Node 24, Type 0, BuildingBlock: NAHDIM_clean_sbu_0, # of connection points: 4
#     Node 25, Type 0, BuildingBlock: NAHDIM_clean_sbu_0, # of connection points: 4
#     Node 26, Type 0, BuildingBlock: NAHDIM_clean_sbu_0, # of connection points: 4
#     Node 27, Type 0, BuildingBlock: NAHDIM_clean_sbu_0, # of connection points: 4
#     Node 28, Type 0, BuildingBlock: NAHDIM_clean_sbu_0, # of connection points: 4
#     Node 29, Type 0, BuildingBlock: NAHDIM_clean_sbu_0, # of connection points: 4
#     Node 30, Type 0, BuildingBlock: NAHDIM_clean_sbu_0, # of connection points: 4
#     Node 31, Type 0, BuildingBlock: NAHDIM_clean_sbu_0, # of connection points: 4
#     Edge 32, Type (0, 0), BuildingBlock: UVAHIK_clean_linker_0, # of connection points: 2
#     Edge 33, Type (0, 0), BuildingBlock: UVAHIK_clean_linker_0, # of connection points: 2
#     Edge 34, Type (0, 0), BuildingBlock: UVAHIK_clean_linker_0, # of connection points: 2
#     Edge 35, Type (0, 0), BuildingBlock: UVAHIK_clean_linker_0, # of connection points: 2
#     Edge 36, Type (0, 0), BuildingBlock: UVAHIK_clean_linker_0, # of connection points: 2
#     Edge 37, Type (0, 0), BuildingBlock: UVAHIK_clean_linker_0, # of connection points: 2
#     Edge 38, Type (0, 0), BuildingBlock: UVAHIK_clean_linker_0, # of connection points: 2
#     Edge 39, Type (0, 0), BuildingBlock: UVAHIK_clean_linker_0, # of connection points: 2
#     Edge 40, Type (0, 0), BuildingBlock: UVAHIK_clean_linker_0, # of connection points: 2
#     Edge 41, Type (0, 0), BuildingBlock: UVAHIK_clean_linker_0, # of connection points: 2
#     Edge 42, Type (0, 0), BuildingBlock: UVAHIK_clean_linker_0, # of connection points: 2
#     Edge 43, Type (0, 0), BuildingBlock: UVAHIK_clean_linker_0, # of connection points: 2
#     Edge 44, Type (0, 0), BuildingBlock: UVAHIK_clean_linker_0, # of connection points: 2
#     Edge 45, Type (0, 0), BuildingBlock: UVAHIK_clean_linker_0, # of connection points: 2
#     Edge 46, Type (0, 0), BuildingBlock: UVAHIK_clean_linker_0, # of connection points: 2
#     Edge 47, Type (0, 0), BuildingBlock: UVAHIK_clean_linker_0, # of connection points: 2
#     Edge 48, Type (0, 0), BuildingBlock: UVAHIK_clean_linker_0, # of connection points: 2
#     Edge 49, Type (0, 0), BuildingBlock: UVAHIK_clean_linker_0, # of connection points: 2
#     Edge 50, Type (0, 0), BuildingBlock: UVAHIK_clean_linker_0, # of connection points: 2
#     Edge 51, Type (0, 0), BuildingBlock: UVAHIK_clean_linker_0, # of connection points: 2
#     Edge 52, Type (0, 0), BuildingBlock: UVAHIK_clean_linker_0, # of connection points: 2
#     Edge 53, Type (0, 0), BuildingBlock: UVAHIK_clean_linker_0, # of connection points: 2
#     Edge 54, Type (0, 0), BuildingBlock: UVAHIK_clean_linker_0, # of connection points: 2
#     Edge 55, Type (0, 0), BuildingBlock: UVAHIK_clean_linker_0, # of connection points: 2
#     Edge 56, Type (0, 0), BuildingBlock: UVAHIK_clean_linker_0, # of connection points: 2
#     Edge 57, Type (0, 0), BuildingBlock: UVAHIK_clean_linker_0, # of connection points: 2
#     Edge 58, Type (0, 0), BuildingBlock: UVAHIK_clean_linker_0, # of connection points: 2
#     Edge 59, Type (0, 0), BuildingBlock: UVAHIK_clean_linker_0, # of connection points: 2
#     Edge 60, Type (0, 0), BuildingBlock: UVAHIK_clean_linker_0, # of connection points: 2
#     Edge 61, Type (0, 0), BuildingBlock: UVAHIK_clean_linker_0, # of connection points: 2
#     Edge 62, Type (0, 0), BuildingBlock: UVAHIK_clean_linker_0, # of connection points: 2
#     Edge 63, Type (0, 0), BuildingBlock: UVAHIK_clean_linker_0, # of connection points: 2
#     Edge 64, Type (0, 0), BuildingBlock: UVAHIK_clean_linker_0, # of connection points: 2
#     Edge 65, Type (0, 0), BuildingBlock: UVAHIK_clean_linker_0, # of connection points: 2
#     Edge 66, Type (0, 0), BuildingBlock: UVAHIK_clean_linker_0, # of connection points: 2
#     Edge 67, Type (0, 0), BuildingBlock: UVAHIK_clean_linker_0, # of connection points: 2
#     Edge 68, Type (0, 0), BuildingBlock: UVAHIK_clean_linker_0, # of connection points: 2
#     Edge 69, Type (0, 0), BuildingBlock: UVAHIK_clean_linker_0, # of connection points: 2
#     Edge 70, Type (0, 0), BuildingBlock: UVAHIK_clean_linker_0, # of connection points: 2
#     Edge 71, Type (0, 0), BuildingBlock: UVAHIK_clean_linker_0, # of connection points: 2
#     Edge 72, Type (0, 0), BuildingBlock: UVAHIK_clean_linker_0, # of connection points: 2
#     Edge 73, Type (0, 0), BuildingBlock: UVAHIK_clean_linker_0, # of connection points: 2
#     Edge 74, Type (0, 0), BuildingBlock: UVAHIK_clean_linker_0, # of connection points: 2
#     Edge 75, Type (0, 0), BuildingBlock: UVAHIK_clean_linker_0, # of connection points: 2
#     Edge 76, Type (0, 0), BuildingBlock: UVAHIK_clean_linker_0, # of connection points: 2
#     Edge 77, Type (0, 0), BuildingBlock: UVAHIK_clean_linker_0, # of connection points: 2
#     Edge 78, Type (0, 0), BuildingBlock: UVAHIK_clean_linker_0, # of connection points: 2
#     Edge 79, Type (0, 0), BuildingBlock: UVAHIK_clean_linker_0, # of connection points: 2
#     Edge 80, Type (0, 0), BuildingBlock: UVAHIK_clean_linker_0, # of connection points: 2
#     Edge 81, Type (0, 0), BuildingBlock: UVAHIK_clean_linker_0, # of connection points: 2
#     Edge 82, Type (0, 0), BuildingBlock: UVAHIK_clean_linker_0, # of connection points: 2
#     Edge 83, Type (0, 0), BuildingBlock: UVAHIK_clean_linker_0, # of connection points: 2
#     Edge 84, Type (0, 0), BuildingBlock: UVAHIK_clean_linker_0, # of connection points: 2
#     Edge 85, Type (0, 0), BuildingBlock: UVAHIK_clean_linker_0, # of connection points: 2
#     Edge 86, Type (0, 0), BuildingBlock: UVAHIK_clean_linker_0, # of connection points: 2
#     Edge 87, Type (0, 0), BuildingBlock: UVAHIK_clean_linker_0, # of connection points: 2
#     Edge 88, Type (0, 0), BuildingBlock: UVAHIK_clean_linker_0, # of connection points: 2
#     Edge 89, Type (0, 0), BuildingBlock: UVAHIK_clean_linker_0, # of connection points: 2
#     Edge 90, Type (0, 0), BuildingBlock: UVAHIK_clean_linker_0, # of connection points: 2
#     Edge 91, Type (0, 0), BuildingBlock: UVAHIK_clean_linker_0, # of connection points: 2
#     Edge 92, Type (0, 0), BuildingBlock: UVAHIK_clean_linker_0, # of connection points: 2
#     Edge 93, Type (0, 0), BuildingBlock: UVAHIK_clean_linker_0, # of connection points: 2
#     Edge 94, Type (0, 0), BuildingBlock: UVAHIK_clean_linker_0, # of connection points: 2
#     Edge 95, Type (0, 0), BuildingBlock: UVAHIK_clean_linker_0, # of connection points: 2
# Relax obj value: 0.186
# Max RMSD: 0.099
# Mean RMSD: 0.099
data_MOF--net-zni--node1-NAHDIM_clean_sbu_0--edge1-UVAHIK_clean_linker_0
_symmetry_space_group_name_H-M    P1
_symmetry_Int_Tables_number       1
_symmetry_cell_setting            triclinic
loop_
_symmetry_equiv_pos_as_xyz
'x, y, z'
_cell_length_a     69.993182
_cell_length_b     70.001094
_cell_length_c     40.860706
_cell_angle_alpha  90.007001
_cell_angle_beta   90.009593
_cell_angle_gamma 89.996382
loop_
_atom_site_label
_atom_site_type_symbol
_atom_site_fract_x
_atom_site_fract_y
_atom_site_fract_z
_atom_type_partial_charge
C0 C 0.14522 0.07111 0.36174 0.0
O1 O 0.13092 0.06767 0.3817 0.0
O2 O 0.14774 0.10503 0.43492 0.0
Zn3 Zn 0.1389 0.10779 0.38823 0.0
O4 O 0.11039 0.10396 0.38626 0.0
C5 C 0.15763 0.1446 0.38531 0.0
O6 O 0.16889 0.1369 0.4074 0.0
O7 O 0.15173 0.08802 0.35985 0.0
C8 C 0.09944 0.11427 0.40366 0.0
O9 O 0.10699 0.12737 0.42272 0.0
C10 C 0.13948 0.09396 0.45511 0.0
O11 O 0.12487 0.08368 0.44527 0.0
O12 O 0.14436 0.13457 0.37282 0.0
C13 C 0.17568 0.90861 0.60552 0.0
O14 O 0.18101 0.9036 0.6351 0.0
O15 O 0.14419 0.89833 0.67318 0.0
Zn16 Zn 0.14109 0.89018 0.62607 0.0
O17 O 0.14725 0.86217 0.62243 0.0
C18 C 0.10273 0.90565 0.62683 0.0
O19 O 0.10989 0.91693 0.64941 0.0
O20 O 0.15875 0.90486 0.59621 0.0
C21 C 0.1374 0.85023 0.63868 0.0
O22 O 0.12343 0.85653 0.65727 0.0
C23 C 0.15541 0.8897 0.69269 0.0
O24 O 0.16586 0.8755 0.6817 0.0
O25 O 0.11358 0.89361 0.61279 0.0
C26 C 0.34802 0.92796 0.8632 0.0
O27 O 0.35446 0.93315 0.89205 0.0
O28 O 0.35637 0.89553 0.93031 0.0
Zn29 Zn 0.36468 0.89255 0.88327 0.0
O30 O 0.39293 0.8977 0.87992 0.0
C31 C 0.34671 0.85542 0.88156 0.0
O32 O 0.33456 0.8636 0.90168 0.0
O33 O 0.3504 0.91079 0.85391 0.0
C34 C 0.40427 0.88734 0.8965 0.0
O35 O 0.39716 0.87376 0.91507 0.0
C36 C 0.36539 0.90599 0.95053 0.0
O37 O 0.38029 0.91576 0.94043 0.0
O38 O 0.36031 0.86526 0.86972 0.0
C39 C 0.32507 0.08559 0.1235 0.0
O40 O 0.32266 0.08302 0.15506 0.0
O41 O 0.35186 0.10215 0.19119 0.0
Zn42 Zn 0.35727 0.10904 0.1442 0.0
O43 O 0.35342 0.13741 0.13854 0.0
C44 C 0.39704 0.10243 0.15666 0.0
O45 O 0.39124 0.10513 0.18688 0.0
O46 O 0.33915 0.09549 0.11351 0.0
C47 C 0.36158 0.14927 0.1575 0.0
O48 O 0.37269 0.14285 0.18095 0.0
C49 C 0.33909 0.11063 0.20786 0.0
O50 O 0.32844 0.12371 0.19374 0.0
O51 O 0.38484 0.10292 0.13358 0.0
C52 C 0.15384 0.92619 0.12821 0.0
O53 O 0.14364 0.93125 0.10268 0.0
O54 O 0.14756 0.89484 0.05797 0.0
Zn55 Zn 0.14144 0.89001 0.10565 0.0
O56 O 0.11325 0.89392 0.11275 0.0
C57 C 0.15546 0.85128 0.09738 0.0
O58 O 0.16119 0.85784 0.06891 0.0
O59 O 0.15567 0.90852 0.13465 0.0
C60 C 0.10138 0.88356 0.09729 0.0
O61 O 0.10785 0.87045 0.07711 0.0
C62 C 0.13706 0.90522 0.03982 0.0
O63 O 0.12195 0.91356 0.05244 0.0
O64 O 0.14737 0.8626 0.1174 0.0
C65 C 0.32558 0.91135 0.37924 0.0
O66 O 0.32412 0.91384 0.34748 0.0
O67 O 0.35462 0.89376 0.3143 0.0
Zn68 Zn 0.35731 0.88638 0.3617 0.0
O69 O 0.35169 0.85828 0.36569 0.0
C70 C 0.3954 0.90256 0.36216 0.0
O71 O 0.38842 0.91355 0.33901 0.0
O72 O 0.33888 0.90085 0.39047 0.0
C73 C 0.36141 0.84654 0.34879 0.0
O74 O 0.37486 0.85313 0.32939 0.0
C75 C 0.34184 0.88625 0.29634 0.0
O76 O 0.3298 0.87401 0.30934 0.0
O77 O 0.38454 0.89045 0.37598 0.0
C78 C 0.33602 0.07894 0.63975 0.0
O79 O 0.33284 0.07735 0.6082 0.0
O80 O 0.35181 0.10788 0.57348 0.0
Zn81 Zn 0.36057 0.11054 0.6202 0.0
O82 O 0.38869 0.10463 0.62239 0.0
C83 C 0.34349 0.14802 0.62284 0.0
O84 O 0.33109 0.14021 0.60274 0.0
O85 O 0.34671 0.09231 0.65015 0.0
C86 C 0.40036 0.11407 0.60492 0.0
O87 O 0.39378 0.1276 0.5857 0.0
C88 C 0.35895 0.0954 0.55449 0.0
O89 O 0.3719 0.08356 0.5659 0.0
O90 O 0.35695 0.13783 0.63434 0.0
C91 C 0.17891 0.09355 0.88825 0.0
O92 O 0.18483 0.09837 0.85891 0.0
O93 O 0.15021 0.10357 0.81804 0.0
Zn94 Zn 0.14445 0.11113 0.86474 0.0
O95 O 0.14893 0.13945 0.86984 0.0
C96 C 0.10465 0.10465 0.85109 0.0
O97 O 0.11082 0.10628 0.82087 0.0
O98 O 0.16173 0.09713 0.89633 0.0
C99 C 0.14002 0.15124 0.85174 0.0
O100 O 0.12784 0.14471 0.83 0.0
C101 C 0.16175 0.11292 0.80014 0.0
O102 O 0.17107 0.12747 0.8127 0.0
O103 O 0.11659 0.10576 0.87451 0.0
C104 C 0.84107 0.92492 0.64016 0.0
O105 O 0.84368 0.93039 0.60976 0.0
O106 O 0.85065 0.89513 0.57034 0.0
Zn107 Zn 0.85955 0.89068 0.61674 0.0
O108 O 0.88787 0.89554 0.61886 0.0
C109 C 0.84395 0.85233 0.613 0.0
O110 O 0.83373 0.85965 0.58912 0.0
O111 O 0.84627 0.90824 0.64866 0.0
C112 C 0.89886 0.88558 0.60089 0.0
O113 O 0.89135 0.8725 0.58174 0.0
C114 C 0.85916 0.90677 0.55142 0.0
O115 O 0.8736 0.91678 0.56273 0.0
O116 O 0.85535 0.86305 0.62878 0.0
C117 C 0.82576 0.08975 0.3874 0.0
O118 O 0.82398 0.08659 0.35587 0.0
O119 O 0.85449 0.10625 0.32069 0.0
Zn120 Zn 0.85755 0.11424 0.36775 0.0
O121 O 0.85211 0.14241 0.37068 0.0
C122 C 0.89571 0.09812 0.36805 0.0
O123 O 0.88874 0.08707 0.34497 0.0
O124 O 0.83923 0.1004 0.39759 0.0
C125 C 0.86167 0.15389 0.35301 0.0
O126 O 0.8749 0.14702 0.33347 0.0
C127 C 0.84146 0.11349 0.30294 0.0
O128 O 0.82942 0.12569 0.31605 0.0
O129 O 0.88484 0.11024 0.38181 0.0
C130 C 0.66292 0.07524 0.13592 0.0
O131 O 0.66493 0.07331 0.10414 0.0
O132 O 0.6475 0.10536 0.07074 0.0
Zn133 Zn 0.63957 0.10802 0.11788 0.0
O134 O 0.61135 0.10281 0.12079 0.0
C135 C 0.65716 0.1454 0.11999 0.0
O136 O 0.66891 0.1377 0.09866 0.0
O137 O 0.65333 0.08925 0.14703 0.0
C138 C 0.59964 0.11477 0.10877 0.0
O139 O 0.60627 0.13036 0.09494 0.0
C140 C 0.63934 0.09343 0.05192 0.0
O141 O 0.62601 0.08219 0.06384 0.0
O142 O 0.64401 0.13518 0.13237 0.0
C143 C 0.67967 0.91016 0.87899 0.0
O144 O 0.68261 0.91055 0.84726 0.0
O145 O 0.64846 0.89608 0.81363 0.0
Zn146 Zn 0.64558 0.88873 0.86105 0.0
O147 O 0.64989 0.86038 0.86464 0.0
C148 C 0.60771 0.90573 0.86125 0.0
O149 O 0.61457 0.91598 0.83702 0.0
O150 O 0.66466 0.90221 0.89003 0.0
C151 C 0.63751 0.84913 0.85254 0.0
O152 O 0.62231 0.85637 0.83832 0.0
C153 C 0.66029 0.88732 0.79541 0.0
O154 O 0.67119 0.874 0.80823 0.0
O155 O 0.61857 0.89388 0.87571 0.0
C156 C 0.84114 0.07314 0.87268 0.0
O157 O 0.84215 0.07019 0.90437 0.0
O158 O 0.85374 0.10568 0.93638 0.0
Zn159 Zn 0.86153 0.10789 0.88903 0.0
O160 O 0.88988 0.1034 0.88565 0.0
C161 C 0.84281 0.14468 0.88561 0.0
O162 O 0.83136 0.13696 0.90738 0.0
O163 O 0.84797 0.08849 0.86084 0.0
C164 C 0.90138 0.11614 0.89579 0.0
O165 O 0.89444 0.13204 0.90811 0.0
C166 C 0.86306 0.09526 0.95623 0.0
O167 O 0.87764 0.08529 0.94538 0.0
O168 O 0.85624 0.13468 0.87355 0.0
C169 C 0.67684 0.09632 0.61695 0.0
O170 O 0.6823 0.10316 0.64538 0.0
O171 O 0.64478 0.1035 0.68583 0.0
Zn172 Zn 0.64106 0.11152 0.63875 0.0
O173 O 0.64575 0.13983 0.63585 0.0
C174 C 0.60349 0.09404 0.6387 0.0
O175 O 0.61114 0.08274 0.66077 0.0
O176 O 0.65939 0.09778 0.60872 0.0
C177 C 0.64952 0.14833 0.60916 0.0
O178 O 0.65045 0.13838 0.58194 0.0
C179 C 0.65542 0.11328 0.70468 0.0
O180 O 0.6644 0.12825 0.69289 0.0
O181 O 0.61375 0.10687 0.62545 0.0
C182 C 0.65543 0.92412 0.36118 0.0
O183 O 0.65001 0.92932 0.39063 0.0
O184 O 0.64669 0.89237 0.42894 0.0
Zn185 Zn 0.6385 0.88883 0.38192 0.0
O186 O 0.61021 0.89367 0.37856 0.0
C187 C 0.6555 0.85112 0.38306 0.0
O188 O 0.66639 0.85877 0.40573 0.0
O189 O 0.65241 0.90704 0.35194 0.0
C190 C 0.59895 0.88335 0.39538 0.0
O191 O 0.60617 0.86994 0.41418 0.0
C192 C 0.63762 0.90311 0.44864 0.0
O193 O 0.62282 0.91282 0.43794 0.0
O194 O 0.64309 0.86145 0.36879 0.0
C195 C 0.82543 0.90928 0.11662 0.0
O196 O 0.81961 0.90603 0.14665 0.0
O197 O 0.85517 0.89941 0.18709 0.0
Zn198 Zn 0.8598 0.89115 0.14043 0.0
O199 O 0.85494 0.86289 0.13731 0.0
C200 C 0.8988 0.90573 0.14454 0.0
O201 O 0.8923 0.9155 0.16964 0.0
O202 O 0.84236 0.90466 0.10859 0.0
C203 C 0.85981 0.85378 0.11176 0.0
O204 O 0.86761 0.86316 0.08732 0.0
C205 C 0.84333 0.89035 0.20485 0.0
O206 O 0.83368 0.87608 0.19205 0.0
O207 O 0.88741 0.89519 0.12841 0.0
C208 C 0.64197 0.58548 0.82946 0.0
O209 O 0.62671 0.59537 0.82148 0.0
O210 O 0.6477 0.60102 0.93425 0.0
Zn211 Zn 0.63728 0.60617 0.88932 0.0
O212 O 0.60876 0.6018 0.88906 0.0
C213 C 0.64259 0.64602 0.9005 0.0
O214 O 0.63989 0.64022 0.93072 0.0
O215 O 0.64952 0.5881 0.85737 0.0
C216 C 0.59804 0.60771 0.91205 0.0
O217 O 0.60571 0.61678 0.93694 0.0
C218 C 0.64212 0.58715 0.95186 0.0
O219 O 0.62945 0.57513 0.94007 0.0
O220 O 0.64246 0.63375 0.87752 0.0
C221 C 0.67351 0.41197 0.11249 0.0
O222 O 0.67534 0.41408 0.14426 0.0
O223 O 0.64267 0.39767 0.17725 0.0
Zn224 Zn 0.64085 0.38852 0.13057 0.0
O225 O 0.64677 0.36037 0.12942 0.0
C226 C 0.60292 0.40469 0.12651 0.0
O227 O 0.6097 0.41653 0.14858 0.0
O228 O 0.65962 0.40223 0.10132 0.0
C229 C 0.63665 0.34888 0.14615 0.0
O230 O 0.62252 0.35571 0.1638 0.0
C231 C 0.65469 0.39047 0.19703 0.0
O232 O 0.66647 0.37721 0.18651 0.0
O233 O 0.61385 0.39197 0.11459 0.0
C234 C 0.85 0.43101 0.36469 0.0
O235 O 0.85899 0.43609 0.39152 0.0
O236 O 0.85479 0.39781 0.43321 0.0
Zn237 Zn 0.863 0.39458 0.38616 0.0
O238 O 0.89138 0.39887 0.38295 0.0
C239 C 0.84492 0.35738 0.38547 0.0
O240 O 0.83385 0.36514 0.40777 0.0
O241 O 0.8494 0.41343 0.35703 0.0
C242 C 0.90242 0.38789 0.39893 0.0
O243 O 0.89493 0.37419 0.41678 0.0
C244 C 0.86422 0.40789 0.45346 0.0
O245 O 0.87954 0.417 0.44341 0.0
O246 O 0.85784 0.36747 0.37212 0.0
C247 C 0.82848 0.58406 0.61331 0.0
O248 O 0.82724 0.5796 0.64444 0.0
O249 O 0.85275 0.60167 0.68199 0.0
Zn250 Zn 0.85914 0.60894 0.63559 0.0
O251 O 0.8553 0.63733 0.63071 0.0
C252 C 0.89839 0.60071 0.65027 0.0
O253 O 0.89174 0.60184 0.68026 0.0
O254 O 0.8414 0.59562 0.60394 0.0
C255 C 0.86341 0.6489 0.65025 0.0
O256 O 0.8745 0.64211 0.67344 0.0
C257 C 0.83913 0.60938 0.69775 0.0
O258 O 0.82832 0.62212 0.68309 0.0
O259 O 0.88693 0.60287 0.62637 0.0
C260 C 0.66503 0.42207 0.62905 0.0
O261 O 0.67211 0.42222 0.59929 0.0
O262 O 0.64849 0.39864 0.55803 0.0
Zn263 Zn 0.64115 0.39128 0.60396 0.0
O264 O 0.6126 0.39338 0.60832 0.0
C265 C 0.65113 0.35272 0.58812 0.0
O266 O 0.64923 0.3596 0.5584 0.0
O267 O 0.65257 0.4096 0.63658 0.0
C268 C 0.60122 0.38604 0.58759 0.0
O269 O 0.60825 0.37653 0.56262 0.0
C270 C 0.64026 0.41199 0.54239 0.0
O271 O 0.627 0.42215 0.55706 0.0
O272 O 0.64879 0.36383 0.61245 0.0
C273 C 0.82351 0.4075 0.88523 0.0
O274 O 0.81843 0.40414 0.85484 0.0
O275 O 0.8543 0.39538 0.81771 0.0
Zn276 Zn 0.85751 0.38745 0.8649 0.0
O277 O 0.85143 0.35943 0.86856 0.0
C278 C 0.89601 0.40281 0.86445 0.0
O279 O 0.88904 0.41427 0.84197 0.0
O280 O 0.83993 0.40217 0.89492 0.0
C281 C 0.8614 0.34766 0.85216 0.0
O282 O 0.87531 0.3542 0.83369 0.0
C283 C 0.84242 0.38695 0.79912 0.0
O284 O 0.83159 0.37336 0.81124 0.0
O285 O 0.88502 0.39077 0.87815 0.0
C286 C 0.83441 0.57885 0.13281 0.0
O287 O 0.82988 0.57613 0.10197 0.0
O288 O 0.84709 0.60454 0.06141 0.0
Zn289 Zn 0.85745 0.60975 0.10644 0.0
O290 O 0.88582 0.60503 0.10629 0.0
C291 C 0.86023 0.64877 0.09442 0.0
O292 O 0.86919 0.64128 0.06923 0.0
O293 O 0.84532 0.59269 0.14038 0.0
C294 C 0.89506 0.60489 0.13305 0.0
O295 O 0.88579 0.60768 0.16061 0.0
C296 C 0.85465 0.59216 0.04271 0.0
O297 O 0.86901 0.58189 0.05362 0.0
O298 O 0.85327 0.63764 0.11592 0.0
C299 C 0.67867 0.59144 0.3846 0.0
O300 O 0.68418 0.59716 0.35551 0.0
O301 O 0.64916 0.59955 0.31501 0.0
Zn302 Zn 0.64354 0.60744 0.36164 0.0
O303 O 0.64764 0.63588 0.36618 0.0
C304 C 0.60382 0.60037 0.34878 0.0
O305 O 0.60986 0.60189 0.31847 0.0
O306 O 0.66134 0.59389 0.39301 0.0
C307 C 0.63818 0.6475 0.34859 0.0
O308 O 0.62567 0.64074 0.3276 0.0
C309 C 0.66021 0.60912 0.29653 0.0
O310 O 0.66892 0.62425 0.30833 0.0
O311 O 0.61583 0.60174 0.37204 0.0
C312 C 0.3365 0.42171 0.13549 0.0
O313 O 0.33189 0.42363 0.10451 0.0
O314 O 0.35131 0.39466 0.06592 0.0
Zn315 Zn 0.36047 0.39043 0.11208 0.0
O316 O 0.38881 0.39518 0.11309 0.0
C317 C 0.34475 0.35212 0.10944 0.0
O318 O 0.33469 0.3592 0.08516 0.0
O319 O 0.34783 0.40841 0.14397 0.0
C320 C 0.39959 0.38568 0.09407 0.0
O321 O 0.3919 0.37296 0.07442 0.0
C322 C 0.35854 0.40761 0.04799 0.0
O323 O 0.3716 0.41899 0.06038 0.0
O324 O 0.35615 0.36296 0.12498 0.0
C325 C 0.32007 0.59754 0.88669 0.0
O326 O 0.31546 0.60657 0.85966 0.0
O327 O 0.35378 0.60506 0.82042 0.0
Zn328 Zn 0.35673 0.61173 0.86834 0.0
O329 O 0.35236 0.63999 0.87358 0.0
C330 C 0.39504 0.59595 0.8661 0.0
O331 O 0.38874 0.58798 0.83906 0.0
O332 O 0.33746 0.59739 0.89571 0.0
C333 C 0.36367 0.6514 0.85909 0.0
O334 O 0.37787 0.64432 0.84188 0.0
C335 C 0.34361 0.61513 0.80124 0.0
O336 O 0.3344 0.63 0.81293 0.0
O337 O 0.38371 0.60613 0.88307 0.0
C338 C 0.14601 0.57379 0.62743 0.0
O339 O 0.1333 0.57003 0.60467 0.0
O340 O 0.15072 0.60675 0.55453 0.0
Zn341 Zn 0.14047 0.61046 0.60021 0.0
O342 O 0.11186 0.60714 0.5997 0.0
C343 C 0.15888 0.64759 0.60274 0.0
O344 O 0.17009 0.64016 0.58033 0.0
O345 O 0.15195 0.59085 0.63061 0.0
C346 C 0.10276 0.60543 0.62644 0.0
O347 O 0.11227 0.60593 0.65416 0.0
C348 C 0.14191 0.5964 0.53391 0.0
O349 O 0.12599 0.5879 0.54272 0.0
O350 O 0.14584 0.63732 0.61535 0.0
C351 C 0.17598 0.41246 0.3853 0.0
O352 O 0.17749 0.41519 0.35361 0.0
O353 O 0.14709 0.3952 0.31979 0.0
Zn354 Zn 0.14428 0.3876 0.36707 0.0
O355 O 0.14983 0.35947 0.37052 0.0
C356 C 0.10638 0.40419 0.36798 0.0
O357 O 0.11362 0.4156 0.34566 0.0
O358 O 0.16267 0.40187 0.39623 0.0
C359 C 0.14008 0.34792 0.35329 0.0
O360 O 0.12664 0.35472 0.33408 0.0
C361 C 0.16011 0.38789 0.30208 0.0
O362 O 0.17226 0.37586 0.31533 0.0
O363 O 0.11703 0.39166 0.38118 0.0
C364 C 0.34674 0.56975 0.3668 0.0
O365 O 0.35528 0.56463 0.39405 0.0
O366 O 0.35313 0.60331 0.4345 0.0
Zn367 Zn 0.36091 0.60604 0.38719 0.0
O368 O 0.38917 0.60108 0.38342 0.0
C369 C 0.34322 0.64342 0.38584 0.0
O370 O 0.33207 0.6359 0.40826 0.0
O371 O 0.34681 0.58727 0.35865 0.0
C372 C 0.40084 0.61358 0.39387 0.0
O373 O 0.39414 0.62947 0.40657 0.0
C374 C 0.36285 0.59342 0.45461 0.0
O375 O 0.37803 0.58423 0.44416 0.0
O376 O 0.35604 0.63312 0.37267 0.0
C377 C 0.16703 0.58203 0.10545 0.0
O378 O 0.16752 0.57565 0.13566 0.0
O379 O 0.14658 0.60104 0.17689 0.0
Zn380 Zn 0.13883 0.60863 0.1313 0.0
O381 O 0.14274 0.63701 0.12608 0.0
C382 C 0.09984 0.60258 0.14944 0.0
O383 O 0.10716 0.60583 0.17851 0.0
O384 O 0.15544 0.59534 0.09803 0.0
C385 C 0.13784 0.64878 0.14823 0.0
O386 O 0.12986 0.64233 0.17515 0.0
C387 C 0.16143 0.60754 0.1909 0.0
O388 O 0.17269 0.61927 0.17485 0.0
O389 O 0.11081 0.60268 0.12461 0.0
C390 C 0.14834 0.42842 0.86497 0.0
O391 O 0.13678 0.43264 0.88924 0.0
O392 O 0.14734 0.39517 0.93564 0.0
Zn393 Zn 0.13937 0.39161 0.88854 0.0
O394 O 0.11092 0.39527 0.88481 0.0
C395 C 0.1575 0.35439 0.88922 0.0
O396 O 0.16757 0.36193 0.91308 0.0
O397 O 0.15232 0.41099 0.85958 0.0
C398 C 0.0997 0.38409 0.90002 0.0
O399 O 0.10698 0.3703 0.91791 0.0
C400 C 0.13747 0.40484 0.95585 0.0
O401 O 0.12179 0.41329 0.94576 0.0
O402 O 0.14522 0.36464 0.87446 0.0
C403 C 0.32503 0.41026 0.61442 0.0
O404 O 0.31982 0.40673 0.64467 0.0
O405 O 0.35556 0.39899 0.68266 0.0
Zn406 Zn 0.35951 0.39124 0.63547 0.0
O407 O 0.35423 0.36307 0.63165 0.0
C408 C 0.39884 0.40432 0.64018 0.0
O409 O 0.39289 0.41217 0.66755 0.0
O410 O 0.34168 0.40542 0.6051 0.0
C411 C 0.36463 0.35153 0.64777 0.0
O412 O 0.37852 0.35838 0.66594 0.0
C413 C 0.34378 0.39001 0.70067 0.0
O414 O 0.33363 0.37609 0.6879 0.0
O415 O 0.38698 0.39533 0.62233 0.0
C416 C 0.16848 0.05869 0.31995 0.0
C417 C 0.15278 0.05564 0.34076 0.0
C418 C 0.17476 0.04419 0.29893 0.0
C419 C 0.16912 0.99203 0.28155 0.0
H420 H 0.17919 0.00729 0.19205 0.0
C421 C 0.17172 0.93598 0.17885 0.0
C422 C 0.16114 0.94096 0.15089 0.0
C423 C 0.17663 0.94989 0.20199 0.0
C424 C 0.17642 0.00276 0.21694 0.0
H425 H 0.1317 0.03484 0.35642 0.0
H426 H 0.14219 0.00995 0.31943 0.0
H427 H 0.1761 0.03156 0.23427 0.0
H428 H 0.14829 0.96458 0.12445 0.0
H429 H 0.15625 0.98853 0.16491 0.0
H430 H 0.1679 0.96337 0.26386 0.0
C431 C 0.15002 0.02329 0.31968 0.0
C432 C 0.17491 0.0167 0.24129 0.0
C433 C 0.14385 0.03768 0.34075 0.0
C434 C 0.1564 0.96023 0.14576 0.0
C435 C 0.16116 0.97405 0.16892 0.0
C436 C 0.17039 0.97812 0.25715 0.0
C437 C 0.16542 0.02639 0.29823 0.0
C438 C 0.17053 0.01154 0.27369 0.0
C439 C 0.17096 0.96903 0.19771 0.0
C440 C 0.17336 0.98337 0.22432 0.0
H441 H 0.17576 0.07234 0.31957 0.0
H442 H 0.1868 0.047 0.28301 0.0
H443 H 0.16621 0.9875 0.3064 0.0
H444 H 0.17575 0.92128 0.18334 0.0
H445 H 0.18447 0.94556 0.2236 0.0
C446 C 0.18449 0.92168 0.55035 0.0
C447 C 0.18985 0.91646 0.58227 0.0
C448 C 0.19832 0.92702 0.5274 0.0
C449 C 0.25003 0.93944 0.51823 0.0
H450 H 0.24408 0.91499 0.4337 0.0
C451 C 0.31269 0.91717 0.43551 0.0
C452 C 0.31059 0.91874 0.40141 0.0
C453 C 0.29764 0.922 0.45636 0.0
C454 C 0.24582 0.92224 0.45693 0.0
H455 H 0.21384 0.91367 0.61558 0.0
H456 H 0.23788 0.92244 0.57557 0.0
H457 H 0.21785 0.91429 0.47261 0.0
H458 H 0.29139 0.92753 0.36253 0.0
H459 H 0.26503 0.93579 0.39902 0.0
H460 H 0.27847 0.94645 0.5029 0.0
C461 C 0.22302 0.92276 0.56823 0.0
C462 C 0.23075 0.92189 0.47928 0.0
C463 C 0.2092 0.91757 0.59118 0.0
C464 C 0.29344 0.92609 0.38868 0.0
C465 C 0.27831 0.93075 0.40954 0.0
C466 C 0.26518 0.93964 0.49594 0.0
C467 C 0.21781 0.92714 0.53584 0.0
C468 C 0.23282 0.93006 0.51053 0.0
C469 C 0.28013 0.92836 0.44353 0.0
C470 C 0.26336 0.93065 0.46536 0.0
H471 H 0.16966 0.92116 0.5428 0.0
H472 H 0.19377 0.93063 0.50284 0.0
H473 H 0.25198 0.94622 0.54182 0.0
H474 H 0.32576 0.91165 0.4461 0.0
H475 H 0.2994 0.91985 0.48244 0.0
C476 C 0.32156 0.04681 0.65043 0.0
C477 C 0.32935 0.06393 0.66252 0.0
C478 C 0.31774 0.03159 0.67157 0.0
C479 C 0.31266 0.018 0.7588 0.0
H480 H 0.33698 0.97087 0.73142 0.0
C481 C 0.33933 0.9617 0.84994 0.0
C482 C 0.33967 0.94235 0.84087 0.0
C483 C 0.33323 0.97563 0.82786 0.0
C484 C 0.32969 0.98372 0.73928 0.0
H485 H 0.33802 0.07895 0.70653 0.0
H486 H 0.33133 0.05243 0.74336 0.0
H487 H 0.33438 0.99727 0.69308 0.0
H488 H 0.33287 0.92231 0.80208 0.0
H489 H 0.3219 0.94664 0.76364 0.0
H490 H 0.30837 0.00459 0.80529 0.0
C491 C 0.32817 0.05075 0.71756 0.0
C492 C 0.32823 0.99889 0.71725 0.0
C493 C 0.33214 0.06591 0.69641 0.0
C494 C 0.33294 0.93713 0.80972 0.0
C495 C 0.32673 0.95108 0.78764 0.0
C496 C 0.31399 0.00277 0.78079 0.0
C497 C 0.32144 0.03326 0.70525 0.0
C498 C 0.32018 0.01637 0.72705 0.0
C499 C 0.3272 0.97055 0.79621 0.0
C500 C 0.32305 0.98564 0.77159 0.0
H501 H 0.31916 0.04484 0.62446 0.0
H502 H 0.31236 0.01832 0.66147 0.0
H503 H 0.30614 0.03123 0.76686 0.0
H504 H 0.34439 0.96623 0.87377 0.0
H505 H 0.33405 0.99047 0.8352 0.0
C506 C 0.21212 0.08458 0.90453 0.0
C507 C 0.19263 0.08586 0.91244 0.0
C508 C 0.2255 0.07925 0.92816 0.0
C509 C 0.23188 0.07961 0.0175 0.0
H510 H 0.2793 0.05388 0.99581 0.0
C511 C 0.2926 0.0723 0.1115 0.0
C512 C 0.31029 0.07911 0.10011 0.0
C513 C 0.27774 0.06852 0.08958 0.0
C514 C 0.26609 0.06103 0.00222 0.0
H515 H 0.17175 0.08148 0.95093 0.0
H516 H 0.19509 0.0718 0.99211 0.0
H517 H 0.25353 0.05513 0.95556 0.0
H518 H 0.32663 0.08618 0.05665 0.0
H519 H 0.30073 0.0795 0.01843 0.0
H520 H 0.24458 0.08578 0.06392 0.0
C521 C 0.20009 0.07535 0.96777 0.0
C522 C 0.25135 0.06181 0.97917 0.0
C523 C 0.18669 0.0808 0.94413 0.0
C524 C 0.31315 0.08104 0.06623 0.0
C525 C 0.29834 0.07709 0.0443 0.0
C526 C 0.24654 0.07867 0.04061 0.0
C527 C 0.21971 0.07493 0.96027 0.0
C528 C 0.23426 0.07158 0.9862 0.0
C529 C 0.28035 0.07127 0.05582 0.0
C530 C 0.26398 0.06981 0.03292 0.0
H531 H 0.2172 0.08835 0.88034 0.0
H532 H 0.24047 0.07937 0.92153 0.0
H533 H 0.21906 0.08749 0.02367 0.0
H534 H 0.28995 0.07059 0.13745 0.0
H535 H 0.26407 0.06386 0.09909 0.0
C536 C 0.83165 0.95803 0.65653 0.0
C537 C 0.83417 0.93873 0.6649 0.0
C538 C 0.8273 0.97156 0.68052 0.0
C539 C 0.83329 0.97908 0.76895 0.0
H540 H 0.80419 0.02514 0.75164 0.0
C541 C 0.82947 0.03977 0.86331 0.0
C542 C 0.83416 0.05786 0.8507 0.0
C543 C 0.82509 0.02466 0.84227 0.0
C544 C 0.81233 0.01233 0.75682 0.0
H545 H 0.8329 0.91828 0.70472 0.0
H546 H 0.82492 0.94184 0.74653 0.0
H547 H 0.80401 0.99914 0.71174 0.0
H548 H 0.83681 0.07454 0.80618 0.0
H549 H 0.82921 0.04815 0.7695 0.0
H550 H 0.84193 0.99239 0.81364 0.0
C551 C 0.82678 0.9466 0.72151 0.0
C552 C 0.81227 0.99745 0.73396 0.0
C553 C 0.83125 0.93308 0.69752 0.0
C554 C 0.83336 0.06076 0.81669 0.0
C555 C 0.82888 0.04567 0.79566 0.0
C556 C 0.83325 0.99387 0.79184 0.0
C557 C 0.82523 0.96608 0.71344 0.0
C558 C 0.82313 0.98083 0.73941 0.0
C559 C 0.82517 0.02734 0.8082 0.0
C560 C 0.82312 0.01083 0.7857 0.0
H561 H 0.83376 0.96288 0.63161 0.0
H562 H 0.82644 0.98643 0.67341 0.0
H563 H 0.84207 0.96666 0.77378 0.0
H564 H 0.82983 0.03707 0.88941 0.0
H565 H 0.82205 0.01074 0.85264 0.0
C566 C 0.79374 0.07519 0.39878 0.0
C567 C 0.81096 0.08297 0.41048 0.0
C568 C 0.77879 0.07108 0.42035 0.0
C569 C 0.76649 0.06485 0.50791 0.0
H570 H 0.71844 0.08832 0.48314 0.0
C571 C 0.71067 0.08892 0.60205 0.0
C572 C 0.69119 0.0887 0.59377 0.0
C573 C 0.72448 0.08355 0.57921 0.0
C574 C 0.73157 0.08128 0.49026 0.0
H575 H 0.8264 0.09143 0.45417 0.0
H576 H 0.80036 0.08424 0.49172 0.0
H577 H 0.74441 0.0868 0.44373 0.0
H578 H 0.67086 0.0817 0.55553 0.0
H579 H 0.69501 0.07204 0.51573 0.0
H580 H 0.75379 0.05973 0.55474 0.0
C581 C 0.79841 0.0813 0.46591 0.0
C582 C 0.74649 0.08043 0.46762 0.0
C583 C 0.81329 0.08555 0.44435 0.0
C584 C 0.68577 0.08218 0.56259 0.0
C585 C 0.69961 0.07672 0.53973 0.0
C586 C 0.75152 0.06558 0.53052 0.0
C587 C 0.78083 0.07448 0.45406 0.0
C588 C 0.76427 0.07268 0.47649 0.0
C589 C 0.71917 0.07773 0.54756 0.0
C590 C 0.73406 0.0743 0.52226 0.0
H591 H 0.79151 0.07295 0.37283 0.0
H592 H 0.76547 0.06565 0.41057 0.0
H593 H 0.77996 0.05855 0.51526 0.0
H594 H 0.71535 0.09384 0.62587 0.0
H595 H 0.73939 0.08478 0.586 0.0
C596 C 0.66873 0.93327 0.30633 0.0
C597 C 0.66319 0.93848 0.33816 0.0
C598 C 0.67425 0.94722 0.28371 0.0
C599 C 0.68716 0.99881 0.27572 0.0
H600 H 0.66383 0.99352 0.19015 0.0
C601 C 0.66785 0.06221 0.19237 0.0
C602 C 0.66963 0.06005 0.15831 0.0
C603 C 0.67196 0.047 0.21335 0.0
C604 C 0.67078 0.99508 0.21368 0.0
H605 H 0.6599 0.96232 0.37163 0.0
H606 H 0.66903 0.98657 0.33218 0.0
H607 H 0.66216 0.96718 0.22877 0.0
H608 H 0.67814 0.04054 0.11968 0.0
H609 H 0.68521 0.01396 0.15639 0.0
H610 H 0.69493 0.02715 0.26094 0.0
C611 C 0.66946 0.97174 0.32468 0.0
C612 C 0.66986 0.97995 0.23587 0.0
C613 C 0.66405 0.95781 0.34729 0.0
C614 C 0.67651 0.04265 0.14579 0.0
C615 C 0.6805 0.02739 0.16678 0.0
C616 C 0.68796 0.01401 0.25358 0.0
C617 C 0.67426 0.96667 0.29241 0.0
C618 C 0.67763 0.98178 0.26745 0.0
C619 C 0.67784 0.02928 0.20071 0.0
C620 C 0.6794 0.01245 0.2226 0.0
H621 H 0.66839 0.91847 0.29861 0.0
H622 H 0.67817 0.94279 0.25922 0.0
H623 H 0.69363 0.00057 0.29961 0.0
H624 H 0.66267 0.07546 0.20281 0.0
H625 H 0.66962 0.04886 0.23936 0.0
C626 C 0.71279 0.92212 0.88995 0.0
C627 C 0.69466 0.91691 0.90177 0.0
C628 C 0.72764 0.92631 0.91166 0.0
C629 C 0.73887 0.93785 0.99799 0.0
H630 H 0.7852 0.90908 0.98138 0.0
C631 C 0.79234 0.91824 0.09938 0.0
C632 C 0.81178 0.91618 0.09161 0.0
C633 C 0.77902 0.92259 0.07506 0.0
C634 C 0.77259 0.91759 0.98614 0.0
H635 H 0.67762 0.91305 0.94563 0.0
H636 H 0.70354 0.92036 0.98347 0.0
H637 H 0.75991 0.90939 0.94064 0.0
H638 H 0.83266 0.91822 0.05253 0.0
H639 H 0.80944 0.9262 0.01017 0.0
H640 H 0.75142 0.94576 0.0438 0.0
C641 C 0.70626 0.92124 0.95742 0.0
C642 C 0.75805 0.91773 0.96275 0.0
C643 C 0.69144 0.91693 0.93573 0.0
C644 C 0.81775 0.91953 0.05927 0.0
C645 C 0.80443 0.924 0.03495 0.0
C646 C 0.75348 0.93783 0.02133 0.0
C647 C 0.72463 0.92552 0.94563 0.0
C648 C 0.74087 0.9275 0.96873 0.0
C649 C 0.78483 0.92512 0.0424 0.0
C650 C 0.77034 0.92732 0.01602 0.0
H651 H 0.71573 0.92234 0.86393 0.0
H652 H 0.7416 0.92977 0.90188 0.0
H653 H 0.72587 0.94571 0.00305 0.0
H654 H 0.78725 0.91578 0.12405 0.0
H655 H 0.76405 0.9231 0.08169 0.0
C656 C 0.68016 0.45367 0.64181 0.0
C657 C 0.66919 0.43792 0.65195 0.0
C658 C 0.68176 0.46984 0.66172 0.0
C659 C 0.6731 0.48816 0.74585 0.0
H660 H 0.66307 0.53601 0.70121 0.0
C661 C 0.66502 0.55908 0.81661 0.0
C662 C 0.64925 0.57034 0.80746 0.0
C663 C 0.67089 0.54378 0.79704 0.0
C664 C 0.6659 0.52277 0.71404 0.0
H665 H 0.65227 0.42636 0.6918 0.0
H666 H 0.65495 0.45454 0.72629 0.0
H667 H 0.66757 0.50693 0.6694 0.0
H668 H 0.62767 0.57471 0.77009 0.0
H669 H 0.63776 0.54795 0.73623 0.0
H670 H 0.67051 0.50386 0.79056 0.0
C671 C 0.66241 0.4544 0.70307 0.0
C672 C 0.66872 0.50613 0.6958 0.0
C673 C 0.66077 0.43827 0.68317 0.0
C674 C 0.63988 0.56634 0.77784 0.0
C675 C 0.64575 0.55106 0.7583 0.0
C676 C 0.67028 0.50481 0.7641 0.0
C677 C 0.6725 0.47057 0.69222 0.0
C678 C 0.67195 0.48856 0.71152 0.0
C679 C 0.66115 0.53943 0.76789 0.0
C680 C 0.66624 0.52223 0.74842 0.0
H681 H 0.68692 0.45383 0.61798 0.0
H682 H 0.68989 0.48196 0.65289 0.0
H683 H 0.67577 0.47489 0.75868 0.0
H684 H 0.67262 0.56184 0.83921 0.0
H685 H 0.68296 0.53525 0.80489 0.0
C686 C 0.79021 0.41727 0.8996 0.0
C687 C 0.80946 0.41531 0.90874 0.0
C688 C 0.77643 0.42238 0.92269 0.0
C689 C 0.76833 0.41997 0.0116 0.0
H690 H 0.7214 0.44633 0.98905 0.0
C691 C 0.70611 0.42556 0.10282 0.0
C692 C 0.68865 0.41888 0.09019 0.0
C693 C 0.7213 0.42981 0.08187 0.0
C694 C 0.73447 0.43901 0.9957 0.0
H695 H 0.82956 0.41843 0.94878 0.0
H696 H 0.80557 0.42784 0.98895 0.0
H697 H 0.7479 0.44588 0.95015 0.0
H698 H 0.67307 0.41257 0.04558 0.0
H699 H 0.69956 0.42008 0.00904 0.0
H700 H 0.75479 0.41286 0.05689 0.0
C701 C 0.80103 0.4249 0.96412 0.0
C702 C 0.74963 0.43868 0.97341 0.0
C703 C 0.8148 0.41961 0.94106 0.0
C704 C 0.68636 0.41758 0.05609 0.0
C705 C 0.7015 0.42201 0.03514 0.0
C706 C 0.75327 0.42048 0.03396 0.0
C707 C 0.78159 0.42584 0.95543 0.0
C708 C 0.76656 0.4287 0.98073 0.0
C709 C 0.71927 0.42768 0.04786 0.0
C710 C 0.73602 0.42957 0.02591 0.0
H711 H 0.7856 0.41407 0.87489 0.0
H712 H 0.76161 0.4227 0.9151 0.0
H713 H 0.78099 0.41188 0.01796 0.0
H714 H 0.70832 0.4268 0.12897 0.0
H715 H 0.73479 0.43434 0.0923 0.0
C716 C 0.83294 0.44065 0.31322 0.0
C717 C 0.84203 0.44576 0.34262 0.0
C718 C 0.82688 0.45473 0.29125 0.0
C719 C 0.81846 0.50714 0.28306 0.0
H720 H 0.83244 0.49826 0.19253 0.0
C721 C 0.83408 0.56724 0.19079 0.0
C722 C 0.8289 0.56461 0.15786 0.0
C723 C 0.83099 0.55277 0.21372 0.0
C724 C 0.82808 0.50087 0.21757 0.0
H725 H 0.85121 0.46965 0.37259 0.0
H726 H 0.84104 0.49407 0.33417 0.0
H727 H 0.83554 0.47252 0.23209 0.0
H728 H 0.81544 0.54513 0.12357 0.0
H729 H 0.81009 0.51986 0.16366 0.0
H730 H 0.8118 0.5358 0.26859 0.0
C731 C 0.8383 0.47926 0.32817 0.0
C732 C 0.82984 0.48608 0.24029 0.0
C733 C 0.84429 0.46521 0.35013 0.0
C734 C 0.81971 0.54757 0.1487 0.0
C735 C 0.81671 0.53306 0.17161 0.0
C736 C 0.81679 0.52197 0.26034 0.0
C737 C 0.82982 0.4742 0.29821 0.0
C738 C 0.82548 0.48916 0.27347 0.0
C739 C 0.82272 0.53534 0.20419 0.0
C740 C 0.82199 0.5191 0.22749 0.0
H741 H 0.83085 0.42578 0.30683 0.0
H742 H 0.82015 0.45036 0.26859 0.0
H743 H 0.81463 0.50989 0.30831 0.0
H744 H 0.84113 0.58023 0.19868 0.0
H745 H 0.83593 0.55491 0.23857 0.0
C746 C 0.68755 0.57819 0.43971 0.0
C747 C 0.69292 0.58394 0.40807 0.0
C748 C 0.70142 0.5728 0.46259 0.0
C749 C 0.75326 0.56073 0.47113 0.0
H750 H 0.74702 0.58274 0.55755 0.0
C751 C 0.81561 0.58088 0.55637 0.0
C752 C 0.81355 0.57769 0.59013 0.0
C753 C 0.8006 0.57689 0.53491 0.0
C754 C 0.74885 0.57619 0.53372 0.0
H755 H 0.717 0.5878 0.37526 0.0
H756 H 0.74105 0.57897 0.41512 0.0
H757 H 0.7208 0.58433 0.51856 0.0
H758 H 0.79439 0.567 0.62768 0.0
H759 H 0.76808 0.56028 0.59016 0.0
H760 H 0.78175 0.55356 0.48598 0.0
C761 C 0.72617 0.57823 0.42229 0.0
C762 C 0.73379 0.57705 0.51135 0.0
C763 C 0.71234 0.58348 0.39943 0.0
C764 C 0.79644 0.56966 0.60181 0.0
C765 C 0.78134 0.56588 0.58039 0.0
C766 C 0.76839 0.56006 0.49342 0.0
C767 C 0.72094 0.57314 0.45435 0.0
C768 C 0.73596 0.56975 0.47949 0.0
C769 C 0.78315 0.5698 0.54683 0.0
C770 C 0.76646 0.56816 0.52468 0.0
H771 H 0.67268 0.57825 0.44704 0.0
H772 H 0.69686 0.56868 0.48691 0.0
H773 H 0.7553 0.5546 0.44706 0.0
H774 H 0.82864 0.58698 0.5466 0.0
H775 H 0.80234 0.5802 0.50919 0.0
C776 C 0.32123 0.45303 0.1497 0.0
C777 C 0.33032 0.43612 0.1598 0.0
C778 C 0.31749 0.46762 0.17218 0.0
C779 C 0.31504 0.47895 0.26075 0.0
H780 H 0.33434 0.52843 0.23388 0.0
C781 C 0.34065 0.53559 0.35231 0.0
C782 C 0.33879 0.55506 0.34458 0.0
C783 C 0.33493 0.52159 0.33005 0.0
C784 C 0.32846 0.51486 0.24166 0.0
H785 H 0.34162 0.42082 0.20174 0.0
H786 H 0.33512 0.44624 0.24084 0.0
H787 H 0.33231 0.50266 0.19414 0.0
H788 H 0.32852 0.57511 0.30812 0.0
H789 H 0.31828 0.55061 0.26938 0.0
H790 H 0.31164 0.49103 0.30851 0.0
C791 C 0.33083 0.44823 0.2156 0.0
C792 C 0.32732 0.50006 0.21883 0.0
C793 C 0.33468 0.4337 0.19312 0.0
C794 C 0.33029 0.56022 0.31469 0.0
C795 C 0.3245 0.54619 0.29244 0.0
C796 C 0.31608 0.49379 0.28357 0.0
C797 C 0.32262 0.46552 0.20524 0.0
C798 C 0.32108 0.48181 0.22833 0.0
C799 C 0.32714 0.5267 0.29957 0.0
C800 C 0.32331 0.51178 0.2745 0.0
H801 H 0.3176 0.4553 0.12423 0.0
H802 H 0.31096 0.48072 0.16357 0.0
H803 H 0.3099 0.4651 0.26865 0.0
H804 H 0.34711 0.53111 0.37514 0.0
H805 H 0.33742 0.50675 0.33623 0.0
C806 C 0.18029 0.58154 0.04859 0.0
C807 C 0.18158 0.5758 0.08147 0.0
C808 C 0.19525 0.57789 0.02688 0.0
C809 C 0.24682 0.57312 0.02759 0.0
H810 H 0.24022 0.56076 0.93579 0.0
C811 C 0.30945 0.5797 0.93684 0.0
C812 C 0.30495 0.58905 0.90739 0.0
C813 C 0.29492 0.57314 0.9575 0.0
C814 C 0.2423 0.56428 0.96135 0.0
H815 H 0.19913 0.56079 0.1169 0.0
H816 H 0.22537 0.55459 0.07893 0.0
H817 H 0.21316 0.55792 0.9732 0.0
H818 H 0.28169 0.59818 0.87596 0.0
H819 H 0.2565 0.58724 0.91211 0.0
H820 H 0.27561 0.58046 0.01568 0.0
C821 C 0.21278 0.56197 0.07009 0.0
C822 C 0.22682 0.56258 0.98275 0.0
C823 C 0.19773 0.56546 0.09175 0.0
C824 C 0.28567 0.59107 0.89848 0.0
C825 C 0.27119 0.58461 0.91914 0.0
C826 C 0.26225 0.57497 0.00617 0.0
C827 C 0.21188 0.56854 0.03764 0.0
C828 C 0.22881 0.56745 0.01592 0.0
C829 C 0.2756 0.57585 0.94917 0.0
C830 C 0.26005 0.57107 0.97261 0.0
H831 H 0.168 0.58945 0.03987 0.0
H832 H 0.1942 0.58327 0.00208 0.0
H833 H 0.24873 0.57718 0.05296 0.0
H834 H 0.32418 0.57779 0.94428 0.0
H835 H 0.29883 0.56621 0.98023 0.0
C836 C 0.16707 0.43948 0.81606 0.0
C837 C 0.15503 0.44365 0.84263 0.0
C838 C 0.17179 0.45368 0.79335 0.0
C839 C 0.16893 0.50636 0.77836 0.0
H840 H 0.1645 0.49085 0.68763 0.0
C841 C 0.16636 0.56193 0.67389 0.0
C842 C 0.15227 0.55854 0.65007 0.0
C843 C 0.17134 0.54764 0.69629 0.0
C844 C 0.16576 0.49544 0.71285 0.0
H845 H 0.13917 0.46618 0.86697 0.0
H846 H 0.14689 0.49064 0.82719 0.0
H847 H 0.1648 0.46671 0.73032 0.0
H848 H 0.13266 0.53736 0.63067 0.0
H849 H 0.1409 0.5128 0.66996 0.0
H850 H 0.1685 0.53515 0.76099 0.0
C851 C 0.15305 0.47658 0.82401 0.0
C852 C 0.16623 0.48155 0.73737 0.0
C853 C 0.14846 0.46246 0.84675 0.0
C854 C 0.14361 0.54046 0.64864 0.0
C855 C 0.14849 0.52627 0.67106 0.0
C856 C 0.16827 0.52026 0.75384 0.0
C857 C 0.16448 0.47232 0.79667 0.0
C858 C 0.16722 0.48686 0.77051 0.0
C859 C 0.16228 0.5297 0.69539 0.0
C860 C 0.16606 0.51498 0.72085 0.0
H861 H 0.17251 0.42515 0.81236 0.0
H862 H 0.18087 0.44996 0.77286 0.0
H863 H 0.17012 0.51095 0.80358 0.0
H864 H 0.17338 0.57569 0.67549 0.0
H865 H 0.18218 0.5507 0.71446 0.0
C866 C 0.18862 0.41817 0.44177 0.0
C867 C 0.19092 0.41968 0.40771 0.0
C868 C 0.20361 0.42286 0.46286 0.0
C869 C 0.25535 0.42239 0.46446 0.0
H870 H 0.2492 0.4474 0.54846 0.0
C871 C 0.31642 0.42221 0.55843 0.0
C872 C 0.31097 0.41776 0.59063 0.0
C873 C 0.30269 0.4273 0.53515 0.0
C874 C 0.25115 0.44031 0.52515 0.0
H875 H 0.21044 0.4282 0.36911 0.0
H876 H 0.2367 0.43617 0.40602 0.0
H877 H 0.22287 0.44755 0.50922 0.0
H878 H 0.28693 0.41599 0.62402 0.0
H879 H 0.26303 0.42426 0.58342 0.0
H880 H 0.28313 0.41418 0.48076 0.0
C881 C 0.22329 0.43132 0.41632 0.0
C882 C 0.23609 0.44048 0.50266 0.0
C883 C 0.20823 0.42681 0.39524 0.0
C884 C 0.29163 0.41932 0.59941 0.0
C885 C 0.2779 0.42422 0.57611 0.0
C886 C 0.27032 0.42204 0.48703 0.0
C887 C 0.22126 0.429 0.45029 0.0
C888 C 0.23792 0.43117 0.47238 0.0
C889 C 0.28319 0.42788 0.5435 0.0
C890 C 0.26826 0.43061 0.51797 0.0
H891 H 0.17543 0.41281 0.45215 0.0
H892 H 0.20169 0.42079 0.48892 0.0
H893 H 0.25709 0.41488 0.44147 0.0
H894 H 0.33125 0.42133 0.55098 0.0
H895 H 0.30733 0.43038 0.51042 0.0
C896 C 0.14615 0.17376 0.35567 0.0
C897 C 0.15901 0.16523 0.37769 0.0
C898 C 0.14623 0.19352 0.35083 0.0
C899 C 0.15955 0.23797 0.39283 0.0
H900 H 0.15031 0.26104 0.30802 0.0
C901 C 0.15844 0.31979 0.37466 0.0
C902 C 0.14382 0.32712 0.35468 0.0
C903 C 0.16182 0.30013 0.37614 0.0
C904 C 0.15275 0.2548 0.33192 0.0
H905 H 0.18256 0.17072 0.41093 0.0
H906 H 0.18279 0.20519 0.40226 0.0
H907 H 0.15394 0.22646 0.3123 0.0
H908 H 0.12137 0.31955 0.32045 0.0
H909 H 0.1271 0.28528 0.32337 0.0
H910 H 0.15806 0.26624 0.41255 0.0
C911 C 0.17245 0.19661 0.38911 0.0
C912 C 0.15486 0.235 0.33435 0.0
C913 C 0.17239 0.17683 0.39391 0.0
C914 C 0.13276 0.31438 0.33605 0.0
C915 C 0.13613 0.29473 0.33754 0.0
C916 C 0.15743 0.25776 0.3904 0.0
C917 C 0.15916 0.20521 0.36793 0.0
C918 C 0.15811 0.22634 0.36488 0.0
C919 C 0.15066 0.28736 0.35768 0.0
C920 C 0.15383 0.2664 0.35996 0.0
H921 H 0.13564 0.16525 0.34277 0.0
H922 H 0.13568 0.1997 0.33458 0.0
H923 H 0.16174 0.23173 0.41679 0.0
H924 H 0.16729 0.32923 0.38921 0.0
H925 H 0.17326 0.29493 0.3916 0.0
C926 C 0.92793 0.90251 0.62208 0.0
C927 C 0.91977 0.88872 0.60134 0.0
C928 C 0.94771 0.90526 0.62272 0.0
C929 C 0.99296 0.88074 0.60344 0.0
H930 H 0.0147 0.93157 0.60962 0.0
C931 C 0.07415 0.89302 0.59687 0.0
C932 C 0.08196 0.90569 0.61999 0.0
C933 C 0.0544 0.89192 0.59235 0.0
C934 C 0.00884 0.91728 0.60814 0.0
H935 H 0.92598 0.86719 0.56465 0.0
H936 H 0.96043 0.87208 0.56559 0.0
H937 H 0.98008 0.92769 0.6063 0.0
H938 H 0.07513 0.92755 0.65577 0.0
H939 H 0.04066 0.92548 0.64808 0.0
H940 H 0.02163 0.87028 0.60559 0.0
C941 C 0.95157 0.8806 0.58169 0.0
C942 C 0.98901 0.91505 0.60627 0.0
C943 C 0.9318 0.87786 0.58105 0.0
C944 C 0.06959 0.91764 0.63775 0.0
C945 C 0.04982 0.91653 0.63323 0.0
C946 C 0.01276 0.88296 0.60531 0.0
C947 C 0.95977 0.89426 0.60264 0.0
C948 C 0.98084 0.89674 0.604 0.0
C949 C 0.04198 0.90344 0.61085 0.0
C950 C 0.02094 0.90124 0.60778 0.0
H951 H 0.91906 0.91111 0.63804 0.0
H952 H 0.95359 0.91574 0.63941 0.0
H953 H 0.98713 0.86642 0.60228 0.0
H954 H 0.08327 0.88368 0.58263 0.0
H955 H 0.04884 0.88192 0.57451 0.0
C956 C 0.33169 0.82333 0.89049 0.0
C957 C 0.34573 0.83461 0.87529 0.0
C958 C 0.3318 0.80347 0.88683 0.0
C959 C 0.35155 0.76419 0.83622 0.0
H960 H 0.34446 0.73405 0.91493 0.0
C961 C 0.37277 0.68477 0.84361 0.0
C962 C 0.3605 0.67229 0.86043 0.0
C963 C 0.36968 0.70448 0.8444 0.0
C964 C 0.34621 0.74223 0.89263 0.0
H965 H 0.37054 0.83392 0.84347 0.0
H966 H 0.37081 0.79934 0.83731 0.0
H967 H 0.34088 0.76865 0.91731 0.0
H968 H 0.3353 0.67072 0.89125 0.0
H969 H 0.32987 0.70514 0.8925 0.0
H970 H 0.35713 0.73777 0.81165 0.0
C971 C 0.3596 0.80582 0.85183 0.0
C972 C 0.34413 0.76206 0.89398 0.0
C973 C 0.35951 0.82566 0.85551 0.0
C974 C 0.34507 0.67995 0.87812 0.0
C975 C 0.34199 0.69968 0.87894 0.0
C976 C 0.35363 0.74435 0.83488 0.0
C977 C 0.34592 0.79447 0.86784 0.0
C978 C 0.34696 0.7733 0.86586 0.0
C979 C 0.35425 0.71217 0.86205 0.0
C980 C 0.35117 0.73316 0.86314 0.0
H981 H 0.32082 0.82978 0.90578 0.0
H982 H 0.32089 0.79515 0.89909 0.0
H983 H 0.35353 0.7724 0.81402 0.0
H984 H 0.38481 0.67935 0.82979 0.0
H985 H 0.37956 0.71372 0.83153 0.0
C986 C 0.43106 0.10189 0.17515 0.0
C987 C 0.41768 0.10027 0.14967 0.0
C988 C 0.45061 0.1011 0.16864 0.0
C989 C 0.48536 0.10838 0.10195 0.0
H990 H 0.52042 0.0861 0.16474 0.0
C991 C 0.57169 0.09365 0.12151 0.0
C992 C 0.57881 0.11131 0.11061 0.0
C993 C 0.552 0.09054 0.12381 0.0
C994 C 0.51086 0.09217 0.14668 0.0
H995 H 0.41434 0.09596 0.09741 0.0
H996 H 0.44857 0.09422 0.08609 0.0
H997 H 0.48617 0.08277 0.17293 0.0
H998 H 0.57086 0.13951 0.09337 0.0
H999 H 0.5366 0.13429 0.09817 0.0
H1000 H 0.51007 0.11751 0.07542 0.0
C1001 C 0.44391 0.09647 0.11107 0.0
C1002 C 0.49119 0.09047 0.15161 0.0
C1003 C 0.4243 0.09735 0.11757 0.0
C1004 C 0.56584 0.12572 0.10176 0.0
C1005 C 0.54617 0.12266 0.10428 0.0
C1006 C 0.50505 0.10998 0.09691 0.0
C1007 C 0.45731 0.09854 0.1365 0.0
C1008 C 0.47819 0.09884 0.12963 0.0
C1009 C 0.53899 0.10507 0.11548 0.0
C1010 C 0.51805 0.10217 0.11949 0.0
H1011 H 0.42648 0.10422 0.20015 0.0
H1012 H 0.46048 0.10307 0.18878 0.0
H1013 H 0.47579 0.11514 0.08465 0.0
H1014 H 0.58131 0.08219 0.12826 0.0
H1015 H 0.547 0.07672 0.13204 0.0
C1016 C 0.14998 0.67643 0.11526 0.0
C1017 C 0.14119 0.66951 0.14382 0.0
C1018 C 0.153 0.696 0.11097 0.0
C1019 C 0.15593 0.74179 0.15611 0.0
H1020 H 0.14539 0.76392 0.07102 0.0
C1021 C 0.1493 0.82321 0.13407 0.0
C1022 C 0.15669 0.83059 0.10469 0.0
C1023 C 0.149 0.8035 0.13966 0.0
C1024 C 0.14866 0.75794 0.09481 0.0
H1025 H 0.12877 0.67775 0.19038 0.0
H1026 H 0.13382 0.71191 0.1827 0.0
H1027 H 0.14161 0.72967 0.07906 0.0
H1028 H 0.1702 0.82308 0.05865 0.0
H1029 H 0.16981 0.78876 0.06855 0.0
H1030 H 0.16277 0.77016 0.1719 0.0
C1031 C 0.13861 0.70218 0.1638 0.0
C1032 C 0.14649 0.73829 0.09943 0.0
C1033 C 0.1356 0.68259 0.16809 0.0
C1034 C 0.16431 0.81788 0.08148 0.0
C1035 C 0.16398 0.79819 0.08705 0.0
C1036 C 0.15809 0.76147 0.15149 0.0
C1037 C 0.14728 0.70912 0.13512 0.0
C1038 C 0.15003 0.72998 0.13015 0.0
C1039 C 0.15605 0.79075 0.11598 0.0
C1040 C 0.15442 0.76977 0.1208 0.0
H1041 H 0.15455 0.66673 0.09614 0.0
H1042 H 0.15995 0.70085 0.08879 0.0
H1043 H 0.15905 0.7358 0.17996 0.0
H1044 H 0.14331 0.8326 0.15246 0.0
H1045 H 0.14265 0.79824 0.16208 0.0
C1046 C 0.57016 0.90038 0.37329 0.0
C1047 C 0.57805 0.88648 0.39414 0.0
C1048 C 0.55039 0.90311 0.37191 0.0
C1049 C 0.50492 0.87844 0.38931 0.0
H1050 H 0.48313 0.92922 0.38239 0.0
C1051 C 0.4237 0.89044 0.39344 0.0
C1052 C 0.41608 0.9029 0.36983 0.0
C1053 C 0.4434 0.8895 0.39865 0.0
C1054 C 0.48902 0.91494 0.38408 0.0
H1055 H 0.57137 0.86479 0.43028 0.0
H1056 H 0.53695 0.86969 0.42811 0.0
H1057 H 0.51772 0.92542 0.38691 0.0
H1058 H 0.42316 0.92464 0.33398 0.0
H1059 H 0.45756 0.92289 0.34292 0.0
H1060 H 0.47631 0.86792 0.38624 0.0
C1061 C 0.54601 0.87827 0.41245 0.0
C1062 C 0.50883 0.91276 0.38663 0.0
C1063 C 0.56576 0.87553 0.4138 0.0
C1064 C 0.42855 0.91488 0.35235 0.0
C1065 C 0.44828 0.91394 0.35758 0.0
C1066 C 0.48515 0.88061 0.3868 0.0
C1067 C 0.53807 0.89202 0.39135 0.0
C1068 C 0.51701 0.89447 0.3892 0.0
C1069 C 0.45594 0.901 0.38039 0.0
C1070 C 0.47696 0.89888 0.38408 0.0
H1071 H 0.57924 0.90905 0.3578 0.0
H1072 H 0.54473 0.91366 0.35512 0.0
H1073 H 0.51076 0.86413 0.39066 0.0
H1074 H 0.41449 0.8811 0.40749 0.0
H1075 H 0.44883 0.87963 0.41681 0.0
C1076 C 0.35679 0.17732 0.64973 0.0
C1077 C 0.34295 0.1688 0.62949 0.0
C1078 C 0.35729 0.19713 0.65378 0.0
C1079 C 0.34329 0.2414 0.6119 0.0
H1080 H 0.35564 0.26509 0.69504 0.0
C1081 C 0.34566 0.32336 0.6282 0.0
C1082 C 0.36092 0.33072 0.64669 0.0
C1083 C 0.34218 0.3037 0.62729 0.0
C1084 C 0.35233 0.25868 0.67159 0.0
H1085 H 0.31837 0.17439 0.59858 0.0
H1086 H 0.31919 0.20896 0.60587 0.0
H1087 H 0.35143 0.23053 0.69205 0.0
H1088 H 0.38445 0.32321 0.67878 0.0
H1089 H 0.37852 0.28895 0.67684 0.0
H1090 H 0.34446 0.26947 0.59132 0.0
C1091 C 0.32981 0.20031 0.61823 0.0
C1092 C 0.3499 0.23888 0.6699 0.0
C1093 C 0.32927 0.18049 0.61422 0.0
C1094 C 0.37256 0.31802 0.66433 0.0
C1095 C 0.36908 0.29838 0.66342 0.0
C1096 C 0.34574 0.26118 0.61359 0.0
C1097 C 0.344 0.20888 0.63767 0.0
C1098 C 0.3455 0.23 0.63998 0.0
C1099 C 0.35387 0.29098 0.64486 0.0
C1100 C 0.35046 0.27004 0.64339 0.0
H1101 H 0.36754 0.16873 0.66186 0.0
H1102 H 0.36852 0.20328 0.66867 0.0
H1103 H 0.34021 0.23498 0.58837 0.0
H1104 H 0.33637 0.33277 0.61444 0.0
H1105 H 0.33022 0.29848 0.61306 0.0
C1106 C 0.07694 0.10093 0.88968 0.0
C1107 C 0.08392 0.10287 0.85759 0.0
C1108 C 0.05726 0.10031 0.89563 0.0
C1109 C 0.01043 0.09301 0.85431 0.0
H1110 H 0.99075 0.12194 0.92785 0.0
C1111 C 0.93492 0.12818 0.90094 0.0
C1112 C 0.92228 0.11319 0.89364 0.0
C1113 C 0.95465 0.12554 0.89839 0.0
C1114 C 0.996 0.11389 0.90709 0.0
H1115 H 0.07567 0.10537 0.80657 0.0
H1116 H 0.04153 0.10465 0.81695 0.0
H1117 H 0.02511 0.11972 0.91944 0.0
H1118 H 0.92044 0.08353 0.87853 0.0
H1119 H 0.95487 0.07882 0.87467 0.0
H1120 H 0.98132 0.08788 0.84111 0.0
C1121 C 0.05118 0.10327 0.83753 0.0
C1122 C 0.01573 0.11238 0.90252 0.0
C1123 C 0.07081 0.1038 0.83159 0.0
C1124 C 0.9298 0.09542 0.88411 0.0
C1125 C 0.94955 0.09274 0.88175 0.0
C1126 C 0.9907 0.0946 0.85877 0.0
C1127 C 0.04414 0.10166 0.86964 0.0
C1128 C 0.02319 0.10211 0.87585 0.0
C1129 C 0.96222 0.10781 0.88868 0.0
C1130 C 0.98323 0.10524 0.88501 0.0
H1131 H 0.08667 0.10009 0.91025 0.0
H1132 H 0.05234 0.09879 0.92062 0.0
H1133 H 0.01567 0.08476 0.83377 0.0
H1134 H 0.9296 0.14207 0.90823 0.0
H1135 H 0.96395 0.13756 0.90339 0.0
C1136 C 0.86958 0.68255 0.66825 0.0
C1137 C 0.86019 0.66973 0.64724 0.0
C1138 C 0.86655 0.70222 0.66547 0.0
C1139 C 0.84991 0.73901 0.6073 0.0
H1140 H 0.84616 0.77048 0.68517 0.0
C1141 C 0.83216 0.81935 0.60018 0.0
C1142 C 0.84345 0.83152 0.61954 0.0
C1143 C 0.83282 0.79957 0.60467 0.0
C1144 C 0.84731 0.7619 0.6632 0.0
H1145 H 0.84011 0.66752 0.60695 0.0
H1146 H 0.83468 0.70181 0.60232 0.0
H1147 H 0.85009 0.73599 0.69061 0.0
H1148 H 0.8639 0.83246 0.65945 0.0
H1149 H 0.8651 0.79797 0.66715 0.0
H1150 H 0.84724 0.76492 0.5799 0.0
C1151 C 0.8446 0.69668 0.62068 0.0
C1152 C 0.84959 0.74214 0.6663 0.0
C1153 C 0.84765 0.67701 0.62343 0.0
C1154 C 0.855 0.8235 0.64411 0.0
C1155 C 0.85563 0.80372 0.64865 0.0
C1156 C 0.84759 0.75875 0.6042 0.0
C1157 C 0.85403 0.70953 0.64163 0.0
C1158 C 0.85104 0.73047 0.63838 0.0
C1159 C 0.84474 0.79151 0.62868 0.0
C1160 C 0.84638 0.77044 0.63211 0.0
H1161 H 0.87937 0.67743 0.68681 0.0
H1162 H 0.87426 0.71172 0.68169 0.0
H1163 H 0.85127 0.7305 0.5853 0.0
H1164 H 0.82305 0.82506 0.58111 0.0
H1165 H 0.82405 0.79056 0.58921 0.0
C1166 C 0.92882 0.08554 0.35874 0.0
C1167 C 0.91637 0.09771 0.37589 0.0
C1168 C 0.94852 0.08629 0.36429 0.0
C1169 C 0.9857 0.11915 0.39409 0.0
H1170 H 0.01749 0.07379 0.39517 0.0
C1171 C 0.06637 0.1228 0.42202 0.0
C1172 C 0.07848 0.11157 0.40246 0.0
C1173 C 0.04656 0.12045 0.42056 0.0
C1174 C 0.00882 0.0866 0.39463 0.0
H1175 H 0.9148 0.11972 0.41321 0.0
H1176 H 0.94911 0.12086 0.42309 0.0
H1177 H 0.98288 0.07058 0.39 0.0
H1178 H 0.07926 0.08892 0.36621 0.0
H1179 H 0.04469 0.085 0.36337 0.0
H1180 H 0.01158 0.1352 0.39835 0.0
C1181 C 0.94368 0.11097 0.40496 0.0
C1182 C 0.98899 0.08476 0.3917 0.0
C1183 C 0.92399 0.11022 0.39943 0.0
C1184 C 0.07034 0.0978 0.38163 0.0
C1185 C 0.05052 0.09546 0.38016 0.0
C1186 C 0.00549 0.121 0.397 0.0
C1187 C 0.9562 0.09923 0.3871 0.0
C1188 C 0.97721 0.10102 0.3913 0.0
C1189 C 0.0384 0.10683 0.39949 0.0
C1190 C 0.0173 0.10475 0.39719 0.0
H1191 H 0.92342 0.07574 0.34043 0.0
H1192 H 0.95778 0.07717 0.34991 0.0
H1193 H 0.97708 0.13199 0.39326 0.0
H1194 H 0.07217 0.13346 0.43846 0.0
H1195 H 0.03764 0.12925 0.43611 0.0
C1196 C 0.62923 0.31541 0.16374 0.0
C1197 C 0.64065 0.32811 0.14567 0.0
C1198 C 0.63279 0.29577 0.16291 0.0
C1199 C 0.6556 0.25863 0.11229 0.0
H1200 H 0.65047 0.22774 0.19058 0.0
C1201 C 0.67149 0.17783 0.11131 0.0
C1202 C 0.65797 0.16614 0.12699 0.0
C1203 C 0.67114 0.19764 0.11562 0.0
C1204 C 0.65184 0.23616 0.16847 0.0
H1205 H 0.66497 0.33015 0.11292 0.0
H1206 H 0.67125 0.29589 0.11169 0.0
H1207 H 0.64644 0.26231 0.19401 0.0
H1208 H 0.63386 0.16608 0.16038 0.0
H1209 H 0.63318 0.2006 0.16769 0.0
H1210 H 0.66076 0.2325 0.08665 0.0
C1211 C 0.65939 0.3011 0.12618 0.0
C1212 C 0.64951 0.25596 0.17042 0.0
C1213 C 0.65583 0.32075 0.12701 0.0
C1214 C 0.6445 0.17465 0.14794 0.0
C1215 C 0.64416 0.19446 0.15227 0.0
C1216 C 0.65794 0.23884 0.11034 0.0
C1217 C 0.64785 0.28837 0.14401 0.0
C1218 C 0.6512 0.26742 0.1423 0.0
C1219 C 0.65729 0.20621 0.13575 0.0
C1220 C 0.65592 0.22735 0.13834 0.0
H1221 H 0.6174 0.3206 0.17834 0.0
H1222 H 0.62347 0.28635 0.17658 0.0
H1223 H 0.65671 0.26699 0.09007 0.0
H1224 H 0.68212 0.17173 0.09512 0.0
H1225 H 0.68164 0.20627 0.10294 0.0
C1226 C 0.5795 0.89435 0.89354 0.0
C1227 C 0.58709 0.90641 0.8693 0.0
C1228 C 0.55982 0.89359 0.899 0.0
C1229 C 0.51421 0.91891 0.8839 0.0
H1230 H 0.49243 0.86819 0.89195 0.0
C1231 C 0.43299 0.90437 0.87413 0.0
C1232 C 0.42516 0.89055 0.89518 0.0
C1233 C 0.45276 0.90711 0.8726 0.0
C1234 C 0.49827 0.88248 0.89021 0.0
H1235 H 0.57997 0.92768 0.83265 0.0
H1236 H 0.5456 0.92626 0.84208 0.0
H1237 H 0.52687 0.8719 0.88727 0.0
H1238 H 0.43195 0.86903 0.93159 0.0
H1239 H 0.46634 0.87397 0.9292 0.0
H1240 H 0.48553 0.92946 0.88664 0.0
C1241 C 0.5549 0.91747 0.85699 0.0
C1242 C 0.51804 0.88461 0.88754 0.0
C1243 C 0.5746 0.91822 0.85149 0.0
C1244 C 0.43751 0.8797 0.91494 0.0
C1245 C 0.45725 0.88247 0.91345 0.0
C1246 C 0.4944 0.91678 0.88664 0.0
C1247 C 0.54726 0.90488 0.88039 0.0
C1248 C 0.52625 0.90283 0.88428 0.0
C1249 C 0.46514 0.89611 0.89212 0.0
C1250 C 0.4862 0.89853 0.88975 0.0
H1251 H 0.58872 0.88514 0.90785 0.0
H1252 H 0.5544 0.88398 0.91759 0.0
H1253 H 0.52012 0.93316 0.88176 0.0
H1254 H 0.42387 0.91295 0.85857 0.0
H1255 H 0.45837 0.91758 0.85562 0.0
C1256 C 0.8685 0.31399 0.83547 0.0
C1257 C 0.85735 0.32693 0.85355 0.0
C1258 C 0.86485 0.29439 0.83697 0.0
C1259 C 0.84258 0.25785 0.88937 0.0
H1260 H 0.84681 0.22623 0.81176 0.0
C1261 C 0.82782 0.17688 0.89348 0.0
C1262 C 0.84141 0.16528 0.87778 0.0
C1263 C 0.82769 0.19663 0.88842 0.0
C1264 C 0.84567 0.23486 0.83368 0.0
H1265 H 0.83345 0.32944 0.88709 0.0
H1266 H 0.82701 0.29522 0.88953 0.0
H1267 H 0.85059 0.26079 0.8072 0.0
H1268 H 0.86511 0.16528 0.84352 0.0
H1269 H 0.86495 0.19969 0.83489 0.0
H1270 H 0.83795 0.23194 0.91593 0.0
C1271 C 0.83872 0.30022 0.87448 0.0
C1272 C 0.84786 0.25465 0.83108 0.0
C1273 C 0.84236 0.31984 0.87297 0.0
C1274 C 0.85443 0.17379 0.85601 0.0
C1275 C 0.85429 0.19352 0.85092 0.0
C1276 C 0.84038 0.23808 0.89197 0.0
C1277 C 0.84997 0.28726 0.85658 0.0
C1278 C 0.84656 0.26635 0.85897 0.0
C1279 C 0.84113 0.20521 0.86749 0.0
C1280 C 0.84211 0.22633 0.86421 0.0
H1281 H 0.88017 0.31896 0.8203 0.0
H1282 H 0.87396 0.28478 0.82325 0.0
H1283 H 0.84175 0.26642 0.9114 0.0
H1284 H 0.81753 0.17078 0.91028 0.0
H1285 H 0.81719 0.20522 0.90117 0.0
C1286 C 0.57445 0.10572 0.60893 0.0
C1287 C 0.58278 0.09305 0.6315 0.0
C1288 C 0.55469 0.10588 0.60406 0.0
C1289 C 0.5099 0.09368 0.6461 0.0
H1290 H 0.48732 0.10201 0.56062 0.0
C1291 C 0.42819 0.09546 0.62681 0.0
C1292 C 0.4211 0.10996 0.60634 0.0
C1293 C 0.4478 0.09183 0.62858 0.0
C1294 C 0.49342 0.09982 0.58469 0.0
H1295 H 0.57691 0.07013 0.66579 0.0
H1296 H 0.54243 0.07032 0.65707 0.0
H1297 H 0.52184 0.09805 0.56554 0.0
H1298 H 0.42906 0.13191 0.57143 0.0
H1299 H 0.46326 0.12574 0.5748 0.0
H1300 H 0.48156 0.09573 0.66534 0.0
C1301 C 0.55118 0.08032 0.6435 0.0
C1302 C 0.51319 0.09753 0.5875 0.0
C1303 C 0.57095 0.08014 0.64834 0.0
C1304 C 0.43404 0.12062 0.58743 0.0
C1305 C 0.45364 0.11699 0.58918 0.0
C1306 C 0.49014 0.09597 0.6433 0.0
C1307 C 0.54279 0.09338 0.62165 0.0
C1308 C 0.52168 0.09461 0.61828 0.0
C1309 C 0.46077 0.10262 0.6099 0.0
C1310 C 0.48168 0.09926 0.6126 0.0
H1311 H 0.58313 0.11586 0.59554 0.0
H1312 H 0.54869 0.11626 0.58731 0.0
H1313 H 0.51601 0.09176 0.67024 0.0
H1314 H 0.4186 0.08692 0.6416 0.0
H1315 H 0.4528 0.08051 0.64447 0.0
C1316 C 0.65515 0.67569 0.37297 0.0
C1317 C 0.64147 0.66834 0.35115 0.0
C1318 C 0.65821 0.69539 0.37526 0.0
C1319 C 0.65063 0.74078 0.33052 0.0
H1320 H 0.65642 0.76372 0.41632 0.0
C1321 C 0.64413 0.82195 0.35323 0.0
C1322 C 0.65642 0.83034 0.37635 0.0
C1323 C 0.64393 0.80216 0.34876 0.0
C1324 C 0.65511 0.75751 0.39214 0.0
H1325 H 0.62029 0.67593 0.3146 0.0
H1326 H 0.62547 0.71023 0.31889 0.0
H1327 H 0.65284 0.72921 0.41152 0.0
H1328 H 0.67857 0.82454 0.41216 0.0
H1329 H 0.6783 0.79002 0.40414 0.0
H1330 H 0.65265 0.76914 0.31121 0.0
C1331 C 0.63403 0.70078 0.33391 0.0
C1332 C 0.65305 0.73773 0.38939 0.0
C1333 C 0.63097 0.6811 0.33162 0.0
C1334 C 0.66887 0.81854 0.39424 0.0
C1335 C 0.66864 0.79874 0.3898 0.0
C1336 C 0.65267 0.76057 0.33328 0.0
C1337 C 0.64767 0.70816 0.35578 0.0
C1338 C 0.65063 0.72913 0.35857 0.0
C1339 C 0.65599 0.7903 0.36732 0.0
C1340 C 0.6548 0.76919 0.36414 0.0
H1341 H 0.66353 0.66624 0.38827 0.0
H1342 H 0.66897 0.70059 0.39209 0.0
H1343 H 0.64911 0.73458 0.30637 0.0
H1344 H 0.63434 0.83062 0.33906 0.0
H1345 H 0.63388 0.79611 0.33147 0.0
C1346 C 0.93245 0.91629 0.15565 0.0
C1347 C 0.91948 0.90556 0.13688 0.0
C1348 C 0.95211 0.9149 0.14998 0.0
C1349 C 0.98779 0.88186 0.11603 0.0
H1350 H 0.02137 0.92589 0.11787 0.0
C1351 C 0.06751 0.87612 0.08227 0.0
C1352 C 0.08058 0.88656 0.10128 0.0
C1353 C 0.04786 0.87898 0.08587 0.0
C1354 C 0.01221 0.91343 0.11765 0.0
H1355 H 0.91699 0.88543 0.09667 0.0
H1356 H 0.95121 0.88313 0.08672 0.0
H1357 H 0.98701 0.93028 0.12502 0.0
H1358 H 0.08327 0.90818 0.13904 0.0
H1359 H 0.04899 0.91293 0.14573 0.0
H1360 H 0.0129 0.86496 0.10907 0.0
C1361 C 0.9462 0.89241 0.10612 0.0
C1362 C 0.99253 0.91595 0.12168 0.0
C1363 C 0.92657 0.89383 0.11171 0.0
C1364 C 0.07358 0.89994 0.12396 0.0
C1365 C 0.05392 0.90275 0.12764 0.0
C1366 C 0.00744 0.87932 0.11211 0.0
C1367 C 0.95921 0.90271 0.12549 0.0
C1368 C 0.9801 0.90019 0.12086 0.0
C1369 C 0.04082 0.89229 0.10867 0.0
C1370 C 0.0199 0.89507 0.11283 0.0
H1371 H 0.92746 0.92546 0.17522 0.0
H1372 H 0.96178 0.92293 0.16546 0.0
H1373 H 0.97863 0.86938 0.11588 0.0
H1374 H 0.07242 0.86579 0.06443 0.0
H1375 H 0.0382 0.87088 0.07051 0.0
C1376 C 0.65728 0.82032 0.8661 0.0
C1377 C 0.64005 0.82818 0.85468 0.0
C1378 C 0.65951 0.80052 0.86856 0.0
C1379 C 0.65589 0.75948 0.89135 0.0
H1380 H 0.63216 0.72545 0.82846 0.0
C1381 C 0.64319 0.68002 0.919 0.0
C1382 C 0.64486 0.66664 0.89353 0.0
C1383 C 0.64448 0.69956 0.91263 0.0
C1384 C 0.63911 0.73472 0.84603 0.0
H1385 H 0.61168 0.82143 0.83674 0.0
H1386 H 0.61536 0.787 0.84179 0.0
H1387 H 0.63125 0.75981 0.81935 0.0
H1388 H 0.64961 0.66329 0.84139 0.0
H1389 H 0.65219 0.69749 0.8303 0.0
H1390 H 0.66403 0.7344 0.91775 0.0
C1391 C 0.62734 0.79606 0.84819 0.0
C1392 C 0.63836 0.75446 0.84103 0.0
C1393 C 0.62516 0.81583 0.84552 0.0
C1394 C 0.64818 0.67324 0.86154 0.0
C1395 C 0.64956 0.69284 0.85517 0.0
C1396 C 0.65674 0.73975 0.89625 0.0
C1397 C 0.64451 0.78814 0.85986 0.0
C1398 C 0.64647 0.7671 0.8639 0.0
C1399 C 0.64759 0.70624 0.88063 0.0
C1400 C 0.64808 0.72713 0.87394 0.0
H1401 H 0.66909 0.82945 0.87311 0.0
H1402 H 0.67302 0.79493 0.87718 0.0
H1403 H 0.66217 0.76876 0.90963 0.0
H1404 H 0.64055 0.67546 0.94392 0.0
H1405 H 0.64256 0.70944 0.93276 0.0
C1406 C 0.43245 0.37793 0.07375 0.0
C1407 C 0.4205 0.38883 0.09413 0.0
C1408 C 0.45223 0.38062 0.07423 0.0
C1409 C 0.48984 0.41494 0.09841 0.0
H1410 H 0.52214 0.36995 0.10022 0.0
C1411 C 0.56972 0.41734 0.13414 0.0
C1412 C 0.58236 0.40492 0.11795 0.0
C1413 C 0.55007 0.41638 0.12819 0.0
C1414 C 0.51337 0.38268 0.09919 0.0
H1415 H 0.41995 0.41131 0.13069 0.0
H1416 H 0.45448 0.41589 0.1317 0.0
H1417 H 0.48766 0.36629 0.0957 0.0
H1418 H 0.58436 0.38231 0.08178 0.0
H1419 H 0.55014 0.38084 0.07108 0.0
H1420 H 0.51559 0.43132 0.1022 0.0
C1421 C 0.44853 0.40538 0.11511 0.0
C1422 C 0.49359 0.38058 0.09664 0.0
C1423 C 0.42875 0.40266 0.11469 0.0
C1424 C 0.575 0.39199 0.09484 0.0
C1425 C 0.55537 0.39107 0.08885 0.0
C1426 C 0.50966 0.41705 0.10089 0.0
C1427 C 0.46051 0.39431 0.09504 0.0
C1428 C 0.48158 0.39667 0.09646 0.0
C1429 C 0.54264 0.40301 0.10587 0.0
C1430 C 0.52165 0.40093 0.10154 0.0
H1431 H 0.42656 0.36722 0.0575 0.0
H1432 H 0.46105 0.37203 0.05817 0.0
H1433 H 0.48099 0.42763 0.09786 0.0
H1434 H 0.57491 0.42746 0.15211 0.0
H1435 H 0.54067 0.42566 0.14197 0.0
C1436 C 0.86884 0.18739 0.33533 0.0
C1437 C 0.858 0.1747 0.35444 0.0
C1438 C 0.86559 0.20706 0.33699 0.0
C1439 C 0.84536 0.24409 0.39093 0.0
H1440 H 0.84776 0.27549 0.31283 0.0
C1441 C 0.83056 0.32507 0.3952 0.0
C1442 C 0.84363 0.33668 0.37828 0.0
C1443 C 0.83049 0.30529 0.39051 0.0
C1444 C 0.84716 0.26692 0.33488 0.0
H1445 H 0.83504 0.17272 0.38997 0.0
H1446 H 0.82929 0.20704 0.39265 0.0
H1447 H 0.85117 0.24089 0.30825 0.0
H1448 H 0.86646 0.33666 0.34235 0.0
H1449 H 0.8664 0.30219 0.33435 0.0
H1450 H 0.84159 0.27011 0.41762 0.0
C1451 C 0.84047 0.20179 0.37669 0.0
C1452 C 0.84913 0.24711 0.33227 0.0
C1453 C 0.84371 0.18211 0.37503 0.0
C1454 C 0.85619 0.32814 0.35578 0.0
C1455 C 0.8561 0.30837 0.35106 0.0
C1456 C 0.84337 0.26389 0.39354 0.0
C1457 C 0.85142 0.2145 0.35779 0.0
C1458 C 0.84843 0.23548 0.3603 0.0
C1459 C 0.84345 0.29668 0.36875 0.0
C1460 C 0.84442 0.27556 0.36559 0.0
H1461 H 0.87997 0.18217 0.31924 0.0
H1462 H 0.87446 0.21647 0.32244 0.0
H1463 H 0.84503 0.23559 0.41307 0.0
H1464 H 0.82062 0.33119 0.41261 0.0
H1465 H 0.82037 0.2967 0.40415 0.0
C1466 C 0.93146 0.59568 0.6716 0.0
C1467 C 0.91914 0.59816 0.64477 0.0
C1468 C 0.95117 0.59436 0.667 0.0
C1469 C 0.98913 0.60794 0.60941 0.0
H1470 H 0.01987 0.57404 0.66293 0.0
C1471 C 0.07141 0.60313 0.59689 0.0
C1472 C 0.08176 0.60294 0.6264 0.0
C1473 C 0.05154 0.60103 0.59701 0.0
C1474 C 0.01148 0.58367 0.64794 0.0
H1475 H 0.91786 0.60077 0.59192 0.0
H1476 H 0.95239 0.59834 0.58385 0.0
H1477 H 0.98512 0.5726 0.66644 0.0
H1478 H 0.07935 0.60026 0.67913 0.0
H1479 H 0.04474 0.59673 0.67933 0.0
H1480 H 0.01553 0.61918 0.59124 0.0
C1481 C 0.94675 0.59762 0.6085 0.0
C1482 C 0.99158 0.58284 0.64994 0.0
C1483 C 0.92697 0.5989 0.61311 0.0
C1484 C 0.07183 0.60045 0.65597 0.0
C1485 C 0.05199 0.59829 0.65607 0.0
C1486 C 0.00905 0.60875 0.60737 0.0
C1487 C 0.95908 0.59549 0.63545 0.0
C1488 C 0.98017 0.59518 0.6311 0.0
C1489 C 0.04161 0.59861 0.62661 0.0
C1490 C 0.02046 0.59683 0.62701 0.0
H1491 H 0.92594 0.59506 0.69633 0.0
H1492 H 0.96025 0.593 0.68833 0.0
H1493 H 0.98077 0.61781 0.59485 0.0
H1494 H 0.07864 0.60497 0.57367 0.0
H1495 H 0.04397 0.60116 0.57389 0.0
C1496 C 0.65541 0.17905 0.57925 0.0
C1497 C 0.65234 0.16929 0.60883 0.0
C1498 C 0.65746 0.19892 0.57894 0.0
C1499 C 0.64559 0.24177 0.62728 0.0
H1500 H 0.68161 0.26662 0.5691 0.0
C1501 C 0.65416 0.32383 0.62425 0.0
C1502 C 0.65456 0.33204 0.59286 0.0
C1503 C 0.65599 0.30405 0.62814 0.0
C1504 C 0.67142 0.25988 0.58537 0.0
H1505 H 0.64947 0.17271 0.66141 0.0
H1506 H 0.65322 0.2073 0.66085 0.0
H1507 H 0.68073 0.23181 0.57204 0.0
H1508 H 0.65779 0.32597 0.54106 0.0
H1509 H 0.66082 0.29161 0.54784 0.0
H1510 H 0.63607 0.26981 0.64024 0.0
C1511 C 0.65375 0.19964 0.63784 0.0
C1512 C 0.6709 0.23995 0.58701 0.0
C1513 C 0.65169 0.1798 0.63815 0.0
C1514 C 0.6574 0.32012 0.56559 0.0
C1515 C 0.65927 0.30041 0.56949 0.0
C1516 C 0.64612 0.2617 0.62564 0.0
C1517 C 0.65651 0.20946 0.60821 0.0
C1518 C 0.65782 0.23065 0.60771 0.0
C1519 C 0.65833 0.2921 0.60074 0.0
C1520 C 0.65887 0.27098 0.60438 0.0
H1521 H 0.65597 0.1714 0.55624 0.0
H1522 H 0.65934 0.20606 0.55566 0.0
H1523 H 0.63517 0.23507 0.64314 0.0
H1524 H 0.65206 0.33262 0.64576 0.0
H1525 H 0.65543 0.29809 0.65258 0.0
C1526 C 0.06639 0.37488 0.91588 0.0
C1527 C 0.07876 0.38675 0.898 0.0
C1528 C 0.04661 0.37732 0.91391 0.0
C1529 C 0.00934 0.41227 0.89036 0.0
H1530 H 0.97721 0.36726 0.88478 0.0
C1531 C 0.92923 0.4151 0.85517 0.0
C1532 C 0.91674 0.40269 0.87171 0.0
C1533 C 0.94896 0.41395 0.86021 0.0
C1534 C 0.98595 0.37998 0.88676 0.0
H1535 H 0.08003 0.41057 0.86408 0.0
H1536 H 0.04552 0.41464 0.86029 0.0
H1537 H 0.01168 0.36359 0.88968 0.0
H1538 H 0.91516 0.37976 0.90737 0.0
H1539 H 0.94951 0.3779 0.91633 0.0
H1540 H 0.98355 0.42863 0.88707 0.0
C1541 C 0.05112 0.40361 0.87621 0.0
C1542 C 0.00572 0.37787 0.88956 0.0
C1543 C 0.07091 0.40119 0.87821 0.0
C1544 C 0.92437 0.38948 0.89409 0.0
C1545 C 0.94408 0.38832 0.89908 0.0
C1546 C 0.98954 0.41437 0.88749 0.0
C1547 C 0.03873 0.39167 0.89396 0.0
C1548 C 0.01767 0.39398 0.89136 0.0
C1549 C 0.95662 0.40035 0.88187 0.0
C1550 C 0.97763 0.39824 0.88563 0.0
H1551 H 0.07197 0.36369 0.93149 0.0
H1552 H 0.03749 0.36805 0.92827 0.0
H1553 H 0.01811 0.42497 0.89216 0.0
H1554 H 0.92383 0.42544 0.83775 0.0
H1555 H 0.95825 0.42333 0.84638 0.0
C1556 C 0.84939 0.82267 0.13643 0.0
C1557 C 0.85748 0.83279 0.11012 0.0
C1558 C 0.84785 0.80277 0.13532 0.0
C1559 C 0.84833 0.7618 0.07798 0.0
H1560 H 0.86232 0.73255 0.15496 0.0
C1561 C 0.86519 0.68159 0.07207 0.0
C1562 C 0.85832 0.66975 0.09723 0.0
C1563 C 0.86353 0.7014 0.07433 0.0
C1564 C 0.85811 0.74052 0.13342 0.0
H1565 H 0.87012 0.82993 0.06189 0.0
H1566 H 0.86762 0.79527 0.06011 0.0
H1567 H 0.86216 0.76739 0.15746 0.0
H1568 H 0.84431 0.66946 0.14456 0.0
H1569 H 0.84139 0.70422 0.1485 0.0
H1570 H 0.84458 0.73496 0.0538 0.0
C1571 C 0.86223 0.80271 0.08143 0.0
C1572 C 0.858 0.76048 0.13483 0.0
C1573 C 0.86376 0.8226 0.08253 0.0
C1574 C 0.84975 0.6782 0.12477 0.0
C1575 C 0.84815 0.69809 0.1271 0.0
C1576 C 0.84846 0.74188 0.07656 0.0
C1577 C 0.85435 0.79255 0.10787 0.0
C1578 C 0.85335 0.77135 0.107 0.0
C1579 C 0.855 0.70989 0.10183 0.0
C1580 C 0.8536 0.73101 0.10412 0.0
H1581 H 0.84435 0.83011 0.15802 0.0
H1582 H 0.8415 0.7954 0.15592 0.0
H1583 H 0.84431 0.76974 0.0563 0.0
H1584 H 0.87191 0.67558 0.05053 0.0
H1585 H 0.86922 0.7101 0.05469 0.0
C1586 C 0.56992 0.59937 0.32964 0.0
C1587 C 0.58312 0.59853 0.35552 0.0
C1588 C 0.55032 0.59886 0.33579 0.0
C1589 C 0.51512 0.60829 0.40103 0.0
H1590 H 0.48043 0.58402 0.33981 0.0
C1591 C 0.42896 0.59243 0.38235 0.0
C1592 C 0.42169 0.61031 0.39182 0.0
C1593 C 0.44867 0.58945 0.38017 0.0
C1594 C 0.48988 0.59067 0.35744 0.0
H1595 H 0.58606 0.59592 0.40817 0.0
H1596 H 0.55175 0.59466 0.4189 0.0
H1597 H 0.51473 0.58054 0.33243 0.0
H1598 H 0.42941 0.63907 0.40648 0.0
H1599 H 0.4637 0.63404 0.40188 0.0
H1600 H 0.49025 0.61814 0.42636 0.0
C1601 C 0.5566 0.59609 0.39385 0.0
C1602 C 0.50959 0.58888 0.35295 0.0
C1603 C 0.57626 0.59669 0.3877 0.0
C1604 C 0.43455 0.6251 0.39923 0.0
C1605 C 0.45424 0.62216 0.39683 0.0
C1606 C 0.4954 0.60999 0.40563 0.0
C1607 C 0.54338 0.59737 0.36797 0.0
C1608 C 0.52246 0.59792 0.37437 0.0
C1609 C 0.46156 0.60431 0.38719 0.0
C1610 C 0.48253 0.60145 0.3836 0.0
H1611 H 0.5747 0.60086 0.30456 0.0
H1612 H 0.54061 0.60021 0.31529 0.0
H1613 H 0.52458 0.61559 0.41786 0.0
H1614 H 0.41943 0.58069 0.37672 0.0
H1615 H 0.4538 0.57544 0.37313 0.0
C1616 C 0.33273 0.31908 0.09783 0.0
C1617 C 0.34401 0.33143 0.11688 0.0
C1618 C 0.3331 0.29937 0.10331 0.0
C1619 C 0.34652 0.26259 0.16416 0.0
H1620 H 0.3507 0.22971 0.0881 0.0
C1621 C 0.36785 0.18317 0.17394 0.0
C1622 C 0.35848 0.17006 0.15342 0.0
C1623 C 0.36502 0.2028 0.17007 0.0
C1624 C 0.34927 0.23865 0.1096 0.0
H1625 H 0.36414 0.33279 0.15721 0.0
H1626 H 0.36483 0.29843 0.16664 0.0
H1627 H 0.34722 0.26407 0.08074 0.0
H1628 H 0.33864 0.16729 0.1129 0.0
H1629 H 0.33356 0.20154 0.10636 0.0
H1630 H 0.3487 0.23717 0.19302 0.0
C1631 C 0.3556 0.30399 0.14762 0.0
C1632 C 0.34727 0.25835 0.10537 0.0
C1633 C 0.35527 0.32368 0.1421 0.0
C1634 C 0.34615 0.17701 0.12903 0.0
C1635 C 0.3433 0.19665 0.12517 0.0
C1636 C 0.34849 0.24287 0.16838 0.0
C1637 C 0.34471 0.29158 0.12802 0.0
C1638 C 0.34599 0.27057 0.1326 0.0
C1639 C 0.35274 0.20978 0.14561 0.0
C1640 C 0.35002 0.23068 0.14115 0.0
H1641 H 0.32385 0.32457 0.07827 0.0
H1642 H 0.32434 0.29021 0.08809 0.0
H1643 H 0.3453 0.27159 0.18562 0.0
H1644 H 0.37749 0.1783 0.19293 0.0
H1645 H 0.37272 0.21252 0.18592 0.0
C1646 C 0.42247 0.60354 0.90343 0.0
C1647 C 0.41548 0.59452 0.8751 0.0
C1648 C 0.44201 0.60344 0.91051 0.0
C1649 C 0.48781 0.5796 0.88939 0.0
H1650 H 0.51011 0.62746 0.9181 0.0
C1651 C 0.56887 0.5947 0.88425 0.0
C1652 C 0.57711 0.60474 0.91049 0.0
C1653 C 0.54907 0.59235 0.88234 0.0
C1654 C 0.50409 0.61391 0.91054 0.0
H1655 H 0.42353 0.57789 0.83247 0.0
H1656 H 0.45757 0.57793 0.84456 0.0
H1657 H 0.47566 0.62509 0.91089 0.0
H1658 H 0.57101 0.61994 0.95559 0.0
H1659 H 0.53647 0.61578 0.95226 0.0
H1660 H 0.51635 0.56856 0.88848 0.0
C1661 C 0.44795 0.58488 0.86156 0.0
C1662 C 0.48432 0.61253 0.90644 0.0
C1663 C 0.42841 0.58495 0.85452 0.0
C1664 C 0.56513 0.61218 0.93498 0.0
C1665 C 0.54532 0.60988 0.93301 0.0
C1666 C 0.5076 0.581 0.89341 0.0
C1667 C 0.45502 0.59434 0.8894 0.0
C1668 C 0.47595 0.59541 0.89555 0.0
C1669 C 0.53706 0.60003 0.90658 0.0
C1670 C 0.51597 0.59822 0.90376 0.0
H1671 H 0.41289 0.61096 0.91991 0.0
H1672 H 0.44695 0.6106 0.93243 0.0
H1673 H 0.48181 0.56611 0.88147 0.0
H1674 H 0.57769 0.58879 0.86496 0.0
H1675 H 0.54314 0.58488 0.86147 0.0
C1676 C 0.14726 0.67638 0.63328 0.0
C1677 C 0.16002 0.6682 0.6107 0.0
C1678 C 0.14708 0.6961 0.6385 0.0
C1679 C 0.1593 0.74104 0.597 0.0
H1680 H 0.15009 0.76338 0.6824 0.0
C1681 C 0.15649 0.8227 0.61689 0.0
C1682 C 0.14168 0.82954 0.63695 0.0
C1683 C 0.16035 0.80314 0.61503 0.0
C1684 C 0.15253 0.75734 0.65836 0.0
H1685 H 0.18312 0.67427 0.57686 0.0
H1686 H 0.1829 0.70869 0.58621 0.0
H1687 H 0.15445 0.72891 0.6774 0.0
H1688 H 0.11942 0.82119 0.67102 0.0
H1689 H 0.12603 0.78709 0.66751 0.0
H1690 H 0.1571 0.7694 0.57787 0.0
C1691 C 0.17284 0.69986 0.59951 0.0
C1692 C 0.15505 0.7376 0.6555 0.0
C1693 C 0.17304 0.68012 0.59431 0.0
C1694 C 0.13094 0.81641 0.65534 0.0
C1695 C 0.13482 0.79686 0.65351 0.0
C1696 C 0.15679 0.76077 0.59986 0.0
C1697 C 0.15964 0.70811 0.62126 0.0
C1698 C 0.15827 0.7292 0.62474 0.0
C1699 C 0.14952 0.78998 0.63324 0.0
C1700 C 0.15318 0.76913 0.63051 0.0
H1701 H 0.13704 0.66762 0.64634 0.0
H1702 H 0.1366 0.702 0.65519 0.0
H1703 H 0.16144 0.73501 0.57287 0.0
H1704 H 0.1651 0.83245 0.60251 0.0
H1705 H 0.17192 0.79832 0.59947 0.0
C1706 C 0.07346 0.41726 0.35873 0.0
C1707 C 0.08568 0.40464 0.37541 0.0
C1708 C 0.0537 0.41651 0.36369 0.0
C1709 C 0.01617 0.38311 0.39004 0.0
H1710 H 0.98442 0.42845 0.39365 0.0
C1711 C 0.93546 0.37884 0.41655 0.0
C1712 C 0.92339 0.39058 0.39783 0.0
C1713 C 0.95526 0.38121 0.41536 0.0
C1714 C 0.99309 0.41565 0.39237 0.0
H1715 H 0.08679 0.38185 0.41138 0.0
H1716 H 0.05239 0.38069 0.42023 0.0
H1717 H 0.01908 0.43173 0.38954 0.0
H1718 H 0.92265 0.41413 0.36333 0.0
H1719 H 0.95724 0.41809 0.36093 0.0
H1720 H 0.99026 0.36701 0.39248 0.0
C1721 C 0.05804 0.39094 0.4029 0.0
C1722 C 0.01293 0.41754 0.39006 0.0
C1723 C 0.07778 0.3917 0.39796 0.0
C1724 C 0.93155 0.40485 0.37808 0.0
C1725 C 0.95137 0.40721 0.37686 0.0
C1726 C 0.99636 0.38123 0.3923 0.0
C1727 C 0.04575 0.40312 0.38543 0.0
C1728 C 0.0247 0.40127 0.38882 0.0
C1729 C 0.96347 0.39535 0.39538 0.0
C1730 C 0.98457 0.39747 0.39344 0.0
H1731 H 0.07908 0.4274 0.34119 0.0
H1732 H 0.04462 0.42598 0.34966 0.0
H1733 H 0.02479 0.37028 0.3885 0.0
H1734 H 0.92964 0.36778 0.43217 0.0
H1735 H 0.96415 0.37202 0.4303 0.0
C1736 C 0.35484 0.67237 0.35578 0.0
C1737 C 0.34212 0.66408 0.37829 0.0
C1738 C 0.35491 0.69211 0.35067 0.0
C1739 C 0.34226 0.737 0.39201 0.0
H1740 H 0.35064 0.75926 0.30631 0.0
C1741 C 0.3432 0.81864 0.37138 0.0
C1742 C 0.35764 0.82577 0.35084 0.0
C1743 C 0.33984 0.799 0.37356 0.0
C1744 C 0.34844 0.75325 0.33044 0.0
H1745 H 0.31902 0.66997 0.41224 0.0
H1746 H 0.31905 0.70441 0.4031 0.0
H1747 H 0.34698 0.72473 0.31165 0.0
H1748 H 0.37981 0.81783 0.3163 0.0
H1749 H 0.37409 0.78359 0.32038 0.0
H1750 H 0.344 0.76546 0.41089 0.0
C1751 C 0.32916 0.69565 0.38976 0.0
C1752 C 0.34632 0.73348 0.33349 0.0
C1753 C 0.32907 0.6759 0.39484 0.0
C1754 C 0.36855 0.81283 0.33233 0.0
C1755 C 0.36518 0.79319 0.33449 0.0
C1756 C 0.34439 0.75677 0.38897 0.0
C1757 C 0.34227 0.70401 0.36797 0.0
C1758 C 0.34338 0.72511 0.36435 0.0
C1759 C 0.35083 0.78604 0.35521 0.0
C1760 C 0.34768 0.76511 0.35819 0.0
H1761 H 0.36509 0.66369 0.34263 0.0
H1762 H 0.36532 0.6981 0.33397 0.0
H1763 H 0.34032 0.731 0.41621 0.0
H1764 H 0.33448 0.82823 0.38587 0.0
H1765 H 0.32853 0.79397 0.38945 0.0
C1766 C 0.92624 0.60204 0.16272 0.0
C1767 C 0.91603 0.60214 0.13311 0.0
C1768 C 0.9461 0.59997 0.1628 0.0
C1769 C 0.98839 0.60674 0.11056 0.0
H1770 H 0.01356 0.57639 0.17723 0.0
C1771 C 0.07057 0.5978 0.11474 0.0
C1772 C 0.07898 0.5998 0.1458 0.0
C1773 C 0.05072 0.59615 0.11159 0.0
C1774 C 0.00675 0.58501 0.15857 0.0
H1775 H 0.91866 0.59984 0.08033 0.0
H1776 H 0.95333 0.59613 0.08052 0.0
H1777 H 0.97876 0.57714 0.17476 0.0
H1778 H 0.07315 0.60127 0.19792 0.0
H1779 H 0.0387 0.59858 0.19238 0.0
H1780 H 0.01638 0.61486 0.09471 0.0
C1781 C 0.94598 0.59786 0.10366 0.0
C1782 C 0.98681 0.58545 0.15717 0.0
C1783 C 0.9261 0.5999 0.10358 0.0
C1784 C 0.06717 0.59973 0.17361 0.0
C1785 C 0.04738 0.59806 0.17047 0.0
C1786 C 0.00834 0.60631 0.11198 0.0
C1787 C 0.95621 0.59797 0.13326 0.0
C1788 C 0.9774 0.59652 0.13343 0.0
C1789 C 0.0389 0.5964 0.13942 0.0
C1790 C 0.01775 0.59565 0.13628 0.0
H1791 H 0.91894 0.60376 0.1859 0.0
H1792 H 0.95357 0.60037 0.186 0.0
H1793 H 0.98158 0.61558 0.09221 0.0
H1794 H 0.07927 0.59775 0.09283 0.0
H1795 H 0.04463 0.59469 0.08735 0.0
C1796 C 0.15701 0.17912 0.87709 0.0
C1797 C 0.14363 0.17201 0.85451 0.0
C1798 C 0.16037 0.19876 0.87959 0.0
C1799 C 0.15435 0.24432 0.83465 0.0
H1800 H 0.1585 0.26706 0.92088 0.0
C1801 C 0.14732 0.32538 0.85775 0.0
C1802 C 0.15895 0.33372 0.8819 0.0
C1803 C 0.14741 0.30562 0.85289 0.0
C1804 C 0.15767 0.26091 0.8966 0.0
H1805 H 0.12331 0.17997 0.81678 0.0
H1806 H 0.12899 0.21418 0.82142 0.0
H1807 H 0.15476 0.23259 0.91566 0.0
H1808 H 0.18033 0.32788 0.91904 0.0
H1809 H 0.18057 0.29341 0.91033 0.0
H1810 H 0.15698 0.2727 0.81563 0.0
C1811 C 0.1371 0.20458 0.83689 0.0
C1812 C 0.15551 0.24114 0.89361 0.0
C1813 C 0.13374 0.18496 0.8344 0.0
C1814 C 0.17113 0.32191 0.90033 0.0
C1815 C 0.17119 0.30214 0.8955 0.0
C1816 C 0.1565 0.26409 0.83764 0.0
C1817 C 0.15043 0.21172 0.85954 0.0
C1818 C 0.15364 0.23263 0.86261 0.0
C1819 C 0.15911 0.29374 0.87207 0.0
C1820 C 0.15801 0.27264 0.86867 0.0
H1821 H 0.16493 0.16953 0.89285 0.0
H1822 H 0.17088 0.20378 0.89703 0.0
H1823 H 0.15327 0.23818 0.81039 0.0
H1824 H 0.13776 0.33405 0.84313 0.0
H1825 H 0.13779 0.2996 0.83486 0.0
C1826 C 0.43274 0.41341 0.65232 0.0
C1827 C 0.41939 0.40452 0.63161 0.0
C1828 C 0.45228 0.41242 0.64548 0.0
C1829 C 0.48735 0.38289 0.60128 0.0
H1830 H 0.52112 0.42591 0.61628 0.0
C1831 C 0.56763 0.38059 0.5684 0.0
C1832 C 0.58034 0.38854 0.59129 0.0
C1833 C 0.54792 0.38307 0.57187 0.0
C1834 C 0.51189 0.41372 0.61225 0.0
H1835 H 0.41609 0.3881 0.58691 0.0
H1836 H 0.45016 0.38654 0.57485 0.0
H1837 H 0.4868 0.4297 0.62442 0.0
H1838 H 0.58227 0.40534 0.63582 0.0
H1839 H 0.54792 0.40948 0.64203 0.0
H1840 H 0.51244 0.36686 0.58939 0.0
C1841 C 0.44553 0.39403 0.59665 0.0
C1842 C 0.49223 0.41589 0.61689 0.0
C1843 C 0.42599 0.39504 0.60346 0.0
C1844 C 0.57289 0.39904 0.6177 0.0
C1845 C 0.5532 0.40154 0.62115 0.0
C1846 C 0.507 0.38072 0.59663 0.0
C1847 C 0.45891 0.40251 0.61779 0.0
C1848 C 0.47974 0.40047 0.61164 0.0
C1849 C 0.54047 0.39358 0.59829 0.0
C1850 C 0.51952 0.39607 0.60226 0.0
H1851 H 0.42815 0.42082 0.67422 0.0
H1852 H 0.46222 0.41894 0.66245 0.0
H1853 H 0.47816 0.37064 0.59753 0.0
H1854 H 0.5729 0.37247 0.54771 0.0
H1855 H 0.53851 0.37693 0.55365 0.0
C1856 C 0.13602 0.08174 0.51235 0.0
C1857 C 0.14552 0.09352 0.48977 0.0
C1858 C 0.14091 0.08219 0.54548 0.0
C1859 C 0.16195 0.11415 0.60666 0.0
H1860 H 0.16215 0.06876 0.66108 0.0
C1861 C 0.17625 0.11872 0.74504 0.0
C1862 C 0.16362 0.10834 0.76497 0.0
C1863 C 0.17686 0.11549 0.71132 0.0
C1864 C 0.16206 0.08157 0.64621 0.0
H1865 H 0.16805 0.11457 0.48408 0.0
H1866 H 0.17663 0.11527 0.54192 0.0
H1867 H 0.15811 0.06566 0.60195 0.0
H1868 H 0.14217 0.08595 0.76531 0.0
H1869 H 0.14304 0.08051 0.7065 0.0
H1870 H 0.1654 0.13011 0.65084 0.0
C1871 C 0.16524 0.10585 0.53403 0.0
C1872 C 0.15975 0.07979 0.61238 0.0
C1873 C 0.16038 0.10538 0.50088 0.0
C1874 C 0.15208 0.09419 0.75064 0.0
C1875 C 0.15266 0.09099 0.71692 0.0
C1876 C 0.16423 0.11593 0.64046 0.0
C1877 C 0.15539 0.09445 0.55675 0.0
C1878 C 0.15941 0.09609 0.5923 0.0
C1879 C 0.16482 0.10182 0.6968 0.0
C1880 C 0.16405 0.09968 0.66068 0.0
H1881 H 0.12453 0.07242 0.50459 0.0
H1882 H 0.13289 0.07339 0.56242 0.0
H1883 H 0.16145 0.12701 0.59194 0.0
H1884 H 0.18544 0.12963 0.75535 0.0
H1885 H 0.1866 0.12387 0.69654 0.0
C1886 C 0.16802 0.88509 0.74946 0.0
C1887 C 0.15586 0.89484 0.72778 0.0
C1888 C 0.16749 0.88898 0.78298 0.0
C1889 C 0.1349 0.90697 0.84594 0.0
H1890 H 0.18032 0.90775 0.90029 0.0
C1891 C 0.13007 0.91922 0.9848 0.0
C1892 C 0.14116 0.90706 0.00448 0.0
C1893 C 0.13308 0.92008 0.95106 0.0
C1894 C 0.16751 0.90745 0.88545 0.0
H1895 H 0.13408 0.91681 0.72413 0.0
H1896 H 0.13324 0.92363 0.78264 0.0
H1897 H 0.1835 0.90516 0.84092 0.0
H1898 H 0.16449 0.88665 0.0043 0.0
H1899 H 0.16954 0.88791 0.94535 0.0
H1900 H 0.11886 0.90879 0.8903 0.0
C1901 C 0.14301 0.91282 0.77373 0.0
C1902 C 0.16933 0.90599 0.85147 0.0
C1903 C 0.14356 0.90897 0.7402 0.0
C1904 C 0.1557 0.89618 0.98982 0.0
C1905 C 0.15868 0.89699 0.95604 0.0
C1906 C 0.13308 0.90839 0.87985 0.0
C1907 C 0.15477 0.90267 0.79553 0.0
C1908 C 0.15303 0.90555 0.83138 0.0
C1909 C 0.14722 0.90875 0.93621 0.0
C1910 C 0.14934 0.90845 0.90004 0.0
H1911 H 0.17768 0.87414 0.74068 0.0
H1912 H 0.17659 0.88078 0.79917 0.0
H1913 H 0.12205 0.90635 0.83119 0.0
H1914 H 0.11885 0.92792 0.99537 0.0
H1915 H 0.12423 0.92953 0.93655 0.0
C1916 C 0.37036 0.91712 0.0081 0.0
C1917 C 0.35981 0.90633 0.98542 0.0
C1918 C 0.36587 0.91651 0.04139 0.0
C1919 C 0.34302 0.88541 0.10223 0.0
H1920 H 0.34682 0.93007 0.15802 0.0
C1921 C 0.32772 0.88147 0.24062 0.0
C1922 C 0.34113 0.89056 0.26094 0.0
C1923 C 0.32781 0.88467 0.20687 0.0
C1924 C 0.3458 0.91746 0.14276 0.0
H1925 H 0.33588 0.88689 0.97977 0.0
H1926 H 0.32796 0.88597 0.03786 0.0
H1927 H 0.35079 0.93347 0.09894 0.0
H1928 H 0.36483 0.91054 0.26188 0.0
H1929 H 0.36509 0.91598 0.20302 0.0
H1930 H 0.33837 0.86934 0.14601 0.0
C1931 C 0.33987 0.89469 0.02993 0.0
C1932 C 0.34807 0.9194 0.10895 0.0
C1933 C 0.34436 0.8953 0.99663 0.0
C1934 C 0.35431 0.90331 0.24691 0.0
C1935 C 0.35438 0.90652 0.21318 0.0
C1936 C 0.34073 0.88347 0.13601 0.0
C1937 C 0.35074 0.90509 0.05273 0.0
C1938 C 0.34694 0.90335 0.08835 0.0
C1939 C 0.34129 0.89706 0.19274 0.0
C1940 C 0.34233 0.89943 0.15669 0.0
H1941 H 0.38236 0.92576 0.00028 0.0
H1942 H 0.37467 0.92451 0.05834 0.0
H1943 H 0.34236 0.87271 0.08712 0.0
H1944 H 0.31731 0.87164 0.25068 0.0
H1945 H 0.31739 0.87736 0.19181 0.0
C1946 C 0.36251 0.0823 0.49781 0.0
C1947 C 0.35337 0.09485 0.5196 0.0
C1948 C 0.35808 0.08262 0.46447 0.0
C1949 C 0.33876 0.11473 0.4014 0.0
H1950 H 0.33776 0.0687 0.34858 0.0
C1951 C 0.32451 0.11739 0.26263 0.0
C1952 C 0.33723 0.10674 0.24328 0.0
C1953 C 0.32389 0.11474 0.29652 0.0
C1954 C 0.33806 0.08168 0.36302 0.0
H1955 H 0.33191 0.11711 0.5237 0.0
H1956 H 0.32404 0.11749 0.46561 0.0
H1957 H 0.34132 0.06622 0.40788 0.0
H1958 H 0.35881 0.08448 0.24417 0.0
H1959 H 0.35781 0.07996 0.30321 0.0
H1960 H 0.33583 0.13021 0.35657 0.0
C1961 C 0.33487 0.10764 0.4742 0.0
C1962 C 0.34012 0.08026 0.39695 0.0
C1963 C 0.33932 0.10735 0.50751 0.0
C1964 C 0.34886 0.09294 0.25837 0.0
C1965 C 0.3482 0.09026 0.29221 0.0
C1966 C 0.33666 0.11614 0.36751 0.0
C1967 C 0.34438 0.09546 0.45222 0.0
C1968 C 0.34076 0.09679 0.41648 0.0
C1969 C 0.33593 0.10134 0.31172 0.0
C1970 C 0.33654 0.09965 0.3479 0.0
H1971 H 0.37341 0.07251 0.50633 0.0
H1972 H 0.36585 0.07322 0.44816 0.0
H1973 H 0.33949 0.12776 0.41564 0.0
H1974 H 0.3153 0.12808 0.25175 0.0
H1975 H 0.31412 0.12333 0.31087 0.0
C1976 C 0.85314 0.90861 0.25488 0.0
C1977 C 0.84122 0.89499 0.23997 0.0
C1978 C 0.85215 0.91182 0.2886 0.0
C1979 C 0.83813 0.88728 0.3643 0.0
H1980 H 0.84518 0.93718 0.40373 0.0
C1981 C 0.83878 0.89681 0.50401 0.0
C1982 C 0.85372 0.90806 0.51653 0.0
C1983 C 0.83469 0.89686 0.47054 0.0
C1984 C 0.84327 0.92314 0.39305 0.0
H1985 H 0.81831 0.87471 0.24851 0.0
H1986 H 0.81646 0.88048 0.30719 0.0
H1987 H 0.84258 0.93437 0.34428 0.0
H1988 H 0.8756 0.92874 0.50391 0.0
H1989 H 0.86861 0.92865 0.44553 0.0
H1990 H 0.83921 0.87597 0.41282 0.0
C1991 C 0.82681 0.88841 0.29294 0.0
C1992 C 0.84179 0.92154 0.35903 0.0
C1993 C 0.82782 0.88517 0.25927 0.0
C1994 C 0.86402 0.91988 0.49505 0.0
C1995 C 0.85993 0.91993 0.46159 0.0
C1996 C 0.8396 0.88889 0.39823 0.0
C1997 C 0.8392 0.90151 0.30809 0.0
C1998 C 0.83942 0.90355 0.34426 0.0
C1999 C 0.84544 0.90816 0.44888 0.0
C2000 C 0.8424 0.9068 0.41299 0.0
H2001 H 0.86362 0.91642 0.24068 0.0
H2002 H 0.86203 0.92187 0.29954 0.0
H2003 H 0.83665 0.87317 0.3537 0.0
H2004 H 0.83048 0.88764 0.51993 0.0
H2005 H 0.82324 0.88786 0.46157 0.0
C2006 C 0.86892 0.08421 0.01362 0.0
C2007 C 0.85799 0.09492 0.99136 0.0
C2008 C 0.86478 0.08469 0.04704 0.0
C2009 C 0.8419 0.11513 0.10897 0.0
H2010 H 0.84674 0.07021 0.16389 0.0
C2011 C 0.82693 0.11802 0.24748 0.0
C2012 C 0.84059 0.10913 0.26756 0.0
C2013 C 0.82697 0.11495 0.2137 0.0
C2014 C 0.84542 0.08289 0.14887 0.0
H2015 H 0.83378 0.11411 0.98663 0.0
H2016 H 0.82647 0.11477 0.04495 0.0
H2017 H 0.8505 0.06724 0.1047 0.0
H2018 H 0.86466 0.08958 0.26805 0.0
H2019 H 0.86482 0.08436 0.20911 0.0
H2020 H 0.83713 0.13084 0.15309 0.0
C2021 C 0.83841 0.10623 0.0366 0.0
C2022 C 0.84759 0.0812 0.115 0.0
C2023 C 0.84255 0.10577 0.00316 0.0
C2024 C 0.85394 0.09666 0.25326 0.0
C2025 C 0.85396 0.09357 0.21949 0.0
C2026 C 0.83972 0.11682 0.14281 0.0
C2027 C 0.84962 0.09586 0.05896 0.0
C2028 C 0.84607 0.09734 0.0947 0.0
C2029 C 0.84065 0.10289 0.19928 0.0
C2030 C 0.84167 0.10076 0.16318 0.0
H2031 H 0.88091 0.07572 0.00534 0.0
H2032 H 0.87384 0.07672 0.06365 0.0
H2033 H 0.84093 0.12791 0.09411 0.0
H2034 H 0.81639 0.12764 0.25774 0.0
H2035 H 0.81637 0.12213 0.19881 0.0
C2036 C 0.64533 0.09436 0.75384 0.0
C2037 C 0.65686 0.10864 0.73989 0.0
C2038 C 0.64571 0.09107 0.78759 0.0
C2039 C 0.65704 0.11589 0.86447 0.0
H2040 H 0.65269 0.06542 0.90289 0.0
C2041 C 0.6581 0.1052 0.00383 0.0
C2042 C 0.64406 0.09296 0.01666 0.0
C2043 C 0.66162 0.10574 0.97021 0.0
C2044 C 0.6538 0.07961 0.89248 0.0
H2045 H 0.67846 0.13006 0.75018 0.0
H2046 H 0.67927 0.12415 0.80885 0.0
H2047 H 0.6554 0.06875 0.84352 0.0
H2048 H 0.62314 0.07124 0.00437 0.0
H2049 H 0.62915 0.07235 0.94565 0.0
H2050 H 0.65516 0.1268 0.91319 0.0
C2051 C 0.66966 0.11576 0.79385 0.0
C2052 C 0.65534 0.08151 0.85851 0.0
C2053 C 0.66925 0.11908 0.76019 0.0
C2054 C 0.63404 0.08084 0.99526 0.0
C2055 C 0.63756 0.0814 0.96161 0.0
C2056 C 0.65551 0.11399 0.89834 0.0
C2057 C 0.65765 0.10197 0.80803 0.0
C2058 C 0.65687 0.0997 0.84413 0.0
C2059 C 0.65118 0.09407 0.94867 0.0
C2060 C 0.65376 0.09585 0.91274 0.0
H2061 H 0.63563 0.08606 0.73885 0.0
H2062 H 0.63615 0.08046 0.79778 0.0
H2063 H 0.65782 0.13012 0.85416 0.0
H2064 H 0.66617 0.11462 0.01968 0.0
H2065 H 0.67243 0.11544 0.96104 0.0
C2066 C 0.63258 0.91521 0.50562 0.0
C2067 C 0.64302 0.90386 0.4836 0.0
C2068 C 0.63686 0.91499 0.53901 0.0
C2069 C 0.65855 0.88421 0.60148 0.0
H2070 H 0.65606 0.92974 0.6554 0.0
C2071 C 0.67398 0.88148 0.73972 0.0
C2072 C 0.66106 0.89134 0.75991 0.0
C2073 C 0.67386 0.88432 0.70589 0.0
C2074 C 0.6567 0.91689 0.64068 0.0
H2075 H 0.66656 0.88385 0.47921 0.0
H2076 H 0.67411 0.88358 0.53746 0.0
H2077 H 0.6522 0.93241 0.59617 0.0
H2078 H 0.63823 0.91232 0.76052 0.0
H2079 H 0.63788 0.91709 0.70146 0.0
H2080 H 0.66267 0.86862 0.64589 0.0
C2081 C 0.66244 0.89245 0.52895 0.0
C2082 C 0.6545 0.91842 0.60678 0.0
C2083 C 0.65817 0.89268 0.49555 0.0
C2084 C 0.64838 0.9045 0.74564 0.0
C2085 C 0.64825 0.90732 0.7118 0.0
C2086 C 0.66074 0.88267 0.63533 0.0
C2087 C 0.65167 0.90341 0.5511 0.0
C2088 C 0.65522 0.90206 0.58684 0.0
C2089 C 0.66081 0.89706 0.69149 0.0
C2090 C 0.65965 0.89897 0.65536 0.0
H2091 H 0.62082 0.92399 0.49722 0.0
H2092 H 0.62816 0.92344 0.55547 0.0
H2093 H 0.65887 0.87129 0.58688 0.0
H2094 H 0.68401 0.87133 0.74996 0.0
H2095 H 0.68391 0.87641 0.69096 0.0
C2096 C 0.66252 0.59831 0.99829 0.0
C2097 C 0.64833 0.58592 0.98637 0.0
C2098 C 0.667 0.59868 0.03155 0.0
C2099 C 0.66092 0.57283 0.1102 0.0
H2100 H 0.66416 0.62381 0.14696 0.0
C2101 C 0.65131 0.58923 0.24789 0.0
C2102 C 0.66236 0.60395 0.26166 0.0
C2103 C 0.65224 0.58541 0.21436 0.0
C2104 C 0.66364 0.60946 0.13709 0.0
H2105 H 0.62836 0.56356 -0.00021 0.0
H2106 H 0.63597 0.56443 0.05801 0.0
H2107 H 0.66124 0.61984 0.08815 0.0
H2108 H 0.68372 0.62558 0.25133 0.0
H2109 H 0.68548 0.61876 0.19294 0.0
H2110 H 0.66289 0.56253 0.15948 0.0
C2111 C 0.64378 0.57372 0.04157 0.0
C2112 C 0.66197 0.60717 0.10332 0.0
C2113 C 0.63934 0.57329 0.00821 0.0
C2114 C 0.67488 0.61427 0.24144 0.0
C2115 C 0.67584 0.61041 0.20795 0.0
C2116 C 0.66259 0.57513 0.14409 0.0
C2117 C 0.65735 0.58673 0.0537 0.0
C2118 C 0.66042 0.58886 0.08947 0.0
C2119 C 0.66426 0.59619 0.19393 0.0
C2120 C 0.6638 0.59349 0.15791 0.0
H2121 H 0.66987 0.60808 0.98205 0.0
H2122 H 0.6778 0.6086 0.04003 0.0
H2123 H 0.65997 0.55853 0.10024 0.0
H2124 H 0.64151 0.58101 0.26281 0.0
H2125 H 0.64299 0.57448 0.20428 0.0
C2126 C 0.63326 0.42729 0.48824 0.0
C2127 C 0.64427 0.41465 0.50716 0.0
C2128 C 0.6358 0.42828 0.45434 0.0
C2129 C 0.66878 0.41498 0.38701 0.0
H2130 H 0.62236 0.41187 0.33547 0.0
C2131 C 0.66776 0.38803 0.25388 0.0
C2132 C 0.65505 0.39658 0.23167 0.0
C2133 C 0.66749 0.39311 0.28693 0.0
C2134 C 0.63547 0.41308 0.3494 0.0
H2135 H 0.66716 0.39375 0.50554 0.0
H2136 H 0.67149 0.3954 0.44656 0.0
H2137 H 0.62026 0.41615 0.39447 0.0
H2138 H 0.63244 0.41759 0.22655 0.0
H2139 H 0.63208 0.42655 0.28422 0.0
H2140 H 0.68398 0.41148 0.34194 0.0
C2141 C 0.66098 0.40465 0.45786 0.0
C2142 C 0.63426 0.41555 0.38325 0.0
C2143 C 0.65841 0.40361 0.49168 0.0
C2144 C 0.64235 0.41064 0.24307 0.0
C2145 C 0.64208 0.41573 0.27614 0.0
C2146 C 0.67 0.41254 0.35314 0.0
C2147 C 0.64947 0.41672 0.43873 0.0
C2148 C 0.65089 0.41619 0.4025 0.0
C2149 C 0.65451 0.40687 0.29851 0.0
C2150 C 0.65334 0.41122 0.33402 0.0
H2151 H 0.6223 0.43604 0.49944 0.0
H2152 H 0.62687 0.43789 0.44028 0.0
H2153 H 0.68186 0.41571 0.40114 0.0
H2154 H 0.67772 0.37714 0.2459 0.0
H2155 H 0.67707 0.38582 0.30358 0.0
C2156 C 0.8543 0.40484 0.75006 0.0
C2157 C 0.84144 0.3917 0.7639 0.0
C2158 C 0.85419 0.40831 0.7164 0.0
C2159 C 0.84041 0.3854 0.63898 0.0
H2160 H 0.85029 0.43551 0.60224 0.0
C2161 C 0.84312 0.3976 0.49974 0.0
C2162 C 0.85871 0.40838 0.48838 0.0
C2163 C 0.83877 0.39704 0.5331 0.0
C2164 C 0.8476 0.42142 0.61217 0.0
H2165 H 0.8179 0.37247 0.75345 0.0
H2166 H 0.81758 0.37872 0.6948 0.0
H2167 H 0.84663 0.43193 0.66136 0.0
H2168 H 0.88157 0.4275 0.50299 0.0
H2169 H 0.87408 0.42637 0.56114 0.0
H2170 H 0.8417 0.37482 0.58996 0.0
C2171 C 0.82797 0.38607 0.70988 0.0
C2172 C 0.84552 0.41937 0.64601 0.0
C2173 C 0.8281 0.38257 0.74352 0.0
C2174 C 0.86948 0.41904 0.51094 0.0
C2175 C 0.86511 0.4185 0.54427 0.0
C2176 C 0.84247 0.38746 0.60519 0.0
C2177 C 0.8412 0.39876 0.69586 0.0
C2178 C 0.84212 0.40129 0.65982 0.0
C2179 C 0.84988 0.40727 0.55577 0.0
C2180 C 0.8463 0.40545 0.59143 0.0
H2181 H 0.86477 0.41211 0.7651 0.0
H2182 H 0.86471 0.41801 0.70634 0.0
H2183 H 0.83812 0.37122 0.64884 0.0
H2184 H 0.83447 0.3893 0.48298 0.0
H2185 H 0.82678 0.38847 0.54117 0.0
C2186 C 0.8333 0.60189 0.99648 0.0
C2187 C 0.84842 0.5906 0.00824 0.0
C2188 C 0.82862 0.60184 0.96325 0.0
C2189 C 0.8362 0.57584 0.8851 0.0
H2190 H 0.82968 0.62605 0.84659 0.0
C2191 C 0.84806 0.59131 0.74828 0.0
C2192 C 0.83628 0.6048 0.73272 0.0
C2193 C 0.84638 0.58795 0.78182 0.0
C2194 C 0.8311 0.61189 0.85697 0.0
H2195 H 0.86995 0.56977 0.99459 0.0
H2196 H 0.86196 0.56989 0.93658 0.0
H2197 H 0.8323 0.62291 0.90568 0.0
H2198 H 0.813 0.62482 0.73996 0.0
H2199 H 0.81002 0.61887 0.7986 0.0
H2200 H 0.83554 0.56492 0.83615 0.0
C2201 C 0.85357 0.57864 0.95306 0.0
C2202 C 0.8326 0.61008 0.89089 0.0
C2203 C 0.85824 0.57866 0.98631 0.0
C2204 C 0.82236 0.61441 0.75124 0.0
C2205 C 0.8207 0.61107 0.78485 0.0
C2206 C 0.83471 0.57765 0.85114 0.0
C2207 C 0.83896 0.59052 0.94106 0.0
C2208 C 0.83549 0.59207 0.90532 0.0
C2209 C 0.83289 0.59801 0.80058 0.0
C2210 C 0.83248 0.59574 0.83668 0.0
H2211 H 0.82533 0.61114 0.01279 0.0
H2212 H 0.81708 0.61092 0.95486 0.0
H2213 H 0.83812 0.56174 0.89552 0.0
H2214 H 0.85892 0.58364 0.73472 0.0
H2215 H 0.85615 0.57797 0.79325 0.0
C2216 C 0.35406 0.40823 0.75049 0.0
C2217 C 0.34215 0.39447 0.73593 0.0
C2218 C 0.35336 0.41144 0.78424 0.0
C2219 C 0.34039 0.3869 0.86041 0.0
H2220 H 0.34549 0.43717 0.89933 0.0
C2221 C 0.33929 0.39677 -0.00016 0.0
C2222 C 0.35346 0.40876 0.01293 0.0
C2223 C 0.33566 0.3966 0.96624 0.0
C2224 C 0.34417 0.42303 0.88881 0.0
H2225 H 0.31965 0.37383 0.74517 0.0
H2226 H 0.31835 0.37955 0.80391 0.0
H2227 H 0.3433 0.43402 0.83987 0.0
H2228 H 0.37445 0.43051 0.00116 0.0
H2229 H 0.36833 0.42999 0.94247 0.0
H2230 H 0.34166 0.37582 0.90905 0.0
C2231 C 0.32844 0.38764 0.78934 0.0
C2232 C 0.34291 0.42124 0.85478 0.0
C2233 C 0.32913 0.38443 0.75564 0.0
C2234 C 0.36344 0.42109 0.99185 0.0
C2235 C 0.35985 0.42087 0.95821 0.0
C2236 C 0.34167 0.38868 0.89434 0.0
C2237 C 0.34075 0.40095 0.80409 0.0
C2238 C 0.34114 0.40313 0.84022 0.0
C2239 C 0.34618 0.40836 0.94495 0.0
C2240 C 0.34371 0.40675 0.90895 0.0
H2241 H 0.36424 0.41622 0.73596 0.0
H2242 H 0.36316 0.42167 0.79491 0.0
H2243 H 0.33939 0.37271 0.84995 0.0
H2244 H 0.33123 0.38721 0.01545 0.0
H2245 H 0.32479 0.38705 0.95687 0.0
C2246 C 0.35474 0.59672 0.75222 0.0
C2247 C 0.34276 0.61072 0.7659 0.0
C2248 C 0.35469 0.59341 0.71849 0.0
C2249 C 0.34267 0.61735 0.64084 0.0
H2250 H 0.34937 0.56673 0.604 0.0
C2251 C 0.34286 0.60467 0.50167 0.0
C2252 C 0.35783 0.59324 0.48976 0.0
C2253 C 0.33904 0.60552 0.5352 0.0
C2254 C 0.34757 0.58095 0.61398 0.0
H2255 H 0.32083 0.6317 0.7551 0.0
H2256 H 0.32053 0.62569 0.69642 0.0
H2257 H 0.34619 0.57053 0.66318 0.0
H2258 H 0.38011 0.57324 0.50358 0.0
H2259 H 0.37348 0.57482 0.56205 0.0
H2260 H 0.34423 0.6278 0.59175 0.0
C2261 C 0.33025 0.61756 0.71162 0.0
C2262 C 0.34579 0.58314 0.64785 0.0
C2263 C 0.33036 0.62094 0.74529 0.0
C2264 C 0.3685 0.58222 0.51196 0.0
C2265 C 0.36463 0.58302 0.54547 0.0
C2266 C 0.34438 0.61516 0.60703 0.0
C2267 C 0.34261 0.60396 0.69775 0.0
C2268 C 0.34349 0.60139 0.66169 0.0
C2269 C 0.35005 0.5949 0.55748 0.0
C2270 C 0.34703 0.59696 0.59324 0.0
H2271 H 0.36448 0.58863 0.76744 0.0
H2272 H 0.36455 0.58298 0.70858 0.0
H2273 H 0.34127 0.63164 0.65069 0.0
H2274 H 0.33431 0.61327 0.4852 0.0
H2275 H 0.32755 0.61462 0.54371 0.0
C2276 C 0.13919 0.5831 0.47734 0.0
C2277 C 0.14892 0.59469 0.49991 0.0
C2278 C 0.145 0.58236 0.44469 0.0
C2279 C 0.1695 0.61127 0.38313 0.0
H2280 H 0.16572 0.56501 0.3313 0.0
C2281 C 0.17957 0.61243 0.24316 0.0
C2282 C 0.16498 0.60311 0.22574 0.0
C2283 C 0.18164 0.60955 0.27684 0.0
C2284 C 0.16685 0.57804 0.34546 0.0
H2285 H 0.17282 0.61411 0.50617 0.0
H2286 H 0.18299 0.61276 0.44905 0.0
H2287 H 0.16204 0.56333 0.39064 0.0
H2288 H 0.14167 0.58279 0.22971 0.0
H2289 H 0.14517 0.5779 0.28827 0.0
H2290 H 0.17367 0.62609 0.33793 0.0
C2291 C 0.17075 0.60439 0.45661 0.0
C2292 C 0.16474 0.57708 0.37941 0.0
C2293 C 0.16496 0.6051 0.48934 0.0
C2294 C 0.15303 0.59025 0.24241 0.0
C2295 C 0.15513 0.58732 0.27598 0.0
C2296 C 0.17162 0.61223 0.34918 0.0
C2297 C 0.16067 0.5932 0.43385 0.0
C2298 C 0.16553 0.59376 0.39851 0.0
C2299 C 0.16922 0.5972 0.2937 0.0
C2300 C 0.16981 0.5957 0.32991 0.0
H2301 H 0.12681 0.57487 0.48468 0.0
H2302 H 0.13676 0.5738 0.4277 0.0
H2303 H 0.16999 0.62442 0.39709 0.0
H2304 H 0.18907 0.62237 0.23099 0.0
H2305 H 0.19275 0.61721 0.2898 0.0
C2306 C 0.17488 0.38355 0.24677 0.0
C2307 C 0.16096 0.39216 0.26668 0.0
C2308 C 0.17492 0.38663 0.21299 0.0
C2309 C 0.15589 0.4183 0.14801 0.0
H2310 H 0.16182 0.3735 0.09312 0.0
C2311 C 0.13175 0.41589 0.01324 0.0
C2312 C 0.14295 0.40563 0.99078 0.0
C2313 C 0.13618 0.4157 0.04655 0.0
C2314 C 0.16046 0.38622 0.10803 0.0
H2315 H 0.13646 0.41117 0.26685 0.0
H2316 H 0.13641 0.41635 0.20793 0.0
H2317 H 0.16564 0.37061 0.15212 0.0
H2318 H 0.16797 0.38757 0.98554 0.0
H2319 H 0.17578 0.38734 0.04372 0.0
H2320 H 0.15032 0.43381 0.10386 0.0
C2321 C 0.14743 0.40739 0.21844 0.0
C2322 C 0.16265 0.38457 0.14187 0.0
C2323 C 0.14739 0.40432 0.25221 0.0
C2324 C 0.15899 0.39556 0.00223 0.0
C2325 C 0.16342 0.39535 0.03558 0.0
C2326 C 0.15369 0.41995 0.11414 0.0
C2327 C 0.16105 0.39839 0.1984 0.0
C2328 C 0.16014 0.40053 0.16229 0.0
C2329 C 0.15192 0.40522 0.05815 0.0
C2330 C 0.15571 0.40387 0.09382 0.0
H2331 H 0.1856 0.37419 0.25718 0.0
H2332 H 0.18575 0.37969 0.19825 0.0
H2333 H 0.15416 0.43093 0.16305 0.0
H2334 H 0.11929 0.4238 0.00523 0.0
H2335 H 0.12691 0.42327 0.06334 0.0
loop_
_geom_bond_atom_site_label_1
_geom_bond_atom_site_label_2
_geom_bond_distance
_geom_bond_site_symmetry_2
_ccdc_geom_bond_type
C0 O1 1.160 . S
C0 O7 1.185 . S
O1 C0 1.160 . S
O2 Zn3 1.899 . S
O2 C10 1.284 . S
Zn3 O2 1.899 . S
Zn3 O4 2.032 . S
Zn3 O7 2.086 . S
Zn3 O12 1.977 . S
O4 Zn3 2.032 . S
O4 C8 1.278 . S
C5 O6 1.203 . S
C5 O12 1.267 . S
O6 C5 1.203 . S
O7 C0 1.185 . S
O7 Zn3 2.086 . S
C8 O4 1.278 . S
C8 O9 1.211 . S
O9 C8 1.211 . S
C10 O2 1.284 . S
C10 O11 1.273 . S
O11 C10 1.273 . S
O12 Zn3 1.977 . S
O12 C5 1.267 . S
C13 O14 1.160 . S
C13 O20 1.185 . S
O14 C13 1.160 . S
O15 Zn16 1.899 . S
O15 C23 1.284 . S
Zn16 O15 1.899 . S
Zn16 O17 2.032 . S
Zn16 O20 2.086 . S
Zn16 O25 1.977 . S
O17 Zn16 2.032 . S
O17 C21 1.278 . S
C18 O19 1.203 . S
C18 O25 1.267 . S
O19 C18 1.203 . S
O20 C13 1.185 . S
O20 Zn16 2.086 . S
C21 O17 1.278 . S
C21 O22 1.211 . S
O22 C21 1.211 . S
C23 O15 1.284 . S
C23 O24 1.273 . S
O24 C23 1.273 . S
O25 Zn16 1.977 . S
O25 C18 1.267 . S
C26 O27 1.160 . S
C26 O33 1.185 . S
O27 C26 1.160 . S
O28 Zn29 1.899 . S
O28 C36 1.284 . S
Zn29 O28 1.899 . S
Zn29 O30 2.032 . S
Zn29 O33 2.086 . S
Zn29 O38 1.977 . S
O30 Zn29 2.032 . S
O30 C34 1.278 . S
C31 O32 1.203 . S
C31 O38 1.267 . S
O32 C31 1.203 . S
O33 C26 1.185 . S
O33 Zn29 2.086 . S
C34 O30 1.278 . S
C34 O35 1.211 . S
O35 C34 1.211 . S
C36 O28 1.284 . S
C36 O37 1.273 . S
O37 C36 1.273 . S
O38 Zn29 1.977 . S
O38 C31 1.267 . S
C39 O40 1.160 . S
C39 O46 1.185 . S
O40 C39 1.160 . S
O41 Zn42 1.899 . S
O41 C49 1.284 . S
Zn42 O41 1.899 . S
Zn42 O43 2.032 . S
Zn42 O46 2.086 . S
Zn42 O51 1.977 . S
O43 Zn42 2.032 . S
O43 C47 1.278 . S
C44 O45 1.203 . S
C44 O51 1.267 . S
O45 C44 1.203 . S
O46 C39 1.185 . S
O46 Zn42 2.086 . S
C47 O43 1.278 . S
C47 O48 1.211 . S
O48 C47 1.211 . S
C49 O41 1.284 . S
C49 O50 1.273 . S
O50 C49 1.273 . S
O51 Zn42 1.977 . S
O51 C44 1.267 . S
C52 O53 1.160 . S
C52 O59 1.185 . S
O53 C52 1.160 . S
O54 Zn55 1.899 . S
O54 C62 1.284 . S
Zn55 O54 1.899 . S
Zn55 O56 2.032 . S
Zn55 O59 2.086 . S
Zn55 O64 1.977 . S
O56 Zn55 2.032 . S
O56 C60 1.278 . S
C57 O58 1.203 . S
C57 O64 1.267 . S
O58 C57 1.203 . S
O59 C52 1.185 . S
O59 Zn55 2.086 . S
C60 O56 1.278 . S
C60 O61 1.211 . S
O61 C60 1.211 . S
C62 O54 1.284 . S
C62 O63 1.273 . S
O63 C62 1.273 . S
O64 Zn55 1.977 . S
O64 C57 1.267 . S
C65 O66 1.160 . S
C65 O72 1.185 . S
O66 C65 1.160 . S
O67 Zn68 1.899 . S
O67 C75 1.284 . S
Zn68 O67 1.899 . S
Zn68 O69 2.032 . S
Zn68 O72 2.086 . S
Zn68 O77 1.977 . S
O69 Zn68 2.032 . S
O69 C73 1.278 . S
C70 O71 1.203 . S
C70 O77 1.267 . S
O71 C70 1.203 . S
O72 C65 1.185 . S
O72 Zn68 2.086 . S
C73 O69 1.278 . S
C73 O74 1.211 . S
O74 C73 1.211 . S
C75 O67 1.284 . S
C75 O76 1.273 . S
O76 C75 1.273 . S
O77 Zn68 1.977 . S
O77 C70 1.267 . S
C78 O79 1.160 . S
C78 O85 1.185 . S
O79 C78 1.160 . S
O80 Zn81 1.899 . S
O80 C88 1.284 . S
Zn81 O80 1.899 . S
Zn81 O82 2.032 . S
Zn81 O85 2.086 . S
Zn81 O90 1.977 . S
O82 Zn81 2.032 . S
O82 C86 1.278 . S
C83 O84 1.203 . S
C83 O90 1.267 . S
O84 C83 1.203 . S
O85 C78 1.185 . S
O85 Zn81 2.086 . S
C86 O82 1.278 . S
C86 O87 1.211 . S
O87 C86 1.211 . S
C88 O80 1.284 . S
C88 O89 1.273 . S
O89 C88 1.273 . S
O90 Zn81 1.977 . S
O90 C83 1.267 . S
C91 O92 1.160 . S
C91 O98 1.185 . S
O92 C91 1.160 . S
O93 Zn94 1.899 . S
O93 C101 1.284 . S
Zn94 O93 1.899 . S
Zn94 O95 2.032 . S
Zn94 O98 2.086 . S
Zn94 O103 1.977 . S
O95 Zn94 2.032 . S
O95 C99 1.278 . S
C96 O97 1.203 . S
C96 O103 1.267 . S
O97 C96 1.203 . S
O98 C91 1.185 . S
O98 Zn94 2.086 . S
C99 O95 1.278 . S
C99 O100 1.211 . S
O100 C99 1.211 . S
C101 O93 1.284 . S
C101 O102 1.273 . S
O102 C101 1.273 . S
O103 Zn94 1.977 . S
O103 C96 1.267 . S
C104 O105 1.160 . S
C104 O111 1.185 . S
O105 C104 1.160 . S
O106 Zn107 1.899 . S
O106 C114 1.284 . S
Zn107 O106 1.899 . S
Zn107 O108 2.032 . S
Zn107 O111 2.086 . S
Zn107 O116 1.977 . S
O108 Zn107 2.032 . S
O108 C112 1.278 . S
C109 O110 1.203 . S
C109 O116 1.267 . S
O110 C109 1.203 . S
O111 C104 1.185 . S
O111 Zn107 2.086 . S
C112 O108 1.278 . S
C112 O113 1.211 . S
O113 C112 1.211 . S
C114 O106 1.284 . S
C114 O115 1.273 . S
O115 C114 1.273 . S
O116 Zn107 1.977 . S
O116 C109 1.267 . S
C117 O118 1.160 . S
C117 O124 1.185 . S
O118 C117 1.160 . S
O119 Zn120 1.899 . S
O119 C127 1.284 . S
Zn120 O119 1.899 . S
Zn120 O121 2.032 . S
Zn120 O124 2.086 . S
Zn120 O129 1.977 . S
O121 Zn120 2.032 . S
O121 C125 1.278 . S
C122 O123 1.203 . S
C122 O129 1.267 . S
O123 C122 1.203 . S
O124 C117 1.185 . S
O124 Zn120 2.086 . S
C125 O121 1.278 . S
C125 O126 1.211 . S
O126 C125 1.211 . S
C127 O119 1.284 . S
C127 O128 1.273 . S
O128 C127 1.273 . S
O129 Zn120 1.977 . S
O129 C122 1.267 . S
C130 O131 1.160 . S
C130 O137 1.185 . S
O131 C130 1.160 . S
O132 Zn133 1.899 . S
O132 C140 1.284 . S
Zn133 O132 1.899 . S
Zn133 O134 2.032 . S
Zn133 O137 2.086 . S
Zn133 O142 1.977 . S
O134 Zn133 2.032 . S
O134 C138 1.278 . S
C135 O136 1.203 . S
C135 O142 1.267 . S
O136 C135 1.203 . S
O137 C130 1.185 . S
O137 Zn133 2.086 . S
C138 O134 1.278 . S
C138 O139 1.211 . S
O139 C138 1.211 . S
C140 O132 1.284 . S
C140 O141 1.273 . S
O141 C140 1.273 . S
O142 Zn133 1.977 . S
O142 C135 1.267 . S
C143 O144 1.160 . S
C143 O150 1.185 . S
O144 C143 1.160 . S
O145 Zn146 1.899 . S
O145 C153 1.284 . S
Zn146 O145 1.899 . S
Zn146 O147 2.032 . S
Zn146 O150 2.086 . S
Zn146 O155 1.977 . S
O147 Zn146 2.032 . S
O147 C151 1.278 . S
C148 O149 1.203 . S
C148 O155 1.267 . S
O149 C148 1.203 . S
O150 C143 1.185 . S
O150 Zn146 2.086 . S
C151 O147 1.278 . S
C151 O152 1.211 . S
O152 C151 1.211 . S
C153 O145 1.284 . S
C153 O154 1.273 . S
O154 C153 1.273 . S
O155 Zn146 1.977 . S
O155 C148 1.267 . S
C156 O157 1.160 . S
C156 O163 1.185 . S
O157 C156 1.160 . S
O158 Zn159 1.899 . S
O158 C166 1.284 . S
Zn159 O158 1.899 . S
Zn159 O160 2.032 . S
Zn159 O163 2.086 . S
Zn159 O168 1.977 . S
O160 Zn159 2.032 . S
O160 C164 1.278 . S
C161 O162 1.203 . S
C161 O168 1.267 . S
O162 C161 1.203 . S
O163 C156 1.185 . S
O163 Zn159 2.086 . S
C164 O160 1.278 . S
C164 O165 1.211 . S
O165 C164 1.211 . S
C166 O158 1.284 . S
C166 O167 1.273 . S
O167 C166 1.273 . S
O168 Zn159 1.977 . S
O168 C161 1.267 . S
C169 O170 1.160 . S
C169 O176 1.185 . S
O170 C169 1.160 . S
O171 Zn172 1.899 . S
O171 C179 1.284 . S
Zn172 O171 1.899 . S
Zn172 O173 2.032 . S
Zn172 O176 2.086 . S
Zn172 O181 1.977 . S
O173 Zn172 2.032 . S
O173 C177 1.278 . S
C174 O175 1.203 . S
C174 O181 1.267 . S
O175 C174 1.203 . S
O176 C169 1.185 . S
O176 Zn172 2.086 . S
C177 O173 1.278 . S
C177 O178 1.211 . S
O178 C177 1.211 . S
C179 O171 1.284 . S
C179 O180 1.273 . S
O180 C179 1.273 . S
O181 Zn172 1.977 . S
O181 C174 1.267 . S
C182 O183 1.160 . S
C182 O189 1.185 . S
O183 C182 1.160 . S
O184 Zn185 1.899 . S
O184 C192 1.284 . S
Zn185 O184 1.899 . S
Zn185 O186 2.032 . S
Zn185 O189 2.086 . S
Zn185 O194 1.977 . S
O186 Zn185 2.032 . S
O186 C190 1.278 . S
C187 O188 1.203 . S
C187 O194 1.267 . S
O188 C187 1.203 . S
O189 C182 1.185 . S
O189 Zn185 2.086 . S
C190 O186 1.278 . S
C190 O191 1.211 . S
O191 C190 1.211 . S
C192 O184 1.284 . S
C192 O193 1.273 . S
O193 C192 1.273 . S
O194 Zn185 1.977 . S
O194 C187 1.267 . S
C195 O196 1.160 . S
C195 O202 1.185 . S
O196 C195 1.160 . S
O197 Zn198 1.899 . S
O197 C205 1.284 . S
Zn198 O197 1.899 . S
Zn198 O199 2.032 . S
Zn198 O202 2.086 . S
Zn198 O207 1.977 . S
O199 Zn198 2.032 . S
O199 C203 1.278 . S
C200 O201 1.203 . S
C200 O207 1.267 . S
O201 C200 1.203 . S
O202 C195 1.185 . S
O202 Zn198 2.086 . S
C203 O199 1.278 . S
C203 O204 1.211 . S
O204 C203 1.211 . S
C205 O197 1.284 . S
C205 O206 1.273 . S
O206 C205 1.273 . S
O207 Zn198 1.977 . S
O207 C200 1.267 . S
C208 O209 1.160 . S
C208 O215 1.185 . S
O209 C208 1.160 . S
O210 Zn211 1.899 . S
O210 C218 1.284 . S
Zn211 O210 1.899 . S
Zn211 O212 2.032 . S
Zn211 O215 2.086 . S
Zn211 O220 1.977 . S
O212 Zn211 2.032 . S
O212 C216 1.278 . S
C213 O214 1.203 . S
C213 O220 1.267 . S
O214 C213 1.203 . S
O215 C208 1.185 . S
O215 Zn211 2.086 . S
C216 O212 1.278 . S
C216 O217 1.211 . S
O217 C216 1.211 . S
C218 O210 1.284 . S
C218 O219 1.273 . S
O219 C218 1.273 . S
O220 Zn211 1.977 . S
O220 C213 1.267 . S
C221 O222 1.160 . S
C221 O228 1.185 . S
O222 C221 1.160 . S
O223 Zn224 1.899 . S
O223 C231 1.284 . S
Zn224 O223 1.899 . S
Zn224 O225 2.032 . S
Zn224 O228 2.086 . S
Zn224 O233 1.977 . S
O225 Zn224 2.032 . S
O225 C229 1.278 . S
C226 O227 1.203 . S
C226 O233 1.267 . S
O227 C226 1.203 . S
O228 C221 1.185 . S
O228 Zn224 2.086 . S
C229 O225 1.278 . S
C229 O230 1.211 . S
O230 C229 1.211 . S
C231 O223 1.284 . S
C231 O232 1.273 . S
O232 C231 1.273 . S
O233 Zn224 1.977 . S
O233 C226 1.267 . S
C234 O235 1.160 . S
C234 O241 1.185 . S
O235 C234 1.160 . S
O236 Zn237 1.899 . S
O236 C244 1.284 . S
Zn237 O236 1.899 . S
Zn237 O238 2.032 . S
Zn237 O241 2.086 . S
Zn237 O246 1.977 . S
O238 Zn237 2.032 . S
O238 C242 1.278 . S
C239 O240 1.203 . S
C239 O246 1.267 . S
O240 C239 1.203 . S
O241 C234 1.185 . S
O241 Zn237 2.086 . S
C242 O238 1.278 . S
C242 O243 1.211 . S
O243 C242 1.211 . S
C244 O236 1.284 . S
C244 O245 1.273 . S
O245 C244 1.273 . S
O246 Zn237 1.977 . S
O246 C239 1.267 . S
C247 O248 1.160 . S
C247 O254 1.185 . S
O248 C247 1.160 . S
O249 Zn250 1.899 . S
O249 C257 1.284 . S
Zn250 O249 1.899 . S
Zn250 O251 2.032 . S
Zn250 O254 2.086 . S
Zn250 O259 1.977 . S
O251 Zn250 2.032 . S
O251 C255 1.278 . S
C252 O253 1.203 . S
C252 O259 1.267 . S
O253 C252 1.203 . S
O254 C247 1.185 . S
O254 Zn250 2.086 . S
C255 O251 1.278 . S
C255 O256 1.211 . S
O256 C255 1.211 . S
C257 O249 1.284 . S
C257 O258 1.273 . S
O258 C257 1.273 . S
O259 Zn250 1.977 . S
O259 C252 1.267 . S
C260 O261 1.160 . S
C260 O267 1.185 . S
O261 C260 1.160 . S
O262 Zn263 1.899 . S
O262 C270 1.284 . S
Zn263 O262 1.899 . S
Zn263 O264 2.032 . S
Zn263 O267 2.086 . S
Zn263 O272 1.977 . S
O264 Zn263 2.032 . S
O264 C268 1.278 . S
C265 O266 1.203 . S
C265 O272 1.267 . S
O266 C265 1.203 . S
O267 C260 1.185 . S
O267 Zn263 2.086 . S
C268 O264 1.278 . S
C268 O269 1.211 . S
O269 C268 1.211 . S
C270 O262 1.284 . S
C270 O271 1.273 . S
O271 C270 1.273 . S
O272 Zn263 1.977 . S
O272 C265 1.267 . S
C273 O274 1.160 . S
C273 O280 1.185 . S
O274 C273 1.160 . S
O275 Zn276 1.899 . S
O275 C283 1.284 . S
Zn276 O275 1.899 . S
Zn276 O277 2.032 . S
Zn276 O280 2.086 . S
Zn276 O285 1.977 . S
O277 Zn276 2.032 . S
O277 C281 1.278 . S
C278 O279 1.203 . S
C278 O285 1.267 . S
O279 C278 1.203 . S
O280 C273 1.185 . S
O280 Zn276 2.086 . S
C281 O277 1.278 . S
C281 O282 1.211 . S
O282 C281 1.211 . S
C283 O275 1.284 . S
C283 O284 1.273 . S
O284 C283 1.273 . S
O285 Zn276 1.977 . S
O285 C278 1.267 . S
C286 O287 1.160 . S
C286 O293 1.185 . S
O287 C286 1.160 . S
O288 Zn289 1.899 . S
O288 C296 1.284 . S
Zn289 O288 1.899 . S
Zn289 O290 2.032 . S
Zn289 O293 2.086 . S
Zn289 O298 1.977 . S
O290 Zn289 2.032 . S
O290 C294 1.278 . S
C291 O292 1.203 . S
C291 O298 1.267 . S
O292 C291 1.203 . S
O293 C286 1.185 . S
O293 Zn289 2.086 . S
C294 O290 1.278 . S
C294 O295 1.211 . S
O295 C294 1.211 . S
C296 O288 1.284 . S
C296 O297 1.273 . S
O297 C296 1.273 . S
O298 Zn289 1.977 . S
O298 C291 1.267 . S
C299 O300 1.160 . S
C299 O306 1.185 . S
O300 C299 1.160 . S
O301 Zn302 1.899 . S
O301 C309 1.284 . S
Zn302 O301 1.899 . S
Zn302 O303 2.032 . S
Zn302 O306 2.086 . S
Zn302 O311 1.977 . S
O303 Zn302 2.032 . S
O303 C307 1.278 . S
C304 O305 1.203 . S
C304 O311 1.267 . S
O305 C304 1.203 . S
O306 C299 1.185 . S
O306 Zn302 2.086 . S
C307 O303 1.278 . S
C307 O308 1.211 . S
O308 C307 1.211 . S
C309 O301 1.284 . S
C309 O310 1.273 . S
O310 C309 1.273 . S
O311 Zn302 1.977 . S
O311 C304 1.267 . S
C312 O313 1.160 . S
C312 O319 1.185 . S
O313 C312 1.160 . S
O314 Zn315 1.899 . S
O314 C322 1.284 . S
Zn315 O314 1.899 . S
Zn315 O316 2.032 . S
Zn315 O319 2.086 . S
Zn315 O324 1.977 . S
O316 Zn315 2.032 . S
O316 C320 1.278 . S
C317 O318 1.203 . S
C317 O324 1.267 . S
O318 C317 1.203 . S
O319 C312 1.185 . S
O319 Zn315 2.086 . S
C320 O316 1.278 . S
C320 O321 1.211 . S
O321 C320 1.211 . S
C322 O314 1.284 . S
C322 O323 1.273 . S
O323 C322 1.273 . S
O324 Zn315 1.977 . S
O324 C317 1.267 . S
C325 O326 1.160 . S
C325 O332 1.185 . S
O326 C325 1.160 . S
O327 Zn328 1.899 . S
O327 C335 1.284 . S
Zn328 O327 1.899 . S
Zn328 O329 2.032 . S
Zn328 O332 2.086 . S
Zn328 O337 1.977 . S
O329 Zn328 2.032 . S
O329 C333 1.278 . S
C330 O331 1.203 . S
C330 O337 1.267 . S
O331 C330 1.203 . S
O332 C325 1.185 . S
O332 Zn328 2.086 . S
C333 O329 1.278 . S
C333 O334 1.211 . S
O334 C333 1.211 . S
C335 O327 1.284 . S
C335 O336 1.273 . S
O336 C335 1.273 . S
O337 Zn328 1.977 . S
O337 C330 1.267 . S
C338 O339 1.160 . S
C338 O345 1.185 . S
O339 C338 1.160 . S
O340 Zn341 1.899 . S
O340 C348 1.284 . S
Zn341 O340 1.899 . S
Zn341 O342 2.032 . S
Zn341 O345 2.086 . S
Zn341 O350 1.977 . S
O342 Zn341 2.032 . S
O342 C346 1.278 . S
C343 O344 1.203 . S
C343 O350 1.267 . S
O344 C343 1.203 . S
O345 C338 1.185 . S
O345 Zn341 2.086 . S
C346 O342 1.278 . S
C346 O347 1.211 . S
O347 C346 1.211 . S
C348 O340 1.284 . S
C348 O349 1.273 . S
O349 C348 1.273 . S
O350 Zn341 1.977 . S
O350 C343 1.267 . S
C351 O352 1.160 . S
C351 O358 1.185 . S
O352 C351 1.160 . S
O353 Zn354 1.899 . S
O353 C361 1.284 . S
Zn354 O353 1.899 . S
Zn354 O355 2.032 . S
Zn354 O358 2.086 . S
Zn354 O363 1.977 . S
O355 Zn354 2.032 . S
O355 C359 1.278 . S
C356 O357 1.203 . S
C356 O363 1.267 . S
O357 C356 1.203 . S
O358 C351 1.185 . S
O358 Zn354 2.086 . S
C359 O355 1.278 . S
C359 O360 1.211 . S
O360 C359 1.211 . S
C361 O353 1.284 . S
C361 O362 1.273 . S
O362 C361 1.273 . S
O363 Zn354 1.977 . S
O363 C356 1.267 . S
C364 O365 1.160 . S
C364 O371 1.185 . S
O365 C364 1.160 . S
O366 Zn367 1.899 . S
O366 C374 1.284 . S
Zn367 O366 1.899 . S
Zn367 O368 2.032 . S
Zn367 O371 2.086 . S
Zn367 O376 1.977 . S
O368 Zn367 2.032 . S
O368 C372 1.278 . S
C369 O370 1.203 . S
C369 O376 1.267 . S
O370 C369 1.203 . S
O371 C364 1.185 . S
O371 Zn367 2.086 . S
C372 O368 1.278 . S
C372 O373 1.211 . S
O373 C372 1.211 . S
C374 O366 1.284 . S
C374 O375 1.273 . S
O375 C374 1.273 . S
O376 Zn367 1.977 . S
O376 C369 1.267 . S
C377 O378 1.160 . S
C377 O384 1.185 . S
O378 C377 1.160 . S
O379 Zn380 1.899 . S
O379 C387 1.284 . S
Zn380 O379 1.899 . S
Zn380 O381 2.032 . S
Zn380 O384 2.086 . S
Zn380 O389 1.977 . S
O381 Zn380 2.032 . S
O381 C385 1.278 . S
C382 O383 1.203 . S
C382 O389 1.267 . S
O383 C382 1.203 . S
O384 C377 1.185 . S
O384 Zn380 2.086 . S
C385 O381 1.278 . S
C385 O386 1.211 . S
O386 C385 1.211 . S
C387 O379 1.284 . S
C387 O388 1.273 . S
O388 C387 1.273 . S
O389 Zn380 1.977 . S
O389 C382 1.267 . S
C390 O391 1.160 . S
C390 O397 1.185 . S
O391 C390 1.160 . S
O392 Zn393 1.899 . S
O392 C400 1.284 . S
Zn393 O392 1.899 . S
Zn393 O394 2.032 . S
Zn393 O397 2.086 . S
Zn393 O402 1.977 . S
O394 Zn393 2.032 . S
O394 C398 1.278 . S
C395 O396 1.203 . S
C395 O402 1.267 . S
O396 C395 1.203 . S
O397 C390 1.185 . S
O397 Zn393 2.086 . S
C398 O394 1.278 . S
C398 O399 1.211 . S
O399 C398 1.211 . S
C400 O392 1.284 . S
C400 O401 1.273 . S
O401 C400 1.273 . S
O402 Zn393 1.977 . S
O402 C395 1.267 . S
C403 O404 1.160 . S
C403 O410 1.185 . S
O404 C403 1.160 . S
O405 Zn406 1.899 . S
O405 C413 1.284 . S
Zn406 O405 1.899 . S
Zn406 O407 2.032 . S
Zn406 O410 2.086 . S
Zn406 O415 1.977 . S
O407 Zn406 2.032 . S
O407 C411 1.278 . S
C408 O409 1.203 . S
C408 O415 1.267 . S
O409 C408 1.203 . S
O410 C403 1.185 . S
O410 Zn406 2.086 . S
C411 O407 1.278 . S
C411 O412 1.211 . S
O412 C411 1.211 . S
C413 O405 1.284 . S
C413 O414 1.273 . S
O414 C413 1.273 . S
O415 Zn406 1.977 . S
O415 C408 1.267 . S
C416 C417 1.349 . S
C416 C418 1.327 . S
C416 H441 0.950 . S
C417 C416 1.349 . S
C417 C433 1.349 . S
C418 C416 1.327 . S
C418 C437 1.429 . S
C418 H442 0.950 . S
C419 C436 1.574 . S
C419 C438 1.368 1_565 S
C419 H443 0.949 . S
H420 C424 0.949 . S
C421 C422 1.349 . S
C421 C423 1.327 . S
C421 H444 0.950 . S
C422 C421 1.349 . S
C422 C434 1.349 . S
C423 C421 1.327 . S
C423 C439 1.429 . S
C423 H445 0.950 . S
C424 H420 0.949 . S
C424 C432 1.574 . S
C424 C440 1.368 1_545 S
H425 C433 0.950 . S
H426 C431 0.950 . S
H427 C432 0.949 . S
H428 C434 0.950 . S
H429 C435 0.950 . S
H430 C436 0.949 . S
C431 H426 0.950 . S
C431 C433 1.327 . S
C431 C437 1.429 . S
C432 C424 1.574 . S
C432 H427 0.949 . S
C432 C438 1.368 . S
C433 C417 1.349 . S
C433 H425 0.950 . S
C433 C431 1.327 . S
C434 C422 1.349 . S
C434 H428 0.950 . S
C434 C435 1.327 . S
C435 H429 0.950 . S
C435 C434 1.327 . S
C435 C439 1.429 . S
C436 C419 1.574 . S
C436 H430 0.949 . S
C436 C440 1.368 . S
C437 C418 1.429 . S
C437 C431 1.429 . S
C437 C438 1.523 . S
C438 C419 1.368 1_545 S
C438 C432 1.368 . S
C438 C437 1.523 . S
C439 C423 1.429 . S
C439 C435 1.429 . S
C439 C440 1.523 . S
C440 C424 1.368 1_565 S
C440 C436 1.368 . S
C440 C439 1.523 . S
H441 C416 0.950 . S
H442 C418 0.950 . S
H443 C419 0.949 . S
H444 C421 0.950 . S
H445 C423 0.950 . S
C446 C447 1.349 . S
C446 C448 1.327 . S
C446 H471 0.950 . S
C447 C446 1.349 . S
C447 C463 1.349 . S
C448 C446 1.327 . S
C448 C467 1.429 . S
C448 H472 0.950 . S
C449 C466 1.574 . S
C449 C468 1.368 . S
C449 H473 0.949 . S
H450 C454 0.949 . S
C451 C452 1.349 . S
C451 C453 1.327 . S
C451 H474 0.950 . S
C452 C451 1.349 . S
C452 C464 1.349 . S
C453 C451 1.327 . S
C453 C469 1.429 . S
C453 H475 0.950 . S
C454 H450 0.949 . S
C454 C462 1.574 . S
C454 C470 1.368 . S
H455 C463 0.950 . S
H456 C461 0.950 . S
H457 C462 0.949 . S
H458 C464 0.950 . S
H459 C465 0.950 . S
H460 C466 0.949 . S
C461 H456 0.950 . S
C461 C463 1.327 . S
C461 C467 1.429 . S
C462 C454 1.574 . S
C462 H457 0.949 . S
C462 C468 1.368 . S
C463 C447 1.349 . S
C463 H455 0.950 . S
C463 C461 1.327 . S
C464 C452 1.349 . S
C464 H458 0.950 . S
C464 C465 1.327 . S
C465 H459 0.950 . S
C465 C464 1.327 . S
C465 C469 1.429 . S
C466 C449 1.574 . S
C466 H460 0.949 . S
C466 C470 1.368 . S
C467 C448 1.429 . S
C467 C461 1.429 . S
C467 C468 1.523 . S
C468 C449 1.368 . S
C468 C462 1.368 . S
C468 C467 1.523 . S
C469 C453 1.429 . S
C469 C465 1.429 . S
C469 C470 1.523 . S
C470 C454 1.368 . S
C470 C466 1.368 . S
C470 C469 1.523 . S
H471 C446 0.950 . S
H472 C448 0.950 . S
H473 C449 0.949 . S
H474 C451 0.950 . S
H475 C453 0.950 . S
C476 C477 1.349 . S
C476 C478 1.327 . S
C476 H501 0.950 . S
C477 C476 1.349 . S
C477 C493 1.349 . S
C478 C476 1.327 . S
C478 C497 1.429 . S
C478 H502 0.950 . S
C479 C496 1.574 . S
C479 C498 1.368 . S
C479 H503 0.949 . S
H480 C484 0.949 . S
C481 C482 1.349 . S
C481 C483 1.327 . S
C481 H504 0.950 . S
C482 C481 1.349 . S
C482 C494 1.349 . S
C483 C481 1.327 . S
C483 C499 1.429 . S
C483 H505 0.950 . S
C484 H480 0.949 . S
C484 C492 1.574 . S
C484 C500 1.368 . S
H485 C493 0.950 . S
H486 C491 0.950 . S
H487 C492 0.949 . S
H488 C494 0.950 . S
H489 C495 0.950 . S
H490 C496 0.949 . S
C491 H486 0.950 . S
C491 C493 1.327 . S
C491 C497 1.429 . S
C492 C484 1.574 . S
C492 H487 0.949 . S
C492 C498 1.368 1_565 S
C493 C477 1.349 . S
C493 H485 0.950 . S
C493 C491 1.327 . S
C494 C482 1.349 . S
C494 H488 0.950 . S
C494 C495 1.327 . S
C495 H489 0.950 . S
C495 C494 1.327 . S
C495 C499 1.429 . S
C496 C479 1.574 . S
C496 H490 0.949 . S
C496 C500 1.368 1_545 S
C497 C478 1.429 . S
C497 C491 1.429 . S
C497 C498 1.523 . S
C498 C479 1.368 . S
C498 C492 1.368 1_545 S
C498 C497 1.523 . S
C499 C483 1.429 . S
C499 C495 1.429 . S
C499 C500 1.523 . S
C500 C484 1.368 . S
C500 C496 1.368 1_565 S
C500 C499 1.523 . S
H501 C476 0.950 . S
H502 C478 0.950 . S
H503 C479 0.949 . S
H504 C481 0.950 . S
H505 C483 0.950 . S
C506 C507 1.349 . S
C506 C508 1.327 . S
C506 H531 0.950 . S
C507 C506 1.349 . S
C507 C523 1.349 . S
C508 C506 1.327 . S
C508 C527 1.429 . S
C508 H532 0.950 . S
C509 C526 1.573 . S
C509 C528 1.369 1_554 S
C509 H533 0.949 1_554 S
H510 C514 0.949 1_554 S
C511 C512 1.349 . S
C511 C513 1.327 . S
C511 H534 0.950 . S
C512 C511 1.349 . S
C512 C524 1.349 . S
C513 C511 1.327 . S
C513 C529 1.429 . S
C513 H535 0.950 . S
C514 H510 0.949 1_556 S
C514 C522 1.573 . S
C514 C530 1.369 1_556 S
H515 C523 0.950 . S
H516 C521 0.950 . S
H517 C522 0.949 . S
H518 C524 0.950 . S
H519 C525 0.950 . S
H520 C526 0.949 . S
C521 H516 0.950 . S
C521 C523 1.327 . S
C521 C527 1.429 . S
C522 C514 1.573 . S
C522 H517 0.949 . S
C522 C528 1.368 . S
C523 C507 1.349 . S
C523 H515 0.950 . S
C523 C521 1.327 . S
C524 C512 1.349 . S
C524 H518 0.950 . S
C524 C525 1.327 . S
C525 H519 0.950 . S
C525 C524 1.327 . S
C525 C529 1.429 . S
C526 C509 1.573 . S
C526 H520 0.949 . S
C526 C530 1.368 . S
C527 C508 1.429 . S
C527 C521 1.429 . S
C527 C528 1.523 . S
C528 C509 1.369 1_556 S
C528 C522 1.368 . S
C528 C527 1.523 . S
C529 C513 1.429 . S
C529 C525 1.429 . S
C529 C530 1.523 . S
C530 C514 1.369 1_554 S
C530 C526 1.368 . S
C530 C529 1.523 . S
H531 C506 0.950 . S
H532 C508 0.950 . S
H533 C509 0.949 1_556 S
H534 C511 0.950 . S
H535 C513 0.950 . S
C536 C537 1.349 . S
C536 C538 1.327 . S
C536 H561 0.950 . S
C537 C536 1.349 . S
C537 C553 1.349 . S
C538 C536 1.327 . S
C538 C557 1.429 . S
C538 H562 0.950 . S
C539 C556 1.534 1_565 S
C539 C558 1.368 . S
C539 H563 0.949 . S
H540 C544 0.949 . S
C541 C542 1.349 . S
C541 C543 1.327 . S
C541 H564 0.950 . S
C542 C541 1.349 . S
C542 C554 1.349 . S
C543 C541 1.327 . S
C543 C559 1.429 . S
C543 H565 0.950 . S
C544 H540 0.949 . S
C544 C552 1.534 1_545 S
C544 C560 1.368 . S
H545 C553 0.950 . S
H546 C551 0.950 . S
H547 C552 0.954 . S
H548 C554 0.950 . S
H549 C555 0.950 . S
H550 C556 0.954 . S
C551 H546 0.950 . S
C551 C553 1.327 . S
C551 C557 1.429 . S
C552 C544 1.534 1_565 S
C552 H547 0.954 . S
C552 C558 1.405 . S
C553 C537 1.349 . S
C553 H545 0.950 . S
C553 C551 1.327 . S
C554 C542 1.349 . S
C554 H548 0.950 . S
C554 C555 1.327 . S
C555 H549 0.950 . S
C555 C554 1.327 . S
C555 C559 1.429 . S
C556 C539 1.534 1_545 S
C556 H550 0.954 . S
C556 C560 1.405 . S
C557 C538 1.429 . S
C557 C551 1.429 . S
C557 C558 1.523 . S
C558 C539 1.368 . S
C558 C552 1.405 . S
C558 C557 1.523 . S
C559 C543 1.429 . S
C559 C555 1.429 . S
C559 C560 1.523 . S
C560 C544 1.368 . S
C560 C556 1.405 . S
C560 C559 1.523 . S
H561 C536 0.950 . S
H562 C538 0.950 . S
H563 C539 0.949 . S
H564 C541 0.950 . S
H565 C543 0.950 . S
C566 C567 1.349 . S
C566 C568 1.327 . S
C566 H591 0.950 . S
C567 C566 1.349 . S
C567 C583 1.349 . S
C568 C566 1.327 . S
C568 C587 1.429 . S
C568 H592 0.950 . S
C569 C586 1.574 . S
C569 C588 1.368 . S
C569 H593 0.949 . S
H570 C574 0.949 . S
C571 C572 1.349 . S
C571 C573 1.327 . S
C571 H594 0.950 . S
C572 C571 1.349 . S
C572 C584 1.349 . S
C573 C571 1.327 . S
C573 C589 1.429 . S
C573 H595 0.950 . S
C574 H570 0.949 . S
C574 C582 1.574 . S
C574 C590 1.368 . S
H575 C583 0.950 . S
H576 C581 0.950 . S
H577 C582 0.949 . S
H578 C584 0.950 . S
H579 C585 0.950 . S
H580 C586 0.949 . S
C581 H576 0.950 . S
C581 C583 1.327 . S
C581 C587 1.429 . S
C582 C574 1.574 . S
C582 H577 0.949 . S
C582 C588 1.368 . S
C583 C567 1.349 . S
C583 H575 0.950 . S
C583 C581 1.327 . S
C584 C572 1.349 . S
C584 H578 0.950 . S
C584 C585 1.327 . S
C585 H579 0.950 . S
C585 C584 1.327 . S
C585 C589 1.429 . S
C586 C569 1.574 . S
C586 H580 0.949 . S
C586 C590 1.368 . S
C587 C568 1.429 . S
C587 C581 1.429 . S
C587 C588 1.523 . S
C588 C569 1.368 . S
C588 C582 1.368 . S
C588 C587 1.523 . S
C589 C573 1.429 . S
C589 C585 1.429 . S
C589 C590 1.523 . S
C590 C574 1.368 . S
C590 C586 1.368 . S
C590 C589 1.523 . S
H591 C566 0.950 . S
H592 C568 0.950 . S
H593 C569 0.949 . S
H594 C571 0.950 . S
H595 C573 0.950 . S
C596 C597 1.349 . S
C596 C598 1.327 . S
C596 H621 0.950 . S
C597 C596 1.349 . S
C597 C613 1.349 . S
C598 C596 1.327 . S
C598 C617 1.429 . S
C598 H622 0.950 . S
C599 C616 1.586 . S
C599 C618 1.356 1_545 S
C599 H623 0.949 . S
H600 C604 0.949 . S
C601 C602 1.349 . S
C601 C603 1.327 . S
C601 H624 0.950 . S
C602 C601 1.349 . S
C602 C614 1.349 . S
C603 C601 1.327 . S
C603 C619 1.429 . S
C603 H625 0.950 . S
C604 H600 0.949 . S
C604 C612 1.586 . S
C604 C620 1.356 1_565 S
H605 C613 0.950 . S
H606 C611 0.950 . S
H607 C612 0.949 . S
H608 C614 0.950 . S
H609 C615 0.950 . S
H610 C616 0.949 . S
C611 H606 0.950 . S
C611 C613 1.327 . S
C611 C617 1.429 . S
C612 C604 1.586 . S
C612 H607 0.949 . S
C612 C618 1.368 . S
C613 C597 1.349 . S
C613 H605 0.950 . S
C613 C611 1.327 . S
C614 C602 1.349 . S
C614 H608 0.950 . S
C614 C615 1.327 . S
C615 H609 0.950 . S
C615 C614 1.327 . S
C615 C619 1.429 . S
C616 C599 1.586 . S
C616 H610 0.949 . S
C616 C620 1.368 . S
C617 C598 1.429 . S
C617 C611 1.429 . S
C617 C618 1.523 . S
C618 C599 1.356 1_565 S
C618 C612 1.368 . S
C618 C617 1.523 . S
C619 C603 1.429 . S
C619 C615 1.429 . S
C619 C620 1.523 . S
C620 C604 1.356 1_545 S
C620 C616 1.368 . S
C620 C619 1.523 . S
H621 C596 0.950 . S
H622 C598 0.950 . S
H623 C599 0.949 . S
H624 C601 0.950 . S
H625 C603 0.950 . S
C626 C627 1.349 . S
C626 C628 1.327 . S
C626 H651 0.950 . S
C627 C626 1.349 . S
C627 C643 1.349 . S
C628 C626 1.327 . S
C628 C647 1.429 . S
C628 H652 0.950 . S
C629 C646 1.573 . S
C629 C648 1.369 1_554 S
C629 H653 0.949 1_554 S
H630 C634 0.949 1_554 S
C631 C632 1.349 . S
C631 C633 1.327 . S
C631 H654 0.950 . S
C632 C631 1.349 . S
C632 C644 1.349 . S
C633 C631 1.327 . S
C633 C649 1.429 . S
C633 H655 0.950 . S
C634 H630 0.949 1_556 S
C634 C642 1.573 . S
C634 C650 1.369 1_556 S
H635 C643 0.950 . S
H636 C641 0.950 . S
H637 C642 0.949 . S
H638 C644 0.950 . S
H639 C645 0.950 . S
H640 C646 0.949 . S
C641 H636 0.950 . S
C641 C643 1.327 . S
C641 C647 1.429 . S
C642 C634 1.573 . S
C642 H637 0.949 . S
C642 C648 1.368 . S
C643 C627 1.349 . S
C643 H635 0.950 . S
C643 C641 1.327 . S
C644 C632 1.349 . S
C644 H638 0.950 . S
C644 C645 1.327 . S
C645 H639 0.950 . S
C645 C644 1.327 . S
C645 C649 1.429 . S
C646 C629 1.573 . S
C646 H640 0.949 . S
C646 C650 1.368 . S
C647 C628 1.429 . S
C647 C641 1.429 . S
C647 C648 1.523 . S
C648 C629 1.369 1_556 S
C648 C642 1.368 . S
C648 C647 1.523 . S
C649 C633 1.429 . S
C649 C645 1.429 . S
C649 C650 1.523 . S
C650 C634 1.369 1_554 S
C650 C646 1.368 . S
C650 C649 1.523 . S
H651 C626 0.950 . S
H652 C628 0.950 . S
H653 C629 0.949 1_556 S
H654 C631 0.950 . S
H655 C633 0.950 . S
C656 C657 1.349 . S
C656 C658 1.327 . S
C656 H681 0.950 . S
C657 C656 1.349 . S
C657 C673 1.349 . S
C658 C656 1.327 . S
C658 C677 1.429 . S
C658 H682 0.950 . S
C659 C676 1.574 . S
C659 C678 1.368 . S
C659 H683 0.949 . S
H660 C664 0.949 . S
C661 C662 1.349 . S
C661 C663 1.327 . S
C661 H684 0.950 . S
C662 C661 1.349 . S
C662 C674 1.349 . S
C663 C661 1.327 . S
C663 C679 1.429 . S
C663 H685 0.950 . S
C664 H660 0.949 . S
C664 C672 1.574 . S
C664 C680 1.368 . S
H665 C673 0.950 . S
H666 C671 0.950 . S
H667 C672 0.949 . S
H668 C674 0.950 . S
H669 C675 0.950 . S
H670 C676 0.949 . S
C671 H666 0.950 . S
C671 C673 1.327 . S
C671 C677 1.429 . S
C672 C664 1.574 . S
C672 H667 0.949 . S
C672 C678 1.368 . S
C673 C657 1.349 . S
C673 H665 0.950 . S
C673 C671 1.327 . S
C674 C662 1.349 . S
C674 H668 0.950 . S
C674 C675 1.327 . S
C675 H669 0.950 . S
C675 C674 1.327 . S
C675 C679 1.429 . S
C676 C659 1.574 . S
C676 H670 0.949 . S
C676 C680 1.368 . S
C677 C658 1.429 . S
C677 C671 1.429 . S
C677 C678 1.523 . S
C678 C659 1.368 . S
C678 C672 1.368 . S
C678 C677 1.523 . S
C679 C663 1.429 . S
C679 C675 1.429 . S
C679 C680 1.523 . S
C680 C664 1.368 . S
C680 C676 1.368 . S
C680 C679 1.523 . S
H681 C656 0.950 . S
H682 C658 0.950 . S
H683 C659 0.949 . S
H684 C661 0.950 . S
H685 C663 0.950 . S
C686 C687 1.349 . S
C686 C688 1.327 . S
C686 H711 0.950 . S
C687 C686 1.349 . S
C687 C703 1.349 . S
C688 C686 1.327 . S
C688 C707 1.429 . S
C688 H712 0.950 . S
C689 C706 1.573 . S
C689 C708 1.369 1_554 S
C689 H713 0.949 1_554 S
H690 C694 0.949 1_554 S
C691 C692 1.349 . S
C691 C693 1.327 . S
C691 H714 0.950 . S
C692 C691 1.349 . S
C692 C704 1.349 . S
C693 C691 1.327 . S
C693 C709 1.429 . S
C693 H715 0.950 . S
C694 H690 0.949 1_556 S
C694 C702 1.573 . S
C694 C710 1.369 1_556 S
H695 C703 0.950 . S
H696 C701 0.950 . S
H697 C702 0.949 . S
H698 C704 0.950 . S
H699 C705 0.950 . S
H700 C706 0.949 . S
C701 H696 0.950 . S
C701 C703 1.327 . S
C701 C707 1.429 . S
C702 C694 1.573 . S
C702 H697 0.949 . S
C702 C708 1.368 . S
C703 C687 1.349 . S
C703 H695 0.950 . S
C703 C701 1.327 . S
C704 C692 1.349 . S
C704 H698 0.950 . S
C704 C705 1.327 . S
C705 H699 0.950 . S
C705 C704 1.327 . S
C705 C709 1.429 . S
C706 C689 1.573 . S
C706 H700 0.949 . S
C706 C710 1.368 . S
C707 C688 1.429 . S
C707 C701 1.429 . S
C707 C708 1.523 . S
C708 C689 1.369 1_556 S
C708 C702 1.368 . S
C708 C707 1.523 . S
C709 C693 1.429 . S
C709 C705 1.429 . S
C709 C710 1.523 . S
C710 C694 1.369 1_554 S
C710 C706 1.368 . S
C710 C709 1.523 . S
H711 C686 0.950 . S
H712 C688 0.950 . S
H713 C689 0.949 1_556 S
H714 C691 0.950 . S
H715 C693 0.950 . S
C716 C717 1.349 . S
C716 C718 1.327 . S
C716 H741 0.950 . S
C717 C716 1.349 . S
C717 C733 1.349 . S
C718 C716 1.327 . S
C718 C737 1.429 . S
C718 H742 0.950 . S
C719 C736 1.574 . S
C719 C738 1.368 . S
C719 H743 0.949 . S
H720 C724 0.949 . S
C721 C722 1.349 . S
C721 C723 1.327 . S
C721 H744 0.950 . S
C722 C721 1.349 . S
C722 C734 1.349 . S
C723 C721 1.327 . S
C723 C739 1.429 . S
C723 H745 0.950 . S
C724 H720 0.949 . S
C724 C732 1.574 . S
C724 C740 1.368 . S
H725 C733 0.950 . S
H726 C731 0.950 . S
H727 C732 0.949 . S
H728 C734 0.950 . S
H729 C735 0.950 . S
H730 C736 0.949 . S
C731 H726 0.950 . S
C731 C733 1.327 . S
C731 C737 1.429 . S
C732 C724 1.574 . S
C732 H727 0.949 . S
C732 C738 1.368 . S
C733 C717 1.349 . S
C733 H725 0.950 . S
C733 C731 1.327 . S
C734 C722 1.349 . S
C734 H728 0.950 . S
C734 C735 1.327 . S
C735 H729 0.950 . S
C735 C734 1.327 . S
C735 C739 1.429 . S
C736 C719 1.574 . S
C736 H730 0.949 . S
C736 C740 1.368 . S
C737 C718 1.429 . S
C737 C731 1.429 . S
C737 C738 1.523 . S
C738 C719 1.368 . S
C738 C732 1.368 . S
C738 C737 1.523 . S
C739 C723 1.429 . S
C739 C735 1.429 . S
C739 C740 1.523 . S
C740 C724 1.368 . S
C740 C736 1.368 . S
C740 C739 1.523 . S
H741 C716 0.950 . S
H742 C718 0.950 . S
H743 C719 0.949 . S
H744 C721 0.950 . S
H745 C723 0.950 . S
C746 C747 1.349 . S
C746 C748 1.327 . S
C746 H771 0.950 . S
C747 C746 1.349 . S
C747 C763 1.349 . S
C748 C746 1.327 . S
C748 C767 1.429 . S
C748 H772 0.950 . S
C749 C766 1.574 . S
C749 C768 1.368 . S
C749 H773 0.949 . S
H750 C754 0.949 . S
C751 C752 1.349 . S
C751 C753 1.327 . S
C751 H774 0.950 . S
C752 C751 1.349 . S
C752 C764 1.349 . S
C753 C751 1.327 . S
C753 C769 1.429 . S
C753 H775 0.950 . S
C754 H750 0.949 . S
C754 C762 1.574 . S
C754 C770 1.368 . S
H755 C763 0.950 . S
H756 C761 0.950 . S
H757 C762 0.949 . S
H758 C764 0.950 . S
H759 C765 0.950 . S
H760 C766 0.949 . S
C761 H756 0.950 . S
C761 C763 1.327 . S
C761 C767 1.429 . S
C762 C754 1.574 . S
C762 H757 0.949 . S
C762 C768 1.368 . S
C763 C747 1.349 . S
C763 H755 0.950 . S
C763 C761 1.327 . S
C764 C752 1.349 . S
C764 H758 0.950 . S
C764 C765 1.327 . S
C765 H759 0.950 . S
C765 C764 1.327 . S
C765 C769 1.429 . S
C766 C749 1.574 . S
C766 H760 0.949 . S
C766 C770 1.368 . S
C767 C748 1.429 . S
C767 C761 1.429 . S
C767 C768 1.523 . S
C768 C749 1.368 . S
C768 C762 1.368 . S
C768 C767 1.523 . S
C769 C753 1.429 . S
C769 C765 1.429 . S
C769 C770 1.523 . S
C770 C754 1.368 . S
C770 C766 1.368 . S
C770 C769 1.523 . S
H771 C746 0.950 . S
H772 C748 0.950 . S
H773 C749 0.949 . S
H774 C751 0.950 . S
H775 C753 0.950 . S
C776 C777 1.349 . S
C776 C778 1.327 . S
C776 H801 0.950 . S
C777 C776 1.349 . S
C777 C793 1.349 . S
C778 C776 1.327 . S
C778 C797 1.429 . S
C778 H802 0.950 . S
C779 C796 1.574 . S
C779 C798 1.368 . S
C779 H803 0.949 . S
H780 C784 0.949 . S
C781 C782 1.349 . S
C781 C783 1.327 . S
C781 H804 0.950 . S
C782 C781 1.349 . S
C782 C794 1.349 . S
C783 C781 1.327 . S
C783 C799 1.429 . S
C783 H805 0.950 . S
C784 H780 0.949 . S
C784 C792 1.574 . S
C784 C800 1.368 . S
H785 C793 0.950 . S
H786 C791 0.950 . S
H787 C792 0.949 . S
H788 C794 0.950 . S
H789 C795 0.950 . S
H790 C796 0.949 . S
C791 H786 0.950 . S
C791 C793 1.327 . S
C791 C797 1.429 . S
C792 C784 1.574 . S
C792 H787 0.949 . S
C792 C798 1.368 . S
C793 C777 1.349 . S
C793 H785 0.950 . S
C793 C791 1.327 . S
C794 C782 1.349 . S
C794 H788 0.950 . S
C794 C795 1.327 . S
C795 H789 0.950 . S
C795 C794 1.327 . S
C795 C799 1.429 . S
C796 C779 1.574 . S
C796 H790 0.949 . S
C796 C800 1.368 . S
C797 C778 1.429 . S
C797 C791 1.429 . S
C797 C798 1.523 . S
C798 C779 1.368 . S
C798 C792 1.368 . S
C798 C797 1.523 . S
C799 C783 1.429 . S
C799 C795 1.429 . S
C799 C800 1.523 . S
C800 C784 1.368 . S
C800 C796 1.368 . S
C800 C799 1.523 . S
H801 C776 0.950 . S
H802 C778 0.950 . S
H803 C779 0.949 . S
H804 C781 0.950 . S
H805 C783 0.950 . S
C806 C807 1.349 . S
C806 C808 1.327 . S
C806 H831 0.950 . S
C807 C806 1.349 . S
C807 C823 1.349 . S
C808 C806 1.327 . S
C808 C827 1.429 . S
C808 H832 0.950 . S
C809 C826 1.573 . S
C809 C828 1.368 . S
C809 H833 0.949 . S
H810 C814 0.949 . S
C811 C812 1.349 . S
C811 C813 1.327 . S
C811 H834 0.950 . S
C812 C811 1.349 . S
C812 C824 1.349 . S
C813 C811 1.327 . S
C813 C829 1.429 . S
C813 H835 0.950 . S
C814 H810 0.949 . S
C814 C822 1.573 . S
C814 C830 1.368 . S
H815 C823 0.950 . S
H816 C821 0.950 . S
H817 C822 0.949 1_554 S
H818 C824 0.950 . S
H819 C825 0.950 . S
H820 C826 0.949 1_556 S
C821 H816 0.950 . S
C821 C823 1.327 . S
C821 C827 1.429 . S
C822 C814 1.573 . S
C822 H817 0.949 1_556 S
C822 C828 1.369 1_556 S
C823 C807 1.349 . S
C823 H815 0.950 . S
C823 C821 1.327 . S
C824 C812 1.349 . S
C824 H818 0.950 . S
C824 C825 1.327 . S
C825 H819 0.950 . S
C825 C824 1.327 . S
C825 C829 1.429 . S
C826 C809 1.573 . S
C826 H820 0.949 1_554 S
C826 C830 1.369 1_554 S
C827 C808 1.429 . S
C827 C821 1.429 . S
C827 C828 1.523 . S
C828 C809 1.368 . S
C828 C822 1.369 1_554 S
C828 C827 1.523 . S
C829 C813 1.429 . S
C829 C825 1.429 . S
C829 C830 1.523 . S
C830 C814 1.368 . S
C830 C826 1.369 1_556 S
C830 C829 1.523 . S
H831 C806 0.950 . S
H832 C808 0.950 . S
H833 C809 0.949 . S
H834 C811 0.950 . S
H835 C813 0.950 . S
C836 C837 1.349 . S
C836 C838 1.327 . S
C836 H861 0.950 . S
C837 C836 1.349 . S
C837 C853 1.349 . S
C838 C836 1.327 . S
C838 C857 1.429 . S
C838 H862 0.950 . S
C839 C856 1.574 . S
C839 C858 1.368 . S
C839 H863 0.949 . S
H840 C844 0.949 . S
C841 C842 1.349 . S
C841 C843 1.327 . S
C841 H864 0.950 . S
C842 C841 1.349 . S
C842 C854 1.349 . S
C843 C841 1.327 . S
C843 C859 1.429 . S
C843 H865 0.950 . S
C844 H840 0.949 . S
C844 C852 1.574 . S
C844 C860 1.368 . S
H845 C853 0.950 . S
H846 C851 0.950 . S
H847 C852 0.949 . S
H848 C854 0.950 . S
H849 C855 0.950 . S
H850 C856 0.949 . S
C851 H846 0.950 . S
C851 C853 1.327 . S
C851 C857 1.429 . S
C852 C844 1.574 . S
C852 H847 0.949 . S
C852 C858 1.368 . S
C853 C837 1.349 . S
C853 H845 0.950 . S
C853 C851 1.327 . S
C854 C842 1.349 . S
C854 H848 0.950 . S
C854 C855 1.327 . S
C855 H849 0.950 . S
C855 C854 1.327 . S
C855 C859 1.429 . S
C856 C839 1.574 . S
C856 H850 0.949 . S
C856 C860 1.368 . S
C857 C838 1.429 . S
C857 C851 1.429 . S
C857 C858 1.523 . S
C858 C839 1.368 . S
C858 C852 1.368 . S
C858 C857 1.523 . S
C859 C843 1.429 . S
C859 C855 1.429 . S
C859 C860 1.523 . S
C860 C844 1.368 . S
C860 C856 1.368 . S
C860 C859 1.523 . S
H861 C836 0.950 . S
H862 C838 0.950 . S
H863 C839 0.949 . S
H864 C841 0.950 . S
H865 C843 0.950 . S
C866 C867 1.349 . S
C866 C868 1.327 . S
C866 H891 0.950 . S
C867 C866 1.349 . S
C867 C883 1.349 . S
C868 C866 1.327 . S
C868 C887 1.429 . S
C868 H892 0.950 . S
C869 C886 1.574 . S
C869 C888 1.368 . S
C869 H893 0.949 . S
H870 C874 0.949 . S
C871 C872 1.349 . S
C871 C873 1.327 . S
C871 H894 0.950 . S
C872 C871 1.349 . S
C872 C884 1.349 . S
C873 C871 1.327 . S
C873 C889 1.429 . S
C873 H895 0.950 . S
C874 H870 0.949 . S
C874 C882 1.574 . S
C874 C890 1.368 . S
H875 C883 0.950 . S
H876 C881 0.950 . S
H877 C882 0.949 . S
H878 C884 0.950 . S
H879 C885 0.950 . S
H880 C886 0.949 . S
C881 H876 0.950 . S
C881 C883 1.327 . S
C881 C887 1.429 . S
C882 C874 1.574 . S
C882 H877 0.949 . S
C882 C888 1.368 . S
C883 C867 1.349 . S
C883 H875 0.950 . S
C883 C881 1.327 . S
C884 C872 1.349 . S
C884 H878 0.950 . S
C884 C885 1.327 . S
C885 H879 0.950 . S
C885 C884 1.327 . S
C885 C889 1.429 . S
C886 C869 1.574 . S
C886 H880 0.949 . S
C886 C890 1.368 . S
C887 C868 1.429 . S
C887 C881 1.429 . S
C887 C888 1.523 . S
C888 C869 1.368 . S
C888 C882 1.368 . S
C888 C887 1.523 . S
C889 C873 1.429 . S
C889 C885 1.429 . S
C889 C890 1.523 . S
C890 C874 1.368 . S
C890 C886 1.368 . S
C890 C889 1.523 . S
H891 C866 0.950 . S
H892 C868 0.950 . S
H893 C869 0.949 . S
H894 C871 0.950 . S
H895 C873 0.950 . S
C896 C897 1.349 . S
C896 C898 1.327 . S
C896 H921 0.950 . S
C897 C896 1.349 . S
C897 C913 1.349 . S
C898 C896 1.327 . S
C898 C917 1.429 . S
C898 H922 0.950 . S
C899 C916 1.574 . S
C899 C918 1.368 . S
C899 H923 0.949 . S
H900 C904 0.949 . S
C901 C902 1.349 . S
C901 C903 1.327 . S
C901 H924 0.950 . S
C902 C901 1.349 . S
C902 C914 1.349 . S
C903 C901 1.327 . S
C903 C919 1.429 . S
C903 H925 0.950 . S
C904 H900 0.949 . S
C904 C912 1.574 . S
C904 C920 1.368 . S
H905 C913 0.950 . S
H906 C911 0.950 . S
H907 C912 0.949 . S
H908 C914 0.950 . S
H909 C915 0.950 . S
H910 C916 0.949 . S
C911 H906 0.950 . S
C911 C913 1.327 . S
C911 C917 1.429 . S
C912 C904 1.574 . S
C912 H907 0.949 . S
C912 C918 1.368 . S
C913 C897 1.349 . S
C913 H905 0.950 . S
C913 C911 1.327 . S
C914 C902 1.349 . S
C914 H908 0.950 . S
C914 C915 1.327 . S
C915 H909 0.950 . S
C915 C914 1.327 . S
C915 C919 1.429 . S
C916 C899 1.574 . S
C916 H910 0.949 . S
C916 C920 1.368 . S
C917 C898 1.429 . S
C917 C911 1.429 . S
C917 C918 1.523 . S
C918 C899 1.368 . S
C918 C912 1.368 . S
C918 C917 1.523 . S
C919 C903 1.429 . S
C919 C915 1.429 . S
C919 C920 1.523 . S
C920 C904 1.368 . S
C920 C916 1.368 . S
C920 C919 1.523 . S
H921 C896 0.950 . S
H922 C898 0.950 . S
H923 C899 0.949 . S
H924 C901 0.950 . S
H925 C903 0.950 . S
C926 C927 1.349 . S
C926 C928 1.327 . S
C926 H951 0.950 . S
C927 C926 1.349 . S
C927 C943 1.349 . S
C928 C926 1.327 . S
C928 C947 1.429 . S
C928 H952 0.950 . S
C929 C946 1.516 1_655 S
C929 C948 1.395 . S
C929 H953 0.980 . S
H930 C934 0.949 . S
C931 C932 1.349 . S
C931 C933 1.327 . S
C931 H954 0.950 . S
C932 C931 1.349 . S
C932 C944 1.349 . S
C933 C931 1.327 . S
C933 C949 1.429 . S
C933 H955 0.950 . S
C934 H930 0.949 . S
C934 C942 1.574 1_455 S
C934 C950 1.368 . S
H935 C943 0.950 . S
H936 C941 0.950 . S
H937 C942 0.949 . S
H938 C944 0.950 . S
H939 C945 0.950 . S
H940 C946 0.949 . S
C941 H936 0.950 . S
C941 C943 1.327 . S
C941 C947 1.429 . S
C942 C934 1.574 1_655 S
C942 H937 0.949 . S
C942 C948 1.368 . S
C943 C927 1.349 . S
C943 H935 0.950 . S
C943 C941 1.327 . S
C944 C932 1.349 . S
C944 H938 0.950 . S
C944 C945 1.327 . S
C945 H939 0.950 . S
C945 C944 1.327 . S
C945 C949 1.429 . S
C946 C929 1.516 1_455 S
C946 H940 0.949 . S
C946 C950 1.368 . S
C947 C928 1.429 . S
C947 C941 1.429 . S
C947 C948 1.523 . S
C948 C929 1.395 . S
C948 C942 1.368 . S
C948 C947 1.523 . S
C949 C933 1.429 . S
C949 C945 1.429 . S
C949 C950 1.523 . S
C950 C934 1.368 . S
C950 C946 1.368 . S
C950 C949 1.523 . S
H951 C926 0.950 . S
H952 C928 0.950 . S
H953 C929 0.980 . S
H954 C931 0.950 . S
H955 C933 0.950 . S
C956 C957 1.349 . S
C956 C958 1.327 . S
C956 H981 0.950 . S
C957 C956 1.349 . S
C957 C973 1.349 . S
C958 C956 1.327 . S
C958 C977 1.429 . S
C958 H982 0.950 . S
C959 C976 1.574 . S
C959 C978 1.368 . S
C959 H983 0.949 . S
H960 C964 0.949 . S
C961 C962 1.349 . S
C961 C963 1.327 . S
C961 H984 0.950 . S
C962 C961 1.349 . S
C962 C974 1.349 . S
C963 C961 1.327 . S
C963 C979 1.429 . S
C963 H985 0.950 . S
C964 H960 0.949 . S
C964 C972 1.574 . S
C964 C980 1.368 . S
H965 C973 0.950 . S
H966 C971 0.950 . S
H967 C972 0.949 . S
H968 C974 0.950 . S
H969 C975 0.950 . S
H970 C976 0.949 . S
C971 H966 0.950 . S
C971 C973 1.327 . S
C971 C977 1.429 . S
C972 C964 1.574 . S
C972 H967 0.949 . S
C972 C978 1.368 . S
C973 C957 1.349 . S
C973 H965 0.950 . S
C973 C971 1.327 . S
C974 C962 1.349 . S
C974 H968 0.950 . S
C974 C975 1.327 . S
C975 H969 0.950 . S
C975 C974 1.327 . S
C975 C979 1.429 . S
C976 C959 1.574 . S
C976 H970 0.949 . S
C976 C980 1.368 . S
C977 C958 1.429 . S
C977 C971 1.429 . S
C977 C978 1.523 . S
C978 C959 1.368 . S
C978 C972 1.368 . S
C978 C977 1.523 . S
C979 C963 1.429 . S
C979 C975 1.429 . S
C979 C980 1.523 . S
C980 C964 1.368 . S
C980 C976 1.368 . S
C980 C979 1.523 . S
H981 C956 0.950 . S
H982 C958 0.950 . S
H983 C959 0.949 . S
H984 C961 0.950 . S
H985 C963 0.950 . S
C986 C987 1.349 . S
C986 C988 1.327 . S
C986 H1011 0.950 . S
C987 C986 1.349 . S
C987 C1003 1.349 . S
C988 C986 1.327 . S
C988 C1007 1.429 . S
C988 H1012 0.950 . S
C989 C1006 1.574 . S
C989 C1008 1.368 . S
C989 H1013 0.949 . S
H990 C994 0.949 . S
C991 C992 1.349 . S
C991 C993 1.327 . S
C991 H1014 0.950 . S
C992 C991 1.349 . S
C992 C1004 1.349 . S
C993 C991 1.327 . S
C993 C1009 1.429 . S
C993 H1015 0.950 . S
C994 H990 0.949 . S
C994 C1002 1.574 . S
C994 C1010 1.368 . S
H995 C1003 0.950 . S
H996 C1001 0.950 . S
H997 C1002 0.949 . S
H998 C1004 0.950 . S
H999 C1005 0.950 . S
H1000 C1006 0.949 . S
C1001 H996 0.950 . S
C1001 C1003 1.327 . S
C1001 C1007 1.429 . S
C1002 C994 1.574 . S
C1002 H997 0.949 . S
C1002 C1008 1.368 . S
C1003 C987 1.349 . S
C1003 H995 0.950 . S
C1003 C1001 1.327 . S
C1004 C992 1.349 . S
C1004 H998 0.950 . S
C1004 C1005 1.327 . S
C1005 H999 0.950 . S
C1005 C1004 1.327 . S
C1005 C1009 1.429 . S
C1006 C989 1.574 . S
C1006 H1000 0.949 . S
C1006 C1010 1.368 . S
C1007 C988 1.429 . S
C1007 C1001 1.429 . S
C1007 C1008 1.523 . S
C1008 C989 1.368 . S
C1008 C1002 1.368 . S
C1008 C1007 1.523 . S
C1009 C993 1.429 . S
C1009 C1005 1.429 . S
C1009 C1010 1.523 . S
C1010 C994 1.368 . S
C1010 C1006 1.368 . S
C1010 C1009 1.523 . S
H1011 C986 0.950 . S
H1012 C988 0.950 . S
H1013 C989 0.949 . S
H1014 C991 0.950 . S
H1015 C993 0.950 . S
C1016 C1017 1.349 . S
C1016 C1018 1.327 . S
C1016 H1041 0.950 . S
C1017 C1016 1.349 . S
C1017 C1033 1.349 . S
C1018 C1016 1.327 . S
C1018 C1037 1.429 . S
C1018 H1042 0.950 . S
C1019 C1036 1.574 . S
C1019 C1038 1.368 . S
C1019 H1043 0.949 . S
H1020 C1024 0.949 . S
C1021 C1022 1.349 . S
C1021 C1023 1.327 . S
C1021 H1044 0.950 . S
C1022 C1021 1.349 . S
C1022 C1034 1.349 . S
C1023 C1021 1.327 . S
C1023 C1039 1.429 . S
C1023 H1045 0.950 . S
C1024 H1020 0.949 . S
C1024 C1032 1.574 . S
C1024 C1040 1.368 . S
H1025 C1033 0.950 . S
H1026 C1031 0.950 . S
H1027 C1032 0.949 . S
H1028 C1034 0.950 . S
H1029 C1035 0.950 . S
H1030 C1036 0.949 . S
C1031 H1026 0.950 . S
C1031 C1033 1.327 . S
C1031 C1037 1.429 . S
C1032 C1024 1.574 . S
C1032 H1027 0.949 . S
C1032 C1038 1.368 . S
C1033 C1017 1.349 . S
C1033 H1025 0.950 . S
C1033 C1031 1.327 . S
C1034 C1022 1.349 . S
C1034 H1028 0.950 . S
C1034 C1035 1.327 . S
C1035 H1029 0.950 . S
C1035 C1034 1.327 . S
C1035 C1039 1.429 . S
C1036 C1019 1.574 . S
C1036 H1030 0.949 . S
C1036 C1040 1.368 . S
C1037 C1018 1.429 . S
C1037 C1031 1.429 . S
C1037 C1038 1.523 . S
C1038 C1019 1.368 . S
C1038 C1032 1.368 . S
C1038 C1037 1.523 . S
C1039 C1023 1.429 . S
C1039 C1035 1.429 . S
C1039 C1040 1.523 . S
C1040 C1024 1.368 . S
C1040 C1036 1.368 . S
C1040 C1039 1.523 . S
H1041 C1016 0.950 . S
H1042 C1018 0.950 . S
H1043 C1019 0.949 . S
H1044 C1021 0.950 . S
H1045 C1023 0.950 . S
C1046 C1047 1.349 . S
C1046 C1048 1.327 . S
C1046 H1071 0.950 . S
C1047 C1046 1.349 . S
C1047 C1063 1.349 . S
C1048 C1046 1.327 . S
C1048 C1067 1.429 . S
C1048 H1072 0.950 . S
C1049 C1066 1.574 . S
C1049 C1068 1.368 . S
C1049 H1073 0.949 . S
H1050 C1054 0.949 . S
C1051 C1052 1.349 . S
C1051 C1053 1.327 . S
C1051 H1074 0.950 . S
C1052 C1051 1.349 . S
C1052 C1064 1.349 . S
C1053 C1051 1.327 . S
C1053 C1069 1.429 . S
C1053 H1075 0.950 . S
C1054 H1050 0.949 . S
C1054 C1062 1.574 . S
C1054 C1070 1.368 . S
H1055 C1063 0.950 . S
H1056 C1061 0.950 . S
H1057 C1062 0.949 . S
H1058 C1064 0.950 . S
H1059 C1065 0.950 . S
H1060 C1066 0.949 . S
C1061 H1056 0.950 . S
C1061 C1063 1.327 . S
C1061 C1067 1.429 . S
C1062 C1054 1.574 . S
C1062 H1057 0.949 . S
C1062 C1068 1.368 . S
C1063 C1047 1.349 . S
C1063 H1055 0.950 . S
C1063 C1061 1.327 . S
C1064 C1052 1.349 . S
C1064 H1058 0.950 . S
C1064 C1065 1.327 . S
C1065 H1059 0.950 . S
C1065 C1064 1.327 . S
C1065 C1069 1.429 . S
C1066 C1049 1.574 . S
C1066 H1060 0.949 . S
C1066 C1070 1.368 . S
C1067 C1048 1.429 . S
C1067 C1061 1.429 . S
C1067 C1068 1.523 . S
C1068 C1049 1.368 . S
C1068 C1062 1.368 . S
C1068 C1067 1.523 . S
C1069 C1053 1.429 . S
C1069 C1065 1.429 . S
C1069 C1070 1.523 . S
C1070 C1054 1.368 . S
C1070 C1066 1.368 . S
C1070 C1069 1.523 . S
H1071 C1046 0.950 . S
H1072 C1048 0.950 . S
H1073 C1049 0.949 . S
H1074 C1051 0.950 . S
H1075 C1053 0.950 . S
C1076 C1077 1.349 . S
C1076 C1078 1.327 . S
C1076 H1101 0.950 . S
C1077 C1076 1.349 . S
C1077 C1093 1.349 . S
C1078 C1076 1.327 . S
C1078 C1097 1.429 . S
C1078 H1102 0.950 . S
C1079 C1096 1.574 . S
C1079 C1098 1.368 . S
C1079 H1103 0.949 . S
H1080 C1084 0.949 . S
C1081 C1082 1.349 . S
C1081 C1083 1.327 . S
C1081 H1104 0.950 . S
C1082 C1081 1.349 . S
C1082 C1094 1.349 . S
C1083 C1081 1.327 . S
C1083 C1099 1.429 . S
C1083 H1105 0.950 . S
C1084 H1080 0.949 . S
C1084 C1092 1.574 . S
C1084 C1100 1.368 . S
H1085 C1093 0.950 . S
H1086 C1091 0.950 . S
H1087 C1092 0.949 . S
H1088 C1094 0.950 . S
H1089 C1095 0.950 . S
H1090 C1096 0.949 . S
C1091 H1086 0.950 . S
C1091 C1093 1.327 . S
C1091 C1097 1.429 . S
C1092 C1084 1.574 . S
C1092 H1087 0.949 . S
C1092 C1098 1.368 . S
C1093 C1077 1.349 . S
C1093 H1085 0.950 . S
C1093 C1091 1.327 . S
C1094 C1082 1.349 . S
C1094 H1088 0.950 . S
C1094 C1095 1.327 . S
C1095 H1089 0.950 . S
C1095 C1094 1.327 . S
C1095 C1099 1.429 . S
C1096 C1079 1.574 . S
C1096 H1090 0.949 . S
C1096 C1100 1.368 . S
C1097 C1078 1.429 . S
C1097 C1091 1.429 . S
C1097 C1098 1.523 . S
C1098 C1079 1.368 . S
C1098 C1092 1.368 . S
C1098 C1097 1.523 . S
C1099 C1083 1.429 . S
C1099 C1095 1.429 . S
C1099 C1100 1.523 . S
C1100 C1084 1.368 . S
C1100 C1096 1.368 . S
C1100 C1099 1.523 . S
H1101 C1076 0.950 . S
H1102 C1078 0.950 . S
H1103 C1079 0.949 . S
H1104 C1081 0.950 . S
H1105 C1083 0.950 . S
C1106 C1107 1.349 . S
C1106 C1108 1.327 . S
C1106 H1131 0.950 . S
C1107 C1106 1.349 . S
C1107 C1123 1.349 . S
C1108 C1106 1.327 . S
C1108 C1127 1.429 . S
C1108 H1132 0.950 . S
C1109 C1126 1.574 1_455 S
C1109 C1128 1.368 . S
C1109 H1133 0.949 . S
H1110 C1114 0.982 . S
C1111 C1112 1.349 . S
C1111 C1113 1.327 . S
C1111 H1134 0.950 . S
C1112 C1111 1.349 . S
C1112 C1124 1.349 . S
C1113 C1111 1.327 . S
C1113 C1129 1.429 . S
C1113 H1135 0.950 . S
C1114 H1110 0.982 . S
C1114 C1122 1.512 1_655 S
C1114 C1130 1.397 . S
H1115 C1123 0.950 . S
H1116 C1121 0.950 . S
H1117 C1122 0.949 . S
H1118 C1124 0.950 . S
H1119 C1125 0.950 . S
H1120 C1126 0.949 . S
C1121 H1116 0.950 . S
C1121 C1123 1.327 . S
C1121 C1127 1.429 . S
C1122 C1114 1.512 1_455 S
C1122 H1117 0.949 . S
C1122 C1128 1.368 . S
C1123 C1107 1.349 . S
C1123 H1115 0.950 . S
C1123 C1121 1.327 . S
C1124 C1112 1.349 . S
C1124 H1118 0.950 . S
C1124 C1125 1.327 . S
C1125 H1119 0.950 . S
C1125 C1124 1.327 . S
C1125 C1129 1.429 . S
C1126 C1109 1.574 1_655 S
C1126 H1120 0.949 . S
C1126 C1130 1.368 . S
C1127 C1108 1.429 . S
C1127 C1121 1.429 . S
C1127 C1128 1.523 . S
C1128 C1109 1.368 . S
C1128 C1122 1.368 . S
C1128 C1127 1.523 . S
C1129 C1113 1.429 . S
C1129 C1125 1.429 . S
C1129 C1130 1.523 . S
C1130 C1114 1.397 . S
C1130 C1126 1.368 . S
C1130 C1129 1.523 . S
H1131 C1106 0.950 . S
H1132 C1108 0.950 . S
H1133 C1109 0.949 . S
H1134 C1111 0.950 . S
H1135 C1113 0.950 . S
C1136 C1137 1.349 . S
C1136 C1138 1.327 . S
C1136 H1161 0.950 . S
C1137 C1136 1.349 . S
C1137 C1153 1.349 . S
C1138 C1136 1.327 . S
C1138 C1157 1.429 . S
C1138 H1162 0.950 . S
C1139 C1156 1.574 . S
C1139 C1158 1.368 . S
C1139 H1163 0.949 . S
H1140 C1144 0.949 . S
C1141 C1142 1.349 . S
C1141 C1143 1.327 . S
C1141 H1164 0.950 . S
C1142 C1141 1.349 . S
C1142 C1154 1.349 . S
C1143 C1141 1.327 . S
C1143 C1159 1.429 . S
C1143 H1165 0.950 . S
C1144 H1140 0.949 . S
C1144 C1152 1.574 . S
C1144 C1160 1.368 . S
H1145 C1153 0.950 . S
H1146 C1151 0.950 . S
H1147 C1152 0.949 . S
H1148 C1154 0.950 . S
H1149 C1155 0.950 . S
H1150 C1156 0.949 . S
C1151 H1146 0.950 . S
C1151 C1153 1.327 . S
C1151 C1157 1.429 . S
C1152 C1144 1.574 . S
C1152 H1147 0.949 . S
C1152 C1158 1.368 . S
C1153 C1137 1.349 . S
C1153 H1145 0.950 . S
C1153 C1151 1.327 . S
C1154 C1142 1.349 . S
C1154 H1148 0.950 . S
C1154 C1155 1.327 . S
C1155 H1149 0.950 . S
C1155 C1154 1.327 . S
C1155 C1159 1.429 . S
C1156 C1139 1.574 . S
C1156 H1150 0.949 . S
C1156 C1160 1.368 . S
C1157 C1138 1.429 . S
C1157 C1151 1.429 . S
C1157 C1158 1.523 . S
C1158 C1139 1.368 . S
C1158 C1152 1.368 . S
C1158 C1157 1.523 . S
C1159 C1143 1.429 . S
C1159 C1155 1.429 . S
C1159 C1160 1.523 . S
C1160 C1144 1.368 . S
C1160 C1156 1.368 . S
C1160 C1159 1.523 . S
H1161 C1136 0.950 . S
H1162 C1138 0.950 . S
H1163 C1139 0.949 . S
H1164 C1141 0.950 . S
H1165 C1143 0.950 . S
C1166 C1167 1.349 . S
C1166 C1168 1.327 . S
C1166 H1191 0.950 . S
C1167 C1166 1.349 . S
C1167 C1183 1.349 . S
C1168 C1166 1.327 . S
C1168 C1187 1.429 . S
C1168 H1192 0.950 . S
C1169 C1186 1.514 1_655 S
C1169 C1188 1.368 . S
C1169 H1193 0.949 . S
H1170 C1174 0.949 . S
C1171 C1172 1.349 . S
C1171 C1173 1.327 . S
C1171 H1194 0.950 . S
C1172 C1171 1.349 . S
C1172 C1184 1.349 . S
C1173 C1171 1.327 . S
C1173 C1189 1.429 . S
C1173 H1195 0.950 . S
C1174 H1170 0.949 . S
C1174 C1182 1.574 1_455 S
C1174 C1190 1.368 . S
H1175 C1183 0.950 . S
H1176 C1181 0.950 . S
H1177 C1182 0.949 . S
H1178 C1184 0.950 . S
H1179 C1185 0.950 . S
H1180 C1186 0.981 . S
C1181 H1176 0.950 . S
C1181 C1183 1.327 . S
C1181 C1187 1.429 . S
C1182 C1174 1.574 1_655 S
C1182 H1177 0.949 . S
C1182 C1188 1.368 . S
C1183 C1167 1.349 . S
C1183 H1175 0.950 . S
C1183 C1181 1.327 . S
C1184 C1172 1.349 . S
C1184 H1178 0.950 . S
C1184 C1185 1.327 . S
C1185 H1179 0.950 . S
C1185 C1184 1.327 . S
C1185 C1189 1.429 . S
C1186 C1169 1.514 1_455 S
C1186 H1180 0.981 . S
C1186 C1190 1.395 . S
C1187 C1168 1.429 . S
C1187 C1181 1.429 . S
C1187 C1188 1.523 . S
C1188 C1169 1.368 . S
C1188 C1182 1.368 . S
C1188 C1187 1.523 . S
C1189 C1173 1.429 . S
C1189 C1185 1.429 . S
C1189 C1190 1.523 . S
C1190 C1174 1.368 . S
C1190 C1186 1.395 . S
C1190 C1189 1.523 . S
H1191 C1166 0.950 . S
H1192 C1168 0.950 . S
H1193 C1169 0.949 . S
H1194 C1171 0.950 . S
H1195 C1173 0.950 . S
C1196 C1197 1.349 . S
C1196 C1198 1.327 . S
C1196 H1221 0.950 . S
C1197 C1196 1.349 . S
C1197 C1213 1.349 . S
C1198 C1196 1.327 . S
C1198 C1217 1.429 . S
C1198 H1222 0.950 . S
C1199 C1216 1.574 . S
C1199 C1218 1.368 . S
C1199 H1223 0.949 . S
H1200 C1204 0.949 . S
C1201 C1202 1.349 . S
C1201 C1203 1.327 . S
C1201 H1224 0.950 . S
C1202 C1201 1.349 . S
C1202 C1214 1.349 . S
C1203 C1201 1.327 . S
C1203 C1219 1.429 . S
C1203 H1225 0.950 . S
C1204 H1200 0.949 . S
C1204 C1212 1.574 . S
C1204 C1220 1.368 . S
H1205 C1213 0.950 . S
H1206 C1211 0.950 . S
H1207 C1212 0.949 . S
H1208 C1214 0.950 . S
H1209 C1215 0.950 . S
H1210 C1216 0.949 . S
C1211 H1206 0.950 . S
C1211 C1213 1.327 . S
C1211 C1217 1.429 . S
C1212 C1204 1.574 . S
C1212 H1207 0.949 . S
C1212 C1218 1.368 . S
C1213 C1197 1.349 . S
C1213 H1205 0.950 . S
C1213 C1211 1.327 . S
C1214 C1202 1.349 . S
C1214 H1208 0.950 . S
C1214 C1215 1.327 . S
C1215 H1209 0.950 . S
C1215 C1214 1.327 . S
C1215 C1219 1.429 . S
C1216 C1199 1.574 . S
C1216 H1210 0.949 . S
C1216 C1220 1.368 . S
C1217 C1198 1.429 . S
C1217 C1211 1.429 . S
C1217 C1218 1.523 . S
C1218 C1199 1.368 . S
C1218 C1212 1.368 . S
C1218 C1217 1.523 . S
C1219 C1203 1.429 . S
C1219 C1215 1.429 . S
C1219 C1220 1.523 . S
C1220 C1204 1.368 . S
C1220 C1216 1.368 . S
C1220 C1219 1.523 . S
H1221 C1196 0.950 . S
H1222 C1198 0.950 . S
H1223 C1199 0.949 . S
H1224 C1201 0.950 . S
H1225 C1203 0.950 . S
C1226 C1227 1.349 . S
C1226 C1228 1.327 . S
C1226 H1251 0.950 . S
C1227 C1226 1.349 . S
C1227 C1243 1.349 . S
C1228 C1226 1.327 . S
C1228 C1247 1.429 . S
C1228 H1252 0.950 . S
C1229 C1246 1.574 . S
C1229 C1248 1.368 . S
C1229 H1253 0.949 . S
H1230 C1234 0.949 . S
C1231 C1232 1.349 . S
C1231 C1233 1.327 . S
C1231 H1254 0.950 . S
C1232 C1231 1.349 . S
C1232 C1244 1.349 . S
C1233 C1231 1.327 . S
C1233 C1249 1.429 . S
C1233 H1255 0.950 . S
C1234 H1230 0.949 . S
C1234 C1242 1.574 . S
C1234 C1250 1.368 . S
H1235 C1243 0.950 . S
H1236 C1241 0.950 . S
H1237 C1242 0.949 . S
H1238 C1244 0.950 . S
H1239 C1245 0.950 . S
H1240 C1246 0.949 . S
C1241 H1236 0.950 . S
C1241 C1243 1.327 . S
C1241 C1247 1.429 . S
C1242 C1234 1.574 . S
C1242 H1237 0.949 . S
C1242 C1248 1.368 . S
C1243 C1227 1.349 . S
C1243 H1235 0.950 . S
C1243 C1241 1.327 . S
C1244 C1232 1.349 . S
C1244 H1238 0.950 . S
C1244 C1245 1.327 . S
C1245 H1239 0.950 . S
C1245 C1244 1.327 . S
C1245 C1249 1.429 . S
C1246 C1229 1.574 . S
C1246 H1240 0.949 . S
C1246 C1250 1.368 . S
C1247 C1228 1.429 . S
C1247 C1241 1.429 . S
C1247 C1248 1.523 . S
C1248 C1229 1.368 . S
C1248 C1242 1.368 . S
C1248 C1247 1.523 . S
C1249 C1233 1.429 . S
C1249 C1245 1.429 . S
C1249 C1250 1.523 . S
C1250 C1234 1.368 . S
C1250 C1246 1.368 . S
C1250 C1249 1.523 . S
H1251 C1226 0.950 . S
H1252 C1228 0.950 . S
H1253 C1229 0.949 . S
H1254 C1231 0.950 . S
H1255 C1233 0.950 . S
C1256 C1257 1.349 . S
C1256 C1258 1.327 . S
C1256 H1281 0.950 . S
C1257 C1256 1.349 . S
C1257 C1273 1.349 . S
C1258 C1256 1.327 . S
C1258 C1277 1.429 . S
C1258 H1282 0.950 . S
C1259 C1276 1.574 . S
C1259 C1278 1.368 . S
C1259 H1283 0.949 . S
H1260 C1264 0.949 . S
C1261 C1262 1.349 . S
C1261 C1263 1.327 . S
C1261 H1284 0.950 . S
C1262 C1261 1.349 . S
C1262 C1274 1.349 . S
C1263 C1261 1.327 . S
C1263 C1279 1.429 . S
C1263 H1285 0.950 . S
C1264 H1260 0.949 . S
C1264 C1272 1.574 . S
C1264 C1280 1.368 . S
H1265 C1273 0.950 . S
H1266 C1271 0.950 . S
H1267 C1272 0.949 . S
H1268 C1274 0.950 . S
H1269 C1275 0.950 . S
H1270 C1276 0.949 . S
C1271 H1266 0.950 . S
C1271 C1273 1.327 . S
C1271 C1277 1.429 . S
C1272 C1264 1.574 . S
C1272 H1267 0.949 . S
C1272 C1278 1.368 . S
C1273 C1257 1.349 . S
C1273 H1265 0.950 . S
C1273 C1271 1.327 . S
C1274 C1262 1.349 . S
C1274 H1268 0.950 . S
C1274 C1275 1.327 . S
C1275 H1269 0.950 . S
C1275 C1274 1.327 . S
C1275 C1279 1.429 . S
C1276 C1259 1.574 . S
C1276 H1270 0.949 . S
C1276 C1280 1.368 . S
C1277 C1258 1.429 . S
C1277 C1271 1.429 . S
C1277 C1278 1.523 . S
C1278 C1259 1.368 . S
C1278 C1272 1.368 . S
C1278 C1277 1.523 . S
C1279 C1263 1.429 . S
C1279 C1275 1.429 . S
C1279 C1280 1.523 . S
C1280 C1264 1.368 . S
C1280 C1276 1.368 . S
C1280 C1279 1.523 . S
H1281 C1256 0.950 . S
H1282 C1258 0.950 . S
H1283 C1259 0.949 . S
H1284 C1261 0.950 . S
H1285 C1263 0.950 . S
C1286 C1287 1.349 . S
C1286 C1288 1.327 . S
C1286 H1311 0.950 . S
C1287 C1286 1.349 . S
C1287 C1303 1.349 . S
C1288 C1286 1.327 . S
C1288 C1307 1.429 . S
C1288 H1312 0.950 . S
C1289 C1306 1.574 . S
C1289 C1308 1.368 . S
C1289 H1313 0.949 . S
H1290 C1294 0.949 . S
C1291 C1292 1.349 . S
C1291 C1293 1.327 . S
C1291 H1314 0.950 . S
C1292 C1291 1.349 . S
C1292 C1304 1.349 . S
C1293 C1291 1.327 . S
C1293 C1309 1.429 . S
C1293 H1315 0.950 . S
C1294 H1290 0.949 . S
C1294 C1302 1.574 . S
C1294 C1310 1.368 . S
H1295 C1303 0.950 . S
H1296 C1301 0.950 . S
H1297 C1302 0.949 . S
H1298 C1304 0.950 . S
H1299 C1305 0.950 . S
H1300 C1306 0.949 . S
C1301 H1296 0.950 . S
C1301 C1303 1.327 . S
C1301 C1307 1.429 . S
C1302 C1294 1.574 . S
C1302 H1297 0.949 . S
C1302 C1308 1.368 . S
C1303 C1287 1.349 . S
C1303 H1295 0.950 . S
C1303 C1301 1.327 . S
C1304 C1292 1.349 . S
C1304 H1298 0.950 . S
C1304 C1305 1.327 . S
C1305 H1299 0.950 . S
C1305 C1304 1.327 . S
C1305 C1309 1.429 . S
C1306 C1289 1.574 . S
C1306 H1300 0.949 . S
C1306 C1310 1.368 . S
C1307 C1288 1.429 . S
C1307 C1301 1.429 . S
C1307 C1308 1.523 . S
C1308 C1289 1.368 . S
C1308 C1302 1.368 . S
C1308 C1307 1.523 . S
C1309 C1293 1.429 . S
C1309 C1305 1.429 . S
C1309 C1310 1.523 . S
C1310 C1294 1.368 . S
C1310 C1306 1.368 . S
C1310 C1309 1.523 . S
H1311 C1286 0.950 . S
H1312 C1288 0.950 . S
H1313 C1289 0.949 . S
H1314 C1291 0.950 . S
H1315 C1293 0.950 . S
C1316 C1317 1.349 . S
C1316 C1318 1.327 . S
C1316 H1341 0.950 . S
C1317 C1316 1.349 . S
C1317 C1333 1.349 . S
C1318 C1316 1.327 . S
C1318 C1337 1.429 . S
C1318 H1342 0.950 . S
C1319 C1336 1.574 . S
C1319 C1338 1.368 . S
C1319 H1343 0.949 . S
H1320 C1324 0.949 . S
C1321 C1322 1.349 . S
C1321 C1323 1.327 . S
C1321 H1344 0.950 . S
C1322 C1321 1.349 . S
C1322 C1334 1.349 . S
C1323 C1321 1.327 . S
C1323 C1339 1.429 . S
C1323 H1345 0.950 . S
C1324 H1320 0.949 . S
C1324 C1332 1.574 . S
C1324 C1340 1.368 . S
H1325 C1333 0.950 . S
H1326 C1331 0.950 . S
H1327 C1332 0.949 . S
H1328 C1334 0.950 . S
H1329 C1335 0.950 . S
H1330 C1336 0.949 . S
C1331 H1326 0.950 . S
C1331 C1333 1.327 . S
C1331 C1337 1.429 . S
C1332 C1324 1.574 . S
C1332 H1327 0.949 . S
C1332 C1338 1.368 . S
C1333 C1317 1.349 . S
C1333 H1325 0.950 . S
C1333 C1331 1.327 . S
C1334 C1322 1.349 . S
C1334 H1328 0.950 . S
C1334 C1335 1.327 . S
C1335 H1329 0.950 . S
C1335 C1334 1.327 . S
C1335 C1339 1.429 . S
C1336 C1319 1.574 . S
C1336 H1330 0.949 . S
C1336 C1340 1.368 . S
C1337 C1318 1.429 . S
C1337 C1331 1.429 . S
C1337 C1338 1.523 . S
C1338 C1319 1.368 . S
C1338 C1332 1.368 . S
C1338 C1337 1.523 . S
C1339 C1323 1.429 . S
C1339 C1335 1.429 . S
C1339 C1340 1.523 . S
C1340 C1324 1.368 . S
C1340 C1336 1.368 . S
C1340 C1339 1.523 . S
H1341 C1316 0.950 . S
H1342 C1318 0.950 . S
H1343 C1319 0.949 . S
H1344 C1321 0.950 . S
H1345 C1323 0.950 . S
C1346 C1347 1.349 . S
C1346 C1348 1.327 . S
C1346 H1371 0.950 . S
C1347 C1346 1.349 . S
C1347 C1363 1.349 . S
C1348 C1346 1.327 . S
C1348 C1367 1.429 . S
C1348 H1372 0.950 . S
C1349 C1366 1.574 1_655 S
C1349 C1368 1.368 . S
C1349 H1373 0.949 . S
H1350 C1354 0.949 . S
C1351 C1352 1.349 . S
C1351 C1353 1.327 . S
C1351 H1374 0.950 . S
C1352 C1351 1.349 . S
C1352 C1364 1.349 . S
C1353 C1351 1.327 . S
C1353 C1369 1.429 . S
C1353 H1375 0.950 . S
C1354 H1350 0.949 . S
C1354 C1362 1.574 1_455 S
C1354 C1370 1.368 . S
H1355 C1363 0.950 . S
H1356 C1361 0.950 . S
H1357 C1362 0.949 . S
H1358 C1364 0.950 . S
H1359 C1365 0.950 . S
H1360 C1366 0.949 . S
C1361 H1356 0.950 . S
C1361 C1363 1.327 . S
C1361 C1367 1.429 . S
C1362 C1354 1.574 1_655 S
C1362 H1357 0.949 . S
C1362 C1368 1.368 . S
C1363 C1347 1.349 . S
C1363 H1355 0.950 . S
C1363 C1361 1.327 . S
C1364 C1352 1.349 . S
C1364 H1358 0.950 . S
C1364 C1365 1.327 . S
C1365 H1359 0.950 . S
C1365 C1364 1.327 . S
C1365 C1369 1.429 . S
C1366 C1349 1.574 1_455 S
C1366 H1360 0.949 . S
C1366 C1370 1.368 . S
C1367 C1348 1.429 . S
C1367 C1361 1.429 . S
C1367 C1368 1.523 . S
C1368 C1349 1.368 . S
C1368 C1362 1.368 . S
C1368 C1367 1.523 . S
C1369 C1353 1.429 . S
C1369 C1365 1.429 . S
C1369 C1370 1.523 . S
C1370 C1354 1.368 . S
C1370 C1366 1.368 . S
C1370 C1369 1.523 . S
H1371 C1346 0.950 . S
H1372 C1348 0.950 . S
H1373 C1349 0.949 . S
H1374 C1351 0.950 . S
H1375 C1353 0.950 . S
C1376 C1377 1.349 . S
C1376 C1378 1.327 . S
C1376 H1401 0.950 . S
C1377 C1376 1.349 . S
C1377 C1393 1.349 . S
C1378 C1376 1.327 . S
C1378 C1397 1.429 . S
C1378 H1402 0.950 . S
C1379 C1396 1.574 . S
C1379 C1398 1.368 . S
C1379 H1403 0.949 . S
H1380 C1384 0.949 . S
C1381 C1382 1.349 . S
C1381 C1383 1.327 . S
C1381 H1404 0.950 . S
C1382 C1381 1.349 . S
C1382 C1394 1.349 . S
C1383 C1381 1.327 . S
C1383 C1399 1.429 . S
C1383 H1405 0.950 . S
C1384 H1380 0.949 . S
C1384 C1392 1.574 . S
C1384 C1400 1.368 . S
H1385 C1393 0.950 . S
H1386 C1391 0.950 . S
H1387 C1392 0.949 . S
H1388 C1394 0.950 . S
H1389 C1395 0.950 . S
H1390 C1396 0.949 . S
C1391 H1386 0.950 . S
C1391 C1393 1.327 . S
C1391 C1397 1.429 . S
C1392 C1384 1.574 . S
C1392 H1387 0.949 . S
C1392 C1398 1.368 . S
C1393 C1377 1.349 . S
C1393 H1385 0.950 . S
C1393 C1391 1.327 . S
C1394 C1382 1.349 . S
C1394 H1388 0.950 . S
C1394 C1395 1.327 . S
C1395 H1389 0.950 . S
C1395 C1394 1.327 . S
C1395 C1399 1.429 . S
C1396 C1379 1.574 . S
C1396 H1390 0.949 . S
C1396 C1400 1.368 . S
C1397 C1378 1.429 . S
C1397 C1391 1.429 . S
C1397 C1398 1.523 . S
C1398 C1379 1.368 . S
C1398 C1392 1.368 . S
C1398 C1397 1.523 . S
C1399 C1383 1.429 . S
C1399 C1395 1.429 . S
C1399 C1400 1.523 . S
C1400 C1384 1.368 . S
C1400 C1396 1.368 . S
C1400 C1399 1.523 . S
H1401 C1376 0.950 . S
H1402 C1378 0.950 . S
H1403 C1379 0.949 . S
H1404 C1381 0.950 . S
H1405 C1383 0.950 . S
C1406 C1407 1.349 . S
C1406 C1408 1.327 . S
C1406 H1431 0.950 . S
C1407 C1406 1.349 . S
C1407 C1423 1.349 . S
C1408 C1406 1.327 . S
C1408 C1427 1.429 . S
C1408 H1432 0.950 . S
C1409 C1426 1.574 . S
C1409 C1428 1.368 . S
C1409 H1433 0.949 . S
H1410 C1414 0.949 . S
C1411 C1412 1.349 . S
C1411 C1413 1.327 . S
C1411 H1434 0.950 . S
C1412 C1411 1.349 . S
C1412 C1424 1.349 . S
C1413 C1411 1.327 . S
C1413 C1429 1.429 . S
C1413 H1435 0.950 . S
C1414 H1410 0.949 . S
C1414 C1422 1.574 . S
C1414 C1430 1.368 . S
H1415 C1423 0.950 . S
H1416 C1421 0.950 . S
H1417 C1422 0.949 . S
H1418 C1424 0.950 . S
H1419 C1425 0.950 . S
H1420 C1426 0.949 . S
C1421 H1416 0.950 . S
C1421 C1423 1.327 . S
C1421 C1427 1.429 . S
C1422 C1414 1.574 . S
C1422 H1417 0.949 . S
C1422 C1428 1.368 . S
C1423 C1407 1.349 . S
C1423 H1415 0.950 . S
C1423 C1421 1.327 . S
C1424 C1412 1.349 . S
C1424 H1418 0.950 . S
C1424 C1425 1.327 . S
C1425 H1419 0.950 . S
C1425 C1424 1.327 . S
C1425 C1429 1.429 . S
C1426 C1409 1.574 . S
C1426 H1420 0.949 . S
C1426 C1430 1.368 . S
C1427 C1408 1.429 . S
C1427 C1421 1.429 . S
C1427 C1428 1.523 . S
C1428 C1409 1.368 . S
C1428 C1422 1.368 . S
C1428 C1427 1.523 . S
C1429 C1413 1.429 . S
C1429 C1425 1.429 . S
C1429 C1430 1.523 . S
C1430 C1414 1.368 . S
C1430 C1426 1.368 . S
C1430 C1429 1.523 . S
H1431 C1406 0.950 . S
H1432 C1408 0.950 . S
H1433 C1409 0.949 . S
H1434 C1411 0.950 . S
H1435 C1413 0.950 . S
C1436 C1437 1.349 . S
C1436 C1438 1.327 . S
C1436 H1461 0.950 . S
C1437 C1436 1.349 . S
C1437 C1453 1.349 . S
C1438 C1436 1.327 . S
C1438 C1457 1.429 . S
C1438 H1462 0.950 . S
C1439 C1456 1.574 . S
C1439 C1458 1.368 . S
C1439 H1463 0.949 . S
H1440 C1444 0.949 . S
C1441 C1442 1.349 . S
C1441 C1443 1.327 . S
C1441 H1464 0.950 . S
C1442 C1441 1.349 . S
C1442 C1454 1.349 . S
C1443 C1441 1.327 . S
C1443 C1459 1.429 . S
C1443 H1465 0.950 . S
C1444 H1440 0.949 . S
C1444 C1452 1.574 . S
C1444 C1460 1.368 . S
H1445 C1453 0.950 . S
H1446 C1451 0.950 . S
H1447 C1452 0.949 . S
H1448 C1454 0.950 . S
H1449 C1455 0.950 . S
H1450 C1456 0.949 . S
C1451 H1446 0.950 . S
C1451 C1453 1.327 . S
C1451 C1457 1.429 . S
C1452 C1444 1.574 . S
C1452 H1447 0.949 . S
C1452 C1458 1.368 . S
C1453 C1437 1.349 . S
C1453 H1445 0.950 . S
C1453 C1451 1.327 . S
C1454 C1442 1.349 . S
C1454 H1448 0.950 . S
C1454 C1455 1.327 . S
C1455 H1449 0.950 . S
C1455 C1454 1.327 . S
C1455 C1459 1.429 . S
C1456 C1439 1.574 . S
C1456 H1450 0.949 . S
C1456 C1460 1.368 . S
C1457 C1438 1.429 . S
C1457 C1451 1.429 . S
C1457 C1458 1.523 . S
C1458 C1439 1.368 . S
C1458 C1452 1.368 . S
C1458 C1457 1.523 . S
C1459 C1443 1.429 . S
C1459 C1455 1.429 . S
C1459 C1460 1.523 . S
C1460 C1444 1.368 . S
C1460 C1456 1.368 . S
C1460 C1459 1.523 . S
H1461 C1436 0.950 . S
H1462 C1438 0.950 . S
H1463 C1439 0.949 . S
H1464 C1441 0.950 . S
H1465 C1443 0.950 . S
C1466 C1467 1.349 . S
C1466 C1468 1.327 . S
C1466 H1491 0.950 . S
C1467 C1466 1.349 . S
C1467 C1483 1.349 . S
C1468 C1466 1.327 . S
C1468 C1487 1.429 . S
C1468 H1492 0.950 . S
C1469 C1486 1.574 1_655 S
C1469 C1488 1.368 . S
C1469 H1493 0.949 . S
H1470 C1474 0.949 . S
C1471 C1472 1.349 . S
C1471 C1473 1.327 . S
C1471 H1494 0.950 . S
C1472 C1471 1.349 . S
C1472 C1484 1.349 . S
C1473 C1471 1.327 . S
C1473 C1489 1.429 . S
C1473 H1495 0.950 . S
C1474 H1470 0.949 . S
C1474 C1482 1.574 1_455 S
C1474 C1490 1.368 . S
H1475 C1483 0.950 . S
H1476 C1481 0.950 . S
H1477 C1482 0.949 . S
H1478 C1484 0.950 . S
H1479 C1485 0.950 . S
H1480 C1486 0.949 . S
C1481 H1476 0.950 . S
C1481 C1483 1.327 . S
C1481 C1487 1.429 . S
C1482 C1474 1.574 1_655 S
C1482 H1477 0.949 . S
C1482 C1488 1.368 . S
C1483 C1467 1.349 . S
C1483 H1475 0.950 . S
C1483 C1481 1.327 . S
C1484 C1472 1.349 . S
C1484 H1478 0.950 . S
C1484 C1485 1.327 . S
C1485 H1479 0.950 . S
C1485 C1484 1.327 . S
C1485 C1489 1.429 . S
C1486 C1469 1.574 1_455 S
C1486 H1480 0.949 . S
C1486 C1490 1.368 . S
C1487 C1468 1.429 . S
C1487 C1481 1.429 . S
C1487 C1488 1.523 . S
C1488 C1469 1.368 . S
C1488 C1482 1.368 . S
C1488 C1487 1.523 . S
C1489 C1473 1.429 . S
C1489 C1485 1.429 . S
C1489 C1490 1.523 . S
C1490 C1474 1.368 . S
C1490 C1486 1.368 . S
C1490 C1489 1.523 . S
H1491 C1466 0.950 . S
H1492 C1468 0.950 . S
H1493 C1469 0.949 . S
H1494 C1471 0.950 . S
H1495 C1473 0.950 . S
C1496 C1497 1.349 . S
C1496 C1498 1.327 . S
C1496 H1521 0.950 . S
C1497 C1496 1.349 . S
C1497 C1513 1.349 . S
C1498 C1496 1.327 . S
C1498 C1517 1.429 . S
C1498 H1522 0.950 . S
C1499 C1516 1.574 . S
C1499 C1518 1.368 . S
C1499 H1523 0.949 . S
H1500 C1504 0.949 . S
C1501 C1502 1.349 . S
C1501 C1503 1.327 . S
C1501 H1524 0.950 . S
C1502 C1501 1.349 . S
C1502 C1514 1.349 . S
C1503 C1501 1.327 . S
C1503 C1519 1.429 . S
C1503 H1525 0.950 . S
C1504 H1500 0.949 . S
C1504 C1512 1.574 . S
C1504 C1520 1.368 . S
H1505 C1513 0.950 . S
H1506 C1511 0.950 . S
H1507 C1512 0.949 . S
H1508 C1514 0.950 . S
H1509 C1515 0.950 . S
H1510 C1516 0.949 . S
C1511 H1506 0.950 . S
C1511 C1513 1.327 . S
C1511 C1517 1.429 . S
C1512 C1504 1.574 . S
C1512 H1507 0.949 . S
C1512 C1518 1.368 . S
C1513 C1497 1.349 . S
C1513 H1505 0.950 . S
C1513 C1511 1.327 . S
C1514 C1502 1.349 . S
C1514 H1508 0.950 . S
C1514 C1515 1.327 . S
C1515 H1509 0.950 . S
C1515 C1514 1.327 . S
C1515 C1519 1.429 . S
C1516 C1499 1.574 . S
C1516 H1510 0.949 . S
C1516 C1520 1.368 . S
C1517 C1498 1.429 . S
C1517 C1511 1.429 . S
C1517 C1518 1.523 . S
C1518 C1499 1.368 . S
C1518 C1512 1.368 . S
C1518 C1517 1.523 . S
C1519 C1503 1.429 . S
C1519 C1515 1.429 . S
C1519 C1520 1.523 . S
C1520 C1504 1.368 . S
C1520 C1516 1.368 . S
C1520 C1519 1.523 . S
H1521 C1496 0.950 . S
H1522 C1498 0.950 . S
H1523 C1499 0.949 . S
H1524 C1501 0.950 . S
H1525 C1503 0.950 . S
C1526 C1527 1.349 . S
C1526 C1528 1.327 . S
C1526 H1551 0.950 . S
C1527 C1526 1.349 . S
C1527 C1543 1.349 . S
C1528 C1526 1.327 . S
C1528 C1547 1.429 . S
C1528 H1552 0.950 . S
C1529 C1546 1.574 1_455 S
C1529 C1548 1.368 . S
C1529 H1553 0.949 . S
H1530 C1534 0.949 . S
C1531 C1532 1.349 . S
C1531 C1533 1.327 . S
C1531 H1554 0.950 . S
C1532 C1531 1.349 . S
C1532 C1544 1.349 . S
C1533 C1531 1.327 . S
C1533 C1549 1.429 . S
C1533 H1555 0.950 . S
C1534 H1530 0.949 . S
C1534 C1542 1.523 1_655 S
C1534 C1550 1.368 . S
H1535 C1543 0.950 . S
H1536 C1541 0.950 . S
H1537 C1542 0.975 . S
H1538 C1544 0.950 . S
H1539 C1545 0.950 . S
H1540 C1546 0.949 . S
C1541 H1536 0.950 . S
C1541 C1543 1.327 . S
C1541 C1547 1.429 . S
C1542 C1534 1.523 1_455 S
C1542 H1537 0.975 . S
C1542 C1548 1.392 . S
C1543 C1527 1.349 . S
C1543 H1535 0.950 . S
C1543 C1541 1.327 . S
C1544 C1532 1.349 . S
C1544 H1538 0.950 . S
C1544 C1545 1.327 . S
C1545 H1539 0.950 . S
C1545 C1544 1.327 . S
C1545 C1549 1.429 . S
C1546 C1529 1.574 1_655 S
C1546 H1540 0.949 . S
C1546 C1550 1.368 . S
C1547 C1528 1.429 . S
C1547 C1541 1.429 . S
C1547 C1548 1.523 . S
C1548 C1529 1.368 . S
C1548 C1542 1.392 . S
C1548 C1547 1.523 . S
C1549 C1533 1.429 . S
C1549 C1545 1.429 . S
C1549 C1550 1.523 . S
C1550 C1534 1.368 . S
C1550 C1546 1.368 . S
C1550 C1549 1.523 . S
H1551 C1526 0.950 . S
H1552 C1528 0.950 . S
H1553 C1529 0.949 . S
H1554 C1531 0.950 . S
H1555 C1533 0.950 . S
C1556 C1557 1.349 . S
C1556 C1558 1.327 . S
C1556 H1581 0.950 . S
C1557 C1556 1.349 . S
C1557 C1573 1.349 . S
C1558 C1556 1.327 . S
C1558 C1577 1.429 . S
C1558 H1582 0.950 . S
C1559 C1576 1.574 . S
C1559 C1578 1.368 . S
C1559 H1583 0.949 . S
H1560 C1564 0.949 . S
C1561 C1562 1.349 . S
C1561 C1563 1.327 . S
C1561 H1584 0.950 . S
C1562 C1561 1.349 . S
C1562 C1574 1.349 . S
C1563 C1561 1.327 . S
C1563 C1579 1.429 . S
C1563 H1585 0.950 . S
C1564 H1560 0.949 . S
C1564 C1572 1.574 . S
C1564 C1580 1.368 . S
H1565 C1573 0.950 . S
H1566 C1571 0.950 . S
H1567 C1572 0.949 . S
H1568 C1574 0.950 . S
H1569 C1575 0.950 . S
H1570 C1576 0.949 . S
C1571 H1566 0.950 . S
C1571 C1573 1.327 . S
C1571 C1577 1.429 . S
C1572 C1564 1.574 . S
C1572 H1567 0.949 . S
C1572 C1578 1.368 . S
C1573 C1557 1.349 . S
C1573 H1565 0.950 . S
C1573 C1571 1.327 . S
C1574 C1562 1.349 . S
C1574 H1568 0.950 . S
C1574 C1575 1.327 . S
C1575 H1569 0.950 . S
C1575 C1574 1.327 . S
C1575 C1579 1.429 . S
C1576 C1559 1.574 . S
C1576 H1570 0.949 . S
C1576 C1580 1.368 . S
C1577 C1558 1.429 . S
C1577 C1571 1.429 . S
C1577 C1578 1.523 . S
C1578 C1559 1.368 . S
C1578 C1572 1.368 . S
C1578 C1577 1.523 . S
C1579 C1563 1.429 . S
C1579 C1575 1.429 . S
C1579 C1580 1.523 . S
C1580 C1564 1.368 . S
C1580 C1576 1.368 . S
C1580 C1579 1.523 . S
H1581 C1556 0.950 . S
H1582 C1558 0.950 . S
H1583 C1559 0.949 . S
H1584 C1561 0.950 . S
H1585 C1563 0.950 . S
C1586 C1587 1.349 . S
C1586 C1588 1.327 . S
C1586 H1611 0.950 . S
C1587 C1586 1.349 . S
C1587 C1603 1.349 . S
C1588 C1586 1.327 . S
C1588 C1607 1.429 . S
C1588 H1612 0.950 . S
C1589 C1606 1.574 . S
C1589 C1608 1.368 . S
C1589 H1613 0.949 . S
H1590 C1594 0.949 . S
C1591 C1592 1.349 . S
C1591 C1593 1.327 . S
C1591 H1614 0.950 . S
C1592 C1591 1.349 . S
C1592 C1604 1.349 . S
C1593 C1591 1.327 . S
C1593 C1609 1.429 . S
C1593 H1615 0.950 . S
C1594 H1590 0.949 . S
C1594 C1602 1.574 . S
C1594 C1610 1.368 . S
H1595 C1603 0.950 . S
H1596 C1601 0.950 . S
H1597 C1602 0.949 . S
H1598 C1604 0.950 . S
H1599 C1605 0.950 . S
H1600 C1606 0.949 . S
C1601 H1596 0.950 . S
C1601 C1603 1.327 . S
C1601 C1607 1.429 . S
C1602 C1594 1.574 . S
C1602 H1597 0.949 . S
C1602 C1608 1.368 . S
C1603 C1587 1.349 . S
C1603 H1595 0.950 . S
C1603 C1601 1.327 . S
C1604 C1592 1.349 . S
C1604 H1598 0.950 . S
C1604 C1605 1.327 . S
C1605 H1599 0.950 . S
C1605 C1604 1.327 . S
C1605 C1609 1.429 . S
C1606 C1589 1.574 . S
C1606 H1600 0.949 . S
C1606 C1610 1.368 . S
C1607 C1588 1.429 . S
C1607 C1601 1.429 . S
C1607 C1608 1.523 . S
C1608 C1589 1.368 . S
C1608 C1602 1.368 . S
C1608 C1607 1.523 . S
C1609 C1593 1.429 . S
C1609 C1605 1.429 . S
C1609 C1610 1.523 . S
C1610 C1594 1.368 . S
C1610 C1606 1.368 . S
C1610 C1609 1.523 . S
H1611 C1586 0.950 . S
H1612 C1588 0.950 . S
H1613 C1589 0.949 . S
H1614 C1591 0.950 . S
H1615 C1593 0.950 . S
C1616 C1617 1.349 . S
C1616 C1618 1.327 . S
C1616 H1641 0.950 . S
C1617 C1616 1.349 . S
C1617 C1633 1.349 . S
C1618 C1616 1.327 . S
C1618 C1637 1.429 . S
C1618 H1642 0.950 . S
C1619 C1636 1.574 . S
C1619 C1638 1.368 . S
C1619 H1643 0.949 . S
H1620 C1624 0.949 . S
C1621 C1622 1.349 . S
C1621 C1623 1.327 . S
C1621 H1644 0.950 . S
C1622 C1621 1.349 . S
C1622 C1634 1.349 . S
C1623 C1621 1.327 . S
C1623 C1639 1.429 . S
C1623 H1645 0.950 . S
C1624 H1620 0.949 . S
C1624 C1632 1.574 . S
C1624 C1640 1.368 . S
H1625 C1633 0.950 . S
H1626 C1631 0.950 . S
H1627 C1632 0.949 . S
H1628 C1634 0.950 . S
H1629 C1635 0.950 . S
H1630 C1636 0.949 . S
C1631 H1626 0.950 . S
C1631 C1633 1.327 . S
C1631 C1637 1.429 . S
C1632 C1624 1.574 . S
C1632 H1627 0.949 . S
C1632 C1638 1.368 . S
C1633 C1617 1.349 . S
C1633 H1625 0.950 . S
C1633 C1631 1.327 . S
C1634 C1622 1.349 . S
C1634 H1628 0.950 . S
C1634 C1635 1.327 . S
C1635 H1629 0.950 . S
C1635 C1634 1.327 . S
C1635 C1639 1.429 . S
C1636 C1619 1.574 . S
C1636 H1630 0.949 . S
C1636 C1640 1.368 . S
C1637 C1618 1.429 . S
C1637 C1631 1.429 . S
C1637 C1638 1.523 . S
C1638 C1619 1.368 . S
C1638 C1632 1.368 . S
C1638 C1637 1.523 . S
C1639 C1623 1.429 . S
C1639 C1635 1.429 . S
C1639 C1640 1.523 . S
C1640 C1624 1.368 . S
C1640 C1636 1.368 . S
C1640 C1639 1.523 . S
H1641 C1616 0.950 . S
H1642 C1618 0.950 . S
H1643 C1619 0.949 . S
H1644 C1621 0.950 . S
H1645 C1623 0.950 . S
C1646 C1647 1.349 . S
C1646 C1648 1.327 . S
C1646 H1671 0.950 . S
C1647 C1646 1.349 . S
C1647 C1663 1.349 . S
C1648 C1646 1.327 . S
C1648 C1667 1.429 . S
C1648 H1672 0.950 . S
C1649 C1666 1.574 . S
C1649 C1668 1.368 . S
C1649 H1673 0.949 . S
H1650 C1654 0.949 . S
C1651 C1652 1.349 . S
C1651 C1653 1.327 . S
C1651 H1674 0.950 . S
C1652 C1651 1.349 . S
C1652 C1664 1.349 . S
C1653 C1651 1.327 . S
C1653 C1669 1.429 . S
C1653 H1675 0.950 . S
C1654 H1650 0.949 . S
C1654 C1662 1.574 . S
C1654 C1670 1.368 . S
H1655 C1663 0.950 . S
H1656 C1661 0.950 . S
H1657 C1662 0.949 . S
H1658 C1664 0.950 . S
H1659 C1665 0.950 . S
H1660 C1666 0.949 . S
C1661 H1656 0.950 . S
C1661 C1663 1.327 . S
C1661 C1667 1.429 . S
C1662 C1654 1.574 . S
C1662 H1657 0.949 . S
C1662 C1668 1.368 . S
C1663 C1647 1.349 . S
C1663 H1655 0.950 . S
C1663 C1661 1.327 . S
C1664 C1652 1.349 . S
C1664 H1658 0.950 . S
C1664 C1665 1.327 . S
C1665 H1659 0.950 . S
C1665 C1664 1.327 . S
C1665 C1669 1.429 . S
C1666 C1649 1.574 . S
C1666 H1660 0.949 . S
C1666 C1670 1.368 . S
C1667 C1648 1.429 . S
C1667 C1661 1.429 . S
C1667 C1668 1.523 . S
C1668 C1649 1.368 . S
C1668 C1662 1.368 . S
C1668 C1667 1.523 . S
C1669 C1653 1.429 . S
C1669 C1665 1.429 . S
C1669 C1670 1.523 . S
C1670 C1654 1.368 . S
C1670 C1666 1.368 . S
C1670 C1669 1.523 . S
H1671 C1646 0.950 . S
H1672 C1648 0.950 . S
H1673 C1649 0.949 . S
H1674 C1651 0.950 . S
H1675 C1653 0.950 . S
C1676 C1677 1.349 . S
C1676 C1678 1.327 . S
C1676 H1701 0.950 . S
C1677 C1676 1.349 . S
C1677 C1693 1.349 . S
C1678 C1676 1.327 . S
C1678 C1697 1.429 . S
C1678 H1702 0.950 . S
C1679 C1696 1.574 . S
C1679 C1698 1.368 . S
C1679 H1703 0.949 . S
H1680 C1684 0.949 . S
C1681 C1682 1.349 . S
C1681 C1683 1.327 . S
C1681 H1704 0.950 . S
C1682 C1681 1.349 . S
C1682 C1694 1.349 . S
C1683 C1681 1.327 . S
C1683 C1699 1.429 . S
C1683 H1705 0.950 . S
C1684 H1680 0.949 . S
C1684 C1692 1.574 . S
C1684 C1700 1.368 . S
H1685 C1693 0.950 . S
H1686 C1691 0.950 . S
H1687 C1692 0.949 . S
H1688 C1694 0.950 . S
H1689 C1695 0.950 . S
H1690 C1696 0.949 . S
C1691 H1686 0.950 . S
C1691 C1693 1.327 . S
C1691 C1697 1.429 . S
C1692 C1684 1.574 . S
C1692 H1687 0.949 . S
C1692 C1698 1.368 . S
C1693 C1677 1.349 . S
C1693 H1685 0.950 . S
C1693 C1691 1.327 . S
C1694 C1682 1.349 . S
C1694 H1688 0.950 . S
C1694 C1695 1.327 . S
C1695 H1689 0.950 . S
C1695 C1694 1.327 . S
C1695 C1699 1.429 . S
C1696 C1679 1.574 . S
C1696 H1690 0.949 . S
C1696 C1700 1.368 . S
C1697 C1678 1.429 . S
C1697 C1691 1.429 . S
C1697 C1698 1.523 . S
C1698 C1679 1.368 . S
C1698 C1692 1.368 . S
C1698 C1697 1.523 . S
C1699 C1683 1.429 . S
C1699 C1695 1.429 . S
C1699 C1700 1.523 . S
C1700 C1684 1.368 . S
C1700 C1696 1.368 . S
C1700 C1699 1.523 . S
H1701 C1676 0.950 . S
H1702 C1678 0.950 . S
H1703 C1679 0.949 . S
H1704 C1681 0.950 . S
H1705 C1683 0.950 . S
C1706 C1707 1.349 . S
C1706 C1708 1.327 . S
C1706 H1731 0.950 . S
C1707 C1706 1.349 . S
C1707 C1723 1.349 . S
C1708 C1706 1.327 . S
C1708 C1727 1.429 . S
C1708 H1732 0.950 . S
C1709 C1726 1.574 1_455 S
C1709 C1728 1.368 . S
C1709 H1733 0.949 . S
H1710 C1714 0.949 . S
C1711 C1712 1.349 . S
C1711 C1713 1.327 . S
C1711 H1734 0.950 . S
C1712 C1711 1.349 . S
C1712 C1724 1.349 . S
C1713 C1711 1.327 . S
C1713 C1729 1.429 . S
C1713 H1735 0.950 . S
C1714 H1710 0.949 . S
C1714 C1722 1.574 1_655 S
C1714 C1730 1.368 . S
H1715 C1723 0.950 . S
H1716 C1721 0.950 . S
H1717 C1722 0.949 . S
H1718 C1724 0.950 . S
H1719 C1725 0.950 . S
H1720 C1726 0.949 . S
C1721 H1716 0.950 . S
C1721 C1723 1.327 . S
C1721 C1727 1.429 . S
C1722 C1714 1.574 1_455 S
C1722 H1717 0.949 . S
C1722 C1728 1.368 . S
C1723 C1707 1.349 . S
C1723 H1715 0.950 . S
C1723 C1721 1.327 . S
C1724 C1712 1.349 . S
C1724 H1718 0.950 . S
C1724 C1725 1.327 . S
C1725 H1719 0.950 . S
C1725 C1724 1.327 . S
C1725 C1729 1.429 . S
C1726 C1709 1.574 1_655 S
C1726 H1720 0.949 . S
C1726 C1730 1.368 . S
C1727 C1708 1.429 . S
C1727 C1721 1.429 . S
C1727 C1728 1.523 . S
C1728 C1709 1.368 . S
C1728 C1722 1.368 . S
C1728 C1727 1.523 . S
C1729 C1713 1.429 . S
C1729 C1725 1.429 . S
C1729 C1730 1.523 . S
C1730 C1714 1.368 . S
C1730 C1726 1.368 . S
C1730 C1729 1.523 . S
H1731 C1706 0.950 . S
H1732 C1708 0.950 . S
H1733 C1709 0.949 . S
H1734 C1711 0.950 . S
H1735 C1713 0.950 . S
C1736 C1737 1.349 . S
C1736 C1738 1.327 . S
C1736 H1761 0.950 . S
C1737 C1736 1.349 . S
C1737 C1753 1.349 . S
C1738 C1736 1.327 . S
C1738 C1757 1.429 . S
C1738 H1762 0.950 . S
C1739 C1756 1.574 . S
C1739 C1758 1.368 . S
C1739 H1763 0.949 . S
H1740 C1744 0.949 . S
C1741 C1742 1.349 . S
C1741 C1743 1.327 . S
C1741 H1764 0.950 . S
C1742 C1741 1.349 . S
C1742 C1754 1.349 . S
C1743 C1741 1.327 . S
C1743 C1759 1.429 . S
C1743 H1765 0.950 . S
C1744 H1740 0.949 . S
C1744 C1752 1.574 . S
C1744 C1760 1.368 . S
H1745 C1753 0.950 . S
H1746 C1751 0.950 . S
H1747 C1752 0.949 . S
H1748 C1754 0.950 . S
H1749 C1755 0.950 . S
H1750 C1756 0.949 . S
C1751 H1746 0.950 . S
C1751 C1753 1.327 . S
C1751 C1757 1.429 . S
C1752 C1744 1.574 . S
C1752 H1747 0.949 . S
C1752 C1758 1.368 . S
C1753 C1737 1.349 . S
C1753 H1745 0.950 . S
C1753 C1751 1.327 . S
C1754 C1742 1.349 . S
C1754 H1748 0.950 . S
C1754 C1755 1.327 . S
C1755 H1749 0.950 . S
C1755 C1754 1.327 . S
C1755 C1759 1.429 . S
C1756 C1739 1.574 . S
C1756 H1750 0.949 . S
C1756 C1760 1.368 . S
C1757 C1738 1.429 . S
C1757 C1751 1.429 . S
C1757 C1758 1.523 . S
C1758 C1739 1.368 . S
C1758 C1752 1.368 . S
C1758 C1757 1.523 . S
C1759 C1743 1.429 . S
C1759 C1755 1.429 . S
C1759 C1760 1.523 . S
C1760 C1744 1.368 . S
C1760 C1756 1.368 . S
C1760 C1759 1.523 . S
H1761 C1736 0.950 . S
H1762 C1738 0.950 . S
H1763 C1739 0.949 . S
H1764 C1741 0.950 . S
H1765 C1743 0.950 . S
C1766 C1767 1.349 . S
C1766 C1768 1.327 . S
C1766 H1791 0.950 . S
C1767 C1766 1.349 . S
C1767 C1783 1.349 . S
C1768 C1766 1.327 . S
C1768 C1787 1.429 . S
C1768 H1792 0.950 . S
C1769 C1786 1.524 1_655 S
C1769 C1788 1.391 . S
C1769 H1793 0.975 . S
H1770 C1774 0.949 . S
C1771 C1772 1.349 . S
C1771 C1773 1.327 . S
C1771 H1794 0.950 . S
C1772 C1771 1.349 . S
C1772 C1784 1.349 . S
C1773 C1771 1.327 . S
C1773 C1789 1.429 . S
C1773 H1795 0.950 . S
C1774 H1770 0.949 . S
C1774 C1782 1.574 1_455 S
C1774 C1790 1.368 . S
H1775 C1783 0.950 . S
H1776 C1781 0.950 . S
H1777 C1782 0.949 . S
H1778 C1784 0.950 . S
H1779 C1785 0.950 . S
H1780 C1786 0.949 . S
C1781 H1776 0.950 . S
C1781 C1783 1.327 . S
C1781 C1787 1.429 . S
C1782 C1774 1.574 1_655 S
C1782 H1777 0.949 . S
C1782 C1788 1.368 . S
C1783 C1767 1.349 . S
C1783 H1775 0.950 . S
C1783 C1781 1.327 . S
C1784 C1772 1.349 . S
C1784 H1778 0.950 . S
C1784 C1785 1.327 . S
C1785 H1779 0.950 . S
C1785 C1784 1.327 . S
C1785 C1789 1.429 . S
C1786 C1769 1.524 1_455 S
C1786 H1780 0.949 . S
C1786 C1790 1.368 . S
C1787 C1768 1.429 . S
C1787 C1781 1.429 . S
C1787 C1788 1.523 . S
C1788 C1769 1.391 . S
C1788 C1782 1.368 . S
C1788 C1787 1.523 . S
C1789 C1773 1.429 . S
C1789 C1785 1.429 . S
C1789 C1790 1.523 . S
C1790 C1774 1.368 . S
C1790 C1786 1.368 . S
C1790 C1789 1.523 . S
H1791 C1766 0.950 . S
H1792 C1768 0.950 . S
H1793 C1769 0.975 . S
H1794 C1771 0.950 . S
H1795 C1773 0.950 . S
C1796 C1797 1.349 . S
C1796 C1798 1.327 . S
C1796 H1821 0.950 . S
C1797 C1796 1.349 . S
C1797 C1813 1.349 . S
C1798 C1796 1.327 . S
C1798 C1817 1.429 . S
C1798 H1822 0.950 . S
C1799 C1816 1.574 . S
C1799 C1818 1.368 . S
C1799 H1823 0.949 . S
H1800 C1804 0.949 . S
C1801 C1802 1.349 . S
C1801 C1803 1.327 . S
C1801 H1824 0.950 . S
C1802 C1801 1.349 . S
C1802 C1814 1.349 . S
C1803 C1801 1.327 . S
C1803 C1819 1.429 . S
C1803 H1825 0.950 . S
C1804 H1800 0.949 . S
C1804 C1812 1.574 . S
C1804 C1820 1.368 . S
H1805 C1813 0.950 . S
H1806 C1811 0.950 . S
H1807 C1812 0.949 . S
H1808 C1814 0.950 . S
H1809 C1815 0.950 . S
H1810 C1816 0.949 . S
C1811 H1806 0.950 . S
C1811 C1813 1.327 . S
C1811 C1817 1.429 . S
C1812 C1804 1.574 . S
C1812 H1807 0.949 . S
C1812 C1818 1.368 . S
C1813 C1797 1.349 . S
C1813 H1805 0.950 . S
C1813 C1811 1.327 . S
C1814 C1802 1.349 . S
C1814 H1808 0.950 . S
C1814 C1815 1.327 . S
C1815 H1809 0.950 . S
C1815 C1814 1.327 . S
C1815 C1819 1.429 . S
C1816 C1799 1.574 . S
C1816 H1810 0.949 . S
C1816 C1820 1.368 . S
C1817 C1798 1.429 . S
C1817 C1811 1.429 . S
C1817 C1818 1.523 . S
C1818 C1799 1.368 . S
C1818 C1812 1.368 . S
C1818 C1817 1.523 . S
C1819 C1803 1.429 . S
C1819 C1815 1.429 . S
C1819 C1820 1.523 . S
C1820 C1804 1.368 . S
C1820 C1816 1.368 . S
C1820 C1819 1.523 . S
H1821 C1796 0.950 . S
H1822 C1798 0.950 . S
H1823 C1799 0.949 . S
H1824 C1801 0.950 . S
H1825 C1803 0.950 . S
C1826 C1827 1.349 . S
C1826 C1828 1.327 . S
C1826 H1851 0.950 . S
C1827 C1826 1.349 . S
C1827 C1843 1.349 . S
C1828 C1826 1.327 . S
C1828 C1847 1.429 . S
C1828 H1852 0.950 . S
C1829 C1846 1.574 . S
C1829 C1848 1.368 . S
C1829 H1853 0.949 . S
H1830 C1834 0.949 . S
C1831 C1832 1.349 . S
C1831 C1833 1.327 . S
C1831 H1854 0.950 . S
C1832 C1831 1.349 . S
C1832 C1844 1.349 . S
C1833 C1831 1.327 . S
C1833 C1849 1.429 . S
C1833 H1855 0.950 . S
C1834 H1830 0.949 . S
C1834 C1842 1.574 . S
C1834 C1850 1.368 . S
H1835 C1843 0.950 . S
H1836 C1841 0.950 . S
H1837 C1842 0.949 . S
H1838 C1844 0.950 . S
H1839 C1845 0.950 . S
H1840 C1846 0.949 . S
C1841 H1836 0.950 . S
C1841 C1843 1.327 . S
C1841 C1847 1.429 . S
C1842 C1834 1.574 . S
C1842 H1837 0.949 . S
C1842 C1848 1.368 . S
C1843 C1827 1.349 . S
C1843 H1835 0.950 . S
C1843 C1841 1.327 . S
C1844 C1832 1.349 . S
C1844 H1838 0.950 . S
C1844 C1845 1.327 . S
C1845 H1839 0.950 . S
C1845 C1844 1.327 . S
C1845 C1849 1.429 . S
C1846 C1829 1.574 . S
C1846 H1840 0.949 . S
C1846 C1850 1.368 . S
C1847 C1828 1.429 . S
C1847 C1841 1.429 . S
C1847 C1848 1.523 . S
C1848 C1829 1.368 . S
C1848 C1842 1.368 . S
C1848 C1847 1.523 . S
C1849 C1833 1.429 . S
C1849 C1845 1.429 . S
C1849 C1850 1.523 . S
C1850 C1834 1.368 . S
C1850 C1846 1.368 . S
C1850 C1849 1.523 . S
H1851 C1826 0.950 . S
H1852 C1828 0.950 . S
H1853 C1829 0.949 . S
H1854 C1831 0.950 . S
H1855 C1833 0.950 . S
C1856 C1857 1.349 . S
C1856 C1858 1.327 . S
C1856 H1881 0.950 . S
C1857 C1856 1.349 . S
C1857 C1873 1.349 . S
C1858 C1856 1.327 . S
C1858 C1877 1.429 . S
C1858 H1882 0.950 . S
C1859 C1876 1.574 . S
C1859 C1878 1.368 . S
C1859 H1883 0.949 . S
H1860 C1864 0.949 . S
C1861 C1862 1.349 . S
C1861 C1863 1.327 . S
C1861 H1884 0.950 . S
C1862 C1861 1.349 . S
C1862 C1874 1.349 . S
C1863 C1861 1.327 . S
C1863 C1879 1.429 . S
C1863 H1885 0.950 . S
C1864 H1860 0.949 . S
C1864 C1872 1.574 . S
C1864 C1880 1.368 . S
H1865 C1873 0.950 . S
H1866 C1871 0.950 . S
H1867 C1872 0.949 . S
H1868 C1874 0.950 . S
H1869 C1875 0.950 . S
H1870 C1876 0.949 . S
C1871 H1866 0.950 . S
C1871 C1873 1.327 . S
C1871 C1877 1.429 . S
C1872 C1864 1.574 . S
C1872 H1867 0.949 . S
C1872 C1878 1.368 . S
C1873 C1857 1.349 . S
C1873 H1865 0.950 . S
C1873 C1871 1.327 . S
C1874 C1862 1.349 . S
C1874 H1868 0.950 . S
C1874 C1875 1.327 . S
C1875 H1869 0.950 . S
C1875 C1874 1.327 . S
C1875 C1879 1.429 . S
C1876 C1859 1.574 . S
C1876 H1870 0.949 . S
C1876 C1880 1.368 . S
C1877 C1858 1.429 . S
C1877 C1871 1.429 . S
C1877 C1878 1.523 . S
C1878 C1859 1.368 . S
C1878 C1872 1.368 . S
C1878 C1877 1.523 . S
C1879 C1863 1.429 . S
C1879 C1875 1.429 . S
C1879 C1880 1.523 . S
C1880 C1864 1.368 . S
C1880 C1876 1.368 . S
C1880 C1879 1.523 . S
H1881 C1856 0.950 . S
H1882 C1858 0.950 . S
H1883 C1859 0.949 . S
H1884 C1861 0.950 . S
H1885 C1863 0.950 . S
C1886 C1887 1.349 . S
C1886 C1888 1.327 . S
C1886 H1911 0.950 . S
C1887 C1886 1.349 . S
C1887 C1903 1.349 . S
C1888 C1886 1.327 . S
C1888 C1907 1.429 . S
C1888 H1912 0.950 . S
C1889 C1906 1.574 . S
C1889 C1908 1.368 . S
C1889 H1913 0.949 . S
H1890 C1894 0.949 . S
C1891 C1892 1.349 1_556 S
C1891 C1893 1.327 . S
C1891 H1914 0.950 1_556 S
C1892 C1891 1.349 1_554 S
C1892 C1904 1.349 1_554 S
C1893 C1891 1.327 . S
C1893 C1909 1.429 . S
C1893 H1915 0.950 . S
C1894 H1890 0.949 . S
C1894 C1902 1.574 . S
C1894 C1910 1.368 . S
H1895 C1903 0.950 . S
H1896 C1901 0.950 . S
H1897 C1902 0.949 . S
H1898 C1904 0.950 1_554 S
H1899 C1905 0.950 . S
H1900 C1906 0.949 . S
C1901 H1896 0.950 . S
C1901 C1903 1.327 . S
C1901 C1907 1.429 . S
C1902 C1894 1.574 . S
C1902 H1897 0.949 . S
C1902 C1908 1.368 . S
C1903 C1887 1.349 . S
C1903 H1895 0.950 . S
C1903 C1901 1.327 . S
C1904 C1892 1.349 1_556 S
C1904 H1898 0.950 1_556 S
C1904 C1905 1.327 . S
C1905 H1899 0.950 . S
C1905 C1904 1.327 . S
C1905 C1909 1.429 . S
C1906 C1889 1.574 . S
C1906 H1900 0.949 . S
C1906 C1910 1.368 . S
C1907 C1888 1.429 . S
C1907 C1901 1.429 . S
C1907 C1908 1.523 . S
C1908 C1889 1.368 . S
C1908 C1902 1.368 . S
C1908 C1907 1.523 . S
C1909 C1893 1.429 . S
C1909 C1905 1.429 . S
C1909 C1910 1.523 . S
C1910 C1894 1.368 . S
C1910 C1906 1.368 . S
C1910 C1909 1.523 . S
H1911 C1886 0.950 . S
H1912 C1888 0.950 . S
H1913 C1889 0.949 . S
H1914 C1891 0.950 1_554 S
H1915 C1893 0.950 . S
C1916 C1917 1.349 1_554 S
C1916 C1918 1.327 . S
C1916 H1941 0.950 1_554 S
C1917 C1916 1.349 1_556 S
C1917 C1933 1.349 1_556 S
C1918 C1916 1.327 . S
C1918 C1937 1.429 . S
C1918 H1942 0.950 . S
C1919 C1936 1.574 . S
C1919 C1938 1.368 . S
C1919 H1943 0.949 . S
H1920 C1924 0.949 . S
C1921 C1922 1.349 . S
C1921 C1923 1.327 . S
C1921 H1944 0.950 . S
C1922 C1921 1.349 . S
C1922 C1934 1.349 . S
C1923 C1921 1.327 . S
C1923 C1939 1.429 . S
C1923 H1945 0.950 . S
C1924 H1920 0.949 . S
C1924 C1932 1.574 . S
C1924 C1940 1.368 . S
H1925 C1933 0.950 1_556 S
H1926 C1931 0.950 . S
H1927 C1932 0.949 . S
H1928 C1934 0.950 . S
H1929 C1935 0.950 . S
H1930 C1936 0.949 . S
C1931 H1926 0.950 . S
C1931 C1933 1.327 . S
C1931 C1937 1.429 . S
C1932 C1924 1.574 . S
C1932 H1927 0.949 . S
C1932 C1938 1.368 . S
C1933 C1917 1.349 1_554 S
C1933 H1925 0.950 1_554 S
C1933 C1931 1.327 . S
C1934 C1922 1.349 . S
C1934 H1928 0.950 . S
C1934 C1935 1.327 . S
C1935 H1929 0.950 . S
C1935 C1934 1.327 . S
C1935 C1939 1.429 . S
C1936 C1919 1.574 . S
C1936 H1930 0.949 . S
C1936 C1940 1.368 . S
C1937 C1918 1.429 . S
C1937 C1931 1.429 . S
C1937 C1938 1.523 . S
C1938 C1919 1.368 . S
C1938 C1932 1.368 . S
C1938 C1937 1.523 . S
C1939 C1923 1.429 . S
C1939 C1935 1.429 . S
C1939 C1940 1.523 . S
C1940 C1924 1.368 . S
C1940 C1936 1.368 . S
C1940 C1939 1.523 . S
H1941 C1916 0.950 1_556 S
H1942 C1918 0.950 . S
H1943 C1919 0.949 . S
H1944 C1921 0.950 . S
H1945 C1923 0.950 . S
C1946 C1947 1.349 . S
C1946 C1948 1.327 . S
C1946 H1971 0.950 . S
C1947 C1946 1.349 . S
C1947 C1963 1.349 . S
C1948 C1946 1.327 . S
C1948 C1967 1.429 . S
C1948 H1972 0.950 . S
C1949 C1966 1.574 . S
C1949 C1968 1.368 . S
C1949 H1973 0.949 . S
H1950 C1954 0.949 . S
C1951 C1952 1.349 . S
C1951 C1953 1.327 . S
C1951 H1974 0.950 . S
C1952 C1951 1.349 . S
C1952 C1964 1.349 . S
C1953 C1951 1.327 . S
C1953 C1969 1.429 . S
C1953 H1975 0.950 . S
C1954 H1950 0.949 . S
C1954 C1962 1.574 . S
C1954 C1970 1.368 . S
H1955 C1963 0.950 . S
H1956 C1961 0.950 . S
H1957 C1962 0.949 . S
H1958 C1964 0.950 . S
H1959 C1965 0.950 . S
H1960 C1966 0.949 . S
C1961 H1956 0.950 . S
C1961 C1963 1.327 . S
C1961 C1967 1.429 . S
C1962 C1954 1.574 . S
C1962 H1957 0.949 . S
C1962 C1968 1.368 . S
C1963 C1947 1.349 . S
C1963 H1955 0.950 . S
C1963 C1961 1.327 . S
C1964 C1952 1.349 . S
C1964 H1958 0.950 . S
C1964 C1965 1.327 . S
C1965 H1959 0.950 . S
C1965 C1964 1.327 . S
C1965 C1969 1.429 . S
C1966 C1949 1.574 . S
C1966 H1960 0.949 . S
C1966 C1970 1.368 . S
C1967 C1948 1.429 . S
C1967 C1961 1.429 . S
C1967 C1968 1.523 . S
C1968 C1949 1.368 . S
C1968 C1962 1.368 . S
C1968 C1967 1.523 . S
C1969 C1953 1.429 . S
C1969 C1965 1.429 . S
C1969 C1970 1.523 . S
C1970 C1954 1.368 . S
C1970 C1966 1.368 . S
C1970 C1969 1.523 . S
H1971 C1946 0.950 . S
H1972 C1948 0.950 . S
H1973 C1949 0.949 . S
H1974 C1951 0.950 . S
H1975 C1953 0.950 . S
C1976 C1977 1.349 . S
C1976 C1978 1.327 . S
C1976 H2001 0.950 . S
C1977 C1976 1.349 . S
C1977 C1993 1.349 . S
C1978 C1976 1.327 . S
C1978 C1997 1.429 . S
C1978 H2002 0.950 . S
C1979 C1996 1.574 . S
C1979 C1998 1.368 . S
C1979 H2003 0.949 . S
H1980 C1984 0.949 . S
C1981 C1982 1.349 . S
C1981 C1983 1.327 . S
C1981 H2004 0.950 . S
C1982 C1981 1.349 . S
C1982 C1994 1.349 . S
C1983 C1981 1.327 . S
C1983 C1999 1.429 . S
C1983 H2005 0.950 . S
C1984 H1980 0.949 . S
C1984 C1992 1.574 . S
C1984 C2000 1.368 . S
H1985 C1993 0.950 . S
H1986 C1991 0.950 . S
H1987 C1992 0.949 . S
H1988 C1994 0.950 . S
H1989 C1995 0.950 . S
H1990 C1996 0.949 . S
C1991 H1986 0.950 . S
C1991 C1993 1.327 . S
C1991 C1997 1.429 . S
C1992 C1984 1.574 . S
C1992 H1987 0.949 . S
C1992 C1998 1.368 . S
C1993 C1977 1.349 . S
C1993 H1985 0.950 . S
C1993 C1991 1.327 . S
C1994 C1982 1.349 . S
C1994 H1988 0.950 . S
C1994 C1995 1.327 . S
C1995 H1989 0.950 . S
C1995 C1994 1.327 . S
C1995 C1999 1.429 . S
C1996 C1979 1.574 . S
C1996 H1990 0.949 . S
C1996 C2000 1.368 . S
C1997 C1978 1.429 . S
C1997 C1991 1.429 . S
C1997 C1998 1.523 . S
C1998 C1979 1.368 . S
C1998 C1992 1.368 . S
C1998 C1997 1.523 . S
C1999 C1983 1.429 . S
C1999 C1995 1.429 . S
C1999 C2000 1.523 . S
C2000 C1984 1.368 . S
C2000 C1996 1.368 . S
C2000 C1999 1.523 . S
H2001 C1976 0.950 . S
H2002 C1978 0.950 . S
H2003 C1979 0.949 . S
H2004 C1981 0.950 . S
H2005 C1983 0.950 . S
C2006 C2007 1.349 1_554 S
C2006 C2008 1.327 . S
C2006 H2031 0.950 1_554 S
C2007 C2006 1.349 1_556 S
C2007 C2023 1.349 1_556 S
C2008 C2006 1.327 . S
C2008 C2027 1.429 . S
C2008 H2032 0.950 . S
C2009 C2026 1.574 . S
C2009 C2028 1.368 . S
C2009 H2033 0.949 . S
H2010 C2014 0.949 . S
C2011 C2012 1.349 . S
C2011 C2013 1.327 . S
C2011 H2034 0.950 . S
C2012 C2011 1.349 . S
C2012 C2024 1.349 . S
C2013 C2011 1.327 . S
C2013 C2029 1.429 . S
C2013 H2035 0.950 . S
C2014 H2010 0.949 . S
C2014 C2022 1.574 . S
C2014 C2030 1.368 . S
H2015 C2023 0.950 1_556 S
H2016 C2021 0.950 . S
H2017 C2022 0.949 . S
H2018 C2024 0.950 . S
H2019 C2025 0.950 . S
H2020 C2026 0.949 . S
C2021 H2016 0.950 . S
C2021 C2023 1.327 . S
C2021 C2027 1.429 . S
C2022 C2014 1.574 . S
C2022 H2017 0.949 . S
C2022 C2028 1.368 . S
C2023 C2007 1.349 1_554 S
C2023 H2015 0.950 1_554 S
C2023 C2021 1.327 . S
C2024 C2012 1.349 . S
C2024 H2018 0.950 . S
C2024 C2025 1.327 . S
C2025 H2019 0.950 . S
C2025 C2024 1.327 . S
C2025 C2029 1.429 . S
C2026 C2009 1.574 . S
C2026 H2020 0.949 . S
C2026 C2030 1.368 . S
C2027 C2008 1.429 . S
C2027 C2021 1.429 . S
C2027 C2028 1.523 . S
C2028 C2009 1.368 . S
C2028 C2022 1.368 . S
C2028 C2027 1.523 . S
C2029 C2013 1.429 . S
C2029 C2025 1.429 . S
C2029 C2030 1.523 . S
C2030 C2014 1.368 . S
C2030 C2026 1.368 . S
C2030 C2029 1.523 . S
H2031 C2006 0.950 1_556 S
H2032 C2008 0.950 . S
H2033 C2009 0.949 . S
H2034 C2011 0.950 . S
H2035 C2013 0.950 . S
C2036 C2037 1.349 . S
C2036 C2038 1.327 . S
C2036 H2061 0.950 . S
C2037 C2036 1.349 . S
C2037 C2053 1.349 . S
C2038 C2036 1.327 . S
C2038 C2057 1.429 . S
C2038 H2062 0.950 . S
C2039 C2056 1.574 . S
C2039 C2058 1.368 . S
C2039 H2063 0.949 . S
H2040 C2044 0.949 . S
C2041 C2042 1.349 1_556 S
C2041 C2043 1.327 . S
C2041 H2064 0.950 1_556 S
C2042 C2041 1.349 1_554 S
C2042 C2054 1.349 1_554 S
C2043 C2041 1.327 . S
C2043 C2059 1.429 . S
C2043 H2065 0.950 . S
C2044 H2040 0.949 . S
C2044 C2052 1.574 . S
C2044 C2060 1.368 . S
H2045 C2053 0.950 . S
H2046 C2051 0.950 . S
H2047 C2052 0.949 . S
H2048 C2054 0.950 1_554 S
H2049 C2055 0.950 . S
H2050 C2056 0.949 . S
C2051 H2046 0.950 . S
C2051 C2053 1.327 . S
C2051 C2057 1.429 . S
C2052 C2044 1.574 . S
C2052 H2047 0.949 . S
C2052 C2058 1.368 . S
C2053 C2037 1.349 . S
C2053 H2045 0.950 . S
C2053 C2051 1.327 . S
C2054 C2042 1.349 1_556 S
C2054 H2048 0.950 1_556 S
C2054 C2055 1.327 . S
C2055 H2049 0.950 . S
C2055 C2054 1.327 . S
C2055 C2059 1.429 . S
C2056 C2039 1.574 . S
C2056 H2050 0.949 . S
C2056 C2060 1.368 . S
C2057 C2038 1.429 . S
C2057 C2051 1.429 . S
C2057 C2058 1.523 . S
C2058 C2039 1.368 . S
C2058 C2052 1.368 . S
C2058 C2057 1.523 . S
C2059 C2043 1.429 . S
C2059 C2055 1.429 . S
C2059 C2060 1.523 . S
C2060 C2044 1.368 . S
C2060 C2056 1.368 . S
C2060 C2059 1.523 . S
H2061 C2036 0.950 . S
H2062 C2038 0.950 . S
H2063 C2039 0.949 . S
H2064 C2041 0.950 1_554 S
H2065 C2043 0.950 . S
C2066 C2067 1.349 . S
C2066 C2068 1.327 . S
C2066 H2091 0.950 . S
C2067 C2066 1.349 . S
C2067 C2083 1.349 . S
C2068 C2066 1.327 . S
C2068 C2087 1.429 . S
C2068 H2092 0.950 . S
C2069 C2086 1.574 . S
C2069 C2088 1.368 . S
C2069 H2093 0.949 . S
H2070 C2074 0.949 . S
C2071 C2072 1.349 . S
C2071 C2073 1.327 . S
C2071 H2094 0.950 . S
C2072 C2071 1.349 . S
C2072 C2084 1.349 . S
C2073 C2071 1.327 . S
C2073 C2089 1.429 . S
C2073 H2095 0.950 . S
C2074 H2070 0.949 . S
C2074 C2082 1.574 . S
C2074 C2090 1.368 . S
H2075 C2083 0.950 . S
H2076 C2081 0.950 . S
H2077 C2082 0.949 . S
H2078 C2084 0.950 . S
H2079 C2085 0.950 . S
H2080 C2086 0.949 . S
C2081 H2076 0.950 . S
C2081 C2083 1.327 . S
C2081 C2087 1.429 . S
C2082 C2074 1.574 . S
C2082 H2077 0.949 . S
C2082 C2088 1.368 . S
C2083 C2067 1.349 . S
C2083 H2075 0.950 . S
C2083 C2081 1.327 . S
C2084 C2072 1.349 . S
C2084 H2078 0.950 . S
C2084 C2085 1.327 . S
C2085 H2079 0.950 . S
C2085 C2084 1.327 . S
C2085 C2089 1.429 . S
C2086 C2069 1.574 . S
C2086 H2080 0.949 . S
C2086 C2090 1.368 . S
C2087 C2068 1.429 . S
C2087 C2081 1.429 . S
C2087 C2088 1.523 . S
C2088 C2069 1.368 . S
C2088 C2082 1.368 . S
C2088 C2087 1.523 . S
C2089 C2073 1.429 . S
C2089 C2085 1.429 . S
C2089 C2090 1.523 . S
C2090 C2074 1.368 . S
C2090 C2086 1.368 . S
C2090 C2089 1.523 . S
H2091 C2066 0.950 . S
H2092 C2068 0.950 . S
H2093 C2069 0.949 . S
H2094 C2071 0.950 . S
H2095 C2073 0.950 . S
C2096 C2097 1.349 1_554 S
C2096 C2098 1.327 . S
C2096 H2121 0.950 1_554 S
C2097 C2096 1.349 1_556 S
C2097 C2113 1.349 1_556 S
C2098 C2096 1.327 . S
C2098 C2117 1.429 . S
C2098 H2122 0.950 . S
C2099 C2116 1.574 . S
C2099 C2118 1.368 . S
C2099 H2123 0.949 . S
H2100 C2104 0.949 . S
C2101 C2102 1.349 . S
C2101 C2103 1.327 . S
C2101 H2124 0.950 . S
C2102 C2101 1.349 . S
C2102 C2114 1.349 . S
C2103 C2101 1.327 . S
C2103 C2119 1.429 . S
C2103 H2125 0.950 . S
C2104 H2100 0.949 . S
C2104 C2112 1.574 . S
C2104 C2120 1.368 . S
H2105 C2113 0.950 1_556 S
H2106 C2111 0.950 . S
H2107 C2112 0.949 . S
H2108 C2114 0.950 . S
H2109 C2115 0.950 . S
H2110 C2116 0.949 . S
C2111 H2106 0.950 . S
C2111 C2113 1.327 . S
C2111 C2117 1.429 . S
C2112 C2104 1.574 . S
C2112 H2107 0.949 . S
C2112 C2118 1.368 . S
C2113 C2097 1.349 1_554 S
C2113 H2105 0.950 1_554 S
C2113 C2111 1.327 . S
C2114 C2102 1.349 . S
C2114 H2108 0.950 . S
C2114 C2115 1.327 . S
C2115 H2109 0.950 . S
C2115 C2114 1.327 . S
C2115 C2119 1.429 . S
C2116 C2099 1.574 . S
C2116 H2110 0.949 . S
C2116 C2120 1.368 . S
C2117 C2098 1.429 . S
C2117 C2111 1.429 . S
C2117 C2118 1.523 . S
C2118 C2099 1.368 . S
C2118 C2112 1.368 . S
C2118 C2117 1.523 . S
C2119 C2103 1.429 . S
C2119 C2115 1.429 . S
C2119 C2120 1.523 . S
C2120 C2104 1.368 . S
C2120 C2116 1.368 . S
C2120 C2119 1.523 . S
H2121 C2096 0.950 1_556 S
H2122 C2098 0.950 . S
H2123 C2099 0.949 . S
H2124 C2101 0.950 . S
H2125 C2103 0.950 . S
C2126 C2127 1.349 . S
C2126 C2128 1.327 . S
C2126 H2151 0.950 . S
C2127 C2126 1.349 . S
C2127 C2143 1.349 . S
C2128 C2126 1.327 . S
C2128 C2147 1.429 . S
C2128 H2152 0.950 . S
C2129 C2146 1.574 . S
C2129 C2148 1.368 . S
C2129 H2153 0.949 . S
H2130 C2134 0.949 . S
C2131 C2132 1.349 . S
C2131 C2133 1.327 . S
C2131 H2154 0.950 . S
C2132 C2131 1.349 . S
C2132 C2144 1.349 . S
C2133 C2131 1.327 . S
C2133 C2149 1.429 . S
C2133 H2155 0.950 . S
C2134 H2130 0.949 . S
C2134 C2142 1.574 . S
C2134 C2150 1.368 . S
H2135 C2143 0.950 . S
H2136 C2141 0.950 . S
H2137 C2142 0.949 . S
H2138 C2144 0.950 . S
H2139 C2145 0.950 . S
H2140 C2146 0.949 . S
C2141 H2136 0.950 . S
C2141 C2143 1.327 . S
C2141 C2147 1.429 . S
C2142 C2134 1.574 . S
C2142 H2137 0.949 . S
C2142 C2148 1.368 . S
C2143 C2127 1.349 . S
C2143 H2135 0.950 . S
C2143 C2141 1.327 . S
C2144 C2132 1.349 . S
C2144 H2138 0.950 . S
C2144 C2145 1.327 . S
C2145 H2139 0.950 . S
C2145 C2144 1.327 . S
C2145 C2149 1.429 . S
C2146 C2129 1.574 . S
C2146 H2140 0.949 . S
C2146 C2150 1.368 . S
C2147 C2128 1.429 . S
C2147 C2141 1.429 . S
C2147 C2148 1.523 . S
C2148 C2129 1.368 . S
C2148 C2142 1.368 . S
C2148 C2147 1.523 . S
C2149 C2133 1.429 . S
C2149 C2145 1.429 . S
C2149 C2150 1.523 . S
C2150 C2134 1.368 . S
C2150 C2146 1.368 . S
C2150 C2149 1.523 . S
H2151 C2126 0.950 . S
H2152 C2128 0.950 . S
H2153 C2129 0.949 . S
H2154 C2131 0.950 . S
H2155 C2133 0.950 . S
C2156 C2157 1.349 . S
C2156 C2158 1.327 . S
C2156 H2181 0.950 . S
C2157 C2156 1.349 . S
C2157 C2173 1.349 . S
C2158 C2156 1.327 . S
C2158 C2177 1.429 . S
C2158 H2182 0.950 . S
C2159 C2176 1.574 . S
C2159 C2178 1.368 . S
C2159 H2183 0.949 . S
H2160 C2164 0.949 . S
C2161 C2162 1.349 . S
C2161 C2163 1.327 . S
C2161 H2184 0.950 . S
C2162 C2161 1.349 . S
C2162 C2174 1.349 . S
C2163 C2161 1.327 . S
C2163 C2179 1.429 . S
C2163 H2185 0.950 . S
C2164 H2160 0.949 . S
C2164 C2172 1.574 . S
C2164 C2180 1.368 . S
H2165 C2173 0.950 . S
H2166 C2171 0.950 . S
H2167 C2172 0.949 . S
H2168 C2174 0.950 . S
H2169 C2175 0.950 . S
H2170 C2176 0.949 . S
C2171 H2166 0.950 . S
C2171 C2173 1.327 . S
C2171 C2177 1.429 . S
C2172 C2164 1.574 . S
C2172 H2167 0.949 . S
C2172 C2178 1.368 . S
C2173 C2157 1.349 . S
C2173 H2165 0.950 . S
C2173 C2171 1.327 . S
C2174 C2162 1.349 . S
C2174 H2168 0.950 . S
C2174 C2175 1.327 . S
C2175 H2169 0.950 . S
C2175 C2174 1.327 . S
C2175 C2179 1.429 . S
C2176 C2159 1.574 . S
C2176 H2170 0.949 . S
C2176 C2180 1.368 . S
C2177 C2158 1.429 . S
C2177 C2171 1.429 . S
C2177 C2178 1.523 . S
C2178 C2159 1.368 . S
C2178 C2172 1.368 . S
C2178 C2177 1.523 . S
C2179 C2163 1.429 . S
C2179 C2175 1.429 . S
C2179 C2180 1.523 . S
C2180 C2164 1.368 . S
C2180 C2176 1.368 . S
C2180 C2179 1.523 . S
H2181 C2156 0.950 . S
H2182 C2158 0.950 . S
H2183 C2159 0.949 . S
H2184 C2161 0.950 . S
H2185 C2163 0.950 . S
C2186 C2187 1.349 1_556 S
C2186 C2188 1.327 . S
C2186 H2211 0.950 1_556 S
C2187 C2186 1.349 1_554 S
C2187 C2203 1.349 1_554 S
C2188 C2186 1.327 . S
C2188 C2207 1.429 . S
C2188 H2212 0.950 . S
C2189 C2206 1.574 . S
C2189 C2208 1.368 . S
C2189 H2213 0.949 . S
H2190 C2194 0.949 . S
C2191 C2192 1.349 . S
C2191 C2193 1.327 . S
C2191 H2214 0.950 . S
C2192 C2191 1.349 . S
C2192 C2204 1.349 . S
C2193 C2191 1.327 . S
C2193 C2209 1.429 . S
C2193 H2215 0.950 . S
C2194 H2190 0.949 . S
C2194 C2202 1.574 . S
C2194 C2210 1.368 . S
H2195 C2203 0.950 1_554 S
H2196 C2201 0.950 . S
H2197 C2202 0.949 . S
H2198 C2204 0.950 . S
H2199 C2205 0.950 . S
H2200 C2206 0.949 . S
C2201 H2196 0.950 . S
C2201 C2203 1.327 . S
C2201 C2207 1.429 . S
C2202 C2194 1.574 . S
C2202 H2197 0.949 . S
C2202 C2208 1.368 . S
C2203 C2187 1.349 1_556 S
C2203 H2195 0.950 1_556 S
C2203 C2201 1.327 . S
C2204 C2192 1.349 . S
C2204 H2198 0.950 . S
C2204 C2205 1.327 . S
C2205 H2199 0.950 . S
C2205 C2204 1.327 . S
C2205 C2209 1.429 . S
C2206 C2189 1.574 . S
C2206 H2200 0.949 . S
C2206 C2210 1.368 . S
C2207 C2188 1.429 . S
C2207 C2201 1.429 . S
C2207 C2208 1.523 . S
C2208 C2189 1.368 . S
C2208 C2202 1.368 . S
C2208 C2207 1.523 . S
C2209 C2193 1.429 . S
C2209 C2205 1.429 . S
C2209 C2210 1.523 . S
C2210 C2194 1.368 . S
C2210 C2206 1.368 . S
C2210 C2209 1.523 . S
H2211 C2186 0.950 1_554 S
H2212 C2188 0.950 . S
H2213 C2189 0.949 . S
H2214 C2191 0.950 . S
H2215 C2193 0.950 . S
C2216 C2217 1.349 . S
C2216 C2218 1.327 . S
C2216 H2241 0.950 . S
C2217 C2216 1.349 . S
C2217 C2233 1.349 . S
C2218 C2216 1.327 . S
C2218 C2237 1.429 . S
C2218 H2242 0.950 . S
C2219 C2236 1.574 . S
C2219 C2238 1.368 . S
C2219 H2243 0.949 . S
H2220 C2224 0.949 . S
C2221 C2222 1.349 1_556 S
C2221 C2223 1.327 . S
C2221 H2244 0.950 1_556 S
C2222 C2221 1.349 1_554 S
C2222 C2234 1.349 1_554 S
C2223 C2221 1.327 . S
C2223 C2239 1.429 . S
C2223 H2245 0.950 . S
C2224 H2220 0.949 . S
C2224 C2232 1.574 . S
C2224 C2240 1.368 . S
H2225 C2233 0.950 . S
H2226 C2231 0.950 . S
H2227 C2232 0.949 . S
H2228 C2234 0.950 1_554 S
H2229 C2235 0.950 . S
H2230 C2236 0.949 . S
C2231 H2226 0.950 . S
C2231 C2233 1.327 . S
C2231 C2237 1.429 . S
C2232 C2224 1.574 . S
C2232 H2227 0.949 . S
C2232 C2238 1.368 . S
C2233 C2217 1.349 . S
C2233 H2225 0.950 . S
C2233 C2231 1.327 . S
C2234 C2222 1.349 1_556 S
C2234 H2228 0.950 1_556 S
C2234 C2235 1.327 . S
C2235 H2229 0.950 . S
C2235 C2234 1.327 . S
C2235 C2239 1.429 . S
C2236 C2219 1.574 . S
C2236 H2230 0.949 . S
C2236 C2240 1.368 . S
C2237 C2218 1.429 . S
C2237 C2231 1.429 . S
C2237 C2238 1.523 . S
C2238 C2219 1.368 . S
C2238 C2232 1.368 . S
C2238 C2237 1.523 . S
C2239 C2223 1.429 . S
C2239 C2235 1.429 . S
C2239 C2240 1.523 . S
C2240 C2224 1.368 . S
C2240 C2236 1.368 . S
C2240 C2239 1.523 . S
H2241 C2216 0.950 . S
H2242 C2218 0.950 . S
H2243 C2219 0.949 . S
H2244 C2221 0.950 1_554 S
H2245 C2223 0.950 . S
C2246 C2247 1.349 . S
C2246 C2248 1.327 . S
C2246 H2271 0.950 . S
C2247 C2246 1.349 . S
C2247 C2263 1.349 . S
C2248 C2246 1.327 . S
C2248 C2267 1.429 . S
C2248 H2272 0.950 . S
C2249 C2266 1.574 . S
C2249 C2268 1.368 . S
C2249 H2273 0.949 . S
H2250 C2254 0.949 . S
C2251 C2252 1.349 . S
C2251 C2253 1.327 . S
C2251 H2274 0.950 . S
C2252 C2251 1.349 . S
C2252 C2264 1.349 . S
C2253 C2251 1.327 . S
C2253 C2269 1.429 . S
C2253 H2275 0.950 . S
C2254 H2250 0.949 . S
C2254 C2262 1.574 . S
C2254 C2270 1.368 . S
H2255 C2263 0.950 . S
H2256 C2261 0.950 . S
H2257 C2262 0.949 . S
H2258 C2264 0.950 . S
H2259 C2265 0.950 . S
H2260 C2266 0.949 . S
C2261 H2256 0.950 . S
C2261 C2263 1.327 . S
C2261 C2267 1.429 . S
C2262 C2254 1.574 . S
C2262 H2257 0.949 . S
C2262 C2268 1.368 . S
C2263 C2247 1.349 . S
C2263 H2255 0.950 . S
C2263 C2261 1.327 . S
C2264 C2252 1.349 . S
C2264 H2258 0.950 . S
C2264 C2265 1.327 . S
C2265 H2259 0.950 . S
C2265 C2264 1.327 . S
C2265 C2269 1.429 . S
C2266 C2249 1.574 . S
C2266 H2260 0.949 . S
C2266 C2270 1.368 . S
C2267 C2248 1.429 . S
C2267 C2261 1.429 . S
C2267 C2268 1.523 . S
C2268 C2249 1.368 . S
C2268 C2262 1.368 . S
C2268 C2267 1.523 . S
C2269 C2253 1.429 . S
C2269 C2265 1.429 . S
C2269 C2270 1.523 . S
C2270 C2254 1.368 . S
C2270 C2266 1.368 . S
C2270 C2269 1.523 . S
H2271 C2246 0.950 . S
H2272 C2248 0.950 . S
H2273 C2249 0.949 . S
H2274 C2251 0.950 . S
H2275 C2253 0.950 . S
C2276 C2277 1.349 . S
C2276 C2278 1.327 . S
C2276 H2301 0.950 . S
C2277 C2276 1.349 . S
C2277 C2293 1.349 . S
C2278 C2276 1.327 . S
C2278 C2297 1.429 . S
C2278 H2302 0.950 . S
C2279 C2296 1.574 . S
C2279 C2298 1.368 . S
C2279 H2303 0.949 . S
H2280 C2284 0.949 . S
C2281 C2282 1.349 . S
C2281 C2283 1.327 . S
C2281 H2304 0.950 . S
C2282 C2281 1.349 . S
C2282 C2294 1.349 . S
C2283 C2281 1.327 . S
C2283 C2299 1.429 . S
C2283 H2305 0.950 . S
C2284 H2280 0.949 . S
C2284 C2292 1.574 . S
C2284 C2300 1.368 . S
H2285 C2293 0.950 . S
H2286 C2291 0.950 . S
H2287 C2292 0.949 . S
H2288 C2294 0.950 . S
H2289 C2295 0.950 . S
H2290 C2296 0.949 . S
C2291 H2286 0.950 . S
C2291 C2293 1.327 . S
C2291 C2297 1.429 . S
C2292 C2284 1.574 . S
C2292 H2287 0.949 . S
C2292 C2298 1.368 . S
C2293 C2277 1.349 . S
C2293 H2285 0.950 . S
C2293 C2291 1.327 . S
C2294 C2282 1.349 . S
C2294 H2288 0.950 . S
C2294 C2295 1.327 . S
C2295 H2289 0.950 . S
C2295 C2294 1.327 . S
C2295 C2299 1.429 . S
C2296 C2279 1.574 . S
C2296 H2290 0.949 . S
C2296 C2300 1.368 . S
C2297 C2278 1.429 . S
C2297 C2291 1.429 . S
C2297 C2298 1.523 . S
C2298 C2279 1.368 . S
C2298 C2292 1.368 . S
C2298 C2297 1.523 . S
C2299 C2283 1.429 . S
C2299 C2295 1.429 . S
C2299 C2300 1.523 . S
C2300 C2284 1.368 . S
C2300 C2296 1.368 . S
C2300 C2299 1.523 . S
H2301 C2276 0.950 . S
H2302 C2278 0.950 . S
H2303 C2279 0.949 . S
H2304 C2281 0.950 . S
H2305 C2283 0.950 . S
C2306 C2307 1.349 . S
C2306 C2308 1.327 . S
C2306 H2331 0.950 . S
C2307 C2306 1.349 . S
C2307 C2323 1.349 . S
C2308 C2306 1.327 . S
C2308 C2327 1.429 . S
C2308 H2332 0.950 . S
C2309 C2326 1.574 . S
C2309 C2328 1.368 . S
C2309 H2333 0.949 . S
H2310 C2314 0.949 . S
C2311 C2312 1.349 1_554 S
C2311 C2313 1.327 . S
C2311 H2334 0.950 1_554 S
C2312 C2311 1.349 1_556 S
C2312 C2324 1.349 1_556 S
C2313 C2311 1.327 . S
C2313 C2329 1.429 . S
C2313 H2335 0.950 . S
C2314 H2310 0.949 . S
C2314 C2322 1.574 . S
C2314 C2330 1.368 . S
H2315 C2323 0.950 . S
H2316 C2321 0.950 . S
H2317 C2322 0.949 . S
H2318 C2324 0.950 1_556 S
H2319 C2325 0.950 . S
H2320 C2326 0.949 . S
C2321 H2316 0.950 . S
C2321 C2323 1.327 . S
C2321 C2327 1.429 . S
C2322 C2314 1.574 . S
C2322 H2317 0.949 . S
C2322 C2328 1.368 . S
C2323 C2307 1.349 . S
C2323 H2315 0.950 . S
C2323 C2321 1.327 . S
C2324 C2312 1.349 1_554 S
C2324 H2318 0.950 1_554 S
C2324 C2325 1.327 . S
C2325 H2319 0.950 . S
C2325 C2324 1.327 . S
C2325 C2329 1.429 . S
C2326 C2309 1.574 . S
C2326 H2320 0.949 . S
C2326 C2330 1.368 . S
C2327 C2308 1.429 . S
C2327 C2321 1.429 . S
C2327 C2328 1.523 . S
C2328 C2309 1.368 . S
C2328 C2322 1.368 . S
C2328 C2327 1.523 . S
C2329 C2313 1.429 . S
C2329 C2325 1.429 . S
C2329 C2330 1.523 . S
C2330 C2314 1.368 . S
C2330 C2326 1.368 . S
C2330 C2329 1.523 . S
H2331 C2306 0.950 . S
H2332 C2308 0.950 . S
H2333 C2309 0.949 . S
H2334 C2311 0.950 1_556 S
H2335 C2313 0.950 . S
C417 C0 1.191 . S
C422 C52 1.191 . S
C447 C13 1.191 . S
C452 C65 1.191 . S
C477 C78 1.191 . S
C482 C26 1.191 . S
C507 C91 1.191 . S
C512 C39 1.191 . S
C537 C104 1.191 . S
C542 C156 1.191 . S
C567 C117 1.191 . S
C572 C169 1.191 . S
C597 C182 1.191 . S
C602 C130 1.191 . S
C627 C143 1.191 . S
C632 C195 1.191 . S
C657 C260 1.191 . S
C662 C208 1.191 . S
C687 C273 1.191 . S
C692 C221 1.191 . S
C717 C234 1.191 . S
C722 C286 1.191 . S
C747 C299 1.191 . S
C752 C247 1.191 . S
C777 C312 1.191 . S
C782 C364 1.191 . S
C807 C377 1.191 . S
C812 C325 1.191 . S
C837 C390 1.191 . S
C842 C338 1.191 . S
C867 C351 1.191 . S
C872 C403 1.191 . S
C897 C5 1.368 . S
C902 C359 1.408 . S
C927 C112 1.408 . S
C932 C18 1.368 . S
C957 C31 1.368 . S
C962 C333 1.408 . S
C987 C44 1.368 . S
C992 C138 1.408 . S
C1017 C385 1.408 . S
C1022 C57 1.368 . S
C1047 C190 1.408 . S
C1052 C70 1.368 . S
C1077 C83 1.368 . S
C1082 C411 1.408 . S
C1107 C96 1.368 . S
C1112 C164 1.408 . S
C1137 C255 1.408 . S
C1142 C109 1.368 . S
C1167 C122 1.368 . S
C1172 C8 1.408 . S
C1197 C229 1.408 . S
C1202 C135 1.368 . S
C1227 C148 1.368 . S
C1232 C34 1.408 . S
C1257 C281 1.408 . S
C1262 C161 1.368 . S
C1287 C174 1.368 . S
C1292 C86 1.408 . S
C1317 C307 1.408 . S
C1322 C187 1.368 . S
C1347 C200 1.368 . S
C1352 C60 1.408 . S
C1377 C151 1.408 . S
C1382 C213 1.368 . S
C1407 C320 1.408 . S
C1412 C226 1.368 . S
C1437 C125 1.408 . S
C1442 C239 1.368 . S
C1467 C252 1.368 . S
C1472 C346 1.408 . S
C1497 C177 1.408 . S
C1502 C265 1.368 . S
C1527 C398 1.408 . S
C1532 C278 1.368 . S
C1557 C203 1.408 . S
C1562 C291 1.368 . S
C1587 C304 1.368 . S
C1592 C372 1.408 . S
C1617 C317 1.368 . S
C1622 C47 1.408 . S
C1647 C330 1.368 . S
C1652 C216 1.408 . S
C1677 C343 1.368 . S
C1682 C21 1.408 . S
C1707 C356 1.368 . S
C1712 C242 1.408 . S
C1737 C369 1.368 . S
C1742 C73 1.408 . S
C1767 C294 1.408 . S
C1772 C382 1.368 . S
C1797 C99 1.408 . S
C1802 C395 1.368 . S
C1827 C408 1.368 . S
C1832 C268 1.408 . S
C1857 C10 1.056 . S
C1862 C101 1.056 . S
C1887 C23 1.056 . S
C1892 C62 1.056 . S
C1917 C36 1.056 . S
C1922 C75 1.056 . S
C1947 C88 1.056 . S
C1952 C49 1.056 . S
C1977 C205 1.056 . S
C1982 C114 1.056 . S
C2007 C166 1.056 . S
C2012 C127 1.056 . S
C2037 C179 1.056 . S
C2042 C140 1.056 . S
C2067 C192 1.056 . S
C2072 C153 1.056 . S
C2097 C218 1.056 . S
C2102 C309 1.056 . S
C2127 C270 1.056 . S
C2132 C231 1.056 . S
C2157 C283 1.056 . S
C2162 C244 1.056 . S
C2187 C296 1.056 . S
C2192 C257 1.056 . S
C2217 C413 1.056 . S
C2222 C322 1.056 . S
C2247 C335 1.056 . S
C2252 C374 1.056 . S
C2277 C348 1.056 . S
C2282 C387 1.056 . S
C2307 C361 1.056 . S
C2312 C400 1.056 . S
