# Generated by pormake.
# Topology mon, (4)-cn, num edge types: 1
# Building blocks:
#     Node 0, Type 0, BuildingBlock: ICAMEG_clean_sbu_1, # of connection points: 4
#     Node 1, Type 0, BuildingBlock: ICAMEG_clean_sbu_1, # of connection points: 4
#     Node 2, Type 0, BuildingBlock: ICAMEG_clean_sbu_1, # of connection points: 4
#     Node 3, Type 0, BuildingBlock: ICAMEG_clean_sbu_1, # of connection points: 4
#     Node 4, Type 0, BuildingBlock: ICAMEG_clean_sbu_1, # of connection points: 4
#     Node 5, Type 0, BuildingBlock: ICAMEG_clean_sbu_1, # of connection points: 4
#     Node 6, Type 0, BuildingBlock: ICAMEG_clean_sbu_1, # of connection points: 4
#     Node 7, Type 0, BuildingBlock: ICAMEG_clean_sbu_1, # of connection points: 4
#     Node 8, Type 0, BuildingBlock: ICAMEG_clean_sbu_1, # of connection points: 4
#     Node 9, Type 0, BuildingBlock: ICAMEG_clean_sbu_1, # of connection points: 4
#     Node 10, Type 0, BuildingBlock: ICAMEG_clean_sbu_1, # of connection points: 4
#     Node 11, Type 0, BuildingBlock: ICAMEG_clean_sbu_1, # of connection points: 4
#     Node 12, Type 0, BuildingBlock: ICAMEG_clean_sbu_1, # of connection points: 4
#     Node 13, Type 0, BuildingBlock: ICAMEG_clean_sbu_1, # of connection points: 4
#     Node 14, Type 0, BuildingBlock: ICAMEG_clean_sbu_1, # of connection points: 4
#     Node 15, Type 0, BuildingBlock: ICAMEG_clean_sbu_1, # of connection points: 4
#     Edge 16, Type (0, 0), BuildingBlock: MIFKUJ_clean_linker_0, # of connection points: 2
#     Edge 17, Type (0, 0), BuildingBlock: MIFKUJ_clean_linker_0, # of connection points: 2
#     Edge 18, Type (0, 0), BuildingBlock: MIFKUJ_clean_linker_0, # of connection points: 2
#     Edge 19, Type (0, 0), BuildingBlock: MIFKUJ_clean_linker_0, # of connection points: 2
#     Edge 20, Type (0, 0), BuildingBlock: MIFKUJ_clean_linker_0, # of connection points: 2
#     Edge 21, Type (0, 0), BuildingBlock: MIFKUJ_clean_linker_0, # of connection points: 2
#     Edge 22, Type (0, 0), BuildingBlock: MIFKUJ_clean_linker_0, # of connection points: 2
#     Edge 23, Type (0, 0), BuildingBlock: MIFKUJ_clean_linker_0, # of connection points: 2
#     Edge 24, Type (0, 0), BuildingBlock: MIFKUJ_clean_linker_0, # of connection points: 2
#     Edge 25, Type (0, 0), BuildingBlock: MIFKUJ_clean_linker_0, # of connection points: 2
#     Edge 26, Type (0, 0), BuildingBlock: MIFKUJ_clean_linker_0, # of connection points: 2
#     Edge 27, Type (0, 0), BuildingBlock: MIFKUJ_clean_linker_0, # of connection points: 2
#     Edge 28, Type (0, 0), BuildingBlock: MIFKUJ_clean_linker_0, # of connection points: 2
#     Edge 29, Type (0, 0), BuildingBlock: MIFKUJ_clean_linker_0, # of connection points: 2
#     Edge 30, Type (0, 0), BuildingBlock: MIFKUJ_clean_linker_0, # of connection points: 2
#     Edge 31, Type (0, 0), BuildingBlock: MIFKUJ_clean_linker_0, # of connection points: 2
#     Edge 32, Type (0, 0), BuildingBlock: MIFKUJ_clean_linker_0, # of connection points: 2
#     Edge 33, Type (0, 0), BuildingBlock: MIFKUJ_clean_linker_0, # of connection points: 2
#     Edge 34, Type (0, 0), BuildingBlock: MIFKUJ_clean_linker_0, # of connection points: 2
#     Edge 35, Type (0, 0), BuildingBlock: MIFKUJ_clean_linker_0, # of connection points: 2
#     Edge 36, Type (0, 0), BuildingBlock: MIFKUJ_clean_linker_0, # of connection points: 2
#     Edge 37, Type (0, 0), BuildingBlock: MIFKUJ_clean_linker_0, # of connection points: 2
#     Edge 38, Type (0, 0), BuildingBlock: MIFKUJ_clean_linker_0, # of connection points: 2
#     Edge 39, Type (0, 0), BuildingBlock: MIFKUJ_clean_linker_0, # of connection points: 2
#     Edge 40, Type (0, 0), BuildingBlock: MIFKUJ_clean_linker_0, # of connection points: 2
#     Edge 41, Type (0, 0), BuildingBlock: MIFKUJ_clean_linker_0, # of connection points: 2
#     Edge 42, Type (0, 0), BuildingBlock: MIFKUJ_clean_linker_0, # of connection points: 2
#     Edge 43, Type (0, 0), BuildingBlock: MIFKUJ_clean_linker_0, # of connection points: 2
#     Edge 44, Type (0, 0), BuildingBlock: MIFKUJ_clean_linker_0, # of connection points: 2
#     Edge 45, Type (0, 0), BuildingBlock: MIFKUJ_clean_linker_0, # of connection points: 2
#     Edge 46, Type (0, 0), BuildingBlock: MIFKUJ_clean_linker_0, # of connection points: 2
#     Edge 47, Type (0, 0), BuildingBlock: MIFKUJ_clean_linker_0, # of connection points: 2
# Relax obj value: 0.220
# Max RMSD: 0.232
# Mean RMSD: 0.232
data_MOF--net-mon--node1-ICAMEG_clean_sbu_1--edge1-MIFKUJ_clean_linker_0
_symmetry_space_group_name_H-M    P1
_symmetry_Int_Tables_number       1
_symmetry_cell_setting            triclinic
loop_
_symmetry_equiv_pos_as_xyz
'x, y, z'
_cell_length_a     44.190408
_cell_length_b     44.191265
_cell_length_c     122.03918
_cell_angle_alpha  89.988256
_cell_angle_beta   89.982221
_cell_angle_gamma 89.99729
loop_
_atom_site_label
_atom_site_type_symbol
_atom_site_fract_x
_atom_site_fract_y
_atom_site_fract_z
_atom_type_partial_charge
Co0 Co 0.00308 0.9842 0.57908 0.0
Co1 Co 0.01312 0.03808 0.59886 0.0
O2 O 0.01134 0.02637 0.58332 0.0
C3 C 0.04857 0.00743 0.56256 0.0
O4 O 0.05562 0.0303 0.56889 0.0
C5 C 0.98666 0.09209 0.58687 0.0
O6 O 0.982 0.07583 0.57804 0.0
O7 O 0.97111 0.02251 0.60099 0.0
O8 O 0.97656 0.97824 0.59225 0.0
H9 H 0.99821 0.02044 0.63919 0.0
H10 H 0.99199 0.03214 0.56238 0.0
O11 O 0.02914 0.98787 0.56562 0.0
H12 H 0.8938 0.98105 0.56741 0.0
H13 H 0.98053 0.89959 0.55265 0.0
H14 H 1.00034 0.92606 0.59125 0.0
H15 H 0.9385 0.96473 0.5779 0.0
H16 H 0.98977 0.95256 0.55799 0.0
O17 O 0.99693 0.07982 0.59556 0.0
H18 H 0.9972 0.00689 0.6196 0.0
H19 H 0.03122 0.09376 0.61116 0.0
H20 H 0.99098 0.87282 0.58627 0.0
H21 H 0.94803 0.04873 0.55154 0.0
H22 H 0.98097 0.85928 0.56685 0.0
H23 H 0.89843 0.0232 0.55404 0.0
O24 O 0.03868 0.97068 0.58771 0.0
H25 H 0.09552 0.09592 0.57947 0.0
H26 H 0.07131 0.03033 0.61094 0.0
H27 H 0.12358 0.04833 0.60839 0.0
H28 H 0.13599 0.08154 0.59259 0.0
H29 H 0.0437 0.07737 0.58229 0.0
H30 H 0.03229 0.10832 0.63065 0.0
H31 H 0.01584 0.07149 0.64483 0.0
O32 O 0.03015 0.9974 0.60298 0.0
C33 C 0.96287 0.99536 0.59905 0.0
C34 C 0.00548 0.03668 0.63309 0.0
C35 C 0.02457 0.08601 0.6283 0.0
N36 N 0.01424 0.04944 0.61423 0.0
C37 C 0.005 0.02912 0.62198 0.0
C38 C 0.02381 0.07765 0.61726 0.0
C39 C 0.01535 0.06533 0.63625 0.0
C40 C 0.97063 0.02069 0.56346 0.0
N41 N 0.96796 0.99744 0.57077 0.0
C42 C 0.94574 0.03029 0.55732 0.0
C43 C 0.91791 0.01599 0.55874 0.0
C44 C 0.91529 0.99237 0.56624 0.0
C45 C 0.94069 0.98335 0.57221 0.0
C46 C 0.98482 0.9052 0.56115 0.0
C47 C 0.99587 0.9204 0.58279 0.0
C48 C 0.99015 0.93516 0.56422 0.0
N49 N 0.99544 0.94246 0.57494 0.0
C50 C 0.99065 0.89019 0.58001 0.0
C51 C 0.98506 0.8826 0.56911 0.0
C52 C 0.04277 0.97549 0.5979 0.0
C53 C 0.09038 0.08167 0.58644 0.0
C54 C 0.07647 0.04463 0.604 0.0
C55 C 0.10614 0.05485 0.60263 0.0
C56 C 0.11308 0.0735 0.59378 0.0
N57 N 0.05423 0.05284 0.5968 0.0
C58 C 0.06093 0.07117 0.58811 0.0
Co59 Co 0.29222 0.73433 0.82962 0.0
Co60 Co 0.23708 0.76171 0.84653 0.0
O61 O 0.2516 0.75089 0.83188 0.0
C62 C 0.28708 0.78252 0.81262 0.0
O63 O 0.27592 0.80083 0.82005 0.0
C64 C 0.17566 0.73462 0.84673 0.0
O65 O 0.18426 0.71912 0.85537 0.0
O66 O 0.24455 0.7193 0.85151 0.0
O67 O 0.29021 0.71157 0.84382 0.0
H68 H 0.23993 0.76226 0.88771 0.0
H69 H 0.24544 0.72657 0.81242 0.0
O70 O 0.2951 0.7558 0.81521 0.0
H71 H 0.27837 0.62322 0.82197 0.0
H72 H 0.37727 0.69001 0.80729 0.0
H73 H 0.34612 0.72642 0.84379 0.0
H74 H 0.3009 0.66747 0.83115 0.0
H75 H 0.32542 0.70882 0.8104 0.0
O76 O 0.19473 0.75129 0.84171 0.0
H77 H 0.25796 0.74933 0.86917 0.0
H78 H 0.1839 0.79649 0.85504 0.0
H79 H 0.39826 0.70806 0.84101 0.0
H80 H 0.2224 0.68289 0.80298 0.0
H81 H 0.4141 0.6896 0.82266 0.0
H82 H 0.23891 0.63079 0.80772 0.0
O83 O 0.31025 0.76987 0.83723 0.0
H84 H 0.19934 0.84137 0.82049 0.0
H85 H 0.25376 0.82287 0.85512 0.0
H86 H 0.24668 0.87521 0.84865 0.0
H87 H 0.21919 0.88476 0.83124 0.0
H88 H 0.20734 0.78932 0.82716 0.0
H89 H 0.16498 0.80985 0.87342 0.0
H90 H 0.19311 0.79276 0.88992 0.0
O91 O 0.27881 0.77298 0.85158 0.0
C92 C 0.26919 0.70444 0.85052 0.0
C93 C 0.22748 0.76985 0.88058 0.0
C94 C 0.18542 0.79656 0.87257 0.0
N95 N 0.22206 0.77213 0.86102 0.0
C96 C 0.23759 0.76259 0.87006 0.0
C97 C 0.19624 0.7889 0.86218 0.0
C98 C 0.20121 0.78696 0.88182 0.0
C99 C 0.25279 0.70396 0.8145 0.0
N100 N 0.27456 0.6996 0.82229 0.0
C101 C 0.23965 0.67932 0.80914 0.0
C102 C 0.24889 0.65008 0.81182 0.0
C103 C 0.27101 0.64581 0.81981 0.0
C104 C 0.28363 0.67097 0.825 0.0
C105 C 0.37063 0.69798 0.81533 0.0
C106 C 0.35283 0.71842 0.83578 0.0
C107 C 0.34131 0.70867 0.81714 0.0
N108 N 0.33271 0.71859 0.82728 0.0
C109 C 0.38242 0.70813 0.83425 0.0
C110 C 0.39129 0.69777 0.82395 0.0
C111 C 0.30393 0.77891 0.84689 0.0
C112 C 0.21125 0.83751 0.82811 0.0
C113 C 0.24196 0.82677 0.84749 0.0
C114 C 0.23791 0.8565 0.84389 0.0
C115 C 0.22245 0.86184 0.83413 0.0
N116 N 0.23085 0.803 0.84155 0.0
C117 C 0.2157 0.80808 0.83196 0.0
Co118 Co 0.5191 0.03094 0.07596 0.0
Co119 Co 0.50781 0.97634 0.09524 0.0
O120 O 0.50893 0.98912 0.07985 0.0
C121 C 0.47232 0.01086 0.05932 0.0
O122 O 0.46491 0.98742 0.06533 0.0
C123 C 0.54067 0.91753 0.09451 0.0
O124 O 0.55927 0.92837 0.10194 0.0
O125 O 0.55101 0.98904 0.09694 0.0
O126 O 0.54727 0.03421 0.08876 0.0
H127 H 0.53027 0.98684 0.13543 0.0
H128 H 0.52673 0.9813 0.05971 0.0
O129 O 0.49191 0.02983 0.06271 0.0
H130 H 0.62695 0.02958 0.06259 0.0
H131 H 0.54388 0.11681 0.05029 0.0
H132 H 0.52554 0.08769 0.08873 0.0
H133 H 0.584 0.04836 0.07353 0.0
H134 H 0.5325 0.06383 0.0551 0.0
O135 O 0.52027 0.93456 0.09044 0.0
H136 H 0.52981 1.00282 0.11608 0.0
H137 H 0.48463 0.92167 0.1071 0.0
H138 H 0.5371 0.14086 0.08429 0.0
H139 H 0.56893 0.96206 0.04852 0.0
H140 H 0.54637 0.15573 0.06494 0.0
H141 H 0.61953 0.98623 0.04992 0.0
O142 O 0.48503 0.04555 0.08525 0.0
H143 H 0.42057 0.92431 0.07662 0.0
H144 H 0.45097 0.98825 0.10783 0.0
H145 H 0.39739 0.97428 0.1056 0.0
H146 H 0.38186 0.94195 0.08993 0.0
H147 H 0.47387 0.93932 0.07904 0.0
H148 H 0.48451 0.90489 0.12637 0.0
H149 H 0.50751 0.93754 0.14069 0.0
O150 O 0.49432 0.0176 0.10021 0.0
C151 C 0.5609 0.01572 0.0951 0.0
C152 C 0.52019 0.97241 0.12927 0.0
C153 C 0.49452 0.9264 0.12418 0.0
N154 N 0.50725 0.96321 0.11045 0.0
C155 C 0.51987 0.98132 0.11829 0.0
C156 C 0.49464 0.93605 0.11328 0.0
C157 C 0.50742 0.94474 0.13221 0.0
C158 C 0.5485 0.99224 0.06027 0.0
N159 N 0.55265 0.01631 0.06713 0.0
C160 C 0.5724 0.98111 0.05396 0.0
C161 C 0.60079 0.99464 0.05476 0.0
C162 C 0.60497 0.01896 0.06186 0.0
C163 C 0.58054 0.02948 0.06804 0.0
C164 C 0.53994 0.1106 0.05875 0.0
C165 C 0.52971 0.09392 0.0803 0.0
C166 C 0.53341 0.08064 0.06153 0.0
N167 N 0.52858 0.07259 0.07221 0.0
C168 C 0.53618 0.12409 0.07783 0.0
C169 C 0.54134 0.13242 0.06698 0.0
C170 C 0.48196 0.04029 0.09549 0.0
C171 C 0.42705 0.93841 0.08348 0.0
C172 C 0.44442 0.97453 0.1009 0.0
C173 C 0.41402 0.96652 0.09972 0.0
C174 C 0.40534 0.94834 0.09094 0.0
N175 N 0.46561 0.96478 0.09352 0.0
C176 C 0.45724 0.9469 0.08492 0.0
Co177 Co 0.25302 0.25999 0.33139 0.0
Co178 Co 0.29873 0.249 0.3536 0.0
O179 O 0.2926 0.24938 0.33761 0.0
C180 C 0.27881 0.2122 0.31604 0.0
O181 O 0.30259 0.20775 0.32226 0.0
C182 C 0.35586 0.2762 0.3444 0.0
O183 O 0.34028 0.29068 0.3369 0.0
O184 O 0.2864 0.29236 0.3544 0.0
O185 O 0.24568 0.2899 0.3435 0.0
H186 H 0.2709 0.27231 0.39263 0.0
H187 H 0.30862 0.26493 0.31752 0.0
O188 O 0.25827 0.2309 0.31885 0.0
H189 H 0.26116 0.36571 0.31623 0.0
H190 H 0.17845 0.28237 0.30119 0.0
H191 H 0.19231 0.27012 0.34104 0.0
H192 H 0.23824 0.32474 0.3271 0.0
H193 H 0.22879 0.27072 0.30882 0.0
O194 O 0.34233 0.26047 0.35164 0.0
H195 H 0.2634 0.27138 0.37262 0.0
H196 H 0.34797 0.22717 0.3684 0.0
H197 H 0.1417 0.28223 0.33376 0.0
H198 H 0.33186 0.30496 0.30636 0.0
H199 H 0.13454 0.28842 0.31369 0.0
H200 H 0.30818 0.35589 0.30566 0.0
O201 O 0.23392 0.22711 0.34015 0.0
H202 H 0.35567 0.16015 0.33821 0.0
H203 H 0.28128 0.19306 0.36586 0.0
H204 H 0.2953 0.13918 0.3647 0.0
H205 H 0.33287 0.12241 0.35083 0.0
H206 H 0.34093 0.21376 0.3396 0.0
H207 H 0.35648 0.22784 0.38836 0.0
H208 H 0.31773 0.25043 0.40063 0.0
O209 O 0.25572 0.23649 0.35632 0.0
C210 C 0.26135 0.30307 0.35089 0.0
C211 C 0.28794 0.26236 0.38737 0.0
C212 C 0.33598 0.23744 0.38497 0.0
N213 N 0.30517 0.24918 0.36933 0.0
C214 C 0.2838 0.26173 0.37603 0.0
C215 C 0.33108 0.23723 0.37367 0.0
C216 C 0.31422 0.25011 0.39185 0.0
C217 C 0.29778 0.28672 0.31714 0.0
N218 N 0.27174 0.29215 0.32285 0.0
C219 C 0.31124 0.30947 0.31086 0.0
C220 C 0.29799 0.33805 0.31049 0.0
C221 C 0.27164 0.34358 0.31643 0.0
C222 C 0.25882 0.32027 0.32261 0.0
C223 C 0.18133 0.27982 0.30995 0.0
C224 C 0.18943 0.27298 0.33231 0.0
C225 C 0.20976 0.2731 0.31432 0.0
N226 N 0.21355 0.26991 0.32539 0.0
C227 C 0.1607 0.27976 0.32823 0.0
C228 C 0.15669 0.2832 0.31697 0.0
C229 C 0.23521 0.22403 0.35052 0.0
C230 C 0.33937 0.16718 0.34431 0.0
C231 C 0.29745 0.18595 0.35973 0.0
C232 C 0.3054 0.1554 0.35915 0.0
C233 C 0.32651 0.14601 0.35138 0.0
N234 N 0.31017 0.2066 0.35277 0.0
C235 C 0.33092 0.19754 0.34515 0.0
Co236 Co 0.98968 0.02487 0.42953 0.0
Co237 Co 0.00718 0.96724 0.41184 0.0
O238 O 0.99908 0.98236 0.42663 0.0
C239 C 0.03631 0.00886 0.44632 0.0
O240 O 0.05073 0.99266 0.43899 0.0
C241 C 0.97057 0.91079 0.41097 0.0
O242 O 0.95781 0.92126 0.40202 0.0
O243 O 0.967 0.98293 0.40685 0.0
O244 O 0.96578 0.02789 0.41558 0.0
H245 H 0.00944 0.97255 0.37069 0.0
H246 H 0.97569 0.97802 0.44616 0.0
O247 O 0.01236 0.02318 0.44375 0.0
H248 H 0.87838 0.0282 0.43834 0.0
H249 H 0.96295 0.11366 0.4535 0.0
H250 H 0.99143 0.08107 0.41625 0.0
H251 H 0.92512 0.04464 0.42903 0.0
H252 H 0.97045 0.05959 0.44932 0.0
O253 O 0.98887 0.92747 0.41633 0.0
H254 H 0.99981 0.99154 0.38937 0.0
H255 H 0.03187 0.90907 0.40291 0.0
H256 H 0.98567 0.1355 0.42024 0.0
H257 H 0.92955 0.96105 0.45575 0.0
H258 H 0.97075 0.15205 0.4389 0.0
H259 H 0.88044 0.98618 0.45184 0.0
O260 O 0.02716 0.03759 0.4217 0.0
H261 H 0.07757 0.91007 0.43678 0.0
H262 H 0.07063 0.97343 0.40362 0.0
H263 H 0.12038 0.95453 0.40961 0.0
H264 H 0.12406 0.92231 0.42623 0.0
H265 H 0.02835 0.93015 0.43069 0.0
H266 H 0.04182 0.88914 0.3844 0.0
H267 H 0.0306 0.92096 0.36812 0.0
O268 O 0.02607 0.00644 0.40722 0.0
C269 C 0.95592 0.00935 0.40838 0.0
C270 C 0.01436 0.95843 0.37772 0.0
C271 C 0.03255 0.91164 0.38541 0.0
N272 N 0.01502 0.95145 0.39723 0.0
C273 C 0.00887 0.96907 0.38831 0.0
C274 C 0.02683 0.92306 0.39588 0.0
C275 C 0.02625 0.9295 0.37628 0.0
C276 C 0.95443 0.98916 0.44447 0.0
N277 N 0.95311 0.01234 0.43707 0.0
C278 C 0.92837 0.97942 0.4499 0.0
C279 C 0.90082 0.99351 0.4477 0.0
C280 C 0.89964 0.01708 0.44012 0.0
C281 C 0.92616 0.02623 0.43485 0.0
C282 C 0.96918 0.10671 0.4453 0.0
C283 C 0.98509 0.0881 0.42442 0.0
C284 C 0.97334 0.07611 0.44287 0.0
N285 N 0.98112 0.06714 0.43252 0.0
C286 C 0.98176 0.11894 0.42661 0.0
C287 C 0.97355 0.12823 0.43711 0.0
C288 C 0.03539 0.03033 0.41203 0.0
C289 C 0.07624 0.924 0.4295 0.0
C290 C 0.07203 0.95987 0.41097 0.0
C291 C 0.10028 0.94904 0.41427 0.0
C292 C 0.10233 0.93093 0.42359 0.0
N293 N 0.04648 0.95284 0.41677 0.0
C294 C 0.04838 0.93528 0.42596 0.0
Co295 Co 0.25005 0.7373 0.67985 0.0
Co296 Co 0.29167 0.76173 0.65791 0.0
O297 O 0.28674 0.75559 0.67375 0.0
C298 C 0.26837 0.78565 0.69628 0.0
O299 O 0.28892 0.79673 0.68966 0.0
C300 C 0.35166 0.73472 0.66404 0.0
O301 O 0.33797 0.71097 0.6682 0.0
O302 O 0.28486 0.71768 0.65512 0.0
O303 O 0.2466 0.70968 0.66687 0.0
H304 H 0.26378 0.75094 0.61815 0.0
H305 H 0.3079 0.73899 0.69234 0.0
O306 O 0.25176 0.76355 0.69331 0.0
H307 H 0.27829 0.63153 0.69146 0.0
H308 H 0.18337 0.695 0.70968 0.0
H309 H 0.191 0.71944 0.67034 0.0
H310 H 0.24627 0.67029 0.68275 0.0
H311 H 0.23016 0.71711 0.70212 0.0
O312 O 0.33642 0.75568 0.6595 0.0
H313 H 0.25769 0.74303 0.63802 0.0
H314 H 0.33759 0.79367 0.6442 0.0
H315 H 0.14393 0.697 0.67754 0.0
H316 H 0.34037 0.70112 0.70129 0.0
H317 H 0.13989 0.68465 0.69734 0.0
H318 H 0.3257 0.64687 0.70087 0.0
O319 O 0.22476 0.76857 0.67233 0.0
H320 H 0.33815 0.85202 0.67652 0.0
H321 H 0.26482 0.81825 0.64864 0.0
H322 H 0.27094 0.87279 0.65228 0.0
H323 H 0.30798 0.89 0.66623 0.0
H324 H 0.33074 0.7977 0.67286 0.0
H325 H 0.34474 0.80179 0.62438 0.0
H326 H 0.30761 0.78044 0.61121 0.0
O327 O 0.24736 0.76868 0.65589 0.0
C328 C 0.26252 0.70196 0.65859 0.0
C329 C 0.28014 0.76032 0.62381 0.0
C330 C 0.32559 0.78883 0.62731 0.0
N331 N 0.29725 0.76783 0.64228 0.0
C332 C 0.27678 0.75596 0.63508 0.0
C333 C 0.32148 0.78404 0.63852 0.0
C334 C 0.30475 0.77685 0.61992 0.0
C335 C 0.30107 0.71557 0.69222 0.0
N336 N 0.27495 0.70701 0.6871 0.0
C337 C 0.31969 0.69415 0.69726 0.0
C338 C 0.31149 0.66372 0.697 0.0
C339 C 0.28491 0.6551 0.69172 0.0
C340 C 0.26689 0.67716 0.68676 0.0
C341 C 0.18487 0.70026 0.70103 0.0
C342 C 0.18949 0.71397 0.67896 0.0
C343 C 0.21127 0.7129 0.69671 0.0
N344 N 0.21338 0.71944 0.68578 0.0
C345 C 0.16274 0.70134 0.68299 0.0
C346 C 0.16048 0.69444 0.69411 0.0
C347 C 0.22512 0.77486 0.66213 0.0
C348 C 0.32198 0.84481 0.67039 0.0
C349 C 0.28073 0.8255 0.65483 0.0
C350 C 0.28423 0.85644 0.6568 0.0
C351 C 0.30503 0.8661 0.66463 0.0
N352 N 0.29732 0.80472 0.66056 0.0
C353 C 0.31778 0.81405 0.66824 0.0
Co354 Co 0.53041 0.99266 0.92965 0.0
Co355 Co 0.52301 0.03683 0.90676 0.0
O356 O 0.52051 0.03166 0.92278 0.0
C357 C 0.47918 0.01853 0.94347 0.0
O358 O 0.4757 0.04198 0.93701 0.0
C359 C 0.54832 0.09458 0.91613 0.0
O360 O 0.56136 0.07947 0.92409 0.0
O361 O 0.56642 0.02452 0.90699 0.0
O362 O 0.56286 0.98511 0.91848 0.0
H363 H 0.552 0.00575 0.86855 0.0
H364 H 0.53143 0.04944 0.943 0.0
O365 O 0.49866 0.99814 0.94129 0.0
H366 H 0.63214 0.00364 0.94783 0.0
H367 H 0.54713 0.92025 0.96102 0.0
H368 H 0.54386 0.93165 0.92085 0.0
H369 H 0.59415 0.97929 0.936 0.0
H370 H 0.53647 0.96996 0.95267 0.0
O371 O 0.53408 0.08059 0.90861 0.0
H372 H 0.54781 0.9998 0.88856 0.0
H373 H 0.50429 0.08526 0.89104 0.0
H374 H 0.55515 0.88172 0.92887 0.0
H375 H 0.56843 0.07416 0.95506 0.0
H376 H 0.55679 0.87579 0.9491 0.0
H377 H 0.6193 0.05132 0.95755 0.0
O378 O 0.49988 0.97223 0.9202 0.0
H379 H 0.4317 0.09496 0.91948 0.0
H380 H 0.46932 0.01844 0.89343 0.0
H381 H 0.4154 0.03264 0.89316 0.0
H382 H 0.39628 0.07129 0.90622 0.0
H383 H 0.48538 0.0799 0.91955 0.0
H384 H 0.50825 0.09224 0.87105 0.0
H385 H 0.53214 0.05226 0.85965 0.0
O386 O 0.5111 0.99372 0.90413 0.0
C387 C 0.5768 1.0 0.91107 0.0
C388 C 0.54154 0.02334 0.87342 0.0
C389 C 0.51703 0.0719 0.87483 0.0
N390 N 0.52588 0.04218 0.89099 0.0
C391 C 0.53908 0.02011 0.88477 0.0
C392 C 0.51498 0.06788 0.88616 0.0
C393 C 0.53041 0.04944 0.86844 0.0
C394 C 0.5532 0.03897 0.94414 0.0
N395 N 0.56027 0.01259 0.93889 0.0
C396 C 0.57423 0.05328 0.95093 0.0
C397 C 0.60279 0.0405 0.9523 0.0
C398 C 0.61001 0.01378 0.94685 0.0
C399 C 0.5884 1.00014 0.94012 0.0
C400 C 0.54658 0.92262 0.9522 0.0
C401 C 0.54479 0.92933 0.92966 0.0
C402 C 0.54043 0.95067 0.94742 0.0
N403 N 0.53971 0.95377 0.93627 0.0
C404 C 0.5511 0.90097 0.93416 0.0
C405 C 0.55199 0.89765 0.94551 0.0
C406 C 0.49851 0.97299 0.90978 0.0
C407 C 0.43977 0.07816 0.91373 0.0
C408 C 0.46116 0.03505 0.89922 0.0
C409 C 0.43061 0.04311 0.89899 0.0
C410 C 0.4199 0.06482 0.90631 0.0
N411 N 0.48055 0.04825 0.90652 0.0
C412 C 0.47018 0.06955 0.91372 0.0
Co413 Co 0.28936 0.27023 0.18417 0.0
Co414 Co 0.23685 0.25742 0.16396 0.0
O415 O 0.24844 0.2592 0.17948 0.0
C416 C 0.26881 0.22153 0.20005 0.0
O417 O 0.24509 0.21528 0.19401 0.0
C418 C 0.178 0.29038 0.16365 0.0
O419 O 0.18878 0.30725 0.15569 0.0
O420 O 0.25021 0.30028 0.1618 0.0
O421 O 0.29256 0.3003 0.17195 0.0
H422 H 0.25069 0.27515 0.12358 0.0
H423 H 0.2363 0.27409 0.19919 0.0
O424 O 0.28805 0.24118 0.1969 0.0
H425 H 0.28333 0.37513 0.20026 0.0
H426 H 0.37208 0.29404 0.21129 0.0
H427 H 0.34655 0.28189 0.17221 0.0
H428 H 0.30522 0.33465 0.1889 0.0
H429 H 0.3201 0.28101 0.20569 0.0
O430 O 0.19504 0.27095 0.1683 0.0
H431 H 0.2651 0.27689 0.14308 0.0
H432 H 0.18271 0.23376 0.15191 0.0
H433 H 0.39869 0.29536 0.17746 0.0
H434 H 0.21396 0.31369 0.21081 0.0
H435 H 0.41175 0.30151 0.19713 0.0
H436 H 0.23743 0.36473 0.2114 0.0
O437 O 0.30658 0.23784 0.17462 0.0
H438 H 0.17946 0.17304 0.18229 0.0
H439 H 0.24984 0.1992 0.1524 0.0
H440 H 0.23352 0.1463 0.15471 0.0
H441 H 0.19781 0.13295 0.16968 0.0
H442 H 0.197 0.22551 0.17989 0.0
H443 H 0.16744 0.23154 0.13251 0.0
H444 H 0.20153 0.25237 0.11818 0.0
O445 O 0.27822 0.24342 0.1595 0.0
C446 C 0.27543 0.31203 0.16468 0.0
C447 C 0.23562 0.26606 0.12975 0.0
C448 C 0.1889 0.24157 0.13476 0.0
N449 N 0.22474 0.25562 0.14865 0.0
C450 C 0.24364 0.26702 0.14081 0.0
C451 C 0.19768 0.24291 0.14574 0.0
C452 C 0.20804 0.25326 0.12672 0.0
C453 C 0.24693 0.29604 0.19946 0.0
N454 N 0.27231 0.30183 0.19341 0.0
C455 C 0.23404 0.31848 0.20603 0.0
C456 C 0.24718 0.34712 0.20634 0.0
C457 C 0.27291 0.35297 0.2001 0.0
C458 C 0.28516 0.32996 0.19363 0.0
C459 C 0.36665 0.29146 0.2027 0.0
C460 C 0.35198 0.2847 0.18079 0.0
C461 C 0.33728 0.28394 0.19947 0.0
N462 N 0.33021 0.28084 0.18862 0.0
C463 C 0.38158 0.29225 0.18371 0.0
C464 C 0.3889 0.29566 0.19474 0.0
C465 C 0.30161 0.23337 0.16444 0.0
C466 C 0.19503 0.17857 0.17574 0.0
C467 C 0.2348 0.19355 0.15908 0.0
C468 C 0.22542 0.16355 0.16029 0.0
C469 C 0.20535 0.15608 0.16867 0.0
N470 N 0.22451 0.21555 0.16603 0.0
C471 C 0.20495 0.20831 0.1743 0.0
Co472 Co 0.75567 0.23554 0.17572 0.0
Co473 Co 0.80168 0.25 0.15382 0.0
O474 O 0.795 0.24827 0.16976 0.0
C475 C 0.77897 0.28322 0.19159 0.0
O476 O 0.802 0.28972 0.18523 0.0
C477 C 0.8598 0.22412 0.16286 0.0
O478 O 0.84481 0.20873 0.17028 0.0
O479 O 0.79093 0.20625 0.15253 0.0
O480 O 0.74985 0.20654 0.16327 0.0
H481 H 0.77553 0.22949 0.11444 0.0
H482 H 0.81103 0.23187 0.18972 0.0
O483 O 0.7594 0.26363 0.18866 0.0
H484 H 0.76898 0.12865 0.18921 0.0
H485 H 0.68175 0.20649 0.20537 0.0
H486 H 0.69554 0.22399 0.16578 0.0
H487 H 0.7439 0.16976 0.17906 0.0
H488 H 0.73157 0.22131 0.19804 0.0
O489 O 0.84567 0.23989 0.15579 0.0
H490 H 0.76768 0.22793 0.13442 0.0
H491 H 0.85052 0.2747 0.13943 0.0
H492 H 0.6454 0.20893 0.17276 0.0
H493 H 0.83646 0.19162 0.20014 0.0
H494 H 0.63825 0.20007 0.1927 0.0
H495 H 0.81552 0.13947 0.19992 0.0
O496 O 0.73521 0.26817 0.1672 0.0
H497 H 0.85602 0.33932 0.17004 0.0
H498 H 0.78261 0.30628 0.14207 0.0
H499 H 0.79573 0.36032 0.14355 0.0
H500 H 0.83267 0.37718 0.1576 0.0
H501 H 0.84235 0.28549 0.16828 0.0
H502 H 0.85943 0.2763 0.11951 0.0
H503 H 0.82167 0.25369 0.10685 0.0
O504 O 0.7583 0.26117 0.15108 0.0
C505 C 0.76612 0.19448 0.1558 0.0
C506 C 0.79213 0.23937 0.11987 0.0
C507 C 0.83923 0.26564 0.12271 0.0
N508 N 0.80856 0.25129 0.13811 0.0
C509 C 0.78779 0.23864 0.1312 0.0
C510 C 0.83412 0.26455 0.134 0.0
C511 C 0.81804 0.25297 0.11562 0.0
C512 C 0.80135 0.2095 0.18973 0.0
N513 N 0.77564 0.20346 0.18391 0.0
C514 C 0.81605 0.18666 0.19558 0.0
C515 C 0.80435 0.15739 0.19543 0.0
C516 C 0.77826 0.15131 0.18942 0.0
C517 C 0.76418 0.17471 0.18366 0.0
C518 C 0.68458 0.21025 0.19667 0.0
C519 C 0.69267 0.22005 0.17446 0.0
C520 C 0.71273 0.21873 0.19247 0.0
N521 N 0.71653 0.22336 0.18147 0.0
C522 C 0.6642 0.21158 0.17837 0.0
C523 C 0.66019 0.20664 0.18955 0.0
C524 C 0.73658 0.27167 0.15683 0.0
C525 C 0.83989 0.33226 0.16388 0.0
C526 C 0.79852 0.31341 0.14828 0.0
C527 C 0.80593 0.34406 0.14905 0.0
C528 C 0.82673 0.3535 0.15691 0.0
N529 N 0.81164 0.29268 0.15511 0.0
C530 C 0.83206 0.30179 0.16284 0.0
Co531 Co 0.78271 0.76684 0.67606 0.0
Co532 Co 0.73447 0.73783 0.65721 0.0
O533 O 0.74342 0.74945 0.67232 0.0
C534 C 0.77535 0.72143 0.69425 0.0
O535 O 0.7717 0.69954 0.6871 0.0
C536 C 0.67627 0.77023 0.66264 0.0
O537 O 0.69081 0.79573 0.66432 0.0
O538 O 0.74252 0.78033 0.65224 0.0
O539 O 0.7861 0.78666 0.66137 0.0
H540 H 0.75193 0.73547 0.61652 0.0
H541 H 0.7299 0.77709 0.69056 0.0
O542 O 0.78008 0.74843 0.69104 0.0
H543 H 0.76449 0.87891 0.67976 0.0
H544 H 0.85886 0.8157 0.70117 0.0
H545 H 0.84116 0.77353 0.66433 0.0
H546 H 0.79136 0.83342 0.67322 0.0
H547 H 0.80864 0.79583 0.69608 0.0
O548 O 0.69054 0.74649 0.6598 0.0
H549 H 0.7635 0.74903 0.63565 0.0
H550 H 0.68448 0.70325 0.64653 0.0
H551 H 0.89159 0.7934 0.66904 0.0
H552 H 0.70261 0.82199 0.69739 0.0
H553 H 0.90078 0.81447 0.68761 0.0
H554 H 0.71988 0.87335 0.69197 0.0
O555 O 0.80343 0.73022 0.67008 0.0
H556 H 0.692 0.65823 0.68228 0.0
H557 H 0.75442 0.67686 0.64946 0.0
H558 H 0.74681 0.62454 0.65592 0.0
H559 H 0.71534 0.61494 0.67242 0.0
H560 H 0.7004 0.71022 0.67561 0.0
H561 H 0.67191 0.68945 0.62749 0.0
H562 H 0.70583 0.70547 0.61233 0.0
O563 O 0.7779 0.72747 0.65426 0.0
C564 C 0.76777 0.79383 0.65373 0.0
C565 C 0.73702 0.72829 0.62305 0.0
C566 C 0.69209 0.70249 0.62921 0.0
N567 N 0.72483 0.72677 0.64222 0.0
C568 C 0.74349 0.73583 0.63392 0.0
C569 C 0.69929 0.71045 0.63998 0.0
C570 C 0.71114 0.71148 0.62071 0.0
C571 C 0.73771 0.79938 0.68825 0.0
N572 N 0.76231 0.80263 0.68157 0.0
C573 C 0.72211 0.82471 0.69211 0.0
C574 C 0.73179 0.85352 0.68905 0.0
C575 C 0.75684 0.85665 0.68221 0.0
C576 C 0.77191 0.83081 0.67852 0.0
C577 C 0.85516 0.80646 0.69307 0.0
C578 C 0.84487 0.78285 0.6724 0.0
C579 C 0.82678 0.79513 0.69014 0.0
N580 N 0.82193 0.78352 0.67991 0.0
C581 C 0.87353 0.79396 0.67504 0.0
C582 C 0.87868 0.80574 0.68546 0.0
C583 C 0.80095 0.72131 0.66016 0.0
C584 C 0.70568 0.66211 0.67506 0.0
C585 C 0.74075 0.6729 0.65667 0.0
C586 C 0.73648 0.64321 0.66027 0.0
C587 C 0.71881 0.63784 0.66953 0.0
N588 N 0.72771 0.69659 0.66211 0.0
C589 C 0.71044 0.6915 0.67122 0.0
Co590 Co 0.78685 0.24617 0.3238 0.0
Co591 Co 0.7298 0.25732 0.34261 0.0
O592 O 0.74446 0.2545 0.32746 0.0
C593 C 0.76664 0.2941 0.30763 0.0
O594 O 0.74289 0.30069 0.3136 0.0
C595 C 0.67486 0.21853 0.34261 0.0
O596 O 0.68634 0.20392 0.35102 0.0
O597 O 0.74702 0.21643 0.34606 0.0
O598 O 0.79016 0.21758 0.33639 0.0
H599 H 0.73776 0.24692 0.38352 0.0
H600 H 0.73878 0.23869 0.30694 0.0
O601 O 0.78558 0.27424 0.31082 0.0
H602 H 0.78937 0.13951 0.30927 0.0
H603 H 0.87433 0.22558 0.29837 0.0
H604 H 0.84312 0.2397 0.33684 0.0
H605 H 0.80578 0.18181 0.32101 0.0
H606 H 0.82095 0.2354 0.303 0.0
O607 O 0.69054 0.23869 0.33775 0.0
H608 H 0.75583 0.2437 0.36444 0.0
H609 H 0.67152 0.27729 0.35293 0.0
H610 H 0.89674 0.22969 0.33258 0.0
H611 H 0.722 0.19719 0.29493 0.0
H612 H 0.91266 0.22255 0.31323 0.0
H613 H 0.74736 0.14713 0.29604 0.0
O614 O 0.80055 0.28006 0.33337 0.0
H615 H 0.66767 0.33166 0.32093 0.0
H616 H 0.73381 0.31841 0.35308 0.0
H617 H 0.71267 0.36874 0.34905 0.0
H618 H 0.67913 0.3756 0.33291 0.0
H619 H 0.69008 0.28192 0.32505 0.0
H620 H 0.65259 0.28085 0.37187 0.0
H621 H 0.6858 0.26558 0.38734 0.0
O622 O 0.76849 0.27647 0.3476 0.0
C623 C 0.77322 0.20599 0.34373 0.0
C624 C 0.72308 0.25361 0.37685 0.0
C625 C 0.67528 0.27267 0.37032 0.0
N626 N 0.71477 0.26021 0.35756 0.0
C627 C 0.73317 0.25182 0.36603 0.0
C628 C 0.68615 0.27061 0.3596 0.0
C629 C 0.69392 0.26409 0.37899 0.0
C630 C 0.75016 0.21713 0.30741 0.0
N631 N 0.77354 0.2129 0.31457 0.0
C632 C 0.74044 0.19363 0.30062 0.0
C633 C 0.75464 0.16553 0.30126 0.0
C634 C 0.77821 0.16124 0.30868 0.0
C635 C 0.78734 0.18528 0.31533 0.0
C636 C 0.86768 0.22863 0.30684 0.0
C637 C 0.84984 0.2365 0.3284 0.0
C638 C 0.83748 0.23429 0.30951 0.0
N639 N 0.82887 0.238 0.3202 0.0
C640 C 0.88025 0.23089 0.32604 0.0
C641 C 0.88917 0.22692 0.31518 0.0
C642 C 0.79277 0.28637 0.34319 0.0
C643 C 0.68231 0.32898 0.32797 0.0
C644 C 0.71982 0.32127 0.34591 0.0
C645 C 0.70765 0.34981 0.34372 0.0
C646 C 0.68878 0.35363 0.33469 0.0
N647 N 0.71345 0.29717 0.33928 0.0
C648 C 0.69494 0.30079 0.3304 0.0
Co649 Co 0.74553 0.76271 0.82959 0.0
Co650 Co 0.79663 0.73649 0.84827 0.0
O651 O 0.78641 0.74852 0.83326 0.0
C652 C 0.75712 0.71841 0.81138 0.0
O653 O 0.76341 0.69717 0.81856 0.0
C654 C 0.85264 0.77065 0.84075 0.0
O655 O 0.83673 0.78952 0.83477 0.0
O656 O 0.78402 0.7774 0.85372 0.0
O657 O 0.74056 0.78178 0.84434 0.0
H658 H 0.77774 0.72913 0.88879 0.0
H659 H 0.79634 0.77729 0.81459 0.0
O660 O 0.74944 0.74473 0.81458 0.0
H661 H 0.75495 0.87591 0.82612 0.0
H662 H 0.66614 0.807 0.80468 0.0
H663 H 0.68676 0.76498 0.84135 0.0
H664 H 0.73243 0.8284 0.83287 0.0
H665 H 0.71746 0.7899 0.80962 0.0
O666 O 0.83955 0.75031 0.84642 0.0
H667 H 0.7657 0.74281 0.8697 0.0
H668 H 0.84901 0.70524 0.85894 0.0
H669 H 0.63519 0.78199 0.83678 0.0
H670 H 0.81923 0.82427 0.80751 0.0
H671 H 0.62458 0.80319 0.81832 0.0
H672 H 0.7986 0.87404 0.8133 0.0
O673 O 0.72739 0.7246 0.83546 0.0
H674 H 0.84778 0.66586 0.82186 0.0
H675 H 0.78559 0.67244 0.85529 0.0
H676 H 0.79933 0.62234 0.84797 0.0
H677 H 0.83077 0.61881 0.83114 0.0
H678 H 0.83312 0.71548 0.8294 0.0
H679 H 0.86213 0.69149 0.87792 0.0
H680 H 0.82629 0.70332 0.89301 0.0
O681 O 0.75477 0.7208 0.85082 0.0
C682 C 0.75801 0.78934 0.85219 0.0
C683 C 0.79356 0.72387 0.88229 0.0
C684 C 0.84094 0.7028 0.87619 0.0
N685 N 0.80668 0.72496 0.8632 0.0
C686 C 0.78686 0.73155 0.87146 0.0
C687 C 0.83347 0.71081 0.86546 0.0
C688 C 0.82081 0.70941 0.88465 0.0
C689 C 0.78703 0.79885 0.81707 0.0
N690 N 0.76302 0.80007 0.82411 0.0
C691 C 0.80018 0.82538 0.81307 0.0
C692 C 0.78862 0.8533 0.81633 0.0
C693 C 0.76415 0.85437 0.82353 0.0
C694 C 0.75157 0.82737 0.82736 0.0
C695 C 0.67047 0.79781 0.81275 0.0
C696 C 0.68239 0.77425 0.83332 0.0
C697 C 0.69948 0.78799 0.81558 0.0
N698 N 0.70516 0.77648 0.82578 0.0
C699 C 0.65311 0.78382 0.83077 0.0
C700 C 0.64717 0.79568 0.82041 0.0
C701 C 0.73169 0.71399 0.84506 0.0
C702 C 0.83409 0.66709 0.82921 0.0
C703 C 0.79894 0.67112 0.84792 0.0
C704 C 0.80683 0.64267 0.84384 0.0
C705 C 0.8245 0.64071 0.83441 0.0
N706 N 0.8084 0.69692 0.84278 0.0
C707 C 0.82577 0.69514 0.83354 0.0
Co708 Co 0.49656 0.49149 0.08067 0.0
Co709 Co 0.5235 0.53451 0.10202 0.0
O710 O 0.51636 0.52814 0.08627 0.0
C711 C 0.54639 0.50482 0.06416 0.0
O712 O 0.56023 0.52335 0.07088 0.0
C713 C 0.49737 0.59399 0.09477 0.0
O714 O 0.47582 0.5797 0.08947 0.0
O715 O 0.47968 0.52805 0.10535 0.0
O716 O 0.46919 0.49013 0.09374 0.0
H717 H 0.51459 0.51007 0.14213 0.0
H718 H 0.5008 0.54691 0.06697 0.0
O719 O 0.52245 0.49101 0.06713 0.0
H720 H 0.39195 0.52325 0.06887 0.0
H721 H 0.45042 0.42433 0.05177 0.0
H722 H 0.47696 0.43386 0.09087 0.0
H723 H 0.42925 0.49096 0.07828 0.0
H724 H 0.47466 0.47073 0.05872 0.0
O725 O 0.517 0.57915 0.10019 0.0
H726 H 0.50601 0.50216 0.12239 0.0
H727 H 0.55655 0.58131 0.11499 0.0
H728 H 0.45243 0.38717 0.08428 0.0
H729 H 0.46438 0.57957 0.05732 0.0
H730 H 0.439 0.38217 0.0646 0.0
H731 H 0.40948 0.56783 0.05822 0.0
O732 O 0.52688 0.46556 0.08843 0.0
H733 H 0.61212 0.5801 0.08212 0.0
H734 H 0.58082 0.50904 0.11114 0.0
H735 H 0.63506 0.51579 0.10714 0.0
H736 H 0.65105 0.55162 0.09256 0.0
H737 H 0.55808 0.57227 0.08624 0.0
H738 H 0.56549 0.59022 0.13466 0.0
H739 H 0.54452 0.5544 0.14839 0.0
O740 O 0.53091 0.49037 0.10439 0.0
C741 C 0.46286 0.50633 0.10208 0.0
C742 C 0.52384 0.52586 0.13623 0.0
C743 C 0.55236 0.57086 0.13204 0.0
N744 N 0.53066 0.54128 0.11753 0.0
C745 C 0.51906 0.52148 0.12503 0.0
C746 C 0.5471 0.56576 0.12091 0.0
C747 C 0.54062 0.55073 0.13974 0.0
C748 C 0.47702 0.54144 0.06734 0.0
N749 N 0.46724 0.51688 0.07316 0.0
C750 C 0.45646 0.56013 0.06189 0.0
C751 C 0.42566 0.55357 0.06242 0.0
C752 C 0.41581 0.52859 0.0684 0.0
C753 C 0.43703 0.51045 0.07377 0.0
C754 C 0.45614 0.42623 0.06037 0.0
C755 C 0.47106 0.43192 0.0823 0.0
C756 C 0.46998 0.45242 0.06435 0.0
N757 N 0.47712 0.45508 0.07521 0.0
C758 C 0.45723 0.4054 0.07861 0.0
C759 C 0.44973 0.4026 0.06757 0.0
C760 C 0.53491 0.46695 0.09847 0.0
C761 C 0.60544 0.56444 0.08849 0.0
C762 C 0.58753 0.52443 0.1047 0.0
C763 C 0.61831 0.52828 0.10252 0.0
C764 C 0.62727 0.54842 0.09435 0.0
N765 N 0.56623 0.54017 0.0989 0.0
C766 C 0.57486 0.56001 0.0909 0.0
Co767 Co 0.03488 0.51686 0.57776 0.0
Co768 Co 0.02183 0.46846 0.59931 0.0
O769 O 0.02189 0.47723 0.58346 0.0
C770 C 0.98414 0.49668 0.56259 0.0
O771 O 0.97808 0.473 0.56869 0.0
C772 C 0.04612 0.41152 0.58884 0.0
O773 O 0.05931 0.42727 0.58109 0.0
O774 O 0.06557 0.47907 0.60028 0.0
O775 O 0.06642 0.52021 0.58952 0.0
H776 H 0.04534 0.49062 0.63879 0.0
H777 H 0.03396 0.46242 0.5632 0.0
O778 O 0.00437 0.5156 0.56549 0.0
H779 H 0.13792 0.50202 0.56089 0.0
H780 H 0.06075 0.59327 0.54854 0.0
H781 H 0.05086 0.57518 0.58826 0.0
H782 H 0.09993 0.52735 0.57245 0.0
H783 H 0.04544 0.54318 0.55548 0.0
O784 O 0.03198 0.42483 0.59655 0.0
H785 H 0.0447 0.50074 0.61895 0.0
H786 H 0.99943 0.41742 0.61323 0.0
H787 H 0.06657 0.62552 0.58166 0.0
H788 H 0.07099 0.43665 0.55147 0.0
H789 H 0.07159 0.63483 0.56167 0.0
H790 H 0.12351 0.45638 0.55022 0.0
O791 O 0.00461 0.53759 0.58734 0.0
H792 H 0.93127 0.41567 0.58336 0.0
H793 H 0.96677 0.48525 0.6122 0.0
H794 H 0.91289 0.47095 0.61146 0.0
H795 H 0.89476 0.43611 0.59694 0.0
H796 H 0.98508 0.42987 0.58453 0.0
H797 H 0.99985 0.40626 0.63302 0.0
H798 H 0.0228 0.44305 0.64596 0.0
O799 O 0.01087 0.51127 0.60285 0.0
C800 C 0.07818 0.5033 0.59685 0.0
C801 C 0.03526 0.47439 0.63324 0.0
C802 C 0.00977 0.42704 0.62999 0.0
N803 N 0.02206 0.45971 0.61491 0.0
C804 C 0.0348 0.48002 0.62198 0.0
C805 C 0.00973 0.43342 0.61878 0.0
C806 C 0.02263 0.4477 0.63725 0.0
C807 C 0.05648 0.47158 0.56261 0.0
N808 N 0.06449 0.4967 0.56846 0.0
C809 C 0.07752 0.45666 0.556 0.0
C810 C 0.10699 0.46767 0.55534 0.0
C811 C 0.11508 0.49324 0.56133 0.0
C812 C 0.09347 0.50745 0.5679 0.0
C813 C 0.05867 0.58949 0.55727 0.0
C814 C 0.05315 0.57899 0.57955 0.0
C815 C 0.04989 0.56119 0.56126 0.0
N816 N 0.04739 0.55618 0.57228 0.0
C817 C 0.06198 0.60757 0.57586 0.0
C818 C 0.06476 0.61279 0.56464 0.0
C819 C 1.00129 0.5344 0.59767 0.0
C820 C 0.93888 0.43089 0.58973 0.0
C821 C 0.95909 0.47014 0.60581 0.0
C822 C 0.92853 0.46214 0.60545 0.0
C823 C 0.9184 0.44245 0.59733 0.0
N824 N 0.97912 0.45842 0.5984 0.0
C825 C 0.96934 0.43906 0.59043 0.0
Co826 Co 0.4972 0.51425 0.92945 0.0
Co827 Co 0.51617 0.47319 0.90686 0.0
O828 O 0.51162 0.47674 0.92278 0.0
C829 C 0.54115 0.52391 0.94752 0.0
O830 O 0.54739 0.55025 0.94306 0.0
C831 C 0.48826 0.41435 0.91381 0.0
O832 O 0.46987 0.42897 0.92039 0.0
O833 O 0.47256 0.48392 0.90479 0.0
O834 O 0.47058 0.52295 0.91652 0.0
H835 H 0.50273 0.50618 0.86773 0.0
H836 H 0.49328 0.4574 0.9423 0.0
O837 O 0.52312 0.50575 0.94267 0.0
H838 H 0.38821 0.49399 0.93916 0.0
H839 H 0.45846 0.5793 0.96038 0.0
H840 H 0.48796 0.57687 0.92142 0.0
H841 H 0.4302 0.5228 0.93093 0.0
H842 H 0.47627 0.5319 0.95189 0.0
O843 O 0.50645 0.4289 0.90767 0.0
H844 H 0.49728 0.51037 0.88778 0.0
H845 H 0.5444 0.42741 0.89206 0.0
H846 H 0.47017 0.62472 0.92956 0.0
H847 H 0.45199 0.42815 0.95083 0.0
H848 H 0.45527 0.62614 0.94918 0.0
H849 H 0.39899 0.44636 0.94925 0.0
O850 O 0.53093 0.53693 0.92223 0.0
H851 H 0.60294 0.41837 0.92459 0.0
H852 H 0.57441 0.49542 0.89724 0.0
H853 H 0.62841 0.48445 0.90054 0.0
H854 H 0.64292 0.4454 0.91416 0.0
H855 H 0.54933 0.43081 0.92137 0.0
H856 H 0.55023 0.42227 0.87205 0.0
H857 H 0.52938 0.46189 0.85974 0.0
O858 O 0.52688 0.51699 0.9054 0.0
C859 C 0.46018 0.50819 0.90834 0.0
C860 C 0.5119 0.48876 0.87301 0.0
C861 C 0.53853 0.44166 0.87543 0.0
N862 N 0.52054 0.46918 0.8911 0.0
C863 C 0.50892 0.49102 0.88437 0.0
C864 C 0.53508 0.44465 0.88676 0.0
C865 C 0.52684 0.4639 0.86853 0.0
C866 C 0.47033 0.46568 0.9417 0.0
N867 N 0.46423 0.49187 0.93617 0.0
C868 C 0.44702 0.44893 0.9465 0.0
C869 C 0.41728 0.45913 0.94559 0.0
C870 C 0.41121 0.48583 0.93992 0.0
C871 C 0.4351 0.50198 0.93523 0.0
C872 C 0.46487 0.57897 0.95182 0.0
C873 C 0.48151 0.57729 0.92996 0.0
C874 C 0.47499 0.5522 0.94697 0.0
N875 N 0.48314 0.55159 0.93615 0.0
C876 C 0.47145 0.60446 0.93453 0.0
C877 C 0.46309 0.60524 0.94553 0.0
C878 C 0.53595 0.53751 0.91193 0.0
C879 C 0.59688 0.4353 0.91857 0.0
C880 C 0.58054 0.47859 0.90327 0.0
C881 C 0.61115 0.47236 0.90505 0.0
C882 C 0.6193 0.45048 0.91272 0.0
N883 N 0.55866 0.4636 0.90904 0.0
C884 C 0.56653 0.44233 0.91666 0.0
Co885 Co 0.02807 0.48702 0.42755 0.0
Co886 Co 0.0031 0.53292 0.40695 0.0
O887 O 0.01227 0.52635 0.42258 0.0
C888 C 0.98657 0.50815 0.44588 0.0
O889 O 0.97547 0.52991 0.43978 0.0
C890 C 0.03069 0.59207 0.41437 0.0
O891 O 0.04827 0.57798 0.42138 0.0
O892 O 0.04597 0.52338 0.40307 0.0
O893 O 0.05046 0.48166 0.4134 0.0
H894 H 0.00498 0.50631 0.36691 0.0
H895 H 0.03745 0.54128 0.44161 0.0
O896 O 0.00658 0.4902 0.44208 0.0
H897 H 0.1397 0.50245 0.43367 0.0
H898 H 0.07369 0.41357 0.45449 0.0
H899 H 0.03592 0.42728 0.4168 0.0
H900 H 0.0947 0.47671 0.42628 0.0
H901 H 0.05323 0.4628 0.44854 0.0
O902 O 0.01293 0.57715 0.40819 0.0
H903 H 0.01668 0.49921 0.38649 0.0
H904 H 0.97042 0.58069 0.3943 0.0
H905 H 0.05669 0.37786 0.42237 0.0
H906 H 0.08181 0.56743 0.44932 0.0
H907 H 0.07576 0.37074 0.44133 0.0
H908 H 0.13344 0.5481 0.44534 0.0
O909 O 0.99201 0.4663 0.42122 0.0
H910 H 0.92121 0.5854 0.42833 0.0
H911 H 0.94257 0.51114 0.39918 0.0
H912 H 0.88973 0.52148 0.40447 0.0
H913 H 0.87874 0.55912 0.41901 0.0
H914 H 0.97374 0.5736 0.42312 0.0
H915 H 0.95847 0.58878 0.37479 0.0
H916 H 0.97563 0.55133 0.36095 0.0
O917 O 0.99218 0.48925 0.40487 0.0
C918 C 0.05892 0.49841 0.40545 0.0
C919 C 0.99736 0.52278 0.37287 0.0
C920 C 0.97129 0.56907 0.37729 0.0
N921 N 0.99423 0.53949 0.39155 0.0
C922 C 0.00391 0.51888 0.38397 0.0
C923 C 0.97825 0.56443 0.38833 0.0
C924 C 0.9809 0.54804 0.36953 0.0
C925 C 0.05974 0.53242 0.43997 0.0
N926 N 0.06334 0.50728 0.4336 0.0
C927 C 0.08483 0.54746 0.4443 0.0
C928 C 0.11379 0.53665 0.44204 0.0
C929 C 0.11732 0.51106 0.4355 0.0
C930 C 0.09172 0.49663 0.43131 0.0
C931 C 0.06545 0.41639 0.4462 0.0
C932 C 0.04426 0.42444 0.42506 0.0
C933 C 0.0537 0.44419 0.44279 0.0
N934 N 0.04349 0.448 0.43231 0.0
C935 C 0.05593 0.39635 0.42817 0.0
C936 C 0.0666 0.39237 0.43882 0.0
C937 C 0.9844 0.46764 0.41117 0.0
C938 C 0.9257 0.56904 0.42193 0.0
C939 C 0.93807 0.52722 0.40565 0.0
C940 C 0.90806 0.53316 0.40854 0.0
C941 C 0.90189 0.55427 0.41671 0.0
N942 N 0.96134 0.54171 0.41085 0.0
C943 C 0.95543 0.56237 0.4189 0.0
H944 H 0.99228 0.12743 0.56855 0.0
H945 H 1.00116 0.18215 0.56788 0.0
H946 H 0.99094 0.18728 0.60296 0.0
H947 H 0.98263 0.13251 0.60373 0.0
H948 H 0.96175 0.23585 0.59072 0.0
H949 H 0.05846 0.18612 0.59476 0.0
H950 H 0.09791 0.14916 0.58979 0.0
H951 H 0.10466 0.18853 0.5577 0.0
H952 H 0.06511 0.22574 0.5625 0.0
H953 H 0.02999 0.37245 0.60508 0.0
H954 H 0.01932 0.31856 0.60354 0.0
H955 H 0.04523 0.32048 0.56948 0.0
H956 H 0.05645 0.37479 0.57099 0.0
H957 H 0.06477 0.26866 0.5796 0.0
H958 H 0.97106 0.32163 0.57613 0.0
H959 H 0.93241 0.35916 0.58133 0.0
H960 H 0.91931 0.31393 0.61211 0.0
H961 H 0.95809 0.27618 0.60711 0.0
C962 C 0.99127 0.14028 0.5761 0.0
C963 C 0.98672 0.12561 0.5862 0.0
C964 C 0.99655 0.17152 0.57571 0.0
C965 C 0.99692 0.18872 0.58538 0.0
C966 C 0.99074 0.17443 0.5954 0.0
C967 C 0.98599 0.14313 0.59583 0.0
C968 C 0.00557 0.22122 0.58516 0.0
C969 C 0.9843 0.24304 0.58836 0.0
C970 C 0.0348 0.23063 0.58185 0.0
C971 C 0.05863 0.20845 0.57894 0.0
C972 C 0.06819 0.18673 0.58662 0.0
C973 C 0.0906 0.16578 0.58384 0.0
C974 C 0.10367 0.16636 0.57341 0.0
C975 C 0.09446 0.18805 0.56577 0.0
C976 C 0.07211 0.20913 0.56852 0.0
C977 C 0.03373 0.36145 0.59726 0.0
C978 C 0.0438 0.37806 0.58812 0.0
C979 C 0.02749 0.33059 0.59639 0.0
C980 C 0.03077 0.31556 0.58633 0.0
C981 C 0.04232 0.33164 0.57731 0.0
C982 C 0.04878 0.36266 0.57819 0.0
C983 C 0.02102 0.28342 0.58526 0.0
C984 C 0.04208 0.26161 0.58183 0.0
C985 C 0.99151 0.27402 0.58833 0.0
C986 C 0.96764 0.2962 0.59127 0.0
C987 C 0.96003 0.31975 0.58403 0.0
C988 C 0.93811 0.34108 0.58694 0.0
C989 C 0.92351 0.33904 0.59707 0.0
C990 C 0.93067 0.31551 0.60427 0.0
C991 C 0.95257 0.29409 0.60139 0.0
H992 H 0.9066 0.35564 0.59932 0.0
H993 H 0.12099 0.15009 0.57127 0.0
H994 H 0.89062 0.73292 0.85179 0.0
H995 H 0.9453 0.73111 0.85139 0.0
H996 H 0.94711 0.80676 0.82908 0.0
H997 H 0.89138 0.80839 0.82925 0.0
H998 H 0.98746 0.76227 0.82303 0.0
H999 H 0.96615 0.81723 0.85573 0.0
H1000 H 0.9406 0.82781 0.87328 0.0
H1001 H 0.97587 0.74528 0.88676 0.0
H1002 H 1.00129 0.73397 0.86924 0.0
H1003 H 0.14839 0.77365 0.83227 0.0
H1004 H 0.09424 0.78301 0.83 0.0
H1005 H 0.07443 0.71193 0.85314 0.0
H1006 H 0.12852 0.70282 0.85562 0.0
H1007 H 0.0439 0.7615 0.85816 0.0
H1008 H 0.06165 0.70475 0.82496 0.0
H1009 H 0.08672 0.69384 0.80734 0.0
H1010 H 0.05837 0.78013 0.79483 0.0
H1011 H 0.03345 0.79172 0.81243 0.0
C1012 C 0.90235 0.74939 0.84681 0.0
C1013 C 0.88634 0.77099 0.84061 0.0
C1014 C 0.93385 0.74834 0.84662 0.0
C1015 C 0.95047 0.76909 0.84036 0.0
C1016 C 0.93476 0.7906 0.83403 0.0
C1017 C 0.90293 0.7916 0.83418 0.0
C1018 C 0.98417 0.76769 0.84052 0.0
C1019 C 0.99991 0.76272 0.83068 0.0
C1020 C 1.00044 0.76777 0.85052 0.0
C1021 C 0.98551 0.77468 0.86114 0.0
C1022 C 0.96833 0.80125 0.86241 0.0
C1023 C 0.95388 0.80739 0.87236 0.0
C1024 C 0.95658 0.78721 0.88112 0.0
C1025 C 0.9738 0.76089 0.87996 0.0
C1026 C 0.98828 0.75463 0.87003 0.0
C1027 C 0.13253 0.75963 0.83675 0.0
C1028 C 0.14289 0.73746 0.84415 0.0
C1029 C 0.1015 0.76503 0.83543 0.0
C1030 C 0.08013 0.74816 0.84138 0.0
C1031 C 0.09043 0.72536 0.84849 0.0
C1032 C 0.12142 0.72006 0.84986 0.0
C1033 C 0.04715 0.75518 0.8407 0.0
C1034 C 0.03156 0.76134 0.85048 0.0
C1035 C 0.03114 0.75625 0.83065 0.0
C1036 C 0.04597 0.74923 0.82005 0.0
C1037 C 0.06096 0.72149 0.81848 0.0
C1038 C 0.07511 0.71517 0.80849 0.0
C1039 C 0.07421 0.73631 0.79998 0.0
C1040 C 0.05908 0.76379 0.80143 0.0
C1041 C 0.04493 0.77024 0.81141 0.0
H1042 H 0.08518 0.73138 0.79225 0.0
H1043 H 0.94535 0.79199 0.88881 0.0
H1044 H 0.46119 0.63492 0.08379 0.0
H1045 H 0.46756 0.69005 0.08281 0.0
H1046 H 0.54685 0.68372 0.10329 0.0
H1047 H 0.54045 0.62918 0.10445 0.0
H1048 H 0.51246 0.72925 0.10982 0.0
H1049 H 0.55126 0.69367 0.0751 0.0
H1050 H 0.54821 0.66664 0.05746 0.0
H1051 H 0.47441 0.72356 0.0475 0.0
H1052 H 0.47676 0.75067 0.06516 0.0
H1053 H 0.57745 0.87306 0.10283 0.0
H1054 H 0.57 0.81832 0.10171 0.0
H1055 H 0.49194 0.83189 0.08109 0.0
H1056 H 0.49959 0.88655 0.08195 0.0
H1057 H 0.52282 0.78329 0.07437 0.0
H1058 H 0.48397 0.81934 0.10862 0.0
H1059 H 0.48586 0.84654 0.12624 0.0
H1060 H 0.55803 0.78882 0.13712 0.0
H1061 H 0.5568 0.76147 0.11949 0.0
C1062 C 0.47991 0.64531 0.08811 0.0
C1063 C 0.50025 0.62751 0.09421 0.0
C1064 C 0.48363 0.67683 0.0875 0.0
C1065 C 0.50788 0.69111 0.0929 0.0
C1066 C 0.52795 0.67335 0.09906 0.0
C1067 C 0.52424 0.64202 0.0997 0.0
C1068 C 0.51264 0.7245 0.09225 0.0
C1069 C 0.51505 0.74096 0.10206 0.0
C1070 C 0.51522 0.74007 0.08214 0.0
C1071 C 0.51399 0.72399 0.07149 0.0
C1072 C 0.53425 0.70028 0.06918 0.0
C1073 C 0.53266 0.68497 0.05917 0.0
C1074 C 0.51107 0.69333 0.05137 0.0
C1075 C 0.49109 0.71708 0.05355 0.0
C1076 C 0.49255 0.73244 0.06355 0.0
C1077 C 0.55898 0.86443 0.0979 0.0
C1078 C 0.539 0.88433 0.09256 0.0
C1079 C 0.55462 0.83307 0.09733 0.0
C1080 C 0.53 0.82092 0.0915 0.0
C1081 C 0.511 0.84065 0.08568 0.0
C1082 C 0.51543 0.87199 0.0862 0.0
C1083 C 0.52316 0.78787 0.09195 0.0
C1084 C 0.52021 0.77155 0.08212 0.0
C1085 C 0.51991 0.77238 0.10204 0.0
C1086 C 0.52048 0.78854 0.1127 0.0
C1087 C 0.50037 0.81257 0.11474 0.0
C1088 C 0.50132 0.82801 0.12473 0.0
C1089 C 0.52212 0.81949 0.13278 0.0
C1090 C 0.54196 0.79543 0.13087 0.0
C1091 C 0.54112 0.77992 0.12088 0.0
H1092 H 0.52283 0.83149 0.14051 0.0
H1093 H 0.50987 0.68144 0.04363 0.0
H1094 H 0.64388 0.24388 0.32551 0.0
H1095 H 0.58937 0.25217 0.32422 0.0
H1096 H 0.5761 0.20172 0.35409 0.0
H1097 H 0.63062 0.1929 0.35536 0.0
H1098 H 0.53041 0.19146 0.33987 0.0
H1099 H 0.58224 0.27784 0.35449 0.0
H1100 H 0.621 0.31797 0.35436 0.0
H1101 H 0.58249 0.3552 0.32501 0.0
H1102 H 0.54385 0.31486 0.32482 0.0
H1103 H 0.39401 0.25086 0.35937 0.0
H1104 H 0.44796 0.24116 0.3575 0.0
H1105 H 0.4484 0.28671 0.32627 0.0
H1106 H 0.39386 0.29659 0.32804 0.0
H1107 H 0.50005 0.29967 0.33968 0.0
H1108 H 0.4458 0.21321 0.3261 0.0
H1109 H 0.40727 0.17296 0.32709 0.0
H1110 H 0.45049 0.13618 0.35565 0.0
H1111 H 0.48902 0.17653 0.35494 0.0
C1112 C 0.62935 0.23397 0.33169 0.0
C1113 C 0.64172 0.21798 0.3406 0.0
C1114 C 0.59815 0.23887 0.33097 0.0
C1115 C 0.57868 0.22819 0.3392 0.0
C1116 C 0.59069 0.21035 0.34767 0.0
C1117 C 0.62191 0.20527 0.34838 0.0
C1118 C 0.54629 0.2375 0.33943 0.0
C1119 C 0.52382 0.21511 0.3399 0.0
C1120 C 0.53758 0.26841 0.33933 0.0
C1121 C 0.5603 0.29316 0.33958 0.0
C1122 C 0.58213 0.29448 0.34797 0.0
C1123 C 0.60409 0.31725 0.34795 0.0
C1124 C 0.60421 0.3391 0.33968 0.0
C1125 C 0.58236 0.33823 0.33141 0.0
C1126 C 0.56043 0.31542 0.33135 0.0
C1127 C 0.40547 0.25916 0.35212 0.0
C1128 C 0.38941 0.27427 0.34379 0.0
C1129 C 0.4364 0.25351 0.35107 0.0
C1130 C 0.45212 0.26274 0.34167 0.0
C1131 C 0.43665 0.27926 0.33358 0.0
C1132 C 0.40549 0.28491 0.33461 0.0
C1133 C 0.48426 0.25361 0.34016 0.0
C1134 C 0.50667 0.27603 0.33951 0.0
C1135 C 0.49295 0.22274 0.34021 0.0
C1136 C 0.47019 0.19803 0.34051 0.0
C1137 C 0.447 0.19664 0.33263 0.0
C1138 C 0.42516 0.1738 0.33314 0.0
C1139 C 0.4264 0.15205 0.34144 0.0
C1140 C 0.44955 0.15305 0.34923 0.0
C1141 C 0.47142 0.17589 0.34877 0.0
H1142 H 0.40946 0.13439 0.34182 0.0
H1143 H 0.62116 0.35677 0.3397 0.0
H1144 H 0.99463 0.88152 0.42871 0.0
H1145 H 0.0032 0.82724 0.43077 0.0
H1146 H 0.95571 0.81076 0.4005 0.0
H1147 H 0.94674 0.8651 0.39841 0.0
H1148 H 0.94436 0.76631 0.41589 0.0
H1149 H 0.03107 0.81726 0.40048 0.0
H1150 H 0.07009 0.85715 0.40051 0.0
H1151 H 0.10567 0.82284 0.4308 0.0
H1152 H 0.06647 0.78304 0.43106 0.0
H1153 H 1.00289 0.6274 0.39911 0.0
H1154 H 0.99295 0.68152 0.39993 0.0
H1155 H 0.04239 0.68749 0.4303 0.0
H1156 H 0.05273 0.63286 0.42951 0.0
H1157 H 0.0529 0.73711 0.41645 0.0
H1158 H 0.96794 0.68429 0.43135 0.0
H1159 H 0.92844 0.64491 0.43145 0.0
H1160 H 0.88933 0.68293 0.40234 0.0
H1161 H 0.92895 0.72227 0.40196 0.0
C1162 C 0.98544 0.86636 0.42259 0.0
C1163 C 0.97027 0.87779 0.41332 0.0
C1164 C 0.99047 0.83529 0.42377 0.0
C1165 C 0.98066 0.81496 0.41567 0.0
C1166 C 0.96363 0.82603 0.40682 0.0
C1167 C 0.9585 0.85715 0.40564 0.0
C1168 C 0.99024 0.78266 0.41597 0.0
C1169 C 0.96807 0.75994 0.41593 0.0
C1170 C 0.02123 0.7743 0.41625 0.0
C1171 C 0.04568 0.79732 0.41584 0.0
C1172 C 0.04716 0.81827 0.40717 0.0
C1173 C 0.06928 0.84089 0.40714 0.0
C1174 C 0.09029 0.84258 0.41566 0.0
C1175 C 0.08934 0.82153 0.4242 0.0
C1176 C 0.06719 0.79891 0.4243 0.0
C1177 C 0.01195 0.64014 0.40594 0.0
C1178 C 0.02832 0.62563 0.41432 0.0
C1179 C 0.00619 0.67116 0.40639 0.0
C1180 C 0.0164 0.6885 0.41528 0.0
C1181 C 0.03414 0.67452 0.42339 0.0
C1182 C 0.04003 0.6433 0.42293 0.0
C1183 C 0.00699 0.72076 0.41627 0.0
C1184 C 0.02919 0.74347 0.41652 0.0
C1185 C 0.97601 0.72915 0.4162 0.0
C1186 C 0.95156 0.70611 0.41658 0.0
C1187 C 0.951 0.68418 0.42494 0.0
C1188 C 0.9286 0.66185 0.42504 0.0
C1189 C 0.90643 0.66136 0.41689 0.0
C1190 C 0.90654 0.68331 0.40864 0.0
C1191 C 0.92895 0.70566 0.40849 0.0
H1192 H 0.88915 0.644 0.41697 0.0
H1193 H 0.10734 0.86017 0.41564 0.0
H1194 H 0.38402 0.78676 0.66187 0.0
H1195 H 0.43859 0.79349 0.66272 0.0
H1196 H 0.44999 0.69781 0.66844 0.0
H1197 H 0.39482 0.69111 0.66808 0.0
H1198 H 0.48833 0.72737 0.68061 0.0
H1199 H 0.46249 0.73207 0.64263 0.0
H1200 H 0.43452 0.74979 0.62636 0.0
H1201 H 0.46716 0.84012 0.63167 0.0
H1202 H 0.49499 0.82302 0.64807 0.0
H1203 H 0.64214 0.71905 0.664 0.0
H1204 H 0.5873 0.71473 0.66527 0.0
H1205 H 0.57929 0.81196 0.66528 0.0
H1206 H 0.63466 0.81659 0.66404 0.0
H1207 H 0.53971 0.78263 0.65048 0.0
H1208 H 0.56772 0.77519 0.68843 0.0
H1209 H 0.59657 0.75493 0.70409 0.0
H1210 H 0.56094 0.66618 0.69789 0.0
H1211 H 0.5322 0.68582 0.68209 0.0
C1212 C 0.39806 0.76706 0.66332 0.0
C1213 C 0.38502 0.73829 0.66479 0.0
C1214 C 0.42939 0.77096 0.66375 0.0
C1215 C 0.44865 0.74608 0.66537 0.0
C1216 C 0.43569 0.71737 0.66711 0.0
C1217 C 0.40415 0.71353 0.66687 0.0
C1218 C 0.4822 0.7502 0.66517 0.0
C1219 C 0.49954 0.73911 0.67394 0.0
C1220 C 0.497 0.76602 0.65657 0.0
C1221 C 0.4806 0.77631 0.64664 0.0
C1222 C 0.46356 0.75575 0.64037 0.0
C1223 C 0.44774 0.76568 0.63112 0.0
C1224 C 0.449 0.79607 0.628 0.0
C1225 C 0.46617 0.81659 0.6341 0.0
C1226 C 0.48199 0.80679 0.64337 0.0
C1227 C 0.62884 0.73962 0.66432 0.0
C1228 C 0.64287 0.76823 0.66391 0.0
C1229 C 0.59742 0.73706 0.66509 0.0
C1230 C 0.57917 0.76299 0.66544 0.0
C1231 C 0.59298 0.79164 0.66504 0.0
C1232 C 0.6246 0.79426 0.66438 0.0
C1233 C 0.54565 0.75987 0.66591 0.0
C1234 C 0.52838 0.77104 0.65716 0.0
C1235 C 0.53101 0.74375 0.67443 0.0
C1236 C 0.54799 0.73195 0.68401 0.0
C1237 C 0.56619 0.75131 0.69035 0.0
C1238 C 0.5825 0.73994 0.69926 0.0
C1239 C 0.58064 0.70928 0.70197 0.0
C1240 C 0.56238 0.68993 0.69578 0.0
C1241 C 0.54604 0.70117 0.68686 0.0
H1242 H 0.59331 0.70051 0.70886 0.0
H1243 H 0.43672 0.80372 0.62084 0.0
H1244 H 0.46104 0.37473 0.92822 0.0
H1245 H 0.47092 0.32027 0.9301 0.0
H1246 H 0.53184 0.32397 0.90254 0.0
H1247 H 0.52234 0.37796 0.90062 0.0
H1248 H 0.46462 0.27072 0.91638 0.0
H1249 H 0.59325 0.28081 0.90794 0.0
H1250 H 0.63354 0.31909 0.90982 0.0
H1251 H 0.5851 0.36088 0.9363 0.0
H1252 H 0.54482 0.32253 0.93472 0.0
H1253 H 0.5257 0.1319 0.90032 0.0
H1254 H 0.5159 0.18598 0.90153 0.0
H1255 H 0.5555 0.1881 0.93379 0.0
H1256 H 0.56551 0.13348 0.93267 0.0
H1257 H 0.57151 0.23838 0.92098 0.0
H1258 H 0.48148 0.18668 0.93196 0.0
H1259 H 0.44115 0.14849 0.93008 0.0
H1260 H 0.41171 0.19014 0.90013 0.0
H1261 H 0.45221 0.2283 0.90173 0.0
C1262 C 0.47624 0.36386 0.92248 0.0
C1263 C 0.49105 0.38085 0.91432 0.0
C1264 C 0.48189 0.33273 0.92357 0.0
C1265 C 0.50255 0.31814 0.91659 0.0
C1266 C 0.51626 0.33481 0.90816 0.0
C1267 C 0.51067 0.36575 0.90706 0.0
C1268 C 0.51069 0.28574 0.9182 0.0
C1269 C 0.48795 0.26368 0.91745 0.0
C1270 C 0.54111 0.27649 0.9198 0.0
C1271 C 0.5659 0.29888 0.92115 0.0
C1272 C 0.59132 0.29799 0.91423 0.0
C1273 C 0.61414 0.31974 0.91523 0.0
C1274 C 0.61184 0.34245 0.92316 0.0
C1275 C 0.58682 0.34333 0.93015 0.0
C1276 C 0.564 0.32158 0.9292 0.0
C1277 C 0.53265 0.14376 0.90766 0.0
C1278 C 0.54619 0.12816 0.91645 0.0
C1279 C 0.52692 0.17477 0.90834 0.0
C1280 C 0.53445 0.19102 0.91782 0.0
C1281 C 0.54935 0.17596 0.92642 0.0
C1282 C 0.55508 0.14474 0.92576 0.0
C1283 C 0.52556 0.22341 0.9188 0.0
C1284 C 0.54815 0.24545 0.92004 0.0
C1285 C 0.49497 0.23265 0.91777 0.0
C1286 C 0.47001 0.21027 0.91694 0.0
C1287 C 0.46649 0.18763 0.92494 0.0
C1288 C 0.4436 0.16597 0.92393 0.0
C1289 C 0.42391 0.16686 0.91498 0.0
C1290 C 0.42699 0.18948 0.90706 0.0
C1291 C 0.44989 0.21116 0.90802 0.0
H1292 H 0.40623 0.15004 0.91419 0.0
H1293 H 0.62946 0.35934 0.92389 0.0
H1294 H 0.14841 0.26139 0.18033 0.0
H1295 H 0.09425 0.25103 0.18174 0.0
H1296 H 0.07827 0.30348 0.1525 0.0
H1297 H 0.13238 0.31452 0.15117 0.0
H1298 H 0.03313 0.31163 0.16685 0.0
H1299 H 0.08605 0.22648 0.15162 0.0
H1300 H 0.12604 0.18757 0.15163 0.0
H1301 H 0.08938 0.14923 0.18111 0.0
H1302 H 0.04951 0.18835 0.18142 0.0
H1303 H 0.89693 0.25093 0.14788 0.0
H1304 H 0.95082 0.26131 0.14947 0.0
H1305 H 0.95334 0.21428 0.1804 0.0
H1306 H 0.89887 0.20367 0.17888 0.0
H1307 H 0.0048 0.20289 0.16672 0.0
H1308 H 0.94956 0.28771 0.18101 0.0
H1309 H 0.91003 0.32704 0.18041 0.0
H1310 H 0.95127 0.36584 0.15181 0.0
H1311 H 0.99078 0.3264 0.15212 0.0
C1312 C 0.13334 0.2712 0.1743 0.0
C1313 C 0.14484 0.28859 0.16557 0.0
C1314 C 0.10234 0.26511 0.17509 0.0
C1315 C 0.08219 0.27587 0.16708 0.0
C1316 C 0.09334 0.29478 0.15875 0.0
C1317 C 0.12435 0.3011 0.158 0.0
C1318 C 0.04993 0.2659 0.16698 0.0
C1319 C 0.027 0.28787 0.16675 0.0
C1320 C 0.04178 0.23483 0.16701 0.0
C1321 C 0.06496 0.21053 0.1666 0.0
C1322 C 0.08657 0.20982 0.15813 0.0
C1323 C 0.10925 0.18775 0.15808 0.0
C1324 C 0.11029 0.16598 0.16638 0.0
C1325 C 0.08857 0.16615 0.1747 0.0
C1326 C 0.06592 0.18827 0.17482 0.0
C1327 C 0.90884 0.24246 0.155 0.0
C1328 C 0.89336 0.22671 0.16332 0.0
C1329 C 0.93975 0.24848 0.15589 0.0
C1330 C 0.95605 0.23902 0.16513 0.0
C1331 C 0.94116 0.2219 0.17321 0.0
C1332 C 0.91003 0.21586 0.17233 0.0
C1333 C 0.98812 0.24865 0.16652 0.0
C1334 C 0.01099 0.22663 0.16695 0.0
C1335 C 0.99626 0.27968 0.16658 0.0
C1336 C 0.97302 0.30395 0.16655 0.0
C1337 C 0.95012 0.30453 0.17456 0.0
C1338 C 0.92771 0.32685 0.17427 0.0
C1339 C 0.9281 0.34889 0.16606 0.0
C1340 C 0.95098 0.34874 0.15816 0.0
C1341 C 0.97341 0.32642 0.15839 0.0
H1342 H 0.91071 0.36613 0.16584 0.0
H1343 H 0.12791 0.14896 0.16634 0.0
H1344 H 0.02716 0.05309 0.46145 0.0
H1345 H 0.03822 0.05124 0.4811 0.0
H1346 H 0.07639 0.96212 0.47728 0.0
H1347 H 0.06624 0.96416 0.45747 0.0
H1348 H 0.02417 0.97467 0.49444 0.0
H1349 H 0.12453 0.00483 0.48253 0.0
H1350 H 0.1602 0.03725 0.47235 0.0
H1351 H 0.12912 0.11502 0.49019 0.0
H1352 H 0.09291 0.08311 0.50036 0.0
H1353 H 0.05836 0.95798 0.5498 0.0
H1354 H 0.06599 0.95686 0.52997 0.0
H1355 H 0.0659 0.05453 0.52923 0.0
H1356 H 0.06008 0.05563 0.54919 0.0
H1357 H 0.10179 0.03542 0.51394 0.0
H1358 H 1.00077 0.01146 0.5247 0.0
H1359 H 0.96194 0.98382 0.53522 0.0
H1360 H 0.98791 0.90085 0.5195 0.0
H1361 H 0.02734 0.92793 0.50904 0.0
C1362 C 0.03835 0.03328 0.46476 0.0
C1363 C 0.04592 0.00878 0.45793 0.0
C1364 C 0.04464 0.03228 0.47598 0.0
C1365 C 0.05808 0.00656 0.48061 0.0
C1366 C 0.06607 0.98219 0.47382 0.0
C1367 C 0.06042 0.98345 0.46252 0.0
C1368 C 0.06213 0.00474 0.49264 0.0
C1369 C 0.04153 0.9874 0.49872 0.0
C1370 C 0.08392 0.02245 0.49819 0.0
C1371 C 0.10581 0.04162 0.49213 0.0
C1372 C 0.12509 0.02889 0.48421 0.0
C1373 C 0.14546 0.04716 0.47846 0.0
C1374 C 0.14687 0.07819 0.4806 0.0
C1375 C 0.12798 0.09099 0.48853 0.0
C1376 C 0.10755 0.07281 0.4943 0.0
C1377 C 0.06075 0.97918 0.54543 0.0
C1378 C 0.05846 0.00689 0.551 0.0
C1379 C 0.06489 0.97855 0.53408 0.0
C1380 C 0.06559 0.00561 0.52803 0.0
C1381 C 0.06525 0.03333 0.53368 0.0
C1382 C 0.06193 0.03396 0.5451 0.0
C1383 C 0.06402 0.00498 0.51583 0.0
C1384 C 0.08474 0.0222 0.5097 0.0
C1385 C 0.0417 0.98783 0.51022 0.0
C1386 C 0.01721 0.97167 0.51616 0.0
C1387 C 0.99826 0.9873 0.52351 0.0
C1388 C 0.97618 0.97173 0.52947 0.0
C1389 C 0.97251 0.94058 0.52804 0.0
C1390 C 0.99082 0.92498 0.52061 0.0
C1391 C 0.01304 0.94042 0.51466 0.0
H1392 H 0.95546 0.92855 0.53269 0.0
H1393 H 0.16266 0.0923 0.47614 0.0
H1394 H 0.25569 0.82817 0.80235 0.0
H1395 H 0.25139 0.83665 0.78251 0.0
H1396 H 0.31581 0.76512 0.77668 0.0
H1397 H 0.31978 0.75619 0.79633 0.0
H1398 H 0.28944 0.84961 0.76494 0.0
H1399 H 0.28999 0.7206 0.75668 0.0
H1400 H 0.27756 0.67342 0.76652 0.0
H1401 H 0.21365 0.72146 0.78652 0.0
H1402 H 0.22532 0.76877 0.77668 0.0
H1403 H 0.31222 0.81477 0.70821 0.0
H1404 H 0.3133 0.82215 0.72809 0.0
H1405 H 0.22322 0.78506 0.73057 0.0
H1406 H 0.22241 0.77681 0.71081 0.0
H1407 H 0.25698 0.75822 0.74445 0.0
H1408 H 0.23975 0.86182 0.73557 0.0
H1409 H 0.24853 0.91057 0.72627 0.0
H1410 H 0.33689 0.91632 0.74075 0.0
H1411 H 0.32881 0.86738 0.75002 0.0
C1412 C 0.26932 0.81465 0.79684 0.0
C1413 C 0.28773 0.79122 0.8009 0.0
C1414 C 0.26688 0.81955 0.78551 0.0
C1415 C 0.28287 0.80115 0.77811 0.0
C1416 C 0.30285 0.77923 0.78222 0.0
C1417 C 0.30508 0.77415 0.79347 0.0
C1418 C 0.27687 0.80268 0.76614 0.0
C1419 C 0.2823 0.82971 0.76043 0.0
C1420 C 0.26677 0.7769 0.76031 0.0
C1421 C 0.25873 0.74828 0.76599 0.0
C1422 C 0.27312 0.72104 0.76312 0.0
C1423 C 0.26624 0.69428 0.76871 0.0
C1424 C 0.2449 0.69446 0.77716 0.0
C1425 C 0.23024 0.72135 0.78 0.0
C1426 C 0.23698 0.74815 0.77441 0.0
C1427 C 0.29241 0.80879 0.71297 0.0
C1428 C 0.26731 0.79505 0.70794 0.0
C1429 C 0.29301 0.81307 0.72435 0.0
C1430 C 0.26831 0.80419 0.73088 0.0
C1431 C 0.24265 0.79191 0.72575 0.0
C1432 C 0.24218 0.7873 0.71444 0.0
C1433 C 0.27012 0.80508 0.74308 0.0
C1434 C 0.26394 0.77833 0.74889 0.0
C1435 C 0.27882 0.83133 0.74897 0.0
C1436 C 0.28376 0.8608 0.74342 0.0
C1437 C 0.26115 0.87337 0.73671 0.0
C1438 C 0.26598 0.90106 0.73145 0.0
C1439 C 0.29328 0.9165 0.7329 0.0
C1440 C 0.31577 0.90432 0.73963 0.0
C1441 C 0.31106 0.87662 0.7449 0.0
H1442 H 0.29698 0.93794 0.72882 0.0
H1443 H 0.23969 0.67374 0.78151 0.0
H1444 H 0.4707 0.06087 0.04619 0.0
H1445 H 0.46236 0.06249 0.02635 0.0
H1446 H 0.44586 0.96636 0.02618 0.0
H1447 H 0.45344 0.96464 0.04608 0.0
H1448 H 0.49402 0.98998 0.01139 0.0
H1449 H 0.38921 0.00596 0.02126 0.0
H1450 H 0.34765 0.03203 0.03088 0.0
H1451 H 0.37066 0.11524 0.01473 0.0
H1452 H 0.41267 0.08974 0.00512 0.0
H1453 H 0.46735 0.96945 0.95616 0.0
H1454 H 0.45644 0.96898 0.97576 0.0
H1455 H 0.45192 0.06649 0.97581 0.0
H1456 H 0.46197 0.06704 0.95604 0.0
H1457 H 0.41297 0.04307 0.9908 0.0
H1458 H 0.5169 0.03249 0.98184 0.0
H1459 H 0.56104 0.01123 0.97217 0.0
H1460 H 0.54459 0.9246 0.98695 0.0
H1461 H 0.49992 0.9452 0.99655 0.0
C1462 C 0.46464 0.04018 0.04197 0.0
C1463 C 0.46267 0.01262 0.04771 0.0
C1464 C 0.45988 0.04116 0.03064 0.0
C1465 C 0.45354 0.01455 0.02482 0.0
C1466 C 0.45067 0.98716 0.03055 0.0
C1467 C 0.45483 0.98625 0.04192 0.0
C1468 C 0.45235 0.01495 0.01267 0.0
C1469 C 0.476 1.00107 0.00688 0.0
C1470 C 0.4296 0.03069 0.00683 0.0
C1471 C 0.40427 0.046 0.01256 0.0
C1472 C 0.38559 0.02987 0.01984 0.0
C1473 C 0.36191 0.04454 0.02527 0.0
C1474 C 0.35657 0.07529 0.02344 0.0
C1475 C 0.37485 0.09142 0.01615 0.0
C1476 C 0.39857 0.07687 0.0107 0.0
C1477 C 0.4632 0.99077 0.96028 0.0
C1478 C 0.46579 0.0183 0.95459 0.0
C1479 C 0.45709 0.99048 0.9715 0.0
C1480 C 0.45414 0.01773 0.97732 0.0
C1481 C 0.45427 0.04519 0.9715 0.0
C1482 C 0.45997 0.04548 0.9602 0.0
C1483 C 0.45429 0.01746 0.98951 0.0
C1484 C 0.43079 0.03166 0.9953 0.0
C1485 C 0.47767 1.00273 0.99541 0.0
C1486 C 0.50489 0.99033 0.98984 0.0
C1487 C 0.52257 0.00885 0.98298 0.0
C1488 C 0.5477 0.99694 0.97752 0.0
C1489 C 0.55562 0.9666 0.97896 0.0
C1490 C 0.53843 0.94811 0.98586 0.0
C1491 C 0.51319 0.95989 0.99131 0.0
H1492 H 0.5751 0.95743 0.97473 0.0
H1493 H 0.33822 0.0866 0.02766 0.0
H1494 H 0.31893 0.21808 0.21307 0.0
H1495 H 0.32069 0.20734 0.23276 0.0
H1496 H 0.22449 0.19127 0.23281 0.0
H1497 H 0.2226 0.20132 0.21306 0.0
H1498 H 0.24741 0.23657 0.24843 0.0
H1499 H 0.26526 0.13373 0.23665 0.0
H1500 H 0.29187 0.09398 0.22625 0.0
H1501 H 0.37492 0.1161 0.24265 0.0
H1502 H 0.34889 0.1563 0.25304 0.0
H1503 H 0.22931 0.20228 0.30334 0.0
H1504 H 0.22816 0.1943 0.28356 0.0
H1505 H 0.32571 0.19077 0.28291 0.0
H1506 H 0.32693 0.19773 0.30285 0.0
H1507 H 0.30256 0.15394 0.26742 0.0
H1508 H 0.28981 0.2564 0.27827 0.0
H1509 H 0.26752 0.29833 0.28887 0.0
H1510 H 0.18104 0.28164 0.27402 0.0
H1511 H 0.20268 0.23914 0.26349 0.0
C1512 C 0.29825 0.21162 0.21723 0.0
C1513 C 0.27062 0.21049 0.2115 0.0
C1514 C 0.2993 0.20551 0.22847 0.0
C1515 C 0.27272 0.19857 0.23423 0.0
C1516 C 0.24526 0.19655 0.2285 0.0
C1517 C 0.24426 0.20211 0.2172 0.0
C1518 C 0.27327 0.1957 0.24635 0.0
C1519 C 0.25897 0.2182 0.25259 0.0
C1520 C 0.28954 0.17248 0.25175 0.0
C1521 C 0.30518 0.14822 0.24555 0.0
C1522 C 0.28926 0.13031 0.23797 0.0
C1523 C 0.30422 0.10765 0.23209 0.0
C1524 C 0.33508 0.10257 0.23377 0.0
C1525 C 0.35102 0.12008 0.24135 0.0
C1526 C 0.33617 0.14278 0.24724 0.0
C1527 C 0.2505 0.199 0.29903 0.0
C1528 C 0.27822 0.2009 0.30463 0.0
C1529 C 0.24983 0.19457 0.28771 0.0
C1530 C 0.27687 0.19274 0.2817 0.0
C1531 C 0.30455 0.19229 0.28737 0.0
C1532 C 0.30523 0.19624 0.29876 0.0
C1533 C 0.27616 0.1945 0.26952 0.0
C1534 C 0.2907 0.17211 0.26327 0.0
C1535 C 0.26079 0.21832 0.26407 0.0
C1536 C 0.24781 0.2444 0.27015 0.0
C1537 C 0.266 0.26156 0.2773 0.0
C1538 C 0.25349 0.28543 0.2833 0.0
C1539 C 0.22289 0.29264 0.28212 0.0
C1540 C 0.20475 0.27602 0.27492 0.0
C1541 C 0.21712 0.25203 0.26893 0.0
H1542 H 0.21325 0.31113 0.28677 0.0
H1543 H 0.34663 0.08501 0.22921 0.0
H1544 H 0.72993 0.28697 0.20509 0.0
H1545 H 0.72954 0.29789 0.22475 0.0
H1546 H 0.82587 0.31309 0.22396 0.0
H1547 H 0.82638 0.30278 0.2042 0.0
H1548 H 0.80422 0.26927 0.2401 0.0
H1549 H 0.7852 0.37127 0.22795 0.0
H1550 H 0.75832 0.41064 0.21745 0.0
H1551 H 0.67558 0.38876 0.23412 0.0
H1552 H 0.70187 0.34892 0.24461 0.0
H1553 H 0.81779 0.30206 0.29558 0.0
H1554 H 0.82127 0.31015 0.27582 0.0
H1555 H 0.72393 0.31582 0.27385 0.0
H1556 H 0.72048 0.30925 0.29375 0.0
H1557 H 0.74785 0.35147 0.25886 0.0
H1558 H 0.76203 0.24854 0.26971 0.0
H1559 H 0.78529 0.20771 0.2806 0.0
H1560 H 0.87188 0.22728 0.26629 0.0
H1561 H 0.84922 0.26865 0.25545 0.0
C1562 C 0.75095 0.29323 0.20905 0.0
C1563 C 0.77818 0.2941 0.20308 0.0
C1564 C 0.75068 0.29946 0.22029 0.0
C1565 C 0.77767 0.30628 0.22581 0.0
C1566 C 0.80479 0.30792 0.21983 0.0
C1567 C 0.805 0.30222 0.20854 0.0
C1568 C 0.77772 0.3097 0.23791 0.0
C1569 C 0.79241 0.28757 0.24421 0.0
C1570 C 0.76128 0.33289 0.24325 0.0
C1571 C 0.74546 0.35692 0.23699 0.0
C1572 C 0.76122 0.37466 0.22931 0.0
C1573 C 0.7461 0.39711 0.22338 0.0
C1574 C 0.71525 0.40215 0.2251 0.0
C1575 C 0.69947 0.38481 0.23278 0.0
C1576 C 0.71448 0.36232 0.23873 0.0
C1577 C 0.79719 0.30583 0.29097 0.0
C1578 C 0.76886 0.3048 0.29618 0.0
C1579 C 0.79917 0.31026 0.27966 0.0
C1580 C 0.77282 0.31269 0.27327 0.0
C1581 C 0.74459 0.31381 0.27857 0.0
C1582 C 0.74263 0.31007 0.28995 0.0
C1583 C 0.77461 0.31119 0.26109 0.0
C1584 C 0.76001 0.33339 0.25477 0.0
C1585 C 0.79052 0.2876 0.2557 0.0
C1586 C 0.80398 0.26188 0.26183 0.0
C1587 C 0.78605 0.24419 0.2689 0.0
C1588 C 0.79913 0.22098 0.27508 0.0
C1589 C 0.83006 0.21496 0.27416 0.0
C1590 C 0.84793 0.23201 0.267 0.0
C1591 C 0.83498 0.25534 0.26083 0.0
H1592 H 0.84017 0.19706 0.27898 0.0
H1593 H 0.70358 0.41954 0.2205 0.0
H1594 H 0.77349 0.66658 0.70512 0.0
H1595 H 0.7728 0.65827 0.72504 0.0
H1596 H 0.77268 0.75483 0.73027 0.0
H1597 H 0.77401 0.76321 0.71062 0.0
H1598 H 0.81186 0.7299 0.74338 0.0
H1599 H 0.70804 0.70929 0.73312 0.0
H1600 H 0.66755 0.68262 0.72311 0.0
H1601 H 0.69557 0.59829 0.73737 0.0
H1602 H 0.73649 0.62445 0.74736 0.0
H1603 H 0.75227 0.75985 0.79497 0.0
H1604 H 0.75769 0.75203 0.77535 0.0
H1605 H 0.77337 0.65689 0.78068 0.0
H1606 H 0.76801 0.66451 0.80058 0.0
H1607 H 0.73207 0.67143 0.76262 0.0
H1608 H 0.83191 0.6959 0.77504 0.0
H1609 H 0.86964 0.72526 0.78545 0.0
H1610 H 0.84676 0.80508 0.76718 0.0
H1611 H 0.80855 0.77631 0.75676 0.0
C1612 C 0.77326 0.68598 0.71053 0.0
C1613 C 0.77395 0.71554 0.70624 0.0
C1614 C 0.77277 0.68122 0.72192 0.0
C1615 C 0.77263 0.70594 0.7292 0.0
C1616 C 0.77303 0.73536 0.72487 0.0
C1617 C 0.77371 0.74011 0.71358 0.0
C1618 C 0.7724 0.70181 0.74134 0.0
C1619 C 0.79434 0.71714 0.74755 0.0
C1620 C 0.75012 0.68445 0.74686 0.0
C1621 C 0.72554 0.66875 0.74087 0.0
C1622 C 0.70572 0.68502 0.73405 0.0
C1623 C 0.68267 0.67001 0.72839 0.0
C1624 C 0.67906 0.63876 0.72957 0.0
C1625 C 0.69844 0.62248 0.73644 0.0
C1626 C 0.72155 0.63739 0.7421 0.0
C1627 C 0.75675 0.73715 0.79204 0.0
C1628 C 0.75979 0.71279 0.7994 0.0
C1629 C 0.7599 0.73276 0.78079 0.0
C1630 C 0.76616 0.70394 0.77655 0.0
C1631 C 0.76856 0.67933 0.78379 0.0
C1632 C 0.76561 0.68375 0.79515 0.0
C1633 C 0.7709 0.70035 0.76456 0.0
C1634 C 0.74992 0.68361 0.7584 0.0
C1635 C 0.79386 0.71668 0.75905 0.0
C1636 C 0.81725 0.73395 0.76515 0.0
C1637 C 0.8348 0.71975 0.77328 0.0
C1638 C 0.85629 0.73629 0.77918 0.0
C1639 C 0.86056 0.76702 0.77698 0.0
C1640 C 0.84343 0.78127 0.76886 0.0
C1641 C 0.82188 0.76484 0.76295 0.0
H1642 H 0.87718 0.7798 0.78157 0.0
H1643 H 0.6612 0.62718 0.72519 0.0
H1644 H 0.57822 0.55767 0.96079 0.0
H1645 H 0.58588 0.5519 0.98054 0.0
H1646 H 0.53031 0.4717 0.98036 0.0
H1647 H 0.52252 0.47725 0.96066 0.0
H1648 H 0.51211 0.51205 0.99586 0.0
H1649 H 0.60548 0.4664 0.98444 0.0
H1650 H 0.65412 0.46358 0.9746 0.0
H1651 H 0.6863 0.5414 0.99214 0.0
H1652 H 0.63765 0.54495 1.00199 0.0
H1653 H 0.52971 0.46194 0.04935 0.0
H1654 H 0.53625 0.46327 0.02953 0.0
H1655 H 0.58864 0.5452 0.03236 0.0
H1656 H 0.5824 0.54391 0.05237 0.0
H1657 H 0.61003 0.50584 0.01566 0.0
H1658 H 0.51704 0.55232 0.0268 0.0
H1659 H 0.46917 0.55478 0.03713 0.0
H1660 H 0.43657 0.47619 0.02016 0.0
H1661 H 0.48447 0.47302 0.00981 0.0
C1662 C 0.56807 0.53848 0.9649 0.0
C1663 C 0.54969 0.51798 0.9591 0.0
C1664 C 0.57251 0.5352 0.97621 0.0
C1665 C 0.55864 0.51138 0.98195 0.0
C1666 C 0.54117 0.49031 0.97612 0.0
C1667 C 0.53688 0.49344 0.96482 0.0
C1668 C 0.56057 0.50951 0.99412 0.0
C1669 C 0.53354 0.51028 1.00016 0.0
C1670 C 0.58854 0.50819 0.99978 0.0
C1671 C 0.61779 0.50614 0.99386 0.0
C1672 C 0.62282 0.48309 0.98613 0.0
C1673 C 0.65042 0.48132 0.98056 0.0
C1674 C 0.67326 0.50235 0.98272 0.0
C1675 C 0.66857 0.52515 0.99047 0.0
C1676 C 0.641 0.52704 0.99605 0.0
C1677 C 0.54307 0.48002 0.04581 0.0
C1678 C 0.55518 0.50307 0.05244 0.0
C1679 C 0.54679 0.48073 0.03446 0.0
C1680 C 0.56244 0.50463 0.02945 0.0
C1681 C 0.57638 0.5266 0.03607 0.0
C1682 C 0.57279 0.52583 0.04749 0.0
C1683 C 0.56159 0.50793 0.01732 0.0
C1684 C 0.58869 0.50763 0.01132 0.0
C1685 C 0.53369 0.50988 0.01165 0.0
C1686 C 0.50444 0.51229 0.01759 0.0
C1687 C 0.49972 0.53548 0.0253 0.0
C1688 C 0.47259 0.537 0.03117 0.0
C1689 C 0.44989 0.51559 0.02934 0.0
C1690 C 0.4542 0.49273 0.02158 0.0
C1691 C 0.48132 0.49109 0.0157 0.0
H1692 H 0.42894 0.51676 0.03392 0.0
H1693 H 0.69462 0.50093 0.97841 0.0
H1694 H 0.96882 0.44956 0.5492 0.0
H1695 H 0.96186 0.45142 0.52928 0.0
H1696 H 0.96879 0.54868 0.53005 0.0
H1697 H 0.97668 0.54696 0.54993 0.0
H1698 H 0.92141 0.52005 0.51463 0.0
H1699 H 0.02775 0.52052 0.52477 0.0
H1700 H 0.07274 0.50091 0.53438 0.0
H1701 H 0.06247 0.41533 0.51814 0.0
H1702 H 0.01698 0.43426 0.50861 0.0
H1703 H 0.9631 0.55236 0.4592 0.0
H1704 H 0.95579 0.55007 0.47906 0.0
H1705 H 0.98433 0.45665 0.47903 0.0
H1706 H 0.99294 0.4593 0.45931 0.0
H1707 H 0.01164 0.48302 0.49448 0.0
H1708 H 0.90771 0.48136 0.48349 0.0
H1709 H 0.86182 0.49887 0.47391 0.0
H1710 H 0.86539 0.58306 0.49142 0.0
H1711 H 0.91156 0.56621 0.50101 0.0
C1712 C 0.96799 0.4714 0.54518 0.0
C1713 C 0.97327 0.49813 0.55113 0.0
C1714 C 0.96413 0.47241 0.5338 0.0
C1715 C 0.9649 0.50018 0.52821 0.0
C1716 C 0.96799 0.52705 0.53422 0.0
C1717 C 0.97252 0.52602 0.54556 0.0
C1718 C 0.96598 0.50094 0.51606 0.0
C1719 C 0.94116 0.5122 0.51018 0.0
C1720 C 0.99153 0.49012 0.5103 0.0
C1721 C 0.01875 0.47869 0.51609 0.0
C1722 C 0.03485 0.4974 0.52336 0.0
C1723 C 0.06049 0.48644 0.52876 0.0
C1724 C 0.07045 0.45689 0.52687 0.0
C1725 C 0.05472 0.43821 0.5196 0.0
C1726 C 0.029 0.44904 0.5142 0.0
C1727 C 0.9674 0.53123 0.46341 0.0
C1728 C 0.97863 0.50603 0.45767 0.0
C1729 C 0.9631 0.52988 0.47479 0.0
C1730 C 0.96923 0.50308 0.48062 0.0
C1731 C 0.97954 0.47765 0.47479 0.0
C1732 C 0.98435 0.47915 0.46349 0.0
C1733 C 0.96682 0.50189 0.49283 0.0
C1734 C 0.99161 0.49068 0.49881 0.0
C1735 C 0.94105 0.51244 0.49863 0.0
C1736 C 0.91326 0.52263 0.49289 0.0
C1737 C 0.89884 0.5037 0.48524 0.0
C1738 C 0.87276 0.51349 0.47982 0.0
C1739 C 0.86074 0.54209 0.48203 0.0
C1740 C 0.87475 0.56093 0.4897 0.0
C1741 C 0.90085 0.55126 0.49514 0.0
H1742 H 0.84055 0.54963 0.47782 0.0
H1743 H 0.09042 0.44848 0.531 0.0
H1744 H 0.20148 0.76318 0.64219 0.0
H1745 H 0.16631 0.79454 0.63178 0.0
H1746 H 0.1568 0.85433 0.65952 0.0
H1747 H 0.19153 0.82215 0.67015 0.0
H1748 H 0.10345 0.84843 0.64822 0.0
H1749 H 0.20801 0.87041 0.63896 0.0
H1750 H 0.25975 0.85739 0.63293 0.0
H1751 H 0.22459 0.82082 0.60297 0.0
H1752 H 0.17265 0.83367 0.60877 0.0
H1753 H 0.05766 0.97931 0.6196 0.0
H1754 H 0.08539 0.94281 0.63064 0.0
H1755 H 0.09618 0.88524 0.60238 0.0
H1756 H 0.06873 0.92205 0.59113 0.0
H1757 H 0.14778 0.88884 0.61381 0.0
H1758 H 0.04432 0.86878 0.62206 0.0
H1759 H 0.99205 0.8814 0.62745 0.0
H1760 H 0.02356 0.91191 0.65884 0.0
H1761 H 0.07613 0.89998 0.65356 0.0
C1762 C 0.19134 0.78264 0.64615 0.0
C1763 C 0.19931 0.79041 0.65694 0.0
C1764 C 0.1714 0.80065 0.64018 0.0
C1765 C 0.15959 0.82726 0.64476 0.0
C1766 C 0.16585 0.834 0.6558 0.0
C1767 C 0.18555 0.81559 0.66188 0.0
C1768 C 0.14265 0.84894 0.63775 0.0
C1769 C 0.11326 0.85759 0.64078 0.0
C1770 C 0.15514 0.86026 0.62786 0.0
C1771 C 0.18643 0.85283 0.62433 0.0
C1772 C 0.2113 0.85948 0.6311 0.0
C1773 C 0.24065 0.85214 0.62773 0.0
C1774 C 0.24541 0.83817 0.61761 0.0
C1775 C 0.22086 0.83162 0.61081 0.0
C1776 C 0.19148 0.83902 0.61411 0.0
C1777 C 0.06599 0.95899 0.61567 0.0
C1778 C 0.06089 0.95368 0.60444 0.0
C1779 C 0.08171 0.938 0.62204 0.0
C1780 C 0.09245 0.91103 0.61739 0.0
C1781 C 0.08798 0.90586 0.60615 0.0
C1782 C 0.07229 0.92694 0.59973 0.0
C1783 C 0.10858 0.88847 0.62429 0.0
C1784 C 0.13789 0.87968 0.62125 0.0
C1785 C 0.09588 0.87688 0.63411 0.0
C1786 C 0.06423 0.88373 0.63737 0.0
C1787 C 0.04015 0.87839 0.63008 0.0
C1788 C 0.01045 0.88539 0.63312 0.0
C1789 C 0.00449 0.8975 0.64347 0.0
C1790 C 0.02822 0.90255 0.65082 0.0
C1791 C 0.05797 0.89566 0.64781 0.0
H1792 H 0.98149 0.9029 0.64581 0.0
H1793 H 0.26815 0.83256 0.61502 0.0
H1794 H 0.30683 0.78534 0.86903 0.0
H1795 H 0.34293 0.81467 0.87968 0.0
H1796 H 0.38879 0.84115 0.84997 0.0
H1797 H 0.35311 0.81065 0.8392 0.0
H1798 H 0.42903 0.83086 0.8657 0.0
H1799 H 0.33802 0.88865 0.86294 0.0
H1800 H 0.28303 0.89745 0.86415 0.0
H1801 H 0.28555 0.88032 0.89877 0.0
H1802 H 0.34052 0.87095 0.89774 0.0
H1803 H 0.49976 0.96179 0.88779 0.0
H1804 H 0.46958 0.92562 0.8775 0.0
H1805 H 0.42895 0.89384 0.90751 0.0
H1806 H 0.45909 0.93044 0.91797 0.0
H1807 H 0.38688 0.90638 0.89165 0.0
H1808 H 0.48016 0.85037 0.89387 0.0
H1809 H 0.53527 0.84339 0.89192 0.0
H1810 H 0.52873 0.86083 0.8574 0.0
H1811 H 0.4736 0.86825 0.85916 0.0
C1812 C 0.32459 0.79734 0.86473 0.0
C1813 C 0.32682 0.79601 0.85324 0.0
C1814 C 0.34524 0.81417 0.87084 0.0
C1815 C 0.3682 0.83073 0.86563 0.0
C1816 C 0.37116 0.82869 0.85418 0.0
C1817 C 0.3507 0.81137 0.84803 0.0
C1818 C 0.38829 0.85089 0.87215 0.0
C1819 C 0.41982 0.84761 0.87128 0.0
C1820 C 0.37632 0.87254 0.87955 0.0
C1821 C 0.34336 0.87884 0.88024 0.0
C1822 C 0.32683 0.88661 0.8708 0.0
C1823 C 0.29566 0.89169 0.87145 0.0
C1824 C 0.28079 0.88936 0.88152 0.0
C1825 C 0.29709 0.88208 0.89097 0.0
C1826 C 0.32827 0.8769 0.89036 0.0
C1827 C 0.48458 0.94703 0.89226 0.0
C1828 C 0.48175 0.94917 0.90374 0.0
C1829 C 0.46744 0.92619 0.88634 0.0
C1830 C 0.44714 0.90687 0.89173 0.0
C1831 C 0.44455 0.90853 0.90319 0.0
C1832 C 0.46185 0.92937 0.90916 0.0
C1833 C 0.42756 0.88613 0.88529 0.0
C1834 C 0.39608 0.88947 0.88613 0.0
C1835 C 0.43963 0.86492 0.87776 0.0
C1836 C 0.47274 0.86001 0.87666 0.0
C1837 C 0.49048 0.85285 0.88587 0.0
C1838 C 0.52172 0.84875 0.8848 0.0
C1839 C 0.53547 0.85158 0.87454 0.0
C1840 C 0.51802 0.85853 0.86533 0.0
C1841 C 0.48677 0.86264 0.86636 0.0
H1842 H 0.55967 0.84848 0.87373 0.0
H1843 H 0.25665 0.89327 0.88201 0.0
H1844 H 0.4741 0.038 0.11767 0.0
H1845 H 0.44581 0.0726 0.12926 0.0
H1846 H 0.42207 0.12614 0.10099 0.0
H1847 H 0.45104 0.09167 0.08922 0.0
H1848 H 0.43754 0.16174 0.11834 0.0
H1849 H 0.37141 0.07784 0.11217 0.0
H1850 H 0.35766 0.02381 0.11147 0.0
H1851 H 0.37286 0.01598 0.14611 0.0
H1852 H 0.38726 0.06987 0.14698 0.0
H1853 H 0.3108 0.23679 0.14242 0.0
H1854 H 0.34463 0.20613 0.13116 0.0
H1855 H 0.37593 0.15937 0.16002 0.0
H1856 H 0.3423 0.1905 0.17145 0.0
H1857 H 0.35695 0.12078 0.14249 0.0
H1858 H 0.4242 0.2041 0.14853 0.0
H1859 H 0.44062 0.25735 0.14909 0.0
H1860 H 0.4226 0.26629 0.11467 0.0
H1861 H 0.4061 0.21296 0.1139 0.0
C1862 C 0.46291 0.05707 0.11384 0.0
C1863 C 0.46467 0.06181 0.10245 0.0
C1864 C 0.44664 0.07685 0.12052 0.0
C1865 C 0.4314 0.10172 0.11599 0.0
C1866 C 0.43356 0.107 0.10466 0.0
C1867 C 0.45 0.08719 0.09794 0.0
C1868 C 0.41294 0.12181 0.12314 0.0
C1869 C 0.41961 0.15286 0.12349 0.0
C1870 C 0.39 0.11012 0.13007 0.0
C1871 C 0.38068 0.07785 0.12962 0.0
C1872 C 0.372 0.06456 0.11963 0.0
C1873 C 0.36409 0.03396 0.1192 0.0
C1874 C 0.36445 0.01646 0.12873 0.0
C1875 C 0.37263 0.02956 0.13873 0.0
C1876 C 0.38065 0.06014 0.13919 0.0
C1877 C 0.32503 0.22015 0.14641 0.0
C1878 C 0.32376 0.21597 0.15784 0.0
C1879 C 0.34446 0.20275 0.13995 0.0
C1880 C 0.36283 0.18053 0.14475 0.0
C1881 C 0.36195 0.17646 0.15617 0.0
C1882 C 0.34282 0.1943 0.16268 0.0
C1883 C 0.38166 0.16063 0.13771 0.0
C1884 C 0.37491 0.12962 0.13734 0.0
C1885 C 0.4044 0.17238 0.13073 0.0
C1886 C 0.41363 0.20463 0.13118 0.0
C1887 C 0.42344 0.2175 0.1411 0.0
C1888 C 0.43287 0.24767 0.14145 0.0
C1889 C 0.43255 0.26526 0.13193 0.0
C1890 C 0.42283 0.25266 0.12204 0.0
C1891 C 0.41352 0.22242 0.12164 0.0
H1892 H 0.43988 0.28862 0.13222 0.0
H1893 H 0.35835 0.99276 0.12838 0.0
H1894 H 0.04984 0.02716 0.3903 0.0
H1895 H 0.0817 0.0612 0.37975 0.0
H1896 H 0.09887 0.11431 0.40874 0.0
H1897 H 0.06592 0.08071 0.41939 0.0
H1898 H 0.08983 0.15044 0.39183 0.0
H1899 H 0.15157 0.06352 0.39833 0.0
H1900 H 0.16387 0.0091 0.39859 0.0
H1901 H 0.15507 0.00534 0.36358 0.0
H1902 H 0.14219 0.05966 0.36313 0.0
H1903 H 0.22239 0.22415 0.37238 0.0
H1904 H 0.18644 0.19239 0.38223 0.0
H1905 H 0.15978 0.1502 0.35187 0.0
H1906 H 0.19579 0.18226 0.34185 0.0
H1907 H 0.17322 0.10888 0.36912 0.0
H1908 H 0.1128 0.19759 0.36306 0.0
H1909 H 0.10193 0.2523 0.36339 0.0
H1910 H 0.1109 0.25297 0.39842 0.0
H1911 H 0.12229 0.19832 0.39829 0.0
C1912 C 0.0604 0.04599 0.3945 0.0
C1913 C 0.05549 0.05097 0.40576 0.0
C1914 C 0.07876 0.06543 0.38842 0.0
C1915 C 0.0932 0.09004 0.39347 0.0
C1916 C 0.08808 0.09539 0.40467 0.0
C1917 C 0.06936 0.07607 0.41076 0.0
C1918 C 0.11363 0.11003 0.387 0.0
C1919 C 0.10831 0.14136 0.38699 0.0
C1920 C 0.13743 0.09819 0.38049 0.0
C1921 C 0.14564 0.06561 0.38071 0.0
C1922 C 0.15207 0.05105 0.3907 0.0
C1923 C 0.15915 0.02022 0.39088 0.0
C1924 C 0.16019 0.00376 0.38111 0.0
C1925 C 0.15422 0.01812 0.37114 0.0
C1926 C 0.14705 0.04893 0.37092 0.0
C1927 C 0.2088 0.20828 0.36774 0.0
C1928 C 0.212 0.20576 0.3563 0.0
C1929 C 0.18817 0.19019 0.3734 0.0
C1930 C 0.17035 0.16905 0.36778 0.0
C1931 C 0.17332 0.16645 0.35636 0.0
C1932 C 0.19378 0.18486 0.35064 0.0
C1933 C 0.14934 0.14915 0.37396 0.0
C1934 C 0.15465 0.11786 0.37394 0.0
C1935 C 0.1258 0.16106 0.38054 0.0
C1936 C 0.11867 0.19389 0.38065 0.0
C1937 C 0.11269 0.20944 0.37083 0.0
C1938 C 0.10639 0.24044 0.37098 0.0
C1939 C 0.10579 0.25612 0.38092 0.0
C1940 C 0.1114 0.2408 0.39073 0.0
C1941 C 0.11775 0.2098 0.39062 0.0
H1942 H 0.10092 0.28012 0.38102 0.0
H1943 H 0.16566 0.97989 0.38127 0.0
H1944 H 0.96243 0.02929 0.38751 0.0
H1945 H 0.92543 0.05771 0.3767 0.0
H1946 H 0.8591 0.04592 0.40227 0.0
H1947 H 0.89625 0.0172 0.4131 0.0
H1948 H 0.83384 0.04252 0.38055 0.0
H1949 H 0.89157 0.11027 0.40257 0.0
H1950 H 0.93705 0.1326 0.41085 0.0
H1951 H 0.97234 0.15275 0.37886 0.0
H1952 H 0.92658 0.13079 0.37038 0.0
H1953 H 0.74959 0.17658 0.36191 0.0
H1954 H 0.77477 0.1377 0.37313 0.0
H1955 H 0.85137 0.13915 0.35125 0.0
H1956 H 0.82687 0.17728 0.34012 0.0
H1957 H 0.86713 0.1477 0.37291 0.0
H1958 H 0.80499 0.08041 0.35114 0.0
H1959 H 0.75667 0.06063 0.34403 0.0
H1960 H 0.72724 0.0411 0.37681 0.0
H1961 H 0.77526 0.06119 0.38414 0.0
C1962 C 0.93966 0.0318 0.39064 0.0
C1963 C 0.93199 0.02066 0.40104 0.0
C1964 C 0.9186 0.04831 0.38452 0.0
C1965 C 0.88953 0.0541 0.3887 0.0
C1966 C 0.88132 0.04162 0.39886 0.0
C1967 C 0.90252 0.02526 0.40503 0.0
C1968 C 0.86907 0.07556 0.38292 0.0
C1969 C 0.84089 0.06563 0.37898 0.0
C1970 C 0.87815 0.10573 0.3809 0.0
C1971 C 0.9059 0.11857 0.38586 0.0
C1972 C 0.90917 0.11921 0.3973 0.0
C1973 C 0.93499 0.13187 0.40203 0.0
C1974 C 0.95783 0.14381 0.39539 0.0
C1975 C 0.9547 0.14337 0.384 0.0
C1976 C 0.92876 0.13095 0.37922 0.0
C1977 C 0.77159 0.16826 0.35941 0.0
C1978 C 0.78615 0.18032 0.35011 0.0
C1979 C 0.78593 0.14603 0.36582 0.0
C1980 C 0.81501 0.1356 0.36303 0.0
C1981 C 0.82902 0.14692 0.35359 0.0
C1982 C 0.81482 0.16883 0.34721 0.0
C1983 C 0.83224 0.1145 0.3702 0.0
C1984 C 0.85991 0.12462 0.37447 0.0
C1985 C 0.82237 0.08474 0.3726 0.0
C1986 C 0.79355 0.07265 0.3682 0.0
C1987 C 0.7881 0.07218 0.35684 0.0
C1988 C 0.76079 0.06085 0.35277 0.0
C1989 C 0.73886 0.04971 0.35997 0.0
C1990 C 0.74423 0.04979 0.37125 0.0
C1991 C 0.77149 0.06114 0.37537 0.0
H1992 H 0.71774 0.04093 0.3568 0.0
H1993 H 0.97785 0.15357 0.39908 0.0
H1994 H 0.60522 0.98391 0.10628 0.0
H1995 H 0.64927 0.0051 0.11594 0.0
H1996 H 0.61983 0.09524 0.10742 0.0
H1997 H 0.57728 0.0745 0.09754 0.0
H1998 H 0.67641 0.09392 0.10508 0.0
H1999 H 0.60755 0.06003 0.13344 0.0
H2000 H 0.57731 0.02187 0.14333 0.0
H2001 H 0.65794 0.97125 0.15039 0.0
H2002 H 0.68861 0.00895 0.14039 0.0
H2003 H 0.71338 0.16526 0.16049 0.0
H2004 H 0.68808 0.12653 0.14993 0.0
H2005 H 0.76408 0.12236 0.12776 0.0
H2006 H 0.78928 0.16274 0.13812 0.0
H2007 H 0.69372 0.07184 0.1444 0.0
H2008 H 0.73812 0.10675 0.10187 0.0
H2009 H 0.75952 0.15108 0.09229 0.0
H2010 H 0.71459 0.21055 0.11488 0.0
H2011 H 0.69261 0.16659 0.12448 0.0
C2012 C 0.60834 0.00821 0.10645 0.0
C2013 C 0.5877 0.02743 0.1011 0.0
C2014 C 0.63348 0.02033 0.11199 0.0
C2015 C 0.63797 0.05188 0.11246 0.0
C2016 C 0.61728 0.07086 0.10711 0.0
C2017 C 0.5927 0.05886 0.10147 0.0
C2018 C 0.66333 0.06593 0.11874 0.0
C2019 C 0.68042 0.08878 0.11365 0.0
C2020 C 0.66862 0.05952 0.12995 0.0
C2021 C 0.6503 0.03706 0.13606 0.0
C2022 C 0.61879 0.04066 0.13705 0.0
C2023 C 0.60158 0.01913 0.14267 0.0
C2024 C 0.61568 0.99409 0.14745 0.0
C2025 C 0.64704 0.99061 0.14665 0.0
C2026 C 0.66435 0.01204 0.14101 0.0
C2027 C 0.72504 0.15611 0.15342 0.0
C2028 C 0.75331 0.16763 0.15008 0.0
C2029 C 0.7105 0.1336 0.14741 0.0
C2030 C 0.72383 0.12163 0.13792 0.0
C2031 C 0.75298 0.1316 0.13493 0.0
C2032 C 0.76747 0.1546 0.1409 0.0
C2033 C 0.70571 0.10083 0.13085 0.0
C2034 C 0.69024 0.07649 0.13576 0.0
C2035 C 0.70078 0.10681 0.11959 0.0
C2036 C 0.71413 0.13339 0.11397 0.0
C2037 C 0.73285 0.1293 0.10478 0.0
C2038 C 0.74503 0.15435 0.09935 0.0
C2039 C 0.73845 0.1836 0.10298 0.0
C2040 C 0.7197 0.18788 0.11208 0.0
C2041 C 0.70741 0.16291 0.11752 0.0
H2042 H 0.74783 0.20294 0.09874 0.0
H2043 H 0.60232 0.97744 0.1518 0.0
H2044 H 0.78468 0.84079 0.86037 0.0
H2045 H 0.75947 0.88108 0.87088 0.0
H2046 H 0.67791 0.82732 0.87213 0.0
H2047 H 0.70257 0.78807 0.8613 0.0
H2048 H 0.66247 0.88038 0.86692 0.0
H2049 H 0.72668 0.83949 0.8949 0.0
H2050 H 0.77482 0.82339 0.9033 0.0
H2051 H 0.80885 0.91418 0.90095 0.0
H2052 H 0.76103 0.93074 0.8924 0.0
H2053 H 0.61001 0.9534 0.91948 0.0
H2054 H 0.6478 0.92291 0.91013 0.0
H2055 H 0.64271 0.98178 0.88202 0.0
H2056 H 0.60486 0.01295 0.89142 0.0
H2057 H 0.70342 0.92946 0.90033 0.0
H2058 H 0.63684 0.934 0.85958 0.0
H2059 H 0.58488 0.94524 0.85333 0.0
H2060 H 0.54962 0.91724 0.88451 0.0
H2061 H 0.6012 0.90511 0.89083 0.0
C2062 C 0.76159 0.8375 0.8631 0.0
C2063 C 0.74557 0.81138 0.86008 0.0
C2064 C 0.74712 0.86051 0.86908 0.0
C2065 C 0.71664 0.8574 0.87232 0.0
C2066 C 0.70123 0.83061 0.86964 0.0
C2067 C 0.71542 0.80803 0.86353 0.0
C2068 C 0.70017 0.88214 0.87816 0.0
C2069 C 0.67166 0.89117 0.87418 0.0
C2070 C 0.71168 0.89613 0.88775 0.0
C2071 C 0.74042 0.88627 0.8929 0.0
C2072 C 0.74452 0.85597 0.8961 0.0
C2073 C 0.77173 0.84677 0.9009 0.0
C2074 C 0.79491 0.86773 0.90263 0.0
C2075 C 0.7909 0.89796 0.89959 0.0
C2076 C 0.76374 0.90726 0.89477 0.0
C2077 C 0.61738 0.96047 0.91142 0.0
C2078 C 0.60398 0.98551 0.90616 0.0
C2079 C 0.63917 0.94297 0.90609 0.0
C2080 C 0.64784 0.94982 0.89533 0.0
C2081 C 0.63615 0.97597 0.89031 0.0
C2082 C 0.61451 0.99378 0.8957 0.0
C2083 C 0.66609 0.92753 0.88903 0.0
C2084 C 0.69472 0.91895 0.89294 0.0
C2085 C 0.65422 0.91306 0.87963 0.0
C2086 C 0.62296 0.91909 0.87572 0.0
C2087 C 0.61798 0.93007 0.86507 0.0
C2088 C 0.58858 0.93657 0.86152 0.0
C2089 C 0.56398 0.93207 0.86854 0.0
C2090 C 0.56869 0.92084 0.8791 0.0
C2091 C 0.59799 0.91409 0.88266 0.0
H2092 H 0.54127 0.93721 0.86579 0.0
H2093 H 0.81596 0.86057 0.90635 0.0
H2094 H 0.8221 0.79323 0.64401 0.0
H2095 H 0.84693 0.83473 0.63443 0.0
H2096 H 0.76505 0.88757 0.63634 0.0
H2097 H 0.73976 0.84542 0.64603 0.0
H2098 H 0.80247 0.89332 0.61542 0.0
H2099 H 0.81005 0.9057 0.65422 0.0
H2100 H 0.81813 0.88958 0.67333 0.0
H2101 H 0.90833 0.861 0.6654 0.0
H2102 H 0.9008 0.87684 0.64619 0.0
H2103 H 0.90675 0.01805 0.60435 0.0
H2104 H 0.86555 0.9907 0.6138 0.0
H2105 H 0.92444 0.91378 0.61814 0.0
H2106 H 0.96493 0.94045 0.60856 0.0
H2107 H 0.8899 0.93021 0.63721 0.0
H2108 H 0.87912 0.91179 0.59807 0.0
H2109 H 0.87211 0.92899 0.57902 0.0
H2110 H 0.78731 0.96986 0.58778 0.0
H2111 H 0.79416 0.9534 0.60696 0.0
C2112 C 0.8091 0.81338 0.64214 0.0
C2113 C 0.77908 0.81625 0.64577 0.0
C2114 C 0.82333 0.83709 0.63668 0.0
C2115 C 0.80798 0.86437 0.63481 0.0
C2116 C 0.77725 0.86665 0.63771 0.0
C2117 C 0.7628 0.84262 0.64319 0.0
C2118 C 0.82562 0.89089 0.63092 0.0
C2119 C 0.82107 0.90205 0.62028 0.0
C2120 C 0.85008 0.90207 0.63723 0.0
C2121 C 0.85481 0.8924 0.64876 0.0
C2122 C 0.83155 0.89579 0.65653 0.0
C2123 C 0.83604 0.88675 0.66738 0.0
C2124 C 0.8637 0.87431 0.67057 0.0
C2125 C 0.88694 0.87075 0.66291 0.0
C2126 C 0.8826 0.87984 0.65204 0.0
C2127 C 0.91083 0.99546 0.60747 0.0
C2128 C 0.93885 0.98124 0.60571 0.0
C2129 C 0.88736 0.97986 0.6128 0.0
C2130 C 0.89197 0.95018 0.61663 0.0
C2131 C 0.9204 0.93663 0.61526 0.0
C2132 C 0.94346 0.95185 0.60976 0.0
C2133 C 0.86719 0.9322 0.62164 0.0
C2134 C 0.87066 0.92235 0.63248 0.0
C2135 C 0.84175 0.92245 0.61553 0.0
C2136 C 0.83733 0.93173 0.60397 0.0
C2137 C 0.8591 0.92467 0.59595 0.0
C2138 C 0.85516 0.93426 0.58513 0.0
C2139 C 0.82933 0.95059 0.5822 0.0
C2140 C 0.80734 0.95727 0.59007 0.0
C2141 C 0.81125 0.94783 0.60092 0.0
H2142 H 0.82631 0.95801 0.57381 0.0
H2143 H 0.86716 0.86757 0.679 0.0
H2144 H 0.72632 0.27249 0.13481 0.0
H2145 H 0.68782 0.30024 0.12478 0.0
H2146 H 0.65208 0.33521 0.15513 0.0
H2147 H 0.69048 0.30663 0.16537 0.0
H2148 H 0.60667 0.32131 0.14092 0.0
H2149 H 0.69785 0.37986 0.13934 0.0
H2150 H 0.75225 0.38865 0.13624 0.0
H2151 H 0.74268 0.36108 0.10268 0.0
H2152 H 0.6881 0.35221 0.10559 0.0
H2153 H 0.53786 0.45466 0.12028 0.0
H2154 H 0.56717 0.4156 0.12945 0.0
H2155 H 0.59606 0.3808 0.09813 0.0
H2156 H 0.56649 0.42028 0.08879 0.0
H2157 H 0.64345 0.39181 0.11219 0.0
H2158 H 0.54876 0.33963 0.11396 0.0
H2159 H 0.49435 0.33334 0.11782 0.0
H2160 H 0.51007 0.35149 0.1519 0.0
H2161 H 0.56456 0.35826 0.14824 0.0
C2162 C 0.7103 0.28597 0.13942 0.0
C2163 C 0.71184 0.28762 0.15093 0.0
C2164 C 0.68823 0.30189 0.13363 0.0
C2165 C 0.66738 0.32032 0.13916 0.0
C2166 C 0.66803 0.32123 0.15068 0.0
C2167 C 0.69006 0.30499 0.15652 0.0
C2168 C 0.64592 0.3395 0.1328 0.0
C2169 C 0.61468 0.33697 0.13472 0.0
C2170 C 0.65629 0.35951 0.12454 0.0
C2171 C 0.68899 0.36511 0.12271 0.0
C2172 C 0.70739 0.37552 0.13132 0.0
C2173 C 0.73825 0.38053 0.12959 0.0
C2174 C 0.75098 0.37522 0.11929 0.0
C2175 C 0.73281 0.36512 0.11066 0.0
C2176 C 0.70188 0.3602 0.11233 0.0
C2177 C 0.55011 0.43853 0.11529 0.0
C2178 C 0.54999 0.44076 0.10377 0.0
C2179 C 0.56671 0.416 0.12057 0.0
C2180 C 0.58367 0.39511 0.1145 0.0
C2181 C 0.583 0.39664 0.10298 0.0
C2182 C 0.56605 0.41912 0.09765 0.0
C2183 C 0.60411 0.37366 0.12027 0.0
C2184 C 0.6353 0.3759 0.11829 0.0
C2185 C 0.5936 0.35376 0.12856 0.0
C2186 C 0.56078 0.34969 0.1308 0.0
C2187 C 0.54061 0.34253 0.12227 0.0
C2188 C 0.50974 0.33882 0.12442 0.0
C2189 C 0.49875 0.34207 0.13509 0.0
C2190 C 0.51862 0.34898 0.14364 0.0
C2191 C 0.54951 0.35271 0.14153 0.0
H2192 H 0.47484 0.3392 0.13675 0.0
H2193 H 0.77491 0.37904 0.11798 0.0
H2194 H 0.85228 0.3015 0.33938 0.0
H2195 H 0.88642 0.32944 0.35158 0.0
H2196 H 0.81392 0.34106 0.37483 0.0
H2197 H 0.78 0.31263 0.36295 0.0
H2198 H 0.84803 0.39503 0.37011 0.0
H2199 H 0.86214 0.29061 0.38041 0.0
H2200 H 0.87374 0.23687 0.37697 0.0
H2201 H 0.96218 0.26112 0.36534 0.0
H2202 H 0.95091 0.3151 0.36853 0.0
H2203 H 0.92874 0.44589 0.41675 0.0
H2204 H 0.89713 0.41169 0.40568 0.0
H2205 H 0.97072 0.40001 0.38284 0.0
H2206 H 1.00189 0.4347 0.3937 0.0
H2207 H 0.9369 0.34534 0.3873 0.0
H2208 H 0.92415 0.44816 0.37619 0.0
H2209 H 0.91371 0.5026 0.37837 0.0
H2210 H 0.82442 0.48236 0.39017 0.0
H2211 H 0.83458 0.42768 0.38829 0.0
C2212 C 0.84353 0.31016 0.34705 0.0
C2213 C 0.81326 0.30492 0.35012 0.0
C2214 C 0.86311 0.326 0.35403 0.0
C2215 C 0.85266 0.33722 0.36411 0.0
C2216 C 0.82238 0.33265 0.36708 0.0
C2217 C 0.803 0.3164 0.36023 0.0
C2218 C 0.87322 0.35357 0.37167 0.0
C2219 C 0.86722 0.38407 0.37399 0.0
C2220 C 0.89869 0.3394 0.37649 0.0
C2221 C 0.90555 0.30695 0.37459 0.0
C2222 C 0.88396 0.28453 0.37702 0.0
C2223 C 0.89049 0.25401 0.37513 0.0
C2224 C 0.91865 0.24559 0.37091 0.0
C2225 C 0.94036 0.26768 0.36859 0.0
C2226 C 0.93391 0.29824 0.37044 0.0
C2227 C 0.93831 0.43526 0.40954 0.0
C2228 C 0.96767 0.44257 0.40608 0.0
C2229 C 0.92028 0.41595 0.4032 0.0
C2230 C 0.93161 0.40344 0.39342 0.0
C2231 C 0.96162 0.4093 0.39036 0.0
C2232 C 0.97936 0.42906 0.39656 0.0
C2233 C 0.91142 0.38669 0.38584 0.0
C2234 C 0.91758 0.35622 0.38348 0.0
C2235 C 0.88627 0.40095 0.38086 0.0
C2236 C 0.88026 0.43379 0.38223 0.0
C2237 C 0.90243 0.45527 0.37939 0.0
C2238 C 0.89653 0.48618 0.38053 0.0
C2239 C 0.86839 0.49592 0.38438 0.0
C2240 C 0.84618 0.47476 0.38717 0.0
C2241 C 0.85202 0.4438 0.38609 0.0
H2242 H 0.8638 0.51987 0.3852 0.0
H2243 H 0.92368 0.22195 0.36947 0.0
H2244 H 1.001 0.54044 0.61989 0.0
H2245 H 0.97207 0.57573 0.63097 0.0
H2246 H 0.93678 0.61754 0.60172 0.0
H2247 H 0.96622 0.58212 0.59041 0.0
H2248 H 0.95008 0.65978 0.61796 0.0
H2249 H 0.89096 0.56911 0.61495 0.0
H2250 H 0.88123 0.51426 0.61549 0.0
H2251 H 0.90884 0.51135 0.64922 0.0
H2252 H 0.9183 0.56644 0.6489 0.0
H2253 H 0.81279 0.71909 0.63836 0.0
H2254 H 0.85244 0.69121 0.62895 0.0
H2255 H 0.88647 0.65904 0.65995 0.0
H2256 H 0.84648 0.68741 0.66957 0.0
H2257 H 0.87706 0.61316 0.64388 0.0
H2258 H 0.92683 0.70868 0.64682 0.0
H2259 H 0.93084 0.76416 0.64536 0.0
H2260 H 0.91765 0.75866 0.61056 0.0
H2261 H 0.91299 0.70315 0.61183 0.0
C2262 C 0.98724 0.55715 0.61574 0.0
C2263 C 0.98558 0.55804 0.60421 0.0
C2264 C 0.97068 0.57737 0.62213 0.0
C2265 C 0.9518 0.59892 0.6172 0.0
C2266 C 0.95111 0.60097 0.6057 0.0
C2267 C 0.96788 0.58068 0.59925 0.0
C2268 C 0.93173 0.618 0.62413 0.0
C2269 C 0.93394 0.64964 0.62356 0.0
C2270 C 0.91106 0.6048 0.63161 0.0
C2271 C 0.90562 0.57174 0.63187 0.0
C2272 C 0.89512 0.55672 0.62246 0.0
C2273 C 0.8896 0.52561 0.62274 0.0
C2274 C 0.89468 0.50923 0.63236 0.0
C2275 C 0.90501 0.52404 0.64177 0.0
C2276 C 0.9103 0.55523 0.64156 0.0
C2277 C 0.8287 0.70621 0.64324 0.0
C2278 C 0.82633 0.70529 0.65474 0.0
C2279 C 0.85154 0.69045 0.63782 0.0
C2280 C 0.87254 0.67324 0.64374 0.0
C2281 C 0.87051 0.67234 0.65524 0.0
C2282 C 0.84776 0.68856 0.66072 0.0
C2283 C 0.89533 0.65499 0.63772 0.0
C2284 C 0.89354 0.62339 0.63843 0.0
C2285 C 0.91601 0.66834 0.63027 0.0
C2286 C 0.91935 0.70171 0.62944 0.0
C2287 C 0.92457 0.71929 0.63886 0.0
C2288 C 0.92698 0.75076 0.63807 0.0
C2289 C 0.92445 0.76493 0.62787 0.0
C2290 C 0.91959 0.74765 0.61845 0.0
C2291 C 0.9171 0.71617 0.6192 0.0
H2292 H 0.92629 0.7893 0.62728 0.0
H2293 H 0.89048 0.48511 0.63255 0.0
H2294 H 0.6713 0.70685 0.83963 0.0
H2295 H 0.63273 0.67904 0.85018 0.0
H2296 H 0.70121 0.64997 0.87301 0.0
H2297 H 0.73907 0.67831 0.86302 0.0
H2298 H 0.6593 0.60303 0.86549 0.0
H2299 H 0.66344 0.7057 0.88013 0.0
H2300 H 0.65931 0.7611 0.87821 0.0
H2301 H 0.56693 0.75191 0.86782 0.0
H2302 H 0.57075 0.69634 0.86946 0.0
H2303 H 0.59498 0.55309 0.91453 0.0
H2304 H 0.62425 0.58635 0.90234 0.0
H2305 H 0.5424 0.6109 0.88527 0.0
H2306 H 0.51331 0.57719 0.8973 0.0
H2307 H 0.58517 0.66038 0.88793 0.0
H2308 H 0.578 0.55996 0.87413 0.0
H2309 H 0.58066 0.50427 0.87441 0.0
H2310 H 0.67564 0.50854 0.88161 0.0
H2311 H 0.67347 0.56436 0.88155 0.0
C2312 C 0.67814 0.69422 0.84682 0.0
C2313 C 0.70843 0.69468 0.85039 0.0
C2314 C 0.6561 0.67844 0.85284 0.0
C2315 C 0.66423 0.66245 0.86236 0.0
C2316 C 0.69452 0.66199 0.86566 0.0
C2317 C 0.71623 0.6782 0.85986 0.0
C2318 C 0.64149 0.64709 0.86933 0.0
C2319 C 0.64313 0.61554 0.87041 0.0
C2320 C 0.61995 0.66344 0.87555 0.0
C2321 C 0.6175 0.69685 0.87478 0.0
C2322 C 0.64234 0.71546 0.87734 0.0
C2323 C 0.64005 0.7469 0.87631 0.0
C2324 C 0.6129 0.76001 0.87286 0.0
C2325 C 0.58796 0.74171 0.87047 0.0
C2326 C 0.59019 0.71025 0.87144 0.0
C2327 C 0.58321 0.56652 0.90845 0.0
C2328 C 0.55197 0.56309 0.90691 0.0
C2329 C 0.59988 0.58526 0.90144 0.0
C2330 C 0.58546 0.60095 0.89287 0.0
C2331 C 0.55391 0.59915 0.89185 0.0
C2332 C 0.53735 0.58002 0.89873 0.0
C2333 C 0.60364 0.61637 0.8843 0.0
C2334 C 0.6011 0.64783 0.88293 0.0
C2335 C 0.62414 0.59992 0.87768 0.0
C2336 C 0.62551 0.56636 0.87794 0.0
C2337 C 0.5994 0.54905 0.87589 0.0
C2338 C 0.60083 0.51746 0.87596 0.0
C2339 C 0.62831 0.50288 0.87799 0.0
C2340 C 0.65439 0.51988 0.88001 0.0
C2341 C 0.65307 0.5515 0.87996 0.0
H2342 H 0.62937 0.47841 0.87803 0.0
H2343 H 0.61116 0.78435 0.87208 0.0
H2344 H 0.43595 0.56401 0.91162 0.0
H2345 H 0.39516 0.58837 0.90186 0.0
H2346 H 0.38345 0.5089 0.88179 0.0
H2347 H 0.42585 0.48429 0.89139 0.0
H2348 H 0.37927 0.55821 0.86952 0.0
H2349 H 0.33178 0.52721 0.90235 0.0
H2350 H 0.3265 0.51944 0.92227 0.0
H2351 H 0.32697 0.61555 0.92739 0.0
H2352 H 0.33278 0.62393 0.90753 0.0
H2353 H 0.25858 0.6447 0.84703 0.0
H2354 H 0.2807 0.60231 0.85733 0.0
H2355 H 0.31911 0.6655 0.88042 0.0
H2356 H 0.29675 0.70762 0.8702 0.0
H2357 H 0.30048 0.61332 0.89057 0.0
H2358 H 0.35755 0.64138 0.85759 0.0
H2359 H 0.36095 0.64811 0.83756 0.0
H2360 H 0.33962 0.55435 0.83272 0.0
H2361 H 0.33542 0.54714 0.85273 0.0
C2362 C 0.42476 0.55136 0.90519 0.0
C2363 C 0.43415 0.5219 0.9024 0.0
C2364 C 0.40113 0.5654 0.89964 0.0
C2365 C 0.38554 0.55028 0.89127 0.0
C2366 C 0.39491 0.52094 0.88831 0.0
C2367 C 0.41906 0.50686 0.89382 0.0
C2368 C 0.36024 0.56606 0.88553 0.0
C2369 C 0.36159 0.56961 0.87411 0.0
C2370 C 0.33703 0.58104 0.89147 0.0
C2371 C 0.33279 0.57618 0.90343 0.0
C2372 C 0.33086 0.5467 0.90772 0.0
C2373 C 0.32779 0.54218 0.91901 0.0
C2374 C 0.32641 0.56698 0.92609 0.0
C2375 C 0.32801 0.59636 0.92189 0.0
C2376 C 0.33113 0.60101 0.91062 0.0
C2377 C 0.27085 0.64928 0.85453 0.0
C2378 C 0.27562 0.6792 0.85798 0.0
C2379 C 0.28368 0.62515 0.86035 0.0
C2380 C 0.3019 0.63073 0.86958 0.0
C2381 C 0.30506 0.6606 0.87337 0.0
C2382 C 0.2922 0.68465 0.86757 0.0
C2383 C 0.32034 0.6063 0.87468 0.0
C2384 C 0.31769 0.60122 0.88598 0.0
C2385 C 0.34206 0.58964 0.86862 0.0
C2386 C 0.34588 0.59378 0.85664 0.0
C2387 C 0.35351 0.62221 0.85225 0.0
C2388 C 0.35554 0.62614 0.84091 0.0
C2389 C 0.35047 0.60173 0.83388 0.0
C2390 C 0.34349 0.57326 0.83818 0.0
C2391 C 0.34126 0.56924 0.84952 0.0
H2392 H 0.35198 0.60487 0.8251 0.0
H2393 H 0.32409 0.56344 0.93482 0.0
H2394 H 0.10061 0.48774 0.61712 0.0
H2395 H 0.13965 0.51475 0.6275 0.0
H2396 H 0.15772 0.57136 0.59951 0.0
H2397 H 0.11813 0.54556 0.58925 0.0
H2398 H 0.2119 0.55196 0.61343 0.0
H2399 H 0.11194 0.59967 0.61453 0.0
H2400 H 0.05679 0.5961 0.61744 0.0
H2401 H 0.07156 0.56621 0.65049 0.0
H2402 H 0.12685 0.56901 0.64769 0.0
H2403 H 0.27308 0.68747 0.63692 0.0
H2404 H 0.24805 0.64783 0.62623 0.0
H2405 H 0.20386 0.61545 0.65551 0.0
H2406 H 0.22705 0.65586 0.66598 0.0
H2407 H 0.16407 0.61918 0.64101 0.0
H2408 H 0.26321 0.57576 0.64124 0.0
H2409 H 0.31849 0.57404 0.63857 0.0
H2410 H 0.30688 0.59107 0.60418 0.0
H2411 H 0.25152 0.59329 0.60667 0.0
C2412 C 0.11329 0.50548 0.61309 0.0
C2413 C 0.10587 0.51469 0.60238 0.0
C2414 C 0.13569 0.52081 0.61902 0.0
C2415 C 0.15148 0.54507 0.61426 0.0
C2416 C 0.14592 0.55258 0.6033 0.0
C2417 C 0.12313 0.5378 0.59746 0.0
C2418 C 0.17022 0.56553 0.62108 0.0
C2419 C 0.20161 0.5668 0.61945 0.0
C2420 C 0.15668 0.58446 0.62901 0.0
C2421 C 0.1235 0.5843 0.63088 0.0
C2422 C 0.10342 0.59222 0.62241 0.0
C2423 C 0.07214 0.59031 0.62403 0.0
C2424 C 0.06068 0.58088 0.63414 0.0
C2425 C 0.08047 0.57349 0.64266 0.0
C2426 C 0.11178 0.57524 0.64106 0.0
C2427 C 0.25838 0.67164 0.6411 0.0
C2428 C 0.25209 0.67503 0.65233 0.0
C2429 C 0.24413 0.64881 0.63498 0.0
C2430 C 0.22399 0.62839 0.64003 0.0
C2431 C 0.21901 0.63093 0.65135 0.0
C2432 C 0.23261 0.65403 0.65738 0.0
C2433 C 0.20637 0.60575 0.63355 0.0
C2434 C 0.17483 0.60422 0.63514 0.0
C2435 C 0.21996 0.58632 0.6257 0.0
C2436 C 0.25323 0.58498 0.62417 0.0
C2437 C 0.27245 0.57937 0.63312 0.0
C2438 C 0.3038 0.57826 0.63164 0.0
C2439 C 0.3162 0.58252 0.62122 0.0
C2440 C 0.29725 0.58782 0.61225 0.0
C2441 C 0.26588 0.58897 0.61369 0.0
H2442 H 0.34047 0.58166 0.62008 0.0
H2443 H 0.03647 0.57934 0.63537 0.0
H2444 H 0.06253 0.44092 0.39842 0.0
H2445 H 0.10431 0.41653 0.3889 0.0
H2446 H 0.15123 0.50198 0.38694 0.0
H2447 H 0.10845 0.52693 0.39633 0.0
H2448 H 0.15949 0.46722 0.36829 0.0
H2449 H 0.17073 0.45383 0.40662 0.0
H2450 H 0.15224 0.44247 0.42524 0.0
H2451 H 0.13217 0.35128 0.41554 0.0
H2452 H 0.14997 0.36222 0.39679 0.0
H2453 H 0.28081 0.33408 0.36927 0.0
H2454 H 0.25514 0.3763 0.3785 0.0
H2455 H 0.18533 0.37499 0.35382 0.0
H2456 H 0.21064 0.33361 0.34457 0.0
H2457 H 0.20077 0.37763 0.38779 0.0
H2458 H 0.15569 0.4425 0.34939 0.0
H2459 H 0.17342 0.45562 0.33084 0.0
H2460 H 0.26571 0.44771 0.34144 0.0
H2461 H 0.24858 0.435 0.36011 0.0
C2462 C 0.08156 0.45464 0.39584 0.0
C2463 C 0.08249 0.48572 0.39822 0.0
C2464 C 0.10549 0.44065 0.39043 0.0
C2465 C 0.1313 0.45723 0.38748 0.0
C2466 C 0.13163 0.48871 0.38924 0.0
C2467 C 0.10725 0.50294 0.39457 0.0
C2468 C 0.1581 0.44083 0.38309 0.0
C2469 C 0.16879 0.44783 0.37257 0.0
C2470 C 0.17095 0.41611 0.38885 0.0
C2471 C 0.16169 0.40888 0.40028 0.0
C2472 C 0.16237 0.43134 0.40845 0.0
C2473 C 0.15195 0.425 0.41902 0.0
C2474 C 0.14106 0.39617 0.42157 0.0
C2475 C 0.14067 0.37359 0.41355 0.0
C2476 C 0.15098 0.37984 0.40296 0.0
C2477 C 0.26028 0.34316 0.36571 0.0
C2478 C 0.24796 0.3304 0.35613 0.0
C2479 C 0.24557 0.36723 0.37102 0.0
C2480 C 0.21847 0.37918 0.36679 0.0
C2481 C 0.20652 0.36675 0.35714 0.0
C2482 C 0.22106 0.34283 0.35187 0.0
C2483 C 0.20115 0.40305 0.37272 0.0
C2484 C 0.19215 0.39743 0.38357 0.0
C2485 C 0.19031 0.42935 0.36733 0.0
C2486 C 0.2008 0.43766 0.35616 0.0
C2487 C 0.17977 0.44379 0.3478 0.0
C2488 C 0.18972 0.45109 0.33725 0.0
C2489 C 0.22067 0.45244 0.33496 0.0
C2490 C 0.24174 0.44658 0.34322 0.0
C2491 C 0.23192 0.4393 0.35378 0.0
H2492 H 0.22832 0.45805 0.32678 0.0
H2493 H 0.13294 0.39132 0.42975 0.0
H2494 H 0.41395 0.47355 0.09537 0.0
H2495 H 0.37591 0.44902 0.10675 0.0
H2496 H 0.41488 0.48981 0.13553 0.0
H2497 H 0.45242 0.51587 0.12408 0.0
H2498 H 0.41063 0.42021 0.1336 0.0
H2499 H 0.35234 0.51199 0.13183 0.0
H2500 H 0.32719 0.55449 0.12244 0.0
H2501 H 0.27032 0.49212 0.10502 0.0
H2502 H 0.29547 0.44918 0.11419 0.0
H2503 H 0.31873 0.35106 0.17188 0.0
H2504 H 0.34378 0.39105 0.16181 0.0
H2505 H 0.28635 0.37397 0.13392 0.0
H2506 H 0.25964 0.33451 0.14431 0.0
H2507 H 0.29919 0.43347 0.13538 0.0
H2508 H 0.35613 0.34201 0.13619 0.0
H2509 H 0.38078 0.29788 0.14472 0.0
H2510 H 0.4415 0.35668 0.16205 0.0
H2511 H 0.41658 0.40127 0.1539 0.0
C2512 C 0.41401 0.47817 0.10406 0.0
C2513 C 0.43651 0.49659 0.10879 0.0
C2514 C 0.39219 0.46402 0.11056 0.0
C2515 C 0.39268 0.46751 0.12196 0.0
C2516 C 0.41416 0.48691 0.12672 0.0
C2517 C 0.43559 0.50178 0.12016 0.0
C2518 C 0.37299 0.44811 0.12886 0.0
C2519 C 0.38633 0.42343 0.1342 0.0
C2520 C 0.34119 0.4516 0.12915 0.0
C2521 C 0.32603 0.47735 0.12362 0.0
C2522 C 0.3347 0.50731 0.12591 0.0
C2523 C 0.32039 0.53148 0.12065 0.0
C2524 C 0.29723 0.526 0.11311 0.0
C2525 C 0.28829 0.49633 0.11085 0.0
C2526 C 0.30255 0.47206 0.11609 0.0
C2527 C 0.31075 0.35611 0.16371 0.0
C2528 C 0.28724 0.33921 0.15891 0.0
C2529 C 0.32537 0.37897 0.15791 0.0
C2530 C 0.31763 0.38499 0.14698 0.0
C2531 C 0.29294 0.36955 0.14232 0.0
C2532 C 0.27773 0.34693 0.14826 0.0
C2533 C 0.33688 0.40575 0.14035 0.0
C2534 C 0.3235 0.43038 0.13491 0.0
C2535 C 0.36875 0.40191 0.13977 0.0
C2536 C 0.3842 0.37505 0.14453 0.0
C2537 C 0.37456 0.34558 0.14189 0.0
C2538 C 0.38857 0.32047 0.14667 0.0
C2539 C 0.41263 0.3245 0.15395 0.0
C2540 C 0.42279 0.35362 0.15644 0.0
C2541 C 0.40869 0.37883 0.15176 0.0
H2542 H 0.42343 0.30507 0.15766 0.0
H2543 H 0.28617 0.54475 0.10905 0.0
loop_
_geom_bond_atom_site_label_1
_geom_bond_atom_site_label_2
_geom_bond_distance
_geom_bond_site_symmetry_2
_ccdc_geom_bond_type
Co0 O2 2.143 1_565 S
Co0 O8 2.074 1_455 S
Co0 O11 2.093 . S
Co0 O24 2.097 . S
Co0 N41 2.151 1_455 S
Co0 N49 2.214 1_455 S
Co1 O2 2.160 . S
Co1 O7 2.058 1_455 S
Co1 O17 2.057 . S
Co1 O32 2.037 . S
Co1 N36 2.145 . S
Co1 N57 2.257 . S
O2 Co0 2.143 1_545 S
O2 Co1 2.160 . S
C3 O4 1.278 . S
C3 O11 1.224 1_545 S
O4 C3 1.278 . S
C5 O6 1.245 . S
C5 O17 1.232 1_655 S
O6 C5 1.245 . S
O7 Co1 2.058 1_655 S
O7 C33 1.247 1_545 S
O8 Co0 2.074 1_655 S
O8 C33 1.273 . S
H9 C34 0.930 . S
H10 C40 0.930 . S
O11 Co0 2.093 . S
O11 C3 1.224 1_565 S
H12 C44 0.929 . S
H13 C46 0.930 . S
H14 C47 0.930 1_455 S
H15 C45 0.929 . S
H16 C48 0.928 . S
O17 Co1 2.057 . S
O17 C5 1.232 1_455 S
H18 C37 0.929 . S
H19 C38 0.929 . S
H20 C50 0.931 . S
H21 C42 0.929 . S
H22 C51 0.930 . S
H23 C43 0.931 . S
O24 Co0 2.097 . S
O24 C52 1.214 . S
H25 C53 0.929 . S
H26 C54 0.929 . S
H27 C55 0.930 . S
H28 C56 0.929 . S
H29 C58 0.930 . S
H30 C35 0.930 . S
H31 C39 0.930 . S
O32 Co1 2.037 . S
O32 C52 1.234 1_545 S
C33 O7 1.247 1_565 S
C33 O8 1.273 . S
C34 H9 0.930 . S
C34 C37 1.388 . S
C34 C39 1.418 . S
C35 H30 0.930 . S
C35 C38 1.404 . S
C35 C39 1.353 . S
N36 Co1 2.145 . S
N36 C37 1.397 . S
N36 C38 1.334 . S
C37 H18 0.929 . S
C37 C34 1.388 . S
C37 N36 1.397 . S
C38 H19 0.929 . S
C38 C35 1.404 . S
C38 N36 1.334 . S
C39 H31 0.930 . S
C39 C34 1.418 . S
C39 C35 1.353 . S
C40 H10 0.930 . S
C40 N41 1.330 1_545 S
C40 C42 1.446 . S
N41 Co0 2.151 1_655 S
N41 C40 1.330 1_565 S
N41 C45 1.418 . S
C42 H21 0.929 . S
C42 C40 1.446 . S
C42 C43 1.332 . S
C43 H23 0.931 . S
C43 C42 1.332 . S
C43 C44 1.267 1_545 S
C44 H12 0.929 . S
C44 C43 1.267 1_565 S
C44 C45 1.251 . S
C45 H15 0.929 . S
C45 N41 1.418 . S
C45 C44 1.251 . S
C46 H13 0.930 . S
C46 C48 1.406 . S
C46 C51 1.261 . S
C47 H14 0.930 1_655 S
C47 N49 1.325 . S
C47 C50 1.357 . S
C48 H16 0.928 . S
C48 C46 1.406 . S
C48 N49 1.261 . S
N49 Co0 2.214 1_655 S
N49 C47 1.325 . S
N49 C48 1.261 . S
C50 H20 0.931 . S
C50 C47 1.357 . S
C50 C51 1.312 . S
C51 H22 0.930 . S
C51 C46 1.261 . S
C51 C50 1.312 . S
C52 O24 1.214 . S
C52 O32 1.234 1_565 S
C53 H25 0.929 . S
C53 C56 1.391 . S
C53 C58 1.391 . S
C54 H26 0.929 . S
C54 C55 1.390 . S
C54 N57 1.391 . S
C55 H27 0.930 . S
C55 C54 1.390 . S
C55 C56 1.392 . S
C56 H28 0.929 . S
C56 C53 1.391 . S
C56 C55 1.392 . S
N57 Co1 2.257 . S
N57 C54 1.391 . S
N57 C58 1.388 . S
C58 H29 0.930 . S
C58 C53 1.391 . S
C58 N57 1.388 . S
Co59 O61 2.143 . S
Co59 O67 2.074 . S
Co59 O70 2.093 . S
Co59 O83 2.097 . S
Co59 N100 2.151 . S
Co59 N108 2.214 . S
Co60 O61 2.160 . S
Co60 O66 2.058 . S
Co60 O76 2.057 . S
Co60 O91 2.037 . S
Co60 N95 2.145 . S
Co60 N116 2.257 . S
O61 Co59 2.143 . S
O61 Co60 2.160 . S
C62 O63 1.278 . S
C62 O70 1.224 . S
O63 C62 1.278 . S
C64 O65 1.245 . S
C64 O76 1.232 . S
O65 C64 1.245 . S
O66 Co60 2.058 . S
O66 C92 1.269 . S
O67 Co59 2.074 . S
O67 C92 1.257 . S
H68 C93 0.930 . S
H69 C99 0.930 . S
O70 Co59 2.093 . S
O70 C62 1.224 . S
H71 C103 0.929 . S
H72 C105 0.930 . S
H73 C106 0.930 . S
H74 C104 0.929 . S
H75 C107 0.928 . S
O76 Co60 2.057 . S
O76 C64 1.232 . S
H77 C96 0.929 . S
H78 C97 0.929 . S
H79 C109 0.931 . S
H80 C101 0.929 . S
H81 C110 0.930 . S
H82 C102 0.931 . S
O83 Co59 2.097 . S
O83 C111 1.214 . S
H84 C112 0.929 . S
H85 C113 0.929 . S
H86 C114 0.930 . S
H87 C115 0.929 . S
H88 C117 0.930 . S
H89 C94 0.930 . S
H90 C98 0.930 . S
O91 Co60 2.037 . S
O91 C111 1.234 . S
C92 O66 1.269 . S
C92 O67 1.257 . S
C93 H68 0.930 . S
C93 C96 1.388 . S
C93 C98 1.418 . S
C94 H89 0.930 . S
C94 C97 1.404 . S
C94 C98 1.353 . S
N95 Co60 2.145 . S
N95 C96 1.397 . S
N95 C97 1.334 . S
C96 H77 0.929 . S
C96 C93 1.388 . S
C96 N95 1.397 . S
C97 H78 0.929 . S
C97 C94 1.404 . S
C97 N95 1.334 . S
C98 H90 0.930 . S
C98 C93 1.418 . S
C98 C94 1.353 . S
C99 H69 0.930 . S
C99 N100 1.330 . S
C99 C101 1.446 . S
N100 Co59 2.151 . S
N100 C99 1.330 . S
N100 C104 1.418 . S
C101 H80 0.929 . S
C101 C99 1.446 . S
C101 C102 1.332 . S
C102 H82 0.931 . S
C102 C101 1.332 . S
C102 C103 1.267 . S
C103 H71 0.929 . S
C103 C102 1.267 . S
C103 C104 1.251 . S
C104 H74 0.929 . S
C104 N100 1.418 . S
C104 C103 1.251 . S
C105 H72 0.930 . S
C105 C107 1.406 . S
C105 C110 1.261 . S
C106 H73 0.930 . S
C106 N108 1.325 . S
C106 C109 1.357 . S
C107 H75 0.928 . S
C107 C105 1.406 . S
C107 N108 1.261 . S
N108 Co59 2.214 . S
N108 C106 1.325 . S
N108 C107 1.261 . S
C109 H79 0.931 . S
C109 C106 1.357 . S
C109 C110 1.312 . S
C110 H81 0.930 . S
C110 C105 1.261 . S
C110 C109 1.312 . S
C111 O83 1.214 . S
C111 O91 1.234 . S
C112 H84 0.929 . S
C112 C115 1.391 . S
C112 C117 1.391 . S
C113 H85 0.929 . S
C113 C114 1.390 . S
C113 N116 1.391 . S
C114 H86 0.930 . S
C114 C113 1.390 . S
C114 C115 1.392 . S
C115 H87 0.929 . S
C115 C112 1.391 . S
C115 C114 1.392 . S
N116 Co60 2.257 . S
N116 C113 1.391 . S
N116 C117 1.388 . S
C117 H88 0.930 . S
C117 C112 1.391 . S
C117 N116 1.388 . S
Co118 O120 2.143 1_545 S
Co118 O126 2.074 . S
Co118 O129 2.093 . S
Co118 O142 2.097 . S
Co118 N159 2.151 . S
Co118 N167 2.214 . S
Co119 O120 2.160 . S
Co119 O125 2.058 . S
Co119 O135 2.057 . S
Co119 O150 2.037 . S
Co119 N154 2.145 . S
Co119 N175 2.257 . S
O120 Co118 2.143 1_565 S
O120 Co119 2.160 . S
C121 O122 1.278 . S
C121 O129 1.224 1_565 S
O122 C121 1.278 . S
C123 O124 1.245 . S
C123 O135 1.232 . S
O124 C123 1.245 . S
O125 Co119 2.058 . S
O125 C151 1.247 1_565 S
O126 Co118 2.074 . S
O126 C151 1.273 . S
H127 C152 0.930 . S
H128 C158 0.930 . S
O129 Co118 2.093 . S
O129 C121 1.224 1_545 S
H130 C162 0.929 . S
H131 C164 0.930 . S
H132 C165 0.930 . S
H133 C163 0.929 . S
H134 C166 0.928 . S
O135 Co119 2.057 . S
O135 C123 1.232 . S
H136 C155 0.929 . S
H137 C156 0.929 . S
H138 C168 0.931 . S
H139 C160 0.929 . S
H140 C169 0.930 . S
H141 C161 0.931 . S
O142 Co118 2.097 . S
O142 C170 1.214 . S
H143 C171 0.929 . S
H144 C172 0.929 . S
H145 C173 0.930 . S
H146 C174 0.929 . S
H147 C176 0.930 . S
H148 C153 0.930 . S
H149 C157 0.930 . S
O150 Co119 2.037 . S
O150 C170 1.234 1_565 S
C151 O125 1.247 1_545 S
C151 O126 1.273 . S
C152 H127 0.930 . S
C152 C155 1.388 . S
C152 C157 1.418 . S
C153 H148 0.930 . S
C153 C156 1.404 . S
C153 C157 1.353 . S
N154 Co119 2.145 . S
N154 C155 1.397 . S
N154 C156 1.334 . S
C155 H136 0.929 . S
C155 C152 1.388 . S
C155 N154 1.397 . S
C156 H137 0.929 . S
C156 C153 1.404 . S
C156 N154 1.334 . S
C157 H149 0.930 . S
C157 C152 1.418 . S
C157 C153 1.353 . S
C158 H128 0.930 . S
C158 N159 1.330 1_565 S
C158 C160 1.446 . S
N159 Co118 2.151 . S
N159 C158 1.330 1_545 S
N159 C163 1.418 . S
C160 H139 0.929 . S
C160 C158 1.446 . S
C160 C161 1.332 . S
C161 H141 0.931 . S
C161 C160 1.332 . S
C161 C162 1.267 1_565 S
C162 H130 0.929 . S
C162 C161 1.267 1_545 S
C162 C163 1.251 . S
C163 H133 0.929 . S
C163 N159 1.418 . S
C163 C162 1.251 . S
C164 H131 0.930 . S
C164 C166 1.406 . S
C164 C169 1.261 . S
C165 H132 0.930 . S
C165 N167 1.325 . S
C165 C168 1.357 . S
C166 H134 0.928 . S
C166 C164 1.406 . S
C166 N167 1.261 . S
N167 Co118 2.214 . S
N167 C165 1.325 . S
N167 C166 1.261 . S
C168 H138 0.931 . S
C168 C165 1.357 . S
C168 C169 1.312 . S
C169 H140 0.930 . S
C169 C164 1.261 . S
C169 C168 1.312 . S
C170 O142 1.214 . S
C170 O150 1.234 1_545 S
C171 H143 0.929 . S
C171 C174 1.391 . S
C171 C176 1.391 . S
C172 H144 0.929 . S
C172 C173 1.390 . S
C172 N175 1.391 . S
C173 H145 0.930 . S
C173 C172 1.390 . S
C173 C174 1.392 . S
C174 H146 0.929 . S
C174 C171 1.391 . S
C174 C173 1.392 . S
N175 Co119 2.257 . S
N175 C172 1.391 . S
N175 C176 1.388 . S
C176 H147 0.930 . S
C176 C171 1.391 . S
C176 N175 1.388 . S
Co177 O179 2.143 . S
Co177 O185 2.074 . S
Co177 O188 2.093 . S
Co177 O201 2.097 . S
Co177 N218 2.151 . S
Co177 N226 2.214 . S
Co178 O179 2.160 . S
Co178 O184 2.058 . S
Co178 O194 2.057 . S
Co178 O209 2.037 . S
Co178 N213 2.145 . S
Co178 N234 2.257 . S
O179 Co177 2.143 . S
O179 Co178 2.160 . S
C180 O181 1.278 . S
C180 O188 1.224 . S
O181 C180 1.278 . S
C182 O183 1.245 . S
C182 O194 1.232 . S
O183 C182 1.245 . S
O184 Co178 2.058 . S
O184 C210 1.269 . S
O185 Co177 2.074 . S
O185 C210 1.257 . S
H186 C211 0.930 . S
H187 C217 0.930 . S
O188 Co177 2.093 . S
O188 C180 1.224 . S
H189 C221 0.929 . S
H190 C223 0.930 . S
H191 C224 0.930 . S
H192 C222 0.929 . S
H193 C225 0.928 . S
O194 Co178 2.057 . S
O194 C182 1.232 . S
H195 C214 0.929 . S
H196 C215 0.929 . S
H197 C227 0.931 . S
H198 C219 0.929 . S
H199 C228 0.930 . S
H200 C220 0.931 . S
O201 Co177 2.097 . S
O201 C229 1.214 . S
H202 C230 0.929 . S
H203 C231 0.929 . S
H204 C232 0.930 . S
H205 C233 0.929 . S
H206 C235 0.930 . S
H207 C212 0.930 . S
H208 C216 0.930 . S
O209 Co178 2.037 . S
O209 C229 1.234 . S
C210 O184 1.269 . S
C210 O185 1.257 . S
C211 H186 0.930 . S
C211 C214 1.388 . S
C211 C216 1.418 . S
C212 H207 0.930 . S
C212 C215 1.404 . S
C212 C216 1.353 . S
N213 Co178 2.145 . S
N213 C214 1.397 . S
N213 C215 1.334 . S
C214 H195 0.929 . S
C214 C211 1.388 . S
C214 N213 1.397 . S
C215 H196 0.929 . S
C215 C212 1.404 . S
C215 N213 1.334 . S
C216 H208 0.930 . S
C216 C211 1.418 . S
C216 C212 1.353 . S
C217 H187 0.930 . S
C217 N218 1.330 . S
C217 C219 1.446 . S
N218 Co177 2.151 . S
N218 C217 1.330 . S
N218 C222 1.418 . S
C219 H198 0.929 . S
C219 C217 1.446 . S
C219 C220 1.332 . S
C220 H200 0.931 . S
C220 C219 1.332 . S
C220 C221 1.267 . S
C221 H189 0.929 . S
C221 C220 1.267 . S
C221 C222 1.251 . S
C222 H192 0.929 . S
C222 N218 1.418 . S
C222 C221 1.251 . S
C223 H190 0.930 . S
C223 C225 1.406 . S
C223 C228 1.261 . S
C224 H191 0.930 . S
C224 N226 1.325 . S
C224 C227 1.357 . S
C225 H193 0.928 . S
C225 C223 1.406 . S
C225 N226 1.261 . S
N226 Co177 2.214 . S
N226 C224 1.325 . S
N226 C225 1.261 . S
C227 H197 0.931 . S
C227 C224 1.357 . S
C227 C228 1.312 . S
C228 H199 0.930 . S
C228 C223 1.261 . S
C228 C227 1.312 . S
C229 O201 1.214 . S
C229 O209 1.234 . S
C230 H202 0.929 . S
C230 C233 1.391 . S
C230 C235 1.391 . S
C231 H203 0.929 . S
C231 C232 1.390 . S
C231 N234 1.391 . S
C232 H204 0.930 . S
C232 C231 1.390 . S
C232 C233 1.392 . S
C233 H205 0.929 . S
C233 C230 1.391 . S
C233 C232 1.392 . S
N234 Co178 2.257 . S
N234 C231 1.391 . S
N234 C235 1.388 . S
C235 H206 0.930 . S
C235 C230 1.391 . S
C235 N234 1.388 . S
Co236 O238 2.143 1_545 S
Co236 O244 2.074 1_455 S
Co236 O247 2.093 . S
Co236 O260 2.097 . S
Co236 N277 2.151 1_455 S
Co236 N285 2.214 1_455 S
Co237 O238 2.160 . S
Co237 O243 2.058 1_455 S
Co237 O253 2.057 . S
Co237 O268 2.037 . S
Co237 N272 2.145 . S
Co237 N293 2.257 . S
O238 Co236 2.143 1_565 S
O238 Co237 2.160 . S
C239 O240 1.278 . S
C239 O247 1.224 1_565 S
O240 C239 1.278 . S
C241 O242 1.245 . S
C241 O253 1.232 1_655 S
O242 C241 1.245 . S
O243 Co237 2.058 1_655 S
O243 C269 1.247 1_565 S
O244 Co236 2.074 1_655 S
O244 C269 1.273 . S
H245 C270 0.930 . S
H246 C276 0.930 . S
O247 Co236 2.093 . S
O247 C239 1.224 1_545 S
H248 C280 0.929 . S
H249 C282 0.930 . S
H250 C283 0.930 1_455 S
H251 C281 0.929 . S
H252 C284 0.928 . S
O253 Co237 2.057 . S
O253 C241 1.232 1_455 S
H254 C273 0.929 . S
H255 C274 0.929 . S
H256 C286 0.931 . S
H257 C278 0.929 . S
H258 C287 0.930 . S
H259 C279 0.931 . S
O260 Co236 2.097 . S
O260 C288 1.214 . S
H261 C289 0.929 . S
H262 C290 0.929 . S
H263 C291 0.930 . S
H264 C292 0.929 . S
H265 C294 0.930 . S
H266 C271 0.930 . S
H267 C275 0.930 . S
O268 Co237 2.037 . S
O268 C288 1.234 1_565 S
C269 O243 1.247 1_545 S
C269 O244 1.273 . S
C270 H245 0.930 . S
C270 C273 1.388 . S
C270 C275 1.418 . S
C271 H266 0.930 . S
C271 C274 1.404 . S
C271 C275 1.353 . S
N272 Co237 2.145 . S
N272 C273 1.397 . S
N272 C274 1.334 . S
C273 H254 0.929 . S
C273 C270 1.388 . S
C273 N272 1.397 . S
C274 H255 0.929 . S
C274 C271 1.404 . S
C274 N272 1.334 . S
C275 H267 0.930 . S
C275 C270 1.418 . S
C275 C271 1.353 . S
C276 H246 0.930 . S
C276 N277 1.330 1_565 S
C276 C278 1.446 . S
N277 Co236 2.151 1_655 S
N277 C276 1.330 1_545 S
N277 C281 1.418 . S
C278 H257 0.929 . S
C278 C276 1.446 . S
C278 C279 1.332 . S
C279 H259 0.931 . S
C279 C278 1.332 . S
C279 C280 1.267 1_565 S
C280 H248 0.929 . S
C280 C279 1.267 1_545 S
C280 C281 1.251 . S
C281 H251 0.929 . S
C281 N277 1.418 . S
C281 C280 1.251 . S
C282 H249 0.930 . S
C282 C284 1.406 . S
C282 C287 1.261 . S
C283 H250 0.930 1_655 S
C283 N285 1.325 . S
C283 C286 1.357 . S
C284 H252 0.928 . S
C284 C282 1.406 . S
C284 N285 1.261 . S
N285 Co236 2.214 1_655 S
N285 C283 1.325 . S
N285 C284 1.261 . S
C286 H256 0.931 . S
C286 C283 1.357 . S
C286 C287 1.312 . S
C287 H258 0.930 . S
C287 C282 1.261 . S
C287 C286 1.312 . S
C288 O260 1.214 . S
C288 O268 1.234 1_545 S
C289 H261 0.929 . S
C289 C292 1.391 . S
C289 C294 1.391 . S
C290 H262 0.929 . S
C290 C291 1.390 . S
C290 N293 1.391 . S
C291 H263 0.930 . S
C291 C290 1.390 . S
C291 C292 1.392 . S
C292 H264 0.929 . S
C292 C289 1.391 . S
C292 C291 1.392 . S
N293 Co237 2.257 . S
N293 C290 1.391 . S
N293 C294 1.388 . S
C294 H265 0.930 . S
C294 C289 1.391 . S
C294 N293 1.388 . S
Co295 O297 2.143 . S
Co295 O303 2.074 . S
Co295 O306 2.093 . S
Co295 O319 2.097 . S
Co295 N336 2.151 . S
Co295 N344 2.214 . S
Co296 O297 2.160 . S
Co296 O302 2.058 . S
Co296 O312 2.057 . S
Co296 O327 2.037 . S
Co296 N331 2.145 . S
Co296 N352 2.257 . S
O297 Co295 2.143 . S
O297 Co296 2.160 . S
C298 O299 1.278 . S
C298 O306 1.224 . S
O299 C298 1.278 . S
C300 O301 1.245 . S
C300 O312 1.232 . S
O301 C300 1.245 . S
O302 Co296 2.058 . S
O302 C328 1.269 . S
O303 Co295 2.074 . S
O303 C328 1.257 . S
H304 C329 0.930 . S
H305 C335 0.930 . S
O306 Co295 2.093 . S
O306 C298 1.224 . S
H307 C339 0.929 . S
H308 C341 0.930 . S
H309 C342 0.930 . S
H310 C340 0.929 . S
H311 C343 0.928 . S
O312 Co296 2.057 . S
O312 C300 1.232 . S
H313 C332 0.929 . S
H314 C333 0.929 . S
H315 C345 0.931 . S
H316 C337 0.929 . S
H317 C346 0.930 . S
H318 C338 0.931 . S
O319 Co295 2.097 . S
O319 C347 1.214 . S
H320 C348 0.929 . S
H321 C349 0.929 . S
H322 C350 0.930 . S
H323 C351 0.929 . S
H324 C353 0.930 . S
H325 C330 0.930 . S
H326 C334 0.930 . S
O327 Co296 2.037 . S
O327 C347 1.234 . S
C328 O302 1.269 . S
C328 O303 1.257 . S
C329 H304 0.930 . S
C329 C332 1.388 . S
C329 C334 1.418 . S
C330 H325 0.930 . S
C330 C333 1.404 . S
C330 C334 1.353 . S
N331 Co296 2.145 . S
N331 C332 1.397 . S
N331 C333 1.334 . S
C332 H313 0.929 . S
C332 C329 1.388 . S
C332 N331 1.397 . S
C333 H314 0.929 . S
C333 C330 1.404 . S
C333 N331 1.334 . S
C334 H326 0.930 . S
C334 C329 1.418 . S
C334 C330 1.353 . S
C335 H305 0.930 . S
C335 N336 1.330 . S
C335 C337 1.446 . S
N336 Co295 2.151 . S
N336 C335 1.330 . S
N336 C340 1.418 . S
C337 H316 0.929 . S
C337 C335 1.446 . S
C337 C338 1.332 . S
C338 H318 0.931 . S
C338 C337 1.332 . S
C338 C339 1.267 . S
C339 H307 0.929 . S
C339 C338 1.267 . S
C339 C340 1.251 . S
C340 H310 0.929 . S
C340 N336 1.418 . S
C340 C339 1.251 . S
C341 H308 0.930 . S
C341 C343 1.406 . S
C341 C346 1.261 . S
C342 H309 0.930 . S
C342 N344 1.325 . S
C342 C345 1.357 . S
C343 H311 0.928 . S
C343 C341 1.406 . S
C343 N344 1.261 . S
N344 Co295 2.214 . S
N344 C342 1.325 . S
N344 C343 1.261 . S
C345 H315 0.931 . S
C345 C342 1.357 . S
C345 C346 1.312 . S
C346 H317 0.930 . S
C346 C341 1.261 . S
C346 C345 1.312 . S
C347 O319 1.214 . S
C347 O327 1.234 . S
C348 H320 0.929 . S
C348 C351 1.391 . S
C348 C353 1.391 . S
C349 H321 0.929 . S
C349 C350 1.390 . S
C349 N352 1.391 . S
C350 H322 0.930 . S
C350 C349 1.390 . S
C350 C351 1.392 . S
C351 H323 0.929 . S
C351 C348 1.391 . S
C351 C350 1.392 . S
N352 Co296 2.257 . S
N352 C349 1.391 . S
N352 C353 1.388 . S
C353 H324 0.930 . S
C353 C348 1.391 . S
C353 N352 1.388 . S
Co354 O356 2.143 1_565 S
Co354 O362 2.074 . S
Co354 O365 2.093 . S
Co354 O378 2.097 . S
Co354 N395 2.151 . S
Co354 N403 2.214 . S
Co355 O356 2.160 . S
Co355 O361 2.058 . S
Co355 O371 2.057 . S
Co355 O386 2.037 . S
Co355 N390 2.145 . S
Co355 N411 2.257 . S
O356 Co354 2.143 1_545 S
O356 Co355 2.160 . S
C357 O358 1.278 . S
C357 O365 1.224 1_545 S
O358 C357 1.278 . S
C359 O360 1.245 . S
C359 O371 1.232 . S
O360 C359 1.245 . S
O361 Co355 2.058 . S
O361 C387 1.247 1_545 S
O362 Co354 2.074 . S
O362 C387 1.273 . S
H363 C388 0.930 . S
H364 C394 0.930 . S
O365 Co354 2.093 . S
O365 C357 1.224 1_565 S
H366 C398 0.929 . S
H367 C400 0.930 . S
H368 C401 0.930 . S
H369 C399 0.929 . S
H370 C402 0.928 . S
O371 Co355 2.057 . S
O371 C359 1.232 . S
H372 C391 0.929 . S
H373 C392 0.929 . S
H374 C404 0.931 . S
H375 C396 0.929 . S
H376 C405 0.930 . S
H377 C397 0.931 . S
O378 Co354 2.097 . S
O378 C406 1.214 . S
H379 C407 0.929 . S
H380 C408 0.929 . S
H381 C409 0.930 . S
H382 C410 0.929 . S
H383 C412 0.930 . S
H384 C389 0.930 . S
H385 C393 0.930 . S
O386 Co355 2.037 . S
O386 C406 1.234 1_545 S
C387 O361 1.247 1_565 S
C387 O362 1.273 . S
C388 H363 0.930 . S
C388 C391 1.388 . S
C388 C393 1.418 . S
C389 H384 0.930 . S
C389 C392 1.404 . S
C389 C393 1.353 . S
N390 Co355 2.145 . S
N390 C391 1.397 . S
N390 C392 1.334 . S
C391 H372 0.929 . S
C391 C388 1.388 . S
C391 N390 1.397 . S
C392 H373 0.929 . S
C392 C389 1.404 . S
C392 N390 1.334 . S
C393 H385 0.930 . S
C393 C388 1.418 . S
C393 C389 1.353 . S
C394 H364 0.930 . S
C394 N395 1.330 1_545 S
C394 C396 1.446 . S
N395 Co354 2.151 . S
N395 C394 1.330 1_565 S
N395 C399 1.418 . S
C396 H375 0.929 . S
C396 C394 1.446 . S
C396 C397 1.332 . S
C397 H377 0.931 . S
C397 C396 1.332 . S
C397 C398 1.267 1_545 S
C398 H366 0.929 . S
C398 C397 1.267 1_565 S
C398 C399 1.251 . S
C399 H369 0.929 . S
C399 N395 1.418 . S
C399 C398 1.251 . S
C400 H367 0.930 . S
C400 C402 1.406 . S
C400 C405 1.261 . S
C401 H368 0.930 . S
C401 N403 1.325 . S
C401 C404 1.357 . S
C402 H370 0.928 . S
C402 C400 1.406 . S
C402 N403 1.261 . S
N403 Co354 2.214 . S
N403 C401 1.325 . S
N403 C402 1.261 . S
C404 H374 0.931 . S
C404 C401 1.357 . S
C404 C405 1.312 . S
C405 H376 0.930 . S
C405 C400 1.261 . S
C405 C404 1.312 . S
C406 O378 1.214 . S
C406 O386 1.234 1_565 S
C407 H379 0.929 . S
C407 C410 1.391 . S
C407 C412 1.391 . S
C408 H380 0.929 . S
C408 C409 1.390 . S
C408 N411 1.391 . S
C409 H381 0.930 . S
C409 C408 1.390 . S
C409 C410 1.392 . S
C410 H382 0.929 . S
C410 C407 1.391 . S
C410 C409 1.392 . S
N411 Co355 2.257 . S
N411 C408 1.391 . S
N411 C412 1.388 . S
C412 H383 0.930 . S
C412 C407 1.391 . S
C412 N411 1.388 . S
Co413 O415 2.143 . S
Co413 O421 2.074 . S
Co413 O424 2.093 . S
Co413 O437 2.097 . S
Co413 N454 2.151 . S
Co413 N462 2.214 . S
Co414 O415 2.160 . S
Co414 O420 2.058 . S
Co414 O430 2.057 . S
Co414 O445 2.037 . S
Co414 N449 2.145 . S
Co414 N470 2.257 . S
O415 Co413 2.143 . S
O415 Co414 2.160 . S
C416 O417 1.278 . S
C416 O424 1.224 . S
O417 C416 1.278 . S
C418 O419 1.245 . S
C418 O430 1.232 . S
O419 C418 1.245 . S
O420 Co414 2.058 . S
O420 C446 1.269 . S
O421 Co413 2.074 . S
O421 C446 1.257 . S
H422 C447 0.930 . S
H423 C453 0.930 . S
O424 Co413 2.093 . S
O424 C416 1.224 . S
H425 C457 0.929 . S
H426 C459 0.930 . S
H427 C460 0.930 . S
H428 C458 0.929 . S
H429 C461 0.928 . S
O430 Co414 2.057 . S
O430 C418 1.232 . S
H431 C450 0.929 . S
H432 C451 0.929 . S
H433 C463 0.931 . S
H434 C455 0.929 . S
H435 C464 0.930 . S
H436 C456 0.931 . S
O437 Co413 2.097 . S
O437 C465 1.214 . S
H438 C466 0.929 . S
H439 C467 0.929 . S
H440 C468 0.930 . S
H441 C469 0.929 . S
H442 C471 0.930 . S
H443 C448 0.930 . S
H444 C452 0.930 . S
O445 Co414 2.037 . S
O445 C465 1.234 . S
C446 O420 1.269 . S
C446 O421 1.257 . S
C447 H422 0.930 . S
C447 C450 1.388 . S
C447 C452 1.418 . S
C448 H443 0.930 . S
C448 C451 1.404 . S
C448 C452 1.353 . S
N449 Co414 2.145 . S
N449 C450 1.397 . S
N449 C451 1.334 . S
C450 H431 0.929 . S
C450 C447 1.388 . S
C450 N449 1.397 . S
C451 H432 0.929 . S
C451 C448 1.404 . S
C451 N449 1.334 . S
C452 H444 0.930 . S
C452 C447 1.418 . S
C452 C448 1.353 . S
C453 H423 0.930 . S
C453 N454 1.330 . S
C453 C455 1.446 . S
N454 Co413 2.151 . S
N454 C453 1.330 . S
N454 C458 1.418 . S
C455 H434 0.929 . S
C455 C453 1.446 . S
C455 C456 1.332 . S
C456 H436 0.931 . S
C456 C455 1.332 . S
C456 C457 1.267 . S
C457 H425 0.929 . S
C457 C456 1.267 . S
C457 C458 1.251 . S
C458 H428 0.929 . S
C458 N454 1.418 . S
C458 C457 1.251 . S
C459 H426 0.930 . S
C459 C461 1.406 . S
C459 C464 1.261 . S
C460 H427 0.930 . S
C460 N462 1.325 . S
C460 C463 1.357 . S
C461 H429 0.928 . S
C461 C459 1.406 . S
C461 N462 1.261 . S
N462 Co413 2.214 . S
N462 C460 1.325 . S
N462 C461 1.261 . S
C463 H433 0.931 . S
C463 C460 1.357 . S
C463 C464 1.312 . S
C464 H435 0.930 . S
C464 C459 1.261 . S
C464 C463 1.312 . S
C465 O437 1.214 . S
C465 O445 1.234 . S
C466 H438 0.929 . S
C466 C469 1.391 . S
C466 C471 1.391 . S
C467 H439 0.929 . S
C467 C468 1.390 . S
C467 N470 1.391 . S
C468 H440 0.930 . S
C468 C467 1.390 . S
C468 C469 1.392 . S
C469 H441 0.929 . S
C469 C466 1.391 . S
C469 C468 1.392 . S
N470 Co414 2.257 . S
N470 C467 1.391 . S
N470 C471 1.388 . S
C471 H442 0.930 . S
C471 C466 1.391 . S
C471 N470 1.388 . S
Co472 O474 2.143 . S
Co472 O480 2.074 . S
Co472 O483 2.093 . S
Co472 O496 2.097 . S
Co472 N513 2.151 . S
Co472 N521 2.214 . S
Co473 O474 2.160 . S
Co473 O479 2.058 . S
Co473 O489 2.057 . S
Co473 O504 2.037 . S
Co473 N508 2.145 . S
Co473 N529 2.257 . S
O474 Co472 2.143 . S
O474 Co473 2.160 . S
C475 O476 1.278 . S
C475 O483 1.224 . S
O476 C475 1.278 . S
C477 O478 1.245 . S
C477 O489 1.232 . S
O478 C477 1.245 . S
O479 Co473 2.058 . S
O479 C505 1.269 . S
O480 Co472 2.074 . S
O480 C505 1.257 . S
H481 C506 0.930 . S
H482 C512 0.930 . S
O483 Co472 2.093 . S
O483 C475 1.224 . S
H484 C516 0.929 . S
H485 C518 0.930 . S
H486 C519 0.930 . S
H487 C517 0.929 . S
H488 C520 0.928 . S
O489 Co473 2.057 . S
O489 C477 1.232 . S
H490 C509 0.929 . S
H491 C510 0.929 . S
H492 C522 0.931 . S
H493 C514 0.929 . S
H494 C523 0.930 . S
H495 C515 0.931 . S
O496 Co472 2.097 . S
O496 C524 1.214 . S
H497 C525 0.929 . S
H498 C526 0.929 . S
H499 C527 0.930 . S
H500 C528 0.929 . S
H501 C530 0.930 . S
H502 C507 0.930 . S
H503 C511 0.930 . S
O504 Co473 2.037 . S
O504 C524 1.234 . S
C505 O479 1.269 . S
C505 O480 1.257 . S
C506 H481 0.930 . S
C506 C509 1.388 . S
C506 C511 1.418 . S
C507 H502 0.930 . S
C507 C510 1.404 . S
C507 C511 1.353 . S
N508 Co473 2.145 . S
N508 C509 1.397 . S
N508 C510 1.334 . S
C509 H490 0.929 . S
C509 C506 1.388 . S
C509 N508 1.397 . S
C510 H491 0.929 . S
C510 C507 1.404 . S
C510 N508 1.334 . S
C511 H503 0.930 . S
C511 C506 1.418 . S
C511 C507 1.353 . S
C512 H482 0.930 . S
C512 N513 1.330 . S
C512 C514 1.446 . S
N513 Co472 2.151 . S
N513 C512 1.330 . S
N513 C517 1.418 . S
C514 H493 0.929 . S
C514 C512 1.446 . S
C514 C515 1.332 . S
C515 H495 0.931 . S
C515 C514 1.332 . S
C515 C516 1.267 . S
C516 H484 0.929 . S
C516 C515 1.267 . S
C516 C517 1.251 . S
C517 H487 0.929 . S
C517 N513 1.418 . S
C517 C516 1.251 . S
C518 H485 0.930 . S
C518 C520 1.406 . S
C518 C523 1.261 . S
C519 H486 0.930 . S
C519 N521 1.325 . S
C519 C522 1.357 . S
C520 H488 0.928 . S
C520 C518 1.406 . S
C520 N521 1.261 . S
N521 Co472 2.214 . S
N521 C519 1.325 . S
N521 C520 1.261 . S
C522 H492 0.931 . S
C522 C519 1.357 . S
C522 C523 1.312 . S
C523 H494 0.930 . S
C523 C518 1.261 . S
C523 C522 1.312 . S
C524 O496 1.214 . S
C524 O504 1.234 . S
C525 H497 0.929 . S
C525 C528 1.391 . S
C525 C530 1.391 . S
C526 H498 0.929 . S
C526 C527 1.390 . S
C526 N529 1.391 . S
C527 H499 0.930 . S
C527 C526 1.390 . S
C527 C528 1.392 . S
C528 H500 0.929 . S
C528 C525 1.391 . S
C528 C527 1.392 . S
N529 Co473 2.257 . S
N529 C526 1.391 . S
N529 C530 1.388 . S
C530 H501 0.930 . S
C530 C525 1.391 . S
C530 N529 1.388 . S
Co531 O533 2.143 . S
Co531 O539 2.074 . S
Co531 O542 2.093 . S
Co531 O555 2.097 . S
Co531 N572 2.151 . S
Co531 N580 2.214 . S
Co532 O533 2.160 . S
Co532 O538 2.058 . S
Co532 O548 2.057 . S
Co532 O563 2.037 . S
Co532 N567 2.145 . S
Co532 N588 2.257 . S
O533 Co531 2.143 . S
O533 Co532 2.160 . S
C534 O535 1.278 . S
C534 O542 1.224 . S
O535 C534 1.278 . S
C536 O537 1.245 . S
C536 O548 1.232 . S
O537 C536 1.245 . S
O538 Co532 2.058 . S
O538 C564 1.269 . S
O539 Co531 2.074 . S
O539 C564 1.257 . S
H540 C565 0.930 . S
H541 C571 0.930 . S
O542 Co531 2.093 . S
O542 C534 1.224 . S
H543 C575 0.929 . S
H544 C577 0.930 . S
H545 C578 0.930 . S
H546 C576 0.929 . S
H547 C579 0.928 . S
O548 Co532 2.057 . S
O548 C536 1.232 . S
H549 C568 0.929 . S
H550 C569 0.929 . S
H551 C581 0.931 . S
H552 C573 0.929 . S
H553 C582 0.930 . S
H554 C574 0.931 . S
O555 Co531 2.097 . S
O555 C583 1.214 . S
H556 C584 0.929 . S
H557 C585 0.929 . S
H558 C586 0.930 . S
H559 C587 0.929 . S
H560 C589 0.930 . S
H561 C566 0.930 . S
H562 C570 0.930 . S
O563 Co532 2.037 . S
O563 C583 1.234 . S
C564 O538 1.269 . S
C564 O539 1.257 . S
C565 H540 0.930 . S
C565 C568 1.388 . S
C565 C570 1.418 . S
C566 H561 0.930 . S
C566 C569 1.404 . S
C566 C570 1.353 . S
N567 Co532 2.145 . S
N567 C568 1.397 . S
N567 C569 1.334 . S
C568 H549 0.929 . S
C568 C565 1.388 . S
C568 N567 1.397 . S
C569 H550 0.929 . S
C569 C566 1.404 . S
C569 N567 1.334 . S
C570 H562 0.930 . S
C570 C565 1.418 . S
C570 C566 1.353 . S
C571 H541 0.930 . S
C571 N572 1.330 . S
C571 C573 1.446 . S
N572 Co531 2.151 . S
N572 C571 1.330 . S
N572 C576 1.418 . S
C573 H552 0.929 . S
C573 C571 1.446 . S
C573 C574 1.332 . S
C574 H554 0.931 . S
C574 C573 1.332 . S
C574 C575 1.267 . S
C575 H543 0.929 . S
C575 C574 1.267 . S
C575 C576 1.251 . S
C576 H546 0.929 . S
C576 N572 1.418 . S
C576 C575 1.251 . S
C577 H544 0.930 . S
C577 C579 1.406 . S
C577 C582 1.261 . S
C578 H545 0.930 . S
C578 N580 1.325 . S
C578 C581 1.357 . S
C579 H547 0.928 . S
C579 C577 1.406 . S
C579 N580 1.261 . S
N580 Co531 2.214 . S
N580 C578 1.325 . S
N580 C579 1.261 . S
C581 H551 0.931 . S
C581 C578 1.357 . S
C581 C582 1.312 . S
C582 H553 0.930 . S
C582 C577 1.261 . S
C582 C581 1.312 . S
C583 O555 1.214 . S
C583 O563 1.234 . S
C584 H556 0.929 . S
C584 C587 1.391 . S
C584 C589 1.391 . S
C585 H557 0.929 . S
C585 C586 1.390 . S
C585 N588 1.391 . S
C586 H558 0.930 . S
C586 C585 1.390 . S
C586 C587 1.392 . S
C587 H559 0.929 . S
C587 C584 1.391 . S
C587 C586 1.392 . S
N588 Co532 2.257 . S
N588 C585 1.391 . S
N588 C589 1.388 . S
C589 H560 0.930 . S
C589 C584 1.391 . S
C589 N588 1.388 . S
Co590 O592 2.143 . S
Co590 O598 2.074 . S
Co590 O601 2.093 . S
Co590 O614 2.097 . S
Co590 N631 2.151 . S
Co590 N639 2.214 . S
Co591 O592 2.160 . S
Co591 O597 2.058 . S
Co591 O607 2.057 . S
Co591 O622 2.037 . S
Co591 N626 2.145 . S
Co591 N647 2.257 . S
O592 Co590 2.143 . S
O592 Co591 2.160 . S
C593 O594 1.278 . S
C593 O601 1.224 . S
O594 C593 1.278 . S
C595 O596 1.245 . S
C595 O607 1.232 . S
O596 C595 1.245 . S
O597 Co591 2.058 . S
O597 C623 1.269 . S
O598 Co590 2.074 . S
O598 C623 1.257 . S
H599 C624 0.930 . S
H600 C630 0.930 . S
O601 Co590 2.093 . S
O601 C593 1.224 . S
H602 C634 0.929 . S
H603 C636 0.930 . S
H604 C637 0.930 . S
H605 C635 0.929 . S
H606 C638 0.928 . S
O607 Co591 2.057 . S
O607 C595 1.232 . S
H608 C627 0.929 . S
H609 C628 0.929 . S
H610 C640 0.931 . S
H611 C632 0.929 . S
H612 C641 0.930 . S
H613 C633 0.931 . S
O614 Co590 2.097 . S
O614 C642 1.214 . S
H615 C643 0.929 . S
H616 C644 0.929 . S
H617 C645 0.930 . S
H618 C646 0.929 . S
H619 C648 0.930 . S
H620 C625 0.930 . S
H621 C629 0.930 . S
O622 Co591 2.037 . S
O622 C642 1.234 . S
C623 O597 1.269 . S
C623 O598 1.257 . S
C624 H599 0.930 . S
C624 C627 1.388 . S
C624 C629 1.418 . S
C625 H620 0.930 . S
C625 C628 1.404 . S
C625 C629 1.353 . S
N626 Co591 2.145 . S
N626 C627 1.397 . S
N626 C628 1.334 . S
C627 H608 0.929 . S
C627 C624 1.388 . S
C627 N626 1.397 . S
C628 H609 0.929 . S
C628 C625 1.404 . S
C628 N626 1.334 . S
C629 H621 0.930 . S
C629 C624 1.418 . S
C629 C625 1.353 . S
C630 H600 0.930 . S
C630 N631 1.330 . S
C630 C632 1.446 . S
N631 Co590 2.151 . S
N631 C630 1.330 . S
N631 C635 1.418 . S
C632 H611 0.929 . S
C632 C630 1.446 . S
C632 C633 1.332 . S
C633 H613 0.931 . S
C633 C632 1.332 . S
C633 C634 1.267 . S
C634 H602 0.929 . S
C634 C633 1.267 . S
C634 C635 1.251 . S
C635 H605 0.929 . S
C635 N631 1.418 . S
C635 C634 1.251 . S
C636 H603 0.930 . S
C636 C638 1.406 . S
C636 C641 1.261 . S
C637 H604 0.930 . S
C637 N639 1.325 . S
C637 C640 1.357 . S
C638 H606 0.928 . S
C638 C636 1.406 . S
C638 N639 1.261 . S
N639 Co590 2.214 . S
N639 C637 1.325 . S
N639 C638 1.261 . S
C640 H610 0.931 . S
C640 C637 1.357 . S
C640 C641 1.312 . S
C641 H612 0.930 . S
C641 C636 1.261 . S
C641 C640 1.312 . S
C642 O614 1.214 . S
C642 O622 1.234 . S
C643 H615 0.929 . S
C643 C646 1.391 . S
C643 C648 1.391 . S
C644 H616 0.929 . S
C644 C645 1.390 . S
C644 N647 1.391 . S
C645 H617 0.930 . S
C645 C644 1.390 . S
C645 C646 1.392 . S
C646 H618 0.929 . S
C646 C643 1.391 . S
C646 C645 1.392 . S
N647 Co591 2.257 . S
N647 C644 1.391 . S
N647 C648 1.388 . S
C648 H619 0.930 . S
C648 C643 1.391 . S
C648 N647 1.388 . S
Co649 O651 2.143 . S
Co649 O657 2.074 . S
Co649 O660 2.093 . S
Co649 O673 2.097 . S
Co649 N690 2.151 . S
Co649 N698 2.214 . S
Co650 O651 2.160 . S
Co650 O656 2.058 . S
Co650 O666 2.057 . S
Co650 O681 2.037 . S
Co650 N685 2.145 . S
Co650 N706 2.257 . S
O651 Co649 2.143 . S
O651 Co650 2.160 . S
C652 O653 1.278 . S
C652 O660 1.224 . S
O653 C652 1.278 . S
C654 O655 1.245 . S
C654 O666 1.232 . S
O655 C654 1.245 . S
O656 Co650 2.058 . S
O656 C682 1.269 . S
O657 Co649 2.074 . S
O657 C682 1.257 . S
H658 C683 0.930 . S
H659 C689 0.930 . S
O660 Co649 2.093 . S
O660 C652 1.224 . S
H661 C693 0.929 . S
H662 C695 0.930 . S
H663 C696 0.930 . S
H664 C694 0.929 . S
H665 C697 0.928 . S
O666 Co650 2.057 . S
O666 C654 1.232 . S
H667 C686 0.929 . S
H668 C687 0.929 . S
H669 C699 0.931 . S
H670 C691 0.929 . S
H671 C700 0.930 . S
H672 C692 0.931 . S
O673 Co649 2.097 . S
O673 C701 1.214 . S
H674 C702 0.929 . S
H675 C703 0.929 . S
H676 C704 0.930 . S
H677 C705 0.929 . S
H678 C707 0.930 . S
H679 C684 0.930 . S
H680 C688 0.930 . S
O681 Co650 2.037 . S
O681 C701 1.234 . S
C682 O656 1.269 . S
C682 O657 1.257 . S
C683 H658 0.930 . S
C683 C686 1.388 . S
C683 C688 1.418 . S
C684 H679 0.930 . S
C684 C687 1.404 . S
C684 C688 1.353 . S
N685 Co650 2.145 . S
N685 C686 1.397 . S
N685 C687 1.334 . S
C686 H667 0.929 . S
C686 C683 1.388 . S
C686 N685 1.397 . S
C687 H668 0.929 . S
C687 C684 1.404 . S
C687 N685 1.334 . S
C688 H680 0.930 . S
C688 C683 1.418 . S
C688 C684 1.353 . S
C689 H659 0.930 . S
C689 N690 1.330 . S
C689 C691 1.446 . S
N690 Co649 2.151 . S
N690 C689 1.330 . S
N690 C694 1.418 . S
C691 H670 0.929 . S
C691 C689 1.446 . S
C691 C692 1.332 . S
C692 H672 0.931 . S
C692 C691 1.332 . S
C692 C693 1.267 . S
C693 H661 0.929 . S
C693 C692 1.267 . S
C693 C694 1.251 . S
C694 H664 0.929 . S
C694 N690 1.418 . S
C694 C693 1.251 . S
C695 H662 0.930 . S
C695 C697 1.406 . S
C695 C700 1.261 . S
C696 H663 0.930 . S
C696 N698 1.325 . S
C696 C699 1.357 . S
C697 H665 0.928 . S
C697 C695 1.406 . S
C697 N698 1.261 . S
N698 Co649 2.214 . S
N698 C696 1.325 . S
N698 C697 1.261 . S
C699 H669 0.931 . S
C699 C696 1.357 . S
C699 C700 1.312 . S
C700 H671 0.930 . S
C700 C695 1.261 . S
C700 C699 1.312 . S
C701 O673 1.214 . S
C701 O681 1.234 . S
C702 H674 0.929 . S
C702 C705 1.391 . S
C702 C707 1.391 . S
C703 H675 0.929 . S
C703 C704 1.390 . S
C703 N706 1.391 . S
C704 H676 0.930 . S
C704 C703 1.390 . S
C704 C705 1.392 . S
C705 H677 0.929 . S
C705 C702 1.391 . S
C705 C704 1.392 . S
N706 Co650 2.257 . S
N706 C703 1.391 . S
N706 C707 1.388 . S
C707 H678 0.930 . S
C707 C702 1.391 . S
C707 N706 1.388 . S
Co708 O710 2.143 . S
Co708 O716 2.074 . S
Co708 O719 2.093 . S
Co708 O732 2.097 . S
Co708 N749 2.151 . S
Co708 N757 2.214 . S
Co709 O710 2.160 . S
Co709 O715 2.058 . S
Co709 O725 2.057 . S
Co709 O740 2.037 . S
Co709 N744 2.145 . S
Co709 N765 2.257 . S
O710 Co708 2.143 . S
O710 Co709 2.160 . S
C711 O712 1.278 . S
C711 O719 1.224 . S
O712 C711 1.278 . S
C713 O714 1.245 . S
C713 O725 1.232 . S
O714 C713 1.245 . S
O715 Co709 2.058 . S
O715 C741 1.269 . S
O716 Co708 2.074 . S
O716 C741 1.257 . S
H717 C742 0.930 . S
H718 C748 0.930 . S
O719 Co708 2.093 . S
O719 C711 1.224 . S
H720 C752 0.929 . S
H721 C754 0.930 . S
H722 C755 0.930 . S
H723 C753 0.929 . S
H724 C756 0.928 . S
O725 Co709 2.057 . S
O725 C713 1.232 . S
H726 C745 0.929 . S
H727 C746 0.929 . S
H728 C758 0.931 . S
H729 C750 0.929 . S
H730 C759 0.930 . S
H731 C751 0.931 . S
O732 Co708 2.097 . S
O732 C760 1.214 . S
H733 C761 0.929 . S
H734 C762 0.929 . S
H735 C763 0.930 . S
H736 C764 0.929 . S
H737 C766 0.930 . S
H738 C743 0.930 . S
H739 C747 0.930 . S
O740 Co709 2.037 . S
O740 C760 1.234 . S
C741 O715 1.269 . S
C741 O716 1.257 . S
C742 H717 0.930 . S
C742 C745 1.388 . S
C742 C747 1.418 . S
C743 H738 0.930 . S
C743 C746 1.404 . S
C743 C747 1.353 . S
N744 Co709 2.145 . S
N744 C745 1.397 . S
N744 C746 1.334 . S
C745 H726 0.929 . S
C745 C742 1.388 . S
C745 N744 1.397 . S
C746 H727 0.929 . S
C746 C743 1.404 . S
C746 N744 1.334 . S
C747 H739 0.930 . S
C747 C742 1.418 . S
C747 C743 1.353 . S
C748 H718 0.930 . S
C748 N749 1.330 . S
C748 C750 1.446 . S
N749 Co708 2.151 . S
N749 C748 1.330 . S
N749 C753 1.418 . S
C750 H729 0.929 . S
C750 C748 1.446 . S
C750 C751 1.332 . S
C751 H731 0.931 . S
C751 C750 1.332 . S
C751 C752 1.267 . S
C752 H720 0.929 . S
C752 C751 1.267 . S
C752 C753 1.251 . S
C753 H723 0.929 . S
C753 N749 1.418 . S
C753 C752 1.251 . S
C754 H721 0.930 . S
C754 C756 1.406 . S
C754 C759 1.261 . S
C755 H722 0.930 . S
C755 N757 1.325 . S
C755 C758 1.357 . S
C756 H724 0.928 . S
C756 C754 1.406 . S
C756 N757 1.261 . S
N757 Co708 2.214 . S
N757 C755 1.325 . S
N757 C756 1.261 . S
C758 H728 0.931 . S
C758 C755 1.357 . S
C758 C759 1.312 . S
C759 H730 0.930 . S
C759 C754 1.261 . S
C759 C758 1.312 . S
C760 O732 1.214 . S
C760 O740 1.234 . S
C761 H733 0.929 . S
C761 C764 1.391 . S
C761 C766 1.391 . S
C762 H734 0.929 . S
C762 C763 1.390 . S
C762 N765 1.391 . S
C763 H735 0.930 . S
C763 C762 1.390 . S
C763 C764 1.392 . S
C764 H736 0.929 . S
C764 C761 1.391 . S
C764 C763 1.392 . S
N765 Co709 2.257 . S
N765 C762 1.391 . S
N765 C766 1.388 . S
C766 H737 0.930 . S
C766 C761 1.391 . S
C766 N765 1.388 . S
Co767 O769 2.143 . S
Co767 O775 2.074 . S
Co767 O778 2.093 . S
Co767 O791 2.097 1_455 S
Co767 N808 2.151 . S
Co767 N816 2.214 . S
Co768 O769 2.160 1_655 S
Co768 O774 2.058 1_655 S
Co768 O784 2.057 1_655 S
Co768 O799 2.037 . S
Co768 N803 2.145 . S
Co768 N824 2.257 . S
O769 Co767 2.143 . S
O769 Co768 2.160 1_455 S
C770 O771 1.278 . S
C770 O778 1.224 1_655 S
O771 C770 1.278 . S
C772 O773 1.245 . S
C772 O784 1.232 . S
O773 C772 1.245 . S
O774 Co768 2.058 1_455 S
O774 C800 1.269 . S
O775 Co767 2.074 . S
O775 C800 1.257 . S
H776 C801 0.930 . S
H777 C807 0.930 . S
O778 Co767 2.093 . S
O778 C770 1.224 1_455 S
H779 C811 0.929 . S
H780 C813 0.930 . S
H781 C814 0.930 . S
H782 C812 0.929 . S
H783 C815 0.928 . S
O784 Co768 2.057 1_455 S
O784 C772 1.232 . S
H785 C804 0.929 . S
H786 C805 0.929 . S
H787 C817 0.931 . S
H788 C809 0.929 . S
H789 C818 0.930 . S
H790 C810 0.931 . S
O791 Co767 2.097 1_655 S
O791 C819 1.214 . S
H792 C820 0.929 . S
H793 C821 0.929 . S
H794 C822 0.930 . S
H795 C823 0.929 . S
H796 C825 0.930 . S
H797 C802 0.930 . S
H798 C806 0.930 . S
O799 Co768 2.037 . S
O799 C819 1.234 . S
C800 O774 1.269 . S
C800 O775 1.257 . S
C801 H776 0.930 . S
C801 C804 1.388 . S
C801 C806 1.418 . S
C802 H797 0.930 . S
C802 C805 1.404 . S
C802 C806 1.353 . S
N803 Co768 2.145 . S
N803 C804 1.397 . S
N803 C805 1.334 . S
C804 H785 0.929 . S
C804 C801 1.388 . S
C804 N803 1.397 . S
C805 H786 0.929 . S
C805 C802 1.404 . S
C805 N803 1.334 . S
C806 H798 0.930 . S
C806 C801 1.418 . S
C806 C802 1.353 . S
C807 H777 0.930 . S
C807 N808 1.330 . S
C807 C809 1.446 . S
N808 Co767 2.151 . S
N808 C807 1.330 . S
N808 C812 1.418 . S
C809 H788 0.929 . S
C809 C807 1.446 . S
C809 C810 1.332 . S
C810 H790 0.931 . S
C810 C809 1.332 . S
C810 C811 1.267 . S
C811 H779 0.929 . S
C811 C810 1.267 . S
C811 C812 1.251 . S
C812 H782 0.929 . S
C812 N808 1.418 . S
C812 C811 1.251 . S
C813 H780 0.930 . S
C813 C815 1.406 . S
C813 C818 1.261 . S
C814 H781 0.930 . S
C814 N816 1.325 . S
C814 C817 1.357 . S
C815 H783 0.928 . S
C815 C813 1.406 . S
C815 N816 1.261 . S
N816 Co767 2.214 . S
N816 C814 1.325 . S
N816 C815 1.261 . S
C817 H787 0.931 . S
C817 C814 1.357 . S
C817 C818 1.312 . S
C818 H789 0.930 . S
C818 C813 1.261 . S
C818 C817 1.312 . S
C819 O791 1.214 . S
C819 O799 1.234 . S
C820 H792 0.929 . S
C820 C823 1.391 . S
C820 C825 1.391 . S
C821 H793 0.929 . S
C821 C822 1.390 . S
C821 N824 1.391 . S
C822 H794 0.930 . S
C822 C821 1.390 . S
C822 C823 1.392 . S
C823 H795 0.929 . S
C823 C820 1.391 . S
C823 C822 1.392 . S
N824 Co768 2.257 . S
N824 C821 1.391 . S
N824 C825 1.388 . S
C825 H796 0.930 . S
C825 C820 1.391 . S
C825 N824 1.388 . S
Co826 O828 2.143 . S
Co826 O834 2.074 . S
Co826 O837 2.093 . S
Co826 O850 2.097 . S
Co826 N867 2.151 . S
Co826 N875 2.214 . S
Co827 O828 2.160 . S
Co827 O833 2.058 . S
Co827 O843 2.057 . S
Co827 O858 2.037 . S
Co827 N862 2.145 . S
Co827 N883 2.257 . S
O828 Co826 2.143 . S
O828 Co827 2.160 . S
C829 O830 1.278 . S
C829 O837 1.224 . S
O830 C829 1.278 . S
C831 O832 1.245 . S
C831 O843 1.232 . S
O832 C831 1.245 . S
O833 Co827 2.058 . S
O833 C859 1.269 . S
O834 Co826 2.074 . S
O834 C859 1.257 . S
H835 C860 0.930 . S
H836 C866 0.930 . S
O837 Co826 2.093 . S
O837 C829 1.224 . S
H838 C870 0.929 . S
H839 C872 0.930 . S
H840 C873 0.930 . S
H841 C871 0.929 . S
H842 C874 0.928 . S
O843 Co827 2.057 . S
O843 C831 1.232 . S
H844 C863 0.929 . S
H845 C864 0.929 . S
H846 C876 0.931 . S
H847 C868 0.929 . S
H848 C877 0.930 . S
H849 C869 0.931 . S
O850 Co826 2.097 . S
O850 C878 1.214 . S
H851 C879 0.929 . S
H852 C880 0.929 . S
H853 C881 0.930 . S
H854 C882 0.929 . S
H855 C884 0.930 . S
H856 C861 0.930 . S
H857 C865 0.930 . S
O858 Co827 2.037 . S
O858 C878 1.234 . S
C859 O833 1.269 . S
C859 O834 1.257 . S
C860 H835 0.930 . S
C860 C863 1.388 . S
C860 C865 1.418 . S
C861 H856 0.930 . S
C861 C864 1.404 . S
C861 C865 1.353 . S
N862 Co827 2.145 . S
N862 C863 1.397 . S
N862 C864 1.334 . S
C863 H844 0.929 . S
C863 C860 1.388 . S
C863 N862 1.397 . S
C864 H845 0.929 . S
C864 C861 1.404 . S
C864 N862 1.334 . S
C865 H857 0.930 . S
C865 C860 1.418 . S
C865 C861 1.353 . S
C866 H836 0.930 . S
C866 N867 1.330 . S
C866 C868 1.446 . S
N867 Co826 2.151 . S
N867 C866 1.330 . S
N867 C871 1.418 . S
C868 H847 0.929 . S
C868 C866 1.446 . S
C868 C869 1.332 . S
C869 H849 0.931 . S
C869 C868 1.332 . S
C869 C870 1.267 . S
C870 H838 0.929 . S
C870 C869 1.267 . S
C870 C871 1.251 . S
C871 H841 0.929 . S
C871 N867 1.418 . S
C871 C870 1.251 . S
C872 H839 0.930 . S
C872 C874 1.406 . S
C872 C877 1.261 . S
C873 H840 0.930 . S
C873 N875 1.325 . S
C873 C876 1.357 . S
C874 H842 0.928 . S
C874 C872 1.406 . S
C874 N875 1.261 . S
N875 Co826 2.214 . S
N875 C873 1.325 . S
N875 C874 1.261 . S
C876 H846 0.931 . S
C876 C873 1.357 . S
C876 C877 1.312 . S
C877 H848 0.930 . S
C877 C872 1.261 . S
C877 C876 1.312 . S
C878 O850 1.214 . S
C878 O858 1.234 . S
C879 H851 0.929 . S
C879 C882 1.391 . S
C879 C884 1.391 . S
C880 H852 0.929 . S
C880 C881 1.390 . S
C880 N883 1.391 . S
C881 H853 0.930 . S
C881 C880 1.390 . S
C881 C882 1.392 . S
C882 H854 0.929 . S
C882 C879 1.391 . S
C882 C881 1.392 . S
N883 Co827 2.257 . S
N883 C880 1.391 . S
N883 C884 1.388 . S
C884 H855 0.930 . S
C884 C879 1.391 . S
C884 N883 1.388 . S
Co885 O887 2.143 . S
Co885 O893 2.074 . S
Co885 O896 2.093 . S
Co885 O909 2.097 1_455 S
Co885 N926 2.151 . S
Co885 N934 2.214 . S
Co886 O887 2.160 1_655 S
Co886 O892 2.058 1_655 S
Co886 O902 2.057 1_655 S
Co886 O917 2.037 . S
Co886 N921 2.145 . S
Co886 N942 2.257 . S
O887 Co885 2.143 . S
O887 Co886 2.160 1_455 S
C888 O889 1.278 . S
C888 O896 1.224 1_655 S
O889 C888 1.278 . S
C890 O891 1.245 . S
C890 O902 1.232 . S
O891 C890 1.245 . S
O892 Co886 2.058 1_455 S
O892 C918 1.269 . S
O893 Co885 2.074 . S
O893 C918 1.257 . S
H894 C919 0.930 . S
H895 C925 0.930 . S
O896 Co885 2.093 . S
O896 C888 1.224 1_455 S
H897 C929 0.929 . S
H898 C931 0.930 . S
H899 C932 0.930 . S
H900 C930 0.929 . S
H901 C933 0.928 . S
O902 Co886 2.057 1_455 S
O902 C890 1.232 . S
H903 C922 0.929 . S
H904 C923 0.929 . S
H905 C935 0.931 . S
H906 C927 0.929 . S
H907 C936 0.930 . S
H908 C928 0.931 . S
O909 Co885 2.097 1_655 S
O909 C937 1.214 . S
H910 C938 0.929 . S
H911 C939 0.929 . S
H912 C940 0.930 . S
H913 C941 0.929 . S
H914 C943 0.930 . S
H915 C920 0.930 . S
H916 C924 0.930 . S
O917 Co886 2.037 . S
O917 C937 1.234 . S
C918 O892 1.269 . S
C918 O893 1.257 . S
C919 H894 0.930 . S
C919 C922 1.388 . S
C919 C924 1.418 . S
C920 H915 0.930 . S
C920 C923 1.404 . S
C920 C924 1.353 . S
N921 Co886 2.145 . S
N921 C922 1.397 . S
N921 C923 1.334 . S
C922 H903 0.929 . S
C922 C919 1.388 . S
C922 N921 1.397 . S
C923 H904 0.929 . S
C923 C920 1.404 . S
C923 N921 1.334 . S
C924 H916 0.930 . S
C924 C919 1.418 . S
C924 C920 1.353 . S
C925 H895 0.930 . S
C925 N926 1.330 . S
C925 C927 1.446 . S
N926 Co885 2.151 . S
N926 C925 1.330 . S
N926 C930 1.418 . S
C927 H906 0.929 . S
C927 C925 1.446 . S
C927 C928 1.332 . S
C928 H908 0.931 . S
C928 C927 1.332 . S
C928 C929 1.267 . S
C929 H897 0.929 . S
C929 C928 1.267 . S
C929 C930 1.251 . S
C930 H900 0.929 . S
C930 N926 1.418 . S
C930 C929 1.251 . S
C931 H898 0.930 . S
C931 C933 1.406 . S
C931 C936 1.261 . S
C932 H899 0.930 . S
C932 N934 1.325 . S
C932 C935 1.357 . S
C933 H901 0.928 . S
C933 C931 1.406 . S
C933 N934 1.261 . S
N934 Co885 2.214 . S
N934 C932 1.325 . S
N934 C933 1.261 . S
C935 H905 0.931 . S
C935 C932 1.357 . S
C935 C936 1.312 . S
C936 H907 0.930 . S
C936 C931 1.261 . S
C936 C935 1.312 . S
C937 O909 1.214 . S
C937 O917 1.234 . S
C938 H910 0.929 . S
C938 C941 1.391 . S
C938 C943 1.391 . S
C939 H911 0.929 . S
C939 C940 1.390 . S
C939 N942 1.391 . S
C940 H912 0.930 . S
C940 C939 1.390 . S
C940 C941 1.392 . S
C941 H913 0.929 . S
C941 C938 1.391 . S
C941 C940 1.392 . S
N942 Co886 2.257 . S
N942 C939 1.391 . S
N942 C943 1.388 . S
C943 H914 0.930 . S
C943 C938 1.391 . S
C943 N942 1.388 . S
H944 C962 0.951 . S
H945 C964 0.951 . S
H946 C966 0.950 . S
H947 C967 0.950 . S
H948 C969 0.950 . S
H949 C972 0.950 . S
H950 C973 0.950 . S
H951 C975 0.950 . S
H952 C976 0.950 . S
H953 C977 0.951 1_655 S
H954 C979 0.951 1_655 S
H955 C981 0.950 . S
H956 C982 0.950 . S
H957 C984 0.950 . S
H958 C987 0.950 . S
H959 C988 0.950 . S
H960 C990 0.950 . S
H961 C991 0.950 . S
C962 H944 0.951 . S
C962 C963 1.366 1_455 S
C962 C964 1.388 . S
C963 C962 1.366 1_655 S
C963 C967 1.385 . S
C964 H945 0.951 . S
C964 C962 1.388 . S
C964 C965 1.366 . S
C965 C964 1.366 . S
C965 C966 1.414 1_455 S
C965 C968 1.499 . S
C966 H946 0.950 . S
C966 C965 1.414 1_655 S
C966 C967 1.374 . S
C967 H947 0.950 . S
C967 C963 1.385 . S
C967 C966 1.374 . S
C968 C965 1.499 . S
C968 C969 1.373 1_455 S
C968 C970 1.389 . S
C969 H948 0.950 . S
C969 C968 1.373 1_655 S
C969 C985 1.377 . S
C970 C968 1.389 . S
C970 C971 1.524 . S
C970 C984 1.377 . S
C971 C970 1.524 . S
C971 C972 1.397 . S
C971 C976 1.363 . S
C972 H949 0.950 . S
C972 C971 1.397 . S
C972 C973 1.334 . S
C973 H950 0.950 . S
C973 C972 1.334 . S
C973 C974 1.287 . S
C974 C973 1.287 . S
C974 C975 1.524 . S
C974 H993 0.913 . S
C975 H951 0.950 . S
C975 C974 1.524 . S
C975 C976 1.415 . S
C976 H952 0.950 . S
C976 C971 1.363 . S
C976 C975 1.415 . S
C977 H953 0.951 1_455 S
C977 C978 1.366 . S
C977 C979 1.388 . S
C978 C977 1.366 . S
C978 C982 1.385 . S
C979 H954 0.951 1_455 S
C979 C977 1.388 . S
C979 C980 1.366 . S
C980 C979 1.366 . S
C980 C981 1.414 . S
C980 C983 1.499 . S
C981 H955 0.950 . S
C981 C980 1.414 . S
C981 C982 1.374 . S
C982 H956 0.950 . S
C982 C978 1.385 . S
C982 C981 1.374 . S
C983 C980 1.499 . S
C983 C984 1.373 . S
C983 C985 1.389 1_455 S
C984 H957 0.950 . S
C984 C970 1.377 . S
C984 C983 1.373 . S
C985 C969 1.377 . S
C985 C983 1.389 1_655 S
C985 C986 1.524 . S
C986 C985 1.524 . S
C986 C987 1.397 . S
C986 C991 1.363 . S
C987 H958 0.950 . S
C987 C986 1.397 . S
C987 C988 1.334 . S
C988 H959 0.950 . S
C988 C987 1.334 . S
C988 C989 1.287 . S
C989 C988 1.287 . S
C989 C990 1.524 . S
C989 H992 0.999 . S
C990 H960 0.950 . S
C990 C989 1.524 . S
C990 C991 1.415 . S
C991 H961 0.950 . S
C991 C986 1.363 . S
C991 C990 1.415 . S
H992 C989 0.999 . S
H993 C974 0.913 . S
H994 C1012 0.951 . S
H995 C1014 0.951 . S
H996 C1016 0.950 . S
H997 C1017 0.950 . S
H998 C1019 0.950 . S
H999 C1022 0.950 . S
H1000 C1023 0.950 . S
H1001 C1025 0.950 . S
H1002 C1026 0.950 . S
H1003 C1027 0.951 . S
H1004 C1029 0.951 . S
H1005 C1031 0.950 . S
H1006 C1032 0.950 . S
H1007 C1034 0.950 . S
H1008 C1037 0.950 . S
H1009 C1038 0.950 . S
H1010 C1040 0.950 . S
H1011 C1041 0.950 . S
C1012 H994 0.951 . S
C1012 C1013 1.366 . S
C1012 C1014 1.388 . S
C1013 C1012 1.366 . S
C1013 C1017 1.385 . S
C1014 H995 0.951 . S
C1014 C1012 1.388 . S
C1014 C1015 1.366 . S
C1015 C1014 1.366 . S
C1015 C1016 1.414 . S
C1015 C1018 1.499 . S
C1016 H996 0.950 . S
C1016 C1015 1.414 . S
C1016 C1017 1.374 . S
C1017 H997 0.950 . S
C1017 C1013 1.385 . S
C1017 C1016 1.374 . S
C1018 C1015 1.499 . S
C1018 C1019 1.373 . S
C1018 C1020 1.389 . S
C1019 H998 0.950 . S
C1019 C1018 1.373 . S
C1019 C1035 1.377 1_655 S
C1020 C1018 1.389 . S
C1020 C1021 1.524 . S
C1020 C1034 1.377 1_655 S
C1021 C1020 1.524 . S
C1021 C1022 1.397 . S
C1021 C1026 1.363 . S
C1022 H999 0.950 . S
C1022 C1021 1.397 . S
C1022 C1023 1.334 . S
C1023 H1000 0.950 . S
C1023 C1022 1.334 . S
C1023 C1024 1.287 . S
C1024 C1023 1.287 . S
C1024 C1025 1.524 . S
C1024 H1043 0.913 . S
C1025 H1001 0.950 . S
C1025 C1024 1.524 . S
C1025 C1026 1.415 . S
C1026 H1002 0.950 . S
C1026 C1021 1.363 . S
C1026 C1025 1.415 . S
C1027 H1003 0.951 . S
C1027 C1028 1.366 . S
C1027 C1029 1.388 . S
C1028 C1027 1.366 . S
C1028 C1032 1.385 . S
C1029 H1004 0.951 . S
C1029 C1027 1.388 . S
C1029 C1030 1.366 . S
C1030 C1029 1.366 . S
C1030 C1031 1.414 . S
C1030 C1033 1.499 . S
C1031 H1005 0.950 . S
C1031 C1030 1.414 . S
C1031 C1032 1.374 . S
C1032 H1006 0.950 . S
C1032 C1028 1.385 . S
C1032 C1031 1.374 . S
C1033 C1030 1.499 . S
C1033 C1034 1.373 . S
C1033 C1035 1.389 . S
C1034 H1007 0.950 . S
C1034 C1020 1.377 1_455 S
C1034 C1033 1.373 . S
C1035 C1019 1.377 1_455 S
C1035 C1033 1.389 . S
C1035 C1036 1.524 . S
C1036 C1035 1.524 . S
C1036 C1037 1.397 . S
C1036 C1041 1.363 . S
C1037 H1008 0.950 . S
C1037 C1036 1.397 . S
C1037 C1038 1.334 . S
C1038 H1009 0.950 . S
C1038 C1037 1.334 . S
C1038 C1039 1.287 . S
C1039 C1038 1.287 . S
C1039 C1040 1.524 . S
C1039 H1042 0.999 . S
C1040 H1010 0.950 . S
C1040 C1039 1.524 . S
C1040 C1041 1.415 . S
C1041 H1011 0.950 . S
C1041 C1036 1.363 . S
C1041 C1040 1.415 . S
H1042 C1039 0.999 . S
H1043 C1024 0.913 . S
H1044 C1062 0.951 . S
H1045 C1064 0.951 . S
H1046 C1066 0.950 . S
H1047 C1067 0.950 . S
H1048 C1069 0.950 . S
H1049 C1072 0.950 . S
H1050 C1073 0.950 . S
H1051 C1075 0.950 . S
H1052 C1076 0.950 . S
H1053 C1077 0.951 . S
H1054 C1079 0.951 . S
H1055 C1081 0.950 . S
H1056 C1082 0.950 . S
H1057 C1084 0.950 . S
H1058 C1087 0.950 . S
H1059 C1088 0.950 . S
H1060 C1090 0.950 . S
H1061 C1091 0.950 . S
C1062 H1044 0.951 . S
C1062 C1063 1.366 . S
C1062 C1064 1.388 . S
C1063 C1062 1.366 . S
C1063 C1067 1.385 . S
C1064 H1045 0.951 . S
C1064 C1062 1.388 . S
C1064 C1065 1.366 . S
C1065 C1064 1.366 . S
C1065 C1066 1.414 . S
C1065 C1068 1.499 . S
C1066 H1046 0.950 . S
C1066 C1065 1.414 . S
C1066 C1067 1.374 . S
C1067 H1047 0.950 . S
C1067 C1063 1.385 . S
C1067 C1066 1.374 . S
C1068 C1065 1.499 . S
C1068 C1069 1.373 . S
C1068 C1070 1.389 . S
C1069 H1048 0.950 . S
C1069 C1068 1.373 . S
C1069 C1085 1.377 . S
C1070 C1068 1.389 . S
C1070 C1071 1.524 . S
C1070 C1084 1.377 . S
C1071 C1070 1.524 . S
C1071 C1072 1.397 . S
C1071 C1076 1.363 . S
C1072 H1049 0.950 . S
C1072 C1071 1.397 . S
C1072 C1073 1.334 . S
C1073 H1050 0.950 . S
C1073 C1072 1.334 . S
C1073 C1074 1.287 . S
C1074 C1073 1.287 . S
C1074 C1075 1.524 . S
C1074 H1093 0.913 . S
C1075 H1051 0.950 . S
C1075 C1074 1.524 . S
C1075 C1076 1.415 . S
C1076 H1052 0.950 . S
C1076 C1071 1.363 . S
C1076 C1075 1.415 . S
C1077 H1053 0.951 . S
C1077 C1078 1.366 . S
C1077 C1079 1.388 . S
C1078 C1077 1.366 . S
C1078 C1082 1.385 . S
C1079 H1054 0.951 . S
C1079 C1077 1.388 . S
C1079 C1080 1.366 . S
C1080 C1079 1.366 . S
C1080 C1081 1.414 . S
C1080 C1083 1.499 . S
C1081 H1055 0.950 . S
C1081 C1080 1.414 . S
C1081 C1082 1.374 . S
C1082 H1056 0.950 . S
C1082 C1078 1.385 . S
C1082 C1081 1.374 . S
C1083 C1080 1.499 . S
C1083 C1084 1.373 . S
C1083 C1085 1.389 . S
C1084 H1057 0.950 . S
C1084 C1070 1.377 . S
C1084 C1083 1.373 . S
C1085 C1069 1.377 . S
C1085 C1083 1.389 . S
C1085 C1086 1.524 . S
C1086 C1085 1.524 . S
C1086 C1087 1.397 . S
C1086 C1091 1.363 . S
C1087 H1058 0.950 . S
C1087 C1086 1.397 . S
C1087 C1088 1.334 . S
C1088 H1059 0.950 . S
C1088 C1087 1.334 . S
C1088 C1089 1.287 . S
C1089 C1088 1.287 . S
C1089 C1090 1.524 . S
C1089 H1092 0.999 . S
C1090 H1060 0.950 . S
C1090 C1089 1.524 . S
C1090 C1091 1.415 . S
C1091 H1061 0.950 . S
C1091 C1086 1.363 . S
C1091 C1090 1.415 . S
H1092 C1089 0.999 . S
H1093 C1074 0.913 . S
H1094 C1112 0.951 . S
H1095 C1114 0.951 . S
H1096 C1116 0.950 . S
H1097 C1117 0.950 . S
H1098 C1119 0.950 . S
H1099 C1122 0.950 . S
H1100 C1123 0.950 . S
H1101 C1125 0.950 . S
H1102 C1126 0.950 . S
H1103 C1127 0.951 . S
H1104 C1129 0.951 . S
H1105 C1131 0.950 . S
H1106 C1132 0.950 . S
H1107 C1134 0.950 . S
H1108 C1137 0.950 . S
H1109 C1138 0.950 . S
H1110 C1140 0.950 . S
H1111 C1141 0.950 . S
C1112 H1094 0.951 . S
C1112 C1113 1.366 . S
C1112 C1114 1.388 . S
C1113 C1112 1.366 . S
C1113 C1117 1.385 . S
C1114 H1095 0.951 . S
C1114 C1112 1.388 . S
C1114 C1115 1.366 . S
C1115 C1114 1.366 . S
C1115 C1116 1.414 . S
C1115 C1118 1.499 . S
C1116 H1096 0.950 . S
C1116 C1115 1.414 . S
C1116 C1117 1.374 . S
C1117 H1097 0.950 . S
C1117 C1113 1.385 . S
C1117 C1116 1.374 . S
C1118 C1115 1.499 . S
C1118 C1119 1.373 . S
C1118 C1120 1.389 . S
C1119 H1098 0.950 . S
C1119 C1118 1.373 . S
C1119 C1135 1.377 . S
C1120 C1118 1.389 . S
C1120 C1121 1.524 . S
C1120 C1134 1.377 . S
C1121 C1120 1.524 . S
C1121 C1122 1.397 . S
C1121 C1126 1.363 . S
C1122 H1099 0.950 . S
C1122 C1121 1.397 . S
C1122 C1123 1.334 . S
C1123 H1100 0.950 . S
C1123 C1122 1.334 . S
C1123 C1124 1.287 . S
C1124 C1123 1.287 . S
C1124 C1125 1.524 . S
C1124 H1143 0.913 . S
C1125 H1101 0.950 . S
C1125 C1124 1.524 . S
C1125 C1126 1.415 . S
C1126 H1102 0.950 . S
C1126 C1121 1.363 . S
C1126 C1125 1.415 . S
C1127 H1103 0.951 . S
C1127 C1128 1.366 . S
C1127 C1129 1.388 . S
C1128 C1127 1.366 . S
C1128 C1132 1.385 . S
C1129 H1104 0.951 . S
C1129 C1127 1.388 . S
C1129 C1130 1.366 . S
C1130 C1129 1.366 . S
C1130 C1131 1.414 . S
C1130 C1133 1.499 . S
C1131 H1105 0.950 . S
C1131 C1130 1.414 . S
C1131 C1132 1.374 . S
C1132 H1106 0.950 . S
C1132 C1128 1.385 . S
C1132 C1131 1.374 . S
C1133 C1130 1.499 . S
C1133 C1134 1.373 . S
C1133 C1135 1.389 . S
C1134 H1107 0.950 . S
C1134 C1120 1.377 . S
C1134 C1133 1.373 . S
C1135 C1119 1.377 . S
C1135 C1133 1.389 . S
C1135 C1136 1.524 . S
C1136 C1135 1.524 . S
C1136 C1137 1.397 . S
C1136 C1141 1.363 . S
C1137 H1108 0.950 . S
C1137 C1136 1.397 . S
C1137 C1138 1.334 . S
C1138 H1109 0.950 . S
C1138 C1137 1.334 . S
C1138 C1139 1.287 . S
C1139 C1138 1.287 . S
C1139 C1140 1.524 . S
C1139 H1142 0.999 . S
C1140 H1110 0.950 . S
C1140 C1139 1.524 . S
C1140 C1141 1.415 . S
C1141 H1111 0.950 . S
C1141 C1136 1.363 . S
C1141 C1140 1.415 . S
H1142 C1139 0.999 . S
H1143 C1124 0.913 . S
H1144 C1162 0.951 . S
H1145 C1164 0.951 . S
H1146 C1166 0.950 . S
H1147 C1167 0.950 . S
H1148 C1169 0.950 . S
H1149 C1172 0.950 . S
H1150 C1173 0.950 . S
H1151 C1175 0.950 . S
H1152 C1176 0.950 . S
H1153 C1177 0.940 1_655 S
H1154 C1179 0.951 . S
H1155 C1181 0.950 . S
H1156 C1182 0.950 . S
H1157 C1184 0.950 . S
H1158 C1187 0.950 . S
H1159 C1188 0.950 1_455 S
H1160 C1190 0.950 . S
H1161 C1191 0.950 . S
C1162 H1144 0.951 . S
C1162 C1163 1.366 1_455 S
C1162 C1164 1.388 . S
C1163 C1162 1.366 1_655 S
C1163 C1167 1.385 . S
C1164 H1145 0.951 . S
C1164 C1162 1.388 . S
C1164 C1165 1.366 . S
C1165 C1164 1.366 . S
C1165 C1166 1.414 1_455 S
C1165 C1168 1.499 . S
C1166 H1146 0.950 . S
C1166 C1165 1.414 1_655 S
C1166 C1167 1.374 . S
C1167 H1147 0.950 . S
C1167 C1163 1.385 . S
C1167 C1166 1.374 . S
C1168 C1165 1.499 . S
C1168 C1169 1.373 1_455 S
C1168 C1170 1.389 . S
C1169 H1148 0.950 . S
C1169 C1168 1.373 1_655 S
C1169 C1185 1.377 . S
C1170 C1168 1.389 . S
C1170 C1171 1.524 . S
C1170 C1184 1.377 . S
C1171 C1170 1.524 . S
C1171 C1172 1.397 . S
C1171 C1176 1.363 . S
C1172 H1149 0.950 . S
C1172 C1171 1.397 . S
C1172 C1173 1.334 . S
C1173 H1150 0.950 . S
C1173 C1172 1.334 . S
C1173 C1174 1.287 . S
C1174 C1173 1.287 . S
C1174 C1175 1.524 . S
C1174 H1193 0.913 . S
C1175 H1151 0.950 . S
C1175 C1174 1.524 . S
C1175 C1176 1.415 . S
C1176 H1152 0.950 . S
C1176 C1171 1.363 . S
C1176 C1175 1.415 . S
C1177 H1153 0.940 1_455 S
C1177 C1178 1.378 . S
C1177 C1179 1.386 1_455 S
C1178 C1177 1.378 . S
C1178 C1182 1.385 . S
C1179 H1154 0.951 . S
C1179 C1177 1.386 1_655 S
C1179 C1180 1.366 1_655 S
C1180 C1179 1.366 1_455 S
C1180 C1181 1.414 . S
C1180 C1183 1.499 . S
C1181 H1155 0.950 . S
C1181 C1180 1.414 . S
C1181 C1182 1.374 . S
C1182 H1156 0.950 . S
C1182 C1178 1.385 . S
C1182 C1181 1.374 . S
C1183 C1180 1.499 . S
C1183 C1184 1.373 . S
C1183 C1185 1.389 1_455 S
C1184 H1157 0.950 . S
C1184 C1170 1.377 . S
C1184 C1183 1.373 . S
C1185 C1169 1.377 . S
C1185 C1183 1.389 1_655 S
C1185 C1186 1.524 . S
C1186 C1185 1.524 . S
C1186 C1187 1.397 1_655 S
C1186 C1191 1.363 . S
C1187 H1158 0.950 . S
C1187 C1186 1.397 1_455 S
C1187 C1188 1.334 1_455 S
C1188 H1159 0.950 1_655 S
C1188 C1187 1.334 1_655 S
C1188 C1189 1.287 . S
C1189 C1188 1.287 . S
C1189 C1190 1.524 . S
C1189 H1192 0.999 . S
C1190 H1160 0.950 . S
C1190 C1189 1.524 . S
C1190 C1191 1.415 . S
C1191 H1161 0.950 . S
C1191 C1186 1.363 . S
C1191 C1190 1.415 . S
H1192 C1189 0.999 . S
H1193 C1174 0.913 . S
H1194 C1212 0.951 . S
H1195 C1214 0.951 . S
H1196 C1216 0.950 . S
H1197 C1217 0.950 . S
H1198 C1219 0.950 . S
H1199 C1222 0.950 . S
H1200 C1223 0.950 . S
H1201 C1225 0.950 . S
H1202 C1226 0.950 . S
H1203 C1227 0.951 . S
H1204 C1229 0.951 . S
H1205 C1231 0.950 . S
H1206 C1232 0.950 . S
H1207 C1234 0.950 . S
H1208 C1237 0.950 . S
H1209 C1238 0.950 . S
H1210 C1240 0.950 . S
H1211 C1241 0.950 . S
C1212 H1194 0.951 . S
C1212 C1213 1.366 . S
C1212 C1214 1.388 . S
C1213 C1212 1.366 . S
C1213 C1217 1.385 . S
C1214 H1195 0.951 . S
C1214 C1212 1.388 . S
C1214 C1215 1.366 . S
C1215 C1214 1.366 . S
C1215 C1216 1.414 . S
C1215 C1218 1.499 . S
C1216 H1196 0.950 . S
C1216 C1215 1.414 . S
C1216 C1217 1.374 . S
C1217 H1197 0.950 . S
C1217 C1213 1.385 . S
C1217 C1216 1.374 . S
C1218 C1215 1.499 . S
C1218 C1219 1.373 . S
C1218 C1220 1.389 . S
C1219 H1198 0.950 . S
C1219 C1218 1.373 . S
C1219 C1235 1.377 . S
C1220 C1218 1.389 . S
C1220 C1221 1.524 . S
C1220 C1234 1.377 . S
C1221 C1220 1.524 . S
C1221 C1222 1.397 . S
C1221 C1226 1.363 . S
C1222 H1199 0.950 . S
C1222 C1221 1.397 . S
C1222 C1223 1.334 . S
C1223 H1200 0.950 . S
C1223 C1222 1.334 . S
C1223 C1224 1.287 . S
C1224 C1223 1.287 . S
C1224 C1225 1.524 . S
C1224 H1243 0.913 . S
C1225 H1201 0.950 . S
C1225 C1224 1.524 . S
C1225 C1226 1.415 . S
C1226 H1202 0.950 . S
C1226 C1221 1.363 . S
C1226 C1225 1.415 . S
C1227 H1203 0.951 . S
C1227 C1228 1.366 . S
C1227 C1229 1.388 . S
C1228 C1227 1.366 . S
C1228 C1232 1.385 . S
C1229 H1204 0.951 . S
C1229 C1227 1.388 . S
C1229 C1230 1.366 . S
C1230 C1229 1.366 . S
C1230 C1231 1.414 . S
C1230 C1233 1.499 . S
C1231 H1205 0.950 . S
C1231 C1230 1.414 . S
C1231 C1232 1.374 . S
C1232 H1206 0.950 . S
C1232 C1228 1.385 . S
C1232 C1231 1.374 . S
C1233 C1230 1.499 . S
C1233 C1234 1.373 . S
C1233 C1235 1.389 . S
C1234 H1207 0.950 . S
C1234 C1220 1.377 . S
C1234 C1233 1.373 . S
C1235 C1219 1.377 . S
C1235 C1233 1.389 . S
C1235 C1236 1.524 . S
C1236 C1235 1.524 . S
C1236 C1237 1.397 . S
C1236 C1241 1.363 . S
C1237 H1208 0.950 . S
C1237 C1236 1.397 . S
C1237 C1238 1.334 . S
C1238 H1209 0.950 . S
C1238 C1237 1.334 . S
C1238 C1239 1.287 . S
C1239 C1238 1.287 . S
C1239 C1240 1.524 . S
C1239 H1242 0.999 . S
C1240 H1210 0.950 . S
C1240 C1239 1.524 . S
C1240 C1241 1.415 . S
C1241 H1211 0.950 . S
C1241 C1236 1.363 . S
C1241 C1240 1.415 . S
H1242 C1239 0.999 . S
H1243 C1224 0.913 . S
H1244 C1262 0.951 . S
H1245 C1264 0.951 . S
H1246 C1266 0.950 . S
H1247 C1267 0.950 . S
H1248 C1269 0.950 . S
H1249 C1272 0.950 . S
H1250 C1273 0.950 . S
H1251 C1275 0.950 . S
H1252 C1276 0.950 . S
H1253 C1277 0.951 . S
H1254 C1279 0.951 . S
H1255 C1281 0.950 . S
H1256 C1282 0.950 . S
H1257 C1284 0.950 . S
H1258 C1287 0.950 . S
H1259 C1288 0.950 . S
H1260 C1290 0.950 . S
H1261 C1291 0.950 . S
C1262 H1244 0.951 . S
C1262 C1263 1.366 . S
C1262 C1264 1.388 . S
C1263 C1262 1.366 . S
C1263 C1267 1.385 . S
C1264 H1245 0.951 . S
C1264 C1262 1.388 . S
C1264 C1265 1.366 . S
C1265 C1264 1.366 . S
C1265 C1266 1.414 . S
C1265 C1268 1.499 . S
C1266 H1246 0.950 . S
C1266 C1265 1.414 . S
C1266 C1267 1.374 . S
C1267 H1247 0.950 . S
C1267 C1263 1.385 . S
C1267 C1266 1.374 . S
C1268 C1265 1.499 . S
C1268 C1269 1.373 . S
C1268 C1270 1.389 . S
C1269 H1248 0.950 . S
C1269 C1268 1.373 . S
C1269 C1285 1.377 . S
C1270 C1268 1.389 . S
C1270 C1271 1.524 . S
C1270 C1284 1.377 . S
C1271 C1270 1.524 . S
C1271 C1272 1.397 . S
C1271 C1276 1.363 . S
C1272 H1249 0.950 . S
C1272 C1271 1.397 . S
C1272 C1273 1.334 . S
C1273 H1250 0.950 . S
C1273 C1272 1.334 . S
C1273 C1274 1.287 . S
C1274 C1273 1.287 . S
C1274 C1275 1.524 . S
C1274 H1293 0.913 . S
C1275 H1251 0.950 . S
C1275 C1274 1.524 . S
C1275 C1276 1.415 . S
C1276 H1252 0.950 . S
C1276 C1271 1.363 . S
C1276 C1275 1.415 . S
C1277 H1253 0.951 . S
C1277 C1278 1.366 . S
C1277 C1279 1.388 . S
C1278 C1277 1.366 . S
C1278 C1282 1.385 . S
C1279 H1254 0.951 . S
C1279 C1277 1.388 . S
C1279 C1280 1.366 . S
C1280 C1279 1.366 . S
C1280 C1281 1.414 . S
C1280 C1283 1.499 . S
C1281 H1255 0.950 . S
C1281 C1280 1.414 . S
C1281 C1282 1.374 . S
C1282 H1256 0.950 . S
C1282 C1278 1.385 . S
C1282 C1281 1.374 . S
C1283 C1280 1.499 . S
C1283 C1284 1.373 . S
C1283 C1285 1.389 . S
C1284 H1257 0.950 . S
C1284 C1270 1.377 . S
C1284 C1283 1.373 . S
C1285 C1269 1.377 . S
C1285 C1283 1.389 . S
C1285 C1286 1.524 . S
C1286 C1285 1.524 . S
C1286 C1287 1.397 . S
C1286 C1291 1.363 . S
C1287 H1258 0.950 . S
C1287 C1286 1.397 . S
C1287 C1288 1.334 . S
C1288 H1259 0.950 . S
C1288 C1287 1.334 . S
C1288 C1289 1.287 . S
C1289 C1288 1.287 . S
C1289 C1290 1.524 . S
C1289 H1292 0.999 . S
C1290 H1260 0.950 . S
C1290 C1289 1.524 . S
C1290 C1291 1.415 . S
C1291 H1261 0.950 . S
C1291 C1286 1.363 . S
C1291 C1290 1.415 . S
H1292 C1289 0.999 . S
H1293 C1274 0.913 . S
H1294 C1312 0.951 . S
H1295 C1314 0.951 . S
H1296 C1316 0.950 . S
H1297 C1317 0.950 . S
H1298 C1319 0.950 . S
H1299 C1322 0.950 . S
H1300 C1323 0.950 . S
H1301 C1325 0.950 . S
H1302 C1326 0.950 . S
H1303 C1327 0.951 . S
H1304 C1329 0.951 . S
H1305 C1331 0.950 . S
H1306 C1332 0.950 . S
H1307 C1334 0.950 . S
H1308 C1337 0.950 . S
H1309 C1338 0.950 . S
H1310 C1340 0.950 . S
H1311 C1341 0.950 . S
C1312 H1294 0.951 . S
C1312 C1313 1.366 . S
C1312 C1314 1.388 . S
C1313 C1312 1.366 . S
C1313 C1317 1.385 . S
C1314 H1295 0.951 . S
C1314 C1312 1.388 . S
C1314 C1315 1.366 . S
C1315 C1314 1.366 . S
C1315 C1316 1.414 . S
C1315 C1318 1.499 . S
C1316 H1296 0.950 . S
C1316 C1315 1.414 . S
C1316 C1317 1.374 . S
C1317 H1297 0.950 . S
C1317 C1313 1.385 . S
C1317 C1316 1.374 . S
C1318 C1315 1.499 . S
C1318 C1319 1.373 . S
C1318 C1320 1.389 . S
C1319 H1298 0.950 . S
C1319 C1318 1.373 . S
C1319 C1335 1.377 1_455 S
C1320 C1318 1.389 . S
C1320 C1321 1.524 . S
C1320 C1334 1.377 1_455 S
C1321 C1320 1.524 . S
C1321 C1322 1.397 . S
C1321 C1326 1.363 . S
C1322 H1299 0.950 . S
C1322 C1321 1.397 . S
C1322 C1323 1.334 . S
C1323 H1300 0.950 . S
C1323 C1322 1.334 . S
C1323 C1324 1.287 . S
C1324 C1323 1.287 . S
C1324 C1325 1.524 . S
C1324 H1343 0.913 . S
C1325 H1301 0.950 . S
C1325 C1324 1.524 . S
C1325 C1326 1.415 . S
C1326 H1302 0.950 . S
C1326 C1321 1.363 . S
C1326 C1325 1.415 . S
C1327 H1303 0.951 . S
C1327 C1328 1.366 . S
C1327 C1329 1.388 . S
C1328 C1327 1.366 . S
C1328 C1332 1.385 . S
C1329 H1304 0.951 . S
C1329 C1327 1.388 . S
C1329 C1330 1.366 . S
C1330 C1329 1.366 . S
C1330 C1331 1.414 . S
C1330 C1333 1.499 . S
C1331 H1305 0.950 . S
C1331 C1330 1.414 . S
C1331 C1332 1.374 . S
C1332 H1306 0.950 . S
C1332 C1328 1.385 . S
C1332 C1331 1.374 . S
C1333 C1330 1.499 . S
C1333 C1334 1.373 . S
C1333 C1335 1.389 . S
C1334 H1307 0.950 . S
C1334 C1320 1.377 1_655 S
C1334 C1333 1.373 . S
C1335 C1319 1.377 1_655 S
C1335 C1333 1.389 . S
C1335 C1336 1.524 . S
C1336 C1335 1.524 . S
C1336 C1337 1.397 . S
C1336 C1341 1.363 . S
C1337 H1308 0.950 . S
C1337 C1336 1.397 . S
C1337 C1338 1.334 . S
C1338 H1309 0.950 . S
C1338 C1337 1.334 . S
C1338 C1339 1.287 . S
C1339 C1338 1.287 . S
C1339 C1340 1.524 . S
C1339 H1342 0.999 . S
C1340 H1310 0.950 . S
C1340 C1339 1.524 . S
C1340 C1341 1.415 . S
C1341 H1311 0.950 . S
C1341 C1336 1.363 . S
C1341 C1340 1.415 . S
H1342 C1339 0.999 . S
H1343 C1324 0.913 . S
H1344 C1362 0.951 . S
H1345 C1364 0.951 . S
H1346 C1366 0.950 . S
H1347 C1367 0.950 . S
H1348 C1369 0.950 . S
H1349 C1372 0.950 . S
H1350 C1373 0.950 . S
H1351 C1375 0.950 . S
H1352 C1376 0.950 . S
H1353 C1377 0.951 . S
H1354 C1379 0.951 . S
H1355 C1381 0.950 . S
H1356 C1382 0.950 . S
H1357 C1384 0.950 . S
H1358 C1387 0.950 . S
H1359 C1388 0.950 . S
H1360 C1390 0.950 . S
H1361 C1391 0.950 . S
C1362 H1344 0.951 . S
C1362 C1363 1.366 1_545 S
C1362 C1364 1.388 . S
C1363 C1362 1.366 1_565 S
C1363 C1367 1.385 . S
C1364 H1345 0.951 . S
C1364 C1362 1.388 . S
C1364 C1365 1.366 1_545 S
C1365 C1364 1.366 1_565 S
C1365 C1366 1.414 . S
C1365 C1368 1.499 . S
C1366 H1346 0.950 . S
C1366 C1365 1.414 . S
C1366 C1367 1.374 . S
C1367 H1347 0.950 . S
C1367 C1363 1.385 . S
C1367 C1366 1.374 . S
C1368 C1365 1.499 . S
C1368 C1369 1.373 . S
C1368 C1370 1.389 1_565 S
C1369 H1348 0.950 . S
C1369 C1368 1.373 . S
C1369 C1385 1.377 . S
C1370 C1368 1.389 1_545 S
C1370 C1371 1.524 . S
C1370 C1384 1.377 . S
C1371 C1370 1.524 . S
C1371 C1372 1.397 . S
C1371 C1376 1.363 . S
C1372 H1349 0.950 . S
C1372 C1371 1.397 . S
C1372 C1373 1.334 . S
C1373 H1350 0.950 . S
C1373 C1372 1.334 . S
C1373 C1374 1.287 . S
C1374 C1373 1.287 . S
C1374 C1375 1.524 . S
C1374 H1393 0.913 . S
C1375 H1351 0.950 . S
C1375 C1374 1.524 . S
C1375 C1376 1.415 . S
C1376 H1352 0.950 . S
C1376 C1371 1.363 . S
C1376 C1375 1.415 . S
C1377 H1353 0.951 . S
C1377 C1378 1.366 1_565 S
C1377 C1379 1.388 . S
C1378 C1377 1.366 1_545 S
C1378 C1382 1.385 . S
C1379 H1354 0.951 . S
C1379 C1377 1.388 . S
C1379 C1380 1.366 1_565 S
C1380 C1379 1.366 1_545 S
C1380 C1381 1.414 . S
C1380 C1383 1.499 . S
C1381 H1355 0.950 . S
C1381 C1380 1.414 . S
C1381 C1382 1.374 . S
C1382 H1356 0.950 . S
C1382 C1378 1.385 . S
C1382 C1381 1.374 . S
C1383 C1380 1.499 . S
C1383 C1384 1.373 . S
C1383 C1385 1.389 1_545 S
C1384 H1357 0.950 . S
C1384 C1370 1.377 . S
C1384 C1383 1.373 . S
C1385 C1369 1.377 . S
C1385 C1383 1.389 1_565 S
C1385 C1386 1.524 . S
C1386 C1385 1.524 . S
C1386 C1387 1.397 1_455 S
C1386 C1391 1.363 . S
C1387 H1358 0.950 . S
C1387 C1386 1.397 1_655 S
C1387 C1388 1.334 . S
C1388 H1359 0.950 . S
C1388 C1387 1.334 . S
C1388 C1389 1.287 . S
C1389 C1388 1.287 . S
C1389 C1390 1.524 1_655 S
C1389 H1392 0.999 . S
C1390 H1360 0.950 . S
C1390 C1389 1.524 1_455 S
C1390 C1391 1.415 . S
C1391 H1361 0.950 . S
C1391 C1386 1.363 . S
C1391 C1390 1.415 . S
H1392 C1389 0.999 . S
H1393 C1374 0.913 . S
H1394 C1412 0.951 . S
H1395 C1414 0.951 . S
H1396 C1416 0.950 . S
H1397 C1417 0.950 . S
H1398 C1419 0.950 . S
H1399 C1422 0.950 . S
H1400 C1423 0.950 . S
H1401 C1425 0.950 . S
H1402 C1426 0.950 . S
H1403 C1427 0.951 . S
H1404 C1429 0.951 . S
H1405 C1431 0.950 . S
H1406 C1432 0.950 . S
H1407 C1434 0.950 . S
H1408 C1437 0.950 . S
H1409 C1438 0.950 . S
H1410 C1440 0.950 . S
H1411 C1441 0.950 . S
C1412 H1394 0.951 . S
C1412 C1413 1.366 . S
C1412 C1414 1.388 . S
C1413 C1412 1.366 . S
C1413 C1417 1.385 . S
C1414 H1395 0.951 . S
C1414 C1412 1.388 . S
C1414 C1415 1.366 . S
C1415 C1414 1.366 . S
C1415 C1416 1.414 . S
C1415 C1418 1.499 . S
C1416 H1396 0.950 . S
C1416 C1415 1.414 . S
C1416 C1417 1.374 . S
C1417 H1397 0.950 . S
C1417 C1413 1.385 . S
C1417 C1416 1.374 . S
C1418 C1415 1.499 . S
C1418 C1419 1.373 . S
C1418 C1420 1.389 . S
C1419 H1398 0.950 . S
C1419 C1418 1.373 . S
C1419 C1435 1.377 . S
C1420 C1418 1.389 . S
C1420 C1421 1.524 . S
C1420 C1434 1.377 . S
C1421 C1420 1.524 . S
C1421 C1422 1.397 . S
C1421 C1426 1.363 . S
C1422 H1399 0.950 . S
C1422 C1421 1.397 . S
C1422 C1423 1.334 . S
C1423 H1400 0.950 . S
C1423 C1422 1.334 . S
C1423 C1424 1.287 . S
C1424 C1423 1.287 . S
C1424 C1425 1.524 . S
C1424 H1443 0.913 . S
C1425 H1401 0.950 . S
C1425 C1424 1.524 . S
C1425 C1426 1.415 . S
C1426 H1402 0.950 . S
C1426 C1421 1.363 . S
C1426 C1425 1.415 . S
C1427 H1403 0.951 . S
C1427 C1428 1.366 . S
C1427 C1429 1.388 . S
C1428 C1427 1.366 . S
C1428 C1432 1.385 . S
C1429 H1404 0.951 . S
C1429 C1427 1.388 . S
C1429 C1430 1.366 . S
C1430 C1429 1.366 . S
C1430 C1431 1.414 . S
C1430 C1433 1.499 . S
C1431 H1405 0.950 . S
C1431 C1430 1.414 . S
C1431 C1432 1.374 . S
C1432 H1406 0.950 . S
C1432 C1428 1.385 . S
C1432 C1431 1.374 . S
C1433 C1430 1.499 . S
C1433 C1434 1.373 . S
C1433 C1435 1.389 . S
C1434 H1407 0.950 . S
C1434 C1420 1.377 . S
C1434 C1433 1.373 . S
C1435 C1419 1.377 . S
C1435 C1433 1.389 . S
C1435 C1436 1.524 . S
C1436 C1435 1.524 . S
C1436 C1437 1.397 . S
C1436 C1441 1.363 . S
C1437 H1408 0.950 . S
C1437 C1436 1.397 . S
C1437 C1438 1.334 . S
C1438 H1409 0.950 . S
C1438 C1437 1.334 . S
C1438 C1439 1.287 . S
C1439 C1438 1.287 . S
C1439 C1440 1.524 . S
C1439 H1442 0.999 . S
C1440 H1410 0.950 . S
C1440 C1439 1.524 . S
C1440 C1441 1.415 . S
C1441 H1411 0.950 . S
C1441 C1436 1.363 . S
C1441 C1440 1.415 . S
H1442 C1439 0.999 . S
H1443 C1424 0.913 . S
H1444 C1462 0.951 . S
H1445 C1464 0.951 . S
H1446 C1466 0.950 . S
H1447 C1467 0.950 . S
H1448 C1469 0.950 . S
H1449 C1472 0.950 . S
H1450 C1473 0.950 . S
H1451 C1475 0.950 . S
H1452 C1476 0.950 . S
H1453 C1477 0.951 . S
H1454 C1479 0.951 . S
H1455 C1481 0.950 . S
H1456 C1482 0.950 . S
H1457 C1484 0.950 . S
H1458 C1487 0.950 . S
H1459 C1488 0.950 . S
H1460 C1490 0.950 . S
H1461 C1491 0.950 . S
C1462 H1444 0.951 . S
C1462 C1463 1.366 1_545 S
C1462 C1464 1.388 . S
C1463 C1462 1.366 1_565 S
C1463 C1467 1.385 . S
C1464 H1445 0.951 . S
C1464 C1462 1.388 . S
C1464 C1465 1.366 1_545 S
C1465 C1464 1.366 1_565 S
C1465 C1466 1.414 . S
C1465 C1468 1.499 . S
C1466 H1446 0.950 . S
C1466 C1465 1.414 . S
C1466 C1467 1.374 . S
C1467 H1447 0.950 . S
C1467 C1463 1.385 . S
C1467 C1466 1.374 . S
C1468 C1465 1.499 . S
C1468 C1469 1.373 . S
C1468 C1470 1.389 1_565 S
C1469 H1448 0.950 . S
C1469 C1468 1.373 . S
C1469 C1485 1.377 1_554 S
C1470 C1468 1.389 1_545 S
C1470 C1471 1.524 . S
C1470 C1484 1.377 1_554 S
C1471 C1470 1.524 . S
C1471 C1472 1.397 1_545 S
C1471 C1476 1.363 . S
C1472 H1449 0.950 . S
C1472 C1471 1.397 1_565 S
C1472 C1473 1.334 . S
C1473 H1450 0.950 . S
C1473 C1472 1.334 . S
C1473 C1474 1.287 . S
C1474 C1473 1.287 . S
C1474 C1475 1.524 1_565 S
C1474 H1493 0.913 . S
C1475 H1451 0.950 . S
C1475 C1474 1.524 1_545 S
C1475 C1476 1.415 . S
C1476 H1452 0.950 . S
C1476 C1471 1.363 . S
C1476 C1475 1.415 . S
C1477 H1453 0.951 . S
C1477 C1478 1.366 1_565 S
C1477 C1479 1.388 . S
C1478 C1477 1.366 1_545 S
C1478 C1482 1.385 . S
C1479 H1454 0.951 . S
C1479 C1477 1.388 . S
C1479 C1480 1.366 1_565 S
C1480 C1479 1.366 1_545 S
C1480 C1481 1.414 . S
C1480 C1483 1.499 . S
C1481 H1455 0.950 . S
C1481 C1480 1.414 . S
C1481 C1482 1.374 . S
C1482 H1456 0.950 . S
C1482 C1478 1.385 . S
C1482 C1481 1.374 . S
C1483 C1480 1.499 . S
C1483 C1484 1.373 . S
C1483 C1485 1.389 1_545 S
C1484 H1457 0.950 . S
C1484 C1470 1.377 1_556 S
C1484 C1483 1.373 . S
C1485 C1469 1.377 1_556 S
C1485 C1483 1.389 1_565 S
C1485 C1486 1.524 . S
C1486 C1485 1.524 . S
C1486 C1487 1.397 1_565 S
C1486 C1491 1.363 . S
C1487 H1458 0.950 . S
C1487 C1486 1.397 1_545 S
C1487 C1488 1.334 . S
C1488 H1459 0.950 . S
C1488 C1487 1.334 . S
C1488 C1489 1.287 . S
C1489 C1488 1.287 . S
C1489 C1490 1.524 1_545 S
C1489 H1492 0.999 . S
C1490 H1460 0.950 . S
C1490 C1489 1.524 1_565 S
C1490 C1491 1.415 . S
C1491 H1461 0.950 . S
C1491 C1486 1.363 . S
C1491 C1490 1.415 . S
H1492 C1489 0.999 . S
H1493 C1474 0.913 . S
H1494 C1512 0.951 . S
H1495 C1514 0.951 . S
H1496 C1516 0.950 . S
H1497 C1517 0.950 . S
H1498 C1519 0.950 . S
H1499 C1522 0.950 . S
H1500 C1523 0.950 . S
H1501 C1525 0.950 . S
H1502 C1526 0.950 . S
H1503 C1527 0.951 . S
H1504 C1529 0.951 . S
H1505 C1531 0.950 . S
H1506 C1532 0.950 . S
H1507 C1534 0.950 . S
H1508 C1537 0.950 . S
H1509 C1538 0.950 . S
H1510 C1540 0.950 . S
H1511 C1541 0.950 . S
C1512 H1494 0.951 . S
C1512 C1513 1.366 . S
C1512 C1514 1.388 . S
C1513 C1512 1.366 . S
C1513 C1517 1.385 . S
C1514 H1495 0.951 . S
C1514 C1512 1.388 . S
C1514 C1515 1.366 . S
C1515 C1514 1.366 . S
C1515 C1516 1.414 . S
C1515 C1518 1.499 . S
C1516 H1496 0.950 . S
C1516 C1515 1.414 . S
C1516 C1517 1.374 . S
C1517 H1497 0.950 . S
C1517 C1513 1.385 . S
C1517 C1516 1.374 . S
C1518 C1515 1.499 . S
C1518 C1519 1.373 . S
C1518 C1520 1.389 . S
C1519 H1498 0.950 . S
C1519 C1518 1.373 . S
C1519 C1535 1.377 . S
C1520 C1518 1.389 . S
C1520 C1521 1.524 . S
C1520 C1534 1.377 . S
C1521 C1520 1.524 . S
C1521 C1522 1.397 . S
C1521 C1526 1.363 . S
C1522 H1499 0.950 . S
C1522 C1521 1.397 . S
C1522 C1523 1.334 . S
C1523 H1500 0.950 . S
C1523 C1522 1.334 . S
C1523 C1524 1.287 . S
C1524 C1523 1.287 . S
C1524 C1525 1.524 . S
C1524 H1543 0.913 . S
C1525 H1501 0.950 . S
C1525 C1524 1.524 . S
C1525 C1526 1.415 . S
C1526 H1502 0.950 . S
C1526 C1521 1.363 . S
C1526 C1525 1.415 . S
C1527 H1503 0.951 . S
C1527 C1528 1.366 . S
C1527 C1529 1.388 . S
C1528 C1527 1.366 . S
C1528 C1532 1.385 . S
C1529 H1504 0.951 . S
C1529 C1527 1.388 . S
C1529 C1530 1.366 . S
C1530 C1529 1.366 . S
C1530 C1531 1.414 . S
C1530 C1533 1.499 . S
C1531 H1505 0.950 . S
C1531 C1530 1.414 . S
C1531 C1532 1.374 . S
C1532 H1506 0.950 . S
C1532 C1528 1.385 . S
C1532 C1531 1.374 . S
C1533 C1530 1.499 . S
C1533 C1534 1.373 . S
C1533 C1535 1.389 . S
C1534 H1507 0.950 . S
C1534 C1520 1.377 . S
C1534 C1533 1.373 . S
C1535 C1519 1.377 . S
C1535 C1533 1.389 . S
C1535 C1536 1.524 . S
C1536 C1535 1.524 . S
C1536 C1537 1.397 . S
C1536 C1541 1.363 . S
C1537 H1508 0.950 . S
C1537 C1536 1.397 . S
C1537 C1538 1.334 . S
C1538 H1509 0.950 . S
C1538 C1537 1.334 . S
C1538 C1539 1.287 . S
C1539 C1538 1.287 . S
C1539 C1540 1.524 . S
C1539 H1542 0.999 . S
C1540 H1510 0.950 . S
C1540 C1539 1.524 . S
C1540 C1541 1.415 . S
C1541 H1511 0.950 . S
C1541 C1536 1.363 . S
C1541 C1540 1.415 . S
H1542 C1539 0.999 . S
H1543 C1524 0.913 . S
H1544 C1562 0.951 . S
H1545 C1564 0.951 . S
H1546 C1566 0.950 . S
H1547 C1567 0.950 . S
H1548 C1569 0.950 . S
H1549 C1572 0.950 . S
H1550 C1573 0.950 . S
H1551 C1575 0.950 . S
H1552 C1576 0.950 . S
H1553 C1577 0.951 . S
H1554 C1579 0.951 . S
H1555 C1581 0.950 . S
H1556 C1582 0.950 . S
H1557 C1584 0.950 . S
H1558 C1587 0.950 . S
H1559 C1588 0.950 . S
H1560 C1590 0.950 . S
H1561 C1591 0.950 . S
C1562 H1544 0.951 . S
C1562 C1563 1.366 . S
C1562 C1564 1.388 . S
C1563 C1562 1.366 . S
C1563 C1567 1.385 . S
C1564 H1545 0.951 . S
C1564 C1562 1.388 . S
C1564 C1565 1.366 . S
C1565 C1564 1.366 . S
C1565 C1566 1.414 . S
C1565 C1568 1.499 . S
C1566 H1546 0.950 . S
C1566 C1565 1.414 . S
C1566 C1567 1.374 . S
C1567 H1547 0.950 . S
C1567 C1563 1.385 . S
C1567 C1566 1.374 . S
C1568 C1565 1.499 . S
C1568 C1569 1.373 . S
C1568 C1570 1.389 . S
C1569 H1548 0.950 . S
C1569 C1568 1.373 . S
C1569 C1585 1.377 . S
C1570 C1568 1.389 . S
C1570 C1571 1.524 . S
C1570 C1584 1.377 . S
C1571 C1570 1.524 . S
C1571 C1572 1.397 . S
C1571 C1576 1.363 . S
C1572 H1549 0.950 . S
C1572 C1571 1.397 . S
C1572 C1573 1.334 . S
C1573 H1550 0.950 . S
C1573 C1572 1.334 . S
C1573 C1574 1.287 . S
C1574 C1573 1.287 . S
C1574 C1575 1.524 . S
C1574 H1593 0.913 . S
C1575 H1551 0.950 . S
C1575 C1574 1.524 . S
C1575 C1576 1.415 . S
C1576 H1552 0.950 . S
C1576 C1571 1.363 . S
C1576 C1575 1.415 . S
C1577 H1553 0.951 . S
C1577 C1578 1.366 . S
C1577 C1579 1.388 . S
C1578 C1577 1.366 . S
C1578 C1582 1.385 . S
C1579 H1554 0.951 . S
C1579 C1577 1.388 . S
C1579 C1580 1.366 . S
C1580 C1579 1.366 . S
C1580 C1581 1.414 . S
C1580 C1583 1.499 . S
C1581 H1555 0.950 . S
C1581 C1580 1.414 . S
C1581 C1582 1.374 . S
C1582 H1556 0.950 . S
C1582 C1578 1.385 . S
C1582 C1581 1.374 . S
C1583 C1580 1.499 . S
C1583 C1584 1.373 . S
C1583 C1585 1.389 . S
C1584 H1557 0.950 . S
C1584 C1570 1.377 . S
C1584 C1583 1.373 . S
C1585 C1569 1.377 . S
C1585 C1583 1.389 . S
C1585 C1586 1.524 . S
C1586 C1585 1.524 . S
C1586 C1587 1.397 . S
C1586 C1591 1.363 . S
C1587 H1558 0.950 . S
C1587 C1586 1.397 . S
C1587 C1588 1.334 . S
C1588 H1559 0.950 . S
C1588 C1587 1.334 . S
C1588 C1589 1.287 . S
C1589 C1588 1.287 . S
C1589 C1590 1.524 . S
C1589 H1592 0.999 . S
C1590 H1560 0.950 . S
C1590 C1589 1.524 . S
C1590 C1591 1.415 . S
C1591 H1561 0.950 . S
C1591 C1586 1.363 . S
C1591 C1590 1.415 . S
H1592 C1589 0.999 . S
H1593 C1574 0.913 . S
H1594 C1612 0.951 . S
H1595 C1614 0.951 . S
H1596 C1616 0.950 . S
H1597 C1617 0.950 . S
H1598 C1619 0.950 . S
H1599 C1622 0.950 . S
H1600 C1623 0.950 . S
H1601 C1625 0.950 . S
H1602 C1626 0.950 . S
H1603 C1627 0.951 . S
H1604 C1629 0.951 . S
H1605 C1631 0.950 . S
H1606 C1632 0.950 . S
H1607 C1634 0.950 . S
H1608 C1637 0.950 . S
H1609 C1638 0.950 . S
H1610 C1640 0.950 . S
H1611 C1641 0.950 . S
C1612 H1594 0.951 . S
C1612 C1613 1.366 . S
C1612 C1614 1.388 . S
C1613 C1612 1.366 . S
C1613 C1617 1.385 . S
C1614 H1595 0.951 . S
C1614 C1612 1.388 . S
C1614 C1615 1.366 . S
C1615 C1614 1.366 . S
C1615 C1616 1.414 . S
C1615 C1618 1.499 . S
C1616 H1596 0.950 . S
C1616 C1615 1.414 . S
C1616 C1617 1.374 . S
C1617 H1597 0.950 . S
C1617 C1613 1.385 . S
C1617 C1616 1.374 . S
C1618 C1615 1.499 . S
C1618 C1619 1.373 . S
C1618 C1620 1.389 . S
C1619 H1598 0.950 . S
C1619 C1618 1.373 . S
C1619 C1635 1.377 . S
C1620 C1618 1.389 . S
C1620 C1621 1.524 . S
C1620 C1634 1.377 . S
C1621 C1620 1.524 . S
C1621 C1622 1.397 . S
C1621 C1626 1.363 . S
C1622 H1599 0.950 . S
C1622 C1621 1.397 . S
C1622 C1623 1.334 . S
C1623 H1600 0.950 . S
C1623 C1622 1.334 . S
C1623 C1624 1.287 . S
C1624 C1623 1.287 . S
C1624 C1625 1.524 . S
C1624 H1643 0.913 . S
C1625 H1601 0.950 . S
C1625 C1624 1.524 . S
C1625 C1626 1.415 . S
C1626 H1602 0.950 . S
C1626 C1621 1.363 . S
C1626 C1625 1.415 . S
C1627 H1603 0.951 . S
C1627 C1628 1.366 . S
C1627 C1629 1.388 . S
C1628 C1627 1.366 . S
C1628 C1632 1.385 . S
C1629 H1604 0.951 . S
C1629 C1627 1.388 . S
C1629 C1630 1.366 . S
C1630 C1629 1.366 . S
C1630 C1631 1.414 . S
C1630 C1633 1.499 . S
C1631 H1605 0.950 . S
C1631 C1630 1.414 . S
C1631 C1632 1.374 . S
C1632 H1606 0.950 . S
C1632 C1628 1.385 . S
C1632 C1631 1.374 . S
C1633 C1630 1.499 . S
C1633 C1634 1.373 . S
C1633 C1635 1.389 . S
C1634 H1607 0.950 . S
C1634 C1620 1.377 . S
C1634 C1633 1.373 . S
C1635 C1619 1.377 . S
C1635 C1633 1.389 . S
C1635 C1636 1.524 . S
C1636 C1635 1.524 . S
C1636 C1637 1.397 . S
C1636 C1641 1.363 . S
C1637 H1608 0.950 . S
C1637 C1636 1.397 . S
C1637 C1638 1.334 . S
C1638 H1609 0.950 . S
C1638 C1637 1.334 . S
C1638 C1639 1.287 . S
C1639 C1638 1.287 . S
C1639 C1640 1.524 . S
C1639 H1642 0.999 . S
C1640 H1610 0.950 . S
C1640 C1639 1.524 . S
C1640 C1641 1.415 . S
C1641 H1611 0.950 . S
C1641 C1636 1.363 . S
C1641 C1640 1.415 . S
H1642 C1639 0.999 . S
H1643 C1624 0.913 . S
H1644 C1662 0.951 . S
H1645 C1664 0.951 . S
H1646 C1666 0.950 . S
H1647 C1667 0.950 . S
H1648 C1669 0.950 . S
H1649 C1672 0.950 . S
H1650 C1673 0.950 . S
H1651 C1675 0.950 . S
H1652 C1676 0.950 . S
H1653 C1677 0.951 . S
H1654 C1679 0.951 . S
H1655 C1681 0.950 . S
H1656 C1682 0.950 . S
H1657 C1684 0.950 . S
H1658 C1687 0.950 . S
H1659 C1688 0.950 . S
H1660 C1690 0.950 . S
H1661 C1691 0.950 . S
C1662 H1644 0.951 . S
C1662 C1663 1.366 . S
C1662 C1664 1.388 . S
C1663 C1662 1.366 . S
C1663 C1667 1.385 . S
C1664 H1645 0.951 . S
C1664 C1662 1.388 . S
C1664 C1665 1.366 . S
C1665 C1664 1.366 . S
C1665 C1666 1.414 . S
C1665 C1668 1.499 . S
C1666 H1646 0.950 . S
C1666 C1665 1.414 . S
C1666 C1667 1.374 . S
C1667 H1647 0.950 . S
C1667 C1663 1.385 . S
C1667 C1666 1.374 . S
C1668 C1665 1.499 . S
C1668 C1669 1.373 . S
C1668 C1670 1.389 . S
C1669 H1648 0.950 . S
C1669 C1668 1.373 . S
C1669 C1685 1.377 1_556 S
C1670 C1668 1.389 . S
C1670 C1671 1.524 . S
C1670 C1684 1.377 1_556 S
C1671 C1670 1.524 . S
C1671 C1672 1.397 . S
C1671 C1676 1.363 . S
C1672 H1649 0.950 . S
C1672 C1671 1.397 . S
C1672 C1673 1.334 . S
C1673 H1650 0.950 . S
C1673 C1672 1.334 . S
C1673 C1674 1.287 . S
C1674 C1673 1.287 . S
C1674 C1675 1.524 . S
C1674 H1693 0.913 . S
C1675 H1651 0.950 . S
C1675 C1674 1.524 . S
C1675 C1676 1.415 . S
C1676 H1652 0.950 . S
C1676 C1671 1.363 . S
C1676 C1675 1.415 . S
C1677 H1653 0.951 . S
C1677 C1678 1.366 . S
C1677 C1679 1.388 . S
C1678 C1677 1.366 . S
C1678 C1682 1.385 . S
C1679 H1654 0.951 . S
C1679 C1677 1.388 . S
C1679 C1680 1.366 . S
C1680 C1679 1.366 . S
C1680 C1681 1.414 . S
C1680 C1683 1.499 . S
C1681 H1655 0.950 . S
C1681 C1680 1.414 . S
C1681 C1682 1.374 . S
C1682 H1656 0.950 . S
C1682 C1678 1.385 . S
C1682 C1681 1.374 . S
C1683 C1680 1.499 . S
C1683 C1684 1.373 . S
C1683 C1685 1.389 . S
C1684 H1657 0.950 . S
C1684 C1670 1.377 1_554 S
C1684 C1683 1.373 . S
C1685 C1669 1.377 1_554 S
C1685 C1683 1.389 . S
C1685 C1686 1.524 . S
C1686 C1685 1.524 . S
C1686 C1687 1.397 . S
C1686 C1691 1.363 . S
C1687 H1658 0.950 . S
C1687 C1686 1.397 . S
C1687 C1688 1.334 . S
C1688 H1659 0.950 . S
C1688 C1687 1.334 . S
C1688 C1689 1.287 . S
C1689 C1688 1.287 . S
C1689 C1690 1.524 . S
C1689 H1692 0.999 . S
C1690 H1660 0.950 . S
C1690 C1689 1.524 . S
C1690 C1691 1.415 . S
C1691 H1661 0.950 . S
C1691 C1686 1.363 . S
C1691 C1690 1.415 . S
H1692 C1689 0.999 . S
H1693 C1674 0.913 . S
H1694 C1712 0.953 . S
H1695 C1714 0.945 1_455 S
H1696 C1716 0.950 . S
H1697 C1717 0.950 . S
H1698 C1719 0.950 . S
H1699 C1722 0.950 . S
H1700 C1723 0.950 . S
H1701 C1725 0.950 . S
H1702 C1726 0.950 . S
H1703 C1727 0.951 . S
H1704 C1729 0.951 . S
H1705 C1731 0.953 . S
H1706 C1732 0.952 . S
H1707 C1734 0.950 . S
H1708 C1737 0.950 . S
H1709 C1738 0.950 . S
H1710 C1740 0.950 . S
H1711 C1741 0.950 . S
C1712 H1694 0.953 . S
C1712 C1713 1.366 . S
C1712 C1714 1.388 . S
C1713 C1712 1.366 . S
C1713 C1717 1.385 . S
C1714 H1695 0.945 1_655 S
C1714 C1712 1.388 . S
C1714 C1715 1.366 . S
C1715 C1714 1.366 . S
C1715 C1716 1.414 . S
C1715 C1718 1.499 . S
C1716 H1696 0.950 . S
C1716 C1715 1.414 . S
C1716 C1717 1.374 . S
C1717 H1697 0.950 . S
C1717 C1713 1.385 . S
C1717 C1716 1.374 . S
C1718 C1715 1.499 . S
C1718 C1719 1.373 . S
C1718 C1720 1.389 1_655 S
C1719 H1698 0.950 . S
C1719 C1718 1.373 . S
C1719 C1735 1.377 . S
C1720 C1718 1.389 1_455 S
C1720 C1721 1.524 . S
C1720 C1734 1.377 . S
C1721 C1720 1.524 . S
C1721 C1722 1.397 . S
C1721 C1726 1.363 . S
C1722 H1699 0.950 . S
C1722 C1721 1.397 . S
C1722 C1723 1.334 . S
C1723 H1700 0.950 . S
C1723 C1722 1.334 . S
C1723 C1724 1.287 . S
C1724 C1723 1.287 . S
C1724 C1725 1.524 . S
C1724 H1743 0.913 . S
C1725 H1701 0.950 . S
C1725 C1724 1.524 . S
C1725 C1726 1.415 . S
C1726 H1702 0.950 . S
C1726 C1721 1.363 . S
C1726 C1725 1.415 . S
C1727 H1703 0.951 . S
C1727 C1728 1.366 . S
C1727 C1729 1.388 . S
C1728 C1727 1.366 . S
C1728 C1732 1.385 . S
C1729 H1704 0.951 . S
C1729 C1727 1.388 . S
C1729 C1730 1.366 . S
C1730 C1729 1.366 . S
C1730 C1731 1.414 . S
C1730 C1733 1.499 . S
C1731 H1705 0.953 . S
C1731 C1730 1.414 . S
C1731 C1732 1.374 . S
C1732 H1706 0.952 . S
C1732 C1728 1.385 . S
C1732 C1731 1.374 . S
C1733 C1730 1.499 . S
C1733 C1734 1.373 1_655 S
C1733 C1735 1.389 . S
C1734 H1707 0.950 . S
C1734 C1720 1.377 . S
C1734 C1733 1.373 1_455 S
C1735 C1719 1.377 . S
C1735 C1733 1.389 . S
C1735 C1736 1.524 . S
C1736 C1735 1.524 . S
C1736 C1737 1.397 . S
C1736 C1741 1.363 . S
C1737 H1708 0.950 . S
C1737 C1736 1.397 . S
C1737 C1738 1.334 . S
C1738 H1709 0.950 . S
C1738 C1737 1.334 . S
C1738 C1739 1.287 . S
C1739 C1738 1.287 . S
C1739 C1740 1.524 . S
C1739 H1742 0.999 . S
C1740 H1710 0.950 . S
C1740 C1739 1.524 . S
C1740 C1741 1.415 . S
C1741 H1711 0.950 . S
C1741 C1736 1.363 . S
C1741 C1740 1.415 . S
H1742 C1739 0.999 . S
H1743 C1724 0.913 . S
H1744 C1762 0.951 . S
H1745 C1764 0.951 . S
H1746 C1766 0.950 . S
H1747 C1767 0.950 . S
H1748 C1769 0.950 . S
H1749 C1772 0.950 . S
H1750 C1773 0.950 . S
H1751 C1775 0.950 . S
H1752 C1776 0.950 . S
H1753 C1777 0.951 . S
H1754 C1779 0.951 . S
H1755 C1781 0.950 . S
H1756 C1782 0.950 . S
H1757 C1784 0.950 . S
H1758 C1787 0.950 . S
H1759 C1788 0.950 . S
H1760 C1790 0.950 . S
H1761 C1791 0.950 . S
C1762 H1744 0.951 . S
C1762 C1763 1.366 . S
C1762 C1764 1.388 . S
C1763 C1762 1.366 . S
C1763 C1767 1.385 . S
C1764 H1745 0.951 . S
C1764 C1762 1.388 . S
C1764 C1765 1.366 . S
C1765 C1764 1.366 . S
C1765 C1766 1.414 . S
C1765 C1768 1.499 . S
C1766 H1746 0.950 . S
C1766 C1765 1.414 . S
C1766 C1767 1.374 . S
C1767 H1747 0.950 . S
C1767 C1763 1.385 . S
C1767 C1766 1.374 . S
C1768 C1765 1.499 . S
C1768 C1769 1.373 . S
C1768 C1770 1.389 . S
C1769 H1748 0.950 . S
C1769 C1768 1.373 . S
C1769 C1785 1.377 . S
C1770 C1768 1.389 . S
C1770 C1771 1.524 . S
C1770 C1784 1.377 . S
C1771 C1770 1.524 . S
C1771 C1772 1.397 . S
C1771 C1776 1.363 . S
C1772 H1749 0.950 . S
C1772 C1771 1.397 . S
C1772 C1773 1.334 . S
C1773 H1750 0.950 . S
C1773 C1772 1.334 . S
C1773 C1774 1.287 . S
C1774 C1773 1.287 . S
C1774 C1775 1.524 . S
C1774 H1793 0.913 . S
C1775 H1751 0.950 . S
C1775 C1774 1.524 . S
C1775 C1776 1.415 . S
C1776 H1752 0.950 . S
C1776 C1771 1.363 . S
C1776 C1775 1.415 . S
C1777 H1753 0.951 . S
C1777 C1778 1.366 . S
C1777 C1779 1.388 . S
C1778 C1777 1.366 . S
C1778 C1782 1.385 . S
C1779 H1754 0.951 . S
C1779 C1777 1.388 . S
C1779 C1780 1.366 . S
C1780 C1779 1.366 . S
C1780 C1781 1.414 . S
C1780 C1783 1.499 . S
C1781 H1755 0.950 . S
C1781 C1780 1.414 . S
C1781 C1782 1.374 . S
C1782 H1756 0.950 . S
C1782 C1778 1.385 . S
C1782 C1781 1.374 . S
C1783 C1780 1.499 . S
C1783 C1784 1.373 . S
C1783 C1785 1.389 . S
C1784 H1757 0.950 . S
C1784 C1770 1.377 . S
C1784 C1783 1.373 . S
C1785 C1769 1.377 . S
C1785 C1783 1.389 . S
C1785 C1786 1.524 . S
C1786 C1785 1.524 . S
C1786 C1787 1.397 . S
C1786 C1791 1.363 . S
C1787 H1758 0.950 . S
C1787 C1786 1.397 . S
C1787 C1788 1.334 . S
C1788 H1759 0.950 . S
C1788 C1787 1.334 . S
C1788 C1789 1.287 . S
C1789 C1788 1.287 . S
C1789 C1790 1.524 . S
C1789 H1792 0.999 . S
C1790 H1760 0.950 . S
C1790 C1789 1.524 . S
C1790 C1791 1.415 . S
C1791 H1761 0.950 . S
C1791 C1786 1.363 . S
C1791 C1790 1.415 . S
H1792 C1789 0.999 . S
H1793 C1774 0.913 . S
H1794 C1812 0.951 . S
H1795 C1814 0.951 . S
H1796 C1816 0.950 . S
H1797 C1817 0.950 . S
H1798 C1819 0.950 . S
H1799 C1822 0.950 . S
H1800 C1823 0.950 . S
H1801 C1825 0.950 . S
H1802 C1826 0.950 . S
H1803 C1827 0.951 . S
H1804 C1829 0.951 . S
H1805 C1831 0.950 . S
H1806 C1832 0.950 . S
H1807 C1834 0.950 . S
H1808 C1837 0.950 . S
H1809 C1838 0.950 . S
H1810 C1840 0.950 . S
H1811 C1841 0.950 . S
C1812 H1794 0.951 . S
C1812 C1813 1.366 . S
C1812 C1814 1.388 . S
C1813 C1812 1.366 . S
C1813 C1817 1.385 . S
C1814 H1795 0.951 . S
C1814 C1812 1.388 . S
C1814 C1815 1.366 . S
C1815 C1814 1.366 . S
C1815 C1816 1.414 . S
C1815 C1818 1.499 . S
C1816 H1796 0.950 . S
C1816 C1815 1.414 . S
C1816 C1817 1.374 . S
C1817 H1797 0.950 . S
C1817 C1813 1.385 . S
C1817 C1816 1.374 . S
C1818 C1815 1.499 . S
C1818 C1819 1.373 . S
C1818 C1820 1.389 . S
C1819 H1798 0.950 . S
C1819 C1818 1.373 . S
C1819 C1835 1.377 . S
C1820 C1818 1.389 . S
C1820 C1821 1.524 . S
C1820 C1834 1.377 . S
C1821 C1820 1.524 . S
C1821 C1822 1.397 . S
C1821 C1826 1.363 . S
C1822 H1799 0.950 . S
C1822 C1821 1.397 . S
C1822 C1823 1.334 . S
C1823 H1800 0.950 . S
C1823 C1822 1.334 . S
C1823 C1824 1.287 . S
C1824 C1823 1.287 . S
C1824 C1825 1.524 . S
C1824 H1843 0.913 . S
C1825 H1801 0.950 . S
C1825 C1824 1.524 . S
C1825 C1826 1.415 . S
C1826 H1802 0.950 . S
C1826 C1821 1.363 . S
C1826 C1825 1.415 . S
C1827 H1803 0.951 . S
C1827 C1828 1.366 . S
C1827 C1829 1.388 . S
C1828 C1827 1.366 . S
C1828 C1832 1.385 . S
C1829 H1804 0.951 . S
C1829 C1827 1.388 . S
C1829 C1830 1.366 . S
C1830 C1829 1.366 . S
C1830 C1831 1.414 . S
C1830 C1833 1.499 . S
C1831 H1805 0.950 . S
C1831 C1830 1.414 . S
C1831 C1832 1.374 . S
C1832 H1806 0.950 . S
C1832 C1828 1.385 . S
C1832 C1831 1.374 . S
C1833 C1830 1.499 . S
C1833 C1834 1.373 . S
C1833 C1835 1.389 . S
C1834 H1807 0.950 . S
C1834 C1820 1.377 . S
C1834 C1833 1.373 . S
C1835 C1819 1.377 . S
C1835 C1833 1.389 . S
C1835 C1836 1.524 . S
C1836 C1835 1.524 . S
C1836 C1837 1.397 . S
C1836 C1841 1.363 . S
C1837 H1808 0.950 . S
C1837 C1836 1.397 . S
C1837 C1838 1.334 . S
C1838 H1809 0.950 . S
C1838 C1837 1.334 . S
C1838 C1839 1.287 . S
C1839 C1838 1.287 . S
C1839 C1840 1.524 . S
C1839 H1842 0.999 . S
C1840 H1810 0.950 . S
C1840 C1839 1.524 . S
C1840 C1841 1.415 . S
C1841 H1811 0.950 . S
C1841 C1836 1.363 . S
C1841 C1840 1.415 . S
H1842 C1839 0.999 . S
H1843 C1824 0.913 . S
H1844 C1862 0.951 . S
H1845 C1864 0.951 . S
H1846 C1866 0.950 . S
H1847 C1867 0.950 . S
H1848 C1869 0.950 . S
H1849 C1872 0.950 . S
H1850 C1873 0.950 . S
H1851 C1875 0.950 1_565 S
H1852 C1876 0.950 . S
H1853 C1877 0.951 . S
H1854 C1879 0.951 . S
H1855 C1881 0.950 . S
H1856 C1882 0.950 . S
H1857 C1884 0.950 . S
H1858 C1887 0.950 . S
H1859 C1888 0.950 . S
H1860 C1890 0.950 . S
H1861 C1891 0.950 . S
C1862 H1844 0.951 . S
C1862 C1863 1.366 . S
C1862 C1864 1.388 . S
C1863 C1862 1.366 . S
C1863 C1867 1.385 . S
C1864 H1845 0.951 . S
C1864 C1862 1.388 . S
C1864 C1865 1.366 . S
C1865 C1864 1.366 . S
C1865 C1866 1.414 . S
C1865 C1868 1.499 . S
C1866 H1846 0.950 . S
C1866 C1865 1.414 . S
C1866 C1867 1.374 . S
C1867 H1847 0.950 . S
C1867 C1863 1.385 . S
C1867 C1866 1.374 . S
C1868 C1865 1.499 . S
C1868 C1869 1.373 . S
C1868 C1870 1.389 . S
C1869 H1848 0.950 . S
C1869 C1868 1.373 . S
C1869 C1885 1.377 . S
C1870 C1868 1.389 . S
C1870 C1871 1.524 . S
C1870 C1884 1.377 . S
C1871 C1870 1.524 . S
C1871 C1872 1.397 . S
C1871 C1876 1.363 . S
C1872 H1849 0.950 . S
C1872 C1871 1.397 . S
C1872 C1873 1.334 . S
C1873 H1850 0.950 . S
C1873 C1872 1.334 . S
C1873 C1874 1.287 1_545 S
C1874 C1873 1.287 1_565 S
C1874 C1875 1.524 1_565 S
C1874 H1893 0.913 . S
C1875 H1851 0.950 1_545 S
C1875 C1874 1.524 1_545 S
C1875 C1876 1.415 . S
C1876 H1852 0.950 . S
C1876 C1871 1.363 . S
C1876 C1875 1.415 . S
C1877 H1853 0.951 . S
C1877 C1878 1.366 . S
C1877 C1879 1.388 . S
C1878 C1877 1.366 . S
C1878 C1882 1.385 . S
C1879 H1854 0.951 . S
C1879 C1877 1.388 . S
C1879 C1880 1.366 . S
C1880 C1879 1.366 . S
C1880 C1881 1.414 . S
C1880 C1883 1.499 . S
C1881 H1855 0.950 . S
C1881 C1880 1.414 . S
C1881 C1882 1.374 . S
C1882 H1856 0.950 . S
C1882 C1878 1.385 . S
C1882 C1881 1.374 . S
C1883 C1880 1.499 . S
C1883 C1884 1.373 . S
C1883 C1885 1.389 . S
C1884 H1857 0.950 . S
C1884 C1870 1.377 . S
C1884 C1883 1.373 . S
C1885 C1869 1.377 . S
C1885 C1883 1.389 . S
C1885 C1886 1.524 . S
C1886 C1885 1.524 . S
C1886 C1887 1.397 . S
C1886 C1891 1.363 . S
C1887 H1858 0.950 . S
C1887 C1886 1.397 . S
C1887 C1888 1.334 . S
C1888 H1859 0.950 . S
C1888 C1887 1.334 . S
C1888 C1889 1.287 . S
C1889 C1888 1.287 . S
C1889 C1890 1.524 . S
C1889 H1892 0.999 . S
C1890 H1860 0.950 . S
C1890 C1889 1.524 . S
C1890 C1891 1.415 . S
C1891 H1861 0.950 . S
C1891 C1886 1.363 . S
C1891 C1890 1.415 . S
H1892 C1889 0.999 . S
H1893 C1874 0.913 . S
H1894 C1912 0.951 . S
H1895 C1914 0.951 . S
H1896 C1916 0.950 . S
H1897 C1917 0.950 . S
H1898 C1919 0.950 . S
H1899 C1922 0.950 . S
H1900 C1923 0.950 . S
H1901 C1925 0.950 . S
H1902 C1926 0.950 . S
H1903 C1927 0.951 . S
H1904 C1929 0.951 . S
H1905 C1931 0.950 . S
H1906 C1932 0.950 . S
H1907 C1934 0.950 . S
H1908 C1937 0.950 . S
H1909 C1938 0.950 . S
H1910 C1940 0.950 . S
H1911 C1941 0.950 . S
C1912 H1894 0.951 . S
C1912 C1913 1.366 . S
C1912 C1914 1.388 . S
C1913 C1912 1.366 . S
C1913 C1917 1.385 . S
C1914 H1895 0.951 . S
C1914 C1912 1.388 . S
C1914 C1915 1.366 . S
C1915 C1914 1.366 . S
C1915 C1916 1.414 . S
C1915 C1918 1.499 . S
C1916 H1896 0.950 . S
C1916 C1915 1.414 . S
C1916 C1917 1.374 . S
C1917 H1897 0.950 . S
C1917 C1913 1.385 . S
C1917 C1916 1.374 . S
C1918 C1915 1.499 . S
C1918 C1919 1.373 . S
C1918 C1920 1.389 . S
C1919 H1898 0.950 . S
C1919 C1918 1.373 . S
C1919 C1935 1.377 . S
C1920 C1918 1.389 . S
C1920 C1921 1.524 . S
C1920 C1934 1.377 . S
C1921 C1920 1.524 . S
C1921 C1922 1.397 . S
C1921 C1926 1.363 . S
C1922 H1899 0.950 . S
C1922 C1921 1.397 . S
C1922 C1923 1.334 . S
C1923 H1900 0.950 . S
C1923 C1922 1.334 . S
C1923 C1924 1.287 . S
C1924 C1923 1.287 . S
C1924 C1925 1.524 . S
C1924 H1943 0.913 . S
C1925 H1901 0.950 . S
C1925 C1924 1.524 . S
C1925 C1926 1.415 . S
C1926 H1902 0.950 . S
C1926 C1921 1.363 . S
C1926 C1925 1.415 . S
C1927 H1903 0.951 . S
C1927 C1928 1.366 . S
C1927 C1929 1.388 . S
C1928 C1927 1.366 . S
C1928 C1932 1.385 . S
C1929 H1904 0.951 . S
C1929 C1927 1.388 . S
C1929 C1930 1.366 . S
C1930 C1929 1.366 . S
C1930 C1931 1.414 . S
C1930 C1933 1.499 . S
C1931 H1905 0.950 . S
C1931 C1930 1.414 . S
C1931 C1932 1.374 . S
C1932 H1906 0.950 . S
C1932 C1928 1.385 . S
C1932 C1931 1.374 . S
C1933 C1930 1.499 . S
C1933 C1934 1.373 . S
C1933 C1935 1.389 . S
C1934 H1907 0.950 . S
C1934 C1920 1.377 . S
C1934 C1933 1.373 . S
C1935 C1919 1.377 . S
C1935 C1933 1.389 . S
C1935 C1936 1.524 . S
C1936 C1935 1.524 . S
C1936 C1937 1.397 . S
C1936 C1941 1.363 . S
C1937 H1908 0.950 . S
C1937 C1936 1.397 . S
C1937 C1938 1.334 . S
C1938 H1909 0.950 . S
C1938 C1937 1.334 . S
C1938 C1939 1.287 . S
C1939 C1938 1.287 . S
C1939 C1940 1.524 . S
C1939 H1942 0.999 . S
C1940 H1910 0.950 . S
C1940 C1939 1.524 . S
C1940 C1941 1.415 . S
C1941 H1911 0.950 . S
C1941 C1936 1.363 . S
C1941 C1940 1.415 . S
H1942 C1939 0.999 . S
H1943 C1924 0.913 . S
H1944 C1962 0.951 . S
H1945 C1964 0.951 . S
H1946 C1966 0.950 . S
H1947 C1967 0.950 . S
H1948 C1969 0.950 . S
H1949 C1972 0.950 . S
H1950 C1973 0.950 . S
H1951 C1975 0.950 . S
H1952 C1976 0.950 . S
H1953 C1977 0.951 . S
H1954 C1979 0.951 . S
H1955 C1981 0.950 . S
H1956 C1982 0.950 . S
H1957 C1984 0.950 . S
H1958 C1987 0.950 . S
H1959 C1988 0.950 . S
H1960 C1990 0.950 . S
H1961 C1991 0.950 . S
C1962 H1944 0.951 . S
C1962 C1963 1.366 . S
C1962 C1964 1.388 . S
C1963 C1962 1.366 . S
C1963 C1967 1.385 . S
C1964 H1945 0.951 . S
C1964 C1962 1.388 . S
C1964 C1965 1.366 . S
C1965 C1964 1.366 . S
C1965 C1966 1.414 . S
C1965 C1968 1.499 . S
C1966 H1946 0.950 . S
C1966 C1965 1.414 . S
C1966 C1967 1.374 . S
C1967 H1947 0.950 . S
C1967 C1963 1.385 . S
C1967 C1966 1.374 . S
C1968 C1965 1.499 . S
C1968 C1969 1.373 . S
C1968 C1970 1.389 . S
C1969 H1948 0.950 . S
C1969 C1968 1.373 . S
C1969 C1985 1.377 . S
C1970 C1968 1.389 . S
C1970 C1971 1.524 . S
C1970 C1984 1.377 . S
C1971 C1970 1.524 . S
C1971 C1972 1.397 . S
C1971 C1976 1.363 . S
C1972 H1949 0.950 . S
C1972 C1971 1.397 . S
C1972 C1973 1.334 . S
C1973 H1950 0.950 . S
C1973 C1972 1.334 . S
C1973 C1974 1.287 . S
C1974 C1973 1.287 . S
C1974 C1975 1.524 . S
C1974 H1993 0.913 . S
C1975 H1951 0.950 . S
C1975 C1974 1.524 . S
C1975 C1976 1.415 . S
C1976 H1952 0.950 . S
C1976 C1971 1.363 . S
C1976 C1975 1.415 . S
C1977 H1953 0.951 . S
C1977 C1978 1.366 . S
C1977 C1979 1.388 . S
C1978 C1977 1.366 . S
C1978 C1982 1.385 . S
C1979 H1954 0.951 . S
C1979 C1977 1.388 . S
C1979 C1980 1.366 . S
C1980 C1979 1.366 . S
C1980 C1981 1.414 . S
C1980 C1983 1.499 . S
C1981 H1955 0.950 . S
C1981 C1980 1.414 . S
C1981 C1982 1.374 . S
C1982 H1956 0.950 . S
C1982 C1978 1.385 . S
C1982 C1981 1.374 . S
C1983 C1980 1.499 . S
C1983 C1984 1.373 . S
C1983 C1985 1.389 . S
C1984 H1957 0.950 . S
C1984 C1970 1.377 . S
C1984 C1983 1.373 . S
C1985 C1969 1.377 . S
C1985 C1983 1.389 . S
C1985 C1986 1.524 . S
C1986 C1985 1.524 . S
C1986 C1987 1.397 . S
C1986 C1991 1.363 . S
C1987 H1958 0.950 . S
C1987 C1986 1.397 . S
C1987 C1988 1.334 . S
C1988 H1959 0.950 . S
C1988 C1987 1.334 . S
C1988 C1989 1.287 . S
C1989 C1988 1.287 . S
C1989 C1990 1.524 . S
C1989 H1992 0.999 . S
C1990 H1960 0.950 . S
C1990 C1989 1.524 . S
C1990 C1991 1.415 . S
C1991 H1961 0.950 . S
C1991 C1986 1.363 . S
C1991 C1990 1.415 . S
H1992 C1989 0.999 . S
H1993 C1974 0.913 . S
H1994 C2012 0.951 1_565 S
H1995 C2014 0.951 . S
H1996 C2016 0.950 . S
H1997 C2017 0.950 . S
H1998 C2019 0.950 . S
H1999 C2022 0.950 . S
H2000 C2023 0.950 . S
H2001 C2025 0.950 1_565 S
H2002 C2026 0.950 . S
H2003 C2027 0.951 . S
H2004 C2029 0.951 . S
H2005 C2031 0.950 . S
H2006 C2032 0.950 . S
H2007 C2034 0.950 . S
H2008 C2037 0.950 . S
H2009 C2038 0.950 . S
H2010 C2040 0.950 . S
H2011 C2041 0.950 . S
C2012 H1994 0.951 1_545 S
C2012 C2013 1.366 . S
C2012 C2014 1.388 . S
C2013 C2012 1.366 . S
C2013 C2017 1.385 . S
C2014 H1995 0.951 . S
C2014 C2012 1.388 . S
C2014 C2015 1.366 . S
C2015 C2014 1.366 . S
C2015 C2016 1.414 . S
C2015 C2018 1.499 . S
C2016 H1996 0.950 . S
C2016 C2015 1.414 . S
C2016 C2017 1.374 . S
C2017 H1997 0.950 . S
C2017 C2013 1.385 . S
C2017 C2016 1.374 . S
C2018 C2015 1.499 . S
C2018 C2019 1.373 . S
C2018 C2020 1.389 . S
C2019 H1998 0.950 . S
C2019 C2018 1.373 . S
C2019 C2035 1.377 . S
C2020 C2018 1.389 . S
C2020 C2021 1.524 . S
C2020 C2034 1.377 . S
C2021 C2020 1.524 . S
C2021 C2022 1.397 . S
C2021 C2026 1.363 . S
C2022 H1999 0.950 . S
C2022 C2021 1.397 . S
C2022 C2023 1.334 . S
C2023 H2000 0.950 . S
C2023 C2022 1.334 . S
C2023 C2024 1.287 . S
C2024 C2023 1.287 . S
C2024 C2025 1.524 . S
C2024 H2043 0.913 1_545 S
C2025 H2001 0.950 1_545 S
C2025 C2024 1.524 . S
C2025 C2026 1.415 . S
C2026 H2002 0.950 . S
C2026 C2021 1.363 . S
C2026 C2025 1.415 . S
C2027 H2003 0.951 . S
C2027 C2028 1.366 . S
C2027 C2029 1.388 . S
C2028 C2027 1.366 . S
C2028 C2032 1.385 . S
C2029 H2004 0.951 . S
C2029 C2027 1.388 . S
C2029 C2030 1.366 . S
C2030 C2029 1.366 . S
C2030 C2031 1.414 . S
C2030 C2033 1.499 . S
C2031 H2005 0.950 . S
C2031 C2030 1.414 . S
C2031 C2032 1.374 . S
C2032 H2006 0.950 . S
C2032 C2028 1.385 . S
C2032 C2031 1.374 . S
C2033 C2030 1.499 . S
C2033 C2034 1.373 . S
C2033 C2035 1.389 . S
C2034 H2007 0.950 . S
C2034 C2020 1.377 . S
C2034 C2033 1.373 . S
C2035 C2019 1.377 . S
C2035 C2033 1.389 . S
C2035 C2036 1.524 . S
C2036 C2035 1.524 . S
C2036 C2037 1.397 . S
C2036 C2041 1.363 . S
C2037 H2008 0.950 . S
C2037 C2036 1.397 . S
C2037 C2038 1.334 . S
C2038 H2009 0.950 . S
C2038 C2037 1.334 . S
C2038 C2039 1.287 . S
C2039 C2038 1.287 . S
C2039 C2040 1.524 . S
C2039 H2042 0.999 . S
C2040 H2010 0.950 . S
C2040 C2039 1.524 . S
C2040 C2041 1.415 . S
C2041 H2011 0.950 . S
C2041 C2036 1.363 . S
C2041 C2040 1.415 . S
H2042 C2039 0.999 . S
H2043 C2024 0.913 1_565 S
H2044 C2062 0.951 . S
H2045 C2064 0.951 . S
H2046 C2066 0.950 . S
H2047 C2067 0.950 . S
H2048 C2069 0.950 . S
H2049 C2072 0.950 . S
H2050 C2073 0.950 . S
H2051 C2075 0.950 . S
H2052 C2076 0.950 . S
H2053 C2077 0.951 . S
H2054 C2079 0.951 . S
H2055 C2081 0.950 . S
H2056 C2082 0.950 1_545 S
H2057 C2084 0.950 . S
H2058 C2087 0.950 . S
H2059 C2088 0.950 . S
H2060 C2090 0.950 . S
H2061 C2091 0.950 . S
C2062 H2044 0.951 . S
C2062 C2063 1.366 . S
C2062 C2064 1.388 . S
C2063 C2062 1.366 . S
C2063 C2067 1.385 . S
C2064 H2045 0.951 . S
C2064 C2062 1.388 . S
C2064 C2065 1.366 . S
C2065 C2064 1.366 . S
C2065 C2066 1.414 . S
C2065 C2068 1.499 . S
C2066 H2046 0.950 . S
C2066 C2065 1.414 . S
C2066 C2067 1.374 . S
C2067 H2047 0.950 . S
C2067 C2063 1.385 . S
C2067 C2066 1.374 . S
C2068 C2065 1.499 . S
C2068 C2069 1.373 . S
C2068 C2070 1.389 . S
C2069 H2048 0.950 . S
C2069 C2068 1.373 . S
C2069 C2085 1.377 . S
C2070 C2068 1.389 . S
C2070 C2071 1.524 . S
C2070 C2084 1.377 . S
C2071 C2070 1.524 . S
C2071 C2072 1.397 . S
C2071 C2076 1.363 . S
C2072 H2049 0.950 . S
C2072 C2071 1.397 . S
C2072 C2073 1.334 . S
C2073 H2050 0.950 . S
C2073 C2072 1.334 . S
C2073 C2074 1.287 . S
C2074 C2073 1.287 . S
C2074 C2075 1.524 . S
C2074 H2093 0.913 . S
C2075 H2051 0.950 . S
C2075 C2074 1.524 . S
C2075 C2076 1.415 . S
C2076 H2052 0.950 . S
C2076 C2071 1.363 . S
C2076 C2075 1.415 . S
C2077 H2053 0.951 . S
C2077 C2078 1.366 . S
C2077 C2079 1.388 . S
C2078 C2077 1.366 . S
C2078 C2082 1.385 . S
C2079 H2054 0.951 . S
C2079 C2077 1.388 . S
C2079 C2080 1.366 . S
C2080 C2079 1.366 . S
C2080 C2081 1.414 . S
C2080 C2083 1.499 . S
C2081 H2055 0.950 . S
C2081 C2080 1.414 . S
C2081 C2082 1.374 . S
C2082 H2056 0.950 1_565 S
C2082 C2078 1.385 . S
C2082 C2081 1.374 . S
C2083 C2080 1.499 . S
C2083 C2084 1.373 . S
C2083 C2085 1.389 . S
C2084 H2057 0.950 . S
C2084 C2070 1.377 . S
C2084 C2083 1.373 . S
C2085 C2069 1.377 . S
C2085 C2083 1.389 . S
C2085 C2086 1.524 . S
C2086 C2085 1.524 . S
C2086 C2087 1.397 . S
C2086 C2091 1.363 . S
C2087 H2058 0.950 . S
C2087 C2086 1.397 . S
C2087 C2088 1.334 . S
C2088 H2059 0.950 . S
C2088 C2087 1.334 . S
C2088 C2089 1.287 . S
C2089 C2088 1.287 . S
C2089 C2090 1.524 . S
C2089 H2092 0.999 . S
C2090 H2060 0.950 . S
C2090 C2089 1.524 . S
C2090 C2091 1.415 . S
C2091 H2061 0.950 . S
C2091 C2086 1.363 . S
C2091 C2090 1.415 . S
H2092 C2089 0.999 . S
H2093 C2074 0.913 . S
H2094 C2112 0.951 . S
H2095 C2114 0.951 . S
H2096 C2116 0.950 . S
H2097 C2117 0.950 . S
H2098 C2119 0.950 . S
H2099 C2122 0.950 . S
H2100 C2123 0.950 . S
H2101 C2125 0.950 . S
H2102 C2126 0.950 . S
H2103 C2127 0.951 1_545 S
H2104 C2129 0.951 . S
H2105 C2131 0.950 . S
H2106 C2132 0.950 . S
H2107 C2134 0.950 . S
H2108 C2137 0.950 . S
H2109 C2138 0.950 . S
H2110 C2140 0.950 . S
H2111 C2141 0.950 . S
C2112 H2094 0.951 . S
C2112 C2113 1.366 . S
C2112 C2114 1.388 . S
C2113 C2112 1.366 . S
C2113 C2117 1.385 . S
C2114 H2095 0.951 . S
C2114 C2112 1.388 . S
C2114 C2115 1.366 . S
C2115 C2114 1.366 . S
C2115 C2116 1.414 . S
C2115 C2118 1.499 . S
C2116 H2096 0.950 . S
C2116 C2115 1.414 . S
C2116 C2117 1.374 . S
C2117 H2097 0.950 . S
C2117 C2113 1.385 . S
C2117 C2116 1.374 . S
C2118 C2115 1.499 . S
C2118 C2119 1.373 . S
C2118 C2120 1.389 . S
C2119 H2098 0.950 . S
C2119 C2118 1.373 . S
C2119 C2135 1.377 . S
C2120 C2118 1.389 . S
C2120 C2121 1.524 . S
C2120 C2134 1.377 . S
C2121 C2120 1.524 . S
C2121 C2122 1.397 . S
C2121 C2126 1.363 . S
C2122 H2099 0.950 . S
C2122 C2121 1.397 . S
C2122 C2123 1.334 . S
C2123 H2100 0.950 . S
C2123 C2122 1.334 . S
C2123 C2124 1.287 . S
C2124 C2123 1.287 . S
C2124 C2125 1.524 . S
C2124 H2143 0.913 . S
C2125 H2101 0.950 . S
C2125 C2124 1.524 . S
C2125 C2126 1.415 . S
C2126 H2102 0.950 . S
C2126 C2121 1.363 . S
C2126 C2125 1.415 . S
C2127 H2103 0.951 1_565 S
C2127 C2128 1.366 . S
C2127 C2129 1.388 . S
C2128 C2127 1.366 . S
C2128 C2132 1.385 . S
C2129 H2104 0.951 . S
C2129 C2127 1.388 . S
C2129 C2130 1.366 . S
C2130 C2129 1.366 . S
C2130 C2131 1.414 . S
C2130 C2133 1.499 . S
C2131 H2105 0.950 . S
C2131 C2130 1.414 . S
C2131 C2132 1.374 . S
C2132 H2106 0.950 . S
C2132 C2128 1.385 . S
C2132 C2131 1.374 . S
C2133 C2130 1.499 . S
C2133 C2134 1.373 . S
C2133 C2135 1.389 . S
C2134 H2107 0.950 . S
C2134 C2120 1.377 . S
C2134 C2133 1.373 . S
C2135 C2119 1.377 . S
C2135 C2133 1.389 . S
C2135 C2136 1.524 . S
C2136 C2135 1.524 . S
C2136 C2137 1.397 . S
C2136 C2141 1.363 . S
C2137 H2108 0.950 . S
C2137 C2136 1.397 . S
C2137 C2138 1.334 . S
C2138 H2109 0.950 . S
C2138 C2137 1.334 . S
C2138 C2139 1.287 . S
C2139 C2138 1.287 . S
C2139 C2140 1.524 . S
C2139 H2142 0.999 . S
C2140 H2110 0.950 . S
C2140 C2139 1.524 . S
C2140 C2141 1.415 . S
C2141 H2111 0.950 . S
C2141 C2136 1.363 . S
C2141 C2140 1.415 . S
H2142 C2139 0.999 . S
H2143 C2124 0.913 . S
H2144 C2162 0.951 . S
H2145 C2164 0.951 . S
H2146 C2166 0.950 . S
H2147 C2167 0.950 . S
H2148 C2169 0.950 . S
H2149 C2172 0.950 . S
H2150 C2173 0.950 . S
H2151 C2175 0.950 . S
H2152 C2176 0.950 . S
H2153 C2177 0.951 . S
H2154 C2179 0.951 . S
H2155 C2181 0.950 . S
H2156 C2182 0.950 . S
H2157 C2184 0.950 . S
H2158 C2187 0.950 . S
H2159 C2188 0.950 . S
H2160 C2190 0.950 . S
H2161 C2191 0.950 . S
C2162 H2144 0.951 . S
C2162 C2163 1.366 . S
C2162 C2164 1.388 . S
C2163 C2162 1.366 . S
C2163 C2167 1.385 . S
C2164 H2145 0.951 . S
C2164 C2162 1.388 . S
C2164 C2165 1.366 . S
C2165 C2164 1.366 . S
C2165 C2166 1.414 . S
C2165 C2168 1.499 . S
C2166 H2146 0.950 . S
C2166 C2165 1.414 . S
C2166 C2167 1.374 . S
C2167 H2147 0.950 . S
C2167 C2163 1.385 . S
C2167 C2166 1.374 . S
C2168 C2165 1.499 . S
C2168 C2169 1.373 . S
C2168 C2170 1.389 . S
C2169 H2148 0.950 . S
C2169 C2168 1.373 . S
C2169 C2185 1.377 . S
C2170 C2168 1.389 . S
C2170 C2171 1.524 . S
C2170 C2184 1.377 . S
C2171 C2170 1.524 . S
C2171 C2172 1.397 . S
C2171 C2176 1.363 . S
C2172 H2149 0.950 . S
C2172 C2171 1.397 . S
C2172 C2173 1.334 . S
C2173 H2150 0.950 . S
C2173 C2172 1.334 . S
C2173 C2174 1.287 . S
C2174 C2173 1.287 . S
C2174 C2175 1.524 . S
C2174 H2193 0.913 . S
C2175 H2151 0.950 . S
C2175 C2174 1.524 . S
C2175 C2176 1.415 . S
C2176 H2152 0.950 . S
C2176 C2171 1.363 . S
C2176 C2175 1.415 . S
C2177 H2153 0.951 . S
C2177 C2178 1.366 . S
C2177 C2179 1.388 . S
C2178 C2177 1.366 . S
C2178 C2182 1.385 . S
C2179 H2154 0.951 . S
C2179 C2177 1.388 . S
C2179 C2180 1.366 . S
C2180 C2179 1.366 . S
C2180 C2181 1.414 . S
C2180 C2183 1.499 . S
C2181 H2155 0.950 . S
C2181 C2180 1.414 . S
C2181 C2182 1.374 . S
C2182 H2156 0.950 . S
C2182 C2178 1.385 . S
C2182 C2181 1.374 . S
C2183 C2180 1.499 . S
C2183 C2184 1.373 . S
C2183 C2185 1.389 . S
C2184 H2157 0.950 . S
C2184 C2170 1.377 . S
C2184 C2183 1.373 . S
C2185 C2169 1.377 . S
C2185 C2183 1.389 . S
C2185 C2186 1.524 . S
C2186 C2185 1.524 . S
C2186 C2187 1.397 . S
C2186 C2191 1.363 . S
C2187 H2158 0.950 . S
C2187 C2186 1.397 . S
C2187 C2188 1.334 . S
C2188 H2159 0.950 . S
C2188 C2187 1.334 . S
C2188 C2189 1.287 . S
C2189 C2188 1.287 . S
C2189 C2190 1.524 . S
C2189 H2192 0.999 . S
C2190 H2160 0.950 . S
C2190 C2189 1.524 . S
C2190 C2191 1.415 . S
C2191 H2161 0.950 . S
C2191 C2186 1.363 . S
C2191 C2190 1.415 . S
H2192 C2189 0.999 . S
H2193 C2174 0.913 . S
H2194 C2212 0.951 . S
H2195 C2214 0.951 . S
H2196 C2216 0.950 . S
H2197 C2217 0.950 . S
H2198 C2219 0.950 . S
H2199 C2222 0.950 . S
H2200 C2223 0.950 . S
H2201 C2225 0.950 . S
H2202 C2226 0.950 . S
H2203 C2227 0.951 . S
H2204 C2229 0.951 . S
H2205 C2231 0.950 . S
H2206 C2232 0.950 . S
H2207 C2234 0.950 . S
H2208 C2237 0.950 . S
H2209 C2238 0.950 . S
H2210 C2240 0.950 . S
H2211 C2241 0.950 . S
C2212 H2194 0.951 . S
C2212 C2213 1.366 . S
C2212 C2214 1.388 . S
C2213 C2212 1.366 . S
C2213 C2217 1.385 . S
C2214 H2195 0.951 . S
C2214 C2212 1.388 . S
C2214 C2215 1.366 . S
C2215 C2214 1.366 . S
C2215 C2216 1.414 . S
C2215 C2218 1.499 . S
C2216 H2196 0.950 . S
C2216 C2215 1.414 . S
C2216 C2217 1.374 . S
C2217 H2197 0.950 . S
C2217 C2213 1.385 . S
C2217 C2216 1.374 . S
C2218 C2215 1.499 . S
C2218 C2219 1.373 . S
C2218 C2220 1.389 . S
C2219 H2198 0.950 . S
C2219 C2218 1.373 . S
C2219 C2235 1.377 . S
C2220 C2218 1.389 . S
C2220 C2221 1.524 . S
C2220 C2234 1.377 . S
C2221 C2220 1.524 . S
C2221 C2222 1.397 . S
C2221 C2226 1.363 . S
C2222 H2199 0.950 . S
C2222 C2221 1.397 . S
C2222 C2223 1.334 . S
C2223 H2200 0.950 . S
C2223 C2222 1.334 . S
C2223 C2224 1.287 . S
C2224 C2223 1.287 . S
C2224 C2225 1.524 . S
C2224 H2243 0.913 . S
C2225 H2201 0.950 . S
C2225 C2224 1.524 . S
C2225 C2226 1.415 . S
C2226 H2202 0.950 . S
C2226 C2221 1.363 . S
C2226 C2225 1.415 . S
C2227 H2203 0.951 . S
C2227 C2228 1.366 . S
C2227 C2229 1.388 . S
C2228 C2227 1.366 . S
C2228 C2232 1.385 . S
C2229 H2204 0.951 . S
C2229 C2227 1.388 . S
C2229 C2230 1.366 . S
C2230 C2229 1.366 . S
C2230 C2231 1.414 . S
C2230 C2233 1.499 . S
C2231 H2205 0.950 . S
C2231 C2230 1.414 . S
C2231 C2232 1.374 . S
C2232 H2206 0.950 . S
C2232 C2228 1.385 . S
C2232 C2231 1.374 . S
C2233 C2230 1.499 . S
C2233 C2234 1.373 . S
C2233 C2235 1.389 . S
C2234 H2207 0.950 . S
C2234 C2220 1.377 . S
C2234 C2233 1.373 . S
C2235 C2219 1.377 . S
C2235 C2233 1.389 . S
C2235 C2236 1.524 . S
C2236 C2235 1.524 . S
C2236 C2237 1.397 . S
C2236 C2241 1.363 . S
C2237 H2208 0.950 . S
C2237 C2236 1.397 . S
C2237 C2238 1.334 . S
C2238 H2209 0.950 . S
C2238 C2237 1.334 . S
C2238 C2239 1.287 . S
C2239 C2238 1.287 . S
C2239 C2240 1.524 . S
C2239 H2242 0.999 . S
C2240 H2210 0.950 . S
C2240 C2239 1.524 . S
C2240 C2241 1.415 . S
C2241 H2211 0.950 . S
C2241 C2236 1.363 . S
C2241 C2240 1.415 . S
H2242 C2239 0.999 . S
H2243 C2224 0.913 . S
H2244 C2262 0.951 . S
H2245 C2264 0.951 . S
H2246 C2266 0.950 . S
H2247 C2267 0.950 . S
H2248 C2269 0.950 . S
H2249 C2272 0.950 . S
H2250 C2273 0.950 . S
H2251 C2275 0.950 . S
H2252 C2276 0.950 . S
H2253 C2277 0.951 . S
H2254 C2279 0.951 . S
H2255 C2281 0.950 . S
H2256 C2282 0.950 . S
H2257 C2284 0.950 . S
H2258 C2287 0.950 . S
H2259 C2288 0.950 . S
H2260 C2290 0.950 . S
H2261 C2291 0.950 . S
C2262 H2244 0.951 . S
C2262 C2263 1.366 . S
C2262 C2264 1.388 . S
C2263 C2262 1.366 . S
C2263 C2267 1.385 . S
C2264 H2245 0.951 . S
C2264 C2262 1.388 . S
C2264 C2265 1.366 . S
C2265 C2264 1.366 . S
C2265 C2266 1.414 . S
C2265 C2268 1.499 . S
C2266 H2246 0.950 . S
C2266 C2265 1.414 . S
C2266 C2267 1.374 . S
C2267 H2247 0.950 . S
C2267 C2263 1.385 . S
C2267 C2266 1.374 . S
C2268 C2265 1.499 . S
C2268 C2269 1.373 . S
C2268 C2270 1.389 . S
C2269 H2248 0.950 . S
C2269 C2268 1.373 . S
C2269 C2285 1.377 . S
C2270 C2268 1.389 . S
C2270 C2271 1.524 . S
C2270 C2284 1.377 . S
C2271 C2270 1.524 . S
C2271 C2272 1.397 . S
C2271 C2276 1.363 . S
C2272 H2249 0.950 . S
C2272 C2271 1.397 . S
C2272 C2273 1.334 . S
C2273 H2250 0.950 . S
C2273 C2272 1.334 . S
C2273 C2274 1.287 . S
C2274 C2273 1.287 . S
C2274 C2275 1.524 . S
C2274 H2293 0.913 . S
C2275 H2251 0.950 . S
C2275 C2274 1.524 . S
C2275 C2276 1.415 . S
C2276 H2252 0.950 . S
C2276 C2271 1.363 . S
C2276 C2275 1.415 . S
C2277 H2253 0.951 . S
C2277 C2278 1.366 . S
C2277 C2279 1.388 . S
C2278 C2277 1.366 . S
C2278 C2282 1.385 . S
C2279 H2254 0.951 . S
C2279 C2277 1.388 . S
C2279 C2280 1.366 . S
C2280 C2279 1.366 . S
C2280 C2281 1.414 . S
C2280 C2283 1.499 . S
C2281 H2255 0.950 . S
C2281 C2280 1.414 . S
C2281 C2282 1.374 . S
C2282 H2256 0.950 . S
C2282 C2278 1.385 . S
C2282 C2281 1.374 . S
C2283 C2280 1.499 . S
C2283 C2284 1.373 . S
C2283 C2285 1.389 . S
C2284 H2257 0.950 . S
C2284 C2270 1.377 . S
C2284 C2283 1.373 . S
C2285 C2269 1.377 . S
C2285 C2283 1.389 . S
C2285 C2286 1.524 . S
C2286 C2285 1.524 . S
C2286 C2287 1.397 . S
C2286 C2291 1.363 . S
C2287 H2258 0.950 . S
C2287 C2286 1.397 . S
C2287 C2288 1.334 . S
C2288 H2259 0.950 . S
C2288 C2287 1.334 . S
C2288 C2289 1.287 . S
C2289 C2288 1.287 . S
C2289 C2290 1.524 . S
C2289 H2292 0.999 . S
C2290 H2260 0.950 . S
C2290 C2289 1.524 . S
C2290 C2291 1.415 . S
C2291 H2261 0.950 . S
C2291 C2286 1.363 . S
C2291 C2290 1.415 . S
H2292 C2289 0.999 . S
H2293 C2274 0.913 . S
H2294 C2312 0.951 . S
H2295 C2314 0.951 . S
H2296 C2316 0.950 . S
H2297 C2317 0.950 . S
H2298 C2319 0.950 . S
H2299 C2322 0.950 . S
H2300 C2323 0.950 . S
H2301 C2325 0.950 . S
H2302 C2326 0.950 . S
H2303 C2327 0.951 . S
H2304 C2329 0.951 . S
H2305 C2331 0.950 . S
H2306 C2332 0.950 . S
H2307 C2334 0.950 . S
H2308 C2337 0.950 . S
H2309 C2338 0.950 . S
H2310 C2340 0.950 . S
H2311 C2341 0.950 . S
C2312 H2294 0.951 . S
C2312 C2313 1.366 . S
C2312 C2314 1.388 . S
C2313 C2312 1.366 . S
C2313 C2317 1.385 . S
C2314 H2295 0.951 . S
C2314 C2312 1.388 . S
C2314 C2315 1.366 . S
C2315 C2314 1.366 . S
C2315 C2316 1.414 . S
C2315 C2318 1.499 . S
C2316 H2296 0.950 . S
C2316 C2315 1.414 . S
C2316 C2317 1.374 . S
C2317 H2297 0.950 . S
C2317 C2313 1.385 . S
C2317 C2316 1.374 . S
C2318 C2315 1.499 . S
C2318 C2319 1.373 . S
C2318 C2320 1.389 . S
C2319 H2298 0.950 . S
C2319 C2318 1.373 . S
C2319 C2335 1.377 . S
C2320 C2318 1.389 . S
C2320 C2321 1.524 . S
C2320 C2334 1.377 . S
C2321 C2320 1.524 . S
C2321 C2322 1.397 . S
C2321 C2326 1.363 . S
C2322 H2299 0.950 . S
C2322 C2321 1.397 . S
C2322 C2323 1.334 . S
C2323 H2300 0.950 . S
C2323 C2322 1.334 . S
C2323 C2324 1.287 . S
C2324 C2323 1.287 . S
C2324 C2325 1.524 . S
C2324 H2343 0.913 . S
C2325 H2301 0.950 . S
C2325 C2324 1.524 . S
C2325 C2326 1.415 . S
C2326 H2302 0.950 . S
C2326 C2321 1.363 . S
C2326 C2325 1.415 . S
C2327 H2303 0.951 . S
C2327 C2328 1.366 . S
C2327 C2329 1.388 . S
C2328 C2327 1.366 . S
C2328 C2332 1.385 . S
C2329 H2304 0.951 . S
C2329 C2327 1.388 . S
C2329 C2330 1.366 . S
C2330 C2329 1.366 . S
C2330 C2331 1.414 . S
C2330 C2333 1.499 . S
C2331 H2305 0.950 . S
C2331 C2330 1.414 . S
C2331 C2332 1.374 . S
C2332 H2306 0.950 . S
C2332 C2328 1.385 . S
C2332 C2331 1.374 . S
C2333 C2330 1.499 . S
C2333 C2334 1.373 . S
C2333 C2335 1.389 . S
C2334 H2307 0.950 . S
C2334 C2320 1.377 . S
C2334 C2333 1.373 . S
C2335 C2319 1.377 . S
C2335 C2333 1.389 . S
C2335 C2336 1.524 . S
C2336 C2335 1.524 . S
C2336 C2337 1.397 . S
C2336 C2341 1.363 . S
C2337 H2308 0.950 . S
C2337 C2336 1.397 . S
C2337 C2338 1.334 . S
C2338 H2309 0.950 . S
C2338 C2337 1.334 . S
C2338 C2339 1.287 . S
C2339 C2338 1.287 . S
C2339 C2340 1.524 . S
C2339 H2342 0.999 . S
C2340 H2310 0.950 . S
C2340 C2339 1.524 . S
C2340 C2341 1.415 . S
C2341 H2311 0.950 . S
C2341 C2336 1.363 . S
C2341 C2340 1.415 . S
H2342 C2339 0.999 . S
H2343 C2324 0.913 . S
H2344 C2362 0.951 . S
H2345 C2364 0.951 . S
H2346 C2366 0.950 . S
H2347 C2367 0.950 . S
H2348 C2369 0.950 . S
H2349 C2372 0.950 . S
H2350 C2373 0.950 . S
H2351 C2375 0.950 . S
H2352 C2376 0.950 . S
H2353 C2377 0.951 . S
H2354 C2379 0.951 . S
H2355 C2381 0.950 . S
H2356 C2382 0.950 . S
H2357 C2384 0.950 . S
H2358 C2387 0.950 . S
H2359 C2388 0.950 . S
H2360 C2390 0.950 . S
H2361 C2391 0.950 . S
C2362 H2344 0.951 . S
C2362 C2363 1.366 . S
C2362 C2364 1.388 . S
C2363 C2362 1.366 . S
C2363 C2367 1.385 . S
C2364 H2345 0.951 . S
C2364 C2362 1.388 . S
C2364 C2365 1.366 . S
C2365 C2364 1.366 . S
C2365 C2366 1.414 . S
C2365 C2368 1.499 . S
C2366 H2346 0.950 . S
C2366 C2365 1.414 . S
C2366 C2367 1.374 . S
C2367 H2347 0.950 . S
C2367 C2363 1.385 . S
C2367 C2366 1.374 . S
C2368 C2365 1.499 . S
C2368 C2369 1.373 . S
C2368 C2370 1.389 . S
C2369 H2348 0.950 . S
C2369 C2368 1.373 . S
C2369 C2385 1.377 . S
C2370 C2368 1.389 . S
C2370 C2371 1.524 . S
C2370 C2384 1.377 . S
C2371 C2370 1.524 . S
C2371 C2372 1.397 . S
C2371 C2376 1.363 . S
C2372 H2349 0.950 . S
C2372 C2371 1.397 . S
C2372 C2373 1.334 . S
C2373 H2350 0.950 . S
C2373 C2372 1.334 . S
C2373 C2374 1.287 . S
C2374 C2373 1.287 . S
C2374 C2375 1.524 . S
C2374 H2393 0.913 . S
C2375 H2351 0.950 . S
C2375 C2374 1.524 . S
C2375 C2376 1.415 . S
C2376 H2352 0.950 . S
C2376 C2371 1.363 . S
C2376 C2375 1.415 . S
C2377 H2353 0.951 . S
C2377 C2378 1.366 . S
C2377 C2379 1.388 . S
C2378 C2377 1.366 . S
C2378 C2382 1.385 . S
C2379 H2354 0.951 . S
C2379 C2377 1.388 . S
C2379 C2380 1.366 . S
C2380 C2379 1.366 . S
C2380 C2381 1.414 . S
C2380 C2383 1.499 . S
C2381 H2355 0.950 . S
C2381 C2380 1.414 . S
C2381 C2382 1.374 . S
C2382 H2356 0.950 . S
C2382 C2378 1.385 . S
C2382 C2381 1.374 . S
C2383 C2380 1.499 . S
C2383 C2384 1.373 . S
C2383 C2385 1.389 . S
C2384 H2357 0.950 . S
C2384 C2370 1.377 . S
C2384 C2383 1.373 . S
C2385 C2369 1.377 . S
C2385 C2383 1.389 . S
C2385 C2386 1.524 . S
C2386 C2385 1.524 . S
C2386 C2387 1.397 . S
C2386 C2391 1.363 . S
C2387 H2358 0.950 . S
C2387 C2386 1.397 . S
C2387 C2388 1.334 . S
C2388 H2359 0.950 . S
C2388 C2387 1.334 . S
C2388 C2389 1.287 . S
C2389 C2388 1.287 . S
C2389 C2390 1.524 . S
C2389 H2392 0.999 . S
C2390 H2360 0.950 . S
C2390 C2389 1.524 . S
C2390 C2391 1.415 . S
C2391 H2361 0.950 . S
C2391 C2386 1.363 . S
C2391 C2390 1.415 . S
H2392 C2389 0.999 . S
H2393 C2374 0.913 . S
H2394 C2412 0.951 . S
H2395 C2414 0.951 . S
H2396 C2416 0.950 . S
H2397 C2417 0.950 . S
H2398 C2419 0.950 . S
H2399 C2422 0.950 . S
H2400 C2423 0.950 . S
H2401 C2425 0.950 . S
H2402 C2426 0.950 . S
H2403 C2427 0.951 . S
H2404 C2429 0.951 . S
H2405 C2431 0.950 . S
H2406 C2432 0.950 . S
H2407 C2434 0.950 . S
H2408 C2437 0.950 . S
H2409 C2438 0.950 . S
H2410 C2440 0.950 . S
H2411 C2441 0.950 . S
C2412 H2394 0.951 . S
C2412 C2413 1.366 . S
C2412 C2414 1.388 . S
C2413 C2412 1.366 . S
C2413 C2417 1.385 . S
C2414 H2395 0.951 . S
C2414 C2412 1.388 . S
C2414 C2415 1.366 . S
C2415 C2414 1.366 . S
C2415 C2416 1.414 . S
C2415 C2418 1.499 . S
C2416 H2396 0.950 . S
C2416 C2415 1.414 . S
C2416 C2417 1.374 . S
C2417 H2397 0.950 . S
C2417 C2413 1.385 . S
C2417 C2416 1.374 . S
C2418 C2415 1.499 . S
C2418 C2419 1.373 . S
C2418 C2420 1.389 . S
C2419 H2398 0.950 . S
C2419 C2418 1.373 . S
C2419 C2435 1.377 . S
C2420 C2418 1.389 . S
C2420 C2421 1.524 . S
C2420 C2434 1.377 . S
C2421 C2420 1.524 . S
C2421 C2422 1.397 . S
C2421 C2426 1.363 . S
C2422 H2399 0.950 . S
C2422 C2421 1.397 . S
C2422 C2423 1.334 . S
C2423 H2400 0.950 . S
C2423 C2422 1.334 . S
C2423 C2424 1.287 . S
C2424 C2423 1.287 . S
C2424 C2425 1.524 . S
C2424 H2443 0.913 . S
C2425 H2401 0.950 . S
C2425 C2424 1.524 . S
C2425 C2426 1.415 . S
C2426 H2402 0.950 . S
C2426 C2421 1.363 . S
C2426 C2425 1.415 . S
C2427 H2403 0.951 . S
C2427 C2428 1.366 . S
C2427 C2429 1.388 . S
C2428 C2427 1.366 . S
C2428 C2432 1.385 . S
C2429 H2404 0.951 . S
C2429 C2427 1.388 . S
C2429 C2430 1.366 . S
C2430 C2429 1.366 . S
C2430 C2431 1.414 . S
C2430 C2433 1.499 . S
C2431 H2405 0.950 . S
C2431 C2430 1.414 . S
C2431 C2432 1.374 . S
C2432 H2406 0.950 . S
C2432 C2428 1.385 . S
C2432 C2431 1.374 . S
C2433 C2430 1.499 . S
C2433 C2434 1.373 . S
C2433 C2435 1.389 . S
C2434 H2407 0.950 . S
C2434 C2420 1.377 . S
C2434 C2433 1.373 . S
C2435 C2419 1.377 . S
C2435 C2433 1.389 . S
C2435 C2436 1.524 . S
C2436 C2435 1.524 . S
C2436 C2437 1.397 . S
C2436 C2441 1.363 . S
C2437 H2408 0.950 . S
C2437 C2436 1.397 . S
C2437 C2438 1.334 . S
C2438 H2409 0.950 . S
C2438 C2437 1.334 . S
C2438 C2439 1.287 . S
C2439 C2438 1.287 . S
C2439 C2440 1.524 . S
C2439 H2442 0.999 . S
C2440 H2410 0.950 . S
C2440 C2439 1.524 . S
C2440 C2441 1.415 . S
C2441 H2411 0.950 . S
C2441 C2436 1.363 . S
C2441 C2440 1.415 . S
H2442 C2439 0.999 . S
H2443 C2424 0.913 . S
H2444 C2462 0.951 . S
H2445 C2464 0.951 . S
H2446 C2466 0.950 . S
H2447 C2467 0.950 . S
H2448 C2469 0.950 . S
H2449 C2472 0.950 . S
H2450 C2473 0.950 . S
H2451 C2475 0.950 . S
H2452 C2476 0.950 . S
H2453 C2477 0.951 . S
H2454 C2479 0.951 . S
H2455 C2481 0.950 . S
H2456 C2482 0.950 . S
H2457 C2484 0.950 . S
H2458 C2487 0.950 . S
H2459 C2488 0.950 . S
H2460 C2490 0.950 . S
H2461 C2491 0.950 . S
C2462 H2444 0.951 . S
C2462 C2463 1.366 . S
C2462 C2464 1.388 . S
C2463 C2462 1.366 . S
C2463 C2467 1.385 . S
C2464 H2445 0.951 . S
C2464 C2462 1.388 . S
C2464 C2465 1.366 . S
C2465 C2464 1.366 . S
C2465 C2466 1.414 . S
C2465 C2468 1.499 . S
C2466 H2446 0.950 . S
C2466 C2465 1.414 . S
C2466 C2467 1.374 . S
C2467 H2447 0.950 . S
C2467 C2463 1.385 . S
C2467 C2466 1.374 . S
C2468 C2465 1.499 . S
C2468 C2469 1.373 . S
C2468 C2470 1.389 . S
C2469 H2448 0.950 . S
C2469 C2468 1.373 . S
C2469 C2485 1.377 . S
C2470 C2468 1.389 . S
C2470 C2471 1.524 . S
C2470 C2484 1.377 . S
C2471 C2470 1.524 . S
C2471 C2472 1.397 . S
C2471 C2476 1.363 . S
C2472 H2449 0.950 . S
C2472 C2471 1.397 . S
C2472 C2473 1.334 . S
C2473 H2450 0.950 . S
C2473 C2472 1.334 . S
C2473 C2474 1.287 . S
C2474 C2473 1.287 . S
C2474 C2475 1.524 . S
C2474 H2493 0.913 . S
C2475 H2451 0.950 . S
C2475 C2474 1.524 . S
C2475 C2476 1.415 . S
C2476 H2452 0.950 . S
C2476 C2471 1.363 . S
C2476 C2475 1.415 . S
C2477 H2453 0.951 . S
C2477 C2478 1.366 . S
C2477 C2479 1.388 . S
C2478 C2477 1.366 . S
C2478 C2482 1.385 . S
C2479 H2454 0.951 . S
C2479 C2477 1.388 . S
C2479 C2480 1.366 . S
C2480 C2479 1.366 . S
C2480 C2481 1.414 . S
C2480 C2483 1.499 . S
C2481 H2455 0.950 . S
C2481 C2480 1.414 . S
C2481 C2482 1.374 . S
C2482 H2456 0.950 . S
C2482 C2478 1.385 . S
C2482 C2481 1.374 . S
C2483 C2480 1.499 . S
C2483 C2484 1.373 . S
C2483 C2485 1.389 . S
C2484 H2457 0.950 . S
C2484 C2470 1.377 . S
C2484 C2483 1.373 . S
C2485 C2469 1.377 . S
C2485 C2483 1.389 . S
C2485 C2486 1.524 . S
C2486 C2485 1.524 . S
C2486 C2487 1.397 . S
C2486 C2491 1.363 . S
C2487 H2458 0.950 . S
C2487 C2486 1.397 . S
C2487 C2488 1.334 . S
C2488 H2459 0.950 . S
C2488 C2487 1.334 . S
C2488 C2489 1.287 . S
C2489 C2488 1.287 . S
C2489 C2490 1.524 . S
C2489 H2492 0.999 . S
C2490 H2460 0.950 . S
C2490 C2489 1.524 . S
C2490 C2491 1.415 . S
C2491 H2461 0.950 . S
C2491 C2486 1.363 . S
C2491 C2490 1.415 . S
H2492 C2489 0.999 . S
H2493 C2474 0.913 . S
H2494 C2512 0.951 . S
H2495 C2514 0.951 . S
H2496 C2516 0.950 . S
H2497 C2517 0.950 . S
H2498 C2519 0.950 . S
H2499 C2522 0.950 . S
H2500 C2523 0.950 . S
H2501 C2525 0.950 . S
H2502 C2526 0.950 . S
H2503 C2527 0.951 . S
H2504 C2529 0.951 . S
H2505 C2531 0.950 . S
H2506 C2532 0.950 . S
H2507 C2534 0.950 . S
H2508 C2537 0.950 . S
H2509 C2538 0.950 . S
H2510 C2540 0.950 . S
H2511 C2541 0.950 . S
C2512 H2494 0.951 . S
C2512 C2513 1.366 . S
C2512 C2514 1.388 . S
C2513 C2512 1.366 . S
C2513 C2517 1.385 . S
C2514 H2495 0.951 . S
C2514 C2512 1.388 . S
C2514 C2515 1.366 . S
C2515 C2514 1.366 . S
C2515 C2516 1.414 . S
C2515 C2518 1.499 . S
C2516 H2496 0.950 . S
C2516 C2515 1.414 . S
C2516 C2517 1.374 . S
C2517 H2497 0.950 . S
C2517 C2513 1.385 . S
C2517 C2516 1.374 . S
C2518 C2515 1.499 . S
C2518 C2519 1.373 . S
C2518 C2520 1.389 . S
C2519 H2498 0.950 . S
C2519 C2518 1.373 . S
C2519 C2535 1.377 . S
C2520 C2518 1.389 . S
C2520 C2521 1.524 . S
C2520 C2534 1.377 . S
C2521 C2520 1.524 . S
C2521 C2522 1.397 . S
C2521 C2526 1.363 . S
C2522 H2499 0.950 . S
C2522 C2521 1.397 . S
C2522 C2523 1.334 . S
C2523 H2500 0.950 . S
C2523 C2522 1.334 . S
C2523 C2524 1.287 . S
C2524 C2523 1.287 . S
C2524 C2525 1.524 . S
C2524 H2543 0.913 . S
C2525 H2501 0.950 . S
C2525 C2524 1.524 . S
C2525 C2526 1.415 . S
C2526 H2502 0.950 . S
C2526 C2521 1.363 . S
C2526 C2525 1.415 . S
C2527 H2503 0.951 . S
C2527 C2528 1.366 . S
C2527 C2529 1.388 . S
C2528 C2527 1.366 . S
C2528 C2532 1.385 . S
C2529 H2504 0.951 . S
C2529 C2527 1.388 . S
C2529 C2530 1.366 . S
C2530 C2529 1.366 . S
C2530 C2531 1.414 . S
C2530 C2533 1.499 . S
C2531 H2505 0.950 . S
C2531 C2530 1.414 . S
C2531 C2532 1.374 . S
C2532 H2506 0.950 . S
C2532 C2528 1.385 . S
C2532 C2531 1.374 . S
C2533 C2530 1.499 . S
C2533 C2534 1.373 . S
C2533 C2535 1.389 . S
C2534 H2507 0.950 . S
C2534 C2520 1.377 . S
C2534 C2533 1.373 . S
C2535 C2519 1.377 . S
C2535 C2533 1.389 . S
C2535 C2536 1.524 . S
C2536 C2535 1.524 . S
C2536 C2537 1.397 . S
C2536 C2541 1.363 . S
C2537 H2508 0.950 . S
C2537 C2536 1.397 . S
C2537 C2538 1.334 . S
C2538 H2509 0.950 . S
C2538 C2537 1.334 . S
C2538 C2539 1.287 . S
C2539 C2538 1.287 . S
C2539 C2540 1.524 . S
C2539 H2542 0.999 . S
C2540 H2510 0.950 . S
C2540 C2539 1.524 . S
C2540 C2541 1.415 . S
C2541 H2511 0.950 . S
C2541 C2536 1.363 . S
C2541 C2540 1.415 . S
H2542 C2539 0.999 . S
H2543 C2524 0.913 . S
C963 C5 1.176 . S
C978 C772 1.176 . S
C1013 C654 1.175 . S
C1028 C64 1.175 . S
C1063 C713 1.176 . S
C1078 C123 1.175 . S
C1113 C595 1.175 . S
C1128 C182 1.175 . S
C1163 C241 1.176 . S
C1178 C890 1.176 . S
C1213 C300 1.175 . S
C1228 C536 1.175 . S
C1263 C831 1.176 . S
C1278 C359 1.176 . S
C1313 C418 1.175 . S
C1328 C477 1.175 . S
C1363 C239 1.661 . S
C1378 C3 1.662 . S
C1413 C62 1.661 . S
C1428 C298 1.661 . S
C1463 C121 1.661 . S
C1478 C357 1.661 . S
C1513 C416 1.661 . S
C1528 C180 1.661 . S
C1563 C475 1.661 . S
C1578 C593 1.661 . S
C1613 C534 1.661 . S
C1628 C652 1.661 . S
C1663 C829 1.661 . S
C1678 C711 1.661 . S
C1713 C770 1.661 . S
C1728 C888 1.661 . S
C1763 C347 1.327 . S
C1778 C52 1.327 . S
C1813 C111 1.327 . S
C1828 C406 1.327 . S
C1863 C170 1.327 . S
C1878 C465 1.327 . S
C1913 C288 1.327 . S
C1928 C229 1.327 . S
C1963 C269 1.655 . S
C1978 C623 1.641 . S
C2013 C151 1.654 . S
C2028 C505 1.641 . S
C2063 C682 1.641 . S
C2078 C387 1.654 . S
C2113 C564 1.642 . S
C2128 C33 1.655 . S
C2163 C524 1.327 . S
C2178 C760 1.327 . S
C2213 C642 1.327 . S
C2228 C937 1.327 . S
C2263 C819 1.327 . S
C2278 C583 1.327 . S
C2313 C701 1.327 . S
C2328 C878 1.327 . S
C2363 C859 1.641 . S
C2378 C92 1.641 . S
C2413 C800 1.641 . S
C2428 C328 1.641 . S
C2463 C918 1.641 . S
C2478 C210 1.641 . S
C2513 C741 1.640 . S
C2528 C446 1.641 . S
