# Generated by pormake.
# Topology uml, (4)-cn, num edge types: 1
# Building blocks:
#     Node 0, Type 0, BuildingBlock: NAWXER_clean_sbu_0, # of connection points: 4
#     Node 1, Type 0, BuildingBlock: NAWXER_clean_sbu_0, # of connection points: 4
#     Node 2, Type 0, BuildingBlock: NAWXER_clean_sbu_0, # of connection points: 4
#     Node 3, Type 0, BuildingBlock: NAWXER_clean_sbu_0, # of connection points: 4
#     Node 4, Type 0, BuildingBlock: NAWXER_clean_sbu_0, # of connection points: 4
#     Node 5, Type 0, BuildingBlock: NAWXER_clean_sbu_0, # of connection points: 4
#     Node 6, Type 0, BuildingBlock: NAWXER_clean_sbu_0, # of connection points: 4
#     Node 7, Type 0, BuildingBlock: NAWXER_clean_sbu_0, # of connection points: 4
#     Node 8, Type 0, BuildingBlock: NAWXER_clean_sbu_0, # of connection points: 4
#     Node 9, Type 0, BuildingBlock: NAWXER_clean_sbu_0, # of connection points: 4
#     Node 10, Type 0, BuildingBlock: NAWXER_clean_sbu_0, # of connection points: 4
#     Node 11, Type 0, BuildingBlock: NAWXER_clean_sbu_0, # of connection points: 4
#     Node 12, Type 0, BuildingBlock: NAWXER_clean_sbu_0, # of connection points: 4
#     Node 13, Type 0, BuildingBlock: NAWXER_clean_sbu_0, # of connection points: 4
#     Node 14, Type 0, BuildingBlock: NAWXER_clean_sbu_0, # of connection points: 4
#     Node 15, Type 0, BuildingBlock: NAWXER_clean_sbu_0, # of connection points: 4
#     Node 16, Type 0, BuildingBlock: NAWXER_clean_sbu_0, # of connection points: 4
#     Node 17, Type 0, BuildingBlock: NAWXER_clean_sbu_0, # of connection points: 4
#     Node 18, Type 0, BuildingBlock: NAWXER_clean_sbu_0, # of connection points: 4
#     Node 19, Type 0, BuildingBlock: NAWXER_clean_sbu_0, # of connection points: 4
#     Node 20, Type 0, BuildingBlock: NAWXER_clean_sbu_0, # of connection points: 4
#     Node 21, Type 0, BuildingBlock: NAWXER_clean_sbu_0, # of connection points: 4
#     Node 22, Type 0, BuildingBlock: NAWXER_clean_sbu_0, # of connection points: 4
#     Node 23, Type 0, BuildingBlock: NAWXER_clean_sbu_0, # of connection points: 4
#     Node 24, Type 0, BuildingBlock: NAWXER_clean_sbu_0, # of connection points: 4
#     Node 25, Type 0, BuildingBlock: NAWXER_clean_sbu_0, # of connection points: 4
#     Node 26, Type 0, BuildingBlock: NAWXER_clean_sbu_0, # of connection points: 4
#     Node 27, Type 0, BuildingBlock: NAWXER_clean_sbu_0, # of connection points: 4
#     Node 28, Type 0, BuildingBlock: NAWXER_clean_sbu_0, # of connection points: 4
#     Node 29, Type 0, BuildingBlock: NAWXER_clean_sbu_0, # of connection points: 4
#     Node 30, Type 0, BuildingBlock: NAWXER_clean_sbu_0, # of connection points: 4
#     Node 31, Type 0, BuildingBlock: NAWXER_clean_sbu_0, # of connection points: 4
#     Node 32, Type 0, BuildingBlock: NAWXER_clean_sbu_0, # of connection points: 4
#     Node 33, Type 0, BuildingBlock: NAWXER_clean_sbu_0, # of connection points: 4
#     Node 34, Type 0, BuildingBlock: NAWXER_clean_sbu_0, # of connection points: 4
#     Node 35, Type 0, BuildingBlock: NAWXER_clean_sbu_0, # of connection points: 4
#     Edge 36, Type (0, 0), BuildingBlock: EZIPEK_clean_linker_0, # of connection points: 2
#     Edge 37, Type (0, 0), BuildingBlock: EZIPEK_clean_linker_0, # of connection points: 2
#     Edge 38, Type (0, 0), BuildingBlock: EZIPEK_clean_linker_0, # of connection points: 2
#     Edge 39, Type (0, 0), BuildingBlock: EZIPEK_clean_linker_0, # of connection points: 2
#     Edge 40, Type (0, 0), BuildingBlock: EZIPEK_clean_linker_0, # of connection points: 2
#     Edge 41, Type (0, 0), BuildingBlock: EZIPEK_clean_linker_0, # of connection points: 2
#     Edge 42, Type (0, 0), BuildingBlock: EZIPEK_clean_linker_0, # of connection points: 2
#     Edge 43, Type (0, 0), BuildingBlock: EZIPEK_clean_linker_0, # of connection points: 2
#     Edge 44, Type (0, 0), BuildingBlock: EZIPEK_clean_linker_0, # of connection points: 2
#     Edge 45, Type (0, 0), BuildingBlock: EZIPEK_clean_linker_0, # of connection points: 2
#     Edge 46, Type (0, 0), BuildingBlock: EZIPEK_clean_linker_0, # of connection points: 2
#     Edge 47, Type (0, 0), BuildingBlock: EZIPEK_clean_linker_0, # of connection points: 2
#     Edge 48, Type (0, 0), BuildingBlock: EZIPEK_clean_linker_0, # of connection points: 2
#     Edge 49, Type (0, 0), BuildingBlock: EZIPEK_clean_linker_0, # of connection points: 2
#     Edge 50, Type (0, 0), BuildingBlock: EZIPEK_clean_linker_0, # of connection points: 2
#     Edge 51, Type (0, 0), BuildingBlock: EZIPEK_clean_linker_0, # of connection points: 2
#     Edge 52, Type (0, 0), BuildingBlock: EZIPEK_clean_linker_0, # of connection points: 2
#     Edge 53, Type (0, 0), BuildingBlock: EZIPEK_clean_linker_0, # of connection points: 2
#     Edge 54, Type (0, 0), BuildingBlock: EZIPEK_clean_linker_0, # of connection points: 2
#     Edge 55, Type (0, 0), BuildingBlock: EZIPEK_clean_linker_0, # of connection points: 2
#     Edge 56, Type (0, 0), BuildingBlock: EZIPEK_clean_linker_0, # of connection points: 2
#     Edge 57, Type (0, 0), BuildingBlock: EZIPEK_clean_linker_0, # of connection points: 2
#     Edge 58, Type (0, 0), BuildingBlock: EZIPEK_clean_linker_0, # of connection points: 2
#     Edge 59, Type (0, 0), BuildingBlock: EZIPEK_clean_linker_0, # of connection points: 2
#     Edge 60, Type (0, 0), BuildingBlock: EZIPEK_clean_linker_0, # of connection points: 2
#     Edge 61, Type (0, 0), BuildingBlock: EZIPEK_clean_linker_0, # of connection points: 2
#     Edge 62, Type (0, 0), BuildingBlock: EZIPEK_clean_linker_0, # of connection points: 2
#     Edge 63, Type (0, 0), BuildingBlock: EZIPEK_clean_linker_0, # of connection points: 2
#     Edge 64, Type (0, 0), BuildingBlock: EZIPEK_clean_linker_0, # of connection points: 2
#     Edge 65, Type (0, 0), BuildingBlock: EZIPEK_clean_linker_0, # of connection points: 2
#     Edge 66, Type (0, 0), BuildingBlock: EZIPEK_clean_linker_0, # of connection points: 2
#     Edge 67, Type (0, 0), BuildingBlock: EZIPEK_clean_linker_0, # of connection points: 2
#     Edge 68, Type (0, 0), BuildingBlock: EZIPEK_clean_linker_0, # of connection points: 2
#     Edge 69, Type (0, 0), BuildingBlock: EZIPEK_clean_linker_0, # of connection points: 2
#     Edge 70, Type (0, 0), BuildingBlock: EZIPEK_clean_linker_0, # of connection points: 2
#     Edge 71, Type (0, 0), BuildingBlock: EZIPEK_clean_linker_0, # of connection points: 2
#     Edge 72, Type (0, 0), BuildingBlock: EZIPEK_clean_linker_0, # of connection points: 2
#     Edge 73, Type (0, 0), BuildingBlock: EZIPEK_clean_linker_0, # of connection points: 2
#     Edge 74, Type (0, 0), BuildingBlock: EZIPEK_clean_linker_0, # of connection points: 2
#     Edge 75, Type (0, 0), BuildingBlock: EZIPEK_clean_linker_0, # of connection points: 2
#     Edge 76, Type (0, 0), BuildingBlock: EZIPEK_clean_linker_0, # of connection points: 2
#     Edge 77, Type (0, 0), BuildingBlock: EZIPEK_clean_linker_0, # of connection points: 2
#     Edge 78, Type (0, 0), BuildingBlock: EZIPEK_clean_linker_0, # of connection points: 2
#     Edge 79, Type (0, 0), BuildingBlock: EZIPEK_clean_linker_0, # of connection points: 2
#     Edge 80, Type (0, 0), BuildingBlock: EZIPEK_clean_linker_0, # of connection points: 2
#     Edge 81, Type (0, 0), BuildingBlock: EZIPEK_clean_linker_0, # of connection points: 2
#     Edge 82, Type (0, 0), BuildingBlock: EZIPEK_clean_linker_0, # of connection points: 2
#     Edge 83, Type (0, 0), BuildingBlock: EZIPEK_clean_linker_0, # of connection points: 2
#     Edge 84, Type (0, 0), BuildingBlock: EZIPEK_clean_linker_0, # of connection points: 2
#     Edge 85, Type (0, 0), BuildingBlock: EZIPEK_clean_linker_0, # of connection points: 2
#     Edge 86, Type (0, 0), BuildingBlock: EZIPEK_clean_linker_0, # of connection points: 2
#     Edge 87, Type (0, 0), BuildingBlock: EZIPEK_clean_linker_0, # of connection points: 2
#     Edge 88, Type (0, 0), BuildingBlock: EZIPEK_clean_linker_0, # of connection points: 2
#     Edge 89, Type (0, 0), BuildingBlock: EZIPEK_clean_linker_0, # of connection points: 2
#     Edge 90, Type (0, 0), BuildingBlock: EZIPEK_clean_linker_0, # of connection points: 2
#     Edge 91, Type (0, 0), BuildingBlock: EZIPEK_clean_linker_0, # of connection points: 2
#     Edge 92, Type (0, 0), BuildingBlock: EZIPEK_clean_linker_0, # of connection points: 2
#     Edge 93, Type (0, 0), BuildingBlock: EZIPEK_clean_linker_0, # of connection points: 2
#     Edge 94, Type (0, 0), BuildingBlock: EZIPEK_clean_linker_0, # of connection points: 2
#     Edge 95, Type (0, 0), BuildingBlock: EZIPEK_clean_linker_0, # of connection points: 2
#     Edge 96, Type (0, 0), BuildingBlock: EZIPEK_clean_linker_0, # of connection points: 2
#     Edge 97, Type (0, 0), BuildingBlock: EZIPEK_clean_linker_0, # of connection points: 2
#     Edge 98, Type (0, 0), BuildingBlock: EZIPEK_clean_linker_0, # of connection points: 2
#     Edge 99, Type (0, 0), BuildingBlock: EZIPEK_clean_linker_0, # of connection points: 2
#     Edge 100, Type (0, 0), BuildingBlock: EZIPEK_clean_linker_0, # of connection points: 2
#     Edge 101, Type (0, 0), BuildingBlock: EZIPEK_clean_linker_0, # of connection points: 2
#     Edge 102, Type (0, 0), BuildingBlock: EZIPEK_clean_linker_0, # of connection points: 2
#     Edge 103, Type (0, 0), BuildingBlock: EZIPEK_clean_linker_0, # of connection points: 2
#     Edge 104, Type (0, 0), BuildingBlock: EZIPEK_clean_linker_0, # of connection points: 2
#     Edge 105, Type (0, 0), BuildingBlock: EZIPEK_clean_linker_0, # of connection points: 2
#     Edge 106, Type (0, 0), BuildingBlock: EZIPEK_clean_linker_0, # of connection points: 2
#     Edge 107, Type (0, 0), BuildingBlock: EZIPEK_clean_linker_0, # of connection points: 2
# Relax obj value: 0.036
# Max RMSD: 0.159
# Mean RMSD: 0.157
data_MOF--net-uml--node1-NAWXER_clean_sbu_0--edge1-EZIPEK_clean_linker_0
_symmetry_space_group_name_H-M    P1
_symmetry_Int_Tables_number       1
_symmetry_cell_setting            triclinic
loop_
_symmetry_equiv_pos_as_xyz
'x, y, z'
_cell_length_a     71.434594
_cell_length_b     71.30662
_cell_length_c     21.209014
_cell_angle_alpha  89.998646
_cell_angle_beta   89.965535
_cell_angle_gamma 119.88233
loop_
_atom_site_label
_atom_site_type_symbol
_atom_site_fract_x
_atom_site_fract_y
_atom_site_fract_z
_atom_type_partial_charge
C0 C 0.35244 0.13981 0.17822 0.0
C1 C 0.38642 0.09525 0.14823 0.0
O2 O 0.33886 0.11951 0.17968 0.0
Zn3 Zn 0.33942 0.08981 0.17176 0.0
O4 O 0.37255 0.14615 0.17688 0.0
Zn5 Zn 0.37042 0.11787 0.17554 0.0
O6 O 0.3567 0.10781 0.08307 0.0
O7 O 0.32393 0.07944 0.0934 0.0
O8 O 0.39615 0.1149 0.16617 0.0
O9 O 0.36576 0.08443 0.15074 0.0
O10 O 0.3264 0.07451 0.24946 0.0
O11 O 0.35721 0.10456 0.26647 0.0
C12 C 0.33908 0.0932 0.05843 0.0
C13 C 0.3403 0.08787 0.28772 0.0
C14 C 0.91641 0.24544 0.06798 0.0
C15 C 0.9157 0.25011 0.29614 0.0
O16 O 0.90085 0.24795 0.08778 0.0
Zn17 Zn 0.88872 0.25184 0.17709 0.0
O18 O 0.92949 0.24449 0.10669 0.0
Zn19 Zn 0.91618 0.24805 0.18101 0.0
O20 O 0.88554 0.2181 0.18091 0.0
O21 O 0.85985 0.22675 0.17683 0.0
O22 O 0.92906 0.24832 0.26091 0.0
O23 O 0.90004 0.25154 0.27146 0.0
O24 O 0.89246 0.28068 0.16573 0.0
O25 O 0.9231 0.28081 0.16746 0.0
C26 C 0.86544 0.21239 0.17886 0.0
C27 C 0.91295 0.2913 0.16197 0.0
C28 C 0.75658 0.65935 0.04402 0.0
C29 C 0.74941 0.65631 0.27386 0.0
O30 O 0.75445 0.64193 0.06794 0.0
Zn31 Zn 0.75107 0.62768 0.15918 0.0
O32 O 0.7568 0.67378 0.07993 0.0
Zn33 Zn 0.75203 0.65785 0.15785 0.0
O34 O 0.7829 0.65988 0.16661 0.0
O35 O 0.77759 0.6267 0.16112 0.0
O36 O 0.74933 0.67018 0.23645 0.0
O37 O 0.74983 0.63981 0.25138 0.0
O38 O 0.72387 0.6011 0.14743 0.0
O39 O 0.72075 0.6303 0.13814 0.0
C40 C 0.79049 0.64698 0.16469 0.0
C41 C 0.71249 0.60973 0.13447 0.0
C42 C 0.13904 0.35082 0.32512 0.0
C43 C 0.09883 0.38874 0.35584 0.0
O44 O 0.11857 0.33778 0.32456 0.0
Zn45 Zn 0.08966 0.34068 0.32362 0.0
O46 O 0.14618 0.3711 0.32478 0.0
Zn47 Zn 0.11876 0.37021 0.32768 0.0
O48 O 0.10612 0.35324 0.41637 0.0
O49 O 0.07522 0.32324 0.39646 0.0
O50 O 0.11893 0.39693 0.34599 0.0
O51 O 0.08615 0.36841 0.3473 0.0
O52 O 0.07669 0.33002 0.24143 0.0
O53 O 0.10672 0.36121 0.2329 0.0
C54 C 0.08944 0.33592 0.43553 0.0
C55 C 0.0906 0.34496 0.20678 0.0
C56 C 0.66544 0.75315 0.4255 0.0
C57 C 0.65802 0.74591 0.19762 0.0
O58 O 0.64822 0.75259 0.40583 0.0
Zn59 Zn 0.63201 0.74911 0.31658 0.0
O60 O 0.67844 0.75193 0.38694 0.0
Zn61 Zn 0.66142 0.74912 0.31354 0.0
O62 O 0.66427 0.78108 0.31315 0.0
O63 O 0.63098 0.77564 0.31657 0.0
O64 O 0.67221 0.74577 0.23308 0.0
O65 O 0.64234 0.74733 0.22214 0.0
O66 O 0.60522 0.72234 0.33209 0.0
O67 O 0.63379 0.71817 0.33636 0.0
C68 C 0.65122 0.78857 0.31554 0.0
C69 C 0.61345 0.71049 0.3434 0.0
C70 C 0.21367 0.86214 0.32953 0.0
C71 C 0.29115 0.9031 0.36523 0.0
O72 O 0.2207 0.88255 0.33102 0.0
Zn73 Zn 0.25173 0.91166 0.3343 0.0
O74 O 0.22696 0.8552 0.32915 0.0
Zn75 Zn 0.2531 0.88288 0.33566 0.0
O76 O 0.2479 0.89413 0.42562 0.0
O77 O 0.24759 0.92467 0.40902 0.0
O78 O 0.27971 0.88303 0.35347 0.0
O79 O 0.28311 0.91556 0.35819 0.0
O80 O 0.2537 0.92511 0.25284 0.0
O81 O 0.25705 0.89633 0.24255 0.0
C82 C 0.24647 0.91023 0.44668 0.0
C83 C 0.25603 0.91212 0.2172 0.0
C84 C 0.65507 0.86786 0.84481 0.0
C85 C 0.61982 0.91115 0.8792 0.0
O86 O 0.63486 0.86114 0.84497 0.0
Zn87 Zn 0.63651 0.8891 0.85213 0.0
O88 O 0.6684 0.88818 0.84848 0.0
Zn89 Zn 0.66733 0.91736 0.86226 0.0
O90 O 0.68094 0.92592 0.94431 0.0
O91 O 0.64834 0.89701 0.94709 0.0
O92 O 0.64048 0.92205 0.88008 0.0
O93 O 0.61048 0.89172 0.85934 0.0
O94 O 0.65127 0.90437 0.76429 0.0
O95 O 0.68157 0.93425 0.78718 0.0
C96 C 0.66526 0.91124 0.97575 0.0
C97 C 0.66834 0.92153 0.74633 0.0
C98 C 0.08839 0.75411 0.96449 0.0
C99 C 0.08765 0.74582 0.73558 0.0
O100 O 0.07397 0.75282 0.92662 0.0
Zn101 Zn 0.08748 0.74948 0.85209 0.0
O102 O 0.10484 0.75333 0.94364 0.0
Zn103 Zn 0.11678 0.74901 0.85423 0.0
O104 O 0.14407 0.77589 0.84757 0.0
O105 O 0.11608 0.78101 0.84931 0.0
O106 O 0.10363 0.74527 0.76107 0.0
O107 O 0.07408 0.74731 0.77075 0.0
O108 O 0.08419 0.71824 0.87366 0.0
O109 O 0.11698 0.72239 0.87142 0.0
C110 C 0.13656 0.78874 0.84726 0.0
C111 C 0.09684 0.71047 0.88099 0.0
C112 C 0.25805 0.34284 0.74768 0.0
C113 C 0.25194 0.34392 0.97763 0.0
O114 O 0.25907 0.33012 0.78762 0.0
Zn115 Zn 0.25575 0.34338 0.86372 0.0
O116 O 0.25655 0.35911 0.76693 0.0
Zn117 Zn 0.25521 0.37268 0.85685 0.0
O118 O 0.28182 0.40015 0.86491 0.0
O119 O 0.2865 0.37206 0.8788 0.0
O120 O 0.25266 0.36031 0.95064 0.0
O121 O 0.25263 0.32937 0.94451 0.0
O122 O 0.22404 0.33978 0.85318 0.0
O123 O 0.22826 0.3726 0.85207 0.0
C124 C 0.294 0.39254 0.87914 0.0
C125 C 0.21585 0.3522 0.85121 0.0
C126 C 0.91789 0.66797 0.56899 0.0
C127 C 0.91845 0.66201 0.79665 0.0
O128 O 0.93265 0.68053 0.6068 0.0
Zn129 Zn 0.91822 0.66417 0.68062 0.0
O130 O 0.90072 0.65143 0.5896 0.0
Zn131 Zn 0.88807 0.63584 0.67992 0.0
O132 O 0.86135 0.63616 0.68171 0.0
O133 O 0.89015 0.6689 0.6831 0.0
O134 O 0.90077 0.64675 0.77361 0.0
O135 O 0.93315 0.67481 0.75939 0.0
O136 O 0.91969 0.63538 0.65916 0.0
O137 O 0.88642 0.60804 0.66618 0.0
C138 C 0.86952 0.65658 0.68239 0.0
C139 C 0.90623 0.61512 0.65418 0.0
C140 C 0.34715 0.26 0.7948 0.0
C141 C 0.3428 0.25321 0.56591 0.0
O142 O 0.33364 0.26094 0.75803 0.0
Zn143 Zn 0.34493 0.25724 0.67909 0.0
O144 O 0.36287 0.25832 0.77174 0.0
Zn145 Zn 0.37403 0.25621 0.67899 0.0
O146 O 0.40146 0.2826 0.66593 0.0
O147 O 0.37351 0.28778 0.65862 0.0
O148 O 0.3597 0.25398 0.58885 0.0
O149 O 0.32901 0.254 0.60229 0.0
O150 O 0.34067 0.22512 0.68536 0.0
O151 O 0.37297 0.22856 0.67897 0.0
C152 C 0.39385 0.29495 0.65367 0.0
C153 C 0.35257 0.21641 0.68193 0.0
C154 C 0.78836 0.13945 0.67587 0.0
C155 C 0.71016 0.1039 0.65039 0.0
O156 O 0.77667 0.14827 0.67403 0.0
Zn157 Zn 0.7489 0.12198 0.67267 0.0
O158 O 0.7794 0.11881 0.67726 0.0
Zn159 Zn 0.74746 0.0916 0.66988 0.0
O160 O 0.75098 0.07996 0.59133 0.0
O161 O 0.75041 0.11042 0.58065 0.0
O162 O 0.71708 0.09042 0.65263 0.0
O163 O 0.7228 0.12372 0.66329 0.0
O164 O 0.74699 0.10795 0.7641 0.0
O165 O 0.74398 0.076 0.74782 0.0
C166 C 0.75135 0.09457 0.55588 0.0
C167 C 0.74524 0.09034 0.78579 0.0
C168 C 0.01302 0.42137 0.6228 0.0
C169 C 0.00533 0.42328 0.39403 0.0
O170 O 0.02931 0.4377 0.59771 0.0
Zn171 Zn 0.03858 0.45117 0.50493 0.0
O172 O 0.99814 0.40772 0.58743 0.0
Zn173 Zn 0.00902 0.42165 0.50625 0.0
O174 O 0.03691 0.41869 0.48259 0.0
O175 O 0.06539 0.45154 0.48605 0.0
O176 O 0.99231 0.40846 0.43122 0.0
O177 O 0.02238 0.43971 0.41547 0.0
O178 O 0.03866 0.47829 0.51285 0.0
O179 O 0.00573 0.45015 0.51043 0.0
C180 C 0.05723 0.43145 0.4749 0.0
C181 C 0.01832 0.47067 0.51332 0.0
C182 C 0.5349 0.5493 0.50089 0.0
C183 C 0.57344 0.62761 0.46919 0.0
O184 O 0.55544 0.55744 0.5034 0.0
Zn185 Zn 0.58375 0.58917 0.4955 0.0
O186 O 0.52712 0.5619 0.49724 0.0
Zn187 Zn 0.55411 0.58894 0.49595 0.0
O188 O 0.56569 0.58583 0.4053 0.0
O189 O 0.59592 0.58496 0.41895 0.0
O190 O 0.55361 0.61567 0.48289 0.0
O191 O 0.58633 0.62004 0.47355 0.0
O192 O 0.5988 0.59264 0.57432 0.0
O193 O 0.56722 0.59049 0.58882 0.0
C194 C 0.5815 0.58439 0.38243 0.0
C195 C 0.58447 0.59175 0.61153 0.0
C196 C 0.41841 0.99296 0.3849 0.0
C197 C 0.41295 0.99222 0.61491 0.0
O198 O 0.41648 0.97584 0.41033 0.0
Zn199 Zn 0.41445 0.96287 0.50244 0.0
O200 O 0.41909 0.00786 0.41969 0.0
Zn201 Zn 0.41495 0.9929 0.49906 0.0
O202 O 0.44603 0.99565 0.50661 0.0
O203 O 0.44154 0.96273 0.50378 0.0
O204 O 0.4125 0.00576 0.57692 0.0
O205 O 0.41359 0.97574 0.59338 0.0
O206 O 0.38727 0.93603 0.4937 0.0
O207 O 0.38372 0.96496 0.48293 0.0
C208 C 0.45406 0.98313 0.50559 0.0
C209 C 0.37561 0.94439 0.48076 0.0
C210 C 0.80931 0.68822 0.66032 0.0
C211 C 0.75845 0.71556 0.67428 0.0
O212 O 0.78954 0.67296 0.65934 0.0
Zn213 Zn 0.75791 0.67025 0.65991 0.0
O214 O 0.81375 0.70784 0.65993 0.0
Zn215 Zn 0.78421 0.70212 0.65988 0.0
O216 O 0.77372 0.6871 0.75124 0.0
O217 O 0.74608 0.6541 0.73626 0.0
O218 O 0.77888 0.72624 0.66883 0.0
O219 O 0.7492 0.69491 0.67133 0.0
O220 O 0.74463 0.65612 0.58171 0.0
O221 O 0.77252 0.68879 0.56673 0.0
C222 C 0.75907 0.66892 0.77319 0.0
C223 C 0.75712 0.67102 0.54443 0.0
C224 C 0.32576 0.08045 0.55827 0.0
C225 C 0.3306 0.08764 0.78723 0.0
O226 O 0.30991 0.08177 0.58188 0.0
Zn227 Zn 0.29875 0.08355 0.6749 0.0
O228 O 0.33954 0.07976 0.59455 0.0
Zn229 Zn 0.32824 0.08312 0.67401 0.0
O230 O 0.30017 0.05227 0.69418 0.0
O231 O 0.27172 0.05667 0.68866 0.0
O232 O 0.34439 0.08687 0.7508 0.0
O233 O 0.31348 0.08642 0.76445 0.0
O234 O 0.29931 0.11103 0.67485 0.0
O235 O 0.33179 0.11491 0.66755 0.0
C236 C 0.27978 0.04462 0.69962 0.0
C237 C 0.31968 0.12339 0.67131 0.0
C238 C 0.96025 0.23261 0.6976 0.0
C239 C 0.88171 0.19412 0.67811 0.0
O240 O 0.95244 0.24534 0.69614 0.0
Zn241 Zn 0.92132 0.24266 0.68248 0.0
O242 O 0.94823 0.21259 0.68572 0.0
Zn243 Zn 0.92132 0.21288 0.67885 0.0
O244 O 0.92198 0.22658 0.58803 0.0
O245 O 0.92353 0.25789 0.60481 0.0
O246 O 0.894 0.18596 0.67893 0.0
O247 O 0.88998 0.21468 0.67676 0.0
O248 O 0.91795 0.25386 0.76212 0.0
O249 O 0.92029 0.2243 0.77118 0.0
C250 C 0.92278 0.2438 0.5667 0.0
C251 C 0.91875 0.23969 0.79685 0.0
C252 C 0.33223 0.25351 0.06522 0.0
C253 C 0.33469 0.24989 0.29449 0.0
O254 O 0.34579 0.26759 0.10273 0.0
Zn255 Zn 0.33347 0.25253 0.1811 0.0
O256 O 0.31592 0.23643 0.08743 0.0
Zn257 Zn 0.30367 0.22318 0.17939 0.0
O258 O 0.27683 0.22346 0.19031 0.0
O259 O 0.30556 0.25594 0.19994 0.0
O260 O 0.31747 0.23446 0.27055 0.0
O261 O 0.34913 0.26416 0.25888 0.0
O262 O 0.3363 0.22385 0.1742 0.0
O263 O 0.30335 0.19588 0.17877 0.0
C264 C 0.28506 0.24343 0.2035 0.0
C265 C 0.32365 0.20333 0.17639 0.0
C266 C 0.75412 0.08805 0.28474 0.0
C267 C 0.75227 0.0827 0.05626 0.0
O268 O 0.74056 0.08872 0.24742 0.0
Zn269 Zn 0.75295 0.08473 0.17181 0.0
O270 O 0.76944 0.0854 0.26334 0.0
Zn271 Zn 0.78043 0.08104 0.17233 0.0
O272 O 0.80933 0.10598 0.17012 0.0
O273 O 0.78368 0.11473 0.17003 0.0
O274 O 0.76826 0.08144 0.07914 0.0
O275 O 0.73916 0.08427 0.09313 0.0
O276 O 0.74616 0.052 0.18593 0.0
O277 O 0.77684 0.05224 0.18305 0.0
C278 C 0.80378 0.12037 0.16988 0.0
C279 C 0.75645 0.04159 0.18961 0.0
C280 C 0.88304 0.68083 0.17498 0.0
C281 C 0.96075 0.7247 0.2049 0.0
O282 O 0.89447 0.70133 0.17786 0.0
Zn283 Zn 0.92219 0.70321 0.18066 0.0
O284 O 0.89229 0.66936 0.17433 0.0
Zn285 Zn 0.92475 0.67493 0.18449 0.0
O286 O 0.92187 0.66011 0.26356 0.0
O287 O 0.9203 0.69016 0.27272 0.0
O288 O 0.95436 0.70444 0.20304 0.0
O289 O 0.94784 0.73141 0.19038 0.0
O290 O 0.92421 0.69092 0.0898 0.0
O291 O 0.92973 0.6636 0.10711 0.0
C292 C 0.92036 0.67392 0.29806 0.0
C293 C 0.92705 0.67567 0.06848 0.0
C294 C 0.58305 0.00478 0.90599 0.0
C295 C 0.58306 1.00009 0.13431 0.0
O296 O 0.59628 0.01888 0.94421 0.0
Zn297 Zn 0.58318 0.0022 0.01892 0.0
O298 O 0.56756 0.98678 0.92629 0.0
Zn299 Zn 0.55576 0.97099 0.01625 0.0
O300 O 0.52685 0.96706 0.01652 0.0
O301 O 0.55245 1.00143 0.01869 0.0
O302 O 0.56733 0.98295 0.11024 0.0
O303 O 0.59629 0.01509 0.0985 0.0
O304 O 0.59008 0.97632 1.00547 0.0
O305 O 0.55945 0.94588 1.00535 0.0
C306 C 0.53237 0.98698 0.01743 0.0
C307 C 0.57991 0.95568 1.00087 0.0
C308 C 0.05388 0.6242 0.98645 0.0
C309 C 0.01509 0.54568 0.01511 0.0
O310 O 0.06204 0.6122 0.99676 0.0
Zn311 Zn 0.03512 0.58551 0.01094 0.0
O312 O 0.03344 0.61641 0.99159 0.0
Zn313 Zn 0.00537 0.58512 0.00947 0.0
O314 O 0.99308 0.58689 0.08947 0.0
O315 O 0.02442 0.58858 0.10275 0.0
O316 O 0.00237 0.55346 0.01129 0.0
O317 O 0.03537 0.55854 0.01754 0.0
O318 O 0.02032 0.58191 0.91966 0.0
O319 O 0.98986 0.5826 0.93263 0.0
C320 C 0.00764 0.58807 0.12623 0.0
C321 C 0.0035 0.5814 0.8966 0.0
C322 C 0.45802 0.4725 0.00897 0.0
C323 C 0.37973 0.43499 0.98373 0.0
O324 O 0.44566 0.48057 0.0072 0.0
Zn325 Zn 0.41848 0.45382 0.00722 0.0
O326 O 0.44966 0.45191 0.01177 0.0
Zn327 Zn 0.41775 0.42386 1.00587 0.0
O328 O 0.42116 0.41149 0.92851 0.0
O329 O 0.42087 0.44211 0.91615 0.0
O330 O 0.387 0.42181 0.98711 0.0
O331 O 0.39207 0.45489 0.99615 0.0
O332 O 0.41711 0.44051 0.0997 0.0
O333 O 0.41462 0.40875 0.08439 0.0
C334 C 0.42191 0.42616 0.89254 0.0
C335 C 0.41573 0.42311 0.12195 0.0
C336 C 0.68415 0.80493 0.82185 0.0
C337 C 0.71758 0.75997 0.79045 0.0
O338 O 0.67036 0.78467 0.82088 0.0
Zn339 Zn 0.6705 0.75487 0.81019 0.0
O340 O 0.70421 0.81109 0.81979 0.0
Zn341 Zn 0.70169 0.78271 0.8156 0.0
O342 O 0.68869 0.77331 0.72231 0.0
O343 O 0.6557 0.74526 0.7302 0.0
O344 O 0.72732 0.77972 0.80736 0.0
O345 O 0.69689 0.74916 0.79187 0.0
O346 O 0.65674 0.73926 0.8873 0.0
O347 O 0.68799 0.76866 0.90551 0.0
C348 C 0.67124 0.75896 0.69621 0.0
C349 C 0.67077 0.75216 0.92619 0.0
C350 C 0.24986 0.92198 0.94629 0.0
C351 C 0.24266 0.91349 0.71811 0.0
O352 O 0.23262 0.92159 0.9272 0.0
Zn353 Zn 0.21806 0.92034 0.83643 0.0
O354 O 0.26284 0.92161 0.90622 0.0
Zn355 Zn 0.24648 0.91873 0.83049 0.0
O356 O 0.25069 0.95038 0.81022 0.0
O357 O 0.2189 0.94775 0.82467 0.0
O358 O 0.25751 0.91416 0.75273 0.0
O359 O 0.22714 0.91513 0.74285 0.0
O360 O 0.19004 0.89505 0.84457 0.0
O361 O 0.21669 0.88771 0.84083 0.0
C362 C 0.23859 0.95892 0.80878 0.0
C363 C 0.19642 0.88131 0.84485 0.0
C364 C 0.08723 0.32786 0.70653 0.0
C365 C 0.08103 0.32839 0.93651 0.0
O366 O 0.08683 0.31154 0.73308 0.0
Zn367 Zn 0.08437 0.29898 0.82696 0.0
O368 O 0.08614 0.3421 0.74007 0.0
Zn369 Zn 0.08309 0.32783 0.82021 0.0
O370 O 0.11516 0.33211 0.83043 0.0
O371 O 0.11149 0.29951 0.8315 0.0
O372 O 0.07938 0.34074 0.89661 0.0
O373 O 0.08298 0.31239 0.91713 0.0
O374 O 0.0581 0.27116 0.81924 0.0
O375 O 0.05271 0.29871 0.80348 0.0
C376 C 0.12364 0.31995 0.83233 0.0
C377 C 0.04564 0.27829 0.80365 0.0
C378 C 0.4209 1.00091 0.11381 0.0
C379 C 0.42058 0.00567 0.88557 0.0
O380 O 0.4365 0.0188 0.09333 0.0
Zn381 Zn 0.44835 0.03447 1.00336 0.0
O382 O 0.40751 0.98687 0.07574 0.0
Zn383 Zn 0.42061 0.00344 1.0009 0.0
O384 O 0.45102 0.00362 1.00066 0.0
O385 O 0.47704 0.03782 1.00273 0.0
O386 O 0.40726 0.99074 0.92141 0.0
O387 O 0.43652 0.02266 0.90954 0.0
O388 O 0.4451 0.05984 0.01473 0.0
O389 O 0.41424 0.02963 0.015 0.0
C390 C 0.47118 0.01781 1.00181 0.0
C391 C 0.42466 0.05027 0.01973 0.0
C392 C 0.98457 0.45325 1.00151 0.0
C393 C 0.95147 0.37518 0.03758 0.0
O394 O 0.9984 0.4469 1.00641 0.0
Zn395 Zn 0.99822 0.41676 0.01039 0.0
O396 O 0.96455 0.43926 0.99899 0.0
Zn397 Zn 0.96704 0.41338 0.00723 0.0
O398 O 0.98204 0.41866 0.09956 0.0
O399 O 0.01419 0.42137 0.08735 0.0
O400 O 0.9415 0.38501 0.02098 0.0
O401 O 0.97212 0.38501 0.03311 0.0
O402 O 0.01091 0.41526 0.93037 0.0
O403 O 0.97859 0.41107 0.91626 0.0
C404 C 0.99966 0.42106 0.123 0.0
C405 C 0.99594 0.41278 0.89318 0.0
C406 C 0.58687 0.5794 0.11111 0.0
C407 C 0.59241 0.58289 0.88143 0.0
O408 O 0.58795 0.56353 0.08699 0.0
Zn409 Zn 0.58986 0.55194 0.99512 0.0
O410 O 0.58733 0.59402 0.07553 0.0
Zn411 Zn 0.59055 0.58184 0.99755 0.0
O412 O 0.55863 0.55382 0.99197 0.0
O413 O 0.5627 0.52519 0.99546 0.0
O414 O 0.59354 0.59715 0.91946 0.0
O415 O 0.59105 0.56544 0.90311 0.0
O416 O 0.61618 0.55074 1.00466 0.0
O417 O 0.6213 0.5838 0.01536 0.0
C418 C 0.55031 0.53323 0.99447 0.0
C419 C 0.62853 0.57056 0.01789 0.0
C420 C 0.9976 0.57796 0.6256 0.0
C421 C 0.99087 0.57951 0.39665 0.0
O422 O 0.0109 0.59255 0.58835 0.0
Zn423 Zn 0.99443 0.57929 0.5131 0.0
O424 O 0.98053 0.56158 0.60404 0.0
Zn425 Zn 0.96466 0.54999 0.51424 0.0
O426 O 0.9643 0.5227 0.507 0.0
O427 O 0.99735 0.55061 0.50994 0.0
O428 O 0.97431 0.56343 0.4216 0.0
O429 O 0.00582 0.59299 0.43215 0.0
O430 O 0.96658 0.58263 0.53451 0.0
O431 O 0.93792 0.54989 0.53142 0.0
C432 C 0.9846 0.53011 0.50702 0.0
C433 C 0.9462 0.57004 0.54161 0.0
C434 C 0.4272 0.42115 0.62121 0.0
C435 C 0.42392 0.4146 0.39186 0.0
O436 O 0.41284 0.42088 0.58507 0.0
Zn437 Zn 0.42486 0.41694 0.50783 0.0
O438 O 0.44292 0.41967 0.59782 0.0
Zn439 Zn 0.45443 0.41702 0.5066 0.0
O440 O 0.48144 0.44404 0.50568 0.0
O441 O 0.4532 0.44863 0.50036 0.0
O442 O 0.44116 0.4157 0.41411 0.0
O443 O 0.40971 0.4138 0.42943 0.0
O444 O 0.42219 0.38593 0.52774 0.0
O445 O 0.45492 0.39028 0.51816 0.0
C446 C 0.47373 0.45669 0.50267 0.0
C447 C 0.43506 0.37831 0.53147 0.0
C448 C 0.62552 0.0623 0.53947 0.0
C449 C 0.54723 0.02028 0.51436 0.0
O450 O 0.61301 0.06968 0.52678 0.0
Zn451 Zn 0.58672 0.04199 0.51784 0.0
O452 O 0.61841 0.04188 0.53736 0.0
Zn453 Zn 0.58793 0.01287 0.52095 0.0
O454 O 0.59124 1.00061 0.44303 0.0
O455 O 0.58837 0.02965 0.42665 0.0
O456 O 0.55606 0.00845 0.51337 0.0
O457 O 0.55906 0.04076 0.51632 0.0
O458 O 0.58524 0.02905 0.60986 0.0
O459 O 0.58469 0.99798 0.59998 0.0
C460 C 0.59 0.01372 0.40505 0.0
C461 C 0.58443 0.01237 0.635 0.0
C462 C 0.24917 0.32709 0.47708 0.0
C463 C 0.25029 0.33678 0.24859 0.0
O464 O 0.2629 0.34231 0.44278 0.0
Zn465 Zn 0.25013 0.33178 0.36026 0.0
O466 O 0.23331 0.31073 0.45056 0.0
Zn467 Zn 0.22142 0.30184 0.35576 0.0
O468 O 0.22205 0.27553 0.3368 0.0
O469 O 0.25442 0.30465 0.33486 0.0
O470 O 0.23385 0.3192 0.26743 0.0
O471 O 0.26431 0.34962 0.28786 0.0
O472 O 0.22083 0.3339 0.35968 0.0
O473 O 0.19368 0.30032 0.35887 0.0
C474 C 0.24217 0.28426 0.3261 0.0
C475 C 0.20044 0.32053 0.35896 0.0
C476 C 0.68075 0.92365 0.4751 0.0
C477 C 0.66943 0.91357 0.24681 0.0
O478 O 0.66467 0.92076 0.44238 0.0
Zn479 Zn 0.67441 0.91815 0.35874 0.0
O480 O 0.69706 0.92452 0.44698 0.0
Zn481 Zn 0.70521 0.92076 0.35219 0.0
O482 O 0.73066 0.94875 0.33254 0.0
O483 O 0.70022 0.94943 0.33052 0.0
O484 O 0.68746 0.91556 0.26476 0.0
O485 O 0.65621 0.91384 0.28674 0.0
O486 O 0.67331 0.88754 0.35783 0.0
O487 O 0.70698 0.89428 0.35374 0.0
C488 C 0.72058 0.95883 0.32 0.0
C489 C 0.68683 0.88073 0.35494 0.0
C490 C 0.04345 0.76719 0.32641 0.0
C491 C 0.12137 0.80373 0.35246 0.0
O492 O 0.05588 0.78705 0.33913 0.0
Zn493 Zn 0.08181 0.78533 0.35179 0.0
O494 O 0.05045 0.7538 0.33028 0.0
Zn495 Zn 0.08095 0.75536 0.34828 0.0
O496 O 0.07892 0.74091 0.42792 0.0
O497 O 0.07867 0.77127 0.44309 0.0
O498 O 0.11298 0.78317 0.34829 0.0
O499 O 0.10915 0.81187 0.3579 0.0
O500 O 0.08462 0.77398 0.2592 0.0
O501 O 0.08267 0.74213 0.27091 0.0
C502 C 0.07856 0.75454 0.46559 0.0
C503 C 0.0844 0.75734 0.23543 0.0
C504 C 0.33265 0.10087 0.45658 0.0
C505 C 0.32915 0.08193 0.48884 0.0
C506 C 0.33448 0.06734 0.38962 0.0
C507 C 0.33609 0.08544 0.35675 0.0
N508 N 0.33213 0.11716 0.35699 0.0
N509 N 0.32336 0.04563 0.48512 0.0
C510 C 0.33389 0.10157 0.3897 0.0
C511 C 0.32915 0.06472 0.45509 0.0
N512 N 0.33577 0.11862 0.4899 0.0
N513 N 0.33883 0.05309 0.35886 0.0
H514 H 0.31928 0.04314 0.53283 0.0
H515 H 0.32082 0.03171 0.46179 0.0
H516 H 0.34281 0.05452 0.3111 0.0
H517 H 0.34022 0.0409 0.38162 0.0
H518 H 0.34076 0.13364 0.46926 0.0
H519 H 0.33546 0.11905 0.53898 0.0
H520 H 0.32816 0.12791 0.37809 0.0
H521 H 0.33251 0.11805 0.30792 0.0
C522 C 0.93804 0.26315 0.46372 0.0
C523 C 0.92085 0.24615 0.49779 0.0
C524 C 0.90103 0.23113 0.39915 0.0
C525 C 0.91736 0.24906 0.36567 0.0
N526 N 0.94976 0.28395 0.36667 0.0
N527 N 0.88408 0.21657 0.49995 0.0
C528 C 0.93543 0.26561 0.39814 0.0
C529 C 0.90179 0.23087 0.46606 0.0
N530 N 0.95714 0.27642 0.49345 0.0
N531 N 0.88528 0.21384 0.36694 0.0
H532 H 0.88379 0.21613 0.54907 0.0
H533 H 0.86903 0.20657 0.47973 0.0
H534 H 0.88437 0.21318 0.31786 0.0
H535 H 0.87433 0.19932 0.38848 0.0
H536 H 0.97106 0.28758 0.46982 0.0
H537 H 0.95962 0.27508 0.54131 0.0
H538 H 0.96198 0.29757 0.38895 0.0
H539 H 0.94832 0.28629 0.31874 0.0
C540 C 0.76937 0.66238 0.44339 0.0
C541 C 0.75487 0.66724 0.47529 0.0
C542 C 0.73526 0.66279 0.37615 0.0
C543 C 0.75115 0.66018 0.34323 0.0
N544 N 0.78604 0.66239 0.34421 0.0
N545 N 0.72556 0.67477 0.47176 0.0
C546 C 0.76895 0.66128 0.3765 0.0
C547 C 0.73823 0.66822 0.44156 0.0
N548 N 0.78309 0.65806 0.4771 0.0
N549 N 0.71692 0.65921 0.34562 0.0
H550 H 0.7271 0.67851 0.51973 0.0
H551 H 0.7147 0.67808 0.4485 0.0
H552 H 0.71405 0.65489 0.29815 0.0
H553 H 0.70375 0.65866 0.36845 0.0
H554 H 0.7924 0.65216 0.45668 0.0
H555 H 0.78362 0.65836 0.52626 0.0
H556 H 0.80037 0.66542 0.36589 0.0
H557 H 0.78691 0.66262 0.29517 0.0
C558 C 0.06587 0.33145 0.04137 0.0
C559 C 0.08363 0.334 1.00484 0.0
C560 C 0.10628 0.34437 0.09992 0.0
C561 C 0.0888 0.34283 0.13643 0.0
N562 N 0.05361 0.33973 0.13878 0.0
N563 N 0.12194 0.34772 0.99632 0.0
C564 C 0.06904 0.33773 0.10619 0.0
C565 C 0.10418 0.34189 0.03328 0.0
N566 N 0.04583 0.32241 0.01464 0.0
N567 N 0.12459 0.34714 0.12876 0.0
H568 H 0.12117 0.34633 0.94737 0.0
H569 H 0.1377 0.35588 0.0134 0.0
H570 H 0.12742 0.34965 0.17688 0.0
H571 H 0.13641 0.34526 0.10554 0.0
H572 H 0.03178 0.31785 0.04034 0.0
H573 H 0.04303 0.31795 0.96724 0.0
H574 H 0.03976 0.3383 0.11795 0.0
H575 H 0.05568 0.34502 0.18545 0.0
C576 C 0.66745 0.76676 0.09658 0.0
C577 C 0.66094 0.74694 0.12809 0.0
C578 C 0.66222 0.73044 0.02749 0.0
C579 C 0.66649 0.74969 0.99537 0.0
N580 N 0.66747 0.78405 0.99874 0.0
N581 N 0.64932 0.70894 0.12327 0.0
C582 C 0.66749 0.76725 0.02976 0.0
C583 C 0.65748 0.72845 0.09343 0.0
N584 N 0.67454 0.78538 0.13042 0.0
N585 N 0.66361 0.7145 0.99577 0.0
H586 H 0.64598 0.70705 0.17151 0.0
H587 H 0.64431 0.69442 0.09955 0.0
H588 H 0.66734 0.71553 0.9479 0.0
H589 H 0.66288 0.70111 0.01789 0.0
H590 H 0.68155 0.80064 0.10959 0.0
H591 H 0.67555 0.7858 0.1795 0.0
H592 H 0.66613 0.79623 0.0218 0.0
H593 H 0.6663 0.78452 0.94986 0.0
C594 C 0.267 0.93556 0.11887 0.0
C595 C 0.25626 0.91455 0.14665 0.0
C596 C 0.24567 0.89891 0.04021 0.0
C597 C 0.25308 0.91978 0.01462 0.0
N598 N 0.26921 0.95817 0.03022 0.0
N599 N 0.23165 0.87601 0.13152 0.0
C600 C 0.26323 0.93818 0.05421 0.0
C601 C 0.24474 0.89611 0.10675 0.0
N602 N 0.28173 0.95289 0.15313 0.0
N603 N 0.2396 0.88161 1.00099 0.0
H604 H 0.22952 0.87263 0.17941 0.0
H605 H 0.221 0.86283 0.10418 0.0
H606 H 0.23957 0.88279 0.95198 0.0
H607 H 0.23642 0.86647 0.01698 0.0
H608 H 0.29138 0.96819 0.13375 0.0
H609 H 0.28619 0.95144 0.19888 0.0
H610 H 0.27453 0.9719 0.05827 0.0
H611 H 0.26734 0.96071 0.98272 0.0
C612 C 0.66815 0.93689 0.63917 0.0
C613 C 0.67399 0.9245 0.67818 0.0
C614 C 0.68547 0.91231 0.58511 0.0
C615 C 0.68026 0.92527 0.5456 0.0
N616 N 0.67221 0.95429 0.53778 0.0
N617 N 0.69273 0.90451 0.69072 0.0
C618 C 0.67318 0.93884 0.5735 0.0
C619 C 0.68412 0.91356 0.65182 0.0
N620 N 0.65738 0.94642 0.66463 0.0
N621 N 0.69054 0.89782 0.55945 0.0
H622 H 0.69183 0.90482 0.73976 0.0
H623 H 0.70251 0.89848 0.67482 0.0
H624 H 0.69244 0.89646 0.51148 0.0
H625 H 0.69132 0.88586 0.58558 0.0
H626 H 0.65042 0.95356 0.63764 0.0
H627 H 0.65415 0.94593 0.71279 0.0
H628 H 0.66911 0.96597 0.55647 0.0
H629 H 0.67681 0.95693 0.49046 0.0
C630 C 0.06428 0.73374 0.56774 0.0
C631 C 0.08029 0.75225 0.53509 0.0
C632 C 0.10281 0.76373 0.63053 0.0
C633 C 0.0859 0.74659 0.66538 0.0
N634 N 0.05022 0.71529 0.66779 0.0
N635 N 0.11287 0.78727 0.5401 0.0
C636 C 0.06651 0.73161 0.63405 0.0
C637 C 0.09891 0.76793 0.56786 0.0
N638 N 0.0469 0.71823 0.53532 0.0
N639 N 0.12292 0.77592 0.65611 0.0
H640 H 0.11148 0.79128 0.49396 0.0
H641 H 0.1249 0.80033 0.56489 0.0
H642 H 0.12702 0.77429 0.7019 0.0
H643 H 0.13639 0.78652 0.62967 0.0
H644 H 0.03597 0.70316 0.55387 0.0
H645 H 0.04382 0.72005 0.48833 0.0
H646 H 0.03469 0.70548 0.65045 0.0
H647 H 0.05203 0.71192 0.71453 0.0
C648 C 0.23306 0.32666 0.58413 0.0
C649 C 0.25085 0.32901 0.54749 0.0
C650 C 0.27369 0.34075 0.64273 0.0
C651 C 0.25566 0.3374 0.67931 0.0
N652 N 0.21719 0.3226 0.6878 0.0
N653 N 0.2866 0.33345 0.545 0.0
C654 C 0.23506 0.32898 0.65083 0.0
C655 C 0.27077 0.3347 0.57774 0.0
N656 N 0.21452 0.32333 0.55539 0.0
N657 N 0.29372 0.3503 0.66963 0.0
H658 H 0.28473 0.3283 0.49822 0.0
H659 H 0.30065 0.33536 0.56577 0.0
H660 H 0.29634 0.35455 0.71722 0.0
H661 H 0.3079 0.35546 0.64399 0.0
H662 H 0.20238 0.32461 0.57879 0.0
H663 H 0.21175 0.32093 0.50722 0.0
H664 H 0.20145 0.31403 0.67071 0.0
H665 H 0.21792 0.32403 0.73676 0.0
C666 C 0.91481 0.64743 0.90755 0.0
C667 C 0.92141 0.66533 0.86629 0.0
C668 C 0.93605 0.68969 0.95718 0.0
C669 C 0.92618 0.6718 0.99901 0.0
N670 N 0.90129 0.63337 0.0114 0.0
N671 N 0.93331 0.70351 0.85595 0.0
C672 C 0.91425 0.65053 0.97364 0.0
C673 C 0.9307 0.68652 0.89213 0.0
N674 N 0.90972 0.62759 0.88429 0.0
N675 N 0.95102 0.70966 0.97889 0.0
H676 H 0.92799 0.70181 0.80947 0.0
H677 H 0.93829 0.71881 0.87465 0.0
H678 H 0.95638 0.71246 0.02549 0.0
H679 H 0.95992 0.72276 0.94895 0.0
H680 H 0.90668 0.61456 0.91331 0.0
H681 H 0.91102 0.62481 0.83665 0.0
H682 H 0.89085 0.618 0.99351 0.0
H683 H 0.89895 0.63485 0.0592 0.0
C684 C 0.33924 0.23971 0.96424 0.0
C685 C 0.33636 0.25561 0.99612 0.0
C686 C 0.34306 0.27582 0.89692 0.0
C687 C 0.34362 0.25873 0.86417 0.0
N688 N 0.33768 0.22227 0.86509 0.0
N689 N 0.33239 0.28724 0.99167 0.0
C690 C 0.34047 0.24008 0.8974 0.0
C691 C 0.33745 0.2733 0.96217 0.0
N692 N 0.34172 0.22473 0.99789 0.0
N693 N 0.34861 0.29475 0.86625 0.0
H694 H 0.32811 0.28581 0.03919 0.0
H695 H 0.33064 0.29906 0.96797 0.0
H696 H 0.35299 0.29723 0.81876 0.0
H697 H 0.3507 0.3086 0.88903 0.0
H698 H 0.34614 0.21423 0.97742 0.0
H699 H 0.34156 0.22423 0.04699 0.0
H700 H 0.33301 0.20744 0.88662 0.0
H701 H 0.33786 0.22153 0.81604 0.0
C702 C 0.72987 0.07037 0.88829 0.0
C703 C 0.74688 0.08783 0.85491 0.0
C704 C 0.7661 0.10276 0.95441 0.0
C705 C 0.75024 0.08427 0.987 0.0
N706 N 0.71846 0.04893 0.98433 0.0
N707 N 0.78345 0.11787 0.85467 0.0
C708 C 0.73248 0.06761 0.95375 0.0
C709 C 0.76564 0.10326 0.88756 0.0
N710 N 0.71093 0.05694 0.85811 0.0
N711 N 0.7811 0.1203 0.98741 0.0
H712 H 0.78415 0.1183 0.80559 0.0
H713 H 0.79828 0.12804 0.87591 0.0
H714 H 0.7816 0.12082 0.03655 0.0
H715 H 0.7916 0.13508 0.96631 0.0
H716 H 0.69713 0.04535 0.88128 0.0
H717 H 0.70839 0.05859 0.81048 0.0
H718 H 0.70654 0.03527 0.96138 0.0
H719 H 0.71985 0.04645 0.03218 0.0
C720 C 0.00387 0.39907 0.79193 0.0
C721 C 0.99937 0.41402 0.82336 0.0
C722 C 0.00808 0.43563 0.72643 0.0
C723 C 0.01033 0.41961 0.69288 0.0
N724 N 0.00923 0.38528 0.69254 0.0
N725 N 0.9918 0.44351 0.81434 0.0
C726 C 0.00782 0.40104 0.72536 0.0
C727 C 0.9998 0.43132 0.78882 0.0
N728 N 0.00426 0.38292 0.82564 0.0
N729 N 0.01421 0.45532 0.69978 0.0
H730 H 0.98552 0.44142 0.8596 0.0
H731 H 0.98932 0.45444 0.78806 0.0
H732 H 0.02022 0.45963 0.65428 0.0
H733 H 0.01538 0.46836 0.72528 0.0
H734 H 0.00989 0.37306 0.80769 0.0
H735 H 0.99974 0.37991 0.87296 0.0
H736 H 0.00506 0.3702 0.71122 0.0
H737 H 0.01377 0.38696 0.64521 0.0
C738 C 0.60432 0.60644 0.71439 0.0
C739 C 0.5866 0.58985 0.6808 0.0
C740 C 0.57181 0.57002 0.77978 0.0
C741 C 0.59059 0.58544 0.81236 0.0
N742 N 0.62634 0.61663 0.80907 0.0
N743 N 0.55596 0.55357 0.67969 0.0
C744 C 0.6073 0.60324 0.77924 0.0
C745 C 0.57101 0.57101 0.71299 0.0
N746 N 0.61788 0.62554 0.68495 0.0
N747 N 0.55429 0.55492 0.81273 0.0
H748 H 0.55513 0.55326 0.63064 0.0
H749 H 0.54571 0.53861 0.70025 0.0
H750 H 0.55388 0.55391 0.86177 0.0
H751 H 0.53937 0.5448 0.79189 0.0
H752 H 0.62972 0.63908 0.70851 0.0
H753 H 0.61608 0.6285 0.6378 0.0
H754 H 0.63995 0.62849 0.78581 0.0
H755 H 0.62916 0.61466 0.8562 0.0
C756 C 0.43456 1.00045 0.78252 0.0
C757 C 0.41863 0.00273 0.81611 0.0
C758 C 0.39806 0.99683 0.7181 0.0
C759 C 0.41495 0.99643 0.6839 0.0
N760 N 0.45139 0.00257 0.68177 0.0
N761 N 0.38685 0.00637 0.8154 0.0
C762 C 0.43381 0.99958 0.71563 0.0
C763 C 0.4008 0.00183 0.78376 0.0
N764 N 0.44988 0.99814 0.81461 0.0
N765 N 0.37909 0.99161 0.68844 0.0
H766 H 0.38837 0.01005 0.8634 0.0
H767 H 0.37488 0.00823 0.79325 0.0
H768 H 0.37652 0.98784 0.64055 0.0
H769 H 0.36533 0.98931 0.7121 0.0
H770 H 0.46047 0.99408 0.79289 0.0
H771 H 0.4507 0.99818 0.8637 0.0
H772 H 0.46633 0.00715 0.70211 0.0
H773 H 0.45176 0.00265 0.63265 0.0
C774 C 0.60552 0.00982 0.30204 0.0
C775 C 0.58823 0.00952 0.33602 0.0
C776 C 0.56852 0.00473 0.23715 0.0
C777 C 0.58486 0.0031 0.20379 0.0
N778 N 0.61738 1.00077 0.20513 0.0
N779 N 0.55125 0.0018 0.33764 0.0
C780 C 0.60297 0.00472 0.23643 0.0
C781 C 0.56915 0.00559 0.30404 0.0
N782 N 0.62463 0.01578 0.33185 0.0
N783 N 0.55288 0.00645 0.20486 0.0
H784 H 0.55078 1.0016 0.38675 0.0
H785 H 0.53623 0.99667 0.31704 0.0
H786 H 0.55217 0.00648 0.15576 0.0
H787 H 0.54191 0.01001 0.22647 0.0
H788 H 0.63859 0.01858 0.3083 0.0
H789 H 0.62708 0.01966 0.37968 0.0
H790 H 0.62964 0.99946 0.22754 0.0
H791 H 0.616 0.997 0.15721 0.0
C792 C 0.99453 0.56464 0.29234 0.0
C793 C 0.99359 0.58131 0.3266 0.0
C794 C 1.0012 0.60245 0.22829 0.0
C795 C 0.0042 0.58666 0.19595 0.0
N796 N 0.00834 0.55497 0.20185 0.0
N797 N 0.99683 0.61661 0.32824 0.0
C798 C 1.00229 0.5685 0.22934 0.0
C799 C 0.99722 0.60042 0.2948 0.0
N800 N 0.98759 0.54477 0.31893 0.0
N801 N 1.0022 0.61942 0.19539 0.0
H802 H 0.99209 0.61494 0.37538 0.0
H803 H 1.00192 0.63199 0.31026 0.0
H804 H 0.0068 0.62241 0.14813 0.0
H805 H 0.99764 0.63008 0.21385 0.0
H806 H 0.98521 0.53132 0.29311 0.0
H807 H 0.98222 0.54081 0.36509 0.0
H808 H 0.01007 0.54337 0.22696 0.0
H809 H 0.01362 0.55639 0.15556 0.0
C810 C 0.40084 0.40303 0.22447 0.0
C811 C 0.41755 0.42075 0.19112 0.0
C812 C 0.43723 0.43528 0.2903 0.0
C813 C 0.42165 0.41649 0.32268 0.0
N814 N 0.39029 0.38085 0.31899 0.0
N815 N 0.45388 0.45124 0.19038 0.0
C816 C 0.40386 0.3999 0.28933 0.0
C817 C 0.43637 0.4362 0.22351 0.0
N818 N 0.38177 0.38963 0.19482 0.0
N819 N 0.45236 0.45272 0.32343 0.0
H820 H 0.45424 0.45219 0.14133 0.0
H821 H 0.46881 0.46137 0.21107 0.0
H822 H 0.45326 0.45306 0.37248 0.0
H823 H 0.46262 0.46765 0.30275 0.0
H824 H 0.36815 0.37783 0.21822 0.0
H825 H 0.37891 0.39155 0.14767 0.0
H826 H 0.37841 0.36729 0.29559 0.0
H827 H 0.39213 0.37793 0.36615 0.0
C828 C 0.34866 0.19015 0.21732 0.0
C829 C 0.33246 0.1882 0.17419 0.0
C830 C 0.32878 0.15411 0.13419 0.0
C831 C 0.34469 0.15583 0.17821 0.0
N832 N 0.36509 0.17226 0.27258 0.0
N833 N 0.31224 0.17203 0.0795 0.0
C834 C 0.35352 0.1731 0.2223 0.0
C835 C 0.32382 0.17109 0.12965 0.0
N836 N 0.36005 0.20853 0.25236 0.0
N837 N 0.3177 0.136 0.09785 0.0
H838 H 0.30913 0.1847 0.07255 0.0
H839 H 0.30785 0.16171 0.0408 0.0
H840 H 0.32088 0.12332 0.09625 0.0
H841 H 0.30389 0.13257 0.07241 0.0
H842 H 0.37385 0.21194 0.27782 0.0
H843 H 0.35726 0.22149 0.25206 0.0
H844 H 0.36961 0.18278 0.31083 0.0
H845 H 0.36806 0.15953 0.28017 0.0
C846 C 0.83186 0.15454 0.11703 0.0
C847 C 0.82031 0.14374 0.17232 0.0
C848 C 0.83667 0.17827 0.22987 0.0
C849 C 0.84902 0.18898 0.17562 0.0
N850 N 0.85905 0.18793 0.06776 0.0
N851 N 0.81445 0.14419 0.28398 0.0
C852 C 0.84682 0.17724 0.11923 0.0
C853 C 0.82341 0.15532 0.22944 0.0
N854 N 0.8281 0.1431 0.06222 0.0
N855 N 0.83741 0.19008 0.28156 0.0
H856 H 0.80496 0.12738 0.28554 0.0
H857 H 0.81784 0.15128 0.32849 0.0
H858 H 0.84731 0.20683 0.28415 0.0
H859 H 0.8271 0.18362 0.32007 0.0
H860 H 0.83405 0.15 0.01833 0.0
H861 H 0.81813 0.12636 0.05993 0.0
H862 H 0.86006 0.18039 0.027 0.0
H863 H 0.86887 0.2047 0.06619 0.0
C864 C 0.85052 0.67812 0.12241 0.0
C865 C 0.85916 0.67049 0.16943 0.0
C866 C 0.8228 0.64758 0.21343 0.0
C867 C 0.81424 0.65571 0.16739 0.0
N868 N 0.82083 0.68225 0.08587 0.0
N869 N 0.85284 0.64387 0.25006 0.0
C870 C 0.82831 0.67198 0.12413 0.0
C871 C 0.84513 0.65399 0.21204 0.0
N872 N 0.86328 0.68996 0.07295 0.0
N873 N 0.80994 0.63515 0.26194 0.0
H874 H 0.86896 0.64799 0.25235 0.0
H875 H 0.84295 0.62991 0.27564 0.0
H876 H 0.79374 0.63079 0.26649 0.0
H877 H 0.81572 0.63104 0.30154 0.0
H878 H 0.85742 0.69379 0.03295 0.0
H879 H 0.87935 0.69384 0.06808 0.0
H880 H 0.83091 0.69619 0.06042 0.0
H881 H 0.80477 0.67828 0.08288 0.0
C882 C 0.15531 0.32811 0.2897 0.0
C883 C 0.15423 0.34243 0.33427 0.0
C884 C 0.18375 0.34277 0.3952 0.0
C885 C 0.18492 0.32856 0.35041 0.0
N886 N 0.17571 0.31217 0.24722 0.0
N887 N 0.16342 0.35885 0.43738 0.0
C888 C 0.17161 0.32228 0.29578 0.0
C889 C 0.16749 0.34867 0.38898 0.0
N890 N 0.14036 0.31953 0.24247 0.0
N891 N 0.19859 0.35124 0.44274 0.0
H892 H 0.15117 0.36276 0.43601 0.0
H893 H 0.17057 0.36145 0.48165 0.0
H894 H 0.21051 0.34716 0.44996 0.0
H895 H 0.20036 0.36373 0.47201 0.0
H896 H 0.13859 0.307 0.21333 0.0
H897 H 0.12833 0.32347 0.23559 0.0
H898 H 0.16851 0.30958 0.20302 0.0
H899 H 0.188 0.30833 0.24836 0.0
C900 C 0.66053 0.82006 0.38707 0.0
C901 C 0.65986 0.8121 0.32526 0.0
C902 C 0.67889 0.84927 0.28449 0.0
C903 C 0.67849 0.85719 0.34575 0.0
N904 N 0.66471 0.8498 0.45213 0.0
N905 N 0.66347 0.81845 0.21349 0.0
C906 C 0.66807 0.84248 0.39614 0.0
C907 C 0.66775 0.82653 0.27343 0.0
N908 N 0.65426 0.80623 0.43737 0.0
N909 N 0.68967 0.86345 0.23661 0.0
H910 H 0.65431 0.80192 0.20432 0.0
H911 H 0.66693 0.82801 0.17331 0.0
H912 H 0.69704 0.88018 0.24168 0.0
H913 H 0.6925 0.8587 0.19288 0.0
H914 H 0.65687 0.81141 0.48409 0.0
H915 H 0.64784 0.78959 0.43262 0.0
H916 H 0.65519 0.83966 0.48833 0.0
H917 H 0.66987 0.86603 0.46035 0.0
C918 C 0.17587 0.8471 0.28765 0.0
C919 C 0.19009 0.84684 0.33398 0.0
C920 C 0.15962 0.81642 0.38749 0.0
C921 C 0.14509 0.81798 0.34486 0.0
N922 N 0.1391 0.83449 0.25335 0.0
N923 N 0.19507 0.8345 0.43527 0.0
C924 C 0.15316 0.83331 0.29478 0.0
C925 C 0.18188 0.83231 0.38568 0.0
N926 N 0.18414 0.85995 0.23551 0.0
N927 N 0.15236 0.79966 0.42939 0.0
H928 H 0.21137 0.84624 0.43701 0.0
H929 H 0.18942 0.82619 0.4777 0.0
H930 H 0.13625 0.78774 0.43358 0.0
H931 H 0.16261 0.7964 0.45619 0.0
H932 H 0.17509 0.85902 0.19601 0.0
H933 H 0.20052 0.87085 0.22972 0.0
H934 H 0.14344 0.84716 0.22173 0.0
H935 H 0.12271 0.82304 0.25144 0.0
C936 C 0.65585 0.8375 0.78708 0.0
C937 C 0.6633 0.85237 0.83801 0.0
C938 C 0.68447 0.83616 0.87793 0.0
C939 C 0.67663 0.82099 0.82767 0.0
N940 N 0.65134 0.80449 0.74141 0.0
N941 N 0.68862 0.86898 0.92421 0.0
C942 C 0.66129 0.82084 0.78435 0.0
C943 C 0.67876 0.85265 0.88113 0.0
N944 N 0.64505 0.84043 0.73817 0.0
N945 N 0.69595 0.83372 0.92579 0.0
H946 H 0.68467 0.88099 0.93121 0.0
H947 H 0.70215 0.87179 0.95011 0.0
H948 H 0.70003 0.82159 0.92667 0.0
H949 H 0.69957 0.84222 0.96809 0.0
H950 H 0.64155 0.83193 0.69588 0.0
H951 H 0.6417 0.85308 0.73643 0.0
H952 H 0.63795 0.80189 0.71512 0.0
H953 H 0.65506 0.79227 0.73512 0.0
C954 C 0.16653 0.8479 0.79474 0.0
C955 C 0.18044 0.85783 0.84686 0.0
C956 C 0.16589 0.8225 0.89894 0.0
C957 C 0.15132 0.81263 0.84778 0.0
N958 N 0.13447 0.81684 0.75394 0.0
N959 N 0.19018 0.85576 0.95408 0.0
C960 C 0.15059 0.82561 0.79789 0.0
C961 C 0.17931 0.84544 0.90046 0.0
N962 N 0.16906 0.85958 0.74108 0.0
N963 N 0.16667 0.81003 0.94672 0.0
H964 H 0.1995 0.87256 0.95724 0.0
H965 H 0.18846 0.84802 0.99707 0.0
H966 H 0.15575 0.79353 0.95105 0.0
H967 H 0.17874 0.81582 0.98083 0.0
H968 H 0.16139 0.85264 0.69866 0.0
H969 H 0.1802 0.87604 0.7371 0.0
H970 H 0.13171 0.82603 0.72101 0.0
H971 H 0.12256 0.80063 0.75344 0.0
C972 C 0.16202 0.34494 0.79504 0.0
C973 C 0.14744 0.32946 0.83903 0.0
C974 C 0.17748 0.32754 0.88906 0.0
C975 C 0.19207 0.34298 0.84496 0.0
N976 N 0.19733 0.36146 0.74584 0.0
N977 N 0.1422 0.31114 0.93839 0.0
C978 C 0.18411 0.35047 0.79546 0.0
C979 C 0.15541 0.32204 0.88867 0.0
N980 N 0.15512 0.35504 0.75412 0.0
N981 N 0.18433 0.3174 0.93002 0.0
H982 H 0.12626 0.3078 0.94164 0.0
H983 H 0.1476 0.30759 0.97986 0.0
H984 H 0.20016 0.32063 0.93298 0.0
H985 H 0.17388 0.30414 0.95735 0.0
H986 H 0.16552 0.36831 0.72675 0.0
H987 H 0.13926 0.35177 0.75133 0.0
H988 H 0.19195 0.36509 0.70449 0.0
H989 H 0.21328 0.36481 0.74252 0.0
C990 C 0.83456 0.68127 0.72593 0.0
C991 C 0.82669 0.68264 0.66558 0.0
C992 C 0.84662 0.66666 0.61684 0.0
C993 C 0.85526 0.66612 0.67671 0.0
N994 N 0.86043 0.67596 0.7866 0.0
N995 N 0.82911 0.68165 0.55269 0.0
C996 C 0.85021 0.67447 0.73078 0.0
C997 C 0.8339 0.67683 0.61071 0.0
N998 N 0.82654 0.6858 0.77872 0.0
N999 N 0.85014 0.65702 0.56602 0.0
H1000 H 0.82025 0.68955 0.54696 0.0
H1001 H 0.83559 0.67976 0.51079 0.0
H1002 H 0.85986 0.64995 0.56796 0.0
H1003 H 0.8423 0.65474 0.52296 0.0
H1004 H 0.82956 0.68264 0.82438 0.0
H1005 H 0.81567 0.69154 0.77684 0.0
H1006 H 0.8592 0.68393 0.82613 0.0
H1007 H 0.87142 0.67048 0.7922 0.0
C1008 C 0.32571 0.17884 0.63996 0.0
C1009 C 0.34285 0.19232 0.68181 0.0
C1010 C 0.34644 0.161 0.71307 0.0
C1011 C 0.32922 0.14747 0.67152 0.0
N1012 N 0.30742 0.14508 0.58206 0.0
N1013 N 0.36436 0.19455 0.77185 0.0
C1014 C 0.32009 0.1568 0.63174 0.0
C1015 C 0.35189 0.18294 0.72174 0.0
N1016 N 0.3141 0.18659 0.60942 0.0
N1017 N 0.35838 0.15346 0.74277 0.0
H1018 H 0.36769 0.2102 0.78233 0.0
H1019 H 0.36919 0.18785 0.80756 0.0
H1020 H 0.35538 0.13768 0.74014 0.0
H1021 H 0.37281 0.16351 0.76606 0.0
H1022 H 0.2997 0.17669 0.58583 0.0
H1023 H 0.31737 0.20247 0.61161 0.0
H1024 H 0.30248 0.15167 0.54637 0.0
H1025 H 0.30399 0.12937 0.57189 0.0
C1026 C 0.82228 0.16842 0.72612 0.0
C1027 C 0.81232 0.15291 0.67741 0.0
C1028 C 0.84783 0.16452 0.62934 0.0
C1029 C 0.85782 0.18006 0.67796 0.0
N1030 N 0.85437 0.19939 0.76711 0.0
N1031 N 0.8159 0.13312 0.58969 0.0
C1032 C 0.845 0.18275 0.72476 0.0
C1033 C 0.82516 0.15003 0.63118 0.0
N1034 N 0.81022 0.16831 0.77648 0.0
N1035 N 0.85977 0.16479 0.57845 0.0
H1036 H 0.79939 0.12253 0.5865 0.0
H1037 H 0.82472 0.12841 0.56127 0.0
H1038 H 0.87629 0.17554 0.57399 0.0
H1039 H 0.85309 0.15595 0.53743 0.0
H1040 H 0.81677 0.17712 0.81763 0.0
H1041 H 0.79365 0.15776 0.78033 0.0
H1042 H 0.84569 0.20414 0.79596 0.0
H1043 H 0.87092 0.20966 0.77099 0.0
C1044 C 0.01555 0.50096 0.46191 0.0
C1045 C 0.00921 0.4855 0.51133 0.0
C1046 C 0.98706 0.49957 0.55796 0.0
C1047 C 0.99349 0.5151 0.50871 0.0
N1048 N 0.01722 0.5334 0.4207 0.0
N1049 N 0.98527 0.46703 0.5988 0.0
C1050 C 0.00872 0.51663 0.46273 0.0
C1051 C 0.99389 0.4839 0.5571 0.0
N1052 N 0.02667 0.49954 0.41123 0.0
N1053 N 0.97582 0.50089 0.60847 0.0
H1054 H 0.98998 0.45542 0.60149 0.0
H1055 H 0.97204 0.46335 0.62748 0.0
H1056 H 0.97115 0.51255 0.61246 0.0
H1057 H 0.97304 0.49198 0.64974 0.0
H1058 H 0.0294 0.50841 0.36991 0.0
H1059 H 0.03125 0.48781 0.40714 0.0
H1060 H 0.03042 0.53707 0.39193 0.0
H1061 H 0.01239 0.54491 0.41765 0.0
C1062 C 0.48612 0.49478 0.54282 0.0
C1063 C 0.48857 0.48063 0.50038 0.0
C1064 C 0.52263 0.51117 0.46145 0.0
C1065 C 0.52012 0.52536 0.50358 0.0
N1066 N 0.50301 0.52942 0.59635 0.0
N1067 N 0.50562 0.47668 0.40727 0.0
C1068 C 0.50272 0.51684 0.54717 0.0
C1069 C 0.50596 0.48917 0.45677 0.0
N1070 N 0.46768 0.48757 0.57771 0.0
N1071 N 0.54117 0.51826 0.4272 0.0
H1072 H 0.49315 0.46087 0.39997 0.0
H1073 H 0.51623 0.48266 0.36924 0.0
H1074 H 0.5539 0.53408 0.42718 0.0
H1075 H 0.54496 0.50793 0.40273 0.0
H1076 H 0.46383 0.49783 0.60236 0.0
H1077 H 0.45511 0.47169 0.57832 0.0
H1078 H 0.49242 0.52352 0.63442 0.0
H1079 H 0.51541 0.54528 0.60333 0.0
C1080 C 0.51395 0.01613 0.46195 0.0
C1081 C 0.52331 0.01006 0.51109 0.0
C1082 C 0.48728 0.98636 0.55639 0.0
C1083 C 0.47792 0.99259 0.50755 0.0
N1084 N 0.48269 0.01651 0.42014 0.0
N1085 N 0.51859 0.98593 0.59777 0.0
C1086 C 0.49134 0.00836 0.46216 0.0
C1087 C 0.50991 0.99413 0.55609 0.0
N1088 N 0.52646 0.02802 0.41215 0.0
N1089 N 0.47479 0.97442 0.60613 0.0
H1090 H 0.53502 0.99148 0.60186 0.0
H1091 H 0.50937 0.97229 0.62535 0.0
H1092 H 0.45831 0.96896 0.60956 0.0
H1093 H 0.481 0.97172 0.64735 0.0
H1094 H 0.52026 0.0306 0.37073 0.0
H1095 H 0.54295 0.0335 0.40891 0.0
H1096 H 0.49193 0.03013 0.39252 0.0
H1097 H 0.46627 0.01088 0.41559 0.0
C1098 C 0.49039 0.00264 0.06452 0.0
C1099 C 0.48736 0.01055 1.0061 0.0
C1100 C 0.51263 1.00148 0.95449 0.0
C1101 C 0.51588 0.99384 0.01302 0.0
N1102 N 0.50561 0.98367 0.12113 0.0
N1103 N 0.49767 0.02067 0.89793 0.0
C1104 C 0.50411 0.99344 0.06739 0.0
C1105 C 0.49906 0.01084 0.9517 0.0
N1106 N 0.48099 0.00503 0.11785 0.0
N1107 N 0.52161 0.99864 0.90095 0.0
H1108 H 0.48775 0.02748 0.89417 0.0
H1109 H 0.50741 0.02355 0.8585 0.0
H1110 H 0.53127 0.99148 0.90119 0.0
H1111 H 0.51821 1.00168 0.85564 0.0
H1112 H 0.48405 1.00166 0.16317 0.0
H1113 H 0.47117 0.012 0.11755 0.0
H1114 H 0.49599 0.98081 0.1608 0.0
H1115 H 0.51556 0.97688 0.12471 0.0
C1116 C 0.01389 0.51373 0.96136 0.0
C1117 C 0.00635 0.52186 0.01039 0.0
C1118 C 0.98416 0.48496 0.05236 0.0
C1119 C 0.99199 0.47687 1.00389 0.0
N1120 N 0.0176 0.48422 0.91955 0.0
N1121 N 0.98063 0.51464 0.09415 0.0
C1122 C 0.00778 0.49143 0.96048 0.0
C1123 C 0.99037 0.50731 0.05332 0.0
N1124 N 0.02559 0.52703 0.91262 0.0
N1125 N 0.97227 0.47164 0.10083 0.0
H1126 H 0.98488 0.5308 0.09825 0.0
H1127 H 0.96697 0.50449 0.1205 0.0
H1128 H 0.96801 0.4554 0.10371 0.0
H1129 H 0.96846 0.47706 0.1418 0.0
H1130 H 0.02919 0.52158 0.87135 0.0
H1131 H 0.02977 0.54325 0.90984 0.0
H1132 H 0.03123 0.49445 0.89318 0.0
H1133 H 0.01344 0.4681 0.91525 0.0
C1134 C 0.49134 0.50505 0.04939 0.0
C1135 C 0.48196 0.48705 0.00795 0.0
C1136 C 0.51697 0.50065 0.95447 0.0
C1137 C 0.52638 0.51864 0.99593 0.0
N1138 N 0.52099 0.5406 0.07346 0.0
N1139 N 0.48756 0.4649 0.93158 0.0
C1140 C 0.51317 0.52166 0.04062 0.0
C1141 C 0.49522 0.48397 0.96363 0.0
N1142 N 0.47986 0.50535 0.10074 0.0
N1143 N 0.52833 0.5004 0.90277 0.0
H1144 H 0.47186 0.45208 0.93464 0.0
H1145 H 0.49743 0.46085 0.90568 0.0
H1146 H 0.54385 0.51288 0.8922 0.0
H1147 H 0.52156 0.48924 0.86625 0.0
H1148 H 0.48654 0.51648 0.13735 0.0
H1149 H 0.46428 0.49293 0.11093 0.0
H1150 H 0.51123 0.54473 0.09957 0.0
H1151 H 0.53679 0.55325 0.07107 0.0
C1152 C 0.42329 0.08522 0.03663 0.0
C1153 C 0.41329 0.06227 0.04112 0.0
C1154 C 0.38892 0.06238 0.12188 0.0
C1155 C 0.39786 0.08507 0.11605 0.0
N1156 N 0.41914 0.11666 0.05042 0.0
N1157 N 0.37866 0.03022 0.06155 0.0
C1158 C 0.414 0.09627 0.06895 0.0
C1159 C 0.39367 0.05109 0.07559 0.0
N1160 N 0.44085 0.09645 0.99862 0.0
N1161 N 0.37574 0.05144 0.17141 0.0
H1162 H 0.37944 0.02247 0.02083 0.0
H1163 H 0.36371 0.02209 0.08412 0.0
H1164 H 0.37315 0.05928 0.2091 0.0
H1165 H 0.36945 0.03488 0.1782 0.0
H1166 H 0.45083 0.11317 1.00136 0.0
H1167 H 0.44531 0.08902 0.96409 0.0
H1168 H 0.42906 0.12453 0.01199 0.0
H1169 H 0.41175 0.12496 0.06805 0.0
C1170 C 0.91529 0.32816 0.14934 0.0
C1171 C 0.9247 0.31475 0.14167 0.0
C1172 C 0.94869 0.33943 0.0606 0.0
C1173 C 0.94031 0.35355 0.06955 0.0
N1174 N 0.9203 0.36421 0.13941 0.0
N1175 N 0.95859 0.3163 0.11588 0.0
C1176 C 0.92474 0.34872 0.11834 0.0
C1177 C 0.94393 0.32292 0.10531 0.0
N1178 N 0.89813 0.32196 0.18894 0.0
N1179 N 0.96122 0.34163 0.00935 0.0
H1180 H 0.95799 0.30731 0.15527 0.0
H1181 H 0.97327 0.32289 0.09185 0.0
H1182 H 0.96384 0.35251 0.97292 0.0
H1183 H 0.96684 0.33094 0.99989 0.0
H1184 H 0.88855 0.32919 0.18881 0.0
H1185 H 0.89353 0.30959 0.22195 0.0
H1186 H 0.91081 0.36219 0.17892 0.0
H1187 H 0.92792 0.38001 0.12258 0.0
C1188 C 0.67208 0.58777 0.14292 0.0
C1189 C 0.69091 0.59684 0.10513 0.0
C1190 C 0.66882 0.58763 0.00902 0.0
C1191 C 0.64997 0.57788 0.04672 0.0
N1192 N 0.6332 0.56471 0.14823 0.0
N1193 N 0.70744 0.6016 1.00273 0.0
C1194 C 0.65147 0.57669 0.11335 0.0
C1195 C 0.68933 0.59556 0.03824 0.0
N1196 N 0.67392 0.59037 0.20691 0.0
N1197 N 0.66713 0.58986 0.94559 0.0
H1198 H 0.72262 0.60705 0.02259 0.0
H1199 H 0.70719 0.59934 0.95419 0.0
H1200 H 0.6523 0.58351 0.92253 0.0
H1201 H 0.68031 0.59911 0.91645 0.0
H1202 H 0.6609 0.58652 0.23668 0.0
H1203 H 0.68878 0.59771 0.23006 0.0
H1204 H 0.63331 0.56157 0.19611 0.0
H1205 H 0.61787 0.55621 0.1282 0.0
C1206 C 0.08061 0.41442 0.48228 0.0
C1207 C 0.0703 0.42299 0.44455 0.0
C1208 C 0.08176 0.41212 0.34815 0.0
C1209 C 0.09033 0.40183 0.38597 0.0
N1210 N 0.09781 0.39247 0.48856 0.0
N1211 N 0.06052 0.43009 0.34214 0.0
C1212 C 0.08987 0.40293 0.45298 0.0
C1213 C 0.07087 0.422 0.37755 0.0
N1214 N 0.08182 0.41765 0.54607 0.0
N1215 N 0.08444 0.41276 0.28416 0.0
H1216 H 0.05389 0.43889 0.36155 0.0
H1217 H 0.05773 0.4275 0.29395 0.0
H1218 H 0.09206 0.40539 0.26144 0.0
H1219 H 0.0805 0.42169 0.25368 0.0
H1220 H 0.09082 0.41374 0.5763 0.0
H1221 H 0.07494 0.42576 0.56871 0.0
H1222 H 0.09553 0.39008 0.53697 0.0
H1223 H 0.10605 0.38524 0.46915 0.0
C1224 C 0.59262 0.66988 0.33914 0.0
C1225 C 0.60057 0.68916 0.37464 0.0
C1226 C 0.5899 0.6681 0.47319 0.0
C1227 C 0.58109 0.64878 0.43748 0.0
N1228 N 0.56984 0.63088 0.3367 0.0
N1229 N 0.60358 0.70682 0.47431 0.0
C1230 C 0.58116 0.64957 0.37044 0.0
C1231 C 0.59812 0.68831 0.44138 0.0
N1232 N 0.5965 0.671 0.27572 0.0
N1233 N 0.59106 0.66716 0.53735 0.0
H1234 H 0.60995 0.72194 0.45294 0.0
H1235 H 0.60032 0.70704 0.52205 0.0
H1236 H 0.58454 0.65258 0.56204 0.0
H1237 H 0.59964 0.68072 0.56578 0.0
H1238 H 0.59352 0.65766 0.24837 0.0
H1239 H 0.60405 0.68559 0.25098 0.0
H1240 H 0.56767 0.63046 0.28808 0.0
H1241 H 0.56075 0.61582 0.35802 0.0
C1242 C 0.31448 0.91492 0.46181 0.0
C1243 C 0.31263 0.91166 0.39544 0.0
C1244 C 0.35166 0.92562 0.38828 0.0
C1245 C 0.35374 0.93115 0.45342 0.0
N1246 N 0.33771 0.93329 0.55107 0.0
N1247 N 0.32925 0.91522 0.29417 0.0
C1248 C 0.33529 0.9264 0.4899 0.0
C1249 C 0.33116 0.91721 0.35831 0.0
N1250 N 0.2963 0.90637 0.49831 0.0
N1251 N 0.36932 0.92849 0.35506 0.0
H1252 H 0.31441 0.90865 0.27106 0.0
H1253 H 0.34234 0.92129 0.26345 0.0
H1254 H 0.38469 0.93515 0.37468 0.0
H1255 H 0.36856 0.92284 0.30936 0.0
H1256 H 0.29652 0.90645 0.54739 0.0
H1257 H 0.28084 0.89728 0.47965 0.0
H1258 H 0.32523 0.9328 0.57777 0.0
H1259 H 0.3526 0.94079 0.57407 0.0
C1260 C 0.5819 0.92096 0.98645 0.0
C1261 C 0.5916 0.94387 0.98069 0.0
C1262 C 0.61641 0.94369 0.90153 0.0
C1263 C 0.60778 0.9211 0.90883 0.0
N1264 N 0.5863 0.88959 0.97427 0.0
N1265 N 0.62597 0.97615 0.95938 0.0
C1266 C 0.59145 0.90994 0.95534 0.0
C1267 C 0.61124 0.9551 0.94629 0.0
N1268 N 0.56433 0.90978 0.02449 0.0
N1269 N 0.62976 0.95442 0.85212 0.0
H1270 H 0.625 0.98409 0.99938 0.0
H1271 H 0.64094 0.98435 0.93697 0.0
H1272 H 0.63286 0.94643 0.81589 0.0
H1273 H 0.63574 0.97086 0.84391 0.0
H1274 H 0.55451 0.89303 0.02255 0.0
H1275 H 0.5597 0.91728 0.0583 0.0
H1276 H 0.57632 0.88175 0.0126 0.0
H1277 H 0.59361 0.88122 0.95658 0.0
C1278 C 0.08148 0.67042 0.86802 0.0
C1279 C 0.08812 0.68847 0.90832 0.0
C1280 C 0.07578 0.66441 1.00099 0.0
C1281 C 0.06729 0.6463 0.96023 0.0
N1282 N 0.06082 0.63144 0.85511 0.0
N1283 N 0.09142 0.70323 0.01274 0.0
C1284 C 0.06996 0.64914 0.89375 0.0
C1285 C 0.08533 0.68562 0.9748 0.0
N1286 N 0.08646 0.6737 0.80524 0.0
N1287 N 0.07502 0.66126 0.06478 0.0
H1288 H 0.09993 0.71904 0.99603 0.0
H1289 H 0.08736 0.7023 0.06019 0.0
H1290 H 0.0679 0.6459 0.08514 0.0
H1291 H 0.08269 0.67366 0.09752 0.0
H1292 H 0.08411 0.66147 0.77397 0.0
H1293 H 0.09448 0.68907 0.78492 0.0
H1294 H 0.05955 0.63225 0.80644 0.0
H1295 H 0.05344 0.61563 0.87208 0.0
C1296 C 0.33999 0.42086 0.99702 0.0
C1297 C 0.35795 0.42734 0.95657 0.0
C1298 C 0.33397 0.41532 0.86391 0.0
C1299 C 0.31594 0.40674 0.90485 0.0
N1300 N 0.30103 0.40116 0.00973 0.0
N1301 N 0.37281 0.43188 0.85188 0.0
C1302 C 0.31875 0.40968 0.97127 0.0
C1303 C 0.35515 0.42505 0.88998 0.0
N1304 N 0.34336 0.42564 0.05989 0.0
N1305 N 0.33073 0.41439 0.80015 0.0
H1306 H 0.38853 0.44104 0.86857 0.0
H1307 H 0.37209 0.42821 0.80418 0.0
H1308 H 0.31536 0.40721 0.78005 0.0
H1309 H 0.34302 0.42185 0.76702 0.0
H1310 H 0.33125 0.42324 0.0916 0.0
H1311 H 0.35873 0.4335 0.08 0.0
H1312 H 0.30164 0.39999 0.05849 0.0
H1313 H 0.28535 0.39451 0.99248 0.0
C1314 C 0.91414 0.59931 0.5589 0.0
C1315 C 0.91353 0.60081 0.62574 0.0
C1316 C 0.93227 0.58005 0.63713 0.0
C1317 C 0.93315 0.5788 0.57027 0.0
N1318 N 0.92227 0.58391 0.46751 0.0
N1319 N 0.91842 0.58987 0.7287 0.0
C1320 C 0.92322 0.58742 0.53114 0.0
C1321 C 0.9215 0.5903 0.66493 0.0
N1322 N 0.90652 0.60978 0.52205 0.0
N1323 N 0.94229 0.57193 0.67394 0.0
H1324 H 0.91078 0.59743 0.75019 0.0
H1325 H 0.92195 0.58085 0.76006 0.0
H1326 H 0.94887 0.56292 0.65571 0.0
H1327 H 0.94489 0.57475 0.72212 0.0
H1328 H 0.90887 0.61183 0.47358 0.0
H1329 H 0.89838 0.61727 0.54046 0.0
H1330 H 0.91362 0.58795 0.43626 0.0
H1331 H 0.92903 0.5755 0.44604 0.0
C1332 C 0.41659 0.33775 0.52537 0.0
C1333 C 0.42726 0.3569 0.56168 0.0
C1334 C 0.4174 0.3354 0.65935 0.0
C1335 C 0.40743 0.31624 0.62287 0.0
N1336 N 0.4013 0.29882 0.52143 0.0
N1337 N 0.44148 0.37424 0.66189 0.0
C1338 C 0.40823 0.31733 0.55587 0.0
C1339 C 0.42885 0.35579 0.62833 0.0
N1340 N 0.41391 0.33908 0.46202 0.0
N1341 N 0.41531 0.3341 0.72352 0.0
H1342 H 0.45012 0.38943 0.64089 0.0
H1343 H 0.44492 0.37436 0.70961 0.0
H1344 H 0.40774 0.31938 0.74763 0.0
H1345 H 0.41986 0.34745 0.75257 0.0
H1346 H 0.40399 0.32578 0.43405 0.0
H1347 H 0.42056 0.35378 0.43795 0.0
H1348 H 0.4031 0.29863 0.47277 0.0
H1349 H 0.39557 0.28369 0.5422 0.0
C1350 C 0.66574 0.08543 0.528 0.0
C1351 C 0.64718 0.07648 0.56695 0.0
C1352 C 0.67 0.08741 0.66178 0.0
C1353 C 0.68856 0.09671 0.62283 0.0
N1354 N 0.70456 0.10877 0.51999 0.0
N1355 N 0.63128 0.07275 0.66985 0.0
C1356 C 0.68655 0.09708 0.55619 0.0
C1357 C 0.64923 0.07874 0.63361 0.0
N1358 N 0.66346 0.08213 0.4643 0.0
N1359 N 0.67222 0.08622 0.72544 0.0
H1360 H 0.61589 0.06661 0.65071 0.0
H1361 H 0.6318 0.07565 0.71809 0.0
H1362 H 0.68725 0.09316 0.74762 0.0
H1363 H 0.65933 0.07732 0.75584 0.0
H1364 H 0.67629 0.08589 0.43385 0.0
H1365 H 0.64842 0.07441 0.44213 0.0
H1366 H 0.70411 0.11128 0.47181 0.0
H1367 H 0.72 0.11765 0.53912 0.0
C1368 C 0.74435 0.76003 0.71087 0.0
C1369 C 0.72925 0.74967 0.76087 0.0
C1370 C 0.72708 0.71552 0.73105 0.0
C1371 C 0.7459 0.72661 0.69292 0.0
N1372 N 0.77079 0.7598 0.63973 0.0
N1373 N 0.7094 0.71778 0.82526 0.0
C1374 C 0.75423 0.74908 0.68142 0.0
C1375 C 0.72173 0.72752 0.77323 0.0
N1376 N 0.74791 0.77942 0.68743 0.0
N1377 N 0.71319 0.69387 0.72394 0.0
H1378 H 0.70604 0.72627 0.85927 0.0
H1379 H 0.70458 0.70186 0.83777 0.0
H1380 H 0.71403 0.685 0.6862 0.0
H1381 H 0.69873 0.68566 0.74896 0.0
H1382 H 0.75694 0.78651 0.64691 0.0
H1383 H 0.74008 0.78746 0.70379 0.0
H1384 H 0.77981 0.77661 0.63708 0.0
H1385 H 0.77545 0.75181 0.60763 0.0
C1386 C 0.25508 0.99913 0.82119 0.0
C1387 C 0.247 0.98084 0.78117 0.0
C1388 C 0.25658 0.00439 0.68758 0.0
C1389 C 0.26646 0.02272 0.72745 0.0
N1390 N 0.27558 0.03821 0.83167 0.0
N1391 N 0.23972 0.9654 0.67675 0.0
C1392 C 0.26567 0.02026 0.7942 0.0
C1393 C 0.24754 0.9833 0.71442 0.0
N1394 N 0.2523 0.99621 0.88499 0.0
N1395 N 0.25561 0.00727 0.62413 0.0
H1396 H 0.23155 0.94971 0.69453 0.0
H1397 H 0.24192 0.96589 0.62818 0.0
H1398 H 0.26229 0.02254 0.6034 0.0
H1399 H 0.24705 0.99478 0.5923 0.0
H1400 H 0.25582 0.00859 0.91697 0.0
H1401 H 0.24508 0.98097 0.90613 0.0
H1402 H 0.27838 0.03784 0.87966 0.0
H1403 H 0.28174 0.05384 0.81416 0.0
C1404 C 0.02152 0.26307 0.70969 0.0
C1405 C 0.02406 0.26361 0.77626 0.0
C1406 C 0.98513 0.23911 0.78842 0.0
C1407 C 0.98236 0.24103 0.72274 0.0
N1408 N 0.99738 0.25606 0.62118 0.0
N1409 N 0.0086 0.25331 0.87994 0.0
C1410 C 1.00043 0.2533 0.68338 0.0
C1411 C 0.00596 0.25174 0.81594 0.0
N1412 N 0.03931 0.27142 0.6716 0.0
N1413 N 0.96781 0.22525 0.8244 0.0
H1414 H 0.02372 0.26193 0.90132 0.0
H1415 H 0.99585 0.24721 0.9119 0.0
H1416 H 0.95229 0.216 0.80614 0.0
H1417 H 0.96902 0.22155 0.87116 0.0
H1418 H 0.03858 0.27 0.6227 0.0
H1419 H 0.05491 0.27784 0.68932 0.0
H1420 H 0.00964 0.26702 0.59175 0.0
H1421 H 0.98222 0.24829 0.59978 0.0
C1422 C 0.2669 0.24818 0.29868 0.0
C1423 C 0.27181 0.25178 0.23315 0.0
C1424 C 0.25381 0.27335 0.22771 0.0
C1425 C 0.25109 0.27182 0.29431 0.0
N1426 N 0.25648 0.25944 0.39447 0.0
N1427 N 0.27234 0.26976 0.13654 0.0
C1428 C 0.25792 0.25956 0.33016 0.0
C1429 C 0.26594 0.26493 0.198 0.0
N1430 N 0.27083 0.23387 0.3308 0.0
N1431 N 0.24418 0.28226 0.19258 0.0
H1432 H 0.28041 0.26311 0.11252 0.0
H1433 H 0.27096 0.28142 0.11067 0.0
H1434 H 0.23465 0.28798 0.21247 0.0
H1435 H 0.24389 0.28214 0.1435 0.0
H1436 H 0.26566 0.22884 0.37677 0.0
H1437 H 0.2779 0.22565 0.31006 0.0
H1438 H 0.26346 0.253 0.42414 0.0
H1439 H 0.24942 0.26709 0.41866 0.0
C1440 C 0.74573 0.98461 0.23474 0.0
C1441 C 0.73098 0.98012 0.28576 0.0
C1442 C 0.7264 0.01017 0.24957 0.0
C1443 C 0.74515 0.01825 0.21117 0.0
N1444 N 0.77124 0.01094 0.16103 0.0
N1445 N 0.71077 0.99242 0.34804 0.0
C1446 C 0.75462 0.00494 0.20259 0.0
C1447 C 0.72252 0.99417 0.2953 0.0
N1448 N 0.74981 0.96898 0.21262 0.0
N1449 N 0.71139 0.0164 0.24017 0.0
H1450 H 0.70926 0.98237 0.38577 0.0
H1451 H 0.7047 0.00276 0.35713 0.0
H1452 H 0.71144 0.02506 0.20059 0.0
H1453 H 0.69699 0.00981 0.26563 0.0
H1454 H 0.75871 0.97081 0.17189 0.0
H1455 H 0.74228 0.95322 0.22962 0.0
H1456 H 0.78091 0.0038 0.16017 0.0
H1457 H 0.7753 0.02303 0.12741 0.0
C1458 C 0.00313 0.75028 0.33253 0.0
C1459 C 0.02226 0.75992 0.29605 0.0
C1460 C 1.00095 0.74866 0.19833 0.0
C1461 C 0.98182 0.73933 0.2348 0.0
N1462 N 0.96425 0.73501 0.33524 0.0
N1463 N 0.03976 0.77253 0.19517 0.0
C1464 C 0.9828 0.74141 0.30158 0.0
C1465 C 0.02126 0.7605 0.22914 0.0
N1466 N 0.00441 0.74896 0.39654 0.0
N1467 N 0.9997 0.74555 0.13452 0.0
H1468 H 0.05485 0.78161 0.21622 0.0
H1469 H 0.03999 0.77513 0.14682 0.0
H1470 H 0.98503 0.73778 0.11041 0.0
H1471 H 0.01303 0.74952 0.10597 0.0
H1472 H 0.99111 0.73983 0.42538 0.0
H1473 H 0.0191 0.75606 0.42067 0.0
H1474 H 0.96396 0.7377 0.38337 0.0
H1475 H 0.94915 0.7287 0.314 0.0
C1476 C 0.33902 0.10957 0.95404 0.0
C1477 C 0.33733 0.09181 0.98895 0.0
C1478 C 0.33376 0.07216 0.89033 0.0
C1479 C 0.33346 0.08919 0.85639 0.0
N1480 N 0.33052 0.12163 0.85792 0.0
N1481 N 0.33345 0.05618 0.99187 0.0
C1482 C 0.33451 0.10713 0.88875 0.0
C1483 C 0.33475 0.07304 0.95749 0.0
N1484 N 0.34548 0.12908 0.98242 0.0
N1485 N 0.33288 0.05506 0.85834 0.0
H1486 H 0.33632 0.05703 0.04024 0.0
H1487 H 0.32893 0.04102 0.9733 0.0
H1488 H 0.33018 0.05281 0.80994 0.0
H1489 H 0.33552 0.04335 0.87887 0.0
H1490 H 0.34957 0.14317 0.95732 0.0
H1491 H 0.34893 0.132 0.03017 0.0
H1492 H 0.32833 0.13328 0.88111 0.0
H1493 H 0.32728 0.12093 0.81 0.0
C1494 C 0.91107 0.2237 0.97086 0.0
C1495 C 0.91908 0.24413 0.99961 0.0
C1496 C 0.93046 0.26164 0.89677 0.0
C1497 C 0.91892 0.24114 0.86682 0.0
N1498 N 0.89462 0.20236 0.87813 0.0
N1499 N 0.93347 0.28259 0.98935 0.0
C1500 C 0.90834 0.22201 0.9045 0.0
C1501 C 0.92781 0.26311 0.96238 0.0
N1502 N 0.90595 0.20587 1.00679 0.0
N1503 N 0.94509 0.27949 0.864 0.0
H1504 H 0.9325 0.28444 0.0377 0.0
H1505 H 0.93735 0.29636 0.96284 0.0
H1506 H 0.94931 0.27889 0.81731 0.0
H1507 H 0.95511 0.29432 0.88557 0.0
H1508 H 0.90218 0.19096 0.98746 0.0
H1509 H 0.9073 0.20645 0.05581 0.0
H1510 H 0.88486 0.18862 0.90488 0.0
H1511 H 0.89103 0.19997 0.83035 0.0
C1512 C 0.74313 0.66759 0.94436 0.0
C1513 C 0.7571 0.66152 0.97433 0.0
C1514 C 0.76934 0.6566 0.87043 0.0
C1515 C 0.75759 0.66544 0.84184 0.0
N1516 N 0.73603 0.68264 0.85145 0.0
N1517 N 0.78543 0.6523 0.96539 0.0
C1518 C 0.74534 0.67196 0.87878 0.0
C1519 C 0.77067 0.65645 0.93725 0.0
N1520 N 0.72676 0.66775 0.97737 0.0
N1521 N 0.77903 0.64809 0.83369 0.0
H1522 H 0.78678 0.65131 0.01387 0.0
H1523 H 0.79758 0.65141 0.94074 0.0
H1524 H 0.77884 0.64844 0.78451 0.0
H1525 H 0.78576 0.63918 0.85163 0.0
H1526 H 0.71486 0.66998 0.95609 0.0
H1527 H 0.72346 0.66317 0.02454 0.0
H1528 H 0.72915 0.69007 0.87746 0.0
H1529 H 0.73686 0.68565 0.80319 0.0
C1530 C 0.10298 0.3269 0.60089 0.0
C1531 C 0.08714 0.32885 0.63659 0.0
C1532 C 0.0718 0.33408 0.5392 0.0
C1533 C 0.08706 0.3313 0.50373 0.0
N1534 N 0.11423 0.32078 0.49859 0.0
N1535 N 0.05281 0.32784 0.63825 0.0
C1536 C 0.10177 0.32641 0.53399 0.0
C1537 C 0.07049 0.33062 0.60537 0.0
N1538 N 0.11963 0.32628 0.63059 0.0
N1539 N 0.0591 0.34081 0.51014 0.0
H1540 H 0.05067 0.32429 0.6863 0.0
H1541 H 0.0392 0.32672 0.61666 0.0
H1542 H 0.0593 0.3432 0.46156 0.0
H1543 H 0.04963 0.34569 0.5348 0.0
H1544 H 0.13315 0.32783 0.60716 0.0
H1545 H 0.12079 0.32566 0.67929 0.0
H1546 H 0.1237 0.31486 0.51766 0.0
H1547 H 0.11361 0.32014 0.44944 0.0
C1548 C 0.67696 0.77645 0.58934 0.0
C1549 C 0.6704 0.75749 0.6264 0.0
C1550 C 0.66205 0.73573 0.53015 0.0
C1551 C 0.6695 0.75478 0.49373 0.0
N1552 N 0.68843 0.79359 0.48691 0.0
N1553 N 0.66294 0.72047 0.63106 0.0
C1554 C 0.67835 0.77526 0.52287 0.0
C1555 C 0.66463 0.73746 0.59661 0.0
N1556 N 0.68104 0.79542 0.61708 0.0
N1557 N 0.65217 0.71594 0.50141 0.0
H1558 H 0.66598 0.72133 0.67934 0.0
H1559 H 0.66088 0.70627 0.61072 0.0
H1560 H 0.65088 0.71407 0.45255 0.0
H1561 H 0.64397 0.70143 0.52616 0.0
H1562 H 0.68311 0.80884 0.59177 0.0
H1563 H 0.68075 0.7974 0.66553 0.0
H1564 H 0.69724 0.80908 0.50578 0.0
H1565 H 0.68959 0.7932 0.43792 0.0
C1566 C 0.22746 0.89479 0.61531 0.0
C1567 C 0.24392 0.9126 0.64865 0.0
C1568 C 0.26228 0.92902 0.54916 0.0
C1569 C 0.24481 0.91217 0.51561 0.0
N1570 N 0.20904 0.88102 0.51562 0.0
N1571 N 0.27477 0.94873 0.64729 0.0
C1572 C 0.22687 0.89561 0.54842 0.0
C1573 C 0.26073 0.93032 0.61562 0.0
N1574 N 0.21291 0.87674 0.64749 0.0
N1575 N 0.28079 0.9432 0.51814 0.0
H1576 H 0.27422 0.95044 0.69598 0.0
H1577 H 0.28571 0.96302 0.62464 0.0
H1578 H 0.28268 0.94286 0.46948 0.0
H1579 H 0.29495 0.9541 0.54129 0.0
H1580 H 0.20181 0.86239 0.62556 0.0
H1581 H 0.21328 0.87542 0.69641 0.0
H1582 H 0.19463 0.86981 0.53707 0.0
H1583 H 0.20795 0.88144 0.46663 0.0
C1584 C 0.67045 0.93133 0.14454 0.0
C1585 C 0.66514 0.91223 0.17866 0.0
C1586 C 0.66048 0.89248 0.08022 0.0
C1587 C 0.6652 0.91149 0.0457 0.0
N1588 N 0.66838 0.94688 0.04528 0.0
N1589 N 0.65143 0.87387 0.18118 0.0
C1590 C 0.66843 0.93035 0.07789 0.0
C1591 C 0.65899 0.89254 0.14705 0.0
N1592 N 0.67808 0.95059 0.1756 0.0
N1593 N 0.65819 0.8746 0.0495 0.0
H1594 H 0.65026 0.8735 0.23028 0.0
H1595 H 0.64464 0.85854 0.16111 0.0
H1596 H 0.65815 0.87334 1.00069 0.0
H1597 H 0.65765 0.86141 0.07226 0.0
H1598 H 0.68491 0.96547 0.15264 0.0
H1599 H 0.67888 0.95185 0.22463 0.0
H1600 H 0.6684 0.95997 0.06713 0.0
H1601 H 0.66599 0.9465 0.9967 0.0
C1602 C 0.0674 0.73986 0.13263 0.0
C1603 C 0.08543 0.75596 0.16621 0.0
C1604 C 0.10308 0.77308 0.06672 0.0
C1605 C 0.08624 0.75557 0.03332 0.0
N1606 N 0.0543 0.72015 0.03481 0.0
N1607 N 0.12188 0.78609 0.16611 0.0
C1608 C 0.06885 0.73838 0.06625 0.0
C1609 C 0.10369 0.77211 0.13348 0.0
N1610 N 0.04857 0.72654 0.16363 0.0
N1611 N 0.11812 0.7909 0.03464 0.0
H1612 H 0.12305 0.78558 0.21503 0.0
H1613 H 0.13643 0.79683 0.14449 0.0
H1614 H 0.11783 0.79235 0.98575 0.0
H1615 H 0.12958 0.80505 0.05669 0.0
H1616 H 0.0342 0.71624 0.14039 0.0
H1617 H 0.04674 0.72716 0.21225 0.0
H1618 H 0.04283 0.70618 0.05772 0.0
H1619 H 0.05486 0.71819 0.98627 0.0
C1620 C 0.26802 0.33875 0.14505 0.0
C1621 C 0.25268 0.34143 0.18043 0.0
C1622 C 0.23645 0.34532 0.08322 0.0
C1623 C 0.25222 0.34325 0.04755 0.0
N1624 N 0.28661 0.34441 0.04547 0.0
N1625 N 0.22516 0.35147 0.18548 0.0
C1626 C 0.26905 0.34177 0.0787 0.0
C1627 C 0.23775 0.34599 0.15011 0.0
N1628 N 0.28107 0.33252 0.17443 0.0
N1629 N 0.2198 0.34593 0.05345 0.0
H1630 H 0.22584 0.35221 0.23462 0.0
H1631 H 0.21548 0.35713 0.16643 0.0
H1632 H 0.2187 0.34661 1.00475 0.0
H1633 H 0.20629 0.34443 0.07677 0.0
H1634 H 0.29059 0.32764 0.15006 0.0
H1635 H 0.28116 0.33058 0.22315 0.0
H1636 H 0.30037 0.34577 0.06679 0.0
H1637 H 0.28849 0.34755 0.99717 0.0
C1638 C 0.93465 0.66712 0.46625 0.0
C1639 C 0.92037 0.67169 0.50059 0.0
C1640 C 0.90481 0.6757 0.40268 0.0
C1641 C 0.92003 0.67251 0.36777 0.0
N1642 N 0.95342 0.67152 0.36779 0.0
N1643 N 0.89578 0.6855 0.50285 0.0
C1644 C 0.93609 0.66995 0.39986 0.0
C1645 C 0.90664 0.67756 0.46916 0.0
N1646 N 0.94639 0.65951 0.49666 0.0
N1647 N 0.88808 0.67616 0.37286 0.0
H1648 H 0.89707 0.68736 0.55175 0.0
H1649 H 0.88722 0.69217 0.48198 0.0
H1650 H 0.88598 0.67496 0.32426 0.0
H1651 H 0.87518 0.67583 0.3968 0.0
H1652 H 0.95504 0.65346 0.47293 0.0
H1653 H 0.94611 0.65761 0.54548 0.0
H1654 H 0.96662 0.67195 0.39016 0.0
H1655 H 0.95586 0.67478 0.31966 0.0
C1656 C 0.33959 0.2348 0.4629 0.0
C1657 C 0.34027 0.25232 0.49665 0.0
C1658 C 0.33909 0.26933 0.39699 0.0
C1659 C 0.337 0.25102 0.3639 0.0
N1660 N 0.33075 0.21433 0.36649 0.0
N1661 N 0.34117 0.28661 0.4977 0.0
C1662 C 0.33589 0.23319 0.39713 0.0
C1663 C 0.34011 0.26969 0.46418 0.0
N1664 N 0.34317 0.2199 0.49306 0.0
N1665 N 0.33984 0.28621 0.3641 0.0
H1666 H 0.34398 0.2885 0.54611 0.0
H1667 H 0.33881 0.29868 0.47854 0.0
H1668 H 0.33693 0.28568 0.31582 0.0
H1669 H 0.34381 0.3011 0.38369 0.0
H1670 H 0.34596 0.20872 0.46945 0.0
H1671 H 0.34526 0.21968 0.54144 0.0
H1672 H 0.3266 0.19991 0.38979 0.0
H1673 H 0.3288 0.21227 0.31802 0.0
C1674 C 0.76372 0.112 0.44841 0.0
C1675 C 0.75173 0.09304 0.48599 0.0
C1676 C 0.74226 0.07088 0.39071 0.0
C1677 C 0.75221 0.0898 0.35332 0.0
N1678 N 0.7684 0.12848 0.34539 0.0
N1679 N 0.72376 0.05529 0.48827 0.0
C1680 C 0.76157 0.11041 0.3818 0.0
C1681 C 0.73937 0.07266 0.45599 0.0
N1682 N 0.77808 0.13132 0.47533 0.0
N1683 N 0.73573 0.05114 0.3643 0.0
H1684 H 0.71941 0.05623 0.53456 0.0
H1685 H 0.7132 0.04066 0.46645 0.0
H1686 H 0.73702 0.04909 0.31621 0.0
H1687 H 0.73099 0.0373 0.39139 0.0
H1688 H 0.78881 0.14479 0.44909 0.0
H1689 H 0.78105 0.13354 0.52345 0.0
H1690 H 0.77327 0.14374 0.36415 0.0
H1691 H 0.76743 0.12791 0.29627 0.0
C1692 C 1.00174 0.40437 0.22469 0.0
C1693 C 1.00193 0.42187 0.19223 0.0
C1694 C 0.99996 0.43773 0.29274 0.0
C1695 C 1.00205 0.42146 0.32513 0.0
N1696 N 0.00889 0.39153 0.32228 0.0
N1697 N 0.00424 0.45677 0.19427 0.0
C1698 C 0.00396 0.40532 0.29129 0.0
C1699 C 1.00185 0.439 0.22599 0.0
N1700 N 0.99853 0.38642 0.19231 0.0
N1701 N 0.99561 0.45158 0.32583 0.0
H1702 H 0.00597 0.45834 0.14539 0.0
H1703 H 0.00643 0.47073 0.21652 0.0
H1704 H 0.99379 0.45082 0.37475 0.0
H1705 H 0.99188 0.46249 0.30469 0.0
H1706 H 0.99572 0.37219 0.21441 0.0
H1707 H 0.9968 0.38498 0.14345 0.0
H1708 H 0.01307 0.38125 0.2991 0.0
H1709 H 0.01067 0.3916 0.37108 0.0
C1710 C 0.56854 0.56349 0.21417 0.0
C1711 C 0.58576 0.58071 0.18062 0.0
C1712 C 0.6012 0.59976 0.28048 0.0
C1713 C 0.58313 0.58314 0.3131 0.0
N1714 N 0.54721 0.55179 0.30908 0.0
N1715 N 0.61892 0.61503 0.18034 0.0
C1716 C 0.56612 0.56581 0.27945 0.0
C1717 C 0.60222 0.59884 0.21342 0.0
N1718 N 0.55466 0.54454 0.18444 0.0
N1719 N 0.61722 0.61656 0.31368 0.0
H1720 H 0.6215 0.61392 0.13246 0.0
H1721 H 0.63016 0.62986 0.19937 0.0
H1722 H 0.61606 0.61904 0.36161 0.0
H1723 H 0.63198 0.62797 0.29474 0.0
H1724 H 0.54387 0.53051 0.20844 0.0
H1725 H 0.55495 0.54191 0.1364 0.0
H1726 H 0.53329 0.54085 0.28504 0.0
H1727 H 0.54451 0.55216 0.35705 0.0
C1728 C 0.40627 0.00248 0.28469 0.0
C1729 C 0.41854 0.99441 0.31501 0.0
C1730 C 0.42775 0.98584 0.21133 0.0
C1731 C 0.41853 0.99714 0.18225 0.0
N1732 N 0.40197 0.01933 0.19147 0.0
N1733 N 0.44405 0.98134 0.30523 0.0
C1734 C 0.40875 0.00647 0.219 0.0
C1735 C 0.43004 0.98673 0.27789 0.0
N1736 N 0.39112 0.00496 0.31729 0.0
N1737 N 0.43429 0.97423 0.17546 0.0
H1738 H 0.44687 0.98199 0.35341 0.0
H1739 H 0.45457 0.97818 0.27934 0.0
H1740 H 0.43321 0.97358 0.12636 0.0
H1741 H 0.43902 0.96378 0.19463 0.0
H1742 H 0.38052 0.00899 0.29553 0.0
H1743 H 0.3872 1.00037 0.36424 0.0
H1744 H 0.39741 0.02878 0.21763 0.0
H1745 H 0.40268 0.02191 0.14299 0.0
C1746 C 0.59644 1.00083 0.80078 0.0
C1747 C 0.58533 0.00873 0.8376 0.0
C1748 C 0.57206 0.01732 0.74221 0.0
C1749 C 0.5846 0.01097 0.70486 0.0
N1750 N 0.61417 0.00349 0.70168 0.0
N1751 N 0.5671 0.02934 0.8445 0.0
C1752 C 0.59832 0.00458 0.73487 0.0
C1753 C 0.57464 0.0186 0.80864 0.0
N1754 N 0.60504 0.98956 0.82849 0.0
N1755 N 0.55688 0.02108 0.71516 0.0
H1756 H 0.56857 0.03039 0.89351 0.0
H1757 H 0.56115 0.03879 0.82527 0.0
H1758 H 0.55381 0.01996 0.66704 0.0
H1759 H 0.54576 0.02327 0.74129 0.0
H1760 H 0.61086 0.98114 0.80256 0.0
H1761 H 0.60475 0.98728 0.87706 0.0
H1762 H 0.62577 1.0008 0.72302 0.0
H1763 H 0.6175 0.0079 0.65442 0.0
C1764 C 0.99989 0.59688 0.72738 0.0
C1765 C 1.0007 0.57995 0.69456 0.0
C1766 C 0.99958 0.56235 0.79469 0.0
C1767 C 1.00091 0.58031 0.82746 0.0
N1768 N 0.00677 0.61671 0.8252 0.0
N1769 N 0.00516 0.54859 0.69621 0.0
C1770 C 1.00228 0.59817 0.79394 0.0
C1771 C 1.00166 0.56324 0.72806 0.0
N1772 N 0.99582 0.61114 0.69555 0.0
N1773 N 0.99565 0.54417 0.82719 0.0
H1774 H 0.00723 0.54909 0.64741 0.0
H1775 H 0.00807 0.53728 0.71846 0.0
H1776 H 0.99354 0.5428 0.87599 0.0
H1777 H 0.99244 0.52978 0.80545 0.0
H1778 H 0.99255 0.62217 0.71815 0.0
H1779 H 0.99379 0.61074 0.64681 0.0
H1780 H 0.01042 0.63105 0.80216 0.0
H1781 H 0.00873 0.61841 0.87397 0.0
C1782 C 0.40748 0.40583 0.72319 0.0
C1783 C 0.42568 0.4223 0.69061 0.0
C1784 C 0.44046 0.44182 0.7896 0.0
C1785 C 0.42311 0.42474 0.8231 0.0
N1786 N 0.38962 0.39072 0.82327 0.0
N1787 N 0.46179 0.45337 0.69468 0.0
C1788 C 0.40649 0.40675 0.79026 0.0
C1789 C 0.44283 0.43948 0.72431 0.0
N1790 N 0.39132 0.38919 0.68992 0.0
N1791 N 0.45449 0.46071 0.81936 0.0
H1792 H 0.46445 0.45307 0.64665 0.0
H1793 H 0.47579 0.46413 0.71875 0.0
H1794 H 0.45415 0.46337 0.86736 0.0
H1795 H 0.46544 0.47468 0.79542 0.0
H1796 H 0.37649 0.37791 0.70881 0.0
H1797 H 0.39244 0.38669 0.64197 0.0
H1798 H 0.37818 0.37599 0.80419 0.0
H1799 H 0.38707 0.39186 0.87117 0.0
loop_
_geom_bond_atom_site_label_1
_geom_bond_atom_site_label_2
_geom_bond_distance
_geom_bond_site_symmetry_2
_ccdc_geom_bond_type
C0 O2 1.247 . S
C0 O4 1.258 . S
C1 O8 1.247 . S
C1 O9 1.258 . S
O2 C0 1.247 . S
O2 Zn3 2.028 . S
Zn3 O2 2.028 . S
Zn3 O7 2.035 . S
Zn3 O9 2.035 . S
Zn3 O10 2.028 . S
O4 C0 1.258 . S
O4 Zn5 2.035 . S
Zn5 O4 2.035 . S
Zn5 O6 2.028 . S
Zn5 O8 2.028 . S
Zn5 O11 2.035 . S
O6 Zn5 2.028 . S
O6 C12 1.247 . S
O7 Zn3 2.035 . S
O7 C12 1.258 . S
O8 C1 1.247 . S
O8 Zn5 2.028 . S
O9 C1 1.258 . S
O9 Zn3 2.035 . S
O10 Zn3 2.028 . S
O10 C13 1.247 . S
O11 Zn5 2.035 . S
O11 C13 1.258 . S
C12 O6 1.247 . S
C12 O7 1.258 . S
C13 O10 1.247 . S
C13 O11 1.258 . S
C14 O16 1.247 . S
C14 O18 1.258 . S
C15 O22 1.247 . S
C15 O23 1.258 . S
O16 C14 1.247 . S
O16 Zn17 2.028 . S
Zn17 O16 2.028 . S
Zn17 O21 2.035 . S
Zn17 O23 2.035 . S
Zn17 O24 2.028 . S
O18 C14 1.258 . S
O18 Zn19 2.035 . S
Zn19 O18 2.035 . S
Zn19 O20 2.028 . S
Zn19 O22 2.028 . S
Zn19 O25 2.035 . S
O20 Zn19 2.028 . S
O20 C26 1.247 . S
O21 Zn17 2.035 . S
O21 C26 1.258 . S
O22 C15 1.247 . S
O22 Zn19 2.028 . S
O23 C15 1.258 . S
O23 Zn17 2.035 . S
O24 Zn17 2.028 . S
O24 C27 1.247 . S
O25 Zn19 2.035 . S
O25 C27 1.258 . S
C26 O20 1.247 . S
C26 O21 1.258 . S
C27 O24 1.247 . S
C27 O25 1.258 . S
C28 O30 1.247 . S
C28 O32 1.258 . S
C29 O36 1.247 . S
C29 O37 1.258 . S
O30 C28 1.247 . S
O30 Zn31 2.028 . S
Zn31 O30 2.028 . S
Zn31 O35 2.035 . S
Zn31 O37 2.035 . S
Zn31 O38 2.028 . S
O32 C28 1.258 . S
O32 Zn33 2.035 . S
Zn33 O32 2.035 . S
Zn33 O34 2.028 . S
Zn33 O36 2.028 . S
Zn33 O39 2.035 . S
O34 Zn33 2.028 . S
O34 C40 1.247 . S
O35 Zn31 2.035 . S
O35 C40 1.258 . S
O36 C29 1.247 . S
O36 Zn33 2.028 . S
O37 C29 1.258 . S
O37 Zn31 2.035 . S
O38 Zn31 2.028 . S
O38 C41 1.247 . S
O39 Zn33 2.035 . S
O39 C41 1.258 . S
C40 O34 1.247 . S
C40 O35 1.258 . S
C41 O38 1.247 . S
C41 O39 1.258 . S
C42 O44 1.247 . S
C42 O46 1.258 . S
C43 O50 1.247 . S
C43 O51 1.258 . S
O44 C42 1.247 . S
O44 Zn45 2.028 . S
Zn45 O44 2.028 . S
Zn45 O49 2.035 . S
Zn45 O51 2.035 . S
Zn45 O52 2.028 . S
O46 C42 1.258 . S
O46 Zn47 2.035 . S
Zn47 O46 2.035 . S
Zn47 O48 2.028 . S
Zn47 O50 2.028 . S
Zn47 O53 2.035 . S
O48 Zn47 2.028 . S
O48 C54 1.247 . S
O49 Zn45 2.035 . S
O49 C54 1.258 . S
O50 C43 1.247 . S
O50 Zn47 2.028 . S
O51 C43 1.258 . S
O51 Zn45 2.035 . S
O52 Zn45 2.028 . S
O52 C55 1.247 . S
O53 Zn47 2.035 . S
O53 C55 1.258 . S
C54 O48 1.247 . S
C54 O49 1.258 . S
C55 O52 1.247 . S
C55 O53 1.258 . S
C56 O58 1.247 . S
C56 O60 1.258 . S
C57 O64 1.247 . S
C57 O65 1.258 . S
O58 C56 1.247 . S
O58 Zn59 2.028 . S
Zn59 O58 2.028 . S
Zn59 O63 2.035 . S
Zn59 O65 2.035 . S
Zn59 O66 2.028 . S
O60 C56 1.258 . S
O60 Zn61 2.035 . S
Zn61 O60 2.035 . S
Zn61 O62 2.028 . S
Zn61 O64 2.028 . S
Zn61 O67 2.035 . S
O62 Zn61 2.028 . S
O62 C68 1.247 . S
O63 Zn59 2.035 . S
O63 C68 1.258 . S
O64 C57 1.247 . S
O64 Zn61 2.028 . S
O65 C57 1.258 . S
O65 Zn59 2.035 . S
O66 Zn59 2.028 . S
O66 C69 1.247 . S
O67 Zn61 2.035 . S
O67 C69 1.258 . S
C68 O62 1.247 . S
C68 O63 1.258 . S
C69 O66 1.247 . S
C69 O67 1.258 . S
C70 O72 1.247 . S
C70 O74 1.258 . S
C71 O78 1.247 . S
C71 O79 1.258 . S
O72 C70 1.247 . S
O72 Zn73 2.028 . S
Zn73 O72 2.028 . S
Zn73 O77 2.035 . S
Zn73 O79 2.035 . S
Zn73 O80 2.028 . S
O74 C70 1.258 . S
O74 Zn75 2.035 . S
Zn75 O74 2.035 . S
Zn75 O76 2.028 . S
Zn75 O78 2.028 . S
Zn75 O81 2.035 . S
O76 Zn75 2.028 . S
O76 C82 1.247 . S
O77 Zn73 2.035 . S
O77 C82 1.258 . S
O78 C71 1.247 . S
O78 Zn75 2.028 . S
O79 C71 1.258 . S
O79 Zn73 2.035 . S
O80 Zn73 2.028 . S
O80 C83 1.247 . S
O81 Zn75 2.035 . S
O81 C83 1.258 . S
C82 O76 1.247 . S
C82 O77 1.258 . S
C83 O80 1.247 . S
C83 O81 1.258 . S
C84 O86 1.247 . S
C84 O88 1.258 . S
C85 O92 1.247 . S
C85 O93 1.258 . S
O86 C84 1.247 . S
O86 Zn87 2.028 . S
Zn87 O86 2.028 . S
Zn87 O91 2.035 . S
Zn87 O93 2.035 . S
Zn87 O94 2.028 . S
O88 C84 1.258 . S
O88 Zn89 2.035 . S
Zn89 O88 2.035 . S
Zn89 O90 2.028 . S
Zn89 O92 2.028 . S
Zn89 O95 2.035 . S
O90 Zn89 2.028 . S
O90 C96 1.247 . S
O91 Zn87 2.035 . S
O91 C96 1.258 . S
O92 C85 1.247 . S
O92 Zn89 2.028 . S
O93 C85 1.258 . S
O93 Zn87 2.035 . S
O94 Zn87 2.028 . S
O94 C97 1.247 . S
O95 Zn89 2.035 . S
O95 C97 1.258 . S
C96 O90 1.247 . S
C96 O91 1.258 . S
C97 O94 1.247 . S
C97 O95 1.258 . S
C98 O100 1.247 . S
C98 O102 1.258 . S
C99 O106 1.247 . S
C99 O107 1.258 . S
O100 C98 1.247 . S
O100 Zn101 2.028 . S
Zn101 O100 2.028 . S
Zn101 O105 2.035 . S
Zn101 O107 2.035 . S
Zn101 O108 2.028 . S
O102 C98 1.258 . S
O102 Zn103 2.035 . S
Zn103 O102 2.035 . S
Zn103 O104 2.028 . S
Zn103 O106 2.028 . S
Zn103 O109 2.035 . S
O104 Zn103 2.028 . S
O104 C110 1.247 . S
O105 Zn101 2.035 . S
O105 C110 1.258 . S
O106 C99 1.247 . S
O106 Zn103 2.028 . S
O107 C99 1.258 . S
O107 Zn101 2.035 . S
O108 Zn101 2.028 . S
O108 C111 1.247 . S
O109 Zn103 2.035 . S
O109 C111 1.258 . S
C110 O104 1.247 . S
C110 O105 1.258 . S
C111 O108 1.247 . S
C111 O109 1.258 . S
C112 O114 1.247 . S
C112 O116 1.258 . S
C113 O120 1.247 . S
C113 O121 1.258 . S
O114 C112 1.247 . S
O114 Zn115 2.028 . S
Zn115 O114 2.028 . S
Zn115 O119 2.035 . S
Zn115 O121 2.035 . S
Zn115 O122 2.028 . S
O116 C112 1.258 . S
O116 Zn117 2.035 . S
Zn117 O116 2.035 . S
Zn117 O118 2.028 . S
Zn117 O120 2.028 . S
Zn117 O123 2.035 . S
O118 Zn117 2.028 . S
O118 C124 1.247 . S
O119 Zn115 2.035 . S
O119 C124 1.258 . S
O120 C113 1.247 . S
O120 Zn117 2.028 . S
O121 C113 1.258 . S
O121 Zn115 2.035 . S
O122 Zn115 2.028 . S
O122 C125 1.247 . S
O123 Zn117 2.035 . S
O123 C125 1.258 . S
C124 O118 1.247 . S
C124 O119 1.258 . S
C125 O122 1.247 . S
C125 O123 1.258 . S
C126 O128 1.247 . S
C126 O130 1.258 . S
C127 O134 1.247 . S
C127 O135 1.258 . S
O128 C126 1.247 . S
O128 Zn129 2.028 . S
Zn129 O128 2.028 . S
Zn129 O133 2.035 . S
Zn129 O135 2.035 . S
Zn129 O136 2.028 . S
O130 C126 1.258 . S
O130 Zn131 2.035 . S
Zn131 O130 2.035 . S
Zn131 O132 2.028 . S
Zn131 O134 2.028 . S
Zn131 O137 2.035 . S
O132 Zn131 2.028 . S
O132 C138 1.247 . S
O133 Zn129 2.035 . S
O133 C138 1.258 . S
O134 C127 1.247 . S
O134 Zn131 2.028 . S
O135 C127 1.258 . S
O135 Zn129 2.035 . S
O136 Zn129 2.028 . S
O136 C139 1.247 . S
O137 Zn131 2.035 . S
O137 C139 1.258 . S
C138 O132 1.247 . S
C138 O133 1.258 . S
C139 O136 1.247 . S
C139 O137 1.258 . S
C140 O142 1.247 . S
C140 O144 1.258 . S
C141 O148 1.247 . S
C141 O149 1.258 . S
O142 C140 1.247 . S
O142 Zn143 2.028 . S
Zn143 O142 2.028 . S
Zn143 O147 2.035 . S
Zn143 O149 2.035 . S
Zn143 O150 2.028 . S
O144 C140 1.258 . S
O144 Zn145 2.035 . S
Zn145 O144 2.035 . S
Zn145 O146 2.028 . S
Zn145 O148 2.028 . S
Zn145 O151 2.035 . S
O146 Zn145 2.028 . S
O146 C152 1.247 . S
O147 Zn143 2.035 . S
O147 C152 1.258 . S
O148 C141 1.247 . S
O148 Zn145 2.028 . S
O149 C141 1.258 . S
O149 Zn143 2.035 . S
O150 Zn143 2.028 . S
O150 C153 1.247 . S
O151 Zn145 2.035 . S
O151 C153 1.258 . S
C152 O146 1.247 . S
C152 O147 1.258 . S
C153 O150 1.247 . S
C153 O151 1.258 . S
C154 O156 1.247 . S
C154 O158 1.258 . S
C155 O162 1.247 . S
C155 O163 1.258 . S
O156 C154 1.247 . S
O156 Zn157 2.028 . S
Zn157 O156 2.028 . S
Zn157 O161 2.035 . S
Zn157 O163 2.035 . S
Zn157 O164 2.028 . S
O158 C154 1.258 . S
O158 Zn159 2.035 . S
Zn159 O158 2.035 . S
Zn159 O160 2.028 . S
Zn159 O162 2.028 . S
Zn159 O165 2.035 . S
O160 Zn159 2.028 . S
O160 C166 1.247 . S
O161 Zn157 2.035 . S
O161 C166 1.258 . S
O162 C155 1.247 . S
O162 Zn159 2.028 . S
O163 C155 1.258 . S
O163 Zn157 2.035 . S
O164 Zn157 2.028 . S
O164 C167 1.247 . S
O165 Zn159 2.035 . S
O165 C167 1.258 . S
C166 O160 1.247 . S
C166 O161 1.258 . S
C167 O164 1.247 . S
C167 O165 1.258 . S
C168 O170 1.247 . S
C168 O172 1.258 1_455 S
C169 O176 1.247 1_455 S
C169 O177 1.258 . S
O170 C168 1.247 . S
O170 Zn171 2.028 . S
Zn171 O170 2.028 . S
Zn171 O175 2.035 . S
Zn171 O177 2.035 . S
Zn171 O178 2.028 . S
O172 C168 1.258 1_655 S
O172 Zn173 2.035 . S
Zn173 O172 2.035 . S
Zn173 O174 2.028 . S
Zn173 O176 2.028 . S
Zn173 O179 2.035 . S
O174 Zn173 2.028 . S
O174 C180 1.247 1_655 S
O175 Zn171 2.035 . S
O175 C180 1.258 . S
O176 C169 1.247 1_655 S
O176 Zn173 2.028 . S
O177 C169 1.258 . S
O177 Zn171 2.035 . S
O178 Zn171 2.028 . S
O178 C181 1.247 1_455 S
O179 Zn173 2.035 . S
O179 C181 1.258 . S
C180 O174 1.247 1_455 S
C180 O175 1.258 . S
C181 O178 1.247 1_655 S
C181 O179 1.258 . S
C182 O184 1.247 . S
C182 O186 1.258 . S
C183 O190 1.247 . S
C183 O191 1.258 . S
O184 C182 1.247 . S
O184 Zn185 2.028 . S
Zn185 O184 2.028 . S
Zn185 O189 2.035 . S
Zn185 O191 2.035 . S
Zn185 O192 2.028 . S
O186 C182 1.258 . S
O186 Zn187 2.035 . S
Zn187 O186 2.035 . S
Zn187 O188 2.028 . S
Zn187 O190 2.028 . S
Zn187 O193 2.035 . S
O188 Zn187 2.028 . S
O188 C194 1.247 . S
O189 Zn185 2.035 . S
O189 C194 1.258 . S
O190 C183 1.247 . S
O190 Zn187 2.028 . S
O191 C183 1.258 . S
O191 Zn185 2.035 . S
O192 Zn185 2.028 . S
O192 C195 1.247 . S
O193 Zn187 2.035 . S
O193 C195 1.258 . S
C194 O188 1.247 . S
C194 O189 1.258 . S
C195 O192 1.247 . S
C195 O193 1.258 . S
C196 O198 1.247 . S
C196 O200 1.258 1_565 S
C197 O204 1.247 1_565 S
C197 O205 1.258 . S
O198 C196 1.247 . S
O198 Zn199 2.028 . S
Zn199 O198 2.028 . S
Zn199 O203 2.035 . S
Zn199 O205 2.035 . S
Zn199 O206 2.028 . S
O200 C196 1.258 1_545 S
O200 Zn201 2.035 . S
Zn201 O200 2.035 . S
Zn201 O202 2.028 . S
Zn201 O204 2.028 . S
Zn201 O207 2.035 . S
O202 Zn201 2.028 . S
O202 C208 1.247 . S
O203 Zn199 2.035 . S
O203 C208 1.258 1_565 S
O204 C197 1.247 1_545 S
O204 Zn201 2.028 . S
O205 C197 1.258 . S
O205 Zn199 2.035 . S
O206 Zn199 2.028 . S
O206 C209 1.247 . S
O207 Zn201 2.035 . S
O207 C209 1.258 1_545 S
C208 O202 1.247 . S
C208 O203 1.258 1_545 S
C209 O206 1.247 . S
C209 O207 1.258 1_565 S
C210 O212 1.247 . S
C210 O214 1.258 . S
C211 O218 1.247 . S
C211 O219 1.258 . S
O212 C210 1.247 . S
O212 Zn213 2.028 . S
Zn213 O212 2.028 . S
Zn213 O217 2.035 . S
Zn213 O219 2.035 . S
Zn213 O220 2.028 . S
O214 C210 1.258 . S
O214 Zn215 2.035 . S
Zn215 O214 2.035 . S
Zn215 O216 2.028 . S
Zn215 O218 2.028 . S
Zn215 O221 2.035 . S
O216 Zn215 2.028 . S
O216 C222 1.247 . S
O217 Zn213 2.035 . S
O217 C222 1.258 . S
O218 C211 1.247 . S
O218 Zn215 2.028 . S
O219 C211 1.258 . S
O219 Zn213 2.035 . S
O220 Zn213 2.028 . S
O220 C223 1.247 . S
O221 Zn215 2.035 . S
O221 C223 1.258 . S
C222 O216 1.247 . S
C222 O217 1.258 . S
C223 O220 1.247 . S
C223 O221 1.258 . S
C224 O226 1.247 . S
C224 O228 1.258 . S
C225 O232 1.247 . S
C225 O233 1.258 . S
O226 C224 1.247 . S
O226 Zn227 2.028 . S
Zn227 O226 2.028 . S
Zn227 O231 2.035 . S
Zn227 O233 2.035 . S
Zn227 O234 2.028 . S
O228 C224 1.258 . S
O228 Zn229 2.035 . S
Zn229 O228 2.035 . S
Zn229 O230 2.028 . S
Zn229 O232 2.028 . S
Zn229 O235 2.035 . S
O230 Zn229 2.028 . S
O230 C236 1.247 . S
O231 Zn227 2.035 . S
O231 C236 1.258 . S
O232 C225 1.247 . S
O232 Zn229 2.028 . S
O233 C225 1.258 . S
O233 Zn227 2.035 . S
O234 Zn227 2.028 . S
O234 C237 1.247 . S
O235 Zn229 2.035 . S
O235 C237 1.258 . S
C236 O230 1.247 . S
C236 O231 1.258 . S
C237 O234 1.247 . S
C237 O235 1.258 . S
C238 O240 1.247 . S
C238 O242 1.258 . S
C239 O246 1.247 . S
C239 O247 1.258 . S
O240 C238 1.247 . S
O240 Zn241 2.028 . S
Zn241 O240 2.028 . S
Zn241 O245 2.035 . S
Zn241 O247 2.035 . S
Zn241 O248 2.028 . S
O242 C238 1.258 . S
O242 Zn243 2.035 . S
Zn243 O242 2.035 . S
Zn243 O244 2.028 . S
Zn243 O246 2.028 . S
Zn243 O249 2.035 . S
O244 Zn243 2.028 . S
O244 C250 1.247 . S
O245 Zn241 2.035 . S
O245 C250 1.258 . S
O246 C239 1.247 . S
O246 Zn243 2.028 . S
O247 C239 1.258 . S
O247 Zn241 2.035 . S
O248 Zn241 2.028 . S
O248 C251 1.247 . S
O249 Zn243 2.035 . S
O249 C251 1.258 . S
C250 O244 1.247 . S
C250 O245 1.258 . S
C251 O248 1.247 . S
C251 O249 1.258 . S
C252 O254 1.247 . S
C252 O256 1.258 . S
C253 O260 1.247 . S
C253 O261 1.258 . S
O254 C252 1.247 . S
O254 Zn255 2.028 . S
Zn255 O254 2.028 . S
Zn255 O259 2.035 . S
Zn255 O261 2.035 . S
Zn255 O262 2.028 . S
O256 C252 1.258 . S
O256 Zn257 2.035 . S
Zn257 O256 2.035 . S
Zn257 O258 2.028 . S
Zn257 O260 2.028 . S
Zn257 O263 2.035 . S
O258 Zn257 2.028 . S
O258 C264 1.247 . S
O259 Zn255 2.035 . S
O259 C264 1.258 . S
O260 C253 1.247 . S
O260 Zn257 2.028 . S
O261 C253 1.258 . S
O261 Zn255 2.035 . S
O262 Zn255 2.028 . S
O262 C265 1.247 . S
O263 Zn257 2.035 . S
O263 C265 1.258 . S
C264 O258 1.247 . S
C264 O259 1.258 . S
C265 O262 1.247 . S
C265 O263 1.258 . S
C266 O268 1.247 . S
C266 O270 1.258 . S
C267 O274 1.247 . S
C267 O275 1.258 . S
O268 C266 1.247 . S
O268 Zn269 2.028 . S
Zn269 O268 2.028 . S
Zn269 O273 2.035 . S
Zn269 O275 2.035 . S
Zn269 O276 2.028 . S
O270 C266 1.258 . S
O270 Zn271 2.035 . S
Zn271 O270 2.035 . S
Zn271 O272 2.028 . S
Zn271 O274 2.028 . S
Zn271 O277 2.035 . S
O272 Zn271 2.028 . S
O272 C278 1.247 . S
O273 Zn269 2.035 . S
O273 C278 1.258 . S
O274 C267 1.247 . S
O274 Zn271 2.028 . S
O275 C267 1.258 . S
O275 Zn269 2.035 . S
O276 Zn269 2.028 . S
O276 C279 1.247 . S
O277 Zn271 2.035 . S
O277 C279 1.258 . S
C278 O272 1.247 . S
C278 O273 1.258 . S
C279 O276 1.247 . S
C279 O277 1.258 . S
C280 O282 1.247 . S
C280 O284 1.258 . S
C281 O288 1.247 . S
C281 O289 1.258 . S
O282 C280 1.247 . S
O282 Zn283 2.028 . S
Zn283 O282 2.028 . S
Zn283 O287 2.035 . S
Zn283 O289 2.035 . S
Zn283 O290 2.028 . S
O284 C280 1.258 . S
O284 Zn285 2.035 . S
Zn285 O284 2.035 . S
Zn285 O286 2.028 . S
Zn285 O288 2.028 . S
Zn285 O291 2.035 . S
O286 Zn285 2.028 . S
O286 C292 1.247 . S
O287 Zn283 2.035 . S
O287 C292 1.258 . S
O288 C281 1.247 . S
O288 Zn285 2.028 . S
O289 C281 1.258 . S
O289 Zn283 2.035 . S
O290 Zn283 2.028 . S
O290 C293 1.247 . S
O291 Zn285 2.035 . S
O291 C293 1.258 . S
C292 O286 1.247 . S
C292 O287 1.258 . S
C293 O290 1.247 . S
C293 O291 1.258 . S
C294 O296 1.247 1_565 S
C294 O298 1.258 . S
C295 O302 1.247 . S
C295 O303 1.258 1_565 S
O296 C294 1.247 1_545 S
O296 Zn297 2.016 1_556 S
Zn297 O296 2.016 1_554 S
Zn297 O301 2.036 . S
Zn297 O303 2.047 . S
Zn297 O304 2.027 1_554 S
O298 C294 1.258 . S
O298 Zn299 2.043 . S
Zn299 O298 2.043 . S
Zn299 O300 2.027 1_556 S
Zn299 O302 2.020 1_556 S
Zn299 O305 2.036 . S
O300 Zn299 2.027 1_554 S
O300 C306 1.247 1_565 S
O301 Zn297 2.036 . S
O301 C306 1.258 . S
O302 C295 1.247 . S
O302 Zn299 2.020 1_554 S
O303 C295 1.258 1_545 S
O303 Zn297 2.047 . S
O304 Zn297 2.027 1_556 S
O304 C307 1.247 1_545 S
O305 Zn299 2.036 . S
O305 C307 1.258 . S
C306 O300 1.247 1_545 S
C306 O301 1.258 . S
C307 O304 1.247 1_565 S
C307 O305 1.258 . S
C308 O310 1.247 . S
C308 O312 1.258 1_455 S
C309 O316 1.247 . S
C309 O317 1.258 1_655 S
O310 C308 1.247 . S
O310 Zn311 2.028 . S
Zn311 O310 2.028 . S
Zn311 O315 2.035 1_556 S
Zn311 O317 2.035 1_556 S
Zn311 O318 2.028 . S
O312 C308 1.258 1_655 S
O312 Zn313 2.035 1_556 S
Zn313 O312 2.035 1_554 S
Zn313 O314 2.028 . S
Zn313 O316 2.028 . S
Zn313 O319 2.035 1_554 S
O314 Zn313 2.028 . S
O314 C320 1.247 1_655 S
O315 Zn311 2.035 1_554 S
O315 C320 1.258 . S
O316 C309 1.247 . S
O316 Zn313 2.028 . S
O317 C309 1.258 1_455 S
O317 Zn311 2.035 1_554 S
O318 Zn311 2.028 . S
O318 C321 1.247 . S
O319 Zn313 2.035 1_556 S
O319 C321 1.258 1_655 S
C320 O314 1.247 1_455 S
C320 O315 1.258 . S
C321 O318 1.247 . S
C321 O319 1.258 1_455 S
C322 O324 1.247 . S
C322 O326 1.258 . S
C323 O330 1.247 . S
C323 O331 1.258 . S
O324 C322 1.247 . S
O324 Zn325 2.027 1_554 S
Zn325 O324 2.027 1_556 S
Zn325 O329 2.042 . S
Zn325 O331 2.036 . S
Zn325 O332 2.021 1_556 S
O326 C322 1.258 . S
O326 Zn327 2.036 . S
Zn327 O326 2.036 . S
Zn327 O328 2.016 1_554 S
Zn327 O330 2.027 1_554 S
Zn327 O333 2.047 . S
O328 Zn327 2.016 1_556 S
O328 C334 1.247 . S
O329 Zn325 2.042 . S
O329 C334 1.258 . S
O330 C323 1.247 . S
O330 Zn327 2.027 1_556 S
O331 C323 1.258 . S
O331 Zn325 2.036 . S
O332 Zn325 2.021 1_554 S
O332 C335 1.247 . S
O333 Zn327 2.047 . S
O333 C335 1.258 . S
C334 O328 1.247 . S
C334 O329 1.258 . S
C335 O332 1.247 . S
C335 O333 1.258 . S
C336 O338 1.247 . S
C336 O340 1.258 . S
C337 O344 1.247 . S
C337 O345 1.258 . S
O338 C336 1.247 . S
O338 Zn339 2.028 . S
Zn339 O338 2.028 . S
Zn339 O343 2.035 . S
Zn339 O345 2.035 . S
Zn339 O346 2.028 . S
O340 C336 1.258 . S
O340 Zn341 2.035 . S
Zn341 O340 2.035 . S
Zn341 O342 2.028 . S
Zn341 O344 2.028 . S
Zn341 O347 2.035 . S
O342 Zn341 2.028 . S
O342 C348 1.247 . S
O343 Zn339 2.035 . S
O343 C348 1.258 . S
O344 C337 1.247 . S
O344 Zn341 2.028 . S
O345 C337 1.258 . S
O345 Zn339 2.035 . S
O346 Zn339 2.028 . S
O346 C349 1.247 . S
O347 Zn341 2.035 . S
O347 C349 1.258 . S
C348 O342 1.247 . S
C348 O343 1.258 . S
C349 O346 1.247 . S
C349 O347 1.258 . S
C350 O352 1.247 . S
C350 O354 1.258 . S
C351 O358 1.247 . S
C351 O359 1.258 . S
O352 C350 1.247 . S
O352 Zn353 2.028 . S
Zn353 O352 2.028 . S
Zn353 O357 2.035 . S
Zn353 O359 2.035 . S
Zn353 O360 2.028 . S
O354 C350 1.258 . S
O354 Zn355 2.035 . S
Zn355 O354 2.035 . S
Zn355 O356 2.028 . S
Zn355 O358 2.028 . S
Zn355 O361 2.035 . S
O356 Zn355 2.028 . S
O356 C362 1.247 . S
O357 Zn353 2.035 . S
O357 C362 1.258 . S
O358 C351 1.247 . S
O358 Zn355 2.028 . S
O359 C351 1.258 . S
O359 Zn353 2.035 . S
O360 Zn353 2.028 . S
O360 C363 1.247 . S
O361 Zn355 2.035 . S
O361 C363 1.258 . S
C362 O356 1.247 . S
C362 O357 1.258 . S
C363 O360 1.247 . S
C363 O361 1.258 . S
C364 O366 1.247 . S
C364 O368 1.258 . S
C365 O372 1.247 . S
C365 O373 1.258 . S
O366 C364 1.247 . S
O366 Zn367 2.028 . S
Zn367 O366 2.028 . S
Zn367 O371 2.035 . S
Zn367 O373 2.035 . S
Zn367 O374 2.028 . S
O368 C364 1.258 . S
O368 Zn369 2.035 . S
Zn369 O368 2.035 . S
Zn369 O370 2.028 . S
Zn369 O372 2.028 . S
Zn369 O375 2.035 . S
O370 Zn369 2.028 . S
O370 C376 1.247 . S
O371 Zn367 2.035 . S
O371 C376 1.258 . S
O372 C365 1.247 . S
O372 Zn369 2.028 . S
O373 C365 1.258 . S
O373 Zn367 2.035 . S
O374 Zn367 2.028 . S
O374 C377 1.247 . S
O375 Zn369 2.035 . S
O375 C377 1.258 . S
C376 O370 1.247 . S
C376 O371 1.258 . S
C377 O374 1.247 . S
C377 O375 1.258 . S
C378 O380 1.247 . S
C378 O382 1.258 1_545 S
C379 O386 1.247 1_545 S
C379 O387 1.258 . S
O380 C378 1.247 . S
O380 Zn381 2.028 . S
Zn381 O380 2.028 . S
Zn381 O385 2.035 1_554 S
Zn381 O387 2.035 1_554 S
Zn381 O388 2.028 . S
O382 C378 1.258 1_565 S
O382 Zn383 2.035 1_554 S
Zn383 O382 2.035 1_556 S
Zn383 O384 2.028 . S
Zn383 O386 2.028 . S
Zn383 O389 2.035 1_556 S
O384 Zn383 2.028 . S
O384 C390 1.247 . S
O385 Zn381 2.035 1_556 S
O385 C390 1.258 1_545 S
O386 C379 1.247 1_565 S
O386 Zn383 2.028 . S
O387 C379 1.258 . S
O387 Zn381 2.035 1_556 S
O388 Zn381 2.028 . S
O388 C391 1.247 . S
O389 Zn383 2.035 1_554 S
O389 C391 1.258 1_565 S
C390 O384 1.247 . S
C390 O385 1.258 1_565 S
C391 O388 1.247 . S
C391 O389 1.258 1_545 S
C392 O394 1.247 . S
C392 O396 1.258 1_455 S
C393 O400 1.247 . S
C393 O401 1.258 1_655 S
O394 C392 1.247 . S
O394 Zn395 2.028 . S
Zn395 O394 2.028 . S
Zn395 O399 2.035 1_556 S
Zn395 O401 2.035 1_556 S
Zn395 O402 2.028 . S
O396 C392 1.258 1_655 S
O396 Zn397 2.035 1_556 S
Zn397 O396 2.035 1_554 S
Zn397 O398 2.028 . S
Zn397 O400 2.028 . S
Zn397 O403 2.035 1_554 S
O398 Zn397 2.028 . S
O398 C404 1.247 . S
O399 Zn395 2.035 1_554 S
O399 C404 1.258 1_455 S
O400 C393 1.247 . S
O400 Zn397 2.028 . S
O401 C393 1.258 1_455 S
O401 Zn395 2.035 1_554 S
O402 Zn395 2.028 . S
O402 C405 1.247 1_455 S
O403 Zn397 2.035 1_556 S
O403 C405 1.258 . S
C404 O398 1.247 . S
C404 O399 1.258 1_655 S
C405 O402 1.247 1_655 S
C405 O403 1.258 . S
C406 O408 1.247 . S
C406 O410 1.258 . S
C407 O414 1.247 . S
C407 O415 1.258 . S
O408 C406 1.247 . S
O408 Zn409 2.028 . S
Zn409 O408 2.028 . S
Zn409 O413 2.035 1_554 S
Zn409 O415 2.035 1_554 S
Zn409 O416 2.028 . S
O410 C406 1.258 . S
O410 Zn411 2.035 1_554 S
Zn411 O410 2.035 1_556 S
Zn411 O412 2.028 . S
Zn411 O414 2.028 . S
Zn411 O417 2.035 1_556 S
O412 Zn411 2.028 . S
O412 C418 1.247 . S
O413 Zn409 2.035 1_556 S
O413 C418 1.258 . S
O414 C407 1.247 . S
O414 Zn411 2.028 . S
O415 C407 1.258 . S
O415 Zn409 2.035 1_556 S
O416 Zn409 2.028 . S
O416 C419 1.247 . S
O417 Zn411 2.035 1_554 S
O417 C419 1.258 . S
C418 O412 1.247 . S
C418 O413 1.258 . S
C419 O416 1.247 . S
C419 O417 1.258 . S
C420 O422 1.247 1_655 S
C420 O424 1.258 . S
C421 O428 1.247 . S
C421 O429 1.258 1_655 S
O422 C420 1.247 1_455 S
O422 Zn423 2.028 . S
Zn423 O422 2.028 . S
Zn423 O427 2.035 . S
Zn423 O429 2.035 . S
Zn423 O430 2.028 . S
O424 C420 1.258 . S
O424 Zn425 2.035 . S
Zn425 O424 2.035 . S
Zn425 O426 2.028 . S
Zn425 O428 2.028 . S
Zn425 O431 2.035 . S
O426 Zn425 2.028 . S
O426 C432 1.247 1_655 S
O427 Zn423 2.035 . S
O427 C432 1.258 . S
O428 C421 1.247 . S
O428 Zn425 2.028 . S
O429 C421 1.258 1_455 S
O429 Zn423 2.035 . S
O430 Zn423 2.028 . S
O430 C433 1.247 1_455 S
O431 Zn425 2.035 . S
O431 C433 1.258 . S
C432 O426 1.247 1_455 S
C432 O427 1.258 . S
C433 O430 1.247 1_655 S
C433 O431 1.258 . S
C434 O436 1.247 . S
C434 O438 1.258 . S
C435 O442 1.247 . S
C435 O443 1.258 . S
O436 C434 1.247 . S
O436 Zn437 2.028 . S
Zn437 O436 2.028 . S
Zn437 O441 2.035 . S
Zn437 O443 2.035 . S
Zn437 O444 2.028 . S
O438 C434 1.258 . S
O438 Zn439 2.035 . S
Zn439 O438 2.035 . S
Zn439 O440 2.028 . S
Zn439 O442 2.028 . S
Zn439 O445 2.035 . S
O440 Zn439 2.028 . S
O440 C446 1.247 . S
O441 Zn437 2.035 . S
O441 C446 1.258 . S
O442 C435 1.247 . S
O442 Zn439 2.028 . S
O443 C435 1.258 . S
O443 Zn437 2.035 . S
O444 Zn437 2.028 . S
O444 C447 1.247 . S
O445 Zn439 2.035 . S
O445 C447 1.258 . S
C446 O440 1.247 . S
C446 O441 1.258 . S
C447 O444 1.247 . S
C447 O445 1.258 . S
C448 O450 1.247 . S
C448 O452 1.258 1_545 S
C449 O456 1.247 . S
C449 O457 1.258 1_565 S
O450 C448 1.247 . S
O450 Zn451 2.028 . S
Zn451 O450 2.028 . S
Zn451 O455 2.035 . S
Zn451 O457 2.035 . S
Zn451 O458 2.028 . S
O452 C448 1.258 1_565 S
O452 Zn453 2.035 . S
Zn453 O452 2.035 . S
Zn453 O454 2.028 . S
Zn453 O456 2.028 . S
Zn453 O459 2.035 . S
O454 Zn453 2.028 . S
O454 C460 1.247 1_565 S
O455 Zn451 2.035 . S
O455 C460 1.258 . S
O456 C449 1.247 . S
O456 Zn453 2.028 . S
O457 C449 1.258 1_545 S
O457 Zn451 2.035 . S
O458 Zn451 2.028 . S
O458 C461 1.247 . S
O459 Zn453 2.035 . S
O459 C461 1.258 1_565 S
C460 O454 1.247 1_545 S
C460 O455 1.258 . S
C461 O458 1.247 . S
C461 O459 1.258 1_545 S
C462 O464 1.247 . S
C462 O466 1.258 . S
C463 O470 1.247 . S
C463 O471 1.258 . S
O464 C462 1.247 . S
O464 Zn465 2.028 . S
Zn465 O464 2.028 . S
Zn465 O469 2.035 . S
Zn465 O471 2.035 . S
Zn465 O472 2.028 . S
O466 C462 1.258 . S
O466 Zn467 2.035 . S
Zn467 O466 2.035 . S
Zn467 O468 2.028 . S
Zn467 O470 2.028 . S
Zn467 O473 2.035 . S
O468 Zn467 2.028 . S
O468 C474 1.247 . S
O469 Zn465 2.035 . S
O469 C474 1.258 . S
O470 C463 1.247 . S
O470 Zn467 2.028 . S
O471 C463 1.258 . S
O471 Zn465 2.035 . S
O472 Zn465 2.028 . S
O472 C475 1.247 . S
O473 Zn467 2.035 . S
O473 C475 1.258 . S
C474 O468 1.247 . S
C474 O469 1.258 . S
C475 O472 1.247 . S
C475 O473 1.258 . S
C476 O478 1.247 . S
C476 O480 1.258 . S
C477 O484 1.247 . S
C477 O485 1.258 . S
O478 C476 1.247 . S
O478 Zn479 2.028 . S
Zn479 O478 2.028 . S
Zn479 O483 2.035 . S
Zn479 O485 2.035 . S
Zn479 O486 2.028 . S
O480 C476 1.258 . S
O480 Zn481 2.035 . S
Zn481 O480 2.035 . S
Zn481 O482 2.028 . S
Zn481 O484 2.028 . S
Zn481 O487 2.035 . S
O482 Zn481 2.028 . S
O482 C488 1.247 . S
O483 Zn479 2.035 . S
O483 C488 1.258 . S
O484 C477 1.247 . S
O484 Zn481 2.028 . S
O485 C477 1.258 . S
O485 Zn479 2.035 . S
O486 Zn479 2.028 . S
O486 C489 1.247 . S
O487 Zn481 2.035 . S
O487 C489 1.258 . S
C488 O482 1.247 . S
C488 O483 1.258 . S
C489 O486 1.247 . S
C489 O487 1.258 . S
C490 O492 1.247 . S
C490 O494 1.258 . S
C491 O498 1.247 . S
C491 O499 1.258 . S
O492 C490 1.247 . S
O492 Zn493 2.028 . S
Zn493 O492 2.028 . S
Zn493 O497 2.035 . S
Zn493 O499 2.035 . S
Zn493 O500 2.028 . S
O494 C490 1.258 . S
O494 Zn495 2.035 . S
Zn495 O494 2.035 . S
Zn495 O496 2.028 . S
Zn495 O498 2.028 . S
Zn495 O501 2.035 . S
O496 Zn495 2.028 . S
O496 C502 1.247 . S
O497 Zn493 2.035 . S
O497 C502 1.258 . S
O498 C491 1.247 . S
O498 Zn495 2.028 . S
O499 C491 1.258 . S
O499 Zn493 2.035 . S
O500 Zn493 2.028 . S
O500 C503 1.247 . S
O501 Zn495 2.035 . S
O501 C503 1.258 . S
C502 O496 1.247 . S
C502 O497 1.258 . S
C503 O500 1.247 . S
C503 O501 1.258 . S
C504 C505 1.363 . S
C504 C510 1.379 . S
C504 N512 1.356 . S
C505 C504 1.363 . S
C505 C511 1.363 . S
C506 C507 1.363 . S
C506 C511 1.379 . S
C506 N513 1.356 . S
C507 C506 1.363 . S
C507 C510 1.363 . S
N508 C510 1.356 . S
N508 H520 0.984 . S
N508 H521 0.985 . S
N509 C511 1.356 . S
N509 H514 0.984 . S
N509 H515 0.985 . S
C510 C504 1.379 . S
C510 C507 1.363 . S
C510 N508 1.356 . S
C511 C505 1.363 . S
C511 C506 1.379 . S
C511 N509 1.356 . S
N512 C504 1.356 . S
N512 H518 0.984 . S
N512 H519 0.984 . S
N513 C506 1.356 . S
N513 H516 0.984 . S
N513 H517 0.985 . S
H514 N509 0.984 . S
H515 N509 0.985 . S
H516 N513 0.984 . S
H517 N513 0.985 . S
H518 N512 0.984 . S
H519 N512 0.984 . S
H520 N508 0.984 . S
H521 N508 0.985 . S
C522 C523 1.363 . S
C522 C528 1.379 . S
C522 N530 1.356 . S
C523 C522 1.363 . S
C523 C529 1.363 . S
C524 C525 1.363 . S
C524 C529 1.379 . S
C524 N531 1.356 . S
C525 C524 1.363 . S
C525 C528 1.363 . S
N526 C528 1.356 . S
N526 H538 0.984 . S
N526 H539 0.985 . S
N527 C529 1.356 . S
N527 H532 0.984 . S
N527 H533 0.985 . S
C528 C522 1.379 . S
C528 C525 1.363 . S
C528 N526 1.356 . S
C529 C523 1.363 . S
C529 C524 1.379 . S
C529 N527 1.356 . S
N530 C522 1.356 . S
N530 H536 0.984 . S
N530 H537 0.984 . S
N531 C524 1.356 . S
N531 H534 0.984 . S
N531 H535 0.985 . S
H532 N527 0.984 . S
H533 N527 0.985 . S
H534 N531 0.984 . S
H535 N531 0.985 . S
H536 N530 0.984 . S
H537 N530 0.984 . S
H538 N526 0.984 . S
H539 N526 0.985 . S
C540 C541 1.363 . S
C540 C546 1.379 . S
C540 N548 1.356 . S
C541 C540 1.363 . S
C541 C547 1.363 . S
C542 C543 1.363 . S
C542 C547 1.379 . S
C542 N549 1.356 . S
C543 C542 1.363 . S
C543 C546 1.363 . S
N544 C546 1.356 . S
N544 H556 0.984 . S
N544 H557 0.985 . S
N545 C547 1.356 . S
N545 H550 0.984 . S
N545 H551 0.985 . S
C546 C540 1.379 . S
C546 C543 1.363 . S
C546 N544 1.356 . S
C547 C541 1.363 . S
C547 C542 1.379 . S
C547 N545 1.356 . S
N548 C540 1.356 . S
N548 H554 0.984 . S
N548 H555 0.984 . S
N549 C542 1.356 . S
N549 H552 0.984 . S
N549 H553 0.985 . S
H550 N545 0.984 . S
H551 N545 0.985 . S
H552 N549 0.984 . S
H553 N549 0.985 . S
H554 N548 0.984 . S
H555 N548 0.984 . S
H556 N544 0.984 . S
H557 N544 0.985 . S
C558 C559 1.363 . S
C558 C564 1.379 . S
C558 N566 1.356 . S
C559 C558 1.363 . S
C559 C565 1.363 . S
C560 C561 1.363 . S
C560 C565 1.379 . S
C560 N567 1.356 . S
C561 C560 1.363 . S
C561 C564 1.363 . S
N562 C564 1.356 . S
N562 H574 0.984 . S
N562 H575 0.985 . S
N563 C565 1.353 1_556 S
N563 H568 0.988 . S
N563 H569 0.984 1_556 S
C564 C558 1.379 . S
C564 C561 1.363 . S
C564 N562 1.356 . S
C565 C559 1.363 . S
C565 C560 1.379 . S
C565 N563 1.353 1_554 S
N566 C558 1.356 . S
N566 H572 0.984 . S
N566 H573 0.984 1_554 S
N567 C560 1.356 . S
N567 H570 0.984 . S
N567 H571 0.985 . S
H568 N563 0.988 . S
H569 N563 0.984 1_554 S
H570 N567 0.984 . S
H571 N567 0.985 . S
H572 N566 0.984 . S
H573 N566 0.984 1_556 S
H574 N562 0.984 . S
H575 N562 0.985 . S
C576 C577 1.363 . S
C576 C582 1.379 . S
C576 N584 1.356 . S
C577 C576 1.363 . S
C577 C583 1.363 . S
C578 C579 1.363 . S
C578 C583 1.379 . S
C578 N585 1.356 1_554 S
C579 C578 1.363 . S
C579 C582 1.363 . S
N580 C582 1.356 . S
N580 H592 0.984 . S
N580 H593 0.985 1_554 S
N581 C583 1.356 . S
N581 H586 0.984 . S
N581 H587 0.985 . S
C582 C576 1.379 . S
C582 C579 1.363 . S
C582 N580 1.356 . S
C583 C577 1.363 . S
C583 C578 1.379 . S
C583 N581 1.356 . S
N584 C576 1.356 . S
N584 H590 0.984 . S
N584 H591 0.984 . S
N585 C578 1.356 1_556 S
N585 H588 0.984 . S
N585 H589 0.985 . S
H586 N581 0.984 . S
H587 N581 0.985 . S
H588 N585 0.984 . S
H589 N585 0.985 . S
H590 N584 0.984 . S
H591 N584 0.984 . S
H592 N580 0.984 . S
H593 N580 0.985 1_556 S
C594 C595 1.363 . S
C594 C600 1.379 . S
C594 N602 1.356 . S
C595 C594 1.363 . S
C595 C601 1.363 . S
C596 C597 1.363 . S
C596 C601 1.379 . S
C596 N603 1.356 1_554 S
C597 C596 1.363 . S
C597 C600 1.363 . S
N598 C600 1.356 . S
N598 H610 0.984 . S
N598 H611 0.985 1_554 S
N599 C601 1.356 . S
N599 H604 0.984 . S
N599 H605 0.985 . S
C600 C594 1.379 . S
C600 C597 1.363 . S
C600 N598 1.356 . S
C601 C595 1.363 . S
C601 C596 1.379 . S
C601 N599 1.356 . S
N602 C594 1.356 . S
N602 H608 0.984 . S
N602 H609 0.984 . S
N603 C596 1.356 1_556 S
N603 H606 0.984 . S
N603 H607 0.985 . S
H604 N599 0.984 . S
H605 N599 0.985 . S
H606 N603 0.984 . S
H607 N603 0.985 . S
H608 N602 0.984 . S
H609 N602 0.984 . S
H610 N598 0.984 . S
H611 N598 0.985 1_556 S
C612 C613 1.363 . S
C612 C618 1.379 . S
C612 N620 1.356 . S
C613 C612 1.363 . S
C613 C619 1.363 . S
C614 C615 1.363 . S
C614 C619 1.379 . S
C614 N621 1.356 . S
C615 C614 1.363 . S
C615 C618 1.363 . S
N616 C618 1.356 . S
N616 H628 0.984 . S
N616 H629 0.985 . S
N617 C619 1.356 . S
N617 H622 0.984 . S
N617 H623 0.985 . S
C618 C612 1.379 . S
C618 C615 1.363 . S
C618 N616 1.356 . S
C619 C613 1.363 . S
C619 C614 1.379 . S
C619 N617 1.356 . S
N620 C612 1.356 . S
N620 H626 0.984 . S
N620 H627 0.984 . S
N621 C614 1.356 . S
N621 H624 0.984 . S
N621 H625 0.985 . S
H622 N617 0.984 . S
H623 N617 0.985 . S
H624 N621 0.984 . S
H625 N621 0.985 . S
H626 N620 0.984 . S
H627 N620 0.984 . S
H628 N616 0.984 . S
H629 N616 0.985 . S
C630 C631 1.363 . S
C630 C636 1.379 . S
C630 N638 1.356 . S
C631 C630 1.363 . S
C631 C637 1.363 . S
C632 C633 1.363 . S
C632 C637 1.379 . S
C632 N639 1.356 . S
C633 C632 1.363 . S
C633 C636 1.363 . S
N634 C636 1.356 . S
N634 H646 0.984 . S
N634 H647 0.985 . S
N635 C637 1.356 . S
N635 H640 0.984 . S
N635 H641 0.985 . S
C636 C630 1.379 . S
C636 C633 1.363 . S
C636 N634 1.356 . S
C637 C631 1.363 . S
C637 C632 1.379 . S
C637 N635 1.356 . S
N638 C630 1.356 . S
N638 H644 0.984 . S
N638 H645 0.984 . S
N639 C632 1.356 . S
N639 H642 0.984 . S
N639 H643 0.985 . S
H640 N635 0.984 . S
H641 N635 0.985 . S
H642 N639 0.984 . S
H643 N639 0.985 . S
H644 N638 0.984 . S
H645 N638 0.984 . S
H646 N634 0.984 . S
H647 N634 0.985 . S
C648 C649 1.363 . S
C648 C654 1.379 . S
C648 N656 1.356 . S
C649 C648 1.363 . S
C649 C655 1.363 . S
C650 C651 1.363 . S
C650 C655 1.379 . S
C650 N657 1.356 . S
C651 C650 1.363 . S
C651 C654 1.363 . S
N652 C654 1.356 . S
N652 H664 0.984 . S
N652 H665 0.985 . S
N653 C655 1.356 . S
N653 H658 0.984 . S
N653 H659 0.985 . S
C654 C648 1.379 . S
C654 C651 1.363 . S
C654 N652 1.356 . S
C655 C649 1.363 . S
C655 C650 1.379 . S
C655 N653 1.356 . S
N656 C648 1.356 . S
N656 H662 0.984 . S
N656 H663 0.984 . S
N657 C650 1.356 . S
N657 H660 0.984 . S
N657 H661 0.985 . S
H658 N653 0.984 . S
H659 N653 0.985 . S
H660 N657 0.984 . S
H661 N657 0.985 . S
H662 N656 0.984 . S
H663 N656 0.984 . S
H664 N652 0.984 . S
H665 N652 0.985 . S
C666 C667 1.363 . S
C666 C672 1.379 . S
C666 N674 1.356 . S
C667 C666 1.363 . S
C667 C673 1.363 . S
C668 C669 1.363 . S
C668 C673 1.379 . S
C668 N675 1.356 . S
C669 C668 1.363 . S
C669 C672 1.363 . S
N670 C672 1.356 1_554 S
N670 H682 0.984 . S
N670 H683 0.985 . S
N671 C673 1.356 . S
N671 H676 0.984 . S
N671 H677 0.985 . S
C672 C666 1.379 . S
C672 C669 1.363 . S
C672 N670 1.356 1_556 S
C673 C667 1.363 . S
C673 C668 1.379 . S
C673 N671 1.356 . S
N674 C666 1.356 . S
N674 H680 0.984 . S
N674 H681 0.984 . S
N675 C668 1.356 . S
N675 H678 0.984 1_556 S
N675 H679 0.985 . S
H676 N671 0.984 . S
H677 N671 0.985 . S
H678 N675 0.984 1_554 S
H679 N675 0.985 . S
H680 N674 0.984 . S
H681 N674 0.984 . S
H682 N670 0.984 . S
H683 N670 0.985 . S
C684 C685 1.363 . S
C684 C690 1.379 . S
C684 N692 1.369 . S
C685 C684 1.363 . S
C685 C691 1.363 . S
C686 C687 1.363 . S
C686 C691 1.379 . S
C686 N693 1.356 . S
C687 C686 1.363 . S
C687 C690 1.363 . S
N688 C690 1.356 . S
N688 H700 0.984 . S
N688 H701 0.985 . S
N689 C691 1.356 . S
N689 H694 0.984 1_556 S
N689 H695 0.985 . S
C690 C684 1.379 . S
C690 C687 1.363 . S
C690 N688 1.356 . S
C691 C685 1.363 . S
C691 C686 1.379 . S
C691 N689 1.356 . S
N692 C684 1.369 . S
N692 H698 0.988 . S
N692 H699 0.969 1_556 S
N693 C686 1.356 . S
N693 H696 0.984 . S
N693 H697 0.985 . S
H694 N689 0.984 1_554 S
H695 N689 0.985 . S
H696 N693 0.984 . S
H697 N693 0.985 . S
H698 N692 0.988 . S
H699 N692 0.969 1_554 S
H700 N688 0.984 . S
H701 N688 0.985 . S
C702 C703 1.363 . S
C702 C708 1.379 . S
C702 N710 1.356 . S
C703 C702 1.363 . S
C703 C709 1.363 . S
C704 C705 1.363 . S
C704 C709 1.379 . S
C704 N711 1.356 . S
C705 C704 1.363 . S
C705 C708 1.363 . S
N706 C708 1.356 . S
N706 H718 0.984 . S
N706 H719 0.985 1_556 S
N707 C709 1.356 . S
N707 H712 0.984 . S
N707 H713 0.985 . S
C708 C702 1.379 . S
C708 C705 1.363 . S
C708 N706 1.356 . S
C709 C703 1.363 . S
C709 C704 1.379 . S
C709 N707 1.356 . S
N710 C702 1.356 . S
N710 H716 0.984 . S
N710 H717 0.984 . S
N711 C704 1.356 . S
N711 H714 0.984 1_556 S
N711 H715 0.985 . S
H712 N707 0.984 . S
H713 N707 0.985 . S
H714 N711 0.984 1_554 S
H715 N711 0.985 . S
H716 N710 0.984 . S
H717 N710 0.984 . S
H718 N706 0.984 . S
H719 N706 0.985 1_554 S
C720 C721 1.363 . S
C720 C726 1.379 1_655 S
C720 N728 1.356 . S
C721 C720 1.363 . S
C721 C727 1.363 . S
C722 C723 1.360 1_655 S
C722 C727 1.379 . S
C722 N729 1.357 1_655 S
C723 C722 1.360 1_455 S
C723 C726 1.363 . S
N724 C726 1.356 . S
N724 H736 0.984 . S
N724 H737 0.985 . S
N725 C727 1.356 . S
N725 H730 0.984 . S
N725 H731 0.985 . S
C726 C720 1.379 1_455 S
C726 C723 1.363 . S
C726 N724 1.356 . S
C727 C721 1.363 . S
C727 C722 1.379 . S
C727 N725 1.356 . S
N728 C720 1.356 . S
N728 H734 0.984 . S
N728 H735 0.984 . S
N729 C722 1.357 1_455 S
N729 H732 0.984 . S
N729 H733 1.008 . S
H730 N725 0.984 . S
H731 N725 0.985 . S
H732 N729 0.984 . S
H733 N729 1.008 . S
H734 N728 0.984 . S
H735 N728 0.984 . S
H736 N724 0.984 . S
H737 N724 0.985 . S
C738 C739 1.363 . S
C738 C744 1.379 . S
C738 N746 1.356 . S
C739 C738 1.363 . S
C739 C745 1.363 . S
C740 C741 1.363 . S
C740 C745 1.379 . S
C740 N747 1.356 . S
C741 C740 1.363 . S
C741 C744 1.363 . S
N742 C744 1.356 . S
N742 H754 0.984 . S
N742 H755 0.985 . S
N743 C745 1.356 . S
N743 H748 0.984 . S
N743 H749 0.985 . S
C744 C738 1.379 . S
C744 C741 1.363 . S
C744 N742 1.356 . S
C745 C739 1.363 . S
C745 C740 1.379 . S
C745 N743 1.356 . S
N746 C738 1.356 . S
N746 H752 0.984 . S
N746 H753 0.984 . S
N747 C740 1.356 . S
N747 H750 0.984 . S
N747 H751 0.985 . S
H748 N743 0.984 . S
H749 N743 0.985 . S
H750 N747 0.984 . S
H751 N747 0.985 . S
H752 N746 0.984 . S
H753 N746 0.984 . S
H754 N742 0.984 . S
H755 N742 0.985 . S
C756 C757 1.363 1_565 S
C756 C762 1.379 . S
C756 N764 1.356 . S
C757 C756 1.363 1_545 S
C757 C763 1.363 . S
C758 C759 1.363 1_545 S
C758 C763 1.379 . S
C758 N765 1.356 . S
C759 C758 1.363 1_565 S
C759 C762 1.363 . S
N760 C762 1.356 . S
N760 H772 0.984 . S
N760 H773 0.985 . S
N761 C763 1.356 . S
N761 H766 0.984 . S
N761 H767 0.985 . S
C762 C756 1.379 . S
C762 C759 1.363 . S
C762 N760 1.356 . S
C763 C757 1.363 . S
C763 C758 1.379 . S
C763 N761 1.356 . S
N764 C756 1.356 . S
N764 H770 0.984 . S
N764 H771 0.984 . S
N765 C758 1.356 . S
N765 H768 0.984 . S
N765 H769 0.985 . S
H766 N761 0.984 . S
H767 N761 0.985 . S
H768 N765 0.984 . S
H769 N765 0.985 . S
H770 N764 0.984 . S
H771 N764 0.984 . S
H772 N760 0.984 . S
H773 N760 0.985 . S
C774 C775 1.363 1_565 S
C774 C780 1.379 . S
C774 N782 1.356 . S
C775 C774 1.363 1_545 S
C775 C781 1.363 . S
C776 C777 1.363 1_545 S
C776 C781 1.379 . S
C776 N783 1.356 . S
C777 C776 1.363 1_565 S
C777 C780 1.363 . S
N778 C780 1.356 . S
N778 H790 0.984 . S
N778 H791 0.985 . S
N779 C781 1.356 . S
N779 H784 0.984 . S
N779 H785 0.985 . S
C780 C774 1.379 . S
C780 C777 1.363 . S
C780 N778 1.356 . S
C781 C775 1.363 . S
C781 C776 1.379 . S
C781 N779 1.356 . S
N782 C774 1.356 . S
N782 H788 0.984 . S
N782 H789 0.984 . S
N783 C776 1.356 . S
N783 H786 0.984 . S
N783 H787 0.985 . S
H784 N779 0.984 . S
H785 N779 0.985 . S
H786 N783 0.984 . S
H787 N783 0.985 . S
H788 N782 0.984 . S
H789 N782 0.984 . S
H790 N778 0.984 . S
H791 N778 0.985 . S
C792 C793 1.363 1_455 S
C792 C798 1.379 . S
C792 N800 1.340 . S
C793 C792 1.363 1_655 S
C793 C799 1.363 . S
C794 C795 1.393 . S
C794 C799 1.372 1_455 S
C794 N801 1.342 . S
C795 C794 1.393 . S
C795 C798 1.363 . S
N796 C798 1.356 . S
N796 H808 0.984 . S
N796 H809 0.985 . S
N797 C799 1.356 . S
N797 H802 0.984 . S
N797 H803 0.985 . S
C798 C792 1.379 . S
C798 C795 1.363 . S
C798 N796 1.356 . S
C799 C793 1.363 . S
C799 C794 1.372 1_655 S
C799 N797 1.356 . S
N800 C792 1.340 . S
N800 H806 1.021 . S
N800 H807 0.968 1_455 S
N801 C794 1.342 . S
N801 H804 0.984 . S
N801 H805 0.954 1_455 S
H802 N797 0.984 . S
H803 N797 0.985 . S
H804 N801 0.984 . S
H805 N801 0.954 1_655 S
H806 N800 1.021 . S
H807 N800 0.968 1_655 S
H808 N796 0.984 . S
H809 N796 0.985 . S
C810 C811 1.363 . S
C810 C816 1.379 . S
C810 N818 1.356 . S
C811 C810 1.363 . S
C811 C817 1.363 . S
C812 C813 1.363 . S
C812 C817 1.379 . S
C812 N819 1.356 . S
C813 C812 1.363 . S
C813 C816 1.363 . S
N814 C816 1.356 . S
N814 H826 0.984 . S
N814 H827 0.985 . S
N815 C817 1.356 . S
N815 H820 0.984 . S
N815 H821 0.985 . S
C816 C810 1.379 . S
C816 C813 1.363 . S
C816 N814 1.356 . S
C817 C811 1.363 . S
C817 C812 1.379 . S
C817 N815 1.356 . S
N818 C810 1.356 . S
N818 H824 0.984 . S
N818 H825 0.984 . S
N819 C812 1.356 . S
N819 H822 0.984 . S
N819 H823 0.985 . S
H820 N815 0.984 . S
H821 N815 0.985 . S
H822 N819 0.984 . S
H823 N819 0.985 . S
H824 N818 0.984 . S
H825 N818 0.984 . S
H826 N814 0.984 . S
H827 N814 0.985 . S
C828 C829 1.363 . S
C828 C834 1.379 . S
C828 N836 1.356 . S
C829 C828 1.363 . S
C829 C835 1.363 . S
C830 C831 1.363 . S
C830 C835 1.379 . S
C830 N837 1.356 . S
C831 C830 1.363 . S
C831 C834 1.363 . S
N832 C834 1.356 . S
N832 H844 0.984 . S
N832 H845 0.985 . S
N833 C835 1.356 . S
N833 H838 0.984 . S
N833 H839 0.985 . S
C834 C828 1.379 . S
C834 C831 1.363 . S
C834 N832 1.356 . S
C835 C829 1.363 . S
C835 C830 1.379 . S
C835 N833 1.356 . S
N836 C828 1.356 . S
N836 H842 0.984 . S
N836 H843 0.984 . S
N837 C830 1.356 . S
N837 H840 0.984 . S
N837 H841 0.985 . S
H838 N833 0.984 . S
H839 N833 0.985 . S
H840 N837 0.984 . S
H841 N837 0.985 . S
H842 N836 0.984 . S
H843 N836 0.984 . S
H844 N832 0.984 . S
H845 N832 0.985 . S
C846 C847 1.363 . S
C846 C852 1.379 . S
C846 N854 1.356 . S
C847 C846 1.363 . S
C847 C853 1.363 . S
C848 C849 1.363 . S
C848 C853 1.379 . S
C848 N855 1.356 . S
C849 C848 1.363 . S
C849 C852 1.363 . S
N850 C852 1.356 . S
N850 H862 0.984 . S
N850 H863 0.985 . S
N851 C853 1.356 . S
N851 H856 0.984 . S
N851 H857 0.985 . S
C852 C846 1.379 . S
C852 C849 1.363 . S
C852 N850 1.356 . S
C853 C847 1.363 . S
C853 C848 1.379 . S
C853 N851 1.356 . S
N854 C846 1.356 . S
N854 H860 0.984 . S
N854 H861 0.984 . S
N855 C848 1.356 . S
N855 H858 0.984 . S
N855 H859 0.985 . S
H856 N851 0.984 . S
H857 N851 0.985 . S
H858 N855 0.984 . S
H859 N855 0.985 . S
H860 N854 0.984 . S
H861 N854 0.984 . S
H862 N850 0.984 . S
H863 N850 0.985 . S
C864 C865 1.363 . S
C864 C870 1.379 . S
C864 N872 1.356 . S
C865 C864 1.363 . S
C865 C871 1.363 . S
C866 C867 1.363 . S
C866 C871 1.379 . S
C866 N873 1.356 . S
C867 C866 1.363 . S
C867 C870 1.363 . S
N868 C870 1.356 . S
N868 H880 0.984 . S
N868 H881 0.985 . S
N869 C871 1.356 . S
N869 H874 0.984 . S
N869 H875 0.985 . S
C870 C864 1.379 . S
C870 C867 1.363 . S
C870 N868 1.356 . S
C871 C865 1.363 . S
C871 C866 1.379 . S
C871 N869 1.356 . S
N872 C864 1.356 . S
N872 H878 0.984 . S
N872 H879 0.984 . S
N873 C866 1.356 . S
N873 H876 0.984 . S
N873 H877 0.985 . S
H874 N869 0.984 . S
H875 N869 0.985 . S
H876 N873 0.984 . S
H877 N873 0.985 . S
H878 N872 0.984 . S
H879 N872 0.984 . S
H880 N868 0.984 . S
H881 N868 0.985 . S
C882 C883 1.363 . S
C882 C888 1.379 . S
C882 N890 1.356 . S
C883 C882 1.363 . S
C883 C889 1.363 . S
C884 C885 1.363 . S
C884 C889 1.379 . S
C884 N891 1.356 . S
C885 C884 1.363 . S
C885 C888 1.363 . S
N886 C888 1.356 . S
N886 H898 0.984 . S
N886 H899 0.985 . S
N887 C889 1.356 . S
N887 H892 0.984 . S
N887 H893 0.985 . S
C888 C882 1.379 . S
C888 C885 1.363 . S
C888 N886 1.356 . S
C889 C883 1.363 . S
C889 C884 1.379 . S
C889 N887 1.356 . S
N890 C882 1.356 . S
N890 H896 0.984 . S
N890 H897 0.984 . S
N891 C884 1.356 . S
N891 H894 0.984 . S
N891 H895 0.985 . S
H892 N887 0.984 . S
H893 N887 0.985 . S
H894 N891 0.984 . S
H895 N891 0.985 . S
H896 N890 0.984 . S
H897 N890 0.984 . S
H898 N886 0.984 . S
H899 N886 0.985 . S
C900 C901 1.363 . S
C900 C906 1.379 . S
C900 N908 1.356 . S
C901 C900 1.363 . S
C901 C907 1.363 . S
C902 C903 1.363 . S
C902 C907 1.379 . S
C902 N909 1.356 . S
C903 C902 1.363 . S
C903 C906 1.363 . S
N904 C906 1.356 . S
N904 H916 0.984 . S
N904 H917 0.985 . S
N905 C907 1.356 . S
N905 H910 0.984 . S
N905 H911 0.985 . S
C906 C900 1.379 . S
C906 C903 1.363 . S
C906 N904 1.356 . S
C907 C901 1.363 . S
C907 C902 1.379 . S
C907 N905 1.356 . S
N908 C900 1.356 . S
N908 H914 0.984 . S
N908 H915 0.984 . S
N909 C902 1.356 . S
N909 H912 0.984 . S
N909 H913 0.985 . S
H910 N905 0.984 . S
H911 N905 0.985 . S
H912 N909 0.984 . S
H913 N909 0.985 . S
H914 N908 0.984 . S
H915 N908 0.984 . S
H916 N904 0.984 . S
H917 N904 0.985 . S
C918 C919 1.363 . S
C918 C924 1.379 . S
C918 N926 1.356 . S
C919 C918 1.363 . S
C919 C925 1.363 . S
C920 C921 1.363 . S
C920 C925 1.379 . S
C920 N927 1.356 . S
C921 C920 1.363 . S
C921 C924 1.363 . S
N922 C924 1.356 . S
N922 H934 0.984 . S
N922 H935 0.985 . S
N923 C925 1.356 . S
N923 H928 0.984 . S
N923 H929 0.985 . S
C924 C918 1.379 . S
C924 C921 1.363 . S
C924 N922 1.356 . S
C925 C919 1.363 . S
C925 C920 1.379 . S
C925 N923 1.356 . S
N926 C918 1.356 . S
N926 H932 0.984 . S
N926 H933 0.984 . S
N927 C920 1.356 . S
N927 H930 0.984 . S
N927 H931 0.985 . S
H928 N923 0.984 . S
H929 N923 0.985 . S
H930 N927 0.984 . S
H931 N927 0.985 . S
H932 N926 0.984 . S
H933 N926 0.984 . S
H934 N922 0.984 . S
H935 N922 0.985 . S
C936 C937 1.363 . S
C936 C942 1.379 . S
C936 N944 1.356 . S
C937 C936 1.363 . S
C937 C943 1.363 . S
C938 C939 1.363 . S
C938 C943 1.379 . S
C938 N945 1.356 . S
C939 C938 1.363 . S
C939 C942 1.363 . S
N940 C942 1.356 . S
N940 H952 0.984 . S
N940 H953 0.985 . S
N941 C943 1.356 . S
N941 H946 0.984 . S
N941 H947 0.985 . S
C942 C936 1.379 . S
C942 C939 1.363 . S
C942 N940 1.356 . S
C943 C937 1.363 . S
C943 C938 1.379 . S
C943 N941 1.356 . S
N944 C936 1.356 . S
N944 H950 0.984 . S
N944 H951 0.984 . S
N945 C938 1.356 . S
N945 H948 0.984 . S
N945 H949 0.985 . S
H946 N941 0.984 . S
H947 N941 0.985 . S
H948 N945 0.984 . S
H949 N945 0.985 . S
H950 N944 0.984 . S
H951 N944 0.984 . S
H952 N940 0.984 . S
H953 N940 0.985 . S
C954 C955 1.363 . S
C954 C960 1.379 . S
C954 N962 1.356 . S
C955 C954 1.363 . S
C955 C961 1.363 . S
C956 C957 1.363 . S
C956 C961 1.379 . S
C956 N963 1.356 . S
C957 C956 1.363 . S
C957 C960 1.363 . S
N958 C960 1.356 . S
N958 H970 0.984 . S
N958 H971 0.985 . S
N959 C961 1.356 . S
N959 H964 0.984 . S
N959 H965 0.985 . S
C960 C954 1.379 . S
C960 C957 1.363 . S
C960 N958 1.356 . S
C961 C955 1.363 . S
C961 C956 1.379 . S
C961 N959 1.356 . S
N962 C954 1.356 . S
N962 H968 0.984 . S
N962 H969 0.984 . S
N963 C956 1.356 . S
N963 H966 0.984 . S
N963 H967 0.985 . S
H964 N959 0.984 . S
H965 N959 0.985 . S
H966 N963 0.984 . S
H967 N963 0.985 . S
H968 N962 0.984 . S
H969 N962 0.984 . S
H970 N958 0.984 . S
H971 N958 0.985 . S
C972 C973 1.363 . S
C972 C978 1.379 . S
C972 N980 1.356 . S
C973 C972 1.363 . S
C973 C979 1.363 . S
C974 C975 1.363 . S
C974 C979 1.379 . S
C974 N981 1.356 . S
C975 C974 1.363 . S
C975 C978 1.363 . S
N976 C978 1.356 . S
N976 H988 0.984 . S
N976 H989 0.985 . S
N977 C979 1.356 . S
N977 H982 0.984 . S
N977 H983 0.985 . S
C978 C972 1.379 . S
C978 C975 1.363 . S
C978 N976 1.356 . S
C979 C973 1.363 . S
C979 C974 1.379 . S
C979 N977 1.356 . S
N980 C972 1.356 . S
N980 H986 0.984 . S
N980 H987 0.984 . S
N981 C974 1.356 . S
N981 H984 0.984 . S
N981 H985 0.985 . S
H982 N977 0.984 . S
H983 N977 0.985 . S
H984 N981 0.984 . S
H985 N981 0.985 . S
H986 N980 0.984 . S
H987 N980 0.984 . S
H988 N976 0.984 . S
H989 N976 0.985 . S
C990 C991 1.363 . S
C990 C996 1.379 . S
C990 N998 1.356 . S
C991 C990 1.363 . S
C991 C997 1.363 . S
C992 C993 1.363 . S
C992 C997 1.379 . S
C992 N999 1.356 . S
C993 C992 1.363 . S
C993 C996 1.363 . S
N994 C996 1.356 . S
N994 H1006 0.984 . S
N994 H1007 0.985 . S
N995 C997 1.356 . S
N995 H1000 0.984 . S
N995 H1001 0.985 . S
C996 C990 1.379 . S
C996 C993 1.363 . S
C996 N994 1.356 . S
C997 C991 1.363 . S
C997 C992 1.379 . S
C997 N995 1.356 . S
N998 C990 1.356 . S
N998 H1004 0.984 . S
N998 H1005 0.984 . S
N999 C992 1.356 . S
N999 H1002 0.984 . S
N999 H1003 0.985 . S
H1000 N995 0.984 . S
H1001 N995 0.985 . S
H1002 N999 0.984 . S
H1003 N999 0.985 . S
H1004 N998 0.984 . S
H1005 N998 0.984 . S
H1006 N994 0.984 . S
H1007 N994 0.985 . S
C1008 C1009 1.363 . S
C1008 C1014 1.379 . S
C1008 N1016 1.356 . S
C1009 C1008 1.363 . S
C1009 C1015 1.363 . S
C1010 C1011 1.363 . S
C1010 C1015 1.379 . S
C1010 N1017 1.356 . S
C1011 C1010 1.363 . S
C1011 C1014 1.363 . S
N1012 C1014 1.356 . S
N1012 H1024 0.984 . S
N1012 H1025 0.985 . S
N1013 C1015 1.356 . S
N1013 H1018 0.984 . S
N1013 H1019 0.985 . S
C1014 C1008 1.379 . S
C1014 C1011 1.363 . S
C1014 N1012 1.356 . S
C1015 C1009 1.363 . S
C1015 C1010 1.379 . S
C1015 N1013 1.356 . S
N1016 C1008 1.356 . S
N1016 H1022 0.984 . S
N1016 H1023 0.984 . S
N1017 C1010 1.356 . S
N1017 H1020 0.984 . S
N1017 H1021 0.985 . S
H1018 N1013 0.984 . S
H1019 N1013 0.985 . S
H1020 N1017 0.984 . S
H1021 N1017 0.985 . S
H1022 N1016 0.984 . S
H1023 N1016 0.984 . S
H1024 N1012 0.984 . S
H1025 N1012 0.985 . S
C1026 C1027 1.363 . S
C1026 C1032 1.379 . S
C1026 N1034 1.356 . S
C1027 C1026 1.363 . S
C1027 C1033 1.363 . S
C1028 C1029 1.363 . S
C1028 C1033 1.379 . S
C1028 N1035 1.356 . S
C1029 C1028 1.363 . S
C1029 C1032 1.363 . S
N1030 C1032 1.356 . S
N1030 H1042 0.984 . S
N1030 H1043 0.985 . S
N1031 C1033 1.356 . S
N1031 H1036 0.984 . S
N1031 H1037 0.985 . S
C1032 C1026 1.379 . S
C1032 C1029 1.363 . S
C1032 N1030 1.356 . S
C1033 C1027 1.363 . S
C1033 C1028 1.379 . S
C1033 N1031 1.356 . S
N1034 C1026 1.356 . S
N1034 H1040 0.984 . S
N1034 H1041 0.984 . S
N1035 C1028 1.356 . S
N1035 H1038 0.984 . S
N1035 H1039 0.985 . S
H1036 N1031 0.984 . S
H1037 N1031 0.985 . S
H1038 N1035 0.984 . S
H1039 N1035 0.985 . S
H1040 N1034 0.984 . S
H1041 N1034 0.984 . S
H1042 N1030 0.984 . S
H1043 N1030 0.985 . S
C1044 C1045 1.363 1_455 S
C1044 C1050 1.379 . S
C1044 N1052 1.356 . S
C1045 C1044 1.363 1_655 S
C1045 C1051 1.363 . S
C1046 C1047 1.363 1_655 S
C1046 C1051 1.379 . S
C1046 N1053 1.356 . S
C1047 C1046 1.363 1_455 S
C1047 C1050 1.363 . S
N1048 C1050 1.356 . S
N1048 H1060 0.984 . S
N1048 H1061 0.985 . S
N1049 C1051 1.356 . S
N1049 H1054 0.984 . S
N1049 H1055 0.985 . S
C1050 C1044 1.379 . S
C1050 C1047 1.363 . S
C1050 N1048 1.356 . S
C1051 C1045 1.363 . S
C1051 C1046 1.379 . S
C1051 N1049 1.356 . S
N1052 C1044 1.356 . S
N1052 H1058 0.984 . S
N1052 H1059 0.984 . S
N1053 C1046 1.356 . S
N1053 H1056 0.984 . S
N1053 H1057 0.985 . S
H1054 N1049 0.984 . S
H1055 N1049 0.985 . S
H1056 N1053 0.984 . S
H1057 N1053 0.985 . S
H1058 N1052 0.984 . S
H1059 N1052 0.984 . S
H1060 N1048 0.984 . S
H1061 N1048 0.985 . S
C1062 C1063 1.363 . S
C1062 C1068 1.379 . S
C1062 N1070 1.356 . S
C1063 C1062 1.363 . S
C1063 C1069 1.363 . S
C1064 C1065 1.363 . S
C1064 C1069 1.379 . S
C1064 N1071 1.356 . S
C1065 C1064 1.363 . S
C1065 C1068 1.363 . S
N1066 C1068 1.356 . S
N1066 H1078 0.984 . S
N1066 H1079 0.985 . S
N1067 C1069 1.356 . S
N1067 H1072 0.984 . S
N1067 H1073 0.985 . S
C1068 C1062 1.379 . S
C1068 C1065 1.363 . S
C1068 N1066 1.356 . S
C1069 C1063 1.363 . S
C1069 C1064 1.379 . S
C1069 N1067 1.356 . S
N1070 C1062 1.356 . S
N1070 H1076 0.984 . S
N1070 H1077 0.984 . S
N1071 C1064 1.356 . S
N1071 H1074 0.984 . S
N1071 H1075 0.985 . S
H1072 N1067 0.984 . S
H1073 N1067 0.985 . S
H1074 N1071 0.984 . S
H1075 N1071 0.985 . S
H1076 N1070 0.984 . S
H1077 N1070 0.984 . S
H1078 N1066 0.984 . S
H1079 N1066 0.985 . S
C1080 C1081 1.363 1_545 S
C1080 C1086 1.379 . S
C1080 N1088 1.356 . S
C1081 C1080 1.363 1_565 S
C1081 C1087 1.363 . S
C1082 C1083 1.363 1_565 S
C1082 C1087 1.379 . S
C1082 N1089 1.356 . S
C1083 C1082 1.363 1_545 S
C1083 C1086 1.363 . S
N1084 C1086 1.356 . S
N1084 H1096 0.984 . S
N1084 H1097 0.985 . S
N1085 C1087 1.356 . S
N1085 H1090 0.984 . S
N1085 H1091 0.985 . S
C1086 C1080 1.379 . S
C1086 C1083 1.363 . S
C1086 N1084 1.356 . S
C1087 C1081 1.363 . S
C1087 C1082 1.379 . S
C1087 N1085 1.356 . S
N1088 C1080 1.356 . S
N1088 H1094 0.984 . S
N1088 H1095 0.984 . S
N1089 C1082 1.356 . S
N1089 H1092 0.984 . S
N1089 H1093 0.985 . S
H1090 N1085 0.984 . S
H1091 N1085 0.985 . S
H1092 N1089 0.984 . S
H1093 N1089 0.985 . S
H1094 N1088 0.984 . S
H1095 N1088 0.984 . S
H1096 N1084 0.984 . S
H1097 N1084 0.985 . S
C1098 C1099 1.363 1_554 S
C1098 C1104 1.379 . S
C1098 N1106 1.356 . S
C1099 C1098 1.363 1_556 S
C1099 C1105 1.363 1_565 S
C1100 C1101 1.363 1_556 S
C1100 C1105 1.379 . S
C1100 N1107 1.356 . S
C1101 C1100 1.363 1_554 S
C1101 C1104 1.363 1_545 S
N1102 C1104 1.356 . S
N1102 H1114 0.984 . S
N1102 H1115 0.985 . S
N1103 C1105 1.356 . S
N1103 H1108 0.984 . S
N1103 H1109 0.985 . S
C1104 C1098 1.379 . S
C1104 C1101 1.363 1_565 S
C1104 N1102 1.356 . S
C1105 C1099 1.363 1_545 S
C1105 C1100 1.379 . S
C1105 N1103 1.356 . S
N1106 C1098 1.356 . S
N1106 H1112 0.984 . S
N1106 H1113 0.984 . S
N1107 C1100 1.356 . S
N1107 H1110 0.984 . S
N1107 H1111 0.985 . S
H1108 N1103 0.984 . S
H1109 N1103 0.985 . S
H1110 N1107 0.984 . S
H1111 N1107 0.985 . S
H1112 N1106 0.984 . S
H1113 N1106 0.984 . S
H1114 N1102 0.984 . S
H1115 N1102 0.985 . S
C1116 C1117 1.363 1_456 S
C1116 C1122 1.379 . S
C1116 N1124 1.356 . S
C1117 C1116 1.363 1_654 S
C1117 C1123 1.363 . S
C1118 C1119 1.363 1_654 S
C1118 C1123 1.379 . S
C1118 N1125 1.356 . S
C1119 C1118 1.363 1_456 S
C1119 C1122 1.363 . S
N1120 C1122 1.356 . S
N1120 H1132 0.984 . S
N1120 H1133 0.985 . S
N1121 C1123 1.356 . S
N1121 H1126 0.984 . S
N1121 H1127 0.985 . S
C1122 C1116 1.379 . S
C1122 C1119 1.363 . S
C1122 N1120 1.356 . S
C1123 C1117 1.363 . S
C1123 C1118 1.379 . S
C1123 N1121 1.356 . S
N1124 C1116 1.356 . S
N1124 H1130 0.984 . S
N1124 H1131 0.984 . S
N1125 C1118 1.356 . S
N1125 H1128 0.984 . S
N1125 H1129 0.985 . S
H1126 N1121 0.984 . S
H1127 N1121 0.985 . S
H1128 N1125 0.984 . S
H1129 N1125 0.985 . S
H1130 N1124 0.984 . S
H1131 N1124 0.984 . S
H1132 N1120 0.984 . S
H1133 N1120 0.985 . S
C1134 C1135 1.363 . S
C1134 C1140 1.379 . S
C1134 N1142 1.356 . S
C1135 C1134 1.363 . S
C1135 C1141 1.363 1_554 S
C1136 C1137 1.363 . S
C1136 C1141 1.379 . S
C1136 N1143 1.356 . S
C1137 C1136 1.363 . S
C1137 C1140 1.363 1_556 S
N1138 C1140 1.356 . S
N1138 H1150 0.984 . S
N1138 H1151 0.985 . S
N1139 C1141 1.356 . S
N1139 H1144 0.984 . S
N1139 H1145 0.985 . S
C1140 C1134 1.379 . S
C1140 C1137 1.363 1_554 S
C1140 N1138 1.356 . S
C1141 C1135 1.363 1_556 S
C1141 C1136 1.379 . S
C1141 N1139 1.356 . S
N1142 C1134 1.356 . S
N1142 H1148 0.984 . S
N1142 H1149 0.984 . S
N1143 C1136 1.356 . S
N1143 H1146 0.984 . S
N1143 H1147 0.985 . S
H1144 N1139 0.984 . S
H1145 N1139 0.985 . S
H1146 N1143 0.984 . S
H1147 N1143 0.985 . S
H1148 N1142 0.984 . S
H1149 N1142 0.984 . S
H1150 N1138 0.984 . S
H1151 N1138 0.985 . S
C1152 C1153 1.363 . S
C1152 C1158 1.379 . S
C1152 N1160 1.356 1_554 S
C1153 C1152 1.363 . S
C1153 C1159 1.363 . S
C1154 C1155 1.363 . S
C1154 C1159 1.379 . S
C1154 N1161 1.356 . S
C1155 C1154 1.363 . S
C1155 C1158 1.363 . S
N1156 C1158 1.356 . S
N1156 H1168 0.984 . S
N1156 H1169 0.985 . S
N1157 C1159 1.342 1_565 S
N1157 H1162 0.992 . S
N1157 H1163 0.991 . S
C1158 C1152 1.379 . S
C1158 C1155 1.363 . S
C1158 N1156 1.356 . S
C1159 C1153 1.363 . S
C1159 C1154 1.379 . S
C1159 N1157 1.342 1_545 S
N1160 C1152 1.356 1_556 S
N1160 H1166 0.984 . S
N1160 H1167 0.984 . S
N1161 C1154 1.356 . S
N1161 H1164 0.984 . S
N1161 H1165 0.985 . S
H1162 N1157 0.992 . S
H1163 N1157 0.991 . S
H1164 N1161 0.984 . S
H1165 N1161 0.985 . S
H1166 N1160 0.984 . S
H1167 N1160 0.984 . S
H1168 N1156 0.984 . S
H1169 N1156 0.985 . S
C1170 C1171 1.363 . S
C1170 C1176 1.379 . S
C1170 N1178 1.356 . S
C1171 C1170 1.363 . S
C1171 C1177 1.363 . S
C1172 C1173 1.363 . S
C1172 C1177 1.379 . S
C1172 N1179 1.356 1_554 S
C1173 C1172 1.363 . S
C1173 C1176 1.363 . S
N1174 C1176 1.356 . S
N1174 H1186 0.984 . S
N1174 H1187 0.985 . S
N1175 C1177 1.356 . S
N1175 H1180 0.984 . S
N1175 H1181 0.985 1_554 S
C1176 C1170 1.379 . S
C1176 C1173 1.363 . S
C1176 N1174 1.356 . S
C1177 C1171 1.363 . S
C1177 C1172 1.379 . S
C1177 N1175 1.356 . S
N1178 C1170 1.356 . S
N1178 H1184 0.984 . S
N1178 H1185 0.984 . S
N1179 C1172 1.356 1_556 S
N1179 H1182 0.984 . S
N1179 H1183 0.985 . S
H1180 N1175 0.984 . S
H1181 N1175 0.985 1_556 S
H1182 N1179 0.984 . S
H1183 N1179 0.985 . S
H1184 N1178 0.984 . S
H1185 N1178 0.984 . S
H1186 N1174 0.984 . S
H1187 N1174 0.985 . S
C1188 C1189 1.363 . S
C1188 C1194 1.379 . S
C1188 N1196 1.356 . S
C1189 C1188 1.363 . S
C1189 C1195 1.363 . S
C1190 C1191 1.363 . S
C1190 C1195 1.379 . S
C1190 N1197 1.356 1_554 S
C1191 C1190 1.363 . S
C1191 C1194 1.363 . S
N1192 C1194 1.356 . S
N1192 H1204 0.984 . S
N1192 H1205 0.985 . S
N1193 C1195 1.356 . S
N1193 H1198 0.984 . S
N1193 H1199 0.985 . S
C1194 C1188 1.379 . S
C1194 C1191 1.363 . S
C1194 N1192 1.356 . S
C1195 C1189 1.363 . S
C1195 C1190 1.379 . S
C1195 N1193 1.356 . S
N1196 C1188 1.356 . S
N1196 H1202 0.984 . S
N1196 H1203 0.984 . S
N1197 C1190 1.356 1_556 S
N1197 H1200 0.984 . S
N1197 H1201 0.985 . S
H1198 N1193 0.984 . S
H1199 N1193 0.985 . S
H1200 N1197 0.984 . S
H1201 N1197 0.985 . S
H1202 N1196 0.984 . S
H1203 N1196 0.984 . S
H1204 N1192 0.984 . S
H1205 N1192 0.985 . S
C1206 C1207 1.363 . S
C1206 C1212 1.379 . S
C1206 N1214 1.404 . S
C1207 C1206 1.363 . S
C1207 C1213 1.363 . S
C1208 C1209 1.363 . S
C1208 C1213 1.379 . S
C1208 N1215 1.356 . S
C1209 C1208 1.363 . S
C1209 C1212 1.363 . S
N1210 C1212 1.356 . S
N1210 H1222 0.984 . S
N1210 H1223 0.985 . S
N1211 C1213 1.356 . S
N1211 H1216 0.984 . S
N1211 H1217 0.985 . S
C1212 C1206 1.379 . S
C1212 C1209 1.363 . S
C1212 N1210 1.356 . S
C1213 C1207 1.363 . S
C1213 C1208 1.379 . S
C1213 N1211 1.356 . S
N1214 C1206 1.404 . S
N1214 H1220 0.979 1_455 S
N1214 H1221 0.945 1_455 S
N1215 C1208 1.356 . S
N1215 H1218 0.984 . S
N1215 H1219 0.985 . S
H1216 N1211 0.984 . S
H1217 N1211 0.985 . S
H1218 N1215 0.984 . S
H1219 N1215 0.985 . S
H1220 N1214 0.979 1_655 S
H1221 N1214 0.945 1_655 S
H1222 N1210 0.984 . S
H1223 N1210 0.985 . S
C1224 C1225 1.363 . S
C1224 C1230 1.379 . S
C1224 N1232 1.356 . S
C1225 C1224 1.363 . S
C1225 C1231 1.363 . S
C1226 C1227 1.363 . S
C1226 C1231 1.379 . S
C1226 N1233 1.356 . S
C1227 C1226 1.363 . S
C1227 C1230 1.363 . S
N1228 C1230 1.356 . S
N1228 H1240 0.984 . S
N1228 H1241 0.985 . S
N1229 C1231 1.356 . S
N1229 H1234 0.984 . S
N1229 H1235 0.985 . S
C1230 C1224 1.379 . S
C1230 C1227 1.363 . S
C1230 N1228 1.356 . S
C1231 C1225 1.363 . S
C1231 C1226 1.379 . S
C1231 N1229 1.356 . S
N1232 C1224 1.356 . S
N1232 H1238 0.984 . S
N1232 H1239 0.984 . S
N1233 C1226 1.356 . S
N1233 H1236 0.984 . S
N1233 H1237 0.985 . S
H1234 N1229 0.984 . S
H1235 N1229 0.985 . S
H1236 N1233 0.984 . S
H1237 N1233 0.985 . S
H1238 N1232 0.984 . S
H1239 N1232 0.984 . S
H1240 N1228 0.984 . S
H1241 N1228 0.985 . S
C1242 C1243 1.363 . S
C1242 C1248 1.379 . S
C1242 N1250 1.356 . S
C1243 C1242 1.363 . S
C1243 C1249 1.363 . S
C1244 C1245 1.363 . S
C1244 C1249 1.379 . S
C1244 N1251 1.356 . S
C1245 C1244 1.363 . S
C1245 C1248 1.363 . S
N1246 C1248 1.356 . S
N1246 H1258 0.984 . S
N1246 H1259 0.985 . S
N1247 C1249 1.356 . S
N1247 H1252 0.984 . S
N1247 H1253 0.985 . S
C1248 C1242 1.379 . S
C1248 C1245 1.363 . S
C1248 N1246 1.356 . S
C1249 C1243 1.363 . S
C1249 C1244 1.379 . S
C1249 N1247 1.356 . S
N1250 C1242 1.356 . S
N1250 H1256 0.984 . S
N1250 H1257 0.984 . S
N1251 C1244 1.356 . S
N1251 H1254 0.984 . S
N1251 H1255 0.985 . S
H1252 N1247 0.984 . S
H1253 N1247 0.985 . S
H1254 N1251 0.984 . S
H1255 N1251 0.985 . S
H1256 N1250 0.984 . S
H1257 N1250 0.984 . S
H1258 N1246 0.984 . S
H1259 N1246 0.985 . S
C1260 C1261 1.363 . S
C1260 C1266 1.379 . S
C1260 N1268 1.356 1_556 S
C1261 C1260 1.363 . S
C1261 C1267 1.363 . S
C1262 C1263 1.363 . S
C1262 C1267 1.379 . S
C1262 N1269 1.356 . S
C1263 C1262 1.363 . S
C1263 C1266 1.363 . S
N1264 C1266 1.356 . S
N1264 H1276 0.984 1_556 S
N1264 H1277 0.985 . S
N1265 C1267 1.356 . S
N1265 H1270 0.984 . S
N1265 H1271 0.985 . S
C1266 C1260 1.379 . S
C1266 C1263 1.363 . S
C1266 N1264 1.356 . S
C1267 C1261 1.363 . S
C1267 C1262 1.379 . S
C1267 N1265 1.356 . S
N1268 C1260 1.356 1_554 S
N1268 H1274 0.984 . S
N1268 H1275 0.984 . S
N1269 C1262 1.356 . S
N1269 H1272 0.984 . S
N1269 H1273 0.985 . S
H1270 N1265 0.984 . S
H1271 N1265 0.985 . S
H1272 N1269 0.984 . S
H1273 N1269 0.985 . S
H1274 N1268 0.984 . S
H1275 N1268 0.984 . S
H1276 N1264 0.984 1_554 S
H1277 N1264 0.985 . S
C1278 C1279 1.363 . S
C1278 C1284 1.379 . S
C1278 N1286 1.356 . S
C1279 C1278 1.363 . S
C1279 C1285 1.363 . S
C1280 C1281 1.363 . S
C1280 C1285 1.379 . S
C1280 N1287 1.356 1_556 S
C1281 C1280 1.363 . S
C1281 C1284 1.363 . S
N1282 C1284 1.356 . S
N1282 H1294 0.984 . S
N1282 H1295 0.985 . S
N1283 C1285 1.356 . S
N1283 H1288 0.984 . S
N1283 H1289 0.985 1_556 S
C1284 C1278 1.379 . S
C1284 C1281 1.363 . S
C1284 N1282 1.356 . S
C1285 C1279 1.363 . S
C1285 C1280 1.379 . S
C1285 N1283 1.356 . S
N1286 C1278 1.356 . S
N1286 H1292 0.984 . S
N1286 H1293 0.984 . S
N1287 C1280 1.356 1_554 S
N1287 H1290 0.984 . S
N1287 H1291 0.985 . S
H1288 N1283 0.984 . S
H1289 N1283 0.985 1_554 S
H1290 N1287 0.984 . S
H1291 N1287 0.985 . S
H1292 N1286 0.984 . S
H1293 N1286 0.984 . S
H1294 N1282 0.984 . S
H1295 N1282 0.985 . S
C1296 C1297 1.363 . S
C1296 C1302 1.379 . S
C1296 N1304 1.356 . S
C1297 C1296 1.363 . S
C1297 C1303 1.363 . S
C1298 C1299 1.363 . S
C1298 C1303 1.379 . S
C1298 N1305 1.356 . S
C1299 C1298 1.363 . S
C1299 C1302 1.363 . S
N1300 C1302 1.356 . S
N1300 H1312 0.984 . S
N1300 H1313 0.985 . S
N1301 C1303 1.356 . S
N1301 H1306 0.984 . S
N1301 H1307 0.985 . S
C1302 C1296 1.379 . S
C1302 C1299 1.363 . S
C1302 N1300 1.356 . S
C1303 C1297 1.363 . S
C1303 C1298 1.379 . S
C1303 N1301 1.356 . S
N1304 C1296 1.356 . S
N1304 H1310 0.984 . S
N1304 H1311 0.984 1_556 S
N1305 C1298 1.356 . S
N1305 H1308 0.984 . S
N1305 H1309 0.985 . S
H1306 N1301 0.984 . S
H1307 N1301 0.985 . S
H1308 N1305 0.984 . S
H1309 N1305 0.985 . S
H1310 N1304 0.984 . S
H1311 N1304 0.984 1_554 S
H1312 N1300 0.984 . S
H1313 N1300 0.985 . S
C1314 C1315 1.363 . S
C1314 C1320 1.379 . S
C1314 N1322 1.356 . S
C1315 C1314 1.363 . S
C1315 C1321 1.363 . S
C1316 C1317 1.363 . S
C1316 C1321 1.379 . S
C1316 N1323 1.356 . S
C1317 C1316 1.363 . S
C1317 C1320 1.363 . S
N1318 C1320 1.356 . S
N1318 H1330 0.984 . S
N1318 H1331 0.985 . S
N1319 C1321 1.356 . S
N1319 H1324 0.984 . S
N1319 H1325 0.985 . S
C1320 C1314 1.379 . S
C1320 C1317 1.363 . S
C1320 N1318 1.356 . S
C1321 C1315 1.363 . S
C1321 C1316 1.379 . S
C1321 N1319 1.356 . S
N1322 C1314 1.356 . S
N1322 H1328 0.984 . S
N1322 H1329 0.984 . S
N1323 C1316 1.356 . S
N1323 H1326 0.984 . S
N1323 H1327 0.985 . S
H1324 N1319 0.984 . S
H1325 N1319 0.985 . S
H1326 N1323 0.984 . S
H1327 N1323 0.985 . S
H1328 N1322 0.984 . S
H1329 N1322 0.984 . S
H1330 N1318 0.984 . S
H1331 N1318 0.985 . S
C1332 C1333 1.363 . S
C1332 C1338 1.379 . S
C1332 N1340 1.356 . S
C1333 C1332 1.363 . S
C1333 C1339 1.363 . S
C1334 C1335 1.363 . S
C1334 C1339 1.379 . S
C1334 N1341 1.356 . S
C1335 C1334 1.363 . S
C1335 C1338 1.363 . S
N1336 C1338 1.356 . S
N1336 H1348 0.984 . S
N1336 H1349 0.985 . S
N1337 C1339 1.356 . S
N1337 H1342 0.984 . S
N1337 H1343 0.985 . S
C1338 C1332 1.379 . S
C1338 C1335 1.363 . S
C1338 N1336 1.356 . S
C1339 C1333 1.363 . S
C1339 C1334 1.379 . S
C1339 N1337 1.356 . S
N1340 C1332 1.356 . S
N1340 H1346 0.984 . S
N1340 H1347 0.984 . S
N1341 C1334 1.356 . S
N1341 H1344 0.984 . S
N1341 H1345 0.985 . S
H1342 N1337 0.984 . S
H1343 N1337 0.985 . S
H1344 N1341 0.984 . S
H1345 N1341 0.985 . S
H1346 N1340 0.984 . S
H1347 N1340 0.984 . S
H1348 N1336 0.984 . S
H1349 N1336 0.985 . S
C1350 C1351 1.363 . S
C1350 C1356 1.379 . S
C1350 N1358 1.356 . S
C1351 C1350 1.363 . S
C1351 C1357 1.363 . S
C1352 C1353 1.363 . S
C1352 C1357 1.379 . S
C1352 N1359 1.356 . S
C1353 C1352 1.363 . S
C1353 C1356 1.363 . S
N1354 C1356 1.356 . S
N1354 H1366 0.984 . S
N1354 H1367 0.985 . S
N1355 C1357 1.356 . S
N1355 H1360 0.984 . S
N1355 H1361 0.985 . S
C1356 C1350 1.379 . S
C1356 C1353 1.363 . S
C1356 N1354 1.356 . S
C1357 C1351 1.363 . S
C1357 C1352 1.379 . S
C1357 N1355 1.356 . S
N1358 C1350 1.356 . S
N1358 H1364 0.984 . S
N1358 H1365 0.984 . S
N1359 C1352 1.356 . S
N1359 H1362 0.984 . S
N1359 H1363 0.985 . S
H1360 N1355 0.984 . S
H1361 N1355 0.985 . S
H1362 N1359 0.984 . S
H1363 N1359 0.985 . S
H1364 N1358 0.984 . S
H1365 N1358 0.984 . S
H1366 N1354 0.984 . S
H1367 N1354 0.985 . S
C1368 C1369 1.363 . S
C1368 C1374 1.379 . S
C1368 N1376 1.356 . S
C1369 C1368 1.363 . S
C1369 C1375 1.363 . S
C1370 C1371 1.363 . S
C1370 C1375 1.379 . S
C1370 N1377 1.356 . S
C1371 C1370 1.363 . S
C1371 C1374 1.363 . S
N1372 C1374 1.356 . S
N1372 H1384 0.984 . S
N1372 H1385 0.985 . S
N1373 C1375 1.356 . S
N1373 H1378 0.984 . S
N1373 H1379 0.985 . S
C1374 C1368 1.379 . S
C1374 C1371 1.363 . S
C1374 N1372 1.356 . S
C1375 C1369 1.363 . S
C1375 C1370 1.379 . S
C1375 N1373 1.356 . S
N1376 C1368 1.356 . S
N1376 H1382 0.984 . S
N1376 H1383 0.984 . S
N1377 C1370 1.356 . S
N1377 H1380 0.984 . S
N1377 H1381 0.985 . S
H1378 N1373 0.984 . S
H1379 N1373 0.985 . S
H1380 N1377 0.984 . S
H1381 N1377 0.985 . S
H1382 N1376 0.984 . S
H1383 N1376 0.984 . S
H1384 N1372 0.984 . S
H1385 N1372 0.985 . S
C1386 C1387 1.363 . S
C1386 C1392 1.379 1_565 S
C1386 N1394 1.356 . S
C1387 C1386 1.363 . S
C1387 C1393 1.363 . S
C1388 C1389 1.363 . S
C1388 C1393 1.379 1_545 S
C1388 N1395 1.356 . S
C1389 C1388 1.363 . S
C1389 C1392 1.363 . S
N1390 C1392 1.356 . S
N1390 H1402 0.984 . S
N1390 H1403 0.985 . S
N1391 C1393 1.356 . S
N1391 H1396 0.984 . S
N1391 H1397 0.985 . S
C1392 C1386 1.379 1_545 S
C1392 C1389 1.363 . S
C1392 N1390 1.356 . S
C1393 C1387 1.363 . S
C1393 C1388 1.379 1_565 S
C1393 N1391 1.356 . S
N1394 C1386 1.356 . S
N1394 H1400 0.984 . S
N1394 H1401 0.984 . S
N1395 C1388 1.356 . S
N1395 H1398 0.984 . S
N1395 H1399 0.985 . S
H1396 N1391 0.984 . S
H1397 N1391 0.985 . S
H1398 N1395 0.984 . S
H1399 N1395 0.985 . S
H1400 N1394 0.984 . S
H1401 N1394 0.984 . S
H1402 N1390 0.984 . S
H1403 N1390 0.985 . S
C1404 C1405 1.363 . S
C1404 C1410 1.379 1_455 S
C1404 N1412 1.356 . S
C1405 C1404 1.363 . S
C1405 C1411 1.363 . S
C1406 C1407 1.363 . S
C1406 C1411 1.379 1_655 S
C1406 N1413 1.356 . S
C1407 C1406 1.363 . S
C1407 C1410 1.363 . S
N1408 C1410 1.356 . S
N1408 H1420 0.984 . S
N1408 H1421 0.985 . S
N1409 C1411 1.356 . S
N1409 H1414 0.984 . S
N1409 H1415 0.985 . S
C1410 C1404 1.379 1_655 S
C1410 C1407 1.363 . S
C1410 N1408 1.356 . S
C1411 C1405 1.363 . S
C1411 C1406 1.379 1_455 S
C1411 N1409 1.356 . S
N1412 C1404 1.356 . S
N1412 H1418 0.984 . S
N1412 H1419 0.984 . S
N1413 C1406 1.356 . S
N1413 H1416 0.984 . S
N1413 H1417 0.985 . S
H1414 N1409 0.984 . S
H1415 N1409 0.985 . S
H1416 N1413 0.984 . S
H1417 N1413 0.985 . S
H1418 N1412 0.984 . S
H1419 N1412 0.984 . S
H1420 N1408 0.984 . S
H1421 N1408 0.985 . S
C1422 C1423 1.363 . S
C1422 C1428 1.379 . S
C1422 N1430 1.356 . S
C1423 C1422 1.363 . S
C1423 C1429 1.363 . S
C1424 C1425 1.363 . S
C1424 C1429 1.379 . S
C1424 N1431 1.356 . S
C1425 C1424 1.363 . S
C1425 C1428 1.363 . S
N1426 C1428 1.356 . S
N1426 H1438 0.984 . S
N1426 H1439 0.985 . S
N1427 C1429 1.356 . S
N1427 H1432 0.984 . S
N1427 H1433 0.985 . S
C1428 C1422 1.379 . S
C1428 C1425 1.363 . S
C1428 N1426 1.356 . S
C1429 C1423 1.363 . S
C1429 C1424 1.379 . S
C1429 N1427 1.356 . S
N1430 C1422 1.356 . S
N1430 H1436 0.984 . S
N1430 H1437 0.984 . S
N1431 C1424 1.356 . S
N1431 H1434 0.984 . S
N1431 H1435 0.985 . S
H1432 N1427 0.984 . S
H1433 N1427 0.985 . S
H1434 N1431 0.984 . S
H1435 N1431 0.985 . S
H1436 N1430 0.984 . S
H1437 N1430 0.984 . S
H1438 N1426 0.984 . S
H1439 N1426 0.985 . S
C1440 C1441 1.363 . S
C1440 C1446 1.379 1_565 S
C1440 N1448 1.356 . S
C1441 C1440 1.363 . S
C1441 C1447 1.363 . S
C1442 C1443 1.363 . S
C1442 C1447 1.379 1_545 S
C1442 N1449 1.356 . S
C1443 C1442 1.363 . S
C1443 C1446 1.363 . S
N1444 C1446 1.356 . S
N1444 H1456 0.984 . S
N1444 H1457 0.985 . S
N1445 C1447 1.356 . S
N1445 H1450 0.984 . S
N1445 H1451 0.985 . S
C1446 C1440 1.379 1_545 S
C1446 C1443 1.363 . S
C1446 N1444 1.356 . S
C1447 C1441 1.363 . S
C1447 C1442 1.379 1_565 S
C1447 N1445 1.356 . S
N1448 C1440 1.356 . S
N1448 H1454 0.984 . S
N1448 H1455 0.984 . S
N1449 C1442 1.356 . S
N1449 H1452 0.984 . S
N1449 H1453 0.985 . S
H1450 N1445 0.984 . S
H1451 N1445 0.985 . S
H1452 N1449 0.984 . S
H1453 N1449 0.985 . S
H1454 N1448 0.984 . S
H1455 N1448 0.984 . S
H1456 N1444 0.984 . S
H1457 N1444 0.985 . S
C1458 C1459 1.363 . S
C1458 C1464 1.379 1_455 S
C1458 N1466 1.356 . S
C1459 C1458 1.363 . S
C1459 C1465 1.363 . S
C1460 C1461 1.363 . S
C1460 C1465 1.379 1_655 S
C1460 N1467 1.356 . S
C1461 C1460 1.363 . S
C1461 C1464 1.363 . S
N1462 C1464 1.356 . S
N1462 H1474 0.984 . S
N1462 H1475 0.985 . S
N1463 C1465 1.356 . S
N1463 H1468 0.984 . S
N1463 H1469 0.985 . S
C1464 C1458 1.379 1_655 S
C1464 C1461 1.363 . S
C1464 N1462 1.356 . S
C1465 C1459 1.363 . S
C1465 C1460 1.379 1_455 S
C1465 N1463 1.356 . S
N1466 C1458 1.356 . S
N1466 H1472 0.984 . S
N1466 H1473 0.984 . S
N1467 C1460 1.356 . S
N1467 H1470 0.984 . S
N1467 H1471 0.985 . S
H1468 N1463 0.984 . S
H1469 N1463 0.985 . S
H1470 N1467 0.984 . S
H1471 N1467 0.985 . S
H1472 N1466 0.984 . S
H1473 N1466 0.984 . S
H1474 N1462 0.984 . S
H1475 N1462 0.985 . S
C1476 C1477 1.363 . S
C1476 C1482 1.379 . S
C1476 N1484 1.356 . S
C1477 C1476 1.363 . S
C1477 C1483 1.363 . S
C1478 C1479 1.363 . S
C1478 C1483 1.379 . S
C1478 N1485 1.356 . S
C1479 C1478 1.363 . S
C1479 C1482 1.363 . S
N1480 C1482 1.356 . S
N1480 H1492 0.984 . S
N1480 H1493 0.985 . S
N1481 C1483 1.356 . S
N1481 H1486 0.984 1_556 S
N1481 H1487 0.985 . S
C1482 C1476 1.379 . S
C1482 C1479 1.363 . S
C1482 N1480 1.356 . S
C1483 C1477 1.363 . S
C1483 C1478 1.379 . S
C1483 N1481 1.356 . S
N1484 C1476 1.356 . S
N1484 H1490 0.984 . S
N1484 H1491 0.984 1_556 S
N1485 C1478 1.356 . S
N1485 H1488 0.984 . S
N1485 H1489 0.985 . S
H1486 N1481 0.984 1_554 S
H1487 N1481 0.985 . S
H1488 N1485 0.984 . S
H1489 N1485 0.985 . S
H1490 N1484 0.984 . S
H1491 N1484 0.984 1_554 S
H1492 N1480 0.984 . S
H1493 N1480 0.985 . S
C1494 C1495 1.363 . S
C1494 C1500 1.379 . S
C1494 N1502 1.356 1_556 S
C1495 C1494 1.363 . S
C1495 C1501 1.363 . S
C1496 C1497 1.363 . S
C1496 C1501 1.379 . S
C1496 N1503 1.356 . S
C1497 C1496 1.363 . S
C1497 C1500 1.363 . S
N1498 C1500 1.356 . S
N1498 H1510 0.984 . S
N1498 H1511 0.985 . S
N1499 C1501 1.356 . S
N1499 H1504 0.984 1_556 S
N1499 H1505 0.985 . S
C1500 C1494 1.379 . S
C1500 C1497 1.363 . S
C1500 N1498 1.356 . S
C1501 C1495 1.363 . S
C1501 C1496 1.379 . S
C1501 N1499 1.356 . S
N1502 C1494 1.356 1_554 S
N1502 H1508 0.984 1_554 S
N1502 H1509 0.984 . S
N1503 C1496 1.356 . S
N1503 H1506 0.984 . S
N1503 H1507 0.985 . S
H1504 N1499 0.984 1_554 S
H1505 N1499 0.985 . S
H1506 N1503 0.984 . S
H1507 N1503 0.985 . S
H1508 N1502 0.984 1_556 S
H1509 N1502 0.984 . S
H1510 N1498 0.984 . S
H1511 N1498 0.985 . S
C1512 C1513 1.363 . S
C1512 C1518 1.379 . S
C1512 N1520 1.356 1_556 S
C1513 C1512 1.363 . S
C1513 C1519 1.363 . S
C1514 C1515 1.363 . S
C1514 C1519 1.379 . S
C1514 N1521 1.356 . S
C1515 C1514 1.363 . S
C1515 C1518 1.363 . S
N1516 C1518 1.356 . S
N1516 H1528 0.984 . S
N1516 H1529 0.985 . S
N1517 C1519 1.356 . S
N1517 H1522 0.984 1_556 S
N1517 H1523 0.985 . S
C1518 C1512 1.379 . S
C1518 C1515 1.363 . S
C1518 N1516 1.356 . S
C1519 C1513 1.363 . S
C1519 C1514 1.379 . S
C1519 N1517 1.356 . S
N1520 C1512 1.356 1_554 S
N1520 H1526 0.984 1_554 S
N1520 H1527 0.984 . S
N1521 C1514 1.356 . S
N1521 H1524 0.984 . S
N1521 H1525 0.985 . S
H1522 N1517 0.984 1_554 S
H1523 N1517 0.985 . S
H1524 N1521 0.984 . S
H1525 N1521 0.985 . S
H1526 N1520 0.984 1_556 S
H1527 N1520 0.984 . S
H1528 N1516 0.984 . S
H1529 N1516 0.985 . S
C1530 C1531 1.363 . S
C1530 C1536 1.379 . S
C1530 N1538 1.356 . S
C1531 C1530 1.363 . S
C1531 C1537 1.363 . S
C1532 C1533 1.363 . S
C1532 C1537 1.379 . S
C1532 N1539 1.356 . S
C1533 C1532 1.363 . S
C1533 C1536 1.363 . S
N1534 C1536 1.356 . S
N1534 H1546 0.984 . S
N1534 H1547 0.985 . S
N1535 C1537 1.356 . S
N1535 H1540 0.984 . S
N1535 H1541 0.985 . S
C1536 C1530 1.379 . S
C1536 C1533 1.363 . S
C1536 N1534 1.356 . S
C1537 C1531 1.363 . S
C1537 C1532 1.379 . S
C1537 N1535 1.356 . S
N1538 C1530 1.356 . S
N1538 H1544 0.984 . S
N1538 H1545 0.984 . S
N1539 C1532 1.356 . S
N1539 H1542 0.984 . S
N1539 H1543 0.985 . S
H1540 N1535 0.984 . S
H1541 N1535 0.985 . S
H1542 N1539 0.984 . S
H1543 N1539 0.985 . S
H1544 N1538 0.984 . S
H1545 N1538 0.984 . S
H1546 N1534 0.984 . S
H1547 N1534 0.985 . S
C1548 C1549 1.363 . S
C1548 C1554 1.379 . S
C1548 N1556 1.356 . S
C1549 C1548 1.363 . S
C1549 C1555 1.363 . S
C1550 C1551 1.363 . S
C1550 C1555 1.379 . S
C1550 N1557 1.356 . S
C1551 C1550 1.363 . S
C1551 C1554 1.363 . S
N1552 C1554 1.356 . S
N1552 H1564 0.984 . S
N1552 H1565 0.985 . S
N1553 C1555 1.356 . S
N1553 H1558 0.984 . S
N1553 H1559 0.985 . S
C1554 C1548 1.379 . S
C1554 C1551 1.363 . S
C1554 N1552 1.356 . S
C1555 C1549 1.363 . S
C1555 C1550 1.379 . S
C1555 N1553 1.356 . S
N1556 C1548 1.356 . S
N1556 H1562 0.984 . S
N1556 H1563 0.984 . S
N1557 C1550 1.356 . S
N1557 H1560 0.984 . S
N1557 H1561 0.985 . S
H1558 N1553 0.984 . S
H1559 N1553 0.985 . S
H1560 N1557 0.984 . S
H1561 N1557 0.985 . S
H1562 N1556 0.984 . S
H1563 N1556 0.984 . S
H1564 N1552 0.984 . S
H1565 N1552 0.985 . S
C1566 C1567 1.363 . S
C1566 C1572 1.379 . S
C1566 N1574 1.356 . S
C1567 C1566 1.363 . S
C1567 C1573 1.363 . S
C1568 C1569 1.363 . S
C1568 C1573 1.379 . S
C1568 N1575 1.356 . S
C1569 C1568 1.363 . S
C1569 C1572 1.363 . S
N1570 C1572 1.356 . S
N1570 H1582 0.984 . S
N1570 H1583 0.985 . S
N1571 C1573 1.356 . S
N1571 H1576 0.984 . S
N1571 H1577 0.985 . S
C1572 C1566 1.379 . S
C1572 C1569 1.363 . S
C1572 N1570 1.356 . S
C1573 C1567 1.363 . S
C1573 C1568 1.379 . S
C1573 N1571 1.356 . S
N1574 C1566 1.356 . S
N1574 H1580 0.984 . S
N1574 H1581 0.984 . S
N1575 C1568 1.356 . S
N1575 H1578 0.984 . S
N1575 H1579 0.985 . S
H1576 N1571 0.984 . S
H1577 N1571 0.985 . S
H1578 N1575 0.984 . S
H1579 N1575 0.985 . S
H1580 N1574 0.984 . S
H1581 N1574 0.984 . S
H1582 N1570 0.984 . S
H1583 N1570 0.985 . S
C1584 C1585 1.363 . S
C1584 C1590 1.379 . S
C1584 N1592 1.356 . S
C1585 C1584 1.363 . S
C1585 C1591 1.363 . S
C1586 C1587 1.363 . S
C1586 C1591 1.379 . S
C1586 N1593 1.356 . S
C1587 C1586 1.363 . S
C1587 C1590 1.363 . S
N1588 C1590 1.356 . S
N1588 H1600 0.984 . S
N1588 H1601 0.985 1_554 S
N1589 C1591 1.356 . S
N1589 H1594 0.984 . S
N1589 H1595 0.985 . S
C1590 C1584 1.379 . S
C1590 C1587 1.363 . S
C1590 N1588 1.356 . S
C1591 C1585 1.363 . S
C1591 C1586 1.379 . S
C1591 N1589 1.356 . S
N1592 C1584 1.356 . S
N1592 H1598 0.984 . S
N1592 H1599 0.984 . S
N1593 C1586 1.356 . S
N1593 H1596 0.984 1_554 S
N1593 H1597 0.985 . S
H1594 N1589 0.984 . S
H1595 N1589 0.985 . S
H1596 N1593 0.984 1_556 S
H1597 N1593 0.985 . S
H1598 N1592 0.984 . S
H1599 N1592 0.984 . S
H1600 N1588 0.984 . S
H1601 N1588 0.985 1_556 S
C1602 C1603 1.363 . S
C1602 C1608 1.379 . S
C1602 N1610 1.356 . S
C1603 C1602 1.363 . S
C1603 C1609 1.363 . S
C1604 C1605 1.363 . S
C1604 C1609 1.379 . S
C1604 N1611 1.356 1_554 S
C1605 C1604 1.363 . S
C1605 C1608 1.363 . S
N1606 C1608 1.356 . S
N1606 H1618 0.984 . S
N1606 H1619 0.985 1_554 S
N1607 C1609 1.356 . S
N1607 H1612 0.984 . S
N1607 H1613 0.985 . S
C1608 C1602 1.379 . S
C1608 C1605 1.363 . S
C1608 N1606 1.356 . S
C1609 C1603 1.363 . S
C1609 C1604 1.379 . S
C1609 N1607 1.356 . S
N1610 C1602 1.356 . S
N1610 H1616 0.984 . S
N1610 H1617 0.984 . S
N1611 C1604 1.356 1_556 S
N1611 H1614 0.984 . S
N1611 H1615 0.985 1_556 S
H1612 N1607 0.984 . S
H1613 N1607 0.985 . S
H1614 N1611 0.984 . S
H1615 N1611 0.985 1_554 S
H1616 N1610 0.984 . S
H1617 N1610 0.984 . S
H1618 N1606 0.984 . S
H1619 N1606 0.985 1_556 S
C1620 C1621 1.363 . S
C1620 C1626 1.379 . S
C1620 N1628 1.356 . S
C1621 C1620 1.363 . S
C1621 C1627 1.363 . S
C1622 C1623 1.363 . S
C1622 C1627 1.379 . S
C1622 N1629 1.356 . S
C1623 C1622 1.363 . S
C1623 C1626 1.363 . S
N1624 C1626 1.356 1_556 S
N1624 H1636 0.983 1_556 S
N1624 H1637 0.985 . S
N1625 C1627 1.356 . S
N1625 H1630 0.984 . S
N1625 H1631 0.985 . S
C1626 C1620 1.379 . S
C1626 C1623 1.363 . S
C1626 N1624 1.356 1_554 S
C1627 C1621 1.363 . S
C1627 C1622 1.379 . S
C1627 N1625 1.356 . S
N1628 C1620 1.356 . S
N1628 H1634 0.984 . S
N1628 H1635 0.984 . S
N1629 C1622 1.356 . S
N1629 H1632 0.984 1_554 S
N1629 H1633 0.985 . S
H1630 N1625 0.984 . S
H1631 N1625 0.985 . S
H1632 N1629 0.984 1_556 S
H1633 N1629 0.985 . S
H1634 N1628 0.984 . S
H1635 N1628 0.984 . S
H1636 N1624 0.983 1_554 S
H1637 N1624 0.985 . S
C1638 C1639 1.363 . S
C1638 C1644 1.379 . S
C1638 N1646 1.356 . S
C1639 C1638 1.363 . S
C1639 C1645 1.363 . S
C1640 C1641 1.363 . S
C1640 C1645 1.379 . S
C1640 N1647 1.356 . S
C1641 C1640 1.363 . S
C1641 C1644 1.363 . S
N1642 C1644 1.356 . S
N1642 H1654 0.984 . S
N1642 H1655 0.985 . S
N1643 C1645 1.356 . S
N1643 H1648 0.984 . S
N1643 H1649 0.985 . S
C1644 C1638 1.379 . S
C1644 C1641 1.363 . S
C1644 N1642 1.356 . S
C1645 C1639 1.363 . S
C1645 C1640 1.379 . S
C1645 N1643 1.356 . S
N1646 C1638 1.356 . S
N1646 H1652 0.984 . S
N1646 H1653 0.984 . S
N1647 C1640 1.356 . S
N1647 H1650 0.984 . S
N1647 H1651 0.985 . S
H1648 N1643 0.984 . S
H1649 N1643 0.985 . S
H1650 N1647 0.984 . S
H1651 N1647 0.985 . S
H1652 N1646 0.984 . S
H1653 N1646 0.984 . S
H1654 N1642 0.984 . S
H1655 N1642 0.985 . S
C1656 C1657 1.363 . S
C1656 C1662 1.379 . S
C1656 N1664 1.356 . S
C1657 C1656 1.363 . S
C1657 C1663 1.363 . S
C1658 C1659 1.363 . S
C1658 C1663 1.379 . S
C1658 N1665 1.356 . S
C1659 C1658 1.363 . S
C1659 C1662 1.363 . S
N1660 C1662 1.356 . S
N1660 H1672 0.984 . S
N1660 H1673 0.985 . S
N1661 C1663 1.356 . S
N1661 H1666 0.984 . S
N1661 H1667 0.985 . S
C1662 C1656 1.379 . S
C1662 C1659 1.363 . S
C1662 N1660 1.356 . S
C1663 C1657 1.363 . S
C1663 C1658 1.379 . S
C1663 N1661 1.356 . S
N1664 C1656 1.356 . S
N1664 H1670 0.984 . S
N1664 H1671 0.984 . S
N1665 C1658 1.356 . S
N1665 H1668 0.984 . S
N1665 H1669 0.985 . S
H1666 N1661 0.984 . S
H1667 N1661 0.985 . S
H1668 N1665 0.984 . S
H1669 N1665 0.985 . S
H1670 N1664 0.984 . S
H1671 N1664 0.984 . S
H1672 N1660 0.984 . S
H1673 N1660 0.985 . S
C1674 C1675 1.363 . S
C1674 C1680 1.379 . S
C1674 N1682 1.356 . S
C1675 C1674 1.363 . S
C1675 C1681 1.363 . S
C1676 C1677 1.363 . S
C1676 C1681 1.379 . S
C1676 N1683 1.356 . S
C1677 C1676 1.363 . S
C1677 C1680 1.363 . S
N1678 C1680 1.356 . S
N1678 H1690 0.984 . S
N1678 H1691 0.985 . S
N1679 C1681 1.356 . S
N1679 H1684 0.984 . S
N1679 H1685 0.985 . S
C1680 C1674 1.379 . S
C1680 C1677 1.363 . S
C1680 N1678 1.356 . S
C1681 C1675 1.363 . S
C1681 C1676 1.379 . S
C1681 N1679 1.356 . S
N1682 C1674 1.356 . S
N1682 H1688 0.984 . S
N1682 H1689 0.984 . S
N1683 C1676 1.356 . S
N1683 H1686 0.984 . S
N1683 H1687 0.985 . S
H1684 N1679 0.984 . S
H1685 N1679 0.985 . S
H1686 N1683 0.984 . S
H1687 N1683 0.985 . S
H1688 N1682 0.984 . S
H1689 N1682 0.984 . S
H1690 N1678 0.984 . S
H1691 N1678 0.985 . S
C1692 C1693 1.363 . S
C1692 C1698 1.379 . S
C1692 N1700 1.356 . S
C1693 C1692 1.363 . S
C1693 C1699 1.363 1_655 S
C1694 C1695 1.363 . S
C1694 C1699 1.379 . S
C1694 N1701 1.356 . S
C1695 C1694 1.363 . S
C1695 C1698 1.363 1_455 S
N1696 C1698 1.356 . S
N1696 H1708 0.984 . S
N1696 H1709 0.985 . S
N1697 C1699 1.356 . S
N1697 H1702 0.984 . S
N1697 H1703 0.985 . S
C1698 C1692 1.379 . S
C1698 C1695 1.363 1_655 S
C1698 N1696 1.356 . S
C1699 C1693 1.363 1_455 S
C1699 C1694 1.379 . S
C1699 N1697 1.356 . S
N1700 C1692 1.356 . S
N1700 H1706 0.984 . S
N1700 H1707 0.984 . S
N1701 C1694 1.356 . S
N1701 H1704 0.984 . S
N1701 H1705 0.985 . S
H1702 N1697 0.984 . S
H1703 N1697 0.985 . S
H1704 N1701 0.984 . S
H1705 N1701 0.985 . S
H1706 N1700 0.984 . S
H1707 N1700 0.984 . S
H1708 N1696 0.984 . S
H1709 N1696 0.985 . S
C1710 C1711 1.363 . S
C1710 C1716 1.379 . S
C1710 N1718 1.356 . S
C1711 C1710 1.363 . S
C1711 C1717 1.363 . S
C1712 C1713 1.363 . S
C1712 C1717 1.379 . S
C1712 N1719 1.356 . S
C1713 C1712 1.363 . S
C1713 C1716 1.363 . S
N1714 C1716 1.356 . S
N1714 H1726 0.984 . S
N1714 H1727 0.985 . S
N1715 C1717 1.356 . S
N1715 H1720 0.984 . S
N1715 H1721 0.985 . S
C1716 C1710 1.379 . S
C1716 C1713 1.363 . S
C1716 N1714 1.356 . S
C1717 C1711 1.363 . S
C1717 C1712 1.379 . S
C1717 N1715 1.356 . S
N1718 C1710 1.356 . S
N1718 H1724 0.984 . S
N1718 H1725 0.984 . S
N1719 C1712 1.356 . S
N1719 H1722 0.984 . S
N1719 H1723 0.985 . S
H1720 N1715 0.984 . S
H1721 N1715 0.985 . S
H1722 N1719 0.984 . S
H1723 N1719 0.985 . S
H1724 N1718 0.984 . S
H1725 N1718 0.984 . S
H1726 N1714 0.984 . S
H1727 N1714 0.985 . S
C1728 C1729 1.363 1_545 S
C1728 C1734 1.379 . S
C1728 N1736 1.356 . S
C1729 C1728 1.363 1_565 S
C1729 C1735 1.363 . S
C1730 C1731 1.363 1_565 S
C1730 C1735 1.379 . S
C1730 N1737 1.356 . S
C1731 C1730 1.363 1_545 S
C1731 C1734 1.363 . S
N1732 C1734 1.356 . S
N1732 H1744 0.984 . S
N1732 H1745 0.985 . S
N1733 C1735 1.356 . S
N1733 H1738 0.984 . S
N1733 H1739 0.985 . S
C1734 C1728 1.379 . S
C1734 C1731 1.363 . S
C1734 N1732 1.356 . S
C1735 C1729 1.363 . S
C1735 C1730 1.379 . S
C1735 N1733 1.356 . S
N1736 C1728 1.356 . S
N1736 H1742 0.984 . S
N1736 H1743 0.984 . S
N1737 C1730 1.356 . S
N1737 H1740 0.984 . S
N1737 H1741 0.985 . S
H1738 N1733 0.984 . S
H1739 N1733 0.985 . S
H1740 N1737 0.984 . S
H1741 N1737 0.985 . S
H1742 N1736 0.984 . S
H1743 N1736 0.984 . S
H1744 N1732 0.984 . S
H1745 N1732 0.985 . S
C1746 C1747 1.363 . S
C1746 C1752 1.379 . S
C1746 N1754 1.356 . S
C1747 C1746 1.363 . S
C1747 C1753 1.363 1_565 S
C1748 C1749 1.363 . S
C1748 C1753 1.379 . S
C1748 N1755 1.356 . S
C1749 C1748 1.363 . S
C1749 C1752 1.363 1_545 S
N1750 C1752 1.356 . S
N1750 H1762 0.984 . S
N1750 H1763 0.985 . S
N1751 C1753 1.356 . S
N1751 H1756 0.984 . S
N1751 H1757 0.985 . S
C1752 C1746 1.379 . S
C1752 C1749 1.363 1_565 S
C1752 N1750 1.356 . S
C1753 C1747 1.363 1_545 S
C1753 C1748 1.379 . S
C1753 N1751 1.356 . S
N1754 C1746 1.356 . S
N1754 H1760 0.984 . S
N1754 H1761 0.984 . S
N1755 C1748 1.356 . S
N1755 H1758 0.984 . S
N1755 H1759 0.985 . S
H1756 N1751 0.984 . S
H1757 N1751 0.985 . S
H1758 N1755 0.984 . S
H1759 N1755 0.985 . S
H1760 N1754 0.984 . S
H1761 N1754 0.984 . S
H1762 N1750 0.984 . S
H1763 N1750 0.985 . S
C1764 C1765 1.363 1_455 S
C1764 C1770 1.379 . S
C1764 N1772 1.356 . S
C1765 C1764 1.363 1_655 S
C1765 C1771 1.363 . S
C1766 C1767 1.363 1_655 S
C1766 C1771 1.379 . S
C1766 N1773 1.356 . S
C1767 C1766 1.363 1_455 S
C1767 C1770 1.363 . S
N1768 C1770 1.356 . S
N1768 H1780 0.984 . S
N1768 H1781 0.985 . S
N1769 C1771 1.356 . S
N1769 H1774 0.984 . S
N1769 H1775 0.985 . S
C1770 C1764 1.379 . S
C1770 C1767 1.363 . S
C1770 N1768 1.356 . S
C1771 C1765 1.363 . S
C1771 C1766 1.379 . S
C1771 N1769 1.356 . S
N1772 C1764 1.356 . S
N1772 H1778 0.984 . S
N1772 H1779 0.984 . S
N1773 C1766 1.356 . S
N1773 H1776 0.984 . S
N1773 H1777 0.985 . S
H1774 N1769 0.984 . S
H1775 N1769 0.985 . S
H1776 N1773 0.984 . S
H1777 N1773 0.985 . S
H1778 N1772 0.984 . S
H1779 N1772 0.984 . S
H1780 N1768 0.984 . S
H1781 N1768 0.985 . S
C1782 C1783 1.363 . S
C1782 C1788 1.379 . S
C1782 N1790 1.356 . S
C1783 C1782 1.363 . S
C1783 C1789 1.363 . S
C1784 C1785 1.363 . S
C1784 C1789 1.379 . S
C1784 N1791 1.356 . S
C1785 C1784 1.363 . S
C1785 C1788 1.363 . S
N1786 C1788 1.356 . S
N1786 H1798 0.984 . S
N1786 H1799 0.985 . S
N1787 C1789 1.356 . S
N1787 H1792 0.984 . S
N1787 H1793 0.985 . S
C1788 C1782 1.379 . S
C1788 C1785 1.363 . S
C1788 N1786 1.356 . S
C1789 C1783 1.363 . S
C1789 C1784 1.379 . S
C1789 N1787 1.356 . S
N1790 C1782 1.356 . S
N1790 H1796 0.984 . S
N1790 H1797 0.984 . S
N1791 C1784 1.356 . S
N1791 H1794 0.984 . S
N1791 H1795 0.985 . S
H1792 N1787 0.984 . S
H1793 N1787 0.985 . S
H1794 N1791 0.984 . S
H1795 N1791 0.985 . S
H1796 N1790 0.984 . S
H1797 N1790 0.984 . S
H1798 N1786 0.984 . S
H1799 N1786 0.985 . S
C505 C224 1.753 . S
C507 C13 1.752 . S
C523 C250 1.753 . S
C525 C15 1.752 . S
C541 C223 1.752 . S
C543 C29 1.752 . S
C559 C365 1.728 1_554 S
C561 C55 1.728 . S
C577 C57 1.728 . S
C579 C349 1.728 1_554 S
C595 C83 1.728 . S
C597 C350 1.729 1_554 S
C613 C97 1.753 . S
C615 C476 1.752 . S
C631 C502 1.752 . S
C633 C99 1.753 . S
C649 C462 1.752 . S
C651 C112 1.752 . S
C667 C127 1.729 . S
C669 C293 1.729 1_556 S
C685 C252 1.728 1_556 S
C687 C140 1.728 . S
C703 C167 1.729 . S
C705 C267 1.729 1_556 S
C721 C405 1.673 . S
C723 C168 1.672 . S
C739 C195 1.674 . S
C741 C407 1.671 . S
C757 C379 1.673 . S
C759 C197 1.672 . S
C775 C460 1.674 . S
C777 C295 1.672 . S
C793 C421 1.675 . S
C795 C320 1.671 . S
C811 C335 1.674 . S
C813 C435 1.672 . S
C829 C265 1.759 . S
C831 C0 1.758 . S
C847 C278 1.757 . S
C849 C26 1.758 . S
C865 C280 1.756 . S
C867 C40 1.758 . S
C883 C42 1.760 . S
C885 C475 1.760 . S
C901 C68 1.761 . S
C903 C489 1.760 . S
C919 C70 1.761 . S
C921 C491 1.760 . S
C937 C84 1.755 . S
C939 C336 1.759 . S
C955 C363 1.757 . S
C957 C110 1.755 . S
C973 C376 1.759 . S
C975 C125 1.758 . S
C991 C210 1.760 . S
C993 C138 1.757 . S
C1009 C153 1.761 . S
C1011 C237 1.757 . S
C1027 C154 1.758 . S
C1029 C239 1.757 . S
C1045 C181 1.753 . S
C1047 C432 1.753 . S
C1063 C446 1.753 . S
C1065 C182 1.756 . S
C1081 C449 1.756 . S
C1083 C208 1.756 . S
C1099 C390 1.767 . S
C1101 C306 1.764 . S
C1117 C309 1.767 . S
C1119 C392 1.768 . S
C1135 C322 1.764 . S
C1137 C418 1.767 . S
C1153 C391 1.757 . S
C1155 C1 1.755 . S
C1171 C27 1.755 . S
C1173 C393 1.758 . S
C1189 C41 1.755 . S
C1191 C419 1.758 . S
C1207 C180 1.725 . S
C1209 C43 1.725 . S
C1225 C69 1.725 . S
C1227 C183 1.724 . S
C1243 C71 1.724 . S
C1245 C209 1.724 . S
C1261 C307 1.758 . S
C1263 C85 1.757 . S
C1279 C111 1.756 . S
C1281 C308 1.758 . S
C1297 C323 1.758 . S
C1299 C124 1.755 . S
C1315 C139 1.726 . S
C1317 C433 1.725 . S
C1333 C447 1.725 . S
C1335 C152 1.725 . S
C1351 C448 1.724 . S
C1353 C155 1.726 . S
C1369 C337 1.739 . S
C1371 C211 1.739 . S
C1387 C362 1.740 . S
C1389 C236 1.740 . S
C1405 C377 1.739 . S
C1407 C238 1.740 . S
C1423 C264 1.739 . S
C1425 C474 1.738 . S
C1441 C488 1.738 . S
C1443 C279 1.740 . S
C1459 C490 1.739 . S
C1461 C281 1.741 . S
C1477 C12 1.097 1_556 S
C1479 C225 1.096 . S
C1495 C14 1.097 1_556 S
C1497 C251 1.096 . S
C1513 C28 1.097 1_556 S
C1515 C222 1.097 . S
C1531 C364 1.122 . S
C1533 C54 1.121 . S
C1549 C348 1.122 . S
C1551 C56 1.121 . S
C1567 C351 1.121 . S
C1569 C82 1.121 . S
C1585 C477 1.097 . S
C1587 C96 1.097 1_554 S
C1603 C503 1.096 . S
C1605 C98 1.097 1_554 S
C1621 C463 1.097 . S
C1623 C113 1.097 1_554 S
C1639 C126 1.121 . S
C1641 C292 1.121 . S
C1657 C141 1.121 . S
C1659 C253 1.122 . S
C1675 C166 1.121 . S
C1677 C266 1.121 . S
C1693 C404 1.183 . S
C1695 C169 1.185 . S
C1711 C406 1.183 . S
C1713 C194 1.186 . S
C1729 C196 1.184 . S
C1731 C378 1.185 . S
C1747 C294 1.183 . S
C1749 C461 1.186 . S
C1765 C420 1.183 . S
C1767 C321 1.185 . S
C1783 C434 1.184 . S
C1785 C334 1.185 . S
