# Generated by pormake.
# Topology wkj, (6)-cn, num edge types: 1
# Building blocks:
#     Node 0, Type 0, BuildingBlock: FUNLAD_clean_sbu_0, # of connection points: 6
#     Node 1, Type 0, BuildingBlock: FUNLAD_clean_sbu_0, # of connection points: 6
#     Node 2, Type 0, BuildingBlock: FUNLAD_clean_sbu_0, # of connection points: 6
#     Node 3, Type 0, BuildingBlock: FUNLAD_clean_sbu_0, # of connection points: 6
#     Node 4, Type 0, BuildingBlock: FUNLAD_clean_sbu_0, # of connection points: 6
#     Node 5, Type 0, BuildingBlock: FUNLAD_clean_sbu_0, # of connection points: 6
#     Node 6, Type 0, BuildingBlock: FUNLAD_clean_sbu_0, # of connection points: 6
#     Node 7, Type 0, BuildingBlock: FUNLAD_clean_sbu_0, # of connection points: 6
#     Node 8, Type 0, BuildingBlock: FUNLAD_clean_sbu_0, # of connection points: 6
#     Node 9, Type 0, BuildingBlock: FUNLAD_clean_sbu_0, # of connection points: 6
#     Node 10, Type 0, BuildingBlock: FUNLAD_clean_sbu_0, # of connection points: 6
#     Node 11, Type 0, BuildingBlock: FUNLAD_clean_sbu_0, # of connection points: 6
#     Edge 12, Type (0, 0), BuildingBlock: AJUNOK_clean_linker_0, # of connection points: 2
#     Edge 13, Type (0, 0), BuildingBlock: AJUNOK_clean_linker_0, # of connection points: 2
#     Edge 14, Type (0, 0), BuildingBlock: AJUNOK_clean_linker_0, # of connection points: 2
#     Edge 15, Type (0, 0), BuildingBlock: AJUNOK_clean_linker_0, # of connection points: 2
#     Edge 16, Type (0, 0), BuildingBlock: AJUNOK_clean_linker_0, # of connection points: 2
#     Edge 17, Type (0, 0), BuildingBlock: AJUNOK_clean_linker_0, # of connection points: 2
#     Edge 18, Type (0, 0), BuildingBlock: AJUNOK_clean_linker_0, # of connection points: 2
#     Edge 19, Type (0, 0), BuildingBlock: AJUNOK_clean_linker_0, # of connection points: 2
#     Edge 20, Type (0, 0), BuildingBlock: AJUNOK_clean_linker_0, # of connection points: 2
#     Edge 21, Type (0, 0), BuildingBlock: AJUNOK_clean_linker_0, # of connection points: 2
#     Edge 22, Type (0, 0), BuildingBlock: AJUNOK_clean_linker_0, # of connection points: 2
#     Edge 23, Type (0, 0), BuildingBlock: AJUNOK_clean_linker_0, # of connection points: 2
#     Edge 24, Type (0, 0), BuildingBlock: AJUNOK_clean_linker_0, # of connection points: 2
#     Edge 25, Type (0, 0), BuildingBlock: AJUNOK_clean_linker_0, # of connection points: 2
#     Edge 26, Type (0, 0), BuildingBlock: AJUNOK_clean_linker_0, # of connection points: 2
#     Edge 27, Type (0, 0), BuildingBlock: AJUNOK_clean_linker_0, # of connection points: 2
#     Edge 28, Type (0, 0), BuildingBlock: AJUNOK_clean_linker_0, # of connection points: 2
#     Edge 29, Type (0, 0), BuildingBlock: AJUNOK_clean_linker_0, # of connection points: 2
#     Edge 30, Type (0, 0), BuildingBlock: AJUNOK_clean_linker_0, # of connection points: 2
#     Edge 31, Type (0, 0), BuildingBlock: AJUNOK_clean_linker_0, # of connection points: 2
#     Edge 32, Type (0, 0), BuildingBlock: AJUNOK_clean_linker_0, # of connection points: 2
#     Edge 33, Type (0, 0), BuildingBlock: AJUNOK_clean_linker_0, # of connection points: 2
#     Edge 34, Type (0, 0), BuildingBlock: AJUNOK_clean_linker_0, # of connection points: 2
#     Edge 35, Type (0, 0), BuildingBlock: AJUNOK_clean_linker_0, # of connection points: 2
#     Edge 36, Type (0, 0), BuildingBlock: AJUNOK_clean_linker_0, # of connection points: 2
#     Edge 37, Type (0, 0), BuildingBlock: AJUNOK_clean_linker_0, # of connection points: 2
#     Edge 38, Type (0, 0), BuildingBlock: AJUNOK_clean_linker_0, # of connection points: 2
#     Edge 39, Type (0, 0), BuildingBlock: AJUNOK_clean_linker_0, # of connection points: 2
#     Edge 40, Type (0, 0), BuildingBlock: AJUNOK_clean_linker_0, # of connection points: 2
#     Edge 41, Type (0, 0), BuildingBlock: AJUNOK_clean_linker_0, # of connection points: 2
#     Edge 42, Type (0, 0), BuildingBlock: AJUNOK_clean_linker_0, # of connection points: 2
#     Edge 43, Type (0, 0), BuildingBlock: AJUNOK_clean_linker_0, # of connection points: 2
#     Edge 44, Type (0, 0), BuildingBlock: AJUNOK_clean_linker_0, # of connection points: 2
#     Edge 45, Type (0, 0), BuildingBlock: AJUNOK_clean_linker_0, # of connection points: 2
#     Edge 46, Type (0, 0), BuildingBlock: AJUNOK_clean_linker_0, # of connection points: 2
#     Edge 47, Type (0, 0), BuildingBlock: AJUNOK_clean_linker_0, # of connection points: 2
# Relax obj value: 1.478
# Max RMSD: 0.256
# Mean RMSD: 0.256
data_MOF--net-wkj--node1-FUNLAD_clean_sbu_0--edge1-AJUNOK_clean_linker_0
_symmetry_space_group_name_H-M    P1
_symmetry_Int_Tables_number       1
_symmetry_cell_setting            triclinic
loop_
_symmetry_equiv_pos_as_xyz
'x, y, z'
_cell_length_a     55.926877
_cell_length_b     55.84123
_cell_length_c     15.557533
_cell_angle_alpha  89.918069
_cell_angle_beta   90.276179
_cell_angle_gamma 120.05784
loop_
_atom_site_label
_atom_site_type_symbol
_atom_site_fract_x
_atom_site_fract_y
_atom_site_fract_z
_atom_type_partial_charge
C0 C 0.52371 0.09753 0.14911 0.0
N1 N 0.47406 0.13807 0.23067 0.0
C2 C 0.48001 0.14906 0.14954 0.0
C3 C 0.47985 0.17381 0.1282 0.0
C4 C 0.47365 0.18851 0.19008 0.0
C5 C 0.46696 0.17628 0.27277 0.0
C6 C 0.46745 0.1515 0.29164 0.0
Zn7 Zn 0.47797 0.10096 0.26402 0.0
C8 C 0.43963 0.04655 0.14897 0.0
N9 N 0.48393 0.02872 0.33233 0.0
C10 C 0.48913 1.0096 0.28402 0.0
C11 C 0.48485 0.03228 0.4259 0.0
C12 C 0.51544 0.02188 0.53665 0.0
C13 C 0.49642 0.9947 0.44458 0.0
C14 C 0.49943 0.99408 0.32668 0.0
Zn15 Zn 0.48212 0.06251 0.27575 0.0
O16 O 0.5123 0.11233 0.16375 0.0
C17 C 0.52168 0.11185 0.39737 0.0
O18 O 0.51468 0.07464 0.18855 0.0
H19 H 0.48393 0.03731 0.36366 0.0
H20 H 0.48524 0.1388 0.10037 0.0
H21 H 0.48762 1.00916 0.21468 0.0
O22 O 0.5112 0.12589 0.36647 0.0
O23 O 0.51237 0.08769 0.36861 0.0
H24 H 0.46292 0.14332 0.35631 0.0
O25 O 0.44989 0.04951 0.35775 0.0
O26 O 0.44411 0.08492 0.36963 0.0
O27 O 0.45392 0.03787 0.18676 0.0
O28 O 0.44487 0.07159 0.16394 0.0
C29 C 0.43707 0.05999 0.39116 0.0
H30 H 0.48437 0.18116 0.06264 0.0
H31 H 0.46199 0.18618 0.32386 0.0
H32 H 0.51379 0.01598 0.60321 0.0
H33 H 0.49972 0.97749 0.29275 0.0
C34 C 0.43628 0.50601 0.45441 0.0
N35 N 0.35279 0.47399 0.57098 0.0
C36 C 0.35163 0.49778 0.58074 0.0
C37 C 0.32661 0.49828 0.56712 0.0
C38 C 0.30173 0.47418 0.54241 0.0
C39 C 0.30375 0.45009 0.53253 0.0
C40 C 0.32904 0.4504 0.54734 0.0
Zn41 Zn 0.39131 0.4713 0.58553 0.0
C42 C 0.38883 0.42521 0.47421 0.0
N43 N 0.45275 0.4491 0.59849 0.0
C44 C 0.47407 0.45482 0.54501 0.0
C45 C 0.4442 0.42621 0.64967 0.0
C46 C 0.46315 0.41852 0.67723 0.0
C47 C 0.49049 0.43728 0.65714 0.0
C48 C 0.49381 0.44809 0.57274 0.0
Zn49 Zn 0.42698 0.46625 0.59578 0.0
O50 O 0.41542 0.50543 0.4911 0.0
C51 C 0.43813 0.51476 0.70755 0.0
O52 O 0.44288 0.48802 0.47673 0.0
H53 H 0.42358 0.41479 0.67255 0.0
H54 H 0.37022 0.5167 0.59838 0.0
H55 H 0.47627 0.46508 0.4844 0.0
O56 O 0.41172 0.50371 0.69482 0.0
O57 O 0.45093 0.5049 0.6653 0.0
H58 H 0.32952 0.43141 0.53922 0.0
O59 O 0.41388 0.4485 0.71253 0.0
O60 O 0.37098 0.43602 0.6877 0.0
O61 O 0.40483 0.42887 0.5353 0.0
O62 O 0.37824 0.44091 0.47187 0.0
C63 C 0.38911 0.43402 0.73363 0.0
H64 H 0.32706 0.51778 0.57417 0.0
H65 H 0.2857 0.43076 0.51422 0.0
H66 H 0.45791 0.40424 0.73037 0.0
H67 H 0.51357 0.45785 0.54074 0.0
C68 C 0.93187 0.43126 0.79141 0.0
N69 N 0.89263 0.3481 0.90256 0.0
C70 C 0.8809 0.34121 0.82218 0.0
C71 C 0.85587 0.31602 0.80541 0.0
C72 C 0.84159 0.29645 0.871 0.0
C73 C 0.85457 0.30383 0.95319 0.0
C74 C 0.87963 0.32946 0.96753 0.0
Zn75 Zn 0.93107 0.39014 0.91755 0.0
C76 C 0.97809 0.39838 0.79337 0.0
N77 N 1.00623 0.46913 0.92888 0.0
C78 C 1.00907 0.48247 0.85329 0.0
C79 C 1.00688 0.48141 1.00429 0.0
C80 C 0.99831 0.50079 1.0049 0.0
C81 C 0.99311 0.50977 0.92616 0.0
C82 C 1.0006 0.50202 0.84941 0.0
Zn83 Zn 0.97177 0.43079 0.93017 0.0
O84 O 0.91317 0.40776 0.8199 0.0
C85 C 0.92936 0.42959 0.06123 0.0
O86 O 0.95519 0.44251 0.82823 0.0
H87 H 1.00568 0.47078 0.06353 0.0
H88 H 0.8908 0.35548 0.76968 0.0
H89 H 1.01075 0.47332 0.79406 0.0
O90 O 0.91398 0.40447 0.03378 0.0
O91 O 0.95267 0.44386 0.02586 0.0
H92 H 0.88852 0.3343 0.03144 0.0
O93 O 0.98901 0.41975 0.02343 0.0
O94 O 0.95548 0.37647 0.01198 0.0
O95 O 0.99086 0.41906 0.84213 0.0
O96 O 0.95205 0.38204 0.80527 0.0
C97 C 0.97953 0.39467 0.04232 0.0
H98 H 0.84753 0.31225 0.74078 0.0
H99 H 0.84576 0.28979 0.0068 0.0
H100 H 0.99227 0.50562 0.06556 0.0
H101 H 0.99688 0.50827 0.78723 0.0
C102 C 0.51242 0.93045 0.10506 0.0
N103 N 0.55665 0.88769 0.21432 0.0
C104 C 0.54254 0.8703 0.14719 0.0
C105 C 0.54203 0.8448 0.13415 0.0
C106 C 0.5562 0.83599 0.18982 0.0
C107 C 0.57094 0.85457 0.25787 0.0
C108 C 0.57079 0.87986 0.26906 0.0
Zn109 Zn 0.55731 0.92825 0.22877 0.0
C110 C 0.59962 0.97545 0.108 0.0
N111 N 0.56356 1.00828 0.23031 0.0
C112 C 0.54716 0.01836 0.20402 0.0
C113 C 0.58851 0.02659 0.2678 0.0
C114 C 0.59119 0.04938 0.31243 0.0
C115 C 0.56695 0.0503 0.31999 0.0
C116 C 0.5511 0.0426 0.2437 0.0
Zn117 Zn 0.55401 0.9673 0.22442 0.0
O118 O 0.52225 0.9151 0.13049 0.0
C119 C 0.51069 0.92612 0.35291 0.0
O120 O 0.52462 0.95575 0.12797 0.0
H121 H 0.60471 0.02192 0.27631 0.0
H122 H 0.53152 0.87604 0.1022 0.0
H123 H 0.52974 1.00647 0.16176 0.0
O124 O 0.52253 0.9119 0.33393 0.0
O125 O 0.52014 0.94974 0.31689 0.0
H126 H 0.58242 0.89335 0.32178 0.0
O127 O 0.5817 0.97811 0.32266 0.0
O128 O 0.59138 0.94527 0.3324 0.0
O129 O 0.58519 0.98469 0.13883 0.0
O130 O 0.59263 0.9502 0.12599 0.0
C131 C 0.59653 0.96953 0.35468 0.0
H132 H 0.5302 0.83189 0.08053 0.0
H133 H 0.5832 0.8501 0.30189 0.0
H134 H 0.60783 0.0597 0.35871 0.0
H135 H 0.53664 0.04948 0.23159 0.0
C136 C 0.60568 0.50676 0.43215 0.0
N137 N 0.68734 0.55809 0.56371 0.0
C138 C 0.68856 0.53418 0.56266 0.0
C139 C 0.71372 0.53421 0.54918 0.0
C140 C 0.73892 0.55905 0.53543 0.0
C141 C 0.73714 0.58353 0.53856 0.0
C142 C 0.71144 0.58261 0.55215 0.0
Zn143 Zn 0.64524 0.55353 0.5722 0.0
C144 C 0.63487 0.5927 0.45162 0.0
N145 N 0.56253 0.54092 0.54359 0.0
C146 C 0.538 0.52002 0.5128 0.0
C147 C 0.56205 0.56261 0.58322 0.0
C148 C 0.53751 0.55795 0.62173 0.0
C149 C 0.51633 0.53047 0.62815 0.0
C150 C 0.51367 0.51724 0.54905 0.0
Zn151 Zn 0.60051 0.54208 0.54809 0.0
O152 O 0.62993 0.51915 0.46718 0.0
C153 C 0.60488 0.50193 0.67856 0.0
O154 O 0.58904 0.51514 0.44904 0.0
H155 H 0.58054 0.58233 0.59221 0.0
H156 H 0.6697 0.51458 0.57046 0.0
H157 H 0.53729 0.50578 0.46446 0.0
O158 O 0.63103 0.51874 0.67196 0.0
O159 O 0.58912 0.50725 0.63289 0.0
H160 H 0.71093 0.60172 0.55214 0.0
O161 O 0.61117 0.56948 0.65438 0.0
O162 O 0.65466 0.58577 0.68195 0.0
O163 O 0.61102 0.57356 0.4692 0.0
O164 O 0.65549 0.59004 0.47645 0.0
C165 C 0.63206 0.58568 0.69902 0.0
H166 H 0.71314 0.51455 0.54731 0.0
H167 H 0.75553 0.60354 0.53109 0.0
H168 H 0.53606 0.57449 0.65254 0.0
H169 H 0.49409 0.50683 0.517 0.0
C170 C 0.09142 0.58861 0.7807 0.0
N171 N 0.13989 0.6748 0.90109 0.0
C172 C 0.16367 0.67462 0.88161 0.0
C173 C 0.18902 0.6995 0.86453 0.0
C174 C 0.19099 0.72584 0.86676 0.0
C175 C 0.16604 0.72528 0.88714 0.0
C176 C 0.14112 0.69995 0.90389 0.0
Zn177 Zn 0.0989 0.63528 0.9134 0.0
C178 C 0.05518 0.6367 0.80611 0.0
N179 N 1.01718 0.5615 0.92572 0.0
C180 C 1.0017 0.55664 0.8283 0.0
C181 C 1.00258 0.55528 0.02442 0.0
C182 C 0.96514 0.54237 0.03734 0.0
C183 C 0.94413 0.5382 0.92976 0.0
C184 C 0.96416 0.54411 0.81905 0.0
Zn185 Zn 0.05796 0.59391 0.92362 0.0
O186 O 0.10953 0.61342 0.80468 0.0
C187 C 0.0999 0.58856 0.03234 0.0
O188 O 0.06816 0.57698 0.81851 0.0
H189 H 1.01549 0.56086 0.08128 0.0
H190 H 0.16306 0.65499 0.87703 0.0
H191 H 1.01416 0.56333 0.7708 0.0
O192 O 0.11452 0.61436 0.01048 0.0
O193 O 0.07466 0.575 0.00728 0.0
H194 H 0.1225 0.70057 0.91765 0.0
O195 O 0.04648 0.60968 0.02588 0.0
O196 O 0.08065 0.65215 0.02169 0.0
O197 O 0.04297 0.61321 0.84109 0.0
O198 O 0.08121 0.65181 0.81767 0.0
C199 C 0.05659 0.63427 0.05152 0.0
H200 H 0.20679 0.69778 0.84694 0.0
H201 H 0.16564 0.74443 0.89043 0.0
H202 H 0.95627 0.54095 0.10011 0.0
H203 H 0.9547 0.54368 0.75779 0.0
C204 C 0.94539 0.51992 0.55724 0.0
N205 N 0.8959 0.55652 0.44292 0.0
C206 C 0.87133 0.53237 0.45382 0.0
C207 C 0.846 0.53228 0.4671 0.0
C208 C 0.84506 0.5572 0.46948 0.0
C209 C 0.87085 0.58167 0.4586 0.0
C210 C 0.89558 0.58088 0.44544 0.0
Zn211 Zn 0.9374 0.55978 0.4319 0.0
C212 C 0.98033 0.60436 0.54517 0.0
N213 N 0.0287 0.57578 0.41662 0.0
C214 C 0.02251 0.5486 0.45011 0.0
C215 C 0.06707 0.60925 0.33947 0.0
C216 C 0.09009 0.60401 0.32789 0.0
C217 C 0.07493 0.57854 0.42177 0.0
C218 C 0.04472 0.54222 0.44342 0.0
Zn219 Zn 0.98092 0.5621 0.42072 0.0
O220 O 0.92682 0.52541 0.5302 0.0
C221 C 0.94087 0.51427 0.31042 0.0
O222 O 0.97017 0.53537 0.53202 0.0
H223 H 0.07008 0.62661 0.29799 0.0
H224 H 0.87117 0.51292 0.45339 0.0
H225 H 1.00233 0.53241 0.46201 0.0
O226 O 0.92526 0.52473 0.32866 0.0
O227 O 0.9656 0.52628 0.34007 0.0
H228 H 0.91483 0.60018 0.43889 0.0
O229 O 0.98414 0.58523 0.30753 0.0
O230 O 0.95199 0.5952 0.32951 0.0
O231 O 0.99233 0.59419 0.50417 0.0
O232 O 0.9541 0.59312 0.53623 0.0
C233 C 0.97379 0.59993 0.2885 0.0
H234 H 0.82719 0.51263 0.47505 0.0
H235 H 0.87227 0.60169 0.46247 0.0
H236 H 0.11114 0.62021 0.31616 0.0
H237 H 0.04477 0.5262 0.48195 0.0
C238 C 0.42319 0.91337 0.88745 0.0
N239 N 0.34742 0.88479 0.75057 0.0
C240 C 0.34581 0.85965 0.74002 0.0
C241 C 0.32096 0.83419 0.75528 0.0
C242 C 0.2965 0.83345 0.78275 0.0
C243 C 0.29844 0.85969 0.78972 0.0
C244 C 0.32384 0.88481 0.77449 0.0
Zn245 Zn 0.38988 0.92251 0.757 0.0
C246 C 0.39457 0.96622 0.88821 0.0
N247 N 0.46905 0.99189 0.81228 0.0
C248 C 0.47678 0.99173 0.8958 0.0
C249 C 0.48819 1.00821 0.75503 0.0
C250 C 0.51568 0.01681 0.77237 0.0
C251 C 0.52086 1.00329 0.83971 0.0
C252 C 0.50399 0.99817 0.91227 0.0
Zn253 Zn 0.43227 0.96068 0.76812 0.0
O254 O 0.39971 0.89796 0.8527 0.0
C255 C 0.43519 0.92277 0.62821 0.0
O256 O 0.43676 0.9379 0.86251 0.0
H257 H 0.48161 1.01167 0.69463 0.0
H258 H 0.36427 0.85911 0.72318 0.0
H259 H 0.4614 0.98152 0.94515 0.0
O260 O 0.40895 0.90895 0.64529 0.0
O261 O 0.45016 0.94462 0.67275 0.0
H262 H 0.32477 0.90437 0.78575 0.0
O263 O 0.42789 0.9844 0.67668 0.0
O264 O 0.38413 0.95198 0.66039 0.0
O265 O 0.41757 0.97718 0.85197 0.0
O266 O 0.37675 0.94104 0.86844 0.0
C267 C 0.40445 0.97665 0.6429 0.0
H268 H 0.32117 0.81509 0.74621 0.0
H269 H 0.28068 0.86098 0.81057 0.0
H270 H 0.5314 0.02984 0.72752 0.0
H271 H 0.50842 0.9911 0.97196 0.0
C272 C 0.52982 0.42662 0.20915 0.0
N273 N 0.47602 0.34806 0.08443 0.0
C274 C 0.49987 0.34684 0.08716 0.0
C275 C 0.49986 0.32171 0.10194 0.0
C276 C 0.47503 0.29619 0.11264 0.0
C277 C 0.45058 0.29799 0.10832 0.0
C278 C 0.45151 0.32382 0.09491 0.0
Zn279 Zn 0.48193 0.39096 0.08434 0.0
C280 C 0.44602 0.4003 0.22016 0.0
N281 N 0.49933 0.47497 0.11809 0.0
C282 C 0.51025 0.48492 0.19729 0.0
C283 C 0.50686 0.49221 0.04962 0.0
C284 C 0.53112 0.51771 0.05448 0.0
C285 C 0.54839 0.52302 0.12631 0.0
C286 C 0.53599 0.50879 0.2026 0.0
Zn287 Zn 0.49 0.43505 0.09895 0.0
O288 O 0.51593 0.40159 0.183 0.0
C289 C 0.52646 0.43289 0.95423 0.0
O290 O 0.5228 0.44355 0.1828 0.0
H291 H 0.49727 0.48449 0.98796 0.0
H292 H 0.51949 0.36577 0.08113 0.0
H293 H 0.50292 0.47144 0.25268 0.0
O294 O 0.51553 0.407 0.974 0.0
O295 O 0.51799 0.44668 0.99622 0.0
H296 H 0.43243 0.32434 0.09516 0.0
O297 O 0.45764 0.42722 0.01612 0.0
O298 O 0.44716 0.38438 0.98751 0.0
O299 O 0.46269 0.42468 0.19674 0.0
O300 O 0.44906 0.38045 0.19007 0.0
C301 C 0.44191 0.40441 0.97845 0.0
H302 H 0.51965 0.32282 0.10809 0.0
H303 H 0.43064 0.27951 0.1159 0.0
H304 H 0.5378 0.53061 0.9984 0.0
H305 H 0.54789 0.51292 0.2614 0.0
C306 C 0.09806 0.51723 0.5065 0.0
N307 N 0.14266 0.47144 0.43447 0.0
C308 C 0.16574 0.49512 0.46155 0.0
C309 C 0.19097 0.49583 0.48113 0.0
C310 C 0.19361 0.47201 0.47342 0.0
C311 C 0.16948 0.44785 0.44472 0.0
C312 C 0.1445 0.44798 0.42599 0.0
Zn313 Zn 0.10564 0.47469 0.39573 0.0
C314 C 0.04979 0.43672 0.50221 0.0
N315 N 0.03643 0.4805 0.30184 0.0
C316 C 1.01892 0.48715 0.3404 0.0
C317 C 0.04154 0.48574 0.21566 0.0
C318 C 0.0398 0.50776 0.17964 0.0
C319 C 0.03122 0.52192 0.23326 0.0
C320 C 1.01253 0.50529 0.29735 0.0
Zn321 Zn 0.066 0.47536 0.36541 0.0
O322 O 0.1155 0.50883 0.49498 0.0
C323 C 0.11704 0.51494 0.25376 0.0
O324 O 0.07679 0.50743 0.45779 0.0
H325 H 0.0525 0.4776 0.18029 0.0
H326 H 0.165 0.51405 0.46644 0.0
H327 H 1.01264 0.48117 0.40616 0.0
O328 O 0.13244 0.50772 0.29382 0.0
O329 O 0.09226 0.50327 0.27615 0.0
H330 H 0.12668 0.42916 0.40334 0.0
O331 O 0.05366 0.44433 0.28547 0.0
O332 O 0.08935 0.43851 0.29471 0.0
O333 O 0.04004 0.44783 0.45252 0.0
O334 O 0.07555 0.44347 0.49526 0.0
C335 C 0.06499 0.43087 0.2644 0.0
H336 H 0.20859 0.51541 0.49987 0.0
H337 H 0.16976 0.42874 0.43694 0.0
H338 H 0.05051 0.51702 0.12063 0.0
H339 H 0.99997 0.51192 0.32947 0.0
C340 C 0.59962 0.09752 0.89605 0.0
N341 N 0.68151 0.14047 0.7553 0.0
C342 C 0.68201 0.16268 0.79472 0.0
C343 C 0.70718 0.18766 0.81245 0.0
C344 C 0.73318 0.19099 0.78998 0.0
C345 C 0.732 0.16815 0.74626 0.0
C346 C 0.70632 0.1433 0.73063 0.0
Zn347 Zn 0.64168 0.09927 0.75344 0.0
C348 C 0.64502 0.05886 0.87203 0.0
N349 N 0.5689 0.01895 0.78641 0.0
C350 C 0.56945 1.0059 0.88505 0.0
C351 C 0.55387 1.00157 0.69531 0.0
C352 C 0.5356 0.96362 0.69162 0.0
C353 C 0.53579 0.94454 0.79972 0.0
C354 C 0.55264 0.96795 0.90244 0.0
Zn355 Zn 0.59901 0.06023 0.76649 0.0
O356 O 0.62394 0.11319 0.8644 0.0
C357 C 0.59191 0.0988 0.64699 0.0
O358 O 0.58541 0.07289 0.86948 0.0
H359 H 0.55648 1.0129 0.63642 0.0
H360 H 0.66282 0.16104 0.81524 0.0
H361 H 0.58058 0.01964 0.93787 0.0
O362 O 0.61832 0.11254 0.66095 0.0
O363 O 0.57755 0.07494 0.6825 0.0
H364 H 0.70656 0.1259 0.70098 0.0
O365 O 0.61004 0.04628 0.66207 0.0
O366 O 0.6524 0.07814 0.63718 0.0
O367 O 0.62059 0.04795 0.8457 0.0
O368 O 0.66176 0.08356 0.84794 0.0
C369 C 0.63144 0.05415 0.61784 0.0
H370 H 0.70609 0.20434 0.844 0.0
H371 H 0.75097 0.16901 0.72675 0.0
H372 H 0.52877 0.95274 0.63119 0.0
H373 H 0.55539 0.95957 0.96198 0.0
C374 C 0.5207 0.59002 0.22369 0.0
N375 N 0.55381 0.67593 0.10024 0.0
C376 C 0.53866 0.67837 0.16514 0.0
C377 C 0.53812 0.70327 0.17963 0.0
C378 C 0.55356 0.72709 0.12827 0.0
C379 C 0.56837 0.72373 0.06021 0.0
C380 C 0.56837 0.69839 0.04778 0.0
Zn381 Zn 0.55885 0.63839 0.09426 0.0
C382 C 0.60392 0.64512 0.22379 0.0
N383 N 0.57986 0.57444 0.11255 0.0
C384 C 0.58788 0.56818 0.21247 0.0
C385 C 0.58949 0.56813 0.01676 0.0
C386 C 0.61183 0.55274 0.00952 0.0
C387 C 0.62454 0.5452 0.12058 0.0
C388 C 0.60998 0.55235 0.22681 0.0
Zn389 Zn 0.56568 0.60166 0.10302 0.0
O390 O 0.52599 0.61449 0.20056 0.0
C391 C 0.5186 0.59013 0.97088 0.0
O392 O 0.53553 0.58083 0.19328 0.0
H393 H 0.58409 0.5748 0.95898 0.0
H394 H 0.52724 0.66114 0.20812 0.0
H395 H 0.58124 0.57465 0.26862 0.0
O396 O 0.52479 0.6147 0.99513 0.0
O397 O 0.53287 0.57981 1.00227 0.0
H398 H 0.58087 0.6972 0.99702 0.0
O399 O 0.5965 0.62091 0.01471 0.0
O400 O 0.59061 0.65497 0.97986 0.0
O401 O 0.59435 0.62107 0.19562 0.0
O402 O 0.59304 0.65915 0.19637 0.0
C403 C 0.60334 0.64135 0.96704 0.0
H404 H 0.52546 0.70363 0.23139 0.0
H405 H 0.58075 0.74093 0.01789 0.0
H406 H 0.62136 0.55242 0.9495 0.0
H407 H 0.61756 0.55097 0.28966 0.0
C408 C 0.45453 0.22238 0.20304 0.0
C409 C 0.47427 0.21606 0.16912 0.0
C410 C 0.45468 0.24756 0.18399 0.0
C411 C 0.47477 0.26855 0.13025 0.0
H412 H 0.43842 0.20752 0.2445 0.0
H413 H 0.43896 0.2507 0.21331 0.0
S414 S 0.5317 0.26319 0.02462 0.0
N415 N 0.51515 0.23414 0.07972 0.0
N416 N 0.51493 0.28002 0.04202 0.0
C417 C 0.49463 0.26241 0.0958 0.0
C418 C 0.49447 0.23681 0.11537 0.0
C419 C 0.25589 0.45829 0.45851 0.0
C420 C 0.27419 0.47394 0.52626 0.0
C421 C 0.23036 0.45764 0.44251 0.0
C422 C 0.22116 0.47257 0.49309 0.0
H423 H 0.26149 0.44659 0.41597 0.0
H424 H 0.2179 0.44553 0.38854 0.0
S425 S 0.25918 0.51447 0.6851 0.0
N426 N 0.27948 0.50327 0.64836 0.0
N427 N 0.23237 0.50199 0.6192 0.0
C428 C 0.23898 0.48785 0.56221 0.0
C429 C 0.265 0.48855 0.57838 0.0
C430 C 0.80851 0.25496 0.77271 0.0
C431 C 0.81388 0.26909 0.85278 0.0
C432 C 0.78314 0.2301 0.75363 0.0
C433 C 0.76089 0.21762 0.81256 0.0
H434 H 0.82429 0.263 0.72366 0.0
H435 H 0.78082 0.2208 0.6909 0.0
S436 S 0.76323 0.24495 0.03267 0.0
N437 N 0.79351 0.26747 0.99196 0.0
N438 N 0.74698 0.22153 0.95704 0.0
C439 C 0.76596 0.23133 0.89305 0.0
C440 C 0.79188 0.25654 0.91278 0.0
C441 C 0.55478 0.77214 0.07778 0.0
C442 C 0.55439 0.75492 0.14562 0.0
C443 C 0.55525 0.79766 0.09236 0.0
C444 C 0.55571 0.80815 0.17593 0.0
H445 H 0.55434 0.76569 0.01193 0.0
H446 H 0.55559 0.80948 0.03671 0.0
S447 S 0.55555 0.77198 0.37773 0.0
N448 N 0.55533 0.75144 0.3012 0.0
N449 N 0.55545 0.79807 0.32809 0.0
C450 C 0.55548 0.79119 0.24442 0.0
C451 C 0.55495 0.76517 0.22955 0.0
C452 C 0.77244 0.53995 0.55816 0.0
C453 C 0.76627 0.55907 0.51771 0.0
C454 C 0.79729 0.53933 0.54217 0.0
C455 C 0.81792 0.55781 0.48454 0.0
H456 H 0.75801 0.52534 0.60409 0.0
H457 H 0.8005 0.52435 0.57685 0.0
S458 S 0.8114 0.61018 0.35331 0.0
N459 N 0.78296 0.5958 0.41141 0.0
N460 N 0.82876 0.59469 0.38192 0.0
C461 C 0.81179 0.57669 0.44233 0.0
C462 C 0.78648 0.57731 0.45862 0.0
C463 C 0.24301 0.80093 0.78262 0.0
C464 C 0.26974 0.80591 0.80534 0.0
C465 C 0.21824 0.7756 0.80233 0.0
C466 C 0.21824 0.75331 0.84668 0.0
H467 H 0.2411 0.81668 0.74772 0.0
H468 H 0.19878 0.77341 0.78109 0.0
S469 S 0.28217 0.75635 0.93142 0.0
N470 N 0.29387 0.78629 0.88181 0.0
N471 N 0.24829 0.73978 0.91875 0.0
C472 C 0.24483 0.75832 0.87166 0.0
C473 C 0.27004 0.78407 0.85129 0.0
C474 C 0.56144 0.10696 0.93543 0.0
C475 C 0.5858 0.10679 0.95975 0.0
C476 C 0.54265 0.10671 0.99692 0.0
C477 C 0.54696 0.10557 0.08581 0.0
H478 H 0.55597 0.1055 0.86796 0.0
H479 H 0.5236 0.10525 0.97441 0.0
S480 S 0.60803 0.10595 0.18289 0.0
N481 N 0.61358 0.10676 0.07871 0.0
N482 N 0.57853 0.10576 0.19401 0.0
C483 C 0.57183 0.10656 0.1106 0.0
C484 C 0.59111 0.1073 0.04794 0.0
C485 C 0.48696 0.54128 0.26973 0.0
C486 C 0.49657 0.56996 0.27916 0.0
C487 C 0.46677 0.52109 0.32377 0.0
C488 C 0.45438 0.52805 0.39023 0.0
H489 H 0.49556 0.53413 0.22054 0.0
H490 H 0.46118 0.49968 0.31421 0.0
S491 S 0.47114 0.59971 0.44399 0.0
N492 N 0.49131 0.60398 0.3611 0.0
N493 N 0.45311 0.56603 0.4622 0.0
C494 C 0.46289 0.55648 0.39923 0.0
C495 C 0.48388 0.57732 0.34399 0.0
C496 C 0.90901 0.45467 0.7054 0.0
C497 C 0.92952 0.44706 0.71559 0.0
C498 C 0.91374 0.47798 0.65442 0.0
C499 C 0.93881 0.49409 0.60934 0.0
H500 H 0.8897 0.44339 0.73944 0.0
H501 H 0.89795 0.48377 0.65212 0.0
S502 S 0.99435 0.4758 0.59078 0.0
N503 N 0.97229 0.45301 0.65901 0.0
N504 N 0.98117 0.49541 0.5645 0.0
C505 C 0.95758 0.48399 0.61109 0.0
C506 C 0.95278 0.46074 0.66264 0.0
C507 C 0.45173 0.89312 0.94388 0.0
C508 C 0.43597 0.90603 0.96 0.0
C509 C 0.47552 0.89923 0.99414 0.0
C510 C 0.48469 0.91901 0.06092 0.0
H511 H 0.44723 0.88031 0.88719 0.0
H512 H 0.48796 0.89019 0.97603 0.0
S513 S 0.44675 0.95315 0.14186 0.0
N514 N 0.42845 0.93514 0.05804 0.0
N515 N 0.47258 0.94698 0.15025 0.0
C516 C 0.46714 0.92937 0.08324 0.0
C517 C 0.44293 0.92269 0.03377 0.0
C518 C 0.57987 0.45924 0.23911 0.0
C519 C 0.55419 0.43781 0.2689 0.0
C520 C 0.59921 0.48021 0.29462 0.0
C521 C 0.59379 0.48018 0.38253 0.0
H522 H 0.5838 0.46094 0.17087 0.0
H523 H 0.61735 0.49772 0.268 0.0
S524 S 0.53474 0.42301 0.49787 0.0
N525 N 0.52791 0.41423 0.39553 0.0
N526 N 0.56424 0.45272 0.5 0.0
C527 C 0.57029 0.45642 0.41488 0.0
C528 C 0.55053 0.4354 0.35822 0.0
C529 C 0.07321 0.54538 0.68908 0.0
C530 C 0.09578 0.57169 0.71126 0.0
C531 C 0.07505 0.52813 0.62657 0.0
C532 C 0.09951 0.53568 0.58089 0.0
H533 H 0.05338 0.53778 0.71993 0.0
H534 H 0.05671 0.50848 0.61301 0.0
S535 S 0.16546 0.60169 0.61298 0.0
N536 N 0.14421 0.60398 0.68175 0.0
N537 N 0.1475 0.57145 0.56407 0.0
C538 C 0.12268 0.56151 0.60315 0.0
C539 C 0.12081 0.57946 0.6675 0.0
C540 C 0.40436 1.01274 0.9376 0.0
C541 C 0.39238 0.98408 0.95627 0.0
C542 C 0.41694 0.03345 1.00164 0.0
C543 C 0.41787 0.02641 0.08777 0.0
H544 H 0.40693 0.01941 0.87115 0.0
H545 H 0.4284 0.05492 0.98203 0.0
S546 S 0.38363 0.95475 0.17501 0.0
N547 N 0.37824 0.95019 0.07025 0.0
N548 N 0.40098 0.98857 0.19061 0.0
C549 C 0.40281 0.99787 0.10879 0.0
C550 C 0.39019 0.97686 0.04339 0.0
C551 C 0.4163 0.38479 0.3552 0.0
C552 C 0.4222 0.3972 0.27369 0.0
C553 C 0.40119 0.39069 0.41626 0.0
C554 C 0.3917 0.40964 0.39943 0.0
H555 H 0.42551 0.37259 0.37488 0.0
H556 H 0.39949 0.38255 0.48063 0.0
S557 S 0.39792 0.44397 0.19026 0.0
N558 N 0.41363 0.42597 0.17508 0.0
N559 N 0.38651 0.43762 0.2901 0.0
C560 C 0.39496 0.41971 0.31518 0.0
C561 C 0.40999 0.41347 0.25277 0.0
C562 C 0.04096 0.41879 0.65503 0.0
C563 C 0.03091 0.41843 0.57185 0.0
C564 C 0.02291 0.40876 0.72602 0.0
C565 C 0.99403 0.39775 0.71713 0.0
H566 H 0.06302 0.42908 0.66669 0.0
H567 H 0.03197 0.41181 0.78958 0.0
S568 S 0.95678 0.38785 0.51113 0.0
N569 N 0.9896 0.40248 0.48327 0.0
N570 N 0.9562 0.38417 0.61658 0.0
C571 C 0.98351 0.39468 0.6334 0.0
C572 C 1.00182 0.40493 0.56103 0.0
C573 C 0.62899 0.99209 0.97082 0.0
C574 C 0.62427 0.99651 0.05648 0.0
C575 C 0.64345 0.01485 0.91389 0.0
C576 C 0.65063 0.04217 0.93628 0.0
H577 H 0.61991 0.97122 0.94597 0.0
H578 H 0.64734 1.01123 0.84925 0.0
S579 S 0.6529 0.06592 0.15867 0.0
N580 N 0.63845 0.03197 0.16689 0.0
N581 N 0.65918 0.07296 0.05549 0.0
C582 C 0.64996 0.04715 0.02366 0.0
C583 C 0.63799 0.02462 0.08383 0.0
C584 C 0.61212 0.62096 0.42738 0.0
C585 C 0.63535 0.61771 0.41173 0.0
C586 C 0.60549 0.63743 0.37571 0.0
C587 C 0.62112 0.65086 0.30299 0.0
H588 H 0.59728 0.6088 0.47589 0.0
H589 H 0.5854 0.6356 0.38437 0.0
S590 S 0.69288 0.66485 0.27066 0.0
N591 N 0.68034 0.64008 0.34396 0.0
N592 N 0.66749 0.67069 0.24443 0.0
C593 C 0.64743 0.65286 0.29824 0.0
C594 C 0.65455 0.63626 0.35255 0.0
C595 C 0.04706 0.64807 0.65763 0.0
C596 C 0.03873 0.64291 0.74341 0.0
C597 C 0.02739 0.64098 0.59163 0.0
C598 C 0.99858 0.62638 0.60822 0.0
H599 H 0.06829 0.65487 0.64064 0.0
H600 H 0.03478 0.64416 0.52672 0.0
S601 S 0.96919 0.62592 0.81959 0.0
N602 N 1.00188 0.63589 0.84101 0.0
N603 N 0.96471 0.61962 0.71541 0.0
C604 C 0.99084 0.6268 0.69299 0.0
C605 C 1.01102 0.63543 0.76087 0.0
C606 C 0.5272 0.9847 0.46746 0.0
C607 C 0.49786 0.97567 0.47895 0.0
C608 C 0.54992 1.0109 0.43081 0.0
C609 C 0.55015 0.03598 0.39736 0.0
H610 H 0.53321 0.96996 0.48804 0.0
H611 H 0.56903 1.01061 0.42619 0.0
S612 S 0.49397 0.04816 0.56886 0.0
N613 N 0.47009 1.00487 0.53985 0.0
N614 N 0.5268 0.0622 0.47736 0.0
C615 C 0.52663 0.03886 0.40969 0.0
C616 C 0.48389 0.99376 0.45799 0.0
C617 C 0.53229 0.47882 0.70199 0.0
C618 C 0.50555 0.45903 0.7238 0.0
C619 C 0.53949 0.50671 0.69696 0.0
C620 C 0.51915 0.51437 0.70234 0.0
H621 H 0.54508 0.47183 0.67263 0.0
H622 H 0.55992 0.52186 0.67942 0.0
S623 S 0.46128 0.47712 0.85182 0.0
N624 N 0.46978 0.45387 0.82378 0.0
N625 N 0.48214 0.50573 0.79919 0.0
C626 C 0.49702 0.49706 0.7548 0.0
C627 C 0.49093 0.46937 0.76979 0.0
C628 C 0.9849 0.57376 0.92988 0.0
C629 C 0.97469 0.52268 0.92472 0.0
C630 C 0.95384 0.56921 0.93346 0.0
C631 C 0.92522 0.54015 0.93133 0.0
H632 H 1.00329 0.59377 0.92658 0.0
H633 H 0.95206 0.5875 0.94227 0.0
S634 S 0.90175 0.4607 0.90573 0.0
N635 N 0.93524 0.47128 0.91287 0.0
N636 N 0.89721 0.4878 0.91568 0.0
C637 C 0.92322 0.50985 0.92472 0.0
C638 C 0.94512 0.49851 0.92234 0.0
C639 C 0.07918 0.55029 0.30137 0.0
C640 C 0.05337 0.54917 0.26672 0.0
C641 C 0.09718 0.56347 0.38297 0.0
C642 C 0.09503 0.58078 0.45438 0.0
H643 H 0.08603 0.53976 0.26169 0.0
H644 H 0.11468 0.56033 0.38919 0.0
S645 S 0.03136 0.61589 0.38567 0.0
N646 N 0.02597 0.58266 0.28576 0.0
N647 N 0.0603 0.612 0.47791 0.0
C648 C 0.06984 0.58744 0.45135 0.0
C649 C 0.04414 0.56542 0.30956 0.0
C650 C 0.50141 0.95299 0.82675 0.0
C651 C 0.52809 0.98059 0.81541 0.0
C652 C 0.50943 0.92861 0.815 0.0
C653 C 0.53677 0.9251 0.79215 0.0
H654 H 0.48127 0.94911 0.84094 0.0
H655 H 0.49049 0.90816 0.82142 0.0
S656 S 0.6126 0.97849 0.73518 0.0
N657 N 0.60124 1.0004 0.75733 0.0
N658 N 0.58726 0.9461 0.74889 0.0
C659 C 0.56625 0.95006 0.77212 0.0
C660 C 0.57431 0.9819 0.77412 0.0
C661 C 0.61535 0.5188 0.11547 0.0
C662 C 0.646 0.54851 0.12041 0.0
C663 C 0.58195 0.50809 0.11121 0.0
C664 C 0.57957 0.53397 0.11547 0.0
H665 H 0.61827 0.50055 0.11102 0.0
H666 H 0.56538 0.48683 0.10722 0.0
S667 S 0.66462 0.62534 0.10369 0.0
N668 N 0.67395 0.60138 0.11205 0.0
N669 N 0.63043 0.61048 0.11108 0.0
C670 C 0.62379 0.58355 0.1183 0.0
C671 C 0.64915 0.57807 0.11991 0.0
C672 C 0.39253 0.99216 0.50174 0.0
C673 C 0.40285 0.99802 0.58639 0.0
C674 C 0.39964 1.01367 0.44073 0.0
C675 C 0.41756 0.04213 0.46066 0.0
H676 H 0.38121 0.97088 0.48 0.0
H677 H 0.39374 1.00771 0.37433 0.0
S678 S 0.44646 0.06877 0.67708 0.0
N679 N 0.42869 0.03487 0.68986 0.0
N680 N 0.4424 0.07447 0.57528 0.0
C681 C 0.42545 0.0482 0.54725 0.0
C682 C 0.41816 0.02644 0.60952 0.0
C683 C 0.40992 0.42309 0.94607 0.0
C684 C 0.41802 0.4033 0.9272 0.0
C685 C 0.39378 0.42896 0.88904 0.0
C686 C 0.38466 0.41543 0.80935 0.0
H687 H 0.41837 0.43631 1.00186 0.0
H688 H 0.39196 0.44704 0.90208 0.0
S689 S 0.39088 0.35488 0.7424 0.0
N690 N 0.40926 0.36532 0.83218 0.0
N691 N 0.378 0.37554 0.72732 0.0
C692 C 0.38809 0.39212 0.79757 0.0
C693 C 0.4052 0.38645 0.85496 0.0
C694 C 0.99641 0.38157 0.17679 0.0
C695 C 0.99998 0.38916 0.08958 0.0
C696 C 1.01947 0.38982 0.23246 0.0
C697 C 0.04721 0.40733 0.20497 0.0
H698 H 0.97595 0.37212 0.20453 0.0
H699 H 1.01535 0.38636 0.30071 0.0
S700 S 0.06776 0.42831 0.97936 0.0
N701 N 0.03368 0.41039 0.97536 0.0
N702 N 0.07624 0.42758 0.08077 0.0
C703 C 0.05089 0.41171 0.11606 0.0
C704 C 0.02754 0.40247 0.05875 0.0
C705 C 0.60578 1.0053 0.55974 0.0
C706 C 0.62903 0.03234 0.55193 0.0
C707 C 0.59934 0.98319 0.50421 0.0
C708 C 0.61402 0.98677 0.42886 0.0
H709 H 0.59062 1.00076 0.60728 0.0
H710 H 0.5801 0.96401 0.51469 0.0
S711 S 0.67661 0.05293 0.36634 0.0
N712 N 0.66797 0.06064 0.45952 0.0
N713 N 0.65372 0.02014 0.3462 0.0
C714 C 0.63767 1.01358 0.41718 0.0
C715 C 0.64551 0.036 0.47927 0.0
C716 C 0.64127 0.64332 0.8667 0.0
C717 C 0.61351 0.63705 0.8809 0.0
C718 C 0.64818 0.62789 0.80721 0.0
C719 C 0.62747 0.60366 0.76543 0.0
H720 H 0.65769 0.65952 0.90446 0.0
H721 H 0.66969 0.63428 0.79714 0.0
S722 S 0.55253 0.57269 0.8124 0.0
N723 N 0.56624 0.60367 0.85415 0.0
N724 N 0.57826 0.5713 0.76685 0.0
C725 C 0.6 0.59653 0.78574 0.0
C726 C 0.59336 0.61405 0.83579 0.0
C727 C 1.00808 0.62506 0.07713 0.0
C728 C 0.03618 0.63945 0.10325 0.0
C729 C 0.98576 0.61483 0.13543 0.0
C730 C 0.98996 0.62246 0.22225 0.0
H731 H 1.00324 0.62098 0.01086 0.0
H732 H 0.96536 0.59949 0.11315 0.0
S733 S 0.05691 0.68031 0.30456 0.0
N734 N 0.06559 0.67169 0.21295 0.0
N735 N 0.02306 0.65988 0.31468 0.0
C736 C 1.01709 0.64472 0.24145 0.0
C737 C 0.04042 0.65174 0.18488 0.0
C738 C 0.5362 0.11412 0.5538 0.0
C739 C 0.54397 0.12113 0.46682 0.0
C740 C 0.55228 0.10821 0.61267 0.0
C741 C 0.57757 0.11003 0.58892 0.0
H742 H 0.51596 0.10996 0.57398 0.0
H743 H 0.54398 0.10065 0.67606 0.0
S744 S 0.61158 0.13578 0.37839 0.0
N745 N 0.58159 0.13455 0.36642 0.0
N746 N 0.6121 0.12531 0.47724 0.0
C747 C 0.58732 0.12072 0.50627 0.0
C748 C 0.57059 0.12587 0.44565 0.0
C749 C 0.47904 0.5618 0.75356 0.0
C750 C 0.45441 0.53717 0.77563 0.0
C751 C 0.4983 0.57988 0.81655 0.0
C752 C 0.49531 0.57344 0.90541 0.0
H753 H 0.48395 0.5668 0.68631 0.0
H754 H 0.51662 0.5983 0.79456 0.0
S755 S 0.43409 0.51252 1.0 0.0
N756 N 0.42716 0.50925 0.89583 0.0
N757 N 0.46444 0.54095 0.01156 0.0
C758 C 0.4704 0.54938 0.92861 0.0
C759 C 0.44987 0.53195 0.86492 0.0
C760 C 0.91135 0.46071 0.12303 0.0
C761 C 0.92298 0.44349 0.13625 0.0
C762 C 0.91588 0.48269 0.17976 0.0
C763 C 0.93131 0.48796 0.2563 0.0
H764 H 0.89849 0.45739 0.06858 0.0
H765 H 0.90793 0.49614 0.16183 0.0
S766 S 0.95429 0.44057 0.34363 0.0
N767 N 0.94404 0.42896 0.24496 0.0
N768 N 0.94985 0.46752 0.35532 0.0
C769 C 0.93914 0.46806 0.27732 0.0
C770 C 0.93557 0.44658 0.21733 0.0
C771 C 0.46422 0.92149 0.40105 0.0
C772 C 0.48669 0.91692 0.41792 0.0
C773 C 0.44596 0.92072 0.46704 0.0
C774 C 0.44895 0.91537 0.55444 0.0
H775 H 0.46201 0.92796 0.33729 0.0
H776 H 0.43091 0.92678 0.45036 0.0
S777 S 0.49688 0.89128 0.6271 0.0
N778 N 0.50548 0.89951 0.52548 0.0
N779 N 0.472 0.89825 0.64753 0.0
C780 C 0.46902 0.90732 0.56953 0.0
C781 C 0.48739 0.90785 0.5022 0.0
C782 C 0.58017 0.45455 0.76207 0.0
C783 C 0.59167 0.48382 0.75794 0.0
C784 C 0.56031 0.43773 0.82685 0.0
C785 C 0.54949 0.44909 0.88677 0.0
H786 H 0.58566 0.44442 0.71315 0.0
H787 H 0.55238 0.41564 0.82676 0.0
S788 S 0.56639 0.52211 0.88006 0.0
N789 N 0.58897 0.52197 0.8143 0.0
N790 N 0.54902 0.49103 0.92038 0.0
C791 C 0.56047 0.47801 0.87903 0.0
C792 C 0.58209 0.49503 0.81951 0.0
C793 C 0.10831 0.52713 0.10686 0.0
C794 C 0.12482 0.5362 0.18208 0.0
C795 C 0.10208 0.54469 0.05742 0.0
C796 C 0.11184 0.57266 0.07945 0.0
H797 H 0.09764 0.50532 0.09068 0.0
H798 H 0.08792 0.5356 1.00374 0.0
S799 S 0.16025 0.60892 0.26046 0.0
N800 N 0.15421 0.57681 0.26827 0.0
N801 N 0.14259 0.60962 0.17586 0.0
C802 C 0.13086 0.583 0.14881 0.0
C803 C 0.13734 0.56495 0.19946 0.0
loop_
_geom_bond_atom_site_label_1
_geom_bond_atom_site_label_2
_geom_bond_distance
_geom_bond_site_symmetry_2
_ccdc_geom_bond_type
C0 O16 1.251 . S
C0 O18 1.254 . S
N1 C2 1.333 . S
N1 C6 1.307 . S
N1 Zn7 2.020 . S
C2 N1 1.333 . S
C2 C3 1.379 . S
C2 H20 0.952 . S
C3 C2 1.379 . S
C3 C4 1.390 . S
C3 H30 0.949 . S
C4 C3 1.390 . S
C4 C5 1.357 . S
C5 C4 1.357 . S
C5 C6 1.370 . S
C5 H31 0.950 . S
C6 N1 1.307 . S
C6 C5 1.370 . S
C6 H24 0.948 . S
Zn7 N1 2.020 . S
Zn7 O16 2.039 . S
Zn7 O22 2.034 . S
Zn7 O26 2.025 . S
Zn7 O28 2.024 . S
C8 O27 1.246 . S
C8 O28 1.249 . S
N9 C10 1.307 . S
N9 C11 1.333 . S
N9 Zn15 2.020 . S
C10 N9 1.307 . S
C10 C14 1.370 . S
C10 H21 0.948 . S
C11 N9 1.333 . S
C11 C12 1.379 1_545 S
C11 H19 0.952 . S
C12 C11 1.379 1_565 S
C12 C13 1.390 . S
C12 H32 0.949 . S
C13 C12 1.390 . S
C13 C14 1.357 1_565 S
C14 C10 1.370 . S
C14 C13 1.357 1_545 S
C14 H33 0.950 . S
Zn15 N9 2.020 . S
Zn15 O18 2.025 . S
Zn15 O23 2.024 . S
Zn15 O25 2.039 . S
Zn15 O27 2.034 . S
O16 C0 1.251 . S
O16 Zn7 2.039 . S
C17 O22 1.246 . S
C17 O23 1.249 . S
O18 C0 1.254 . S
O18 Zn15 2.025 . S
H19 C11 0.952 . S
H20 C2 0.952 . S
H21 C10 0.948 . S
O22 Zn7 2.034 . S
O22 C17 1.246 . S
O23 Zn15 2.024 . S
O23 C17 1.249 . S
H24 C6 0.948 . S
O25 Zn15 2.039 . S
O25 C29 1.251 . S
O26 Zn7 2.025 . S
O26 C29 1.254 . S
O27 C8 1.246 . S
O27 Zn15 2.034 . S
O28 Zn7 2.024 . S
O28 C8 1.249 . S
C29 O25 1.251 . S
C29 O26 1.254 . S
H30 C3 0.949 . S
H31 C5 0.950 . S
H32 C12 0.949 . S
H33 C14 0.950 . S
C34 O50 1.251 . S
C34 O52 1.254 . S
N35 C36 1.333 . S
N35 C40 1.307 . S
N35 Zn41 2.020 . S
C36 N35 1.333 . S
C36 C37 1.379 . S
C36 H54 0.952 . S
C37 C36 1.379 . S
C37 C38 1.390 . S
C37 H64 0.949 . S
C38 C37 1.390 . S
C38 C39 1.357 . S
C39 C38 1.357 . S
C39 C40 1.370 . S
C39 H65 0.950 . S
C40 N35 1.307 . S
C40 C39 1.370 . S
C40 H58 0.948 . S
Zn41 N35 2.020 . S
Zn41 O50 2.039 . S
Zn41 O56 2.034 . S
Zn41 O60 2.025 . S
Zn41 O62 2.024 . S
C42 O61 1.246 . S
C42 O62 1.249 . S
N43 C44 1.307 . S
N43 C45 1.333 . S
N43 Zn49 2.020 . S
C44 N43 1.307 . S
C44 C48 1.370 . S
C44 H55 0.948 . S
C45 N43 1.333 . S
C45 C46 1.379 . S
C45 H53 0.952 . S
C46 C45 1.379 . S
C46 C47 1.390 . S
C46 H66 0.949 . S
C47 C46 1.390 . S
C47 C48 1.357 . S
C48 C44 1.370 . S
C48 C47 1.357 . S
C48 H67 0.950 . S
Zn49 N43 2.020 . S
Zn49 O52 2.025 . S
Zn49 O57 2.024 . S
Zn49 O59 2.039 . S
Zn49 O61 2.034 . S
O50 C34 1.251 . S
O50 Zn41 2.039 . S
C51 O56 1.246 . S
C51 O57 1.249 . S
O52 C34 1.254 . S
O52 Zn49 2.025 . S
H53 C45 0.952 . S
H54 C36 0.952 . S
H55 C44 0.948 . S
O56 Zn41 2.034 . S
O56 C51 1.246 . S
O57 Zn49 2.024 . S
O57 C51 1.249 . S
H58 C40 0.948 . S
O59 Zn49 2.039 . S
O59 C63 1.251 . S
O60 Zn41 2.025 . S
O60 C63 1.254 . S
O61 C42 1.246 . S
O61 Zn49 2.034 . S
O62 Zn41 2.024 . S
O62 C42 1.249 . S
C63 O59 1.251 . S
C63 O60 1.254 . S
H64 C37 0.949 . S
H65 C39 0.950 . S
H66 C46 0.949 . S
H67 C48 0.950 . S
C68 O84 1.251 . S
C68 O86 1.254 . S
N69 C70 1.333 . S
N69 C74 1.307 . S
N69 Zn75 2.020 . S
C70 N69 1.333 . S
C70 C71 1.379 . S
C70 H88 0.952 . S
C71 C70 1.379 . S
C71 C72 1.390 . S
C71 H98 0.949 . S
C72 C71 1.390 . S
C72 C73 1.357 . S
C73 C72 1.357 . S
C73 C74 1.370 . S
C73 H99 0.950 . S
C74 N69 1.307 . S
C74 C73 1.370 . S
C74 H92 0.948 . S
Zn75 N69 2.020 . S
Zn75 O84 2.039 . S
Zn75 O90 2.034 1_556 S
Zn75 O94 2.025 1_556 S
Zn75 O96 2.024 . S
C76 O95 1.246 . S
C76 O96 1.249 . S
N77 C78 1.307 . S
N77 C79 1.333 . S
N77 Zn83 2.020 . S
C78 N77 1.307 . S
C78 C82 1.370 . S
C78 H89 0.948 . S
C79 N77 1.333 . S
C79 C80 1.379 1_655 S
C79 H87 0.952 . S
C80 C79 1.379 1_455 S
C80 C81 1.390 . S
C80 H100 0.949 . S
C81 C80 1.390 . S
C81 C82 1.357 1_455 S
C82 C78 1.370 . S
C82 C81 1.357 1_655 S
C82 H101 0.950 . S
Zn83 N77 2.020 . S
Zn83 O86 2.025 . S
Zn83 O91 2.024 1_556 S
Zn83 O93 2.039 1_556 S
Zn83 O95 2.034 . S
O84 C68 1.251 . S
O84 Zn75 2.039 . S
C85 O90 1.246 . S
C85 O91 1.249 . S
O86 C68 1.254 . S
O86 Zn83 2.025 . S
H87 C79 0.952 . S
H88 C70 0.952 . S
H89 C78 0.948 . S
O90 Zn75 2.034 1_554 S
O90 C85 1.246 . S
O91 Zn83 2.024 1_554 S
O91 C85 1.249 . S
H92 C74 0.948 . S
O93 Zn83 2.039 1_554 S
O93 C97 1.251 . S
O94 Zn75 2.025 1_554 S
O94 C97 1.254 . S
O95 C76 1.246 . S
O95 Zn83 2.034 . S
O96 Zn75 2.024 . S
O96 C76 1.249 . S
C97 O93 1.251 . S
C97 O94 1.254 . S
H98 C71 0.949 . S
H99 C73 0.950 . S
H100 C80 0.949 . S
H101 C82 0.950 . S
C102 O118 1.251 . S
C102 O120 1.254 . S
N103 C104 1.333 . S
N103 C108 1.307 . S
N103 Zn109 2.020 . S
C104 N103 1.333 . S
C104 C105 1.379 . S
C104 H122 0.952 . S
C105 C104 1.379 . S
C105 C106 1.390 . S
C105 H132 0.949 . S
C106 C105 1.390 . S
C106 C107 1.357 . S
C107 C106 1.357 . S
C107 C108 1.370 . S
C107 H133 0.950 . S
C108 N103 1.307 . S
C108 C107 1.370 . S
C108 H126 0.948 . S
Zn109 N103 2.020 . S
Zn109 O118 2.039 . S
Zn109 O124 2.034 . S
Zn109 O128 2.025 . S
Zn109 O130 2.024 . S
C110 O129 1.246 . S
C110 O130 1.249 . S
N111 C112 1.307 . S
N111 C113 1.333 . S
N111 Zn117 2.020 . S
C112 N111 1.307 . S
C112 C116 1.370 . S
C112 H123 0.948 . S
C113 N111 1.333 . S
C113 C114 1.379 1_565 S
C113 H121 0.952 . S
C114 C113 1.379 1_545 S
C114 C115 1.390 . S
C114 H134 0.949 . S
C115 C114 1.390 . S
C115 C116 1.357 1_545 S
C116 C112 1.370 . S
C116 C115 1.357 1_565 S
C116 H135 0.950 . S
Zn117 N111 2.020 . S
Zn117 O120 2.025 . S
Zn117 O125 2.024 . S
Zn117 O127 2.039 . S
Zn117 O129 2.034 . S
O118 C102 1.251 . S
O118 Zn109 2.039 . S
C119 O124 1.246 . S
C119 O125 1.249 . S
O120 C102 1.254 . S
O120 Zn117 2.025 . S
H121 C113 0.952 . S
H122 C104 0.952 . S
H123 C112 0.948 . S
O124 Zn109 2.034 . S
O124 C119 1.246 . S
O125 Zn117 2.024 . S
O125 C119 1.249 . S
H126 C108 0.948 . S
O127 Zn117 2.039 . S
O127 C131 1.251 . S
O128 Zn109 2.025 . S
O128 C131 1.254 . S
O129 C110 1.246 . S
O129 Zn117 2.034 . S
O130 Zn109 2.024 . S
O130 C110 1.249 . S
C131 O127 1.251 . S
C131 O128 1.254 . S
H132 C105 0.949 . S
H133 C107 0.950 . S
H134 C114 0.949 . S
H135 C116 0.950 . S
C136 O152 1.251 . S
C136 O154 1.254 . S
N137 C138 1.333 . S
N137 C142 1.307 . S
N137 Zn143 2.020 . S
C138 N137 1.333 . S
C138 C139 1.379 . S
C138 H156 0.952 . S
C139 C138 1.379 . S
C139 C140 1.390 . S
C139 H166 0.949 . S
C140 C139 1.390 . S
C140 C141 1.357 . S
C141 C140 1.357 . S
C141 C142 1.370 . S
C141 H167 0.950 . S
C142 N137 1.307 . S
C142 C141 1.370 . S
C142 H160 0.948 . S
Zn143 N137 2.020 . S
Zn143 O152 2.039 . S
Zn143 O158 2.034 . S
Zn143 O162 2.025 . S
Zn143 O164 2.024 . S
C144 O163 1.246 . S
C144 O164 1.249 . S
N145 C146 1.307 . S
N145 C147 1.333 . S
N145 Zn151 2.020 . S
C146 N145 1.307 . S
C146 C150 1.370 . S
C146 H157 0.948 . S
C147 N145 1.333 . S
C147 C148 1.379 . S
C147 H155 0.952 . S
C148 C147 1.379 . S
C148 C149 1.390 . S
C148 H168 0.949 . S
C149 C148 1.390 . S
C149 C150 1.357 . S
C150 C146 1.370 . S
C150 C149 1.357 . S
C150 H169 0.950 . S
Zn151 N145 2.020 . S
Zn151 O154 2.025 . S
Zn151 O159 2.024 . S
Zn151 O161 2.039 . S
Zn151 O163 2.034 . S
O152 C136 1.251 . S
O152 Zn143 2.039 . S
C153 O158 1.246 . S
C153 O159 1.249 . S
O154 C136 1.254 . S
O154 Zn151 2.025 . S
H155 C147 0.952 . S
H156 C138 0.952 . S
H157 C146 0.948 . S
O158 Zn143 2.034 . S
O158 C153 1.246 . S
O159 Zn151 2.024 . S
O159 C153 1.249 . S
H160 C142 0.948 . S
O161 Zn151 2.039 . S
O161 C165 1.251 . S
O162 Zn143 2.025 . S
O162 C165 1.254 . S
O163 C144 1.246 . S
O163 Zn151 2.034 . S
O164 Zn143 2.024 . S
O164 C144 1.249 . S
C165 O161 1.251 . S
C165 O162 1.254 . S
H166 C139 0.949 . S
H167 C141 0.950 . S
H168 C148 0.949 . S
H169 C150 0.950 . S
C170 O186 1.251 . S
C170 O188 1.254 . S
N171 C172 1.333 . S
N171 C176 1.307 . S
N171 Zn177 2.020 . S
C172 N171 1.333 . S
C172 C173 1.379 . S
C172 H190 0.952 . S
C173 C172 1.379 . S
C173 C174 1.390 . S
C173 H200 0.949 . S
C174 C173 1.390 . S
C174 C175 1.357 . S
C175 C174 1.357 . S
C175 C176 1.370 . S
C175 H201 0.950 . S
C176 N171 1.307 . S
C176 C175 1.370 . S
C176 H194 0.948 . S
Zn177 N171 2.020 . S
Zn177 O186 2.039 . S
Zn177 O192 2.034 1_556 S
Zn177 O196 2.025 1_556 S
Zn177 O198 2.024 . S
C178 O197 1.246 . S
C178 O198 1.249 . S
N179 C180 1.307 . S
N179 C181 1.333 . S
N179 Zn185 2.020 . S
C180 N179 1.307 . S
C180 C184 1.370 . S
C180 H191 0.948 . S
C181 N179 1.333 . S
C181 C182 1.379 1_455 S
C181 H189 0.952 . S
C182 C181 1.379 1_655 S
C182 C183 1.390 . S
C182 H202 0.949 . S
C183 C182 1.390 . S
C183 C184 1.357 1_655 S
C184 C180 1.370 . S
C184 C183 1.357 1_455 S
C184 H203 0.950 . S
Zn185 N179 2.020 . S
Zn185 O188 2.025 . S
Zn185 O193 2.024 1_556 S
Zn185 O195 2.039 1_556 S
Zn185 O197 2.034 . S
O186 C170 1.251 . S
O186 Zn177 2.039 . S
C187 O192 1.246 . S
C187 O193 1.249 . S
O188 C170 1.254 . S
O188 Zn185 2.025 . S
H189 C181 0.952 . S
H190 C172 0.952 . S
H191 C180 0.948 . S
O192 Zn177 2.034 1_554 S
O192 C187 1.246 . S
O193 Zn185 2.024 1_554 S
O193 C187 1.249 . S
H194 C176 0.948 . S
O195 Zn185 2.039 1_554 S
O195 C199 1.251 . S
O196 Zn177 2.025 1_554 S
O196 C199 1.254 . S
O197 C178 1.246 . S
O197 Zn185 2.034 . S
O198 Zn177 2.024 . S
O198 C178 1.249 . S
C199 O195 1.251 . S
C199 O196 1.254 . S
H200 C173 0.949 . S
H201 C175 0.950 . S
H202 C182 0.949 . S
H203 C184 0.950 . S
C204 O220 1.251 . S
C204 O222 1.254 . S
N205 C206 1.333 . S
N205 C210 1.307 . S
N205 Zn211 2.020 . S
C206 N205 1.333 . S
C206 C207 1.379 . S
C206 H224 0.952 . S
C207 C206 1.379 . S
C207 C208 1.390 . S
C207 H234 0.949 . S
C208 C207 1.390 . S
C208 C209 1.357 . S
C209 C208 1.357 . S
C209 C210 1.370 . S
C209 H235 0.950 . S
C210 N205 1.307 . S
C210 C209 1.370 . S
C210 H228 0.948 . S
Zn211 N205 2.020 . S
Zn211 O220 2.039 . S
Zn211 O226 2.034 . S
Zn211 O230 2.025 . S
Zn211 O232 2.024 . S
C212 O231 1.246 . S
C212 O232 1.249 . S
N213 C214 1.307 . S
N213 C215 1.333 . S
N213 Zn219 2.020 . S
C214 N213 1.307 . S
C214 C218 1.370 . S
C214 H225 0.948 . S
C215 N213 1.333 . S
C215 C216 1.379 1_655 S
C215 H223 0.952 . S
C216 C215 1.379 1_455 S
C216 C217 1.390 . S
C216 H236 0.949 . S
C217 C216 1.390 . S
C217 C218 1.357 1_455 S
C218 C214 1.370 . S
C218 C217 1.357 1_655 S
C218 H237 0.950 . S
Zn219 N213 2.020 . S
Zn219 O222 2.025 . S
Zn219 O227 2.024 . S
Zn219 O229 2.039 . S
Zn219 O231 2.034 . S
O220 C204 1.251 . S
O220 Zn211 2.039 . S
C221 O226 1.246 . S
C221 O227 1.249 . S
O222 C204 1.254 . S
O222 Zn219 2.025 . S
H223 C215 0.952 . S
H224 C206 0.952 . S
H225 C214 0.948 . S
O226 Zn211 2.034 . S
O226 C221 1.246 . S
O227 Zn219 2.024 . S
O227 C221 1.249 . S
H228 C210 0.948 . S
O229 Zn219 2.039 . S
O229 C233 1.251 . S
O230 Zn211 2.025 . S
O230 C233 1.254 . S
O231 C212 1.246 . S
O231 Zn219 2.034 . S
O232 Zn211 2.024 . S
O232 C212 1.249 . S
C233 O229 1.251 . S
C233 O230 1.254 . S
H234 C207 0.949 . S
H235 C209 0.950 . S
H236 C216 0.949 . S
H237 C218 0.950 . S
C238 O254 1.251 . S
C238 O256 1.254 . S
N239 C240 1.333 . S
N239 C244 1.307 . S
N239 Zn245 2.020 . S
C240 N239 1.333 . S
C240 C241 1.379 . S
C240 H258 0.952 . S
C241 C240 1.379 . S
C241 C242 1.390 . S
C241 H268 0.949 . S
C242 C241 1.390 . S
C242 C243 1.357 . S
C243 C242 1.357 . S
C243 C244 1.370 . S
C243 H269 0.950 . S
C244 N239 1.307 . S
C244 C243 1.370 . S
C244 H262 0.948 . S
Zn245 N239 2.020 . S
Zn245 O254 2.039 . S
Zn245 O260 2.034 . S
Zn245 O264 2.025 . S
Zn245 O266 2.024 . S
C246 O265 1.246 . S
C246 O266 1.249 . S
N247 C248 1.307 . S
N247 C249 1.333 . S
N247 Zn253 2.020 . S
C248 N247 1.307 . S
C248 C252 1.370 . S
C248 H259 0.948 . S
C249 N247 1.333 . S
C249 C250 1.379 1_565 S
C249 H257 0.952 . S
C250 C249 1.379 1_545 S
C250 C251 1.390 . S
C250 H270 0.949 . S
C251 C250 1.390 . S
C251 C252 1.357 1_545 S
C252 C248 1.370 . S
C252 C251 1.357 1_565 S
C252 H271 0.950 . S
Zn253 N247 2.020 . S
Zn253 O256 2.025 . S
Zn253 O261 2.024 . S
Zn253 O263 2.039 . S
Zn253 O265 2.034 . S
O254 C238 1.251 . S
O254 Zn245 2.039 . S
C255 O260 1.246 . S
C255 O261 1.249 . S
O256 C238 1.254 . S
O256 Zn253 2.025 . S
H257 C249 0.952 . S
H258 C240 0.952 . S
H259 C248 0.948 . S
O260 Zn245 2.034 . S
O260 C255 1.246 . S
O261 Zn253 2.024 . S
O261 C255 1.249 . S
H262 C244 0.948 . S
O263 Zn253 2.039 . S
O263 C267 1.251 . S
O264 Zn245 2.025 . S
O264 C267 1.254 . S
O265 C246 1.246 . S
O265 Zn253 2.034 . S
O266 Zn245 2.024 . S
O266 C246 1.249 . S
C267 O263 1.251 . S
C267 O264 1.254 . S
H268 C241 0.949 . S
H269 C243 0.950 . S
H270 C250 0.949 . S
H271 C252 0.950 . S
C272 O288 1.251 . S
C272 O290 1.254 . S
N273 C274 1.333 . S
N273 C278 1.307 . S
N273 Zn279 2.020 . S
C274 N273 1.333 . S
C274 C275 1.379 . S
C274 H292 0.952 . S
C275 C274 1.379 . S
C275 C276 1.390 . S
C275 H302 0.949 . S
C276 C275 1.390 . S
C276 C277 1.357 . S
C277 C276 1.357 . S
C277 C278 1.370 . S
C277 H303 0.950 . S
C278 N273 1.307 . S
C278 C277 1.370 . S
C278 H296 0.948 . S
Zn279 N273 2.020 . S
Zn279 O288 2.039 . S
Zn279 O294 2.034 1_554 S
Zn279 O298 2.025 1_554 S
Zn279 O300 2.024 . S
C280 O299 1.246 . S
C280 O300 1.249 . S
N281 C282 1.307 . S
N281 C283 1.333 . S
N281 Zn287 2.020 . S
C282 N281 1.307 . S
C282 C286 1.370 . S
C282 H293 0.948 . S
C283 N281 1.333 . S
C283 C284 1.379 . S
C283 H291 0.952 . S
C284 C283 1.379 . S
C284 C285 1.390 . S
C284 H304 0.949 . S
C285 C284 1.390 . S
C285 C286 1.357 . S
C286 C282 1.370 . S
C286 C285 1.357 . S
C286 H305 0.950 . S
Zn287 N281 2.020 . S
Zn287 O290 2.025 . S
Zn287 O295 2.024 1_554 S
Zn287 O297 2.039 1_554 S
Zn287 O299 2.034 . S
O288 C272 1.251 . S
O288 Zn279 2.039 . S
C289 O294 1.246 . S
C289 O295 1.249 . S
O290 C272 1.254 . S
O290 Zn287 2.025 . S
H291 C283 0.952 . S
H292 C274 0.952 . S
H293 C282 0.948 . S
O294 Zn279 2.034 1_556 S
O294 C289 1.246 . S
O295 Zn287 2.024 1_556 S
O295 C289 1.249 . S
H296 C278 0.948 . S
O297 Zn287 2.039 1_556 S
O297 C301 1.251 . S
O298 Zn279 2.025 1_556 S
O298 C301 1.254 . S
O299 C280 1.246 . S
O299 Zn287 2.034 . S
O300 Zn279 2.024 . S
O300 C280 1.249 . S
C301 O297 1.251 . S
C301 O298 1.254 . S
H302 C275 0.949 . S
H303 C277 0.950 . S
H304 C284 0.949 . S
H305 C286 0.950 . S
C306 O322 1.251 . S
C306 O324 1.254 . S
N307 C308 1.333 . S
N307 C312 1.307 . S
N307 Zn313 2.020 . S
C308 N307 1.333 . S
C308 C309 1.379 . S
C308 H326 0.952 . S
C309 C308 1.379 . S
C309 C310 1.390 . S
C309 H336 0.949 . S
C310 C309 1.390 . S
C310 C311 1.357 . S
C311 C310 1.357 . S
C311 C312 1.370 . S
C311 H337 0.950 . S
C312 N307 1.307 . S
C312 C311 1.370 . S
C312 H330 0.948 . S
Zn313 N307 2.020 . S
Zn313 O322 2.039 . S
Zn313 O328 2.034 . S
Zn313 O332 2.025 . S
Zn313 O334 2.024 . S
C314 O333 1.246 . S
C314 O334 1.249 . S
N315 C316 1.307 . S
N315 C317 1.333 . S
N315 Zn321 2.020 . S
C316 N315 1.307 . S
C316 C320 1.370 . S
C316 H327 0.948 . S
C317 N315 1.333 . S
C317 C318 1.379 1_455 S
C317 H325 0.952 . S
C318 C317 1.379 1_655 S
C318 C319 1.390 . S
C318 H338 0.949 . S
C319 C318 1.390 . S
C319 C320 1.357 1_655 S
C320 C316 1.370 . S
C320 C319 1.357 1_455 S
C320 H339 0.950 . S
Zn321 N315 2.020 . S
Zn321 O324 2.025 . S
Zn321 O329 2.024 . S
Zn321 O331 2.039 . S
Zn321 O333 2.034 . S
O322 C306 1.251 . S
O322 Zn313 2.039 . S
C323 O328 1.246 . S
C323 O329 1.249 . S
O324 C306 1.254 . S
O324 Zn321 2.025 . S
H325 C317 0.952 . S
H326 C308 0.952 . S
H327 C316 0.948 . S
O328 Zn313 2.034 . S
O328 C323 1.246 . S
O329 Zn321 2.024 . S
O329 C323 1.249 . S
H330 C312 0.948 . S
O331 Zn321 2.039 . S
O331 C335 1.251 . S
O332 Zn313 2.025 . S
O332 C335 1.254 . S
O333 C314 1.246 . S
O333 Zn321 2.034 . S
O334 Zn313 2.024 . S
O334 C314 1.249 . S
C335 O331 1.251 . S
C335 O332 1.254 . S
H336 C309 0.949 . S
H337 C311 0.950 . S
H338 C318 0.949 . S
H339 C320 0.950 . S
C340 O356 1.251 . S
C340 O358 1.254 . S
N341 C342 1.333 . S
N341 C346 1.307 . S
N341 Zn347 2.020 . S
C342 N341 1.333 . S
C342 C343 1.379 . S
C342 H360 0.952 . S
C343 C342 1.379 . S
C343 C344 1.390 . S
C343 H370 0.949 . S
C344 C343 1.390 . S
C344 C345 1.357 . S
C345 C344 1.357 . S
C345 C346 1.370 . S
C345 H371 0.950 . S
C346 N341 1.307 . S
C346 C345 1.370 . S
C346 H364 0.948 . S
Zn347 N341 2.020 . S
Zn347 O356 2.039 . S
Zn347 O362 2.034 . S
Zn347 O366 2.025 . S
Zn347 O368 2.024 . S
C348 O367 1.246 . S
C348 O368 1.249 . S
N349 C350 1.307 . S
N349 C351 1.333 . S
N349 Zn355 2.020 . S
C350 N349 1.307 . S
C350 C354 1.370 . S
C350 H361 0.948 . S
C351 N349 1.333 . S
C351 C352 1.379 1_545 S
C351 H359 0.952 . S
C352 C351 1.379 1_565 S
C352 C353 1.390 . S
C352 H372 0.949 . S
C353 C352 1.390 . S
C353 C354 1.357 1_565 S
C354 C350 1.370 . S
C354 C353 1.357 1_545 S
C354 H373 0.950 . S
Zn355 N349 2.020 . S
Zn355 O358 2.025 . S
Zn355 O363 2.024 . S
Zn355 O365 2.039 . S
Zn355 O367 2.034 . S
O356 C340 1.251 . S
O356 Zn347 2.039 . S
C357 O362 1.246 . S
C357 O363 1.249 . S
O358 C340 1.254 . S
O358 Zn355 2.025 . S
H359 C351 0.952 . S
H360 C342 0.952 . S
H361 C350 0.948 . S
O362 Zn347 2.034 . S
O362 C357 1.246 . S
O363 Zn355 2.024 . S
O363 C357 1.249 . S
H364 C346 0.948 . S
O365 Zn355 2.039 . S
O365 C369 1.251 . S
O366 Zn347 2.025 . S
O366 C369 1.254 . S
O367 C348 1.246 . S
O367 Zn355 2.034 . S
O368 Zn347 2.024 . S
O368 C348 1.249 . S
C369 O365 1.251 . S
C369 O366 1.254 . S
H370 C343 0.949 . S
H371 C345 0.950 . S
H372 C352 0.949 . S
H373 C354 0.950 . S
C374 O390 1.251 . S
C374 O392 1.254 . S
N375 C376 1.333 . S
N375 C380 1.307 . S
N375 Zn381 2.020 . S
C376 N375 1.333 . S
C376 C377 1.379 . S
C376 H394 0.952 . S
C377 C376 1.379 . S
C377 C378 1.390 . S
C377 H404 0.949 . S
C378 C377 1.390 . S
C378 C379 1.357 . S
C379 C378 1.357 . S
C379 C380 1.370 . S
C379 H405 0.950 . S
C380 N375 1.307 . S
C380 C379 1.370 . S
C380 H398 0.948 . S
Zn381 N375 2.020 . S
Zn381 O390 2.039 . S
Zn381 O396 2.034 1_554 S
Zn381 O400 2.025 1_554 S
Zn381 O402 2.024 . S
C382 O401 1.246 . S
C382 O402 1.249 . S
N383 C384 1.307 . S
N383 C385 1.333 . S
N383 Zn389 2.020 . S
C384 N383 1.307 . S
C384 C388 1.370 . S
C384 H395 0.948 . S
C385 N383 1.333 . S
C385 C386 1.379 . S
C385 H393 0.952 . S
C386 C385 1.379 . S
C386 C387 1.390 . S
C386 H406 0.949 . S
C387 C386 1.390 . S
C387 C388 1.357 . S
C388 C384 1.370 . S
C388 C387 1.357 . S
C388 H407 0.950 . S
Zn389 N383 2.020 . S
Zn389 O392 2.025 . S
Zn389 O397 2.024 1_554 S
Zn389 O399 2.039 1_554 S
Zn389 O401 2.034 . S
O390 C374 1.251 . S
O390 Zn381 2.039 . S
C391 O396 1.246 . S
C391 O397 1.249 . S
O392 C374 1.254 . S
O392 Zn389 2.025 . S
H393 C385 0.952 . S
H394 C376 0.952 . S
H395 C384 0.948 . S
O396 Zn381 2.034 1_556 S
O396 C391 1.246 . S
O397 Zn389 2.024 1_556 S
O397 C391 1.249 . S
H398 C380 0.948 . S
O399 Zn389 2.039 1_556 S
O399 C403 1.251 . S
O400 Zn381 2.025 1_556 S
O400 C403 1.254 . S
O401 C382 1.246 . S
O401 Zn389 2.034 . S
O402 Zn381 2.024 . S
O402 C382 1.249 . S
C403 O399 1.251 . S
C403 O400 1.254 . S
H404 C377 0.949 . S
H405 C379 0.950 . S
H406 C386 0.949 . S
H407 C388 0.950 . S
C408 C409 1.369 . S
C408 C410 1.419 . S
C408 H412 0.930 . S
C409 C408 1.369 . S
C409 C418 1.429 . S
C410 C408 1.419 . S
C410 C411 1.363 . S
C410 H413 0.929 . S
C411 C410 1.363 . S
C411 C417 1.428 . S
H412 C408 0.930 . S
H413 C410 0.929 . S
S414 N415 1.613 . S
S414 N416 1.610 . S
N415 S414 1.613 . S
N415 C418 1.350 . S
N416 S414 1.610 . S
N416 C417 1.351 . S
C417 C411 1.428 . S
C417 N416 1.351 . S
C417 C418 1.434 . S
C418 C409 1.429 . S
C418 N415 1.350 . S
C418 C417 1.434 . S
C419 C420 1.369 . S
C419 C421 1.419 . S
C419 H423 0.930 . S
C420 C419 1.369 . S
C420 C429 1.429 . S
C421 C419 1.419 . S
C421 C422 1.363 . S
C421 H424 0.929 . S
C422 C421 1.363 . S
C422 C428 1.428 . S
H423 C419 0.930 . S
H424 C421 0.929 . S
S425 N426 1.613 . S
S425 N427 1.610 . S
N426 S425 1.613 . S
N426 C429 1.350 . S
N427 S425 1.610 . S
N427 C428 1.351 . S
C428 C422 1.428 . S
C428 N427 1.351 . S
C428 C429 1.434 . S
C429 C420 1.429 . S
C429 N426 1.350 . S
C429 C428 1.434 . S
C430 C431 1.369 . S
C430 C432 1.419 . S
C430 H434 0.930 . S
C431 C430 1.369 . S
C431 C440 1.429 . S
C432 C430 1.419 . S
C432 C433 1.363 . S
C432 H435 0.929 . S
C433 C432 1.363 . S
C433 C439 1.428 . S
H434 C430 0.930 . S
H435 C432 0.929 . S
S436 N437 1.613 . S
S436 N438 1.610 1_554 S
N437 S436 1.613 . S
N437 C440 1.350 1_554 S
N438 S436 1.610 1_556 S
N438 C439 1.351 . S
C439 C433 1.428 . S
C439 N438 1.351 . S
C439 C440 1.434 . S
C440 C431 1.429 . S
C440 N437 1.350 1_556 S
C440 C439 1.434 . S
C441 C442 1.369 . S
C441 C443 1.419 . S
C441 H445 0.930 . S
C442 C441 1.369 . S
C442 C451 1.429 . S
C443 C441 1.419 . S
C443 C444 1.363 . S
C443 H446 0.929 . S
C444 C443 1.363 . S
C444 C450 1.428 . S
H445 C441 0.930 . S
H446 C443 0.929 . S
S447 N448 1.613 . S
S447 N449 1.610 . S
N448 S447 1.613 . S
N448 C451 1.350 . S
N449 S447 1.610 . S
N449 C450 1.351 . S
C450 C444 1.428 . S
C450 N449 1.351 . S
C450 C451 1.434 . S
C451 C442 1.429 . S
C451 N448 1.350 . S
C451 C450 1.434 . S
C452 C453 1.369 . S
C452 C454 1.419 . S
C452 H456 0.930 . S
C453 C452 1.369 . S
C453 C462 1.429 . S
C454 C452 1.419 . S
C454 C455 1.363 . S
C454 H457 0.929 . S
C455 C454 1.363 . S
C455 C461 1.428 . S
H456 C452 0.930 . S
H457 C454 0.929 . S
S458 N459 1.613 . S
S458 N460 1.610 . S
N459 S458 1.613 . S
N459 C462 1.350 . S
N460 S458 1.610 . S
N460 C461 1.351 . S
C461 C455 1.428 . S
C461 N460 1.351 . S
C461 C462 1.434 . S
C462 C453 1.429 . S
C462 N459 1.350 . S
C462 C461 1.434 . S
C463 C464 1.369 . S
C463 C465 1.419 . S
C463 H467 0.930 . S
C464 C463 1.369 . S
C464 C473 1.429 . S
C465 C463 1.419 . S
C465 C466 1.363 . S
C465 H468 0.929 . S
C466 C465 1.363 . S
C466 C472 1.428 . S
H467 C463 0.930 . S
H468 C465 0.929 . S
S469 N470 1.613 1_554 S
S469 N471 1.610 1_554 S
N470 S469 1.613 1_556 S
N470 C473 1.350 . S
N471 S469 1.610 1_556 S
N471 C472 1.351 . S
C472 C466 1.428 . S
C472 N471 1.351 . S
C472 C473 1.434 . S
C473 C464 1.429 . S
C473 N470 1.350 . S
C473 C472 1.434 . S
C474 C475 1.369 . S
C474 C476 1.419 . S
C474 H478 0.930 . S
C475 C474 1.369 . S
C475 C484 1.429 1_556 S
C476 C474 1.419 . S
C476 C477 1.363 1_556 S
C476 H479 0.929 . S
C477 C476 1.363 1_554 S
C477 C483 1.428 . S
H478 C474 0.930 . S
H479 C476 0.929 . S
S480 N481 1.613 . S
S480 N482 1.610 . S
N481 S480 1.613 . S
N481 C484 1.350 . S
N482 S480 1.610 . S
N482 C483 1.351 . S
C483 C477 1.428 . S
C483 N482 1.351 . S
C483 C484 1.434 . S
C484 C475 1.429 1_554 S
C484 N481 1.350 . S
C484 C483 1.434 . S
C485 C486 1.369 . S
C485 C487 1.419 . S
C485 H489 0.930 . S
C486 C485 1.369 . S
C486 C495 1.429 . S
C487 C485 1.419 . S
C487 C488 1.363 . S
C487 H490 0.929 . S
C488 C487 1.363 . S
C488 C494 1.428 . S
H489 C485 0.930 . S
H490 C487 0.929 . S
S491 N492 1.613 . S
S491 N493 1.610 . S
N492 S491 1.613 . S
N492 C495 1.350 . S
N493 S491 1.610 . S
N493 C494 1.351 . S
C494 C488 1.428 . S
C494 N493 1.351 . S
C494 C495 1.434 . S
C495 C486 1.429 . S
C495 N492 1.350 . S
C495 C494 1.434 . S
C496 C497 1.369 . S
C496 C498 1.419 . S
C496 H500 0.930 . S
C497 C496 1.369 . S
C497 C506 1.429 . S
C498 C496 1.419 . S
C498 C499 1.363 . S
C498 H501 0.929 . S
C499 C498 1.363 . S
C499 C505 1.428 . S
H500 C496 0.930 . S
H501 C498 0.929 . S
S502 N503 1.613 . S
S502 N504 1.610 . S
N503 S502 1.613 . S
N503 C506 1.350 . S
N504 S502 1.610 . S
N504 C505 1.351 . S
C505 C499 1.428 . S
C505 N504 1.351 . S
C505 C506 1.434 . S
C506 C497 1.429 . S
C506 N503 1.350 . S
C506 C505 1.434 . S
C507 C508 1.369 . S
C507 C509 1.419 1_556 S
C507 H511 0.930 . S
C508 C507 1.369 . S
C508 C517 1.429 . S
C509 C507 1.419 1_554 S
C509 C510 1.363 . S
C509 H512 0.929 . S
C510 C509 1.363 . S
C510 C516 1.428 . S
H511 C507 0.930 . S
H512 C509 0.929 . S
S513 N514 1.613 1_554 S
S513 N515 1.610 . S
N514 S513 1.613 1_556 S
N514 C517 1.350 . S
N515 S513 1.610 . S
N515 C516 1.351 . S
C516 C510 1.428 . S
C516 N515 1.351 . S
C516 C517 1.434 1_554 S
C517 C508 1.429 . S
C517 N514 1.350 . S
C517 C516 1.434 1_556 S
C518 C519 1.369 . S
C518 C520 1.419 . S
C518 H522 0.930 . S
C519 C518 1.369 . S
C519 C528 1.429 . S
C520 C518 1.419 . S
C520 C521 1.363 . S
C520 H523 0.929 . S
C521 C520 1.363 . S
C521 C527 1.428 . S
H522 C518 0.930 . S
H523 C520 0.929 . S
S524 N525 1.613 . S
S524 N526 1.610 . S
N525 S524 1.613 . S
N525 C528 1.350 . S
N526 S524 1.610 . S
N526 C527 1.351 . S
C527 C521 1.428 . S
C527 N526 1.351 . S
C527 C528 1.434 . S
C528 C519 1.429 . S
C528 N525 1.350 . S
C528 C527 1.434 . S
C529 C530 1.369 . S
C529 C531 1.419 . S
C529 H533 0.930 . S
C530 C529 1.369 . S
C530 C539 1.429 . S
C531 C529 1.419 . S
C531 C532 1.363 . S
C531 H534 0.929 . S
C532 C531 1.363 . S
C532 C538 1.428 . S
H533 C529 0.930 . S
H534 C531 0.929 . S
S535 N536 1.613 . S
S535 N537 1.610 . S
N536 S535 1.613 . S
N536 C539 1.350 . S
N537 S535 1.610 . S
N537 C538 1.351 . S
C538 C532 1.428 . S
C538 N537 1.351 . S
C538 C539 1.434 . S
C539 C530 1.429 . S
C539 N536 1.350 . S
C539 C538 1.434 . S
C540 C541 1.361 1_545 S
C540 C542 1.425 . S
C540 H544 0.932 . S
C541 C540 1.361 1_565 S
C541 C550 1.429 1_556 S
C542 C540 1.425 . S
C542 C543 1.363 1_556 S
C542 H545 0.929 . S
C543 C542 1.363 1_554 S
C543 C549 1.428 1_545 S
H544 C540 0.932 . S
H545 C542 0.929 . S
S546 N547 1.613 . S
S546 N548 1.610 . S
N547 S546 1.613 . S
N547 C550 1.350 . S
N548 S546 1.610 . S
N548 C549 1.351 . S
C549 C543 1.428 1_565 S
C549 N548 1.351 . S
C549 C550 1.434 . S
C550 C541 1.429 1_554 S
C550 N547 1.350 . S
C550 C549 1.434 . S
C551 C552 1.369 . S
C551 C553 1.419 . S
C551 H555 0.930 . S
C552 C551 1.369 . S
C552 C561 1.429 . S
C553 C551 1.419 . S
C553 C554 1.363 . S
C553 H556 0.929 . S
C554 C553 1.363 . S
C554 C560 1.428 . S
H555 C551 0.930 . S
H556 C553 0.929 . S
S557 N558 1.613 . S
S557 N559 1.610 . S
N558 S557 1.613 . S
N558 C561 1.350 . S
N559 S557 1.610 . S
N559 C560 1.351 . S
C560 C554 1.428 . S
C560 N559 1.351 . S
C560 C561 1.434 . S
C561 C552 1.429 . S
C561 N558 1.350 . S
C561 C560 1.434 . S
C562 C563 1.369 . S
C562 C564 1.419 1_455 S
C562 H566 0.930 . S
C563 C562 1.369 . S
C563 C572 1.429 . S
C564 C562 1.419 1_655 S
C564 C565 1.363 . S
C564 H567 0.929 . S
C565 C564 1.363 . S
C565 C571 1.428 . S
H566 C562 0.930 . S
H567 C564 0.929 . S
S568 N569 1.613 1_655 S
S568 N570 1.610 . S
N569 S568 1.613 1_455 S
N569 C572 1.350 . S
N570 S568 1.610 . S
N570 C571 1.351 . S
C571 C565 1.428 . S
C571 N570 1.351 . S
C571 C572 1.434 1_655 S
C572 C563 1.429 . S
C572 N569 1.350 . S
C572 C571 1.434 1_455 S
C573 C574 1.369 1_556 S
C573 C575 1.427 . S
C573 H577 0.930 . S
C574 C573 1.369 1_554 S
C574 C583 1.429 1_565 S
C575 C573 1.427 . S
C575 C576 1.356 1_565 S
C575 H578 0.928 . S
C576 C575 1.356 1_545 S
C576 C582 1.428 1_556 S
H577 C573 0.930 . S
H578 C575 0.928 . S
S579 N580 1.613 . S
S579 N581 1.610 . S
N580 S579 1.613 . S
N580 C583 1.350 . S
N581 S579 1.610 . S
N581 C582 1.351 . S
C582 C576 1.428 1_554 S
C582 N581 1.351 . S
C582 C583 1.434 . S
C583 C574 1.429 1_545 S
C583 N580 1.350 . S
C583 C582 1.434 . S
C584 C585 1.369 . S
C584 C586 1.419 . S
C584 H588 0.930 . S
C585 C584 1.369 . S
C585 C594 1.429 . S
C586 C584 1.419 . S
C586 C587 1.363 . S
C586 H589 0.929 . S
C587 C586 1.363 . S
C587 C593 1.428 . S
H588 C584 0.930 . S
H589 C586 0.929 . S
S590 N591 1.613 . S
S590 N592 1.610 . S
N591 S590 1.613 . S
N591 C594 1.350 . S
N592 S590 1.610 . S
N592 C593 1.351 . S
C593 C587 1.428 . S
C593 N592 1.351 . S
C593 C594 1.434 . S
C594 C585 1.429 . S
C594 N591 1.350 . S
C594 C593 1.434 . S
C595 C596 1.369 . S
C595 C597 1.415 . S
C595 H599 0.930 . S
C596 C595 1.369 . S
C596 C605 1.406 1_455 S
C597 C595 1.415 . S
C597 C598 1.366 1_455 S
C597 H600 0.930 . S
C598 C597 1.366 1_655 S
C598 C604 1.428 . S
H599 C595 0.930 . S
H600 C597 0.930 . S
S601 N602 1.613 . S
S601 N603 1.610 . S
N602 S601 1.613 . S
N602 C605 1.346 . S
N603 S601 1.610 . S
N603 C604 1.351 . S
C604 C598 1.428 . S
C604 N603 1.351 . S
C604 C605 1.465 . S
C605 C596 1.406 1_655 S
C605 N602 1.346 . S
C605 C604 1.465 . S
C606 C607 1.369 . S
C606 C608 1.419 1_565 S
C606 H610 0.930 . S
C607 C606 1.369 . S
C607 C616 1.429 . S
C608 C606 1.419 1_545 S
C608 C609 1.363 . S
C608 H611 0.929 . S
C609 C608 1.363 . S
C609 C615 1.428 . S
H610 C606 0.930 . S
H611 C608 0.929 . S
S612 N613 1.613 . S
S612 N614 1.610 1_565 S
N613 S612 1.613 . S
N613 C616 1.350 . S
N614 S612 1.610 1_545 S
N614 C615 1.351 . S
C615 C609 1.428 . S
C615 N614 1.351 . S
C615 C616 1.434 1_545 S
C616 C607 1.429 . S
C616 N613 1.350 . S
C616 C615 1.434 1_565 S
C617 C618 1.369 . S
C617 C619 1.419 . S
C617 H621 0.930 . S
C618 C617 1.369 . S
C618 C627 1.429 . S
C619 C617 1.419 . S
C619 C620 1.363 . S
C619 H622 0.929 . S
C620 C619 1.363 . S
C620 C626 1.428 . S
H621 C617 0.930 . S
H622 C619 0.929 . S
S623 N624 1.613 . S
S623 N625 1.610 . S
N624 S623 1.613 . S
N624 C627 1.350 . S
N625 S623 1.610 . S
N625 C626 1.351 . S
C626 C620 1.428 . S
C626 N625 1.351 . S
C626 C627 1.434 . S
C627 C618 1.429 . S
C627 N624 1.350 . S
C627 C626 1.434 . S
C628 C629 1.369 . S
C628 C630 1.419 1_455 S
C628 H632 0.930 . S
C629 C628 1.369 . S
C629 C638 1.429 1_556 S
C630 C628 1.419 1_655 S
C630 C631 1.363 . S
C630 H633 0.929 . S
C631 C630 1.363 . S
C631 C637 1.428 1_556 S
H632 C628 0.930 . S
H633 C630 0.929 . S
S634 N635 1.613 . S
S634 N636 1.610 1_455 S
N635 S634 1.613 . S
N635 C638 1.350 . S
N636 S634 1.610 1_655 S
N636 C637 1.351 . S
C637 C631 1.428 1_554 S
C637 N636 1.351 . S
C637 C638 1.434 1_655 S
C638 C629 1.429 1_554 S
C638 N635 1.350 . S
C638 C637 1.434 1_455 S
C639 C640 1.369 . S
C639 C641 1.419 1_655 S
C639 H643 0.930 . S
C640 C639 1.369 . S
C640 C649 1.429 . S
C641 C639 1.419 1_455 S
C641 C642 1.363 . S
C641 H644 0.929 . S
C642 C641 1.363 . S
C642 C648 1.428 . S
H643 C639 0.930 . S
H644 C641 0.929 . S
S645 N646 1.613 1_455 S
S645 N647 1.610 . S
N646 S645 1.613 1_655 S
N646 C649 1.350 . S
N647 S645 1.610 . S
N647 C648 1.351 . S
C648 C642 1.428 . S
C648 N647 1.351 . S
C648 C649 1.434 1_455 S
C649 C640 1.429 . S
C649 N646 1.350 . S
C649 C648 1.434 1_655 S
C650 C651 1.369 . S
C650 C652 1.419 1_545 S
C650 H654 0.930 . S
C651 C650 1.369 . S
C651 C660 1.429 . S
C652 C650 1.419 1_565 S
C652 C653 1.363 . S
C652 H655 0.929 . S
C653 C652 1.363 . S
C653 C659 1.428 . S
H654 C650 0.930 . S
H655 C652 0.929 . S
S656 N657 1.613 1_565 S
S656 N658 1.610 . S
N657 S656 1.613 1_545 S
N657 C660 1.350 . S
N658 S656 1.610 . S
N658 C659 1.351 . S
C659 C653 1.428 . S
C659 N658 1.351 . S
C659 C660 1.434 1_565 S
C660 C651 1.429 . S
C660 N657 1.350 . S
C660 C659 1.434 1_545 S
C661 C662 1.369 1_556 S
C661 C663 1.419 . S
C661 H665 0.930 . S
C662 C661 1.369 1_554 S
C662 C671 1.429 . S
C663 C661 1.419 . S
C663 C664 1.363 1_556 S
C663 H666 0.929 . S
C664 C663 1.363 1_554 S
C664 C670 1.428 . S
H665 C661 0.930 . S
H666 C663 0.929 . S
S667 N668 1.613 . S
S667 N669 1.610 . S
N668 S667 1.613 . S
N668 C671 1.350 . S
N669 S667 1.610 . S
N669 C670 1.351 . S
C670 C664 1.428 . S
C670 N669 1.351 . S
C670 C671 1.434 . S
C671 C662 1.429 . S
C671 N668 1.350 . S
C671 C670 1.434 . S
C672 C673 1.369 . S
C672 C674 1.419 1_565 S
C672 H676 0.930 . S
C673 C672 1.369 . S
C673 C682 1.429 . S
C674 C672 1.419 1_545 S
C674 C675 1.363 . S
C674 H677 0.929 . S
C675 C674 1.363 . S
C675 C681 1.428 . S
H676 C672 0.930 . S
H677 C674 0.929 . S
S678 N679 1.607 1_545 S
S678 N680 1.610 . S
N679 S678 1.607 1_565 S
N679 C682 1.350 . S
N680 S678 1.610 . S
N680 C681 1.351 . S
C681 C675 1.428 . S
C681 N680 1.351 . S
C681 C682 1.434 1_545 S
C682 C673 1.429 . S
C682 N679 1.350 . S
C682 C681 1.434 1_565 S
C683 C684 1.369 . S
C683 C685 1.419 . S
C683 H687 0.930 . S
C684 C683 1.369 . S
C684 C693 1.429 . S
C685 C683 1.419 . S
C685 C686 1.363 . S
C685 H688 0.929 . S
C686 C685 1.363 . S
C686 C692 1.428 . S
H687 C683 0.930 . S
H688 C685 0.929 . S
S689 N690 1.613 . S
S689 N691 1.610 . S
N690 S689 1.613 . S
N690 C693 1.350 . S
N691 S689 1.610 . S
N691 C692 1.351 . S
C692 C686 1.428 . S
C692 N691 1.351 . S
C692 C693 1.434 . S
C693 C684 1.429 . S
C693 N690 1.350 . S
C693 C692 1.434 . S
C694 C695 1.369 . S
C694 C696 1.419 1_655 S
C694 H698 0.930 . S
C695 C694 1.369 . S
C695 C704 1.429 . S
C696 C694 1.419 1_455 S
C696 C697 1.363 . S
C696 H699 0.929 . S
C697 C696 1.363 . S
C697 C703 1.428 . S
H698 C694 0.930 . S
H699 C696 0.929 . S
S700 N701 1.578 1_455 S
S700 N702 1.610 1_556 S
N701 S700 1.578 1_655 S
N701 C704 1.356 1_556 S
N702 S700 1.610 1_554 S
N702 C703 1.351 . S
C703 C697 1.428 . S
C703 N702 1.351 . S
C703 C704 1.434 1_455 S
C704 C695 1.429 . S
C704 N701 1.356 1_554 S
C704 C703 1.434 1_655 S
C705 C706 1.369 . S
C705 C707 1.419 1_545 S
C705 H709 0.930 . S
C706 C705 1.369 . S
C706 C715 1.429 . S
C707 C705 1.419 1_565 S
C707 C708 1.363 . S
C707 H710 0.929 . S
C708 C707 1.363 . S
C708 C714 1.428 . S
H709 C705 0.930 . S
H710 C707 0.929 . S
S711 N712 1.613 . S
S711 N713 1.610 1_545 S
N712 S711 1.613 . S
N712 C715 1.350 . S
N713 S711 1.610 1_565 S
N713 C714 1.351 . S
C714 C708 1.428 . S
C714 N713 1.351 . S
C714 C715 1.434 1_565 S
C715 C706 1.429 . S
C715 N712 1.350 . S
C715 C714 1.434 1_545 S
C716 C717 1.369 . S
C716 C718 1.419 . S
C716 H720 0.930 . S
C717 C716 1.369 . S
C717 C726 1.429 . S
C718 C716 1.419 . S
C718 C719 1.363 . S
C718 H721 0.929 . S
C719 C718 1.363 . S
C719 C725 1.428 . S
H720 C716 0.930 . S
H721 C718 0.929 . S
S722 N723 1.613 . S
S722 N724 1.610 . S
N723 S722 1.613 . S
N723 C726 1.350 . S
N724 S722 1.610 . S
N724 C725 1.351 . S
C725 C719 1.428 . S
C725 N724 1.351 . S
C725 C726 1.434 . S
C726 C717 1.429 . S
C726 N723 1.350 . S
C726 C725 1.434 . S
C727 C728 1.369 . S
C727 C729 1.419 1_455 S
C727 H731 0.930 . S
C728 C727 1.369 . S
C728 C737 1.429 . S
C729 C727 1.419 1_655 S
C729 C730 1.363 . S
C729 H732 0.929 . S
C730 C729 1.363 . S
C730 C736 1.428 . S
H731 C727 0.930 . S
H732 C729 0.929 . S
S733 N734 1.613 . S
S733 N735 1.570 1_455 S
N734 S733 1.613 . S
N734 C737 1.350 . S
N735 S733 1.570 1_655 S
N735 C736 1.359 . S
C736 C730 1.428 . S
C736 N735 1.359 . S
C736 C737 1.434 1_655 S
C737 C728 1.429 . S
C737 N734 1.350 . S
C737 C736 1.434 1_455 S
C738 C739 1.369 . S
C738 C740 1.419 . S
C738 H742 0.930 . S
C739 C738 1.369 . S
C739 C748 1.429 . S
C740 C738 1.419 . S
C740 C741 1.363 . S
C740 H743 0.929 . S
C741 C740 1.363 . S
C741 C747 1.428 . S
H742 C738 0.930 . S
H743 C740 0.929 . S
S744 N745 1.613 . S
S744 N746 1.610 . S
N745 S744 1.613 . S
N745 C748 1.350 . S
N746 S744 1.610 . S
N746 C747 1.351 . S
C747 C741 1.428 . S
C747 N746 1.351 . S
C747 C748 1.434 . S
C748 C739 1.429 . S
C748 N745 1.350 . S
C748 C747 1.434 . S
C749 C750 1.369 . S
C749 C751 1.419 . S
C749 H753 0.930 . S
C750 C749 1.369 . S
C750 C759 1.429 . S
C751 C749 1.419 . S
C751 C752 1.363 . S
C751 H754 0.929 . S
C752 C751 1.363 . S
C752 C758 1.428 . S
H753 C749 0.930 . S
H754 C751 0.929 . S
S755 N756 1.613 . S
S755 N757 1.610 . S
N756 S755 1.613 . S
N756 C759 1.350 . S
N757 S755 1.610 . S
N757 C758 1.351 . S
C758 C752 1.428 . S
C758 N757 1.351 . S
C758 C759 1.434 . S
C759 C750 1.429 . S
C759 N756 1.350 . S
C759 C758 1.434 . S
C760 C761 1.369 . S
C760 C762 1.419 . S
C760 H764 0.930 . S
C761 C760 1.369 . S
C761 C770 1.429 . S
C762 C760 1.419 . S
C762 C763 1.363 . S
C762 H765 0.929 . S
C763 C762 1.363 . S
C763 C769 1.428 . S
H764 C760 0.930 . S
H765 C762 0.929 . S
S766 N767 1.613 . S
S766 N768 1.610 . S
N767 S766 1.613 . S
N767 C770 1.350 . S
N768 S766 1.610 . S
N768 C769 1.351 . S
C769 C763 1.428 . S
C769 N768 1.351 . S
C769 C770 1.434 . S
C770 C761 1.429 . S
C770 N767 1.350 . S
C770 C769 1.434 . S
C771 C772 1.369 . S
C771 C773 1.419 . S
C771 H775 0.930 . S
C772 C771 1.369 . S
C772 C781 1.429 . S
C773 C771 1.419 . S
C773 C774 1.363 . S
C773 H776 0.929 . S
C774 C773 1.363 . S
C774 C780 1.428 . S
H775 C771 0.930 . S
H776 C773 0.929 . S
S777 N778 1.613 . S
S777 N779 1.610 . S
N778 S777 1.613 . S
N778 C781 1.350 . S
N779 S777 1.610 . S
N779 C780 1.351 . S
C780 C774 1.428 . S
C780 N779 1.351 . S
C780 C781 1.434 . S
C781 C772 1.429 . S
C781 N778 1.350 . S
C781 C780 1.434 . S
C782 C783 1.369 . S
C782 C784 1.419 . S
C782 H786 0.930 . S
C783 C782 1.369 . S
C783 C792 1.429 . S
C784 C782 1.419 . S
C784 C785 1.363 . S
C784 H787 0.929 . S
C785 C784 1.363 . S
C785 C791 1.428 . S
H786 C782 0.930 . S
H787 C784 0.929 . S
S788 N789 1.613 . S
S788 N790 1.610 . S
N789 S788 1.613 . S
N789 C792 1.350 . S
N790 S788 1.610 . S
N790 C791 1.351 . S
C791 C785 1.428 . S
C791 N790 1.351 . S
C791 C792 1.434 . S
C792 C783 1.429 . S
C792 N789 1.350 . S
C792 C791 1.434 . S
C793 C794 1.369 . S
C793 C795 1.419 . S
C793 H797 0.930 . S
C794 C793 1.369 . S
C794 C803 1.429 . S
C795 C793 1.419 . S
C795 C796 1.363 . S
C795 H798 0.929 . S
C796 C795 1.363 . S
C796 C802 1.428 . S
H797 C793 0.930 . S
H798 C795 0.929 . S
S799 N800 1.613 . S
S799 N801 1.610 . S
N800 S799 1.613 . S
N800 C803 1.350 . S
N801 S799 1.610 . S
N801 C802 1.351 . S
C802 C796 1.428 . S
C802 N801 1.351 . S
C802 C803 1.434 . S
C803 C794 1.429 . S
C803 N800 1.350 . S
C803 C802 1.434 . S
C409 C4 1.453 . S
C411 C276 1.451 . S
C420 C38 1.455 . S
C422 C310 1.450 . S
C431 C72 1.456 . S
C433 C344 1.451 . S
C442 C378 1.449 . S
C444 C106 1.455 . S
C453 C140 1.451 . S
C455 C208 1.454 . S
C464 C242 1.450 . S
C466 C174 1.454 . S
C475 C340 2.177 . S
C477 C0 2.175 . S
C486 C374 2.180 . S
C488 C34 2.176 . S
C497 C68 2.180 . S
C499 C204 2.177 . S
C508 C238 2.180 . S
C510 C102 2.178 . S
C519 C272 2.175 . S
C521 C136 2.175 . S
C530 C170 2.178 . S
C532 C306 2.175 . S
C541 C246 2.167 . S
C543 C8 2.163 . S
C552 C280 2.164 . S
C554 C42 2.167 . S
C563 C314 2.165 . S
C565 C76 2.167 . S
C574 C110 2.162 . S
C576 C348 2.167 . S
C585 C144 2.165 . S
C587 C382 2.167 . S
C596 C178 2.161 . S
C598 C212 2.165 . S
C607 C13 0.690 . S
C609 C115 0.705 . S
C618 C47 0.690 . S
C620 C149 0.706 . S
C629 C81 0.695 . S
C631 C183 0.705 . S
C640 C319 0.709 . S
C642 C217 0.693 . S
C651 C251 0.707 . S
C653 C353 0.692 . S
C662 C387 0.695 . S
C664 C285 0.699 . S
C673 C267 2.007 . S
C675 C29 2.011 . S
C684 C301 2.005 . S
C686 C63 2.005 . S
C695 C97 2.007 . S
C697 C335 2.012 . S
C706 C369 2.011 . S
C708 C131 2.006 . S
C717 C403 2.005 . S
C719 C165 2.005 . S
C728 C199 2.009 . S
C730 C233 2.005 . S
C739 C17 2.023 . S
C741 C357 2.029 . S
C750 C51 2.031 . S
C752 C391 2.030 . S
C761 C85 2.028 . S
C763 C221 2.025 . S
C772 C119 2.031 . S
C774 C255 2.025 . S
C783 C153 2.029 . S
C785 C289 2.025 . S
C794 C323 2.027 . S
C796 C187 2.032 . S
