# Generated by pormake.
# Topology uos, (4)-cn, num edge types: 1
# Building blocks:
#     Node 0, Type 0, BuildingBlock: GALJAG_clean_sbu_0, # of connection points: 4
#     Node 1, Type 0, BuildingBlock: GALJAG_clean_sbu_0, # of connection points: 4
#     Node 2, Type 0, BuildingBlock: GALJAG_clean_sbu_0, # of connection points: 4
#     Node 3, Type 0, BuildingBlock: GALJAG_clean_sbu_0, # of connection points: 4
#     Node 4, Type 0, BuildingBlock: GALJAG_clean_sbu_0, # of connection points: 4
#     Node 5, Type 0, BuildingBlock: GALJAG_clean_sbu_0, # of connection points: 4
#     Node 6, Type 0, BuildingBlock: GALJAG_clean_sbu_0, # of connection points: 4
#     Node 7, Type 0, BuildingBlock: GALJAG_clean_sbu_0, # of connection points: 4
#     Node 8, Type 0, BuildingBlock: GALJAG_clean_sbu_0, # of connection points: 4
#     Node 9, Type 0, BuildingBlock: GALJAG_clean_sbu_0, # of connection points: 4
#     Node 10, Type 0, BuildingBlock: GALJAG_clean_sbu_0, # of connection points: 4
#     Node 11, Type 0, BuildingBlock: GALJAG_clean_sbu_0, # of connection points: 4
#     Node 12, Type 0, BuildingBlock: GALJAG_clean_sbu_0, # of connection points: 4
#     Node 13, Type 0, BuildingBlock: GALJAG_clean_sbu_0, # of connection points: 4
#     Node 14, Type 0, BuildingBlock: GALJAG_clean_sbu_0, # of connection points: 4
#     Node 15, Type 0, BuildingBlock: GALJAG_clean_sbu_0, # of connection points: 4
#     Node 16, Type 0, BuildingBlock: GALJAG_clean_sbu_0, # of connection points: 4
#     Node 17, Type 0, BuildingBlock: GALJAG_clean_sbu_0, # of connection points: 4
#     Node 18, Type 0, BuildingBlock: GALJAG_clean_sbu_0, # of connection points: 4
#     Node 19, Type 0, BuildingBlock: GALJAG_clean_sbu_0, # of connection points: 4
#     Node 20, Type 0, BuildingBlock: GALJAG_clean_sbu_0, # of connection points: 4
#     Node 21, Type 0, BuildingBlock: GALJAG_clean_sbu_0, # of connection points: 4
#     Node 22, Type 0, BuildingBlock: GALJAG_clean_sbu_0, # of connection points: 4
#     Node 23, Type 0, BuildingBlock: GALJAG_clean_sbu_0, # of connection points: 4
#     Node 24, Type 0, BuildingBlock: GALJAG_clean_sbu_0, # of connection points: 4
#     Node 25, Type 0, BuildingBlock: GALJAG_clean_sbu_0, # of connection points: 4
#     Node 26, Type 0, BuildingBlock: GALJAG_clean_sbu_0, # of connection points: 4
#     Node 27, Type 0, BuildingBlock: GALJAG_clean_sbu_0, # of connection points: 4
#     Node 28, Type 0, BuildingBlock: GALJAG_clean_sbu_0, # of connection points: 4
#     Node 29, Type 0, BuildingBlock: GALJAG_clean_sbu_0, # of connection points: 4
#     Node 30, Type 0, BuildingBlock: GALJAG_clean_sbu_0, # of connection points: 4
#     Node 31, Type 0, BuildingBlock: GALJAG_clean_sbu_0, # of connection points: 4
#     Edge 32, Type (0, 0), BuildingBlock: XIVTED_clean_linker_0, # of connection points: 2
#     Edge 33, Type (0, 0), BuildingBlock: XIVTED_clean_linker_0, # of connection points: 2
#     Edge 34, Type (0, 0), BuildingBlock: XIVTED_clean_linker_0, # of connection points: 2
#     Edge 35, Type (0, 0), BuildingBlock: XIVTED_clean_linker_0, # of connection points: 2
#     Edge 36, Type (0, 0), BuildingBlock: XIVTED_clean_linker_0, # of connection points: 2
#     Edge 37, Type (0, 0), BuildingBlock: XIVTED_clean_linker_0, # of connection points: 2
#     Edge 38, Type (0, 0), BuildingBlock: XIVTED_clean_linker_0, # of connection points: 2
#     Edge 39, Type (0, 0), BuildingBlock: XIVTED_clean_linker_0, # of connection points: 2
#     Edge 40, Type (0, 0), BuildingBlock: XIVTED_clean_linker_0, # of connection points: 2
#     Edge 41, Type (0, 0), BuildingBlock: XIVTED_clean_linker_0, # of connection points: 2
#     Edge 42, Type (0, 0), BuildingBlock: XIVTED_clean_linker_0, # of connection points: 2
#     Edge 43, Type (0, 0), BuildingBlock: XIVTED_clean_linker_0, # of connection points: 2
#     Edge 44, Type (0, 0), BuildingBlock: XIVTED_clean_linker_0, # of connection points: 2
#     Edge 45, Type (0, 0), BuildingBlock: XIVTED_clean_linker_0, # of connection points: 2
#     Edge 46, Type (0, 0), BuildingBlock: XIVTED_clean_linker_0, # of connection points: 2
#     Edge 47, Type (0, 0), BuildingBlock: XIVTED_clean_linker_0, # of connection points: 2
#     Edge 48, Type (0, 0), BuildingBlock: XIVTED_clean_linker_0, # of connection points: 2
#     Edge 49, Type (0, 0), BuildingBlock: XIVTED_clean_linker_0, # of connection points: 2
#     Edge 50, Type (0, 0), BuildingBlock: XIVTED_clean_linker_0, # of connection points: 2
#     Edge 51, Type (0, 0), BuildingBlock: XIVTED_clean_linker_0, # of connection points: 2
#     Edge 52, Type (0, 0), BuildingBlock: XIVTED_clean_linker_0, # of connection points: 2
#     Edge 53, Type (0, 0), BuildingBlock: XIVTED_clean_linker_0, # of connection points: 2
#     Edge 54, Type (0, 0), BuildingBlock: XIVTED_clean_linker_0, # of connection points: 2
#     Edge 55, Type (0, 0), BuildingBlock: XIVTED_clean_linker_0, # of connection points: 2
#     Edge 56, Type (0, 0), BuildingBlock: XIVTED_clean_linker_0, # of connection points: 2
#     Edge 57, Type (0, 0), BuildingBlock: XIVTED_clean_linker_0, # of connection points: 2
#     Edge 58, Type (0, 0), BuildingBlock: XIVTED_clean_linker_0, # of connection points: 2
#     Edge 59, Type (0, 0), BuildingBlock: XIVTED_clean_linker_0, # of connection points: 2
#     Edge 60, Type (0, 0), BuildingBlock: XIVTED_clean_linker_0, # of connection points: 2
#     Edge 61, Type (0, 0), BuildingBlock: XIVTED_clean_linker_0, # of connection points: 2
#     Edge 62, Type (0, 0), BuildingBlock: XIVTED_clean_linker_0, # of connection points: 2
#     Edge 63, Type (0, 0), BuildingBlock: XIVTED_clean_linker_0, # of connection points: 2
#     Edge 64, Type (0, 0), BuildingBlock: XIVTED_clean_linker_0, # of connection points: 2
#     Edge 65, Type (0, 0), BuildingBlock: XIVTED_clean_linker_0, # of connection points: 2
#     Edge 66, Type (0, 0), BuildingBlock: XIVTED_clean_linker_0, # of connection points: 2
#     Edge 67, Type (0, 0), BuildingBlock: XIVTED_clean_linker_0, # of connection points: 2
#     Edge 68, Type (0, 0), BuildingBlock: XIVTED_clean_linker_0, # of connection points: 2
#     Edge 69, Type (0, 0), BuildingBlock: XIVTED_clean_linker_0, # of connection points: 2
#     Edge 70, Type (0, 0), BuildingBlock: XIVTED_clean_linker_0, # of connection points: 2
#     Edge 71, Type (0, 0), BuildingBlock: XIVTED_clean_linker_0, # of connection points: 2
#     Edge 72, Type (0, 0), BuildingBlock: XIVTED_clean_linker_0, # of connection points: 2
#     Edge 73, Type (0, 0), BuildingBlock: XIVTED_clean_linker_0, # of connection points: 2
#     Edge 74, Type (0, 0), BuildingBlock: XIVTED_clean_linker_0, # of connection points: 2
#     Edge 75, Type (0, 0), BuildingBlock: XIVTED_clean_linker_0, # of connection points: 2
#     Edge 76, Type (0, 0), BuildingBlock: XIVTED_clean_linker_0, # of connection points: 2
#     Edge 77, Type (0, 0), BuildingBlock: XIVTED_clean_linker_0, # of connection points: 2
#     Edge 78, Type (0, 0), BuildingBlock: XIVTED_clean_linker_0, # of connection points: 2
#     Edge 79, Type (0, 0), BuildingBlock: XIVTED_clean_linker_0, # of connection points: 2
#     Edge 80, Type (0, 0), BuildingBlock: XIVTED_clean_linker_0, # of connection points: 2
#     Edge 81, Type (0, 0), BuildingBlock: XIVTED_clean_linker_0, # of connection points: 2
#     Edge 82, Type (0, 0), BuildingBlock: XIVTED_clean_linker_0, # of connection points: 2
#     Edge 83, Type (0, 0), BuildingBlock: XIVTED_clean_linker_0, # of connection points: 2
#     Edge 84, Type (0, 0), BuildingBlock: XIVTED_clean_linker_0, # of connection points: 2
#     Edge 85, Type (0, 0), BuildingBlock: XIVTED_clean_linker_0, # of connection points: 2
#     Edge 86, Type (0, 0), BuildingBlock: XIVTED_clean_linker_0, # of connection points: 2
#     Edge 87, Type (0, 0), BuildingBlock: XIVTED_clean_linker_0, # of connection points: 2
#     Edge 88, Type (0, 0), BuildingBlock: XIVTED_clean_linker_0, # of connection points: 2
#     Edge 89, Type (0, 0), BuildingBlock: XIVTED_clean_linker_0, # of connection points: 2
#     Edge 90, Type (0, 0), BuildingBlock: XIVTED_clean_linker_0, # of connection points: 2
#     Edge 91, Type (0, 0), BuildingBlock: XIVTED_clean_linker_0, # of connection points: 2
#     Edge 92, Type (0, 0), BuildingBlock: XIVTED_clean_linker_0, # of connection points: 2
#     Edge 93, Type (0, 0), BuildingBlock: XIVTED_clean_linker_0, # of connection points: 2
#     Edge 94, Type (0, 0), BuildingBlock: XIVTED_clean_linker_0, # of connection points: 2
#     Edge 95, Type (0, 0), BuildingBlock: XIVTED_clean_linker_0, # of connection points: 2
# Relax obj value: 0.041
# Max RMSD: 0.074
# Mean RMSD: 0.074
data_MOF--net-uos--node1-GALJAG_clean_sbu_0--edge1-XIVTED_clean_linker_0
_symmetry_space_group_name_H-M    P1
_symmetry_Int_Tables_number       1
_symmetry_cell_setting            triclinic
loop_
_symmetry_equiv_pos_as_xyz
'x, y, z'
_cell_length_a     90.885916
_cell_length_b     90.906126
_cell_length_c     21.036709
_cell_angle_alpha  90.013546
_cell_angle_beta   90.012608
_cell_angle_gamma 89.950748
loop_
_atom_site_label
_atom_site_type_symbol
_atom_site_fract_x
_atom_site_fract_y
_atom_site_fract_z
_atom_type_partial_charge
In0 In 0.16632 0.16708 0.13071 0.0
O1 O 0.16665 0.15215 0.0422 0.0
O2 O 0.14603 0.15886 0.07975 0.0
C3 C 0.19487 0.16761 0.16526 0.0
C4 C 0.15507 0.15408 0.23485 0.0
C5 C 0.16143 0.19517 0.09648 0.0
O6 O 0.18975 0.15785 0.12868 0.0
O7 O 0.18571 0.1772 0.18288 0.0
O8 O 0.15555 0.18927 0.14445 0.0
O9 O 0.1698 0.18682 0.06474 0.0
C10 C 0.15279 0.15138 0.03874 0.0
O11 O 0.15096 0.16664 0.21661 0.0
O12 O 0.16498 0.14827 0.20135 0.0
In13 In 0.08152 0.91812 0.36639 0.0
O14 O 0.09902 0.91827 0.2877 0.0
O15 O 0.0834 0.90095 0.28833 0.0
C16 C 0.0835 0.94595 0.41 0.0
C17 C 0.09629 0.90206 0.45253 0.0
C18 C 0.05208 0.91643 0.35392 0.0
O19 O 0.08504 0.9429 0.35173 0.0
O20 O 0.08095 0.93505 0.44528 0.0
O21 O 0.05907 0.90997 0.3976 0.0
O22 O 0.05997 0.92369 0.31573 0.0
C23 C 0.0947 0.90639 0.26297 0.0
O24 O 0.08322 0.89912 0.43672 0.0
O25 O 0.1018 0.91311 0.42519 0.0
In26 In 0.32788 0.83312 0.6191 0.0
O27 O 0.32829 0.85107 0.54231 0.0
O28 O 0.34478 0.83456 0.53978 0.0
C29 C 0.29965 0.83501 0.65797 0.0
C30 C 0.34402 0.8476 0.70574 0.0
C31 C 0.32992 0.80362 0.61165 0.0
O32 O 0.30311 0.8356 0.59981 0.0
O33 O 0.31035 0.83356 0.69549 0.0
O34 O 0.33548 0.811 0.65641 0.0
O35 O 0.32337 0.81116 0.56981 0.0
C36 C 0.33984 0.84629 0.51614 0.0
O37 O 0.34715 0.83472 0.68788 0.0
O38 O 0.33273 0.8531 0.68012 0.0
In39 In 0.4128 0.07706 0.86589 0.0
O40 O 0.39591 0.07631 0.78474 0.0
O41 O 0.41031 0.09463 0.79011 0.0
C42 C 0.41136 0.0492 0.90989 0.0
C43 C 0.39759 0.09295 0.95112 0.0
C44 C 0.44216 0.07987 0.85275 0.0
O45 O 0.41046 0.05215 0.85133 0.0
O46 O 0.41288 0.06022 0.94552 0.0
O47 O 0.43489 0.08645 0.89518 0.0
O48 O 0.43459 0.07191 0.81598 0.0
C49 C 0.39957 0.08866 0.76241 0.0
O50 O 0.41121 0.09472 0.94218 0.0
O51 O 0.39173 0.08301 0.91776 0.0
In52 In 0.16852 0.83124 0.86803 0.0
O53 O 0.15081 0.83246 0.79146 0.0
O54 O 0.16421 0.85131 0.80684 0.0
C55 C 0.16638 0.802 0.88685 0.0
C56 C 0.15584 0.84536 0.96705 0.0
C57 C 0.19661 0.83274 0.82746 0.0
O58 O 0.15972 0.80867 0.8428 0.0
O59 O 0.1741 0.81013 0.92236 0.0
O60 O 0.19313 0.83521 0.88467 0.0
O61 O 0.186 0.82945 0.79163 0.0
C62 C 0.15378 0.84555 0.77616 0.0
O63 O 0.16843 0.8488 0.94659 0.0
O64 O 0.15012 0.83444 0.93977 0.0
In65 In 0.4165 0.91817 0.12091 0.0
O66 O 0.4147 0.90033 0.04523 0.0
O67 O 0.39615 0.91416 0.06113 0.0
C68 C 0.44578 0.91555 0.13782 0.0
C69 C 0.40239 0.90593 0.22086 0.0
C70 C 0.41525 0.94618 0.07909 0.0
O71 O 0.43891 0.90918 0.09363 0.0
O72 O 0.43784 0.9232 0.17445 0.0
O73 O 0.41301 0.94291 0.13672 0.0
O74 O 0.4182 0.93541 0.04362 0.0
C75 C 0.40162 0.90356 0.03051 0.0
O76 O 0.39928 0.91864 0.20077 0.0
O77 O 0.41301 0.89986 0.19277 0.0
In78 In 0.32612 0.16375 0.3683 0.0
O79 O 0.32744 0.14277 0.42902 0.0
O80 O 0.33985 0.16128 0.45818 0.0
C81 C 0.29734 0.16478 0.33755 0.0
C82 C 0.34105 0.15151 0.27076 0.0
C83 C 0.33035 0.19259 0.38851 0.0
O84 O 0.3021 0.15648 0.3812 0.0
O85 O 0.307 0.1725 0.31057 0.0
O86 O 0.33641 0.18565 0.3435 0.0
O87 O 0.32223 0.1849 0.42428 0.0
C88 C 0.33665 0.14799 0.4677 0.0
O89 O 0.34685 0.16061 0.30834 0.0
O90 O 0.32773 0.14879 0.28176 0.0
In91 In 0.08485 0.0762 0.63057 0.0
O92 O 0.10321 0.076 0.70552 0.0
O93 O 0.08559 0.09106 0.71731 0.0
C94 C 0.08636 0.04852 0.5848 0.0
C95 C 0.09968 0.09369 0.55004 0.0
C96 C 0.05543 0.07856 0.64001 0.0
O97 O 0.08764 0.0513 0.64341 0.0
O98 O 0.0844 0.05963 0.55002 0.0
O99 O 0.06278 0.085 0.59741 0.0
O100 O 0.06294 0.07091 0.67829 0.0
C101 C 0.09779 0.08644 0.7374 0.0
O102 O 0.0867 0.09651 0.56752 0.0
O103 O 0.10502 0.08198 0.57239 0.0
In104 In 0.82967 0.83075 0.86392 0.0
O105 O 0.82981 0.84604 0.95123 0.0
O106 O 0.85022 0.83877 0.91355 0.0
C107 C 0.80093 0.83029 0.83251 0.0
C108 C 0.84071 0.84322 0.75809 0.0
C109 C 0.83467 0.80279 0.89967 0.0
O110 O 0.80626 0.83996 0.86892 0.0
O111 O 0.81 0.82079 0.81315 0.0
O112 O 0.84068 0.80865 0.85197 0.0
O113 O 0.82608 0.81111 0.93045 0.0
C114 C 0.84369 0.84653 0.95423 0.0
O115 O 0.84423 0.83043 0.77558 0.0
O116 O 0.83141 0.84954 0.79314 0.0
In117 In 0.91596 0.07818 0.62748 0.0
O118 O 0.914 0.09642 0.5536 0.0
O119 O 0.89547 0.08257 0.56922 0.0
C120 C 0.94531 0.08026 0.64237 0.0
C121 C 0.90245 0.09028 0.7292 0.0
C122 C 0.9144 0.05031 0.58446 0.0
O123 O 0.93841 0.08677 0.5986 0.0
O124 O 0.93737 0.07278 0.67955 0.0
O125 O 0.91243 0.05343 0.64243 0.0
O126 O 0.91721 0.06116 0.54925 0.0
C127 C 0.90087 0.09331 0.53931 0.0
O128 O 0.89882 0.07784 0.70759 0.0
O129 O 0.91327 0.09612 0.70163 0.0
In130 In 0.66833 0.16494 0.37664 0.0
O131 O 0.66849 0.14733 0.45496 0.0
O132 O 0.65039 0.16203 0.45074 0.0
C133 C 0.69642 0.16364 0.33591 0.0
C134 C 0.65348 0.15035 0.28597 0.0
C135 C 0.66582 0.19422 0.39336 0.0
O136 O 0.69302 0.16159 0.39351 0.0
O137 O 0.68572 0.1664 0.29971 0.0
O138 O 0.65898 0.18727 0.35071 0.0
O139 O 0.67391 0.18637 0.42849 0.0
C140 C 0.65611 0.15099 0.47709 0.0
O141 O 0.65051 0.16348 0.3007 0.0
O142 O 0.66399 0.14468 0.31657 0.0
In143 In 0.58526 0.91968 0.13668 0.0
O144 O 0.60294 0.92018 0.2146 0.0
O145 O 0.58653 0.90363 0.21913 0.0
C146 C 0.5865 0.94742 0.09161 0.0
C147 C 0.60075 0.90312 0.05466 0.0
C148 C 0.55586 0.91723 0.14727 0.0
O149 O 0.58791 0.94457 0.15013 0.0
O150 O 0.58455 0.93634 0.05662 0.0
O151 O 0.56315 0.91082 0.10434 0.0
O152 O 0.56342 0.92485 0.18539 0.0
C153 C 0.59814 0.90888 0.24258 0.0
O154 O 0.58763 0.90012 0.06959 0.0
O155 O 0.6059 0.91454 0.08035 0.0
In156 In 0.82754 0.16354 0.12564 0.0
O157 O 0.84621 0.16239 0.19765 0.0
O158 O 0.8323 0.1437 0.18765 0.0
C159 C 0.82956 0.19289 0.11152 0.0
C160 C 0.83971 0.14974 0.0247 0.0
C161 C 0.79941 0.16204 0.16577 0.0
O162 O 0.8358 0.18598 0.15599 0.0
O163 O 0.82234 0.18496 0.07331 0.0
O164 O 0.80282 0.16048 0.10789 0.0
O165 O 0.81012 0.16429 0.2025 0.0
C166 C 0.84322 0.14944 0.21505 0.0
O167 O 0.8278 0.14547 0.04932 0.0
O168 O 0.84495 0.16127 0.04887 0.0
In169 In 0.58158 0.07791 0.8746 0.0
O170 O 0.59921 0.07789 0.79635 0.0
O171 O 0.58379 0.09542 0.79831 0.0
C172 C 0.58336 0.05006 0.918 0.0
C173 C 0.59611 0.09364 0.96267 0.0
C174 C 0.55224 0.07978 0.85852 0.0
O175 O 0.58536 0.05317 0.86005 0.0
O176 O 0.58043 0.06092 0.95305 0.0
O177 O 0.55901 0.08636 0.90251 0.0
O178 O 0.56031 0.07226 0.82194 0.0
C179 C 0.59505 0.08995 0.77265 0.0
O180 O 0.58299 0.09649 0.94718 0.0
O181 O 0.60178 0.08284 0.93408 0.0
In182 In 0.66887 0.83022 0.63645 0.0
O183 O 0.6532 0.83059 0.7211 0.0
O184 O 0.66678 0.84925 0.7061 0.0
C185 C 0.66494 0.80187 0.60446 0.0
C186 C 0.65516 0.84523 0.54275 0.0
C187 C 0.69745 0.82973 0.67051 0.0
O188 O 0.65878 0.80782 0.65165 0.0
O189 O 0.67304 0.81033 0.57202 0.0
O190 O 0.69245 0.83904 0.63145 0.0
O191 O 0.68812 0.8207 0.69143 0.0
C192 C 0.65688 0.84329 0.73907 0.0
O193 O 0.66894 0.84578 0.55009 0.0
O194 O 0.64861 0.83678 0.58074 0.0
In195 In 0.91248 0.92009 0.36443 0.0
O196 O 0.90976 0.89993 0.42791 0.0
O197 O 0.89184 0.91491 0.42054 0.0
C198 C 0.9419 0.91758 0.35576 0.0
C199 C 0.89982 0.91005 0.25678 0.0
C200 C 0.91123 0.94774 0.41035 0.0
O201 O 0.93448 0.91122 0.39838 0.0
O202 O 0.93445 0.92518 0.31708 0.0
O203 O 0.90991 0.94498 0.35173 0.0
O204 O 0.9131 0.93661 0.44512 0.0
C205 C 0.89675 0.90311 0.44382 0.0
O206 O 0.89476 0.92094 0.28688 0.0
O207 O 0.91156 0.90482 0.27915 0.0
In208 In 0.67157 0.66322 0.60497 0.0
O209 O 0.67178 0.64516 0.52835 0.0
O210 O 0.65497 0.66133 0.5251 0.0
C211 C 0.69929 0.66228 0.65059 0.0
C212 C 0.65551 0.64859 0.69138 0.0
C213 C 0.66854 0.69243 0.58953 0.0
O214 O 0.69657 0.66107 0.59187 0.0
O215 O 0.68812 0.66393 0.68531 0.0
O216 O 0.66174 0.68526 0.63163 0.0
O217 O 0.67698 0.68485 0.55477 0.0
C218 C 0.66019 0.6497 0.50171 0.0
O219 O 0.65305 0.66188 0.67758 0.0
O220 O 0.66613 0.64277 0.66198 0.0
In221 In 0.58358 0.42078 0.87049 0.0
O222 O 0.5908 0.39881 0.91212 0.0
O223 O 0.58941 0.41717 0.9745 0.0
C224 C 0.55396 0.4186 0.8662 0.0
C225 C 0.59898 0.40966 0.7716 0.0
C226 C 0.58889 0.44967 0.89006 0.0
O227 O 0.5614 0.41482 0.91407 0.0
O228 O 0.56144 0.4235 0.82041 0.0
O229 O 0.59588 0.43961 0.9181 0.0
O230 O 0.57967 0.44519 0.84964 0.0
C231 C 0.59259 0.40375 0.96761 0.0
O232 O 0.58594 0.406 0.78419 0.0
O233 O 0.60416 0.41954 0.80722 0.0
In234 In 0.82665 0.33261 0.12146 0.0
O235 O 0.8324 0.33598 0.22583 0.0
O236 O 0.84785 0.34313 0.15643 0.0
C237 C 0.82875 0.30296 0.1133 0.0
C238 C 0.83708 0.34762 0.02046 0.0
C239 C 0.79834 0.3391 0.14978 0.0
O240 O 0.83552 0.31038 0.15446 0.0
O241 O 0.8209 0.31045 0.07608 0.0
O242 O 0.80194 0.33278 0.09872 0.0
O243 O 0.80899 0.34255 0.18495 0.0
C244 C 0.84458 0.34213 0.21452 0.0
O245 O 0.82785 0.35315 0.05844 0.0
O246 O 0.84046 0.33444 0.03207 0.0
In247 In 0.91424 0.57784 0.38011 0.0
O248 O 0.90303 0.57756 0.2815 0.0
O249 O 0.90158 0.59688 0.33775 0.0
C250 C 0.91333 0.54962 0.41942 0.0
C251 C 0.9005 0.59041 0.47872 0.0
C252 C 0.94288 0.58296 0.35349 0.0
O253 O 0.90652 0.55393 0.37048 0.0
O254 O 0.92065 0.55944 0.4474 0.0
O255 O 0.9363 0.58866 0.4 0.0
O256 O 0.93495 0.57482 0.31911 0.0
C257 C 0.898 0.59045 0.28725 0.0
O258 O 0.91294 0.59468 0.45926 0.0
O259 O 0.89516 0.57953 0.44931 0.0
In260 In 0.66858 0.33342 0.37023 0.0
O261 O 0.65273 0.33352 0.28616 0.0
O262 O 0.65931 0.3541 0.32481 0.0
C263 C 0.66661 0.30419 0.39097 0.0
C264 C 0.65724 0.34648 0.47441 0.0
C265 C 0.69605 0.33675 0.32351 0.0
O266 O 0.65841 0.31102 0.35272 0.0
O267 O 0.67586 0.31214 0.41973 0.0
O268 O 0.69307 0.33879 0.38145 0.0
O269 O 0.68526 0.33298 0.28971 0.0
C270 C 0.65165 0.34735 0.28428 0.0
O271 O 0.66943 0.3503 0.45094 0.0
O272 O 0.65124 0.33568 0.44723 0.0
In273 In 0.91321 0.41802 0.62225 0.0
O274 O 0.89549 0.41897 0.69953 0.0
O275 O 0.91064 0.40116 0.70097 0.0
C276 C 0.91032 0.44614 0.58186 0.0
C277 C 0.89984 0.40126 0.53434 0.0
C278 C 0.94243 0.4143 0.63882 0.0
O279 O 0.91207 0.4429 0.63966 0.0
O280 O 0.90987 0.43525 0.54495 0.0
O281 O 0.935 0.40689 0.5997 0.0
O282 O 0.93512 0.42359 0.6703 0.0
C283 C 0.89942 0.40706 0.72534 0.0
O284 O 0.91342 0.40413 0.53207 0.0
O285 O 0.893 0.40712 0.58003 0.0
In286 In 0.82883 0.66549 0.87871 0.0
O287 O 0.84496 0.66403 0.7968 0.0
O288 O 0.83168 0.64525 0.81698 0.0
C289 C 0.83369 0.69394 0.90926 0.0
C290 C 0.84139 0.64946 0.97189 0.0
C291 C 0.80105 0.66527 0.83367 0.0
O292 O 0.84012 0.68749 0.86411 0.0
O293 O 0.82481 0.686 0.93998 0.0
O294 O 0.80436 0.65971 0.88687 0.0
O295 O 0.81166 0.67106 0.80433 0.0
C296 C 0.84173 0.65087 0.78335 0.0
O297 O 0.82768 0.65181 0.97084 0.0
O298 O 0.84853 0.65566 0.92831 0.0
In299 In 0.58178 0.5797 0.10723 0.0
O300 O 0.5831 0.59713 0.02943 0.0
O301 O 0.60194 0.58382 0.04632 0.0
C302 C 0.55279 0.58206 0.13161 0.0
C303 C 0.59597 0.5919 0.20693 0.0
C304 C 0.58299 0.552 0.06224 0.0
O305 O 0.55926 0.58949 0.08943 0.0
O306 O 0.561 0.5734 0.16248 0.0
O307 O 0.58764 0.55531 0.11707 0.0
O308 O 0.57754 0.56255 0.03129 0.0
C309 C 0.59621 0.59411 0.01474 0.0
O310 O 0.5987 0.57898 0.18836 0.0
O311 O 0.58572 0.59822 0.17732 0.0
In312 In 0.32747 0.33167 0.37607 0.0
O313 O 0.32723 0.34922 0.45463 0.0
O314 O 0.34538 0.33457 0.45008 0.0
C315 C 0.29945 0.33303 0.33419 0.0
C316 C 0.34266 0.3463 0.28693 0.0
C317 C 0.3302 0.3024 0.3921 0.0
O318 O 0.3026 0.33392 0.3926 0.0
O319 O 0.31035 0.33143 0.29785 0.0
O320 O 0.33643 0.30932 0.34765 0.0
O321 O 0.32257 0.31027 0.42906 0.0
C322 C 0.33963 0.34557 0.47668 0.0
O323 O 0.34531 0.33302 0.30034 0.0
O324 O 0.33233 0.35209 0.3182 0.0
In325 In 0.41379 0.57774 0.12251 0.0
O326 O 0.39598 0.57714 0.19957 0.0
O327 O 0.41197 0.59413 0.20354 0.0
C328 C 0.41091 0.55005 0.07739 0.0
C329 C 0.40037 0.59499 0.03629 0.0
C330 C 0.443 0.58025 0.14219 0.0
O331 O 0.41023 0.55299 0.13595 0.0
O332 O 0.41291 0.56103 0.04197 0.0
O333 O 0.43588 0.58868 0.10583 0.0
O334 O 0.43536 0.57054 0.16949 0.0
C335 C 0.40046 0.58864 0.22703 0.0
O336 O 0.41413 0.59309 0.03681 0.0
O337 O 0.39341 0.58794 0.07823 0.0
In338 In 0.16945 0.66274 0.86913 0.0
O339 O 0.16995 0.64567 0.94964 0.0
O340 O 0.15221 0.66083 0.9466 0.0
C341 C 0.19703 0.66123 0.82262 0.0
C342 C 0.1538 0.64765 0.78237 0.0
C343 C 0.16714 0.69202 0.88549 0.0
O344 O 0.19407 0.65773 0.87939 0.0
O345 O 0.18618 0.66561 0.79045 0.0
O346 O 0.15996 0.685 0.84408 0.0
O347 O 0.17557 0.68423 0.9195 0.0
C348 C 0.1579 0.64983 0.97343 0.0
O349 O 0.15095 0.66084 0.79639 0.0
O350 O 0.16457 0.64216 0.81174 0.0
In351 In 0.08119 0.41719 0.61072 0.0
O352 O 0.09532 0.41822 0.70135 0.0
O353 O 0.08912 0.39728 0.6654 0.0
C354 C 0.08217 0.4453 0.56979 0.0
C355 C 0.09648 0.40356 0.51919 0.0
C356 C 0.0522 0.41338 0.63369 0.0
O357 O 0.08608 0.44168 0.62529 0.0
O358 O 0.07778 0.4348 0.5356 0.0
O359 O 0.05865 0.408 0.58611 0.0
O360 O 0.0604 0.42059 0.67067 0.0
C361 C 0.0963 0.4044 0.70625 0.0
O362 O 0.08336 0.40018 0.53254 0.0
O363 O 0.10174 0.41413 0.55084 0.0
In364 In 0.32778 0.66382 0.62365 0.0
O365 O 0.32856 0.6433 0.55989 0.0
O366 O 0.3428 0.66109 0.53838 0.0
C367 C 0.2992 0.65772 0.64721 0.0
C368 C 0.34527 0.65527 0.7201 0.0
C369 C 0.32936 0.69345 0.61541 0.0
O370 O 0.30313 0.66658 0.6043 0.0
O371 O 0.30965 0.65149 0.67589 0.0
O372 O 0.33375 0.6864 0.66336 0.0
O373 O 0.32419 0.68559 0.57143 0.0
C374 C 0.33875 0.64821 0.52509 0.0
O375 O 0.33212 0.65928 0.72839 0.0
O376 O 0.34974 0.65603 0.66346 0.0
In377 In 0.0816 0.57704 0.36664 0.0
O378 O 0.09981 0.5769 0.29087 0.0
O379 O 0.08514 0.59504 0.29358 0.0
C380 C 0.08214 0.5487 0.40456 0.0
C381 C 0.09587 0.59161 0.45901 0.0
C382 C 0.05247 0.5806 0.34852 0.0
O383 O 0.08385 0.5523 0.347 0.0
O384 O 0.08011 0.55931 0.44205 0.0
O385 O 0.05936 0.58635 0.39423 0.0
O386 O 0.06029 0.57298 0.31132 0.0
C387 C 0.09635 0.58932 0.26858 0.0
O388 O 0.08288 0.59479 0.44277 0.0
O389 O 0.10157 0.58102 0.42904 0.0
In390 In 0.16937 0.33234 0.11249 0.0
O391 O 0.15308 0.33293 0.19395 0.0
O392 O 0.16784 0.35104 0.18345 0.0
C393 C 0.16326 0.30408 0.08205 0.0
C394 C 0.15711 0.34929 0.02081 0.0
C395 C 0.19754 0.3325 0.15307 0.0
O396 O 0.15681 0.31092 0.12606 0.0
O397 O 0.17266 0.31157 0.05223 0.0
O398 O 0.19347 0.33965 0.10464 0.0
O399 O 0.18752 0.32518 0.17966 0.0
C400 C 0.15729 0.34536 0.21395 0.0
O401 O 0.16931 0.34293 0.01238 0.0
O402 O 0.15123 0.34684 0.0737 0.0
In403 In 0.41435 0.4184 0.8744 0.0
O404 O 0.41268 0.3993 0.94416 0.0
O405 O 0.39441 0.41383 0.93589 0.0
C406 C 0.44381 0.41666 0.86355 0.0
C407 C 0.40091 0.40631 0.7725 0.0
C408 C 0.41228 0.44654 0.91394 0.0
O409 O 0.4368 0.4111 0.90933 0.0
O410 O 0.43594 0.42304 0.82241 0.0
O411 O 0.41104 0.44309 0.85595 0.0
O412 O 0.41456 0.43587 0.9509 0.0
C413 C 0.39983 0.40258 0.96202 0.0
O414 O 0.39667 0.41831 0.79653 0.0
O415 O 0.41227 0.40093 0.79779 0.0
H416 H 0.27665 0.14301 0.3473 0.0
H417 H 0.21068 0.19072 0.21105 0.0
H418 H 0.28301 0.18739 0.2803 0.0
H419 H 0.21349 0.14408 0.17498 0.0
H420 H 0.23557 0.19006 0.25585 0.0
H421 H 0.25145 0.14355 0.30438 0.0
C422 C 0.27267 0.1529 0.32425 0.0
C423 C 0.28185 0.16517 0.31712 0.0
C424 C 0.23073 0.18 0.23791 0.0
C425 C 0.25325 0.16589 0.26885 0.0
C426 C 0.21658 0.18036 0.21242 0.0
C427 C 0.21012 0.16745 0.18899 0.0
C428 C 0.23831 0.16658 0.24142 0.0
C429 C 0.21818 0.15429 0.19204 0.0
C430 C 0.2584 0.15316 0.29944 0.0
C431 C 0.27626 0.17769 0.28647 0.0
N432 N 0.23184 0.15415 0.21842 0.0
N433 N 0.26228 0.17777 0.26378 0.0
H434 H 0.08277 0.95426 0.53434 0.0
H435 H 0.0857 0.04043 0.45997 0.0
H436 H 0.08664 0.97189 0.34464 0.0
H437 H 0.08791 0.02239 0.64945 0.0
H438 H 0.08562 0.0155 0.41669 0.0
H439 H 0.08416 0.97917 0.57714 0.0
C440 C 0.08393 0.9634 0.50164 0.0
C441 C 0.08457 0.96102 0.43578 0.0
C442 C 0.08618 0.01697 0.46771 0.0
C443 C 0.08613 0.9896 0.48456 0.0
C444 C 0.08621 0.03121 0.49249 0.0
C445 C 0.08679 0.03347 0.55844 0.0
C446 C 0.08664 0.00489 0.50918 0.0
C447 C 0.08745 0.02113 0.59831 0.0
C448 C 0.08475 0.97761 0.52616 0.0
C449 C 0.0861 0.97325 0.39571 0.0
N450 N 0.0873 0.00736 0.57305 0.0
N451 N 0.08678 0.98703 0.42074 0.0
H452 H 0.22188 0.83782 0.89514 0.0
H453 H 0.27415 0.83506 0.58808 0.0
H454 H 0.20596 0.82988 0.70493 0.0
H455 H 0.29034 0.83626 0.78087 0.0
H456 H 0.2489 0.83512 0.62916 0.0
H457 H 0.24699 0.83915 0.85337 0.0
C458 C 0.22367 0.83637 0.84462 0.0
C459 C 0.21185 0.83369 0.80347 0.0
C460 C 0.25799 0.83539 0.66243 0.0
C461 C 0.24048 0.83525 0.75529 0.0
C462 C 0.27238 0.8354 0.63898 0.0
C463 C 0.28432 0.83561 0.68114 0.0
C464 C 0.25557 0.83567 0.72846 0.0
C465 C 0.28144 0.83603 0.74667 0.0
C466 C 0.238 0.83712 0.82078 0.0
C467 C 0.21478 0.83192 0.73838 0.0
N468 N 0.26736 0.83604 0.7683 0.0
N469 N 0.22879 0.83273 0.7163 0.0
H470 H 0.41104 0.04074 0.03424 0.0
H471 H 0.41748 0.95495 0.9557 0.0
H472 H 0.41118 0.02325 0.84353 0.0
H473 H 0.41084 0.97183 0.14529 0.0
H474 H 0.41591 0.97995 0.91413 0.0
H475 H 0.41153 0.01568 0.07609 0.0
C476 C 0.41113 0.03161 0.00115 0.0
C477 C 0.41109 0.03406 0.93528 0.0
C478 C 0.41476 0.97821 0.96481 0.0
C479 C 0.41173 0.00535 0.9829 0.0
C480 C 0.4157 0.96394 0.98864 0.0
C481 C 0.41431 0.96133 0.0541 0.0
C482 C 0.4125 0.99001 0.00673 0.0
C483 C 0.41197 0.97337 0.0945 0.0
C484 C 0.4114 0.01731 0.0251 0.0
C485 C 0.41119 0.02184 0.89463 0.0
N486 N 0.41118 0.98721 0.07017 0.0
N487 N 0.41157 0.008 0.91911 0.0
H488 H 0.78168 0.85342 0.83145 0.0
H489 H 0.71257 0.80673 0.72127 0.0
H490 H 0.78516 0.80732 0.78496 0.0
H491 H 0.7172 0.85245 0.6701 0.0
H492 H 0.73784 0.80685 0.76181 0.0
H493 H 0.75639 0.85344 0.79011 0.0
C494 C 0.77706 0.84329 0.81306 0.0
C495 C 0.78546 0.83035 0.8115 0.0
C496 C 0.73332 0.81683 0.74148 0.0
C497 C 0.7567 0.83028 0.7649 0.0
C498 C 0.71894 0.81678 0.7185 0.0
C499 C 0.71287 0.82959 0.69218 0.0
C500 C 0.74155 0.82987 0.73949 0.0
C501 C 0.72155 0.84232 0.68966 0.0
C502 C 0.76272 0.84334 0.78913 0.0
C503 C 0.77904 0.81754 0.78681 0.0
N504 N 0.73545 0.84219 0.71367 0.0
N505 N 0.76499 0.8178 0.76484 0.0
H506 H 0.91179 0.95582 0.5352 0.0
H507 H 0.91586 0.04189 0.46044 0.0
H508 H 0.91004 0.97385 0.3456 0.0
H509 H 0.91075 0.02445 0.64992 0.0
H510 H 0.91447 0.01698 0.41785 0.0
H511 H 0.91205 0.98077 0.57839 0.0
C512 C 0.91143 0.96505 0.50264 0.0
C513 C 0.91092 0.96278 0.43669 0.0
C514 C 0.91361 0.01858 0.46873 0.0
C515 C 0.91127 0.99136 0.48581 0.0
C516 C 0.91444 0.0328 0.49313 0.0
C517 C 0.91344 0.03523 0.55886 0.0
C518 C 0.91186 0.00664 0.51033 0.0
C519 C 0.91157 0.02305 0.59894 0.0
C520 C 0.91155 0.97928 0.52736 0.0
C521 C 0.91044 0.97511 0.39674 0.0
N522 N 0.91089 0.00925 0.57403 0.0
N523 N 0.91069 0.98888 0.42194 0.0
H524 H 0.72184 0.16015 0.40437 0.0
H525 H 0.77389 0.16019 0.09659 0.0
H526 H 0.70564 0.16527 0.2128 0.0
H527 H 0.7902 0.16272 0.28895 0.0
H528 H 0.74869 0.16003 0.13801 0.0
H529 H 0.74699 0.15911 0.36271 0.0
C530 C 0.72358 0.16104 0.35358 0.0
C531 C 0.71167 0.16285 0.31199 0.0
C532 C 0.75779 0.16061 0.17112 0.0
C533 C 0.74033 0.16162 0.26396 0.0
C534 C 0.77216 0.16066 0.14749 0.0
C535 C 0.78413 0.16151 0.1894 0.0
C536 C 0.75541 0.16132 0.2371 0.0
C537 C 0.78128 0.1621 0.25494 0.0
C538 C 0.73792 0.16046 0.3298 0.0
C539 C 0.71453 0.16392 0.24657 0.0
N540 N 0.76723 0.16199 0.27676 0.0
N541 N 0.72856 0.16328 0.22457 0.0
H542 H 0.58189 0.04166 0.04208 0.0
H543 H 0.58597 0.95558 0.96693 0.0
H544 H 0.58714 0.02419 0.85267 0.0
H545 H 0.58773 0.97351 0.15674 0.0
H546 H 0.58576 0.98054 0.92401 0.0
H547 H 0.5833 0.01673 0.08469 0.0
C548 C 0.58335 0.03256 0.00941 0.0
C549 C 0.58438 0.03498 0.94369 0.0
C550 C 0.58625 0.97903 0.97503 0.0
C551 C 0.58598 0.00639 0.99223 0.0
C552 C 0.58634 0.96479 -0.0004 0.0
C553 C 0.58684 0.96249 0.06554 0.0
C554 C 0.58654 0.99109 0.01668 0.0
C555 C 0.58734 0.9748 0.10561 0.0
C556 C 0.58419 0.01833 0.03383 0.0
C557 C 0.5863 0.0228 0.90364 0.0
N558 N 0.58712 0.98859 0.08054 0.0
N559 N 0.58699 0.00901 0.92855 0.0
H560 H 0.70704 0.66023 0.77528 0.0
H561 H 0.79266 0.67271 0.71351 0.0
H562 H 0.72562 0.66387 0.58721 0.0
H563 H 0.77548 0.6565 0.89141 0.0
H564 H 0.76796 0.67147 0.66797 0.0
H565 H 0.73182 0.66063 0.82013 0.0
C566 C 0.71636 0.66109 0.74339 0.0
C567 C 0.7143 0.66204 0.6774 0.0
C568 C 0.76959 0.66815 0.71691 0.0
C569 C 0.74268 0.66261 0.72852 0.0
C570 C 0.78367 0.66892 0.74305 0.0
C571 C 0.7861 0.66471 0.80639 0.0
C572 C 0.75782 0.6633 0.75454 0.0
C573 C 0.77408 0.65984 0.84239 0.0
C574 C 0.7305 0.66128 0.76905 0.0
C575 C 0.72674 0.66309 0.63833 0.0
N576 N 0.76042 0.65932 0.81602 0.0
N577 N 0.74043 0.66344 0.66453 0.0
H578 H 0.60579 0.46133 0.98476 0.0
H579 H 0.57193 0.5422 0.9495 0.0
H580 H 0.57435 0.47336 0.84005 0.0
H581 H 0.59715 0.52801 0.11215 0.0
H582 H 0.57465 0.51773 0.90303 0.0
H583 H 0.60511 0.48654 0.02507 0.0
C584 C 0.59889 0.46933 0.96094 0.0
C585 C 0.59006 0.46525 0.90913 0.0
C586 C 0.57959 0.51995 0.94889 0.0
C587 C 0.58912 0.49406 0.95542 0.0
C588 C 0.57803 0.53391 0.9755 0.0
C589 C 0.58428 0.5371 0.03491 0.0
C590 C 0.58755 0.50911 0.98171 0.0
C591 C 0.5921 0.52597 0.0664 0.0
C592 C 0.59843 0.48369 0.98423 0.0
C593 C 0.58131 0.47605 0.88017 0.0
N594 N 0.59353 0.51246 0.03936 0.0
N595 N 0.581 0.48995 0.90392 0.0
H596 H 0.72099 0.34592 0.3848 0.0
H597 H 0.77325 0.33184 0.08476 0.0
H598 H 0.70503 0.33164 0.20171 0.0
H599 H 0.78839 0.35034 0.26201 0.0
H600 H 0.74801 0.33257 0.12513 0.0
H601 H 0.7457 0.34824 0.33975 0.0
C602 C 0.72269 0.3433 0.3351 0.0
C603 C 0.71098 0.33852 0.29699 0.0
C604 C 0.75684 0.33659 0.15499 0.0
C605 C 0.73918 0.34113 0.24508 0.0
C606 C 0.77124 0.33621 0.13188 0.0
C607 C 0.78292 0.34098 0.1702 0.0
C608 C 0.75414 0.34168 0.21702 0.0
C609 C 0.7797 0.34652 0.23092 0.0
C610 C 0.73678 0.34466 0.30933 0.0
C611 C 0.71377 0.33533 0.23283 0.0
N612 N 0.76563 0.34661 0.25263 0.0
N613 N 0.72759 0.33662 0.20897 0.0
H614 H 0.9032 0.4555 0.4625 0.0
H615 H 0.92403 0.53919 0.53161 0.0
H616 H 0.91582 0.47147 0.64782 0.0
H617 H 0.90073 0.52553 0.36291 0.0
H618 H 0.92247 0.51411 0.57242 0.0
H619 H 0.90333 0.48079 0.42283 0.0
C620 C 0.90594 0.46435 0.4949 0.0
C621 C 0.90954 0.46141 0.55851 0.0
C622 C 0.91766 0.51659 0.52656 0.0
C623 C 0.90984 0.49031 0.51333 0.0
C624 C 0.9186 0.53089 0.50308 0.0
C625 C 0.91252 0.53442 0.44372 0.0
C626 C 0.9107 0.50568 0.49017 0.0
C627 C 0.90556 0.52325 0.4089 0.0
C628 C 0.90599 0.47877 0.47225 0.0
C629 C 0.91297 0.47327 0.59847 0.0
N630 N 0.9049 0.50934 0.43254 0.0
N631 N 0.91313 0.4872 0.57509 0.0
H632 H 0.2736 0.33076 0.40058 0.0
H633 H 0.22232 0.34362 0.09657 0.0
H634 H 0.29085 0.33676 0.21128 0.0
H635 H 0.20702 0.32264 0.26822 0.0
H636 H 0.24722 0.34439 0.14158 0.0
H637 H 0.24859 0.33106 0.3566 0.0
C638 C 0.27211 0.33221 0.34988 0.0
C639 C 0.28428 0.33368 0.30944 0.0
C640 C 0.23839 0.33961 0.16926 0.0
C641 C 0.25583 0.33413 0.25902 0.0
C642 C 0.22421 0.33919 0.14367 0.0
C643 C 0.21264 0.333 0.17864 0.0
C644 C 0.24093 0.334 0.23054 0.0
C645 C 0.21566 0.32743 0.23951 0.0
C646 C 0.25787 0.33233 0.3248 0.0
C647 C 0.28176 0.33551 0.24407 0.0
N648 N 0.2295 0.32811 0.26365 0.0
N649 N 0.26782 0.33573 0.22089 0.0
H650 H 0.411 0.54139 0.95304 0.0
H651 H 0.41254 0.45565 0.0371 0.0
H652 H 0.40879 0.52433 0.1442 0.0
H653 H 0.40965 0.47207 0.84505 0.0
H654 H 0.4113 0.48081 0.07672 0.0
H655 H 0.41055 0.51621 0.91211 0.0
C656 C 0.41036 0.53233 0.98639 0.0
C657 C 0.40997 0.53493 0.05214 0.0
C658 C 0.41088 0.47895 0.02591 0.0
C659 C 0.40951 0.50611 0.00566 0.0
C660 C 0.41162 0.46457 0.00321 0.0
C661 C 0.41123 0.46178 0.93764 0.0
C662 C 0.40983 0.49068 0.98278 0.0
C663 C 0.40999 0.47376 0.89597 0.0
C664 C 0.41009 0.51797 0.96298 0.0
C665 C 0.40912 0.52281 0.09318 0.0
N666 N 0.4094 0.48771 0.91925 0.0
N667 N 0.40899 0.50893 0.06926 0.0
H668 H 0.2887 0.6419 0.74768 0.0
H669 H 0.20592 0.67026 0.70531 0.0
H670 H 0.27464 0.67019 0.59451 0.0
H671 H 0.22188 0.64936 0.87614 0.0
H672 H 0.2304 0.668 0.65868 0.0
H673 H 0.26356 0.64185 0.78903 0.0
C674 C 0.28027 0.64795 0.72227 0.0
C675 C 0.28376 0.65611 0.6677 0.0
C676 C 0.22857 0.66391 0.70635 0.0
C677 C 0.25502 0.6562 0.71508 0.0
C678 C 0.21459 0.66519 0.73305 0.0
C679 C 0.21189 0.66004 0.79482 0.0
C680 C 0.23994 0.65733 0.74148 0.0
C681 C 0.22352 0.65354 0.82849 0.0
C682 C 0.26595 0.64799 0.74615 0.0
C683 C 0.27243 0.66377 0.6368 0.0
N684 N 0.23705 0.65236 0.80134 0.0
N685 N 0.25857 0.66369 0.66108 0.0
H686 H 0.08799 0.47042 0.63706 0.0
H687 H 0.08286 0.52339 0.3336 0.0
H688 H 0.07754 0.45488 0.44856 0.0
H689 H 0.08242 0.53911 0.52717 0.0
H690 H 0.0833 0.49805 0.37354 0.0
H691 H 0.08843 0.49565 0.5963 0.0
C692 C 0.08582 0.47232 0.5871 0.0
C693 C 0.08268 0.46057 0.54615 0.0
C694 C 0.08311 0.50706 0.4072 0.0
C695 C 0.08322 0.48933 0.49916 0.0
C696 C 0.08289 0.5215 0.38444 0.0
C697 C 0.08256 0.53333 0.42716 0.0
C698 C 0.08315 0.50448 0.4731 0.0
C699 C 0.08261 0.53029 0.49257 0.0
C700 C 0.08603 0.48671 0.56389 0.0
C701 C 0.07995 0.46364 0.48182 0.0
N702 N 0.08292 0.51617 0.51354 0.0
N703 N 0.08031 0.47772 0.46026 0.0
H704 H 0.12328 0.15003 0.01943 0.0
H705 H 0.12677 0.08329 0.77145 0.0
H706 H 0.16416 0.13064 0.95701 0.0
H707 H 0.08726 0.10734 0.81804 0.0
H708 H 0.14055 0.0988 0.8461 0.0
H709 H 0.10989 0.13314 0.95092 0.0
C710 C 0.12946 0.14225 0.99094 0.0
C711 C 0.14486 0.14177 0.99371 0.0
C712 C 0.12884 0.10058 0.84028 0.0
C713 C 0.12954 0.12222 0.91535 0.0
C714 C 0.12096 0.09167 0.79815 0.0
C715 C 0.10586 0.09407 0.78854 0.0
C716 C 0.12153 0.1119 0.87308 0.0
C717 C 0.09889 0.10513 0.82389 0.0
C718 C 0.12178 0.13257 0.9519 0.0
C719 C 0.15227 0.13142 0.95592 0.0
N720 N 0.10679 0.11366 0.86434 0.0
N721 N 0.14453 0.12201 0.9183 0.0
H722 H 0.16418 0.87128 0.0236 0.0
H723 H 0.08682 0.88127 0.20135 0.0
H724 H 0.12865 0.83988 0.01576 0.0
H725 H 0.1219 0.91308 0.21415 0.0
H726 H 0.10193 0.86646 0.1302 0.0
H727 H 0.14912 0.88691 0.093 0.0
C728 C 0.15328 0.86761 0.03702 0.0
C729 C 0.14766 0.85426 0.01402 0.0
C730 C 0.10634 0.87671 0.14819 0.0
C731 C 0.13033 0.87212 0.09243 0.0
C732 C 0.09766 0.88522 0.1886 0.0
C733 C 0.10312 0.89841 0.21373 0.0
C734 C 0.12063 0.88137 0.13286 0.0
C735 C 0.11726 0.90298 0.19566 0.0
C736 C 0.14466 0.87657 0.07627 0.0
C737 C 0.13343 0.85007 0.03246 0.0
N738 N 0.12558 0.89442 0.15655 0.0
N739 N 0.12527 0.85898 0.07036 0.0
H740 H 0.37694 0.91511 0.27908 0.0
H741 H 0.36447 0.83764 0.45268 0.0
H742 H 0.4071 0.8785 0.26867 0.0
H743 H 0.33416 0.87398 0.47 0.0
H744 H 0.37971 0.85242 0.38208 0.0
H745 H 0.36097 0.90048 0.34863 0.0
C746 C 0.38027 0.90406 0.292 0.0
C747 C 0.39337 0.89801 0.26817 0.0
C748 C 0.3697 0.85718 0.40095 0.0
C749 C 0.3751 0.88118 0.34674 0.0
C750 C 0.36094 0.8487 0.44104 0.0
C751 C 0.34804 0.85459 0.46727 0.0
C752 C 0.36558 0.87173 0.387 0.0
C753 C 0.34402 0.869 0.45062 0.0
C754 C 0.37112 0.8957 0.33133 0.0
C755 C 0.39711 0.88362 0.28599 0.0
N756 N 0.35281 0.87712 0.41176 0.0
N757 N 0.38801 0.8757 0.32396 0.0
H758 H 0.40472 0.11594 0.71428 0.0
H759 H 0.3331 0.1186 0.49383 0.0
H760 H 0.3745 0.07947 0.70092 0.0
H761 H 0.35853 0.15669 0.54757 0.0
H762 H 0.34859 0.10341 0.56349 0.0
H763 H 0.38887 0.13016 0.64404 0.0
C764 C 0.39481 0.11085 0.69596 0.0
C765 C 0.39091 0.09651 0.71357 0.0
C766 C 0.35067 0.11511 0.5603 0.0
C767 C 0.37256 0.11284 0.63351 0.0
C768 C 0.34181 0.12379 0.52085 0.0
C769 C 0.34454 0.13892 0.51495 0.0
C770 C 0.3624 0.12163 0.59342 0.0
C771 C 0.35602 0.14507 0.55068 0.0
C772 C 0.3857 0.11903 0.65619 0.0
C773 C 0.37792 0.0905 0.68843 0.0
N774 N 0.36457 0.1364 0.58797 0.0
N775 N 0.36916 0.09872 0.64971 0.0
H776 H 0.87325 0.84735 0.97271 0.0
H777 H 0.87127 0.91443 0.21912 0.0
H778 H 0.83283 0.86763 0.03537 0.0
H779 H 0.90993 0.88853 0.1782 0.0
H780 H 0.85727 0.89938 0.14348 0.0
H781 H 0.88704 0.86399 0.04102 0.0
C782 C 0.86726 0.85528 0.00118 0.0
C783 C 0.85186 0.85607 -0.00136 0.0
C784 C 0.86885 0.89709 0.15075 0.0
C785 C 0.86763 0.87531 0.07671 0.0
C786 C 0.87686 0.90574 0.19344 0.0
C787 C 0.89176 0.90268 0.20495 0.0
C788 C 0.87584 0.88539 0.11927 0.0
C789 C 0.89845 0.89123 0.17087 0.0
C790 C 0.87515 0.86481 0.0401 0.0
C791 C 0.84469 0.86661 0.03633 0.0
N792 N 0.89043 0.88298 0.1298 0.0
N793 N 0.85265 0.87586 0.07383 0.0
H794 H 0.83285 0.12262 0.97536 0.0
H795 H 0.90869 0.11681 0.78269 0.0
H796 H 0.86545 0.15705 0.96666 0.0
H797 H 0.87625 0.08217 0.78392 0.0
H798 H 0.89302 0.13132 0.85269 0.0
H799 H 0.84826 0.10753 0.90518 0.0
C800 C 0.84316 0.12706 0.95808 0.0
C801 C 0.84789 0.1411 0.97681 0.0
C802 C 0.88932 0.12052 0.83801 0.0
C803 C 0.86562 0.12387 0.89752 0.0
C804 C 0.89831 0.11219 0.79827 0.0
C805 C 0.89376 0.09827 0.77748 0.0
C806 C 0.87561 0.11494 0.85713 0.0
C807 C 0.88019 0.09285 0.79905 0.0
C808 C 0.85198 0.11842 0.9184 0.0
C809 C 0.86137 0.14629 0.95343 0.0
N810 N 0.87154 0.10124 0.83753 0.0
N811 N 0.86977 0.13766 0.91528 0.0
H812 H 0.58746 0.11548 0.71359 0.0
H813 H 0.66431 0.12476 0.53136 0.0
H814 H 0.62213 0.08308 0.72274 0.0
H815 H 0.62938 0.15693 0.52947 0.0
H816 H 0.64934 0.1092 0.60126 0.0
H817 H 0.60265 0.13035 0.6432 0.0
C818 C 0.59823 0.11142 0.70022 0.0
C819 C 0.60355 0.09803 0.72407 0.0
C820 C 0.645 0.1197 0.58576 0.0
C821 C 0.62115 0.11514 0.64398 0.0
C822 C 0.65357 0.12861 0.54624 0.0
C823 C 0.64808 0.14216 0.52467 0.0
C824 C 0.63084 0.12437 0.60362 0.0
C825 C 0.63406 0.14658 0.54498 0.0
C826 C 0.60695 0.11996 0.66024 0.0
C827 C 0.6176 0.09333 0.70522 0.0
N828 N 0.62593 0.1377 0.58306 0.0
N829 N 0.62597 0.10192 0.66648 0.0
H830 H 0.626 0.84394 0.51496 0.0
H831 H 0.62636 0.91389 0.28359 0.0
H832 H 0.66558 0.86778 0.46819 0.0
H833 H 0.58868 0.88599 0.31505 0.0
H834 H 0.64062 0.89857 0.35738 0.0
H835 H 0.612 0.86031 0.44621 0.0
C836 C 0.63177 0.85258 0.48981 0.0
C837 C 0.64699 0.85448 0.49712 0.0
C838 C 0.6292 0.89589 0.34841 0.0
C839 C 0.63095 0.87344 0.4186 0.0
C840 C 0.62104 0.90468 0.30677 0.0
C841 C 0.60633 0.90117 0.29321 0.0
C842 C 0.62257 0.88356 0.37673 0.0
C843 C 0.59999 0.88907 0.32405 0.0
C844 C 0.62375 0.86197 0.45066 0.0
C845 C 0.65387 0.8659 0.46354 0.0
N846 N 0.60816 0.88069 0.36413 0.0
N847 N 0.64578 0.875 0.42579 0.0
H848 H 0.66591 0.62182 0.45755 0.0
H849 H 0.5914 0.61934 0.2543 0.0
H850 H 0.63589 0.65828 0.43624 0.0
H851 H 0.62132 0.58255 0.26575 0.0
H852 H 0.60765 0.63343 0.32312 0.0
H853 H 0.65024 0.60714 0.38673 0.0
C854 C 0.65615 0.62679 0.43726 0.0
C855 C 0.65217 0.64127 0.45277 0.0
C856 C 0.61068 0.62226 0.31092 0.0
C857 C 0.63414 0.62455 0.37289 0.0
C858 C 0.60135 0.61417 0.27184 0.0
C859 C 0.60502 0.59975 0.2543 0.0
C860 C 0.62386 0.61593 0.33271 0.0
C861 C 0.61807 0.59363 0.27836 0.0
C862 C 0.64716 0.61839 0.39727 0.0
C863 C 0.63936 0.64716 0.42566 0.0
N864 N 0.62707 0.60178 0.31623 0.0
N865 N 0.63079 0.63876 0.38737 0.0
H866 H 0.62808 0.41367 0.7406 0.0
H867 H 0.6303 0.34107 0.52569 0.0
H868 H 0.59019 0.38694 0.69666 0.0
H869 H 0.66655 0.37165 0.53429 0.0
H870 H 0.61634 0.3569 0.59707 0.0
H871 H 0.64304 0.39802 0.67069 0.0
C872 C 0.62288 0.40463 0.7157 0.0
C873 C 0.60788 0.40159 0.72438 0.0
C874 C 0.62737 0.36015 0.58364 0.0
C875 C 0.62491 0.38356 0.64564 0.0
C876 C 0.63539 0.35105 0.54321 0.0
C877 C 0.64959 0.35508 0.52393 0.0
C878 C 0.63357 0.37339 0.60518 0.0
C879 C 0.65562 0.36815 0.54807 0.0
C880 C 0.63143 0.39567 0.67613 0.0
C881 C 0.60171 0.38969 0.69136 0.0
N882 N 0.64755 0.3769 0.58736 0.0
N883 N 0.61026 0.38108 0.65383 0.0
H884 H 0.87401 0.41661 0.78272 0.0
H885 H 0.85869 0.33822 0.94082 0.0
H886 H 0.9043 0.38004 0.77675 0.0
H887 H 0.83369 0.37688 0.99125 0.0
H888 H 0.87388 0.35319 0.87086 0.0
H889 H 0.85794 0.40227 0.8531 0.0
C890 C 0.87736 0.40565 0.79684 0.0
C891 C 0.89049 0.39949 0.77391 0.0
C892 C 0.86504 0.35842 0.89701 0.0
C893 C 0.87211 0.383 0.85296 0.0
C894 C 0.85628 0.34985 0.93661 0.0
C895 C 0.84494 0.35633 0.97203 0.0
C896 C 0.86244 0.37361 0.89246 0.0
C897 C 0.84234 0.37146 0.96472 0.0
C898 C 0.86817 0.39746 0.8367 0.0
C899 C 0.89428 0.38523 0.79333 0.0
N900 N 0.85107 0.37963 0.9258 0.0
N901 N 0.88509 0.37744 0.8313 0.0
H902 H 0.87761 0.6115 0.31033 0.0
H903 H 0.86702 0.63476 0.95485 0.0
H904 H 0.8963 0.5856 0.15862 0.0
H905 H 0.83225 0.64145 0.09148 0.0
H906 H 0.87955 0.6186 0.03036 0.0
H907 H 0.86233 0.62448 0.23275 0.0
C908 C 0.87845 0.60853 0.26057 0.0
C909 C 0.88827 0.59755 0.24052 0.0
C910 C 0.86914 0.62352 0.0436 0.0
C911 C 0.87101 0.61247 0.15187 0.0
C912 C 0.86204 0.63283 0.00089 0.0
C913 C 0.84865 0.63951 0.01738 0.0
C914 C 0.86299 0.62117 0.10378 0.0
C915 C 0.84258 0.63652 0.0772 0.0
C916 C 0.86967 0.61587 0.21655 0.0
C917 C 0.88885 0.59401 0.17577 0.0
N918 N 0.84992 0.62771 0.11882 0.0
N919 N 0.88049 0.60164 0.13339 0.0
H920 H 0.33157 0.37188 0.53066 0.0
H921 H 0.40836 0.38065 0.71404 0.0
H922 H 0.36622 0.3394 0.52981 0.0
H923 H 0.37393 0.41331 0.72223 0.0
H924 H 0.39309 0.36583 0.6437 0.0
H925 H 0.34661 0.38734 0.60077 0.0
C926 C 0.34225 0.36794 0.54583 0.0
C927 C 0.34766 0.35434 0.52447 0.0
C928 C 0.38886 0.37626 0.66053 0.0
C929 C 0.36496 0.372 0.60364 0.0
C930 C 0.39762 0.38478 0.70046 0.0
C931 C 0.3924 0.39823 0.72402 0.0
C932 C 0.37471 0.38118 0.64402 0.0
C933 C 0.37838 0.40302 0.70495 0.0
C934 C 0.35086 0.3768 0.58546 0.0
C935 C 0.36161 0.3498 0.54513 0.0
N936 N 0.36998 0.39446 0.66625 0.0
N937 N 0.36978 0.35862 0.58331 0.0
H938 H 0.33324 0.61962 0.4897 0.0
H939 H 0.40746 0.61422 0.28688 0.0
H940 H 0.36258 0.65603 0.45487 0.0
H941 H 0.37395 0.58066 0.27935 0.0
H942 H 0.39202 0.62845 0.35884 0.0
H943 H 0.34846 0.60421 0.41973 0.0
C944 C 0.34278 0.6244 0.46683 0.0
C945 C 0.34666 0.63912 0.47802 0.0
C946 C 0.38804 0.61795 0.34172 0.0
C947 C 0.36419 0.62157 0.39933 0.0
C948 C 0.3969 0.60976 0.30096 0.0
C949 C 0.39195 0.59626 0.27694 0.0
C950 C 0.3741 0.61261 0.35888 0.0
C951 C 0.37817 0.59103 0.29683 0.0
C952 C 0.35148 0.6156 0.42721 0.0
C953 C 0.35916 0.64475 0.44755 0.0
N954 N 0.36967 0.59925 0.33656 0.0
N955 N 0.36751 0.63596 0.41 0.0
H956 H 0.13275 0.65781 0.03437 0.0
H957 H 0.12285 0.58107 0.21664 0.0
H958 H 0.1648 0.62284 0.02411 0.0
H959 H 0.09079 0.61612 0.2164 0.0
H960 H 0.13873 0.59602 0.14789 0.0
H961 H 0.11794 0.64284 0.10575 0.0
C962 C 0.13675 0.64702 0.04775 0.0
C963 C 0.15001 0.64155 0.02319 0.0
C964 C 0.12819 0.60039 0.16272 0.0
C965 C 0.13295 0.62418 0.10435 0.0
C966 C 0.11909 0.59183 0.20158 0.0
C967 C 0.10548 0.59736 0.22211 0.0
C968 C 0.12362 0.61455 0.14454 0.0
C969 C 0.10119 0.61141 0.20165 0.0
C970 C 0.12824 0.63842 0.08829 0.0
C971 C 0.15465 0.62748 0.04215 0.0
N972 N 0.11023 0.61951 0.16424 0.0
N973 N 0.14607 0.61922 0.08137 0.0
H974 H 0.10814 0.37712 0.6956 0.0
H975 H 0.13824 0.37171 0.04416 0.0
H976 H 0.10682 0.41484 0.82 0.0
H977 H 0.15951 0.34847 0.89078 0.0
H978 H 0.12453 0.3863 0.96635 0.0
H979 H 0.12471 0.36479 0.77018 0.0
C980 C 0.11129 0.38277 0.73887 0.0
C981 C 0.10604 0.39697 0.75209 0.0
C982 C 0.13231 0.37812 0.94977 0.0
C983 C 0.12489 0.3829 0.83737 0.0
C984 C 0.14008 0.36976 0.99397 0.0
C985 C 0.14995 0.35886 0.9736 0.0
C986 C 0.13415 0.37528 0.8848 0.0
C987 C 0.15201 0.35681 0.90821 0.0
C988 C 0.12084 0.37579 0.78096 0.0
C989 C 0.11061 0.40387 0.80831 0.0
N990 N 0.14396 0.3648 0.86592 0.0
N991 N 0.11965 0.39668 0.84947 0.0
H992 H 0.17825 0.28584 0.00082 0.0
H993 H 0.14143 0.21386 0.14866 0.0
H994 H 0.14294 0.28628 0.13791 0.0
H995 H 0.1768 0.21231 0.01206 0.0
H996 H 0.13983 0.24039 0.13412 0.0
H997 H 0.17595 0.25903 0.9932 0.0
C998 C 0.16989 0.28032 0.02865 0.0
C999 C 0.16087 0.28825 0.07059 0.0
C1000 C 0.14787 0.23428 0.10681 0.0
C1001 C 0.15824 0.25767 0.0624 0.0
C1002 C 0.14879 0.21911 0.11512 0.0
C1003 C 0.15937 0.21091 0.08202 0.0
C1004 C 0.15772 0.24137 0.06555 0.0
C1005 C 0.16853 0.21826 0.03874 0.0
C1006 C 0.1686 0.26502 0.02438 0.0
C1007 C 0.15021 0.28057 0.10542 0.0
N1008 N 0.16762 0.23312 0.03228 0.0
N1009 N 0.14928 0.26571 0.10095 0.0
H1010 H 0.96009 0.90176 0.43307 0.0
H1011 H 0.03418 0.93018 0.26748 0.0
H1012 H 0.96052 0.93092 0.27122 0.0
H1013 H 0.03315 0.9014 0.43054 0.0
H1014 H 0.00724 0.92979 0.26457 0.0
H1015 H 0.98691 0.90069 0.42955 0.0
C1016 C 0.96584 0.90791 0.39664 0.0
C1017 C 0.95809 0.91648 0.3525 0.0
C1018 C 0.01291 0.92352 0.30083 0.0
C1019 C 0.98881 0.91535 0.34821 0.0
C1020 C 0.02828 0.92373 0.30246 0.0
C1021 C 0.03588 0.91585 0.34945 0.0
C1022 C 0.00513 0.91538 0.34656 0.0
C1023 C 0.02772 0.90767 0.39359 0.0
C1024 C 0.98116 0.9073 0.39463 0.0
C1025 C 0.96609 0.92419 0.30624 0.0
N1026 N 0.01279 0.90769 0.39117 0.0
N1027 N 0.98103 0.92348 0.30541 0.0
H1028 H 0.34299 0.78545 0.69776 0.0
H1029 H 0.31942 0.71125 0.51962 0.0
H1030 H 0.31862 0.78495 0.5217 0.0
H1031 H 0.3408 0.71247 0.70274 0.0
H1032 H 0.32016 0.73816 0.51601 0.0
H1033 H 0.34351 0.75863 0.69676 0.0
C1034 C 0.33778 0.77968 0.65873 0.0
C1035 C 0.33071 0.78742 0.60982 0.0
C1036 C 0.32471 0.73254 0.55691 0.0
C1037 C 0.33122 0.75668 0.6084 0.0
C1038 C 0.3243 0.71719 0.55897 0.0
C1039 C 0.33002 0.70964 0.61165 0.0
C1040 C 0.33092 0.74037 0.60786 0.0
C1041 C 0.33623 0.71785 0.66129 0.0
C1042 C 0.33806 0.76436 0.65822 0.0
C1043 C 0.32417 0.77939 0.5604 0.0
N1044 N 0.33649 0.73277 0.6582 0.0
N1045 N 0.32455 0.76443 0.561 0.0
H1046 H 0.46027 0.09687 0.9251 0.0
H1047 H 0.53466 0.06549 0.77236 0.0
H1048 H 0.46082 0.06544 0.77133 0.0
H1049 H 0.53309 0.09587 0.92989 0.0
H1050 H 0.50774 0.06633 0.76615 0.0
H1051 H 0.48706 0.09772 0.92231 0.0
C1052 C 0.46604 0.09019 0.89049 0.0
C1053 C 0.45833 0.08102 0.84857 0.0
C1054 C 0.5133 0.07285 0.80187 0.0
C1055 C 0.48906 0.08188 0.84525 0.0
C1056 C 0.52866 0.07239 0.8054 0.0
C1057 C 0.5361 0.08058 0.85188 0.0
C1058 C 0.50538 0.08158 0.84514 0.0
C1059 C 0.5278 0.08934 0.89346 0.0
C1060 C 0.48136 0.09067 0.88894 0.0
C1061 C 0.46637 0.07264 0.80459 0.0
N1062 N 0.5129 0.08957 0.88921 0.0
N1063 N 0.48133 0.07321 0.80426 0.0
H1064 H 0.18178 0.78438 0.96943 0.0
H1065 H 0.14867 0.7103 0.82136 0.0
H1066 H 0.1492 0.78294 0.8203 0.0
H1067 H 0.18289 0.71043 0.96363 0.0
H1068 H 0.14751 0.73701 0.82732 0.0
H1069 H 0.18118 0.75742 0.97491 0.0
C1070 C 0.17444 0.7784 0.9382 0.0
C1071 C 0.16559 0.78588 0.8941 0.0
C1072 C 0.15526 0.73124 0.85748 0.0
C1073 C 0.16486 0.75515 0.9 0.0
C1074 C 0.15592 0.71596 0.85409 0.0
C1075 C 0.16596 0.70815 0.89178 0.0
C1076 C 0.16474 0.73883 0.89872 0.0
C1077 C 0.17502 0.71606 0.93359 0.0
C1078 C 0.17412 0.76303 0.94127 0.0
C1079 C 0.15627 0.77762 0.85477 0.0
N1080 N 0.17426 0.73101 0.93572 0.0
N1081 N 0.15619 0.76272 0.85852 0.0
H1082 H 0.46464 0.89922 0.06602 0.0
H1083 H 0.53737 0.93085 0.23176 0.0
H1084 H 0.46365 0.9297 0.22327 0.0
H1085 H 0.53754 0.90115 0.07169 0.0
H1086 H 0.51045 0.92957 0.23408 0.0
H1087 H 0.49142 0.89871 0.07223 0.0
C1088 C 0.47007 0.90576 0.10212 0.0
C1089 C 0.46193 0.91457 0.14403 0.0
C1090 C 0.51639 0.92329 0.19863 0.0
C1091 C 0.49264 0.9141 0.15125 0.0
C1092 C 0.53174 0.92401 0.19731 0.0
C1093 C 0.53968 0.91614 0.15128 0.0
C1094 C 0.50895 0.91464 0.15358 0.0
C1095 C 0.53186 0.90744 0.10784 0.0
C1096 C 0.48538 0.90547 0.10561 0.0
C1097 C 0.46954 0.92278 0.18996 0.0
N1098 N 0.51694 0.90696 0.10995 0.0
N1099 N 0.48449 0.9224 0.19217 0.0
H1100 H 0.348 0.21089 0.32013 0.0
H1101 H 0.31644 0.28451 0.4785 0.0
H1102 H 0.31642 0.21081 0.4733 0.0
H1103 H 0.34672 0.28367 0.32054 0.0
H1104 H 0.31775 0.25761 0.48402 0.0
H1105 H 0.34925 0.23763 0.32662 0.0
C1106 C 0.34139 0.21651 0.35546 0.0
C1107 C 0.33202 0.20864 0.39596 0.0
C1108 C 0.32416 0.26333 0.4484 0.0
C1109 C 0.3333 0.23931 0.40342 0.0
C1110 C 0.32343 0.27867 0.44527 0.0
C1111 C 0.33142 0.28629 0.39873 0.0
C1112 C 0.33295 0.25561 0.40469 0.0
C1113 C 0.34032 0.27821 0.35694 0.0
C1114 C 0.3421 0.23179 0.35912 0.0
C1115 C 0.32376 0.21648 0.44104 0.0
N1116 N 0.34079 0.26332 0.36076 0.0
N1117 N 0.32452 0.23141 0.44329 0.0
H1118 H 0.9631 0.06613 0.72813 0.0
H1119 H 0.03728 0.09486 0.56458 0.0
H1120 H 0.96432 0.09579 0.56809 0.0
H1121 H 0.03681 0.06497 0.72391 0.0
H1122 H 0.0105 0.09617 0.5689 0.0
H1123 H 0.99005 0.06642 0.73138 0.0
C1124 C 0.96904 0.07277 0.69395 0.0
C1125 C 0.96149 0.08091 0.64762 0.0
C1126 C 0.01622 0.08935 0.6031 0.0
C1127 C 0.99224 0.08125 0.65086 0.0
C1128 C 0.03153 0.08859 0.60062 0.0
C1129 C 0.03926 0.07974 0.6438 0.0
C1130 C 0.00856 0.08116 0.64901 0.0
C1131 C 0.03125 0.0719 0.68962 0.0
C1132 C 0.98441 0.07291 0.69576 0.0
C1133 C 0.9697 0.08932 0.60449 0.0
N1134 N 0.01631 0.07275 0.6909 0.0
N1135 N 0.98463 0.08923 0.60703 0.0
H1136 H 0.81809 0.71174 0.99036 0.0
H1137 H 0.85547 0.78443 0.85162 0.0
H1138 H 0.85393 0.71215 0.8559 0.0
H1139 H 0.81867 0.78542 0.98106 0.0
H1140 H 0.85718 0.75791 0.86566 0.0
H1141 H 0.82012 0.73856 7e-05 0.0
C1142 C 0.8265 0.71746 0.96354 0.0
C1143 C 0.83575 0.70977 0.92169 0.0
C1144 C 0.84879 0.76389 0.89153 0.0
C1145 C 0.83811 0.74033 0.93239 0.0
C1146 C 0.84782 0.77906 0.88352 0.0
C1147 C 0.8368 0.78708 0.91464 0.0
C1148 C 0.83856 0.75663 0.93042 0.0
C1149 C 0.82728 0.77959 0.95593 0.0
C1150 C 0.82764 0.73275 0.96901 0.0
C1151 C 0.84647 0.71767 0.88818 0.0
N1152 N 0.82825 0.76472 0.96204 0.0
N1153 N 0.84728 0.73251 0.89391 0.0
H1154 H 0.64735 0.21267 0.32996 0.0
H1155 H 0.6838 0.28636 0.46579 0.0
H1156 H 0.68197 0.21248 0.47037 0.0
H1157 H 0.6474 0.28539 0.3341 0.0
H1158 H 0.68281 0.25943 0.47255 0.0
H1159 H 0.64665 0.23944 0.3352 0.0
C1160 C 0.65477 0.21828 0.36217 0.0
C1161 C 0.66479 0.21036 0.39956 0.0
C1162 C 0.67499 0.26514 0.44251 0.0
C1163 C 0.66412 0.24108 0.40558 0.0
C1164 C 0.67555 0.28049 0.43866 0.0
C1165 C 0.66573 0.28809 0.39905 0.0
C1166 C 0.66454 0.25739 0.40634 0.0
C1167 C 0.65524 0.27997 0.365 0.0
C1168 C 0.65436 0.23358 0.36519 0.0
C1169 C 0.67409 0.21819 0.44066 0.0
N1170 N 0.65498 0.26508 0.3692 0.0
N1171 N 0.67361 0.23315 0.44228 0.0
H1172 H 0.84536 0.28476 0.1873 0.0
H1173 H 0.81559 0.21075 0.02558 0.0
H1174 H 0.81451 0.2844 0.03136 0.0
H1175 H 0.84512 0.21179 0.18619 0.0
H1176 H 0.81608 0.23769 0.02228 0.0
H1177 H 0.84644 0.25796 0.18316 0.0
C1178 C 0.83883 0.27903 0.15207 0.0
C1179 C 0.82978 0.28679 0.10979 0.0
C1180 C 0.8225 0.23201 0.05806 0.0
C1181 C 0.83093 0.25609 0.10478 0.0
C1182 C 0.82223 0.21665 0.05988 0.0
C1183 C 0.83027 0.20906 0.10639 0.0
C1184 C 0.83087 0.23979 0.10305 0.0
C1185 C 0.8387 0.21721 0.14968 0.0
C1186 C 0.83945 0.26372 0.1497 0.0
C1187 C 0.8216 0.27881 0.06495 0.0
N1188 N 0.83875 0.23213 0.14707 0.0
N1189 N 0.82233 0.26388 0.06373 0.0
H1190 H 0.68352 0.71106 0.50989 0.0
H1191 H 0.64598 0.7827 0.66006 0.0
H1192 H 0.64976 0.71032 0.65409 0.0
H1193 H 0.68089 0.78485 0.52138 0.0
H1194 H 0.64553 0.75606 0.64886 0.0
H1195 H 0.68126 0.73793 0.5047 0.0
C1196 C 0.67558 0.71655 0.54012 0.0
C1197 C 0.66689 0.7085 0.58285 0.0
C1198 C 0.65324 0.76232 0.62044 0.0
C1199 C 0.66424 0.7391 0.57712 0.0
C1200 C 0.65348 0.77755 0.62677 0.0
C1201 C 0.66358 0.78596 0.59199 0.0
C1202 C 0.66326 0.75538 0.57937 0.0
C1203 C 0.67297 0.77873 0.54922 0.0
C1204 C 0.67429 0.73186 0.53714 0.0
C1205 C 0.65675 0.71611 0.6208 0.0
N1206 N 0.67269 0.7638 0.54453 0.0
N1207 N 0.65576 0.73097 0.61722 0.0
H1208 H 0.53576 0.40731 0.95694 0.0
H1209 H 0.46171 0.42776 0.77039 0.0
H1210 H 0.53538 0.4275 0.7713 0.0
H1211 H 0.46276 0.40447 0.94906 0.0
H1212 H 0.48866 0.42763 0.76872 0.0
H1213 H 0.50893 0.40608 0.95416 0.0
C1214 C 0.53001 0.41146 0.91552 0.0
C1215 C 0.53778 0.41755 0.86434 0.0
C1216 C 0.48299 0.42249 0.80814 0.0
C1217 C 0.50707 0.41621 0.8608 0.0
C1218 C 0.46762 0.42257 0.80909 0.0
C1219 C 0.46002 0.41615 0.86002 0.0
C1220 C 0.49077 0.41601 0.85863 0.0
C1221 C 0.46818 0.40956 0.90892 0.0
C1222 C 0.5147 0.41074 0.9139 0.0
C1223 C 0.5298 0.42274 0.81181 0.0
N1224 N 0.48311 0.40971 0.90712 0.0
N1225 N 0.51486 0.42199 0.81146 0.0
H1226 H 0.9615 0.60095 0.41846 0.0
H1227 H 0.03436 0.5675 0.26082 0.0
H1228 H 0.96061 0.56891 0.2671 0.0
H1229 H 0.03411 0.59776 0.41892 0.0
H1230 H 0.0075 0.56967 0.2541 0.0
H1231 H 0.98823 0.60191 0.41035 0.0
C1232 C 0.96694 0.59421 0.38307 0.0
C1233 C 0.95886 0.58474 0.34375 0.0
C1234 C 0.01335 0.5759 0.28996 0.0
C1235 C 0.98952 0.58567 0.33456 0.0
C1236 C 0.02866 0.57467 0.29379 0.0
C1237 C 0.03643 0.58237 0.34082 0.0
C1238 C 0.00582 0.58491 0.33343 0.0
C1239 C 0.02854 0.59153 0.38222 0.0
C1240 C 0.98222 0.59474 0.37852 0.0
C1241 C 0.96646 0.57632 0.2985 0.0
N1242 N 0.01368 0.59249 0.37773 0.0
N1243 N 0.9814 0.57688 0.2955 0.0
H1244 H 0.96021 0.39528 0.57459 0.0
H1245 H 0.0349 0.42693 0.72306 0.0
H1246 H 0.96123 0.42949 0.71679 0.0
H1247 H 0.03302 0.39682 0.56463 0.0
H1248 H 0.00801 0.42593 0.7309 0.0
H1249 H 0.98697 0.39362 0.57984 0.0
C1250 C 0.96608 0.40239 0.60722 0.0
C1251 C 0.95852 0.41261 0.64498 0.0
C1252 C 0.0135 0.41947 0.69472 0.0
C1253 C 0.98918 0.41081 0.65112 0.0
C1254 C 0.02884 0.42001 0.69034 0.0
C1255 C 0.03616 0.41202 0.64285 0.0
C1256 C 0.0055 0.41085 0.65141 0.0
C1257 C 0.0278 0.40323 0.6017 0.0
C1258 C 0.98136 0.40145 0.61016 0.0
C1259 C 0.96666 0.4215 0.68663 0.0
N1260 N 0.01292 0.40293 0.60677 0.0
N1261 N 0.98159 0.42046 0.68836 0.0
H1262 H 0.4614 0.56241 0.21122 0.0
H1263 H 0.53386 0.60179 0.07905 0.0
H1264 H 0.46123 0.60066 0.08973 0.0
H1265 H 0.53523 0.56456 0.20609 0.0
H1266 H 0.50717 0.60236 0.0888 0.0
H1267 H 0.48833 0.56375 0.21623 0.0
C1268 C 0.46703 0.57114 0.18602 0.0
C1269 C 0.45911 0.58138 0.14965 0.0
C1270 C 0.51327 0.5941 0.11492 0.0
C1271 C 0.48981 0.58295 0.15499 0.0
C1272 C 0.52853 0.59377 0.10933 0.0
C1273 C 0.53675 0.58305 0.14148 0.0
C1274 C 0.50611 0.58355 0.15257 0.0
C1275 C 0.52928 0.57298 0.18037 0.0
C1276 C 0.48238 0.5719 0.18887 0.0
C1277 C 0.46691 0.59248 0.11803 0.0
N1278 N 0.51434 0.5734 0.18446 0.0
N1279 N 0.48181 0.59292 0.12117 0.0
H1280 H 0.16353 0.12804 0.28729 0.0
H1281 H 0.09135 0.1203 0.50101 0.0
H1282 H 0.13063 0.16212 0.30237 0.0
H1283 H 0.12716 0.08909 0.5024 0.0
H1284 H 0.10559 0.13602 0.42938 0.0
H1285 H 0.15055 0.11392 0.36826 0.0
C1286 C 0.15363 0.1326 0.30811 0.0
C1287 C 0.14809 0.14622 0.288 0.0
C1288 C 0.11035 0.12576 0.44558 0.0
C1289 C 0.13308 0.13007 0.38018 0.0
C1290 C 0.10221 0.11677 0.48623 0.0
C1291 C 0.10808 0.10336 0.50728 0.0
C1292 C 0.1244 0.12123 0.42572 0.0
C1293 C 0.12221 0.09932 0.48706 0.0
C1294 C 0.14621 0.12454 0.3543 0.0
C1295 C 0.13524 0.15165 0.31658 0.0
N1296 N 0.12986 0.1082 0.44718 0.0
N1297 N 0.12809 0.14348 0.36095 0.0
H1298 H 0.08798 0.87642 0.51038 0.0
H1299 H 0.1599 0.87269 0.7284 0.0
H1300 H 0.12345 0.90789 0.50096 0.0
H1301 H 0.12903 0.83683 0.71244 0.0
H1302 H 0.14594 0.88629 0.64865 0.0
H1303 H 0.10211 0.86223 0.58835 0.0
C1304 C 0.09874 0.88033 0.52477 0.0
C1305 C 0.10457 0.89334 0.49938 0.0
C1306 C 0.14223 0.87542 0.66238 0.0
C1307 C 0.12072 0.87724 0.58827 0.0
C1308 C 0.15018 0.86767 0.70796 0.0
C1309 C 0.14559 0.85364 0.72694 0.0
C1310 C 0.12952 0.86914 0.63591 0.0
C1311 C 0.13294 0.84763 0.69896 0.0
C1312 C 0.1068 0.87222 0.56907 0.0
C1313 C 0.11855 0.89792 0.5194 0.0
N1314 N 0.12529 0.85545 0.65492 0.0
N1315 N 0.12613 0.8899 0.56283 0.0
H1316 H 0.37434 0.91002 0.98484 0.0
H1317 H 0.36989 0.8391 0.76102 0.0
H1318 H 0.40989 0.87883 0.96556 0.0
H1319 H 0.33813 0.87443 0.75768 0.0
H1320 H 0.38425 0.85279 0.83967 0.0
H1321 H 0.3604 0.89641 0.90508 0.0
C1322 C 0.37921 0.9003 0.96371 0.0
C1323 C 0.39327 0.89552 0.98171 0.0
C1324 C 0.37415 0.85755 0.82161 0.0
C1325 C 0.37738 0.87987 0.89063 0.0
C1326 C 0.36595 0.84973 0.77689 0.0
C1327 C 0.35282 0.85566 0.75298 0.0
C1328 C 0.36911 0.87132 0.8427 0.0
C1329 C 0.3482 0.86947 0.77494 0.0
C1330 C 0.37126 0.89255 0.91812 0.0
C1331 C 0.39908 0.88288 0.95286 0.0
N1332 N 0.35633 0.87682 0.81871 0.0
N1333 N 0.39108 0.87545 0.90879 0.0
H1334 H 0.36815 0.09162 0.97533 0.0
H1335 H 0.3702 0.15451 0.24147 0.0
H1336 H 0.40769 0.11473 0.02932 0.0
H1337 H 0.33081 0.13142 0.18539 0.0
H1338 H 0.38404 0.14075 0.16135 0.0
H1339 H 0.35418 0.10666 0.05015 0.0
C1340 C 0.37389 0.09986 0.00304 0.0
C1341 C 0.38909 0.10192 0.99639 0.0
C1342 C 0.37235 0.13875 0.16638 0.0
C1343 C 0.3732 0.11919 0.08196 0.0
C1344 C 0.36446 0.14661 0.21198 0.0
C1345 C 0.34937 0.14404 0.2201 0.0
C1346 C 0.36509 0.12824 0.12881 0.0
C1347 C 0.34245 0.1337 0.18075 0.0
C1348 C 0.36591 0.10847 0.04565 0.0
C1349 C 0.39598 0.11278 0.0332 0.0
N1350 N 0.35038 0.12614 0.13695 0.0
N1351 N 0.38797 0.12101 0.07456 0.0
H1352 H 0.86922 0.90868 0.48902 0.0
H1353 H 0.864 0.8337 0.68681 0.0
H1354 H 0.9039 0.87622 0.49352 0.0
H1355 H 0.83365 0.86992 0.70779 0.0
H1356 H 0.87715 0.84764 0.60508 0.0
H1357 H 0.85456 0.89319 0.5594 0.0
C1358 C 0.87374 0.89827 0.50483 0.0
C1359 C 0.88782 0.89375 0.48587 0.0
C1360 C 0.86756 0.85248 0.62731 0.0
C1361 C 0.87109 0.87595 0.56611 0.0
C1362 C 0.86002 0.84452 0.67367 0.0
C1363 C 0.84779 0.85074 0.70426 0.0
C1364 C 0.86277 0.86671 0.6114 0.0
C1365 C 0.84308 0.86477 0.68558 0.0
C1366 C 0.86537 0.88943 0.54496 0.0
C1367 C 0.89312 0.88014 0.50744 0.0
N1368 N 0.85062 0.87231 0.64052 0.0
N1369 N 0.88475 0.87171 0.54658 0.0
H1370 H 0.86865 0.15832 0.27293 0.0
H1371 H 0.87348 0.08705 0.49448 0.0
H1372 H 0.83743 0.1226 0.26673 0.0
H1373 H 0.90895 0.1183 0.47586 0.0
H1374 H 0.8594 0.10087 0.41585 0.0
H1375 H 0.88291 0.14473 0.35237 0.0
C1376 C 0.8648 0.14763 0.2884 0.0
C1377 C 0.85187 0.14154 0.26335 0.0
C1378 C 0.87027 0.1047 0.42882 0.0
C1379 C 0.86805 0.12601 0.35392 0.0
C1380 C 0.8783 0.09683 0.47377 0.0
C1381 C 0.89239 0.10155 0.49154 0.0
C1382 C 0.87634 0.11744 0.40173 0.0
C1383 C 0.89812 0.11429 0.46328 0.0
C1384 C 0.87295 0.13988 0.33355 0.0
C1385 C 0.84736 0.12767 0.28483 0.0
N1386 N 0.89005 0.12183 0.41977 0.0
N1387 N 0.85543 0.12038 0.329 0.0
H1388 H 0.65954 0.12305 0.23943 0.0
H1389 H 0.58754 0.11903 0.02197 0.0
H1390 H 0.62862 0.1589 0.22257 0.0
H1391 H 0.62325 0.0878 0.01135 0.0
H1392 H 0.60155 0.13316 0.10047 0.0
H1393 H 0.64551 0.10928 0.16044 0.0
C1394 C 0.6498 0.12802 0.21898 0.0
C1395 C 0.64522 0.14212 0.23742 0.0
C1396 C 0.60631 0.12323 0.08084 0.0
C1397 C 0.62907 0.12643 0.14729 0.0
C1398 C 0.59832 0.11515 0.03626 0.0
C1399 C 0.60427 0.10225 0.01028 0.0
C1400 C 0.62029 0.11827 0.09977 0.0
C1401 C 0.61827 0.0977 0.03021 0.0
C1402 C 0.6418 0.12018 0.17384 0.0
C1403 C 0.63253 0.14806 0.20948 0.0
N1404 N 0.62579 0.10569 0.07391 0.0
N1405 N 0.62485 0.14015 0.16587 0.0
H1406 H 0.63285 0.8343 0.80672 0.0
H1407 H 0.62838 0.90851 0.01027 0.0
H1408 H 0.66396 0.86993 0.79 0.0
H1409 H 0.59311 0.87682 0.00081 0.0
H1410 H 0.64283 0.89322 0.93811 0.0
H1411 H 0.6195 0.84836 0.88745 0.0
C1412 C 0.63694 0.84503 0.82049 0.0
C1413 C 0.64947 0.85102 0.79155 0.0
C1414 C 0.63193 0.8896 0.95182 0.0
C1415 C 0.63427 0.86714 0.88335 0.0
C1416 C 0.62368 0.89832 0.99297 0.0
C1417 C 0.60951 0.89394 0.01116 0.0
C1418 C 0.62599 0.87636 0.92893 0.0
C1419 C 0.60397 0.88062 0.9876 0.0
C1420 C 0.62929 0.85307 0.8663 0.0
C1421 C 0.6543 0.86495 0.811 0.0
N1422 N 0.61224 0.87228 0.9476 0.0
N1423 N 0.64666 0.87256 0.8556 0.0
H1424 H 0.58777 0.61885 0.95024 0.0
H1425 H 0.66052 0.621 0.73701 0.0
H1426 H 0.62326 0.58751 0.96702 0.0
H1427 H 0.6304 0.65757 0.75152 0.0
H1428 H 0.64574 0.60752 0.81435 0.0
H1429 H 0.60201 0.6322 0.86997 0.0
C1430 C 0.59853 0.61477 0.93684 0.0
C1431 C 0.60438 0.6021 0.96524 0.0
C1432 C 0.64237 0.6185 0.80071 0.0
C1433 C 0.62065 0.61722 0.87379 0.0
C1434 C 0.65078 0.62618 0.75652 0.0
C1435 C 0.64667 0.64042 0.73809 0.0
C1436 C 0.62969 0.62506 0.82629 0.0
C1437 C 0.63396 0.64663 0.76472 0.0
C1438 C 0.60666 0.6224 0.89127 0.0
C1439 C 0.61837 0.59726 0.94636 0.0
N1440 N 0.62588 0.63888 0.80749 0.0
N1441 N 0.62602 0.60482 0.90172 0.0
H1442 H 0.63618 0.33566 0.18482 0.0
H1443 H 0.60053 0.41288 0.08627 0.0
H1444 H 0.64495 0.37656 0.28195 0.0
H1445 H 0.59978 0.37456 0.96514 0.0
H1446 H 0.61385 0.39871 0.16646 0.0
H1447 H 0.62013 0.34888 0.11072 0.0
C1448 C 0.63471 0.34742 0.19053 0.0
C1449 C 0.64195 0.35507 0.23921 0.0
C1450 C 0.61069 0.39337 0.12249 0.0
C1451 C 0.62357 0.37018 0.15531 0.0
C1452 C 0.60303 0.40143 0.07687 0.0
C1453 C 0.59914 0.39489 0.01892 0.0
C1454 C 0.61444 0.37866 0.1101 0.0
C1455 C 0.60264 0.38003 0.00915 0.0
C1456 C 0.62556 0.35494 0.14832 0.0
C1457 C 0.63964 0.37026 0.24475 0.0
N1458 N 0.61016 0.37241 0.05423 0.0
N1459 N 0.63064 0.37733 0.20329 0.0
H1460 H 0.91095 0.39033 0.42311 0.0
H1461 H 0.83805 0.34487 0.34064 0.0
H1462 H 0.87209 0.39008 0.54097 0.0
H1463 H 0.87174 0.35461 0.20236 0.0
H1464 H 0.85223 0.3582 0.42089 0.0
H1465 H 0.89834 0.37429 0.34702 0.0
C1466 C 0.89978 0.38688 0.43295 0.0
C1467 C 0.8925 0.39159 0.48805 0.0
C1468 C 0.85655 0.35734 0.37306 0.0
C1469 C 0.87811 0.3732 0.40195 0.0
C1470 C 0.84851 0.34968 0.32738 0.0
C1471 C 0.8537 0.34874 0.26478 0.0
C1472 C 0.86991 0.36403 0.35601 0.0
C1473 C 0.86732 0.35516 0.25008 0.0
C1474 C 0.8926 0.37774 0.38961 0.0
C1475 C 0.87805 0.38678 0.49876 0.0
N1476 N 0.87494 0.3626 0.29536 0.0
N1477 N 0.87133 0.37783 0.45609 0.0
H1478 H 0.86588 0.65941 0.71593 0.0
H1479 H 0.8741 0.58297 0.53169 0.0
H1480 H 0.83636 0.6228 0.74351 0.0
H1481 H 0.90781 0.61638 0.53531 0.0
H1482 H 0.85942 0.59776 0.60531 0.0
H1483 H 0.88048 0.64435 0.64329 0.0
C1484 C 0.86242 0.64823 0.70627 0.0
C1485 C 0.84992 0.64231 0.73569 0.0
C1486 C 0.87007 0.60181 0.59028 0.0
C1487 C 0.86659 0.62502 0.65318 0.0
C1488 C 0.87846 0.59336 0.54844 0.0
C1489 C 0.89217 0.59849 0.52749 0.0
C1490 C 0.8754 0.61551 0.61074 0.0
C1491 C 0.8973 0.61202 0.55044 0.0
C1492 C 0.8708 0.63962 0.66515 0.0
C1493 C 0.84593 0.62776 0.72176 0.0
N1494 N 0.88887 0.62012 0.59058 0.0
N1495 N 0.85426 0.61959 0.68145 0.0
H1496 H 0.33727 0.374 0.24354 0.0
H1497 H 0.4079 0.37658 0.0175 0.0
H1498 H 0.367 0.33731 0.22093 0.0
H1499 H 0.37329 0.40911 0.0149 0.0
H1500 H 0.394 0.36257 0.09672 0.0
H1501 H 0.35129 0.38765 0.16427 0.0
C1502 C 0.34676 0.36882 0.2218 0.0
C1503 C 0.351 0.35452 0.23866 0.0
C1504 C 0.38945 0.37277 0.07869 0.0
C1505 C 0.36711 0.37007 0.14811 0.0
C1506 C 0.39738 0.38077 0.03367 0.0
C1507 C 0.39171 0.394 0.00976 0.0
C1508 C 0.37583 0.37813 0.1001 0.0
C1509 C 0.37805 0.39894 0.03211 0.0
C1510 C 0.35474 0.3766 0.17648 0.0
C1511 C 0.36336 0.34832 0.20908 0.0
N1512 N 0.37058 0.39102 0.07616 0.0
N1513 N 0.37103 0.35616 0.16525 0.0
H1514 H 0.41228 0.60906 0.93352 0.0
H1515 H 0.33684 0.64927 0.84182 0.0
H1516 H 0.37168 0.60369 0.03733 0.0
H1517 H 0.37394 0.64627 0.71438 0.0
H1518 H 0.35086 0.63577 0.92195 0.0
H1519 H 0.39959 0.62558 0.85956 0.0
C1520 C 0.4007 0.61137 0.94073 0.0
C1521 C 0.39297 0.60494 0.99123 0.0
C1522 C 0.35597 0.63815 0.87661 0.0
C1523 C 0.37848 0.62387 0.90754 0.0
C1524 C 0.34801 0.64592 0.83102 0.0
C1525 C 0.35422 0.64878 0.77132 0.0
C1526 C 0.37026 0.63326 0.86241 0.0
C1527 C 0.36872 0.64421 0.75978 0.0
C1528 C 0.39348 0.62079 0.89861 0.0
C1529 C 0.37802 0.60834 -0.00132 0.0
N1530 N 0.37624 0.63659 0.80485 0.0
N1531 N 0.37126 0.61757 0.95727 0.0
H1532 H 0.15947 0.62012 0.73742 0.0
H1533 H 0.08722 0.61656 0.52117 0.0
H1534 H 0.1286 0.65603 0.72129 0.0
H1535 H 0.12281 0.58522 0.50888 0.0
H1536 H 0.10114 0.63025 0.60127 0.0
H1537 H 0.14509 0.60622 0.65995 0.0
C1538 C 0.14965 0.62507 0.71752 0.0
C1539 C 0.14521 0.63924 0.73555 0.0
C1540 C 0.10589 0.62038 0.58102 0.0
C1541 C 0.12869 0.62341 0.64721 0.0
C1542 C 0.09794 0.61255 0.53551 0.0
C1543 C 0.10391 0.59978 0.50842 0.0
C1544 C 0.11984 0.61532 0.59973 0.0
C1545 C 0.11783 0.59505 0.52853 0.0
C1546 C 0.14146 0.61715 0.67327 0.0
C1547 C 0.13241 0.64514 0.70843 0.0
N1548 N 0.12533 0.60282 0.57307 0.0
N1549 N 0.12456 0.63717 0.66561 0.0
H1550 H 0.16449 0.37183 0.26682 0.0
H1551 H 0.08873 0.37843 0.45685 0.0
H1552 H 0.13206 0.33721 0.27461 0.0
H1553 H 0.12443 0.40931 0.47853 0.0
H1554 H 0.10409 0.36374 0.38585 0.0
H1555 H 0.14984 0.38609 0.34238 0.0
C1556 C 0.15436 0.36717 0.28496 0.0
C1557 C 0.14944 0.35335 0.26443 0.0
C1558 C 0.10857 0.37373 0.40612 0.0
C1559 C 0.13257 0.36965 0.34998 0.0
C1560 C 0.09978 0.38216 0.44631 0.0
C1561 C 0.10533 0.3951 0.4734 0.0
C1562 C 0.12298 0.37832 0.39267 0.0
C1563 C 0.11974 0.3994 0.4585 0.0
C1564 C 0.14599 0.37533 0.32793 0.0
C1565 C 0.13624 0.34783 0.28927 0.0
N1566 N 0.12808 0.39102 0.41899 0.0
N1567 N 0.1282 0.35605 0.33043 0.0
loop_
_geom_bond_atom_site_label_1
_geom_bond_atom_site_label_2
_geom_bond_distance
_geom_bond_site_symmetry_2
_ccdc_geom_bond_type
In0 O1 2.294 . S
In0 O2 2.326 . S
In0 O6 2.266 . S
In0 O7 2.326 . S
In0 O8 2.266 . S
In0 O9 2.326 . S
In0 O11 2.294 . S
In0 O12 2.326 . S
O1 In0 2.294 . S
O1 C10 1.240 . S
O2 In0 2.326 . S
O2 C10 1.252 . S
C3 O6 1.252 . S
C3 O7 1.260 . S
C4 O11 1.240 . S
C4 O12 1.252 . S
C5 O8 1.252 . S
C5 O9 1.260 . S
O6 In0 2.266 . S
O6 C3 1.252 . S
O7 In0 2.326 . S
O7 C3 1.260 . S
O8 In0 2.266 . S
O8 C5 1.252 . S
O9 In0 2.326 . S
O9 C5 1.260 . S
C10 O1 1.240 . S
C10 O2 1.252 . S
O11 In0 2.294 . S
O11 C4 1.240 . S
O12 In0 2.326 . S
O12 C4 1.252 . S
In13 O14 2.294 . S
In13 O15 2.326 . S
In13 O19 2.266 . S
In13 O20 2.326 . S
In13 O21 2.266 . S
In13 O22 2.326 . S
In13 O24 2.294 . S
In13 O25 2.326 . S
O14 In13 2.294 . S
O14 C23 1.240 . S
O15 In13 2.326 . S
O15 C23 1.252 . S
C16 O19 1.252 . S
C16 O20 1.260 . S
C17 O24 1.240 . S
C17 O25 1.252 . S
C18 O21 1.252 . S
C18 O22 1.260 . S
O19 In13 2.266 . S
O19 C16 1.252 . S
O20 In13 2.326 . S
O20 C16 1.260 . S
O21 In13 2.266 . S
O21 C18 1.252 . S
O22 In13 2.326 . S
O22 C18 1.260 . S
C23 O14 1.240 . S
C23 O15 1.252 . S
O24 In13 2.294 . S
O24 C17 1.240 . S
O25 In13 2.326 . S
O25 C17 1.252 . S
In26 O27 2.294 . S
In26 O28 2.326 . S
In26 O32 2.266 . S
In26 O33 2.326 . S
In26 O34 2.266 . S
In26 O35 2.326 . S
In26 O37 2.294 . S
In26 O38 2.326 . S
O27 In26 2.294 . S
O27 C36 1.240 . S
O28 In26 2.326 . S
O28 C36 1.252 . S
C29 O32 1.252 . S
C29 O33 1.260 . S
C30 O37 1.240 . S
C30 O38 1.252 . S
C31 O34 1.252 . S
C31 O35 1.260 . S
O32 In26 2.266 . S
O32 C29 1.252 . S
O33 In26 2.326 . S
O33 C29 1.260 . S
O34 In26 2.266 . S
O34 C31 1.252 . S
O35 In26 2.326 . S
O35 C31 1.260 . S
C36 O27 1.240 . S
C36 O28 1.252 . S
O37 In26 2.294 . S
O37 C30 1.240 . S
O38 In26 2.326 . S
O38 C30 1.252 . S
In39 O40 2.294 . S
In39 O41 2.326 . S
In39 O45 2.266 . S
In39 O46 2.326 . S
In39 O47 2.266 . S
In39 O48 2.326 . S
In39 O50 2.294 . S
In39 O51 2.326 . S
O40 In39 2.294 . S
O40 C49 1.240 . S
O41 In39 2.326 . S
O41 C49 1.252 . S
C42 O45 1.252 . S
C42 O46 1.260 . S
C43 O50 1.240 . S
C43 O51 1.252 . S
C44 O47 1.252 . S
C44 O48 1.260 . S
O45 In39 2.266 . S
O45 C42 1.252 . S
O46 In39 2.326 . S
O46 C42 1.260 . S
O47 In39 2.266 . S
O47 C44 1.252 . S
O48 In39 2.326 . S
O48 C44 1.260 . S
C49 O40 1.240 . S
C49 O41 1.252 . S
O50 In39 2.294 . S
O50 C43 1.240 . S
O51 In39 2.326 . S
O51 C43 1.252 . S
In52 O53 2.294 . S
In52 O54 2.326 . S
In52 O58 2.266 . S
In52 O59 2.326 . S
In52 O60 2.266 . S
In52 O61 2.326 . S
In52 O63 2.294 . S
In52 O64 2.326 . S
O53 In52 2.294 . S
O53 C62 1.240 . S
O54 In52 2.326 . S
O54 C62 1.252 . S
C55 O58 1.252 . S
C55 O59 1.260 . S
C56 O63 1.240 . S
C56 O64 1.252 . S
C57 O60 1.252 . S
C57 O61 1.260 . S
O58 In52 2.266 . S
O58 C55 1.252 . S
O59 In52 2.326 . S
O59 C55 1.260 . S
O60 In52 2.266 . S
O60 C57 1.252 . S
O61 In52 2.326 . S
O61 C57 1.260 . S
C62 O53 1.240 . S
C62 O54 1.252 . S
O63 In52 2.294 . S
O63 C56 1.240 . S
O64 In52 2.326 . S
O64 C56 1.252 . S
In65 O66 2.294 . S
In65 O67 2.326 . S
In65 O71 2.266 . S
In65 O72 2.326 . S
In65 O73 2.266 . S
In65 O74 2.326 . S
In65 O76 2.294 . S
In65 O77 2.326 . S
O66 In65 2.294 . S
O66 C75 1.240 . S
O67 In65 2.326 . S
O67 C75 1.252 . S
C68 O71 1.252 . S
C68 O72 1.260 . S
C69 O76 1.240 . S
C69 O77 1.252 . S
C70 O73 1.252 . S
C70 O74 1.260 . S
O71 In65 2.266 . S
O71 C68 1.252 . S
O72 In65 2.326 . S
O72 C68 1.260 . S
O73 In65 2.266 . S
O73 C70 1.252 . S
O74 In65 2.326 . S
O74 C70 1.260 . S
C75 O66 1.240 . S
C75 O67 1.252 . S
O76 In65 2.294 . S
O76 C69 1.240 . S
O77 In65 2.326 . S
O77 C69 1.252 . S
In78 O79 2.294 . S
In78 O80 2.326 . S
In78 O84 2.266 . S
In78 O85 2.326 . S
In78 O86 2.266 . S
In78 O87 2.326 . S
In78 O89 2.294 . S
In78 O90 2.326 . S
O79 In78 2.294 . S
O79 C88 1.240 . S
O80 In78 2.326 . S
O80 C88 1.252 . S
C81 O84 1.252 . S
C81 O85 1.260 . S
C82 O89 1.240 . S
C82 O90 1.252 . S
C83 O86 1.252 . S
C83 O87 1.260 . S
O84 In78 2.266 . S
O84 C81 1.252 . S
O85 In78 2.326 . S
O85 C81 1.260 . S
O86 In78 2.266 . S
O86 C83 1.252 . S
O87 In78 2.326 . S
O87 C83 1.260 . S
C88 O79 1.240 . S
C88 O80 1.252 . S
O89 In78 2.294 . S
O89 C82 1.240 . S
O90 In78 2.326 . S
O90 C82 1.252 . S
In91 O92 2.294 . S
In91 O93 2.326 . S
In91 O97 2.266 . S
In91 O98 2.326 . S
In91 O99 2.266 . S
In91 O100 2.326 . S
In91 O102 2.294 . S
In91 O103 2.326 . S
O92 In91 2.294 . S
O92 C101 1.240 . S
O93 In91 2.326 . S
O93 C101 1.252 . S
C94 O97 1.252 . S
C94 O98 1.260 . S
C95 O102 1.240 . S
C95 O103 1.252 . S
C96 O99 1.252 . S
C96 O100 1.260 . S
O97 In91 2.266 . S
O97 C94 1.252 . S
O98 In91 2.326 . S
O98 C94 1.260 . S
O99 In91 2.266 . S
O99 C96 1.252 . S
O100 In91 2.326 . S
O100 C96 1.260 . S
C101 O92 1.240 . S
C101 O93 1.252 . S
O102 In91 2.294 . S
O102 C95 1.240 . S
O103 In91 2.326 . S
O103 C95 1.252 . S
In104 O105 2.294 . S
In104 O106 2.326 . S
In104 O110 2.266 . S
In104 O111 2.326 . S
In104 O112 2.266 . S
In104 O113 2.326 . S
In104 O115 2.294 . S
In104 O116 2.326 . S
O105 In104 2.294 . S
O105 C114 1.240 . S
O106 In104 2.326 . S
O106 C114 1.252 . S
C107 O110 1.252 . S
C107 O111 1.260 . S
C108 O115 1.240 . S
C108 O116 1.252 . S
C109 O112 1.252 . S
C109 O113 1.260 . S
O110 In104 2.266 . S
O110 C107 1.252 . S
O111 In104 2.326 . S
O111 C107 1.260 . S
O112 In104 2.266 . S
O112 C109 1.252 . S
O113 In104 2.326 . S
O113 C109 1.260 . S
C114 O105 1.240 . S
C114 O106 1.252 . S
O115 In104 2.294 . S
O115 C108 1.240 . S
O116 In104 2.326 . S
O116 C108 1.252 . S
In117 O118 2.294 . S
In117 O119 2.326 . S
In117 O123 2.266 . S
In117 O124 2.326 . S
In117 O125 2.266 . S
In117 O126 2.326 . S
In117 O128 2.294 . S
In117 O129 2.326 . S
O118 In117 2.294 . S
O118 C127 1.240 . S
O119 In117 2.326 . S
O119 C127 1.252 . S
C120 O123 1.252 . S
C120 O124 1.260 . S
C121 O128 1.240 . S
C121 O129 1.252 . S
C122 O125 1.252 . S
C122 O126 1.260 . S
O123 In117 2.266 . S
O123 C120 1.252 . S
O124 In117 2.326 . S
O124 C120 1.260 . S
O125 In117 2.266 . S
O125 C122 1.252 . S
O126 In117 2.326 . S
O126 C122 1.260 . S
C127 O118 1.240 . S
C127 O119 1.252 . S
O128 In117 2.294 . S
O128 C121 1.240 . S
O129 In117 2.326 . S
O129 C121 1.252 . S
In130 O131 2.294 . S
In130 O132 2.326 . S
In130 O136 2.266 . S
In130 O137 2.326 . S
In130 O138 2.266 . S
In130 O139 2.326 . S
In130 O141 2.294 . S
In130 O142 2.326 . S
O131 In130 2.294 . S
O131 C140 1.240 . S
O132 In130 2.326 . S
O132 C140 1.252 . S
C133 O136 1.252 . S
C133 O137 1.260 . S
C134 O141 1.240 . S
C134 O142 1.252 . S
C135 O138 1.252 . S
C135 O139 1.260 . S
O136 In130 2.266 . S
O136 C133 1.252 . S
O137 In130 2.326 . S
O137 C133 1.260 . S
O138 In130 2.266 . S
O138 C135 1.252 . S
O139 In130 2.326 . S
O139 C135 1.260 . S
C140 O131 1.240 . S
C140 O132 1.252 . S
O141 In130 2.294 . S
O141 C134 1.240 . S
O142 In130 2.326 . S
O142 C134 1.252 . S
In143 O144 2.294 . S
In143 O145 2.326 . S
In143 O149 2.266 . S
In143 O150 2.326 . S
In143 O151 2.266 . S
In143 O152 2.326 . S
In143 O154 2.294 . S
In143 O155 2.326 . S
O144 In143 2.294 . S
O144 C153 1.240 . S
O145 In143 2.326 . S
O145 C153 1.252 . S
C146 O149 1.252 . S
C146 O150 1.260 . S
C147 O154 1.240 . S
C147 O155 1.252 . S
C148 O151 1.252 . S
C148 O152 1.260 . S
O149 In143 2.266 . S
O149 C146 1.252 . S
O150 In143 2.326 . S
O150 C146 1.260 . S
O151 In143 2.266 . S
O151 C148 1.252 . S
O152 In143 2.326 . S
O152 C148 1.260 . S
C153 O144 1.240 . S
C153 O145 1.252 . S
O154 In143 2.294 . S
O154 C147 1.240 . S
O155 In143 2.326 . S
O155 C147 1.252 . S
In156 O157 2.294 . S
In156 O158 2.326 . S
In156 O162 2.266 . S
In156 O163 2.326 . S
In156 O164 2.266 . S
In156 O165 2.326 . S
In156 O167 2.294 . S
In156 O168 2.326 . S
O157 In156 2.294 . S
O157 C166 1.240 . S
O158 In156 2.326 . S
O158 C166 1.252 . S
C159 O162 1.252 . S
C159 O163 1.260 . S
C160 O167 1.240 . S
C160 O168 1.252 . S
C161 O164 1.252 . S
C161 O165 1.260 . S
O162 In156 2.266 . S
O162 C159 1.252 . S
O163 In156 2.326 . S
O163 C159 1.260 . S
O164 In156 2.266 . S
O164 C161 1.252 . S
O165 In156 2.326 . S
O165 C161 1.260 . S
C166 O157 1.240 . S
C166 O158 1.252 . S
O167 In156 2.294 . S
O167 C160 1.240 . S
O168 In156 2.326 . S
O168 C160 1.252 . S
In169 O170 2.294 . S
In169 O171 2.326 . S
In169 O175 2.266 . S
In169 O176 2.326 . S
In169 O177 2.266 . S
In169 O178 2.326 . S
In169 O180 2.294 . S
In169 O181 2.326 . S
O170 In169 2.294 . S
O170 C179 1.240 . S
O171 In169 2.326 . S
O171 C179 1.252 . S
C172 O175 1.252 . S
C172 O176 1.260 . S
C173 O180 1.240 . S
C173 O181 1.252 . S
C174 O177 1.252 . S
C174 O178 1.260 . S
O175 In169 2.266 . S
O175 C172 1.252 . S
O176 In169 2.326 . S
O176 C172 1.260 . S
O177 In169 2.266 . S
O177 C174 1.252 . S
O178 In169 2.326 . S
O178 C174 1.260 . S
C179 O170 1.240 . S
C179 O171 1.252 . S
O180 In169 2.294 . S
O180 C173 1.240 . S
O181 In169 2.326 . S
O181 C173 1.252 . S
In182 O183 2.294 . S
In182 O184 2.326 . S
In182 O188 2.266 . S
In182 O189 2.326 . S
In182 O190 2.266 . S
In182 O191 2.326 . S
In182 O193 2.294 . S
In182 O194 2.326 . S
O183 In182 2.294 . S
O183 C192 1.240 . S
O184 In182 2.326 . S
O184 C192 1.252 . S
C185 O188 1.252 . S
C185 O189 1.260 . S
C186 O193 1.240 . S
C186 O194 1.252 . S
C187 O190 1.252 . S
C187 O191 1.260 . S
O188 In182 2.266 . S
O188 C185 1.252 . S
O189 In182 2.326 . S
O189 C185 1.260 . S
O190 In182 2.266 . S
O190 C187 1.252 . S
O191 In182 2.326 . S
O191 C187 1.260 . S
C192 O183 1.240 . S
C192 O184 1.252 . S
O193 In182 2.294 . S
O193 C186 1.240 . S
O194 In182 2.326 . S
O194 C186 1.252 . S
In195 O196 2.294 . S
In195 O197 2.326 . S
In195 O201 2.266 . S
In195 O202 2.326 . S
In195 O203 2.266 . S
In195 O204 2.326 . S
In195 O206 2.294 . S
In195 O207 2.326 . S
O196 In195 2.294 . S
O196 C205 1.240 . S
O197 In195 2.326 . S
O197 C205 1.252 . S
C198 O201 1.252 . S
C198 O202 1.260 . S
C199 O206 1.240 . S
C199 O207 1.252 . S
C200 O203 1.252 . S
C200 O204 1.260 . S
O201 In195 2.266 . S
O201 C198 1.252 . S
O202 In195 2.326 . S
O202 C198 1.260 . S
O203 In195 2.266 . S
O203 C200 1.252 . S
O204 In195 2.326 . S
O204 C200 1.260 . S
C205 O196 1.240 . S
C205 O197 1.252 . S
O206 In195 2.294 . S
O206 C199 1.240 . S
O207 In195 2.326 . S
O207 C199 1.252 . S
In208 O209 2.294 . S
In208 O210 2.326 . S
In208 O214 2.266 . S
In208 O215 2.326 . S
In208 O216 2.266 . S
In208 O217 2.326 . S
In208 O219 2.294 . S
In208 O220 2.326 . S
O209 In208 2.294 . S
O209 C218 1.240 . S
O210 In208 2.326 . S
O210 C218 1.252 . S
C211 O214 1.252 . S
C211 O215 1.260 . S
C212 O219 1.240 . S
C212 O220 1.252 . S
C213 O216 1.252 . S
C213 O217 1.260 . S
O214 In208 2.266 . S
O214 C211 1.252 . S
O215 In208 2.326 . S
O215 C211 1.260 . S
O216 In208 2.266 . S
O216 C213 1.252 . S
O217 In208 2.326 . S
O217 C213 1.260 . S
C218 O209 1.240 . S
C218 O210 1.252 . S
O219 In208 2.294 . S
O219 C212 1.240 . S
O220 In208 2.326 . S
O220 C212 1.252 . S
In221 O222 2.294 . S
In221 O223 2.326 . S
In221 O227 2.266 . S
In221 O228 2.326 . S
In221 O229 2.266 . S
In221 O230 2.326 . S
In221 O232 2.294 . S
In221 O233 2.326 . S
O222 In221 2.294 . S
O222 C231 1.240 . S
O223 In221 2.326 . S
O223 C231 1.252 . S
C224 O227 1.252 . S
C224 O228 1.260 . S
C225 O232 1.240 . S
C225 O233 1.252 . S
C226 O229 1.252 . S
C226 O230 1.260 . S
O227 In221 2.266 . S
O227 C224 1.252 . S
O228 In221 2.326 . S
O228 C224 1.260 . S
O229 In221 2.266 . S
O229 C226 1.252 . S
O230 In221 2.326 . S
O230 C226 1.260 . S
C231 O222 1.240 . S
C231 O223 1.252 . S
O232 In221 2.294 . S
O232 C225 1.240 . S
O233 In221 2.326 . S
O233 C225 1.252 . S
In234 O235 2.294 . S
In234 O236 2.326 . S
In234 O240 2.266 . S
In234 O241 2.326 . S
In234 O242 2.266 . S
In234 O243 2.326 . S
In234 O245 2.294 . S
In234 O246 2.326 . S
O235 In234 2.294 . S
O235 C244 1.240 . S
O236 In234 2.326 . S
O236 C244 1.252 . S
C237 O240 1.252 . S
C237 O241 1.260 . S
C238 O245 1.240 . S
C238 O246 1.252 . S
C239 O242 1.252 . S
C239 O243 1.260 . S
O240 In234 2.266 . S
O240 C237 1.252 . S
O241 In234 2.326 . S
O241 C237 1.260 . S
O242 In234 2.266 . S
O242 C239 1.252 . S
O243 In234 2.326 . S
O243 C239 1.260 . S
C244 O235 1.240 . S
C244 O236 1.252 . S
O245 In234 2.294 . S
O245 C238 1.240 . S
O246 In234 2.326 . S
O246 C238 1.252 . S
In247 O248 2.294 . S
In247 O249 2.326 . S
In247 O253 2.266 . S
In247 O254 2.326 . S
In247 O255 2.266 . S
In247 O256 2.326 . S
In247 O258 2.294 . S
In247 O259 2.326 . S
O248 In247 2.294 . S
O248 C257 1.240 . S
O249 In247 2.326 . S
O249 C257 1.252 . S
C250 O253 1.252 . S
C250 O254 1.260 . S
C251 O258 1.240 . S
C251 O259 1.252 . S
C252 O255 1.252 . S
C252 O256 1.260 . S
O253 In247 2.266 . S
O253 C250 1.252 . S
O254 In247 2.326 . S
O254 C250 1.260 . S
O255 In247 2.266 . S
O255 C252 1.252 . S
O256 In247 2.326 . S
O256 C252 1.260 . S
C257 O248 1.240 . S
C257 O249 1.252 . S
O258 In247 2.294 . S
O258 C251 1.240 . S
O259 In247 2.326 . S
O259 C251 1.252 . S
In260 O261 2.294 . S
In260 O262 2.326 . S
In260 O266 2.266 . S
In260 O267 2.326 . S
In260 O268 2.266 . S
In260 O269 2.326 . S
In260 O271 2.294 . S
In260 O272 2.326 . S
O261 In260 2.294 . S
O261 C270 1.240 . S
O262 In260 2.326 . S
O262 C270 1.252 . S
C263 O266 1.252 . S
C263 O267 1.260 . S
C264 O271 1.240 . S
C264 O272 1.252 . S
C265 O268 1.252 . S
C265 O269 1.260 . S
O266 In260 2.266 . S
O266 C263 1.252 . S
O267 In260 2.326 . S
O267 C263 1.260 . S
O268 In260 2.266 . S
O268 C265 1.252 . S
O269 In260 2.326 . S
O269 C265 1.260 . S
C270 O261 1.240 . S
C270 O262 1.252 . S
O271 In260 2.294 . S
O271 C264 1.240 . S
O272 In260 2.326 . S
O272 C264 1.252 . S
In273 O274 2.294 . S
In273 O275 2.326 . S
In273 O279 2.266 . S
In273 O280 2.326 . S
In273 O281 2.266 . S
In273 O282 2.326 . S
In273 O284 2.294 . S
In273 O285 2.326 . S
O274 In273 2.294 . S
O274 C283 1.240 . S
O275 In273 2.326 . S
O275 C283 1.252 . S
C276 O279 1.252 . S
C276 O280 1.260 . S
C277 O284 1.240 . S
C277 O285 1.252 . S
C278 O281 1.252 . S
C278 O282 1.260 . S
O279 In273 2.266 . S
O279 C276 1.252 . S
O280 In273 2.326 . S
O280 C276 1.260 . S
O281 In273 2.266 . S
O281 C278 1.252 . S
O282 In273 2.326 . S
O282 C278 1.260 . S
C283 O274 1.240 . S
C283 O275 1.252 . S
O284 In273 2.294 . S
O284 C277 1.240 . S
O285 In273 2.326 . S
O285 C277 1.252 . S
In286 O287 2.294 . S
In286 O288 2.326 . S
In286 O292 2.266 . S
In286 O293 2.326 . S
In286 O294 2.266 . S
In286 O295 2.326 . S
In286 O297 2.294 . S
In286 O298 2.326 . S
O287 In286 2.294 . S
O287 C296 1.240 . S
O288 In286 2.326 . S
O288 C296 1.252 . S
C289 O292 1.252 . S
C289 O293 1.260 . S
C290 O297 1.240 . S
C290 O298 1.252 . S
C291 O294 1.252 . S
C291 O295 1.260 . S
O292 In286 2.266 . S
O292 C289 1.252 . S
O293 In286 2.326 . S
O293 C289 1.260 . S
O294 In286 2.266 . S
O294 C291 1.252 . S
O295 In286 2.326 . S
O295 C291 1.260 . S
C296 O287 1.240 . S
C296 O288 1.252 . S
O297 In286 2.294 . S
O297 C290 1.240 . S
O298 In286 2.326 . S
O298 C290 1.252 . S
In299 O300 2.294 . S
In299 O301 2.326 . S
In299 O305 2.266 . S
In299 O306 2.326 . S
In299 O307 2.266 . S
In299 O308 2.326 . S
In299 O310 2.294 . S
In299 O311 2.326 . S
O300 In299 2.294 . S
O300 C309 1.240 . S
O301 In299 2.326 . S
O301 C309 1.252 . S
C302 O305 1.252 . S
C302 O306 1.260 . S
C303 O310 1.240 . S
C303 O311 1.252 . S
C304 O307 1.252 . S
C304 O308 1.260 . S
O305 In299 2.266 . S
O305 C302 1.252 . S
O306 In299 2.326 . S
O306 C302 1.260 . S
O307 In299 2.266 . S
O307 C304 1.252 . S
O308 In299 2.326 . S
O308 C304 1.260 . S
C309 O300 1.240 . S
C309 O301 1.252 . S
O310 In299 2.294 . S
O310 C303 1.240 . S
O311 In299 2.326 . S
O311 C303 1.252 . S
In312 O313 2.294 . S
In312 O314 2.326 . S
In312 O318 2.266 . S
In312 O319 2.326 . S
In312 O320 2.266 . S
In312 O321 2.326 . S
In312 O323 2.294 . S
In312 O324 2.326 . S
O313 In312 2.294 . S
O313 C322 1.240 . S
O314 In312 2.326 . S
O314 C322 1.252 . S
C315 O318 1.252 . S
C315 O319 1.260 . S
C316 O323 1.240 . S
C316 O324 1.252 . S
C317 O320 1.252 . S
C317 O321 1.260 . S
O318 In312 2.266 . S
O318 C315 1.252 . S
O319 In312 2.326 . S
O319 C315 1.260 . S
O320 In312 2.266 . S
O320 C317 1.252 . S
O321 In312 2.326 . S
O321 C317 1.260 . S
C322 O313 1.240 . S
C322 O314 1.252 . S
O323 In312 2.294 . S
O323 C316 1.240 . S
O324 In312 2.326 . S
O324 C316 1.252 . S
In325 O326 2.294 . S
In325 O327 2.326 . S
In325 O331 2.266 . S
In325 O332 2.326 . S
In325 O333 2.266 . S
In325 O334 2.326 . S
In325 O336 2.294 . S
In325 O337 2.326 . S
O326 In325 2.294 . S
O326 C335 1.240 . S
O327 In325 2.326 . S
O327 C335 1.252 . S
C328 O331 1.252 . S
C328 O332 1.260 . S
C329 O336 1.240 . S
C329 O337 1.252 . S
C330 O333 1.252 . S
C330 O334 1.260 . S
O331 In325 2.266 . S
O331 C328 1.252 . S
O332 In325 2.326 . S
O332 C328 1.260 . S
O333 In325 2.266 . S
O333 C330 1.252 . S
O334 In325 2.326 . S
O334 C330 1.260 . S
C335 O326 1.240 . S
C335 O327 1.252 . S
O336 In325 2.294 . S
O336 C329 1.240 . S
O337 In325 2.326 . S
O337 C329 1.252 . S
In338 O339 2.294 . S
In338 O340 2.326 . S
In338 O344 2.266 . S
In338 O345 2.326 . S
In338 O346 2.266 . S
In338 O347 2.326 . S
In338 O349 2.294 . S
In338 O350 2.326 . S
O339 In338 2.294 . S
O339 C348 1.240 . S
O340 In338 2.326 . S
O340 C348 1.252 . S
C341 O344 1.252 . S
C341 O345 1.260 . S
C342 O349 1.240 . S
C342 O350 1.252 . S
C343 O346 1.252 . S
C343 O347 1.260 . S
O344 In338 2.266 . S
O344 C341 1.252 . S
O345 In338 2.326 . S
O345 C341 1.260 . S
O346 In338 2.266 . S
O346 C343 1.252 . S
O347 In338 2.326 . S
O347 C343 1.260 . S
C348 O339 1.240 . S
C348 O340 1.252 . S
O349 In338 2.294 . S
O349 C342 1.240 . S
O350 In338 2.326 . S
O350 C342 1.252 . S
In351 O352 2.294 . S
In351 O353 2.326 . S
In351 O357 2.266 . S
In351 O358 2.326 . S
In351 O359 2.266 . S
In351 O360 2.326 . S
In351 O362 2.294 . S
In351 O363 2.326 . S
O352 In351 2.294 . S
O352 C361 1.240 . S
O353 In351 2.326 . S
O353 C361 1.252 . S
C354 O357 1.252 . S
C354 O358 1.260 . S
C355 O362 1.240 . S
C355 O363 1.252 . S
C356 O359 1.252 . S
C356 O360 1.260 . S
O357 In351 2.266 . S
O357 C354 1.252 . S
O358 In351 2.326 . S
O358 C354 1.260 . S
O359 In351 2.266 . S
O359 C356 1.252 . S
O360 In351 2.326 . S
O360 C356 1.260 . S
C361 O352 1.240 . S
C361 O353 1.252 . S
O362 In351 2.294 . S
O362 C355 1.240 . S
O363 In351 2.326 . S
O363 C355 1.252 . S
In364 O365 2.294 . S
In364 O366 2.326 . S
In364 O370 2.266 . S
In364 O371 2.326 . S
In364 O372 2.266 . S
In364 O373 2.326 . S
In364 O375 2.294 . S
In364 O376 2.326 . S
O365 In364 2.294 . S
O365 C374 1.240 . S
O366 In364 2.326 . S
O366 C374 1.252 . S
C367 O370 1.252 . S
C367 O371 1.260 . S
C368 O375 1.240 . S
C368 O376 1.252 . S
C369 O372 1.252 . S
C369 O373 1.260 . S
O370 In364 2.266 . S
O370 C367 1.252 . S
O371 In364 2.326 . S
O371 C367 1.260 . S
O372 In364 2.266 . S
O372 C369 1.252 . S
O373 In364 2.326 . S
O373 C369 1.260 . S
C374 O365 1.240 . S
C374 O366 1.252 . S
O375 In364 2.294 . S
O375 C368 1.240 . S
O376 In364 2.326 . S
O376 C368 1.252 . S
In377 O378 2.294 . S
In377 O379 2.326 . S
In377 O383 2.266 . S
In377 O384 2.326 . S
In377 O385 2.266 . S
In377 O386 2.326 . S
In377 O388 2.294 . S
In377 O389 2.326 . S
O378 In377 2.294 . S
O378 C387 1.240 . S
O379 In377 2.326 . S
O379 C387 1.252 . S
C380 O383 1.252 . S
C380 O384 1.260 . S
C381 O388 1.240 . S
C381 O389 1.252 . S
C382 O385 1.252 . S
C382 O386 1.260 . S
O383 In377 2.266 . S
O383 C380 1.252 . S
O384 In377 2.326 . S
O384 C380 1.260 . S
O385 In377 2.266 . S
O385 C382 1.252 . S
O386 In377 2.326 . S
O386 C382 1.260 . S
C387 O378 1.240 . S
C387 O379 1.252 . S
O388 In377 2.294 . S
O388 C381 1.240 . S
O389 In377 2.326 . S
O389 C381 1.252 . S
In390 O391 2.294 . S
In390 O392 2.326 . S
In390 O396 2.266 . S
In390 O397 2.326 . S
In390 O398 2.266 . S
In390 O399 2.326 . S
In390 O401 2.294 . S
In390 O402 2.326 . S
O391 In390 2.294 . S
O391 C400 1.240 . S
O392 In390 2.326 . S
O392 C400 1.252 . S
C393 O396 1.252 . S
C393 O397 1.260 . S
C394 O401 1.240 . S
C394 O402 1.252 . S
C395 O398 1.252 . S
C395 O399 1.260 . S
O396 In390 2.266 . S
O396 C393 1.252 . S
O397 In390 2.326 . S
O397 C393 1.260 . S
O398 In390 2.266 . S
O398 C395 1.252 . S
O399 In390 2.326 . S
O399 C395 1.260 . S
C400 O391 1.240 . S
C400 O392 1.252 . S
O401 In390 2.294 . S
O401 C394 1.240 . S
O402 In390 2.326 . S
O402 C394 1.252 . S
In403 O404 2.294 . S
In403 O405 2.326 . S
In403 O409 2.266 . S
In403 O410 2.326 . S
In403 O411 2.266 . S
In403 O412 2.326 . S
In403 O414 2.294 . S
In403 O415 2.326 . S
O404 In403 2.294 . S
O404 C413 1.240 . S
O405 In403 2.326 . S
O405 C413 1.252 . S
C406 O409 1.252 . S
C406 O410 1.260 . S
C407 O414 1.240 . S
C407 O415 1.252 . S
C408 O411 1.252 . S
C408 O412 1.260 . S
O409 In403 2.266 . S
O409 C406 1.252 . S
O410 In403 2.326 . S
O410 C406 1.260 . S
O411 In403 2.266 . S
O411 C408 1.252 . S
O412 In403 2.326 . S
O412 C408 1.260 . S
C413 O404 1.240 . S
C413 O405 1.252 . S
O414 In403 2.294 . S
O414 C407 1.240 . S
O415 In403 2.326 . S
O415 C407 1.252 . S
H416 C422 0.930 . S
H417 C426 0.930 . S
H418 C431 0.929 . S
H419 C429 0.929 . S
H420 C424 0.929 . S
H421 C430 0.929 . S
C422 H416 0.930 . S
C422 C423 1.367 . S
C422 C430 1.378 . S
C423 C422 1.367 . S
C423 C431 1.433 . S
C424 H420 0.929 . S
C424 C426 1.378 . S
C424 C428 1.350 . S
C425 C428 1.463 . S
C425 C430 1.350 . S
C425 N433 1.427 . S
C426 H417 0.930 . S
C426 C424 1.378 . S
C426 C427 1.367 . S
C427 C426 1.367 . S
C427 C429 1.433 . S
C428 C424 1.350 . S
C428 C425 1.463 . S
C428 N432 1.427 . S
C429 H419 0.929 . S
C429 C427 1.433 . S
C429 N432 1.384 . S
C430 H421 0.929 . S
C430 C422 1.378 . S
C430 C425 1.350 . S
C431 H418 0.929 . S
C431 C423 1.433 . S
C431 N433 1.384 . S
N432 C428 1.427 . S
N432 C429 1.384 . S
N433 C425 1.427 . S
N433 C431 1.384 . S
H434 C440 0.930 . S
H435 C444 0.930 . S
H436 C449 0.929 . S
H437 C447 0.929 . S
H438 C442 0.929 . S
H439 C448 0.929 . S
C440 H434 0.930 . S
C440 C441 1.367 . S
C440 C448 1.378 . S
C441 C440 1.367 . S
C441 C449 1.433 . S
C442 H438 0.929 . S
C442 C444 1.378 . S
C442 C446 1.350 . S
C443 C446 1.463 1_565 S
C443 C448 1.350 . S
C443 N451 1.427 . S
C444 H435 0.930 . S
C444 C442 1.378 . S
C444 C445 1.367 . S
C445 C444 1.367 . S
C445 C447 1.433 . S
C446 C442 1.350 . S
C446 C443 1.463 1_545 S
C446 N450 1.427 . S
C447 H437 0.929 . S
C447 C445 1.433 . S
C447 N450 1.384 . S
C448 H439 0.929 . S
C448 C440 1.378 . S
C448 C443 1.350 . S
C449 H436 0.929 . S
C449 C441 1.433 . S
C449 N451 1.384 . S
N450 C446 1.427 . S
N450 C447 1.384 . S
N451 C443 1.427 . S
N451 C449 1.384 . S
H452 C458 0.930 . S
H453 C462 0.930 . S
H454 C467 0.929 . S
H455 C465 0.929 . S
H456 C460 0.929 . S
H457 C466 0.929 . S
C458 H452 0.930 . S
C458 C459 1.367 . S
C458 C466 1.378 . S
C459 C458 1.367 . S
C459 C467 1.433 . S
C460 H456 0.929 . S
C460 C462 1.378 . S
C460 C464 1.350 . S
C461 C464 1.463 . S
C461 C466 1.350 . S
C461 N469 1.427 . S
C462 H453 0.930 . S
C462 C460 1.378 . S
C462 C463 1.367 . S
C463 C462 1.367 . S
C463 C465 1.433 . S
C464 C460 1.350 . S
C464 C461 1.463 . S
C464 N468 1.427 . S
C465 H455 0.929 . S
C465 C463 1.433 . S
C465 N468 1.384 . S
C466 H457 0.929 . S
C466 C458 1.378 . S
C466 C461 1.350 . S
C467 H454 0.929 . S
C467 C459 1.433 . S
C467 N469 1.384 . S
N468 C464 1.427 . S
N468 C465 1.384 . S
N469 C461 1.427 . S
N469 C467 1.384 . S
H470 C476 0.930 1_554 S
H471 C480 0.930 1_556 S
H472 C485 0.929 . S
H473 C483 0.929 . S
H474 C478 0.929 . S
H475 C484 0.929 . S
C476 H470 0.930 1_556 S
C476 C477 1.367 . S
C476 C484 1.378 1_556 S
C477 C476 1.367 . S
C477 C485 1.433 . S
C478 H474 0.929 . S
C478 C480 1.378 1_556 S
C478 C482 1.350 1_556 S
C479 C482 1.463 1_546 S
C479 C484 1.350 1_556 S
C479 N487 1.427 . S
C480 H471 0.930 1_554 S
C480 C478 1.378 1_554 S
C480 C481 1.367 . S
C481 C480 1.367 . S
C481 C483 1.433 . S
C482 C478 1.350 1_554 S
C482 C479 1.463 1_564 S
C482 N486 1.427 . S
C483 H473 0.929 . S
C483 C481 1.433 . S
C483 N486 1.384 . S
C484 H475 0.929 . S
C484 C476 1.378 1_554 S
C484 C479 1.350 1_554 S
C485 H472 0.929 . S
C485 C477 1.433 . S
C485 N487 1.384 . S
N486 C482 1.427 . S
N486 C483 1.384 . S
N487 C479 1.427 . S
N487 C485 1.384 . S
H488 C494 0.930 . S
H489 C498 0.930 . S
H490 C503 0.929 . S
H491 C501 0.929 . S
H492 C496 0.929 . S
H493 C502 0.929 . S
C494 H488 0.930 . S
C494 C495 1.367 . S
C494 C502 1.378 . S
C495 C494 1.367 . S
C495 C503 1.433 . S
C496 H492 0.929 . S
C496 C498 1.378 . S
C496 C500 1.350 . S
C497 C500 1.463 . S
C497 C502 1.350 . S
C497 N505 1.427 . S
C498 H489 0.930 . S
C498 C496 1.378 . S
C498 C499 1.367 . S
C499 C498 1.367 . S
C499 C501 1.433 . S
C500 C496 1.350 . S
C500 C497 1.463 . S
C500 N504 1.427 . S
C501 H491 0.929 . S
C501 C499 1.433 . S
C501 N504 1.384 . S
C502 H493 0.929 . S
C502 C494 1.378 . S
C502 C497 1.350 . S
C503 H490 0.929 . S
C503 C495 1.433 . S
C503 N505 1.384 . S
N504 C500 1.427 . S
N504 C501 1.384 . S
N505 C497 1.427 . S
N505 C503 1.384 . S
H506 C512 0.930 . S
H507 C516 0.930 . S
H508 C521 0.929 . S
H509 C519 0.929 . S
H510 C514 0.929 . S
H511 C520 0.929 . S
C512 H506 0.930 . S
C512 C513 1.367 . S
C512 C520 1.378 . S
C513 C512 1.367 . S
C513 C521 1.433 . S
C514 H510 0.929 . S
C514 C516 1.378 . S
C514 C518 1.350 . S
C515 C518 1.463 1_565 S
C515 C520 1.350 . S
C515 N523 1.427 . S
C516 H507 0.930 . S
C516 C514 1.378 . S
C516 C517 1.367 . S
C517 C516 1.367 . S
C517 C519 1.433 . S
C518 C514 1.350 . S
C518 C515 1.463 1_545 S
C518 N522 1.427 . S
C519 H509 0.929 . S
C519 C517 1.433 . S
C519 N522 1.384 . S
C520 H511 0.929 . S
C520 C512 1.378 . S
C520 C515 1.350 . S
C521 H508 0.929 . S
C521 C513 1.433 . S
C521 N523 1.384 . S
N522 C518 1.427 . S
N522 C519 1.384 . S
N523 C515 1.427 . S
N523 C521 1.384 . S
H524 C530 0.930 . S
H525 C534 0.930 . S
H526 C539 0.929 . S
H527 C537 0.929 . S
H528 C532 0.929 . S
H529 C538 0.929 . S
C530 H524 0.930 . S
C530 C531 1.367 . S
C530 C538 1.378 . S
C531 C530 1.367 . S
C531 C539 1.433 . S
C532 H528 0.929 . S
C532 C534 1.378 . S
C532 C536 1.350 . S
C533 C536 1.463 . S
C533 C538 1.350 . S
C533 N541 1.427 . S
C534 H525 0.930 . S
C534 C532 1.378 . S
C534 C535 1.367 . S
C535 C534 1.367 . S
C535 C537 1.433 . S
C536 C532 1.350 . S
C536 C533 1.463 . S
C536 N540 1.427 . S
C537 H527 0.929 . S
C537 C535 1.433 . S
C537 N540 1.384 . S
C538 H529 0.929 . S
C538 C530 1.378 . S
C538 C533 1.350 . S
C539 H526 0.929 . S
C539 C531 1.433 . S
C539 N541 1.384 . S
N540 C536 1.427 . S
N540 C537 1.384 . S
N541 C533 1.427 . S
N541 C539 1.384 . S
H542 C548 0.930 1_554 S
H543 C552 0.930 1_556 S
H544 C557 0.929 . S
H545 C555 0.929 . S
H546 C550 0.929 . S
H547 C556 0.929 . S
C548 H542 0.930 1_556 S
C548 C549 1.367 . S
C548 C556 1.378 1_556 S
C549 C548 1.367 . S
C549 C557 1.433 . S
C550 H546 0.929 . S
C550 C552 1.378 1_556 S
C550 C554 1.350 1_556 S
C551 C554 1.463 1_546 S
C551 C556 1.350 1_556 S
C551 N559 1.427 . S
C552 H543 0.930 1_554 S
C552 C550 1.378 1_554 S
C552 C553 1.367 . S
C553 C552 1.367 . S
C553 C555 1.433 . S
C554 C550 1.350 1_554 S
C554 C551 1.463 1_564 S
C554 N558 1.427 . S
C555 H545 0.929 . S
C555 C553 1.433 . S
C555 N558 1.384 . S
C556 H547 0.929 . S
C556 C548 1.378 1_554 S
C556 C551 1.350 1_554 S
C557 H544 0.929 . S
C557 C549 1.433 . S
C557 N559 1.384 . S
N558 C554 1.427 . S
N558 C555 1.384 . S
N559 C551 1.427 . S
N559 C557 1.384 . S
H560 C566 0.930 . S
H561 C570 0.930 . S
H562 C575 0.929 . S
H563 C573 0.929 . S
H564 C568 0.929 . S
H565 C574 0.929 . S
C566 H560 0.930 . S
C566 C567 1.367 . S
C566 C574 1.378 . S
C567 C566 1.367 . S
C567 C575 1.433 . S
C568 H564 0.929 . S
C568 C570 1.378 . S
C568 C572 1.350 . S
C569 C572 1.463 . S
C569 C574 1.350 . S
C569 N577 1.427 . S
C570 H561 0.930 . S
C570 C568 1.378 . S
C570 C571 1.367 . S
C571 C570 1.367 . S
C571 C573 1.433 . S
C572 C568 1.350 . S
C572 C569 1.463 . S
C572 N576 1.427 . S
C573 H563 0.929 . S
C573 C571 1.433 . S
C573 N576 1.384 . S
C574 H565 0.929 . S
C574 C566 1.378 . S
C574 C569 1.350 . S
C575 H562 0.929 . S
C575 C567 1.433 . S
C575 N577 1.384 . S
N576 C572 1.427 . S
N576 C573 1.384 . S
N577 C569 1.427 . S
N577 C575 1.384 . S
H578 C584 0.930 . S
H579 C588 0.930 . S
H580 C593 0.929 . S
H581 C591 0.929 . S
H582 C586 0.929 1_556 S
H583 C592 0.929 1_554 S
C584 H578 0.930 . S
C584 C585 1.367 . S
C584 C592 1.378 . S
C585 C584 1.367 . S
C585 C593 1.433 . S
C586 H582 0.929 1_554 S
C586 C588 1.378 . S
C586 C590 1.350 . S
C587 C590 1.463 1_556 S
C587 C592 1.350 . S
C587 N595 1.427 . S
C588 H579 0.930 . S
C588 C586 1.378 . S
C588 C589 1.367 . S
C589 C588 1.367 . S
C589 C591 1.433 . S
C590 C586 1.350 . S
C590 C587 1.463 1_554 S
C590 N594 1.427 . S
C591 H581 0.929 . S
C591 C589 1.433 . S
C591 N594 1.384 . S
C592 H583 0.929 1_556 S
C592 C584 1.378 . S
C592 C587 1.350 . S
C593 H580 0.929 . S
C593 C585 1.433 . S
C593 N595 1.384 . S
N594 C590 1.427 . S
N594 C591 1.384 . S
N595 C587 1.427 . S
N595 C593 1.384 . S
H596 C602 0.930 . S
H597 C606 0.930 . S
H598 C611 0.929 . S
H599 C609 0.929 . S
H600 C604 0.929 . S
H601 C610 0.929 . S
C602 H596 0.930 . S
C602 C603 1.367 . S
C602 C610 1.378 . S
C603 C602 1.367 . S
C603 C611 1.433 . S
C604 H600 0.929 . S
C604 C606 1.378 . S
C604 C608 1.350 . S
C605 C608 1.463 . S
C605 C610 1.350 . S
C605 N613 1.427 . S
C606 H597 0.930 . S
C606 C604 1.378 . S
C606 C607 1.367 . S
C607 C606 1.367 . S
C607 C609 1.433 . S
C608 C604 1.350 . S
C608 C605 1.463 . S
C608 N612 1.427 . S
C609 H599 0.929 . S
C609 C607 1.433 . S
C609 N612 1.384 . S
C610 H601 0.929 . S
C610 C602 1.378 . S
C610 C605 1.350 . S
C611 H598 0.929 . S
C611 C603 1.433 . S
C611 N613 1.384 . S
N612 C608 1.427 . S
N612 C609 1.384 . S
N613 C605 1.427 . S
N613 C611 1.384 . S
H614 C620 0.930 . S
H615 C624 0.930 . S
H616 C629 0.929 . S
H617 C627 0.929 . S
H618 C622 0.929 . S
H619 C628 0.929 . S
C620 H614 0.930 . S
C620 C621 1.367 . S
C620 C628 1.378 . S
C621 C620 1.367 . S
C621 C629 1.433 . S
C622 H618 0.929 . S
C622 C624 1.378 . S
C622 C626 1.350 . S
C623 C626 1.463 . S
C623 C628 1.350 . S
C623 N631 1.427 . S
C624 H615 0.930 . S
C624 C622 1.378 . S
C624 C625 1.367 . S
C625 C624 1.367 . S
C625 C627 1.433 . S
C626 C622 1.350 . S
C626 C623 1.463 . S
C626 N630 1.427 . S
C627 H617 0.929 . S
C627 C625 1.433 . S
C627 N630 1.384 . S
C628 H619 0.929 . S
C628 C620 1.378 . S
C628 C623 1.350 . S
C629 H616 0.929 . S
C629 C621 1.433 . S
C629 N631 1.384 . S
N630 C626 1.427 . S
N630 C627 1.384 . S
N631 C623 1.427 . S
N631 C629 1.384 . S
H632 C638 0.930 . S
H633 C642 0.930 . S
H634 C647 0.929 . S
H635 C645 0.929 . S
H636 C640 0.929 . S
H637 C646 0.929 . S
C638 H632 0.930 . S
C638 C639 1.367 . S
C638 C646 1.378 . S
C639 C638 1.367 . S
C639 C647 1.433 . S
C640 H636 0.929 . S
C640 C642 1.378 . S
C640 C644 1.350 . S
C641 C644 1.463 . S
C641 C646 1.350 . S
C641 N649 1.427 . S
C642 H633 0.930 . S
C642 C640 1.378 . S
C642 C643 1.367 . S
C643 C642 1.367 . S
C643 C645 1.433 . S
C644 C640 1.350 . S
C644 C641 1.463 . S
C644 N648 1.427 . S
C645 H635 0.929 . S
C645 C643 1.433 . S
C645 N648 1.384 . S
C646 H637 0.929 . S
C646 C638 1.378 . S
C646 C641 1.350 . S
C647 H634 0.929 . S
C647 C639 1.433 . S
C647 N649 1.384 . S
N648 C644 1.427 . S
N648 C645 1.384 . S
N649 C641 1.427 . S
N649 C647 1.384 . S
H650 C656 0.930 . S
H651 C660 0.930 . S
H652 C665 0.929 . S
H653 C663 0.929 . S
H654 C658 0.929 . S
H655 C664 0.929 . S
C656 H650 0.930 . S
C656 C657 1.367 1_556 S
C656 C664 1.378 . S
C657 C656 1.367 1_554 S
C657 C665 1.433 . S
C658 H654 0.929 . S
C658 C660 1.378 . S
C658 C662 1.350 1_554 S
C659 C662 1.463 1_554 S
C659 C664 1.350 1_554 S
C659 N667 1.427 . S
C660 H651 0.930 . S
C660 C658 1.378 . S
C660 C661 1.367 1_554 S
C661 C660 1.367 1_556 S
C661 C663 1.433 . S
C662 C658 1.350 1_556 S
C662 C659 1.463 1_556 S
C662 N666 1.427 . S
C663 H653 0.929 . S
C663 C661 1.433 . S
C663 N666 1.384 . S
C664 H655 0.929 . S
C664 C656 1.378 . S
C664 C659 1.350 1_556 S
C665 H652 0.929 . S
C665 C657 1.433 . S
C665 N667 1.384 . S
N666 C662 1.427 . S
N666 C663 1.384 . S
N667 C659 1.427 . S
N667 C665 1.384 . S
H668 C674 0.930 . S
H669 C678 0.930 . S
H670 C683 0.929 . S
H671 C681 0.929 . S
H672 C676 0.929 . S
H673 C682 0.929 . S
C674 H668 0.930 . S
C674 C675 1.367 . S
C674 C682 1.378 . S
C675 C674 1.367 . S
C675 C683 1.433 . S
C676 H672 0.929 . S
C676 C678 1.378 . S
C676 C680 1.350 . S
C677 C680 1.463 . S
C677 C682 1.350 . S
C677 N685 1.427 . S
C678 H669 0.930 . S
C678 C676 1.378 . S
C678 C679 1.367 . S
C679 C678 1.367 . S
C679 C681 1.433 . S
C680 C676 1.350 . S
C680 C677 1.463 . S
C680 N684 1.427 . S
C681 H671 0.929 . S
C681 C679 1.433 . S
C681 N684 1.384 . S
C682 H673 0.929 . S
C682 C674 1.378 . S
C682 C677 1.350 . S
C683 H670 0.929 . S
C683 C675 1.433 . S
C683 N685 1.384 . S
N684 C680 1.427 . S
N684 C681 1.384 . S
N685 C677 1.427 . S
N685 C683 1.384 . S
H686 C692 0.930 . S
H687 C696 0.930 . S
H688 C701 0.929 . S
H689 C699 0.929 . S
H690 C694 0.929 . S
H691 C700 0.929 . S
C692 H686 0.930 . S
C692 C693 1.367 . S
C692 C700 1.378 . S
C693 C692 1.367 . S
C693 C701 1.433 . S
C694 H690 0.929 . S
C694 C696 1.378 . S
C694 C698 1.350 . S
C695 C698 1.463 . S
C695 C700 1.350 . S
C695 N703 1.427 . S
C696 H687 0.930 . S
C696 C694 1.378 . S
C696 C697 1.367 . S
C697 C696 1.367 . S
C697 C699 1.433 . S
C698 C694 1.350 . S
C698 C695 1.463 . S
C698 N702 1.427 . S
C699 H689 0.929 . S
C699 C697 1.433 . S
C699 N702 1.384 . S
C700 H691 0.929 . S
C700 C692 1.378 . S
C700 C695 1.350 . S
C701 H688 0.929 . S
C701 C693 1.433 . S
C701 N703 1.384 . S
N702 C698 1.427 . S
N702 C699 1.384 . S
N703 C695 1.427 . S
N703 C701 1.384 . S
H704 C710 0.930 . S
H705 C714 0.930 . S
H706 C719 0.929 . S
H707 C717 0.929 . S
H708 C712 0.929 . S
H709 C718 0.929 . S
C710 H704 0.930 . S
C710 C711 1.367 . S
C710 C718 1.378 . S
C711 C710 1.367 . S
C711 C719 1.433 . S
C712 H708 0.929 . S
C712 C714 1.378 . S
C712 C716 1.350 . S
C713 C716 1.463 . S
C713 C718 1.350 . S
C713 N721 1.427 . S
C714 H705 0.930 . S
C714 C712 1.378 . S
C714 C715 1.367 . S
C715 C714 1.367 . S
C715 C717 1.433 . S
C716 C712 1.350 . S
C716 C713 1.463 . S
C716 N720 1.427 . S
C717 H707 0.929 . S
C717 C715 1.433 . S
C717 N720 1.384 . S
C718 H709 0.929 . S
C718 C710 1.378 . S
C718 C713 1.350 . S
C719 H706 0.929 . S
C719 C711 1.433 . S
C719 N721 1.384 . S
N720 C716 1.427 . S
N720 C717 1.384 . S
N721 C713 1.427 . S
N721 C719 1.384 . S
H722 C728 0.930 . S
H723 C732 0.930 . S
H724 C737 0.929 1_556 S
H725 C735 0.929 . S
H726 C730 0.929 . S
H727 C736 0.929 . S
C728 H722 0.930 . S
C728 C729 1.367 . S
C728 C736 1.378 . S
C729 C728 1.367 . S
C729 C737 1.433 . S
C730 H726 0.929 . S
C730 C732 1.378 . S
C730 C734 1.350 . S
C731 C734 1.463 . S
C731 C736 1.350 . S
C731 N739 1.427 . S
C732 H723 0.930 . S
C732 C730 1.378 . S
C732 C733 1.367 . S
C733 C732 1.367 . S
C733 C735 1.433 . S
C734 C730 1.350 . S
C734 C731 1.463 . S
C734 N738 1.427 . S
C735 H725 0.929 . S
C735 C733 1.433 . S
C735 N738 1.384 . S
C736 H727 0.929 . S
C736 C728 1.378 . S
C736 C731 1.350 . S
C737 H724 0.929 1_554 S
C737 C729 1.433 . S
C737 N739 1.384 . S
N738 C734 1.427 . S
N738 C735 1.384 . S
N739 C731 1.427 . S
N739 C737 1.384 . S
H740 C746 0.930 . S
H741 C750 0.930 . S
H742 C755 0.929 . S
H743 C753 0.929 . S
H744 C748 0.929 . S
H745 C754 0.929 . S
C746 H740 0.930 . S
C746 C747 1.367 . S
C746 C754 1.378 . S
C747 C746 1.367 . S
C747 C755 1.433 . S
C748 H744 0.929 . S
C748 C750 1.378 . S
C748 C752 1.350 . S
C749 C752 1.463 . S
C749 C754 1.350 . S
C749 N757 1.427 . S
C750 H741 0.930 . S
C750 C748 1.378 . S
C750 C751 1.367 . S
C751 C750 1.367 . S
C751 C753 1.433 . S
C752 C748 1.350 . S
C752 C749 1.463 . S
C752 N756 1.427 . S
C753 H743 0.929 . S
C753 C751 1.433 . S
C753 N756 1.384 . S
C754 H745 0.929 . S
C754 C746 1.378 . S
C754 C749 1.350 . S
C755 H742 0.929 . S
C755 C747 1.433 . S
C755 N757 1.384 . S
N756 C752 1.427 . S
N756 C753 1.384 . S
N757 C749 1.427 . S
N757 C755 1.384 . S
H758 C764 0.930 . S
H759 C768 0.930 . S
H760 C773 0.929 . S
H761 C771 0.929 . S
H762 C766 0.929 . S
H763 C772 0.929 . S
C764 H758 0.930 . S
C764 C765 1.367 . S
C764 C772 1.378 . S
C765 C764 1.367 . S
C765 C773 1.433 . S
C766 H762 0.929 . S
C766 C768 1.378 . S
C766 C770 1.350 . S
C767 C770 1.463 . S
C767 C772 1.350 . S
C767 N775 1.427 . S
C768 H759 0.930 . S
C768 C766 1.378 . S
C768 C769 1.367 . S
C769 C768 1.367 . S
C769 C771 1.433 . S
C770 C766 1.350 . S
C770 C767 1.463 . S
C770 N774 1.427 . S
C771 H761 0.929 . S
C771 C769 1.433 . S
C771 N774 1.384 . S
C772 H763 0.929 . S
C772 C764 1.378 . S
C772 C767 1.350 . S
C773 H760 0.929 . S
C773 C765 1.433 . S
C773 N775 1.384 . S
N774 C770 1.427 . S
N774 C771 1.384 . S
N775 C767 1.427 . S
N775 C773 1.384 . S
H776 C782 0.930 . S
H777 C786 0.930 . S
H778 C791 0.929 . S
H779 C789 0.929 . S
H780 C784 0.929 . S
H781 C790 0.929 . S
C782 H776 0.930 . S
C782 C783 1.367 1_556 S
C782 C790 1.378 1_556 S
C783 C782 1.367 1_554 S
C783 C791 1.433 . S
C784 H780 0.929 . S
C784 C786 1.378 . S
C784 C788 1.350 . S
C785 C788 1.463 . S
C785 C790 1.350 . S
C785 N793 1.427 . S
C786 H777 0.930 . S
C786 C784 1.378 . S
C786 C787 1.367 . S
C787 C786 1.367 . S
C787 C789 1.433 . S
C788 C784 1.350 . S
C788 C785 1.463 . S
C788 N792 1.427 . S
C789 H779 0.929 . S
C789 C787 1.433 . S
C789 N792 1.384 . S
C790 H781 0.929 . S
C790 C782 1.378 1_554 S
C790 C785 1.350 . S
C791 H778 0.929 . S
C791 C783 1.433 . S
C791 N793 1.384 . S
N792 C788 1.427 . S
N792 C789 1.384 . S
N793 C785 1.427 . S
N793 C791 1.384 . S
H794 C800 0.930 1_554 S
H795 C804 0.930 . S
H796 C809 0.929 . S
H797 C807 0.929 . S
H798 C802 0.929 . S
H799 C808 0.929 . S
C800 H794 0.930 1_556 S
C800 C801 1.367 . S
C800 C808 1.378 . S
C801 C800 1.367 . S
C801 C809 1.433 . S
C802 H798 0.929 . S
C802 C804 1.378 . S
C802 C806 1.350 . S
C803 C806 1.463 . S
C803 C808 1.350 . S
C803 N811 1.427 . S
C804 H795 0.930 . S
C804 C802 1.378 . S
C804 C805 1.367 . S
C805 C804 1.367 . S
C805 C807 1.433 . S
C806 C802 1.350 . S
C806 C803 1.463 . S
C806 N810 1.427 . S
C807 H797 0.929 . S
C807 C805 1.433 . S
C807 N810 1.384 . S
C808 H799 0.929 . S
C808 C800 1.378 . S
C808 C803 1.350 . S
C809 H796 0.929 . S
C809 C801 1.433 . S
C809 N811 1.384 . S
N810 C806 1.427 . S
N810 C807 1.384 . S
N811 C803 1.427 . S
N811 C809 1.384 . S
H812 C818 0.930 . S
H813 C822 0.930 . S
H814 C827 0.929 . S
H815 C825 0.929 . S
H816 C820 0.929 . S
H817 C826 0.929 . S
C818 H812 0.930 . S
C818 C819 1.367 . S
C818 C826 1.378 . S
C819 C818 1.367 . S
C819 C827 1.433 . S
C820 H816 0.929 . S
C820 C822 1.378 . S
C820 C824 1.350 . S
C821 C824 1.463 . S
C821 C826 1.350 . S
C821 N829 1.427 . S
C822 H813 0.930 . S
C822 C820 1.378 . S
C822 C823 1.367 . S
C823 C822 1.367 . S
C823 C825 1.433 . S
C824 C820 1.350 . S
C824 C821 1.463 . S
C824 N828 1.427 . S
C825 H815 0.929 . S
C825 C823 1.433 . S
C825 N828 1.384 . S
C826 H817 0.929 . S
C826 C818 1.378 . S
C826 C821 1.350 . S
C827 H814 0.929 . S
C827 C819 1.433 . S
C827 N829 1.384 . S
N828 C824 1.427 . S
N828 C825 1.384 . S
N829 C821 1.427 . S
N829 C827 1.384 . S
H830 C836 0.930 . S
H831 C840 0.930 . S
H832 C845 0.929 . S
H833 C843 0.929 . S
H834 C838 0.929 . S
H835 C844 0.929 . S
C836 H830 0.930 . S
C836 C837 1.367 . S
C836 C844 1.378 . S
C837 C836 1.367 . S
C837 C845 1.433 . S
C838 H834 0.929 . S
C838 C840 1.378 . S
C838 C842 1.350 . S
C839 C842 1.463 . S
C839 C844 1.350 . S
C839 N847 1.427 . S
C840 H831 0.930 . S
C840 C838 1.378 . S
C840 C841 1.367 . S
C841 C840 1.367 . S
C841 C843 1.433 . S
C842 C838 1.350 . S
C842 C839 1.463 . S
C842 N846 1.427 . S
C843 H833 0.929 . S
C843 C841 1.433 . S
C843 N846 1.384 . S
C844 H835 0.929 . S
C844 C836 1.378 . S
C844 C839 1.350 . S
C845 H832 0.929 . S
C845 C837 1.433 . S
C845 N847 1.384 . S
N846 C842 1.427 . S
N846 C843 1.384 . S
N847 C839 1.427 . S
N847 C845 1.384 . S
H848 C854 0.930 . S
H849 C858 0.930 . S
H850 C863 0.929 . S
H851 C861 0.929 . S
H852 C856 0.929 . S
H853 C862 0.929 . S
C854 H848 0.930 . S
C854 C855 1.367 . S
C854 C862 1.378 . S
C855 C854 1.367 . S
C855 C863 1.433 . S
C856 H852 0.929 . S
C856 C858 1.378 . S
C856 C860 1.350 . S
C857 C860 1.463 . S
C857 C862 1.350 . S
C857 N865 1.427 . S
C858 H849 0.930 . S
C858 C856 1.378 . S
C858 C859 1.367 . S
C859 C858 1.367 . S
C859 C861 1.433 . S
C860 C856 1.350 . S
C860 C857 1.463 . S
C860 N864 1.427 . S
C861 H851 0.929 . S
C861 C859 1.433 . S
C861 N864 1.384 . S
C862 H853 0.929 . S
C862 C854 1.378 . S
C862 C857 1.350 . S
C863 H850 0.929 . S
C863 C855 1.433 . S
C863 N865 1.384 . S
N864 C860 1.427 . S
N864 C861 1.384 . S
N865 C857 1.427 . S
N865 C863 1.384 . S
H866 C872 0.930 . S
H867 C876 0.930 . S
H868 C881 0.929 . S
H869 C879 0.929 . S
H870 C874 0.929 . S
H871 C880 0.929 . S
C872 H866 0.930 . S
C872 C873 1.367 . S
C872 C880 1.378 . S
C873 C872 1.367 . S
C873 C881 1.433 . S
C874 H870 0.929 . S
C874 C876 1.378 . S
C874 C878 1.350 . S
C875 C878 1.463 . S
C875 C880 1.350 . S
C875 N883 1.427 . S
C876 H867 0.930 . S
C876 C874 1.378 . S
C876 C877 1.367 . S
C877 C876 1.367 . S
C877 C879 1.433 . S
C878 C874 1.350 . S
C878 C875 1.463 . S
C878 N882 1.427 . S
C879 H869 0.929 . S
C879 C877 1.433 . S
C879 N882 1.384 . S
C880 H871 0.929 . S
C880 C872 1.378 . S
C880 C875 1.350 . S
C881 H868 0.929 . S
C881 C873 1.433 . S
C881 N883 1.384 . S
N882 C878 1.427 . S
N882 C879 1.384 . S
N883 C875 1.427 . S
N883 C881 1.384 . S
H884 C890 0.930 . S
H885 C894 0.930 . S
H886 C899 0.929 . S
H887 C897 0.929 1_554 S
H888 C892 0.929 . S
H889 C898 0.929 . S
C890 H884 0.930 . S
C890 C891 1.367 . S
C890 C898 1.378 . S
C891 C890 1.367 . S
C891 C899 1.433 . S
C892 H888 0.929 . S
C892 C894 1.378 . S
C892 C896 1.350 . S
C893 C896 1.463 . S
C893 C898 1.350 . S
C893 N901 1.427 . S
C894 H885 0.930 . S
C894 C892 1.378 . S
C894 C895 1.367 . S
C895 C894 1.367 . S
C895 C897 1.433 . S
C896 C892 1.350 . S
C896 C893 1.463 . S
C896 N900 1.427 . S
C897 H887 0.929 1_556 S
C897 C895 1.433 . S
C897 N900 1.384 . S
C898 H889 0.929 . S
C898 C890 1.378 . S
C898 C893 1.350 . S
C899 H886 0.929 . S
C899 C891 1.433 . S
C899 N901 1.384 . S
N900 C896 1.427 . S
N900 C897 1.384 . S
N901 C893 1.427 . S
N901 C899 1.384 . S
H902 C908 0.930 . S
H903 C912 0.930 . S
H904 C917 0.929 . S
H905 C915 0.929 . S
H906 C910 0.929 . S
H907 C916 0.929 . S
C908 H902 0.930 . S
C908 C909 1.367 . S
C908 C916 1.378 . S
C909 C908 1.367 . S
C909 C917 1.433 . S
C910 H906 0.929 . S
C910 C912 1.378 1_554 S
C910 C914 1.350 . S
C911 C914 1.463 . S
C911 C916 1.350 . S
C911 N919 1.427 . S
C912 H903 0.930 . S
C912 C910 1.378 1_556 S
C912 C913 1.367 1_556 S
C913 C912 1.367 1_554 S
C913 C915 1.433 . S
C914 C910 1.350 . S
C914 C911 1.463 . S
C914 N918 1.427 . S
C915 H905 0.929 . S
C915 C913 1.433 . S
C915 N918 1.384 . S
C916 H907 0.929 . S
C916 C908 1.378 . S
C916 C911 1.350 . S
C917 H904 0.929 . S
C917 C909 1.433 . S
C917 N919 1.384 . S
N918 C914 1.427 . S
N918 C915 1.384 . S
N919 C911 1.427 . S
N919 C917 1.384 . S
H920 C926 0.930 . S
H921 C930 0.930 . S
H922 C935 0.929 . S
H923 C933 0.929 . S
H924 C928 0.929 . S
H925 C934 0.929 . S
C926 H920 0.930 . S
C926 C927 1.367 . S
C926 C934 1.378 . S
C927 C926 1.367 . S
C927 C935 1.433 . S
C928 H924 0.929 . S
C928 C930 1.378 . S
C928 C932 1.350 . S
C929 C932 1.463 . S
C929 C934 1.350 . S
C929 N937 1.427 . S
C930 H921 0.930 . S
C930 C928 1.378 . S
C930 C931 1.367 . S
C931 C930 1.367 . S
C931 C933 1.433 . S
C932 C928 1.350 . S
C932 C929 1.463 . S
C932 N936 1.427 . S
C933 H923 0.929 . S
C933 C931 1.433 . S
C933 N936 1.384 . S
C934 H925 0.929 . S
C934 C926 1.378 . S
C934 C929 1.350 . S
C935 H922 0.929 . S
C935 C927 1.433 . S
C935 N937 1.384 . S
N936 C932 1.427 . S
N936 C933 1.384 . S
N937 C929 1.427 . S
N937 C935 1.384 . S
H938 C944 0.930 . S
H939 C948 0.930 . S
H940 C953 0.929 . S
H941 C951 0.929 . S
H942 C946 0.929 . S
H943 C952 0.929 . S
C944 H938 0.930 . S
C944 C945 1.367 . S
C944 C952 1.378 . S
C945 C944 1.367 . S
C945 C953 1.433 . S
C946 H942 0.929 . S
C946 C948 1.378 . S
C946 C950 1.350 . S
C947 C950 1.463 . S
C947 C952 1.350 . S
C947 N955 1.427 . S
C948 H939 0.930 . S
C948 C946 1.378 . S
C948 C949 1.367 . S
C949 C948 1.367 . S
C949 C951 1.433 . S
C950 C946 1.350 . S
C950 C947 1.463 . S
C950 N954 1.427 . S
C951 H941 0.929 . S
C951 C949 1.433 . S
C951 N954 1.384 . S
C952 H943 0.929 . S
C952 C944 1.378 . S
C952 C947 1.350 . S
C953 H940 0.929 . S
C953 C945 1.433 . S
C953 N955 1.384 . S
N954 C950 1.427 . S
N954 C951 1.384 . S
N955 C947 1.427 . S
N955 C953 1.384 . S
H956 C962 0.930 . S
H957 C966 0.930 . S
H958 C971 0.929 1_556 S
H959 C969 0.929 . S
H960 C964 0.929 . S
H961 C970 0.929 . S
C962 H956 0.930 . S
C962 C963 1.367 . S
C962 C970 1.378 . S
C963 C962 1.367 . S
C963 C971 1.433 . S
C964 H960 0.929 . S
C964 C966 1.378 . S
C964 C968 1.350 . S
C965 C968 1.463 . S
C965 C970 1.350 . S
C965 N973 1.427 . S
C966 H957 0.930 . S
C966 C964 1.378 . S
C966 C967 1.367 . S
C967 C966 1.367 . S
C967 C969 1.433 . S
C968 C964 1.350 . S
C968 C965 1.463 . S
C968 N972 1.427 . S
C969 H959 0.929 . S
C969 C967 1.433 . S
C969 N972 1.384 . S
C970 H961 0.929 . S
C970 C962 1.378 . S
C970 C965 1.350 . S
C971 H958 0.929 1_554 S
C971 C963 1.433 . S
C971 N973 1.384 . S
N972 C968 1.427 . S
N972 C969 1.384 . S
N973 C965 1.427 . S
N973 C971 1.384 . S
H974 C980 0.930 . S
H975 C984 0.930 . S
H976 C989 0.929 . S
H977 C987 0.929 . S
H978 C982 0.929 . S
H979 C988 0.929 . S
C980 H974 0.930 . S
C980 C981 1.367 . S
C980 C988 1.378 . S
C981 C980 1.367 . S
C981 C989 1.433 . S
C982 H978 0.929 . S
C982 C984 1.378 1_556 S
C982 C986 1.350 . S
C983 C986 1.463 . S
C983 C988 1.350 . S
C983 N991 1.427 . S
C984 H975 0.930 . S
C984 C982 1.378 1_554 S
C984 C985 1.367 1_554 S
C985 C984 1.367 1_556 S
C985 C987 1.433 . S
C986 C982 1.350 . S
C986 C983 1.463 . S
C986 N990 1.427 . S
C987 H977 0.929 . S
C987 C985 1.433 . S
C987 N990 1.384 . S
C988 H979 0.929 . S
C988 C980 1.378 . S
C988 C983 1.350 . S
C989 H976 0.929 . S
C989 C981 1.433 . S
C989 N991 1.384 . S
N990 C986 1.427 . S
N990 C987 1.384 . S
N991 C983 1.427 . S
N991 C989 1.384 . S
H992 C998 0.930 . S
H993 C1002 0.930 . S
H994 C1007 0.929 . S
H995 C1005 0.929 . S
H996 C1000 0.929 . S
H997 C1006 0.929 . S
C998 H992 0.930 . S
C998 C999 1.367 . S
C998 C1006 1.378 . S
C999 C998 1.367 . S
C999 C1007 1.433 . S
C1000 H996 0.929 . S
C1000 C1002 1.378 . S
C1000 C1004 1.350 . S
C1001 C1004 1.463 . S
C1001 C1006 1.350 . S
C1001 N1009 1.427 . S
C1002 H993 0.930 . S
C1002 C1000 1.378 . S
C1002 C1003 1.367 . S
C1003 C1002 1.367 . S
C1003 C1005 1.433 . S
C1004 C1000 1.350 . S
C1004 C1001 1.463 . S
C1004 N1008 1.427 . S
C1005 H995 0.929 . S
C1005 C1003 1.433 . S
C1005 N1008 1.384 . S
C1006 H997 0.929 . S
C1006 C998 1.378 . S
C1006 C1001 1.350 . S
C1007 H994 0.929 . S
C1007 C999 1.433 . S
C1007 N1009 1.384 . S
N1008 C1004 1.427 . S
N1008 C1005 1.384 . S
N1009 C1001 1.427 . S
N1009 C1007 1.384 . S
H1010 C1016 0.930 . S
H1011 C1020 0.930 . S
H1012 C1025 0.929 . S
H1013 C1023 0.929 . S
H1014 C1018 0.929 . S
H1015 C1024 0.929 . S
C1016 H1010 0.930 . S
C1016 C1017 1.367 . S
C1016 C1024 1.378 . S
C1017 C1016 1.367 . S
C1017 C1025 1.433 . S
C1018 H1014 0.929 . S
C1018 C1020 1.378 . S
C1018 C1022 1.350 . S
C1019 C1022 1.463 1_655 S
C1019 C1024 1.350 . S
C1019 N1027 1.427 . S
C1020 H1011 0.930 . S
C1020 C1018 1.378 . S
C1020 C1021 1.367 . S
C1021 C1020 1.367 . S
C1021 C1023 1.433 . S
C1022 C1018 1.350 . S
C1022 C1019 1.463 1_455 S
C1022 N1026 1.427 . S
C1023 H1013 0.929 . S
C1023 C1021 1.433 . S
C1023 N1026 1.384 . S
C1024 H1015 0.929 . S
C1024 C1016 1.378 . S
C1024 C1019 1.350 . S
C1025 H1012 0.929 . S
C1025 C1017 1.433 . S
C1025 N1027 1.384 . S
N1026 C1022 1.427 . S
N1026 C1023 1.384 . S
N1027 C1019 1.427 . S
N1027 C1025 1.384 . S
H1028 C1034 0.930 . S
H1029 C1038 0.930 . S
H1030 C1043 0.929 . S
H1031 C1041 0.929 . S
H1032 C1036 0.929 . S
H1033 C1042 0.929 . S
C1034 H1028 0.930 . S
C1034 C1035 1.367 . S
C1034 C1042 1.378 . S
C1035 C1034 1.367 . S
C1035 C1043 1.433 . S
C1036 H1032 0.929 . S
C1036 C1038 1.378 . S
C1036 C1040 1.350 . S
C1037 C1040 1.463 . S
C1037 C1042 1.350 . S
C1037 N1045 1.427 . S
C1038 H1029 0.930 . S
C1038 C1036 1.378 . S
C1038 C1039 1.367 . S
C1039 C1038 1.367 . S
C1039 C1041 1.433 . S
C1040 C1036 1.350 . S
C1040 C1037 1.463 . S
C1040 N1044 1.427 . S
C1041 H1031 0.929 . S
C1041 C1039 1.433 . S
C1041 N1044 1.384 . S
C1042 H1033 0.929 . S
C1042 C1034 1.378 . S
C1042 C1037 1.350 . S
C1043 H1030 0.929 . S
C1043 C1035 1.433 . S
C1043 N1045 1.384 . S
N1044 C1040 1.427 . S
N1044 C1041 1.384 . S
N1045 C1037 1.427 . S
N1045 C1043 1.384 . S
H1046 C1052 0.930 . S
H1047 C1056 0.930 . S
H1048 C1061 0.929 . S
H1049 C1059 0.929 . S
H1050 C1054 0.929 . S
H1051 C1060 0.929 . S
C1052 H1046 0.930 . S
C1052 C1053 1.367 . S
C1052 C1060 1.378 . S
C1053 C1052 1.367 . S
C1053 C1061 1.433 . S
C1054 H1050 0.929 . S
C1054 C1056 1.378 . S
C1054 C1058 1.350 . S
C1055 C1058 1.463 . S
C1055 C1060 1.350 . S
C1055 N1063 1.427 . S
C1056 H1047 0.930 . S
C1056 C1054 1.378 . S
C1056 C1057 1.367 . S
C1057 C1056 1.367 . S
C1057 C1059 1.433 . S
C1058 C1054 1.350 . S
C1058 C1055 1.463 . S
C1058 N1062 1.427 . S
C1059 H1049 0.929 . S
C1059 C1057 1.433 . S
C1059 N1062 1.384 . S
C1060 H1051 0.929 . S
C1060 C1052 1.378 . S
C1060 C1055 1.350 . S
C1061 H1048 0.929 . S
C1061 C1053 1.433 . S
C1061 N1063 1.384 . S
N1062 C1058 1.427 . S
N1062 C1059 1.384 . S
N1063 C1055 1.427 . S
N1063 C1061 1.384 . S
H1064 C1070 0.930 . S
H1065 C1074 0.930 . S
H1066 C1079 0.929 . S
H1067 C1077 0.929 . S
H1068 C1072 0.929 . S
H1069 C1078 0.929 . S
C1070 H1064 0.930 . S
C1070 C1071 1.367 . S
C1070 C1078 1.378 . S
C1071 C1070 1.367 . S
C1071 C1079 1.433 . S
C1072 H1068 0.929 . S
C1072 C1074 1.378 . S
C1072 C1076 1.350 . S
C1073 C1076 1.463 . S
C1073 C1078 1.350 . S
C1073 N1081 1.427 . S
C1074 H1065 0.930 . S
C1074 C1072 1.378 . S
C1074 C1075 1.367 . S
C1075 C1074 1.367 . S
C1075 C1077 1.433 . S
C1076 C1072 1.350 . S
C1076 C1073 1.463 . S
C1076 N1080 1.427 . S
C1077 H1067 0.929 . S
C1077 C1075 1.433 . S
C1077 N1080 1.384 . S
C1078 H1069 0.929 . S
C1078 C1070 1.378 . S
C1078 C1073 1.350 . S
C1079 H1066 0.929 . S
C1079 C1071 1.433 . S
C1079 N1081 1.384 . S
N1080 C1076 1.427 . S
N1080 C1077 1.384 . S
N1081 C1073 1.427 . S
N1081 C1079 1.384 . S
H1082 C1088 0.930 . S
H1083 C1092 0.930 . S
H1084 C1097 0.929 . S
H1085 C1095 0.929 . S
H1086 C1090 0.929 . S
H1087 C1096 0.929 . S
C1088 H1082 0.930 . S
C1088 C1089 1.367 . S
C1088 C1096 1.378 . S
C1089 C1088 1.367 . S
C1089 C1097 1.433 . S
C1090 H1086 0.929 . S
C1090 C1092 1.378 . S
C1090 C1094 1.350 . S
C1091 C1094 1.463 . S
C1091 C1096 1.350 . S
C1091 N1099 1.427 . S
C1092 H1083 0.930 . S
C1092 C1090 1.378 . S
C1092 C1093 1.367 . S
C1093 C1092 1.367 . S
C1093 C1095 1.433 . S
C1094 C1090 1.350 . S
C1094 C1091 1.463 . S
C1094 N1098 1.427 . S
C1095 H1085 0.929 . S
C1095 C1093 1.433 . S
C1095 N1098 1.384 . S
C1096 H1087 0.929 . S
C1096 C1088 1.378 . S
C1096 C1091 1.350 . S
C1097 H1084 0.929 . S
C1097 C1089 1.433 . S
C1097 N1099 1.384 . S
N1098 C1094 1.427 . S
N1098 C1095 1.384 . S
N1099 C1091 1.427 . S
N1099 C1097 1.384 . S
H1100 C1106 0.930 . S
H1101 C1110 0.930 . S
H1102 C1115 0.929 . S
H1103 C1113 0.929 . S
H1104 C1108 0.929 . S
H1105 C1114 0.929 . S
C1106 H1100 0.930 . S
C1106 C1107 1.367 . S
C1106 C1114 1.378 . S
C1107 C1106 1.367 . S
C1107 C1115 1.433 . S
C1108 H1104 0.929 . S
C1108 C1110 1.378 . S
C1108 C1112 1.350 . S
C1109 C1112 1.463 . S
C1109 C1114 1.350 . S
C1109 N1117 1.427 . S
C1110 H1101 0.930 . S
C1110 C1108 1.378 . S
C1110 C1111 1.367 . S
C1111 C1110 1.367 . S
C1111 C1113 1.433 . S
C1112 C1108 1.350 . S
C1112 C1109 1.463 . S
C1112 N1116 1.427 . S
C1113 H1103 0.929 . S
C1113 C1111 1.433 . S
C1113 N1116 1.384 . S
C1114 H1105 0.929 . S
C1114 C1106 1.378 . S
C1114 C1109 1.350 . S
C1115 H1102 0.929 . S
C1115 C1107 1.433 . S
C1115 N1117 1.384 . S
N1116 C1112 1.427 . S
N1116 C1113 1.384 . S
N1117 C1109 1.427 . S
N1117 C1115 1.384 . S
H1118 C1124 0.930 . S
H1119 C1128 0.930 . S
H1120 C1133 0.929 . S
H1121 C1131 0.929 . S
H1122 C1126 0.929 . S
H1123 C1132 0.929 . S
C1124 H1118 0.930 . S
C1124 C1125 1.367 . S
C1124 C1132 1.378 . S
C1125 C1124 1.367 . S
C1125 C1133 1.433 . S
C1126 H1122 0.929 . S
C1126 C1128 1.378 . S
C1126 C1130 1.350 . S
C1127 C1130 1.463 1_655 S
C1127 C1132 1.350 . S
C1127 N1135 1.427 . S
C1128 H1119 0.930 . S
C1128 C1126 1.378 . S
C1128 C1129 1.367 . S
C1129 C1128 1.367 . S
C1129 C1131 1.433 . S
C1130 C1126 1.350 . S
C1130 C1127 1.463 1_455 S
C1130 N1134 1.427 . S
C1131 H1121 0.929 . S
C1131 C1129 1.433 . S
C1131 N1134 1.384 . S
C1132 H1123 0.929 . S
C1132 C1124 1.378 . S
C1132 C1127 1.350 . S
C1133 H1120 0.929 . S
C1133 C1125 1.433 . S
C1133 N1135 1.384 . S
N1134 C1130 1.427 . S
N1134 C1131 1.384 . S
N1135 C1127 1.427 . S
N1135 C1133 1.384 . S
H1136 C1142 0.930 . S
H1137 C1146 0.930 . S
H1138 C1151 0.929 . S
H1139 C1149 0.929 . S
H1140 C1144 0.929 . S
H1141 C1150 0.929 . S
C1142 H1136 0.930 . S
C1142 C1143 1.367 . S
C1142 C1150 1.378 . S
C1143 C1142 1.367 . S
C1143 C1151 1.433 . S
C1144 H1140 0.929 . S
C1144 C1146 1.378 . S
C1144 C1148 1.350 . S
C1145 C1148 1.463 . S
C1145 C1150 1.350 . S
C1145 N1153 1.427 . S
C1146 H1137 0.930 . S
C1146 C1144 1.378 . S
C1146 C1147 1.367 . S
C1147 C1146 1.367 . S
C1147 C1149 1.433 . S
C1148 C1144 1.350 . S
C1148 C1145 1.463 . S
C1148 N1152 1.427 . S
C1149 H1139 0.929 . S
C1149 C1147 1.433 . S
C1149 N1152 1.384 . S
C1150 H1141 0.929 . S
C1150 C1142 1.378 . S
C1150 C1145 1.350 . S
C1151 H1138 0.929 . S
C1151 C1143 1.433 . S
C1151 N1153 1.384 . S
N1152 C1148 1.427 . S
N1152 C1149 1.384 . S
N1153 C1145 1.427 . S
N1153 C1151 1.384 . S
H1154 C1160 0.930 . S
H1155 C1164 0.930 . S
H1156 C1169 0.929 . S
H1157 C1167 0.929 . S
H1158 C1162 0.929 . S
H1159 C1168 0.929 . S
C1160 H1154 0.930 . S
C1160 C1161 1.367 . S
C1160 C1168 1.378 . S
C1161 C1160 1.367 . S
C1161 C1169 1.433 . S
C1162 H1158 0.929 . S
C1162 C1164 1.378 . S
C1162 C1166 1.350 . S
C1163 C1166 1.463 . S
C1163 C1168 1.350 . S
C1163 N1171 1.427 . S
C1164 H1155 0.930 . S
C1164 C1162 1.378 . S
C1164 C1165 1.367 . S
C1165 C1164 1.367 . S
C1165 C1167 1.433 . S
C1166 C1162 1.350 . S
C1166 C1163 1.463 . S
C1166 N1170 1.427 . S
C1167 H1157 0.929 . S
C1167 C1165 1.433 . S
C1167 N1170 1.384 . S
C1168 H1159 0.929 . S
C1168 C1160 1.378 . S
C1168 C1163 1.350 . S
C1169 H1156 0.929 . S
C1169 C1161 1.433 . S
C1169 N1171 1.384 . S
N1170 C1166 1.427 . S
N1170 C1167 1.384 . S
N1171 C1163 1.427 . S
N1171 C1169 1.384 . S
H1172 C1178 0.930 . S
H1173 C1182 0.930 . S
H1174 C1187 0.929 . S
H1175 C1185 0.929 . S
H1176 C1180 0.929 . S
H1177 C1186 0.929 . S
C1178 H1172 0.930 . S
C1178 C1179 1.367 . S
C1178 C1186 1.378 . S
C1179 C1178 1.367 . S
C1179 C1187 1.433 . S
C1180 H1176 0.929 . S
C1180 C1182 1.378 . S
C1180 C1184 1.350 . S
C1181 C1184 1.463 . S
C1181 C1186 1.350 . S
C1181 N1189 1.427 . S
C1182 H1173 0.930 . S
C1182 C1180 1.378 . S
C1182 C1183 1.367 . S
C1183 C1182 1.367 . S
C1183 C1185 1.433 . S
C1184 C1180 1.350 . S
C1184 C1181 1.463 . S
C1184 N1188 1.427 . S
C1185 H1175 0.929 . S
C1185 C1183 1.433 . S
C1185 N1188 1.384 . S
C1186 H1177 0.929 . S
C1186 C1178 1.378 . S
C1186 C1181 1.350 . S
C1187 H1174 0.929 . S
C1187 C1179 1.433 . S
C1187 N1189 1.384 . S
N1188 C1184 1.427 . S
N1188 C1185 1.384 . S
N1189 C1181 1.427 . S
N1189 C1187 1.384 . S
H1190 C1196 0.930 . S
H1191 C1200 0.930 . S
H1192 C1205 0.929 . S
H1193 C1203 0.929 . S
H1194 C1198 0.929 . S
H1195 C1204 0.929 . S
C1196 H1190 0.930 . S
C1196 C1197 1.367 . S
C1196 C1204 1.378 . S
C1197 C1196 1.367 . S
C1197 C1205 1.433 . S
C1198 H1194 0.929 . S
C1198 C1200 1.378 . S
C1198 C1202 1.350 . S
C1199 C1202 1.463 . S
C1199 C1204 1.350 . S
C1199 N1207 1.427 . S
C1200 H1191 0.930 . S
C1200 C1198 1.378 . S
C1200 C1201 1.367 . S
C1201 C1200 1.367 . S
C1201 C1203 1.433 . S
C1202 C1198 1.350 . S
C1202 C1199 1.463 . S
C1202 N1206 1.427 . S
C1203 H1193 0.929 . S
C1203 C1201 1.433 . S
C1203 N1206 1.384 . S
C1204 H1195 0.929 . S
C1204 C1196 1.378 . S
C1204 C1199 1.350 . S
C1205 H1192 0.929 . S
C1205 C1197 1.433 . S
C1205 N1207 1.384 . S
N1206 C1202 1.427 . S
N1206 C1203 1.384 . S
N1207 C1199 1.427 . S
N1207 C1205 1.384 . S
H1208 C1214 0.930 . S
H1209 C1218 0.930 . S
H1210 C1223 0.929 . S
H1211 C1221 0.929 . S
H1212 C1216 0.929 . S
H1213 C1222 0.929 . S
C1214 H1208 0.930 . S
C1214 C1215 1.367 . S
C1214 C1222 1.378 . S
C1215 C1214 1.367 . S
C1215 C1223 1.433 . S
C1216 H1212 0.929 . S
C1216 C1218 1.378 . S
C1216 C1220 1.350 . S
C1217 C1220 1.463 . S
C1217 C1222 1.350 . S
C1217 N1225 1.427 . S
C1218 H1209 0.930 . S
C1218 C1216 1.378 . S
C1218 C1219 1.367 . S
C1219 C1218 1.367 . S
C1219 C1221 1.433 . S
C1220 C1216 1.350 . S
C1220 C1217 1.463 . S
C1220 N1224 1.427 . S
C1221 H1211 0.929 . S
C1221 C1219 1.433 . S
C1221 N1224 1.384 . S
C1222 H1213 0.929 . S
C1222 C1214 1.378 . S
C1222 C1217 1.350 . S
C1223 H1210 0.929 . S
C1223 C1215 1.433 . S
C1223 N1225 1.384 . S
N1224 C1220 1.427 . S
N1224 C1221 1.384 . S
N1225 C1217 1.427 . S
N1225 C1223 1.384 . S
H1226 C1232 0.930 . S
H1227 C1236 0.930 . S
H1228 C1241 0.929 . S
H1229 C1239 0.929 . S
H1230 C1234 0.929 . S
H1231 C1240 0.929 . S
C1232 H1226 0.930 . S
C1232 C1233 1.367 . S
C1232 C1240 1.378 . S
C1233 C1232 1.367 . S
C1233 C1241 1.433 . S
C1234 H1230 0.929 . S
C1234 C1236 1.378 . S
C1234 C1238 1.350 . S
C1235 C1238 1.463 1_655 S
C1235 C1240 1.350 . S
C1235 N1243 1.427 . S
C1236 H1227 0.930 . S
C1236 C1234 1.378 . S
C1236 C1237 1.367 . S
C1237 C1236 1.367 . S
C1237 C1239 1.433 . S
C1238 C1234 1.350 . S
C1238 C1235 1.463 1_455 S
C1238 N1242 1.427 . S
C1239 H1229 0.929 . S
C1239 C1237 1.433 . S
C1239 N1242 1.384 . S
C1240 H1231 0.929 . S
C1240 C1232 1.378 . S
C1240 C1235 1.350 . S
C1241 H1228 0.929 . S
C1241 C1233 1.433 . S
C1241 N1243 1.384 . S
N1242 C1238 1.427 . S
N1242 C1239 1.384 . S
N1243 C1235 1.427 . S
N1243 C1241 1.384 . S
H1244 C1250 0.930 . S
H1245 C1254 0.930 . S
H1246 C1259 0.929 . S
H1247 C1257 0.929 . S
H1248 C1252 0.929 . S
H1249 C1258 0.929 . S
C1250 H1244 0.930 . S
C1250 C1251 1.367 . S
C1250 C1258 1.378 . S
C1251 C1250 1.367 . S
C1251 C1259 1.433 . S
C1252 H1248 0.929 . S
C1252 C1254 1.378 . S
C1252 C1256 1.350 . S
C1253 C1256 1.463 1_655 S
C1253 C1258 1.350 . S
C1253 N1261 1.427 . S
C1254 H1245 0.930 . S
C1254 C1252 1.378 . S
C1254 C1255 1.367 . S
C1255 C1254 1.367 . S
C1255 C1257 1.433 . S
C1256 C1252 1.350 . S
C1256 C1253 1.463 1_455 S
C1256 N1260 1.427 . S
C1257 H1247 0.929 . S
C1257 C1255 1.433 . S
C1257 N1260 1.384 . S
C1258 H1249 0.929 . S
C1258 C1250 1.378 . S
C1258 C1253 1.350 . S
C1259 H1246 0.929 . S
C1259 C1251 1.433 . S
C1259 N1261 1.384 . S
N1260 C1256 1.427 . S
N1260 C1257 1.384 . S
N1261 C1253 1.427 . S
N1261 C1259 1.384 . S
H1262 C1268 0.930 . S
H1263 C1272 0.930 . S
H1264 C1277 0.929 . S
H1265 C1275 0.929 . S
H1266 C1270 0.929 . S
H1267 C1276 0.929 . S
C1268 H1262 0.930 . S
C1268 C1269 1.367 . S
C1268 C1276 1.378 . S
C1269 C1268 1.367 . S
C1269 C1277 1.433 . S
C1270 H1266 0.929 . S
C1270 C1272 1.378 . S
C1270 C1274 1.350 . S
C1271 C1274 1.463 . S
C1271 C1276 1.350 . S
C1271 N1279 1.427 . S
C1272 H1263 0.930 . S
C1272 C1270 1.378 . S
C1272 C1273 1.367 . S
C1273 C1272 1.367 . S
C1273 C1275 1.433 . S
C1274 C1270 1.350 . S
C1274 C1271 1.463 . S
C1274 N1278 1.427 . S
C1275 H1265 0.929 . S
C1275 C1273 1.433 . S
C1275 N1278 1.384 . S
C1276 H1267 0.929 . S
C1276 C1268 1.378 . S
C1276 C1271 1.350 . S
C1277 H1264 0.929 . S
C1277 C1269 1.433 . S
C1277 N1279 1.384 . S
N1278 C1274 1.427 . S
N1278 C1275 1.384 . S
N1279 C1271 1.427 . S
N1279 C1277 1.384 . S
H1280 C1286 0.930 . S
H1281 C1290 0.930 . S
H1282 C1295 0.929 . S
H1283 C1293 0.929 . S
H1284 C1288 0.929 . S
H1285 C1294 0.929 . S
C1286 H1280 0.930 . S
C1286 C1287 1.367 . S
C1286 C1294 1.378 . S
C1287 C1286 1.367 . S
C1287 C1295 1.433 . S
C1288 H1284 0.929 . S
C1288 C1290 1.378 . S
C1288 C1292 1.350 . S
C1289 C1292 1.463 . S
C1289 C1294 1.350 . S
C1289 N1297 1.427 . S
C1290 H1281 0.930 . S
C1290 C1288 1.378 . S
C1290 C1291 1.367 . S
C1291 C1290 1.367 . S
C1291 C1293 1.433 . S
C1292 C1288 1.350 . S
C1292 C1289 1.463 . S
C1292 N1296 1.427 . S
C1293 H1283 0.929 . S
C1293 C1291 1.433 . S
C1293 N1296 1.384 . S
C1294 H1285 0.929 . S
C1294 C1286 1.378 . S
C1294 C1289 1.350 . S
C1295 H1282 0.929 . S
C1295 C1287 1.433 . S
C1295 N1297 1.384 . S
N1296 C1292 1.427 . S
N1296 C1293 1.384 . S
N1297 C1289 1.427 . S
N1297 C1295 1.384 . S
H1298 C1304 0.930 . S
H1299 C1308 0.930 . S
H1300 C1313 0.929 . S
H1301 C1311 0.929 . S
H1302 C1306 0.929 . S
H1303 C1312 0.929 . S
C1304 H1298 0.930 . S
C1304 C1305 1.367 . S
C1304 C1312 1.378 . S
C1305 C1304 1.367 . S
C1305 C1313 1.433 . S
C1306 H1302 0.929 . S
C1306 C1308 1.378 . S
C1306 C1310 1.350 . S
C1307 C1310 1.463 . S
C1307 C1312 1.350 . S
C1307 N1315 1.427 . S
C1308 H1299 0.930 . S
C1308 C1306 1.378 . S
C1308 C1309 1.367 . S
C1309 C1308 1.367 . S
C1309 C1311 1.433 . S
C1310 C1306 1.350 . S
C1310 C1307 1.463 . S
C1310 N1314 1.427 . S
C1311 H1301 0.929 . S
C1311 C1309 1.433 . S
C1311 N1314 1.384 . S
C1312 H1303 0.929 . S
C1312 C1304 1.378 . S
C1312 C1307 1.350 . S
C1313 H1300 0.929 . S
C1313 C1305 1.433 . S
C1313 N1315 1.384 . S
N1314 C1310 1.427 . S
N1314 C1311 1.384 . S
N1315 C1307 1.427 . S
N1315 C1313 1.384 . S
H1316 C1322 0.930 1_554 S
H1317 C1326 0.930 . S
H1318 C1331 0.929 . S
H1319 C1329 0.929 . S
H1320 C1324 0.929 . S
H1321 C1330 0.929 . S
C1322 H1316 0.930 1_556 S
C1322 C1323 1.367 . S
C1322 C1330 1.378 . S
C1323 C1322 1.367 . S
C1323 C1331 1.433 . S
C1324 H1320 0.929 . S
C1324 C1326 1.378 . S
C1324 C1328 1.350 . S
C1325 C1328 1.463 . S
C1325 C1330 1.350 . S
C1325 N1333 1.427 . S
C1326 H1317 0.930 . S
C1326 C1324 1.378 . S
C1326 C1327 1.367 . S
C1327 C1326 1.367 . S
C1327 C1329 1.433 . S
C1328 C1324 1.350 . S
C1328 C1325 1.463 . S
C1328 N1332 1.427 . S
C1329 H1319 0.929 . S
C1329 C1327 1.433 . S
C1329 N1332 1.384 . S
C1330 H1321 0.929 . S
C1330 C1322 1.378 . S
C1330 C1325 1.350 . S
C1331 H1318 0.929 . S
C1331 C1323 1.433 . S
C1331 N1333 1.384 . S
N1332 C1328 1.427 . S
N1332 C1329 1.384 . S
N1333 C1325 1.427 . S
N1333 C1331 1.384 . S
H1334 C1340 0.930 . S
H1335 C1344 0.930 . S
H1336 C1349 0.929 . S
H1337 C1347 0.929 . S
H1338 C1342 0.929 . S
H1339 C1348 0.929 . S
C1340 H1334 0.930 . S
C1340 C1341 1.367 1_556 S
C1340 C1348 1.378 1_556 S
C1341 C1340 1.367 1_554 S
C1341 C1349 1.433 . S
C1342 H1338 0.929 . S
C1342 C1344 1.378 . S
C1342 C1346 1.350 . S
C1343 C1346 1.463 . S
C1343 C1348 1.350 . S
C1343 N1351 1.427 . S
C1344 H1335 0.930 . S
C1344 C1342 1.378 . S
C1344 C1345 1.367 . S
C1345 C1344 1.367 . S
C1345 C1347 1.433 . S
C1346 C1342 1.350 . S
C1346 C1343 1.463 . S
C1346 N1350 1.427 . S
C1347 H1337 0.929 . S
C1347 C1345 1.433 . S
C1347 N1350 1.384 . S
C1348 H1339 0.929 . S
C1348 C1340 1.378 1_554 S
C1348 C1343 1.350 . S
C1349 H1336 0.929 . S
C1349 C1341 1.433 . S
C1349 N1351 1.384 . S
N1350 C1346 1.427 . S
N1350 C1347 1.384 . S
N1351 C1343 1.427 . S
N1351 C1349 1.384 . S
H1352 C1358 0.930 . S
H1353 C1362 0.930 . S
H1354 C1367 0.929 . S
H1355 C1365 0.929 . S
H1356 C1360 0.929 . S
H1357 C1366 0.929 . S
C1358 H1352 0.930 . S
C1358 C1359 1.367 . S
C1358 C1366 1.378 . S
C1359 C1358 1.367 . S
C1359 C1367 1.433 . S
C1360 H1356 0.929 . S
C1360 C1362 1.378 . S
C1360 C1364 1.350 . S
C1361 C1364 1.463 . S
C1361 C1366 1.350 . S
C1361 N1369 1.427 . S
C1362 H1353 0.930 . S
C1362 C1360 1.378 . S
C1362 C1363 1.367 . S
C1363 C1362 1.367 . S
C1363 C1365 1.433 . S
C1364 C1360 1.350 . S
C1364 C1361 1.463 . S
C1364 N1368 1.427 . S
C1365 H1355 0.929 . S
C1365 C1363 1.433 . S
C1365 N1368 1.384 . S
C1366 H1357 0.929 . S
C1366 C1358 1.378 . S
C1366 C1361 1.350 . S
C1367 H1354 0.929 . S
C1367 C1359 1.433 . S
C1367 N1369 1.384 . S
N1368 C1364 1.427 . S
N1368 C1365 1.384 . S
N1369 C1361 1.427 . S
N1369 C1367 1.384 . S
H1370 C1376 0.930 . S
H1371 C1380 0.930 . S
H1372 C1385 0.929 . S
H1373 C1383 0.929 . S
H1374 C1378 0.929 . S
H1375 C1384 0.929 . S
C1376 H1370 0.930 . S
C1376 C1377 1.367 . S
C1376 C1384 1.378 . S
C1377 C1376 1.367 . S
C1377 C1385 1.433 . S
C1378 H1374 0.929 . S
C1378 C1380 1.378 . S
C1378 C1382 1.350 . S
C1379 C1382 1.463 . S
C1379 C1384 1.350 . S
C1379 N1387 1.427 . S
C1380 H1371 0.930 . S
C1380 C1378 1.378 . S
C1380 C1381 1.367 . S
C1381 C1380 1.367 . S
C1381 C1383 1.433 . S
C1382 C1378 1.350 . S
C1382 C1379 1.463 . S
C1382 N1386 1.427 . S
C1383 H1373 0.929 . S
C1383 C1381 1.433 . S
C1383 N1386 1.384 . S
C1384 H1375 0.929 . S
C1384 C1376 1.378 . S
C1384 C1379 1.350 . S
C1385 H1372 0.929 . S
C1385 C1377 1.433 . S
C1385 N1387 1.384 . S
N1386 C1382 1.427 . S
N1386 C1383 1.384 . S
N1387 C1379 1.427 . S
N1387 C1385 1.384 . S
H1388 C1394 0.930 . S
H1389 C1398 0.930 . S
H1390 C1403 0.929 . S
H1391 C1401 0.929 . S
H1392 C1396 0.929 . S
H1393 C1402 0.929 . S
C1394 H1388 0.930 . S
C1394 C1395 1.367 . S
C1394 C1402 1.378 . S
C1395 C1394 1.367 . S
C1395 C1403 1.433 . S
C1396 H1392 0.929 . S
C1396 C1398 1.378 1_554 S
C1396 C1400 1.350 . S
C1397 C1400 1.463 . S
C1397 C1402 1.350 . S
C1397 N1405 1.427 . S
C1398 H1389 0.930 . S
C1398 C1396 1.378 1_556 S
C1398 C1399 1.367 1_556 S
C1399 C1398 1.367 1_554 S
C1399 C1401 1.433 . S
C1400 C1396 1.350 . S
C1400 C1397 1.463 . S
C1400 N1404 1.427 . S
C1401 H1391 0.929 . S
C1401 C1399 1.433 . S
C1401 N1404 1.384 . S
C1402 H1393 0.929 . S
C1402 C1394 1.378 . S
C1402 C1397 1.350 . S
C1403 H1390 0.929 . S
C1403 C1395 1.433 . S
C1403 N1405 1.384 . S
N1404 C1400 1.427 . S
N1404 C1401 1.384 . S
N1405 C1397 1.427 . S
N1405 C1403 1.384 . S
H1406 C1412 0.930 . S
H1407 C1416 0.930 . S
H1408 C1421 0.929 . S
H1409 C1419 0.929 1_554 S
H1410 C1414 0.929 . S
H1411 C1420 0.929 . S
C1412 H1406 0.930 . S
C1412 C1413 1.367 . S
C1412 C1420 1.378 . S
C1413 C1412 1.367 . S
C1413 C1421 1.433 . S
C1414 H1410 0.929 . S
C1414 C1416 1.378 . S
C1414 C1418 1.350 . S
C1415 C1418 1.463 . S
C1415 C1420 1.350 . S
C1415 N1423 1.427 . S
C1416 H1407 0.930 . S
C1416 C1414 1.378 . S
C1416 C1417 1.367 . S
C1417 C1416 1.367 . S
C1417 C1419 1.433 . S
C1418 C1414 1.350 . S
C1418 C1415 1.463 . S
C1418 N1422 1.427 . S
C1419 H1409 0.929 1_556 S
C1419 C1417 1.433 . S
C1419 N1422 1.384 . S
C1420 H1411 0.929 . S
C1420 C1412 1.378 . S
C1420 C1415 1.350 . S
C1421 H1408 0.929 . S
C1421 C1413 1.433 . S
C1421 N1423 1.384 . S
N1422 C1418 1.427 . S
N1422 C1419 1.384 . S
N1423 C1415 1.427 . S
N1423 C1421 1.384 . S
H1424 C1430 0.930 . S
H1425 C1434 0.930 . S
H1426 C1439 0.929 . S
H1427 C1437 0.929 . S
H1428 C1432 0.929 . S
H1429 C1438 0.929 . S
C1430 H1424 0.930 . S
C1430 C1431 1.367 . S
C1430 C1438 1.378 . S
C1431 C1430 1.367 . S
C1431 C1439 1.433 . S
C1432 H1428 0.929 . S
C1432 C1434 1.378 . S
C1432 C1436 1.350 . S
C1433 C1436 1.463 . S
C1433 C1438 1.350 . S
C1433 N1441 1.427 . S
C1434 H1425 0.930 . S
C1434 C1432 1.378 . S
C1434 C1435 1.367 . S
C1435 C1434 1.367 . S
C1435 C1437 1.433 . S
C1436 C1432 1.350 . S
C1436 C1433 1.463 . S
C1436 N1440 1.427 . S
C1437 H1427 0.929 . S
C1437 C1435 1.433 . S
C1437 N1440 1.384 . S
C1438 H1429 0.929 . S
C1438 C1430 1.378 . S
C1438 C1433 1.350 . S
C1439 H1426 0.929 . S
C1439 C1431 1.433 . S
C1439 N1441 1.384 . S
N1440 C1436 1.427 . S
N1440 C1437 1.384 . S
N1441 C1433 1.427 . S
N1441 C1439 1.384 . S
H1442 C1448 0.930 . S
H1443 C1452 0.930 . S
H1444 C1457 0.929 . S
H1445 C1455 0.929 . S
H1446 C1450 0.929 . S
H1447 C1456 0.929 . S
C1448 H1442 0.930 . S
C1448 C1449 1.367 . S
C1448 C1456 1.378 . S
C1449 C1448 1.367 . S
C1449 C1457 1.433 . S
C1450 H1446 0.929 . S
C1450 C1452 1.378 . S
C1450 C1454 1.350 . S
C1451 C1454 1.463 . S
C1451 C1456 1.350 . S
C1451 N1459 1.427 . S
C1452 H1443 0.930 . S
C1452 C1450 1.378 . S
C1452 C1453 1.367 . S
C1453 C1452 1.367 . S
C1453 C1455 1.433 1_554 S
C1454 C1450 1.350 . S
C1454 C1451 1.463 . S
C1454 N1458 1.427 . S
C1455 H1445 0.929 . S
C1455 C1453 1.433 1_556 S
C1455 N1458 1.384 1_556 S
C1456 H1447 0.929 . S
C1456 C1448 1.378 . S
C1456 C1451 1.350 . S
C1457 H1444 0.929 . S
C1457 C1449 1.433 . S
C1457 N1459 1.384 . S
N1458 C1454 1.427 . S
N1458 C1455 1.384 1_554 S
N1459 C1451 1.427 . S
N1459 C1457 1.384 . S
H1460 C1466 0.930 . S
H1461 C1470 0.930 . S
H1462 C1475 0.929 . S
H1463 C1473 0.929 . S
H1464 C1468 0.929 . S
H1465 C1474 0.929 . S
C1466 H1460 0.930 . S
C1466 C1467 1.367 . S
C1466 C1474 1.378 . S
C1467 C1466 1.367 . S
C1467 C1475 1.433 . S
C1468 H1464 0.929 . S
C1468 C1470 1.378 . S
C1468 C1472 1.350 . S
C1469 C1472 1.463 . S
C1469 C1474 1.350 . S
C1469 N1477 1.427 . S
C1470 H1461 0.930 . S
C1470 C1468 1.378 . S
C1470 C1471 1.367 . S
C1471 C1470 1.367 . S
C1471 C1473 1.433 . S
C1472 C1468 1.350 . S
C1472 C1469 1.463 . S
C1472 N1476 1.427 . S
C1473 H1463 0.929 . S
C1473 C1471 1.433 . S
C1473 N1476 1.384 . S
C1474 H1465 0.929 . S
C1474 C1466 1.378 . S
C1474 C1469 1.350 . S
C1475 H1462 0.929 . S
C1475 C1467 1.433 . S
C1475 N1477 1.384 . S
N1476 C1472 1.427 . S
N1476 C1473 1.384 . S
N1477 C1469 1.427 . S
N1477 C1475 1.384 . S
H1478 C1484 0.930 . S
H1479 C1488 0.930 . S
H1480 C1493 0.929 . S
H1481 C1491 0.929 . S
H1482 C1486 0.929 . S
H1483 C1492 0.929 . S
C1484 H1478 0.930 . S
C1484 C1485 1.367 . S
C1484 C1492 1.378 . S
C1485 C1484 1.367 . S
C1485 C1493 1.433 . S
C1486 H1482 0.929 . S
C1486 C1488 1.378 . S
C1486 C1490 1.350 . S
C1487 C1490 1.463 . S
C1487 C1492 1.350 . S
C1487 N1495 1.427 . S
C1488 H1479 0.930 . S
C1488 C1486 1.378 . S
C1488 C1489 1.367 . S
C1489 C1488 1.367 . S
C1489 C1491 1.433 . S
C1490 C1486 1.350 . S
C1490 C1487 1.463 . S
C1490 N1494 1.427 . S
C1491 H1481 0.929 . S
C1491 C1489 1.433 . S
C1491 N1494 1.384 . S
C1492 H1483 0.929 . S
C1492 C1484 1.378 . S
C1492 C1487 1.350 . S
C1493 H1480 0.929 . S
C1493 C1485 1.433 . S
C1493 N1495 1.384 . S
N1494 C1490 1.427 . S
N1494 C1491 1.384 . S
N1495 C1487 1.427 . S
N1495 C1493 1.384 . S
H1496 C1502 0.930 . S
H1497 C1506 0.930 . S
H1498 C1511 0.929 . S
H1499 C1509 0.929 . S
H1500 C1504 0.929 . S
H1501 C1510 0.929 . S
C1502 H1496 0.930 . S
C1502 C1503 1.367 . S
C1502 C1510 1.378 . S
C1503 C1502 1.367 . S
C1503 C1511 1.433 . S
C1504 H1500 0.929 . S
C1504 C1506 1.378 1_554 S
C1504 C1508 1.350 . S
C1505 C1508 1.463 . S
C1505 C1510 1.350 . S
C1505 N1513 1.427 . S
C1506 H1497 0.930 . S
C1506 C1504 1.378 1_556 S
C1506 C1507 1.367 1_556 S
C1507 C1506 1.367 1_554 S
C1507 C1509 1.433 . S
C1508 C1504 1.350 . S
C1508 C1505 1.463 . S
C1508 N1512 1.427 . S
C1509 H1499 0.929 . S
C1509 C1507 1.433 . S
C1509 N1512 1.384 . S
C1510 H1501 0.929 . S
C1510 C1502 1.378 . S
C1510 C1505 1.350 . S
C1511 H1498 0.929 . S
C1511 C1503 1.433 . S
C1511 N1513 1.384 . S
N1512 C1508 1.427 . S
N1512 C1509 1.384 . S
N1513 C1505 1.427 . S
N1513 C1511 1.384 . S
H1514 C1520 0.930 . S
H1515 C1524 0.930 . S
H1516 C1529 0.929 . S
H1517 C1527 0.929 . S
H1518 C1522 0.929 . S
H1519 C1528 0.929 . S
C1520 H1514 0.930 . S
C1520 C1521 1.367 . S
C1520 C1528 1.378 . S
C1521 C1520 1.367 . S
C1521 C1529 1.433 1_556 S
C1522 H1518 0.929 . S
C1522 C1524 1.378 . S
C1522 C1526 1.350 . S
C1523 C1526 1.463 . S
C1523 C1528 1.350 . S
C1523 N1531 1.427 . S
C1524 H1515 0.930 . S
C1524 C1522 1.378 . S
C1524 C1525 1.367 . S
C1525 C1524 1.367 . S
C1525 C1527 1.433 . S
C1526 C1522 1.350 . S
C1526 C1523 1.463 . S
C1526 N1530 1.427 . S
C1527 H1517 0.929 . S
C1527 C1525 1.433 . S
C1527 N1530 1.384 . S
C1528 H1519 0.929 . S
C1528 C1520 1.378 . S
C1528 C1523 1.350 . S
C1529 H1516 0.929 . S
C1529 C1521 1.433 1_554 S
C1529 N1531 1.384 1_554 S
N1530 C1526 1.427 . S
N1530 C1527 1.384 . S
N1531 C1523 1.427 . S
N1531 C1529 1.384 1_556 S
H1532 C1538 0.930 . S
H1533 C1542 0.930 . S
H1534 C1547 0.929 . S
H1535 C1545 0.929 . S
H1536 C1540 0.929 . S
H1537 C1546 0.929 . S
C1538 H1532 0.930 . S
C1538 C1539 1.367 . S
C1538 C1546 1.378 . S
C1539 C1538 1.367 . S
C1539 C1547 1.433 . S
C1540 H1536 0.929 . S
C1540 C1542 1.378 . S
C1540 C1544 1.350 . S
C1541 C1544 1.463 . S
C1541 C1546 1.350 . S
C1541 N1549 1.427 . S
C1542 H1533 0.930 . S
C1542 C1540 1.378 . S
C1542 C1543 1.367 . S
C1543 C1542 1.367 . S
C1543 C1545 1.433 . S
C1544 C1540 1.350 . S
C1544 C1541 1.463 . S
C1544 N1548 1.427 . S
C1545 H1535 0.929 . S
C1545 C1543 1.433 . S
C1545 N1548 1.384 . S
C1546 H1537 0.929 . S
C1546 C1538 1.378 . S
C1546 C1541 1.350 . S
C1547 H1534 0.929 . S
C1547 C1539 1.433 . S
C1547 N1549 1.384 . S
N1548 C1544 1.427 . S
N1548 C1545 1.384 . S
N1549 C1541 1.427 . S
N1549 C1547 1.384 . S
H1550 C1556 0.930 . S
H1551 C1560 0.930 . S
H1552 C1565 0.929 . S
H1553 C1563 0.929 . S
H1554 C1558 0.929 . S
H1555 C1564 0.929 . S
C1556 H1550 0.930 . S
C1556 C1557 1.367 . S
C1556 C1564 1.378 . S
C1557 C1556 1.367 . S
C1557 C1565 1.433 . S
C1558 H1554 0.929 . S
C1558 C1560 1.378 . S
C1558 C1562 1.350 . S
C1559 C1562 1.463 . S
C1559 C1564 1.350 . S
C1559 N1567 1.427 . S
C1560 H1551 0.930 . S
C1560 C1558 1.378 . S
C1560 C1561 1.367 . S
C1561 C1560 1.367 . S
C1561 C1563 1.433 . S
C1562 C1558 1.350 . S
C1562 C1559 1.463 . S
C1562 N1566 1.427 . S
C1563 H1553 0.929 . S
C1563 C1561 1.433 . S
C1563 N1566 1.384 . S
C1564 H1555 0.929 . S
C1564 C1556 1.378 . S
C1564 C1559 1.350 . S
C1565 H1552 0.929 . S
C1565 C1557 1.433 . S
C1565 N1567 1.384 . S
N1566 C1562 1.427 . S
N1566 C1563 1.384 . S
N1567 C1559 1.427 . S
N1567 C1565 1.384 . S
C423 C81 1.556 . S
C427 C3 1.556 . S
C441 C16 1.555 . S
C445 C94 1.555 . S
C459 C57 1.556 . S
C463 C29 1.556 . S
C477 C42 1.555 . S
C481 C70 1.555 . S
C495 C107 1.556 . S
C499 C187 1.556 . S
C513 C200 1.555 . S
C517 C122 1.555 . S
C531 C133 1.557 . S
C535 C161 1.557 . S
C549 C172 1.555 . S
C553 C146 1.555 . S
C567 C211 1.555 . S
C571 C291 1.555 . S
C585 C226 1.555 . S
C589 C304 1.556 . S
C603 C265 1.557 . S
C607 C239 1.557 . S
C621 C276 1.555 . S
C625 C250 1.555 . S
C639 C315 1.557 . S
C643 C395 1.557 . S
C657 C328 1.555 . S
C661 C408 1.555 . S
C675 C367 1.555 . S
C679 C341 1.555 . S
C693 C354 1.557 . S
C697 C380 1.557 . S
C711 C10 1.597 1_556 S
C715 C101 1.595 . S
C729 C56 1.598 1_554 S
C733 C23 1.599 . S
C747 C69 1.596 . S
C751 C36 1.598 . S
C765 C49 1.596 . S
C769 C88 1.594 . S
C783 C114 1.593 1_554 S
C787 C199 1.593 . S
C801 C160 1.593 1_556 S
C805 C121 1.595 . S
C819 C179 1.598 . S
C823 C140 1.597 . S
C837 C186 1.597 . S
C841 C153 1.595 . S
C855 C218 1.593 . S
C859 C303 1.594 . S
C873 C225 1.593 . S
C877 C264 1.593 . S
C891 C283 1.597 . S
C895 C238 1.598 1_556 S
C909 C257 1.593 . S
C913 C290 1.593 1_554 S
C927 C322 1.596 . S
C931 C407 1.597 . S
C945 C374 1.595 . S
C949 C335 1.597 . S
C963 C348 1.598 1_554 S
C967 C387 1.596 . S
C981 C361 1.593 . S
C985 C394 1.593 1_556 S
C999 C393 1.556 . S
C1003 C5 1.552 . S
C1017 C198 1.552 . S
C1021 C18 1.555 . S
C1035 C31 1.552 . S
C1039 C369 1.555 . S
C1053 C44 1.552 . S
C1057 C174 1.555 . S
C1071 C55 1.553 . S
C1075 C343 1.554 . S
C1089 C68 1.552 . S
C1093 C148 1.556 . S
C1107 C83 1.552 . S
C1111 C317 1.555 . S
C1125 C120 1.555 . S
C1129 C96 1.552 . S
C1143 C289 1.553 . S
C1147 C109 1.554 . S
C1161 C135 1.552 . S
C1165 C263 1.555 . S
C1179 C237 1.552 . S
C1183 C159 1.555 . S
C1197 C213 1.555 . S
C1201 C185 1.552 . S
C1215 C224 1.552 . S
C1219 C406 1.555 . S
C1233 C252 1.552 . S
C1237 C382 1.555 . S
C1251 C278 1.552 . S
C1255 C356 1.555 . S
C1269 C330 1.555 . S
C1273 C302 1.552 . S
C1287 C4 1.444 . S
C1291 C95 1.441 . S
C1305 C17 1.441 . S
C1309 C62 1.442 . S
C1323 C75 1.444 1_556 S
C1327 C30 1.442 . S
C1341 C43 1.444 1_554 S
C1345 C82 1.443 . S
C1359 C205 1.443 . S
C1363 C108 1.441 . S
C1377 C166 1.443 . S
C1381 C127 1.444 . S
C1395 C134 1.444 . S
C1399 C173 1.443 1_554 S
C1413 C192 1.441 . S
C1417 C147 1.443 1_556 S
C1431 C309 1.441 1_556 S
C1435 C212 1.444 . S
C1449 C270 1.441 . S
C1453 C231 1.442 1_554 S
C1467 C277 1.441 . S
C1471 C244 1.442 . S
C1485 C296 1.441 . S
C1489 C251 1.443 . S
C1503 C316 1.444 . S
C1507 C413 1.442 1_554 S
C1521 C329 1.442 1_556 S
C1525 C368 1.442 . S
C1539 C342 1.442 . S
C1543 C381 1.441 . S
C1557 C400 1.444 . S
C1561 C355 1.442 . S
