# Generated by pormake.
# Topology vby, (6)-cn, num edge types: 1
# Building blocks:
#     Node 0, Type 0, BuildingBlock: MIDCAF_clean_sbu_0, # of connection points: 6
#     Node 1, Type 0, BuildingBlock: MIDCAF_clean_sbu_0, # of connection points: 6
#     Node 2, Type 0, BuildingBlock: MIDCAF_clean_sbu_0, # of connection points: 6
#     Node 3, Type 0, BuildingBlock: MIDCAF_clean_sbu_0, # of connection points: 6
#     Node 4, Type 0, BuildingBlock: MIDCAF_clean_sbu_0, # of connection points: 6
#     Node 5, Type 0, BuildingBlock: MIDCAF_clean_sbu_0, # of connection points: 6
#     Node 6, Type 0, BuildingBlock: MIDCAF_clean_sbu_0, # of connection points: 6
#     Node 7, Type 0, BuildingBlock: MIDCAF_clean_sbu_0, # of connection points: 6
#     Edge 8, Type (0, 0), BuildingBlock: MIFKUJ_clean_linker_0, # of connection points: 2
#     Edge 9, Type (0, 0), BuildingBlock: MIFKUJ_clean_linker_0, # of connection points: 2
#     Edge 10, Type (0, 0), BuildingBlock: MIFKUJ_clean_linker_0, # of connection points: 2
#     Edge 11, Type (0, 0), BuildingBlock: MIFKUJ_clean_linker_0, # of connection points: 2
#     Edge 12, Type (0, 0), BuildingBlock: MIFKUJ_clean_linker_0, # of connection points: 2
#     Edge 13, Type (0, 0), BuildingBlock: MIFKUJ_clean_linker_0, # of connection points: 2
#     Edge 14, Type (0, 0), BuildingBlock: MIFKUJ_clean_linker_0, # of connection points: 2
#     Edge 15, Type (0, 0), BuildingBlock: MIFKUJ_clean_linker_0, # of connection points: 2
#     Edge 16, Type (0, 0), BuildingBlock: MIFKUJ_clean_linker_0, # of connection points: 2
#     Edge 17, Type (0, 0), BuildingBlock: MIFKUJ_clean_linker_0, # of connection points: 2
#     Edge 18, Type (0, 0), BuildingBlock: MIFKUJ_clean_linker_0, # of connection points: 2
#     Edge 19, Type (0, 0), BuildingBlock: MIFKUJ_clean_linker_0, # of connection points: 2
#     Edge 20, Type (0, 0), BuildingBlock: MIFKUJ_clean_linker_0, # of connection points: 2
#     Edge 21, Type (0, 0), BuildingBlock: MIFKUJ_clean_linker_0, # of connection points: 2
#     Edge 22, Type (0, 0), BuildingBlock: MIFKUJ_clean_linker_0, # of connection points: 2
#     Edge 23, Type (0, 0), BuildingBlock: MIFKUJ_clean_linker_0, # of connection points: 2
#     Edge 24, Type (0, 0), BuildingBlock: MIFKUJ_clean_linker_0, # of connection points: 2
#     Edge 25, Type (0, 0), BuildingBlock: MIFKUJ_clean_linker_0, # of connection points: 2
#     Edge 26, Type (0, 0), BuildingBlock: MIFKUJ_clean_linker_0, # of connection points: 2
#     Edge 27, Type (0, 0), BuildingBlock: MIFKUJ_clean_linker_0, # of connection points: 2
#     Edge 28, Type (0, 0), BuildingBlock: MIFKUJ_clean_linker_0, # of connection points: 2
#     Edge 29, Type (0, 0), BuildingBlock: MIFKUJ_clean_linker_0, # of connection points: 2
#     Edge 30, Type (0, 0), BuildingBlock: MIFKUJ_clean_linker_0, # of connection points: 2
#     Edge 31, Type (0, 0), BuildingBlock: MIFKUJ_clean_linker_0, # of connection points: 2
# Relax obj value: 0.139
# Max RMSD: 0.180
# Mean RMSD: 0.180
data_MOF--net-vby--node1-MIDCAF_clean_sbu_0--edge1-MIFKUJ_clean_linker_0
_symmetry_space_group_name_H-M    P1
_symmetry_Int_Tables_number       1
_symmetry_cell_setting            triclinic
loop_
_symmetry_equiv_pos_as_xyz
'x, y, z'
_cell_length_a     19.335448
_cell_length_b     75.975594
_cell_length_c     39.19929
_cell_angle_alpha  90.04111
_cell_angle_beta   90.036764
_cell_angle_gamma 90.072008
loop_
_atom_site_label
_atom_site_type_symbol
_atom_site_fract_x
_atom_site_fract_y
_atom_site_fract_z
_atom_type_partial_charge
Zn0 Zn 0.02291 0.35694 0.02888 0.0
Zn1 Zn 0.14902 0.40862 0.96923 0.0
Zn2 Zn 0.09001 0.38197 0.99723 0.0
C3 C 0.09901 0.42297 0.02663 0.0
C4 C 0.05908 0.39527 0.92048 0.0
O5 O 0.1615 0.35897 1.00252 0.0
O6 O 0.09963 0.34007 0.03282 0.0
C7 C 0.01878 0.38569 0.07236 0.0
O8 O 0.08258 0.40656 0.03017 0.0
O9 O 0.12884 0.42815 0.99991 0.0
O10 O 0.10286 0.40745 0.92427 0.0
O11 O 0.04449 0.38503 0.94566 0.0
O12 O 0.99511 0.37024 0.07011 0.0
O13 O 0.05541 0.39216 0.04784 0.0
O14 O -0.00172 0.37494 0.96608 0.0
O15 O 0.95182 0.35239 0.99348 0.0
C16 C 0.95121 0.36299 0.9687 0.0
O17 O 0.19817 0.37351 0.98874 0.0
O18 O 0.24319 0.39886 0.97209 0.0
C19 C 0.15493 0.34393 0.0175 0.0
C20 C 0.25074 0.38286 0.97981 0.0
Zn21 Zn 0.8405 0.60768 0.97892 0.0
Zn22 Zn 0.01333 0.64876 0.03607 0.0
Zn23 Zn 0.92576 0.63045 0.00359 0.0
C24 C 0.0788 0.63925 0.97649 0.0
C25 C 0.98459 0.62321 0.08125 0.0
O26 O 0.82487 0.64432 0.99863 0.0
O27 O 0.75651 0.62188 0.98559 0.0
C28 C 0.93519 0.61655 0.92691 0.0
O29 O 0.0176 0.63358 0.96938 0.0
O30 O 0.09212 0.64544 0.00558 0.0
O31 O 0.01764 0.63752 0.08114 0.0
O32 O 0.951 0.61832 0.05433 0.0
O33 O 0.88123 0.60762 0.93248 0.0
O34 O 0.96326 0.62549 0.95122 0.0
O35 O 0.92326 0.60504 0.034 0.0
O36 O 0.85284 0.5867 0.00731 0.0
C37 C 0.89496 0.58964 0.03119 0.0
O38 O 0.87483 0.65656 0.01096 0.0
O39 O 0.96459 0.6713 0.03106 0.0
C40 C 0.76428 0.63799 0.9924 0.0
C41 C 0.90324 0.67121 0.02008 0.0
Zn42 Zn 0.11335 0.60661 0.53496 0.0
Zn43 Zn 0.01545 0.65253 0.45209 0.0
Zn44 Zn 0.05926 0.63083 0.49838 0.0
C45 C 0.91528 0.65056 0.50549 0.0
C46 C 0.02553 0.62193 0.41744 0.0
O47 O 0.16339 0.64033 0.51442 0.0
O48 O 0.19796 0.61909 0.5489 0.0
C49 C 0.99631 0.61835 0.56976 0.0
O50 O 0.95993 0.64028 0.51955 0.0
O51 O 0.92747 0.65704 0.47642 0.0
O52 O 0.01286 0.63782 0.41086 0.0
O53 O 0.04161 0.61719 0.44807 0.0
O54 O 0.03925 0.60586 0.56948 0.0
O55 O 0.99478 0.62948 0.54496 0.0
O56 O 0.06354 0.60455 0.47136 0.0
O57 O 0.1234 0.58641 0.50408 0.0
C58 C 0.09076 0.58927 0.47683 0.0
O59 O 0.13176 0.65375 0.49525 0.0
O60 O 0.08716 0.67075 0.45511 0.0
C61 C 0.20846 0.63387 0.53519 0.0
C62 C 0.13273 0.66806 0.47751 0.0
Zn63 Zn 0.00405 0.35888 0.45429 0.0
Zn64 Zn 0.89415 0.40134 0.53446 0.0
Zn65 Zn 0.94776 0.37757 0.49571 0.0
C66 C 0.91274 0.4187 0.47485 0.0
C67 C 0.0109 0.39023 0.56872 0.0
O68 O 0.88471 0.35295 0.49383 0.0
O69 O 0.96794 0.33651 0.47242 0.0
C70 C 0.96024 0.38402 0.41412 0.0
O71 O 0.93885 0.40342 0.46825 0.0
O72 O 0.88397 0.4215 0.50318 0.0
O73 O 0.96657 0.40239 0.57004 0.0
O74 O 0.01223 0.37973 0.54285 0.0
O75 O 0.96879 0.36771 0.41019 0.0
O76 O 0.95834 0.39061 0.44448 0.0
O77 O 0.04926 0.37088 0.51647 0.0
O78 O 0.10025 0.36502 0.46741 0.0
C79 C 0.10427 0.36777 0.4991 0.0
O80 O 0.84687 0.36651 0.51057 0.0
O81 O 0.8114 0.38734 0.54602 0.0
C82 C 0.91 0.33764 0.48699 0.0
C83 C 0.80196 0.37265 0.5317 0.0
Zn84 Zn 0.45413 0.85897 0.04443 0.0
Zn85 Zn 0.59426 0.90435 0.97777 0.0
Zn86 Zn 0.53012 0.87932 0.008 0.0
C87 C 0.55089 0.92098 0.03347 0.0
C88 C 0.49675 0.89212 0.9312 0.0
O89 O 0.59535 0.8554 0.01612 0.0
O90 O 0.52159 0.83979 0.04676 0.0
C91 C 0.46816 0.8873 0.08525 0.0
O92 O 0.5288 0.90503 0.03758 0.0
O93 O 0.5846 0.92497 0.00711 0.0
O94 O 0.5431 0.90373 0.93422 0.0
O95 O 0.48207 0.88204 0.95666 0.0
O96 O 0.43608 0.87285 0.08594 0.0
O97 O 0.50384 0.89158 0.05861 0.0
O98 O 0.43601 0.87242 0.97752 0.0
O99 O 0.37794 0.85495 0.01242 0.0
C100 C 0.38321 0.86259 0.98403 0.0
O101 O 0.63583 0.8686 0.99921 0.0
O102 O 0.68458 0.89264 0.97829 0.0
C103 C 0.579 0.84102 0.03166 0.0
C104 C 0.6893 0.87681 0.98764 0.0
Zn105 Zn 0.35825 0.10474 0.9738 0.0
Zn106 Zn 0.46319 0.15301 0.04771 0.0
Zn107 Zn 0.40694 0.13028 0.00923 0.0
C108 C 0.54725 0.15129 0.99088 0.0
C109 C 0.46499 0.12373 0.08712 0.0
O110 O 0.30089 0.13912 0.99514 0.0
O111 O 0.26918 0.11617 0.96428 0.0
C112 C 0.46636 0.11692 0.93574 0.0
O113 O 0.50371 0.13897 0.98369 0.0
O114 O 0.53926 0.16039 0.01751 0.0
O115 O 0.48886 0.13916 0.08791 0.0
O116 O 0.43167 0.1183 0.06049 0.0
O117 O 0.425 0.10407 0.9358 0.0
O118 O 0.46734 0.12775 0.96109 0.0
O119 O 0.40399 0.10506 0.04003 0.0
O120 O 0.35637 0.08514 0.00613 0.0
C121 C 0.38219 0.0892 0.03458 0.0
O122 O 0.33566 0.15347 0.01232 0.0
O123 O 0.38642 0.16965 0.05198 0.0
C124 C 0.25552 0.13112 0.9766 0.0
C125 C 0.33783 0.1675 0.03091 0.0
Zn126 Zn 0.64613 0.10329 0.52934 0.0
Zn127 Zn 0.47853 0.14773 0.47194 0.0
Zn128 Zn 0.56426 0.12772 0.50563 0.0
C129 C 0.41429 0.13945 0.53384 0.0
C130 C 0.49931 0.1206 0.42874 0.0
O131 O 0.66773 0.14021 0.51226 0.0
O132 O 0.73208 0.11705 0.52538 0.0
C133 C 0.55199 0.11333 0.58145 0.0
O134 O 0.47244 0.1317 0.53966 0.0
O135 O 0.40329 0.1469 0.50561 0.0
O136 O 0.46682 0.13497 0.42828 0.0
O137 O 0.53512 0.11616 0.45517 0.0
O138 O 0.60213 0.10315 0.57525 0.0
O139 O 0.52664 0.12305 0.55762 0.0
O140 O 0.56474 0.10272 0.4743 0.0
O141 O 0.63399 0.08319 0.49838 0.0
C142 C 0.59222 0.08722 0.47499 0.0
O143 O 0.62091 0.1529 0.49827 0.0
O144 O 0.53867 0.1687 0.47389 0.0
C145 C 0.72693 0.13329 0.5193 0.0
C146 C 0.59861 0.1677 0.48656 0.0
Zn147 Zn 0.48279 0.85576 0.46374 0.0
Zn148 Zn 0.38253 0.90248 0.54344 0.0
Zn149 Zn 0.43136 0.87795 0.50599 0.0
C150 C 0.40313 0.91939 0.48388 0.0
C151 C 0.49277 0.88982 0.57962 0.0
O152 O 0.35834 0.85527 0.5016 0.0
O153 O 0.40539 0.83905 0.46097 0.0
C154 C 0.48159 0.88605 0.42735 0.0
O155 O 0.42739 0.90386 0.47759 0.0
O156 O 0.37547 0.92256 0.51232 0.0
O157 O 0.45318 0.90301 0.57965 0.0
O158 O 0.49264 0.87914 0.55401 0.0
O159 O 0.50321 0.87052 0.42394 0.0
O160 O 0.45278 0.89096 0.45553 0.0
O161 O 0.5293 0.86862 0.5294 0.0
O162 O 0.56229 0.84866 0.49189 0.0
C163 C 0.57264 0.85679 0.51949 0.0
O164 O 0.32686 0.86884 0.52091 0.0
O165 O 0.29599 0.89032 0.55568 0.0
C166 C 0.35789 0.84142 0.48252 0.0
C167 C 0.28295 0.87573 0.54171 0.0
H168 H 0.29077 0.35122 0.95232 0.0
H169 H 0.40972 0.34283 0.93669 0.0
H170 H 0.48611 0.39055 0.98313 0.0
H171 H 0.36865 0.39872 0.99897 0.0
H172 H 0.52534 0.3859 0.914 0.0
H173 H 0.51136 0.35215 0.02125 0.0
H174 H 0.45753 0.32888 0.05622 0.0
H175 H 0.5036 0.2906 0.97888 0.0
H176 H 0.55697 0.31372 0.94326 0.0
H177 H 0.8727 0.39136 0.95512 0.0
H178 H 0.75034 0.39057 0.94174 0.0
H179 H 0.76437 0.33482 0.92077 0.0
H180 H 0.88621 0.33545 0.93775 0.0
H181 H 0.66943 0.3377 0.96065 0.0
H182 H 0.70479 0.3697 0.85792 0.0
H183 H 0.75056 0.39256 0.81906 0.0
H184 H 0.65909 0.43289 0.88086 0.0
H185 H 0.61305 0.41042 0.92007 0.0
C186 C 0.33338 0.35948 0.96029 0.0
C187 C 0.32088 0.3755 0.97707 0.0
C188 C 0.40103 0.35484 0.95095 0.0
C189 C 0.45639 0.36623 0.95835 0.0
C190 C 0.44398 0.3817 0.9768 0.0
C191 C 0.37699 0.38629 0.98606 0.0
C192 C 0.52738 0.36289 0.94585 0.0
C193 C 0.55728 0.37536 0.92399 0.0
C194 C 0.56742 0.34861 0.9575 0.0
C195 C 0.53752 0.33468 0.97948 0.0
C196 C 0.50973 0.33878 0.01165 0.0
C197 C 0.47932 0.32563 0.03158 0.0
C198 C 0.47697 0.30828 0.01973 0.0
C199 C 0.50537 0.30405 0.988 0.0
C200 C 0.53577 0.31717 0.96795 0.0
C201 C 0.85031 0.3791 0.9462 0.0
C202 C 0.88857 0.36348 0.94746 0.0
C203 C 0.77989 0.37862 0.93831 0.0
C204 C 0.74705 0.36261 0.92998 0.0
C205 C 0.78775 0.34732 0.92743 0.0
C206 C 0.85763 0.3477 0.93669 0.0
C207 C 0.66987 0.36142 0.92996 0.0
C208 C 0.63815 0.34803 0.94943 0.0
C209 C 0.62772 0.37474 0.91551 0.0
C210 C 0.65566 0.38833 0.892 0.0
C211 C 0.69485 0.38345 0.86332 0.0
C212 C 0.72075 0.39633 0.84123 0.0
C213 C 0.70795 0.41412 0.84758 0.0
C214 C 0.66896 0.4191 0.87596 0.0
C215 C 0.64271 0.4063 0.89804 0.0
H216 H 0.72813 0.42404 0.83047 0.0
H217 H 0.45332 0.29812 0.03518 0.0
H218 H 0.16851 0.61275 0.96451 0.0
H219 H 0.29078 0.61804 0.95228 0.0
H220 H 0.2441 0.67178 0.92562 0.0
H221 H 0.12188 0.66645 0.93797 0.0
H222 H 0.38724 0.63254 0.90545 0.0
H223 H 0.34411 0.6968 0.97718 0.0
H224 H 0.25674 0.71105 0.01389 0.0
H225 H 0.19337 0.66053 0.05179 0.0
H226 H 0.28051 0.64603 0.01542 0.0
H227 H 0.72754 0.65946 0.94046 0.0
H228 H 0.6074 0.66639 0.9253 0.0
H229 H 0.53956 0.64621 0.02253 0.0
H230 H 0.65916 0.63922 0.03741 0.0
H231 H 0.45486 0.67298 0.99941 0.0
H232 H 0.5587 0.61862 0.95794 0.0
H233 H 0.647 0.60202 0.92594 0.0
H234 H 0.58943 0.62888 0.83385 0.0
H235 H 0.50149 0.64585 0.86551 0.0
C236 C 0.1837 0.6253 0.95374 0.0
C237 C 0.13596 0.63916 0.95195 0.0
C238 C 0.25379 0.6284 0.94709 0.0
C239 C 0.27671 0.64543 0.93884 0.0
C240 C 0.22757 0.65859 0.93226 0.0
C241 C 0.15755 0.65547 0.93886 0.0
C242 C 0.35046 0.65014 0.94445 0.0
C243 C 0.40205 0.64166 0.92547 0.0
C244 C 0.37 0.66178 0.97107 0.0
C245 C 0.31817 0.67036 0.99335 0.0
C246 C 0.31153 0.68877 0.9934 0.0
C247 C 0.26203 0.69687 0.0141 0.0
C248 C 0.2193 0.68669 0.03503 0.0
C249 C 0.22622 0.66839 0.03543 0.0
C250 C 0.27556 0.66022 0.01475 0.0
C251 C 0.68725 0.65747 0.95927 0.0
C252 C 0.70225 0.64902 0.99022 0.0
C253 C 0.6186 0.66122 0.95044 0.0
C254 C 0.56443 0.6565 0.97253 0.0
C255 C 0.58045 0.64996 0.00508 0.0
C256 C 0.64884 0.64609 0.01373 0.0
C257 C 0.49181 0.6555 0.96025 0.0
C258 C 0.44026 0.66447 0.97836 0.0
C259 C 0.47242 0.64407 0.93324 0.0
C260 C 0.52417 0.63363 0.91412 0.0
C261 C 0.56518 0.62104 0.9309 0.0
C262 C 0.61513 0.61157 0.91284 0.0
C263 C 0.62395 0.61442 0.8779 0.0
C264 C 0.58264 0.62671 0.86093 0.0
C265 C 0.53276 0.63626 0.87892 0.0
H266 H 0.66267 0.60709 0.86395 0.0
H267 H 0.18097 0.69299 0.051 0.0
H268 H 0.86075 0.63841 0.56636 0.0
H269 H 0.74247 0.64221 0.58707 0.0
H270 H 0.69543 0.67409 0.499 0.0
H271 H 0.81378 0.67141 0.47972 0.0
H272 H 0.6204 0.68521 0.54883 0.0
H273 H 0.67217 0.62722 0.50106 0.0
H274 H 0.73661 0.59921 0.49918 0.0
H275 H 0.67472 0.58785 0.60205 0.0
H276 H 0.61044 0.61589 0.60459 0.0
H277 H 0.284 0.65581 0.49369 0.0
H278 H 0.40383 0.66535 0.50301 0.0
H279 H 0.40267 0.64075 0.60212 0.0
H280 H 0.28317 0.63154 0.5933 0.0
H281 H 0.50178 0.62755 0.55906 0.0
H282 H 0.4228 0.68291 0.59849 0.0
H283 H 0.35775 0.71076 0.59791 0.0
H284 H 0.46773 0.7273 0.50839 0.0
H285 H 0.53229 0.69932 0.50783 0.0
C286 C 0.82593 0.64661 0.552 0.0
C287 C 0.84695 0.65432 0.52115 0.0
C288 C 0.75796 0.64871 0.5637 0.0
C289 C 0.70929 0.65806 0.54409 0.0
C290 C 0.7316 0.66676 0.51459 0.0
C291 C 0.79956 0.66501 0.50339 0.0
C292 C 0.63388 0.65707 0.5513 0.0
C293 C 0.59433 0.67262 0.55106 0.0
C294 C 0.59979 0.64067 0.55487 0.0
C295 C 0.63716 0.62368 0.55312 0.0
C296 C 0.6725 0.61874 0.52328 0.0
C297 C 0.70899 0.60288 0.5221 0.0
C298 C 0.70991 0.59178 0.55051 0.0
C299 C 0.67406 0.59648 0.58009 0.0
C300 C 0.63756 0.61234 0.58141 0.0
C301 C 0.3084 0.65308 0.51797 0.0
C302 C 0.27444 0.64288 0.54269 0.0
C303 C 0.37692 0.65847 0.52324 0.0
C304 C 0.4121 0.65366 0.55322 0.0
C305 C 0.3765 0.64454 0.57881 0.0
C306 C 0.30831 0.63925 0.57365 0.0
C307 C 0.48812 0.65564 0.55572 0.0
C308 C 0.52769 0.64021 0.5576 0.0
C309 C 0.52168 0.67212 0.55318 0.0
C310 C 0.48216 0.6889 0.55299 0.0
C311 C 0.43258 0.69236 0.57839 0.0
C312 C 0.39583 0.70819 0.57831 0.0
C313 C 0.40866 0.72079 0.55317 0.0
C314 C 0.45789 0.71752 0.52787 0.0
C315 C 0.49457 0.70166 0.52773 0.0
H316 H 0.38069 0.73311 0.55343 0.0
H317 H 0.73827 0.57952 0.54957 0.0
H318 H 0.74137 0.36843 0.5931 0.0
H319 H 0.62019 0.36092 0.60356 0.0
H320 H 0.59255 0.35028 0.49625 0.0
H321 H 0.71387 0.35781 0.4858 0.0
H322 H 0.52104 0.38093 0.57645 0.0
H323 H 0.45744 0.32305 0.48419 0.0
H324 H 0.51323 0.29578 0.46411 0.0
H325 H 0.63156 0.29308 0.55668 0.0
H326 H 0.57548 0.32004 0.57764 0.0
H327 H 0.22228 0.38223 0.47593 0.0
H328 H 0.339 0.37786 0.49841 0.0
H329 H 0.25679 0.34591 0.57983 0.0
H330 H 0.13892 0.35066 0.5577 0.0
H331 H 0.37683 0.33183 0.53253 0.0
H332 H 0.30589 0.37793 0.60717 0.0
H333 H 0.24958 0.40625 0.61977 0.0
H334 H 0.40223 0.43336 0.5601 0.0
H335 H 0.45768 0.40513 0.54576 0.0
C336 C 0.70988 0.36385 0.57199 0.0
C337 C 0.73664 0.3635 0.53869 0.0
C338 C 0.6408 0.35963 0.57799 0.0
C339 C 0.59744 0.35505 0.55074 0.0
C340 C 0.62543 0.35349 0.51776 0.0
C341 C 0.69476 0.35769 0.51177 0.0
C342 C 0.52158 0.35464 0.55563 0.0
C343 C 0.48945 0.37004 0.56755 0.0
C344 C 0.48061 0.34037 0.54426 0.0
C345 C 0.51232 0.32364 0.53245 0.0
C346 C 0.49475 0.31652 0.50045 0.0
C347 C 0.52655 0.30112 0.48887 0.0
C348 C 0.57593 0.29269 0.50907 0.0
C349 C 0.59332 0.29958 0.54101 0.0
C350 C 0.56153 0.31493 0.55276 0.0
C351 C 0.22911 0.37455 0.49898 0.0
C352 C 0.1722 0.36693 0.51544 0.0
C353 C 0.29549 0.37201 0.51167 0.0
C354 C 0.30596 0.36154 0.5406 0.0
C355 C 0.24919 0.35404 0.55746 0.0
C356 C 0.18225 0.35693 0.54513 0.0
C357 C 0.37726 0.35832 0.55204 0.0
C358 C 0.40853 0.34237 0.5428 0.0
C359 C 0.41758 0.37215 0.56562 0.0
C360 C 0.38594 0.38931 0.57527 0.0
C361 C 0.32719 0.38989 0.59643 0.0
C362 C 0.29531 0.40595 0.60385 0.0
C363 C 0.32246 0.4216 0.59085 0.0
C364 C 0.38136 0.42122 0.57024 0.0
C365 C 0.41296 0.40517 0.56239 0.0
H366 H 0.29783 0.43402 0.59672 0.0
H367 H 0.6009 0.28085 0.49991 0.0
H368 H 0.72557 0.84492 0.95898 0.0
H369 H 0.84446 0.83572 0.94401 0.0
H370 H 0.92503 0.8825 0.99198 0.0
H371 H 0.80839 0.89132 0.00791 0.0
H372 H 0.95866 0.87455 0.9157 0.0
H373 H 0.94528 0.85057 0.03273 0.0
H374 H 0.89821 0.82984 0.07509 0.0
H375 H 0.96366 0.78621 0.01351 0.0
H376 H 0.00851 0.80673 0.96995 0.0
H377 H 0.30033 0.889 0.9626 0.0
H378 H 0.17915 0.88533 0.94693 0.0
H379 H 0.20871 0.82911 0.9394 0.0
H380 H 0.32911 0.83284 0.95719 0.0
H381 H 0.11101 0.83377 0.97951 0.0
H382 H 0.1492 0.85603 0.86955 0.0
H383 H 0.19572 0.87523 0.82439 0.0
H384 H 0.08501 0.91922 0.86605 0.0
H385 H 0.03872 0.90038 0.91183 0.0
C386 C 0.76909 0.85282 0.96734 0.0
C387 C 0.75821 0.86869 0.98502 0.0
C388 C 0.83654 0.8477 0.95841 0.0
C389 C 0.893 0.85858 0.96656 0.0
C390 C 0.882 0.87402 0.98526 0.0
C391 C 0.81546 0.87895 0.99457 0.0
C392 C 0.96405 0.85477 0.95483 0.0
C393 C 0.99231 0.86554 0.9293 0.0
C394 C 0.00665 0.84246 0.97162 0.0
C395 C 0.979 0.8302 0.99772 0.0
C396 C 0.94839 0.83657 0.02783 0.0
C397 C 0.92221 0.82485 0.0521 0.0
C398 C 0.92746 0.80672 0.04684 0.0
C399 C 0.95907 0.80027 0.01736 0.0
C400 C 0.98465 0.81194 0.99282 0.0
C401 C 0.28172 0.87599 0.95587 0.0
C402 C 0.32376 0.86122 0.96086 0.0
C403 C 0.21213 0.87383 0.94696 0.0
C404 C 0.18407 0.85688 0.94201 0.0
C405 C 0.22859 0.8423 0.94332 0.0
C406 C 0.29766 0.84444 0.95302 0.0
C407 C 0.10752 0.85431 0.94135 0.0
C408 C 0.07788 0.84235 0.96465 0.0
C409 C 0.06342 0.8653 0.92193 0.0
C410 C 0.09053 0.87675 0.89423 0.0
C411 C 0.13502 0.86981 0.86922 0.0
C412 C 0.16136 0.88064 0.84349 0.0
C413 C 0.14334 0.89843 0.84235 0.0
C414 C 0.09885 0.90543 0.86693 0.0
C415 C 0.07241 0.89466 0.89275 0.0
H416 H 0.16382 0.9068 0.82242 0.0
H417 H 0.90727 0.79766 0.06568 0.0
H418 H 0.16043 0.11824 0.93224 0.0
H419 H 0.04216 0.12736 0.9242 0.0
H420 H 0.07287 0.1703 0.99481 0.0
H421 H 0.19106 0.16009 0.0054 0.0
H422 H 0.96168 0.1556 0.00992 0.0
H423 H 0.04445 0.17535 0.9026 0.0
H424 H 0.10641 0.17424 0.84768 0.0
H425 H 0.97691 0.13154 0.81463 0.0
H426 H 0.91498 0.13218 0.86954 0.0
H427 H 0.62251 0.18127 0.98587 0.0
H428 H 0.74406 0.18335 0.96985 0.0
H429 H 0.74035 0.12934 0.93612 0.0
H430 H 0.61849 0.12703 0.95274 0.0
H431 H 0.83768 0.15493 0.89897 0.0
H432 H 0.7736 0.13268 0.01215 0.0
H433 H 0.70838 0.13519 0.06601 0.0
H434 H 0.80438 0.18514 0.08614 0.0
H435 H 0.86919 0.18305 0.03203 0.0
C436 C 0.14272 0.12976 0.94597 0.0
C437 C 0.18601 0.13854 0.9694 0.0
C438 C 0.0748 0.13515 0.94083 0.0
C439 C 0.04844 0.14984 0.9581 0.0
C440 C 0.09204 0.15902 0.98081 0.0
C441 C 0.16004 0.15332 0.98661 0.0
C442 C 0.97348 0.15413 0.95522 0.0
C443 C 0.93532 0.15591 0.98549 0.0
C444 C 0.93795 0.15422 0.92344 0.0
C445 C 0.97519 0.15378 0.89031 0.0
C446 C 0.02947 0.16564 0.88372 0.0
C447 C 0.06458 0.1651 0.85257 0.0
C448 C 0.04567 0.15282 0.8277 0.0
C449 C 0.99152 0.14106 0.83391 0.0
C450 C 0.95631 0.14152 0.86503 0.0
C451 C 0.64682 0.17 0.97394 0.0
C452 C 0.6114 0.15388 0.97109 0.0
C453 C 0.71619 0.17125 0.96467 0.0
C454 C 0.75119 0.15642 0.9524 0.0
C455 C 0.71396 0.14092 0.9456 0.0
C456 C 0.64427 0.13963 0.95503 0.0
C457 C 0.82759 0.15606 0.95346 0.0
C458 C 0.86525 0.15497 0.92307 0.0
C459 C 0.86305 0.15678 0.98499 0.0
C460 C 0.82561 0.1578 0.01793 0.0
C461 C 0.7804 0.14425 0.02797 0.0
C462 C 0.74355 0.14559 0.05853 0.0
C463 C 0.7521 0.16034 0.07944 0.0
C464 C 0.79772 0.17374 0.06989 0.0
C465 C 0.83453 0.17248 0.03928 0.0
H466 H 0.7235 0.16136 0.10308 0.0
H467 H 0.07292 0.15243 0.8036 0.0
H468 H 0.36748 0.16712 0.57017 0.0
H469 H 0.24592 0.17141 0.58513 0.0
H470 H 0.20503 0.11685 0.56217 0.0
H471 H 0.32686 0.11256 0.54793 0.0
H472 H 0.15846 0.16895 0.5342 0.0
H473 H 0.06654 0.10319 0.58797 0.0
H474 H 0.09179 0.08208 0.63419 0.0
H475 H 0.17231 0.124 0.6961 0.0
H476 H 0.14921 0.14526 0.64979 0.0
H477 H 0.83465 0.13601 0.4757 0.0
H478 H 0.95313 0.14399 0.4917 0.0
H479 H 0.88162 0.15987 0.59125 0.0
H480 H 0.76268 0.15223 0.57487 0.0
H481 H 0.98046 0.13282 0.59233 0.0
H482 H 0.95531 0.19023 0.5453 0.0
H483 H 0.9233 0.21229 0.50197 0.0
H484 H 0.06826 0.18963 0.43167 0.0
H485 H 0.10096 0.16737 0.47449 0.0
C486 C 0.33335 0.1558 0.57052 0.0
C487 C 0.35654 0.13947 0.55825 0.0
C488 C 0.2636 0.15831 0.57864 0.0
C489 C 0.21579 0.14453 0.57443 0.0
C490 C 0.24067 0.12767 0.56611 0.0
C491 C 0.31066 0.12515 0.55817 0.0
C492 C 0.14049 0.14849 0.57137 0.0
C493 C 0.11959 0.16122 0.54737 0.0
C494 C 0.08929 0.13856 0.58845 0.0
C495 C 0.10698 0.12573 0.6154 0.0
C496 C 0.09028 0.10784 0.61134 0.0
C497 C 0.1044 0.09586 0.63747 0.0
C498 C 0.13419 0.10168 0.66796 0.0
C499 C 0.15009 0.11949 0.67231 0.0
C500 C 0.13716 0.13148 0.64602 0.0
C501 C 0.8439 0.14209 0.50031 0.0
C502 C 0.78981 0.14385 0.52387 0.0
C503 C 0.91156 0.14652 0.50955 0.0
C504 C 0.9262 0.15245 0.54274 0.0
C505 C 0.87137 0.15537 0.56551 0.0
C506 C 0.80348 0.1512 0.55604 0.0
C507 C -0.00103 0.15299 0.5548 0.0
C508 C 0.01933 0.14092 0.57997 0.0
C509 C 0.04951 0.16362 0.53892 0.0
C510 C 0.03035 0.17706 0.5131 0.0
C511 C 0.98008 0.18988 0.52053 0.0
C512 C 0.96185 0.20244 0.49607 0.0
C513 C 0.99351 0.20231 0.46405 0.0
C514 C 0.04375 0.1897 0.45649 0.0
C515 C 0.06231 0.17714 0.48089 0.0
H516 H 0.97921 0.212 0.44509 0.0
H517 H 0.1446 0.09241 0.68827 0.0
H518 H 0.63508 0.87691 0.56938 0.0
H519 H 0.75518 0.87485 0.58815 0.0
H520 H 0.78287 0.82866 0.52547 0.0
H521 H 0.66195 0.82975 0.50916 0.0
H522 H 0.86975 0.82639 0.57367 0.0
H523 H 0.80879 0.87187 0.4944 0.0
H524 H 0.74545 0.89787 0.4734 0.0
H525 H 0.82304 0.92849 0.55724 0.0
H526 H 0.88623 0.90258 0.57897 0.0
H527 H 0.20828 0.8527 0.50178 0.0
H528 H 0.08753 0.84371 0.51061 0.0
H529 H 0.08318 0.87235 0.60553 0.0
H530 H 0.20363 0.88082 0.59763 0.0
H531 H 0.98735 0.88271 0.54632 0.0
H532 H 0.06588 0.83459 0.61746 0.0
H533 H 0.13486 0.80789 0.62809 0.0
H534 H 0.02902 0.78115 0.54685 0.0
H535 H 0.96024 0.80784 0.53524 0.0
C536 C 0.66566 0.86586 0.56092 0.0
C537 C 0.63898 0.85368 0.53738 0.0
C538 C 0.73482 0.86481 0.57126 0.0
C539 C 0.77889 0.85198 0.55719 0.0
C540 C 0.75042 0.83881 0.53644 0.0
C541 C 0.6811 0.83957 0.52686 0.0
C542 C 0.85535 0.85364 0.55974 0.0
C543 C 0.89537 0.83871 0.56773 0.0
C544 C 0.88926 0.86963 0.55149 0.0
C545 C 0.85154 0.88526 0.53851 0.0
C546 C 0.81198 0.88413 0.50846 0.0
C547 C 0.77616 0.89884 0.49642 0.0
C548 C 0.7801 0.91481 0.51402 0.0
C549 C 0.81995 0.9161 0.54368 0.0
C550 C 0.85579 0.90141 0.55587 0.0
C551 C 0.1825 0.85644 0.52516 0.0
C552 C 0.2154 0.86746 0.54897 0.0
C553 C 0.11351 0.85139 0.53009 0.0
C554 C 0.07689 0.85742 0.55871 0.0
C555 C 0.11085 0.86756 0.58337 0.0
C556 C 0.17957 0.87242 0.57868 0.0
C557 C 0.00107 0.85559 0.56052 0.0
C558 C 0.96143 0.87049 0.55292 0.0
C559 C 0.96806 0.83946 0.56788 0.0
C560 C 0.00836 0.82329 0.57526 0.0
C561 C 0.05772 0.82308 0.60163 0.0
C562 C 0.09672 0.80794 0.60787 0.0
C563 C 0.08642 0.79286 0.58811 0.0
C564 C 0.03695 0.79286 0.56211 0.0
C565 C 0.99792 0.80799 0.5557 0.0
H566 H 0.11671 0.78117 0.593 0.0
H567 H 0.7525 0.92619 0.50458 0.0
H568 H 0.01896 0.58432 0.06394 0.0
H569 H 0.06068 0.55649 0.08769 0.0
H570 H 0.86108 0.53288 0.06929 0.0
H571 H 0.81862 0.56073 0.04682 0.0
H572 H 0.92251 0.51752 0.12391 0.0
H573 H 0.98655 0.53316 0.00679 0.0
H574 H 0.0414 0.55262 0.96426 0.0
H575 H 0.23594 0.54791 0.01637 0.0
H576 H 0.18189 0.52858 0.05944 0.0
H577 H 0.97115 0.43275 0.04917 0.0
H578 H 0.943 0.46152 0.07392 0.0
H579 H 0.16069 0.47274 0.08523 0.0
H580 H 0.18837 0.44435 0.05936 0.0
H581 H 0.10633 0.49589 0.04647 0.0
H582 H 0.04572 0.473 0.15451 0.0
H583 H 0.98991 0.45475 0.19857 0.0
H584 H 0.79008 0.47257 0.16567 0.0
H585 H 0.84452 0.49072 0.12103 0.0
C586 C 0.98314 0.57344 0.06636 0.0
C587 C 0.91567 0.57469 0.05321 0.0
C588 C 0.00718 0.55746 0.07973 0.0
C589 C 0.96446 0.54243 0.07959 0.0
C590 C 0.89518 0.5442 0.06958 0.0
C591 C 0.87109 0.56014 0.05646 0.0
C592 C 0.99366 0.52444 0.08395 0.0
C593 C 0.96278 0.51269 0.1071 0.0
C594 C 0.04743 0.51827 0.06262 0.0
C595 C 0.08014 0.52959 0.03643 0.0
C596 C 0.04097 0.53634 0.00919 0.0
C597 C 0.07188 0.54734 0.98503 0.0
C598 C 0.14208 0.55153 0.98766 0.0
C599 C 0.18156 0.54467 0.0144 0.0
C600 C 0.15084 0.53369 0.03869 0.0
C601 C 0.01268 0.44107 0.05841 0.0
C602 C 0.08183 0.43644 0.05234 0.0
C603 C 0.99669 0.45754 0.07258 0.0
C604 C 0.04975 0.46948 0.0812 0.0
C605 C 0.11879 0.4639 0.07858 0.0
C606 C 0.13464 0.44762 0.06398 0.0
C607 C 0.03431 0.48857 0.08608 0.0
C608 C 0.06745 0.50058 0.06423 0.0
C609 C 0.98258 0.49484 0.1086 0.0
C610 C 0.94933 0.4832 0.13426 0.0
C611 C 0.98983 0.47285 0.15632 0.0
C612 C 0.9584 0.46256 0.1815 0.0
C613 C 0.88648 0.46255 0.18497 0.0
C614 C 0.8458 0.47264 0.163 0.0
C615 C 0.87693 0.48294 0.13778 0.0
H616 H 0.86216 0.45483 0.2048 0.0
H617 H 0.16591 0.56007 0.96894 0.0
H618 H 0.02947 0.4263 0.43944 0.0
H619 H 0.06211 0.45511 0.41671 0.0
H620 H 0.85875 0.47493 0.44013 0.0
H621 H 0.82547 0.44597 0.46202 0.0
H622 H 0.92444 0.49236 0.38243 0.0
H623 H 0.96848 0.47585 0.501 0.0
H624 H 0.01636 0.45606 0.54491 0.0
H625 H 0.21976 0.46268 0.50286 0.0
H626 H 0.17273 0.48229 0.45831 0.0
H627 H 0.96797 0.57879 0.44973 0.0
H628 H 0.94145 0.54932 0.42828 0.0
H629 H 0.15857 0.53617 0.43156 0.0
H630 H 0.18426 0.56534 0.4546 0.0
H631 H 0.09471 0.51417 0.4673 0.0
H632 H 0.05699 0.53404 0.35382 0.0
H633 H 0.01193 0.55273 0.30777 0.0
H634 H 0.80377 0.54053 0.33753 0.0
H635 H 0.84771 0.52148 0.38369 0.0
C636 C 0.99048 0.43647 0.43773 0.0
C637 C 0.92485 0.43388 0.45216 0.0
C638 C 0.00936 0.453 0.42508 0.0
C639 C 0.96308 0.46721 0.42715 0.0
C640 C 0.89515 0.46415 0.4382 0.0
C641 C 0.87632 0.44762 0.45087 0.0
C642 C 0.98906 0.48556 0.42515 0.0
C643 C 0.96174 0.49721 0.40087 0.0
C644 C 0.0385 0.49178 0.44889 0.0
C645 C 0.06702 0.48036 0.47614 0.0
C646 C 0.02334 0.473 0.50102 0.0
C647 C 0.05031 0.46182 0.52601 0.0
C648 C 0.12104 0.45808 0.52662 0.0
C649 C 0.16497 0.46556 0.50231 0.0
C650 C 0.13819 0.47671 0.47719 0.0
C651 C 0.01017 0.56983 0.44446 0.0
C652 C 0.07807 0.57426 0.4538 0.0
C653 C 0.99507 0.55293 0.43215 0.0
C654 C 0.04794 0.54035 0.42841 0.0
C655 C 0.1167 0.54551 0.4345 0.0
C656 C 0.1315 0.56222 0.44747 0.0
C657 C 0.03087 0.5213 0.42425 0.0
C658 C 0.05899 0.50944 0.448 0.0
C659 C 0.98271 0.51498 0.39984 0.0
C660 C 0.95567 0.52645 0.37235 0.0
C661 C 0.00159 0.53542 0.35069 0.0
C662 C 0.97622 0.54606 0.3245 0.0
C663 C 0.90501 0.54796 0.3198 0.0
C664 C 0.85894 0.53907 0.34119 0.0
C665 C 0.88405 0.52826 0.36727 0.0
H666 H 0.8856 0.5563 0.29956 0.0
H667 H 0.14184 0.44941 0.54597 0.0
H668 H 0.42717 0.92662 0.06555 0.0
H669 H 0.38829 0.95466 0.08996 0.0
H670 H 0.59329 0.9761 0.07733 0.0
H671 H 0.63215 0.94819 0.05317 0.0
H672 H 0.52134 0.99111 0.13374 0.0
H673 H 0.48901 0.97845 0.01234 0.0
H674 H 0.44447 0.96033 0.9649 0.0
H675 H 0.23759 0.96614 1.00306 0.0
H676 H 0.28121 0.98409 0.05105 0.0
H677 H 0.50178 0.07795 0.06438 0.0
H678 H 0.52041 0.04851 0.08831 0.0
H679 H 0.30077 0.03858 0.08385 0.0
H680 H 0.28282 0.06764 0.05883 0.0
H681 H 0.36371 0.01613 0.04662 0.0
H682 H 0.3954 0.03624 0.15951 0.0
H683 H 0.43936 0.05246 0.20953 0.0
H684 H 0.64392 0.03291 0.19048 0.0
H685 H 0.60176 0.01691 0.13988 0.0
C686 C 0.46456 0.93705 0.06946 0.0
C687 C 0.53248 0.93532 0.05725 0.0
C688 C 0.44228 0.9531 0.08328 0.0
C689 C 0.4877 0.96757 0.08498 0.0
C690 C 0.55737 0.96516 0.0763 0.0
C691 C 0.57943 0.94922 0.0623 0.0
C692 C 0.46096 0.98579 0.08884 0.0
C693 C 0.48675 0.9967 0.11486 0.0
C694 C 0.41475 0.99291 0.06456 0.0
C695 C 0.38839 0.98241 0.03543 0.0
C696 C 0.43409 0.97577 0.0107 0.0
C697 C 0.40902 0.96554 0.98373 0.0
C698 C 0.33826 0.96204 0.98103 0.0
C699 C 0.2924 0.96882 0.00523 0.0
C700 C 0.31725 0.97902 0.03232 0.0
C701 C 0.45739 0.06973 0.06996 0.0
C702 C 0.39095 0.07494 0.05968 0.0
C703 C 0.46796 0.05288 0.08369 0.0
C704 C 0.41203 0.04116 0.0876 0.0
C705 C 0.34483 0.04726 0.08085 0.0
C706 C 0.33449 0.06391 0.0667 0.0
C707 C 0.42438 0.02189 0.09156 0.0
C708 C 0.3966 0.01071 0.06643 0.0
C709 C 0.46869 0.01468 0.11675 0.0
C710 C 0.4953 0.02537 0.14572 0.0
C711 C 0.44999 0.03562 0.16559 0.0
C712 C 0.47456 0.04473 0.19416 0.0
C713 C 0.54427 0.0436 0.20328 0.0
C714 C 0.58986 0.0337 0.18345 0.0
C715 C 0.56565 0.02461 0.15481 0.0
H716 H 0.56299 0.05025 0.22586 0.0
H717 H 0.31894 0.95411 0.96013 0.0
H718 H 0.67448 0.06512 0.43894 0.0
H719 H 0.64008 0.03681 0.41464 0.0
H720 H 0.42649 0.04864 0.43713 0.0
H721 H 0.46088 0.07739 0.45926 0.0
H722 H 0.59683 0.01386 0.45446 0.0
H723 H 0.31521 0.02115 0.40632 0.0
H724 H 0.2461 0.04043 0.36891 0.0
H725 H 0.4282 0.05404 0.31225 0.0
H726 H 0.49873 0.03485 0.34955 0.0
H727 H 0.31715 0.94711 0.47453 0.0
H728 H 0.34746 0.97555 0.44988 0.0
H729 H 0.54177 0.9542 0.41525 0.0
H730 H 0.51317 0.92596 0.44172 0.0
H731 H 0.38832 0.9926 0.39342 0.0
H732 H 0.66818 0.98179 0.4383 0.0
H733 H 0.73356 0.96282 0.47803 0.0
H734 H 0.55334 0.95728 0.54109 0.0
H735 H 0.48731 0.97636 0.502 0.0
C736 C 0.61994 0.06196 0.43711 0.0
C737 C 0.57027 0.0733 0.4511 0.0
C738 C 0.60021 0.04575 0.42336 0.0
C739 C 0.53065 0.04033 0.4243 0.0
C740 C 0.48034 0.05244 0.43542 0.0
C741 C 0.50001 0.0689 0.44831 0.0
C742 C 0.51327 0.02125 0.4208 0.0
C743 C 0.55274 0.00921 0.43986 0.0
C744 C 0.45405 0.01505 0.40313 0.0
C745 C 0.41232 0.02673 0.3809 0.0
C746 C 0.34057 0.02827 0.3859 0.0
C747 C 0.30124 0.03921 0.3648 0.0
C748 C 0.33296 0.04854 0.33839 0.0
C749 C 0.40406 0.04693 0.33298 0.0
C750 C 0.44376 0.03611 0.35419 0.0
C751 C 0.3655 0.94833 0.46077 0.0
C752 C 0.41292 0.93431 0.46014 0.0
C753 C 0.38257 0.96458 0.44646 0.0
C754 C 0.44753 0.96715 0.43139 0.0
C755 C 0.49169 0.95259 0.42722 0.0
C756 C 0.47492 0.93633 0.44193 0.0
C757 C 0.47319 0.98541 0.42607 0.0
C758 C 0.4344 0.99727 0.40634 0.0
C759 C 0.53311 0.99156 0.44308 0.0
C760 C 0.57273 0.98031 0.46703 0.0
C761 C 0.64268 0.97655 0.46071 0.0
C762 C 0.6798 0.96579 0.4831 0.0
C763 C 0.64756 0.95882 0.51201 0.0
C764 C 0.5782 0.96264 0.51865 0.0
C765 C 0.54092 0.97343 0.49639 0.0
H766 H 0.67635 0.95051 0.52934 0.0
H767 H 0.30243 0.05697 0.32202 0.0
H768 H 0.19696 0.32951 0.95778 0.0
H769 H 0.2392 0.2993 0.95101 0.0
H770 H 0.25883 0.2947 0.06025 0.0
H771 H 0.21739 0.32488 0.0669 0.0
H772 H 0.35613 0.27482 0.02726 0.0
H773 H 0.1082 0.28506 0.02161 0.0
H774 H 0.0037 0.29876 0.9972 0.0
H775 H 0.04806 0.27529 0.89996 0.0
H776 H 0.15355 0.26169 0.92371 0.0
H777 H 0.28626 0.19037 0.0772 0.0
H778 H 0.25783 0.22112 0.06603 0.0
H779 H 0.26885 0.21145 0.9578 0.0
H780 H 0.29745 0.18045 0.96894 0.0
H781 H 0.16581 0.23818 0.97996 0.0
H782 H 0.40672 0.22433 0.98936 0.0
H783 H 0.50838 0.21035 0.01587 0.0
H784 H 0.47643 0.24057 0.10711 0.0
H785 H 0.37364 0.25447 0.08139 0.0
C786 C 0.21431 0.3224 0.98013 0.0
C787 C 0.20508 0.32958 0.01283 0.0
C788 C 0.23729 0.30502 0.97631 0.0
C789 C 0.25068 0.2946 0.00518 0.0
C790 C 0.2486 0.30244 0.03761 0.0
C791 C 0.22538 0.31974 0.04141 0.0
C792 C 0.25682 0.27513 1.00248 0.0
C793 C 0.31466 0.26683 0.01681 0.0
C794 C 0.20307 0.26464 0.9884 0.0
C795 C 0.13911 0.27254 0.9743 0.0
C796 C 0.09587 0.28292 0.99497 0.0
C797 C 0.03648 0.29066 0.98127 0.0
C798 C 0.01936 0.28794 0.94703 0.0
C799 C 0.06148 0.27742 0.92646 0.0
C800 C 0.12108 0.2697 0.94002 0.0
C801 C 0.27956 0.19459 0.051 0.0
C802 C 0.29435 0.18306 0.02395 0.0
C803 C 0.26391 0.2122 0.04465 0.0
C804 C 0.26302 0.21864 0.01113 0.0
C805 C 0.26977 0.20674 0.98387 0.0
C806 C 0.28549 0.18901 0.99025 0.0
C807 C 0.26448 0.23796 0.00534 0.0
C808 C 0.20804 0.24618 0.98961 0.0
C809 C 0.31945 0.24841 0.01819 0.0
C810 C 0.38209 0.24034 0.03353 0.0
C811 C 0.42104 0.2279 0.01517 0.0
C812 C 0.4789 0.21999 0.03005 0.0
C813 C 0.49878 0.22454 0.06318 0.0
C814 C 0.46093 0.23705 0.08145 0.0
C815 C 0.40287 0.24495 0.06673 0.0
H816 H 0.54359 0.21841 0.07466 0.0
H817 H 0.97337 0.29395 0.93645 0.0
H818 H 0.72135 0.83665 0.02556 0.0
H819 H 0.78363 0.80841 0.01989 0.0
H820 H 0.58978 0.78049 0.02718 0.0
H821 H 0.52843 0.80811 0.03154 0.0
H822 H 0.68456 0.76682 0.0695 0.0
H823 H 0.6695 0.78703 0.9532 0.0
H824 H 0.69169 0.80735 0.90549 0.0
H825 H 0.91028 0.79919 0.91633 0.0
H826 H 0.88938 0.77891 0.9643 0.0
H827 H 0.76335 0.67898 0.02135 0.0
H828 H 0.71093 0.70847 0.01935 0.0
H829 H 0.91355 0.73169 0.00892 0.0
H830 H 0.96544 0.7026 0.01027 0.0
H831 H 0.82202 0.7485 0.96883 0.0
H832 H 0.83796 0.72974 0.08601 0.0
H833 H 0.81742 0.70965 0.13437 0.0
H834 H 0.59805 0.71522 0.12115 0.0
H835 H 0.61734 0.73517 0.0724 0.0
C836 C 0.69242 0.82447 0.02518 0.0
C837 C 0.6201 0.82465 0.02858 0.0
C838 C 0.72788 0.80837 0.02236 0.0
C839 C 0.6912 0.79233 0.02324 0.0
C840 C 0.61925 0.79264 0.02673 0.0
C841 C 0.58426 0.80852 0.02929 0.0
C842 C 0.72593 0.77495 0.02094 0.0
C843 C 0.71431 0.76281 0.04735 0.0
C844 C 0.76564 0.76979 0.99231 0.0
C845 C 0.77798 0.78179 0.96303 0.0
C846 C 0.72237 0.78973 0.94575 0.0
C847 C 0.73468 0.80117 0.9185 0.0
C848 C 0.80235 0.8046 0.90794 0.0
C849 C 0.85787 0.79655 0.92456 0.0
C850 C 0.84581 0.78511 0.95183 0.0
C851 C 0.7963 0.69036 0.01799 0.0
C852 C 0.86842 0.68845 0.01625 0.0
C853 C 0.76652 0.7072 0.01707 0.0
C854 C 0.80854 0.72232 0.01432 0.0
C855 C 0.88011 0.72029 0.01106 0.0
C856 C 0.90967 0.7036 0.01215 0.0
C857 C 0.77931 0.74034 0.01706 0.0
C858 C 0.79236 0.75258 0.99093 0.0
C859 C 0.74081 0.74567 0.04592 0.0
C860 C 0.7291 0.7338 0.07537 0.0
C861 C 0.78535 0.72658 0.09328 0.0
C862 C 0.77394 0.71524 0.12078 0.0
C863 C 0.70647 0.71112 0.13077 0.0
C864 C 0.65028 0.71839 0.11335 0.0
C865 C 0.66142 0.72973 0.0858 0.0
H866 H 0.69773 0.70234 0.15206 0.0
H867 H 0.81178 0.81348 0.88687 0.0
H868 H 0.17317 0.67981 0.54044 0.0
H869 H 0.21933 0.70932 0.55294 0.0
H870 H 0.24048 0.71916 0.44507 0.0
H871 H 0.1945 0.68996 0.43265 0.0
H872 H 0.34466 0.73445 0.4818 0.0
H873 H 0.0928 0.7297 0.48557 0.0
H874 H 0.98268 0.7182 0.50826 0.0
H875 H 0.03564 0.73723 0.60812 0.0
H876 H 0.14675 0.74852 0.58609 0.0
H877 H 0.30311 0.81941 0.43556 0.0
H878 H 0.26498 0.78932 0.44623 0.0
H879 H 0.27309 0.79871 0.55465 0.0
H880 H 0.31127 0.82911 0.54401 0.0
H881 H 0.16534 0.77359 0.53129 0.0
H882 H 0.4085 0.78293 0.52601 0.0
H883 H 0.51657 0.7953 0.50279 0.0
H884 H 0.48342 0.76759 0.40867 0.0
H885 H 0.37435 0.75533 0.43108 0.0
C886 C 0.19027 0.68806 0.51955 0.0
C887 C 0.18 0.68272 0.48557 0.0
C888 C 0.21587 0.70495 0.52668 0.0
C889 C 0.2318 0.71656 0.49989 0.0
C890 C 0.2281 0.71049 0.46614 0.0
C891 C 0.20198 0.69378 0.45904 0.0
C892 C 0.24493 0.73555 0.50598 0.0
C893 C 0.30579 0.74297 0.49295 0.0
C894 C 0.19467 0.74668 0.52108 0.0
C895 C 0.12827 0.73977 0.5343 0.0
C896 C 0.08119 0.73128 0.51243 0.0
C897 C 0.0186 0.72482 0.52515 0.0
C898 C 0.00224 0.72694 0.55963 0.0
C899 C 0.04843 0.73556 0.58144 0.0
C900 C 0.11122 0.74198 0.56886 0.0
C901 C 0.294 0.81531 0.46165 0.0
C902 C 0.31084 0.82649 0.48895 0.0
C903 C 0.27264 0.79808 0.46773 0.0
C904 C 0.26828 0.79168 0.50121 0.0
C905 C 0.27691 0.80339 0.52863 0.0
C906 C 0.2982 0.82078 0.52251 0.0
C907 C 0.26457 0.77239 0.5067 0.0
C908 C 0.20536 0.76499 0.52145 0.0
C909 C 0.31682 0.7612 0.49366 0.0
C910 C 0.38293 0.76832 0.48016 0.0
C911 C 0.42396 0.77958 0.50026 0.0
C912 C 0.48543 0.78656 0.48726 0.0
C913 C 0.50679 0.78225 0.45425 0.0
C914 C 0.46678 0.77092 0.43422 0.0
C915 C 0.40514 0.76394 0.44708 0.0
H916 H 0.55441 0.78767 0.44422 0.0
H917 H 0.95372 0.72195 0.56943 0.0
H918 H 0.973 0.30825 0.50908 0.0
H919 H 0.92313 0.27903 0.51642 0.0
H920 H 0.72083 0.2997 0.4936 0.0
H921 H 0.77106 0.32922 0.48598 0.0
H922 H 0.72905 0.27262 0.54931 0.0
H923 H 0.79921 0.28219 0.4313 0.0
H924 H 0.88283 0.29065 0.38671 0.0
H925 H 0.02343 0.25084 0.42175 0.0
H926 H 0.94108 0.2424 0.46697 0.0
H927 H 0.54516 0.20048 0.48913 0.0
H928 H 0.60499 0.22825 0.49678 0.0
H929 H 0.80025 0.20097 0.50176 0.0
H930 H 0.73993 0.1728 0.49291 0.0
H931 H 0.80581 0.23018 0.46069 0.0
H932 H 0.7389 0.21841 0.57415 0.0
H933 H 0.66162 0.20894 0.62067 0.0
H934 H 0.52282 0.2514 0.59778 0.0
H935 H 0.59864 0.26088 0.55075 0.0
C936 C 0.91758 0.30667 0.50621 0.0
C937 C 0.87573 0.32102 0.49691 0.0
C938 C 0.88926 0.28996 0.51047 0.0
C939 C 0.81847 0.28718 0.50529 0.0
C940 C 0.77556 0.30164 0.49798 0.0
C941 C 0.8041 0.3185 0.49378 0.0
C942 C 0.79133 0.26893 0.50443 0.0
C943 C 0.74476 0.26342 0.52965 0.0
C944 C 0.81493 0.25667 0.47983 0.0
C945 C 0.86423 0.26173 0.45259 0.0
C946 C 0.84818 0.27533 0.42964 0.0
C947 C 0.89532 0.28012 0.40424 0.0
C948 C 0.95845 0.27131 0.40142 0.0
C949 C 0.97453 0.25766 0.42396 0.0
C950 C 0.92764 0.25286 0.44945 0.0
C951 C 0.60094 0.20027 0.49173 0.0
C952 C 0.63784 0.18432 0.49079 0.0
C953 C 0.63499 0.21621 0.49648 0.0
C954 C 0.7069 0.21669 0.50057 0.0
C955 C 0.74453 0.20087 0.4991 0.0
C956 C 0.71011 0.18477 0.49438 0.0
C957 C 0.74156 0.23398 0.50492 0.0
C958 C 0.78992 0.23933 0.48044 0.0
C959 C 0.72036 0.24599 0.53051 0.0
C960 C 0.67455 0.2404 0.55891 0.0
C961 C 0.69174 0.22568 0.57894 0.0
C962 C 0.64818 0.2203 0.60541 0.0
C963 C 0.58737 0.22957 0.61221 0.0
C964 C 0.57003 0.24425 0.59256 0.0
C965 C 0.61339 0.24967 0.56603 0.0
H966 H 0.55368 0.22537 0.6327 0.0
H967 H 0.99486 0.27503 0.38173 0.0
H968 H 0.10327 0.41009 0.10309 0.0
H969 H 0.09169 0.4219 0.16105 0.0
H970 H 0.89847 0.39408 0.17266 0.0
H971 H 0.90846 0.38291 0.11459 0.0
H972 H 0.89533 0.42452 0.20752 0.0
H973 H 0.05343 0.37487 0.19424 0.0
H974 H 0.1569 0.36039 0.17046 0.0
H975 H 0.28556 0.40138 0.21151 0.0
H976 H 0.18259 0.4162 0.23519 0.0
H977 H 0.86177 0.38354 0.3653 0.0
H978 H 0.87109 0.39583 0.3079 0.0
H979 H 0.06453 0.4205 0.33534 0.0
H980 H 0.05573 0.40773 0.39262 0.0
H981 H 0.08082 0.40073 0.28159 0.0
H982 H 0.92616 0.44578 0.30937 0.0
H983 H 0.8238 0.46035 0.33381 0.0
H984 H 0.69156 0.43075 0.26694 0.0
H985 H 0.79299 0.41573 0.24248 0.0
C986 C 0.05702 0.40712 0.11751 0.0
C987 C 0.0068 0.39557 0.10434 0.0
C988 C 0.05079 0.41371 0.15077 0.0
C989 C 0.9948 0.40861 0.17144 0.0
C990 C 0.94217 0.39818 0.15729 0.0
C991 C 0.94821 0.39169 0.12415 0.0
C992 C 0.99464 0.4119 0.20882 0.0
C993 C 0.93615 0.4196 0.22385 0.0
C994 C 0.04862 0.40571 0.23005 0.0
C995 C 0.11041 0.39673 0.21609 0.0
C996 C 0.10378 0.38083 0.19801 0.0
C997 C 0.1623 0.37256 0.18457 0.0
C998 C 0.22775 0.37999 0.18938 0.0
C999 C 0.23482 0.39567 0.20774 0.0
C1000 C 0.17643 0.40401 0.22117 0.0
C1001 C 0.90478 0.39218 0.35939 0.0
C1002 C 0.95709 0.39512 0.38349 0.0
C1003 C 0.91009 0.39925 0.32662 0.0
C1004 C 0.96822 0.40929 0.31727 0.0
C1005 C 0.01887 0.41298 0.34201 0.0
C1006 C 0.01341 0.40589 0.37487 0.0
C1007 C 0.98075 0.41323 0.2806 0.0
C1008 C 0.04128 0.4066 0.26558 0.0
C1009 C 0.92901 0.42065 0.2595 0.0
C1010 C 0.86739 0.42954 0.27417 0.0
C1011 C 0.87524 0.44225 0.30004 0.0
C1012 C 0.81735 0.45061 0.31388 0.0
C1013 C 0.75121 0.44646 0.30196 0.0
C1014 C 0.74284 0.43395 0.27614 0.0
C1015 C 0.80057 0.42552 0.26224 0.0
H1016 H 0.70643 0.45296 0.31269 0.0
H1017 H 0.273 0.37357 0.17895 0.0
H1018 H 0.09023 0.61934 0.12571 0.0
H1019 H 0.08663 0.60614 0.18224 0.0
H1020 H 0.87495 0.59027 0.16542 0.0
H1021 H 0.87859 0.60359 0.10822 0.0
H1022 H 0.88901 0.6093 0.22311 0.0
H1023 H 0.99211 0.55836 0.18073 0.0
H1024 H 0.06993 0.53968 0.14663 0.0
H1025 H 0.24568 0.56082 0.19969 0.0
H1026 H 0.16905 0.57971 0.23409 0.0
H1027 H 0.92255 0.59931 0.39933 0.0
H1028 H 0.90695 0.58633 0.34245 0.0
H1029 H 0.1091 0.60513 0.31326 0.0
H1030 H 0.12482 0.61776 0.37011 0.0
H1031 H 0.07673 0.57515 0.27831 0.0
H1032 H 0.96675 0.63161 0.30554 0.0
H1033 H 0.88723 0.65026 0.33893 0.0
H1034 H 0.71746 0.61639 0.31243 0.0
H1035 H 0.79635 0.59741 0.27923 0.0
C1036 C 0.04338 0.61269 0.13374 0.0
C1037 C 0.9846 0.61254 0.11272 0.0
C1038 C 0.04152 0.60499 0.16597 0.0
C1039 C 0.98067 0.59707 0.17808 0.0
C1040 C 0.92259 0.5962 0.15652 0.0
C1041 C 0.92474 0.60376 0.12389 0.0
C1042 C 0.97626 0.59223 0.21474 0.0
C1043 C 0.92824 0.60119 0.23513 0.0
C1044 C 0.02781 0.58183 0.23052 0.0
C1045 C 0.07468 0.57051 0.21 0.0
C1046 C 0.04739 0.55912 0.18503 0.0
C1047 C 0.09129 0.54847 0.16565 0.0
C1048 C 0.1627 0.54911 0.1709 0.0
C1049 C 0.19033 0.56034 0.19567 0.0
C1050 C 0.14664 0.57097 0.21523 0.0
C1051 C 0.96477 0.59987 0.38121 0.0
C1052 C 0.02503 0.60938 0.38891 0.0
C1053 C 0.95573 0.59258 0.34867 0.0
C1054 C 0.00637 0.59504 0.32333 0.0
C1055 C 0.06933 0.60303 0.33229 0.0
C1056 C 0.07836 0.61026 0.36477 0.0
C1057 C 0.99012 0.59241 0.28656 0.0
C1058 C 0.03504 0.58236 0.26623 0.0
C1059 C 0.93483 0.60153 0.27075 0.0
C1060 C 0.8874 0.61303 0.29027 0.0
C1061 C 0.9125 0.62812 0.30699 0.0
C1062 C 0.86759 0.63873 0.32587 0.0
C1063 C 0.79736 0.63448 0.32787 0.0
C1064 C 0.77189 0.61964 0.31091 0.0
C1065 C 0.81665 0.60895 0.29207 0.0
H1066 H 0.76266 0.64272 0.3425 0.0
H1067 H 0.1966 0.54087 0.15582 0.0
H1068 H 0.92696 0.59144 0.87819 0.0
H1069 H 0.93998 0.59536 0.81686 0.0
H1070 H 0.00611 0.64898 0.83281 0.0
H1071 H 0.99345 0.64504 0.89487 0.0
H1072 H 0.89694 0.64536 0.78432 0.0
H1073 H 0.12076 0.62149 0.80423 0.0
H1074 H 0.20626 0.60088 0.82823 0.0
H1075 H 0.11138 0.55811 0.77386 0.0
H1076 H 0.02458 0.57842 0.74993 0.0
H1077 H 0.98432 0.64957 0.60335 0.0
H1078 H 0.97058 0.65256 0.66527 0.0
H1079 H 0.92037 0.59734 0.67238 0.0
H1080 H 0.93525 0.5943 0.6108 0.0
H1081 H 0.0328 0.60562 0.70969 0.0
H1082 H 0.80439 0.62915 0.69283 0.0
H1083 H 0.71913 0.64969 0.66842 0.0
H1084 H 0.82269 0.69315 0.71654 0.0
H1085 H 0.90947 0.67289 0.7407 0.0
C1086 C 0.94605 0.60393 0.86875 0.0
C1087 C 0.95941 0.61792 0.89128 0.0
C1088 C 0.95322 0.60618 0.83366 0.0
C1089 C 0.97366 0.62249 0.82024 0.0
C1090 C 0.99003 0.63631 0.84269 0.0
C1091 C 0.98368 0.63398 0.87808 0.0
C1092 C 0.97421 0.62496 0.78267 0.0
C1093 C 0.9277 0.63696 0.76789 0.0
C1094 C 0.01334 0.61375 0.76134 0.0
C1095 C 0.06587 0.60148 0.77543 0.0
C1096 C 0.11781 0.60767 0.79756 0.0
C1097 C 0.16656 0.59605 0.81113 0.0
C1098 C 0.1642 0.5782 0.80261 0.0
C1099 C 0.11315 0.57194 0.78044 0.0
C1100 C 0.06421 0.58351 0.76682 0.0
C1101 C 0.96703 0.63829 0.61797 0.0
C1102 C 0.96093 0.62169 0.60241 0.0
C1103 C 0.95978 0.63997 0.6534 0.0
C1104 C 0.94562 0.62509 0.67353 0.0
C1105 C 0.93216 0.60894 0.65741 0.0
C1106 C 0.93986 0.60725 0.62218 0.0
C1107 C 0.9539 0.62562 0.71122 0.0
C1108 C 0.00247 0.61419 0.726 0.0
C1109 C 0.91669 0.63736 0.73237 0.0
C1110 C 0.86393 0.64952 0.71828 0.0
C1111 C 0.80938 0.6431 0.69798 0.0
C1112 C 0.7607 0.65469 0.68421 0.0
C1113 C 0.76559 0.67272 0.69086 0.0
C1114 C 0.81904 0.67919 0.71137 0.0
C1115 C 0.86799 0.66765 0.72511 0.0
H1116 H 0.72787 0.68168 0.68018 0.0
H1117 H 0.20197 0.56921 0.81315 0.0
H1118 H 0.0647 0.41414 0.61257 0.0
H1119 H 0.09017 0.40903 0.67244 0.0
H1120 H 0.06863 0.35303 0.65691 0.0
H1121 H 0.04109 0.35827 0.5967 0.0
H1122 H 0.98793 0.36197 0.70563 0.0
H1123 H 0.22632 0.37052 0.69207 0.0
H1124 H 0.33732 0.38283 0.67231 0.0
H1125 H 0.28525 0.43292 0.71602 0.0
H1126 H 0.17445 0.4208 0.73667 0.0
H1127 H 0.03764 0.36289 0.89184 0.0
H1128 H 0.04022 0.3564 0.8305 0.0
H1129 H 0.03532 0.41203 0.80857 0.0
H1130 H 0.03467 0.41851 0.86952 0.0
H1131 H 0.14697 0.39578 0.78019 0.0
H1132 H 0.89922 0.38209 0.79391 0.0
H1133 H 0.80498 0.36435 0.81881 0.0
H1134 H 0.89182 0.31745 0.77571 0.0
H1135 H 0.98797 0.33473 0.75148 0.0
C1136 C 0.06835 0.40069 0.62158 0.0
C1137 C 0.05102 0.38661 0.59999 0.0
C1138 C 0.0831 0.39773 0.65594 0.0
C1139 C 0.08118 0.38061 0.66949 0.0
C1140 C 0.07024 0.36636 0.64717 0.0
C1141 C 0.05555 0.36934 0.61261 0.0
C1142 C 0.07959 0.37821 0.70725 0.0
C1143 C 0.02375 0.36905 0.72196 0.0
C1144 C 0.12641 0.38718 0.72886 0.0
C1145 C 0.19193 0.39477 0.71574 0.0
C1146 C 0.23837 0.38419 0.6973 0.0
C1147 C 0.30143 0.3911 0.68614 0.0
C1148 C 0.3182 0.40866 0.69277 0.0
C1149 C 0.27218 0.41931 0.71088 0.0
C1150 C 0.20946 0.4124 0.72256 0.0
C1151 C 0.03434 0.37368 0.87386 0.0
C1152 C 0.03621 0.39122 0.88538 0.0
C1153 C 0.03641 0.36996 0.83881 0.0
C1154 C 0.03896 0.38375 0.81491 0.0
C1155 C 0.03428 0.40119 0.82652 0.0
C1156 C 0.03315 0.40489 0.86135 0.0
C1157 C 0.0532 0.38046 0.77817 0.0
C1158 C 0.11181 0.38851 0.76381 0.0
C1159 C 0.01044 0.36986 0.75723 0.0
C1160 C 0.9513 0.35969 0.77117 0.0
C1161 C 0.8986 0.36798 0.78994 0.0
C1162 C 0.84479 0.35801 0.80393 0.0
C1163 C 0.84236 0.33983 0.79883 0.0
C1164 C 0.89377 0.33154 0.77969 0.0
C1165 C 0.94802 0.3414 0.76588 0.0
H1166 H 0.80059 0.33217 0.8097 0.0
H1167 H 0.36684 0.41401 0.68386 0.0
H1168 H 0.57539 0.90672 0.11081 0.0
H1169 H 0.58545 0.918 0.16927 0.0
H1170 H 0.37382 0.90321 0.18883 0.0
H1171 H 0.36378 0.89177 0.13073 0.0
H1172 H 0.42365 0.9352 0.22586 0.0
H1173 H 0.48275 0.87315 0.20168 0.0
H1174 H 0.54913 0.85075 0.17004 0.0
H1175 H 0.73935 0.87464 0.20279 0.0
H1176 H 0.67389 0.89736 0.23419 0.0
H1177 H 0.37645 0.90125 0.39208 0.0
H1178 H 0.38339 0.91231 0.33358 0.0
H1179 H 0.60609 0.90818 0.33721 0.0
H1180 H 0.59825 0.89603 0.39482 0.0
H1181 H 0.56758 0.89131 0.28684 0.0
H1182 H 0.51572 0.94899 0.32167 0.0
H1183 H 0.45766 0.97321 0.35171 0.0
H1184 H 0.26714 0.96096 0.30051 0.0
H1185 H 0.32432 0.93658 0.26999 0.0
C1186 C 0.53029 0.90651 0.12718 0.0
C1187 C 0.46903 0.89821 0.11645 0.0
C1188 C 0.53608 0.91295 0.16055 0.0
C1189 C 0.48049 0.91131 0.18342 0.0
C1190 C 0.41718 0.90468 0.17157 0.0
C1191 C 0.41169 0.89802 0.13845 0.0
C1192 C 0.4916 0.91297 0.22072 0.0
C1193 C 0.45519 0.9257 0.23941 0.0
C1194 C 0.53438 0.90089 0.23816 0.0
C1195 C 0.57354 0.88703 0.21991 0.0
C1196 C 0.53873 0.87368 0.20193 0.0
C1197 C 0.57616 0.86092 0.18407 0.0
C1198 C 0.64842 0.8613 0.18433 0.0
C1199 C 0.68338 0.87439 0.20256 0.0
C1200 C 0.64617 0.8872 0.22038 0.0
C1201 C 0.42684 0.90333 0.38069 0.0
C1202 C 0.4868 0.89779 0.39766 0.0
C1203 C 0.43099 0.90973 0.34723 0.0
C1204 C 0.49539 0.91106 0.33061 0.0
C1205 C 0.55573 0.90712 0.34913 0.0
C1206 C 0.55138 0.9003 0.38214 0.0
C1207 C 0.499 0.91354 0.29286 0.0
C1208 C 0.53759 0.90132 0.27381 0.0
C1209 C 0.45944 0.92636 0.27529 0.0
C1210 C 0.42425 0.94087 0.2937 0.0
C1211 C 0.46129 0.95136 0.31699 0.0
C1212 C 0.42851 0.96515 0.33409 0.0
C1213 C 0.35855 0.96859 0.32821 0.0
C1214 C 0.32132 0.95827 0.30507 0.0
C1215 C 0.35398 0.9445 0.28774 0.0
H1216 H 0.33321 0.97929 0.34146 0.0
H1217 H 0.67732 0.85142 0.17047 0.0
H1218 H 0.37549 0.09919 0.11402 0.0
H1219 H 0.38244 0.08587 0.17097 0.0
H1220 H 0.57856 0.1117 0.18758 0.0
H1221 H 0.57361 0.12405 0.13041 0.0
H1222 H 0.57736 0.08206 0.22135 0.0
H1223 H 0.41849 0.13161 0.20753 0.0
H1224 H 0.31624 0.14616 0.18258 0.0
H1225 H 0.18642 0.10423 0.21872 0.0
H1226 H 0.28819 0.08935 0.24356 0.0
H1227 H 0.6039 0.11887 0.38372 0.0
H1228 H 0.59804 0.10778 0.32543 0.0
H1229 H 0.39332 0.08725 0.34502 0.0
H1230 H 0.398 0.09957 0.40287 0.0
H1231 H 0.38577 0.10489 0.29255 0.0
H1232 H 0.54594 0.06151 0.32443 0.0
H1233 H 0.64903 0.04764 0.34935 0.0
H1234 H 0.77899 0.07694 0.28113 0.0
H1235 H 0.67656 0.09111 0.25593 0.0
C1236 C 0.42142 0.10133 0.12927 0.0
C1237 C 0.47395 0.11267 0.11783 0.0
C1238 C 0.42499 0.09391 0.162 0.0
C1239 C 0.48027 0.09813 0.18395 0.0
C1240 C 0.53524 0.10827 0.17132 0.0
C1241 C 0.53209 0.11546 0.13866 0.0
C1242 C 0.4775 0.09439 0.22121 0.0
C1243 C 0.53533 0.08683 0.23713 0.0
C1244 C 0.42191 0.1003 0.24166 0.0
C1245 C 0.36085 0.10929 0.22699 0.0
C1246 C 0.36814 0.12547 0.20998 0.0
C1247 C 0.31033 0.13377 0.19587 0.0
C1248 C 0.24491 0.12609 0.19897 0.0
C1249 C 0.23715 0.11013 0.21627 0.0
C1250 C 0.29484 0.10176 0.23035 0.0
C1251 C 0.55863 0.11151 0.37576 0.0
C1252 C 0.50149 0.10998 0.39747 0.0
C1253 C 0.55534 0.10501 0.34246 0.0
C1254 C 0.49544 0.09642 0.33056 0.0
C1255 C 0.44014 0.0938 0.35338 0.0
C1256 C 0.4428 0.10075 0.38644 0.0
C1257 C 0.48679 0.09282 0.29333 0.0
C1258 C 0.42689 0.09923 0.27727 0.0
C1259 C 0.54063 0.08575 0.2729 0.0
C1260 C 0.60297 0.07734 0.28812 0.0
C1261 C 0.5963 0.06501 0.3147 0.0
C1262 C 0.65477 0.05711 0.32895 0.0
C1263 C 0.72056 0.0614 0.31684 0.0
C1264 C 0.72795 0.07359 0.29044 0.0
C1265 C 0.66958 0.08153 0.27609 0.0
H1266 H 0.76582 0.05527 0.32792 0.0
H1267 H 0.2002 0.13253 0.18803 0.0
H1268 H 0.52213 0.09329 0.89189 0.0
H1269 H 0.55206 0.09858 0.8323 0.0
H1270 H 0.51905 0.15424 0.84653 0.0
H1271 H 0.49015 0.14899 0.90673 0.0
H1272 H 0.43947 0.13999 0.7939 0.0
H1273 H 0.67315 0.14211 0.82552 0.0
H1274 H 0.78074 0.13366 0.85486 0.0
H1275 H 0.78302 0.08455 0.80062 0.0
H1276 H 0.67453 0.09253 0.77141 0.0
H1277 H 0.50877 0.1437 0.61208 0.0
H1278 H 0.50796 0.14969 0.67355 0.0
H1279 H 0.5538 0.09509 0.69363 0.0
H1280 H 0.55712 0.08923 0.63242 0.0
H1281 H 0.63884 0.11624 0.72905 0.0
H1282 H 0.39265 0.11469 0.70259 0.0
H1283 H 0.29449 0.1259 0.66915 0.0
H1284 H 0.31984 0.177 0.71437 0.0
H1285 H 0.4212 0.16635 0.74655 0.0
C1286 C 0.52381 0.10673 0.88265 0.0
C1287 C 0.50388 0.12073 0.90384 0.0
C1288 C 0.54071 0.10974 0.84857 0.0
C1289 C 0.53726 0.12679 0.83491 0.0
C1290 C 0.52185 0.14099 0.85659 0.0
C1291 C 0.50611 0.13799 0.891 0.0
C1292 C 0.54222 0.12915 0.79741 0.0
C1293 C 0.4837 0.13518 0.77967 0.0
C1294 C 0.59983 0.12286 0.77891 0.0
C1295 C 0.66529 0.1179 0.79636 0.0
C1296 C 0.69619 0.12944 0.82002 0.0
C1297 C 0.75746 0.12474 0.83661 0.0
C1298 C 0.78873 0.10858 0.82961 0.0
C1299 C 0.75875 0.09707 0.806 0.0
C1300 C 0.69736 0.10169 0.78938 0.0
C1301 C 0.51668 0.13289 0.62968 0.0
C1302 C 0.53258 0.11597 0.61751 0.0
C1303 C 0.51697 0.13637 0.6648 0.0
C1304 C 0.53139 0.12286 0.68827 0.0
C1305 C 0.54342 0.10577 0.67606 0.0
C1306 C 0.54429 0.10237 0.64109 0.0
C1307 C 0.53488 0.12628 0.72561 0.0
C1308 C 0.59511 0.12133 0.74328 0.0
C1309 C 0.47918 0.13379 0.74397 0.0
C1310 C 0.41509 0.13977 0.72668 0.0
C1311 C 0.37751 0.12834 0.70533 0.0
C1312 C 0.32138 0.13462 0.6865 0.0
C1313 C 0.30062 0.15214 0.68974 0.0
C1314 C 0.33602 0.16343 0.71186 0.0
C1315 C 0.39314 0.15731 0.73023 0.0
H1316 H 0.25726 0.157 0.67508 0.0
H1317 H 0.83622 0.10497 0.84244 0.0
H1318 H 0.50366 0.85709 0.60744 0.0
H1319 H 0.5113 0.85102 0.66877 0.0
H1320 H 0.55676 0.90575 0.68777 0.0
H1321 H 0.54838 0.91186 0.62678 0.0
H1322 H 0.62189 0.88348 0.73415 0.0
H1323 H 0.3939 0.89285 0.68408 0.0
H1324 H 0.30016 0.88554 0.64379 0.0
H1325 H 0.28436 0.83377 0.68702 0.0
H1326 H 0.37905 0.8407 0.72719 0.0
H1327 H 0.48051 0.91572 0.88013 0.0
H1328 H 0.48015 0.90896 0.81937 0.0
H1329 H 0.45719 0.85375 0.84191 0.0
H1330 H 0.45778 0.86045 0.90331 0.0
H1331 H 0.38636 0.86898 0.77637 0.0
H1332 H 0.60512 0.86187 0.83305 0.0
H1333 H 0.69661 0.87061 0.87354 0.0
H1334 H 0.72897 0.91856 0.81783 0.0
H1335 H 0.63664 0.91026 0.77739 0.0
C1336 C 0.51858 0.86764 0.62455 0.0
C1337 C 0.52483 0.88499 0.61247 0.0
C1338 C 0.52219 0.86419 0.65963 0.0
C1339 C 0.53296 0.87802 0.68286 0.0
C1340 C 0.54792 0.8949 0.67034 0.0
C1341 C 0.54342 0.89838 0.63544 0.0
C1342 C 0.51868 0.87581 0.71985 0.0
C1343 C 0.57064 0.88013 0.74337 0.0
C1344 C 0.45187 0.87124 0.73196 0.0
C1345 C 0.39408 0.86721 0.70832 0.0
C1346 C 0.37074 0.87987 0.68483 0.0
C1347 C 0.31744 0.8758 0.66202 0.0
C1348 C 0.28643 0.85918 0.66277 0.0
C1349 C 0.30854 0.84663 0.68642 0.0
C1350 C 0.36205 0.85061 0.7092 0.0
C1351 C 0.4726 0.9022 0.87223 0.0
C1352 C 0.47015 0.88859 0.89647 0.0
C1353 C 0.47266 0.89835 0.83746 0.0
C1354 C 0.47017 0.88084 0.82625 0.0
C1355 C 0.45947 0.86735 0.85016 0.0
C1356 C 0.45938 0.87121 0.88521 0.0
C1357 C 0.48938 0.87689 0.79044 0.0
C1358 C 0.43824 0.87166 0.7672 0.0
C1359 C 0.55699 0.8806 0.77851 0.0
C1360 C 0.61358 0.8855 0.80234 0.0
C1361 C 0.63137 0.87434 0.82959 0.0
C1362 C 0.68341 0.87921 0.85252 0.0
C1363 C 0.7185 0.89514 0.84829 0.0
C1364 C 0.70172 0.90622 0.82108 0.0
C1365 C 0.64956 0.90144 0.79813 0.0
H1366 H 0.75878 0.89889 0.86607 0.0
H1367 H 0.24517 0.85604 0.6451 0.0
loop_
_geom_bond_atom_site_label_1
_geom_bond_atom_site_label_2
_geom_bond_distance
_geom_bond_site_symmetry_2
_ccdc_geom_bond_type
Zn0 O6 1.920 1_655 S
Zn0 O12 1.898 . S
Zn0 O15 1.905 . S
Zn1 O9 1.905 . S
Zn1 O10 1.898 . S
Zn1 O18 1.920 . S
Zn2 O5 2.080 1_554 S
Zn2 O8 2.114 1_554 S
Zn2 O11 2.120 1_554 S
Zn2 O13 2.120 . S
Zn2 O14 2.114 1_455 S
Zn2 O17 2.080 . S
C3 O8 1.166 . S
C3 O9 1.192 . S
C4 O10 1.167 . S
C4 O11 1.299 . S
O5 Zn2 2.080 1_556 S
O5 C19 1.305 1_556 S
O6 Zn0 1.920 1_455 S
O6 C19 1.234 . S
C7 O12 1.167 1_455 S
C7 O13 1.299 . S
O8 Zn2 2.114 1_556 S
O8 C3 1.166 . S
O9 Zn1 1.905 . S
O9 C3 1.192 . S
O10 Zn1 1.898 . S
O10 C4 1.167 . S
O11 Zn2 2.120 1_556 S
O11 C4 1.299 . S
O12 Zn0 1.898 . S
O12 C7 1.167 1_655 S
O13 Zn2 2.120 . S
O13 C7 1.299 . S
O14 Zn2 2.114 1_655 S
O14 C16 1.166 . S
O15 Zn0 1.905 . S
O15 C16 1.182 . S
C16 O14 1.166 . S
C16 O15 1.182 . S
O17 Zn2 2.080 . S
O17 C20 1.305 1_554 S
O18 Zn1 1.920 . S
O18 C20 1.234 . S
C19 O5 1.305 1_554 S
C19 O6 1.234 . S
C20 O17 1.305 1_556 S
C20 O18 1.234 . S
Zn21 O27 1.920 . S
Zn21 O33 1.898 . S
Zn21 O36 1.905 . S
Zn22 O30 1.905 . S
Zn22 O31 1.898 . S
Zn22 O39 1.920 1_455 S
Zn23 O26 2.080 . S
Zn23 O29 2.114 1_655 S
Zn23 O32 2.120 . S
Zn23 O34 2.120 1_554 S
Zn23 O35 2.114 1_554 S
Zn23 O38 2.080 1_554 S
C24 O29 1.166 . S
C24 O30 1.182 . S
C25 O31 1.167 1_655 S
C25 O32 1.299 . S
O26 Zn23 2.080 . S
O26 C40 1.305 1_554 S
O27 Zn21 1.920 . S
O27 C40 1.234 . S
C28 O33 1.167 . S
C28 O34 1.299 . S
O29 Zn23 2.114 1_455 S
O29 C24 1.166 . S
O30 Zn22 1.905 . S
O30 C24 1.182 . S
O31 Zn22 1.898 . S
O31 C25 1.167 1_455 S
O32 Zn23 2.120 . S
O32 C25 1.299 . S
O33 Zn21 1.898 . S
O33 C28 1.167 . S
O34 Zn23 2.120 1_556 S
O34 C28 1.299 . S
O35 Zn23 2.114 1_556 S
O35 C37 1.166 . S
O36 Zn21 1.905 . S
O36 C37 1.192 . S
C37 O35 1.166 . S
C37 O36 1.192 . S
O38 Zn23 2.080 1_556 S
O38 C41 1.305 1_556 S
O39 Zn22 1.920 1_655 S
O39 C41 1.234 . S
C40 O26 1.305 1_556 S
C40 O27 1.234 . S
C41 O38 1.305 1_554 S
C41 O39 1.234 . S
Zn42 O48 1.920 . S
Zn42 O54 1.898 . S
Zn42 O57 1.905 . S
Zn43 O51 1.905 . S
Zn43 O52 1.898 . S
Zn43 O60 1.920 1_655 S
Zn44 O47 2.080 . S
Zn44 O50 2.114 1_455 S
Zn44 O53 2.120 . S
Zn44 O55 2.120 . S
Zn44 O56 2.114 . S
Zn44 O59 2.080 . S
C45 O50 1.166 . S
C45 O51 1.182 . S
C46 O52 1.167 1_455 S
C46 O53 1.299 . S
O47 Zn44 2.080 . S
O47 C61 1.305 . S
O48 Zn42 1.920 . S
O48 C61 1.234 . S
C49 O54 1.167 . S
C49 O55 1.299 . S
O50 Zn44 2.114 1_655 S
O50 C45 1.166 . S
O51 Zn43 1.905 . S
O51 C45 1.182 . S
O52 Zn43 1.898 . S
O52 C46 1.167 1_655 S
O53 Zn44 2.120 . S
O53 C46 1.299 . S
O54 Zn42 1.898 . S
O54 C49 1.167 . S
O55 Zn44 2.120 . S
O55 C49 1.299 . S
O56 Zn44 2.114 . S
O56 C58 1.166 . S
O57 Zn42 1.905 . S
O57 C58 1.182 . S
C58 O56 1.166 . S
C58 O57 1.182 . S
O59 Zn44 2.080 . S
O59 C62 1.305 . S
O60 Zn43 1.920 1_455 S
O60 C62 1.234 . S
C61 O47 1.305 . S
C61 O48 1.234 . S
C62 O59 1.305 . S
C62 O60 1.234 . S
Zn63 O69 1.920 1_455 S
Zn63 O75 1.898 . S
Zn63 O78 1.905 . S
Zn64 O72 1.905 . S
Zn64 O73 1.898 . S
Zn64 O81 1.920 . S
Zn65 O68 2.080 . S
Zn65 O71 2.114 . S
Zn65 O74 2.120 . S
Zn65 O76 2.120 . S
Zn65 O77 2.114 1_655 S
Zn65 O80 2.080 . S
C66 O71 1.166 . S
C66 O72 1.182 . S
C67 O73 1.167 . S
C67 O74 1.299 . S
O68 Zn65 2.080 . S
O68 C82 1.305 . S
O69 Zn63 1.920 1_655 S
O69 C82 1.234 . S
C70 O75 1.167 1_655 S
C70 O76 1.299 . S
O71 Zn65 2.114 . S
O71 C66 1.166 . S
O72 Zn64 1.905 . S
O72 C66 1.182 . S
O73 Zn64 1.898 . S
O73 C67 1.167 . S
O74 Zn65 2.120 . S
O74 C67 1.299 . S
O75 Zn63 1.898 . S
O75 C70 1.167 1_455 S
O76 Zn65 2.120 . S
O76 C70 1.299 . S
O77 Zn65 2.114 1_455 S
O77 C79 1.166 . S
O78 Zn63 1.905 . S
O78 C79 1.182 . S
C79 O77 1.166 . S
C79 O78 1.182 . S
O80 Zn65 2.080 . S
O80 C83 1.305 . S
O81 Zn64 1.920 . S
O81 C83 1.234 . S
C82 O68 1.305 . S
C82 O69 1.234 . S
C83 O80 1.305 . S
C83 O81 1.234 . S
Zn84 O90 1.920 . S
Zn84 O96 1.898 . S
Zn84 O99 1.905 . S
Zn85 O93 1.905 . S
Zn85 O94 1.898 . S
Zn85 O102 1.920 . S
Zn86 O89 2.080 1_554 S
Zn86 O92 2.114 1_554 S
Zn86 O95 2.120 1_554 S
Zn86 O97 2.120 . S
Zn86 O98 2.114 . S
Zn86 O101 2.080 . S
C87 O92 1.166 . S
C87 O93 1.192 . S
C88 O94 1.167 . S
C88 O95 1.299 . S
O89 Zn86 2.080 1_556 S
O89 C103 1.305 1_556 S
O90 Zn84 1.920 . S
O90 C103 1.234 . S
C91 O96 1.167 . S
C91 O97 1.299 . S
O92 Zn86 2.114 1_556 S
O92 C87 1.166 . S
O93 Zn85 1.905 . S
O93 C87 1.192 . S
O94 Zn85 1.898 . S
O94 C88 1.167 . S
O95 Zn86 2.120 1_556 S
O95 C88 1.299 . S
O96 Zn84 1.898 . S
O96 C91 1.167 . S
O97 Zn86 2.120 . S
O97 C91 1.299 . S
O98 Zn86 2.114 . S
O98 C100 1.166 . S
O99 Zn84 1.905 . S
O99 C100 1.182 . S
C100 O98 1.166 . S
C100 O99 1.182 . S
O101 Zn86 2.080 . S
O101 C104 1.305 1_554 S
O102 Zn85 1.920 . S
O102 C104 1.234 . S
C103 O89 1.305 1_554 S
C103 O90 1.234 . S
C104 O101 1.305 1_556 S
C104 O102 1.234 . S
Zn105 O111 1.920 . S
Zn105 O117 1.898 . S
Zn105 O120 1.905 . S
Zn106 O114 1.905 . S
Zn106 O115 1.898 . S
Zn106 O123 1.920 . S
Zn107 O110 2.080 . S
Zn107 O113 2.114 . S
Zn107 O116 2.120 . S
Zn107 O118 2.120 1_554 S
Zn107 O119 2.114 1_554 S
Zn107 O122 2.080 1_554 S
C108 O113 1.166 . S
C108 O114 1.182 . S
C109 O115 1.167 . S
C109 O116 1.299 . S
O110 Zn107 2.080 . S
O110 C124 1.305 1_554 S
O111 Zn105 1.920 . S
O111 C124 1.234 . S
C112 O117 1.167 . S
C112 O118 1.299 . S
O113 Zn107 2.114 . S
O113 C108 1.166 . S
O114 Zn106 1.905 . S
O114 C108 1.182 . S
O115 Zn106 1.898 . S
O115 C109 1.167 . S
O116 Zn107 2.120 . S
O116 C109 1.299 . S
O117 Zn105 1.898 . S
O117 C112 1.167 . S
O118 Zn107 2.120 1_556 S
O118 C112 1.299 . S
O119 Zn107 2.114 1_556 S
O119 C121 1.166 . S
O120 Zn105 1.905 . S
O120 C121 1.192 . S
C121 O119 1.166 . S
C121 O120 1.192 . S
O122 Zn107 2.080 1_556 S
O122 C125 1.305 1_556 S
O123 Zn106 1.920 . S
O123 C125 1.234 . S
C124 O110 1.305 1_556 S
C124 O111 1.234 . S
C125 O122 1.305 1_554 S
C125 O123 1.234 . S
Zn126 O132 1.920 . S
Zn126 O138 1.898 . S
Zn126 O141 1.905 . S
Zn127 O135 1.905 . S
Zn127 O136 1.898 . S
Zn127 O144 1.920 . S
Zn128 O131 2.080 . S
Zn128 O134 2.114 . S
Zn128 O137 2.120 . S
Zn128 O139 2.120 . S
Zn128 O140 2.114 . S
Zn128 O143 2.080 . S
C129 O134 1.166 . S
C129 O135 1.182 . S
C130 O136 1.167 . S
C130 O137 1.299 . S
O131 Zn128 2.080 . S
O131 C145 1.305 . S
O132 Zn126 1.920 . S
O132 C145 1.234 . S
C133 O138 1.167 . S
C133 O139 1.299 . S
O134 Zn128 2.114 . S
O134 C129 1.166 . S
O135 Zn127 1.905 . S
O135 C129 1.182 . S
O136 Zn127 1.898 . S
O136 C130 1.167 . S
O137 Zn128 2.120 . S
O137 C130 1.299 . S
O138 Zn126 1.898 . S
O138 C133 1.167 . S
O139 Zn128 2.120 . S
O139 C133 1.299 . S
O140 Zn128 2.114 . S
O140 C142 1.166 . S
O141 Zn126 1.905 . S
O141 C142 1.182 . S
C142 O140 1.166 . S
C142 O141 1.182 . S
O143 Zn128 2.080 . S
O143 C146 1.305 . S
O144 Zn127 1.920 . S
O144 C146 1.234 . S
C145 O131 1.305 . S
C145 O132 1.234 . S
C146 O143 1.305 . S
C146 O144 1.234 . S
Zn147 O153 1.920 . S
Zn147 O159 1.898 . S
Zn147 O162 1.905 . S
Zn148 O156 1.905 . S
Zn148 O157 1.898 . S
Zn148 O165 1.920 . S
Zn149 O152 2.080 . S
Zn149 O155 2.114 . S
Zn149 O158 2.120 . S
Zn149 O160 2.120 . S
Zn149 O161 2.114 . S
Zn149 O164 2.080 . S
C150 O155 1.166 . S
C150 O156 1.182 . S
C151 O157 1.167 . S
C151 O158 1.299 . S
O152 Zn149 2.080 . S
O152 C166 1.305 . S
O153 Zn147 1.920 . S
O153 C166 1.234 . S
C154 O159 1.167 . S
C154 O160 1.299 . S
O155 Zn149 2.114 . S
O155 C150 1.166 . S
O156 Zn148 1.905 . S
O156 C150 1.182 . S
O157 Zn148 1.898 . S
O157 C151 1.167 . S
O158 Zn149 2.120 . S
O158 C151 1.299 . S
O159 Zn147 1.898 . S
O159 C154 1.167 . S
O160 Zn149 2.120 . S
O160 C154 1.299 . S
O161 Zn149 2.114 . S
O161 C163 1.166 . S
O162 Zn147 1.905 . S
O162 C163 1.182 . S
C163 O161 1.166 . S
C163 O162 1.182 . S
O164 Zn149 2.080 . S
O164 C167 1.305 . S
O165 Zn148 1.920 . S
O165 C167 1.234 . S
C166 O152 1.305 . S
C166 O153 1.234 . S
C167 O164 1.305 . S
C167 O165 1.234 . S
H168 C186 0.951 . S
H169 C188 0.951 . S
H170 C190 0.950 . S
H171 C191 0.950 . S
H172 C193 0.950 . S
H173 C196 0.950 . S
H174 C197 0.950 . S
H175 C199 0.950 . S
H176 C200 0.950 . S
H177 C201 0.951 . S
H178 C203 0.951 . S
H179 C205 0.950 . S
H180 C206 0.950 . S
H181 C208 0.950 . S
H182 C211 0.950 . S
H183 C212 0.950 . S
H184 C214 0.950 1_554 S
H185 C215 0.950 1_554 S
C186 H168 0.951 . S
C186 C187 1.366 . S
C186 C188 1.388 . S
C187 C186 1.366 . S
C187 C191 1.385 1_556 S
C188 H169 0.951 . S
C188 C186 1.388 . S
C188 C189 1.366 . S
C189 C188 1.366 . S
C189 C190 1.414 1_556 S
C189 C192 1.499 . S
C190 H170 0.950 . S
C190 C189 1.414 1_554 S
C190 C191 1.374 . S
C191 H171 0.950 . S
C191 C187 1.385 1_554 S
C191 C190 1.374 . S
C192 C189 1.499 . S
C192 C193 1.373 . S
C192 C194 1.389 . S
C193 H172 0.950 . S
C193 C192 1.373 . S
C193 C209 1.377 . S
C194 C192 1.389 . S
C194 C195 1.524 . S
C194 C208 1.377 . S
C195 C194 1.524 . S
C195 C196 1.397 1_556 S
C195 C200 1.363 . S
C196 H173 0.950 . S
C196 C195 1.397 1_554 S
C196 C197 1.334 . S
C197 H174 0.950 . S
C197 C196 1.334 . S
C197 C198 1.287 . S
C198 C197 1.287 . S
C198 C199 1.524 1_554 S
C198 H217 0.913 . S
C199 H175 0.950 . S
C199 C198 1.524 1_556 S
C199 C200 1.415 . S
C200 H176 0.950 . S
C200 C195 1.363 . S
C200 C199 1.415 . S
C201 H177 0.951 . S
C201 C202 1.366 1_554 S
C201 C203 1.388 . S
C202 C201 1.366 1_556 S
C202 C206 1.385 . S
C203 H178 0.951 . S
C203 C201 1.388 . S
C203 C204 1.366 1_554 S
C204 C203 1.366 1_556 S
C204 C205 1.414 . S
C204 C207 1.499 . S
C205 H179 0.950 . S
C205 C204 1.414 . S
C205 C206 1.374 . S
C206 H180 0.950 . S
C206 C202 1.385 . S
C206 C205 1.374 . S
C207 C204 1.499 . S
C207 C208 1.373 . S
C207 C209 1.389 . S
C208 H181 0.950 . S
C208 C194 1.377 . S
C208 C207 1.373 . S
C209 C193 1.377 . S
C209 C207 1.389 . S
C209 C210 1.524 . S
C210 C209 1.524 . S
C210 C211 1.397 . S
C210 C215 1.363 . S
C211 H182 0.950 . S
C211 C210 1.397 . S
C211 C212 1.334 . S
C212 H183 0.950 . S
C212 C211 1.334 . S
C212 C213 1.287 . S
C213 C212 1.287 . S
C213 C214 1.524 . S
C213 H216 0.999 . S
C214 H184 0.950 1_556 S
C214 C213 1.524 . S
C214 C215 1.415 . S
C215 H185 0.950 1_556 S
C215 C210 1.363 . S
C215 C214 1.415 . S
H216 C213 0.999 . S
H217 C198 0.913 . S
H218 C236 0.951 . S
H219 C238 0.954 . S
H220 C240 0.950 . S
H221 C241 0.950 . S
H222 C243 0.950 . S
H223 C246 0.950 . S
H224 C247 0.950 . S
H225 C249 0.950 . S
H226 C250 0.950 . S
H227 C251 0.951 . S
H228 C253 0.951 . S
H229 C255 0.950 . S
H230 C256 0.950 . S
H231 C258 0.950 . S
H232 C261 0.950 . S
H233 C262 0.950 . S
H234 C264 0.950 . S
H235 C265 0.950 . S
C236 H218 0.951 . S
C236 C237 1.366 . S
C236 C238 1.388 . S
C237 C236 1.366 . S
C237 C241 1.385 . S
C238 H219 0.954 . S
C238 C236 1.388 . S
C238 C239 1.366 . S
C239 C238 1.366 . S
C239 C240 1.414 . S
C239 C242 1.499 . S
C240 H220 0.950 . S
C240 C239 1.414 . S
C240 C241 1.374 . S
C241 H221 0.950 . S
C241 C237 1.385 . S
C241 C240 1.374 . S
C242 C239 1.499 . S
C242 C243 1.373 . S
C242 C244 1.389 1_556 S
C243 H222 0.950 . S
C243 C242 1.373 . S
C243 C259 1.377 . S
C244 C242 1.389 1_554 S
C244 C245 1.524 . S
C244 C258 1.377 . S
C245 C244 1.524 . S
C245 C246 1.397 . S
C245 C250 1.363 . S
C246 H223 0.950 . S
C246 C245 1.397 . S
C246 C247 1.334 . S
C247 H224 0.950 . S
C247 C246 1.334 . S
C247 C248 1.287 . S
C248 C247 1.287 . S
C248 C249 1.524 . S
C248 H267 0.913 . S
C249 H225 0.950 . S
C249 C248 1.524 . S
C249 C250 1.415 . S
C250 H226 0.950 . S
C250 C245 1.363 . S
C250 C249 1.415 . S
C251 H227 0.951 . S
C251 C252 1.366 . S
C251 C253 1.388 . S
C252 C251 1.366 . S
C252 C256 1.385 . S
C253 H228 0.951 . S
C253 C251 1.388 . S
C253 C254 1.366 . S
C254 C253 1.366 . S
C254 C255 1.414 . S
C254 C257 1.499 . S
C255 H229 0.950 . S
C255 C254 1.414 . S
C255 C256 1.374 . S
C256 H230 0.950 . S
C256 C252 1.385 . S
C256 C255 1.374 . S
C257 C254 1.499 . S
C257 C258 1.373 1_556 S
C257 C259 1.389 . S
C258 H231 0.950 . S
C258 C244 1.377 . S
C258 C257 1.373 1_554 S
C259 C243 1.377 . S
C259 C257 1.389 . S
C259 C260 1.524 . S
C260 C259 1.524 . S
C260 C261 1.397 . S
C260 C265 1.363 . S
C261 H232 0.950 . S
C261 C260 1.397 . S
C261 C262 1.334 . S
C262 H233 0.950 . S
C262 C261 1.334 . S
C262 C263 1.287 . S
C263 C262 1.287 . S
C263 C264 1.524 . S
C263 H266 0.999 . S
C264 H234 0.950 . S
C264 C263 1.524 . S
C264 C265 1.415 . S
C265 H235 0.950 . S
C265 C260 1.363 . S
C265 C264 1.415 . S
H266 C263 0.999 . S
H267 C248 0.913 . S
H268 C286 0.951 . S
H269 C288 0.951 . S
H270 C290 0.950 . S
H271 C291 0.950 . S
H272 C293 0.950 . S
H273 C296 0.950 . S
H274 C297 0.950 . S
H275 C299 0.950 . S
H276 C300 0.950 . S
H277 C301 0.951 . S
H278 C303 0.951 . S
H279 C305 0.950 . S
H280 C306 0.950 . S
H281 C308 0.950 . S
H282 C311 0.950 . S
H283 C312 0.950 . S
H284 C314 0.950 . S
H285 C315 0.950 . S
C286 H268 0.951 . S
C286 C287 1.366 . S
C286 C288 1.388 . S
C287 C286 1.366 . S
C287 C291 1.385 . S
C288 H269 0.951 . S
C288 C286 1.388 . S
C288 C289 1.366 . S
C289 C288 1.366 . S
C289 C290 1.414 . S
C289 C292 1.499 . S
C290 H270 0.950 . S
C290 C289 1.414 . S
C290 C291 1.374 . S
C291 H271 0.950 . S
C291 C287 1.385 . S
C291 C290 1.374 . S
C292 C289 1.499 . S
C292 C293 1.373 . S
C292 C294 1.389 . S
C293 H272 0.950 . S
C293 C292 1.373 . S
C293 C309 1.377 . S
C294 C292 1.389 . S
C294 C295 1.524 . S
C294 C308 1.377 . S
C295 C294 1.524 . S
C295 C296 1.397 . S
C295 C300 1.363 . S
C296 H273 0.950 . S
C296 C295 1.397 . S
C296 C297 1.334 . S
C297 H274 0.950 . S
C297 C296 1.334 . S
C297 C298 1.287 . S
C298 C297 1.287 . S
C298 C299 1.524 . S
C298 H317 0.913 . S
C299 H275 0.950 . S
C299 C298 1.524 . S
C299 C300 1.415 . S
C300 H276 0.950 . S
C300 C295 1.363 . S
C300 C299 1.415 . S
C301 H277 0.951 . S
C301 C302 1.366 . S
C301 C303 1.388 . S
C302 C301 1.366 . S
C302 C306 1.385 . S
C303 H278 0.951 . S
C303 C301 1.388 . S
C303 C304 1.366 . S
C304 C303 1.366 . S
C304 C305 1.414 . S
C304 C307 1.499 . S
C305 H279 0.950 . S
C305 C304 1.414 . S
C305 C306 1.374 . S
C306 H280 0.950 . S
C306 C302 1.385 . S
C306 C305 1.374 . S
C307 C304 1.499 . S
C307 C308 1.373 . S
C307 C309 1.389 . S
C308 H281 0.950 . S
C308 C294 1.377 . S
C308 C307 1.373 . S
C309 C293 1.377 . S
C309 C307 1.389 . S
C309 C310 1.524 . S
C310 C309 1.524 . S
C310 C311 1.397 . S
C310 C315 1.363 . S
C311 H282 0.950 . S
C311 C310 1.397 . S
C311 C312 1.334 . S
C312 H283 0.950 . S
C312 C311 1.334 . S
C312 C313 1.287 . S
C313 C312 1.287 . S
C313 C314 1.524 . S
C313 H316 0.999 . S
C314 H284 0.950 . S
C314 C313 1.524 . S
C314 C315 1.415 . S
C315 H285 0.950 . S
C315 C310 1.363 . S
C315 C314 1.415 . S
H316 C313 0.999 . S
H317 C298 0.913 . S
H318 C336 0.951 . S
H319 C338 0.951 . S
H320 C340 0.950 . S
H321 C341 0.950 . S
H322 C343 0.950 . S
H323 C346 0.950 . S
H324 C347 0.950 . S
H325 C349 0.950 . S
H326 C350 0.950 . S
H327 C351 0.951 . S
H328 C353 0.951 . S
H329 C355 0.950 . S
H330 C356 0.950 . S
H331 C358 0.950 . S
H332 C361 0.950 . S
H333 C362 0.950 . S
H334 C364 0.950 . S
H335 C365 0.950 . S
C336 H318 0.951 . S
C336 C337 1.366 . S
C336 C338 1.388 . S
C337 C336 1.366 . S
C337 C341 1.385 . S
C338 H319 0.951 . S
C338 C336 1.388 . S
C338 C339 1.366 . S
C339 C338 1.366 . S
C339 C340 1.414 . S
C339 C342 1.499 . S
C340 H320 0.950 . S
C340 C339 1.414 . S
C340 C341 1.374 . S
C341 H321 0.950 . S
C341 C337 1.385 . S
C341 C340 1.374 . S
C342 C339 1.499 . S
C342 C343 1.373 . S
C342 C344 1.389 . S
C343 H322 0.950 . S
C343 C342 1.373 . S
C343 C359 1.377 . S
C344 C342 1.389 . S
C344 C345 1.524 . S
C344 C358 1.377 . S
C345 C344 1.524 . S
C345 C346 1.397 . S
C345 C350 1.363 . S
C346 H323 0.950 . S
C346 C345 1.397 . S
C346 C347 1.334 . S
C347 H324 0.950 . S
C347 C346 1.334 . S
C347 C348 1.287 . S
C348 C347 1.287 . S
C348 C349 1.524 . S
C348 H367 0.913 . S
C349 H325 0.950 . S
C349 C348 1.524 . S
C349 C350 1.415 . S
C350 H326 0.950 . S
C350 C345 1.363 . S
C350 C349 1.415 . S
C351 H327 0.951 . S
C351 C352 1.366 . S
C351 C353 1.388 . S
C352 C351 1.366 . S
C352 C356 1.385 . S
C353 H328 0.951 . S
C353 C351 1.388 . S
C353 C354 1.366 . S
C354 C353 1.366 . S
C354 C355 1.414 . S
C354 C357 1.499 . S
C355 H329 0.950 . S
C355 C354 1.414 . S
C355 C356 1.374 . S
C356 H330 0.950 . S
C356 C352 1.385 . S
C356 C355 1.374 . S
C357 C354 1.499 . S
C357 C358 1.373 . S
C357 C359 1.389 . S
C358 H331 0.950 . S
C358 C344 1.377 . S
C358 C357 1.373 . S
C359 C343 1.377 . S
C359 C357 1.389 . S
C359 C360 1.524 . S
C360 C359 1.524 . S
C360 C361 1.397 . S
C360 C365 1.363 . S
C361 H332 0.950 . S
C361 C360 1.397 . S
C361 C362 1.334 . S
C362 H333 0.950 . S
C362 C361 1.334 . S
C362 C363 1.287 . S
C363 C362 1.287 . S
C363 C364 1.524 . S
C363 H366 0.999 . S
C364 H334 0.950 . S
C364 C363 1.524 . S
C364 C365 1.415 . S
C365 H335 0.950 . S
C365 C360 1.363 . S
C365 C364 1.415 . S
H366 C363 0.999 . S
H367 C348 0.913 . S
H368 C386 0.951 . S
H369 C388 0.951 . S
H370 C390 0.950 . S
H371 C391 0.950 . S
H372 C393 0.950 . S
H373 C396 0.950 . S
H374 C397 0.950 . S
H375 C399 0.950 . S
H376 C400 0.950 . S
H377 C401 0.951 . S
H378 C403 0.951 . S
H379 C405 0.950 . S
H380 C406 0.950 . S
H381 C408 0.950 . S
H382 C411 0.950 . S
H383 C412 0.950 . S
H384 C414 0.950 . S
H385 C415 0.950 . S
C386 H368 0.951 . S
C386 C387 1.366 . S
C386 C388 1.388 . S
C387 C386 1.366 . S
C387 C391 1.385 1_556 S
C388 H369 0.951 . S
C388 C386 1.388 . S
C388 C389 1.366 . S
C389 C388 1.366 . S
C389 C390 1.414 1_556 S
C389 C392 1.499 1_655 S
C390 H370 0.950 . S
C390 C389 1.414 1_554 S
C390 C391 1.374 . S
C391 H371 0.950 . S
C391 C387 1.385 1_554 S
C391 C390 1.374 . S
C392 C389 1.499 1_455 S
C392 C393 1.373 . S
C392 C394 1.389 . S
C393 H372 0.950 . S
C393 C392 1.373 . S
C393 C409 1.377 . S
C394 C392 1.389 . S
C394 C395 1.524 . S
C394 C408 1.377 . S
C395 C394 1.524 . S
C395 C396 1.397 1_456 S
C395 C400 1.363 . S
C396 H373 0.950 . S
C396 C395 1.397 1_654 S
C396 C397 1.334 . S
C397 H374 0.950 . S
C397 C396 1.334 . S
C397 C398 1.287 1_554 S
C398 C397 1.287 1_556 S
C398 C399 1.524 . S
C398 H417 0.915 . S
C399 H375 0.950 . S
C399 C398 1.524 . S
C399 C400 1.415 1_655 S
C400 H376 0.950 . S
C400 C395 1.363 . S
C400 C399 1.415 1_455 S
C401 H377 0.951 . S
C401 C402 1.366 1_554 S
C401 C403 1.388 . S
C402 C401 1.366 1_556 S
C402 C406 1.385 . S
C403 H378 0.951 . S
C403 C401 1.388 . S
C403 C404 1.366 1_554 S
C404 C403 1.366 1_556 S
C404 C405 1.414 . S
C404 C407 1.499 . S
C405 H379 0.950 . S
C405 C404 1.414 . S
C405 C406 1.374 . S
C406 H380 0.950 . S
C406 C402 1.385 . S
C406 C405 1.374 . S
C407 C404 1.499 . S
C407 C408 1.373 . S
C407 C409 1.389 . S
C408 H381 0.950 . S
C408 C394 1.377 . S
C408 C407 1.373 . S
C409 C393 1.377 . S
C409 C407 1.389 . S
C409 C410 1.524 . S
C410 C409 1.524 . S
C410 C411 1.397 . S
C410 C415 1.363 1_556 S
C411 H382 0.950 . S
C411 C410 1.397 . S
C411 C412 1.334 . S
C412 H383 0.950 . S
C412 C411 1.334 . S
C412 C413 1.287 . S
C413 C412 1.287 . S
C413 C414 1.524 1_556 S
C413 H416 0.999 . S
C414 H384 0.950 . S
C414 C413 1.524 1_554 S
C414 C415 1.415 . S
C415 H385 0.950 . S
C415 C410 1.363 1_554 S
C415 C414 1.415 . S
H416 C413 0.999 . S
H417 C398 0.915 . S
H418 C436 0.951 1_554 S
H419 C438 0.951 1_554 S
H420 C440 0.950 . S
H421 C441 0.950 . S
H422 C443 0.961 . S
H423 C446 0.950 . S
H424 C447 0.950 . S
H425 C449 0.950 . S
H426 C450 0.950 . S
H427 C451 0.951 . S
H428 C453 0.951 . S
H429 C455 0.947 1_554 S
H430 C456 0.950 1_554 S
H431 C458 0.950 . S
H432 C461 0.950 . S
H433 C462 0.950 . S
H434 C464 0.950 . S
H435 C465 0.950 1_556 S
C436 H418 0.951 1_556 S
C436 C437 1.366 . S
C436 C438 1.388 . S
C437 C436 1.366 . S
C437 C441 1.385 . S
C438 H419 0.951 1_556 S
C438 C436 1.388 . S
C438 C439 1.366 . S
C439 C438 1.366 . S
C439 C440 1.414 . S
C439 C442 1.499 1_455 S
C440 H420 0.950 . S
C440 C439 1.414 . S
C440 C441 1.374 . S
C441 H421 0.950 . S
C441 C437 1.385 . S
C441 C440 1.374 . S
C442 C439 1.499 1_655 S
C442 C443 1.361 1_556 S
C442 C444 1.389 . S
C443 H422 0.961 . S
C443 C442 1.361 1_554 S
C443 C459 1.379 . S
C444 C442 1.389 . S
C444 C445 1.524 . S
C444 C458 1.377 . S
C445 C444 1.524 . S
C445 C446 1.397 1_655 S
C445 C450 1.363 . S
C446 H423 0.950 . S
C446 C445 1.397 1_455 S
C446 C447 1.334 . S
C447 H424 0.950 . S
C447 C446 1.334 . S
C447 C448 1.287 . S
C448 C447 1.287 . S
C448 C449 1.524 1_455 S
C448 H467 0.913 . S
C449 H425 0.950 . S
C449 C448 1.524 1_655 S
C449 C450 1.415 . S
C450 H426 0.950 . S
C450 C445 1.363 . S
C450 C449 1.415 . S
C451 H427 0.951 . S
C451 C452 1.366 . S
C451 C453 1.388 . S
C452 C451 1.366 . S
C452 C456 1.385 . S
C453 H428 0.951 . S
C453 C451 1.388 . S
C453 C454 1.366 . S
C454 C453 1.366 . S
C454 C455 1.417 . S
C454 C457 1.499 . S
C455 H429 0.947 1_556 S
C455 C454 1.417 . S
C455 C456 1.374 . S
C456 H430 0.950 1_556 S
C456 C452 1.385 . S
C456 C455 1.374 . S
C457 C454 1.499 . S
C457 C458 1.373 . S
C457 C459 1.389 1_556 S
C458 H431 0.950 . S
C458 C444 1.377 . S
C458 C457 1.373 . S
C459 C443 1.379 . S
C459 C457 1.389 1_554 S
C459 C460 1.524 . S
C460 C459 1.524 . S
C460 C461 1.397 . S
C460 C465 1.363 . S
C461 H432 0.950 . S
C461 C460 1.397 . S
C461 C462 1.334 . S
C462 H433 0.950 . S
C462 C461 1.334 . S
C462 C463 1.287 . S
C463 C462 1.287 . S
C463 C464 1.524 . S
C463 H466 0.999 . S
C464 H434 0.950 . S
C464 C463 1.524 . S
C464 C465 1.415 . S
C465 H435 0.950 1_554 S
C465 C460 1.363 . S
C465 C464 1.415 . S
H466 C463 0.999 . S
H467 C448 0.913 . S
H468 C486 0.951 . S
H469 C488 0.951 . S
H470 C490 0.950 . S
H471 C491 0.950 . S
H472 C493 0.950 . S
H473 C496 0.950 . S
H474 C497 0.950 . S
H475 C499 0.950 . S
H476 C500 0.950 . S
H477 C501 0.951 . S
H478 C503 0.951 . S
H479 C505 0.950 . S
H480 C506 0.950 . S
H481 C508 0.950 . S
H482 C511 0.950 . S
H483 C512 0.950 . S
H484 C514 0.950 . S
H485 C515 0.950 . S
C486 H468 0.951 . S
C486 C487 1.366 . S
C486 C488 1.388 . S
C487 C486 1.366 . S
C487 C491 1.385 . S
C488 H469 0.951 . S
C488 C486 1.388 . S
C488 C489 1.366 . S
C489 C488 1.366 . S
C489 C490 1.414 . S
C489 C492 1.499 . S
C490 H470 0.950 . S
C490 C489 1.414 . S
C490 C491 1.374 . S
C491 H471 0.950 . S
C491 C487 1.385 . S
C491 C490 1.374 . S
C492 C489 1.499 . S
C492 C493 1.373 . S
C492 C494 1.389 . S
C493 H472 0.950 . S
C493 C492 1.373 . S
C493 C509 1.377 . S
C494 C492 1.389 . S
C494 C495 1.524 . S
C494 C508 1.377 . S
C495 C494 1.524 . S
C495 C496 1.397 . S
C495 C500 1.363 . S
C496 H473 0.950 . S
C496 C495 1.397 . S
C496 C497 1.334 . S
C497 H474 0.950 . S
C497 C496 1.334 . S
C497 C498 1.287 . S
C498 C497 1.287 . S
C498 C499 1.524 . S
C498 H517 0.913 . S
C499 H475 0.950 . S
C499 C498 1.524 . S
C499 C500 1.415 . S
C500 H476 0.950 . S
C500 C495 1.363 . S
C500 C499 1.415 . S
C501 H477 0.951 . S
C501 C502 1.366 . S
C501 C503 1.388 . S
C502 C501 1.366 . S
C502 C506 1.385 . S
C503 H478 0.951 . S
C503 C501 1.388 . S
C503 C504 1.366 . S
C504 C503 1.366 . S
C504 C505 1.414 . S
C504 C507 1.499 1_655 S
C505 H479 0.950 . S
C505 C504 1.414 . S
C505 C506 1.374 . S
C506 H480 0.950 . S
C506 C502 1.385 . S
C506 C505 1.374 . S
C507 C504 1.499 1_455 S
C507 C508 1.373 . S
C507 C509 1.389 . S
C508 H481 0.950 . S
C508 C494 1.377 . S
C508 C507 1.373 . S
C509 C493 1.377 . S
C509 C507 1.389 . S
C509 C510 1.524 . S
C510 C509 1.524 . S
C510 C511 1.397 1_455 S
C510 C515 1.363 . S
C511 H482 0.950 . S
C511 C510 1.397 1_655 S
C511 C512 1.334 . S
C512 H483 0.950 . S
C512 C511 1.334 . S
C512 C513 1.287 . S
C513 C512 1.287 . S
C513 C514 1.524 1_655 S
C513 H516 0.999 . S
C514 H484 0.950 . S
C514 C513 1.524 1_455 S
C514 C515 1.415 . S
C515 H485 0.950 . S
C515 C510 1.363 . S
C515 C514 1.415 . S
H516 C513 0.999 . S
H517 C498 0.913 . S
H518 C536 0.951 . S
H519 C538 0.951 . S
H520 C540 0.950 . S
H521 C541 0.950 . S
H522 C543 0.950 . S
H523 C546 0.950 . S
H524 C547 0.950 . S
H525 C549 0.950 . S
H526 C550 0.950 . S
H527 C551 0.951 . S
H528 C553 0.951 . S
H529 C555 0.950 . S
H530 C556 0.950 . S
H531 C558 0.950 . S
H532 C561 0.950 . S
H533 C562 0.950 . S
H534 C564 0.950 . S
H535 C565 0.950 . S
C536 H518 0.951 . S
C536 C537 1.366 . S
C536 C538 1.388 . S
C537 C536 1.366 . S
C537 C541 1.385 . S
C538 H519 0.951 . S
C538 C536 1.388 . S
C538 C539 1.366 . S
C539 C538 1.366 . S
C539 C540 1.414 . S
C539 C542 1.499 . S
C540 H520 0.950 . S
C540 C539 1.414 . S
C540 C541 1.374 . S
C541 H521 0.950 . S
C541 C537 1.385 . S
C541 C540 1.374 . S
C542 C539 1.499 . S
C542 C543 1.373 . S
C542 C544 1.389 . S
C543 H522 0.950 . S
C543 C542 1.373 . S
C543 C559 1.377 . S
C544 C542 1.389 . S
C544 C545 1.524 . S
C544 C558 1.377 . S
C545 C544 1.524 . S
C545 C546 1.397 . S
C545 C550 1.363 . S
C546 H523 0.950 . S
C546 C545 1.397 . S
C546 C547 1.334 . S
C547 H524 0.950 . S
C547 C546 1.334 . S
C547 C548 1.287 . S
C548 C547 1.287 . S
C548 C549 1.524 . S
C548 H567 0.913 . S
C549 H525 0.950 . S
C549 C548 1.524 . S
C549 C550 1.415 . S
C550 H526 0.950 . S
C550 C545 1.363 . S
C550 C549 1.415 . S
C551 H527 0.951 . S
C551 C552 1.366 . S
C551 C553 1.388 . S
C552 C551 1.366 . S
C552 C556 1.385 . S
C553 H528 0.951 . S
C553 C551 1.388 . S
C553 C554 1.366 . S
C554 C553 1.366 . S
C554 C555 1.414 . S
C554 C557 1.499 1_455 S
C555 H529 0.950 . S
C555 C554 1.414 . S
C555 C556 1.374 . S
C556 H530 0.950 . S
C556 C552 1.385 . S
C556 C555 1.374 . S
C557 C554 1.499 1_655 S
C557 C558 1.373 . S
C557 C559 1.389 . S
C558 H531 0.950 . S
C558 C544 1.377 . S
C558 C557 1.373 . S
C559 C543 1.377 . S
C559 C557 1.389 . S
C559 C560 1.524 . S
C560 C559 1.524 . S
C560 C561 1.397 1_655 S
C560 C565 1.363 . S
C561 H532 0.950 . S
C561 C560 1.397 1_455 S
C561 C562 1.334 . S
C562 H533 0.950 . S
C562 C561 1.334 . S
C562 C563 1.287 . S
C563 C562 1.287 . S
C563 C564 1.524 . S
C563 H566 0.999 . S
C564 H534 0.950 . S
C564 C563 1.524 . S
C564 C565 1.415 1_455 S
C565 H535 0.950 . S
C565 C560 1.363 . S
C565 C564 1.415 1_655 S
H566 C563 0.999 . S
H567 C548 0.913 . S
H568 C586 0.963 . S
H569 C588 0.951 . S
H570 C590 0.950 1_556 S
H571 C591 0.950 1_556 S
H572 C593 0.950 . S
H573 C596 0.950 . S
H574 C597 0.950 . S
H575 C599 0.950 . S
H576 C600 0.950 . S
H577 C601 0.963 1_556 S
H578 C603 0.949 1_556 S
H579 C605 0.950 . S
H580 C606 0.950 . S
H581 C608 0.950 . S
H582 C611 0.950 . S
H583 C612 0.950 . S
H584 C614 0.950 . S
H585 C615 0.950 . S
C586 H568 0.963 . S
C586 C587 1.351 1_455 S
C586 C588 1.392 . S
C587 C586 1.351 1_655 S
C587 C591 1.385 . S
C588 H569 0.951 . S
C588 C586 1.392 . S
C588 C589 1.366 1_455 S
C589 C588 1.366 1_655 S
C589 C590 1.414 . S
C589 C592 1.499 . S
C590 H570 0.950 1_554 S
C590 C589 1.414 . S
C590 C591 1.374 . S
C591 H571 0.950 1_554 S
C591 C587 1.385 . S
C591 C590 1.374 . S
C592 C589 1.499 . S
C592 C593 1.373 . S
C592 C594 1.389 1_654 S
C593 H572 0.950 . S
C593 C592 1.373 . S
C593 C609 1.377 . S
C594 C592 1.389 1_456 S
C594 C595 1.524 . S
C594 C608 1.377 . S
C595 C594 1.524 . S
C595 C596 1.397 . S
C595 C600 1.363 . S
C596 H573 0.950 . S
C596 C595 1.397 . S
C596 C597 1.334 . S
C597 H574 0.950 . S
C597 C596 1.334 . S
C597 C598 1.287 . S
C598 C597 1.287 . S
C598 C599 1.524 . S
C598 H617 0.913 . S
C599 H575 0.950 . S
C599 C598 1.524 . S
C599 C600 1.415 . S
C600 H576 0.950 . S
C600 C595 1.363 . S
C600 C599 1.415 . S
C601 H577 0.963 1_554 S
C601 C602 1.351 1_655 S
C601 C603 1.392 . S
C602 C601 1.351 1_455 S
C602 C606 1.385 . S
C603 H578 0.949 1_554 S
C603 C601 1.392 . S
C603 C604 1.366 1_655 S
C604 C603 1.366 1_455 S
C604 C605 1.414 . S
C604 C607 1.499 . S
C605 H579 0.950 . S
C605 C604 1.414 . S
C605 C606 1.374 . S
C606 H580 0.950 . S
C606 C602 1.385 . S
C606 C605 1.374 . S
C607 C604 1.499 . S
C607 C608 1.373 1_554 S
C607 C609 1.389 1_455 S
C608 H581 0.950 . S
C608 C594 1.377 . S
C608 C607 1.373 1_556 S
C609 C593 1.377 . S
C609 C607 1.389 1_655 S
C609 C610 1.524 . S
C610 C609 1.524 . S
C610 C611 1.397 . S
C610 C615 1.363 . S
C611 H582 0.950 . S
C611 C610 1.397 . S
C611 C612 1.334 . S
C612 H583 0.950 . S
C612 C611 1.334 . S
C612 C613 1.287 . S
C613 C612 1.287 . S
C613 C614 1.524 . S
C613 H616 0.999 . S
C614 H584 0.950 . S
C614 C613 1.524 . S
C614 C615 1.415 . S
C615 H585 0.950 . S
C615 C610 1.363 . S
C615 C614 1.415 . S
H616 C613 0.999 . S
H617 C598 0.913 . S
H618 C636 0.951 1_455 S
H619 C638 0.951 . S
H620 C640 0.950 . S
H621 C641 0.950 . S
H622 C643 0.950 . S
H623 C646 0.950 . S
H624 C647 0.950 . S
H625 C649 0.950 . S
H626 C650 0.950 . S
H627 C651 0.951 1_655 S
H628 C653 0.951 . S
H629 C655 0.950 . S
H630 C656 0.950 . S
H631 C658 0.950 . S
H632 C661 0.950 . S
H633 C662 0.950 . S
H634 C664 0.950 . S
H635 C665 0.950 . S
C636 H618 0.951 1_655 S
C636 C637 1.366 . S
C636 C638 1.388 1_655 S
C637 C636 1.366 . S
C637 C641 1.385 . S
C638 H619 0.951 . S
C638 C636 1.388 1_455 S
C638 C639 1.366 1_455 S
C639 C638 1.366 1_655 S
C639 C640 1.414 . S
C639 C642 1.499 . S
C640 H620 0.950 . S
C640 C639 1.414 . S
C640 C641 1.374 . S
C641 H621 0.950 . S
C641 C637 1.385 . S
C641 C640 1.374 . S
C642 C639 1.499 . S
C642 C643 1.373 . S
C642 C644 1.389 . S
C643 H622 0.950 . S
C643 C642 1.373 . S
C643 C659 1.377 1_655 S
C644 C642 1.389 . S
C644 C645 1.524 . S
C644 C658 1.377 1_655 S
C645 C644 1.524 . S
C645 C646 1.397 . S
C645 C650 1.363 1_655 S
C646 H623 0.950 . S
C646 C645 1.397 . S
C646 C647 1.334 . S
C647 H624 0.950 . S
C647 C646 1.334 . S
C647 C648 1.287 . S
C648 C647 1.287 . S
C648 C649 1.524 1_655 S
C648 H667 0.913 . S
C649 H625 0.950 . S
C649 C648 1.524 1_455 S
C649 C650 1.415 . S
C650 H626 0.950 . S
C650 C645 1.363 1_455 S
C650 C649 1.415 . S
C651 H627 0.951 1_455 S
C651 C652 1.366 . S
C651 C653 1.388 1_455 S
C652 C651 1.366 . S
C652 C656 1.385 . S
C653 H628 0.951 . S
C653 C651 1.388 1_655 S
C653 C654 1.366 1_655 S
C654 C653 1.366 1_455 S
C654 C655 1.414 . S
C654 C657 1.499 . S
C655 H629 0.950 . S
C655 C654 1.414 . S
C655 C656 1.374 . S
C656 H630 0.950 . S
C656 C652 1.385 . S
C656 C655 1.374 . S
C657 C654 1.499 . S
C657 C658 1.373 . S
C657 C659 1.389 . S
C658 H631 0.950 . S
C658 C644 1.377 1_455 S
C658 C657 1.373 . S
C659 C643 1.377 1_455 S
C659 C657 1.389 . S
C659 C660 1.524 . S
C660 C659 1.524 . S
C660 C661 1.397 . S
C660 C665 1.363 1_455 S
C661 H632 0.950 . S
C661 C660 1.397 . S
C661 C662 1.334 . S
C662 H633 0.950 . S
C662 C661 1.334 . S
C662 C663 1.287 . S
C663 C662 1.287 . S
C663 C664 1.524 1_455 S
C663 H666 0.999 . S
C664 H634 0.950 . S
C664 C663 1.524 1_655 S
C664 C665 1.415 . S
C665 H635 0.950 . S
C665 C660 1.363 1_655 S
C665 C664 1.415 . S
H666 C663 0.999 . S
H667 C648 0.913 . S
H668 C686 0.951 . S
H669 C688 0.951 . S
H670 C690 0.950 . S
H671 C691 0.950 . S
H672 C693 0.950 . S
H673 C696 0.950 . S
H674 C697 0.950 . S
H675 C699 0.950 . S
H676 C700 0.950 . S
H677 C701 0.951 . S
H678 C703 0.951 . S
H679 C705 0.950 . S
H680 C706 0.950 . S
H681 C708 0.950 . S
H682 C711 0.950 . S
H683 C712 0.950 . S
H684 C714 0.950 . S
H685 C715 0.950 . S
C686 H668 0.951 . S
C686 C687 1.366 1_556 S
C686 C688 1.388 . S
C687 C686 1.366 1_554 S
C687 C691 1.385 . S
C688 H669 0.951 . S
C688 C686 1.388 . S
C688 C689 1.366 1_556 S
C689 C688 1.366 1_554 S
C689 C690 1.414 . S
C689 C692 1.499 . S
C690 H670 0.950 . S
C690 C689 1.414 . S
C690 C691 1.374 . S
C691 H671 0.950 . S
C691 C687 1.385 . S
C691 C690 1.374 . S
C692 C689 1.499 . S
C692 C693 1.373 . S
C692 C694 1.389 1_554 S
C693 H672 0.950 . S
C693 C692 1.373 . S
C693 C709 1.377 1_565 S
C694 C692 1.389 1_556 S
C694 C695 1.524 . S
C694 C708 1.377 1_565 S
C695 C694 1.524 . S
C695 C696 1.397 . S
C695 C700 1.363 . S
C696 H673 0.950 . S
C696 C695 1.397 . S
C696 C697 1.334 . S
C697 H674 0.950 . S
C697 C696 1.334 . S
C697 C698 1.287 . S
C698 C697 1.287 . S
C698 C699 1.524 . S
C698 H717 0.913 . S
C699 H675 0.950 . S
C699 C698 1.524 . S
C699 C700 1.415 . S
C700 H676 0.950 . S
C700 C695 1.363 . S
C700 C699 1.415 . S
C701 H677 0.951 . S
C701 C702 1.366 . S
C701 C703 1.388 . S
C702 C701 1.366 . S
C702 C706 1.385 1_554 S
C703 H678 0.951 . S
C703 C701 1.388 . S
C703 C704 1.366 . S
C704 C703 1.366 . S
C704 C705 1.414 1_554 S
C704 C707 1.499 . S
C705 H679 0.950 . S
C705 C704 1.414 1_556 S
C705 C706 1.374 . S
C706 H680 0.950 . S
C706 C702 1.385 1_556 S
C706 C705 1.374 . S
C707 C704 1.499 . S
C707 C708 1.373 1_554 S
C707 C709 1.389 . S
C708 H681 0.950 . S
C708 C694 1.377 1_545 S
C708 C707 1.373 1_556 S
C709 C693 1.377 1_545 S
C709 C707 1.389 . S
C709 C710 1.524 . S
C710 C709 1.524 . S
C710 C711 1.397 . S
C710 C715 1.363 . S
C711 H682 0.950 . S
C711 C710 1.397 . S
C711 C712 1.334 . S
C712 H683 0.950 . S
C712 C711 1.334 . S
C712 C713 1.287 . S
C713 C712 1.287 . S
C713 C714 1.524 . S
C713 H716 0.999 . S
C714 H684 0.950 . S
C714 C713 1.524 . S
C714 C715 1.415 . S
C715 H685 0.950 . S
C715 C710 1.363 . S
C715 C714 1.415 . S
H716 C713 0.999 . S
H717 C698 0.913 . S
H718 C736 0.951 . S
H719 C738 0.951 . S
H720 C740 0.950 . S
H721 C741 0.950 . S
H722 C743 0.950 . S
H723 C746 0.950 . S
H724 C747 0.950 . S
H725 C749 0.950 . S
H726 C750 0.950 . S
H727 C751 0.951 . S
H728 C753 0.951 . S
H729 C755 0.950 . S
H730 C756 0.950 . S
H731 C758 0.950 . S
H732 C761 0.950 . S
H733 C762 0.950 . S
H734 C764 0.950 . S
H735 C765 0.950 . S
C736 H718 0.951 . S
C736 C737 1.366 . S
C736 C738 1.388 . S
C737 C736 1.366 . S
C737 C741 1.385 . S
C738 H719 0.951 . S
C738 C736 1.388 . S
C738 C739 1.366 . S
C739 C738 1.366 . S
C739 C740 1.414 . S
C739 C742 1.499 . S
C740 H720 0.950 . S
C740 C739 1.414 . S
C740 C741 1.374 . S
C741 H721 0.950 . S
C741 C737 1.385 . S
C741 C740 1.374 . S
C742 C739 1.499 . S
C742 C743 1.373 . S
C742 C744 1.389 . S
C743 H722 0.950 . S
C743 C742 1.373 . S
C743 C759 1.377 1_545 S
C744 C742 1.389 . S
C744 C745 1.524 . S
C744 C758 1.377 1_545 S
C745 C744 1.524 . S
C745 C746 1.397 . S
C745 C750 1.363 . S
C746 H723 0.950 . S
C746 C745 1.397 . S
C746 C747 1.334 . S
C747 H724 0.950 . S
C747 C746 1.334 . S
C747 C748 1.287 . S
C748 C747 1.287 . S
C748 C749 1.524 . S
C748 H767 0.913 . S
C749 H725 0.950 . S
C749 C748 1.524 . S
C749 C750 1.415 . S
C750 H726 0.950 . S
C750 C745 1.363 . S
C750 C749 1.415 . S
C751 H727 0.951 . S
C751 C752 1.366 . S
C751 C753 1.388 . S
C752 C751 1.366 . S
C752 C756 1.385 . S
C753 H728 0.951 . S
C753 C751 1.388 . S
C753 C754 1.366 . S
C754 C753 1.366 . S
C754 C755 1.414 . S
C754 C757 1.499 . S
C755 H729 0.950 . S
C755 C754 1.414 . S
C755 C756 1.374 . S
C756 H730 0.950 . S
C756 C752 1.385 . S
C756 C755 1.374 . S
C757 C754 1.499 . S
C757 C758 1.373 . S
C757 C759 1.389 . S
C758 H731 0.950 . S
C758 C744 1.377 1_565 S
C758 C757 1.373 . S
C759 C743 1.377 1_565 S
C759 C757 1.389 . S
C759 C760 1.524 . S
C760 C759 1.524 . S
C760 C761 1.397 . S
C760 C765 1.363 . S
C761 H732 0.950 . S
C761 C760 1.397 . S
C761 C762 1.334 . S
C762 H733 0.950 . S
C762 C761 1.334 . S
C762 C763 1.287 . S
C763 C762 1.287 . S
C763 C764 1.524 . S
C763 H766 0.999 . S
C764 H734 0.950 . S
C764 C763 1.524 . S
C764 C765 1.415 . S
C765 H735 0.950 . S
C765 C760 1.363 . S
C765 C764 1.415 . S
H766 C763 0.999 . S
H767 C748 0.913 . S
H768 C786 0.951 . S
H769 C788 0.951 . S
H770 C790 0.950 . S
H771 C791 0.950 . S
H772 C793 0.950 . S
H773 C796 0.950 . S
H774 C797 0.950 . S
H775 C799 0.950 . S
H776 C800 0.950 . S
H777 C801 0.951 . S
H778 C803 0.951 . S
H779 C805 0.950 . S
H780 C806 0.950 . S
H781 C808 0.950 . S
H782 C811 0.950 . S
H783 C812 0.950 . S
H784 C814 0.950 . S
H785 C815 0.950 . S
C786 H768 0.951 . S
C786 C787 1.366 1_556 S
C786 C788 1.388 . S
C787 C786 1.366 1_554 S
C787 C791 1.385 . S
C788 H769 0.951 . S
C788 C786 1.388 . S
C788 C789 1.366 1_556 S
C789 C788 1.366 1_554 S
C789 C790 1.414 . S
C789 C792 1.499 . S
C790 H770 0.950 . S
C790 C789 1.414 . S
C790 C791 1.374 . S
C791 H771 0.950 . S
C791 C787 1.385 . S
C791 C790 1.374 . S
C792 C789 1.499 . S
C792 C793 1.373 . S
C792 C794 1.389 1_554 S
C793 H772 0.950 . S
C793 C792 1.373 . S
C793 C809 1.377 . S
C794 C792 1.389 1_556 S
C794 C795 1.524 . S
C794 C808 1.377 . S
C795 C794 1.524 . S
C795 C796 1.397 . S
C795 C800 1.363 . S
C796 H773 0.950 . S
C796 C795 1.397 . S
C796 C797 1.334 . S
C797 H774 0.950 . S
C797 C796 1.334 . S
C797 C798 1.287 . S
C798 C797 1.287 . S
C798 C799 1.524 . S
C798 H817 0.913 . S
C799 H775 0.950 . S
C799 C798 1.524 . S
C799 C800 1.415 . S
C800 H776 0.950 . S
C800 C795 1.363 . S
C800 C799 1.415 . S
C801 H777 0.951 . S
C801 C802 1.366 . S
C801 C803 1.388 . S
C802 C801 1.366 . S
C802 C806 1.385 1_554 S
C803 H778 0.951 . S
C803 C801 1.388 . S
C803 C804 1.366 . S
C804 C803 1.366 . S
C804 C805 1.414 1_554 S
C804 C807 1.499 . S
C805 H779 0.950 . S
C805 C804 1.414 1_556 S
C805 C806 1.374 . S
C806 H780 0.950 . S
C806 C802 1.385 1_556 S
C806 C805 1.374 . S
C807 C804 1.499 . S
C807 C808 1.373 1_554 S
C807 C809 1.389 . S
C808 H781 0.950 . S
C808 C794 1.377 . S
C808 C807 1.373 1_556 S
C809 C793 1.377 . S
C809 C807 1.389 . S
C809 C810 1.524 . S
C810 C809 1.524 . S
C810 C811 1.397 . S
C810 C815 1.363 . S
C811 H782 0.950 . S
C811 C810 1.397 . S
C811 C812 1.334 . S
C812 H783 0.950 . S
C812 C811 1.334 . S
C812 C813 1.287 . S
C813 C812 1.287 . S
C813 C814 1.524 . S
C813 H816 0.999 . S
C814 H784 0.950 . S
C814 C813 1.524 . S
C814 C815 1.415 . S
C815 H785 0.950 . S
C815 C810 1.363 . S
C815 C814 1.415 . S
H816 C813 0.999 . S
H817 C798 0.913 . S
H818 C836 0.951 1_556 S
H819 C838 0.951 1_556 S
H820 C840 0.950 . S
H821 C841 0.950 . S
H822 C843 0.950 . S
H823 C846 0.950 . S
H824 C847 0.950 . S
H825 C849 0.950 . S
H826 C850 0.950 . S
H827 C851 0.951 . S
H828 C853 0.951 . S
H829 C855 0.950 1_556 S
H830 C856 0.950 1_556 S
H831 C858 0.950 . S
H832 C861 0.950 . S
H833 C862 0.950 . S
H834 C864 0.950 . S
H835 C865 0.950 . S
C836 H818 0.951 1_554 S
C836 C837 1.366 . S
C836 C838 1.388 . S
C837 C836 1.366 . S
C837 C841 1.385 . S
C838 H819 0.951 1_554 S
C838 C836 1.388 . S
C838 C839 1.366 . S
C839 C838 1.366 . S
C839 C840 1.414 . S
C839 C842 1.499 . S
C840 H820 0.950 . S
C840 C839 1.414 . S
C840 C841 1.374 . S
C841 H821 0.950 . S
C841 C837 1.385 . S
C841 C840 1.374 . S
C842 C839 1.499 . S
C842 C843 1.373 . S
C842 C844 1.389 1_554 S
C843 H822 0.950 . S
C843 C842 1.373 . S
C843 C859 1.377 . S
C844 C842 1.389 1_556 S
C844 C845 1.524 . S
C844 C858 1.377 . S
C845 C844 1.524 . S
C845 C846 1.397 . S
C845 C850 1.363 . S
C846 H823 0.950 . S
C846 C845 1.397 . S
C846 C847 1.334 . S
C847 H824 0.950 . S
C847 C846 1.334 . S
C847 C848 1.287 . S
C848 C847 1.287 . S
C848 C849 1.524 . S
C848 H867 0.913 . S
C849 H825 0.950 . S
C849 C848 1.524 . S
C849 C850 1.415 . S
C850 H826 0.950 . S
C850 C845 1.363 . S
C850 C849 1.415 . S
C851 H827 0.951 . S
C851 C852 1.366 . S
C851 C853 1.388 . S
C852 C851 1.366 . S
C852 C856 1.385 . S
C853 H828 0.951 . S
C853 C851 1.388 . S
C853 C854 1.366 . S
C854 C853 1.366 . S
C854 C855 1.414 . S
C854 C857 1.499 . S
C855 H829 0.950 1_554 S
C855 C854 1.414 . S
C855 C856 1.374 . S
C856 H830 0.950 1_554 S
C856 C852 1.385 . S
C856 C855 1.374 . S
C857 C854 1.499 . S
C857 C858 1.373 1_554 S
C857 C859 1.389 . S
C858 H831 0.950 . S
C858 C844 1.377 . S
C858 C857 1.373 1_556 S
C859 C843 1.377 . S
C859 C857 1.389 . S
C859 C860 1.524 . S
C860 C859 1.524 . S
C860 C861 1.397 . S
C860 C865 1.363 . S
C861 H832 0.950 . S
C861 C860 1.397 . S
C861 C862 1.334 . S
C862 H833 0.950 . S
C862 C861 1.334 . S
C862 C863 1.287 . S
C863 C862 1.287 . S
C863 C864 1.524 . S
C863 H866 0.999 . S
C864 H834 0.950 . S
C864 C863 1.524 . S
C864 C865 1.415 . S
C865 H835 0.950 . S
C865 C860 1.363 . S
C865 C864 1.415 . S
H866 C863 0.999 . S
H867 C848 0.913 . S
H868 C886 0.951 . S
H869 C888 0.951 . S
H870 C890 0.950 . S
H871 C891 0.950 . S
H872 C893 0.950 . S
H873 C896 0.950 . S
H874 C897 0.950 1_655 S
H875 C899 0.950 . S
H876 C900 0.950 . S
H877 C901 0.951 . S
H878 C903 0.951 . S
H879 C905 0.950 . S
H880 C906 0.950 . S
H881 C908 0.950 . S
H882 C911 0.950 . S
H883 C912 0.950 . S
H884 C914 0.950 . S
H885 C915 0.950 . S
C886 H868 0.951 . S
C886 C887 1.366 . S
C886 C888 1.388 . S
C887 C886 1.366 . S
C887 C891 1.385 . S
C888 H869 0.951 . S
C888 C886 1.388 . S
C888 C889 1.366 . S
C889 C888 1.366 . S
C889 C890 1.414 . S
C889 C892 1.499 . S
C890 H870 0.950 . S
C890 C889 1.414 . S
C890 C891 1.374 . S
C891 H871 0.950 . S
C891 C887 1.385 . S
C891 C890 1.374 . S
C892 C889 1.499 . S
C892 C893 1.373 . S
C892 C894 1.389 . S
C893 H872 0.950 . S
C893 C892 1.373 . S
C893 C909 1.377 . S
C894 C892 1.389 . S
C894 C895 1.524 . S
C894 C908 1.377 . S
C895 C894 1.524 . S
C895 C896 1.397 . S
C895 C900 1.363 . S
C896 H873 0.950 . S
C896 C895 1.397 . S
C896 C897 1.334 . S
C897 H874 0.950 1_455 S
C897 C896 1.334 . S
C897 C898 1.287 1_455 S
C898 C897 1.287 1_655 S
C898 C899 1.524 . S
C898 H917 0.913 . S
C899 H875 0.950 . S
C899 C898 1.524 . S
C899 C900 1.415 1_655 S
C900 H876 0.950 . S
C900 C895 1.363 . S
C900 C899 1.415 1_455 S
C901 H877 0.951 . S
C901 C902 1.366 . S
C901 C903 1.388 . S
C902 C901 1.366 . S
C902 C906 1.385 . S
C903 H878 0.951 . S
C903 C901 1.388 . S
C903 C904 1.366 . S
C904 C903 1.366 . S
C904 C905 1.414 . S
C904 C907 1.499 . S
C905 H879 0.950 . S
C905 C904 1.414 . S
C905 C906 1.374 . S
C906 H880 0.950 . S
C906 C902 1.385 . S
C906 C905 1.374 . S
C907 C904 1.499 . S
C907 C908 1.373 . S
C907 C909 1.389 . S
C908 H881 0.950 . S
C908 C894 1.377 . S
C908 C907 1.373 . S
C909 C893 1.377 . S
C909 C907 1.389 . S
C909 C910 1.524 . S
C910 C909 1.524 . S
C910 C911 1.397 . S
C910 C915 1.363 . S
C911 H882 0.950 . S
C911 C910 1.397 . S
C911 C912 1.334 . S
C912 H883 0.950 . S
C912 C911 1.334 . S
C912 C913 1.287 . S
C913 C912 1.287 . S
C913 C914 1.524 . S
C913 H916 0.999 . S
C914 H884 0.950 . S
C914 C913 1.524 . S
C914 C915 1.415 . S
C915 H885 0.950 . S
C915 C910 1.363 . S
C915 C914 1.415 . S
H916 C913 0.999 . S
H917 C898 0.913 . S
H918 C936 0.951 . S
H919 C938 0.951 . S
H920 C940 0.950 . S
H921 C941 0.950 . S
H922 C943 0.950 . S
H923 C946 0.950 . S
H924 C947 0.950 . S
H925 C949 0.950 . S
H926 C950 0.950 . S
H927 C951 0.951 . S
H928 C953 0.951 . S
H929 C955 0.950 . S
H930 C956 0.950 . S
H931 C958 0.950 . S
H932 C961 0.950 . S
H933 C962 0.950 . S
H934 C964 0.950 . S
H935 C965 0.950 . S
C936 H918 0.951 . S
C936 C937 1.366 . S
C936 C938 1.388 . S
C937 C936 1.366 . S
C937 C941 1.385 . S
C938 H919 0.951 . S
C938 C936 1.388 . S
C938 C939 1.366 . S
C939 C938 1.366 . S
C939 C940 1.414 . S
C939 C942 1.499 . S
C940 H920 0.950 . S
C940 C939 1.414 . S
C940 C941 1.374 . S
C941 H921 0.950 . S
C941 C937 1.385 . S
C941 C940 1.374 . S
C942 C939 1.499 . S
C942 C943 1.373 . S
C942 C944 1.389 . S
C943 H922 0.950 . S
C943 C942 1.373 . S
C943 C959 1.377 . S
C944 C942 1.389 . S
C944 C945 1.524 . S
C944 C958 1.377 . S
C945 C944 1.524 . S
C945 C946 1.397 . S
C945 C950 1.363 . S
C946 H923 0.950 . S
C946 C945 1.397 . S
C946 C947 1.334 . S
C947 H924 0.950 . S
C947 C946 1.334 . S
C947 C948 1.287 . S
C948 C947 1.287 . S
C948 C949 1.524 . S
C948 H967 0.913 . S
C949 H925 0.950 . S
C949 C948 1.524 . S
C949 C950 1.415 . S
C950 H926 0.950 . S
C950 C945 1.363 . S
C950 C949 1.415 . S
C951 H927 0.951 . S
C951 C952 1.366 . S
C951 C953 1.388 . S
C952 C951 1.366 . S
C952 C956 1.385 . S
C953 H928 0.951 . S
C953 C951 1.388 . S
C953 C954 1.366 . S
C954 C953 1.366 . S
C954 C955 1.414 . S
C954 C957 1.499 . S
C955 H929 0.950 . S
C955 C954 1.414 . S
C955 C956 1.374 . S
C956 H930 0.950 . S
C956 C952 1.385 . S
C956 C955 1.374 . S
C957 C954 1.499 . S
C957 C958 1.373 . S
C957 C959 1.389 . S
C958 H931 0.950 . S
C958 C944 1.377 . S
C958 C957 1.373 . S
C959 C943 1.377 . S
C959 C957 1.389 . S
C959 C960 1.524 . S
C960 C959 1.524 . S
C960 C961 1.397 . S
C960 C965 1.363 . S
C961 H932 0.950 . S
C961 C960 1.397 . S
C961 C962 1.334 . S
C962 H933 0.950 . S
C962 C961 1.334 . S
C962 C963 1.287 . S
C963 C962 1.287 . S
C963 C964 1.524 . S
C963 H966 0.999 . S
C964 H934 0.950 . S
C964 C963 1.524 . S
C964 C965 1.415 . S
C965 H935 0.950 . S
C965 C960 1.363 . S
C965 C964 1.415 . S
H966 C963 0.999 . S
H967 C948 0.913 . S
H968 C986 0.951 . S
H969 C988 0.951 . S
H970 C990 0.950 1_655 S
H971 C991 0.950 1_655 S
H972 C993 0.950 . S
H973 C996 0.950 . S
H974 C997 0.950 . S
H975 C999 0.950 . S
H976 C1000 0.950 . S
H977 C1001 0.951 . S
H978 C1003 0.951 . S
H979 C1005 0.950 1_455 S
H980 C1006 0.950 1_455 S
H981 C1008 0.950 . S
H982 C1011 0.950 . S
H983 C1012 0.950 . S
H984 C1014 0.950 . S
H985 C1015 0.950 . S
C986 H968 0.951 . S
C986 C987 1.366 . S
C986 C988 1.388 . S
C987 C986 1.366 . S
C987 C991 1.385 . S
C988 H969 0.951 . S
C988 C986 1.388 . S
C988 C989 1.366 . S
C989 C988 1.366 . S
C989 C990 1.414 . S
C989 C992 1.499 . S
C990 H970 0.950 1_455 S
C990 C989 1.414 . S
C990 C991 1.374 . S
C991 H971 0.950 1_455 S
C991 C987 1.385 . S
C991 C990 1.374 . S
C992 C989 1.499 . S
C992 C993 1.373 1_455 S
C992 C994 1.389 . S
C993 H972 0.950 . S
C993 C992 1.373 1_655 S
C993 C1009 1.377 . S
C994 C992 1.389 . S
C994 C995 1.524 . S
C994 C1008 1.377 . S
C995 C994 1.524 . S
C995 C996 1.397 . S
C995 C1000 1.363 . S
C996 H973 0.950 . S
C996 C995 1.397 . S
C996 C997 1.334 . S
C997 H974 0.950 . S
C997 C996 1.334 . S
C997 C998 1.287 . S
C998 C997 1.287 . S
C998 C999 1.524 . S
C998 H1017 0.913 . S
C999 H975 0.950 . S
C999 C998 1.524 . S
C999 C1000 1.415 . S
C1000 H976 0.950 . S
C1000 C995 1.363 . S
C1000 C999 1.415 . S
C1001 H977 0.951 . S
C1001 C1002 1.366 . S
C1001 C1003 1.388 . S
C1002 C1001 1.366 . S
C1002 C1006 1.385 . S
C1003 H978 0.951 . S
C1003 C1001 1.388 . S
C1003 C1004 1.366 . S
C1004 C1003 1.366 . S
C1004 C1005 1.414 . S
C1004 C1007 1.499 . S
C1005 H979 0.950 1_655 S
C1005 C1004 1.414 . S
C1005 C1006 1.374 . S
C1006 H980 0.950 1_655 S
C1006 C1002 1.385 . S
C1006 C1005 1.374 . S
C1007 C1004 1.499 . S
C1007 C1008 1.373 1_655 S
C1007 C1009 1.389 . S
C1008 H981 0.950 . S
C1008 C994 1.377 . S
C1008 C1007 1.373 1_455 S
C1009 C993 1.377 . S
C1009 C1007 1.389 . S
C1009 C1010 1.524 . S
C1010 C1009 1.524 . S
C1010 C1011 1.397 . S
C1010 C1015 1.363 . S
C1011 H982 0.950 . S
C1011 C1010 1.397 . S
C1011 C1012 1.334 . S
C1012 H983 0.950 . S
C1012 C1011 1.334 . S
C1012 C1013 1.287 . S
C1013 C1012 1.287 . S
C1013 C1014 1.524 . S
C1013 H1016 0.999 . S
C1014 H984 0.950 . S
C1014 C1013 1.524 . S
C1014 C1015 1.415 . S
C1015 H985 0.950 . S
C1015 C1010 1.363 . S
C1015 C1014 1.415 . S
H1016 C1013 0.999 . S
H1017 C998 0.913 . S
H1018 C1036 0.951 . S
H1019 C1038 0.951 . S
H1020 C1040 0.950 . S
H1021 C1041 0.950 . S
H1022 C1043 0.950 . S
H1023 C1046 0.950 1_655 S
H1024 C1047 0.950 . S
H1025 C1049 0.950 . S
H1026 C1050 0.950 . S
H1027 C1051 0.951 . S
H1028 C1053 0.951 . S
H1029 C1055 0.950 . S
H1030 C1056 0.950 . S
H1031 C1058 0.950 . S
H1032 C1061 0.950 1_455 S
H1033 C1062 0.950 . S
H1034 C1064 0.950 . S
H1035 C1065 0.950 . S
C1036 H1018 0.951 . S
C1036 C1037 1.366 1_455 S
C1036 C1038 1.388 . S
C1037 C1036 1.366 1_655 S
C1037 C1041 1.385 . S
C1038 H1019 0.951 . S
C1038 C1036 1.388 . S
C1038 C1039 1.366 1_455 S
C1039 C1038 1.366 1_655 S
C1039 C1040 1.414 . S
C1039 C1042 1.499 . S
C1040 H1020 0.950 . S
C1040 C1039 1.414 . S
C1040 C1041 1.374 . S
C1041 H1021 0.950 . S
C1041 C1037 1.385 . S
C1041 C1040 1.374 . S
C1042 C1039 1.499 . S
C1042 C1043 1.373 . S
C1042 C1044 1.389 1_655 S
C1043 H1022 0.950 . S
C1043 C1042 1.373 . S
C1043 C1059 1.377 . S
C1044 C1042 1.389 1_455 S
C1044 C1045 1.524 . S
C1044 C1058 1.377 . S
C1045 C1044 1.524 . S
C1045 C1046 1.397 . S
C1045 C1050 1.363 . S
C1046 H1023 0.950 1_455 S
C1046 C1045 1.397 . S
C1046 C1047 1.334 . S
C1047 H1024 0.950 . S
C1047 C1046 1.334 . S
C1047 C1048 1.287 . S
C1048 C1047 1.287 . S
C1048 C1049 1.524 . S
C1048 H1067 0.913 . S
C1049 H1025 0.950 . S
C1049 C1048 1.524 . S
C1049 C1050 1.415 . S
C1050 H1026 0.950 . S
C1050 C1045 1.363 . S
C1050 C1049 1.415 . S
C1051 H1027 0.951 . S
C1051 C1052 1.366 1_655 S
C1051 C1053 1.388 . S
C1052 C1051 1.366 1_455 S
C1052 C1056 1.385 . S
C1053 H1028 0.951 . S
C1053 C1051 1.388 . S
C1053 C1054 1.366 1_655 S
C1054 C1053 1.366 1_455 S
C1054 C1055 1.414 . S
C1054 C1057 1.499 . S
C1055 H1029 0.950 . S
C1055 C1054 1.414 . S
C1055 C1056 1.374 . S
C1056 H1030 0.950 . S
C1056 C1052 1.385 . S
C1056 C1055 1.374 . S
C1057 C1054 1.499 . S
C1057 C1058 1.373 . S
C1057 C1059 1.389 1_455 S
C1058 H1031 0.950 . S
C1058 C1044 1.377 . S
C1058 C1057 1.373 . S
C1059 C1043 1.377 . S
C1059 C1057 1.389 1_655 S
C1059 C1060 1.524 . S
C1060 C1059 1.524 . S
C1060 C1061 1.397 . S
C1060 C1065 1.363 . S
C1061 H1032 0.950 1_655 S
C1061 C1060 1.397 . S
C1061 C1062 1.334 . S
C1062 H1033 0.950 . S
C1062 C1061 1.334 . S
C1062 C1063 1.287 . S
C1063 C1062 1.287 . S
C1063 C1064 1.524 . S
C1063 H1066 0.999 . S
C1064 H1034 0.950 . S
C1064 C1063 1.524 . S
C1064 C1065 1.415 . S
C1065 H1035 0.950 . S
C1065 C1060 1.363 . S
C1065 C1064 1.415 . S
H1066 C1063 0.999 . S
H1067 C1048 0.913 . S
H1068 C1086 0.951 . S
H1069 C1088 0.951 . S
H1070 C1090 0.950 . S
H1071 C1091 0.950 . S
H1072 C1093 0.950 . S
H1073 C1096 0.950 1_455 S
H1074 C1097 0.950 . S
H1075 C1099 0.950 . S
H1076 C1100 0.950 . S
H1077 C1101 0.951 . S
H1078 C1103 0.951 . S
H1079 C1105 0.950 . S
H1080 C1106 0.950 . S
H1081 C1108 0.950 . S
H1082 C1111 0.950 1_655 S
H1083 C1112 0.950 . S
H1084 C1114 0.950 . S
H1085 C1115 0.950 . S
C1086 H1068 0.951 . S
C1086 C1087 1.366 . S
C1086 C1088 1.388 . S
C1087 C1086 1.366 . S
C1087 C1091 1.385 1_655 S
C1088 H1069 0.951 . S
C1088 C1086 1.388 . S
C1088 C1089 1.366 . S
C1089 C1088 1.366 . S
C1089 C1090 1.414 1_655 S
C1089 C1092 1.499 . S
C1090 H1070 0.950 . S
C1090 C1089 1.414 1_455 S
C1090 C1091 1.374 . S
C1091 H1071 0.950 . S
C1091 C1087 1.385 1_455 S
C1091 C1090 1.374 . S
C1092 C1089 1.499 . S
C1092 C1093 1.373 1_655 S
C1092 C1094 1.389 . S
C1093 H1072 0.950 . S
C1093 C1092 1.373 1_455 S
C1093 C1109 1.377 . S
C1094 C1092 1.389 . S
C1094 C1095 1.524 . S
C1094 C1108 1.377 . S
C1095 C1094 1.524 . S
C1095 C1096 1.397 . S
C1095 C1100 1.363 . S
C1096 H1073 0.950 1_655 S
C1096 C1095 1.397 . S
C1096 C1097 1.334 . S
C1097 H1074 0.950 . S
C1097 C1096 1.334 . S
C1097 C1098 1.287 . S
C1098 C1097 1.287 . S
C1098 C1099 1.524 . S
C1098 H1117 0.913 . S
C1099 H1075 0.950 . S
C1099 C1098 1.524 . S
C1099 C1100 1.415 . S
C1100 H1076 0.950 . S
C1100 C1095 1.363 . S
C1100 C1099 1.415 . S
C1101 H1077 0.951 . S
C1101 C1102 1.366 . S
C1101 C1103 1.388 . S
C1102 C1101 1.366 . S
C1102 C1106 1.385 1_455 S
C1103 H1078 0.951 . S
C1103 C1101 1.388 . S
C1103 C1104 1.366 . S
C1104 C1103 1.366 . S
C1104 C1105 1.414 1_455 S
C1104 C1107 1.499 . S
C1105 H1079 0.950 . S
C1105 C1104 1.414 1_655 S
C1105 C1106 1.374 . S
C1106 H1080 0.950 . S
C1106 C1102 1.385 1_655 S
C1106 C1105 1.374 . S
C1107 C1104 1.499 . S
C1107 C1108 1.373 1_455 S
C1107 C1109 1.389 . S
C1108 H1081 0.950 . S
C1108 C1094 1.377 . S
C1108 C1107 1.373 1_655 S
C1109 C1093 1.377 . S
C1109 C1107 1.389 . S
C1109 C1110 1.524 . S
C1110 C1109 1.524 . S
C1110 C1111 1.397 . S
C1110 C1115 1.363 . S
C1111 H1082 0.950 1_455 S
C1111 C1110 1.397 . S
C1111 C1112 1.334 . S
C1112 H1083 0.950 . S
C1112 C1111 1.334 . S
C1112 C1113 1.287 . S
C1113 C1112 1.287 . S
C1113 C1114 1.524 . S
C1113 H1116 0.999 . S
C1114 H1084 0.950 . S
C1114 C1113 1.524 . S
C1114 C1115 1.415 . S
C1115 H1085 0.950 . S
C1115 C1110 1.363 . S
C1115 C1114 1.415 . S
H1116 C1113 0.999 . S
H1117 C1098 0.913 . S
H1118 C1136 0.951 1_455 S
H1119 C1138 0.951 . S
H1120 C1140 0.950 . S
H1121 C1141 0.950 . S
H1122 C1143 0.950 . S
H1123 C1146 0.950 . S
H1124 C1147 0.950 . S
H1125 C1149 0.950 . S
H1126 C1150 0.950 . S
H1127 C1151 0.951 1_655 S
H1128 C1153 0.951 . S
H1129 C1155 0.950 . S
H1130 C1156 0.950 . S
H1131 C1158 0.950 . S
H1132 C1161 0.950 . S
H1133 C1162 0.950 . S
H1134 C1164 0.950 . S
H1135 C1165 0.950 . S
C1136 H1118 0.951 1_655 S
C1136 C1137 1.366 . S
C1136 C1138 1.388 1_655 S
C1137 C1136 1.366 . S
C1137 C1141 1.385 . S
C1138 H1119 0.951 . S
C1138 C1136 1.388 1_455 S
C1138 C1139 1.366 1_455 S
C1139 C1138 1.366 1_655 S
C1139 C1140 1.414 . S
C1139 C1142 1.499 . S
C1140 H1120 0.950 . S
C1140 C1139 1.414 . S
C1140 C1141 1.374 . S
C1141 H1121 0.950 . S
C1141 C1137 1.385 . S
C1141 C1140 1.374 . S
C1142 C1139 1.499 . S
C1142 C1143 1.373 . S
C1142 C1144 1.389 1_655 S
C1143 H1122 0.950 . S
C1143 C1142 1.373 . S
C1143 C1159 1.377 . S
C1144 C1142 1.389 1_455 S
C1144 C1145 1.524 . S
C1144 C1158 1.377 . S
C1145 C1144 1.524 . S
C1145 C1146 1.397 . S
C1145 C1150 1.363 . S
C1146 H1123 0.950 . S
C1146 C1145 1.397 . S
C1146 C1147 1.334 . S
C1147 H1124 0.950 . S
C1147 C1146 1.334 . S
C1147 C1148 1.287 . S
C1148 C1147 1.287 . S
C1148 C1149 1.524 . S
C1148 H1167 0.913 . S
C1149 H1125 0.950 . S
C1149 C1148 1.524 . S
C1149 C1150 1.415 . S
C1150 H1126 0.950 . S
C1150 C1145 1.363 . S
C1150 C1149 1.415 . S
C1151 H1127 0.951 1_455 S
C1151 C1152 1.366 . S
C1151 C1153 1.388 1_455 S
C1152 C1151 1.366 . S
C1152 C1156 1.385 . S
C1153 H1128 0.951 . S
C1153 C1151 1.388 1_655 S
C1153 C1154 1.366 1_655 S
C1154 C1153 1.366 1_455 S
C1154 C1155 1.414 . S
C1154 C1157 1.499 . S
C1155 H1129 0.950 . S
C1155 C1154 1.414 . S
C1155 C1156 1.374 . S
C1156 H1130 0.950 . S
C1156 C1152 1.385 . S
C1156 C1155 1.374 . S
C1157 C1154 1.499 . S
C1157 C1158 1.373 . S
C1157 C1159 1.389 1_455 S
C1158 H1131 0.950 . S
C1158 C1144 1.377 . S
C1158 C1157 1.373 . S
C1159 C1143 1.377 . S
C1159 C1157 1.389 1_655 S
C1159 C1160 1.524 . S
C1160 C1159 1.524 . S
C1160 C1161 1.397 . S
C1160 C1165 1.363 . S
C1161 H1132 0.950 . S
C1161 C1160 1.397 . S
C1161 C1162 1.334 . S
C1162 H1133 0.950 . S
C1162 C1161 1.334 . S
C1162 C1163 1.287 . S
C1163 C1162 1.287 . S
C1163 C1164 1.524 . S
C1163 H1166 0.999 . S
C1164 H1134 0.950 . S
C1164 C1163 1.524 . S
C1164 C1165 1.415 . S
C1165 H1135 0.950 . S
C1165 C1160 1.363 . S
C1165 C1164 1.415 . S
H1166 C1163 0.999 . S
H1167 C1148 0.913 . S
H1168 C1186 0.951 . S
H1169 C1188 0.951 . S
H1170 C1190 0.950 . S
H1171 C1191 0.950 . S
H1172 C1193 0.950 . S
H1173 C1196 0.950 . S
H1174 C1197 0.950 . S
H1175 C1199 0.950 . S
H1176 C1200 0.950 . S
H1177 C1201 0.951 . S
H1178 C1203 0.951 . S
H1179 C1205 0.950 . S
H1180 C1206 0.950 . S
H1181 C1208 0.950 . S
H1182 C1211 0.950 . S
H1183 C1212 0.950 . S
H1184 C1214 0.950 . S
H1185 C1215 0.950 . S
C1186 H1168 0.951 . S
C1186 C1187 1.366 . S
C1186 C1188 1.388 . S
C1187 C1186 1.366 . S
C1187 C1191 1.385 . S
C1188 H1169 0.951 . S
C1188 C1186 1.388 . S
C1188 C1189 1.366 . S
C1189 C1188 1.366 . S
C1189 C1190 1.414 . S
C1189 C1192 1.499 . S
C1190 H1170 0.950 . S
C1190 C1189 1.414 . S
C1190 C1191 1.374 . S
C1191 H1171 0.950 . S
C1191 C1187 1.385 . S
C1191 C1190 1.374 . S
C1192 C1189 1.499 . S
C1192 C1193 1.373 . S
C1192 C1194 1.389 . S
C1193 H1172 0.950 . S
C1193 C1192 1.373 . S
C1193 C1209 1.377 . S
C1194 C1192 1.389 . S
C1194 C1195 1.524 . S
C1194 C1208 1.377 . S
C1195 C1194 1.524 . S
C1195 C1196 1.397 . S
C1195 C1200 1.363 . S
C1196 H1173 0.950 . S
C1196 C1195 1.397 . S
C1196 C1197 1.334 . S
C1197 H1174 0.950 . S
C1197 C1196 1.334 . S
C1197 C1198 1.287 . S
C1198 C1197 1.287 . S
C1198 C1199 1.524 . S
C1198 H1217 0.913 . S
C1199 H1175 0.950 . S
C1199 C1198 1.524 . S
C1199 C1200 1.415 . S
C1200 H1176 0.950 . S
C1200 C1195 1.363 . S
C1200 C1199 1.415 . S
C1201 H1177 0.951 . S
C1201 C1202 1.366 . S
C1201 C1203 1.388 . S
C1202 C1201 1.366 . S
C1202 C1206 1.385 . S
C1203 H1178 0.951 . S
C1203 C1201 1.388 . S
C1203 C1204 1.366 . S
C1204 C1203 1.366 . S
C1204 C1205 1.414 . S
C1204 C1207 1.499 . S
C1205 H1179 0.950 . S
C1205 C1204 1.414 . S
C1205 C1206 1.374 . S
C1206 H1180 0.950 . S
C1206 C1202 1.385 . S
C1206 C1205 1.374 . S
C1207 C1204 1.499 . S
C1207 C1208 1.373 . S
C1207 C1209 1.389 . S
C1208 H1181 0.950 . S
C1208 C1194 1.377 . S
C1208 C1207 1.373 . S
C1209 C1193 1.377 . S
C1209 C1207 1.389 . S
C1209 C1210 1.524 . S
C1210 C1209 1.524 . S
C1210 C1211 1.397 . S
C1210 C1215 1.363 . S
C1211 H1182 0.950 . S
C1211 C1210 1.397 . S
C1211 C1212 1.334 . S
C1212 H1183 0.950 . S
C1212 C1211 1.334 . S
C1212 C1213 1.287 . S
C1213 C1212 1.287 . S
C1213 C1214 1.524 . S
C1213 H1216 0.999 . S
C1214 H1184 0.950 . S
C1214 C1213 1.524 . S
C1214 C1215 1.415 . S
C1215 H1185 0.950 . S
C1215 C1210 1.363 . S
C1215 C1214 1.415 . S
H1216 C1213 0.999 . S
H1217 C1198 0.913 . S
H1218 C1236 0.951 . S
H1219 C1238 0.951 . S
H1220 C1240 0.950 . S
H1221 C1241 0.950 . S
H1222 C1243 0.950 . S
H1223 C1246 0.950 . S
H1224 C1247 0.950 . S
H1225 C1249 0.950 . S
H1226 C1250 0.950 . S
H1227 C1251 0.951 . S
H1228 C1253 0.951 . S
H1229 C1255 0.950 . S
H1230 C1256 0.950 . S
H1231 C1258 0.950 . S
H1232 C1261 0.950 . S
H1233 C1262 0.950 . S
H1234 C1264 0.950 . S
H1235 C1265 0.950 . S
C1236 H1218 0.951 . S
C1236 C1237 1.366 . S
C1236 C1238 1.388 . S
C1237 C1236 1.366 . S
C1237 C1241 1.385 . S
C1238 H1219 0.951 . S
C1238 C1236 1.388 . S
C1238 C1239 1.366 . S
C1239 C1238 1.366 . S
C1239 C1240 1.414 . S
C1239 C1242 1.499 . S
C1240 H1220 0.950 . S
C1240 C1239 1.414 . S
C1240 C1241 1.374 . S
C1241 H1221 0.950 . S
C1241 C1237 1.385 . S
C1241 C1240 1.374 . S
C1242 C1239 1.499 . S
C1242 C1243 1.373 . S
C1242 C1244 1.389 . S
C1243 H1222 0.950 . S
C1243 C1242 1.373 . S
C1243 C1259 1.377 . S
C1244 C1242 1.389 . S
C1244 C1245 1.524 . S
C1244 C1258 1.377 . S
C1245 C1244 1.524 . S
C1245 C1246 1.397 . S
C1245 C1250 1.363 . S
C1246 H1223 0.950 . S
C1246 C1245 1.397 . S
C1246 C1247 1.334 . S
C1247 H1224 0.950 . S
C1247 C1246 1.334 . S
C1247 C1248 1.287 . S
C1248 C1247 1.287 . S
C1248 C1249 1.524 . S
C1248 H1267 0.913 . S
C1249 H1225 0.950 . S
C1249 C1248 1.524 . S
C1249 C1250 1.415 . S
C1250 H1226 0.950 . S
C1250 C1245 1.363 . S
C1250 C1249 1.415 . S
C1251 H1227 0.951 . S
C1251 C1252 1.366 . S
C1251 C1253 1.388 . S
C1252 C1251 1.366 . S
C1252 C1256 1.385 . S
C1253 H1228 0.951 . S
C1253 C1251 1.388 . S
C1253 C1254 1.366 . S
C1254 C1253 1.366 . S
C1254 C1255 1.414 . S
C1254 C1257 1.499 . S
C1255 H1229 0.950 . S
C1255 C1254 1.414 . S
C1255 C1256 1.374 . S
C1256 H1230 0.950 . S
C1256 C1252 1.385 . S
C1256 C1255 1.374 . S
C1257 C1254 1.499 . S
C1257 C1258 1.373 . S
C1257 C1259 1.389 . S
C1258 H1231 0.950 . S
C1258 C1244 1.377 . S
C1258 C1257 1.373 . S
C1259 C1243 1.377 . S
C1259 C1257 1.389 . S
C1259 C1260 1.524 . S
C1260 C1259 1.524 . S
C1260 C1261 1.397 . S
C1260 C1265 1.363 . S
C1261 H1232 0.950 . S
C1261 C1260 1.397 . S
C1261 C1262 1.334 . S
C1262 H1233 0.950 . S
C1262 C1261 1.334 . S
C1262 C1263 1.287 . S
C1263 C1262 1.287 . S
C1263 C1264 1.524 . S
C1263 H1266 0.999 . S
C1264 H1234 0.950 . S
C1264 C1263 1.524 . S
C1264 C1265 1.415 . S
C1265 H1235 0.950 . S
C1265 C1260 1.363 . S
C1265 C1264 1.415 . S
H1266 C1263 0.999 . S
H1267 C1248 0.913 . S
H1268 C1286 0.951 . S
H1269 C1288 0.951 . S
H1270 C1290 0.950 . S
H1271 C1291 0.950 . S
H1272 C1293 0.950 . S
H1273 C1296 0.950 . S
H1274 C1297 0.950 . S
H1275 C1299 0.950 . S
H1276 C1300 0.950 . S
H1277 C1301 0.951 . S
H1278 C1303 0.951 . S
H1279 C1305 0.950 . S
H1280 C1306 0.950 . S
H1281 C1308 0.950 . S
H1282 C1311 0.950 . S
H1283 C1312 0.950 . S
H1284 C1314 0.950 . S
H1285 C1315 0.950 . S
C1286 H1268 0.951 . S
C1286 C1287 1.366 . S
C1286 C1288 1.388 . S
C1287 C1286 1.366 . S
C1287 C1291 1.385 . S
C1288 H1269 0.951 . S
C1288 C1286 1.388 . S
C1288 C1289 1.366 . S
C1289 C1288 1.366 . S
C1289 C1290 1.414 . S
C1289 C1292 1.499 . S
C1290 H1270 0.950 . S
C1290 C1289 1.414 . S
C1290 C1291 1.374 . S
C1291 H1271 0.950 . S
C1291 C1287 1.385 . S
C1291 C1290 1.374 . S
C1292 C1289 1.499 . S
C1292 C1293 1.373 . S
C1292 C1294 1.389 . S
C1293 H1272 0.950 . S
C1293 C1292 1.373 . S
C1293 C1309 1.377 . S
C1294 C1292 1.389 . S
C1294 C1295 1.524 . S
C1294 C1308 1.377 . S
C1295 C1294 1.524 . S
C1295 C1296 1.397 . S
C1295 C1300 1.363 . S
C1296 H1273 0.950 . S
C1296 C1295 1.397 . S
C1296 C1297 1.334 . S
C1297 H1274 0.950 . S
C1297 C1296 1.334 . S
C1297 C1298 1.287 . S
C1298 C1297 1.287 . S
C1298 C1299 1.524 . S
C1298 H1317 0.913 . S
C1299 H1275 0.950 . S
C1299 C1298 1.524 . S
C1299 C1300 1.415 . S
C1300 H1276 0.950 . S
C1300 C1295 1.363 . S
C1300 C1299 1.415 . S
C1301 H1277 0.951 . S
C1301 C1302 1.366 . S
C1301 C1303 1.388 . S
C1302 C1301 1.366 . S
C1302 C1306 1.385 . S
C1303 H1278 0.951 . S
C1303 C1301 1.388 . S
C1303 C1304 1.366 . S
C1304 C1303 1.366 . S
C1304 C1305 1.414 . S
C1304 C1307 1.499 . S
C1305 H1279 0.950 . S
C1305 C1304 1.414 . S
C1305 C1306 1.374 . S
C1306 H1280 0.950 . S
C1306 C1302 1.385 . S
C1306 C1305 1.374 . S
C1307 C1304 1.499 . S
C1307 C1308 1.373 . S
C1307 C1309 1.389 . S
C1308 H1281 0.950 . S
C1308 C1294 1.377 . S
C1308 C1307 1.373 . S
C1309 C1293 1.377 . S
C1309 C1307 1.389 . S
C1309 C1310 1.524 . S
C1310 C1309 1.524 . S
C1310 C1311 1.397 . S
C1310 C1315 1.363 . S
C1311 H1282 0.950 . S
C1311 C1310 1.397 . S
C1311 C1312 1.334 . S
C1312 H1283 0.950 . S
C1312 C1311 1.334 . S
C1312 C1313 1.287 . S
C1313 C1312 1.287 . S
C1313 C1314 1.524 . S
C1313 H1316 0.999 . S
C1314 H1284 0.950 . S
C1314 C1313 1.524 . S
C1314 C1315 1.415 . S
C1315 H1285 0.950 . S
C1315 C1310 1.363 . S
C1315 C1314 1.415 . S
H1316 C1313 0.999 . S
H1317 C1298 0.913 . S
H1318 C1336 0.951 . S
H1319 C1338 0.951 . S
H1320 C1340 0.950 . S
H1321 C1341 0.950 . S
H1322 C1343 0.950 . S
H1323 C1346 0.950 . S
H1324 C1347 0.950 . S
H1325 C1349 0.950 . S
H1326 C1350 0.950 . S
H1327 C1351 0.951 . S
H1328 C1353 0.951 . S
H1329 C1355 0.950 . S
H1330 C1356 0.950 . S
H1331 C1358 0.950 . S
H1332 C1361 0.950 . S
H1333 C1362 0.950 . S
H1334 C1364 0.950 . S
H1335 C1365 0.950 . S
C1336 H1318 0.951 . S
C1336 C1337 1.366 . S
C1336 C1338 1.388 . S
C1337 C1336 1.366 . S
C1337 C1341 1.385 . S
C1338 H1319 0.951 . S
C1338 C1336 1.388 . S
C1338 C1339 1.366 . S
C1339 C1338 1.366 . S
C1339 C1340 1.414 . S
C1339 C1342 1.499 . S
C1340 H1320 0.950 . S
C1340 C1339 1.414 . S
C1340 C1341 1.374 . S
C1341 H1321 0.950 . S
C1341 C1337 1.385 . S
C1341 C1340 1.374 . S
C1342 C1339 1.499 . S
C1342 C1343 1.373 . S
C1342 C1344 1.389 . S
C1343 H1322 0.950 . S
C1343 C1342 1.373 . S
C1343 C1359 1.377 . S
C1344 C1342 1.389 . S
C1344 C1345 1.524 . S
C1344 C1358 1.377 . S
C1345 C1344 1.524 . S
C1345 C1346 1.397 . S
C1345 C1350 1.363 . S
C1346 H1323 0.950 . S
C1346 C1345 1.397 . S
C1346 C1347 1.334 . S
C1347 H1324 0.950 . S
C1347 C1346 1.334 . S
C1347 C1348 1.287 . S
C1348 C1347 1.287 . S
C1348 C1349 1.524 . S
C1348 H1367 0.913 . S
C1349 H1325 0.950 . S
C1349 C1348 1.524 . S
C1349 C1350 1.415 . S
C1350 H1326 0.950 . S
C1350 C1345 1.363 . S
C1350 C1349 1.415 . S
C1351 H1327 0.951 . S
C1351 C1352 1.366 . S
C1351 C1353 1.388 . S
C1352 C1351 1.366 . S
C1352 C1356 1.385 . S
C1353 H1328 0.951 . S
C1353 C1351 1.388 . S
C1353 C1354 1.366 . S
C1354 C1353 1.366 . S
C1354 C1355 1.414 . S
C1354 C1357 1.499 . S
C1355 H1329 0.950 . S
C1355 C1354 1.414 . S
C1355 C1356 1.374 . S
C1356 H1330 0.950 . S
C1356 C1352 1.385 . S
C1356 C1355 1.374 . S
C1357 C1354 1.499 . S
C1357 C1358 1.373 . S
C1357 C1359 1.389 . S
C1358 H1331 0.950 . S
C1358 C1344 1.377 . S
C1358 C1357 1.373 . S
C1359 C1343 1.377 . S
C1359 C1357 1.389 . S
C1359 C1360 1.524 . S
C1360 C1359 1.524 . S
C1360 C1361 1.397 . S
C1360 C1365 1.363 . S
C1361 H1332 0.950 . S
C1361 C1360 1.397 . S
C1361 C1362 1.334 . S
C1362 H1333 0.950 . S
C1362 C1361 1.334 . S
C1362 C1363 1.287 . S
C1363 C1362 1.287 . S
C1363 C1364 1.524 . S
C1363 H1366 0.999 . S
C1364 H1334 0.950 . S
C1364 C1363 1.524 . S
C1364 C1365 1.415 . S
C1365 H1335 0.950 . S
C1365 C1360 1.363 . S
C1365 C1364 1.415 . S
H1366 C1363 0.999 . S
H1367 C1348 0.913 . S
C187 C20 1.139 . S
C202 C16 1.118 1_556 S
C237 C24 1.120 1_556 S
C252 C40 1.140 . S
C287 C45 1.120 . S
C302 C61 1.140 . S
C337 C83 1.139 . S
C352 C79 1.118 . S
C387 C104 1.139 . S
C402 C100 1.118 1_556 S
C437 C124 1.141 . S
C452 C108 1.120 1_556 S
C487 C129 1.118 . S
C502 C145 1.139 . S
C537 C163 1.119 . S
C552 C167 1.139 . S
C587 C37 1.357 1_554 S
C602 C3 1.356 1_554 S
C637 C66 1.364 . S
C652 C58 1.363 . S
C687 C87 1.358 1_554 S
C702 C121 1.356 1_554 S
C737 C142 1.363 . S
C752 C150 1.364 . S
C787 C19 1.358 . S
C802 C125 1.359 . S
C837 C103 1.358 . S
C852 C41 1.359 . S
C887 C62 1.359 . S
C902 C166 1.359 . S
C937 C82 1.359 . S
C952 C146 1.358 . S
C987 C7 1.284 . S
C1002 C70 1.281 . S
C1037 C25 1.284 . S
C1052 C46 1.282 . S
C1087 C28 1.322 . S
C1102 C49 1.324 . S
C1137 C67 1.320 . S
C1152 C4 1.324 . S
C1187 C91 1.284 . S
C1202 C154 1.281 . S
C1237 C109 1.285 . S
C1252 C130 1.280 . S
C1287 C112 1.321 . S
C1302 C133 1.324 . S
C1337 C151 1.321 . S
C1352 C88 1.325 . S
