# Generated by pormake.
# Topology can, (4)-cn, num edge types: 1
# Building blocks:
#     Node 0, Type 0, BuildingBlock: GALJAG_clean_sbu_0, # of connection points: 4
#     Node 1, Type 0, BuildingBlock: GALJAG_clean_sbu_0, # of connection points: 4
#     Node 2, Type 0, BuildingBlock: GALJAG_clean_sbu_0, # of connection points: 4
#     Node 3, Type 0, BuildingBlock: GALJAG_clean_sbu_0, # of connection points: 4
#     Node 4, Type 0, BuildingBlock: GALJAG_clean_sbu_0, # of connection points: 4
#     Node 5, Type 0, BuildingBlock: GALJAG_clean_sbu_0, # of connection points: 4
#     Node 6, Type 0, BuildingBlock: GALJAG_clean_sbu_0, # of connection points: 4
#     Node 7, Type 0, BuildingBlock: GALJAG_clean_sbu_0, # of connection points: 4
#     Node 8, Type 0, BuildingBlock: GALJAG_clean_sbu_0, # of connection points: 4
#     Node 9, Type 0, BuildingBlock: GALJAG_clean_sbu_0, # of connection points: 4
#     Node 10, Type 0, BuildingBlock: GALJAG_clean_sbu_0, # of connection points: 4
#     Node 11, Type 0, BuildingBlock: GALJAG_clean_sbu_0, # of connection points: 4
#     Edge 12, Type (0, 0), BuildingBlock: ZUJKAS_clean_linker_0, # of connection points: 2
#     Edge 13, Type (0, 0), BuildingBlock: ZUJKAS_clean_linker_0, # of connection points: 2
#     Edge 14, Type (0, 0), BuildingBlock: ZUJKAS_clean_linker_0, # of connection points: 2
#     Edge 15, Type (0, 0), BuildingBlock: ZUJKAS_clean_linker_0, # of connection points: 2
#     Edge 16, Type (0, 0), BuildingBlock: ZUJKAS_clean_linker_0, # of connection points: 2
#     Edge 17, Type (0, 0), BuildingBlock: ZUJKAS_clean_linker_0, # of connection points: 2
#     Edge 18, Type (0, 0), BuildingBlock: ZUJKAS_clean_linker_0, # of connection points: 2
#     Edge 19, Type (0, 0), BuildingBlock: ZUJKAS_clean_linker_0, # of connection points: 2
#     Edge 20, Type (0, 0), BuildingBlock: ZUJKAS_clean_linker_0, # of connection points: 2
#     Edge 21, Type (0, 0), BuildingBlock: ZUJKAS_clean_linker_0, # of connection points: 2
#     Edge 22, Type (0, 0), BuildingBlock: ZUJKAS_clean_linker_0, # of connection points: 2
#     Edge 23, Type (0, 0), BuildingBlock: ZUJKAS_clean_linker_0, # of connection points: 2
#     Edge 24, Type (0, 0), BuildingBlock: ZUJKAS_clean_linker_0, # of connection points: 2
#     Edge 25, Type (0, 0), BuildingBlock: ZUJKAS_clean_linker_0, # of connection points: 2
#     Edge 26, Type (0, 0), BuildingBlock: ZUJKAS_clean_linker_0, # of connection points: 2
#     Edge 27, Type (0, 0), BuildingBlock: ZUJKAS_clean_linker_0, # of connection points: 2
#     Edge 28, Type (0, 0), BuildingBlock: ZUJKAS_clean_linker_0, # of connection points: 2
#     Edge 29, Type (0, 0), BuildingBlock: ZUJKAS_clean_linker_0, # of connection points: 2
#     Edge 30, Type (0, 0), BuildingBlock: ZUJKAS_clean_linker_0, # of connection points: 2
#     Edge 31, Type (0, 0), BuildingBlock: ZUJKAS_clean_linker_0, # of connection points: 2
#     Edge 32, Type (0, 0), BuildingBlock: ZUJKAS_clean_linker_0, # of connection points: 2
#     Edge 33, Type (0, 0), BuildingBlock: ZUJKAS_clean_linker_0, # of connection points: 2
#     Edge 34, Type (0, 0), BuildingBlock: ZUJKAS_clean_linker_0, # of connection points: 2
#     Edge 35, Type (0, 0), BuildingBlock: ZUJKAS_clean_linker_0, # of connection points: 2
# Relax obj value: 0.108
# Max RMSD: 0.101
# Mean RMSD: 0.101
data_MOF--net-can--node1-GALJAG_clean_sbu_0--edge1-ZUJKAS_clean_linker_0
_symmetry_space_group_name_H-M    P1
_symmetry_Int_Tables_number       1
_symmetry_cell_setting            triclinic
loop_
_symmetry_equiv_pos_as_xyz
'x, y, z'
_cell_length_a     68.513095
_cell_length_b     68.5404
_cell_length_c     37.226922
_cell_angle_alpha  89.988957
_cell_angle_beta   90.039758
_cell_angle_gamma 119.99843
loop_
_atom_site_label
_atom_site_type_symbol
_atom_site_fract_x
_atom_site_fract_y
_atom_site_fract_z
_atom_type_partial_charge
In0 In 0.04266 0.37902 0.24542 0.0
O1 O 0.08059 0.39455 0.2488 0.0
O2 O 0.06052 0.3587 0.24801 0.0
C3 C 0.03945 0.41661 0.24319 0.0
C4 C 0.03012 0.36331 0.17806 0.0
C5 C 0.02617 0.36278 0.31119 0.0
O6 O 0.05808 0.4171 0.24505 0.0
O7 O 0.02237 0.39711 0.24251 0.0
O8 O 0.0155 0.35288 0.28296 0.0
O9 O 0.04462 0.38062 0.30588 0.0
C10 C 0.08001 0.37583 0.24943 0.0
O11 O 0.01743 0.35368 0.2047 0.0
O12 O 0.04864 0.38055 0.1857 0.0
In13 In 0.66108 0.03931 0.74768 0.0
O14 O 0.68104 0.0775 0.74709 0.0
O15 O 0.69876 0.05974 0.73788 0.0
C16 C 0.62098 0.03693 0.75739 0.0
C17 C 0.659 0.02347 0.68064 0.0
C18 C 0.66667 0.0239 0.8114 0.0
O19 O 0.6393 0.05539 0.75568 0.0
O20 O 0.62291 0.01962 0.75467 0.0
O21 O 0.65575 0.01067 0.78601 0.0
O22 O 0.67469 0.04445 0.80437 0.0
C23 C 0.69968 0.07854 0.74095 0.0
O24 O 0.66567 0.01668 0.70697 0.0
O25 O 0.6532 0.03771 0.68848 0.0
In26 In 0.61478 0.66335 0.24546 0.0
O27 O 0.59644 0.68309 0.24021 0.0
O28 O 0.63232 0.70126 0.23789 0.0
C29 C 0.57752 0.62257 0.25101 0.0
C30 C 0.63119 0.66238 0.18015 0.0
C31 C 0.63207 0.66783 0.31202 0.0
O32 O 0.57686 0.64061 0.24871 0.0
O33 O 0.59708 0.62509 0.25087 0.0
O34 O 0.63858 0.66055 0.28614 0.0
O35 O 0.61723 0.6728 0.30402 0.0
C36 C 0.61424 0.70192 0.23688 0.0
O37 O 0.64378 0.66927 0.20755 0.0
O38 O 0.61071 0.65564 0.1862 0.0
In39 In 0.94777 0.61595 0.74606 0.0
O40 O 0.90965 0.59936 0.74492 0.0
O41 O 0.92879 0.63522 0.7463 0.0
C42 C 0.95186 0.57894 0.74423 0.0
C43 C 0.96316 0.63358 0.68049 0.0
C44 C 0.96109 0.62992 0.8139 0.0
O45 O 0.93305 0.57812 0.74332 0.0
O46 O 0.96875 0.59854 0.74627 0.0
O47 O 0.97377 0.63989 0.78738 0.0
O48 O 0.94228 0.6132 0.80586 0.0
C49 C 0.90956 0.61773 0.74567 0.0
O50 O 0.97237 0.6446 0.70881 0.0
O51 O 0.94676 0.61406 0.68568 0.0
In52 In 0.32749 0.95098 0.25389 0.0
O53 O 0.32132 0.97335 0.21469 0.0
O54 O 0.33599 0.95454 0.19487 0.0
C55 C 0.32304 0.96494 0.31952 0.0
C56 C 0.28895 0.91175 0.24591 0.0
C57 C 0.3679 0.95392 0.26188 0.0
O58 O 0.33144 0.97852 0.29352 0.0
O59 O 0.31687 0.94477 0.31207 0.0
O60 O 0.34969 0.93534 0.26029 0.0
O61 O 0.36573 0.97113 0.25971 0.0
C62 C 0.32887 0.96786 0.18791 0.0
O63 O 0.30788 0.91291 0.24835 0.0
O64 O 0.28951 0.93043 0.24728 0.0
In65 In 0.37844 0.33099 0.74797 0.0
O66 O 0.35318 0.3328 0.70919 0.0
O67 O 0.37464 0.32111 0.68949 0.0
C68 C 0.36441 0.33196 0.8152 0.0
C69 C 0.3766 0.2912 0.75384 0.0
C70 C 0.41593 0.37162 0.74092 0.0
O71 O 0.35282 0.33097 0.78805 0.0
O72 O 0.38281 0.33287 0.8081 0.0
O73 O 0.41642 0.35349 0.74245 0.0
O74 O 0.3965 0.36929 0.74284 0.0
C75 C 0.35925 0.32551 0.68275 0.0
O76 O 0.39494 0.30948 0.74982 0.0
O77 O 0.35913 0.29302 0.7548 0.0
In78 In 0.61344 0.94902 0.24562 0.0
O79 O 0.59536 0.91099 0.24078 0.0
O80 O 0.63129 0.92889 0.23883 0.0
C81 C 0.57617 0.95245 0.25325 0.0
C82 C 0.63215 0.96227 0.31128 0.0
C83 C 0.62892 0.96517 0.17938 0.0
O84 O 0.57565 0.93381 0.25243 0.0
O85 O 0.59558 0.96951 0.25033 0.0
O86 O 0.6412 0.97325 0.20694 0.0
O87 O 0.60909 0.94967 0.18565 0.0
C88 C 0.61326 0.91009 0.23783 0.0
O89 O 0.63776 0.97601 0.28542 0.0
O90 O 0.61751 0.94232 0.3037 0.0
In91 In 0.66325 0.62053 0.74589 0.0
O92 O 0.68366 0.6028 0.74984 0.0
O93 O 0.70126 0.63864 0.75281 0.0
C94 C 0.62324 0.58248 0.73871 0.0
C95 C 0.66174 0.63583 0.81196 0.0
C96 C 0.66677 0.639 0.68055 0.0
O97 O 0.64167 0.58256 0.74078 0.0
O98 O 0.62497 0.6017 0.74001 0.0
O99 O 0.65898 0.6443 0.70724 0.0
O100 O 0.67279 0.62476 0.68714 0.0
C101 C 0.70233 0.62078 0.75311 0.0
O102 O 0.66925 0.6489 0.78523 0.0
O103 O 0.65467 0.6154 0.80493 0.0
In104 In 0.03991 0.66504 0.24822 0.0
O105 O 0.07816 0.68432 0.24803 0.0
O106 O 0.06119 0.70301 0.25451 0.0
C107 C 0.03746 0.62475 0.24216 0.0
C108 C 0.02437 0.66518 0.31483 0.0
C109 C 0.02378 0.66799 0.18347 0.0
O110 O 0.05591 0.64303 0.24472 0.0
O111 O 0.02012 0.62677 0.24239 0.0
O112 O 0.01095 0.65918 0.2102 0.0
O113 O 0.04434 0.67534 0.18976 0.0
C114 C 0.07974 0.70335 0.25208 0.0
O115 O 0.01927 0.67315 0.28815 0.0
O116 O 0.03665 0.65689 0.30753 0.0
In117 In 0.37608 0.04325 0.75393 0.0
O118 O 0.39348 0.08144 0.75635 0.0
O119 O 0.35768 0.06288 0.76025 0.0
C120 C 0.41339 0.03968 0.75044 0.0
C121 C 0.36009 0.02678 0.81982 0.0
C122 C 0.35878 0.02912 0.68771 0.0
O123 O 0.41406 0.0584 0.7521 0.0
O124 O 0.39381 0.02267 0.75006 0.0
O125 O 0.35156 0.01618 0.71466 0.0
O126 O 0.37445 0.04879 0.69443 0.0
C127 C 0.3754 0.08192 0.7598 0.0
O128 O 0.34753 0.02003 0.79237 0.0
O129 O 0.38035 0.04123 0.81361 0.0
In130 In 0.32774 0.37577 0.25072 0.0
O131 O 0.3059 0.39192 0.25262 0.0
O132 O 0.28946 0.35603 0.25116 0.0
C133 C 0.36865 0.41332 0.2511 0.0
C134 C 0.32587 0.35857 0.31653 0.0
C135 C 0.32629 0.36018 0.18372 0.0
O136 O 0.35051 0.41385 0.25058 0.0
O137 O 0.36618 0.39381 0.25139 0.0
O138 O 0.32959 0.35111 0.21088 0.0
O139 O 0.32377 0.37677 0.19062 0.0
C140 C 0.28753 0.37342 0.25242 0.0
O141 O 0.32716 0.34889 0.28843 0.0
O142 O 0.32579 0.37667 0.31111 0.0
In143 In 0.94588 0.32828 0.74438 0.0
O144 O 0.97053 0.32575 0.78362 0.0
O145 O 0.94465 0.33102 0.80454 0.0
C146 C 0.9594 0.32451 0.67807 0.0
C147 C 0.90733 0.28879 0.74796 0.0
C148 C 0.95032 0.36952 0.73983 0.0
O149 O 0.9726 0.33024 0.70474 0.0
O150 O 0.93987 0.32082 0.68514 0.0
O151 O 0.93139 0.35169 0.741 0.0
O152 O 0.96706 0.36655 0.74075 0.0
C153 C 0.96122 0.32838 0.8111 0.0
O154 O 0.90779 0.30744 0.74688 0.0
O155 O 0.9264 0.29011 0.7476 0.0
H156 H 0.98936 0.33038 0.15174 0.0
H157 H 0.97902 0.32075 0.08837 0.0
H158 H 0.04678 0.36954 0.0567 0.0
H159 H 0.05708 0.37944 0.11949 0.0
H160 H 0.01458 0.37523 0.02245 0.0
H161 H 0.99423 0.28613 0.01368 0.0
H162 H 0.97994 0.29177 0.04912 0.0
H163 H 0.01008 0.30437 0.05053 0.0
C164 C 0.00209 0.33879 0.13124 0.0
C165 C 0.02397 0.35575 0.14051 0.0
C166 C -0.00378 0.33318 0.09511 0.0
C167 C 0.01222 0.34429 0.06788 0.0
C168 C 0.03421 0.36072 0.07729 0.0
H169 H -0.00262 0.32465 0.83413 0.0
H170 H 0.01064 0.32739 0.89641 0.0
C171 C 0.04004 0.36638 0.1132 0.0
C172 C 0.00568 0.34055 0.02948 0.0
H173 H 0.98408 0.30074 0.96322 0.0
C174 C 0.00808 0.35897 0.00947 0.0
C175 C -0.0026 0.31938 0.01254 0.0
C176 C -0.00458 0.2993 0.03242 0.0
C177 C 0.0019 0.3567 0.9732 0.0
C178 C 0.99285 0.33538 0.95659 0.0
C179 C 0.99096 0.31703 0.97621 0.0
C180 C 0.98414 0.33183 0.91945 0.0
C181 C 0.00492 0.37709 0.95288 0.0
C182 C 0.96473 0.33306 0.91216 0.0
C183 C 0.95722 0.33157 0.87695 0.0
C184 C 0.96896 0.32878 0.84828 0.0
C185 C 0.98807 0.32689 0.85569 0.0
C186 C -0.0044 0.32837 0.89115 0.0
H187 H 0.01657 0.39303 0.96698 0.0
H188 H 0.01154 0.37759 0.92546 0.0
H189 H 0.98834 0.37614 0.95014 0.0
H190 H 0.9556 0.33557 0.93373 0.0
H191 H 0.94234 0.33293 0.87218 0.0
H192 H 0.65603 0.00479 0.33982 0.0
H193 H 0.66516 0.01455 0.40343 0.0
H194 H 0.63648 0.94415 0.42952 0.0
H195 H 0.62701 0.93431 0.36647 0.0
H196 H 0.61823 0.96485 0.46842 0.0
H197 H 0.71164 0.01494 0.47334 0.0
H198 H 0.6991 0.02445 0.44038 0.0
H199 H 0.69647 -0.00286 0.43567 0.0
C200 C 0.65212 0.99148 0.35907 0.0
C201 C 0.64068 0.9688 0.34829 0.0
C202 C 0.65744 -0.00293 0.39534 0.0
C203 C 0.65163 0.98006 0.42114 0.0
C204 C 0.64114 0.95752 0.41005 0.0
H205 H 0.67464 -0.00358 0.65424 0.0
H206 H 0.67378 0.98491 0.59137 0.0
C207 C 0.63572 0.95193 0.37401 0.0
C208 C 0.65404 0.98536 0.46001 0.0
H209 H 0.69194 0.01591 0.52574 0.0
C210 C 0.63439 0.97584 0.48099 0.0
C211 C 0.67514 -0.00043 0.47638 0.0
C212 C 0.69684 0.00947 0.4554 0.0
C213 C 0.63518 0.98062 0.5177 0.0
C214 C 0.65613 0.99549 0.53376 0.0
C215 C 0.6759 0.00455 0.51316 0.0
C216 C 0.65744 0.0028 0.57142 0.0
C217 C 0.61356 0.96993 0.53904 0.0
C218 C 0.64868 0.01672 0.58066 0.0
C219 C 0.64915 0.02327 0.61622 0.0
C220 C 0.65838 0.016 0.64327 0.0
C221 C 0.66731 0.00215 0.63396 0.0
C222 C 0.66693 0.99567 0.59815 0.0
H223 H 0.59979 0.9552 0.52486 0.0
H224 H 0.61612 0.96439 0.56579 0.0
H225 H 0.60811 0.98251 0.54335 0.0
H226 H 0.64142 0.02248 0.56028 0.0
H227 H 0.64222 0.03402 0.6225 0.0
H228 H 0.60588 0.64478 0.12035 0.0
H229 H 0.61869 0.64742 0.05866 0.0
H230 H 0.68785 0.68486 0.09408 0.0
H231 H 0.67503 0.68196 0.15659 0.0
H232 H 0.64529 0.68668 0.01871 0.0
H233 H 0.68547 0.63364 0.03273 0.0
H234 H 0.6666 0.63386 0.06632 0.0
H235 H 0.69476 0.65727 0.06264 0.0
C236 C 0.62384 0.65346 0.11516 0.0
C237 C 0.63947 0.66309 0.14331 0.0
C238 C 0.63112 0.65504 0.07984 0.0
C239 C 0.65419 0.6663 0.07181 0.0
C240 C 0.66996 0.67589 0.0998 0.0
H241 H 0.68304 0.67919 0.83778 0.0
H242 H 0.68551 0.69098 0.90079 0.0
C243 C 0.66264 0.67422 0.13542 0.0
C244 C 0.66118 0.66762 0.03387 0.0
H245 H 0.68234 0.64496 0.97465 0.0
C246 C 0.65376 0.67792 0.009 0.0
C247 C 0.67222 0.65616 0.02148 0.0
C248 C 0.68016 0.64446 0.04701 0.0
C249 C 0.65582 0.67588 0.97188 0.0
C250 C 0.66591 0.66351 0.95945 0.0
C251 C 0.6746 0.65442 0.98437 0.0
C252 C 0.66483 0.6571 0.92122 0.0
C253 C 0.64585 0.68566 0.94632 0.0
C254 C 0.65255 0.63423 0.91196 0.0
C255 C 0.65124 0.62751 0.87633 0.0
C256 C 0.66216 0.64354 0.84911 0.0
C257 C 0.67429 0.66651 0.85822 0.0
C258 C 0.67571 0.67325 0.89413 0.0
H259 H 0.63555 0.69166 0.96046 0.0
H260 H 0.65965 0.70019 0.93194 0.0
H261 H 0.63511 0.67296 0.92596 0.0
H262 H 0.64392 0.62151 0.93242 0.0
H263 H 0.64177 0.60968 0.87017 0.0
H264 H 0.00536 0.68932 0.34109 0.0
H265 H -0.00303 0.69273 0.40424 0.0
H266 H 0.01957 0.6466 0.43518 0.0
H267 H 0.02846 0.64361 0.37284 0.0
H268 H 0.96856 0.66207 0.45132 0.0
H269 H 0.05497 0.69762 0.50379 0.0
H270 H 0.04905 0.69626 0.45629 0.0
H271 H 0.04718 0.67224 0.47935 0.0
C272 C 0.00851 0.67994 0.36146 0.0
C273 C 0.01771 0.66633 0.35213 0.0
C274 C 0.00382 0.68197 0.39747 0.0
C275 C 0.00828 0.67045 0.42455 0.0
C276 C 0.01676 0.6563 0.41496 0.0
H277 H 0.94738 0.61069 0.6181 0.0
H278 H 0.95869 0.62446 0.55719 0.0
C279 C 0.0216 0.65441 0.37922 0.0
C280 C 0.00316 0.67207 0.46277 0.0
H281 H 0.02482 0.67717 0.54707 0.0
C282 C 0.98098 0.66585 0.47225 0.0
C283 C 0.01947 0.67766 0.49016 0.0
C284 C 0.04404 0.68658 0.48181 0.0
C285 C 0.97427 0.66318 0.50836 0.0
C286 C 0.99001 0.66623 0.53556 0.0
C287 C 0.01262 0.67436 0.52622 0.0
C288 C 0.98288 0.65859 0.573 0.0
C289 C 0.95021 0.65655 0.51691 0.0
C290 C 0.99335 0.67296 0.60241 0.0
C291 C 0.98712 0.66497 0.63762 0.0
C292 C 0.97041 0.64248 0.6438 0.0
C293 C 0.96018 0.62817 0.61427 0.0
C294 C 0.96645 0.63608 0.57934 0.0
H295 H 0.94331 0.66328 0.49644 0.0
H296 H 0.93965 0.63792 0.51652 0.0
H297 H 0.94877 0.66274 0.54378 0.0
H298 H 0.00631 0.69032 0.59811 0.0
H299 H -0.0047 0.67635 0.6599 0.0
H300 H 0.38564 0.03549 0.8796 0.0
H301 H 0.37304 0.02505 0.94134 0.0
H302 H 0.30376 0.9917 0.90612 0.0
H303 H 0.31639 0.00177 0.84358 0.0
H304 H 0.34651 0.03646 0.98205 0.0
H305 H 0.30675 0.94343 0.96657 0.0
H306 H 0.325 0.96278 0.9327 0.0
H307 H 0.29668 0.95747 0.93755 0.0
C308 C 0.36771 0.0258 0.88486 0.0
C309 C 0.35199 0.01934 0.85676 0.0
C310 C 0.36053 0.01994 0.92021 0.0
C311 C 0.33749 0.00755 0.92832 0.0
C312 C 0.32164 0.00102 0.90037 0.0
H313 H 0.30796 0.99037 0.16216 0.0
H314 H 0.30588 9e-05 0.09921 0.0
C315 C 0.32886 0.00678 0.86473 0.0
C316 C 0.33058 0.00161 0.96627 0.0
H317 H 0.30908 0.95741 0.02479 0.0
C318 C 0.33799 0.01917 0.99146 0.0
C319 C 0.31948 0.97903 0.97831 0.0
C320 C 0.3116 0.95953 0.95253 0.0
C321 C 0.33582 0.01483 0.02851 0.0
C322 C 0.32556 0.99228 0.04058 0.0
C323 C 0.31693 0.97468 0.01536 0.0
C324 C 0.32636 0.98666 0.07877 0.0
C325 C 0.34582 0.03441 0.05438 0.0
C326 C 0.33837 0.97578 0.08799 0.0
C327 C 0.33945 0.97013 0.12357 0.0
C328 C 0.32857 0.97529 0.1508 0.0
C329 C 0.31668 0.98639 0.14172 0.0
C330 C 0.31549 0.99195 0.10585 0.0
H331 H 0.35636 0.05075 0.04051 0.0
H332 H 0.33202 0.03524 0.06859 0.0
H333 H 0.35632 0.03215 0.07485 0.0
H334 H 0.34698 0.97165 0.06755 0.0
H335 H 0.34874 0.96158 0.12969 0.0
H336 H 0.33339 0.32459 0.3381 0.0
H337 H 0.33394 0.31251 0.40013 0.0
H338 H 0.31658 0.3611 0.43924 0.0
H339 H 0.31607 0.37325 0.37784 0.0
H340 H 0.36306 0.34331 0.45488 0.0
H341 H 0.27289 0.30224 0.49357 0.0
H342 H 0.28209 0.3061 0.44731 0.0
H343 H 0.28365 0.32925 0.47235 0.0
C344 C 0.32941 0.33245 0.35995 0.0
C345 C 0.32477 0.34989 0.3532 0.0
C346 C 0.3297 0.32554 0.39526 0.0
C347 C 0.32497 0.33571 0.42412 0.0
C348 C 0.31983 0.35274 0.41729 0.0
H349 H 0.33639 0.34526 0.65446 0.0
H350 H 0.3264 0.34534 0.59108 0.0
C351 C 0.31975 0.35978 0.38219 0.0
C352 C 0.32749 0.33027 0.46166 0.0
H353 H 0.29949 0.31233 0.54144 0.0
C354 C 0.34913 0.3362 0.47375 0.0
C355 C 0.3093 0.3213 0.48616 0.0
C356 C 0.28561 0.31416 0.47422 0.0
C357 C 0.35328 0.3342 0.51006 0.0
C358 C 0.33512 0.32541 0.53474 0.0
C359 C 0.31336 0.31905 0.52249 0.0
C360 C 0.33865 0.32328 0.57349 0.0
C361 C 0.37726 0.34246 0.52184 0.0
C362 C 0.34801 0.31019 0.58471 0.0
C363 C 0.35396 0.31038 0.62059 0.0
C364 C 0.35024 0.3233 0.64606 0.0
C365 C 0.33948 0.33521 0.63532 0.0
C366 C 0.33378 0.33526 0.59919 0.0
H367 H 0.38964 0.35409 0.50182 0.0
H368 H 0.38083 0.35132 0.54806 0.0
H369 H 0.37991 0.32785 0.52489 0.0
H370 H 0.35133 0.30033 0.5655 0.0
H371 H 0.36194 0.30077 0.62824 0.0
H372 H 0.00195 0.66234 0.8409 0.0
H373 H 0.012 0.67166 0.90454 0.0
H374 H 0.94414 0.62258 0.9352 0.0
H375 H 0.93414 0.61298 0.87229 0.0
H376 H 0.99295 0.68651 0.95916 0.0
H377 H 0.98306 0.6029 0.99079 0.0
H378 H 0.98492 0.61284 0.94534 0.0
H379 H 0.9588 0.60141 0.96963 0.0
C380 C 0.98922 0.65361 0.86127 0.0
C381 C 0.96736 0.63675 0.85168 0.0
C382 C -0.00506 0.65896 0.89752 0.0
C383 C 0.97889 0.64749 0.92451 0.0
C384 C 0.95689 0.63127 0.91482 0.0
H385 H 0.9805 0.64464 0.15801 0.0
H386 H 0.96841 0.64164 0.09514 0.0
C387 C 0.95121 0.62586 0.87882 0.0
C388 C 0.98504 0.65196 0.96296 0.0
H389 H 0.98737 0.62648 0.04033 0.0
C390 C 0.99185 0.67345 0.97693 0.0
C391 C 0.98354 0.63485 0.98601 0.0
C392 C 0.97739 0.61176 0.97219 0.0
C393 C -0.00315 0.67816 0.01361 0.0
C394 C -0.00486 0.66096 0.03663 0.0
C395 C 0.98836 0.63952 0.02263 0.0
C396 C 0.00168 0.66509 0.07493 0.0
C397 C 0.00363 0.70134 0.02759 0.0
C398 C 0.02429 0.67942 0.08426 0.0
C399 C 0.03122 0.68102 0.11991 0.0
C400 C 0.01565 0.66832 0.14689 0.0
C401 C 0.99282 0.65468 0.13777 0.0
C402 C 0.98592 0.65293 0.10195 0.0
H403 H -0.00124 0.71076 0.00876 0.0
H404 H -0.00418 0.70031 0.05416 0.0
H405 H 0.02221 0.71106 0.03099 0.0
H406 H 0.03677 0.68863 0.06374 0.0
H407 H 0.04893 0.69169 0.12615 0.0
H408 H 0.34325 0.00771 0.34736 0.0
H409 H 0.34477 0.01808 0.41091 0.0
H410 H 0.30129 0.94818 0.43832 0.0
H411 H 0.30001 0.9377 0.37536 0.0
H412 H 0.31071 0.00994 0.46346 0.0
H413 H 0.35884 0.96687 0.49712 0.0
H414 H 0.35489 0.97315 0.45151 0.0
H415 H 0.33256 0.94943 0.47452 0.0
C416 C 0.33381 0.99463 0.36693 0.0
C417 C 0.32177 0.97189 0.35656 0.0
C418 C 0.33468 0.00056 0.40314 0.0
C419 C 0.3235 0.98382 0.42929 0.0
C420 C 0.31041 0.96128 0.41862 0.0
H421 H 0.32879 0.98664 0.66367 0.0
H422 H 0.31726 0.97498 0.60123 0.0
C423 C 0.30966 0.95535 0.38263 0.0
C424 C 0.32648 0.98964 0.46793 0.0
H425 H 0.34762 0.98115 0.54568 0.0
C426 C 0.31877 0.00368 0.48149 0.0
C427 C 0.33699 0.98138 0.49132 0.0
C428 C 0.34649 0.96703 0.47793 0.0
C429 C 0.32117 0.00956 0.51803 0.0
C430 C 0.3318 0.0014 0.54132 0.0
C431 C 0.33928 0.98719 0.52779 0.0
C432 C 0.33683 0.00859 0.57929 0.0
C433 C 0.31217 0.02431 0.53146 0.0
C434 C 0.35162 0.03129 0.58748 0.0
C435 C 0.35827 0.03793 0.62289 0.0
C436 C 0.35032 0.02197 0.6508 0.0
C437 C 0.33513 -0.00072 0.64271 0.0
C438 C 0.32854 0.99263 0.60713 0.0
H439 H 0.29905 0.02373 0.51321 0.0
H440 H 0.30491 0.01916 0.55881 0.0
H441 H 0.32617 0.04201 0.5328 0.0
H442 H 0.3586 0.04379 0.56633 0.0
H443 H 0.37002 0.05554 0.62828 0.0
H444 H 0.38223 0.32446 0.87495 0.0
H445 H 0.37179 0.32497 0.93731 0.0
H446 H 0.3206 0.34007 0.90307 0.0
H447 H 0.33055 0.33881 0.84007 0.0
H448 H 0.37497 0.35988 0.97298 0.0
H449 H 0.28596 0.29057 0.97506 0.0
H450 H 0.30472 0.29466 0.93816 0.0
H451 H 0.29157 0.31166 0.94173 0.0
C452 C 0.3686 0.3277 0.88062 0.0
C453 C 0.35722 0.33165 0.85267 0.0
C454 C 0.36263 0.32795 0.91631 0.0
C455 C 0.34525 0.3323 0.92492 0.0
C456 C 0.33371 0.33614 0.89705 0.0
H457 H 0.31313 0.37324 0.12394 0.0
H458 H 0.31611 0.36412 0.06144 0.0
C459 C 0.33951 0.3356 0.86111 0.0
C460 C 0.34048 0.33428 0.96321 0.0
H461 H 0.29916 0.31396 0.02718 0.0
C462 C 0.35842 0.34968 0.98483 0.0
C463 C 0.31888 0.32096 0.97869 0.0
C464 C 0.29922 0.30338 0.95732 0.0
C465 C 0.35531 0.35231 0.02132 0.0
C466 C 0.33371 0.33926 0.03658 0.0
C467 C 0.31572 0.32385 0.0152 0.0
C468 C 0.32955 0.3424 0.07443 0.0
C469 C 0.375 0.36927 0.04338 0.0
C470 C 0.33579 0.33281 0.10229 0.0
C471 C 0.33402 0.33791 0.13814 0.0
C472 C 0.32621 0.35283 0.14642 0.0
C473 C 0.31933 0.36178 0.11837 0.0
C474 C 0.32092 0.35654 0.08269 0.0
H475 H 0.39044 0.37906 0.02694 0.0
H476 H 0.37068 0.38116 0.05653 0.0
H477 H 0.37873 0.36041 0.06494 0.0
H478 H 0.34257 0.32191 0.09622 0.0
H479 H 0.33946 0.3308 0.15923 0.0
H480 H 0.93164 0.3035 0.62179 0.0
H481 H 0.94191 0.30413 0.55891 0.0
H482 H 0.01229 0.34383 0.587 0.0
H483 H 0.00205 0.34262 0.65042 0.0
H484 H 0.96247 0.34084 0.51881 0.0
H485 H 0.01372 0.29892 0.51895 0.0
H486 H -0.00356 0.29736 0.55667 0.0
H487 H 0.02386 0.32178 0.55038 0.0
C488 C 0.94933 0.31204 0.61467 0.0
C489 C 0.96607 0.32307 0.64093 0.0
C490 C 0.95517 0.31237 0.57871 0.0
C491 C 0.97786 0.32384 0.5682 0.0
C492 C 0.99469 0.33441 0.59454 0.0
H493 H 0.04949 0.37883 0.37335 0.0
H494 H 0.0363 0.3666 0.43454 0.0
C495 C 0.98884 0.33384 0.63073 0.0
C496 C 0.98364 0.32651 0.52943 0.0
H497 H 0.01633 0.32036 0.46632 0.0
C498 C 0.97399 0.33604 0.50725 0.0
C499 C -0.00134 0.32024 0.51435 0.0
C500 C 0.00859 0.3088 0.53626 0.0
C501 C 0.97952 0.34015 0.47073 0.0
C502 C -0.00498 0.33449 0.45597 0.0
C503 C 0.00439 0.3246 0.47784 0.0
C504 C 0.00304 0.34046 0.41857 0.0
C505 C 0.96943 0.35129 0.44844 0.0
C506 C 0.98871 0.32956 0.38933 0.0
C507 C -0.00377 0.33648 0.35414 0.0
C508 C 0.01811 0.35448 0.34788 0.0
C509 C 0.03248 0.36501 0.3773 0.0
C510 C 0.02504 0.35799 0.41228 0.0
H511 H 0.96 0.35728 0.46507 0.0
H512 H 0.98284 0.36584 0.43347 0.0
H513 H 0.95763 0.33907 0.42844 0.0
H514 H 0.97168 0.31589 0.39377 0.0
H515 H 0.98484 0.32804 0.33196 0.0
H516 H 0.69756 0.04838 0.86242 0.0
H517 H 0.69783 0.03822 0.92521 0.0
H518 H 0.63961 0.9729 0.90561 0.0
H519 H 0.63985 0.98274 0.8423 0.0
H520 H 0.66563 0.03038 0.97078 0.0
H521 H 0.67587 0.95535 0.96812 0.0
H522 H 0.68138 0.97316 0.92931 0.0
H523 H 0.653 0.95165 0.94003 0.0
C524 C 0.68515 0.03165 0.87134 0.0
C525 C 0.66864 0.01633 0.8476 0.0
C526 C 0.68532 0.02587 0.90721 0.0
C527 C 0.66887 0.00474 0.92016 0.0
C528 C 0.65284 0.98909 0.89613 0.0
H529 H 0.60575 0.94696 0.11777 0.0
H530 H 0.6187 0.9578 0.05613 0.0
C531 C 0.65288 0.99476 0.85999 0.0
C532 C 0.6669 0.00019 0.95935 0.0
H533 H 0.66008 0.96108 0.02239 0.0
C534 C 0.66486 0.01544 0.98213 0.0
C535 C 0.66592 0.98071 0.9742 0.0
C536 C 0.6694 0.96442 0.95164 0.0
C537 C 0.66085 0.01122 0.01901 0.0
C538 C 0.65887 0.99128 0.03348 0.0
C539 C 0.6616 0.97636 0.01106 0.0
C540 C 0.65184 0.98465 0.07109 0.0
C541 C 0.65771 0.02757 0.04203 0.0
C542 C 0.6663 0.99621 0.09989 0.0
C543 C 0.65894 0.99004 0.13534 0.0
C544 C 0.63701 0.9723 0.14232 0.0
C545 C 0.6227 0.96078 0.1133 0.0
C546 C 0.63009 0.96685 0.07805 0.0
H547 H 0.65731 0.041 0.02588 0.0
H548 H 0.64179 0.01851 0.05758 0.0
H549 H 0.6718 0.03567 0.06155 0.0
H550 H 0.68321 0.00995 0.0949 0.0
H551 H 0.67034 -0.00088 0.1572 0.0
H552 H 0.65859 0.65197 0.33989 0.0
H553 H 0.66811 0.65157 0.40346 0.0
H554 H 0.63321 0.68717 0.43141 0.0
H555 H 0.62341 0.68737 0.36845 0.0
H556 H 0.69077 0.68724 0.45588 0.0
H557 H 0.60111 0.62841 0.49036 0.0
H558 H 0.61128 0.63344 0.44468 0.0
H559 H 0.60606 0.65352 0.46738 0.0
C560 C 0.65316 0.65988 0.3596 0.0
C561 C 0.64003 0.66945 0.34933 0.0
C562 C 0.65861 0.65966 0.3958 0.0
C563 C 0.65099 0.66899 0.42208 0.0
C564 C 0.63886 0.67951 0.41159 0.0
H565 H 0.64911 0.66465 0.65612 0.0
H566 H 0.64754 0.67518 0.59357 0.0
C567 C 0.63334 0.67965 0.37559 0.0
C568 C 0.65472 0.66684 0.46066 0.0
H569 H 0.62676 0.64323 0.53875 0.0
C570 C 0.67682 0.67762 0.47406 0.0
C571 C 0.63643 0.65429 0.48421 0.0
C572 C 0.61238 0.64157 0.47098 0.0
C573 C 0.68111 0.67633 0.51063 0.0
C574 C 0.66281 0.6637 0.53412 0.0
C575 C 0.64073 0.65309 0.52071 0.0
C576 C 0.6661 0.65988 0.57221 0.0
C577 C 0.70513 0.68864 0.52391 0.0
C578 C 0.67714 0.64793 0.58079 0.0
C579 C 0.67797 0.64187 0.61627 0.0
C580 C 0.6677 0.64755 0.64384 0.0
C581 C 0.65722 0.66011 0.63541 0.0
C582 C 0.65631 0.66612 0.59977 0.0
H583 H 0.7163 0.70249 0.50542 0.0
H584 H 0.70623 0.69578 0.55111 0.0
H585 H 0.71153 0.67666 0.52553 0.0
H586 H 0.68437 0.64254 0.55986 0.0
H587 H 0.68616 0.63216 0.62194 0.0
H588 H -0.00015 0.58301 0.23782 0.0
H589 H -0.00172 0.54646 0.23772 0.0
H590 H 0.07085 0.58028 0.24204 0.0
H591 H 0.07259 0.61677 0.24246 0.0
H592 H 0.01855 0.52942 0.18901 0.0
H593 H 0.05032 0.53667 0.32838 0.0
H594 H 0.03981 0.55434 0.31128 0.0
H595 H 0.06783 0.56037 0.30026 0.0
C596 C 0.01546 0.58263 0.23868 0.0
C597 C 0.03634 0.60271 0.24039 0.0
C598 C 0.01452 0.56177 0.2386 0.0
C599 C 0.03443 0.56073 0.24047 0.0
C600 C 0.05529 0.58076 0.24129 0.0
H601 H 0.07396 0.46004 0.24479 0.0
H602 H 0.07138 0.49436 0.24326 0.0
C603 C 0.05625 0.60157 0.24134 0.0
C604 C 0.03353 0.53874 0.24158 0.0
H605 H 0.04846 0.50699 0.29278 0.0
C606 C 0.02489 0.52437 0.21177 0.0
C607 C 0.04177 0.53227 0.27141 0.0
C608 C 0.05027 0.5466 0.30481 0.0
C609 C 0.02502 0.50396 0.21049 0.0
C610 C 0.03369 0.49772 0.24005 0.0
C611 C 0.04192 0.51191 0.27011 0.0
C612 C 0.03498 0.47682 0.24006 0.0
C613 C 0.01655 0.4896 0.17713 0.0
C614 C 0.01533 0.45563 0.23903 0.0
C615 C 0.01675 0.43599 0.2399 0.0
C616 C 0.03785 0.43727 0.24199 0.0
C617 C 0.05747 0.45853 0.24313 0.0
C618 C 0.05604 0.47813 0.24227 0.0
H619 H 0.01514 0.49907 0.15401 0.0
H620 H 0.0279 0.48307 0.16954 0.0
H621 H -0.0004 0.47495 0.18248 0.0
H622 H -0.0011 0.45429 0.23798 0.0
H623 H 0.00134 0.41982 0.23913 0.0
H624 H 0.45692 0.07398 0.75238 0.0
H625 H 0.49105 0.07109 0.75482 0.0
H626 H 0.4506 -0.00139 0.7519 0.0
H627 H 0.41631 0.00135 0.74908 0.0
H628 H 0.50206 0.04867 0.80812 0.0
H629 H 0.49752 0.01339 0.67181 0.0
H630 H 0.48135 0.02657 0.68425 0.0
H631 H 0.47261 -0.00159 0.69886 0.0
C632 C 0.45529 0.05742 0.75196 0.0
C633 C 0.43397 0.03788 0.75042 0.0
C634 C 0.47478 0.05581 0.75344 0.0
C635 C 0.47332 0.03466 0.7532 0.0
C636 C 0.45207 0.0151 0.75152 0.0
H637 H 0.57925 -0.00073 0.75794 0.0
H638 H 0.54269 -0.00241 0.7598 0.0
C639 C 0.43253 0.0167 0.75005 0.0
C640 C 0.49408 0.0332 0.75579 0.0
H641 H 0.52683 0.01716 0.70981 0.0
C642 C 0.50749 0.04176 0.78667 0.0
C643 C 0.50098 0.02405 0.72782 0.0
C644 C 0.48751 0.01522 0.69365 0.0
C645 C 0.52773 0.0415 0.79029 0.0
C646 C 0.53487 0.03279 0.76201 0.0
C647 C 0.52125 0.02381 0.73143 0.0
C648 C 0.5569 0.03372 0.76288 0.0
C649 C 0.54121 0.0504 0.82445 0.0
C650 C 0.57694 0.05459 0.76391 0.0
C651 C 0.59779 0.0556 0.76287 0.0
C652 C 0.59895 0.03574 0.76056 0.0
C653 C 0.57886 0.01484 0.75984 0.0
C654 C 0.55799 0.01385 0.76084 0.0
H655 H 0.53061 0.05045 0.84698 0.0
H656 H 0.54901 0.04022 0.83241 0.0
H657 H 0.5549 0.068 0.82003 0.0
H658 H 0.57644 0.07013 0.76477 0.0
H659 H 0.61298 0.07195 0.76327 0.0
H660 H 0.57439 0.58123 0.25378 0.0
H661 H 0.53989 0.54426 0.25311 0.0
H662 H 0.49981 0.57672 0.25092 0.0
H663 H 0.53408 0.6136 0.25123 0.0
H664 H 0.5029 0.52598 0.30184 0.0
H665 H 0.47695 0.53391 0.1639 0.0
H666 H 0.50511 0.55199 0.18078 0.0
H667 H 0.48269 0.5572 0.19271 0.0
C668 C 0.55821 0.58045 0.25321 0.0
C669 C 0.5569 0.60027 0.25232 0.0
C670 C 0.53856 0.55937 0.25283 0.0
C671 C 0.51738 0.55783 0.25133 0.0
C672 C 0.51604 0.57759 0.25133 0.0
H673 H 0.37765 0.45677 0.25043 0.0
H674 H 0.4146 0.49104 0.25082 0.0
C675 C 0.53562 0.59863 0.25171 0.0
C676 C 0.49656 0.53561 0.25 0.0
H677 H 0.44946 0.50389 0.19959 0.0
C678 C 0.49129 0.52099 0.27937 0.0
C679 C 0.48155 0.52921 0.22054 0.0
C680 C 0.48691 0.54379 0.18752 0.0
C681 C 0.47089 0.50045 0.28069 0.0
C682 C 0.45564 0.49433 0.25162 0.0
C683 C 0.46117 0.50872 0.2219 0.0
C684 C 0.43345 0.47344 0.25195 0.0
C685 C 0.46546 0.48582 0.31366 0.0
C686 C 0.43188 0.45224 0.25216 0.0
C687 C 0.41078 0.43262 0.25196 0.0
C688 C 0.39096 0.43395 0.25138 0.0
C689 C 0.39262 0.45522 0.25095 0.0
C690 C 0.41369 0.4748 0.25114 0.0
H691 H 0.47669 0.4951 0.33659 0.0
H692 H 0.44769 0.47924 0.32201 0.0
H693 H 0.46766 0.47121 0.30741 0.0
H694 H 0.44696 0.45087 0.25214 0.0
H695 H 0.40999 0.41644 0.25214 0.0
H696 H 0.99033 0.57619 0.74539 0.0
H697 H 0.99322 0.54199 0.74151 0.0
H698 H 0.92078 0.50154 0.7358 0.0
H699 H 0.91775 0.53551 0.73928 0.0
H700 H 0.97428 0.50431 0.78787 0.0
H701 H 0.94203 0.48028 0.64883 0.0
H702 H 0.95155 0.50809 0.66678 0.0
H703 H 0.92385 0.48527 0.67734 0.0
C704 C 0.97504 0.56 0.74319 0.0
C705 C 0.95382 0.55849 0.74245 0.0
C706 C 0.97672 0.54052 0.74098 0.0
C707 C 0.95723 0.51933 0.73774 0.0
C708 C 0.93604 0.51779 0.73749 0.0
H709 H 0.91664 0.37963 0.73717 0.0
H710 H 0.92037 0.41702 0.73596 0.0
C711 C 0.93434 0.5372 0.73971 0.0
C712 C 0.95883 0.49864 0.73567 0.0
H713 H 0.94351 0.45197 0.68425 0.0
C714 C 0.96784 0.49297 0.76506 0.0
C715 C 0.95045 0.48398 0.70579 0.0
C716 C 0.94162 0.48978 0.67273 0.0
C717 C 0.96777 0.47247 0.76604 0.0
C718 C 0.95873 0.4575 0.73662 0.0
C719 C 0.95032 0.46348 0.70681 0.0
C720 C 0.95683 0.43506 0.73695 0.0
C721 C 0.97652 0.46656 0.79908 0.0
C722 C 0.97613 0.43289 0.73746 0.0
C723 C 0.97405 0.41155 0.73816 0.0
C724 C 0.95263 0.39208 0.73823 0.0
C725 C 0.93336 0.39433 0.73721 0.0
C726 C 0.93545 0.41565 0.73648 0.0
H727 H 0.97875 0.47785 0.82205 0.0
H728 H 0.96488 0.44887 0.80732 0.0
H729 H 0.99312 0.4682 0.79296 0.0
H730 H 0.99277 0.4477 0.73725 0.0
H731 H 0.9892 0.4103 0.73879 0.0
H732 H 0.3762 0.91913 0.26757 0.0
H733 H 0.41285 0.92117 0.2688 0.0
H734 H 0.44621 0.99365 0.26251 0.0
H735 H 0.40955 0.99178 0.26172 0.0
H736 H 0.44555 0.94004 0.21465 0.0
H737 H 0.47894 0.98257 0.34591 0.0
H738 H 0.44945 0.96944 0.33417 0.0
H739 H 0.46924 -0.00349 0.31595 0.0
C740 C 0.39133 0.93552 0.26683 0.0
C741 C 0.39004 0.9553 0.26458 0.0
C742 C 0.41223 0.93665 0.26751 0.0
C743 C 0.43219 0.95756 0.26612 0.0
C744 C 0.43099 0.97738 0.26428 0.0
H745 H 0.57268 0.9905 0.25309 0.0
H746 H 0.53803 0.99265 0.2559 0.0
C747 C 0.41005 0.97627 0.26364 0.0
C748 C 0.45416 0.95839 0.26454 0.0
H749 H 0.50368 0.97635 0.30961 0.0
C750 C 0.45826 0.94795 0.23542 0.0
C751 C 0.47073 0.96891 0.29155 0.0
C752 C 0.4669 0.97986 0.32385 0.0
C753 C 0.4785 0.94767 0.23259 0.0
C754 C 0.49489 0.95776 0.25996 0.0
C755 C 0.49101 0.96859 0.28875 0.0
C756 C 0.51585 0.95659 0.25956 0.0
C757 C 0.48226 0.93674 0.20016 0.0
C758 C 0.51478 0.93565 0.26143 0.0
C759 C 0.53445 0.93436 0.25976 0.0
C760 C 0.55554 0.95403 0.25644 0.0
C761 C 0.55663 0.97506 0.25551 0.0
C762 C 0.53691 0.97633 0.25715 0.0
H763 H 0.47107 0.93531 0.17748 0.0
H764 H 0.50004 0.94641 0.19097 0.0
H765 H 0.47851 0.9195 0.20738 0.0
H766 H 0.4987 0.92026 0.26399 0.0
H767 H 0.53309 0.91793 0.26081 0.0
H768 H 0.5812 0.57775 0.73599 0.0
H769 H 0.54492 0.54247 0.73507 0.0
H770 H 0.57968 0.50459 0.73472 0.0
H771 H 0.61591 0.53964 0.73598 0.0
H772 H 0.52782 0.50605 0.68478 0.0
H773 H 0.53695 0.47958 0.82177 0.0
H774 H 0.5542 0.50806 0.80565 0.0
H775 H 0.56041 0.48648 0.79264 0.0
C776 C 0.58108 0.56189 0.73563 0.0
C777 C 0.60136 0.56142 0.73632 0.0
C778 C 0.56038 0.5418 0.73508 0.0
C779 C 0.55969 0.521 0.73542 0.0
C780 C 0.5799 0.5205 0.73514 0.0
H781 H 0.45931 0.38043 0.73777 0.0
H782 H 0.49362 0.41729 0.73489 0.0
C783 C 0.60057 0.54054 0.73569 0.0
C784 C 0.53786 0.49971 0.73628 0.0
H785 H 0.50698 0.45219 0.7861 0.0
C786 C 0.52313 0.49431 0.70701 0.0
C787 C 0.53185 0.48455 0.76543 0.0
C788 C 0.54656 0.48999 0.79833 0.0
C789 C 0.50278 0.47371 0.70558 0.0
C790 C 0.497 0.45837 0.73443 0.0
C791 C 0.51157 0.46397 0.76395 0.0
C792 C 0.47609 0.4362 0.73442 0.0
C793 C 0.48796 0.46822 0.67282 0.0
C794 C 0.45491 0.4347 0.73521 0.0
C795 C 0.43527 0.41366 0.73687 0.0
C796 C 0.43656 0.39384 0.73794 0.0
C797 C 0.4578 0.39541 0.73694 0.0
C798 C 0.4774 0.41643 0.73531 0.0
H799 H 0.4971 0.47946 0.64986 0.0
H800 H 0.48139 0.45046 0.66441 0.0
H801 H 0.47334 0.47035 0.67936 0.0
H802 H 0.45359 0.44981 0.73519 0.0
H803 H 0.41912 0.41294 0.73775 0.0
H804 H 0.12345 0.41026 0.25261 0.0
H805 H 0.15764 0.40745 0.25491 0.0
H806 H 0.11727 0.33495 0.25357 0.0
H807 H 0.08295 0.33759 0.25089 0.0
H808 H 0.16979 0.38501 0.30723 0.0
H809 H 0.16218 0.34984 0.16989 0.0
H810 H 0.14639 0.36311 0.18407 0.0
H811 H 0.13789 0.33493 0.19827 0.0
C812 C 0.12185 0.39372 0.25274 0.0
C813 C 0.10058 0.37414 0.25138 0.0
C814 C 0.14137 0.39216 0.25411 0.0
C815 C 0.13991 0.37101 0.25395 0.0
C816 C 0.11869 0.35141 0.2531 0.0
H817 H 0.24582 0.33578 0.25184 0.0
H818 H 0.20928 0.33413 0.25438 0.0
C819 C 0.09914 0.35296 0.25173 0.0
C820 C 0.16068 0.36959 0.25494 0.0
H821 H 0.1924 0.35375 0.20563 0.0
C822 C 0.17476 0.37815 0.28509 0.0
C823 C 0.16695 0.36052 0.22601 0.0
C824 C 0.1527 0.35172 0.19256 0.0
C825 C 0.19508 0.37796 0.28705 0.0
C826 C 0.20157 0.36932 0.25781 0.0
C827 C 0.18729 0.36035 0.22796 0.0
C828 C 0.22356 0.37027 0.25702 0.0
C829 C 0.20936 0.38687 0.32044 0.0
C830 C 0.24357 0.39116 0.2572 0.0
C831 C 0.26439 0.39216 0.25573 0.0
C832 C 0.26551 0.37228 0.25384 0.0
C833 C 0.24543 0.35136 0.25336 0.0
C834 C 0.22459 0.35038 0.25482 0.0
H835 H 0.19934 0.38703 0.34378 0.0
H836 H 0.21725 0.37661 0.32745 0.0
H837 H 0.22302 0.40443 0.31557 0.0
H838 H 0.24306 0.4067 0.25814 0.0
H839 H 0.27959 0.40851 0.25597 0.0
H840 H 0.90211 0.2467 0.74465 0.0
H841 H 0.86668 0.21074 0.74207 0.0
H842 H 0.82932 0.2459 0.74973 0.0
H843 H 0.86463 0.28193 0.75167 0.0
H844 H 0.83154 0.19182 0.79141 0.0
H845 H 0.80259 0.20682 0.66033 0.0
H846 H 0.83118 0.22389 0.67614 0.0
H847 H 0.80925 0.22855 0.69298 0.0
C848 C 0.88633 0.24675 0.7458 0.0
C849 C 0.88608 0.26708 0.74813 0.0
C850 C 0.86615 0.22623 0.74431 0.0
C851 C 0.84545 0.22576 0.74504 0.0
C852 C 0.84515 0.24599 0.74827 0.0
H853 H 0.70575 0.12085 0.74713 0.0
H854 H 0.74155 0.1565 0.7477 0.0
C855 C 0.86532 0.26652 0.74962 0.0
C856 C 0.82415 0.20404 0.74294 0.0
H857 H 0.77618 0.17468 0.6933 0.0
C858 C 0.81947 0.18798 0.76988 0.0
C859 C 0.80853 0.19918 0.71474 0.0
C860 C 0.81318 0.21542 0.6842 0.0
C861 C 0.79929 0.16728 0.76978 0.0
C862 C 0.78361 0.16251 0.74175 0.0
C863 C 0.7883 0.17851 0.71474 0.0
C864 C 0.7621 0.14102 0.74021 0.0
C865 C 0.79466 0.15087 0.80004 0.0
C866 C 0.76192 0.12067 0.73509 0.0
C867 C 0.74155 0.10032 0.7347 0.0
C868 C 0.72107 0.10008 0.73932 0.0
C869 C 0.72129 0.12055 0.74359 0.0
C870 C 0.74167 0.14089 0.74392 0.0
H871 H 0.80602 0.15903 0.82333 0.0
H872 H 0.77692 0.14325 0.80927 0.0
H873 H 0.79734 0.13708 0.79034 0.0
H874 H 0.77755 0.12054 0.73159 0.0
H875 H 0.74186 0.08479 0.73121 0.0
H876 H 0.57749 0.70736 0.23457 0.0
H877 H 0.5771 0.7428 0.23047 0.0
H878 H 0.64977 0.77972 0.22731 0.0
H879 H 0.65032 0.74436 0.23097 0.0
H880 H 0.59728 0.77846 0.27981 0.0
H881 H 0.63188 0.80592 0.14246 0.0
H882 H 0.6208 0.77733 0.15798 0.0
H883 H 0.64856 0.79889 0.17114 0.0
C884 C 0.59338 0.72302 0.23266 0.0
C885 C 0.61394 0.72315 0.23303 0.0
C886 C 0.59312 0.7432 0.23032 0.0
C887 C 0.61339 0.76378 0.22812 0.0
C888 C 0.63394 0.76395 0.22826 0.0
H889 H 0.64951 0.90388 0.23329 0.0
H890 H 0.64912 0.868 0.23027 0.0
C891 C 0.63422 0.74377 0.23058 0.0
C892 C 0.61306 0.78513 0.22779 0.0
H893 H 0.6285 0.83267 0.17864 0.0
C894 C 0.60395 0.79026 0.25761 0.0
C895 C 0.6219 0.80045 0.19881 0.0
C896 C 0.63117 0.79535 0.16561 0.0
C897 C 0.60381 0.81059 0.25956 0.0
C898 C 0.61265 0.82593 0.23061 0.0
C899 C 0.62173 0.8208 0.20074 0.0
C900 C 0.61276 0.8475 0.23105 0.0
C901 C 0.59469 0.81573 0.29294 0.0
C902 C 0.59242 0.84774 0.23181 0.0
C903 C 0.59258 0.86814 0.23363 0.0
C904 C 0.61311 0.88861 0.23448 0.0
C905 C 0.63346 0.88834 0.2328 0.0
C906 C 0.63327 0.86791 0.23102 0.0
H907 H 0.59363 0.80487 0.31588 0.0
H908 H 0.60539 0.83364 0.30094 0.0
H909 H 0.57747 0.81268 0.28741 0.0
H910 H 0.57643 0.83212 0.2312 0.0
H911 H 0.57665 0.86787 0.23465 0.0
H912 H 0.8665 0.58242 0.74476 0.0
H913 H 0.83164 0.58402 0.74746 0.0
H914 H 0.87035 0.65656 0.75241 0.0
H915 H 0.9053 0.65515 0.74929 0.0
H916 H 0.81815 0.6035 0.80222 0.0
H917 H 0.82579 0.64386 0.66944 0.0
H918 H 0.84225 0.63091 0.68147 0.0
H919 H 0.84991 0.6584 0.69829 0.0
C920 C 0.86757 0.59871 0.74621 0.0
C921 C 0.88857 0.61867 0.74663 0.0
C922 C 0.84768 0.59958 0.74783 0.0
C923 C 0.8485 0.62041 0.7497 0.0
C924 C 0.86942 0.64036 0.75033 0.0
H925 H 0.74453 0.65735 0.7582 0.0
H926 H 0.78035 0.65756 0.76013 0.0
C927 C 0.88933 0.63951 0.74868 0.0
C928 C 0.8274 0.62119 0.75172 0.0
H929 H 0.79591 0.63925 0.70697 0.0
C930 C 0.81322 0.61127 0.7814 0.0
C931 C 0.82117 0.63141 0.72451 0.0
C932 C 0.83545 0.6416 0.69144 0.0
C933 C 0.79294 0.61145 0.78476 0.0
C934 C 0.78664 0.62153 0.75742 0.0
C935 C 0.80091 0.63161 0.7279 0.0
C936 C 0.765 0.62128 0.75835 0.0
C937 C 0.77858 0.60115 0.8177 0.0
C938 C 0.74461 0.60078 0.75663 0.0
C939 C 0.72416 0.6006 0.75552 0.0
C940 C 0.72384 0.62093 0.7559 0.0
C941 C 0.74429 0.64143 0.75793 0.0
C942 C 0.76473 0.64159 0.75901 0.0
H943 H 0.78841 0.5995 0.84008 0.0
H944 H 0.77113 0.61139 0.82707 0.0
H945 H 0.76459 0.58405 0.81099 0.0
H946 H 0.74453 0.58496 0.75541 0.0
H947 H 0.70865 0.58457 0.75382 0.0
H948 H 0.28369 0.86971 0.24075 0.0
H949 H 0.24825 0.83373 0.2391 0.0
H950 H 0.21096 0.86905 0.24445 0.0
H951 H 0.24627 0.90506 0.24547 0.0
H952 H 0.21514 0.81726 0.29141 0.0
H953 H 0.18076 0.82566 0.16101 0.0
H954 H 0.2099 0.84355 0.17356 0.0
H955 H 0.18858 0.849 0.19082 0.0
C956 C 0.26793 0.8698 0.24118 0.0
C957 C 0.26769 0.89014 0.24315 0.0
C958 C 0.24774 0.84927 0.24026 0.0
C959 C 0.22704 0.8488 0.24117 0.0
C960 C 0.22677 0.8691 0.24293 0.0
H961 H 0.08715 0.74614 0.25838 0.0
H962 H 0.12343 0.78125 0.2566 0.0
C963 C 0.24694 0.88963 0.24372 0.0
C964 C 0.20574 0.82704 0.24227 0.0
H965 H 0.15547 0.79576 0.19924 0.0
C966 C 0.20215 0.81244 0.27113 0.0
C967 C 0.18887 0.82091 0.21576 0.0
C968 C 0.19225 0.83549 0.18335 0.0
C969 C 0.18184 0.79203 0.27466 0.0
C970 C 0.16489 0.78605 0.24839 0.0
C971 C 0.16854 0.80054 0.21938 0.0
C972 C 0.14318 0.7648 0.25053 0.0
C973 C 0.17846 0.7773 0.30688 0.0
C974 C 0.1424 0.74403 0.24759 0.0
C975 C 0.12175 0.72398 0.24864 0.0
C976 C 0.10159 0.72445 0.25246 0.0
C977 C 0.10244 0.74529 0.25551 0.0
C978 C 0.1231 0.76532 0.25443 0.0
H979 H 0.19087 0.78662 0.32849 0.0
H980 H 0.1612 0.77039 0.31795 0.0
H981 H 0.18057 0.76291 0.29859 0.0
H982 H 0.15774 0.74335 0.24398 0.0
H983 H 0.12157 0.70815 0.24603 0.0
H984 H 0.41176 0.28326 0.75142 0.0
H985 H 0.41011 0.24683 0.75504 0.0
H986 H 0.33788 0.21346 0.76709 0.0
H987 H 0.33933 0.24982 0.76308 0.0
H988 H 0.39248 0.21443 0.81121 0.0
H989 H 0.34738 0.18069 0.68181 0.0
H990 H 0.36093 0.21021 0.69325 0.0
H991 H 0.33411 0.19068 0.71254 0.0
C992 C 0.39552 0.26816 0.7548 0.0
C993 C 0.37565 0.26932 0.75675 0.0
C994 C 0.39462 0.24741 0.75692 0.0
C995 C 0.37386 0.22752 0.76086 0.0
C996 C 0.35402 0.22864 0.76342 0.0
H997 H 0.33857 0.08693 0.76719 0.0
H998 H 0.33782 0.12223 0.77011 0.0
C999 C 0.35489 0.24939 0.76127 0.0
C1000 C 0.37305 0.20562 0.76236 0.0
H1001 H 0.3539 0.15599 0.71744 0.0
C1002 C 0.38405 0.20162 0.79075 0.0
C1003 C 0.36198 0.18903 0.73561 0.0
C1004 C 0.35057 0.19284 0.70388 0.0
C1005 C 0.38421 0.18129 0.79322 0.0
C1006 C 0.37338 0.16481 0.76623 0.0
C1007 C 0.36215 0.16871 0.73808 0.0
C1008 C 0.374 0.14359 0.76609 0.0
C1009 C 0.39572 0.17752 0.82484 0.0
C1010 C 0.39459 0.14403 0.76264 0.0
C1011 C 0.39508 0.12394 0.76098 0.0
C1012 C 0.37495 0.10313 0.7625 0.0
C1013 C 0.35435 0.10275 0.76601 0.0
C1014 C 0.35388 0.12285 0.76768 0.0
H1015 H 0.3978 0.18888 0.84761 0.0
H1016 H 0.38608 0.1598 0.83431 0.0
H1017 H 0.41273 0.18103 0.81656 0.0
H1018 H 0.41025 0.1599 0.76062 0.0
H1019 H 0.41119 0.12471 0.7581 0.0
loop_
_geom_bond_atom_site_label_1
_geom_bond_atom_site_label_2
_geom_bond_distance
_geom_bond_site_symmetry_2
_ccdc_geom_bond_type
In0 O1 2.294 . S
In0 O2 2.326 . S
In0 O6 2.266 . S
In0 O7 2.326 . S
In0 O8 2.266 . S
In0 O9 2.326 . S
In0 O11 2.294 . S
In0 O12 2.326 . S
O1 In0 2.294 . S
O1 C10 1.240 . S
O2 In0 2.326 . S
O2 C10 1.252 . S
C3 O6 1.252 . S
C3 O7 1.260 . S
C4 O11 1.240 . S
C4 O12 1.252 . S
C5 O8 1.252 . S
C5 O9 1.260 . S
O6 In0 2.266 . S
O6 C3 1.252 . S
O7 In0 2.326 . S
O7 C3 1.260 . S
O8 In0 2.266 . S
O8 C5 1.252 . S
O9 In0 2.326 . S
O9 C5 1.260 . S
C10 O1 1.240 . S
C10 O2 1.252 . S
O11 In0 2.294 . S
O11 C4 1.240 . S
O12 In0 2.326 . S
O12 C4 1.252 . S
In13 O14 2.294 . S
In13 O15 2.326 . S
In13 O19 2.266 . S
In13 O20 2.326 . S
In13 O21 2.266 . S
In13 O22 2.326 . S
In13 O24 2.294 . S
In13 O25 2.326 . S
O14 In13 2.294 . S
O14 C23 1.240 . S
O15 In13 2.326 . S
O15 C23 1.252 . S
C16 O19 1.252 . S
C16 O20 1.260 . S
C17 O24 1.240 . S
C17 O25 1.252 . S
C18 O21 1.252 . S
C18 O22 1.260 . S
O19 In13 2.266 . S
O19 C16 1.252 . S
O20 In13 2.326 . S
O20 C16 1.260 . S
O21 In13 2.266 . S
O21 C18 1.252 . S
O22 In13 2.326 . S
O22 C18 1.260 . S
C23 O14 1.240 . S
C23 O15 1.252 . S
O24 In13 2.294 . S
O24 C17 1.240 . S
O25 In13 2.326 . S
O25 C17 1.252 . S
In26 O27 2.294 . S
In26 O28 2.326 . S
In26 O32 2.266 . S
In26 O33 2.326 . S
In26 O34 2.266 . S
In26 O35 2.326 . S
In26 O37 2.294 . S
In26 O38 2.326 . S
O27 In26 2.294 . S
O27 C36 1.240 . S
O28 In26 2.326 . S
O28 C36 1.252 . S
C29 O32 1.252 . S
C29 O33 1.260 . S
C30 O37 1.240 . S
C30 O38 1.252 . S
C31 O34 1.252 . S
C31 O35 1.260 . S
O32 In26 2.266 . S
O32 C29 1.252 . S
O33 In26 2.326 . S
O33 C29 1.260 . S
O34 In26 2.266 . S
O34 C31 1.252 . S
O35 In26 2.326 . S
O35 C31 1.260 . S
C36 O27 1.240 . S
C36 O28 1.252 . S
O37 In26 2.294 . S
O37 C30 1.240 . S
O38 In26 2.326 . S
O38 C30 1.252 . S
In39 O40 2.294 . S
In39 O41 2.326 . S
In39 O45 2.266 . S
In39 O46 2.326 . S
In39 O47 2.266 . S
In39 O48 2.326 . S
In39 O50 2.294 . S
In39 O51 2.326 . S
O40 In39 2.294 . S
O40 C49 1.240 . S
O41 In39 2.326 . S
O41 C49 1.252 . S
C42 O45 1.252 . S
C42 O46 1.260 . S
C43 O50 1.240 . S
C43 O51 1.252 . S
C44 O47 1.252 . S
C44 O48 1.260 . S
O45 In39 2.266 . S
O45 C42 1.252 . S
O46 In39 2.326 . S
O46 C42 1.260 . S
O47 In39 2.266 . S
O47 C44 1.252 . S
O48 In39 2.326 . S
O48 C44 1.260 . S
C49 O40 1.240 . S
C49 O41 1.252 . S
O50 In39 2.294 . S
O50 C43 1.240 . S
O51 In39 2.326 . S
O51 C43 1.252 . S
In52 O53 2.294 . S
In52 O54 2.326 . S
In52 O58 2.266 . S
In52 O59 2.326 . S
In52 O60 2.266 . S
In52 O61 2.326 . S
In52 O63 2.294 . S
In52 O64 2.326 . S
O53 In52 2.294 . S
O53 C62 1.240 . S
O54 In52 2.326 . S
O54 C62 1.252 . S
C55 O58 1.252 . S
C55 O59 1.260 . S
C56 O63 1.240 . S
C56 O64 1.252 . S
C57 O60 1.252 . S
C57 O61 1.260 . S
O58 In52 2.266 . S
O58 C55 1.252 . S
O59 In52 2.326 . S
O59 C55 1.260 . S
O60 In52 2.266 . S
O60 C57 1.252 . S
O61 In52 2.326 . S
O61 C57 1.260 . S
C62 O53 1.240 . S
C62 O54 1.252 . S
O63 In52 2.294 . S
O63 C56 1.240 . S
O64 In52 2.326 . S
O64 C56 1.252 . S
In65 O66 2.294 . S
In65 O67 2.326 . S
In65 O71 2.266 . S
In65 O72 2.326 . S
In65 O73 2.266 . S
In65 O74 2.326 . S
In65 O76 2.294 . S
In65 O77 2.326 . S
O66 In65 2.294 . S
O66 C75 1.240 . S
O67 In65 2.326 . S
O67 C75 1.252 . S
C68 O71 1.252 . S
C68 O72 1.260 . S
C69 O76 1.240 . S
C69 O77 1.252 . S
C70 O73 1.252 . S
C70 O74 1.260 . S
O71 In65 2.266 . S
O71 C68 1.252 . S
O72 In65 2.326 . S
O72 C68 1.260 . S
O73 In65 2.266 . S
O73 C70 1.252 . S
O74 In65 2.326 . S
O74 C70 1.260 . S
C75 O66 1.240 . S
C75 O67 1.252 . S
O76 In65 2.294 . S
O76 C69 1.240 . S
O77 In65 2.326 . S
O77 C69 1.252 . S
In78 O79 2.294 . S
In78 O80 2.326 . S
In78 O84 2.266 . S
In78 O85 2.326 . S
In78 O86 2.266 . S
In78 O87 2.326 . S
In78 O89 2.294 . S
In78 O90 2.326 . S
O79 In78 2.294 . S
O79 C88 1.240 . S
O80 In78 2.326 . S
O80 C88 1.252 . S
C81 O84 1.252 . S
C81 O85 1.260 . S
C82 O89 1.240 . S
C82 O90 1.252 . S
C83 O86 1.252 . S
C83 O87 1.260 . S
O84 In78 2.266 . S
O84 C81 1.252 . S
O85 In78 2.326 . S
O85 C81 1.260 . S
O86 In78 2.266 . S
O86 C83 1.252 . S
O87 In78 2.326 . S
O87 C83 1.260 . S
C88 O79 1.240 . S
C88 O80 1.252 . S
O89 In78 2.294 . S
O89 C82 1.240 . S
O90 In78 2.326 . S
O90 C82 1.252 . S
In91 O92 2.294 . S
In91 O93 2.326 . S
In91 O97 2.266 . S
In91 O98 2.326 . S
In91 O99 2.266 . S
In91 O100 2.326 . S
In91 O102 2.294 . S
In91 O103 2.326 . S
O92 In91 2.294 . S
O92 C101 1.240 . S
O93 In91 2.326 . S
O93 C101 1.252 . S
C94 O97 1.252 . S
C94 O98 1.260 . S
C95 O102 1.240 . S
C95 O103 1.252 . S
C96 O99 1.252 . S
C96 O100 1.260 . S
O97 In91 2.266 . S
O97 C94 1.252 . S
O98 In91 2.326 . S
O98 C94 1.260 . S
O99 In91 2.266 . S
O99 C96 1.252 . S
O100 In91 2.326 . S
O100 C96 1.260 . S
C101 O92 1.240 . S
C101 O93 1.252 . S
O102 In91 2.294 . S
O102 C95 1.240 . S
O103 In91 2.326 . S
O103 C95 1.252 . S
In104 O105 2.294 . S
In104 O106 2.326 . S
In104 O110 2.266 . S
In104 O111 2.326 . S
In104 O112 2.266 . S
In104 O113 2.326 . S
In104 O115 2.294 . S
In104 O116 2.326 . S
O105 In104 2.294 . S
O105 C114 1.240 . S
O106 In104 2.326 . S
O106 C114 1.252 . S
C107 O110 1.252 . S
C107 O111 1.260 . S
C108 O115 1.240 . S
C108 O116 1.252 . S
C109 O112 1.252 . S
C109 O113 1.260 . S
O110 In104 2.266 . S
O110 C107 1.252 . S
O111 In104 2.326 . S
O111 C107 1.260 . S
O112 In104 2.266 . S
O112 C109 1.252 . S
O113 In104 2.326 . S
O113 C109 1.260 . S
C114 O105 1.240 . S
C114 O106 1.252 . S
O115 In104 2.294 . S
O115 C108 1.240 . S
O116 In104 2.326 . S
O116 C108 1.252 . S
In117 O118 2.294 . S
In117 O119 2.326 . S
In117 O123 2.266 . S
In117 O124 2.326 . S
In117 O125 2.266 . S
In117 O126 2.326 . S
In117 O128 2.294 . S
In117 O129 2.326 . S
O118 In117 2.294 . S
O118 C127 1.240 . S
O119 In117 2.326 . S
O119 C127 1.252 . S
C120 O123 1.252 . S
C120 O124 1.260 . S
C121 O128 1.240 . S
C121 O129 1.252 . S
C122 O125 1.252 . S
C122 O126 1.260 . S
O123 In117 2.266 . S
O123 C120 1.252 . S
O124 In117 2.326 . S
O124 C120 1.260 . S
O125 In117 2.266 . S
O125 C122 1.252 . S
O126 In117 2.326 . S
O126 C122 1.260 . S
C127 O118 1.240 . S
C127 O119 1.252 . S
O128 In117 2.294 . S
O128 C121 1.240 . S
O129 In117 2.326 . S
O129 C121 1.252 . S
In130 O131 2.294 . S
In130 O132 2.326 . S
In130 O136 2.266 . S
In130 O137 2.326 . S
In130 O138 2.266 . S
In130 O139 2.326 . S
In130 O141 2.294 . S
In130 O142 2.326 . S
O131 In130 2.294 . S
O131 C140 1.240 . S
O132 In130 2.326 . S
O132 C140 1.252 . S
C133 O136 1.252 . S
C133 O137 1.260 . S
C134 O141 1.240 . S
C134 O142 1.252 . S
C135 O138 1.252 . S
C135 O139 1.260 . S
O136 In130 2.266 . S
O136 C133 1.252 . S
O137 In130 2.326 . S
O137 C133 1.260 . S
O138 In130 2.266 . S
O138 C135 1.252 . S
O139 In130 2.326 . S
O139 C135 1.260 . S
C140 O131 1.240 . S
C140 O132 1.252 . S
O141 In130 2.294 . S
O141 C134 1.240 . S
O142 In130 2.326 . S
O142 C134 1.252 . S
In143 O144 2.294 . S
In143 O145 2.326 . S
In143 O149 2.266 . S
In143 O150 2.326 . S
In143 O151 2.266 . S
In143 O152 2.326 . S
In143 O154 2.294 . S
In143 O155 2.326 . S
O144 In143 2.294 . S
O144 C153 1.240 . S
O145 In143 2.326 . S
O145 C153 1.252 . S
C146 O149 1.252 . S
C146 O150 1.260 . S
C147 O154 1.240 . S
C147 O155 1.252 . S
C148 O151 1.252 . S
C148 O152 1.260 . S
O149 In143 2.266 . S
O149 C146 1.252 . S
O150 In143 2.326 . S
O150 C146 1.260 . S
O151 In143 2.266 . S
O151 C148 1.252 . S
O152 In143 2.326 . S
O152 C148 1.260 . S
C153 O144 1.240 . S
C153 O145 1.252 . S
O154 In143 2.294 . S
O154 C147 1.240 . S
O155 In143 2.326 . S
O155 C147 1.252 . S
H156 C164 0.939 . S
H157 C166 0.930 . S
H158 C168 0.930 . S
H159 C171 0.929 . S
H160 C174 0.930 . S
H161 C176 0.975 1_655 S
H162 C176 0.960 1_655 S
H163 C176 0.960 . S
C164 H156 0.939 . S
C164 C165 1.366 1_655 S
C164 C166 1.386 . S
C165 C164 1.366 1_455 S
C165 C171 1.390 . S
C166 H157 0.930 . S
C166 C164 1.386 . S
C166 C167 1.372 1_655 S
C167 C166 1.372 1_455 S
C167 C168 1.400 . S
C167 C172 1.490 . S
C168 H158 0.930 . S
C168 C167 1.400 . S
C168 C171 1.386 . S
H169 C185 0.978 . S
H170 C186 0.931 . S
C171 H159 0.929 . S
C171 C165 1.390 . S
C171 C168 1.386 . S
C172 C167 1.490 . S
C172 C174 1.395 . S
C172 C175 1.392 . S
H173 C179 0.930 . S
C174 H160 0.930 . S
C174 C172 1.395 . S
C174 C177 1.403 1_454 S
C175 C172 1.392 . S
C175 C176 1.542 . S
C175 C179 1.393 1_454 S
C176 H161 0.975 1_455 S
C176 H162 0.960 1_455 S
C176 H163 0.960 . S
C176 C175 1.542 . S
C177 C174 1.403 1_656 S
C177 C178 1.392 . S
C177 C181 1.495 . S
C178 C177 1.392 . S
C178 C179 1.385 . S
C178 C180 1.478 . S
C179 H173 0.930 . S
C179 C175 1.393 1_656 S
C179 C178 1.385 . S
C180 C178 1.478 . S
C180 C182 1.381 . S
C180 C186 1.383 1_655 S
C181 C177 1.495 . S
C181 H187 0.959 . S
C181 H188 0.961 1_655 S
C181 H189 0.960 . S
C182 C180 1.381 . S
C182 C183 1.394 . S
C182 H190 0.930 . S
C183 C182 1.394 . S
C183 C184 1.383 . S
C183 H191 0.929 . S
C184 C183 1.383 . S
C184 C185 1.321 1_655 S
C185 H169 0.978 . S
C185 C184 1.321 1_455 S
C185 C186 1.389 . S
C186 H170 0.931 . S
C186 C180 1.383 1_455 S
C186 C185 1.389 . S
H187 C181 0.959 . S
H188 C181 0.961 1_455 S
H189 C181 0.960 . S
H190 C182 0.930 . S
H191 C183 0.929 . S
H192 C200 0.929 1_545 S
H193 C202 0.953 . S
H194 C204 0.930 . S
H195 C207 0.929 . S
H196 C210 0.930 . S
H197 C212 0.960 . S
H198 C212 0.960 . S
H199 C212 1.006 . S
C200 H192 0.929 1_565 S
C200 C201 1.377 . S
C200 C202 1.379 1_565 S
C201 C200 1.377 . S
C201 C207 1.390 . S
C202 H193 0.953 . S
C202 C200 1.379 1_545 S
C202 C203 1.354 1_545 S
C203 C202 1.354 1_565 S
C203 C204 1.400 . S
C203 C208 1.490 . S
C204 H194 0.930 . S
C204 C203 1.400 . S
C204 C207 1.386 . S
H205 C221 0.930 1_565 S
H206 C222 0.931 . S
C207 H195 0.929 . S
C207 C201 1.390 . S
C207 C204 1.386 . S
C208 C203 1.490 . S
C208 C210 1.395 . S
C208 C211 1.403 1_565 S
H209 C215 0.930 . S
C210 H196 0.930 . S
C210 C208 1.395 . S
C210 C213 1.403 . S
C211 C208 1.403 1_545 S
C211 C212 1.524 . S
C211 C215 1.400 . S
C212 H197 0.960 . S
C212 H198 0.960 . S
C212 H199 1.006 . S
C212 C211 1.524 . S
C213 C210 1.403 . S
C213 C214 1.392 1_565 S
C213 C217 1.495 . S
C214 C213 1.392 1_545 S
C214 C215 1.385 . S
C214 C216 1.478 . S
C215 H209 0.930 . S
C215 C211 1.400 . S
C215 C214 1.385 . S
C216 C214 1.478 . S
C216 C218 1.381 . S
C216 C222 1.383 1_545 S
C217 C213 1.495 . S
C217 H223 0.959 . S
C217 H224 0.961 . S
C217 H225 0.926 1_565 S
C218 C216 1.381 . S
C218 C219 1.394 . S
C218 H226 0.930 . S
C219 C218 1.394 . S
C219 C220 1.383 . S
C219 H227 0.929 . S
C220 C219 1.383 . S
C220 C221 1.377 . S
C221 H205 0.930 1_545 S
C221 C220 1.377 . S
C221 C222 1.379 1_545 S
C222 H206 0.931 . S
C222 C216 1.383 1_565 S
C222 C221 1.379 1_565 S
H223 C217 0.959 . S
H224 C217 0.961 . S
H225 C217 0.926 1_545 S
H226 C218 0.930 . S
H227 C219 0.929 . S
H228 C236 0.929 . S
H229 C238 0.930 . S
H230 C240 0.930 . S
H231 C243 0.929 . S
H232 C246 0.930 . S
H233 C248 0.960 . S
H234 C248 0.960 . S
H235 C248 0.960 . S
C236 H228 0.929 . S
C236 C237 1.377 . S
C236 C238 1.384 . S
C237 C236 1.377 . S
C237 C243 1.390 . S
C238 H229 0.930 . S
C238 C236 1.384 . S
C238 C239 1.372 . S
C239 C238 1.372 . S
C239 C240 1.400 . S
C239 C244 1.490 . S
C240 H230 0.930 . S
C240 C239 1.400 . S
C240 C243 1.386 . S
H241 C257 0.930 . S
H242 C258 0.931 . S
C243 H231 0.929 . S
C243 C237 1.390 . S
C243 C240 1.386 . S
C244 C239 1.490 . S
C244 C246 1.395 . S
C244 C247 1.403 . S
H245 C251 0.930 . S
C246 H232 0.930 . S
C246 C244 1.395 . S
C246 C249 1.403 1_554 S
C247 C244 1.403 . S
C247 C248 1.524 . S
C247 C251 1.400 1_554 S
C248 H233 0.960 . S
C248 H234 0.960 . S
C248 H235 0.960 . S
C248 C247 1.524 . S
C249 C246 1.403 1_556 S
C249 C250 1.392 . S
C249 C253 1.495 . S
C250 C249 1.392 . S
C250 C251 1.385 . S
C250 C252 1.478 . S
C251 H245 0.930 . S
C251 C247 1.400 1_556 S
C251 C250 1.385 . S
C252 C250 1.478 . S
C252 C254 1.381 . S
C252 C258 1.383 . S
C253 C249 1.495 . S
C253 H259 0.959 . S
C253 H260 0.961 . S
C253 H261 0.960 . S
C254 C252 1.381 . S
C254 C255 1.394 . S
C254 H262 0.930 . S
C255 C254 1.394 . S
C255 C256 1.383 . S
C255 H263 0.929 . S
C256 C255 1.383 . S
C256 C257 1.377 . S
C257 H241 0.930 . S
C257 C256 1.377 . S
C257 C258 1.379 . S
C258 H242 0.931 . S
C258 C252 1.383 . S
C258 C257 1.379 . S
H259 C253 0.959 . S
H260 C253 0.961 . S
H261 C253 0.960 . S
H262 C254 0.930 . S
H263 C255 0.929 . S
H264 C272 0.929 . S
H265 C274 0.930 . S
H266 C276 0.930 . S
H267 C279 0.929 . S
H268 C282 0.930 . S
H269 C284 0.960 . S
H270 C284 0.960 . S
H271 C284 0.960 . S
C272 H264 0.929 . S
C272 C273 1.377 . S
C272 C274 1.384 . S
C273 C272 1.377 . S
C273 C279 1.390 . S
C274 H265 0.930 . S
C274 C272 1.384 . S
C274 C275 1.372 . S
C275 C274 1.372 . S
C275 C276 1.400 . S
C275 C280 1.490 . S
C276 H266 0.930 . S
C276 C275 1.400 . S
C276 C279 1.386 . S
H277 C293 0.930 . S
H278 C294 0.931 . S
C279 H267 0.929 . S
C279 C273 1.390 . S
C279 C276 1.386 . S
C280 C275 1.490 . S
C280 C282 1.395 1_455 S
C280 C283 1.403 . S
H281 C287 0.930 . S
C282 H268 0.930 . S
C282 C280 1.395 1_655 S
C282 C285 1.403 . S
C283 C280 1.403 . S
C283 C284 1.524 . S
C283 C287 1.400 . S
C284 H269 0.960 . S
C284 H270 0.960 . S
C284 H271 0.960 . S
C284 C283 1.524 . S
C285 C282 1.403 . S
C285 C286 1.392 . S
C285 C289 1.495 . S
C286 C285 1.392 . S
C286 C287 1.385 1_655 S
C286 C288 1.478 . S
C287 H281 0.930 . S
C287 C283 1.400 . S
C287 C286 1.385 1_455 S
C288 C286 1.478 . S
C288 C290 1.381 . S
C288 C294 1.383 . S
C289 C285 1.495 . S
C289 H295 0.959 . S
C289 H296 0.961 . S
C289 H297 0.960 . S
C290 C288 1.381 . S
C290 C291 1.394 . S
C290 H298 0.930 . S
C291 C290 1.394 . S
C291 C292 1.383 . S
C291 H299 0.929 . S
C292 C291 1.383 . S
C292 C293 1.377 . S
C293 H277 0.930 . S
C293 C292 1.377 . S
C293 C294 1.379 . S
C294 H278 0.931 . S
C294 C288 1.383 . S
C294 C293 1.379 . S
H295 C289 0.959 . S
H296 C289 0.961 . S
H297 C289 0.960 . S
H298 C290 0.930 . S
H299 C291 0.929 . S
H300 C308 0.929 . S
H301 C310 0.930 . S
H302 C312 0.930 . S
H303 C315 0.929 . S
H304 C318 0.930 . S
H305 C320 0.960 . S
H306 C320 0.960 . S
H307 C320 0.960 . S
C308 H300 0.929 . S
C308 C309 1.377 . S
C308 C310 1.384 . S
C309 C308 1.377 . S
C309 C315 1.390 . S
C310 H301 0.930 . S
C310 C308 1.384 . S
C310 C311 1.372 . S
C311 C310 1.372 . S
C311 C312 1.400 . S
C311 C316 1.490 . S
C312 H302 0.930 . S
C312 C311 1.400 . S
C312 C315 1.386 . S
H313 C329 0.930 . S
H314 C330 0.931 . S
C315 H303 0.929 . S
C315 C309 1.390 . S
C315 C312 1.386 . S
C316 C311 1.490 . S
C316 C318 1.395 . S
C316 C319 1.403 1_545 S
H317 C323 0.930 . S
C318 H304 0.930 . S
C318 C316 1.395 . S
C318 C321 1.403 1_556 S
C319 C316 1.403 1_565 S
C319 C320 1.524 . S
C319 C323 1.400 1_556 S
C320 H305 0.960 . S
C320 H306 0.960 . S
C320 H307 0.960 . S
C320 C319 1.524 . S
C321 C318 1.403 1_554 S
C321 C322 1.358 1_545 S
C321 C325 1.495 . S
C322 C321 1.358 1_565 S
C322 C323 1.413 . S
C322 C324 1.488 . S
C323 H317 0.930 . S
C323 C319 1.400 1_554 S
C323 C322 1.413 . S
C324 C322 1.488 . S
C324 C326 1.381 . S
C324 C330 1.383 . S
C325 C321 1.495 . S
C325 H331 0.959 . S
C325 H332 0.961 . S
C325 H333 0.960 . S
C326 C324 1.381 . S
C326 C327 1.394 . S
C326 H334 0.930 . S
C327 C326 1.394 . S
C327 C328 1.383 . S
C327 H335 0.929 . S
C328 C327 1.383 . S
C328 C329 1.377 . S
C329 H313 0.930 . S
C329 C328 1.377 . S
C329 C330 1.379 . S
C330 H314 0.931 . S
C330 C324 1.383 . S
C330 C329 1.379 . S
H331 C325 0.959 . S
H332 C325 0.961 . S
H333 C325 0.960 . S
H334 C326 0.930 . S
H335 C327 0.929 . S
H336 C344 0.929 . S
H337 C346 0.930 . S
H338 C348 0.930 . S
H339 C351 0.929 . S
H340 C354 0.930 . S
H341 C356 0.960 . S
H342 C356 0.960 . S
H343 C356 0.960 . S
C344 H336 0.929 . S
C344 C345 1.377 . S
C344 C346 1.384 . S
C345 C344 1.377 . S
C345 C351 1.390 . S
C346 H337 0.930 . S
C346 C344 1.384 . S
C346 C347 1.372 . S
C347 C346 1.372 . S
C347 C348 1.400 . S
C347 C352 1.490 . S
C348 H338 0.930 . S
C348 C347 1.400 . S
C348 C351 1.386 . S
H349 C365 0.930 . S
H350 C366 0.931 . S
C351 H339 0.929 . S
C351 C345 1.390 . S
C351 C348 1.386 . S
C352 C347 1.490 . S
C352 C354 1.395 . S
C352 C355 1.403 . S
H353 C359 0.930 . S
C354 H340 0.930 . S
C354 C352 1.395 . S
C354 C357 1.403 . S
C355 C352 1.403 . S
C355 C356 1.524 . S
C355 C359 1.400 . S
C356 H341 0.960 . S
C356 H342 0.960 . S
C356 H343 0.960 . S
C356 C355 1.524 . S
C357 C354 1.403 . S
C357 C358 1.392 . S
C357 C361 1.495 . S
C358 C357 1.392 . S
C358 C359 1.385 . S
C358 C360 1.478 . S
C359 H353 0.930 . S
C359 C355 1.400 . S
C359 C358 1.385 . S
C360 C358 1.478 . S
C360 C362 1.381 . S
C360 C366 1.383 . S
C361 C357 1.495 . S
C361 H367 0.959 . S
C361 H368 0.961 . S
C361 H369 0.960 . S
C362 C360 1.381 . S
C362 C363 1.394 . S
C362 H370 0.930 . S
C363 C362 1.394 . S
C363 C364 1.383 . S
C363 H371 0.929 . S
C364 C363 1.383 . S
C364 C365 1.377 . S
C365 H349 0.930 . S
C365 C364 1.377 . S
C365 C366 1.379 . S
C366 H350 0.931 . S
C366 C360 1.383 . S
C366 C365 1.379 . S
H367 C361 0.959 . S
H368 C361 0.961 . S
H369 C361 0.960 . S
H370 C362 0.930 . S
H371 C363 0.929 . S
H372 C380 0.929 . S
H373 C382 0.930 . S
H374 C384 0.930 . S
H375 C387 0.929 . S
H376 C390 0.930 . S
H377 C392 0.960 . S
H378 C392 0.960 . S
H379 C392 0.960 1_655 S
C380 H372 0.929 . S
C380 C381 1.377 1_455 S
C380 C382 1.384 . S
C381 C380 1.377 1_655 S
C381 C387 1.390 . S
C382 H373 0.930 . S
C382 C380 1.384 . S
C382 C383 1.372 1_455 S
C383 C382 1.372 1_655 S
C383 C384 1.400 . S
C383 C388 1.490 . S
C384 H374 0.930 . S
C384 C383 1.400 . S
C384 C387 1.386 . S
H385 C401 0.930 . S
H386 C402 0.931 . S
C387 H375 0.929 . S
C387 C381 1.390 . S
C387 C384 1.386 . S
C388 C383 1.490 . S
C388 C390 1.395 . S
C388 C391 1.403 1_655 S
H389 C395 0.930 . S
C390 H376 0.930 . S
C390 C388 1.395 . S
C390 C393 1.403 1_556 S
C391 C388 1.403 1_455 S
C391 C392 1.524 . S
C391 C395 1.400 1_556 S
C392 H377 0.960 . S
C392 H378 0.960 . S
C392 H379 0.960 1_455 S
C392 C391 1.524 . S
C393 C390 1.403 1_554 S
C393 C394 1.392 1_655 S
C393 C397 1.495 . S
C394 C393 1.392 1_455 S
C394 C395 1.385 . S
C394 C396 1.478 . S
C395 H389 0.930 . S
C395 C391 1.400 1_554 S
C395 C394 1.385 . S
C396 C394 1.478 . S
C396 C398 1.381 . S
C396 C402 1.383 1_455 S
C397 C393 1.495 . S
C397 H403 0.959 . S
C397 H404 0.961 . S
C397 H405 0.960 1_655 S
C398 C396 1.381 . S
C398 C399 1.394 . S
C398 H406 0.930 . S
C399 C398 1.394 . S
C399 C400 1.383 . S
C399 H407 0.929 . S
C400 C399 1.383 . S
C400 C401 1.377 1_455 S
C401 H385 0.930 . S
C401 C400 1.377 1_655 S
C401 C402 1.379 . S
C402 H386 0.931 . S
C402 C396 1.383 1_655 S
C402 C401 1.379 . S
H403 C397 0.959 . S
H404 C397 0.961 . S
H405 C397 0.960 1_455 S
H406 C398 0.930 . S
H407 C399 0.929 . S
H408 C416 0.929 . S
H409 C418 0.930 . S
H410 C420 0.930 . S
H411 C423 0.929 . S
H412 C426 0.930 . S
H413 C428 0.960 . S
H414 C428 0.960 . S
H415 C428 0.960 . S
C416 H408 0.929 . S
C416 C417 1.377 1_545 S
C416 C418 1.384 . S
C417 C416 1.377 1_565 S
C417 C423 1.390 . S
C418 H409 0.930 . S
C418 C416 1.384 . S
C418 C419 1.372 1_545 S
C419 C418 1.372 1_565 S
C419 C420 1.400 . S
C419 C424 1.490 . S
C420 H410 0.930 . S
C420 C419 1.400 . S
C420 C423 1.386 . S
H421 C437 0.930 . S
H422 C438 0.931 . S
C423 H411 0.929 . S
C423 C417 1.390 . S
C423 C420 1.386 . S
C424 C419 1.490 . S
C424 C426 1.395 1_565 S
C424 C427 1.403 . S
H425 C431 0.930 . S
C426 H412 0.930 . S
C426 C424 1.395 1_545 S
C426 C429 1.403 . S
C427 C424 1.403 . S
C427 C428 1.524 . S
C427 C431 1.400 . S
C428 H413 0.960 . S
C428 H414 0.960 . S
C428 H415 0.960 . S
C428 C427 1.524 . S
C429 C426 1.403 . S
C429 C430 1.392 . S
C429 C433 1.495 . S
C430 C429 1.392 . S
C430 C431 1.385 1_545 S
C430 C432 1.478 . S
C431 H425 0.930 . S
C431 C427 1.400 . S
C431 C430 1.385 1_565 S
C432 C430 1.478 . S
C432 C434 1.381 . S
C432 C438 1.383 1_545 S
C433 C429 1.495 . S
C433 H439 0.959 . S
C433 H440 0.961 . S
C433 H441 0.960 . S
C434 C432 1.381 . S
C434 C435 1.394 . S
C434 H442 0.930 . S
C435 C434 1.394 . S
C435 C436 1.383 . S
C435 H443 0.929 . S
C436 C435 1.383 . S
C436 C437 1.377 1_545 S
C437 H421 0.930 . S
C437 C436 1.377 1_565 S
C437 C438 1.379 . S
C438 H422 0.931 . S
C438 C432 1.383 1_565 S
C438 C437 1.379 . S
H439 C433 0.959 . S
H440 C433 0.961 . S
H441 C433 0.960 . S
H442 C434 0.930 . S
H443 C435 0.929 . S
H444 C452 0.929 . S
H445 C454 0.930 . S
H446 C456 0.930 . S
H447 C459 0.929 . S
H448 C462 0.930 . S
H449 C464 0.960 . S
H450 C464 0.960 . S
H451 C464 0.960 . S
C452 H444 0.929 . S
C452 C453 1.377 . S
C452 C454 1.384 . S
C453 C452 1.377 . S
C453 C459 1.390 . S
C454 H445 0.930 . S
C454 C452 1.384 . S
C454 C455 1.372 . S
C455 C454 1.372 . S
C455 C456 1.400 . S
C455 C460 1.490 . S
C456 H446 0.930 . S
C456 C455 1.400 . S
C456 C459 1.386 . S
H457 C473 0.930 . S
H458 C474 0.931 . S
C459 H447 0.929 . S
C459 C453 1.390 . S
C459 C456 1.386 . S
C460 C455 1.490 . S
C460 C462 1.395 . S
C460 C463 1.403 . S
H461 C467 0.930 . S
C462 H448 0.930 . S
C462 C460 1.395 . S
C462 C465 1.403 1_556 S
C463 C460 1.403 . S
C463 C464 1.524 . S
C463 C467 1.400 1_556 S
C464 H449 0.960 . S
C464 H450 0.960 . S
C464 H451 0.960 . S
C464 C463 1.524 . S
C465 C462 1.403 1_554 S
C465 C466 1.392 . S
C465 C469 1.495 . S
C466 C465 1.392 . S
C466 C467 1.385 . S
C466 C468 1.478 . S
C467 H461 0.930 . S
C467 C463 1.400 1_554 S
C467 C466 1.385 . S
C468 C466 1.478 . S
C468 C470 1.381 . S
C468 C474 1.383 . S
C469 C465 1.495 . S
C469 H475 0.959 . S
C469 H476 0.961 . S
C469 H477 0.960 . S
C470 C468 1.381 . S
C470 C471 1.394 . S
C470 H478 0.930 . S
C471 C470 1.394 . S
C471 C472 1.383 . S
C471 H479 0.929 . S
C472 C471 1.383 . S
C472 C473 1.377 . S
C473 H457 0.930 . S
C473 C472 1.377 . S
C473 C474 1.379 . S
C474 H458 0.931 . S
C474 C468 1.383 . S
C474 C473 1.379 . S
H475 C469 0.959 . S
H476 C469 0.961 . S
H477 C469 0.960 . S
H478 C470 0.930 . S
H479 C471 0.929 . S
H480 C488 0.929 . S
H481 C490 0.930 . S
H482 C492 0.930 . S
H483 C495 0.929 . S
H484 C498 0.930 . S
H485 C500 0.960 . S
H486 C500 0.960 . S
H487 C500 0.960 . S
C488 H480 0.929 . S
C488 C489 1.377 . S
C488 C490 1.384 . S
C489 C488 1.377 . S
C489 C495 1.390 1_655 S
C490 H481 0.930 . S
C490 C488 1.384 . S
C490 C491 1.372 . S
C491 C490 1.372 . S
C491 C492 1.400 1_655 S
C491 C496 1.490 . S
C492 H482 0.930 . S
C492 C491 1.400 1_455 S
C492 C495 1.386 . S
H493 C509 0.930 . S
H494 C510 0.931 . S
C495 H483 0.929 . S
C495 C489 1.390 1_455 S
C495 C492 1.386 . S
C496 C491 1.490 . S
C496 C498 1.395 . S
C496 C499 1.403 1_655 S
H497 C503 0.930 . S
C498 H484 0.930 . S
C498 C496 1.395 . S
C498 C501 1.403 . S
C499 C496 1.403 1_455 S
C499 C500 1.524 . S
C499 C503 1.400 . S
C500 H485 0.960 . S
C500 H486 0.960 . S
C500 H487 0.960 . S
C500 C499 1.524 . S
C501 C498 1.403 . S
C501 C502 1.386 1_655 S
C501 C505 1.495 . S
C502 C501 1.386 1_455 S
C502 C503 1.390 . S
C502 C504 1.479 . S
C503 H497 0.930 . S
C503 C499 1.400 . S
C503 C502 1.390 . S
C504 C502 1.479 . S
C504 C506 1.381 1_455 S
C504 C510 1.383 . S
C505 C501 1.495 . S
C505 H511 0.959 . S
C505 H512 0.961 . S
C505 H513 0.960 . S
C506 C504 1.381 1_655 S
C506 C507 1.394 . S
C506 H514 0.930 . S
C507 C506 1.394 . S
C507 C508 1.383 1_655 S
C507 H515 0.929 . S
C508 C507 1.383 1_455 S
C508 C509 1.377 . S
C509 H493 0.930 . S
C509 C508 1.377 . S
C509 C510 1.379 . S
C510 H494 0.931 . S
C510 C504 1.383 . S
C510 C509 1.379 . S
H511 C505 0.959 . S
H512 C505 0.961 . S
H513 C505 0.960 . S
H514 C506 0.930 . S
H515 C507 0.929 . S
H516 C524 0.929 . S
H517 C526 0.930 . S
H518 C528 0.930 . S
H519 C531 0.929 1_565 S
H520 C534 0.930 . S
H521 C536 0.960 . S
H522 C536 0.960 . S
H523 C536 0.960 . S
C524 H516 0.929 . S
C524 C525 1.377 . S
C524 C526 1.384 . S
C525 C524 1.377 . S
C525 C531 1.390 . S
C526 H517 0.930 . S
C526 C524 1.384 . S
C526 C527 1.372 . S
C527 C526 1.372 . S
C527 C528 1.400 1_545 S
C527 C532 1.490 . S
C528 H518 0.930 . S
C528 C527 1.400 1_565 S
C528 C531 1.386 1_565 S
H529 C545 0.930 . S
H530 C546 0.931 . S
C531 H519 0.929 1_545 S
C531 C525 1.390 . S
C531 C528 1.386 1_545 S
C532 C527 1.490 . S
C532 C534 1.395 . S
C532 C535 1.403 1_545 S
H533 C539 0.930 . S
C534 H520 0.930 . S
C534 C532 1.395 . S
C534 C537 1.403 1_556 S
C535 C532 1.403 1_565 S
C535 C536 1.524 . S
C535 C539 1.400 1_556 S
C536 H521 0.960 . S
C536 H522 0.960 . S
C536 H523 0.960 . S
C536 C535 1.524 . S
C537 C534 1.403 1_554 S
C537 C538 1.429 . S
C537 C541 1.495 . S
C538 C537 1.429 . S
C538 C539 1.352 1_545 S
C538 C540 1.473 1_545 S
C539 H533 0.930 . S
C539 C535 1.400 1_554 S
C539 C538 1.352 1_565 S
C540 C538 1.473 1_565 S
C540 C542 1.381 1_565 S
C540 C546 1.383 . S
C541 C537 1.495 . S
C541 H547 0.959 . S
C541 H548 0.961 . S
C541 H549 0.960 . S
C542 C540 1.381 1_545 S
C542 C543 1.394 1_545 S
C542 H550 0.930 . S
C543 C542 1.394 1_565 S
C543 C544 1.383 . S
C543 H551 0.929 1_565 S
C544 C543 1.383 . S
C544 C545 1.377 . S
C545 H529 0.930 . S
C545 C544 1.377 . S
C545 C546 1.379 . S
C546 H530 0.931 . S
C546 C540 1.383 . S
C546 C545 1.379 . S
H547 C541 0.959 . S
H548 C541 0.961 . S
H549 C541 0.960 . S
H550 C542 0.930 . S
H551 C543 0.929 1_545 S
H552 C560 0.929 . S
H553 C562 0.930 . S
H554 C564 0.930 . S
H555 C567 0.929 . S
H556 C570 0.930 . S
H557 C572 0.960 . S
H558 C572 0.960 . S
H559 C572 0.960 . S
C560 H552 0.929 . S
C560 C561 1.377 . S
C560 C562 1.384 . S
C561 C560 1.377 . S
C561 C567 1.390 . S
C562 H553 0.930 . S
C562 C560 1.384 . S
C562 C563 1.372 . S
C563 C562 1.372 . S
C563 C564 1.400 . S
C563 C568 1.490 . S
C564 H554 0.930 . S
C564 C563 1.400 . S
C564 C567 1.386 . S
H565 C581 0.930 . S
H566 C582 0.931 . S
C567 H555 0.929 . S
C567 C561 1.390 . S
C567 C564 1.386 . S
C568 C563 1.490 . S
C568 C570 1.395 . S
C568 C571 1.403 . S
H569 C575 0.930 . S
C570 H556 0.930 . S
C570 C568 1.395 . S
C570 C573 1.403 . S
C571 C568 1.403 . S
C571 C572 1.524 . S
C571 C575 1.400 . S
C572 H557 0.960 . S
C572 H558 0.960 . S
C572 H559 0.960 . S
C572 C571 1.524 . S
C573 C570 1.403 . S
C573 C574 1.392 . S
C573 C577 1.495 . S
C574 C573 1.392 . S
C574 C575 1.385 . S
C574 C576 1.478 . S
C575 H569 0.930 . S
C575 C571 1.400 . S
C575 C574 1.385 . S
C576 C574 1.478 . S
C576 C578 1.381 . S
C576 C582 1.383 . S
C577 C573 1.495 . S
C577 H583 0.959 . S
C577 H584 0.961 . S
C577 H585 0.960 . S
C578 C576 1.381 . S
C578 C579 1.394 . S
C578 H586 0.930 . S
C579 C578 1.394 . S
C579 C580 1.383 . S
C579 H587 0.929 . S
C580 C579 1.383 . S
C580 C581 1.377 . S
C581 H565 0.930 . S
C581 C580 1.377 . S
C581 C582 1.379 . S
C582 H566 0.931 . S
C582 C576 1.383 . S
C582 C581 1.379 . S
H583 C577 0.959 . S
H584 C577 0.961 . S
H585 C577 0.960 . S
H586 C578 0.930 . S
H587 C579 0.929 . S
H588 C596 0.929 1_655 S
H589 C598 0.930 1_655 S
H590 C600 0.930 . S
H591 C603 0.929 . S
H592 C606 0.930 . S
H593 C608 0.960 . S
H594 C608 0.960 . S
H595 C608 0.960 . S
C596 H588 0.929 1_455 S
C596 C597 1.377 . S
C596 C598 1.384 . S
C597 C596 1.377 . S
C597 C603 1.390 . S
C598 H589 0.930 1_455 S
C598 C596 1.384 . S
C598 C599 1.372 . S
C599 C598 1.372 . S
C599 C600 1.400 . S
C599 C604 1.490 . S
C600 H590 0.930 . S
C600 C599 1.400 . S
C600 C603 1.386 . S
H601 C617 0.930 . S
H602 C618 0.931 . S
C603 H591 0.929 . S
C603 C597 1.390 . S
C603 C600 1.386 . S
C604 C599 1.490 . S
C604 C606 1.395 . S
C604 C607 1.403 . S
H605 C611 0.930 . S
C606 H592 0.930 . S
C606 C604 1.395 . S
C606 C609 1.403 . S
C607 C604 1.403 . S
C607 C608 1.524 . S
C607 C611 1.400 . S
C608 H593 0.960 . S
C608 H594 0.960 . S
C608 H595 0.960 . S
C608 C607 1.524 . S
C609 C606 1.403 . S
C609 C610 1.392 . S
C609 C613 1.495 . S
C610 C609 1.392 . S
C610 C611 1.385 . S
C610 C612 1.478 . S
C611 H605 0.930 . S
C611 C607 1.400 . S
C611 C610 1.385 . S
C612 C610 1.478 . S
C612 C614 1.381 . S
C612 C618 1.383 . S
C613 C609 1.495 . S
C613 H619 0.959 . S
C613 H620 0.961 . S
C613 H621 0.944 1_455 S
C614 C612 1.381 . S
C614 C615 1.394 . S
C614 H622 0.930 1_455 S
C615 C614 1.394 . S
C615 C616 1.383 . S
C615 H623 0.929 1_455 S
C616 C615 1.383 . S
C616 C617 1.377 . S
C617 H601 0.930 . S
C617 C616 1.377 . S
C617 C618 1.379 . S
C618 H602 0.931 . S
C618 C612 1.383 . S
C618 C617 1.379 . S
H619 C613 0.959 . S
H620 C613 0.961 . S
H621 C613 0.944 1_655 S
H622 C614 0.930 1_655 S
H623 C615 0.929 1_655 S
H624 C632 0.929 . S
H625 C634 0.930 . S
H626 C636 0.920 1_565 S
H627 C639 0.929 1_565 S
H628 C642 0.930 . S
H629 C644 0.960 . S
H630 C644 0.960 . S
H631 C644 0.960 . S
C632 H624 0.929 . S
C632 C633 1.377 . S
C632 C634 1.384 . S
C633 C632 1.377 . S
C633 C639 1.390 . S
C634 H625 0.930 . S
C634 C632 1.384 . S
C634 C635 1.372 . S
C635 C634 1.372 . S
C635 C636 1.400 . S
C635 C640 1.490 . S
C636 H626 0.920 1_545 S
C636 C635 1.400 . S
C636 C639 1.386 . S
H637 C653 0.902 1_565 S
H638 C654 0.950 . S
C639 H627 0.929 1_545 S
C639 C633 1.390 . S
C639 C636 1.386 . S
C640 C635 1.490 . S
C640 C642 1.395 . S
C640 C643 1.403 . S
H641 C647 0.930 . S
C642 H628 0.930 . S
C642 C640 1.395 . S
C642 C645 1.403 . S
C643 C640 1.403 . S
C643 C644 1.524 . S
C643 C647 1.400 . S
C644 H629 0.960 . S
C644 H630 0.960 . S
C644 H631 0.960 . S
C644 C643 1.524 . S
C645 C642 1.403 . S
C645 C646 1.392 . S
C645 C649 1.495 . S
C646 C645 1.392 . S
C646 C647 1.385 . S
C646 C648 1.478 . S
C647 H641 0.930 . S
C647 C643 1.400 . S
C647 C646 1.385 . S
C648 C646 1.478 . S
C648 C650 1.381 . S
C648 C654 1.383 . S
C649 C645 1.495 . S
C649 H655 0.959 . S
C649 H656 0.961 . S
C649 H657 0.960 . S
C650 C648 1.381 . S
C650 C651 1.394 . S
C650 H658 0.930 . S
C651 C650 1.394 . S
C651 C652 1.383 . S
C651 H659 0.929 . S
C652 C651 1.383 . S
C652 C653 1.377 . S
C653 H637 0.902 1_545 S
C653 C652 1.377 . S
C653 C654 1.379 . S
C654 H638 0.950 . S
C654 C648 1.383 . S
C654 C653 1.379 . S
H655 C649 0.959 . S
H656 C649 0.961 . S
H657 C649 0.960 . S
H658 C650 0.930 . S
H659 C651 0.929 . S
H660 C668 0.929 . S
H661 C670 0.930 . S
H662 C672 0.930 . S
H663 C675 0.929 . S
H664 C678 0.930 . S
H665 C680 0.960 . S
H666 C680 0.960 . S
H667 C680 0.960 . S
C668 H660 0.929 . S
C668 C669 1.377 . S
C668 C670 1.384 . S
C669 C668 1.377 . S
C669 C675 1.390 . S
C670 H661 0.930 . S
C670 C668 1.384 . S
C670 C671 1.372 . S
C671 C670 1.372 . S
C671 C672 1.400 . S
C671 C676 1.490 . S
C672 H662 0.930 . S
C672 C671 1.400 . S
C672 C675 1.386 . S
H673 C689 0.930 . S
H674 C690 0.931 . S
C675 H663 0.929 . S
C675 C669 1.390 . S
C675 C672 1.386 . S
C676 C671 1.490 . S
C676 C678 1.395 . S
C676 C679 1.403 . S
H677 C683 0.930 . S
C678 H664 0.930 . S
C678 C676 1.395 . S
C678 C681 1.403 . S
C679 C676 1.403 . S
C679 C680 1.524 . S
C679 C683 1.400 . S
C680 H665 0.960 . S
C680 H666 0.960 . S
C680 H667 0.960 . S
C680 C679 1.524 . S
C681 C678 1.403 . S
C681 C682 1.392 . S
C681 C685 1.495 . S
C682 C681 1.392 . S
C682 C683 1.385 . S
C682 C684 1.478 . S
C683 H677 0.930 . S
C683 C679 1.400 . S
C683 C682 1.385 . S
C684 C682 1.478 . S
C684 C686 1.381 . S
C684 C690 1.383 . S
C685 C681 1.495 . S
C685 H691 0.959 . S
C685 H692 0.961 . S
C685 H693 0.960 . S
C686 C684 1.381 . S
C686 C687 1.394 . S
C686 H694 0.930 . S
C687 C686 1.394 . S
C687 C688 1.383 . S
C687 H695 0.929 . S
C688 C687 1.383 . S
C688 C689 1.377 . S
C689 H673 0.930 . S
C689 C688 1.377 . S
C689 C690 1.379 . S
C690 H674 0.931 . S
C690 C684 1.383 . S
C690 C689 1.379 . S
H691 C685 0.959 . S
H692 C685 0.961 . S
H693 C685 0.960 . S
H694 C686 0.930 . S
H695 C687 0.929 . S
H696 C704 0.929 . S
H697 C706 0.930 . S
H698 C708 0.930 . S
H699 C711 0.929 . S
H700 C714 0.930 1_455 S
H701 C716 0.960 . S
H702 C716 0.960 . S
H703 C716 0.960 . S
C704 H696 0.929 . S
C704 C705 1.377 . S
C704 C706 1.384 . S
C705 C704 1.377 . S
C705 C711 1.390 . S
C706 H697 0.930 . S
C706 C704 1.384 . S
C706 C707 1.372 . S
C707 C706 1.372 . S
C707 C708 1.400 . S
C707 C712 1.490 . S
C708 H698 0.930 . S
C708 C707 1.400 . S
C708 C711 1.386 . S
H709 C725 0.930 . S
H710 C726 0.931 . S
C711 H699 0.929 . S
C711 C705 1.390 . S
C711 C708 1.386 . S
C712 C707 1.490 . S
C712 C714 1.395 . S
C712 C715 1.403 . S
H713 C719 0.930 . S
C714 H700 0.930 1_655 S
C714 C712 1.395 . S
C714 C717 1.403 . S
C715 C712 1.403 . S
C715 C716 1.524 . S
C715 C719 1.400 . S
C716 H701 0.960 . S
C716 H702 0.960 . S
C716 H703 0.960 . S
C716 C715 1.524 . S
C717 C714 1.403 . S
C717 C718 1.392 . S
C717 C721 1.495 1_655 S
C718 C717 1.392 . S
C718 C719 1.385 . S
C718 C720 1.478 . S
C719 H713 0.930 . S
C719 C715 1.400 . S
C719 C718 1.385 . S
C720 C718 1.478 . S
C720 C722 1.381 . S
C720 C726 1.383 . S
C721 C717 1.495 1_455 S
C721 H727 0.959 . S
C721 H728 0.961 . S
C721 H729 0.960 . S
C722 C720 1.381 . S
C722 C723 1.394 . S
C722 H730 0.930 . S
C723 C722 1.394 . S
C723 C724 1.383 . S
C723 H731 0.929 . S
C724 C723 1.383 . S
C724 C725 1.377 . S
C725 H709 0.930 . S
C725 C724 1.377 . S
C725 C726 1.379 . S
C726 H710 0.931 . S
C726 C720 1.383 . S
C726 C725 1.379 . S
H727 C721 0.959 . S
H728 C721 0.961 . S
H729 C721 0.960 . S
H730 C722 0.930 . S
H731 C723 0.929 . S
H732 C740 0.929 . S
H733 C742 0.930 . S
H734 C744 0.930 . S
H735 C747 0.929 . S
H736 C750 0.930 . S
H737 C752 0.960 . S
H738 C752 0.960 . S
H739 C752 0.960 . S
C740 H732 0.929 . S
C740 C741 1.377 . S
C740 C742 1.384 . S
C741 C740 1.377 . S
C741 C747 1.390 . S
C742 H733 0.930 . S
C742 C740 1.384 . S
C742 C743 1.372 . S
C743 C742 1.372 . S
C743 C744 1.400 . S
C743 C748 1.490 . S
C744 H734 0.930 . S
C744 C743 1.400 . S
C744 C747 1.386 . S
H745 C761 0.930 . S
H746 C762 0.931 . S
C747 H735 0.929 . S
C747 C741 1.390 . S
C747 C744 1.386 . S
C748 C743 1.490 . S
C748 C750 1.395 . S
C748 C751 1.403 . S
H749 C755 0.930 . S
C750 H736 0.930 . S
C750 C748 1.395 . S
C750 C753 1.403 . S
C751 C748 1.403 . S
C751 C752 1.524 1_565 S
C751 C755 1.400 . S
C752 H737 0.960 . S
C752 H738 0.960 . S
C752 H739 0.960 . S
C752 C751 1.524 1_545 S
C753 C750 1.403 . S
C753 C754 1.392 . S
C753 C757 1.495 . S
C754 C753 1.392 . S
C754 C755 1.385 . S
C754 C756 1.478 . S
C755 H749 0.930 . S
C755 C751 1.400 . S
C755 C754 1.385 . S
C756 C754 1.478 . S
C756 C758 1.381 . S
C756 C762 1.383 . S
C757 C753 1.495 . S
C757 H763 0.959 . S
C757 H764 0.961 . S
C757 H765 0.960 . S
C758 C756 1.381 . S
C758 C759 1.394 . S
C758 H766 0.930 . S
C759 C758 1.394 . S
C759 C760 1.383 . S
C759 H767 0.929 . S
C760 C759 1.383 . S
C760 C761 1.377 . S
C761 H745 0.930 . S
C761 C760 1.377 . S
C761 C762 1.379 . S
C762 H746 0.931 . S
C762 C756 1.383 . S
C762 C761 1.379 . S
H763 C757 0.959 . S
H764 C757 0.961 . S
H765 C757 0.960 . S
H766 C758 0.930 . S
H767 C759 0.929 . S
H768 C776 0.929 . S
H769 C778 0.930 . S
H770 C780 0.930 . S
H771 C783 0.929 . S
H772 C786 0.930 . S
H773 C788 0.960 . S
H774 C788 0.960 . S
H775 C788 0.960 . S
C776 H768 0.929 . S
C776 C777 1.377 . S
C776 C778 1.384 . S
C777 C776 1.377 . S
C777 C783 1.390 . S
C778 H769 0.930 . S
C778 C776 1.384 . S
C778 C779 1.372 . S
C779 C778 1.372 . S
C779 C780 1.400 . S
C779 C784 1.490 . S
C780 H770 0.930 . S
C780 C779 1.400 . S
C780 C783 1.386 . S
H781 C797 0.930 . S
H782 C798 0.931 . S
C783 H771 0.929 . S
C783 C777 1.390 . S
C783 C780 1.386 . S
C784 C779 1.490 . S
C784 C786 1.395 . S
C784 C787 1.403 . S
H785 C791 0.930 . S
C786 H772 0.930 . S
C786 C784 1.395 . S
C786 C789 1.403 . S
C787 C784 1.403 . S
C787 C788 1.524 . S
C787 C791 1.400 . S
C788 H773 0.960 . S
C788 H774 0.960 . S
C788 H775 0.960 . S
C788 C787 1.524 . S
C789 C786 1.403 . S
C789 C790 1.392 . S
C789 C793 1.495 . S
C790 C789 1.392 . S
C790 C791 1.385 . S
C790 C792 1.478 . S
C791 H785 0.930 . S
C791 C787 1.400 . S
C791 C790 1.385 . S
C792 C790 1.478 . S
C792 C794 1.381 . S
C792 C798 1.383 . S
C793 C789 1.495 . S
C793 H799 0.959 . S
C793 H800 0.961 . S
C793 H801 0.960 . S
C794 C792 1.381 . S
C794 C795 1.394 . S
C794 H802 0.930 . S
C795 C794 1.394 . S
C795 C796 1.383 . S
C795 H803 0.929 . S
C796 C795 1.383 . S
C796 C797 1.377 . S
C797 H781 0.930 . S
C797 C796 1.377 . S
C797 C798 1.379 . S
C798 H782 0.931 . S
C798 C792 1.383 . S
C798 C797 1.379 . S
H799 C793 0.959 . S
H800 C793 0.961 . S
H801 C793 0.960 . S
H802 C794 0.930 . S
H803 C795 0.929 . S
H804 C812 0.929 . S
H805 C814 0.930 . S
H806 C816 0.930 . S
H807 C819 0.929 . S
H808 C822 0.930 . S
H809 C824 0.960 . S
H810 C824 0.960 . S
H811 C824 0.960 . S
C812 H804 0.929 . S
C812 C813 1.377 . S
C812 C814 1.384 . S
C813 C812 1.377 . S
C813 C819 1.390 . S
C814 H805 0.930 . S
C814 C812 1.384 . S
C814 C815 1.372 . S
C815 C814 1.372 . S
C815 C816 1.400 . S
C815 C820 1.490 . S
C816 H806 0.930 . S
C816 C815 1.400 . S
C816 C819 1.386 . S
H817 C833 0.930 . S
H818 C834 0.931 . S
C819 H807 0.929 . S
C819 C813 1.390 . S
C819 C816 1.386 . S
C820 C815 1.490 . S
C820 C822 1.395 . S
C820 C823 1.403 . S
H821 C827 0.930 . S
C822 H808 0.930 . S
C822 C820 1.395 . S
C822 C825 1.403 . S
C823 C820 1.403 . S
C823 C824 1.524 . S
C823 C827 1.400 . S
C824 H809 0.960 . S
C824 H810 0.960 . S
C824 H811 0.960 . S
C824 C823 1.524 . S
C825 C822 1.403 . S
C825 C826 1.392 . S
C825 C829 1.495 . S
C826 C825 1.392 . S
C826 C827 1.385 . S
C826 C828 1.478 . S
C827 H821 0.930 . S
C827 C823 1.400 . S
C827 C826 1.385 . S
C828 C826 1.478 . S
C828 C830 1.381 . S
C828 C834 1.383 . S
C829 C825 1.495 . S
C829 H835 0.959 . S
C829 H836 0.961 . S
C829 H837 0.960 . S
C830 C828 1.381 . S
C830 C831 1.394 . S
C830 H838 0.930 . S
C831 C830 1.394 . S
C831 C832 1.383 . S
C831 H839 0.929 . S
C832 C831 1.383 . S
C832 C833 1.377 . S
C833 H817 0.930 . S
C833 C832 1.377 . S
C833 C834 1.379 . S
C834 H818 0.931 . S
C834 C828 1.383 . S
C834 C833 1.379 . S
H835 C829 0.959 . S
H836 C829 0.961 . S
H837 C829 0.960 . S
H838 C830 0.930 . S
H839 C831 0.929 . S
H840 C848 0.929 . S
H841 C850 0.930 . S
H842 C852 0.930 . S
H843 C855 0.929 . S
H844 C858 0.930 . S
H845 C860 0.960 . S
H846 C860 0.960 . S
H847 C860 0.960 . S
C848 H840 0.929 . S
C848 C849 1.377 . S
C848 C850 1.384 . S
C849 C848 1.377 . S
C849 C855 1.390 . S
C850 H841 0.930 . S
C850 C848 1.384 . S
C850 C851 1.372 . S
C851 C850 1.372 . S
C851 C852 1.400 . S
C851 C856 1.490 . S
C852 H842 0.930 . S
C852 C851 1.400 . S
C852 C855 1.386 . S
H853 C869 0.930 . S
H854 C870 0.931 . S
C855 H843 0.929 . S
C855 C849 1.390 . S
C855 C852 1.386 . S
C856 C851 1.490 . S
C856 C858 1.395 . S
C856 C859 1.403 . S
H857 C863 0.930 . S
C858 H844 0.930 . S
C858 C856 1.395 . S
C858 C861 1.403 . S
C859 C856 1.403 . S
C859 C860 1.524 . S
C859 C863 1.400 . S
C860 H845 0.960 . S
C860 H846 0.960 . S
C860 H847 0.960 . S
C860 C859 1.524 . S
C861 C858 1.403 . S
C861 C862 1.392 . S
C861 C865 1.495 . S
C862 C861 1.392 . S
C862 C863 1.385 . S
C862 C864 1.478 . S
C863 H857 0.930 . S
C863 C859 1.400 . S
C863 C862 1.385 . S
C864 C862 1.478 . S
C864 C866 1.381 . S
C864 C870 1.383 . S
C865 C861 1.495 . S
C865 H871 0.959 . S
C865 H872 0.961 . S
C865 H873 0.960 . S
C866 C864 1.381 . S
C866 C867 1.394 . S
C866 H874 0.930 . S
C867 C866 1.394 . S
C867 C868 1.383 . S
C867 H875 0.929 . S
C868 C867 1.383 . S
C868 C869 1.377 . S
C869 H853 0.930 . S
C869 C868 1.377 . S
C869 C870 1.379 . S
C870 H854 0.931 . S
C870 C864 1.383 . S
C870 C869 1.379 . S
H871 C865 0.959 . S
H872 C865 0.961 . S
H873 C865 0.960 . S
H874 C866 0.930 . S
H875 C867 0.929 . S
H876 C884 0.929 . S
H877 C886 0.930 . S
H878 C888 0.930 . S
H879 C891 0.929 . S
H880 C894 0.930 . S
H881 C896 0.960 . S
H882 C896 0.960 . S
H883 C896 0.960 . S
C884 H876 0.929 . S
C884 C885 1.377 . S
C884 C886 1.384 . S
C885 C884 1.377 . S
C885 C891 1.390 . S
C886 H877 0.930 . S
C886 C884 1.384 . S
C886 C887 1.372 . S
C887 C886 1.372 . S
C887 C888 1.400 . S
C887 C892 1.490 . S
C888 H878 0.930 . S
C888 C887 1.400 . S
C888 C891 1.386 . S
H889 C905 0.930 . S
H890 C906 0.931 . S
C891 H879 0.929 . S
C891 C885 1.390 . S
C891 C888 1.386 . S
C892 C887 1.490 . S
C892 C894 1.395 . S
C892 C895 1.403 . S
H893 C899 0.930 . S
C894 H880 0.930 . S
C894 C892 1.395 . S
C894 C897 1.403 . S
C895 C892 1.403 . S
C895 C896 1.524 . S
C895 C899 1.400 . S
C896 H881 0.960 . S
C896 H882 0.960 . S
C896 H883 0.960 . S
C896 C895 1.524 . S
C897 C894 1.403 . S
C897 C898 1.392 . S
C897 C901 1.495 . S
C898 C897 1.392 . S
C898 C899 1.385 . S
C898 C900 1.478 . S
C899 H893 0.930 . S
C899 C895 1.400 . S
C899 C898 1.385 . S
C900 C898 1.478 . S
C900 C902 1.381 . S
C900 C906 1.383 . S
C901 C897 1.495 . S
C901 H907 0.959 . S
C901 H908 0.961 . S
C901 H909 0.960 . S
C902 C900 1.381 . S
C902 C903 1.394 . S
C902 H910 0.930 . S
C903 C902 1.394 . S
C903 C904 1.383 . S
C903 H911 0.929 . S
C904 C903 1.383 . S
C904 C905 1.377 . S
C905 H889 0.930 . S
C905 C904 1.377 . S
C905 C906 1.379 . S
C906 H890 0.931 . S
C906 C900 1.383 . S
C906 C905 1.379 . S
H907 C901 0.959 . S
H908 C901 0.961 . S
H909 C901 0.960 . S
H910 C902 0.930 . S
H911 C903 0.929 . S
H912 C920 0.929 . S
H913 C922 0.930 . S
H914 C924 0.930 . S
H915 C927 0.929 . S
H916 C930 0.930 . S
H917 C932 0.960 . S
H918 C932 0.960 . S
H919 C932 0.960 . S
C920 H912 0.929 . S
C920 C921 1.377 . S
C920 C922 1.384 . S
C921 C920 1.377 . S
C921 C927 1.390 . S
C922 H913 0.930 . S
C922 C920 1.384 . S
C922 C923 1.372 . S
C923 C922 1.372 . S
C923 C924 1.400 . S
C923 C928 1.490 . S
C924 H914 0.930 . S
C924 C923 1.400 . S
C924 C927 1.386 . S
H925 C941 0.930 . S
H926 C942 0.931 . S
C927 H915 0.929 . S
C927 C921 1.390 . S
C927 C924 1.386 . S
C928 C923 1.490 . S
C928 C930 1.395 . S
C928 C931 1.403 . S
H929 C935 0.930 . S
C930 H916 0.930 . S
C930 C928 1.395 . S
C930 C933 1.403 . S
C931 C928 1.403 . S
C931 C932 1.524 . S
C931 C935 1.400 . S
C932 H917 0.960 . S
C932 H918 0.960 . S
C932 H919 0.960 . S
C932 C931 1.524 . S
C933 C930 1.403 . S
C933 C934 1.392 . S
C933 C937 1.495 . S
C934 C933 1.392 . S
C934 C935 1.385 . S
C934 C936 1.478 . S
C935 H929 0.930 . S
C935 C931 1.400 . S
C935 C934 1.385 . S
C936 C934 1.478 . S
C936 C938 1.381 . S
C936 C942 1.383 . S
C937 C933 1.495 . S
C937 H943 0.959 . S
C937 H944 0.961 . S
C937 H945 0.960 . S
C938 C936 1.381 . S
C938 C939 1.394 . S
C938 H946 0.930 . S
C939 C938 1.394 . S
C939 C940 1.383 . S
C939 H947 0.929 . S
C940 C939 1.383 . S
C940 C941 1.377 . S
C941 H925 0.930 . S
C941 C940 1.377 . S
C941 C942 1.379 . S
C942 H926 0.931 . S
C942 C936 1.383 . S
C942 C941 1.379 . S
H943 C937 0.959 . S
H944 C937 0.961 . S
H945 C937 0.960 . S
H946 C938 0.930 . S
H947 C939 0.929 . S
H948 C956 0.929 . S
H949 C958 0.930 . S
H950 C960 0.930 . S
H951 C963 0.929 . S
H952 C966 0.930 . S
H953 C968 0.960 . S
H954 C968 0.960 . S
H955 C968 0.960 . S
C956 H948 0.929 . S
C956 C957 1.377 . S
C956 C958 1.384 . S
C957 C956 1.377 . S
C957 C963 1.390 . S
C958 H949 0.930 . S
C958 C956 1.384 . S
C958 C959 1.372 . S
C959 C958 1.372 . S
C959 C960 1.400 . S
C959 C964 1.490 . S
C960 H950 0.930 . S
C960 C959 1.400 . S
C960 C963 1.386 . S
H961 C977 0.930 . S
H962 C978 0.931 . S
C963 H951 0.929 . S
C963 C957 1.390 . S
C963 C960 1.386 . S
C964 C959 1.490 . S
C964 C966 1.395 . S
C964 C967 1.403 . S
H965 C971 0.930 . S
C966 H952 0.930 . S
C966 C964 1.395 . S
C966 C969 1.403 . S
C967 C964 1.403 . S
C967 C968 1.524 . S
C967 C971 1.400 . S
C968 H953 0.960 . S
C968 H954 0.960 . S
C968 H955 0.960 . S
C968 C967 1.524 . S
C969 C966 1.403 . S
C969 C970 1.392 . S
C969 C973 1.495 . S
C970 C969 1.392 . S
C970 C971 1.385 . S
C970 C972 1.478 . S
C971 H965 0.930 . S
C971 C967 1.400 . S
C971 C970 1.385 . S
C972 C970 1.478 . S
C972 C974 1.381 . S
C972 C978 1.383 . S
C973 C969 1.495 . S
C973 H979 0.959 . S
C973 H980 0.961 . S
C973 H981 0.960 . S
C974 C972 1.381 . S
C974 C975 1.394 . S
C974 H982 0.930 . S
C975 C974 1.394 . S
C975 C976 1.383 . S
C975 H983 0.929 . S
C976 C975 1.383 . S
C976 C977 1.377 . S
C977 H961 0.930 . S
C977 C976 1.377 . S
C977 C978 1.379 . S
C978 H962 0.931 . S
C978 C972 1.383 . S
C978 C977 1.379 . S
H979 C973 0.959 . S
H980 C973 0.961 . S
H981 C973 0.960 . S
H982 C974 0.930 . S
H983 C975 0.929 . S
H984 C992 0.929 . S
H985 C994 0.930 . S
H986 C996 0.930 . S
H987 C999 0.929 . S
H988 C1002 0.930 . S
H989 C1004 0.960 . S
H990 C1004 0.960 . S
H991 C1004 0.960 . S
C992 H984 0.929 . S
C992 C993 1.377 . S
C992 C994 1.384 . S
C993 C992 1.377 . S
C993 C999 1.390 . S
C994 H985 0.930 . S
C994 C992 1.384 . S
C994 C995 1.372 . S
C995 C994 1.372 . S
C995 C996 1.400 . S
C995 C1000 1.490 . S
C996 H986 0.930 . S
C996 C995 1.400 . S
C996 C999 1.386 . S
H997 C1013 0.930 . S
H998 C1014 0.931 . S
C999 H987 0.929 . S
C999 C993 1.390 . S
C999 C996 1.386 . S
C1000 C995 1.490 . S
C1000 C1002 1.395 . S
C1000 C1003 1.403 . S
H1001 C1007 0.930 . S
C1002 H988 0.930 . S
C1002 C1000 1.395 . S
C1002 C1005 1.403 . S
C1003 C1000 1.403 . S
C1003 C1004 1.524 . S
C1003 C1007 1.400 . S
C1004 H989 0.960 . S
C1004 H990 0.960 . S
C1004 H991 0.960 . S
C1004 C1003 1.524 . S
C1005 C1002 1.403 . S
C1005 C1006 1.392 . S
C1005 C1009 1.495 . S
C1006 C1005 1.392 . S
C1006 C1007 1.385 . S
C1006 C1008 1.478 . S
C1007 H1001 0.930 . S
C1007 C1003 1.400 . S
C1007 C1006 1.385 . S
C1008 C1006 1.478 . S
C1008 C1010 1.381 . S
C1008 C1014 1.383 . S
C1009 C1005 1.495 . S
C1009 H1015 0.959 . S
C1009 H1016 0.961 . S
C1009 H1017 0.960 . S
C1010 C1008 1.381 . S
C1010 C1011 1.394 . S
C1010 H1018 0.930 . S
C1011 C1010 1.394 . S
C1011 C1012 1.383 . S
C1011 H1019 0.929 . S
C1012 C1011 1.383 . S
C1012 C1013 1.377 . S
C1013 H997 0.930 . S
C1013 C1012 1.377 . S
C1013 C1014 1.379 . S
C1014 H998 0.931 . S
C1014 C1008 1.383 . S
C1014 C1013 1.379 . S
H1015 C1009 0.959 . S
H1016 C1009 0.961 . S
H1017 C1009 0.960 . S
H1018 C1010 0.930 . S
H1019 C1011 0.929 . S
C165 C4 1.313 . S
C184 C153 1.297 . S
C201 C82 1.312 . S
C220 C17 1.301 . S
C237 C30 1.309 . S
C256 C95 1.319 . S
C273 C108 1.312 . S
C292 C43 1.304 . S
C309 C121 1.310 . S
C328 C62 1.312 . S
C345 C134 1.314 . S
C364 C75 1.295 . S
C381 C44 1.285 . S
C400 C109 1.290 . S
C417 C55 1.282 . S
C436 C122 1.276 . S
C453 C68 1.282 . S
C472 C135 1.283 . S
C489 C146 1.282 . S
C508 C5 1.283 . S
C525 C18 1.284 . S
C544 C83 1.293 . S
C561 C31 1.284 . S
C580 C96 1.287 . S
C597 C107 1.778 . S
C616 C3 1.770 . S
C633 C120 1.779 . S
C652 C16 1.779 . S
C669 C29 1.777 . S
C688 C133 1.774 . S
C705 C42 1.777 . S
C724 C148 1.777 . S
C741 C57 1.779 . S
C760 C81 1.771 . S
C777 C94 1.778 . S
C796 C70 1.770 . S
C813 C10 1.753 . S
C832 C140 1.755 . S
C849 C147 1.752 . S
C868 C23 1.757 . S
C885 C36 1.754 . S
C904 C88 1.746 . S
C921 C49 1.753 . S
C940 C101 1.754 . S
C957 C56 1.755 . S
C976 C114 1.742 . S
C993 C69 1.755 . S
C1012 C127 1.745 . S
