# Generated by pormake.
# Topology umk, (4)-cn, num edge types: 1
# Building blocks:
#     Node 0, Type 0, BuildingBlock: GALJAG_clean_sbu_0, # of connection points: 4
#     Node 1, Type 0, BuildingBlock: GALJAG_clean_sbu_0, # of connection points: 4
#     Node 2, Type 0, BuildingBlock: GALJAG_clean_sbu_0, # of connection points: 4
#     Node 3, Type 0, BuildingBlock: GALJAG_clean_sbu_0, # of connection points: 4
#     Node 4, Type 0, BuildingBlock: GALJAG_clean_sbu_0, # of connection points: 4
#     Node 5, Type 0, BuildingBlock: GALJAG_clean_sbu_0, # of connection points: 4
#     Node 6, Type 0, BuildingBlock: GALJAG_clean_sbu_0, # of connection points: 4
#     Node 7, Type 0, BuildingBlock: GALJAG_clean_sbu_0, # of connection points: 4
#     Node 8, Type 0, BuildingBlock: GALJAG_clean_sbu_0, # of connection points: 4
#     Node 9, Type 0, BuildingBlock: GALJAG_clean_sbu_0, # of connection points: 4
#     Node 10, Type 0, BuildingBlock: GALJAG_clean_sbu_0, # of connection points: 4
#     Node 11, Type 0, BuildingBlock: GALJAG_clean_sbu_0, # of connection points: 4
#     Node 12, Type 0, BuildingBlock: GALJAG_clean_sbu_0, # of connection points: 4
#     Node 13, Type 0, BuildingBlock: GALJAG_clean_sbu_0, # of connection points: 4
#     Node 14, Type 0, BuildingBlock: GALJAG_clean_sbu_0, # of connection points: 4
#     Node 15, Type 0, BuildingBlock: GALJAG_clean_sbu_0, # of connection points: 4
#     Node 16, Type 0, BuildingBlock: GALJAG_clean_sbu_0, # of connection points: 4
#     Node 17, Type 0, BuildingBlock: GALJAG_clean_sbu_0, # of connection points: 4
#     Node 18, Type 0, BuildingBlock: GALJAG_clean_sbu_0, # of connection points: 4
#     Node 19, Type 0, BuildingBlock: GALJAG_clean_sbu_0, # of connection points: 4
#     Node 20, Type 0, BuildingBlock: GALJAG_clean_sbu_0, # of connection points: 4
#     Node 21, Type 0, BuildingBlock: GALJAG_clean_sbu_0, # of connection points: 4
#     Node 22, Type 0, BuildingBlock: GALJAG_clean_sbu_0, # of connection points: 4
#     Node 23, Type 0, BuildingBlock: GALJAG_clean_sbu_0, # of connection points: 4
#     Edge 24, Type (0, 0), BuildingBlock: XUDNAN_clean_linker_2, # of connection points: 2
#     Edge 25, Type (0, 0), BuildingBlock: XUDNAN_clean_linker_2, # of connection points: 2
#     Edge 26, Type (0, 0), BuildingBlock: XUDNAN_clean_linker_2, # of connection points: 2
#     Edge 27, Type (0, 0), BuildingBlock: XUDNAN_clean_linker_2, # of connection points: 2
#     Edge 28, Type (0, 0), BuildingBlock: XUDNAN_clean_linker_2, # of connection points: 2
#     Edge 29, Type (0, 0), BuildingBlock: XUDNAN_clean_linker_2, # of connection points: 2
#     Edge 30, Type (0, 0), BuildingBlock: XUDNAN_clean_linker_2, # of connection points: 2
#     Edge 31, Type (0, 0), BuildingBlock: XUDNAN_clean_linker_2, # of connection points: 2
#     Edge 32, Type (0, 0), BuildingBlock: XUDNAN_clean_linker_2, # of connection points: 2
#     Edge 33, Type (0, 0), BuildingBlock: XUDNAN_clean_linker_2, # of connection points: 2
#     Edge 34, Type (0, 0), BuildingBlock: XUDNAN_clean_linker_2, # of connection points: 2
#     Edge 35, Type (0, 0), BuildingBlock: XUDNAN_clean_linker_2, # of connection points: 2
#     Edge 36, Type (0, 0), BuildingBlock: XUDNAN_clean_linker_2, # of connection points: 2
#     Edge 37, Type (0, 0), BuildingBlock: XUDNAN_clean_linker_2, # of connection points: 2
#     Edge 38, Type (0, 0), BuildingBlock: XUDNAN_clean_linker_2, # of connection points: 2
#     Edge 39, Type (0, 0), BuildingBlock: XUDNAN_clean_linker_2, # of connection points: 2
#     Edge 40, Type (0, 0), BuildingBlock: XUDNAN_clean_linker_2, # of connection points: 2
#     Edge 41, Type (0, 0), BuildingBlock: XUDNAN_clean_linker_2, # of connection points: 2
#     Edge 42, Type (0, 0), BuildingBlock: XUDNAN_clean_linker_2, # of connection points: 2
#     Edge 43, Type (0, 0), BuildingBlock: XUDNAN_clean_linker_2, # of connection points: 2
#     Edge 44, Type (0, 0), BuildingBlock: XUDNAN_clean_linker_2, # of connection points: 2
#     Edge 45, Type (0, 0), BuildingBlock: XUDNAN_clean_linker_2, # of connection points: 2
#     Edge 46, Type (0, 0), BuildingBlock: XUDNAN_clean_linker_2, # of connection points: 2
#     Edge 47, Type (0, 0), BuildingBlock: XUDNAN_clean_linker_2, # of connection points: 2
#     Edge 48, Type (0, 0), BuildingBlock: XUDNAN_clean_linker_2, # of connection points: 2
#     Edge 49, Type (0, 0), BuildingBlock: XUDNAN_clean_linker_2, # of connection points: 2
#     Edge 50, Type (0, 0), BuildingBlock: XUDNAN_clean_linker_2, # of connection points: 2
#     Edge 51, Type (0, 0), BuildingBlock: XUDNAN_clean_linker_2, # of connection points: 2
#     Edge 52, Type (0, 0), BuildingBlock: XUDNAN_clean_linker_2, # of connection points: 2
#     Edge 53, Type (0, 0), BuildingBlock: XUDNAN_clean_linker_2, # of connection points: 2
#     Edge 54, Type (0, 0), BuildingBlock: XUDNAN_clean_linker_2, # of connection points: 2
#     Edge 55, Type (0, 0), BuildingBlock: XUDNAN_clean_linker_2, # of connection points: 2
#     Edge 56, Type (0, 0), BuildingBlock: XUDNAN_clean_linker_2, # of connection points: 2
#     Edge 57, Type (0, 0), BuildingBlock: XUDNAN_clean_linker_2, # of connection points: 2
#     Edge 58, Type (0, 0), BuildingBlock: XUDNAN_clean_linker_2, # of connection points: 2
#     Edge 59, Type (0, 0), BuildingBlock: XUDNAN_clean_linker_2, # of connection points: 2
#     Edge 60, Type (0, 0), BuildingBlock: XUDNAN_clean_linker_2, # of connection points: 2
#     Edge 61, Type (0, 0), BuildingBlock: XUDNAN_clean_linker_2, # of connection points: 2
#     Edge 62, Type (0, 0), BuildingBlock: XUDNAN_clean_linker_2, # of connection points: 2
#     Edge 63, Type (0, 0), BuildingBlock: XUDNAN_clean_linker_2, # of connection points: 2
#     Edge 64, Type (0, 0), BuildingBlock: XUDNAN_clean_linker_2, # of connection points: 2
#     Edge 65, Type (0, 0), BuildingBlock: XUDNAN_clean_linker_2, # of connection points: 2
#     Edge 66, Type (0, 0), BuildingBlock: XUDNAN_clean_linker_2, # of connection points: 2
#     Edge 67, Type (0, 0), BuildingBlock: XUDNAN_clean_linker_2, # of connection points: 2
#     Edge 68, Type (0, 0), BuildingBlock: XUDNAN_clean_linker_2, # of connection points: 2
#     Edge 69, Type (0, 0), BuildingBlock: XUDNAN_clean_linker_2, # of connection points: 2
#     Edge 70, Type (0, 0), BuildingBlock: XUDNAN_clean_linker_2, # of connection points: 2
#     Edge 71, Type (0, 0), BuildingBlock: XUDNAN_clean_linker_2, # of connection points: 2
# Relax obj value: 0.088
# Max RMSD: 0.064
# Mean RMSD: 0.064
data_MOF--net-umk--node1-GALJAG_clean_sbu_0--edge1-XUDNAN_clean_linker_2
_symmetry_space_group_name_H-M    P1
_symmetry_Int_Tables_number       1
_symmetry_cell_setting            triclinic
loop_
_symmetry_equiv_pos_as_xyz
'x, y, z'
_cell_length_a     63.595135
_cell_length_b     63.595404
_cell_length_c     46.761296
_cell_angle_alpha  89.99163
_cell_angle_beta   90.00416
_cell_angle_gamma 119.96004
loop_
_atom_site_label
_atom_site_type_symbol
_atom_site_fract_x
_atom_site_fract_y
_atom_site_fract_z
_atom_type_partial_charge
In0 In 0.33627 0.472 0.09888 0.0
O1 O 0.30132 0.45513 0.07154 0.0
O2 O 0.32028 0.49322 0.07916 0.0
C3 C 0.3477 0.43652 0.1047 0.0
C4 C 0.37764 0.50674 0.07453 0.0
C5 C 0.32134 0.47354 0.15247 0.0
O6 O 0.33689 0.43781 0.08264 0.0
O7 O 0.35215 0.4526 0.12312 0.0
O8 O 0.34136 0.4899 0.14249 0.0
O9 O 0.30835 0.45691 0.13495 0.0
C10 C 0.30272 0.47542 0.06699 0.0
O11 O 0.37228 0.50777 0.1003 0.0
O12 O 0.36229 0.48814 0.06115 0.0
In13 In 0.85918 0.32905 0.59445 0.0
O14 O 0.8438 0.30652 0.55393 0.0
O15 O 0.83496 0.28754 0.59333 0.0
C16 C 0.90711 0.34484 0.58906 0.0
C17 C 0.84971 0.36101 0.56706 0.0
C18 C 0.849 0.32565 0.65136 0.0
O19 O 0.89103 0.32516 0.57817 0.0
O20 O 0.89899 0.35643 0.60264 0.0
O21 O 0.83962 0.33338 0.63345 0.0
O22 O 0.86325 0.31946 0.64059 0.0
C23 C 0.83248 0.28637 0.56651 0.0
O24 O 0.87096 0.36515 0.57186 0.0
O25 O 0.83318 0.34114 0.57704 0.0
In26 In 0.52948 0.86265 0.09626 0.0
O27 O 0.54817 0.84532 0.07088 0.0
O28 O 0.51144 0.82329 0.08462 0.0
C29 C 0.55947 0.91059 0.10422 0.0
C30 C 0.49779 0.86357 0.05881 0.0
C31 C 0.52707 0.84887 0.15117 0.0
O32 O 0.56582 0.89836 0.08869 0.0
O33 O 0.53856 0.89867 0.11491 0.0
O34 O 0.51046 0.85144 0.13967 0.0
O35 O 0.54451 0.85281 0.13483 0.0
C36 C 0.5292 0.82449 0.07107 0.0
O37 O 0.49215 0.85775 0.08474 0.0
O38 O 0.51933 0.86952 0.05238 0.0
In39 In 0.66995 0.53007 0.59159 0.0
O40 O 0.70248 0.55477 0.56308 0.0
O41 O 0.70553 0.52985 0.59078 0.0
C42 C 0.64407 0.55293 0.59822 0.0
C43 C 0.64397 0.4961 0.55163 0.0
C44 C 0.67538 0.5223 0.64704 0.0
O45 O 0.66597 0.56435 0.59011 0.0
O46 O 0.63572 0.53059 0.60236 0.0
O47 O 0.66515 0.50519 0.6291 0.0
O48 O 0.68315 0.54334 0.63686 0.0
C49 C 0.71528 0.54595 0.57179 0.0
O50 O 0.64186 0.49119 0.57801 0.0
O51 O 0.65922 0.51778 0.54564 0.0
In52 In 0.14103 0.67036 0.0978 0.0
O53 O 0.15159 0.70799 0.07996 0.0
O54 O 0.17729 0.696 0.07706 0.0
C55 C 0.09333 0.65066 0.10963 0.0
C56 C 0.13738 0.63743 0.05886 0.0
C57 C 0.1585 0.67694 0.15163 0.0
O58 O 0.10417 0.66876 0.09318 0.0
O59 O 0.10649 0.64282 0.1197 0.0
O60 O 0.16059 0.663 0.13404 0.0
O61 O 0.14857 0.6883 0.14162 0.0
C62 C 0.17227 0.71239 0.07148 0.0
O63 O 0.14707 0.63942 0.08304 0.0
O64 O 0.12959 0.65191 0.05455 0.0
In65 In 0.47093 0.13803 0.58792 0.0
O66 O 0.5122 0.15948 0.58168 0.0
O67 O 0.4919 0.12765 0.55687 0.0
C68 C 0.46895 0.14776 0.64398 0.0
C69 C 0.46154 0.16594 0.5525 0.0
C70 C 0.43816 0.0902 0.58997 0.0
O71 O 0.4853 0.1441 0.63403 0.0
O72 O 0.45417 0.14715 0.6256 0.0
O73 O 0.43284 0.10584 0.5816 0.0
O74 O 0.46006 0.09868 0.5972 0.0
C75 C 0.51244 0.14552 0.56266 0.0
O76 O 0.45195 0.14329 0.54946 0.0
O77 O 0.47565 0.17453 0.57364 0.0
In78 In 0.53418 0.66591 0.91649 0.0
O79 O 0.55163 0.70163 0.94243 0.0
O80 O 0.51354 0.68306 0.93414 0.0
C81 C 0.56689 0.65187 0.90561 0.0
C82 C 0.50572 0.63001 0.95281 0.0
C83 C 0.52995 0.67837 0.8626 0.0
O84 O 0.57151 0.66875 0.9233 0.0
O85 O 0.54631 0.64264 0.89393 0.0
O86 O 0.51402 0.65863 0.87379 0.0
O87 O 0.54739 0.6919 0.87892 0.0
C88 C 0.5314 0.70066 0.94626 0.0
O89 O 0.4983 0.63164 0.9282 0.0
O90 O 0.52736 0.64591 0.95831 0.0
In91 In 0.86114 0.52723 0.41458 0.0
O92 O 0.83541 0.48737 0.42688 0.0
O93 O 0.87223 0.50362 0.43975 0.0
C94 C 0.84809 0.52483 0.35884 0.0
C95 C 0.83782 0.54029 0.45286 0.0
C96 C 0.90882 0.56094 0.4109 0.0
O97 O 0.85374 0.51013 0.36962 0.0
O98 O 0.84862 0.54024 0.37619 0.0
O99 O 0.89294 0.56602 0.41889 0.0
O100 O 0.90064 0.53895 0.40447 0.0
C101 C 0.85139 0.48507 0.44025 0.0
O102 O 0.8293 0.5322 0.42835 0.0
O103 O 0.85812 0.54203 0.45785 0.0
In104 In 0.33429 0.86464 0.91215 0.0
O105 O 0.36237 0.85229 0.91282 0.0
O106 O 0.35767 0.8678 0.95083 0.0
C107 C 0.32602 0.85274 0.85564 0.0
C108 C 0.29553 0.83576 0.94514 0.0
C109 C 0.34853 0.91251 0.91416 0.0
O110 O 0.34664 0.86745 0.86549 0.0
O111 O 0.30949 0.84382 0.87422 0.0
O112 O 0.32649 0.89622 0.9132 0.0
O113 O 0.3632 0.90466 0.91404 0.0
C114 C 0.36887 0.85873 0.93835 0.0
O115 O 0.3014 0.85736 0.9391 0.0
O116 O 0.30897 0.82856 0.93416 0.0
In117 In 0.47574 0.33646 0.40605 0.0
O118 O 0.481 0.31498 0.44167 0.0
O119 O 0.45454 0.29485 0.41028 0.0
C120 C 0.44303 0.35166 0.41222 0.0
C121 C 0.51639 0.37271 0.42992 0.0
C122 C 0.48174 0.32954 0.35015 0.0
O123 O 0.43868 0.33087 0.41995 0.0
O124 O 0.46378 0.3647 0.40152 0.0
O125 O 0.49726 0.33272 0.36901 0.0
O126 O 0.46325 0.32975 0.35949 0.0
C127 C 0.46521 0.2944 0.43278 0.0
O128 O 0.51476 0.368 0.40349 0.0
O129 O 0.49748 0.3593 0.44416 0.0
In130 In 0.14008 0.4739 0.91384 0.0
O131 O 0.13594 0.50737 0.91247 0.0
O132 O 0.13924 0.4947 0.95338 0.0
C133 C 0.15192 0.4764 0.85775 0.0
C134 C 0.17839 0.47555 0.94136 0.0
C135 C 0.09281 0.43932 0.91815 0.0
O136 O 0.1587 0.49476 0.8734 0.0
O137 O 0.13921 0.45639 0.87034 0.0
O138 O 0.10964 0.43517 0.9251 0.0
O139 O 0.09998 0.46047 0.90901 0.0
C140 C 0.1368 0.51026 0.93922 0.0
O141 O 0.15734 0.45724 0.94329 0.0
O142 O 0.17981 0.49209 0.92529 0.0
In143 In 0.66957 0.13693 0.4114 0.0
O144 O 0.69359 0.13935 0.44903 0.0
O145 O 0.70663 0.16995 0.42168 0.0
C146 C 0.65584 0.08917 0.41107 0.0
C147 C 0.63951 0.14712 0.4416 0.0
C148 C 0.66986 0.149 0.35539 0.0
O149 O 0.64351 0.09728 0.42284 0.0
O150 O 0.67518 0.10513 0.39947 0.0
O151 O 0.65464 0.14819 0.37322 0.0
O152 O 0.68515 0.14406 0.36577 0.0
C153 C 0.71015 0.16075 0.44381 0.0
O154 O 0.6617 0.16234 0.43791 0.0
O155 O 0.63227 0.12697 0.4293 0.0
In156 In 0.67435 0.53358 0.91085 0.0
O157 O 0.71135 0.56235 0.93004 0.0
O158 O 0.69999 0.52518 0.93546 0.0
C159 C 0.65445 0.56215 0.90345 0.0
C160 C 0.64067 0.49554 0.94148 0.0
C161 C 0.68136 0.52474 0.85603 0.0
O162 O 0.66771 0.56461 0.9248 0.0
O163 O 0.65112 0.54528 0.88661 0.0
O164 O 0.66556 0.5089 0.87222 0.0
O165 O 0.6943 0.54522 0.86761 0.0
C166 C 0.71589 0.54676 0.94054 0.0
O167 O 0.6535 0.49363 0.92229 0.0
O168 O 0.64426 0.51677 0.94502 0.0
In169 In 0.13484 0.66675 0.41502 0.0
O170 O 0.14709 0.70469 0.43239 0.0
O171 O 0.1726 0.69242 0.43297 0.0
C172 C 0.08685 0.65145 0.41166 0.0
C173 C 0.13294 0.63462 0.45419 0.0
C174 C 0.15021 0.67098 0.3601 0.0
O175 O 0.10229 0.67242 0.42009 0.0
O176 O 0.09562 0.63824 0.40466 0.0
O177 O 0.1537 0.65852 0.37846 0.0
O178 O 0.13923 0.68144 0.36948 0.0
C179 C 0.1681 0.70908 0.43916 0.0
O180 O 0.13633 0.63274 0.42791 0.0
O181 O 0.13037 0.65248 0.46049 0.0
In182 In 0.46831 0.13855 0.91046 0.0
O183 O 0.45601 0.15393 0.94709 0.0
O184 O 0.47323 0.17661 0.91126 0.0
C185 C 0.43588 0.09052 0.91575 0.0
C186 C 0.50993 0.14472 0.93396 0.0
C187 C 0.46496 0.14465 0.85376 0.0
O188 O 0.4303 0.10661 0.92065 0.0
O189 O 0.45764 0.09865 0.9085 0.0
O190 O 0.48438 0.14812 0.86533 0.0
O191 O 0.44738 0.13825 0.87077 0.0
C192 C 0.46318 0.1742 0.93522 0.0
O193 O 0.50708 0.14537 0.90734 0.0
O194 O 0.49205 0.14163 0.94881 0.0
In195 In 0.33389 0.46941 0.41747 0.0
O196 O 0.30467 0.44689 0.4501 0.0
O197 O 0.30534 0.47843 0.43384 0.0
C198 C 0.35094 0.43786 0.41759 0.0
C199 C 0.36765 0.51063 0.44332 0.0
C200 C 0.32201 0.46921 0.36152 0.0
O201 O 0.32908 0.43143 0.42255 0.0
O202 O 0.36421 0.46016 0.4124 0.0
O203 O 0.34272 0.48365 0.37144 0.0
O204 O 0.30717 0.45496 0.37979 0.0
C205 C 0.29532 0.46032 0.45037 0.0
O206 O 0.36054 0.51018 0.41802 0.0
O207 O 0.35761 0.49031 0.45576 0.0
In208 In 0.86655 0.33445 0.91718 0.0
O209 O 0.8563 0.29839 0.93926 0.0
O210 O 0.8305 0.3102 0.94013 0.0
C211 C 0.9146 0.34961 0.92117 0.0
C212 C 0.86737 0.37324 0.94227 0.0
C213 C 0.85192 0.32521 0.86145 0.0
O214 O 0.89842 0.32839 0.9279 0.0
O215 O 0.90654 0.36302 0.91256 0.0
O216 O 0.84118 0.33065 0.8801 0.0
O217 O 0.86957 0.32359 0.87098 0.0
C218 C 0.83574 0.29431 0.94759 0.0
O219 O 0.86836 0.37106 0.91557 0.0
O220 O 0.8659 0.35574 0.95664 0.0
In221 In 0.53457 0.86371 0.41561 0.0
O222 O 0.50918 0.8589 0.45288 0.0
O223 O 0.49814 0.86228 0.41109 0.0
C224 C 0.52884 0.84854 0.36032 0.0
C225 C 0.54405 0.83448 0.44857 0.0
C226 C 0.56955 0.91138 0.4165 0.0
O227 O 0.52021 0.86115 0.36998 0.0
O228 O 0.53979 0.84302 0.37866 0.0
O229 O 0.55039 0.90297 0.43105 0.0
O230 O 0.57141 0.89573 0.40198 0.0
C231 C 0.49338 0.85984 0.43749 0.0
O232 O 0.55959 0.85642 0.44383 0.0
O233 O 0.52381 0.82722 0.43648 0.0
In234 In 0.47205 0.33656 0.08743 0.0
O235 O 0.50983 0.3493 0.06976 0.0
O236 O 0.49725 0.37449 0.06862 0.0
C237 C 0.47923 0.32598 0.14121 0.0
C238 C 0.45581 0.29835 0.05116 0.0
C239 C 0.441 0.35332 0.0964 0.0
O240 O 0.49647 0.33946 0.12471 0.0
O241 O 0.45833 0.31709 0.13026 0.0
O242 O 0.43836 0.33943 0.07575 0.0
O243 O 0.45927 0.35893 0.11187 0.0
C244 C 0.51401 0.37011 0.06254 0.0
O245 O 0.45823 0.31857 0.04413 0.0
O246 O 0.46032 0.29683 0.07711 0.0
In247 In 0.13305 0.46712 0.59357 0.0
O248 O 0.13528 0.50392 0.59707 0.0
O249 O 0.1306 0.48843 0.55564 0.0
C250 C 0.14783 0.47221 0.64878 0.0
C251 C 0.16542 0.45842 0.56604 0.0
C252 C 0.08522 0.43445 0.58804 0.0
O253 O 0.15857 0.48857 0.63026 0.0
O254 O 0.12988 0.45309 0.6394 0.0
O255 O 0.10136 0.43235 0.57478 0.0
O256 O 0.09324 0.45282 0.60401 0.0
C257 C 0.13288 0.50598 0.57059 0.0
O258 O 0.14887 0.4428 0.58178 0.0
O259 O 0.16565 0.4783 0.5643 0.0
In260 In 0.66468 0.13635 0.09117 0.0
O261 O 0.70268 0.14694 0.07445 0.0
O262 O 0.69172 0.17347 0.07318 0.0
C263 C 0.64487 0.08801 0.1002 0.0
C264 C 0.63348 0.13662 0.052 0.0
C265 C 0.6699 0.15216 0.14588 0.0
O266 O 0.66264 0.0994 0.08346 0.0
O267 O 0.63724 0.10086 0.11164 0.0
O268 O 0.65581 0.15397 0.12828 0.0
O269 O 0.68213 0.14328 0.13555 0.0
C270 C 0.70788 0.16818 0.06736 0.0
O271 O 0.63419 0.14354 0.07746 0.0
O272 O 0.6481 0.12921 0.04656 0.0
In273 In 0.53027 0.66659 0.5989 0.0
O274 O 0.49078 0.63843 0.58776 0.0
O275 O 0.51743 0.65068 0.55478 0.0
C276 C 0.52816 0.67889 0.65382 0.0
C277 C 0.5422 0.70843 0.57177 0.0
C278 C 0.55402 0.64145 0.60488 0.0
O279 O 0.51018 0.66148 0.64155 0.0
O280 O 0.54671 0.69019 0.63826 0.0
O281 O 0.56343 0.66144 0.59162 0.0
O282 O 0.5332 0.63465 0.61481 0.0
C283 C 0.49548 0.63735 0.56169 0.0
O284 O 0.55763 0.70181 0.57665 0.0
O285 O 0.52113 0.69429 0.58125 0.0
In286 In 0.86841 0.53501 0.09638 0.0
O287 O 0.85825 0.49618 0.08279 0.0
O288 O 0.88004 0.5255 0.0549 0.0
C289 C 0.85014 0.52869 0.14993 0.0
C290 C 0.83932 0.54671 0.06666 0.0
C291 C 0.91606 0.5627 0.10898 0.0
O292 O 0.85343 0.51285 0.13767 0.0
O293 O 0.85523 0.54709 0.13485 0.0
O294 O 0.90569 0.56969 0.09145 0.0
O295 O 0.90246 0.54213 0.1198 0.0
C296 C 0.86946 0.50294 0.05924 0.0
O297 O 0.86062 0.56244 0.07402 0.0
O298 O 0.83265 0.52536 0.07489 0.0
In299 In 0.33442 0.86484 0.59041 0.0
O300 O 0.36257 0.85384 0.57722 0.0
O301 O 0.35461 0.87469 0.5483 0.0
C302 C 0.32671 0.85024 0.64597 0.0
C303 C 0.29421 0.83422 0.56099 0.0
C304 C 0.34836 0.91245 0.59476 0.0
O305 O 0.34755 0.86049 0.63481 0.0
O306 O 0.30991 0.84675 0.629 0.0
O307 O 0.32731 0.89664 0.58702 0.0
O308 O 0.3622 0.9042 0.60071 0.0
C309 C 0.36652 0.8641 0.55307 0.0
O310 O 0.29917 0.85545 0.56776 0.0
O311 O 0.30925 0.82816 0.56975 0.0
H312 H 0.35096 0.50082 0.19622 0.0
H313 H 0.27784 0.44285 0.17801 0.0
H314 H 0.26894 0.43756 0.22984 0.0
H315 H 0.36065 0.47279 0.25469 0.0
H316 H 0.37813 0.50017 0.27514 0.0
H317 H 0.37778 0.50157 0.23673 0.0
H318 H 0.36312 0.53292 0.23951 0.0
H319 H 0.3636 0.53176 0.278 0.0
H320 H 0.3362 0.52574 0.2597 0.0
H321 H 0.26923 0.43626 0.28376 0.0
H322 H 0.27864 0.43906 0.3354 0.0
H323 H 0.35185 0.49736 0.31822 0.0
C324 C 0.33287 0.48743 0.2031 0.0
C325 C 0.31499 0.4724 0.18309 0.0
C326 C 0.29174 0.45468 0.19297 0.0
C327 C 0.28653 0.45156 0.22236 0.0
C328 C 0.30477 0.46629 0.24158 0.0
C329 C 0.32745 0.48395 0.23233 0.0
C330 C 0.34443 0.49615 0.25731 0.0
C331 C 0.36654 0.49243 0.25587 0.0
C332 C 0.3523 0.52325 0.25871 0.0
C333 C 0.32793 0.48228 0.28205 0.0
C334 C 0.30505 0.4653 0.27257 0.0
C335 C 0.287 0.44967 0.29144 0.0
C336 C 0.29253 0.45136 0.32072 0.0
C337 C 0.31594 0.46846 0.33083 0.0
C338 C 0.33373 0.48422 0.31117 0.0
H339 H 0.87243 0.31621 0.69436 0.0
H340 H 0.815 0.33276 0.67873 0.0
H341 H 0.80775 0.33187 0.73081 0.0
H342 H 0.84431 0.2758 0.75518 0.0
H343 H 0.87264 0.28676 0.77397 0.0
H344 H 0.87227 0.28722 0.73545 0.0
H345 H 0.90327 0.33334 0.73583 0.0
H346 H 0.90377 0.33301 0.77431 0.0
H347 H 0.8965 0.35346 0.75586 0.0
H348 H 0.80773 0.33051 0.78473 0.0
H349 H 0.81602 0.33052 0.83635 0.0
H350 H 0.87402 0.3156 0.81686 0.0
C351 C 0.85815 0.31939 0.70188 0.0
C352 C 0.84416 0.32442 0.68249 0.0
C353 C 0.82588 0.32881 0.6932 0.0
C354 C 0.8216 0.32828 0.72273 0.0
C355 C 0.8358 0.32339 0.74128 0.0
C356 C 0.85376 0.3191 0.73128 0.0
C357 C 0.86725 0.31544 0.75577 0.0
C358 C 0.86391 0.28977 0.75504 0.0
C359 C 0.8943 0.33498 0.75541 0.0
C360 C 0.85425 0.3186 0.78113 0.0
C361 C 0.83602 0.32295 0.77231 0.0
C362 C 0.82188 0.327 0.79186 0.0
C363 C 0.8267 0.32694 0.82115 0.0
C364 C 0.8456 0.32298 0.83066 0.0
C365 C 0.85933 0.3185 0.81029 0.0
H366 H 0.50419 0.85652 0.3174 0.0
H367 H 0.55207 0.82761 0.33375 0.0
H368 H 0.5542 0.8215 0.28189 0.0
H369 H 0.47134 0.81577 0.25656 0.0
H370 H 0.46909 0.83923 0.23756 0.0
H371 H 0.4696 0.83929 0.2761 0.0
H372 H 0.5063 0.88309 0.27566 0.0
H373 H 0.50598 0.88314 0.23719 0.0
H374 H 0.53325 0.88947 0.25603 0.0
H375 H 0.55495 0.82299 0.22826 0.0
H376 H 0.55233 0.82975 0.17665 0.0
H377 H 0.50243 0.85584 0.19488 0.0
C378 C 0.51476 0.84849 0.31009 0.0
C379 C 0.52795 0.8425 0.3296 0.0
C380 C 0.54173 0.83222 0.3192 0.0
C381 C 0.54306 0.82868 0.28978 0.0
C382 C 0.53023 0.83523 0.27106 0.0
C383 C 0.51609 0.84462 0.2808 0.0
C384 C 0.5049 0.85108 0.2561 0.0
C385 C 0.47708 0.8354 0.25661 0.0
C386 C 0.51311 0.87831 0.25627 0.0
C387 C 0.51557 0.84455 0.23094 0.0
C388 C 0.53008 0.83538 0.24005 0.0
C389 C 0.54328 0.82972 0.22085 0.0
C390 C 0.54174 0.83368 0.1916 0.0
C391 C 0.52696 0.84302 0.1818 0.0
C392 C 0.51347 0.84819 0.20174 0.0
H393 H 0.70044 0.55783 0.81227 0.0
H394 H 0.66429 0.48071 0.83059 0.0
H395 H 0.66198 0.4719 0.77889 0.0
H396 H 0.66431 0.553 0.75361 0.0
H397 H 0.68821 0.57689 0.7329 0.0
H398 H 0.69012 0.57748 0.77131 0.0
H399 H 0.73191 0.57977 0.7684 0.0
H400 H 0.7302 0.57936 0.72991 0.0
H401 H 0.73476 0.55709 0.74841 0.0
H402 H 0.66041 0.4712 0.72542 0.0
H403 H 0.65935 0.47867 0.67375 0.0
H404 H 0.69549 0.55619 0.68985 0.0
C405 C 0.69266 0.53915 0.80538 0.0
C406 C 0.68281 0.51994 0.82538 0.0
C407 C 0.6721 0.49568 0.81558 0.0
C408 C 0.67074 0.49051 0.78628 0.0
C409 C 0.68008 0.5098 0.76702 0.0
C410 C 0.69088 0.53365 0.77612 0.0
C411 C 0.69764 0.55086 0.75093 0.0
C412 C 0.68427 0.5654 0.75228 0.0
C413 C 0.72527 0.56777 0.74932 0.0
C414 C 0.68853 0.53293 0.72634 0.0
C415 C 0.67872 0.50936 0.73608 0.0
C416 C 0.66827 0.48959 0.7175 0.0
C417 C 0.66772 0.49401 0.68819 0.0
C418 C 0.67739 0.51799 0.67777 0.0
C419 C 0.68811 0.53766 0.69715 0.0
H420 H 0.14159 0.69432 0.31646 0.0
H421 H 0.17447 0.6503 0.33512 0.0
H422 H 0.18397 0.65042 0.2838 0.0
H423 H 0.11293 0.6648 0.25301 0.0
H424 H 0.11766 0.69179 0.23476 0.0
H425 H 0.11577 0.69026 0.27315 0.0
H426 H 0.15774 0.72947 0.27665 0.0
H427 H 0.15977 0.73109 0.23819 0.0
H428 H 0.18355 0.73084 0.25889 0.0
H429 H 0.1866 0.65241 0.22991 0.0
H430 H 0.18168 0.65568 0.17791 0.0
H431 H 0.14749 0.69878 0.1948 0.0
C432 C 0.15115 0.68504 0.30983 0.0
C433 C 0.1574 0.67238 0.32977 0.0
C434 C 0.16961 0.66019 0.3202 0.0
C435 C 0.17513 0.66022 0.29111 0.0
C436 C 0.16843 0.67263 0.27193 0.0
C437 C 0.15677 0.68489 0.28093 0.0
C438 C 0.15014 0.69553 0.25587 0.0
C439 C 0.12249 0.68495 0.2541 0.0
C440 C 0.16361 0.72339 0.25751 0.0
C441 C 0.15938 0.68688 0.2313 0.0
C442 C 0.17006 0.67388 0.24097 0.0
C443 C 0.17858 0.66284 0.22211 0.0
C444 C 0.17573 0.6648 0.19262 0.0
C445 C 0.16442 0.67766 0.18233 0.0
C446 C 0.15658 0.68918 0.20199 0.0
H447 H 0.4959 0.14762 0.81097 0.0
H448 H 0.42876 0.14785 0.82655 0.0
H449 H 0.4241 0.15153 0.77466 0.0
H450 H 0.51705 0.18999 0.75072 0.0
H451 H 0.52895 0.17363 0.73151 0.0
H452 H 0.52804 0.17286 0.77003 0.0
H453 H 0.50337 0.12586 0.76884 0.0
H454 H 0.50424 0.12648 0.73036 0.0
H455 H 0.4755 0.11085 0.74869 0.0
H456 H 0.42595 0.15383 0.72126 0.0
H457 H 0.43295 0.15236 0.66959 0.0
H458 H 0.49824 0.14929 0.68821 0.0
C459 C 0.48039 0.14875 0.80344 0.0
C460 C 0.46275 0.14762 0.82275 0.0
C461 C 0.44249 0.14873 0.81211 0.0
C462 C 0.43974 0.15091 0.78269 0.0
C463 C 0.45735 0.15182 0.76419 0.0
C464 C 0.47722 0.15065 0.77408 0.0
C465 C 0.49272 0.15055 0.74949 0.0
C466 C 0.5182 0.1731 0.7505 0.0
C467 C 0.49402 0.12704 0.74934 0.0
C468 C 0.47829 0.15157 0.72424 0.0
C469 C 0.45812 0.15258 0.73325 0.0
C470 C 0.44174 0.15314 0.71393 0.0
C471 C 0.44588 0.15232 0.68462 0.0
C472 C 0.46614 0.15075 0.67488 0.0
C473 C 0.48266 0.15062 0.69502 0.0
H474 H 0.49884 0.64925 0.69686 0.0
H475 H 0.55881 0.72161 0.67998 0.0
H476 H 0.56257 0.73067 0.73165 0.0
H477 H 0.47299 0.66526 0.75913 0.0
H478 H 0.46588 0.63779 0.77804 0.0
H479 H 0.46556 0.63802 0.73949 0.0
H480 H 0.49607 0.62227 0.73854 0.0
H481 H 0.49654 0.62206 0.777 0.0
H482 H 0.5245 0.63889 0.75737 0.0
H483 H 0.56262 0.73073 0.78485 0.0
H484 H 0.55963 0.7215 0.83639 0.0
H485 H 0.50014 0.64879 0.81971 0.0
C486 C 0.51231 0.6672 0.70405 0.0
C487 C 0.52837 0.68486 0.68443 0.0
C488 C 0.54624 0.70789 0.69465 0.0
C489 C 0.54846 0.71323 0.72395 0.0
C490 C 0.53273 0.6953 0.74282 0.0
C491 C 0.51497 0.67274 0.73336 0.0
C492 C 0.50192 0.65603 0.75838 0.0
C493 C 0.47499 0.64886 0.75878 0.0
C494 C 0.50495 0.63349 0.75778 0.0
C495 C 0.51553 0.67254 0.78331 0.0
C496 C 0.53299 0.69521 0.7738 0.0
C497 C 0.5488 0.71316 0.79259 0.0
C498 C 0.54698 0.70773 0.82185 0.0
C499 C 0.52956 0.68449 0.8321 0.0
C500 C 0.51338 0.66683 0.81256 0.0
H501 H 0.85329 0.49888 0.31495 0.0
H502 H 0.83119 0.55195 0.33318 0.0
H503 H 0.82523 0.55538 0.28164 0.0
H504 H 0.8875 0.52773 0.25394 0.0
H505 H 0.87921 0.50032 0.23422 0.0
H506 H 0.87908 0.49984 0.27269 0.0
H507 H 0.83416 0.46537 0.27241 0.0
H508 H 0.83416 0.46573 0.23386 0.0
H509 H 0.81189 0.4696 0.2534 0.0
H510 H 0.82565 0.55632 0.22836 0.0
H511 H 0.83237 0.5546 0.17663 0.0
H512 H 0.85357 0.50049 0.19217 0.0
C513 C 0.84671 0.51083 0.3081 0.0
C514 C 0.84256 0.52505 0.3281 0.0
C515 C 0.8344 0.54082 0.31827 0.0
C516 C 0.83089 0.54285 0.28903 0.0
C517 C 0.83553 0.52891 0.26982 0.0
C518 C 0.84316 0.51312 0.27889 0.0
C519 C 0.84844 0.50151 0.25361 0.0
C520 C 0.87514 0.50773 0.25362 0.0
C521 C 0.83112 0.47391 0.25331 0.0
C522 C 0.84318 0.51371 0.22896 0.0
C523 C 0.83556 0.5293 0.23884 0.0
C524 C 0.83121 0.54388 0.22033 0.0
C525 C 0.83511 0.54281 0.19099 0.0
C526 C 0.8432 0.52722 0.18038 0.0
C527 C 0.84686 0.51218 0.19962 0.0
H528 H 0.3601 0.86685 0.68959 0.0
H529 H 0.2832 0.8215 0.67206 0.0
H530 H 0.27497 0.81498 0.72388 0.0
H531 H 0.36245 0.83318 0.75271 0.0
H532 H 0.38373 0.86048 0.77123 0.0
H533 H 0.38385 0.85949 0.73271 0.0
H534 H 0.37852 0.89728 0.73065 0.0
H535 H 0.37824 0.89831 0.7691 0.0
H536 H 0.3533 0.89671 0.74898 0.0
H537 H 0.27472 0.81555 0.77761 0.0
H538 H 0.2825 0.82354 0.82937 0.0
H539 H 0.35941 0.86935 0.8121 0.0
C540 C 0.34161 0.85512 0.69667 0.0
C541 C 0.3223 0.84448 0.67682 0.0
C542 C 0.29828 0.82971 0.68691 0.0
C543 C 0.29342 0.82588 0.71629 0.0
C544 C 0.31279 0.837 0.73536 0.0
C545 C 0.33642 0.85129 0.72598 0.0
C546 C 0.35371 0.86244 0.75097 0.0
C547 C 0.37201 0.85335 0.75196 0.0
C548 C 0.3667 0.89034 0.74985 0.0
C549 C 0.33607 0.85254 0.7758 0.0
C550 C 0.31259 0.8377 0.76635 0.0
C551 C 0.29306 0.82699 0.78528 0.0
C552 C 0.29765 0.83165 0.81463 0.0
C553 C 0.32154 0.84702 0.82477 0.0
C554 C 0.34096 0.85743 0.80502 0.0
H555 H 0.44862 0.31752 0.30696 0.0
H556 H 0.52281 0.33539 0.32393 0.0
H557 H 0.52935 0.3331 0.27215 0.0
H558 H 0.4376 0.27487 0.24802 0.0
H559 H 0.41948 0.28443 0.22826 0.0
H560 H 0.42022 0.28586 0.26677 0.0
H561 H 0.43368 0.3316 0.26452 0.0
H562 H 0.43297 0.33031 0.22607 0.0
H563 H 0.46033 0.35189 0.24426 0.0
H564 H 0.52892 0.33285 0.21825 0.0
H565 H 0.52106 0.33323 0.16648 0.0
H566 H 0.4466 0.31351 0.18489 0.0
C567 C 0.46616 0.32065 0.29981 0.0
C568 C 0.48523 0.32664 0.31943 0.0
C569 C 0.50793 0.3307 0.30926 0.0
C570 C 0.5118 0.32941 0.27991 0.0
C571 C 0.49269 0.32374 0.26108 0.0
C572 C 0.47024 0.3192 0.27065 0.0
C573 C 0.45298 0.31433 0.24596 0.0
C574 C 0.43129 0.28832 0.24734 0.0
C575 C 0.4445 0.33316 0.24516 0.0
C576 C 0.46939 0.31744 0.22093 0.0
C577 C 0.49222 0.32282 0.23009 0.0
C578 C 0.51099 0.32823 0.21083 0.0
C579 C 0.50638 0.32842 0.1815 0.0
C580 C 0.48315 0.32305 0.17173 0.0
C581 C 0.46437 0.31711 0.19173 0.0
H582 H 0.12578 0.4403 0.69309 0.0
H583 H 0.18519 0.51241 0.67351 0.0
H584 H 0.19479 0.5199 0.72494 0.0
H585 H 0.10556 0.45634 0.75446 0.0
H586 H 0.09795 0.42914 0.77427 0.0
H587 H 0.0972 0.42844 0.7358 0.0
H588 H 0.12699 0.41179 0.73528 0.0
H589 H 0.12778 0.41237 0.77382 0.0
H590 H 0.15562 0.42818 0.75374 0.0
H591 H 0.19536 0.52116 0.77828 0.0
H592 H 0.18761 0.51571 0.83022 0.0
H593 H 0.12855 0.44239 0.81565 0.0
C594 C 0.14108 0.4575 0.69961 0.0
C595 C 0.15481 0.47577 0.67932 0.0
C596 C 0.1745 0.49814 0.68868 0.0
C597 C 0.18011 0.50254 0.71784 0.0
C598 C 0.16597 0.48432 0.73734 0.0
C599 C 0.14698 0.46217 0.72865 0.0
C600 C 0.13385 0.44618 0.75411 0.0
C601 C 0.10706 0.43965 0.75468 0.0
C602 C 0.13621 0.42327 0.75424 0.0
C603 C 0.14804 0.46305 0.77848 0.0
C604 C 0.16657 0.48491 0.76828 0.0
C605 C 0.18117 0.50399 0.78654 0.0
C606 C 0.17659 0.50075 0.81599 0.0
C607 C 0.15765 0.47857 0.82691 0.0
C608 C 0.14344 0.45937 0.8079 0.0
H609 H 0.69497 0.14314 0.31133 0.0
H610 H 0.64272 0.1662 0.33 0.0
H611 H 0.63981 0.17297 0.27845 0.0
H612 H 0.72541 0.18483 0.25134 0.0
H613 H 0.72888 0.16255 0.23127 0.0
H614 H 0.72855 0.16166 0.2698 0.0
H615 H 0.6932 0.11714 0.26857 0.0
H616 H 0.69345 0.11789 0.2301 0.0
H617 H 0.66586 0.10989 0.24926 0.0
H618 H 0.64074 0.17491 0.2247 0.0
H619 H 0.64418 0.17032 0.17274 0.0
H620 H 0.69532 0.14534 0.18888 0.0
C621 C 0.68322 0.15 0.30459 0.0
C622 C 0.6692 0.15433 0.32468 0.0
C623 C 0.65369 0.16286 0.31499 0.0
C624 C 0.65198 0.16682 0.28576 0.0
C625 C 0.66586 0.16214 0.26647 0.0
C626 C 0.68115 0.15387 0.27547 0.0
C627 C 0.69287 0.14872 0.25024 0.0
C628 C 0.72057 0.16544 0.2507 0.0
C629 C 0.68592 0.12181 0.2495 0.0
C630 C 0.68147 0.15498 0.22562 0.0
C631 C 0.66615 0.16295 0.23546 0.0
C632 C 0.65285 0.1689 0.21676 0.0
C633 C 0.65494 0.16625 0.18727 0.0
C634 C 0.67011 0.1576 0.17673 0.0
C635 C 0.68379 0.15226 0.19624 0.0
H636 H 0.18314 0.4418 0.97439 0.0
H637 H 0.22177 0.51683 0.94585 0.0
H638 H 0.25706 0.5242 0.97467 0.0
H639 H 0.20592 0.45284 0.04633 0.0
H640 H 0.20916 0.4263 0.0486 0.0
H641 H 0.18652 0.42628 0.02541 0.0
H642 H 0.20453 0.41499 0.98235 0.0
H643 H 0.22717 0.41487 0.00543 0.0
H644 H 0.23629 0.43372 0.97392 0.0
H645 H 0.28711 0.52472 0.00791 0.0
H646 H 0.31246 0.51746 0.04159 0.0
H647 H 0.25665 0.44158 0.04784 0.0
C648 C 0.19911 0.45969 0.97413 0.0
C649 C 0.19966 0.47875 0.95787 0.0
C650 C 0.22089 0.50192 0.95804 0.0
C651 C 0.24106 0.50635 0.97441 0.0
C652 C 0.23993 0.48736 0.99036 0.0
C653 C 0.21972 0.46441 0.9902 0.0
C654 C 0.22374 0.44733 0.00925 0.0
C655 C 0.20523 0.43762 0.03386 0.0
C656 C 0.22289 0.42649 0.99168 0.0
C657 C 0.24922 0.46444 0.02024 0.0
C658 C 0.25798 0.48745 0.00912 0.0
C659 C 0.28059 0.50674 0.0166 0.0
C660 C 0.29481 0.50243 0.03587 0.0
C661 C 0.28657 0.47896 0.04727 0.0
C662 C 0.26346 0.45966 0.03927 0.0
H663 H 0.7462 0.20821 0.439 0.0
H664 H 0.71961 0.14507 0.49404 0.0
H665 H 0.75059 0.1697 0.53013 0.0
H666 H 0.81128 0.2355 0.45836 0.0
H667 H 0.81608 0.26591 0.45692 0.0
H668 H 0.79365 0.24264 0.43417 0.0
H669 H 0.76086 0.2514 0.45445 0.0
H670 H 0.7831 0.27454 0.47735 0.0
H671 H 0.75586 0.24991 0.49253 0.0
H672 H 0.78132 0.20226 0.56244 0.0
H673 H 0.81053 0.23996 0.58754 0.0
H674 H 0.81758 0.2815 0.51095 0.0
C675 C 0.74727 0.19943 0.45835 0.0
C676 C 0.73058 0.1747 0.46368 0.0
C677 C 0.73231 0.16396 0.48945 0.0
C678 C 0.74985 0.1778 0.51008 0.0
C679 C 0.76566 0.2023 0.50449 0.0
C680 C 0.7647 0.21297 0.47912 0.0
C681 C 0.78278 0.23993 0.47906 0.0
C682 C 0.80209 0.24637 0.45574 0.0
C683 C 0.76987 0.25481 0.47566 0.0
C684 C 0.79357 0.24289 0.50865 0.0
C685 C 0.78358 0.22097 0.52295 0.0
C686 C 0.78957 0.21947 0.55129 0.0
C687 C 0.80611 0.24095 0.56539 0.0
C688 C 0.81645 0.26358 0.55111 0.0
C689 C 0.81027 0.26441 0.52228 0.0
H690 H 0.56404 0.8196 0.0402 0.0
H691 H 0.48809 0.78118 0.06533 0.0
H692 H 0.48133 0.74621 0.03646 0.0
H693 H 0.55511 0.79794 0.96804 0.0
H694 H 0.58141 0.79423 0.96681 0.0
H695 H 0.58112 0.81665 0.99011 0.0
H696 H 0.59064 0.79751 0.03352 0.0
H697 H 0.59111 0.77512 0.01032 0.0
H698 H 0.57129 0.76565 0.04099 0.0
H699 H 0.48134 0.71669 1.00321 0.0
H700 H 0.48898 0.69154 0.96979 0.0
H701 H 0.56537 0.74646 0.96664 0.0
C702 C 0.54609 0.80371 0.03979 0.0
C703 C 0.52659 0.80321 0.05505 0.0
C704 C 0.50335 0.78209 0.05393 0.0
C705 C 0.49926 0.76207 0.03751 0.0
C706 C 0.51863 0.76321 0.02245 0.0
C707 C 0.54167 0.78322 0.02361 0.0
C708 C 0.55911 0.7792 0.00521 0.0
C709 C 0.56982 0.79814 0.98111 0.0
C710 C 0.57923 0.77938 0.02361 0.0
C711 C 0.54208 0.75398 0.99338 0.0
C712 C 0.51881 0.74536 1.00359 0.0
C713 C 0.49951 0.72307 0.99524 0.0
C714 C 0.50405 0.70898 0.97609 0.0
C715 C 0.52777 0.71698 0.96562 0.0
C716 C 0.5471 0.73982 0.97445 0.0
H717 H 0.72689 0.55121 0.51515 0.0
H718 H 0.75526 0.55154 0.59946 0.0
H719 H 0.7923 0.55497 0.57768 0.0
H720 H 0.74418 0.51227 0.48553 0.0
H721 H 0.7515 0.52598 0.45053 0.0
H722 H 0.72954 0.52842 0.47239 0.0
H723 H 0.75428 0.57529 0.46838 0.0
H724 H 0.77626 0.573 0.44625 0.0
H725 H 0.7859 0.59118 0.47829 0.0
H726 H 0.82436 0.55476 0.54698 0.0
H727 H 0.84811 0.54837 0.50974 0.0
H728 H 0.79739 0.54476 0.44517 0.0
C729 C 0.74137 0.55295 0.52892 0.0
C730 C 0.73869 0.5518 0.55893 0.0
C731 C 0.75733 0.55287 0.57642 0.0
C732 C 0.77839 0.55484 0.56424 0.0
C733 C 0.78028 0.5553 0.53452 0.0
C734 C 0.76223 0.55427 0.51704 0.0
C735 C 0.76731 0.55192 0.48587 0.0
C736 C 0.74692 0.52824 0.47283 0.0
C737 C 0.77117 0.57418 0.46869 0.0
C738 C 0.79072 0.55125 0.4886 0.0
C739 C 0.79814 0.55376 0.51679 0.0
C740 C 0.81885 0.55299 0.52481 0.0
C741 C 0.83221 0.54934 0.50351 0.0
C742 C 0.82458 0.54606 0.4746 0.0
C743 C 0.80368 0.54727 0.4671 0.0
H744 H 0.28408 0.79173 0.96817 0.0
H745 H 0.26078 0.84523 0.96556 0.0
H746 H 0.22688 0.81987 0.99831 0.0
H747 H 0.22471 0.73876 0.97001 0.0
H748 H 0.23345 0.72247 0.99432 0.0
H749 H 0.25557 0.74476 0.97046 0.0
H750 H 0.28321 0.7674 0.01368 0.0
H751 H 0.26111 0.74523 0.03769 0.0
H752 H 0.27128 0.777 0.04269 0.0
H753 H 0.19497 0.78805 0.03086 0.0
H754 H 0.16811 0.75263 0.06102 0.0
H755 H 0.21344 0.72101 0.0434 0.0
C756 C 0.27178 0.79806 0.97439 0.0
C757 C 0.27496 0.82038 0.96424 0.0
C758 C 0.25863 0.82815 0.97306 0.0
C759 C 0.23934 0.81389 0.99165 0.0
C760 C 0.23677 0.79201 1.00139 0.0
C761 C 0.2526 0.78418 0.99311 0.0
C762 C 0.24607 0.76012 0.00685 0.0
C763 C 0.23956 0.74037 0.98405 0.0
C764 C 0.26664 0.7626 0.02639 0.0
C765 C 0.224 0.75554 0.02402 0.0
C766 C 0.21885 0.77408 0.02057 0.0
C767 C 0.19892 0.77349 0.03384 0.0
C768 C 0.18378 0.75334 0.05093 0.0
C769 C 0.1888 0.73419 0.0547 0.0
C770 C 0.20928 0.73549 0.04117 0.0
H771 H 0.48244 0.21543 0.55293 0.0
H772 H 0.43122 0.15106 0.50618 0.0
H773 H 0.42538 0.17681 0.47114 0.0
H774 H 0.45144 0.24985 0.54175 0.0
H775 H 0.47933 0.27831 0.53789 0.0
H776 H 0.47849 0.25468 0.55996 0.0
H777 H 0.51383 0.25624 0.53063 0.0
H778 H 0.51474 0.27981 0.50844 0.0
H779 H 0.51087 0.25233 0.49238 0.0
H780 H 0.42624 0.20985 0.44026 0.0
H781 H 0.43395 0.24763 0.41594 0.0
H782 H 0.48486 0.2901 0.48285 0.0
C783 C 0.46982 0.20673 0.53547 0.0
C784 C 0.45722 0.18126 0.5323 0.0
C785 C 0.44101 0.17056 0.50905 0.0
C786 C 0.43756 0.18503 0.48905 0.0
C787 C 0.45044 0.21013 0.49266 0.0
C788 C 0.46621 0.22089 0.51533 0.0
C789 C 0.47839 0.24827 0.51391 0.0
C790 C 0.47149 0.25837 0.53992 0.0
C791 C 0.5061 0.25983 0.51117 0.0
C792 C 0.46727 0.25127 0.4867 0.0
C793 C 0.45107 0.22908 0.47483 0.0
C794 C 0.43881 0.22733 0.44942 0.0
C795 C 0.4433 0.24885 0.43577 0.0
C796 C 0.45998 0.27175 0.44751 0.0
C797 C 0.47199 0.27286 0.47336 0.0
H798 H 0.79566 0.51468 0.04299 0.0
H799 H 0.84784 0.5916 0.04926 0.0
H800 H 0.82204 0.60058 0.01761 0.0
H801 H 0.78163 0.5149 0.96925 0.0
H802 H 0.75 0.49254 0.97341 0.0
H803 H 0.7722 0.49251 0.99727 0.0
H804 H 0.74856 0.4954 0.04085 0.0
H805 H 0.72622 0.49533 0.01712 0.0
H806 H 0.74167 0.51965 0.04249 0.0
H807 H 0.78988 0.60072 0.98459 0.0
H808 H 0.7548 0.59183 0.95337 0.0
H809 H 0.72515 0.51483 0.96858 0.0
C810 C 0.80161 0.53345 0.03791 0.0
C811 C 0.82369 0.55246 0.04869 0.0
C812 C 0.83093 0.57675 0.04129 0.0
C813 C 0.81641 0.58202 0.02333 0.0
C814 C 0.79478 0.56277 0.01287 0.0
C815 C 0.78748 0.53897 0.01993 0.0
C816 C 0.76381 0.52146 0.00556 0.0
C817 C 0.76712 0.50435 0.98516 0.0
C818 C 0.74389 0.50712 0.02783 0.0
C819 C 0.75883 0.53905 0.98927 0.0
C820 C 0.77679 0.56283 0.99374 0.0
C821 C 0.77576 0.58215 0.98093 0.0
C822 C 0.75583 0.57696 0.96323 0.0
C823 C 0.73734 0.55267 0.95845 0.0
C824 C 0.73905 0.53361 0.97165 0.0
H825 H 0.2108 0.71852 0.46435 0.0
H826 H 0.16397 0.74904 0.45045 0.0
H827 H 0.19135 0.78461 0.4799 0.0
H828 H 0.22417 0.73618 0.53715 0.0
H829 H 0.25523 0.7429 0.53521 0.0
H830 H 0.23278 0.72053 0.51171 0.0
H831 H 0.25875 0.74382 0.46768 0.0
H832 H 0.28139 0.76617 0.49106 0.0
H833 H 0.26816 0.77548 0.46322 0.0
H834 H 0.22329 0.81632 0.5118 0.0
H835 H 0.25779 0.84218 0.54346 0.0
H836 H 0.28314 0.79037 0.53752 0.0
C837 C 0.20647 0.73284 0.4672 0.0
C838 C 0.18535 0.73113 0.455 0.0
C839 C 0.18012 0.75006 0.45953 0.0
C840 C 0.19554 0.7703 0.47624 0.0
C841 C 0.21603 0.77126 0.48832 0.0
C842 C 0.22156 0.75306 0.48397 0.0
C843 C 0.2443 0.75814 0.50005 0.0
C844 C 0.23878 0.73826 0.52235 0.0
C845 C 0.26433 0.76108 0.47926 0.0
C846 C 0.25066 0.782 0.51423 0.0
C847 C 0.23418 0.78929 0.5071 0.0
C848 C 0.23632 0.8108 0.51752 0.0
C849 C 0.25593 0.82534 0.53552 0.0
C850 C 0.27306 0.81822 0.54303 0.0
C851 C 0.27025 0.7962 0.5323 0.0
H852 H 0.45738 0.18145 0.99189 0.0
H853 H 0.46113 0.21046 0.9069 0.0
H854 H 0.45514 0.24288 0.9274 0.0
H855 H 0.41275 0.19562 0.02227 0.0
H856 H 0.42773 0.20437 0.0565 0.0
H857 H 0.42991 0.18196 0.03509 0.0
H858 H 0.47685 0.20758 0.03689 0.0
H859 H 0.4748 0.22992 0.05844 0.0
H860 H 0.49177 0.23883 0.02549 0.0
H861 H 0.44999 0.27267 0.95685 0.0
H862 H 0.4506 0.30071 0.99364 0.0
H863 H 0.4524 0.25396 0.06009 0.0
C864 C 0.45662 0.19448 0.97764 0.0
C865 C 0.45949 0.1934 0.9478 0.0
C866 C 0.45893 0.211 0.92981 0.0
C867 C 0.45538 0.22936 0.94123 0.0
C868 C 0.45266 0.23 0.97073 0.0
C869 C 0.45354 0.21323 0.98876 0.0
C870 C 0.45223 0.21931 0.01985 0.0
C871 C 0.42928 0.19911 0.03427 0.0
C872 C 0.47529 0.22421 0.03611 0.0
C873 C 0.4508 0.24228 0.01645 0.0
C874 C 0.45061 0.24782 0.9879 0.0
C875 C 0.45003 0.26848 0.97928 0.0
C876 C 0.45032 0.28427 1.00036 0.0
C877 C 0.45149 0.2795 0.02973 0.0
C878 C 0.45126 0.25796 0.03782 0.0
H879 H 0.20008 0.48833 0.52781 0.0
H880 H 0.17071 0.41834 0.56971 0.0
H881 H 0.20056 0.41103 0.54427 0.0
H882 H 0.21119 0.46948 0.45948 0.0
H883 H 0.23889 0.49765 0.45311 0.0
H884 H 0.21525 0.49733 0.47465 0.0
H885 H 0.24576 0.51774 0.51625 0.0
H886 H 0.26949 0.51812 0.49484 0.0
H887 H 0.26255 0.50383 0.52951 0.0
H888 H 0.23413 0.41177 0.51494 0.0
H889 H 0.26848 0.4201 0.48319 0.0
H890 H 0.27536 0.48929 0.45972 0.0
C891 C 0.19992 0.47146 0.53164 0.0
C892 C 0.18312 0.4539 0.55076 0.0
C893 C 0.18343 0.43203 0.55514 0.0
C894 C 0.20031 0.42772 0.5408 0.0
C895 C 0.21665 0.44543 0.52209 0.0
C896 C 0.21654 0.46683 0.51741 0.0
C897 C 0.23597 0.48288 0.49617 0.0
C898 C 0.22464 0.48707 0.46926 0.0
C899 C 0.25454 0.50707 0.51003 0.0
C900 C 0.24712 0.46722 0.4897 0.0
C901 C 0.23574 0.44571 0.50492 0.0
C902 C 0.24311 0.4285 0.50284 0.0
C903 C 0.26264 0.4334 0.48478 0.0
C904 C 0.27451 0.45529 0.46893 0.0
C905 C 0.26654 0.47234 0.47143 0.0
H906 H 0.79194 0.28362 0.97084 0.0
H907 H 0.84299 0.25734 0.96516 0.0
H908 H 0.81638 0.22256 0.99617 0.0
H909 H 0.77577 0.26792 0.04453 0.0
H910 H 0.74432 0.25905 0.0393 0.0
H911 H 0.76728 0.28168 0.01646 0.0
H912 H 0.74469 0.2563 0.97179 0.0
H913 H 0.72161 0.23366 0.99447 0.0
H914 H 0.73758 0.22513 0.96942 0.0
H915 H 0.78364 0.19021 0.02748 0.0
H916 H 0.74742 0.16297 0.05629 0.0
H917 H 0.71855 0.21118 0.04218 0.0
C918 C 0.79749 0.27051 0.97604 0.0
C919 C 0.81951 0.27314 0.96552 0.0
C920 C 0.82617 0.25565 0.97292 0.0
C921 C 0.8112 0.23586 0.99056 0.0
C922 C 0.78965 0.23387 1.00069 0.0
C923 C 0.78282 0.25073 0.99368 0.0
C924 C 0.75879 0.24445 0.00732 0.0
C925 C 0.76173 0.26447 0.02814 0.0
C926 C 0.73953 0.23959 0.98438 0.0
C927 C 0.75313 0.22142 0.0231 0.0
C928 C 0.77111 0.21555 0.01899 0.0
C929 C 0.76952 0.1947 0.03094 0.0
C930 C 0.74891 0.17936 0.04728 0.0
C931 C 0.73027 0.18503 0.05164 0.0
C932 C 0.73261 0.20646 0.03951 0.0
H933 H 0.51102 0.79092 0.47211 0.0
H934 H 0.58819 0.84251 0.46743 0.0
H935 H 0.5964 0.81607 0.4988 0.0
H936 H 0.51057 0.77578 0.54637 0.0
H937 H 0.48797 0.7443 0.54159 0.0
H938 H 0.48834 0.76702 0.51826 0.0
H939 H 0.49101 0.74379 0.47415 0.0
H940 H 0.4906 0.72097 0.49734 0.0
H941 H 0.51504 0.7366 0.47214 0.0
H942 H 0.59607 0.78303 0.52958 0.0
H943 H 0.58701 0.74712 0.55915 0.0
H944 H 0.50999 0.71865 0.54563 0.0
C945 C 0.52965 0.7966 0.47759 0.0
C946 C 0.549 0.81867 0.46722 0.0
C947 C 0.57311 0.82564 0.47514 0.0
C948 C 0.57794 0.81074 0.49291 0.0
C949 C 0.55843 0.78909 0.50283 0.0
C950 C 0.53475 0.78214 0.49562 0.0
C951 C 0.51699 0.75829 0.50959 0.0
C952 C 0.49997 0.76156 0.53018 0.0
C953 C 0.50257 0.73876 0.48695 0.0
C954 C 0.53435 0.7528 0.52566 0.0
C955 C 0.55819 0.77066 0.52136 0.0
C956 C 0.57745 0.76904 0.53329 0.0
C957 C 0.57216 0.74861 0.55001 0.0
C958 C 0.54783 0.73028 0.55489 0.0
C959 C 0.52876 0.73256 0.54262 0.0
H960 H 0.35715 0.41107 0.06361 0.0
H961 H 0.35849 0.42336 0.15504 0.0
H962 H 0.37888 0.39964 0.16278 0.0
H963 H 0.34915 0.34824 0.06861 0.0
H964 H 0.36886 0.35344 0.0385 0.0
H965 H 0.35099 0.36824 0.04018 0.0
H966 H 0.39007 0.40996 0.03424 0.0
H967 H 0.40806 0.39536 0.03285 0.0
H968 H 0.41481 0.4187 0.05901 0.0
H969 H 0.40425 0.38066 0.16058 0.0
H970 H 0.43108 0.36433 0.14865 0.0
H971 H 0.41299 0.36231 0.05887 0.0
C972 C 0.36104 0.40802 0.08527 0.0
C973 C 0.35614 0.41891 0.10876 0.0
C974 C 0.36205 0.41513 0.13676 0.0
C975 C 0.37359 0.40164 0.14141 0.0
C976 C 0.37901 0.39187 0.11783 0.0
C977 C 0.37271 0.39454 0.09032 0.0
C978 C 0.38249 0.38372 0.06871 0.0
C979 C 0.36162 0.36212 0.05308 0.0
C980 C 0.39989 0.40309 0.04746 0.0
C981 C 0.39594 0.37541 0.08837 0.0
C982 C 0.39351 0.38023 0.11662 0.0
C983 C 0.40588 0.37627 0.13863 0.0
C984 C 0.42119 0.36715 0.13164 0.0
C985 C 0.42386 0.36188 0.10294 0.0
C986 C 0.41082 0.36575 0.08105 0.0
H987 H 0.04789 0.4378 0.61198 0.0
H988 H 0.06332 0.39213 0.55713 0.0
H989 H 0.01923 0.36355 0.55192 0.0
H990 H 0.9965 0.38967 0.64849 0.0
H991 H 0.98009 0.40598 0.64985 0.0
H992 H 0.01278 0.42238 0.64956 0.0
H993 H 0.01253 0.44655 0.60504 0.0
H994 H 0.97985 0.43023 0.60518 0.0
H995 H 0.99608 0.43035 0.57353 0.0
H996 H 0.97316 0.34018 0.55261 0.0
H997 H 0.92907 0.32434 0.55848 0.0
H998 H 0.94446 0.3859 0.61244 0.0
C999 C 0.04202 0.42174 0.59896 0.0
C1000 C 0.05898 0.41711 0.585 0.0
C1001 C 0.05059 0.39598 0.56802 0.0
C1002 C 0.02561 0.37966 0.56497 0.0
C1003 C 0.00935 0.38481 0.579 0.0
C1004 C 0.01725 0.40537 0.59562 0.0
C1005 C 0.99617 0.40704 0.60807 0.0
C1006 C 0.99641 0.40621 0.64094 0.0
C1007 C 0.99616 0.4299 0.5973 0.0
C1008 C 0.97511 0.38422 0.59583 0.0
C1009 C 0.98303 0.37157 0.5792 0.0
C1010 C 0.96677 0.34994 0.56561 0.0
C1011 C 0.94179 0.34108 0.56907 0.0
C1012 C 0.93338 0.3539 0.5859 0.0
C1013 C 0.95033 0.3757 0.59944 0.0
H1014 H 0.59517 0.94659 0.07037 0.0
H1015 H 0.55731 0.93371 0.15134 0.0
H1016 H 0.57818 0.9776 0.16052 0.0
H1017 H 0.65325 1.00094 0.09414 0.0
H1018 H 0.65749 0.01639 0.06049 0.0
H1019 H 0.6421 0.98369 0.06156 0.0
H1020 H 0.60508 0.98174 0.0359 0.0
H1021 H 0.62025 0.01438 0.03492 0.0
H1022 H 0.59069 0.99741 0.05116 0.0
H1023 H 0.59864 0.02189 0.15903 0.0
H1024 H 0.61928 0.06544 0.14761 0.0
H1025 H 0.64519 0.05168 0.06781 0.0
C1026 C 0.59187 0.95309 0.09032 0.0
C1027 C 0.57474 0.93679 0.11025 0.0
C1028 C 0.57036 0.9459 0.13581 0.0
C1029 C 0.58218 0.9708 0.14129 0.0
C1030 C 0.5984 0.98649 0.12099 0.0
C1031 C 0.60348 0.97815 0.09608 0.0
C1032 C 0.62037 0.99932 0.07703 0.0
C1033 C 0.64475 1.00013 0.07308 0.0
C1034 C 0.60837 0.99813 0.04804 0.0
C1035 C 0.62335 0.02064 0.09485 0.0
C1036 C 0.61059 0.01265 0.12019 0.0
C1037 C 0.60903 0.02847 0.13949 0.0
C1038 C 0.62072 0.05316 0.13273 0.0
C1039 C 0.63393 0.06192 0.10694 0.0
C1040 C 0.63552 0.04547 0.08789 0.0
H1041 H 0.65123 0.59742 0.57927 0.0
H1042 H 0.60269 0.53376 0.62909 0.0
H1043 H 0.57603 0.55074 0.63767 0.0
H1044 H 0.64372 0.64164 0.62203 0.0
H1045 H 0.64393 0.65901 0.59145 0.0
H1046 H 0.66042 0.64278 0.59036 0.0
H1047 H 0.63704 0.62031 0.54462 0.0
H1048 H 0.62047 0.63644 0.54559 0.0
H1049 H 0.60432 0.60373 0.54503 0.0
H1050 H 0.55391 0.57304 0.63996 0.0
H1051 H 0.53638 0.59958 0.63485 0.0
H1052 H 0.59786 0.6493 0.58273 0.0
C1053 C 0.63512 0.58727 0.59222 0.0
C1054 C 0.62906 0.56429 0.60359 0.0
C1055 C 0.60767 0.55135 0.62011 0.0
C1056 C 0.59243 0.56086 0.62521 0.0
C1057 C 0.59869 0.58335 0.61354 0.0
C1058 C 0.61941 0.59645 0.59732 0.0
C1059 C 0.62102 0.61971 0.58632 0.0
C1060 C 0.64362 0.64211 0.59826 0.0
C1061 C 0.62068 0.62005 0.55344 0.0
C1062 C 0.59786 0.61739 0.59874 0.0
C1063 C 0.58547 0.59631 0.61452 0.0
C1064 C 0.56345 0.58967 0.62775 0.0
C1065 C 0.55363 0.60489 0.62468 0.0
C1066 C 0.56573 0.62652 0.6084 0.0
C1067 C 0.58826 0.63293 0.5954 0.0
H1068 H 0.95258 0.60108 0.07935 0.0
H1069 H 0.93839 0.55554 0.15421 0.0
H1070 H 0.98214 0.57617 0.1647 0.0
H1071 H 0.00463 0.59985 0.05733 0.0
H1072 H 0.02112 0.63084 0.04507 0.0
H1073 H 0.98846 0.61472 0.04507 0.0
H1074 H 0.98853 0.64846 0.07618 0.0
H1075 H 0.02126 0.66475 0.0762 0.0
H1076 H 0.00488 0.6568 0.10957 0.0
H1077 H 0.02681 0.59828 0.1648 0.0
H1078 H 0.07063 0.62108 0.15459 0.0
H1079 H 0.05716 0.65305 0.07978 0.0
C1080 C 0.95872 0.59588 0.09827 0.0
C1081 C 0.94213 0.57681 0.11608 0.0
C1082 C 0.95079 0.57012 0.14031 0.0
C1083 C 0.9756 0.58179 0.14652 0.0
C1084 C 0.99155 0.60016 0.1283 0.0
C1085 C 0.98357 0.60729 0.10471 0.0
C1086 C 0.00485 0.62635 0.08755 0.0
C1087 C 0.00475 0.61739 0.05695 0.0
C1088 C 0.00488 0.65053 0.08738 0.0
C1089 C 0.02595 0.62829 0.10483 0.0
C1090 C 0.01775 0.61314 0.12838 0.0
C1091 C 0.03351 0.61047 0.14668 0.0
C1092 C 0.05836 0.62343 0.14063 0.0
C1093 C 0.06724 0.63891 0.11652 0.0
C1094 C 0.05085 0.64164 0.09862 0.0
H1095 H 0.44605 0.05315 0.60514 0.0
H1096 H 0.38986 0.06815 0.57682 0.0
H1097 H 0.36005 0.02422 0.57742 0.0
H1098 H 0.4272 1.0002 0.56342 0.0
H1099 H 0.43441 0.98444 0.59026 0.0
H1100 H 0.4509 0.01709 0.5891 0.0
H1101 H 0.43944 0.01863 0.64196 0.0
H1102 H 0.42287 0.98594 0.64327 0.0
H1103 H 0.40794 0.0028 0.6524 0.0
H1104 H 0.33679 0.97853 0.57932 0.0
H1105 H 0.32204 0.93447 0.58154 0.0
H1106 H 0.39355 0.94959 0.60857 0.0
C1107 C 0.42743 0.04721 0.59928 0.0
C1108 C 0.42022 0.06402 0.59098 0.0
C1109 C 0.39574 0.05554 0.58327 0.0
C1110 C 0.37868 0.03065 0.58361 0.0
C1111 C 0.38641 0.01453 0.59177 0.0
C1112 C 0.4102 0.02246 0.59947 0.0
C1113 C 0.41405 0.00138 0.60644 0.0
C1114 C 0.43274 1.00075 0.58609 0.0
C1115 C 0.42151 0.00225 0.63789 0.0
C1116 C 0.38879 0.98032 0.60104 0.0
C1117 C 0.37306 0.98827 0.5928 0.0
C1118 C 0.3489 0.97209 0.58592 0.0
C1119 C 0.34069 0.94713 0.58725 0.0
C1120 C 0.35663 0.93865 0.59529 0.0
C1121 C 0.3809 0.95553 0.60252 0.0
H1122 H 0.59925 0.64784 0.94142 0.0
H1123 H 0.57079 0.63397 0.85494 0.0
H1124 H 0.59347 0.61291 0.84414 0.0
H1125 H 0.6601 0.65492 0.92377 0.0
H1126 H 0.66047 0.63924 0.95572 0.0
H1127 H 0.64505 0.65655 0.95567 0.0
H1128 H 0.60559 0.61851 0.97252 0.0
H1129 H 0.62078 0.60104 0.97236 0.0
H1130 H 0.5934 0.59095 0.95184 0.0
H1131 H 0.61464 0.58955 0.84389 0.0
H1132 H 0.63444 0.56555 0.85378 0.0
H1133 H 0.64966 0.59337 0.94064 0.0
C1134 C 0.59851 0.64103 0.92 0.0
C1135 C 0.58355 0.64274 0.89885 0.0
C1136 C 0.58229 0.63294 0.87133 0.0
C1137 C 0.59513 0.62099 0.86498 0.0
C1138 C 0.60913 0.61889 0.88643 0.0
C1139 C 0.61108 0.62869 0.91336 0.0
C1140 C 0.62569 0.62182 0.9331 0.0
C1141 C 0.64923 0.64448 0.94262 0.0
C1142 C 0.61045 0.60721 0.95898 0.0
C1143 C 0.63099 0.60613 0.91322 0.0
C1144 C 0.62141 0.60496 0.88636 0.0
C1145 C 0.62255 0.59057 0.8647 0.0
C1146 C 0.63373 0.5769 0.87059 0.0
C1147 C 0.64367 0.57766 0.89792 0.0
C1148 C 0.64248 0.59268 0.91944 0.0
H1149 H 0.94631 0.55332 0.39699 0.0
H1150 H 0.93047 0.60929 0.42373 0.0
H1151 H 0.9744 0.63911 0.42484 0.0
H1152 H 0.99793 0.57183 0.44099 0.0
H1153 H 0.01457 0.56489 0.41509 0.0
H1154 H 0.9819 0.54836 0.41478 0.0
H1155 H 0.98201 0.56027 0.36174 0.0
H1156 H 0.01471 0.57681 0.36188 0.0
H1157 H 0.99819 0.59186 0.35168 0.0
H1158 H 0.02011 0.66231 0.42518 0.0
H1159 H 0.06421 0.67722 0.42453 0.0
H1160 H 0.05007 0.60603 0.39751 0.0
C1161 C 0.95207 0.57191 0.40279 0.0
C1162 C 0.935 0.57904 0.4102 0.0
C1163 C 0.94325 0.60347 0.4179 0.0
C1164 C 0.96815 0.62053 0.41857 0.0
C1165 C 0.98452 0.61285 0.41141 0.0
C1166 C 0.97683 0.58914 0.40359 0.0
C1167 C 0.99813 0.58535 0.39776 0.0
C1168 C 0.99812 0.56649 0.41839 0.0
C1169 C 0.99826 0.57815 0.3664 0.0
C1170 C 0.01903 0.61057 0.40389 0.0
C1171 C 0.01082 0.62619 0.4116 0.0
C1172 C 0.02676 0.65028 0.41898 0.0
C1173 C 0.05176 0.65857 0.41858 0.0
C1174 C 0.06054 0.64281 0.41089 0.0
C1175 C 0.0439 0.61855 0.4033 0.0
H1176 H 0.44553 0.05354 0.90962 0.0
H1177 H 0.38687 0.06817 0.92583 0.0
H1178 H 0.35772 0.02397 0.92724 0.0
H1179 H 0.41254 0.00244 0.86384 0.0
H1180 H 0.42688 0.98616 0.8774 0.0
H1181 H 0.44293 0.01883 0.87803 0.0
H1182 H 0.44965 0.01832 0.93265 0.0
H1183 H 0.43369 0.98564 0.93218 0.0
H1184 H 0.42387 0.00148 0.95577 0.0
H1185 H 0.33492 0.97785 0.92542 0.0
H1186 H 0.32072 0.93385 0.92255 0.0
H1187 H 0.39483 0.95021 0.90863 0.0
C1188 C 0.42656 0.04747 0.91356 0.0
C1189 C 0.41841 0.06423 0.91759 0.0
C1190 C 0.39347 0.05559 0.92272 0.0
C1191 C 0.3768 0.03055 0.92351 0.0
C1192 C 0.38545 0.01449 0.91925 0.0
C1193 C 0.40978 0.02265 0.91454 0.0
C1194 C 0.41455 0.00179 0.91066 0.0
C1195 C 0.42483 0.00235 0.8807 0.0
C1196 C 0.43144 0.00182 0.93423 0.0
C1197 C 0.38909 0.98055 0.91387 0.0
C1198 C 0.37249 0.98818 0.91868 0.0
C1199 C 0.34778 0.97169 0.92179 0.0
C1200 C 0.33988 0.94678 0.92008 0.0
C1201 C 0.35669 0.93868 0.91548 0.0
C1202 C 0.38157 0.95585 0.91234 0.0
H1203 H 0.39691 0.44741 0.4048 0.0
H1204 H 0.32612 0.38974 0.4319 0.0
H1205 H 0.34194 0.36128 0.43376 0.0
H1206 H 0.41124 0.41049 0.35952 0.0
H1207 H 0.44298 0.42626 0.36888 0.0
H1208 H 0.42603 0.442 0.36984 0.0
H1209 H 0.43858 0.45379 0.42273 0.0
H1210 H 0.45553 0.43804 0.42195 0.0
H1211 H 0.43231 0.43033 0.44858 0.0
H1212 H 0.36581 0.3393 0.43337 0.0
H1213 H 0.3956 0.3252 0.4293 0.0
H1214 H 0.45042 0.39716 0.40165 0.0
C1215 C 0.38473 0.42878 0.4111 0.0
C1216 C 0.36029 0.42076 0.41824 0.0
C1217 C 0.34491 0.39625 0.42633 0.0
C1218 C 0.35373 0.37997 0.42748 0.0
C1219 C 0.37795 0.38849 0.42039 0.0
C1220 C 0.3932 0.4123 0.41225 0.0
C1221 C 0.41843 0.41684 0.40552 0.0
C1222 C 0.42505 0.42433 0.37407 0.0
C1223 C 0.43732 0.43588 0.42592 0.0
C1224 C 0.415 0.39188 0.41115 0.0
C1225 C 0.39157 0.37579 0.41982 0.0
C1226 C 0.3842 0.35172 0.42652 0.0
C1227 C 0.40123 0.34389 0.42419 0.0
C1228 C 0.42527 0.36007 0.41511 0.0
C1229 C 0.43215 0.38435 0.40856 0.0
H1230 H 0.05501 0.44685 0.90776 0.0
H1231 H 0.07149 0.39128 0.93425 0.0
H1232 H 0.0274 0.36178 0.93821 0.0
H1233 H 0.00426 0.42923 0.95459 0.0
H1234 H 0.98752 0.43629 0.92896 0.0
H1235 H 0.0202 0.4526 0.92824 0.0
H1236 H 0.01946 0.44056 0.87512 0.0
H1237 H 0.98679 0.42422 0.87567 0.0
H1238 H 0.00301 0.40895 0.86517 0.0
H1239 H 0.9809 0.33847 0.93902 0.0
H1240 H 0.93673 0.32363 0.93663 0.0
H1241 H 0.9519 0.39515 0.90972 0.0
C1242 C 0.04941 0.42847 0.91436 0.0
C1243 C 0.06665 0.42131 0.92065 0.0
C1244 C 0.05855 0.39712 0.92933 0.0
C1245 C 0.03357 0.38028 0.93163 0.0
C1246 C 0.01705 0.38801 0.92525 0.0
C1247 C 0.02472 0.41158 0.91684 0.0
C1248 C 0.00354 0.41556 0.91129 0.0
C1249 C 0.00391 0.43454 0.93201 0.0
C1250 C 0.00318 0.42274 0.87995 0.0
C1251 C 0.98262 0.39049 0.91768 0.0
C1252 C 0.99067 0.3748 0.92577 0.0
C1253 C 0.97445 0.35064 0.93272 0.0
C1254 C 0.94942 0.34238 0.93132 0.0
C1255 C 0.94091 0.35824 0.92298 0.0
C1256 C 0.95782 0.38257 0.91614 0.0
H1257 H 0.56628 0.9486 0.44126 0.0
H1258 H 0.61293 0.93335 0.38798 0.0
H1259 H 0.64141 0.97739 0.3828 0.0
H1260 H 0.57279 0.99853 0.40173 0.0
H1261 H 0.57265 0.01566 0.43237 0.0
H1262 H 0.5571 0.98304 0.43393 0.0
H1263 H 0.58201 0.98508 0.47878 0.0
H1264 H 0.59757 0.01775 0.47745 0.0
H1265 H 0.61469 0.00215 0.47735 0.0
H1266 H 0.66363 0.0232 0.38136 0.0
H1267 H 0.67772 0.06714 0.38361 0.0
H1268 H 0.61605 0.05214 0.43717 0.0
C1269 C 0.58268 0.95452 0.42887 0.0
C1270 C 0.5875 0.93759 0.41514 0.0
C1271 C 0.60897 0.94603 0.39879 0.0
C1272 C 0.62524 0.971 0.39574 0.0
C1273 C 0.61977 0.98724 0.40921 0.0
C1274 C 0.59903 0.97933 0.42552 0.0
C1275 C 0.59674 1.00045 0.43665 0.0
C1276 C 0.57344 0.99935 0.42549 0.0
C1277 C 0.59783 0.00141 0.46951 0.0
C1278 C 0.61919 0.02148 0.42363 0.0
C1279 C 0.63236 0.01352 0.40809 0.0
C1280 C 0.65354 0.02965 0.39362 0.0
C1281 C 0.66139 0.05455 0.39499 0.0
C1282 C 0.64799 0.06302 0.41055 0.0
C1283 C 0.6267 0.04621 0.42514 0.0
H1284 H 0.46029 0.58971 0.94588 0.0
H1285 H 0.51587 0.63045 0.00928 0.0
H1286 H 0.48952 0.60283 0.04699 0.0
H1287 H 0.40929 0.57712 0.98914 0.0
H1288 H 0.3903 0.5467 0.97592 0.0
H1289 H 0.41372 0.56925 0.95348 0.0
H1290 H 0.4322 0.54135 0.94668 0.0
H1291 H 0.40876 0.51866 0.96902 0.0
H1292 H 0.44024 0.53 0.97766 0.0
H1293 H 0.45631 0.57291 0.07839 0.0
H1294 H 0.4192 0.54018 0.10101 0.0
H1295 H 0.38589 0.51705 0.0174 0.0
C1296 C 0.46694 0.59265 0.96766 0.0
C1297 C 0.49012 0.61223 0.97465 0.0
C1298 C 0.49821 0.61551 1.0034 0.0
C1299 C 0.48337 0.59996 0.02502 0.0
C1300 C 0.46055 0.58099 0.01753 0.0
C1301 C 0.45244 0.57703 0.98955 0.0
C1302 C 0.42711 0.55519 0.98744 0.0
C1303 C 0.40904 0.56251 0.97581 0.0
C1304 C 0.42709 0.53511 0.96912 0.0
C1305 C 0.42219 0.54779 0.01863 0.0
C1306 C 0.44168 0.56303 0.03563 0.0
C1307 C 0.44103 0.56064 0.0653 0.0
C1308 C 0.41989 0.54208 0.07796 0.0
C1309 C 0.39987 0.52602 0.06092 0.0
C1310 C 0.40112 0.52888 0.03088 0.0
H1311 H 0.88263 0.40498 0.5442 0.0
H1312 H 0.80545 0.35336 0.54902 0.0
H1313 H 0.79734 0.37898 0.51617 0.0
H1314 H 0.87741 0.45912 0.54231 0.0
H1315 H 0.90237 0.47469 0.51774 0.0
H1316 H 0.9018 0.4524 0.54196 0.0
H1317 H 0.90602 0.42898 0.49905 0.0
H1318 H 0.90635 0.45107 0.47467 0.0
H1319 H 0.8843 0.41937 0.47025 0.0
H1320 H 0.79791 0.4099 0.48144 0.0
H1321 H 0.80695 0.44487 0.45022 0.0
H1322 H 0.88369 0.47616 0.46875 0.0
C1323 C 0.864 0.39915 0.53855 0.0
C1324 C 0.84465 0.3772 0.54921 0.0
C1325 C 0.82054 0.37017 0.54121 0.0
C1326 C 0.81577 0.38455 0.52247 0.0
C1327 C 0.8353 0.40594 0.51201 0.0
C1328 C 0.85892 0.41331 0.51997 0.0
C1329 C 0.87668 0.43707 0.50582 0.0
C1330 C 0.89037 0.457 0.5283 0.0
C1331 C 0.89438 0.43392 0.48629 0.0
C1332 C 0.8594 0.44193 0.48859 0.0
C1333 C 0.83561 0.42372 0.49231 0.0
C1334 C 0.81647 0.42428 0.47844 0.0
C1335 C 0.82178 0.44415 0.46066 0.0
C1336 C 0.846 0.4632 0.45703 0.0
C1337 C 0.86499 0.46186 0.47105 0.0
H1338 H 0.38043 0.86283 0.99542 0.0
H1339 H 0.40264 0.85104 0.912 0.0
H1340 H 0.43779 0.85079 0.93406 0.0
H1341 H 0.43945 0.9022 0.02327 0.0
H1342 H 0.43263 0.88979 0.05894 0.0
H1343 H 0.40887 0.88861 0.03683 0.0
H1344 H 0.38374 0.84197 0.04338 0.0
H1345 H 0.40736 0.84302 0.06567 0.0
H1346 H 0.3972 0.82367 0.03459 0.0
H1347 H 0.4718 0.85466 0.96431 0.0
H1348 H 0.50083 0.85842 1.00169 0.0
H1349 H 0.45555 0.86508 0.06635 0.0
C1350 C 0.39263 0.86004 0.98187 0.0
C1351 C 0.38891 0.85703 0.95199 0.0
C1352 C 0.40515 0.85331 0.93493 0.0
C1353 C 0.42519 0.85322 0.94725 0.0
C1354 C 0.42851 0.85652 0.9767 0.0
C1355 C 0.41253 0.85951 0.99389 0.0
C1356 C 0.42023 0.86241 0.02502 0.0
C1357 C 0.42562 0.88723 0.03669 0.0
C1358 C 0.40099 0.84152 0.04324 0.0
C1359 C 0.44322 0.86092 0.02256 0.0
C1360 C 0.44771 0.85773 0.99443 0.0
C1361 C 0.46836 0.85688 0.98646 0.0
C1362 C 0.48478 0.85916 0.00782 0.0
C1363 C 0.48035 0.86193 0.03687 0.0
C1364 C 0.45924 0.86274 0.04433 0.0
H1365 H 0.52576 0.38236 0.48705 0.0
H1366 H 0.55731 0.40718 0.4029 0.0
H1367 H 0.59433 0.44031 0.42518 0.0
H1368 H 0.54844 0.44056 0.51859 0.0
H1369 H 0.55423 0.43173 0.55302 0.0
H1370 H 0.53062 0.40955 0.53048 0.0
H1371 H 0.55045 0.38255 0.53297 0.0
H1372 H 0.57418 0.40469 0.55549 0.0
H1373 H 0.5818 0.39507 0.52275 0.0
H1374 H 0.6268 0.47194 0.45638 0.0
H1375 H 0.65295 0.49956 0.49442 0.0
H1376 H 0.60101 0.45333 0.55848 0.0
C1377 C 0.5405 0.39472 0.47331 0.0
C1378 C 0.53868 0.39227 0.44324 0.0
C1379 C 0.55836 0.40874 0.42599 0.0
C1380 C 0.57944 0.42758 0.43844 0.0
C1381 C 0.58063 0.42953 0.46817 0.0
C1382 C 0.56175 0.41348 0.4854 0.0
C1383 C 0.56749 0.41981 0.51675 0.0
C1384 C 0.54911 0.42577 0.53051 0.0
C1385 C 0.56855 0.39931 0.53294 0.0
C1386 C 0.5924 0.44218 0.51445 0.0
C1387 C 0.59964 0.44744 0.48622 0.0
C1388 C 0.62145 0.46786 0.47857 0.0
C1389 C 0.63615 0.48344 0.50031 0.0
C1390 C 0.62907 0.47845 0.52935 0.0
C1391 C 0.60704 0.45737 0.53648 0.0
H1392 H 0.14598 0.52528 0.99514 0.0
H1393 H 0.12379 0.54054 0.91359 0.0
H1394 H 0.121 0.57432 0.93564 0.0
H1395 H 0.10786 0.53873 0.03985 0.0
H1396 H 0.13031 0.55276 0.06762 0.0
H1397 H 0.12999 0.52934 0.04564 0.0
H1398 H 0.17487 0.55832 0.03168 0.0
H1399 H 0.17533 0.58183 0.0536 0.0
H1400 H 0.18342 0.58752 0.01632 0.0
H1401 H 0.12033 0.60609 0.96632 0.0
H1402 H 0.12325 0.635 1.00342 0.0
H1403 H 0.14719 0.60018 0.06489 0.0
C1404 C 0.14042 0.53567 0.98199 0.0
C1405 C 0.135 0.53028 0.95269 0.0
C1406 C 0.12802 0.5444 0.93608 0.0
C1407 C 0.12634 0.56358 0.94842 0.0
C1408 C 0.13187 0.56848 0.97733 0.0
C1409 C 0.13888 0.55505 0.99391 0.0
C1410 C 0.14439 0.56456 0.02431 0.0
C1411 C 0.1271 0.54519 0.04561 0.0
C1412 C 0.17109 0.5736 0.03191 0.0
C1413 C 0.13936 0.58541 0.02219 0.0
C1414 C 0.13202 0.58723 0.99493 0.0
C1415 C 0.12611 0.6049 0.98773 0.0
C1416 C 0.1278 0.62121 0.00896 0.0
C1417 C 0.1355 0.61985 0.03697 0.0
C1418 C 0.14135 0.6017 0.04361 0.0
H1419 H 0.51746 0.11586 0.52426 0.0
H1420 H 0.55765 0.18574 0.56643 0.0
H1421 H 0.59442 0.1942 0.53921 0.0
H1422 H 0.56631 0.1024 0.52346 0.0
H1423 H 0.55811 0.08784 0.48897 0.0
H1424 H 0.53512 0.08744 0.51182 0.0
H1425 H 0.52247 0.10662 0.47122 0.0
H1426 H 0.54553 0.10723 0.44831 0.0
H1427 H 0.54495 0.13481 0.45532 0.0
H1428 H 0.62657 0.19526 0.50662 0.0
H1429 H 0.65228 0.18799 0.47306 0.0
H1430 H 0.5911 0.11712 0.45278 0.0
C1431 C 0.53402 0.13291 0.52784 0.0
C1432 C 0.53473 0.15018 0.54743 0.0
C1433 C 0.55674 0.17225 0.55157 0.0
C1434 C 0.57768 0.17724 0.53615 0.0
C1435 C 0.5763 0.15991 0.5168 0.0
C1436 C 0.55508 0.13811 0.51277 0.0
C1437 C 0.55846 0.12243 0.49097 0.0
C1438 C 0.55426 0.09862 0.50463 0.0
C1439 C 0.54187 0.11749 0.46491 0.0
C1440 C 0.58488 0.13883 0.48326 0.0
C1441 C 0.59483 0.16041 0.4983 0.0
C1442 C 0.61898 0.17843 0.49476 0.0
C1443 C 0.63342 0.17416 0.47559 0.0
C1444 C 0.62368 0.15202 0.46029 0.0
C1445 C 0.59904 0.13425 0.46411 0.0
H1446 H 0.52876 0.41716 0.04647 0.0
H1447 H 0.54849 0.36101 0.0414 0.0
H1448 H 0.58332 0.38746 0.01076 0.0
H1449 H 0.54327 0.43779 0.97494 0.0
H1450 H 0.55572 0.4695 0.98323 0.0
H1451 H 0.53283 0.44674 0.00599 0.0
H1452 H 0.56128 0.4648 0.04979 0.0
H1453 H 0.58421 0.48776 0.02719 0.0
H1454 H 0.59128 0.46851 0.04856 0.0
H1455 H 0.61379 0.41817 0.97795 0.0
H1456 H 0.6407 0.45317 0.94776 0.0
H1457 H 0.60302 0.49077 0.97533 0.0
C1458 C 0.54061 0.41059 0.03917 0.0
C1459 C 0.53594 0.38703 0.04629 0.0
C1460 C 0.55177 0.37902 0.03629 0.0
C1461 C 0.57157 0.39388 0.01882 0.0
C1462 C 0.57546 0.41682 0.01179 0.0
C1463 C 0.56068 0.42534 0.0219 0.0
C1464 C 0.56893 0.45072 0.01081 0.0
C1465 C 0.549 0.4512 0.99266 0.0
C1466 C 0.5769 0.46903 0.03557 0.0
C1467 C 0.59039 0.4549 0.99254 0.0
C1468 C 0.59369 0.43502 0.99337 0.0
C1469 C 0.6116 0.43398 0.97736 0.0
C1470 C 0.6267 0.4539 0.96017 0.0
C1471 C 0.62398 0.47467 0.95932 0.0
C1472 C 0.60562 0.47519 0.9758 0.0
H1473 H 0.13369 0.59224 0.44576 0.0
H1474 H 0.13105 0.63866 0.51204 0.0
H1475 H 0.13079 0.6108 0.54897 0.0
H1476 H 0.09368 0.5354 0.48083 0.0
H1477 H 0.11025 0.52084 0.46897 0.0
H1478 H 0.11037 0.5445 0.44768 0.0
H1479 H 0.15739 0.56847 0.44889 0.0
H1480 H 0.15741 0.5449 0.47021 0.0
H1481 H 0.17285 0.5758 0.48287 0.0
H1482 H 0.13163 0.57848 0.57872 0.0
H1483 H 0.13216 0.54297 0.59932 0.0
H1484 H 0.13325 0.51697 0.51381 0.0
C1485 C 0.13304 0.59651 0.46805 0.0
C1486 C 0.13242 0.61761 0.47607 0.0
C1487 C 0.1315 0.62256 0.50543 0.0
C1488 C 0.13138 0.60688 0.52657 0.0
C1489 C 0.13206 0.58626 0.51798 0.0
C1490 C 0.13275 0.58096 0.48945 0.0
C1491 C 0.13316 0.55747 0.48602 0.0
C1492 C 0.11051 0.53843 0.46993 0.0
C1493 C 0.1566 0.56194 0.47112 0.0
C1494 C 0.13268 0.55047 0.51709 0.0
C1495 C 0.13213 0.56738 0.53516 0.0
C1496 C 0.13196 0.56506 0.5648 0.0
C1497 C 0.1323 0.54486 0.57629 0.0
C1498 C 0.13267 0.52722 0.55816 0.0
C1499 C 0.13285 0.53012 0.52819 0.0
H1500 H 0.59419 0.143 0.0598 0.0
H1501 H 0.63688 0.1332 0.9943 0.0
H1502 H 0.61111 0.13628 0.95694 0.0
H1503 H 0.53662 0.10698 0.02519 0.0
H1504 H 0.52462 0.12603 0.0364 0.0
H1505 H 0.54708 0.12412 0.05793 0.0
H1506 H 0.57448 0.17088 0.05554 0.0
H1507 H 0.55214 0.17291 0.03385 0.0
H1508 H 0.5829 0.18568 0.02118 0.0
H1509 H 0.58101 0.14071 0.92669 0.0
H1510 H 0.54648 0.14282 0.90566 0.0
H1511 H 0.52217 0.148 0.99075 0.0
C1512 C 0.59814 0.14159 0.03758 0.0
C1513 C 0.61758 0.13796 0.0299 0.0
C1514 C 0.62205 0.13595 1.00064 0.0
C1515 C 0.60759 0.13779 0.97927 0.0
C1516 C 0.5886 0.14143 0.98752 0.0
C1517 C 0.58367 0.14307 0.01596 0.0
C1518 C 0.56151 0.14595 0.01904 0.0
C1519 C 0.54126 0.12449 0.03561 0.0
C1520 C 0.56816 0.17031 0.03324 0.0
C1521 C 0.55474 0.14561 0.98789 0.0
C1522 C 0.57078 0.14327 0.97007 0.0
C1523 C 0.56831 0.14252 0.94042 0.0
C1524 C 0.54869 0.1438 0.92868 0.0
C1525 C 0.53166 0.14556 0.94656 0.0
C1526 C 0.53491 0.14668 0.97654 0.0
H1527 H 0.45383 0.59353 0.57008 0.0
H1528 H 0.49592 0.64684 0.50516 0.0
H1529 H 0.46626 0.62126 0.46838 0.0
H1530 H 0.43999 0.54221 0.52678 0.0
H1531 H 0.40986 0.52344 0.54093 0.0
H1532 H 0.43298 0.54694 0.56274 0.0
H1533 H 0.40541 0.56565 0.5707 0.0
H1534 H 0.38216 0.54217 0.54892 0.0
H1535 H 0.39348 0.57363 0.54021 0.0
H1536 H 0.43271 0.58987 0.43857 0.0
H1537 H 0.39896 0.5531 0.41681 0.0
H1538 H 0.37994 0.51858 0.50021 0.0
C1539 C 0.4565 0.59991 0.54818 0.0
C1540 C 0.47695 0.62222 0.54039 0.0
C1541 C 0.48029 0.6298 0.51148 0.0
C1542 C 0.46352 0.61545 0.49049 0.0
C1543 C 0.44367 0.59341 0.49871 0.0
C1544 C 0.44017 0.58551 0.52678 0.0
C1545 C 0.41829 0.56024 0.52942 0.0
C1546 C 0.42573 0.54214 0.54062 0.0
C1547 C 0.39867 0.56044 0.54844 0.0
C1548 C 0.41019 0.55517 0.49845 0.0
C1549 C 0.42488 0.57472 0.48121 0.0
C1550 C 0.42106 0.57443 0.45184 0.0
C1551 C 0.40184 0.55349 0.43968 0.0
C1552 C 0.38692 0.53301 0.45681 0.0
C1553 C 0.39112 0.53396 0.4866 0.0
H1554 H 0.8573 0.37943 0.998 0.0
H1555 H 0.87997 0.41607 0.91602 0.0
H1556 H 0.88265 0.45281 0.93723 0.0
H1557 H 0.81992 0.40539 0.01811 0.0
H1558 H 0.8279 0.40807 0.05545 0.0
H1559 H 0.82791 0.38452 0.03404 0.0
H1560 H 0.8726 0.39974 0.04832 0.0
H1561 H 0.87273 0.42334 0.06975 0.0
H1562 H 0.89517 0.43102 0.04211 0.0
H1563 H 0.88431 0.48584 0.96711 0.0
H1564 H 0.8829 0.51301 1.00362 0.0
H1565 H 0.85736 0.45503 0.06634 0.0
C1566 C 0.86283 0.39521 0.98457 0.0
C1567 C 0.86851 0.39495 0.95537 0.0
C1568 C 0.87551 0.41586 0.93841 0.0
C1569 C 0.87712 0.43683 0.95027 0.0
C1570 C 0.87145 0.43655 0.97907 0.0
C1571 C 0.86425 0.41629 0.99601 0.0
C1572 C 0.85884 0.42085 0.02629 0.0
C1573 C 0.83205 0.40369 0.03391 0.0
C1574 C 0.87585 0.41861 0.04789 0.0
C1575 C 0.86436 0.44691 0.0237 0.0
C1576 C 0.87171 0.45557 0.99627 0.0
C1577 C 0.87843 0.47925 0.98862 0.0
C1578 C 0.87762 0.49455 0.00955 0.0
C1579 C 0.86994 0.48611 0.03777 0.0
C1580 C 0.86312 0.46191 0.04488 0.0
H1581 H 0.47546 0.84808 0.49222 0.0
H1582 H 0.46286 0.87159 0.41004 0.0
H1583 H 0.42848 0.87417 0.43062 0.0
H1584 H 0.41111 0.81101 0.51154 0.0
H1585 H 0.41656 0.81886 0.5489 0.0
H1586 H 0.4397 0.81804 0.5275 0.0
H1587 H 0.47015 0.86239 0.54204 0.0
H1588 H 0.4471 0.86339 0.56336 0.0
H1589 H 0.46248 0.88573 0.53578 0.0
H1590 H 0.39752 0.87687 0.46051 0.0
H1591 H 0.36986 0.87708 0.49722 0.0
H1592 H 0.40095 0.85015 0.56003 0.0
C1593 C 0.4653 0.85355 0.47853 0.0
C1594 C 0.47181 0.85966 0.44953 0.0
C1595 C 0.45811 0.86673 0.43226 0.0
C1596 C 0.43859 0.86829 0.44377 0.0
C1597 C 0.43281 0.86242 0.47249 0.0
C1598 C 0.44553 0.85491 0.4896 0.0
C1599 C 0.43553 0.84975 0.51984 0.0
C1600 C 0.4251 0.82281 0.52738 0.0
C1601 C 0.45498 0.86631 0.54152 0.0
C1602 C 0.41557 0.85609 0.5172 0.0
C1603 C 0.41438 0.86335 0.48966 0.0
C1604 C 0.39809 0.87097 0.48207 0.0
C1605 C 0.38251 0.87109 0.50312 0.0
C1606 C 0.38319 0.86353 0.53144 0.0
C1607 C 0.39989 0.85582 0.5385 0.0
loop_
_geom_bond_atom_site_label_1
_geom_bond_atom_site_label_2
_geom_bond_distance
_geom_bond_site_symmetry_2
_ccdc_geom_bond_type
In0 O1 2.294 . S
In0 O2 2.326 . S
In0 O6 2.266 . S
In0 O7 2.326 . S
In0 O8 2.266 . S
In0 O9 2.326 . S
In0 O11 2.294 . S
In0 O12 2.326 . S
O1 In0 2.294 . S
O1 C10 1.240 . S
O2 In0 2.326 . S
O2 C10 1.252 . S
C3 O6 1.252 . S
C3 O7 1.260 . S
C4 O11 1.240 . S
C4 O12 1.252 . S
C5 O8 1.252 . S
C5 O9 1.260 . S
O6 In0 2.266 . S
O6 C3 1.252 . S
O7 In0 2.326 . S
O7 C3 1.260 . S
O8 In0 2.266 . S
O8 C5 1.252 . S
O9 In0 2.326 . S
O9 C5 1.260 . S
C10 O1 1.240 . S
C10 O2 1.252 . S
O11 In0 2.294 . S
O11 C4 1.240 . S
O12 In0 2.326 . S
O12 C4 1.252 . S
In13 O14 2.294 . S
In13 O15 2.326 . S
In13 O19 2.266 . S
In13 O20 2.326 . S
In13 O21 2.266 . S
In13 O22 2.326 . S
In13 O24 2.294 . S
In13 O25 2.326 . S
O14 In13 2.294 . S
O14 C23 1.240 . S
O15 In13 2.326 . S
O15 C23 1.252 . S
C16 O19 1.252 . S
C16 O20 1.260 . S
C17 O24 1.240 . S
C17 O25 1.252 . S
C18 O21 1.252 . S
C18 O22 1.260 . S
O19 In13 2.266 . S
O19 C16 1.252 . S
O20 In13 2.326 . S
O20 C16 1.260 . S
O21 In13 2.266 . S
O21 C18 1.252 . S
O22 In13 2.326 . S
O22 C18 1.260 . S
C23 O14 1.240 . S
C23 O15 1.252 . S
O24 In13 2.294 . S
O24 C17 1.240 . S
O25 In13 2.326 . S
O25 C17 1.252 . S
In26 O27 2.294 . S
In26 O28 2.326 . S
In26 O32 2.266 . S
In26 O33 2.326 . S
In26 O34 2.266 . S
In26 O35 2.326 . S
In26 O37 2.294 . S
In26 O38 2.326 . S
O27 In26 2.294 . S
O27 C36 1.240 . S
O28 In26 2.326 . S
O28 C36 1.252 . S
C29 O32 1.252 . S
C29 O33 1.260 . S
C30 O37 1.240 . S
C30 O38 1.252 . S
C31 O34 1.252 . S
C31 O35 1.260 . S
O32 In26 2.266 . S
O32 C29 1.252 . S
O33 In26 2.326 . S
O33 C29 1.260 . S
O34 In26 2.266 . S
O34 C31 1.252 . S
O35 In26 2.326 . S
O35 C31 1.260 . S
C36 O27 1.240 . S
C36 O28 1.252 . S
O37 In26 2.294 . S
O37 C30 1.240 . S
O38 In26 2.326 . S
O38 C30 1.252 . S
In39 O40 2.294 . S
In39 O41 2.326 . S
In39 O45 2.266 . S
In39 O46 2.326 . S
In39 O47 2.266 . S
In39 O48 2.326 . S
In39 O50 2.294 . S
In39 O51 2.326 . S
O40 In39 2.294 . S
O40 C49 1.240 . S
O41 In39 2.326 . S
O41 C49 1.252 . S
C42 O45 1.252 . S
C42 O46 1.260 . S
C43 O50 1.240 . S
C43 O51 1.252 . S
C44 O47 1.252 . S
C44 O48 1.260 . S
O45 In39 2.266 . S
O45 C42 1.252 . S
O46 In39 2.326 . S
O46 C42 1.260 . S
O47 In39 2.266 . S
O47 C44 1.252 . S
O48 In39 2.326 . S
O48 C44 1.260 . S
C49 O40 1.240 . S
C49 O41 1.252 . S
O50 In39 2.294 . S
O50 C43 1.240 . S
O51 In39 2.326 . S
O51 C43 1.252 . S
In52 O53 2.294 . S
In52 O54 2.326 . S
In52 O58 2.266 . S
In52 O59 2.326 . S
In52 O60 2.266 . S
In52 O61 2.326 . S
In52 O63 2.294 . S
In52 O64 2.326 . S
O53 In52 2.294 . S
O53 C62 1.240 . S
O54 In52 2.326 . S
O54 C62 1.252 . S
C55 O58 1.252 . S
C55 O59 1.260 . S
C56 O63 1.240 . S
C56 O64 1.252 . S
C57 O60 1.252 . S
C57 O61 1.260 . S
O58 In52 2.266 . S
O58 C55 1.252 . S
O59 In52 2.326 . S
O59 C55 1.260 . S
O60 In52 2.266 . S
O60 C57 1.252 . S
O61 In52 2.326 . S
O61 C57 1.260 . S
C62 O53 1.240 . S
C62 O54 1.252 . S
O63 In52 2.294 . S
O63 C56 1.240 . S
O64 In52 2.326 . S
O64 C56 1.252 . S
In65 O66 2.294 . S
In65 O67 2.326 . S
In65 O71 2.266 . S
In65 O72 2.326 . S
In65 O73 2.266 . S
In65 O74 2.326 . S
In65 O76 2.294 . S
In65 O77 2.326 . S
O66 In65 2.294 . S
O66 C75 1.240 . S
O67 In65 2.326 . S
O67 C75 1.252 . S
C68 O71 1.252 . S
C68 O72 1.260 . S
C69 O76 1.240 . S
C69 O77 1.252 . S
C70 O73 1.252 . S
C70 O74 1.260 . S
O71 In65 2.266 . S
O71 C68 1.252 . S
O72 In65 2.326 . S
O72 C68 1.260 . S
O73 In65 2.266 . S
O73 C70 1.252 . S
O74 In65 2.326 . S
O74 C70 1.260 . S
C75 O66 1.240 . S
C75 O67 1.252 . S
O76 In65 2.294 . S
O76 C69 1.240 . S
O77 In65 2.326 . S
O77 C69 1.252 . S
In78 O79 2.294 . S
In78 O80 2.326 . S
In78 O84 2.266 . S
In78 O85 2.326 . S
In78 O86 2.266 . S
In78 O87 2.326 . S
In78 O89 2.294 . S
In78 O90 2.326 . S
O79 In78 2.294 . S
O79 C88 1.240 . S
O80 In78 2.326 . S
O80 C88 1.252 . S
C81 O84 1.252 . S
C81 O85 1.260 . S
C82 O89 1.240 . S
C82 O90 1.252 . S
C83 O86 1.252 . S
C83 O87 1.260 . S
O84 In78 2.266 . S
O84 C81 1.252 . S
O85 In78 2.326 . S
O85 C81 1.260 . S
O86 In78 2.266 . S
O86 C83 1.252 . S
O87 In78 2.326 . S
O87 C83 1.260 . S
C88 O79 1.240 . S
C88 O80 1.252 . S
O89 In78 2.294 . S
O89 C82 1.240 . S
O90 In78 2.326 . S
O90 C82 1.252 . S
In91 O92 2.294 . S
In91 O93 2.326 . S
In91 O97 2.266 . S
In91 O98 2.326 . S
In91 O99 2.266 . S
In91 O100 2.326 . S
In91 O102 2.294 . S
In91 O103 2.326 . S
O92 In91 2.294 . S
O92 C101 1.240 . S
O93 In91 2.326 . S
O93 C101 1.252 . S
C94 O97 1.252 . S
C94 O98 1.260 . S
C95 O102 1.240 . S
C95 O103 1.252 . S
C96 O99 1.252 . S
C96 O100 1.260 . S
O97 In91 2.266 . S
O97 C94 1.252 . S
O98 In91 2.326 . S
O98 C94 1.260 . S
O99 In91 2.266 . S
O99 C96 1.252 . S
O100 In91 2.326 . S
O100 C96 1.260 . S
C101 O92 1.240 . S
C101 O93 1.252 . S
O102 In91 2.294 . S
O102 C95 1.240 . S
O103 In91 2.326 . S
O103 C95 1.252 . S
In104 O105 2.294 . S
In104 O106 2.326 . S
In104 O110 2.266 . S
In104 O111 2.326 . S
In104 O112 2.266 . S
In104 O113 2.326 . S
In104 O115 2.294 . S
In104 O116 2.326 . S
O105 In104 2.294 . S
O105 C114 1.240 . S
O106 In104 2.326 . S
O106 C114 1.252 . S
C107 O110 1.252 . S
C107 O111 1.260 . S
C108 O115 1.240 . S
C108 O116 1.252 . S
C109 O112 1.252 . S
C109 O113 1.260 . S
O110 In104 2.266 . S
O110 C107 1.252 . S
O111 In104 2.326 . S
O111 C107 1.260 . S
O112 In104 2.266 . S
O112 C109 1.252 . S
O113 In104 2.326 . S
O113 C109 1.260 . S
C114 O105 1.240 . S
C114 O106 1.252 . S
O115 In104 2.294 . S
O115 C108 1.240 . S
O116 In104 2.326 . S
O116 C108 1.252 . S
In117 O118 2.294 . S
In117 O119 2.326 . S
In117 O123 2.266 . S
In117 O124 2.326 . S
In117 O125 2.266 . S
In117 O126 2.326 . S
In117 O128 2.294 . S
In117 O129 2.326 . S
O118 In117 2.294 . S
O118 C127 1.240 . S
O119 In117 2.326 . S
O119 C127 1.252 . S
C120 O123 1.252 . S
C120 O124 1.260 . S
C121 O128 1.240 . S
C121 O129 1.252 . S
C122 O125 1.252 . S
C122 O126 1.260 . S
O123 In117 2.266 . S
O123 C120 1.252 . S
O124 In117 2.326 . S
O124 C120 1.260 . S
O125 In117 2.266 . S
O125 C122 1.252 . S
O126 In117 2.326 . S
O126 C122 1.260 . S
C127 O118 1.240 . S
C127 O119 1.252 . S
O128 In117 2.294 . S
O128 C121 1.240 . S
O129 In117 2.326 . S
O129 C121 1.252 . S
In130 O131 2.294 . S
In130 O132 2.326 . S
In130 O136 2.266 . S
In130 O137 2.326 . S
In130 O138 2.266 . S
In130 O139 2.326 . S
In130 O141 2.294 . S
In130 O142 2.326 . S
O131 In130 2.294 . S
O131 C140 1.240 . S
O132 In130 2.326 . S
O132 C140 1.252 . S
C133 O136 1.252 . S
C133 O137 1.260 . S
C134 O141 1.240 . S
C134 O142 1.252 . S
C135 O138 1.252 . S
C135 O139 1.260 . S
O136 In130 2.266 . S
O136 C133 1.252 . S
O137 In130 2.326 . S
O137 C133 1.260 . S
O138 In130 2.266 . S
O138 C135 1.252 . S
O139 In130 2.326 . S
O139 C135 1.260 . S
C140 O131 1.240 . S
C140 O132 1.252 . S
O141 In130 2.294 . S
O141 C134 1.240 . S
O142 In130 2.326 . S
O142 C134 1.252 . S
In143 O144 2.294 . S
In143 O145 2.326 . S
In143 O149 2.266 . S
In143 O150 2.326 . S
In143 O151 2.266 . S
In143 O152 2.326 . S
In143 O154 2.294 . S
In143 O155 2.326 . S
O144 In143 2.294 . S
O144 C153 1.240 . S
O145 In143 2.326 . S
O145 C153 1.252 . S
C146 O149 1.252 . S
C146 O150 1.260 . S
C147 O154 1.240 . S
C147 O155 1.252 . S
C148 O151 1.252 . S
C148 O152 1.260 . S
O149 In143 2.266 . S
O149 C146 1.252 . S
O150 In143 2.326 . S
O150 C146 1.260 . S
O151 In143 2.266 . S
O151 C148 1.252 . S
O152 In143 2.326 . S
O152 C148 1.260 . S
C153 O144 1.240 . S
C153 O145 1.252 . S
O154 In143 2.294 . S
O154 C147 1.240 . S
O155 In143 2.326 . S
O155 C147 1.252 . S
In156 O157 2.294 . S
In156 O158 2.326 . S
In156 O162 2.266 . S
In156 O163 2.326 . S
In156 O164 2.266 . S
In156 O165 2.326 . S
In156 O167 2.294 . S
In156 O168 2.326 . S
O157 In156 2.294 . S
O157 C166 1.240 . S
O158 In156 2.326 . S
O158 C166 1.252 . S
C159 O162 1.252 . S
C159 O163 1.260 . S
C160 O167 1.240 . S
C160 O168 1.252 . S
C161 O164 1.252 . S
C161 O165 1.260 . S
O162 In156 2.266 . S
O162 C159 1.252 . S
O163 In156 2.326 . S
O163 C159 1.260 . S
O164 In156 2.266 . S
O164 C161 1.252 . S
O165 In156 2.326 . S
O165 C161 1.260 . S
C166 O157 1.240 . S
C166 O158 1.252 . S
O167 In156 2.294 . S
O167 C160 1.240 . S
O168 In156 2.326 . S
O168 C160 1.252 . S
In169 O170 2.294 . S
In169 O171 2.326 . S
In169 O175 2.266 . S
In169 O176 2.326 . S
In169 O177 2.266 . S
In169 O178 2.326 . S
In169 O180 2.294 . S
In169 O181 2.326 . S
O170 In169 2.294 . S
O170 C179 1.240 . S
O171 In169 2.326 . S
O171 C179 1.252 . S
C172 O175 1.252 . S
C172 O176 1.260 . S
C173 O180 1.240 . S
C173 O181 1.252 . S
C174 O177 1.252 . S
C174 O178 1.260 . S
O175 In169 2.266 . S
O175 C172 1.252 . S
O176 In169 2.326 . S
O176 C172 1.260 . S
O177 In169 2.266 . S
O177 C174 1.252 . S
O178 In169 2.326 . S
O178 C174 1.260 . S
C179 O170 1.240 . S
C179 O171 1.252 . S
O180 In169 2.294 . S
O180 C173 1.240 . S
O181 In169 2.326 . S
O181 C173 1.252 . S
In182 O183 2.294 . S
In182 O184 2.326 . S
In182 O188 2.266 . S
In182 O189 2.326 . S
In182 O190 2.266 . S
In182 O191 2.326 . S
In182 O193 2.294 . S
In182 O194 2.326 . S
O183 In182 2.294 . S
O183 C192 1.240 . S
O184 In182 2.326 . S
O184 C192 1.252 . S
C185 O188 1.252 . S
C185 O189 1.260 . S
C186 O193 1.240 . S
C186 O194 1.252 . S
C187 O190 1.252 . S
C187 O191 1.260 . S
O188 In182 2.266 . S
O188 C185 1.252 . S
O189 In182 2.326 . S
O189 C185 1.260 . S
O190 In182 2.266 . S
O190 C187 1.252 . S
O191 In182 2.326 . S
O191 C187 1.260 . S
C192 O183 1.240 . S
C192 O184 1.252 . S
O193 In182 2.294 . S
O193 C186 1.240 . S
O194 In182 2.326 . S
O194 C186 1.252 . S
In195 O196 2.294 . S
In195 O197 2.326 . S
In195 O201 2.266 . S
In195 O202 2.326 . S
In195 O203 2.266 . S
In195 O204 2.326 . S
In195 O206 2.294 . S
In195 O207 2.326 . S
O196 In195 2.294 . S
O196 C205 1.240 . S
O197 In195 2.326 . S
O197 C205 1.252 . S
C198 O201 1.252 . S
C198 O202 1.260 . S
C199 O206 1.240 . S
C199 O207 1.252 . S
C200 O203 1.252 . S
C200 O204 1.260 . S
O201 In195 2.266 . S
O201 C198 1.252 . S
O202 In195 2.326 . S
O202 C198 1.260 . S
O203 In195 2.266 . S
O203 C200 1.252 . S
O204 In195 2.326 . S
O204 C200 1.260 . S
C205 O196 1.240 . S
C205 O197 1.252 . S
O206 In195 2.294 . S
O206 C199 1.240 . S
O207 In195 2.326 . S
O207 C199 1.252 . S
In208 O209 2.294 . S
In208 O210 2.326 . S
In208 O214 2.266 . S
In208 O215 2.326 . S
In208 O216 2.266 . S
In208 O217 2.326 . S
In208 O219 2.294 . S
In208 O220 2.326 . S
O209 In208 2.294 . S
O209 C218 1.240 . S
O210 In208 2.326 . S
O210 C218 1.252 . S
C211 O214 1.252 . S
C211 O215 1.260 . S
C212 O219 1.240 . S
C212 O220 1.252 . S
C213 O216 1.252 . S
C213 O217 1.260 . S
O214 In208 2.266 . S
O214 C211 1.252 . S
O215 In208 2.326 . S
O215 C211 1.260 . S
O216 In208 2.266 . S
O216 C213 1.252 . S
O217 In208 2.326 . S
O217 C213 1.260 . S
C218 O209 1.240 . S
C218 O210 1.252 . S
O219 In208 2.294 . S
O219 C212 1.240 . S
O220 In208 2.326 . S
O220 C212 1.252 . S
In221 O222 2.294 . S
In221 O223 2.326 . S
In221 O227 2.266 . S
In221 O228 2.326 . S
In221 O229 2.266 . S
In221 O230 2.326 . S
In221 O232 2.294 . S
In221 O233 2.326 . S
O222 In221 2.294 . S
O222 C231 1.240 . S
O223 In221 2.326 . S
O223 C231 1.252 . S
C224 O227 1.252 . S
C224 O228 1.260 . S
C225 O232 1.240 . S
C225 O233 1.252 . S
C226 O229 1.252 . S
C226 O230 1.260 . S
O227 In221 2.266 . S
O227 C224 1.252 . S
O228 In221 2.326 . S
O228 C224 1.260 . S
O229 In221 2.266 . S
O229 C226 1.252 . S
O230 In221 2.326 . S
O230 C226 1.260 . S
C231 O222 1.240 . S
C231 O223 1.252 . S
O232 In221 2.294 . S
O232 C225 1.240 . S
O233 In221 2.326 . S
O233 C225 1.252 . S
In234 O235 2.294 . S
In234 O236 2.326 . S
In234 O240 2.266 . S
In234 O241 2.326 . S
In234 O242 2.266 . S
In234 O243 2.326 . S
In234 O245 2.294 . S
In234 O246 2.326 . S
O235 In234 2.294 . S
O235 C244 1.240 . S
O236 In234 2.326 . S
O236 C244 1.252 . S
C237 O240 1.252 . S
C237 O241 1.260 . S
C238 O245 1.240 . S
C238 O246 1.252 . S
C239 O242 1.252 . S
C239 O243 1.260 . S
O240 In234 2.266 . S
O240 C237 1.252 . S
O241 In234 2.326 . S
O241 C237 1.260 . S
O242 In234 2.266 . S
O242 C239 1.252 . S
O243 In234 2.326 . S
O243 C239 1.260 . S
C244 O235 1.240 . S
C244 O236 1.252 . S
O245 In234 2.294 . S
O245 C238 1.240 . S
O246 In234 2.326 . S
O246 C238 1.252 . S
In247 O248 2.294 . S
In247 O249 2.326 . S
In247 O253 2.266 . S
In247 O254 2.326 . S
In247 O255 2.266 . S
In247 O256 2.326 . S
In247 O258 2.294 . S
In247 O259 2.326 . S
O248 In247 2.294 . S
O248 C257 1.240 . S
O249 In247 2.326 . S
O249 C257 1.252 . S
C250 O253 1.252 . S
C250 O254 1.260 . S
C251 O258 1.240 . S
C251 O259 1.252 . S
C252 O255 1.252 . S
C252 O256 1.260 . S
O253 In247 2.266 . S
O253 C250 1.252 . S
O254 In247 2.326 . S
O254 C250 1.260 . S
O255 In247 2.266 . S
O255 C252 1.252 . S
O256 In247 2.326 . S
O256 C252 1.260 . S
C257 O248 1.240 . S
C257 O249 1.252 . S
O258 In247 2.294 . S
O258 C251 1.240 . S
O259 In247 2.326 . S
O259 C251 1.252 . S
In260 O261 2.294 . S
In260 O262 2.326 . S
In260 O266 2.266 . S
In260 O267 2.326 . S
In260 O268 2.266 . S
In260 O269 2.326 . S
In260 O271 2.294 . S
In260 O272 2.326 . S
O261 In260 2.294 . S
O261 C270 1.240 . S
O262 In260 2.326 . S
O262 C270 1.252 . S
C263 O266 1.252 . S
C263 O267 1.260 . S
C264 O271 1.240 . S
C264 O272 1.252 . S
C265 O268 1.252 . S
C265 O269 1.260 . S
O266 In260 2.266 . S
O266 C263 1.252 . S
O267 In260 2.326 . S
O267 C263 1.260 . S
O268 In260 2.266 . S
O268 C265 1.252 . S
O269 In260 2.326 . S
O269 C265 1.260 . S
C270 O261 1.240 . S
C270 O262 1.252 . S
O271 In260 2.294 . S
O271 C264 1.240 . S
O272 In260 2.326 . S
O272 C264 1.252 . S
In273 O274 2.294 . S
In273 O275 2.326 . S
In273 O279 2.266 . S
In273 O280 2.326 . S
In273 O281 2.266 . S
In273 O282 2.326 . S
In273 O284 2.294 . S
In273 O285 2.326 . S
O274 In273 2.294 . S
O274 C283 1.240 . S
O275 In273 2.326 . S
O275 C283 1.252 . S
C276 O279 1.252 . S
C276 O280 1.260 . S
C277 O284 1.240 . S
C277 O285 1.252 . S
C278 O281 1.252 . S
C278 O282 1.260 . S
O279 In273 2.266 . S
O279 C276 1.252 . S
O280 In273 2.326 . S
O280 C276 1.260 . S
O281 In273 2.266 . S
O281 C278 1.252 . S
O282 In273 2.326 . S
O282 C278 1.260 . S
C283 O274 1.240 . S
C283 O275 1.252 . S
O284 In273 2.294 . S
O284 C277 1.240 . S
O285 In273 2.326 . S
O285 C277 1.252 . S
In286 O287 2.294 . S
In286 O288 2.326 . S
In286 O292 2.266 . S
In286 O293 2.326 . S
In286 O294 2.266 . S
In286 O295 2.326 . S
In286 O297 2.294 . S
In286 O298 2.326 . S
O287 In286 2.294 . S
O287 C296 1.240 . S
O288 In286 2.326 . S
O288 C296 1.252 . S
C289 O292 1.252 . S
C289 O293 1.260 . S
C290 O297 1.240 . S
C290 O298 1.252 . S
C291 O294 1.252 . S
C291 O295 1.260 . S
O292 In286 2.266 . S
O292 C289 1.252 . S
O293 In286 2.326 . S
O293 C289 1.260 . S
O294 In286 2.266 . S
O294 C291 1.252 . S
O295 In286 2.326 . S
O295 C291 1.260 . S
C296 O287 1.240 . S
C296 O288 1.252 . S
O297 In286 2.294 . S
O297 C290 1.240 . S
O298 In286 2.326 . S
O298 C290 1.252 . S
In299 O300 2.294 . S
In299 O301 2.326 . S
In299 O305 2.266 . S
In299 O306 2.326 . S
In299 O307 2.266 . S
In299 O308 2.326 . S
In299 O310 2.294 . S
In299 O311 2.326 . S
O300 In299 2.294 . S
O300 C309 1.240 . S
O301 In299 2.326 . S
O301 C309 1.252 . S
C302 O305 1.252 . S
C302 O306 1.260 . S
C303 O310 1.240 . S
C303 O311 1.252 . S
C304 O307 1.252 . S
C304 O308 1.260 . S
O305 In299 2.266 . S
O305 C302 1.252 . S
O306 In299 2.326 . S
O306 C302 1.260 . S
O307 In299 2.266 . S
O307 C304 1.252 . S
O308 In299 2.326 . S
O308 C304 1.260 . S
C309 O300 1.240 . S
C309 O301 1.252 . S
O310 In299 2.294 . S
O310 C303 1.240 . S
O311 In299 2.326 . S
O311 C303 1.252 . S
H312 C324 0.930 . S
H313 C326 0.930 . S
H314 C327 0.930 . S
H315 C331 0.959 . S
H316 C331 0.959 . S
H317 C331 0.961 . S
H318 C332 0.960 . S
H319 C332 0.961 . S
H320 C332 0.959 . S
H321 C335 0.929 . S
H322 C336 0.931 . S
H323 C338 0.930 . S
C324 H312 0.930 . S
C324 C325 1.399 . S
C324 C329 1.399 . S
C325 C324 1.399 . S
C325 C326 1.376 . S
C326 H313 0.930 . S
C326 C325 1.376 . S
C326 C327 1.388 . S
C327 H314 0.930 . S
C327 C326 1.388 . S
C327 C328 1.390 . S
C328 C327 1.390 . S
C328 C329 1.394 . S
C328 C334 1.465 . S
C329 C324 1.399 . S
C329 C328 1.394 . S
C329 C330 1.516 . S
C330 C329 1.516 . S
C330 C331 1.502 . S
C330 C332 1.561 . S
C330 C333 1.526 . S
C331 H315 0.959 . S
C331 H316 0.959 . S
C331 H317 0.961 . S
C331 C330 1.502 . S
C332 H318 0.960 . S
C332 H319 0.961 . S
C332 H320 0.959 . S
C332 C330 1.561 . S
C333 C330 1.526 . S
C333 C334 1.396 . S
C333 C338 1.390 . S
C334 C328 1.465 . S
C334 C333 1.396 . S
C334 C335 1.399 . S
C335 H321 0.929 . S
C335 C334 1.399 . S
C335 C336 1.385 . S
C336 H322 0.931 . S
C336 C335 1.385 . S
C336 C337 1.389 . S
C337 C336 1.389 . S
C337 C338 1.387 . S
C338 H323 0.930 . S
C338 C333 1.390 . S
C338 C337 1.387 . S
H339 C351 0.930 . S
H340 C353 0.930 . S
H341 C354 0.930 . S
H342 C358 0.959 . S
H343 C358 0.959 . S
H344 C358 0.961 . S
H345 C359 0.960 . S
H346 C359 0.961 . S
H347 C359 0.959 . S
H348 C362 0.929 . S
H349 C363 0.931 . S
H350 C365 0.930 . S
C351 H339 0.930 . S
C351 C352 1.399 . S
C351 C356 1.399 . S
C352 C351 1.399 . S
C352 C353 1.376 . S
C353 H340 0.930 . S
C353 C352 1.376 . S
C353 C354 1.388 . S
C354 H341 0.930 . S
C354 C353 1.388 . S
C354 C355 1.390 . S
C355 C354 1.390 . S
C355 C356 1.394 . S
C355 C361 1.465 . S
C356 C351 1.399 . S
C356 C355 1.394 . S
C356 C357 1.516 . S
C357 C356 1.516 . S
C357 C358 1.502 . S
C357 C359 1.561 . S
C357 C360 1.526 . S
C358 H342 0.959 . S
C358 H343 0.959 . S
C358 H344 0.961 . S
C358 C357 1.502 . S
C359 H345 0.960 . S
C359 H346 0.961 . S
C359 H347 0.959 . S
C359 C357 1.561 . S
C360 C357 1.526 . S
C360 C361 1.396 . S
C360 C365 1.390 . S
C361 C355 1.465 . S
C361 C360 1.396 . S
C361 C362 1.399 . S
C362 H348 0.929 . S
C362 C361 1.399 . S
C362 C363 1.385 . S
C363 H349 0.931 . S
C363 C362 1.385 . S
C363 C364 1.389 . S
C364 C363 1.389 . S
C364 C365 1.387 . S
C365 H350 0.930 . S
C365 C360 1.390 . S
C365 C364 1.387 . S
H366 C378 0.930 . S
H367 C380 0.930 . S
H368 C381 0.930 . S
H369 C385 0.959 . S
H370 C385 0.959 . S
H371 C385 0.961 . S
H372 C386 0.960 . S
H373 C386 0.961 . S
H374 C386 0.959 . S
H375 C389 0.929 . S
H376 C390 0.931 . S
H377 C392 0.930 . S
C378 H366 0.930 . S
C378 C379 1.399 . S
C378 C383 1.399 . S
C379 C378 1.399 . S
C379 C380 1.376 . S
C380 H367 0.930 . S
C380 C379 1.376 . S
C380 C381 1.388 . S
C381 H368 0.930 . S
C381 C380 1.388 . S
C381 C382 1.390 . S
C382 C381 1.390 . S
C382 C383 1.394 . S
C382 C388 1.465 . S
C383 C378 1.399 . S
C383 C382 1.394 . S
C383 C384 1.516 . S
C384 C383 1.516 . S
C384 C385 1.502 . S
C384 C386 1.561 . S
C384 C387 1.526 . S
C385 H369 0.959 . S
C385 H370 0.959 . S
C385 H371 0.961 . S
C385 C384 1.502 . S
C386 H372 0.960 . S
C386 H373 0.961 . S
C386 H374 0.959 . S
C386 C384 1.561 . S
C387 C384 1.526 . S
C387 C388 1.396 . S
C387 C392 1.390 . S
C388 C382 1.465 . S
C388 C387 1.396 . S
C388 C389 1.399 . S
C389 H375 0.929 . S
C389 C388 1.399 . S
C389 C390 1.385 . S
C390 H376 0.931 . S
C390 C389 1.385 . S
C390 C391 1.389 . S
C391 C390 1.389 . S
C391 C392 1.387 . S
C392 H377 0.930 . S
C392 C387 1.390 . S
C392 C391 1.387 . S
H393 C405 0.930 . S
H394 C407 0.930 . S
H395 C408 0.930 . S
H396 C412 0.959 . S
H397 C412 0.959 . S
H398 C412 0.961 . S
H399 C413 0.960 . S
H400 C413 0.961 . S
H401 C413 0.959 . S
H402 C416 0.929 . S
H403 C417 0.931 . S
H404 C419 0.930 . S
C405 H393 0.930 . S
C405 C406 1.399 . S
C405 C410 1.399 . S
C406 C405 1.399 . S
C406 C407 1.376 . S
C407 H394 0.930 . S
C407 C406 1.376 . S
C407 C408 1.388 . S
C408 H395 0.930 . S
C408 C407 1.388 . S
C408 C409 1.390 . S
C409 C408 1.390 . S
C409 C410 1.394 . S
C409 C415 1.465 . S
C410 C405 1.399 . S
C410 C409 1.394 . S
C410 C411 1.516 . S
C411 C410 1.516 . S
C411 C412 1.502 . S
C411 C413 1.561 . S
C411 C414 1.526 . S
C412 H396 0.959 . S
C412 H397 0.959 . S
C412 H398 0.961 . S
C412 C411 1.502 . S
C413 H399 0.960 . S
C413 H400 0.961 . S
C413 H401 0.959 . S
C413 C411 1.561 . S
C414 C411 1.526 . S
C414 C415 1.396 . S
C414 C419 1.390 . S
C415 C409 1.465 . S
C415 C414 1.396 . S
C415 C416 1.399 . S
C416 H402 0.929 . S
C416 C415 1.399 . S
C416 C417 1.385 . S
C417 H403 0.931 . S
C417 C416 1.385 . S
C417 C418 1.389 . S
C418 C417 1.389 . S
C418 C419 1.387 . S
C419 H404 0.930 . S
C419 C414 1.390 . S
C419 C418 1.387 . S
H420 C432 0.930 . S
H421 C434 0.930 . S
H422 C435 0.930 . S
H423 C439 0.959 . S
H424 C439 0.959 . S
H425 C439 0.961 . S
H426 C440 0.960 . S
H427 C440 0.961 . S
H428 C440 0.959 . S
H429 C443 0.929 . S
H430 C444 0.931 . S
H431 C446 0.930 . S
C432 H420 0.930 . S
C432 C433 1.399 . S
C432 C437 1.399 . S
C433 C432 1.399 . S
C433 C434 1.376 . S
C434 H421 0.930 . S
C434 C433 1.376 . S
C434 C435 1.388 . S
C435 H422 0.930 . S
C435 C434 1.388 . S
C435 C436 1.390 . S
C436 C435 1.390 . S
C436 C437 1.394 . S
C436 C442 1.465 . S
C437 C432 1.399 . S
C437 C436 1.394 . S
C437 C438 1.516 . S
C438 C437 1.516 . S
C438 C439 1.502 . S
C438 C440 1.561 . S
C438 C441 1.526 . S
C439 H423 0.959 . S
C439 H424 0.959 . S
C439 H425 0.961 . S
C439 C438 1.502 . S
C440 H426 0.960 . S
C440 H427 0.961 . S
C440 H428 0.959 . S
C440 C438 1.561 . S
C441 C438 1.526 . S
C441 C442 1.396 . S
C441 C446 1.390 . S
C442 C436 1.465 . S
C442 C441 1.396 . S
C442 C443 1.399 . S
C443 H429 0.929 . S
C443 C442 1.399 . S
C443 C444 1.385 . S
C444 H430 0.931 . S
C444 C443 1.385 . S
C444 C445 1.389 . S
C445 C444 1.389 . S
C445 C446 1.387 . S
C446 H431 0.930 . S
C446 C441 1.390 . S
C446 C445 1.387 . S
H447 C459 0.930 . S
H448 C461 0.930 . S
H449 C462 0.930 . S
H450 C466 0.959 . S
H451 C466 0.959 . S
H452 C466 0.961 . S
H453 C467 0.960 . S
H454 C467 0.961 . S
H455 C467 0.959 . S
H456 C470 0.929 . S
H457 C471 0.931 . S
H458 C473 0.930 . S
C459 H447 0.930 . S
C459 C460 1.399 . S
C459 C464 1.399 . S
C460 C459 1.399 . S
C460 C461 1.376 . S
C461 H448 0.930 . S
C461 C460 1.376 . S
C461 C462 1.388 . S
C462 H449 0.930 . S
C462 C461 1.388 . S
C462 C463 1.390 . S
C463 C462 1.390 . S
C463 C464 1.394 . S
C463 C469 1.465 . S
C464 C459 1.399 . S
C464 C463 1.394 . S
C464 C465 1.516 . S
C465 C464 1.516 . S
C465 C466 1.502 . S
C465 C467 1.561 . S
C465 C468 1.526 . S
C466 H450 0.959 . S
C466 H451 0.959 . S
C466 H452 0.961 . S
C466 C465 1.502 . S
C467 H453 0.960 . S
C467 H454 0.961 . S
C467 H455 0.959 . S
C467 C465 1.561 . S
C468 C465 1.526 . S
C468 C469 1.396 . S
C468 C473 1.390 . S
C469 C463 1.465 . S
C469 C468 1.396 . S
C469 C470 1.399 . S
C470 H456 0.929 . S
C470 C469 1.399 . S
C470 C471 1.385 . S
C471 H457 0.931 . S
C471 C470 1.385 . S
C471 C472 1.389 . S
C472 C471 1.389 . S
C472 C473 1.387 . S
C473 H458 0.930 . S
C473 C468 1.390 . S
C473 C472 1.387 . S
H474 C486 0.930 . S
H475 C488 0.930 . S
H476 C489 0.930 . S
H477 C493 0.959 . S
H478 C493 0.959 . S
H479 C493 0.961 . S
H480 C494 0.960 . S
H481 C494 0.961 . S
H482 C494 0.959 . S
H483 C497 0.929 . S
H484 C498 0.931 . S
H485 C500 0.930 . S
C486 H474 0.930 . S
C486 C487 1.399 . S
C486 C491 1.399 . S
C487 C486 1.399 . S
C487 C488 1.376 . S
C488 H475 0.930 . S
C488 C487 1.376 . S
C488 C489 1.388 . S
C489 H476 0.930 . S
C489 C488 1.388 . S
C489 C490 1.390 . S
C490 C489 1.390 . S
C490 C491 1.394 . S
C490 C496 1.465 . S
C491 C486 1.399 . S
C491 C490 1.394 . S
C491 C492 1.516 . S
C492 C491 1.516 . S
C492 C493 1.502 . S
C492 C494 1.561 . S
C492 C495 1.526 . S
C493 H477 0.959 . S
C493 H478 0.959 . S
C493 H479 0.961 . S
C493 C492 1.502 . S
C494 H480 0.960 . S
C494 H481 0.961 . S
C494 H482 0.959 . S
C494 C492 1.561 . S
C495 C492 1.526 . S
C495 C496 1.396 . S
C495 C500 1.390 . S
C496 C490 1.465 . S
C496 C495 1.396 . S
C496 C497 1.399 . S
C497 H483 0.929 . S
C497 C496 1.399 . S
C497 C498 1.385 . S
C498 H484 0.931 . S
C498 C497 1.385 . S
C498 C499 1.389 . S
C499 C498 1.389 . S
C499 C500 1.387 . S
C500 H485 0.930 . S
C500 C495 1.390 . S
C500 C499 1.387 . S
H501 C513 0.930 . S
H502 C515 0.930 . S
H503 C516 0.930 . S
H504 C520 0.959 . S
H505 C520 0.959 . S
H506 C520 0.961 . S
H507 C521 0.960 . S
H508 C521 0.961 . S
H509 C521 0.959 . S
H510 C524 0.929 . S
H511 C525 0.931 . S
H512 C527 0.930 . S
C513 H501 0.930 . S
C513 C514 1.399 . S
C513 C518 1.399 . S
C514 C513 1.399 . S
C514 C515 1.376 . S
C515 H502 0.930 . S
C515 C514 1.376 . S
C515 C516 1.388 . S
C516 H503 0.930 . S
C516 C515 1.388 . S
C516 C517 1.390 . S
C517 C516 1.390 . S
C517 C518 1.394 . S
C517 C523 1.465 . S
C518 C513 1.399 . S
C518 C517 1.394 . S
C518 C519 1.516 . S
C519 C518 1.516 . S
C519 C520 1.502 . S
C519 C521 1.561 . S
C519 C522 1.526 . S
C520 H504 0.959 . S
C520 H505 0.959 . S
C520 H506 0.961 . S
C520 C519 1.502 . S
C521 H507 0.960 . S
C521 H508 0.961 . S
C521 H509 0.959 . S
C521 C519 1.561 . S
C522 C519 1.526 . S
C522 C523 1.396 . S
C522 C527 1.390 . S
C523 C517 1.465 . S
C523 C522 1.396 . S
C523 C524 1.399 . S
C524 H510 0.929 . S
C524 C523 1.399 . S
C524 C525 1.385 . S
C525 H511 0.931 . S
C525 C524 1.385 . S
C525 C526 1.389 . S
C526 C525 1.389 . S
C526 C527 1.387 . S
C527 H512 0.930 . S
C527 C522 1.390 . S
C527 C526 1.387 . S
H528 C540 0.930 . S
H529 C542 0.930 . S
H530 C543 0.930 . S
H531 C547 0.959 . S
H532 C547 0.959 . S
H533 C547 0.961 . S
H534 C548 0.960 . S
H535 C548 0.961 . S
H536 C548 0.959 . S
H537 C551 0.929 . S
H538 C552 0.931 . S
H539 C554 0.930 . S
C540 H528 0.930 . S
C540 C541 1.399 . S
C540 C545 1.399 . S
C541 C540 1.399 . S
C541 C542 1.376 . S
C542 H529 0.930 . S
C542 C541 1.376 . S
C542 C543 1.388 . S
C543 H530 0.930 . S
C543 C542 1.388 . S
C543 C544 1.390 . S
C544 C543 1.390 . S
C544 C545 1.394 . S
C544 C550 1.465 . S
C545 C540 1.399 . S
C545 C544 1.394 . S
C545 C546 1.516 . S
C546 C545 1.516 . S
C546 C547 1.502 . S
C546 C548 1.561 . S
C546 C549 1.526 . S
C547 H531 0.959 . S
C547 H532 0.959 . S
C547 H533 0.961 . S
C547 C546 1.502 . S
C548 H534 0.960 . S
C548 H535 0.961 . S
C548 H536 0.959 . S
C548 C546 1.561 . S
C549 C546 1.526 . S
C549 C550 1.396 . S
C549 C554 1.390 . S
C550 C544 1.465 . S
C550 C549 1.396 . S
C550 C551 1.399 . S
C551 H537 0.929 . S
C551 C550 1.399 . S
C551 C552 1.385 . S
C552 H538 0.931 . S
C552 C551 1.385 . S
C552 C553 1.389 . S
C553 C552 1.389 . S
C553 C554 1.387 . S
C554 H539 0.930 . S
C554 C549 1.390 . S
C554 C553 1.387 . S
H555 C567 0.930 . S
H556 C569 0.930 . S
H557 C570 0.930 . S
H558 C574 0.959 . S
H559 C574 0.959 . S
H560 C574 0.961 . S
H561 C575 0.960 . S
H562 C575 0.961 . S
H563 C575 0.959 . S
H564 C578 0.929 . S
H565 C579 0.931 . S
H566 C581 0.930 . S
C567 H555 0.930 . S
C567 C568 1.399 . S
C567 C572 1.399 . S
C568 C567 1.399 . S
C568 C569 1.376 . S
C569 H556 0.930 . S
C569 C568 1.376 . S
C569 C570 1.388 . S
C570 H557 0.930 . S
C570 C569 1.388 . S
C570 C571 1.390 . S
C571 C570 1.390 . S
C571 C572 1.394 . S
C571 C577 1.465 . S
C572 C567 1.399 . S
C572 C571 1.394 . S
C572 C573 1.516 . S
C573 C572 1.516 . S
C573 C574 1.502 . S
C573 C575 1.561 . S
C573 C576 1.526 . S
C574 H558 0.959 . S
C574 H559 0.959 . S
C574 H560 0.961 . S
C574 C573 1.502 . S
C575 H561 0.960 . S
C575 H562 0.961 . S
C575 H563 0.959 . S
C575 C573 1.561 . S
C576 C573 1.526 . S
C576 C577 1.396 . S
C576 C581 1.390 . S
C577 C571 1.465 . S
C577 C576 1.396 . S
C577 C578 1.399 . S
C578 H564 0.929 . S
C578 C577 1.399 . S
C578 C579 1.385 . S
C579 H565 0.931 . S
C579 C578 1.385 . S
C579 C580 1.389 . S
C580 C579 1.389 . S
C580 C581 1.387 . S
C581 H566 0.930 . S
C581 C576 1.390 . S
C581 C580 1.387 . S
H582 C594 0.930 . S
H583 C596 0.930 . S
H584 C597 0.930 . S
H585 C601 0.959 . S
H586 C601 0.959 . S
H587 C601 0.961 . S
H588 C602 0.960 . S
H589 C602 0.961 . S
H590 C602 0.959 . S
H591 C605 0.929 . S
H592 C606 0.931 . S
H593 C608 0.930 . S
C594 H582 0.930 . S
C594 C595 1.399 . S
C594 C599 1.399 . S
C595 C594 1.399 . S
C595 C596 1.376 . S
C596 H583 0.930 . S
C596 C595 1.376 . S
C596 C597 1.388 . S
C597 H584 0.930 . S
C597 C596 1.388 . S
C597 C598 1.390 . S
C598 C597 1.390 . S
C598 C599 1.394 . S
C598 C604 1.465 . S
C599 C594 1.399 . S
C599 C598 1.394 . S
C599 C600 1.516 . S
C600 C599 1.516 . S
C600 C601 1.502 . S
C600 C602 1.561 . S
C600 C603 1.526 . S
C601 H585 0.959 . S
C601 H586 0.959 . S
C601 H587 0.961 . S
C601 C600 1.502 . S
C602 H588 0.960 . S
C602 H589 0.961 . S
C602 H590 0.959 . S
C602 C600 1.561 . S
C603 C600 1.526 . S
C603 C604 1.396 . S
C603 C608 1.390 . S
C604 C598 1.465 . S
C604 C603 1.396 . S
C604 C605 1.399 . S
C605 H591 0.929 . S
C605 C604 1.399 . S
C605 C606 1.385 . S
C606 H592 0.931 . S
C606 C605 1.385 . S
C606 C607 1.389 . S
C607 C606 1.389 . S
C607 C608 1.387 . S
C608 H593 0.930 . S
C608 C603 1.390 . S
C608 C607 1.387 . S
H609 C621 0.930 . S
H610 C623 0.930 . S
H611 C624 0.930 . S
H612 C628 0.959 . S
H613 C628 0.959 . S
H614 C628 0.961 . S
H615 C629 0.960 . S
H616 C629 0.961 . S
H617 C629 0.959 . S
H618 C632 0.929 . S
H619 C633 0.931 . S
H620 C635 0.930 . S
C621 H609 0.930 . S
C621 C622 1.399 . S
C621 C626 1.399 . S
C622 C621 1.399 . S
C622 C623 1.376 . S
C623 H610 0.930 . S
C623 C622 1.376 . S
C623 C624 1.388 . S
C624 H611 0.930 . S
C624 C623 1.388 . S
C624 C625 1.390 . S
C625 C624 1.390 . S
C625 C626 1.394 . S
C625 C631 1.465 . S
C626 C621 1.399 . S
C626 C625 1.394 . S
C626 C627 1.516 . S
C627 C626 1.516 . S
C627 C628 1.502 . S
C627 C629 1.561 . S
C627 C630 1.526 . S
C628 H612 0.959 . S
C628 H613 0.959 . S
C628 H614 0.961 . S
C628 C627 1.502 . S
C629 H615 0.960 . S
C629 H616 0.961 . S
C629 H617 0.959 . S
C629 C627 1.561 . S
C630 C627 1.526 . S
C630 C631 1.396 . S
C630 C635 1.390 . S
C631 C625 1.465 . S
C631 C630 1.396 . S
C631 C632 1.399 . S
C632 H618 0.929 . S
C632 C631 1.399 . S
C632 C633 1.385 . S
C633 H619 0.931 . S
C633 C632 1.385 . S
C633 C634 1.389 . S
C634 C633 1.389 . S
C634 C635 1.387 . S
C635 H620 0.930 . S
C635 C630 1.390 . S
C635 C634 1.387 . S
H636 C648 0.930 . S
H637 C650 0.930 . S
H638 C651 0.930 . S
H639 C655 0.959 . S
H640 C655 0.959 . S
H641 C655 0.961 . S
H642 C656 0.960 . S
H643 C656 0.961 . S
H644 C656 0.959 . S
H645 C659 0.929 . S
H646 C660 0.931 . S
H647 C662 0.930 . S
C648 H636 0.930 . S
C648 C649 1.399 . S
C648 C653 1.399 . S
C649 C648 1.399 . S
C649 C650 1.376 . S
C650 H637 0.930 . S
C650 C649 1.376 . S
C650 C651 1.388 . S
C651 H638 0.930 . S
C651 C650 1.388 . S
C651 C652 1.390 . S
C652 C651 1.390 . S
C652 C653 1.394 . S
C652 C658 1.465 1_556 S
C653 C648 1.399 . S
C653 C652 1.394 . S
C653 C654 1.516 1_556 S
C654 C653 1.516 1_554 S
C654 C655 1.502 . S
C654 C656 1.561 1_554 S
C654 C657 1.526 . S
C655 H639 0.959 . S
C655 H640 0.959 . S
C655 H641 0.961 . S
C655 C654 1.502 . S
C656 H642 0.960 . S
C656 H643 0.961 . S
C656 H644 0.959 . S
C656 C654 1.561 1_556 S
C657 C654 1.526 . S
C657 C658 1.396 . S
C657 C662 1.390 . S
C658 C652 1.465 1_554 S
C658 C657 1.396 . S
C658 C659 1.399 . S
C659 H645 0.929 . S
C659 C658 1.399 . S
C659 C660 1.385 . S
C660 H646 0.931 . S
C660 C659 1.385 . S
C660 C661 1.389 . S
C661 C660 1.389 . S
C661 C662 1.387 . S
C662 H647 0.930 . S
C662 C657 1.390 . S
C662 C661 1.387 . S
H663 C675 0.930 . S
H664 C677 0.930 . S
H665 C678 0.930 . S
H666 C682 0.959 . S
H667 C682 0.959 . S
H668 C682 0.961 . S
H669 C683 0.960 . S
H670 C683 0.961 . S
H671 C683 0.959 . S
H672 C686 0.929 . S
H673 C687 0.931 . S
H674 C689 0.930 . S
C675 H663 0.930 . S
C675 C676 1.399 . S
C675 C680 1.399 . S
C676 C675 1.399 . S
C676 C677 1.376 . S
C677 H664 0.930 . S
C677 C676 1.376 . S
C677 C678 1.388 . S
C678 H665 0.930 . S
C678 C677 1.388 . S
C678 C679 1.390 . S
C679 C678 1.390 . S
C679 C680 1.394 . S
C679 C685 1.465 . S
C680 C675 1.399 . S
C680 C679 1.394 . S
C680 C681 1.516 . S
C681 C680 1.516 . S
C681 C682 1.502 . S
C681 C683 1.561 . S
C681 C684 1.526 . S
C682 H666 0.959 . S
C682 H667 0.959 . S
C682 H668 0.961 . S
C682 C681 1.502 . S
C683 H669 0.960 . S
C683 H670 0.961 . S
C683 H671 0.959 . S
C683 C681 1.561 . S
C684 C681 1.526 . S
C684 C685 1.396 . S
C684 C689 1.390 . S
C685 C679 1.465 . S
C685 C684 1.396 . S
C685 C686 1.399 . S
C686 H672 0.929 . S
C686 C685 1.399 . S
C686 C687 1.385 . S
C687 H673 0.931 . S
C687 C686 1.385 . S
C687 C688 1.389 . S
C688 C687 1.389 . S
C688 C689 1.387 . S
C689 H674 0.930 . S
C689 C684 1.390 . S
C689 C688 1.387 . S
H690 C702 0.930 . S
H691 C704 0.930 . S
H692 C705 0.930 . S
H693 C709 0.959 . S
H694 C709 0.959 . S
H695 C709 0.961 . S
H696 C710 0.962 . S
H697 C710 0.961 . S
H698 C710 0.959 1_554 S
H699 C713 0.929 1_554 S
H700 C714 0.931 . S
H701 C716 0.930 . S
C702 H690 0.930 . S
C702 C703 1.399 . S
C702 C707 1.399 . S
C703 C702 1.399 . S
C703 C704 1.376 . S
C704 H691 0.930 . S
C704 C703 1.376 . S
C704 C705 1.388 . S
C705 H692 0.930 . S
C705 C704 1.388 . S
C705 C706 1.390 . S
C706 C705 1.390 . S
C706 C707 1.394 . S
C706 C712 1.440 1_554 S
C707 C702 1.399 . S
C707 C706 1.394 . S
C707 C708 1.516 1_554 S
C708 C707 1.516 1_556 S
C708 C709 1.502 . S
C708 C710 1.561 . S
C708 C711 1.526 . S
C709 H693 0.959 . S
C709 H694 0.959 . S
C709 H695 0.961 . S
C709 C708 1.502 . S
C710 H696 0.962 . S
C710 H697 0.961 . S
C710 H698 0.959 1_556 S
C710 C708 1.561 . S
C711 C708 1.526 . S
C711 C712 1.424 . S
C711 C716 1.390 . S
C712 C706 1.440 1_556 S
C712 C711 1.424 . S
C712 C713 1.400 . S
C713 H699 0.929 1_556 S
C713 C712 1.400 . S
C713 C714 1.385 . S
C714 H700 0.931 . S
C714 C713 1.385 . S
C714 C715 1.389 . S
C715 C714 1.389 . S
C715 C716 1.387 . S
C716 H701 0.930 . S
C716 C711 1.390 . S
C716 C715 1.387 . S
H717 C729 0.930 . S
H718 C731 0.930 . S
H719 C732 0.930 . S
H720 C736 0.959 . S
H721 C736 0.959 . S
H722 C736 0.961 . S
H723 C737 0.960 . S
H724 C737 0.961 . S
H725 C737 0.959 . S
H726 C740 0.929 . S
H727 C741 0.931 . S
H728 C743 0.930 . S
C729 H717 0.930 . S
C729 C730 1.399 . S
C729 C734 1.399 . S
C730 C729 1.399 . S
C730 C731 1.376 . S
C731 H718 0.930 . S
C731 C730 1.376 . S
C731 C732 1.388 . S
C732 H719 0.930 . S
C732 C731 1.388 . S
C732 C733 1.390 . S
C733 C732 1.390 . S
C733 C734 1.394 . S
C733 C739 1.465 . S
C734 C729 1.399 . S
C734 C733 1.394 . S
C734 C735 1.516 . S
C735 C734 1.516 . S
C735 C736 1.502 . S
C735 C737 1.561 . S
C735 C738 1.526 . S
C736 H720 0.959 . S
C736 H721 0.959 . S
C736 H722 0.961 . S
C736 C735 1.502 . S
C737 H723 0.960 . S
C737 H724 0.961 . S
C737 H725 0.959 . S
C737 C735 1.561 . S
C738 C735 1.526 . S
C738 C739 1.396 . S
C738 C743 1.390 . S
C739 C733 1.465 . S
C739 C738 1.396 . S
C739 C740 1.399 . S
C740 H726 0.929 . S
C740 C739 1.399 . S
C740 C741 1.385 . S
C741 H727 0.931 . S
C741 C740 1.385 . S
C741 C742 1.389 . S
C742 C741 1.389 . S
C742 C743 1.387 . S
C743 H728 0.930 . S
C743 C738 1.390 . S
C743 C742 1.387 . S
H744 C756 0.930 . S
H745 C758 0.930 . S
H746 C759 0.930 . S
H747 C763 0.959 . S
H748 C763 0.959 . S
H749 C763 0.961 . S
H750 C764 0.960 . S
H751 C764 0.961 . S
H752 C764 0.959 1_554 S
H753 C767 0.929 . S
H754 C768 0.931 . S
H755 C770 0.930 . S
C756 H744 0.930 . S
C756 C757 1.399 . S
C756 C761 1.399 . S
C757 C756 1.399 . S
C757 C758 1.376 . S
C758 H745 0.930 . S
C758 C757 1.376 . S
C758 C759 1.388 1_556 S
C759 H746 0.930 . S
C759 C758 1.388 1_554 S
C759 C760 1.390 . S
C760 C759 1.390 . S
C760 C761 1.392 1_554 S
C760 C766 1.467 . S
C761 C756 1.399 . S
C761 C760 1.392 1_556 S
C761 C762 1.516 . S
C762 C761 1.516 . S
C762 C763 1.502 . S
C762 C764 1.561 . S
C762 C765 1.526 1_556 S
C763 H747 0.959 . S
C763 H748 0.959 . S
C763 H749 0.961 . S
C763 C762 1.502 . S
C764 H750 0.960 . S
C764 H751 0.961 . S
C764 H752 0.959 1_556 S
C764 C762 1.561 . S
C765 C762 1.526 1_554 S
C765 C766 1.396 . S
C765 C770 1.390 . S
C766 C760 1.467 . S
C766 C765 1.396 . S
C766 C767 1.399 . S
C767 H753 0.929 . S
C767 C766 1.399 . S
C767 C768 1.385 . S
C768 H754 0.931 . S
C768 C767 1.385 . S
C768 C769 1.389 . S
C769 C768 1.389 . S
C769 C770 1.387 . S
C770 H755 0.930 . S
C770 C765 1.390 . S
C770 C769 1.387 . S
H771 C783 0.930 . S
H772 C785 0.930 . S
H773 C786 0.930 . S
H774 C790 0.959 . S
H775 C790 0.959 . S
H776 C790 0.961 . S
H777 C791 0.960 . S
H778 C791 0.961 . S
H779 C791 0.959 . S
H780 C794 0.929 . S
H781 C795 0.931 . S
H782 C797 0.930 . S
C783 H771 0.930 . S
C783 C784 1.399 . S
C783 C788 1.399 . S
C784 C783 1.399 . S
C784 C785 1.376 . S
C785 H772 0.930 . S
C785 C784 1.376 . S
C785 C786 1.388 . S
C786 H773 0.930 . S
C786 C785 1.388 . S
C786 C787 1.390 . S
C787 C786 1.390 . S
C787 C788 1.394 . S
C787 C793 1.465 . S
C788 C783 1.399 . S
C788 C787 1.394 . S
C788 C789 1.516 . S
C789 C788 1.516 . S
C789 C790 1.502 . S
C789 C791 1.561 . S
C789 C792 1.526 . S
C790 H774 0.959 . S
C790 H775 0.959 . S
C790 H776 0.961 . S
C790 C789 1.502 . S
C791 H777 0.960 . S
C791 H778 0.961 . S
C791 H779 0.959 . S
C791 C789 1.561 . S
C792 C789 1.526 . S
C792 C793 1.396 . S
C792 C797 1.390 . S
C793 C787 1.465 . S
C793 C792 1.396 . S
C793 C794 1.399 . S
C794 H780 0.929 . S
C794 C793 1.399 . S
C794 C795 1.385 . S
C795 H781 0.931 . S
C795 C794 1.385 . S
C795 C796 1.389 . S
C796 C795 1.389 . S
C796 C797 1.387 . S
C797 H782 0.930 . S
C797 C792 1.390 . S
C797 C796 1.387 . S
H798 C810 0.930 . S
H799 C812 0.930 . S
H800 C813 0.930 . S
H801 C817 0.959 . S
H802 C817 0.959 . S
H803 C817 0.961 . S
H804 C818 0.960 . S
H805 C818 0.961 . S
H806 C818 0.959 . S
H807 C821 0.929 . S
H808 C822 0.931 . S
H809 C824 0.930 . S
C810 H798 0.930 . S
C810 C811 1.399 . S
C810 C815 1.399 . S
C811 C810 1.399 . S
C811 C812 1.376 . S
C812 H799 0.930 . S
C812 C811 1.376 . S
C812 C813 1.388 . S
C813 H800 0.930 . S
C813 C812 1.388 . S
C813 C814 1.390 . S
C814 C813 1.390 . S
C814 C815 1.394 . S
C814 C820 1.485 . S
C815 C810 1.399 . S
C815 C814 1.394 . S
C815 C816 1.516 1_554 S
C816 C815 1.516 1_556 S
C816 C817 1.502 . S
C816 C818 1.561 . S
C816 C819 1.526 . S
C817 H801 0.959 . S
C817 H802 0.959 . S
C817 H803 0.961 . S
C817 C816 1.502 . S
C818 H804 0.960 . S
C818 H805 0.961 . S
C818 H806 0.959 . S
C818 C816 1.561 . S
C819 C816 1.526 . S
C819 C820 1.371 1_556 S
C819 C824 1.390 . S
C820 C814 1.485 . S
C820 C819 1.371 1_554 S
C820 C821 1.401 . S
C821 H807 0.929 . S
C821 C820 1.401 . S
C821 C822 1.385 1_554 S
C822 H808 0.931 . S
C822 C821 1.385 1_556 S
C822 C823 1.389 . S
C823 C822 1.389 . S
C823 C824 1.387 . S
C824 H809 0.930 . S
C824 C819 1.390 . S
C824 C823 1.387 . S
H825 C837 0.930 . S
H826 C839 0.930 . S
H827 C840 0.930 . S
H828 C844 0.959 . S
H829 C844 0.959 . S
H830 C844 0.961 . S
H831 C845 0.960 . S
H832 C845 0.961 . S
H833 C845 0.959 . S
H834 C848 0.929 . S
H835 C849 0.931 . S
H836 C851 0.930 . S
C837 H825 0.930 . S
C837 C838 1.399 . S
C837 C842 1.399 . S
C838 C837 1.399 . S
C838 C839 1.376 . S
C839 H826 0.930 . S
C839 C838 1.376 . S
C839 C840 1.388 . S
C840 H827 0.930 . S
C840 C839 1.388 . S
C840 C841 1.390 . S
C841 C840 1.390 . S
C841 C842 1.394 . S
C841 C847 1.465 . S
C842 C837 1.399 . S
C842 C841 1.394 . S
C842 C843 1.516 . S
C843 C842 1.516 . S
C843 C844 1.502 . S
C843 C845 1.561 . S
C843 C846 1.526 . S
C844 H828 0.959 . S
C844 H829 0.959 . S
C844 H830 0.961 . S
C844 C843 1.502 . S
C845 H831 0.960 . S
C845 H832 0.961 . S
C845 H833 0.959 . S
C845 C843 1.561 . S
C846 C843 1.526 . S
C846 C847 1.396 . S
C846 C851 1.390 . S
C847 C841 1.465 . S
C847 C846 1.396 . S
C847 C848 1.399 . S
C848 H834 0.929 . S
C848 C847 1.399 . S
C848 C849 1.385 . S
C849 H835 0.931 . S
C849 C848 1.385 . S
C849 C850 1.389 . S
C850 C849 1.389 . S
C850 C851 1.387 . S
C851 H836 0.930 . S
C851 C846 1.390 . S
C851 C850 1.387 . S
H852 C864 0.930 . S
H853 C866 0.930 . S
H854 C867 0.930 . S
H855 C871 0.959 . S
H856 C871 0.959 . S
H857 C871 0.961 . S
H858 C872 0.960 . S
H859 C872 0.961 . S
H860 C872 0.959 . S
H861 C875 0.929 . S
H862 C876 0.931 . S
H863 C878 0.930 . S
C864 H852 0.930 . S
C864 C865 1.399 . S
C864 C869 1.399 . S
C865 C864 1.399 . S
C865 C866 1.376 . S
C866 H853 0.930 . S
C866 C865 1.376 . S
C866 C867 1.388 . S
C867 H854 0.930 . S
C867 C866 1.388 . S
C867 C868 1.390 . S
C868 C867 1.390 . S
C868 C869 1.394 . S
C868 C874 1.466 1_556 S
C869 C864 1.399 . S
C869 C868 1.394 . S
C869 C870 1.516 1_556 S
C870 C869 1.516 1_554 S
C870 C871 1.502 . S
C870 C872 1.561 . S
C870 C873 1.526 . S
C871 H855 0.959 . S
C871 H856 0.959 . S
C871 H857 0.961 . S
C871 C870 1.502 . S
C872 H858 0.960 . S
C872 H859 0.961 . S
C872 H860 0.959 . S
C872 C870 1.561 . S
C873 C870 1.526 . S
C873 C874 1.395 . S
C873 C878 1.390 . S
C874 C868 1.466 1_554 S
C874 C873 1.395 . S
C874 C875 1.399 1_554 S
C875 H861 0.929 . S
C875 C874 1.399 1_556 S
C875 C876 1.385 1_556 S
C876 H862 0.931 . S
C876 C875 1.385 1_554 S
C876 C877 1.389 . S
C877 C876 1.389 . S
C877 C878 1.387 . S
C878 H863 0.930 . S
C878 C873 1.390 . S
C878 C877 1.387 . S
H879 C891 0.930 . S
H880 C893 0.930 . S
H881 C894 0.930 . S
H882 C898 0.959 . S
H883 C898 0.959 . S
H884 C898 0.961 . S
H885 C899 0.960 . S
H886 C899 0.961 . S
H887 C899 0.959 . S
H888 C902 0.929 . S
H889 C903 0.931 . S
H890 C905 0.930 . S
C891 H879 0.930 . S
C891 C892 1.399 . S
C891 C896 1.399 . S
C892 C891 1.399 . S
C892 C893 1.376 . S
C893 H880 0.930 . S
C893 C892 1.376 . S
C893 C894 1.388 . S
C894 H881 0.930 . S
C894 C893 1.388 . S
C894 C895 1.390 . S
C895 C894 1.390 . S
C895 C896 1.394 . S
C895 C901 1.465 . S
C896 C891 1.399 . S
C896 C895 1.394 . S
C896 C897 1.516 . S
C897 C896 1.516 . S
C897 C898 1.502 . S
C897 C899 1.561 . S
C897 C900 1.526 . S
C898 H882 0.959 . S
C898 H883 0.959 . S
C898 H884 0.961 . S
C898 C897 1.502 . S
C899 H885 0.960 . S
C899 H886 0.961 . S
C899 H887 0.959 . S
C899 C897 1.561 . S
C900 C897 1.526 . S
C900 C901 1.396 . S
C900 C905 1.390 . S
C901 C895 1.465 . S
C901 C900 1.396 . S
C901 C902 1.399 . S
C902 H888 0.929 . S
C902 C901 1.399 . S
C902 C903 1.385 . S
C903 H889 0.931 . S
C903 C902 1.385 . S
C903 C904 1.389 . S
C904 C903 1.389 . S
C904 C905 1.387 . S
C905 H890 0.930 . S
C905 C900 1.390 . S
C905 C904 1.387 . S
H906 C918 0.930 . S
H907 C920 0.930 . S
H908 C921 0.930 1_554 S
H909 C925 0.959 . S
H910 C925 0.959 . S
H911 C925 0.961 . S
H912 C926 0.960 . S
H913 C926 0.961 . S
H914 C926 0.959 . S
H915 C929 0.929 . S
H916 C930 0.931 . S
H917 C932 0.930 . S
C918 H906 0.930 . S
C918 C919 1.399 . S
C918 C923 1.399 . S
C919 C918 1.399 . S
C919 C920 1.376 . S
C920 H907 0.930 . S
C920 C919 1.376 . S
C920 C921 1.388 . S
C921 H908 0.930 1_556 S
C921 C920 1.388 . S
C921 C922 1.390 . S
C922 C921 1.390 . S
C922 C923 1.394 . S
C922 C928 1.465 1_556 S
C923 C918 1.399 . S
C923 C922 1.394 . S
C923 C924 1.516 . S
C924 C923 1.516 . S
C924 C925 1.502 . S
C924 C926 1.561 . S
C924 C927 1.526 1_556 S
C925 H909 0.959 . S
C925 H910 0.959 . S
C925 H911 0.961 . S
C925 C924 1.502 . S
C926 H912 0.960 . S
C926 H913 0.961 . S
C926 H914 0.959 . S
C926 C924 1.561 . S
C927 C924 1.526 1_554 S
C927 C928 1.396 . S
C927 C932 1.390 . S
C928 C922 1.465 1_554 S
C928 C927 1.396 . S
C928 C929 1.399 . S
C929 H915 0.929 . S
C929 C928 1.399 . S
C929 C930 1.385 . S
C930 H916 0.931 . S
C930 C929 1.385 . S
C930 C931 1.389 . S
C931 C930 1.389 . S
C931 C932 1.387 . S
C932 H917 0.930 . S
C932 C927 1.390 . S
C932 C931 1.387 . S
H933 C945 0.930 . S
H934 C947 0.930 . S
H935 C948 0.930 . S
H936 C952 0.959 . S
H937 C952 0.959 . S
H938 C952 0.961 . S
H939 C953 0.960 . S
H940 C953 0.961 . S
H941 C953 0.959 . S
H942 C956 0.929 . S
H943 C957 0.931 . S
H944 C959 0.930 . S
C945 H933 0.930 . S
C945 C946 1.399 . S
C945 C950 1.399 . S
C946 C945 1.399 . S
C946 C947 1.376 . S
C947 H934 0.930 . S
C947 C946 1.376 . S
C947 C948 1.388 . S
C948 H935 0.930 . S
C948 C947 1.388 . S
C948 C949 1.390 . S
C949 C948 1.390 . S
C949 C950 1.394 . S
C949 C955 1.465 . S
C950 C945 1.399 . S
C950 C949 1.394 . S
C950 C951 1.516 . S
C951 C950 1.516 . S
C951 C952 1.502 . S
C951 C953 1.561 . S
C951 C954 1.526 . S
C952 H936 0.959 . S
C952 H937 0.959 . S
C952 H938 0.961 . S
C952 C951 1.502 . S
C953 H939 0.960 . S
C953 H940 0.961 . S
C953 H941 0.959 . S
C953 C951 1.561 . S
C954 C951 1.526 . S
C954 C955 1.396 . S
C954 C959 1.390 . S
C955 C949 1.465 . S
C955 C954 1.396 . S
C955 C956 1.399 . S
C956 H942 0.929 . S
C956 C955 1.399 . S
C956 C957 1.385 . S
C957 H943 0.931 . S
C957 C956 1.385 . S
C957 C958 1.389 . S
C958 C957 1.389 . S
C958 C959 1.387 . S
C959 H944 0.930 . S
C959 C954 1.390 . S
C959 C958 1.387 . S
H960 C972 0.930 . S
H961 C974 0.930 . S
H962 C975 0.930 . S
H963 C979 0.959 . S
H964 C979 0.959 . S
H965 C979 0.961 . S
H966 C980 0.960 . S
H967 C980 0.961 . S
H968 C980 0.959 . S
H969 C983 0.929 . S
H970 C984 0.931 . S
H971 C986 0.930 . S
C972 H960 0.930 . S
C972 C973 1.399 . S
C972 C977 1.399 . S
C973 C972 1.399 . S
C973 C974 1.376 . S
C974 H961 0.930 . S
C974 C973 1.376 . S
C974 C975 1.388 . S
C975 H962 0.930 . S
C975 C974 1.388 . S
C975 C976 1.390 . S
C976 C975 1.390 . S
C976 C977 1.394 . S
C976 C982 1.465 . S
C977 C972 1.399 . S
C977 C976 1.394 . S
C977 C978 1.516 . S
C978 C977 1.516 . S
C978 C979 1.502 . S
C978 C980 1.561 . S
C978 C981 1.526 . S
C979 H963 0.959 . S
C979 H964 0.959 . S
C979 H965 0.961 . S
C979 C978 1.502 . S
C980 H966 0.960 . S
C980 H967 0.961 . S
C980 H968 0.959 . S
C980 C978 1.561 . S
C981 C978 1.526 . S
C981 C982 1.396 . S
C981 C986 1.390 . S
C982 C976 1.465 . S
C982 C981 1.396 . S
C982 C983 1.399 . S
C983 H969 0.929 . S
C983 C982 1.399 . S
C983 C984 1.385 . S
C984 H970 0.931 . S
C984 C983 1.385 . S
C984 C985 1.389 . S
C985 C984 1.389 . S
C985 C986 1.387 . S
C986 H971 0.930 . S
C986 C981 1.390 . S
C986 C985 1.387 . S
H987 C999 0.930 . S
H988 C1001 0.930 . S
H989 C1002 0.930 . S
H990 C1006 0.951 . S
H991 C1006 0.979 . S
H992 C1006 0.937 1_455 S
H993 C1007 0.957 1_455 S
H994 C1007 0.963 . S
H995 C1007 0.961 . S
H996 C1010 0.929 . S
H997 C1011 0.931 . S
H998 C1013 0.930 . S
C999 H987 0.930 . S
C999 C1000 1.399 . S
C999 C1004 1.399 . S
C1000 C999 1.399 . S
C1000 C1001 1.376 . S
C1001 H988 0.930 . S
C1001 C1000 1.376 . S
C1001 C1002 1.388 . S
C1002 H989 0.930 . S
C1002 C1001 1.388 . S
C1002 C1003 1.390 . S
C1003 C1002 1.390 . S
C1003 C1004 1.394 . S
C1003 C1009 1.465 1_455 S
C1004 C999 1.399 . S
C1004 C1003 1.394 . S
C1004 C1005 1.517 1_455 S
C1005 C1004 1.517 1_655 S
C1005 C1006 1.515 . S
C1005 C1007 1.559 . S
C1005 C1008 1.525 . S
C1006 H990 0.951 . S
C1006 H991 0.979 . S
C1006 H992 0.937 1_655 S
C1006 C1005 1.515 . S
C1007 H993 0.957 1_655 S
C1007 H994 0.963 . S
C1007 H995 0.961 . S
C1007 C1005 1.559 . S
C1008 C1005 1.525 . S
C1008 C1009 1.396 . S
C1008 C1013 1.390 . S
C1009 C1003 1.465 1_655 S
C1009 C1008 1.396 . S
C1009 C1010 1.399 . S
C1010 H996 0.929 . S
C1010 C1009 1.399 . S
C1010 C1011 1.385 . S
C1011 H997 0.931 . S
C1011 C1010 1.385 . S
C1011 C1012 1.389 . S
C1012 C1011 1.389 . S
C1012 C1013 1.387 . S
C1013 H998 0.930 . S
C1013 C1008 1.390 . S
C1013 C1012 1.387 . S
H1014 C1026 0.930 . S
H1015 C1028 0.930 . S
H1016 C1029 0.930 . S
H1017 C1033 0.951 . S
H1018 C1033 0.979 . S
H1019 C1033 0.937 1_565 S
H1020 C1034 0.957 1_565 S
H1021 C1034 0.963 . S
H1022 C1034 0.961 . S
H1023 C1037 0.929 . S
H1024 C1038 0.931 . S
H1025 C1040 0.930 . S
C1026 H1014 0.930 . S
C1026 C1027 1.399 . S
C1026 C1031 1.399 . S
C1027 C1026 1.399 . S
C1027 C1028 1.376 . S
C1028 H1015 0.930 . S
C1028 C1027 1.376 . S
C1028 C1029 1.388 . S
C1029 H1016 0.930 . S
C1029 C1028 1.388 . S
C1029 C1030 1.390 . S
C1030 C1029 1.390 . S
C1030 C1031 1.394 . S
C1030 C1036 1.465 1_565 S
C1031 C1026 1.399 . S
C1031 C1030 1.394 . S
C1031 C1032 1.517 1_565 S
C1032 C1031 1.517 1_545 S
C1032 C1033 1.515 . S
C1032 C1034 1.559 . S
C1032 C1035 1.525 . S
C1033 H1017 0.951 . S
C1033 H1018 0.979 . S
C1033 H1019 0.937 1_545 S
C1033 C1032 1.515 . S
C1034 H1020 0.957 1_545 S
C1034 H1021 0.963 . S
C1034 H1022 0.961 . S
C1034 C1032 1.559 . S
C1035 C1032 1.525 . S
C1035 C1036 1.396 . S
C1035 C1040 1.390 . S
C1036 C1030 1.465 1_545 S
C1036 C1035 1.396 . S
C1036 C1037 1.399 . S
C1037 H1023 0.929 . S
C1037 C1036 1.399 . S
C1037 C1038 1.385 . S
C1038 H1024 0.931 . S
C1038 C1037 1.385 . S
C1038 C1039 1.389 . S
C1039 C1038 1.389 . S
C1039 C1040 1.387 . S
C1040 H1025 0.930 . S
C1040 C1035 1.390 . S
C1040 C1039 1.387 . S
H1041 C1053 0.930 . S
H1042 C1055 0.930 . S
H1043 C1056 0.930 . S
H1044 C1060 0.959 . S
H1045 C1060 0.959 . S
H1046 C1060 0.961 . S
H1047 C1061 0.960 . S
H1048 C1061 0.961 . S
H1049 C1061 0.959 . S
H1050 C1064 0.929 . S
H1051 C1065 0.931 . S
H1052 C1067 0.930 . S
C1053 H1041 0.930 . S
C1053 C1054 1.399 . S
C1053 C1058 1.399 . S
C1054 C1053 1.399 . S
C1054 C1055 1.376 . S
C1055 H1042 0.930 . S
C1055 C1054 1.376 . S
C1055 C1056 1.388 . S
C1056 H1043 0.930 . S
C1056 C1055 1.388 . S
C1056 C1057 1.390 . S
C1057 C1056 1.390 . S
C1057 C1058 1.394 . S
C1057 C1063 1.465 . S
C1058 C1053 1.399 . S
C1058 C1057 1.394 . S
C1058 C1059 1.516 . S
C1059 C1058 1.516 . S
C1059 C1060 1.502 . S
C1059 C1061 1.561 . S
C1059 C1062 1.526 . S
C1060 H1044 0.959 . S
C1060 H1045 0.959 . S
C1060 H1046 0.961 . S
C1060 C1059 1.502 . S
C1061 H1047 0.960 . S
C1061 H1048 0.961 . S
C1061 H1049 0.959 . S
C1061 C1059 1.561 . S
C1062 C1059 1.526 . S
C1062 C1063 1.396 . S
C1062 C1067 1.390 . S
C1063 C1057 1.465 . S
C1063 C1062 1.396 . S
C1063 C1064 1.399 . S
C1064 H1050 0.929 . S
C1064 C1063 1.399 . S
C1064 C1065 1.385 . S
C1065 H1051 0.931 . S
C1065 C1064 1.385 . S
C1065 C1066 1.389 . S
C1066 C1065 1.389 . S
C1066 C1067 1.387 . S
C1067 H1052 0.930 . S
C1067 C1062 1.390 . S
C1067 C1066 1.387 . S
H1068 C1080 0.930 . S
H1069 C1082 0.930 . S
H1070 C1083 0.930 . S
H1071 C1087 0.973 . S
H1072 C1087 0.980 . S
H1073 C1087 0.941 1_655 S
H1074 C1088 0.957 1_655 S
H1075 C1088 0.964 . S
H1076 C1088 0.957 . S
H1077 C1091 0.929 . S
H1078 C1092 0.931 . S
H1079 C1094 0.930 . S
C1080 H1068 0.930 . S
C1080 C1081 1.399 . S
C1080 C1085 1.399 . S
C1081 C1080 1.399 . S
C1081 C1082 1.376 . S
C1082 H1069 0.930 . S
C1082 C1081 1.376 . S
C1082 C1083 1.388 . S
C1083 H1070 0.930 . S
C1083 C1082 1.388 . S
C1083 C1084 1.390 . S
C1084 C1083 1.390 . S
C1084 C1085 1.394 . S
C1084 C1090 1.465 1_655 S
C1085 C1080 1.399 . S
C1085 C1084 1.394 . S
C1085 C1086 1.517 1_655 S
C1086 C1085 1.517 1_455 S
C1086 C1087 1.489 . S
C1086 C1088 1.563 . S
C1086 C1089 1.525 . S
C1087 H1071 0.973 . S
C1087 H1072 0.980 . S
C1087 H1073 0.941 1_455 S
C1087 C1086 1.489 . S
C1088 H1074 0.957 1_455 S
C1088 H1075 0.964 . S
C1088 H1076 0.957 . S
C1088 C1086 1.563 . S
C1089 C1086 1.525 . S
C1089 C1090 1.396 . S
C1089 C1094 1.390 . S
C1090 C1084 1.465 1_455 S
C1090 C1089 1.396 . S
C1090 C1091 1.399 . S
C1091 H1077 0.929 . S
C1091 C1090 1.399 . S
C1091 C1092 1.385 . S
C1092 H1078 0.931 . S
C1092 C1091 1.385 . S
C1092 C1093 1.389 . S
C1093 C1092 1.389 . S
C1093 C1094 1.387 . S
C1094 H1079 0.930 . S
C1094 C1089 1.390 . S
C1094 C1093 1.387 . S
H1095 C1107 0.930 . S
H1096 C1109 0.930 . S
H1097 C1110 0.930 . S
H1098 C1114 0.971 . S
H1099 C1114 0.981 . S
H1100 C1114 0.943 1_545 S
H1101 C1115 0.957 1_545 S
H1102 C1115 0.964 . S
H1103 C1115 0.957 . S
H1104 C1118 0.929 . S
H1105 C1119 0.931 . S
H1106 C1121 0.930 . S
C1107 H1095 0.930 . S
C1107 C1108 1.399 . S
C1107 C1112 1.399 . S
C1108 C1107 1.399 . S
C1108 C1109 1.376 . S
C1109 H1096 0.930 . S
C1109 C1108 1.376 . S
C1109 C1110 1.388 . S
C1110 H1097 0.930 . S
C1110 C1109 1.388 . S
C1110 C1111 1.390 . S
C1111 C1110 1.390 . S
C1111 C1112 1.394 . S
C1111 C1117 1.465 1_545 S
C1112 C1107 1.399 . S
C1112 C1111 1.394 . S
C1112 C1113 1.517 1_545 S
C1113 C1112 1.517 1_565 S
C1113 C1114 1.487 . S
C1113 C1115 1.563 . S
C1113 C1116 1.525 . S
C1114 H1098 0.971 . S
C1114 H1099 0.981 . S
C1114 H1100 0.943 1_565 S
C1114 C1113 1.487 . S
C1115 H1101 0.957 1_565 S
C1115 H1102 0.964 . S
C1115 H1103 0.957 . S
C1115 C1113 1.563 . S
C1116 C1113 1.525 . S
C1116 C1117 1.396 . S
C1116 C1121 1.390 . S
C1117 C1111 1.465 1_565 S
C1117 C1116 1.396 . S
C1117 C1118 1.399 . S
C1118 H1104 0.929 . S
C1118 C1117 1.399 . S
C1118 C1119 1.385 . S
C1119 H1105 0.931 . S
C1119 C1118 1.385 . S
C1119 C1120 1.389 . S
C1120 C1119 1.389 . S
C1120 C1121 1.387 . S
C1121 H1106 0.930 . S
C1121 C1116 1.390 . S
C1121 C1120 1.387 . S
H1122 C1134 0.930 . S
H1123 C1136 0.930 . S
H1124 C1137 0.930 . S
H1125 C1141 0.959 . S
H1126 C1141 0.959 . S
H1127 C1141 0.961 . S
H1128 C1142 0.960 . S
H1129 C1142 0.961 . S
H1130 C1142 0.959 . S
H1131 C1145 0.929 . S
H1132 C1146 0.931 . S
H1133 C1148 0.930 . S
C1134 H1122 0.930 . S
C1134 C1135 1.399 . S
C1134 C1139 1.399 . S
C1135 C1134 1.399 . S
C1135 C1136 1.376 . S
C1136 H1123 0.930 . S
C1136 C1135 1.376 . S
C1136 C1137 1.388 . S
C1137 H1124 0.930 . S
C1137 C1136 1.388 . S
C1137 C1138 1.390 . S
C1138 C1137 1.390 . S
C1138 C1139 1.394 . S
C1138 C1144 1.465 . S
C1139 C1134 1.399 . S
C1139 C1138 1.394 . S
C1139 C1140 1.516 . S
C1140 C1139 1.516 . S
C1140 C1141 1.502 . S
C1140 C1142 1.561 . S
C1140 C1143 1.526 . S
C1141 H1125 0.959 . S
C1141 H1126 0.959 . S
C1141 H1127 0.961 . S
C1141 C1140 1.502 . S
C1142 H1128 0.960 . S
C1142 H1129 0.961 . S
C1142 H1130 0.959 . S
C1142 C1140 1.561 . S
C1143 C1140 1.526 . S
C1143 C1144 1.396 . S
C1143 C1148 1.390 . S
C1144 C1138 1.465 . S
C1144 C1143 1.396 . S
C1144 C1145 1.399 . S
C1145 H1131 0.929 . S
C1145 C1144 1.399 . S
C1145 C1146 1.385 . S
C1146 H1132 0.931 . S
C1146 C1145 1.385 . S
C1146 C1147 1.389 . S
C1147 C1146 1.389 . S
C1147 C1148 1.387 . S
C1148 H1133 0.930 . S
C1148 C1143 1.390 . S
C1148 C1147 1.387 . S
H1149 C1161 0.930 . S
H1150 C1163 0.930 . S
H1151 C1164 0.930 . S
H1152 C1168 0.965 . S
H1153 C1168 0.985 . S
H1154 C1168 0.945 1_655 S
H1155 C1169 0.958 1_655 S
H1156 C1169 0.964 . S
H1157 C1169 0.957 . S
H1158 C1172 0.929 . S
H1159 C1173 0.931 . S
H1160 C1175 0.930 . S
C1161 H1149 0.930 . S
C1161 C1162 1.399 . S
C1161 C1166 1.399 . S
C1162 C1161 1.399 . S
C1162 C1163 1.376 . S
C1163 H1150 0.930 . S
C1163 C1162 1.376 . S
C1163 C1164 1.388 . S
C1164 H1151 0.930 . S
C1164 C1163 1.388 . S
C1164 C1165 1.390 . S
C1165 C1164 1.390 . S
C1165 C1166 1.394 . S
C1165 C1171 1.465 1_655 S
C1166 C1161 1.399 . S
C1166 C1165 1.394 . S
C1166 C1167 1.517 1_655 S
C1167 C1166 1.517 1_455 S
C1167 C1168 1.487 . S
C1167 C1169 1.562 . S
C1167 C1170 1.525 . S
C1168 H1152 0.965 . S
C1168 H1153 0.985 . S
C1168 H1154 0.945 1_455 S
C1168 C1167 1.487 . S
C1169 H1155 0.958 1_455 S
C1169 H1156 0.964 . S
C1169 H1157 0.957 . S
C1169 C1167 1.562 . S
C1170 C1167 1.525 . S
C1170 C1171 1.396 . S
C1170 C1175 1.390 . S
C1171 C1165 1.465 1_455 S
C1171 C1170 1.396 . S
C1171 C1172 1.399 . S
C1172 H1158 0.929 . S
C1172 C1171 1.399 . S
C1172 C1173 1.385 . S
C1173 H1159 0.931 . S
C1173 C1172 1.385 . S
C1173 C1174 1.389 . S
C1174 C1173 1.389 . S
C1174 C1175 1.387 . S
C1175 H1160 0.930 . S
C1175 C1170 1.390 . S
C1175 C1174 1.387 . S
H1176 C1188 0.930 . S
H1177 C1190 0.930 . S
H1178 C1191 0.930 . S
H1179 C1195 0.953 . S
H1180 C1195 0.978 . S
H1181 C1195 0.936 1_545 S
H1182 C1196 0.957 1_545 S
H1183 C1196 0.963 . S
H1184 C1196 0.961 . S
H1185 C1199 0.929 . S
H1186 C1200 0.931 . S
H1187 C1202 0.930 . S
C1188 H1176 0.930 . S
C1188 C1189 1.399 . S
C1188 C1193 1.399 . S
C1189 C1188 1.399 . S
C1189 C1190 1.376 . S
C1190 H1177 0.930 . S
C1190 C1189 1.376 . S
C1190 C1191 1.388 . S
C1191 H1178 0.930 . S
C1191 C1190 1.388 . S
C1191 C1192 1.390 . S
C1192 C1191 1.390 . S
C1192 C1193 1.394 . S
C1192 C1198 1.465 1_545 S
C1193 C1188 1.399 . S
C1193 C1192 1.394 . S
C1193 C1194 1.517 1_545 S
C1194 C1193 1.517 1_565 S
C1194 C1195 1.516 . S
C1194 C1196 1.560 . S
C1194 C1197 1.525 . S
C1195 H1179 0.953 . S
C1195 H1180 0.978 . S
C1195 H1181 0.936 1_565 S
C1195 C1194 1.516 . S
C1196 H1182 0.957 1_565 S
C1196 H1183 0.963 . S
C1196 H1184 0.961 . S
C1196 C1194 1.560 . S
C1197 C1194 1.525 . S
C1197 C1198 1.396 . S
C1197 C1202 1.390 . S
C1198 C1192 1.465 1_565 S
C1198 C1197 1.396 . S
C1198 C1199 1.399 . S
C1199 H1185 0.929 . S
C1199 C1198 1.399 . S
C1199 C1200 1.385 . S
C1200 H1186 0.931 . S
C1200 C1199 1.385 . S
C1200 C1201 1.389 . S
C1201 C1200 1.389 . S
C1201 C1202 1.387 . S
C1202 H1187 0.930 . S
C1202 C1197 1.390 . S
C1202 C1201 1.387 . S
H1203 C1215 0.930 . S
H1204 C1217 0.930 . S
H1205 C1218 0.930 . S
H1206 C1222 0.959 . S
H1207 C1222 0.959 . S
H1208 C1222 0.961 . S
H1209 C1223 0.960 . S
H1210 C1223 0.961 . S
H1211 C1223 0.959 . S
H1212 C1226 0.929 . S
H1213 C1227 0.931 . S
H1214 C1229 0.930 . S
C1215 H1203 0.930 . S
C1215 C1216 1.399 . S
C1215 C1220 1.399 . S
C1216 C1215 1.399 . S
C1216 C1217 1.376 . S
C1217 H1204 0.930 . S
C1217 C1216 1.376 . S
C1217 C1218 1.388 . S
C1218 H1205 0.930 . S
C1218 C1217 1.388 . S
C1218 C1219 1.390 . S
C1219 C1218 1.390 . S
C1219 C1220 1.394 . S
C1219 C1225 1.465 . S
C1220 C1215 1.399 . S
C1220 C1219 1.394 . S
C1220 C1221 1.516 . S
C1221 C1220 1.516 . S
C1221 C1222 1.502 . S
C1221 C1223 1.561 . S
C1221 C1224 1.526 . S
C1222 H1206 0.959 . S
C1222 H1207 0.959 . S
C1222 H1208 0.961 . S
C1222 C1221 1.502 . S
C1223 H1209 0.960 . S
C1223 H1210 0.961 . S
C1223 H1211 0.959 . S
C1223 C1221 1.561 . S
C1224 C1221 1.526 . S
C1224 C1225 1.396 . S
C1224 C1229 1.390 . S
C1225 C1219 1.465 . S
C1225 C1224 1.396 . S
C1225 C1226 1.399 . S
C1226 H1212 0.929 . S
C1226 C1225 1.399 . S
C1226 C1227 1.385 . S
C1227 H1213 0.931 . S
C1227 C1226 1.385 . S
C1227 C1228 1.389 . S
C1228 C1227 1.389 . S
C1228 C1229 1.387 . S
C1229 H1214 0.930 . S
C1229 C1224 1.390 . S
C1229 C1228 1.387 . S
H1230 C1242 0.930 . S
H1231 C1244 0.930 . S
H1232 C1245 0.930 . S
H1233 C1249 0.961 . S
H1234 C1249 0.986 . S
H1235 C1249 0.947 1_455 S
H1236 C1250 0.958 1_455 S
H1237 C1250 0.964 . S
H1238 C1250 0.957 . S
H1239 C1253 0.929 . S
H1240 C1254 0.931 . S
H1241 C1256 0.930 . S
C1242 H1230 0.930 . S
C1242 C1243 1.399 . S
C1242 C1247 1.399 . S
C1243 C1242 1.399 . S
C1243 C1244 1.376 . S
C1244 H1231 0.930 . S
C1244 C1243 1.376 . S
C1244 C1245 1.388 . S
C1245 H1232 0.930 . S
C1245 C1244 1.388 . S
C1245 C1246 1.390 . S
C1246 C1245 1.390 . S
C1246 C1247 1.394 . S
C1246 C1252 1.465 1_455 S
C1247 C1242 1.399 . S
C1247 C1246 1.394 . S
C1247 C1248 1.517 1_455 S
C1248 C1247 1.517 1_655 S
C1248 C1249 1.488 . S
C1248 C1250 1.561 . S
C1248 C1251 1.525 . S
C1249 H1233 0.961 . S
C1249 H1234 0.986 . S
C1249 H1235 0.947 1_655 S
C1249 C1248 1.488 . S
C1250 H1236 0.958 1_655 S
C1250 H1237 0.964 . S
C1250 H1238 0.957 . S
C1250 C1248 1.561 . S
C1251 C1248 1.525 . S
C1251 C1252 1.396 . S
C1251 C1256 1.390 . S
C1252 C1246 1.465 1_655 S
C1252 C1251 1.396 . S
C1252 C1253 1.399 . S
C1253 H1239 0.929 . S
C1253 C1252 1.399 . S
C1253 C1254 1.385 . S
C1254 H1240 0.931 . S
C1254 C1253 1.385 . S
C1254 C1255 1.389 . S
C1255 C1254 1.389 . S
C1255 C1256 1.387 . S
C1256 H1241 0.930 . S
C1256 C1251 1.390 . S
C1256 C1255 1.387 . S
H1257 C1269 0.930 . S
H1258 C1271 0.930 . S
H1259 C1272 0.930 . S
H1260 C1276 0.972 . S
H1261 C1276 0.980 . S
H1262 C1276 0.941 1_565 S
H1263 C1277 0.957 1_565 S
H1264 C1277 0.964 . S
H1265 C1277 0.957 . S
H1266 C1280 0.929 . S
H1267 C1281 0.931 . S
H1268 C1283 0.930 . S
C1269 H1257 0.930 . S
C1269 C1270 1.399 . S
C1269 C1274 1.399 . S
C1270 C1269 1.399 . S
C1270 C1271 1.376 . S
C1271 H1258 0.930 . S
C1271 C1270 1.376 . S
C1271 C1272 1.388 . S
C1272 H1259 0.930 . S
C1272 C1271 1.388 . S
C1272 C1273 1.390 . S
C1273 C1272 1.390 . S
C1273 C1274 1.394 . S
C1273 C1279 1.465 1_565 S
C1274 C1269 1.399 . S
C1274 C1273 1.394 . S
C1274 C1275 1.517 1_565 S
C1275 C1274 1.517 1_545 S
C1275 C1276 1.488 . S
C1275 C1277 1.563 . S
C1275 C1278 1.525 . S
C1276 H1260 0.972 . S
C1276 H1261 0.980 . S
C1276 H1262 0.941 1_545 S
C1276 C1275 1.488 . S
C1277 H1263 0.957 1_545 S
C1277 H1264 0.964 . S
C1277 H1265 0.957 . S
C1277 C1275 1.563 . S
C1278 C1275 1.525 . S
C1278 C1279 1.396 . S
C1278 C1283 1.390 . S
C1279 C1273 1.465 1_545 S
C1279 C1278 1.396 . S
C1279 C1280 1.399 . S
C1280 H1266 0.929 . S
C1280 C1279 1.399 . S
C1280 C1281 1.385 . S
C1281 H1267 0.931 . S
C1281 C1280 1.385 . S
C1281 C1282 1.389 . S
C1282 C1281 1.389 . S
C1282 C1283 1.387 . S
C1283 H1268 0.930 . S
C1283 C1278 1.390 . S
C1283 C1282 1.387 . S
H1284 C1296 0.930 . S
H1285 C1298 0.930 . S
H1286 C1299 0.930 . S
H1287 C1303 0.959 . S
H1288 C1303 0.959 . S
H1289 C1303 0.961 . S
H1290 C1304 0.960 . S
H1291 C1304 0.961 . S
H1292 C1304 0.959 . S
H1293 C1307 0.929 . S
H1294 C1308 0.931 . S
H1295 C1310 0.930 . S
C1296 H1284 0.930 . S
C1296 C1297 1.399 . S
C1296 C1301 1.399 . S
C1297 C1296 1.399 . S
C1297 C1298 1.376 . S
C1298 H1285 0.930 . S
C1298 C1297 1.376 . S
C1298 C1299 1.388 1_556 S
C1299 H1286 0.930 . S
C1299 C1298 1.388 1_554 S
C1299 C1300 1.394 . S
C1300 C1299 1.394 . S
C1300 C1301 1.375 1_554 S
C1300 C1306 1.477 . S
C1301 C1296 1.399 . S
C1301 C1300 1.375 1_556 S
C1301 C1302 1.516 . S
C1302 C1301 1.516 . S
C1302 C1303 1.502 . S
C1302 C1304 1.561 . S
C1302 C1305 1.526 1_556 S
C1303 H1287 0.959 . S
C1303 H1288 0.959 . S
C1303 H1289 0.961 . S
C1303 C1302 1.502 . S
C1304 H1290 0.960 . S
C1304 H1291 0.961 . S
C1304 H1292 0.959 . S
C1304 C1302 1.561 . S
C1305 C1302 1.526 1_554 S
C1305 C1306 1.396 . S
C1305 C1310 1.390 . S
C1306 C1300 1.477 . S
C1306 C1305 1.396 . S
C1306 C1307 1.399 . S
C1307 H1293 0.929 . S
C1307 C1306 1.399 . S
C1307 C1308 1.385 . S
C1308 H1294 0.931 . S
C1308 C1307 1.385 . S
C1308 C1309 1.389 . S
C1309 C1308 1.389 . S
C1309 C1310 1.387 . S
C1310 H1295 0.930 . S
C1310 C1305 1.390 . S
C1310 C1309 1.387 . S
H1311 C1323 0.930 . S
H1312 C1325 0.930 . S
H1313 C1326 0.930 . S
H1314 C1330 0.959 . S
H1315 C1330 0.959 . S
H1316 C1330 0.961 . S
H1317 C1331 0.960 . S
H1318 C1331 0.961 . S
H1319 C1331 0.959 . S
H1320 C1334 0.929 . S
H1321 C1335 0.931 . S
H1322 C1337 0.930 . S
C1323 H1311 0.930 . S
C1323 C1324 1.399 . S
C1323 C1328 1.399 . S
C1324 C1323 1.399 . S
C1324 C1325 1.376 . S
C1325 H1312 0.930 . S
C1325 C1324 1.376 . S
C1325 C1326 1.388 . S
C1326 H1313 0.930 . S
C1326 C1325 1.388 . S
C1326 C1327 1.390 . S
C1327 C1326 1.390 . S
C1327 C1328 1.394 . S
C1327 C1333 1.465 . S
C1328 C1323 1.399 . S
C1328 C1327 1.394 . S
C1328 C1329 1.516 . S
C1329 C1328 1.516 . S
C1329 C1330 1.502 . S
C1329 C1331 1.561 . S
C1329 C1332 1.526 . S
C1330 H1314 0.959 . S
C1330 H1315 0.959 . S
C1330 H1316 0.961 . S
C1330 C1329 1.502 . S
C1331 H1317 0.960 . S
C1331 H1318 0.961 . S
C1331 H1319 0.959 . S
C1331 C1329 1.561 . S
C1332 C1329 1.526 . S
C1332 C1333 1.396 . S
C1332 C1337 1.390 . S
C1333 C1327 1.465 . S
C1333 C1332 1.396 . S
C1333 C1334 1.399 . S
C1334 H1320 0.929 . S
C1334 C1333 1.399 . S
C1334 C1335 1.385 . S
C1335 H1321 0.931 . S
C1335 C1334 1.385 . S
C1335 C1336 1.389 . S
C1336 C1335 1.389 . S
C1336 C1337 1.387 . S
C1337 H1322 0.930 . S
C1337 C1332 1.390 . S
C1337 C1336 1.387 . S
H1338 C1350 0.930 . S
H1339 C1352 0.930 . S
H1340 C1353 0.930 . S
H1341 C1357 0.959 1_556 S
H1342 C1357 0.959 . S
H1343 C1357 0.961 . S
H1344 C1358 0.960 . S
H1345 C1358 0.961 . S
H1346 C1358 0.959 . S
H1347 C1361 0.929 1_556 S
H1348 C1362 0.931 . S
H1349 C1364 0.930 . S
C1350 H1338 0.930 . S
C1350 C1351 1.399 . S
C1350 C1355 1.399 . S
C1351 C1350 1.399 . S
C1351 C1352 1.376 . S
C1352 H1339 0.930 . S
C1352 C1351 1.376 . S
C1352 C1353 1.388 . S
C1353 H1340 0.930 . S
C1353 C1352 1.388 . S
C1353 C1354 1.390 . S
C1354 C1353 1.390 . S
C1354 C1355 1.394 . S
C1354 C1360 1.465 1_556 S
C1355 C1350 1.399 . S
C1355 C1354 1.394 . S
C1355 C1356 1.516 1_556 S
C1356 C1355 1.516 1_554 S
C1356 C1357 1.502 . S
C1356 C1358 1.561 . S
C1356 C1359 1.526 . S
C1357 H1341 0.959 1_554 S
C1357 H1342 0.959 . S
C1357 H1343 0.961 . S
C1357 C1356 1.502 . S
C1358 H1344 0.960 . S
C1358 H1345 0.961 . S
C1358 H1346 0.959 . S
C1358 C1356 1.561 . S
C1359 C1356 1.526 . S
C1359 C1360 1.396 . S
C1359 C1364 1.390 . S
C1360 C1354 1.465 1_554 S
C1360 C1359 1.396 . S
C1360 C1361 1.399 . S
C1361 H1347 0.929 1_554 S
C1361 C1360 1.399 . S
C1361 C1362 1.385 . S
C1362 H1348 0.931 . S
C1362 C1361 1.385 . S
C1362 C1363 1.389 . S
C1363 C1362 1.389 . S
C1363 C1364 1.387 . S
C1364 H1349 0.930 . S
C1364 C1359 1.390 . S
C1364 C1363 1.387 . S
H1365 C1377 0.930 . S
H1366 C1379 0.930 . S
H1367 C1380 0.930 . S
H1368 C1384 0.959 . S
H1369 C1384 0.959 . S
H1370 C1384 0.961 . S
H1371 C1385 0.960 . S
H1372 C1385 0.961 . S
H1373 C1385 0.959 . S
H1374 C1388 0.929 . S
H1375 C1389 0.931 . S
H1376 C1391 0.930 . S
C1377 H1365 0.930 . S
C1377 C1378 1.399 . S
C1377 C1382 1.399 . S
C1378 C1377 1.399 . S
C1378 C1379 1.376 . S
C1379 H1366 0.930 . S
C1379 C1378 1.376 . S
C1379 C1380 1.388 . S
C1380 H1367 0.930 . S
C1380 C1379 1.388 . S
C1380 C1381 1.390 . S
C1381 C1380 1.390 . S
C1381 C1382 1.394 . S
C1381 C1387 1.465 . S
C1382 C1377 1.399 . S
C1382 C1381 1.394 . S
C1382 C1383 1.516 . S
C1383 C1382 1.516 . S
C1383 C1384 1.502 . S
C1383 C1385 1.561 . S
C1383 C1386 1.526 . S
C1384 H1368 0.959 . S
C1384 H1369 0.959 . S
C1384 H1370 0.961 . S
C1384 C1383 1.502 . S
C1385 H1371 0.960 . S
C1385 H1372 0.961 . S
C1385 H1373 0.959 . S
C1385 C1383 1.561 . S
C1386 C1383 1.526 . S
C1386 C1387 1.396 . S
C1386 C1391 1.390 . S
C1387 C1381 1.465 . S
C1387 C1386 1.396 . S
C1387 C1388 1.399 . S
C1388 H1374 0.929 . S
C1388 C1387 1.399 . S
C1388 C1389 1.385 . S
C1389 H1375 0.931 . S
C1389 C1388 1.385 . S
C1389 C1390 1.389 . S
C1390 C1389 1.389 . S
C1390 C1391 1.387 . S
C1391 H1376 0.930 . S
C1391 C1386 1.390 . S
C1391 C1390 1.387 . S
H1392 C1404 0.930 . S
H1393 C1406 0.930 . S
H1394 C1407 0.930 . S
H1395 C1411 0.963 . S
H1396 C1411 0.959 . S
H1397 C1411 0.961 . S
H1398 C1412 0.960 . S
H1399 C1412 0.961 . S
H1400 C1412 0.959 . S
H1401 C1415 0.918 1_556 S
H1402 C1416 0.931 . S
H1403 C1418 0.930 . S
C1404 H1392 0.930 . S
C1404 C1405 1.399 . S
C1404 C1409 1.399 . S
C1405 C1404 1.399 . S
C1405 C1406 1.376 . S
C1406 H1393 0.930 . S
C1406 C1405 1.376 . S
C1406 C1407 1.388 . S
C1407 H1394 0.930 . S
C1407 C1406 1.388 . S
C1407 C1408 1.390 . S
C1408 C1407 1.390 . S
C1408 C1409 1.394 . S
C1408 C1414 1.465 1_556 S
C1409 C1404 1.399 . S
C1409 C1408 1.394 . S
C1409 C1410 1.516 1_556 S
C1410 C1409 1.516 1_554 S
C1410 C1411 1.502 . S
C1410 C1412 1.561 . S
C1410 C1413 1.526 . S
C1411 H1395 0.963 . S
C1411 H1396 0.959 . S
C1411 H1397 0.961 . S
C1411 C1410 1.502 . S
C1412 H1398 0.960 . S
C1412 H1399 0.961 . S
C1412 H1400 0.959 . S
C1412 C1410 1.561 . S
C1413 C1410 1.526 . S
C1413 C1414 1.396 . S
C1413 C1418 1.390 . S
C1414 C1408 1.465 1_554 S
C1414 C1413 1.396 . S
C1414 C1415 1.400 . S
C1415 H1401 0.918 1_554 S
C1415 C1414 1.400 . S
C1415 C1416 1.396 . S
C1416 H1402 0.931 . S
C1416 C1415 1.396 . S
C1416 C1417 1.389 . S
C1417 C1416 1.389 . S
C1417 C1418 1.387 . S
C1418 H1403 0.930 . S
C1418 C1413 1.390 . S
C1418 C1417 1.387 . S
H1419 C1431 0.930 . S
H1420 C1433 0.930 . S
H1421 C1434 0.930 . S
H1422 C1438 0.959 . S
H1423 C1438 0.959 . S
H1424 C1438 0.961 . S
H1425 C1439 0.960 . S
H1426 C1439 0.961 . S
H1427 C1439 0.959 . S
H1428 C1442 0.929 . S
H1429 C1443 0.931 . S
H1430 C1445 0.930 . S
C1431 H1419 0.930 . S
C1431 C1432 1.399 . S
C1431 C1436 1.399 . S
C1432 C1431 1.399 . S
C1432 C1433 1.376 . S
C1433 H1420 0.930 . S
C1433 C1432 1.376 . S
C1433 C1434 1.388 . S
C1434 H1421 0.930 . S
C1434 C1433 1.388 . S
C1434 C1435 1.390 . S
C1435 C1434 1.390 . S
C1435 C1436 1.394 . S
C1435 C1441 1.465 . S
C1436 C1431 1.399 . S
C1436 C1435 1.394 . S
C1436 C1437 1.516 . S
C1437 C1436 1.516 . S
C1437 C1438 1.502 . S
C1437 C1439 1.561 . S
C1437 C1440 1.526 . S
C1438 H1422 0.959 . S
C1438 H1423 0.959 . S
C1438 H1424 0.961 . S
C1438 C1437 1.502 . S
C1439 H1425 0.960 . S
C1439 H1426 0.961 . S
C1439 H1427 0.959 . S
C1439 C1437 1.561 . S
C1440 C1437 1.526 . S
C1440 C1441 1.396 . S
C1440 C1445 1.390 . S
C1441 C1435 1.465 . S
C1441 C1440 1.396 . S
C1441 C1442 1.399 . S
C1442 H1428 0.929 . S
C1442 C1441 1.399 . S
C1442 C1443 1.385 . S
C1443 H1429 0.931 . S
C1443 C1442 1.385 . S
C1443 C1444 1.389 . S
C1444 C1443 1.389 . S
C1444 C1445 1.387 . S
C1445 H1430 0.930 . S
C1445 C1440 1.390 . S
C1445 C1444 1.387 . S
H1446 C1458 0.930 . S
H1447 C1460 0.930 . S
H1448 C1461 0.930 1_556 S
H1449 C1465 0.959 1_556 S
H1450 C1465 0.959 . S
H1451 C1465 0.961 . S
H1452 C1466 0.960 . S
H1453 C1466 0.961 . S
H1454 C1466 0.959 . S
H1455 C1469 0.929 . S
H1456 C1470 0.931 . S
H1457 C1472 0.930 . S
C1458 H1446 0.930 . S
C1458 C1459 1.399 . S
C1458 C1463 1.399 . S
C1459 C1458 1.399 . S
C1459 C1460 1.376 . S
C1460 H1447 0.930 . S
C1460 C1459 1.376 . S
C1460 C1461 1.388 . S
C1461 H1448 0.930 1_554 S
C1461 C1460 1.388 . S
C1461 C1462 1.390 . S
C1462 C1461 1.390 . S
C1462 C1463 1.394 . S
C1462 C1468 1.465 1_554 S
C1463 C1458 1.399 . S
C1463 C1462 1.394 . S
C1463 C1464 1.516 . S
C1464 C1463 1.516 . S
C1464 C1465 1.502 . S
C1464 C1466 1.561 . S
C1464 C1467 1.526 1_554 S
C1465 H1449 0.959 1_554 S
C1465 H1450 0.959 . S
C1465 H1451 0.961 . S
C1465 C1464 1.502 . S
C1466 H1452 0.960 . S
C1466 H1453 0.961 . S
C1466 H1454 0.959 . S
C1466 C1464 1.561 . S
C1467 C1464 1.526 1_556 S
C1467 C1468 1.396 . S
C1467 C1472 1.390 . S
C1468 C1462 1.465 1_556 S
C1468 C1467 1.396 . S
C1468 C1469 1.399 . S
C1469 H1455 0.929 . S
C1469 C1468 1.399 . S
C1469 C1470 1.385 . S
C1470 H1456 0.931 . S
C1470 C1469 1.385 . S
C1470 C1471 1.389 . S
C1471 C1470 1.389 . S
C1471 C1472 1.387 . S
C1472 H1457 0.930 . S
C1472 C1467 1.390 . S
C1472 C1471 1.387 . S
H1473 C1485 0.930 . S
H1474 C1487 0.930 . S
H1475 C1488 0.930 . S
H1476 C1492 0.959 . S
H1477 C1492 0.959 . S
H1478 C1492 0.961 . S
H1479 C1493 0.960 . S
H1480 C1493 0.961 . S
H1481 C1493 0.959 . S
H1482 C1496 0.929 . S
H1483 C1497 0.931 . S
H1484 C1499 0.930 . S
C1485 H1473 0.930 . S
C1485 C1486 1.399 . S
C1485 C1490 1.399 . S
C1486 C1485 1.399 . S
C1486 C1487 1.376 . S
C1487 H1474 0.930 . S
C1487 C1486 1.376 . S
C1487 C1488 1.388 . S
C1488 H1475 0.930 . S
C1488 C1487 1.388 . S
C1488 C1489 1.390 . S
C1489 C1488 1.390 . S
C1489 C1490 1.394 . S
C1489 C1495 1.465 . S
C1490 C1485 1.399 . S
C1490 C1489 1.394 . S
C1490 C1491 1.516 . S
C1491 C1490 1.516 . S
C1491 C1492 1.502 . S
C1491 C1493 1.561 . S
C1491 C1494 1.526 . S
C1492 H1476 0.959 . S
C1492 H1477 0.959 . S
C1492 H1478 0.961 . S
C1492 C1491 1.502 . S
C1493 H1479 0.960 . S
C1493 H1480 0.961 . S
C1493 H1481 0.959 . S
C1493 C1491 1.561 . S
C1494 C1491 1.526 . S
C1494 C1495 1.396 . S
C1494 C1499 1.390 . S
C1495 C1489 1.465 . S
C1495 C1494 1.396 . S
C1495 C1496 1.399 . S
C1496 H1482 0.929 . S
C1496 C1495 1.399 . S
C1496 C1497 1.385 . S
C1497 H1483 0.931 . S
C1497 C1496 1.385 . S
C1497 C1498 1.389 . S
C1498 C1497 1.389 . S
C1498 C1499 1.387 . S
C1499 H1484 0.930 . S
C1499 C1494 1.390 . S
C1499 C1498 1.387 . S
H1500 C1512 0.930 . S
H1501 C1514 0.930 . S
H1502 C1515 0.930 . S
H1503 C1519 0.959 . S
H1504 C1519 0.959 . S
H1505 C1519 0.961 . S
H1506 C1520 0.960 . S
H1507 C1520 0.961 . S
H1508 C1520 0.959 1_556 S
H1509 C1523 0.929 . S
H1510 C1524 0.931 . S
H1511 C1526 0.930 . S
C1512 H1500 0.930 . S
C1512 C1513 1.399 . S
C1512 C1517 1.399 . S
C1513 C1512 1.399 . S
C1513 C1514 1.376 . S
C1514 H1501 0.930 . S
C1514 C1513 1.376 . S
C1514 C1515 1.388 1_554 S
C1515 H1502 0.930 . S
C1515 C1514 1.388 1_556 S
C1515 C1516 1.390 . S
C1516 C1515 1.390 . S
C1516 C1517 1.394 1_556 S
C1516 C1522 1.465 . S
C1517 C1512 1.399 . S
C1517 C1516 1.394 1_554 S
C1517 C1518 1.516 . S
C1518 C1517 1.516 . S
C1518 C1519 1.502 . S
C1518 C1520 1.561 . S
C1518 C1521 1.526 1_554 S
C1519 H1503 0.959 . S
C1519 H1504 0.959 . S
C1519 H1505 0.961 . S
C1519 C1518 1.502 . S
C1520 H1506 0.960 . S
C1520 H1507 0.961 . S
C1520 H1508 0.959 1_554 S
C1520 C1518 1.561 . S
C1521 C1518 1.526 1_556 S
C1521 C1522 1.396 . S
C1521 C1526 1.390 . S
C1522 C1516 1.465 . S
C1522 C1521 1.396 . S
C1522 C1523 1.399 . S
C1523 H1509 0.929 . S
C1523 C1522 1.399 . S
C1523 C1524 1.385 . S
C1524 H1510 0.931 . S
C1524 C1523 1.385 . S
C1524 C1525 1.389 . S
C1525 C1524 1.389 . S
C1525 C1526 1.387 . S
C1526 H1511 0.930 . S
C1526 C1521 1.390 . S
C1526 C1525 1.387 . S
H1527 C1539 0.930 . S
H1528 C1541 0.930 . S
H1529 C1542 0.930 . S
H1530 C1546 0.959 . S
H1531 C1546 0.959 . S
H1532 C1546 0.961 . S
H1533 C1547 0.960 . S
H1534 C1547 0.961 . S
H1535 C1547 0.959 . S
H1536 C1550 0.929 . S
H1537 C1551 0.931 . S
H1538 C1553 0.930 . S
C1539 H1527 0.930 . S
C1539 C1540 1.399 . S
C1539 C1544 1.399 . S
C1540 C1539 1.399 . S
C1540 C1541 1.376 . S
C1541 H1528 0.930 . S
C1541 C1540 1.376 . S
C1541 C1542 1.388 . S
C1542 H1529 0.930 . S
C1542 C1541 1.388 . S
C1542 C1543 1.390 . S
C1543 C1542 1.390 . S
C1543 C1544 1.394 . S
C1543 C1549 1.465 . S
C1544 C1539 1.399 . S
C1544 C1543 1.394 . S
C1544 C1545 1.516 . S
C1545 C1544 1.516 . S
C1545 C1546 1.502 . S
C1545 C1547 1.561 . S
C1545 C1548 1.526 . S
C1546 H1530 0.959 . S
C1546 H1531 0.959 . S
C1546 H1532 0.961 . S
C1546 C1545 1.502 . S
C1547 H1533 0.960 . S
C1547 H1534 0.961 . S
C1547 H1535 0.959 . S
C1547 C1545 1.561 . S
C1548 C1545 1.526 . S
C1548 C1549 1.396 . S
C1548 C1553 1.390 . S
C1549 C1543 1.465 . S
C1549 C1548 1.396 . S
C1549 C1550 1.399 . S
C1550 H1536 0.929 . S
C1550 C1549 1.399 . S
C1550 C1551 1.385 . S
C1551 H1537 0.931 . S
C1551 C1550 1.385 . S
C1551 C1552 1.389 . S
C1552 C1551 1.389 . S
C1552 C1553 1.387 . S
C1553 H1538 0.930 . S
C1553 C1548 1.390 . S
C1553 C1552 1.387 . S
H1554 C1566 0.930 . S
H1555 C1568 0.930 . S
H1556 C1569 0.930 . S
H1557 C1573 0.959 . S
H1558 C1573 0.959 . S
H1559 C1573 0.961 . S
H1560 C1574 0.960 . S
H1561 C1574 0.961 . S
H1562 C1574 0.959 . S
H1563 C1577 0.929 . S
H1564 C1578 0.931 . S
H1565 C1580 0.930 . S
C1566 H1554 0.930 . S
C1566 C1567 1.399 . S
C1566 C1571 1.399 . S
C1567 C1566 1.399 . S
C1567 C1568 1.376 . S
C1568 H1555 0.930 . S
C1568 C1567 1.376 . S
C1568 C1569 1.388 . S
C1569 H1556 0.930 . S
C1569 C1568 1.388 . S
C1569 C1570 1.390 . S
C1570 C1569 1.390 . S
C1570 C1571 1.394 . S
C1570 C1576 1.451 1_556 S
C1571 C1566 1.399 . S
C1571 C1570 1.394 . S
C1571 C1572 1.516 1_556 S
C1572 C1571 1.516 1_554 S
C1572 C1573 1.502 . S
C1572 C1574 1.561 . S
C1572 C1575 1.526 . S
C1573 H1557 0.959 . S
C1573 H1558 0.959 . S
C1573 H1559 0.961 . S
C1573 C1572 1.502 . S
C1574 H1560 0.960 . S
C1574 H1561 0.961 . S
C1574 H1562 0.959 . S
C1574 C1572 1.561 . S
C1575 C1572 1.526 . S
C1575 C1576 1.418 . S
C1575 C1580 1.390 . S
C1576 C1570 1.451 1_554 S
C1576 C1575 1.418 . S
C1576 C1577 1.395 1_554 S
C1577 H1563 0.929 . S
C1577 C1576 1.395 1_556 S
C1577 C1578 1.385 1_556 S
C1578 H1564 0.931 . S
C1578 C1577 1.385 1_554 S
C1578 C1579 1.389 . S
C1579 C1578 1.389 . S
C1579 C1580 1.387 . S
C1580 H1565 0.930 . S
C1580 C1575 1.390 . S
C1580 C1579 1.387 . S
H1581 C1593 0.930 . S
H1582 C1595 0.930 . S
H1583 C1596 0.930 . S
H1584 C1600 0.959 . S
H1585 C1600 0.959 . S
H1586 C1600 0.961 . S
H1587 C1601 0.960 . S
H1588 C1601 0.961 . S
H1589 C1601 0.959 . S
H1590 C1604 0.929 . S
H1591 C1605 0.931 . S
H1592 C1607 0.930 . S
C1593 H1581 0.930 . S
C1593 C1594 1.399 . S
C1593 C1598 1.399 . S
C1594 C1593 1.399 . S
C1594 C1595 1.376 . S
C1595 H1582 0.930 . S
C1595 C1594 1.376 . S
C1595 C1596 1.388 . S
C1596 H1583 0.930 . S
C1596 C1595 1.388 . S
C1596 C1597 1.390 . S
C1597 C1596 1.390 . S
C1597 C1598 1.394 . S
C1597 C1603 1.465 . S
C1598 C1593 1.399 . S
C1598 C1597 1.394 . S
C1598 C1599 1.516 . S
C1599 C1598 1.516 . S
C1599 C1600 1.502 . S
C1599 C1601 1.561 . S
C1599 C1602 1.526 . S
C1600 H1584 0.959 . S
C1600 H1585 0.959 . S
C1600 H1586 0.961 . S
C1600 C1599 1.502 . S
C1601 H1587 0.960 . S
C1601 H1588 0.961 . S
C1601 H1589 0.959 . S
C1601 C1599 1.561 . S
C1602 C1599 1.526 . S
C1602 C1603 1.396 . S
C1602 C1607 1.390 . S
C1603 C1597 1.465 . S
C1603 C1602 1.396 . S
C1603 C1604 1.399 . S
C1604 H1590 0.929 . S
C1604 C1603 1.399 . S
C1604 C1605 1.385 . S
C1605 H1591 0.931 . S
C1605 C1604 1.385 . S
C1605 C1606 1.389 . S
C1606 C1605 1.389 . S
C1606 C1607 1.387 . S
C1607 H1592 0.930 . S
C1607 C1602 1.390 . S
C1607 C1606 1.387 . S
C325 C5 1.468 . S
C337 C200 1.466 . S
C352 C18 1.445 . S
C364 C213 1.444 . S
C379 C224 1.468 . S
C391 C31 1.468 . S
C406 C161 1.461 . S
C418 C44 1.458 . S
C433 C174 1.449 . S
C445 C57 1.447 . S
C460 C187 1.444 . S
C472 C68 1.445 . S
C487 C276 1.462 . S
C499 C83 1.465 . S
C514 C94 1.468 . S
C526 C289 1.466 . S
C541 C302 1.468 . S
C553 C107 1.467 . S
C568 C122 1.446 . S
C580 C237 1.445 . S
C595 C250 1.462 . S
C607 C133 1.458 . S
C622 C148 1.449 . S
C634 C265 1.453 . S
C649 C134 1.508 . S
C661 C10 1.488 . S
C676 C153 1.479 . S
C688 C23 1.519 . S
C703 C36 1.516 . S
C715 C88 1.482 . S
C730 C49 1.510 . S
C742 C95 1.486 . S
C757 C108 1.481 . S
C769 C62 1.519 . S
C784 C69 1.482 . S
C796 C127 1.515 . S
C811 C290 1.519 . S
C823 C166 1.484 . S
C838 C179 1.514 . S
C850 C303 1.499 . S
C865 C192 1.510 . S
C877 C238 1.480 . S
C892 C251 1.518 . S
C904 C205 1.494 . S
C919 C218 1.498 . S
C931 C270 1.515 . S
C946 C225 1.517 . S
C958 C277 1.495 . S
C973 C3 1.546 . S
C985 C239 1.550 . S
C1000 C252 1.540 . S
C1012 C16 1.543 . S
C1027 C29 1.547 . S
C1039 C263 1.551 . S
C1054 C42 1.538 . S
C1066 C278 1.539 . S
C1081 C291 1.562 . S
C1093 C55 1.560 . S
C1108 C70 1.557 . S
C1120 C304 1.554 . S
C1135 C81 1.553 . S
C1147 C159 1.557 . S
C1162 C96 1.562 . S
C1174 C172 1.559 . S
C1189 C185 1.539 . S
C1201 C109 1.542 . S
C1216 C198 1.562 . S
C1228 C120 1.563 . S
C1243 C135 1.563 . S
C1255 C211 1.562 . S
C1270 C226 1.562 . S
C1282 C146 1.560 . S
C1297 C82 1.493 . S
C1309 C4 1.486 . S
C1324 C17 1.505 . S
C1336 C101 1.495 . S
C1351 C114 1.501 . S
C1363 C30 1.504 . S
C1378 C121 1.492 . S
C1390 C43 1.504 . S
C1405 C140 1.500 . S
C1417 C56 1.505 . S
C1432 C75 1.505 . S
C1444 C147 1.499 . S
C1459 C244 1.503 . S
C1471 C160 1.499 . S
C1486 C173 1.505 . S
C1498 C257 1.493 . S
C1513 C264 1.500 . S
C1525 C186 1.486 . S
C1540 C283 1.505 . S
C1552 C199 1.495 . S
C1567 C212 1.486 . S
C1579 C296 1.494 . S
C1594 C231 1.492 . S
C1606 C309 1.488 . S
