# Generated by pormake.
# Topology unw, (4)-cn, num edge types: 1
# Building blocks:
#     Node 0, Type 0, BuildingBlock: MUDLON_clean_sbu_0, # of connection points: 4
#     Node 1, Type 0, BuildingBlock: MUDLON_clean_sbu_0, # of connection points: 4
#     Node 2, Type 0, BuildingBlock: MUDLON_clean_sbu_0, # of connection points: 4
#     Node 3, Type 0, BuildingBlock: MUDLON_clean_sbu_0, # of connection points: 4
#     Node 4, Type 0, BuildingBlock: MUDLON_clean_sbu_0, # of connection points: 4
#     Node 5, Type 0, BuildingBlock: MUDLON_clean_sbu_0, # of connection points: 4
#     Node 6, Type 0, BuildingBlock: MUDLON_clean_sbu_0, # of connection points: 4
#     Node 7, Type 0, BuildingBlock: MUDLON_clean_sbu_0, # of connection points: 4
#     Node 8, Type 0, BuildingBlock: MUDLON_clean_sbu_0, # of connection points: 4
#     Node 9, Type 0, BuildingBlock: MUDLON_clean_sbu_0, # of connection points: 4
#     Node 10, Type 0, BuildingBlock: MUDLON_clean_sbu_0, # of connection points: 4
#     Node 11, Type 0, BuildingBlock: MUDLON_clean_sbu_0, # of connection points: 4
#     Node 12, Type 0, BuildingBlock: MUDLON_clean_sbu_0, # of connection points: 4
#     Node 13, Type 0, BuildingBlock: MUDLON_clean_sbu_0, # of connection points: 4
#     Node 14, Type 0, BuildingBlock: MUDLON_clean_sbu_0, # of connection points: 4
#     Node 15, Type 0, BuildingBlock: MUDLON_clean_sbu_0, # of connection points: 4
#     Node 16, Type 0, BuildingBlock: MUDLON_clean_sbu_0, # of connection points: 4
#     Node 17, Type 0, BuildingBlock: MUDLON_clean_sbu_0, # of connection points: 4
#     Node 18, Type 0, BuildingBlock: MUDLON_clean_sbu_0, # of connection points: 4
#     Node 19, Type 0, BuildingBlock: MUDLON_clean_sbu_0, # of connection points: 4
#     Node 20, Type 0, BuildingBlock: MUDLON_clean_sbu_0, # of connection points: 4
#     Node 21, Type 0, BuildingBlock: MUDLON_clean_sbu_0, # of connection points: 4
#     Node 22, Type 0, BuildingBlock: MUDLON_clean_sbu_0, # of connection points: 4
#     Node 23, Type 0, BuildingBlock: MUDLON_clean_sbu_0, # of connection points: 4
#     Edge 24, Type (0, 0), BuildingBlock: AJUNOK_clean_linker_0, # of connection points: 2
#     Edge 25, Type (0, 0), BuildingBlock: AJUNOK_clean_linker_0, # of connection points: 2
#     Edge 26, Type (0, 0), BuildingBlock: AJUNOK_clean_linker_0, # of connection points: 2
#     Edge 27, Type (0, 0), BuildingBlock: AJUNOK_clean_linker_0, # of connection points: 2
#     Edge 28, Type (0, 0), BuildingBlock: AJUNOK_clean_linker_0, # of connection points: 2
#     Edge 29, Type (0, 0), BuildingBlock: AJUNOK_clean_linker_0, # of connection points: 2
#     Edge 30, Type (0, 0), BuildingBlock: AJUNOK_clean_linker_0, # of connection points: 2
#     Edge 31, Type (0, 0), BuildingBlock: AJUNOK_clean_linker_0, # of connection points: 2
#     Edge 32, Type (0, 0), BuildingBlock: AJUNOK_clean_linker_0, # of connection points: 2
#     Edge 33, Type (0, 0), BuildingBlock: AJUNOK_clean_linker_0, # of connection points: 2
#     Edge 34, Type (0, 0), BuildingBlock: AJUNOK_clean_linker_0, # of connection points: 2
#     Edge 35, Type (0, 0), BuildingBlock: AJUNOK_clean_linker_0, # of connection points: 2
#     Edge 36, Type (0, 0), BuildingBlock: AJUNOK_clean_linker_0, # of connection points: 2
#     Edge 37, Type (0, 0), BuildingBlock: AJUNOK_clean_linker_0, # of connection points: 2
#     Edge 38, Type (0, 0), BuildingBlock: AJUNOK_clean_linker_0, # of connection points: 2
#     Edge 39, Type (0, 0), BuildingBlock: AJUNOK_clean_linker_0, # of connection points: 2
#     Edge 40, Type (0, 0), BuildingBlock: AJUNOK_clean_linker_0, # of connection points: 2
#     Edge 41, Type (0, 0), BuildingBlock: AJUNOK_clean_linker_0, # of connection points: 2
#     Edge 42, Type (0, 0), BuildingBlock: AJUNOK_clean_linker_0, # of connection points: 2
#     Edge 43, Type (0, 0), BuildingBlock: AJUNOK_clean_linker_0, # of connection points: 2
#     Edge 44, Type (0, 0), BuildingBlock: AJUNOK_clean_linker_0, # of connection points: 2
#     Edge 45, Type (0, 0), BuildingBlock: AJUNOK_clean_linker_0, # of connection points: 2
#     Edge 46, Type (0, 0), BuildingBlock: AJUNOK_clean_linker_0, # of connection points: 2
#     Edge 47, Type (0, 0), BuildingBlock: AJUNOK_clean_linker_0, # of connection points: 2
#     Edge 48, Type (0, 0), BuildingBlock: AJUNOK_clean_linker_0, # of connection points: 2
#     Edge 49, Type (0, 0), BuildingBlock: AJUNOK_clean_linker_0, # of connection points: 2
#     Edge 50, Type (0, 0), BuildingBlock: AJUNOK_clean_linker_0, # of connection points: 2
#     Edge 51, Type (0, 0), BuildingBlock: AJUNOK_clean_linker_0, # of connection points: 2
#     Edge 52, Type (0, 0), BuildingBlock: AJUNOK_clean_linker_0, # of connection points: 2
#     Edge 53, Type (0, 0), BuildingBlock: AJUNOK_clean_linker_0, # of connection points: 2
#     Edge 54, Type (0, 0), BuildingBlock: AJUNOK_clean_linker_0, # of connection points: 2
#     Edge 55, Type (0, 0), BuildingBlock: AJUNOK_clean_linker_0, # of connection points: 2
#     Edge 56, Type (0, 0), BuildingBlock: AJUNOK_clean_linker_0, # of connection points: 2
#     Edge 57, Type (0, 0), BuildingBlock: AJUNOK_clean_linker_0, # of connection points: 2
#     Edge 58, Type (0, 0), BuildingBlock: AJUNOK_clean_linker_0, # of connection points: 2
#     Edge 59, Type (0, 0), BuildingBlock: AJUNOK_clean_linker_0, # of connection points: 2
#     Edge 60, Type (0, 0), BuildingBlock: AJUNOK_clean_linker_0, # of connection points: 2
#     Edge 61, Type (0, 0), BuildingBlock: AJUNOK_clean_linker_0, # of connection points: 2
#     Edge 62, Type (0, 0), BuildingBlock: AJUNOK_clean_linker_0, # of connection points: 2
#     Edge 63, Type (0, 0), BuildingBlock: AJUNOK_clean_linker_0, # of connection points: 2
#     Edge 64, Type (0, 0), BuildingBlock: AJUNOK_clean_linker_0, # of connection points: 2
#     Edge 65, Type (0, 0), BuildingBlock: AJUNOK_clean_linker_0, # of connection points: 2
#     Edge 66, Type (0, 0), BuildingBlock: AJUNOK_clean_linker_0, # of connection points: 2
#     Edge 67, Type (0, 0), BuildingBlock: AJUNOK_clean_linker_0, # of connection points: 2
#     Edge 68, Type (0, 0), BuildingBlock: AJUNOK_clean_linker_0, # of connection points: 2
#     Edge 69, Type (0, 0), BuildingBlock: AJUNOK_clean_linker_0, # of connection points: 2
#     Edge 70, Type (0, 0), BuildingBlock: AJUNOK_clean_linker_0, # of connection points: 2
#     Edge 71, Type (0, 0), BuildingBlock: AJUNOK_clean_linker_0, # of connection points: 2
# Relax obj value: 0.470
# Max RMSD: 0.265
# Mean RMSD: 0.265
data_MOF--net-unw--node1-MUDLON_clean_sbu_0--edge1-AJUNOK_clean_linker_0
_symmetry_space_group_name_H-M    P1
_symmetry_Int_Tables_number       1
_symmetry_cell_setting            triclinic
loop_
_symmetry_equiv_pos_as_xyz
'x, y, z'
_cell_length_a     36.234926
_cell_length_b     36.435058
_cell_length_c     36.440717
_cell_angle_alpha  89.729188
_cell_angle_beta   89.714146
_cell_angle_gamma 90.192932
loop_
_atom_site_label
_atom_site_type_symbol
_atom_site_fract_x
_atom_site_fract_y
_atom_site_fract_z
_atom_type_partial_charge
Mg0 Mg 0.12469 0.39534 0.25115 0.0
C1 C 0.13918 0.34943 0.31329 0.0
O2 O 0.11119 0.33369 0.29671 0.0
C3 C 0.17468 0.46191 0.24525 0.0
O4 O 0.18417 0.44962 0.27781 0.0
C5 C 0.05259 0.40298 0.28829 0.0
O6 O 0.07563 0.42185 0.30863 0.0
O7 O 0.06482 0.38923 0.25857 0.0
O8 O 0.14766 0.38201 0.30388 0.0
O9 O 0.15258 0.35142 0.22163 0.0
C10 C 0.18691 0.35204 0.22918 0.0
O11 O 0.19972 0.37963 0.24834 0.0
O12 O 0.14776 0.44656 0.22893 0.0
Mg13 Mg 0.6337 0.11078 0.29415 0.0
C14 C 0.65862 0.17028 0.24941 0.0
O15 O 0.6269 0.18003 0.26392 0.0
C16 C 0.68527 0.04562 0.30092 0.0
O17 O 0.69932 0.0635 0.27273 0.0
C18 C 0.56873 0.1162 0.24235 0.0
O19 O 0.59464 0.10462 0.21992 0.0
O20 O 0.57602 0.1185 0.27647 0.0
O21 O 0.66817 0.13677 0.25237 0.0
O22 O 0.64897 0.15213 0.33387 0.0
C23 C 0.68395 0.15344 0.33655 0.0
O24 O 0.70283 0.12467 0.32587 0.0
O25 O 0.655 0.05731 0.31444 0.0
Mg26 Mg 0.858 0.64426 0.30526 0.0
C27 C 0.85285 0.68094 0.37867 0.0
O28 O 0.8819 0.6633 0.39082 0.0
C29 C 0.82872 0.56679 0.29342 0.0
O30 O 0.79852 0.58296 0.30497 0.0
C31 C 0.93735 0.65964 0.32483 0.0
O32 O 0.93288 0.62684 0.33938 0.0
O33 O 0.91146 0.67273 0.30535 0.0
O34 O 0.83244 0.66517 0.35514 0.0
O35 O 0.82215 0.66308 0.26171 0.0
C36 C 0.78789 0.66561 0.26914 0.0
O37 O 0.77661 0.65963 0.30294 0.0
O38 O 0.85904 0.58475 0.29428 0.0
Mg39 Mg 0.39569 0.90747 0.24829 0.0
C40 C 0.38334 0.84082 0.21184 0.0
O41 O 0.40155 0.83479 0.24234 0.0
C42 C 0.35881 0.98454 0.25058 0.0
O43 O 0.33154 0.9678 0.23396 0.0
C44 C 0.46807 0.88884 0.21493 0.0
O45 O 0.44928 0.90402 0.18813 0.0
O46 O 0.45388 0.88918 0.24714 0.0
O47 O 0.37556 0.87397 0.20336 0.0
O48 O 0.35721 0.88637 0.29008 0.0
C49 C 0.32392 0.88576 0.27864 0.0
O50 O 0.3175 0.89613 0.24474 0.0
O51 O 0.3892 0.96743 0.25483 0.0
Mg52 Mg 0.1518 0.62979 0.77897 0.0
C53 C 0.15168 0.67439 0.709 0.0
O54 O 0.11598 0.66876 0.71082 0.0
C55 C 0.1943 0.55504 0.79147 0.0
O56 O 0.21409 0.56356 0.76234 0.0
C57 C 0.07297 0.62042 0.75763 0.0
O58 O 0.08889 0.5909 0.7444 0.0
O59 O 0.09216 0.64132 0.77804 0.0
O60 O 0.17305 0.65453 0.72836 0.0
O61 O 0.18574 0.6627 0.81518 0.0
C62 C 0.21972 0.6583 0.80697 0.0
O63 O 0.22803 0.63599 0.78003 0.0
O64 O 0.1664 0.57469 0.79969 0.0
Mg65 Mg 0.39667 0.11971 0.79054 0.0
C66 C 0.37942 0.158 0.86136 0.0
O67 O 0.41512 0.15771 0.86712 0.0
C68 C 0.37328 0.06002 0.73882 0.0
O69 O 0.38373 0.08579 0.71565 0.0
C70 C 0.45947 0.17234 0.80277 0.0
O71 O 0.43247 0.19444 0.79348 0.0
O72 O 0.45381 0.13776 0.80072 0.0
O73 O 0.36583 0.13519 0.83884 0.0
O74 O 0.36762 0.15392 0.75178 0.0
C75 C 0.33318 0.14671 0.75244 0.0
O76 O 0.32121 0.12104 0.77501 0.0
O77 O 0.38026 0.06441 0.77285 0.0
Mg78 Mg 0.89498 0.39525 0.74364 0.0
C79 C 0.88155 0.36069 0.66996 0.0
O80 O 0.91577 0.36986 0.66234 0.0
C81 C 0.86902 0.4753 0.75329 0.0
O82 O 0.84258 0.46549 0.73083 0.0
C83 C 0.97235 0.38609 0.71524 0.0
O84 O 0.96435 0.41934 0.70367 0.0
O85 O 0.94949 0.37002 0.73661 0.0
O86 O 0.86475 0.37722 0.69572 0.0
O87 O 0.86059 0.37101 0.7866 0.0
C88 C 0.82642 0.37818 0.78253 0.0
O89 O 0.81651 0.39756 0.75383 0.0
O90 O 0.89559 0.45323 0.75903 0.0
Mg91 Mg 0.64823 0.90508 0.73979 0.0
C92 C 0.68057 0.85288 0.78745 0.0
O93 O 0.65063 0.8376 0.7741 0.0
C94 C 0.69331 0.97334 0.72842 0.0
O95 O 0.71107 0.95731 0.7554 0.0
C96 C 0.59019 0.89414 0.79726 0.0
O97 O 0.61599 0.91107 0.81598 0.0
O98 O 0.59392 0.89161 0.76258 0.0
O99 O 0.6863 0.88675 0.78105 0.0
O100 O 0.66603 0.86403 0.701 0.0
C101 C 0.70064 0.86626 0.69539 0.0
O102 O 0.71754 0.89687 0.70421 0.0
O103 O 0.663 0.95923 0.71781 0.0
Mg104 Mg 0.29758 0.18301 0.37233 0.0
C105 C 0.36884 0.20915 0.32926 0.0
O106 O 0.40082 0.22621 0.32838 0.0
C107 C 0.28897 0.21266 0.44866 0.0
O108 O 0.30941 0.23818 0.4331 0.0
C109 C 0.33055 0.11338 0.34223 0.0
O110 O 0.35806 0.12644 0.36162 0.0
O111 O 0.29967 0.13008 0.34351 0.0
O112 O 0.34941 0.21092 0.35859 0.0
O113 O 0.25223 0.21804 0.35595 0.0
C114 C 0.25697 0.25259 0.35809 0.0
O115 O 0.28987 0.26525 0.36616 0.0
O116 O 0.28415 0.18261 0.4314 0.0
Mg117 Mg 0.83592 0.32871 0.36408 0.0
C118 C 0.81816 0.40619 0.33996 0.0
O119 O 0.80948 0.44092 0.34363 0.0
C120 C 0.80764 0.30676 0.43857 0.0
O121 O 0.78426 0.33298 0.43042 0.0
C122 C 0.91011 0.36058 0.35251 0.0
O123 O 0.89604 0.37923 0.37995 0.0
O124 O 0.89119 0.3341 0.33972 0.0
O125 O 0.81392 0.38426 0.36697 0.0
O126 O 0.79978 0.29063 0.33601 0.0
C127 C 0.76549 0.2912 0.34382 0.0
O128 O 0.7524 0.31923 0.3622 0.0
O129 O 0.83543 0.30191 0.41765 0.0
Mg130 Mg 0.79066 0.85243 0.39051 0.0
C131 C 0.87414 0.83889 0.38093 0.0
O132 O 0.90893 0.84883 0.37866 0.0
C133 C 0.77282 0.93224 0.37593 0.0
O134 O 0.8089 0.93239 0.37219 0.0
C135 C 0.81197 0.82093 0.46396 0.0
O136 O 0.83376 0.84972 0.46116 0.0
O137 O 0.78796 0.81586 0.43895 0.0
O138 O 0.8493 0.86351 0.38274 0.0
O139 O 0.77047 0.82837 0.33996 0.0
C140 C 0.77561 0.84963 0.31254 0.0
O141 O 0.79607 0.87906 0.31682 0.0
O142 O 0.75758 0.9036 0.38949 0.0
Mg143 Mg 0.13243 0.78678 0.37935 0.0
C144 C 0.1464 0.74051 0.31963 0.0
O145 O 0.12296 0.76603 0.30954 0.0
C146 C 0.172 0.78805 0.45511 0.0
O147 O 0.19002 0.75901 0.44362 0.0
C148 C 0.06582 0.74253 0.37593 0.0
O149 O 0.09064 0.72342 0.3939 0.0
O150 O 0.07371 0.77574 0.3677 0.0
O151 O 0.1571 0.73999 0.3529 0.0
O152 O 0.16549 0.82822 0.35031 0.0
C153 C 0.19937 0.82248 0.35801 0.0
O154 O 0.20725 0.79479 0.37965 0.0
O155 O 0.14502 0.80003 0.43635 0.0
Mg156 Mg 0.25472 0.87634 0.65277 0.0
C157 C 0.19344 0.81897 0.6548 0.0
O158 O 0.19691 0.82099 0.61906 0.0
C159 C 0.2647 0.94982 0.69325 0.0
O160 O 0.24489 0.93379 0.71899 0.0
C161 C 0.23392 0.87493 0.57463 0.0
O162 O 0.21465 0.9024 0.58783 0.0
O163 O 0.25818 0.8605 0.59525 0.0
O164 O 0.20848 0.84353 0.67464 0.0
O165 O 0.29787 0.85596 0.688 0.0
C166 C 0.28718 0.8553 0.72136 0.0
O167 O 0.2525 0.86242 0.72872 0.0
O168 O 0.26625 0.93509 0.66159 0.0
Mg169 Mg 0.16936 0.27957 0.64683 0.0
C170 C 0.17053 0.34265 0.70207 0.0
O171 O 0.13832 0.35082 0.68812 0.0
C172 C 0.1963 0.24565 0.577 0.0
O173 O 0.18145 0.21767 0.5946 0.0
C174 C 0.09254 0.30971 0.63974 0.0
O175 O 0.1098 0.32822 0.61375 0.0
O176 O 0.10951 0.28317 0.65486 0.0
O177 O 0.1911 0.3197 0.68551 0.0
O178 O 0.19518 0.23256 0.67193 0.0
C179 C 0.23007 0.23667 0.67038 0.0
O180 O 0.24338 0.26581 0.65345 0.0
O181 O 0.19287 0.27761 0.59091 0.0
Mg182 Mg 0.76466 0.17352 0.62772 0.0
C183 C 0.83713 0.21434 0.6242 0.0
O184 O 0.83529 0.20951 0.58863 0.0
C185 C 0.76819 0.09459 0.65284 0.0
O186 O 0.79903 0.1066 0.66738 0.0
C187 C 0.76943 0.19442 0.54737 0.0
O188 O 0.7871 0.163 0.54622 0.0
O189 O 0.75328 0.2033 0.57708 0.0
O190 O 0.81826 0.19348 0.64521 0.0
O191 O 0.73161 0.19333 0.67304 0.0
C192 C 0.74503 0.18565 0.70438 0.0
O193 O 0.77633 0.16774 0.70587 0.0
O194 O 0.75145 0.11517 0.63015 0.0
Mg195 Mg 0.86657 0.70247 0.66336 0.0
C196 C 0.84292 0.62984 0.69974 0.0
O197 O 0.83047 0.59597 0.70021 0.0
C198 C 0.83888 0.71878 0.58589 0.0
O199 O 0.81185 0.69768 0.5977 0.0
C200 C 0.9384 0.66859 0.68302 0.0
O201 O 0.92437 0.64592 0.65882 0.0
O202 O 0.92081 0.69801 0.68992 0.0
O203 O 0.84172 0.64827 0.66991 0.0
O204 O 0.83067 0.74333 0.68715 0.0
C205 C 0.79604 0.73907 0.68322 0.0
O206 O 0.78356 0.70788 0.67022 0.0
O207 O 0.86732 0.72263 0.60611 0.0
Mg208 Mg 0.3582 0.20197 0.16179 0.0
C209 C 0.33164 0.12995 0.1964 0.0
O210 O 0.31872 0.09628 0.19697 0.0
C211 C 0.34511 0.25987 0.10304 0.0
O212 O 0.35023 0.28068 0.13191 0.0
C213 C 0.43243 0.16817 0.17383 0.0
O214 O 0.4175 0.1465 0.14926 0.0
O215 O 0.41469 0.19679 0.18339 0.0
O216 O 0.33557 0.14663 0.16581 0.0
O217 O 0.32212 0.2369 0.1935 0.0
C218 C 0.28956 0.23951 0.18074 0.0
O219 O 0.28058 0.21926 0.15238 0.0
O220 O 0.35038 0.22533 0.10631 0.0
Mg221 Mg 0.41011 0.77256 0.89213 0.0
C222 C 0.3906 0.82256 0.83641 0.0
O223 O 0.41741 0.80211 0.82353 0.0
C224 C 0.37471 0.7667 0.96866 0.0
O225 O 0.356 0.79581 0.95847 0.0
C226 C 0.47903 0.81344 0.88173 0.0
O227 O 0.4601 0.83315 0.9053 0.0
O228 O 0.46693 0.78161 0.87366 0.0
O229 O 0.38267 0.82022 0.87042 0.0
O230 O 0.37524 0.73245 0.86431 0.0
C231 C 0.34159 0.73924 0.87234 0.0
O232 O 0.33477 0.76678 0.89428 0.0
O233 O 0.40191 0.75634 0.94912 0.0
Mg234 Mg 0.26424 0.36141 0.9026 0.0
C235 C 0.19319 0.36623 0.85842 0.0
O236 O 0.18905 0.39922 0.87196 0.0
C237 C 0.27064 0.318 0.9724 0.0
O238 O 0.25663 0.29384 0.94977 0.0
C239 C 0.25059 0.44291 0.89301 0.0
O240 O 0.23395 0.43714 0.92464 0.0
O241 O 0.27062 0.41728 0.88013 0.0
O242 O 0.21381 0.34354 0.87522 0.0
O243 O 0.30476 0.32224 0.88209 0.0
C244 C 0.29189 0.29065 0.87431 0.0
O245 O 0.25598 0.28606 0.87381 0.0
O246 O 0.27233 0.35149 0.96192 0.0
Mg247 Mg 0.65365 0.2714 0.90277 0.0
C248 C 0.67066 0.23728 0.83547 0.0
O249 O 0.64535 0.26229 0.82938 0.0
C250 C 0.67535 0.30618 0.97373 0.0
O251 O 0.66445 0.33435 0.95399 0.0
C252 C 0.5872 0.22673 0.88515 0.0
O253 O 0.61162 0.20224 0.89548 0.0
O254 O 0.59536 0.26065 0.88894 0.0
O255 O 0.68081 0.23143 0.86842 0.0
O256 O 0.68159 0.31737 0.87649 0.0
C257 C 0.71633 0.31385 0.8807 0.0
O258 O 0.72811 0.28778 0.90272 0.0
O259 O 0.67158 0.27408 0.9603 0.0
Mg260 Mg 0.81818 0.67871 0.86598 0.0
C261 C 0.89728 0.69189 0.83591 0.0
O262 O 0.93225 0.70083 0.83901 0.0
C263 C 0.79947 0.71274 0.93885 0.0
O264 O 0.82494 0.73523 0.92615 0.0
C265 C 0.84401 0.60336 0.84656 0.0
O266 O 0.86849 0.61355 0.87097 0.0
O267 O 0.81696 0.62464 0.84022 0.0
O268 O 0.87568 0.69678 0.86324 0.0
O269 O 0.7844 0.71691 0.83628 0.0
C270 C 0.79213 0.75095 0.83716 0.0
O271 O 0.82295 0.76174 0.8526 0.0
O272 O 0.79286 0.68344 0.92099 0.0
Mg273 Mg 0.658 0.76833 0.12705 0.0
C274 C 0.69739 0.82391 0.17638 0.0
O275 O 0.67099 0.84645 0.16652 0.0
C276 C 0.71416 0.76477 0.06542 0.0
O277 O 0.73324 0.78062 0.09152 0.0
C278 C 0.59653 0.8005 0.17197 0.0
O279 O 0.61661 0.78329 0.1965 0.0
O280 O 0.6064 0.79852 0.13829 0.0
O281 O 0.69972 0.79265 0.16142 0.0
O282 O 0.65845 0.71691 0.15638 0.0
C283 C 0.68685 0.69747 0.15028 0.0
O284 O 0.70288 0.70036 0.118 0.0
O285 O 0.6799 0.75855 0.07108 0.0
Mg286 Mg 0.26689 0.64993 0.13876 0.0
C287 C 0.30504 0.71571 0.15279 0.0
O288 O 0.27503 0.72278 0.13397 0.0
C289 C 0.26836 0.57457 0.17718 0.0
O290 O 0.29384 0.58974 0.19772 0.0
C291 C 0.30731 0.66356 0.0723 0.0
O292 O 0.32899 0.64388 0.09339 0.0
O293 O 0.27363 0.66689 0.0819 0.0
O294 O 0.31165 0.68238 0.16147 0.0
O295 O 0.22201 0.6727 0.17056 0.0
C296 C 0.22963 0.66961 0.20453 0.0
O297 O 0.26125 0.6548 0.21367 0.0
O298 O 0.25799 0.59132 0.14835 0.0
Mg299 Mg 0.79122 0.35797 0.17833 0.0
C300 C 0.87231 0.34854 0.20191 0.0
O301 O 0.90745 0.3414 0.19674 0.0
C302 C 0.76302 0.32841 0.10672 0.0
O303 O 0.77887 0.29946 0.12119 0.0
C304 C 0.81382 0.43473 0.20327 0.0
O305 O 0.83913 0.42878 0.17807 0.0
O306 O 0.78863 0.4106 0.20808 0.0
O307 O 0.84951 0.34243 0.17605 0.0
O308 O 0.75817 0.31573 0.20569 0.0
C309 C 0.76635 0.28176 0.20535 0.0
O310 O 0.7979 0.27154 0.19076 0.0
O311 O 0.76578 0.35896 0.12353 0.0
C312 C 0.25269 0.53017 0.22772 0.0
C313 C 0.24591 0.54337 0.19202 0.0
C314 C 0.22932 0.50431 0.24458 0.0
C315 C 0.19803 0.49024 0.22655 0.0
H316 H 0.27584 0.54048 0.24333 0.0
H317 H 0.23592 0.49543 0.27217 0.0
S318 S 0.16867 0.51417 0.13191 0.0
N319 N 0.20608 0.53919 0.13855 0.0
N320 N 0.16228 0.49058 0.17021 0.0
C321 C 0.19127 0.50253 0.1905 0.0
C322 C 0.21516 0.52896 0.17325 0.0
C323 C 0.52066 0.11509 0.19331 0.0
C324 C 0.53303 0.1293 0.22692 0.0
C325 C 0.48853 0.12822 0.17646 0.0
C326 C 0.46752 0.15676 0.19199 0.0
H327 H 0.5359 0.0934 0.17984 0.0
H328 H 0.48023 0.11585 0.15081 0.0
S329 S 0.48882 0.20475 0.2791 0.0
N330 N 0.52204 0.17407 0.27498 0.0
N331 N 0.46218 0.19947 0.24284 0.0
C332 C 0.47983 0.17168 0.22541 0.0
C333 C 0.51233 0.15774 0.243 0.0
C334 C 0.84811 0.49086 0.22441 0.0
C335 C 0.81707 0.46755 0.22761 0.0
C336 C 0.85258 0.52172 0.247 0.0
C337 C 0.82591 0.53113 0.27349 0.0
H338 H 0.86937 0.48533 0.20421 0.0
H339 H 0.87665 0.53896 0.24277 0.0
S340 S 0.74019 0.47859 0.29436 0.0
N341 N 0.7599 0.45541 0.26079 0.0
N342 N 0.76781 0.51372 0.30255 0.0
C343 C 0.79501 0.50776 0.27748 0.0
C344 C 0.79069 0.47601 0.25476 0.0
C345 C 0.54535 0.84522 0.15851 0.0
C346 C 0.56423 0.82315 0.18396 0.0
C347 C 0.51519 0.86696 0.16917 0.0
C348 C 0.50226 0.86769 0.20581 0.0
H349 H 0.55386 0.84577 0.12998 0.0
H350 H 0.50162 0.88304 0.14816 0.0
S351 S 0.54208 0.81522 0.28357 0.0
N352 N 0.56784 0.80377 0.24796 0.0
N353 N 0.51123 0.8444 0.26768 0.0
C354 C 0.52108 0.84605 0.23169 0.0
C355 C 0.55192 0.82388 0.22086 0.0
C356 C 0.25015 0.4756 0.83167 0.0
C357 C 0.23792 0.47346 0.86844 0.0
C358 C 0.23555 0.50153 0.80694 0.0
C359 C 0.20774 0.5263 0.81765 0.0
H360 H 0.27086 0.45673 0.82162 0.0
H361 H 0.24609 0.50197 0.77908 0.0
S362 S 0.16675 0.53323 0.91108 0.0
N363 N 0.19683 0.49951 0.91445 0.0
N364 N 0.16927 0.54754 0.86812 0.0
C365 C 0.19542 0.52465 0.85439 0.0
C366 C 0.21056 0.49855 0.87967 0.0
C367 C 0.54798 0.17637 0.85896 0.0
C368 C 0.55367 0.21424 0.86481 0.0
C369 C 0.51824 0.16323 0.83815 0.0
C370 C 0.49258 0.18729 0.82215 0.0
H371 H 0.56681 0.15639 0.87041 0.0
H372 H 0.51521 0.13384 0.83499 0.0
S373 S 0.49477 0.28919 0.82867 0.0
N374 N 0.53096 0.27573 0.85248 0.0
N375 N 0.4751 0.25128 0.81351 0.0
C376 C 0.49791 0.22533 0.82765 0.0
C377 C 0.52831 0.23871 0.84892 0.0
C378 C 0.82821 0.56306 0.79293 0.0
C379 C 0.85052 0.57016 0.82364 0.0
C380 C 0.83505 0.53303 0.76984 0.0
C381 C 0.86461 0.50883 0.77627 0.0
H382 H 0.80537 0.581 0.7864 0.0
H383 H 0.81674 0.52869 0.74685 0.0
S384 S 0.9318 0.51545 0.85272 0.0
N385 N 0.90367 0.55036 0.85912 0.0
N386 N 0.91674 0.49449 0.81564 0.0
C387 C 0.88738 0.51582 0.80671 0.0
C388 C 0.88023 0.54621 0.83041 0.0
C389 C 0.55191 0.88332 0.85356 0.0
C390 C 0.56094 0.8734 0.81736 0.0
C391 C 0.52631 0.86301 0.87439 0.0
C392 C 0.50908 0.83146 0.86022 0.0
H393 H 0.56457 0.90718 0.86595 0.0
H394 H 0.51984 0.87233 0.90186 0.0
S395 S 0.52403 0.79281 0.76724 0.0
N396 N 0.5511 0.82934 0.76837 0.0
N397 N 0.50338 0.7909 0.8077 0.0
C398 C 0.51831 0.82076 0.82424 0.0
C399 C 0.54402 0.84184 0.80276 0.0
C400 C 0.22102 0.20302 0.52871 0.0
C401 C 0.21967 0.23862 0.54381 0.0
C402 C 0.24398 0.19466 0.49868 0.0
C403 C 0.26695 0.22142 0.48239 0.0
H404 H 0.20411 0.18118 0.54013 0.0
H405 H 0.24347 0.16696 0.48803 0.0
S406 S 0.27423 0.31901 0.51149 0.0
N407 N 0.24366 0.30088 0.54005 0.0
N408 N 0.28682 0.28541 0.48397 0.0
C409 C 0.26606 0.25717 0.49735 0.0
C410 C 0.24245 0.26571 0.52783 0.0
C411 C 0.80448 0.21691 0.49214 0.0
C412 C 0.77669 0.22282 0.51864 0.0
C413 C 0.81503 0.24451 0.46721 0.0
C414 C 0.79805 0.2792 0.46739 0.0
H415 H 0.81884 0.19092 0.49096 0.0
H416 H 0.83639 0.23832 0.4473 0.0
S417 S 0.7234 0.30887 0.53078 0.0
N418 N 0.73216 0.26619 0.54325 0.0
N419 N 0.75177 0.31788 0.49629 0.0
C420 C 0.76998 0.28546 0.4935 0.0
C421 C 0.75935 0.25737 0.51906 0.0
C422 C 0.8472 0.79949 0.51929 0.0
C423 C 0.81832 0.79362 0.4941 0.0
C424 C 0.85459 0.77451 0.5478 0.0
C425 C 0.83331 0.74248 0.55273 0.0
H426 H 0.86435 0.82382 0.51722 0.0
H427 H 0.8766 0.78099 0.56673 0.0
S428 S 0.75613 0.71244 0.49297 0.0
N429 N 0.76959 0.75198 0.47498 0.0
N430 N 0.78314 0.70527 0.52864 0.0
C431 C 0.80488 0.73571 0.52725 0.0
C432 C 0.79748 0.76114 0.49801 0.0
C433 C 0.21693 0.79759 0.50663 0.0
C434 C 0.1872 0.81067 0.48557 0.0
C435 C 0.23308 0.81914 0.53415 0.0
C436 C 0.22028 0.8548 0.5418 0.0
H437 H 0.2278 0.77033 0.50201 0.0
H438 H 0.25519 0.80728 0.55015 0.0
S439 S 0.14494 0.90327 0.4928 0.0
N440 N 0.14682 0.86257 0.47325 0.0
N441 N 0.17727 0.90293 0.52451 0.0
C442 C 0.19125 0.86862 0.52025 0.0
C443 C 0.17465 0.84662 0.4924 0.0
C444 C 0.74701 1.01552 0.71799 0.0
C445 C 0.71123 1.00422 0.70802 0.0
C446 C 0.7656 0.04354 0.69895 0.0
C447 C 0.74932 0.06184 0.66906 0.0
H448 H 0.76102 1.00267 0.74085 0.0
H449 H 0.7928 0.05135 0.7084 0.0
S450 S 0.65648 0.04208 0.6308 0.0
N451 N 0.66052 1.01297 0.66539 0.0
N452 N 0.69536 0.06582 0.62968 0.0
C453 C 0.71374 0.05046 0.65827 0.0
C454 C 0.69475 0.02173 0.67773 0.0
C455 C 0.99008 0.62466 0.69419 0.0
C456 C 0.97243 0.65777 0.70338 0.0
C457 C 0.0214 0.61243 0.71293 0.0
C458 C 0.03708 0.6328 0.74171 0.0
H459 H 0.97966 0.60771 0.67218 0.0
H460 H 0.03378 0.58694 0.70408 0.0
S461 S 1.00088 0.72084 0.7779 0.0
N462 N 0.97227 0.71024 0.7444 0.0
N463 N 0.03169 0.68756 0.77929 0.0
C464 C 1.01949 0.66579 0.75171 0.0
C465 C 0.98719 0.67821 0.73263 0.0
C466 C 0.32509 1.01184 0.75215 0.0
C467 C 0.34721 0.03078 0.72642 0.0
C468 C 0.29778 0.98684 0.74101 0.0
C469 C 0.29142 0.97933 0.7036 0.0
H470 H 0.32839 1.01675 0.78124 0.0
H471 H 0.28189 0.9729 0.76215 0.0
S472 S 0.34199 0.02134 0.62502 0.0
N473 N 0.3609 0.04012 0.66156 0.0
N474 N 0.30988 0.99307 0.64078 0.0
C475 C 0.31342 0.99799 0.67754 0.0
C476 C 0.34117 0.02363 0.68888 0.0
C477 C 0.04745 0.36122 0.64645 0.0
C478 C 0.05959 0.32637 0.65799 0.0
C479 C 1.02001 0.38031 0.66565 0.0
C480 C 1.00292 0.3654 0.69718 0.0
H481 H 0.0598 0.37451 0.62273 0.0
H482 H 1.01203 0.40704 0.65532 0.0
S483 S 0.0234 0.27444 0.73857 0.0
N484 N 0.05164 0.27731 0.70296 0.0
N485 N 0.99959 0.31301 0.73868 0.0
C486 C 1.01415 0.33024 0.70876 0.0
C487 C 0.04247 0.31079 0.68928 0.0
C488 C 0.71382 0.96887 0.36781 0.0
C489 C 0.75044 0.96122 0.35713 0.0
C490 C 0.69266 0.99578 0.34943 0.0
C491 C 0.70697 1.0156 0.31911 0.0
H492 H 0.70155 0.95429 0.39081 0.0
H493 H 0.66493 1.00113 0.35919 0.0
S494 S 0.80045 1.00363 0.2782 0.0
N495 N 0.79931 0.97457 0.31301 0.0
N496 N 0.75986 0.02394 0.27839 0.0
C497 C 0.74324 1.00733 0.30763 0.0
C498 C 0.76484 0.98054 0.32663 0.0
C499 C 1.00074 0.6646 0.35088 0.0
C500 C 0.97015 0.68214 0.33511 0.0
C501 C 0.03098 0.68459 0.36392 0.0
C502 C 0.03231 0.72323 0.36191 0.0
H503 H 1.00135 0.63498 0.3535 0.0
H504 H 0.05365 0.66927 0.37564 0.0
S505 S 0.95881 0.78289 0.32394 0.0
N506 N 0.94264 0.7408 0.31872 0.0
N507 N 0.99984 0.77843 0.34302 0.0
C508 C 1.00202 0.74133 0.34596 0.0
C509 C 0.97094 0.72081 0.33263 0.0
C510 C 0.37896 0.03393 0.29427 0.0
C511 C 0.35194 0.01973 0.27054 0.0
C512 C 0.37167 0.06407 0.31704 0.0
C513 C 0.33701 0.08157 0.31726 0.0
H514 H 0.40581 0.0211 0.29609 0.0
H515 H 0.39347 0.07339 0.335 0.0
S516 S 0.25757 0.05756 0.25796 0.0
N517 N 0.28956 0.02729 0.24707 0.0
N518 N 0.27612 0.08391 0.28968 0.0
C519 C 0.31012 0.0686 0.29272 0.0
C520 C 0.31752 0.0378 0.26946 0.0
C521 C 0.99459 0.36422 0.28901 0.0
C522 C 1.0149 0.39423 0.30263 0.0
C523 C 0.96082 0.35339 0.30517 0.0
C524 C 0.94597 0.37216 0.33559 0.0
H525 H 1.00526 0.34835 0.26628 0.0
H526 H 0.9464 0.32998 0.29385 0.0
S527 S 0.98664 0.45486 0.37942 0.0
N528 N 1.01624 0.44409 0.34672 0.0
N529 N 0.95348 0.42386 0.37706 0.0
C530 C 0.96555 0.40292 0.34867 0.0
C531 C 0.99974 0.41392 0.33221 0.0
C532 C 0.78998 0.75254 0.99391 0.0
C533 C 0.77706 0.72389 0.9715 0.0
C534 C 0.76909 0.76574 0.02352 0.0
C535 C 0.73395 0.75133 0.03203 0.0
H536 H 0.81667 0.76503 0.98864 0.0
H537 H 0.78073 0.78761 0.03988 0.0
S538 S 0.68691 0.67608 0.98201 0.0
N539 N 0.72652 0.68144 0.95996 0.0
N540 N 0.68711 0.70646 1.01551 0.0
C541 C 0.72043 0.72276 1.0098 0.0
C542 C 0.74201 0.70896 0.97971 0.0
C543 C 0.30529 0.71987 0.03235 0.0
C544 C 0.32407 0.68822 0.04414 0.0
C545 C 0.32238 0.74577 1.00914 0.0
C546 C 0.35892 0.74105 0.99657 0.0
H547 H 0.27738 0.72514 0.04165 0.0
H548 H 0.30649 0.76941 1.00057 0.0
S549 S 0.42015 0.66265 0.01925 0.0
N550 N 0.38125 0.65348 0.04121 0.0
N551 N 0.41331 0.70207 0.99792 0.0
C552 C 0.37799 0.70948 1.00817 0.0
C553 C 0.36059 0.68311 0.03177 0.0
C554 C 0.29376 0.26654 1.01211 0.0
C555 C 0.2892 0.30465 1.00655 0.0
C556 C 0.31275 0.25248 0.04258 0.0
C557 C 0.32794 0.27577 0.06925 0.0
H558 H 0.28283 0.24709 0.99254 0.0
H559 H 0.31496 0.22297 0.04546 0.0
S560 S 0.32431 0.37782 0.0678 0.0
N561 N 0.30206 0.36549 0.03038 0.0
N562 N 0.3374 0.33927 0.08777 0.0
C563 C 0.32375 0.31401 0.06406 0.0
C564 C 0.30452 0.32836 0.03279 0.0
C565 C 0.73664 0.28904 0.05681 0.0
C566 C 0.74034 0.32405 0.07286 0.0
C567 C 0.7149 0.28335 0.02553 0.0
C568 C 0.69585 0.3124 1.00866 0.0
H569 H 0.75072 0.26557 0.06844 0.0
H570 H 0.71355 0.25595 1.01419 0.0
S571 S 0.69512 0.40937 0.04025 0.0
N572 N 0.72219 0.38814 0.06975 0.0
N573 N 0.68144 0.37763 1.0111 0.0
C574 C 0.69891 0.34755 0.02463 0.0
C575 C 0.72108 0.35333 0.05658 0.0
C576 C 0.16298 0.28751 0.32982 0.0
C577 C 0.16705 0.32593 0.33133 0.0
C578 C 0.19194 0.2641 0.3392 0.0
C579 C 0.22611 0.27808 0.35081 0.0
H580 H 0.13781 0.27522 0.31961 0.0
H581 H 0.18773 0.23481 0.33628 0.0
S582 S 0.24937 0.37647 0.36455 0.0
N583 N 0.20676 0.37684 0.34877 0.0
N584 N 0.26113 0.33281 0.36704 0.0
C585 C 0.22984 0.31637 0.35477 0.0
C586 C 0.20032 0.34028 0.34497 0.0
C587 C 0.76038 0.22441 0.33003 0.0
C588 C 0.74293 0.2574 0.33965 0.0
C589 C 0.74121 0.19107 0.33041 0.0
C590 C 0.70352 0.18913 0.33995 0.0
H591 H 0.78943 0.224 0.32291 0.0
H592 H 0.75626 0.16664 0.3227 0.0
S593 S 0.64418 0.2679 0.3654 0.0
N594 N 0.68524 0.28633 0.35793 0.0
N595 N 0.64901 0.22351 0.35796 0.0
C596 C 0.68538 0.222 0.34883 0.0
C597 C 0.70508 0.25611 0.34876 0.0
C598 C 0.867 0.73948 0.41158 0.0
C599 C 0.85377 0.7217 0.38002 0.0
C600 C 0.87261 0.77767 0.41205 0.0
C601 C 0.86472 0.79947 0.38117 0.0
H602 H 0.87387 0.72365 0.43583 0.0
H603 H 0.88381 0.79016 0.43652 0.0
S604 S 0.835 0.76622 0.29016 0.0
N605 N 0.83604 0.72894 0.31605 0.0
N606 N 0.84688 0.80044 0.31724 0.0
C607 C 0.85208 0.78216 0.34936 0.0
C608 C 0.84634 0.74336 0.34876 0.0
C609 C 0.2562 0.87456 0.28721 0.0
C610 C 0.29235 0.87275 0.30152 0.0
C611 C 0.22578 0.86009 0.30641 0.0
C612 C 0.23028 0.84307 0.34067 0.0
H613 H 0.25127 0.88649 0.26041 0.0
H614 H 0.19888 0.86088 0.2936 0.0
S615 S 0.3181 0.83494 0.39247 0.0
N616 N 0.33013 0.85527 0.35362 0.0
N617 N 0.27312 0.8282 0.38986 0.0
C618 C 0.26592 0.84271 0.35621 0.0
C619 C 0.29689 0.8575 0.33664 0.0
C620 C 0.14646 0.72626 0.66434 0.0
C621 C 0.16469 0.71016 0.69432 0.0
C622 C 0.15508 0.762 0.65251 0.0
C623 C 0.18141 0.78348 0.67095 0.0
H624 H 0.12533 0.71108 0.64986 0.0
H625 H 0.14105 0.7729 0.62866 0.0
S626 S 0.23629 0.75458 0.75187 0.0
N627 N 0.2101 0.71868 0.74255 0.0
N628 N 0.22568 0.78594 0.72086 0.0
C629 C 0.19947 0.76791 0.70135 0.0
C630 C 0.19134 0.73122 0.71284 0.0
C631 C 0.31853 0.19886 0.71035 0.0
C632 C 0.30669 0.16751 0.72968 0.0
C633 C 0.29358 0.22037 0.69062 0.0
C634 C 0.25572 0.21148 0.68939 0.0
H635 H 0.34719 0.20738 0.71105 0.0
H636 H 0.30415 0.24465 0.67683 0.0
S637 S 0.21101 0.1303 0.73266 0.0
N638 N 0.25482 0.12715 0.7444 0.0
N639 N 0.20796 0.16787 0.7074 0.0
C640 C 0.24363 0.17954 0.70757 0.0
C641 C 0.26909 0.15751 0.72768 0.0
C642 C 0.87346 0.27229 0.61593 0.0
C643 C 0.85002 0.25044 0.63795 0.0
C644 C 0.88263 0.30829 0.62595 0.0
C645 C 0.86813 0.32419 0.65801 0.0
H646 H 0.88471 0.26157 0.59057 0.0
H647 H 0.90126 0.3238 0.60841 0.0
S648 S 0.80558 0.27865 0.72559 0.0
N649 N 0.81284 0.24736 0.69382 0.0
N650 N 0.82945 0.31499 0.7122 0.0
C651 C 0.84454 0.30269 0.68032 0.0
C652 C 0.83576 0.26582 0.67047 0.0
C653 C 0.78493 0.80647 0.68347 0.0
C654 C 0.77089 0.77066 0.68727 0.0
C655 C 0.76159 0.83692 0.68434 0.0
C656 C 0.72322 0.83295 0.68938 0.0
H657 H 0.81419 0.8111 0.67922 0.0
H658 H 0.77396 0.86391 0.68156 0.0
S659 S 0.67282 0.7449 0.70243 0.0
N660 N 0.71636 0.73274 0.69703 0.0
N661 N 0.67236 0.7901 0.69918 0.0
C662 C 0.70876 0.79722 0.69331 0.0
C663 C 0.73262 0.76609 0.69221 0.0
C664 C 0.38397 0.16494 0.2791 0.0
C665 C 0.35769 0.18714 0.29689 0.0
C666 C 0.37524 0.14576 0.24689 0.0
C667 C 0.34007 0.14853 0.23119 0.0
H668 H 0.41148 0.16229 0.29025 0.0
H669 H 0.39618 0.12894 0.23406 0.0
S670 S 0.26094 0.20109 0.26748 0.0
N671 N 0.29505 0.21026 0.29594 0.0
N672 N 0.2781 0.17259 0.23679 0.0
C673 C 0.31325 0.16941 0.2492 0.0
C674 C 0.32224 0.18927 0.28165 0.0
C675 C 0.81517 0.36297 0.28775 0.0
C676 C 0.83272 0.39263 0.30478 0.0
C677 C 0.82869 0.34855 0.25483 0.0
C678 C 0.85973 0.36375 0.23731 0.0
H679 H 0.79047 0.35117 0.29972 0.0
H680 H 0.81513 0.32497 0.24331 0.0
S681 S 0.91599 0.44172 0.271 0.0
N682 N 0.88294 0.43689 0.30211 0.0
N683 N 0.90846 0.4097 0.23991 0.0
C684 C 0.87789 0.39328 0.25426 0.0
C685 C 0.86401 0.40811 0.28782 0.0
C686 C 0.72972 0.80173 0.23252 0.0
C687 C 0.71934 0.83122 0.20963 0.0
C688 C 0.74756 0.80778 0.26599 0.0
C689 C 0.75682 0.84345 0.27718 0.0
H690 H 0.72298 0.77375 0.22511 0.0
H691 H 0.75413 0.78437 0.28314 0.0
S692 S 0.73542 0.93002 0.22742 0.0
N693 N 0.71891 0.89731 0.20086 0.0
N694 N 0.7537 0.90879 0.26305 0.0
C695 C 0.74698 0.87315 0.25434 0.0
C696 C 0.72795 0.86701 0.22074 0.0
C697 C 0.21841 0.68453 0.27024 0.0
C698 C 0.20551 0.68426 0.23379 0.0
C699 C 0.19812 0.70094 0.29841 0.0
C700 C 0.16412 0.7177 0.29124 0.0
H701 H 0.24505 0.67305 0.27708 0.0
H702 H 0.21002 0.70188 0.32561 0.0
S703 S 0.1154 0.71967 0.20172 0.0
N704 N 0.1548 0.69881 0.19286 0.0
N705 N 0.11632 0.72946 0.24589 0.0
C706 C 0.14975 0.71563 0.2554 0.0
C707 C 0.17054 0.699 0.22664 0.0
C708 C 0.37653 0.8438 0.77337 0.0
C709 C 0.36446 0.83805 0.80973 0.0
C710 C 0.35142 0.84957 0.74495 0.0
C711 C 0.31328 0.84979 0.75186 0.0
H712 H 0.40562 0.84234 0.76651 0.0
H713 H 0.36203 0.85323 0.71733 0.0
S714 S 0.26752 0.83846 0.84284 0.0
N715 N 0.31201 0.83509 0.85153 0.0
N716 N 0.2646 0.84564 0.79822 0.0
C717 C 0.30087 0.84572 0.78842 0.0
C718 C 0.32653 0.84008 0.81739 0.0
C719 C 0.20328 0.3315 0.80008 0.0
C720 C 0.18516 0.35997 0.81893 0.0
C721 C 0.19982 0.32732 0.76208 0.0
C722 C 0.17764 0.35109 0.7412 0.0
H723 H 0.22091 0.31248 0.81456 0.0
H724 H 0.214 0.30459 0.7492 0.0
S725 S 0.12437 0.43027 0.7768 0.0
N726 N 0.14444 0.41271 0.81345 0.0
N727 N 0.13738 0.40433 0.74205 0.0
C728 C 0.15925 0.37965 0.75955 0.0
C729 C 0.16309 0.38418 0.79832 0.0
C730 C 0.68985 0.20994 0.73739 0.0
C731 C 0.72615 0.19666 0.73869 0.0
C732 C 0.67171 0.22146 0.76924 0.0
C733 C 0.68912 0.22021 0.80368 0.0
H734 H 0.67533 0.21178 0.71154 0.0
H735 H 0.64394 0.23207 0.76667 0.0
S736 S 0.78407 0.18772 0.82221 0.0
N737 N 0.7789 0.18257 0.77755 0.0
N738 N 0.74459 0.20443 0.83736 0.0
C739 C 0.72511 0.20628 0.80562 0.0
C740 C 0.7437 0.19453 0.77313 0.0
C741 C 0.84145 0.67674 0.74939 0.0
C742 C 0.85812 0.64581 0.73369 0.0
C743 C 0.85429 0.69146 0.78249 0.0
C744 C 0.88402 0.67559 0.80125 0.0
H745 H 0.81777 0.68914 0.73648 0.0
H746 H 0.8414 0.71589 0.79303 0.0
S747 S 0.93768 0.59454 0.77132 0.0
N748 N 0.90594 0.59961 0.7393 0.0
N749 N 0.9307 0.6279 0.80111 0.0
C750 C 0.90139 0.64499 0.78552 0.0
C751 C 0.888 0.62968 0.75206 0.0
C752 C 0.2036 0.29853 0.18942 0.0
C753 C 0.21227 0.32205 0.21855 0.0
C754 C 0.2285 0.27146 0.17792 0.0
C755 C 0.26292 0.26675 0.19523 0.0
H756 H 0.17782 0.30159 0.17483 0.0
H757 H 0.22085 0.25455 0.15479 0.0
S758 S 0.29701 0.3187 0.27566 0.0
N759 N 0.25646 0.33695 0.26649 0.0
N760 N 0.3031 0.28636 0.24472 0.0
C761 C 0.27131 0.28926 0.22527 0.0
C762 C 0.24602 0.3168 0.23697 0.0
C763 C 0.31642 0.69012 0.83146 0.0
C764 C 0.31018 0.71809 0.85705 0.0
C765 C 0.28693 0.67078 0.81595 0.0
C766 C 0.24994 0.67855 0.82537 0.0
H767 H 0.34425 0.68328 0.82302 0.0
H768 H 0.29336 0.64965 0.79613 0.0
S769 S 0.21847 0.74884 0.89163 0.0
N770 N 0.26388 0.7522 0.89176 0.0
N771 N 0.20878 0.71592 0.86225 0.0
C772 C 0.24326 0.70616 0.85121 0.0
C773 C 0.27327 0.72589 0.8671 0.0
C774 C 0.29945 0.22412 0.86177 0.0
C775 C 0.31572 0.25781 0.87149 0.0
C776 C 0.31991 0.19178 0.86073 0.0
C777 C 0.35772 0.19154 0.86915 0.0
H778 H 0.27049 0.22253 0.85467 0.0
H779 H 0.30598 0.16685 0.85232 0.0
S780 S 0.41355 0.27223 0.89764 0.0
N781 N 0.37179 0.28888 0.89097 0.0
N782 N 0.41064 0.22796 0.88859 0.0
C783 C 0.37438 0.2249 0.87968 0.0
C784 C 0.35336 0.25806 0.88076 0.0
C785 C 0.78155 0.327 0.86219 0.0
C786 C 0.74358 0.33396 0.85753 0.0
C787 C 0.80812 0.34184 0.83829 0.0
C788 C 0.79792 0.36437 0.80868 0.0
H789 H 0.79098 0.30914 0.88403 0.0
H790 H 0.83682 0.33499 0.84274 0.0
S791 S 0.70231 0.39324 0.78571 0.0
N792 N 0.69731 0.36643 0.82202 0.0
N793 N 0.74706 0.3946 0.77715 0.0
C794 C 0.76011 0.37263 0.80438 0.0
C795 C 0.73302 0.35743 0.82879 0.0
C796 C 0.72755 0.76737 0.82193 0.0
C797 C 0.76473 0.778 0.82457 0.0
C798 C 0.70049 0.79238 0.81143 0.0
C799 C 0.70948 0.82901 0.80286 0.0
H800 H 0.71907 0.73951 0.82832 0.0
H801 H 0.67228 0.78263 0.80955 0.0
S802 S 0.8032 0.87039 0.80409 0.0
N803 N 0.80949 0.82744 0.81726 0.0
N804 N 0.75846 0.8746 0.79696 0.0
C805 C 0.74659 0.84015 0.80543 0.0
C806 C 0.77426 0.81459 0.81636 0.0
C807 C 0.74437 0.66925 0.17487 0.0
C808 C 0.70932 0.68447 0.18171 0.0
C809 C 0.7696 0.66342 0.20325 0.0
C810 C 0.76069 0.67214 0.23974 0.0
H811 H 0.75305 0.66292 0.14713 0.0
H812 H 0.79638 0.6521 0.19646 0.0
S813 S 0.67215 0.71095 0.27306 0.0
N814 N 0.66657 0.70675 0.22835 0.0
N815 N 0.71404 0.69559 0.28161 0.0
C816 C 0.72532 0.68605 0.24733 0.0
C817 C 0.69959 0.69214 0.21839 0.0
C818 C 0.33631 0.81353 0.1701 0.0
C819 C 0.36758 0.80904 0.19215 0.0
C820 C 0.31715 0.78305 0.15664 0.0
C821 C 0.32845 0.74685 0.16471 0.0
H822 H 0.32549 0.84067 0.16458 0.0
H823 H 0.2925 0.78812 0.14074 0.0
S824 S 0.41195 0.72046 0.21679 0.0
N825 N 0.41159 0.76574 0.21807 0.0
N826 N 0.3752 0.70852 0.19299 0.0
C827 C 0.36096 0.74203 0.18487 0.0
C828 C 0.3806 0.7731 0.19851 0.0
C829 C 0.74554 0.21617 0.21161 0.0
C830 C 0.73918 0.25375 0.21809 0.0
C831 C 0.71922 0.18936 0.22121 0.0
C832 C 0.68537 0.19905 0.23747 0.0
H833 H 0.77091 0.20729 0.19863 0.0
H834 H 0.72548 0.16084 0.21579 0.0
S835 S 0.65608 0.29355 0.26247 0.0
N836 N 0.69717 0.299 0.24356 0.0
N837 N 0.64766 0.24908 0.26107 0.0
C838 C 0.6789 0.23655 0.2446 0.0
C839 C 0.7058 0.26373 0.23511 0.0
loop_
_geom_bond_atom_site_label_1
_geom_bond_atom_site_label_2
_geom_bond_distance
_geom_bond_site_symmetry_2
_ccdc_geom_bond_type
Mg0 O7 2.141 . S
Mg0 O8 2.048 . S
Mg0 O9 2.048 . S
Mg0 O12 2.141 . S
C1 O2 1.313 . S
C1 O8 1.195 . S
O2 C1 1.313 . S
C3 O4 1.245 . S
C3 O12 1.289 . S
O4 C3 1.245 . S
C5 O6 1.245 . S
C5 O7 1.289 . S
O6 C5 1.245 . S
O7 Mg0 2.141 . S
O7 C5 1.289 . S
O8 Mg0 2.048 . S
O8 C1 1.195 . S
O9 Mg0 2.048 . S
O9 C10 1.195 . S
C10 O9 1.195 . S
C10 O11 1.313 . S
O11 C10 1.313 . S
O12 Mg0 2.141 . S
O12 C3 1.289 . S
Mg13 O20 2.141 . S
Mg13 O21 2.048 . S
Mg13 O22 2.048 . S
Mg13 O25 2.141 . S
C14 O15 1.313 . S
C14 O21 1.195 . S
O15 C14 1.313 . S
C16 O17 1.245 . S
C16 O25 1.289 . S
O17 C16 1.245 . S
C18 O19 1.245 . S
C18 O20 1.289 . S
O19 C18 1.245 . S
O20 Mg13 2.141 . S
O20 C18 1.289 . S
O21 Mg13 2.048 . S
O21 C14 1.195 . S
O22 Mg13 2.048 . S
O22 C23 1.195 . S
C23 O22 1.195 . S
C23 O24 1.313 . S
O24 C23 1.313 . S
O25 Mg13 2.141 . S
O25 C16 1.289 . S
Mg26 O33 2.141 . S
Mg26 O34 2.048 . S
Mg26 O35 2.048 . S
Mg26 O38 2.141 . S
C27 O28 1.313 . S
C27 O34 1.195 . S
O28 C27 1.313 . S
C29 O30 1.245 . S
C29 O38 1.289 . S
O30 C29 1.245 . S
C31 O32 1.245 . S
C31 O33 1.289 . S
O32 C31 1.245 . S
O33 Mg26 2.141 . S
O33 C31 1.289 . S
O34 Mg26 2.048 . S
O34 C27 1.195 . S
O35 Mg26 2.048 . S
O35 C36 1.195 . S
C36 O35 1.195 . S
C36 O37 1.313 . S
O37 C36 1.313 . S
O38 Mg26 2.141 . S
O38 C29 1.289 . S
Mg39 O46 2.141 . S
Mg39 O47 2.048 . S
Mg39 O48 2.048 . S
Mg39 O51 2.141 . S
C40 O41 1.313 . S
C40 O47 1.195 . S
O41 C40 1.313 . S
C42 O43 1.245 . S
C42 O51 1.289 . S
O43 C42 1.245 . S
C44 O45 1.245 . S
C44 O46 1.289 . S
O45 C44 1.245 . S
O46 Mg39 2.141 . S
O46 C44 1.289 . S
O47 Mg39 2.048 . S
O47 C40 1.195 . S
O48 Mg39 2.048 . S
O48 C49 1.195 . S
C49 O48 1.195 . S
C49 O50 1.313 . S
O50 C49 1.313 . S
O51 Mg39 2.141 . S
O51 C42 1.289 . S
Mg52 O59 2.141 . S
Mg52 O60 2.048 . S
Mg52 O61 2.048 . S
Mg52 O64 2.141 . S
C53 O54 1.313 . S
C53 O60 1.195 . S
O54 C53 1.313 . S
C55 O56 1.245 . S
C55 O64 1.289 . S
O56 C55 1.245 . S
C57 O58 1.245 . S
C57 O59 1.289 . S
O58 C57 1.245 . S
O59 Mg52 2.141 . S
O59 C57 1.289 . S
O60 Mg52 2.048 . S
O60 C53 1.195 . S
O61 Mg52 2.048 . S
O61 C62 1.195 . S
C62 O61 1.195 . S
C62 O63 1.313 . S
O63 C62 1.313 . S
O64 Mg52 2.141 . S
O64 C55 1.289 . S
Mg65 O72 2.141 . S
Mg65 O73 2.048 . S
Mg65 O74 2.048 . S
Mg65 O77 2.141 . S
C66 O67 1.313 . S
C66 O73 1.195 . S
O67 C66 1.313 . S
C68 O69 1.245 . S
C68 O77 1.289 . S
O69 C68 1.245 . S
C70 O71 1.245 . S
C70 O72 1.289 . S
O71 C70 1.245 . S
O72 Mg65 2.141 . S
O72 C70 1.289 . S
O73 Mg65 2.048 . S
O73 C66 1.195 . S
O74 Mg65 2.048 . S
O74 C75 1.195 . S
C75 O74 1.195 . S
C75 O76 1.313 . S
O76 C75 1.313 . S
O77 Mg65 2.141 . S
O77 C68 1.289 . S
Mg78 O85 2.141 . S
Mg78 O86 2.048 . S
Mg78 O87 2.048 . S
Mg78 O90 2.141 . S
C79 O80 1.313 . S
C79 O86 1.195 . S
O80 C79 1.313 . S
C81 O82 1.245 . S
C81 O90 1.289 . S
O82 C81 1.245 . S
C83 O84 1.245 . S
C83 O85 1.289 . S
O84 C83 1.245 . S
O85 Mg78 2.141 . S
O85 C83 1.289 . S
O86 Mg78 2.048 . S
O86 C79 1.195 . S
O87 Mg78 2.048 . S
O87 C88 1.195 . S
C88 O87 1.195 . S
C88 O89 1.313 . S
O89 C88 1.313 . S
O90 Mg78 2.141 . S
O90 C81 1.289 . S
Mg91 O98 2.141 . S
Mg91 O99 2.048 . S
Mg91 O100 2.048 . S
Mg91 O103 2.141 . S
C92 O93 1.313 . S
C92 O99 1.195 . S
O93 C92 1.313 . S
C94 O95 1.245 . S
C94 O103 1.289 . S
O95 C94 1.245 . S
C96 O97 1.245 . S
C96 O98 1.289 . S
O97 C96 1.245 . S
O98 Mg91 2.141 . S
O98 C96 1.289 . S
O99 Mg91 2.048 . S
O99 C92 1.195 . S
O100 Mg91 2.048 . S
O100 C101 1.195 . S
C101 O100 1.195 . S
C101 O102 1.313 . S
O102 C101 1.313 . S
O103 Mg91 2.141 . S
O103 C94 1.289 . S
Mg104 O111 2.141 . S
Mg104 O112 2.048 . S
Mg104 O113 2.048 . S
Mg104 O116 2.141 . S
C105 O106 1.313 . S
C105 O112 1.195 . S
O106 C105 1.313 . S
C107 O108 1.245 . S
C107 O116 1.289 . S
O108 C107 1.245 . S
C109 O110 1.245 . S
C109 O111 1.289 . S
O110 C109 1.245 . S
O111 Mg104 2.141 . S
O111 C109 1.289 . S
O112 Mg104 2.048 . S
O112 C105 1.195 . S
O113 Mg104 2.048 . S
O113 C114 1.195 . S
C114 O113 1.195 . S
C114 O115 1.313 . S
O115 C114 1.313 . S
O116 Mg104 2.141 . S
O116 C107 1.289 . S
Mg117 O124 2.141 . S
Mg117 O125 2.048 . S
Mg117 O126 2.048 . S
Mg117 O129 2.141 . S
C118 O119 1.313 . S
C118 O125 1.195 . S
O119 C118 1.313 . S
C120 O121 1.245 . S
C120 O129 1.289 . S
O121 C120 1.245 . S
C122 O123 1.245 . S
C122 O124 1.289 . S
O123 C122 1.245 . S
O124 Mg117 2.141 . S
O124 C122 1.289 . S
O125 Mg117 2.048 . S
O125 C118 1.195 . S
O126 Mg117 2.048 . S
O126 C127 1.195 . S
C127 O126 1.195 . S
C127 O128 1.313 . S
O128 C127 1.313 . S
O129 Mg117 2.141 . S
O129 C120 1.289 . S
Mg130 O137 2.141 . S
Mg130 O138 2.048 . S
Mg130 O139 2.048 . S
Mg130 O142 2.141 . S
C131 O132 1.313 . S
C131 O138 1.195 . S
O132 C131 1.313 . S
C133 O134 1.245 . S
C133 O142 1.289 . S
O134 C133 1.245 . S
C135 O136 1.245 . S
C135 O137 1.289 . S
O136 C135 1.245 . S
O137 Mg130 2.141 . S
O137 C135 1.289 . S
O138 Mg130 2.048 . S
O138 C131 1.195 . S
O139 Mg130 2.048 . S
O139 C140 1.195 . S
C140 O139 1.195 . S
C140 O141 1.313 . S
O141 C140 1.313 . S
O142 Mg130 2.141 . S
O142 C133 1.289 . S
Mg143 O150 2.141 . S
Mg143 O151 2.048 . S
Mg143 O152 2.048 . S
Mg143 O155 2.141 . S
C144 O145 1.313 . S
C144 O151 1.195 . S
O145 C144 1.313 . S
C146 O147 1.245 . S
C146 O155 1.289 . S
O147 C146 1.245 . S
C148 O149 1.245 . S
C148 O150 1.289 . S
O149 C148 1.245 . S
O150 Mg143 2.141 . S
O150 C148 1.289 . S
O151 Mg143 2.048 . S
O151 C144 1.195 . S
O152 Mg143 2.048 . S
O152 C153 1.195 . S
C153 O152 1.195 . S
C153 O154 1.313 . S
O154 C153 1.313 . S
O155 Mg143 2.141 . S
O155 C146 1.289 . S
Mg156 O163 2.141 . S
Mg156 O164 2.048 . S
Mg156 O165 2.048 . S
Mg156 O168 2.141 . S
C157 O158 1.313 . S
C157 O164 1.195 . S
O158 C157 1.313 . S
C159 O160 1.245 . S
C159 O168 1.289 . S
O160 C159 1.245 . S
C161 O162 1.245 . S
C161 O163 1.289 . S
O162 C161 1.245 . S
O163 Mg156 2.141 . S
O163 C161 1.289 . S
O164 Mg156 2.048 . S
O164 C157 1.195 . S
O165 Mg156 2.048 . S
O165 C166 1.195 . S
C166 O165 1.195 . S
C166 O167 1.313 . S
O167 C166 1.313 . S
O168 Mg156 2.141 . S
O168 C159 1.289 . S
Mg169 O176 2.141 . S
Mg169 O177 2.048 . S
Mg169 O178 2.048 . S
Mg169 O181 2.141 . S
C170 O171 1.313 . S
C170 O177 1.195 . S
O171 C170 1.313 . S
C172 O173 1.245 . S
C172 O181 1.289 . S
O173 C172 1.245 . S
C174 O175 1.245 . S
C174 O176 1.289 . S
O175 C174 1.245 . S
O176 Mg169 2.141 . S
O176 C174 1.289 . S
O177 Mg169 2.048 . S
O177 C170 1.195 . S
O178 Mg169 2.048 . S
O178 C179 1.195 . S
C179 O178 1.195 . S
C179 O180 1.313 . S
O180 C179 1.313 . S
O181 Mg169 2.141 . S
O181 C172 1.289 . S
Mg182 O189 2.141 . S
Mg182 O190 2.048 . S
Mg182 O191 2.048 . S
Mg182 O194 2.141 . S
C183 O184 1.313 . S
C183 O190 1.195 . S
O184 C183 1.313 . S
C185 O186 1.245 . S
C185 O194 1.289 . S
O186 C185 1.245 . S
C187 O188 1.245 . S
C187 O189 1.289 . S
O188 C187 1.245 . S
O189 Mg182 2.141 . S
O189 C187 1.289 . S
O190 Mg182 2.048 . S
O190 C183 1.195 . S
O191 Mg182 2.048 . S
O191 C192 1.195 . S
C192 O191 1.195 . S
C192 O193 1.313 . S
O193 C192 1.313 . S
O194 Mg182 2.141 . S
O194 C185 1.289 . S
Mg195 O202 2.141 . S
Mg195 O203 2.048 . S
Mg195 O204 2.048 . S
Mg195 O207 2.141 . S
C196 O197 1.313 . S
C196 O203 1.195 . S
O197 C196 1.313 . S
C198 O199 1.245 . S
C198 O207 1.289 . S
O199 C198 1.245 . S
C200 O201 1.245 . S
C200 O202 1.289 . S
O201 C200 1.245 . S
O202 Mg195 2.141 . S
O202 C200 1.289 . S
O203 Mg195 2.048 . S
O203 C196 1.195 . S
O204 Mg195 2.048 . S
O204 C205 1.195 . S
C205 O204 1.195 . S
C205 O206 1.313 . S
O206 C205 1.313 . S
O207 Mg195 2.141 . S
O207 C198 1.289 . S
Mg208 O215 2.141 . S
Mg208 O216 2.048 . S
Mg208 O217 2.048 . S
Mg208 O220 2.141 . S
C209 O210 1.313 . S
C209 O216 1.195 . S
O210 C209 1.313 . S
C211 O212 1.245 . S
C211 O220 1.289 . S
O212 C211 1.245 . S
C213 O214 1.245 . S
C213 O215 1.289 . S
O214 C213 1.245 . S
O215 Mg208 2.141 . S
O215 C213 1.289 . S
O216 Mg208 2.048 . S
O216 C209 1.195 . S
O217 Mg208 2.048 . S
O217 C218 1.195 . S
C218 O217 1.195 . S
C218 O219 1.313 . S
O219 C218 1.313 . S
O220 Mg208 2.141 . S
O220 C211 1.289 . S
Mg221 O228 2.141 . S
Mg221 O229 2.048 . S
Mg221 O230 2.048 . S
Mg221 O233 2.141 . S
C222 O223 1.313 . S
C222 O229 1.195 . S
O223 C222 1.313 . S
C224 O225 1.245 . S
C224 O233 1.289 . S
O225 C224 1.245 . S
C226 O227 1.245 . S
C226 O228 1.289 . S
O227 C226 1.245 . S
O228 Mg221 2.141 . S
O228 C226 1.289 . S
O229 Mg221 2.048 . S
O229 C222 1.195 . S
O230 Mg221 2.048 . S
O230 C231 1.195 . S
C231 O230 1.195 . S
C231 O232 1.313 . S
O232 C231 1.313 . S
O233 Mg221 2.141 . S
O233 C224 1.289 . S
Mg234 O241 2.141 . S
Mg234 O242 2.048 . S
Mg234 O243 2.048 . S
Mg234 O246 2.141 . S
C235 O236 1.313 . S
C235 O242 1.195 . S
O236 C235 1.313 . S
C237 O238 1.245 . S
C237 O246 1.289 . S
O238 C237 1.245 . S
C239 O240 1.245 . S
C239 O241 1.289 . S
O240 C239 1.245 . S
O241 Mg234 2.141 . S
O241 C239 1.289 . S
O242 Mg234 2.048 . S
O242 C235 1.195 . S
O243 Mg234 2.048 . S
O243 C244 1.195 . S
C244 O243 1.195 . S
C244 O245 1.313 . S
O245 C244 1.313 . S
O246 Mg234 2.141 . S
O246 C237 1.289 . S
Mg247 O254 2.141 . S
Mg247 O255 2.048 . S
Mg247 O256 2.048 . S
Mg247 O259 2.141 . S
C248 O249 1.313 . S
C248 O255 1.195 . S
O249 C248 1.313 . S
C250 O251 1.245 . S
C250 O259 1.289 . S
O251 C250 1.245 . S
C252 O253 1.245 . S
C252 O254 1.289 . S
O253 C252 1.245 . S
O254 Mg247 2.141 . S
O254 C252 1.289 . S
O255 Mg247 2.048 . S
O255 C248 1.195 . S
O256 Mg247 2.048 . S
O256 C257 1.195 . S
C257 O256 1.195 . S
C257 O258 1.313 . S
O258 C257 1.313 . S
O259 Mg247 2.141 . S
O259 C250 1.289 . S
Mg260 O267 2.141 . S
Mg260 O268 2.048 . S
Mg260 O269 2.048 . S
Mg260 O272 2.141 . S
C261 O262 1.313 . S
C261 O268 1.195 . S
O262 C261 1.313 . S
C263 O264 1.245 . S
C263 O272 1.289 . S
O264 C263 1.245 . S
C265 O266 1.245 . S
C265 O267 1.289 . S
O266 C265 1.245 . S
O267 Mg260 2.141 . S
O267 C265 1.289 . S
O268 Mg260 2.048 . S
O268 C261 1.195 . S
O269 Mg260 2.048 . S
O269 C270 1.195 . S
C270 O269 1.195 . S
C270 O271 1.313 . S
O271 C270 1.313 . S
O272 Mg260 2.141 . S
O272 C263 1.289 . S
Mg273 O280 2.141 . S
Mg273 O281 2.048 . S
Mg273 O282 2.048 . S
Mg273 O285 2.141 . S
C274 O275 1.313 . S
C274 O281 1.195 . S
O275 C274 1.313 . S
C276 O277 1.245 . S
C276 O285 1.289 . S
O277 C276 1.245 . S
C278 O279 1.245 . S
C278 O280 1.289 . S
O279 C278 1.245 . S
O280 Mg273 2.141 . S
O280 C278 1.289 . S
O281 Mg273 2.048 . S
O281 C274 1.195 . S
O282 Mg273 2.048 . S
O282 C283 1.195 . S
C283 O282 1.195 . S
C283 O284 1.313 . S
O284 C283 1.313 . S
O285 Mg273 2.141 . S
O285 C276 1.289 . S
Mg286 O293 2.141 . S
Mg286 O294 2.048 . S
Mg286 O295 2.048 . S
Mg286 O298 2.141 . S
C287 O288 1.313 . S
C287 O294 1.195 . S
O288 C287 1.313 . S
C289 O290 1.245 . S
C289 O298 1.289 . S
O290 C289 1.245 . S
C291 O292 1.245 . S
C291 O293 1.289 . S
O292 C291 1.245 . S
O293 Mg286 2.141 . S
O293 C291 1.289 . S
O294 Mg286 2.048 . S
O294 C287 1.195 . S
O295 Mg286 2.048 . S
O295 C296 1.195 . S
C296 O295 1.195 . S
C296 O297 1.313 . S
O297 C296 1.313 . S
O298 Mg286 2.141 . S
O298 C289 1.289 . S
Mg299 O306 2.141 . S
Mg299 O307 2.048 . S
Mg299 O308 2.048 . S
Mg299 O311 2.141 . S
C300 O301 1.313 . S
C300 O307 1.195 . S
O301 C300 1.313 . S
C302 O303 1.245 . S
C302 O311 1.289 . S
O303 C302 1.245 . S
C304 O305 1.245 . S
C304 O306 1.289 . S
O305 C304 1.245 . S
O306 Mg299 2.141 . S
O306 C304 1.289 . S
O307 Mg299 2.048 . S
O307 C300 1.195 . S
O308 Mg299 2.048 . S
O308 C309 1.195 . S
C309 O308 1.195 . S
C309 O310 1.313 . S
O310 C309 1.313 . S
O311 Mg299 2.141 . S
O311 C302 1.289 . S
C312 C313 1.369 . S
C312 C314 1.419 . S
C312 H316 0.930 . S
C313 C312 1.369 . S
C313 C322 1.429 . S
C314 C312 1.419 . S
C314 C315 1.363 . S
C314 H317 0.929 . S
C315 C314 1.363 . S
C315 C321 1.428 . S
H316 C312 0.930 . S
H317 C314 0.929 . S
S318 N319 1.613 . S
S318 N320 1.610 . S
N319 S318 1.613 . S
N319 C322 1.350 . S
N320 S318 1.610 . S
N320 C321 1.351 . S
C321 C315 1.428 . S
C321 N320 1.351 . S
C321 C322 1.434 . S
C322 C313 1.429 . S
C322 N319 1.350 . S
C322 C321 1.434 . S
C323 C324 1.369 . S
C323 C325 1.419 . S
C323 H327 0.930 . S
C324 C323 1.369 . S
C324 C333 1.429 . S
C325 C323 1.419 . S
C325 C326 1.363 . S
C325 H328 0.929 . S
C326 C325 1.363 . S
C326 C332 1.428 . S
H327 C323 0.930 . S
H328 C325 0.929 . S
S329 N330 1.613 . S
S329 N331 1.610 . S
N330 S329 1.613 . S
N330 C333 1.350 . S
N331 S329 1.610 . S
N331 C332 1.351 . S
C332 C326 1.428 . S
C332 N331 1.351 . S
C332 C333 1.434 . S
C333 C324 1.429 . S
C333 N330 1.350 . S
C333 C332 1.434 . S
C334 C335 1.369 . S
C334 C336 1.419 . S
C334 H338 0.930 . S
C335 C334 1.369 . S
C335 C344 1.429 . S
C336 C334 1.419 . S
C336 C337 1.363 . S
C336 H339 0.929 . S
C337 C336 1.363 . S
C337 C343 1.428 . S
H338 C334 0.930 . S
H339 C336 0.929 . S
S340 N341 1.613 . S
S340 N342 1.610 . S
N341 S340 1.613 . S
N341 C344 1.350 . S
N342 S340 1.610 . S
N342 C343 1.351 . S
C343 C337 1.428 . S
C343 N342 1.351 . S
C343 C344 1.434 . S
C344 C335 1.429 . S
C344 N341 1.350 . S
C344 C343 1.434 . S
C345 C346 1.369 . S
C345 C347 1.419 . S
C345 H349 0.930 . S
C346 C345 1.369 . S
C346 C355 1.429 . S
C347 C345 1.419 . S
C347 C348 1.363 . S
C347 H350 0.929 . S
C348 C347 1.363 . S
C348 C354 1.428 . S
H349 C345 0.930 . S
H350 C347 0.929 . S
S351 N352 1.613 . S
S351 N353 1.610 . S
N352 S351 1.613 . S
N352 C355 1.350 . S
N353 S351 1.610 . S
N353 C354 1.351 . S
C354 C348 1.428 . S
C354 N353 1.351 . S
C354 C355 1.434 . S
C355 C346 1.429 . S
C355 N352 1.350 . S
C355 C354 1.434 . S
C356 C357 1.369 . S
C356 C358 1.419 . S
C356 H360 0.930 . S
C357 C356 1.369 . S
C357 C366 1.429 . S
C358 C356 1.419 . S
C358 C359 1.363 . S
C358 H361 0.929 . S
C359 C358 1.363 . S
C359 C365 1.428 . S
H360 C356 0.930 . S
H361 C358 0.929 . S
S362 N363 1.613 . S
S362 N364 1.610 . S
N363 S362 1.613 . S
N363 C366 1.350 . S
N364 S362 1.610 . S
N364 C365 1.351 . S
C365 C359 1.428 . S
C365 N364 1.351 . S
C365 C366 1.434 . S
C366 C357 1.429 . S
C366 N363 1.350 . S
C366 C365 1.434 . S
C367 C368 1.369 . S
C367 C369 1.419 . S
C367 H371 0.930 . S
C368 C367 1.369 . S
C368 C377 1.429 . S
C369 C367 1.419 . S
C369 C370 1.363 . S
C369 H372 0.929 . S
C370 C369 1.363 . S
C370 C376 1.428 . S
H371 C367 0.930 . S
H372 C369 0.929 . S
S373 N374 1.613 . S
S373 N375 1.610 . S
N374 S373 1.613 . S
N374 C377 1.350 . S
N375 S373 1.610 . S
N375 C376 1.351 . S
C376 C370 1.428 . S
C376 N375 1.351 . S
C376 C377 1.434 . S
C377 C368 1.429 . S
C377 N374 1.350 . S
C377 C376 1.434 . S
C378 C379 1.369 . S
C378 C380 1.419 . S
C378 H382 0.930 . S
C379 C378 1.369 . S
C379 C388 1.429 . S
C380 C378 1.419 . S
C380 C381 1.363 . S
C380 H383 0.929 . S
C381 C380 1.363 . S
C381 C387 1.428 . S
H382 C378 0.930 . S
H383 C380 0.929 . S
S384 N385 1.613 . S
S384 N386 1.610 . S
N385 S384 1.613 . S
N385 C388 1.350 . S
N386 S384 1.610 . S
N386 C387 1.351 . S
C387 C381 1.428 . S
C387 N386 1.351 . S
C387 C388 1.434 . S
C388 C379 1.429 . S
C388 N385 1.350 . S
C388 C387 1.434 . S
C389 C390 1.369 . S
C389 C391 1.419 . S
C389 H393 0.930 . S
C390 C389 1.369 . S
C390 C399 1.429 . S
C391 C389 1.419 . S
C391 C392 1.363 . S
C391 H394 0.929 . S
C392 C391 1.363 . S
C392 C398 1.428 . S
H393 C389 0.930 . S
H394 C391 0.929 . S
S395 N396 1.613 . S
S395 N397 1.610 . S
N396 S395 1.613 . S
N396 C399 1.350 . S
N397 S395 1.610 . S
N397 C398 1.351 . S
C398 C392 1.428 . S
C398 N397 1.351 . S
C398 C399 1.434 . S
C399 C390 1.429 . S
C399 N396 1.350 . S
C399 C398 1.434 . S
C400 C401 1.369 . S
C400 C402 1.419 . S
C400 H404 0.930 . S
C401 C400 1.369 . S
C401 C410 1.429 . S
C402 C400 1.419 . S
C402 C403 1.363 . S
C402 H405 0.929 . S
C403 C402 1.363 . S
C403 C409 1.428 . S
H404 C400 0.930 . S
H405 C402 0.929 . S
S406 N407 1.613 . S
S406 N408 1.610 . S
N407 S406 1.613 . S
N407 C410 1.350 . S
N408 S406 1.610 . S
N408 C409 1.351 . S
C409 C403 1.428 . S
C409 N408 1.351 . S
C409 C410 1.434 . S
C410 C401 1.429 . S
C410 N407 1.350 . S
C410 C409 1.434 . S
C411 C412 1.369 . S
C411 C413 1.419 . S
C411 H415 0.930 . S
C412 C411 1.369 . S
C412 C421 1.429 . S
C413 C411 1.419 . S
C413 C414 1.363 . S
C413 H416 0.929 . S
C414 C413 1.363 . S
C414 C420 1.428 . S
H415 C411 0.930 . S
H416 C413 0.929 . S
S417 N418 1.613 . S
S417 N419 1.610 . S
N418 S417 1.613 . S
N418 C421 1.350 . S
N419 S417 1.610 . S
N419 C420 1.351 . S
C420 C414 1.428 . S
C420 N419 1.351 . S
C420 C421 1.434 . S
C421 C412 1.429 . S
C421 N418 1.350 . S
C421 C420 1.434 . S
C422 C423 1.369 . S
C422 C424 1.419 . S
C422 H426 0.930 . S
C423 C422 1.369 . S
C423 C432 1.429 . S
C424 C422 1.419 . S
C424 C425 1.363 . S
C424 H427 0.929 . S
C425 C424 1.363 . S
C425 C431 1.428 . S
H426 C422 0.930 . S
H427 C424 0.929 . S
S428 N429 1.613 . S
S428 N430 1.610 . S
N429 S428 1.613 . S
N429 C432 1.350 . S
N430 S428 1.610 . S
N430 C431 1.351 . S
C431 C425 1.428 . S
C431 N430 1.351 . S
C431 C432 1.434 . S
C432 C423 1.429 . S
C432 N429 1.350 . S
C432 C431 1.434 . S
C433 C434 1.369 . S
C433 C435 1.419 . S
C433 H437 0.930 . S
C434 C433 1.369 . S
C434 C443 1.429 . S
C435 C433 1.419 . S
C435 C436 1.363 . S
C435 H438 0.929 . S
C436 C435 1.363 . S
C436 C442 1.428 . S
H437 C433 0.930 . S
H438 C435 0.929 . S
S439 N440 1.613 . S
S439 N441 1.610 . S
N440 S439 1.613 . S
N440 C443 1.350 . S
N441 S439 1.610 . S
N441 C442 1.351 . S
C442 C436 1.428 . S
C442 N441 1.351 . S
C442 C443 1.434 . S
C443 C434 1.429 . S
C443 N440 1.350 . S
C443 C442 1.434 . S
C444 C445 1.369 . S
C444 C446 1.419 1_565 S
C444 H448 0.930 . S
C445 C444 1.369 . S
C445 C454 1.429 . S
C446 C444 1.419 1_545 S
C446 C447 1.363 . S
C446 H449 0.929 . S
C447 C446 1.363 . S
C447 C453 1.428 . S
H448 C444 0.930 . S
H449 C446 0.929 . S
S450 N451 1.613 . S
S450 N452 1.610 1_565 S
N451 S450 1.613 . S
N451 C454 1.350 . S
N452 S450 1.610 1_545 S
N452 C453 1.351 . S
C453 C447 1.428 . S
C453 N452 1.351 . S
C453 C454 1.434 1_545 S
C454 C445 1.429 . S
C454 N451 1.350 . S
C454 C453 1.434 1_565 S
C455 C456 1.369 . S
C455 C457 1.419 1_655 S
C455 H459 0.930 . S
C456 C455 1.369 . S
C456 C465 1.429 . S
C457 C455 1.419 1_455 S
C457 C458 1.363 . S
C457 H460 0.929 . S
C458 C457 1.363 . S
C458 C464 1.428 . S
H459 C455 0.930 . S
H460 C457 0.929 . S
S461 N462 1.613 1_455 S
S461 N463 1.610 . S
N462 S461 1.613 1_655 S
N462 C465 1.350 . S
N463 S461 1.610 . S
N463 C464 1.351 . S
C464 C458 1.428 . S
C464 N463 1.351 . S
C464 C465 1.434 1_455 S
C465 C456 1.429 . S
C465 N462 1.350 . S
C465 C464 1.434 1_655 S
C466 C467 1.369 . S
C466 C468 1.419 . S
C466 H470 0.930 . S
C467 C466 1.369 . S
C467 C476 1.429 1_545 S
C468 C466 1.419 . S
C468 C469 1.363 1_545 S
C468 H471 0.929 . S
C469 C468 1.363 1_565 S
C469 C475 1.428 . S
H470 C466 0.930 . S
H471 C468 0.929 . S
S472 N473 1.613 . S
S472 N474 1.610 . S
N473 S472 1.613 . S
N473 C476 1.350 . S
N474 S472 1.610 . S
N474 C475 1.351 . S
C475 C469 1.428 . S
C475 N474 1.351 . S
C475 C476 1.434 . S
C476 C467 1.429 1_565 S
C476 N473 1.350 . S
C476 C475 1.434 . S
C477 C478 1.369 . S
C477 C479 1.419 . S
C477 H481 0.930 . S
C478 C477 1.369 . S
C478 C487 1.429 1_455 S
C479 C477 1.419 . S
C479 C480 1.363 1_455 S
C479 H482 0.929 . S
C480 C479 1.363 1_655 S
C480 C486 1.428 . S
H481 C477 0.930 . S
H482 C479 0.929 . S
S483 N484 1.613 . S
S483 N485 1.610 . S
N484 S483 1.613 . S
N484 C487 1.350 . S
N485 S483 1.610 . S
N485 C486 1.351 . S
C486 C480 1.428 . S
C486 N485 1.351 . S
C486 C487 1.434 . S
C487 C478 1.429 1_655 S
C487 N484 1.350 . S
C487 C486 1.434 . S
C488 C489 1.369 . S
C488 C490 1.419 1_565 S
C488 H492 0.930 . S
C489 C488 1.369 . S
C489 C498 1.429 . S
C490 C488 1.419 1_545 S
C490 C491 1.363 . S
C490 H493 0.929 . S
C491 C490 1.363 . S
C491 C497 1.428 . S
H492 C488 0.930 . S
H493 C490 0.929 . S
S494 N495 1.613 1_545 S
S494 N496 1.610 . S
N495 S494 1.613 1_565 S
N495 C498 1.350 . S
N496 S494 1.610 . S
N496 C497 1.351 . S
C497 C491 1.428 . S
C497 N496 1.351 . S
C497 C498 1.434 1_545 S
C498 C489 1.429 . S
C498 N495 1.350 . S
C498 C497 1.434 1_565 S
C499 C500 1.369 . S
C499 C501 1.419 . S
C499 H503 0.930 . S
C500 C499 1.369 . S
C500 C509 1.429 1_655 S
C501 C499 1.419 . S
C501 C502 1.363 1_655 S
C501 H504 0.929 . S
C502 C501 1.363 1_455 S
C502 C508 1.428 . S
H503 C499 0.930 . S
H504 C501 0.929 . S
S505 N506 1.613 . S
S505 N507 1.610 . S
N506 S505 1.613 . S
N506 C509 1.350 . S
N507 S505 1.610 . S
N507 C508 1.351 . S
C508 C502 1.428 . S
C508 N507 1.351 . S
C508 C509 1.434 . S
C509 C500 1.429 1_455 S
C509 N506 1.350 . S
C509 C508 1.434 . S
C510 C511 1.369 . S
C510 C512 1.419 . S
C510 H514 0.930 . S
C511 C510 1.369 . S
C511 C520 1.429 1_565 S
C512 C510 1.419 . S
C512 C513 1.363 1_565 S
C512 H515 0.929 . S
C513 C512 1.363 1_545 S
C513 C519 1.428 . S
H514 C510 0.930 . S
H515 C512 0.929 . S
S516 N517 1.613 . S
S516 N518 1.610 . S
N517 S516 1.613 . S
N517 C520 1.350 . S
N518 S516 1.610 . S
N518 C519 1.351 . S
C519 C513 1.428 . S
C519 N518 1.351 . S
C519 C520 1.434 . S
C520 C511 1.429 1_545 S
C520 N517 1.350 . S
C520 C519 1.434 . S
C521 C522 1.369 1_655 S
C521 C523 1.419 . S
C521 H525 0.930 . S
C522 C521 1.369 1_455 S
C522 C531 1.429 . S
C523 C521 1.419 . S
C523 C524 1.363 . S
C523 H526 0.929 . S
C524 C523 1.363 . S
C524 C530 1.428 1_655 S
H525 C521 0.930 . S
H526 C523 0.929 . S
S527 N528 1.613 . S
S527 N529 1.610 . S
N528 S527 1.613 . S
N528 C531 1.350 . S
N529 S527 1.610 . S
N529 C530 1.351 . S
C530 C524 1.428 1_455 S
C530 N529 1.351 . S
C530 C531 1.434 . S
C531 C522 1.429 . S
C531 N528 1.350 . S
C531 C530 1.434 . S
C532 C533 1.376 . S
C532 C534 1.412 1_556 S
C532 H536 0.929 1_556 S
C533 C532 1.376 . S
C533 C542 1.429 . S
C534 C532 1.412 1_554 S
C534 C535 1.363 . S
C534 H537 0.929 . S
C535 C534 1.363 . S
C535 C541 1.406 1_554 S
H536 C532 0.929 1_554 S
H537 C534 0.929 . S
S538 N539 1.613 . S
S538 N540 1.610 . S
N539 S538 1.613 . S
N539 C542 1.350 . S
N540 S538 1.610 . S
N540 C541 1.356 . S
C541 C535 1.406 1_556 S
C541 N540 1.356 . S
C541 C542 1.455 . S
C542 C533 1.429 . S
C542 N539 1.350 . S
C542 C541 1.455 . S
C543 C544 1.369 . S
C543 C545 1.419 1_554 S
C543 H547 0.930 . S
C544 C543 1.369 . S
C544 C553 1.429 . S
C545 C543 1.419 1_556 S
C545 C546 1.363 . S
C545 H548 0.929 . S
C546 C545 1.363 . S
C546 C552 1.428 . S
H547 C543 0.930 . S
H548 C545 0.929 . S
S549 N550 1.613 1_556 S
S549 N551 1.610 . S
N550 S549 1.613 1_554 S
N550 C553 1.350 . S
N551 S549 1.610 . S
N551 C552 1.351 . S
C552 C546 1.428 . S
C552 N551 1.351 . S
C552 C553 1.434 1_556 S
C553 C544 1.429 . S
C553 N550 1.350 . S
C553 C552 1.434 1_554 S
C554 C555 1.369 1_554 S
C554 C556 1.419 . S
C554 H558 0.930 . S
C555 C554 1.369 1_556 S
C555 C564 1.429 . S
C556 C554 1.419 . S
C556 C557 1.363 . S
C556 H559 0.929 . S
C557 C556 1.363 . S
C557 C563 1.428 1_554 S
H558 C554 0.930 . S
H559 C556 0.929 . S
S560 N561 1.613 . S
S560 N562 1.610 . S
N561 S560 1.613 . S
N561 C564 1.350 . S
N562 S560 1.610 . S
N562 C563 1.351 . S
C563 C557 1.428 1_556 S
C563 N562 1.351 . S
C563 C564 1.434 . S
C564 C555 1.429 . S
C564 N561 1.350 . S
C564 C563 1.434 . S
C565 C566 1.369 1_556 S
C565 C567 1.419 . S
C565 H569 0.930 . S
C566 C565 1.369 1_554 S
C566 C575 1.429 . S
C567 C565 1.419 . S
C567 C568 1.363 . S
C567 H570 0.929 . S
C568 C567 1.363 . S
C568 C574 1.428 1_556 S
H569 C565 0.930 . S
H570 C567 0.929 . S
S571 N572 1.613 . S
S571 N573 1.610 . S
N572 S571 1.613 . S
N572 C575 1.350 . S
N573 S571 1.610 . S
N573 C574 1.351 . S
C574 C568 1.428 1_554 S
C574 N573 1.351 . S
C574 C575 1.434 . S
C575 C566 1.429 . S
C575 N572 1.350 . S
C575 C574 1.434 . S
C576 C577 1.369 . S
C576 C578 1.419 . S
C576 H580 0.930 . S
C577 C576 1.369 . S
C577 C586 1.429 . S
C578 C576 1.419 . S
C578 C579 1.363 . S
C578 H581 0.929 . S
C579 C578 1.363 . S
C579 C585 1.428 . S
H580 C576 0.930 . S
H581 C578 0.929 . S
S582 N583 1.613 . S
S582 N584 1.610 . S
N583 S582 1.613 . S
N583 C586 1.350 . S
N584 S582 1.610 . S
N584 C585 1.351 . S
C585 C579 1.428 . S
C585 N584 1.351 . S
C585 C586 1.434 . S
C586 C577 1.429 . S
C586 N583 1.350 . S
C586 C585 1.434 . S
C587 C588 1.369 . S
C587 C589 1.419 . S
C587 H591 0.930 . S
C588 C587 1.369 . S
C588 C597 1.429 . S
C589 C587 1.419 . S
C589 C590 1.363 . S
C589 H592 0.929 . S
C590 C589 1.363 . S
C590 C596 1.428 . S
H591 C587 0.930 . S
H592 C589 0.929 . S
S593 N594 1.613 . S
S593 N595 1.610 . S
N594 S593 1.613 . S
N594 C597 1.350 . S
N595 S593 1.610 . S
N595 C596 1.351 . S
C596 C590 1.428 . S
C596 N595 1.351 . S
C596 C597 1.434 . S
C597 C588 1.429 . S
C597 N594 1.350 . S
C597 C596 1.434 . S
C598 C599 1.369 . S
C598 C600 1.419 . S
C598 H602 0.930 . S
C599 C598 1.369 . S
C599 C608 1.429 . S
C600 C598 1.419 . S
C600 C601 1.363 . S
C600 H603 0.929 . S
C601 C600 1.363 . S
C601 C607 1.428 . S
H602 C598 0.930 . S
H603 C600 0.929 . S
S604 N605 1.613 . S
S604 N606 1.610 . S
N605 S604 1.613 . S
N605 C608 1.350 . S
N606 S604 1.610 . S
N606 C607 1.351 . S
C607 C601 1.428 . S
C607 N606 1.351 . S
C607 C608 1.434 . S
C608 C599 1.429 . S
C608 N605 1.350 . S
C608 C607 1.434 . S
C609 C610 1.369 . S
C609 C611 1.419 . S
C609 H613 0.930 . S
C610 C609 1.369 . S
C610 C619 1.429 . S
C611 C609 1.419 . S
C611 C612 1.363 . S
C611 H614 0.929 . S
C612 C611 1.363 . S
C612 C618 1.428 . S
H613 C609 0.930 . S
H614 C611 0.929 . S
S615 N616 1.613 . S
S615 N617 1.610 . S
N616 S615 1.613 . S
N616 C619 1.350 . S
N617 S615 1.610 . S
N617 C618 1.351 . S
C618 C612 1.428 . S
C618 N617 1.351 . S
C618 C619 1.434 . S
C619 C610 1.429 . S
C619 N616 1.350 . S
C619 C618 1.434 . S
C620 C621 1.369 . S
C620 C622 1.419 . S
C620 H624 0.930 . S
C621 C620 1.369 . S
C621 C630 1.429 . S
C622 C620 1.419 . S
C622 C623 1.363 . S
C622 H625 0.929 . S
C623 C622 1.363 . S
C623 C629 1.428 . S
H624 C620 0.930 . S
H625 C622 0.929 . S
S626 N627 1.613 . S
S626 N628 1.610 . S
N627 S626 1.613 . S
N627 C630 1.350 . S
N628 S626 1.610 . S
N628 C629 1.351 . S
C629 C623 1.428 . S
C629 N628 1.351 . S
C629 C630 1.434 . S
C630 C621 1.429 . S
C630 N627 1.350 . S
C630 C629 1.434 . S
C631 C632 1.369 . S
C631 C633 1.419 . S
C631 H635 0.930 . S
C632 C631 1.369 . S
C632 C641 1.429 . S
C633 C631 1.419 . S
C633 C634 1.363 . S
C633 H636 0.929 . S
C634 C633 1.363 . S
C634 C640 1.428 . S
H635 C631 0.930 . S
H636 C633 0.929 . S
S637 N638 1.613 . S
S637 N639 1.610 . S
N638 S637 1.613 . S
N638 C641 1.350 . S
N639 S637 1.610 . S
N639 C640 1.351 . S
C640 C634 1.428 . S
C640 N639 1.351 . S
C640 C641 1.434 . S
C641 C632 1.429 . S
C641 N638 1.350 . S
C641 C640 1.434 . S
C642 C643 1.369 . S
C642 C644 1.419 . S
C642 H646 0.930 . S
C643 C642 1.369 . S
C643 C652 1.429 . S
C644 C642 1.419 . S
C644 C645 1.363 . S
C644 H647 0.929 . S
C645 C644 1.363 . S
C645 C651 1.428 . S
H646 C642 0.930 . S
H647 C644 0.929 . S
S648 N649 1.613 . S
S648 N650 1.610 . S
N649 S648 1.613 . S
N649 C652 1.350 . S
N650 S648 1.610 . S
N650 C651 1.351 . S
C651 C645 1.428 . S
C651 N650 1.351 . S
C651 C652 1.434 . S
C652 C643 1.429 . S
C652 N649 1.350 . S
C652 C651 1.434 . S
C653 C654 1.369 . S
C653 C655 1.419 . S
C653 H657 0.930 . S
C654 C653 1.369 . S
C654 C663 1.429 . S
C655 C653 1.419 . S
C655 C656 1.363 . S
C655 H658 0.929 . S
C656 C655 1.363 . S
C656 C662 1.428 . S
H657 C653 0.930 . S
H658 C655 0.929 . S
S659 N660 1.613 . S
S659 N661 1.610 . S
N660 S659 1.613 . S
N660 C663 1.350 . S
N661 S659 1.610 . S
N661 C662 1.351 . S
C662 C656 1.428 . S
C662 N661 1.351 . S
C662 C663 1.434 . S
C663 C654 1.429 . S
C663 N660 1.350 . S
C663 C662 1.434 . S
C664 C665 1.369 . S
C664 C666 1.419 . S
C664 H668 0.930 . S
C665 C664 1.369 . S
C665 C674 1.429 . S
C666 C664 1.419 . S
C666 C667 1.363 . S
C666 H669 0.929 . S
C667 C666 1.363 . S
C667 C673 1.428 . S
H668 C664 0.930 . S
H669 C666 0.929 . S
S670 N671 1.613 . S
S670 N672 1.610 . S
N671 S670 1.613 . S
N671 C674 1.350 . S
N672 S670 1.610 . S
N672 C673 1.351 . S
C673 C667 1.428 . S
C673 N672 1.351 . S
C673 C674 1.434 . S
C674 C665 1.429 . S
C674 N671 1.350 . S
C674 C673 1.434 . S
C675 C676 1.369 . S
C675 C677 1.419 . S
C675 H679 0.930 . S
C676 C675 1.369 . S
C676 C685 1.429 . S
C677 C675 1.419 . S
C677 C678 1.363 . S
C677 H680 0.929 . S
C678 C677 1.363 . S
C678 C684 1.428 . S
H679 C675 0.930 . S
H680 C677 0.929 . S
S681 N682 1.613 . S
S681 N683 1.610 . S
N682 S681 1.613 . S
N682 C685 1.350 . S
N683 S681 1.610 . S
N683 C684 1.351 . S
C684 C678 1.428 . S
C684 N683 1.351 . S
C684 C685 1.434 . S
C685 C676 1.429 . S
C685 N682 1.350 . S
C685 C684 1.434 . S
C686 C687 1.369 . S
C686 C688 1.419 . S
C686 H690 0.930 . S
C687 C686 1.369 . S
C687 C696 1.429 . S
C688 C686 1.419 . S
C688 C689 1.363 . S
C688 H691 0.929 . S
C689 C688 1.363 . S
C689 C695 1.428 . S
H690 C686 0.930 . S
H691 C688 0.929 . S
S692 N693 1.613 . S
S692 N694 1.610 . S
N693 S692 1.613 . S
N693 C696 1.350 . S
N694 S692 1.610 . S
N694 C695 1.351 . S
C695 C689 1.428 . S
C695 N694 1.351 . S
C695 C696 1.434 . S
C696 C687 1.429 . S
C696 N693 1.350 . S
C696 C695 1.434 . S
C697 C698 1.369 . S
C697 C699 1.419 . S
C697 H701 0.930 . S
C698 C697 1.369 . S
C698 C707 1.429 . S
C699 C697 1.419 . S
C699 C700 1.363 . S
C699 H702 0.929 . S
C700 C699 1.363 . S
C700 C706 1.428 . S
H701 C697 0.930 . S
H702 C699 0.929 . S
S703 N704 1.613 . S
S703 N705 1.610 . S
N704 S703 1.613 . S
N704 C707 1.350 . S
N705 S703 1.610 . S
N705 C706 1.351 . S
C706 C700 1.428 . S
C706 N705 1.351 . S
C706 C707 1.434 . S
C707 C698 1.429 . S
C707 N704 1.350 . S
C707 C706 1.434 . S
C708 C709 1.369 . S
C708 C710 1.419 . S
C708 H712 0.930 . S
C709 C708 1.369 . S
C709 C718 1.429 . S
C710 C708 1.419 . S
C710 C711 1.363 . S
C710 H713 0.929 . S
C711 C710 1.363 . S
C711 C717 1.428 . S
H712 C708 0.930 . S
H713 C710 0.929 . S
S714 N715 1.613 . S
S714 N716 1.610 . S
N715 S714 1.613 . S
N715 C718 1.350 . S
N716 S714 1.610 . S
N716 C717 1.351 . S
C717 C711 1.428 . S
C717 N716 1.351 . S
C717 C718 1.434 . S
C718 C709 1.429 . S
C718 N715 1.350 . S
C718 C717 1.434 . S
C719 C720 1.369 . S
C719 C721 1.419 . S
C719 H723 0.930 . S
C720 C719 1.369 . S
C720 C729 1.429 . S
C721 C719 1.419 . S
C721 C722 1.363 . S
C721 H724 0.929 . S
C722 C721 1.363 . S
C722 C728 1.428 . S
H723 C719 0.930 . S
H724 C721 0.929 . S
S725 N726 1.613 . S
S725 N727 1.610 . S
N726 S725 1.613 . S
N726 C729 1.350 . S
N727 S725 1.610 . S
N727 C728 1.351 . S
C728 C722 1.428 . S
C728 N727 1.351 . S
C728 C729 1.434 . S
C729 C720 1.429 . S
C729 N726 1.350 . S
C729 C728 1.434 . S
C730 C731 1.369 . S
C730 C732 1.419 . S
C730 H734 0.930 . S
C731 C730 1.369 . S
C731 C740 1.429 . S
C732 C730 1.419 . S
C732 C733 1.363 . S
C732 H735 0.929 . S
C733 C732 1.363 . S
C733 C739 1.428 . S
H734 C730 0.930 . S
H735 C732 0.929 . S
S736 N737 1.613 . S
S736 N738 1.610 . S
N737 S736 1.613 . S
N737 C740 1.350 . S
N738 S736 1.610 . S
N738 C739 1.351 . S
C739 C733 1.428 . S
C739 N738 1.351 . S
C739 C740 1.434 . S
C740 C731 1.429 . S
C740 N737 1.350 . S
C740 C739 1.434 . S
C741 C742 1.369 . S
C741 C743 1.419 . S
C741 H745 0.930 . S
C742 C741 1.369 . S
C742 C751 1.429 . S
C743 C741 1.419 . S
C743 C744 1.363 . S
C743 H746 0.929 . S
C744 C743 1.363 . S
C744 C750 1.428 . S
H745 C741 0.930 . S
H746 C743 0.929 . S
S747 N748 1.613 . S
S747 N749 1.610 . S
N748 S747 1.613 . S
N748 C751 1.350 . S
N749 S747 1.610 . S
N749 C750 1.351 . S
C750 C744 1.428 . S
C750 N749 1.351 . S
C750 C751 1.434 . S
C751 C742 1.429 . S
C751 N748 1.350 . S
C751 C750 1.434 . S
C752 C753 1.369 . S
C752 C754 1.419 . S
C752 H756 0.930 . S
C753 C752 1.369 . S
C753 C762 1.429 . S
C754 C752 1.419 . S
C754 C755 1.363 . S
C754 H757 0.929 . S
C755 C754 1.363 . S
C755 C761 1.428 . S
H756 C752 0.930 . S
H757 C754 0.929 . S
S758 N759 1.613 . S
S758 N760 1.610 . S
N759 S758 1.613 . S
N759 C762 1.350 . S
N760 S758 1.610 . S
N760 C761 1.351 . S
C761 C755 1.428 . S
C761 N760 1.351 . S
C761 C762 1.434 . S
C762 C753 1.429 . S
C762 N759 1.350 . S
C762 C761 1.434 . S
C763 C764 1.369 . S
C763 C765 1.419 . S
C763 H767 0.930 . S
C764 C763 1.369 . S
C764 C773 1.429 . S
C765 C763 1.419 . S
C765 C766 1.363 . S
C765 H768 0.929 . S
C766 C765 1.363 . S
C766 C772 1.428 . S
H767 C763 0.930 . S
H768 C765 0.929 . S
S769 N770 1.613 . S
S769 N771 1.610 . S
N770 S769 1.613 . S
N770 C773 1.350 . S
N771 S769 1.610 . S
N771 C772 1.351 . S
C772 C766 1.428 . S
C772 N771 1.351 . S
C772 C773 1.434 . S
C773 C764 1.429 . S
C773 N770 1.350 . S
C773 C772 1.434 . S
C774 C775 1.369 . S
C774 C776 1.419 . S
C774 H778 0.930 . S
C775 C774 1.369 . S
C775 C784 1.429 . S
C776 C774 1.419 . S
C776 C777 1.363 . S
C776 H779 0.929 . S
C777 C776 1.363 . S
C777 C783 1.428 . S
H778 C774 0.930 . S
H779 C776 0.929 . S
S780 N781 1.613 . S
S780 N782 1.610 . S
N781 S780 1.613 . S
N781 C784 1.350 . S
N782 S780 1.610 . S
N782 C783 1.351 . S
C783 C777 1.428 . S
C783 N782 1.351 . S
C783 C784 1.434 . S
C784 C775 1.429 . S
C784 N781 1.350 . S
C784 C783 1.434 . S
C785 C786 1.369 . S
C785 C787 1.419 . S
C785 H789 0.930 . S
C786 C785 1.369 . S
C786 C795 1.429 . S
C787 C785 1.419 . S
C787 C788 1.363 . S
C787 H790 0.929 . S
C788 C787 1.363 . S
C788 C794 1.428 . S
H789 C785 0.930 . S
H790 C787 0.929 . S
S791 N792 1.613 . S
S791 N793 1.610 . S
N792 S791 1.613 . S
N792 C795 1.350 . S
N793 S791 1.610 . S
N793 C794 1.351 . S
C794 C788 1.428 . S
C794 N793 1.351 . S
C794 C795 1.434 . S
C795 C786 1.429 . S
C795 N792 1.350 . S
C795 C794 1.434 . S
C796 C797 1.369 . S
C796 C798 1.419 . S
C796 H800 0.930 . S
C797 C796 1.369 . S
C797 C806 1.429 . S
C798 C796 1.419 . S
C798 C799 1.363 . S
C798 H801 0.929 . S
C799 C798 1.363 . S
C799 C805 1.428 . S
H800 C796 0.930 . S
H801 C798 0.929 . S
S802 N803 1.613 . S
S802 N804 1.610 . S
N803 S802 1.613 . S
N803 C806 1.350 . S
N804 S802 1.610 . S
N804 C805 1.351 . S
C805 C799 1.428 . S
C805 N804 1.351 . S
C805 C806 1.434 . S
C806 C797 1.429 . S
C806 N803 1.350 . S
C806 C805 1.434 . S
C807 C808 1.369 . S
C807 C809 1.419 . S
C807 H811 0.930 . S
C808 C807 1.369 . S
C808 C817 1.429 . S
C809 C807 1.419 . S
C809 C810 1.363 . S
C809 H812 0.929 . S
C810 C809 1.363 . S
C810 C816 1.428 . S
H811 C807 0.930 . S
H812 C809 0.929 . S
S813 N814 1.613 . S
S813 N815 1.610 . S
N814 S813 1.613 . S
N814 C817 1.350 . S
N815 S813 1.610 . S
N815 C816 1.351 . S
C816 C810 1.428 . S
C816 N815 1.351 . S
C816 C817 1.434 . S
C817 C808 1.429 . S
C817 N814 1.350 . S
C817 C816 1.434 . S
C818 C819 1.369 . S
C818 C820 1.419 . S
C818 H822 0.930 . S
C819 C818 1.369 . S
C819 C828 1.429 . S
C820 C818 1.419 . S
C820 C821 1.363 . S
C820 H823 0.929 . S
C821 C820 1.363 . S
C821 C827 1.428 . S
H822 C818 0.930 . S
H823 C820 0.929 . S
S824 N825 1.613 . S
S824 N826 1.610 . S
N825 S824 1.613 . S
N825 C828 1.350 . S
N826 S824 1.610 . S
N826 C827 1.351 . S
C827 C821 1.428 . S
C827 N826 1.351 . S
C827 C828 1.434 . S
C828 C819 1.429 . S
C828 N825 1.350 . S
C828 C827 1.434 . S
C829 C830 1.369 . S
C829 C831 1.419 . S
C829 H833 0.930 . S
C830 C829 1.369 . S
C830 C839 1.429 . S
C831 C829 1.419 . S
C831 C832 1.363 . S
C831 H834 0.929 . S
C832 C831 1.363 . S
C832 C838 1.428 . S
H833 C829 0.930 . S
H834 C831 0.929 . S
S835 N836 1.613 . S
S835 N837 1.610 . S
N836 S835 1.613 . S
N836 C839 1.350 . S
N837 S835 1.610 . S
N837 C838 1.351 . S
C838 C832 1.428 . S
C838 N837 1.351 . S
C838 C839 1.434 . S
C839 C830 1.429 . S
C839 N836 1.350 . S
C839 C838 1.434 . S
C313 C289 1.928 . S
C315 C3 1.926 . S
C324 C18 1.938 . S
C326 C213 1.934 . S
C335 C304 1.939 . S
C337 C29 1.921 . S
C346 C278 1.933 . S
C348 C44 1.938 . S
C357 C239 1.938 . S
C359 C55 1.926 . S
C368 C252 1.940 . S
C370 C70 1.934 . S
C379 C265 1.940 . S
C381 C81 1.923 . S
C390 C96 1.934 . S
C392 C226 1.937 . S
C401 C172 1.920 . S
C403 C107 1.923 . S
C412 C187 1.936 . S
C414 C120 1.921 . S
C423 C135 1.938 . S
C425 C198 1.921 . S
C434 C146 1.927 . S
C436 C161 1.937 . S
C445 C94 1.926 . S
C447 C185 1.927 . S
C456 C200 1.938 . S
C458 C57 1.934 . S
C467 C68 1.928 . S
C469 C159 1.923 . S
C478 C174 1.940 . S
C480 C83 1.933 . S
C489 C133 1.923 . S
C491 C16 1.921 . S
C500 C31 1.940 . S
C502 C148 1.933 . S
C511 C42 1.926 . S
C513 C109 1.933 . S
C522 C5 1.932 . S
C524 C122 1.939 . S
C533 C263 1.924 . S
C535 C276 1.927 . S
C544 C291 1.936 . S
C546 C224 1.927 . S
C555 C237 1.920 . S
C557 C211 1.925 . S
C566 C302 1.921 . S
C568 C250 1.926 . S
C577 C1 1.178 . S
C579 C114 1.252 . S
C588 C127 1.256 . S
C590 C23 1.251 . S
C599 C27 1.186 . S
C601 C131 1.182 . S
C610 C49 1.245 . S
C612 C153 1.253 . S
C621 C53 1.183 . S
C623 C157 1.184 . S
C632 C75 1.255 . S
C634 C179 1.252 . S
C643 C183 1.186 . S
C645 C79 1.182 . S
C654 C205 1.252 . S
C656 C101 1.246 . S
C665 C105 1.178 . S
C667 C209 1.188 . S
C676 C118 1.182 . S
C678 C300 1.191 . S
C687 C274 1.179 . S
C689 C140 1.255 . S
C698 C296 1.247 . S
C700 C144 1.184 . S
C709 C222 1.179 . S
C711 C166 1.251 . S
C720 C235 1.179 . S
C722 C170 1.192 . S
C731 C192 1.253 . S
C733 C248 1.179 . S
C742 C196 1.180 . S
C744 C261 1.191 . S
C753 C10 1.256 . S
C755 C218 1.248 . S
C764 C231 1.251 . S
C766 C62 1.246 . S
C775 C244 1.255 . S
C777 C66 1.185 . S
C786 C257 1.251 . S
C788 C88 1.254 . S
C797 C270 1.248 . S
C799 C92 1.183 . S
C808 C283 1.245 . S
C810 C36 1.252 . S
C819 C40 1.183 . S
C821 C287 1.184 . S
C830 C309 1.247 . S
C832 C14 1.184 . S
