# Generated by pormake.
# Topology wft, (7)-cn, num edge types: 1
# Building blocks:
#     Node 0, Type 0, BuildingBlock: NUHQUE_clean_sbu_2, # of connection points: 7
#     Node 1, Type 0, BuildingBlock: NUHQUE_clean_sbu_2, # of connection points: 7
#     Node 2, Type 0, BuildingBlock: NUHQUE_clean_sbu_2, # of connection points: 7
#     Node 3, Type 0, BuildingBlock: NUHQUE_clean_sbu_2, # of connection points: 7
#     Node 4, Type 0, BuildingBlock: NUHQUE_clean_sbu_2, # of connection points: 7
#     Node 5, Type 0, BuildingBlock: NUHQUE_clean_sbu_2, # of connection points: 7
#     Node 6, Type 0, BuildingBlock: NUHQUE_clean_sbu_2, # of connection points: 7
#     Node 7, Type 0, BuildingBlock: NUHQUE_clean_sbu_2, # of connection points: 7
#     Edge 8, Type (0, 0), BuildingBlock: TEMPAE_clean_linker_10, # of connection points: 2
#     Edge 9, Type (0, 0), BuildingBlock: TEMPAE_clean_linker_10, # of connection points: 2
#     Edge 10, Type (0, 0), BuildingBlock: TEMPAE_clean_linker_10, # of connection points: 2
#     Edge 11, Type (0, 0), BuildingBlock: TEMPAE_clean_linker_10, # of connection points: 2
#     Edge 12, Type (0, 0), BuildingBlock: TEMPAE_clean_linker_10, # of connection points: 2
#     Edge 13, Type (0, 0), BuildingBlock: TEMPAE_clean_linker_10, # of connection points: 2
#     Edge 14, Type (0, 0), BuildingBlock: TEMPAE_clean_linker_10, # of connection points: 2
#     Edge 15, Type (0, 0), BuildingBlock: TEMPAE_clean_linker_10, # of connection points: 2
#     Edge 16, Type (0, 0), BuildingBlock: TEMPAE_clean_linker_10, # of connection points: 2
#     Edge 17, Type (0, 0), BuildingBlock: TEMPAE_clean_linker_10, # of connection points: 2
#     Edge 18, Type (0, 0), BuildingBlock: TEMPAE_clean_linker_10, # of connection points: 2
#     Edge 19, Type (0, 0), BuildingBlock: TEMPAE_clean_linker_10, # of connection points: 2
#     Edge 20, Type (0, 0), BuildingBlock: TEMPAE_clean_linker_10, # of connection points: 2
#     Edge 21, Type (0, 0), BuildingBlock: TEMPAE_clean_linker_10, # of connection points: 2
#     Edge 22, Type (0, 0), BuildingBlock: TEMPAE_clean_linker_10, # of connection points: 2
#     Edge 23, Type (0, 0), BuildingBlock: TEMPAE_clean_linker_10, # of connection points: 2
#     Edge 24, Type (0, 0), BuildingBlock: TEMPAE_clean_linker_10, # of connection points: 2
#     Edge 25, Type (0, 0), BuildingBlock: TEMPAE_clean_linker_10, # of connection points: 2
#     Edge 26, Type (0, 0), BuildingBlock: TEMPAE_clean_linker_10, # of connection points: 2
#     Edge 27, Type (0, 0), BuildingBlock: TEMPAE_clean_linker_10, # of connection points: 2
#     Edge 28, Type (0, 0), BuildingBlock: TEMPAE_clean_linker_10, # of connection points: 2
#     Edge 29, Type (0, 0), BuildingBlock: TEMPAE_clean_linker_10, # of connection points: 2
#     Edge 30, Type (0, 0), BuildingBlock: TEMPAE_clean_linker_10, # of connection points: 2
#     Edge 31, Type (0, 0), BuildingBlock: TEMPAE_clean_linker_10, # of connection points: 2
#     Edge 32, Type (0, 0), BuildingBlock: TEMPAE_clean_linker_10, # of connection points: 2
#     Edge 33, Type (0, 0), BuildingBlock: TEMPAE_clean_linker_10, # of connection points: 2
#     Edge 34, Type (0, 0), BuildingBlock: TEMPAE_clean_linker_10, # of connection points: 2
#     Edge 35, Type (0, 0), BuildingBlock: TEMPAE_clean_linker_10, # of connection points: 2
# Relax obj value: 0.100
# Max RMSD: 0.180
# Mean RMSD: 0.180
data_MOF--net-wft--node1-NUHQUE_clean_sbu_2--edge1-TEMPAE_clean_linker_10
_symmetry_space_group_name_H-M    P1
_symmetry_Int_Tables_number       1
_symmetry_cell_setting            triclinic
loop_
_symmetry_equiv_pos_as_xyz
'x, y, z'
_cell_length_a     33.544877
_cell_length_b     33.482
_cell_length_c     36.03046
_cell_angle_alpha  89.913004
_cell_angle_beta   89.515704
_cell_angle_gamma 89.868571
loop_
_atom_site_label
_atom_site_type_symbol
_atom_site_fract_x
_atom_site_fract_y
_atom_site_fract_z
_atom_type_partial_charge
O0 O 0.30494 0.30152 0.43817 0.0
Tb1 Tb 0.35191 0.2577 0.42837 0.0
Eu2 Eu 0.31087 0.1594 0.36619 0.0
C3 C 0.28434 0.30086 0.46944 0.0
O4 O 0.28641 0.26892 0.49053 0.0
C5 C 0.31351 0.17797 0.44969 0.0
O6 O 0.34564 0.10209 0.35885 0.0
C7 C 0.25086 0.16669 0.32164 0.0
C8 C 0.37687 0.09692 0.38025 0.0
O9 O 0.38469 0.12434 0.40517 0.0
C10 C 0.37988 0.22936 0.35196 0.0
C11 C 0.23044 0.16903 0.28545 0.0
C12 C 0.18886 0.175 0.28591 0.0
C13 C 0.16681 0.17471 0.25287 0.0
C14 C 0.18708 0.16788 0.21928 0.0
C15 C 0.22857 0.16255 0.218 0.0
C16 C 0.25046 0.16335 0.25127 0.0
O17 O 0.3455 0.19413 0.43542 0.0
O18 O 0.29082 0.15852 0.42659 0.0
O19 O 0.3765 0.27115 0.48229 0.0
O20 O 0.41409 0.27656 0.43458 0.0
C21 C 0.41209 0.27987 0.47065 0.0
O22 O 0.36853 0.19153 0.35 0.0
O23 O 0.35782 0.25696 0.36826 0.0
O24 O 0.26502 0.13193 0.33249 0.0
O25 O 0.27075 0.19772 0.33422 0.0
H26 H 0.17369 0.17999 0.3122 0.0
H27 H 0.17048 0.16677 0.19361 0.0
H28 H 0.28245 0.15881 0.25062 0.0
O29 O 0.32953 0.64688 0.63278 0.0
Tb30 Tb 0.27178 0.62313 0.64945 0.0
Eu31 Eu 0.17266 0.64966 0.69265 0.0
C32 C 0.33528 0.68524 0.62675 0.0
O33 O 0.30708 0.711 0.63515 0.0
C34 C 0.20437 0.66809 0.61004 0.0
O35 O 0.11474 0.61749 0.70049 0.0
C36 C 0.1782 0.71467 0.73171 0.0
C37 C 0.10928 0.58676 0.67849 0.0
O38 O 0.13703 0.57833 0.65373 0.0
C39 C 0.24013 0.58921 0.7215 0.0
C40 C 0.1788 0.73359 0.76891 0.0
C41 C 0.17983 0.77563 0.77049 0.0
C42 C 0.17935 0.79591 0.80472 0.0
C43 C 0.17774 0.77322 0.83748 0.0
C44 C 0.17599 0.7314 0.8367 0.0
C45 C 0.17693 0.71137 0.80226 0.0
O46 O 0.23901 0.67301 0.62594 0.0
O47 O 0.17343 0.65647 0.62992 0.0
O48 O 0.29478 0.56602 0.6294 0.0
O49 O 0.23419 0.58062 0.61925 0.0
C50 C 0.26188 0.55371 0.61449 0.0
O51 O 0.20183 0.59489 0.71637 0.0
O52 O 0.26596 0.61546 0.70892 0.0
O53 O 0.14406 0.69999 0.7203 0.0
O54 O 0.20957 0.69382 0.72072 0.0
H55 H 0.18043 0.79254 0.74482 0.0
H56 H 0.1785 0.78805 0.8642 0.0
H57 H 0.1756 0.67905 0.8014 0.0
O58 O 0.65429 0.6559 0.43048 0.0
Tb59 Tb 0.62769 0.7106 0.40878 0.0
Eu60 Eu 0.64217 0.81031 0.36104 0.0
C61 C 0.69221 0.65282 0.43935 0.0
O62 O 0.71699 0.68157 0.43026 0.0
C63 C 0.66779 0.78353 0.44178 0.0
O64 O 0.60354 0.86497 0.35404 0.0
C65 C 0.70831 0.81058 0.32262 0.0
C66 C 0.56813 0.86375 0.37007 0.0
O67 O 0.55852 0.83166 0.38918 0.0
C68 C 0.5882 0.73429 0.33477 0.0
C69 C 0.72985 0.80738 0.28655 0.0
C70 C 0.77178 0.80378 0.28721 0.0
C71 C 0.79444 0.80221 0.25407 0.0
C72 C 0.7741 0.80407 0.22018 0.0
C73 C 0.73258 0.80856 0.21876 0.0
C74 C 0.71023 0.80978 0.25208 0.0
O75 O 0.67598 0.75017 0.42421 0.0
O76 O 0.65054 0.81262 0.42335 0.0
O77 O 0.57157 0.68802 0.4312 0.0
O78 O 0.5876 0.74811 0.44234 0.0
C79 C 0.56078 0.72071 0.44779 0.0
O80 O 0.59217 0.77329 0.3377 0.0
O81 O 0.61377 0.70921 0.34991 0.0
O82 O 0.68684 0.84287 0.32896 0.0
O83 O 0.69319 0.77795 0.33761 0.0
H84 H 0.78674 0.80308 0.31374 0.0
H85 H 0.79052 0.80161 0.19424 0.0
H86 H 0.67814 0.8133 0.25122 0.0
O87 O 0.65512 0.35921 0.64741 0.0
Tb88 Tb 0.71514 0.37179 0.66505 0.0
Eu89 Eu 0.81187 0.33848 0.70427 0.0
C90 C 0.64173 0.32274 0.64307 0.0
O91 O 0.66335 0.29227 0.65409 0.0
C92 C 0.77484 0.31879 0.624 0.0
O93 O 0.86967 0.3718 0.70604 0.0
C94 C 0.81022 0.27323 0.74329 0.0
C95 C 0.86961 0.40673 0.68936 0.0
O96 O 0.83701 0.4182 0.67235 0.0
C97 C 0.74689 0.39782 0.73928 0.0
C98 C 0.81007 0.25186 0.77937 0.0
C99 C 0.80716 0.21001 0.77818 0.0
C100 C 0.8082 0.18703 0.81079 0.0
C101 C 0.8128 0.20655 0.84487 0.0
C102 C 0.81532 0.24835 0.84709 0.0
C103 C 0.81361 0.27123 0.81406 0.0
O104 O 0.74058 0.31778 0.64173 0.0
O105 O 0.80726 0.3299 0.64163 0.0
O106 O 0.70199 0.43361 0.65044 0.0
O107 O 0.75534 0.40733 0.62977 0.0
C108 C 0.73336 0.43947 0.6298 0.0
O109 O 0.78504 0.39185 0.73325 0.0
O110 O 0.72091 0.37346 0.72463 0.0
O111 O 0.84354 0.29031 0.73208 0.0
O112 O 0.77763 0.29203 0.73269 0.0
H113 H 0.80359 0.19531 0.75161 0.0
H114 H 0.81418 0.18904 0.87018 0.0
H115 H 0.81564 0.30349 0.81529 0.0
O116 O 0.81702 0.15666 0.12914 0.0
Tb117 Tb 0.84157 0.212 0.1503 0.0
Eu118 Eu 0.81937 0.31448 0.20515 0.0
C119 C 0.77935 0.15308 0.11991 0.0
O120 O 0.75434 0.18239 0.12684 0.0
C121 C 0.80039 0.28778 0.12348 0.0
O122 O 0.85668 0.36956 0.21234 0.0
C123 C 0.75423 0.31223 0.24483 0.0
C124 C 0.89113 0.36953 0.19462 0.0
O125 O 0.9003 0.33836 0.17408 0.0
C126 C 0.87533 0.23772 0.22576 0.0
C127 C 0.73506 0.30462 0.28144 0.0
C128 C 0.69373 0.29718 0.28221 0.0
C129 C 0.67322 0.29039 0.31593 0.0
C130 C 0.69524 0.29042 0.34898 0.0
C131 C 0.73614 0.29899 0.34906 0.0
C132 C 0.7562 0.30615 0.31514 0.0
O133 O 0.79367 0.25442 0.14156 0.0
O134 O 0.81112 0.31909 0.14283 0.0
O135 O 0.90396 0.19738 0.13906 0.0
O136 O 0.87799 0.24637 0.11078 0.0
C137 C 0.91036 0.22547 0.11488 0.0
O138 O 0.87012 0.27674 0.22655 0.0
O139 O 0.84913 0.21393 0.21014 0.0
O140 O 0.7762 0.34454 0.24099 0.0
O141 O 0.76782 0.28131 0.22592 0.0
H142 H 0.67745 0.29772 0.25637 0.0
H143 H 0.68053 0.28416 0.37525 0.0
H144 H 0.78778 0.31288 0.315 0.0
O145 O 0.14623 0.15095 0.93358 0.0
Tb146 Tb 0.20328 0.12579 0.91656 0.0
Eu147 Eu 0.31106 0.14914 0.86392 0.0
C148 C 0.14245 0.18881 0.94269 0.0
O149 O 0.17238 0.21329 0.93692 0.0
C150 C 0.27813 0.16851 0.94333 0.0
O151 O 0.36872 0.11693 0.85295 0.0
C152 C 0.30022 0.21293 0.82424 0.0
C153 C 0.37602 0.08667 0.8752 0.0
O154 O 0.34978 0.07844 0.90141 0.0
C155 C 0.23889 0.08726 0.84695 0.0
C156 C 0.29821 0.23377 0.78811 0.0
C157 C 0.30205 0.27555 0.7885 0.0
C158 C 0.30009 0.29793 0.75561 0.0
C159 C 0.29484 0.27758 0.72202 0.0
C160 C 0.29017 0.23576 0.7206 0.0
C161 C 0.29219 0.2138 0.75413 0.0
O162 O 0.246 0.17364 0.92334 0.0
O163 O 0.31131 0.15944 0.92584 0.0
O164 O 0.19224 0.06256 0.92772 0.0
O165 O 0.23384 0.09368 0.96093 0.0
C166 C 0.2168 0.05946 0.9553 0.0
O167 O 0.27768 0.09349 0.84745 0.0
O168 O 0.21343 0.11504 0.8577 0.0
O169 O 0.33546 0.20146 0.83605 0.0
O170 O 0.27083 0.18907 0.83427 0.0
H171 H 0.30665 0.29065 0.81472 0.0
H172 H 0.29386 0.29474 0.6966 0.0
H173 H 0.28865 0.18165 0.754 0.0
O174 O 0.16038 0.81831 0.13593 0.0
Tb175 Tb 0.1356 0.75888 0.14243 0.0
Eu176 Eu 0.14702 0.66315 0.19106 0.0
C177 C 0.1971 0.82303 0.12361 0.0
O178 O 0.22078 0.79183 0.12165 0.0
C179 C 0.17622 0.68621 0.11148 0.0
O180 O 0.11154 0.60767 0.203 0.0
C181 C 0.21145 0.67086 0.23022 0.0
C182 C 0.07899 0.60359 0.18326 0.0
O183 O 0.07093 0.63107 0.15831 0.0
C184 C 0.08489 0.7366 0.21161 0.0
C185 C 0.23239 0.67495 0.26616 0.0
C186 C 0.27409 0.68065 0.2653 0.0
C187 C 0.29624 0.68236 0.29833 0.0
C188 C 0.27598 0.67768 0.33228 0.0
C189 C 0.23454 0.67247 0.33389 0.0
C190 C 0.21255 0.67129 0.30071 0.0
O191 O 0.18434 0.71863 0.1302 0.0
O192 O 0.15771 0.65753 0.12928 0.0
O193 O 0.10776 0.77698 0.09059 0.0
O194 O 0.08183 0.72953 0.12147 0.0
C195 C 0.07886 0.75129 0.09165 0.0
O196 O 0.09226 0.69797 0.20888 0.0
O197 O 0.109 0.76398 0.19765 0.0
O198 O 0.19525 0.63612 0.22242 0.0
O199 O 0.19167 0.70167 0.21675 0.0
H200 H 0.28924 0.68387 0.23877 0.0
H201 H 0.29258 0.67787 0.35798 0.0
H202 H 0.18058 0.66681 0.30174 0.0
O203 O 0.82915 0.83996 0.93224 0.0
Tb204 Tb 0.77378 0.85999 0.90763 0.0
Eu205 Eu 0.67924 0.84259 0.86162 0.0
C206 C 0.84218 0.80295 0.93027 0.0
O207 O 0.82293 0.77677 0.91011 0.0
C208 C 0.70507 0.81453 0.94283 0.0
O209 O 0.62329 0.87877 0.85488 0.0
C210 C 0.68025 0.77783 0.82218 0.0
C211 C 0.62276 0.91475 0.86945 0.0
O212 O 0.65435 0.92705 0.88744 0.0
C213 C 0.75368 0.89482 0.83221 0.0
C214 C 0.68401 0.75664 0.78628 0.0
C215 C 0.69179 0.71546 0.78786 0.0
C216 C 0.69205 0.69196 0.75561 0.0
C217 C 0.68467 0.71045 0.72138 0.0
C218 C 0.67783 0.75172 0.71882 0.0
C219 C 0.67754 0.77506 0.7515 0.0
O220 O 0.74001 0.80881 0.92703 0.0
O221 O 0.67662 0.83224 0.9239 0.0
O222 O 0.7908 0.91896 0.92725 0.0
O223 O 0.73134 0.89932 0.9365 0.0
C224 C 0.75638 0.92839 0.94148 0.0
O225 O 0.71486 0.89312 0.83707 0.0
O226 O 0.77718 0.86849 0.84811 0.0
O227 O 0.64766 0.79869 0.82872 0.0
O228 O 0.71249 0.79245 0.83777 0.0
H229 H 0.6974 0.70166 0.81455 0.0
H230 H 0.684 0.69263 0.69629 0.0
H231 H 0.67154 0.80682 0.74995 0.0
C232 C 0.23395 0.12654 0.15771 0.0
C233 C 0.24754 0.15708 0.18097 0.0
C234 C 0.2431 0.12642 0.11962 0.0
C235 C 0.26621 0.15781 0.10426 0.0
C236 C 0.28215 0.18734 0.12809 0.0
C237 C 0.27268 0.18656 0.16627 0.0
C238 C 0.22568 0.09415 0.0955 0.0
C239 C 0.3068 0.22136 0.1129 0.0
C240 C 0.30545 0.14688 1.00498 0.0
C241 C 0.27598 0.16689 0.98459 0.0
C242 C 0.30285 0.14379 0.04391 0.0
C243 C 0.27037 0.16168 0.06304 0.0
C244 C 0.24086 0.18238 0.0426 0.0
C245 C 0.24399 0.18457 1.00373 0.0
C246 C 0.33443 0.12073 0.06452 0.0
C247 C 0.20567 0.20194 0.06175 0.0
H248 H 0.21425 0.10388 0.16904 0.0
H249 H 0.28267 0.21052 0.18411 0.0
H250 H 0.20062 0.10666 0.07926 0.0
H251 H 0.24829 0.08302 0.07546 0.0
H252 H 0.21431 0.06856 0.11213 0.0
H253 H 0.32049 0.23936 0.1353 0.0
H254 H 0.3308 0.2099 0.09439 0.0
H255 H 0.28761 0.24125 0.09602 0.0
H256 H 0.33016 0.13283 0.99044 0.0
H257 H 0.22142 0.20043 0.98835 0.0
H258 H 0.32054 0.09549 0.07981 0.0
H259 H 0.34872 0.14024 0.08538 0.0
H260 H 0.35787 0.10867 0.04565 0.0
H261 H 0.1875 0.17899 0.07625 0.0
H262 H 0.18619 0.21824 0.04204 0.0
H263 H 0.21621 0.22325 0.08307 0.0
C264 C 0.1902 0.72087 0.05084 0.0
C265 C 0.17813 0.6864 0.07006 0.0
C266 C 0.18963 0.72273 1.01185 0.0
C267 C 0.17684 0.68918 0.99119 0.0
C268 C 0.1653 0.65398 1.01032 0.0
C269 C 0.16603 0.65302 0.04945 0.0
C270 C 0.20191 0.76107 0.99282 0.0
C271 C 0.1513 0.61765 0.98946 0.0
C272 C 0.13896 0.71665 0.89521 0.0
C273 C 0.1729 0.71042 0.87297 0.0
C274 C 0.13897 0.70741 0.93328 0.0
C275 C 0.17401 0.69195 0.94974 0.0
C276 C 0.20753 0.68317 0.92684 0.0
C277 C 0.20659 0.69257 0.88867 0.0
C278 C 0.10251 0.71732 0.95635 0.0
C279 C 0.24543 0.6666 0.94309 0.0
H280 H 0.1994 0.74691 0.06625 0.0
H281 H 0.15656 0.62622 0.06391 0.0
H282 H 0.22595 0.75506 0.97223 0.0
H283 H 0.17624 0.77371 0.9775 0.0
H284 H 0.21261 0.7839 1.01274 0.0
H285 H 0.14539 0.59189 1.00817 0.0
H286 H 0.12351 0.62489 0.97434 0.0
H287 H 0.17394 0.60866 0.96844 0.0
H288 H 0.11313 0.73113 0.8832 0.0
H289 H 0.23312 0.68853 0.87168 0.0
H290 H 0.10865 0.74427 0.97318 0.0
H291 H 0.09529 0.69265 0.97584 0.0
H292 H 0.07601 0.72344 0.93891 0.0
H293 H 0.25999 0.68997 0.96004 0.0
H294 H 0.2668 0.65666 0.92125 0.0
H295 H 0.23878 0.64103 0.96173 0.0
C296 C 0.7328 0.79348 1.00435 0.0
C297 C 0.70117 0.80963 0.98388 0.0
C298 C 0.73193 0.79299 0.04338 0.0
C299 C 0.69856 0.80897 0.06273 0.0
C300 C 0.66589 0.82403 0.04227 0.0
C301 C 0.66757 0.82419 1.00315 0.0
C302 C 0.76752 0.77668 0.06391 0.0
C303 C 0.62984 0.84147 0.06169 0.0
C304 C 0.69422 0.78057 0.16539 0.0
C305 C 0.71435 0.8127 0.1815 0.0
C306 C 0.68657 0.77993 0.12695 0.0
C307 C 0.69946 0.81215 0.10421 0.0
C308 C 0.71729 0.84588 0.12098 0.0
C309 C 0.72471 0.8456 0.15931 0.0
C310 C 0.66723 0.74356 0.11034 0.0
C311 C 0.73122 0.8811 0.09807 0.0
H312 H 0.75893 0.78214 0.9899 0.0
H313 H 0.64301 0.83691 0.98774 0.0
H314 H 0.78177 0.80097 0.07995 0.0
H315 H 0.75789 0.75346 0.08405 0.0
H316 H 0.79022 0.7635 0.04489 0.0
H317 H 0.60517 0.84779 0.04214 0.0
H318 H 0.61883 0.82081 0.08358 0.0
H319 H 0.63821 0.86979 0.07552 0.0
H320 H 0.68683 0.75484 0.18238 0.0
H321 H 0.74074 0.87023 0.17171 0.0
H322 H 0.68982 0.72633 0.09433 0.0
H323 H 0.64344 0.75247 0.09076 0.0
H324 H 0.65416 0.72369 0.13194 0.0
H325 H 0.75721 0.87207 0.08073 0.0
H326 H 0.74017 0.90675 0.11563 0.0
H327 H 0.70742 0.89113 0.07898 0.0
C328 C 0.84838 0.2523 0.90888 0.0
C329 C 0.81875 0.26632 0.88479 0.0
C330 C 0.8468 0.26034 0.94714 0.0
C331 C 0.81469 0.28296 0.96199 0.0
C332 C 0.7861 0.29943 0.93743 0.0
C333 C 0.7885 0.29095 0.89909 0.0
C334 C 0.87806 0.24219 0.97195 0.0
C335 C 0.75144 0.32374 0.95196 0.0
C336 C 0.78496 0.25714 0.06164 0.0
C337 C 0.80228 0.28815 0.08203 0.0
C338 C 0.78802 0.25567 1.02269 0.0
C339 C 0.80916 0.28593 1.0033 0.0
C340 C 0.82639 0.31763 1.02365 0.0
C341 C 0.82257 0.31849 0.06268 0.0
C342 C 0.76915 0.2212 1.00237 0.0
C343 C 0.84989 0.35002 1.00428 0.0
H344 H 0.87176 0.23309 0.89797 0.0
H345 H 0.76524 0.30138 0.88073 0.0
H346 H 0.8885 0.26437 0.99245 0.0
H347 H 0.8649 0.21688 0.98771 0.0
H348 H 0.90415 0.23087 0.95591 0.0
H349 H 0.73439 0.3381 0.92924 0.0
H350 H 0.73097 0.30407 0.96795 0.0
H351 H 0.76203 0.34725 0.97116 0.0
H352 H 0.76893 0.2338 0.07612 0.0
H353 H 0.83637 0.34246 0.07811 0.0
H354 H 0.79257 0.20333 0.98812 0.0
H355 H 0.7487 0.23259 0.98072 0.0
H356 H 0.75214 0.20113 1.02127 0.0
H357 H 0.87702 0.33691 0.99131 0.0
H358 H 0.85912 0.37402 1.02363 0.0
H359 H 0.83201 0.36349 0.98171 0.0
C360 C 0.75896 0.33899 0.40324 0.0
C361 C 0.75604 0.30184 0.38562 0.0
C362 C 0.7672 0.34165 0.44145 0.0
C363 C 0.77271 0.30624 0.46252 0.0
C364 C 0.77233 0.2688 0.44418 0.0
C365 C 0.7636 0.26704 0.40606 0.0
C366 C 0.76702 0.38219 0.45975 0.0
C367 C 0.7784 0.23034 0.46529 0.0
C368 C 0.81087 0.31484 0.56215 0.0
C369 C 0.77526 0.31303 0.58289 0.0
C370 C 0.8107 0.31219 0.52304 0.0
C371 C 0.77406 0.30805 0.5041 0.0
C372 C 0.73811 0.30587 0.52495 0.0
C373 C 0.73918 0.30817 0.56388 0.0
C374 C 0.84969 0.31428 0.50195 0.0
C375 C 0.69824 0.30177 0.50612 0.0
H376 H 0.75219 0.36585 0.38764 0.0
H377 H 0.76055 0.23828 0.39259 0.0
H378 H 0.74003 0.38518 0.47758 0.0
H379 H 0.79331 0.38559 0.47793 0.0
H380 H 0.76701 0.40689 0.43912 0.0
H381 H 0.78266 0.20442 0.44644 0.0
H382 H 0.80467 0.23263 0.48367 0.0
H383 H 0.75198 0.22453 0.48322 0.0
H384 H 0.8389 0.31872 0.57643 0.0
H385 H 0.71138 0.30695 0.57938 0.0
H386 H 0.84984 0.34088 0.48355 0.0
H387 H 0.85314 0.28763 0.48393 0.0
H388 H 0.87574 0.31602 0.52071 0.0
H389 H 0.69339 0.32739 0.48711 0.0
H390 H 0.673 0.30055 0.52628 0.0
H391 H 0.69782 0.27422 0.48906 0.0
C392 C 0.26343 0.23735 0.65562 0.0
C393 C 0.28404 0.21648 0.68347 0.0
C394 C 0.26552 0.22561 0.61835 0.0
C395 C 0.28606 0.19017 0.60861 0.0
C396 C 0.3024 0.16601 0.63712 0.0
C397 C 0.30207 0.17989 0.67412 0.0
C398 C 0.24896 0.25332 0.58916 0.0
C399 C 0.32236 0.1267 0.62833 0.0
C400 C 0.27179 0.16249 0.50672 0.0
C401 C 0.30688 0.17762 0.49062 0.0
C402 C 0.26569 0.1636 0.54553 0.0
C403 C 0.29462 0.18171 0.56854 0.0
C404 C 0.33067 0.19557 0.55241 0.0
C405 C 0.33673 0.19218 0.51399 0.0
C406 C 0.22794 0.14618 0.56177 0.0
C407 C 0.36211 0.21616 0.57526 0.0
H408 H 0.24741 0.26449 0.66257 0.0
H409 H 0.31762 0.16297 0.6952 0.0
H410 H 0.22966 0.23691 0.56963 0.0
H411 H 0.23147 0.2783 0.60142 0.0
H412 H 0.27405 0.26614 0.5728 0.0
H413 H 0.32463 0.10746 0.65337 0.0
H414 H 0.30574 0.11036 0.6066 0.0
H415 H 0.35293 0.13219 0.61757 0.0
H416 H 0.24899 0.15004 0.48905 0.0
H417 H 0.3649 0.2016 0.50216 0.0
H418 H 0.20704 0.17058 0.56937 0.0
H419 H 0.23449 0.12908 0.58744 0.0
H420 H 0.21277 0.12618 0.5418 0.0
H421 H 0.36921 0.19862 0.60044 0.0
H422 H 0.35059 0.24565 0.58454 0.0
H423 H 0.39017 0.22096 0.55932 0.0
C424 C 0.19688 0.70127 0.38771 0.0
C425 C 0.21589 0.66844 0.3712 0.0
C426 C 0.18926 0.7021 0.42624 0.0
C427 C 0.20097 0.66931 0.44867 0.0
C428 C 0.21768 0.63498 0.43153 0.0
C429 C 0.22518 0.6351 0.39308 0.0
C430 C 0.17137 0.73926 0.44325 0.0
C431 C 0.23032 0.59917 0.45414 0.0
C432 C 0.23413 0.68647 0.54824 0.0
C433 C 0.20148 0.6722 0.56894 0.0
C434 C 0.23376 0.68679 0.50923 0.0
C435 C 0.19994 0.67235 0.49014 0.0
C436 C 0.16641 0.65896 0.51083 0.0
C437 C 0.16754 0.6591 0.54994 0.0
C438 C 0.2702 0.7015 0.48844 0.0
C439 C 0.12988 0.64316 0.49166 0.0
H440 H 0.19047 0.72737 0.37093 0.0
H441 H 0.24048 0.60998 0.38037 0.0
H442 H 0.14725 0.73138 0.46319 0.0
H443 H 0.19464 0.7554 0.45895 0.0
H444 H 0.15912 0.75977 0.42191 0.0
H445 H 0.23847 0.57327 0.43636 0.0
H446 H 0.25652 0.60712 0.47118 0.0
H447 H 0.2061 0.59 0.47347 0.0
H448 H 0.26052 0.69671 0.56251 0.0
H449 H 0.14223 0.64778 0.56558 0.0
H450 H 0.26169 0.72511 0.46836 0.0
H451 H 0.28364 0.6766 0.47232 0.0
H452 H 0.29321 0.71368 0.5073 0.0
H453 H 0.11931 0.66487 0.47062 0.0
H454 H 0.10512 0.63688 0.51148 0.0
H455 H 0.13751 0.61513 0.47679 0.0
C456 C 0.63923 0.7551 0.66 0.0
C457 C 0.67133 0.76875 0.68119 0.0
C458 C 0.63756 0.76213 0.62155 0.0
C459 C 0.66911 0.78282 0.6036 0.0
C460 C 0.70051 0.79859 0.62527 0.0
C461 C 0.70119 0.79144 0.66385 0.0
C462 C 0.60329 0.74501 0.59983 0.0
C463 C 0.73477 0.82072 0.60735 0.0
C464 C 0.68873 0.75376 0.50271 0.0
C465 C 0.67064 0.78511 0.48309 0.0
C466 C 0.68911 0.75312 0.54175 0.0
C467 C 0.67093 0.78465 0.56202 0.0
C468 C 0.6532 0.81676 0.54244 0.0
C469 C 0.65334 0.81666 0.5033 0.0
C470 C 0.70827 0.71813 0.5613 0.0
C471 C 0.63302 0.85065 0.56285 0.0
H472 H 0.61639 0.73707 0.67329 0.0
H473 H 0.72642 0.80131 0.68003 0.0
H474 H 0.59185 0.76718 0.57964 0.0
H475 H 0.61383 0.71871 0.5838 0.0
H476 H 0.57834 0.7354 0.61822 0.0
H477 H 0.75456 0.83467 0.6282 0.0
H478 H 0.75274 0.79964 0.59031 0.0
H479 H 0.7235 0.84431 0.58848 0.0
H480 H 0.70225 0.72927 0.48758 0.0
H481 H 0.63903 0.84094 0.48856 0.0
H482 H 0.68543 0.70164 0.57761 0.0
H483 H 0.73101 0.72889 0.58108 0.0
H484 H 0.72273 0.69696 0.54161 0.0
H485 H 0.60669 0.83914 0.57831 0.0
H486 H 0.623 0.87468 0.54377 0.0
H487 H 0.65355 0.86369 0.58352 0.0
C488 C 0.40071 0.03572 0.34605 0.0
C489 C 0.40394 0.06205 0.37612 0.0
C490 C 0.42726 0.00335 0.34187 0.0
C491 C 0.45746 -0.00296 0.36856 0.0
C492 C 0.46075 0.02355 0.39893 0.0
C493 C 0.43413 0.05571 0.40224 0.0
C494 C 0.42297 0.97584 0.30902 0.0
C495 C 0.49219 0.0177 0.42824 0.0
C496 C 0.50159 0.89396 0.38426 0.0
C497 C 0.53936 0.89738 0.36748 0.0
C498 C 0.47423 0.92569 0.38372 0.0
C499 C 0.48474 0.9619 0.3659 0.0
C500 C 0.52238 0.96525 0.34799 0.0
C501 C 0.5493 0.93294 0.34901 0.0
C502 C 0.4345 0.92083 0.40326 0.0
C503 C 0.53462 0.00334 0.32859 0.0
H504 H 0.37765 0.04056 0.32563 0.0
H505 H 0.4369 0.07584 0.4256 0.0
H506 H 0.45139 0.97455 0.29309 0.0
H507 H 0.41641 0.94508 0.31876 0.0
H508 H 0.39882 0.98554 0.29009 0.0
H509 H 0.49121 0.04139 0.4498 0.0
H510 H 0.48803 0.98833 0.44202 0.0
H511 H 0.52228 0.01758 0.41524 0.0
H512 H 0.49344 0.86654 0.39841 0.0
H513 H 0.57831 0.93577 0.33582 0.0
H514 H 0.40982 0.92828 0.38414 0.0
H515 H 0.43254 0.94185 0.42699 0.0
H516 H 0.42994 0.89 0.41389 0.0
H517 H 0.5115 0.01248 0.30842 0.0
H518 H 0.56358 0.00022 0.31369 0.0
H519 H 0.53724 0.02776 0.34921 0.0
C520 C 0.94006 0.42144 0.70728 0.0
C521 C 0.9046 0.43342 0.6902 0.0
C522 C 0.97342 0.4467 0.70759 0.0
C523 C 0.97111 0.4847 0.69042 0.0
C524 C 0.93516 0.49718 0.67372 0.0
C525 C 0.90237 0.47139 0.6738 0.0
C526 C 0.01134 0.43248 0.72568 0.0
C527 C 0.93156 0.53747 0.65509 0.0
C528 C 0.04749 0.56475 0.71215 0.0
C529 C 0.07365 0.56116 0.68179 0.0
C530 C 0.0142 0.53963 0.71569 0.0
C531 C 0.00685 0.51063 0.68802 0.0
C532 C 0.0331 0.50704 0.65727 0.0
C533 C 0.06625 0.53223 0.65462 0.0
C534 C 0.98689 0.54409 0.74896 0.0
C535 C 0.02599 0.47678 0.62697 0.0
H536 H 0.9419 0.39221 0.72012 0.0
H537 H 0.87498 0.481 0.66073 0.0
H538 H 0.03541 0.42995 0.70451 0.0
H539 H 0.02128 0.45451 0.7466 0.0
H540 H 0.00763 0.403 0.73948 0.0
H541 H 0.90096 0.54332 0.6448 0.0
H542 H 0.93967 0.56154 0.67473 0.0
H543 H 0.95266 0.5392 0.63126 0.0
H544 H 0.05322 0.58692 0.73333 0.0
H545 H 0.0863 0.52935 0.63101 0.0
H546 H 0.98479 0.5153 0.76414 0.0
H547 H 0.95638 0.55193 0.73973 0.0
H548 H -0.00271 0.56747 0.76844 0.0
H549 H 0.02488 0.44626 0.63895 0.0
H550 H 0.04953 0.47755 0.60511 0.0
H551 H -0.00325 0.48254 0.61379 0.0
C552 C 0.9548 0.40269 0.1762 0.0
C553 C 0.91925 0.40346 0.197 0.0
C554 C 0.98146 0.43483 0.17682 0.0
C555 C 0.97252 0.46862 0.19893 0.0
C556 C 0.93722 0.46922 0.2208 0.0
C557 C 0.91089 0.43662 0.2195 0.0
C558 C 0.01864 0.43309 0.15289 0.0
C559 C 0.92684 0.50467 0.24486 0.0
C560 C 0.05817 0.54056 0.21601 0.0
C561 C 0.05146 0.56949 0.18857 0.0
C562 C 0.03209 0.50802 0.22049 0.0
C563 C -0.00123 0.50433 0.19683 0.0
C564 C -0.00839 0.53379 0.16949 0.0
C565 C 0.01794 0.56599 0.16577 0.0
C566 C 0.04052 0.47725 0.25008 0.0
C567 C 0.9566 0.53086 0.14353 0.0
H568 H 0.96164 0.37713 0.15883 0.0
H569 H 0.88361 0.43731 0.23582 0.0
H570 H 0.01745 0.45683 0.13141 0.0
H571 H 0.04542 0.43869 0.16995 0.0
H572 H 0.02226 0.4038 0.13879 0.0
H573 H 0.89988 0.49929 0.26226 0.0
H574 H 0.95213 0.51198 0.26327 0.0
H575 H 0.92138 0.53121 0.22712 0.0
H576 H 0.08387 0.5432 0.23386 0.0
H577 H 0.01238 0.58825 0.14456 0.0
H578 H 0.04701 0.44798 0.23694 0.0
H579 H 0.0139 0.47321 0.26817 0.0
H580 H 0.06623 0.48566 0.26764 0.0
H581 H 0.9594 0.50348 0.12638 0.0
H582 H 0.9544 0.55706 0.12469 0.0
H583 H 0.9284 0.52841 0.15966 0.0
C584 C 0.42076 0.03269 0.89815 0.0
C585 C 0.41253 0.06206 0.87147 0.0
C586 C 0.45512 0.00898 0.89564 0.0
C587 C 0.4819 0.01453 0.86554 0.0
C588 C 0.47366 0.04384 0.83824 0.0
C589 C 0.43907 0.06742 0.8416 0.0
C590 C 0.46298 0.97826 0.92548 0.0
C591 C 0.50147 0.0504 0.80567 0.0
C592 C 0.58752 0.97899 0.88276 0.0
C593 C 0.58735 0.94099 0.86639 0.0
C594 C 0.55381 0.00376 0.88159 0.0
C595 C 0.51905 -0.00972 0.86355 0.0
C596 C 0.51901 0.95243 0.84605 0.0
C597 C 0.55318 0.92817 0.84772 0.0
C598 C 0.55501 0.04386 0.90071 0.0
C599 C 0.4825 0.93712 0.82646 0.0
H600 H 0.40046 0.02834 0.92136 0.0
H601 H 0.43278 0.08995 0.82081 0.0
H602 H 0.46598 0.94816 0.91293 0.0
H603 H 0.49151 0.98502 0.93949 0.0
H604 H 0.43886 0.97731 0.94679 0.0
H605 H 0.4902 0.07354 0.78625 0.0
H606 H 0.53121 0.05972 0.8157 0.0
H607 H 0.50569 0.02206 0.79018 0.0
H608 H 0.61387 -0.01075 0.89708 0.0
H609 H 0.55289 0.89895 0.83483 0.0
H610 H 0.53346 0.04416 0.92424 0.0
H611 H 0.54597 0.06786 0.88124 0.0
H612 H 0.58509 0.05095 0.91153 0.0
H613 H 0.458 0.93253 0.84689 0.0
H614 H 0.48824 0.90843 0.81189 0.0
H615 H 0.47196 0.95944 0.80595 0.0
C616 C 0.43205 0.27561 0.32599 0.0
C617 C 0.42182 0.23889 0.34212 0.0
C618 C 0.47211 0.28497 0.31776 0.0
C619 C 0.50275 0.25765 0.32735 0.0
C620 C 0.4924 0.22057 0.34377 0.0
C621 C 0.4521 0.21139 0.35031 0.0
C622 C 0.48169 0.32424 0.29915 0.0
C623 C 0.52398 0.19114 0.35578 0.0
C624 C 0.60905 0.26355 0.2888 0.0
C625 C 0.62891 0.28405 0.31722 0.0
C626 C 0.56771 0.25625 0.29088 0.0
C627 C 0.54571 0.26868 0.32258 0.0
C628 C 0.56534 0.29001 0.35092 0.0
C629 C 0.60628 0.29801 0.34761 0.0
C630 C 0.54772 0.23457 0.25944 0.0
C631 C 0.54343 0.30294 0.38564 0.0
H632 H 0.40867 0.29685 0.3195 0.0
H633 H 0.44436 0.18315 0.36324 0.0
H634 H 0.49824 0.34369 0.31852 0.0
H635 H 0.5012 0.31918 0.27456 0.0
H636 H 0.45442 0.34033 0.29015 0.0
H637 H 0.51098 0.1634 0.36771 0.0
H638 H 0.54333 0.18293 0.33188 0.0
H639 H 0.54331 0.20512 0.37695 0.0
H640 H 0.62587 0.25232 0.26523 0.0
H641 H 0.62059 0.31505 0.36924 0.0
H642 H 0.52059 0.251 0.25069 0.0
H643 H 0.53812 0.20453 0.26888 0.0
H644 H 0.56781 0.23095 0.235 0.0
H645 H 0.51699 0.32125 0.37855 0.0
H646 H 0.56258 0.32042 0.40463 0.0
H647 H 0.53253 0.27605 0.40054 0.0
C648 C 0.31821 0.36405 0.7264 0.0
C649 C 0.30083 0.34264 0.75598 0.0
C650 C 0.31284 0.40549 0.72284 0.0
C651 C 0.29071 0.42644 0.75021 0.0
C652 C 0.276 0.40567 0.78172 0.0
C653 C 0.28081 0.36402 0.78403 0.0
C654 C 0.32836 0.42622 0.68838 0.0
C655 C 0.25284 0.42701 0.81186 0.0
C656 C 0.29005 0.54052 0.74732 0.0
C657 C 0.25348 0.54806 0.73012 0.0
C658 C 0.30251 0.50107 0.75464 0.0
C659 C 0.27833 0.46862 0.74345 0.0
C660 C 0.24178 0.47625 0.7254 0.0
C661 C 0.22963 0.51575 0.71941 0.0
C662 C 0.34137 0.49406 0.77442 0.0
C663 C 0.2156 0.44266 0.71193 0.0
H664 H 0.33484 0.3482 0.70511 0.0
H665 H 0.26699 0.34808 0.80692 0.0
H666 H 0.30291 0.43437 0.67036 0.0
H667 H 0.34393 0.45428 0.69565 0.0
H668 H 0.3491 0.40698 0.67212 0.0
H669 H 0.24879 0.40809 0.83696 0.0
H670 H 0.26818 0.45498 0.81991 0.0
H671 H 0.22296 0.43536 0.80134 0.0
H672 H 0.3086 0.56544 0.75545 0.0
H673 H 0.20169 0.52129 0.70537 0.0
H674 H 0.36188 0.47639 0.75654 0.0
H675 H 0.33598 0.47639 0.80005 0.0
H676 H 0.3563 0.52244 0.78202 0.0
H677 H 0.23257 0.42344 0.69229 0.0
H678 H 0.18844 0.45373 0.69774 0.0
H679 H 0.20625 0.42363 0.73566 0.0
C680 C 0.53183 0.68512 0.3348 0.0
C681 C 0.54979 0.71944 0.31988 0.0
C682 C 0.49158 0.6762 0.32765 0.0
C683 C 0.46892 0.70187 0.30457 0.0
C684 C 0.48785 0.73486 0.28728 0.0
C685 C 0.52786 0.74339 0.29536 0.0
C686 C 0.47258 0.64102 0.34708 0.0
C687 C 0.46514 0.7628 0.26218 0.0
C688 C 0.36548 0.66937 0.27234 0.0
C689 C 0.34047 0.68869 0.29817 0.0
C690 C 0.4073 0.6734 0.27388 0.0
C691 C 0.42463 0.69713 0.302 0.0
C692 C 0.39952 0.71708 0.3278 0.0
C693 C 0.35797 0.71291 0.32537 0.0
C694 C 0.43298 0.65187 0.24571 0.0
C695 C 0.41655 0.74268 0.3583 0.0
H696 H 0.54833 0.66672 0.35414 0.0
H697 H 0.54152 0.76996 0.28367 0.0
H698 H 0.45231 0.65199 0.36936 0.0
H699 H 0.45438 0.62343 0.32745 0.0
H700 H 0.49511 0.62099 0.35982 0.0
H701 H 0.48521 0.78374 0.24711 0.0
H702 H 0.44772 0.74567 0.24159 0.0
H703 H 0.44367 0.78059 0.27897 0.0
H704 H 0.35244 0.6503 0.25144 0.0
H705 H 0.33907 0.72869 0.34501 0.0
H706 H 0.45279 0.6303 0.26001 0.0
H707 H 0.45243 0.67351 0.23088 0.0
H708 H 0.415 0.63546 0.22498 0.0
H709 H 0.43684 0.72461 0.3758 0.0
H710 H 0.393 0.75582 0.37642 0.0
H711 H 0.43441 0.76734 0.34608 0.0
C712 C 0.72161 0.62885 0.72952 0.0
C713 C 0.69937 0.64803 0.7575 0.0
C714 C 0.72733 0.58736 0.72987 0.0
C715 C 0.71137 0.56441 0.75949 0.0
C716 C 0.68967 0.58353 0.78826 0.0
C717 C 0.68358 0.62503 0.78675 0.0
C718 C 0.75073 0.56822 0.69857 0.0
C719 C 0.67272 0.56011 0.82055 0.0
C720 C 0.69784 0.45418 0.73879 0.0
C721 C 0.7342 0.4383 0.75095 0.0
C722 C 0.68936 0.49506 0.74251 0.0
C723 C 0.71732 0.52035 0.75993 0.0
C724 C 0.75264 0.50387 0.77485 0.0
C725 C 0.76085 0.46311 0.76982 0.0
C726 C 0.65189 0.51164 0.72533 0.0
C727 C 0.78279 0.52965 0.79434 0.0
H728 H 0.73477 0.64632 0.70726 0.0
H729 H 0.66587 0.63934 0.80824 0.0
H730 H 0.78033 0.55867 0.70886 0.0
H731 H 0.73531 0.54119 0.68833 0.0
H732 H 0.75538 0.58899 0.67485 0.0
H733 H 0.65801 0.57964 0.84148 0.0
H734 H 0.6506 0.53819 0.81043 0.0
H735 H 0.69678 0.54295 0.83432 0.0
H736 H 0.67707 0.43523 0.72418 0.0
H737 H 0.78888 0.45093 0.77954 0.0
H738 H 0.66001 0.53107 0.70146 0.0
H739 H 0.63533 0.53037 0.74563 0.0
H740 H 0.6318 0.48771 0.71529 0.0
H741 H 0.79799 0.54919 0.77378 0.0
H742 H 0.80578 0.51154 0.80873 0.0
H743 H 0.76781 0.54931 0.81496 0.0
C744 C 0.93952 0.24615 0.25949 0.0
C745 C 0.91455 0.22198 0.23801 0.0
C746 C 0.97944 0.23567 0.2657 0.0
C747 C -0.0049 0.20034 0.24967 0.0
C748 C 0.96948 0.17458 0.2298 0.0
C749 C 0.92934 0.18548 0.2246 0.0
C750 C 0.00546 0.26373 0.28754 0.0
C751 C 0.98507 0.13688 0.21188 0.0
C752 C 0.10519 0.20399 0.22428 0.0
C753 C 0.12273 0.18152 0.25282 0.0
C754 C 0.06377 0.20941 0.22254 0.0
C755 C 0.03897 0.19274 0.25051 0.0
C756 C 0.05632 0.1704 0.27966 0.0
C757 C 0.09795 0.16491 0.28039 0.0
C758 C 0.04659 0.23332 0.19084 0.0
C759 C 0.03089 0.15237 0.31007 0.0
H760 H 0.92829 0.2742 0.2704 0.0
H761 H 0.91026 0.16647 0.20819 0.0
H762 H 0.02272 0.247 0.30863 0.0
H763 H 0.02721 0.27831 0.26855 0.0
H764 H 0.98782 0.28738 0.30178 0.0
H765 H 0.96065 0.11784 0.20118 0.0
H766 H 0.00509 0.14482 0.18834 0.0
H767 H 0.00287 0.11925 0.23191 0.0
H768 H 0.12395 0.21771 0.20323 0.0
H769 H 0.11102 0.14709 0.30229 0.0
H770 H 0.03227 0.26087 0.20172 0.0
H771 H 0.02319 0.21584 0.17663 0.0
H772 H 0.06961 0.24197 0.17 0.0
H773 H 0.01409 0.17625 0.32476 0.0
H774 H 0.04888 0.13562 0.33067 0.0
H775 H 0.00865 0.13181 0.29794 0.0
C776 C 0.19067 0.03802 0.81995 0.0
C777 C 0.22518 0.04594 0.84025 0.0
C778 C 0.17956 -0.00158 0.81181 0.0
C779 C 0.2029 0.9662 0.8253 0.0
C780 C 0.23692 0.97428 0.84701 0.0
C781 C 0.24791 0.01396 0.85374 0.0
C782 C 0.14349 -0.00895 0.78806 0.0
C783 C 0.26188 0.94098 0.86313 0.0
C784 C 0.16128 0.8612 0.8355 0.0
C785 C 0.1814 0.84056 0.80693 0.0
C786 C 0.16696 0.9023 0.84111 0.0
C787 C 0.19233 0.92388 0.81681 0.0
C788 C 0.21067 0.90392 0.78647 0.0
C789 C 0.20536 0.86251 0.78212 0.0
C790 C 0.14735 0.9222 0.87416 0.0
C791 C 0.23747 0.92597 0.75957 0.0
H792 H 0.17315 0.06277 0.80946 0.0
H793 H 0.27428 0.02002 0.86999 0.0
H794 H 0.1526 0.97504 0.7624 0.0
H795 H 0.12192 0.97166 0.80302 0.0
H796 H 0.1282 0.01923 0.78015 0.0
H797 H 0.28658 0.95236 0.8805 0.0
H798 H 0.24292 0.92107 0.88043 0.0
H799 H 0.27483 0.92258 0.84045 0.0
H800 H 0.14168 0.84501 0.85422 0.0
H801 H 0.2213 0.84716 0.76009 0.0
H802 H 0.12935 0.94817 0.86502 0.0
H803 H 0.17056 0.93371 0.8931 0.0
H804 H 0.12776 0.90147 0.89001 0.0
H805 H 0.22278 0.95379 0.7499 0.0
H806 H 0.24545 0.90749 0.73501 0.0
H807 H 0.26535 0.93471 0.77374 0.0
C808 C 0.85889 0.77543 0.28101 0.0
C809 C 0.83912 0.79835 0.25408 0.0
C810 C 0.90034 0.76857 0.27877 0.0
C811 C 0.92255 0.78395 0.24832 0.0
C812 C 0.90315 0.80836 0.2219 0.0
C813 C 0.8621 0.81594 0.22557 0.0
C814 C 0.92004 0.74338 0.30818 0.0
C815 C 0.92524 0.82467 0.18847 0.0
C816 C 0.03665 0.78388 0.24331 0.0
C817 C 0.04417 0.74836 0.2239 0.0
C818 C -0.00268 0.79509 0.25304 0.0
C819 C 0.96479 0.77108 0.24167 0.0
C820 C 0.97246 0.73533 0.2219 0.0
C821 C 0.01191 0.72415 0.21387 0.0
C822 C -0.00948 0.83275 0.27516 0.0
C823 C 0.93891 0.70949 0.20791 0.0
H824 H 0.84188 0.76152 0.30318 0.0
H825 H 0.84783 0.83501 0.2053 0.0
H826 H 0.92769 0.71366 0.29653 0.0
H827 H 0.94823 0.75745 0.31729 0.0
H828 H 0.90037 0.73892 0.33279 0.0
H829 H 0.90634 0.8447 0.17138 0.0
H830 H 0.95199 0.84146 0.19724 0.0
H831 H 0.9357 0.79956 0.17078 0.0
H832 H 0.06148 0.80266 0.25109 0.0
H833 H 0.01741 0.697 0.19824 0.0
H834 H 0.97102 0.82644 0.2995 0.0
H835 H 0.97501 0.85526 0.25786 0.0
H836 H 0.01889 0.84589 0.28505 0.0
H837 H 0.91975 0.69963 0.2314 0.0
H838 H 0.94994 0.6826 0.19295 0.0
H839 H 0.91988 0.72704 0.18878 0.0
C840 C 0.82299 0.11982 0.78218 0.0
C841 C 0.80385 0.1427 0.80972 0.0
C842 C 0.81919 0.07797 0.78143 0.0
C843 C 0.79589 0.05854 0.80895 0.0
C844 C 0.77673 0.08144 0.83692 0.0
C845 C 0.78068 0.12312 0.83677 0.0
C846 C 0.84001 0.05455 0.75118 0.0
C847 C 0.75157 0.06199 0.86685 0.0
C848 C 0.74678 0.95783 0.79604 0.0
C849 C 0.77013 0.93326 0.81876 0.0
C850 C 0.75651 -0.00187 0.79039 0.0
C851 C 0.79019 0.0144 0.80825 0.0
C852 C 0.8155 0.98904 0.82906 0.0
C853 C 0.80532 0.94862 0.83384 0.0
C854 C 0.72896 0.02393 0.76762 0.0
C855 C 0.85146 0.00524 0.84887 0.0
H856 H 0.84135 0.13457 0.76144 0.0
H857 H 0.76513 0.14049 0.85775 0.0
H858 H 0.86059 0.03236 0.76361 0.0
H859 H 0.81779 0.03767 0.73486 0.0
H860 H 0.85728 0.07406 0.73199 0.0
H861 H 0.74126 0.08366 0.88821 0.0
H862 H 0.72505 0.04788 0.85421 0.0
H863 H 0.76872 0.03802 0.8808 0.0
H864 H 0.71962 0.94605 0.7842 0.0
H865 H 0.82335 0.92993 0.85169 0.0
H866 H 0.74627 0.04284 0.74801 0.0
H867 H 0.71198 0.0442 0.7863 0.0
H868 H 0.70735 0.00587 0.7516 0.0
H869 H 0.86905 0.02504 0.83028 0.0
H870 H 0.87115 0.98101 0.85921 0.0
H871 H 0.84143 0.02342 0.87295 0.0
C872 C 0.2807 0.37565 0.47111 0.0
C873 C 0.2685 0.33864 0.48549 0.0
C874 C 0.27382 0.41122 0.49088 0.0
C875 C 0.25413 0.4098 0.52582 0.0
C876 C 0.23877 0.37296 0.53891 0.0
C877 C 0.2461 0.33788 0.51855 0.0
C878 C 0.29034 0.44989 0.47567 0.0
C879 C 0.21721 0.36987 0.57574 0.0
C880 C 0.28824 0.48719 0.59566 0.0
C881 C 0.25787 0.51588 0.59376 0.0
C882 C 0.2867 0.45212 0.57446 0.0
C883 C 0.25413 0.44568 0.55041 0.0
C884 C 0.22278 0.47411 0.54913 0.0
C885 C 0.22495 0.50888 0.57098 0.0
C886 C 0.32037 0.42227 0.57734 0.0
C887 C 0.1874 0.46813 0.52419 0.0
H888 H 0.29789 0.37668 0.44551 0.0
H889 H 0.2358 0.30955 0.52946 0.0
H890 H 0.26756 0.47391 0.47728 0.0
H891 H 0.31604 0.45939 0.49271 0.0
H892 H 0.30055 0.44692 0.44639 0.0
H893 H 0.19843 0.34263 0.57726 0.0
H894 H 0.23945 0.36827 0.59833 0.0
H895 H 0.19804 0.39636 0.58092 0.0
H896 H 0.31353 0.49234 0.61356 0.0
H897 H 0.20139 0.53104 0.56953 0.0
H898 H 0.33491 0.41831 0.54981 0.0
H899 H 0.3085 0.39276 0.58603 0.0
H900 H 0.34335 0.43161 0.59757 0.0
H901 H 0.1974 0.46789 0.49476 0.0
H902 H 0.16457 0.49194 0.52778 0.0
H903 H 0.17336 0.43877 0.52997 0.0
C904 C 0.52659 0.74917 0.50345 0.0
C905 C 0.52589 0.72393 0.47251 0.0
C906 C 0.49581 0.7479 0.53012 0.0
C907 C 0.46347 0.72133 0.52511 0.0
C908 C 0.46168 0.69761 0.49264 0.0
C909 C 0.49324 0.69881 0.46697 0.0
C910 C 0.49901 0.77332 0.56451 0.0
C911 C 0.42718 0.66975 0.48568 0.0
C912 C 0.40561 0.67595 0.60543 0.0
C913 C 0.3702 0.69813 0.60467 0.0
C914 C 0.43725 0.68488 0.5811 0.0
C915 C 0.43281 0.71597 0.55472 0.0
C916 C 0.39758 0.73931 0.55469 0.0
C917 C 0.36683 0.73038 0.58 0.0
C918 C 0.47475 0.65992 0.58257 0.0
C919 C 0.39139 0.77214 0.52652 0.0
H920 H 0.55214 0.76835 0.50777 0.0
H921 H 0.49273 0.67954 0.4428 0.0
H922 H 0.47036 0.78868 0.57054 0.0
H923 H 0.50574 0.75391 0.58866 0.0
H924 H 0.52289 0.79612 0.56189 0.0
H925 H 0.42837 0.65654 0.45742 0.0
H926 H 0.42755 0.64512 0.50631 0.0
H927 H 0.39843 0.68585 0.4891 0.0
H928 H 0.40828 0.65111 0.6246 0.0
H929 H 0.33925 0.74729 0.57904 0.0
H930 H 0.50141 0.67945 0.58351 0.0
H931 H 0.47725 0.64148 0.55709 0.0
H932 H 0.47511 0.6397 0.60704 0.0
H933 H 0.41746 0.79244 0.52572 0.0
H934 H 0.36415 0.79001 0.5325 0.0
H935 H 0.38856 0.75883 0.49848 0.0
C936 C 0.75923 0.46949 0.57089 0.0
C937 C 0.73766 0.47359 0.60414 0.0
C938 C 0.75682 0.49878 0.54295 0.0
C939 C 0.73298 0.53325 0.54889 0.0
C940 C 0.71349 0.53867 0.58357 0.0
C941 C 0.71555 0.50846 0.61052 0.0
C942 C 0.77769 0.49157 0.50629 0.0
C943 C 0.68857 0.57535 0.59154 0.0
C944 C 0.73979 0.62427 0.48567 0.0
C945 C 0.70537 0.62001 0.46413 0.0
C946 C 0.74987 0.59575 0.51272 0.0
C947 C 0.72527 0.56188 0.51799 0.0
C948 C 0.69147 0.55659 0.49519 0.0
C949 C 0.68176 0.58585 0.46877 0.0
C950 C 0.78579 0.60279 0.53678 0.0
C951 C 0.66471 0.52064 0.49957 0.0
H952 H 0.77599 0.44229 0.56576 0.0
H953 H 0.69867 0.51151 0.63615 0.0
H954 H 0.75519 0.4852 0.4847 0.0
H955 H 0.79433 0.51857 0.49735 0.0
H956 H 0.79873 0.46594 0.5076 0.0
H957 H 0.67974 0.57738 0.62128 0.0
H958 H 0.70512 0.60282 0.58379 0.0
H959 H 0.66112 0.57453 0.57459 0.0
H960 H 0.758 0.65078 0.48253 0.0
H961 H 0.65521 0.5823 0.45217 0.0
H962 H 0.80519 0.57591 0.53711 0.0
H963 H 0.77591 0.60835 0.56579 0.0
H964 H 0.8037 0.62876 0.52719 0.0
H965 H 0.6826 0.49275 0.4983 0.0
H966 H 0.64144 0.51939 0.47785 0.0
H967 H 0.64977 0.5215 0.52715 0.0
C968 C 0.4846 0.28962 0.48258 0.0
C969 C 0.44529 0.28849 0.49571 0.0
C970 C 0.51641 0.2946 0.50721 0.0
C971 C 0.5083 0.29908 0.54567 0.0
C972 C 0.4685 0.29848 0.55889 0.0
C973 C 0.43746 0.29333 0.53368 0.0
C974 C 0.55842 0.29551 0.49182 0.0
C975 C 0.4587 0.30297 0.59968 0.0
C976 C 0.59201 0.27781 0.61304 0.0
C977 C 0.60546 0.31647 0.62088 0.0
C978 C 0.56004 0.2717 0.58887 0.0
C979 C 0.54131 0.30503 0.57215 0.0
C980 C 0.55429 0.3441 0.58044 0.0
C981 C 0.58606 0.34937 0.60486 0.0
C982 C 0.54706 0.22959 0.58028 0.0
C983 C 0.5353 0.38029 0.56274 0.0
H984 H 0.49049 0.28592 0.45321 0.0
H985 H 0.40695 0.29275 0.54381 0.0
H986 H 0.58016 0.28216 0.51129 0.0
H987 H 0.56067 0.27928 0.46505 0.0
H988 H 0.5672 0.32702 0.48687 0.0
H989 H 0.42616 0.30104 0.60542 0.0
H990 H 0.47403 0.27934 0.61583 0.0
H991 H 0.46967 0.33216 0.60987 0.0
H992 H 0.60698 0.25226 0.62516 0.0
H993 H 0.59634 0.37938 0.61061 0.0
H994 H 0.55178 0.22344 0.55029 0.0
H995 H 0.51474 0.2261 0.58619 0.0
H996 H 0.56374 0.20697 0.59659 0.0
H997 H 0.53944 0.37894 0.53218 0.0
H998 H 0.54818 0.40873 0.57295 0.0
H999 H 0.50274 0.38053 0.56841 0.0
C1000 C 0.7732 -0.0023 0.95917 0.0
C1001 C 0.74949 0.96387 0.96461 0.0
C1002 C 0.77171 0.02964 0.9842 0.0
C1003 C 0.74691 0.02692 1.01613 0.0
C1004 C 0.72155 -0.00655 1.02086 0.0
C1005 C 0.7228 0.96241 0.99466 0.0
C1006 C 0.79843 0.06523 0.97751 0.0
C1007 C 0.69517 0.98912 0.05476 0.0
C1008 C 0.78928 0.08328 0.09777 0.0
C1009 C 0.76702 0.1187 0.0971 0.0
C1010 C 0.78139 0.0522 0.07288 0.0
C1011 C 0.75102 0.05703 0.04615 0.0
C1012 C 0.72736 0.0921 0.0463 0.0
C1013 C 0.73543 0.12244 0.07206 0.0
C1014 C 0.80683 0.01495 0.07408 0.0
C1015 C 0.69509 0.09855 1.01796 0.0
H1016 H 0.7938 -0.00132 0.93582 0.0
H1017 H 0.70476 0.93594 0.99898 0.0
H1018 H 0.78151 0.09347 0.98126 0.0
H1019 H 0.8229 0.06508 0.99805 0.0
H1020 H 0.81182 0.06503 0.9492 0.0
H1021 H 0.67355 0.96425 0.05187 0.0
H1022 H 0.71394 0.98308 0.07936 0.0
H1023 H 0.6785 0.01718 0.06021 0.0
H1024 H 0.81354 0.08019 0.11728 0.0
H1025 H 0.71831 0.14993 0.07127 0.0
H1026 H 0.82577 0.01337 0.04873 0.0
H1027 H 0.78774 0.98792 0.07454 0.0
H1028 H 0.82653 0.01424 0.09871 0.0
H1029 H 0.70889 0.10243 0.99008 0.0
H1030 H 0.67666 0.12536 1.02422 0.0
H1031 H 0.67532 0.07209 1.01657 0.0
C1032 C 0.94751 0.25355 0.0605 0.0
C1033 C 0.94678 0.22891 0.09195 0.0
C1034 C 0.97995 0.25249 0.03556 0.0
C1035 C 0.01233 0.22637 0.04256 0.0
C1036 C 0.01274 0.20342 0.07563 0.0
C1037 C 0.97979 0.20478 0.09979 0.0
C1038 C 0.97862 0.27774 1.00086 0.0
C1039 C 0.04707 0.1759 0.08464 0.0
C1040 C 0.07189 0.17995 0.96368 0.0
C1041 C 0.10738 0.20187 0.96472 0.0
C1042 C 0.04 0.18897 0.98772 0.0
C1043 C 0.04405 0.22012 1.01399 0.0
C1044 C 0.07935 0.24318 1.01439 0.0
C1045 C 0.11049 0.23401 0.98947 0.0
C1046 C 0.00252 0.16417 0.98593 0.0
C1047 C 0.08505 0.27621 0.04232 0.0
H1048 H 0.92203 0.27242 0.05457 0.0
H1049 H 0.97935 0.18593 0.1243 0.0
H1050 H 0.00735 0.29343 0.99644 0.0
H1051 H 0.97388 0.2582 0.97646 0.0
H1052 H 0.95428 0.30028 1.00196 0.0
H1053 H 0.04483 0.16366 0.11327 0.0
H1054 H 0.04756 0.15059 0.0648 0.0
H1055 H 0.07586 0.19187 0.08167 0.0
H1056 H 0.06931 0.15522 0.94447 0.0
H1057 H 0.13801 0.25085 0.99064 0.0
H1058 H 0.97599 0.18384 0.98346 0.0
H1059 H -0.00099 0.14672 1.01195 0.0
H1060 H 0.00294 0.14308 0.96215 0.0
H1061 H 0.05902 0.29671 0.04241 0.0
H1062 H 0.11246 0.29382 0.03665 0.0
H1063 H 0.08722 0.26317 0.07056 0.0
C1064 C 0.18465 0.89484 0.10848 0.0
C1065 C 0.20814 0.86045 0.10425 0.0
C1066 C 0.19061 0.92829 0.08561 0.0
C1067 C 0.22039 0.92704 0.05752 0.0
C1068 C 0.24555 0.89323 0.0544 0.0
C1069 C 0.23929 0.86041 0.07798 0.0
C1070 C 0.16363 0.96415 0.09019 0.0
C1071 C 0.27757 0.89075 1.02478 0.0
C1072 C 0.19826 -0.01006 0.97253 0.0
C1073 C 0.22111 0.02406 0.97923 0.0
C1074 C 0.19871 0.95763 0.99733 0.0
C1075 C 0.22268 0.95958 1.02947 0.0
C1076 C 0.2472 -0.00672 0.03544 0.0
C1077 C 0.2461 0.02522 1.01016 0.0
C1078 C 0.17259 0.92192 0.98971 0.0
C1079 C 0.27343 -0.00373 0.06915 0.0
H1080 H 0.16069 0.89512 0.12886 0.0
H1081 H 0.25748 0.83387 0.07439 0.0
H1082 H 0.18155 -0.00811 0.09194 0.0
H1083 H 0.14416 0.96698 0.06557 0.0
H1084 H 0.14444 0.9619 0.11538 0.0
H1085 H 0.29742 0.86449 1.02867 0.0
H1086 H 0.26348 0.88841 0.99711 0.0
H1087 H 0.296 0.91821 1.02463 0.0
H1088 H 0.17918 0.98893 0.94841 0.0
H1089 H 0.26409 0.05151 1.0151 0.0
H1090 H 0.15056 0.91812 1.01259 0.0
H1091 H 0.19098 0.89436 0.98859 0.0
H1092 H 0.15617 0.92484 0.9632 0.0
H1093 H 0.25453 0.0004 0.09427 0.0
H1094 H 0.29455 0.02171 0.06714 0.0
H1095 H 0.29075 0.96834 0.07304 0.0
C1096 C 0.88986 0.81535 0.98169 0.0
C1097 C 0.87713 0.79086 0.95257 0.0
C1098 C 0.92253 0.80467 1.0036 0.0
C1099 C 0.9435 0.76884 0.99593 0.0
C1100 C 0.93079 0.74383 0.96667 0.0
C1101 C 0.89749 0.75498 0.94549 0.0
C1102 C 0.9348 0.83199 0.03482 0.0
C1103 C 0.95272 0.70565 0.95745 0.0
C1104 C 0.04946 0.77106 1.03135 0.0
C1105 C 0.04572 0.75059 0.0651 0.0
C1106 C 0.01698 0.77492 1.00736 0.0
C1107 C 0.97958 0.75877 1.0179 0.0
C1108 C 0.97606 0.73669 0.05138 0.0
C1109 C 0.00939 0.73253 0.07448 0.0
C1110 C 0.02225 0.79802 0.97163 0.0
C1111 C 0.9366 0.7195 0.06387 0.0
H1112 H 0.87402 0.84288 0.98767 0.0
H1113 H 0.88777 0.73591 0.92305 0.0
H1114 H 0.9355 0.8152 0.06138 0.0
H1115 H 0.96532 0.84344 1.0295 0.0
H1116 H 0.91431 0.85788 0.03813 0.0
H1117 H 0.93871 0.68917 0.93423 0.0
H1118 H 0.98407 0.71245 0.94972 0.0
H1119 H 0.95354 0.68588 0.98216 0.0
H1120 H 0.07763 0.78496 1.02408 0.0
H1121 H 0.00648 0.71685 0.10072 0.0
H1122 H 0.00521 0.82642 0.97326 0.0
H1123 H 0.01029 0.78074 0.94797 0.0
H1124 H 0.05401 0.80516 0.96577 0.0
H1125 H 0.91577 0.74417 0.07098 0.0
H1126 H 0.9397 0.69986 0.08857 0.0
H1127 H 0.92289 0.70211 0.04114 0.0
loop_
_geom_bond_atom_site_label_1
_geom_bond_atom_site_label_2
_geom_bond_distance
_geom_bond_site_symmetry_2
_ccdc_geom_bond_type
O0 Tb1 2.292 . S
O0 C3 1.255 . S
Tb1 O0 2.292 . S
Tb1 O17 2.326 . S
Tb1 O19 2.500 . S
Tb1 O20 2.473 . S
Tb1 O23 2.324 . S
Eu2 O6 2.292 . S
Eu2 C7 2.852 . S
Eu2 O18 2.324 . S
Eu2 O22 2.326 . S
Eu2 O24 2.500 . S
Eu2 O25 2.473 . S
C3 O0 1.255 . S
C3 O4 1.247 . S
O4 C3 1.247 . S
C5 O17 1.242 . S
C5 O18 1.258 . S
O6 Eu2 2.292 . S
O6 C8 1.255 . S
C7 Eu2 2.852 . S
C7 C11 1.503 . S
C7 O24 1.273 . S
C7 O25 1.257 . S
C8 O6 1.255 . S
C8 O9 1.247 . S
O9 C8 1.247 . S
C10 O22 1.242 . S
C10 O23 1.258 . S
C11 C7 1.503 . S
C11 C12 1.379 . S
C11 C16 1.392 . S
C12 C11 1.379 . S
C12 C13 1.404 . S
C12 H26 0.929 . S
C13 C12 1.404 . S
C13 C14 1.389 . S
C14 C13 1.389 . S
C14 C15 1.399 . S
C14 H27 0.931 . S
C15 C14 1.399 . S
C15 C16 1.390 . S
C16 C11 1.392 . S
C16 C15 1.390 . S
C16 H28 0.929 . S
O17 Tb1 2.326 . S
O17 C5 1.242 . S
O18 Eu2 2.324 . S
O18 C5 1.258 . S
O19 Tb1 2.500 . S
O19 C21 1.273 . S
O20 Tb1 2.473 . S
O20 C21 1.257 . S
C21 O19 1.273 . S
C21 O20 1.257 . S
O22 Eu2 2.326 . S
O22 C10 1.242 . S
O23 Tb1 2.324 . S
O23 C10 1.258 . S
O24 Eu2 2.500 . S
O24 C7 1.273 . S
O25 Eu2 2.473 . S
O25 C7 1.257 . S
H26 C12 0.929 . S
H27 C14 0.931 . S
H28 C16 0.929 . S
O29 Tb30 2.292 . S
O29 C32 1.255 . S
Tb30 O29 2.292 . S
Tb30 O46 2.326 . S
Tb30 O48 2.500 . S
Tb30 O49 2.473 . S
Tb30 O52 2.324 . S
Eu31 O35 2.292 . S
Eu31 C36 2.852 . S
Eu31 O47 2.324 . S
Eu31 O51 2.326 . S
Eu31 O53 2.500 . S
Eu31 O54 2.473 . S
C32 O29 1.255 . S
C32 O33 1.247 . S
O33 C32 1.247 . S
C34 O46 1.242 . S
C34 O47 1.258 . S
O35 Eu31 2.292 . S
O35 C37 1.255 . S
C36 Eu31 2.852 . S
C36 C40 1.503 . S
C36 O53 1.273 . S
C36 O54 1.257 . S
C37 O35 1.255 . S
C37 O38 1.247 . S
O38 C37 1.247 . S
C39 O51 1.242 . S
C39 O52 1.258 . S
C40 C36 1.503 . S
C40 C41 1.379 . S
C40 C45 1.392 . S
C41 C40 1.379 . S
C41 C42 1.404 . S
C41 H55 0.929 . S
C42 C41 1.404 . S
C42 C43 1.389 . S
C43 C42 1.389 . S
C43 C44 1.399 . S
C43 H56 0.931 . S
C44 C43 1.399 . S
C44 C45 1.390 . S
C45 C40 1.392 . S
C45 C44 1.390 . S
C45 H57 0.929 . S
O46 Tb30 2.326 . S
O46 C34 1.242 . S
O47 Eu31 2.324 . S
O47 C34 1.258 . S
O48 Tb30 2.500 . S
O48 C50 1.273 . S
O49 Tb30 2.473 . S
O49 C50 1.257 . S
C50 O48 1.273 . S
C50 O49 1.257 . S
O51 Eu31 2.326 . S
O51 C39 1.242 . S
O52 Tb30 2.324 . S
O52 C39 1.258 . S
O53 Eu31 2.500 . S
O53 C36 1.273 . S
O54 Eu31 2.473 . S
O54 C36 1.257 . S
H55 C41 0.929 . S
H56 C43 0.931 . S
H57 C45 0.929 . S
O58 Tb59 2.292 . S
O58 C61 1.255 . S
Tb59 O58 2.292 . S
Tb59 O75 2.326 . S
Tb59 O77 2.500 . S
Tb59 O78 2.473 . S
Tb59 O81 2.324 . S
Eu60 O64 2.292 . S
Eu60 C65 2.852 . S
Eu60 O76 2.324 . S
Eu60 O80 2.326 . S
Eu60 O82 2.500 . S
Eu60 O83 2.473 . S
C61 O58 1.255 . S
C61 O62 1.247 . S
O62 C61 1.247 . S
C63 O75 1.242 . S
C63 O76 1.258 . S
O64 Eu60 2.292 . S
O64 C66 1.255 . S
C65 Eu60 2.852 . S
C65 C69 1.503 . S
C65 O82 1.273 . S
C65 O83 1.257 . S
C66 O64 1.255 . S
C66 O67 1.247 . S
O67 C66 1.247 . S
C68 O80 1.242 . S
C68 O81 1.258 . S
C69 C65 1.503 . S
C69 C70 1.379 . S
C69 C74 1.392 . S
C70 C69 1.379 . S
C70 C71 1.404 . S
C70 H84 0.929 . S
C71 C70 1.404 . S
C71 C72 1.389 . S
C72 C71 1.389 . S
C72 C73 1.399 . S
C72 H85 0.931 . S
C73 C72 1.399 . S
C73 C74 1.390 . S
C74 C69 1.392 . S
C74 C73 1.390 . S
C74 H86 0.929 . S
O75 Tb59 2.326 . S
O75 C63 1.242 . S
O76 Eu60 2.324 . S
O76 C63 1.258 . S
O77 Tb59 2.500 . S
O77 C79 1.273 . S
O78 Tb59 2.473 . S
O78 C79 1.257 . S
C79 O77 1.273 . S
C79 O78 1.257 . S
O80 Eu60 2.326 . S
O80 C68 1.242 . S
O81 Tb59 2.324 . S
O81 C68 1.258 . S
O82 Eu60 2.500 . S
O82 C65 1.273 . S
O83 Eu60 2.473 . S
O83 C65 1.257 . S
H84 C70 0.929 . S
H85 C72 0.931 . S
H86 C74 0.929 . S
O87 Tb88 2.292 . S
O87 C90 1.255 . S
Tb88 O87 2.292 . S
Tb88 O104 2.326 . S
Tb88 O106 2.500 . S
Tb88 O107 2.473 . S
Tb88 O110 2.324 . S
Eu89 O93 2.292 . S
Eu89 C94 2.852 . S
Eu89 O105 2.324 . S
Eu89 O109 2.326 . S
Eu89 O111 2.500 . S
Eu89 O112 2.473 . S
C90 O87 1.255 . S
C90 O91 1.247 . S
O91 C90 1.247 . S
C92 O104 1.242 . S
C92 O105 1.258 . S
O93 Eu89 2.292 . S
O93 C95 1.255 . S
C94 Eu89 2.852 . S
C94 C98 1.503 . S
C94 O111 1.273 . S
C94 O112 1.257 . S
C95 O93 1.255 . S
C95 O96 1.247 . S
O96 C95 1.247 . S
C97 O109 1.242 . S
C97 O110 1.258 . S
C98 C94 1.503 . S
C98 C99 1.379 . S
C98 C103 1.392 . S
C99 C98 1.379 . S
C99 C100 1.404 . S
C99 H113 0.929 . S
C100 C99 1.404 . S
C100 C101 1.389 . S
C101 C100 1.389 . S
C101 C102 1.399 . S
C101 H114 0.931 . S
C102 C101 1.399 . S
C102 C103 1.390 . S
C103 C98 1.392 . S
C103 C102 1.390 . S
C103 H115 0.929 . S
O104 Tb88 2.326 . S
O104 C92 1.242 . S
O105 Eu89 2.324 . S
O105 C92 1.258 . S
O106 Tb88 2.500 . S
O106 C108 1.273 . S
O107 Tb88 2.473 . S
O107 C108 1.257 . S
C108 O106 1.273 . S
C108 O107 1.257 . S
O109 Eu89 2.326 . S
O109 C97 1.242 . S
O110 Tb88 2.324 . S
O110 C97 1.258 . S
O111 Eu89 2.500 . S
O111 C94 1.273 . S
O112 Eu89 2.473 . S
O112 C94 1.257 . S
H113 C99 0.929 . S
H114 C101 0.931 . S
H115 C103 0.929 . S
O116 Tb117 2.292 . S
O116 C119 1.255 . S
Tb117 O116 2.292 . S
Tb117 O133 2.326 . S
Tb117 O135 2.500 . S
Tb117 O136 2.473 . S
Tb117 O139 2.324 . S
Eu118 O122 2.292 . S
Eu118 C123 2.852 . S
Eu118 O134 2.324 . S
Eu118 O138 2.326 . S
Eu118 O140 2.500 . S
Eu118 O141 2.473 . S
C119 O116 1.255 . S
C119 O120 1.247 . S
O120 C119 1.247 . S
C121 O133 1.242 . S
C121 O134 1.258 . S
O122 Eu118 2.292 . S
O122 C124 1.255 . S
C123 Eu118 2.852 . S
C123 C127 1.503 . S
C123 O140 1.273 . S
C123 O141 1.257 . S
C124 O122 1.255 . S
C124 O125 1.247 . S
O125 C124 1.247 . S
C126 O138 1.242 . S
C126 O139 1.258 . S
C127 C123 1.503 . S
C127 C128 1.379 . S
C127 C132 1.392 . S
C128 C127 1.379 . S
C128 C129 1.404 . S
C128 H142 0.929 . S
C129 C128 1.404 . S
C129 C130 1.389 . S
C130 C129 1.389 . S
C130 C131 1.399 . S
C130 H143 0.931 . S
C131 C130 1.399 . S
C131 C132 1.390 . S
C132 C127 1.392 . S
C132 C131 1.390 . S
C132 H144 0.929 . S
O133 Tb117 2.326 . S
O133 C121 1.242 . S
O134 Eu118 2.324 . S
O134 C121 1.258 . S
O135 Tb117 2.500 . S
O135 C137 1.273 . S
O136 Tb117 2.473 . S
O136 C137 1.257 . S
C137 O135 1.273 . S
C137 O136 1.257 . S
O138 Eu118 2.326 . S
O138 C126 1.242 . S
O139 Tb117 2.324 . S
O139 C126 1.258 . S
O140 Eu118 2.500 . S
O140 C123 1.273 . S
O141 Eu118 2.473 . S
O141 C123 1.257 . S
H142 C128 0.929 . S
H143 C130 0.931 . S
H144 C132 0.929 . S
O145 Tb146 2.292 . S
O145 C148 1.255 . S
Tb146 O145 2.292 . S
Tb146 O162 2.326 . S
Tb146 O164 2.500 . S
Tb146 O165 2.473 . S
Tb146 O168 2.324 . S
Eu147 O151 2.292 . S
Eu147 C152 2.852 . S
Eu147 O163 2.324 . S
Eu147 O167 2.326 . S
Eu147 O169 2.500 . S
Eu147 O170 2.473 . S
C148 O145 1.255 . S
C148 O149 1.247 . S
O149 C148 1.247 . S
C150 O162 1.242 . S
C150 O163 1.258 . S
O151 Eu147 2.292 . S
O151 C153 1.255 . S
C152 Eu147 2.852 . S
C152 C156 1.503 . S
C152 O169 1.273 . S
C152 O170 1.257 . S
C153 O151 1.255 . S
C153 O154 1.247 . S
O154 C153 1.247 . S
C155 O167 1.242 . S
C155 O168 1.258 . S
C156 C152 1.503 . S
C156 C157 1.379 . S
C156 C161 1.392 . S
C157 C156 1.379 . S
C157 C158 1.404 . S
C157 H171 0.929 . S
C158 C157 1.404 . S
C158 C159 1.389 . S
C159 C158 1.389 . S
C159 C160 1.399 . S
C159 H172 0.931 . S
C160 C159 1.399 . S
C160 C161 1.390 . S
C161 C156 1.392 . S
C161 C160 1.390 . S
C161 H173 0.929 . S
O162 Tb146 2.326 . S
O162 C150 1.242 . S
O163 Eu147 2.324 . S
O163 C150 1.258 . S
O164 Tb146 2.500 . S
O164 C166 1.273 . S
O165 Tb146 2.473 . S
O165 C166 1.257 . S
C166 O164 1.273 . S
C166 O165 1.257 . S
O167 Eu147 2.326 . S
O167 C155 1.242 . S
O168 Tb146 2.324 . S
O168 C155 1.258 . S
O169 Eu147 2.500 . S
O169 C152 1.273 . S
O170 Eu147 2.473 . S
O170 C152 1.257 . S
H171 C157 0.929 . S
H172 C159 0.931 . S
H173 C161 0.929 . S
O174 Tb175 2.292 . S
O174 C177 1.255 . S
Tb175 O174 2.292 . S
Tb175 O191 2.326 . S
Tb175 O193 2.500 . S
Tb175 O194 2.473 . S
Tb175 O197 2.324 . S
Eu176 O180 2.292 . S
Eu176 C181 2.852 . S
Eu176 O192 2.324 . S
Eu176 O196 2.326 . S
Eu176 O198 2.500 . S
Eu176 O199 2.473 . S
C177 O174 1.255 . S
C177 O178 1.247 . S
O178 C177 1.247 . S
C179 O191 1.242 . S
C179 O192 1.258 . S
O180 Eu176 2.292 . S
O180 C182 1.255 . S
C181 Eu176 2.852 . S
C181 C185 1.503 . S
C181 O198 1.273 . S
C181 O199 1.257 . S
C182 O180 1.255 . S
C182 O183 1.247 . S
O183 C182 1.247 . S
C184 O196 1.242 . S
C184 O197 1.258 . S
C185 C181 1.503 . S
C185 C186 1.379 . S
C185 C190 1.392 . S
C186 C185 1.379 . S
C186 C187 1.404 . S
C186 H200 0.929 . S
C187 C186 1.404 . S
C187 C188 1.389 . S
C188 C187 1.389 . S
C188 C189 1.399 . S
C188 H201 0.931 . S
C189 C188 1.399 . S
C189 C190 1.390 . S
C190 C185 1.392 . S
C190 C189 1.390 . S
C190 H202 0.929 . S
O191 Tb175 2.326 . S
O191 C179 1.242 . S
O192 Eu176 2.324 . S
O192 C179 1.258 . S
O193 Tb175 2.500 . S
O193 C195 1.273 . S
O194 Tb175 2.473 . S
O194 C195 1.257 . S
C195 O193 1.273 . S
C195 O194 1.257 . S
O196 Eu176 2.326 . S
O196 C184 1.242 . S
O197 Tb175 2.324 . S
O197 C184 1.258 . S
O198 Eu176 2.500 . S
O198 C181 1.273 . S
O199 Eu176 2.473 . S
O199 C181 1.257 . S
H200 C186 0.929 . S
H201 C188 0.931 . S
H202 C190 0.929 . S
O203 Tb204 2.292 . S
O203 C206 1.255 . S
Tb204 O203 2.292 . S
Tb204 O220 2.326 . S
Tb204 O222 2.500 . S
Tb204 O223 2.473 . S
Tb204 O226 2.324 . S
Eu205 O209 2.292 . S
Eu205 C210 2.852 . S
Eu205 O221 2.324 . S
Eu205 O225 2.326 . S
Eu205 O227 2.500 . S
Eu205 O228 2.473 . S
C206 O203 1.255 . S
C206 O207 1.247 . S
O207 C206 1.247 . S
C208 O220 1.242 . S
C208 O221 1.258 . S
O209 Eu205 2.292 . S
O209 C211 1.255 . S
C210 Eu205 2.852 . S
C210 C214 1.503 . S
C210 O227 1.273 . S
C210 O228 1.257 . S
C211 O209 1.255 . S
C211 O212 1.247 . S
O212 C211 1.247 . S
C213 O225 1.242 . S
C213 O226 1.258 . S
C214 C210 1.503 . S
C214 C215 1.379 . S
C214 C219 1.392 . S
C215 C214 1.379 . S
C215 C216 1.404 . S
C215 H229 0.929 . S
C216 C215 1.404 . S
C216 C217 1.389 . S
C217 C216 1.389 . S
C217 C218 1.399 . S
C217 H230 0.931 . S
C218 C217 1.399 . S
C218 C219 1.390 . S
C219 C214 1.392 . S
C219 C218 1.390 . S
C219 H231 0.929 . S
O220 Tb204 2.326 . S
O220 C208 1.242 . S
O221 Eu205 2.324 . S
O221 C208 1.258 . S
O222 Tb204 2.500 . S
O222 C224 1.273 . S
O223 Tb204 2.473 . S
O223 C224 1.257 . S
C224 O222 1.273 . S
C224 O223 1.257 . S
O225 Eu205 2.326 . S
O225 C213 1.242 . S
O226 Tb204 2.324 . S
O226 C213 1.258 . S
O227 Eu205 2.500 . S
O227 C210 1.273 . S
O228 Eu205 2.473 . S
O228 C210 1.257 . S
H229 C215 0.929 . S
H230 C217 0.931 . S
H231 C219 0.929 . S
C232 C233 1.391 . S
C232 C234 1.394 . S
C232 H248 0.931 . S
C233 C232 1.391 . S
C233 C237 1.376 . S
C234 C232 1.394 . S
C234 C235 1.369 . S
C234 C238 1.531 . S
C235 C234 1.369 . S
C235 C236 1.410 . S
C235 C243 1.503 . S
C236 C235 1.410 . S
C236 C237 1.392 . S
C236 C239 1.511 . S
C237 C233 1.376 . S
C237 C236 1.392 . S
C237 H249 0.929 . S
C238 C234 1.531 . S
C238 H250 0.960 . S
C238 H251 0.962 . S
C238 H252 0.960 . S
C239 C236 1.511 . S
C239 H253 0.961 . S
C239 H254 0.961 . S
C239 H255 0.961 . S
C240 C241 1.370 . S
C240 C242 1.363 1_556 S
C240 H256 0.931 . S
C241 C240 1.370 . S
C241 C245 1.408 . S
C242 C240 1.363 1_554 S
C242 C243 1.370 . S
C242 C246 1.524 . S
C243 C235 1.503 . S
C243 C242 1.370 . S
C243 C244 1.403 . S
C244 C243 1.403 . S
C244 C245 1.404 1_554 S
C244 C247 1.539 . S
C245 C241 1.408 . S
C245 C244 1.404 1_556 S
C245 H257 0.930 . S
C246 C242 1.524 . S
C246 H258 0.956 . S
C246 H259 0.961 . S
C246 H260 0.961 . S
C247 C244 1.539 . S
C247 H261 0.958 . S
C247 H262 0.961 . S
C247 H263 0.960 . S
H248 C232 0.931 . S
H249 C237 0.929 . S
H250 C238 0.960 . S
H251 C238 0.962 . S
H252 C238 0.960 . S
H253 C239 0.961 . S
H254 C239 0.961 . S
H255 C239 0.961 . S
H256 C240 0.931 . S
H257 C245 0.930 . S
H258 C246 0.956 . S
H259 C246 0.961 . S
H260 C246 0.961 . S
H261 C247 0.958 . S
H262 C247 0.961 . S
H263 C247 0.960 . S
C264 C265 1.391 . S
C264 C266 1.394 1_554 S
C264 H280 0.931 . S
C265 C264 1.391 . S
C265 C269 1.376 . S
C266 C264 1.394 1_556 S
C266 C267 1.369 . S
C266 C270 1.531 . S
C267 C266 1.369 . S
C267 C268 1.410 . S
C267 C275 1.503 . S
C268 C267 1.410 . S
C268 C269 1.392 1_556 S
C268 C271 1.511 . S
C269 C265 1.376 . S
C269 C268 1.392 1_554 S
C269 H281 0.929 . S
C270 C266 1.531 . S
C270 H282 0.960 . S
C270 H283 0.962 . S
C270 H284 0.960 . S
C271 C268 1.511 . S
C271 H285 0.961 . S
C271 H286 0.961 . S
C271 H287 0.961 . S
C272 C273 1.370 . S
C272 C274 1.363 . S
C272 H288 0.931 . S
C273 C272 1.370 . S
C273 C277 1.408 . S
C274 C272 1.363 . S
C274 C275 1.370 . S
C274 C278 1.524 . S
C275 C267 1.503 . S
C275 C274 1.370 . S
C275 C276 1.403 . S
C276 C275 1.403 . S
C276 C277 1.404 . S
C276 C279 1.539 . S
C277 C273 1.408 . S
C277 C276 1.404 . S
C277 H289 0.930 . S
C278 C274 1.524 . S
C278 H290 0.956 . S
C278 H291 0.961 . S
C278 H292 0.961 . S
C279 C276 1.539 . S
C279 H293 0.958 . S
C279 H294 0.961 . S
C279 H295 0.960 . S
H280 C264 0.931 . S
H281 C269 0.929 . S
H282 C270 0.960 . S
H283 C270 0.962 . S
H284 C270 0.960 . S
H285 C271 0.961 . S
H286 C271 0.961 . S
H287 C271 0.961 . S
H288 C272 0.931 . S
H289 C277 0.930 . S
H290 C278 0.956 . S
H291 C278 0.961 . S
H292 C278 0.961 . S
H293 C279 0.958 . S
H294 C279 0.961 . S
H295 C279 0.960 . S
C296 C297 1.391 . S
C296 C298 1.394 1_556 S
C296 H312 0.931 . S
C297 C296 1.391 . S
C297 C301 1.376 . S
C298 C296 1.394 1_554 S
C298 C299 1.369 . S
C298 C302 1.531 . S
C299 C298 1.369 . S
C299 C300 1.410 . S
C299 C307 1.503 . S
C300 C299 1.410 . S
C300 C301 1.392 1_554 S
C300 C303 1.511 . S
C301 C297 1.376 . S
C301 C300 1.392 1_556 S
C301 H313 0.929 . S
C302 C298 1.531 . S
C302 H314 0.960 . S
C302 H315 0.962 . S
C302 H316 0.960 . S
C303 C300 1.511 . S
C303 H317 0.961 . S
C303 H318 0.961 . S
C303 H319 0.961 . S
C304 C305 1.370 . S
C304 C306 1.363 . S
C304 H320 0.931 . S
C305 C304 1.370 . S
C305 C309 1.408 . S
C306 C304 1.363 . S
C306 C307 1.370 . S
C306 C310 1.524 . S
C307 C299 1.503 . S
C307 C306 1.370 . S
C307 C308 1.403 . S
C308 C307 1.403 . S
C308 C309 1.404 . S
C308 C311 1.539 . S
C309 C305 1.408 . S
C309 C308 1.404 . S
C309 H321 0.930 . S
C310 C306 1.524 . S
C310 H322 0.956 . S
C310 H323 0.961 . S
C310 H324 0.961 . S
C311 C308 1.539 . S
C311 H325 0.958 . S
C311 H326 0.961 . S
C311 H327 0.960 . S
H312 C296 0.931 . S
H313 C301 0.929 . S
H314 C302 0.960 . S
H315 C302 0.962 . S
H316 C302 0.960 . S
H317 C303 0.961 . S
H318 C303 0.961 . S
H319 C303 0.961 . S
H320 C304 0.931 . S
H321 C309 0.930 . S
H322 C310 0.956 . S
H323 C310 0.961 . S
H324 C310 0.961 . S
H325 C311 0.958 . S
H326 C311 0.961 . S
H327 C311 0.960 . S
C328 C329 1.391 . S
C328 C330 1.394 . S
C328 H344 0.931 . S
C329 C328 1.391 . S
C329 C333 1.376 . S
C330 C328 1.394 . S
C330 C331 1.369 . S
C330 C334 1.531 . S
C331 C330 1.369 . S
C331 C332 1.410 . S
C331 C339 1.503 . S
C332 C331 1.410 . S
C332 C333 1.392 . S
C332 C335 1.511 . S
C333 C329 1.376 . S
C333 C332 1.392 . S
C333 H345 0.929 . S
C334 C330 1.531 . S
C334 H346 0.960 . S
C334 H347 0.962 . S
C334 H348 0.960 . S
C335 C332 1.511 . S
C335 H349 0.961 . S
C335 H350 0.961 . S
C335 H351 0.961 . S
C336 C337 1.370 . S
C336 C338 1.363 1_554 S
C336 H352 0.931 . S
C337 C336 1.370 . S
C337 C341 1.408 . S
C338 C336 1.363 1_556 S
C338 C339 1.370 . S
C338 C342 1.524 . S
C339 C331 1.503 . S
C339 C338 1.370 . S
C339 C340 1.403 . S
C340 C339 1.403 . S
C340 C341 1.404 1_556 S
C340 C343 1.539 . S
C341 C337 1.408 . S
C341 C340 1.404 1_554 S
C341 H353 0.930 . S
C342 C338 1.524 . S
C342 H354 0.956 . S
C342 H355 0.961 . S
C342 H356 0.961 . S
C343 C340 1.539 . S
C343 H357 0.958 . S
C343 H358 0.961 . S
C343 H359 0.960 . S
H344 C328 0.931 . S
H345 C333 0.929 . S
H346 C334 0.960 . S
H347 C334 0.962 . S
H348 C334 0.960 . S
H349 C335 0.961 . S
H350 C335 0.961 . S
H351 C335 0.961 . S
H352 C336 0.931 . S
H353 C341 0.930 . S
H354 C342 0.956 . S
H355 C342 0.961 . S
H356 C342 0.961 . S
H357 C343 0.958 . S
H358 C343 0.961 . S
H359 C343 0.960 . S
C360 C361 1.391 . S
C360 C362 1.394 . S
C360 H376 0.931 . S
C361 C360 1.391 . S
C361 C365 1.376 . S
C362 C360 1.394 . S
C362 C363 1.369 . S
C362 C366 1.531 . S
C363 C362 1.369 . S
C363 C364 1.410 . S
C363 C371 1.503 . S
C364 C363 1.410 . S
C364 C365 1.392 . S
C364 C367 1.511 . S
C365 C361 1.376 . S
C365 C364 1.392 . S
C365 H377 0.929 . S
C366 C362 1.531 . S
C366 H378 0.960 . S
C366 H379 0.962 . S
C366 H380 0.960 . S
C367 C364 1.511 . S
C367 H381 0.961 . S
C367 H382 0.961 . S
C367 H383 0.961 . S
C368 C369 1.370 . S
C368 C370 1.363 . S
C368 H384 0.931 . S
C369 C368 1.370 . S
C369 C373 1.408 . S
C370 C368 1.363 . S
C370 C371 1.370 . S
C370 C374 1.524 . S
C371 C363 1.503 . S
C371 C370 1.370 . S
C371 C372 1.403 . S
C372 C371 1.403 . S
C372 C373 1.404 . S
C372 C375 1.539 . S
C373 C369 1.408 . S
C373 C372 1.404 . S
C373 H385 0.930 . S
C374 C370 1.524 . S
C374 H386 0.956 . S
C374 H387 0.961 . S
C374 H388 0.961 . S
C375 C372 1.539 . S
C375 H389 0.958 . S
C375 H390 0.961 . S
C375 H391 0.960 . S
H376 C360 0.931 . S
H377 C365 0.929 . S
H378 C366 0.960 . S
H379 C366 0.962 . S
H380 C366 0.960 . S
H381 C367 0.961 . S
H382 C367 0.961 . S
H383 C367 0.961 . S
H384 C368 0.931 . S
H385 C373 0.930 . S
H386 C374 0.956 . S
H387 C374 0.961 . S
H388 C374 0.961 . S
H389 C375 0.958 . S
H390 C375 0.961 . S
H391 C375 0.960 . S
C392 C393 1.391 . S
C392 C394 1.394 . S
C392 H408 0.931 . S
C393 C392 1.391 . S
C393 C397 1.376 . S
C394 C392 1.394 . S
C394 C395 1.369 . S
C394 C398 1.531 . S
C395 C394 1.369 . S
C395 C396 1.410 . S
C395 C403 1.503 . S
C396 C395 1.410 . S
C396 C397 1.392 . S
C396 C399 1.511 . S
C397 C393 1.376 . S
C397 C396 1.392 . S
C397 H409 0.929 . S
C398 C394 1.531 . S
C398 H410 0.960 . S
C398 H411 0.962 . S
C398 H412 0.960 . S
C399 C396 1.511 . S
C399 H413 0.961 . S
C399 H414 0.961 . S
C399 H415 0.961 . S
C400 C401 1.370 . S
C400 C402 1.363 . S
C400 H416 0.931 . S
C401 C400 1.370 . S
C401 C405 1.408 . S
C402 C400 1.363 . S
C402 C403 1.370 . S
C402 C406 1.524 . S
C403 C395 1.503 . S
C403 C402 1.370 . S
C403 C404 1.403 . S
C404 C403 1.403 . S
C404 C405 1.404 . S
C404 C407 1.539 . S
C405 C401 1.408 . S
C405 C404 1.404 . S
C405 H417 0.930 . S
C406 C402 1.524 . S
C406 H418 0.956 . S
C406 H419 0.961 . S
C406 H420 0.961 . S
C407 C404 1.539 . S
C407 H421 0.958 . S
C407 H422 0.961 . S
C407 H423 0.960 . S
H408 C392 0.931 . S
H409 C397 0.929 . S
H410 C398 0.960 . S
H411 C398 0.962 . S
H412 C398 0.960 . S
H413 C399 0.961 . S
H414 C399 0.961 . S
H415 C399 0.961 . S
H416 C400 0.931 . S
H417 C405 0.930 . S
H418 C406 0.956 . S
H419 C406 0.961 . S
H420 C406 0.961 . S
H421 C407 0.958 . S
H422 C407 0.961 . S
H423 C407 0.960 . S
C424 C425 1.391 . S
C424 C426 1.394 . S
C424 H440 0.931 . S
C425 C424 1.391 . S
C425 C429 1.376 . S
C426 C424 1.394 . S
C426 C427 1.369 . S
C426 C430 1.531 . S
C427 C426 1.369 . S
C427 C428 1.410 . S
C427 C435 1.503 . S
C428 C427 1.410 . S
C428 C429 1.392 . S
C428 C431 1.511 . S
C429 C425 1.376 . S
C429 C428 1.392 . S
C429 H441 0.929 . S
C430 C426 1.531 . S
C430 H442 0.960 . S
C430 H443 0.962 . S
C430 H444 0.960 . S
C431 C428 1.511 . S
C431 H445 0.961 . S
C431 H446 0.961 . S
C431 H447 0.961 . S
C432 C433 1.370 . S
C432 C434 1.363 . S
C432 H448 0.931 . S
C433 C432 1.370 . S
C433 C437 1.408 . S
C434 C432 1.363 . S
C434 C435 1.370 . S
C434 C438 1.524 . S
C435 C427 1.503 . S
C435 C434 1.370 . S
C435 C436 1.403 . S
C436 C435 1.403 . S
C436 C437 1.404 . S
C436 C439 1.539 . S
C437 C433 1.408 . S
C437 C436 1.404 . S
C437 H449 0.930 . S
C438 C434 1.524 . S
C438 H450 0.956 . S
C438 H451 0.961 . S
C438 H452 0.961 . S
C439 C436 1.539 . S
C439 H453 0.958 . S
C439 H454 0.961 . S
C439 H455 0.960 . S
H440 C424 0.931 . S
H441 C429 0.929 . S
H442 C430 0.960 . S
H443 C430 0.962 . S
H444 C430 0.960 . S
H445 C431 0.961 . S
H446 C431 0.961 . S
H447 C431 0.961 . S
H448 C432 0.931 . S
H449 C437 0.930 . S
H450 C438 0.956 . S
H451 C438 0.961 . S
H452 C438 0.961 . S
H453 C439 0.958 . S
H454 C439 0.961 . S
H455 C439 0.960 . S
C456 C457 1.391 . S
C456 C458 1.394 . S
C456 H472 0.931 . S
C457 C456 1.391 . S
C457 C461 1.376 . S
C458 C456 1.394 . S
C458 C459 1.369 . S
C458 C462 1.531 . S
C459 C458 1.369 . S
C459 C460 1.410 . S
C459 C467 1.503 . S
C460 C459 1.410 . S
C460 C461 1.392 . S
C460 C463 1.511 . S
C461 C457 1.376 . S
C461 C460 1.392 . S
C461 H473 0.929 . S
C462 C458 1.531 . S
C462 H474 0.960 . S
C462 H475 0.962 . S
C462 H476 0.960 . S
C463 C460 1.511 . S
C463 H477 0.961 . S
C463 H478 0.961 . S
C463 H479 0.961 . S
C464 C465 1.370 . S
C464 C466 1.363 . S
C464 H480 0.931 . S
C465 C464 1.370 . S
C465 C469 1.408 . S
C466 C464 1.363 . S
C466 C467 1.370 . S
C466 C470 1.524 . S
C467 C459 1.503 . S
C467 C466 1.370 . S
C467 C468 1.403 . S
C468 C467 1.403 . S
C468 C469 1.404 . S
C468 C471 1.539 . S
C469 C465 1.408 . S
C469 C468 1.404 . S
C469 H481 0.930 . S
C470 C466 1.524 . S
C470 H482 0.956 . S
C470 H483 0.961 . S
C470 H484 0.961 . S
C471 C468 1.539 . S
C471 H485 0.958 . S
C471 H486 0.961 . S
C471 H487 0.960 . S
H472 C456 0.931 . S
H473 C461 0.929 . S
H474 C462 0.960 . S
H475 C462 0.962 . S
H476 C462 0.960 . S
H477 C463 0.961 . S
H478 C463 0.961 . S
H479 C463 0.961 . S
H480 C464 0.931 . S
H481 C469 0.930 . S
H482 C470 0.956 . S
H483 C470 0.961 . S
H484 C470 0.961 . S
H485 C471 0.958 . S
H486 C471 0.961 . S
H487 C471 0.960 . S
C488 C489 1.391 . S
C488 C490 1.394 . S
C488 H504 0.931 . S
C489 C488 1.391 . S
C489 C493 1.376 . S
C490 C488 1.394 . S
C490 C491 1.369 . S
C490 C494 1.531 . S
C491 C490 1.369 . S
C491 C492 1.410 . S
C491 C499 1.503 1_545 S
C492 C491 1.410 . S
C492 C493 1.392 . S
C492 C495 1.511 . S
C493 C489 1.376 . S
C493 C492 1.392 . S
C493 H505 0.929 . S
C494 C490 1.531 . S
C494 H506 0.960 . S
C494 H507 0.962 . S
C494 H508 0.960 . S
C495 C492 1.511 . S
C495 H509 0.961 . S
C495 H510 0.961 1_545 S
C495 H511 0.961 . S
C496 C497 1.370 . S
C496 C498 1.363 . S
C496 H512 0.931 . S
C497 C496 1.370 . S
C497 C501 1.408 . S
C498 C496 1.363 . S
C498 C499 1.370 . S
C498 C502 1.524 . S
C499 C491 1.503 1_565 S
C499 C498 1.370 . S
C499 C500 1.403 . S
C500 C499 1.403 . S
C500 C501 1.404 . S
C500 C503 1.539 1_565 S
C501 C497 1.408 . S
C501 C500 1.404 . S
C501 H513 0.930 . S
C502 C498 1.524 . S
C502 H514 0.956 . S
C502 H515 0.961 . S
C502 H516 0.961 . S
C503 C500 1.539 1_545 S
C503 H517 0.958 . S
C503 H518 0.961 1_545 S
C503 H519 0.960 . S
H504 C488 0.931 . S
H505 C493 0.929 . S
H506 C494 0.960 . S
H507 C494 0.962 . S
H508 C494 0.960 . S
H509 C495 0.961 . S
H510 C495 0.961 1_565 S
H511 C495 0.961 . S
H512 C496 0.931 . S
H513 C501 0.930 . S
H514 C502 0.956 . S
H515 C502 0.961 . S
H516 C502 0.961 . S
H517 C503 0.958 . S
H518 C503 0.961 1_565 S
H519 C503 0.960 . S
C520 C521 1.391 . S
C520 C522 1.394 . S
C520 H536 0.931 . S
C521 C520 1.391 . S
C521 C525 1.376 . S
C522 C520 1.394 . S
C522 C523 1.369 . S
C522 C526 1.531 1_655 S
C523 C522 1.369 . S
C523 C524 1.410 . S
C523 C531 1.503 1_655 S
C524 C523 1.410 . S
C524 C525 1.392 . S
C524 C527 1.511 . S
C525 C521 1.376 . S
C525 C524 1.392 . S
C525 H537 0.929 . S
C526 C522 1.531 1_455 S
C526 H538 0.960 . S
C526 H539 0.962 . S
C526 H540 0.960 1_455 S
C527 C524 1.511 . S
C527 H541 0.961 . S
C527 H542 0.961 . S
C527 H543 0.961 . S
C528 C529 1.370 . S
C528 C530 1.363 . S
C528 H544 0.931 . S
C529 C528 1.370 . S
C529 C533 1.408 . S
C530 C528 1.363 . S
C530 C531 1.370 . S
C530 C534 1.524 . S
C531 C523 1.503 1_455 S
C531 C530 1.370 . S
C531 C532 1.403 . S
C532 C531 1.403 . S
C532 C533 1.404 . S
C532 C535 1.539 . S
C533 C529 1.408 . S
C533 C532 1.404 . S
C533 H545 0.930 . S
C534 C530 1.524 . S
C534 H546 0.956 . S
C534 H547 0.961 . S
C534 H548 0.961 . S
C535 C532 1.539 . S
C535 H549 0.958 . S
C535 H550 0.961 . S
C535 H551 0.960 1_455 S
H536 C520 0.931 . S
H537 C525 0.929 . S
H538 C526 0.960 . S
H539 C526 0.962 . S
H540 C526 0.960 1_655 S
H541 C527 0.961 . S
H542 C527 0.961 . S
H543 C527 0.961 . S
H544 C528 0.931 . S
H545 C533 0.930 . S
H546 C534 0.956 . S
H547 C534 0.961 . S
H548 C534 0.961 . S
H549 C535 0.958 . S
H550 C535 0.961 . S
H551 C535 0.960 1_655 S
C552 C553 1.391 . S
C552 C554 1.394 1_655 S
C552 H568 0.931 1_655 S
C553 C552 1.391 . S
C553 C557 1.376 . S
C554 C552 1.394 1_455 S
C554 C555 1.369 1_455 S
C554 C558 1.531 . S
C555 C554 1.369 1_655 S
C555 C556 1.410 . S
C555 C563 1.503 1_655 S
C556 C555 1.410 . S
C556 C557 1.392 . S
C556 C559 1.511 . S
C557 C553 1.376 . S
C557 C556 1.392 . S
C557 H569 0.929 . S
C558 C554 1.531 . S
C558 H570 0.960 . S
C558 H571 0.962 . S
C558 H572 0.960 . S
C559 C556 1.511 . S
C559 H573 0.961 . S
C559 H574 0.961 . S
C559 H575 0.961 . S
C560 C561 1.370 . S
C560 C562 1.363 . S
C560 H576 0.931 . S
C561 C560 1.370 . S
C561 C565 1.408 . S
C562 C560 1.363 . S
C562 C563 1.370 . S
C562 C566 1.524 . S
C563 C555 1.503 1_455 S
C563 C562 1.370 . S
C563 C564 1.403 1_455 S
C564 C563 1.403 1_655 S
C564 C565 1.404 1_655 S
C564 C567 1.539 . S
C565 C561 1.408 . S
C565 C564 1.404 1_455 S
C565 H577 0.930 . S
C566 C562 1.524 . S
C566 H578 0.956 . S
C566 H579 0.961 . S
C566 H580 0.961 . S
C567 C564 1.539 . S
C567 H581 0.958 . S
C567 H582 0.961 . S
C567 H583 0.960 . S
H568 C552 0.931 1_455 S
H569 C557 0.929 . S
H570 C558 0.960 . S
H571 C558 0.962 . S
H572 C558 0.960 . S
H573 C559 0.961 . S
H574 C559 0.961 . S
H575 C559 0.961 . S
H576 C560 0.931 . S
H577 C565 0.930 . S
H578 C566 0.956 . S
H579 C566 0.961 . S
H580 C566 0.961 . S
H581 C567 0.958 . S
H582 C567 0.961 . S
H583 C567 0.960 . S
C584 C585 1.391 . S
C584 C586 1.394 . S
C584 H600 0.931 . S
C585 C584 1.391 . S
C585 C589 1.376 . S
C586 C584 1.394 . S
C586 C587 1.369 . S
C586 C590 1.531 . S
C587 C586 1.369 . S
C587 C588 1.410 1_545 S
C587 C595 1.503 1_545 S
C588 C587 1.410 1_565 S
C588 C589 1.392 1_565 S
C588 C591 1.511 . S
C589 C585 1.376 . S
C589 C588 1.392 1_545 S
C589 H601 0.929 . S
C590 C586 1.531 . S
C590 H602 0.960 . S
C590 H603 0.962 . S
C590 H604 0.960 . S
C591 C588 1.511 . S
C591 H605 0.961 . S
C591 H606 0.961 . S
C591 H607 0.961 . S
C592 C593 1.370 . S
C592 C594 1.363 1_565 S
C592 H608 0.931 1_565 S
C593 C592 1.370 . S
C593 C597 1.408 . S
C594 C592 1.363 1_545 S
C594 C595 1.370 1_545 S
C594 C598 1.524 . S
C595 C587 1.503 1_565 S
C595 C594 1.370 1_565 S
C595 C596 1.403 . S
C596 C595 1.403 . S
C596 C597 1.404 . S
C596 C599 1.539 . S
C597 C593 1.408 . S
C597 C596 1.404 . S
C597 H609 0.930 . S
C598 C594 1.524 . S
C598 H610 0.956 . S
C598 H611 0.961 . S
C598 H612 0.961 . S
C599 C596 1.539 . S
C599 H613 0.958 . S
C599 H614 0.961 . S
C599 H615 0.960 . S
H600 C584 0.931 . S
H601 C589 0.929 . S
H602 C590 0.960 . S
H603 C590 0.962 . S
H604 C590 0.960 . S
H605 C591 0.961 . S
H606 C591 0.961 . S
H607 C591 0.961 . S
H608 C592 0.931 1_545 S
H609 C597 0.930 . S
H610 C598 0.956 . S
H611 C598 0.961 . S
H612 C598 0.961 . S
H613 C599 0.958 . S
H614 C599 0.961 . S
H615 C599 0.960 . S
C616 C617 1.391 . S
C616 C618 1.394 . S
C616 H632 0.931 . S
C617 C616 1.391 . S
C617 C621 1.376 . S
C618 C616 1.394 . S
C618 C619 1.369 . S
C618 C622 1.531 . S
C619 C618 1.369 . S
C619 C620 1.410 . S
C619 C627 1.503 . S
C620 C619 1.410 . S
C620 C621 1.392 . S
C620 C623 1.511 . S
C621 C617 1.376 . S
C621 C620 1.392 . S
C621 H633 0.929 . S
C622 C618 1.531 . S
C622 H634 0.960 . S
C622 H635 0.962 . S
C622 H636 0.960 . S
C623 C620 1.511 . S
C623 H637 0.961 . S
C623 H638 0.961 . S
C623 H639 0.961 . S
C624 C625 1.370 . S
C624 C626 1.363 . S
C624 H640 0.931 . S
C625 C624 1.370 . S
C625 C629 1.408 . S
C626 C624 1.363 . S
C626 C627 1.370 . S
C626 C630 1.524 . S
C627 C619 1.503 . S
C627 C626 1.370 . S
C627 C628 1.403 . S
C628 C627 1.403 . S
C628 C629 1.404 . S
C628 C631 1.539 . S
C629 C625 1.408 . S
C629 C628 1.404 . S
C629 H641 0.930 . S
C630 C626 1.524 . S
C630 H642 0.956 . S
C630 H643 0.961 . S
C630 H644 0.961 . S
C631 C628 1.539 . S
C631 H645 0.958 . S
C631 H646 0.961 . S
C631 H647 0.960 . S
H632 C616 0.931 . S
H633 C621 0.929 . S
H634 C622 0.960 . S
H635 C622 0.962 . S
H636 C622 0.960 . S
H637 C623 0.961 . S
H638 C623 0.961 . S
H639 C623 0.961 . S
H640 C624 0.931 . S
H641 C629 0.930 . S
H642 C630 0.956 . S
H643 C630 0.961 . S
H644 C630 0.961 . S
H645 C631 0.958 . S
H646 C631 0.961 . S
H647 C631 0.960 . S
C648 C649 1.391 . S
C648 C650 1.394 . S
C648 H664 0.931 . S
C649 C648 1.391 . S
C649 C653 1.376 . S
C650 C648 1.394 . S
C650 C651 1.369 . S
C650 C654 1.531 . S
C651 C650 1.369 . S
C651 C652 1.410 . S
C651 C659 1.503 . S
C652 C651 1.410 . S
C652 C653 1.392 . S
C652 C655 1.511 . S
C653 C649 1.376 . S
C653 C652 1.392 . S
C653 H665 0.929 . S
C654 C650 1.531 . S
C654 H666 0.960 . S
C654 H667 0.962 . S
C654 H668 0.960 . S
C655 C652 1.511 . S
C655 H669 0.961 . S
C655 H670 0.961 . S
C655 H671 0.961 . S
C656 C657 1.370 . S
C656 C658 1.363 . S
C656 H672 0.931 . S
C657 C656 1.370 . S
C657 C661 1.408 . S
C658 C656 1.363 . S
C658 C659 1.370 . S
C658 C662 1.524 . S
C659 C651 1.503 . S
C659 C658 1.370 . S
C659 C660 1.403 . S
C660 C659 1.403 . S
C660 C661 1.404 . S
C660 C663 1.539 . S
C661 C657 1.408 . S
C661 C660 1.404 . S
C661 H673 0.930 . S
C662 C658 1.524 . S
C662 H674 0.956 . S
C662 H675 0.961 . S
C662 H676 0.961 . S
C663 C660 1.539 . S
C663 H677 0.958 . S
C663 H678 0.961 . S
C663 H679 0.960 . S
H664 C648 0.931 . S
H665 C653 0.929 . S
H666 C654 0.960 . S
H667 C654 0.962 . S
H668 C654 0.960 . S
H669 C655 0.961 . S
H670 C655 0.961 . S
H671 C655 0.961 . S
H672 C656 0.931 . S
H673 C661 0.930 . S
H674 C662 0.956 . S
H675 C662 0.961 . S
H676 C662 0.961 . S
H677 C663 0.958 . S
H678 C663 0.961 . S
H679 C663 0.960 . S
C680 C681 1.391 . S
C680 C682 1.394 . S
C680 H696 0.931 . S
C681 C680 1.391 . S
C681 C685 1.376 . S
C682 C680 1.394 . S
C682 C683 1.369 . S
C682 C686 1.531 . S
C683 C682 1.369 . S
C683 C684 1.410 . S
C683 C691 1.503 . S
C684 C683 1.410 . S
C684 C685 1.392 . S
C684 C687 1.511 . S
C685 C681 1.376 . S
C685 C684 1.392 . S
C685 H697 0.929 . S
C686 C682 1.531 . S
C686 H698 0.960 . S
C686 H699 0.962 . S
C686 H700 0.960 . S
C687 C684 1.511 . S
C687 H701 0.961 . S
C687 H702 0.961 . S
C687 H703 0.961 . S
C688 C689 1.370 . S
C688 C690 1.363 . S
C688 H704 0.931 . S
C689 C688 1.370 . S
C689 C693 1.408 . S
C690 C688 1.363 . S
C690 C691 1.370 . S
C690 C694 1.524 . S
C691 C683 1.503 . S
C691 C690 1.370 . S
C691 C692 1.403 . S
C692 C691 1.403 . S
C692 C693 1.404 . S
C692 C695 1.539 . S
C693 C689 1.408 . S
C693 C692 1.404 . S
C693 H705 0.930 . S
C694 C690 1.524 . S
C694 H706 0.956 . S
C694 H707 0.961 . S
C694 H708 0.961 . S
C695 C692 1.539 . S
C695 H709 0.958 . S
C695 H710 0.961 . S
C695 H711 0.960 . S
H696 C680 0.931 . S
H697 C685 0.929 . S
H698 C686 0.960 . S
H699 C686 0.962 . S
H700 C686 0.960 . S
H701 C687 0.961 . S
H702 C687 0.961 . S
H703 C687 0.961 . S
H704 C688 0.931 . S
H705 C693 0.930 . S
H706 C694 0.956 . S
H707 C694 0.961 . S
H708 C694 0.961 . S
H709 C695 0.958 . S
H710 C695 0.961 . S
H711 C695 0.960 . S
C712 C713 1.391 . S
C712 C714 1.394 . S
C712 H728 0.931 . S
C713 C712 1.391 . S
C713 C717 1.376 . S
C714 C712 1.394 . S
C714 C715 1.369 . S
C714 C718 1.531 . S
C715 C714 1.369 . S
C715 C716 1.410 . S
C715 C723 1.503 . S
C716 C715 1.410 . S
C716 C717 1.392 . S
C716 C719 1.511 . S
C717 C713 1.376 . S
C717 C716 1.392 . S
C717 H729 0.929 . S
C718 C714 1.531 . S
C718 H730 0.960 . S
C718 H731 0.962 . S
C718 H732 0.960 . S
C719 C716 1.511 . S
C719 H733 0.961 . S
C719 H734 0.961 . S
C719 H735 0.961 . S
C720 C721 1.370 . S
C720 C722 1.363 . S
C720 H736 0.931 . S
C721 C720 1.370 . S
C721 C725 1.408 . S
C722 C720 1.363 . S
C722 C723 1.370 . S
C722 C726 1.524 . S
C723 C715 1.503 . S
C723 C722 1.370 . S
C723 C724 1.403 . S
C724 C723 1.403 . S
C724 C725 1.404 . S
C724 C727 1.539 . S
C725 C721 1.408 . S
C725 C724 1.404 . S
C725 H737 0.930 . S
C726 C722 1.524 . S
C726 H738 0.956 . S
C726 H739 0.961 . S
C726 H740 0.961 . S
C727 C724 1.539 . S
C727 H741 0.958 . S
C727 H742 0.961 . S
C727 H743 0.960 . S
H728 C712 0.931 . S
H729 C717 0.929 . S
H730 C718 0.960 . S
H731 C718 0.962 . S
H732 C718 0.960 . S
H733 C719 0.961 . S
H734 C719 0.961 . S
H735 C719 0.961 . S
H736 C720 0.931 . S
H737 C725 0.930 . S
H738 C726 0.956 . S
H739 C726 0.961 . S
H740 C726 0.961 . S
H741 C727 0.958 . S
H742 C727 0.961 . S
H743 C727 0.960 . S
C744 C745 1.391 . S
C744 C746 1.394 1_655 S
C744 H760 0.931 . S
C745 C744 1.391 . S
C745 C749 1.376 . S
C746 C744 1.394 1_455 S
C746 C747 1.369 . S
C746 C750 1.531 . S
C747 C746 1.369 . S
C747 C748 1.410 . S
C747 C755 1.503 . S
C748 C747 1.410 . S
C748 C749 1.392 1_455 S
C748 C751 1.511 . S
C749 C745 1.376 . S
C749 C748 1.392 1_655 S
C749 H761 0.929 . S
C750 C746 1.531 . S
C750 H762 0.960 . S
C750 H763 0.962 . S
C750 H764 0.960 . S
C751 C748 1.511 . S
C751 H765 0.961 . S
C751 H766 0.961 . S
C751 H767 0.961 . S
C752 C753 1.370 . S
C752 C754 1.363 . S
C752 H768 0.931 . S
C753 C752 1.370 . S
C753 C757 1.408 . S
C754 C752 1.363 . S
C754 C755 1.370 . S
C754 C758 1.524 . S
C755 C747 1.503 . S
C755 C754 1.370 . S
C755 C756 1.403 . S
C756 C755 1.403 . S
C756 C757 1.404 . S
C756 C759 1.539 . S
C757 C753 1.408 . S
C757 C756 1.404 . S
C757 H769 0.930 . S
C758 C754 1.524 . S
C758 H770 0.956 . S
C758 H771 0.961 . S
C758 H772 0.961 . S
C759 C756 1.539 . S
C759 H773 0.958 . S
C759 H774 0.961 . S
C759 H775 0.960 . S
H760 C744 0.931 . S
H761 C749 0.929 . S
H762 C750 0.960 . S
H763 C750 0.962 . S
H764 C750 0.960 . S
H765 C751 0.961 . S
H766 C751 0.961 . S
H767 C751 0.961 . S
H768 C752 0.931 . S
H769 C757 0.930 . S
H770 C758 0.956 . S
H771 C758 0.961 . S
H772 C758 0.961 . S
H773 C759 0.958 . S
H774 C759 0.961 . S
H775 C759 0.960 . S
C776 C777 1.391 . S
C776 C778 1.394 1_545 S
C776 H792 0.931 . S
C777 C776 1.391 . S
C777 C781 1.376 . S
C778 C776 1.394 1_565 S
C778 C779 1.369 . S
C778 C782 1.531 . S
C779 C778 1.369 . S
C779 C780 1.410 . S
C779 C787 1.503 . S
C780 C779 1.410 . S
C780 C781 1.392 1_565 S
C780 C783 1.511 . S
C781 C777 1.376 . S
C781 C780 1.392 1_545 S
C781 H793 0.929 . S
C782 C778 1.531 . S
C782 H794 0.960 . S
C782 H795 0.962 . S
C782 H796 0.960 . S
C783 C780 1.511 . S
C783 H797 0.961 . S
C783 H798 0.961 . S
C783 H799 0.961 . S
C784 C785 1.370 . S
C784 C786 1.363 . S
C784 H800 0.931 . S
C785 C784 1.370 . S
C785 C789 1.408 . S
C786 C784 1.363 . S
C786 C787 1.370 . S
C786 C790 1.524 . S
C787 C779 1.503 . S
C787 C786 1.370 . S
C787 C788 1.403 . S
C788 C787 1.403 . S
C788 C789 1.404 . S
C788 C791 1.539 . S
C789 C785 1.408 . S
C789 C788 1.404 . S
C789 H801 0.930 . S
C790 C786 1.524 . S
C790 H802 0.956 . S
C790 H803 0.961 . S
C790 H804 0.961 . S
C791 C788 1.539 . S
C791 H805 0.958 . S
C791 H806 0.961 . S
C791 H807 0.960 . S
H792 C776 0.931 . S
H793 C781 0.929 . S
H794 C782 0.960 . S
H795 C782 0.962 . S
H796 C782 0.960 . S
H797 C783 0.961 . S
H798 C783 0.961 . S
H799 C783 0.961 . S
H800 C784 0.931 . S
H801 C789 0.930 . S
H802 C790 0.956 . S
H803 C790 0.961 . S
H804 C790 0.961 . S
H805 C791 0.958 . S
H806 C791 0.961 . S
H807 C791 0.960 . S
C808 C809 1.391 . S
C808 C810 1.394 . S
C808 H824 0.931 . S
C809 C808 1.391 . S
C809 C813 1.376 . S
C810 C808 1.394 . S
C810 C811 1.369 . S
C810 C814 1.531 . S
C811 C810 1.369 . S
C811 C812 1.410 . S
C811 C819 1.503 . S
C812 C811 1.410 . S
C812 C813 1.392 . S
C812 C815 1.511 . S
C813 C809 1.376 . S
C813 C812 1.392 . S
C813 H825 0.929 . S
C814 C810 1.531 . S
C814 H826 0.960 . S
C814 H827 0.962 . S
C814 H828 0.960 . S
C815 C812 1.511 . S
C815 H829 0.961 . S
C815 H830 0.961 . S
C815 H831 0.961 . S
C816 C817 1.370 . S
C816 C818 1.363 1_455 S
C816 H832 0.931 . S
C817 C816 1.370 . S
C817 C821 1.408 . S
C818 C816 1.363 1_655 S
C818 C819 1.370 . S
C818 C822 1.524 . S
C819 C811 1.503 . S
C819 C818 1.370 . S
C819 C820 1.403 . S
C820 C819 1.403 . S
C820 C821 1.404 1_655 S
C820 C823 1.539 . S
C821 C817 1.408 . S
C821 C820 1.404 1_455 S
C821 H833 0.930 . S
C822 C818 1.524 . S
C822 H834 0.956 . S
C822 H835 0.961 . S
C822 H836 0.961 . S
C823 C820 1.539 . S
C823 H837 0.958 . S
C823 H838 0.961 . S
C823 H839 0.960 . S
H824 C808 0.931 . S
H825 C813 0.929 . S
H826 C814 0.960 . S
H827 C814 0.962 . S
H828 C814 0.960 . S
H829 C815 0.961 . S
H830 C815 0.961 . S
H831 C815 0.961 . S
H832 C816 0.931 . S
H833 C821 0.930 . S
H834 C822 0.956 . S
H835 C822 0.961 . S
H836 C822 0.961 . S
H837 C823 0.958 . S
H838 C823 0.961 . S
H839 C823 0.960 . S
C840 C841 1.391 . S
C840 C842 1.394 . S
C840 H856 0.931 . S
C841 C840 1.391 . S
C841 C845 1.376 . S
C842 C840 1.394 . S
C842 C843 1.369 . S
C842 C846 1.531 . S
C843 C842 1.369 . S
C843 C844 1.410 . S
C843 C851 1.503 . S
C844 C843 1.410 . S
C844 C845 1.392 . S
C844 C847 1.511 . S
C845 C841 1.376 . S
C845 C844 1.392 . S
C845 H857 0.929 . S
C846 C842 1.531 . S
C846 H858 0.960 . S
C846 H859 0.962 . S
C846 H860 0.960 . S
C847 C844 1.511 . S
C847 H861 0.961 . S
C847 H862 0.961 . S
C847 H863 0.961 . S
C848 C849 1.370 . S
C848 C850 1.363 1_565 S
C848 H864 0.931 . S
C849 C848 1.370 . S
C849 C853 1.408 . S
C850 C848 1.363 1_545 S
C850 C851 1.370 . S
C850 C854 1.524 . S
C851 C843 1.503 . S
C851 C850 1.370 . S
C851 C852 1.403 . S
C852 C851 1.403 . S
C852 C853 1.404 1_545 S
C852 C855 1.539 . S
C853 C849 1.408 . S
C853 C852 1.404 1_565 S
C853 H865 0.930 . S
C854 C850 1.524 . S
C854 H866 0.956 . S
C854 H867 0.961 . S
C854 H868 0.961 . S
C855 C852 1.539 . S
C855 H869 0.958 . S
C855 H870 0.961 . S
C855 H871 0.960 . S
H856 C840 0.931 . S
H857 C845 0.929 . S
H858 C846 0.960 . S
H859 C846 0.962 . S
H860 C846 0.960 . S
H861 C847 0.961 . S
H862 C847 0.961 . S
H863 C847 0.961 . S
H864 C848 0.931 . S
H865 C853 0.930 . S
H866 C854 0.956 . S
H867 C854 0.961 . S
H868 C854 0.961 . S
H869 C855 0.958 . S
H870 C855 0.961 . S
H871 C855 0.960 . S
C872 C873 1.391 . S
C872 C874 1.394 . S
C872 H888 0.931 . S
C873 C872 1.391 . S
C873 C877 1.376 . S
C874 C872 1.394 . S
C874 C875 1.369 . S
C874 C878 1.531 . S
C875 C874 1.369 . S
C875 C876 1.410 . S
C875 C883 1.503 . S
C876 C875 1.410 . S
C876 C877 1.392 . S
C876 C879 1.511 . S
C877 C873 1.376 . S
C877 C876 1.392 . S
C877 H889 0.929 . S
C878 C874 1.531 . S
C878 H890 0.960 . S
C878 H891 0.962 . S
C878 H892 0.960 . S
C879 C876 1.511 . S
C879 H893 0.961 . S
C879 H894 0.961 . S
C879 H895 0.961 . S
C880 C881 1.370 . S
C880 C882 1.363 . S
C880 H896 0.931 . S
C881 C880 1.370 . S
C881 C885 1.408 . S
C882 C880 1.363 . S
C882 C883 1.370 . S
C882 C886 1.524 . S
C883 C875 1.503 . S
C883 C882 1.370 . S
C883 C884 1.403 . S
C884 C883 1.403 . S
C884 C885 1.404 . S
C884 C887 1.539 . S
C885 C881 1.408 . S
C885 C884 1.404 . S
C885 H897 0.930 . S
C886 C882 1.524 . S
C886 H898 0.956 . S
C886 H899 0.961 . S
C886 H900 0.961 . S
C887 C884 1.539 . S
C887 H901 0.958 . S
C887 H902 0.961 . S
C887 H903 0.960 . S
H888 C872 0.931 . S
H889 C877 0.929 . S
H890 C878 0.960 . S
H891 C878 0.962 . S
H892 C878 0.960 . S
H893 C879 0.961 . S
H894 C879 0.961 . S
H895 C879 0.961 . S
H896 C880 0.931 . S
H897 C885 0.930 . S
H898 C886 0.956 . S
H899 C886 0.961 . S
H900 C886 0.961 . S
H901 C887 0.958 . S
H902 C887 0.961 . S
H903 C887 0.960 . S
C904 C905 1.391 . S
C904 C906 1.394 . S
C904 H920 0.931 . S
C905 C904 1.391 . S
C905 C909 1.376 . S
C906 C904 1.394 . S
C906 C907 1.369 . S
C906 C910 1.531 . S
C907 C906 1.369 . S
C907 C908 1.410 . S
C907 C915 1.503 . S
C908 C907 1.410 . S
C908 C909 1.392 . S
C908 C911 1.511 . S
C909 C905 1.376 . S
C909 C908 1.392 . S
C909 H921 0.929 . S
C910 C906 1.531 . S
C910 H922 0.960 . S
C910 H923 0.962 . S
C910 H924 0.960 . S
C911 C908 1.511 . S
C911 H925 0.961 . S
C911 H926 0.961 . S
C911 H927 0.961 . S
C912 C913 1.370 . S
C912 C914 1.363 . S
C912 H928 0.931 . S
C913 C912 1.370 . S
C913 C917 1.408 . S
C914 C912 1.363 . S
C914 C915 1.370 . S
C914 C918 1.524 . S
C915 C907 1.503 . S
C915 C914 1.370 . S
C915 C916 1.403 . S
C916 C915 1.403 . S
C916 C917 1.404 . S
C916 C919 1.539 . S
C917 C913 1.408 . S
C917 C916 1.404 . S
C917 H929 0.930 . S
C918 C914 1.524 . S
C918 H930 0.956 . S
C918 H931 0.961 . S
C918 H932 0.961 . S
C919 C916 1.539 . S
C919 H933 0.958 . S
C919 H934 0.961 . S
C919 H935 0.960 . S
H920 C904 0.931 . S
H921 C909 0.929 . S
H922 C910 0.960 . S
H923 C910 0.962 . S
H924 C910 0.960 . S
H925 C911 0.961 . S
H926 C911 0.961 . S
H927 C911 0.961 . S
H928 C912 0.931 . S
H929 C917 0.930 . S
H930 C918 0.956 . S
H931 C918 0.961 . S
H932 C918 0.961 . S
H933 C919 0.958 . S
H934 C919 0.961 . S
H935 C919 0.960 . S
C936 C937 1.391 . S
C936 C938 1.394 . S
C936 H952 0.931 . S
C937 C936 1.391 . S
C937 C941 1.376 . S
C938 C936 1.394 . S
C938 C939 1.369 . S
C938 C942 1.531 . S
C939 C938 1.369 . S
C939 C940 1.410 . S
C939 C947 1.503 . S
C940 C939 1.410 . S
C940 C941 1.392 . S
C940 C943 1.511 . S
C941 C937 1.376 . S
C941 C940 1.392 . S
C941 H953 0.929 . S
C942 C938 1.531 . S
C942 H954 0.960 . S
C942 H955 0.962 . S
C942 H956 0.960 . S
C943 C940 1.511 . S
C943 H957 0.961 . S
C943 H958 0.961 . S
C943 H959 0.961 . S
C944 C945 1.370 . S
C944 C946 1.363 . S
C944 H960 0.931 . S
C945 C944 1.370 . S
C945 C949 1.408 . S
C946 C944 1.363 . S
C946 C947 1.370 . S
C946 C950 1.524 . S
C947 C939 1.503 . S
C947 C946 1.370 . S
C947 C948 1.403 . S
C948 C947 1.403 . S
C948 C949 1.404 . S
C948 C951 1.539 . S
C949 C945 1.408 . S
C949 C948 1.404 . S
C949 H961 0.930 . S
C950 C946 1.524 . S
C950 H962 0.956 . S
C950 H963 0.961 . S
C950 H964 0.961 . S
C951 C948 1.539 . S
C951 H965 0.958 . S
C951 H966 0.961 . S
C951 H967 0.960 . S
H952 C936 0.931 . S
H953 C941 0.929 . S
H954 C942 0.960 . S
H955 C942 0.962 . S
H956 C942 0.960 . S
H957 C943 0.961 . S
H958 C943 0.961 . S
H959 C943 0.961 . S
H960 C944 0.931 . S
H961 C949 0.930 . S
H962 C950 0.956 . S
H963 C950 0.961 . S
H964 C950 0.961 . S
H965 C951 0.958 . S
H966 C951 0.961 . S
H967 C951 0.960 . S
C968 C969 1.391 . S
C968 C970 1.394 . S
C968 H984 0.931 . S
C969 C968 1.391 . S
C969 C973 1.376 . S
C970 C968 1.394 . S
C970 C971 1.369 . S
C970 C974 1.531 . S
C971 C970 1.369 . S
C971 C972 1.410 . S
C971 C979 1.503 . S
C972 C971 1.410 . S
C972 C973 1.392 . S
C972 C975 1.511 . S
C973 C969 1.376 . S
C973 C972 1.392 . S
C973 H985 0.929 . S
C974 C970 1.531 . S
C974 H986 0.960 . S
C974 H987 0.962 . S
C974 H988 0.960 . S
C975 C972 1.511 . S
C975 H989 0.961 . S
C975 H990 0.961 . S
C975 H991 0.961 . S
C976 C977 1.370 . S
C976 C978 1.363 . S
C976 H992 0.931 . S
C977 C976 1.370 . S
C977 C981 1.408 . S
C978 C976 1.363 . S
C978 C979 1.370 . S
C978 C982 1.524 . S
C979 C971 1.503 . S
C979 C978 1.370 . S
C979 C980 1.403 . S
C980 C979 1.403 . S
C980 C981 1.404 . S
C980 C983 1.539 . S
C981 C977 1.408 . S
C981 C980 1.404 . S
C981 H993 0.930 . S
C982 C978 1.524 . S
C982 H994 0.956 . S
C982 H995 0.961 . S
C982 H996 0.961 . S
C983 C980 1.539 . S
C983 H997 0.958 . S
C983 H998 0.961 . S
C983 H999 0.960 . S
H984 C968 0.931 . S
H985 C973 0.929 . S
H986 C974 0.960 . S
H987 C974 0.962 . S
H988 C974 0.960 . S
H989 C975 0.961 . S
H990 C975 0.961 . S
H991 C975 0.961 . S
H992 C976 0.931 . S
H993 C981 0.930 . S
H994 C982 0.956 . S
H995 C982 0.961 . S
H996 C982 0.961 . S
H997 C983 0.958 . S
H998 C983 0.961 . S
H999 C983 0.960 . S
C1000 C1001 1.391 . S
C1000 C1002 1.394 1_565 S
C1000 H1016 0.931 . S
C1001 C1000 1.391 . S
C1001 C1005 1.376 . S
C1002 C1000 1.394 1_545 S
C1002 C1003 1.369 . S
C1002 C1006 1.531 . S
C1003 C1002 1.369 . S
C1003 C1004 1.410 . S
C1003 C1011 1.503 1_556 S
C1004 C1003 1.410 . S
C1004 C1005 1.392 1_545 S
C1004 C1007 1.511 1_556 S
C1005 C1001 1.376 . S
C1005 C1004 1.392 1_565 S
C1005 H1017 0.929 . S
C1006 C1002 1.531 . S
C1006 H1018 0.960 . S
C1006 H1019 0.962 . S
C1006 H1020 0.960 . S
C1007 C1004 1.511 1_554 S
C1007 H1021 0.961 1_545 S
C1007 H1022 0.961 . S
C1007 H1023 0.961 1_554 S
C1008 C1009 1.370 . S
C1008 C1010 1.363 . S
C1008 H1024 0.931 . S
C1009 C1008 1.370 . S
C1009 C1013 1.408 . S
C1010 C1008 1.363 . S
C1010 C1011 1.370 . S
C1010 C1014 1.524 . S
C1011 C1003 1.503 1_554 S
C1011 C1010 1.370 . S
C1011 C1012 1.403 . S
C1012 C1011 1.403 . S
C1012 C1013 1.404 . S
C1012 C1015 1.539 1_554 S
C1013 C1009 1.408 . S
C1013 C1012 1.404 . S
C1013 H1025 0.930 . S
C1014 C1010 1.524 . S
C1014 H1026 0.956 1_545 S
C1014 H1027 0.961 1_545 S
C1014 H1028 0.961 . S
C1015 C1012 1.539 1_556 S
C1015 H1029 0.958 . S
C1015 H1030 0.961 . S
C1015 H1031 0.960 . S
H1016 C1000 0.931 . S
H1017 C1005 0.929 . S
H1018 C1006 0.960 . S
H1019 C1006 0.962 . S
H1020 C1006 0.960 . S
H1021 C1007 0.961 1_565 S
H1022 C1007 0.961 . S
H1023 C1007 0.961 1_556 S
H1024 C1008 0.931 . S
H1025 C1013 0.930 . S
H1026 C1014 0.956 1_565 S
H1027 C1014 0.961 1_565 S
H1028 C1014 0.961 . S
H1029 C1015 0.958 . S
H1030 C1015 0.961 . S
H1031 C1015 0.960 . S
C1032 C1033 1.391 . S
C1032 C1034 1.394 . S
C1032 H1048 0.931 . S
C1033 C1032 1.391 . S
C1033 C1037 1.376 . S
C1034 C1032 1.394 . S
C1034 C1035 1.368 1_655 S
C1034 C1038 1.531 1_654 S
C1035 C1034 1.368 1_455 S
C1035 C1036 1.410 . S
C1035 C1043 1.503 1_554 S
C1036 C1035 1.410 . S
C1036 C1037 1.392 1_455 S
C1036 C1039 1.511 . S
C1037 C1033 1.376 . S
C1037 C1036 1.392 1_655 S
C1037 H1049 0.929 . S
C1038 C1034 1.531 1_456 S
C1038 H1050 0.960 . S
C1038 H1051 0.962 1_455 S
C1038 H1052 0.960 1_455 S
C1039 C1036 1.511 . S
C1039 H1053 0.961 . S
C1039 H1054 0.961 . S
C1039 H1055 0.961 . S
C1040 C1041 1.370 . S
C1040 C1042 1.363 . S
C1040 H1056 0.931 . S
C1041 C1040 1.370 . S
C1041 C1045 1.408 . S
C1042 C1040 1.363 . S
C1042 C1043 1.370 . S
C1042 C1046 1.524 . S
C1043 C1035 1.503 1_556 S
C1043 C1042 1.370 . S
C1043 C1044 1.403 . S
C1044 C1043 1.403 . S
C1044 C1045 1.404 . S
C1044 C1047 1.539 1_556 S
C1045 C1041 1.408 . S
C1045 C1044 1.404 . S
C1045 H1057 0.930 . S
C1046 C1042 1.524 . S
C1046 H1058 0.956 1_455 S
C1046 H1059 0.961 . S
C1046 H1060 0.961 . S
C1047 C1044 1.539 1_554 S
C1047 H1061 0.958 . S
C1047 H1062 0.961 . S
C1047 H1063 0.960 . S
H1048 C1032 0.931 . S
H1049 C1037 0.929 . S
H1050 C1038 0.960 . S
H1051 C1038 0.962 1_655 S
H1052 C1038 0.960 1_655 S
H1053 C1039 0.961 . S
H1054 C1039 0.961 . S
H1055 C1039 0.961 . S
H1056 C1040 0.931 . S
H1057 C1045 0.930 . S
H1058 C1046 0.956 1_655 S
H1059 C1046 0.961 . S
H1060 C1046 0.961 . S
H1061 C1047 0.958 . S
H1062 C1047 0.961 . S
H1063 C1047 0.960 . S
C1064 C1065 1.391 . S
C1064 C1066 1.394 . S
C1064 H1080 0.931 . S
C1065 C1064 1.391 . S
C1065 C1069 1.376 . S
C1066 C1064 1.394 . S
C1066 C1067 1.369 . S
C1066 C1070 1.531 . S
C1067 C1066 1.369 . S
C1067 C1068 1.410 . S
C1067 C1075 1.503 . S
C1068 C1067 1.410 . S
C1068 C1069 1.392 . S
C1068 C1071 1.511 1_554 S
C1069 C1065 1.376 . S
C1069 C1068 1.392 . S
C1069 H1081 0.929 . S
C1070 C1066 1.531 . S
C1070 H1082 0.960 1_565 S
C1070 H1083 0.962 . S
C1070 H1084 0.960 . S
C1071 C1068 1.511 1_556 S
C1071 H1085 0.961 . S
C1071 H1086 0.961 . S
C1071 H1087 0.961 1_556 S
C1072 C1073 1.370 . S
C1072 C1074 1.363 1_545 S
C1072 H1088 0.931 . S
C1073 C1072 1.370 . S
C1073 C1077 1.408 . S
C1074 C1072 1.363 1_565 S
C1074 C1075 1.370 1_556 S
C1074 C1078 1.524 . S
C1075 C1067 1.503 . S
C1075 C1074 1.370 1_554 S
C1075 C1076 1.403 1_565 S
C1076 C1075 1.403 1_545 S
C1076 C1077 1.404 1_554 S
C1076 C1079 1.539 . S
C1077 C1073 1.408 . S
C1077 C1076 1.404 1_556 S
C1077 H1089 0.930 . S
C1078 C1074 1.524 . S
C1078 H1090 0.956 . S
C1078 H1091 0.961 . S
C1078 H1092 0.961 . S
C1079 C1076 1.539 . S
C1079 H1093 0.958 . S
C1079 H1094 0.961 . S
C1079 H1095 0.960 1_545 S
H1080 C1064 0.931 . S
H1081 C1069 0.929 . S
H1082 C1070 0.960 1_545 S
H1083 C1070 0.962 . S
H1084 C1070 0.960 . S
H1085 C1071 0.961 . S
H1086 C1071 0.961 . S
H1087 C1071 0.961 1_554 S
H1088 C1072 0.931 . S
H1089 C1077 0.930 . S
H1090 C1078 0.956 . S
H1091 C1078 0.961 . S
H1092 C1078 0.961 . S
H1093 C1079 0.958 . S
H1094 C1079 0.961 . S
H1095 C1079 0.960 1_565 S
C1096 C1097 1.391 . S
C1096 C1098 1.394 . S
C1096 H1112 0.931 . S
C1097 C1096 1.391 . S
C1097 C1101 1.376 . S
C1098 C1096 1.394 . S
C1098 C1099 1.369 . S
C1098 C1102 1.531 . S
C1099 C1098 1.369 . S
C1099 C1100 1.410 . S
C1099 C1107 1.503 1_556 S
C1100 C1099 1.410 . S
C1100 C1101 1.392 . S
C1100 C1103 1.511 . S
C1101 C1097 1.376 . S
C1101 C1100 1.392 . S
C1101 H1113 0.929 . S
C1102 C1098 1.531 . S
C1102 H1114 0.960 1_556 S
C1102 H1115 0.962 . S
C1102 H1116 0.960 . S
C1103 C1100 1.511 . S
C1103 H1117 0.961 . S
C1103 H1118 0.961 . S
C1103 H1119 0.961 . S
C1104 C1105 1.370 . S
C1104 C1106 1.363 1_554 S
C1104 H1120 0.931 . S
C1105 C1104 1.370 . S
C1105 C1109 1.408 1_455 S
C1106 C1104 1.363 1_556 S
C1106 C1107 1.370 1_456 S
C1106 C1110 1.524 . S
C1107 C1099 1.503 1_554 S
C1107 C1106 1.370 1_654 S
C1107 C1108 1.403 . S
C1108 C1107 1.403 . S
C1108 C1109 1.404 . S
C1108 C1111 1.539 . S
C1109 C1105 1.408 1_655 S
C1109 C1108 1.404 . S
C1109 H1121 0.930 . S
C1110 C1106 1.524 . S
C1110 H1122 0.956 . S
C1110 H1123 0.961 . S
C1110 H1124 0.961 . S
C1111 C1108 1.539 . S
C1111 H1125 0.958 . S
C1111 H1126 0.961 . S
C1111 H1127 0.960 . S
H1112 C1096 0.931 . S
H1113 C1101 0.929 . S
H1114 C1102 0.960 1_554 S
H1115 C1102 0.962 . S
H1116 C1102 0.960 . S
H1117 C1103 0.961 . S
H1118 C1103 0.961 . S
H1119 C1103 0.961 . S
H1120 C1104 0.931 . S
H1121 C1109 0.930 . S
H1122 C1110 0.956 . S
H1123 C1110 0.961 . S
H1124 C1110 0.961 . S
H1125 C1111 0.958 . S
H1126 C1111 0.961 . S
H1127 C1111 0.960 . S
C233 C15 2.136 . S
C241 C150 2.136 . S
C265 C179 2.143 . S
C273 C44 2.150 . S
C297 C208 2.128 . S
C305 C73 2.156 . S
C329 C102 2.154 . S
C337 C121 2.127 . S
C361 C131 2.155 . S
C369 C92 2.129 . S
C393 C160 2.161 . S
C401 C5 2.123 . S
C425 C189 2.162 . S
C433 C34 2.124 . S
C457 C218 2.154 . S
C465 C63 2.127 . S
C489 C8 1.162 . S
C497 C66 1.175 . S
C521 C95 1.146 . S
C529 C37 1.174 . S
C553 C124 1.144 . S
C561 C182 1.175 . S
C585 C153 1.164 . S
C593 C211 1.182 . S
C617 C10 2.013 . S
C625 C129 1.881 . S
C649 C158 1.904 . S
C657 C39 2.040 . S
C681 C68 2.012 . S
C689 C187 1.892 . S
C713 C216 1.909 . S
C721 C97 2.061 . S
C745 C126 2.075 . S
C753 C13 1.889 . S
C777 C155 2.075 . S
C785 C42 1.902 . S
C809 C71 1.917 . S
C817 C184 2.040 . S
C841 C100 1.842 . S
C849 C213 2.041 . S
C873 C3 0.884 . S
C881 C50 0.886 . S
C905 C79 0.902 . S
C913 C32 0.887 . S
C937 C108 0.873 . S
C945 C61 0.870 . S
C969 C21 0.832 . S
C977 C90 0.866 . S
C1001 C224 0.862 . S
C1009 C119 0.883 . S
C1033 C137 0.875 . S
C1041 C148 0.883 . S
C1065 C177 0.889 . S
C1073 C166 0.887 . S
C1097 C206 0.885 . S
C1105 C195 0.866 . S
