# Generated by pormake.
# Topology uml, (4)-cn, num edge types: 1
# Building blocks:
#     Node 0, Type 0, BuildingBlock: GALJAG_clean_sbu_0, # of connection points: 4
#     Node 1, Type 0, BuildingBlock: GALJAG_clean_sbu_0, # of connection points: 4
#     Node 2, Type 0, BuildingBlock: GALJAG_clean_sbu_0, # of connection points: 4
#     Node 3, Type 0, BuildingBlock: GALJAG_clean_sbu_0, # of connection points: 4
#     Node 4, Type 0, BuildingBlock: GALJAG_clean_sbu_0, # of connection points: 4
#     Node 5, Type 0, BuildingBlock: GALJAG_clean_sbu_0, # of connection points: 4
#     Node 6, Type 0, BuildingBlock: GALJAG_clean_sbu_0, # of connection points: 4
#     Node 7, Type 0, BuildingBlock: GALJAG_clean_sbu_0, # of connection points: 4
#     Node 8, Type 0, BuildingBlock: GALJAG_clean_sbu_0, # of connection points: 4
#     Node 9, Type 0, BuildingBlock: GALJAG_clean_sbu_0, # of connection points: 4
#     Node 10, Type 0, BuildingBlock: GALJAG_clean_sbu_0, # of connection points: 4
#     Node 11, Type 0, BuildingBlock: GALJAG_clean_sbu_0, # of connection points: 4
#     Node 12, Type 0, BuildingBlock: GALJAG_clean_sbu_0, # of connection points: 4
#     Node 13, Type 0, BuildingBlock: GALJAG_clean_sbu_0, # of connection points: 4
#     Node 14, Type 0, BuildingBlock: GALJAG_clean_sbu_0, # of connection points: 4
#     Node 15, Type 0, BuildingBlock: GALJAG_clean_sbu_0, # of connection points: 4
#     Node 16, Type 0, BuildingBlock: GALJAG_clean_sbu_0, # of connection points: 4
#     Node 17, Type 0, BuildingBlock: GALJAG_clean_sbu_0, # of connection points: 4
#     Node 18, Type 0, BuildingBlock: GALJAG_clean_sbu_0, # of connection points: 4
#     Node 19, Type 0, BuildingBlock: GALJAG_clean_sbu_0, # of connection points: 4
#     Node 20, Type 0, BuildingBlock: GALJAG_clean_sbu_0, # of connection points: 4
#     Node 21, Type 0, BuildingBlock: GALJAG_clean_sbu_0, # of connection points: 4
#     Node 22, Type 0, BuildingBlock: GALJAG_clean_sbu_0, # of connection points: 4
#     Node 23, Type 0, BuildingBlock: GALJAG_clean_sbu_0, # of connection points: 4
#     Node 24, Type 0, BuildingBlock: GALJAG_clean_sbu_0, # of connection points: 4
#     Node 25, Type 0, BuildingBlock: GALJAG_clean_sbu_0, # of connection points: 4
#     Node 26, Type 0, BuildingBlock: GALJAG_clean_sbu_0, # of connection points: 4
#     Node 27, Type 0, BuildingBlock: GALJAG_clean_sbu_0, # of connection points: 4
#     Node 28, Type 0, BuildingBlock: GALJAG_clean_sbu_0, # of connection points: 4
#     Node 29, Type 0, BuildingBlock: GALJAG_clean_sbu_0, # of connection points: 4
#     Node 30, Type 0, BuildingBlock: GALJAG_clean_sbu_0, # of connection points: 4
#     Node 31, Type 0, BuildingBlock: GALJAG_clean_sbu_0, # of connection points: 4
#     Node 32, Type 0, BuildingBlock: GALJAG_clean_sbu_0, # of connection points: 4
#     Node 33, Type 0, BuildingBlock: GALJAG_clean_sbu_0, # of connection points: 4
#     Node 34, Type 0, BuildingBlock: GALJAG_clean_sbu_0, # of connection points: 4
#     Node 35, Type 0, BuildingBlock: GALJAG_clean_sbu_0, # of connection points: 4
#     Edge 36, Type (0, 0), BuildingBlock: TEMPAE_clean_linker_10, # of connection points: 2
#     Edge 37, Type (0, 0), BuildingBlock: TEMPAE_clean_linker_10, # of connection points: 2
#     Edge 38, Type (0, 0), BuildingBlock: TEMPAE_clean_linker_10, # of connection points: 2
#     Edge 39, Type (0, 0), BuildingBlock: TEMPAE_clean_linker_10, # of connection points: 2
#     Edge 40, Type (0, 0), BuildingBlock: TEMPAE_clean_linker_10, # of connection points: 2
#     Edge 41, Type (0, 0), BuildingBlock: TEMPAE_clean_linker_10, # of connection points: 2
#     Edge 42, Type (0, 0), BuildingBlock: TEMPAE_clean_linker_10, # of connection points: 2
#     Edge 43, Type (0, 0), BuildingBlock: TEMPAE_clean_linker_10, # of connection points: 2
#     Edge 44, Type (0, 0), BuildingBlock: TEMPAE_clean_linker_10, # of connection points: 2
#     Edge 45, Type (0, 0), BuildingBlock: TEMPAE_clean_linker_10, # of connection points: 2
#     Edge 46, Type (0, 0), BuildingBlock: TEMPAE_clean_linker_10, # of connection points: 2
#     Edge 47, Type (0, 0), BuildingBlock: TEMPAE_clean_linker_10, # of connection points: 2
#     Edge 48, Type (0, 0), BuildingBlock: TEMPAE_clean_linker_10, # of connection points: 2
#     Edge 49, Type (0, 0), BuildingBlock: TEMPAE_clean_linker_10, # of connection points: 2
#     Edge 50, Type (0, 0), BuildingBlock: TEMPAE_clean_linker_10, # of connection points: 2
#     Edge 51, Type (0, 0), BuildingBlock: TEMPAE_clean_linker_10, # of connection points: 2
#     Edge 52, Type (0, 0), BuildingBlock: TEMPAE_clean_linker_10, # of connection points: 2
#     Edge 53, Type (0, 0), BuildingBlock: TEMPAE_clean_linker_10, # of connection points: 2
#     Edge 54, Type (0, 0), BuildingBlock: TEMPAE_clean_linker_10, # of connection points: 2
#     Edge 55, Type (0, 0), BuildingBlock: TEMPAE_clean_linker_10, # of connection points: 2
#     Edge 56, Type (0, 0), BuildingBlock: TEMPAE_clean_linker_10, # of connection points: 2
#     Edge 57, Type (0, 0), BuildingBlock: TEMPAE_clean_linker_10, # of connection points: 2
#     Edge 58, Type (0, 0), BuildingBlock: TEMPAE_clean_linker_10, # of connection points: 2
#     Edge 59, Type (0, 0), BuildingBlock: TEMPAE_clean_linker_10, # of connection points: 2
#     Edge 60, Type (0, 0), BuildingBlock: TEMPAE_clean_linker_10, # of connection points: 2
#     Edge 61, Type (0, 0), BuildingBlock: TEMPAE_clean_linker_10, # of connection points: 2
#     Edge 62, Type (0, 0), BuildingBlock: TEMPAE_clean_linker_10, # of connection points: 2
#     Edge 63, Type (0, 0), BuildingBlock: TEMPAE_clean_linker_10, # of connection points: 2
#     Edge 64, Type (0, 0), BuildingBlock: TEMPAE_clean_linker_10, # of connection points: 2
#     Edge 65, Type (0, 0), BuildingBlock: TEMPAE_clean_linker_10, # of connection points: 2
#     Edge 66, Type (0, 0), BuildingBlock: TEMPAE_clean_linker_10, # of connection points: 2
#     Edge 67, Type (0, 0), BuildingBlock: TEMPAE_clean_linker_10, # of connection points: 2
#     Edge 68, Type (0, 0), BuildingBlock: TEMPAE_clean_linker_10, # of connection points: 2
#     Edge 69, Type (0, 0), BuildingBlock: TEMPAE_clean_linker_10, # of connection points: 2
#     Edge 70, Type (0, 0), BuildingBlock: TEMPAE_clean_linker_10, # of connection points: 2
#     Edge 71, Type (0, 0), BuildingBlock: TEMPAE_clean_linker_10, # of connection points: 2
#     Edge 72, Type (0, 0), BuildingBlock: TEMPAE_clean_linker_10, # of connection points: 2
#     Edge 73, Type (0, 0), BuildingBlock: TEMPAE_clean_linker_10, # of connection points: 2
#     Edge 74, Type (0, 0), BuildingBlock: TEMPAE_clean_linker_10, # of connection points: 2
#     Edge 75, Type (0, 0), BuildingBlock: TEMPAE_clean_linker_10, # of connection points: 2
#     Edge 76, Type (0, 0), BuildingBlock: TEMPAE_clean_linker_10, # of connection points: 2
#     Edge 77, Type (0, 0), BuildingBlock: TEMPAE_clean_linker_10, # of connection points: 2
#     Edge 78, Type (0, 0), BuildingBlock: TEMPAE_clean_linker_10, # of connection points: 2
#     Edge 79, Type (0, 0), BuildingBlock: TEMPAE_clean_linker_10, # of connection points: 2
#     Edge 80, Type (0, 0), BuildingBlock: TEMPAE_clean_linker_10, # of connection points: 2
#     Edge 81, Type (0, 0), BuildingBlock: TEMPAE_clean_linker_10, # of connection points: 2
#     Edge 82, Type (0, 0), BuildingBlock: TEMPAE_clean_linker_10, # of connection points: 2
#     Edge 83, Type (0, 0), BuildingBlock: TEMPAE_clean_linker_10, # of connection points: 2
#     Edge 84, Type (0, 0), BuildingBlock: TEMPAE_clean_linker_10, # of connection points: 2
#     Edge 85, Type (0, 0), BuildingBlock: TEMPAE_clean_linker_10, # of connection points: 2
#     Edge 86, Type (0, 0), BuildingBlock: TEMPAE_clean_linker_10, # of connection points: 2
#     Edge 87, Type (0, 0), BuildingBlock: TEMPAE_clean_linker_10, # of connection points: 2
#     Edge 88, Type (0, 0), BuildingBlock: TEMPAE_clean_linker_10, # of connection points: 2
#     Edge 89, Type (0, 0), BuildingBlock: TEMPAE_clean_linker_10, # of connection points: 2
#     Edge 90, Type (0, 0), BuildingBlock: TEMPAE_clean_linker_10, # of connection points: 2
#     Edge 91, Type (0, 0), BuildingBlock: TEMPAE_clean_linker_10, # of connection points: 2
#     Edge 92, Type (0, 0), BuildingBlock: TEMPAE_clean_linker_10, # of connection points: 2
#     Edge 93, Type (0, 0), BuildingBlock: TEMPAE_clean_linker_10, # of connection points: 2
#     Edge 94, Type (0, 0), BuildingBlock: TEMPAE_clean_linker_10, # of connection points: 2
#     Edge 95, Type (0, 0), BuildingBlock: TEMPAE_clean_linker_10, # of connection points: 2
#     Edge 96, Type (0, 0), BuildingBlock: TEMPAE_clean_linker_10, # of connection points: 2
#     Edge 97, Type (0, 0), BuildingBlock: TEMPAE_clean_linker_10, # of connection points: 2
#     Edge 98, Type (0, 0), BuildingBlock: TEMPAE_clean_linker_10, # of connection points: 2
#     Edge 99, Type (0, 0), BuildingBlock: TEMPAE_clean_linker_10, # of connection points: 2
#     Edge 100, Type (0, 0), BuildingBlock: TEMPAE_clean_linker_10, # of connection points: 2
#     Edge 101, Type (0, 0), BuildingBlock: TEMPAE_clean_linker_10, # of connection points: 2
#     Edge 102, Type (0, 0), BuildingBlock: TEMPAE_clean_linker_10, # of connection points: 2
#     Edge 103, Type (0, 0), BuildingBlock: TEMPAE_clean_linker_10, # of connection points: 2
#     Edge 104, Type (0, 0), BuildingBlock: TEMPAE_clean_linker_10, # of connection points: 2
#     Edge 105, Type (0, 0), BuildingBlock: TEMPAE_clean_linker_10, # of connection points: 2
#     Edge 106, Type (0, 0), BuildingBlock: TEMPAE_clean_linker_10, # of connection points: 2
#     Edge 107, Type (0, 0), BuildingBlock: TEMPAE_clean_linker_10, # of connection points: 2
# Relax obj value: 0.085
# Max RMSD: 0.314
# Mean RMSD: 0.220
data_MOF--net-uml--node1-GALJAG_clean_sbu_0--edge1-TEMPAE_clean_linker_10
_symmetry_space_group_name_H-M    P1
_symmetry_Int_Tables_number       1
_symmetry_cell_setting            triclinic
loop_
_symmetry_equiv_pos_as_xyz
'x, y, z'
_cell_length_a     95.234051
_cell_length_b     95.03879
_cell_length_c     28.784352
_cell_angle_alpha  90.003541
_cell_angle_beta   90.087624
_cell_angle_gamma 116.25026
loop_
_atom_site_label
_atom_site_type_symbol
_atom_site_fract_x
_atom_site_fract_y
_atom_site_fract_z
_atom_type_partial_charge
In0 In 0.3476 0.09299 0.18171 0.0
O1 O 0.33168 0.07586 0.23629 0.0
O2 O 0.35303 0.09466 0.25879 0.0
C3 C 0.32973 0.07744 0.10777 0.0
C4 C 0.3464 0.12066 0.1845 0.0
C5 C 0.3758 0.0949 0.15903 0.0
O6 O 0.33807 0.07244 0.12959 0.0
O7 O 0.32954 0.08946 0.12538 0.0
O8 O 0.37177 0.10548 0.14861 0.0
O9 O 0.36589 0.0838 0.18278 0.0
C10 C 0.34055 0.08288 0.26999 0.0
O11 O 0.35707 0.11884 0.16318 0.0
O12 O 0.33661 0.10864 0.20531 0.0
In13 In 0.88816 0.25237 0.16159 0.0
O14 O 0.86347 0.23225 0.17053 0.0
O15 O 0.88178 0.22696 0.14633 0.0
C16 C 0.88651 0.27992 0.16025 0.0
C17 C 0.89919 0.25188 0.24736 0.0
C18 C 0.89984 0.25541 0.07526 0.0
O19 O 0.87467 0.26711 0.15122 0.0
O20 O 0.89863 0.27853 0.17181 0.0
O21 O 0.90789 0.25557 0.11059 0.0
O22 O 0.88622 0.25378 0.08409 0.0
C23 C 0.86755 0.22188 0.15731 0.0
O24 O 0.90773 0.25436 0.21163 0.0
O25 O 0.88538 0.24988 0.2394 0.0
In26 In 0.74333 0.62807 0.14088 0.0
O27 O 0.76333 0.6207 0.14725 0.0
O28 O 0.7679 0.64436 0.16216 0.0
C29 C 0.71505 0.60372 0.13014 0.0
C30 C 0.73789 0.63755 0.22336 0.0
C31 C 0.74622 0.6385 0.05298 0.0
O32 O 0.72714 0.60152 0.13659 0.0
O33 O 0.7175 0.61791 0.12969 0.0
O34 O 0.74254 0.64511 0.08581 0.0
O35 O 0.74867 0.62702 0.06501 0.0
C36 C 0.77319 0.63436 0.15945 0.0
O37 O 0.74196 0.64653 0.18829 0.0
O38 O 0.73636 0.62379 0.21652 0.0
In39 In 0.09685 0.35612 0.33383 0.0
O40 O 0.12251 0.36121 0.32625 0.0
O41 O 0.10637 0.33881 0.35187 0.0
C42 C 0.0972 0.38448 0.3375 0.0
C43 C 0.08667 0.34536 0.24764 0.0
C44 C 0.08468 0.34769 0.41942 0.0
O45 O 0.10937 0.38261 0.34462 0.0
O46 O 0.08524 0.3722 0.32586 0.0
O47 O 0.07762 0.33986 0.38385 0.0
O48 O 0.09748 0.35946 0.41112 0.0
C49 C 0.12032 0.34789 0.3413 0.0
O50 O 0.07817 0.3396 0.28306 0.0
O51 O 0.09993 0.35649 0.25611 0.0
In52 In 0.63269 0.73915 0.34208 0.0
O53 O 0.64705 0.73431 0.2868 0.0
O54 O 0.63009 0.74213 0.26557 0.0
C55 C 0.63976 0.73191 0.42586 0.0
C56 C 0.64489 0.77059 0.34822 0.0
C57 C 0.60552 0.7131 0.33836 0.0
O58 O 0.64865 0.73375 0.39134 0.0
O59 O 0.62792 0.73424 0.41812 0.0
O60 O 0.60585 0.72628 0.34835 0.0
O61 O 0.61864 0.71356 0.32855 0.0
C62 C 0.64052 0.73801 0.25367 0.0
O63 O 0.63018 0.76211 0.34899 0.0
O64 O 0.65303 0.76315 0.34563 0.0
In65 In 0.25138 0.88705 0.33387 0.0
O66 O 0.25305 0.9066 0.28426 0.0
O67 O 0.24897 0.88436 0.25596 0.0
C68 C 0.25406 0.8985 0.4205 0.0
C69 C 0.22099 0.86621 0.33768 0.0
C70 C 0.27925 0.88614 0.33468 0.0
O71 O 0.25443 0.90668 0.38526 0.0
O72 O 0.25243 0.88486 0.41146 0.0
O73 O 0.26664 0.87401 0.34309 0.0
O74 O 0.27751 0.89817 0.32424 0.0
C75 C 0.25076 0.89814 0.24833 0.0
O76 O 0.23143 0.86218 0.32503 0.0
O77 O 0.22595 0.8805 0.34825 0.0
In78 In 0.6522 0.91073 0.81782 0.0
O79 O 0.67371 0.92421 0.77204 0.0
O80 O 0.65113 0.9165 0.74175 0.0
C81 C 0.66079 0.92027 0.90588 0.0
C82 C 0.65452 0.88359 0.81557 0.0
C83 C 0.62587 0.9141 0.82373 0.0
O84 O 0.66819 0.9287 0.87172 0.0
O85 O 0.64939 0.90748 0.89501 0.0
O86 O 0.62569 0.9007 0.82265 0.0
O87 O 0.63927 0.9256 0.81991 0.0
C88 C 0.66573 0.92326 0.73607 0.0
O89 O 0.64265 0.88461 0.79937 0.0
O90 O 0.665 0.89616 0.83174 0.0
In91 In 0.10958 0.74442 0.84027 0.0
O92 O 0.1344 0.76417 0.83007 0.0
O93 O 0.11635 0.77002 0.85315 0.0
C94 C 0.1105 0.71654 0.84335 0.0
C95 C 0.09837 0.74451 0.75457 0.0
C96 C 0.09836 0.74251 0.92681 0.0
O97 O 0.12263 0.72925 0.85087 0.0
O98 O 0.09846 0.71817 0.83257 0.0
O99 O 0.09007 0.7417 0.89143 0.0
O100 O 0.112 0.7442 0.91797 0.0
C101 C 0.13053 0.7748 0.84213 0.0
O102 O 0.09002 0.74255 0.79048 0.0
O103 O 0.11208 0.74621 0.76231 0.0
In104 In 0.25467 0.36978 0.86435 0.0
O105 O 0.23283 0.37375 0.85279 0.0
O106 O 0.22998 0.35174 0.87982 0.0
C107 C 0.28044 0.39745 0.86392 0.0
C108 C 0.25574 0.35859 0.77943 0.0
C109 C 0.25948 0.3624 0.9511 0.0
O110 O 0.2672 0.39652 0.87524 0.0
O111 O 0.28028 0.3847 0.85096 0.0
O112 O 0.25993 0.35439 0.91637 0.0
O113 O 0.25652 0.37378 0.94154 0.0
C114 C 0.22352 0.36013 0.86661 0.0
O115 O 0.25925 0.35318 0.81556 0.0
O116 O 0.2519 0.36954 0.78662 0.0
In117 In 0.91136 0.66379 0.66836 0.0
O118 O 0.88553 0.65832 0.6671 0.0
O119 O 0.90202 0.68088 0.64427 0.0
C120 C 0.90342 0.63371 0.64609 0.0
C121 C 0.9185 0.67021 0.75957 0.0
C122 C 0.93309 0.67694 0.60087 0.0
O123 O 0.89741 0.64157 0.62606 0.0
O124 O 0.9129 0.64091 0.67836 0.0
O125 O 0.92587 0.68392 0.61914 0.0
O126 O 0.93031 0.66397 0.6194 0.0
C127 C 0.88787 0.67159 0.65146 0.0
O128 O 0.92853 0.67669 0.72813 0.0
O129 O 0.90523 0.66078 0.7448 0.0
In130 In 0.37282 0.25636 0.65074 0.0
O131 O 0.37626 0.23434 0.66563 0.0
O132 O 0.35402 0.23155 0.64103 0.0
C133 C 0.40073 0.28168 0.64415 0.0
C134 C 0.3635 0.25943 0.73654 0.0
C135 C 0.36372 0.25962 0.56467 0.0
O136 O 0.39922 0.26809 0.63419 0.0
O137 O 0.3885 0.28211 0.65915 0.0
O138 O 0.35758 0.26243 0.60038 0.0
O139 O 0.3741 0.25509 0.57296 0.0
C140 C 0.36232 0.22503 0.65456 0.0
O141 O 0.35705 0.2617 0.70059 0.0
O142 O 0.37454 0.25581 0.72869 0.0
In143 In 0.74519 0.10752 0.65931 0.0
O144 O 0.7439 0.08811 0.7091 0.0
O145 O 0.74744 0.1102 0.73723 0.0
C146 C 0.74313 0.09637 0.57248 0.0
C147 C 0.77534 0.12895 0.65613 0.0
C148 C 0.71715 0.108 0.65746 0.0
O149 O 0.7428 0.08816 0.60762 0.0
O150 O 0.74439 0.10986 0.58172 0.0
O151 O 0.72973 0.1203 0.65032 0.0
O152 O 0.71897 0.09597 0.66721 0.0
C153 C 0.746 0.09655 0.74498 0.0
O154 O 0.76463 0.13259 0.66881 0.0
O155 O 0.77077 0.11474 0.6452 0.0
In156 In 0.02009 0.43566 0.52718 0.0
O157 O 0.00421 0.41712 0.57834 0.0
O158 O 0.02367 0.4373 0.60505 0.0
C159 C 0.00825 0.42523 0.44204 0.0
C160 C 0.01278 0.45976 0.53366 0.0
C161 C 0.04755 0.43468 0.51393 0.0
O162 O 0.00353 0.41641 0.47731 0.0
O163 O 0.01848 0.43894 0.45043 0.0
O164 O 0.04643 0.44744 0.51285 0.0
O165 O 0.03506 0.42277 0.52408 0.0
C166 C 0.01179 0.42456 0.61372 0.0
O167 O 0.02674 0.4618 0.52842 0.0
O168 O 0.00265 0.44563 0.53639 0.0
In169 In 0.56484 0.58647 0.48451 0.0
O170 O 0.58355 0.58919 0.53915 0.0
O171 O 0.56163 0.58758 0.56196 0.0
C172 C 0.58262 0.58869 0.40826 0.0
C173 C 0.54216 0.55678 0.48844 0.0
C174 C 0.55808 0.61093 0.47074 0.0
O175 O 0.58556 0.6001 0.43519 0.0
O176 O 0.57154 0.57608 0.42156 0.0
O177 O 0.56856 0.61123 0.49804 0.0
O178 O 0.55016 0.59778 0.4516 0.0
C179 C 0.57496 0.58885 0.57313 0.0
O180 O 0.53962 0.56776 0.47158 0.0
O181 O 0.55591 0.56088 0.50312 0.0
In182 In 0.40795 0.96216 0.47719 0.0
O183 O 0.40139 0.97588 0.53058 0.0
O184 O 0.40618 0.95705 0.55403 0.0
C185 C 0.4072 0.97374 0.39256 0.0
C186 C 0.43904 0.97389 0.49021 0.0
C187 C 0.38249 0.93465 0.46506 0.0
O188 O 0.40231 0.97805 0.42818 0.0
O189 O 0.41262 0.96402 0.40027 0.0
O190 O 0.39613 0.93569 0.45953 0.0
O191 O 0.38205 0.94716 0.47766 0.0
C192 C 0.40258 0.96797 0.5646 0.0
O193 O 0.43072 0.9594 0.4821 0.0
O194 O 0.43167 0.98214 0.49085 0.0
In195 In 0.76449 0.68654 0.63305 0.0
O196 O 0.75172 0.66517 0.58685 0.0
O197 O 0.75603 0.68761 0.55983 0.0
C198 C 0.7592 0.67385 0.71913 0.0
C199 C 0.79367 0.69053 0.61431 0.0
C200 C 0.75586 0.70953 0.64608 0.0
O201 O 0.74915 0.66833 0.68707 0.0
O202 O 0.77173 0.68532 0.70724 0.0
O203 O 0.76976 0.71243 0.63548 0.0
O204 O 0.74645 0.69515 0.64879 0.0
C205 C 0.75052 0.67302 0.55296 0.0
O206 O 0.79106 0.70142 0.63119 0.0
O207 O 0.78163 0.67797 0.60596 0.0
In208 In 0.29751 0.07571 0.68856 0.0
O209 O 0.29564 0.09905 0.69101 0.0
O210 O 0.31825 0.0996 0.68897 0.0
C211 C 0.26874 0.05165 0.6897 0.0
C212 C 0.30496 0.07241 0.60087 0.0
C213 C 0.30537 0.06891 0.77239 0.0
O214 O 0.27102 0.06534 0.70165 0.0
O215 O 0.28072 0.05057 0.67511 0.0
O216 O 0.31371 0.07017 0.73698 0.0
O217 O 0.29366 0.07149 0.76539 0.0
C218 C 0.31035 0.10729 0.68958 0.0
O219 O 0.31065 0.0683 0.63523 0.0
O220 O 0.29545 0.07791 0.61112 0.0
In221 In 0.92103 0.2229 0.66285 0.0
O222 O 0.90164 0.19762 0.66425 0.0
O223 O 0.89541 0.21637 0.6528 0.0
C224 C 0.94916 0.22302 0.67309 0.0
C225 C 0.92313 0.23277 0.57464 0.0
C226 C 0.91982 0.23413 0.74782 0.0
O227 O 0.9366 0.21039 0.67563 0.0
O228 O 0.94732 0.23509 0.66402 0.0
O229 O 0.92282 0.24276 0.71207 0.0
O230 O 0.91743 0.2202 0.74007 0.0
C231 C 0.89086 0.20179 0.65716 0.0
O232 O 0.92334 0.24134 0.60869 0.0
O233 O 0.92221 0.21949 0.58549 0.0
In234 In 0.31497 0.23701 0.15091 0.0
O235 O 0.33088 0.25523 0.09823 0.0
O236 O 0.31219 0.23413 0.07326 0.0
C237 C 0.32515 0.24786 0.23695 0.0
C238 C 0.32271 0.21313 0.15168 0.0
C239 C 0.28733 0.23774 0.16116 0.0
O240 O 0.33177 0.2559 0.20128 0.0
O241 O 0.31373 0.2348 0.22847 0.0
O242 O 0.28871 0.22515 0.1647 0.0
O243 O 0.29972 0.24966 0.15005 0.0
C244 C 0.32372 0.24699 0.06344 0.0
O245 O 0.3089 0.2111 0.1432 0.0
O246 O 0.33252 0.22717 0.15886 0.0
In247 In 0.77632 0.07522 0.15996 0.0
O248 O 0.75775 0.07264 0.10591 0.0
O249 O 0.77971 0.07428 0.0825 0.0
C250 C 0.76522 0.07638 0.24512 0.0
C251 C 0.79711 0.10556 0.15484 0.0
C252 C 0.77644 0.04711 0.16928 0.0
O253 O 0.7566 0.0735 0.20936 0.0
O254 O 0.77908 0.07864 0.23732 0.0
O255 O 0.78904 0.05973 0.1708 0.0
O256 O 0.76426 0.04888 0.1618 0.0
C257 C 0.76635 0.07311 0.07176 0.0
O258 O 0.80143 0.0949 0.16216 0.0
O259 O 0.78255 0.10083 0.14998 0.0
In260 In 0.92194 0.69979 0.1898 0.0
O261 O 0.92821 0.68663 0.13307 0.0
O262 O 0.92166 0.70459 0.11337 0.0
C263 C 0.92896 0.68885 0.26813 0.0
C264 C 0.89046 0.68572 0.18694 0.0
C265 C 0.94314 0.72968 0.2057 0.0
O266 O 0.9362 0.68963 0.23064 0.0
O267 O 0.9181 0.69296 0.26516 0.0
O268 O 0.92954 0.72425 0.22295 0.0
O269 O 0.94536 0.7204 0.17889 0.0
C270 C 0.9259 0.69435 0.10046 0.0
O271 O 0.89825 0.70048 0.18301 0.0
O272 O 0.89856 0.67833 0.19252 0.0
In273 In 0.57063 0.98528 0.02602 0.0
O274 O 0.58761 0.99988 0.08321 0.0
O275 O 0.56784 0.9788 0.10231 0.0
C276 C 0.587 0.00369 0.95413 0.0
C277 C 0.54334 0.98713 0.02856 0.0
C278 C 0.56866 0.9574 0.99886 0.0
O279 O 0.59155 0.9949 0.97551 0.0
O280 O 0.57512 0.00415 0.97157 0.0
O281 O 0.55923 0.96251 0.98468 0.0
O282 O 0.57849 0.96602 0.02846 0.0
C283 C 0.57989 0.9907 0.11552 0.0
O284 O 0.54456 0.97558 0.01065 0.0
O285 O 0.55576 0.99746 0.04622 0.0
In286 In 0.03467 0.59003 0.9928 0.0
O287 O 0.0377 0.56762 0.00451 0.0
O288 O 0.01517 0.56552 0.9854 0.0
C289 C 0.06277 0.61491 0.98296 0.0
C290 C 0.02683 0.5934 0.08024 0.0
C291 C 0.02443 0.59318 0.90828 0.0
O292 O 0.06089 0.60114 0.97381 0.0
O293 O 0.05079 0.61574 0.99856 0.0
O294 O 0.01961 0.59714 0.94476 0.0
O295 O 0.03413 0.58766 0.91504 0.0
C296 C 0.02344 0.55864 0.99576 0.0
O297 O 0.01964 0.59529 0.04549 0.0
O298 O 0.03787 0.58996 0.07042 0.0
In299 In 0.41226 0.44261 0.99633 0.0
O300 O 0.41028 0.42343 0.04797 0.0
O301 O 0.41321 0.44556 0.07421 0.0
C302 C 0.41146 0.43149 0.90995 0.0
C303 C 0.4425 0.46378 0.99686 0.0
C304 C 0.38438 0.44331 0.99028 0.0
O305 O 0.41012 0.42309 0.94548 0.0
O306 O 0.41308 0.44514 0.91858 0.0
O307 O 0.39709 0.45555 0.98416 0.0
O308 O 0.38596 0.4312 0.00094 0.0
C309 C 0.41176 0.43198 0.08323 0.0
O310 O 0.43164 0.46769 0.00534 0.0
O311 O 0.438 0.44941 0.98824 0.0
In312 In 0.67623 0.76079 0.82909 0.0
O313 O 0.66287 0.74309 0.8858 0.0
O314 O 0.68227 0.76442 0.90559 0.0
C315 C 0.65837 0.74184 0.76059 0.0
C316 C 0.67187 0.78683 0.82983 0.0
C317 C 0.70471 0.76513 0.80009 0.0
O318 O 0.66787 0.73868 0.7836 0.0
O319 O 0.65707 0.75374 0.77472 0.0
O320 O 0.69708 0.77136 0.78008 0.0
O321 O 0.69829 0.75739 0.83609 0.0
C322 C 0.67132 0.75156 0.91837 0.0
O323 O 0.68442 0.78684 0.81561 0.0
O324 O 0.66175 0.7738 0.84465 0.0
In325 In 0.22271 0.92118 0.83303 0.0
O326 O 0.19757 0.90156 0.83098 0.0
O327 O 0.21645 0.89558 0.84276 0.0
C328 C 0.22289 0.94942 0.82412 0.0
C329 C 0.23243 0.92312 0.92137 0.0
C330 C 0.23367 0.92002 0.74774 0.0
O331 O 0.21022 0.93687 0.82219 0.0
O332 O 0.23499 0.94751 0.83175 0.0
O333 O 0.21988 0.91796 0.75569 0.0
O334 O 0.2423 0.92271 0.78343 0.0
C335 C 0.20188 0.89087 0.83816 0.0
O336 O 0.24111 0.92357 0.88743 0.0
O337 O 0.21914 0.92208 0.91032 0.0
In338 In 0.07461 0.29909 0.8321 0.0
O339 O 0.09723 0.29608 0.83423 0.0
O340 O 0.09863 0.319 0.84304 0.0
C341 C 0.04958 0.2712 0.82076 0.0
C342 C 0.07008 0.30542 0.92002 0.0
C343 C 0.07325 0.31037 0.74732 0.0
O344 O 0.06336 0.27264 0.81527 0.0
O345 O 0.04876 0.28353 0.83331 0.0
O346 O 0.06848 0.31473 0.78308 0.0
O347 O 0.07877 0.30074 0.75499 0.0
C348 C 0.10581 0.31059 0.84107 0.0
O349 O 0.06849 0.31307 0.88596 0.0
O350 O 0.07363 0.29448 0.90929 0.0
In351 In 0.42766 0.01869 0.97751 0.0
O352 O 0.40929 0.00173 0.92706 0.0
O353 O 0.43088 0.01899 0.9 0.0
C354 C 0.41635 0.01034 0.06392 0.0
C355 C 0.45178 0.0115 0.98502 0.0
C356 C 0.42617 0.04618 0.97904 0.0
O357 O 0.40923 0.00216 0.02892 0.0
O358 O 0.42875 0.02244 0.05465 0.0
O359 O 0.43891 0.04531 0.98521 0.0
O360 O 0.41455 0.03331 0.96964 0.0
C361 C 0.41776 0.00761 0.89165 0.0
O362 O 0.45366 0.02497 0.97232 0.0
O363 O 0.43781 0.00178 0.99309 0.0
In364 In 0.96197 0.40938 0.02562 0.0
O365 O 0.97691 0.40389 0.97374 0.0
O366 O 0.95904 0.40974 0.948 0.0
C367 C 0.97107 0.40728 0.11263 0.0
C368 C 0.97305 0.44067 0.02015 0.0
C369 C 0.93483 0.38322 0.03028 0.0
O370 O 0.97783 0.40485 0.07778 0.0
O371 O 0.96017 0.41092 0.10298 0.0
O372 O 0.93525 0.39665 0.03563 0.0
O373 O 0.94783 0.38332 0.021 0.0
C374 C 0.97009 0.40622 0.93873 0.0
O375 O 0.9585 0.43182 0.02428 0.0
O376 O 0.98167 0.43371 0.01939 0.0
In377 In 0.58776 0.56018 0.99691 0.0
O378 O 0.56829 0.53562 0.01375 0.0
O379 O 0.56212 0.55204 0.98012 0.0
C380 C 0.61006 0.55051 0.01321 0.0
C381 C 0.59103 0.57021 0.90802 0.0
C382 C 0.59231 0.58004 0.06961 0.0
O383 O 0.59786 0.54597 0.03783 0.0
O384 O 0.61033 0.55894 0.9791 0.0
O385 O 0.60344 0.58006 0.04604 0.0
O386 O 0.57897 0.57098 0.05419 0.0
C387 C 0.55755 0.53848 0.99681 0.0
O388 O 0.59296 0.57942 0.94184 0.0
O389 O 0.5878 0.55629 0.91945 0.0
In390 In 0.97706 0.57313 0.49608 0.0
O391 O 0.96913 0.54666 0.49285 0.0
O392 O 0.99235 0.56155 0.51602 0.0
C393 C 0.95116 0.57758 0.49373 0.0
C394 C 0.98849 0.58116 0.40957 0.0
C395 C 0.9861 0.58499 0.58178 0.0
O396 O 0.95052 0.56419 0.5014 0.0
O397 O 0.9647 0.58829 0.48552 0.0
O398 O 0.99453 0.59125 0.54648 0.0
O399 O 0.97332 0.5732 0.57312 0.0
C400 C 0.98211 0.54779 0.50772 0.0
O401 O 0.97677 0.56845 0.41929 0.0
O402 O 0.99465 0.59014 0.44393 0.0
In403 In 0.44495 0.41162 0.49697 0.0
O404 O 0.42573 0.40959 0.44547 0.0
O405 O 0.44757 0.41193 0.41899 0.0
C406 C 0.43378 0.41108 0.58305 0.0
C407 C 0.46613 0.44193 0.49522 0.0
C408 C 0.44569 0.38372 0.5045 0.0
O409 O 0.42534 0.40934 0.54735 0.0
O410 O 0.44754 0.41303 0.57477 0.0
O411 O 0.45791 0.3965 0.5101 0.0
O412 O 0.4336 0.38524 0.49351 0.0
C413 C 0.43406 0.41065 0.41011 0.0
O414 O 0.46996 0.43097 0.48709 0.0
O415 O 0.45183 0.43749 0.5042 0.0
In416 In 0.58727 0.03461 0.53413 0.0
O417 O 0.56544 0.03871 0.52349 0.0
O418 O 0.56253 0.01695 0.55222 0.0
C419 C 0.61256 0.06265 0.53396 0.0
C420 C 0.58877 0.02428 0.44824 0.0
C421 C 0.59417 0.02691 0.61793 0.0
O422 O 0.59939 0.06114 0.54842 0.0
O423 O 0.61249 0.05032 0.51746 0.0
O424 O 0.59131 0.01771 0.58352 0.0
O425 O 0.59317 0.03948 0.60997 0.0
C426 C 0.55608 0.02523 0.53809 0.0
O427 O 0.59261 0.01887 0.48373 0.0
O428 O 0.58433 0.03473 0.45659 0.0
In429 In 0.23337 0.31186 0.3637 0.0
O430 O 0.25067 0.32768 0.41812 0.0
O431 O 0.23144 0.30659 0.44071 0.0
C432 C 0.24361 0.32566 0.28048 0.0
C433 C 0.20812 0.31716 0.37141 0.0
C434 C 0.23591 0.28538 0.34557 0.0
O435 O 0.25255 0.32951 0.31562 0.0
O436 O 0.22991 0.31533 0.28813 0.0
O437 O 0.22283 0.28578 0.3455 0.0
O438 O 0.24741 0.29807 0.35693 0.0
C439 C 0.2434 0.31896 0.45188 0.0
O440 O 0.20702 0.30363 0.3632 0.0
O441 O 0.22189 0.32784 0.37664 0.0
In442 In 0.7052 0.92003 0.3196 0.0
O443 O 0.68739 0.92192 0.36931 0.0
O444 O 0.70957 0.92524 0.3963 0.0
C445 C 0.69579 0.92404 0.23468 0.0
C446 C 0.69533 0.88874 0.32556 0.0
C447 C 0.73305 0.94508 0.30893 0.0
O448 O 0.69057 0.92756 0.27112 0.0
O449 O 0.70533 0.91834 0.24168 0.0
O450 O 0.73138 0.93135 0.30008 0.0
O451 O 0.72101 0.94578 0.32454 0.0
C452 C 0.69637 0.92482 0.40419 0.0
O453 O 0.70903 0.89832 0.33799 0.0
O454 O 0.68704 0.89497 0.31007 0.0
In455 In 0.07498 0.77308 0.34003 0.0
O456 O 0.09425 0.79844 0.33617 0.0
O457 O 0.10067 0.77992 0.34965 0.0
C458 C 0.0462 0.77162 0.33332 0.0
C459 C 0.07353 0.76322 0.42798 0.0
C460 C 0.07621 0.76256 0.25416 0.0
O461 O 0.05833 0.78471 0.33424 0.0
O462 O 0.04882 0.75975 0.33673 0.0
O463 O 0.07413 0.75395 0.28961 0.0
O464 O 0.07762 0.77615 0.26258 0.0
C465 C 0.10512 0.79443 0.34378 0.0
O466 O 0.07318 0.75467 0.39371 0.0
O467 O 0.07429 0.77647 0.41745 0.0
C468 C 0.30503 0.07893 0.51709 0.0
C469 C 0.30951 0.07154 0.55228 0.0
C470 C 0.30999 0.07919 0.47117 0.0
C471 C 0.31951 0.0717 0.45998 0.0
C472 C 0.32363 0.06374 0.49503 0.0
C473 C 0.31867 0.06386 0.54095 0.0
C474 C 0.30547 0.08796 0.43493 0.0
C475 C 0.33356 0.05542 0.48422 0.0
C476 C 0.32223 0.0655 0.33059 0.0
C477 C 0.33609 0.07872 0.31906 0.0
C478 C 0.31707 0.06254 0.37688 0.0
C479 C 0.3259 0.07317 0.41217 0.0
C480 C 0.34024 0.08616 0.4009 0.0
C481 C 0.3452 0.08871 0.35453 0.0
C482 C 0.30185 0.04843 0.38769 0.0
C483 C 0.34994 0.09785 0.43742 0.0
H484 H 0.29795 0.0849 0.52564 0.0
H485 H 0.32208 0.05805 0.56803 0.0
H486 H 0.31615 0.09785 0.42114 0.0
H487 H 0.29952 0.08011 0.40528 0.0
H488 H 0.29758 0.09272 0.44901 0.0
H489 H 0.33461 0.04867 0.51442 0.0
H490 H 0.32851 0.04729 0.4545 0.0
H491 H 0.34547 0.06412 0.47387 0.0
H492 H 0.31519 0.05769 0.30331 0.0
H493 H 0.35595 0.09894 0.34586 0.0
H494 H 0.29287 0.05235 0.39738 0.0
H495 H 0.30333 0.0419 0.41776 0.0
H496 H 0.29741 0.04031 0.35761 0.0
H497 H 0.34335 0.10411 0.45107 0.0
H498 H 0.36131 0.10668 0.42356 0.0
H499 H 0.35226 0.09174 0.46712 0.0
C500 C 0.92423 0.25227 0.51429 0.0
C501 C 0.92269 0.23731 0.52564 0.0
C502 C 0.92228 0.25606 0.46828 0.0
C503 C 0.9185 0.24455 0.43303 0.0
C504 C 0.91755 0.22964 0.44407 0.0
C505 C 0.91975 0.22624 0.49016 0.0
C506 C 0.9236 0.27216 0.45776 0.0
C507 C 0.9134 0.21697 0.40766 0.0
C508 C 0.89362 0.24554 0.33128 0.0
C509 C 0.90454 0.25081 0.29497 0.0
C510 C 0.89811 0.24372 0.37641 0.0
C511 C 0.91396 0.24744 0.38574 0.0
C512 C 0.92514 0.25315 0.34951 0.0
C513 C 0.92027 0.25467 0.30437 0.0
C514 C 0.88577 0.23743 0.41387 0.0
C515 C 0.94218 0.25742 0.35831 0.0
H516 H 0.9266 0.26091 0.54153 0.0
H517 H 0.91856 0.21465 0.49865 0.0
H518 H 0.93123 0.27727 0.42712 0.0
H519 H 0.91187 0.27124 0.44908 0.0
H520 H 0.9284 0.28032 0.48762 0.0
H521 H 0.91428 0.20643 0.42111 0.0
H522 H 0.90123 0.21337 0.39542 0.0
H523 H 0.9212 0.22147 0.37709 0.0
H524 H 0.88143 0.24252 0.32427 0.0
H525 H 0.92876 0.25882 0.27646 0.0
H526 H 0.88901 0.24575 0.44348 0.0
H527 H 0.88501 0.22618 0.42733 0.0
H528 H 0.87401 0.23541 0.4011 0.0
H529 H 0.94666 0.26588 0.38751 0.0
H530 H 0.94956 0.26264 0.32722 0.0
H531 H 0.94347 0.2468 0.36859 0.0
C532 C 0.73687 0.6717 0.47799 0.0
C533 C 0.74514 0.6661 0.50681 0.0
C534 C 0.73331 0.66642 0.43194 0.0
C535 C 0.73884 0.65593 0.41395 0.0
C536 C 0.74693 0.65002 0.44341 0.0
C537 C 0.74969 0.65494 0.48985 0.0
C538 C 0.72404 0.67242 0.40222 0.0
C539 C 0.75349 0.63923 0.42524 0.0
C540 C 0.72518 0.63336 0.30093 0.0
C541 C 0.73677 0.64311 0.27018 0.0
C542 C 0.72508 0.63786 0.34734 0.0
C543 C 0.73733 0.65205 0.36361 0.0
C544 C 0.74891 0.66205 0.33225 0.0
C545 C 0.74828 0.65758 0.28558 0.0
C546 C 0.71217 0.62723 0.3792 0.0
C547 C 0.76247 0.67701 0.34851 0.0
H548 H 0.73333 0.6803 0.49138 0.0
H549 H 0.75626 0.6508 0.51216 0.0
H550 H 0.73181 0.68067 0.3758 0.0
H551 H 0.71461 0.66257 0.38335 0.0
H552 H 0.7187 0.67862 0.42311 0.0
H553 H 0.7593 0.63553 0.45289 0.0
H554 H 0.74405 0.62859 0.40957 0.0
H555 H 0.76216 0.64527 0.39751 0.0
H556 H 0.71626 0.62217 0.28872 0.0
H557 H 0.75736 0.66498 0.26173 0.0
H558 H 0.70747 0.63413 0.39952 0.0
H559 H 0.71688 0.62155 0.40434 0.0
H560 H 0.7024 0.6179 0.35974 0.0
H561 H 0.75811 0.68478 0.36546 0.0
H562 H 0.77036 0.68354 0.31956 0.0
H563 H 0.7694 0.6742 0.37479 0.0
C564 C 0.06477 0.32154 0.98012 0.0
C565 C 0.06911 0.30965 0.969 0.0
C566 C 0.06544 0.3267 0.02621 0.0
C567 C 0.07076 0.31993 0.06176 0.0
C568 C 0.07448 0.30743 0.05095 0.0
C569 C 0.07353 0.3024 0.00475 0.0
C570 C 0.06116 0.3399 0.03647 0.0
C571 C 0.08034 0.29997 0.08771 0.0
C572 C 0.09291 0.34527 0.16376 0.0
C573 C 0.08199 0.33929 0.19989 0.0
C574 C 0.08925 0.33925 0.11859 0.0
C575 C 0.07421 0.32702 0.10904 0.0
C576 C 0.06296 0.32119 0.14504 0.0
C577 C 0.06701 0.32735 0.19022 0.0
C578 C 0.10165 0.34571 0.08135 0.0
C579 C 0.04676 0.30828 0.13598 0.0
H580 H 0.06123 0.32711 0.95266 0.0
H581 H 0.07686 0.29316 0.99643 0.0
H582 H 0.05326 0.33697 0.06696 0.0
H583 H 0.0719 0.35067 0.04524 0.0
H584 H 0.05536 0.3425 0.00642 0.0
H585 H 0.08142 0.28952 0.07445 0.0
H586 H 0.09201 0.30864 0.10021 0.0
H587 H 0.07236 0.29641 0.11805 0.0
H588 H 0.10451 0.3545 0.17094 0.0
H589 H 0.05851 0.32273 0.21801 0.0
H590 H 0.09726 0.35002 0.05154 0.0
H591 H 0.10444 0.33627 0.06814 0.0
H592 H 0.11264 0.35549 0.09425 0.0
H593 H 0.04128 0.31147 0.10634 0.0
H594 H 0.03902 0.30584 0.16679 0.0
H595 H 0.04754 0.29735 0.12627 0.0
C596 C 0.63864 0.74411 0.17055 0.0
C597 C 0.64491 0.73796 0.20455 0.0
C598 C 0.64314 0.74493 0.12397 0.0
C599 C 0.65408 0.73931 0.11098 0.0
C600 C 0.66013 0.73266 0.14489 0.0
C601 C 0.65553 0.73214 0.19146 0.0
C602 C 0.63651 0.75222 0.0889 0.0
C603 C 0.67167 0.7264 0.13211 0.0
C604 C 0.6556 0.73317 0.98122 0.0
C605 C 0.66801 0.74742 0.96792 0.0
C606 C 0.65141 0.72995 0.02817 0.0
C607 C 0.65977 0.74133 0.06231 0.0
C608 C 0.67275 0.75543 0.04918 0.0
C609 C 0.67675 0.75827 0.00215 0.0
C610 C 0.63763 0.7147 0.04099 0.0
C611 C 0.6819 0.76791 0.08452 0.0
H612 H 0.63042 0.74862 0.18047 0.0
H613 H 0.66033 0.72729 0.21765 0.0
H614 H 0.64611 0.76288 0.07386 0.0
H615 H 0.63089 0.74394 0.05989 0.0
H616 H 0.62774 0.75556 0.10445 0.0
H617 H 0.67437 0.72055 0.16188 0.0
H618 H 0.66701 0.71789 0.10308 0.0
H619 H 0.68275 0.73615 0.11993 0.0
H620 H 0.64887 0.72471 0.95487 0.0
H621 H 0.6864 0.76929 0.99207 0.0
H622 H 0.62776 0.71706 0.0525 0.0
H623 H 0.6407 0.70904 0.07041 0.0
H624 H 0.63357 0.70636 0.01134 0.0
H625 H 0.67429 0.77285 0.09941 0.0
H626 H 0.69239 0.77765 0.06914 0.0
H627 H 0.68572 0.76275 0.1136 0.0
C628 C 0.24475 0.89278 0.16409 0.0
C629 C 0.24976 0.90359 0.20082 0.0
C630 C 0.24305 0.89738 0.11901 0.0
C631 C 0.24661 0.91326 0.11018 0.0
C632 C 0.25204 0.92434 0.14686 0.0
C633 C 0.25346 0.91935 0.19191 0.0
C634 C 0.23704 0.88514 0.08105 0.0
C635 C 0.25613 0.9414 0.13861 0.0
C636 C 0.25177 0.92413 0.98211 0.0
C637 C 0.23683 0.92249 0.97041 0.0
C638 C 0.25543 0.92199 0.02811 0.0
C639 C 0.2438 0.91791 0.06296 0.0
C640 C 0.22889 0.91683 0.05158 0.0
C641 C 0.22563 0.91923 0.00553 0.0
C642 C 0.27153 0.92346 0.03903 0.0
C643 C 0.2161 0.91235 0.08754 0.0
H644 H 0.24186 0.88057 0.17072 0.0
H645 H 0.2574 0.92777 0.22015 0.0
H646 H 0.2258 0.88427 0.06729 0.0
H647 H 0.24545 0.8886 0.05175 0.0
H648 H 0.23514 0.87336 0.09345 0.0
H649 H 0.26117 0.94871 0.17002 0.0
H650 H 0.26467 0.94607 0.10976 0.0
H651 H 0.2455 0.94258 0.12808 0.0
H652 H 0.26051 0.92674 0.95515 0.0
H653 H 0.21405 0.91796 0.99676 0.0
H654 H 0.27072 0.91173 0.04735 0.0
H655 H 0.27647 0.93101 0.07001 0.0
H656 H 0.27976 0.92845 0.0095 0.0
H657 H 0.21264 0.90015 0.09932 0.0
H658 H 0.20554 0.91311 0.07386 0.0
H659 H 0.22039 0.92007 0.11845 0.0
C660 C 0.66677 0.93461 0.65759 0.0
C661 C 0.67259 0.92736 0.68943 0.0
C662 C 0.67142 0.93633 0.61084 0.0
C663 C 0.68146 0.92989 0.59539 0.0
C664 C 0.68764 0.92287 0.62785 0.0
C665 C 0.68336 0.92199 0.67478 0.0
C666 C 0.66517 0.94454 0.57777 0.0
C667 C 0.69794 0.91538 0.6126 0.0
C668 C 0.67764 0.91609 0.47008 0.0
C669 C 0.69178 0.92705 0.45128 0.0
C670 C 0.67408 0.91695 0.517 0.0
C671 C 0.68464 0.92945 0.54495 0.0
C672 C 0.69856 0.94103 0.52517 0.0
C673 C 0.70215 0.93946 0.47876 0.0
C674 C 0.65937 0.90407 0.53715 0.0
C675 C 0.70978 0.95489 0.55318 0.0
H676 H 0.65839 0.93871 0.66915 0.0
H677 H 0.68761 0.91613 0.69945 0.0
H678 H 0.67478 0.95307 0.55602 0.0
H679 H 0.65648 0.93583 0.55403 0.0
H680 H 0.65943 0.95083 0.59638 0.0
H681 H 0.70205 0.91072 0.64234 0.0
H682 H 0.69135 0.90558 0.5883 0.0
H683 H 0.70831 0.92398 0.59362 0.0
H684 H 0.66976 0.90641 0.44872 0.0
H685 H 0.71308 0.94794 0.46387 0.0
H686 H 0.65184 0.90909 0.55204 0.0
H687 H 0.66249 0.89817 0.56586 0.0
H688 H 0.65248 0.89512 0.51081 0.0
H689 H 0.70335 0.96061 0.57112 0.0
H690 H 0.71908 0.96375 0.53123 0.0
H691 H 0.71545 0.95088 0.58035 0.0
C692 C 0.07757 0.76988 0.51224 0.0
C693 C 0.07424 0.75872 0.47682 0.0
C694 C 0.07994 0.76649 0.55816 0.0
C695 C 0.07875 0.75148 0.56912 0.0
C696 C 0.07463 0.7399 0.53395 0.0
C697 C 0.07253 0.74369 0.48807 0.0
C698 C 0.08449 0.77924 0.59446 0.0
C699 C 0.07302 0.72369 0.54445 0.0
C700 C 0.1037 0.75027 0.6703 0.0
C701 C 0.09291 0.74538 0.70696 0.0
C702 C 0.09914 0.75198 0.62519 0.0
C703 C 0.08333 0.74853 0.61625 0.0
C704 C 0.07225 0.74315 0.65282 0.0
C705 C 0.07721 0.74175 0.69793 0.0
C706 C 0.11137 0.75794 0.58735 0.0
C707 C 0.05526 0.73915 0.64443 0.0
H708 H 0.0789 0.78152 0.5038 0.0
H709 H 0.06987 0.73499 0.46087 0.0
H710 H 0.07674 0.77494 0.62519 0.0
H711 H 0.09663 0.78256 0.60643 0.0
H712 H 0.08388 0.78992 0.58102 0.0
H713 H 0.06802 0.71553 0.51469 0.0
H714 H 0.08469 0.7244 0.5528 0.0
H715 H 0.06546 0.71873 0.57528 0.0
H716 H 0.11587 0.75311 0.67704 0.0
H717 H 0.06881 0.73788 0.72612 0.0
H718 H 0.11236 0.76928 0.57382 0.0
H719 H 0.10784 0.74955 0.55787 0.0
H720 H 0.12308 0.7597 0.59979 0.0
H721 H 0.05415 0.74988 0.63434 0.0
H722 H 0.04792 0.73403 0.67566 0.0
H723 H 0.05058 0.7307 0.61525 0.0
C724 C 0.2373 0.31475 0.5364 0.0
C725 C 0.24757 0.32347 0.50102 0.0
C726 C 0.23991 0.31987 0.5827 0.0
C727 C 0.25322 0.33395 0.59404 0.0
C728 C 0.26413 0.34232 0.5589 0.0
C729 C 0.26112 0.33704 0.51266 0.0
C730 C 0.22789 0.31068 0.61897 0.0
C731 C 0.27859 0.35725 0.56975 0.0
C732 C 0.24857 0.35685 0.69576 0.0
C733 C 0.25568 0.35251 0.73208 0.0
C734 C 0.2479 0.35103 0.6507 0.0
C735 C 0.25471 0.34076 0.64141 0.0
C736 C 0.26221 0.33658 0.67768 0.0
C737 C 0.2625 0.34241 0.72281 0.0
C738 C 0.23958 0.35561 0.61321 0.0
C739 C 0.26981 0.32587 0.66887 0.0
H740 H 0.22682 0.30424 0.52767 0.0
H741 H 0.26915 0.34377 0.48549 0.0
H742 H 0.23363 0.30835 0.64956 0.0
H743 H 0.22189 0.31769 0.63123 0.0
H744 H 0.21891 0.29931 0.60535 0.0
H745 H 0.28689 0.3612 0.54006 0.0
H746 H 0.27518 0.3667 0.57827 0.0
H747 H 0.28473 0.3556 0.60055 0.0
H748 H 0.24324 0.36462 0.70272 0.0
H749 H 0.26809 0.33911 0.75074 0.0
H750 H 0.22961 0.34498 0.59938 0.0
H751 H 0.24765 0.36124 0.58385 0.0
H752 H 0.23504 0.36384 0.62609 0.0
H753 H 0.26081 0.31412 0.65804 0.0
H754 H 0.27595 0.32447 0.70011 0.0
H755 H 0.27836 0.33053 0.64003 0.0
C756 C 0.93638 0.68413 0.82609 0.0
C757 C 0.92162 0.67344 0.80976 0.0
C758 C 0.93897 0.68763 0.87376 0.0
C759 C 0.92646 0.68031 0.90552 0.0
C760 C 0.91167 0.66921 0.88921 0.0
C761 C 0.90945 0.6659 0.84163 0.0
C762 C 0.95492 0.69945 0.88999 0.0
C763 C 0.89799 0.66121 0.92182 0.0
C764 C 0.93173 0.67981 0.03638 0.0
C765 C 0.9275 0.6915 0.05066 0.0
C766 C 0.93222 0.6765 0.98894 0.0
C767 C 0.92829 0.68505 0.95526 0.0
C768 C 0.92456 0.69724 0.96954 0.0
C769 C 0.92425 0.70033 0.017 0.0
C770 C 0.93636 0.66349 0.97495 0.0
C771 C 0.92022 0.70658 0.93481 0.0
H772 H 0.94584 0.68993 0.80159 0.0
H773 H 0.89801 0.65756 0.82929 0.0
H774 H 0.95419 0.71007 0.90325 0.0
H775 H 0.95904 0.69457 0.91909 0.0
H776 H 0.96375 0.70303 0.86169 0.0
H777 H 0.88749 0.65227 0.9039 0.0
H778 H 0.90123 0.65541 0.95052 0.0
H779 H 0.89483 0.67006 0.93767 0.0
H780 H 0.93435 0.67302 0.06226 0.0
H781 H 0.92105 0.70946 0.02776 0.0
H782 H 0.94538 0.66758 0.94729 0.0
H783 H 0.92585 0.65353 0.96051 0.0
H784 H 0.94076 0.65915 0.00474 0.0
H785 H 0.92932 0.71145 0.90751 0.0
H786 H 0.91874 0.71641 0.95134 0.0
H787 H 0.90907 0.69877 0.91734 0.0
C788 C 0.34163 0.2656 0.00391 0.0
C789 C 0.32888 0.25128 0.01482 0.0
C790 C 0.34729 0.26895 0.9581 0.0
C791 C 0.34015 0.25761 0.92276 0.0
C792 C 0.32693 0.24338 0.93342 0.0
C793 C 0.32141 0.24045 0.97919 0.0
C794 C 0.36127 0.28434 0.94788 0.0
C795 C 0.31906 0.23089 0.89696 0.0
C796 C 0.3473 0.26599 0.79343 0.0
C797 C 0.35827 0.26023 0.78442 0.0
C798 C 0.34182 0.26596 0.83883 0.0
C799 C 0.34726 0.25977 0.8757 0.0
C800 C 0.35863 0.25432 0.86683 0.0
C801 C 0.36406 0.25471 0.82142 0.0
C802 C 0.3299 0.27212 0.84712 0.0
C803 C 0.36458 0.24742 0.90497 0.0
H804 H 0.34739 0.27405 0.03127 0.0
H805 H 0.31152 0.22936 0.98731 0.0
H806 H 0.37157 0.28222 0.94001 0.0
H807 H 0.35899 0.28995 0.91681 0.0
H808 H 0.36426 0.29263 0.9776 0.0
H809 H 0.30835 0.22089 0.91028 0.0
H810 H 0.31582 0.23592 0.86635 0.0
H811 H 0.32732 0.22633 0.88482 0.0
H812 H 0.34289 0.27038 0.76499 0.0
H813 H 0.37255 0.25025 0.81471 0.0
H814 H 0.3336 0.28052 0.8766 0.0
H815 H 0.31851 0.26228 0.85663 0.0
H816 H 0.32814 0.27806 0.81596 0.0
H817 H 0.36921 0.2558 0.9343 0.0
H818 H 0.37397 0.2444 0.89273 0.0
H819 H 0.3548 0.23662 0.91863 0.0
C820 C 0.75221 0.1022 0.82901 0.0
C821 C 0.74729 0.09128 0.79253 0.0
C822 C 0.75426 0.09783 0.87406 0.0
C823 C 0.75113 0.08208 0.88316 0.0
C824 C 0.74577 0.07088 0.84676 0.0
C825 C 0.74402 0.07565 0.8017 0.0
C826 C 0.76018 0.11019 0.9117 0.0
C827 C 0.74212 0.05394 0.8553 0.0
C828 C 0.77287 0.07699 0.98737 0.0
C829 C 0.76175 0.07356 0.02282 0.0
C830 C 0.76935 0.07915 0.94137 0.0
C831 C 0.75426 0.07768 0.93038 0.0
C832 C 0.74273 0.07346 0.96559 0.0
C833 C 0.74665 0.07155 0.01152 0.0
C834 C 0.78204 0.08381 0.90503 0.0
C835 C 0.72645 0.07156 0.95511 0.0
H836 H 0.7548 0.11432 0.82218 0.0
H837 H 0.74014 0.06715 0.77366 0.0
H838 H 0.75188 0.10664 0.94129 0.0
H839 H 0.77158 0.11137 0.92513 0.0
H840 H 0.76176 0.12185 0.89911 0.0
H841 H 0.7371 0.0465 0.82411 0.0
H842 H 0.75295 0.05309 0.86554 0.0
H843 H 0.73371 0.04918 0.88445 0.0
H844 H 0.78457 0.07855 0.99583 0.0
H845 H 0.73798 0.06882 0.03873 0.0
H846 H 0.78518 0.09593 0.893 0.0
H847 H 0.77778 0.07599 0.87433 0.0
H848 H 0.79278 0.08337 0.91845 0.0
H849 H 0.72695 0.08316 0.94656 0.0
H850 H 0.71838 0.06653 0.98493 0.0
H851 H 0.72154 0.06387 0.9244 0.0
C852 C 0.98657 0.40075 0.88036 0.0
C853 C 0.97531 0.40604 0.89048 0.0
C854 C 0.99245 0.4018 0.83505 0.0
C855 C 0.98712 0.40854 0.79943 0.0
C856 C 0.97542 0.41347 0.80928 0.0
C857 C 0.96958 0.41205 0.85458 0.0
C858 C 0.00471 0.39616 0.82564 0.0
C859 C 0.96954 0.42089 0.77244 0.0
C860 C 0.01359 0.42986 0.69882 0.0
C861 C 0.0065 0.41954 0.6618 0.0
C862 C 0.00772 0.42615 0.74411 0.0
C863 C 0.99455 0.41165 0.75273 0.0
C864 C 0.98781 0.40084 0.71591 0.0
C865 C 0.9938 0.40497 0.67071 0.0
C866 C 0.01514 0.43809 0.78228 0.0
C867 C 0.97393 0.38517 0.72395 0.0
H868 H 0.99097 0.39602 0.90797 0.0
H869 H 0.96088 0.41617 0.86219 0.0
H870 H 0.00141 0.38836 0.79475 0.0
H871 H 0.01606 0.40633 0.81782 0.0
H872 H 0.00638 0.38972 0.85568 0.0
H873 H 0.9599 0.42344 0.78525 0.0
H874 H 0.97929 0.43205 0.76061 0.0
H875 H 0.96529 0.41308 0.74174 0.0
H876 H 0.02341 0.44114 0.69215 0.0
H877 H 0.98833 0.39692 0.64223 0.0
H878 H 0.01831 0.43268 0.81212 0.0
H879 H 0.00663 0.44222 0.79508 0.0
H880 H 0.02583 0.44842 0.77037 0.0
H881 H 0.97614 0.37912 0.75404 0.0
H882 H 0.97122 0.3774 0.69302 0.0
H883 H 0.96348 0.38697 0.73233 0.0
C884 C 0.56835 0.58613 0.6574 0.0
C885 C 0.57948 0.58884 0.6224 0.0
C886 C 0.57174 0.58465 0.70404 0.0
C887 C 0.58673 0.58611 0.71624 0.0
C888 C 0.59827 0.58953 0.68136 0.0
C889 C 0.59448 0.59075 0.63471 0.0
C890 C 0.55902 0.58082 0.73995 0.0
C891 C 0.61445 0.59139 0.69312 0.0
C892 C 0.59553 0.5904 0.84604 0.0
C893 C 0.59148 0.57483 0.85867 0.0
C894 C 0.59479 0.59445 0.79935 0.0
C895 C 0.58968 0.5826 0.76476 0.0
C896 C 0.58605 0.56697 0.77727 0.0
C897 C 0.58709 0.56331 0.82393 0.0
C898 C 0.59897 0.61129 0.78726 0.0
C899 C 0.58039 0.55393 0.74167 0.0
H900 H 0.55673 0.58465 0.6482 0.0
H901 H 0.60316 0.59293 0.60784 0.0
H902 H 0.55587 0.56902 0.75471 0.0
H903 H 0.56326 0.58935 0.76903 0.0
H904 H 0.54828 0.58094 0.72521 0.0
H905 H 0.62257 0.59574 0.66311 0.0
H906 H 0.61943 0.59966 0.7226 0.0
H907 H 0.61376 0.57992 0.70416 0.0
H908 H 0.59902 0.59938 0.8727 0.0
H909 H 0.58396 0.55125 0.83337 0.0
H910 H 0.58827 0.61231 0.7764 0.0
H911 H 0.60723 0.61517 0.75755 0.0
H912 H 0.60434 0.61933 0.81704 0.0
H913 H 0.56899 0.55239 0.72714 0.0
H914 H 0.57885 0.54257 0.75662 0.0
H915 H 0.58877 0.55698 0.71238 0.0
C916 C 0.42415 0.00744 0.80801 0.0
C917 C 0.41319 0.00144 0.84402 0.0
C918 C 0.42057 0.00137 0.76292 0.0
C919 C 0.40558 0.98907 0.75335 0.0
C920 C 0.39429 0.98321 0.78922 0.0
C921 C 0.39826 0.98942 0.83435 0.0
C922 C 0.43302 0.00786 0.72579 0.0
C923 C 0.37813 0.97023 0.78008 0.0
C924 C 0.39662 0.9837 0.62434 0.0
C925 C 0.40117 0.97194 0.61347 0.0
C926 C 0.39699 0.98872 0.67043 0.0
C927 C 0.40223 0.98195 0.70618 0.0
C928 C 0.4061 0.96954 0.69561 0.0
C929 C 0.40543 0.96463 0.6494 0.0
C930 C 0.39254 0.00182 0.68047 0.0
C931 C 0.41189 0.96211 0.73262 0.0
H932 H 0.43571 0.01673 0.81524 0.0
H933 H 0.38974 0.98479 0.86207 0.0
H934 H 0.43585 0.99843 0.71268 0.0
H935 H 0.42863 0.01214 0.6959 0.0
H936 H 0.44397 0.01765 0.73875 0.0
H937 H 0.37035 0.96777 0.81079 0.0
H938 H 0.37265 0.97336 0.7503 0.0
H939 H 0.37898 0.95933 0.77053 0.0
H940 H 0.39319 0.9893 0.59671 0.0
H941 H 0.40892 0.95549 0.64123 0.0
H942 H 0.40321 0.01267 0.68915 0.0
H943 H 0.38462 0.99886 0.71093 0.0
H944 H 0.38669 0.00431 0.65033 0.0
H945 H 0.42354 0.97079 0.74522 0.0
H946 H 0.413 0.95165 0.71954 0.0
H947 H 0.40386 0.95857 0.76285 0.0
C948 C 0.58212 0.02351 0.36445 0.0
C949 C 0.58916 0.01889 0.40029 0.0
C950 C 0.58202 0.01849 0.31868 0.0
C951 C 0.58931 0.00873 0.30822 0.0
C952 C 0.5967 0.00423 0.34407 0.0
C953 C 0.59644 0.00928 0.3899 0.0
C954 C 0.57383 0.02342 0.28163 0.0
C955 C 0.60476 0.994 0.33404 0.0
C956 C 0.57325 0.98465 0.19915 0.0
C957 C 0.58369 0.99421 0.16532 0.0
C958 C 0.57542 0.98881 0.24626 0.0
C959 C 0.58846 0.0028 0.25996 0.0
C960 C 0.59958 0.012 0.22632 0.0
C961 C 0.59701 0.00764 0.17926 0.0
C962 C 0.56322 0.97874 0.28092 0.0
C963 C 0.61374 0.02688 0.23969 0.0
H964 H 0.57645 0.03092 0.37227 0.0
H965 H 0.60197 0.00576 0.41748 0.0
H966 H 0.58213 0.0297 0.25331 0.0
H967 H 0.56418 0.01289 0.26607 0.0
H968 H 0.56887 0.03118 0.29548 0.0
H969 H 0.61064 0.9922 0.36526 0.0
H970 H 0.5961 0.98238 0.32117 0.0
H971 H 0.6136 0.99936 0.30624 0.0
H972 H 0.56295 0.97422 0.18864 0.0
H973 H 0.60517 0.01502 0.15327 0.0
H974 H 0.55676 0.98521 0.29394 0.0
H975 H 0.56884 0.97612 0.3113 0.0
H976 H 0.55464 0.96749 0.26549 0.0
H977 H 0.61 0.036 0.24939 0.0
H978 H 0.62232 0.03147 0.21083 0.0
H979 H 0.61965 0.02484 0.27039 0.0
C980 C 0.00623 0.59967 0.34952 0.0
C981 C 0.99448 0.58482 0.36149 0.0
C982 C 0.01197 0.60291 0.30376 0.0
C983 C 0.00593 0.59096 0.26958 0.0
C984 C 0.99398 0.57602 0.28155 0.0
C985 C 0.98836 0.57318 0.32721 0.0
C986 C 0.0246 0.61903 0.2921 0.0
C987 C 0.98734 0.56289 0.24636 0.0
C988 C 0.01031 0.59849 0.13948 0.0
C989 C 0.02237 0.59435 0.12894 0.0
C990 C 0.00535 0.59826 0.18559 0.0
C991 C 0.01252 0.59363 0.22177 0.0
C992 C 0.02507 0.59 0.21141 0.0
C993 C 0.02987 0.59046 0.16519 0.0
C994 C 0.99205 0.60239 0.19537 0.0
C995 C 0.03295 0.58487 0.24885 0.0
H996 H 0.01094 0.60873 0.37587 0.0
H997 H 0.97929 0.56166 0.33623 0.0
H998 H 0.03543 0.61822 0.28172 0.0
H999 H 0.02092 0.62395 0.26212 0.0
H1000 H 0.02739 0.62728 0.32185 0.0
H1001 H 0.97785 0.55205 0.26106 0.0
H1002 H 0.98262 0.56661 0.21601 0.0
H1003 H 0.99676 0.56005 0.23342 0.0
H1004 H 0.00454 0.60161 0.11163 0.0
H1005 H 0.03924 0.58731 0.15734 0.0
H1006 H 0.99518 0.61095 0.22435 0.0
H1007 H 0.98157 0.5917 0.20631 0.0
H1008 H 0.98892 0.6074 0.16445 0.0
H1009 H 0.03677 0.59343 0.27788 0.0
H1010 H 0.04329 0.58361 0.23561 0.0
H1011 H 0.02449 0.57341 0.26325 0.0
C1012 C 0.41695 0.43808 0.16748 0.0
C1013 C 0.41261 0.427 0.13148 0.0
C1014 C 0.41901 0.43411 0.21301 0.0
C1015 C 0.41648 0.41858 0.22307 0.0
C1016 C 0.41149 0.40716 0.18727 0.0
C1017 C 0.40973 0.41154 0.14172 0.0
C1018 C 0.42453 0.44671 0.24997 0.0
C1019 C 0.40845 0.39044 0.19683 0.0
C1020 C 0.43979 0.41507 0.3255 0.0
C1021 C 0.42894 0.41126 0.36186 0.0
C1022 C 0.43571 0.41697 0.27993 0.0
C1023 C 0.4203 0.4148 0.27023 0.0
C1024 C 0.40909 0.41031 0.30642 0.0
C1025 C 0.41357 0.4087 0.35197 0.0
C1026 C 0.44809 0.42195 0.24255 0.0
C1027 C 0.39249 0.40766 0.29728 0.0
H1028 H 0.4192 0.45007 0.15985 0.0
H1029 H 0.40629 0.40291 0.11407 0.0
H1030 H 0.41648 0.44292 0.28015 0.0
H1031 H 0.43627 0.4487 0.26266 0.0
H1032 H 0.42528 0.45802 0.23694 0.0
H1033 H 0.40315 0.38265 0.16646 0.0
H1034 H 0.4196 0.39005 0.20576 0.0
H1035 H 0.40052 0.38575 0.22708 0.0
H1036 H 0.4517 0.41706 0.33285 0.0
H1037 H 0.40512 0.40566 0.3799 0.0
H1038 H 0.4504 0.43377 0.22955 0.0
H1039 H 0.44394 0.41376 0.21263 0.0
H1040 H 0.45929 0.42237 0.25529 0.0
H1041 H 0.3924 0.41896 0.28816 0.0
H1042 H 0.3848 0.40265 0.32791 0.0
H1043 H 0.38751 0.39964 0.26728 0.0
C1044 C 0.34073 0.20224 0.17859 0.0
C1045 C 0.32701 0.20008 0.15513 0.0
C1046 C 0.3447 0.1898 0.18425 0.0
C1047 C 0.33486 0.17496 0.1651 0.0
C1048 C 0.32117 0.1728 0.14045 0.0
C1049 C 0.31731 0.18538 0.1362 0.0
C1050 C 0.35922 0.19244 0.21152 0.0
C1051 C 0.31056 0.1572 0.11881 0.0
C1052 C 0.35142 0.14579 0.14528 0.0
C1053 C 0.34461 0.13524 0.18189 0.0
C1054 C 0.34843 0.15886 0.1395 0.0
C1055 C 0.33868 0.16157 0.17173 0.0
C1056 C 0.33226 0.15127 0.20977 0.0
C1057 C 0.33516 0.1381 0.21408 0.0
C1058 C 0.35526 0.16946 0.0981 0.0
C1059 C 0.3221 0.154 0.24542 0.0
H1060 H 0.3482 0.2136 0.19355 0.0
H1061 H 0.30673 0.18373 0.11787 0.0
H1062 H 0.35597 0.18451 0.24207 0.0
H1063 H 0.36721 0.18957 0.18981 0.0
H1064 H 0.36566 0.20474 0.22391 0.0
H1065 H 0.30078 0.15768 0.0989 0.0
H1066 H 0.31738 0.15335 0.09513 0.0
H1067 H 0.30555 0.14815 0.14627 0.0
H1068 H 0.35863 0.14349 0.12014 0.0
H1069 H 0.32993 0.12996 0.2425 0.0
H1070 H 0.36223 0.18175 0.10973 0.0
H1071 H 0.34567 0.16927 0.07578 0.0
H1072 H 0.36287 0.16589 0.0768 0.0
H1073 H 0.32831 0.16601 0.26001 0.0
H1074 H 0.31881 0.14542 0.27441 0.0
H1075 H 0.31123 0.1531 0.22869 0.0
C1076 C 0.82189 0.12857 0.17897 0.0
C1077 C 0.808 0.12243 0.15307 0.0
C1078 C 0.83156 0.14483 0.18031 0.0
C1079 C 0.82743 0.15506 0.15399 0.0
C1080 C 0.81363 0.14881 0.12671 0.0
C1081 C 0.80397 0.1326 0.12716 0.0
C1082 C 0.846 0.15108 0.21061 0.0
C1083 C 0.80907 0.15924 0.09704 0.0
C1084 C 0.84402 0.19835 0.18565 0.0
C1085 C 0.8568 0.20497 0.15544 0.0
C1086 C 0.83448 0.18206 0.18612 0.0
C1087 C 0.83758 0.1723 0.15464 0.0
C1088 C 0.85025 0.17903 0.12326 0.0
C1089 C 0.85985 0.19526 0.12454 0.0
C1090 C 0.82129 0.17527 0.22079 0.0
C1091 C 0.85366 0.16912 0.08821 0.0
H1092 H 0.82491 0.12071 0.19939 0.0
H1093 H 0.79325 0.12784 0.10692 0.0
H1094 H 0.85659 0.15755 0.18915 0.0
H1095 H 0.84539 0.15952 0.23625 0.0
H1096 H 0.84739 0.14161 0.22965 0.0
H1097 H 0.79832 0.15245 0.07631 0.0
H1098 H 0.80701 0.16767 0.11932 0.0
H1099 H 0.81874 0.16621 0.07293 0.0
H1100 H 0.84176 0.20585 0.20987 0.0
H1101 H 0.8697 0.20039 0.10098 0.0
H1102 H 0.82276 0.1664 0.24266 0.0
H1103 H 0.80993 0.16918 0.20235 0.0
H1104 H 0.82072 0.18439 0.2438 0.0
H1105 H 0.8564 0.16034 0.10635 0.0
H1106 H 0.86364 0.17626 0.06519 0.0
H1107 H 0.84316 0.16255 0.06633 0.0
C1108 C 0.8647 0.68395 0.16029 0.0
C1109 C 0.87319 0.67748 0.18468 0.0
C1110 C 0.84833 0.67576 0.15624 0.0
C1111 C 0.84024 0.66099 0.17829 0.0
C1112 C 0.84877 0.65455 0.20356 0.0
C1113 C 0.86516 0.66277 0.20586 0.0
C1114 C 0.83968 0.68288 0.12817 0.0
C1115 C 0.84058 0.63909 0.22877 0.0
C1116 C 0.79753 0.64974 0.20376 0.0
C1117 C 0.78991 0.639 0.16816 0.0
C1118 C 0.81384 0.65638 0.20878 0.0
C1119 C 0.82281 0.65261 0.17634 0.0
C1120 C 0.81511 0.6414 0.14099 0.0
C1121 C 0.79867 0.63453 0.13773 0.0
C1122 C 0.82151 0.66786 0.24788 0.0
C1123 C 0.82427 0.63732 0.10515 0.0
H1124 H 0.87091 0.69524 0.14351 0.0
H1125 H 0.87171 0.65778 0.22494 0.0
H1126 H 0.83241 0.67448 0.10114 0.0
H1127 H 0.83165 0.68532 0.151 0.0
H1128 H 0.84776 0.69399 0.11098 0.0
H1129 H 0.84893 0.63572 0.24703 0.0
H1130 H 0.8323 0.63983 0.25465 0.0
H1131 H 0.83361 0.62965 0.20393 0.0
H1132 H 0.7907 0.65318 0.22727 0.0
H1133 H 0.79275 0.62641 0.10976 0.0
H1134 H 0.82839 0.67979 0.23347 0.0
H1135 H 0.82976 0.66463 0.26714 0.0
H1136 H 0.8128 0.66831 0.27275 0.0
H1137 H 0.83139 0.64788 0.08412 0.0
H1138 H 0.81654 0.62782 0.08142 0.0
H1139 H 0.83251 0.63359 0.12232 0.0
C1140 C 0.14648 0.34998 0.31944 0.0
C1141 C 0.13304 0.34326 0.34706 0.0
C1142 C 0.15846 0.34529 0.32404 0.0
C1143 C 0.15711 0.33398 0.35805 0.0
C1144 C 0.14367 0.32739 0.38662 0.0
C1145 C 0.13167 0.33195 0.38027 0.0
C1146 C 0.17247 0.35228 0.29219 0.0
C1147 C 0.14202 0.31565 0.42413 0.0
C1148 C 0.18138 0.3116 0.34403 0.0
C1149 C 0.19452 0.32062 0.37119 0.0
C1150 C 0.16907 0.31581 0.33944 0.0
C1151 C 0.16978 0.32906 0.36374 0.0
C1152 C 0.18277 0.33783 0.39271 0.0
C1153 C 0.19512 0.33363 0.39551 0.0
C1154 C 0.15558 0.30641 0.30739 0.0
C1155 C 0.1837 0.35175 0.42023 0.0
H1156 H 0.14746 0.35866 0.29357 0.0
H1157 H 0.1213 0.32685 0.40191 0.0
H1158 H 0.18329 0.35866 0.31286 0.0
H1159 H 0.1738 0.3428 0.27308 0.0
H1160 H 0.17147 0.36053 0.26657 0.0
H1161 H 0.13104 0.31203 0.44434 0.0
H1162 H 0.14214 0.30504 0.40849 0.0
H1163 H 0.15211 0.32074 0.44839 0.0
H1164 H 0.18103 0.30163 0.32483 0.0
H1165 H 0.20529 0.34056 0.41666 0.0
H1166 H 0.15487 0.31409 0.27938 0.0
H1167 H 0.14437 0.30182 0.32672 0.0
H1168 H 0.15677 0.29638 0.29123 0.0
H1169 H 0.18434 0.36114 0.39622 0.0
H1170 H 0.19408 0.35663 0.44355 0.0
H1171 H 0.17299 0.34833 0.44155 0.0
C1172 C 0.66702 0.796 0.32619 0.0
C1173 C 0.65234 0.78795 0.34735 0.0
C1174 C 0.6744 0.81243 0.32359 0.0
C1175 C 0.66715 0.8211 0.34391 0.0
C1176 C 0.65247 0.81304 0.36636 0.0
C1177 C 0.6451 0.79651 0.36713 0.0
C1178 C 0.68976 0.82047 0.29798 0.0
C1179 C 0.64456 0.82188 0.38944 0.0
C1180 C 0.69334 0.86456 0.366 0.0
C1181 C 0.689 0.87151 0.32935 0.0
C1182 C 0.68608 0.84815 0.37188 0.0
C1183 C 0.67461 0.83853 0.33945 0.0
C1184 C 0.67055 0.84556 0.30169 0.0
C1185 C 0.6776 0.86196 0.29758 0.0
C1186 C 0.69044 0.84113 0.41321 0.0
C1187 C 0.65881 0.83577 0.26543 0.0
H1188 H 0.67261 0.7894 0.3105 0.0
H1189 H 0.6338 0.79031 0.38378 0.0
H1190 H 0.68849 0.82738 0.26857 0.0
H1191 H 0.69893 0.82882 0.32137 0.0
H1192 H 0.69385 0.81202 0.28413 0.0
H1193 H 0.63377 0.81396 0.40828 0.0
H1194 H 0.65271 0.83058 0.41436 0.0
H1195 H 0.6414 0.82848 0.36299 0.0
H1196 H 0.70199 0.87196 0.39095 0.0
H1197 H 0.67426 0.86734 0.26914 0.0
H1198 H 0.69533 0.8331 0.40135 0.0
H1199 H 0.67983 0.83404 0.43396 0.0
H1200 H 0.69918 0.85022 0.43605 0.0
H1201 H 0.66257 0.82735 0.24957 0.0
H1202 H 0.65734 0.84304 0.23737 0.0
H1203 H 0.64725 0.8288 0.28183 0.0
C1204 C 0.19758 0.84229 0.3102 0.0
C1205 C 0.20413 0.85533 0.33969 0.0
C1206 C 0.18135 0.83259 0.31004 0.0
C1207 C 0.17156 0.83579 0.34109 0.0
C1208 C 0.17823 0.84875 0.37167 0.0
C1209 C 0.19439 0.85849 0.3701 0.0
C1210 C 0.17463 0.81908 0.2762 0.0
C1211 C 0.16831 0.85229 0.40628 0.0
C1212 C 0.12774 0.81924 0.3178 0.0
C1213 C 0.12191 0.80558 0.34477 0.0
C1214 C 0.14393 0.8291 0.31572 0.0
C1215 C 0.1544 0.82541 0.34234 0.0
C1216 C 0.14845 0.81184 0.37066 0.0
C1217 C 0.13231 0.80198 0.37097 0.0
C1218 C 0.14985 0.84328 0.28433 0.0
C1219 C 0.15913 0.80774 0.40067 0.0
H1220 H 0.20509 0.83994 0.28635 0.0
H1221 H 0.19946 0.86855 0.39312 0.0
H1222 H 0.16878 0.80784 0.29535 0.0
H1223 H 0.1656 0.82021 0.2542 0.0
H1224 H 0.18373 0.8185 0.25327 0.0
H1225 H 0.17539 0.86256 0.42856 0.0
H1226 H 0.15937 0.85468 0.38781 0.0
H1227 H 0.16198 0.84196 0.42895 0.0
H1228 H 0.11971 0.82193 0.29714 0.0
H1229 H 0.12778 0.79144 0.39202 0.0
H1230 H 0.15824 0.84257 0.2588 0.0
H1231 H 0.15627 0.85411 0.305 0.0
H1232 H 0.14023 0.84433 0.26514 0.0
H1233 H 0.16755 0.80564 0.37857 0.0
H1234 H 0.15256 0.79712 0.42213 0.0
H1235 H 0.16606 0.81768 0.42412 0.0
C1236 C 0.66684 0.8676 0.84811 0.0
C1237 C 0.65612 0.86889 0.81707 0.0
C1238 C 0.66888 0.85392 0.85024 0.0
C1239 C 0.6602 0.84134 0.81988 0.0
C1240 C 0.64933 0.84255 0.78841 0.0
C1241 C 0.64729 0.85631 0.78773 0.0
C1242 C 0.68035 0.85295 0.88492 0.0
C1243 C 0.64009 0.82943 0.75503 0.0
C1244 C 0.67799 0.81331 0.79827 0.0
C1245 C 0.66892 0.80076 0.82736 0.0
C1246 C 0.67494 0.8264 0.79436 0.0
C1247 C 0.66275 0.82704 0.82095 0.0
C1248 C 0.65357 0.81441 0.85048 0.0
C1249 C 0.65668 0.80132 0.85298 0.0
C1250 C 0.68483 0.83958 0.76202 0.0
C1251 C 0.6407 0.81485 0.88011 0.0
H1252 H 0.67359 0.87729 0.87115 0.0
H1253 H 0.63904 0.85735 0.76362 0.0
H1254 H 0.67437 0.84253 0.90753 0.0
H1255 H 0.68985 0.85152 0.86642 0.0
H1256 H 0.68571 0.86356 0.90726 0.0
H1257 H 0.63211 0.83222 0.73278 0.0
H1258 H 0.64821 0.82706 0.73233 0.0
H1259 H 0.63303 0.81849 0.7745 0.0
H1260 H 0.68736 0.8128 0.77805 0.0
H1261 H 0.64965 0.79161 0.87551 0.0
H1262 H 0.69155 0.85044 0.78229 0.0
H1263 H 0.67721 0.84208 0.73751 0.0
H1264 H 0.6932 0.83682 0.74167 0.0
H1265 H 0.6457 0.8249 0.90458 0.0
H1266 H 0.63443 0.8039 0.90048 0.0
H1267 H 0.63209 0.81665 0.85797 0.0
C1268 C 0.19501 0.86392 0.86651 0.0
C1269 C 0.19096 0.87403 0.84038 0.0
C1270 C 0.18526 0.84773 0.86768 0.0
C1271 C 0.17135 0.84145 0.84091 0.0
C1272 C 0.16722 0.85161 0.81426 0.0
C1273 C 0.17699 0.86786 0.81488 0.0
C1274 C 0.18983 0.83738 0.89769 0.0
C1275 C 0.15266 0.8453 0.78446 0.0
C1276 C 0.15412 0.7979 0.81202 0.0
C1277 C 0.14148 0.79166 0.84284 0.0
C1278 C 0.16381 0.81415 0.81043 0.0
C1279 C 0.16103 0.82425 0.84139 0.0
C1280 C 0.1485 0.81789 0.87339 0.0
C1281 C 0.13874 0.8017 0.87321 0.0
C1282 C 0.17684 0.82054 0.77512 0.0
C1283 C 0.14544 0.82817 0.90794 0.0
H1284 H 0.20579 0.86871 0.88644 0.0
H1285 H 0.17395 0.87567 0.7943 0.0
H1286 H 0.18026 0.83069 0.92245 0.0
H1287 H 0.19161 0.82871 0.87577 0.0
H1288 H 0.20073 0.8442 0.91775 0.0
H1289 H 0.15134 0.85471 0.76481 0.0
H1290 H 0.15303 0.8366 0.75938 0.0
H1291 H 0.14214 0.83913 0.80642 0.0
H1292 H 0.15613 0.79014 0.78821 0.0
H1293 H 0.12899 0.79685 0.89724 0.0
H1294 H 0.1883 0.82665 0.79297 0.0
H1295 H 0.17537 0.82931 0.75276 0.0
H1296 H 0.17716 0.81118 0.75264 0.0
H1297 H 0.15607 0.83479 0.92922 0.0
H1298 H 0.13555 0.82129 0.93157 0.0
H1299 H 0.14273 0.83689 0.88936 0.0
C1300 C 0.13074 0.33137 0.87222 0.0
C1301 C 0.12299 0.31751 0.8465 0.0
C1302 C 0.14709 0.33856 0.87687 0.0
C1303 C 0.15595 0.33199 0.85407 0.0
C1304 C 0.14818 0.31801 0.82781 0.0
C1305 C 0.13174 0.31079 0.82493 0.0
C1306 C 0.15485 0.35315 0.90636 0.0
C1307 C 0.15726 0.31084 0.80216 0.0
C1308 C 0.199 0.35896 0.8315 0.0
C1309 C 0.20631 0.35388 0.86529 0.0
C1310 C 0.18259 0.35183 0.8271 0.0
C1311 C 0.17335 0.33968 0.85814 0.0
C1312 C 0.18072 0.3349 0.89331 0.0
C1313 C 0.19712 0.34189 0.89598 0.0
C1314 C 0.17518 0.35701 0.78853 0.0
C1315 C 0.1713 0.32235 0.928 0.0
H1316 H 0.12396 0.33653 0.8892 0.0
H1317 H 0.12575 0.30015 0.80472 0.0
H1318 H 0.16207 0.35132 0.93383 0.0
H1319 H 0.16285 0.36313 0.88473 0.0
H1320 H 0.14623 0.35644 0.92317 0.0
H1321 H 0.1495 0.30021 0.78222 0.0
H1322 H 0.16562 0.31955 0.77776 0.0
H1323 H 0.16423 0.30759 0.82706 0.0
H1324 H 0.20611 0.36809 0.8074 0.0
H1325 H 0.20279 0.33799 0.92223 0.0
H1326 H 0.16706 0.36134 0.80323 0.0
H1327 H 0.16816 0.34687 0.7658 0.0
H1328 H 0.18402 0.36645 0.76688 0.0
H1329 H 0.1628 0.32555 0.9459 0.0
H1330 H 0.17881 0.32053 0.95458 0.0
H1331 H 0.16446 0.31107 0.90977 0.0
C1332 C 0.81199 0.68109 0.5809 0.0
C1333 C 0.80943 0.69138 0.61067 0.0
C1334 C 0.82591 0.67951 0.58317 0.0
C1335 C 0.83733 0.68814 0.61686 0.0
C1336 C 0.83519 0.69923 0.64515 0.0
C1337 C 0.82128 0.70086 0.64132 0.0
C1338 C 0.82795 0.66787 0.55153 0.0
C1339 C 0.84699 0.70848 0.68194 0.0
C1340 C 0.86057 0.66769 0.66443 0.0
C1341 C 0.87506 0.67594 0.64265 0.0
C1342 C 0.84831 0.67179 0.65698 0.0
C1343 C 0.85052 0.6842 0.62609 0.0
C1344 C 0.8651 0.6925 0.60367 0.0
C1345 C 0.8773 0.68838 0.61268 0.0
C1346 C 0.833 0.66284 0.68218 0.0
C1347 C 0.86773 0.70554 0.56972 0.0
H1348 H 0.80283 0.67384 0.55697 0.0
H1349 H 0.81925 0.70874 0.66457 0.0
H1350 H 0.83984 0.67311 0.53605 0.0
H1351 H 0.82669 0.65748 0.57196 0.0
H1352 H 0.81915 0.66384 0.52306 0.0
H1353 H 0.84446 0.71784 0.69734 0.0
H1354 H 0.84682 0.70044 0.71013 0.0
H1355 H 0.85899 0.71393 0.66732 0.0
H1356 H 0.85888 0.65814 0.68788 0.0
H1357 H 0.8885 0.69472 0.59562 0.0
H1358 H 0.82347 0.6567 0.65672 0.0
H1359 H 0.82989 0.67108 0.70199 0.0
H1360 H 0.83346 0.654 0.70664 0.0
H1361 H 0.8593 0.70093 0.54049 0.0
H1362 H 0.8798 0.71089 0.55539 0.0
H1363 H 0.86557 0.71484 0.58687 0.0
C1364 C 0.36034 0.20096 0.69513 0.0
C1365 C 0.3557 0.20782 0.65891 0.0
C1366 C 0.35289 0.18462 0.70209 0.0
C1367 C 0.34091 0.17495 0.67111 0.0
C1368 C 0.33655 0.18185 0.63363 0.0
C1369 C 0.34381 0.19822 0.62851 0.0
C1370 C 0.35758 0.17775 0.74315 0.0
C1371 C 0.32425 0.17195 0.59885 0.0
C1372 C 0.3323 0.13202 0.66227 0.0
C1373 C 0.31799 0.12458 0.68576 0.0
C1374 C 0.33982 0.14837 0.65705 0.0
C1375 C 0.33312 0.15758 0.67716 0.0
C1376 C 0.3188 0.15014 0.70178 0.0
C1377 C 0.31123 0.13366 0.70507 0.0
C1378 C 0.35477 0.15576 0.62917 0.0
C1379 C 0.31151 0.15958 0.72478 0.0
H1380 H 0.36938 0.20842 0.71903 0.0
H1381 H 0.34024 0.20354 0.60043 0.0
H1382 H 0.3472 0.17106 0.76524 0.0
H1383 H 0.36203 0.1694 0.73105 0.0
H1384 H 0.36676 0.18691 0.76477 0.0
H1385 H 0.3227 0.1791 0.57058 0.0
H1386 H 0.32751 0.16314 0.58314 0.0
H1387 H 0.31285 0.16542 0.61655 0.0
H1388 H 0.33747 0.12499 0.64691 0.0
H1389 H 0.30021 0.1279 0.72348 0.0
H1390 H 0.36444 0.16413 0.65109 0.0
H1391 H 0.35326 0.16251 0.59974 0.0
H1392 H 0.35828 0.1469 0.6151 0.0
H1393 H 0.32009 0.1684 0.74856 0.0
H1394 H 0.30085 0.1521 0.74488 0.0
H1395 H 0.3083 0.16608 0.69815 0.0
C1396 C 0.80208 0.13761 0.62376 0.0
C1397 C 0.79209 0.14017 0.6547 0.0
C1398 C 0.81817 0.14763 0.62298 0.0
C1399 C 0.82451 0.16023 0.65493 0.0
C1400 C 0.81446 0.16284 0.68639 0.0
C1401 C 0.79829 0.1529 0.6854 0.0
C1402 C 0.82839 0.14473 0.58791 0.0
C1403 C 0.82083 0.17594 0.72166 0.0
C1404 C 0.86815 0.17669 0.68041 0.0
C1405 C 0.87409 0.1907 0.65507 0.0
C1406 C 0.85199 0.16675 0.68129 0.0
C1407 C 0.84164 0.17073 0.65504 0.0
C1408 C 0.84769 0.18468 0.6284 0.0
C1409 C 0.86381 0.19461 0.62932 0.0
C1410 C 0.84593 0.15216 0.71095 0.0
C1411 C 0.83715 0.1891 0.5988 0.0
H1412 H 0.79725 0.1278 0.59981 0.0
H1413 H 0.79057 0.15477 0.70964 0.0
H1414 H 0.83483 0.15542 0.56671 0.0
H1415 H 0.83725 0.14211 0.60606 0.0
H1416 H 0.82152 0.13481 0.56424 0.0
H1417 H 0.81152 0.17617 0.7444 0.0
H1418 H 0.82973 0.17461 0.74377 0.0
H1419 H 0.82677 0.18742 0.70378 0.0
H1420 H 0.87609 0.17376 0.70071 0.0
H1421 H 0.86842 0.20542 0.60952 0.0
H1422 H 0.83981 0.1416 0.68894 0.0
H1423 H 0.83728 0.15241 0.73631 0.0
H1424 H 0.85546 0.15096 0.73027 0.0
H1425 H 0.83046 0.17948 0.57407 0.0
H1426 H 0.84379 0.20004 0.57876 0.0
H1427 H 0.8285 0.19077 0.62103 0.0
C1428 C 0.01737 0.48653 0.50904 0.0
C1429 C 0.00838 0.47277 0.53368 0.0
C1430 C 0.01258 0.49848 0.50545 0.0
C1431 C 0.99876 0.49677 0.52831 0.0
C1432 C 0.98991 0.48307 0.55446 0.0
C1433 C 0.9947 0.4711 0.55619 0.0
C1434 C 0.02212 0.51277 0.47635 0.0
C1435 C 0.9754 0.48107 0.58054 0.0
C1436 C 0.99575 0.53465 0.54981 0.0
C1437 C 0.98535 0.53419 0.51475 0.0
C1438 C -0.00025 0.52225 0.55575 0.0
C1439 C 0.9936 0.50936 0.52478 0.0
C1440 C 0.98296 0.50878 0.4895 0.0
C1441 C 0.97874 0.52114 0.4854 0.0
C1442 C 0.01072 0.52304 0.59471 0.0
C1443 C 0.97648 0.49541 0.45513 0.0
H1444 H 0.02786 0.48772 0.49123 0.0
H1445 H 0.9878 0.46044 0.57541 0.0
H1446 H 0.01466 0.5141 0.4487 0.0
H1447 H 0.02644 0.52349 0.49817 0.0
H1448 H 0.03233 0.51208 0.45981 0.0
H1449 H 0.97027 0.47004 0.60102 0.0
H1450 H 0.97822 0.49112 0.60449 0.0
H1451 H 0.96642 0.48099 0.55581 0.0
H1452 H 0.00074 0.54474 0.57275 0.0
H1453 H 0.97078 0.52089 0.45809 0.0
H1454 H 0.02185 0.52392 0.58015 0.0
H1455 H 0.00549 0.51216 0.61579 0.0
H1456 H 0.01344 0.53326 0.61796 0.0
H1457 H 0.98623 0.49484 0.43544 0.0
H1458 H 0.96823 0.49666 0.43004 0.0
H1459 H 0.97029 0.48409 0.47366 0.0
C1460 C 0.49127 0.46403 0.46891 0.0
C1461 C 0.47732 0.45874 0.49423 0.0
C1462 C 0.50156 0.48012 0.46649 0.0
C1463 C 0.49796 0.49106 0.49097 0.0
C1464 C 0.48397 0.4857 0.51708 0.0
C1465 C 0.47373 0.46963 0.51791 0.0
C1466 C 0.51622 0.48542 0.43757 0.0
C1467 C 0.47991 0.49692 0.54465 0.0
C1468 C 0.53195 0.53004 0.5225 0.0
C1469 C 0.53031 0.54023 0.49011 0.0
C1470 C 0.52137 0.51408 0.52356 0.0
C1471 C 0.50907 0.50806 0.4906 0.0
C1472 C 0.50734 0.51831 0.45776 0.0
C1473 C 0.51789 0.53435 0.4583 0.0
C1474 C 0.52337 0.50365 0.55995 0.0
C1475 C 0.49454 0.51227 0.42154 0.0
H1476 H 0.49398 0.45563 0.45025 0.0
H1477 H 0.46298 0.46555 0.53772 0.0
H1478 H 0.51661 0.49423 0.41165 0.0
H1479 H 0.52671 0.49118 0.46007 0.0
H1480 H 0.51696 0.47553 0.41898 0.0
H1481 H 0.46863 0.49083 0.56348 0.0
H1482 H 0.4893 0.5033 0.57033 0.0
H1483 H 0.47913 0.50582 0.52125 0.0
H1484 H 0.54151 0.53459 0.54731 0.0
H1485 H 0.5167 0.5422 0.43297 0.0
H1486 H 0.52557 0.49434 0.54299 0.0
H1487 H 0.51246 0.49774 0.58053 0.0
H1488 H 0.53321 0.51028 0.5841 0.0
H1489 H 0.49563 0.50305 0.40033 0.0
H1490 H 0.49494 0.52171 0.39804 0.0
H1491 H 0.48292 0.50679 0.4386 0.0
C1492 C 0.53197 0.0239 0.49967 0.0
C1493 C 0.53886 0.01881 0.53471 0.0
C1494 C 0.51569 0.01644 0.49237 0.0
C1495 C 0.50606 0.00389 0.52169 0.0
C1496 C 0.51296 0.99911 0.55822 0.0
C1497 C 0.52929 0.00646 0.56382 0.0
C1498 C 0.50883 0.02169 0.45247 0.0
C1499 C 0.5031 0.98613 0.59115 0.0
C1500 C 0.46295 0.99452 0.52681 0.0
C1501 C 0.45607 0.98096 0.49934 0.0
C1502 C 0.47914 0.00189 0.53514 0.0
C1503 C 0.48877 0.99583 0.51433 0.0
C1504 C 0.48188 0.98212 0.48646 0.0
C1505 C 0.46554 0.97469 0.47986 0.0
C1506 C 0.48592 0.01617 0.56622 0.0
C1507 C 0.4918 0.97549 0.46286 0.0
H1508 H 0.53938 0.03329 0.4767 0.0
H1509 H 0.53462 0.00251 0.59096 0.0
H1510 H 0.50255 0.0117 0.42849 0.0
H1511 H 0.50015 0.02554 0.4656 0.0
H1512 H 0.51792 0.03148 0.43252 0.0
H1513 H 0.51019 0.98437 0.61919 0.0
H1514 H 0.49398 0.98882 0.60727 0.0
H1515 H 0.49696 0.97496 0.57177 0.0
H1516 H 0.45562 0.99932 0.54227 0.0
H1517 H 0.46024 0.96427 0.45837 0.0
H1518 H 0.49414 0.02649 0.54621 0.0
H1519 H 0.4927 0.01427 0.5949 0.0
H1520 H 0.47673 0.01895 0.58149 0.0
H1521 H 0.50051 0.98451 0.43994 0.0
H1522 H 0.48468 0.96493 0.44169 0.0
H1523 H 0.49841 0.9723 0.48916 0.0
C1524 C 0.47938 0.01637 0.97044 0.0
C1525 C 0.46488 0.00743 0.99146 0.0
C1526 C 0.49187 0.0125 0.97655 0.0
C1527 C 0.48984 0.99963 0.00522 0.0
C1528 C 0.47525 0.99066 0.02682 0.0
C1529 C 0.46287 0.99457 0.01924 0.0
C1530 C 0.5072 0.02215 0.95229 0.0
C1531 C 0.47277 0.97706 0.0584 0.0
C1532 C 0.51786 0.98142 0.99074 0.0
C1533 C 0.52896 0.98923 0.02532 0.0
C1534 C 0.50499 0.98465 0.98388 0.0
C1535 C 0.50307 0.99566 0.01303 0.0
C1536 C 0.51394 0.00313 0.04915 0.0
C1537 C 0.52689 0.99994 0.05451 0.0
C1538 C 0.49376 0.97667 0.94453 0.0
C1539 C 0.51205 0.01466 0.0816 0.0
H1540 H 0.48089 0.02628 0.94878 0.0
H1541 H 0.45168 0.98771 0.03581 0.0
H1542 H 0.51665 0.02781 0.97833 0.0
H1543 H 0.51049 0.01444 0.93048 0.0
H1544 H 0.50667 0.03142 0.92989 0.0
H1545 H 0.46073 0.97139 0.07293 0.0
H1546 H 0.47493 0.96811 0.03912 0.0
H1547 H 0.48126 0.98119 0.0876 0.0
H1548 H 0.51955 0.97324 0.96787 0.0
H1549 H 0.53546 0.00594 0.08137 0.0
H1550 H 0.4938 0.98561 0.91965 0.0
H1551 H 0.48166 0.9703 0.95802 0.0
H1552 H 0.4968 0.96823 0.92545 0.0
H1553 H 0.51296 0.02503 0.06177 0.0
H1554 H 0.52103 0.01872 0.10956 0.0
H1555 H 0.50028 0.00922 0.09784 0.0
C1556 C 0.02201 0.53392 0.03055 0.0
C1557 C 0.01659 0.54137 0.99816 0.0
C1558 C 0.01461 0.5175 0.03531 0.0
C1559 C 0.00186 0.50836 0.00587 0.0
C1560 C 0.99664 0.51587 0.97228 0.0
C1561 C 0.0039 0.5323 0.9694 0.0
C1562 C 0.02026 0.50995 0.07232 0.0
C1563 C 0.98347 0.50656 0.93914 0.0
C1564 C 0.99328 0.46572 0.98846 0.0
C1565 C 0.9798 0.45788 0.01546 0.0
C1566 C 0.0004 0.48211 0.98442 0.0
C1567 C 0.9942 0.49092 0.00933 0.0
C1568 C 0.98061 0.48305 0.03696 0.0
C1569 C 0.97339 0.46655 0.03905 0.0
C1570 C 0.0145 0.48997 0.9533 0.0
C1571 C 0.9739 0.49206 0.06497 0.0
H1572 H 0.03171 0.54097 0.05317 0.0
H1573 H -0.00026 0.53808 0.94421 0.0
H1574 H 0.01042 0.50275 0.09564 0.0
H1575 H 0.02448 0.50195 0.0561 0.0
H1576 H 0.02988 0.51874 0.09361 0.0
H1577 H 0.98117 0.51418 0.91403 0.0
H1578 H 0.98632 0.49813 0.91941 0.0
H1579 H 0.97257 0.49963 0.95881 0.0
H1580 H 0.99817 0.45898 0.96995 0.0
H1581 H 0.96306 0.46046 0.06028 0.0
H1582 H 0.02481 0.49783 0.9741 0.0
H1583 H 0.01232 0.49737 0.92717 0.0
H1584 H 0.01744 0.48137 0.93476 0.0
H1585 H 0.98297 0.50031 0.08882 0.0
H1586 H 0.96359 0.48421 0.0858 0.0
H1587 H 0.97033 0.49917 0.04157 0.0
C1588 C 0.46996 0.47118 0.97298 0.0
C1589 C 0.45928 0.47494 0.99702 0.0
C1590 C 0.48601 0.48138 0.97308 0.0
C1591 C 0.49157 0.49551 0.99878 0.0
C1592 C 0.48084 0.49931 0.02354 0.0
C1593 C 0.46476 0.48905 0.02188 0.0
C1594 C 0.497 0.47709 0.94525 0.0
C1595 C 0.48637 0.51414 0.05203 0.0
C1596 C 0.53495 0.51493 0.02942 0.0
C1597 C 0.54084 0.52712 0.99688 0.0
C1598 C 0.51886 0.5047 0.03105 0.0
C1599 C 0.50857 0.5065 0.99858 0.0
C1600 C 0.51456 0.51862 0.9651 0.0
C1601 C 0.53058 0.5289 0.96505 0.0
C1602 C 0.51285 0.49208 0.06779 0.0
C1603 C 0.50406 0.52068 0.92909 0.0
H1604 H 0.46573 0.46031 0.95352 0.0
H1605 H 0.45652 0.4919 0.04079 0.0
H1606 H 0.50335 0.4864 0.91937 0.0
H1607 H 0.50591 0.47626 0.96845 0.0
H1608 H 0.49076 0.46575 0.92663 0.0
H1609 H 0.47662 0.51508 0.07072 0.0
H1610 H 0.49521 0.51454 0.07784 0.0
H1611 H 0.49215 0.52454 0.02922 0.0
H1612 H 0.54285 0.51364 0.05431 0.0
H1613 H 0.53514 0.53829 0.93968 0.0
H1614 H 0.50731 0.48034 0.05118 0.0
H1615 H 0.50371 0.49332 0.08888 0.0
H1616 H 0.5223 0.49255 0.09135 0.0
H1617 H 0.49802 0.50974 0.90857 0.0
H1618 H 0.51063 0.5305 0.90486 0.0
H1619 H 0.49487 0.52297 0.94638 0.0
C1620 C 0.4351 0.07171 0.02074 0.0
C1621 C 0.42402 0.06007 0.99239 0.0
C1622 C 0.43103 0.08197 0.04617 0.0
C1623 C 0.41557 0.08039 0.04307 0.0
C1624 C 0.40507 0.07002 0.00991 0.0
C1625 C 0.40947 0.06 0.98483 0.0
C1626 C 0.44274 0.0933 0.0798 0.0
C1627 C 0.38854 0.06816 0.0048 0.0
C1628 C 0.39233 0.08104 0.14772 0.0
C1629 C 0.38937 0.09389 0.13758 0.0
C1630 C 0.40213 0.07733 0.11929 0.0
C1631 C 0.40921 0.08681 0.08002 0.0
C1632 C 0.4077 0.1008 0.0728 0.0
C1633 C 0.3977 0.10416 0.10167 0.0
C1634 C 0.40359 0.06239 0.12872 0.0
C1635 C 0.41547 0.11148 0.03228 0.0
H1636 H 0.44646 0.07193 0.02628 0.0
H1637 H 0.40098 0.0512 0.96225 0.0
H1638 H 0.44148 0.10433 0.08232 0.0
H1639 H 0.44069 0.08791 0.11487 0.0
H1640 H 0.45494 0.09615 0.06944 0.0
H1641 H 0.38256 0.06108 0.97376 0.0
H1642 H 0.38166 0.06221 0.03605 0.0
H1643 H 0.38849 0.07977 0.00207 0.0
H1644 H 0.38609 0.0732 0.17589 0.0
H1645 H 0.3956 0.11424 0.09402 0.0
H1646 H 0.41603 0.06459 0.12751 0.0
H1647 H 0.39721 0.0536 0.10144 0.0
H1648 H 0.39869 0.05724 0.16307 0.0
H1649 H 0.42711 0.11199 0.02481 0.0
H1650 H 0.4169 0.12356 0.03882 0.0
H1651 H 0.40808 0.10691 0.00084 0.0
C1652 C 0.90038 0.30892 0.16588 0.0
C1653 C 0.88735 0.29553 0.1503 0.0
C1654 C 0.90405 0.3237 0.14691 0.0
C1655 C 0.89441 0.32514 0.11153 0.0
C1656 C 0.88024 0.31198 0.09963 0.0
C1657 C 0.87688 0.29724 0.1191 0.0
C1658 C 0.91918 0.33742 0.16129 0.0
C1659 C 0.86936 0.31312 0.06331 0.0
C1660 C 0.91009 0.36764 0.0744 0.0
C1661 C 0.9211 0.36829 0.04112 0.0
C1662 C 0.89992 0.35324 0.09477 0.0
C1663 C 0.90094 0.33936 0.08152 0.0
C1664 C 0.91082 0.33984 0.04417 0.0
C1665 C 0.92076 0.3543 0.02448 0.0
C1666 C 0.88918 0.35317 0.1333 0.0
C1667 C 0.91217 0.32533 0.02827 0.0
H1668 H 0.90837 0.30768 0.19059 0.0
H1669 H 0.86671 0.28694 0.10718 0.0
H1670 H 0.92778 0.34045 0.13252 0.0
H1671 H 0.91725 0.34789 0.16844 0.0
H1672 H 0.92439 0.33479 0.19271 0.0
H1673 H 0.8573 0.30356 0.06726 0.0
H1674 H 0.86896 0.32459 0.06513 0.0
H1675 H 0.87366 0.31206 0.02829 0.0
H1676 H 0.91028 0.37845 0.08724 0.0
H1677 H 0.92911 0.35477 0.99823 0.0
H1678 H 0.89498 0.35389 0.16727 0.0
H1679 H 0.87807 0.3422 0.13296 0.0
H1680 H 0.88646 0.36337 0.13059 0.0
H1681 H 0.91806 0.32164 0.05565 0.0
H1682 H 0.91903 0.32738 0.99568 0.0
H1683 H 0.90041 0.3155 0.02247 0.0
C1684 C 0.68655 0.59485 0.1202 0.0
C1685 C 0.69919 0.59105 0.12111 0.0
C1686 C 0.6717 0.58401 0.10542 0.0
C1687 C 0.6693 0.56882 0.09141 0.0
C1688 C 0.68171 0.56448 0.09539 0.0
C1689 C 0.69661 0.57573 0.10999 0.0
C1690 C 0.65882 0.58919 0.10228 0.0
C1691 C 0.67956 0.5483 0.08212 0.0
C1692 C 0.62587 0.54554 0.07486 0.0
C1693 C 0.62444 0.54961 0.02885 0.0
C1694 C 0.64071 0.54984 0.09468 0.0
C1695 C 0.65429 0.55853 0.06792 0.0
C1696 C 0.65276 0.56062 0.01979 0.0
C1697 C 0.63782 0.55606 0.00077 0.0
C1698 C 0.64184 0.54668 0.14555 0.0
C1699 C 0.66689 0.56957 0.98964 0.0
H1700 H 0.68839 0.6066 0.1295 0.0
H1701 H 0.70632 0.57269 0.11095 0.0
H1702 H 0.65518 0.58894 0.06551 0.0
H1703 H 0.6484 0.58106 0.12207 0.0
H1704 H 0.66252 0.60124 0.11599 0.0
H1705 H 0.68813 0.54526 0.10041 0.0
H1706 H 0.66755 0.53925 0.09005 0.0
H1707 H 0.68149 0.54796 0.04423 0.0
H1708 H 0.61554 0.54031 0.09663 0.0
H1709 H 0.63676 0.55892 0.96488 0.0
H1710 H 0.64354 0.55721 0.16602 0.0
H1711 H 0.652 0.54419 0.15234 0.0
H1712 H 0.631 0.53665 0.15802 0.0
H1713 H 0.67188 0.58226 0.99825 0.0
H1714 H 0.66389 0.56812 0.95207 0.0
H1715 H 0.6761 0.56567 0.99621 0.0
C1716 C 0.07136 0.44397 0.464 0.0
C1717 C 0.06121 0.43304 0.49583 0.0
C1718 C 0.08142 0.44026 0.43636 0.0
C1719 C 0.08123 0.42536 0.44101 0.0
C1720 C 0.07227 0.41508 0.47679 0.0
C1721 C 0.06234 0.41905 0.5037 0.0
C1722 C 0.09107 0.4517 0.39942 0.0
C1723 C 0.07195 0.39917 0.48368 0.0
C1724 C 0.08215 0.40006 0.34219 0.0
C1725 C 0.09586 0.39868 0.35241 0.0
C1726 C 0.07806 0.41022 0.36773 0.0
C1727 C 0.08794 0.41914 0.40438 0.0
C1728 C 0.10274 0.41929 0.41073 0.0
C1729 C 0.10656 0.409 0.38451 0.0
C1730 C 0.06231 0.40998 0.35902 0.0
C1731 C 0.11379 0.42897 0.44847 0.0
H1732 H 0.07056 0.45485 0.45794 0.0
H1733 H 0.05463 0.41069 0.52877 0.0
H1734 H 0.10243 0.45131 0.39428 0.0
H1735 H 0.08461 0.44853 0.36595 0.0
H1736 H 0.09331 0.46389 0.40828 0.0
H1737 H 0.06579 0.39339 0.51612 0.0
H1738 H 0.06585 0.39145 0.4539 0.0
H1739 H 0.08402 0.40023 0.48495 0.0
H1740 H 0.07398 0.39226 0.31681 0.0
H1741 H 0.11726 0.40808 0.39225 0.0
H1742 H 0.06333 0.42206 0.35876 0.0
H1743 H 0.05415 0.40345 0.38743 0.0
H1744 H 0.05708 0.40421 0.32552 0.0
H1745 H 0.11351 0.44046 0.45252 0.0
H1746 H 0.126 0.43103 0.44122 0.0
H1747 H 0.11017 0.42263 0.48201 0.0
C1748 C 0.57903 0.69652 0.37279 0.0
C1749 C 0.59177 0.69781 0.3457 0.0
C1750 C 0.56839 0.68188 0.39074 0.0
C1751 C 0.57089 0.66847 0.38224 0.0
C1752 C 0.58271 0.66952 0.35066 0.0
C1753 C 0.59284 0.68414 0.33235 0.0
C1754 C 0.55534 0.68109 0.42185 0.0
C1755 C 0.58585 0.65557 0.3402 0.0
C1756 C 0.5684 0.63985 0.47558 0.0
C1757 C 0.55762 0.62565 0.45602 0.0
C1758 C 0.57175 0.6542 0.45414 0.0
C1759 C 0.56379 0.65439 0.4127 0.0
C1760 C 0.55137 0.6403 0.39646 0.0
C1761 C 0.54857 0.62599 0.41794 0.0
C1762 C 0.58507 0.6689 0.47306 0.0
C1763 C 0.54191 0.64011 0.3542 0.0
H1764 H 0.57799 0.70702 0.38271 0.0
H1765 H 0.60247 0.68502 0.31054 0.0
H1766 H 0.54505 0.66942 0.41997 0.0
H1767 H 0.55951 0.68318 0.45834 0.0
H1768 H 0.55161 0.69027 0.41237 0.0
H1769 H 0.59483 0.65815 0.31269 0.0
H1770 H 0.59003 0.65206 0.37216 0.0
H1771 H 0.57496 0.64541 0.32888 0.0
H1772 H 0.57523 0.63971 0.5056 0.0
H1773 H 0.54 0.61507 0.40309 0.0
H1774 H 0.58137 0.67837 0.47713 0.0
H1775 H 0.59501 0.67313 0.44827 0.0
H1776 H 0.58932 0.66691 0.50723 0.0
H1777 H 0.54075 0.65119 0.35104 0.0
H1778 H 0.53004 0.63008 0.35545 0.0
H1779 H 0.54784 0.63876 0.32254 0.0
C1780 C 0.29717 0.87645 0.37213 0.0
C1781 C 0.29504 0.88731 0.34357 0.0
C1782 C 0.31205 0.87983 0.39049 0.0
C1783 C 0.3249 0.89443 0.38034 0.0
C1784 C 0.32304 0.90459 0.3475 0.0
C1785 C 0.30815 0.90086 0.32944 0.0
C1786 C 0.31365 0.86839 0.42386 0.0
C1787 C 0.33641 0.92022 0.33511 0.0
C1788 C 0.35373 0.91957 0.47029 0.0
C1789 C 0.36787 0.92084 0.45211 0.0
C1790 C 0.33939 0.90967 0.44984 0.0
C1791 C 0.33918 0.90075 0.41019 0.0
C1792 C 0.35327 0.9006 0.39505 0.0
C1793 C 0.36755 0.91074 0.41617 0.0
C1794 C 0.32469 0.91013 0.46774 0.0
C1795 C 0.35349 0.89083 0.35405 0.0
H1796 H 0.28709 0.86586 0.38283 0.0
H1797 H 0.30661 0.90917 0.30669 0.0
H1798 H 0.32527 0.86842 0.42053 0.0
H1799 H 0.31254 0.87184 0.45998 0.0
H1800 H 0.30436 0.85628 0.41806 0.0
H1801 H 0.33346 0.92594 0.30548 0.0
H1802 H 0.33936 0.9282 0.36556 0.0
H1803 H 0.347 0.91878 0.326 0.0
H1804 H 0.35394 0.92719 0.49859 0.0
H1805 H 0.37848 0.91163 0.40215 0.0
H1806 H 0.3152 0.89808 0.47207 0.0
H1807 H 0.32059 0.91626 0.44219 0.0
H1808 H 0.32661 0.91635 0.50157 0.0
H1809 H 0.34274 0.87951 0.35284 0.0
H1810 H 0.36389 0.88843 0.35509 0.0
H1811 H 0.35401 0.89728 0.32148 0.0
C1812 C 0.56279 0.93847 0.93326 0.0
C1813 C 0.57039 0.94444 0.97565 0.0
C1814 C 0.56781 0.92976 0.90409 0.0
C1815 C 0.58071 0.92712 0.91781 0.0
C1816 C 0.58712 0.93151 0.96295 0.0
C1817 C 0.58183 0.9401 0.99142 0.0
C1818 C 0.56033 0.92481 0.85688 0.0
C1819 C 0.60076 0.92872 0.97929 0.0
C1820 C 0.59882 0.90412 0.85591 0.0
C1821 C 0.61207 0.91642 0.83657 0.0
C1822 C 0.58747 0.90714 0.87907 0.0
C1823 C 0.58959 0.92279 0.88297 0.0
C1824 C 0.60209 0.93496 0.8592 0.0
C1825 C 0.61317 0.9316 0.8362 0.0
C1826 C 0.57404 0.89379 0.90269 0.0
C1827 C 0.60465 0.95182 0.86179 0.0
H1828 H 0.55378 0.94163 0.92114 0.0
H1829 H 0.58755 0.94448 0.02453 0.0
H1830 H 0.56739 0.93371 0.83076 0.0
H1831 H 0.55989 0.9134 0.84623 0.0
H1832 H 0.54827 0.92385 0.85634 0.0
H1833 H 0.60309 0.9311 0.01702 0.0
H1834 H 0.59858 0.91645 0.9723 0.0
H1835 H 0.61146 0.93654 0.95992 0.0
H1836 H 0.59785 0.89231 0.85586 0.0
H1837 H 0.62328 0.9411 0.82058 0.0
H1838 H 0.5632 0.89541 0.9012 0.0
H1839 H 0.57699 0.89341 0.93983 0.0
H1840 H 0.57169 0.88232 0.88671 0.0
H1841 H 0.59369 0.95268 0.85346 0.0
H1842 H 0.61395 0.95956 0.83763 0.0
H1843 H 0.60812 0.95631 0.89768 0.0
C1844 C 0.12054 0.69905 0.88186 0.0
C1845 C 0.10938 0.70084 0.85377 0.0
C1846 C 0.11734 0.68441 0.90178 0.0
C1847 C 0.10261 0.67146 0.89376 0.0
C1848 C 0.09209 0.6729 0.86143 0.0
C1849 C 0.09565 0.68755 0.8417 0.0
C1850 C 0.12916 0.68321 0.93443 0.0
C1851 C 0.07629 0.65941 0.8513 0.0
C1852 C 0.08637 0.62916 0.9328 0.0
C1853 C 0.07669 0.62931 0.96926 0.0
C1854 C 0.09647 0.64321 0.91057 0.0
C1855 C 0.09666 0.65755 0.92503 0.0
C1856 C 0.08826 0.65785 0.96531 0.0
C1857 C 0.07843 0.64372 0.98698 0.0
C1858 C 0.10575 0.64247 0.86905 0.0
C1859 C 0.08822 0.67285 0.98251 0.0
H1860 H 0.13126 0.70926 0.89095 0.0
H1861 H 0.08712 0.68881 0.8193 0.0
H1862 H 0.12638 0.68514 0.97058 0.0
H1863 H 0.12888 0.67142 0.93269 0.0
H1864 H 0.1412 0.69224 0.92645 0.0
H1865 H 0.07016 0.66202 0.82213 0.0
H1866 H 0.07756 0.64867 0.84259 0.0
H1867 H 0.06879 0.65682 0.88268 0.0
H1868 H 0.08516 0.61804 0.9192 0.0
H1869 H 0.07116 0.64389 0.01573 0.0
H1870 H 0.1171 0.65314 0.86668 0.0
H1871 H 0.09903 0.64172 0.83688 0.0
H1872 H 0.108 0.63196 0.8705 0.0
H1873 H 0.10034 0.6823 0.98537 0.0
H1874 H 0.08246 0.67134 0.01691 0.0
H1875 H 0.08186 0.67678 0.95727 0.0
C1876 C 0.36713 0.45352 0.9513 0.0
C1877 C 0.36878 0.44228 0.97943 0.0
C1878 C 0.35248 0.45061 0.93218 0.0
C1879 C 0.33934 0.43612 0.94125 0.0
C1880 C 0.34074 0.42546 0.97318 0.0
C1881 C 0.35543 0.4287 0.99189 0.0
C1882 C 0.3514 0.4625 0.89951 0.0
C1883 C 0.32703 0.40992 0.98443 0.0
C1884 C 0.29665 0.42162 0.90977 0.0
C1885 C 0.29544 0.41123 0.87366 0.0
C1886 C 0.31132 0.4314 0.92929 0.0
C1887 C 0.32491 0.43063 0.91226 0.0
C1888 C 0.32385 0.42162 0.87205 0.0
C1889 C 0.30911 0.41203 0.85326 0.0
C1890 C 0.31202 0.44128 0.97103 0.0
C1891 C 0.33805 0.42062 0.8521 0.0
H1892 H 0.37741 0.4641 0.94179 0.0
H1893 H 0.3566 0.42009 0.01422 0.0
H1894 H 0.35263 0.45927 0.86322 0.0
H1895 H 0.33991 0.46277 0.90251 0.0
H1896 H 0.36087 0.47445 0.90627 0.0
H1897 H 0.32974 0.40365 0.013 0.0
H1898 H 0.3167 0.41169 0.99458 0.0
H1899 H 0.32376 0.40231 0.95313 0.0
H1900 H 0.2861 0.42111 0.92549 0.0
H1901 H 0.30821 0.40418 0.82484 0.0
H1902 H 0.3229 0.45248 0.97096 0.0
H1903 H 0.31201 0.43482 0.00314 0.0
H1904 H 0.30175 0.4439 0.97224 0.0
H1905 H 0.34793 0.43247 0.84855 0.0
H1906 H 0.33559 0.4148 0.81755 0.0
H1907 H 0.34183 0.41378 0.87602 0.0
C1908 C 0.91197 0.61258 0.64546 0.0
C1909 C 0.90249 0.61896 0.6266 0.0
C1910 C 0.91542 0.60197 0.61997 0.0
C1911 C 0.90893 0.59742 0.57497 0.0
C1912 C 0.89756 0.60203 0.55879 0.0
C1913 C 0.89458 0.61296 0.58465 0.0
C1914 C 0.9275 0.59722 0.63894 0.0
C1915 C 0.88969 0.59671 0.51224 0.0
C1916 C 0.94024 0.59684 0.49715 0.0
C1917 C 0.93791 0.58131 0.50235 0.0
C1918 C 0.92994 0.60195 0.5172 0.0
C1919 C 0.91678 0.59113 0.54219 0.0
C1920 C 0.91327 0.57502 0.54224 0.0
C1921 C 0.92402 0.57029 0.5227 0.0
C1922 C 0.93412 0.61926 0.51575 0.0
C1923 C 0.89891 0.56298 0.56622 0.0
H1924 H 0.91787 0.61696 0.67834 0.0
H1925 H 0.88697 0.61762 0.5703 0.0
H1926 H 0.92338 0.58439 0.63555 0.0
H1927 H 0.93849 0.60309 0.61863 0.0
H1928 H 0.93024 0.6005 0.67607 0.0
H1929 H 0.87817 0.59703 0.51134 0.0
H1930 H 0.89714 0.60469 0.48476 0.0
H1931 H 0.88796 0.58465 0.5039 0.0
H1932 H 0.95081 0.60535 0.48059 0.0
H1933 H 0.92202 0.55818 0.52612 0.0
H1934 H 0.93724 0.62432 0.55119 0.0
H1935 H 0.924 0.6211 0.5037 0.0
H1936 H 0.94418 0.62584 0.4924 0.0
H1937 H 0.90164 0.56221 0.60333 0.0
H1938 H 0.89514 0.55119 0.55049 0.0
H1939 H 0.88905 0.5662 0.56456 0.0
C1940 C 0.45622 0.3667 0.54344 0.0
C1941 C 0.44466 0.36815 0.51643 0.0
C1942 C 0.45346 0.35222 0.56374 0.0
C1943 C 0.43876 0.33907 0.55715 0.0
C1944 C 0.42771 0.34022 0.5263 0.0
C1945 C 0.43083 0.35471 0.50623 0.0
C1946 C 0.46578 0.35138 0.59501 0.0
C1947 C 0.41192 0.32651 0.51777 0.0
C1948 C 0.42404 0.29672 0.59382 0.0
C1949 C 0.41448 0.29635 0.63128 0.0
C1950 C 0.43367 0.31101 0.57196 0.0
C1951 C 0.43355 0.32507 0.58791 0.0
C1952 C 0.42541 0.32487 0.62923 0.0
C1953 C 0.416 0.3105 0.65041 0.0
C1954 C 0.44269 0.31081 0.52915 0.0
C1955 C 0.4251 0.33957 0.64806 0.0
H1956 H 0.46701 0.37702 0.55115 0.0
H1957 H 0.42196 0.35572 0.48474 0.0
H1958 H 0.46333 0.35329 0.63152 0.0
H1959 H 0.46575 0.3397 0.59295 0.0
H1960 H 0.47765 0.36056 0.58601 0.0
H1961 H 0.40524 0.32895 0.4898 0.0
H1962 H 0.41331 0.31591 0.50807 0.0
H1963 H 0.40488 0.32378 0.55013 0.0
H1964 H 0.42299 0.2858 0.57907 0.0
H1965 H 0.4088 0.31026 0.67987 0.0
H1966 H 0.45396 0.32157 0.52697 0.0
H1967 H 0.43572 0.31038 0.49779 0.0
H1968 H 0.44506 0.30037 0.52864 0.0
H1969 H 0.4371 0.34931 0.64969 0.0
H1970 H 0.41985 0.33776 0.68331 0.0
H1971 H 0.4181 0.34324 0.62448 0.0
C1972 C 0.62875 0.08609 0.58269 0.0
C1973 C 0.62754 0.07635 0.54476 0.0
C1974 C 0.64343 0.09564 0.60259 0.0
C1975 C 0.65705 0.09526 0.58417 0.0
C1976 C 0.65597 0.08689 0.54254 0.0
C1977 C 0.64123 0.07757 0.52331 0.0
C1978 C 0.64412 0.10484 0.64592 0.0
C1979 C 0.67018 0.08628 0.5212 0.0
C1980 C 0.69938 0.11824 0.62195 0.0
C1981 C 0.70138 0.10683 0.64827 0.0
C1982 C 0.68457 0.11532 0.60405 0.0
C1983 C 0.67162 0.10062 0.61245 0.0
C1984 C 0.67336 0.08974 0.64271 0.0
C1985 C 0.6882 0.09301 0.66029 0.0
C1986 C 0.6831 0.12746 0.57335 0.0
C1987 C 0.65985 0.07399 0.65325 0.0
H1988 H 0.6182 0.08526 0.5993 0.0
H1989 H 0.64034 0.07022 0.49356 0.0
H1990 H 0.64401 0.09785 0.67689 0.0
H1991 H 0.65502 0.11602 0.6471 0.0
H1992 H 0.63387 0.10747 0.64823 0.0
H1993 H 0.66767 0.08086 0.48609 0.0
H1994 H 0.67997 0.09823 0.51842 0.0
H1995 H 0.67414 0.07927 0.54383 0.0
H1996 H 0.70951 0.12902 0.61284 0.0
H1997 H 0.68964 0.08425 0.68125 0.0
H1998 H 0.67163 0.12765 0.57833 0.0
H1999 H 0.68389 0.12454 0.53643 0.0
H2000 H 0.69262 0.13937 0.58026 0.0
H2001 H 0.64949 0.07547 0.6649 0.0
H2002 H 0.66283 0.06748 0.68053 0.0
H2003 H 0.65647 0.06672 0.62123 0.0
C2004 C 0.72539 0.75592 0.80047 0.0
C2005 C 0.7181 0.76397 0.77787 0.0
C2006 C 0.73467 0.75051 0.77568 0.0
C2007 C 0.73665 0.75325 0.72723 0.0
C2008 C 0.7309 0.76301 0.70549 0.0
C2009 C 0.72165 0.76829 0.73118 0.0
C2010 C 0.74083 0.74035 0.80037 0.0
C2011 C 0.73302 0.76647 0.65413 0.0
C2012 C 0.76229 0.73703 0.66995 0.0
C2013 C 0.75109 0.72179 0.65903 0.0
C2014 C 0.75776 0.74791 0.68978 0.0
C2015 C 0.74172 0.74333 0.69871 0.0
C2016 C 0.73033 0.72831 0.68463 0.0
C2017 C 0.73518 0.71773 0.66504 0.0
C2018 C 0.77019 0.76389 0.7037 0.0
C2019 C 0.71305 0.72302 0.69285 0.0
H2020 H 0.72285 0.75276 0.83676 0.0
H2021 H 0.71617 0.77468 0.71364 0.0
H2022 H 0.73362 0.7279 0.79057 0.0
H2023 H 0.75307 0.74355 0.78988 0.0
H2024 H 0.74042 0.74136 0.83875 0.0
H2025 H 0.73127 0.77694 0.64501 0.0
H2026 H 0.74484 0.76839 0.64256 0.0
H2027 H 0.7243 0.75628 0.63457 0.0
H2028 H 0.77462 0.74022 0.66518 0.0
H2029 H 0.72649 0.70601 0.65607 0.0
H2030 H 0.77212 0.76412 0.74177 0.0
H2031 H 0.76645 0.77313 0.69552 0.0
H2032 H 0.78151 0.76677 0.68608 0.0
H2033 H 0.71068 0.72215 0.73075 0.0
H2034 H 0.7057 0.71142 0.67682 0.0
H2035 H 0.70939 0.73172 0.6785 0.0
C2036 C 0.23831 0.97834 0.82154 0.0
C2037 C 0.22415 0.96511 0.81276 0.0
C2038 C 0.24142 0.99294 0.80232 0.0
C2039 C 0.23003 0.9944 0.77363 0.0
C2040 C 0.21509 0.98147 0.76848 0.0
C2041 C 0.21233 0.96688 0.788 0.0
C2042 C 0.25746 0.00645 0.80949 0.0
C2043 C 0.20243 0.98265 0.73964 0.0
C2044 C 0.24539 0.037 0.73997 0.0
C2045 C 0.25446 0.03731 0.70128 0.0
C2046 C 0.23557 0.02267 0.76131 0.0
C2047 C 0.23501 0.00853 0.74353 0.0
C2048 C 0.24251 0.00875 0.70089 0.0
C2049 C 0.25212 0.02316 0.68026 0.0
C2050 C 0.22723 0.02289 0.80556 0.0
C2051 C 0.24205 0.99396 0.68008 0.0
H2052 H 0.24738 0.97709 0.84137 0.0
H2053 H 0.2013 0.95671 0.78144 0.0
H2054 H 0.26395 0.00931 0.77612 0.0
H2055 H 0.25643 0.01707 0.82108 0.0
H2056 H 0.26449 0.00371 0.83562 0.0
H2057 H 0.19063 0.97371 0.75024 0.0
H2058 H 0.20284 0.99447 0.7425 0.0
H2059 H 0.20414 0.98059 0.7026 0.0
H2060 H 0.24708 0.04793 0.75621 0.0
H2061 H 0.25895 0.02338 0.64988 0.0
H2062 H 0.23458 0.02314 0.83578 0.0
H2063 H 0.21589 0.01225 0.80858 0.0
H2064 H 0.22508 0.03346 0.80745 0.0
H2065 H 0.24922 0.98991 0.70169 0.0
H2066 H 0.2467 0.99583 0.64407 0.0
H2067 H 0.22991 0.98445 0.67961 0.0
C2068 C 0.03563 0.24747 0.77062 0.0
C2069 C 0.03529 0.25723 0.8067 0.0
C2070 C 0.02173 0.23736 0.74768 0.0
C2071 C 0.00734 0.23718 0.76121 0.0
C2072 C 0.00684 0.24561 0.80125 0.0
C2073 C 0.02083 0.25552 0.82346 0.0
C2074 C 0.02269 0.22812 0.70628 0.0
C2075 C 0.99177 0.24562 0.81756 0.0
C2076 C 0.97802 0.23833 0.67554 0.0
C2077 C 0.96475 0.2244 0.68595 0.0
C2078 C 0.99245 0.24194 0.69668 0.0
C2079 C 0.99367 0.2313 0.72902 0.0
C2080 C 0.98075 0.21646 0.73582 0.0
C2081 C 0.96634 0.21317 0.71425 0.0
C2082 C 0.00593 0.25786 0.68778 0.0
C2083 C 0.98171 0.20457 0.76874 0.0
H2084 H 0.0468 0.24869 0.75773 0.0
H2085 H 0.02053 0.26288 0.85189 0.0
H2086 H 0.01215 0.21666 0.70373 0.0
H2087 H 0.02338 0.2348 0.67406 0.0
H2088 H 0.03328 0.22603 0.708 0.0
H2089 H 0.99305 0.25119 0.85223 0.0
H2090 H 0.98809 0.25219 0.79232 0.0
H2091 H 0.98228 0.23348 0.81942 0.0
H2092 H 0.97689 0.24693 0.65303 0.0
H2093 H 0.95613 0.20231 0.72214 0.0
H2094 H 0.01677 0.25669 0.68009 0.0
H2095 H 0.00816 0.26525 0.71935 0.0
H2096 H 0.00355 0.26406 0.65835 0.0
H2097 H 0.99349 0.20489 0.76805 0.0
H2098 H 0.97279 0.1925 0.7602 0.0
H2099 H 0.97948 0.2073 0.80467 0.0
C2100 C 0.26336 0.22842 0.21019 0.0
C2101 C 0.27352 0.2393 0.17828 0.0
C2102 C 0.25324 0.23212 0.23747 0.0
C2103 C 0.25332 0.24696 0.23225 0.0
C2104 C 0.26219 0.25712 0.19615 0.0
C2105 C 0.27224 0.25318 0.16968 0.0
C2106 C 0.24373 0.22084 0.27492 0.0
C2107 C 0.26236 0.27293 0.18869 0.0
C2108 C 0.22761 0.2622 0.29304 0.0
C2109 C 0.23824 0.2723 0.32568 0.0
C2110 C 0.23177 0.25266 0.26448 0.0
C2111 C 0.24683 0.25328 0.26915 0.0
C2112 C 0.25687 0.2622 0.30549 0.0
C2113 C 0.25247 0.27167 0.33319 0.0
C2114 C 0.22064 0.24312 0.22669 0.0
C2115 C 0.27292 0.26295 0.31236 0.0
H2116 H 0.26426 0.21761 0.21677 0.0
H2117 H 0.27994 0.26151 0.14453 0.0
H2118 H 0.25004 0.22451 0.30853 0.0
H2119 H 0.23216 0.22086 0.27908 0.0
H2120 H 0.24191 0.20869 0.26733 0.0
H2121 H 0.26808 0.27841 0.15544 0.0
H2122 H 0.25027 0.27184 0.18873 0.0
H2123 H 0.26885 0.28092 0.21755 0.0
H2124 H 0.21657 0.26265 0.28722 0.0
H2125 H 0.26061 0.27935 0.35884 0.0
H2126 H 0.22112 0.23177 0.22148 0.0
H2127 H 0.22405 0.2497 0.19349 0.0
H2128 H 0.20839 0.24078 0.23465 0.0
H2129 H 0.27222 0.25099 0.31245 0.0
H2130 H 0.27846 0.26889 0.34536 0.0
H2131 H 0.28064 0.26951 0.28316 0.0
C2132 C 0.75546 0.95989 0.25534 0.0
C2133 C 0.74677 0.95959 0.2949 0.0
C2134 C 0.76481 0.97418 0.23299 0.0
C2135 C 0.76529 0.98831 0.25069 0.0
C2136 C 0.75811 0.98815 0.29387 0.0
C2137 C 0.74895 0.97378 0.31541 0.0
C2138 C 0.77279 0.97392 0.18803 0.0
C2139 C 0.75848 0.00291 0.31458 0.0
C2140 C 0.78739 0.02988 0.20488 0.0
C2141 C 0.77534 0.03149 0.18091 0.0
C2142 C 0.78487 0.01538 0.22454 0.0
C2143 C 0.76994 0.00236 0.22036 0.0
C2144 C 0.75828 0.00367 0.19257 0.0
C2145 C 0.76116 0.01818 0.17314 0.0
C2146 C 0.79778 0.01437 0.25257 0.0
C2147 C 0.74222 0.9901 0.18665 0.0
H2148 H 0.75386 0.94893 0.23947 0.0
H2149 H 0.74241 0.97357 0.34645 0.0
H2150 H 0.76522 0.97371 0.15845 0.0
H2151 H 0.78411 0.98456 0.18447 0.0
H2152 H 0.7749 0.96335 0.18555 0.0
H2153 H 0.75411 0.00112 0.35091 0.0
H2154 H 0.77055 0.01256 0.31417 0.0
H2155 H 0.75101 0.00671 0.29344 0.0
H2156 H 0.79844 0.04011 0.21069 0.0
H2157 H 0.75189 0.0193 0.15397 0.0
H2158 H 0.79753 0.00263 0.2493 0.0
H2159 H 0.79621 0.01634 0.28979 0.0
H2160 H 0.80947 0.02345 0.2416 0.0
H2161 H 0.7432 0.97942 0.17537 0.0
H2162 H 0.73498 0.99266 0.16083 0.0
H2163 H 0.73598 0.98744 0.22046 0.0
C2164 C 0.01771 0.75472 0.32379 0.0
C2165 C 0.03017 0.76984 0.32447 0.0
C2166 C 0.00284 0.75208 0.30806 0.0
C2167 C 0.00022 0.76493 0.29322 0.0
C2168 C 0.01238 0.78039 0.2976 0.0
C2169 C 0.02731 0.78267 0.31277 0.0
C2170 C 0.99026 0.73534 0.30439 0.0
C2171 C 0.00994 0.79448 0.28396 0.0
C2172 C 0.97057 0.74973 0.19751 0.0
C2173 C 0.95664 0.74381 0.22315 0.0
C2174 C 0.98504 0.75854 0.21903 0.0
C2175 C 0.98553 0.7616 0.26729 0.0
C2176 C 0.97136 0.75775 0.29157 0.0
C2177 C 0.95699 0.74876 0.2692 0.0
C2178 C -0.0002 0.76259 0.19142 0.0
C2179 C 0.97138 0.76154 0.34244 0.0
H2180 H 0.01975 0.74475 0.33349 0.0
H2181 H 0.03685 0.79442 0.31372 0.0
H2182 H 0.97967 0.73395 0.32379 0.0
H2183 H 0.98681 0.73238 0.26749 0.0
H2184 H 0.99417 0.72675 0.31823 0.0
H2185 H 0.01808 0.80513 0.30315 0.0
H2186 H 0.01233 0.79678 0.24632 0.0
H2187 H 0.99773 0.79252 0.29057 0.0
H2188 H 0.9703 0.74614 0.16162 0.0
H2189 H 0.94623 0.74434 0.28913 0.0
H2190 H 0.00501 0.75466 0.20175 0.0
H2191 H 0.00857 0.77479 0.19869 0.0
H2192 H 0.9975 0.76132 0.15342 0.0
H2193 H 0.9725 0.75231 0.36348 0.0
H2194 H 0.96031 0.76195 0.35251 0.0
H2195 H 0.9814 0.77294 0.35111 0.0
C2196 C 0.32501 0.05934 0.03989 0.0
C2197 C 0.32329 0.0718 0.06097 0.0
C2198 C 0.32144 0.05584 0.99257 0.0
C2199 C 0.31639 0.06525 0.96578 0.0
C2200 C 0.31397 0.07737 0.98751 0.0
C2201 C 0.31729 0.08037 0.03489 0.0
C2202 C 0.3237 0.04253 0.97095 0.0
C2203 C 0.30865 0.08774 0.96024 0.0
C2204 C 0.32417 0.07268 0.83691 0.0
C2205 C 0.30894 0.06526 0.81928 0.0
C2206 C 0.327 0.07192 0.88457 0.0
C2207 C 0.3143 0.06317 0.9146 0.0
C2208 C 0.29915 0.05442 0.89584 0.0
C2209 C 0.2966 0.05582 0.84847 0.0
C2210 C 0.3433 0.08156 0.90328 0.0
C2211 C 0.28541 0.04449 0.92622 0.0
H2212 H 0.32965 0.05268 0.05992 0.0
H2213 H 0.31593 0.09002 0.05094 0.0
H2214 H 0.3136 0.03532 0.94838 0.0
H2215 H 0.3343 0.04734 0.94875 0.0
H2216 H 0.32515 0.03482 0.99761 0.0
H2217 H 0.3072 0.09655 0.98252 0.0
H2218 H 0.31733 0.09404 0.93275 0.0
H2219 H 0.29733 0.08052 0.94278 0.0
H2220 H 0.33367 0.08003 0.8142 0.0
H2221 H 0.28481 0.04993 0.83448 0.0
H2222 H 0.34678 0.07442 0.92687 0.0
H2223 H 0.34348 0.09152 0.92385 0.0
H2224 H 0.35211 0.08634 0.8751 0.0
H2225 H 0.28877 0.03779 0.95184 0.0
H2226 H 0.27533 0.03612 0.90543 0.0
H2227 H 0.28155 0.05219 0.94591 0.0
C2228 C 0.91995 0.25676 0.01674 0.0
C2229 C 0.90522 0.25597 0.0268 0.0
C2230 C 0.92423 0.25556 0.97068 0.0
C2231 C 0.91344 0.25334 0.93416 0.0
C2232 C 0.8989 0.25336 0.94404 0.0
C2233 C 0.89502 0.25475 0.99015 0.0
C2234 C 0.93994 0.25584 0.96139 0.0
C2235 C 0.88699 0.25088 0.90629 0.0
C2236 C 0.92402 0.25542 0.80588 0.0
C2237 C 0.91886 0.23949 0.79543 0.0
C2238 C 0.92293 0.26026 0.85142 0.0
C2239 C 0.91629 0.24886 0.88684 0.0
C2240 C 0.91125 0.2328 0.87638 0.0
C2241 C 0.91269 0.22835 0.83098 0.0
C2242 C 0.92863 0.2775 0.86152 0.0
C2243 C 0.90388 0.22022 0.91287 0.0
H2244 H 0.92793 0.25784 0.04491 0.0
H2245 H 0.88365 0.25426 0.99759 0.0
H2246 H 0.93827 0.24384 0.95239 0.0
H2247 H 0.94573 0.26354 0.93136 0.0
H2248 H 0.94783 0.25998 0.99203 0.0
H2249 H 0.8769 0.2527 0.91903 0.0
H2250 H 0.89246 0.25897 0.87683 0.0
H2251 H 0.88249 0.23873 0.89268 0.0
H2252 H 0.92892 0.26408 0.77856 0.0
H2253 H 0.90867 0.21601 0.82316 0.0
H2254 H 0.93681 0.28102 0.89151 0.0
H2255 H 0.91859 0.27984 0.87118 0.0
H2256 H 0.93466 0.28495 0.83121 0.0
H2257 H 0.91192 0.22257 0.94291 0.0
H2258 H 0.90097 0.2083 0.89931 0.0
H2259 H 0.89297 0.22033 0.92594 0.0
C2260 C 0.74365 0.65564 0.99064 0.0
C2261 C 0.74728 0.64344 0.0039 0.0
C2262 C 0.74462 0.66025 0.9439 0.0
C2263 C 0.7494 0.6525 0.90984 0.0
C2264 C 0.75289 0.64006 0.92304 0.0
C2265 C 0.75177 0.63567 0.96987 0.0
C2266 C 0.74079 0.67356 0.93105 0.0
C2267 C 0.7581 0.63156 0.88782 0.0
C2268 C 0.74192 0.65637 0.78163 0.0
C2269 C 0.75653 0.66798 0.76744 0.0
C2270 C 0.73933 0.65129 0.82808 0.0
C2271 C 0.75167 0.65797 0.86082 0.0
C2272 C 0.76644 0.66964 0.84652 0.0
C2273 C 0.76868 0.67451 0.80007 0.0
C2274 C 0.72343 0.63881 0.84217 0.0
C2275 C 0.77993 0.67697 0.88027 0.0
H2276 H 0.74008 0.66161 0.01679 0.0
H2277 H 0.75455 0.62619 0.97987 0.0
H2278 H 0.75136 0.68349 0.9169 0.0
H2279 H 0.73172 0.66975 0.90341 0.0
H2280 H 0.73651 0.67784 0.96123 0.0
H2281 H 0.75975 0.62171 0.90348 0.0
H2282 H 0.74936 0.62685 0.85941 0.0
H2283 H 0.76932 0.63988 0.8719 0.0
H2284 H 0.73248 0.65135 0.75655 0.0
H2285 H 0.78 0.68351 0.78933 0.0
H2286 H 0.71857 0.64327 0.87045 0.0
H2287 H 0.7245 0.62843 0.85594 0.0
H2288 H 0.715 0.635 0.81273 0.0
H2289 H 0.77658 0.68247 0.90953 0.0
H2290 H 0.79062 0.68604 0.86365 0.0
H2291 H 0.78279 0.66779 0.89523 0.0
C2292 C 0.0637 0.32395 0.68922 0.0
C2293 C 0.07257 0.31588 0.69971 0.0
C2294 C 0.06311 0.32899 0.64357 0.0
C2295 C 0.0718 0.3261 0.60807 0.0
C2296 C 0.08062 0.31781 0.61858 0.0
C2297 C 0.0808 0.31272 0.66411 0.0
C2298 C 0.05338 0.33758 0.63342 0.0
C2299 C 0.09026 0.31467 0.58201 0.0
C2300 C 0.06664 0.32866 0.47797 0.0
C2301 C 0.07942 0.34303 0.46777 0.0
C2302 C 0.0632 0.32343 0.52419 0.0
C2303 C 0.07288 0.33274 0.56066 0.0
C2304 C 0.08516 0.34769 0.5506 0.0
C2305 C 0.08821 0.35267 0.50437 0.0
C2306 C 0.04983 0.30755 0.53367 0.0
C2307 C 0.09585 0.35796 0.58827 0.0
H2308 H 0.05719 0.32627 0.71658 0.0
H2309 H 0.08767 0.30647 0.67197 0.0
H2310 H 0.06113 0.34987 0.62348 0.0
H2311 H 0.04544 0.33204 0.6036 0.0
H2312 H 0.04626 0.3377 0.66381 0.0
H2313 H 0.09611 0.30767 0.59564 0.0
H2314 H 0.08274 0.30828 0.55223 0.0
H2315 H 0.09938 0.32596 0.56855 0.0
H2316 H 0.05973 0.32123 0.44983 0.0
H2317 H 0.098 0.36389 0.49682 0.0
H2318 H 0.04291 0.3081 0.564 0.0
H2319 H 0.05455 0.29907 0.54222 0.0
H2320 H 0.0419 0.303 0.50322 0.0
H2321 H 0.08894 0.35912 0.61771 0.0
H2322 H 0.10376 0.36989 0.5754 0.0
H2323 H 0.10315 0.35246 0.60194 0.0
C2324 C 0.65596 0.72324 0.69601 0.0
C2325 C 0.65213 0.7347 0.71496 0.0
C2326 C 0.65321 0.71914 0.64879 0.0
C2327 C 0.64686 0.72698 0.62 0.0
C2328 C 0.64203 0.73777 0.63978 0.0
C2329 C 0.64453 0.74132 0.68713 0.0
C2330 C 0.65797 0.70714 0.62939 0.0
C2331 C 0.63526 0.74647 0.61036 0.0
C2332 C 0.65744 0.73656 0.49363 0.0
C2333 C 0.64288 0.7279 0.4727 0.0
C2334 C 0.6593 0.73547 0.54169 0.0
C2335 C 0.64638 0.72515 0.56868 0.0
C2336 C 0.63218 0.71515 0.5465 0.0
C2337 C 0.63049 0.7169 0.49878 0.0
C2338 C 0.6746 0.74645 0.5641 0.0
C2339 C 0.6184 0.70348 0.57361 0.0
H2340 H 0.66179 0.71804 0.71743 0.0
H2341 H 0.64148 0.75013 0.70163 0.0
H2342 H 0.64947 0.69967 0.60288 0.0
H2343 H 0.66956 0.71324 0.61234 0.0
H2344 H 0.65894 0.6995 0.65717 0.0
H2345 H 0.63178 0.75421 0.6314 0.0
H2346 H 0.64402 0.75378 0.5843 0.0
H2347 H 0.62483 0.73805 0.5911 0.0
H2348 H 0.66695 0.74509 0.47322 0.0
H2349 H 0.61926 0.71009 0.48216 0.0
H2350 H 0.67871 0.73994 0.58817 0.0
H2351 H 0.67283 0.75538 0.58488 0.0
H2352 H 0.6839 0.75261 0.53803 0.0
H2353 H 0.62229 0.69747 0.60008 0.0
H2354 H 0.6096 0.69452 0.55055 0.0
H2355 H 0.6126 0.70972 0.59215 0.0
C2356 C 0.25456 0.92295 0.68987 0.0
C2357 C 0.23885 0.91893 0.70001 0.0
C2358 C 0.25918 0.9215 0.64438 0.0
C2359 C 0.24777 0.91567 0.60865 0.0
C2360 C 0.23196 0.91185 0.61873 0.0
C2361 C 0.22773 0.91362 0.66412 0.0
C2362 C 0.27618 0.92588 0.63472 0.0
C2363 C 0.21937 0.90541 0.58187 0.0
C2364 C 0.25628 0.91897 0.47911 0.0
C2365 C 0.25443 0.90382 0.46899 0.0
C2366 C 0.25516 0.92341 0.52507 0.0
C2367 C 0.25191 0.91235 0.56143 0.0
C2368 C 0.25073 0.89728 0.55152 0.0
C2369 C 0.25209 0.89325 0.50552 0.0
C2370 C 0.25674 0.93966 0.53443 0.0
C2371 C 0.24708 0.88506 0.58908 0.0
H2372 H 0.26321 0.92717 0.71744 0.0
H2373 H 0.21556 0.91049 0.67166 0.0
H2374 H 0.27755 0.91523 0.62535 0.0
H2375 H 0.28032 0.93401 0.60467 0.0
H2376 H 0.28379 0.93154 0.66515 0.0
H2377 H 0.20771 0.90351 0.5951 0.0
H2378 H 0.22244 0.91355 0.5519 0.0
H2379 H 0.21847 0.89405 0.56881 0.0
H2380 H 0.25822 0.92723 0.45104 0.0
H2381 H 0.25073 0.88153 0.49802 0.0
H2382 H 0.26458 0.945 0.56459 0.0
H2383 H 0.24511 0.93895 0.54328 0.0
H2384 H 0.2614 0.94751 0.5039 0.0
H2385 H 0.25524 0.88994 0.61879 0.0
H2386 H 0.24784 0.87439 0.57632 0.0
H2387 H 0.23506 0.88156 0.60235 0.0
C2388 C 0.69569 0.91972 0.14949 0.0
C2389 C 0.6912 0.92618 0.1871 0.0
C2390 C 0.69114 0.921 0.10404 0.0
C2391 C 0.68202 0.92914 0.09576 0.0
C2392 C 0.67794 0.93624 0.13334 0.0
C2393 C 0.68248 0.93456 0.17876 0.0
C2394 C 0.69558 0.91308 0.06512 0.0
C2395 C 0.66845 0.94522 0.12569 0.0
C2396 C 0.67925 0.93728 0.96757 0.0
C2397 C 0.66541 0.92417 0.95507 0.0
C2398 C 0.68438 0.93971 0.01409 0.0
C2399 C 0.67551 0.92868 0.04847 0.0
C2400 C 0.66111 0.91593 0.03625 0.0
C2401 C 0.65623 0.91389 0.98983 0.0
C2402 C 0.69965 0.95359 0.02602 0.0
C2403 C 0.65133 0.90382 0.07163 0.0
H2404 H 0.70248 0.91328 0.15566 0.0
H2405 H 0.67915 0.93974 0.20769 0.0
H2406 H 0.68485 0.90359 0.04992 0.0
H2407 H 0.7016 0.92159 0.037 0.0
H2408 H 0.70337 0.9079 0.07708 0.0
H2409 H 0.6678 0.95154 0.15748 0.0
H2410 H 0.67357 0.95383 0.09714 0.0
H2411 H 0.65636 0.937 0.1151 0.0
H2412 H 0.68633 0.94532 0.94088 0.0
H2413 H 0.64543 0.9038 0.98054 0.0
H2414 H 0.70871 0.94951 0.03307 0.0
H2415 H 0.6984 0.95948 0.05795 0.0
H2416 H 0.70386 0.9623 0.99735 0.0
H2417 H 0.65773 0.89715 0.08357 0.0
H2418 H 0.63983 0.89537 0.05731 0.0
H2419 H 0.64923 0.90959 0.10253 0.0
C2420 C 0.07401 0.742 0.19579 0.0
C2421 C 0.07739 0.75758 0.20621 0.0
C2422 C 0.07561 0.73756 0.1502 0.0
C2423 C 0.08095 0.74904 0.11462 0.0
C2424 C 0.08408 0.76471 0.12495 0.0
C2425 C 0.08217 0.76875 0.17046 0.0
C2426 C 0.07195 0.72069 0.14027 0.0
C2427 C 0.09 0.77738 0.08824 0.0
C2428 C 0.10384 0.74548 0.01171 0.0
C2429 C 0.09312 0.74247 0.97519 0.0
C2430 C 0.09977 0.74694 0.05757 0.0
C2431 C 0.08452 0.74516 0.06736 0.0
C2432 C 0.07337 0.74133 0.03102 0.0
C2433 C 0.07784 0.74014 0.98517 0.0
C2434 C 0.11208 0.75122 0.09513 0.0
C2435 C 0.05693 0.73911 0.04028 0.0
H2436 H 0.07019 0.7333 0.22326 0.0
H2437 H 0.0848 0.78082 0.17824 0.0
H2438 H 0.06388 0.71628 0.11015 0.0
H2439 H 0.08286 0.71987 0.13093 0.0
H2440 H 0.06655 0.71294 0.17059 0.0
H2441 H 0.09133 0.78887 0.1016 0.0
H2442 H 0.10155 0.77886 0.07527 0.0
H2443 H 0.08187 0.77396 0.05818 0.0
H2444 H 0.11566 0.74724 0.0043 0.0
H2445 H 0.06948 0.73769 0.95711 0.0
H2446 H 0.10759 0.74298 0.12477 0.0
H2447 H 0.11497 0.76314 0.10851 0.0
H2448 H 0.12303 0.75109 0.08236 0.0
H2449 H 0.05182 0.73113 0.07025 0.0
H2450 H 0.04916 0.73426 0.00964 0.0
H2451 H 0.05717 0.75056 0.04943 0.0
C2452 C 0.26419 0.34113 0.22156 0.0
C2453 C 0.24842 0.33223 0.23337 0.0
C2454 C 0.26849 0.34667 0.17586 0.0
C2455 C 0.2567 0.34331 0.14167 0.0
C2456 C 0.24078 0.33439 0.1537 0.0
C2457 C 0.23687 0.32893 0.19922 0.0
C2458 C 0.28558 0.35605 0.1641 0.0
C2459 C 0.22781 0.33071 0.11856 0.0
C2460 C 0.26089 0.36829 0.03571 0.0
C2461 C 0.26127 0.35848 0.99981 0.0
C2462 C 0.26055 0.364 0.0824 0.0
C2463 C 0.26064 0.34955 0.09357 0.0
C2464 C 0.26212 0.34009 0.05763 0.0
C2465 C 0.26237 0.34466 0.01103 0.0
C2466 C 0.25893 0.37442 0.11953 0.0
C2467 C 0.26242 0.32468 0.06821 0.0
H2468 H 0.27315 0.3436 0.24781 0.0
H2469 H 0.22465 0.32208 0.20811 0.0
H2470 H 0.28882 0.3503 0.13528 0.0
H2471 H 0.28776 0.36791 0.15189 0.0
H2472 H 0.29333 0.35732 0.19429 0.0
H2473 H 0.21603 0.3235 0.13352 0.0
H2474 H 0.2281 0.34176 0.10498 0.0
H2475 H 0.22951 0.32428 0.08862 0.0
H2476 H 0.26023 0.37911 0.02733 0.0
H2477 H 0.26282 0.3371 0.98342 0.0
H2478 H 0.26722 0.37611 0.14848 0.0
H2479 H 0.24692 0.36874 0.13413 0.0
H2480 H 0.26105 0.38612 0.10576 0.0
H2481 H 0.27054 0.32603 0.0974 0.0
H2482 H 0.26602 0.31995 0.03758 0.0
H2483 H 0.25057 0.31596 0.07902 0.0
C2484 C 0.94141 0.69484 0.53236 0.0
C2485 C 0.9406 0.6814 0.55473 0.0
C2486 C 0.94363 0.69665 0.48413 0.0
C2487 C 0.94493 0.68468 0.45783 0.0
C2488 C 0.94619 0.67217 0.48109 0.0
C2489 C 0.94401 0.67067 0.5294 0.0
C2490 C 0.94283 0.7105 0.46084 0.0
C2491 C 0.94807 0.65938 0.45485 0.0
C2492 C 0.92177 0.6772 0.3463 0.0
C2493 C 0.93348 0.68504 0.31358 0.0
C2494 C 0.92552 0.67617 0.3928 0.0
C2495 C 0.94139 0.68351 0.40718 0.0
C2496 C 0.95336 0.69069 0.37367 0.0
C2497 C 0.94924 0.6913 0.32697 0.0
C2498 C 0.91237 0.66799 0.42701 0.0
C2499 C 0.97041 0.69862 0.38733 0.0
H2500 H 0.93904 0.70331 0.55184 0.0
H2501 H 0.94362 0.66033 0.54649 0.0
H2502 H 0.95183 0.71535 0.43326 0.0
H2503 H 0.93119 0.70663 0.44415 0.0
H2504 H 0.94451 0.71998 0.48603 0.0
H2505 H 0.9544 0.65429 0.47625 0.0
H2506 H 0.93631 0.64985 0.44661 0.0
H2507 H 0.95451 0.66372 0.42178 0.0
H2508 H 0.90958 0.67236 0.33578 0.0
H2509 H 0.95829 0.69759 0.30168 0.0
H2510 H 0.91181 0.67669 0.45172 0.0
H2511 H 0.91454 0.65926 0.44752 0.0
H2512 H 0.9008 0.66187 0.40958 0.0
H2513 H 0.97341 0.71069 0.39956 0.0
H2514 H 0.97809 0.69948 0.35738 0.0
H2515 H 0.97295 0.69228 0.416 0.0
C2516 C 0.36473 0.25529 0.47976 0.0
C2517 C 0.359 0.26095 0.5165 0.0
C2518 C 0.3598 0.25541 0.43398 0.0
C2519 C 0.349 0.26154 0.42443 0.0
C2520 C 0.34373 0.26799 0.46102 0.0
C2521 C 0.34871 0.2675 0.50681 0.0
C2522 C 0.36554 0.24821 0.39619 0.0
C2523 C 0.33243 0.27488 0.45203 0.0
C2524 C 0.34361 0.26674 0.29546 0.0
C2525 C 0.33057 0.25255 0.28524 0.0
C2526 C 0.34931 0.27033 0.34129 0.0
C2527 C 0.34189 0.25936 0.37729 0.0
C2528 C 0.32837 0.24531 0.36726 0.0
C2529 C 0.32285 0.24215 0.32154 0.0
C2530 C 0.36359 0.28554 0.35088 0.0
C2531 C 0.32018 0.23319 0.40438 0.0
H2532 H 0.37276 0.25028 0.48694 0.0
H2533 H 0.34438 0.27205 0.53503 0.0
H2534 H 0.35559 0.23752 0.38254 0.0
H2535 H 0.37037 0.25649 0.36677 0.0
H2536 H 0.37472 0.24491 0.40882 0.0
H2537 H 0.33113 0.28127 0.48275 0.0
H2538 H 0.3364 0.28304 0.42203 0.0
H2539 H 0.32076 0.26536 0.44304 0.0
H2540 H 0.34955 0.27487 0.2676 0.0
H2541 H 0.3127 0.23119 0.31404 0.0
H2542 H 0.37371 0.28311 0.35873 0.0
H2543 H 0.36164 0.29145 0.38176 0.0
H2544 H 0.36668 0.29369 0.32082 0.0
H2545 H 0.32814 0.22837 0.41735 0.0
H2546 H 0.30929 0.22331 0.39138 0.0
H2547 H 0.31715 0.23865 0.43436 0.0
C2548 C 0.74194 0.07636 0.51353 0.0
C2549 C 0.74313 0.09126 0.5239 0.0
C2550 C 0.7434 0.07219 0.46751 0.0
C2551 C 0.74631 0.08326 0.43136 0.0
C2552 C 0.74683 0.09804 0.44152 0.0
C2553 C 0.74515 0.10182 0.48756 0.0
C2554 C 0.74254 0.05622 0.4579 0.0
C2555 C 0.75008 0.11027 0.40418 0.0
C2556 C 0.77102 0.0831 0.32865 0.0
C2557 C 0.75993 0.07739 0.29276 0.0
C2558 C 0.76663 0.08467 0.37402 0.0
C2559 C 0.75069 0.08026 0.38407 0.0
C2560 C 0.73933 0.07408 0.3483 0.0
C2561 C 0.74411 0.07283 0.30285 0.0
C2562 C 0.77916 0.09152 0.41091 0.0
C2563 C 0.72221 0.06907 0.35793 0.0
H2564 H 0.74025 0.06811 0.54144 0.0
H2565 H 0.746 0.11334 0.49524 0.0
H2566 H 0.73479 0.05068 0.42771 0.0
H2567 H 0.75436 0.05747 0.44895 0.0
H2568 H 0.73815 0.04827 0.48833 0.0
H2569 H 0.74883 0.12067 0.41711 0.0
H2570 H 0.76219 0.11424 0.39104 0.0
H2571 H 0.74202 0.1052 0.37434 0.0
H2572 H 0.78327 0.08665 0.32114 0.0
H2573 H 0.73548 0.06831 0.27527 0.0
H2574 H 0.77639 0.08337 0.44081 0.0
H2575 H 0.77957 0.10267 0.42409 0.0
H2576 H 0.79096 0.09392 0.39768 0.0
H2577 H 0.7183 0.06081 0.3877 0.0
H2578 H 0.71472 0.06333 0.32736 0.0
H2579 H 0.72039 0.07943 0.36771 0.0
C2580 C 0.9886 0.40391 0.17234 0.0
C2581 C 0.97558 0.40647 0.16135 0.0
C2582 C 0.99354 0.40455 0.21871 0.0
C2583 C 0.98528 0.4079 0.25456 0.0
C2584 C 0.97165 0.40966 0.24373 0.0
C2585 C 0.96697 0.4089 0.19733 0.0
C2586 C 0.00804 0.40245 0.22906 0.0
C2587 C 0.96254 0.41333 0.2808 0.0
C2588 C 0.99252 0.40462 0.38338 0.0
C2589 C 0.00255 0.42027 0.3942 0.0
C2590 C 0.98721 0.4002 0.33756 0.0
C2591 C 0.99194 0.41176 0.30221 0.0
C2592 C 0.00225 0.42751 0.31301 0.0
C2593 C 0.00745 0.43154 0.35873 0.0
C2594 C 0.97635 0.38327 0.3271 0.0
C2595 C 0.00744 0.44025 0.27652 0.0
H2596 H 0.99521 0.40189 0.14468 0.0
H2597 H 0.95677 0.4107 0.18915 0.0
H2598 H 0.01777 0.41394 0.23868 0.0
H2599 H 0.006 0.39444 0.25901 0.0
H2600 H 0.01177 0.39771 0.19872 0.0
H2601 H 0.95138 0.41279 0.26731 0.0
H2602 H 0.95986 0.40501 0.31023 0.0
H2603 H 0.96973 0.42529 0.29468 0.0
H2604 H 0.98882 0.39586 0.41066 0.0
H2605 H 0.01524 0.44366 0.3668 0.0
H2606 H 0.98089 0.37904 0.29747 0.0
H2607 H 0.96469 0.3822 0.31673 0.0
H2608 H 0.97483 0.37551 0.35747 0.0
H2609 H 0.0129 0.43708 0.24685 0.0
H2610 H 0.01597 0.45181 0.29033 0.0
H2611 H 0.99713 0.44147 0.26286 0.0
C2612 C 0.58164 0.58714 0.14006 0.0
C2613 C 0.59448 0.58709 0.11652 0.0
C2614 C 0.58233 0.59013 0.18796 0.0
C2615 C 0.59616 0.593 0.21303 0.0
C2616 C 0.60957 0.59419 0.18877 0.0
C2617 C 0.60859 0.59129 0.14066 0.0
C2618 C 0.56782 0.589 0.21226 0.0
C2619 C 0.62454 0.59727 0.21405 0.0
C2620 C 0.596 0.60507 0.33906 0.0
C2621 C 0.58933 0.59039 0.36108 0.0
C2622 C 0.59916 0.6063 0.29109 0.0
C2623 C 0.5957 0.59255 0.26483 0.0
C2624 C 0.59008 0.57786 0.28774 0.0
C2625 C 0.58688 0.57696 0.33549 0.0
C2626 C 0.60514 0.62216 0.26809 0.0
C2627 C 0.58644 0.56292 0.26129 0.0
H2628 H 0.57074 0.58398 0.12152 0.0
H2629 H 0.61856 0.59122 0.1227 0.0
H2630 H 0.56277 0.57819 0.23368 0.0
H2631 H 0.57078 0.59912 0.23599 0.0
H2632 H 0.55874 0.58862 0.18733 0.0
H2633 H 0.63454 0.60039 0.18977 0.0
H2634 H 0.62751 0.60688 0.23972 0.0
H2635 H 0.62296 0.58658 0.23344 0.0
H2636 H 0.59781 0.61548 0.35863 0.0
H2637 H 0.58178 0.5656 0.35241 0.0
H2638 H 0.5955 0.62286 0.24806 0.0
H2639 H 0.61465 0.62389 0.24323 0.0
H2640 H 0.60955 0.63188 0.29385 0.0
H2641 H 0.57624 0.56019 0.23812 0.0
H2642 H 0.58368 0.55276 0.28478 0.0
H2643 H 0.59649 0.56435 0.23903 0.0
C2644 C 0.39739 0.98707 0.33459 0.0
C2645 C 0.40654 0.97929 0.34503 0.0
C2646 C 0.39661 0.992 0.28896 0.0
C2647 C 0.4054 0.98928 0.25341 0.0
C2648 C 0.41457 0.98134 0.2639 0.0
C2649 C 0.41493 0.97636 0.30945 0.0
C2650 C 0.38654 0.00022 0.27884 0.0
C2651 C 0.42432 0.97843 0.22721 0.0
C2652 C 0.39923 0.99116 0.12361 0.0
C2653 C 0.41162 0.00572 0.1126 0.0
C2654 C 0.39629 0.98603 0.17001 0.0
C2655 C 0.40608 0.99564 0.20583 0.0
C2656 C 0.41797 0.01073 0.195 0.0
C2657 C 0.42053 0.01559 0.14861 0.0
C2658 C 0.38331 0.96998 0.18037 0.0
C2659 C 0.42876 0.02131 0.23199 0.0
H2660 H 0.39076 0.9892 0.36196 0.0
H2661 H 0.42201 0.97034 0.31733 0.0
H2662 H 0.39402 0.01247 0.26788 0.0
H2663 H 0.37843 0.99431 0.24968 0.0
H2664 H 0.37958 0.00043 0.30952 0.0
H2665 H 0.43051 0.97176 0.2409 0.0
H2666 H 0.41679 0.97177 0.19774 0.0
H2667 H 0.43316 0.98978 0.21329 0.0
H2668 H 0.39223 0.98353 0.09594 0.0
H2669 H 0.43003 0.02695 0.14041 0.0
H2670 H 0.3764 0.97046 0.21081 0.0
H2671 H 0.38844 0.96186 0.18918 0.0
H2672 H 0.3753 0.96505 0.15027 0.0
H2673 H 0.42192 0.0224 0.26174 0.0
H2674 H 0.43637 0.03325 0.21857 0.0
H2675 H 0.43636 0.01612 0.24539 0.0
C2676 C 0.58485 0.0171 0.88226 0.0
C2677 C 0.59275 0.01014 0.90741 0.0
C2678 C 0.58756 0.0202 0.83471 0.0
C2679 C 0.59871 0.01658 0.8118 0.0
C2680 C 0.60755 0.01061 0.83767 0.0
C2681 C 0.60435 0.0073 0.8852 0.0
C2682 C 0.57781 0.02652 0.80848 0.0
C2683 C 0.61985 0.00701 0.81481 0.0
C2684 C 0.58947 0.00828 0.68366 0.0
C2685 C 0.59772 0.0233 0.66498 0.0
C2686 C 0.59045 0.00564 0.73135 0.0
C2687 C 0.60023 0.01826 0.76039 0.0
C2688 C 0.60969 0.03308 0.74055 0.0
C2689 C 0.60809 0.0355 0.69318 0.0
C2690 C 0.58003 0.98969 0.75121 0.0
C2691 C 0.62072 0.04667 0.7698 0.0
H2692 H 0.57587 0.01933 0.89917 0.0
H2693 H 0.61049 0.0019 0.90445 0.0
H2694 H 0.5855 0.03751 0.79015 0.0
H2695 H 0.57065 0.01791 0.78175 0.0
H2696 H 0.56984 0.02899 0.83165 0.0
H2697 H 0.62757 0.00524 0.84077 0.0
H2698 H 0.61407 0.99614 0.79385 0.0
H2699 H 0.62718 0.01662 0.79091 0.0
H2700 H 0.58142 0.99888 0.66175 0.0
H2701 H 0.61462 0.04711 0.67842 0.0
H2702 H 0.57082 0.99054 0.77298 0.0
H2703 H 0.58687 0.98557 0.77391 0.0
H2704 H 0.57426 0.9808 0.72365 0.0
H2705 H 0.61392 0.05141 0.79032 0.0
H2706 H 0.6293 0.05631 0.74812 0.0
H2707 H 0.62721 0.04279 0.79469 0.0
C2708 C 0.00603 0.60191 0.64034 0.0
C2709 C 0.99118 0.58983 0.63023 0.0
C2710 C 0.01154 0.6049 0.68641 0.0
C2711 C 0.00205 0.59543 0.72285 0.0
C2712 C 0.98672 0.58386 0.71296 0.0
C2713 C 0.98145 0.58128 0.66688 0.0
C2714 C 0.02784 0.61756 0.69574 0.0
C2715 C 0.97625 0.57339 0.75059 0.0
C2716 C 0.02151 0.58589 0.82476 0.0
C2717 C 0.01906 0.59442 0.86094 0.0
C2718 C 0.01632 0.58643 0.77956 0.0
C2719 C 0.00874 0.596 0.76996 0.0
C2720 C 0.00664 0.60503 0.80605 0.0
C2721 C 0.01168 0.604 0.85138 0.0
C2722 C 0.01854 0.57636 0.74239 0.0
C2723 C 0.9989 0.61561 0.79685 0.0
H2724 H 0.01355 0.60863 0.61219 0.0
H2725 H 0.9699 0.57201 0.65941 0.0
H2726 H 0.0279 0.62467 0.7264 0.0
H2727 H 0.03573 0.6121 0.70369 0.0
H2728 H 0.03268 0.62548 0.66543 0.0
H2729 H 0.96416 0.56602 0.73793 0.0
H2730 H 0.9812 0.56553 0.76361 0.0
H2731 H 0.97566 0.58048 0.78044 0.0
H2732 H 0.0272 0.57844 0.83197 0.0
H2733 H 0.00992 0.61073 0.87923 0.0
H2734 H 0.02512 0.58374 0.71265 0.0
H2735 H 0.00697 0.56777 0.72906 0.0
H2736 H 0.02496 0.56983 0.7554 0.0
H2737 H 0.00464 0.62347 0.76709 0.0
H2738 H 0.99939 0.62289 0.82757 0.0
H2739 H 0.98646 0.60844 0.78726 0.0
C2740 C 0.41289 0.4081 0.64091 0.0
C2741 C 0.42848 0.41151 0.63112 0.0
C2742 C 0.40821 0.40933 0.68649 0.0
C2743 C 0.41945 0.41431 0.72277 0.0
C2744 C 0.4351 0.41734 0.71314 0.0
C2745 C 0.43938 0.41581 0.66758 0.0
C2746 C 0.39137 0.40577 0.69561 0.0
C2747 C 0.44753 0.42288 0.75059 0.0
C2748 C 0.41548 0.4372 0.82536 0.0
C2749 C 0.41198 0.42634 0.86171 0.0
C2750 C 0.41732 0.43321 0.77971 0.0
C2751 C 0.41542 0.41788 0.76986 0.0
C2752 C 0.41117 0.40661 0.80599 0.0
C2753 C 0.40961 0.41101 0.85167 0.0
C2754 C 0.42203 0.44565 0.74242 0.0
C2755 C 0.40882 0.39009 0.79665 0.0
H2756 H 0.40439 0.40465 0.61291 0.0
H2757 H 0.45146 0.41842 0.66034 0.0
H2758 H 0.38678 0.39773 0.72571 0.0
H2759 H 0.39059 0.41676 0.70454 0.0
H2760 H 0.38375 0.40036 0.66501 0.0
H2761 H 0.45896 0.42394 0.73787 0.0
H2762 H 0.44923 0.43452 0.76368 0.0
H2763 H 0.44376 0.41466 0.78043 0.0
H2764 H 0.41728 0.44907 0.83277 0.0
H2765 H 0.40679 0.40254 0.87958 0.0
H2766 H 0.4139 0.44136 0.71242 0.0
H2767 H 0.43392 0.44828 0.72954 0.0
H2768 H 0.42214 0.45672 0.75524 0.0
H2769 H 0.40098 0.38509 0.76628 0.0
H2770 H 0.40376 0.38227 0.82705 0.0
H2771 H 0.42022 0.3902 0.78804 0.0
loop_
_geom_bond_atom_site_label_1
_geom_bond_atom_site_label_2
_geom_bond_distance
_geom_bond_site_symmetry_2
_ccdc_geom_bond_type
In0 O1 2.294 . S
In0 O2 2.326 . S
In0 O6 2.266 . S
In0 O7 2.326 . S
In0 O8 2.266 . S
In0 O9 2.326 . S
In0 O11 2.294 . S
In0 O12 2.326 . S
O1 In0 2.294 . S
O1 C10 1.240 . S
O2 In0 2.326 . S
O2 C10 1.252 . S
C3 O6 1.252 . S
C3 O7 1.260 . S
C4 O11 1.240 . S
C4 O12 1.252 . S
C5 O8 1.252 . S
C5 O9 1.260 . S
O6 In0 2.266 . S
O6 C3 1.252 . S
O7 In0 2.326 . S
O7 C3 1.260 . S
O8 In0 2.266 . S
O8 C5 1.252 . S
O9 In0 2.326 . S
O9 C5 1.260 . S
C10 O1 1.240 . S
C10 O2 1.252 . S
O11 In0 2.294 . S
O11 C4 1.240 . S
O12 In0 2.326 . S
O12 C4 1.252 . S
In13 O14 2.294 . S
In13 O15 2.326 . S
In13 O19 2.266 . S
In13 O20 2.326 . S
In13 O21 2.266 . S
In13 O22 2.326 . S
In13 O24 2.294 . S
In13 O25 2.326 . S
O14 In13 2.294 . S
O14 C23 1.240 . S
O15 In13 2.326 . S
O15 C23 1.252 . S
C16 O19 1.252 . S
C16 O20 1.260 . S
C17 O24 1.240 . S
C17 O25 1.252 . S
C18 O21 1.252 . S
C18 O22 1.260 . S
O19 In13 2.266 . S
O19 C16 1.252 . S
O20 In13 2.326 . S
O20 C16 1.260 . S
O21 In13 2.266 . S
O21 C18 1.252 . S
O22 In13 2.326 . S
O22 C18 1.260 . S
C23 O14 1.240 . S
C23 O15 1.252 . S
O24 In13 2.294 . S
O24 C17 1.240 . S
O25 In13 2.326 . S
O25 C17 1.252 . S
In26 O27 2.294 . S
In26 O28 2.326 . S
In26 O32 2.266 . S
In26 O33 2.326 . S
In26 O34 2.266 . S
In26 O35 2.326 . S
In26 O37 2.294 . S
In26 O38 2.326 . S
O27 In26 2.294 . S
O27 C36 1.240 . S
O28 In26 2.326 . S
O28 C36 1.252 . S
C29 O32 1.252 . S
C29 O33 1.260 . S
C30 O37 1.240 . S
C30 O38 1.252 . S
C31 O34 1.252 . S
C31 O35 1.260 . S
O32 In26 2.266 . S
O32 C29 1.252 . S
O33 In26 2.326 . S
O33 C29 1.260 . S
O34 In26 2.266 . S
O34 C31 1.252 . S
O35 In26 2.326 . S
O35 C31 1.260 . S
C36 O27 1.240 . S
C36 O28 1.252 . S
O37 In26 2.294 . S
O37 C30 1.240 . S
O38 In26 2.326 . S
O38 C30 1.252 . S
In39 O40 2.294 . S
In39 O41 2.326 . S
In39 O45 2.266 . S
In39 O46 2.326 . S
In39 O47 2.266 . S
In39 O48 2.326 . S
In39 O50 2.294 . S
In39 O51 2.326 . S
O40 In39 2.294 . S
O40 C49 1.240 . S
O41 In39 2.326 . S
O41 C49 1.252 . S
C42 O45 1.252 . S
C42 O46 1.260 . S
C43 O50 1.240 . S
C43 O51 1.252 . S
C44 O47 1.252 . S
C44 O48 1.260 . S
O45 In39 2.266 . S
O45 C42 1.252 . S
O46 In39 2.326 . S
O46 C42 1.260 . S
O47 In39 2.266 . S
O47 C44 1.252 . S
O48 In39 2.326 . S
O48 C44 1.260 . S
C49 O40 1.240 . S
C49 O41 1.252 . S
O50 In39 2.294 . S
O50 C43 1.240 . S
O51 In39 2.326 . S
O51 C43 1.252 . S
In52 O53 2.294 . S
In52 O54 2.326 . S
In52 O58 2.266 . S
In52 O59 2.326 . S
In52 O60 2.266 . S
In52 O61 2.326 . S
In52 O63 2.294 . S
In52 O64 2.326 . S
O53 In52 2.294 . S
O53 C62 1.240 . S
O54 In52 2.326 . S
O54 C62 1.252 . S
C55 O58 1.252 . S
C55 O59 1.260 . S
C56 O63 1.240 . S
C56 O64 1.252 . S
C57 O60 1.252 . S
C57 O61 1.260 . S
O58 In52 2.266 . S
O58 C55 1.252 . S
O59 In52 2.326 . S
O59 C55 1.260 . S
O60 In52 2.266 . S
O60 C57 1.252 . S
O61 In52 2.326 . S
O61 C57 1.260 . S
C62 O53 1.240 . S
C62 O54 1.252 . S
O63 In52 2.294 . S
O63 C56 1.240 . S
O64 In52 2.326 . S
O64 C56 1.252 . S
In65 O66 2.294 . S
In65 O67 2.326 . S
In65 O71 2.266 . S
In65 O72 2.326 . S
In65 O73 2.266 . S
In65 O74 2.326 . S
In65 O76 2.294 . S
In65 O77 2.326 . S
O66 In65 2.294 . S
O66 C75 1.240 . S
O67 In65 2.326 . S
O67 C75 1.252 . S
C68 O71 1.252 . S
C68 O72 1.260 . S
C69 O76 1.240 . S
C69 O77 1.252 . S
C70 O73 1.252 . S
C70 O74 1.260 . S
O71 In65 2.266 . S
O71 C68 1.252 . S
O72 In65 2.326 . S
O72 C68 1.260 . S
O73 In65 2.266 . S
O73 C70 1.252 . S
O74 In65 2.326 . S
O74 C70 1.260 . S
C75 O66 1.240 . S
C75 O67 1.252 . S
O76 In65 2.294 . S
O76 C69 1.240 . S
O77 In65 2.326 . S
O77 C69 1.252 . S
In78 O79 2.294 . S
In78 O80 2.326 . S
In78 O84 2.266 . S
In78 O85 2.326 . S
In78 O86 2.266 . S
In78 O87 2.326 . S
In78 O89 2.294 . S
In78 O90 2.326 . S
O79 In78 2.294 . S
O79 C88 1.240 . S
O80 In78 2.326 . S
O80 C88 1.252 . S
C81 O84 1.252 . S
C81 O85 1.260 . S
C82 O89 1.240 . S
C82 O90 1.252 . S
C83 O86 1.252 . S
C83 O87 1.260 . S
O84 In78 2.266 . S
O84 C81 1.252 . S
O85 In78 2.326 . S
O85 C81 1.260 . S
O86 In78 2.266 . S
O86 C83 1.252 . S
O87 In78 2.326 . S
O87 C83 1.260 . S
C88 O79 1.240 . S
C88 O80 1.252 . S
O89 In78 2.294 . S
O89 C82 1.240 . S
O90 In78 2.326 . S
O90 C82 1.252 . S
In91 O92 2.294 . S
In91 O93 2.326 . S
In91 O97 2.266 . S
In91 O98 2.326 . S
In91 O99 2.266 . S
In91 O100 2.326 . S
In91 O102 2.294 . S
In91 O103 2.326 . S
O92 In91 2.294 . S
O92 C101 1.240 . S
O93 In91 2.326 . S
O93 C101 1.252 . S
C94 O97 1.252 . S
C94 O98 1.260 . S
C95 O102 1.240 . S
C95 O103 1.252 . S
C96 O99 1.252 . S
C96 O100 1.260 . S
O97 In91 2.266 . S
O97 C94 1.252 . S
O98 In91 2.326 . S
O98 C94 1.260 . S
O99 In91 2.266 . S
O99 C96 1.252 . S
O100 In91 2.326 . S
O100 C96 1.260 . S
C101 O92 1.240 . S
C101 O93 1.252 . S
O102 In91 2.294 . S
O102 C95 1.240 . S
O103 In91 2.326 . S
O103 C95 1.252 . S
In104 O105 2.294 . S
In104 O106 2.326 . S
In104 O110 2.266 . S
In104 O111 2.326 . S
In104 O112 2.266 . S
In104 O113 2.326 . S
In104 O115 2.294 . S
In104 O116 2.326 . S
O105 In104 2.294 . S
O105 C114 1.240 . S
O106 In104 2.326 . S
O106 C114 1.252 . S
C107 O110 1.252 . S
C107 O111 1.260 . S
C108 O115 1.240 . S
C108 O116 1.252 . S
C109 O112 1.252 . S
C109 O113 1.260 . S
O110 In104 2.266 . S
O110 C107 1.252 . S
O111 In104 2.326 . S
O111 C107 1.260 . S
O112 In104 2.266 . S
O112 C109 1.252 . S
O113 In104 2.326 . S
O113 C109 1.260 . S
C114 O105 1.240 . S
C114 O106 1.252 . S
O115 In104 2.294 . S
O115 C108 1.240 . S
O116 In104 2.326 . S
O116 C108 1.252 . S
In117 O118 2.294 . S
In117 O119 2.326 . S
In117 O123 2.266 . S
In117 O124 2.326 . S
In117 O125 2.266 . S
In117 O126 2.326 . S
In117 O128 2.294 . S
In117 O129 2.326 . S
O118 In117 2.294 . S
O118 C127 1.240 . S
O119 In117 2.326 . S
O119 C127 1.252 . S
C120 O123 1.252 . S
C120 O124 1.260 . S
C121 O128 1.240 . S
C121 O129 1.252 . S
C122 O125 1.252 . S
C122 O126 1.260 . S
O123 In117 2.266 . S
O123 C120 1.252 . S
O124 In117 2.326 . S
O124 C120 1.260 . S
O125 In117 2.266 . S
O125 C122 1.252 . S
O126 In117 2.326 . S
O126 C122 1.260 . S
C127 O118 1.240 . S
C127 O119 1.252 . S
O128 In117 2.294 . S
O128 C121 1.240 . S
O129 In117 2.326 . S
O129 C121 1.252 . S
In130 O131 2.294 . S
In130 O132 2.326 . S
In130 O136 2.266 . S
In130 O137 2.326 . S
In130 O138 2.266 . S
In130 O139 2.326 . S
In130 O141 2.294 . S
In130 O142 2.326 . S
O131 In130 2.294 . S
O131 C140 1.240 . S
O132 In130 2.326 . S
O132 C140 1.252 . S
C133 O136 1.252 . S
C133 O137 1.260 . S
C134 O141 1.240 . S
C134 O142 1.252 . S
C135 O138 1.252 . S
C135 O139 1.260 . S
O136 In130 2.266 . S
O136 C133 1.252 . S
O137 In130 2.326 . S
O137 C133 1.260 . S
O138 In130 2.266 . S
O138 C135 1.252 . S
O139 In130 2.326 . S
O139 C135 1.260 . S
C140 O131 1.240 . S
C140 O132 1.252 . S
O141 In130 2.294 . S
O141 C134 1.240 . S
O142 In130 2.326 . S
O142 C134 1.252 . S
In143 O144 2.294 . S
In143 O145 2.326 . S
In143 O149 2.266 . S
In143 O150 2.326 . S
In143 O151 2.266 . S
In143 O152 2.326 . S
In143 O154 2.294 . S
In143 O155 2.326 . S
O144 In143 2.294 . S
O144 C153 1.240 . S
O145 In143 2.326 . S
O145 C153 1.252 . S
C146 O149 1.252 . S
C146 O150 1.260 . S
C147 O154 1.240 . S
C147 O155 1.252 . S
C148 O151 1.252 . S
C148 O152 1.260 . S
O149 In143 2.266 . S
O149 C146 1.252 . S
O150 In143 2.326 . S
O150 C146 1.260 . S
O151 In143 2.266 . S
O151 C148 1.252 . S
O152 In143 2.326 . S
O152 C148 1.260 . S
C153 O144 1.240 . S
C153 O145 1.252 . S
O154 In143 2.294 . S
O154 C147 1.240 . S
O155 In143 2.326 . S
O155 C147 1.252 . S
In156 O157 2.294 1_455 S
In156 O158 2.326 . S
In156 O162 2.267 1_455 S
In156 O163 2.326 . S
In156 O164 2.265 . S
In156 O165 2.325 . S
In156 O167 2.294 . S
In156 O168 2.327 1_455 S
O157 In156 2.294 1_655 S
O157 C166 1.240 . S
O158 In156 2.326 . S
O158 C166 1.252 1_455 S
C159 O162 1.252 . S
C159 O163 1.260 1_655 S
C160 O167 1.240 . S
C160 O168 1.252 1_455 S
C161 O164 1.252 . S
C161 O165 1.260 . S
O162 In156 2.267 1_655 S
O162 C159 1.252 . S
O163 In156 2.326 . S
O163 C159 1.260 1_455 S
O164 In156 2.265 . S
O164 C161 1.252 . S
O165 In156 2.325 . S
O165 C161 1.260 . S
C166 O157 1.240 . S
C166 O158 1.252 1_655 S
O167 In156 2.294 . S
O167 C160 1.240 . S
O168 In156 2.327 1_655 S
O168 C160 1.252 1_655 S
In169 O170 2.294 . S
In169 O171 2.326 . S
In169 O175 2.266 . S
In169 O176 2.326 . S
In169 O177 2.266 . S
In169 O178 2.326 . S
In169 O180 2.294 . S
In169 O181 2.326 . S
O170 In169 2.294 . S
O170 C179 1.240 . S
O171 In169 2.326 . S
O171 C179 1.252 . S
C172 O175 1.252 . S
C172 O176 1.260 . S
C173 O180 1.240 . S
C173 O181 1.252 . S
C174 O177 1.252 . S
C174 O178 1.260 . S
O175 In169 2.266 . S
O175 C172 1.252 . S
O176 In169 2.326 . S
O176 C172 1.260 . S
O177 In169 2.266 . S
O177 C174 1.252 . S
O178 In169 2.326 . S
O178 C174 1.260 . S
C179 O170 1.240 . S
C179 O171 1.252 . S
O180 In169 2.294 . S
O180 C173 1.240 . S
O181 In169 2.326 . S
O181 C173 1.252 . S
In182 O183 2.294 . S
In182 O184 2.326 . S
In182 O188 2.266 . S
In182 O189 2.326 . S
In182 O190 2.266 . S
In182 O191 2.326 . S
In182 O193 2.294 . S
In182 O194 2.326 . S
O183 In182 2.294 . S
O183 C192 1.240 . S
O184 In182 2.326 . S
O184 C192 1.252 . S
C185 O188 1.252 . S
C185 O189 1.260 . S
C186 O193 1.240 . S
C186 O194 1.252 . S
C187 O190 1.252 . S
C187 O191 1.260 . S
O188 In182 2.266 . S
O188 C185 1.252 . S
O189 In182 2.326 . S
O189 C185 1.260 . S
O190 In182 2.266 . S
O190 C187 1.252 . S
O191 In182 2.326 . S
O191 C187 1.260 . S
C192 O183 1.240 . S
C192 O184 1.252 . S
O193 In182 2.294 . S
O193 C186 1.240 . S
O194 In182 2.326 . S
O194 C186 1.252 . S
In195 O196 2.294 . S
In195 O197 2.326 . S
In195 O201 2.266 . S
In195 O202 2.326 . S
In195 O203 2.266 . S
In195 O204 2.326 . S
In195 O206 2.294 . S
In195 O207 2.326 . S
O196 In195 2.294 . S
O196 C205 1.240 . S
O197 In195 2.326 . S
O197 C205 1.252 . S
C198 O201 1.252 . S
C198 O202 1.260 . S
C199 O206 1.240 . S
C199 O207 1.252 . S
C200 O203 1.252 . S
C200 O204 1.260 . S
O201 In195 2.266 . S
O201 C198 1.252 . S
O202 In195 2.326 . S
O202 C198 1.260 . S
O203 In195 2.266 . S
O203 C200 1.252 . S
O204 In195 2.326 . S
O204 C200 1.260 . S
C205 O196 1.240 . S
C205 O197 1.252 . S
O206 In195 2.294 . S
O206 C199 1.240 . S
O207 In195 2.326 . S
O207 C199 1.252 . S
In208 O209 2.294 . S
In208 O210 2.326 . S
In208 O214 2.266 . S
In208 O215 2.326 . S
In208 O216 2.266 . S
In208 O217 2.326 . S
In208 O219 2.294 . S
In208 O220 2.326 . S
O209 In208 2.294 . S
O209 C218 1.240 . S
O210 In208 2.326 . S
O210 C218 1.252 . S
C211 O214 1.252 . S
C211 O215 1.260 . S
C212 O219 1.240 . S
C212 O220 1.252 . S
C213 O216 1.252 . S
C213 O217 1.260 . S
O214 In208 2.266 . S
O214 C211 1.252 . S
O215 In208 2.326 . S
O215 C211 1.260 . S
O216 In208 2.266 . S
O216 C213 1.252 . S
O217 In208 2.326 . S
O217 C213 1.260 . S
C218 O209 1.240 . S
C218 O210 1.252 . S
O219 In208 2.294 . S
O219 C212 1.240 . S
O220 In208 2.326 . S
O220 C212 1.252 . S
In221 O222 2.294 . S
In221 O223 2.326 . S
In221 O227 2.266 . S
In221 O228 2.326 . S
In221 O229 2.266 . S
In221 O230 2.326 . S
In221 O232 2.294 . S
In221 O233 2.326 . S
O222 In221 2.294 . S
O222 C231 1.240 . S
O223 In221 2.326 . S
O223 C231 1.252 . S
C224 O227 1.252 . S
C224 O228 1.260 . S
C225 O232 1.240 . S
C225 O233 1.252 . S
C226 O229 1.252 . S
C226 O230 1.260 . S
O227 In221 2.266 . S
O227 C224 1.252 . S
O228 In221 2.326 . S
O228 C224 1.260 . S
O229 In221 2.266 . S
O229 C226 1.252 . S
O230 In221 2.326 . S
O230 C226 1.260 . S
C231 O222 1.240 . S
C231 O223 1.252 . S
O232 In221 2.294 . S
O232 C225 1.240 . S
O233 In221 2.326 . S
O233 C225 1.252 . S
In234 O235 2.294 . S
In234 O236 2.326 . S
In234 O240 2.266 . S
In234 O241 2.326 . S
In234 O242 2.266 . S
In234 O243 2.326 . S
In234 O245 2.294 . S
In234 O246 2.326 . S
O235 In234 2.294 . S
O235 C244 1.240 . S
O236 In234 2.326 . S
O236 C244 1.252 . S
C237 O240 1.252 . S
C237 O241 1.260 . S
C238 O245 1.240 . S
C238 O246 1.252 . S
C239 O242 1.252 . S
C239 O243 1.260 . S
O240 In234 2.266 . S
O240 C237 1.252 . S
O241 In234 2.326 . S
O241 C237 1.260 . S
O242 In234 2.266 . S
O242 C239 1.252 . S
O243 In234 2.326 . S
O243 C239 1.260 . S
C244 O235 1.240 . S
C244 O236 1.252 . S
O245 In234 2.294 . S
O245 C238 1.240 . S
O246 In234 2.326 . S
O246 C238 1.252 . S
In247 O248 2.294 . S
In247 O249 2.326 . S
In247 O253 2.266 . S
In247 O254 2.326 . S
In247 O255 2.266 . S
In247 O256 2.326 . S
In247 O258 2.294 . S
In247 O259 2.326 . S
O248 In247 2.294 . S
O248 C257 1.240 . S
O249 In247 2.326 . S
O249 C257 1.252 . S
C250 O253 1.252 . S
C250 O254 1.260 . S
C251 O258 1.240 . S
C251 O259 1.252 . S
C252 O255 1.252 . S
C252 O256 1.260 . S
O253 In247 2.266 . S
O253 C250 1.252 . S
O254 In247 2.326 . S
O254 C250 1.260 . S
O255 In247 2.266 . S
O255 C252 1.252 . S
O256 In247 2.326 . S
O256 C252 1.260 . S
C257 O248 1.240 . S
C257 O249 1.252 . S
O258 In247 2.294 . S
O258 C251 1.240 . S
O259 In247 2.326 . S
O259 C251 1.252 . S
In260 O261 2.294 . S
In260 O262 2.326 . S
In260 O266 2.266 . S
In260 O267 2.326 . S
In260 O268 2.266 . S
In260 O269 2.326 . S
In260 O271 2.294 . S
In260 O272 2.326 . S
O261 In260 2.294 . S
O261 C270 1.240 . S
O262 In260 2.326 . S
O262 C270 1.252 . S
C263 O266 1.252 . S
C263 O267 1.260 . S
C264 O271 1.240 . S
C264 O272 1.252 . S
C265 O268 1.252 . S
C265 O269 1.260 . S
O266 In260 2.266 . S
O266 C263 1.252 . S
O267 In260 2.326 . S
O267 C263 1.260 . S
O268 In260 2.266 . S
O268 C265 1.252 . S
O269 In260 2.326 . S
O269 C265 1.260 . S
C270 O261 1.240 . S
C270 O262 1.252 . S
O271 In260 2.294 . S
O271 C264 1.240 . S
O272 In260 2.326 . S
O272 C264 1.252 . S
In273 O274 2.297 1_565 S
In273 O275 2.330 . S
In273 O279 2.264 1_564 S
In273 O280 2.322 1_554 S
In273 O281 2.265 1_554 S
In273 O282 2.325 1_554 S
In273 O284 2.294 . S
In273 O285 2.327 1_565 S
O274 In273 2.297 1_545 S
O274 C283 1.240 . S
O275 In273 2.330 . S
O275 C283 1.252 1_565 S
C276 O279 1.252 . S
C276 O280 1.260 1_545 S
C277 O284 1.240 . S
C277 O285 1.252 1_565 S
C278 O281 1.252 . S
C278 O282 1.260 . S
O279 In273 2.264 1_546 S
O279 C276 1.252 . S
O280 In273 2.322 1_556 S
O280 C276 1.260 1_565 S
O281 In273 2.265 1_556 S
O281 C278 1.252 . S
O282 In273 2.325 1_556 S
O282 C278 1.260 . S
C283 O274 1.240 . S
C283 O275 1.252 1_545 S
O284 In273 2.294 . S
O284 C277 1.240 . S
O285 In273 2.327 1_545 S
O285 C277 1.252 1_545 S
In286 O287 2.294 . S
In286 O288 2.327 . S
In286 O292 2.265 1_554 S
In286 O293 2.325 1_554 S
In286 O294 2.264 1_554 S
In286 O295 2.322 1_554 S
In286 O297 2.296 . S
In286 O298 2.330 . S
O287 In286 2.294 . S
O287 C296 1.240 . S
O288 In286 2.327 . S
O288 C296 1.252 . S
C289 O292 1.252 . S
C289 O293 1.260 . S
C290 O297 1.240 . S
C290 O298 1.252 . S
C291 O294 1.252 . S
C291 O295 1.260 . S
O292 In286 2.265 1_556 S
O292 C289 1.252 . S
O293 In286 2.325 1_556 S
O293 C289 1.260 . S
O294 In286 2.264 1_556 S
O294 C291 1.252 . S
O295 In286 2.322 1_556 S
O295 C291 1.260 . S
C296 O287 1.240 . S
C296 O288 1.252 . S
O297 In286 2.296 . S
O297 C290 1.240 . S
O298 In286 2.330 . S
O298 C290 1.252 . S
In299 O300 2.296 . S
In299 O301 2.330 . S
In299 O305 2.264 1_554 S
In299 O306 2.322 1_554 S
In299 O307 2.265 1_554 S
In299 O308 2.325 1_554 S
In299 O310 2.294 . S
In299 O311 2.327 . S
O300 In299 2.296 . S
O300 C309 1.240 . S
O301 In299 2.330 . S
O301 C309 1.252 . S
C302 O305 1.252 . S
C302 O306 1.260 . S
C303 O310 1.240 . S
C303 O311 1.252 . S
C304 O307 1.252 . S
C304 O308 1.260 . S
O305 In299 2.264 1_556 S
O305 C302 1.252 . S
O306 In299 2.322 1_556 S
O306 C302 1.260 . S
O307 In299 2.265 1_556 S
O307 C304 1.252 . S
O308 In299 2.325 1_556 S
O308 C304 1.260 . S
C309 O300 1.240 . S
C309 O301 1.252 . S
O310 In299 2.294 . S
O310 C303 1.240 . S
O311 In299 2.327 . S
O311 C303 1.252 . S
In312 O313 2.294 . S
In312 O314 2.326 . S
In312 O318 2.266 . S
In312 O319 2.326 . S
In312 O320 2.266 . S
In312 O321 2.326 . S
In312 O323 2.294 . S
In312 O324 2.326 . S
O313 In312 2.294 . S
O313 C322 1.240 . S
O314 In312 2.326 . S
O314 C322 1.252 . S
C315 O318 1.252 . S
C315 O319 1.260 . S
C316 O323 1.240 . S
C316 O324 1.252 . S
C317 O320 1.252 . S
C317 O321 1.260 . S
O318 In312 2.266 . S
O318 C315 1.252 . S
O319 In312 2.326 . S
O319 C315 1.260 . S
O320 In312 2.266 . S
O320 C317 1.252 . S
O321 In312 2.326 . S
O321 C317 1.260 . S
C322 O313 1.240 . S
C322 O314 1.252 . S
O323 In312 2.294 . S
O323 C316 1.240 . S
O324 In312 2.326 . S
O324 C316 1.252 . S
In325 O326 2.294 . S
In325 O327 2.326 . S
In325 O331 2.266 . S
In325 O332 2.326 . S
In325 O333 2.266 . S
In325 O334 2.326 . S
In325 O336 2.294 . S
In325 O337 2.326 . S
O326 In325 2.294 . S
O326 C335 1.240 . S
O327 In325 2.326 . S
O327 C335 1.252 . S
C328 O331 1.252 . S
C328 O332 1.260 . S
C329 O336 1.240 . S
C329 O337 1.252 . S
C330 O333 1.252 . S
C330 O334 1.260 . S
O331 In325 2.266 . S
O331 C328 1.252 . S
O332 In325 2.326 . S
O332 C328 1.260 . S
O333 In325 2.266 . S
O333 C330 1.252 . S
O334 In325 2.326 . S
O334 C330 1.260 . S
C335 O326 1.240 . S
C335 O327 1.252 . S
O336 In325 2.294 . S
O336 C329 1.240 . S
O337 In325 2.326 . S
O337 C329 1.252 . S
In338 O339 2.294 . S
In338 O340 2.326 . S
In338 O344 2.266 . S
In338 O345 2.326 . S
In338 O346 2.266 . S
In338 O347 2.326 . S
In338 O349 2.294 . S
In338 O350 2.326 . S
O339 In338 2.294 . S
O339 C348 1.240 . S
O340 In338 2.326 . S
O340 C348 1.252 . S
C341 O344 1.252 . S
C341 O345 1.260 . S
C342 O349 1.240 . S
C342 O350 1.252 . S
C343 O346 1.252 . S
C343 O347 1.260 . S
O344 In338 2.266 . S
O344 C341 1.252 . S
O345 In338 2.326 . S
O345 C341 1.260 . S
O346 In338 2.266 . S
O346 C343 1.252 . S
O347 In338 2.326 . S
O347 C343 1.260 . S
C348 O339 1.240 . S
C348 O340 1.252 . S
O349 In338 2.294 . S
O349 C342 1.240 . S
O350 In338 2.326 . S
O350 C342 1.252 . S
In351 O352 2.297 1_545 S
In351 O353 2.330 . S
In351 O357 2.264 1_546 S
In351 O358 2.322 1_556 S
In351 O359 2.265 1_556 S
In351 O360 2.325 1_556 S
In351 O362 2.294 . S
In351 O363 2.327 1_545 S
O352 In351 2.297 1_565 S
O352 C361 1.240 . S
O353 In351 2.330 . S
O353 C361 1.252 1_545 S
C354 O357 1.252 . S
C354 O358 1.260 1_565 S
C355 O362 1.240 . S
C355 O363 1.252 1_545 S
C356 O359 1.252 . S
C356 O360 1.260 . S
O357 In351 2.264 1_564 S
O357 C354 1.252 . S
O358 In351 2.322 1_554 S
O358 C354 1.260 1_545 S
O359 In351 2.265 1_554 S
O359 C356 1.252 . S
O360 In351 2.325 1_554 S
O360 C356 1.260 . S
C361 O352 1.240 . S
C361 O353 1.252 1_565 S
O362 In351 2.294 . S
O362 C355 1.240 . S
O363 In351 2.327 1_565 S
O363 C355 1.252 1_565 S
In364 O365 2.296 . S
In364 O366 2.330 . S
In364 O370 2.264 1_556 S
In364 O371 2.322 1_556 S
In364 O372 2.265 1_556 S
In364 O373 2.325 1_556 S
In364 O375 2.294 . S
In364 O376 2.327 . S
O365 In364 2.296 . S
O365 C374 1.240 . S
O366 In364 2.330 . S
O366 C374 1.252 . S
C367 O370 1.252 . S
C367 O371 1.260 . S
C368 O375 1.240 . S
C368 O376 1.252 . S
C369 O372 1.252 . S
C369 O373 1.260 . S
O370 In364 2.264 1_554 S
O370 C367 1.252 . S
O371 In364 2.322 1_554 S
O371 C367 1.260 . S
O372 In364 2.265 1_554 S
O372 C369 1.252 . S
O373 In364 2.325 1_554 S
O373 C369 1.260 . S
C374 O365 1.240 . S
C374 O366 1.252 . S
O375 In364 2.294 . S
O375 C368 1.240 . S
O376 In364 2.327 . S
O376 C368 1.252 . S
In377 O378 2.294 . S
In377 O379 2.327 . S
In377 O383 2.265 1_556 S
In377 O384 2.325 1_556 S
In377 O385 2.264 1_556 S
In377 O386 2.322 1_556 S
In377 O388 2.296 . S
In377 O389 2.330 . S
O378 In377 2.294 . S
O378 C387 1.240 . S
O379 In377 2.327 . S
O379 C387 1.252 . S
C380 O383 1.252 . S
C380 O384 1.260 . S
C381 O388 1.240 . S
C381 O389 1.252 . S
C382 O385 1.252 . S
C382 O386 1.260 . S
O383 In377 2.265 1_554 S
O383 C380 1.252 . S
O384 In377 2.325 1_554 S
O384 C380 1.260 . S
O385 In377 2.264 1_554 S
O385 C382 1.252 . S
O386 In377 2.322 1_554 S
O386 C382 1.260 . S
C387 O378 1.240 . S
C387 O379 1.252 . S
O388 In377 2.296 . S
O388 C381 1.240 . S
O389 In377 2.330 . S
O389 C381 1.252 . S
In390 O391 2.294 . S
In390 O392 2.327 1_655 S
In390 O396 2.265 . S
In390 O397 2.325 . S
In390 O398 2.267 1_655 S
In390 O399 2.326 . S
In390 O401 2.294 1_655 S
In390 O402 2.326 . S
O391 In390 2.294 . S
O391 C400 1.240 . S
O392 In390 2.327 1_455 S
O392 C400 1.252 1_455 S
C393 O396 1.252 . S
C393 O397 1.260 . S
C394 O401 1.240 . S
C394 O402 1.252 1_455 S
C395 O398 1.252 . S
C395 O399 1.260 1_455 S
O396 In390 2.265 . S
O396 C393 1.252 . S
O397 In390 2.325 . S
O397 C393 1.260 . S
O398 In390 2.267 1_455 S
O398 C395 1.252 . S
O399 In390 2.326 . S
O399 C395 1.260 1_655 S
C400 O391 1.240 . S
C400 O392 1.252 1_655 S
O401 In390 2.294 1_455 S
O401 C394 1.240 . S
O402 In390 2.326 . S
O402 C394 1.252 1_655 S
In403 O404 2.294 . S
In403 O405 2.326 . S
In403 O409 2.266 . S
In403 O410 2.326 . S
In403 O411 2.266 . S
In403 O412 2.326 . S
In403 O414 2.294 . S
In403 O415 2.326 . S
O404 In403 2.294 . S
O404 C413 1.240 . S
O405 In403 2.326 . S
O405 C413 1.252 . S
C406 O409 1.252 . S
C406 O410 1.260 . S
C407 O414 1.240 . S
C407 O415 1.252 . S
C408 O411 1.252 . S
C408 O412 1.260 . S
O409 In403 2.266 . S
O409 C406 1.252 . S
O410 In403 2.326 . S
O410 C406 1.260 . S
O411 In403 2.266 . S
O411 C408 1.252 . S
O412 In403 2.326 . S
O412 C408 1.260 . S
C413 O404 1.240 . S
C413 O405 1.252 . S
O414 In403 2.294 . S
O414 C407 1.240 . S
O415 In403 2.326 . S
O415 C407 1.252 . S
In416 O417 2.294 . S
In416 O418 2.326 . S
In416 O422 2.266 . S
In416 O423 2.326 . S
In416 O424 2.266 . S
In416 O425 2.326 . S
In416 O427 2.294 . S
In416 O428 2.326 . S
O417 In416 2.294 . S
O417 C426 1.240 . S
O418 In416 2.326 . S
O418 C426 1.252 . S
C419 O422 1.252 . S
C419 O423 1.260 . S
C420 O427 1.240 . S
C420 O428 1.252 . S
C421 O424 1.252 . S
C421 O425 1.260 . S
O422 In416 2.266 . S
O422 C419 1.252 . S
O423 In416 2.326 . S
O423 C419 1.260 . S
O424 In416 2.266 . S
O424 C421 1.252 . S
O425 In416 2.326 . S
O425 C421 1.260 . S
C426 O417 1.240 . S
C426 O418 1.252 . S
O427 In416 2.294 . S
O427 C420 1.240 . S
O428 In416 2.326 . S
O428 C420 1.252 . S
In429 O430 2.294 . S
In429 O431 2.326 . S
In429 O435 2.266 . S
In429 O436 2.326 . S
In429 O437 2.266 . S
In429 O438 2.326 . S
In429 O440 2.294 . S
In429 O441 2.326 . S
O430 In429 2.294 . S
O430 C439 1.240 . S
O431 In429 2.326 . S
O431 C439 1.252 . S
C432 O435 1.252 . S
C432 O436 1.260 . S
C433 O440 1.240 . S
C433 O441 1.252 . S
C434 O437 1.252 . S
C434 O438 1.260 . S
O435 In429 2.266 . S
O435 C432 1.252 . S
O436 In429 2.326 . S
O436 C432 1.260 . S
O437 In429 2.266 . S
O437 C434 1.252 . S
O438 In429 2.326 . S
O438 C434 1.260 . S
C439 O430 1.240 . S
C439 O431 1.252 . S
O440 In429 2.294 . S
O440 C433 1.240 . S
O441 In429 2.326 . S
O441 C433 1.252 . S
In442 O443 2.294 . S
In442 O444 2.326 . S
In442 O448 2.266 . S
In442 O449 2.326 . S
In442 O450 2.266 . S
In442 O451 2.326 . S
In442 O453 2.294 . S
In442 O454 2.326 . S
O443 In442 2.294 . S
O443 C452 1.240 . S
O444 In442 2.326 . S
O444 C452 1.252 . S
C445 O448 1.252 . S
C445 O449 1.260 . S
C446 O453 1.240 . S
C446 O454 1.252 . S
C447 O450 1.252 . S
C447 O451 1.260 . S
O448 In442 2.266 . S
O448 C445 1.252 . S
O449 In442 2.326 . S
O449 C445 1.260 . S
O450 In442 2.266 . S
O450 C447 1.252 . S
O451 In442 2.326 . S
O451 C447 1.260 . S
C452 O443 1.240 . S
C452 O444 1.252 . S
O453 In442 2.294 . S
O453 C446 1.240 . S
O454 In442 2.326 . S
O454 C446 1.252 . S
In455 O456 2.294 . S
In455 O457 2.326 . S
In455 O461 2.266 . S
In455 O462 2.326 . S
In455 O463 2.266 . S
In455 O464 2.326 . S
In455 O466 2.294 . S
In455 O467 2.326 . S
O456 In455 2.294 . S
O456 C465 1.240 . S
O457 In455 2.326 . S
O457 C465 1.252 . S
C458 O461 1.252 . S
C458 O462 1.260 . S
C459 O466 1.240 . S
C459 O467 1.252 . S
C460 O463 1.252 . S
C460 O464 1.260 . S
O461 In455 2.266 . S
O461 C458 1.252 . S
O462 In455 2.326 . S
O462 C458 1.260 . S
O463 In455 2.266 . S
O463 C460 1.252 . S
O464 In455 2.326 . S
O464 C460 1.260 . S
C465 O456 1.240 . S
C465 O457 1.252 . S
O466 In455 2.294 . S
O466 C459 1.240 . S
O467 In455 2.326 . S
O467 C459 1.252 . S
C468 C469 1.391 . S
C468 C470 1.394 . S
C468 H484 0.931 . S
C469 C468 1.391 . S
C469 C473 1.376 . S
C470 C468 1.394 . S
C470 C471 1.369 . S
C470 C474 1.531 . S
C471 C470 1.369 . S
C471 C472 1.410 . S
C471 C479 1.503 . S
C472 C471 1.410 . S
C472 C473 1.392 . S
C472 C475 1.511 . S
C473 C469 1.376 . S
C473 C472 1.392 . S
C473 H485 0.929 . S
C474 C470 1.531 . S
C474 H486 0.960 . S
C474 H487 0.962 . S
C474 H488 0.960 . S
C475 C472 1.511 . S
C475 H489 0.961 . S
C475 H490 0.961 . S
C475 H491 0.961 . S
C476 C477 1.370 . S
C476 C478 1.363 . S
C476 H492 0.931 . S
C477 C476 1.370 . S
C477 C481 1.408 . S
C478 C476 1.363 . S
C478 C479 1.370 . S
C478 C482 1.524 . S
C479 C471 1.503 . S
C479 C478 1.370 . S
C479 C480 1.403 . S
C480 C479 1.403 . S
C480 C481 1.404 . S
C480 C483 1.539 . S
C481 C477 1.408 . S
C481 C480 1.404 . S
C481 H493 0.930 . S
C482 C478 1.524 . S
C482 H494 0.956 . S
C482 H495 0.961 . S
C482 H496 0.961 . S
C483 C480 1.539 . S
C483 H497 0.958 . S
C483 H498 0.961 . S
C483 H499 0.960 . S
H484 C468 0.931 . S
H485 C473 0.929 . S
H486 C474 0.960 . S
H487 C474 0.962 . S
H488 C474 0.960 . S
H489 C475 0.961 . S
H490 C475 0.961 . S
H491 C475 0.961 . S
H492 C476 0.931 . S
H493 C481 0.930 . S
H494 C482 0.956 . S
H495 C482 0.961 . S
H496 C482 0.961 . S
H497 C483 0.958 . S
H498 C483 0.961 . S
H499 C483 0.960 . S
C500 C501 1.391 . S
C500 C502 1.394 . S
C500 H516 0.931 . S
C501 C500 1.391 . S
C501 C505 1.376 . S
C502 C500 1.394 . S
C502 C503 1.369 . S
C502 C506 1.531 . S
C503 C502 1.369 . S
C503 C504 1.410 . S
C503 C511 1.503 . S
C504 C503 1.410 . S
C504 C505 1.392 . S
C504 C507 1.511 . S
C505 C501 1.376 . S
C505 C504 1.392 . S
C505 H517 0.929 . S
C506 C502 1.531 . S
C506 H518 0.960 . S
C506 H519 0.962 . S
C506 H520 0.960 . S
C507 C504 1.511 . S
C507 H521 0.961 . S
C507 H522 0.961 . S
C507 H523 0.961 . S
C508 C509 1.370 . S
C508 C510 1.363 . S
C508 H524 0.931 . S
C509 C508 1.370 . S
C509 C513 1.408 . S
C510 C508 1.363 . S
C510 C511 1.370 . S
C510 C514 1.524 . S
C511 C503 1.503 . S
C511 C510 1.370 . S
C511 C512 1.403 . S
C512 C511 1.403 . S
C512 C513 1.404 . S
C512 C515 1.539 . S
C513 C509 1.408 . S
C513 C512 1.404 . S
C513 H525 0.930 . S
C514 C510 1.524 . S
C514 H526 0.956 . S
C514 H527 0.961 . S
C514 H528 0.961 . S
C515 C512 1.539 . S
C515 H529 0.958 . S
C515 H530 0.961 . S
C515 H531 0.960 . S
H516 C500 0.931 . S
H517 C505 0.929 . S
H518 C506 0.960 . S
H519 C506 0.962 . S
H520 C506 0.960 . S
H521 C507 0.961 . S
H522 C507 0.961 . S
H523 C507 0.961 . S
H524 C508 0.931 . S
H525 C513 0.930 . S
H526 C514 0.956 . S
H527 C514 0.961 . S
H528 C514 0.961 . S
H529 C515 0.958 . S
H530 C515 0.961 . S
H531 C515 0.960 . S
C532 C533 1.391 . S
C532 C534 1.394 . S
C532 H548 0.931 . S
C533 C532 1.391 . S
C533 C537 1.376 . S
C534 C532 1.394 . S
C534 C535 1.369 . S
C534 C538 1.531 . S
C535 C534 1.369 . S
C535 C536 1.410 . S
C535 C543 1.503 . S
C536 C535 1.410 . S
C536 C537 1.392 . S
C536 C539 1.511 . S
C537 C533 1.376 . S
C537 C536 1.392 . S
C537 H549 0.929 . S
C538 C534 1.531 . S
C538 H550 0.960 . S
C538 H551 0.962 . S
C538 H552 0.960 . S
C539 C536 1.511 . S
C539 H553 0.961 . S
C539 H554 0.961 . S
C539 H555 0.961 . S
C540 C541 1.370 . S
C540 C542 1.363 . S
C540 H556 0.931 . S
C541 C540 1.370 . S
C541 C545 1.408 . S
C542 C540 1.363 . S
C542 C543 1.370 . S
C542 C546 1.524 . S
C543 C535 1.503 . S
C543 C542 1.370 . S
C543 C544 1.403 . S
C544 C543 1.403 . S
C544 C545 1.404 . S
C544 C547 1.539 . S
C545 C541 1.408 . S
C545 C544 1.404 . S
C545 H557 0.930 . S
C546 C542 1.524 . S
C546 H558 0.956 . S
C546 H559 0.961 . S
C546 H560 0.961 . S
C547 C544 1.539 . S
C547 H561 0.958 . S
C547 H562 0.961 . S
C547 H563 0.960 . S
H548 C532 0.931 . S
H549 C537 0.929 . S
H550 C538 0.960 . S
H551 C538 0.962 . S
H552 C538 0.960 . S
H553 C539 0.961 . S
H554 C539 0.961 . S
H555 C539 0.961 . S
H556 C540 0.931 . S
H557 C545 0.930 . S
H558 C546 0.956 . S
H559 C546 0.961 . S
H560 C546 0.961 . S
H561 C547 0.958 . S
H562 C547 0.961 . S
H563 C547 0.960 . S
C564 C565 1.391 . S
C564 C566 1.394 1_556 S
C564 H580 0.931 . S
C565 C564 1.391 . S
C565 C569 1.376 . S
C566 C564 1.394 1_554 S
C566 C567 1.369 . S
C566 C570 1.531 . S
C567 C566 1.369 . S
C567 C568 1.410 . S
C567 C575 1.503 . S
C568 C567 1.410 . S
C568 C569 1.392 1_554 S
C568 C571 1.511 . S
C569 C565 1.376 . S
C569 C568 1.392 1_556 S
C569 H581 0.929 . S
C570 C566 1.531 . S
C570 H582 0.960 . S
C570 H583 0.962 . S
C570 H584 0.960 . S
C571 C568 1.511 . S
C571 H585 0.961 . S
C571 H586 0.961 . S
C571 H587 0.961 . S
C572 C573 1.370 . S
C572 C574 1.363 . S
C572 H588 0.931 . S
C573 C572 1.370 . S
C573 C577 1.408 . S
C574 C572 1.363 . S
C574 C575 1.370 . S
C574 C578 1.524 . S
C575 C567 1.503 . S
C575 C574 1.370 . S
C575 C576 1.403 . S
C576 C575 1.403 . S
C576 C577 1.404 . S
C576 C579 1.539 . S
C577 C573 1.408 . S
C577 C576 1.404 . S
C577 H589 0.930 . S
C578 C574 1.524 . S
C578 H590 0.956 . S
C578 H591 0.961 . S
C578 H592 0.961 . S
C579 C576 1.539 . S
C579 H593 0.958 . S
C579 H594 0.961 . S
C579 H595 0.960 . S
H580 C564 0.931 . S
H581 C569 0.929 . S
H582 C570 0.960 . S
H583 C570 0.962 . S
H584 C570 0.960 . S
H585 C571 0.961 . S
H586 C571 0.961 . S
H587 C571 0.961 . S
H588 C572 0.931 . S
H589 C577 0.930 . S
H590 C578 0.956 . S
H591 C578 0.961 . S
H592 C578 0.961 . S
H593 C579 0.958 . S
H594 C579 0.961 . S
H595 C579 0.960 . S
C596 C597 1.391 . S
C596 C598 1.394 . S
C596 H612 0.931 . S
C597 C596 1.391 . S
C597 C601 1.376 . S
C598 C596 1.394 . S
C598 C599 1.369 . S
C598 C602 1.531 . S
C599 C598 1.369 . S
C599 C600 1.410 . S
C599 C607 1.503 . S
C600 C599 1.410 . S
C600 C601 1.392 . S
C600 C603 1.511 . S
C601 C597 1.376 . S
C601 C600 1.392 . S
C601 H613 0.929 . S
C602 C598 1.531 . S
C602 H614 0.960 . S
C602 H615 0.962 . S
C602 H616 0.960 . S
C603 C600 1.511 . S
C603 H617 0.961 . S
C603 H618 0.961 . S
C603 H619 0.961 . S
C604 C605 1.370 . S
C604 C606 1.363 1_556 S
C604 H620 0.931 . S
C605 C604 1.370 . S
C605 C609 1.408 . S
C606 C604 1.363 1_554 S
C606 C607 1.370 . S
C606 C610 1.524 . S
C607 C599 1.503 . S
C607 C606 1.370 . S
C607 C608 1.403 . S
C608 C607 1.403 . S
C608 C609 1.404 1_554 S
C608 C611 1.539 . S
C609 C605 1.408 . S
C609 C608 1.404 1_556 S
C609 H621 0.930 . S
C610 C606 1.524 . S
C610 H622 0.956 . S
C610 H623 0.961 . S
C610 H624 0.961 . S
C611 C608 1.539 . S
C611 H625 0.958 . S
C611 H626 0.961 . S
C611 H627 0.960 . S
H612 C596 0.931 . S
H613 C601 0.929 . S
H614 C602 0.960 . S
H615 C602 0.962 . S
H616 C602 0.960 . S
H617 C603 0.961 . S
H618 C603 0.961 . S
H619 C603 0.961 . S
H620 C604 0.931 . S
H621 C609 0.930 . S
H622 C610 0.956 . S
H623 C610 0.961 . S
H624 C610 0.961 . S
H625 C611 0.958 . S
H626 C611 0.961 . S
H627 C611 0.960 . S
C628 C629 1.391 . S
C628 C630 1.394 . S
C628 H644 0.931 . S
C629 C628 1.391 . S
C629 C633 1.376 . S
C630 C628 1.394 . S
C630 C631 1.369 . S
C630 C634 1.531 . S
C631 C630 1.369 . S
C631 C632 1.410 . S
C631 C639 1.503 . S
C632 C631 1.410 . S
C632 C633 1.392 . S
C632 C635 1.511 . S
C633 C629 1.376 . S
C633 C632 1.392 . S
C633 H645 0.929 . S
C634 C630 1.531 . S
C634 H646 0.960 . S
C634 H647 0.962 . S
C634 H648 0.960 . S
C635 C632 1.511 . S
C635 H649 0.961 . S
C635 H650 0.961 . S
C635 H651 0.961 . S
C636 C637 1.370 . S
C636 C638 1.363 1_556 S
C636 H652 0.931 . S
C637 C636 1.370 . S
C637 C641 1.408 . S
C638 C636 1.363 1_554 S
C638 C639 1.370 . S
C638 C642 1.524 . S
C639 C631 1.503 . S
C639 C638 1.370 . S
C639 C640 1.403 . S
C640 C639 1.403 . S
C640 C641 1.404 1_554 S
C640 C643 1.539 . S
C641 C637 1.408 . S
C641 C640 1.404 1_556 S
C641 H653 0.930 . S
C642 C638 1.524 . S
C642 H654 0.956 . S
C642 H655 0.961 . S
C642 H656 0.961 . S
C643 C640 1.539 . S
C643 H657 0.958 . S
C643 H658 0.961 . S
C643 H659 0.960 . S
H644 C628 0.931 . S
H645 C633 0.929 . S
H646 C634 0.960 . S
H647 C634 0.962 . S
H648 C634 0.960 . S
H649 C635 0.961 . S
H650 C635 0.961 . S
H651 C635 0.961 . S
H652 C636 0.931 . S
H653 C641 0.930 . S
H654 C642 0.956 . S
H655 C642 0.961 . S
H656 C642 0.961 . S
H657 C643 0.958 . S
H658 C643 0.961 . S
H659 C643 0.960 . S
C660 C661 1.391 . S
C660 C662 1.394 . S
C660 H676 0.931 . S
C661 C660 1.391 . S
C661 C665 1.376 . S
C662 C660 1.394 . S
C662 C663 1.369 . S
C662 C666 1.531 . S
C663 C662 1.369 . S
C663 C664 1.410 . S
C663 C671 1.503 . S
C664 C663 1.410 . S
C664 C665 1.392 . S
C664 C667 1.511 . S
C665 C661 1.376 . S
C665 C664 1.392 . S
C665 H677 0.929 . S
C666 C662 1.531 . S
C666 H678 0.960 . S
C666 H679 0.962 . S
C666 H680 0.960 . S
C667 C664 1.511 . S
C667 H681 0.961 . S
C667 H682 0.961 . S
C667 H683 0.961 . S
C668 C669 1.370 . S
C668 C670 1.363 . S
C668 H684 0.931 . S
C669 C668 1.370 . S
C669 C673 1.408 . S
C670 C668 1.363 . S
C670 C671 1.370 . S
C670 C674 1.524 . S
C671 C663 1.503 . S
C671 C670 1.370 . S
C671 C672 1.403 . S
C672 C671 1.403 . S
C672 C673 1.404 . S
C672 C675 1.539 . S
C673 C669 1.408 . S
C673 C672 1.404 . S
C673 H685 0.930 . S
C674 C670 1.524 . S
C674 H686 0.956 . S
C674 H687 0.961 . S
C674 H688 0.961 . S
C675 C672 1.539 . S
C675 H689 0.958 . S
C675 H690 0.961 . S
C675 H691 0.960 . S
H676 C660 0.931 . S
H677 C665 0.929 . S
H678 C666 0.960 . S
H679 C666 0.962 . S
H680 C666 0.960 . S
H681 C667 0.961 . S
H682 C667 0.961 . S
H683 C667 0.961 . S
H684 C668 0.931 . S
H685 C673 0.930 . S
H686 C674 0.956 . S
H687 C674 0.961 . S
H688 C674 0.961 . S
H689 C675 0.958 . S
H690 C675 0.961 . S
H691 C675 0.960 . S
C692 C693 1.391 . S
C692 C694 1.394 . S
C692 H708 0.931 . S
C693 C692 1.391 . S
C693 C697 1.376 . S
C694 C692 1.394 . S
C694 C695 1.369 . S
C694 C698 1.531 . S
C695 C694 1.369 . S
C695 C696 1.410 . S
C695 C703 1.503 . S
C696 C695 1.410 . S
C696 C697 1.392 . S
C696 C699 1.511 . S
C697 C693 1.376 . S
C697 C696 1.392 . S
C697 H709 0.929 . S
C698 C694 1.531 . S
C698 H710 0.960 . S
C698 H711 0.962 . S
C698 H712 0.960 . S
C699 C696 1.511 . S
C699 H713 0.961 . S
C699 H714 0.961 . S
C699 H715 0.961 . S
C700 C701 1.370 . S
C700 C702 1.363 . S
C700 H716 0.931 . S
C701 C700 1.370 . S
C701 C705 1.408 . S
C702 C700 1.363 . S
C702 C703 1.370 . S
C702 C706 1.524 . S
C703 C695 1.503 . S
C703 C702 1.370 . S
C703 C704 1.403 . S
C704 C703 1.403 . S
C704 C705 1.404 . S
C704 C707 1.539 . S
C705 C701 1.408 . S
C705 C704 1.404 . S
C705 H717 0.930 . S
C706 C702 1.524 . S
C706 H718 0.956 . S
C706 H719 0.961 . S
C706 H720 0.961 . S
C707 C704 1.539 . S
C707 H721 0.958 . S
C707 H722 0.961 . S
C707 H723 0.960 . S
H708 C692 0.931 . S
H709 C697 0.929 . S
H710 C698 0.960 . S
H711 C698 0.962 . S
H712 C698 0.960 . S
H713 C699 0.961 . S
H714 C699 0.961 . S
H715 C699 0.961 . S
H716 C700 0.931 . S
H717 C705 0.930 . S
H718 C706 0.956 . S
H719 C706 0.961 . S
H720 C706 0.961 . S
H721 C707 0.958 . S
H722 C707 0.961 . S
H723 C707 0.960 . S
C724 C725 1.391 . S
C724 C726 1.394 . S
C724 H740 0.931 . S
C725 C724 1.391 . S
C725 C729 1.376 . S
C726 C724 1.394 . S
C726 C727 1.369 . S
C726 C730 1.531 . S
C727 C726 1.369 . S
C727 C728 1.410 . S
C727 C735 1.503 . S
C728 C727 1.410 . S
C728 C729 1.392 . S
C728 C731 1.511 . S
C729 C725 1.376 . S
C729 C728 1.392 . S
C729 H741 0.929 . S
C730 C726 1.531 . S
C730 H742 0.960 . S
C730 H743 0.962 . S
C730 H744 0.960 . S
C731 C728 1.511 . S
C731 H745 0.961 . S
C731 H746 0.961 . S
C731 H747 0.961 . S
C732 C733 1.370 . S
C732 C734 1.363 . S
C732 H748 0.931 . S
C733 C732 1.370 . S
C733 C737 1.408 . S
C734 C732 1.363 . S
C734 C735 1.370 . S
C734 C738 1.524 . S
C735 C727 1.503 . S
C735 C734 1.370 . S
C735 C736 1.403 . S
C736 C735 1.403 . S
C736 C737 1.404 . S
C736 C739 1.539 . S
C737 C733 1.408 . S
C737 C736 1.404 . S
C737 H749 0.930 . S
C738 C734 1.524 . S
C738 H750 0.956 . S
C738 H751 0.961 . S
C738 H752 0.961 . S
C739 C736 1.539 . S
C739 H753 0.958 . S
C739 H754 0.961 . S
C739 H755 0.960 . S
H740 C724 0.931 . S
H741 C729 0.929 . S
H742 C730 0.960 . S
H743 C730 0.962 . S
H744 C730 0.960 . S
H745 C731 0.961 . S
H746 C731 0.961 . S
H747 C731 0.961 . S
H748 C732 0.931 . S
H749 C737 0.930 . S
H750 C738 0.956 . S
H751 C738 0.961 . S
H752 C738 0.961 . S
H753 C739 0.958 . S
H754 C739 0.961 . S
H755 C739 0.960 . S
C756 C757 1.391 . S
C756 C758 1.394 . S
C756 H772 0.931 . S
C757 C756 1.391 . S
C757 C761 1.376 . S
C758 C756 1.394 . S
C758 C759 1.369 . S
C758 C762 1.531 . S
C759 C758 1.369 . S
C759 C760 1.410 . S
C759 C767 1.503 . S
C760 C759 1.410 . S
C760 C761 1.392 . S
C760 C763 1.511 . S
C761 C757 1.376 . S
C761 C760 1.392 . S
C761 H773 0.929 . S
C762 C758 1.531 . S
C762 H774 0.960 . S
C762 H775 0.962 . S
C762 H776 0.960 . S
C763 C760 1.511 . S
C763 H777 0.961 . S
C763 H778 0.961 . S
C763 H779 0.961 . S
C764 C765 1.370 . S
C764 C766 1.363 1_554 S
C764 H780 0.931 . S
C765 C764 1.370 . S
C765 C769 1.408 . S
C766 C764 1.363 1_556 S
C766 C767 1.370 . S
C766 C770 1.524 . S
C767 C759 1.503 . S
C767 C766 1.370 . S
C767 C768 1.403 . S
C768 C767 1.403 . S
C768 C769 1.404 1_556 S
C768 C771 1.539 . S
C769 C765 1.408 . S
C769 C768 1.404 1_554 S
C769 H781 0.930 . S
C770 C766 1.524 . S
C770 H782 0.956 . S
C770 H783 0.961 . S
C770 H784 0.961 . S
C771 C768 1.539 . S
C771 H785 0.958 . S
C771 H786 0.961 . S
C771 H787 0.960 . S
H772 C756 0.931 . S
H773 C761 0.929 . S
H774 C762 0.960 . S
H775 C762 0.962 . S
H776 C762 0.960 . S
H777 C763 0.961 . S
H778 C763 0.961 . S
H779 C763 0.961 . S
H780 C764 0.931 . S
H781 C769 0.930 . S
H782 C770 0.956 . S
H783 C770 0.961 . S
H784 C770 0.961 . S
H785 C771 0.958 . S
H786 C771 0.961 . S
H787 C771 0.960 . S
C788 C789 1.391 . S
C788 C790 1.394 1_554 S
C788 H804 0.931 . S
C789 C788 1.391 . S
C789 C793 1.376 . S
C790 C788 1.394 1_556 S
C790 C791 1.369 . S
C790 C794 1.531 . S
C791 C790 1.369 . S
C791 C792 1.410 . S
C791 C799 1.503 . S
C792 C791 1.410 . S
C792 C793 1.392 1_556 S
C792 C795 1.511 . S
C793 C789 1.376 . S
C793 C792 1.392 1_554 S
C793 H805 0.929 . S
C794 C790 1.531 . S
C794 H806 0.960 . S
C794 H807 0.962 . S
C794 H808 0.960 . S
C795 C792 1.511 . S
C795 H809 0.961 . S
C795 H810 0.961 . S
C795 H811 0.961 . S
C796 C797 1.370 . S
C796 C798 1.363 . S
C796 H812 0.931 . S
C797 C796 1.370 . S
C797 C801 1.408 . S
C798 C796 1.363 . S
C798 C799 1.370 . S
C798 C802 1.524 . S
C799 C791 1.503 . S
C799 C798 1.370 . S
C799 C800 1.403 . S
C800 C799 1.403 . S
C800 C801 1.404 . S
C800 C803 1.539 . S
C801 C797 1.408 . S
C801 C800 1.404 . S
C801 H813 0.930 . S
C802 C798 1.524 . S
C802 H814 0.956 . S
C802 H815 0.961 . S
C802 H816 0.961 . S
C803 C800 1.539 . S
C803 H817 0.958 . S
C803 H818 0.961 . S
C803 H819 0.960 . S
H804 C788 0.931 . S
H805 C793 0.929 . S
H806 C794 0.960 . S
H807 C794 0.962 . S
H808 C794 0.960 . S
H809 C795 0.961 . S
H810 C795 0.961 . S
H811 C795 0.961 . S
H812 C796 0.931 . S
H813 C801 0.930 . S
H814 C802 0.956 . S
H815 C802 0.961 . S
H816 C802 0.961 . S
H817 C803 0.958 . S
H818 C803 0.961 . S
H819 C803 0.960 . S
C820 C821 1.391 . S
C820 C822 1.394 . S
C820 H836 0.931 . S
C821 C820 1.391 . S
C821 C825 1.376 . S
C822 C820 1.394 . S
C822 C823 1.369 . S
C822 C826 1.531 . S
C823 C822 1.369 . S
C823 C824 1.410 . S
C823 C831 1.503 . S
C824 C823 1.410 . S
C824 C825 1.392 . S
C824 C827 1.511 . S
C825 C821 1.376 . S
C825 C824 1.392 . S
C825 H837 0.929 . S
C826 C822 1.531 . S
C826 H838 0.960 . S
C826 H839 0.962 . S
C826 H840 0.960 . S
C827 C824 1.511 . S
C827 H841 0.961 . S
C827 H842 0.961 . S
C827 H843 0.961 . S
C828 C829 1.370 . S
C828 C830 1.363 1_554 S
C828 H844 0.931 . S
C829 C828 1.370 . S
C829 C833 1.408 . S
C830 C828 1.363 1_556 S
C830 C831 1.370 . S
C830 C834 1.524 . S
C831 C823 1.503 . S
C831 C830 1.370 . S
C831 C832 1.403 . S
C832 C831 1.403 . S
C832 C833 1.404 1_556 S
C832 C835 1.539 . S
C833 C829 1.408 . S
C833 C832 1.404 1_554 S
C833 H845 0.930 . S
C834 C830 1.524 . S
C834 H846 0.956 . S
C834 H847 0.961 . S
C834 H848 0.961 . S
C835 C832 1.539 . S
C835 H849 0.958 . S
C835 H850 0.961 . S
C835 H851 0.960 . S
H836 C820 0.931 . S
H837 C825 0.929 . S
H838 C826 0.960 . S
H839 C826 0.962 . S
H840 C826 0.960 . S
H841 C827 0.961 . S
H842 C827 0.961 . S
H843 C827 0.961 . S
H844 C828 0.931 . S
H845 C833 0.930 . S
H846 C834 0.956 . S
H847 C834 0.961 . S
H848 C834 0.961 . S
H849 C835 0.958 . S
H850 C835 0.961 . S
H851 C835 0.960 . S
C852 C853 1.391 . S
C852 C854 1.394 . S
C852 H868 0.870 1_655 S
C853 C852 1.391 . S
C853 C857 1.376 . S
C854 C852 1.394 . S
C854 C855 1.369 . S
C854 C858 1.531 1_655 S
C855 C854 1.369 . S
C855 C856 1.410 . S
C855 C863 1.503 . S
C856 C855 1.410 . S
C856 C857 1.392 . S
C856 C859 1.511 . S
C857 C853 1.376 . S
C857 C856 1.392 . S
C857 H869 0.929 . S
C858 C854 1.531 1_455 S
C858 H870 0.960 . S
C858 H871 0.962 . S
C858 H872 0.960 . S
C859 C856 1.511 . S
C859 H873 0.961 . S
C859 H874 0.961 . S
C859 H875 0.961 . S
C860 C861 1.370 . S
C860 C862 1.363 . S
C860 H876 0.931 . S
C861 C860 1.370 . S
C861 C865 1.408 . S
C862 C860 1.363 . S
C862 C863 1.370 . S
C862 C866 1.524 . S
C863 C855 1.503 . S
C863 C862 1.370 . S
C863 C864 1.403 . S
C864 C863 1.403 . S
C864 C865 1.404 . S
C864 C867 1.539 . S
C865 C861 1.408 . S
C865 C864 1.404 . S
C865 H877 0.930 . S
C866 C862 1.524 . S
C866 H878 0.956 1_655 S
C866 H879 0.961 . S
C866 H880 0.961 1_655 S
C867 C864 1.539 . S
C867 H881 0.958 . S
C867 H882 0.961 . S
C867 H883 0.960 . S
H868 C852 0.870 1_455 S
H869 C857 0.929 . S
H870 C858 0.960 . S
H871 C858 0.962 . S
H872 C858 0.960 . S
H873 C859 0.961 . S
H874 C859 0.961 . S
H875 C859 0.961 . S
H876 C860 0.931 . S
H877 C865 0.930 . S
H878 C866 0.956 1_455 S
H879 C866 0.961 . S
H880 C866 0.961 1_455 S
H881 C867 0.958 . S
H882 C867 0.961 . S
H883 C867 0.960 . S
C884 C885 1.391 . S
C884 C886 1.394 . S
C884 H900 0.931 . S
C885 C884 1.391 . S
C885 C889 1.376 . S
C886 C884 1.394 . S
C886 C887 1.369 . S
C886 C890 1.531 . S
C887 C886 1.369 . S
C887 C888 1.410 . S
C887 C895 1.503 . S
C888 C887 1.410 . S
C888 C889 1.392 . S
C888 C891 1.511 . S
C889 C885 1.376 . S
C889 C888 1.392 . S
C889 H901 0.929 . S
C890 C886 1.531 . S
C890 H902 0.960 . S
C890 H903 0.962 . S
C890 H904 0.960 . S
C891 C888 1.511 . S
C891 H905 0.961 . S
C891 H906 0.961 . S
C891 H907 0.961 . S
C892 C893 1.370 . S
C892 C894 1.363 . S
C892 H908 0.931 . S
C893 C892 1.370 . S
C893 C897 1.408 . S
C894 C892 1.363 . S
C894 C895 1.370 . S
C894 C898 1.524 . S
C895 C887 1.503 . S
C895 C894 1.370 . S
C895 C896 1.403 . S
C896 C895 1.403 . S
C896 C897 1.404 . S
C896 C899 1.539 . S
C897 C893 1.408 . S
C897 C896 1.404 . S
C897 H909 0.930 . S
C898 C894 1.524 . S
C898 H910 0.956 . S
C898 H911 0.961 . S
C898 H912 0.961 . S
C899 C896 1.539 . S
C899 H913 0.958 . S
C899 H914 0.961 . S
C899 H915 0.960 . S
H900 C884 0.931 . S
H901 C889 0.929 . S
H902 C890 0.960 . S
H903 C890 0.962 . S
H904 C890 0.960 . S
H905 C891 0.961 . S
H906 C891 0.961 . S
H907 C891 0.961 . S
H908 C892 0.931 . S
H909 C897 0.930 . S
H910 C898 0.956 . S
H911 C898 0.961 . S
H912 C898 0.961 . S
H913 C899 0.958 . S
H914 C899 0.961 . S
H915 C899 0.960 . S
C916 C917 1.391 . S
C916 C918 1.394 . S
C916 H932 0.931 1_565 S
C917 C916 1.391 . S
C917 C921 1.376 . S
C918 C916 1.394 . S
C918 C919 1.369 . S
C918 C922 1.531 1_565 S
C919 C918 1.369 . S
C919 C920 1.410 . S
C919 C927 1.503 . S
C920 C919 1.410 . S
C920 C921 1.392 . S
C920 C923 1.511 . S
C921 C917 1.376 . S
C921 C920 1.392 . S
C921 H933 0.929 . S
C922 C918 1.531 1_545 S
C922 H934 0.960 . S
C922 H935 0.962 . S
C922 H936 0.960 . S
C923 C920 1.511 . S
C923 H937 0.961 . S
C923 H938 0.961 . S
C923 H939 0.961 . S
C924 C925 1.370 . S
C924 C926 1.363 . S
C924 H940 0.931 . S
C925 C924 1.370 . S
C925 C929 1.408 . S
C926 C924 1.363 . S
C926 C927 1.370 . S
C926 C930 1.524 . S
C927 C919 1.503 . S
C927 C926 1.370 . S
C927 C928 1.403 . S
C928 C927 1.403 . S
C928 C929 1.404 . S
C928 C931 1.539 1_565 S
C929 C925 1.408 . S
C929 C928 1.404 . S
C929 H941 0.930 1_565 S
C930 C926 1.524 . S
C930 H942 0.956 . S
C930 H943 0.961 . S
C930 H944 0.961 . S
C931 C928 1.539 1_545 S
C931 H945 0.958 . S
C931 H946 0.961 . S
C931 H947 0.960 . S
H932 C916 0.931 1_545 S
H933 C921 0.929 . S
H934 C922 0.960 . S
H935 C922 0.962 . S
H936 C922 0.960 . S
H937 C923 0.961 . S
H938 C923 0.961 . S
H939 C923 0.961 . S
H940 C924 0.931 . S
H941 C929 0.930 1_545 S
H942 C930 0.956 . S
H943 C930 0.961 . S
H944 C930 0.961 . S
H945 C931 0.958 . S
H946 C931 0.961 . S
H947 C931 0.960 . S
C948 C949 1.391 . S
C948 C950 1.394 . S
C948 H964 0.931 . S
C949 C948 1.391 . S
C949 C953 1.376 . S
C950 C948 1.394 . S
C950 C951 1.369 . S
C950 C954 1.531 . S
C951 C950 1.369 . S
C951 C952 1.410 . S
C951 C959 1.503 . S
C952 C951 1.410 . S
C952 C953 1.392 . S
C952 C955 1.565 . S
C953 C949 1.376 . S
C953 C952 1.392 . S
C953 H965 0.929 . S
C954 C950 1.531 . S
C954 H966 0.960 . S
C954 H967 0.962 . S
C954 H968 0.960 . S
C955 C952 1.565 . S
C955 H969 0.906 1_545 S
C955 H970 0.952 1_545 S
C955 H971 0.976 . S
C956 C957 1.370 . S
C956 C958 1.363 . S
C956 H972 0.931 1_545 S
C957 C956 1.370 . S
C957 C961 1.408 . S
C958 C956 1.363 . S
C958 C959 1.370 . S
C958 C962 1.524 1_545 S
C959 C951 1.503 . S
C959 C958 1.370 . S
C959 C960 1.403 . S
C960 C959 1.403 . S
C960 C961 1.404 . S
C960 C963 1.539 . S
C961 C957 1.408 . S
C961 C960 1.404 . S
C961 H973 0.930 . S
C962 C958 1.524 1_565 S
C962 H974 0.956 . S
C962 H975 0.961 . S
C962 H976 0.961 . S
C963 C960 1.539 . S
C963 H977 0.958 . S
C963 H978 0.961 . S
C963 H979 0.960 . S
H964 C948 0.931 . S
H965 C953 0.929 . S
H966 C954 0.960 . S
H967 C954 0.962 . S
H968 C954 0.960 . S
H969 C955 0.906 1_565 S
H970 C955 0.952 1_565 S
H971 C955 0.976 . S
H972 C956 0.931 1_565 S
H973 C961 0.930 . S
H974 C962 0.956 . S
H975 C962 0.961 . S
H976 C962 0.961 . S
H977 C963 0.958 . S
H978 C963 0.961 . S
H979 C963 0.960 . S
C980 C981 1.391 . S
C980 C982 1.394 . S
C980 H996 0.931 . S
C981 C980 1.391 . S
C981 C985 1.376 . S
C982 C980 1.394 . S
C982 C983 1.369 . S
C982 C986 1.531 . S
C983 C982 1.369 . S
C983 C984 1.410 . S
C983 C991 1.503 . S
C984 C983 1.410 . S
C984 C985 1.392 . S
C984 C987 1.511 . S
C985 C981 1.376 . S
C985 C984 1.392 . S
C985 H997 0.929 . S
C986 C982 1.531 . S
C986 H998 0.960 . S
C986 H999 0.962 1_455 S
C986 H1000 0.960 . S
C987 C984 1.511 . S
C987 H1001 0.961 . S
C987 H1002 0.961 . S
C987 H1003 0.961 . S
C988 C989 1.370 . S
C988 C990 1.363 . S
C988 H1004 0.931 1_455 S
C989 C988 1.370 . S
C989 C993 1.408 . S
C990 C988 1.363 . S
C990 C991 1.370 . S
C990 C994 1.524 1_455 S
C991 C983 1.503 . S
C991 C990 1.370 . S
C991 C992 1.403 . S
C992 C991 1.403 . S
C992 C993 1.404 . S
C992 C995 1.539 . S
C993 C989 1.408 . S
C993 C992 1.404 . S
C993 H1005 0.930 . S
C994 C990 1.524 1_655 S
C994 H1006 0.956 . S
C994 H1007 0.961 . S
C994 H1008 0.961 . S
C995 C992 1.539 . S
C995 H1009 0.958 . S
C995 H1010 0.961 . S
C995 H1011 0.960 . S
H996 C980 0.931 . S
H997 C985 0.929 . S
H998 C986 0.960 . S
H999 C986 0.962 1_655 S
H1000 C986 0.960 . S
H1001 C987 0.961 . S
H1002 C987 0.961 . S
H1003 C987 0.961 . S
H1004 C988 0.931 1_655 S
H1005 C993 0.930 . S
H1006 C994 0.956 . S
H1007 C994 0.961 . S
H1008 C994 0.961 . S
H1009 C995 0.958 . S
H1010 C995 0.961 . S
H1011 C995 0.960 . S
C1012 C1013 1.391 . S
C1012 C1014 1.394 . S
C1012 H1028 0.931 . S
C1013 C1012 1.391 . S
C1013 C1017 1.376 . S
C1014 C1012 1.394 . S
C1014 C1015 1.369 . S
C1014 C1018 1.531 . S
C1015 C1014 1.369 . S
C1015 C1016 1.410 . S
C1015 C1023 1.503 . S
C1016 C1015 1.410 . S
C1016 C1017 1.392 . S
C1016 C1019 1.511 . S
C1017 C1013 1.376 . S
C1017 C1016 1.392 . S
C1017 H1029 0.929 . S
C1018 C1014 1.531 . S
C1018 H1030 0.960 . S
C1018 H1031 0.962 . S
C1018 H1032 0.960 . S
C1019 C1016 1.511 . S
C1019 H1033 0.961 . S
C1019 H1034 0.961 . S
C1019 H1035 0.961 . S
C1020 C1021 1.370 . S
C1020 C1022 1.363 . S
C1020 H1036 0.931 . S
C1021 C1020 1.370 . S
C1021 C1025 1.408 . S
C1022 C1020 1.363 . S
C1022 C1023 1.370 . S
C1022 C1026 1.524 . S
C1023 C1015 1.503 . S
C1023 C1022 1.370 . S
C1023 C1024 1.403 . S
C1024 C1023 1.403 . S
C1024 C1025 1.404 . S
C1024 C1027 1.539 . S
C1025 C1021 1.408 . S
C1025 C1024 1.404 . S
C1025 H1037 0.930 . S
C1026 C1022 1.524 . S
C1026 H1038 0.956 . S
C1026 H1039 0.961 . S
C1026 H1040 0.961 . S
C1027 C1024 1.539 . S
C1027 H1041 0.958 . S
C1027 H1042 0.961 . S
C1027 H1043 0.960 . S
H1028 C1012 0.931 . S
H1029 C1017 0.929 . S
H1030 C1018 0.960 . S
H1031 C1018 0.962 . S
H1032 C1018 0.960 . S
H1033 C1019 0.961 . S
H1034 C1019 0.961 . S
H1035 C1019 0.961 . S
H1036 C1020 0.931 . S
H1037 C1025 0.930 . S
H1038 C1026 0.956 . S
H1039 C1026 0.961 . S
H1040 C1026 0.961 . S
H1041 C1027 0.958 . S
H1042 C1027 0.961 . S
H1043 C1027 0.960 . S
C1044 C1045 1.391 . S
C1044 C1046 1.394 . S
C1044 H1060 0.931 . S
C1045 C1044 1.391 . S
C1045 C1049 1.376 . S
C1046 C1044 1.394 . S
C1046 C1047 1.369 . S
C1046 C1050 1.531 . S
C1047 C1046 1.369 . S
C1047 C1048 1.410 . S
C1047 C1055 1.503 . S
C1048 C1047 1.410 . S
C1048 C1049 1.392 . S
C1048 C1051 1.511 . S
C1049 C1045 1.376 . S
C1049 C1048 1.392 . S
C1049 H1061 0.929 . S
C1050 C1046 1.531 . S
C1050 H1062 0.960 . S
C1050 H1063 0.962 . S
C1050 H1064 0.960 . S
C1051 C1048 1.511 . S
C1051 H1065 0.961 . S
C1051 H1066 0.961 . S
C1051 H1067 0.961 . S
C1052 C1053 1.370 . S
C1052 C1054 1.363 . S
C1052 H1068 0.931 . S
C1053 C1052 1.370 . S
C1053 C1057 1.408 . S
C1054 C1052 1.363 . S
C1054 C1055 1.370 . S
C1054 C1058 1.524 . S
C1055 C1047 1.503 . S
C1055 C1054 1.370 . S
C1055 C1056 1.403 . S
C1056 C1055 1.403 . S
C1056 C1057 1.404 . S
C1056 C1059 1.539 . S
C1057 C1053 1.408 . S
C1057 C1056 1.404 . S
C1057 H1069 0.930 . S
C1058 C1054 1.524 . S
C1058 H1070 0.956 . S
C1058 H1071 0.961 . S
C1058 H1072 0.961 . S
C1059 C1056 1.539 . S
C1059 H1073 0.958 . S
C1059 H1074 0.961 . S
C1059 H1075 0.960 . S
H1060 C1044 0.931 . S
H1061 C1049 0.929 . S
H1062 C1050 0.960 . S
H1063 C1050 0.962 . S
H1064 C1050 0.960 . S
H1065 C1051 0.961 . S
H1066 C1051 0.961 . S
H1067 C1051 0.961 . S
H1068 C1052 0.931 . S
H1069 C1057 0.930 . S
H1070 C1058 0.956 . S
H1071 C1058 0.961 . S
H1072 C1058 0.961 . S
H1073 C1059 0.958 . S
H1074 C1059 0.961 . S
H1075 C1059 0.960 . S
C1076 C1077 1.391 . S
C1076 C1078 1.394 . S
C1076 H1092 0.931 . S
C1077 C1076 1.391 . S
C1077 C1081 1.376 . S
C1078 C1076 1.394 . S
C1078 C1079 1.369 . S
C1078 C1082 1.531 . S
C1079 C1078 1.369 . S
C1079 C1080 1.410 . S
C1079 C1087 1.503 . S
C1080 C1079 1.410 . S
C1080 C1081 1.392 . S
C1080 C1083 1.511 . S
C1081 C1077 1.376 . S
C1081 C1080 1.392 . S
C1081 H1093 0.929 . S
C1082 C1078 1.531 . S
C1082 H1094 0.960 . S
C1082 H1095 0.962 . S
C1082 H1096 0.960 . S
C1083 C1080 1.511 . S
C1083 H1097 0.961 . S
C1083 H1098 0.961 . S
C1083 H1099 0.961 . S
C1084 C1085 1.370 . S
C1084 C1086 1.363 . S
C1084 H1100 0.931 . S
C1085 C1084 1.370 . S
C1085 C1089 1.408 . S
C1086 C1084 1.363 . S
C1086 C1087 1.370 . S
C1086 C1090 1.524 . S
C1087 C1079 1.503 . S
C1087 C1086 1.370 . S
C1087 C1088 1.403 . S
C1088 C1087 1.403 . S
C1088 C1089 1.404 . S
C1088 C1091 1.539 . S
C1089 C1085 1.408 . S
C1089 C1088 1.404 . S
C1089 H1101 0.930 . S
C1090 C1086 1.524 . S
C1090 H1102 0.956 . S
C1090 H1103 0.961 . S
C1090 H1104 0.961 . S
C1091 C1088 1.539 . S
C1091 H1105 0.958 . S
C1091 H1106 0.961 . S
C1091 H1107 0.960 . S
H1092 C1076 0.931 . S
H1093 C1081 0.929 . S
H1094 C1082 0.960 . S
H1095 C1082 0.962 . S
H1096 C1082 0.960 . S
H1097 C1083 0.961 . S
H1098 C1083 0.961 . S
H1099 C1083 0.961 . S
H1100 C1084 0.931 . S
H1101 C1089 0.930 . S
H1102 C1090 0.956 . S
H1103 C1090 0.961 . S
H1104 C1090 0.961 . S
H1105 C1091 0.958 . S
H1106 C1091 0.961 . S
H1107 C1091 0.960 . S
C1108 C1109 1.391 . S
C1108 C1110 1.394 . S
C1108 H1124 0.931 . S
C1109 C1108 1.391 . S
C1109 C1113 1.376 . S
C1110 C1108 1.394 . S
C1110 C1111 1.369 . S
C1110 C1114 1.531 . S
C1111 C1110 1.369 . S
C1111 C1112 1.410 . S
C1111 C1119 1.503 . S
C1112 C1111 1.410 . S
C1112 C1113 1.392 . S
C1112 C1115 1.511 . S
C1113 C1109 1.376 . S
C1113 C1112 1.392 . S
C1113 H1125 0.929 . S
C1114 C1110 1.531 . S
C1114 H1126 0.960 . S
C1114 H1127 0.962 . S
C1114 H1128 0.960 . S
C1115 C1112 1.511 . S
C1115 H1129 0.961 . S
C1115 H1130 0.961 . S
C1115 H1131 0.961 . S
C1116 C1117 1.370 . S
C1116 C1118 1.363 . S
C1116 H1132 0.931 . S
C1117 C1116 1.370 . S
C1117 C1121 1.408 . S
C1118 C1116 1.363 . S
C1118 C1119 1.370 . S
C1118 C1122 1.524 . S
C1119 C1111 1.503 . S
C1119 C1118 1.370 . S
C1119 C1120 1.403 . S
C1120 C1119 1.403 . S
C1120 C1121 1.404 . S
C1120 C1123 1.539 . S
C1121 C1117 1.408 . S
C1121 C1120 1.404 . S
C1121 H1133 0.930 . S
C1122 C1118 1.524 . S
C1122 H1134 0.956 . S
C1122 H1135 0.961 . S
C1122 H1136 0.961 . S
C1123 C1120 1.539 . S
C1123 H1137 0.958 . S
C1123 H1138 0.961 . S
C1123 H1139 0.960 . S
H1124 C1108 0.931 . S
H1125 C1113 0.929 . S
H1126 C1114 0.960 . S
H1127 C1114 0.962 . S
H1128 C1114 0.960 . S
H1129 C1115 0.961 . S
H1130 C1115 0.961 . S
H1131 C1115 0.961 . S
H1132 C1116 0.931 . S
H1133 C1121 0.930 . S
H1134 C1122 0.956 . S
H1135 C1122 0.961 . S
H1136 C1122 0.961 . S
H1137 C1123 0.958 . S
H1138 C1123 0.961 . S
H1139 C1123 0.960 . S
C1140 C1141 1.391 . S
C1140 C1142 1.394 . S
C1140 H1156 0.931 . S
C1141 C1140 1.391 . S
C1141 C1145 1.376 . S
C1142 C1140 1.394 . S
C1142 C1143 1.369 . S
C1142 C1146 1.531 . S
C1143 C1142 1.369 . S
C1143 C1144 1.410 . S
C1143 C1151 1.503 . S
C1144 C1143 1.410 . S
C1144 C1145 1.392 . S
C1144 C1147 1.511 . S
C1145 C1141 1.376 . S
C1145 C1144 1.392 . S
C1145 H1157 0.929 . S
C1146 C1142 1.531 . S
C1146 H1158 0.960 . S
C1146 H1159 0.962 . S
C1146 H1160 0.960 . S
C1147 C1144 1.511 . S
C1147 H1161 0.961 . S
C1147 H1162 0.961 . S
C1147 H1163 0.961 . S
C1148 C1149 1.370 . S
C1148 C1150 1.363 . S
C1148 H1164 0.931 . S
C1149 C1148 1.370 . S
C1149 C1153 1.408 . S
C1150 C1148 1.363 . S
C1150 C1151 1.370 . S
C1150 C1154 1.524 . S
C1151 C1143 1.503 . S
C1151 C1150 1.370 . S
C1151 C1152 1.403 . S
C1152 C1151 1.403 . S
C1152 C1153 1.404 . S
C1152 C1155 1.539 . S
C1153 C1149 1.408 . S
C1153 C1152 1.404 . S
C1153 H1165 0.930 . S
C1154 C1150 1.524 . S
C1154 H1166 0.956 . S
C1154 H1167 0.961 . S
C1154 H1168 0.961 . S
C1155 C1152 1.539 . S
C1155 H1169 0.958 . S
C1155 H1170 0.961 . S
C1155 H1171 0.960 . S
H1156 C1140 0.931 . S
H1157 C1145 0.929 . S
H1158 C1146 0.960 . S
H1159 C1146 0.962 . S
H1160 C1146 0.960 . S
H1161 C1147 0.961 . S
H1162 C1147 0.961 . S
H1163 C1147 0.961 . S
H1164 C1148 0.931 . S
H1165 C1153 0.930 . S
H1166 C1154 0.956 . S
H1167 C1154 0.961 . S
H1168 C1154 0.961 . S
H1169 C1155 0.958 . S
H1170 C1155 0.961 . S
H1171 C1155 0.960 . S
C1172 C1173 1.391 . S
C1172 C1174 1.394 . S
C1172 H1188 0.931 . S
C1173 C1172 1.391 . S
C1173 C1177 1.376 . S
C1174 C1172 1.394 . S
C1174 C1175 1.369 . S
C1174 C1178 1.531 . S
C1175 C1174 1.369 . S
C1175 C1176 1.410 . S
C1175 C1183 1.503 . S
C1176 C1175 1.410 . S
C1176 C1177 1.392 . S
C1176 C1179 1.511 . S
C1177 C1173 1.376 . S
C1177 C1176 1.392 . S
C1177 H1189 0.929 . S
C1178 C1174 1.531 . S
C1178 H1190 0.960 . S
C1178 H1191 0.962 . S
C1178 H1192 0.960 . S
C1179 C1176 1.511 . S
C1179 H1193 0.961 . S
C1179 H1194 0.961 . S
C1179 H1195 0.961 . S
C1180 C1181 1.370 . S
C1180 C1182 1.363 . S
C1180 H1196 0.931 . S
C1181 C1180 1.370 . S
C1181 C1185 1.408 . S
C1182 C1180 1.363 . S
C1182 C1183 1.370 . S
C1182 C1186 1.524 . S
C1183 C1175 1.503 . S
C1183 C1182 1.370 . S
C1183 C1184 1.403 . S
C1184 C1183 1.403 . S
C1184 C1185 1.404 . S
C1184 C1187 1.539 . S
C1185 C1181 1.408 . S
C1185 C1184 1.404 . S
C1185 H1197 0.930 . S
C1186 C1182 1.524 . S
C1186 H1198 0.956 . S
C1186 H1199 0.961 . S
C1186 H1200 0.961 . S
C1187 C1184 1.539 . S
C1187 H1201 0.958 . S
C1187 H1202 0.961 . S
C1187 H1203 0.960 . S
H1188 C1172 0.931 . S
H1189 C1177 0.929 . S
H1190 C1178 0.960 . S
H1191 C1178 0.962 . S
H1192 C1178 0.960 . S
H1193 C1179 0.961 . S
H1194 C1179 0.961 . S
H1195 C1179 0.961 . S
H1196 C1180 0.931 . S
H1197 C1185 0.930 . S
H1198 C1186 0.956 . S
H1199 C1186 0.961 . S
H1200 C1186 0.961 . S
H1201 C1187 0.958 . S
H1202 C1187 0.961 . S
H1203 C1187 0.960 . S
C1204 C1205 1.391 . S
C1204 C1206 1.394 . S
C1204 H1220 0.931 . S
C1205 C1204 1.391 . S
C1205 C1209 1.376 . S
C1206 C1204 1.394 . S
C1206 C1207 1.369 . S
C1206 C1210 1.531 . S
C1207 C1206 1.369 . S
C1207 C1208 1.410 . S
C1207 C1215 1.503 . S
C1208 C1207 1.410 . S
C1208 C1209 1.392 . S
C1208 C1211 1.511 . S
C1209 C1205 1.376 . S
C1209 C1208 1.392 . S
C1209 H1221 0.929 . S
C1210 C1206 1.531 . S
C1210 H1222 0.960 . S
C1210 H1223 0.962 . S
C1210 H1224 0.960 . S
C1211 C1208 1.511 . S
C1211 H1225 0.961 . S
C1211 H1226 0.961 . S
C1211 H1227 0.961 . S
C1212 C1213 1.370 . S
C1212 C1214 1.363 . S
C1212 H1228 0.931 . S
C1213 C1212 1.370 . S
C1213 C1217 1.408 . S
C1214 C1212 1.363 . S
C1214 C1215 1.370 . S
C1214 C1218 1.524 . S
C1215 C1207 1.503 . S
C1215 C1214 1.370 . S
C1215 C1216 1.403 . S
C1216 C1215 1.403 . S
C1216 C1217 1.404 . S
C1216 C1219 1.539 . S
C1217 C1213 1.408 . S
C1217 C1216 1.404 . S
C1217 H1229 0.930 . S
C1218 C1214 1.524 . S
C1218 H1230 0.956 . S
C1218 H1231 0.961 . S
C1218 H1232 0.961 . S
C1219 C1216 1.539 . S
C1219 H1233 0.958 . S
C1219 H1234 0.961 . S
C1219 H1235 0.960 . S
H1220 C1204 0.931 . S
H1221 C1209 0.929 . S
H1222 C1210 0.960 . S
H1223 C1210 0.962 . S
H1224 C1210 0.960 . S
H1225 C1211 0.961 . S
H1226 C1211 0.961 . S
H1227 C1211 0.961 . S
H1228 C1212 0.931 . S
H1229 C1217 0.930 . S
H1230 C1218 0.956 . S
H1231 C1218 0.961 . S
H1232 C1218 0.961 . S
H1233 C1219 0.958 . S
H1234 C1219 0.961 . S
H1235 C1219 0.960 . S
C1236 C1237 1.391 . S
C1236 C1238 1.394 . S
C1236 H1252 0.931 . S
C1237 C1236 1.391 . S
C1237 C1241 1.376 . S
C1238 C1236 1.394 . S
C1238 C1239 1.369 . S
C1238 C1242 1.531 . S
C1239 C1238 1.369 . S
C1239 C1240 1.410 . S
C1239 C1247 1.503 . S
C1240 C1239 1.410 . S
C1240 C1241 1.392 . S
C1240 C1243 1.511 . S
C1241 C1237 1.376 . S
C1241 C1240 1.392 . S
C1241 H1253 0.929 . S
C1242 C1238 1.531 . S
C1242 H1254 0.960 . S
C1242 H1255 0.962 . S
C1242 H1256 0.960 . S
C1243 C1240 1.511 . S
C1243 H1257 0.961 . S
C1243 H1258 0.961 . S
C1243 H1259 0.961 . S
C1244 C1245 1.370 . S
C1244 C1246 1.363 . S
C1244 H1260 0.931 . S
C1245 C1244 1.370 . S
C1245 C1249 1.408 . S
C1246 C1244 1.363 . S
C1246 C1247 1.370 . S
C1246 C1250 1.524 . S
C1247 C1239 1.503 . S
C1247 C1246 1.370 . S
C1247 C1248 1.403 . S
C1248 C1247 1.403 . S
C1248 C1249 1.404 . S
C1248 C1251 1.539 . S
C1249 C1245 1.408 . S
C1249 C1248 1.404 . S
C1249 H1261 0.930 . S
C1250 C1246 1.524 . S
C1250 H1262 0.956 . S
C1250 H1263 0.961 . S
C1250 H1264 0.961 . S
C1251 C1248 1.539 . S
C1251 H1265 0.958 . S
C1251 H1266 0.961 . S
C1251 H1267 0.960 . S
H1252 C1236 0.931 . S
H1253 C1241 0.929 . S
H1254 C1242 0.960 . S
H1255 C1242 0.962 . S
H1256 C1242 0.960 . S
H1257 C1243 0.961 . S
H1258 C1243 0.961 . S
H1259 C1243 0.961 . S
H1260 C1244 0.931 . S
H1261 C1249 0.930 . S
H1262 C1250 0.956 . S
H1263 C1250 0.961 . S
H1264 C1250 0.961 . S
H1265 C1251 0.958 . S
H1266 C1251 0.961 . S
H1267 C1251 0.960 . S
C1268 C1269 1.391 . S
C1268 C1270 1.394 . S
C1268 H1284 0.931 . S
C1269 C1268 1.391 . S
C1269 C1273 1.376 . S
C1270 C1268 1.394 . S
C1270 C1271 1.369 . S
C1270 C1274 1.531 . S
C1271 C1270 1.369 . S
C1271 C1272 1.410 . S
C1271 C1279 1.503 . S
C1272 C1271 1.410 . S
C1272 C1273 1.392 . S
C1272 C1275 1.511 . S
C1273 C1269 1.376 . S
C1273 C1272 1.392 . S
C1273 H1285 0.929 . S
C1274 C1270 1.531 . S
C1274 H1286 0.960 . S
C1274 H1287 0.962 . S
C1274 H1288 0.960 . S
C1275 C1272 1.511 . S
C1275 H1289 0.961 . S
C1275 H1290 0.961 . S
C1275 H1291 0.961 . S
C1276 C1277 1.370 . S
C1276 C1278 1.363 . S
C1276 H1292 0.931 . S
C1277 C1276 1.370 . S
C1277 C1281 1.408 . S
C1278 C1276 1.363 . S
C1278 C1279 1.370 . S
C1278 C1282 1.524 . S
C1279 C1271 1.503 . S
C1279 C1278 1.370 . S
C1279 C1280 1.403 . S
C1280 C1279 1.403 . S
C1280 C1281 1.404 . S
C1280 C1283 1.539 . S
C1281 C1277 1.408 . S
C1281 C1280 1.404 . S
C1281 H1293 0.930 . S
C1282 C1278 1.524 . S
C1282 H1294 0.956 . S
C1282 H1295 0.961 . S
C1282 H1296 0.961 . S
C1283 C1280 1.539 . S
C1283 H1297 0.958 . S
C1283 H1298 0.961 . S
C1283 H1299 0.960 . S
H1284 C1268 0.931 . S
H1285 C1273 0.929 . S
H1286 C1274 0.960 . S
H1287 C1274 0.962 . S
H1288 C1274 0.960 . S
H1289 C1275 0.961 . S
H1290 C1275 0.961 . S
H1291 C1275 0.961 . S
H1292 C1276 0.931 . S
H1293 C1281 0.930 . S
H1294 C1282 0.956 . S
H1295 C1282 0.961 . S
H1296 C1282 0.961 . S
H1297 C1283 0.958 . S
H1298 C1283 0.961 . S
H1299 C1283 0.960 . S
C1300 C1301 1.391 . S
C1300 C1302 1.394 . S
C1300 H1316 0.931 . S
C1301 C1300 1.391 . S
C1301 C1305 1.376 . S
C1302 C1300 1.394 . S
C1302 C1303 1.369 . S
C1302 C1306 1.531 . S
C1303 C1302 1.369 . S
C1303 C1304 1.410 . S
C1303 C1311 1.503 . S
C1304 C1303 1.410 . S
C1304 C1305 1.392 . S
C1304 C1307 1.511 . S
C1305 C1301 1.376 . S
C1305 C1304 1.392 . S
C1305 H1317 0.929 . S
C1306 C1302 1.531 . S
C1306 H1318 0.960 . S
C1306 H1319 0.962 . S
C1306 H1320 0.960 . S
C1307 C1304 1.511 . S
C1307 H1321 0.961 . S
C1307 H1322 0.961 . S
C1307 H1323 0.961 . S
C1308 C1309 1.370 . S
C1308 C1310 1.363 . S
C1308 H1324 0.931 . S
C1309 C1308 1.370 . S
C1309 C1313 1.408 . S
C1310 C1308 1.363 . S
C1310 C1311 1.370 . S
C1310 C1314 1.524 . S
C1311 C1303 1.503 . S
C1311 C1310 1.370 . S
C1311 C1312 1.403 . S
C1312 C1311 1.403 . S
C1312 C1313 1.404 . S
C1312 C1315 1.539 . S
C1313 C1309 1.408 . S
C1313 C1312 1.404 . S
C1313 H1325 0.930 . S
C1314 C1310 1.524 . S
C1314 H1326 0.956 . S
C1314 H1327 0.961 . S
C1314 H1328 0.961 . S
C1315 C1312 1.539 . S
C1315 H1329 0.958 . S
C1315 H1330 0.961 . S
C1315 H1331 0.960 . S
H1316 C1300 0.931 . S
H1317 C1305 0.929 . S
H1318 C1306 0.960 . S
H1319 C1306 0.962 . S
H1320 C1306 0.960 . S
H1321 C1307 0.961 . S
H1322 C1307 0.961 . S
H1323 C1307 0.961 . S
H1324 C1308 0.931 . S
H1325 C1313 0.930 . S
H1326 C1314 0.956 . S
H1327 C1314 0.961 . S
H1328 C1314 0.961 . S
H1329 C1315 0.958 . S
H1330 C1315 0.961 . S
H1331 C1315 0.960 . S
C1332 C1333 1.391 . S
C1332 C1334 1.394 . S
C1332 H1348 0.931 . S
C1333 C1332 1.391 . S
C1333 C1337 1.376 . S
C1334 C1332 1.394 . S
C1334 C1335 1.369 . S
C1334 C1338 1.531 . S
C1335 C1334 1.369 . S
C1335 C1336 1.410 . S
C1335 C1343 1.503 . S
C1336 C1335 1.410 . S
C1336 C1337 1.392 . S
C1336 C1339 1.511 . S
C1337 C1333 1.376 . S
C1337 C1336 1.392 . S
C1337 H1349 0.929 . S
C1338 C1334 1.531 . S
C1338 H1350 0.960 . S
C1338 H1351 0.962 . S
C1338 H1352 0.960 . S
C1339 C1336 1.511 . S
C1339 H1353 0.961 . S
C1339 H1354 0.961 . S
C1339 H1355 0.961 . S
C1340 C1341 1.370 . S
C1340 C1342 1.363 . S
C1340 H1356 0.931 . S
C1341 C1340 1.370 . S
C1341 C1345 1.408 . S
C1342 C1340 1.363 . S
C1342 C1343 1.370 . S
C1342 C1346 1.524 . S
C1343 C1335 1.503 . S
C1343 C1342 1.370 . S
C1343 C1344 1.403 . S
C1344 C1343 1.403 . S
C1344 C1345 1.404 . S
C1344 C1347 1.539 . S
C1345 C1341 1.408 . S
C1345 C1344 1.404 . S
C1345 H1357 0.930 . S
C1346 C1342 1.524 . S
C1346 H1358 0.956 . S
C1346 H1359 0.961 . S
C1346 H1360 0.961 . S
C1347 C1344 1.539 . S
C1347 H1361 0.958 . S
C1347 H1362 0.961 . S
C1347 H1363 0.960 . S
H1348 C1332 0.931 . S
H1349 C1337 0.929 . S
H1350 C1338 0.960 . S
H1351 C1338 0.962 . S
H1352 C1338 0.960 . S
H1353 C1339 0.961 . S
H1354 C1339 0.961 . S
H1355 C1339 0.961 . S
H1356 C1340 0.931 . S
H1357 C1345 0.930 . S
H1358 C1346 0.956 . S
H1359 C1346 0.961 . S
H1360 C1346 0.961 . S
H1361 C1347 0.958 . S
H1362 C1347 0.961 . S
H1363 C1347 0.960 . S
C1364 C1365 1.391 . S
C1364 C1366 1.394 . S
C1364 H1380 0.931 . S
C1365 C1364 1.391 . S
C1365 C1369 1.376 . S
C1366 C1364 1.394 . S
C1366 C1367 1.369 . S
C1366 C1370 1.531 . S
C1367 C1366 1.369 . S
C1367 C1368 1.410 . S
C1367 C1375 1.503 . S
C1368 C1367 1.410 . S
C1368 C1369 1.392 . S
C1368 C1371 1.511 . S
C1369 C1365 1.376 . S
C1369 C1368 1.392 . S
C1369 H1381 0.929 . S
C1370 C1366 1.531 . S
C1370 H1382 0.960 . S
C1370 H1383 0.962 . S
C1370 H1384 0.960 . S
C1371 C1368 1.511 . S
C1371 H1385 0.961 . S
C1371 H1386 0.961 . S
C1371 H1387 0.961 . S
C1372 C1373 1.370 . S
C1372 C1374 1.363 . S
C1372 H1388 0.931 . S
C1373 C1372 1.370 . S
C1373 C1377 1.408 . S
C1374 C1372 1.363 . S
C1374 C1375 1.370 . S
C1374 C1378 1.524 . S
C1375 C1367 1.503 . S
C1375 C1374 1.370 . S
C1375 C1376 1.403 . S
C1376 C1375 1.403 . S
C1376 C1377 1.404 . S
C1376 C1379 1.539 . S
C1377 C1373 1.408 . S
C1377 C1376 1.404 . S
C1377 H1389 0.930 . S
C1378 C1374 1.524 . S
C1378 H1390 0.956 . S
C1378 H1391 0.961 . S
C1378 H1392 0.961 . S
C1379 C1376 1.539 . S
C1379 H1393 0.958 . S
C1379 H1394 0.961 . S
C1379 H1395 0.960 . S
H1380 C1364 0.931 . S
H1381 C1369 0.929 . S
H1382 C1370 0.960 . S
H1383 C1370 0.962 . S
H1384 C1370 0.960 . S
H1385 C1371 0.961 . S
H1386 C1371 0.961 . S
H1387 C1371 0.961 . S
H1388 C1372 0.931 . S
H1389 C1377 0.930 . S
H1390 C1378 0.956 . S
H1391 C1378 0.961 . S
H1392 C1378 0.961 . S
H1393 C1379 0.958 . S
H1394 C1379 0.961 . S
H1395 C1379 0.960 . S
C1396 C1397 1.391 . S
C1396 C1398 1.394 . S
C1396 H1412 0.931 . S
C1397 C1396 1.391 . S
C1397 C1401 1.376 . S
C1398 C1396 1.394 . S
C1398 C1399 1.369 . S
C1398 C1402 1.531 . S
C1399 C1398 1.369 . S
C1399 C1400 1.410 . S
C1399 C1407 1.503 . S
C1400 C1399 1.410 . S
C1400 C1401 1.392 . S
C1400 C1403 1.511 . S
C1401 C1397 1.376 . S
C1401 C1400 1.392 . S
C1401 H1413 0.929 . S
C1402 C1398 1.531 . S
C1402 H1414 0.960 . S
C1402 H1415 0.962 . S
C1402 H1416 0.960 . S
C1403 C1400 1.511 . S
C1403 H1417 0.961 . S
C1403 H1418 0.961 . S
C1403 H1419 0.961 . S
C1404 C1405 1.370 . S
C1404 C1406 1.363 . S
C1404 H1420 0.931 . S
C1405 C1404 1.370 . S
C1405 C1409 1.408 . S
C1406 C1404 1.363 . S
C1406 C1407 1.370 . S
C1406 C1410 1.524 . S
C1407 C1399 1.503 . S
C1407 C1406 1.370 . S
C1407 C1408 1.403 . S
C1408 C1407 1.403 . S
C1408 C1409 1.404 . S
C1408 C1411 1.539 . S
C1409 C1405 1.408 . S
C1409 C1408 1.404 . S
C1409 H1421 0.930 . S
C1410 C1406 1.524 . S
C1410 H1422 0.956 . S
C1410 H1423 0.961 . S
C1410 H1424 0.961 . S
C1411 C1408 1.539 . S
C1411 H1425 0.958 . S
C1411 H1426 0.961 . S
C1411 H1427 0.960 . S
H1412 C1396 0.931 . S
H1413 C1401 0.929 . S
H1414 C1402 0.960 . S
H1415 C1402 0.962 . S
H1416 C1402 0.960 . S
H1417 C1403 0.961 . S
H1418 C1403 0.961 . S
H1419 C1403 0.961 . S
H1420 C1404 0.931 . S
H1421 C1409 0.930 . S
H1422 C1410 0.956 . S
H1423 C1410 0.961 . S
H1424 C1410 0.961 . S
H1425 C1411 0.958 . S
H1426 C1411 0.961 . S
H1427 C1411 0.960 . S
C1428 C1429 1.391 . S
C1428 C1430 1.394 . S
C1428 H1444 0.931 . S
C1429 C1428 1.391 . S
C1429 C1433 1.376 1_455 S
C1430 C1428 1.394 . S
C1430 C1431 1.369 . S
C1430 C1434 1.531 . S
C1431 C1430 1.369 . S
C1431 C1432 1.410 1_455 S
C1431 C1439 1.507 1_455 S
C1432 C1431 1.410 1_655 S
C1432 C1433 1.392 . S
C1432 C1435 1.511 . S
C1433 C1429 1.376 1_655 S
C1433 C1432 1.392 . S
C1433 H1445 0.929 . S
C1434 C1430 1.531 . S
C1434 H1446 0.960 . S
C1434 H1447 0.962 . S
C1434 H1448 0.960 . S
C1435 C1432 1.511 . S
C1435 H1449 0.961 . S
C1435 H1450 0.961 . S
C1435 H1451 0.961 . S
C1436 C1437 1.370 . S
C1436 C1438 1.363 . S
C1436 H1452 0.931 . S
C1437 C1436 1.370 . S
C1437 C1441 1.383 1_655 S
C1438 C1436 1.363 . S
C1438 C1439 1.368 . S
C1438 C1442 1.524 . S
C1439 C1431 1.507 1_655 S
C1439 C1438 1.368 . S
C1439 C1440 1.402 1_655 S
C1440 C1439 1.402 1_455 S
C1440 C1441 1.438 . S
C1440 C1443 1.539 . S
C1441 C1437 1.383 1_455 S
C1441 C1440 1.438 . S
C1441 H1453 0.925 . S
C1442 C1438 1.524 . S
C1442 H1454 0.956 1_655 S
C1442 H1455 0.961 . S
C1442 H1456 0.961 . S
C1443 C1440 1.539 . S
C1443 H1457 0.958 . S
C1443 H1458 0.961 . S
C1443 H1459 0.960 . S
H1444 C1428 0.931 . S
H1445 C1433 0.929 . S
H1446 C1434 0.960 . S
H1447 C1434 0.962 . S
H1448 C1434 0.960 . S
H1449 C1435 0.961 . S
H1450 C1435 0.961 . S
H1451 C1435 0.961 . S
H1452 C1436 0.931 . S
H1453 C1441 0.925 . S
H1454 C1442 0.956 1_455 S
H1455 C1442 0.961 . S
H1456 C1442 0.961 . S
H1457 C1443 0.958 . S
H1458 C1443 0.961 . S
H1459 C1443 0.960 . S
C1460 C1461 1.391 . S
C1460 C1462 1.394 . S
C1460 H1476 0.931 . S
C1461 C1460 1.391 . S
C1461 C1465 1.376 . S
C1462 C1460 1.394 . S
C1462 C1463 1.369 . S
C1462 C1466 1.531 . S
C1463 C1462 1.369 . S
C1463 C1464 1.410 . S
C1463 C1471 1.503 . S
C1464 C1463 1.410 . S
C1464 C1465 1.392 . S
C1464 C1467 1.511 . S
C1465 C1461 1.376 . S
C1465 C1464 1.392 . S
C1465 H1477 0.929 . S
C1466 C1462 1.531 . S
C1466 H1478 0.960 . S
C1466 H1479 0.962 . S
C1466 H1480 0.960 . S
C1467 C1464 1.511 . S
C1467 H1481 0.961 . S
C1467 H1482 0.961 . S
C1467 H1483 0.961 . S
C1468 C1469 1.370 . S
C1468 C1470 1.363 . S
C1468 H1484 0.931 . S
C1469 C1468 1.370 . S
C1469 C1473 1.408 . S
C1470 C1468 1.363 . S
C1470 C1471 1.370 . S
C1470 C1474 1.524 . S
C1471 C1463 1.503 . S
C1471 C1470 1.370 . S
C1471 C1472 1.403 . S
C1472 C1471 1.403 . S
C1472 C1473 1.404 . S
C1472 C1475 1.539 . S
C1473 C1469 1.408 . S
C1473 C1472 1.404 . S
C1473 H1485 0.930 . S
C1474 C1470 1.524 . S
C1474 H1486 0.956 . S
C1474 H1487 0.961 . S
C1474 H1488 0.961 . S
C1475 C1472 1.539 . S
C1475 H1489 0.958 . S
C1475 H1490 0.961 . S
C1475 H1491 0.960 . S
H1476 C1460 0.931 . S
H1477 C1465 0.929 . S
H1478 C1466 0.960 . S
H1479 C1466 0.962 . S
H1480 C1466 0.960 . S
H1481 C1467 0.961 . S
H1482 C1467 0.961 . S
H1483 C1467 0.961 . S
H1484 C1468 0.931 . S
H1485 C1473 0.930 . S
H1486 C1474 0.956 . S
H1487 C1474 0.961 . S
H1488 C1474 0.961 . S
H1489 C1475 0.958 . S
H1490 C1475 0.961 . S
H1491 C1475 0.960 . S
C1492 C1493 1.391 . S
C1492 C1494 1.394 . S
C1492 H1508 0.931 . S
C1493 C1492 1.391 . S
C1493 C1497 1.376 . S
C1494 C1492 1.394 . S
C1494 C1495 1.369 . S
C1494 C1498 1.538 . S
C1495 C1494 1.369 . S
C1495 C1496 1.410 . S
C1495 C1503 1.503 1_545 S
C1496 C1495 1.410 . S
C1496 C1497 1.392 . S
C1496 C1499 1.511 . S
C1497 C1493 1.376 . S
C1497 C1496 1.392 . S
C1497 H1509 0.929 . S
C1498 C1494 1.538 . S
C1498 H1510 0.933 1_545 S
C1498 H1511 1.000 . S
C1498 H1512 0.946 1_545 S
C1499 C1496 1.511 . S
C1499 H1513 0.961 . S
C1499 H1514 0.953 . S
C1499 H1515 0.961 1_545 S
C1500 C1501 1.370 . S
C1500 C1502 1.360 1_565 S
C1500 H1516 0.931 . S
C1501 C1500 1.370 . S
C1501 C1505 1.408 . S
C1502 C1500 1.360 1_545 S
C1502 C1503 1.343 1_545 S
C1502 C1506 1.556 . S
C1503 C1495 1.503 1_565 S
C1503 C1502 1.343 1_565 S
C1503 C1504 1.403 . S
C1504 C1503 1.403 . S
C1504 C1505 1.404 . S
C1504 C1507 1.539 . S
C1505 C1501 1.408 . S
C1505 C1504 1.404 . S
C1505 H1517 0.930 . S
C1506 C1502 1.556 . S
C1506 H1518 0.956 . S
C1506 H1519 0.961 . S
C1506 H1520 0.961 . S
C1507 C1504 1.539 . S
C1507 H1521 0.958 . S
C1507 H1522 0.961 . S
C1507 H1523 0.960 . S
H1508 C1492 0.931 . S
H1509 C1497 0.929 . S
H1510 C1498 0.933 1_565 S
H1511 C1498 1.000 . S
H1512 C1498 0.946 1_565 S
H1513 C1499 0.961 . S
H1514 C1499 0.953 . S
H1515 C1499 0.961 1_565 S
H1516 C1500 0.931 . S
H1517 C1505 0.930 . S
H1518 C1506 0.956 . S
H1519 C1506 0.961 . S
H1520 C1506 0.961 . S
H1521 C1507 0.958 . S
H1522 C1507 0.961 . S
H1523 C1507 0.960 . S
C1524 C1525 1.391 . S
C1524 C1526 1.394 . S
C1524 H1540 0.931 . S
C1525 C1524 1.391 . S
C1525 C1529 1.374 1_546 S
C1526 C1524 1.394 . S
C1526 C1527 1.369 1_556 S
C1526 C1530 1.531 . S
C1527 C1526 1.369 1_554 S
C1527 C1528 1.410 1_545 S
C1527 C1535 1.486 1_545 S
C1528 C1527 1.410 1_565 S
C1528 C1529 1.394 . S
C1528 C1531 1.511 . S
C1529 C1525 1.374 1_564 S
C1529 C1528 1.394 . S
C1529 H1541 0.929 . S
C1530 C1526 1.531 . S
C1530 H1542 0.960 1_556 S
C1530 H1543 0.962 . S
C1530 H1544 0.960 1_556 S
C1531 C1528 1.511 . S
C1531 H1545 0.961 . S
C1531 H1546 0.961 . S
C1531 H1547 0.961 . S
C1532 C1533 1.370 1_556 S
C1532 C1534 1.363 . S
C1532 H1548 0.931 . S
C1533 C1532 1.370 1_554 S
C1533 C1537 1.408 . S
C1534 C1532 1.363 . S
C1534 C1535 1.383 1_556 S
C1534 C1538 1.524 . S
C1535 C1527 1.486 1_565 S
C1535 C1534 1.383 1_554 S
C1535 C1536 1.417 1_565 S
C1536 C1535 1.417 1_545 S
C1536 C1537 1.375 1_545 S
C1536 C1539 1.558 . S
C1537 C1533 1.408 . S
C1537 C1536 1.375 1_565 S
C1537 H1549 0.930 . S
C1538 C1534 1.524 . S
C1538 H1550 0.956 1_565 S
C1538 H1551 0.961 . S
C1538 H1552 0.961 . S
C1539 C1536 1.558 . S
C1539 H1553 0.958 . S
C1539 H1554 0.961 1_545 S
C1539 H1555 0.960 1_545 S
H1540 C1524 0.931 . S
H1541 C1529 0.929 . S
H1542 C1530 0.960 1_554 S
H1543 C1530 0.962 . S
H1544 C1530 0.960 1_554 S
H1545 C1531 0.961 . S
H1546 C1531 0.961 . S
H1547 C1531 0.961 . S
H1548 C1532 0.931 . S
H1549 C1537 0.930 . S
H1550 C1538 0.956 1_545 S
H1551 C1538 0.961 . S
H1552 C1538 0.961 . S
H1553 C1539 0.958 . S
H1554 C1539 0.961 1_565 S
H1555 C1539 0.960 1_565 S
C1556 C1557 1.391 . S
C1556 C1558 1.394 . S
C1556 H1572 0.931 . S
C1557 C1556 1.391 . S
C1557 C1561 1.376 1_554 S
C1558 C1556 1.394 . S
C1558 C1559 1.369 . S
C1558 C1562 1.531 . S
C1559 C1558 1.369 . S
C1559 C1560 1.392 1_454 S
C1559 C1567 1.503 1_455 S
C1560 C1559 1.392 1_656 S
C1560 C1561 1.385 1_655 S
C1560 C1563 1.536 . S
C1561 C1557 1.376 1_556 S
C1561 C1560 1.385 1_455 S
C1561 H1573 0.929 . S
C1562 C1558 1.531 . S
C1562 H1574 0.960 . S
C1562 H1575 0.962 . S
C1562 H1576 0.960 . S
C1563 C1560 1.536 . S
C1563 H1577 0.961 . S
C1563 H1578 0.961 . S
C1563 H1579 0.961 . S
C1564 C1565 1.370 . S
C1564 C1566 1.363 . S
C1564 H1580 0.931 . S
C1565 C1564 1.370 . S
C1565 C1569 1.408 1_556 S
C1566 C1564 1.363 . S
C1566 C1567 1.370 1_556 S
C1566 C1570 1.524 1_655 S
C1567 C1559 1.503 1_655 S
C1567 C1566 1.370 1_554 S
C1567 C1568 1.403 . S
C1568 C1567 1.403 . S
C1568 C1569 1.404 . S
C1568 C1571 1.539 . S
C1569 C1565 1.408 1_554 S
C1569 C1568 1.404 . S
C1569 H1581 0.930 . S
C1570 C1566 1.524 1_455 S
C1570 H1582 0.956 . S
C1570 H1583 0.961 . S
C1570 H1584 0.961 . S
C1571 C1568 1.539 . S
C1571 H1585 0.958 . S
C1571 H1586 0.961 . S
C1571 H1587 0.960 . S
H1572 C1556 0.931 . S
H1573 C1561 0.929 . S
H1574 C1562 0.960 . S
H1575 C1562 0.962 . S
H1576 C1562 0.960 . S
H1577 C1563 0.961 . S
H1578 C1563 0.961 . S
H1579 C1563 0.961 . S
H1580 C1564 0.931 . S
H1581 C1569 0.930 . S
H1582 C1570 0.956 . S
H1583 C1570 0.961 . S
H1584 C1570 0.961 . S
H1585 C1571 0.958 . S
H1586 C1571 0.961 . S
H1587 C1571 0.960 . S
C1588 C1589 1.391 1_556 S
C1588 C1590 1.394 . S
C1588 H1604 0.931 . S
C1589 C1588 1.391 1_554 S
C1589 C1593 1.376 . S
C1590 C1588 1.394 . S
C1590 C1591 1.369 . S
C1590 C1594 1.531 . S
C1591 C1590 1.369 . S
C1591 C1592 1.410 1_556 S
C1591 C1599 1.503 . S
C1592 C1591 1.410 1_554 S
C1592 C1593 1.392 . S
C1592 C1595 1.511 . S
C1593 C1589 1.376 . S
C1593 C1592 1.392 . S
C1593 H1605 0.929 . S
C1594 C1590 1.531 . S
C1594 H1606 0.960 . S
C1594 H1607 0.954 1_556 S
C1594 H1608 0.960 . S
C1595 C1592 1.511 . S
C1595 H1609 0.961 . S
C1595 H1610 0.961 . S
C1595 H1611 0.961 1_554 S
C1596 C1597 1.370 1_554 S
C1596 C1598 1.363 . S
C1596 H1612 0.931 . S
C1597 C1596 1.370 1_556 S
C1597 C1601 1.408 . S
C1598 C1596 1.363 . S
C1598 C1599 1.370 1_554 S
C1598 C1602 1.524 . S
C1599 C1591 1.503 . S
C1599 C1598 1.370 1_556 S
C1599 C1600 1.403 . S
C1600 C1599 1.403 . S
C1600 C1601 1.404 . S
C1600 C1603 1.539 . S
C1601 C1597 1.408 . S
C1601 C1600 1.404 . S
C1601 H1613 0.930 . S
C1602 C1598 1.524 . S
C1602 H1614 0.956 . S
C1602 H1615 0.961 . S
C1602 H1616 0.961 . S
C1603 C1600 1.539 . S
C1603 H1617 0.958 . S
C1603 H1618 0.961 . S
C1603 H1619 0.960 . S
H1604 C1588 0.931 . S
H1605 C1593 0.929 . S
H1606 C1594 0.960 . S
H1607 C1594 0.954 1_554 S
H1608 C1594 0.960 . S
H1609 C1595 0.961 . S
H1610 C1595 0.961 . S
H1611 C1595 0.961 1_556 S
H1612 C1596 0.931 . S
H1613 C1601 0.930 . S
H1614 C1602 0.956 . S
H1615 C1602 0.961 . S
H1616 C1602 0.961 . S
H1617 C1603 0.958 . S
H1618 C1603 0.961 . S
H1619 C1603 0.960 . S
C1620 C1621 1.391 . S
C1620 C1622 1.394 . S
C1620 H1636 0.931 . S
C1621 C1620 1.391 . S
C1621 C1625 1.377 1_554 S
C1622 C1620 1.394 . S
C1622 C1623 1.369 . S
C1622 C1626 1.531 . S
C1623 C1622 1.369 . S
C1623 C1624 1.410 . S
C1623 C1631 1.503 . S
C1624 C1623 1.410 . S
C1624 C1625 1.393 1_554 S
C1624 C1627 1.511 1_554 S
C1625 C1621 1.377 1_556 S
C1625 C1624 1.393 1_556 S
C1625 H1637 0.927 . S
C1626 C1622 1.531 . S
C1626 H1638 0.960 . S
C1626 H1639 0.962 . S
C1626 H1640 0.960 . S
C1627 C1624 1.511 1_556 S
C1627 H1641 0.961 . S
C1627 H1642 0.958 1_556 S
C1627 H1643 0.961 . S
C1628 C1629 1.370 . S
C1628 C1630 1.363 . S
C1628 H1644 0.931 . S
C1629 C1628 1.370 . S
C1629 C1633 1.408 . S
C1630 C1628 1.363 . S
C1630 C1631 1.370 . S
C1630 C1634 1.524 . S
C1631 C1623 1.503 . S
C1631 C1630 1.370 . S
C1631 C1632 1.403 . S
C1632 C1631 1.403 . S
C1632 C1633 1.404 . S
C1632 C1635 1.539 . S
C1633 C1629 1.408 . S
C1633 C1632 1.404 . S
C1633 H1645 0.930 . S
C1634 C1630 1.524 . S
C1634 H1646 0.956 . S
C1634 H1647 0.961 . S
C1634 H1648 0.961 . S
C1635 C1632 1.539 . S
C1635 H1649 0.958 . S
C1635 H1650 0.961 . S
C1635 H1651 0.960 . S
H1636 C1620 0.931 . S
H1637 C1625 0.927 . S
H1638 C1626 0.960 . S
H1639 C1626 0.962 . S
H1640 C1626 0.960 . S
H1641 C1627 0.961 . S
H1642 C1627 0.958 1_554 S
H1643 C1627 0.961 . S
H1644 C1628 0.931 . S
H1645 C1633 0.930 . S
H1646 C1634 0.956 . S
H1647 C1634 0.961 . S
H1648 C1634 0.961 . S
H1649 C1635 0.958 . S
H1650 C1635 0.961 . S
H1651 C1635 0.960 . S
C1652 C1653 1.391 . S
C1652 C1654 1.394 . S
C1652 H1668 0.931 . S
C1653 C1652 1.391 . S
C1653 C1657 1.376 . S
C1654 C1652 1.394 . S
C1654 C1655 1.369 . S
C1654 C1658 1.531 . S
C1655 C1654 1.369 . S
C1655 C1656 1.410 . S
C1655 C1663 1.503 . S
C1656 C1655 1.410 . S
C1656 C1657 1.392 . S
C1656 C1659 1.511 . S
C1657 C1653 1.376 . S
C1657 C1656 1.392 . S
C1657 H1669 0.929 . S
C1658 C1654 1.531 . S
C1658 H1670 0.960 1_554 S
C1658 H1671 0.962 . S
C1658 H1672 0.960 1_554 S
C1659 C1656 1.511 . S
C1659 H1673 0.961 . S
C1659 H1674 0.961 . S
C1659 H1675 0.961 . S
C1660 C1661 1.370 . S
C1660 C1662 1.363 . S
C1660 H1676 0.931 . S
C1661 C1660 1.370 . S
C1661 C1665 1.408 . S
C1662 C1660 1.363 . S
C1662 C1663 1.370 . S
C1662 C1666 1.524 . S
C1663 C1655 1.503 . S
C1663 C1662 1.370 . S
C1663 C1664 1.403 . S
C1664 C1663 1.403 . S
C1664 C1665 1.404 . S
C1664 C1667 1.539 . S
C1665 C1661 1.408 . S
C1665 C1664 1.404 . S
C1665 H1677 0.930 1_554 S
C1666 C1662 1.524 . S
C1666 H1678 0.956 . S
C1666 H1679 0.961 . S
C1666 H1680 0.961 . S
C1667 C1664 1.539 . S
C1667 H1681 0.958 1_554 S
C1667 H1682 0.961 . S
C1667 H1683 0.960 . S
H1668 C1652 0.931 . S
H1669 C1657 0.929 . S
H1670 C1658 0.960 1_556 S
H1671 C1658 0.962 . S
H1672 C1658 0.960 1_556 S
H1673 C1659 0.961 . S
H1674 C1659 0.961 . S
H1675 C1659 0.961 . S
H1676 C1660 0.931 . S
H1677 C1665 0.930 1_556 S
H1678 C1666 0.956 . S
H1679 C1666 0.961 . S
H1680 C1666 0.961 . S
H1681 C1667 0.958 1_556 S
H1682 C1667 0.961 . S
H1683 C1667 0.960 . S
C1684 C1685 1.391 . S
C1684 C1686 1.394 . S
C1684 H1700 0.931 . S
C1685 C1684 1.391 . S
C1685 C1689 1.376 . S
C1686 C1684 1.394 . S
C1686 C1687 1.369 . S
C1686 C1690 1.531 . S
C1687 C1686 1.369 . S
C1687 C1688 1.410 . S
C1687 C1695 1.503 . S
C1688 C1687 1.410 . S
C1688 C1689 1.392 . S
C1688 C1691 1.511 . S
C1689 C1685 1.376 . S
C1689 C1688 1.392 . S
C1689 H1701 0.929 . S
C1690 C1686 1.531 . S
C1690 H1702 0.960 . S
C1690 H1703 0.962 . S
C1690 H1704 0.960 . S
C1691 C1688 1.511 . S
C1691 H1705 0.961 . S
C1691 H1706 0.961 . S
C1691 H1707 0.958 1_554 S
C1692 C1693 1.370 . S
C1692 C1694 1.363 . S
C1692 H1708 0.931 . S
C1693 C1692 1.370 . S
C1693 C1697 1.408 . S
C1694 C1692 1.363 . S
C1694 C1695 1.370 . S
C1694 C1698 1.524 . S
C1695 C1687 1.503 . S
C1695 C1694 1.370 . S
C1695 C1696 1.403 . S
C1696 C1695 1.403 . S
C1696 C1697 1.404 . S
C1696 C1699 1.539 1_554 S
C1697 C1693 1.408 . S
C1697 C1696 1.404 . S
C1697 H1709 0.930 1_554 S
C1698 C1694 1.524 . S
C1698 H1710 0.956 . S
C1698 H1711 0.961 . S
C1698 H1712 0.961 . S
C1699 C1696 1.539 1_556 S
C1699 H1713 0.958 . S
C1699 H1714 0.961 . S
C1699 H1715 0.960 . S
H1700 C1684 0.931 . S
H1701 C1689 0.929 . S
H1702 C1690 0.960 . S
H1703 C1690 0.962 . S
H1704 C1690 0.960 . S
H1705 C1691 0.961 . S
H1706 C1691 0.961 . S
H1707 C1691 0.958 1_556 S
H1708 C1692 0.931 . S
H1709 C1697 0.930 1_556 S
H1710 C1698 0.956 . S
H1711 C1698 0.961 . S
H1712 C1698 0.961 . S
H1713 C1699 0.958 . S
H1714 C1699 0.961 . S
H1715 C1699 0.960 . S
C1716 C1717 1.391 . S
C1716 C1718 1.394 . S
C1716 H1732 0.931 . S
C1717 C1716 1.391 . S
C1717 C1721 1.376 . S
C1718 C1716 1.394 . S
C1718 C1719 1.369 . S
C1718 C1722 1.531 . S
C1719 C1718 1.369 . S
C1719 C1720 1.410 . S
C1719 C1727 1.503 . S
C1720 C1719 1.410 . S
C1720 C1721 1.392 . S
C1720 C1723 1.511 . S
C1721 C1717 1.376 . S
C1721 C1720 1.392 . S
C1721 H1733 0.929 . S
C1722 C1718 1.531 . S
C1722 H1734 0.960 . S
C1722 H1735 0.962 . S
C1722 H1736 0.960 . S
C1723 C1720 1.511 . S
C1723 H1737 0.961 . S
C1723 H1738 0.961 . S
C1723 H1739 0.961 . S
C1724 C1725 1.370 . S
C1724 C1726 1.363 . S
C1724 H1740 0.931 . S
C1725 C1724 1.370 . S
C1725 C1729 1.408 . S
C1726 C1724 1.363 . S
C1726 C1727 1.370 . S
C1726 C1730 1.524 . S
C1727 C1719 1.503 . S
C1727 C1726 1.370 . S
C1727 C1728 1.403 . S
C1728 C1727 1.403 . S
C1728 C1729 1.404 . S
C1728 C1731 1.539 . S
C1729 C1725 1.408 . S
C1729 C1728 1.404 . S
C1729 H1741 0.930 . S
C1730 C1726 1.524 . S
C1730 H1742 0.956 . S
C1730 H1743 0.961 . S
C1730 H1744 0.961 . S
C1731 C1728 1.539 . S
C1731 H1745 0.958 . S
C1731 H1746 0.961 . S
C1731 H1747 0.960 . S
H1732 C1716 0.931 . S
H1733 C1721 0.929 . S
H1734 C1722 0.960 . S
H1735 C1722 0.962 . S
H1736 C1722 0.960 . S
H1737 C1723 0.961 . S
H1738 C1723 0.961 . S
H1739 C1723 0.961 . S
H1740 C1724 0.931 . S
H1741 C1729 0.930 . S
H1742 C1730 0.956 . S
H1743 C1730 0.961 . S
H1744 C1730 0.961 . S
H1745 C1731 0.958 . S
H1746 C1731 0.961 . S
H1747 C1731 0.960 . S
C1748 C1749 1.391 . S
C1748 C1750 1.394 . S
C1748 H1764 0.931 . S
C1749 C1748 1.391 . S
C1749 C1753 1.376 . S
C1750 C1748 1.394 . S
C1750 C1751 1.369 . S
C1750 C1754 1.531 . S
C1751 C1750 1.369 . S
C1751 C1752 1.410 . S
C1751 C1759 1.503 . S
C1752 C1751 1.410 . S
C1752 C1753 1.392 . S
C1752 C1755 1.511 . S
C1753 C1749 1.376 . S
C1753 C1752 1.392 . S
C1753 H1765 0.929 . S
C1754 C1750 1.531 . S
C1754 H1766 0.960 . S
C1754 H1767 0.962 . S
C1754 H1768 0.960 . S
C1755 C1752 1.511 . S
C1755 H1769 0.961 . S
C1755 H1770 0.961 . S
C1755 H1771 0.961 . S
C1756 C1757 1.370 . S
C1756 C1758 1.363 . S
C1756 H1772 0.931 . S
C1757 C1756 1.370 . S
C1757 C1761 1.408 . S
C1758 C1756 1.363 . S
C1758 C1759 1.370 . S
C1758 C1762 1.524 . S
C1759 C1751 1.503 . S
C1759 C1758 1.370 . S
C1759 C1760 1.403 . S
C1760 C1759 1.403 . S
C1760 C1761 1.404 . S
C1760 C1763 1.539 . S
C1761 C1757 1.408 . S
C1761 C1760 1.404 . S
C1761 H1773 0.930 . S
C1762 C1758 1.524 . S
C1762 H1774 0.956 . S
C1762 H1775 0.961 . S
C1762 H1776 0.961 . S
C1763 C1760 1.539 . S
C1763 H1777 0.958 . S
C1763 H1778 0.961 . S
C1763 H1779 0.960 . S
H1764 C1748 0.931 . S
H1765 C1753 0.929 . S
H1766 C1754 0.960 . S
H1767 C1754 0.962 . S
H1768 C1754 0.960 . S
H1769 C1755 0.961 . S
H1770 C1755 0.961 . S
H1771 C1755 0.961 . S
H1772 C1756 0.931 . S
H1773 C1761 0.930 . S
H1774 C1762 0.956 . S
H1775 C1762 0.961 . S
H1776 C1762 0.961 . S
H1777 C1763 0.958 . S
H1778 C1763 0.961 . S
H1779 C1763 0.960 . S
C1780 C1781 1.391 . S
C1780 C1782 1.394 . S
C1780 H1796 0.931 . S
C1781 C1780 1.391 . S
C1781 C1785 1.376 . S
C1782 C1780 1.394 . S
C1782 C1783 1.369 . S
C1782 C1786 1.531 . S
C1783 C1782 1.369 . S
C1783 C1784 1.410 . S
C1783 C1791 1.503 . S
C1784 C1783 1.410 . S
C1784 C1785 1.392 . S
C1784 C1787 1.511 . S
C1785 C1781 1.376 . S
C1785 C1784 1.392 . S
C1785 H1797 0.929 . S
C1786 C1782 1.531 . S
C1786 H1798 0.960 . S
C1786 H1799 0.962 . S
C1786 H1800 0.960 . S
C1787 C1784 1.511 . S
C1787 H1801 0.961 . S
C1787 H1802 0.961 . S
C1787 H1803 0.961 . S
C1788 C1789 1.370 . S
C1788 C1790 1.363 . S
C1788 H1804 0.931 . S
C1789 C1788 1.370 . S
C1789 C1793 1.408 . S
C1790 C1788 1.363 . S
C1790 C1791 1.370 . S
C1790 C1794 1.524 . S
C1791 C1783 1.503 . S
C1791 C1790 1.370 . S
C1791 C1792 1.403 . S
C1792 C1791 1.403 . S
C1792 C1793 1.404 . S
C1792 C1795 1.539 . S
C1793 C1789 1.408 . S
C1793 C1792 1.404 . S
C1793 H1805 0.930 . S
C1794 C1790 1.524 . S
C1794 H1806 0.956 . S
C1794 H1807 0.961 . S
C1794 H1808 0.961 . S
C1795 C1792 1.539 . S
C1795 H1809 0.958 . S
C1795 H1810 0.961 . S
C1795 H1811 0.960 . S
H1796 C1780 0.931 . S
H1797 C1785 0.929 . S
H1798 C1786 0.960 . S
H1799 C1786 0.962 . S
H1800 C1786 0.960 . S
H1801 C1787 0.961 . S
H1802 C1787 0.961 . S
H1803 C1787 0.961 . S
H1804 C1788 0.931 . S
H1805 C1793 0.930 . S
H1806 C1794 0.956 . S
H1807 C1794 0.961 . S
H1808 C1794 0.961 . S
H1809 C1795 0.958 . S
H1810 C1795 0.961 . S
H1811 C1795 0.960 . S
C1812 C1813 1.391 . S
C1812 C1814 1.394 . S
C1812 H1828 0.931 . S
C1813 C1812 1.391 . S
C1813 C1817 1.376 . S
C1814 C1812 1.394 . S
C1814 C1815 1.369 . S
C1814 C1818 1.531 . S
C1815 C1814 1.369 . S
C1815 C1816 1.410 . S
C1815 C1823 1.503 . S
C1816 C1815 1.410 . S
C1816 C1817 1.392 . S
C1816 C1819 1.511 . S
C1817 C1813 1.376 . S
C1817 C1816 1.392 . S
C1817 H1829 0.929 1_556 S
C1818 C1814 1.531 . S
C1818 H1830 0.960 . S
C1818 H1831 0.962 . S
C1818 H1832 0.960 . S
C1819 C1816 1.511 . S
C1819 H1833 0.961 1_556 S
C1819 H1834 0.961 . S
C1819 H1835 0.961 . S
C1820 C1821 1.370 . S
C1820 C1822 1.363 . S
C1820 H1836 0.931 . S
C1821 C1820 1.370 . S
C1821 C1825 1.408 . S
C1822 C1820 1.363 . S
C1822 C1823 1.370 . S
C1822 C1826 1.524 . S
C1823 C1815 1.503 . S
C1823 C1822 1.370 . S
C1823 C1824 1.403 . S
C1824 C1823 1.403 . S
C1824 C1825 1.404 . S
C1824 C1827 1.539 . S
C1825 C1821 1.408 . S
C1825 C1824 1.404 . S
C1825 H1837 0.930 . S
C1826 C1822 1.524 . S
C1826 H1838 0.956 . S
C1826 H1839 0.961 . S
C1826 H1840 0.961 . S
C1827 C1824 1.539 . S
C1827 H1841 0.958 . S
C1827 H1842 0.961 . S
C1827 H1843 0.960 . S
H1828 C1812 0.931 . S
H1829 C1817 0.929 1_554 S
H1830 C1818 0.960 . S
H1831 C1818 0.962 . S
H1832 C1818 0.960 . S
H1833 C1819 0.961 1_554 S
H1834 C1819 0.961 . S
H1835 C1819 0.961 . S
H1836 C1820 0.931 . S
H1837 C1825 0.930 . S
H1838 C1826 0.956 . S
H1839 C1826 0.961 . S
H1840 C1826 0.961 . S
H1841 C1827 0.958 . S
H1842 C1827 0.961 . S
H1843 C1827 0.960 . S
C1844 C1845 1.391 . S
C1844 C1846 1.394 . S
C1844 H1860 0.931 . S
C1845 C1844 1.391 . S
C1845 C1849 1.376 . S
C1846 C1844 1.394 . S
C1846 C1847 1.369 . S
C1846 C1850 1.531 . S
C1847 C1846 1.369 . S
C1847 C1848 1.410 . S
C1847 C1855 1.503 . S
C1848 C1847 1.410 . S
C1848 C1849 1.392 . S
C1848 C1851 1.511 . S
C1849 C1845 1.376 . S
C1849 C1848 1.392 . S
C1849 H1861 0.929 . S
C1850 C1846 1.531 . S
C1850 H1862 0.960 . S
C1850 H1863 0.962 . S
C1850 H1864 0.960 . S
C1851 C1848 1.511 . S
C1851 H1865 0.961 . S
C1851 H1866 0.961 . S
C1851 H1867 0.961 . S
C1852 C1853 1.370 . S
C1852 C1854 1.363 . S
C1852 H1868 0.931 . S
C1853 C1852 1.370 . S
C1853 C1857 1.408 1_556 S
C1854 C1852 1.363 . S
C1854 C1855 1.370 . S
C1854 C1858 1.524 . S
C1855 C1847 1.503 . S
C1855 C1854 1.370 . S
C1855 C1856 1.403 . S
C1856 C1855 1.403 . S
C1856 C1857 1.404 1_556 S
C1856 C1859 1.539 1_556 S
C1857 C1853 1.408 1_554 S
C1857 C1856 1.404 1_554 S
C1857 H1869 0.930 . S
C1858 C1854 1.524 . S
C1858 H1870 0.956 . S
C1858 H1871 0.961 . S
C1858 H1872 0.961 . S
C1859 C1856 1.539 1_554 S
C1859 H1873 0.958 . S
C1859 H1874 0.961 . S
C1859 H1875 0.960 . S
H1860 C1844 0.931 . S
H1861 C1849 0.929 . S
H1862 C1850 0.960 . S
H1863 C1850 0.962 . S
H1864 C1850 0.960 . S
H1865 C1851 0.961 . S
H1866 C1851 0.961 . S
H1867 C1851 0.961 . S
H1868 C1852 0.931 . S
H1869 C1857 0.930 . S
H1870 C1858 0.956 . S
H1871 C1858 0.961 . S
H1872 C1858 0.961 . S
H1873 C1859 0.958 . S
H1874 C1859 0.961 . S
H1875 C1859 0.960 . S
C1876 C1877 1.391 . S
C1876 C1878 1.394 . S
C1876 H1892 0.931 . S
C1877 C1876 1.391 . S
C1877 C1881 1.386 . S
C1878 C1876 1.394 . S
C1878 C1879 1.369 . S
C1878 C1882 1.531 . S
C1879 C1878 1.369 . S
C1879 C1880 1.410 . S
C1879 C1887 1.503 . S
C1880 C1879 1.410 . S
C1880 C1881 1.398 . S
C1880 C1883 1.511 1_556 S
C1881 C1877 1.386 . S
C1881 C1880 1.398 . S
C1881 H1893 0.913 1_556 S
C1882 C1878 1.531 . S
C1882 H1894 0.960 . S
C1882 H1895 0.962 . S
C1882 H1896 0.960 . S
C1883 C1880 1.511 1_554 S
C1883 H1897 0.961 . S
C1883 H1898 0.961 1_554 S
C1883 H1899 0.961 . S
C1884 C1885 1.370 . S
C1884 C1886 1.363 . S
C1884 H1900 0.931 . S
C1885 C1884 1.370 . S
C1885 C1889 1.408 . S
C1886 C1884 1.363 . S
C1886 C1887 1.370 . S
C1886 C1890 1.524 . S
C1887 C1879 1.503 . S
C1887 C1886 1.370 . S
C1887 C1888 1.403 . S
C1888 C1887 1.403 . S
C1888 C1889 1.404 . S
C1888 C1891 1.539 . S
C1889 C1885 1.408 . S
C1889 C1888 1.404 . S
C1889 H1901 0.930 . S
C1890 C1886 1.524 . S
C1890 H1902 0.956 . S
C1890 H1903 0.961 . S
C1890 H1904 0.961 . S
C1891 C1888 1.539 . S
C1891 H1905 0.958 . S
C1891 H1906 0.961 . S
C1891 H1907 0.960 . S
H1892 C1876 0.931 . S
H1893 C1881 0.913 1_554 S
H1894 C1882 0.960 . S
H1895 C1882 0.962 . S
H1896 C1882 0.960 . S
H1897 C1883 0.961 . S
H1898 C1883 0.961 1_556 S
H1899 C1883 0.961 . S
H1900 C1884 0.931 . S
H1901 C1889 0.930 . S
H1902 C1890 0.956 . S
H1903 C1890 0.961 . S
H1904 C1890 0.961 . S
H1905 C1891 0.958 . S
H1906 C1891 0.961 . S
H1907 C1891 0.960 . S
C1908 C1909 1.391 . S
C1908 C1910 1.394 . S
C1908 H1924 0.931 . S
C1909 C1908 1.391 . S
C1909 C1913 1.376 . S
C1910 C1908 1.394 . S
C1910 C1911 1.369 . S
C1910 C1914 1.531 . S
C1911 C1910 1.369 . S
C1911 C1912 1.410 . S
C1911 C1919 1.503 . S
C1912 C1911 1.410 . S
C1912 C1913 1.392 . S
C1912 C1915 1.511 . S
C1913 C1909 1.376 . S
C1913 C1912 1.392 . S
C1913 H1925 0.929 . S
C1914 C1910 1.531 . S
C1914 H1926 0.960 . S
C1914 H1927 0.962 . S
C1914 H1928 0.960 . S
C1915 C1912 1.511 . S
C1915 H1929 0.961 . S
C1915 H1930 0.961 . S
C1915 H1931 0.961 . S
C1916 C1917 1.370 . S
C1916 C1918 1.363 . S
C1916 H1932 0.931 . S
C1917 C1916 1.370 . S
C1917 C1921 1.408 . S
C1918 C1916 1.363 . S
C1918 C1919 1.370 . S
C1918 C1922 1.524 . S
C1919 C1911 1.503 . S
C1919 C1918 1.370 . S
C1919 C1920 1.403 . S
C1920 C1919 1.403 . S
C1920 C1921 1.404 . S
C1920 C1923 1.539 . S
C1921 C1917 1.408 . S
C1921 C1920 1.404 . S
C1921 H1933 0.930 . S
C1922 C1918 1.524 . S
C1922 H1934 0.956 . S
C1922 H1935 0.961 . S
C1922 H1936 0.961 . S
C1923 C1920 1.539 . S
C1923 H1937 0.958 . S
C1923 H1938 0.961 . S
C1923 H1939 0.960 . S
H1924 C1908 0.931 . S
H1925 C1913 0.929 . S
H1926 C1914 0.960 . S
H1927 C1914 0.962 . S
H1928 C1914 0.960 . S
H1929 C1915 0.961 . S
H1930 C1915 0.961 . S
H1931 C1915 0.961 . S
H1932 C1916 0.931 . S
H1933 C1921 0.930 . S
H1934 C1922 0.956 . S
H1935 C1922 0.961 . S
H1936 C1922 0.961 . S
H1937 C1923 0.958 . S
H1938 C1923 0.961 . S
H1939 C1923 0.960 . S
C1940 C1941 1.391 . S
C1940 C1942 1.394 . S
C1940 H1956 0.931 . S
C1941 C1940 1.391 . S
C1941 C1945 1.376 . S
C1942 C1940 1.394 . S
C1942 C1943 1.369 . S
C1942 C1946 1.531 . S
C1943 C1942 1.369 . S
C1943 C1944 1.410 . S
C1943 C1951 1.503 . S
C1944 C1943 1.410 . S
C1944 C1945 1.392 . S
C1944 C1947 1.511 . S
C1945 C1941 1.376 . S
C1945 C1944 1.392 . S
C1945 H1957 0.929 . S
C1946 C1942 1.531 . S
C1946 H1958 0.960 . S
C1946 H1959 0.962 . S
C1946 H1960 0.960 . S
C1947 C1944 1.511 . S
C1947 H1961 0.961 . S
C1947 H1962 0.961 . S
C1947 H1963 0.961 . S
C1948 C1949 1.370 . S
C1948 C1950 1.363 . S
C1948 H1964 0.931 . S
C1949 C1948 1.370 . S
C1949 C1953 1.408 . S
C1950 C1948 1.363 . S
C1950 C1951 1.370 . S
C1950 C1954 1.524 . S
C1951 C1943 1.503 . S
C1951 C1950 1.370 . S
C1951 C1952 1.403 . S
C1952 C1951 1.403 . S
C1952 C1953 1.404 . S
C1952 C1955 1.539 . S
C1953 C1949 1.408 . S
C1953 C1952 1.404 . S
C1953 H1965 0.930 . S
C1954 C1950 1.524 . S
C1954 H1966 0.956 . S
C1954 H1967 0.961 . S
C1954 H1968 0.961 . S
C1955 C1952 1.539 . S
C1955 H1969 0.958 . S
C1955 H1970 0.961 . S
C1955 H1971 0.960 . S
H1956 C1940 0.931 . S
H1957 C1945 0.929 . S
H1958 C1946 0.960 . S
H1959 C1946 0.962 . S
H1960 C1946 0.960 . S
H1961 C1947 0.961 . S
H1962 C1947 0.961 . S
H1963 C1947 0.961 . S
H1964 C1948 0.931 . S
H1965 C1953 0.930 . S
H1966 C1954 0.956 . S
H1967 C1954 0.961 . S
H1968 C1954 0.961 . S
H1969 C1955 0.958 . S
H1970 C1955 0.961 . S
H1971 C1955 0.960 . S
C1972 C1973 1.391 . S
C1972 C1974 1.394 . S
C1972 H1988 0.931 . S
C1973 C1972 1.391 . S
C1973 C1977 1.376 . S
C1974 C1972 1.394 . S
C1974 C1975 1.369 . S
C1974 C1978 1.531 . S
C1975 C1974 1.369 . S
C1975 C1976 1.410 . S
C1975 C1983 1.503 . S
C1976 C1975 1.410 . S
C1976 C1977 1.392 . S
C1976 C1979 1.511 . S
C1977 C1973 1.376 . S
C1977 C1976 1.392 . S
C1977 H1989 0.929 . S
C1978 C1974 1.531 . S
C1978 H1990 0.960 . S
C1978 H1991 0.962 . S
C1978 H1992 0.960 . S
C1979 C1976 1.511 . S
C1979 H1993 0.961 . S
C1979 H1994 0.961 . S
C1979 H1995 0.961 . S
C1980 C1981 1.370 . S
C1980 C1982 1.363 . S
C1980 H1996 0.931 . S
C1981 C1980 1.370 . S
C1981 C1985 1.408 . S
C1982 C1980 1.363 . S
C1982 C1983 1.370 . S
C1982 C1986 1.524 . S
C1983 C1975 1.503 . S
C1983 C1982 1.370 . S
C1983 C1984 1.403 . S
C1984 C1983 1.403 . S
C1984 C1985 1.404 . S
C1984 C1987 1.539 . S
C1985 C1981 1.408 . S
C1985 C1984 1.404 . S
C1985 H1997 0.930 . S
C1986 C1982 1.524 . S
C1986 H1998 0.956 . S
C1986 H1999 0.961 . S
C1986 H2000 0.961 . S
C1987 C1984 1.539 . S
C1987 H2001 0.958 . S
C1987 H2002 0.961 . S
C1987 H2003 0.960 . S
H1988 C1972 0.931 . S
H1989 C1977 0.929 . S
H1990 C1978 0.960 . S
H1991 C1978 0.962 . S
H1992 C1978 0.960 . S
H1993 C1979 0.961 . S
H1994 C1979 0.961 . S
H1995 C1979 0.961 . S
H1996 C1980 0.931 . S
H1997 C1985 0.930 . S
H1998 C1986 0.956 . S
H1999 C1986 0.961 . S
H2000 C1986 0.961 . S
H2001 C1987 0.958 . S
H2002 C1987 0.961 . S
H2003 C1987 0.960 . S
C2004 C2005 1.391 . S
C2004 C2006 1.394 . S
C2004 H2020 0.931 . S
C2005 C2004 1.391 . S
C2005 C2009 1.376 . S
C2006 C2004 1.394 . S
C2006 C2007 1.369 . S
C2006 C2010 1.531 . S
C2007 C2006 1.369 . S
C2007 C2008 1.410 . S
C2007 C2015 1.503 . S
C2008 C2007 1.410 . S
C2008 C2009 1.392 . S
C2008 C2011 1.511 . S
C2009 C2005 1.376 . S
C2009 C2008 1.392 . S
C2009 H2021 0.929 . S
C2010 C2006 1.531 . S
C2010 H2022 0.960 . S
C2010 H2023 0.962 . S
C2010 H2024 0.960 . S
C2011 C2008 1.511 . S
C2011 H2025 0.961 . S
C2011 H2026 0.961 . S
C2011 H2027 0.961 . S
C2012 C2013 1.370 . S
C2012 C2014 1.363 . S
C2012 H2028 0.931 . S
C2013 C2012 1.370 . S
C2013 C2017 1.408 . S
C2014 C2012 1.363 . S
C2014 C2015 1.370 . S
C2014 C2018 1.524 . S
C2015 C2007 1.503 . S
C2015 C2014 1.370 . S
C2015 C2016 1.403 . S
C2016 C2015 1.403 . S
C2016 C2017 1.404 . S
C2016 C2019 1.539 . S
C2017 C2013 1.408 . S
C2017 C2016 1.404 . S
C2017 H2029 0.930 . S
C2018 C2014 1.524 . S
C2018 H2030 0.956 . S
C2018 H2031 0.961 . S
C2018 H2032 0.961 . S
C2019 C2016 1.539 . S
C2019 H2033 0.958 . S
C2019 H2034 0.961 . S
C2019 H2035 0.960 . S
H2020 C2004 0.931 . S
H2021 C2009 0.929 . S
H2022 C2010 0.960 . S
H2023 C2010 0.962 . S
H2024 C2010 0.960 . S
H2025 C2011 0.961 . S
H2026 C2011 0.961 . S
H2027 C2011 0.961 . S
H2028 C2012 0.931 . S
H2029 C2017 0.930 . S
H2030 C2018 0.956 . S
H2031 C2018 0.961 . S
H2032 C2018 0.961 . S
H2033 C2019 0.958 . S
H2034 C2019 0.961 . S
H2035 C2019 0.960 . S
C2036 C2037 1.391 . S
C2036 C2038 1.394 . S
C2036 H2052 0.931 . S
C2037 C2036 1.391 . S
C2037 C2041 1.376 . S
C2038 C2036 1.394 . S
C2038 C2039 1.369 . S
C2038 C2042 1.480 1_565 S
C2039 C2038 1.369 . S
C2039 C2040 1.410 . S
C2039 C2047 1.503 1_565 S
C2040 C2039 1.410 . S
C2040 C2041 1.392 . S
C2040 C2043 1.511 . S
C2041 C2037 1.376 . S
C2041 C2040 1.392 . S
C2041 H2053 0.929 . S
C2042 C2038 1.480 1_545 S
C2042 H2054 1.008 . S
C2042 H2055 1.014 . S
C2042 H2056 0.919 1_545 S
C2043 C2040 1.511 . S
C2043 H2057 0.961 . S
C2043 H2058 0.961 . S
C2043 H2059 0.961 . S
C2044 C2045 1.370 . S
C2044 C2046 1.363 . S
C2044 H2060 0.931 . S
C2045 C2044 1.370 . S
C2045 C2049 1.408 . S
C2046 C2044 1.363 . S
C2046 C2047 1.370 . S
C2046 C2050 1.524 . S
C2047 C2039 1.503 1_545 S
C2047 C2046 1.370 . S
C2047 C2048 1.403 . S
C2048 C2047 1.403 . S
C2048 C2049 1.404 . S
C2048 C2051 1.539 . S
C2049 C2045 1.408 . S
C2049 C2048 1.404 . S
C2049 H2061 0.930 . S
C2050 C2046 1.524 . S
C2050 H2062 0.947 1_545 S
C2050 H2063 0.961 1_545 S
C2050 H2064 0.961 . S
C2051 C2048 1.539 . S
C2051 H2065 0.958 . S
C2051 H2066 0.961 . S
C2051 H2067 0.960 1_545 S
H2052 C2036 0.931 . S
H2053 C2041 0.929 . S
H2054 C2042 1.008 . S
H2055 C2042 1.014 . S
H2056 C2042 0.919 1_565 S
H2057 C2043 0.961 . S
H2058 C2043 0.961 . S
H2059 C2043 0.961 . S
H2060 C2044 0.931 . S
H2061 C2049 0.930 . S
H2062 C2050 0.947 1_565 S
H2063 C2050 0.961 1_565 S
H2064 C2050 0.961 . S
H2065 C2051 0.958 . S
H2066 C2051 0.961 . S
H2067 C2051 0.960 1_565 S
C2068 C2069 1.391 . S
C2068 C2070 1.394 . S
C2068 H2084 0.931 . S
C2069 C2068 1.391 . S
C2069 C2073 1.376 . S
C2070 C2068 1.394 . S
C2070 C2071 1.369 . S
C2070 C2074 1.531 . S
C2071 C2070 1.369 . S
C2071 C2072 1.410 . S
C2071 C2079 1.503 1_455 S
C2072 C2071 1.410 . S
C2072 C2073 1.392 . S
C2072 C2075 1.533 . S
C2073 C2069 1.376 . S
C2073 C2072 1.392 . S
C2073 H2085 0.929 . S
C2074 C2070 1.531 . S
C2074 H2086 0.960 1_455 S
C2074 H2087 0.962 . S
C2074 H2088 0.960 . S
C2075 C2072 1.533 . S
C2075 H2089 0.967 . S
C2075 H2090 0.941 1_455 S
C2075 H2091 0.953 1_455 S
C2076 C2077 1.370 . S
C2076 C2078 1.363 . S
C2076 H2092 0.931 . S
C2077 C2076 1.370 . S
C2077 C2081 1.408 . S
C2078 C2076 1.363 . S
C2078 C2079 1.370 . S
C2078 C2082 1.524 1_655 S
C2079 C2071 1.503 1_655 S
C2079 C2078 1.370 . S
C2079 C2080 1.403 . S
C2080 C2079 1.403 . S
C2080 C2081 1.404 . S
C2080 C2083 1.539 . S
C2081 C2077 1.408 . S
C2081 C2080 1.404 . S
C2081 H2093 0.930 . S
C2082 C2078 1.524 1_455 S
C2082 H2094 0.956 . S
C2082 H2095 0.961 . S
C2082 H2096 0.961 1_455 S
C2083 C2080 1.539 . S
C2083 H2097 0.958 . S
C2083 H2098 0.961 . S
C2083 H2099 0.960 . S
H2084 C2068 0.931 . S
H2085 C2073 0.929 . S
H2086 C2074 0.960 1_655 S
H2087 C2074 0.962 . S
H2088 C2074 0.960 . S
H2089 C2075 0.967 . S
H2090 C2075 0.941 1_655 S
H2091 C2075 0.953 1_655 S
H2092 C2076 0.931 . S
H2093 C2081 0.930 . S
H2094 C2082 0.956 . S
H2095 C2082 0.961 . S
H2096 C2082 0.961 1_655 S
H2097 C2083 0.958 . S
H2098 C2083 0.961 . S
H2099 C2083 0.960 . S
C2100 C2101 1.391 . S
C2100 C2102 1.394 . S
C2100 H2116 0.931 . S
C2101 C2100 1.391 . S
C2101 C2105 1.376 . S
C2102 C2100 1.394 . S
C2102 C2103 1.369 . S
C2102 C2106 1.531 . S
C2103 C2102 1.369 . S
C2103 C2104 1.410 . S
C2103 C2111 1.503 . S
C2104 C2103 1.410 . S
C2104 C2105 1.392 . S
C2104 C2107 1.511 . S
C2105 C2101 1.376 . S
C2105 C2104 1.392 . S
C2105 H2117 0.929 . S
C2106 C2102 1.531 . S
C2106 H2118 0.960 . S
C2106 H2119 0.962 . S
C2106 H2120 0.960 . S
C2107 C2104 1.511 . S
C2107 H2121 0.961 . S
C2107 H2122 0.961 . S
C2107 H2123 0.961 . S
C2108 C2109 1.370 . S
C2108 C2110 1.363 . S
C2108 H2124 0.931 . S
C2109 C2108 1.370 . S
C2109 C2113 1.408 . S
C2110 C2108 1.363 . S
C2110 C2111 1.370 . S
C2110 C2114 1.524 . S
C2111 C2103 1.503 . S
C2111 C2110 1.370 . S
C2111 C2112 1.403 . S
C2112 C2111 1.403 . S
C2112 C2113 1.404 . S
C2112 C2115 1.539 . S
C2113 C2109 1.408 . S
C2113 C2112 1.404 . S
C2113 H2125 0.930 . S
C2114 C2110 1.524 . S
C2114 H2126 0.956 . S
C2114 H2127 0.961 . S
C2114 H2128 0.961 . S
C2115 C2112 1.539 . S
C2115 H2129 0.958 . S
C2115 H2130 0.961 . S
C2115 H2131 0.960 . S
H2116 C2100 0.931 . S
H2117 C2105 0.929 . S
H2118 C2106 0.960 . S
H2119 C2106 0.962 . S
H2120 C2106 0.960 . S
H2121 C2107 0.961 . S
H2122 C2107 0.961 . S
H2123 C2107 0.961 . S
H2124 C2108 0.931 . S
H2125 C2113 0.930 . S
H2126 C2114 0.956 . S
H2127 C2114 0.961 . S
H2128 C2114 0.961 . S
H2129 C2115 0.958 . S
H2130 C2115 0.961 . S
H2131 C2115 0.960 . S
C2132 C2133 1.391 . S
C2132 C2134 1.394 . S
C2132 H2148 0.931 . S
C2133 C2132 1.391 . S
C2133 C2137 1.376 . S
C2134 C2132 1.394 . S
C2134 C2135 1.369 . S
C2134 C2138 1.531 . S
C2135 C2134 1.369 . S
C2135 C2136 1.410 . S
C2135 C2143 1.503 1_565 S
C2136 C2135 1.410 . S
C2136 C2137 1.392 . S
C2136 C2139 1.511 . S
C2137 C2133 1.376 . S
C2137 C2136 1.392 . S
C2137 H2149 0.929 . S
C2138 C2134 1.531 . S
C2138 H2150 0.960 1_565 S
C2138 H2151 0.962 1_565 S
C2138 H2152 0.960 . S
C2139 C2136 1.511 . S
C2139 H2153 0.961 . S
C2139 H2154 0.961 1_565 S
C2139 H2155 0.961 . S
C2140 C2141 1.370 . S
C2140 C2142 1.363 . S
C2140 H2156 0.931 . S
C2141 C2140 1.370 . S
C2141 C2145 1.408 . S
C2142 C2140 1.363 . S
C2142 C2143 1.370 . S
C2142 C2146 1.524 . S
C2143 C2135 1.503 1_545 S
C2143 C2142 1.370 . S
C2143 C2144 1.403 . S
C2144 C2143 1.403 . S
C2144 C2145 1.404 . S
C2144 C2147 1.534 . S
C2145 C2141 1.408 . S
C2145 C2144 1.404 . S
C2145 H2157 0.930 . S
C2146 C2142 1.524 . S
C2146 H2158 0.956 . S
C2146 H2159 0.961 . S
C2146 H2160 0.961 . S
C2147 C2144 1.534 . S
C2147 H2161 0.963 1_545 S
C2147 H2162 0.956 . S
C2147 H2163 0.965 1_545 S
H2148 C2132 0.931 . S
H2149 C2137 0.929 . S
H2150 C2138 0.960 1_545 S
H2151 C2138 0.962 1_545 S
H2152 C2138 0.960 . S
H2153 C2139 0.961 . S
H2154 C2139 0.961 1_545 S
H2155 C2139 0.961 . S
H2156 C2140 0.931 . S
H2157 C2145 0.930 . S
H2158 C2146 0.956 . S
H2159 C2146 0.961 . S
H2160 C2146 0.961 . S
H2161 C2147 0.963 1_565 S
H2162 C2147 0.956 . S
H2163 C2147 0.965 1_565 S
C2164 C2165 1.391 . S
C2164 C2166 1.394 . S
C2164 H2180 0.931 . S
C2165 C2164 1.391 . S
C2165 C2169 1.376 . S
C2166 C2164 1.394 . S
C2166 C2167 1.369 . S
C2166 C2170 1.531 . S
C2167 C2166 1.369 . S
C2167 C2168 1.410 . S
C2167 C2175 1.503 1_455 S
C2168 C2167 1.410 . S
C2168 C2169 1.392 . S
C2168 C2171 1.511 . S
C2169 C2165 1.376 . S
C2169 C2168 1.392 . S
C2169 H2181 0.929 . S
C2170 C2166 1.531 . S
C2170 H2182 0.960 1_455 S
C2170 H2183 0.962 . S
C2170 H2184 0.960 . S
C2171 C2168 1.511 . S
C2171 H2185 0.961 . S
C2171 H2186 0.961 . S
C2171 H2187 0.961 . S
C2172 C2173 1.370 . S
C2172 C2174 1.363 . S
C2172 H2188 0.931 . S
C2173 C2172 1.370 . S
C2173 C2177 1.408 . S
C2174 C2172 1.363 . S
C2174 C2175 1.370 . S
C2174 C2178 1.524 1_655 S
C2175 C2167 1.503 1_655 S
C2175 C2174 1.370 . S
C2175 C2176 1.403 . S
C2176 C2175 1.403 . S
C2176 C2177 1.404 . S
C2176 C2179 1.539 . S
C2177 C2173 1.408 . S
C2177 C2176 1.404 . S
C2177 H2189 0.930 . S
C2178 C2174 1.524 1_455 S
C2178 H2190 0.956 . S
C2178 H2191 0.961 . S
C2178 H2192 0.961 . S
C2179 C2176 1.539 . S
C2179 H2193 0.958 . S
C2179 H2194 0.961 . S
C2179 H2195 0.960 . S
H2180 C2164 0.931 . S
H2181 C2169 0.929 . S
H2182 C2170 0.960 1_655 S
H2183 C2170 0.962 . S
H2184 C2170 0.960 . S
H2185 C2171 0.961 . S
H2186 C2171 0.961 . S
H2187 C2171 0.961 . S
H2188 C2172 0.931 . S
H2189 C2177 0.930 . S
H2190 C2178 0.956 . S
H2191 C2178 0.961 . S
H2192 C2178 0.961 . S
H2193 C2179 0.958 . S
H2194 C2179 0.961 . S
H2195 C2179 0.960 . S
C2196 C2197 1.391 . S
C2196 C2198 1.394 1_554 S
C2196 H2212 0.931 . S
C2197 C2196 1.391 . S
C2197 C2201 1.376 . S
C2198 C2196 1.394 1_556 S
C2198 C2199 1.369 . S
C2198 C2202 1.531 . S
C2199 C2198 1.369 . S
C2199 C2200 1.410 . S
C2199 C2207 1.503 . S
C2200 C2199 1.410 . S
C2200 C2201 1.392 1_556 S
C2200 C2203 1.511 . S
C2201 C2197 1.376 . S
C2201 C2200 1.392 1_554 S
C2201 H2213 0.929 . S
C2202 C2198 1.531 . S
C2202 H2214 0.960 . S
C2202 H2215 0.962 . S
C2202 H2216 0.960 . S
C2203 C2200 1.511 . S
C2203 H2217 0.961 . S
C2203 H2218 0.961 . S
C2203 H2219 0.961 . S
C2204 C2205 1.370 . S
C2204 C2206 1.363 . S
C2204 H2220 0.931 . S
C2205 C2204 1.370 . S
C2205 C2209 1.408 . S
C2206 C2204 1.363 . S
C2206 C2207 1.370 . S
C2206 C2210 1.524 . S
C2207 C2199 1.503 . S
C2207 C2206 1.370 . S
C2207 C2208 1.403 . S
C2208 C2207 1.403 . S
C2208 C2209 1.404 . S
C2208 C2211 1.539 . S
C2209 C2205 1.408 . S
C2209 C2208 1.404 . S
C2209 H2221 0.930 . S
C2210 C2206 1.524 . S
C2210 H2222 0.956 . S
C2210 H2223 0.961 . S
C2210 H2224 0.961 . S
C2211 C2208 1.539 . S
C2211 H2225 0.958 . S
C2211 H2226 0.961 . S
C2211 H2227 0.960 . S
H2212 C2196 0.931 . S
H2213 C2201 0.929 . S
H2214 C2202 0.960 . S
H2215 C2202 0.962 . S
H2216 C2202 0.960 . S
H2217 C2203 0.961 . S
H2218 C2203 0.961 . S
H2219 C2203 0.961 . S
H2220 C2204 0.931 . S
H2221 C2209 0.930 . S
H2222 C2210 0.956 . S
H2223 C2210 0.961 . S
H2224 C2210 0.961 . S
H2225 C2211 0.958 . S
H2226 C2211 0.961 . S
H2227 C2211 0.960 . S
C2228 C2229 1.391 . S
C2228 C2230 1.394 1_554 S
C2228 H2244 0.931 . S
C2229 C2228 1.391 . S
C2229 C2233 1.376 . S
C2230 C2228 1.394 1_556 S
C2230 C2231 1.369 . S
C2230 C2234 1.531 . S
C2231 C2230 1.369 . S
C2231 C2232 1.410 . S
C2231 C2239 1.503 . S
C2232 C2231 1.410 . S
C2232 C2233 1.392 1_556 S
C2232 C2235 1.511 . S
C2233 C2229 1.376 . S
C2233 C2232 1.392 1_554 S
C2233 H2245 0.929 . S
C2234 C2230 1.531 . S
C2234 H2246 0.960 . S
C2234 H2247 0.962 . S
C2234 H2248 0.960 . S
C2235 C2232 1.511 . S
C2235 H2249 0.961 . S
C2235 H2250 0.961 . S
C2235 H2251 0.961 . S
C2236 C2237 1.370 . S
C2236 C2238 1.363 . S
C2236 H2252 0.931 . S
C2237 C2236 1.370 . S
C2237 C2241 1.408 . S
C2238 C2236 1.363 . S
C2238 C2239 1.370 . S
C2238 C2242 1.524 . S
C2239 C2231 1.503 . S
C2239 C2238 1.370 . S
C2239 C2240 1.403 . S
C2240 C2239 1.403 . S
C2240 C2241 1.404 . S
C2240 C2243 1.539 . S
C2241 C2237 1.408 . S
C2241 C2240 1.404 . S
C2241 H2253 0.930 . S
C2242 C2238 1.524 . S
C2242 H2254 0.956 . S
C2242 H2255 0.961 . S
C2242 H2256 0.961 . S
C2243 C2240 1.539 . S
C2243 H2257 0.958 . S
C2243 H2258 0.961 . S
C2243 H2259 0.960 . S
H2244 C2228 0.931 . S
H2245 C2233 0.929 . S
H2246 C2234 0.960 . S
H2247 C2234 0.962 . S
H2248 C2234 0.960 . S
H2249 C2235 0.961 . S
H2250 C2235 0.961 . S
H2251 C2235 0.961 . S
H2252 C2236 0.931 . S
H2253 C2241 0.930 . S
H2254 C2242 0.956 . S
H2255 C2242 0.961 . S
H2256 C2242 0.961 . S
H2257 C2243 0.958 . S
H2258 C2243 0.961 . S
H2259 C2243 0.960 . S
C2260 C2261 1.391 . S
C2260 C2262 1.394 1_554 S
C2260 H2276 0.931 . S
C2261 C2260 1.391 . S
C2261 C2265 1.376 . S
C2262 C2260 1.394 1_556 S
C2262 C2263 1.369 . S
C2262 C2266 1.531 . S
C2263 C2262 1.369 . S
C2263 C2264 1.410 . S
C2263 C2271 1.503 . S
C2264 C2263 1.410 . S
C2264 C2265 1.392 1_556 S
C2264 C2267 1.511 . S
C2265 C2261 1.376 . S
C2265 C2264 1.392 1_554 S
C2265 H2277 0.929 . S
C2266 C2262 1.531 . S
C2266 H2278 0.960 . S
C2266 H2279 0.962 . S
C2266 H2280 0.960 . S
C2267 C2264 1.511 . S
C2267 H2281 0.961 . S
C2267 H2282 0.961 . S
C2267 H2283 0.961 . S
C2268 C2269 1.370 . S
C2268 C2270 1.363 . S
C2268 H2284 0.931 . S
C2269 C2268 1.370 . S
C2269 C2273 1.408 . S
C2270 C2268 1.363 . S
C2270 C2271 1.370 . S
C2270 C2274 1.524 . S
C2271 C2263 1.503 . S
C2271 C2270 1.370 . S
C2271 C2272 1.403 . S
C2272 C2271 1.403 . S
C2272 C2273 1.404 . S
C2272 C2275 1.539 . S
C2273 C2269 1.408 . S
C2273 C2272 1.404 . S
C2273 H2285 0.930 . S
C2274 C2270 1.524 . S
C2274 H2286 0.956 . S
C2274 H2287 0.961 . S
C2274 H2288 0.961 . S
C2275 C2272 1.539 . S
C2275 H2289 0.958 . S
C2275 H2290 0.961 . S
C2275 H2291 0.960 . S
H2276 C2260 0.931 . S
H2277 C2265 0.929 . S
H2278 C2266 0.960 . S
H2279 C2266 0.962 . S
H2280 C2266 0.960 . S
H2281 C2267 0.961 . S
H2282 C2267 0.961 . S
H2283 C2267 0.961 . S
H2284 C2268 0.931 . S
H2285 C2273 0.930 . S
H2286 C2274 0.956 . S
H2287 C2274 0.961 . S
H2288 C2274 0.961 . S
H2289 C2275 0.958 . S
H2290 C2275 0.961 . S
H2291 C2275 0.960 . S
C2292 C2293 1.391 . S
C2292 C2294 1.394 . S
C2292 H2308 0.931 . S
C2293 C2292 1.391 . S
C2293 C2297 1.376 . S
C2294 C2292 1.394 . S
C2294 C2295 1.369 . S
C2294 C2298 1.531 . S
C2295 C2294 1.369 . S
C2295 C2296 1.410 . S
C2295 C2303 1.503 . S
C2296 C2295 1.410 . S
C2296 C2297 1.392 . S
C2296 C2299 1.511 . S
C2297 C2293 1.376 . S
C2297 C2296 1.392 . S
C2297 H2309 0.929 . S
C2298 C2294 1.531 . S
C2298 H2310 0.960 . S
C2298 H2311 0.962 . S
C2298 H2312 0.960 . S
C2299 C2296 1.511 . S
C2299 H2313 0.961 . S
C2299 H2314 0.961 . S
C2299 H2315 0.961 . S
C2300 C2301 1.370 . S
C2300 C2302 1.363 . S
C2300 H2316 0.931 . S
C2301 C2300 1.370 . S
C2301 C2305 1.408 . S
C2302 C2300 1.363 . S
C2302 C2303 1.370 . S
C2302 C2306 1.524 . S
C2303 C2295 1.503 . S
C2303 C2302 1.370 . S
C2303 C2304 1.403 . S
C2304 C2303 1.403 . S
C2304 C2305 1.404 . S
C2304 C2307 1.539 . S
C2305 C2301 1.408 . S
C2305 C2304 1.404 . S
C2305 H2317 0.930 . S
C2306 C2302 1.524 . S
C2306 H2318 0.956 . S
C2306 H2319 0.961 . S
C2306 H2320 0.961 . S
C2307 C2304 1.539 . S
C2307 H2321 0.958 . S
C2307 H2322 0.961 . S
C2307 H2323 0.960 . S
H2308 C2292 0.931 . S
H2309 C2297 0.929 . S
H2310 C2298 0.960 . S
H2311 C2298 0.962 . S
H2312 C2298 0.960 . S
H2313 C2299 0.961 . S
H2314 C2299 0.961 . S
H2315 C2299 0.961 . S
H2316 C2300 0.931 . S
H2317 C2305 0.930 . S
H2318 C2306 0.956 . S
H2319 C2306 0.961 . S
H2320 C2306 0.961 . S
H2321 C2307 0.958 . S
H2322 C2307 0.961 . S
H2323 C2307 0.960 . S
C2324 C2325 1.391 . S
C2324 C2326 1.394 . S
C2324 H2340 0.931 . S
C2325 C2324 1.391 . S
C2325 C2329 1.376 . S
C2326 C2324 1.394 . S
C2326 C2327 1.369 . S
C2326 C2330 1.531 . S
C2327 C2326 1.369 . S
C2327 C2328 1.410 . S
C2327 C2335 1.503 . S
C2328 C2327 1.410 . S
C2328 C2329 1.392 . S
C2328 C2331 1.511 . S
C2329 C2325 1.376 . S
C2329 C2328 1.392 . S
C2329 H2341 0.929 . S
C2330 C2326 1.531 . S
C2330 H2342 0.960 . S
C2330 H2343 0.962 . S
C2330 H2344 0.960 . S
C2331 C2328 1.511 . S
C2331 H2345 0.961 . S
C2331 H2346 0.961 . S
C2331 H2347 0.961 . S
C2332 C2333 1.370 . S
C2332 C2334 1.363 . S
C2332 H2348 0.931 . S
C2333 C2332 1.370 . S
C2333 C2337 1.408 . S
C2334 C2332 1.363 . S
C2334 C2335 1.370 . S
C2334 C2338 1.524 . S
C2335 C2327 1.503 . S
C2335 C2334 1.370 . S
C2335 C2336 1.403 . S
C2336 C2335 1.403 . S
C2336 C2337 1.404 . S
C2336 C2339 1.539 . S
C2337 C2333 1.408 . S
C2337 C2336 1.404 . S
C2337 H2349 0.930 . S
C2338 C2334 1.524 . S
C2338 H2350 0.956 . S
C2338 H2351 0.961 . S
C2338 H2352 0.961 . S
C2339 C2336 1.539 . S
C2339 H2353 0.958 . S
C2339 H2354 0.961 . S
C2339 H2355 0.960 . S
H2340 C2324 0.931 . S
H2341 C2329 0.929 . S
H2342 C2330 0.960 . S
H2343 C2330 0.962 . S
H2344 C2330 0.960 . S
H2345 C2331 0.961 . S
H2346 C2331 0.961 . S
H2347 C2331 0.961 . S
H2348 C2332 0.931 . S
H2349 C2337 0.930 . S
H2350 C2338 0.956 . S
H2351 C2338 0.961 . S
H2352 C2338 0.961 . S
H2353 C2339 0.958 . S
H2354 C2339 0.961 . S
H2355 C2339 0.960 . S
C2356 C2357 1.391 . S
C2356 C2358 1.394 . S
C2356 H2372 0.931 . S
C2357 C2356 1.391 . S
C2357 C2361 1.376 . S
C2358 C2356 1.394 . S
C2358 C2359 1.369 . S
C2358 C2362 1.531 . S
C2359 C2358 1.369 . S
C2359 C2360 1.410 . S
C2359 C2367 1.503 . S
C2360 C2359 1.410 . S
C2360 C2361 1.392 . S
C2360 C2363 1.511 . S
C2361 C2357 1.376 . S
C2361 C2360 1.392 . S
C2361 H2373 0.929 . S
C2362 C2358 1.531 . S
C2362 H2374 0.960 . S
C2362 H2375 0.962 . S
C2362 H2376 0.960 . S
C2363 C2360 1.511 . S
C2363 H2377 0.961 . S
C2363 H2378 0.961 . S
C2363 H2379 0.961 . S
C2364 C2365 1.370 . S
C2364 C2366 1.363 . S
C2364 H2380 0.931 . S
C2365 C2364 1.370 . S
C2365 C2369 1.408 . S
C2366 C2364 1.363 . S
C2366 C2367 1.370 . S
C2366 C2370 1.524 . S
C2367 C2359 1.503 . S
C2367 C2366 1.370 . S
C2367 C2368 1.403 . S
C2368 C2367 1.403 . S
C2368 C2369 1.404 . S
C2368 C2371 1.539 . S
C2369 C2365 1.408 . S
C2369 C2368 1.404 . S
C2369 H2381 0.930 . S
C2370 C2366 1.524 . S
C2370 H2382 0.956 . S
C2370 H2383 0.961 . S
C2370 H2384 0.961 . S
C2371 C2368 1.539 . S
C2371 H2385 0.958 . S
C2371 H2386 0.961 . S
C2371 H2387 0.960 . S
H2372 C2356 0.931 . S
H2373 C2361 0.929 . S
H2374 C2362 0.960 . S
H2375 C2362 0.962 . S
H2376 C2362 0.960 . S
H2377 C2363 0.961 . S
H2378 C2363 0.961 . S
H2379 C2363 0.961 . S
H2380 C2364 0.931 . S
H2381 C2369 0.930 . S
H2382 C2370 0.956 . S
H2383 C2370 0.961 . S
H2384 C2370 0.961 . S
H2385 C2371 0.958 . S
H2386 C2371 0.961 . S
H2387 C2371 0.960 . S
C2388 C2389 1.391 . S
C2388 C2390 1.394 . S
C2388 H2404 0.931 . S
C2389 C2388 1.391 . S
C2389 C2393 1.376 . S
C2390 C2388 1.394 . S
C2390 C2391 1.369 . S
C2390 C2394 1.531 . S
C2391 C2390 1.369 . S
C2391 C2392 1.410 . S
C2391 C2399 1.503 . S
C2392 C2391 1.410 . S
C2392 C2393 1.392 . S
C2392 C2395 1.511 . S
C2393 C2389 1.376 . S
C2393 C2392 1.392 . S
C2393 H2405 0.929 . S
C2394 C2390 1.531 . S
C2394 H2406 0.960 . S
C2394 H2407 0.962 . S
C2394 H2408 0.960 . S
C2395 C2392 1.511 . S
C2395 H2409 0.961 . S
C2395 H2410 0.961 . S
C2395 H2411 0.961 . S
C2396 C2397 1.370 . S
C2396 C2398 1.363 1_556 S
C2396 H2412 0.931 . S
C2397 C2396 1.370 . S
C2397 C2401 1.408 . S
C2398 C2396 1.363 1_554 S
C2398 C2399 1.370 . S
C2398 C2402 1.524 . S
C2399 C2391 1.503 . S
C2399 C2398 1.370 . S
C2399 C2400 1.403 . S
C2400 C2399 1.403 . S
C2400 C2401 1.404 1_554 S
C2400 C2403 1.539 . S
C2401 C2397 1.408 . S
C2401 C2400 1.404 1_556 S
C2401 H2413 0.930 . S
C2402 C2398 1.524 . S
C2402 H2414 0.956 . S
C2402 H2415 0.961 . S
C2402 H2416 0.961 . S
C2403 C2400 1.539 . S
C2403 H2417 0.958 . S
C2403 H2418 0.961 . S
C2403 H2419 0.960 . S
H2404 C2388 0.931 . S
H2405 C2393 0.929 . S
H2406 C2394 0.960 . S
H2407 C2394 0.962 . S
H2408 C2394 0.960 . S
H2409 C2395 0.961 . S
H2410 C2395 0.961 . S
H2411 C2395 0.961 . S
H2412 C2396 0.931 . S
H2413 C2401 0.930 . S
H2414 C2402 0.956 . S
H2415 C2402 0.961 . S
H2416 C2402 0.961 . S
H2417 C2403 0.958 . S
H2418 C2403 0.961 . S
H2419 C2403 0.960 . S
C2420 C2421 1.391 . S
C2420 C2422 1.394 . S
C2420 H2436 0.931 . S
C2421 C2420 1.391 . S
C2421 C2425 1.376 . S
C2422 C2420 1.394 . S
C2422 C2423 1.369 . S
C2422 C2426 1.531 . S
C2423 C2422 1.369 . S
C2423 C2424 1.410 . S
C2423 C2431 1.503 . S
C2424 C2423 1.410 . S
C2424 C2425 1.392 . S
C2424 C2427 1.511 . S
C2425 C2421 1.376 . S
C2425 C2424 1.392 . S
C2425 H2437 0.929 . S
C2426 C2422 1.531 . S
C2426 H2438 0.960 . S
C2426 H2439 0.962 . S
C2426 H2440 0.960 . S
C2427 C2424 1.511 . S
C2427 H2441 0.961 . S
C2427 H2442 0.961 . S
C2427 H2443 0.961 . S
C2428 C2429 1.370 . S
C2428 C2430 1.363 1_556 S
C2428 H2444 0.931 . S
C2429 C2428 1.370 . S
C2429 C2433 1.408 . S
C2430 C2428 1.363 1_554 S
C2430 C2431 1.370 . S
C2430 C2434 1.524 . S
C2431 C2423 1.503 . S
C2431 C2430 1.370 . S
C2431 C2432 1.403 . S
C2432 C2431 1.403 . S
C2432 C2433 1.404 1_554 S
C2432 C2435 1.539 . S
C2433 C2429 1.408 . S
C2433 C2432 1.404 1_556 S
C2433 H2445 0.930 . S
C2434 C2430 1.524 . S
C2434 H2446 0.956 . S
C2434 H2447 0.961 . S
C2434 H2448 0.961 . S
C2435 C2432 1.539 . S
C2435 H2449 0.958 . S
C2435 H2450 0.961 . S
C2435 H2451 0.960 . S
H2436 C2420 0.931 . S
H2437 C2425 0.929 . S
H2438 C2426 0.960 . S
H2439 C2426 0.962 . S
H2440 C2426 0.960 . S
H2441 C2427 0.961 . S
H2442 C2427 0.961 . S
H2443 C2427 0.961 . S
H2444 C2428 0.931 . S
H2445 C2433 0.930 . S
H2446 C2434 0.956 . S
H2447 C2434 0.961 . S
H2448 C2434 0.961 . S
H2449 C2435 0.958 . S
H2450 C2435 0.961 . S
H2451 C2435 0.960 . S
C2452 C2453 1.391 . S
C2452 C2454 1.394 . S
C2452 H2468 0.931 . S
C2453 C2452 1.391 . S
C2453 C2457 1.376 . S
C2454 C2452 1.394 . S
C2454 C2455 1.369 . S
C2454 C2458 1.531 . S
C2455 C2454 1.369 . S
C2455 C2456 1.410 . S
C2455 C2463 1.503 . S
C2456 C2455 1.410 . S
C2456 C2457 1.392 . S
C2456 C2459 1.511 . S
C2457 C2453 1.376 . S
C2457 C2456 1.392 . S
C2457 H2469 0.929 . S
C2458 C2454 1.531 . S
C2458 H2470 0.960 . S
C2458 H2471 0.962 . S
C2458 H2472 0.960 . S
C2459 C2456 1.511 . S
C2459 H2473 0.961 . S
C2459 H2474 0.961 . S
C2459 H2475 0.961 . S
C2460 C2461 1.370 . S
C2460 C2462 1.363 1_556 S
C2460 H2476 0.931 . S
C2461 C2460 1.370 . S
C2461 C2465 1.408 . S
C2462 C2460 1.363 1_554 S
C2462 C2463 1.370 . S
C2462 C2466 1.524 . S
C2463 C2455 1.503 . S
C2463 C2462 1.370 . S
C2463 C2464 1.403 . S
C2464 C2463 1.403 . S
C2464 C2465 1.404 1_554 S
C2464 C2467 1.539 . S
C2465 C2461 1.408 . S
C2465 C2464 1.404 1_556 S
C2465 H2477 0.930 . S
C2466 C2462 1.524 . S
C2466 H2478 0.956 . S
C2466 H2479 0.961 . S
C2466 H2480 0.961 . S
C2467 C2464 1.539 . S
C2467 H2481 0.958 . S
C2467 H2482 0.961 . S
C2467 H2483 0.960 . S
H2468 C2452 0.931 . S
H2469 C2457 0.929 . S
H2470 C2458 0.960 . S
H2471 C2458 0.962 . S
H2472 C2458 0.960 . S
H2473 C2459 0.961 . S
H2474 C2459 0.961 . S
H2475 C2459 0.961 . S
H2476 C2460 0.931 . S
H2477 C2465 0.930 . S
H2478 C2466 0.956 . S
H2479 C2466 0.961 . S
H2480 C2466 0.961 . S
H2481 C2467 0.958 . S
H2482 C2467 0.961 . S
H2483 C2467 0.960 . S
C2484 C2485 1.391 . S
C2484 C2486 1.394 . S
C2484 H2500 0.931 . S
C2485 C2484 1.391 . S
C2485 C2489 1.376 . S
C2486 C2484 1.394 . S
C2486 C2487 1.369 . S
C2486 C2490 1.531 . S
C2487 C2486 1.369 . S
C2487 C2488 1.410 . S
C2487 C2495 1.503 . S
C2488 C2487 1.410 . S
C2488 C2489 1.392 . S
C2488 C2491 1.511 . S
C2489 C2485 1.376 . S
C2489 C2488 1.392 . S
C2489 H2501 0.929 . S
C2490 C2486 1.531 . S
C2490 H2502 0.960 . S
C2490 H2503 0.962 . S
C2490 H2504 0.960 . S
C2491 C2488 1.511 . S
C2491 H2505 0.961 . S
C2491 H2506 0.961 . S
C2491 H2507 0.961 . S
C2492 C2493 1.370 . S
C2492 C2494 1.363 . S
C2492 H2508 0.931 . S
C2493 C2492 1.370 . S
C2493 C2497 1.408 . S
C2494 C2492 1.363 . S
C2494 C2495 1.370 . S
C2494 C2498 1.524 . S
C2495 C2487 1.503 . S
C2495 C2494 1.370 . S
C2495 C2496 1.403 . S
C2496 C2495 1.403 . S
C2496 C2497 1.404 . S
C2496 C2499 1.539 . S
C2497 C2493 1.408 . S
C2497 C2496 1.404 . S
C2497 H2509 0.930 . S
C2498 C2494 1.524 . S
C2498 H2510 0.956 . S
C2498 H2511 0.961 . S
C2498 H2512 0.961 . S
C2499 C2496 1.539 . S
C2499 H2513 0.958 . S
C2499 H2514 0.961 . S
C2499 H2515 0.960 . S
H2500 C2484 0.931 . S
H2501 C2489 0.929 . S
H2502 C2490 0.960 . S
H2503 C2490 0.962 . S
H2504 C2490 0.960 . S
H2505 C2491 0.961 . S
H2506 C2491 0.961 . S
H2507 C2491 0.961 . S
H2508 C2492 0.931 . S
H2509 C2497 0.930 . S
H2510 C2498 0.956 . S
H2511 C2498 0.961 . S
H2512 C2498 0.961 . S
H2513 C2499 0.958 . S
H2514 C2499 0.961 . S
H2515 C2499 0.960 . S
C2516 C2517 1.391 . S
C2516 C2518 1.394 . S
C2516 H2532 0.931 . S
C2517 C2516 1.391 . S
C2517 C2521 1.376 . S
C2518 C2516 1.394 . S
C2518 C2519 1.369 . S
C2518 C2522 1.531 . S
C2519 C2518 1.369 . S
C2519 C2520 1.410 . S
C2519 C2527 1.503 . S
C2520 C2519 1.410 . S
C2520 C2521 1.392 . S
C2520 C2523 1.511 . S
C2521 C2517 1.376 . S
C2521 C2520 1.392 . S
C2521 H2533 0.929 . S
C2522 C2518 1.531 . S
C2522 H2534 0.960 . S
C2522 H2535 0.962 . S
C2522 H2536 0.960 . S
C2523 C2520 1.511 . S
C2523 H2537 0.961 . S
C2523 H2538 0.961 . S
C2523 H2539 0.961 . S
C2524 C2525 1.370 . S
C2524 C2526 1.363 . S
C2524 H2540 0.931 . S
C2525 C2524 1.370 . S
C2525 C2529 1.408 . S
C2526 C2524 1.363 . S
C2526 C2527 1.370 . S
C2526 C2530 1.524 . S
C2527 C2519 1.503 . S
C2527 C2526 1.370 . S
C2527 C2528 1.403 . S
C2528 C2527 1.403 . S
C2528 C2529 1.404 . S
C2528 C2531 1.539 . S
C2529 C2525 1.408 . S
C2529 C2528 1.404 . S
C2529 H2541 0.930 . S
C2530 C2526 1.524 . S
C2530 H2542 0.956 . S
C2530 H2543 0.961 . S
C2530 H2544 0.961 . S
C2531 C2528 1.539 . S
C2531 H2545 0.958 . S
C2531 H2546 0.961 . S
C2531 H2547 0.960 . S
H2532 C2516 0.931 . S
H2533 C2521 0.929 . S
H2534 C2522 0.960 . S
H2535 C2522 0.962 . S
H2536 C2522 0.960 . S
H2537 C2523 0.961 . S
H2538 C2523 0.961 . S
H2539 C2523 0.961 . S
H2540 C2524 0.931 . S
H2541 C2529 0.930 . S
H2542 C2530 0.956 . S
H2543 C2530 0.961 . S
H2544 C2530 0.961 . S
H2545 C2531 0.958 . S
H2546 C2531 0.961 . S
H2547 C2531 0.960 . S
C2548 C2549 1.391 . S
C2548 C2550 1.394 . S
C2548 H2564 0.931 . S
C2549 C2548 1.391 . S
C2549 C2553 1.376 . S
C2550 C2548 1.394 . S
C2550 C2551 1.369 . S
C2550 C2554 1.531 . S
C2551 C2550 1.369 . S
C2551 C2552 1.410 . S
C2551 C2559 1.503 . S
C2552 C2551 1.410 . S
C2552 C2553 1.392 . S
C2552 C2555 1.511 . S
C2553 C2549 1.376 . S
C2553 C2552 1.392 . S
C2553 H2565 0.929 . S
C2554 C2550 1.531 . S
C2554 H2566 0.960 . S
C2554 H2567 0.962 . S
C2554 H2568 0.960 . S
C2555 C2552 1.511 . S
C2555 H2569 0.961 . S
C2555 H2570 0.961 . S
C2555 H2571 0.961 . S
C2556 C2557 1.370 . S
C2556 C2558 1.363 . S
C2556 H2572 0.931 . S
C2557 C2556 1.370 . S
C2557 C2561 1.408 . S
C2558 C2556 1.363 . S
C2558 C2559 1.370 . S
C2558 C2562 1.524 . S
C2559 C2551 1.503 . S
C2559 C2558 1.370 . S
C2559 C2560 1.403 . S
C2560 C2559 1.403 . S
C2560 C2561 1.404 . S
C2560 C2563 1.539 . S
C2561 C2557 1.408 . S
C2561 C2560 1.404 . S
C2561 H2573 0.930 . S
C2562 C2558 1.524 . S
C2562 H2574 0.956 . S
C2562 H2575 0.961 . S
C2562 H2576 0.961 . S
C2563 C2560 1.539 . S
C2563 H2577 0.958 . S
C2563 H2578 0.961 . S
C2563 H2579 0.960 . S
H2564 C2548 0.931 . S
H2565 C2553 0.929 . S
H2566 C2554 0.960 . S
H2567 C2554 0.962 . S
H2568 C2554 0.960 . S
H2569 C2555 0.961 . S
H2570 C2555 0.961 . S
H2571 C2555 0.961 . S
H2572 C2556 0.931 . S
H2573 C2561 0.930 . S
H2574 C2562 0.956 . S
H2575 C2562 0.961 . S
H2576 C2562 0.961 . S
H2577 C2563 0.958 . S
H2578 C2563 0.961 . S
H2579 C2563 0.960 . S
C2580 C2581 1.391 . S
C2580 C2582 1.394 . S
C2580 H2596 0.931 1_655 S
C2581 C2580 1.391 . S
C2581 C2585 1.376 . S
C2582 C2580 1.394 . S
C2582 C2583 1.369 . S
C2582 C2586 1.531 1_655 S
C2583 C2582 1.369 . S
C2583 C2584 1.410 . S
C2583 C2591 1.503 . S
C2584 C2583 1.410 . S
C2584 C2585 1.392 . S
C2584 C2587 1.511 . S
C2585 C2581 1.376 . S
C2585 C2584 1.392 . S
C2585 H2597 0.929 . S
C2586 C2582 1.531 1_455 S
C2586 H2598 0.960 . S
C2586 H2599 0.962 . S
C2586 H2600 0.960 . S
C2587 C2584 1.511 . S
C2587 H2601 0.961 . S
C2587 H2602 0.961 . S
C2587 H2603 0.961 . S
C2588 C2589 1.370 . S
C2588 C2590 1.363 . S
C2588 H2604 0.931 . S
C2589 C2588 1.370 . S
C2589 C2593 1.408 . S
C2590 C2588 1.363 . S
C2590 C2591 1.370 . S
C2590 C2594 1.524 . S
C2591 C2583 1.503 . S
C2591 C2590 1.370 . S
C2591 C2592 1.403 . S
C2592 C2591 1.403 . S
C2592 C2593 1.404 . S
C2592 C2595 1.539 . S
C2593 C2589 1.408 . S
C2593 C2592 1.404 . S
C2593 H2605 0.930 . S
C2594 C2590 1.524 . S
C2594 H2606 0.956 . S
C2594 H2607 0.961 . S
C2594 H2608 0.961 . S
C2595 C2592 1.539 . S
C2595 H2609 0.958 . S
C2595 H2610 0.961 . S
C2595 H2611 0.960 . S
H2596 C2580 0.931 1_455 S
H2597 C2585 0.929 . S
H2598 C2586 0.960 . S
H2599 C2586 0.962 . S
H2600 C2586 0.960 . S
H2601 C2587 0.961 . S
H2602 C2587 0.961 . S
H2603 C2587 0.961 . S
H2604 C2588 0.931 . S
H2605 C2593 0.930 . S
H2606 C2594 0.956 . S
H2607 C2594 0.961 . S
H2608 C2594 0.961 . S
H2609 C2595 0.958 . S
H2610 C2595 0.961 . S
H2611 C2595 0.960 . S
C2612 C2613 1.391 . S
C2612 C2614 1.394 . S
C2612 H2628 0.931 . S
C2613 C2612 1.391 . S
C2613 C2617 1.376 . S
C2614 C2612 1.394 . S
C2614 C2615 1.369 . S
C2614 C2618 1.531 . S
C2615 C2614 1.369 . S
C2615 C2616 1.410 . S
C2615 C2623 1.503 . S
C2616 C2615 1.410 . S
C2616 C2617 1.392 . S
C2616 C2619 1.511 . S
C2617 C2613 1.376 . S
C2617 C2616 1.392 . S
C2617 H2629 0.929 . S
C2618 C2614 1.531 . S
C2618 H2630 0.960 . S
C2618 H2631 0.962 . S
C2618 H2632 0.960 . S
C2619 C2616 1.511 . S
C2619 H2633 0.961 . S
C2619 H2634 0.961 . S
C2619 H2635 0.961 . S
C2620 C2621 1.370 . S
C2620 C2622 1.363 . S
C2620 H2636 0.931 . S
C2621 C2620 1.370 . S
C2621 C2625 1.408 . S
C2622 C2620 1.363 . S
C2622 C2623 1.370 . S
C2622 C2626 1.524 . S
C2623 C2615 1.503 . S
C2623 C2622 1.370 . S
C2623 C2624 1.403 . S
C2624 C2623 1.403 . S
C2624 C2625 1.404 . S
C2624 C2627 1.539 . S
C2625 C2621 1.408 . S
C2625 C2624 1.404 . S
C2625 H2637 0.930 . S
C2626 C2622 1.524 . S
C2626 H2638 0.956 . S
C2626 H2639 0.961 . S
C2626 H2640 0.961 . S
C2627 C2624 1.539 . S
C2627 H2641 0.958 . S
C2627 H2642 0.961 . S
C2627 H2643 0.960 . S
H2628 C2612 0.931 . S
H2629 C2617 0.929 . S
H2630 C2618 0.960 . S
H2631 C2618 0.962 . S
H2632 C2618 0.960 . S
H2633 C2619 0.961 . S
H2634 C2619 0.961 . S
H2635 C2619 0.961 . S
H2636 C2620 0.931 . S
H2637 C2625 0.930 . S
H2638 C2626 0.956 . S
H2639 C2626 0.961 . S
H2640 C2626 0.961 . S
H2641 C2627 0.958 . S
H2642 C2627 0.961 . S
H2643 C2627 0.960 . S
C2644 C2645 1.391 . S
C2644 C2646 1.394 . S
C2644 H2660 0.931 . S
C2645 C2644 1.391 . S
C2645 C2649 1.376 . S
C2646 C2644 1.394 . S
C2646 C2647 1.369 . S
C2646 C2650 1.531 . S
C2647 C2646 1.369 . S
C2647 C2648 1.410 . S
C2647 C2655 1.503 . S
C2648 C2647 1.410 . S
C2648 C2649 1.392 . S
C2648 C2651 1.511 . S
C2649 C2645 1.376 . S
C2649 C2648 1.392 . S
C2649 H2661 0.929 . S
C2650 C2646 1.531 . S
C2650 H2662 0.960 1_565 S
C2650 H2663 0.962 . S
C2650 H2664 0.960 1_565 S
C2651 C2648 1.511 . S
C2651 H2665 0.961 . S
C2651 H2666 0.961 . S
C2651 H2667 0.961 . S
C2652 C2653 1.370 . S
C2652 C2654 1.363 . S
C2652 H2668 0.931 . S
C2653 C2652 1.370 . S
C2653 C2657 1.456 . S
C2654 C2652 1.363 . S
C2654 C2655 1.370 . S
C2654 C2658 1.524 . S
C2655 C2647 1.503 . S
C2655 C2654 1.370 . S
C2655 C2656 1.399 1_565 S
C2656 C2655 1.399 1_545 S
C2656 C2657 1.403 1_545 S
C2656 C2659 1.542 . S
C2657 C2653 1.456 . S
C2657 C2656 1.403 1_565 S
C2657 H2669 0.889 1_565 S
C2658 C2654 1.524 . S
C2658 H2670 0.956 . S
C2658 H2671 0.961 . S
C2658 H2672 0.961 . S
C2659 C2656 1.542 . S
C2659 H2673 0.958 . S
C2659 H2674 0.961 . S
C2659 H2675 0.960 . S
H2660 C2644 0.931 . S
H2661 C2649 0.929 . S
H2662 C2650 0.960 1_545 S
H2663 C2650 0.962 . S
H2664 C2650 0.960 1_545 S
H2665 C2651 0.961 . S
H2666 C2651 0.961 . S
H2667 C2651 0.961 . S
H2668 C2652 0.931 . S
H2669 C2657 0.889 1_545 S
H2670 C2658 0.956 . S
H2671 C2658 0.961 . S
H2672 C2658 0.961 . S
H2673 C2659 0.958 . S
H2674 C2659 0.961 . S
H2675 C2659 0.960 . S
C2676 C2677 1.391 . S
C2676 C2678 1.394 . S
C2676 H2692 0.931 . S
C2677 C2676 1.391 . S
C2677 C2681 1.376 . S
C2678 C2676 1.394 . S
C2678 C2679 1.369 . S
C2678 C2682 1.531 . S
C2679 C2678 1.369 . S
C2679 C2680 1.410 . S
C2679 C2687 1.503 . S
C2680 C2679 1.410 . S
C2680 C2681 1.392 . S
C2680 C2683 1.511 . S
C2681 C2677 1.376 . S
C2681 C2680 1.392 . S
C2681 H2693 0.929 . S
C2682 C2678 1.531 . S
C2682 H2694 0.960 . S
C2682 H2695 0.962 . S
C2682 H2696 0.960 . S
C2683 C2680 1.511 . S
C2683 H2697 0.961 . S
C2683 H2698 0.961 . S
C2683 H2699 0.961 . S
C2684 C2685 1.370 . S
C2684 C2686 1.363 . S
C2684 H2700 0.931 1_545 S
C2685 C2684 1.370 . S
C2685 C2689 1.408 . S
C2686 C2684 1.363 . S
C2686 C2687 1.370 . S
C2686 C2690 1.524 1_545 S
C2687 C2679 1.503 . S
C2687 C2686 1.370 . S
C2687 C2688 1.403 . S
C2688 C2687 1.403 . S
C2688 C2689 1.404 . S
C2688 C2691 1.539 . S
C2689 C2685 1.408 . S
C2689 C2688 1.404 . S
C2689 H2701 0.930 . S
C2690 C2686 1.524 1_565 S
C2690 H2702 0.956 . S
C2690 H2703 0.961 . S
C2690 H2704 0.961 . S
C2691 C2688 1.539 . S
C2691 H2705 0.958 . S
C2691 H2706 0.961 . S
C2691 H2707 0.960 . S
H2692 C2676 0.931 . S
H2693 C2681 0.929 . S
H2694 C2682 0.960 . S
H2695 C2682 0.962 . S
H2696 C2682 0.960 . S
H2697 C2683 0.961 . S
H2698 C2683 0.961 . S
H2699 C2683 0.961 . S
H2700 C2684 0.931 1_565 S
H2701 C2689 0.930 . S
H2702 C2690 0.956 . S
H2703 C2690 0.961 . S
H2704 C2690 0.961 . S
H2705 C2691 0.958 . S
H2706 C2691 0.961 . S
H2707 C2691 0.960 . S
C2708 C2709 1.391 . S
C2708 C2710 1.394 . S
C2708 H2724 0.931 . S
C2709 C2708 1.391 . S
C2709 C2713 1.376 . S
C2710 C2708 1.394 . S
C2710 C2711 1.369 . S
C2710 C2714 1.531 . S
C2711 C2710 1.369 . S
C2711 C2712 1.410 . S
C2711 C2719 1.503 . S
C2712 C2711 1.410 . S
C2712 C2713 1.392 . S
C2712 C2715 1.511 1_455 S
C2713 C2709 1.376 . S
C2713 C2712 1.392 . S
C2713 H2725 0.929 1_455 S
C2714 C2710 1.531 . S
C2714 H2726 0.960 . S
C2714 H2727 0.962 . S
C2714 H2728 0.960 . S
C2715 C2712 1.511 1_655 S
C2715 H2729 0.961 . S
C2715 H2730 0.961 . S
C2715 H2731 0.961 . S
C2716 C2717 1.370 . S
C2716 C2718 1.363 . S
C2716 H2732 0.931 . S
C2717 C2716 1.370 . S
C2717 C2721 1.408 . S
C2718 C2716 1.363 . S
C2718 C2719 1.370 . S
C2718 C2722 1.524 . S
C2719 C2711 1.503 . S
C2719 C2718 1.370 . S
C2719 C2720 1.403 . S
C2720 C2719 1.403 . S
C2720 C2721 1.404 . S
C2720 C2723 1.539 . S
C2721 C2717 1.408 . S
C2721 C2720 1.404 . S
C2721 H2733 0.930 . S
C2722 C2718 1.524 . S
C2722 H2734 0.956 . S
C2722 H2735 0.961 . S
C2722 H2736 0.961 . S
C2723 C2720 1.539 . S
C2723 H2737 0.958 . S
C2723 H2738 0.961 . S
C2723 H2739 0.960 . S
H2724 C2708 0.931 . S
H2725 C2713 0.929 1_655 S
H2726 C2714 0.960 . S
H2727 C2714 0.962 . S
H2728 C2714 0.960 . S
H2729 C2715 0.961 . S
H2730 C2715 0.961 . S
H2731 C2715 0.961 . S
H2732 C2716 0.931 . S
H2733 C2721 0.930 . S
H2734 C2722 0.956 . S
H2735 C2722 0.961 . S
H2736 C2722 0.961 . S
H2737 C2723 0.958 . S
H2738 C2723 0.961 . S
H2739 C2723 0.960 . S
C2740 C2741 1.391 . S
C2740 C2742 1.394 . S
C2740 H2756 0.931 . S
C2741 C2740 1.391 . S
C2741 C2745 1.376 . S
C2742 C2740 1.394 . S
C2742 C2743 1.369 . S
C2742 C2746 1.531 . S
C2743 C2742 1.369 . S
C2743 C2744 1.410 . S
C2743 C2751 1.503 . S
C2744 C2743 1.410 . S
C2744 C2745 1.392 . S
C2744 C2747 1.511 . S
C2745 C2741 1.376 . S
C2745 C2744 1.392 . S
C2745 H2757 0.929 . S
C2746 C2742 1.531 . S
C2746 H2758 0.960 . S
C2746 H2759 0.962 . S
C2746 H2760 0.960 . S
C2747 C2744 1.511 . S
C2747 H2761 0.961 . S
C2747 H2762 0.961 . S
C2747 H2763 0.961 . S
C2748 C2749 1.370 . S
C2748 C2750 1.363 . S
C2748 H2764 0.931 . S
C2749 C2748 1.370 . S
C2749 C2753 1.408 . S
C2750 C2748 1.363 . S
C2750 C2751 1.370 . S
C2750 C2754 1.524 . S
C2751 C2743 1.503 . S
C2751 C2750 1.370 . S
C2751 C2752 1.403 . S
C2752 C2751 1.403 . S
C2752 C2753 1.404 . S
C2752 C2755 1.539 . S
C2753 C2749 1.408 . S
C2753 C2752 1.404 . S
C2753 H2765 0.930 . S
C2754 C2750 1.524 . S
C2754 H2766 0.956 . S
C2754 H2767 0.961 . S
C2754 H2768 0.961 . S
C2755 C2752 1.539 . S
C2755 H2769 0.958 . S
C2755 H2770 0.961 . S
C2755 H2771 0.960 . S
H2756 C2740 0.931 . S
H2757 C2745 0.929 . S
H2758 C2746 0.960 . S
H2759 C2746 0.962 . S
H2760 C2746 0.960 . S
H2761 C2747 0.961 . S
H2762 C2747 0.961 . S
H2763 C2747 0.961 . S
H2764 C2748 0.931 . S
H2765 C2753 0.930 . S
H2766 C2754 0.956 . S
H2767 C2754 0.961 . S
H2768 C2754 0.961 . S
H2769 C2755 0.958 . S
H2770 C2755 0.961 . S
H2771 C2755 0.960 . S
C469 C212 1.624 . S
C477 C10 1.606 . S
C501 C225 1.601 . S
C509 C17 1.603 . S
C533 C205 1.579 . S
C541 C30 1.613 . S
C565 C342 1.568 . S
C573 C43 1.586 . S
C597 C62 1.600 . S
C605 C322 1.576 . S
C629 C75 1.559 . S
C637 C329 1.564 . S
C661 C88 1.627 . S
C669 C452 1.615 . S
C693 C459 1.585 . S
C701 C95 1.605 . S
C725 C439 1.589 . S
C733 C108 1.617 . S
C757 C121 1.597 . S
C765 C270 1.583 . S
C789 C244 1.563 . S
C797 C134 1.592 . S
C821 C153 1.582 . S
C829 C257 1.569 . S
C853 C374 1.531 . S
C861 C166 1.537 . S
C885 C179 1.518 . S
C893 C381 1.501 . S
C917 C361 1.481 . S
C925 C192 1.505 . S
C949 C420 1.493 . S
C957 C283 1.510 . S
C981 C394 1.546 . S
C989 C290 1.530 . S
C1013 C309 1.495 . S
C1021 C413 1.514 . S
C1045 C238 1.312 . S
C1053 C4 1.321 . S
C1077 C251 1.462 . S
C1085 C23 1.439 . S
C1109 C264 1.662 . S
C1117 C36 1.707 . S
C1141 C49 1.334 . S
C1149 C433 1.323 . S
C1173 C56 1.751 . S
C1181 C446 1.716 . S
C1205 C69 1.465 . S
C1213 C465 1.454 . S
C1237 C82 1.314 . S
C1245 C316 1.319 . S
C1269 C335 1.457 . S
C1277 C101 1.439 . S
C1301 C348 1.711 . S
C1309 C114 1.685 . S
C1333 C199 1.339 . S
C1341 C127 1.322 . S
C1365 C140 1.716 . S
C1373 C218 1.734 . S
C1397 C147 1.458 . S
C1405 C231 1.454 . S
C1429 C160 1.325 . S
C1437 C400 1.338 . S
C1461 C407 1.419 . S
C1469 C173 1.420 . S
C1493 C426 1.516 . S
C1501 C186 1.568 . S
C1525 C355 1.374 . S
C1533 C277 1.401 . S
C1557 C296 1.621 . S
C1565 C368 1.645 . S
C1589 C303 1.481 . S
C1597 C387 1.493 . S
C1621 C356 1.467 . S
C1629 C5 1.455 . S
C1653 C16 1.381 . S
C1661 C369 1.364 . S
C1685 C29 1.308 . S
C1693 C380 1.385 . S
C1717 C161 1.438 . S
C1725 C42 1.424 . S
C1749 C57 1.353 . S
C1757 C174 1.417 . S
C1781 C70 1.331 . S
C1789 C187 1.291 . S
C1813 C278 1.438 . S
C1821 C83 1.457 . S
C1845 C94 1.371 . S
C1853 C289 1.352 . S
C1877 C304 1.373 . S
C1885 C107 1.325 . S
C1909 C120 1.437 . S
C1917 C393 1.423 . S
C1941 C408 1.408 . S
C1949 C133 1.355 . S
C1973 C419 1.268 . S
C1981 C148 1.326 . S
C2005 C317 1.458 . S
C2013 C200 1.470 . S
C2037 C328 1.426 . S
C2045 C211 1.370 . S
C2069 C341 1.407 . S
C2077 C224 1.434 . S
C2101 C239 1.460 . S
C2109 C434 1.473 . S
C2133 C447 1.359 . S
C2141 C252 1.440 . S
C2165 C458 1.443 . S
C2173 C265 1.380 . S
C2197 C3 0.980 . S
C2205 C213 0.928 . S
C2229 C18 0.898 . S
C2237 C226 0.951 . S
C2261 C31 0.974 . S
C2269 C198 0.920 . S
C2293 C343 0.988 . S
C2301 C44 0.958 . S
C2325 C315 0.999 . S
C2333 C55 0.954 . S
C2357 C330 0.945 . S
C2365 C68 0.959 . S
C2389 C445 0.965 . S
C2397 C81 0.922 . S
C2421 C460 0.965 . S
C2429 C96 0.947 . S
C2453 C432 0.915 . S
C2461 C109 0.959 . S
C2485 C122 1.007 . S
C2493 C263 0.969 . S
C2517 C135 0.997 . S
C2525 C237 0.945 . S
C2549 C146 0.925 . S
C2557 C250 0.980 . S
C2581 C367 1.001 . S
C2589 C159 1.013 . S
C2613 C382 0.972 . S
C2621 C172 1.035 . S
C2645 C185 1.066 . S
C2653 C354 1.022 . S
C2677 C276 1.070 . S
C2685 C421 1.031 . S
C2709 C395 1.026 . S
C2717 C291 1.025 . S
C2741 C406 0.982 . S
C2749 C302 1.038 . S
