# Generated by pormake.
# Topology unj, (4)-cn, num edge types: 1
# Building blocks:
#     Node 0, Type 0, BuildingBlock: QUQFOY_clean_sbu_1, # of connection points: 4
#     Node 1, Type 0, BuildingBlock: QUQFOY_clean_sbu_1, # of connection points: 4
#     Node 2, Type 0, BuildingBlock: QUQFOY_clean_sbu_1, # of connection points: 4
#     Node 3, Type 0, BuildingBlock: QUQFOY_clean_sbu_1, # of connection points: 4
#     Node 4, Type 0, BuildingBlock: QUQFOY_clean_sbu_1, # of connection points: 4
#     Node 5, Type 0, BuildingBlock: QUQFOY_clean_sbu_1, # of connection points: 4
#     Edge 6, Type (0, 0), BuildingBlock: XUDNAN_clean_linker_2, # of connection points: 2
#     Edge 7, Type (0, 0), BuildingBlock: XUDNAN_clean_linker_2, # of connection points: 2
#     Edge 8, Type (0, 0), BuildingBlock: XUDNAN_clean_linker_2, # of connection points: 2
#     Edge 9, Type (0, 0), BuildingBlock: XUDNAN_clean_linker_2, # of connection points: 2
#     Edge 10, Type (0, 0), BuildingBlock: XUDNAN_clean_linker_2, # of connection points: 2
#     Edge 11, Type (0, 0), BuildingBlock: XUDNAN_clean_linker_2, # of connection points: 2
#     Edge 12, Type (0, 0), BuildingBlock: XUDNAN_clean_linker_2, # of connection points: 2
#     Edge 13, Type (0, 0), BuildingBlock: XUDNAN_clean_linker_2, # of connection points: 2
#     Edge 14, Type (0, 0), BuildingBlock: XUDNAN_clean_linker_2, # of connection points: 2
#     Edge 15, Type (0, 0), BuildingBlock: XUDNAN_clean_linker_2, # of connection points: 2
#     Edge 16, Type (0, 0), BuildingBlock: XUDNAN_clean_linker_2, # of connection points: 2
#     Edge 17, Type (0, 0), BuildingBlock: XUDNAN_clean_linker_2, # of connection points: 2
# Relax obj value: 0.136
# Max RMSD: 0.187
# Mean RMSD: 0.187
data_MOF--net-unj--node1-QUQFOY_clean_sbu_1--edge1-XUDNAN_clean_linker_2
_symmetry_space_group_name_H-M    P1
_symmetry_Int_Tables_number       1
_symmetry_cell_setting            triclinic
loop_
_symmetry_equiv_pos_as_xyz
'x, y, z'
_cell_length_a     33.925932
_cell_length_b     33.959016
_cell_length_c     37.636662
_cell_angle_alpha  89.940493
_cell_angle_beta   90.042959
_cell_angle_gamma 120.20181
loop_
_atom_site_label
_atom_site_type_symbol
_atom_site_fract_x
_atom_site_fract_y
_atom_site_fract_z
_atom_type_partial_charge
O0 O 0.49961 0.22943 0.63826 0.0
Cd1 Cd 0.45169 0.21708 0.59952 0.0
Cd2 Cd 0.50612 0.30688 0.5855 0.0
O3 O 0.54661 0.3014 0.62412 0.0
O4 O 0.41619 0.15006 0.59177 0.0
O5 O 0.45932 0.19905 0.55021 0.0
C6 C 0.43189 0.15741 0.55977 0.0
C7 C 0.54245 0.34807 0.53422 0.0
C8 C 0.53666 0.2667 0.64322 0.0
C9 C 0.41044 0.27571 0.61117 0.0
O10 O 0.44887 0.30904 0.60197 0.0
O11 O 0.40394 0.23548 0.61107 0.0
O12 O 0.54467 0.36802 0.56385 0.0
O13 O 0.51967 0.30408 0.5335 0.0
O14 O 0.27308 0.47535 0.81485 0.0
Cd15 Cd 0.22617 0.43952 0.7758 0.0
Cd16 Cd 0.23147 0.5208 0.76597 0.0
O17 O 0.27889 0.54249 0.80704 0.0
O18 O 0.22759 0.38198 0.76913 0.0
O19 O 0.24908 0.43488 0.72748 0.0
C20 C 0.24349 0.39611 0.7377 0.0
C21 C 0.25107 0.55539 0.71028 0.0
C22 C 0.29033 0.517 0.82352 0.0
C23 C 0.14006 0.44237 0.787 0.0
O24 O 0.16285 0.48437 0.77887 0.0
O25 O 0.15886 0.41812 0.78709 0.0
O26 O 0.24084 0.57352 0.73619 0.0
O27 O 0.25113 0.51795 0.71627 0.0
O28 O 0.68136 0.17378 0.93299 0.0
Cd29 Cd 0.70118 0.24107 0.92181 0.0
Cd30 Cd 0.78222 0.25398 0.94685 0.0
O31 O 0.74716 0.18426 0.953 0.0
O32 O 0.65197 0.23751 0.89022 0.0
O33 O 0.7236 0.26664 0.87301 0.0
C34 C 0.68228 0.25596 0.86557 0.0
C35 C 0.84398 0.29018 0.90823 0.0
C36 C 0.70526 0.15791 0.94577 0.0
C37 C 0.74104 0.30021 0.98715 0.0
O38 O 0.77321 0.2913 0.98577 0.0
O39 O 0.70975 0.28468 0.96366 0.0
O40 O 0.84859 0.27628 0.93909 0.0
O41 O 0.80415 0.283 0.89931 0.0
O42 O 0.5172 0.78797 0.13856 0.0
Cd43 Cd 0.56513 0.80037 0.09987 0.0
Cd44 Cd 0.51077 0.7105 0.08597 0.0
O45 O 0.47037 0.71593 0.12463 0.0
O46 O 0.60057 0.8674 0.09208 0.0
O47 O 0.55747 0.81844 0.05053 0.0
C48 C 0.58487 0.86008 0.06008 0.0
C49 C 0.4743 0.66915 0.03481 0.0
C50 C 0.48024 0.75064 0.14363 0.0
C51 C 0.60654 0.74186 0.11157 0.0
O52 O 0.56814 0.70849 0.10236 0.0
O53 O 0.61295 0.78205 0.11148 0.0
O54 O 0.47223 0.64929 0.0645 0.0
O55 O 0.497 0.71314 0.03398 0.0
O56 O 0.74418 0.54167 0.31436 0.0
Cd57 Cd 0.79123 0.57757 0.27541 0.0
Cd58 Cd 0.78588 0.49626 0.26571 0.0
O59 O 0.73828 0.47449 0.30664 0.0
O60 O 0.78991 0.63519 0.26882 0.0
O61 O 0.76847 0.58252 0.22706 0.0
C62 C 0.77407 0.62125 0.23735 0.0
C63 C 0.76649 0.46197 0.20994 0.0
C64 C 0.72683 0.49999 0.32303 0.0
C65 C 0.87724 0.57458 0.28692 0.0
O66 O 0.85444 0.53259 0.27881 0.0
O67 O 0.85849 0.59887 0.28686 0.0
O68 O 0.77654 0.44366 0.23587 0.0
O69 O 0.76647 0.49941 0.21596 0.0
O70 O 0.33566 0.84392 0.433 0.0
Cd71 Cd 0.3161 0.77667 0.42201 0.0
Cd72 Cd 0.23498 0.76349 0.44705 0.0
O73 O 0.26984 0.83321 0.45307 0.0
O74 O 0.36531 0.7804 0.39039 0.0
O75 O 0.29357 0.75085 0.3733 0.0
C76 C 0.33493 0.76172 0.36582 0.0
C77 C 0.17319 0.72706 0.40848 0.0
C78 C 0.31169 0.85967 0.44576 0.0
C79 C 0.27654 0.7176 0.48747 0.0
O80 O 0.24424 0.72632 0.48603 0.0
O81 O 0.30782 0.73323 0.46398 0.0
O82 O 0.16855 0.74095 0.4393 0.0
O83 O 0.21306 0.73439 0.39956 0.0
H84 H 0.35831 0.07167 0.56516 0.0
H85 H 0.47598 0.156 0.49909 0.0
H86 H 0.45593 0.08962 0.46028 0.0
H87 H 0.36472 0.97153 0.56188 0.0
H88 H 0.30391 0.93347 0.55993 0.0
H89 H 0.3266 0.98804 0.58126 0.0
H90 H 0.27782 0.00794 0.54004 0.0
H91 H 0.25493 0.95335 0.51857 0.0
H92 H 0.28246 1.00488 0.49253 0.0
H93 H 0.42649 0.0118 0.43223 0.0
H94 H 0.38726 0.93048 0.4148 0.0
H95 H 0.28631 0.89915 0.49716 0.0
C96 C 0.37972 0.07629 0.54238 0.0
C97 C 0.41884 0.11886 0.53518 0.0
C98 C 0.4458 0.12365 0.505 0.0
C99 C 0.43469 0.08616 0.48287 0.0
C100 C 0.3961 0.04446 0.49099 0.0
C101 C 0.36871 0.03956 0.51977 0.0
C102 C 0.32939 0.99116 0.52304 0.0
C103 C 0.3313 0.96981 0.55863 0.0
C104 C 0.28343 0.98924 0.51825 0.0
C105 C 0.33941 0.96922 0.49207 0.0
C106 C 0.3781 1.00041 0.47394 0.0
C107 C 0.39573 0.98727 0.44585 0.0
C108 C 0.37332 0.94105 0.43619 0.0
C109 C 0.33344 0.90871 0.45431 0.0
C110 C 0.31614 0.92327 0.4823 0.0
H111 H 0.41197 0.35741 0.61579 0.0
H112 H 0.32762 0.21296 0.63872 0.0
H113 H 0.27158 0.22757 0.6684 0.0
H114 H 0.39652 0.39683 0.69634 0.0
H115 H 0.39427 0.44503 0.67868 0.0
H116 H 0.42516 0.4229 0.65527 0.0
H117 H 0.37724 0.41221 0.59869 0.0
H118 H 0.34628 0.43458 0.6219 0.0
H119 H 0.31588 0.37936 0.6011 0.0
H120 H 0.23069 0.25863 0.7029 0.0
H121 H 0.20484 0.30392 0.73658 0.0
H122 H 0.31275 0.42778 0.689 0.0
C123 C 0.38122 0.32868 0.62633 0.0
C124 C 0.37428 0.284 0.62487 0.0
C125 C 0.33375 0.24747 0.63935 0.0
C126 C 0.30163 0.25541 0.65627 0.0
C127 C 0.31011 0.29996 0.65808 0.0
C128 C 0.34856 0.33595 0.64309 0.0
C129 C 0.35077 0.38089 0.65061 0.0
C130 C 0.39425 0.4133 0.67147 0.0
C131 C 0.34733 0.40306 0.61601 0.0
C132 C 0.30841 0.36465 0.67323 0.0
C133 C 0.2854 0.3178 0.67709 0.0
C134 C 0.24775 0.2952 0.69942 0.0
C135 C 0.23343 0.32117 0.71854 0.0
C136 C 0.25641 0.36913 0.7149 0.0
C137 C 0.29388 0.39101 0.6915 0.0
H138 H 0.92368 0.2881 0.90827 0.0
H139 H 0.85322 0.34751 0.85382 0.0
H140 H 0.92055 0.3915 0.81532 0.0
H141 H 0.03426 0.38577 0.90805 0.0
H142 H 0.06355 0.35475 0.89975 0.0
H143 H 0.00955 0.32742 0.92248 0.0
H144 H 0.97693 0.26276 0.87561 0.0
H145 H 0.0309 0.28989 0.85274 0.0
H146 H 0.97948 0.2769 0.82916 0.0
H147 H 0.99817 0.43382 0.78628 0.0
H148 H 0.07772 0.466 0.76525 0.0
H149 H 0.09481 0.37422 0.83534 0.0
C150 C 0.92239 0.31023 0.88814 0.0
C151 C 0.88341 0.31466 0.88412 0.0
C152 C 0.88277 0.3436 0.85728 0.0
C153 C 0.92085 0.36877 0.83536 0.0
C154 C 0.95893 0.36393 0.84019 0.0
C155 C 0.95971 0.33485 0.86556 0.0
C156 C 1.00466 0.33548 0.86511 0.0
C157 C 0.02946 0.35184 0.90098 0.0
C158 C 0.99755 0.28846 0.85505 0.0
C159 C 0.02938 0.3701 0.83601 0.0
C160 C 1.00259 0.3864 0.82213 0.0
C161 C 0.0192 0.42077 0.79652 0.0
C162 C 0.06436 0.43892 0.78482 0.0
C163 C 0.09204 0.4221 0.79831 0.0
C164 C 0.07405 0.38701 0.82401 0.0
H165 H 0.65854 0.94576 0.06535 0.0
H166 H 0.54061 0.8616 0.99947 0.0
H167 H 0.56063 0.92803 0.96064 0.0
H168 H 0.65234 0.04603 0.06207 0.0
H169 H 0.71316 0.08399 0.06002 0.0
H170 H 0.69045 0.02941 0.08139 0.0
H171 H 0.73898 0.00939 0.0401 0.0
H172 H 0.76189 0.064 0.01859 0.0
H173 H 0.73419 0.01247 0.9926 0.0
H174 H 0.5901 1.0059 0.93253 0.0
H175 H 0.62945 0.08722 0.91499 0.0
H176 H 0.73063 0.11832 0.99719 0.0
C177 C 0.63707 0.94118 0.04261 0.0
C178 C 0.59789 0.89865 0.03546 0.0
C179 C 0.57084 0.89393 1.00534 0.0
C180 C 0.58192 0.93145 0.98319 0.0
C181 C 0.62058 0.97311 0.99125 0.0
C182 C 0.64805 0.97795 0.01999 0.0
C183 C 0.68745 0.02631 0.02318 0.0
C184 C 0.68571 0.04768 0.05877 0.0
C185 C 0.73334 0.02813 0.01832 0.0
C186 C 0.67739 0.04831 0.99222 0.0
C187 C 0.63859 0.01718 0.97416 0.0
C188 C 0.62093 0.03038 0.94609 0.0
C189 C 0.64341 0.0766 0.93638 0.0
C190 C 0.68339 0.10887 0.95442 0.0
C191 C 0.70072 0.09425 0.9824 0.0
H192 H 0.70502 0.58984 0.18848 0.0
H193 H 0.81253 0.71343 0.23657 0.0
H194 H 0.7865 0.75883 0.20316 0.0
H195 H 0.70183 0.63912 0.10077 0.0
H196 H 0.6405 0.60576 0.09837 0.0
H197 H 0.67193 0.58371 0.1214 0.0
H198 H 0.62396 0.57217 0.17808 0.0
H199 H 0.59253 0.59424 0.1553 0.0
H200 H 0.62138 0.61987 0.19638 0.0
H201 H 0.74542 0.78998 0.16891 0.0
H202 H 0.68919 0.80458 0.13941 0.0
H203 H 0.60539 0.6603 0.11579 0.0
C204 C 0.72379 0.62658 0.19111 0.0
C205 C 0.76117 0.64835 0.21461 0.0
C206 C 0.78401 0.69627 0.21844 0.0
C207 C 0.76961 0.72231 0.19947 0.0
C208 C 0.73203 0.69982 0.17704 0.0
C209 C 0.70924 0.65301 0.17288 0.0
C210 C 0.66678 0.63685 0.15033 0.0
C211 C 0.6705 0.61508 0.11566 0.0
C212 C 0.62363 0.60385 0.17129 0.0
C213 C 0.66872 0.68173 0.14323 0.0
C214 C 0.70712 0.71768 0.15829 0.0
C215 C 0.71542 0.76219 0.1567 0.0
C216 C 0.6832 0.77012 0.13987 0.0
C217 C 0.64279 0.73363 0.12523 0.0
C218 C 0.63603 0.689 0.12647 0.0
H219 H 0.09339 0.72896 0.40838 0.0
H220 H 0.16403 0.66964 0.35426 0.0
H221 H 0.09671 0.6255 0.31577 0.0
H222 H 0.98282 0.63116 0.40819 0.0
H223 H 0.9535 0.66214 0.39972 0.0
H224 H 1.00747 0.68951 0.42252 0.0
H225 H 0.0401 0.75415 0.37555 0.0
H226 H 0.98616 0.72697 0.35262 0.0
H227 H 0.03762 0.74 0.32914 0.0
H228 H 0.01912 0.58309 0.28665 0.0
H229 H 0.93962 0.55092 0.26545 0.0
H230 H 0.92236 0.64268 0.33525 0.0
C231 C 0.09472 0.70681 0.38833 0.0
C232 C 0.13375 0.70246 0.38439 0.0
C233 C 0.13444 0.67349 0.35765 0.0
C234 C 0.09637 0.64824 0.33573 0.0
C235 C 0.05824 0.65302 0.34047 0.0
C236 C 0.05741 0.6821 0.36575 0.0
C237 C 0.01245 0.68144 0.36519 0.0
C238 C 0.9876 0.66507 0.40103 0.0
C239 C 0.01952 0.72843 0.35501 0.0
C240 C 0.98778 0.6468 0.33612 0.0
C241 C 0.01461 0.6305 0.32237 0.0
C242 C 0.99806 0.59613 0.2968 0.0
C243 C 0.95292 0.57799 0.285 0.0
C244 C 0.92522 0.59481 0.29835 0.0
C245 C 0.94314 0.62988 0.32402 0.0
H246 H 0.57398 0.32355 0.47553 0.0
H247 H 0.5632 0.43497 0.52143 0.0
H248 H 0.60428 0.48339 0.47013 0.0
H249 H 0.68729 0.39231 0.44415 0.0
H250 H 0.67925 0.36046 0.40386 0.0
H251 H 0.645 0.33256 0.44238 0.0
H252 H 0.57153 0.30632 0.40536 0.0
H253 H 0.6056 0.33415 0.36668 0.0
H254 H 0.56363 0.34805 0.38173 0.0
H255 H 0.6486 0.5208 0.4161 0.0
H256 H 0.69762 0.5471 0.36324 0.0
H257 H 0.68355 0.41321 0.35212 0.0
C258 C 0.57969 0.3579 0.47439 0.0
C259 C 0.56517 0.37549 0.5023 0.0
C260 C 0.57404 0.42086 0.50033 0.0
C261 C 0.59716 0.44857 0.47124 0.0
C262 C 0.61155 0.43055 0.44439 0.0
C263 C 0.60347 0.38642 0.44565 0.0
C264 C 0.62559 0.37687 0.41431 0.0
C265 C 0.66141 0.36485 0.42694 0.0
C266 C 0.58942 0.3391 0.39062 0.0
C267 C 0.64776 0.42272 0.39561 0.0
C268 C 0.6386 0.45285 0.4133 0.0
C269 C 0.65591 0.49752 0.40189 0.0
C270 C 0.68382 0.51211 0.37177 0.0
C271 C 0.69461 0.4823 0.35341 0.0
C272 C 0.67586 0.4368 0.36541 0.0
H273 H 0.23717 0.7052 0.55296 0.0
H274 H 0.32019 0.66812 0.48941 0.0
H275 H 0.32272 0.62203 0.53944 0.0
H276 H 0.29647 0.71784 0.63504 0.0
H277 H 0.24573 0.69562 0.6619 0.0
H278 H 0.24926 0.7242 0.62069 0.0
H279 H 0.17495 0.65334 0.59884 0.0
H280 H 0.17114 0.62457 0.64001 0.0
H281 H 0.17133 0.59853 0.59836 0.0
H282 H 0.31356 0.57766 0.59621 0.0
H283 H 0.29803 0.54316 0.65628 0.0
H284 H 0.22559 0.61399 0.68337 0.0
C285 C 0.25566 0.68716 0.54947 0.0
C286 C 0.27817 0.6899 0.51721 0.0
C287 C 0.30266 0.66643 0.51391 0.0
C288 C 0.3042 0.64012 0.54213 0.0
C289 C 0.28164 0.6382 0.57361 0.0
C290 C 0.25823 0.6615 0.57751 0.0
C291 C 0.23813 0.65517 0.61439 0.0
C292 C 0.25864 0.70093 0.63416 0.0
C293 C 0.18578 0.63149 0.61279 0.0
C294 C 0.25359 0.62442 0.63063 0.0
C295 C 0.27826 0.61459 0.60663 0.0
C296 C 0.29465 0.58547 0.61531 0.0
C297 C 0.28562 0.566 0.64942 0.0
C298 C 0.26106 0.57631 0.67453 0.0
C299 C 0.24507 0.60602 0.66491 0.0
H300 H 0.59741 0.2145 0.83561 0.0
H301 H 0.73897 0.31461 0.81453 0.0
H302 H 0.71758 0.32778 0.75464 0.0
H303 H 0.57235 0.16606 0.7475 0.0
H304 H 0.51502 0.15644 0.7474 0.0
H305 H 0.54152 0.15568 0.78868 0.0
H306 H 0.52643 0.2178 0.8141 0.0
H307 H 0.49979 0.21867 0.77294 0.0
H308 H 0.54683 0.2706 0.79023 0.0
H309 H 0.67957 0.33253 0.69811 0.0
H310 H 0.62885 0.32482 0.64799 0.0
H311 H 0.51346 0.21769 0.70493 0.0
C312 C 0.6239 0.23932 0.81844 0.0
C313 C 0.66978 0.26385 0.82974 0.0
C314 C 0.70358 0.29553 0.80635 0.0
C315 C 0.69175 0.30325 0.77235 0.0
C316 C 0.64612 0.27848 0.76202 0.0
C317 C 0.61283 0.24681 0.78426 0.0
C318 C 0.56647 0.22392 0.76658 0.0
C319 C 0.54776 0.17248 0.76229 0.0
C320 C 0.53292 0.23333 0.78719 0.0
C321 C 0.57871 0.24799 0.73102 0.0
C322 C 0.62474 0.27961 0.72897 0.0
C323 C 0.64358 0.3075 0.69927 0.0
C324 C 0.61455 0.30296 0.671 0.0
C325 C 0.56741 0.27032 0.67245 0.0
C326 C 0.54951 0.24236 0.7028 0.0
H327 H 0.33354 0.60378 0.85246 0.0
H328 H 0.31934 0.46987 0.86406 0.0
H329 H 0.36815 0.49618 0.91705 0.0
H330 H 0.45327 0.66886 0.88226 0.0
H331 H 0.4452 0.71066 0.9055 0.0
H332 H 0.41121 0.6825 0.86687 0.0
H333 H 0.33757 0.65632 0.90359 0.0
H334 H 0.37129 0.68423 0.94232 0.0
H335 H 0.32913 0.62446 0.944 0.0
H336 H 0.41235 0.53363 0.97112 0.0
H337 H 0.45339 0.58215 0.02235 0.0
H338 H 0.44281 0.69355 0.97593 0.0
C339 C 0.34118 0.5802 0.86588 0.0
C340 C 0.32244 0.53468 0.85397 0.0
C341 C 0.33314 0.50487 0.8725 0.0
C342 C 0.36094 0.51947 0.90269 0.0
C343 C 0.37824 0.56416 0.914 0.0
C344 C 0.36924 0.59432 0.89612 0.0
C345 C 0.3913 0.64017 0.9148 0.0
C346 C 0.42739 0.67777 0.89093 0.0
C347 C 0.35516 0.65197 0.92689 0.0
C348 C 0.4132 0.63057 0.94629 0.0
C349 C 0.40514 0.58644 0.94516 0.0
C350 C 0.41947 0.56846 0.97212 0.0
C351 C 0.44258 0.59622 1.00117 0.0
C352 C 0.45152 0.64163 1.00297 0.0
C353 C 0.43704 0.65917 0.97495 0.0
H354 H 0.78021 0.31228 0.05272 0.0
H355 H 0.69791 0.35019 0.98889 0.0
H356 H 0.69553 0.39632 0.03886 0.0
H357 H 0.7207 0.2997 0.13458 0.0
H358 H 0.7713 0.32158 0.16161 0.0
H359 H 0.7678 0.29309 0.1204 0.0
H360 H 0.84241 0.3638 0.09878 0.0
H361 H 0.84619 0.39247 0.13994 0.0
H362 H 0.84636 0.41876 0.09827 0.0
H363 H 0.70467 0.44054 0.09563 0.0
H364 H 0.72002 0.47476 0.15576 0.0
H365 H 0.79173 0.40322 0.18312 0.0
C366 C 0.76192 0.33052 0.04915 0.0
C367 C 0.73956 0.328 0.01683 0.0
C368 C 0.71532 0.35171 0.01343 0.0
C369 C 0.71387 0.37805 0.04162 0.0
C370 C 0.73626 0.37974 0.07317 0.0
C371 C 0.75943 0.35621 0.07716 0.0
C372 C 0.77935 0.36229 0.11411 0.0
C373 C 0.75853 0.31644 0.13383 0.0
C374 C 0.83168 0.38573 0.11267 0.0
C375 C 0.76404 0.39317 0.13028 0.0
C376 C 0.73962 0.40327 0.10618 0.0
C377 C 0.72339 0.43252 0.1148 0.0
C378 C 0.73232 0.45183 0.14895 0.0
C379 C 0.75662 0.44124 0.17415 0.0
C380 C 0.77246 0.4114 0.16458 0.0
H381 H 0.41949 0.80415 0.33539 0.0
H382 H 0.27838 0.70188 0.31536 0.0
H383 H 0.29969 0.68845 0.25557 0.0
H384 H 0.44289 0.85127 0.24666 0.0
H385 H 0.50062 0.86205 0.24647 0.0
H386 H 0.4742 0.86291 0.28773 0.0
H387 H 0.4911 0.80227 0.31387 0.0
H388 H 0.51765 0.8013 0.27274 0.0
H389 H 0.47142 0.74921 0.29061 0.0
H390 H 0.33767 0.68366 0.19912 0.0
H391 H 0.3883 0.69146 0.14897 0.0
H392 H 0.5032 0.80068 0.20477 0.0
C393 C 0.39309 0.77881 0.31847 0.0
C394 C 0.34736 0.75374 0.33004 0.0
C395 C 0.31365 0.72139 0.30696 0.0
C396 C 0.32544 0.71352 0.27302 0.0
C397 C 0.37092 0.73883 0.26243 0.0
C398 C 0.4041 0.77117 0.28435 0.0
C399 C 0.4503 0.79452 0.26642 0.0
C400 C 0.46803 0.84572 0.26153 0.0
C401 C 0.48463 0.78631 0.28714 0.0
C402 C 0.43811 0.76987 0.23113 0.0
C403 C 0.39224 0.73763 0.2294 0.0
C404 C 0.37353 0.70916 0.20002 0.0
C405 C 0.40251 0.71376 0.17172 0.0
C406 C 0.4495 0.74699 0.17285 0.0
C407 C 0.46726 0.77553 0.20289 0.0
loop_
_geom_bond_atom_site_label_1
_geom_bond_atom_site_label_2
_geom_bond_distance
_geom_bond_site_symmetry_2
_ccdc_geom_bond_type
O0 Cd1 2.223 . S
O0 C8 1.315 . S
Cd1 O0 2.223 . S
Cd1 O4 2.297 . S
Cd1 O5 2.439 . S
Cd1 O11 2.240 . S
Cd2 O3 2.240 . S
Cd2 O10 2.223 . S
Cd2 O12 2.297 . S
Cd2 O13 2.439 . S
O3 Cd2 2.240 . S
O3 C8 1.279 . S
O4 Cd1 2.297 . S
O4 C6 1.247 . S
O5 Cd1 2.439 . S
O5 C6 1.208 . S
C6 O4 1.247 . S
C6 O5 1.208 . S
C7 O12 1.247 . S
C7 O13 1.208 . S
C8 O0 1.315 . S
C8 O3 1.279 . S
C9 O10 1.315 . S
C9 O11 1.279 . S
O10 Cd2 2.223 . S
O10 C9 1.315 . S
O11 Cd1 2.240 . S
O11 C9 1.279 . S
O12 Cd2 2.297 . S
O12 C7 1.247 . S
O13 Cd2 2.439 . S
O13 C7 1.208 . S
O14 Cd15 2.223 . S
O14 C22 1.315 . S
Cd15 O14 2.223 . S
Cd15 O18 2.297 . S
Cd15 O19 2.439 . S
Cd15 O25 2.240 . S
Cd16 O17 2.240 . S
Cd16 O24 2.223 . S
Cd16 O26 2.297 . S
Cd16 O27 2.439 . S
O17 Cd16 2.240 . S
O17 C22 1.279 . S
O18 Cd15 2.297 . S
O18 C20 1.247 . S
O19 Cd15 2.439 . S
O19 C20 1.208 . S
C20 O18 1.247 . S
C20 O19 1.208 . S
C21 O26 1.247 . S
C21 O27 1.208 . S
C22 O14 1.315 . S
C22 O17 1.279 . S
C23 O24 1.315 . S
C23 O25 1.279 . S
O24 Cd16 2.223 . S
O24 C23 1.315 . S
O25 Cd15 2.240 . S
O25 C23 1.279 . S
O26 Cd16 2.297 . S
O26 C21 1.247 . S
O27 Cd16 2.439 . S
O27 C21 1.208 . S
O28 Cd29 2.223 . S
O28 C36 1.315 . S
Cd29 O28 2.223 . S
Cd29 O32 2.297 . S
Cd29 O33 2.439 . S
Cd29 O39 2.240 . S
Cd30 O31 2.240 . S
Cd30 O38 2.223 . S
Cd30 O40 2.297 . S
Cd30 O41 2.439 . S
O31 Cd30 2.240 . S
O31 C36 1.279 . S
O32 Cd29 2.297 . S
O32 C34 1.247 . S
O33 Cd29 2.439 . S
O33 C34 1.208 . S
C34 O32 1.247 . S
C34 O33 1.208 . S
C35 O40 1.247 . S
C35 O41 1.208 . S
C36 O28 1.315 . S
C36 O31 1.279 . S
C37 O38 1.315 . S
C37 O39 1.279 . S
O38 Cd30 2.223 . S
O38 C37 1.315 . S
O39 Cd29 2.240 . S
O39 C37 1.279 . S
O40 Cd30 2.297 . S
O40 C35 1.247 . S
O41 Cd30 2.439 . S
O41 C35 1.208 . S
O42 Cd43 2.223 . S
O42 C50 1.315 . S
Cd43 O42 2.223 . S
Cd43 O46 2.297 . S
Cd43 O47 2.439 . S
Cd43 O53 2.240 . S
Cd44 O45 2.240 . S
Cd44 O52 2.223 . S
Cd44 O54 2.297 . S
Cd44 O55 2.439 . S
O45 Cd44 2.240 . S
O45 C50 1.279 . S
O46 Cd43 2.297 . S
O46 C48 1.247 . S
O47 Cd43 2.439 . S
O47 C48 1.208 . S
C48 O46 1.247 . S
C48 O47 1.208 . S
C49 O54 1.247 . S
C49 O55 1.208 . S
C50 O42 1.315 . S
C50 O45 1.279 . S
C51 O52 1.315 . S
C51 O53 1.279 . S
O52 Cd44 2.223 . S
O52 C51 1.315 . S
O53 Cd43 2.240 . S
O53 C51 1.279 . S
O54 Cd44 2.297 . S
O54 C49 1.247 . S
O55 Cd44 2.439 . S
O55 C49 1.208 . S
O56 Cd57 2.223 . S
O56 C64 1.315 . S
Cd57 O56 2.223 . S
Cd57 O60 2.297 . S
Cd57 O61 2.439 . S
Cd57 O67 2.240 . S
Cd58 O59 2.240 . S
Cd58 O66 2.223 . S
Cd58 O68 2.297 . S
Cd58 O69 2.439 . S
O59 Cd58 2.240 . S
O59 C64 1.279 . S
O60 Cd57 2.297 . S
O60 C62 1.247 . S
O61 Cd57 2.439 . S
O61 C62 1.208 . S
C62 O60 1.247 . S
C62 O61 1.208 . S
C63 O68 1.247 . S
C63 O69 1.208 . S
C64 O56 1.315 . S
C64 O59 1.279 . S
C65 O66 1.315 . S
C65 O67 1.279 . S
O66 Cd58 2.223 . S
O66 C65 1.315 . S
O67 Cd57 2.240 . S
O67 C65 1.279 . S
O68 Cd58 2.297 . S
O68 C63 1.247 . S
O69 Cd58 2.439 . S
O69 C63 1.208 . S
O70 Cd71 2.223 . S
O70 C78 1.315 . S
Cd71 O70 2.223 . S
Cd71 O74 2.297 . S
Cd71 O75 2.439 . S
Cd71 O81 2.240 . S
Cd72 O73 2.240 . S
Cd72 O80 2.223 . S
Cd72 O82 2.297 . S
Cd72 O83 2.439 . S
O73 Cd72 2.240 . S
O73 C78 1.279 . S
O74 Cd71 2.297 . S
O74 C76 1.247 . S
O75 Cd71 2.439 . S
O75 C76 1.208 . S
C76 O74 1.247 . S
C76 O75 1.208 . S
C77 O82 1.247 . S
C77 O83 1.208 . S
C78 O70 1.315 . S
C78 O73 1.279 . S
C79 O80 1.315 . S
C79 O81 1.279 . S
O80 Cd72 2.223 . S
O80 C79 1.315 . S
O81 Cd71 2.240 . S
O81 C79 1.279 . S
O82 Cd72 2.297 . S
O82 C77 1.247 . S
O83 Cd72 2.439 . S
O83 C77 1.208 . S
H84 C96 0.930 . S
H85 C98 0.930 . S
H86 C99 0.930 . S
H87 C103 0.959 . S
H88 C103 0.959 . S
H89 C103 0.961 1_545 S
H90 C104 0.960 . S
H91 C104 0.961 1_565 S
H92 C104 0.959 . S
H93 C107 0.929 . S
H94 C108 0.931 . S
H95 C110 0.930 . S
C96 H84 0.930 . S
C96 C97 1.399 . S
C96 C101 1.399 . S
C97 C96 1.399 . S
C97 C98 1.376 . S
C98 H85 0.930 . S
C98 C97 1.376 . S
C98 C99 1.388 1_545 S
C99 H86 0.930 . S
C99 C98 1.388 1_565 S
C99 C100 1.390 . S
C100 C99 1.390 . S
C100 C101 1.394 1_565 S
C100 C106 1.465 . S
C101 C96 1.399 . S
C101 C100 1.394 1_545 S
C101 C102 1.516 1_545 S
C102 C101 1.516 1_565 S
C102 C103 1.502 . S
C102 C104 1.561 1_565 S
C102 C105 1.526 . S
C103 H87 0.959 . S
C103 H88 0.959 . S
C103 H89 0.961 1_565 S
C103 C102 1.502 . S
C104 H90 0.960 . S
C104 H91 0.961 1_545 S
C104 H92 0.959 . S
C104 C102 1.561 1_545 S
C105 C102 1.526 . S
C105 C106 1.396 . S
C105 C110 1.390 . S
C106 C100 1.465 . S
C106 C105 1.396 . S
C106 C107 1.399 . S
C107 H93 0.929 . S
C107 C106 1.399 . S
C107 C108 1.385 . S
C108 H94 0.931 . S
C108 C107 1.385 . S
C108 C109 1.389 . S
C109 C108 1.389 . S
C109 C110 1.387 . S
C110 H95 0.930 . S
C110 C105 1.390 . S
C110 C109 1.387 . S
H111 C123 0.930 . S
H112 C125 0.930 . S
H113 C126 0.930 . S
H114 C130 0.959 . S
H115 C130 0.959 . S
H116 C130 0.961 . S
H117 C131 0.960 . S
H118 C131 0.961 . S
H119 C131 0.959 . S
H120 C134 0.929 . S
H121 C135 0.931 . S
H122 C137 0.930 . S
C123 H111 0.930 . S
C123 C124 1.399 . S
C123 C128 1.399 . S
C124 C123 1.399 . S
C124 C125 1.376 . S
C125 H112 0.930 . S
C125 C124 1.376 . S
C125 C126 1.388 . S
C126 H113 0.930 . S
C126 C125 1.388 . S
C126 C127 1.390 . S
C127 C126 1.390 . S
C127 C128 1.394 . S
C127 C133 1.465 . S
C128 C123 1.399 . S
C128 C127 1.394 . S
C128 C129 1.516 . S
C129 C128 1.516 . S
C129 C130 1.502 . S
C129 C131 1.561 . S
C129 C132 1.526 . S
C130 H114 0.959 . S
C130 H115 0.959 . S
C130 H116 0.961 . S
C130 C129 1.502 . S
C131 H117 0.960 . S
C131 H118 0.961 . S
C131 H119 0.959 . S
C131 C129 1.561 . S
C132 C129 1.526 . S
C132 C133 1.396 . S
C132 C137 1.390 . S
C133 C127 1.465 . S
C133 C132 1.396 . S
C133 C134 1.399 . S
C134 H120 0.929 . S
C134 C133 1.399 . S
C134 C135 1.385 . S
C135 H121 0.931 . S
C135 C134 1.385 . S
C135 C136 1.389 . S
C136 C135 1.389 . S
C136 C137 1.387 . S
C137 H122 0.930 . S
C137 C132 1.390 . S
C137 C136 1.387 . S
H138 C150 0.930 . S
H139 C152 0.930 . S
H140 C153 0.930 . S
H141 C157 0.959 . S
H142 C157 0.959 . S
H143 C157 0.961 1_655 S
H144 C158 0.960 . S
H145 C158 0.961 1_455 S
H146 C158 0.959 . S
H147 C161 0.929 . S
H148 C162 0.931 . S
H149 C164 0.930 . S
C150 H138 0.930 . S
C150 C151 1.399 . S
C150 C155 1.399 . S
C151 C150 1.399 . S
C151 C152 1.376 . S
C152 H139 0.930 . S
C152 C151 1.376 . S
C152 C153 1.388 1_655 S
C153 H140 0.930 . S
C153 C152 1.388 1_455 S
C153 C154 1.390 . S
C154 C153 1.390 . S
C154 C155 1.394 1_455 S
C154 C160 1.465 . S
C155 C150 1.399 . S
C155 C154 1.394 1_655 S
C155 C156 1.516 1_655 S
C156 C155 1.516 1_455 S
C156 C157 1.502 . S
C156 C158 1.561 1_455 S
C156 C159 1.526 . S
C157 H141 0.959 . S
C157 H142 0.959 . S
C157 H143 0.961 1_455 S
C157 C156 1.502 . S
C158 H144 0.960 . S
C158 H145 0.961 1_655 S
C158 H146 0.959 . S
C158 C156 1.561 1_655 S
C159 C156 1.526 . S
C159 C160 1.396 . S
C159 C164 1.390 . S
C160 C154 1.465 . S
C160 C159 1.396 . S
C160 C161 1.399 . S
C161 H147 0.929 . S
C161 C160 1.399 . S
C161 C162 1.385 . S
C162 H148 0.931 . S
C162 C161 1.385 . S
C162 C163 1.389 . S
C163 C162 1.389 . S
C163 C164 1.387 . S
C164 H149 0.930 . S
C164 C159 1.390 . S
C164 C163 1.387 . S
H165 C177 0.930 . S
H166 C179 0.930 . S
H167 C180 0.930 . S
H168 C184 0.959 . S
H169 C184 0.959 . S
H170 C184 0.961 . S
H171 C185 0.960 . S
H172 C185 0.961 . S
H173 C185 0.959 . S
H174 C188 0.929 . S
H175 C189 0.931 . S
H176 C191 0.930 1_554 S
C177 H165 0.930 . S
C177 C178 1.399 . S
C177 C182 1.399 1_565 S
C178 C177 1.399 . S
C178 C179 1.376 . S
C179 H166 0.930 . S
C179 C178 1.376 . S
C179 C180 1.388 1_554 S
C180 H167 0.930 . S
C180 C179 1.388 1_556 S
C180 C181 1.390 1_566 S
C181 C180 1.390 1_544 S
C181 C182 1.394 . S
C181 C187 1.465 1_554 S
C182 C177 1.399 1_545 S
C182 C181 1.394 . S
C182 C183 1.516 . S
C183 C182 1.516 . S
C183 C184 1.502 . S
C183 C185 1.561 . S
C183 C186 1.526 . S
C184 H168 0.959 . S
C184 H169 0.959 . S
C184 H170 0.961 . S
C184 C183 1.502 . S
C185 H171 0.960 . S
C185 H172 0.961 . S
C185 H173 0.959 . S
C185 C183 1.561 . S
C186 C183 1.526 . S
C186 C187 1.396 1_554 S
C186 C191 1.390 1_554 S
C187 C181 1.465 1_556 S
C187 C186 1.396 1_556 S
C187 C188 1.399 . S
C188 H174 0.929 . S
C188 C187 1.399 . S
C188 C189 1.385 . S
C189 H175 0.931 . S
C189 C188 1.385 . S
C189 C190 1.389 . S
C190 C189 1.389 . S
C190 C191 1.387 . S
C191 H176 0.930 1_556 S
C191 C186 1.390 1_556 S
C191 C190 1.387 . S
H192 C204 0.930 . S
H193 C206 0.930 . S
H194 C207 0.930 . S
H195 C211 0.959 . S
H196 C211 0.959 . S
H197 C211 0.961 . S
H198 C212 0.960 . S
H199 C212 0.961 . S
H200 C212 0.959 . S
H201 C215 0.929 . S
H202 C216 0.931 . S
H203 C218 0.930 . S
C204 H192 0.930 . S
C204 C205 1.399 . S
C204 C209 1.399 . S
C205 C204 1.399 . S
C205 C206 1.376 . S
C206 H193 0.930 . S
C206 C205 1.376 . S
C206 C207 1.388 . S
C207 H194 0.930 . S
C207 C206 1.388 . S
C207 C208 1.390 . S
C208 C207 1.390 . S
C208 C209 1.394 . S
C208 C214 1.465 . S
C209 C204 1.399 . S
C209 C208 1.394 . S
C209 C210 1.516 . S
C210 C209 1.516 . S
C210 C211 1.502 . S
C210 C212 1.561 . S
C210 C213 1.526 . S
C211 H195 0.959 . S
C211 H196 0.959 . S
C211 H197 0.961 . S
C211 C210 1.502 . S
C212 H198 0.960 . S
C212 H199 0.961 . S
C212 H200 0.959 . S
C212 C210 1.561 . S
C213 C210 1.526 . S
C213 C214 1.396 . S
C213 C218 1.390 . S
C214 C208 1.465 . S
C214 C213 1.396 . S
C214 C215 1.399 . S
C215 H201 0.929 . S
C215 C214 1.399 . S
C215 C216 1.385 . S
C216 H202 0.931 . S
C216 C215 1.385 . S
C216 C217 1.389 . S
C217 C216 1.389 . S
C217 C218 1.387 . S
C218 H203 0.930 . S
C218 C213 1.390 . S
C218 C217 1.387 . S
H219 C231 0.930 . S
H220 C233 0.930 . S
H221 C234 0.930 . S
H222 C238 0.959 . S
H223 C238 0.959 . S
H224 C238 0.961 . S
H225 C239 0.960 . S
H226 C239 0.961 . S
H227 C239 0.959 . S
H228 C242 0.929 . S
H229 C243 0.931 . S
H230 C245 0.930 . S
C231 H219 0.930 . S
C231 C232 1.399 . S
C231 C236 1.399 1_455 S
C232 C231 1.399 . S
C232 C233 1.376 . S
C233 H220 0.930 . S
C233 C232 1.376 . S
C233 C234 1.388 . S
C234 H221 0.930 . S
C234 C233 1.388 . S
C234 C235 1.390 1_455 S
C235 C234 1.390 1_655 S
C235 C236 1.394 . S
C235 C241 1.465 . S
C236 C231 1.399 1_655 S
C236 C235 1.394 . S
C236 C237 1.516 . S
C237 C236 1.516 . S
C237 C238 1.502 . S
C237 C239 1.561 . S
C237 C240 1.526 . S
C238 H222 0.959 . S
C238 H223 0.959 . S
C238 H224 0.961 . S
C238 C237 1.502 . S
C239 H225 0.960 . S
C239 H226 0.961 . S
C239 H227 0.959 . S
C239 C237 1.561 . S
C240 C237 1.526 . S
C240 C241 1.396 . S
C240 C245 1.390 . S
C241 C235 1.465 . S
C241 C240 1.396 . S
C241 C242 1.399 . S
C242 H228 0.929 . S
C242 C241 1.399 . S
C242 C243 1.385 . S
C243 H229 0.931 . S
C243 C242 1.385 . S
C243 C244 1.389 . S
C244 C243 1.389 . S
C244 C245 1.387 . S
C245 H230 0.930 . S
C245 C240 1.390 . S
C245 C244 1.387 . S
H246 C258 0.930 . S
H247 C260 0.930 . S
H248 C261 0.930 . S
H249 C265 0.959 . S
H250 C265 0.959 . S
H251 C265 0.961 . S
H252 C266 0.960 . S
H253 C266 0.961 . S
H254 C266 0.959 . S
H255 C269 0.929 . S
H256 C270 0.931 . S
H257 C272 0.930 . S
C258 H246 0.930 . S
C258 C259 1.399 . S
C258 C263 1.399 . S
C259 C258 1.399 . S
C259 C260 1.376 . S
C260 H247 0.930 . S
C260 C259 1.376 . S
C260 C261 1.388 . S
C261 H248 0.930 . S
C261 C260 1.388 . S
C261 C262 1.390 . S
C262 C261 1.390 . S
C262 C263 1.394 . S
C262 C268 1.465 . S
C263 C258 1.399 . S
C263 C262 1.394 . S
C263 C264 1.516 . S
C264 C263 1.516 . S
C264 C265 1.502 . S
C264 C266 1.561 . S
C264 C267 1.526 . S
C265 H249 0.959 . S
C265 H250 0.959 . S
C265 H251 0.961 . S
C265 C264 1.502 . S
C266 H252 0.960 . S
C266 H253 0.961 . S
C266 H254 0.959 . S
C266 C264 1.561 . S
C267 C264 1.526 . S
C267 C268 1.396 . S
C267 C272 1.390 . S
C268 C262 1.465 . S
C268 C267 1.396 . S
C268 C269 1.399 . S
C269 H255 0.929 . S
C269 C268 1.399 . S
C269 C270 1.385 . S
C270 H256 0.931 . S
C270 C269 1.385 . S
C270 C271 1.389 . S
C271 C270 1.389 . S
C271 C272 1.387 . S
C272 H257 0.930 . S
C272 C267 1.390 . S
C272 C271 1.387 . S
H273 C285 0.930 . S
H274 C287 0.930 . S
H275 C288 0.930 . S
H276 C292 0.959 . S
H277 C292 0.959 . S
H278 C292 0.961 . S
H279 C293 0.960 . S
H280 C293 0.961 . S
H281 C293 0.959 . S
H282 C296 0.929 . S
H283 C297 0.931 . S
H284 C299 0.930 . S
C285 H273 0.930 . S
C285 C286 1.399 . S
C285 C290 1.399 . S
C286 C285 1.399 . S
C286 C287 1.376 . S
C287 H274 0.930 . S
C287 C286 1.376 . S
C287 C288 1.388 . S
C288 H275 0.930 . S
C288 C287 1.388 . S
C288 C289 1.390 . S
C289 C288 1.390 . S
C289 C290 1.394 . S
C289 C295 1.465 . S
C290 C285 1.399 . S
C290 C289 1.394 . S
C290 C291 1.516 . S
C291 C290 1.516 . S
C291 C292 1.502 . S
C291 C293 1.561 . S
C291 C294 1.526 . S
C292 H276 0.959 . S
C292 H277 0.959 . S
C292 H278 0.961 . S
C292 C291 1.502 . S
C293 H279 0.960 . S
C293 H280 0.961 . S
C293 H281 0.959 . S
C293 C291 1.561 . S
C294 C291 1.526 . S
C294 C295 1.396 . S
C294 C299 1.390 . S
C295 C289 1.465 . S
C295 C294 1.396 . S
C295 C296 1.399 . S
C296 H282 0.929 . S
C296 C295 1.399 . S
C296 C297 1.385 . S
C297 H283 0.931 . S
C297 C296 1.385 . S
C297 C298 1.389 . S
C298 C297 1.389 . S
C298 C299 1.387 . S
C299 H284 0.930 . S
C299 C294 1.390 . S
C299 C298 1.387 . S
H300 C312 0.930 . S
H301 C314 0.930 . S
H302 C315 0.930 . S
H303 C319 0.959 . S
H304 C319 0.959 . S
H305 C319 0.961 . S
H306 C320 0.960 . S
H307 C320 0.961 . S
H308 C320 0.959 . S
H309 C323 0.929 . S
H310 C324 0.931 . S
H311 C326 0.930 . S
C312 H300 0.930 . S
C312 C313 1.399 . S
C312 C317 1.399 . S
C313 C312 1.399 . S
C313 C314 1.376 . S
C314 H301 0.930 . S
C314 C313 1.376 . S
C314 C315 1.388 . S
C315 H302 0.930 . S
C315 C314 1.388 . S
C315 C316 1.390 . S
C316 C315 1.390 . S
C316 C317 1.394 . S
C316 C322 1.465 . S
C317 C312 1.399 . S
C317 C316 1.394 . S
C317 C318 1.516 . S
C318 C317 1.516 . S
C318 C319 1.502 . S
C318 C320 1.561 . S
C318 C321 1.526 . S
C319 H303 0.959 . S
C319 H304 0.959 . S
C319 H305 0.961 . S
C319 C318 1.502 . S
C320 H306 0.960 . S
C320 H307 0.961 . S
C320 H308 0.959 . S
C320 C318 1.561 . S
C321 C318 1.526 . S
C321 C322 1.396 . S
C321 C326 1.390 . S
C322 C316 1.465 . S
C322 C321 1.396 . S
C322 C323 1.399 . S
C323 H309 0.929 . S
C323 C322 1.399 . S
C323 C324 1.385 . S
C324 H310 0.931 . S
C324 C323 1.385 . S
C324 C325 1.389 . S
C325 C324 1.389 . S
C325 C326 1.387 . S
C326 H311 0.930 . S
C326 C321 1.390 . S
C326 C325 1.387 . S
H327 C339 0.930 . S
H328 C341 0.930 . S
H329 C342 0.930 . S
H330 C346 0.959 . S
H331 C346 0.959 . S
H332 C346 0.961 . S
H333 C347 0.960 . S
H334 C347 0.961 . S
H335 C347 0.959 . S
H336 C350 0.929 . S
H337 C351 0.931 1_554 S
H338 C353 0.930 . S
C339 H327 0.930 . S
C339 C340 1.399 . S
C339 C344 1.399 . S
C340 C339 1.399 . S
C340 C341 1.376 . S
C341 H328 0.930 . S
C341 C340 1.376 . S
C341 C342 1.388 . S
C342 H329 0.930 . S
C342 C341 1.388 . S
C342 C343 1.390 . S
C343 C342 1.390 . S
C343 C344 1.394 . S
C343 C349 1.465 . S
C344 C339 1.399 . S
C344 C343 1.394 . S
C344 C345 1.516 . S
C345 C344 1.516 . S
C345 C346 1.502 . S
C345 C347 1.561 . S
C345 C348 1.526 . S
C346 H330 0.959 . S
C346 H331 0.959 . S
C346 H332 0.961 . S
C346 C345 1.502 . S
C347 H333 0.960 . S
C347 H334 0.961 . S
C347 H335 0.959 . S
C347 C345 1.561 . S
C348 C345 1.526 . S
C348 C349 1.396 . S
C348 C353 1.390 . S
C349 C343 1.465 . S
C349 C348 1.396 . S
C349 C350 1.399 . S
C350 H336 0.929 . S
C350 C349 1.399 . S
C350 C351 1.385 . S
C351 H337 0.931 1_556 S
C351 C350 1.385 . S
C351 C352 1.389 . S
C352 C351 1.389 . S
C352 C353 1.387 . S
C353 H338 0.930 . S
C353 C348 1.390 . S
C353 C352 1.387 . S
H354 C366 0.942 . S
H355 C368 0.930 . S
H356 C369 0.930 . S
H357 C373 0.959 . S
H358 C373 0.959 . S
H359 C373 0.961 . S
H360 C374 0.960 . S
H361 C374 0.961 . S
H362 C374 0.959 . S
H363 C377 0.929 . S
H364 C378 0.931 . S
H365 C380 0.930 . S
C366 H354 0.942 . S
C366 C367 1.399 . S
C366 C371 1.399 . S
C367 C366 1.399 . S
C367 C368 1.376 . S
C368 H355 0.930 . S
C368 C367 1.376 . S
C368 C369 1.388 . S
C369 H356 0.930 . S
C369 C368 1.388 . S
C369 C370 1.390 . S
C370 C369 1.390 . S
C370 C371 1.394 . S
C370 C376 1.465 . S
C371 C366 1.399 . S
C371 C370 1.394 . S
C371 C372 1.516 . S
C372 C371 1.516 . S
C372 C373 1.502 . S
C372 C374 1.561 . S
C372 C375 1.526 . S
C373 H357 0.959 . S
C373 H358 0.959 . S
C373 H359 0.961 . S
C373 C372 1.502 . S
C374 H360 0.960 . S
C374 H361 0.961 . S
C374 H362 0.959 . S
C374 C372 1.561 . S
C375 C372 1.526 . S
C375 C376 1.396 . S
C375 C380 1.390 . S
C376 C370 1.465 . S
C376 C375 1.396 . S
C376 C377 1.399 . S
C377 H363 0.929 . S
C377 C376 1.399 . S
C377 C378 1.385 . S
C378 H364 0.931 . S
C378 C377 1.385 . S
C378 C379 1.389 . S
C379 C378 1.389 . S
C379 C380 1.387 . S
C380 H365 0.930 . S
C380 C375 1.390 . S
C380 C379 1.387 . S
H381 C393 0.930 . S
H382 C395 0.930 . S
H383 C396 0.930 . S
H384 C400 0.959 . S
H385 C400 0.959 . S
H386 C400 0.961 . S
H387 C401 0.960 . S
H388 C401 0.961 . S
H389 C401 0.959 . S
H390 C404 0.929 . S
H391 C405 0.931 . S
H392 C407 0.930 . S
C393 H381 0.930 . S
C393 C394 1.399 . S
C393 C398 1.399 . S
C394 C393 1.399 . S
C394 C395 1.376 . S
C395 H382 0.930 . S
C395 C394 1.376 . S
C395 C396 1.388 . S
C396 H383 0.930 . S
C396 C395 1.388 . S
C396 C397 1.390 . S
C397 C396 1.390 . S
C397 C398 1.394 . S
C397 C403 1.465 . S
C398 C393 1.399 . S
C398 C397 1.394 . S
C398 C399 1.516 . S
C399 C398 1.516 . S
C399 C400 1.502 . S
C399 C401 1.561 . S
C399 C402 1.526 . S
C400 H384 0.959 . S
C400 H385 0.959 . S
C400 H386 0.961 . S
C400 C399 1.502 . S
C401 H387 0.960 . S
C401 H388 0.961 . S
C401 H389 0.959 . S
C401 C399 1.561 . S
C402 C399 1.526 . S
C402 C403 1.396 . S
C402 C407 1.390 . S
C403 C397 1.465 . S
C403 C402 1.396 . S
C403 C404 1.399 . S
C404 H390 0.929 . S
C404 C403 1.399 . S
C404 C405 1.385 . S
C405 H391 0.931 . S
C405 C404 1.385 . S
C405 C406 1.389 . S
C406 C405 1.389 . S
C406 C407 1.387 . S
C407 H392 0.930 . S
C407 C402 1.390 . S
C407 C406 1.387 . S
C97 C6 1.725 . S
C109 C78 1.712 . S
C124 C9 1.737 . S
C136 C20 1.676 . S
C151 C35 1.725 . S
C163 C23 1.711 . S
C178 C48 1.682 . S
C190 C36 1.728 . S
C205 C62 1.687 . S
C217 C51 1.736 . S
C232 C77 1.705 . S
C244 C65 1.713 . S
C259 C7 1.413 . S
C271 C64 1.440 . S
C286 C79 1.461 . S
C298 C21 1.384 . S
C313 C34 1.447 . S
C325 C8 1.438 . S
C340 C22 1.452 . S
C352 C49 1.381 1_556 S
C367 C37 1.460 1_554 S
C379 C63 1.383 . S
C394 C76 1.378 . S
C406 C50 1.459 . S
