# Generated by pormake.
# Topology uow, (4)-cn, num edge types: 1
# Building blocks:
#     Node 0, Type 0, BuildingBlock: AZAVOO_clean_sbu_0, # of connection points: 4
#     Node 1, Type 0, BuildingBlock: AZAVOO_clean_sbu_0, # of connection points: 4
#     Node 2, Type 0, BuildingBlock: AZAVOO_clean_sbu_0, # of connection points: 4
#     Node 3, Type 0, BuildingBlock: AZAVOO_clean_sbu_0, # of connection points: 4
#     Node 4, Type 0, BuildingBlock: AZAVOO_clean_sbu_0, # of connection points: 4
#     Node 5, Type 0, BuildingBlock: AZAVOO_clean_sbu_0, # of connection points: 4
#     Node 6, Type 0, BuildingBlock: AZAVOO_clean_sbu_0, # of connection points: 4
#     Node 7, Type 0, BuildingBlock: AZAVOO_clean_sbu_0, # of connection points: 4
#     Node 8, Type 0, BuildingBlock: AZAVOO_clean_sbu_0, # of connection points: 4
#     Node 9, Type 0, BuildingBlock: AZAVOO_clean_sbu_0, # of connection points: 4
#     Node 10, Type 0, BuildingBlock: AZAVOO_clean_sbu_0, # of connection points: 4
#     Node 11, Type 0, BuildingBlock: AZAVOO_clean_sbu_0, # of connection points: 4
#     Node 12, Type 0, BuildingBlock: AZAVOO_clean_sbu_0, # of connection points: 4
#     Node 13, Type 0, BuildingBlock: AZAVOO_clean_sbu_0, # of connection points: 4
#     Node 14, Type 0, BuildingBlock: AZAVOO_clean_sbu_0, # of connection points: 4
#     Node 15, Type 0, BuildingBlock: AZAVOO_clean_sbu_0, # of connection points: 4
#     Node 16, Type 0, BuildingBlock: AZAVOO_clean_sbu_0, # of connection points: 4
#     Node 17, Type 0, BuildingBlock: AZAVOO_clean_sbu_0, # of connection points: 4
#     Node 18, Type 0, BuildingBlock: AZAVOO_clean_sbu_0, # of connection points: 4
#     Node 19, Type 0, BuildingBlock: AZAVOO_clean_sbu_0, # of connection points: 4
#     Node 20, Type 0, BuildingBlock: AZAVOO_clean_sbu_0, # of connection points: 4
#     Node 21, Type 0, BuildingBlock: AZAVOO_clean_sbu_0, # of connection points: 4
#     Node 22, Type 0, BuildingBlock: AZAVOO_clean_sbu_0, # of connection points: 4
#     Node 23, Type 0, BuildingBlock: AZAVOO_clean_sbu_0, # of connection points: 4
#     Node 24, Type 0, BuildingBlock: AZAVOO_clean_sbu_0, # of connection points: 4
#     Node 25, Type 0, BuildingBlock: AZAVOO_clean_sbu_0, # of connection points: 4
#     Node 26, Type 0, BuildingBlock: AZAVOO_clean_sbu_0, # of connection points: 4
#     Node 27, Type 0, BuildingBlock: AZAVOO_clean_sbu_0, # of connection points: 4
#     Node 28, Type 0, BuildingBlock: AZAVOO_clean_sbu_0, # of connection points: 4
#     Node 29, Type 0, BuildingBlock: AZAVOO_clean_sbu_0, # of connection points: 4
#     Node 30, Type 0, BuildingBlock: AZAVOO_clean_sbu_0, # of connection points: 4
#     Node 31, Type 0, BuildingBlock: AZAVOO_clean_sbu_0, # of connection points: 4
#     Edge 32, Type (0, 0), BuildingBlock: XIVTED_clean_linker_0, # of connection points: 2
#     Edge 33, Type (0, 0), BuildingBlock: XIVTED_clean_linker_0, # of connection points: 2
#     Edge 34, Type (0, 0), BuildingBlock: XIVTED_clean_linker_0, # of connection points: 2
#     Edge 35, Type (0, 0), BuildingBlock: XIVTED_clean_linker_0, # of connection points: 2
#     Edge 36, Type (0, 0), BuildingBlock: XIVTED_clean_linker_0, # of connection points: 2
#     Edge 37, Type (0, 0), BuildingBlock: XIVTED_clean_linker_0, # of connection points: 2
#     Edge 38, Type (0, 0), BuildingBlock: XIVTED_clean_linker_0, # of connection points: 2
#     Edge 39, Type (0, 0), BuildingBlock: XIVTED_clean_linker_0, # of connection points: 2
#     Edge 40, Type (0, 0), BuildingBlock: XIVTED_clean_linker_0, # of connection points: 2
#     Edge 41, Type (0, 0), BuildingBlock: XIVTED_clean_linker_0, # of connection points: 2
#     Edge 42, Type (0, 0), BuildingBlock: XIVTED_clean_linker_0, # of connection points: 2
#     Edge 43, Type (0, 0), BuildingBlock: XIVTED_clean_linker_0, # of connection points: 2
#     Edge 44, Type (0, 0), BuildingBlock: XIVTED_clean_linker_0, # of connection points: 2
#     Edge 45, Type (0, 0), BuildingBlock: XIVTED_clean_linker_0, # of connection points: 2
#     Edge 46, Type (0, 0), BuildingBlock: XIVTED_clean_linker_0, # of connection points: 2
#     Edge 47, Type (0, 0), BuildingBlock: XIVTED_clean_linker_0, # of connection points: 2
#     Edge 48, Type (0, 0), BuildingBlock: XIVTED_clean_linker_0, # of connection points: 2
#     Edge 49, Type (0, 0), BuildingBlock: XIVTED_clean_linker_0, # of connection points: 2
#     Edge 50, Type (0, 0), BuildingBlock: XIVTED_clean_linker_0, # of connection points: 2
#     Edge 51, Type (0, 0), BuildingBlock: XIVTED_clean_linker_0, # of connection points: 2
#     Edge 52, Type (0, 0), BuildingBlock: XIVTED_clean_linker_0, # of connection points: 2
#     Edge 53, Type (0, 0), BuildingBlock: XIVTED_clean_linker_0, # of connection points: 2
#     Edge 54, Type (0, 0), BuildingBlock: XIVTED_clean_linker_0, # of connection points: 2
#     Edge 55, Type (0, 0), BuildingBlock: XIVTED_clean_linker_0, # of connection points: 2
#     Edge 56, Type (0, 0), BuildingBlock: XIVTED_clean_linker_0, # of connection points: 2
#     Edge 57, Type (0, 0), BuildingBlock: XIVTED_clean_linker_0, # of connection points: 2
#     Edge 58, Type (0, 0), BuildingBlock: XIVTED_clean_linker_0, # of connection points: 2
#     Edge 59, Type (0, 0), BuildingBlock: XIVTED_clean_linker_0, # of connection points: 2
#     Edge 60, Type (0, 0), BuildingBlock: XIVTED_clean_linker_0, # of connection points: 2
#     Edge 61, Type (0, 0), BuildingBlock: XIVTED_clean_linker_0, # of connection points: 2
#     Edge 62, Type (0, 0), BuildingBlock: XIVTED_clean_linker_0, # of connection points: 2
#     Edge 63, Type (0, 0), BuildingBlock: XIVTED_clean_linker_0, # of connection points: 2
#     Edge 64, Type (0, 0), BuildingBlock: XIVTED_clean_linker_0, # of connection points: 2
#     Edge 65, Type (0, 0), BuildingBlock: XIVTED_clean_linker_0, # of connection points: 2
#     Edge 66, Type (0, 0), BuildingBlock: XIVTED_clean_linker_0, # of connection points: 2
#     Edge 67, Type (0, 0), BuildingBlock: XIVTED_clean_linker_0, # of connection points: 2
#     Edge 68, Type (0, 0), BuildingBlock: XIVTED_clean_linker_0, # of connection points: 2
#     Edge 69, Type (0, 0), BuildingBlock: XIVTED_clean_linker_0, # of connection points: 2
#     Edge 70, Type (0, 0), BuildingBlock: XIVTED_clean_linker_0, # of connection points: 2
#     Edge 71, Type (0, 0), BuildingBlock: XIVTED_clean_linker_0, # of connection points: 2
#     Edge 72, Type (0, 0), BuildingBlock: XIVTED_clean_linker_0, # of connection points: 2
#     Edge 73, Type (0, 0), BuildingBlock: XIVTED_clean_linker_0, # of connection points: 2
#     Edge 74, Type (0, 0), BuildingBlock: XIVTED_clean_linker_0, # of connection points: 2
#     Edge 75, Type (0, 0), BuildingBlock: XIVTED_clean_linker_0, # of connection points: 2
#     Edge 76, Type (0, 0), BuildingBlock: XIVTED_clean_linker_0, # of connection points: 2
#     Edge 77, Type (0, 0), BuildingBlock: XIVTED_clean_linker_0, # of connection points: 2
#     Edge 78, Type (0, 0), BuildingBlock: XIVTED_clean_linker_0, # of connection points: 2
#     Edge 79, Type (0, 0), BuildingBlock: XIVTED_clean_linker_0, # of connection points: 2
#     Edge 80, Type (0, 0), BuildingBlock: XIVTED_clean_linker_0, # of connection points: 2
#     Edge 81, Type (0, 0), BuildingBlock: XIVTED_clean_linker_0, # of connection points: 2
#     Edge 82, Type (0, 0), BuildingBlock: XIVTED_clean_linker_0, # of connection points: 2
#     Edge 83, Type (0, 0), BuildingBlock: XIVTED_clean_linker_0, # of connection points: 2
#     Edge 84, Type (0, 0), BuildingBlock: XIVTED_clean_linker_0, # of connection points: 2
#     Edge 85, Type (0, 0), BuildingBlock: XIVTED_clean_linker_0, # of connection points: 2
#     Edge 86, Type (0, 0), BuildingBlock: XIVTED_clean_linker_0, # of connection points: 2
#     Edge 87, Type (0, 0), BuildingBlock: XIVTED_clean_linker_0, # of connection points: 2
#     Edge 88, Type (0, 0), BuildingBlock: XIVTED_clean_linker_0, # of connection points: 2
#     Edge 89, Type (0, 0), BuildingBlock: XIVTED_clean_linker_0, # of connection points: 2
#     Edge 90, Type (0, 0), BuildingBlock: XIVTED_clean_linker_0, # of connection points: 2
#     Edge 91, Type (0, 0), BuildingBlock: XIVTED_clean_linker_0, # of connection points: 2
#     Edge 92, Type (0, 0), BuildingBlock: XIVTED_clean_linker_0, # of connection points: 2
#     Edge 93, Type (0, 0), BuildingBlock: XIVTED_clean_linker_0, # of connection points: 2
#     Edge 94, Type (0, 0), BuildingBlock: XIVTED_clean_linker_0, # of connection points: 2
#     Edge 95, Type (0, 0), BuildingBlock: XIVTED_clean_linker_0, # of connection points: 2
# Relax obj value: 0.272
# Max RMSD: 0.244
# Mean RMSD: 0.244
data_MOF--net-uow--node1-AZAVOO_clean_sbu_0--edge1-XIVTED_clean_linker_0
_symmetry_space_group_name_H-M    P1
_symmetry_Int_Tables_number       1
_symmetry_cell_setting            triclinic
loop_
_symmetry_equiv_pos_as_xyz
'x, y, z'
_cell_length_a     59.733536
_cell_length_b     59.757319
_cell_length_c     40.693398
_cell_angle_alpha  89.980339
_cell_angle_beta   90.000958
_cell_angle_gamma 90.005201
loop_
_atom_site_label
_atom_site_type_symbol
_atom_site_fract_x
_atom_site_fract_y
_atom_site_fract_z
_atom_type_partial_charge
Mg0 Mg 0.9733 0.37025 0.23551 0.0
O1 O 0.0024 0.36557 0.27156 0.0
O2 O 0.03508 0.37112 0.24613 0.0
Mg3 Mg 0.02643 0.38106 0.19321 0.0
C4 C 0.02376 0.36626 0.27178 0.0
C5 C 0.93411 0.35406 0.27772 0.0
O6 O 0.93107 0.34326 0.24996 0.0
O7 O 0.97727 0.40817 0.23937 0.0
O8 O 0.0095 0.41291 0.21236 0.0
O9 O 0.976 0.33449 0.22028 0.0
O10 O 0.9949 0.36203 0.19688 0.0
C11 C 0.99273 0.42077 0.22804 0.0
C12 C 0.99121 0.34086 0.1997 0.0
O13 O 0.94957 0.36862 0.27923 0.0
Mg14 Mg 0.88533 0.72644 0.48348 0.0
O15 O 0.88906 0.75718 0.51595 0.0
O16 O 0.88354 0.78912 0.48891 0.0
Mg17 Mg 0.87255 0.77745 0.43744 0.0
C18 C 0.88832 0.77847 0.51517 0.0
C19 C 0.88508 0.68659 0.5391 0.0
O20 O 0.87339 0.67368 0.51941 0.0
O21 O 0.84739 0.72911 0.48868 0.0
O22 O 0.84144 0.76073 0.46044 0.0
O23 O 0.92044 0.73066 0.46696 0.0
O24 O 0.89137 0.74569 0.44132 0.0
C25 C 0.83428 0.74421 0.47747 0.0
C26 C 0.91275 0.74341 0.44389 0.0
O27 O 0.89004 0.70637 0.53032 0.0
Mg28 Mg 0.53473 0.62944 0.73511 0.0
O29 O 0.50509 0.63848 0.76775 0.0
O30 O 0.4724 0.63333 0.74246 0.0
Mg31 Mg 0.48183 0.61909 0.69196 0.0
C32 C 0.48376 0.63926 0.76754 0.0
C33 C 0.57189 0.64756 0.78075 0.0
O34 O 0.57613 0.65832 0.75328 0.0
O35 O 0.52815 0.59237 0.74443 0.0
O36 O 0.49592 0.58775 0.71721 0.0
O37 O 0.53401 0.66389 0.71374 0.0
O38 O 0.51516 0.63522 0.69349 0.0
C39 C 0.51194 0.58008 0.73473 0.0
C40 C 0.51964 0.65629 0.69272 0.0
O41 O 0.55657 0.63281 0.78082 0.0
Mg42 Mg 0.61627 0.27129 0.97658 0.0
O43 O 0.6109 0.2431 0.01389 0.0
O44 O 0.61785 0.20983 0.99114 0.0
Mg45 Mg 0.62967 0.2173 0.93876 0.0
C46 C 0.61194 0.2218 0.01561 0.0
C47 C 0.5963 0.30952 0.0175 0.0
O48 O 0.58435 0.31037 0.99042 0.0
O49 O 0.654 0.2683 0.98369 0.0
O50 O 0.66057 0.23532 0.95961 0.0
O51 O 0.58134 0.26721 0.95844 0.0
O52 O 0.61023 0.24878 0.93804 0.0
C53 C 0.66738 0.25279 0.97472 0.0
C54 C 0.5889 0.2521 0.93859 0.0
O55 O 0.61262 0.29593 0.01896 0.0
Mg56 Mg 0.97598 0.63691 0.26988 0.0
O57 O 0.00657 0.64283 0.23716 0.0
O58 O 0.03878 0.6355 0.26266 0.0
Mg59 Mg 0.02809 0.62178 0.31278 0.0
C60 C 0.02789 0.64195 0.23742 0.0
C61 C 0.95853 0.66293 0.21232 0.0
O62 O 0.9739 0.67527 0.22657 0.0
O63 O 0.97918 0.59943 0.25958 0.0
O64 O 0.01108 0.59237 0.28654 0.0
O65 O 0.97919 0.67082 0.29216 0.0
O66 O 0.99649 0.64102 0.3116 0.0
C67 C 0.99455 0.58598 0.26896 0.0
C68 C 0.99341 0.66236 0.31258 0.0
O69 O 0.95417 0.64376 0.22442 0.0
Mg70 Mg 0.61825 0.71926 0.50852 0.0
O71 O 0.61396 0.75102 0.47799 0.0
O72 O 0.61837 0.78157 0.50885 0.0
Mg73 Mg 0.6291 0.76857 0.55954 0.0
C74 C 0.61407 0.77224 0.48136 0.0
C75 C 0.60123 0.68371 0.46108 0.0
O76 O 0.59124 0.67884 0.48895 0.0
O77 O 0.65622 0.7232 0.50503 0.0
O78 O 0.66092 0.75375 0.53611 0.0
O79 O 0.58264 0.72217 0.524 0.0
O80 O 0.61093 0.73697 0.5516 0.0
C81 C 0.66876 0.73817 0.51789 0.0
C82 C 0.58966 0.7345 0.548 0.0
O83 O 0.61571 0.6993 0.46086 0.0
Mg84 Mg 0.52506 0.36425 0.77603 0.0
O85 O 0.49533 0.35957 0.74116 0.0
O86 O 0.46308 0.36615 0.76721 0.0
Mg87 Mg 0.47274 0.37767 0.81886 0.0
C88 C 0.47398 0.36055 0.74154 0.0
C89 C 0.56141 0.34428 0.73143 0.0
O90 O 0.56295 0.33186 0.75799 0.0
O91 O 0.52213 0.40208 0.77002 0.0
O92 O 0.49007 0.4085 0.79677 0.0
O93 O 0.52106 0.32915 0.79342 0.0
O94 O 0.504 0.35803 0.81622 0.0
C95 C 0.50697 0.41539 0.78039 0.0
C96 C 0.50672 0.33666 0.81451 0.0
O97 O 0.54803 0.36081 0.73152 0.0
Mg98 Mg 0.88207 0.2805 0.01688 0.0
O99 O 0.8888 0.25 0.98456 0.0
O100 O 0.884 0.21813 0.01226 0.0
Mg101 Mg 0.87127 0.22883 0.06296 0.0
C102 C 0.88912 0.22869 0.98606 0.0
C103 C 0.90162 0.31547 0.97021 0.0
O104 O 0.91285 0.31878 0.99754 0.0
O105 O 0.84448 0.27513 0.00983 0.0
O106 O 0.83993 0.24345 0.03841 0.0
O107 O 0.91713 0.27871 0.03577 0.0
O108 O 0.88853 0.26133 0.05886 0.0
C109 C 0.83213 0.25931 0.0207 0.0
C110 C 0.90978 0.2649 0.05774 0.0
O111 O 0.88545 0.30165 0.97049 0.0
Mg112 Mg 0.0194 0.62929 0.77195 0.0
O113 O 0.98984 0.63376 0.73674 0.0
O114 O 0.95779 0.62467 0.76171 0.0
Mg115 Mg 0.96722 0.6143 0.81405 0.0
C116 C 0.96859 0.63146 0.73655 0.0
C117 C 0.05649 0.64989 0.72999 0.0
O118 O 0.05798 0.66089 0.75785 0.0
O119 O 0.01764 0.59124 0.76602 0.0
O120 O 0.9861 0.58397 0.79354 0.0
O121 O 0.01475 0.66425 0.78884 0.0
O122 O 0.99761 0.63537 0.81158 0.0
C123 C 0.00316 0.57746 0.77722 0.0
C124 C 8e-05 0.65679 0.80946 0.0
O125 O 0.04285 0.63361 0.72809 0.0
Mg126 Mg 0.11691 0.27331 0.51821 0.0
O127 O 0.11067 0.24507 0.48124 0.0
O128 O 0.11793 0.21184 0.50407 0.0
Mg129 Mg 0.13071 0.21928 0.55596 0.0
C130 C 0.11161 0.22374 0.47972 0.0
C131 C 0.09662 0.3119 0.47784 0.0
O132 O 0.08492 0.31281 0.50513 0.0
O133 O 0.15456 0.26991 0.50963 0.0
O134 O 0.16127 0.23687 0.5335 0.0
O135 O 0.08219 0.26969 0.53764 0.0
O136 O 0.11117 0.25065 0.55661 0.0
C137 C 0.16793 0.25423 0.51798 0.0
C138 C 0.08986 0.25418 0.55672 0.0
O139 O 0.1128 0.29813 0.47601 0.0
Mg140 Mg 0.47485 0.37114 0.26085 0.0
O141 O 0.50375 0.36422 0.22543 0.0
O142 O 0.5367 0.37196 0.24862 0.0
Mg143 Mg 0.52832 0.38613 0.29939 0.0
C144 C 0.52507 0.3651 0.22433 0.0
C145 C 0.43837 0.34811 0.21981 0.0
O146 O 0.43752 0.33715 0.24778 0.0
O147 O 0.47803 0.4086 0.25012 0.0
O148 O 0.51081 0.41589 0.2745 0.0
O149 O 0.47883 0.33715 0.2827 0.0
O150 O 0.49665 0.36704 0.30093 0.0
C151 C 0.49364 0.42216 0.25817 0.0
C152 C 0.49348 0.34572 0.3024 0.0
O153 O 0.45116 0.36506 0.21765 0.0
Mg154 Mg 0.3825 0.72719 0.019 0.0
O155 O 0.39111 0.75638 0.9849 0.0
O156 O 0.38299 0.78943 0.00731 0.0
Mg157 Mg 0.36699 0.78085 0.05689 0.0
C158 C 0.39058 0.77769 0.98364 0.0
C159 C 0.41036 0.70618 0.96587 0.0
O160 O 0.42323 0.72063 0.98114 0.0
O161 O 0.34563 0.73119 0.00516 0.0
O162 O 0.33784 0.7638 0.0297 0.0
O163 O 0.41541 0.7299 0.04456 0.0
O164 O 0.38544 0.74877 0.05978 0.0
C165 C 0.33196 0.74686 0.01256 0.0
C166 C 0.40654 0.74489 0.06331 0.0
O167 O 0.39022 0.70384 0.97555 0.0
Mg168 Mg 0.03175 0.36254 0.72971 0.0
O169 O 0.00097 0.3549 0.76115 0.0
O170 O 0.96888 0.36212 0.73533 0.0
Mg171 Mg 0.9797 0.37696 0.68595 0.0
C172 C 0.97965 0.35534 0.76049 0.0
C173 C 0.04963 0.3352 0.78582 0.0
O174 O 0.03567 0.32246 0.76939 0.0
O175 O 0.02712 0.3998 0.74175 0.0
O176 O 0.99541 0.40624 0.71397 0.0
O177 O 0.02986 0.32911 0.70516 0.0
O178 O 0.01198 0.35888 0.68702 0.0
C179 C 0.01141 0.41288 0.73239 0.0
C180 C 0.01573 0.33771 0.68476 0.0
O181 O 0.05286 0.35517 0.77587 0.0
Mg182 Mg 0.38305 0.2773 0.48599 0.0
O183 O 0.38828 0.24419 0.51369 0.0
O184 O 0.38441 0.21556 0.47885 0.0
Mg185 Mg 0.37346 0.23058 0.42964 0.0
C186 C 0.38867 0.22324 0.50745 0.0
C187 C 0.39805 0.31235 0.53452 0.0
O188 O 0.4072 0.31824 0.50645 0.0
O189 O 0.34527 0.27241 0.48848 0.0
O190 O 0.34109 0.24358 0.45394 0.0
O191 O 0.41875 0.27623 0.47129 0.0
O192 O 0.39128 0.26175 0.44155 0.0
C193 C 0.33297 0.25807 0.47377 0.0
C194 C 0.41244 0.26454 0.4462 0.0
O195 O 0.38467 0.29581 0.53481 0.0
Mg196 Mg 0.46805 0.63743 0.22628 0.0
O197 O 0.4994 0.64116 0.25788 0.0
O198 O 0.53045 0.63738 0.22792 0.0
Mg199 Mg 0.5181 0.62799 0.17624 0.0
C200 C 0.52068 0.64106 0.25528 0.0
C201 C 0.43279 0.65398 0.27471 0.0
O202 O 0.42877 0.66568 0.24802 0.0
O203 O 0.4722 0.59945 0.22806 0.0
O204 O 0.503 0.59548 0.19731 0.0
O205 O 0.47077 0.67336 0.21237 0.0
O206 O 0.48622 0.64582 0.184 0.0
C207 C 0.48724 0.58721 0.21478 0.0
C208 C 0.48335 0.66698 0.18827 0.0
O209 O 0.44758 0.6387 0.27356 0.0
Mg210 Mg 0.11733 0.72371 0.98096 0.0
O211 O 0.11339 0.75455 0.01351 0.0
O212 O 0.11618 0.78597 0.98419 0.0
Mg213 Mg 0.12522 0.77446 0.93198 0.0
C214 C 0.113 0.77583 0.0114 0.0
C215 C 0.10249 0.68713 0.02783 0.0
O216 O 0.09161 0.6828 0.00049 0.0
O217 O 0.1552 0.72847 0.98167 0.0
O218 O 0.15832 0.7597 0.95164 0.0
O219 O 0.08118 0.72596 0.96854 0.0
O220 O 0.10795 0.74224 0.93946 0.0
C221 C 0.16705 0.74384 0.96843 0.0
C222 C 0.08692 0.739 0.94462 0.0
O223 O 0.11699 0.70269 0.02766 0.0
Mg224 Mg 0.47642 0.86216 0.72234 0.0
O225 O 0.50821 0.85749 0.75276 0.0
O226 O 0.53854 0.86517 0.72264 0.0
Mg227 Mg 0.52544 0.87456 0.6714 0.0
C228 C 0.52939 0.85923 0.7496 0.0
C229 C 0.44183 0.84379 0.77027 0.0
O230 O 0.43815 0.83254 0.74307 0.0
O231 O 0.47967 0.90027 0.72609 0.0
O232 O 0.50938 0.906 0.69369 0.0
O233 O 0.47961 0.82674 0.70649 0.0
O234 O 0.49438 0.85524 0.67931 0.0
C235 C 0.49379 0.91334 0.71231 0.0
C236 C 0.49206 0.83393 0.68272 0.0
O237 O 0.4563 0.85939 0.76987 0.0
Mg238 Mg 0.37879 0.21911 0.98329 0.0
O239 O 0.3869 0.24936 0.01591 0.0
O240 O 0.37942 0.28142 0.99003 0.0
Mg241 Mg 0.36493 0.2714 0.94011 0.0
C242 C 0.38638 0.2707 0.01516 0.0
C243 C 0.40507 0.19838 0.03841 0.0
O244 O 0.41879 0.21177 0.02266 0.0
O245 O 0.34152 0.22384 0.99433 0.0
O246 O 0.33492 0.25537 0.96627 0.0
O247 O 0.41247 0.2206 0.95967 0.0
O248 O 0.38331 0.23932 0.94119 0.0
C249 C 0.32826 0.23921 0.98438 0.0
C250 C 0.40446 0.23519 0.93947 0.0
O251 O 0.38488 0.1969 0.02863 0.0
Mg252 Mg 0.02472 0.13309 0.22447 0.0
O253 O 0.99401 0.13964 0.25702 0.0
O254 O 0.96267 0.13083 0.22984 0.0
Mg255 Mg 0.97362 0.11894 0.17884 0.0
C256 C 0.97271 0.13791 0.25552 0.0
C257 C 0.0607 0.15334 0.26938 0.0
O258 O 0.06315 0.16485 0.2421 0.0
O259 O 0.0208 0.09539 0.23266 0.0
O260 O 0.98989 0.08857 0.20336 0.0
O261 O 0.02246 0.16781 0.20485 0.0
O262 O 0.00458 0.13893 0.18328 0.0
C263 C 0.00597 0.08195 0.2216 0.0
C264 C 0.00799 0.16025 0.18402 0.0
O265 O 0.04682 0.13722 0.26981 0.0
Mg266 Mg 0.12029 0.77487 0.4914 0.0
O267 O 0.11144 0.74511 0.52455 0.0
O268 O 0.11895 0.71266 0.4998 0.0
Mg269 Mg 0.13445 0.72194 0.45024 0.0
C270 C 0.11173 0.72376 0.52438 0.0
C271 C 0.09335 0.79651 0.54506 0.0
O272 O 0.07975 0.78297 0.52938 0.0
O273 O 0.15726 0.77005 0.50392 0.0
O274 O 0.16411 0.73803 0.47723 0.0
O275 O 0.08701 0.77323 0.46672 0.0
O276 O 0.11642 0.7542 0.44977 0.0
C277 C 0.17055 0.75441 0.49508 0.0
C278 C 0.09533 0.75838 0.4472 0.0
O279 O 0.11367 0.79773 0.53579 0.0
Mg280 Mg 0.47105 0.12875 0.76121 0.0
O281 O 0.49989 0.13693 0.72584 0.0
O282 O 0.53278 0.12915 0.74927 0.0
Mg283 Mg 0.5247 0.11428 0.79963 0.0
C284 C 0.52125 0.1363 0.72504 0.0
C285 C 0.44936 0.12917 0.68973 0.0
O286 O 0.46614 0.11582 0.68258 0.0
O287 O 0.47492 0.09147 0.74934 0.0
O288 O 0.50771 0.08461 0.77397 0.0
O289 O 0.47414 0.16245 0.78411 0.0
O290 O 0.49276 0.13272 0.80122 0.0
C291 C 0.49076 0.07815 0.75731 0.0
C292 C 0.4891 0.15393 0.80338 0.0
O293 O 0.44647 0.13533 0.71933 0.0
Mg294 Mg 0.11297 0.21654 0.0316 0.0
O295 O 0.10533 0.24546 0.9965 0.0
O296 O 0.11241 0.27853 0.01962 0.0
Mg297 Mg 0.12572 0.27025 0.07105 0.0
C298 C 0.10587 0.26679 0.99527 0.0
C299 C 0.11532 0.19605 0.95977 0.0
O300 O 0.12912 0.21282 0.95471 0.0
O301 O 0.15049 0.22097 0.02194 0.0
O302 O 0.15636 0.25362 0.04744 0.0
O303 O 0.07862 0.21929 0.05271 0.0
O304 O 0.10793 0.23785 0.07156 0.0
C305 C 0.16346 0.23683 0.03101 0.0
C306 C 0.0867 0.23411 0.07263 0.0
O307 O 0.1078 0.1926 0.98857 0.0
Mg308 Mg 0.02751 0.86687 0.26459 0.0
O309 O 0.99743 0.86141 0.2311 0.0
O310 O 0.96517 0.86698 0.25736 0.0
Mg311 Mg 0.97552 0.87863 0.30904 0.0
C312 C 0.97609 0.86174 0.23153 0.0
C313 C 0.06489 0.84892 0.22015 0.0
O314 O 0.0684 0.83825 0.24791 0.0
O315 O 0.02359 0.90464 0.25882 0.0
O316 O 0.99164 0.91005 0.28643 0.0
O317 O 0.0241 0.8317 0.28191 0.0
O318 O 0.00773 0.86063 0.30596 0.0
C319 C 0.00815 0.91747 0.26964 0.0
C320 C 0.01066 0.83933 0.30419 0.0
O321 O 0.04963 0.86372 0.21914 0.0
Mg322 Mg 0.3863 0.77201 0.52872 0.0
O323 O 0.39067 0.74373 0.49121 0.0
O324 O 0.38541 0.71048 0.51518 0.0
Mg325 Mg 0.37598 0.71791 0.56868 0.0
C326 C 0.38998 0.72238 0.48998 0.0
C327 C 0.4029 0.81167 0.48792 0.0
O328 O 0.41456 0.81342 0.51518 0.0
O329 O 0.3483 0.76795 0.52517 0.0
O330 O 0.34392 0.73511 0.5507 0.0
O331 O 0.4222 0.76904 0.54351 0.0
O332 O 0.39475 0.74958 0.56616 0.0
C333 C 0.33586 0.75216 0.53591 0.0
C334 C 0.41591 0.75341 0.56343 0.0
O335 O 0.38769 0.79684 0.48626 0.0
Mg336 Mg 0.52801 0.13718 0.27602 0.0
O337 O 0.49753 0.14188 0.24312 0.0
O338 O 0.46551 0.13825 0.27076 0.0
Mg339 Mg 0.4764 0.12827 0.32292 0.0
C340 C 0.4762 0.1421 0.24421 0.0
C341 C 0.56423 0.1539 0.22919 0.0
O342 O 0.56759 0.16568 0.256 0.0
O343 O 0.52316 0.09936 0.27322 0.0
O344 O 0.4914 0.09581 0.30195 0.0
O345 O 0.52551 0.17301 0.29022 0.0
O346 O 0.50886 0.14548 0.31727 0.0
C347 C 0.50745 0.08736 0.28526 0.0
C348 C 0.5121 0.16662 0.31333 0.0
O349 O 0.54956 0.13849 0.22976 0.0
Mg350 Mg 0.61046 0.77948 0.01348 0.0
O351 O 0.60863 0.74661 0.98572 0.0
O352 O 0.61166 0.71671 0.01811 0.0
Mg353 Mg 0.61905 0.73198 0.06897 0.0
C354 C 0.60898 0.72549 0.98979 0.0
C355 C 0.60876 0.81643 0.95551 0.0
O356 O 0.61001 0.83161 0.97876 0.0
O357 O 0.64852 0.7761 0.01484 0.0
O358 O 0.65191 0.74671 0.04862 0.0
O359 O 0.57418 0.7764 0.02508 0.0
O360 O 0.60115 0.76337 0.05712 0.0
C361 C 0.66052 0.76185 0.03032 0.0
C362 C 0.5801 0.76529 0.05096 0.0
O363 O 0.61009 0.79583 0.96298 0.0
Mg364 Mg 0.96883 0.86475 0.7763 0.0
O365 O 0.9997 0.85914 0.74463 0.0
O366 O 0.03141 0.86247 0.77308 0.0
Mg367 Mg 0.01993 0.87334 0.82457 0.0
C368 C 0.02099 0.8585 0.74634 0.0
C369 C 0.93268 0.84906 0.72791 0.0
O370 O 0.92803 0.83766 0.75467 0.0
O371 O 0.97442 0.90243 0.77293 0.0
O372 O 0.00591 0.90589 0.80232 0.0
O373 O 0.97056 0.82901 0.79145 0.0
O374 O 0.98724 0.85656 0.81838 0.0
C375 C 0.99017 0.91434 0.785 0.0
C376 C 0.98379 0.83543 0.81478 0.0
O377 O 0.94817 0.86362 0.72906 0.0
Mg378 Mg 0.88579 0.22425 0.51286 0.0
O379 O 0.89008 0.25599 0.48229 0.0
O380 O 0.88401 0.28696 0.51151 0.0
Mg381 Mg 0.87313 0.27406 0.56208 0.0
C382 C 0.88914 0.27724 0.48465 0.0
C383 C 0.88552 0.18636 0.45358 0.0
O384 O 0.87327 0.17263 0.47124 0.0
O385 O 0.84777 0.22758 0.50728 0.0
O386 O 0.84226 0.25802 0.53821 0.0
O387 O 0.92097 0.22686 0.53015 0.0
O388 O 0.89251 0.24279 0.55573 0.0
C389 C 0.83484 0.24231 0.51989 0.0
C390 C 0.91386 0.23994 0.55319 0.0
O391 O 0.89062 0.20552 0.4648 0.0
Mg392 Mg 0.52096 0.87136 0.24176 0.0
O393 O 0.49211 0.86542 0.27784 0.0
O394 O 0.45929 0.87267 0.25382 0.0
Mg395 Mg 0.46765 0.8855 0.20231 0.0
C396 C 0.47077 0.86639 0.2786 0.0
C397 C 0.56023 0.85207 0.28132 0.0
O398 O 0.56251 0.84219 0.25267 0.0
O399 O 0.5179 0.90895 0.2502 0.0
O400 O 0.48524 0.91591 0.22531 0.0
O401 O 0.51703 0.83677 0.22227 0.0
O402 O 0.49912 0.86611 0.20225 0.0
C403 C 0.50246 0.92244 0.24132 0.0
C404 C 0.50224 0.84476 0.20222 0.0
O405 O 0.5451 0.86685 0.28462 0.0
Mg406 Mg 0.87538 0.77883 0.97683 0.0
O407 O 0.88585 0.75011 0.01055 0.0
O408 O 0.87669 0.7168 0.98989 0.0
Mg409 Mg 0.85916 0.72462 0.94121 0.0
C410 C 0.88541 0.72881 0.0124 0.0
C411 C 0.90439 0.80202 0.0274 0.0
O412 O 0.91785 0.78902 0.01051 0.0
O413 O 0.839 0.7746 0.99293 0.0
O414 O 0.83063 0.74176 0.96953 0.0
O415 O 0.90755 0.7762 0.94965 0.0
O416 O 0.87751 0.75671 0.93645 0.0
C417 C 0.82519 0.75885 0.98662 0.0
C418 C 0.89854 0.76061 0.93211 0.0
O419 O 0.88375 0.80261 0.01965 0.0
Mg420 Mg 0.977 0.12989 0.73879 0.0
O421 O 0.00799 0.13665 0.77057 0.0
O422 O 0.0391 0.12912 0.74223 0.0
Mg423 Mg 0.02756 0.11519 0.69268 0.0
C424 C 0.02929 0.13583 0.76828 0.0
C425 C 0.94075 0.15018 0.78275 0.0
O426 O 0.93734 0.16015 0.75441 0.0
O427 O 0.98075 0.09249 0.74806 0.0
O428 O 0.01172 0.08501 0.71914 0.0
O429 O 0.97962 0.16413 0.71751 0.0
O430 O 0.99607 0.13435 0.69623 0.0
C431 C 0.99557 0.07882 0.73766 0.0
C432 C 0.99299 0.1557 0.69578 0.0
O433 O 0.95558 0.13499 0.78446 0.0
Mg434 Mg 0.61832 0.22823 0.47962 0.0
O435 O 0.61213 0.25622 0.51687 0.0
O436 O 0.619 0.28971 0.49481 0.0
Mg437 Mg 0.63171 0.28264 0.44276 0.0
C438 C 0.61289 0.27751 0.51893 0.0
C439 C 0.59677 0.19069 0.52021 0.0
O440 O 0.5851 0.19029 0.49285 0.0
O441 O 0.65608 0.23146 0.48811 0.0
O442 O 0.66229 0.26473 0.46458 0.0
O443 O 0.58368 0.2323 0.46003 0.0
O444 O 0.61284 0.25086 0.44089 0.0
C445 C 0.66925 0.24731 0.47969 0.0
C446 C 0.59153 0.24745 0.44051 0.0
O447 O 0.61368 0.20355 0.52195 0.0
H448 H 0.03568 0.3437 0.18495 0.0
H449 H 0.04074 0.23312 0.07692 0.0
H450 H 0.97863 0.29993 0.17605 0.0
H451 H 0.099 0.26609 0.11692 0.0
H452 H 0.01689 0.25798 0.1098 0.0
H453 H 0.05839 0.31657 0.15569 0.0
C454 C 0.02783 0.32853 0.17643 0.0
C455 C 0.00514 0.32428 0.18236 0.0
C456 C 0.03491 0.25966 0.11133 0.0
C457 C 0.03121 0.29277 0.14921 0.0
C458 C 0.04852 0.24554 0.09257 0.0
C459 C 0.07192 0.24785 0.09363 0.0
C460 C 0.04481 0.27628 0.1309 0.0
C461 C 0.08109 0.26403 0.11462 0.0
C462 C 0.0409 0.31284 0.16007 0.0
C463 C 0.99609 0.30383 0.17178 0.0
N464 N 0.06753 0.27775 0.13214 0.0
N465 N 0.00912 0.28885 0.15538 0.0
H466 H 0.99869 0.84592 0.36779 0.0
H467 H 0.90691 0.7544 0.37959 0.0
H468 H 0.99289 0.79864 0.28818 0.0
H469 H 0.95294 0.76188 0.46051 0.0
H470 H 0.9324 0.77645 0.34484 0.0
H471 H 0.97595 0.82101 0.4024 0.0
C472 C 0.99262 0.83028 0.35768 0.0
C473 C 0.99764 0.82418 0.32526 0.0
C474 C 0.93686 0.77312 0.37018 0.0
C475 C 0.97139 0.79621 0.36412 0.0
C476 C 0.92236 0.76072 0.38997 0.0
C477 C 0.92796 0.75637 0.4228 0.0
C478 C 0.9566 0.78178 0.38376 0.0
C479 C 0.94816 0.76482 0.43521 0.0
C480 C 0.97981 0.81613 0.37739 0.0
C481 C 0.98946 0.80378 0.31319 0.0
N482 N 0.96166 0.77748 0.41577 0.0
N483 N 0.97637 0.7906 0.33252 0.0
H484 H 0.5205 0.70234 0.69044 0.0
H485 H 0.41387 0.70847 0.57426 0.0
H486 H 0.49001 0.64469 0.64476 0.0
H487 H 0.45605 0.76603 0.58988 0.0
H488 H 0.44069 0.68539 0.60363 0.0
H489 H 0.49675 0.72667 0.65647 0.0
C490 C 0.5089 0.6948 0.67324 0.0
C491 C 0.5069 0.67143 0.67092 0.0
C492 C 0.44416 0.70306 0.60068 0.0
C493 C 0.47973 0.69904 0.6324 0.0
C494 C 0.42864 0.71632 0.58426 0.0
C495 C 0.43251 0.73926 0.58028 0.0
C496 C 0.46364 0.71283 0.61357 0.0
C497 C 0.45246 0.74837 0.59266 0.0
C498 C 0.49541 0.70868 0.65388 0.0
C499 C 0.49177 0.66257 0.64802 0.0
N500 N 0.46725 0.73515 0.60914 0.0
N501 N 0.47863 0.67636 0.62994 0.0
H502 H 0.52448 0.14165 0.84228 0.0
H503 H 0.54414 0.25889 0.92764 0.0
H504 H 0.48466 0.19897 0.81476 0.0
H505 H 0.59831 0.21387 0.90399 0.0
H506 H 0.51872 0.23527 0.89529 0.0
H507 H 0.54831 0.16598 0.87514 0.0
C508 C 0.52078 0.15933 0.84291 0.0
C509 C 0.50284 0.16833 0.825 0.0
C510 C 0.5362 0.23065 0.89739 0.0
C511 C 0.52971 0.19614 0.86353 0.0
C512 C 0.55069 0.24402 0.91587 0.0
C513 C 0.5734 0.23822 0.9189 0.0
C514 C 0.54443 0.21115 0.88252 0.0
C515 C 0.58098 0.21889 0.90284 0.0
C516 C 0.53437 0.17319 0.86181 0.0
C517 C 0.4985 0.19137 0.8278 0.0
N518 N 0.56649 0.20593 0.88563 0.0
N519 N 0.51184 0.20453 0.8468 0.0
H520 H 0.98948 0.7076 0.32138 0.0
H521 H 0.10599 0.72147 0.41009 0.0
H522 H 0.02877 0.65068 0.35212 0.0
H523 H 0.05096 0.76536 0.43417 0.0
H524 H 0.08041 0.69823 0.37823 0.0
H525 H 0.01412 0.73195 0.35373 0.0
C526 C 0.00328 0.7002 0.33479 0.0
C527 C 0.00731 0.67705 0.33348 0.0
C528 C 0.07401 0.71295 0.39059 0.0
C529 C 0.0356 0.7048 0.36978 0.0
C530 C 0.08858 0.72623 0.40886 0.0
C531 C 0.08055 0.74512 0.42554 0.0
C532 C 0.05139 0.71895 0.38824 0.0
C533 C 0.05782 0.75076 0.42206 0.0
C534 C 0.01726 0.7141 0.3532 0.0
C535 C 0.0253 0.66838 0.35164 0.0
N536 N 0.044 0.73775 0.40367 0.0
N537 N 0.03896 0.6823 0.3687 0.0
H538 H 0.59385 0.74485 0.61275 0.0
H539 H 0.50417 0.83907 0.61863 0.0
H540 H 0.55014 0.75359 0.52937 0.0
H541 H 0.50922 0.79338 0.70039 0.0
H542 H 0.52642 0.813 0.58517 0.0
H543 H 0.56824 0.76774 0.646 0.0
C544 C 0.57882 0.75156 0.60154 0.0
C545 C 0.57395 0.74735 0.56843 0.0
C546 C 0.52249 0.80872 0.61039 0.0
C547 C 0.54521 0.77381 0.60579 0.0
C548 C 0.50997 0.82355 0.62946 0.0
C549 C 0.5049 0.81825 0.66218 0.0
C550 C 0.53055 0.78891 0.62458 0.0
C551 C 0.51271 0.79795 0.67516 0.0
C552 C 0.56427 0.76447 0.62047 0.0
C553 C 0.55432 0.75637 0.55493 0.0
N554 N 0.52549 0.78411 0.65644 0.0
N555 N 0.54078 0.76955 0.57356 0.0
H556 H 0.44885 0.22764 0.92712 0.0
H557 H 0.47162 0.34704 0.85514 0.0
H558 H 0.39475 0.27261 0.90287 0.0
H559 H 0.50938 0.29088 0.81794 0.0
H560 H 0.44648 0.32116 0.8829 0.0
H561 H 0.47449 0.25151 0.89557 0.0
C562 C 0.44232 0.24249 0.91522 0.0
C563 C 0.41963 0.24838 0.91826 0.0
C564 C 0.46023 0.31456 0.8685 0.0
C565 C 0.44887 0.27573 0.88292 0.0
C566 C 0.47459 0.32932 0.85252 0.0
C567 C 0.49233 0.32116 0.83339 0.0
C568 C 0.46402 0.29149 0.86621 0.0
C569 C 0.49573 0.2979 0.83207 0.0
C570 C 0.45695 0.256 0.89723 0.0
C571 C 0.41209 0.26764 0.90198 0.0
N572 N 0.48173 0.28381 0.84844 0.0
N573 N 0.42675 0.28083 0.88544 0.0
H574 H 0.95581 0.26422 0.05593 0.0
H575 H 0.96386 0.15603 0.16791 0.0
H576 H 0.89916 0.23534 0.10641 0.0
H577 H 0.0203 0.20049 0.15768 0.0
H578 H 0.94073 0.18259 0.13803 0.0
H579 H 0.98068 0.23936 0.08722 0.0
C580 C 0.9486 0.25274 0.07361 0.0
C581 C 0.92531 0.25152 0.07806 0.0
C582 C 0.9582 0.18652 0.1422 0.0
C583 C 0.95354 0.22308 0.11342 0.0
C584 C 0.97152 0.17118 0.15887 0.0
C585 C 0.99411 0.17588 0.16482 0.0
C586 C 0.96758 0.20665 0.13102 0.0
C587 C 0.00291 0.19625 0.15345 0.0
C588 C 0.9628 0.23862 0.09142 0.0
C589 C 0.91691 0.23648 0.10147 0.0
N590 N 0.98965 0.2109 0.13681 0.0
N591 N 0.93098 0.2227 0.11798 0.0
H592 H 0.00534 0.70194 0.81628 0.0
H593 H 0.88673 0.7222 0.89905 0.0
H594 H 0.96148 0.64768 0.84384 0.0
H595 H 0.94271 0.76628 0.91686 0.0
H596 H 0.91158 0.69703 0.869 0.0
H597 H 0.9803 0.7281 0.84447 0.0
C598 C 0.99044 0.6955 0.82814 0.0
C599 C 0.98543 0.67253 0.82744 0.0
C600 C 0.91836 0.71224 0.87955 0.0
C601 C 0.95664 0.7024 0.85913 0.0
C602 C 0.90419 0.72662 0.89675 0.0
C603 C 0.9127 0.74617 0.91117 0.0
C604 C 0.94107 0.7177 0.87611 0.0
C605 C 0.93546 0.75125 0.9065 0.0
C606 C 0.97621 0.71044 0.84421 0.0
C607 C 0.96596 0.66516 0.84341 0.0
N608 N 0.94887 0.73711 0.88933 0.0
N609 N 0.95216 0.68007 0.85836 0.0
H610 H 0.04935 0.26588 0.58278 0.0
H611 H 0.02296 0.14299 0.64855 0.0
H612 H 0.09496 0.21026 0.57413 0.0
H613 H 0.99183 0.2015 0.69081 0.0
H614 H 0.04556 0.16716 0.61363 0.0
H615 H 0.02418 0.24214 0.61553 0.0
C616 C 0.05406 0.2487 0.58774 0.0
C617 C 0.07446 0.2401 0.57613 0.0
C618 C 0.0338 0.17471 0.63059 0.0
C619 C 0.04575 0.21294 0.61284 0.0
C620 C 0.02092 0.16091 0.65065 0.0
C621 C 0.00581 0.17022 0.67318 0.0
C622 C 0.03137 0.19802 0.63268 0.0
C623 C 0.00348 0.19362 0.67404 0.0
C624 C 0.03976 0.23524 0.60645 0.0
C625 C 0.07976 0.21777 0.58314 0.0
N626 N 0.01617 0.20676 0.65408 0.0
N627 N 0.06546 0.20495 0.6009 0.0
H628 H 0.54673 0.24122 0.42904 0.0
H629 H 0.52931 0.35779 0.34064 0.0
H630 H 0.60181 0.28502 0.40486 0.0
H631 H 0.48868 0.3008 0.31424 0.0
H632 H 0.5528 0.33341 0.37399 0.0
H633 H 0.52193 0.26484 0.39563 0.0
C634 C 0.55361 0.25583 0.41693 0.0
C635 C 0.57639 0.26131 0.42018 0.0
C636 C 0.53876 0.32628 0.36078 0.0
C637 C 0.54811 0.28838 0.38256 0.0
C638 C 0.52535 0.34017 0.34162 0.0
C639 C 0.50725 0.33129 0.32396 0.0
C640 C 0.53375 0.30341 0.36301 0.0
C641 C 0.50264 0.30832 0.32711 0.0
C642 C 0.53947 0.2692 0.39785 0.0
C643 C 0.5844 0.2803 0.40365 0.0
N644 N 0.51578 0.29513 0.34639 0.0
N645 N 0.57024 0.29327 0.38585 0.0
H646 H 0.46638 0.85584 0.16344 0.0
H647 H 0.45043 0.73792 0.07972 0.0
H648 H 0.50667 0.79946 0.1936 0.0
H649 H 0.3949 0.78238 0.09837 0.0
H650 H 0.47412 0.76157 0.11459 0.0
H651 H 0.44286 0.83066 0.13153 0.0
C652 C 0.47023 0.83818 0.16364 0.0
C653 C 0.4883 0.82974 0.18183 0.0
C654 C 0.45672 0.76604 0.11096 0.0
C655 C 0.46174 0.80091 0.14445 0.0
C656 C 0.4432 0.75265 0.09104 0.0
C657 C 0.42068 0.75838 0.08563 0.0
C658 C 0.44774 0.78551 0.12496 0.0
C659 C 0.41218 0.7775 0.10123 0.0
C660 C 0.45678 0.82383 0.14531 0.0
C661 C 0.49276 0.80667 0.18023 0.0
N662 N 0.42579 0.79053 0.11985 0.0
N663 N 0.47962 0.79302 0.16168 0.0
H664 H 0.98109 0.34979 0.64418 0.0
H665 H 0.95932 0.23447 0.55787 0.0
H666 H 0.02041 0.29264 0.67396 0.0
H667 H 0.90501 0.27485 0.59504 0.0
H668 H 0.98575 0.25781 0.58902 0.0
H669 H 0.95681 0.32499 0.61274 0.0
C670 C 0.98462 0.33208 0.64432 0.0
C671 C 0.00241 0.32324 0.66269 0.0
C672 C 0.968 0.26144 0.59013 0.0
C673 C 0.97518 0.29496 0.62559 0.0
C674 C 0.95292 0.24823 0.57241 0.0
C675 C 0.92987 0.25296 0.5733 0.0
C676 C 0.95994 0.27976 0.60806 0.0
C677 C 0.92254 0.27083 0.59287 0.0
C678 C 0.97079 0.31797 0.62621 0.0
C679 C 0.00664 0.30012 0.66062 0.0
N680 N 0.93755 0.28379 0.60908 0.0
N681 N 0.9931 0.28671 0.64232 0.0
H682 H 0.49552 0.20688 0.29294 0.0
H683 H 0.45265 0.24776 0.46588 0.0
H684 H 0.49927 0.16317 0.37714 0.0
H685 H 0.40939 0.25344 0.38139 0.0
H686 H 0.47868 0.2251 0.43303 0.0
H687 H 0.47212 0.23279 0.32512 0.0
C688 C 0.49163 0.20291 0.31828 0.0
C689 C 0.49917 0.18293 0.33254 0.0
C690 C 0.46357 0.23155 0.42176 0.0
C691 C 0.47316 0.21243 0.36919 0.0
C692 C 0.44882 0.24449 0.44031 0.0
C693 C 0.42889 0.25233 0.42621 0.0
C694 C 0.45858 0.22705 0.38877 0.0
C695 C 0.42456 0.24753 0.39308 0.0
C696 C 0.47828 0.21757 0.33644 0.0
C697 C 0.49361 0.17839 0.36533 0.0
N698 N 0.43941 0.23527 0.37531 0.0
N699 N 0.48105 0.19315 0.38273 0.0
H700 H 0.49843 0.70839 0.20621 0.0
H701 H 0.54105 0.74588 0.03059 0.0
H702 H 0.49595 0.66262 0.12433 0.0
H703 H 0.58188 0.75683 0.11653 0.0
H704 H 0.51535 0.72313 0.06409 0.0
H705 H 0.52045 0.73448 0.17236 0.0
C706 C 0.50232 0.70397 0.18103 0.0
C707 C 0.49557 0.68333 0.16799 0.0
C708 C 0.52985 0.73075 0.0755 0.0
C709 C 0.52005 0.71309 0.12934 0.0
C710 C 0.54439 0.74375 0.05657 0.0
C711 C 0.56358 0.75308 0.07093 0.0
C712 C 0.53426 0.72772 0.10906 0.0
C713 C 0.5673 0.74974 0.1046 0.0
C714 C 0.51488 0.71877 0.1619 0.0
C715 C 0.50106 0.67832 0.1353 0.0
N716 N 0.55268 0.73742 0.12266 0.0
N717 N 0.51289 0.69318 0.11694 0.0
H718 H 0.00011 0.79494 0.79494 0.0
H719 H 0.04701 0.75542 0.96654 0.0
H720 H 0.99691 0.83922 0.8785 0.0
H721 H 0.08853 0.7508 0.88008 0.0
H722 H 0.01983 0.7777 0.93495 0.0
H723 H 0.02423 0.76956 0.82689 0.0
C724 C 0.00423 0.79911 0.82013 0.0
C725 C 0.99668 0.81915 0.83421 0.0
C726 C 0.03484 0.77158 0.923 0.0
C727 C 0.02358 0.79025 0.87063 0.0
C728 C 0.05024 0.75889 0.94084 0.0
C729 C 0.06999 0.75144 0.92578 0.0
C730 C 0.03897 0.77614 0.88975 0.0
C731 C 0.07353 0.75643 0.89252 0.0
C732 C 0.018 0.78476 0.83815 0.0
C733 C 0.00256 0.82395 0.86681 0.0
N734 N 0.05804 0.76836 0.87544 0.0
N735 N 0.01558 0.8095 0.88409 0.0
H736 H 0.00633 0.36442 0.33384 0.0
H737 H 0.11554 0.3128 0.41623 0.0
H738 H 0.06826 0.35607 0.2805 0.0
H739 H 0.05927 0.33793 0.47165 0.0
H740 H 0.09908 0.32859 0.36619 0.0
H741 H 0.02566 0.35433 0.38446 0.0
C742 C 0.02402 0.36051 0.33275 0.0
C743 C 0.03565 0.361 0.30279 0.0
C744 C 0.0905 0.33085 0.38939 0.0
C745 C 0.05793 0.34931 0.36085 0.0
C746 C 0.09989 0.32188 0.41797 0.0
C747 C 0.08869 0.32388 0.44817 0.0
C748 C 0.06965 0.34169 0.391 0.0
C749 C 0.06847 0.33584 0.44894 0.0
C750 C 0.03509 0.35485 0.36174 0.0
C751 C 0.05862 0.35591 0.30302 0.0
N752 N 0.05949 0.34405 0.42075 0.0
N753 N 0.06897 0.35008 0.33156 0.0
H754 H 0.8849 0.76236 0.57743 0.0
H755 H 0.94045 0.8666 0.66627 0.0
H756 H 0.9014 0.82244 0.5237 0.0
H757 H 0.90234 0.81578 0.7169 0.0
H758 H 0.9274 0.8513 0.61364 0.0
H759 H 0.89287 0.78174 0.62861 0.0
C760 C 0.89022 0.77968 0.57638 0.0
C761 C 0.8926 0.79075 0.54616 0.0
C762 C 0.9217 0.84374 0.63634 0.0
C763 C 0.90187 0.81314 0.60504 0.0
C764 C 0.92911 0.85245 0.66637 0.0
C765 C 0.92265 0.84233 0.69609 0.0
C766 C 0.90799 0.82464 0.63609 0.0
C767 C 0.90793 0.82405 0.6947 0.0
C768 C 0.89463 0.7908 0.6057 0.0
C769 C 0.89934 0.81329 0.54646 0.0
N770 N 0.90134 0.81567 0.66526 0.0
N771 N 0.90399 0.82371 0.57548 0.0
H772 H 0.388 0.6834 0.91655 0.0
H773 H 0.50279 0.6529 0.82504 0.0
H774 H 0.45413 0.70054 0.95111 0.0
H775 H 0.43834 0.64398 0.77866 0.0
H776 H 0.4842 0.66682 0.87384 0.0
H777 H 0.40512 0.66531 0.86824 0.0
C778 C 0.40606 0.68318 0.91414 0.0
C779 C 0.41967 0.6936 0.93775 0.0
C780 C 0.47403 0.66184 0.85306 0.0
C781 C 0.43922 0.67308 0.88298 0.0
C782 C 0.48468 0.65385 0.82505 0.0
C783 C 0.47216 0.64736 0.79748 0.0
C784 C 0.45059 0.66345 0.85381 0.0
C785 C 0.44869 0.64889 0.79927 0.0
C786 C 0.41579 0.67297 0.88657 0.0
C787 C 0.44295 0.69292 0.93343 0.0
N788 N 0.43863 0.65686 0.82697 0.0
N789 N 0.45192 0.6829 0.90666 0.0
H790 H 0.60966 0.24103 0.07638 0.0
H791 H 0.56064 0.13434 0.16815 0.0
H792 H 0.60185 0.17755 0.02703 0.0
H793 H 0.59087 0.19027 0.21858 0.0
H794 H 0.57398 0.14974 0.11579 0.0
H795 H 0.60048 0.22296 0.12837 0.0
C796 C 0.60598 0.22328 0.07644 0.0
C797 C 0.60647 0.21081 0.04724 0.0
C798 C 0.57788 0.15846 0.13841 0.0
C799 C 0.59588 0.18998 0.10686 0.0
C800 C 0.5703 0.14968 0.16828 0.0
C801 C 0.57452 0.1611 0.19781 0.0
C802 C 0.58945 0.17892 0.13809 0.0
C803 C 0.58712 0.18091 0.19648 0.0
C804 C 0.60087 0.21294 0.10621 0.0
C805 C 0.6017 0.1878 0.04896 0.0
N806 N 0.5939 0.1893 0.16713 0.0
N807 N 0.59642 0.17814 0.07825 0.0
H808 H 0.01081 0.64492 0.17547 0.0
H809 H 0.1198 0.69302 0.09 0.0
H810 H 0.07264 0.65186 0.22956 0.0
H811 H 0.06719 0.65893 0.03716 0.0
H812 H 0.1029 0.68056 0.1419 0.0
H813 H 0.03081 0.65351 0.12491 0.0
C814 C 0.02861 0.64832 0.17677 0.0
C815 C 0.04006 0.64766 0.20686 0.0
C816 C 0.09529 0.67562 0.11887 0.0
C817 C 0.06309 0.65757 0.14881 0.0
C818 C 0.10492 0.68268 0.08927 0.0
C819 C 0.0948 0.67716 0.05916 0.0
C820 C 0.07528 0.6633 0.11825 0.0
C821 C 0.07553 0.66372 0.0597 0.0
C822 C 0.04005 0.65307 0.1478 0.0
C823 C 0.06317 0.65212 0.20688 0.0
N824 N 0.06626 0.65752 0.08874 0.0
N825 N 0.07393 0.65707 0.17827 0.0
H826 H 0.59029 0.81768 0.28341 0.0
H827 H 0.60132 0.81649 0.47943 0.0
H828 H 0.55778 0.86646 0.34545 0.0
H829 H 0.61523 0.75982 0.41688 0.0
H830 H 0.59133 0.83839 0.43051 0.0
H831 H 0.60618 0.80009 0.33216 0.0
C832 C 0.5867 0.82489 0.30725 0.0
C833 C 0.57245 0.84344 0.31033 0.0
C834 C 0.59669 0.82119 0.4276 0.0
C835 C 0.59055 0.82323 0.36637 0.0
C836 C 0.60244 0.80871 0.45545 0.0
C837 C 0.60895 0.78623 0.45227 0.0
C838 C 0.59779 0.81119 0.39641 0.0
C839 C 0.61009 0.77701 0.42059 0.0
C840 C 0.59571 0.81475 0.33511 0.0
C841 C 0.56854 0.85208 0.34193 0.0
N842 N 0.60456 0.78951 0.39396 0.0
N843 N 0.57741 0.8418 0.36879 0.0
H844 H 0.3828 0.30514 0.5975 0.0
H845 H 0.49 0.36045 0.67874 0.0
H846 H 0.43216 0.34218 0.54222 0.0
H847 H 0.42985 0.34839 0.73486 0.0
H848 H 0.4697 0.35103 0.62862 0.0
H849 H 0.39999 0.31868 0.64856 0.0
C850 C 0.39706 0.3163 0.59607 0.0
C851 C 0.40614 0.32241 0.56553 0.0
C852 C 0.46089 0.35056 0.65187 0.0
C853 C 0.426 0.33758 0.62364 0.0
C854 C 0.47251 0.3558 0.68054 0.0
C855 C 0.46162 0.35516 0.71106 0.0
C856 C 0.43829 0.34425 0.65369 0.0
C857 C 0.43887 0.34916 0.71182 0.0
C858 C 0.40684 0.32401 0.62519 0.0
C859 C 0.42461 0.33694 0.56515 0.0
N860 N 0.42798 0.34372 0.68355 0.0
N861 N 0.43408 0.34379 0.59373 0.0
H862 H 0.94419 0.13428 0.84601 0.0
H863 H 0.8906 0.24413 0.923 0.0
H864 H 0.9132 0.1864 0.78826 0.0
H865 H 0.90132 0.18441 0.98069 0.0
H866 H 0.90074 0.22343 0.87369 0.0
H867 H 0.92988 0.15217 0.896 0.0
C868 C 0.93417 0.14931 0.84379 0.0
C869 C 0.93003 0.15894 0.81289 0.0
C870 C 0.90078 0.21479 0.89709 0.0
C871 C 0.91393 0.17959 0.86988 0.0
C872 C 0.89511 0.22664 0.92534 0.0
C873 C 0.89517 0.21602 0.9561 0.0
C874 C 0.90686 0.19216 0.8995 0.0
C875 C 0.90103 0.19326 0.95748 0.0
C876 C 0.92604 0.15951 0.87232 0.0
C877 C 0.91693 0.17842 0.8115 0.0
N878 N 0.90682 0.18211 0.92958 0.0
N879 N 0.90957 0.18821 0.83958 0.0
H880 H 0.98269 0.65889 0.68723 0.0
H881 H 0.87687 0.64646 0.57075 0.0
H882 H 0.92599 0.61925 0.71801 0.0
H883 H 0.91707 0.70642 0.57667 0.0
H884 H 0.89675 0.63175 0.61927 0.0
H885 H 0.96135 0.6715 0.63963 0.0
C886 C 0.96581 0.65267 0.68385 0.0
C887 C 0.95607 0.63807 0.70673 0.0
C888 C 0.901 0.64817 0.60986 0.0
C889 C 0.93159 0.65242 0.65214 0.0
C890 C 0.88972 0.65655 0.58227 0.0
C891 C 0.89533 0.67768 0.56955 0.0
C892 C 0.91823 0.66085 0.62418 0.0
C893 C 0.91213 0.69006 0.58547 0.0
C894 C 0.9536 0.66 0.65678 0.0
C895 C 0.93406 0.63065 0.70107 0.0
N896 N 0.9231 0.68137 0.61167 0.0
N897 N 0.92253 0.63786 0.67419 0.0
H898 H 0.05966 0.13396 0.33071 0.0
H899 H 0.10723 0.24283 0.41902 0.0
H900 H 0.08541 0.19128 0.27828 0.0
H901 H 0.10211 0.1793 0.4691 0.0
H902 H 0.09709 0.22443 0.36768 0.0
H903 H 0.0736 0.15017 0.38214 0.0
C904 C 0.06844 0.14981 0.32994 0.0
C905 C 0.07125 0.16133 0.30014 0.0
C906 C 0.09828 0.21447 0.38986 0.0
C907 C 0.0869 0.18006 0.35883 0.0
C908 C 0.10394 0.225 0.41926 0.0
C909 C 0.10549 0.21261 0.44848 0.0
C910 C 0.09381 0.19141 0.38961 0.0
C911 C 0.10116 0.1895 0.44715 0.0
C912 C 0.07637 0.15905 0.35929 0.0
C913 C 0.08278 0.1818 0.30063 0.0
N914 N 0.09535 0.17966 0.41823 0.0
N915 N 0.08995 0.19061 0.32951 0.0
H916 H 0.61592 0.31078 0.07864 0.0
H917 H 0.50638 0.35932 0.16369 0.0
H918 H 0.5584 0.33455 0.02467 0.0
H919 H 0.56971 0.35582 0.21465 0.0
H920 H 0.52513 0.34842 0.11303 0.0
H921 H 0.59962 0.32609 0.12914 0.0
C922 C 0.60003 0.31945 0.07731 0.0
C923 C 0.58844 0.32124 0.04739 0.0
C924 C 0.53498 0.35013 0.13524 0.0
C925 C 0.56961 0.33843 0.10505 0.0
C926 C 0.52425 0.35623 0.16427 0.0
C927 C 0.53647 0.35844 0.19355 0.0
C928 C 0.55809 0.3459 0.1354 0.0
C929 C 0.55963 0.35434 0.19264 0.0
C930 C 0.59073 0.32815 0.10614 0.0
C931 C 0.56791 0.33266 0.04715 0.0
N932 N 0.56968 0.34809 0.16406 0.0
N933 N 0.55905 0.34059 0.07557 0.0
H934 H 0.40053 0.82221 0.97353 0.0
H935 H 0.4158 0.80694 0.78007 0.0
H936 H 0.39723 0.75852 0.92361 0.0
H937 H 0.44509 0.86283 0.8318 0.0
H938 H 0.40264 0.79191 0.83223 0.0
H939 H 0.41163 0.83992 0.92149 0.0
C940 C 0.40213 0.81196 0.95171 0.0
C941 C 0.39797 0.78883 0.95297 0.0
C942 C 0.41187 0.80752 0.83218 0.0
C943 C 0.41026 0.80901 0.89355 0.0
C944 C 0.41928 0.81621 0.80236 0.0
C945 C 0.43173 0.83612 0.80154 0.0
C946 C 0.4167 0.81886 0.86151 0.0
C947 C 0.43565 0.84737 0.83132 0.0
C948 C 0.40848 0.82207 0.92211 0.0
C949 C 0.40035 0.77637 0.92393 0.0
N950 N 0.42819 0.83855 0.86019 0.0
N951 N 0.40618 0.78663 0.89545 0.0
H952 H 0.88376 0.31127 0.90808 0.0
H953 H 0.99683 0.34927 0.82197 0.0
H954 H 0.94003 0.33922 0.96056 0.0
H955 H 0.9344 0.34783 0.7684 0.0
H956 H 0.97648 0.34144 0.87245 0.0
H957 H 0.90186 0.32161 0.85605 0.0
C958 C 0.89974 0.31982 0.90871 0.0
C959 C 0.91045 0.32427 0.93876 0.0
C960 C 0.9672 0.34288 0.84968 0.0
C961 C 0.93132 0.33567 0.87951 0.0
C962 C 0.97883 0.34719 0.82073 0.0
C963 C 0.96731 0.34927 0.79081 0.0
C964 C 0.94386 0.3403 0.84885 0.0
C965 C 0.94395 0.34644 0.79092 0.0
C966 C 0.91005 0.32566 0.87903 0.0
C967 C 0.93115 0.33536 0.93807 0.0
N968 N 0.93296 0.34199 0.81952 0.0
N969 N 0.941 0.34043 0.90897 0.0
H970 H 0.41855 0.16285 0.69545 0.0
H971 H 0.40211 0.17946 0.50189 0.0
H972 H 0.45097 0.12091 0.62333 0.0
H973 H 0.38941 0.23107 0.57375 0.0
H974 H 0.41405 0.15442 0.54624 0.0
H975 H 0.40132 0.18423 0.65107 0.0
C976 C 0.42183 0.15791 0.67029 0.0
C977 C 0.43641 0.14013 0.66314 0.0
C978 C 0.40853 0.1712 0.55223 0.0
C979 C 0.41673 0.16469 0.61217 0.0
C980 C 0.40165 0.18549 0.52698 0.0
C981 C 0.39486 0.20747 0.53407 0.0
C982 C 0.40834 0.17884 0.58485 0.0
C983 C 0.39467 0.21434 0.56706 0.0
C984 C 0.41206 0.17024 0.64496 0.0
C985 C 0.43995 0.13455 0.63001 0.0
N986 N 0.40131 0.20009 0.59119 0.0
N987 N 0.43027 0.14687 0.60573 0.0
H988 H 0.61585 0.69158 0.39789 0.0
H989 H 0.50721 0.63712 0.319 0.0
H990 H 0.56714 0.65381 0.45332 0.0
H991 H 0.56482 0.65413 0.25998 0.0
H992 H 0.52889 0.64469 0.3684 0.0
H993 H 0.59788 0.679 0.34689 0.0
C994 C 0.6016 0.68042 0.39936 0.0
C995 C 0.59287 0.67391 0.42997 0.0
C996 C 0.53688 0.64665 0.34469 0.0
C997 C 0.57213 0.65978 0.37186 0.0
C998 C 0.52446 0.64245 0.3164 0.0
C999 C 0.53417 0.64509 0.28524 0.0
C1000 C 0.55916 0.65389 0.34198 0.0
C1001 C 0.55667 0.65187 0.28351 0.0
C1002 C 0.59135 0.67327 0.37025 0.0
C1003 C 0.57438 0.65941 0.43036 0.0
N1004 N 0.56837 0.65626 0.31152 0.0
N1005 N 0.5645 0.65307 0.40181 0.0
H1006 H 0.09936 0.8197 0.01697 0.0
H1007 H 0.09529 0.81512 0.21349 0.0
H1008 H 0.11664 0.76167 0.0749 0.0
H1009 H 0.05963 0.86492 0.15717 0.0
H1010 H 0.10962 0.79922 0.16253 0.0
H1011 H 0.09054 0.83995 0.06787 0.0
C1012 C 0.10146 0.81128 0.04034 0.0
C1013 C 0.10859 0.78889 0.04165 0.0
C1014 C 0.09879 0.81373 0.1613 0.0
C1015 C 0.09875 0.81197 0.09976 0.0
C1016 C 0.09067 0.8229 0.19043 0.0
C1017 C 0.07602 0.84125 0.18964 0.0
C1018 C 0.09234 0.82298 0.13104 0.0
C1019 C 0.07075 0.85067 0.15894 0.0
C1020 C 0.09637 0.82282 0.06932 0.0
C1021 C 0.11099 0.77882 0.07262 0.0
N1022 N 0.07879 0.84133 0.1308 0.0
N1023 N 0.10609 0.79041 0.10037 0.0
H1024 H 0.59247 0.78865 0.90808 0.0
H1025 H 0.56906 0.87838 0.76906 0.0
H1026 H 0.60793 0.85815 0.92646 0.0
H1027 H 0.5219 0.8265 0.79445 0.0
H1028 H 0.59153 0.86825 0.81777 0.0
H1029 H 0.5753 0.79927 0.85602 0.0
C1030 C 0.59262 0.80612 0.90098 0.0
C1031 C 0.60146 0.82259 0.92191 0.0
C1032 C 0.57628 0.85913 0.81243 0.0
C1033 C 0.58196 0.83468 0.86208 0.0
C1034 C 0.56356 0.86479 0.78473 0.0
C1035 C 0.54359 0.85329 0.77794 0.0
C1036 C 0.56926 0.84142 0.83259 0.0
C1037 C 0.5371 0.83589 0.799 0.0
C1038 C 0.5827 0.81212 0.87132 0.0
C1039 C 0.60114 0.84496 0.9112 0.0
N1040 N 0.55 0.83035 0.8252 0.0
N1041 N 0.59146 0.85041 0.88193 0.0
H1042 H 0.41483 0.30909 0.21515 0.0
H1043 H 0.39511 0.31574 0.02111 0.0
H1044 H 0.43765 0.365 0.15683 0.0
H1045 H 0.39328 0.25436 0.07711 0.0
H1046 H 0.40586 0.33596 0.07112 0.0
H1047 H 0.40114 0.29108 0.16535 0.0
C1048 C 0.41675 0.31774 0.19192 0.0
C1049 C 0.42756 0.33856 0.19019 0.0
C1050 C 0.40309 0.31807 0.07235 0.0
C1051 C 0.41196 0.31786 0.1329 0.0
C1052 C 0.39695 0.30651 0.04386 0.0
C1053 C 0.39333 0.28328 0.04485 0.0
C1054 C 0.40532 0.30637 0.1021 0.0
C1055 C 0.39599 0.27222 0.07506 0.0
C1056 C 0.40904 0.30734 0.16344 0.0
C1057 C 0.4295 0.34891 0.1593 0.0
N1058 N 0.40172 0.28387 0.10243 0.0
N1059 N 0.42184 0.33841 0.13182 0.0
H1060 H 0.8779 0.14781 0.41766 0.0
H1061 H 0.98504 0.16595 0.30518 0.0
H1062 H 0.9178 0.20811 0.4188 0.0
H1063 H 0.92985 0.12527 0.27166 0.0
H1064 H 0.96264 0.17752 0.35237 0.0
H1065 H 0.89842 0.13553 0.36834 0.0
C1066 C 0.89081 0.1585 0.40751 0.0
C1067 C 0.89616 0.17898 0.42251 0.0
C1068 C 0.95541 0.16608 0.33465 0.0
C1069 C 0.91978 0.1649 0.36682 0.0
C1070 C 0.96823 0.15938 0.30781 0.0
C1071 C 0.95927 0.14469 0.28438 0.0
C1072 C 0.93359 0.15775 0.33852 0.0
C1073 C 0.93733 0.13676 0.28904 0.0
C1074 C 0.90246 0.1515 0.37943 0.0
C1075 C 0.91305 0.19218 0.40825 0.0
N1076 N 0.92524 0.14329 0.31574 0.0
N1077 N 0.92437 0.18481 0.3815 0.0
H1078 H 0.10182 0.67901 0.53108 0.0
H1079 H 0.08163 0.68784 0.72472 0.0
H1080 H 0.1047 0.74086 0.5858 0.0
H1081 H 0.05652 0.63251 0.66728 0.0
H1082 H 0.09606 0.70492 0.67465 0.0
H1083 H 0.0902 0.65953 0.58135 0.0
C1084 C 0.10003 0.6885 0.55361 0.0
C1085 C 0.10421 0.71164 0.55418 0.0
C1086 C 0.08749 0.68898 0.673 0.0
C1087 C 0.09123 0.6894 0.61169 0.0
C1088 C 0.07935 0.67912 0.70163 0.0
C1089 C 0.06768 0.65875 0.70022 0.0
C1090 C 0.08414 0.67838 0.64264 0.0
C1091 C 0.06533 0.64827 0.6695 0.0
C1092 C 0.09338 0.67736 0.58223 0.0
C1093 C 0.10158 0.72305 0.58408 0.0
N1094 N 0.07342 0.65825 0.64185 0.0
N1095 N 0.09537 0.7118 0.61161 0.0
H1096 H 0.61547 0.18869 0.58197 0.0
H1097 H 0.50303 0.14416 0.6644 0.0
H1098 H 0.55751 0.16771 0.52654 0.0
H1099 H 0.56611 0.14466 0.71628 0.0
H1100 H 0.52254 0.15519 0.61433 0.0
H1101 H 0.5978 0.17423 0.63206 0.0
C1102 C 0.59918 0.18081 0.58024 0.0
C1103 C 0.58792 0.17952 0.55 0.0
C1104 C 0.53214 0.15281 0.63663 0.0
C1105 C 0.56752 0.16334 0.6072 0.0
C1106 C 0.52098 0.14663 0.66533 0.0
C1107 C 0.53293 0.14346 0.69467 0.0
C1108 C 0.55541 0.15616 0.63723 0.0
C1109 C 0.55622 0.14686 0.69422 0.0
C1110 C 0.5891 0.17262 0.60884 0.0
C1111 C 0.56683 0.16916 0.54926 0.0
N1112 N 0.56669 0.15315 0.666 0.0
N1113 N 0.55723 0.1617 0.57745 0.0
H1114 H 0.05356 0.29151 0.80207 0.0
H1115 H 0.10451 0.31198 0.98122 0.0
H1116 H 0.07025 0.35757 0.83723 0.0
H1117 H 0.09157 0.24709 0.93846 0.0
H1118 H 0.09278 0.32953 0.92946 0.0
H1119 H 0.06844 0.27556 0.85222 0.0
C1120 C 0.06046 0.30271 0.82038 0.0
C1121 C 0.06053 0.32595 0.81549 0.0
C1122 C 0.0926 0.31147 0.93149 0.0
C1123 C 0.07762 0.30764 0.87361 0.0
C1124 C 0.09923 0.30142 0.96104 0.0
C1125 C 0.09894 0.27799 0.96435 0.0
C1126 C 0.08561 0.29798 0.90516 0.0
C1127 C 0.09202 0.26519 0.93728 0.0
C1128 C 0.069 0.29355 0.84912 0.0
C1129 C 0.0699 0.33956 0.84003 0.0
N1130 N 0.08561 0.27534 0.90901 0.0
N1131 N 0.07794 0.3302 0.86826 0.0
H1132 H 0.94774 0.81297 0.0378 0.0
H1133 H 0.93055 0.85666 0.22176 0.0
H1134 H 0.88221 0.81925 0.08147 0.0
H1135 H 0.99408 0.85276 0.17137 0.0
H1136 H 0.91176 0.84491 0.17088 0.0
H1137 H 0.96415 0.82976 0.08636 0.0
C1138 C 0.93674 0.81804 0.05762 0.0
C1139 C 0.91358 0.81456 0.05566 0.0
C1140 C 0.92979 0.84678 0.17104 0.0
C1141 C 0.93241 0.83372 0.11197 0.0
C1142 C 0.94054 0.85346 0.20006 0.0
C1143 C 0.96398 0.85556 0.20101 0.0
C1144 C 0.94261 0.8422 0.14287 0.0
C1145 C 0.97602 0.85123 0.17208 0.0
C1146 C 0.94616 0.82766 0.08546 0.0
C1147 C 0.90017 0.82167 0.08202 0.0
N1148 N 0.96523 0.84472 0.1444 0.0
N1149 N 0.90982 0.83073 0.10934 0.0
H1150 H 0.38932 0.74106 0.42872 0.0
H1151 H 0.43814 0.63478 0.33574 0.0
H1152 H 0.4007 0.6783 0.47861 0.0
H1153 H 0.40569 0.68987 0.28626 0.0
H1154 H 0.4258 0.65021 0.38857 0.0
H1155 H 0.39714 0.72276 0.37644 0.0
C1156 C 0.39347 0.72341 0.42871 0.0
C1157 C 0.39442 0.71122 0.45815 0.0
C1158 C 0.4212 0.65873 0.36608 0.0
C1159 C 0.40347 0.69013 0.3982 0.0
C1160 C 0.4282 0.64994 0.33593 0.0
C1161 C 0.42308 0.66113 0.30651 0.0
C1162 C 0.40926 0.67899 0.36677 0.0
C1163 C 0.41015 0.6807 0.30826 0.0
C1164 C 0.39781 0.71294 0.39879 0.0
C1165 C 0.39975 0.68834 0.45651 0.0
N1166 N 0.40392 0.68913 0.33785 0.0
N1167 N 0.40427 0.67856 0.42703 0.0
H1168 H 0.43083 0.14922 0.23555 0.0
H1169 H 0.44766 0.18512 0.0482 0.0
H1170 H 0.49344 0.14658 0.18258 0.0
H1171 H 0.38237 0.18334 0.09341 0.0
H1172 H 0.46367 0.16851 0.09719 0.0
H1173 H 0.41179 0.15958 0.18419 0.0
C1174 C 0.44055 0.15067 0.21318 0.0
C1175 C 0.46384 0.14724 0.21352 0.0
C1176 C 0.4458 0.17154 0.09656 0.0
C1177 C 0.44219 0.15898 0.1549 0.0
C1178 C 0.43664 0.18105 0.0685 0.0
C1179 C 0.4137 0.18576 0.06689 0.0
C1180 C 0.43204 0.16692 0.12368 0.0
C1181 C 0.40017 0.17992 0.09376 0.0
C1182 C 0.42966 0.15655 0.18391 0.0
C1183 C 0.47554 0.14927 0.18377 0.0
N1184 N 0.40961 0.17103 0.12137 0.0
N1185 N 0.46462 0.15508 0.15587 0.0
H1186 H 0.60306 0.68046 0.78932 0.0
H1187 H 0.59557 0.68134 0.98589 0.0
H1188 H 0.56337 0.63265 0.84355 0.0
H1189 H 0.61695 0.73719 0.92634 0.0
H1190 H 0.58984 0.65937 0.9354 0.0
H1191 H 0.61514 0.69703 0.84106 0.0
C1192 C 0.59709 0.67323 0.81211 0.0
C1193 C 0.58194 0.6553 0.81202 0.0
C1194 C 0.59592 0.67639 0.93356 0.0
C1195 C 0.59562 0.67438 0.87152 0.0
C1196 C 0.59923 0.6889 0.9623 0.0
C1197 C 0.60653 0.7112 0.9603 0.0
C1198 C 0.6003 0.68621 0.90282 0.0
C1199 C 0.61103 0.72017 0.9291 0.0
C1200 C 0.60393 0.68279 0.84168 0.0
C1201 C 0.57494 0.64657 0.84244 0.0
N1202 N 0.60784 0.70767 0.9017 0.0
N1203 N 0.58168 0.65634 0.87101 0.0
H1204 H 0.06628 0.85017 0.73919 0.0
H1205 H 0.05057 0.80951 0.55394 0.0
H1206 H 0.00439 0.85336 0.68447 0.0
H1207 H 0.11571 0.81304 0.59941 0.0
H1208 H 0.03431 0.82741 0.60173 0.0
H1209 H 0.08563 0.83822 0.68884 0.0
C1210 C 0.05679 0.84852 0.71665 0.0
C1211 C 0.0336 0.85256 0.71621 0.0
C1212 C 0.0522 0.82449 0.6014 0.0
C1213 C 0.05559 0.83898 0.65876 0.0
C1214 C 0.06151 0.81421 0.57403 0.0
C1215 C 0.08449 0.80965 0.57285 0.0
C1216 C 0.06586 0.83003 0.62825 0.0
C1217 C 0.09789 0.81632 0.59944 0.0
C1218 C 0.06785 0.84174 0.68795 0.0
C1219 C 0.0222 0.85023 0.68625 0.0
N1220 N 0.08832 0.82597 0.62638 0.0
N1221 N 0.03327 0.84351 0.65894 0.0
H1222 H 0.90026 0.32189 0.48028 0.0
H1223 H 0.90404 0.31992 0.2838 0.0
H1224 H 0.88773 0.26332 0.42095 0.0
H1225 H 0.9389 0.36991 0.34084 0.0
H1226 H 0.89052 0.30304 0.3346 0.0
H1227 H 0.90798 0.34322 0.42987 0.0
C1228 C 0.89903 0.31356 0.45672 0.0
C1229 C 0.89352 0.29074 0.45484 0.0
C1230 C 0.90097 0.31783 0.33599 0.0
C1231 C 0.90195 0.31505 0.39736 0.0
C1232 C 0.90861 0.32757 0.30698 0.0
C1233 C 0.92288 0.3462 0.30803 0.0
C1234 C 0.90752 0.32681 0.36637 0.0
C1235 C 0.92808 0.35544 0.33888 0.0
C1236 C 0.90345 0.32572 0.42804 0.0
C1237 C 0.89214 0.28079 0.42366 0.0
N1238 N 0.92054 0.34553 0.3669 0.0
N1239 N 0.89629 0.293 0.39622 0.0
H1240 H 0.42636 0.85586 0.28728 0.0
H1241 H 0.4386 0.83986 0.48151 0.0
H1242 H 0.48855 0.86324 0.34029 0.0
H1243 H 0.3842 0.81085 0.42612 0.0
H1244 H 0.45381 0.85533 0.43076 0.0
H1245 H 0.40782 0.84535 0.33881 0.0
C1246 C 0.43609 0.85537 0.30973 0.0
C1247 C 0.45909 0.86031 0.30943 0.0
C1248 C 0.43845 0.84572 0.42974 0.0
C1249 C 0.43792 0.84859 0.36833 0.0
C1250 C 0.42966 0.83698 0.45875 0.0
C1251 C 0.4102 0.82382 0.45807 0.0
C1252 C 0.42766 0.84145 0.39977 0.0
C1253 C 0.39933 0.82076 0.42777 0.0
C1254 C 0.4255 0.84934 0.33906 0.0
C1255 C 0.47085 0.85939 0.33926 0.0
N1256 N 0.40828 0.8294 0.39975 0.0
N1257 N 0.46013 0.85369 0.36747 0.0
H1258 H 0.96165 0.70492 0.18762 0.0
H1259 H 0.88484 0.68418 0.02989 0.0
H1260 H 0.92914 0.64149 0.17008 0.0
H1261 H 0.90892 0.74879 0.06182 0.0
H1262 H 0.90192 0.66723 0.07882 0.0
H1263 H 0.94359 0.72014 0.13933 0.0
C1264 C 0.95065 0.69412 0.17359 0.0
C1265 C 0.94691 0.67184 0.183 0.0
C1266 C 0.90336 0.6851 0.07503 0.0
C1267 C 0.926 0.68936 0.12712 0.0
C1268 C 0.89369 0.6948 0.0471 0.0
C1269 C 0.89545 0.71797 0.04165 0.0
C1270 C 0.91498 0.69868 0.09745 0.0
C1271 C 0.90706 0.73089 0.06485 0.0
C1272 C 0.94027 0.7029 0.14593 0.0
C1273 C 0.93243 0.65877 0.16374 0.0
N1274 N 0.91639 0.72106 0.09157 0.0
N1275 N 0.92251 0.66772 0.13655 0.0
H1276 H 0.128 0.19751 0.89492 0.0
H1277 H 0.01596 0.14013 0.83224 0.0
H1278 H 0.07969 0.16729 0.96021 0.0
H1279 H 0.07376 0.14755 0.76947 0.0
H1280 H 0.03848 0.15229 0.87899 0.0
H1281 H 0.10818 0.181 0.84808 0.0
C1282 C 0.11342 0.1872 0.89946 0.0
C1283 C 0.10546 0.18387 0.93157 0.0
C1284 C 0.04628 0.15114 0.85503 0.0
C1285 C 0.08254 0.16531 0.87812 0.0
C1286 C 0.03339 0.14432 0.82827 0.0
C1287 C 0.04296 0.14286 0.79684 0.0
C1288 C 0.06885 0.15691 0.85034 0.0
C1289 C 0.06571 0.14838 0.79327 0.0
C1290 C 0.10212 0.1778 0.87272 0.0
C1291 C 0.08645 0.17035 0.93594 0.0
N1292 N 0.07784 0.15536 0.81965 0.0
N1293 N 0.0755 0.16181 0.90952 0.0
H1294 H 0.6086 0.25752 0.57899 0.0
H1295 H 0.56131 0.36506 0.67106 0.0
H1296 H 0.60354 0.32183 0.53112 0.0
H1297 H 0.58591 0.30635 0.72131 0.0
H1298 H 0.57556 0.34981 0.61919 0.0
H1299 H 0.59853 0.27508 0.63093 0.0
C1300 C 0.60534 0.27535 0.57936 0.0
C1301 C 0.60686 0.2882 0.55056 0.0
C1302 C 0.57802 0.34042 0.64167 0.0
C1303 C 0.59526 0.30846 0.61019 0.0
C1304 C 0.56992 0.34911 0.67128 0.0
C1305 C 0.57228 0.3369 0.70058 0.0
C1306 C 0.58829 0.31927 0.64135 0.0
C1307 C 0.5836 0.31633 0.69937 0.0
C1308 C 0.59971 0.2854 0.60912 0.0
C1309 C 0.60259 0.31128 0.5527 0.0
N1310 N 0.59096 0.30808 0.67023 0.0
N1311 N 0.59682 0.32066 0.58198 0.0
H1312 H 0.95671 0.44648 0.24755 0.0
H1313 H 0.02949 0.55735 0.26282 0.0
H1314 H 0.02636 0.45099 0.21979 0.0
H1315 H 0.9575 0.5602 0.25478 0.0
H1316 H 0.0282 0.5174 0.25174 0.0
H1317 H 0.95611 0.48731 0.25515 0.0
C1318 C 0.97184 0.456 0.2431 0.0
C1319 C 0.99163 0.44527 0.23308 0.0
C1320 C 0.01265 0.52673 0.25218 0.0
C1321 C 0.99103 0.49171 0.2418 0.0
C1322 C 0.01337 0.54955 0.2586 0.0
C1323 C 0.99356 0.5621 0.25979 0.0
C1324 C 0.99194 0.51616 0.24736 0.0
C1325 C 0.97316 0.55111 0.25391 0.0
C1326 C 0.97143 0.47926 0.24724 0.0
C1327 C 0.0107 0.45845 0.22748 0.0
N1328 N 0.97283 0.52864 0.24826 0.0
N1329 N 0.00994 0.48089 0.2321 0.0
H1330 H 0.80405 0.77827 0.47621 0.0
H1331 H 0.69527 0.70294 0.49797 0.0
H1332 H 0.8091 0.70718 0.49359 0.0
H1333 H 0.69782 0.77306 0.52329 0.0
H1334 H 0.73597 0.70363 0.48869 0.0
H1335 H 0.76384 0.77614 0.48574 0.0
C1336 C 0.79669 0.76218 0.48201 0.0
C1337 C 0.80997 0.74287 0.48415 0.0
C1338 C 0.72752 0.71879 0.49636 0.0
C1339 C 0.7638 0.74031 0.49481 0.0
C1340 C 0.70434 0.71846 0.50146 0.0
C1341 C 0.69314 0.73796 0.51148 0.0
C1342 C 0.73939 0.73886 0.50068 0.0
C1343 C 0.70573 0.75758 0.51578 0.0
C1344 C 0.77373 0.761 0.48756 0.0
C1345 C 0.79948 0.72249 0.4919 0.0
N1346 N 0.72811 0.75755 0.51016 0.0
N1347 N 0.77693 0.72169 0.49674 0.0
H1348 H 0.54413 0.43963 0.76194 0.0
H1349 H 0.47569 0.55256 0.73646 0.0
H1350 H 0.47365 0.44641 0.78335 0.0
H1351 H 0.54719 0.55285 0.75199 0.0
H1352 H 0.47506 0.51254 0.74767 0.0
H1353 H 0.54606 0.48017 0.75207 0.0
C1354 C 0.52908 0.4496 0.76445 0.0
C1355 C 0.5087 0.43963 0.77351 0.0
C1356 C 0.49089 0.52135 0.74879 0.0
C1357 C 0.51079 0.48573 0.76217 0.0
C1358 C 0.49128 0.5442 0.7423 0.0
C1359 C 0.51154 0.55606 0.74329 0.0
C1360 C 0.51094 0.51011 0.75588 0.0
C1361 C 0.5312 0.54434 0.75115 0.0
C1362 C 0.53024 0.47269 0.75902 0.0
C1363 C 0.48974 0.45335 0.77658 0.0
N1364 N 0.53046 0.52191 0.75691 0.0
N1365 N 0.49124 0.47563 0.77075 0.0
H1366 H 0.80435 0.2233 0.02223 0.0
H1367 H 0.69142 0.29061 0.99068 0.0
H1368 H 0.80484 0.29416 0.00146 0.0
H1369 H 0.69855 0.21954 0.97464 0.0
H1370 H 0.7319 0.29302 0.00097 0.0
H1371 H 0.76436 0.22239 0.01115 0.0
C1372 C 0.79604 0.23871 0.01532 0.0
C1373 C 0.80797 0.25886 0.01278 0.0
C1374 C 0.72451 0.27696 0.9951 0.0
C1375 C 0.76199 0.25791 0.00022 0.0
C1376 C 0.70144 0.27554 0.98943 0.0
C1377 C 0.69159 0.25484 0.98177 0.0
C1378 C 0.73763 0.25749 0.99362 0.0
C1379 C 0.70539 0.23586 0.98031 0.0
C1380 C 0.77319 0.23814 0.00889 0.0
C1381 C 0.79628 0.27826 0.00354 0.0
N1382 N 0.72764 0.23764 0.98634 0.0
N1383 N 0.77383 0.27735 0.9978 0.0
H1384 H 0.97496 0.439 0.74145 0.0
H1385 H 0.04055 0.55438 0.75597 0.0
H1386 H 0.04711 0.44072 0.74604 0.0
H1387 H 0.97178 0.54496 0.78569 0.0
H1388 H 0.04381 0.51371 0.7477 0.0
H1389 H 0.9739 0.47881 0.75347 0.0
C1390 C 0.99063 0.44779 0.74517 0.0
C1391 C 0.01116 0.43657 0.74269 0.0
C1392 C 0.0281 0.52066 0.75618 0.0
C1393 C 0.01009 0.4824 0.75614 0.0
C1394 C 0.02617 0.54383 0.76069 0.0
C1395 C 0.00584 0.55313 0.77147 0.0
C1396 C 0.00948 0.50686 0.76205 0.0
C1397 C 0.9878 0.53864 0.77741 0.0
C1398 C 0.99001 0.47054 0.75211 0.0
C1399 C 0.03093 0.44878 0.74794 0.0
N1400 N 0.99002 0.51633 0.77245 0.0
N1401 N 0.02994 0.47119 0.75409 0.0
H1402 H 0.30377 0.22383 0.46286 0.0
H1403 H 0.1929 0.292 0.50545 0.0
H1404 H 0.30647 0.29196 0.49794 0.0
H1405 H 0.19775 0.22006 0.51193 0.0
H1406 H 0.23334 0.29369 0.49423 0.0
H1407 H 0.26346 0.22358 0.47226 0.0
C1408 C 0.29588 0.23878 0.47247 0.0
C1409 C 0.30854 0.25794 0.47971 0.0
C1410 C 0.22545 0.27759 0.49811 0.0
C1411 C 0.26229 0.25778 0.49027 0.0
C1412 C 0.20242 0.27659 0.5043 0.0
C1413 C 0.19198 0.25586 0.50973 0.0
C1414 C 0.23792 0.25768 0.49672 0.0
C1415 C 0.20511 0.23641 0.50813 0.0
C1416 C 0.27287 0.23858 0.47792 0.0
C1417 C 0.29737 0.27679 0.49223 0.0
N1418 N 0.22733 0.2378 0.50162 0.0
N1419 N 0.2748 0.27629 0.49697 0.0
H1420 H 0.45264 0.56079 0.23741 0.0
H1421 H 0.52797 0.45151 0.25018 0.0
H1422 H 0.52116 0.55761 0.20386 0.0
H1423 H 0.4559 0.44726 0.24562 0.0
H1424 H 0.52564 0.4914 0.23838 0.0
H1425 H 0.45327 0.52005 0.24581 0.0
C1426 C 0.46778 0.55157 0.23183 0.0
C1427 C 0.48689 0.56266 0.21995 0.0
C1428 C 0.51032 0.48176 0.23976 0.0
C1429 C 0.48771 0.51628 0.22968 0.0
C1430 C 0.51162 0.45898 0.2466 0.0
C1431 C 0.49209 0.44605 0.24893 0.0
C1432 C 0.48931 0.49188 0.23572 0.0
C1433 C 0.47137 0.45663 0.24387 0.0
C1434 C 0.46807 0.52835 0.23645 0.0
C1435 C 0.50601 0.54984 0.21297 0.0
N1436 N 0.47048 0.47904 0.23781 0.0
N1437 N 0.50597 0.52742 0.21816 0.0
H1438 H 0.19622 0.77816 0.95733 0.0
H1439 H 0.30735 0.70924 0.99792 0.0
H1440 H 0.19408 0.70924 0.98917 0.0
H1441 H 0.30263 0.78119 0.00391 0.0
H1442 H 0.26711 0.70764 0.98525 0.0
H1443 H 0.23667 0.77815 0.96499 0.0
C1444 C 0.20425 0.76296 0.96582 0.0
C1445 C 0.19168 0.74368 0.97276 0.0
C1446 C 0.275 0.72374 0.98922 0.0
C1447 C 0.23814 0.74358 0.98139 0.0
C1448 C 0.29793 0.72468 0.9962 0.0
C1449 C 0.3083 0.74538 0.00212 0.0
C1450 C 0.26257 0.74366 0.98759 0.0
C1451 C 0.29529 0.76487 0.99979 0.0
C1452 C 0.22736 0.76301 0.97027 0.0
C1453 C 0.20309 0.72452 0.98375 0.0
N1454 N 0.27315 0.76353 0.99265 0.0
N1455 N 0.22573 0.72492 0.98766 0.0
H1456 H 0.52643 0.94418 0.70111 0.0
H1457 H 0.45366 0.05209 0.74459 0.0
H1458 H 0.4584 0.93832 0.73598 0.0
H1459 H 0.52584 0.04994 0.74844 0.0
H1460 H 0.45334 0.01166 0.7327 0.0
H1461 H 0.52466 0.9844 0.70965 0.0
C1462 C 0.51106 0.95134 0.71051 0.0
C1463 C 0.49255 0.93779 0.71794 0.0
C1464 C 0.46918 0.02016 0.73609 0.0
C1465 C 0.49041 0.98408 0.72761 0.0
C1466 C 0.46939 0.04318 0.74261 0.0
C1467 C 0.48981 0.05433 0.74763 0.0
C1468 C 0.48954 0.00846 0.73398 0.0
C1469 C 0.50971 0.042 0.74501 0.0
C1470 C 0.5101 0.97435 0.71546 0.0
C1471 C 0.47311 0.94813 0.73015 0.0
N1472 N 0.50907 0.0198 0.73828 0.0
N1473 N 0.4725 0.97073 0.73451 0.0
H1474 H 0.29894 0.27395 0.98539 0.0
H1475 H 0.18926 0.20038 0.01363 0.0
H1476 H 0.30278 0.20275 0.00251 0.0
H1477 H 0.19275 0.27165 0.03034 0.0
H1478 H 0.22986 0.20014 0.00329 0.0
H1479 H 0.25891 0.27266 0.99602 0.0
C1480 C 0.29136 0.25801 0.9915 0.0
C1481 C 0.30424 0.23842 0.99308 0.0
C1482 C 0.22163 0.21577 0.00927 0.0
C1483 C 0.25818 0.2368 0.00502 0.0
C1484 C 0.1985 0.21595 0.01493 0.0
C1485 C 0.1876 0.23606 0.02294 0.0
C1486 C 0.23376 0.23588 0.01115 0.0
C1487 C 0.2004 0.25573 0.02446 0.0
C1488 C 0.26847 0.2573 0.99763 0.0
C1489 C 0.29347 0.21827 0.00125 0.0
N1490 N 0.22272 0.25514 0.01852 0.0
N1491 N 0.27096 0.21793 0.0067 0.0
H1492 H 0.9714 0.05245 0.22197 0.0
H1493 H 0.04439 0.94301 0.25085 0.0
H1494 H 0.04246 0.05671 0.24032 0.0
H1495 H 0.97377 0.94729 0.27266 0.0
H1496 H 0.04476 0.98355 0.24036 0.0
H1497 H 0.97268 0.01258 0.23388 0.0
C1498 C 0.98732 0.04498 0.22852 0.0
C1499 C 0.00688 0.05793 0.23013 0.0
C1500 C 0.02926 0.97552 0.24756 0.0
C1501 C 0.00845 0.01211 0.2436 0.0
C1502 C 0.02899 0.95243 0.25334 0.0
C1503 C 0.00901 0.94175 0.26264 0.0
C1504 C 0.00934 0.98782 0.25055 0.0
C1505 C 0.98958 0.95478 0.26569 0.0
C1506 C 0.988 0.02222 0.23544 0.0
C1507 C 0.02699 0.04733 0.23896 0.0
N1508 N 0.99021 0.97705 0.25946 0.0
N1509 N 0.02731 0.02492 0.24513 0.0
H1510 H 0.30595 0.71808 0.54259 0.0
H1511 H 0.19613 0.79112 0.51134 0.0
H1512 H 0.3097 0.78843 0.5188 0.0
H1513 H 0.1993 0.71936 0.50013 0.0
H1514 H 0.23662 0.79152 0.52257 0.0
H1515 H 0.2656 0.71944 0.53544 0.0
C1516 C 0.2983 0.73388 0.53591 0.0
C1517 C 0.3113 0.75318 0.53119 0.0
C1518 C 0.22834 0.77574 0.51774 0.0
C1519 C 0.26485 0.75481 0.52308 0.0
C1520 C 0.20527 0.77547 0.51159 0.0
C1521 C 0.19438 0.75518 0.50468 0.0
C1522 C 0.24037 0.75554 0.5175 0.0
C1523 C 0.20702 0.7354 0.50509 0.0
C1524 C 0.27521 0.7346 0.53176 0.0
C1525 C 0.30033 0.77313 0.52247 0.0
N1526 N 0.22928 0.73609 0.51143 0.0
N1527 N 0.27767 0.77346 0.51877 0.0
H1528 H 0.47222 0.05881 0.29198 0.0
H1529 H 0.54023 0.94668 0.25669 0.0
H1530 H 0.54226 0.06015 0.26569 0.0
H1531 H 0.46872 0.95296 0.24431 0.0
H1532 H 0.5423 0.98706 0.26796 0.0
H1533 H 0.47172 0.0186 0.28268 0.0
C1534 C 0.48755 0.05065 0.28433 0.0
C1535 C 0.50732 0.06291 0.27954 0.0
C1536 C 0.52621 0.9795 0.26275 0.0
C1537 C 0.50682 0.0167 0.26899 0.0
C1538 C 0.52499 0.9565 0.25653 0.0
C1539 C 0.50427 0.94647 0.24946 0.0
C1540 C 0.50653 0.99235 0.26248 0.0
C1541 C 0.48506 0.95998 0.24942 0.0
C1542 C 0.48721 0.02767 0.27891 0.0
C1543 C 0.52663 0.05136 0.26949 0.0
N1544 N 0.48665 0.98216 0.25595 0.0
N1545 N 0.52594 0.02882 0.26466 0.0
H1546 H 0.80057 0.7968 0.99887 0.0
H1547 H 0.69015 0.72891 0.04647 0.0
H1548 H 0.79639 0.7247 0.99942 0.0
H1549 H 0.6872 0.79574 0.00621 0.0
H1550 H 0.73064 0.72918 0.0396 0.0
H1551 H 0.7604 0.79862 0.01196 0.0
C1552 C 0.79128 0.78139 0.0022 0.0
C1553 C 0.80175 0.76056 0.99792 0.0
C1554 C 0.72114 0.74381 0.03234 0.0
C1555 C 0.75613 0.76254 0.01291 0.0
C1556 C 0.698 0.74372 0.03632 0.0
C1557 C 0.68519 0.76231 0.02673 0.0
C1558 C 0.73171 0.7627 0.01901 0.0
C1559 C 0.6964 0.78098 0.01369 0.0
C1560 C 0.7684 0.78245 0.00939 0.0
C1561 C 0.78895 0.7411 0.00225 0.0
N1562 N 0.71908 0.78073 0.01024 0.0
N1563 N 0.76684 0.74257 0.00955 0.0
H1564 H 0.95844 0.05509 0.75713 0.0
H1565 H 0.02601 0.94237 0.78948 0.0
H1566 H 0.02923 0.04805 0.73834 0.0
H1567 H 0.95546 0.94185 0.76639 0.0
H1568 H 0.02687 0.98258 0.77941 0.0
H1569 H 0.95648 0.01484 0.76925 0.0
C1570 C 0.97357 0.04513 0.75579 0.0
C1571 C 0.99403 0.0549 0.74663 0.0
C1572 C 0.0112 0.97367 0.77653 0.0
C1573 C 0.99189 0.00915 0.7606 0.0
C1574 C 0.01066 0.95072 0.78238 0.0
C1575 C 0.99063 0.93871 0.7787 0.0
C1576 C 0.99152 0.98483 0.76739 0.0
C1577 C 0.97128 0.95046 0.7693 0.0
C1578 C 0.97239 0.02221 0.76248 0.0
C1579 C 0.01309 0.04121 0.74509 0.0
N1580 N 0.97217 0.97295 0.76412 0.0
N1581 N 0.01157 0.01907 0.75214 0.0
H1582 H 0.69881 0.28169 0.48446 0.0
H1583 H 0.80895 0.20709 0.49768 0.0
H1584 H 0.69489 0.2097 0.49132 0.0
H1585 H 0.80513 0.27636 0.52736 0.0
H1586 H 0.76815 0.20726 0.48883 0.0
H1587 H 0.73894 0.27962 0.49383 0.0
C1588 C 0.7064 0.2654 0.48799 0.0
C1589 C 0.69346 0.24583 0.48711 0.0
C1590 C 0.77636 0.22234 0.49735 0.0
C1591 C 0.73964 0.24334 0.49764 0.0
C1592 C 0.79959 0.2223 0.5022 0.0
C1593 C 0.81047 0.24173 0.51331 0.0
C1594 C 0.76412 0.24203 0.50314 0.0
C1595 C 0.79752 0.26095 0.51895 0.0
C1596 C 0.72935 0.26425 0.49343 0.0
C1597 C 0.70426 0.2252 0.49202 0.0
N1598 N 0.77513 0.26062 0.51366 0.0
N1599 N 0.72683 0.22446 0.49685 0.0
loop_
_geom_bond_atom_site_label_1
_geom_bond_atom_site_label_2
_geom_bond_distance
_geom_bond_site_symmetry_2
_ccdc_geom_bond_type
Mg0 O1 2.028 . S
Mg0 O7 1.986 . S
Mg0 O9 2.114 . S
Mg0 O10 2.251 . S
Mg0 O13 2.010 1_455 S
O1 Mg0 2.028 . S
O1 C4 1.250 . S
O2 Mg3 2.028 . S
O2 C4 1.248 . S
Mg3 O2 2.028 . S
Mg3 O8 2.032 . S
Mg3 O10 2.079 . S
C4 O1 1.250 . S
C4 O2 1.248 . S
C5 O6 1.264 . S
C5 O13 1.249 . S
O6 C5 1.264 . S
O7 Mg0 1.986 . S
O7 C11 1.246 . S
O8 Mg3 2.032 . S
O8 C11 1.259 . S
O9 Mg0 2.114 . S
O9 C12 1.252 . S
O10 Mg0 2.251 . S
O10 Mg3 2.079 . S
O10 C12 1.273 . S
C11 O7 1.246 . S
C11 O8 1.259 . S
C12 O9 1.252 . S
C12 O10 1.273 . S
O13 Mg0 2.010 1_655 S
O13 C5 1.249 . S
Mg14 O15 2.028 . S
Mg14 O21 1.986 . S
Mg14 O23 2.114 . S
Mg14 O24 2.251 . S
Mg14 O27 2.010 . S
O15 Mg14 2.028 . S
O15 C18 1.250 . S
O16 Mg17 2.028 . S
O16 C18 1.248 . S
Mg17 O16 2.028 . S
Mg17 O22 2.032 . S
Mg17 O24 2.079 . S
C18 O15 1.250 . S
C18 O16 1.248 . S
C19 O20 1.264 . S
C19 O27 1.249 . S
O20 C19 1.264 . S
O21 Mg14 1.986 . S
O21 C25 1.246 . S
O22 Mg17 2.032 . S
O22 C25 1.259 . S
O23 Mg14 2.114 . S
O23 C26 1.252 . S
O24 Mg14 2.251 . S
O24 Mg17 2.079 . S
O24 C26 1.273 . S
C25 O21 1.246 . S
C25 O22 1.259 . S
C26 O23 1.252 . S
C26 O24 1.273 . S
O27 Mg14 2.010 . S
O27 C19 1.249 . S
Mg28 O29 2.028 . S
Mg28 O35 1.986 . S
Mg28 O37 2.114 . S
Mg28 O38 2.251 . S
Mg28 O41 2.010 . S
O29 Mg28 2.028 . S
O29 C32 1.250 . S
O30 Mg31 2.028 . S
O30 C32 1.248 . S
Mg31 O30 2.028 . S
Mg31 O36 2.032 . S
Mg31 O38 2.079 . S
C32 O29 1.250 . S
C32 O30 1.248 . S
C33 O34 1.264 . S
C33 O41 1.249 . S
O34 C33 1.264 . S
O35 Mg28 1.986 . S
O35 C39 1.246 . S
O36 Mg31 2.032 . S
O36 C39 1.259 . S
O37 Mg28 2.114 . S
O37 C40 1.252 . S
O38 Mg28 2.251 . S
O38 Mg31 2.079 . S
O38 C40 1.273 . S
C39 O35 1.246 . S
C39 O36 1.259 . S
C40 O37 1.252 . S
C40 O38 1.273 . S
O41 Mg28 2.010 . S
O41 C33 1.249 . S
Mg42 O43 2.028 . S
Mg42 O49 1.986 . S
Mg42 O51 2.114 1_554 S
Mg42 O52 2.251 1_554 S
Mg42 O55 2.010 . S
O43 Mg42 2.028 . S
O43 C46 1.250 . S
O44 Mg45 2.028 1_554 S
O44 C46 1.248 . S
Mg45 O44 2.028 1_556 S
Mg45 O50 2.032 1_556 S
Mg45 O52 2.079 . S
C46 O43 1.250 . S
C46 O44 1.248 . S
C47 O48 1.264 . S
C47 O55 1.249 . S
O48 C47 1.264 . S
O49 Mg42 1.986 . S
O49 C53 1.246 . S
O50 Mg45 2.032 1_554 S
O50 C53 1.259 . S
O51 Mg42 2.114 1_556 S
O51 C54 1.252 . S
O52 Mg42 2.251 1_556 S
O52 Mg45 2.079 . S
O52 C54 1.273 . S
C53 O49 1.246 . S
C53 O50 1.259 . S
C54 O51 1.252 . S
C54 O52 1.273 . S
O55 Mg42 2.010 . S
O55 C47 1.249 . S
Mg56 O57 2.028 . S
Mg56 O63 1.986 . S
Mg56 O65 2.114 . S
Mg56 O66 2.251 . S
Mg56 O69 2.010 1_455 S
O57 Mg56 2.028 . S
O57 C60 1.250 . S
O58 Mg59 2.028 . S
O58 C60 1.248 . S
Mg59 O58 2.028 . S
Mg59 O64 2.032 . S
Mg59 O66 2.079 . S
C60 O57 1.250 . S
C60 O58 1.248 . S
C61 O62 1.264 . S
C61 O69 1.249 . S
O62 C61 1.264 . S
O63 Mg56 1.986 . S
O63 C67 1.246 . S
O64 Mg59 2.032 . S
O64 C67 1.259 . S
O65 Mg56 2.114 . S
O65 C68 1.252 . S
O66 Mg56 2.251 . S
O66 Mg59 2.079 . S
O66 C68 1.273 . S
C67 O63 1.246 . S
C67 O64 1.259 . S
C68 O65 1.252 . S
C68 O66 1.273 . S
O69 Mg56 2.010 1_655 S
O69 C61 1.249 . S
Mg70 O71 2.028 . S
Mg70 O77 1.986 . S
Mg70 O79 2.114 . S
Mg70 O80 2.251 . S
Mg70 O83 2.010 . S
O71 Mg70 2.028 . S
O71 C74 1.250 . S
O72 Mg73 2.028 . S
O72 C74 1.248 . S
Mg73 O72 2.028 . S
Mg73 O78 2.032 . S
Mg73 O80 2.079 . S
C74 O71 1.250 . S
C74 O72 1.248 . S
C75 O76 1.264 . S
C75 O83 1.249 . S
O76 C75 1.264 . S
O77 Mg70 1.986 . S
O77 C81 1.246 . S
O78 Mg73 2.032 . S
O78 C81 1.259 . S
O79 Mg70 2.114 . S
O79 C82 1.252 . S
O80 Mg70 2.251 . S
O80 Mg73 2.079 . S
O80 C82 1.273 . S
C81 O77 1.246 . S
C81 O78 1.259 . S
C82 O79 1.252 . S
C82 O80 1.273 . S
O83 Mg70 2.010 . S
O83 C75 1.249 . S
Mg84 O85 2.028 . S
Mg84 O91 1.986 . S
Mg84 O93 2.114 . S
Mg84 O94 2.251 . S
Mg84 O97 2.010 . S
O85 Mg84 2.028 . S
O85 C88 1.250 . S
O86 Mg87 2.028 . S
O86 C88 1.248 . S
Mg87 O86 2.028 . S
Mg87 O92 2.032 . S
Mg87 O94 2.079 . S
C88 O85 1.250 . S
C88 O86 1.248 . S
C89 O90 1.264 . S
C89 O97 1.249 . S
O90 C89 1.264 . S
O91 Mg84 1.986 . S
O91 C95 1.246 . S
O92 Mg87 2.032 . S
O92 C95 1.259 . S
O93 Mg84 2.114 . S
O93 C96 1.252 . S
O94 Mg84 2.251 . S
O94 Mg87 2.079 . S
O94 C96 1.273 . S
C95 O91 1.246 . S
C95 O92 1.259 . S
C96 O93 1.252 . S
C96 O94 1.273 . S
O97 Mg84 2.010 . S
O97 C89 1.249 . S
Mg98 O99 2.028 . S
Mg98 O105 1.986 . S
Mg98 O107 2.114 1_556 S
Mg98 O108 2.251 1_556 S
Mg98 O111 2.010 . S
O99 Mg98 2.028 . S
O99 C102 1.250 . S
O100 Mg101 2.028 1_556 S
O100 C102 1.248 . S
Mg101 O100 2.028 1_554 S
Mg101 O106 2.032 1_554 S
Mg101 O108 2.079 . S
C102 O99 1.250 . S
C102 O100 1.248 . S
C103 O104 1.264 . S
C103 O111 1.249 . S
O104 C103 1.264 . S
O105 Mg98 1.986 . S
O105 C109 1.246 . S
O106 Mg101 2.032 1_556 S
O106 C109 1.259 . S
O107 Mg98 2.114 1_554 S
O107 C110 1.252 . S
O108 Mg98 2.251 1_554 S
O108 Mg101 2.079 . S
O108 C110 1.273 . S
C109 O105 1.246 . S
C109 O106 1.259 . S
C110 O107 1.252 . S
C110 O108 1.273 . S
O111 Mg98 2.010 . S
O111 C103 1.249 . S
Mg112 O113 2.028 . S
Mg112 O119 1.986 . S
Mg112 O121 2.114 . S
Mg112 O122 2.251 . S
Mg112 O125 2.010 1_655 S
O113 Mg112 2.028 . S
O113 C116 1.250 . S
O114 Mg115 2.028 . S
O114 C116 1.248 . S
Mg115 O114 2.028 . S
Mg115 O120 2.032 . S
Mg115 O122 2.079 . S
C116 O113 1.250 . S
C116 O114 1.248 . S
C117 O118 1.264 . S
C117 O125 1.249 . S
O118 C117 1.264 . S
O119 Mg112 1.986 . S
O119 C123 1.246 . S
O120 Mg115 2.032 . S
O120 C123 1.259 . S
O121 Mg112 2.114 . S
O121 C124 1.252 . S
O122 Mg112 2.251 . S
O122 Mg115 2.079 . S
O122 C124 1.273 . S
C123 O119 1.246 . S
C123 O120 1.259 . S
C124 O121 1.252 . S
C124 O122 1.273 . S
O125 Mg112 2.010 1_455 S
O125 C117 1.249 . S
Mg126 O127 2.028 . S
Mg126 O133 1.986 . S
Mg126 O135 2.114 . S
Mg126 O136 2.251 . S
Mg126 O139 2.010 . S
O127 Mg126 2.028 . S
O127 C130 1.250 . S
O128 Mg129 2.028 . S
O128 C130 1.248 . S
Mg129 O128 2.028 . S
Mg129 O134 2.032 . S
Mg129 O136 2.079 . S
C130 O127 1.250 . S
C130 O128 1.248 . S
C131 O132 1.264 . S
C131 O139 1.249 . S
O132 C131 1.264 . S
O133 Mg126 1.986 . S
O133 C137 1.246 . S
O134 Mg129 2.032 . S
O134 C137 1.259 . S
O135 Mg126 2.114 . S
O135 C138 1.252 . S
O136 Mg126 2.251 . S
O136 Mg129 2.079 . S
O136 C138 1.273 . S
C137 O133 1.246 . S
C137 O134 1.259 . S
C138 O135 1.252 . S
C138 O136 1.273 . S
O139 Mg126 2.010 . S
O139 C131 1.249 . S
Mg140 O141 2.028 . S
Mg140 O147 1.986 . S
Mg140 O149 2.114 . S
Mg140 O150 2.251 . S
Mg140 O153 2.010 . S
O141 Mg140 2.028 . S
O141 C144 1.250 . S
O142 Mg143 2.028 . S
O142 C144 1.248 . S
Mg143 O142 2.028 . S
Mg143 O148 2.032 . S
Mg143 O150 2.079 . S
C144 O141 1.250 . S
C144 O142 1.248 . S
C145 O146 1.264 . S
C145 O153 1.249 . S
O146 C145 1.264 . S
O147 Mg140 1.986 . S
O147 C151 1.246 . S
O148 Mg143 2.032 . S
O148 C151 1.259 . S
O149 Mg140 2.114 . S
O149 C152 1.252 . S
O150 Mg140 2.251 . S
O150 Mg143 2.079 . S
O150 C152 1.273 . S
C151 O147 1.246 . S
C151 O148 1.259 . S
C152 O149 1.252 . S
C152 O150 1.273 . S
O153 Mg140 2.010 . S
O153 C145 1.249 . S
Mg154 O155 2.028 . S
Mg154 O161 1.986 . S
Mg154 O163 2.114 1_556 S
Mg154 O164 2.251 1_556 S
Mg154 O167 2.010 . S
O155 Mg154 2.028 . S
O155 C158 1.250 . S
O156 Mg157 2.028 1_556 S
O156 C158 1.248 . S
Mg157 O156 2.028 1_554 S
Mg157 O162 2.032 1_554 S
Mg157 O164 2.079 . S
C158 O155 1.250 . S
C158 O156 1.248 . S
C159 O160 1.264 . S
C159 O167 1.249 . S
O160 C159 1.264 . S
O161 Mg154 1.986 . S
O161 C165 1.246 . S
O162 Mg157 2.032 1_556 S
O162 C165 1.259 . S
O163 Mg154 2.114 1_554 S
O163 C166 1.252 . S
O164 Mg154 2.251 1_554 S
O164 Mg157 2.079 . S
O164 C166 1.273 . S
C165 O161 1.246 . S
C165 O162 1.259 . S
C166 O163 1.252 . S
C166 O164 1.273 . S
O167 Mg154 2.010 . S
O167 C159 1.249 . S
Mg168 O169 2.028 . S
Mg168 O175 1.986 . S
Mg168 O177 2.114 . S
Mg168 O178 2.251 . S
Mg168 O181 2.010 1_655 S
O169 Mg168 2.028 . S
O169 C172 1.250 . S
O170 Mg171 2.028 . S
O170 C172 1.248 . S
Mg171 O170 2.028 . S
Mg171 O176 2.032 . S
Mg171 O178 2.079 . S
C172 O169 1.250 . S
C172 O170 1.248 . S
C173 O174 1.264 . S
C173 O181 1.249 . S
O174 C173 1.264 . S
O175 Mg168 1.986 . S
O175 C179 1.246 . S
O176 Mg171 2.032 . S
O176 C179 1.259 . S
O177 Mg168 2.114 . S
O177 C180 1.252 . S
O178 Mg168 2.251 . S
O178 Mg171 2.079 . S
O178 C180 1.273 . S
C179 O175 1.246 . S
C179 O176 1.259 . S
C180 O177 1.252 . S
C180 O178 1.273 . S
O181 Mg168 2.010 1_455 S
O181 C173 1.249 . S
Mg182 O183 2.028 . S
Mg182 O189 1.986 . S
Mg182 O191 2.114 . S
Mg182 O192 2.251 . S
Mg182 O195 2.010 . S
O183 Mg182 2.028 . S
O183 C186 1.250 . S
O184 Mg185 2.028 . S
O184 C186 1.248 . S
Mg185 O184 2.028 . S
Mg185 O190 2.032 . S
Mg185 O192 2.079 . S
C186 O183 1.250 . S
C186 O184 1.248 . S
C187 O188 1.264 . S
C187 O195 1.249 . S
O188 C187 1.264 . S
O189 Mg182 1.986 . S
O189 C193 1.246 . S
O190 Mg185 2.032 . S
O190 C193 1.259 . S
O191 Mg182 2.114 . S
O191 C194 1.252 . S
O192 Mg182 2.251 . S
O192 Mg185 2.079 . S
O192 C194 1.273 . S
C193 O189 1.246 . S
C193 O190 1.259 . S
C194 O191 1.252 . S
C194 O192 1.273 . S
O195 Mg182 2.010 . S
O195 C187 1.249 . S
Mg196 O197 2.028 . S
Mg196 O203 1.986 . S
Mg196 O205 2.114 . S
Mg196 O206 2.251 . S
Mg196 O209 2.010 . S
O197 Mg196 2.028 . S
O197 C200 1.250 . S
O198 Mg199 2.028 . S
O198 C200 1.248 . S
Mg199 O198 2.028 . S
Mg199 O204 2.032 . S
Mg199 O206 2.079 . S
C200 O197 1.250 . S
C200 O198 1.248 . S
C201 O202 1.264 . S
C201 O209 1.249 . S
O202 C201 1.264 . S
O203 Mg196 1.986 . S
O203 C207 1.246 . S
O204 Mg199 2.032 . S
O204 C207 1.259 . S
O205 Mg196 2.114 . S
O205 C208 1.252 . S
O206 Mg196 2.251 . S
O206 Mg199 2.079 . S
O206 C208 1.273 . S
C207 O203 1.246 . S
C207 O204 1.259 . S
C208 O205 1.252 . S
C208 O206 1.273 . S
O209 Mg196 2.010 . S
O209 C201 1.249 . S
Mg210 O211 2.028 . S
Mg210 O217 1.986 . S
Mg210 O219 2.114 1_554 S
Mg210 O220 2.251 1_554 S
Mg210 O223 2.010 . S
O211 Mg210 2.028 . S
O211 C214 1.250 . S
O212 Mg213 2.028 1_554 S
O212 C214 1.248 . S
Mg213 O212 2.028 1_556 S
Mg213 O218 2.032 1_556 S
Mg213 O220 2.079 . S
C214 O211 1.250 . S
C214 O212 1.248 . S
C215 O216 1.264 . S
C215 O223 1.249 . S
O216 C215 1.264 . S
O217 Mg210 1.986 . S
O217 C221 1.246 . S
O218 Mg213 2.032 1_554 S
O218 C221 1.259 . S
O219 Mg210 2.114 1_556 S
O219 C222 1.252 . S
O220 Mg210 2.251 1_556 S
O220 Mg213 2.079 . S
O220 C222 1.273 . S
C221 O217 1.246 . S
C221 O218 1.259 . S
C222 O219 1.252 . S
C222 O220 1.273 . S
O223 Mg210 2.010 . S
O223 C215 1.249 . S
Mg224 O225 2.028 . S
Mg224 O231 1.986 . S
Mg224 O233 2.114 . S
Mg224 O234 2.251 . S
Mg224 O237 2.010 . S
O225 Mg224 2.028 . S
O225 C228 1.250 . S
O226 Mg227 2.028 . S
O226 C228 1.248 . S
Mg227 O226 2.028 . S
Mg227 O232 2.032 . S
Mg227 O234 2.079 . S
C228 O225 1.250 . S
C228 O226 1.248 . S
C229 O230 1.264 . S
C229 O237 1.249 . S
O230 C229 1.264 . S
O231 Mg224 1.986 . S
O231 C235 1.246 . S
O232 Mg227 2.032 . S
O232 C235 1.259 . S
O233 Mg224 2.114 . S
O233 C236 1.252 . S
O234 Mg224 2.251 . S
O234 Mg227 2.079 . S
O234 C236 1.273 . S
C235 O231 1.246 . S
C235 O232 1.259 . S
C236 O233 1.252 . S
C236 O234 1.273 . S
O237 Mg224 2.010 . S
O237 C229 1.249 . S
Mg238 O239 2.028 . S
Mg238 O245 1.986 . S
Mg238 O247 2.114 1_554 S
Mg238 O248 2.251 1_554 S
Mg238 O251 2.010 . S
O239 Mg238 2.028 . S
O239 C242 1.250 . S
O240 Mg241 2.028 1_554 S
O240 C242 1.248 . S
Mg241 O240 2.028 1_556 S
Mg241 O246 2.032 1_556 S
Mg241 O248 2.079 . S
C242 O239 1.250 . S
C242 O240 1.248 . S
C243 O244 1.264 . S
C243 O251 1.249 . S
O244 C243 1.264 . S
O245 Mg238 1.986 . S
O245 C249 1.246 . S
O246 Mg241 2.032 1_554 S
O246 C249 1.259 . S
O247 Mg238 2.114 1_556 S
O247 C250 1.252 . S
O248 Mg238 2.251 1_556 S
O248 Mg241 2.079 . S
O248 C250 1.273 . S
C249 O245 1.246 . S
C249 O246 1.259 . S
C250 O247 1.252 . S
C250 O248 1.273 . S
O251 Mg238 2.010 . S
O251 C243 1.249 . S
Mg252 O253 2.028 . S
Mg252 O259 1.986 . S
Mg252 O261 2.114 . S
Mg252 O262 2.251 . S
Mg252 O265 2.010 1_655 S
O253 Mg252 2.028 . S
O253 C256 1.250 . S
O254 Mg255 2.028 . S
O254 C256 1.248 . S
Mg255 O254 2.028 . S
Mg255 O260 2.032 . S
Mg255 O262 2.079 . S
C256 O253 1.250 . S
C256 O254 1.248 . S
C257 O258 1.264 . S
C257 O265 1.249 . S
O258 C257 1.264 . S
O259 Mg252 1.986 . S
O259 C263 1.246 . S
O260 Mg255 2.032 . S
O260 C263 1.259 . S
O261 Mg252 2.114 . S
O261 C264 1.252 . S
O262 Mg252 2.251 . S
O262 Mg255 2.079 . S
O262 C264 1.273 . S
C263 O259 1.246 . S
C263 O260 1.259 . S
C264 O261 1.252 . S
C264 O262 1.273 . S
O265 Mg252 2.010 1_455 S
O265 C257 1.249 . S
Mg266 O267 2.028 . S
Mg266 O273 1.986 . S
Mg266 O275 2.114 . S
Mg266 O276 2.251 . S
Mg266 O279 2.010 . S
O267 Mg266 2.028 . S
O267 C270 1.250 . S
O268 Mg269 2.028 . S
O268 C270 1.248 . S
Mg269 O268 2.028 . S
Mg269 O274 2.032 . S
Mg269 O276 2.079 . S
C270 O267 1.250 . S
C270 O268 1.248 . S
C271 O272 1.264 . S
C271 O279 1.249 . S
O272 C271 1.264 . S
O273 Mg266 1.986 . S
O273 C277 1.246 . S
O274 Mg269 2.032 . S
O274 C277 1.259 . S
O275 Mg266 2.114 . S
O275 C278 1.252 . S
O276 Mg266 2.251 . S
O276 Mg269 2.079 . S
O276 C278 1.273 . S
C277 O273 1.246 . S
C277 O274 1.259 . S
C278 O275 1.252 . S
C278 O276 1.273 . S
O279 Mg266 2.010 . S
O279 C271 1.249 . S
Mg280 O281 2.028 . S
Mg280 O287 1.986 . S
Mg280 O289 2.114 . S
Mg280 O290 2.251 . S
Mg280 O293 2.010 . S
O281 Mg280 2.028 . S
O281 C284 1.250 . S
O282 Mg283 2.028 . S
O282 C284 1.248 . S
Mg283 O282 2.028 . S
Mg283 O288 2.032 . S
Mg283 O290 2.079 . S
C284 O281 1.250 . S
C284 O282 1.248 . S
C285 O286 1.264 . S
C285 O293 1.249 . S
O286 C285 1.264 . S
O287 Mg280 1.986 . S
O287 C291 1.246 . S
O288 Mg283 2.032 . S
O288 C291 1.259 . S
O289 Mg280 2.114 . S
O289 C292 1.252 . S
O290 Mg280 2.251 . S
O290 Mg283 2.079 . S
O290 C292 1.273 . S
C291 O287 1.246 . S
C291 O288 1.259 . S
C292 O289 1.252 . S
C292 O290 1.273 . S
O293 Mg280 2.010 . S
O293 C285 1.249 . S
Mg294 O295 2.028 . S
Mg294 O301 1.986 . S
Mg294 O303 2.114 1_556 S
Mg294 O304 2.251 1_556 S
Mg294 O307 2.010 . S
O295 Mg294 2.028 . S
O295 C298 1.250 . S
O296 Mg297 2.028 1_556 S
O296 C298 1.248 . S
Mg297 O296 2.028 1_554 S
Mg297 O302 2.032 1_554 S
Mg297 O304 2.079 . S
C298 O295 1.250 . S
C298 O296 1.248 . S
C299 O300 1.264 . S
C299 O307 1.249 . S
O300 C299 1.264 . S
O301 Mg294 1.986 . S
O301 C305 1.246 . S
O302 Mg297 2.032 1_556 S
O302 C305 1.259 . S
O303 Mg294 2.114 1_554 S
O303 C306 1.252 . S
O304 Mg294 2.251 1_554 S
O304 Mg297 2.079 . S
O304 C306 1.273 . S
C305 O301 1.246 . S
C305 O302 1.259 . S
C306 O303 1.252 . S
C306 O304 1.273 . S
O307 Mg294 2.010 . S
O307 C299 1.249 . S
Mg308 O309 2.028 . S
Mg308 O315 1.986 . S
Mg308 O317 2.114 . S
Mg308 O318 2.251 . S
Mg308 O321 2.010 1_655 S
O309 Mg308 2.028 . S
O309 C312 1.250 . S
O310 Mg311 2.028 . S
O310 C312 1.248 . S
Mg311 O310 2.028 . S
Mg311 O316 2.032 . S
Mg311 O318 2.079 . S
C312 O309 1.250 . S
C312 O310 1.248 . S
C313 O314 1.264 . S
C313 O321 1.249 . S
O314 C313 1.264 . S
O315 Mg308 1.986 . S
O315 C319 1.246 . S
O316 Mg311 2.032 . S
O316 C319 1.259 . S
O317 Mg308 2.114 . S
O317 C320 1.252 . S
O318 Mg308 2.251 . S
O318 Mg311 2.079 . S
O318 C320 1.273 . S
C319 O315 1.246 . S
C319 O316 1.259 . S
C320 O317 1.252 . S
C320 O318 1.273 . S
O321 Mg308 2.010 1_455 S
O321 C313 1.249 . S
Mg322 O323 2.028 . S
Mg322 O329 1.986 . S
Mg322 O331 2.114 . S
Mg322 O332 2.251 . S
Mg322 O335 2.010 . S
O323 Mg322 2.028 . S
O323 C326 1.250 . S
O324 Mg325 2.028 . S
O324 C326 1.248 . S
Mg325 O324 2.028 . S
Mg325 O330 2.032 . S
Mg325 O332 2.079 . S
C326 O323 1.250 . S
C326 O324 1.248 . S
C327 O328 1.264 . S
C327 O335 1.249 . S
O328 C327 1.264 . S
O329 Mg322 1.986 . S
O329 C333 1.246 . S
O330 Mg325 2.032 . S
O330 C333 1.259 . S
O331 Mg322 2.114 . S
O331 C334 1.252 . S
O332 Mg322 2.251 . S
O332 Mg325 2.079 . S
O332 C334 1.273 . S
C333 O329 1.246 . S
C333 O330 1.259 . S
C334 O331 1.252 . S
C334 O332 1.273 . S
O335 Mg322 2.010 . S
O335 C327 1.249 . S
Mg336 O337 2.028 . S
Mg336 O343 1.986 . S
Mg336 O345 2.114 . S
Mg336 O346 2.251 . S
Mg336 O349 2.010 . S
O337 Mg336 2.028 . S
O337 C340 1.250 . S
O338 Mg339 2.028 . S
O338 C340 1.248 . S
Mg339 O338 2.028 . S
Mg339 O344 2.032 . S
Mg339 O346 2.079 . S
C340 O337 1.250 . S
C340 O338 1.248 . S
C341 O342 1.264 . S
C341 O349 1.249 . S
O342 C341 1.264 . S
O343 Mg336 1.986 . S
O343 C347 1.246 . S
O344 Mg339 2.032 . S
O344 C347 1.259 . S
O345 Mg336 2.114 . S
O345 C348 1.252 . S
O346 Mg336 2.251 . S
O346 Mg339 2.079 . S
O346 C348 1.273 . S
C347 O343 1.246 . S
C347 O344 1.259 . S
C348 O345 1.252 . S
C348 O346 1.273 . S
O349 Mg336 2.010 . S
O349 C341 1.249 . S
Mg350 O351 2.028 . S
Mg350 O357 1.986 . S
Mg350 O359 2.114 1_556 S
Mg350 O360 2.251 1_556 S
Mg350 O363 2.010 . S
O351 Mg350 2.028 . S
O351 C354 1.250 . S
O352 Mg353 2.028 1_556 S
O352 C354 1.248 . S
Mg353 O352 2.028 1_554 S
Mg353 O358 2.032 1_554 S
Mg353 O360 2.079 . S
C354 O351 1.250 . S
C354 O352 1.248 . S
C355 O356 1.264 . S
C355 O363 1.249 . S
O356 C355 1.264 . S
O357 Mg350 1.986 . S
O357 C361 1.246 . S
O358 Mg353 2.032 1_556 S
O358 C361 1.259 . S
O359 Mg350 2.114 1_554 S
O359 C362 1.252 . S
O360 Mg350 2.251 1_554 S
O360 Mg353 2.079 . S
O360 C362 1.273 . S
C361 O357 1.246 . S
C361 O358 1.259 . S
C362 O359 1.252 . S
C362 O360 1.273 . S
O363 Mg350 2.010 . S
O363 C355 1.249 . S
Mg364 O365 2.028 . S
Mg364 O371 1.986 . S
Mg364 O373 2.114 . S
Mg364 O374 2.251 . S
Mg364 O377 2.010 1_455 S
O365 Mg364 2.028 . S
O365 C368 1.250 . S
O366 Mg367 2.028 . S
O366 C368 1.248 . S
Mg367 O366 2.028 . S
Mg367 O372 2.032 . S
Mg367 O374 2.079 . S
C368 O365 1.250 . S
C368 O366 1.248 . S
C369 O370 1.264 . S
C369 O377 1.249 . S
O370 C369 1.264 . S
O371 Mg364 1.986 . S
O371 C375 1.246 . S
O372 Mg367 2.032 . S
O372 C375 1.259 . S
O373 Mg364 2.114 . S
O373 C376 1.252 . S
O374 Mg364 2.251 . S
O374 Mg367 2.079 . S
O374 C376 1.273 . S
C375 O371 1.246 . S
C375 O372 1.259 . S
C376 O373 1.252 . S
C376 O374 1.273 . S
O377 Mg364 2.010 1_655 S
O377 C369 1.249 . S
Mg378 O379 2.028 . S
Mg378 O385 1.986 . S
Mg378 O387 2.114 . S
Mg378 O388 2.251 . S
Mg378 O391 2.010 . S
O379 Mg378 2.028 . S
O379 C382 1.250 . S
O380 Mg381 2.028 . S
O380 C382 1.248 . S
Mg381 O380 2.028 . S
Mg381 O386 2.032 . S
Mg381 O388 2.079 . S
C382 O379 1.250 . S
C382 O380 1.248 . S
C383 O384 1.264 . S
C383 O391 1.249 . S
O384 C383 1.264 . S
O385 Mg378 1.986 . S
O385 C389 1.246 . S
O386 Mg381 2.032 . S
O386 C389 1.259 . S
O387 Mg378 2.114 . S
O387 C390 1.252 . S
O388 Mg378 2.251 . S
O388 Mg381 2.079 . S
O388 C390 1.273 . S
C389 O385 1.246 . S
C389 O386 1.259 . S
C390 O387 1.252 . S
C390 O388 1.273 . S
O391 Mg378 2.010 . S
O391 C383 1.249 . S
Mg392 O393 2.028 . S
Mg392 O399 1.986 . S
Mg392 O401 2.114 . S
Mg392 O402 2.251 . S
Mg392 O405 2.010 . S
O393 Mg392 2.028 . S
O393 C396 1.250 . S
O394 Mg395 2.028 . S
O394 C396 1.248 . S
Mg395 O394 2.028 . S
Mg395 O400 2.032 . S
Mg395 O402 2.079 . S
C396 O393 1.250 . S
C396 O394 1.248 . S
C397 O398 1.264 . S
C397 O405 1.249 . S
O398 C397 1.264 . S
O399 Mg392 1.986 . S
O399 C403 1.246 . S
O400 Mg395 2.032 . S
O400 C403 1.259 . S
O401 Mg392 2.114 . S
O401 C404 1.252 . S
O402 Mg392 2.251 . S
O402 Mg395 2.079 . S
O402 C404 1.273 . S
C403 O399 1.246 . S
C403 O400 1.259 . S
C404 O401 1.252 . S
C404 O402 1.273 . S
O405 Mg392 2.010 . S
O405 C397 1.249 . S
Mg406 O407 2.028 . S
Mg406 O413 1.986 . S
Mg406 O415 2.114 1_554 S
Mg406 O416 2.251 1_554 S
Mg406 O419 2.010 . S
O407 Mg406 2.028 . S
O407 C410 1.250 . S
O408 Mg409 2.028 1_554 S
O408 C410 1.248 . S
Mg409 O408 2.028 1_556 S
Mg409 O414 2.032 1_556 S
Mg409 O416 2.079 . S
C410 O407 1.250 . S
C410 O408 1.248 . S
C411 O412 1.264 . S
C411 O419 1.249 . S
O412 C411 1.264 . S
O413 Mg406 1.986 . S
O413 C417 1.246 . S
O414 Mg409 2.032 1_554 S
O414 C417 1.259 . S
O415 Mg406 2.114 1_556 S
O415 C418 1.252 . S
O416 Mg406 2.251 1_556 S
O416 Mg409 2.079 . S
O416 C418 1.273 . S
C417 O413 1.246 . S
C417 O414 1.259 . S
C418 O415 1.252 . S
C418 O416 1.273 . S
O419 Mg406 2.010 . S
O419 C411 1.249 . S
Mg420 O421 2.028 . S
Mg420 O427 1.986 . S
Mg420 O429 2.114 . S
Mg420 O430 2.251 . S
Mg420 O433 2.010 1_455 S
O421 Mg420 2.028 . S
O421 C424 1.250 . S
O422 Mg423 2.028 . S
O422 C424 1.248 . S
Mg423 O422 2.028 . S
Mg423 O428 2.032 . S
Mg423 O430 2.079 . S
C424 O421 1.250 . S
C424 O422 1.248 . S
C425 O426 1.264 . S
C425 O433 1.249 . S
O426 C425 1.264 . S
O427 Mg420 1.986 . S
O427 C431 1.246 . S
O428 Mg423 2.032 . S
O428 C431 1.259 . S
O429 Mg420 2.114 . S
O429 C432 1.252 . S
O430 Mg420 2.251 . S
O430 Mg423 2.079 . S
O430 C432 1.273 . S
C431 O427 1.246 . S
C431 O428 1.259 . S
C432 O429 1.252 . S
C432 O430 1.273 . S
O433 Mg420 2.010 1_655 S
O433 C425 1.249 . S
Mg434 O435 2.028 . S
Mg434 O441 1.986 . S
Mg434 O443 2.114 . S
Mg434 O444 2.251 . S
Mg434 O447 2.010 . S
O435 Mg434 2.028 . S
O435 C438 1.250 . S
O436 Mg437 2.028 . S
O436 C438 1.248 . S
Mg437 O436 2.028 . S
Mg437 O442 2.032 . S
Mg437 O444 2.079 . S
C438 O435 1.250 . S
C438 O436 1.248 . S
C439 O440 1.264 . S
C439 O447 1.249 . S
O440 C439 1.264 . S
O441 Mg434 1.986 . S
O441 C445 1.246 . S
O442 Mg437 2.032 . S
O442 C445 1.259 . S
O443 Mg434 2.114 . S
O443 C446 1.252 . S
O444 Mg434 2.251 . S
O444 Mg437 2.079 . S
O444 C446 1.273 . S
C445 O441 1.246 . S
C445 O442 1.259 . S
C446 O443 1.252 . S
C446 O444 1.273 . S
O447 Mg434 2.010 . S
O447 C439 1.249 . S
H448 C454 0.930 . S
H449 C458 0.930 . S
H450 C463 0.929 . S
H451 C461 0.929 . S
H452 C456 0.929 . S
H453 C462 0.929 . S
C454 H448 0.930 . S
C454 C455 1.367 . S
C454 C462 1.378 . S
C455 C454 1.367 . S
C455 C463 1.433 . S
C456 H452 0.929 . S
C456 C458 1.378 . S
C456 C460 1.350 . S
C457 C460 1.463 . S
C457 C462 1.350 . S
C457 N465 1.427 . S
C458 H449 0.930 . S
C458 C456 1.378 . S
C458 C459 1.367 . S
C459 C458 1.367 . S
C459 C461 1.433 . S
C460 C456 1.350 . S
C460 C457 1.463 . S
C460 N464 1.427 . S
C461 H451 0.929 . S
C461 C459 1.433 . S
C461 N464 1.384 . S
C462 H453 0.929 . S
C462 C454 1.378 . S
C462 C457 1.350 . S
C463 H450 0.929 . S
C463 C455 1.433 . S
C463 N465 1.384 . S
N464 C460 1.427 . S
N464 C461 1.384 . S
N465 C457 1.427 . S
N465 C463 1.384 . S
H466 C472 0.930 . S
H467 C476 0.930 . S
H468 C481 0.929 . S
H469 C479 0.929 . S
H470 C474 0.929 . S
H471 C480 0.929 . S
C472 H466 0.930 . S
C472 C473 1.367 . S
C472 C480 1.378 . S
C473 C472 1.367 . S
C473 C481 1.433 . S
C474 H470 0.929 . S
C474 C476 1.378 . S
C474 C478 1.350 . S
C475 C478 1.463 . S
C475 C480 1.350 . S
C475 N483 1.427 . S
C476 H467 0.930 . S
C476 C474 1.378 . S
C476 C477 1.367 . S
C477 C476 1.367 . S
C477 C479 1.433 . S
C478 C474 1.350 . S
C478 C475 1.463 . S
C478 N482 1.427 . S
C479 H469 0.929 . S
C479 C477 1.433 . S
C479 N482 1.384 . S
C480 H471 0.929 . S
C480 C472 1.378 . S
C480 C475 1.350 . S
C481 H468 0.929 . S
C481 C473 1.433 . S
C481 N483 1.384 . S
N482 C478 1.427 . S
N482 C479 1.384 . S
N483 C475 1.427 . S
N483 C481 1.384 . S
H484 C490 0.930 . S
H485 C494 0.930 . S
H486 C499 0.929 . S
H487 C497 0.929 . S
H488 C492 0.929 . S
H489 C498 0.929 . S
C490 H484 0.930 . S
C490 C491 1.367 . S
C490 C498 1.378 . S
C491 C490 1.367 . S
C491 C499 1.433 . S
C492 H488 0.929 . S
C492 C494 1.378 . S
C492 C496 1.350 . S
C493 C496 1.463 . S
C493 C498 1.350 . S
C493 N501 1.427 . S
C494 H485 0.930 . S
C494 C492 1.378 . S
C494 C495 1.367 . S
C495 C494 1.367 . S
C495 C497 1.433 . S
C496 C492 1.350 . S
C496 C493 1.463 . S
C496 N500 1.427 . S
C497 H487 0.929 . S
C497 C495 1.433 . S
C497 N500 1.384 . S
C498 H489 0.929 . S
C498 C490 1.378 . S
C498 C493 1.350 . S
C499 H486 0.929 . S
C499 C491 1.433 . S
C499 N501 1.384 . S
N500 C496 1.427 . S
N500 C497 1.384 . S
N501 C493 1.427 . S
N501 C499 1.384 . S
H502 C508 0.930 . S
H503 C512 0.930 . S
H504 C517 0.929 . S
H505 C515 0.929 . S
H506 C510 0.929 . S
H507 C516 0.929 . S
C508 H502 0.930 . S
C508 C509 1.367 . S
C508 C516 1.378 . S
C509 C508 1.367 . S
C509 C517 1.433 . S
C510 H506 0.929 . S
C510 C512 1.378 . S
C510 C514 1.350 . S
C511 C514 1.463 . S
C511 C516 1.350 . S
C511 N519 1.427 . S
C512 H503 0.930 . S
C512 C510 1.378 . S
C512 C513 1.367 . S
C513 C512 1.367 . S
C513 C515 1.433 . S
C514 C510 1.350 . S
C514 C511 1.463 . S
C514 N518 1.427 . S
C515 H505 0.929 . S
C515 C513 1.433 . S
C515 N518 1.384 . S
C516 H507 0.929 . S
C516 C508 1.378 . S
C516 C511 1.350 . S
C517 H504 0.929 . S
C517 C509 1.433 . S
C517 N519 1.384 . S
N518 C514 1.427 . S
N518 C515 1.384 . S
N519 C511 1.427 . S
N519 C517 1.384 . S
H520 C526 0.930 . S
H521 C530 0.930 . S
H522 C535 0.929 . S
H523 C533 0.929 . S
H524 C528 0.929 . S
H525 C534 0.929 . S
C526 H520 0.930 . S
C526 C527 1.367 . S
C526 C534 1.378 . S
C527 C526 1.367 . S
C527 C535 1.433 . S
C528 H524 0.929 . S
C528 C530 1.378 . S
C528 C532 1.350 . S
C529 C532 1.463 . S
C529 C534 1.350 . S
C529 N537 1.427 . S
C530 H521 0.930 . S
C530 C528 1.378 . S
C530 C531 1.367 . S
C531 C530 1.367 . S
C531 C533 1.433 . S
C532 C528 1.350 . S
C532 C529 1.463 . S
C532 N536 1.427 . S
C533 H523 0.929 . S
C533 C531 1.433 . S
C533 N536 1.384 . S
C534 H525 0.929 . S
C534 C526 1.378 . S
C534 C529 1.350 . S
C535 H522 0.929 . S
C535 C527 1.433 . S
C535 N537 1.384 . S
N536 C532 1.427 . S
N536 C533 1.384 . S
N537 C529 1.427 . S
N537 C535 1.384 . S
H538 C544 0.930 . S
H539 C548 0.930 . S
H540 C553 0.929 . S
H541 C551 0.929 . S
H542 C546 0.929 . S
H543 C552 0.929 . S
C544 H538 0.930 . S
C544 C545 1.367 . S
C544 C552 1.378 . S
C545 C544 1.367 . S
C545 C553 1.433 . S
C546 H542 0.929 . S
C546 C548 1.378 . S
C546 C550 1.350 . S
C547 C550 1.463 . S
C547 C552 1.350 . S
C547 N555 1.427 . S
C548 H539 0.930 . S
C548 C546 1.378 . S
C548 C549 1.367 . S
C549 C548 1.367 . S
C549 C551 1.433 . S
C550 C546 1.350 . S
C550 C547 1.463 . S
C550 N554 1.427 . S
C551 H541 0.929 . S
C551 C549 1.433 . S
C551 N554 1.384 . S
C552 H543 0.929 . S
C552 C544 1.378 . S
C552 C547 1.350 . S
C553 H540 0.929 . S
C553 C545 1.433 . S
C553 N555 1.384 . S
N554 C550 1.427 . S
N554 C551 1.384 . S
N555 C547 1.427 . S
N555 C553 1.384 . S
H556 C562 0.930 . S
H557 C566 0.930 . S
H558 C571 0.929 . S
H559 C569 0.929 . S
H560 C564 0.929 . S
H561 C570 0.929 . S
C562 H556 0.930 . S
C562 C563 1.367 . S
C562 C570 1.378 . S
C563 C562 1.367 . S
C563 C571 1.433 . S
C564 H560 0.929 . S
C564 C566 1.378 . S
C564 C568 1.350 . S
C565 C568 1.463 . S
C565 C570 1.350 . S
C565 N573 1.427 . S
C566 H557 0.930 . S
C566 C564 1.378 . S
C566 C567 1.367 . S
C567 C566 1.367 . S
C567 C569 1.433 . S
C568 C564 1.350 . S
C568 C565 1.463 . S
C568 N572 1.427 . S
C569 H559 0.929 . S
C569 C567 1.433 . S
C569 N572 1.384 . S
C570 H561 0.929 . S
C570 C562 1.378 . S
C570 C565 1.350 . S
C571 H558 0.929 . S
C571 C563 1.433 . S
C571 N573 1.384 . S
N572 C568 1.427 . S
N572 C569 1.384 . S
N573 C565 1.427 . S
N573 C571 1.384 . S
H574 C580 0.930 . S
H575 C584 0.930 . S
H576 C589 0.929 . S
H577 C587 0.929 . S
H578 C582 0.929 . S
H579 C588 0.929 . S
C580 H574 0.930 . S
C580 C581 1.367 . S
C580 C588 1.378 . S
C581 C580 1.367 . S
C581 C589 1.433 . S
C582 H578 0.929 . S
C582 C584 1.378 . S
C582 C586 1.350 . S
C583 C586 1.463 . S
C583 C588 1.350 . S
C583 N591 1.427 . S
C584 H575 0.930 . S
C584 C582 1.378 . S
C584 C585 1.367 . S
C585 C584 1.367 . S
C585 C587 1.433 . S
C586 C582 1.350 . S
C586 C583 1.463 . S
C586 N590 1.427 . S
C587 H577 0.929 . S
C587 C585 1.433 . S
C587 N590 1.384 . S
C588 H579 0.929 . S
C588 C580 1.378 . S
C588 C583 1.350 . S
C589 H576 0.929 . S
C589 C581 1.433 . S
C589 N591 1.384 . S
N590 C586 1.427 . S
N590 C587 1.384 . S
N591 C583 1.427 . S
N591 C589 1.384 . S
H592 C598 0.930 . S
H593 C602 0.930 . S
H594 C607 0.929 . S
H595 C605 0.929 . S
H596 C600 0.929 . S
H597 C606 0.929 . S
C598 H592 0.930 . S
C598 C599 1.367 . S
C598 C606 1.378 . S
C599 C598 1.367 . S
C599 C607 1.433 . S
C600 H596 0.929 . S
C600 C602 1.378 . S
C600 C604 1.350 . S
C601 C604 1.463 . S
C601 C606 1.350 . S
C601 N609 1.427 . S
C602 H593 0.930 . S
C602 C600 1.378 . S
C602 C603 1.367 . S
C603 C602 1.367 . S
C603 C605 1.433 . S
C604 C600 1.350 . S
C604 C601 1.463 . S
C604 N608 1.427 . S
C605 H595 0.929 . S
C605 C603 1.433 . S
C605 N608 1.384 . S
C606 H597 0.929 . S
C606 C598 1.378 . S
C606 C601 1.350 . S
C607 H594 0.929 . S
C607 C599 1.433 . S
C607 N609 1.384 . S
N608 C604 1.427 . S
N608 C605 1.384 . S
N609 C601 1.427 . S
N609 C607 1.384 . S
H610 C616 0.930 . S
H611 C620 0.930 . S
H612 C625 0.929 . S
H613 C623 0.929 . S
H614 C618 0.929 . S
H615 C624 0.929 . S
C616 H610 0.930 . S
C616 C617 1.367 . S
C616 C624 1.378 . S
C617 C616 1.367 . S
C617 C625 1.433 . S
C618 H614 0.929 . S
C618 C620 1.378 . S
C618 C622 1.350 . S
C619 C622 1.463 . S
C619 C624 1.350 . S
C619 N627 1.427 . S
C620 H611 0.930 . S
C620 C618 1.378 . S
C620 C621 1.367 . S
C621 C620 1.367 . S
C621 C623 1.433 . S
C622 C618 1.350 . S
C622 C619 1.463 . S
C622 N626 1.427 . S
C623 H613 0.929 . S
C623 C621 1.433 . S
C623 N626 1.384 . S
C624 H615 0.929 . S
C624 C616 1.378 . S
C624 C619 1.350 . S
C625 H612 0.929 . S
C625 C617 1.433 . S
C625 N627 1.384 . S
N626 C622 1.427 . S
N626 C623 1.384 . S
N627 C619 1.427 . S
N627 C625 1.384 . S
H628 C634 0.930 . S
H629 C638 0.930 . S
H630 C643 0.929 . S
H631 C641 0.929 . S
H632 C636 0.929 . S
H633 C642 0.929 . S
C634 H628 0.930 . S
C634 C635 1.367 . S
C634 C642 1.378 . S
C635 C634 1.367 . S
C635 C643 1.433 . S
C636 H632 0.929 . S
C636 C638 1.378 . S
C636 C640 1.350 . S
C637 C640 1.463 . S
C637 C642 1.350 . S
C637 N645 1.427 . S
C638 H629 0.930 . S
C638 C636 1.378 . S
C638 C639 1.367 . S
C639 C638 1.367 . S
C639 C641 1.433 . S
C640 C636 1.350 . S
C640 C637 1.463 . S
C640 N644 1.427 . S
C641 H631 0.929 . S
C641 C639 1.433 . S
C641 N644 1.384 . S
C642 H633 0.929 . S
C642 C634 1.378 . S
C642 C637 1.350 . S
C643 H630 0.929 . S
C643 C635 1.433 . S
C643 N645 1.384 . S
N644 C640 1.427 . S
N644 C641 1.384 . S
N645 C637 1.427 . S
N645 C643 1.384 . S
H646 C652 0.930 . S
H647 C656 0.930 . S
H648 C661 0.929 . S
H649 C659 0.929 . S
H650 C654 0.929 . S
H651 C660 0.929 . S
C652 H646 0.930 . S
C652 C653 1.367 . S
C652 C660 1.378 . S
C653 C652 1.367 . S
C653 C661 1.433 . S
C654 H650 0.929 . S
C654 C656 1.378 . S
C654 C658 1.350 . S
C655 C658 1.463 . S
C655 C660 1.350 . S
C655 N663 1.427 . S
C656 H647 0.930 . S
C656 C654 1.378 . S
C656 C657 1.367 . S
C657 C656 1.367 . S
C657 C659 1.433 . S
C658 C654 1.350 . S
C658 C655 1.463 . S
C658 N662 1.427 . S
C659 H649 0.929 . S
C659 C657 1.433 . S
C659 N662 1.384 . S
C660 H651 0.929 . S
C660 C652 1.378 . S
C660 C655 1.350 . S
C661 H648 0.929 . S
C661 C653 1.433 . S
C661 N663 1.384 . S
N662 C658 1.427 . S
N662 C659 1.384 . S
N663 C655 1.427 . S
N663 C661 1.384 . S
H664 C670 0.930 . S
H665 C674 0.930 . S
H666 C679 0.929 . S
H667 C677 0.929 . S
H668 C672 0.929 . S
H669 C678 0.929 . S
C670 H664 0.930 . S
C670 C671 1.367 . S
C670 C678 1.378 . S
C671 C670 1.367 . S
C671 C679 1.433 . S
C672 H668 0.929 . S
C672 C674 1.378 . S
C672 C676 1.350 . S
C673 C676 1.463 . S
C673 C678 1.350 . S
C673 N681 1.427 . S
C674 H665 0.930 . S
C674 C672 1.378 . S
C674 C675 1.367 . S
C675 C674 1.367 . S
C675 C677 1.433 . S
C676 C672 1.350 . S
C676 C673 1.463 . S
C676 N680 1.427 . S
C677 H667 0.929 . S
C677 C675 1.433 . S
C677 N680 1.384 . S
C678 H669 0.929 . S
C678 C670 1.378 . S
C678 C673 1.350 . S
C679 H666 0.929 . S
C679 C671 1.433 . S
C679 N681 1.384 . S
N680 C676 1.427 . S
N680 C677 1.384 . S
N681 C673 1.427 . S
N681 C679 1.384 . S
H682 C688 0.930 . S
H683 C692 0.930 . S
H684 C697 0.929 . S
H685 C695 0.929 . S
H686 C690 0.929 . S
H687 C696 0.929 . S
C688 H682 0.930 . S
C688 C689 1.367 . S
C688 C696 1.378 . S
C689 C688 1.367 . S
C689 C697 1.433 . S
C690 H686 0.929 . S
C690 C692 1.378 . S
C690 C694 1.350 . S
C691 C694 1.463 . S
C691 C696 1.350 . S
C691 N699 1.427 . S
C692 H683 0.930 . S
C692 C690 1.378 . S
C692 C693 1.367 . S
C693 C692 1.367 . S
C693 C695 1.433 . S
C694 C690 1.350 . S
C694 C691 1.463 . S
C694 N698 1.427 . S
C695 H685 0.929 . S
C695 C693 1.433 . S
C695 N698 1.384 . S
C696 H687 0.929 . S
C696 C688 1.378 . S
C696 C691 1.350 . S
C697 H684 0.929 . S
C697 C689 1.433 . S
C697 N699 1.384 . S
N698 C694 1.427 . S
N698 C695 1.384 . S
N699 C691 1.427 . S
N699 C697 1.384 . S
H700 C706 0.930 . S
H701 C710 0.930 . S
H702 C715 0.929 . S
H703 C713 0.929 . S
H704 C708 0.929 . S
H705 C714 0.929 . S
C706 H700 0.930 . S
C706 C707 1.367 . S
C706 C714 1.378 . S
C707 C706 1.367 . S
C707 C715 1.433 . S
C708 H704 0.929 . S
C708 C710 1.378 . S
C708 C712 1.350 . S
C709 C712 1.463 . S
C709 C714 1.350 . S
C709 N717 1.427 . S
C710 H701 0.930 . S
C710 C708 1.378 . S
C710 C711 1.367 . S
C711 C710 1.367 . S
C711 C713 1.433 . S
C712 C708 1.350 . S
C712 C709 1.463 . S
C712 N716 1.427 . S
C713 H703 0.929 . S
C713 C711 1.433 . S
C713 N716 1.384 . S
C714 H705 0.929 . S
C714 C706 1.378 . S
C714 C709 1.350 . S
C715 H702 0.929 . S
C715 C707 1.433 . S
C715 N717 1.384 . S
N716 C712 1.427 . S
N716 C713 1.384 . S
N717 C709 1.427 . S
N717 C715 1.384 . S
H718 C724 0.930 . S
H719 C728 0.930 . S
H720 C733 0.929 . S
H721 C731 0.929 . S
H722 C726 0.929 . S
H723 C732 0.929 . S
C724 H718 0.930 . S
C724 C725 1.367 . S
C724 C732 1.378 . S
C725 C724 1.367 . S
C725 C733 1.433 . S
C726 H722 0.929 . S
C726 C728 1.378 . S
C726 C730 1.350 . S
C727 C730 1.463 . S
C727 C732 1.350 . S
C727 N735 1.427 . S
C728 H719 0.930 . S
C728 C726 1.378 . S
C728 C729 1.367 . S
C729 C728 1.367 . S
C729 C731 1.433 . S
C730 C726 1.350 . S
C730 C727 1.463 . S
C730 N734 1.427 . S
C731 H721 0.929 . S
C731 C729 1.433 . S
C731 N734 1.384 . S
C732 H723 0.929 . S
C732 C724 1.378 . S
C732 C727 1.350 . S
C733 H720 0.929 . S
C733 C725 1.433 . S
C733 N735 1.384 . S
N734 C730 1.427 . S
N734 C731 1.384 . S
N735 C727 1.427 . S
N735 C733 1.384 . S
H736 C742 0.930 . S
H737 C746 0.930 . S
H738 C751 0.929 . S
H739 C749 0.929 . S
H740 C744 0.929 . S
H741 C750 0.929 . S
C742 H736 0.930 . S
C742 C743 1.367 . S
C742 C750 1.378 . S
C743 C742 1.367 . S
C743 C751 1.433 . S
C744 H740 0.929 . S
C744 C746 1.378 . S
C744 C748 1.350 . S
C745 C748 1.463 . S
C745 C750 1.350 . S
C745 N753 1.427 . S
C746 H737 0.930 . S
C746 C744 1.378 . S
C746 C747 1.367 . S
C747 C746 1.367 . S
C747 C749 1.433 . S
C748 C744 1.350 . S
C748 C745 1.463 . S
C748 N752 1.427 . S
C749 H739 0.929 . S
C749 C747 1.433 . S
C749 N752 1.384 . S
C750 H741 0.929 . S
C750 C742 1.378 . S
C750 C745 1.350 . S
C751 H738 0.929 . S
C751 C743 1.433 . S
C751 N753 1.384 . S
N752 C748 1.427 . S
N752 C749 1.384 . S
N753 C745 1.427 . S
N753 C751 1.384 . S
H754 C760 0.930 . S
H755 C764 0.930 . S
H756 C769 0.929 . S
H757 C767 0.929 . S
H758 C762 0.929 . S
H759 C768 0.929 . S
C760 H754 0.930 . S
C760 C761 1.367 . S
C760 C768 1.378 . S
C761 C760 1.367 . S
C761 C769 1.433 . S
C762 H758 0.929 . S
C762 C764 1.378 . S
C762 C766 1.350 . S
C763 C766 1.463 . S
C763 C768 1.350 . S
C763 N771 1.427 . S
C764 H755 0.930 . S
C764 C762 1.378 . S
C764 C765 1.367 . S
C765 C764 1.367 . S
C765 C767 1.433 . S
C766 C762 1.350 . S
C766 C763 1.463 . S
C766 N770 1.427 . S
C767 H757 0.929 . S
C767 C765 1.433 . S
C767 N770 1.384 . S
C768 H759 0.929 . S
C768 C760 1.378 . S
C768 C763 1.350 . S
C769 H756 0.929 . S
C769 C761 1.433 . S
C769 N771 1.384 . S
N770 C766 1.427 . S
N770 C767 1.384 . S
N771 C763 1.427 . S
N771 C769 1.384 . S
H772 C778 0.930 . S
H773 C782 0.930 . S
H774 C787 0.929 . S
H775 C785 0.929 . S
H776 C780 0.929 . S
H777 C786 0.929 . S
C778 H772 0.930 . S
C778 C779 1.367 . S
C778 C786 1.378 . S
C779 C778 1.367 . S
C779 C787 1.433 . S
C780 H776 0.929 . S
C780 C782 1.378 . S
C780 C784 1.350 . S
C781 C784 1.463 . S
C781 C786 1.350 . S
C781 N789 1.427 . S
C782 H773 0.930 . S
C782 C780 1.378 . S
C782 C783 1.367 . S
C783 C782 1.367 . S
C783 C785 1.433 . S
C784 C780 1.350 . S
C784 C781 1.463 . S
C784 N788 1.427 . S
C785 H775 0.929 . S
C785 C783 1.433 . S
C785 N788 1.384 . S
C786 H777 0.929 . S
C786 C778 1.378 . S
C786 C781 1.350 . S
C787 H774 0.929 . S
C787 C779 1.433 . S
C787 N789 1.384 . S
N788 C784 1.427 . S
N788 C785 1.384 . S
N789 C781 1.427 . S
N789 C787 1.384 . S
H790 C796 0.930 . S
H791 C800 0.930 . S
H792 C805 0.929 . S
H793 C803 0.929 . S
H794 C798 0.929 . S
H795 C804 0.929 . S
C796 H790 0.930 . S
C796 C797 1.367 . S
C796 C804 1.378 . S
C797 C796 1.367 . S
C797 C805 1.433 . S
C798 H794 0.929 . S
C798 C800 1.378 . S
C798 C802 1.350 . S
C799 C802 1.463 . S
C799 C804 1.350 . S
C799 N807 1.427 . S
C800 H791 0.930 . S
C800 C798 1.378 . S
C800 C801 1.367 . S
C801 C800 1.367 . S
C801 C803 1.433 . S
C802 C798 1.350 . S
C802 C799 1.463 . S
C802 N806 1.427 . S
C803 H793 0.929 . S
C803 C801 1.433 . S
C803 N806 1.384 . S
C804 H795 0.929 . S
C804 C796 1.378 . S
C804 C799 1.350 . S
C805 H792 0.929 . S
C805 C797 1.433 . S
C805 N807 1.384 . S
N806 C802 1.427 . S
N806 C803 1.384 . S
N807 C799 1.427 . S
N807 C805 1.384 . S
H808 C814 0.930 . S
H809 C818 0.930 . S
H810 C823 0.929 . S
H811 C821 0.929 . S
H812 C816 0.929 . S
H813 C822 0.929 . S
C814 H808 0.930 . S
C814 C815 1.367 . S
C814 C822 1.378 . S
C815 C814 1.367 . S
C815 C823 1.433 . S
C816 H812 0.929 . S
C816 C818 1.378 . S
C816 C820 1.350 . S
C817 C820 1.463 . S
C817 C822 1.350 . S
C817 N825 1.427 . S
C818 H809 0.930 . S
C818 C816 1.378 . S
C818 C819 1.367 . S
C819 C818 1.367 . S
C819 C821 1.433 . S
C820 C816 1.350 . S
C820 C817 1.463 . S
C820 N824 1.427 . S
C821 H811 0.929 . S
C821 C819 1.433 . S
C821 N824 1.384 . S
C822 H813 0.929 . S
C822 C814 1.378 . S
C822 C817 1.350 . S
C823 H810 0.929 . S
C823 C815 1.433 . S
C823 N825 1.384 . S
N824 C820 1.427 . S
N824 C821 1.384 . S
N825 C817 1.427 . S
N825 C823 1.384 . S
H826 C832 0.930 . S
H827 C836 0.930 . S
H828 C841 0.929 . S
H829 C839 0.929 . S
H830 C834 0.929 . S
H831 C840 0.929 . S
C832 H826 0.930 . S
C832 C833 1.367 . S
C832 C840 1.378 . S
C833 C832 1.367 . S
C833 C841 1.433 . S
C834 H830 0.929 . S
C834 C836 1.378 . S
C834 C838 1.350 . S
C835 C838 1.463 . S
C835 C840 1.350 . S
C835 N843 1.427 . S
C836 H827 0.930 . S
C836 C834 1.378 . S
C836 C837 1.367 . S
C837 C836 1.367 . S
C837 C839 1.433 . S
C838 C834 1.350 . S
C838 C835 1.463 . S
C838 N842 1.427 . S
C839 H829 0.929 . S
C839 C837 1.433 . S
C839 N842 1.384 . S
C840 H831 0.929 . S
C840 C832 1.378 . S
C840 C835 1.350 . S
C841 H828 0.929 . S
C841 C833 1.433 . S
C841 N843 1.384 . S
N842 C838 1.427 . S
N842 C839 1.384 . S
N843 C835 1.427 . S
N843 C841 1.384 . S
H844 C850 0.930 . S
H845 C854 0.930 . S
H846 C859 0.929 . S
H847 C857 0.929 . S
H848 C852 0.929 . S
H849 C858 0.929 . S
C850 H844 0.930 . S
C850 C851 1.367 . S
C850 C858 1.378 . S
C851 C850 1.367 . S
C851 C859 1.433 . S
C852 H848 0.929 . S
C852 C854 1.378 . S
C852 C856 1.350 . S
C853 C856 1.463 . S
C853 C858 1.350 . S
C853 N861 1.427 . S
C854 H845 0.930 . S
C854 C852 1.378 . S
C854 C855 1.367 . S
C855 C854 1.367 . S
C855 C857 1.433 . S
C856 C852 1.350 . S
C856 C853 1.463 . S
C856 N860 1.427 . S
C857 H847 0.929 . S
C857 C855 1.433 . S
C857 N860 1.384 . S
C858 H849 0.929 . S
C858 C850 1.378 . S
C858 C853 1.350 . S
C859 H846 0.929 . S
C859 C851 1.433 . S
C859 N861 1.384 . S
N860 C856 1.427 . S
N860 C857 1.384 . S
N861 C853 1.427 . S
N861 C859 1.384 . S
H862 C868 0.930 . S
H863 C872 0.930 . S
H864 C877 0.929 . S
H865 C875 0.929 . S
H866 C870 0.929 . S
H867 C876 0.929 . S
C868 H862 0.930 . S
C868 C869 1.367 . S
C868 C876 1.378 . S
C869 C868 1.367 . S
C869 C877 1.433 . S
C870 H866 0.929 . S
C870 C872 1.378 . S
C870 C874 1.350 . S
C871 C874 1.463 . S
C871 C876 1.350 . S
C871 N879 1.427 . S
C872 H863 0.930 . S
C872 C870 1.378 . S
C872 C873 1.367 . S
C873 C872 1.367 . S
C873 C875 1.433 . S
C874 C870 1.350 . S
C874 C871 1.463 . S
C874 N878 1.427 . S
C875 H865 0.929 . S
C875 C873 1.433 . S
C875 N878 1.384 . S
C876 H867 0.929 . S
C876 C868 1.378 . S
C876 C871 1.350 . S
C877 H864 0.929 . S
C877 C869 1.433 . S
C877 N879 1.384 . S
N878 C874 1.427 . S
N878 C875 1.384 . S
N879 C871 1.427 . S
N879 C877 1.384 . S
H880 C886 0.930 . S
H881 C890 0.930 . S
H882 C895 0.929 . S
H883 C893 0.929 . S
H884 C888 0.929 . S
H885 C894 0.929 . S
C886 H880 0.930 . S
C886 C887 1.367 . S
C886 C894 1.378 . S
C887 C886 1.367 . S
C887 C895 1.433 . S
C888 H884 0.929 . S
C888 C890 1.378 . S
C888 C892 1.350 . S
C889 C892 1.463 . S
C889 C894 1.350 . S
C889 N897 1.427 . S
C890 H881 0.930 . S
C890 C888 1.378 . S
C890 C891 1.367 . S
C891 C890 1.367 . S
C891 C893 1.433 . S
C892 C888 1.350 . S
C892 C889 1.463 . S
C892 N896 1.427 . S
C893 H883 0.929 . S
C893 C891 1.433 . S
C893 N896 1.384 . S
C894 H885 0.929 . S
C894 C886 1.378 . S
C894 C889 1.350 . S
C895 H882 0.929 . S
C895 C887 1.433 . S
C895 N897 1.384 . S
N896 C892 1.427 . S
N896 C893 1.384 . S
N897 C889 1.427 . S
N897 C895 1.384 . S
H898 C904 0.930 . S
H899 C908 0.930 . S
H900 C913 0.929 . S
H901 C911 0.929 . S
H902 C906 0.929 . S
H903 C912 0.929 . S
C904 H898 0.930 . S
C904 C905 1.367 . S
C904 C912 1.378 . S
C905 C904 1.367 . S
C905 C913 1.433 . S
C906 H902 0.929 . S
C906 C908 1.378 . S
C906 C910 1.350 . S
C907 C910 1.463 . S
C907 C912 1.350 . S
C907 N915 1.427 . S
C908 H899 0.930 . S
C908 C906 1.378 . S
C908 C909 1.367 . S
C909 C908 1.367 . S
C909 C911 1.433 . S
C910 C906 1.350 . S
C910 C907 1.463 . S
C910 N914 1.427 . S
C911 H901 0.929 . S
C911 C909 1.433 . S
C911 N914 1.384 . S
C912 H903 0.929 . S
C912 C904 1.378 . S
C912 C907 1.350 . S
C913 H900 0.929 . S
C913 C905 1.433 . S
C913 N915 1.384 . S
N914 C910 1.427 . S
N914 C911 1.384 . S
N915 C907 1.427 . S
N915 C913 1.384 . S
H916 C922 0.930 . S
H917 C926 0.930 . S
H918 C931 0.929 . S
H919 C929 0.929 . S
H920 C924 0.929 . S
H921 C930 0.929 . S
C922 H916 0.930 . S
C922 C923 1.367 . S
C922 C930 1.378 . S
C923 C922 1.367 . S
C923 C931 1.433 . S
C924 H920 0.929 . S
C924 C926 1.378 . S
C924 C928 1.350 . S
C925 C928 1.463 . S
C925 C930 1.350 . S
C925 N933 1.427 . S
C926 H917 0.930 . S
C926 C924 1.378 . S
C926 C927 1.367 . S
C927 C926 1.367 . S
C927 C929 1.433 . S
C928 C924 1.350 . S
C928 C925 1.463 . S
C928 N932 1.427 . S
C929 H919 0.929 . S
C929 C927 1.433 . S
C929 N932 1.384 . S
C930 H921 0.929 . S
C930 C922 1.378 . S
C930 C925 1.350 . S
C931 H918 0.929 . S
C931 C923 1.433 . S
C931 N933 1.384 . S
N932 C928 1.427 . S
N932 C929 1.384 . S
N933 C925 1.427 . S
N933 C931 1.384 . S
H934 C940 0.930 . S
H935 C944 0.930 . S
H936 C949 0.929 . S
H937 C947 0.929 . S
H938 C942 0.929 . S
H939 C948 0.929 . S
C940 H934 0.930 . S
C940 C941 1.367 . S
C940 C948 1.378 . S
C941 C940 1.367 . S
C941 C949 1.433 . S
C942 H938 0.929 . S
C942 C944 1.378 . S
C942 C946 1.350 . S
C943 C946 1.463 . S
C943 C948 1.350 . S
C943 N951 1.427 . S
C944 H935 0.930 . S
C944 C942 1.378 . S
C944 C945 1.367 . S
C945 C944 1.367 . S
C945 C947 1.433 . S
C946 C942 1.350 . S
C946 C943 1.463 . S
C946 N950 1.427 . S
C947 H937 0.929 . S
C947 C945 1.433 . S
C947 N950 1.384 . S
C948 H939 0.929 . S
C948 C940 1.378 . S
C948 C943 1.350 . S
C949 H936 0.929 . S
C949 C941 1.433 . S
C949 N951 1.384 . S
N950 C946 1.427 . S
N950 C947 1.384 . S
N951 C943 1.427 . S
N951 C949 1.384 . S
H952 C958 0.930 . S
H953 C962 0.930 . S
H954 C967 0.929 . S
H955 C965 0.929 . S
H956 C960 0.929 . S
H957 C966 0.929 . S
C958 H952 0.930 . S
C958 C959 1.367 . S
C958 C966 1.378 . S
C959 C958 1.367 . S
C959 C967 1.433 . S
C960 H956 0.929 . S
C960 C962 1.378 . S
C960 C964 1.350 . S
C961 C964 1.463 . S
C961 C966 1.350 . S
C961 N969 1.427 . S
C962 H953 0.930 . S
C962 C960 1.378 . S
C962 C963 1.367 . S
C963 C962 1.367 . S
C963 C965 1.433 . S
C964 C960 1.350 . S
C964 C961 1.463 . S
C964 N968 1.427 . S
C965 H955 0.929 . S
C965 C963 1.433 . S
C965 N968 1.384 . S
C966 H957 0.929 . S
C966 C958 1.378 . S
C966 C961 1.350 . S
C967 H954 0.929 . S
C967 C959 1.433 . S
C967 N969 1.384 . S
N968 C964 1.427 . S
N968 C965 1.384 . S
N969 C961 1.427 . S
N969 C967 1.384 . S
H970 C976 0.930 . S
H971 C980 0.930 . S
H972 C985 0.929 . S
H973 C983 0.929 . S
H974 C978 0.929 . S
H975 C984 0.929 . S
C976 H970 0.930 . S
C976 C977 1.367 . S
C976 C984 1.378 . S
C977 C976 1.367 . S
C977 C985 1.433 . S
C978 H974 0.929 . S
C978 C980 1.378 . S
C978 C982 1.350 . S
C979 C982 1.463 . S
C979 C984 1.350 . S
C979 N987 1.427 . S
C980 H971 0.930 . S
C980 C978 1.378 . S
C980 C981 1.367 . S
C981 C980 1.367 . S
C981 C983 1.433 . S
C982 C978 1.350 . S
C982 C979 1.463 . S
C982 N986 1.427 . S
C983 H973 0.929 . S
C983 C981 1.433 . S
C983 N986 1.384 . S
C984 H975 0.929 . S
C984 C976 1.378 . S
C984 C979 1.350 . S
C985 H972 0.929 . S
C985 C977 1.433 . S
C985 N987 1.384 . S
N986 C982 1.427 . S
N986 C983 1.384 . S
N987 C979 1.427 . S
N987 C985 1.384 . S
H988 C994 0.930 . S
H989 C998 0.930 . S
H990 C1003 0.929 . S
H991 C1001 0.929 . S
H992 C996 0.929 . S
H993 C1002 0.929 . S
C994 H988 0.930 . S
C994 C995 1.367 . S
C994 C1002 1.378 . S
C995 C994 1.367 . S
C995 C1003 1.433 . S
C996 H992 0.929 . S
C996 C998 1.378 . S
C996 C1000 1.350 . S
C997 C1000 1.463 . S
C997 C1002 1.350 . S
C997 N1005 1.427 . S
C998 H989 0.930 . S
C998 C996 1.378 . S
C998 C999 1.367 . S
C999 C998 1.367 . S
C999 C1001 1.433 . S
C1000 C996 1.350 . S
C1000 C997 1.463 . S
C1000 N1004 1.427 . S
C1001 H991 0.929 . S
C1001 C999 1.433 . S
C1001 N1004 1.384 . S
C1002 H993 0.929 . S
C1002 C994 1.378 . S
C1002 C997 1.350 . S
C1003 H990 0.929 . S
C1003 C995 1.433 . S
C1003 N1005 1.384 . S
N1004 C1000 1.427 . S
N1004 C1001 1.384 . S
N1005 C997 1.427 . S
N1005 C1003 1.384 . S
H1006 C1012 0.930 . S
H1007 C1016 0.930 . S
H1008 C1021 0.929 . S
H1009 C1019 0.929 . S
H1010 C1014 0.929 . S
H1011 C1020 0.929 . S
C1012 H1006 0.930 . S
C1012 C1013 1.367 . S
C1012 C1020 1.378 . S
C1013 C1012 1.367 . S
C1013 C1021 1.433 . S
C1014 H1010 0.929 . S
C1014 C1016 1.378 . S
C1014 C1018 1.350 . S
C1015 C1018 1.463 . S
C1015 C1020 1.350 . S
C1015 N1023 1.427 . S
C1016 H1007 0.930 . S
C1016 C1014 1.378 . S
C1016 C1017 1.367 . S
C1017 C1016 1.367 . S
C1017 C1019 1.433 . S
C1018 C1014 1.350 . S
C1018 C1015 1.463 . S
C1018 N1022 1.427 . S
C1019 H1009 0.929 . S
C1019 C1017 1.433 . S
C1019 N1022 1.384 . S
C1020 H1011 0.929 . S
C1020 C1012 1.378 . S
C1020 C1015 1.350 . S
C1021 H1008 0.929 . S
C1021 C1013 1.433 . S
C1021 N1023 1.384 . S
N1022 C1018 1.427 . S
N1022 C1019 1.384 . S
N1023 C1015 1.427 . S
N1023 C1021 1.384 . S
H1024 C1030 0.930 . S
H1025 C1034 0.930 . S
H1026 C1039 0.929 . S
H1027 C1037 0.929 . S
H1028 C1032 0.929 . S
H1029 C1038 0.929 . S
C1030 H1024 0.930 . S
C1030 C1031 1.367 . S
C1030 C1038 1.378 . S
C1031 C1030 1.367 . S
C1031 C1039 1.433 . S
C1032 H1028 0.929 . S
C1032 C1034 1.378 . S
C1032 C1036 1.350 . S
C1033 C1036 1.463 . S
C1033 C1038 1.350 . S
C1033 N1041 1.427 . S
C1034 H1025 0.930 . S
C1034 C1032 1.378 . S
C1034 C1035 1.367 . S
C1035 C1034 1.367 . S
C1035 C1037 1.433 . S
C1036 C1032 1.350 . S
C1036 C1033 1.463 . S
C1036 N1040 1.427 . S
C1037 H1027 0.929 . S
C1037 C1035 1.433 . S
C1037 N1040 1.384 . S
C1038 H1029 0.929 . S
C1038 C1030 1.378 . S
C1038 C1033 1.350 . S
C1039 H1026 0.929 . S
C1039 C1031 1.433 . S
C1039 N1041 1.384 . S
N1040 C1036 1.427 . S
N1040 C1037 1.384 . S
N1041 C1033 1.427 . S
N1041 C1039 1.384 . S
H1042 C1048 0.930 . S
H1043 C1052 0.930 . S
H1044 C1057 0.929 . S
H1045 C1055 0.929 . S
H1046 C1050 0.929 . S
H1047 C1056 0.929 . S
C1048 H1042 0.930 . S
C1048 C1049 1.367 . S
C1048 C1056 1.378 . S
C1049 C1048 1.367 . S
C1049 C1057 1.433 . S
C1050 H1046 0.929 . S
C1050 C1052 1.378 . S
C1050 C1054 1.350 . S
C1051 C1054 1.463 . S
C1051 C1056 1.350 . S
C1051 N1059 1.427 . S
C1052 H1043 0.930 . S
C1052 C1050 1.378 . S
C1052 C1053 1.367 . S
C1053 C1052 1.367 . S
C1053 C1055 1.433 . S
C1054 C1050 1.350 . S
C1054 C1051 1.463 . S
C1054 N1058 1.427 . S
C1055 H1045 0.929 . S
C1055 C1053 1.433 . S
C1055 N1058 1.384 . S
C1056 H1047 0.929 . S
C1056 C1048 1.378 . S
C1056 C1051 1.350 . S
C1057 H1044 0.929 . S
C1057 C1049 1.433 . S
C1057 N1059 1.384 . S
N1058 C1054 1.427 . S
N1058 C1055 1.384 . S
N1059 C1051 1.427 . S
N1059 C1057 1.384 . S
H1060 C1066 0.930 . S
H1061 C1070 0.930 . S
H1062 C1075 0.929 . S
H1063 C1073 0.929 . S
H1064 C1068 0.929 . S
H1065 C1074 0.929 . S
C1066 H1060 0.930 . S
C1066 C1067 1.367 . S
C1066 C1074 1.378 . S
C1067 C1066 1.367 . S
C1067 C1075 1.433 . S
C1068 H1064 0.929 . S
C1068 C1070 1.378 . S
C1068 C1072 1.350 . S
C1069 C1072 1.463 . S
C1069 C1074 1.350 . S
C1069 N1077 1.427 . S
C1070 H1061 0.930 . S
C1070 C1068 1.378 . S
C1070 C1071 1.367 . S
C1071 C1070 1.367 . S
C1071 C1073 1.433 . S
C1072 C1068 1.350 . S
C1072 C1069 1.463 . S
C1072 N1076 1.427 . S
C1073 H1063 0.929 . S
C1073 C1071 1.433 . S
C1073 N1076 1.384 . S
C1074 H1065 0.929 . S
C1074 C1066 1.378 . S
C1074 C1069 1.350 . S
C1075 H1062 0.929 . S
C1075 C1067 1.433 . S
C1075 N1077 1.384 . S
N1076 C1072 1.427 . S
N1076 C1073 1.384 . S
N1077 C1069 1.427 . S
N1077 C1075 1.384 . S
H1078 C1084 0.930 . S
H1079 C1088 0.930 . S
H1080 C1093 0.929 . S
H1081 C1091 0.929 . S
H1082 C1086 0.929 . S
H1083 C1092 0.929 . S
C1084 H1078 0.930 . S
C1084 C1085 1.367 . S
C1084 C1092 1.378 . S
C1085 C1084 1.367 . S
C1085 C1093 1.433 . S
C1086 H1082 0.929 . S
C1086 C1088 1.378 . S
C1086 C1090 1.350 . S
C1087 C1090 1.463 . S
C1087 C1092 1.350 . S
C1087 N1095 1.427 . S
C1088 H1079 0.930 . S
C1088 C1086 1.378 . S
C1088 C1089 1.367 . S
C1089 C1088 1.367 . S
C1089 C1091 1.433 . S
C1090 C1086 1.350 . S
C1090 C1087 1.463 . S
C1090 N1094 1.427 . S
C1091 H1081 0.929 . S
C1091 C1089 1.433 . S
C1091 N1094 1.384 . S
C1092 H1083 0.929 . S
C1092 C1084 1.378 . S
C1092 C1087 1.350 . S
C1093 H1080 0.929 . S
C1093 C1085 1.433 . S
C1093 N1095 1.384 . S
N1094 C1090 1.427 . S
N1094 C1091 1.384 . S
N1095 C1087 1.427 . S
N1095 C1093 1.384 . S
H1096 C1102 0.930 . S
H1097 C1106 0.930 . S
H1098 C1111 0.929 . S
H1099 C1109 0.929 . S
H1100 C1104 0.929 . S
H1101 C1110 0.929 . S
C1102 H1096 0.930 . S
C1102 C1103 1.367 . S
C1102 C1110 1.378 . S
C1103 C1102 1.367 . S
C1103 C1111 1.433 . S
C1104 H1100 0.929 . S
C1104 C1106 1.378 . S
C1104 C1108 1.350 . S
C1105 C1108 1.463 . S
C1105 C1110 1.350 . S
C1105 N1113 1.427 . S
C1106 H1097 0.930 . S
C1106 C1104 1.378 . S
C1106 C1107 1.367 . S
C1107 C1106 1.367 . S
C1107 C1109 1.433 . S
C1108 C1104 1.350 . S
C1108 C1105 1.463 . S
C1108 N1112 1.427 . S
C1109 H1099 0.929 . S
C1109 C1107 1.433 . S
C1109 N1112 1.384 . S
C1110 H1101 0.929 . S
C1110 C1102 1.378 . S
C1110 C1105 1.350 . S
C1111 H1098 0.929 . S
C1111 C1103 1.433 . S
C1111 N1113 1.384 . S
N1112 C1108 1.427 . S
N1112 C1109 1.384 . S
N1113 C1105 1.427 . S
N1113 C1111 1.384 . S
H1114 C1120 0.930 . S
H1115 C1124 0.930 . S
H1116 C1129 0.929 . S
H1117 C1127 0.929 . S
H1118 C1122 0.929 . S
H1119 C1128 0.929 . S
C1120 H1114 0.930 . S
C1120 C1121 1.367 . S
C1120 C1128 1.378 . S
C1121 C1120 1.367 . S
C1121 C1129 1.433 . S
C1122 H1118 0.929 . S
C1122 C1124 1.378 . S
C1122 C1126 1.350 . S
C1123 C1126 1.463 . S
C1123 C1128 1.350 . S
C1123 N1131 1.427 . S
C1124 H1115 0.930 . S
C1124 C1122 1.378 . S
C1124 C1125 1.367 . S
C1125 C1124 1.367 . S
C1125 C1127 1.433 . S
C1126 C1122 1.350 . S
C1126 C1123 1.463 . S
C1126 N1130 1.427 . S
C1127 H1117 0.929 . S
C1127 C1125 1.433 . S
C1127 N1130 1.384 . S
C1128 H1119 0.929 . S
C1128 C1120 1.378 . S
C1128 C1123 1.350 . S
C1129 H1116 0.929 . S
C1129 C1121 1.433 . S
C1129 N1131 1.384 . S
N1130 C1126 1.427 . S
N1130 C1127 1.384 . S
N1131 C1123 1.427 . S
N1131 C1129 1.384 . S
H1132 C1138 0.930 . S
H1133 C1142 0.930 . S
H1134 C1147 0.929 . S
H1135 C1145 0.929 . S
H1136 C1140 0.929 . S
H1137 C1146 0.929 . S
C1138 H1132 0.930 . S
C1138 C1139 1.367 . S
C1138 C1146 1.378 . S
C1139 C1138 1.367 . S
C1139 C1147 1.433 . S
C1140 H1136 0.929 . S
C1140 C1142 1.378 . S
C1140 C1144 1.350 . S
C1141 C1144 1.463 . S
C1141 C1146 1.350 . S
C1141 N1149 1.427 . S
C1142 H1133 0.930 . S
C1142 C1140 1.378 . S
C1142 C1143 1.367 . S
C1143 C1142 1.367 . S
C1143 C1145 1.433 . S
C1144 C1140 1.350 . S
C1144 C1141 1.463 . S
C1144 N1148 1.427 . S
C1145 H1135 0.929 . S
C1145 C1143 1.433 . S
C1145 N1148 1.384 . S
C1146 H1137 0.929 . S
C1146 C1138 1.378 . S
C1146 C1141 1.350 . S
C1147 H1134 0.929 . S
C1147 C1139 1.433 . S
C1147 N1149 1.384 . S
N1148 C1144 1.427 . S
N1148 C1145 1.384 . S
N1149 C1141 1.427 . S
N1149 C1147 1.384 . S
H1150 C1156 0.930 . S
H1151 C1160 0.930 . S
H1152 C1165 0.929 . S
H1153 C1163 0.929 . S
H1154 C1158 0.929 . S
H1155 C1164 0.929 . S
C1156 H1150 0.930 . S
C1156 C1157 1.367 . S
C1156 C1164 1.378 . S
C1157 C1156 1.367 . S
C1157 C1165 1.433 . S
C1158 H1154 0.929 . S
C1158 C1160 1.378 . S
C1158 C1162 1.350 . S
C1159 C1162 1.463 . S
C1159 C1164 1.350 . S
C1159 N1167 1.427 . S
C1160 H1151 0.930 . S
C1160 C1158 1.378 . S
C1160 C1161 1.367 . S
C1161 C1160 1.367 . S
C1161 C1163 1.433 . S
C1162 C1158 1.350 . S
C1162 C1159 1.463 . S
C1162 N1166 1.427 . S
C1163 H1153 0.929 . S
C1163 C1161 1.433 . S
C1163 N1166 1.384 . S
C1164 H1155 0.929 . S
C1164 C1156 1.378 . S
C1164 C1159 1.350 . S
C1165 H1152 0.929 . S
C1165 C1157 1.433 . S
C1165 N1167 1.384 . S
N1166 C1162 1.427 . S
N1166 C1163 1.384 . S
N1167 C1159 1.427 . S
N1167 C1165 1.384 . S
H1168 C1174 0.930 . S
H1169 C1178 0.930 . S
H1170 C1183 0.929 . S
H1171 C1181 0.929 . S
H1172 C1176 0.929 . S
H1173 C1182 0.929 . S
C1174 H1168 0.930 . S
C1174 C1175 1.367 . S
C1174 C1182 1.378 . S
C1175 C1174 1.367 . S
C1175 C1183 1.433 . S
C1176 H1172 0.929 . S
C1176 C1178 1.378 . S
C1176 C1180 1.350 . S
C1177 C1180 1.463 . S
C1177 C1182 1.350 . S
C1177 N1185 1.427 . S
C1178 H1169 0.930 . S
C1178 C1176 1.378 . S
C1178 C1179 1.367 . S
C1179 C1178 1.367 . S
C1179 C1181 1.433 . S
C1180 C1176 1.350 . S
C1180 C1177 1.463 . S
C1180 N1184 1.427 . S
C1181 H1171 0.929 . S
C1181 C1179 1.433 . S
C1181 N1184 1.384 . S
C1182 H1173 0.929 . S
C1182 C1174 1.378 . S
C1182 C1177 1.350 . S
C1183 H1170 0.929 . S
C1183 C1175 1.433 . S
C1183 N1185 1.384 . S
N1184 C1180 1.427 . S
N1184 C1181 1.384 . S
N1185 C1177 1.427 . S
N1185 C1183 1.384 . S
H1186 C1192 0.930 . S
H1187 C1196 0.930 . S
H1188 C1201 0.929 . S
H1189 C1199 0.929 . S
H1190 C1194 0.929 . S
H1191 C1200 0.929 . S
C1192 H1186 0.930 . S
C1192 C1193 1.367 . S
C1192 C1200 1.378 . S
C1193 C1192 1.367 . S
C1193 C1201 1.433 . S
C1194 H1190 0.929 . S
C1194 C1196 1.378 . S
C1194 C1198 1.350 . S
C1195 C1198 1.463 . S
C1195 C1200 1.350 . S
C1195 N1203 1.427 . S
C1196 H1187 0.930 . S
C1196 C1194 1.378 . S
C1196 C1197 1.367 . S
C1197 C1196 1.367 . S
C1197 C1199 1.433 . S
C1198 C1194 1.350 . S
C1198 C1195 1.463 . S
C1198 N1202 1.427 . S
C1199 H1189 0.929 . S
C1199 C1197 1.433 . S
C1199 N1202 1.384 . S
C1200 H1191 0.929 . S
C1200 C1192 1.378 . S
C1200 C1195 1.350 . S
C1201 H1188 0.929 . S
C1201 C1193 1.433 . S
C1201 N1203 1.384 . S
N1202 C1198 1.427 . S
N1202 C1199 1.384 . S
N1203 C1195 1.427 . S
N1203 C1201 1.384 . S
H1204 C1210 0.930 . S
H1205 C1214 0.930 . S
H1206 C1219 0.929 . S
H1207 C1217 0.929 . S
H1208 C1212 0.929 . S
H1209 C1218 0.929 . S
C1210 H1204 0.930 . S
C1210 C1211 1.367 . S
C1210 C1218 1.378 . S
C1211 C1210 1.367 . S
C1211 C1219 1.433 . S
C1212 H1208 0.929 . S
C1212 C1214 1.378 . S
C1212 C1216 1.350 . S
C1213 C1216 1.463 . S
C1213 C1218 1.350 . S
C1213 N1221 1.427 . S
C1214 H1205 0.930 . S
C1214 C1212 1.378 . S
C1214 C1215 1.367 . S
C1215 C1214 1.367 . S
C1215 C1217 1.433 . S
C1216 C1212 1.350 . S
C1216 C1213 1.463 . S
C1216 N1220 1.427 . S
C1217 H1207 0.929 . S
C1217 C1215 1.433 . S
C1217 N1220 1.384 . S
C1218 H1209 0.929 . S
C1218 C1210 1.378 . S
C1218 C1213 1.350 . S
C1219 H1206 0.929 . S
C1219 C1211 1.433 . S
C1219 N1221 1.384 . S
N1220 C1216 1.427 . S
N1220 C1217 1.384 . S
N1221 C1213 1.427 . S
N1221 C1219 1.384 . S
H1222 C1228 0.930 . S
H1223 C1232 0.930 . S
H1224 C1237 0.929 . S
H1225 C1235 0.929 . S
H1226 C1230 0.929 . S
H1227 C1236 0.929 . S
C1228 H1222 0.930 . S
C1228 C1229 1.367 . S
C1228 C1236 1.378 . S
C1229 C1228 1.367 . S
C1229 C1237 1.433 . S
C1230 H1226 0.929 . S
C1230 C1232 1.378 . S
C1230 C1234 1.350 . S
C1231 C1234 1.463 . S
C1231 C1236 1.350 . S
C1231 N1239 1.427 . S
C1232 H1223 0.930 . S
C1232 C1230 1.378 . S
C1232 C1233 1.367 . S
C1233 C1232 1.367 . S
C1233 C1235 1.433 . S
C1234 C1230 1.350 . S
C1234 C1231 1.463 . S
C1234 N1238 1.427 . S
C1235 H1225 0.929 . S
C1235 C1233 1.433 . S
C1235 N1238 1.384 . S
C1236 H1227 0.929 . S
C1236 C1228 1.378 . S
C1236 C1231 1.350 . S
C1237 H1224 0.929 . S
C1237 C1229 1.433 . S
C1237 N1239 1.384 . S
N1238 C1234 1.427 . S
N1238 C1235 1.384 . S
N1239 C1231 1.427 . S
N1239 C1237 1.384 . S
H1240 C1246 0.930 . S
H1241 C1250 0.930 . S
H1242 C1255 0.929 . S
H1243 C1253 0.929 . S
H1244 C1248 0.929 . S
H1245 C1254 0.929 . S
C1246 H1240 0.930 . S
C1246 C1247 1.367 . S
C1246 C1254 1.378 . S
C1247 C1246 1.367 . S
C1247 C1255 1.433 . S
C1248 H1244 0.929 . S
C1248 C1250 1.378 . S
C1248 C1252 1.350 . S
C1249 C1252 1.463 . S
C1249 C1254 1.350 . S
C1249 N1257 1.427 . S
C1250 H1241 0.930 . S
C1250 C1248 1.378 . S
C1250 C1251 1.367 . S
C1251 C1250 1.367 . S
C1251 C1253 1.433 . S
C1252 C1248 1.350 . S
C1252 C1249 1.463 . S
C1252 N1256 1.427 . S
C1253 H1243 0.929 . S
C1253 C1251 1.433 . S
C1253 N1256 1.384 . S
C1254 H1245 0.929 . S
C1254 C1246 1.378 . S
C1254 C1249 1.350 . S
C1255 H1242 0.929 . S
C1255 C1247 1.433 . S
C1255 N1257 1.384 . S
N1256 C1252 1.427 . S
N1256 C1253 1.384 . S
N1257 C1249 1.427 . S
N1257 C1255 1.384 . S
H1258 C1264 0.930 . S
H1259 C1268 0.930 . S
H1260 C1273 0.929 . S
H1261 C1271 0.929 . S
H1262 C1266 0.929 . S
H1263 C1272 0.929 . S
C1264 H1258 0.930 . S
C1264 C1265 1.367 . S
C1264 C1272 1.378 . S
C1265 C1264 1.367 . S
C1265 C1273 1.433 . S
C1266 H1262 0.929 . S
C1266 C1268 1.378 . S
C1266 C1270 1.350 . S
C1267 C1270 1.463 . S
C1267 C1272 1.350 . S
C1267 N1275 1.427 . S
C1268 H1259 0.930 . S
C1268 C1266 1.378 . S
C1268 C1269 1.367 . S
C1269 C1268 1.367 . S
C1269 C1271 1.433 . S
C1270 C1266 1.350 . S
C1270 C1267 1.463 . S
C1270 N1274 1.427 . S
C1271 H1261 0.929 . S
C1271 C1269 1.433 . S
C1271 N1274 1.384 . S
C1272 H1263 0.929 . S
C1272 C1264 1.378 . S
C1272 C1267 1.350 . S
C1273 H1260 0.929 . S
C1273 C1265 1.433 . S
C1273 N1275 1.384 . S
N1274 C1270 1.427 . S
N1274 C1271 1.384 . S
N1275 C1267 1.427 . S
N1275 C1273 1.384 . S
H1276 C1282 0.930 . S
H1277 C1286 0.930 . S
H1278 C1291 0.929 . S
H1279 C1289 0.929 . S
H1280 C1284 0.929 . S
H1281 C1290 0.929 . S
C1282 H1276 0.930 . S
C1282 C1283 1.367 . S
C1282 C1290 1.378 . S
C1283 C1282 1.367 . S
C1283 C1291 1.433 . S
C1284 H1280 0.929 . S
C1284 C1286 1.378 . S
C1284 C1288 1.350 . S
C1285 C1288 1.463 . S
C1285 C1290 1.350 . S
C1285 N1293 1.427 . S
C1286 H1277 0.930 . S
C1286 C1284 1.378 . S
C1286 C1287 1.367 . S
C1287 C1286 1.367 . S
C1287 C1289 1.433 . S
C1288 C1284 1.350 . S
C1288 C1285 1.463 . S
C1288 N1292 1.427 . S
C1289 H1279 0.929 . S
C1289 C1287 1.433 . S
C1289 N1292 1.384 . S
C1290 H1281 0.929 . S
C1290 C1282 1.378 . S
C1290 C1285 1.350 . S
C1291 H1278 0.929 . S
C1291 C1283 1.433 . S
C1291 N1293 1.384 . S
N1292 C1288 1.427 . S
N1292 C1289 1.384 . S
N1293 C1285 1.427 . S
N1293 C1291 1.384 . S
H1294 C1300 0.930 . S
H1295 C1304 0.930 . S
H1296 C1309 0.929 . S
H1297 C1307 0.929 . S
H1298 C1302 0.929 . S
H1299 C1308 0.929 . S
C1300 H1294 0.930 . S
C1300 C1301 1.367 . S
C1300 C1308 1.378 . S
C1301 C1300 1.367 . S
C1301 C1309 1.433 . S
C1302 H1298 0.929 . S
C1302 C1304 1.378 . S
C1302 C1306 1.350 . S
C1303 C1306 1.463 . S
C1303 C1308 1.350 . S
C1303 N1311 1.427 . S
C1304 H1295 0.930 . S
C1304 C1302 1.378 . S
C1304 C1305 1.367 . S
C1305 C1304 1.367 . S
C1305 C1307 1.433 . S
C1306 C1302 1.350 . S
C1306 C1303 1.463 . S
C1306 N1310 1.427 . S
C1307 H1297 0.929 . S
C1307 C1305 1.433 . S
C1307 N1310 1.384 . S
C1308 H1299 0.929 . S
C1308 C1300 1.378 . S
C1308 C1303 1.350 . S
C1309 H1296 0.929 . S
C1309 C1301 1.433 . S
C1309 N1311 1.384 . S
N1310 C1306 1.427 . S
N1310 C1307 1.384 . S
N1311 C1303 1.427 . S
N1311 C1309 1.384 . S
H1312 C1318 0.930 1_655 S
H1313 C1322 0.930 . S
H1314 C1327 0.929 . S
H1315 C1325 0.929 1_655 S
H1316 C1320 0.929 . S
H1317 C1326 0.929 1_655 S
C1318 H1312 0.930 1_455 S
C1318 C1319 1.367 . S
C1318 C1326 1.378 . S
C1319 C1318 1.367 . S
C1319 C1327 1.433 . S
C1320 H1316 0.929 . S
C1320 C1322 1.378 . S
C1320 C1324 1.350 . S
C1321 C1324 1.463 . S
C1321 C1326 1.350 . S
C1321 N1329 1.427 . S
C1322 H1313 0.930 . S
C1322 C1320 1.378 . S
C1322 C1323 1.367 . S
C1323 C1322 1.367 . S
C1323 C1325 1.433 . S
C1324 C1320 1.350 . S
C1324 C1321 1.463 . S
C1324 N1328 1.427 . S
C1325 H1315 0.929 1_455 S
C1325 C1323 1.433 . S
C1325 N1328 1.384 . S
C1326 H1317 0.929 1_455 S
C1326 C1318 1.378 . S
C1326 C1321 1.350 . S
C1327 H1314 0.929 . S
C1327 C1319 1.433 . S
C1327 N1329 1.384 . S
N1328 C1324 1.427 . S
N1328 C1325 1.384 . S
N1329 C1321 1.427 . S
N1329 C1327 1.384 . S
H1330 C1336 0.930 . S
H1331 C1340 0.930 . S
H1332 C1345 0.929 . S
H1333 C1343 0.929 . S
H1334 C1338 0.929 . S
H1335 C1344 0.929 . S
C1336 H1330 0.930 . S
C1336 C1337 1.367 . S
C1336 C1344 1.378 . S
C1337 C1336 1.367 . S
C1337 C1345 1.433 . S
C1338 H1334 0.929 . S
C1338 C1340 1.378 . S
C1338 C1342 1.350 . S
C1339 C1342 1.463 . S
C1339 C1344 1.350 . S
C1339 N1347 1.427 . S
C1340 H1331 0.930 . S
C1340 C1338 1.378 . S
C1340 C1341 1.367 . S
C1341 C1340 1.367 . S
C1341 C1343 1.433 . S
C1342 C1338 1.350 . S
C1342 C1339 1.463 . S
C1342 N1346 1.427 . S
C1343 H1333 0.929 . S
C1343 C1341 1.433 . S
C1343 N1346 1.384 . S
C1344 H1335 0.929 . S
C1344 C1336 1.378 . S
C1344 C1339 1.350 . S
C1345 H1332 0.929 . S
C1345 C1337 1.433 . S
C1345 N1347 1.384 . S
N1346 C1342 1.427 . S
N1346 C1343 1.384 . S
N1347 C1339 1.427 . S
N1347 C1345 1.384 . S
H1348 C1354 0.930 . S
H1349 C1358 0.930 . S
H1350 C1363 0.929 . S
H1351 C1361 0.929 . S
H1352 C1356 0.929 . S
H1353 C1362 0.929 . S
C1354 H1348 0.930 . S
C1354 C1355 1.367 . S
C1354 C1362 1.378 . S
C1355 C1354 1.367 . S
C1355 C1363 1.433 . S
C1356 H1352 0.929 . S
C1356 C1358 1.378 . S
C1356 C1360 1.350 . S
C1357 C1360 1.463 . S
C1357 C1362 1.350 . S
C1357 N1365 1.427 . S
C1358 H1349 0.930 . S
C1358 C1356 1.378 . S
C1358 C1359 1.367 . S
C1359 C1358 1.367 . S
C1359 C1361 1.433 . S
C1360 C1356 1.350 . S
C1360 C1357 1.463 . S
C1360 N1364 1.427 . S
C1361 H1351 0.929 . S
C1361 C1359 1.433 . S
C1361 N1364 1.384 . S
C1362 H1353 0.929 . S
C1362 C1354 1.378 . S
C1362 C1357 1.350 . S
C1363 H1350 0.929 . S
C1363 C1355 1.433 . S
C1363 N1365 1.384 . S
N1364 C1360 1.427 . S
N1364 C1361 1.384 . S
N1365 C1357 1.427 . S
N1365 C1363 1.384 . S
H1366 C1372 0.930 . S
H1367 C1376 0.930 . S
H1368 C1381 0.929 . S
H1369 C1379 0.929 . S
H1370 C1374 0.929 . S
H1371 C1380 0.929 . S
C1372 H1366 0.930 . S
C1372 C1373 1.367 1_554 S
C1372 C1380 1.378 . S
C1373 C1372 1.367 1_556 S
C1373 C1381 1.433 . S
C1374 H1370 0.929 . S
C1374 C1376 1.378 . S
C1374 C1378 1.350 1_556 S
C1375 C1378 1.463 1_556 S
C1375 C1380 1.350 1_556 S
C1375 N1383 1.427 . S
C1376 H1367 0.930 . S
C1376 C1374 1.378 . S
C1376 C1377 1.367 1_556 S
C1377 C1376 1.367 1_554 S
C1377 C1379 1.433 . S
C1378 C1374 1.350 1_554 S
C1378 C1375 1.463 1_554 S
C1378 N1382 1.427 . S
C1379 H1369 0.929 . S
C1379 C1377 1.433 . S
C1379 N1382 1.384 . S
C1380 H1371 0.929 . S
C1380 C1372 1.378 . S
C1380 C1375 1.350 1_554 S
C1381 H1368 0.929 . S
C1381 C1373 1.433 . S
C1381 N1383 1.384 . S
N1382 C1378 1.427 . S
N1382 C1379 1.384 . S
N1383 C1375 1.427 . S
N1383 C1381 1.384 . S
H1384 C1390 0.930 . S
H1385 C1394 0.930 1_455 S
H1386 C1399 0.929 1_455 S
H1387 C1397 0.929 . S
H1388 C1392 0.929 1_455 S
H1389 C1398 0.929 . S
C1390 H1384 0.930 . S
C1390 C1391 1.367 . S
C1390 C1398 1.378 . S
C1391 C1390 1.367 . S
C1391 C1399 1.433 . S
C1392 H1388 0.929 1_655 S
C1392 C1394 1.378 . S
C1392 C1396 1.350 . S
C1393 C1396 1.463 . S
C1393 C1398 1.350 . S
C1393 N1401 1.427 . S
C1394 H1385 0.930 1_655 S
C1394 C1392 1.378 . S
C1394 C1395 1.367 . S
C1395 C1394 1.367 . S
C1395 C1397 1.433 . S
C1396 C1392 1.350 . S
C1396 C1393 1.463 . S
C1396 N1400 1.427 . S
C1397 H1387 0.929 . S
C1397 C1395 1.433 . S
C1397 N1400 1.384 . S
C1398 H1389 0.929 . S
C1398 C1390 1.378 . S
C1398 C1393 1.350 . S
C1399 H1386 0.929 1_655 S
C1399 C1391 1.433 . S
C1399 N1401 1.384 . S
N1400 C1396 1.427 . S
N1400 C1397 1.384 . S
N1401 C1393 1.427 . S
N1401 C1399 1.384 . S
H1402 C1408 0.930 . S
H1403 C1412 0.930 . S
H1404 C1417 0.929 . S
H1405 C1415 0.929 . S
H1406 C1410 0.929 . S
H1407 C1416 0.929 . S
C1408 H1402 0.930 . S
C1408 C1409 1.367 . S
C1408 C1416 1.378 . S
C1409 C1408 1.367 . S
C1409 C1417 1.433 . S
C1410 H1406 0.929 . S
C1410 C1412 1.378 . S
C1410 C1414 1.350 . S
C1411 C1414 1.463 . S
C1411 C1416 1.350 . S
C1411 N1419 1.427 . S
C1412 H1403 0.930 . S
C1412 C1410 1.378 . S
C1412 C1413 1.367 . S
C1413 C1412 1.367 . S
C1413 C1415 1.433 . S
C1414 C1410 1.350 . S
C1414 C1411 1.463 . S
C1414 N1418 1.427 . S
C1415 H1405 0.929 . S
C1415 C1413 1.433 . S
C1415 N1418 1.384 . S
C1416 H1407 0.929 . S
C1416 C1408 1.378 . S
C1416 C1411 1.350 . S
C1417 H1404 0.929 . S
C1417 C1409 1.433 . S
C1417 N1419 1.384 . S
N1418 C1414 1.427 . S
N1418 C1415 1.384 . S
N1419 C1411 1.427 . S
N1419 C1417 1.384 . S
H1420 C1426 0.930 . S
H1421 C1430 0.930 . S
H1422 C1435 0.929 . S
H1423 C1433 0.929 . S
H1424 C1428 0.929 . S
H1425 C1434 0.929 . S
C1426 H1420 0.930 . S
C1426 C1427 1.367 . S
C1426 C1434 1.378 . S
C1427 C1426 1.367 . S
C1427 C1435 1.433 . S
C1428 H1424 0.929 . S
C1428 C1430 1.378 . S
C1428 C1432 1.350 . S
C1429 C1432 1.463 . S
C1429 C1434 1.350 . S
C1429 N1437 1.427 . S
C1430 H1421 0.930 . S
C1430 C1428 1.378 . S
C1430 C1431 1.367 . S
C1431 C1430 1.367 . S
C1431 C1433 1.433 . S
C1432 C1428 1.350 . S
C1432 C1429 1.463 . S
C1432 N1436 1.427 . S
C1433 H1423 0.929 . S
C1433 C1431 1.433 . S
C1433 N1436 1.384 . S
C1434 H1425 0.929 . S
C1434 C1426 1.378 . S
C1434 C1429 1.350 . S
C1435 H1422 0.929 . S
C1435 C1427 1.433 . S
C1435 N1437 1.384 . S
N1436 C1432 1.427 . S
N1436 C1433 1.384 . S
N1437 C1429 1.427 . S
N1437 C1435 1.384 . S
H1438 C1444 0.930 . S
H1439 C1448 0.930 . S
H1440 C1453 0.929 . S
H1441 C1451 0.929 . S
H1442 C1446 0.929 . S
H1443 C1452 0.929 . S
C1444 H1438 0.930 . S
C1444 C1445 1.367 1_556 S
C1444 C1452 1.378 . S
C1445 C1444 1.367 1_554 S
C1445 C1453 1.433 . S
C1446 H1442 0.929 . S
C1446 C1448 1.378 . S
C1446 C1450 1.350 1_554 S
C1447 C1450 1.463 1_554 S
C1447 C1452 1.350 1_554 S
C1447 N1455 1.427 . S
C1448 H1439 0.930 . S
C1448 C1446 1.378 . S
C1448 C1449 1.367 1_554 S
C1449 C1448 1.367 1_556 S
C1449 C1451 1.433 . S
C1450 C1446 1.350 1_556 S
C1450 C1447 1.463 1_556 S
C1450 N1454 1.427 . S
C1451 H1441 0.929 . S
C1451 C1449 1.433 . S
C1451 N1454 1.384 . S
C1452 H1443 0.929 . S
C1452 C1444 1.378 . S
C1452 C1447 1.350 1_556 S
C1453 H1440 0.929 . S
C1453 C1445 1.433 . S
C1453 N1455 1.384 . S
N1454 C1450 1.427 . S
N1454 C1451 1.384 . S
N1455 C1447 1.427 . S
N1455 C1453 1.384 . S
H1456 C1462 0.930 . S
H1457 C1466 0.930 . S
H1458 C1471 0.929 . S
H1459 C1469 0.929 . S
H1460 C1464 0.929 . S
H1461 C1470 0.929 . S
C1462 H1456 0.930 . S
C1462 C1463 1.367 . S
C1462 C1470 1.378 . S
C1463 C1462 1.367 . S
C1463 C1471 1.433 . S
C1464 H1460 0.929 . S
C1464 C1466 1.378 . S
C1464 C1468 1.350 . S
C1465 C1468 1.463 1_565 S
C1465 C1470 1.350 . S
C1465 N1473 1.427 . S
C1466 H1457 0.930 . S
C1466 C1464 1.378 . S
C1466 C1467 1.367 . S
C1467 C1466 1.367 . S
C1467 C1469 1.433 . S
C1468 C1464 1.350 . S
C1468 C1465 1.463 1_545 S
C1468 N1472 1.427 . S
C1469 H1459 0.929 . S
C1469 C1467 1.433 . S
C1469 N1472 1.384 . S
C1470 H1461 0.929 . S
C1470 C1462 1.378 . S
C1470 C1465 1.350 . S
C1471 H1458 0.929 . S
C1471 C1463 1.433 . S
C1471 N1473 1.384 . S
N1472 C1468 1.427 . S
N1472 C1469 1.384 . S
N1473 C1465 1.427 . S
N1473 C1471 1.384 . S
H1474 C1480 0.930 . S
H1475 C1484 0.930 . S
H1476 C1489 0.929 . S
H1477 C1487 0.929 . S
H1478 C1482 0.929 . S
H1479 C1488 0.929 . S
C1480 H1474 0.930 . S
C1480 C1481 1.367 1_556 S
C1480 C1488 1.378 . S
C1481 C1480 1.367 1_554 S
C1481 C1489 1.433 . S
C1482 H1478 0.929 . S
C1482 C1484 1.378 . S
C1482 C1486 1.350 1_554 S
C1483 C1486 1.463 1_554 S
C1483 C1488 1.350 1_554 S
C1483 N1491 1.427 . S
C1484 H1475 0.930 . S
C1484 C1482 1.378 . S
C1484 C1485 1.367 1_554 S
C1485 C1484 1.367 1_556 S
C1485 C1487 1.433 . S
C1486 C1482 1.350 1_556 S
C1486 C1483 1.463 1_556 S
C1486 N1490 1.427 . S
C1487 H1477 0.929 . S
C1487 C1485 1.433 . S
C1487 N1490 1.384 . S
C1488 H1479 0.929 . S
C1488 C1480 1.378 . S
C1488 C1483 1.350 1_556 S
C1489 H1476 0.929 . S
C1489 C1481 1.433 . S
C1489 N1491 1.384 . S
N1490 C1486 1.427 . S
N1490 C1487 1.384 . S
N1491 C1483 1.427 . S
N1491 C1489 1.384 . S
H1492 C1498 0.930 . S
H1493 C1502 0.930 . S
H1494 C1507 0.929 . S
H1495 C1505 0.929 . S
H1496 C1500 0.929 . S
H1497 C1506 0.929 . S
C1498 H1492 0.930 . S
C1498 C1499 1.367 . S
C1498 C1506 1.378 . S
C1499 C1498 1.367 . S
C1499 C1507 1.433 . S
C1500 H1496 0.929 . S
C1500 C1502 1.378 . S
C1500 C1504 1.350 . S
C1501 C1504 1.463 1_545 S
C1501 C1506 1.350 . S
C1501 N1509 1.427 . S
C1502 H1493 0.930 . S
C1502 C1500 1.378 . S
C1502 C1503 1.367 . S
C1503 C1502 1.367 . S
C1503 C1505 1.433 . S
C1504 C1500 1.350 . S
C1504 C1501 1.463 1_565 S
C1504 N1508 1.427 . S
C1505 H1495 0.929 . S
C1505 C1503 1.433 . S
C1505 N1508 1.384 . S
C1506 H1497 0.929 . S
C1506 C1498 1.378 . S
C1506 C1501 1.350 . S
C1507 H1494 0.929 . S
C1507 C1499 1.433 . S
C1507 N1509 1.384 . S
N1508 C1504 1.427 . S
N1508 C1505 1.384 . S
N1509 C1501 1.427 . S
N1509 C1507 1.384 . S
H1510 C1516 0.930 . S
H1511 C1520 0.930 . S
H1512 C1525 0.929 . S
H1513 C1523 0.929 . S
H1514 C1518 0.929 . S
H1515 C1524 0.929 . S
C1516 H1510 0.930 . S
C1516 C1517 1.367 . S
C1516 C1524 1.378 . S
C1517 C1516 1.367 . S
C1517 C1525 1.433 . S
C1518 H1514 0.929 . S
C1518 C1520 1.378 . S
C1518 C1522 1.350 . S
C1519 C1522 1.463 . S
C1519 C1524 1.350 . S
C1519 N1527 1.427 . S
C1520 H1511 0.930 . S
C1520 C1518 1.378 . S
C1520 C1521 1.367 . S
C1521 C1520 1.367 . S
C1521 C1523 1.433 . S
C1522 C1518 1.350 . S
C1522 C1519 1.463 . S
C1522 N1526 1.427 . S
C1523 H1513 0.929 . S
C1523 C1521 1.433 . S
C1523 N1526 1.384 . S
C1524 H1515 0.929 . S
C1524 C1516 1.378 . S
C1524 C1519 1.350 . S
C1525 H1512 0.929 . S
C1525 C1517 1.433 . S
C1525 N1527 1.384 . S
N1526 C1522 1.427 . S
N1526 C1523 1.384 . S
N1527 C1519 1.427 . S
N1527 C1525 1.384 . S
H1528 C1534 0.930 . S
H1529 C1538 0.930 . S
H1530 C1543 0.929 . S
H1531 C1541 0.929 . S
H1532 C1536 0.929 . S
H1533 C1542 0.929 . S
C1534 H1528 0.930 . S
C1534 C1535 1.367 . S
C1534 C1542 1.378 . S
C1535 C1534 1.367 . S
C1535 C1543 1.433 . S
C1536 H1532 0.929 . S
C1536 C1538 1.378 . S
C1536 C1540 1.350 . S
C1537 C1540 1.463 1_545 S
C1537 C1542 1.350 . S
C1537 N1545 1.427 . S
C1538 H1529 0.930 . S
C1538 C1536 1.378 . S
C1538 C1539 1.367 . S
C1539 C1538 1.367 . S
C1539 C1541 1.433 . S
C1540 C1536 1.350 . S
C1540 C1537 1.463 1_565 S
C1540 N1544 1.427 . S
C1541 H1531 0.929 . S
C1541 C1539 1.433 . S
C1541 N1544 1.384 . S
C1542 H1533 0.929 . S
C1542 C1534 1.378 . S
C1542 C1537 1.350 . S
C1543 H1530 0.929 . S
C1543 C1535 1.433 . S
C1543 N1545 1.384 . S
N1544 C1540 1.427 . S
N1544 C1541 1.384 . S
N1545 C1537 1.427 . S
N1545 C1543 1.384 . S
H1546 C1552 0.931 . S
H1547 C1556 0.930 . S
H1548 C1561 0.929 . S
H1549 C1559 0.929 . S
H1550 C1554 0.929 . S
H1551 C1560 0.929 . S
C1552 H1546 0.931 . S
C1552 C1553 1.367 . S
C1552 C1560 1.378 1_554 S
C1553 C1552 1.367 . S
C1553 C1561 1.433 . S
C1554 H1550 0.929 . S
C1554 C1556 1.378 1_554 S
C1554 C1558 1.350 1_554 S
C1555 C1558 1.463 1_554 S
C1555 C1560 1.350 1_554 S
C1555 N1563 1.427 . S
C1556 H1547 0.930 . S
C1556 C1554 1.378 1_556 S
C1556 C1557 1.367 . S
C1557 C1556 1.367 . S
C1557 C1559 1.433 . S
C1558 C1554 1.350 1_556 S
C1558 C1555 1.463 1_556 S
C1558 N1562 1.427 . S
C1559 H1549 0.929 . S
C1559 C1557 1.433 . S
C1559 N1562 1.384 . S
C1560 H1551 0.929 . S
C1560 C1552 1.378 1_556 S
C1560 C1555 1.350 1_556 S
C1561 H1548 0.929 . S
C1561 C1553 1.433 . S
C1561 N1563 1.384 . S
N1562 C1558 1.427 . S
N1562 C1559 1.384 . S
N1563 C1555 1.427 . S
N1563 C1561 1.384 . S
H1564 C1570 0.930 1_655 S
H1565 C1574 0.930 . S
H1566 C1579 0.929 . S
H1567 C1577 0.929 1_655 S
H1568 C1572 0.929 . S
H1569 C1578 0.929 1_655 S
C1570 H1564 0.930 1_455 S
C1570 C1571 1.367 . S
C1570 C1578 1.378 . S
C1571 C1570 1.367 . S
C1571 C1579 1.433 . S
C1572 H1568 0.929 . S
C1572 C1574 1.378 . S
C1572 C1576 1.350 . S
C1573 C1576 1.463 1_545 S
C1573 C1578 1.350 . S
C1573 N1581 1.427 . S
C1574 H1565 0.930 . S
C1574 C1572 1.378 . S
C1574 C1575 1.367 . S
C1575 C1574 1.367 . S
C1575 C1577 1.433 . S
C1576 C1572 1.350 . S
C1576 C1573 1.463 1_565 S
C1576 N1580 1.427 . S
C1577 H1567 0.929 1_455 S
C1577 C1575 1.433 . S
C1577 N1580 1.384 . S
C1578 H1569 0.929 1_455 S
C1578 C1570 1.378 . S
C1578 C1573 1.350 . S
C1579 H1566 0.929 . S
C1579 C1571 1.433 . S
C1579 N1581 1.384 . S
N1580 C1576 1.427 . S
N1580 C1577 1.384 . S
N1581 C1573 1.427 . S
N1581 C1579 1.384 . S
H1582 C1588 0.930 . S
H1583 C1592 0.930 . S
H1584 C1597 0.929 . S
H1585 C1595 0.929 . S
H1586 C1590 0.929 . S
H1587 C1596 0.929 . S
C1588 H1582 0.930 . S
C1588 C1589 1.367 . S
C1588 C1596 1.378 . S
C1589 C1588 1.367 . S
C1589 C1597 1.433 . S
C1590 H1586 0.929 . S
C1590 C1592 1.378 . S
C1590 C1594 1.350 . S
C1591 C1594 1.463 . S
C1591 C1596 1.350 . S
C1591 N1599 1.427 . S
C1592 H1583 0.930 . S
C1592 C1590 1.378 . S
C1592 C1593 1.367 . S
C1593 C1592 1.367 . S
C1593 C1595 1.433 . S
C1594 C1590 1.350 . S
C1594 C1591 1.463 . S
C1594 N1598 1.427 . S
C1595 H1585 0.929 . S
C1595 C1593 1.433 . S
C1595 N1598 1.384 . S
C1596 H1587 0.929 . S
C1596 C1588 1.378 . S
C1596 C1591 1.350 . S
C1597 H1584 0.929 . S
C1597 C1589 1.433 . S
C1597 N1599 1.384 . S
N1598 C1594 1.427 . S
N1598 C1595 1.384 . S
N1599 C1591 1.427 . S
N1599 C1597 1.384 . S
C455 C12 1.545 . S
C459 C306 1.546 . S
C473 C320 1.552 . S
C477 C26 1.553 . S
C491 C40 1.546 . S
C495 C334 1.545 . S
C509 C292 1.550 . S
C513 C54 1.551 . S
C527 C68 1.548 . S
C531 C278 1.546 . S
C545 C82 1.553 . S
C549 C236 1.553 . S
C563 C250 1.550 . S
C567 C96 1.549 . S
C581 C110 1.545 . S
C585 C264 1.545 . S
C599 C124 1.553 . S
C603 C418 1.553 . S
C617 C138 1.552 . S
C621 C432 1.550 . S
C635 C446 1.552 . S
C639 C152 1.550 . S
C653 C404 1.552 . S
C657 C166 1.553 . S
C671 C180 1.550 . S
C675 C390 1.551 . S
C689 C348 1.545 . S
C693 C194 1.545 . S
C707 C208 1.545 . S
C711 C362 1.545 . S
C725 C376 1.545 . S
C729 C222 1.545 . S
C743 C4 0.974 . S
C747 C131 0.937 . S
C761 C18 0.970 . S
C765 C369 0.920 . S
C779 C159 0.919 . S
C783 C32 0.969 . S
C797 C46 0.972 . S
C801 C341 0.925 . S
C815 C60 0.974 . S
C819 C215 0.941 . S
C833 C397 0.921 . S
C837 C74 0.965 . S
C851 C187 0.938 . S
C855 C88 0.974 . S
C869 C425 0.940 . S
C873 C102 0.974 . S
C887 C116 0.966 . S
C891 C19 0.915 . S
C905 C257 0.929 . S
C909 C130 0.973 . S
C923 C47 0.917 . S
C927 C144 0.968 . S
C941 C158 0.965 . S
C945 C229 0.926 . S
C959 C103 0.925 . S
C963 C172 0.972 . S
C977 C285 0.945 . S
C981 C186 0.971 . S
C995 C75 0.938 . S
C999 C200 0.974 . S
C1013 C214 0.965 . S
C1017 C313 0.927 . S
C1031 C355 0.943 . S
C1035 C228 0.970 . S
C1049 C145 0.934 . S
C1053 C242 0.966 . S
C1067 C383 0.916 . S
C1071 C256 0.967 . S
C1085 C270 0.965 . S
C1089 C117 0.927 . S
C1103 C439 0.936 . S
C1107 C284 0.974 . S
C1121 C173 0.939 . S
C1125 C298 0.968 . S
C1139 C411 0.941 . S
C1143 C312 0.969 . S
C1157 C326 0.971 . S
C1161 C201 0.923 . S
C1175 C340 0.967 . S
C1179 C243 0.937 . S
C1193 C33 0.938 . S
C1197 C354 0.968 . S
C1211 C368 0.969 . S
C1215 C271 0.942 . S
C1229 C382 0.964 . S
C1233 C5 0.919 . S
C1247 C396 0.965 . S
C1251 C327 0.916 . S
C1265 C61 0.942 . S
C1269 C410 0.969 . S
C1283 C299 0.917 . S
C1287 C424 0.968 . S
C1301 C438 0.974 . S
C1305 C89 0.936 . S
C1319 C11 1.156 . S
C1323 C67 1.148 . S
C1337 C25 1.147 . S
C1341 C81 1.155 . S
C1355 C95 1.156 . S
C1359 C39 1.148 . S
C1373 C109 1.147 . S
C1377 C53 1.153 . S
C1391 C179 1.148 . S
C1395 C123 1.157 . S
C1409 C193 1.148 . S
C1413 C137 1.150 . S
C1427 C207 1.161 . S
C1431 C151 1.158 . S
C1445 C221 1.147 . S
C1449 C165 1.154 . S
C1463 C235 1.155 . S
C1467 C291 1.162 . S
C1481 C249 1.148 . S
C1485 C305 1.151 . S
C1499 C263 1.156 . S
C1503 C319 1.162 . S
C1517 C333 1.152 . S
C1521 C277 1.161 . S
C1535 C347 1.147 . S
C1539 C403 1.154 . S
C1553 C417 1.157 . S
C1557 C361 1.148 . S
C1571 C431 1.161 . S
C1575 C375 1.154 . S
C1589 C445 1.155 . S
C1593 C389 1.162 . S
