# Generated by pormake.
# Topology smm, (6)-cn, num edge types: 1
# Building blocks:
#     Node 0, Type 0, BuildingBlock: KUMBOL_clean_sbu_1, # of connection points: 6
#     Node 1, Type 0, BuildingBlock: KUMBOL_clean_sbu_1, # of connection points: 6
#     Node 2, Type 0, BuildingBlock: KUMBOL_clean_sbu_1, # of connection points: 6
#     Node 3, Type 0, BuildingBlock: KUMBOL_clean_sbu_1, # of connection points: 6
#     Node 4, Type 0, BuildingBlock: KUMBOL_clean_sbu_1, # of connection points: 6
#     Node 5, Type 0, BuildingBlock: KUMBOL_clean_sbu_1, # of connection points: 6
#     Node 6, Type 0, BuildingBlock: KUMBOL_clean_sbu_1, # of connection points: 6
#     Node 7, Type 0, BuildingBlock: KUMBOL_clean_sbu_1, # of connection points: 6
#     Node 8, Type 0, BuildingBlock: KUMBOL_clean_sbu_1, # of connection points: 6
#     Edge 9, Type (0, 0), BuildingBlock: XIVTED_clean_linker_0, # of connection points: 2
#     Edge 10, Type (0, 0), BuildingBlock: XIVTED_clean_linker_0, # of connection points: 2
#     Edge 11, Type (0, 0), BuildingBlock: XIVTED_clean_linker_0, # of connection points: 2
#     Edge 12, Type (0, 0), BuildingBlock: XIVTED_clean_linker_0, # of connection points: 2
#     Edge 13, Type (0, 0), BuildingBlock: XIVTED_clean_linker_0, # of connection points: 2
#     Edge 14, Type (0, 0), BuildingBlock: XIVTED_clean_linker_0, # of connection points: 2
#     Edge 15, Type (0, 0), BuildingBlock: XIVTED_clean_linker_0, # of connection points: 2
#     Edge 16, Type (0, 0), BuildingBlock: XIVTED_clean_linker_0, # of connection points: 2
#     Edge 17, Type (0, 0), BuildingBlock: XIVTED_clean_linker_0, # of connection points: 2
#     Edge 18, Type (0, 0), BuildingBlock: XIVTED_clean_linker_0, # of connection points: 2
#     Edge 19, Type (0, 0), BuildingBlock: XIVTED_clean_linker_0, # of connection points: 2
#     Edge 20, Type (0, 0), BuildingBlock: XIVTED_clean_linker_0, # of connection points: 2
#     Edge 21, Type (0, 0), BuildingBlock: XIVTED_clean_linker_0, # of connection points: 2
#     Edge 22, Type (0, 0), BuildingBlock: XIVTED_clean_linker_0, # of connection points: 2
#     Edge 23, Type (0, 0), BuildingBlock: XIVTED_clean_linker_0, # of connection points: 2
#     Edge 24, Type (0, 0), BuildingBlock: XIVTED_clean_linker_0, # of connection points: 2
#     Edge 25, Type (0, 0), BuildingBlock: XIVTED_clean_linker_0, # of connection points: 2
#     Edge 26, Type (0, 0), BuildingBlock: XIVTED_clean_linker_0, # of connection points: 2
#     Edge 27, Type (0, 0), BuildingBlock: XIVTED_clean_linker_0, # of connection points: 2
#     Edge 28, Type (0, 0), BuildingBlock: XIVTED_clean_linker_0, # of connection points: 2
#     Edge 29, Type (0, 0), BuildingBlock: XIVTED_clean_linker_0, # of connection points: 2
#     Edge 30, Type (0, 0), BuildingBlock: XIVTED_clean_linker_0, # of connection points: 2
#     Edge 31, Type (0, 0), BuildingBlock: XIVTED_clean_linker_0, # of connection points: 2
#     Edge 32, Type (0, 0), BuildingBlock: XIVTED_clean_linker_0, # of connection points: 2
#     Edge 33, Type (0, 0), BuildingBlock: XIVTED_clean_linker_0, # of connection points: 2
#     Edge 34, Type (0, 0), BuildingBlock: XIVTED_clean_linker_0, # of connection points: 2
#     Edge 35, Type (0, 0), BuildingBlock: XIVTED_clean_linker_0, # of connection points: 2
# Relax obj value: 0.108
# Max RMSD: 0.221
# Mean RMSD: 0.174
data_MOF--net-smm--node1-KUMBOL_clean_sbu_1--edge1-XIVTED_clean_linker_0
_symmetry_space_group_name_H-M    P1
_symmetry_Int_Tables_number       1
_symmetry_cell_setting            triclinic
loop_
_symmetry_equiv_pos_as_xyz
'x, y, z'
_cell_length_a     59.447802
_cell_length_b     75.077249
_cell_length_c     15.08892
_cell_angle_alpha  96.540881
_cell_angle_beta   96.837525
_cell_angle_gamma 122.03022
loop_
_atom_site_label
_atom_site_type_symbol
_atom_site_fract_x
_atom_site_fract_y
_atom_site_fract_z
_atom_type_partial_charge
C0 C 0.15902 0.24046 0.28422 0.0
C1 C 0.1851 0.24197 0.16986 0.0
C2 C 0.16231 0.24086 0.19449 0.0
C3 C 0.20398 0.24203 0.23558 0.0
C4 C 0.17828 0.24101 0.35082 0.0
C5 C 0.20059 0.24156 0.32575 0.0
N6 N 0.13684 0.23933 0.30614 0.0
C7 C 0.13412 0.24085 0.3947 0.0
C8 C 0.17462 0.24113 0.44081 0.0
C9 C 0.15263 0.24135 0.46305 0.0
Gd10 Gd 0.03549 0.17953 0.10931 0.0
Gd11 Gd 0.10632 0.23747 0.18592 0.0
N12 N 0.14355 0.24058 0.1319 0.0
C13 C 0.18851 0.24334 0.0802 0.0
C14 C 0.14781 0.24333 0.04602 0.0
C15 C 0.17 0.24434 0.01847 0.0
H16 H 0.13471 0.24536 -0.00144 0.0
H17 H 0.17299 0.24619 0.94991 0.0
H18 H 1.01408 0.18036 0.30286 0.0
H19 H 0.11805 0.24215 0.41346 0.0
H20 H 0.97454 0.17759 0.35347 0.0
H21 H 0.20577 0.24424 0.05868 0.0
H22 H 0.2215 0.24273 0.2176 0.0
H23 H 1.01646 0.16116 0.88031 0.0
H24 H 0.18897 0.24155 0.49392 0.0
H25 H 0.15008 0.24215 0.53294 0.0
H26 H 0.91324 0.16164 0.07382 0.0
H27 H 0.21551 0.24185 0.37584 0.0
H28 H 0.93836 0.15041 0.79272 0.0
H29 H 0.97813 0.15084 0.75656 0.0
N30 N 0.9996 0.16822 0.98548 0.0
C31 C 0.97749 0.16719 0.00707 0.0
C32 C 0.99955 0.16163 0.897 0.0
C33 C 0.95539 0.15538 0.84733 0.0
C34 C 0.97777 0.15557 0.8266 0.0
C35 C 0.9548 0.1608 0.93855 0.0
H36 H 0.91434 0.15453 0.91163 0.0
N37 N 0.99831 0.17597 0.16261 0.0
C38 C 0.97674 0.17104 0.09842 0.0
C39 C 0.95298 0.17166 0.21677 0.0
C40 C 0.95348 0.16882 0.12378 0.0
C41 C 0.99742 0.1776 0.25296 0.0
C42 C 0.97496 0.17586 0.2816 0.0
O43 O 0.10736 0.20797 0.20014 0.0
O44 O 0.07466 0.18615 0.07516 0.0
O45 O 1.02355 0.15298 0.17891 0.0
O46 O 1.02446 0.14881 0.03533 0.0
O47 O 0.0919 0.22675 0.03241 0.0
O48 O 0.04883 0.19485 0.99008 0.0
O49 O 1.03209 0.20764 0.15924 0.0
O50 O 0.06843 0.23501 0.11528 0.0
O51 O 0.1321 0.2693 0.1591 0.0
O52 O 0.11589 0.26527 0.28399 0.0
O53 O 0.06096 0.19059 0.25174 0.0
O54 O 0.07817 0.22651 0.28353 0.0
C55 C 0.09501 0.19029 0.1372 0.0
C56 C 0.07023 0.21134 0.97156 0.0
C57 C 0.99406 0.1184 0.08542 0.0
C58 C 0.97359 0.0801 0.0697 0.0
C59 C 0.94581 0.09372 0.02469 0.0
C60 C 0.96871 0.1147 0.05028 0.0
C61 C 0.94819 0.07645 0.03392 0.0
C62 C 0.99645 0.10121 0.0955 0.0
C63 C 1.01881 0.13974 0.10483 0.0
C64 C 0.93127 0.16332 0.05573 0.0
C65 C 0.93192 0.1593 0.96334 0.0
H66 H 0.93548 0.17013 0.23903 0.0
C67 C 0.04489 0.22688 0.13977 0.0
C68 C 0.06816 0.20811 0.30877 0.0
C69 C 0.14408 0.3017 0.26213 0.0
C70 C 0.16871 0.33708 0.22537 0.0
C71 C 0.15631 0.33308 0.37298 0.0
C72 C 0.14412 0.31094 0.34838 0.0
C73 C 0.16855 0.34613 0.31194 0.0
C74 C 0.15635 0.3148 0.2009 0.0
C75 C 0.13038 0.27839 0.23444 0.0
H76 H 0.92624 0.0908 -0.00318 0.0
H77 H 0.9667 0.1279 0.04145 0.0
H78 H 0.93024 0.06027 0.01223 0.0
H79 H 1.0162 0.10437 0.12349 0.0
H80 H 0.15634 0.34016 0.43964 0.0
H81 H 0.13464 0.30108 0.39662 0.0
H82 H 0.17826 0.36332 0.33306 0.0
H83 H 0.15587 0.30763 0.13353 0.0
C84 C 0.98247 0.81425 -0.00067 0.0
C85 C 1.01466 0.82336 0.13965 0.0
C86 C 0.98952 0.81891 0.0947 0.0
C87 C 1.03266 0.8231 0.08801 0.0
C88 C 1.00055 0.81399 0.94758 0.0
C89 C 1.02565 0.81847 0.9924 0.0
N90 N 0.958 0.80994 0.95736 0.0
C91 C 0.94989 0.80429 0.86454 0.0
C92 C 0.99282 0.8091 0.85217 0.0
C93 C 0.96733 0.80412 0.81053 0.0
Gd94 Gd 0.92579 0.86129 0.10252 0.0
Gd95 Gd 0.93046 0.80961 0.05607 0.0
N96 N 0.97214 0.81982 0.14339 0.0
C97 C 1.02098 0.82792 0.2353 0.0
C98 C 0.97751 0.82307 0.23632 0.0
C99 C 1.00221 0.82758 0.28376 0.0
H100 H 0.96263 0.8216 0.2742 0.0
H101 H 1.00655 0.83044 0.35758 0.0
H102 H 0.90692 0.86636 0.89051 0.0
H103 H 0.9297 0.79919 0.83189 0.0
H104 H 0.8689 0.86598 0.80398 0.0
H105 H 0.04009 0.83137 0.27233 0.0
H106 H 0.05208 0.82648 0.1214 0.0
H107 H 0.91747 0.86244 0.31579 0.0
H108 H 1.00619 0.80877 0.81007 0.0
H109 H 0.96091 0.7998 0.73687 0.0
H110 H 0.81205 0.85778 0.01744 0.0
H111 H 0.03979 0.81833 0.95367 0.0
H112 H 0.84166 0.85537 0.32294 0.0
H113 H 0.88316 0.85885 0.4023 0.0
N114 N 0.89388 0.85748 0.1878 0.0
C115 C 0.87254 0.85744 0.14423 0.0
C116 C 0.89856 0.85915 0.27989 0.0
C117 C 0.85629 0.85611 0.2844 0.0
C118 C 0.87954 0.85789 0.32935 0.0
C119 C 0.85286 0.85637 0.19113 0.0
H120 H 0.81546 0.85525 0.17903 0.0
N121 N 0.89065 0.86074 0.01047 0.0
C122 C 0.87086 0.8591 0.0531 0.0
C123 C 0.84829 0.86163 0.91565 0.0
C124 C 0.84912 0.85944 0.00664 0.0
C125 C 0.89047 0.86369 0.92279 0.0
C126 C 0.86912 0.86387 0.87378 0.0
O127 O 0.97163 0.84457 0.08779 0.0
O128 O 0.96117 0.86786 0.03929 0.0
O129 O 0.93439 0.89296 0.09546 0.0
O130 O 0.95241 0.88796 0.21617 0.0
O131 O 0.91801 0.81608 0.18436 0.0
O132 O 0.94482 0.85251 0.21348 0.0
O133 O 0.88769 0.82884 0.10042 0.0
O134 O 0.88799 0.80298 0.00272 0.0
O135 O 0.91664 0.78312 0.12929 0.0
O136 O 0.91897 0.77757 0.98976 0.0
O137 O 0.93061 0.85229 0.95993 0.0
O138 O 0.91291 0.81555 0.92975 0.0
C139 C 0.97928 0.86337 0.06381 0.0
C140 C 0.93074 0.83458 0.24182 0.0
C141 C 0.97533 0.92314 0.18655 0.0
C142 C 0.99551 0.96067 0.17823 0.0
C143 C 1.02358 0.94902 0.24475 0.0
C144 C 1.00083 0.92806 0.22926 0.0
C145 C 1.02099 0.9653 0.21995 0.0
C146 C 0.97284 0.93943 0.16061 0.0
C147 C 0.95059 0.90173 0.17575 0.0
C148 C 0.829 0.8577 0.05234 0.0
C149 C 0.83088 0.8562 0.14431 0.0
H150 H 0.83186 0.86188 0.87753 0.0
C151 C 0.87495 0.81115 0.03662 0.0
C152 C 0.92103 0.83383 0.90322 0.0
C153 C 0.88819 0.74656 0.04486 0.0
C154 C 0.86418 0.70787 0.05471 0.0
C155 C 0.83988 0.72212 0.9814 0.0
C156 C 0.86352 0.74264 -0.00015 0.0
C157 C 0.84017 0.70505 0.00832 0.0
C158 C 0.88859 0.72895 0.07207 0.0
C159 C 0.91306 0.76898 0.06083 0.0
H160 H 0.04321 0.95275 0.27767 0.0
H161 H 1.00321 0.91577 0.25091 0.0
H162 H 0.03879 0.98158 0.23571 0.0
H163 H 0.95305 0.93555 0.12797 0.0
H164 H 0.82105 0.71939 0.94594 0.0
H165 H 0.86255 0.75555 0.97831 0.0
H166 H 0.82127 0.68938 0.99245 0.0
H167 H 0.90747 0.73171 0.10742 0.0
C168 C 0.20445 0.95457 0.08001 0.0
C169 C 0.17948 0.92916 0.93435 0.0
C170 C 0.19717 0.95045 0.98464 0.0
C171 C 0.16917 0.91213 0.98049 0.0
C172 C 0.19389 0.93744 0.12616 0.0
C173 C 0.17623 0.91626 0.07595 0.0
N174 N 0.22156 0.97526 0.12745 0.0
C175 C 0.23024 0.97976 0.21978 0.0
C176 C 0.20151 0.94209 0.22158 0.0
C177 C 0.21992 0.96333 0.2685 0.0
Gd178 Gd 0.2132 0.04059 0.03011 0.0
Gd179 Gd 0.23855 1.00064 0.0362 0.0
N180 N 0.206 0.96731 0.9418 0.0
C181 C 0.17201 0.92566 0.8393 0.0
C182 C 0.19955 0.96396 0.84897 0.0
C183 C 0.1822 0.94313 0.79648 0.0
H184 H 0.20834 0.97712 0.81453 0.0
H185 H 0.17699 0.94055 0.72289 0.0
H186 H 0.24437 0.0642 0.25417 0.0
H187 H 0.24597 0.99581 0.25559 0.0
H188 H 0.28117 0.0998 0.34242 0.0
H189 H 0.15844 0.90954 0.79833 0.0
H190 H 0.15542 0.89568 0.94298 0.0
H191 H 0.20729 0.04539 0.81253 0.0
H192 H 0.19373 0.92935 0.25949 0.0
H193 H 0.22664 0.967 0.34194 0.0
H194 H 0.30839 0.14379 0.11975 0.0
H195 H 0.16791 0.90291 0.11039 0.0
H196 H 0.26485 0.11083 0.80535 0.0
H197 H 0.22892 0.07365 0.72445 0.0
N198 N 0.23273 0.06567 0.9396 0.0
C199 C 0.25162 0.08611 0.98633 0.0
C200 C 0.2242 0.06114 0.8473 0.0
C201 C 0.25587 0.0983 0.8439 0.0
C202 C 0.23583 0.07731 0.7978 0.0
C203 C 0.26396 0.10295 0.93922 0.0
H204 H 0.29402 0.13686 0.95316 0.0
N205 N 0.2479 0.07336 0.1255 0.0
C206 C 0.25965 0.09002 0.0814 0.0
C207 C 0.28834 0.11427 0.22483 0.0
C208 C 0.28033 0.11087 0.13016 0.0
C209 C 0.25491 0.0768 0.21819 0.0
C210 C 0.27549 0.0972 0.26898 0.0
O211 O 0.19203 0.98387 0.02306 0.0
O212 O 0.17896 1.00779 0.05035 0.0
O213 O 0.19745 0.05836 0.09341 0.0
O214 O 0.17844 0.03917 0.95672 0.0
O215 O 0.24017 1.01497 0.9125 0.0
O216 O 0.20289 1.01714 0.89947 0.0
O217 O 0.25719 0.05328 0.00845 0.0
O218 O 0.27335 0.0361 0.08511 0.0
O219 O 0.25914 0.99223 0.9476 0.0
O220 O 0.26668 0.99253 0.09163 0.0
O221 O 0.21286 0.028 0.15893 0.0
O222 O 0.24757 0.02231 0.17062 0.0
C223 C 0.17346 0.98798 0.03733 0.0
C224 C 0.22142 1.01615 0.86359 0.0
C225 C 0.17645 0.07015 0.99097 0.0
C226 C 0.16442 0.09683 0.0146 0.0
C227 C 0.17618 0.08956 0.8724 0.0
C228 C 0.17955 0.07416 0.90297 0.0
C229 C 0.16868 0.1008 0.92761 0.0
C230 C 0.1686 0.08157 0.04701 0.0
C231 C 0.17928 0.05296 0.02039 0.0
C232 C 0.29249 0.12766 0.08319 0.0
C233 C 0.28428 0.12373 0.98823 0.0
H234 H 0.30422 0.13007 0.26462 0.0
C235 C 0.27782 0.0527 0.0493 0.0
C236 C 0.22975 0.02451 0.20585 0.0
C237 C 0.29981 0.99585 0.01 0.0
C238 C 0.33182 0.98776 0.96376 0.0
C239 C 0.34751 0.02413 0.03669 0.0
C240 C 0.32102 1.01736 0.04307 0.0
C241 C 0.3529 1.00945 -0.00334 0.0
C242 C 0.30523 0.98097 0.97116 0.0
C243 C 0.2718 0.98873 0.01268 0.0
H244 H 0.17872 0.09241 0.80448 0.0
H245 H 0.18376 0.06496 0.85594 0.0
H246 H 0.16547 0.1123 0.90128 0.0
H247 H 0.1651 0.07824 0.11382 0.0
H248 H 0.36387 0.04079 0.0625 0.0
H249 H 0.31693 0.0288 0.07318 0.0
H250 H 0.37359 1.01497 0.99235 0.0
H251 H 0.28878 0.96427 0.9454 0.0
C252 C 0.68708 0.47584 0.03164 0.0
C253 C 0.66811 0.45773 0.15283 0.0
C254 C 0.68911 0.47516 0.12412 0.0
C255 C 0.64532 0.44101 0.08782 0.0
C256 C 0.66409 0.45922 0.96643 0.0
C257 C 0.64328 0.44179 0.99503 0.0
N258 N 0.70806 0.49239 0.00522 0.0
C259 C 0.70662 0.49416 0.91604 0.0
C260 C 0.66286 0.4605 0.87422 0.0
C261 C 0.68414 0.47814 0.84906 0.0
Gd262 Gd 0.80981 0.51482 0.14404 0.0
Gd263 Gd 0.74438 0.51826 0.12264 0.0
N264 N 0.71162 0.49141 0.18568 0.0
C265 C 0.67056 0.45766 0.2462 0.0
C266 C 0.7132 0.49213 0.277 0.0
C267 C 0.69304 0.47508 0.30861 0.0
H268 H 0.7294 0.50603 0.32596 0.0
H269 H 0.69463 0.47555 0.38117 0.0
H270 H 0.83257 0.5298 0.95863 0.0
H271 H 0.72256 0.50802 0.89627 0.0
H272 H 0.87241 0.56056 0.91912 0.0
H273 H 0.65489 0.44451 0.27096 0.0
H274 H 0.62907 0.42743 0.10869 0.0
H275 H 0.82712 0.51934 0.37253 0.0
H276 H 0.64551 0.44804 0.82207 0.0
H277 H 0.68317 0.47946 0.7782 0.0
H278 H 0.92759 0.60683 0.21027 0.0
H279 H 0.62553 0.42878 0.94584 0.0
H280 H 0.89922 0.58153 0.47953 0.0
H281 H 0.8614 0.54714 0.50408 0.0
N282 N 0.84226 0.53908 0.27562 0.0
C283 C 0.86406 0.55707 0.25975 0.0
C284 C 0.84208 0.53487 0.36136 0.0
C285 C 0.88345 0.56969 0.42174 0.0
C286 C 0.86209 0.55036 0.43598 0.0
C287 C 0.88511 0.57295 0.33257 0.0
H288 H 0.92394 0.60354 0.36912 0.0
N289 N 0.84604 0.54319 0.10087 0.0
C290 C 0.86634 0.55893 0.16995 0.0
C291 C 0.89132 0.57735 0.05948 0.0
C292 C 0.88936 0.57668 0.15092 0.0
C293 C 0.84832 0.54309 0.01198 0.0
C294 C 0.87083 0.56037 0.98977 0.0
O295 O 0.73913 0.48595 0.07155 0.0
O296 O 0.77139 0.48627 0.17141 0.0
O297 O 0.81286 0.49118 0.05697 0.0
O298 O 0.83961 0.50753 0.18854 0.0
O299 O 0.76987 0.52849 0.26478 0.0
O300 O 0.78757 0.50761 0.25957 0.0
O301 O 0.81441 0.54623 0.11331 0.0
O302 O 0.78534 0.54802 0.19248 0.0
O303 O 0.72104 0.52924 0.1822 0.0
O304 O 0.73459 0.53814 0.05554 0.0
O305 O 0.78373 0.50468 0.00305 0.0
O306 O 0.76615 0.52581 0.00642 0.0
C307 C 0.74688 0.47574 0.11901 0.0
C308 C 0.7799 0.51878 0.30471 0.0
C309 C 0.82605 0.4719 0.13911 0.0
C310 C 0.83758 0.44516 0.14501 0.0
C311 C 0.79926 0.44095 0.20488 0.0
C312 C 0.80453 0.46005 0.18192 0.0
C313 C 0.81555 0.43347 0.18616 0.0
C314 C 0.84297 0.46457 0.12173 0.0
C315 C 0.83137 0.49236 0.11783 0.0
C316 C 0.90979 0.59294 0.22344 0.0
C317 C 0.90766 0.5911 0.31396 0.0
H318 H 0.90875 0.59074 0.04207 0.0
C319 C 0.80561 0.55752 0.15125 0.0
C320 C 0.77503 0.51529 0.96323 0.0
C321 C 0.70878 0.55157 0.11368 0.0
C322 C 0.69514 0.5738 0.18969 0.0
C323 C 0.6883 0.56615 0.02399 0.0
C324 C 0.69972 0.5541 0.02885 0.0
C325 C 0.68611 0.57601 0.10363 0.0
C326 C 0.70616 0.5612 0.19412 0.0
C327 C 0.72173 0.53949 0.11749 0.0
H328 H 0.78257 0.43196 0.23788 0.0
H329 H 0.79198 0.46573 0.19879 0.0
H330 H 0.81119 0.41864 0.20514 0.0
H331 H 0.86002 0.4738 0.09041 0.0
H332 H 0.68125 0.56796 0.95821 0.0
H333 H 0.70145 0.54673 0.96621 0.0
H334 H 0.67715 0.58529 0.09779 0.0
H335 H 0.71353 0.55954 0.2599 0.0
C336 C 0.58401 0.16605 0.98706 0.0
C337 C 0.61527 0.17203 0.1243 0.0
C338 C 0.59038 0.1684 0.08146 0.0
C339 C 0.63396 0.17371 0.07153 0.0
C340 C 0.60241 0.16694 0.93379 0.0
C341 C 0.62757 0.1712 0.97666 0.0
N342 N 0.5595 0.162 0.94706 0.0
C343 C 0.55088 0.1558 0.85428 0.0
C344 C 0.59467 0.16287 0.83868 0.0
C345 C 0.56857 0.15683 0.79874 0.0
Gd346 Gd 0.53638 0.21723 0.07285 0.0
Gd347 Gd 0.53195 0.1608 0.04904 0.0
N348 N 0.57242 0.16754 0.1317 0.0
C349 C 0.6207 0.17399 0.21914 0.0
C350 C 0.57704 0.16859 0.22363 0.0
C351 C 0.60141 0.1721 0.26887 0.0
H352 H 0.56206 0.16712 0.2618 0.0
H353 H 0.60533 0.17338 0.34198 0.0
H354 H 0.50407 0.207 0.85606 0.0
H355 H 0.53013 0.14938 0.82234 0.0
H356 H 0.46433 0.20566 0.7773 0.0
H357 H 0.63964 0.17685 0.25451 0.0
H358 H 0.65333 0.17675 0.10337 0.0
H359 H 0.54422 0.23454 0.29684 0.0
H360 H 0.60822 0.16339 0.79544 0.0
H361 H 0.56182 0.15247 0.72518 0.0
H362 H 0.43162 0.22588 0.01981 0.0
H363 H 0.64203 0.17216 0.93678 0.0
H364 H 0.47962 0.24287 0.32749 0.0
H365 H 0.52056 0.24418 0.39566 0.0
N366 N 0.51569 0.22616 0.17451 0.0
C367 C 0.49384 0.22607 0.13495 0.0
C368 C 0.52576 0.23305 0.26647 0.0
C369 C 0.48962 0.23819 0.28379 0.0
C370 C 0.51267 0.23888 0.32263 0.0
C371 C 0.48009 0.23194 0.18888 0.0
H372 H 0.44673 0.23616 0.18699 0.0
N373 N 0.49933 0.21521 0.98903 0.0
C374 C 0.48549 0.22051 0.03987 0.0
C375 C 0.45515 0.21472 0.90198 0.0
C376 C 0.46294 0.22034 -0.00255 0.0
C377 C 0.49232 0.21023 0.89605 0.0
C378 C 0.46997 0.20972 0.85113 0.0
O379 O 0.56995 0.19308 0.11745 0.0
O380 O 0.56917 0.21437 0.02525 0.0
O381 O 0.55042 0.24618 0.01777 0.0
O382 O 0.57066 0.24872 0.1513 0.0
O383 O 0.52035 0.1707 0.17286 0.0
O384 O 0.54721 0.20793 0.20203 0.0
O385 O 0.49224 0.18688 0.06437 0.0
O386 O 0.4902 0.15476 0.02856 0.0
O387 O 0.51881 0.13493 0.12436 0.0
O388 O 0.51642 0.12851 0.97719 0.0
O389 O 0.54014 0.20374 0.93904 0.0
O390 O 0.51512 0.16669 0.91961 0.0
C391 C 0.58266 0.20842 0.07383 0.0
C392 C 0.53227 0.18959 0.22792 0.0
C393 C 0.57675 0.28127 0.11444 0.0
C394 C 0.6059 0.3206 0.12357 0.0
C395 C 0.56296 0.30466 0.17335 0.0
C396 C 0.55806 0.28418 0.15081 0.0
C397 C 0.5865 0.32261 0.15972 0.0
C398 C 0.60097 0.29968 0.10092 0.0
C399 C 0.57038 0.25902 0.08736 0.0
C400 C 0.44899 0.22589 0.05129 0.0
C401 C 0.45757 0.23172 0.14658 0.0
H402 H 0.43791 0.2144 0.86686 0.0
C403 C 0.47857 0.16532 0.04476 0.0
C404 C 0.52639 0.18439 0.88704 0.0
C405 C 0.50223 0.09822 0.05097 0.0
C406 C 0.49378 0.06944 0.13134 0.0
C407 C 0.48285 0.06214 0.96516 0.0
C408 C 0.49208 0.08356 0.96726 0.0
C409 C 0.4837 0.05509 0.04633 0.0
C410 C 0.50311 0.09113 0.13306 0.0
C411 C 0.51309 0.121 0.05145 0.0
H412 H 0.54828 0.30664 0.20124 0.0
H413 H 0.53948 0.27056 0.16121 0.0
H414 H 0.58961 0.33828 0.17762 0.0
H415 H 0.61555 0.29772 0.07207 0.0
H416 H 0.47523 0.05097 0.90025 0.0
H417 H 0.49143 0.08866 0.90319 0.0
H418 H 0.47687 0.03843 0.04234 0.0
H419 H 0.51105 0.10242 0.19787 0.0
C420 C 0.9864 0.40559 0.14311 0.0
C421 C 0.98747 0.42818 0.27484 0.0
C422 C 0.98461 0.40907 0.2339 0.0
C423 C 0.99091 0.44336 0.22217 0.0
C424 C 0.99071 0.42115 0.09101 0.0
C425 C 0.99236 0.43979 0.13041 0.0
N426 N 0.9856 0.38771 0.10762 0.0
C427 C 0.99179 0.38567 0.02426 0.0
C428 C 0.99429 0.41793 0.00192 0.0
C429 C 0.99526 0.40027 0.96896 0.0
Gd430 Gd 0.90291 0.31226 0.14635 0.0
Gd431 Gd 0.97902 0.36432 0.20743 0.0
N432 N 0.98036 0.39382 0.28266 0.0
C433 C 0.98706 0.43154 0.36781 0.0
C434 C 0.98124 0.39737 0.37417 0.0
C435 C 0.98421 0.41616 0.41789 0.0
H436 H 0.97951 0.38559 0.41288 0.0
H437 H 0.98442 0.4188 0.49009 0.0
H438 H 0.90354 0.29325 0.9327 0.0
H439 H 0.99499 0.37324 0.00088 0.0
H440 H 0.90161 0.26198 0.85181 0.0
H441 H 0.98929 0.44607 0.40181 0.0
H442 H 0.99286 0.45805 0.25211 0.0
H443 H 0.88916 0.30208 0.35037 0.0
H444 H 0.99755 0.42947 0.95961 0.0
H445 H 0.99943 0.39821 0.90198 0.0
H446 H 0.88725 0.2178 0.07269 0.0
H447 H 0.99555 0.45186 0.0912 0.0
H448 H 0.87992 0.24227 0.36897 0.0
H449 H 0.88148 0.27447 0.43892 0.0
N450 N 0.89454 0.28677 0.23509 0.0
C451 C 0.89229 0.26871 0.19331 0.0
C452 C 0.88977 0.28863 0.32073 0.0
C453 C 0.88383 0.25458 0.33043 0.0
C454 C 0.88483 0.27277 0.37037 0.0
C455 C 0.88722 0.25223 0.24045 0.0
H456 H 0.88186 0.22117 0.23165 0.0
N457 N 0.89969 0.28286 0.05872 0.0
C458 C 0.89497 0.26671 0.10273 0.0
C459 C 0.89597 0.2468 0.96744 0.0
C460 C 0.89315 0.24831 0.05829 0.0
C461 C 0.90143 0.28112 0.96921 0.0
C462 C 0.89993 0.26321 0.92258 0.0
O463 O 0.94353 0.36733 0.2231 0.0
O464 O 0.91085 0.34242 0.10212 0.0
O465 O 0.86337 0.29278 0.05478 0.0
O466 O 0.86721 0.30851 0.19005 0.0
O467 O 0.9634 0.34493 0.31437 0.0
O468 O 0.91841 0.33349 0.28726 0.0
O469 O 0.93791 0.30802 0.19352 0.0
O470 O 0.97526 0.33375 0.14589 0.0
O471 O 1.01002 0.37161 0.32404 0.0
O472 O 1.02147 0.38655 0.20814 0.0
O473 O 0.91861 0.32772 0.02872 0.0
O474 O 0.96531 0.3441 0.0641 0.0
C475 C 0.92278 0.3611 0.15747 0.0
C476 C 0.94114 0.33961 0.34329 0.0
C477 C 0.82489 0.27629 0.12001 0.0
C478 C 0.77623 0.25729 0.11589 0.0
C479 C 0.79976 0.23927 0.13763 0.0
C480 C 0.82401 0.25773 0.13243 0.0
C481 C 0.77603 0.23904 0.1298 0.0
C482 C 0.80078 0.27601 0.11078 0.0
C483 C 0.85063 0.29563 0.1136 0.0
C484 C 0.88861 0.23203 0.10571 0.0
C485 C 0.88557 0.23396 0.19634 0.0
H486 H 0.89477 0.23293 0.93099 0.0
C487 C 0.96112 0.31478 0.16718 0.0
C488 C 0.9422 0.33563 0.00499 0.0
C489 C 0.05559 0.38738 0.30873 0.0
C490 C 0.103 0.40927 0.38643 0.0
C491 C 0.08598 0.37669 0.27401 0.0
C492 C 0.06002 0.37293 0.25967 0.0
C493 C 0.10748 0.39491 0.33635 0.0
C494 C 0.07694 0.40531 0.37301 0.0
C495 C 1.0297 0.38542 0.28976 0.0
H496 H 0.79935 0.22505 0.14751 0.0
H497 H 0.84195 0.25736 0.13702 0.0
H498 H 0.75737 0.22453 0.13416 0.0
H499 H 0.80115 0.29021 0.10048 0.0
H500 H 0.08956 0.36568 0.23564 0.0
H501 H 0.04362 0.35909 0.20949 0.0
H502 H 0.12762 0.39786 0.34533 0.0
H503 H 0.07354 0.41669 0.40972 0.0
C504 C 0.5321 0.93317 0.89108 0.0
C505 C 0.55779 0.9321 0.77936 0.0
C506 C 0.53417 0.92995 0.8008 0.0
C507 C 0.57907 0.93702 0.85015 0.0
C508 C 0.55369 0.93864 0.96241 0.0
C509 C 0.57702 0.94027 0.94142 0.0
N510 N 0.50948 0.93181 0.90912 0.0
C511 C 0.50773 0.93689 -0.00328 0.0
C512 C 0.55143 0.94279 0.05268 0.0
C513 C 0.52845 0.94211 0.06984 0.0
Gd514 Gd 0.40553 0.86565 0.70057 0.0
Gd515 Gd 0.4758 0.92227 0.78141 0.0
N516 N 0.51315 0.92495 0.73377 0.0
C517 C 0.55935 0.92936 0.68737 0.0
C518 C 0.51508 0.92339 0.64442 0.0
C519 C 0.53799 0.92519 0.61966 0.0
H520 H 0.49913 0.92093 0.59217 0.0
H521 H 0.53926 0.92358 0.54854 0.0
H522 H 0.38474 0.85663 0.9016 0.0
H523 H 0.49072 0.93746 0.01046 0.0
H524 H 0.35138 0.85799 0.97769 0.0
H525 H 0.57714 0.93083 0.66804 0.0
H526 H 0.59734 0.93861 0.83505 0.0
H527 H 0.39236 0.87144 0.48885 0.0
H528 H 0.5676 0.94706 0.10941 0.0
H529 H 0.52685 0.94591 0.13926 0.0
H530 H 0.29938 0.86942 0.75091 0.0
H531 H 0.59378 0.94438 0.99531 0.0
H532 H 0.3229 0.87548 0.45785 0.0
H533 H 0.35903 0.87511 0.39308 0.0
N534 N 0.3763 0.87103 0.6075 0.0
C535 C 0.35574 0.86989 0.64301 0.0
C536 C 0.37721 0.87224 0.51829 0.0
C537 C 0.33766 0.87406 0.50031 0.0
C538 C 0.35811 0.874 0.46361 0.0
C539 C 0.33623 0.87192 0.59089 0.0
H540 H 0.30086 0.87339 0.59178 0.0
N541 N 0.37341 0.8647 0.78045 0.0
C542 C 0.35467 0.86719 0.73256 0.0
C543 C 0.33364 0.86424 0.86235 0.0
C544 C 0.33431 0.86704 0.77241 0.0
C545 C 0.37172 0.86061 0.86616 0.0
C546 C 0.35228 0.86083 0.90908 0.0
O547 O 0.47952 0.89355 0.74689 0.0
O548 O 0.44004 0.86379 0.76836 0.0
O549 O 0.37562 0.83216 0.70023 0.0
O550 O 0.39038 0.84155 0.57803 0.0
O551 O 0.45421 0.91095 0.63366 0.0
O552 O 0.43491 0.87474 0.60775 0.0
O553 O 0.41075 0.89766 0.69364 0.0
O554 O 0.43952 0.91875 0.82708 0.0
O555 O 0.47582 0.94527 0.70302 0.0
O556 O 0.501 0.95605 0.84128 0.0
O557 O 0.42543 0.87182 0.84883 0.0
O558 O 0.45273 0.90908 0.89184 0.0
C559 C 0.46601 0.87413 0.76537 0.0
C560 C 0.44577 0.89274 0.57909 0.0
C561 C 0.37761 0.80724 0.59389 0.0
C562 C 0.38614 0.78095 0.63694 0.0
C563 C 0.37604 0.78128 0.47713 0.0
C564 C 0.37358 0.79853 0.50152 0.0
C565 C 0.38237 0.77251 0.54462 0.0
C566 C 0.38382 0.79833 0.66185 0.0
C567 C 0.37552 0.82572 0.61604 0.0
C568 C 0.31514 0.86949 0.72125 0.0
C569 C 0.31597 0.87176 0.6306 0.0
H570 H 0.31843 0.86418 0.89557 0.0
C571 C 0.41722 0.9116 0.76802 0.0
C572 C 0.43982 0.88984 0.9115 0.0
C573 C 0.50266 0.98393 0.77161 0.0
C574 C 0.50883 1.01248 0.69303 0.0
C575 C 0.52111 1.01971 0.85896 0.0
C576 C 0.5131 0.99852 0.85572 0.0
C577 C 0.51899 0.02667 0.77851 0.0
C578 C 0.5004 0.99091 0.69017 0.0
C579 C 0.49273 0.9613 0.7711 0.0
H580 H 0.37274 0.77457 0.40585 0.0
H581 H 0.36857 0.80515 0.44816 0.0
H582 H 0.38346 0.75869 0.52483 0.0
H583 H 0.38658 0.80464 0.73342 0.0
H584 H 0.52881 0.03077 0.92423 0.0
H585 H 0.51462 0.99345 0.91938 0.0
H586 H 0.52499 0.04318 0.78345 0.0
H587 H 0.49239 0.97969 0.6251 0.0
C588 C 0.38721 0.54049 0.79435 0.0
C589 C 0.4131 0.54522 0.94231 0.0
C590 C 0.3897 0.54198 0.88822 0.0
C591 C 0.43411 0.54732 0.90114 0.0
C592 C 0.40816 0.54235 0.75273 0.0
C593 C 0.43166 0.5459 0.8067 0.0
N594 N 0.36443 0.53736 0.74382 0.0
C595 C 0.36077 0.53499 0.6511 0.0
C596 C 0.40491 0.54063 0.65806 0.0
C597 C 0.38103 0.5368 0.607 0.0
Gd598 Gd 0.31384 0.5782 0.86631 0.0
Gd599 Gd 0.33177 0.53406 0.82521 0.0
N600 N 0.36918 0.5401 0.92654 0.0
C601 C 0.41454 0.54597 0.03609 0.0
C602 C 0.36983 0.53965 0.01693 0.0
C603 C 0.39267 0.54295 0.07335 0.0
H604 H 0.35264 0.53624 0.04588 0.0
H605 H 0.39323 0.54284 0.14525 0.0
H606 H 0.30175 0.58681 0.65259 0.0
H607 H 0.34196 0.531 0.61029 0.0
H608 H 0.26225 0.5768 0.53658 0.0
H609 H 0.43217 0.5484 0.07992 0.0
H610 H 0.45229 0.54989 0.94169 0.0
H611 H 0.291 0.56621 0.05579 0.0
H612 H 0.42057 0.54198 0.62362 0.0
H613 H 0.37806 0.53498 0.53354 0.0
H614 H 0.18757 0.54432 0.68649 0.0
H615 H 0.44802 0.54747 0.77595 0.0
H616 H 0.20599 0.5404 -0.0009 0.0
H617 H 0.24785 0.55107 0.10747 0.0
N618 N 0.27351 0.56277 0.91886 0.0
C619 C 0.25128 0.55844 0.85982 0.0
C620 C 0.27275 0.56094 0.00756 0.0
C621 C 0.22489 0.54682 0.97599 0.0
C622 C 0.2484 0.55269 0.03726 0.0
C623 C 0.22615 0.5498 0.88625 0.0
H624 H 0.1837 0.53786 0.84175 0.0
N625 N 0.27856 0.57174 0.75031 0.0
C626 C 0.25373 0.56255 0.7726 0.0
C627 C 0.23378 0.56215 0.62259 0.0
C628 C 0.23071 0.55751 0.7092 0.0
C629 C 0.28191 0.57766 0.66805 0.0
C630 C 0.25953 0.57247 0.60233 0.0
O631 O 0.36843 0.56815 0.87862 0.0
O632 O 0.356 0.59151 0.84056 0.0
O633 O 0.31726 0.60843 0.86523 0.0
O634 O 0.3249 0.60005 0.99305 0.0
O635 O 0.31791 0.53842 0.95452 0.0
O636 O 0.33771 0.57455 0.98068 0.0
O637 O 0.28314 0.54259 0.85457 0.0
O638 O 0.29414 0.52815 0.74229 0.0
O639 O 0.30604 0.5038 0.86931 0.0
O640 O 0.32504 0.505 0.75171 0.0
O641 O 0.32908 0.57799 0.73478 0.0
O642 O 0.32041 0.54362 0.6988 0.0
C643 C 0.37421 0.58684 0.86168 0.0
C644 C 0.32806 0.55683 0.01084 0.0
C645 C 0.34915 0.63671 0.99145 0.0
C646 C 0.37764 0.67371 0.976 0.0
C647 C 0.38229 0.66429 0.12261 0.0
C648 C 0.36158 0.64295 0.08462 0.0
C649 C 0.3902 0.6797 0.06888 0.0
C650 C 0.35779 0.65206 0.93717 0.0
C651 C 0.32553 0.61477 0.95379 0.0
C652 C 0.20545 0.54832 0.73446 0.0
C653 C 0.20323 0.54462 0.82289 0.0
H654 H 0.21653 0.55838 0.57181 0.0
C655 C 0.27584 0.52892 0.77844 0.0
C656 C 0.3257 0.56178 0.67655 0.0
C657 C 0.29664 0.46999 0.78198 0.0
C658 C 0.2693 0.43494 0.81913 0.0
C659 C 0.28537 0.43797 0.67754 0.0
C660 C 0.29822 0.46016 0.70001 0.0
C661 C 0.27093 0.42538 0.73651 0.0
C662 C 0.28208 0.45733 0.8414 0.0
C663 C 0.30913 0.49326 0.80191 0.0
H664 H 0.39155 0.66904 0.1946 0.0
H665 H 0.35493 0.63143 0.12856 0.0
H666 H 0.40515 0.69638 0.10103 0.0
H667 H 0.34816 0.64736 0.86541 0.0
H668 H 0.2865 0.4305 0.614 0.0
H669 H 0.3091 0.46957 0.65248 0.0
H670 H 0.26084 0.40812 0.71708 0.0
H671 H 0.28094 0.46486 0.90494 0.0
C672 C 0.57072 0.65182 0.89793 0.0
C673 C 0.5443 0.62956 0.74758 0.0
C674 C 0.56672 0.6488 0.80334 0.0
C675 C 0.52558 0.61356 0.78824 0.0
C676 C 0.5522 0.63561 0.93887 0.0
C677 C 0.52945 0.61662 0.88357 0.0
N678 N 0.59307 0.67028 0.9497 0.0
C679 C 0.59924 0.67265 0.04214 0.0
C680 C 0.55739 0.63876 0.03419 0.0
C681 C 0.58122 0.65725 0.08596 0.0
Gd682 Gd 0.6146 0.74577 0.87727 0.0
Gd683 Gd 0.62135 0.69501 0.86772 0.0
N684 N 0.58451 0.66489 0.76577 0.0
C685 C 0.54123 0.62711 0.65257 0.0
C686 C 0.5823 0.66235 0.67353 0.0
C687 C 0.56043 0.64353 0.61543 0.0
H688 H 0.59748 0.67478 0.64486 0.0
H689 H 0.55848 0.64165 0.54218 0.0
H690 H 0.63895 0.76705 0.10522 0.0
H691 H 0.61843 0.68595 0.08242 0.0
H692 H 0.67774 0.80048 0.20323 0.0
H693 H 0.52424 0.61257 0.60739 0.0
H694 H 0.50806 0.59874 0.74657 0.0
H695 H 0.61535 0.75343 0.66358 0.0
H696 H 0.54362 0.62671 0.06826 0.0
H697 H 0.58602 0.65944 0.15946 0.0
H698 H 0.72267 0.84429 0.99392 0.0
H699 H 0.51493 0.60404 0.91389 0.0
H700 H 0.68432 0.81609 0.67371 0.0
H701 H 0.64386 0.78166 0.58439 0.0
N702 N 0.64052 0.7708 0.79487 0.0
C703 C 0.66174 0.7899 0.84613 0.0
C704 C 0.63357 0.7679 0.7026 0.0
C705 C 0.67211 0.8035 0.70857 0.0
C706 C 0.6494 0.78407 0.65779 0.0
C707 C 0.67839 0.80669 0.80393 0.0
H708 H 0.71351 0.83928 0.82671 0.0
N709 N 0.64971 0.77661 0.9809 0.0
C710 C 0.66663 0.79281 0.94135 0.0
C711 C 0.69288 0.81506 0.09059 0.0
C712 C 0.68868 0.81249 0.99546 0.0
C713 C 0.65312 0.7793 0.07358 0.0
C714 C 0.67495 0.79845 0.12973 0.0
O715 O 0.58107 0.69073 0.81522 0.0
O716 O 0.58183 0.71604 0.91648 0.0
O717 O 0.60254 0.76826 0.9164 0.0
O718 O 0.57835 0.74158 0.80159 0.0
O719 O 0.6323 0.71294 0.75365 0.0
O720 O 0.60237 0.72354 0.74169 0.0
O721 O 0.65708 0.75144 0.86969 0.0
O722 O 0.65651 0.727 0.94808 0.0
O723 O 0.64582 0.68848 0.78788 0.0
O724 O 0.63719 0.677 0.9149 0.0
O725 O 0.60986 0.73263 0.00648 0.0
O726 O 0.63319 0.71562 0.00921 0.0
C727 C 0.56866 0.69671 0.86509 0.0
C728 C 0.61742 0.71803 0.70567 0.0
C729 C 0.57487 0.77157 0.79667 0.0
C730 C 0.55611 0.79375 0.78031 0.0
C731 C 0.56691 0.78004 0.64974 0.0
C732 C 0.57554 0.76999 0.70334 0.0
C733 C 0.55729 0.79179 0.68771 0.0
C734 C 0.56488 0.78352 0.83525 0.0
C735 C 0.58134 0.75858 0.84928 0.0
C736 C 0.70564 0.82906 0.95328 0.0
C737 C 0.70045 0.8262 0.85798 0.0
H738 H 0.70965 0.82995 0.13445 0.0
C739 C 0.67011 0.74401 0.91376 0.0
C740 C 0.62165 0.72434 0.04929 0.0
C741 C 0.66482 0.66845 0.84003 0.0
C742 C 0.67887 0.64798 0.75287 0.0
C743 C 0.69305 0.65833 0.91839 0.0
C744 C 0.67895 0.66833 0.92108 0.0
C745 C 0.69289 0.64808 0.83504 0.0
C746 C 0.66514 0.65856 0.7555 0.0
C747 C 0.64862 0.67783 0.84586 0.0
H748 H 0.56733 0.77845 0.57785 0.0
H749 H 0.58189 0.76037 0.67041 0.0
H750 H 0.55047 0.79929 0.64422 0.0
H751 H 0.56362 0.78461 0.90651 0.0
H752 H 0.70392 0.65832 0.98125 0.0
H753 H 0.67898 0.67591 0.98673 0.0
H754 H 0.70382 0.64025 0.83468 0.0
H755 H 0.6539 0.65831 0.69274 0.0
H756 H 0.20058 0.33395 0.11653 0.0
H757 H 0.23375 0.4371 0.91366 0.0
H758 H 0.16739 0.37139 0.18792 0.0
H759 H 0.27147 0.40207 0.86735 0.0
H760 H 0.20789 0.4128 0.01076 0.0
H761 H 0.22423 0.35766 0.01609 0.0
C762 C 0.19812 0.34709 0.1106 0.0
C763 C 0.18221 0.35085 0.16131 0.0
C764 C 0.22184 0.41047 0.97921 0.0
C765 C 0.20963 0.37831 0.04765 0.0
C766 C 0.23669 0.42439 0.92443 0.0
C767 C 0.25451 0.42138 0.88183 0.0
C768 C 0.225 0.39358 0.99123 0.0
C769 C 0.25751 0.40465 0.89745 0.0
C770 C 0.21181 0.36074 0.05375 0.0
C771 C 0.17993 0.36822 0.15142 0.0
N772 N 0.24284 0.39134 0.95066 0.0
N773 N 0.1936 0.3814 0.09585 0.0
H774 H 0.84594 0.82122 0.9214 0.0
H775 H 0.69963 0.72976 0.99496 0.0
H776 H 0.83419 0.77457 0.08273 0.0
H777 H 0.71068 0.78127 0.86433 0.0
H778 H 0.74809 0.74503 0.0193 0.0
H779 H 0.79705 0.80645 0.89346 0.0
C780 C 0.8331 0.80796 0.95165 0.0
C781 C 0.84455 0.79966 0.00684 0.0
C782 C 0.74012 0.75312 0.98543 0.0
C783 C 0.78767 0.78163 0.97112 0.0
C784 C 0.71214 0.74439 0.97127 0.0
C785 C 0.70048 0.75417 0.92746 0.0
C786 C 0.75732 0.77196 0.95563 0.0
C787 C 0.7184 0.77305 0.89839 0.0
C788 C 0.80501 0.79932 0.9347 0.0
C789 C 0.82648 0.78166 0.04019 0.0
N790 N 0.74576 0.78127 0.91293 0.0
N791 N 0.79915 0.77332 0.02189 0.0
H792 H 0.32415 0.9522 0.0219 0.0
H793 H 0.38848 0.92084 0.64849 0.0
H794 H 0.35397 0.9889 0.81499 0.0
H795 H 0.40603 0.9191 0.93179 0.0
H796 H 0.36221 0.93618 0.68705 0.0
H797 H 0.34063 0.92998 0.96603 0.0
C798 C 0.33368 0.95526 0.96364 0.0
C799 C 0.33799 0.97241 0.92318 0.0
C800 C 0.37165 0.93221 0.74029 0.0
C801 C 0.35633 0.94711 0.85874 0.0
C802 C 0.3865 0.92348 0.71844 0.0
C803 C 0.39958 0.91904 0.78745 0.0
C804 C 0.36947 0.93597 0.83121 0.0
C805 C 0.39649 0.92265 0.87707 0.0
C806 C 0.34313 0.9427 0.93222 0.0
C807 C 0.35052 0.97587 0.84814 0.0
N808 N 0.38168 0.93089 0.8965 0.0
N809 N 0.35931 0.96332 0.81821 0.0
H810 H 0.45451 0.12699 0.09884 0.0
H811 H 0.29753 0.08671 0.95633 0.0
H812 H 0.43337 0.16921 0.00266 0.0
H813 H 0.32657 0.06089 0.14526 0.0
H814 H 0.34493 0.1153 0.95942 0.0
H815 H 0.40713 0.10129 0.10039 0.0
C816 C 0.43997 0.13104 0.07786 0.0
C817 C 0.44869 0.15071 0.05027 0.0
C818 C 0.34096 0.10333 -2e-05 0.0
C819 C 0.39265 0.12024 0.05143 0.0
C820 C 0.31364 0.08692 -0.00108 0.0
C821 C 0.30723 0.0708 0.05029 0.0
C822 C 0.3627 0.10365 0.05103 0.0
C823 C 0.32978 0.07221 0.10213 0.0
C824 C 0.4126 0.11614 0.07916 0.0
C825 C 0.42815 0.15453 0.02493 0.0
N826 N 0.356 0.08792 0.10024 0.0
N827 N 0.40129 0.13945 0.02523 0.0
H828 H 0.94467 0.2776 0.23302 0.0
H829 H 0.06256 0.26543 0.08829 0.0
H830 H 1.00453 0.321 0.09549 0.0
H831 H 0.99836 0.21777 0.1997 0.0
H832 H 0.04197 0.28623 0.09458 0.0
H833 H 0.96385 0.25566 0.224 0.0
C834 C 0.96158 0.28243 0.19991 0.0
C835 C 0.97254 0.3011 0.16363 0.0
C836 C 1.03228 0.27119 0.11746 0.0
C837 C 0.99541 0.27628 0.15574 0.0
C838 C 0.04408 0.25924 0.1139 0.0
C839 C 1.03218 0.2396 0.14284 0.0
C840 C 1.00835 0.26368 0.15081 0.0
C841 C 1.00823 0.23265 0.17579 0.0
C842 C 0.97274 0.26995 0.19554 0.0
C843 C 0.99518 0.30678 0.12432 0.0
N844 N 0.99718 0.24464 0.17898 0.0
N845 N 1.00579 0.29452 0.12163 0.0
H846 H 0.89176 0.68773 0.01852 0.0
H847 H 0.78885 0.58371 0.21202 0.0
H848 H 0.82921 0.68204 0.15429 0.0
H849 H 0.8474 0.58443 0.06693 0.0
H850 H 0.80574 0.62048 0.19634 0.0
H851 H 0.87935 0.65179 0.04336 0.0
C852 C 0.87589 0.67926 0.05536 0.0
C853 C 0.86169 0.68828 0.08466 0.0
C854 C 0.81517 0.61278 0.16826 0.0
C855 C 0.84681 0.64656 0.11161 0.0
C856 C 0.80547 0.59157 0.17734 0.0
C857 C 0.81677 0.5806 0.14191 0.0
C858 C 0.83664 0.62371 0.12319 0.0
C859 C 0.83814 0.59205 0.09667 0.0
C860 C 0.86855 0.65853 0.06857 0.0
C861 C 0.8409 0.67602 0.13042 0.0
N862 N 0.84733 0.61281 0.08876 0.0
N863 N 0.83413 0.65607 0.14178 0.0
H864 H 0.25971 0.52383 0.59821 0.0
H865 H 0.11077 0.42193 0.57104 0.0
H866 H 0.22896 0.5045 0.83852 0.0
H867 H 0.14667 0.44167 0.33944 0.0
H868 H 0.15096 0.4544 0.67146 0.0
H869 H 0.21519 0.4969 0.50355 0.0
C870 C 0.24332 0.51398 0.63089 0.0
C871 C 0.24786 0.51601 0.72566 0.0
C872 C 0.14987 0.45171 0.59859 0.0
C873 C 0.19692 0.48484 0.61802 0.0
C874 C 0.12707 0.43325 0.54162 0.0
C875 C 0.1259 0.42915 0.44761 0.0
C876 C 0.17123 0.46615 0.56046 0.0
C877 C 0.14721 0.44418 0.41197 0.0
C878 C 0.2179 0.49858 0.57695 0.0
C879 C 0.22603 0.50323 0.76531 0.0
N880 N 0.16904 0.46198 0.46849 0.0
N881 N 0.20143 0.48781 0.71095 0.0
H882 H 0.66441 0.60656 0.71232 0.0
H883 H 0.70818 0.61504 0.22898 0.0
H884 H 0.69247 0.66282 0.59667 0.0
H885 H 0.67825 0.55824 0.34222 0.0
H886 H 0.70258 0.63276 0.36259 0.0
H887 H 0.6682 0.5883 0.5756 0.0
C888 C 0.67128 0.61501 0.65767 0.0
C889 C 0.67833 0.63625 0.66584 0.0
C890 C 0.69717 0.61641 0.35832 0.0
C891 C 0.68304 0.61557 0.50944 0.0
C892 C 0.70031 0.60626 0.2819 0.0
C893 C 0.69338 0.58503 0.27382 0.0
C894 C 0.68699 0.6053 0.42763 0.0
C895 C 0.68391 0.57463 0.3456 0.0
C896 C 0.67349 0.60461 0.57974 0.0
C897 C 0.68678 0.64642 0.5928 0.0
N898 N 0.68087 0.58483 0.41924 0.0
N899 N 0.68913 0.63604 0.5179 0.0
H900 H 0.45556 0.03154 0.17167 0.0
H901 H 0.54605 0.05091 0.65457 0.0
H902 H 0.53457 0.08935 0.28654 0.0
H903 H 0.46788 0.99241 0.53788 0.0
H904 H 0.54188 0.0653 0.52124 0.0
H905 H 0.45922 1.0173 0.30633 0.0
C906 C 0.47372 0.04125 0.22522 0.0
C907 C 0.49492 0.06159 0.21703 0.0
C908 C 0.52562 0.04931 0.52452 0.0
C909 C 0.49914 0.04538 0.37235 0.0
C910 C 0.52794 0.04108 0.60093 0.0
C911 C 0.50715 1.02049 0.60819 0.0
C912 C 0.50236 0.03688 0.45406 0.0
C913 C 0.48448 1.00833 0.53527 0.0
C914 C 0.47574 0.03311 0.30231 0.0
C915 C 0.51766 0.07364 0.28981 0.0
N916 N 0.48264 1.01674 0.46148 0.0
N917 N 0.51922 0.0653 0.3641 0.0
H918 H 0.19328 0.13631 0.13036 0.0
H919 H 0.06915 0.14964 0.03321 0.0
H920 H 0.11176 0.0838 0.00283 0.0
H921 H 0.14258 0.19672 0.23105 0.0
H922 H 0.08486 0.12555 0.02293 0.0
H923 H 0.17589 0.15871 0.17272 0.0
C924 C 0.17159 0.12927 0.1145 0.0
C925 C 0.15383 0.10802 0.065 0.0
C926 C 0.09755 0.14111 0.06905 0.0
C927 C 0.1339 0.1338 0.10908 0.0
C928 C 0.08857 0.15496 0.07495 0.0
C929 C 0.10451 0.1754 0.13305 0.0
C930 C 0.12306 0.14776 0.12013 0.0
C931 C 0.12961 0.18124 0.18498 0.0
C932 C 0.1617 0.14212 0.13763 0.0
C933 C 0.12604 0.09993 0.04283 0.0
N934 N 0.13824 0.16763 0.17653 0.0
N935 N 0.117 0.11287 0.06393 0.0
H936 H 1.02987 0.99552 0.11003 0.0
H937 H 0.93915 0.04443 0.13084 0.0
H938 H 0.95376 0.96551 0.19894 0.0
H939 H 1.01448 0.07488 0.03721 0.0
H940 H 0.944 1.01494 0.15272 0.0
H941 H 1.02474 0.02469 0.08143 0.0
C942 C 1.01211 0.99507 0.12359 0.0
C943 C 0.99226 0.97805 0.15701 0.0
C944 C 0.95947 0.02804 0.1272 0.0
C945 C 0.98607 1.01114 0.12328 0.0
C946 C 0.95658 0.0448 0.11404 0.0
C947 C 0.9763 0.06203 0.08161 0.0
C948 C 0.98233 0.02855 0.10827 0.0
C949 C 0.99888 0.06196 0.0631 0.0
C950 C 1.00912 1.01164 0.10673 0.0
C951 C 0.96942 0.9781 0.17194 0.0
N952 N 1.00129 0.04545 0.0768 0.0
N953 N 0.967 0.99441 0.15507 0.0
H954 H 1.00071 0.90612 0.06849 0.0
H955 H 0.15007 0.94362 0.99358 0.0
H956 H 1.02649 0.86223 0.05606 0.0
H957 H 0.12985 0.98836 0.08988 0.0
H958 H 0.1055 0.91381 0.00509 0.0
H959 H 0.04659 0.93539 0.06715 0.0
C960 C 1.01597 0.90246 0.0665 0.0
C961 C 1.00895 0.88118 0.06471 0.0
C962 C 0.11072 0.9301 0.02439 0.0
C963 C 0.06303 0.91566 0.05838 0.0
C964 C 0.13666 0.94742 0.01828 0.0
C965 C 0.1449 0.96913 0.04185 0.0
C966 C 0.09177 0.93399 0.05323 0.0
C967 C 0.12517 0.97223 0.07058 0.0
C968 C 0.04249 0.91945 0.06503 0.0
C969 C 1.03033 0.87808 0.05931 0.0
N970 N 0.09992 0.95511 0.07496 0.0
N971 N 0.056 0.8949 0.05548 0.0
H972 H 0.88952 0.46096 0.23323 0.0
H973 H 0.88726 0.35754 0.01181 0.0
H974 H 0.82295 0.40892 0.0264 0.0
H975 H 0.93245 0.39527 0.28224 0.0
H976 H 0.86929 0.38012 -0.00205 0.0
H977 H 0.91249 0.44164 0.23086 0.0
C978 C 0.88018 0.44578 0.18541 0.0
C979 C 0.85451 0.43657 0.12916 0.0
C980 C 0.88348 0.38364 0.05981 0.0
C981 C 0.88023 0.41428 0.12715 0.0
C982 C 0.89368 0.37072 0.06796 0.0
C983 C 0.91193 0.37479 0.14775 0.0
C984 C 0.89177 0.40093 0.13151 0.0
C985 C 0.91932 0.39203 0.21831 0.0
C986 C 0.89307 0.43465 0.18487 0.0
C987 C 0.84289 0.41662 0.06997 0.0
N988 N 0.90937 0.40453 0.20846 0.0
N989 N 0.85577 0.40611 0.07066 0.0
H990 H 0.70174 0.44583 0.98534 0.0
H991 H 0.65708 0.34583 0.23458 0.0
H992 H 0.74796 0.451 0.2407 0.0
H993 H 0.6094 0.34282 0.98844 0.0
H994 H 0.69255 0.38316 0.23189 0.0
H995 H 0.66936 0.4077 0.9813 0.0
C996 C 0.70508 0.43903 0.04095 0.0
C997 C 0.72762 0.45199 0.114 0.0
C998 C 0.67459 0.37423 0.17737 0.0
C999 C 0.69067 0.40757 0.10841 0.0
C1000 C 0.65447 0.35276 0.17824 0.0
C1001 C 0.63043 0.34086 0.11028 0.0
C1002 C 0.6707 0.38411 0.1083 0.0
C1003 C 0.6278 0.35112 0.041 0.0
C1004 C 0.68663 0.41708 0.03816 0.0
C1005 C 0.73108 0.44182 0.18257 0.0
N1006 N 0.64748 0.37199 0.04198 0.0
N1007 N 0.7129 0.42037 0.17817 0.0
H1008 H 0.61989 0.21638 0.2215 0.0
H1009 H 0.74331 0.25497 0.9649 0.0
H1010 H 0.61249 0.22411 0.94307 0.0
H1011 H 0.7501 0.25544 0.25259 0.0
H1012 H 0.69614 0.24503 0.95318 0.0
H1013 H 0.66804 0.23117 0.23194 0.0
C1014 C 0.62854 0.22139 0.16268 0.0
C1015 C 0.61225 0.21903 0.0814 0.0
C1016 C 0.70815 0.24773 0.01914 0.0
C1017 C 0.66762 0.23618 0.09264 0.0
C1018 C 0.73507 0.25359 0.02591 0.0
C1019 C 0.75052 0.25622 0.11008 0.0
C1020 C 0.69678 0.24442 0.09713 0.0
C1021 C 0.73884 0.25373 0.18675 0.0
C1022 C 0.65609 0.22991 0.16864 0.0
C1023 C 0.62449 0.22584 0.00725 0.0
N1024 N 0.71268 0.24785 0.17834 0.0
N1025 N 0.65146 0.23398 0.01432 0.0
H1026 H 0.58193 0.83706 0.81257 0.0
H1027 H 0.44492 0.83419 0.8067 0.0
H1028 H 0.50547 0.77966 0.81476 0.0
H1029 H 0.51906 0.8877 0.76121 0.0
H1030 H 0.46772 0.81546 0.8311 0.0
H1031 H 0.56074 0.85748 0.82089 0.0
C1032 C 0.56087 0.82893 0.81823 0.0
C1033 C 0.54559 0.80673 0.81467 0.0
C1034 C 0.47908 0.83138 0.81652 0.0
C1035 C 0.52073 0.82984 0.82041 0.0
C1036 C 0.46606 0.84216 0.8023 0.0
C1037 C 0.48006 0.86278 0.78191 0.0
C1038 C 0.50646 0.84125 0.81101 0.0
C1039 C 0.50744 0.87207 0.77749 0.0
C1040 C 0.54864 0.84052 0.82156 0.0
C1041 C 0.51812 0.79683 0.81928 0.0
N1042 N 0.51966 0.86127 0.79177 0.0
N1043 N 0.5065 0.8084 0.82105 0.0
H1044 H 0.42574 0.71101 0.97426 0.0
H1045 H 0.34874 0.75745 0.73054 0.0
H1046 H 0.33951 0.6741 0.85887 0.0
H1047 H 0.4293 0.77824 0.69365 0.0
H1048 H 0.34892 0.73194 0.81736 0.0
H1049 H 0.43083 0.74026 0.90133 0.0
C1050 C 0.40802 0.70899 0.93308 0.0
C1051 C 0.38218 0.69021 0.92309 0.0
C1052 C 0.36672 0.74233 0.79144 0.0
C1053 C 0.38782 0.72329 0.84174 0.0
C1054 C 0.36672 0.75696 0.74314 0.0
C1055 C 0.38897 0.76963 0.70533 0.0
C1056 C 0.38924 0.74065 0.80227 0.0
C1057 C 0.41179 0.76846 0.722 0.0
C1058 C 0.41096 0.72558 0.89167 0.0
C1059 C 0.35987 0.6882 0.86807 0.0
N1060 N 0.41135 0.754 0.76936 0.0
N1061 N 0.36319 0.70465 0.83018 0.0
H1062 H 0.53176 0.66063 0.73557 0.0
H1063 H 0.40047 0.63015 0.92616 0.0
H1064 H 0.53842 0.69881 0.98565 0.0
H1065 H 0.41277 0.58216 0.80361 0.0
H1066 H 0.4481 0.65798 0.92858 0.0
H1067 H 0.48486 0.63365 0.73947 0.0
C1068 C 0.5235 0.66317 0.79211 0.0
C1069 C 0.53943 0.6815 0.86251 0.0
C1070 C 0.44031 0.64128 0.90208 0.0
C1071 C 0.48512 0.65147 0.86378 0.0
C1072 C 0.41324 0.62545 0.90037 0.0
C1073 C 0.40288 0.60374 0.86619 0.0
C1074 C 0.45674 0.63531 0.86688 0.0
C1075 C 0.42012 0.59851 0.83288 0.0
C1076 C 0.49663 0.64792 0.79358 0.0
C1077 C 0.527 0.68471 0.93071 0.0
N1078 N 0.44613 0.61418 0.83326 0.0
N1079 N 0.50047 0.66984 0.92957 0.0
H1080 H 1.03248 0.2103 0.84686 0.0
H1081 H 0.08282 0.18733 0.41423 0.0
H1082 H 0.10665 0.21202 0.87712 0.0
H1083 H 0.05251 0.22833 0.42197 0.0
H1084 H 0.0838 0.18854 0.57835 0.0
H1085 H 1.03145 0.20928 0.68268 0.0
C1086 C 0.04865 0.2107 0.81874 0.0
C1087 C 0.0701 0.21187 0.87491 0.0
C1088 C 0.07682 0.19715 0.54368 0.0
C1089 C 0.06852 0.20991 0.68893 0.0
C1090 C 0.07604 0.19632 0.45048 0.0
C1091 C 0.06747 0.20769 0.40542 0.0
C1092 C 0.06815 0.20886 0.59075 0.0
C1093 C 0.05928 0.21941 0.455 0.0
C1094 C 0.04804 0.2101 0.72572 0.0
C1095 C 0.09029 0.21182 0.83588 0.0
N1096 N 0.05953 0.21953 0.54519 0.0
N1097 N 0.08892 0.21067 0.74471 0.0
H1098 H 0.88863 0.80051 0.75582 0.0
H1099 H 0.96628 0.86691 0.3905 0.0
H1100 H 0.95399 0.86752 0.82716 0.0
H1101 H 0.89409 0.80266 0.31715 0.0
H1102 H 0.96354 0.86705 0.55152 0.0
H1103 H 0.89137 0.80065 0.59529 0.0
C1104 C 0.90349 0.81528 0.73761 0.0
C1105 C 0.92112 0.83401 0.80504 0.0
C1106 C 0.94831 0.85291 0.50018 0.0
C1107 C 0.92449 0.83431 0.6212 0.0
C1108 C 0.94993 0.85281 0.40832 0.0
C1109 C 0.93035 0.83476 0.34022 0.0
C1110 C 0.92707 0.83479 0.5243 0.0
C1111 C 0.90968 0.81689 0.3673 0.0
C1112 C 0.90505 0.81537 0.64593 0.0
C1113 C 0.93987 0.85273 0.77741 0.0
N1114 N 0.90855 0.81738 0.45698 0.0
N1115 N 0.94117 0.85238 0.68779 0.0
H1116 H 0.26569 0.03002 0.78732 0.0
H1117 H 0.18705 1.01451 0.28638 0.0
H1118 H 0.18029 1.00532 0.71914 0.0
H1119 H 0.27064 0.03384 0.34836 0.0
H1120 H 0.18495 1.01285 0.44598 0.0
H1121 H 0.26837 0.03275 0.6288 0.0
C1122 C 0.24741 0.02505 0.7388 0.0
C1123 C 0.22268 1.01744 0.76665 0.0
C1124 C 0.20377 1.01742 0.42488 0.0
C1125 C 0.2257 1.02066 0.58444 0.0
C1126 C 0.20504 1.01848 0.33371 0.0
C1127 C 0.229 0.02412 0.30365 0.0
C1128 C 0.22666 0.02213 0.48716 0.0
C1129 C 0.25164 0.02912 0.36825 0.0
C1130 C 0.24901 0.02671 0.64824 0.0
C1131 C 0.19977 1.01138 0.70077 0.0
N1132 N 0.24989 0.02794 0.45687 0.0
N1133 N 0.20185 1.01317 0.61284 0.0
H1134 H 0.7804 0.48969 0.39654 0.0
H1135 H 0.77032 0.54238 0.868 0.0
H1136 H 0.77922 0.54703 0.43426 0.0
H1137 H 0.78257 0.49039 0.83891 0.0
H1138 H 0.77215 0.54366 0.70822 0.0
H1139 H 0.78007 0.48915 0.5576 0.0
C1140 C 0.78027 0.50227 0.43899 0.0
C1141 C 0.78009 0.51856 0.40235 0.0
C1142 C 0.77447 0.53199 0.73676 0.0
C1143 C 0.77924 0.51782 0.58636 0.0
C1144 C 0.77331 0.53117 0.82792 0.0
C1145 C 0.77614 0.51615 0.86668 0.0
C1146 C 0.77838 0.51764 0.68379 0.0
C1147 C 0.78026 0.50221 0.81176 0.0
C1148 C 0.78 0.50191 0.53086 0.0
C1149 C 0.77943 0.53422 0.45997 0.0
N1150 N 0.78117 0.50324 0.72291 0.0
N1151 N 0.77899 0.53345 0.54926 0.0
H1152 H 0.48915 0.16198 0.29486 0.0
H1153 H 0.5698 0.20955 0.81651 0.0
H1154 H 0.57195 0.21656 0.38063 0.0
H1155 H 0.48555 0.15734 0.73562 0.0
H1156 H 0.57142 0.21098 0.65658 0.0
H1157 H 0.48742 0.15954 0.45455 0.0
C1158 C 0.50696 0.17349 0.34766 0.0
C1159 C 0.53072 0.1895 0.32482 0.0
C1160 C 0.55252 0.19921 0.67334 0.0
C1161 C 0.52908 0.18658 0.50766 0.0
C1162 C 0.55158 0.19837 0.76469 0.0
C1163 C 0.5274 0.18344 0.78918 0.0
C1164 C 0.52899 0.18518 0.60537 0.0
C1165 C 0.50457 0.16906 0.71942 0.0
C1166 C 0.50598 0.17206 0.43872 0.0
C1167 C 0.55316 0.20411 0.39555 0.0
N1168 N 0.50585 0.17041 0.63053 0.0
N1169 N 0.55185 0.20221 0.48379 0.0
H1170 H 0.90726 0.34261 0.44246 0.0
H1171 H 0.97758 0.33395 0.90888 0.0
H1172 H 0.97609 0.33685 0.4667 0.0
H1173 H 0.90746 0.33803 0.88024 0.0
H1174 H 0.97789 0.33538 0.7474 0.0
H1175 H 0.90767 0.34168 0.60408 0.0
C1176 C 0.92242 0.34111 0.48189 0.0
C1177 C 0.94155 0.33968 0.44123 0.0
C1178 C 0.96245 0.33597 0.7765 0.0
C1179 C 0.94219 0.33859 0.62595 0.0
C1180 C 0.96231 0.33518 0.86849 0.0
C1181 C 0.94254 0.33594 0.90766 0.0
C1182 C 0.9427 0.33758 0.72367 0.0
C1183 C 0.92299 0.33729 0.85245 0.0
C1184 C 0.92268 0.3406 0.5741 0.0
C1185 C 0.96098 0.33804 0.49553 0.0
N1186 N 0.92363 0.33815 0.76338 0.0
N1187 N 0.96074 0.33744 0.58506 0.0
H1188 H 0.45727 0.92517 0.48946 0.0
H1189 H 0.43155 0.85707 -0.00334 0.0
H1190 H 0.43365 0.8591 0.44505 0.0
H1191 H 0.44637 0.92055 0.0463 0.0
H1192 H 0.433 0.85723 0.16021 0.0
H1193 H 0.45508 0.92383 0.32679 0.0
C1194 C 0.45177 0.91039 0.44553 0.0
C1195 C 0.44568 0.89223 0.48096 0.0
C1196 C 0.43597 0.87111 0.13505 0.0
C1197 C 0.44296 0.89053 0.29387 0.0
C1198 C 0.43505 0.87098 0.04192 0.0
C1199 C 0.43928 0.88894 0.00833 0.0
C1200 C 0.44112 0.88932 0.19441 0.0
C1201 C 0.44367 0.90655 0.06956 0.0
C1202 C 0.4504 0.9096 0.35239 0.0
C1203 C 0.43852 0.87349 0.42052 0.0
N1204 N 0.44459 0.90633 0.1595 0.0
N1205 N 0.43735 0.87311 0.32973 0.0
H1206 H 0.30137 0.52319 0.0952 0.0
H1207 H 0.35026 0.59694 0.59661 0.0
H1208 H 0.3535 0.59244 0.15003 0.0
H1209 H 0.29839 0.52767 0.53292 0.0
H1210 H 0.35041 0.59629 0.43318 0.0
H1211 H 0.29933 0.52501 0.25622 0.0
C1212 C 0.31256 0.53877 0.14126 0.0
C1213 C 0.32775 0.55765 0.10916 0.0
C1214 C 0.33893 0.58127 0.45527 0.0
C1215 C 0.32537 0.55994 0.29397 0.0
C1216 C 0.33876 0.58167 0.54831 0.0
C1217 C 0.32459 0.56237 0.57853 0.0
C1218 C 0.32472 0.56142 0.39253 0.0
C1219 C 0.30996 0.54298 0.51313 0.0
C1220 C 0.31129 0.53984 0.23325 0.0
C1221 C 0.3416 0.57744 0.17191 0.0
N1222 N 0.31052 0.54301 0.42367 0.0
N1223 N 0.3401 0.57808 0.26135 0.0
H1224 H 0.6569 0.72189 0.61825 0.0
H1225 H 0.5839 0.72297 0.13942 0.0
H1226 H 0.57844 0.71341 0.57141 0.0
H1227 H 0.65881 0.72566 0.17974 0.0
H1228 H 0.58229 0.72073 0.29916 0.0
H1229 H 0.65831 0.7238 0.45821 0.0
C1230 C 0.63987 0.72024 0.57397 0.0
C1231 C 0.61763 0.71767 0.608 0.0
C1232 C 0.59913 0.72187 0.27323 0.0
C1233 C 0.61914 0.71997 0.42535 0.0
C1234 C 0.60015 0.72332 0.18234 0.0
C1235 C 0.62151 0.72447 0.14675 0.0
C1236 C 0.61973 0.72176 0.32889 0.0
C1237 C 0.64191 0.72466 0.20471 0.0
C1238 C 0.64073 0.72144 0.48281 0.0
C1239 C 0.59611 0.71565 0.54793 0.0
N1240 N 0.64051 0.72329 0.29303 0.0
N1241 N 0.59746 0.71696 0.45954 0.0
loop_
_geom_bond_atom_site_label_1
_geom_bond_atom_site_label_2
_geom_bond_distance
_geom_bond_site_symmetry_2
_ccdc_geom_bond_type
C0 C2 1.422 . S
C0 C4 1.415 . S
C0 N6 1.369 . S
C1 C2 1.421 . S
C1 C3 1.417 . S
C1 C13 1.422 . S
C2 C0 1.422 . S
C2 C1 1.421 . S
C2 N12 1.359 . S
C3 C1 1.417 . S
C3 C5 1.329 . S
C3 H22 0.930 . S
C4 C0 1.415 . S
C4 C5 1.437 . S
C4 C8 1.413 . S
C5 C3 1.329 . S
C5 C4 1.437 . S
C5 H27 0.929 . S
N6 C0 1.369 . S
N6 C7 1.338 . S
N6 Gd11 2.622 . S
C7 N6 1.338 . S
C7 C9 1.378 . S
C7 H19 0.929 . S
C8 C4 1.413 . S
C8 C9 1.348 . S
C8 H24 0.931 . S
C9 C7 1.378 . S
C9 C8 1.348 . S
C9 H25 0.930 . S
Gd10 N30 2.622 1_454 S
Gd10 N37 2.570 1_455 S
Gd10 O44 2.353 . S
Gd10 O45 2.468 1_455 S
Gd10 O46 2.427 1_455 S
Gd10 O48 2.388 1_554 S
Gd10 O49 2.386 . S
Gd10 O53 2.307 . S
Gd10 C63 2.805 1_455 S
Gd11 N6 2.622 . S
Gd11 N12 2.570 . S
Gd11 O43 2.386 . S
Gd11 O47 2.307 . S
Gd11 O50 2.353 . S
Gd11 O51 2.468 . S
Gd11 O52 2.427 . S
Gd11 O54 2.388 . S
Gd11 C75 2.805 . S
N12 C2 1.359 . S
N12 Gd11 2.570 . S
N12 C14 1.343 . S
C13 C1 1.422 . S
C13 C15 1.321 . S
C13 H21 0.931 . S
C14 N12 1.343 . S
C14 C15 1.390 . S
C14 H16 0.931 . S
C15 C13 1.321 . S
C15 C14 1.390 . S
C15 H17 0.930 1_554 S
H16 C14 0.931 . S
H17 C15 0.930 1_556 S
H18 C41 0.931 . S
H19 C7 0.929 . S
H20 C42 0.930 . S
H21 C13 0.931 . S
H22 C3 0.930 . S
H23 C32 0.929 . S
H24 C8 0.931 . S
H25 C9 0.930 . S
H26 C64 0.930 . S
H27 C5 0.929 . S
H28 C33 0.931 . S
H29 C34 0.930 . S
N30 Gd10 2.622 1_656 S
N30 C31 1.369 . S
N30 C32 1.338 . S
C31 N30 1.369 . S
C31 C35 1.415 . S
C31 C38 1.422 1_556 S
C32 H23 0.929 . S
C32 N30 1.338 . S
C32 C34 1.378 . S
C33 H28 0.931 . S
C33 C34 1.348 . S
C33 C35 1.413 . S
C34 H29 0.930 . S
C34 C32 1.378 . S
C34 C33 1.348 . S
C35 C31 1.415 . S
C35 C33 1.413 . S
C35 C65 1.437 . S
H36 C65 0.929 . S
N37 Gd10 2.570 1_655 S
N37 C38 1.359 . S
N37 C41 1.343 . S
C38 C31 1.422 1_554 S
C38 N37 1.359 . S
C38 C40 1.421 . S
C39 C40 1.422 . S
C39 C42 1.321 . S
C39 H66 0.931 . S
C40 C38 1.421 . S
C40 C39 1.422 . S
C40 C64 1.417 . S
C41 H18 0.931 . S
C41 N37 1.343 . S
C41 C42 1.390 . S
C42 H20 0.930 . S
C42 C39 1.321 . S
C42 C41 1.390 . S
O43 Gd11 2.386 . S
O43 C55 1.265 . S
O44 Gd10 2.353 . S
O44 C55 1.242 . S
O45 Gd10 2.468 1_655 S
O45 C63 1.263 . S
O46 Gd10 2.427 1_655 S
O46 C63 1.252 . S
O47 Gd11 2.307 . S
O47 C56 1.261 1_554 S
O48 Gd10 2.388 1_556 S
O48 C56 1.252 . S
O49 Gd10 2.386 . S
O49 C67 1.265 . S
O50 Gd11 2.353 . S
O50 C67 1.242 . S
O51 Gd11 2.468 . S
O51 C75 1.263 . S
O52 Gd11 2.427 . S
O52 C75 1.252 . S
O53 Gd10 2.307 . S
O53 C68 1.261 . S
O54 Gd11 2.388 . S
O54 C68 1.252 . S
C55 O43 1.265 . S
C55 O44 1.242 . S
C56 O47 1.261 1_556 S
C56 O48 1.252 . S
C57 C60 1.394 . S
C57 C62 1.370 . S
C57 C63 1.500 . S
C58 C61 1.383 . S
C58 C62 1.395 . S
C59 C60 1.396 . S
C59 C61 1.365 . S
C59 H76 0.929 1_554 S
C60 C57 1.394 . S
C60 C59 1.396 . S
C60 H77 0.930 1_554 S
C61 C58 1.383 . S
C61 C59 1.365 . S
C61 H78 0.931 . S
C62 C57 1.370 . S
C62 C58 1.395 . S
C62 H79 0.930 . S
C63 Gd10 2.805 1_655 S
C63 O45 1.263 . S
C63 O46 1.252 . S
C63 C57 1.500 . S
C64 H26 0.930 . S
C64 C40 1.417 . S
C64 C65 1.329 1_554 S
C65 C35 1.437 . S
C65 H36 0.929 . S
C65 C64 1.329 1_556 S
H66 C39 0.931 . S
C67 O49 1.265 . S
C67 O50 1.242 . S
C68 O53 1.261 . S
C68 O54 1.252 . S
C69 C72 1.394 . S
C69 C74 1.370 . S
C69 C75 1.500 . S
C70 C73 1.383 . S
C70 C74 1.395 . S
C71 C72 1.396 . S
C71 C73 1.365 . S
C71 H80 0.929 . S
C72 C69 1.394 . S
C72 C71 1.396 . S
C72 H81 0.930 . S
C73 C70 1.383 . S
C73 C71 1.365 . S
C73 H82 0.931 . S
C74 C69 1.370 . S
C74 C70 1.395 . S
C74 H83 0.930 . S
C75 Gd11 2.805 . S
C75 O51 1.263 . S
C75 O52 1.252 . S
C75 C69 1.500 . S
H76 C59 0.929 1_556 S
H77 C60 0.930 1_556 S
H78 C61 0.931 . S
H79 C62 0.930 . S
H80 C71 0.929 . S
H81 C72 0.930 . S
H82 C73 0.931 . S
H83 C74 0.930 . S
C84 C86 1.422 . S
C84 C88 1.415 1_554 S
C84 N90 1.369 1_554 S
C85 C86 1.421 . S
C85 C87 1.417 . S
C85 C97 1.422 . S
C86 C84 1.422 . S
C86 C85 1.421 . S
C86 N96 1.359 . S
C87 C85 1.417 . S
C87 C89 1.330 1_554 S
C87 H106 0.930 1_655 S
C88 C84 1.415 1_556 S
C88 C89 1.437 . S
C88 C92 1.413 . S
C89 C87 1.330 1_556 S
C89 C88 1.437 . S
C89 H111 0.928 . S
N90 C84 1.369 1_556 S
N90 C91 1.338 . S
N90 Gd95 2.622 1_556 S
C91 N90 1.338 . S
C91 C93 1.378 . S
C91 H103 0.929 . S
C92 C88 1.413 . S
C92 C93 1.348 . S
C92 H108 0.931 . S
C93 C91 1.378 . S
C93 C92 1.348 . S
C93 H109 0.930 . S
Gd94 N114 2.622 . S
Gd94 N121 2.570 . S
Gd94 O128 2.353 . S
Gd94 O129 2.468 . S
Gd94 O130 2.427 . S
Gd94 O132 2.388 . S
Gd94 O133 2.386 . S
Gd94 O137 2.307 . S
Gd94 C147 2.805 . S
Gd95 N90 2.622 1_554 S
Gd95 N96 2.570 . S
Gd95 O127 2.386 . S
Gd95 O131 2.307 . S
Gd95 O134 2.353 . S
Gd95 O135 2.468 . S
Gd95 O136 2.427 . S
Gd95 O138 2.388 1_554 S
Gd95 C159 2.805 . S
N96 C86 1.359 . S
N96 Gd95 2.570 . S
N96 C98 1.343 . S
C97 C85 1.422 . S
C97 C99 1.321 . S
C97 H105 0.931 . S
C98 N96 1.343 . S
C98 C99 1.390 . S
C98 H100 0.931 . S
C99 C97 1.321 . S
C99 C98 1.390 . S
C99 H101 0.930 . S
H100 C98 0.931 . S
H101 C99 0.930 . S
H102 C125 0.931 . S
H103 C91 0.929 . S
H104 C126 0.930 . S
H105 C97 0.931 . S
H106 C87 0.930 1_455 S
H107 C116 0.929 . S
H108 C92 0.931 . S
H109 C93 0.930 . S
H110 C148 0.930 . S
H111 C89 0.928 . S
H112 C117 0.931 . S
H113 C118 0.930 . S
N114 Gd94 2.622 . S
N114 C115 1.369 . S
N114 C116 1.338 . S
C115 N114 1.369 . S
C115 C119 1.415 . S
C115 C122 1.422 . S
C116 H107 0.929 . S
C116 N114 1.338 . S
C116 C118 1.378 . S
C117 H112 0.931 . S
C117 C118 1.348 . S
C117 C119 1.413 . S
C118 H113 0.930 . S
C118 C116 1.378 . S
C118 C117 1.348 . S
C119 C115 1.415 . S
C119 C117 1.413 . S
C119 C149 1.437 . S
H120 C149 0.929 . S
N121 Gd94 2.570 . S
N121 C122 1.359 . S
N121 C125 1.343 1_554 S
C122 C115 1.422 . S
C122 N121 1.359 . S
C122 C124 1.421 . S
C123 C124 1.422 1_556 S
C123 C126 1.321 . S
C123 H150 0.931 . S
C124 C122 1.421 . S
C124 C123 1.422 1_554 S
C124 C148 1.417 . S
C125 H102 0.931 . S
C125 N121 1.343 1_556 S
C125 C126 1.390 . S
C126 H104 0.930 . S
C126 C123 1.321 . S
C126 C125 1.390 . S
O127 Gd95 2.386 . S
O127 C139 1.265 . S
O128 Gd94 2.353 . S
O128 C139 1.242 . S
O129 Gd94 2.468 . S
O129 C147 1.263 . S
O130 Gd94 2.427 . S
O130 C147 1.252 . S
O131 Gd95 2.307 . S
O131 C140 1.261 . S
O132 Gd94 2.388 . S
O132 C140 1.252 . S
O133 Gd94 2.386 . S
O133 C151 1.265 . S
O134 Gd95 2.353 . S
O134 C151 1.242 . S
O135 Gd95 2.468 . S
O135 C159 1.263 . S
O136 Gd95 2.427 . S
O136 C159 1.252 . S
O137 Gd94 2.307 . S
O137 C152 1.261 1_554 S
O138 Gd95 2.388 1_556 S
O138 C152 1.252 . S
C139 O127 1.265 . S
C139 O128 1.242 . S
C140 O131 1.261 . S
C140 O132 1.252 . S
C141 C144 1.394 . S
C141 C146 1.370 . S
C141 C147 1.500 . S
C142 C145 1.383 . S
C142 C146 1.395 . S
C143 C144 1.396 . S
C143 C145 1.365 . S
C143 H160 0.929 . S
C144 C141 1.394 . S
C144 C143 1.396 . S
C144 H161 0.930 . S
C145 C142 1.383 . S
C145 C143 1.365 . S
C145 H162 0.931 . S
C146 C141 1.370 . S
C146 C142 1.395 . S
C146 H163 0.930 . S
C147 Gd94 2.805 . S
C147 O129 1.263 . S
C147 O130 1.252 . S
C147 C141 1.500 . S
C148 H110 0.930 . S
C148 C124 1.417 . S
C148 C149 1.329 . S
C149 C119 1.437 . S
C149 H120 0.929 . S
C149 C148 1.329 . S
H150 C123 0.931 . S
C151 O133 1.265 . S
C151 O134 1.242 . S
C152 O137 1.261 1_556 S
C152 O138 1.252 . S
C153 C156 1.394 1_554 S
C153 C158 1.370 . S
C153 C159 1.500 . S
C154 C157 1.383 . S
C154 C158 1.395 . S
C155 C156 1.396 . S
C155 C157 1.365 1_556 S
C155 H164 0.929 . S
C156 C153 1.394 1_556 S
C156 C155 1.396 . S
C156 H165 0.930 . S
C157 C154 1.383 . S
C157 C155 1.365 1_554 S
C157 H166 0.931 . S
C158 C153 1.370 . S
C158 C154 1.395 . S
C158 H167 0.930 . S
C159 Gd95 2.805 . S
C159 O135 1.263 . S
C159 O136 1.252 . S
C159 C153 1.500 . S
H160 C143 0.929 . S
H161 C144 0.930 . S
H162 C145 0.931 . S
H163 C146 0.930 . S
H164 C155 0.929 . S
H165 C156 0.930 . S
H166 C157 0.931 . S
H167 C158 0.930 . S
C168 C170 1.422 1_554 S
C168 C172 1.415 . S
C168 N174 1.369 . S
C169 C170 1.421 . S
C169 C171 1.417 . S
C169 C181 1.422 . S
C170 C168 1.422 1_556 S
C170 C169 1.421 . S
C170 N180 1.359 . S
C171 C169 1.417 . S
C171 C173 1.329 1_556 S
C171 H190 0.930 . S
C172 C168 1.415 . S
C172 C173 1.437 . S
C172 C176 1.413 . S
C173 C171 1.329 1_554 S
C173 C172 1.437 . S
C173 H195 0.929 . S
N174 C168 1.369 . S
N174 C175 1.338 . S
N174 Gd179 2.622 . S
C175 N174 1.338 . S
C175 C177 1.378 . S
C175 H187 0.929 . S
C176 C172 1.413 . S
C176 C177 1.348 . S
C176 H192 0.931 . S
C177 C175 1.378 . S
C177 C176 1.348 . S
C177 H193 0.930 . S
Gd178 N198 2.622 . S
Gd178 N205 2.570 1_556 S
Gd178 O212 2.355 . S
Gd178 O213 2.468 1_556 S
Gd178 O214 2.427 . S
Gd178 O216 2.388 . S
Gd178 O217 2.384 . S
Gd178 O221 2.307 1_556 S
Gd178 C231 2.805 1_556 S
Gd179 N174 2.622 . S
Gd179 N180 2.570 1_554 S
Gd179 O211 2.386 . S
Gd179 O215 2.307 1_554 S
Gd179 O218 2.353 1_565 S
Gd179 O219 2.468 1_554 S
Gd179 O220 2.427 . S
Gd179 O222 2.388 1_565 S
Gd179 C243 2.805 . S
N180 C170 1.359 . S
N180 Gd179 2.570 1_556 S
N180 C182 1.343 . S
C181 C169 1.422 . S
C181 C183 1.321 . S
C181 H189 0.931 . S
C182 N180 1.343 . S
C182 C183 1.390 . S
C182 H184 0.931 . S
C183 C181 1.321 . S
C183 C182 1.390 . S
C183 H185 0.930 . S
H184 C182 0.931 . S
H185 C183 0.930 . S
H186 C209 0.931 . S
H187 C175 0.929 . S
H188 C210 0.930 . S
H189 C181 0.931 . S
H190 C171 0.930 . S
H191 C200 0.929 . S
H192 C176 0.931 . S
H193 C177 0.930 . S
H194 C232 0.930 . S
H195 C173 0.929 . S
H196 C201 0.931 . S
H197 C202 0.930 . S
N198 Gd178 2.622 . S
N198 C199 1.369 . S
N198 C200 1.338 . S
C199 N198 1.369 . S
C199 C203 1.415 . S
C199 C206 1.422 1_556 S
C200 H191 0.929 . S
C200 N198 1.338 . S
C200 C202 1.378 . S
C201 H196 0.931 . S
C201 C202 1.348 . S
C201 C203 1.413 . S
C202 H197 0.930 . S
C202 C200 1.378 . S
C202 C201 1.348 . S
C203 C199 1.415 . S
C203 C201 1.413 . S
C203 C233 1.437 . S
H204 C233 0.929 . S
N205 Gd178 2.570 1_554 S
N205 C206 1.359 . S
N205 C209 1.343 . S
C206 C199 1.422 1_554 S
C206 N205 1.359 . S
C206 C208 1.421 . S
C207 C208 1.422 . S
C207 C210 1.321 . S
C207 H234 0.931 . S
C208 C206 1.421 . S
C208 C207 1.422 . S
C208 C232 1.417 . S
C209 H186 0.931 . S
C209 N205 1.343 . S
C209 C210 1.390 . S
C210 H188 0.930 . S
C210 C207 1.321 . S
C210 C209 1.390 . S
O211 Gd179 2.386 . S
O211 C223 1.267 . S
O212 Gd178 2.355 . S
O212 C223 1.236 1_546 S
O213 Gd178 2.468 1_554 S
O213 C231 1.263 . S
O214 Gd178 2.427 . S
O214 C231 1.252 1_556 S
O215 Gd179 2.307 1_556 S
O215 C224 1.232 1_565 S
O216 Gd178 2.388 . S
O216 C224 1.292 . S
O217 Gd178 2.384 . S
O217 C235 1.262 1_556 S
O218 Gd179 2.353 1_545 S
O218 C235 1.242 . S
O219 Gd179 2.468 1_556 S
O219 C243 1.263 1_556 S
O220 Gd179 2.427 . S
O220 C243 1.252 . S
O221 Gd178 2.307 1_554 S
O221 C236 1.261 . S
O222 Gd179 2.388 1_545 S
O222 C236 1.252 . S
C223 O211 1.267 . S
C223 O212 1.236 1_564 S
C224 O215 1.232 1_545 S
C224 O216 1.292 . S
C225 C228 1.394 1_554 S
C225 C230 1.370 . S
C225 C231 1.500 . S
C226 C229 1.383 . S
C226 C230 1.395 . S
C227 C228 1.396 . S
C227 C229 1.365 1_556 S
C227 H244 0.929 . S
C228 C225 1.394 1_556 S
C228 C227 1.396 . S
C228 H245 0.930 . S
C229 C226 1.383 . S
C229 C227 1.365 1_554 S
C229 H246 0.931 . S
C230 C225 1.370 . S
C230 C226 1.395 . S
C230 H247 0.930 . S
C231 Gd178 2.805 1_554 S
C231 O213 1.263 . S
C231 O214 1.252 1_554 S
C231 C225 1.500 . S
C232 H194 0.930 . S
C232 C208 1.417 . S
C232 C233 1.329 1_554 S
C233 C203 1.437 . S
C233 H204 0.929 . S
C233 C232 1.329 1_556 S
H234 C207 0.931 . S
C235 O217 1.262 1_554 S
C235 O218 1.242 . S
C236 O221 1.261 . S
C236 O222 1.252 . S
C237 C240 1.394 1_556 S
C237 C242 1.370 . S
C237 C243 1.500 1_556 S
C238 C241 1.383 . S
C238 C242 1.395 . S
C239 C240 1.396 . S
C239 C241 1.365 1_554 S
C239 H248 0.929 . S
C240 C237 1.394 1_554 S
C240 C239 1.396 . S
C240 H249 0.930 . S
C241 C238 1.383 . S
C241 C239 1.365 1_556 S
C241 H250 0.931 . S
C242 C237 1.370 . S
C242 C238 1.395 . S
C242 H251 0.930 . S
C243 Gd179 2.805 . S
C243 O219 1.263 1_554 S
C243 O220 1.252 . S
C243 C237 1.500 1_554 S
H244 C227 0.929 . S
H245 C228 0.930 . S
H246 C229 0.931 . S
H247 C230 0.930 . S
H248 C239 0.929 . S
H249 C240 0.930 . S
H250 C241 0.931 . S
H251 C242 0.930 . S
C252 C254 1.422 . S
C252 C256 1.415 1_554 S
C252 N258 1.369 1_554 S
C253 C254 1.421 . S
C253 C255 1.417 . S
C253 C265 1.422 . S
C254 C252 1.422 . S
C254 C253 1.421 . S
C254 N264 1.359 . S
C255 C253 1.417 . S
C255 C257 1.329 1_554 S
C255 H274 0.930 . S
C256 C252 1.415 1_556 S
C256 C257 1.437 . S
C256 C260 1.413 . S
C257 C255 1.329 1_556 S
C257 C256 1.437 . S
C257 H279 0.929 . S
N258 C252 1.369 1_556 S
N258 C259 1.338 . S
N258 Gd263 2.622 1_556 S
C259 N258 1.338 . S
C259 C261 1.378 . S
C259 H271 0.929 . S
C260 C256 1.413 . S
C260 C261 1.348 . S
C260 H276 0.931 . S
C261 C259 1.378 . S
C261 C260 1.348 . S
C261 H277 0.930 . S
Gd262 N282 2.622 . S
Gd262 N289 2.570 . S
Gd262 O296 2.353 . S
Gd262 O297 2.468 . S
Gd262 O298 2.427 . S
Gd262 O300 2.388 . S
Gd262 O301 2.386 . S
Gd262 O305 2.307 . S
Gd262 C315 2.805 . S
Gd263 N258 2.622 1_554 S
Gd263 N264 2.570 . S
Gd263 O295 2.386 . S
Gd263 O299 2.307 . S
Gd263 O302 2.353 . S
Gd263 O303 2.468 . S
Gd263 O304 2.427 . S
Gd263 O306 2.388 1_554 S
Gd263 C327 2.805 . S
N264 C254 1.359 . S
N264 Gd263 2.570 . S
N264 C266 1.343 . S
C265 C253 1.422 . S
C265 C267 1.321 . S
C265 H273 0.931 . S
C266 N264 1.343 . S
C266 C267 1.390 . S
C266 H268 0.931 . S
C267 C265 1.321 . S
C267 C266 1.390 . S
C267 H269 0.930 . S
H268 C266 0.931 . S
H269 C267 0.930 . S
H270 C293 0.931 . S
H271 C259 0.929 . S
H272 C294 0.930 1_556 S
H273 C265 0.931 . S
H274 C255 0.930 . S
H275 C284 0.929 . S
H276 C260 0.931 . S
H277 C261 0.930 . S
H278 C316 0.930 . S
H279 C257 0.929 . S
H280 C285 0.931 . S
H281 C286 0.930 . S
N282 Gd262 2.622 . S
N282 C283 1.369 . S
N282 C284 1.338 . S
C283 N282 1.369 . S
C283 C287 1.415 . S
C283 C290 1.422 . S
C284 H275 0.929 . S
C284 N282 1.338 . S
C284 C286 1.378 . S
C285 H280 0.931 . S
C285 C286 1.348 . S
C285 C287 1.413 . S
C286 H281 0.930 . S
C286 C284 1.378 . S
C286 C285 1.348 . S
C287 C283 1.415 . S
C287 C285 1.413 . S
C287 C317 1.437 . S
H288 C317 0.929 . S
N289 Gd262 2.570 . S
N289 C290 1.359 . S
N289 C293 1.343 . S
C290 C283 1.422 . S
C290 N289 1.359 . S
C290 C292 1.421 . S
C291 C292 1.422 . S
C291 C294 1.321 . S
C291 H318 0.931 . S
C292 C290 1.421 . S
C292 C291 1.422 . S
C292 C316 1.417 . S
C293 H270 0.931 . S
C293 N289 1.343 . S
C293 C294 1.390 . S
C294 H272 0.930 1_554 S
C294 C291 1.321 . S
C294 C293 1.390 . S
O295 Gd263 2.386 . S
O295 C307 1.265 . S
O296 Gd262 2.353 . S
O296 C307 1.242 . S
O297 Gd262 2.468 . S
O297 C315 1.263 . S
O298 Gd262 2.427 . S
O298 C315 1.252 . S
O299 Gd263 2.307 . S
O299 C308 1.261 . S
O300 Gd262 2.388 . S
O300 C308 1.252 . S
O301 Gd262 2.386 . S
O301 C319 1.265 . S
O302 Gd263 2.353 . S
O302 C319 1.242 . S
O303 Gd263 2.468 . S
O303 C327 1.263 . S
O304 Gd263 2.427 . S
O304 C327 1.252 . S
O305 Gd262 2.307 . S
O305 C320 1.261 1_554 S
O306 Gd263 2.388 1_556 S
O306 C320 1.252 . S
C307 O295 1.265 . S
C307 O296 1.242 . S
C308 O299 1.261 . S
C308 O300 1.252 . S
C309 C312 1.394 . S
C309 C314 1.370 . S
C309 C315 1.500 . S
C310 C313 1.383 . S
C310 C314 1.395 . S
C311 C312 1.396 . S
C311 C313 1.365 . S
C311 H328 0.929 . S
C312 C309 1.394 . S
C312 C311 1.396 . S
C312 H329 0.930 . S
C313 C310 1.383 . S
C313 C311 1.365 . S
C313 H330 0.931 . S
C314 C309 1.370 . S
C314 C310 1.395 . S
C314 H331 0.930 1_554 S
C315 Gd262 2.805 . S
C315 O297 1.263 . S
C315 O298 1.252 . S
C315 C309 1.500 . S
C316 H278 0.930 . S
C316 C292 1.417 . S
C316 C317 1.329 . S
C317 C287 1.437 . S
C317 H288 0.929 . S
C317 C316 1.329 . S
H318 C291 0.931 . S
C319 O301 1.265 . S
C319 O302 1.242 . S
C320 O305 1.261 1_556 S
C320 O306 1.252 . S
C321 C324 1.394 . S
C321 C326 1.370 . S
C321 C327 1.500 . S
C322 C325 1.383 . S
C322 C326 1.395 . S
C323 C324 1.396 . S
C323 C325 1.365 . S
C323 H332 0.929 . S
C324 C321 1.394 . S
C324 C323 1.396 . S
C324 H333 0.930 . S
C325 C322 1.383 . S
C325 C323 1.365 . S
C325 H334 0.931 . S
C326 C321 1.370 . S
C326 C322 1.395 . S
C326 H335 0.930 . S
C327 Gd263 2.805 . S
C327 O303 1.263 . S
C327 O304 1.252 . S
C327 C321 1.500 . S
H328 C311 0.929 . S
H329 C312 0.930 . S
H330 C313 0.931 . S
H331 C314 0.930 1_556 S
H332 C323 0.929 . S
H333 C324 0.930 . S
H334 C325 0.931 . S
H335 C326 0.930 . S
C336 C338 1.422 1_556 S
C336 C340 1.415 . S
C336 N342 1.369 . S
C337 C338 1.421 . S
C337 C339 1.417 . S
C337 C349 1.422 . S
C338 C336 1.422 1_554 S
C338 C337 1.421 . S
C338 N348 1.359 . S
C339 C337 1.417 . S
C339 C341 1.329 1_554 S
C339 H358 0.930 . S
C340 C336 1.415 . S
C340 C341 1.437 . S
C340 C344 1.413 . S
C341 C339 1.329 1_556 S
C341 C340 1.437 . S
C341 H363 0.929 . S
N342 C336 1.369 . S
N342 C343 1.338 . S
N342 Gd347 2.622 1_556 S
C343 N342 1.338 . S
C343 C345 1.378 . S
C343 H355 0.929 . S
C344 C340 1.413 . S
C344 C345 1.348 . S
C344 H360 0.931 . S
C345 C343 1.378 . S
C345 C344 1.348 . S
C345 H361 0.930 . S
Gd346 N366 2.622 . S
Gd346 N373 2.570 . S
Gd346 O380 2.353 . S
Gd346 O381 2.468 . S
Gd346 O382 2.427 . S
Gd346 O384 2.388 . S
Gd346 O385 2.386 . S
Gd346 O389 2.307 1_554 S
Gd346 C399 2.805 . S
Gd347 N342 2.622 1_554 S
Gd347 N348 2.570 . S
Gd347 O379 2.386 . S
Gd347 O383 2.307 . S
Gd347 O386 2.353 . S
Gd347 O387 2.468 . S
Gd347 O388 2.427 1_554 S
Gd347 O390 2.388 1_554 S
Gd347 C411 2.805 . S
N348 C338 1.359 . S
N348 Gd347 2.570 . S
N348 C350 1.343 . S
C349 C337 1.422 . S
C349 C351 1.321 . S
C349 H357 0.931 . S
C350 N348 1.343 . S
C350 C351 1.390 . S
C350 H352 0.931 . S
C351 C349 1.321 . S
C351 C350 1.390 . S
C351 H353 0.930 . S
H352 C350 0.931 . S
H353 C351 0.930 . S
H354 C377 0.931 . S
H355 C343 0.929 . S
H356 C378 0.930 . S
H357 C349 0.931 . S
H358 C339 0.930 . S
H359 C368 0.929 . S
H360 C344 0.931 . S
H361 C345 0.930 . S
H362 C400 0.930 . S
H363 C341 0.929 . S
H364 C369 0.931 . S
H365 C370 0.930 . S
N366 Gd346 2.622 . S
N366 C367 1.369 . S
N366 C368 1.338 . S
C367 N366 1.369 . S
C367 C371 1.415 . S
C367 C374 1.422 . S
C368 H359 0.929 . S
C368 N366 1.338 . S
C368 C370 1.378 . S
C369 H364 0.931 . S
C369 C370 1.348 . S
C369 C371 1.413 . S
C370 H365 0.930 . S
C370 C368 1.378 . S
C370 C369 1.348 . S
C371 C367 1.415 . S
C371 C369 1.413 . S
C371 C401 1.437 . S
H372 C401 0.929 . S
N373 Gd346 2.570 . S
N373 C374 1.359 . S
N373 C377 1.343 1_554 S
C374 C367 1.422 . S
C374 N373 1.359 . S
C374 C376 1.421 . S
C375 C376 1.422 1_556 S
C375 C378 1.321 . S
C375 H402 0.931 . S
C376 C374 1.421 . S
C376 C375 1.422 1_554 S
C376 C400 1.417 . S
C377 H354 0.931 . S
C377 N373 1.343 1_556 S
C377 C378 1.390 . S
C378 H356 0.930 . S
C378 C375 1.321 . S
C378 C377 1.390 . S
O379 Gd347 2.386 . S
O379 C391 1.265 . S
O380 Gd346 2.353 . S
O380 C391 1.242 . S
O381 Gd346 2.468 . S
O381 C399 1.263 . S
O382 Gd346 2.427 . S
O382 C399 1.252 . S
O383 Gd347 2.307 . S
O383 C392 1.261 . S
O384 Gd346 2.388 . S
O384 C392 1.252 . S
O385 Gd346 2.386 . S
O385 C403 1.265 . S
O386 Gd347 2.353 . S
O386 C403 1.242 . S
O387 Gd347 2.468 . S
O387 C411 1.263 . S
O388 Gd347 2.427 1_556 S
O388 C411 1.252 1_556 S
O389 Gd346 2.307 1_556 S
O389 C404 1.261 . S
O390 Gd347 2.388 1_556 S
O390 C404 1.252 . S
C391 O379 1.265 . S
C391 O380 1.242 . S
C392 O383 1.261 . S
C392 O384 1.252 . S
C393 C396 1.394 . S
C393 C398 1.370 1_554 S
C393 C399 1.500 . S
C394 C397 1.383 1_556 S
C394 C398 1.395 . S
C395 C396 1.396 . S
C395 C397 1.365 . S
C395 H412 0.929 . S
C396 C393 1.394 . S
C396 C395 1.396 . S
C396 H413 0.930 . S
C397 C394 1.383 1_554 S
C397 C395 1.365 . S
C397 H414 0.931 . S
C398 C393 1.370 1_556 S
C398 C394 1.395 . S
C398 H415 0.930 . S
C399 Gd346 2.805 . S
C399 O381 1.263 . S
C399 O382 1.252 . S
C399 C393 1.500 . S
C400 H362 0.930 . S
C400 C376 1.417 . S
C400 C401 1.329 . S
C401 C371 1.437 . S
C401 H372 0.929 . S
C401 C400 1.329 . S
H402 C375 0.931 . S
C403 O385 1.265 . S
C403 O386 1.242 . S
C404 O389 1.261 . S
C404 O390 1.252 . S
C405 C408 1.394 1_554 S
C405 C410 1.370 . S
C405 C411 1.500 . S
C406 C409 1.383 . S
C406 C410 1.395 . S
C407 C408 1.396 . S
C407 C409 1.365 1_556 S
C407 H416 0.929 . S
C408 C405 1.394 1_556 S
C408 C407 1.396 . S
C408 H417 0.930 . S
C409 C406 1.383 . S
C409 C407 1.365 1_554 S
C409 H418 0.931 . S
C410 C405 1.370 . S
C410 C406 1.395 . S
C410 H419 0.930 . S
C411 Gd347 2.805 . S
C411 O387 1.263 . S
C411 O388 1.252 1_554 S
C411 C405 1.500 . S
H412 C395 0.929 . S
H413 C396 0.930 . S
H414 C397 0.931 . S
H415 C398 0.930 . S
H416 C407 0.929 . S
H417 C408 0.930 . S
H418 C409 0.931 . S
H419 C410 0.930 . S
C420 C422 1.422 . S
C420 C424 1.415 . S
C420 N426 1.369 . S
C421 C422 1.421 . S
C421 C423 1.417 . S
C421 C433 1.422 . S
C422 C420 1.422 . S
C422 C421 1.421 . S
C422 N432 1.359 . S
C423 C421 1.417 . S
C423 C425 1.329 . S
C423 H442 0.930 . S
C424 C420 1.415 . S
C424 C425 1.437 . S
C424 C428 1.413 . S
C425 C423 1.329 . S
C425 C424 1.437 . S
C425 H447 0.929 . S
N426 C420 1.369 . S
N426 C427 1.338 . S
N426 Gd431 2.622 . S
C427 N426 1.338 . S
C427 C429 1.378 1_554 S
C427 H439 0.929 1_554 S
C428 C424 1.413 . S
C428 C429 1.348 1_554 S
C428 H444 0.931 1_554 S
C429 C427 1.378 1_556 S
C429 C428 1.348 1_556 S
C429 H445 0.930 . S
Gd430 N450 2.622 . S
Gd430 N457 2.570 . S
Gd430 O464 2.353 . S
Gd430 O465 2.468 . S
Gd430 O466 2.427 . S
Gd430 O468 2.388 . S
Gd430 O469 2.386 . S
Gd430 O473 2.307 . S
Gd430 C483 2.805 . S
Gd431 N426 2.622 . S
Gd431 N432 2.570 . S
Gd431 O463 2.386 . S
Gd431 O467 2.307 . S
Gd431 O470 2.353 . S
Gd431 O471 2.468 . S
Gd431 O472 2.427 . S
Gd431 O474 2.388 . S
Gd431 C495 2.846 . S
N432 C422 1.359 . S
N432 Gd431 2.570 . S
N432 C434 1.343 . S
C433 C421 1.422 . S
C433 C435 1.321 . S
C433 H441 0.931 . S
C434 N432 1.343 . S
C434 C435 1.390 . S
C434 H436 0.931 . S
C435 C433 1.321 . S
C435 C434 1.390 . S
C435 H437 0.930 . S
H436 C434 0.931 . S
H437 C435 0.930 . S
H438 C461 0.931 1_556 S
H439 C427 0.929 1_556 S
H440 C462 0.930 . S
H441 C433 0.931 . S
H442 C423 0.930 . S
H443 C452 0.929 . S
H444 C428 0.931 1_556 S
H445 C429 0.930 . S
H446 C484 0.930 . S
H447 C425 0.929 . S
H448 C453 0.931 . S
H449 C454 0.930 . S
N450 Gd430 2.622 . S
N450 C451 1.369 . S
N450 C452 1.338 . S
C451 N450 1.369 . S
C451 C455 1.415 . S
C451 C458 1.422 . S
C452 H443 0.929 . S
C452 N450 1.338 . S
C452 C454 1.378 . S
C453 H448 0.931 . S
C453 C454 1.348 . S
C453 C455 1.413 . S
C454 H449 0.930 . S
C454 C452 1.378 . S
C454 C453 1.348 . S
C455 C451 1.415 . S
C455 C453 1.413 . S
C455 C485 1.437 . S
H456 C485 0.929 . S
N457 Gd430 2.570 . S
N457 C458 1.359 . S
N457 C461 1.343 . S
C458 C451 1.422 . S
C458 N457 1.359 . S
C458 C460 1.421 . S
C459 C460 1.422 . S
C459 C462 1.321 1_554 S
C459 H486 0.931 1_554 S
C460 C458 1.421 . S
C460 C459 1.422 . S
C460 C484 1.417 . S
C461 H438 0.931 1_554 S
C461 N457 1.343 . S
C461 C462 1.390 1_554 S
C462 H440 0.930 . S
C462 C459 1.321 1_556 S
C462 C461 1.390 1_556 S
O463 Gd431 2.386 . S
O463 C475 1.265 . S
O464 Gd430 2.353 . S
O464 C475 1.242 . S
O465 Gd430 2.468 . S
O465 C483 1.263 . S
O466 Gd430 2.427 . S
O466 C483 1.252 . S
O467 Gd431 2.307 . S
O467 C476 1.261 . S
O468 Gd430 2.388 . S
O468 C476 1.252 . S
O469 Gd430 2.386 . S
O469 C487 1.265 . S
O470 Gd431 2.353 . S
O470 C487 1.242 . S
O471 Gd431 2.468 . S
O471 C495 1.293 . S
O472 Gd431 2.427 . S
O472 C495 1.264 . S
O473 Gd430 2.307 . S
O473 C488 1.261 . S
O474 Gd431 2.388 . S
O474 C488 1.252 . S
C475 O463 1.265 . S
C475 O464 1.242 . S
C476 O467 1.261 . S
C476 O468 1.252 . S
C477 C480 1.394 . S
C477 C482 1.370 . S
C477 C483 1.500 . S
C478 C481 1.383 1_556 S
C478 C482 1.395 1_556 S
C479 C480 1.396 . S
C479 C481 1.365 . S
C479 H496 0.929 . S
C480 C477 1.394 . S
C480 C479 1.396 . S
C480 H497 0.930 . S
C481 C478 1.383 1_554 S
C481 C479 1.365 . S
C481 H498 0.931 . S
C482 C477 1.370 . S
C482 C478 1.395 1_554 S
C482 H499 0.930 1_554 S
C483 Gd430 2.805 . S
C483 O465 1.263 . S
C483 O466 1.252 . S
C483 C477 1.500 . S
C484 H446 0.930 . S
C484 C460 1.417 . S
C484 C485 1.329 . S
C485 C455 1.437 . S
C485 H456 0.929 . S
C485 C484 1.329 . S
H486 C459 0.931 1_556 S
C487 O469 1.265 . S
C487 O470 1.242 . S
C488 O473 1.261 . S
C488 O474 1.252 . S
C489 C492 1.394 . S
C489 C494 1.370 . S
C489 C495 1.459 1_455 S
C490 C493 1.383 . S
C490 C494 1.395 . S
C491 C492 1.396 . S
C491 C493 1.365 . S
C491 H500 0.929 . S
C492 C489 1.394 . S
C492 C491 1.396 . S
C492 H501 0.930 . S
C493 C490 1.383 . S
C493 C491 1.365 . S
C493 H502 0.931 . S
C494 C489 1.370 . S
C494 C490 1.395 . S
C494 H503 0.930 . S
C495 Gd431 2.846 . S
C495 O471 1.293 . S
C495 O472 1.264 . S
C495 C489 1.459 1_655 S
H496 C479 0.929 . S
H497 C480 0.930 . S
H498 C481 0.931 . S
H499 C482 0.930 1_556 S
H500 C491 0.929 . S
H501 C492 0.930 . S
H502 C493 0.931 . S
H503 C494 0.930 . S
C504 C506 1.422 . S
C504 C508 1.415 . S
C504 N510 1.369 . S
C505 C506 1.421 . S
C505 C507 1.417 . S
C505 C517 1.422 . S
C506 C504 1.422 . S
C506 C505 1.421 . S
C506 N516 1.359 . S
C507 C505 1.417 . S
C507 C509 1.329 . S
C507 H526 0.930 . S
C508 C504 1.415 . S
C508 C509 1.437 . S
C508 C512 1.413 1_556 S
C509 C507 1.329 . S
C509 C508 1.437 . S
C509 H531 0.929 . S
N510 C504 1.369 . S
N510 C511 1.338 1_556 S
N510 Gd515 2.622 . S
C511 N510 1.338 1_554 S
C511 C513 1.378 . S
C511 H523 0.929 . S
C512 C508 1.413 1_554 S
C512 C513 1.348 . S
C512 H528 0.931 . S
C513 C511 1.378 . S
C513 C512 1.348 . S
C513 H529 0.930 . S
Gd514 N534 2.622 . S
Gd514 N541 2.570 . S
Gd514 O548 2.353 . S
Gd514 O549 2.468 . S
Gd514 O550 2.427 . S
Gd514 O552 2.388 . S
Gd514 O553 2.386 . S
Gd514 O557 2.307 . S
Gd514 C567 2.805 . S
Gd515 N510 2.622 . S
Gd515 N516 2.570 . S
Gd515 O547 2.386 . S
Gd515 O551 2.307 . S
Gd515 O554 2.353 . S
Gd515 O555 2.468 . S
Gd515 O556 2.427 . S
Gd515 O558 2.388 . S
Gd515 C579 2.805 . S
N516 C506 1.359 . S
N516 Gd515 2.570 . S
N516 C518 1.343 . S
C517 C505 1.422 . S
C517 C519 1.321 . S
C517 H525 0.931 . S
C518 N516 1.343 . S
C518 C519 1.390 . S
C518 H520 0.931 . S
C519 C517 1.321 . S
C519 C518 1.390 . S
C519 H521 0.930 . S
H520 C518 0.931 . S
H521 C519 0.930 . S
H522 C545 0.931 . S
H523 C511 0.929 . S
H524 C546 0.930 . S
H525 C517 0.931 . S
H526 C507 0.930 . S
H527 C536 0.929 . S
H528 C512 0.931 . S
H529 C513 0.930 . S
H530 C568 0.930 . S
H531 C509 0.929 . S
H532 C537 0.931 . S
H533 C538 0.930 . S
N534 Gd514 2.622 . S
N534 C535 1.369 . S
N534 C536 1.338 . S
C535 N534 1.369 . S
C535 C539 1.415 . S
C535 C542 1.422 . S
C536 H527 0.929 . S
C536 N534 1.338 . S
C536 C538 1.378 . S
C537 H532 0.931 . S
C537 C538 1.348 . S
C537 C539 1.413 . S
C538 H533 0.930 . S
C538 C536 1.378 . S
C538 C537 1.348 . S
C539 C535 1.415 . S
C539 C537 1.413 . S
C539 C569 1.437 . S
H540 C569 0.929 . S
N541 Gd514 2.570 . S
N541 C542 1.359 . S
N541 C545 1.343 . S
C542 C535 1.422 . S
C542 N541 1.359 . S
C542 C544 1.421 . S
C543 C544 1.422 . S
C543 C546 1.321 . S
C543 H570 0.931 . S
C544 C542 1.421 . S
C544 C543 1.422 . S
C544 C568 1.417 . S
C545 H522 0.931 . S
C545 N541 1.343 . S
C545 C546 1.390 . S
C546 H524 0.930 . S
C546 C543 1.321 . S
C546 C545 1.390 . S
O547 Gd515 2.386 . S
O547 C559 1.265 . S
O548 Gd514 2.353 . S
O548 C559 1.242 . S
O549 Gd514 2.468 . S
O549 C567 1.263 . S
O550 Gd514 2.427 . S
O550 C567 1.252 . S
O551 Gd515 2.307 . S
O551 C560 1.261 . S
O552 Gd514 2.388 . S
O552 C560 1.252 . S
O553 Gd514 2.386 . S
O553 C571 1.265 . S
O554 Gd515 2.353 . S
O554 C571 1.242 . S
O555 Gd515 2.468 . S
O555 C579 1.263 . S
O556 Gd515 2.427 . S
O556 C579 1.252 . S
O557 Gd514 2.307 . S
O557 C572 1.261 . S
O558 Gd515 2.388 . S
O558 C572 1.252 . S
C559 O547 1.265 . S
C559 O548 1.242 . S
C560 O551 1.261 . S
C560 O552 1.252 . S
C561 C564 1.394 . S
C561 C566 1.370 . S
C561 C567 1.500 . S
C562 C565 1.383 . S
C562 C566 1.395 . S
C563 C564 1.396 . S
C563 C565 1.365 . S
C563 H580 0.929 . S
C564 C561 1.394 . S
C564 C563 1.396 . S
C564 H581 0.930 . S
C565 C562 1.383 . S
C565 C563 1.365 . S
C565 H582 0.931 . S
C566 C561 1.370 . S
C566 C562 1.395 . S
C566 H583 0.930 . S
C567 Gd514 2.805 . S
C567 O549 1.263 . S
C567 O550 1.252 . S
C567 C561 1.500 . S
C568 H530 0.930 . S
C568 C544 1.417 . S
C568 C569 1.329 . S
C569 C539 1.437 . S
C569 H540 0.929 . S
C569 C568 1.329 . S
H570 C543 0.931 . S
C571 O553 1.265 . S
C571 O554 1.242 . S
C572 O557 1.261 . S
C572 O558 1.252 . S
C573 C576 1.394 . S
C573 C578 1.370 . S
C573 C579 1.500 . S
C574 C577 1.383 1_565 S
C574 C578 1.395 . S
C575 C576 1.396 . S
C575 C577 1.365 1_565 S
C575 H584 0.929 1_565 S
C576 C573 1.394 . S
C576 C575 1.396 . S
C576 H585 0.930 . S
C577 C574 1.383 1_545 S
C577 C575 1.365 1_545 S
C577 H586 0.931 . S
C578 C573 1.370 . S
C578 C574 1.395 . S
C578 H587 0.930 . S
C579 Gd515 2.805 . S
C579 O555 1.263 . S
C579 O556 1.252 . S
C579 C573 1.500 . S
H580 C563 0.929 . S
H581 C564 0.930 . S
H582 C565 0.931 . S
H583 C566 0.930 . S
H584 C575 0.929 1_545 S
H585 C576 0.930 . S
H586 C577 0.931 . S
H587 C578 0.930 . S
C588 C590 1.422 . S
C588 C592 1.415 . S
C588 N594 1.369 . S
C589 C590 1.421 . S
C589 C591 1.417 . S
C589 C601 1.422 1_556 S
C590 C588 1.422 . S
C590 C589 1.421 . S
C590 N600 1.359 . S
C591 C589 1.417 . S
C591 C593 1.329 . S
C591 H610 0.930 . S
C592 C588 1.415 . S
C592 C593 1.437 . S
C592 C596 1.413 . S
C593 C591 1.329 . S
C593 C592 1.437 . S
C593 H615 0.929 . S
N594 C588 1.369 . S
N594 C595 1.338 . S
N594 Gd599 2.622 . S
C595 N594 1.338 . S
C595 C597 1.378 . S
C595 H607 0.929 . S
C596 C592 1.413 . S
C596 C597 1.348 . S
C596 H612 0.931 . S
C597 C595 1.378 . S
C597 C596 1.348 . S
C597 H613 0.930 . S
Gd598 N618 2.622 . S
Gd598 N625 2.570 . S
Gd598 O632 2.353 . S
Gd598 O633 2.468 . S
Gd598 O634 2.427 . S
Gd598 O636 2.388 1_556 S
Gd598 O637 2.386 . S
Gd598 O641 2.307 . S
Gd598 C651 2.805 . S
Gd599 N594 2.622 . S
Gd599 N600 2.570 . S
Gd599 O631 2.386 . S
Gd599 O635 2.307 . S
Gd599 O638 2.353 . S
Gd599 O639 2.468 . S
Gd599 O640 2.427 . S
Gd599 O642 2.388 . S
Gd599 C663 2.805 . S
N600 C590 1.359 . S
N600 Gd599 2.570 . S
N600 C602 1.343 1_556 S
C601 C589 1.422 1_554 S
C601 C603 1.321 . S
C601 H609 0.931 . S
C602 N600 1.343 1_554 S
C602 C603 1.390 . S
C602 H604 0.931 . S
C603 C601 1.321 . S
C603 C602 1.390 . S
C603 H605 0.930 . S
H604 C602 0.931 . S
H605 C603 0.930 . S
H606 C629 0.931 . S
H607 C595 0.929 . S
H608 C630 0.930 . S
H609 C601 0.931 . S
H610 C591 0.930 . S
H611 C620 0.929 . S
H612 C596 0.931 . S
H613 C597 0.930 . S
H614 C652 0.930 . S
H615 C593 0.929 . S
H616 C621 0.931 . S
H617 C622 0.930 . S
N618 Gd598 2.622 . S
N618 C619 1.369 . S
N618 C620 1.338 1_556 S
C619 N618 1.369 . S
C619 C623 1.415 . S
C619 C626 1.422 . S
C620 H611 0.929 . S
C620 N618 1.338 1_554 S
C620 C622 1.378 . S
C621 H616 0.931 . S
C621 C622 1.348 . S
C621 C623 1.413 1_554 S
C622 H617 0.930 . S
C622 C620 1.378 . S
C622 C621 1.348 . S
C623 C619 1.415 . S
C623 C621 1.413 1_556 S
C623 C653 1.437 . S
H624 C653 0.929 . S
N625 Gd598 2.570 . S
N625 C626 1.359 . S
N625 C629 1.343 . S
C626 C619 1.422 . S
C626 N625 1.359 . S
C626 C628 1.421 . S
C627 C628 1.422 . S
C627 C630 1.321 . S
C627 H654 0.931 . S
C628 C626 1.421 . S
C628 C627 1.422 . S
C628 C652 1.417 . S
C629 H606 0.931 . S
C629 N625 1.343 . S
C629 C630 1.390 . S
C630 H608 0.930 . S
C630 C627 1.321 . S
C630 C629 1.390 . S
O631 Gd599 2.386 . S
O631 C643 1.265 . S
O632 Gd598 2.353 . S
O632 C643 1.242 . S
O633 Gd598 2.468 . S
O633 C651 1.263 . S
O634 Gd598 2.427 . S
O634 C651 1.252 . S
O635 Gd599 2.307 . S
O635 C644 1.261 1_556 S
O636 Gd598 2.388 1_554 S
O636 C644 1.252 . S
O637 Gd598 2.386 . S
O637 C655 1.265 . S
O638 Gd599 2.353 . S
O638 C655 1.242 . S
O639 Gd599 2.468 . S
O639 C663 1.263 . S
O640 Gd599 2.427 . S
O640 C663 1.252 . S
O641 Gd598 2.307 . S
O641 C656 1.261 . S
O642 Gd599 2.388 . S
O642 C656 1.252 . S
C643 O631 1.265 . S
C643 O632 1.242 . S
C644 O635 1.261 1_554 S
C644 O636 1.252 . S
C645 C648 1.394 . S
C645 C650 1.370 . S
C645 C651 1.500 . S
C646 C649 1.383 . S
C646 C650 1.395 . S
C647 C648 1.396 . S
C647 C649 1.365 . S
C647 H664 0.930 1_556 S
C648 C645 1.394 . S
C648 C647 1.396 . S
C648 H665 0.918 1_556 S
C649 C646 1.383 . S
C649 C647 1.365 . S
C649 H666 0.931 . S
C650 C645 1.370 . S
C650 C646 1.395 . S
C650 H667 0.930 . S
C651 Gd598 2.805 . S
C651 O633 1.263 . S
C651 O634 1.252 . S
C651 C645 1.500 . S
C652 H614 0.930 . S
C652 C628 1.417 . S
C652 C653 1.329 . S
C653 C623 1.437 . S
C653 H624 0.929 . S
C653 C652 1.329 . S
H654 C627 0.931 . S
C655 O637 1.265 . S
C655 O638 1.242 . S
C656 O641 1.261 . S
C656 O642 1.252 . S
C657 C660 1.394 . S
C657 C662 1.370 . S
C657 C663 1.500 . S
C658 C661 1.383 . S
C658 C662 1.395 . S
C659 C660 1.396 . S
C659 C661 1.365 . S
C659 H668 0.929 . S
C660 C657 1.394 . S
C660 C659 1.396 . S
C660 H669 0.930 . S
C661 C658 1.383 . S
C661 C659 1.365 . S
C661 H670 0.931 . S
C662 C657 1.370 . S
C662 C658 1.395 . S
C662 H671 0.930 . S
C663 Gd599 2.805 . S
C663 O639 1.263 . S
C663 O640 1.252 . S
C663 C657 1.500 . S
H664 C647 0.930 1_554 S
H665 C648 0.918 1_554 S
H666 C649 0.931 . S
H667 C650 0.930 . S
H668 C659 0.929 . S
H669 C660 0.930 . S
H670 C661 0.931 . S
H671 C662 0.930 . S
C672 C674 1.422 . S
C672 C676 1.415 . S
C672 N678 1.369 . S
C673 C674 1.421 . S
C673 C675 1.417 . S
C673 C685 1.422 . S
C674 C672 1.422 . S
C674 C673 1.421 . S
C674 N684 1.359 . S
C675 C673 1.417 . S
C675 C677 1.329 . S
C675 H694 0.930 . S
C676 C672 1.415 . S
C676 C677 1.437 . S
C676 C680 1.413 1_556 S
C677 C675 1.329 . S
C677 C676 1.437 . S
C677 H699 0.929 . S
N678 C672 1.369 . S
N678 C679 1.338 1_556 S
N678 Gd683 2.622 . S
C679 N678 1.338 1_554 S
C679 C681 1.378 . S
C679 H691 0.929 . S
C680 C676 1.413 1_554 S
C680 C681 1.348 . S
C680 H696 0.931 . S
C681 C679 1.378 . S
C681 C680 1.348 . S
C681 H697 0.930 . S
Gd682 N702 2.622 . S
Gd682 N709 2.570 . S
Gd682 O716 2.353 . S
Gd682 O717 2.468 . S
Gd682 O718 2.427 . S
Gd682 O720 2.388 . S
Gd682 O721 2.386 . S
Gd682 O725 2.307 . S
Gd682 C735 2.805 . S
Gd683 N678 2.622 . S
Gd683 N684 2.570 . S
Gd683 O715 2.386 . S
Gd683 O719 2.307 . S
Gd683 O722 2.353 . S
Gd683 O723 2.468 . S
Gd683 O724 2.427 . S
Gd683 O726 2.388 1_556 S
Gd683 C747 2.805 . S
N684 C674 1.359 . S
N684 Gd683 2.570 . S
N684 C686 1.343 . S
C685 C673 1.422 . S
C685 C687 1.321 . S
C685 H693 0.931 . S
C686 N684 1.343 . S
C686 C687 1.390 . S
C686 H688 0.931 . S
C687 C685 1.321 . S
C687 C686 1.390 . S
C687 H689 0.930 . S
H688 C686 0.931 . S
H689 C687 0.930 . S
H690 C713 0.931 . S
H691 C679 0.929 . S
H692 C714 0.930 . S
H693 C685 0.931 . S
H694 C675 0.930 . S
H695 C704 0.929 . S
H696 C680 0.931 . S
H697 C681 0.930 . S
H698 C736 0.930 . S
H699 C677 0.929 . S
H700 C705 0.931 . S
H701 C706 0.930 . S
N702 Gd682 2.622 . S
N702 C703 1.369 . S
N702 C704 1.338 . S
C703 N702 1.369 . S
C703 C707 1.415 . S
C703 C710 1.422 . S
C704 H695 0.929 . S
C704 N702 1.338 . S
C704 C706 1.378 . S
C705 H700 0.931 . S
C705 C706 1.348 . S
C705 C707 1.413 . S
C706 H701 0.930 . S
C706 C704 1.378 . S
C706 C705 1.348 . S
C707 C703 1.415 . S
C707 C705 1.413 . S
C707 C737 1.437 . S
H708 C737 0.929 . S
N709 Gd682 2.570 . S
N709 C710 1.359 . S
N709 C713 1.343 1_556 S
C710 C703 1.422 . S
C710 N709 1.359 . S
C710 C712 1.421 . S
C711 C712 1.422 1_554 S
C711 C714 1.321 . S
C711 H738 0.931 . S
C712 C710 1.421 . S
C712 C711 1.422 1_556 S
C712 C736 1.417 . S
C713 H690 0.931 . S
C713 N709 1.343 1_554 S
C713 C714 1.390 . S
C714 H692 0.930 . S
C714 C711 1.321 . S
C714 C713 1.390 . S
O715 Gd683 2.386 . S
O715 C727 1.265 . S
O716 Gd682 2.353 . S
O716 C727 1.242 . S
O717 Gd682 2.468 . S
O717 C735 1.263 . S
O718 Gd682 2.427 . S
O718 C735 1.252 . S
O719 Gd683 2.307 . S
O719 C728 1.261 . S
O720 Gd682 2.388 . S
O720 C728 1.252 . S
O721 Gd682 2.386 . S
O721 C739 1.265 . S
O722 Gd683 2.353 . S
O722 C739 1.242 . S
O723 Gd683 2.468 . S
O723 C747 1.263 . S
O724 Gd683 2.427 . S
O724 C747 1.252 . S
O725 Gd682 2.307 . S
O725 C740 1.261 1_556 S
O726 Gd683 2.388 1_554 S
O726 C740 1.252 . S
C727 O715 1.265 . S
C727 O716 1.242 . S
C728 O719 1.261 . S
C728 O720 1.252 . S
C729 C732 1.394 . S
C729 C734 1.370 . S
C729 C735 1.500 . S
C730 C733 1.383 . S
C730 C734 1.395 . S
C731 C732 1.396 . S
C731 C733 1.365 . S
C731 H748 0.929 . S
C732 C729 1.394 . S
C732 C731 1.396 . S
C732 H749 0.930 . S
C733 C730 1.383 . S
C733 C731 1.365 . S
C733 H750 0.931 . S
C734 C729 1.370 . S
C734 C730 1.395 . S
C734 H751 0.930 1_556 S
C735 Gd682 2.805 . S
C735 O717 1.263 . S
C735 O718 1.252 . S
C735 C729 1.500 . S
C736 H698 0.930 . S
C736 C712 1.417 . S
C736 C737 1.329 . S
C737 C707 1.437 . S
C737 H708 0.929 . S
C737 C736 1.329 . S
H738 C711 0.931 . S
C739 O721 1.265 . S
C739 O722 1.242 . S
C740 O725 1.261 1_554 S
C740 O726 1.252 . S
C741 C744 1.394 . S
C741 C746 1.370 . S
C741 C747 1.500 . S
C742 C745 1.383 . S
C742 C746 1.395 . S
C743 C744 1.396 . S
C743 C745 1.365 . S
C743 H752 0.929 . S
C744 C741 1.394 . S
C744 C743 1.396 . S
C744 H753 0.930 . S
C745 C742 1.383 . S
C745 C743 1.365 . S
C745 H754 0.931 . S
C746 C741 1.370 . S
C746 C742 1.395 . S
C746 H755 0.930 . S
C747 Gd683 2.805 . S
C747 O723 1.263 . S
C747 O724 1.252 . S
C747 C741 1.500 . S
H748 C731 0.929 . S
H749 C732 0.930 . S
H750 C733 0.931 . S
H751 C734 0.930 1_554 S
H752 C743 0.929 . S
H753 C744 0.930 . S
H754 C745 0.931 . S
H755 C746 0.930 . S
H756 C762 0.930 . S
H757 C766 0.930 . S
H758 C771 0.929 . S
H759 C769 0.929 . S
H760 C764 0.929 . S
H761 C770 0.929 . S
C762 H756 0.930 . S
C762 C763 1.367 . S
C762 C770 1.378 . S
C763 C762 1.367 . S
C763 C771 1.433 . S
C764 H760 0.929 . S
C764 C766 1.378 1_554 S
C764 C768 1.350 . S
C765 C768 1.463 . S
C765 C770 1.350 . S
C765 N773 1.427 . S
C766 H757 0.930 . S
C766 C764 1.378 1_556 S
C766 C767 1.367 . S
C767 C766 1.367 . S
C767 C769 1.433 . S
C768 C764 1.350 . S
C768 C765 1.463 . S
C768 N772 1.427 1_554 S
C769 H759 0.929 . S
C769 C767 1.433 . S
C769 N772 1.384 . S
C770 H761 0.929 . S
C770 C762 1.378 . S
C770 C765 1.350 . S
C771 H758 0.929 . S
C771 C763 1.433 . S
C771 N773 1.384 . S
N772 C768 1.427 1_556 S
N772 C769 1.384 . S
N773 C765 1.427 . S
N773 C771 1.384 . S
H774 C780 0.930 . S
H775 C784 0.930 . S
H776 C789 0.929 . S
H777 C787 0.929 . S
H778 C782 0.929 1_554 S
H779 C788 0.929 . S
C780 H774 0.930 . S
C780 C781 1.367 1_556 S
C780 C788 1.378 . S
C781 C780 1.367 1_554 S
C781 C789 1.433 . S
C782 H778 0.929 1_556 S
C782 C784 1.378 . S
C782 C786 1.350 . S
C783 C786 1.463 . S
C783 C788 1.350 . S
C783 N791 1.427 1_556 S
C784 H775 0.930 . S
C784 C782 1.378 . S
C784 C785 1.367 . S
C785 C784 1.367 . S
C785 C787 1.433 . S
C786 C782 1.350 . S
C786 C783 1.463 . S
C786 N790 1.427 . S
C787 H777 0.929 . S
C787 C785 1.433 . S
C787 N790 1.384 . S
C788 H779 0.929 . S
C788 C780 1.378 . S
C788 C783 1.350 . S
C789 H776 0.929 . S
C789 C781 1.433 . S
C789 N791 1.384 . S
N790 C786 1.427 . S
N790 C787 1.384 . S
N791 C783 1.427 1_554 S
N791 C789 1.384 . S
H792 C798 0.930 . S
H793 C802 0.930 . S
H794 C807 0.929 . S
H795 C805 0.929 . S
H796 C800 0.929 . S
H797 C806 0.929 . S
C798 H792 0.930 . S
C798 C799 1.367 . S
C798 C806 1.378 . S
C799 C798 1.367 . S
C799 C807 1.433 . S
C800 H796 0.929 . S
C800 C802 1.378 . S
C800 C804 1.350 . S
C801 C804 1.463 . S
C801 C806 1.350 . S
C801 N809 1.427 . S
C802 H793 0.930 . S
C802 C800 1.378 . S
C802 C803 1.367 . S
C803 C802 1.367 . S
C803 C805 1.433 . S
C804 C800 1.350 . S
C804 C801 1.463 . S
C804 N808 1.427 . S
C805 H795 0.929 . S
C805 C803 1.433 . S
C805 N808 1.384 . S
C806 H797 0.929 . S
C806 C798 1.378 . S
C806 C801 1.350 . S
C807 H794 0.929 . S
C807 C799 1.433 . S
C807 N809 1.384 . S
N808 C804 1.427 . S
N808 C805 1.384 . S
N809 C801 1.427 . S
N809 C807 1.384 . S
H810 C816 0.930 . S
H811 C820 0.930 . S
H812 C825 0.929 . S
H813 C823 0.929 . S
H814 C818 0.929 . S
H815 C824 0.929 . S
C816 H810 0.930 . S
C816 C817 1.367 . S
C816 C824 1.378 . S
C817 C816 1.367 . S
C817 C825 1.433 1_554 S
C818 H814 0.929 . S
C818 C820 1.378 . S
C818 C822 1.350 1_556 S
C819 C822 1.463 . S
C819 C824 1.350 . S
C819 N827 1.427 1_554 S
C820 H811 0.930 . S
C820 C818 1.378 . S
C820 C821 1.367 1_556 S
C821 C820 1.367 1_554 S
C821 C823 1.433 . S
C822 C818 1.350 1_554 S
C822 C819 1.463 . S
C822 N826 1.427 . S
C823 H813 0.929 . S
C823 C821 1.433 . S
C823 N826 1.384 . S
C824 H815 0.929 . S
C824 C816 1.378 . S
C824 C819 1.350 . S
C825 H812 0.929 . S
C825 C817 1.433 1_556 S
C825 N827 1.384 . S
N826 C822 1.427 . S
N826 C823 1.384 . S
N827 C819 1.427 1_556 S
N827 C825 1.384 . S
H828 C834 0.930 . S
H829 C838 0.930 1_455 S
H830 C843 0.929 . S
H831 C841 0.929 . S
H832 C836 0.929 . S
H833 C842 0.929 . S
C834 H828 0.930 . S
C834 C835 1.367 . S
C834 C842 1.378 . S
C835 C834 1.367 . S
C835 C843 1.433 . S
C836 H832 0.929 . S
C836 C838 1.378 . S
C836 C840 1.350 . S
C837 C840 1.463 . S
C837 C842 1.350 . S
C837 N845 1.427 . S
C838 H829 0.930 1_655 S
C838 C836 1.378 . S
C838 C839 1.356 1_655 S
C839 C838 1.356 1_455 S
C839 C841 1.412 1_455 S
C840 C836 1.350 . S
C840 C837 1.463 . S
C840 N844 1.427 . S
C841 H831 0.929 . S
C841 C839 1.412 1_655 S
C841 N844 1.384 . S
C842 H833 0.929 . S
C842 C834 1.378 . S
C842 C837 1.350 . S
C843 H830 0.929 . S
C843 C835 1.433 . S
C843 N845 1.384 . S
N844 C840 1.427 . S
N844 C841 1.384 . S
N845 C837 1.427 . S
N845 C843 1.384 . S
H846 C852 0.930 . S
H847 C856 0.930 . S
H848 C861 0.929 . S
H849 C859 0.929 . S
H850 C854 0.929 . S
H851 C860 0.929 . S
C852 H846 0.930 . S
C852 C853 1.367 . S
C852 C860 1.378 . S
C853 C852 1.367 . S
C853 C861 1.433 . S
C854 H850 0.929 . S
C854 C856 1.378 . S
C854 C858 1.350 . S
C855 C858 1.463 . S
C855 C860 1.350 . S
C855 N863 1.427 . S
C856 H847 0.930 . S
C856 C854 1.378 . S
C856 C857 1.367 . S
C857 C856 1.367 . S
C857 C859 1.433 . S
C858 C854 1.350 . S
C858 C855 1.463 . S
C858 N862 1.427 . S
C859 H849 0.929 . S
C859 C857 1.433 . S
C859 N862 1.384 . S
C860 H851 0.929 . S
C860 C852 1.378 . S
C860 C855 1.350 . S
C861 H848 0.929 . S
C861 C853 1.433 . S
C861 N863 1.384 . S
N862 C858 1.427 . S
N862 C859 1.384 . S
N863 C855 1.427 . S
N863 C861 1.384 . S
H864 C870 0.930 . S
H865 C874 0.930 . S
H866 C879 0.929 . S
H867 C877 0.929 . S
H868 C872 0.929 . S
H869 C878 0.929 . S
C870 H864 0.930 . S
C870 C871 1.367 . S
C870 C878 1.378 . S
C871 C870 1.367 . S
C871 C879 1.433 . S
C872 H868 0.929 . S
C872 C874 1.378 . S
C872 C876 1.350 . S
C873 C876 1.463 . S
C873 C878 1.350 . S
C873 N881 1.427 . S
C874 H865 0.930 . S
C874 C872 1.378 . S
C874 C875 1.367 . S
C875 C874 1.367 . S
C875 C877 1.433 . S
C876 C872 1.350 . S
C876 C873 1.463 . S
C876 N880 1.427 . S
C877 H867 0.929 . S
C877 C875 1.433 . S
C877 N880 1.384 . S
C878 H869 0.929 . S
C878 C870 1.378 . S
C878 C873 1.350 . S
C879 H866 0.929 . S
C879 C871 1.433 . S
C879 N881 1.384 . S
N880 C876 1.427 . S
N880 C877 1.384 . S
N881 C873 1.427 . S
N881 C879 1.384 . S
H882 C888 0.930 . S
H883 C892 0.930 . S
H884 C897 0.929 . S
H885 C895 0.929 . S
H886 C890 0.929 . S
H887 C896 0.929 . S
C888 H882 0.930 . S
C888 C889 1.367 . S
C888 C896 1.378 . S
C889 C888 1.367 . S
C889 C897 1.433 . S
C890 H886 0.929 . S
C890 C892 1.378 . S
C890 C894 1.350 . S
C891 C894 1.463 . S
C891 C896 1.350 . S
C891 N899 1.427 . S
C892 H883 0.930 . S
C892 C890 1.378 . S
C892 C893 1.367 . S
C893 C892 1.367 . S
C893 C895 1.433 . S
C894 C890 1.350 . S
C894 C891 1.463 . S
C894 N898 1.427 . S
C895 H885 0.929 . S
C895 C893 1.433 . S
C895 N898 1.384 . S
C896 H887 0.929 . S
C896 C888 1.378 . S
C896 C891 1.350 . S
C897 H884 0.929 . S
C897 C889 1.433 . S
C897 N899 1.384 . S
N898 C894 1.427 . S
N898 C895 1.384 . S
N899 C891 1.427 . S
N899 C897 1.384 . S
H900 C906 0.930 . S
H901 C910 0.930 . S
H902 C915 0.929 . S
H903 C913 0.929 . S
H904 C908 0.929 . S
H905 C914 0.929 . S
C906 H900 0.930 . S
C906 C907 1.367 . S
C906 C914 1.378 . S
C907 C906 1.367 . S
C907 C915 1.433 . S
C908 H904 0.929 . S
C908 C910 1.378 . S
C908 C912 1.350 . S
C909 C912 1.463 . S
C909 C914 1.350 . S
C909 N917 1.427 . S
C910 H901 0.930 . S
C910 C908 1.378 . S
C910 C911 1.322 1_545 S
C911 C910 1.322 1_565 S
C911 C913 1.444 . S
C912 C908 1.350 . S
C912 C909 1.463 . S
C912 N916 1.427 1_545 S
C913 H903 0.929 . S
C913 C911 1.444 . S
C913 N916 1.384 . S
C914 H905 0.929 . S
C914 C906 1.378 . S
C914 C909 1.350 . S
C915 H902 0.929 . S
C915 C907 1.433 . S
C915 N917 1.384 . S
N916 C912 1.427 1_565 S
N916 C913 1.384 . S
N917 C909 1.427 . S
N917 C915 1.384 . S
H918 C924 0.930 . S
H919 C928 0.930 . S
H920 C933 0.929 . S
H921 C931 0.929 . S
H922 C926 0.929 . S
H923 C932 0.929 . S
C924 H918 0.930 . S
C924 C925 1.367 . S
C924 C932 1.378 . S
C925 C924 1.367 . S
C925 C933 1.433 . S
C926 H922 0.929 . S
C926 C928 1.378 . S
C926 C930 1.350 . S
C927 C930 1.463 . S
C927 C932 1.350 . S
C927 N935 1.427 . S
C928 H919 0.930 . S
C928 C926 1.378 . S
C928 C929 1.367 . S
C929 C928 1.367 . S
C929 C931 1.433 . S
C930 C926 1.350 . S
C930 C927 1.463 . S
C930 N934 1.427 . S
C931 H921 0.929 . S
C931 C929 1.433 . S
C931 N934 1.384 . S
C932 H923 0.929 . S
C932 C924 1.378 . S
C932 C927 1.350 . S
C933 H920 0.929 . S
C933 C925 1.433 . S
C933 N935 1.384 . S
N934 C930 1.427 . S
N934 C931 1.384 . S
N935 C927 1.427 . S
N935 C933 1.384 . S
H936 C942 0.930 . S
H937 C946 0.930 . S
H938 C951 0.929 . S
H939 C949 0.929 . S
H940 C944 0.929 1_565 S
H941 C950 0.929 1_556 S
C942 H936 0.930 . S
C942 C943 1.367 1_556 S
C942 C950 1.378 1_556 S
C943 C942 1.367 1_554 S
C943 C951 1.433 . S
C944 H940 0.929 1_545 S
C944 C946 1.378 . S
C944 C948 1.350 . S
C945 C948 1.463 1_565 S
C945 C950 1.350 . S
C945 N953 1.427 . S
C946 H937 0.930 . S
C946 C944 1.378 . S
C946 C947 1.367 . S
C947 C946 1.367 . S
C947 C949 1.433 . S
C948 C944 1.350 . S
C948 C945 1.463 1_545 S
C948 N952 1.427 . S
C949 H939 0.929 . S
C949 C947 1.433 . S
C949 N952 1.384 . S
C950 H941 0.929 1_554 S
C950 C942 1.378 1_554 S
C950 C945 1.350 . S
C951 H938 0.929 . S
C951 C943 1.433 . S
C951 N953 1.384 . S
N952 C948 1.427 . S
N952 C949 1.384 . S
N953 C945 1.427 . S
N953 C951 1.384 . S
H954 C960 0.930 1_655 S
H955 C964 0.930 . S
H956 C969 0.929 1_655 S
H957 C967 0.929 . S
H958 C962 0.929 . S
H959 C968 0.929 . S
C960 H954 0.930 1_455 S
C960 C961 1.367 1_455 S
C960 C968 1.378 . S
C961 C960 1.367 1_655 S
C961 C969 1.433 1_655 S
C962 H958 0.929 . S
C962 C964 1.378 . S
C962 C966 1.350 1_556 S
C963 C966 1.463 . S
C963 C968 1.350 . S
C963 N971 1.427 . S
C964 H955 0.930 . S
C964 C962 1.378 . S
C964 C965 1.367 1_556 S
C965 C964 1.367 1_554 S
C965 C967 1.433 . S
C966 C962 1.350 1_554 S
C966 C963 1.463 . S
C966 N970 1.427 . S
C967 H957 0.929 . S
C967 C965 1.433 . S
C967 N970 1.384 . S
C968 H959 0.929 . S
C968 C960 1.378 . S
C968 C963 1.350 . S
C969 H956 0.929 1_455 S
C969 C961 1.433 1_455 S
C969 N971 1.384 . S
N970 C966 1.427 . S
N970 C967 1.384 . S
N971 C963 1.427 . S
N971 C969 1.384 . S
H972 C978 0.930 . S
H973 C982 0.930 . S
H974 C987 0.929 . S
H975 C985 0.929 . S
H976 C980 0.929 . S
H977 C986 0.929 . S
C978 H972 0.930 . S
C978 C979 1.367 . S
C978 C986 1.378 . S
C979 C978 1.367 . S
C979 C987 1.433 1_554 S
C980 H976 0.929 . S
C980 C982 1.378 . S
C980 C984 1.350 . S
C981 C984 1.463 . S
C981 C986 1.350 . S
C981 N989 1.427 . S
C982 H973 0.930 . S
C982 C980 1.378 . S
C982 C983 1.367 . S
C983 C982 1.367 . S
C983 C985 1.433 . S
C984 C980 1.350 . S
C984 C981 1.463 . S
C984 N988 1.427 . S
C985 H975 0.929 . S
C985 C983 1.433 . S
C985 N988 1.384 . S
C986 H977 0.929 . S
C986 C978 1.378 . S
C986 C981 1.350 . S
C987 H974 0.929 . S
C987 C979 1.433 1_556 S
C987 N989 1.384 1_556 S
N988 C984 1.427 . S
N988 C985 1.384 . S
N989 C981 1.427 . S
N989 C987 1.384 1_554 S
H990 C996 0.930 1_556 S
H991 C1000 0.930 . S
H992 C1005 0.929 . S
H993 C1003 0.929 . S
H994 C998 0.929 . S
H995 C1004 0.929 . S
C996 H990 0.930 1_554 S
C996 C997 1.367 . S
C996 C1004 1.378 1_554 S
C997 C996 1.367 . S
C997 C1005 1.433 . S
C998 H994 0.929 . S
C998 C1000 1.378 . S
C998 C1002 1.350 . S
C999 C1002 1.463 . S
C999 C1004 1.350 1_554 S
C999 N1007 1.427 . S
C1000 H991 0.930 . S
C1000 C998 1.378 . S
C1000 C1001 1.367 1_554 S
C1001 C1000 1.367 1_556 S
C1001 C1003 1.433 . S
C1002 C998 1.350 . S
C1002 C999 1.463 . S
C1002 N1006 1.427 1_554 S
C1003 H993 0.929 . S
C1003 C1001 1.433 . S
C1003 N1006 1.384 . S
C1004 H995 0.929 . S
C1004 C996 1.378 1_556 S
C1004 C999 1.350 1_556 S
C1005 H992 0.929 . S
C1005 C997 1.433 . S
C1005 N1007 1.384 . S
N1006 C1002 1.427 1_556 S
N1006 C1003 1.384 . S
N1007 C999 1.427 . S
N1007 C1005 1.384 . S
H1008 C1014 0.930 . S
H1009 C1018 0.930 . S
H1010 C1023 0.929 . S
H1011 C1021 0.929 . S
H1012 C1016 0.929 . S
H1013 C1022 0.929 . S
C1014 H1008 0.930 . S
C1014 C1015 1.367 . S
C1014 C1022 1.378 . S
C1015 C1014 1.367 . S
C1015 C1023 1.433 1_554 S
C1016 H1012 0.929 . S
C1016 C1018 1.378 . S
C1016 C1020 1.350 . S
C1017 C1020 1.463 1_554 S
C1017 C1022 1.350 . S
C1017 N1025 1.427 1_554 S
C1018 H1009 0.930 . S
C1018 C1016 1.378 . S
C1018 C1019 1.367 . S
C1019 C1018 1.367 . S
C1019 C1021 1.433 1_556 S
C1020 C1016 1.350 . S
C1020 C1017 1.463 1_556 S
C1020 N1024 1.427 1_556 S
C1021 H1011 0.929 . S
C1021 C1019 1.433 1_554 S
C1021 N1024 1.384 . S
C1022 H1013 0.929 . S
C1022 C1014 1.378 . S
C1022 C1017 1.350 . S
C1023 H1010 0.929 . S
C1023 C1015 1.433 1_556 S
C1023 N1025 1.384 . S
N1024 C1020 1.427 1_554 S
N1024 C1021 1.384 . S
N1025 C1017 1.427 1_556 S
N1025 C1023 1.384 . S
H1026 C1032 0.930 1_554 S
H1027 C1036 0.930 . S
H1028 C1041 0.929 . S
H1029 C1039 0.929 . S
H1030 C1034 0.929 . S
H1031 C1040 0.929 . S
C1032 H1026 0.930 1_556 S
C1032 C1033 1.367 . S
C1032 C1040 1.378 . S
C1033 C1032 1.367 . S
C1033 C1041 1.433 . S
C1034 H1030 0.929 . S
C1034 C1036 1.378 . S
C1034 C1038 1.350 . S
C1035 C1038 1.463 . S
C1035 C1040 1.350 . S
C1035 N1043 1.427 . S
C1036 H1027 0.930 . S
C1036 C1034 1.378 . S
C1036 C1037 1.367 . S
C1037 C1036 1.367 . S
C1037 C1039 1.433 . S
C1038 C1034 1.350 . S
C1038 C1035 1.463 . S
C1038 N1042 1.427 . S
C1039 H1029 0.929 . S
C1039 C1037 1.433 . S
C1039 N1042 1.384 . S
C1040 H1031 0.929 . S
C1040 C1032 1.378 . S
C1040 C1035 1.350 . S
C1041 H1028 0.929 . S
C1041 C1033 1.433 . S
C1041 N1043 1.384 . S
N1042 C1038 1.427 . S
N1042 C1039 1.384 . S
N1043 C1035 1.427 . S
N1043 C1041 1.384 . S
H1044 C1050 0.930 . S
H1045 C1054 0.930 . S
H1046 C1059 0.929 . S
H1047 C1057 0.929 1_554 S
H1048 C1052 0.929 . S
H1049 C1058 0.929 . S
C1050 H1044 0.930 . S
C1050 C1051 1.367 . S
C1050 C1058 1.378 . S
C1051 C1050 1.367 . S
C1051 C1059 1.433 . S
C1052 H1048 0.929 . S
C1052 C1054 1.378 . S
C1052 C1056 1.350 . S
C1053 C1056 1.463 . S
C1053 C1058 1.350 . S
C1053 N1061 1.427 . S
C1054 H1045 0.930 . S
C1054 C1052 1.378 . S
C1054 C1055 1.367 . S
C1055 C1054 1.367 . S
C1055 C1057 1.433 . S
C1056 C1052 1.350 . S
C1056 C1053 1.463 . S
C1056 N1060 1.427 . S
C1057 H1047 0.929 1_556 S
C1057 C1055 1.433 . S
C1057 N1060 1.384 . S
C1058 H1049 0.929 . S
C1058 C1050 1.378 . S
C1058 C1053 1.350 . S
C1059 H1046 0.929 . S
C1059 C1051 1.433 . S
C1059 N1061 1.384 . S
N1060 C1056 1.427 . S
N1060 C1057 1.384 . S
N1061 C1053 1.427 . S
N1061 C1059 1.384 . S
H1062 C1068 0.930 . S
H1063 C1072 0.930 . S
H1064 C1077 0.929 . S
H1065 C1075 0.929 . S
H1066 C1070 0.929 . S
H1067 C1076 0.929 . S
C1068 H1062 0.930 . S
C1068 C1069 1.367 . S
C1068 C1076 1.378 . S
C1069 C1068 1.367 . S
C1069 C1077 1.433 . S
C1070 H1066 0.929 . S
C1070 C1072 1.378 . S
C1070 C1074 1.350 . S
C1071 C1074 1.463 . S
C1071 C1076 1.350 . S
C1071 N1079 1.427 . S
C1072 H1063 0.930 . S
C1072 C1070 1.378 . S
C1072 C1073 1.367 . S
C1073 C1072 1.367 . S
C1073 C1075 1.433 . S
C1074 C1070 1.350 . S
C1074 C1071 1.463 . S
C1074 N1078 1.427 . S
C1075 H1065 0.929 . S
C1075 C1073 1.433 . S
C1075 N1078 1.384 . S
C1076 H1067 0.929 . S
C1076 C1068 1.378 . S
C1076 C1071 1.350 . S
C1077 H1064 0.929 . S
C1077 C1069 1.433 . S
C1077 N1079 1.384 . S
N1078 C1074 1.427 . S
N1078 C1075 1.384 . S
N1079 C1071 1.427 . S
N1079 C1077 1.384 . S
H1080 C1086 0.930 . S
H1081 C1090 0.930 . S
H1082 C1095 0.929 . S
H1083 C1093 0.929 . S
H1084 C1088 0.929 . S
H1085 C1094 0.929 . S
C1086 H1080 0.930 . S
C1086 C1087 1.367 . S
C1086 C1094 1.378 . S
C1087 C1086 1.367 . S
C1087 C1095 1.433 . S
C1088 H1084 0.929 . S
C1088 C1090 1.378 . S
C1088 C1092 1.350 . S
C1089 C1092 1.463 . S
C1089 C1094 1.350 . S
C1089 N1097 1.427 . S
C1090 H1081 0.930 . S
C1090 C1088 1.378 . S
C1090 C1091 1.367 . S
C1091 C1090 1.367 . S
C1091 C1093 1.433 . S
C1092 C1088 1.350 . S
C1092 C1089 1.463 . S
C1092 N1096 1.427 . S
C1093 H1083 0.929 . S
C1093 C1091 1.433 . S
C1093 N1096 1.384 . S
C1094 H1085 0.929 . S
C1094 C1086 1.378 . S
C1094 C1089 1.350 . S
C1095 H1082 0.929 . S
C1095 C1087 1.433 . S
C1095 N1097 1.384 . S
N1096 C1092 1.427 . S
N1096 C1093 1.384 . S
N1097 C1089 1.427 . S
N1097 C1095 1.384 . S
H1098 C1104 0.930 . S
H1099 C1108 0.930 . S
H1100 C1113 0.929 . S
H1101 C1111 0.929 . S
H1102 C1106 0.929 . S
H1103 C1112 0.929 . S
C1104 H1098 0.930 . S
C1104 C1105 1.367 . S
C1104 C1112 1.378 . S
C1105 C1104 1.367 . S
C1105 C1113 1.433 . S
C1106 H1102 0.929 . S
C1106 C1108 1.378 . S
C1106 C1110 1.350 . S
C1107 C1110 1.463 . S
C1107 C1112 1.350 . S
C1107 N1115 1.427 . S
C1108 H1099 0.930 . S
C1108 C1106 1.378 . S
C1108 C1109 1.367 . S
C1109 C1108 1.367 . S
C1109 C1111 1.433 . S
C1110 C1106 1.350 . S
C1110 C1107 1.463 . S
C1110 N1114 1.427 . S
C1111 H1101 0.929 . S
C1111 C1109 1.433 . S
C1111 N1114 1.384 . S
C1112 H1103 0.929 . S
C1112 C1104 1.378 . S
C1112 C1107 1.350 . S
C1113 H1100 0.929 . S
C1113 C1105 1.433 . S
C1113 N1115 1.384 . S
N1114 C1110 1.427 . S
N1114 C1111 1.384 . S
N1115 C1107 1.427 . S
N1115 C1113 1.384 . S
H1116 C1122 0.930 . S
H1117 C1126 0.930 . S
H1118 C1131 0.929 . S
H1119 C1129 0.929 . S
H1120 C1124 0.929 . S
H1121 C1130 0.940 . S
C1122 H1116 0.930 . S
C1122 C1123 1.363 1_565 S
C1122 C1130 1.378 1_565 S
C1123 C1122 1.363 1_545 S
C1123 C1131 1.438 . S
C1124 H1120 0.929 . S
C1124 C1126 1.378 . S
C1124 C1128 1.350 . S
C1125 C1128 1.463 . S
C1125 C1130 1.350 . S
C1125 N1133 1.427 . S
C1126 H1117 0.930 . S
C1126 C1124 1.378 . S
C1126 C1127 1.367 . S
C1127 C1126 1.367 . S
C1127 C1129 1.433 . S
C1128 C1124 1.350 . S
C1128 C1125 1.463 . S
C1128 N1132 1.427 . S
C1129 H1119 0.929 . S
C1129 C1127 1.433 . S
C1129 N1132 1.384 . S
C1130 H1121 0.940 . S
C1130 C1122 1.378 1_545 S
C1130 C1125 1.350 . S
C1131 H1118 0.929 . S
C1131 C1123 1.438 . S
C1131 N1133 1.384 . S
N1132 C1128 1.427 . S
N1132 C1129 1.384 . S
N1133 C1125 1.427 . S
N1133 C1131 1.384 . S
H1134 C1140 0.930 . S
H1135 C1144 0.930 . S
H1136 C1149 0.929 . S
H1137 C1147 0.929 . S
H1138 C1142 0.929 . S
H1139 C1148 0.929 . S
C1140 H1134 0.930 . S
C1140 C1141 1.367 . S
C1140 C1148 1.378 . S
C1141 C1140 1.367 . S
C1141 C1149 1.433 . S
C1142 H1138 0.929 . S
C1142 C1144 1.378 . S
C1142 C1146 1.350 . S
C1143 C1146 1.463 . S
C1143 C1148 1.350 . S
C1143 N1151 1.427 . S
C1144 H1135 0.930 . S
C1144 C1142 1.378 . S
C1144 C1145 1.367 . S
C1145 C1144 1.367 . S
C1145 C1147 1.433 . S
C1146 C1142 1.350 . S
C1146 C1143 1.463 . S
C1146 N1150 1.427 . S
C1147 H1137 0.929 . S
C1147 C1145 1.433 . S
C1147 N1150 1.384 . S
C1148 H1139 0.929 . S
C1148 C1140 1.378 . S
C1148 C1143 1.350 . S
C1149 H1136 0.929 . S
C1149 C1141 1.433 . S
C1149 N1151 1.384 . S
N1150 C1146 1.427 . S
N1150 C1147 1.384 . S
N1151 C1143 1.427 . S
N1151 C1149 1.384 . S
H1152 C1158 0.930 . S
H1153 C1162 0.930 . S
H1154 C1167 0.929 . S
H1155 C1165 0.929 . S
H1156 C1160 0.929 . S
H1157 C1166 0.929 . S
C1158 H1152 0.930 . S
C1158 C1159 1.367 . S
C1158 C1166 1.378 . S
C1159 C1158 1.367 . S
C1159 C1167 1.433 . S
C1160 H1156 0.929 . S
C1160 C1162 1.378 . S
C1160 C1164 1.350 . S
C1161 C1164 1.463 . S
C1161 C1166 1.350 . S
C1161 N1169 1.427 . S
C1162 H1153 0.930 . S
C1162 C1160 1.378 . S
C1162 C1163 1.367 . S
C1163 C1162 1.367 . S
C1163 C1165 1.433 . S
C1164 C1160 1.350 . S
C1164 C1161 1.463 . S
C1164 N1168 1.427 . S
C1165 H1155 0.929 . S
C1165 C1163 1.433 . S
C1165 N1168 1.384 . S
C1166 H1157 0.929 . S
C1166 C1158 1.378 . S
C1166 C1161 1.350 . S
C1167 H1154 0.929 . S
C1167 C1159 1.433 . S
C1167 N1169 1.384 . S
N1168 C1164 1.427 . S
N1168 C1165 1.384 . S
N1169 C1161 1.427 . S
N1169 C1167 1.384 . S
H1170 C1176 0.930 . S
H1171 C1180 0.930 . S
H1172 C1185 0.929 . S
H1173 C1183 0.929 . S
H1174 C1178 0.929 . S
H1175 C1184 0.929 . S
C1176 H1170 0.930 . S
C1176 C1177 1.367 . S
C1176 C1184 1.378 . S
C1177 C1176 1.367 . S
C1177 C1185 1.433 . S
C1178 H1174 0.929 . S
C1178 C1180 1.378 . S
C1178 C1182 1.350 . S
C1179 C1182 1.463 . S
C1179 C1184 1.350 . S
C1179 N1187 1.427 . S
C1180 H1171 0.930 . S
C1180 C1178 1.378 . S
C1180 C1181 1.367 . S
C1181 C1180 1.367 . S
C1181 C1183 1.433 . S
C1182 C1178 1.350 . S
C1182 C1179 1.463 . S
C1182 N1186 1.427 . S
C1183 H1173 0.929 . S
C1183 C1181 1.433 . S
C1183 N1186 1.384 . S
C1184 H1175 0.929 . S
C1184 C1176 1.378 . S
C1184 C1179 1.350 . S
C1185 H1172 0.929 . S
C1185 C1177 1.433 . S
C1185 N1187 1.384 . S
N1186 C1182 1.427 . S
N1186 C1183 1.384 . S
N1187 C1179 1.427 . S
N1187 C1185 1.384 . S
H1188 C1194 0.930 . S
H1189 C1198 0.930 1_556 S
H1190 C1203 0.929 . S
H1191 C1201 0.929 . S
H1192 C1196 0.929 . S
H1193 C1202 0.929 . S
C1194 H1188 0.930 . S
C1194 C1195 1.367 . S
C1194 C1202 1.378 . S
C1195 C1194 1.367 . S
C1195 C1203 1.433 . S
C1196 H1192 0.929 . S
C1196 C1198 1.378 . S
C1196 C1200 1.350 . S
C1197 C1200 1.463 . S
C1197 C1202 1.350 . S
C1197 N1205 1.427 . S
C1198 H1189 0.930 1_554 S
C1198 C1196 1.378 . S
C1198 C1199 1.367 . S
C1199 C1198 1.367 . S
C1199 C1201 1.433 . S
C1200 C1196 1.350 . S
C1200 C1197 1.463 . S
C1200 N1204 1.427 . S
C1201 H1191 0.929 . S
C1201 C1199 1.433 . S
C1201 N1204 1.384 . S
C1202 H1193 0.929 . S
C1202 C1194 1.378 . S
C1202 C1197 1.350 . S
C1203 H1190 0.929 . S
C1203 C1195 1.433 . S
C1203 N1205 1.384 . S
N1204 C1200 1.427 . S
N1204 C1201 1.384 . S
N1205 C1197 1.427 . S
N1205 C1203 1.384 . S
H1206 C1212 0.930 . S
H1207 C1216 0.930 . S
H1208 C1221 0.929 . S
H1209 C1219 0.929 . S
H1210 C1214 0.929 . S
H1211 C1220 0.929 . S
C1212 H1206 0.930 . S
C1212 C1213 1.367 . S
C1212 C1220 1.378 . S
C1213 C1212 1.367 . S
C1213 C1221 1.433 . S
C1214 H1210 0.929 . S
C1214 C1216 1.378 . S
C1214 C1218 1.350 . S
C1215 C1218 1.463 . S
C1215 C1220 1.350 . S
C1215 N1223 1.427 . S
C1216 H1207 0.930 . S
C1216 C1214 1.378 . S
C1216 C1217 1.367 . S
C1217 C1216 1.367 . S
C1217 C1219 1.433 . S
C1218 C1214 1.350 . S
C1218 C1215 1.463 . S
C1218 N1222 1.427 . S
C1219 H1209 0.929 . S
C1219 C1217 1.433 . S
C1219 N1222 1.384 . S
C1220 H1211 0.929 . S
C1220 C1212 1.378 . S
C1220 C1215 1.350 . S
C1221 H1208 0.929 . S
C1221 C1213 1.433 . S
C1221 N1223 1.384 . S
N1222 C1218 1.427 . S
N1222 C1219 1.384 . S
N1223 C1215 1.427 . S
N1223 C1221 1.384 . S
H1224 C1230 0.930 . S
H1225 C1234 0.930 . S
H1226 C1239 0.929 . S
H1227 C1237 0.929 . S
H1228 C1232 0.929 . S
H1229 C1238 0.929 . S
C1230 H1224 0.930 . S
C1230 C1231 1.367 . S
C1230 C1238 1.378 . S
C1231 C1230 1.367 . S
C1231 C1239 1.433 . S
C1232 H1228 0.929 . S
C1232 C1234 1.378 . S
C1232 C1236 1.350 . S
C1233 C1236 1.463 . S
C1233 C1238 1.350 . S
C1233 N1241 1.427 . S
C1234 H1225 0.930 . S
C1234 C1232 1.378 . S
C1234 C1235 1.367 . S
C1235 C1234 1.367 . S
C1235 C1237 1.433 . S
C1236 C1232 1.350 . S
C1236 C1233 1.463 . S
C1236 N1240 1.427 . S
C1237 H1227 0.929 . S
C1237 C1235 1.433 . S
C1237 N1240 1.384 . S
C1238 H1229 0.929 . S
C1238 C1230 1.378 . S
C1238 C1233 1.350 . S
C1239 H1226 0.929 . S
C1239 C1231 1.433 . S
C1239 N1241 1.384 . S
N1240 C1236 1.427 . S
N1240 C1237 1.384 . S
N1241 C1233 1.427 . S
N1241 C1239 1.384 . S
C763 C70 1.111 . S
C767 C658 1.137 . S
C781 C151 2.229 . S
C785 C739 2.236 . S
C799 C238 1.283 . S
C803 C571 1.496 . S
C817 C403 2.372 . S
C821 C235 2.389 . S
C835 C487 2.270 . S
C839 C67 2.299 . S
C853 C154 1.905 . S
C857 C319 2.164 . S
C871 C655 1.594 . S
C875 C490 1.468 . S
C889 C742 1.231 . S
C893 C322 1.257 . S
C907 C406 1.581 . S
C911 C574 1.646 . S
C925 C226 1.409 . S
C929 C55 1.758 . S
C943 C142 1.223 . S
C947 C58 1.248 . S
C961 C139 2.972 . S
C965 C223 3.001 . S
C979 C310 1.605 . S
C983 C475 2.067 . S
C997 C307 2.039 . S
C1001 C394 1.634 . S
C1015 C391 2.005 . S
C1019 C478 1.522 . S
C1033 C730 1.744 . S
C1037 C559 2.279 . S
C1051 C646 0.794 . S
C1055 C562 0.804 . S
C1069 C727 2.046 . S
C1073 C643 2.039 . S
C1087 C56 1.452 . S
C1091 C68 1.452 . S
C1105 C152 1.474 . S
C1109 C140 1.474 . S
C1123 C224 1.530 . S
C1127 C236 1.529 . S
C1141 C308 1.470 . S
C1145 C320 1.470 . S
C1159 C392 1.463 . S
C1163 C404 1.463 . S
C1177 C476 1.499 . S
C1181 C488 1.499 1_556 S
C1195 C560 1.462 . S
C1199 C572 1.462 1_554 S
C1213 C644 1.454 . S
C1217 C656 1.454 . S
C1231 C728 1.477 . S
C1235 C740 1.477 . S
