# Generated by pormake.
# Topology bcg, (8)-cn, num edge types: 1
# Building blocks:
#     Node 0, Type 0, BuildingBlock: NUHRAL_clean_sbu_3, # of connection points: 8
#     Node 1, Type 0, BuildingBlock: NUHRAL_clean_sbu_3, # of connection points: 8
#     Node 2, Type 0, BuildingBlock: NUHRAL_clean_sbu_3, # of connection points: 8
#     Node 3, Type 0, BuildingBlock: NUHRAL_clean_sbu_3, # of connection points: 8
#     Edge 4, Type (0, 0), BuildingBlock: FUNLAD_clean_linker_0, # of connection points: 2
#     Edge 5, Type (0, 0), BuildingBlock: FUNLAD_clean_linker_0, # of connection points: 2
#     Edge 6, Type (0, 0), BuildingBlock: FUNLAD_clean_linker_0, # of connection points: 2
#     Edge 7, Type (0, 0), BuildingBlock: FUNLAD_clean_linker_0, # of connection points: 2
#     Edge 8, Type (0, 0), BuildingBlock: FUNLAD_clean_linker_0, # of connection points: 2
#     Edge 9, Type (0, 0), BuildingBlock: FUNLAD_clean_linker_0, # of connection points: 2
#     Edge 10, Type (0, 0), BuildingBlock: FUNLAD_clean_linker_0, # of connection points: 2
#     Edge 11, Type (0, 0), BuildingBlock: FUNLAD_clean_linker_0, # of connection points: 2
#     Edge 12, Type (0, 0), BuildingBlock: FUNLAD_clean_linker_0, # of connection points: 2
#     Edge 13, Type (0, 0), BuildingBlock: FUNLAD_clean_linker_0, # of connection points: 2
#     Edge 14, Type (0, 0), BuildingBlock: FUNLAD_clean_linker_0, # of connection points: 2
#     Edge 15, Type (0, 0), BuildingBlock: FUNLAD_clean_linker_0, # of connection points: 2
#     Edge 16, Type (0, 0), BuildingBlock: FUNLAD_clean_linker_0, # of connection points: 2
#     Edge 17, Type (0, 0), BuildingBlock: FUNLAD_clean_linker_0, # of connection points: 2
#     Edge 18, Type (0, 0), BuildingBlock: FUNLAD_clean_linker_0, # of connection points: 2
#     Edge 19, Type (0, 0), BuildingBlock: FUNLAD_clean_linker_0, # of connection points: 2
# Relax obj value: 0.155
# Max RMSD: 0.221
# Mean RMSD: 0.221
data_MOF--net-bcg--node1-NUHRAL_clean_sbu_3--edge1-FUNLAD_clean_linker_0
_symmetry_space_group_name_H-M    P1
_symmetry_Int_Tables_number       1
_symmetry_cell_setting            triclinic
loop_
_symmetry_equiv_pos_as_xyz
'x, y, z'
_cell_length_a     24.774855
_cell_length_b     22.085123
_cell_length_c     37.774111
_cell_angle_alpha  80.912335
_cell_angle_beta   90.056316
_cell_angle_gamma 90.03301
loop_
_atom_site_label
_atom_site_type_symbol
_atom_site_fract_x
_atom_site_fract_y
_atom_site_fract_z
_atom_type_partial_charge
C0 C 0.08412 0.33226 0.04347 0.0
C1 C 0.03979 0.31566 0.02388 0.0
C2 C 0.98882 0.30832 0.04008 0.0
C3 C 0.98298 0.31575 0.07602 0.0
C4 C 0.02722 0.33047 0.09613 0.0
C5 C 0.07775 0.33979 0.07949 0.0
O6 O 0.23338 0.23252 0.98007 0.0
Tb7 Tb 0.18855 0.31838 0.97331 0.0
O8 O 0.14094 0.31348 0.92554 0.0
O9 O 0.26418 0.15738 0.02183 0.0
Eu10 Eu 0.34237 0.21053 0.01349 0.0
O11 O 0.14435 0.37996 -0.00125 0.0
C12 C 0.38798 0.19091 0.95462 0.0
O13 O 0.16296 0.28682 0.02561 0.0
O14 O 0.29635 0.29987 0.0082 0.0
O15 O 0.26231 0.3727 0.96609 0.0
C16 C 0.13811 0.33857 0.02766 0.0
C17 C 0.38412 0.23732 0.08663 0.0
O18 O 0.3392 0.26933 0.083 0.0
C19 C 0.22287 0.18335 0.0035 0.0
C20 C 0.3048 0.34875 0.98405 0.0
O21 O 0.3977 0.20594 0.06119 0.0
C22 C 0.44142 0.1865 0.93884 0.0
C23 C 0.49646 0.18915 0.8855 0.0
C24 C 0.4456 0.18788 0.90167 0.0
C25 C 0.4882 0.18529 0.95995 0.0
C26 C 0.53928 0.18503 0.94392 0.0
C27 C 0.54291 0.1871 0.90672 0.0
C28 C 0.16756 0.30033 0.89764 0.0
O29 O 0.22012 0.29302 0.90055 0.0
O30 O 0.37405 0.14654 0.9805 0.0
O31 O 0.37419 0.24571 0.96075 0.0
H32 H 0.04488 0.30894 -0.00374 0.0
H33 H 0.94361 0.30919 0.0886 0.0
H34 H 0.11239 0.35098 0.09481 0.0
H35 H 0.4095 0.19044 0.88524 0.0
H36 H 0.48478 0.18528 0.98857 0.0
H37 H 0.58219 0.18926 0.8939 0.0
C38 C 0.6052 0.80794 0.04656 0.0
C39 C 0.55737 0.79589 0.02839 0.0
C40 C 0.50882 0.78195 0.04763 0.0
C41 C 0.50899 0.78069 0.08494 0.0
C42 C 0.55592 0.79348 0.10318 0.0
C43 C 0.60391 0.80656 0.08381 0.0
O44 O 0.70976 0.7137 0.96766 0.0
Tb45 Tb 0.71556 0.80791 0.9771 0.0
O46 O 0.6754 0.83468 0.9263 0.0
O47 O 0.74162 0.66502 0.02139 0.0
Eu48 Eu 0.81888 0.71986 0.01852 0.0
O49 O 0.65236 0.85797 -0.00514 0.0
C50 C 0.88445 0.69835 0.96831 0.0
O51 O 0.69707 0.78881 0.03201 0.0
O52 O 0.82373 0.81866 0.02609 0.0
O53 O 0.78958 0.86195 0.97189 0.0
C54 C 0.65617 0.8275 0.02765 0.0
C55 C 0.83602 0.71342 0.10011 0.0
O56 O 0.79255 0.74783 0.09528 0.0
C57 C 0.70905 0.66672 0.99373 0.0
C58 C 0.82203 0.86421 -0.00077 0.0
O59 O 0.85632 0.69151 0.07266 0.0
C60 C 0.93581 0.71838 0.94988 0.0
C61 C 0.98493 0.7409 0.8933 0.0
C62 C 0.93695 0.72522 0.91225 0.0
C63 C 0.98396 0.72683 0.96873 0.0
C64 C 0.03252 0.74283 0.94993 0.0
C65 C 0.03209 0.74991 0.91232 0.0
C66 C 0.70278 0.83446 0.89663 0.0
O67 O 0.75465 0.822 0.89879 0.0
O68 O 0.88713 0.66971 0.00155 0.0
O69 O 0.84257 0.7353 0.96214 0.0
H70 H 0.55779 0.79796 -0.00046 0.0
H71 H 0.47144 0.77312 0.0997 0.0
H72 H 0.64025 0.81703 0.0977 0.0
H73 H 0.90047 0.7176 0.89768 0.0
H74 H 0.98373 0.72073 -0.00225 0.0
H75 H 0.06955 0.75949 0.89769 0.0
C76 C 0.0771 0.70595 0.45099 0.0
C77 C 0.03673 0.73016 0.47072 0.0
C78 C 0.99116 0.75879 0.45328 0.0
C79 C 0.98716 0.76359 0.41586 0.0
C80 C 0.02732 0.73974 0.39589 0.0
C81 C 0.07224 0.71076 0.41367 0.0
O82 O 0.22776 0.77491 0.51408 0.0
Tb83 Tb 0.18498 0.68764 0.52052 0.0
O84 O 0.14298 0.6969 0.56977 0.0
O85 O 0.26112 0.84224 0.46868 0.0
Eu86 Eu 0.3379 0.78694 0.47981 0.0
O87 O 0.11916 0.64382 0.50062 0.0
C88 C 0.38151 0.80778 0.53903 0.0
O89 O 0.1687 0.71076 0.46574 0.0
O90 O 0.28744 0.70102 0.48631 0.0
O91 O 0.25355 0.62562 0.52612 0.0
C92 C 0.12528 0.67641 0.46851 0.0
C93 C 0.39906 0.82855 0.4074 0.0
O94 O 0.3692 0.87762 0.4077 0.0
C95 C 0.21901 0.82065 0.48793 0.0
C96 C 0.29597 0.64955 0.50828 0.0
O97 O 0.39624 0.78359 0.4346 0.0
C98 C 0.43419 0.81119 0.5561 0.0
C99 C 0.48593 0.81115 0.61075 0.0
C100 C 0.43614 0.81285 0.59309 0.0
C101 C 0.48222 0.80937 0.53651 0.0
C102 C 0.53215 0.80794 0.55417 0.0
C103 C 0.53352 0.80889 0.59113 0.0
C104 C 0.17145 0.71189 0.59645 0.0
O105 O 0.22383 0.71916 0.59226 0.0
O106 O 0.3698 0.85165 0.51227 0.0
O107 O 0.36664 0.7529 0.5335 0.0
H108 H 0.04076 0.72648 0.49955 0.0
H109 H 0.9511 0.78293 0.40225 0.0
H110 H 0.1035 0.69205 0.39847 0.0
H111 H 0.39906 0.81384 0.60822 0.0
H112 H 0.48068 0.8076 0.508 0.0
H113 H 0.57215 0.80879 0.60472 0.0
C114 C 0.60029 0.20584 0.44386 0.0
C115 C 0.55132 0.20893 0.46284 0.0
C116 C 0.50296 0.2265 0.44417 0.0
C117 C 0.5047 0.24302 0.40676 0.0
C118 C 0.55282 0.24027 0.38764 0.0
C119 C 0.60036 0.22131 0.40631 0.0
O120 O 0.70625 0.28976 0.52374 0.0
Tb121 Tb 0.71179 0.19643 0.51268 0.0
O122 O 0.67221 0.1652 0.56326 0.0
O123 O 0.73864 0.3406 0.47083 0.0
Eu124 Eu 0.8165 0.287 0.47386 0.0
O125 O 0.64732 0.14931 0.4939 0.0
C126 C 0.87977 0.3064 0.52586 0.0
O127 O 0.69348 0.21852 0.45786 0.0
O128 O 0.82211 0.18967 0.46366 0.0
O129 O 0.78558 0.14203 0.51635 0.0
C130 C 0.65111 0.18188 0.46166 0.0
C131 C 0.82417 0.32525 0.39154 0.0
O132 O 0.77218 0.31418 0.39521 0.0
C133 C 0.7053 0.33736 0.4981 0.0
C134 C 0.81883 0.142 0.48918 0.0
O135 O 0.85447 0.31983 0.42039 0.0
C136 C 0.93074 0.28772 0.54525 0.0
C137 C 0.97805 0.26806 0.60267 0.0
C138 C 0.93043 0.28152 0.58289 0.0
C139 C 0.98001 0.28117 0.52727 0.0
C140 C 0.02846 0.26899 0.54691 0.0
C141 C 0.02643 0.26135 0.5845 0.0
C142 C 0.69238 0.1813 0.59253 0.0
O143 O 0.7379 0.21225 0.59043 0.0
O144 O 0.8833 0.33679 0.49307 0.0
O145 O 0.83868 0.26804 0.53055 0.0
H146 H 0.55038 0.19572 0.4917 0.0
H147 H 0.4678 0.25672 0.39221 0.0
H148 H 0.63747 0.21802 0.39152 0.0
H149 H 0.89308 0.28785 0.59681 0.0
H150 H 0.981 0.28762 0.49825 0.0
H151 H 0.06329 0.25164 0.59985 0.0
C152 C 0.63427 0.15227 0.95832 0.0
C153 C 0.58947 0.18798 0.96475 0.0
C154 C 0.68476 0.16318 0.97239 0.0
C155 C 0.69133 0.21029 0.99307 0.0
C156 C 0.64568 0.24257 0.00184 0.0
C157 C 0.59514 0.23172 0.98771 0.0
C158 C 0.74511 0.22912 0.00459 0.0
C159 C 0.7912 0.22152 0.98683 0.0
C160 C 0.8431 0.24751 -0.00326 0.0
C161 C 0.8915 0.21591 0.99318 0.0
C162 C 0.94017 0.23761 0.00526 0.0
C163 C 0.94086 0.29142 0.02068 0.0
H164 H 0.80861 0.33065 0.01128 0.0
C165 C 0.89315 0.32523 0.02174 0.0
C166 C 0.84477 0.30367 0.00977 0.0
H167 H 0.89302 0.36739 0.03303 0.0
H168 H 0.63059 0.11734 0.94128 0.0
H169 H 0.7185 0.13546 0.96637 0.0
H170 H 0.64959 0.27855 0.01815 0.0
H171 H 0.5613 0.26003 0.993 0.0
H172 H 0.74613 0.254 0.02721 0.0
H173 H 0.79141 0.19612 0.96447 0.0
H174 H 0.89127 0.17309 0.98258 0.0
H175 H 0.97654 0.21077 0.00435 0.0
C176 C 0.12182 0.79531 0.95473 0.0
C177 C 0.08519 0.74867 0.96847 0.0
C178 C 0.17465 0.79563 0.96789 0.0
C179 C 0.19245 0.74916 -0.00475 0.0
C180 C 0.1549 0.70466 0.01046 0.0
C181 C 0.10196 0.70421 -0.00283 0.0
C182 C 0.24932 0.74613 0.0089 0.0
C183 C 0.29216 0.771 0.98952 0.0
C184 C 0.34911 0.76903 0.00306 0.0
C185 C 0.38672 0.81193 0.98611 0.0
C186 C 0.43961 0.81417 -0.00079 0.0
C187 C 0.45631 0.77323 0.02955 0.0
H188 H 0.34038 0.6902 0.04517 0.0
C189 C 0.4197 0.72796 0.04519 0.0
C190 C 0.3669 0.72577 0.03215 0.0
H191 H 0.43158 0.69489 0.06818 0.0
H192 H 0.1099 0.83108 0.93312 0.0
H193 H 0.20122 0.83241 0.95643 0.0
H194 H 0.16706 0.66882 0.03197 0.0
H195 H 0.07499 0.66748 0.00829 0.0
H196 H 0.25567 0.72145 0.03575 0.0
H197 H 0.28554 0.79529 0.96258 0.0
H198 H 0.37463 0.84531 0.96332 0.0
H199 H 0.46656 0.8498 0.98662 0.0
C200 C 0.62252 0.76163 0.54908 0.0
C201 C 0.58381 0.80529 0.53508 0.0
C202 C 0.67502 0.76529 0.53587 0.0
C203 C 0.69004 0.81312 0.50854 0.0
C204 C 0.65033 0.85412 0.4927 0.0
C205 C 0.59748 0.85042 0.506 0.0
C206 C 0.74664 0.82013 0.4959 0.0
C207 C 0.78884 0.80328 0.5178 0.0
C208 C 0.84468 0.79993 0.50449 0.0
C209 C 0.87801 0.75215 0.52072 0.0
C210 C 0.92751 0.74102 0.50539 0.0
C211 C 0.9449 0.77817 0.4738 0.0
H212 H 0.84019 0.87928 0.46261 0.0
C213 C 0.91377 0.82967 0.45965 0.0
C214 C 0.86401 0.8404 0.47478 0.0
H215 H 0.92688 0.86037 0.43598 0.0
H216 H 0.61251 0.72571 0.5711 0.0
H217 H 0.7038 0.73089 0.54744 0.0
H218 H 0.66072 0.89049 0.47103 0.0
H219 H 0.56817 0.88457 0.49483 0.0
H220 H 0.75332 0.83836 0.46782 0.0
H221 H 0.78181 0.78552 0.54591 0.0
H222 H 0.86419 0.72088 0.54397 0.0
H223 H 0.95024 0.70089 0.51701 0.0
C224 C 0.12727 0.29493 0.5421 0.0
C225 C 0.08215 0.2662 0.52919 0.0
C226 C 0.17904 0.2876 0.52864 0.0
C227 C 0.18733 0.25113 0.50178 0.0
C228 C 0.14189 0.22475 0.48766 0.0
C229 C 0.08991 0.23205 0.50124 0.0
C230 C 0.24225 0.24088 0.48723 0.0
C231 C 0.28907 0.24672 0.50506 0.0
C232 C 0.34418 0.23727 0.49047 0.0
C233 C 0.38958 0.2612 0.50609 0.0
C234 C 0.44167 0.25564 0.49225 0.0
C235 C 0.44952 0.22589 0.46245 0.0
H236 H 0.31974 0.18323 0.44972 0.0
C237 C 0.40455 0.1994 0.44796 0.0
C238 C 0.3527 0.20477 0.46177 0.0
H239 H 0.40941 0.17499 0.42544 0.0
H240 H 0.1226 0.32297 0.56298 0.0
H241 H 0.21217 0.31108 0.53927 0.0
H242 H 0.14675 0.19717 0.46657 0.0
H243 H 0.05613 0.20933 0.49068 0.0
H244 H 0.24344 0.22732 0.46089 0.0
H245 H 0.28757 0.25998 0.53149 0.0
H246 H 0.3846 0.28574 0.52854 0.0
H247 H 0.47542 0.27661 0.50398 0.0
C248 C 0.63294 0.62086 0.96328 0.0
C249 C 0.66921 0.61699 0.9922 0.0
C250 C 0.59239 0.57704 0.96275 0.0
C251 C 0.58724 0.52762 0.9911 0.0
C252 C 0.6242 0.52317 0.01968 0.0
C253 C 0.6648 0.5672 0.02023 0.0
C254 C 0.54163 0.48295 0.99329 0.0
C255 C 0.50986 0.47522 0.96526 0.0
C256 C 0.45954 0.43789 0.96895 0.0
C257 C 0.41729 0.45449 0.94452 0.0
C258 C 0.36755 0.42426 0.94875 0.0
C259 C 0.35921 0.37607 0.97724 0.0
H260 H 0.4842 0.37206 0.01512 0.0
C261 C 0.40236 0.3573 0.00056 0.0
C262 C 0.45206 0.38774 -0.0035 0.0
H263 H 0.3974 0.32006 0.02252 0.0
H264 H 0.63481 0.6588 0.9413 0.0
H265 H 0.56426 0.58385 0.94062 0.0
H266 H 0.62111 0.48599 0.04204 0.0
H267 H 0.69194 0.56286 0.04299 0.0
H268 H 0.53265 0.45755 0.01963 0.0
H269 H 0.51834 0.5004 0.93883 0.0
H270 H 0.42209 0.49248 0.9228 0.0
H271 H 0.33527 0.43966 0.93013 0.0
C272 C 0.62679 0.38016 0.52774 0.0
C273 C 0.66392 0.38551 0.49928 0.0
C274 C 0.58487 0.42245 0.52775 0.0
C275 C 0.57921 0.47167 0.49935 0.0
C276 C 0.61687 0.47751 0.4712 0.0
C277 C 0.65886 0.43508 0.47118 0.0
C278 C 0.53252 0.5148 0.4967 0.0
C279 C 0.50116 0.52313 0.52475 0.0
C280 C 0.45052 0.55994 0.52111 0.0
C281 C 0.40992 0.54544 0.54702 0.0
C282 C 0.36012 0.57556 0.54337 0.0
C283 C 0.35015 0.62159 0.51398 0.0
H284 H 0.47185 0.62167 0.47237 0.0
C285 C 0.3914 0.6379 0.48881 0.0
C286 C 0.44118 0.60766 0.49235 0.0
H287 H 0.38461 0.6727 0.46573 0.0
H288 H 0.62912 0.34225 0.54972 0.0
H289 H 0.55611 0.41467 0.54949 0.0
H290 H 0.61336 0.51456 0.4488 0.0
H291 H 0.68657 0.44045 0.44874 0.0
H292 H 0.52285 0.53881 0.47013 0.0
H293 H 0.51072 0.49931 0.55136 0.0
H294 H 0.4161 0.50931 0.56963 0.0
H295 H 0.32915 0.56209 0.56328 0.0
C296 C 0.12757 0.17341 0.98331 0.0
C297 C 0.16739 0.15924 0.00978 0.0
C298 C 0.07659 0.14601 0.98745 0.0
C299 C 0.0645 0.10344 0.01823 0.0
C300 C 0.10359 0.09158 0.04544 0.0
C301 C 0.15467 0.11872 0.04114 0.0
C302 C 1.01301 0.06823 0.02245 0.0
C303 C 0.98342 0.05529 -0.00547 0.0
C304 C 0.93827 1.01002 -0.0019 0.0
C305 C 0.9025 1.00979 0.96918 0.0
C306 C 0.86345 0.9637 0.96983 0.0
C307 C 0.85957 0.91652 -0.00061 0.0
H308 H 0.96067 0.96042 0.05057 0.0
C309 C 0.89434 0.9177 0.02872 0.0
C310 C 0.93328 0.96357 0.02807 0.0
H311 H 0.89269 0.88203 0.05195 0.0
H312 H 0.13644 0.20382 0.95872 0.0
H313 H 0.04724 0.1579 0.96629 0.0
H314 H 0.09532 0.05938 0.06957 0.0
H315 H 0.18449 0.10711 0.06211 0.0
H316 H 1.00191 0.0483 0.04955 0.0
H317 H 0.99433 0.07568 0.96745 0.0
H318 H 0.90556 0.04465 0.94562 0.0
H319 H 0.83735 0.96417 0.94677 0.0
C320 C 0.89273 0.09116 0.45955 0.0
C321 C 0.856 0.08966 0.48805 0.0
C322 C 0.93154 0.04526 0.45977 0.0
C323 C 0.93442 0.9962 0.48845 0.0
C324 C 0.89646 0.99358 0.51631 0.0
C325 C 0.85759 0.03967 0.51612 0.0
C326 C 0.9795 0.95093 0.49216 0.0
C327 C 1.01162 0.94071 0.46482 0.0
C328 C 0.06233 0.90405 0.4698 0.0
C329 C 0.10269 0.91513 0.44342 0.0
C330 C 0.15319 0.88673 0.44867 0.0
C331 C 0.16411 0.84588 0.48025 0.0
H332 H 0.04212 0.8488 0.52104 0.0
C333 C 0.1229 0.83233 0.50577 0.0
C334 C 0.07253 0.8608 0.50063 0.0
H335 H 0.13 0.80115 0.53037 0.0
H336 H 0.89279 0.12895 0.43746 0.0
H337 H 0.96052 0.0504 0.43814 0.0
H338 H 0.89774 0.95652 0.53882 0.0
H339 H 0.82987 0.03696 0.53846 0.0
H340 H 0.98786 0.92787 0.51912 0.0
H341 H 1.00284 0.96329 0.43781 0.0
H342 H 0.09588 0.94769 0.41921 0.0
H343 H 0.18402 0.89785 0.42837 0.0
C344 C 0.57187 0.21112 0.32731 0.0
C345 C 0.55157 0.25364 0.34794 0.0
C346 C 0.56243 0.21895 0.2903 0.0
C347 C 0.53257 0.26966 0.27332 0.0
C348 C 0.51584 0.3142 0.2937 0.0
C349 C 0.52488 0.30612 0.3306 0.0
C350 C 0.5148 0.27652 0.23526 0.0
C351 C 0.5091 0.22926 0.21687 0.0
C352 C 0.47974 0.23509 0.18212 0.0
C353 C 0.49167 0.19475 0.15793 0.0
C354 C 0.46155 0.19617 0.12639 0.0
C355 C 0.41821 0.23725 0.11883 0.0
H356 H 0.42489 0.30703 0.19268 0.0
C357 C 0.40648 0.27773 0.14297 0.0
C358 C 0.43675 0.27667 0.17421 0.0
H359 H 0.37327 0.30984 0.13803 0.0
H360 H 0.59271 0.17031 0.34005 0.0
H361 H 0.5776 0.18457 0.27543 0.0
H362 H 0.49336 0.35409 0.28133 0.0
H363 H 0.50939 0.33997 0.34584 0.0
H364 H 0.50107 0.32174 0.22306 0.0
H365 H 0.52351 0.18393 0.22815 0.0
H366 H 0.52408 0.16171 0.1636 0.0
H367 H 0.47147 0.16425 0.10836 0.0
C368 C 0.52398 0.75441 0.16561 0.0
C369 C 0.55302 0.79805 0.14195 0.0
C370 C 0.51516 0.76275 0.20106 0.0
C371 C 0.53545 0.81498 0.21371 0.0
C372 C 0.56592 0.85756 0.19033 0.0
C373 C 0.57492 0.84906 0.15489 0.0
C374 C 0.52107 0.82942 0.2497 0.0
C375 C 0.50557 0.78669 0.27732 0.0
C376 C 0.4835 0.80152 0.31156 0.0
C377 C 0.48347 0.75576 0.34192 0.0
C378 C 0.45787 0.76543 0.37351 0.0
C379 C 0.43112 0.82099 0.37532 0.0
H380 H 0.4559 0.89384 0.29073 0.0
C381 C 0.43236 0.8675 0.3453 0.0
C382 C 0.45814 0.8579 0.31372 0.0
H383 H 0.41198 0.91074 0.34575 0.0
H384 H 0.50672 0.71458 0.1564 0.0
H385 H 0.49032 0.72954 0.21778 0.0
H386 H 0.58162 0.89844 0.19921 0.0
H387 H 0.59686 0.88392 0.13718 0.0
H388 H 0.52297 0.87722 0.25325 0.0
H389 H 0.50869 0.73848 0.27491 0.0
H390 H 0.50234 0.71179 0.34098 0.0
H391 H 0.45771 0.72857 0.39614 0.0
C392 C 0.52155 0.76666 0.67062 0.0
C393 C 0.48993 0.81138 0.64969 0.0
C394 C 0.53569 0.77314 0.70548 0.0
C395 C 0.51893 0.8249 0.71994 0.0
C396 C 0.48329 0.86677 0.70022 0.0
C397 C 0.46897 0.86018 0.66513 0.0
C398 C 0.54122 0.83737 0.75449 0.0
C399 C 0.59349 0.82566 0.76281 0.0
C400 C 0.61989 0.83529 0.79673 0.0
C401 C 0.67652 0.83386 0.79827 0.0
C402 C 0.70354 0.83621 0.83042 0.0
C403 C 0.67445 0.83978 0.86187 0.0
H404 H 0.54706 0.84133 0.82812 0.0
C405 C 0.61781 0.84352 0.86018 0.0
C406 C 0.5907 0.84111 0.82795 0.0
H407 H 0.59423 0.84608 0.88403 0.0
H408 H 0.5374 0.72811 0.65938 0.0
H409 H 0.56145 0.73876 0.72061 0.0
H410 H 0.46924 0.90648 0.7111 0.0
H411 H 0.44447 0.89515 0.64938 0.0
H412 H 0.51556 0.85992 0.77167 0.0
H413 H 0.61916 0.80864 0.74321 0.0
H414 H 0.70004 0.82936 0.77465 0.0
H415 H 0.74719 0.83337 0.83077 0.0
C416 C 0.4862 0.151 0.82691 0.0
C417 C 0.50249 0.19704 0.84627 0.0
C418 C 0.5008 0.15442 0.79083 0.0
C419 C 0.53171 0.20426 0.77378 0.0
C420 C 0.54434 0.25216 0.79275 0.0
C421 C 0.53031 0.24837 0.8287 0.0
C422 C 0.55508 0.20704 0.73741 0.0
C423 C 0.56314 0.15792 0.72101 0.0
C424 C 0.59716 0.16228 0.68849 0.0
C425 C 0.58337 0.12927 0.66099 0.0
C426 C 0.61479 0.13445 0.62987 0.0
C427 C 0.66121 0.17165 0.62624 0.0
H428 H 0.65724 0.22222 0.7066 0.0
C429 C 0.67617 0.20247 0.65451 0.0
C430 C 0.64446 0.19795 0.68526 0.0
H431 H 0.71182 0.2312 0.65266 0.0
H432 H 0.46452 0.11113 0.84011 0.0
H433 H 0.48887 0.11744 0.77686 0.0
H434 H 0.56759 0.29136 0.78026 0.0
H435 H 0.54293 0.28455 0.84322 0.0
H436 H 0.57118 0.25109 0.72491 0.0
H437 H 0.54659 0.11339 0.73188 0.0
H438 H 0.5476 0.10068 0.66321 0.0
H439 H 0.60247 0.10984 0.60858 0.0
C440 C 0.02532 0.68886 0.34112 0.0
C441 C 0.01965 0.74204 0.35683 0.0
C442 C 1.00957 0.68875 0.30556 0.0
C443 C 0.98796 0.74212 0.28503 0.0
C444 C 0.98578 0.79614 0.30024 0.0
C445 C 1.00127 0.79611 0.33573 0.0
C446 C 0.96348 0.74336 0.24893 0.0
C447 C 0.95617 0.69402 0.23254 0.0
C448 C 0.92425 0.69781 0.19904 0.0
C449 C 0.9387 0.66182 0.1731 0.0
C450 C 0.90955 0.66596 0.14106 0.0
C451 C 0.86476 0.70531 0.13481 0.0
H452 H 0.865 0.76234 0.21327 0.0
C453 C 0.84906 0.73937 0.16147 0.0
C454 C 0.87846 0.73571 0.19321 0.0
H455 H 0.81453 0.76977 0.15762 0.0
H456 H 0.03932 0.64649 0.35686 0.0
H457 H 1.01298 0.64623 0.29502 0.0
H458 H 0.96991 0.83814 0.28509 0.0
H459 H 0.99721 0.83799 0.34707 0.0
H460 H 0.94806 0.78734 0.23583 0.0
H461 H 0.97337 0.64989 0.24337 0.0
H462 H 0.97328 0.63151 0.17728 0.0
H463 H 0.9224 0.63882 0.12109 0.0
C464 C 0.90511 0.34266 0.35135 0.0
C465 C 0.84885 0.33668 0.35548 0.0
C466 C 0.92872 0.34669 0.3174 0.0
C467 C 0.89633 0.34499 0.28695 0.0
C468 C 0.84006 0.34125 0.29106 0.0
C469 C 0.81653 0.33738 0.32487 0.0
C470 C 0.9193 0.34096 0.25113 0.0
C471 C 0.96995 0.35723 0.24064 0.0
C472 C 0.99011 0.34735 0.20503 0.0
C473 C 0.0233 0.39124 0.18465 0.0
C474 C 0.03777 0.38481 0.14954 0.0
C475 C 0.01954 0.33406 0.13463 0.0
H476 H 0.95154 0.2587 0.20646 0.0
C477 C 0.98971 0.28814 0.15608 0.0
C478 C 0.97522 0.29463 0.19086 0.0
H479 H 0.97639 0.24772 0.14558 0.0
H480 H 0.93113 0.34214 0.37445 0.0
H481 H 0.97227 0.34838 0.3155 0.0
H482 H 0.81415 0.33971 0.26808 0.0
H483 H 0.77307 0.333 0.32707 0.0
H484 H 0.89255 0.32362 0.23218 0.0
H485 H 0.99607 0.38027 0.25737 0.0
H486 H 0.03598 0.43177 0.19527 0.0
H487 H 0.06102 0.42071 0.13358 0.0
C488 C 0.08381 0.29835 0.85968 0.0
C489 C 0.13995 0.2911 0.86407 0.0
C490 C 0.05872 0.28822 0.82775 0.0
C491 C 0.08952 0.27056 0.79972 0.0
C492 C 0.14543 0.26313 0.80444 0.0
C493 C 0.17034 0.27349 0.83602 0.0
C494 C 0.06589 0.25795 0.76537 0.0
C495 C 0.01767 0.27861 0.75191 0.0
C496 C 1.00017 0.27021 0.71522 0.0
C497 C 0.96887 0.31576 0.69454 0.0
C498 C 0.95858 0.31328 0.6583 0.0
C499 C 0.97927 0.26499 0.64221 0.0
H500 H 0.0389 0.18187 0.71525 0.0
C501 C 1.00686 0.21703 0.66362 0.0
C502 C 0.01684 0.21931 0.69977 0.0
H503 H 0.0223 0.17865 0.65204 0.0
H504 H 0.05925 0.31145 0.88093 0.0
H505 H 0.01538 0.29324 0.82549 0.0
H506 H 0.17024 0.24938 0.78347 0.0
H507 H 0.21362 0.26721 0.83843 0.0
H508 H 0.09189 0.23396 0.74904 0.0
H509 H 0.99313 0.30747 0.76622 0.0
H510 H 0.95485 0.35501 0.70588 0.0
H511 H 0.9372 0.35089 0.6424 0.0
C512 C 0.0896 0.71416 0.63569 0.0
C513 C 0.14552 0.72191 0.63037 0.0
C514 C 0.06573 0.72423 0.66791 0.0
C515 C 0.0975 0.7422 0.69542 0.0
C516 C 0.15318 0.75048 0.68975 0.0
C517 C 0.17694 0.74026 0.65777 0.0
C518 C 0.07491 0.75393 0.73021 0.0
C519 C 0.02724 0.73215 0.74406 0.0
C520 C 1.01003 0.73968 0.78089 0.0
C521 C 0.97851 0.69387 0.80113 0.0
C522 C 0.96758 0.69584 0.8373 0.0
C523 C 0.98781 0.74393 0.8538 0.0
H524 H 0.04885 0.82781 0.78162 0.0
C525 C 0.0159 0.79202 0.83285 0.0
C526 C 0.02661 0.79018 0.79676 0.0
H527 H 0.03094 0.83033 0.84471 0.0
H528 H 0.06422 0.70055 0.61494 0.0
H529 H 0.0225 0.71874 0.67079 0.0
H530 H 0.17868 0.7646 0.71031 0.0
H531 H 0.22007 0.74698 0.65456 0.0
H532 H 0.10108 0.77812 0.74635 0.0
H533 H 1.00273 0.70313 0.72981 0.0
H534 H 0.96456 0.6549 0.78945 0.0
H535 H 0.94585 0.6581 0.85281 0.0
loop_
_geom_bond_atom_site_label_1
_geom_bond_atom_site_label_2
_geom_bond_distance
_geom_bond_site_symmetry_2
_ccdc_geom_bond_type
C0 C1 1.387 . S
C0 C5 1.380 . S
C0 C16 1.494 . S
C1 C0 1.387 . S
C1 C2 1.386 1_455 S
C1 H32 0.930 . S
C2 C1 1.386 1_655 S
C2 C3 1.397 1_655 S
C3 C2 1.397 1_455 S
C3 C4 1.393 . S
C3 H33 0.930 1_455 S
C4 C3 1.393 . S
C4 C5 1.395 . S
C5 C0 1.380 . S
C5 C4 1.395 . S
C5 H34 0.930 . S
O6 Tb7 2.295 . S
O6 C19 1.252 . S
Tb7 O6 2.295 . S
Tb7 O8 2.312 . S
Tb7 O11 2.438 . S
Tb7 O13 2.472 1_556 S
Tb7 O15 2.308 . S
Tb7 C16 2.821 1_556 S
O8 Tb7 2.312 . S
O8 C28 1.264 . S
O9 Eu10 2.308 . S
O9 C19 1.230 1_554 S
Eu10 O9 2.308 . S
Eu10 C12 2.821 1_554 S
Eu10 O14 2.295 . S
Eu10 O21 2.312 . S
Eu10 O30 2.438 . S
Eu10 O31 2.472 1_554 S
O11 Tb7 2.438 . S
O11 C16 1.263 1_556 S
C12 Eu10 2.821 1_556 S
C12 C22 1.494 . S
C12 O30 1.263 1_556 S
C12 O31 1.264 . S
O13 Tb7 2.472 1_554 S
O13 C16 1.264 . S
O14 Eu10 2.295 . S
O14 C20 1.242 . S
O15 Tb7 2.308 . S
O15 C20 1.243 1_556 S
C16 C0 1.494 . S
C16 Tb7 2.821 1_554 S
C16 O11 1.263 1_554 S
C16 O13 1.264 . S
C17 O18 1.260 . S
C17 O21 1.264 . S
O18 C17 1.260 . S
C19 O6 1.252 . S
C19 O9 1.230 1_556 S
C20 O14 1.242 . S
C20 O15 1.243 1_554 S
O21 Eu10 2.312 . S
O21 C17 1.264 . S
C22 C12 1.494 . S
C22 C24 1.380 . S
C22 C25 1.387 . S
C23 C24 1.395 . S
C23 C27 1.393 . S
C24 C22 1.380 . S
C24 C23 1.395 . S
C24 H35 0.930 . S
C25 C22 1.387 . S
C25 C26 1.386 . S
C25 H36 0.930 . S
C26 C25 1.386 . S
C26 C27 1.397 . S
C27 C23 1.393 . S
C27 C26 1.397 . S
C27 H37 0.930 . S
C28 O8 1.264 . S
C28 O29 1.260 . S
O29 C28 1.260 . S
O30 Eu10 2.438 . S
O30 C12 1.263 1_554 S
O31 Eu10 2.472 1_556 S
O31 C12 1.264 . S
H32 C1 0.930 . S
H33 C3 0.930 1_655 S
H34 C5 0.930 . S
H35 C24 0.930 . S
H36 C25 0.930 . S
H37 C27 0.930 . S
C38 C39 1.387 . S
C38 C43 1.380 . S
C38 C54 1.494 . S
C39 C38 1.387 . S
C39 C40 1.386 . S
C39 H70 0.930 . S
C40 C39 1.386 . S
C40 C41 1.397 . S
C41 C40 1.397 . S
C41 C42 1.393 . S
C41 H71 0.930 . S
C42 C41 1.393 . S
C42 C43 1.395 . S
C43 C38 1.380 . S
C43 C42 1.395 . S
C43 H72 0.930 . S
O44 Tb45 2.295 . S
O44 C57 1.252 . S
Tb45 O44 2.295 . S
Tb45 O46 2.312 . S
Tb45 O49 2.438 . S
Tb45 O51 2.472 1_556 S
Tb45 O53 2.308 . S
Tb45 C54 2.821 1_556 S
O46 Tb45 2.312 . S
O46 C66 1.264 . S
O47 Eu48 2.308 . S
O47 C57 1.230 1_554 S
Eu48 O47 2.308 . S
Eu48 C50 2.821 1_554 S
Eu48 O52 2.295 . S
Eu48 O59 2.312 . S
Eu48 O68 2.438 . S
Eu48 O69 2.472 1_554 S
O49 Tb45 2.438 . S
O49 C54 1.263 1_556 S
C50 Eu48 2.821 1_556 S
C50 C60 1.494 . S
C50 O68 1.263 1_556 S
C50 O69 1.264 . S
O51 Tb45 2.472 1_554 S
O51 C54 1.264 . S
O52 Eu48 2.295 . S
O52 C58 1.242 . S
O53 Tb45 2.308 . S
O53 C58 1.243 1_556 S
C54 C38 1.494 . S
C54 Tb45 2.821 1_554 S
C54 O49 1.263 1_554 S
C54 O51 1.264 . S
C55 O56 1.260 . S
C55 O59 1.264 . S
O56 C55 1.260 . S
C57 O44 1.252 . S
C57 O47 1.230 1_556 S
C58 O52 1.242 . S
C58 O53 1.243 1_554 S
O59 Eu48 2.312 . S
O59 C55 1.264 . S
C60 C50 1.494 . S
C60 C62 1.380 . S
C60 C63 1.387 . S
C61 C62 1.395 . S
C61 C65 1.393 . S
C62 C60 1.380 . S
C62 C61 1.395 . S
C62 H73 0.930 . S
C63 C60 1.387 . S
C63 C64 1.386 1_655 S
C63 H74 0.930 . S
C64 C63 1.386 1_455 S
C64 C65 1.397 1_455 S
C65 C61 1.393 . S
C65 C64 1.397 1_655 S
C65 H75 0.930 1_655 S
C66 O46 1.264 . S
C66 O67 1.260 . S
O67 C66 1.260 . S
O68 Eu48 2.438 . S
O68 C50 1.263 1_554 S
O69 Eu48 2.472 1_556 S
O69 C50 1.264 . S
H70 C39 0.930 . S
H71 C41 0.930 . S
H72 C43 0.930 . S
H73 C62 0.930 . S
H74 C63 0.930 . S
H75 C65 0.930 1_455 S
C76 C77 1.387 . S
C76 C81 1.380 . S
C76 C92 1.494 . S
C77 C76 1.387 . S
C77 C78 1.386 1_455 S
C77 H108 0.930 . S
C78 C77 1.386 1_655 S
C78 C79 1.397 1_655 S
C79 C78 1.397 1_455 S
C79 C80 1.393 . S
C79 H109 0.930 1_455 S
C80 C79 1.393 . S
C80 C81 1.395 . S
C81 C76 1.380 . S
C81 C80 1.395 . S
C81 H110 0.930 . S
O82 Tb83 2.295 . S
O82 C95 1.242 . S
Tb83 O82 2.295 . S
Tb83 O84 2.312 . S
Tb83 O87 2.438 . S
Tb83 O89 2.472 . S
Tb83 O91 2.308 . S
Tb83 C92 2.821 . S
O84 Tb83 2.312 . S
O84 C104 1.264 . S
O85 Eu86 2.308 . S
O85 C95 1.243 . S
Eu86 O85 2.308 . S
Eu86 C88 2.821 . S
Eu86 O90 2.295 . S
Eu86 O97 2.312 . S
Eu86 O106 2.438 . S
Eu86 O107 2.472 . S
O87 Tb83 2.438 . S
O87 C92 1.263 . S
C88 Eu86 2.821 . S
C88 C98 1.494 . S
C88 O106 1.263 . S
C88 O107 1.264 . S
O89 Tb83 2.472 . S
O89 C92 1.264 . S
O90 Eu86 2.295 . S
O90 C96 1.242 . S
O91 Tb83 2.308 . S
O91 C96 1.243 . S
C92 C76 1.494 . S
C92 Tb83 2.821 . S
C92 O87 1.263 . S
C92 O89 1.264 . S
C93 O94 1.260 . S
C93 O97 1.264 . S
O94 C93 1.260 . S
C95 O82 1.242 . S
C95 O85 1.243 . S
C96 O90 1.242 . S
C96 O91 1.243 . S
O97 Eu86 2.312 . S
O97 C93 1.264 . S
C98 C88 1.494 . S
C98 C100 1.380 . S
C98 C101 1.387 . S
C99 C100 1.395 . S
C99 C103 1.393 . S
C100 C98 1.380 . S
C100 C99 1.395 . S
C100 H111 0.930 . S
C101 C98 1.387 . S
C101 C102 1.386 . S
C101 H112 0.930 . S
C102 C101 1.386 . S
C102 C103 1.397 . S
C103 C99 1.393 . S
C103 C102 1.397 . S
C103 H113 0.930 . S
C104 O84 1.264 . S
C104 O105 1.260 . S
O105 C104 1.260 . S
O106 Eu86 2.438 . S
O106 C88 1.263 . S
O107 Eu86 2.472 . S
O107 C88 1.264 . S
H108 C77 0.930 . S
H109 C79 0.930 1_655 S
H110 C81 0.930 . S
H111 C100 0.930 . S
H112 C101 0.930 . S
H113 C103 0.930 . S
C114 C115 1.387 . S
C114 C119 1.380 . S
C114 C130 1.494 . S
C115 C114 1.387 . S
C115 C116 1.386 . S
C115 H146 0.930 . S
C116 C115 1.386 . S
C116 C117 1.397 . S
C117 C116 1.397 . S
C117 C118 1.393 . S
C117 H147 0.930 . S
C118 C117 1.393 . S
C118 C119 1.395 . S
C119 C114 1.380 . S
C119 C118 1.395 . S
C119 H148 0.930 . S
O120 Tb121 2.295 . S
O120 C133 1.242 . S
Tb121 O120 2.295 . S
Tb121 O122 2.312 . S
Tb121 O125 2.438 . S
Tb121 O127 2.472 . S
Tb121 O129 2.308 . S
Tb121 C130 2.821 . S
O122 Tb121 2.312 . S
O122 C142 1.264 . S
O123 Eu124 2.308 . S
O123 C133 1.243 . S
Eu124 O123 2.308 . S
Eu124 C126 2.821 . S
Eu124 O128 2.295 . S
Eu124 O135 2.312 . S
Eu124 O144 2.438 . S
Eu124 O145 2.472 . S
O125 Tb121 2.438 . S
O125 C130 1.263 . S
C126 Eu124 2.821 . S
C126 C136 1.494 . S
C126 O144 1.263 . S
C126 O145 1.264 . S
O127 Tb121 2.472 . S
O127 C130 1.264 . S
O128 Eu124 2.295 . S
O128 C134 1.242 . S
O129 Tb121 2.308 . S
O129 C134 1.243 . S
C130 C114 1.494 . S
C130 Tb121 2.821 . S
C130 O125 1.263 . S
C130 O127 1.264 . S
C131 O132 1.260 . S
C131 O135 1.264 . S
O132 C131 1.260 . S
C133 O120 1.242 . S
C133 O123 1.243 . S
C134 O128 1.242 . S
C134 O129 1.243 . S
O135 Eu124 2.312 . S
O135 C131 1.264 . S
C136 C126 1.494 . S
C136 C138 1.380 . S
C136 C139 1.387 . S
C137 C138 1.395 . S
C137 C141 1.393 . S
C138 C136 1.380 . S
C138 C137 1.395 . S
C138 H149 0.930 . S
C139 C136 1.387 . S
C139 C140 1.386 1_655 S
C139 H150 0.930 . S
C140 C139 1.386 1_455 S
C140 C141 1.397 1_455 S
C141 C137 1.393 . S
C141 C140 1.397 1_655 S
C141 H151 0.930 1_655 S
C142 O122 1.264 . S
C142 O143 1.260 . S
O143 C142 1.260 . S
O144 Eu124 2.438 . S
O144 C126 1.263 . S
O145 Eu124 2.472 . S
O145 C126 1.264 . S
H146 C115 0.930 . S
H147 C117 0.930 . S
H148 C119 0.930 . S
H149 C138 0.930 . S
H150 C139 0.930 . S
H151 C141 0.930 1_455 S
C152 C153 1.386 . S
C152 C154 1.383 . S
C152 H168 0.951 . S
C153 C152 1.386 . S
C153 C157 1.383 . S
C154 C152 1.383 . S
C154 C155 1.402 . S
C154 H169 0.951 . S
C155 C154 1.402 . S
C155 C156 1.375 1_556 S
C155 C158 1.481 1_556 S
C156 C155 1.375 1_554 S
C156 C157 1.367 1_554 S
C156 H170 0.951 . S
C157 C153 1.383 . S
C157 C156 1.367 1_556 S
C157 H171 0.950 1_556 S
C158 C155 1.481 1_554 S
C158 C159 1.297 1_554 S
C158 H172 0.950 . S
C159 C158 1.297 1_556 S
C159 C160 1.479 1_556 S
C159 H173 0.950 . S
C160 C159 1.479 1_554 S
C160 C161 1.375 1_554 S
C160 C166 1.404 . S
C161 C160 1.375 1_556 S
C161 C162 1.369 1_556 S
C161 H174 0.950 . S
C162 C161 1.369 1_554 S
C162 C163 1.392 . S
C162 H175 0.951 1_554 S
C163 C162 1.392 . S
C163 C165 1.384 . S
H164 C166 0.949 . S
C165 C163 1.384 . S
C165 C166 1.385 . S
C165 H167 0.950 . S
C166 C160 1.404 . S
C166 H164 0.949 . S
C166 C165 1.385 . S
H167 C165 0.950 . S
H168 C152 0.951 . S
H169 C154 0.951 . S
H170 C156 0.951 . S
H171 C157 0.950 1_554 S
H172 C158 0.950 . S
H173 C159 0.950 . S
H174 C161 0.950 . S
H175 C162 0.951 1_556 S
C176 C177 1.386 . S
C176 C178 1.383 . S
C176 H192 0.951 . S
C177 C176 1.386 . S
C177 C181 1.383 . S
C178 C176 1.383 . S
C178 C179 1.402 . S
C178 H193 0.951 . S
C179 C178 1.402 . S
C179 C180 1.375 . S
C179 C182 1.481 1_556 S
C180 C179 1.375 . S
C180 C181 1.367 . S
C180 H194 0.951 1_556 S
C181 C177 1.383 . S
C181 C180 1.367 . S
C181 H195 0.950 . S
C182 C179 1.481 1_554 S
C182 C183 1.297 . S
C182 H196 0.950 . S
C183 C182 1.297 . S
C183 C184 1.479 . S
C183 H197 0.950 . S
C184 C183 1.479 . S
C184 C185 1.375 . S
C184 C190 1.404 . S
C185 C184 1.375 . S
C185 C186 1.369 . S
C185 H198 0.950 . S
C186 C185 1.369 . S
C186 C187 1.392 . S
C186 H199 0.951 . S
C187 C186 1.392 . S
C187 C189 1.384 . S
H188 C190 0.949 . S
C189 C187 1.384 . S
C189 C190 1.385 . S
C189 H191 0.950 . S
C190 C184 1.404 . S
C190 H188 0.949 . S
C190 C189 1.385 . S
H191 C189 0.950 . S
H192 C176 0.951 . S
H193 C178 0.951 . S
H194 C180 0.951 1_554 S
H195 C181 0.950 . S
H196 C182 0.950 . S
H197 C183 0.950 . S
H198 C185 0.950 . S
H199 C186 0.951 . S
C200 C201 1.386 . S
C200 C202 1.383 . S
C200 H216 0.951 . S
C201 C200 1.386 . S
C201 C205 1.383 . S
C202 C200 1.383 . S
C202 C203 1.402 . S
C202 H217 0.951 . S
C203 C202 1.402 . S
C203 C204 1.375 . S
C203 C206 1.481 . S
C204 C203 1.375 . S
C204 C205 1.367 . S
C204 H218 0.951 . S
C205 C201 1.383 . S
C205 C204 1.367 . S
C205 H219 0.950 . S
C206 C203 1.481 . S
C206 C207 1.297 . S
C206 H220 0.950 . S
C207 C206 1.297 . S
C207 C208 1.479 . S
C207 H221 0.950 . S
C208 C207 1.479 . S
C208 C209 1.375 . S
C208 C214 1.404 . S
C209 C208 1.375 . S
C209 C210 1.369 . S
C209 H222 0.950 . S
C210 C209 1.369 . S
C210 C211 1.392 . S
C210 H223 0.951 . S
C211 C210 1.392 . S
C211 C213 1.384 . S
H212 C214 0.949 . S
C213 C211 1.384 . S
C213 C214 1.385 . S
C213 H215 0.950 . S
C214 C208 1.404 . S
C214 H212 0.949 . S
C214 C213 1.385 . S
H215 C213 0.950 . S
H216 C200 0.951 . S
H217 C202 0.951 . S
H218 C204 0.951 . S
H219 C205 0.950 . S
H220 C206 0.950 . S
H221 C207 0.950 . S
H222 C209 0.950 . S
H223 C210 0.951 . S
C224 C225 1.386 . S
C224 C226 1.383 . S
C224 H240 0.951 . S
C225 C224 1.386 . S
C225 C229 1.383 . S
C226 C224 1.383 . S
C226 C227 1.402 . S
C226 H241 0.951 . S
C227 C226 1.402 . S
C227 C228 1.375 . S
C227 C230 1.481 . S
C228 C227 1.375 . S
C228 C229 1.367 . S
C228 H242 0.951 . S
C229 C225 1.383 . S
C229 C228 1.367 . S
C229 H243 0.950 . S
C230 C227 1.481 . S
C230 C231 1.297 . S
C230 H244 0.950 . S
C231 C230 1.297 . S
C231 C232 1.479 . S
C231 H245 0.950 . S
C232 C231 1.479 . S
C232 C233 1.375 . S
C232 C238 1.404 . S
C233 C232 1.375 . S
C233 C234 1.369 . S
C233 H246 0.950 . S
C234 C233 1.369 . S
C234 C235 1.392 . S
C234 H247 0.951 . S
C235 C234 1.392 . S
C235 C237 1.384 . S
H236 C238 0.949 . S
C237 C235 1.384 . S
C237 C238 1.385 . S
C237 H239 0.950 . S
C238 C232 1.404 . S
C238 H236 0.949 . S
C238 C237 1.385 . S
H239 C237 0.950 . S
H240 C224 0.951 . S
H241 C226 0.951 . S
H242 C228 0.951 . S
H243 C229 0.950 . S
H244 C230 0.950 . S
H245 C231 0.950 . S
H246 C233 0.950 . S
H247 C234 0.951 . S
C248 C249 1.385 1_556 S
C248 C250 1.383 . S
C248 H264 0.951 . S
C249 C248 1.385 1_554 S
C249 C253 1.384 . S
C250 C248 1.383 . S
C250 C251 1.402 1_556 S
C250 H265 0.951 . S
C251 C250 1.402 1_554 S
C251 C252 1.375 . S
C251 C254 1.481 . S
C252 C251 1.375 . S
C252 C253 1.367 . S
C252 H266 0.951 . S
C253 C249 1.384 . S
C253 C252 1.367 . S
C253 H267 0.950 . S
C254 C251 1.481 . S
C254 C255 1.297 1_554 S
C254 H268 0.950 . S
C255 C254 1.297 1_556 S
C255 C256 1.479 . S
C255 H269 0.950 . S
C256 C255 1.479 . S
C256 C257 1.375 . S
C256 C262 1.404 1_556 S
C257 C256 1.375 . S
C257 C258 1.369 . S
C257 H270 0.950 . S
C258 C257 1.369 . S
C258 C259 1.392 1_556 S
C258 H271 0.951 . S
C259 C258 1.392 1_554 S
C259 C261 1.384 . S
H260 C262 0.949 . S
C261 C259 1.384 . S
C261 C262 1.385 . S
C261 H263 0.950 . S
C262 C256 1.404 1_554 S
C262 H260 0.949 . S
C262 C261 1.385 . S
H263 C261 0.950 . S
H264 C248 0.951 . S
H265 C250 0.951 . S
H266 C252 0.951 . S
H267 C253 0.950 . S
H268 C254 0.950 . S
H269 C255 0.950 . S
H270 C257 0.950 . S
H271 C258 0.951 . S
C272 C273 1.386 . S
C272 C274 1.383 . S
C272 H288 0.951 . S
C273 C272 1.386 . S
C273 C277 1.383 . S
C274 C272 1.383 . S
C274 C275 1.402 . S
C274 H289 0.951 . S
C275 C274 1.402 . S
C275 C276 1.375 . S
C275 C278 1.481 . S
C276 C275 1.375 . S
C276 C277 1.367 . S
C276 H290 0.951 . S
C277 C273 1.383 . S
C277 C276 1.367 . S
C277 H291 0.950 . S
C278 C275 1.481 . S
C278 C279 1.297 . S
C278 H292 0.950 . S
C279 C278 1.297 . S
C279 C280 1.479 . S
C279 H293 0.950 . S
C280 C279 1.479 . S
C280 C281 1.375 . S
C280 C286 1.404 . S
C281 C280 1.375 . S
C281 C282 1.369 . S
C281 H294 0.950 . S
C282 C281 1.369 . S
C282 C283 1.392 . S
C282 H295 0.951 . S
C283 C282 1.392 . S
C283 C285 1.384 . S
H284 C286 0.949 . S
C285 C283 1.384 . S
C285 C286 1.385 . S
C285 H287 0.950 . S
C286 C280 1.404 . S
C286 H284 0.949 . S
C286 C285 1.385 . S
H287 C285 0.950 . S
H288 C272 0.951 . S
H289 C274 0.951 . S
H290 C276 0.951 . S
H291 C277 0.950 . S
H292 C278 0.950 . S
H293 C279 0.950 . S
H294 C281 0.950 . S
H295 C282 0.951 . S
C296 C297 1.361 1_556 S
C296 C298 1.383 . S
C296 H312 0.951 . S
C297 C296 1.361 1_554 S
C297 C301 1.408 . S
C298 C296 1.383 . S
C298 C299 1.402 1_556 S
C298 H313 0.951 . S
C299 C298 1.402 1_554 S
C299 C300 1.375 . S
C299 C302 1.481 1_545 S
C300 C299 1.375 . S
C300 C301 1.367 . S
C300 H314 0.951 . S
C301 C297 1.408 . S
C301 C300 1.367 . S
C301 H315 0.950 . S
C302 C299 1.481 1_565 S
C302 C303 1.290 1_454 S
C302 H316 0.950 . S
C303 C302 1.290 1_656 S
C303 C304 1.492 . S
C303 H317 0.945 1_655 S
C304 C303 1.492 . S
C304 C305 1.375 . S
C304 C310 1.404 1_556 S
C305 C304 1.375 . S
C305 C306 1.369 . S
C305 H318 0.950 . S
C306 C305 1.369 . S
C306 C307 1.392 1_556 S
C306 H319 0.951 . S
C307 C306 1.392 1_554 S
C307 C309 1.384 . S
H308 C310 0.949 . S
C309 C307 1.384 . S
C309 C310 1.385 . S
C309 H311 0.950 . S
C310 C304 1.404 1_554 S
C310 H308 0.949 . S
C310 C309 1.385 . S
H311 C309 0.950 . S
H312 C296 0.951 . S
H313 C298 0.951 . S
H314 C300 0.951 . S
H315 C301 0.950 . S
H316 C302 0.950 . S
H317 C303 0.945 1_455 S
H318 C305 0.950 . S
H319 C306 0.951 . S
C320 C321 1.386 . S
C320 C322 1.383 . S
C320 H336 0.951 . S
C321 C320 1.386 . S
C321 C325 1.383 . S
C322 C320 1.383 . S
C322 C323 1.402 . S
C322 H337 0.951 . S
C323 C322 1.402 . S
C323 C324 1.375 . S
C323 C326 1.471 1_545 S
C324 C323 1.375 . S
C324 C325 1.367 . S
C324 H338 0.951 1_545 S
C325 C321 1.383 . S
C325 C324 1.367 . S
C325 H339 0.950 . S
C326 C323 1.471 1_565 S
C326 C327 1.295 1_665 S
C326 H340 0.963 . S
C327 C326 1.295 1_445 S
C327 C328 1.479 1_545 S
C327 H341 0.950 . S
C328 C327 1.479 1_565 S
C328 C329 1.375 . S
C328 C334 1.404 . S
C329 C328 1.375 . S
C329 C330 1.369 . S
C329 H342 0.950 1_565 S
C330 C329 1.369 . S
C330 C331 1.392 . S
C330 H343 0.951 . S
C331 C330 1.392 . S
C331 C333 1.384 . S
H332 C334 0.949 . S
C333 C331 1.384 . S
C333 C334 1.385 . S
C333 H335 0.950 . S
C334 C328 1.404 . S
C334 H332 0.949 . S
C334 C333 1.385 . S
H335 C333 0.950 . S
H336 C320 0.951 . S
H337 C322 0.951 . S
H338 C324 0.951 1_565 S
H339 C325 0.950 . S
H340 C326 0.963 . S
H341 C327 0.950 . S
H342 C329 0.950 1_545 S
H343 C330 0.951 . S
C344 C345 1.386 . S
C344 C346 1.383 . S
C344 H360 0.951 . S
C345 C344 1.386 . S
C345 C349 1.383 . S
C346 C344 1.383 . S
C346 C347 1.402 . S
C346 H361 0.951 . S
C347 C346 1.402 . S
C347 C348 1.375 . S
C347 C350 1.481 . S
C348 C347 1.375 . S
C348 C349 1.367 . S
C348 H362 0.951 . S
C349 C345 1.383 . S
C349 C348 1.367 . S
C349 H363 0.950 . S
C350 C347 1.481 . S
C350 C351 1.297 . S
C350 H364 0.950 . S
C351 C350 1.297 . S
C351 C352 1.479 . S
C351 H365 0.950 . S
C352 C351 1.479 . S
C352 C353 1.375 . S
C352 C358 1.404 . S
C353 C352 1.375 . S
C353 C354 1.369 . S
C353 H366 0.950 . S
C354 C353 1.369 . S
C354 C355 1.392 . S
C354 H367 0.951 . S
C355 C354 1.392 . S
C355 C357 1.384 . S
H356 C358 0.949 . S
C357 C355 1.384 . S
C357 C358 1.385 . S
C357 H359 0.950 . S
C358 C352 1.404 . S
C358 H356 0.949 . S
C358 C357 1.385 . S
H359 C357 0.950 . S
H360 C344 0.951 . S
H361 C346 0.951 . S
H362 C348 0.951 . S
H363 C349 0.950 . S
H364 C350 0.950 . S
H365 C351 0.950 . S
H366 C353 0.950 . S
H367 C354 0.951 . S
C368 C369 1.386 . S
C368 C370 1.383 . S
C368 H384 0.951 . S
C369 C368 1.386 . S
C369 C373 1.383 . S
C370 C368 1.383 . S
C370 C371 1.402 . S
C370 H385 0.951 . S
C371 C370 1.402 . S
C371 C372 1.375 . S
C371 C374 1.481 . S
C372 C371 1.375 . S
C372 C373 1.367 . S
C372 H386 0.951 . S
C373 C369 1.383 . S
C373 C372 1.367 . S
C373 H387 0.950 . S
C374 C371 1.481 . S
C374 C375 1.297 . S
C374 H388 0.950 . S
C375 C374 1.297 . S
C375 C376 1.479 . S
C375 H389 0.950 . S
C376 C375 1.479 . S
C376 C377 1.375 . S
C376 C382 1.404 . S
C377 C376 1.375 . S
C377 C378 1.369 . S
C377 H390 0.950 . S
C378 C377 1.369 . S
C378 C379 1.392 . S
C378 H391 0.951 . S
C379 C378 1.392 . S
C379 C381 1.384 . S
H380 C382 0.949 . S
C381 C379 1.384 . S
C381 C382 1.385 . S
C381 H383 0.950 . S
C382 C376 1.404 . S
C382 H380 0.949 . S
C382 C381 1.385 . S
H383 C381 0.950 . S
H384 C368 0.951 . S
H385 C370 0.951 . S
H386 C372 0.951 . S
H387 C373 0.950 . S
H388 C374 0.950 . S
H389 C375 0.950 . S
H390 C377 0.950 . S
H391 C378 0.951 . S
C392 C393 1.386 . S
C392 C394 1.383 . S
C392 H408 0.951 . S
C393 C392 1.386 . S
C393 C397 1.383 . S
C394 C392 1.383 . S
C394 C395 1.402 . S
C394 H409 0.951 . S
C395 C394 1.402 . S
C395 C396 1.375 . S
C395 C398 1.481 . S
C396 C395 1.375 . S
C396 C397 1.367 . S
C396 H410 0.951 . S
C397 C393 1.383 . S
C397 C396 1.367 . S
C397 H411 0.950 . S
C398 C395 1.481 . S
C398 C399 1.297 . S
C398 H412 0.950 . S
C399 C398 1.297 . S
C399 C400 1.479 . S
C399 H413 0.950 . S
C400 C399 1.479 . S
C400 C401 1.375 . S
C400 C406 1.404 . S
C401 C400 1.375 . S
C401 C402 1.369 . S
C401 H414 0.950 . S
C402 C401 1.369 . S
C402 C403 1.392 . S
C402 H415 0.951 . S
C403 C402 1.392 . S
C403 C405 1.384 . S
H404 C406 0.949 . S
C405 C403 1.384 . S
C405 C406 1.385 . S
C405 H407 0.950 . S
C406 C400 1.404 . S
C406 H404 0.949 . S
C406 C405 1.385 . S
H407 C405 0.950 . S
H408 C392 0.951 . S
H409 C394 0.951 . S
H410 C396 0.951 . S
H411 C397 0.950 . S
H412 C398 0.950 . S
H413 C399 0.950 . S
H414 C401 0.950 . S
H415 C402 0.951 . S
C416 C417 1.386 . S
C416 C418 1.383 . S
C416 H432 0.951 . S
C417 C416 1.386 . S
C417 C421 1.383 . S
C418 C416 1.383 . S
C418 C419 1.402 . S
C418 H433 0.951 . S
C419 C418 1.402 . S
C419 C420 1.375 . S
C419 C422 1.481 . S
C420 C419 1.375 . S
C420 C421 1.367 . S
C420 H434 0.951 . S
C421 C417 1.383 . S
C421 C420 1.367 . S
C421 H435 0.950 . S
C422 C419 1.481 . S
C422 C423 1.297 . S
C422 H436 0.950 . S
C423 C422 1.297 . S
C423 C424 1.479 . S
C423 H437 0.950 . S
C424 C423 1.479 . S
C424 C425 1.375 . S
C424 C430 1.404 . S
C425 C424 1.375 . S
C425 C426 1.369 . S
C425 H438 0.950 . S
C426 C425 1.369 . S
C426 C427 1.392 . S
C426 H439 0.951 . S
C427 C426 1.392 . S
C427 C429 1.384 . S
H428 C430 0.949 . S
C429 C427 1.384 . S
C429 C430 1.385 . S
C429 H431 0.950 . S
C430 C424 1.404 . S
C430 H428 0.949 . S
C430 C429 1.385 . S
H431 C429 0.950 . S
H432 C416 0.951 . S
H433 C418 0.951 . S
H434 C420 0.951 . S
H435 C421 0.950 . S
H436 C422 0.950 . S
H437 C423 0.950 . S
H438 C425 0.950 . S
H439 C426 0.951 . S
C440 C441 1.386 . S
C440 C442 1.383 . S
C440 H456 0.951 . S
C441 C440 1.386 . S
C441 C445 1.383 . S
C442 C440 1.383 . S
C442 C443 1.402 1_455 S
C442 H457 0.951 1_455 S
C443 C442 1.402 1_655 S
C443 C444 1.375 1_655 S
C443 C446 1.481 . S
C444 C443 1.375 1_455 S
C444 C445 1.367 . S
C444 H458 0.951 1_455 S
C445 C441 1.383 . S
C445 C444 1.367 . S
C445 H459 0.950 . S
C446 C443 1.481 . S
C446 C447 1.297 . S
C446 H460 0.950 . S
C447 C446 1.297 . S
C447 C448 1.479 . S
C447 H461 0.950 . S
C448 C447 1.479 . S
C448 C449 1.375 . S
C448 C454 1.404 . S
C449 C448 1.375 . S
C449 C450 1.369 . S
C449 H462 0.950 . S
C450 C449 1.369 . S
C450 C451 1.392 . S
C450 H463 0.951 . S
C451 C450 1.392 . S
C451 C453 1.384 . S
H452 C454 0.949 . S
C453 C451 1.384 . S
C453 C454 1.385 . S
C453 H455 0.950 . S
C454 C448 1.404 . S
C454 H452 0.949 . S
C454 C453 1.385 . S
H455 C453 0.950 . S
H456 C440 0.951 . S
H457 C442 0.951 1_655 S
H458 C444 0.951 1_655 S
H459 C445 0.950 . S
H460 C446 0.950 . S
H461 C447 0.950 . S
H462 C449 0.950 . S
H463 C450 0.951 . S
C464 C465 1.386 . S
C464 C466 1.383 . S
C464 H480 0.951 . S
C465 C464 1.386 . S
C465 C469 1.383 . S
C466 C464 1.383 . S
C466 C467 1.402 . S
C466 H481 0.951 . S
C467 C466 1.402 . S
C467 C468 1.375 . S
C467 C470 1.481 . S
C468 C467 1.375 . S
C468 C469 1.367 . S
C468 H482 0.951 . S
C469 C465 1.383 . S
C469 C468 1.367 . S
C469 H483 0.950 . S
C470 C467 1.481 . S
C470 C471 1.297 . S
C470 H484 0.950 . S
C471 C470 1.297 . S
C471 C472 1.479 1_655 S
C471 H485 0.950 1_655 S
C472 C471 1.479 1_455 S
C472 C473 1.375 . S
C472 C478 1.406 . S
C473 C472 1.375 . S
C473 C474 1.369 . S
C473 H486 0.950 . S
C474 C473 1.369 . S
C474 C475 1.392 . S
C474 H487 0.951 . S
C475 C474 1.392 . S
C475 C477 1.384 . S
H476 C478 0.944 1_655 S
C477 C475 1.384 . S
C477 C478 1.387 . S
C477 H479 0.950 . S
C478 C472 1.406 . S
C478 H476 0.944 1_455 S
C478 C477 1.387 . S
H479 C477 0.950 . S
H480 C464 0.951 . S
H481 C466 0.951 . S
H482 C468 0.951 . S
H483 C469 0.950 . S
H484 C470 0.950 . S
H485 C471 0.950 1_455 S
H486 C473 0.950 . S
H487 C474 0.951 . S
C488 C489 1.386 . S
C488 C490 1.383 . S
C488 H504 0.951 . S
C489 C488 1.386 . S
C489 C493 1.383 . S
C490 C488 1.383 . S
C490 C491 1.402 . S
C490 H505 0.951 . S
C491 C490 1.402 . S
C491 C492 1.375 . S
C491 C494 1.481 . S
C492 C491 1.375 . S
C492 C493 1.367 . S
C492 H506 0.951 . S
C493 C489 1.383 . S
C493 C492 1.367 . S
C493 H507 0.950 . S
C494 C491 1.481 . S
C494 C495 1.297 . S
C494 H508 0.950 . S
C495 C494 1.297 . S
C495 C496 1.479 . S
C495 H509 0.950 . S
C496 C495 1.479 . S
C496 C497 1.375 1_455 S
C496 C502 1.404 . S
C497 C496 1.375 1_655 S
C497 C498 1.369 . S
C497 H510 0.950 1_655 S
C498 C497 1.369 . S
C498 C499 1.392 . S
C498 H511 0.951 . S
C499 C498 1.392 . S
C499 C501 1.384 . S
H500 C502 0.949 . S
C501 C499 1.384 . S
C501 C502 1.385 1_655 S
C501 H503 0.950 . S
C502 C496 1.404 . S
C502 H500 0.949 . S
C502 C501 1.385 1_455 S
H503 C501 0.950 . S
H504 C488 0.951 . S
H505 C490 0.951 . S
H506 C492 0.951 . S
H507 C493 0.950 . S
H508 C494 0.950 . S
H509 C495 0.950 . S
H510 C497 0.950 1_455 S
H511 C498 0.951 . S
C512 C513 1.386 . S
C512 C514 1.383 . S
C512 H528 0.951 . S
C513 C512 1.386 . S
C513 C517 1.383 . S
C514 C512 1.383 . S
C514 C515 1.402 . S
C514 H529 0.951 . S
C515 C514 1.402 . S
C515 C516 1.375 . S
C515 C518 1.481 . S
C516 C515 1.375 . S
C516 C517 1.367 . S
C516 H530 0.951 . S
C517 C513 1.383 . S
C517 C516 1.367 . S
C517 H531 0.950 . S
C518 C515 1.481 . S
C518 C519 1.297 . S
C518 H532 0.950 . S
C519 C518 1.297 . S
C519 C520 1.479 . S
C519 H533 0.950 . S
C520 C519 1.479 . S
C520 C521 1.375 1_455 S
C520 C526 1.404 . S
C521 C520 1.375 1_655 S
C521 C522 1.369 . S
C521 H534 0.950 . S
C522 C521 1.369 . S
C522 C523 1.392 . S
C522 H535 0.951 . S
C523 C522 1.392 . S
C523 C525 1.384 . S
H524 C526 0.949 . S
C525 C523 1.384 . S
C525 C526 1.385 1_655 S
C525 H527 0.950 1_655 S
C526 C520 1.404 . S
C526 H524 0.949 . S
C526 C525 1.385 1_455 S
H527 C525 0.950 1_455 S
H528 C512 0.951 . S
H529 C514 0.951 . S
H530 C516 0.951 . S
H531 C517 0.950 . S
H532 C518 0.950 . S
H533 C519 0.950 . S
H534 C521 0.950 . S
H535 C522 0.951 . S
C153 C26 1.914 . S
C163 C2 1.901 . S
C177 C64 1.911 . S
C187 C40 1.916 . S
C201 C102 1.910 . S
C211 C78 1.913 . S
C225 C140 1.917 . S
C235 C116 1.897 . S
C249 C57 1.604 1_554 S
C259 C20 1.580 . S
C273 C133 1.604 . S
C283 C96 1.580 . S
C297 C19 1.604 1_554 S
C307 C58 1.581 . S
C321 C134 1.596 . S
C331 C95 1.602 . S
C345 C118 1.073 . S
C355 C17 1.086 . S
C369 C42 1.160 . S
C379 C93 1.205 . S
C393 C99 1.130 . S
C403 C66 1.088 . S
C417 C23 1.121 . S
C427 C142 1.220 . S
C441 C80 1.089 . S
C451 C55 1.104 . S
C465 C131 1.187 . S
C475 C4 1.186 . S
C489 C28 1.167 . S
C499 C137 1.032 . S
C513 C104 1.136 . S
C523 C61 1.073 . S
