# Generated by pormake.
# Topology mdf, (4)-cn, num edge types: 1
# Building blocks:
#     Node 0, Type 0, BuildingBlock: GALJAG_clean_sbu_0, # of connection points: 4
#     Node 1, Type 0, BuildingBlock: GALJAG_clean_sbu_0, # of connection points: 4
#     Node 2, Type 0, BuildingBlock: GALJAG_clean_sbu_0, # of connection points: 4
#     Node 3, Type 0, BuildingBlock: GALJAG_clean_sbu_0, # of connection points: 4
#     Node 4, Type 0, BuildingBlock: GALJAG_clean_sbu_0, # of connection points: 4
#     Node 5, Type 0, BuildingBlock: GALJAG_clean_sbu_0, # of connection points: 4
#     Node 6, Type 0, BuildingBlock: GALJAG_clean_sbu_0, # of connection points: 4
#     Node 7, Type 0, BuildingBlock: GALJAG_clean_sbu_0, # of connection points: 4
#     Edge 8, Type (0, 0), BuildingBlock: MIFKUJ_clean_linker_0, # of connection points: 2
#     Edge 9, Type (0, 0), BuildingBlock: MIFKUJ_clean_linker_0, # of connection points: 2
#     Edge 10, Type (0, 0), BuildingBlock: MIFKUJ_clean_linker_0, # of connection points: 2
#     Edge 11, Type (0, 0), BuildingBlock: MIFKUJ_clean_linker_0, # of connection points: 2
#     Edge 12, Type (0, 0), BuildingBlock: MIFKUJ_clean_linker_0, # of connection points: 2
#     Edge 13, Type (0, 0), BuildingBlock: MIFKUJ_clean_linker_0, # of connection points: 2
#     Edge 14, Type (0, 0), BuildingBlock: MIFKUJ_clean_linker_0, # of connection points: 2
#     Edge 15, Type (0, 0), BuildingBlock: MIFKUJ_clean_linker_0, # of connection points: 2
#     Edge 16, Type (0, 0), BuildingBlock: MIFKUJ_clean_linker_0, # of connection points: 2
#     Edge 17, Type (0, 0), BuildingBlock: MIFKUJ_clean_linker_0, # of connection points: 2
#     Edge 18, Type (0, 0), BuildingBlock: MIFKUJ_clean_linker_0, # of connection points: 2
#     Edge 19, Type (0, 0), BuildingBlock: MIFKUJ_clean_linker_0, # of connection points: 2
#     Edge 20, Type (0, 0), BuildingBlock: MIFKUJ_clean_linker_0, # of connection points: 2
#     Edge 21, Type (0, 0), BuildingBlock: MIFKUJ_clean_linker_0, # of connection points: 2
#     Edge 22, Type (0, 0), BuildingBlock: MIFKUJ_clean_linker_0, # of connection points: 2
#     Edge 23, Type (0, 0), BuildingBlock: MIFKUJ_clean_linker_0, # of connection points: 2
# Relax obj value: 0.054
# Max RMSD: 0.086
# Mean RMSD: 0.086
data_MOF--net-mdf--node1-GALJAG_clean_sbu_0--edge1-MIFKUJ_clean_linker_0
_symmetry_space_group_name_H-M    P1
_symmetry_Int_Tables_number       1
_symmetry_cell_setting            triclinic
loop_
_symmetry_equiv_pos_as_xyz
'x, y, z'
_cell_length_a     50.871286
_cell_length_b     50.810084
_cell_length_c     13.963608
_cell_angle_alpha  90.218492
_cell_angle_beta   90.235842
_cell_angle_gamma 89.906294
loop_
_atom_site_label
_atom_site_type_symbol
_atom_site_fract_x
_atom_site_fract_y
_atom_site_fract_z
_atom_type_partial_charge
In0 In 0.24648 0.51971 0.36631 0.0
O1 O 0.25667 0.53933 0.22411 0.0
O2 O 0.27196 0.55595 0.35341 0.0
C3 C 0.20784 0.48596 0.31536 0.0
C4 C 0.28868 0.48879 0.40147 0.0
C5 C 0.21942 0.55075 0.48725 0.0
O6 O 0.21745 0.50214 0.25667 0.0
O7 O 0.21772 0.48695 0.39806 0.0
O8 O 0.23299 0.53153 0.51667 0.0
O9 O 0.21946 0.55413 0.3978 0.0
C10 C 0.27036 0.55719 0.26326 0.0
O11 O 0.27712 0.50137 0.46719 0.0
O12 O 0.27896 0.49186 0.31916 0.0
In13 In 0.47976 0.75441 0.65484 0.0
O14 O 0.45923 0.74666 0.7976 0.0
O15 O 0.45407 0.71927 0.68306 0.0
C16 C 0.51158 0.79555 0.68981 0.0
C17 C 0.51668 0.71845 0.61182 0.0
C18 C 0.44175 0.77683 0.54866 0.0
O19 O 0.50092 0.78272 0.75665 0.0
O20 O 0.50599 0.78767 0.60645 0.0
O21 O 0.45705 0.75956 0.51459 0.0
O22 O 0.44576 0.78262 0.63543 0.0
C23 C 0.4488 0.7255 0.76835 0.0
O24 O 0.50191 0.72835 0.54829 0.0
O25 O 0.51283 0.72689 0.69569 0.0
In26 In 0.25221 0.97558 0.85854 0.0
O27 O 0.25897 0.95673 0.00494 0.0
O28 O 0.28361 0.94522 0.88866 0.0
C29 C 0.20924 0.00496 0.89717 0.0
C30 C 0.29007 0.01147 0.82431 0.0
C31 C 0.23157 0.93985 0.73787 0.0
O32 O 0.22266 0.99419 0.96251 0.0
O33 O 0.21721 0.00043 0.81344 0.0
O34 O 0.24071 0.96146 0.70842 0.0
O35 O 0.23257 0.93653 0.82722 0.0
C36 C 0.27765 0.94237 0.97568 0.0
O37 O 0.28359 0.99433 0.76296 0.0
O38 O 0.27756 0.01034 0.90174 0.0
In39 In 0.01615 0.74901 0.13757 0.0
O40 O 0.99183 0.72403 0.23926 0.0
O41 O 0.98639 0.71887 0.08858 0.0
C42 C 0.04735 0.7752 0.26192 0.0
C43 C 0.05049 0.72098 0.03189 0.0
C44 C 0.98226 0.7865 0.08165 0.0
O45 O 0.03918 0.75229 0.27938 0.0
O46 O 0.03964 0.78461 0.18353 0.0
O47 O 0.00222 0.78052 0.03228 0.0
O48 O 0.97948 0.77353 0.15784 0.0
C49 C 0.98001 0.71201 0.17219 0.0
O50 O 0.03972 0.74159 0.9998 0.0
O51 O 0.04425 0.71508 0.11621 0.0
In52 In 0.75149 0.02343 0.87695 0.0
O53 O 0.76018 0.04076 0.72956 0.0
O54 O 0.78065 0.05608 0.85103 0.0
C55 C 0.71095 0.99081 0.84199 0.0
C56 C 0.79114 0.98944 0.90991 0.0
C57 C 0.72606 0.05704 0.99322 0.0
O58 O 0.72017 0.00564 0.77781 0.0
O59 O 0.72213 0.99265 0.9225 0.0
O60 O 0.74042 0.03877 0.02573 0.0
O61 O 0.7248 0.05829 0.90311 0.0
C62 C 0.7769 0.05697 0.76172 0.0
O63 O 0.78493 0.00705 0.96995 0.0
O64 O 0.77741 0.98916 0.83459 0.0
In65 In 0.98232 0.24545 0.09649 0.0
O66 O 0.9638 0.23552 0.24081 0.0
O67 O 0.95233 0.2134 0.11747 0.0
C68 C 0.01567 0.28541 0.13066 0.0
C69 C 0.0172 0.20741 0.05395 0.0
C70 C 0.94517 0.27172 0.99871 0.0
O71 O 0.00342 0.27402 0.1974 0.0
O72 O 0.01104 0.27656 0.04771 0.0
O73 O 0.95979 0.25481 0.95843 0.0
O74 O 0.94959 0.27523 0.0868 0.0
C75 C 0.94967 0.2173 0.2062 0.0
O76 O 0.00199 0.21697 0.99102 0.0
O77 O 0.01477 0.21721 0.13658 0.0
In78 In 0.74583 0.48112 0.38894 0.0
O79 O 0.75291 0.45774 0.52699 0.0
O80 O 0.7793 0.45268 0.41018 0.0
C81 C 0.70875 0.517 0.43081 0.0
C82 C 0.7839 0.51558 0.34705 0.0
C83 C 0.71909 0.44666 0.27992 0.0
O84 O 0.71982 0.50342 0.49529 0.0
O85 O 0.71629 0.51218 0.34657 0.0
O86 O 0.73903 0.45871 0.24887 0.0
O87 O 0.71276 0.45221 0.36486 0.0
C88 C 0.77319 0.44641 0.49442 0.0
O89 O 0.77203 0.50259 0.2826 0.0
O90 O 0.77647 0.51109 0.43156 0.0
In91 In 0.51659 0.25151 0.63004 0.0
O92 O 0.49417 0.22516 0.73358 0.0
O93 O 0.48511 0.22253 0.58473 0.0
C94 C 0.55323 0.27387 0.74307 0.0
C95 C 0.54903 0.22125 0.52612 0.0
C96 C 0.48595 0.29301 0.58307 0.0
O97 O 0.5335 0.26216 0.77718 0.0
O98 O 0.55424 0.27442 0.65295 0.0
O99 O 0.49956 0.28093 0.52137 0.0
O100 O 0.48802 0.28419 0.66693 0.0
C101 C 0.48066 0.21434 0.66828 0.0
O102 O 0.53795 0.24142 0.49121 0.0
O103 O 0.54356 0.21653 0.6125 0.0
H104 H 0.42679 0.73793 0.94175 0.0
H105 H 0.39486 0.71168 0.03159 0.0
H106 H 0.39968 0.65036 0.81758 0.0
H107 H 0.43089 0.67657 0.72705 0.0
H108 H 0.3502 0.66244 0.85471 0.0
H109 H 0.42839 0.64425 0.04305 0.0
H110 H 0.46688 0.65666 0.14121 0.0
H111 H 0.41635 0.69512 0.34391 0.0
H112 H 0.37756 0.68314 0.24642 0.0
H113 H 0.28633 0.55502 0.077 0.0
H114 H 0.31435 0.58661 0.99435 0.0
H115 H 0.31266 0.63749 0.24287 0.0
H116 H 0.2861 0.60512 0.32734 0.0
H117 H 0.35921 0.63432 0.19263 0.0
H118 H 0.28115 0.65384 0.00687 0.0
H119 H 0.24291 0.64762 0.89992 0.0
H120 H 0.29216 0.60976 0.69157 0.0
H121 H 0.33071 0.61602 0.79685 0.0
C122 C 0.42116 0.71874 0.91459 0.0
C123 C 0.43117 0.70932 0.82729 0.0
C124 C 0.40302 0.70375 0.96603 0.0
C125 C 0.39497 0.67903 0.93133 0.0
C126 C 0.40552 0.66942 0.8454 0.0
C127 C 0.42339 0.68442 0.79383 0.0
C128 C 0.37455 0.66351 0.98094 0.0
C129 C 0.35224 0.65602 0.92842 0.0
C130 C 0.37682 0.65605 0.07797 0.0
C131 C 0.40011 0.66301 0.13699 0.0
C132 C 0.42551 0.65549 0.10824 0.0
C133 C 0.44737 0.66242 0.16383 0.0
C134 C 0.44407 0.67672 0.24863 0.0
C135 C 0.41888 0.68406 0.27819 0.0
C136 C 0.39695 0.67717 0.22287 0.0
C137 C 0.29171 0.57312 0.11327 0.0
C138 C 0.28431 0.57758 0.20866 0.0
C139 C 0.30754 0.59134 0.06572 0.0
C140 C 0.31553 0.6147 0.11179 0.0
C141 C 0.30698 0.61961 0.20575 0.0
C142 C 0.29176 0.60113 0.25398 0.0
C143 C 0.33468 0.6328 0.06596 0.0
C144 C 0.35687 0.64083 0.11919 0.0
C145 C 0.33223 0.64096 0.9695 0.0
C146 C 0.30873 0.63523 0.91002 0.0
C147 C 0.28374 0.6439 0.93879 0.0
C148 C 0.26206 0.64054 0.8781 0.0
C149 C 0.26513 0.62832 0.78891 0.0
C150 C 0.28983 0.61925 0.76055 0.0
C151 C 0.31159 0.62279 0.8205 0.0
H152 H 0.24845 0.62595 0.74139 0.0
H153 H 0.46102 0.68208 0.29152 0.0
H154 H 0.42713 0.76648 0.36348 0.0
H155 H 0.395 0.79072 0.26666 0.0
H156 H 0.37856 0.84159 0.50734 0.0
H157 H 0.41009 0.81714 0.6048 0.0
H158 H 0.33415 0.82999 0.41154 0.0
H159 H 0.42175 0.85998 0.33214 0.0
H160 H 0.46754 0.85411 0.27857 0.0
H161 H 0.44019 0.8218 0.01162 0.0
H162 H 0.39423 0.82721 0.06415 0.0
H163 H 0.28142 0.942 0.17105 0.0
H164 H 0.30582 0.91053 0.27005 0.0
H165 H 0.32701 0.86673 0.01605 0.0
H166 H 0.30396 0.89888 0.91721 0.0
H167 H 0.36772 0.8724 0.11715 0.0
H168 H 0.27955 0.84526 0.19108 0.0
H169 H 0.23377 0.85087 0.24527 0.0
H170 H 0.26121 0.87725 0.52044 0.0
H171 H 0.30716 0.87208 0.46763 0.0
C172 C 0.41649 0.7827 0.39582 0.0
C173 C 0.4213 0.79013 0.49127 0.0
C174 C 0.39818 0.79653 0.34052 0.0
C175 C 0.38468 0.8182 0.37949 0.0
C176 C 0.38876 0.82496 0.47585 0.0
C177 C 0.40689 0.81105 0.53126 0.0
C178 C 0.36751 0.83489 0.31886 0.0
C179 C 0.34145 0.83941 0.34734 0.0
C180 C 0.37696 0.84677 0.23436 0.0
C181 C 0.40458 0.84376 0.20244 0.0
C182 C 0.42552 0.85148 0.26226 0.0
C183 C 0.45149 0.84826 0.23206 0.0
C184 C 0.45677 0.83753 0.14184 0.0
C185 C 0.43608 0.83008 0.08152 0.0
C186 C 0.41006 0.83324 0.11144 0.0
C187 C 0.29123 0.92555 0.13679 0.0
C188 C 0.29103 0.92291 0.03671 0.0
C189 C 0.30497 0.90745 0.19334 0.0
C190 C 0.31803 0.886 0.15073 0.0
C191 C 0.3172 0.88311 0.05071 0.0
C192 C 0.30404 0.9015 0.99425 0.0
C193 C 0.33407 0.8675 0.20893 0.0
C194 C 0.36011 0.86276 0.18044 0.0
C195 C 0.32448 0.8554 0.29312 0.0
C196 C 0.29683 0.85848 0.32504 0.0
C197 C 0.27583 0.85242 0.26292 0.0
C198 C 0.24985 0.85549 0.29345 0.0
C199 C 0.2446 0.86445 0.38617 0.0
C200 C 0.26531 0.87032 0.44864 0.0
C201 C 0.29133 0.86729 0.41848 0.0
H202 H 0.2245 0.8668 0.40965 0.0
H203 H 0.4769 0.83504 0.1186 0.0
H204 H 0.05266 0.82794 0.2759 0.0
H205 H 0.0872 0.85224 0.35931 0.0
H206 H 0.11944 0.77931 0.46585 0.0
H207 H 0.08387 0.75491 0.38567 0.0
H208 H 0.12376 0.81769 0.59716 0.0
H209 H 0.14468 0.80908 0.2632 0.0
H210 H 0.13361 0.812 0.09137 0.0
H211 H 0.1228 0.8955 0.11858 0.0
H212 H 0.1334 0.89305 0.29084 0.0
H213 H 0.23636 0.88679 0.74536 0.0
H214 H 0.2107 0.85429 0.65514 0.0
H215 H 0.17113 0.9172 0.50495 0.0
H216 H 0.19842 0.94948 0.58945 0.0
H217 H 0.17499 0.87816 0.39123 0.0
H218 H 0.1478 0.88596 0.72591 0.0
H219 H 0.15722 0.88381 0.8993 0.0
H220 H 0.17885 0.80243 0.87125 0.0
H221 H 0.16992 0.80421 0.6975 0.0
C222 C 0.06688 0.81714 0.31841 0.0
C223 C 0.06589 0.7896 0.32369 0.0
C224 C 0.08669 0.831 0.36547 0.0
C225 C 0.10642 0.81751 0.41598 0.0
C226 C 0.10459 0.79007 0.42621 0.0
C227 C 0.08431 0.77617 0.38066 0.0
C228 C 0.1294 0.83216 0.45401 0.0
C229 C 0.13527 0.83058 0.55195 0.0
C230 C 0.14432 0.84909 0.39497 0.0
C231 C 0.13965 0.85083 0.29012 0.0
C232 C 0.13995 0.82806 0.23253 0.0
C233 C 0.13367 0.82962 0.13515 0.0
C234 C 0.12728 0.85389 0.09438 0.0
C235 C 0.12762 0.87671 0.15044 0.0
C236 C 0.13381 0.87525 0.24791 0.0
C237 C 0.22255 0.89351 0.69142 0.0
C238 C 0.21901 0.92048 0.67459 0.0
C239 C 0.20775 0.875 0.64056 0.0
C240 C 0.18822 0.8833 0.57591 0.0
C241 C 0.18588 0.91027 0.55505 0.0
C242 C 0.20141 0.92872 0.60333 0.0
C243 C 0.1689 0.86437 0.53519 0.0
C244 C 0.16376 0.86503 0.43643 0.0
C245 C 0.15458 0.84668 0.59359 0.0
C246 C 0.15849 0.8453 0.69871 0.0
C247 C 0.15457 0.86762 0.75682 0.0
C248 C 0.1599 0.86649 0.85503 0.0
C249 C 0.16884 0.84306 0.89603 0.0
C250 C 0.17207 0.8206 0.83924 0.0
C251 C 0.16687 0.82165 0.74095 0.0
H252 H 0.17324 0.84228 0.97184 0.0
H253 H 0.1221 0.85502 0.01928 0.0
H254 H 0.08178 0.73511 0.88158 0.0
H255 H 0.11222 0.70667 0.79281 0.0
H256 H 0.08809 0.6403 0.96359 0.0
H257 H 0.05912 0.66894 0.05569 0.0
H258 H 0.13712 0.63781 0.94605 0.0
H259 H 0.06684 0.65253 0.71865 0.0
H260 H 0.0368 0.67925 0.61939 0.0
H261 H 0.10278 0.71397 0.47683 0.0
H262 H 0.1332 0.68764 0.57587 0.0
H263 H 0.19188 0.5372 0.64665 0.0
H264 H 0.16369 0.56595 0.74336 0.0
H265 H 0.18689 0.63247 0.57149 0.0
H266 H 0.21327 0.60334 0.47076 0.0
H267 H 0.13828 0.6348 0.5914 0.0
H268 H 0.2083 0.61688 0.81744 0.0
H269 H 0.23733 0.58929 0.91841 0.0
H270 H 0.17005 0.55924 0.06631 0.0
H271 H 0.14075 0.58616 0.96498 0.0
C272 C 0.08306 0.71443 0.89971 0.0
C273 C 0.0682 0.70416 0.97523 0.0
C274 C 0.10029 0.69814 0.84872 0.0
C275 C 0.1022 0.67116 0.87037 0.0
C276 C 0.08711 0.661 0.94556 0.0
C277 C 0.07049 0.67737 0.99799 0.0
C278 C 0.12014 0.65341 0.81645 0.0
C279 C 0.13716 0.63691 0.8684 0.0
C280 C 0.12061 0.65255 0.71518 0.0
C281 C 0.10229 0.66829 0.65529 0.0
C282 C 0.07493 0.66597 0.66651 0.0
C283 C 0.05784 0.68103 0.61021 0.0
C284 C 0.06788 0.69835 0.542 0.0
C285 C 0.09503 0.70058 0.52974 0.0
C286 C 0.11219 0.68557 0.58584 0.0
C287 C 0.19102 0.55802 0.63046 0.0
C288 C 0.20457 0.56817 0.55155 0.0
C289 C 0.17507 0.57449 0.68604 0.0
C290 C 0.17334 0.60157 0.66583 0.0
C291 C 0.1877 0.6117 0.5885 0.0
C292 C 0.20285 0.59511 0.53114 0.0
C293 C 0.15552 0.61925 0.72086 0.0
C294 C 0.13838 0.63569 0.66904 0.0
C295 C 0.15477 0.61979 0.82236 0.0
C296 C 0.1724 0.60339 0.88286 0.0
C297 C 0.19979 0.60422 0.87097 0.0
C298 C 0.21625 0.58874 0.9283 0.0
C299 C 0.20554 0.57256 0.99869 0.0
C300 C 0.17834 0.57178 0.01173 0.0
C301 C 0.16181 0.58712 0.95427 0.0
H302 H 0.21832 0.56066 0.04319 0.0
H303 H 0.05462 0.71001 0.49852 0.0
H304 H 0.80637 0.09871 0.81906 0.0
H305 H 0.83297 0.12765 0.71957 0.0
H306 H 0.80758 0.08558 0.46679 0.0
H307 H 0.78066 0.05652 0.5663 0.0
H308 H 0.86162 0.09145 0.47852 0.0
H309 H 0.78562 0.14642 0.49701 0.0
H310 H 0.74913 0.16975 0.57671 0.0
H311 H 0.80456 0.21538 0.73992 0.0
H312 H 0.84132 0.19192 0.66219 0.0
H313 H 0.9176 0.17815 0.14335 0.0
H314 H 0.88669 0.15222 0.23665 0.0
H315 H 0.90878 0.19499 0.49201 0.0
H316 H 0.93969 0.22142 0.39832 0.0
H317 H 0.85551 0.18895 0.47651 0.0
H318 H 0.93185 0.13377 0.45534 0.0
H319 H 0.9678 0.11019 0.37367 0.0
H320 H 0.91152 0.06484 0.21355 0.0
H321 H 0.87521 0.08842 0.2933 0.0
C322 C 0.80627 0.09575 0.74219 0.0
C323 C 0.79155 0.07532 0.70031 0.0
C324 C 0.82135 0.11239 0.68546 0.0
C325 C 0.82211 0.10882 0.5859 0.0
C326 C 0.80721 0.08862 0.54361 0.0
C327 C 0.79183 0.07211 0.60036 0.0
C328 C 0.83977 0.12524 0.52723 0.0
C329 C 0.86003 0.11274 0.47662 0.0
C330 C 0.83809 0.15303 0.52735 0.0
C331 C 0.81614 0.16716 0.57474 0.0
C332 C 0.78996 0.16119 0.55079 0.0
C333 C 0.76925 0.17449 0.59538 0.0
C334 C 0.77452 0.19398 0.66364 0.0
C335 C 0.80051 0.20024 0.68721 0.0
C336 C 0.82128 0.18695 0.64285 0.0
C337 C 0.91594 0.18205 0.21941 0.0
C338 C 0.93116 0.20172 0.26377 0.0
C339 C 0.89831 0.16716 0.27263 0.0
C340 C 0.8957 0.17147 0.37137 0.0
C341 C 0.91059 0.19134 0.41583 0.0
C342 C 0.92827 0.20632 0.36244 0.0
C343 C 0.87737 0.15515 0.42774 0.0
C344 C 0.85706 0.16766 0.47817 0.0
C345 C 0.87901 0.12733 0.42749 0.0
C346 C 0.90081 0.11305 0.37964 0.0
C347 C 0.92714 0.11892 0.40215 0.0
C348 C 0.94758 0.10553 0.3563 0.0
C349 C 0.94195 0.08608 0.28828 0.0
C350 C 0.91585 0.07993 0.26616 0.0
C351 C 0.89533 0.09329 0.31172 0.0
H352 H 0.9578 0.07573 0.25288 0.0
H353 H 0.75848 0.20429 0.69806 0.0
H354 H 0.93043 0.26778 0.81003 0.0
H355 H 0.89809 0.29524 0.72543 0.0
H356 H 0.88157 0.33694 0.98798 0.0
H357 H 0.91363 0.30979 0.07263 0.0
H358 H 0.84292 0.3065 0.75727 0.0
H359 H 0.88027 0.40224 0.9296 0.0
H360 H 0.92065 0.41994 0.00405 0.0
H361 H 0.96758 0.36793 0.83189 0.0
H362 H 0.92751 0.35022 0.75547 0.0
H363 H 0.75931 0.41933 0.6561 0.0
H364 H 0.78627 0.38701 0.74347 0.0
H365 H 0.84964 0.39896 0.54416 0.0
H366 H 0.82288 0.43066 0.45614 0.0
H367 H 0.86419 0.40173 0.74217 0.0
H368 H 0.81681 0.34708 0.51604 0.0
H369 H 0.77669 0.32958 0.43948 0.0
H370 H 0.75092 0.2992 0.70976 0.0
H371 H 0.79072 0.31692 0.78828 0.0
C372 C 0.91972 0.28266 0.84968 0.0
C373 C 0.92473 0.28685 0.9476 0.0
C374 C 0.90117 0.29817 0.80153 0.0
C375 C 0.88764 0.31816 0.85056 0.0
C376 C 0.89196 0.3217 0.94892 0.0
C377 C 0.91034 0.30621 0.99701 0.0
C378 C 0.87049 0.33671 0.79807 0.0
C379 C 0.84749 0.32732 0.75399 0.0
C380 C 0.87659 0.36383 0.79382 0.0
C381 C 0.90088 0.37475 0.83758 0.0
C382 C 0.89922 0.39469 0.90735 0.0
C383 C 0.92205 0.4047 0.94993 0.0
C384 C 0.94666 0.395 0.92294 0.0
C385 C 0.9485 0.37536 0.85298 0.0
C386 C 0.92574 0.36531 0.81009 0.0
C387 C 0.779 0.41502 0.63128 0.0
C388 C 0.78905 0.42744 0.54951 0.0
C389 C 0.79428 0.39655 0.68082 0.0
C390 C 0.81985 0.39065 0.64979 0.0
C391 C 0.82994 0.40329 0.56898 0.0
C392 C 0.81461 0.42134 0.51878 0.0
C393 C 0.83652 0.37161 0.70174 0.0
C394 C 0.85947 0.38094 0.74595 0.0
C395 C 0.83039 0.34449 0.70553 0.0
C396 C 0.80659 0.33361 0.65824 0.0
C397 C 0.80248 0.33689 0.55933 0.0
C398 C 0.77982 0.32688 0.51554 0.0
C399 C 0.76122 0.31336 0.56977 0.0
C400 C 0.76531 0.30973 0.66787 0.0
C401 C 0.78792 0.31974 0.71204 0.0
H402 H 0.74368 0.30565 0.53574 0.0
H403 H 0.96431 0.40275 0.9561 0.0
H404 H 0.67068 0.42701 0.31743 0.0
H405 H 0.64623 0.39428 0.22546 0.0
H406 H 0.71003 0.38884 0.02334 0.0
H407 H 0.73421 0.42257 0.11357 0.0
H408 H 0.6653 0.38971 0.93199 0.0
H409 H 0.69864 0.33998 0.19619 0.0
H410 H 0.70749 0.33087 0.36671 0.0
H411 H 0.62459 0.32852 0.4225 0.0
H412 H 0.61523 0.33786 0.25244 0.0
H413 H 0.60408 0.28327 0.69677 0.0
H414 H 0.63666 0.30774 0.79021 0.0
H415 H 0.57967 0.31934 0.01491 0.0
H416 H 0.54756 0.29341 0.92382 0.0
H417 H 0.62569 0.31226 0.09138 0.0
H418 H 0.59315 0.36677 0.82959 0.0
H419 H 0.58466 0.37626 0.65902 0.0
H420 H 0.66714 0.36956 0.59919 0.0
H421 H 0.67607 0.35977 0.76929 0.0
C422 C 0.6795 0.41885 0.25337 0.0
C423 C 0.70437 0.42721 0.2227 0.0
C424 C 0.6656 0.39998 0.20125 0.0
C425 C 0.67656 0.38862 0.11874 0.0
C426 C 0.70128 0.39722 0.08718 0.0
C427 C 0.71506 0.41645 0.13864 0.0
C428 C 0.66176 0.36834 0.06429 0.0
C429 C 0.65705 0.37251 0.96647 0.0
C430 C 0.65069 0.34608 0.1096 0.0
C431 C 0.65624 0.33976 0.21154 0.0
C432 C 0.68229 0.3376 0.24484 0.0
C433 C 0.6874 0.33238 0.34142 0.0
C434 C 0.66661 0.32915 0.40539 0.0
C435 C 0.64067 0.331 0.37282 0.0
C436 C 0.63545 0.3362 0.27629 0.0
C437 C 0.59866 0.29081 0.76664 0.0
C438 C 0.5733 0.28678 0.80293 0.0
C439 C 0.61722 0.3049 0.81974 0.0
C440 C 0.6104 0.31606 0.90841 0.0
C441 C 0.58536 0.31106 0.94642 0.0
C442 C 0.567 0.29633 0.89438 0.0
C443 C 0.62877 0.33395 0.95959 0.0
C444 C 0.63419 0.32931 0.05675 0.0
C445 C 0.64056 0.35577 0.91366 0.0
C446 C 0.63523 0.36232 0.81193 0.0
C447 C 0.60945 0.36725 0.77997 0.0
C448 C 0.60457 0.37267 0.68339 0.0
C449 C 0.62534 0.37343 0.61826 0.0
C450 C 0.65106 0.36892 0.64969 0.0
C451 C 0.65605 0.36347 0.74617 0.0
H452 H 0.62152 0.37755 0.54349 0.0
H453 H 0.6706 0.32518 0.48016 0.0
H454 H 0.70611 0.10465 0.94439 0.0
H455 H 0.67829 0.13346 0.04083 0.0
H456 H 0.68251 0.0782 0.27464 0.0
H457 H 0.71146 0.04988 0.17946 0.0
H458 H 0.63167 0.12472 0.10319 0.0
H459 H 0.66996 0.10889 0.48694 0.0
H460 H 0.71118 0.09801 0.57176 0.0
H461 H 0.75593 0.13255 0.3447 0.0
H462 H 0.71497 0.14395 0.25901 0.0
H463 H 0.57058 0.17476 0.582 0.0
H464 H 0.60138 0.14706 0.49353 0.0
H465 H 0.60054 0.20256 0.26028 0.0
H466 H 0.56912 0.23009 0.34772 0.0
H467 H 0.64957 0.15549 0.43445 0.0
H468 H 0.60931 0.17031 0.04958 0.0
H469 H 0.56711 0.17902 0.96774 0.0
H470 H 0.52536 0.14399 0.20141 0.0
H471 H 0.56729 0.13477 0.28401 0.0
C472 C 0.7014 0.09885 0.0169 0.0
C473 C 0.71092 0.0751 0.05468 0.0
C474 C 0.68545 0.11528 0.07186 0.0
C475 C 0.67838 0.10814 0.16529 0.0
C476 C 0.68811 0.08447 0.20357 0.0
C477 C 0.70455 0.06823 0.14907 0.0
C478 C 0.65964 0.12484 0.2197 0.0
C479 C 0.63583 0.1318 0.17507 0.0
C480 C 0.66456 0.13329 0.31485 0.0
C481 C 0.68938 0.12701 0.36612 0.0
C482 C 0.68859 0.11426 0.45528 0.0
C483 C 0.7119 0.10799 0.50346 0.0
C484 C 0.73613 0.11447 0.46339 0.0
C485 C 0.73713 0.12742 0.37537 0.0
C486 C 0.71387 0.13378 0.3269 0.0
C487 C 0.57686 0.18101 0.51164 0.0
C488 C 0.56737 0.20452 0.47146 0.0
C489 C 0.59453 0.16521 0.46136 0.0
C490 C 0.60311 0.17261 0.37002 0.0
C491 C 0.59384 0.19623 0.33002 0.0
C492 C 0.57596 0.21198 0.38007 0.0
C493 C 0.62189 0.15564 0.31723 0.0
C494 C 0.64557 0.14853 0.36229 0.0
C495 C 0.6168 0.14684 0.22277 0.0
C496 C 0.59145 0.15212 0.17341 0.0
C497 C 0.59112 0.1644 0.08335 0.0
C498 C 0.56725 0.16943 0.03684 0.0
C499 C 0.54357 0.16215 0.0795 0.0
C500 C 0.54371 0.14973 0.16862 0.0
C501 C 0.56752 0.14463 0.21538 0.0
H502 H 0.52511 0.16606 0.04339 0.0
H503 H 0.7541 0.1095 0.50075 0.0
H504 H 0.30667 0.46986 0.57269 0.0
H505 H 0.34296 0.43898 0.59869 0.0
H506 H 0.3588 0.43828 0.29518 0.0
H507 H 0.32193 0.46827 0.26866 0.0
H508 H 0.35966 0.39069 0.35695 0.0
H509 H 0.3993 0.47103 0.46459 0.0
H510 H 0.40279 0.51208 0.55859 0.0
H511 H 0.40139 0.46776 0.81974 0.0
H512 H 0.39755 0.42646 0.72734 0.0
H513 H 0.47831 0.31693 0.40932 0.0
H514 H 0.44785 0.35305 0.37274 0.0
H515 H 0.42324 0.35497 0.66806 0.0
H516 H 0.45386 0.31945 0.70524 0.0
H517 H 0.42936 0.40366 0.60192 0.0
H518 H 0.38658 0.32385 0.49236 0.0
H519 H 0.38319 0.28293 0.39751 0.0
H520 H 0.39109 0.32708 0.13761 0.0
H521 H 0.39485 0.36823 0.23107 0.0
C522 C 0.31804 0.46323 0.51173 0.0
C523 C 0.31149 0.47142 0.41871 0.0
C524 C 0.33888 0.4457 0.52664 0.0
C525 C 0.3539 0.43652 0.44899 0.0
C526 C 0.34753 0.44503 0.35621 0.0
C527 C 0.32648 0.46222 0.34117 0.0
C528 C 0.37546 0.41713 0.46369 0.0
C529 C 0.37516 0.39379 0.40939 0.0
C530 C 0.39547 0.42086 0.53324 0.0
C531 C 0.39793 0.44567 0.58899 0.0
C532 C 0.39956 0.47005 0.54207 0.0
C533 C 0.40163 0.49336 0.59507 0.0
C534 C 0.40225 0.49253 0.69507 0.0
C535 C 0.40088 0.46838 0.74228 0.0
C536 C 0.3988 0.44501 0.68962 0.0
C537 C 0.46648 0.32518 0.46636 0.0
C538 C 0.46836 0.31529 0.55998 0.0
C539 C 0.44904 0.34574 0.44539 0.0
C540 C 0.43305 0.35652 0.51752 0.0
C541 C 0.43538 0.347 0.61131 0.0
C542 C 0.45283 0.3266 0.63233 0.0
C543 C 0.41335 0.37726 0.49577 0.0
C544 C 0.41399 0.40079 0.54883 0.0
C545 C 0.3937 0.37378 0.42486 0.0
C546 C 0.39127 0.34907 0.36872 0.0
C547 C 0.38777 0.3248 0.41502 0.0
C548 C 0.38576 0.30157 0.36151 0.0
C549 C 0.387 0.3024 0.26161 0.0
C550 C 0.39018 0.32646 0.215 0.0
C551 C 0.39223 0.34974 0.26818 0.0
H552 H 0.38544 0.28439 0.22031 0.0
H553 H 0.40384 0.5106 0.73597 0.0
H554 H 0.68416 0.98155 0.67461 0.0
H555 H 0.64878 0.9496 0.64778 0.0
H556 H 0.65315 0.92652 0.94449 0.0
H557 H 0.68859 0.95801 0.97138 0.0
H558 H 0.65153 0.88437 0.82956 0.0
H559 H 0.60329 0.96529 0.86298 0.0
H560 H 0.59162 0.01128 0.82613 0.0
H561 H 0.5727 0.98926 0.5368 0.0
H562 H 0.5846 0.94317 0.57159 0.0
H563 H 0.53311 0.81149 0.86005 0.0
H564 H 0.56583 0.84625 0.88496 0.0
H565 H 0.56416 0.86376 0.58296 0.0
H566 H 0.53157 0.82909 0.55748 0.0
H567 H 0.56414 0.90875 0.69768 0.0
H568 H 0.61251 0.82802 0.66409 0.0
H569 H 0.62372 0.7819 0.70102 0.0
H570 H 0.64226 0.80369 0.99089 0.0
H571 H 0.63079 0.84989 0.95604 0.0
C572 C 0.67747 0.96971 0.73406 0.0
C573 C 0.68911 0.97226 0.82503 0.0
C574 C 0.65723 0.95155 0.71878 0.0
C575 C 0.64823 0.93581 0.79438 0.0
C576 C 0.65982 0.93843 0.88517 0.0
C577 C 0.68002 0.9565 0.90043 0.0
C578 C 0.62712 0.91616 0.77896 0.0
C579 C 0.63232 0.88978 0.8019 0.0
C580 C 0.60226 0.92313 0.74075 0.0
C581 C 0.59511 0.95083 0.71964 0.0
C582 C 0.59686 0.97029 0.79127 0.0
C583 C 0.59016 0.99637 0.7708 0.0
C584 C 0.58149 0.00321 0.67911 0.0
C585 C 0.57945 0.98395 0.60775 0.0
C586 C 0.58615 0.95784 0.62783 0.0
C587 C 0.53958 0.8229 0.79919 0.0
C588 C 0.52994 0.81752 0.70679 0.0
C589 C 0.55829 0.84266 0.81343 0.0
C590 C 0.56753 0.85736 0.73557 0.0
C591 C 0.55727 0.8526 0.64385 0.0
C592 C 0.53875 0.83274 0.62945 0.0
C593 C 0.58855 0.87712 0.74912 0.0
C594 C 0.58336 0.90343 0.72551 0.0
C595 C 0.61344 0.87012 0.78669 0.0
C596 C 0.62052 0.84237 0.80771 0.0
C597 C 0.61877 0.82294 0.73592 0.0
C598 C 0.62521 0.79679 0.75643 0.0
C599 C 0.63362 0.78986 0.84831 0.0
C600 C 0.6357 0.80908 0.91979 0.0
C601 C 0.62925 0.83526 0.89968 0.0
H602 H 0.63859 0.76961 0.86408 0.0
H603 H 0.5763 0.0234 0.66341 0.0
H604 H 0.05167 0.18545 0.17942 0.0
H605 H 0.0831 0.15015 0.14958 0.0
H606 H 0.05762 0.14584 0.85488 0.0
H607 H 0.0257 0.18123 0.88465 0.0
H608 H 0.06285 0.097 0.93543 0.0
H609 H 0.11469 0.17483 0.90839 0.0
H610 H 0.13198 0.21809 0.9582 0.0
H611 H 0.16629 0.18335 0.20922 0.0
H612 H 0.14884 0.13992 0.1617 0.0
H613 H 0.17387 0.0241 0.76837 0.0
H614 H 0.1396 0.05699 0.79613 0.0
H615 H 0.16056 0.06 0.09559 0.0
H616 H 0.1949 0.02687 0.06837 0.0
H617 H 0.15754 0.10953 0.00921 0.0
H618 H 0.10515 0.03145 0.03405 0.0
H619 H 0.08766 0.98849 0.98186 0.0
H620 H 0.05478 0.02416 0.73003 0.0
H621 H 0.07241 0.0673 0.78005 0.0
C622 C 0.05275 0.17706 0.10811 0.0
C623 C 0.03631 0.18619 0.03417 0.0
C624 C 0.07079 0.15692 0.09115 0.0
C625 C 0.07291 0.14559 0.99978 0.0
C626 C 0.05632 0.1544 0.92587 0.0
C627 C 0.0382 0.17465 0.94283 0.0
C628 C 0.09247 0.12448 0.98232 0.0
C629 C 0.08362 0.09984 0.95008 0.0
C630 C 0.11947 0.12809 0.00345 0.0
C631 C 0.13023 0.15414 0.03189 0.0
C632 C 0.12575 0.17644 0.9746 0.0
C633 C 0.1356 0.20099 0.00236 0.0
C634 C 0.15017 0.20348 0.08694 0.0
C635 C 0.15497 0.1814 0.14377 0.0
C636 C 0.14512 0.1568 0.11641 0.0
C637 C 0.17099 0.03153 0.84037 0.0
C638 C 0.18705 0.02295 0.91627 0.0
C639 C 0.15137 0.05027 0.85611 0.0
C640 C 0.14753 0.06086 0.9479 0.0
C641 C 0.16325 0.05203 0.02421 0.0
C642 C 0.18274 0.03305 0.00869 0.0
C643 C 0.1279 0.08201 0.96298 0.0
C644 C 0.13678 0.1067 0.99453 0.0
C645 C 0.10098 0.07849 0.9406 0.0
C646 C 0.09034 0.05257 0.91033 0.0
C647 C 0.0944 0.0301 0.96709 0.0
C648 C 0.08441 0.00572 0.938 0.0
C649 C 0.07018 0.00358 0.85255 0.0
C650 C 0.06584 0.02584 0.79614 0.0
C651 C 0.07581 0.05027 0.82487 0.0
H652 H 0.06245 0.98469 0.83016 0.0
H653 H 0.15776 0.22251 0.10833 0.0
H654 H 0.96348 0.69271 0.34416 0.0
H655 H 0.93066 0.65832 0.37091 0.0
H656 H 0.91928 0.65047 0.06575 0.0
H657 H 0.95179 0.68494 0.03855 0.0
H658 H 0.873 0.65189 0.15929 0.0
H659 H 0.95472 0.60535 0.18594 0.0
H660 H -0.00057 0.59688 0.24738 0.0
H661 H 0.96909 0.58874 0.53222 0.0
H662 H 0.92421 0.59754 0.47265 0.0
H663 H 0.80137 0.53161 0.1717 0.0
H664 H 0.83555 0.56428 0.139 0.0
H665 H 0.8476 0.57537 0.44251 0.0
H666 H 0.81368 0.54274 0.47565 0.0
H667 H 0.89399 0.57156 0.34584 0.0
H668 H 0.81249 0.61926 0.31928 0.0
H669 H 0.76781 0.62785 0.25768 0.0
H670 H 0.79795 0.63375 0.97179 0.0
H671 H 0.8428 0.62481 0.03158 0.0
C672 C 0.95396 0.68364 0.28288 0.0
C673 C 0.9602 0.69143 0.18932 0.0
C674 C 0.93532 0.66395 0.29819 0.0
C675 C 0.92275 0.6517 0.22019 0.0
C676 C 0.92878 0.65967 0.12684 0.0
C677 C 0.9474 0.67931 0.11148 0.0
C678 C 0.90315 0.63069 0.23578 0.0
C679 C 0.87768 0.63415 0.19891 0.0
C680 C 0.90918 0.6078 0.28896 0.0
C681 C 0.93613 0.60236 0.32495 0.0
C682 C 0.9576 0.60196 0.2618 0.0
C683 C 0.98298 0.59706 0.29626 0.0
C684 C 0.98711 0.59234 0.39368 0.0
C685 C 0.96587 0.59243 0.45679 0.0
C686 C 0.94045 0.59735 0.42271 0.0
C687 C 0.81137 0.54098 0.23132 0.0
C688 C 0.80481 0.53475 0.32616 0.0
C689 C 0.83081 0.55966 0.2126 0.0
C690 C 0.84392 0.57236 0.28844 0.0
C691 C 0.83771 0.56577 0.38306 0.0
C692 C 0.81826 0.54721 0.4018 0.0
C693 C 0.86385 0.59283 0.26962 0.0
C694 C 0.88937 0.58927 0.30591 0.0
C695 C 0.85788 0.61561 0.21582 0.0
C696 C 0.83095 0.62108 0.17977 0.0
C697 C 0.80956 0.62217 0.24317 0.0
C698 C 0.78421 0.62714 0.20861 0.0
C699 C 0.78003 0.63126 0.11085 0.0
C700 C 0.80121 0.6305 0.04748 0.0
C701 C 0.8266 0.6255 0.08167 0.0
H702 H 0.76039 0.63511 0.08423 0.0
H703 H 0.00677 0.58855 0.42023 0.0
H704 H 0.3062 0.04973 0.94757 0.0
H705 H 0.33919 0.08364 0.92042 0.0
H706 H 0.35289 0.05288 0.63653 0.0
H707 H 0.31994 0.01852 0.66374 0.0
H708 H 0.39868 0.0647 0.72811 0.0
H709 H 0.31695 0.10762 0.66477 0.0
H710 H 0.27141 0.12172 0.6964 0.0
H711 H 0.29727 0.16452 0.94513 0.0
H712 H 0.34295 0.15034 0.91579 0.0
H713 H 0.46024 0.1797 0.53953 0.0
H714 H 0.42885 0.14427 0.56969 0.0
H715 H 0.42623 0.16608 0.86825 0.0
H716 H 0.4582 0.20131 0.83904 0.0
H717 H 0.37519 0.15895 0.76863 0.0
H718 H 0.45758 0.11542 0.82798 0.0
H719 H 0.50288 0.10167 0.79033 0.0
H720 H 0.47516 0.06056 0.54046 0.0
H721 H 0.4297 0.07444 0.57582 0.0
C722 C 0.31624 0.05013 0.87934 0.0
C723 C 0.31042 0.03156 0.80751 0.0
C724 C 0.33503 0.06958 0.86385 0.0
C725 C 0.34823 0.07097 0.77604 0.0
C726 C 0.34284 0.05216 0.70471 0.0
C727 C 0.324 0.03263 0.7202 0.0
C728 C 0.36754 0.09221 0.75907 0.0
C729 C 0.39346 0.08531 0.73568 0.0
C730 C 0.3608 0.11908 0.7707 0.0
C731 C 0.33335 0.12768 0.78862 0.0
C732 C 0.3129 0.11985 0.7267 0.0
C733 C 0.28706 0.12789 0.74412 0.0
C734 C 0.28144 0.14395 0.82288 0.0
C735 C 0.30165 0.15205 0.88424 0.0
C736 C 0.32753 0.14403 0.8672 0.0
C737 C 0.45299 0.17695 0.61163 0.0
C738 C 0.46159 0.19321 0.68705 0.0
C739 C 0.43516 0.15668 0.6287 0.0
C740 C 0.42538 0.15261 0.72112 0.0
C741 C 0.43366 0.169 0.79648 0.0
C742 C 0.4519 0.189 0.77978 0.0
C743 C 0.40623 0.13137 0.73829 0.0
C744 C 0.38035 0.13831 0.76135 0.0
C745 C 0.41295 0.10459 0.7255 0.0
C746 C 0.44026 0.09623 0.70396 0.0
C747 C 0.46117 0.10369 0.76443 0.0
C748 C 0.48687 0.09582 0.74363 0.0
C749 C 0.4919 0.08032 0.66288 0.0
C750 C 0.47123 0.07261 0.60289 0.0
C751 C 0.44549 0.08046 0.62332 0.0
H752 H 0.51181 0.07423 0.64694 0.0
H753 H 0.26142 0.15016 0.83622 0.0
H754 H 0.80141 0.94549 0.80549 0.0
H755 H 0.83568 0.91277 0.83281 0.0
H756 H 0.86419 0.95772 0.0747 0.0
H757 H 0.82911 0.99014 0.04963 0.0
H758 H 0.88607 0.91278 0.828 0.0
H759 H 0.88946 0.91662 0.24227 0.0
H760 H 0.86019 0.92685 0.378 0.0
H761 H 0.79286 0.90667 0.20652 0.0
H762 H 0.82175 0.896 0.07031 0.0
H763 H 0.99256 0.83147 0.98233 0.0
H764 H 0.96223 0.86804 0.95172 0.0
H765 H 0.89973 0.82456 0.08711 0.0
H766 H 0.93044 0.78898 0.12323 0.0
H767 H 0.89647 0.87069 0.14571 0.0
H768 H 0.90685 0.83368 0.83017 0.0
H769 H 0.93125 0.81861 0.68775 0.0
H770 H 0.96236 0.89636 0.64945 0.0
H771 H 0.93838 0.91181 0.79234 0.0
C772 C 0.81497 0.94841 0.86458 0.0
C773 C 0.81249 0.97024 0.92594 0.0
C774 C 0.83465 0.92975 0.87982 0.0
C775 C 0.85242 0.93261 0.95627 0.0
C776 C 0.85043 0.95482 0.01625 0.0
C777 C 0.83044 0.97336 0.00179 0.0
C778 C 0.87248 0.9119 0.97393 0.0
C779 C 0.8884 0.90361 0.89756 0.0
C780 C 0.87529 0.89962 0.06417 0.0
C781 C 0.85776 0.90585 0.14583 0.0
C782 C 0.86841 0.91433 0.23367 0.0
C783 C 0.85189 0.9202 0.31065 0.0
C784 C 0.82468 0.91752 0.30076 0.0
C785 C 0.81393 0.90885 0.21397 0.0
C786 C 0.83037 0.90292 0.13683 0.0
C787 C 0.97228 0.82977 0.00472 0.0
C788 C 0.96373 0.80751 0.05492 0.0
C789 C 0.95491 0.8506 0.98696 0.0
C790 C 0.92852 0.84905 0.01617 0.0
C791 C 0.91998 0.82642 0.06442 0.0
C792 C 0.93748 0.80601 0.08457 0.0
C793 C 0.90978 0.87108 0.99921 0.0
C794 C 0.89426 0.87985 0.07608 0.0
C795 C 0.90664 0.88306 0.90842 0.0
C796 C 0.92105 0.87382 0.82249 0.0
C797 C 0.91904 0.84751 0.79174 0.0
C798 C 0.93277 0.83891 0.71088 0.0
C799 C 0.9484 0.8565 0.65975 0.0
C800 C 0.95028 0.88275 0.68921 0.0
C801 C 0.93661 0.89144 0.77007 0.0
H802 H 0.95901 0.84981 0.59718 0.0
H803 H 0.81192 0.92208 0.36042 0.0
H804 H 0.04106 0.3145 0.99651 0.0
H805 H 0.07241 0.35014 0.02306 0.0
H806 H 0.06395 0.34125 0.32858 0.0
H807 H 0.03207 0.30581 0.30237 0.0
H808 H 0.06426 0.39211 0.28033 0.0
H809 H 0.11745 0.31655 0.2117 0.0
H810 H 0.13198 0.27778 0.11911 0.0
H811 H 0.15023 0.32728 0.87994 0.0
H812 H 0.13545 0.36632 0.97067 0.0
H813 H 0.18077 0.45474 0.43746 0.0
H814 H 0.14666 0.4227 0.39852 0.0
H815 H 0.15325 0.44205 0.0991 0.0
H816 H 0.18756 0.47445 0.13777 0.0
H817 H 0.15325 0.38742 0.1368 0.0
H818 H 0.10176 0.46364 0.21472 0.0
H819 H 0.08812 0.50154 0.31359 0.0
H820 H 0.06787 0.44951 0.54326 0.0
H821 H 0.08175 0.4113 0.44626 0.0
C822 C 0.04584 0.32014 0.0694 0.0
C823 C 0.03423 0.30728 0.14745 0.0
C824 C 0.06383 0.34046 0.08443 0.0
C825 C 0.07082 0.3481 0.17779 0.0
C826 C 0.05888 0.33561 0.25592 0.0
C827 C 0.04075 0.31534 0.2409 0.0
C828 C 0.09068 0.36902 0.19379 0.0
C829 C 0.08381 0.39094 0.24981 0.0
C830 C 0.11601 0.36776 0.15222 0.0
C831 C 0.12508 0.34433 0.09765 0.0
C832 C 0.12437 0.31915 0.1391 0.0
C833 C 0.13268 0.29712 0.08701 0.0
C834 C 0.14195 0.30006 0.99362 0.0
C835 C 0.143 0.32503 0.95224 0.0
C836 C 0.13468 0.34712 0.00399 0.0
C837 C 0.17492 0.45228 0.36328 0.0
C838 C 0.1868 0.46711 0.29057 0.0
C839 C 0.15536 0.43402 0.34125 0.0
C840 C 0.14731 0.43017 0.24609 0.0
C841 C 0.15919 0.44482 0.17304 0.0
C842 C 0.17868 0.46334 0.19519 0.0
C843 C 0.12684 0.41038 0.22363 0.0
C844 C 0.13362 0.38865 0.16659 0.0
C845 C 0.10153 0.41168 0.26511 0.0
C846 C 0.09301 0.43462 0.32344 0.0
C847 C 0.09459 0.46029 0.28658 0.0
C848 C 0.08678 0.48183 0.34224 0.0
C849 C 0.07719 0.47794 0.43472 0.0
C850 C 0.07532 0.45249 0.47164 0.0
C851 C 0.08313 0.43089 0.4163 0.0
H852 H 0.07115 0.49464 0.47771 0.0
H853 H 0.14837 0.28298 0.9534 0.0
H854 H 0.54572 0.69083 0.74062 0.0
H855 H 0.57842 0.65685 0.70831 0.0
H856 H 0.56598 0.66644 0.4045 0.0
H857 H 0.53252 0.70011 0.43667 0.0
H858 H 0.56841 0.61591 0.44883 0.0
H859 H 0.62077 0.69168 0.51869 0.0
H860 H 0.63521 0.73032 0.61233 0.0
H861 H 0.65619 0.68023 0.84758 0.0
H862 H 0.64148 0.64131 0.75593 0.0
H863 H 0.68242 0.54708 0.30154 0.0
H864 H 0.64991 0.58132 0.33325 0.0
H865 H 0.65735 0.56746 0.63678 0.0
H866 H 0.69026 0.53313 0.6055 0.0
H867 H 0.65783 0.62032 0.59144 0.0
H868 H 0.60477 0.5445 0.51785 0.0
H869 H 0.59054 0.50645 0.42068 0.0
H870 H 0.57168 0.55781 0.18668 0.0
H871 H 0.58615 0.59615 0.28202 0.0
C872 C 0.54998 0.68577 0.66686 0.0
C873 C 0.53668 0.6982 0.59107 0.0
C874 C 0.56877 0.66642 0.64851 0.0
C875 C 0.57497 0.65941 0.55397 0.0
C876 C 0.56156 0.67164 0.47802 0.0
C877 C 0.54253 0.69089 0.49641 0.0
C878 C 0.59512 0.63896 0.53488 0.0
C879 C 0.58809 0.61709 0.47881 0.0
C880 C 0.62063 0.64023 0.57574 0.0
C881 C 0.6298 0.66358 0.63068 0.0
C882 C 0.62829 0.68891 0.59063 0.0
C883 C 0.63654 0.71087 0.64332 0.0
C884 C 0.64656 0.70774 0.7359 0.0
C885 C 0.64841 0.68263 0.77588 0.0
C886 C 0.64014 0.66061 0.72356 0.0
C887 C 0.67711 0.55124 0.37511 0.0
C888 C 0.68879 0.53736 0.45113 0.0
C889 C 0.65847 0.57077 0.39304 0.0
C890 C 0.65103 0.57672 0.48725 0.0
C891 C 0.66282 0.56309 0.56351 0.0
C892 C 0.6815 0.54345 0.54559 0.0
C893 C 0.63105 0.59733 0.50568 0.0
C894 C 0.63815 0.61922 0.56151 0.0
C895 C 0.60567 0.5962 0.46398 0.0
C896 C 0.59676 0.57317 0.40681 0.0
C897 C 0.59777 0.54766 0.44543 0.0
C898 C 0.58963 0.52604 0.39072 0.0
C899 C 0.58027 0.5297 0.29749 0.0
C900 C 0.57896 0.555 0.25887 0.0
C901 C 0.5871 0.57669 0.31325 0.0
H902 H 0.57399 0.51293 0.25523 0.0
H903 H 0.65293 0.72476 0.77657 0.0
loop_
_geom_bond_atom_site_label_1
_geom_bond_atom_site_label_2
_geom_bond_distance
_geom_bond_site_symmetry_2
_ccdc_geom_bond_type
In0 O1 2.294 . S
In0 O2 2.326 . S
In0 O6 2.266 . S
In0 O7 2.326 . S
In0 O8 2.266 . S
In0 O9 2.326 . S
In0 O11 2.294 . S
In0 O12 2.326 . S
O1 In0 2.294 . S
O1 C10 1.240 . S
O2 In0 2.326 . S
O2 C10 1.252 . S
C3 O6 1.252 . S
C3 O7 1.260 . S
C4 O11 1.240 . S
C4 O12 1.252 . S
C5 O8 1.252 . S
C5 O9 1.260 . S
O6 In0 2.266 . S
O6 C3 1.252 . S
O7 In0 2.326 . S
O7 C3 1.260 . S
O8 In0 2.266 . S
O8 C5 1.252 . S
O9 In0 2.326 . S
O9 C5 1.260 . S
C10 O1 1.240 . S
C10 O2 1.252 . S
O11 In0 2.294 . S
O11 C4 1.240 . S
O12 In0 2.326 . S
O12 C4 1.252 . S
In13 O14 2.294 . S
In13 O15 2.326 . S
In13 O19 2.266 . S
In13 O20 2.326 . S
In13 O21 2.266 . S
In13 O22 2.326 . S
In13 O24 2.294 . S
In13 O25 2.326 . S
O14 In13 2.294 . S
O14 C23 1.240 . S
O15 In13 2.326 . S
O15 C23 1.252 . S
C16 O19 1.252 . S
C16 O20 1.260 . S
C17 O24 1.240 . S
C17 O25 1.252 . S
C18 O21 1.252 . S
C18 O22 1.260 . S
O19 In13 2.266 . S
O19 C16 1.252 . S
O20 In13 2.326 . S
O20 C16 1.260 . S
O21 In13 2.266 . S
O21 C18 1.252 . S
O22 In13 2.326 . S
O22 C18 1.260 . S
C23 O14 1.240 . S
C23 O15 1.252 . S
O24 In13 2.294 . S
O24 C17 1.240 . S
O25 In13 2.326 . S
O25 C17 1.252 . S
In26 O27 2.294 1_556 S
In26 O28 2.326 . S
In26 O32 2.266 . S
In26 O33 2.326 1_565 S
In26 O34 2.266 . S
In26 O35 2.326 . S
In26 O37 2.294 . S
In26 O38 2.326 1_565 S
O27 In26 2.294 1_554 S
O27 C36 1.240 1_554 S
O28 In26 2.326 . S
O28 C36 1.252 . S
C29 O32 1.252 1_545 S
C29 O33 1.260 . S
C30 O37 1.240 1_545 S
C30 O38 1.252 . S
C31 O34 1.252 . S
C31 O35 1.260 . S
O32 In26 2.266 . S
O32 C29 1.252 1_565 S
O33 In26 2.326 1_545 S
O33 C29 1.260 . S
O34 In26 2.266 . S
O34 C31 1.252 . S
O35 In26 2.326 . S
O35 C31 1.260 . S
C36 O27 1.240 1_556 S
C36 O28 1.252 . S
O37 In26 2.294 . S
O37 C30 1.240 1_565 S
O38 In26 2.326 1_545 S
O38 C30 1.252 . S
In39 O40 2.294 . S
In39 O41 2.326 1_455 S
In39 O45 2.266 . S
In39 O46 2.326 . S
In39 O47 2.266 . S
In39 O48 2.326 1_455 S
In39 O50 2.294 1_554 S
In39 O51 2.326 . S
O40 In39 2.294 . S
O40 C49 1.240 1_455 S
O41 In39 2.326 1_655 S
O41 C49 1.252 . S
C42 O45 1.252 . S
C42 O46 1.260 . S
C43 O50 1.240 1_554 S
C43 O51 1.252 . S
C44 O47 1.252 1_655 S
C44 O48 1.260 . S
O45 In39 2.266 . S
O45 C42 1.252 . S
O46 In39 2.326 . S
O46 C42 1.260 . S
O47 In39 2.266 . S
O47 C44 1.252 1_455 S
O48 In39 2.326 1_655 S
O48 C44 1.260 . S
C49 O40 1.240 1_655 S
C49 O41 1.252 . S
O50 In39 2.294 1_556 S
O50 C43 1.240 1_556 S
O51 In39 2.326 . S
O51 C43 1.252 . S
In52 O53 2.294 . S
In52 O54 2.326 . S
In52 O58 2.266 . S
In52 O59 2.326 1_545 S
In52 O60 2.266 1_556 S
In52 O61 2.326 . S
In52 O63 2.294 . S
In52 O64 2.326 1_545 S
O53 In52 2.294 . S
O53 C62 1.240 . S
O54 In52 2.326 . S
O54 C62 1.252 . S
C55 O58 1.252 1_565 S
C55 O59 1.260 . S
C56 O63 1.240 1_565 S
C56 O64 1.252 . S
C57 O60 1.252 1_556 S
C57 O61 1.260 . S
O58 In52 2.266 . S
O58 C55 1.252 1_545 S
O59 In52 2.326 1_565 S
O59 C55 1.260 . S
O60 In52 2.266 1_554 S
O60 C57 1.252 1_554 S
O61 In52 2.326 . S
O61 C57 1.260 . S
C62 O53 1.240 . S
C62 O54 1.252 . S
O63 In52 2.294 . S
O63 C56 1.240 1_545 S
O64 In52 2.326 1_565 S
O64 C56 1.252 . S
In65 O66 2.294 . S
In65 O67 2.326 . S
In65 O71 2.266 . S
In65 O72 2.326 1_655 S
In65 O73 2.266 1_554 S
In65 O74 2.326 . S
In65 O76 2.294 . S
In65 O77 2.326 1_655 S
O66 In65 2.294 . S
O66 C75 1.240 . S
O67 In65 2.326 . S
O67 C75 1.252 . S
C68 O71 1.252 1_455 S
C68 O72 1.260 . S
C69 O76 1.240 1_455 S
C69 O77 1.252 . S
C70 O73 1.252 1_554 S
C70 O74 1.260 . S
O71 In65 2.266 . S
O71 C68 1.252 1_655 S
O72 In65 2.326 1_455 S
O72 C68 1.260 . S
O73 In65 2.266 1_556 S
O73 C70 1.252 1_556 S
O74 In65 2.326 . S
O74 C70 1.260 . S
C75 O66 1.240 . S
C75 O67 1.252 . S
O76 In65 2.294 . S
O76 C69 1.240 1_655 S
O77 In65 2.326 1_455 S
O77 C69 1.252 . S
In78 O79 2.294 . S
In78 O80 2.326 . S
In78 O84 2.266 . S
In78 O85 2.326 . S
In78 O86 2.266 . S
In78 O87 2.326 . S
In78 O89 2.294 . S
In78 O90 2.326 . S
O79 In78 2.294 . S
O79 C88 1.240 . S
O80 In78 2.326 . S
O80 C88 1.252 . S
C81 O84 1.252 . S
C81 O85 1.260 . S
C82 O89 1.240 . S
C82 O90 1.252 . S
C83 O86 1.252 . S
C83 O87 1.260 . S
O84 In78 2.266 . S
O84 C81 1.252 . S
O85 In78 2.326 . S
O85 C81 1.260 . S
O86 In78 2.266 . S
O86 C83 1.252 . S
O87 In78 2.326 . S
O87 C83 1.260 . S
C88 O79 1.240 . S
C88 O80 1.252 . S
O89 In78 2.294 . S
O89 C82 1.240 . S
O90 In78 2.326 . S
O90 C82 1.252 . S
In91 O92 2.294 . S
In91 O93 2.326 . S
In91 O97 2.266 . S
In91 O98 2.326 . S
In91 O99 2.266 . S
In91 O100 2.326 . S
In91 O102 2.294 . S
In91 O103 2.326 . S
O92 In91 2.294 . S
O92 C101 1.240 . S
O93 In91 2.326 . S
O93 C101 1.252 . S
C94 O97 1.252 . S
C94 O98 1.260 . S
C95 O102 1.240 . S
C95 O103 1.252 . S
C96 O99 1.252 . S
C96 O100 1.260 . S
O97 In91 2.266 . S
O97 C94 1.252 . S
O98 In91 2.326 . S
O98 C94 1.260 . S
O99 In91 2.266 . S
O99 C96 1.252 . S
O100 In91 2.326 . S
O100 C96 1.260 . S
C101 O92 1.240 . S
C101 O93 1.252 . S
O102 In91 2.294 . S
O102 C95 1.240 . S
O103 In91 2.326 . S
O103 C95 1.252 . S
H104 C122 0.951 . S
H105 C124 0.951 . S
H106 C126 0.950 . S
H107 C127 0.950 . S
H108 C129 0.950 . S
H109 C132 0.950 . S
H110 C133 0.950 . S
H111 C135 0.950 . S
H112 C136 0.950 . S
H113 C137 0.951 . S
H114 C139 0.951 . S
H115 C141 0.950 . S
H116 C142 0.950 . S
H117 C144 0.950 . S
H118 C147 0.950 . S
H119 C148 0.950 . S
H120 C150 0.950 . S
H121 C151 0.950 . S
C122 H104 0.951 . S
C122 C123 1.366 . S
C122 C124 1.388 . S
C123 C122 1.366 . S
C123 C127 1.385 . S
C124 H105 0.951 . S
C124 C122 1.388 . S
C124 C125 1.366 . S
C125 C124 1.366 . S
C125 C126 1.414 . S
C125 C128 1.499 . S
C126 H106 0.950 . S
C126 C125 1.414 . S
C126 C127 1.374 . S
C127 H107 0.950 . S
C127 C123 1.385 . S
C127 C126 1.374 . S
C128 C125 1.499 . S
C128 C129 1.373 . S
C128 C130 1.389 1_556 S
C129 H108 0.950 . S
C129 C128 1.373 . S
C129 C145 1.377 . S
C130 C128 1.389 1_554 S
C130 C131 1.524 . S
C130 C144 1.377 . S
C131 C130 1.524 . S
C131 C132 1.397 . S
C131 C136 1.363 . S
C132 H109 0.950 . S
C132 C131 1.397 . S
C132 C133 1.334 . S
C133 H110 0.950 . S
C133 C132 1.334 . S
C133 C134 1.287 . S
C134 C133 1.287 . S
C134 C135 1.524 . S
C134 H153 0.913 . S
C135 H111 0.950 . S
C135 C134 1.524 . S
C135 C136 1.415 . S
C136 H112 0.950 . S
C136 C131 1.363 . S
C136 C135 1.415 . S
C137 H113 0.951 . S
C137 C138 1.366 . S
C137 C139 1.388 . S
C138 C137 1.366 . S
C138 C142 1.385 . S
C139 H114 0.951 . S
C139 C137 1.388 . S
C139 C140 1.366 . S
C140 C139 1.366 . S
C140 C141 1.414 . S
C140 C143 1.499 . S
C141 H115 0.950 . S
C141 C140 1.414 . S
C141 C142 1.374 . S
C142 H116 0.950 . S
C142 C138 1.385 . S
C142 C141 1.374 . S
C143 C140 1.499 . S
C143 C144 1.373 . S
C143 C145 1.389 1_554 S
C144 H117 0.950 . S
C144 C130 1.377 . S
C144 C143 1.373 . S
C145 C129 1.377 . S
C145 C143 1.389 1_556 S
C145 C146 1.524 . S
C146 C145 1.524 . S
C146 C147 1.397 . S
C146 C151 1.363 . S
C147 H118 0.950 . S
C147 C146 1.397 . S
C147 C148 1.334 . S
C148 H119 0.950 . S
C148 C147 1.334 . S
C148 C149 1.287 . S
C149 C148 1.287 . S
C149 C150 1.524 . S
C149 H152 0.999 . S
C150 H120 0.950 . S
C150 C149 1.524 . S
C150 C151 1.415 . S
C151 H121 0.950 . S
C151 C146 1.363 . S
C151 C150 1.415 . S
H152 C149 0.999 . S
H153 C134 0.913 . S
H154 C172 0.951 . S
H155 C174 0.951 . S
H156 C176 0.950 . S
H157 C177 0.950 . S
H158 C179 0.950 . S
H159 C182 0.950 . S
H160 C183 0.950 . S
H161 C185 0.950 1_556 S
H162 C186 0.950 . S
H163 C187 0.951 . S
H164 C189 0.951 . S
H165 C191 0.950 . S
H166 C192 0.950 1_556 S
H167 C194 0.950 . S
H168 C197 0.950 . S
H169 C198 0.950 . S
H170 C200 0.950 . S
H171 C201 0.950 . S
C172 H154 0.951 . S
C172 C173 1.366 . S
C172 C174 1.388 . S
C173 C172 1.366 . S
C173 C177 1.385 . S
C174 H155 0.951 . S
C174 C172 1.388 . S
C174 C175 1.366 . S
C175 C174 1.366 . S
C175 C176 1.414 . S
C175 C178 1.499 . S
C176 H156 0.950 . S
C176 C175 1.414 . S
C176 C177 1.374 . S
C177 H157 0.950 . S
C177 C173 1.385 . S
C177 C176 1.374 . S
C178 C175 1.499 . S
C178 C179 1.373 . S
C178 C180 1.389 . S
C179 H158 0.950 . S
C179 C178 1.373 . S
C179 C195 1.377 . S
C180 C178 1.389 . S
C180 C181 1.524 . S
C180 C194 1.377 . S
C181 C180 1.524 . S
C181 C182 1.397 . S
C181 C186 1.363 . S
C182 H159 0.950 . S
C182 C181 1.397 . S
C182 C183 1.334 . S
C183 H160 0.950 . S
C183 C182 1.334 . S
C183 C184 1.287 . S
C184 C183 1.287 . S
C184 C185 1.524 . S
C184 H203 0.913 . S
C185 H161 0.950 1_554 S
C185 C184 1.524 . S
C185 C186 1.415 . S
C186 H162 0.950 . S
C186 C181 1.363 . S
C186 C185 1.415 . S
C187 H163 0.951 . S
C187 C188 1.366 . S
C187 C189 1.388 . S
C188 C187 1.366 . S
C188 C192 1.385 . S
C189 H164 0.951 . S
C189 C187 1.388 . S
C189 C190 1.366 . S
C190 C189 1.366 . S
C190 C191 1.414 . S
C190 C193 1.499 . S
C191 H165 0.950 . S
C191 C190 1.414 . S
C191 C192 1.374 . S
C192 H166 0.950 1_554 S
C192 C188 1.385 . S
C192 C191 1.374 . S
C193 C190 1.499 . S
C193 C194 1.373 . S
C193 C195 1.389 . S
C194 H167 0.950 . S
C194 C180 1.377 . S
C194 C193 1.373 . S
C195 C179 1.377 . S
C195 C193 1.389 . S
C195 C196 1.524 . S
C196 C195 1.524 . S
C196 C197 1.397 . S
C196 C201 1.363 . S
C197 H168 0.950 . S
C197 C196 1.397 . S
C197 C198 1.334 . S
C198 H169 0.950 . S
C198 C197 1.334 . S
C198 C199 1.287 . S
C199 C198 1.287 . S
C199 C200 1.524 . S
C199 H202 0.999 . S
C200 H170 0.950 . S
C200 C199 1.524 . S
C200 C201 1.415 . S
C201 H171 0.950 . S
C201 C196 1.363 . S
C201 C200 1.415 . S
H202 C199 0.999 . S
H203 C184 0.913 . S
H204 C222 0.951 . S
H205 C224 0.951 . S
H206 C226 0.950 . S
H207 C227 0.950 . S
H208 C229 0.950 . S
H209 C232 0.950 . S
H210 C233 0.950 . S
H211 C235 0.950 . S
H212 C236 0.950 . S
H213 C237 0.951 . S
H214 C239 0.951 . S
H215 C241 0.950 . S
H216 C242 0.950 . S
H217 C244 0.950 . S
H218 C247 0.950 . S
H219 C248 0.950 . S
H220 C250 0.950 . S
H221 C251 0.950 . S
C222 H204 0.951 . S
C222 C223 1.366 . S
C222 C224 1.388 . S
C223 C222 1.366 . S
C223 C227 1.385 . S
C224 H205 0.951 . S
C224 C222 1.388 . S
C224 C225 1.366 . S
C225 C224 1.366 . S
C225 C226 1.414 . S
C225 C228 1.499 . S
C226 H206 0.950 . S
C226 C225 1.414 . S
C226 C227 1.374 . S
C227 H207 0.950 . S
C227 C223 1.385 . S
C227 C226 1.374 . S
C228 C225 1.499 . S
C228 C229 1.373 . S
C228 C230 1.389 . S
C229 H208 0.950 . S
C229 C228 1.373 . S
C229 C245 1.377 . S
C230 C228 1.389 . S
C230 C231 1.524 . S
C230 C244 1.377 . S
C231 C230 1.524 . S
C231 C232 1.397 . S
C231 C236 1.363 . S
C232 H209 0.950 . S
C232 C231 1.397 . S
C232 C233 1.334 . S
C233 H210 0.950 . S
C233 C232 1.334 . S
C233 C234 1.287 . S
C234 C233 1.287 . S
C234 C235 1.524 . S
C234 H253 0.913 . S
C235 H211 0.950 . S
C235 C234 1.524 . S
C235 C236 1.415 . S
C236 H212 0.950 . S
C236 C231 1.363 . S
C236 C235 1.415 . S
C237 H213 0.951 . S
C237 C238 1.366 . S
C237 C239 1.388 . S
C238 C237 1.366 . S
C238 C242 1.385 . S
C239 H214 0.951 . S
C239 C237 1.388 . S
C239 C240 1.366 . S
C240 C239 1.366 . S
C240 C241 1.414 . S
C240 C243 1.499 . S
C241 H215 0.950 . S
C241 C240 1.414 . S
C241 C242 1.374 . S
C242 H216 0.950 . S
C242 C238 1.385 . S
C242 C241 1.374 . S
C243 C240 1.499 . S
C243 C244 1.373 . S
C243 C245 1.389 . S
C244 H217 0.950 . S
C244 C230 1.377 . S
C244 C243 1.373 . S
C245 C229 1.377 . S
C245 C243 1.389 . S
C245 C246 1.524 . S
C246 C245 1.524 . S
C246 C247 1.397 . S
C246 C251 1.363 . S
C247 H218 0.950 . S
C247 C246 1.397 . S
C247 C248 1.334 . S
C248 H219 0.950 . S
C248 C247 1.334 . S
C248 C249 1.287 . S
C249 C248 1.287 . S
C249 C250 1.524 . S
C249 H252 0.999 . S
C250 H220 0.950 . S
C250 C249 1.524 . S
C250 C251 1.415 . S
C251 H221 0.950 . S
C251 C246 1.363 . S
C251 C250 1.415 . S
H252 C249 0.999 . S
H253 C234 0.913 . S
H254 C272 0.951 . S
H255 C274 0.951 . S
H256 C276 0.950 . S
H257 C277 0.953 . S
H258 C279 0.950 . S
H259 C282 0.950 . S
H260 C283 0.950 . S
H261 C285 0.950 . S
H262 C286 0.950 . S
H263 C287 0.951 . S
H264 C289 0.951 . S
H265 C291 0.950 . S
H266 C292 0.950 . S
H267 C294 0.950 . S
H268 C297 0.950 . S
H269 C298 0.950 . S
H270 C300 0.950 . S
H271 C301 0.950 . S
C272 H254 0.951 . S
C272 C273 1.366 . S
C272 C274 1.388 . S
C273 C272 1.366 . S
C273 C277 1.385 . S
C274 H255 0.951 . S
C274 C272 1.388 . S
C274 C275 1.366 . S
C275 C274 1.366 . S
C275 C276 1.414 . S
C275 C278 1.499 . S
C276 H256 0.950 . S
C276 C275 1.414 . S
C276 C277 1.374 . S
C277 H257 0.953 . S
C277 C273 1.385 . S
C277 C276 1.374 . S
C278 C275 1.499 . S
C278 C279 1.373 . S
C278 C280 1.389 . S
C279 H258 0.950 . S
C279 C278 1.373 . S
C279 C295 1.377 . S
C280 C278 1.389 . S
C280 C281 1.524 . S
C280 C294 1.377 . S
C281 C280 1.524 . S
C281 C282 1.397 . S
C281 C286 1.363 . S
C282 H259 0.950 . S
C282 C281 1.397 . S
C282 C283 1.334 . S
C283 H260 0.950 . S
C283 C282 1.334 . S
C283 C284 1.287 . S
C284 C283 1.287 . S
C284 C285 1.524 . S
C284 H303 0.913 . S
C285 H261 0.950 . S
C285 C284 1.524 . S
C285 C286 1.415 . S
C286 H262 0.950 . S
C286 C281 1.363 . S
C286 C285 1.415 . S
C287 H263 0.951 . S
C287 C288 1.366 . S
C287 C289 1.388 . S
C288 C287 1.366 . S
C288 C292 1.385 . S
C289 H264 0.951 . S
C289 C287 1.388 . S
C289 C290 1.366 . S
C290 C289 1.366 . S
C290 C291 1.414 . S
C290 C293 1.499 . S
C291 H265 0.950 . S
C291 C290 1.414 . S
C291 C292 1.374 . S
C292 H266 0.950 . S
C292 C288 1.385 . S
C292 C291 1.374 . S
C293 C290 1.499 . S
C293 C294 1.373 . S
C293 C295 1.389 . S
C294 H267 0.950 . S
C294 C280 1.377 . S
C294 C293 1.373 . S
C295 C279 1.377 . S
C295 C293 1.389 . S
C295 C296 1.524 . S
C296 C295 1.524 . S
C296 C297 1.397 . S
C296 C301 1.363 . S
C297 H268 0.950 . S
C297 C296 1.397 . S
C297 C298 1.334 . S
C298 H269 0.950 . S
C298 C297 1.334 . S
C298 C299 1.287 . S
C299 C298 1.287 . S
C299 C300 1.524 . S
C299 H302 0.999 . S
C300 H270 0.950 . S
C300 C299 1.524 . S
C300 C301 1.415 . S
C301 H271 0.950 . S
C301 C296 1.363 . S
C301 C300 1.415 . S
H302 C299 0.999 . S
H303 C284 0.913 . S
H304 C322 0.951 . S
H305 C324 0.951 . S
H306 C326 0.950 . S
H307 C327 0.950 . S
H308 C329 0.950 . S
H309 C332 0.950 . S
H310 C333 0.950 . S
H311 C335 0.950 . S
H312 C336 0.950 . S
H313 C337 0.951 . S
H314 C339 0.951 . S
H315 C341 0.950 . S
H316 C342 0.950 . S
H317 C344 0.950 . S
H318 C347 0.950 . S
H319 C348 0.950 . S
H320 C350 0.950 . S
H321 C351 0.950 . S
C322 H304 0.951 . S
C322 C323 1.366 . S
C322 C324 1.388 . S
C323 C322 1.366 . S
C323 C327 1.385 . S
C324 H305 0.951 . S
C324 C322 1.388 . S
C324 C325 1.366 . S
C325 C324 1.366 . S
C325 C326 1.414 . S
C325 C328 1.499 . S
C326 H306 0.950 . S
C326 C325 1.414 . S
C326 C327 1.374 . S
C327 H307 0.950 . S
C327 C323 1.385 . S
C327 C326 1.374 . S
C328 C325 1.499 . S
C328 C329 1.373 . S
C328 C330 1.389 . S
C329 H308 0.950 . S
C329 C328 1.373 . S
C329 C345 1.377 . S
C330 C328 1.389 . S
C330 C331 1.524 . S
C330 C344 1.377 . S
C331 C330 1.524 . S
C331 C332 1.397 . S
C331 C336 1.363 . S
C332 H309 0.950 . S
C332 C331 1.397 . S
C332 C333 1.334 . S
C333 H310 0.950 . S
C333 C332 1.334 . S
C333 C334 1.287 . S
C334 C333 1.287 . S
C334 C335 1.524 . S
C334 H353 0.913 . S
C335 H311 0.950 . S
C335 C334 1.524 . S
C335 C336 1.415 . S
C336 H312 0.950 . S
C336 C331 1.363 . S
C336 C335 1.415 . S
C337 H313 0.951 . S
C337 C338 1.366 . S
C337 C339 1.388 . S
C338 C337 1.366 . S
C338 C342 1.385 . S
C339 H314 0.951 . S
C339 C337 1.388 . S
C339 C340 1.366 . S
C340 C339 1.366 . S
C340 C341 1.414 . S
C340 C343 1.499 . S
C341 H315 0.950 . S
C341 C340 1.414 . S
C341 C342 1.374 . S
C342 H316 0.950 . S
C342 C338 1.385 . S
C342 C341 1.374 . S
C343 C340 1.499 . S
C343 C344 1.373 . S
C343 C345 1.389 . S
C344 H317 0.950 . S
C344 C330 1.377 . S
C344 C343 1.373 . S
C345 C329 1.377 . S
C345 C343 1.389 . S
C345 C346 1.524 . S
C346 C345 1.524 . S
C346 C347 1.397 . S
C346 C351 1.363 . S
C347 H318 0.950 . S
C347 C346 1.397 . S
C347 C348 1.334 . S
C348 H319 0.950 . S
C348 C347 1.334 . S
C348 C349 1.287 . S
C349 C348 1.287 . S
C349 C350 1.524 . S
C349 H352 0.999 . S
C350 H320 0.950 . S
C350 C349 1.524 . S
C350 C351 1.415 . S
C351 H321 0.950 . S
C351 C346 1.363 . S
C351 C350 1.415 . S
H352 C349 0.999 . S
H353 C334 0.913 . S
H354 C372 0.951 . S
H355 C374 0.951 . S
H356 C376 0.950 . S
H357 C377 0.950 . S
H358 C379 0.950 . S
H359 C382 0.950 . S
H360 C383 0.950 . S
H361 C385 0.950 . S
H362 C386 0.950 . S
H363 C387 0.951 . S
H364 C389 0.951 . S
H365 C391 0.950 . S
H366 C392 0.950 . S
H367 C394 0.950 . S
H368 C397 0.950 . S
H369 C398 0.950 . S
H370 C400 0.950 . S
H371 C401 0.950 . S
C372 H354 0.951 . S
C372 C373 1.366 . S
C372 C374 1.388 . S
C373 C372 1.366 . S
C373 C377 1.385 . S
C374 H355 0.951 . S
C374 C372 1.388 . S
C374 C375 1.366 . S
C375 C374 1.366 . S
C375 C376 1.414 . S
C375 C378 1.499 . S
C376 H356 0.950 . S
C376 C375 1.414 . S
C376 C377 1.374 . S
C377 H357 0.950 . S
C377 C373 1.385 . S
C377 C376 1.374 . S
C378 C375 1.499 . S
C378 C379 1.373 . S
C378 C380 1.389 . S
C379 H358 0.950 . S
C379 C378 1.373 . S
C379 C395 1.377 . S
C380 C378 1.389 . S
C380 C381 1.524 . S
C380 C394 1.377 . S
C381 C380 1.524 . S
C381 C382 1.397 1_556 S
C381 C386 1.363 . S
C382 H359 0.950 . S
C382 C381 1.397 1_554 S
C382 C383 1.334 . S
C383 H360 0.950 . S
C383 C382 1.334 . S
C383 C384 1.287 . S
C384 C383 1.287 . S
C384 C385 1.524 1_554 S
C384 H403 0.913 . S
C385 H361 0.950 . S
C385 C384 1.524 1_556 S
C385 C386 1.415 . S
C386 H362 0.950 . S
C386 C381 1.363 . S
C386 C385 1.415 . S
C387 H363 0.951 . S
C387 C388 1.366 . S
C387 C389 1.388 . S
C388 C387 1.366 . S
C388 C392 1.385 . S
C389 H364 0.951 . S
C389 C387 1.388 . S
C389 C390 1.366 . S
C390 C389 1.366 . S
C390 C391 1.414 . S
C390 C393 1.499 . S
C391 H365 0.950 . S
C391 C390 1.414 . S
C391 C392 1.374 . S
C392 H366 0.950 . S
C392 C388 1.385 . S
C392 C391 1.374 . S
C393 C390 1.499 . S
C393 C394 1.373 . S
C393 C395 1.389 . S
C394 H367 0.950 . S
C394 C380 1.377 . S
C394 C393 1.373 . S
C395 C379 1.377 . S
C395 C393 1.389 . S
C395 C396 1.524 . S
C396 C395 1.524 . S
C396 C397 1.397 . S
C396 C401 1.363 . S
C397 H368 0.950 . S
C397 C396 1.397 . S
C397 C398 1.334 . S
C398 H369 0.950 . S
C398 C397 1.334 . S
C398 C399 1.287 . S
C399 C398 1.287 . S
C399 C400 1.524 . S
C399 H402 0.999 . S
C400 H370 0.950 . S
C400 C399 1.524 . S
C400 C401 1.415 . S
C401 H371 0.950 . S
C401 C396 1.363 . S
C401 C400 1.415 . S
H402 C399 0.999 . S
H403 C384 0.913 . S
H404 C422 0.951 . S
H405 C424 0.951 . S
H406 C426 0.950 . S
H407 C427 0.950 . S
H408 C429 0.950 . S
H409 C432 0.950 . S
H410 C433 0.950 . S
H411 C435 0.950 . S
H412 C436 0.950 . S
H413 C437 0.951 . S
H414 C439 0.951 . S
H415 C441 0.950 . S
H416 C442 0.950 . S
H417 C444 0.950 . S
H418 C447 0.950 . S
H419 C448 0.950 . S
H420 C450 0.950 . S
H421 C451 0.950 . S
C422 H404 0.951 . S
C422 C423 1.366 . S
C422 C424 1.388 . S
C423 C422 1.366 . S
C423 C427 1.385 . S
C424 H405 0.951 . S
C424 C422 1.388 . S
C424 C425 1.366 . S
C425 C424 1.366 . S
C425 C426 1.414 . S
C425 C428 1.499 . S
C426 H406 0.950 . S
C426 C425 1.414 . S
C426 C427 1.374 . S
C427 H407 0.950 . S
C427 C423 1.385 . S
C427 C426 1.374 . S
C428 C425 1.499 . S
C428 C429 1.373 1_554 S
C428 C430 1.389 . S
C429 H408 0.950 . S
C429 C428 1.373 1_556 S
C429 C445 1.377 . S
C430 C428 1.389 . S
C430 C431 1.524 . S
C430 C444 1.377 . S
C431 C430 1.524 . S
C431 C432 1.397 . S
C431 C436 1.363 . S
C432 H409 0.950 . S
C432 C431 1.397 . S
C432 C433 1.334 . S
C433 H410 0.950 . S
C433 C432 1.334 . S
C433 C434 1.287 . S
C434 C433 1.287 . S
C434 C435 1.524 . S
C434 H453 0.913 . S
C435 H411 0.950 . S
C435 C434 1.524 . S
C435 C436 1.415 . S
C436 H412 0.950 . S
C436 C431 1.363 . S
C436 C435 1.415 . S
C437 H413 0.951 . S
C437 C438 1.366 . S
C437 C439 1.388 . S
C438 C437 1.366 . S
C438 C442 1.385 . S
C439 H414 0.951 . S
C439 C437 1.388 . S
C439 C440 1.366 . S
C440 C439 1.366 . S
C440 C441 1.414 . S
C440 C443 1.499 . S
C441 H415 0.950 . S
C441 C440 1.414 . S
C441 C442 1.374 . S
C442 H416 0.950 . S
C442 C438 1.385 . S
C442 C441 1.374 . S
C443 C440 1.499 . S
C443 C444 1.373 1_556 S
C443 C445 1.389 . S
C444 H417 0.950 . S
C444 C430 1.377 . S
C444 C443 1.373 1_554 S
C445 C429 1.377 . S
C445 C443 1.389 . S
C445 C446 1.524 . S
C446 C445 1.524 . S
C446 C447 1.397 . S
C446 C451 1.363 . S
C447 H418 0.950 . S
C447 C446 1.397 . S
C447 C448 1.334 . S
C448 H419 0.950 . S
C448 C447 1.334 . S
C448 C449 1.287 . S
C449 C448 1.287 . S
C449 C450 1.524 . S
C449 H452 0.999 . S
C450 H420 0.950 . S
C450 C449 1.524 . S
C450 C451 1.415 . S
C451 H421 0.950 . S
C451 C446 1.363 . S
C451 C450 1.415 . S
H452 C449 0.999 . S
H453 C434 0.913 . S
H454 C472 0.951 . S
H455 C474 0.951 . S
H456 C476 0.950 . S
H457 C477 0.950 . S
H458 C479 0.950 . S
H459 C482 0.950 . S
H460 C483 0.950 . S
H461 C485 0.950 . S
H462 C486 0.950 . S
H463 C487 0.951 . S
H464 C489 0.951 . S
H465 C491 0.950 . S
H466 C492 0.950 . S
H467 C494 0.950 . S
H468 C497 0.950 . S
H469 C498 0.950 . S
H470 C500 0.950 . S
H471 C501 0.950 . S
C472 H454 0.951 . S
C472 C473 1.366 . S
C472 C474 1.388 . S
C473 C472 1.366 . S
C473 C477 1.385 . S
C474 H455 0.951 . S
C474 C472 1.388 . S
C474 C475 1.366 . S
C475 C474 1.366 . S
C475 C476 1.414 . S
C475 C478 1.499 . S
C476 H456 0.950 . S
C476 C475 1.414 . S
C476 C477 1.374 . S
C477 H457 0.950 . S
C477 C473 1.385 . S
C477 C476 1.374 . S
C478 C475 1.499 . S
C478 C479 1.373 . S
C478 C480 1.389 . S
C479 H458 0.950 . S
C479 C478 1.373 . S
C479 C495 1.377 . S
C480 C478 1.389 . S
C480 C481 1.524 . S
C480 C494 1.377 . S
C481 C480 1.524 . S
C481 C482 1.397 . S
C481 C486 1.363 . S
C482 H459 0.950 . S
C482 C481 1.397 . S
C482 C483 1.334 . S
C483 H460 0.950 . S
C483 C482 1.334 . S
C483 C484 1.287 . S
C484 C483 1.287 . S
C484 C485 1.524 . S
C484 H503 0.913 . S
C485 H461 0.950 . S
C485 C484 1.524 . S
C485 C486 1.415 . S
C486 H462 0.950 . S
C486 C481 1.363 . S
C486 C485 1.415 . S
C487 H463 0.951 . S
C487 C488 1.366 . S
C487 C489 1.388 . S
C488 C487 1.366 . S
C488 C492 1.385 . S
C489 H464 0.951 . S
C489 C487 1.388 . S
C489 C490 1.366 . S
C490 C489 1.366 . S
C490 C491 1.414 . S
C490 C493 1.499 . S
C491 H465 0.950 . S
C491 C490 1.414 . S
C491 C492 1.374 . S
C492 H466 0.950 . S
C492 C488 1.385 . S
C492 C491 1.374 . S
C493 C490 1.499 . S
C493 C494 1.373 . S
C493 C495 1.389 . S
C494 H467 0.950 . S
C494 C480 1.377 . S
C494 C493 1.373 . S
C495 C479 1.377 . S
C495 C493 1.389 . S
C495 C496 1.524 . S
C496 C495 1.524 . S
C496 C497 1.397 . S
C496 C501 1.363 . S
C497 H468 0.950 . S
C497 C496 1.397 . S
C497 C498 1.334 . S
C498 H469 0.950 . S
C498 C497 1.334 . S
C498 C499 1.287 . S
C499 C498 1.287 . S
C499 C500 1.524 . S
C499 H502 0.999 . S
C500 H470 0.950 . S
C500 C499 1.524 . S
C500 C501 1.415 . S
C501 H471 0.950 . S
C501 C496 1.363 . S
C501 C500 1.415 . S
H502 C499 0.999 . S
H503 C484 0.913 . S
H504 C522 0.951 . S
H505 C524 0.951 . S
H506 C526 0.950 . S
H507 C527 0.950 . S
H508 C529 0.950 . S
H509 C532 0.950 . S
H510 C533 0.950 . S
H511 C535 0.950 . S
H512 C536 0.950 . S
H513 C537 0.951 . S
H514 C539 0.951 . S
H515 C541 0.950 . S
H516 C542 0.950 . S
H517 C544 0.950 . S
H518 C547 0.950 . S
H519 C548 0.950 . S
H520 C550 0.950 . S
H521 C551 0.950 . S
C522 H504 0.951 . S
C522 C523 1.366 . S
C522 C524 1.388 . S
C523 C522 1.366 . S
C523 C527 1.385 . S
C524 H505 0.951 . S
C524 C522 1.388 . S
C524 C525 1.366 . S
C525 C524 1.366 . S
C525 C526 1.414 . S
C525 C528 1.499 . S
C526 H506 0.950 . S
C526 C525 1.414 . S
C526 C527 1.374 . S
C527 H507 0.950 . S
C527 C523 1.385 . S
C527 C526 1.374 . S
C528 C525 1.499 . S
C528 C529 1.373 . S
C528 C530 1.389 . S
C529 H508 0.950 . S
C529 C528 1.373 . S
C529 C545 1.377 . S
C530 C528 1.389 . S
C530 C531 1.524 . S
C530 C544 1.377 . S
C531 C530 1.524 . S
C531 C532 1.397 . S
C531 C536 1.363 . S
C532 H509 0.950 . S
C532 C531 1.397 . S
C532 C533 1.334 . S
C533 H510 0.950 . S
C533 C532 1.334 . S
C533 C534 1.287 . S
C534 C533 1.287 . S
C534 C535 1.524 . S
C534 H553 0.913 . S
C535 H511 0.950 . S
C535 C534 1.524 . S
C535 C536 1.415 . S
C536 H512 0.950 . S
C536 C531 1.363 . S
C536 C535 1.415 . S
C537 H513 0.951 . S
C537 C538 1.366 . S
C537 C539 1.388 . S
C538 C537 1.366 . S
C538 C542 1.385 . S
C539 H514 0.951 . S
C539 C537 1.388 . S
C539 C540 1.366 . S
C540 C539 1.366 . S
C540 C541 1.414 . S
C540 C543 1.499 . S
C541 H515 0.950 . S
C541 C540 1.414 . S
C541 C542 1.374 . S
C542 H516 0.950 . S
C542 C538 1.385 . S
C542 C541 1.374 . S
C543 C540 1.499 . S
C543 C544 1.373 . S
C543 C545 1.389 . S
C544 H517 0.950 . S
C544 C530 1.377 . S
C544 C543 1.373 . S
C545 C529 1.377 . S
C545 C543 1.389 . S
C545 C546 1.524 . S
C546 C545 1.524 . S
C546 C547 1.397 . S
C546 C551 1.363 . S
C547 H518 0.950 . S
C547 C546 1.397 . S
C547 C548 1.334 . S
C548 H519 0.950 . S
C548 C547 1.334 . S
C548 C549 1.287 . S
C549 C548 1.287 . S
C549 C550 1.524 . S
C549 H552 0.999 . S
C550 H520 0.950 . S
C550 C549 1.524 . S
C550 C551 1.415 . S
C551 H521 0.950 . S
C551 C546 1.363 . S
C551 C550 1.415 . S
H552 C549 0.999 . S
H553 C534 0.913 . S
H554 C572 0.951 . S
H555 C574 0.951 . S
H556 C576 0.950 . S
H557 C577 0.950 . S
H558 C579 0.950 . S
H559 C582 0.950 . S
H560 C583 0.950 . S
H561 C585 0.950 . S
H562 C586 0.950 . S
H563 C587 0.951 . S
H564 C589 0.951 . S
H565 C591 0.950 . S
H566 C592 0.950 . S
H567 C594 0.950 . S
H568 C597 0.950 . S
H569 C598 0.950 . S
H570 C600 0.950 . S
H571 C601 0.950 . S
C572 H554 0.951 . S
C572 C573 1.366 . S
C572 C574 1.388 . S
C573 C572 1.366 . S
C573 C577 1.385 . S
C574 H555 0.951 . S
C574 C572 1.388 . S
C574 C575 1.366 . S
C575 C574 1.366 . S
C575 C576 1.414 . S
C575 C578 1.499 . S
C576 H556 0.950 . S
C576 C575 1.414 . S
C576 C577 1.374 . S
C577 H557 0.950 . S
C577 C573 1.385 . S
C577 C576 1.374 . S
C578 C575 1.499 . S
C578 C579 1.373 . S
C578 C580 1.389 . S
C579 H558 0.950 . S
C579 C578 1.373 . S
C579 C595 1.377 . S
C580 C578 1.389 . S
C580 C581 1.524 . S
C580 C594 1.377 . S
C581 C580 1.524 . S
C581 C582 1.397 . S
C581 C586 1.363 . S
C582 H559 0.950 . S
C582 C581 1.397 . S
C582 C583 1.334 . S
C583 H560 0.950 . S
C583 C582 1.334 . S
C583 C584 1.287 . S
C584 C583 1.287 . S
C584 C585 1.524 . S
C584 H603 0.913 1_565 S
C585 H561 0.950 . S
C585 C584 1.524 . S
C585 C586 1.415 . S
C586 H562 0.950 . S
C586 C581 1.363 . S
C586 C585 1.415 . S
C587 H563 0.951 . S
C587 C588 1.366 . S
C587 C589 1.388 . S
C588 C587 1.366 . S
C588 C592 1.385 . S
C589 H564 0.951 . S
C589 C587 1.388 . S
C589 C590 1.366 . S
C590 C589 1.366 . S
C590 C591 1.414 . S
C590 C593 1.499 . S
C591 H565 0.950 . S
C591 C590 1.414 . S
C591 C592 1.374 . S
C592 H566 0.950 . S
C592 C588 1.385 . S
C592 C591 1.374 . S
C593 C590 1.499 . S
C593 C594 1.373 . S
C593 C595 1.389 . S
C594 H567 0.950 . S
C594 C580 1.377 . S
C594 C593 1.373 . S
C595 C579 1.377 . S
C595 C593 1.389 . S
C595 C596 1.524 . S
C596 C595 1.524 . S
C596 C597 1.397 . S
C596 C601 1.363 . S
C597 H568 0.950 . S
C597 C596 1.397 . S
C597 C598 1.334 . S
C598 H569 0.950 . S
C598 C597 1.334 . S
C598 C599 1.287 . S
C599 C598 1.287 . S
C599 C600 1.524 . S
C599 H602 0.999 . S
C600 H570 0.950 . S
C600 C599 1.524 . S
C600 C601 1.415 . S
C601 H571 0.950 . S
C601 C596 1.363 . S
C601 C600 1.415 . S
H602 C599 0.999 . S
H603 C584 0.913 1_545 S
H604 C622 0.951 . S
H605 C624 0.951 . S
H606 C626 0.950 . S
H607 C627 0.950 . S
H608 C629 0.950 . S
H609 C632 0.950 . S
H610 C633 0.950 . S
H611 C635 0.950 . S
H612 C636 0.950 . S
H613 C637 0.951 . S
H614 C639 0.951 . S
H615 C641 0.950 . S
H616 C642 0.950 . S
H617 C644 0.950 . S
H618 C647 0.950 . S
H619 C648 0.951 1_565 S
H620 C650 0.950 . S
H621 C651 0.950 . S
C622 H604 0.951 . S
C622 C623 1.366 . S
C622 C624 1.388 . S
C623 C622 1.366 . S
C623 C627 1.385 1_554 S
C624 H605 0.951 . S
C624 C622 1.388 . S
C624 C625 1.366 . S
C625 C624 1.366 . S
C625 C626 1.414 1_554 S
C625 C628 1.499 . S
C626 H606 0.950 . S
C626 C625 1.414 1_556 S
C626 C627 1.374 . S
C627 H607 0.950 . S
C627 C623 1.385 1_556 S
C627 C626 1.374 . S
C628 C625 1.499 . S
C628 C629 1.373 1_554 S
C628 C630 1.389 . S
C629 H608 0.950 . S
C629 C628 1.373 1_556 S
C629 C645 1.377 . S
C630 C628 1.389 . S
C630 C631 1.524 . S
C630 C644 1.377 . S
C631 C630 1.524 . S
C631 C632 1.397 1_554 S
C631 C636 1.363 . S
C632 H609 0.950 . S
C632 C631 1.397 1_556 S
C632 C633 1.334 . S
C633 H610 0.950 . S
C633 C632 1.334 . S
C633 C634 1.287 1_556 S
C634 C633 1.287 1_554 S
C634 C635 1.524 . S
C634 H653 0.913 . S
C635 H611 0.950 . S
C635 C634 1.524 . S
C635 C636 1.415 . S
C636 H612 0.950 . S
C636 C631 1.363 . S
C636 C635 1.415 . S
C637 H613 0.951 . S
C637 C638 1.366 . S
C637 C639 1.388 . S
C638 C637 1.366 . S
C638 C642 1.385 1_556 S
C639 H614 0.951 . S
C639 C637 1.388 . S
C639 C640 1.366 . S
C640 C639 1.366 . S
C640 C641 1.414 1_556 S
C640 C643 1.499 . S
C641 H615 0.950 . S
C641 C640 1.414 1_554 S
C641 C642 1.374 . S
C642 H616 0.950 . S
C642 C638 1.385 1_554 S
C642 C641 1.374 . S
C643 C640 1.499 . S
C643 C644 1.373 1_556 S
C643 C645 1.389 . S
C644 H617 0.950 . S
C644 C630 1.377 . S
C644 C643 1.373 1_554 S
C645 C629 1.377 . S
C645 C643 1.389 . S
C645 C646 1.524 . S
C646 C645 1.524 . S
C646 C647 1.397 1_556 S
C646 C651 1.363 . S
C647 H618 0.950 . S
C647 C646 1.397 1_554 S
C647 C648 1.334 . S
C648 H619 0.951 1_545 S
C648 C647 1.334 . S
C648 C649 1.287 1_554 S
C649 C648 1.287 1_556 S
C649 C650 1.524 . S
C649 H652 0.999 1_545 S
C650 H620 0.950 . S
C650 C649 1.524 . S
C650 C651 1.415 . S
C651 H621 0.950 . S
C651 C646 1.363 . S
C651 C650 1.415 . S
H652 C649 0.999 1_565 S
H653 C634 0.913 . S
H654 C672 0.951 . S
H655 C674 0.951 . S
H656 C676 0.950 . S
H657 C677 0.950 . S
H658 C679 0.950 . S
H659 C682 0.950 . S
H660 C683 0.950 . S
H661 C685 0.950 . S
H662 C686 0.950 . S
H663 C687 0.951 . S
H664 C689 0.951 . S
H665 C691 0.950 . S
H666 C692 0.950 . S
H667 C694 0.950 . S
H668 C697 0.950 . S
H669 C698 0.950 . S
H670 C700 0.950 . S
H671 C701 0.950 . S
C672 H654 0.951 . S
C672 C673 1.366 . S
C672 C674 1.388 . S
C673 C672 1.366 . S
C673 C677 1.385 . S
C674 H655 0.951 . S
C674 C672 1.388 . S
C674 C675 1.366 . S
C675 C674 1.366 . S
C675 C676 1.414 . S
C675 C678 1.499 . S
C676 H656 0.950 . S
C676 C675 1.414 . S
C676 C677 1.374 . S
C677 H657 0.950 . S
C677 C673 1.385 . S
C677 C676 1.374 . S
C678 C675 1.499 . S
C678 C679 1.373 . S
C678 C680 1.389 . S
C679 H658 0.950 . S
C679 C678 1.373 . S
C679 C695 1.377 . S
C680 C678 1.389 . S
C680 C681 1.524 . S
C680 C694 1.377 . S
C681 C680 1.524 . S
C681 C682 1.397 . S
C681 C686 1.363 . S
C682 H659 0.950 . S
C682 C681 1.397 . S
C682 C683 1.334 . S
C683 H660 0.950 . S
C683 C682 1.334 . S
C683 C684 1.287 . S
C684 C683 1.287 . S
C684 C685 1.524 . S
C684 H703 0.913 1_655 S
C685 H661 0.950 . S
C685 C684 1.524 . S
C685 C686 1.415 . S
C686 H662 0.950 . S
C686 C681 1.363 . S
C686 C685 1.415 . S
C687 H663 0.951 . S
C687 C688 1.366 . S
C687 C689 1.388 . S
C688 C687 1.366 . S
C688 C692 1.385 . S
C689 H664 0.951 . S
C689 C687 1.388 . S
C689 C690 1.366 . S
C690 C689 1.366 . S
C690 C691 1.414 . S
C690 C693 1.499 . S
C691 H665 0.950 . S
C691 C690 1.414 . S
C691 C692 1.374 . S
C692 H666 0.950 . S
C692 C688 1.385 . S
C692 C691 1.374 . S
C693 C690 1.499 . S
C693 C694 1.373 . S
C693 C695 1.389 . S
C694 H667 0.950 . S
C694 C680 1.377 . S
C694 C693 1.373 . S
C695 C679 1.377 . S
C695 C693 1.389 . S
C695 C696 1.524 . S
C696 C695 1.524 . S
C696 C697 1.397 . S
C696 C701 1.363 . S
C697 H668 0.950 . S
C697 C696 1.397 . S
C697 C698 1.334 . S
C698 H669 0.950 . S
C698 C697 1.334 . S
C698 C699 1.287 . S
C699 C698 1.287 . S
C699 C700 1.524 . S
C699 H702 0.999 . S
C700 H670 0.950 . S
C700 C699 1.524 . S
C700 C701 1.415 . S
C701 H671 0.950 . S
C701 C696 1.363 . S
C701 C700 1.415 . S
H702 C699 0.999 . S
H703 C684 0.913 1_455 S
H704 C722 0.951 . S
H705 C724 0.951 . S
H706 C726 0.950 . S
H707 C727 0.950 . S
H708 C729 0.950 . S
H709 C732 0.950 . S
H710 C733 0.950 . S
H711 C735 0.950 . S
H712 C736 0.950 . S
H713 C737 0.951 . S
H714 C739 0.951 . S
H715 C741 0.950 . S
H716 C742 0.950 . S
H717 C744 0.950 . S
H718 C747 0.950 . S
H719 C748 0.950 . S
H720 C750 0.950 . S
H721 C751 0.950 . S
C722 H704 0.951 . S
C722 C723 1.366 . S
C722 C724 1.388 . S
C723 C722 1.366 . S
C723 C727 1.385 . S
C724 H705 0.951 . S
C724 C722 1.388 . S
C724 C725 1.366 . S
C725 C724 1.366 . S
C725 C726 1.414 . S
C725 C728 1.499 . S
C726 H706 0.950 . S
C726 C725 1.414 . S
C726 C727 1.374 . S
C727 H707 0.950 . S
C727 C723 1.385 . S
C727 C726 1.374 . S
C728 C725 1.499 . S
C728 C729 1.373 . S
C728 C730 1.389 . S
C729 H708 0.950 . S
C729 C728 1.373 . S
C729 C745 1.377 . S
C730 C728 1.389 . S
C730 C731 1.524 . S
C730 C744 1.377 . S
C731 C730 1.524 . S
C731 C732 1.397 . S
C731 C736 1.363 . S
C732 H709 0.950 . S
C732 C731 1.397 . S
C732 C733 1.334 . S
C733 H710 0.950 . S
C733 C732 1.334 . S
C733 C734 1.287 . S
C734 C733 1.287 . S
C734 C735 1.524 . S
C734 H753 0.913 . S
C735 H711 0.950 . S
C735 C734 1.524 . S
C735 C736 1.415 . S
C736 H712 0.950 . S
C736 C731 1.363 . S
C736 C735 1.415 . S
C737 H713 0.951 . S
C737 C738 1.366 . S
C737 C739 1.388 . S
C738 C737 1.366 . S
C738 C742 1.385 . S
C739 H714 0.951 . S
C739 C737 1.388 . S
C739 C740 1.366 . S
C740 C739 1.366 . S
C740 C741 1.414 . S
C740 C743 1.499 . S
C741 H715 0.950 . S
C741 C740 1.414 . S
C741 C742 1.374 . S
C742 H716 0.950 . S
C742 C738 1.385 . S
C742 C741 1.374 . S
C743 C740 1.499 . S
C743 C744 1.373 . S
C743 C745 1.389 . S
C744 H717 0.950 . S
C744 C730 1.377 . S
C744 C743 1.373 . S
C745 C729 1.377 . S
C745 C743 1.389 . S
C745 C746 1.524 . S
C746 C745 1.524 . S
C746 C747 1.397 . S
C746 C751 1.363 . S
C747 H718 0.950 . S
C747 C746 1.397 . S
C747 C748 1.334 . S
C748 H719 0.950 . S
C748 C747 1.334 . S
C748 C749 1.287 . S
C749 C748 1.287 . S
C749 C750 1.524 . S
C749 H752 0.999 . S
C750 H720 0.950 . S
C750 C749 1.524 . S
C750 C751 1.415 . S
C751 H721 0.950 . S
C751 C746 1.363 . S
C751 C750 1.415 . S
H752 C749 0.999 . S
H753 C734 0.913 . S
H754 C772 0.951 . S
H755 C774 0.951 . S
H756 C776 0.950 . S
H757 C777 0.950 . S
H758 C779 0.950 . S
H759 C782 0.950 . S
H760 C783 0.950 . S
H761 C785 0.950 . S
H762 C786 0.950 . S
H763 C787 0.951 . S
H764 C789 0.951 . S
H765 C791 0.950 . S
H766 C792 0.950 . S
H767 C794 0.950 . S
H768 C797 0.950 . S
H769 C798 0.950 . S
H770 C800 0.950 . S
H771 C801 0.950 . S
C772 H754 0.951 . S
C772 C773 1.366 . S
C772 C774 1.388 . S
C773 C772 1.366 . S
C773 C777 1.385 . S
C774 H755 0.951 . S
C774 C772 1.388 . S
C774 C775 1.366 . S
C775 C774 1.366 . S
C775 C776 1.414 . S
C775 C778 1.499 . S
C776 H756 0.950 . S
C776 C775 1.414 . S
C776 C777 1.374 . S
C777 H757 0.950 . S
C777 C773 1.385 . S
C777 C776 1.374 . S
C778 C775 1.499 . S
C778 C779 1.373 . S
C778 C780 1.389 1_556 S
C779 H758 0.950 . S
C779 C778 1.373 . S
C779 C795 1.377 . S
C780 C778 1.389 1_554 S
C780 C781 1.524 . S
C780 C794 1.377 . S
C781 C780 1.524 . S
C781 C782 1.397 . S
C781 C786 1.363 . S
C782 H759 0.950 . S
C782 C781 1.397 . S
C782 C783 1.334 . S
C783 H760 0.950 . S
C783 C782 1.334 . S
C783 C784 1.287 . S
C784 C783 1.287 . S
C784 C785 1.524 . S
C784 H803 0.913 . S
C785 H761 0.950 . S
C785 C784 1.524 . S
C785 C786 1.415 . S
C786 H762 0.950 . S
C786 C781 1.363 . S
C786 C785 1.415 . S
C787 H763 0.951 . S
C787 C788 1.366 . S
C787 C789 1.388 . S
C788 C787 1.366 . S
C788 C792 1.385 . S
C789 H764 0.951 . S
C789 C787 1.388 . S
C789 C790 1.366 . S
C790 C789 1.366 . S
C790 C791 1.414 . S
C790 C793 1.499 . S
C791 H765 0.950 . S
C791 C790 1.414 . S
C791 C792 1.374 . S
C792 H766 0.950 . S
C792 C788 1.385 . S
C792 C791 1.374 . S
C793 C790 1.499 . S
C793 C794 1.373 . S
C793 C795 1.389 1_554 S
C794 H767 0.950 . S
C794 C780 1.377 . S
C794 C793 1.373 . S
C795 C779 1.377 . S
C795 C793 1.389 1_556 S
C795 C796 1.524 . S
C796 C795 1.524 . S
C796 C797 1.397 . S
C796 C801 1.363 . S
C797 H768 0.950 . S
C797 C796 1.397 . S
C797 C798 1.334 . S
C798 H769 0.950 . S
C798 C797 1.334 . S
C798 C799 1.287 . S
C799 C798 1.287 . S
C799 C800 1.524 . S
C799 H802 0.999 . S
C800 H770 0.950 . S
C800 C799 1.524 . S
C800 C801 1.415 . S
C801 H771 0.950 . S
C801 C796 1.363 . S
C801 C800 1.415 . S
H802 C799 0.999 . S
H803 C784 0.913 . S
H804 C822 0.951 . S
H805 C824 0.951 . S
H806 C826 0.950 . S
H807 C827 0.950 . S
H808 C829 0.950 . S
H809 C832 0.950 . S
H810 C833 0.950 . S
H811 C835 0.950 . S
H812 C836 0.950 . S
H813 C837 0.951 . S
H814 C839 0.951 . S
H815 C841 0.950 . S
H816 C842 0.950 . S
H817 C844 0.950 . S
H818 C847 0.950 . S
H819 C848 0.950 . S
H820 C850 0.950 . S
H821 C851 0.950 . S
C822 H804 0.951 . S
C822 C823 1.366 . S
C822 C824 1.388 . S
C823 C822 1.366 . S
C823 C827 1.385 . S
C824 H805 0.951 . S
C824 C822 1.388 . S
C824 C825 1.366 . S
C825 C824 1.366 . S
C825 C826 1.414 . S
C825 C828 1.499 . S
C826 H806 0.950 . S
C826 C825 1.414 . S
C826 C827 1.374 . S
C827 H807 0.950 . S
C827 C823 1.385 . S
C827 C826 1.374 . S
C828 C825 1.499 . S
C828 C829 1.373 . S
C828 C830 1.389 . S
C829 H808 0.950 . S
C829 C828 1.373 . S
C829 C845 1.377 . S
C830 C828 1.389 . S
C830 C831 1.524 . S
C830 C844 1.377 . S
C831 C830 1.524 . S
C831 C832 1.397 . S
C831 C836 1.363 . S
C832 H809 0.950 . S
C832 C831 1.397 . S
C832 C833 1.334 . S
C833 H810 0.950 . S
C833 C832 1.334 . S
C833 C834 1.289 . S
C834 C833 1.289 . S
C834 C835 1.523 1_554 S
C834 H853 0.911 1_554 S
C835 H811 0.950 . S
C835 C834 1.523 1_556 S
C835 C836 1.415 1_556 S
C836 H812 0.950 . S
C836 C831 1.363 . S
C836 C835 1.415 1_554 S
C837 H813 0.951 . S
C837 C838 1.366 . S
C837 C839 1.388 . S
C838 C837 1.366 . S
C838 C842 1.385 . S
C839 H814 0.951 . S
C839 C837 1.388 . S
C839 C840 1.366 . S
C840 C839 1.366 . S
C840 C841 1.414 . S
C840 C843 1.499 . S
C841 H815 0.950 . S
C841 C840 1.414 . S
C841 C842 1.374 . S
C842 H816 0.950 . S
C842 C838 1.385 . S
C842 C841 1.374 . S
C843 C840 1.499 . S
C843 C844 1.373 . S
C843 C845 1.389 . S
C844 H817 0.950 . S
C844 C830 1.377 . S
C844 C843 1.373 . S
C845 C829 1.377 . S
C845 C843 1.389 . S
C845 C846 1.524 . S
C846 C845 1.524 . S
C846 C847 1.397 . S
C846 C851 1.363 . S
C847 H818 0.950 . S
C847 C846 1.397 . S
C847 C848 1.334 . S
C848 H819 0.950 . S
C848 C847 1.334 . S
C848 C849 1.287 . S
C849 C848 1.287 . S
C849 C850 1.524 . S
C849 H852 0.999 . S
C850 H820 0.950 . S
C850 C849 1.524 . S
C850 C851 1.415 . S
C851 H821 0.950 . S
C851 C846 1.363 . S
C851 C850 1.415 . S
H852 C849 0.999 . S
H853 C834 0.911 1_556 S
H854 C872 0.951 . S
H855 C874 0.951 . S
H856 C876 0.950 . S
H857 C877 0.950 . S
H858 C879 0.950 . S
H859 C882 0.950 . S
H860 C883 0.950 . S
H861 C885 0.950 . S
H862 C886 0.950 . S
H863 C887 0.951 . S
H864 C889 0.951 . S
H865 C891 0.950 . S
H866 C892 0.950 . S
H867 C894 0.950 . S
H868 C897 0.950 . S
H869 C898 0.950 . S
H870 C900 0.950 . S
H871 C901 0.950 . S
C872 H854 0.951 . S
C872 C873 1.366 . S
C872 C874 1.388 . S
C873 C872 1.366 . S
C873 C877 1.385 . S
C874 H855 0.951 . S
C874 C872 1.388 . S
C874 C875 1.366 . S
C875 C874 1.366 . S
C875 C876 1.414 . S
C875 C878 1.499 . S
C876 H856 0.950 . S
C876 C875 1.414 . S
C876 C877 1.374 . S
C877 H857 0.950 . S
C877 C873 1.385 . S
C877 C876 1.374 . S
C878 C875 1.499 . S
C878 C879 1.373 . S
C878 C880 1.389 . S
C879 H858 0.950 . S
C879 C878 1.373 . S
C879 C895 1.377 . S
C880 C878 1.389 . S
C880 C881 1.524 . S
C880 C894 1.377 . S
C881 C880 1.524 . S
C881 C882 1.397 . S
C881 C886 1.363 . S
C882 H859 0.950 . S
C882 C881 1.397 . S
C882 C883 1.334 . S
C883 H860 0.950 . S
C883 C882 1.334 . S
C883 C884 1.287 . S
C884 C883 1.287 . S
C884 C885 1.524 . S
C884 H903 0.913 . S
C885 H861 0.950 . S
C885 C884 1.524 . S
C885 C886 1.415 . S
C886 H862 0.950 . S
C886 C881 1.363 . S
C886 C885 1.415 . S
C887 H863 0.951 . S
C887 C888 1.366 . S
C887 C889 1.388 . S
C888 C887 1.366 . S
C888 C892 1.385 . S
C889 H864 0.951 . S
C889 C887 1.388 . S
C889 C890 1.366 . S
C890 C889 1.366 . S
C890 C891 1.414 . S
C890 C893 1.499 . S
C891 H865 0.950 . S
C891 C890 1.414 . S
C891 C892 1.374 . S
C892 H866 0.950 . S
C892 C888 1.385 . S
C892 C891 1.374 . S
C893 C890 1.499 . S
C893 C894 1.373 . S
C893 C895 1.389 . S
C894 H867 0.950 . S
C894 C880 1.377 . S
C894 C893 1.373 . S
C895 C879 1.377 . S
C895 C893 1.389 . S
C895 C896 1.524 . S
C896 C895 1.524 . S
C896 C897 1.397 . S
C896 C901 1.363 . S
C897 H868 0.950 . S
C897 C896 1.397 . S
C897 C898 1.334 . S
C898 H869 0.950 . S
C898 C897 1.334 . S
C898 C899 1.287 . S
C899 C898 1.287 . S
C899 C900 1.524 . S
C899 H902 0.999 . S
C900 H870 0.950 . S
C900 C899 1.524 . S
C900 C901 1.415 . S
C901 H871 0.950 . S
C901 C896 1.363 . S
C901 C900 1.415 . S
H902 C899 0.999 . S
H903 C884 0.913 . S
C123 C23 1.466 . S
C138 C10 1.466 . S
C173 C18 1.466 . S
C188 C36 1.466 1_554 S
C223 C42 1.466 . S
C238 C31 1.466 . S
C273 C43 1.466 1_556 S
C288 C5 1.466 . S
C323 C62 1.466 . S
C338 C75 1.466 . S
C373 C70 1.466 1_556 S
C388 C88 1.466 . S
C423 C83 1.466 . S
C438 C94 1.466 . S
C473 C57 1.466 1_554 S
C488 C95 1.466 . S
C523 C4 1.509 . S
C538 C96 1.507 . S
C573 C55 1.515 . S
C588 C16 1.515 . S
C623 C69 1.509 . S
C638 C29 1.506 . S
C673 C49 1.500 . S
C688 C82 1.500 . S
C723 C30 1.500 . S
C738 C101 1.500 . S
C773 C56 1.509 . S
C788 C44 1.506 . S
C823 C68 1.515 . S
C838 C3 1.515 . S
C873 C17 1.509 . S
C888 C81 1.506 . S
