# Generated by pormake.
# Topology mok, (4)-cn, num edge types: 1
# Building blocks:
#     Node 0, Type 0, BuildingBlock: GALJAG_clean_sbu_0, # of connection points: 4
#     Node 1, Type 0, BuildingBlock: GALJAG_clean_sbu_0, # of connection points: 4
#     Node 2, Type 0, BuildingBlock: GALJAG_clean_sbu_0, # of connection points: 4
#     Node 3, Type 0, BuildingBlock: GALJAG_clean_sbu_0, # of connection points: 4
#     Node 4, Type 0, BuildingBlock: GALJAG_clean_sbu_0, # of connection points: 4
#     Node 5, Type 0, BuildingBlock: GALJAG_clean_sbu_0, # of connection points: 4
#     Node 6, Type 0, BuildingBlock: GALJAG_clean_sbu_0, # of connection points: 4
#     Node 7, Type 0, BuildingBlock: GALJAG_clean_sbu_0, # of connection points: 4
#     Edge 8, Type (0, 0), BuildingBlock: EZIPEK_clean_linker_0, # of connection points: 2
#     Edge 9, Type (0, 0), BuildingBlock: EZIPEK_clean_linker_0, # of connection points: 2
#     Edge 10, Type (0, 0), BuildingBlock: EZIPEK_clean_linker_0, # of connection points: 2
#     Edge 11, Type (0, 0), BuildingBlock: EZIPEK_clean_linker_0, # of connection points: 2
#     Edge 12, Type (0, 0), BuildingBlock: EZIPEK_clean_linker_0, # of connection points: 2
#     Edge 13, Type (0, 0), BuildingBlock: EZIPEK_clean_linker_0, # of connection points: 2
#     Edge 14, Type (0, 0), BuildingBlock: EZIPEK_clean_linker_0, # of connection points: 2
#     Edge 15, Type (0, 0), BuildingBlock: EZIPEK_clean_linker_0, # of connection points: 2
#     Edge 16, Type (0, 0), BuildingBlock: EZIPEK_clean_linker_0, # of connection points: 2
#     Edge 17, Type (0, 0), BuildingBlock: EZIPEK_clean_linker_0, # of connection points: 2
#     Edge 18, Type (0, 0), BuildingBlock: EZIPEK_clean_linker_0, # of connection points: 2
#     Edge 19, Type (0, 0), BuildingBlock: EZIPEK_clean_linker_0, # of connection points: 2
#     Edge 20, Type (0, 0), BuildingBlock: EZIPEK_clean_linker_0, # of connection points: 2
#     Edge 21, Type (0, 0), BuildingBlock: EZIPEK_clean_linker_0, # of connection points: 2
#     Edge 22, Type (0, 0), BuildingBlock: EZIPEK_clean_linker_0, # of connection points: 2
#     Edge 23, Type (0, 0), BuildingBlock: EZIPEK_clean_linker_0, # of connection points: 2
# Relax obj value: 0.070
# Max RMSD: 0.103
# Mean RMSD: 0.103
data_MOF--net-mok--node1-GALJAG_clean_sbu_0--edge1-EZIPEK_clean_linker_0
_symmetry_space_group_name_H-M    P1
_symmetry_Int_Tables_number       1
_symmetry_cell_setting            triclinic
loop_
_symmetry_equiv_pos_as_xyz
'x, y, z'
_cell_length_a     40.102238
_cell_length_b     10.186604
_cell_length_c     20.829059
_cell_angle_alpha  90.010937
_cell_angle_beta   89.931519
_cell_angle_gamma 90.03686
loop_
_atom_site_label
_atom_site_type_symbol
_atom_site_fract_x
_atom_site_fract_y
_atom_site_fract_z
_atom_type_partial_charge
In0 In 0.60721 0.31385 0.03283 0.0
O1 O 0.60272 0.48205 0.96102 0.0
O2 O 0.60562 0.28511 0.9258 0.0
C3 C 0.60167 0.40365 0.15285 0.0
C4 C 0.55259 0.16492 0.0308 0.0
C5 C 0.6732 0.27653 0.02959 0.0
O6 O 0.59524 0.47595 0.10487 0.0
O7 O 0.61011 0.28726 0.14007 0.0
O8 O 0.65291 0.18186 0.02366 0.0
O9 O 0.66014 0.38768 0.03831 0.0
C10 C 0.60378 0.40585 0.91285 0.0
O11 O 0.5813 0.11636 0.03995 0.0
O12 O 0.5516 0.28797 0.02349 0.0
In13 In 0.38432 0.67393 -0.00034 0.0
O14 O 0.40615 0.87817 0.01079 0.0
O15 O 0.43941 0.71376 0.00471 0.0
C16 C 0.31777 0.69436 0.00438 0.0
C17 C 0.39164 0.61653 0.87499 0.0
C18 C 0.39298 0.55758 0.11293 0.0
O19 O 0.33657 0.79412 0.00736 0.0
O20 O 0.33254 0.58561 0.99878 0.0
O21 O 0.39856 0.49666 0.06094 0.0
O22 O 0.38329 0.67474 0.10738 0.0
C23 C 0.43592 0.83645 0.01031 0.0
O24 O 0.39416 0.5294 0.91815 0.0
O25 O 0.38599 0.73121 0.89503 0.0
In26 In 0.61408 0.69052 0.53218 0.0
O27 O 0.59959 0.52906 0.60276 0.0
O28 O 0.61688 0.71206 0.64013 0.0
C29 C 0.60931 0.58769 0.41447 0.0
C30 C 0.56059 0.8466 0.52739 0.0
C31 C 0.68016 0.72947 0.53081 0.0
O32 O 0.6064 0.51731 0.46431 0.0
O33 O 0.61486 0.70799 0.42439 0.0
O34 O 0.65979 0.82423 0.52814 0.0
O35 O 0.66722 0.61677 0.53421 0.0
C36 C 0.60646 0.59772 0.65164 0.0
O37 O 0.58959 0.89207 0.53657 0.0
O38 O 0.5588 0.72375 0.5209 0.0
In39 In 0.3895 0.32389 0.49983 0.0
O40 O 0.41363 0.12328 0.50943 0.0
O41 O 0.44515 0.29222 0.50193 0.0
C42 C 0.32363 0.28283 0.50601 0.0
C43 C 0.39631 0.44542 0.6126 0.0
C44 C 0.3944 0.39166 0.37613 0.0
O45 O 0.34435 0.18942 0.509 0.0
O46 O 0.33609 0.39588 0.49962 0.0
O47 O 0.39925 0.474 0.42069 0.0
O48 O 0.38731 0.27676 0.39406 0.0
C49 C 0.44294 0.16925 0.50774 0.0
O50 O 0.40083 0.50571 0.56012 0.0
O51 O 0.3888 0.32563 0.60781 0.0
In52 In 0.1095 0.80522 0.01796 0.0
O53 O 0.08354 0.60738 0.02128 0.0
O54 O 0.05361 0.78152 0.0193 0.0
C55 C 0.17487 0.75416 0.01784 0.0
C56 C 0.10484 0.88656 0.89625 0.0
C57 C 0.10471 0.91595 0.13403 0.0
O58 O 0.15342 0.66436 0.02551 0.0
O59 O 0.16336 0.86844 0.01075 0.0
O60 O 0.09953 0.98111 0.08326 0.0
O61 O 0.11193 0.79668 0.12603 0.0
C62 C 0.05472 0.65776 0.02058 0.0
O63 O 0.10263 0.96585 0.94294 0.0
O64 O 0.1089 0.76766 0.91123 0.0
In65 In 0.88285 0.18576 0.02788 0.0
O66 O 0.89661 0.01735 0.96099 0.0
O67 O 0.88168 0.20133 0.92011 0.0
C68 C 0.88916 0.1035 0.14909 0.0
C69 C 0.93532 0.34496 0.02432 0.0
C70 C 0.81653 0.21496 0.02861 0.0
O71 O 0.8905 0.02441 0.1022 0.0
O72 O 0.88522 0.2225 0.13441 0.0
O73 O 0.83609 0.3123 0.03227 0.0
O74 O 0.83045 0.10455 0.02322 0.0
C75 C 0.89117 0.08475 0.91097 0.0
O76 O 0.90584 0.38902 0.02111 0.0
O77 O 0.93813 0.22183 0.02858 0.0
In78 In 0.11427 0.17674 0.51822 0.0
O79 O 0.10043 0.00434 0.58333 0.0
O80 O 0.11525 0.18625 0.62621 0.0
C81 C 0.10932 0.09562 0.39642 0.0
C82 C 0.06097 0.33386 0.52312 0.0
C83 C 0.18056 0.21336 0.51693 0.0
O84 O 0.1069 0.01605 0.44305 0.0
O85 O 0.11389 0.21419 0.41164 0.0
O86 O 0.16036 0.30707 0.50797 0.0
O87 O 0.16727 0.10324 0.52759 0.0
C88 C 0.10594 0.06914 0.63421 0.0
O89 O 0.08974 0.37346 0.53907 0.0
O90 O 0.05939 0.21629 0.50433 0.0
In91 In 0.88974 0.81778 0.52871 0.0
O92 O 0.91523 0.61908 0.5209 0.0
O93 O 0.94546 0.78925 0.53576 0.0
C94 C 0.82369 0.77969 0.52991 0.0
C95 C 0.89394 0.90553 0.64899 0.0
C96 C 0.8948 0.91919 0.41074 0.0
O97 O 0.84395 0.68449 0.5266 0.0
O98 O 0.83677 0.89224 0.53285 0.0
O99 O 0.9019 0.98599 0.46017 0.0
O100 O 0.88563 0.80277 0.42107 0.0
C101 C 0.9442 0.66659 0.52775 0.0
O102 O 0.89804 0.98146 0.60141 0.0
O103 O 0.88805 0.78683 0.63558 0.0
C104 C 0.76031 0.1616 0.07532 0.0
C105 C 0.77981 0.22914 0.02871 0.0
C106 C 0.72943 0.32763 0.98276 0.0
C107 C 0.70982 0.25893 0.02874 0.0
N108 N 0.70623 0.13038 0.1257 0.0
N109 N 0.78294 0.35181 0.92988 0.0
C110 C 0.72512 0.17973 0.07644 0.0
C111 C 0.76442 0.30645 0.98052 0.0
N112 N 0.77542 0.07887 0.1181 0.0
N113 N 0.71477 0.41572 0.94204 0.0
H114 H 0.8085 0.33547 0.92525 0.0
H115 H 0.77271 0.39488 0.88912 0.0
H116 H 0.68914 0.43063 0.93947 0.0
H117 H 0.72808 0.48158 0.91367 0.0
H118 H 0.76264 0.01331 0.14745 0.0
H119 H 0.80117 0.06966 0.12239 0.0
H120 H 0.71598 0.08449 0.16611 0.0
H121 H 0.68055 0.14415 0.12932 0.0
C122 C 0.23147 0.78395 0.06591 0.0
C123 C 0.21111 0.72896 0.0171 0.0
C124 C 0.26067 0.65137 0.95955 0.0
C125 C 0.28102 0.70314 0.00934 0.0
N126 N 0.28587 0.79124 0.11644 0.0
N127 N 0.20521 0.59486 0.92225 0.0
C128 C 0.26646 0.76237 0.06429 0.0
C129 C 0.22538 0.65707 0.96561 0.0
N130 N 0.21732 0.85694 0.11389 0.0
N131 N 0.27507 0.60273 0.90493 0.0
H132 H 0.17931 0.60334 0.92236 0.0
H133 H 0.21385 0.52774 0.88844 0.0
H134 H 0.30072 0.5936 0.89898 0.0
H135 H 0.26185 0.57947 0.86349 0.0
H136 H 0.23101 0.91424 0.14579 0.0
H137 H 0.19161 0.86577 0.1201 0.0
H138 H 0.27632 0.82162 0.16048 0.0
H139 H 0.31145 0.77314 0.11796 0.0
C140 C 0.77083 0.70049 0.58142 0.0
C141 C 0.78705 0.7627 0.529 0.0
C142 C 0.73303 0.80275 0.47704 0.0
C143 C 0.71677 0.74751 0.53123 0.0
N144 N 0.71912 0.66382 0.63939 0.0
N145 N 0.78435 0.88217 0.42901 0.0
C146 C 0.73539 0.70108 0.58452 0.0
C147 C 0.76833 0.81707 0.47756 0.0
N148 N 0.78929 0.64126 0.62839 0.0
N149 N 0.71489 0.83547 0.4238 0.0
H150 H 0.81023 0.88408 0.42408 0.0
H151 H 0.77217 0.93942 0.39496 0.0
H152 H 0.68897 0.82912 0.42187 0.0
H153 H 0.72544 0.86071 0.37984 0.0
H154 H 0.77913 0.58075 0.6636 0.0
H155 H 0.81524 0.64545 0.63018 0.0
H156 H 0.7311 0.64205 0.68237 0.0
H157 H 0.69322 0.66568 0.64404 0.0
C158 C 0.23324 0.31507 0.55919 0.0
C159 C 0.21726 0.23011 0.51468 0.0
C160 C 0.27103 0.18445 0.46276 0.0
C161 C 0.28719 0.2622 0.50979 0.0
N162 N 0.28509 0.38329 0.60919 0.0
N163 N 0.2214 0.06703 0.43042 0.0
C164 C 0.26867 0.32328 0.55962 0.0
C165 C 0.23631 0.15918 0.4686 0.0
N166 N 0.21462 0.38674 0.60165 0.0
N167 N 0.28849 0.14038 0.41055 0.0
H168 H 0.19585 0.04918 0.43012 0.0
H169 H 0.23468 0.00112 0.40201 0.0
H170 H 0.31394 0.15687 0.40421 0.0
H171 H 0.27731 0.09744 0.37063 0.0
H172 H 0.22431 0.46276 0.62935 0.0
H173 H 0.18895 0.3752 0.60713 0.0
H174 H 0.27335 0.41771 0.65048 0.0
H175 H 0.31102 0.3887 0.61198 0.0
C176 C 0.62959 0.53404 0.23881 0.0
C177 C 0.6026 0.45341 0.21939 0.0
C178 C 0.57914 0.46229 0.32807 0.0
C179 C 0.60752 0.53428 0.34854 0.0
N180 N 0.66352 0.60958 0.32744 0.0
N181 N 0.55505 0.31973 0.24737 0.0
C182 C 0.63377 0.56265 0.30496 0.0
C183 C 0.57844 0.41065 0.26468 0.0
N184 N 0.6515 0.58224 0.19429 0.0
N185 N 0.55224 0.44843 0.36791 0.0
H186 H 0.55338 0.28177 0.20107 0.0
H187 H 0.53909 0.27428 0.27999 0.0
H188 H 0.55139 0.48718 0.4142 0.0
H189 H 0.52959 0.40843 0.35327 0.0
H190 H 0.66927 0.65368 0.20483 0.0
H191 H 0.65045 0.55845 0.14567 0.0
H192 H 0.68469 0.6204 0.29893 0.0
H193 H 0.66825 0.62371 0.37616 0.0
C194 C 0.42447 0.51955 0.21459 0.0
C195 C 0.39572 0.49651 0.1767 0.0
C196 C 0.36591 0.41005 0.26995 0.0
C197 C 0.39512 0.42755 0.30749 0.0
N198 N 0.45402 0.4743 0.31371 0.0
N199 N 0.34164 0.39738 0.16354 0.0
C200 C 0.42499 0.47532 0.27932 0.0
C201 C 0.36732 0.43372 0.20288 0.0
N202 N 0.4509 0.58659 0.18906 0.0
N203 N 0.33633 0.37862 0.29898 0.0
H204 H 0.34172 0.41534 0.11423 0.0
H205 H 0.32173 0.33931 0.17855 0.0
H206 H 0.3339 0.36531 0.34839 0.0
H207 H 0.31352 0.37786 0.27518 0.0
H208 H 0.47092 0.62054 0.21618 0.0
H209 H 0.45195 0.61467 0.14091 0.0
H210 H 0.47726 0.49481 0.29376 0.0
H211 H 0.45534 0.44248 0.36124 0.0
C212 C 0.36912 0.62384 0.76235 0.0
C213 C 0.39489 0.58685 0.80566 0.0
C214 C 0.42406 0.47114 0.71913 0.0
C215 C 0.39847 0.50903 0.67601 0.0
N216 N 0.35056 0.64306 0.652 0.0
N217 N 0.4509 0.50731 0.82188 0.0
C218 C 0.37243 0.59339 0.6961 0.0
C219 C 0.42359 0.51967 0.78307 0.0
N220 N 0.3405 0.68058 0.78488 0.0
N221 N 0.44855 0.3871 0.69913 0.0
H222 H 0.45182 0.54536 0.86834 0.0
H223 H 0.47377 0.47106 0.80613 0.0
H224 H 0.45099 0.35655 0.65152 0.0
H225 H 0.46542 0.34255 0.7302 0.0
H226 H 0.31915 0.69331 0.75721 0.0
H227 H 0.33684 0.70652 0.83265 0.0
H228 H 0.33344 0.71687 0.66239 0.0
H229 H 0.35121 0.61852 0.60344 0.0
C230 C 0.57949 0.54467 0.82496 0.0
C231 C 0.60394 0.45348 0.84564 0.0
C232 C 0.62715 0.44488 0.73653 0.0
C233 C 0.60486 0.54582 0.7178 0.0
N234 N 0.56345 0.7078 0.74649 0.0
N235 N 0.6547 0.33256 0.82376 0.0
C236 C 0.5822 0.60093 0.76279 0.0
C237 C 0.62862 0.40688 0.80206 0.0
N238 N 0.55264 0.57228 0.86322 0.0
N239 N 0.64735 0.38628 0.69197 0.0
H240 H 0.65729 0.30234 0.87118 0.0
H241 H 0.67557 0.31022 0.79607 0.0
H242 H 0.64939 0.41815 0.64458 0.0
H243 H 0.66067 0.30047 0.7009 0.0
H244 H 0.53223 0.62699 0.84782 0.0
H245 H 0.54898 0.52937 0.90812 0.0
H246 H 0.54937 0.76094 0.77954 0.0
H247 H 0.56401 0.75014 0.70102 0.0
C248 C 0.07833 0.93489 0.24252 0.0
C249 C 0.10365 0.97412 0.19888 0.0
C250 C 0.13315 0.08915 0.28498 0.0
C251 C 0.10716 0.05435 0.32834 0.0
N252 N 0.05159 0.96997 0.34554 0.0
N253 N 0.15202 0.10599 0.17466 0.0
C254 C 0.0788 0.98395 0.30643 0.0
C255 C 0.12994 0.05754 0.21884 0.0
N256 N 0.05392 0.85013 0.22287 0.0
N257 N 0.16178 0.14588 0.30747 0.0
H258 H 0.15157 0.08027 0.12623 0.0
H259 H 0.16926 0.17953 0.18484 0.0
H260 H 0.1654 0.17133 0.35534 0.0
H261 H 0.18321 0.1582 0.27986 0.0
H262 H 0.03731 0.80446 0.25419 0.0
H263 H 0.05127 0.82004 0.17526 0.0
H264 H 0.02883 0.93236 0.33005 0.0
H265 H 0.05058 0.00721 0.39213 0.0
C266 C 0.87082 0.06836 0.32761 0.0
C267 C 0.8951 0.97388 0.34515 0.0
C268 C 0.91822 0.9788 0.23628 0.0
C269 C 0.89153 0.0607 0.21677 0.0
N270 N 0.83907 0.16675 0.24159 0.0
N271 N 0.93868 0.82274 0.31421 0.0
C272 C 0.86705 0.10215 0.26189 0.0
C273 C 0.91781 0.92394 0.29886 0.0
N274 N 0.85093 0.12439 0.37343 0.0
N275 N 0.94479 0.9584 0.19626 0.0
H276 H 0.93959 0.78108 0.35979 0.0
H277 H 0.9531 0.77306 0.2804 0.0
H278 H 0.94669 0.001 0.15088 0.0
H279 H 0.96652 0.91075 0.21056 0.0
H280 H 0.83575 0.20529 0.36458 0.0
H281 H 0.85119 0.09652 0.42156 0.0
H282 H 0.81858 0.18503 0.271 0.0
H283 H 0.8347 0.19177 0.1939 0.0
C284 C 0.86504 0.92996 0.75437 0.0
C285 C 0.89379 0.95234 0.71605 0.0
C286 C 0.92125 0.06222 0.80633 0.0
C287 C 0.89353 0.03022 0.8457 0.0
N288 N 0.84138 0.9165 0.86122 0.0
N289 N 0.95129 0.02029 0.70726 0.0
C290 C 0.86623 0.95802 0.82101 0.0
C291 C 0.92249 0.01363 0.74236 0.0
N292 N 0.83597 0.88911 0.72638 0.0
N293 N 0.94616 0.14021 0.82993 0.0
H294 H 0.95324 0.98463 0.66048 0.0
H295 H 0.97401 0.05142 0.72604 0.0
H296 H 0.94692 0.17174 0.87758 0.0
H297 H 0.96501 0.17999 0.80153 0.0
H298 H 0.81328 0.88397 0.75062 0.0
H299 H 0.83357 0.8729 0.67717 0.0
H300 H 0.82277 0.85111 0.84735 0.0
H301 H 0.84084 0.93864 0.9101 0.0
C302 C 0.07692 0.00406 0.8052 0.0
C303 C 0.10417 0.92945 0.82847 0.0
C304 C 0.1286 0.92441 0.72052 0.0
C305 C 0.10353 0.01219 0.69925 0.0
N306 N 0.05641 0.15143 0.72318 0.0
N307 N 0.15917 0.83892 0.81146 0.0
C308 C 0.07843 0.05681 0.74216 0.0
C309 C 0.1308 0.89394 0.7869 0.0
N310 N 0.04903 0.02005 0.84224 0.0
N311 N 0.1507 0.87181 0.6776 0.0
H312 H 0.16259 0.8208 0.86026 0.0
H313 H 0.18073 0.82357 0.7846 0.0
H314 H 0.15103 0.8964 0.62903 0.0
H315 H 0.16703 0.79597 0.68916 0.0
H316 H 0.02703 0.06167 0.82518 0.0
H317 H 0.04666 0.9803 0.88816 0.0
H318 H 0.03994 0.19798 0.75449 0.0
H319 H 0.05632 0.19076 0.67705 0.0
C320 C 0.48977 0.91946 0.96584 0.0
C321 C 0.46501 0.92455 0.0145 0.0
C322 C 0.49571 0.09915 0.06935 0.0
C323 C 0.52235 0.08304 0.025 0.0
N324 N 0.54613 0.97195 0.93308 0.0
N325 N 0.4469 0.00153 0.11844 0.0
C326 C 0.5199 0.99064 0.97412 0.0
C327 C 0.46849 0.01015 0.06771 0.0
N328 N 0.4837 0.85245 0.91009 0.0
N329 N 0.49622 0.19951 0.11292 0.0
H330 H 0.42707 0.93534 0.11999 0.0
H331 H 0.45043 0.0511 0.16164 0.0
H332 H 0.51607 0.26466 0.1174 0.0
H333 H 0.47575 0.22494 0.14113 0.0
H334 H 0.49924 0.85631 0.87006 0.0
H335 H 0.46142 0.8029 0.90109 0.0
H336 H 0.54749 0.89389 0.90088 0.0
H337 H 0.56752 0.03011 0.93326 0.0
C338 C 0.50451 0.9155 0.56834 0.0
C339 C 0.5307 0.93054 0.52289 0.0
C340 C 0.49737 0.09113 0.46349 0.0
C341 C 0.47282 0.08565 0.5125 0.0
N342 N 0.45586 0.01305 0.6179 0.0
N343 N 0.55384 0.04122 0.43029 0.0
C344 C 0.47704 0.00303 0.56659 0.0
C345 C 0.52779 0.02187 0.47169 0.0
N346 N 0.50566 0.81732 0.61302 0.0
N347 N 0.49083 0.1563 0.40746 0.0
H348 H 0.57556 0.98516 0.431 0.0
H349 H 0.55475 0.11829 0.39747 0.0
H350 H 0.46838 0.20458 0.39863 0.0
H351 H 0.50619 0.15201 0.3672 0.0
H352 H 0.48546 0.79215 0.64203 0.0
H353 H 0.52581 0.75386 0.61799 0.0
H354 H 0.45992 0.96582 0.66154 0.0
H355 H 0.43589 0.0785 0.6194 0.0
C356 C 0.01517 0.51081 0.07869 0.0
C357 C 0.02416 0.57783 0.02153 0.0
C358 C 0.97382 0.49833 0.96731 0.0
C359 C 0.96485 0.43085 0.02436 0.0
N360 N 0.97656 0.3644 0.13318 0.0
N361 N 0.01139 0.65035 0.91406 0.0
C362 C 0.98542 0.43489 0.07982 0.0
C363 C 0.00323 0.57616 0.9666 0.0
N364 N 0.03426 0.52588 0.1327 0.0
N365 N 0.95529 0.48107 0.91277 0.0
H366 H 0.03385 0.7013 0.90981 0.0
H367 H 0.99538 0.6674 0.87571 0.0
H368 H 0.9335 0.42525 0.91141 0.0
H369 H 0.96238 0.51441 0.86757 0.0
H370 H 0.02772 0.49132 0.17794 0.0
H371 H 0.0563 0.5802 0.13353 0.0
H372 H 0.99199 0.34921 0.17256 0.0
H373 H 0.95374 0.31616 0.1377 0.0
C374 C 0.00296 0.38338 0.56183 0.0
C375 C 0.03123 0.41972 0.5245 0.0
C376 C 0.0017 0.61558 0.48635 0.0
C377 C 0.97459 0.58425 0.52767 0.0
N378 N 0.95294 0.45676 0.61602 0.0
N379 N 0.05888 0.5751 0.45462 0.0
C380 C 0.97611 0.47296 0.56837 0.0
C381 C 0.0311 0.53786 0.48825 0.0
N382 N 0.00148 0.26323 0.59097 0.0
N383 N 0.99875 0.71511 0.44264 0.0
H384 H 0.0796 0.5149 0.44812 0.0
H385 H 0.0621 0.66861 0.43537 0.0
H386 H 0.97811 0.77658 0.44002 0.0
H387 H 0.01562 0.73118 0.40547 0.0
H388 H 0.97981 0.2259 0.61172 0.0
H389 H 0.02091 0.19569 0.59036 0.0
H390 H 0.95487 0.38553 0.65169 0.0
H391 H 0.93363 0.52311 0.62439 0.0
loop_
_geom_bond_atom_site_label_1
_geom_bond_atom_site_label_2
_geom_bond_distance
_geom_bond_site_symmetry_2
_ccdc_geom_bond_type
In0 O1 2.294 1_554 S
In0 O2 2.326 1_554 S
In0 O6 2.266 . S
In0 O7 2.326 . S
In0 O8 2.266 . S
In0 O9 2.326 . S
In0 O11 2.294 . S
In0 O12 2.326 . S
O1 In0 2.294 1_556 S
O1 C10 1.240 . S
O2 In0 2.326 1_556 S
O2 C10 1.252 . S
C3 O6 1.252 . S
C3 O7 1.260 . S
C4 O11 1.240 . S
C4 O12 1.252 . S
C5 O8 1.252 . S
C5 O9 1.260 . S
O6 In0 2.266 . S
O6 C3 1.252 . S
O7 In0 2.326 . S
O7 C3 1.260 . S
O8 In0 2.266 . S
O8 C5 1.252 . S
O9 In0 2.326 . S
O9 C5 1.260 . S
C10 O1 1.240 . S
C10 O2 1.252 . S
O11 In0 2.294 . S
O11 C4 1.240 . S
O12 In0 2.326 . S
O12 C4 1.252 . S
In13 O14 2.294 . S
In13 O15 2.326 . S
In13 O19 2.266 . S
In13 O20 2.326 . S
In13 O21 2.266 . S
In13 O22 2.326 . S
In13 O24 2.294 1_554 S
In13 O25 2.326 1_554 S
O14 In13 2.294 . S
O14 C23 1.240 . S
O15 In13 2.326 . S
O15 C23 1.252 . S
C16 O19 1.252 . S
C16 O20 1.260 . S
C17 O24 1.240 . S
C17 O25 1.252 . S
C18 O21 1.252 . S
C18 O22 1.260 . S
O19 In13 2.266 . S
O19 C16 1.252 . S
O20 In13 2.326 . S
O20 C16 1.260 . S
O21 In13 2.266 . S
O21 C18 1.252 . S
O22 In13 2.326 . S
O22 C18 1.260 . S
C23 O14 1.240 . S
C23 O15 1.252 . S
O24 In13 2.294 1_556 S
O24 C17 1.240 . S
O25 In13 2.326 1_556 S
O25 C17 1.252 . S
In26 O27 2.294 . S
In26 O28 2.326 . S
In26 O32 2.266 . S
In26 O33 2.326 . S
In26 O34 2.266 . S
In26 O35 2.326 . S
In26 O37 2.294 . S
In26 O38 2.326 . S
O27 In26 2.294 . S
O27 C36 1.240 . S
O28 In26 2.326 . S
O28 C36 1.252 . S
C29 O32 1.252 . S
C29 O33 1.260 . S
C30 O37 1.240 . S
C30 O38 1.252 . S
C31 O34 1.252 . S
C31 O35 1.260 . S
O32 In26 2.266 . S
O32 C29 1.252 . S
O33 In26 2.326 . S
O33 C29 1.260 . S
O34 In26 2.266 . S
O34 C31 1.252 . S
O35 In26 2.326 . S
O35 C31 1.260 . S
C36 O27 1.240 . S
C36 O28 1.252 . S
O37 In26 2.294 . S
O37 C30 1.240 . S
O38 In26 2.326 . S
O38 C30 1.252 . S
In39 O40 2.294 . S
In39 O41 2.326 . S
In39 O45 2.266 . S
In39 O46 2.326 . S
In39 O47 2.266 . S
In39 O48 2.326 . S
In39 O50 2.294 . S
In39 O51 2.326 . S
O40 In39 2.294 . S
O40 C49 1.240 . S
O41 In39 2.326 . S
O41 C49 1.252 . S
C42 O45 1.252 . S
C42 O46 1.260 . S
C43 O50 1.240 . S
C43 O51 1.252 . S
C44 O47 1.252 . S
C44 O48 1.260 . S
O45 In39 2.266 . S
O45 C42 1.252 . S
O46 In39 2.326 . S
O46 C42 1.260 . S
O47 In39 2.266 . S
O47 C44 1.252 . S
O48 In39 2.326 . S
O48 C44 1.260 . S
C49 O40 1.240 . S
C49 O41 1.252 . S
O50 In39 2.294 . S
O50 C43 1.240 . S
O51 In39 2.326 . S
O51 C43 1.252 . S
In52 O53 2.294 . S
In52 O54 2.326 . S
In52 O58 2.266 . S
In52 O59 2.326 . S
In52 O60 2.266 . S
In52 O61 2.326 . S
In52 O63 2.294 1_554 S
In52 O64 2.326 1_554 S
O53 In52 2.294 . S
O53 C62 1.240 . S
O54 In52 2.326 . S
O54 C62 1.252 . S
C55 O58 1.252 . S
C55 O59 1.260 . S
C56 O63 1.240 . S
C56 O64 1.252 . S
C57 O60 1.252 . S
C57 O61 1.260 . S
O58 In52 2.266 . S
O58 C55 1.252 . S
O59 In52 2.326 . S
O59 C55 1.260 . S
O60 In52 2.266 . S
O60 C57 1.252 . S
O61 In52 2.326 . S
O61 C57 1.260 . S
C62 O53 1.240 . S
C62 O54 1.252 . S
O63 In52 2.294 1_556 S
O63 C56 1.240 . S
O64 In52 2.326 1_556 S
O64 C56 1.252 . S
In65 O66 2.294 1_554 S
In65 O67 2.326 1_554 S
In65 O71 2.266 . S
In65 O72 2.326 . S
In65 O73 2.266 . S
In65 O74 2.326 . S
In65 O76 2.294 . S
In65 O77 2.326 . S
O66 In65 2.294 1_556 S
O66 C75 1.240 . S
O67 In65 2.326 1_556 S
O67 C75 1.252 . S
C68 O71 1.252 . S
C68 O72 1.260 . S
C69 O76 1.240 . S
C69 O77 1.252 . S
C70 O73 1.252 . S
C70 O74 1.260 . S
O71 In65 2.266 . S
O71 C68 1.252 . S
O72 In65 2.326 . S
O72 C68 1.260 . S
O73 In65 2.266 . S
O73 C70 1.252 . S
O74 In65 2.326 . S
O74 C70 1.260 . S
C75 O66 1.240 . S
C75 O67 1.252 . S
O76 In65 2.294 . S
O76 C69 1.240 . S
O77 In65 2.326 . S
O77 C69 1.252 . S
In78 O79 2.294 . S
In78 O80 2.326 . S
In78 O84 2.266 . S
In78 O85 2.326 . S
In78 O86 2.266 . S
In78 O87 2.326 . S
In78 O89 2.294 . S
In78 O90 2.326 . S
O79 In78 2.294 . S
O79 C88 1.240 . S
O80 In78 2.326 . S
O80 C88 1.252 . S
C81 O84 1.252 . S
C81 O85 1.260 . S
C82 O89 1.240 . S
C82 O90 1.252 . S
C83 O86 1.252 . S
C83 O87 1.260 . S
O84 In78 2.266 . S
O84 C81 1.252 . S
O85 In78 2.326 . S
O85 C81 1.260 . S
O86 In78 2.266 . S
O86 C83 1.252 . S
O87 In78 2.326 . S
O87 C83 1.260 . S
C88 O79 1.240 . S
C88 O80 1.252 . S
O89 In78 2.294 . S
O89 C82 1.240 . S
O90 In78 2.326 . S
O90 C82 1.252 . S
In91 O92 2.294 . S
In91 O93 2.326 . S
In91 O97 2.266 . S
In91 O98 2.326 . S
In91 O99 2.266 . S
In91 O100 2.326 . S
In91 O102 2.294 . S
In91 O103 2.326 . S
O92 In91 2.294 . S
O92 C101 1.240 . S
O93 In91 2.326 . S
O93 C101 1.252 . S
C94 O97 1.252 . S
C94 O98 1.260 . S
C95 O102 1.240 . S
C95 O103 1.252 . S
C96 O99 1.252 . S
C96 O100 1.260 . S
O97 In91 2.266 . S
O97 C94 1.252 . S
O98 In91 2.326 . S
O98 C94 1.260 . S
O99 In91 2.266 . S
O99 C96 1.252 . S
O100 In91 2.326 . S
O100 C96 1.260 . S
C101 O92 1.240 . S
C101 O93 1.252 . S
O102 In91 2.294 . S
O102 C95 1.240 . S
O103 In91 2.326 . S
O103 C95 1.252 . S
C104 C105 1.363 . S
C104 C110 1.379 . S
C104 N112 1.356 . S
C105 C104 1.363 . S
C105 C111 1.363 1_554 S
C106 C107 1.363 1_556 S
C106 C111 1.379 . S
C106 N113 1.356 . S
C107 C106 1.363 1_554 S
C107 C110 1.363 . S
N108 C110 1.356 . S
N108 H120 0.984 . S
N108 H121 0.985 . S
N109 C111 1.356 . S
N109 H114 0.984 . S
N109 H115 0.985 . S
C110 C104 1.379 . S
C110 C107 1.363 . S
C110 N108 1.356 . S
C111 C105 1.363 1_556 S
C111 C106 1.379 . S
C111 N109 1.356 . S
N112 C104 1.356 . S
N112 H118 0.984 . S
N112 H119 0.984 . S
N113 C106 1.356 . S
N113 H116 0.984 . S
N113 H117 0.985 . S
H114 N109 0.984 . S
H115 N109 0.985 . S
H116 N113 0.984 . S
H117 N113 0.985 . S
H118 N112 0.984 . S
H119 N112 0.984 . S
H120 N108 0.984 . S
H121 N108 0.985 . S
C122 C123 1.363 . S
C122 C128 1.379 . S
C122 N130 1.356 . S
C123 C122 1.363 . S
C123 C129 1.363 1_554 S
C124 C125 1.363 1_556 S
C124 C129 1.379 . S
C124 N131 1.356 . S
C125 C124 1.363 1_554 S
C125 C128 1.363 . S
N126 C128 1.356 . S
N126 H138 0.984 . S
N126 H139 0.985 . S
N127 C129 1.356 . S
N127 H132 0.984 . S
N127 H133 0.985 . S
C128 C122 1.379 . S
C128 C125 1.363 . S
C128 N126 1.356 . S
C129 C123 1.363 1_556 S
C129 C124 1.379 . S
C129 N127 1.356 . S
N130 C122 1.356 . S
N130 H136 0.984 . S
N130 H137 0.984 . S
N131 C124 1.356 . S
N131 H134 0.984 . S
N131 H135 0.985 . S
H132 N127 0.984 . S
H133 N127 0.985 . S
H134 N131 0.984 . S
H135 N131 0.985 . S
H136 N130 0.984 . S
H137 N130 0.984 . S
H138 N126 0.984 . S
H139 N126 0.985 . S
C140 C141 1.363 . S
C140 C146 1.379 . S
C140 N148 1.356 . S
C141 C140 1.363 . S
C141 C147 1.363 . S
C142 C143 1.363 . S
C142 C147 1.379 . S
C142 N149 1.356 . S
C143 C142 1.363 . S
C143 C146 1.363 . S
N144 C146 1.356 . S
N144 H156 0.984 . S
N144 H157 0.985 . S
N145 C147 1.356 . S
N145 H150 0.984 . S
N145 H151 0.985 . S
C146 C140 1.379 . S
C146 C143 1.363 . S
C146 N144 1.356 . S
C147 C141 1.363 . S
C147 C142 1.379 . S
C147 N145 1.356 . S
N148 C140 1.356 . S
N148 H154 0.984 . S
N148 H155 0.984 . S
N149 C142 1.356 . S
N149 H152 0.984 . S
N149 H153 0.985 . S
H150 N145 0.984 . S
H151 N145 0.985 . S
H152 N149 0.984 . S
H153 N149 0.985 . S
H154 N148 0.984 . S
H155 N148 0.984 . S
H156 N144 0.984 . S
H157 N144 0.985 . S
C158 C159 1.363 . S
C158 C164 1.379 . S
C158 N166 1.356 . S
C159 C158 1.363 . S
C159 C165 1.363 . S
C160 C161 1.363 . S
C160 C165 1.379 . S
C160 N167 1.356 . S
C161 C160 1.363 . S
C161 C164 1.363 . S
N162 C164 1.356 . S
N162 H174 0.984 . S
N162 H175 0.985 . S
N163 C165 1.356 . S
N163 H168 0.984 . S
N163 H169 0.985 . S
C164 C158 1.379 . S
C164 C161 1.363 . S
C164 N162 1.356 . S
C165 C159 1.363 . S
C165 C160 1.379 . S
C165 N163 1.356 . S
N166 C158 1.356 . S
N166 H172 0.984 . S
N166 H173 0.984 . S
N167 C160 1.356 . S
N167 H170 0.984 . S
N167 H171 0.985 . S
H168 N163 0.984 . S
H169 N163 0.985 . S
H170 N167 0.984 . S
H171 N167 0.985 . S
H172 N166 0.984 . S
H173 N166 0.984 . S
H174 N162 0.984 . S
H175 N162 0.985 . S
C176 C177 1.363 . S
C176 C182 1.379 . S
C176 N184 1.356 . S
C177 C176 1.363 . S
C177 C183 1.363 . S
C178 C179 1.363 . S
C178 C183 1.379 . S
C178 N185 1.356 . S
C179 C178 1.363 . S
C179 C182 1.363 . S
N180 C182 1.356 . S
N180 H192 0.984 . S
N180 H193 0.985 . S
N181 C183 1.356 . S
N181 H186 0.984 . S
N181 H187 0.985 . S
C182 C176 1.379 . S
C182 C179 1.363 . S
C182 N180 1.356 . S
C183 C177 1.363 . S
C183 C178 1.379 . S
C183 N181 1.356 . S
N184 C176 1.356 . S
N184 H190 0.984 . S
N184 H191 0.984 . S
N185 C178 1.356 . S
N185 H188 0.984 . S
N185 H189 0.985 . S
H186 N181 0.984 . S
H187 N181 0.985 . S
H188 N185 0.984 . S
H189 N185 0.985 . S
H190 N184 0.984 . S
H191 N184 0.984 . S
H192 N180 0.984 . S
H193 N180 0.985 . S
C194 C195 1.363 . S
C194 C200 1.379 . S
C194 N202 1.356 . S
C195 C194 1.363 . S
C195 C201 1.363 . S
C196 C197 1.363 . S
C196 C201 1.379 . S
C196 N203 1.356 . S
C197 C196 1.363 . S
C197 C200 1.363 . S
N198 C200 1.356 . S
N198 H210 0.984 . S
N198 H211 0.985 . S
N199 C201 1.356 . S
N199 H204 0.984 . S
N199 H205 0.985 . S
C200 C194 1.379 . S
C200 C197 1.363 . S
C200 N198 1.356 . S
C201 C195 1.363 . S
C201 C196 1.379 . S
C201 N199 1.356 . S
N202 C194 1.356 . S
N202 H208 0.984 . S
N202 H209 0.984 . S
N203 C196 1.356 . S
N203 H206 0.984 . S
N203 H207 0.985 . S
H204 N199 0.984 . S
H205 N199 0.985 . S
H206 N203 0.984 . S
H207 N203 0.985 . S
H208 N202 0.984 . S
H209 N202 0.984 . S
H210 N198 0.984 . S
H211 N198 0.985 . S
C212 C213 1.363 . S
C212 C218 1.379 . S
C212 N220 1.356 . S
C213 C212 1.363 . S
C213 C219 1.363 . S
C214 C215 1.363 . S
C214 C219 1.379 . S
C214 N221 1.356 . S
C215 C214 1.363 . S
C215 C218 1.363 . S
N216 C218 1.356 . S
N216 H228 0.984 . S
N216 H229 0.985 . S
N217 C219 1.356 . S
N217 H222 0.984 . S
N217 H223 0.985 . S
C218 C212 1.379 . S
C218 C215 1.363 . S
C218 N216 1.356 . S
C219 C213 1.363 . S
C219 C214 1.379 . S
C219 N217 1.356 . S
N220 C212 1.356 . S
N220 H226 0.984 . S
N220 H227 0.984 . S
N221 C214 1.356 . S
N221 H224 0.984 . S
N221 H225 0.985 . S
H222 N217 0.984 . S
H223 N217 0.985 . S
H224 N221 0.984 . S
H225 N221 0.985 . S
H226 N220 0.984 . S
H227 N220 0.984 . S
H228 N216 0.984 . S
H229 N216 0.985 . S
C230 C231 1.363 . S
C230 C236 1.379 . S
C230 N238 1.356 . S
C231 C230 1.363 . S
C231 C237 1.363 . S
C232 C233 1.363 . S
C232 C237 1.379 . S
C232 N239 1.356 . S
C233 C232 1.363 . S
C233 C236 1.363 . S
N234 C236 1.356 . S
N234 H246 0.984 . S
N234 H247 0.985 . S
N235 C237 1.356 . S
N235 H240 0.984 . S
N235 H241 0.985 . S
C236 C230 1.379 . S
C236 C233 1.363 . S
C236 N234 1.356 . S
C237 C231 1.363 . S
C237 C232 1.379 . S
C237 N235 1.356 . S
N238 C230 1.356 . S
N238 H244 0.984 . S
N238 H245 0.984 . S
N239 C232 1.356 . S
N239 H242 0.984 . S
N239 H243 0.985 . S
H240 N235 0.984 . S
H241 N235 0.985 . S
H242 N239 0.984 . S
H243 N239 0.985 . S
H244 N238 0.984 . S
H245 N238 0.984 . S
H246 N234 0.984 . S
H247 N234 0.985 . S
C248 C249 1.363 . S
C248 C254 1.379 . S
C248 N256 1.356 . S
C249 C248 1.363 . S
C249 C255 1.363 1_565 S
C250 C251 1.363 . S
C250 C255 1.379 . S
C250 N257 1.356 . S
C251 C250 1.363 . S
C251 C254 1.363 1_545 S
N252 C254 1.356 . S
N252 H264 0.984 . S
N252 H265 0.985 . S
N253 C255 1.356 . S
N253 H258 0.984 . S
N253 H259 0.985 . S
C254 C248 1.379 . S
C254 C251 1.363 1_565 S
C254 N252 1.356 . S
C255 C249 1.363 1_545 S
C255 C250 1.379 . S
C255 N253 1.356 . S
N256 C248 1.356 . S
N256 H262 0.984 . S
N256 H263 0.984 . S
N257 C250 1.356 . S
N257 H260 0.984 . S
N257 H261 0.985 . S
H258 N253 0.984 . S
H259 N253 0.985 . S
H260 N257 0.984 . S
H261 N257 0.985 . S
H262 N256 0.984 . S
H263 N256 0.984 . S
H264 N252 0.984 . S
H265 N252 0.985 . S
C266 C267 1.363 1_545 S
C266 C272 1.379 . S
C266 N274 1.356 . S
C267 C266 1.363 1_565 S
C267 C273 1.363 . S
C268 C269 1.363 1_565 S
C268 C273 1.379 . S
C268 N275 1.356 . S
C269 C268 1.363 1_545 S
C269 C272 1.363 . S
N270 C272 1.356 . S
N270 H282 0.984 . S
N270 H283 0.985 . S
N271 C273 1.356 . S
N271 H276 0.984 . S
N271 H277 0.985 . S
C272 C266 1.379 . S
C272 C269 1.363 . S
C272 N270 1.356 . S
C273 C267 1.363 . S
C273 C268 1.379 . S
C273 N271 1.356 . S
N274 C266 1.356 . S
N274 H280 0.984 . S
N274 H281 0.984 . S
N275 C268 1.356 . S
N275 H278 0.984 . S
N275 H279 0.985 . S
H276 N271 0.984 . S
H277 N271 0.985 . S
H278 N275 0.984 . S
H279 N275 0.985 . S
H280 N274 0.984 . S
H281 N274 0.984 . S
H282 N270 0.984 . S
H283 N270 0.985 . S
C284 C285 1.363 . S
C284 C290 1.379 . S
C284 N292 1.356 . S
C285 C284 1.363 . S
C285 C291 1.363 1_565 S
C286 C287 1.363 . S
C286 C291 1.379 . S
C286 N293 1.356 . S
C287 C286 1.363 . S
C287 C290 1.363 1_545 S
N288 C290 1.356 . S
N288 H300 0.984 . S
N288 H301 0.985 . S
N289 C291 1.356 . S
N289 H294 0.984 . S
N289 H295 0.985 . S
C290 C284 1.379 . S
C290 C287 1.363 1_565 S
C290 N288 1.356 . S
C291 C285 1.363 1_545 S
C291 C286 1.379 . S
C291 N289 1.356 . S
N292 C284 1.356 . S
N292 H298 0.984 . S
N292 H299 0.984 . S
N293 C286 1.356 . S
N293 H296 0.984 . S
N293 H297 0.985 . S
H294 N289 0.984 . S
H295 N289 0.985 . S
H296 N293 0.984 . S
H297 N293 0.985 . S
H298 N292 0.984 . S
H299 N292 0.984 . S
H300 N288 0.984 . S
H301 N288 0.985 . S
C302 C303 1.363 1_545 S
C302 C308 1.379 . S
C302 N310 1.356 . S
C303 C302 1.363 1_565 S
C303 C309 1.363 . S
C304 C305 1.363 1_565 S
C304 C309 1.379 . S
C304 N311 1.356 . S
C305 C304 1.363 1_545 S
C305 C308 1.363 . S
N306 C308 1.356 . S
N306 H318 0.984 . S
N306 H319 0.985 . S
N307 C309 1.356 . S
N307 H312 0.984 . S
N307 H313 0.985 . S
C308 C302 1.379 . S
C308 C305 1.363 . S
C308 N306 1.356 . S
C309 C303 1.363 . S
C309 C304 1.379 . S
C309 N307 1.356 . S
N310 C302 1.356 . S
N310 H316 0.984 . S
N310 H317 0.984 . S
N311 C304 1.356 . S
N311 H314 0.984 . S
N311 H315 0.985 . S
H312 N307 0.984 . S
H313 N307 0.985 . S
H314 N311 0.984 . S
H315 N311 0.985 . S
H316 N310 0.984 . S
H317 N310 0.984 . S
H318 N306 0.984 . S
H319 N306 0.985 . S
C320 C321 1.363 1_556 S
C320 C326 1.379 . S
C320 N328 1.356 . S
C321 C320 1.363 1_554 S
C321 C327 1.363 1_565 S
C322 C323 1.363 . S
C322 C327 1.379 . S
C322 N329 1.356 . S
C323 C322 1.363 . S
C323 C326 1.363 1_544 S
N324 C326 1.356 1_545 S
N324 H336 0.984 1_545 S
N324 H337 0.985 . S
N325 C327 1.356 1_565 S
N325 H330 0.984 . S
N325 H331 0.985 1_565 S
C326 C320 1.379 . S
C326 C323 1.363 1_566 S
C326 N324 1.356 1_565 S
C327 C321 1.363 1_545 S
C327 C322 1.379 . S
C327 N325 1.356 1_545 S
N328 C320 1.356 . S
N328 H334 0.984 . S
N328 H335 0.984 . S
N329 C322 1.356 . S
N329 H332 0.984 . S
N329 H333 0.985 . S
H330 N325 0.984 . S
H331 N325 0.985 1_545 S
H332 N329 0.984 . S
H333 N329 0.985 . S
H334 N328 0.984 . S
H335 N328 0.984 . S
H336 N324 0.984 1_565 S
H337 N324 0.985 . S
C338 C339 1.363 . S
C338 C344 1.379 . S
C338 N346 1.356 . S
C339 C338 1.363 . S
C339 C345 1.363 1_565 S
C340 C341 1.363 . S
C340 C345 1.379 . S
C340 N347 1.356 . S
C341 C340 1.363 . S
C341 C344 1.363 1_545 S
N342 C344 1.356 1_545 S
N342 H354 0.984 1_545 S
N342 H355 0.985 . S
N343 C345 1.356 1_565 S
N343 H348 0.984 . S
N343 H349 0.985 1_565 S
C344 C338 1.379 . S
C344 C341 1.363 1_565 S
C344 N342 1.356 1_565 S
C345 C339 1.363 1_545 S
C345 C340 1.379 . S
C345 N343 1.356 1_545 S
N346 C338 1.356 . S
N346 H352 0.984 . S
N346 H353 0.984 . S
N347 C340 1.356 . S
N347 H350 0.984 . S
N347 H351 0.985 . S
H348 N343 0.984 . S
H349 N343 0.985 1_545 S
H350 N347 0.984 . S
H351 N347 0.985 . S
H352 N346 0.984 . S
H353 N346 0.984 . S
H354 N342 0.984 1_565 S
H355 N342 0.985 . S
C356 C357 1.363 . S
C356 C362 1.379 1_455 S
C356 N364 1.356 . S
C357 C356 1.363 . S
C357 C363 1.363 1_554 S
C358 C359 1.363 1_556 S
C358 C363 1.379 1_655 S
C358 N365 1.356 . S
C359 C358 1.363 1_554 S
C359 C362 1.363 . S
N360 C362 1.356 . S
N360 H372 0.984 . S
N360 H373 0.985 . S
N361 C363 1.356 . S
N361 H366 0.984 . S
N361 H367 0.985 . S
C362 C356 1.379 1_655 S
C362 C359 1.363 . S
C362 N360 1.356 . S
C363 C357 1.363 1_556 S
C363 C358 1.379 1_455 S
C363 N361 1.356 . S
N364 C356 1.356 . S
N364 H370 0.984 . S
N364 H371 0.984 . S
N365 C358 1.356 . S
N365 H368 0.984 . S
N365 H369 0.985 . S
H366 N361 0.984 . S
H367 N361 0.985 . S
H368 N365 0.984 . S
H369 N365 0.985 . S
H370 N364 0.984 . S
H371 N364 0.984 . S
H372 N360 0.984 . S
H373 N360 0.985 . S
C374 C375 1.363 . S
C374 C380 1.379 1_455 S
C374 N382 1.356 . S
C375 C374 1.363 . S
C375 C381 1.363 . S
C376 C377 1.363 . S
C376 C381 1.379 1_655 S
C376 N383 1.356 . S
C377 C376 1.363 . S
C377 C380 1.363 . S
N378 C380 1.356 . S
N378 H390 0.984 . S
N378 H391 0.985 . S
N379 C381 1.356 . S
N379 H384 0.984 . S
N379 H385 0.985 . S
C380 C374 1.379 1_655 S
C380 C377 1.363 . S
C380 N378 1.356 . S
C381 C375 1.363 . S
C381 C376 1.379 1_455 S
C381 N379 1.356 . S
N382 C374 1.356 . S
N382 H388 0.984 . S
N382 H389 0.984 . S
N383 C376 1.356 . S
N383 H386 0.984 . S
N383 H387 0.985 . S
H384 N379 0.984 . S
H385 N379 0.985 . S
H386 N383 0.984 . S
H387 N383 0.985 . S
H388 N382 0.984 . S
H389 N382 0.984 . S
H390 N378 0.984 . S
H391 N378 0.985 . S
C105 C70 1.516 . S
C107 C5 1.516 . S
C123 C55 1.516 . S
C125 C16 1.516 . S
C141 C94 1.515 . S
C143 C31 1.515 . S
C159 C83 1.515 . S
C161 C42 1.515 . S
C177 C3 1.444 . S
C179 C29 1.444 . S
C195 C18 1.444 . S
C197 C44 1.444 . S
C213 C17 1.483 . S
C215 C43 1.483 . S
C231 C10 1.483 . S
C233 C36 1.483 . S
C249 C57 1.444 . S
C251 C81 1.444 . S
C267 C96 1.444 . S
C269 C68 1.444 . S
C285 C95 1.483 . S
C287 C75 1.483 . S
C303 C56 1.483 . S
C305 C88 1.483 . S
C321 C23 1.515 . S
C323 C4 1.515 . S
C339 C30 1.516 . S
C341 C49 1.516 . S
C357 C62 1.515 . S
C359 C69 1.515 . S
C375 C82 1.516 . S
C377 C101 1.516 . S
