# Generated by pormake.
# Topology ums, (4)-cn, num edge types: 1
# Building blocks:
#     Node 0, Type 0, BuildingBlock: AZAVOO_clean_sbu_0, # of connection points: 4
#     Node 1, Type 0, BuildingBlock: AZAVOO_clean_sbu_0, # of connection points: 4
#     Node 2, Type 0, BuildingBlock: AZAVOO_clean_sbu_0, # of connection points: 4
#     Node 3, Type 0, BuildingBlock: AZAVOO_clean_sbu_0, # of connection points: 4
#     Node 4, Type 0, BuildingBlock: AZAVOO_clean_sbu_0, # of connection points: 4
#     Node 5, Type 0, BuildingBlock: AZAVOO_clean_sbu_0, # of connection points: 4
#     Node 6, Type 0, BuildingBlock: AZAVOO_clean_sbu_0, # of connection points: 4
#     Node 7, Type 0, BuildingBlock: AZAVOO_clean_sbu_0, # of connection points: 4
#     Node 8, Type 0, BuildingBlock: AZAVOO_clean_sbu_0, # of connection points: 4
#     Node 9, Type 0, BuildingBlock: AZAVOO_clean_sbu_0, # of connection points: 4
#     Node 10, Type 0, BuildingBlock: AZAVOO_clean_sbu_0, # of connection points: 4
#     Node 11, Type 0, BuildingBlock: AZAVOO_clean_sbu_0, # of connection points: 4
#     Node 12, Type 0, BuildingBlock: AZAVOO_clean_sbu_0, # of connection points: 4
#     Node 13, Type 0, BuildingBlock: AZAVOO_clean_sbu_0, # of connection points: 4
#     Node 14, Type 0, BuildingBlock: AZAVOO_clean_sbu_0, # of connection points: 4
#     Node 15, Type 0, BuildingBlock: AZAVOO_clean_sbu_0, # of connection points: 4
#     Node 16, Type 0, BuildingBlock: AZAVOO_clean_sbu_0, # of connection points: 4
#     Node 17, Type 0, BuildingBlock: AZAVOO_clean_sbu_0, # of connection points: 4
#     Node 18, Type 0, BuildingBlock: AZAVOO_clean_sbu_0, # of connection points: 4
#     Node 19, Type 0, BuildingBlock: AZAVOO_clean_sbu_0, # of connection points: 4
#     Node 20, Type 0, BuildingBlock: AZAVOO_clean_sbu_0, # of connection points: 4
#     Node 21, Type 0, BuildingBlock: AZAVOO_clean_sbu_0, # of connection points: 4
#     Node 22, Type 0, BuildingBlock: AZAVOO_clean_sbu_0, # of connection points: 4
#     Node 23, Type 0, BuildingBlock: AZAVOO_clean_sbu_0, # of connection points: 4
#     Node 24, Type 0, BuildingBlock: AZAVOO_clean_sbu_0, # of connection points: 4
#     Node 25, Type 0, BuildingBlock: AZAVOO_clean_sbu_0, # of connection points: 4
#     Node 26, Type 0, BuildingBlock: AZAVOO_clean_sbu_0, # of connection points: 4
#     Node 27, Type 0, BuildingBlock: AZAVOO_clean_sbu_0, # of connection points: 4
#     Node 28, Type 0, BuildingBlock: AZAVOO_clean_sbu_0, # of connection points: 4
#     Node 29, Type 0, BuildingBlock: AZAVOO_clean_sbu_0, # of connection points: 4
#     Node 30, Type 0, BuildingBlock: AZAVOO_clean_sbu_0, # of connection points: 4
#     Node 31, Type 0, BuildingBlock: AZAVOO_clean_sbu_0, # of connection points: 4
#     Node 32, Type 0, BuildingBlock: AZAVOO_clean_sbu_0, # of connection points: 4
#     Node 33, Type 0, BuildingBlock: AZAVOO_clean_sbu_0, # of connection points: 4
#     Node 34, Type 0, BuildingBlock: AZAVOO_clean_sbu_0, # of connection points: 4
#     Node 35, Type 0, BuildingBlock: AZAVOO_clean_sbu_0, # of connection points: 4
#     Edge 36, Type (0, 0), None
#     Edge 37, Type (0, 0), None
#     Edge 38, Type (0, 0), None
#     Edge 39, Type (0, 0), None
#     Edge 40, Type (0, 0), None
#     Edge 41, Type (0, 0), None
#     Edge 42, Type (0, 0), None
#     Edge 43, Type (0, 0), None
#     Edge 44, Type (0, 0), None
#     Edge 45, Type (0, 0), None
#     Edge 46, Type (0, 0), None
#     Edge 47, Type (0, 0), None
#     Edge 48, Type (0, 0), None
#     Edge 49, Type (0, 0), None
#     Edge 50, Type (0, 0), None
#     Edge 51, Type (0, 0), None
#     Edge 52, Type (0, 0), None
#     Edge 53, Type (0, 0), None
#     Edge 54, Type (0, 0), None
#     Edge 55, Type (0, 0), None
#     Edge 56, Type (0, 0), None
#     Edge 57, Type (0, 0), None
#     Edge 58, Type (0, 0), None
#     Edge 59, Type (0, 0), None
#     Edge 60, Type (0, 0), None
#     Edge 61, Type (0, 0), None
#     Edge 62, Type (0, 0), None
#     Edge 63, Type (0, 0), None
#     Edge 64, Type (0, 0), None
#     Edge 65, Type (0, 0), None
#     Edge 66, Type (0, 0), None
#     Edge 67, Type (0, 0), None
#     Edge 68, Type (0, 0), None
#     Edge 69, Type (0, 0), None
#     Edge 70, Type (0, 0), None
#     Edge 71, Type (0, 0), None
#     Edge 72, Type (0, 0), None
#     Edge 73, Type (0, 0), None
#     Edge 74, Type (0, 0), None
#     Edge 75, Type (0, 0), None
#     Edge 76, Type (0, 0), None
#     Edge 77, Type (0, 0), None
#     Edge 78, Type (0, 0), None
#     Edge 79, Type (0, 0), None
#     Edge 80, Type (0, 0), None
#     Edge 81, Type (0, 0), None
#     Edge 82, Type (0, 0), None
#     Edge 83, Type (0, 0), None
#     Edge 84, Type (0, 0), None
#     Edge 85, Type (0, 0), None
#     Edge 86, Type (0, 0), None
#     Edge 87, Type (0, 0), None
#     Edge 88, Type (0, 0), None
#     Edge 89, Type (0, 0), None
#     Edge 90, Type (0, 0), None
#     Edge 91, Type (0, 0), None
#     Edge 92, Type (0, 0), None
#     Edge 93, Type (0, 0), None
#     Edge 94, Type (0, 0), None
#     Edge 95, Type (0, 0), None
#     Edge 96, Type (0, 0), None
#     Edge 97, Type (0, 0), None
#     Edge 98, Type (0, 0), None
#     Edge 99, Type (0, 0), None
#     Edge 100, Type (0, 0), None
#     Edge 101, Type (0, 0), None
#     Edge 102, Type (0, 0), None
#     Edge 103, Type (0, 0), None
#     Edge 104, Type (0, 0), None
#     Edge 105, Type (0, 0), None
#     Edge 106, Type (0, 0), None
#     Edge 107, Type (0, 0), None
# Relax obj value: 0.216
# Max RMSD: 0.163
# Mean RMSD: 0.156
data_MOF--net-ums--node1-AZAVOO_clean_sbu_0--edge1-none
_symmetry_space_group_name_H-M    P1
_symmetry_Int_Tables_number       1
_symmetry_cell_setting            triclinic
loop_
_symmetry_equiv_pos_as_xyz
'x, y, z'
_cell_length_a     46.265539
_cell_length_b     45.571624
_cell_length_c     10.831669
_cell_angle_alpha  89.961512
_cell_angle_beta   89.857761
_cell_angle_gamma 120.5888
loop_
_atom_site_label
_atom_site_type_symbol
_atom_site_fract_x
_atom_site_fract_y
_atom_site_fract_z
_atom_type_partial_charge
Mg0 Mg 0.16715 0.2566 0.18794 0.0
O1 O 0.21094 0.31263 0.15313 0.0
O2 O 0.17733 0.32263 0.25703 0.0
Mg3 Mg 0.12668 0.3085 0.19005 0.0
C4 C 0.20038 0.33269 0.17745 0.0
C5 C 0.19693 0.21186 0.17271 0.0
O6 O 0.17296 0.20049 0.08984 0.0
O7 O 0.1502 0.25916 0.39157 0.0
O8 O 0.11427 0.2786 0.36601 0.0
O9 O 0.16299 0.25479 -0.01921 0.0
O10 O 0.13442 0.26902 0.10699 0.0
C11 C 0.12687 0.26448 0.43092 0.0
C12 C 0.14351 0.2671 -0.00242 0.0
O13 O 0.20309 0.23788 0.23612 0.0
Mg14 Mg 0.76855 0.93277 0.19435 0.0
O15 O 0.72236 0.89024 0.10602 0.0
O16 O 0.68498 0.89767 0.21139 0.0
Mg17 Mg 0.70609 0.9163 0.41194 0.0
C18 C 0.69326 0.88652 0.11684 0.0
C19 C 0.79254 0.94259 0.89703 0.0
O20 O 0.81328 0.96345 0.81278 0.0
O21 O 0.74667 0.96724 0.16232 0.0
O22 O 0.7366 0.97282 0.35756 0.0
O23 O 0.78753 0.90086 0.28908 0.0
O24 O 0.74829 0.90828 0.3683 0.0
C25 C 0.74562 0.98524 0.24969 0.0
C26 C 0.76871 0.89732 0.38297 0.0
O27 O 0.79461 0.95379 0.00643 0.0
Mg28 Mg 0.09306 0.85582 0.13803 0.0
O29 O 0.11072 0.81752 0.093 0.0
O30 O 0.16661 0.84861 0.06985 0.0
Mg31 Mg 0.18471 0.90456 0.10609 0.0
C32 C 0.13891 0.82033 0.06447 0.0
C33 C 0.0251 0.82426 0.25848 0.0
O34 O 0.0412 0.85607 0.29605 0.0
O35 O 0.11237 0.86781 0.33891 0.0
O36 O 0.16795 0.89732 0.30672 0.0
O37 O 0.09074 0.85797 0.93378 0.0
O38 O 0.13453 0.8931 0.0501 0.0
C39 C 0.14257 0.88498 0.37854 0.0
C40 C 0.12207 0.8814 0.94336 0.0
O41 O 0.04054 0.81355 0.1925 0.0
Mg42 Mg 0.24114 0.1577 0.35716 0.0
O43 O 0.29849 0.19176 0.39128 0.0
O44 O 0.31726 0.15611 0.43264 0.0
Mg45 Mg 0.274 0.10109 0.41783 0.0
C46 C 0.32179 0.1861 0.42449 0.0
C47 C 0.21138 0.19079 0.2053 0.0
O48 O 0.19584 0.1588 0.16988 0.0
O49 O 0.24504 0.13744 0.16611 0.0
O50 O 0.26542 0.10339 0.21169 0.0
O51 O 0.23906 0.16338 0.56023 0.0
O52 O 0.24104 0.12124 0.46299 0.0
C53 C 0.25431 0.11637 0.13467 0.0
C54 C 0.24338 0.13744 0.56299 0.0
O55 O 0.23568 0.20122 0.28036 0.0
Mg56 Mg 0.83764 0.0761 0.2875 0.0
O57 O 0.83319 0.11815 0.37633 0.0
O58 O 0.78778 0.1093 0.2725 0.0
Mg59 Mg 0.79086 0.091 0.07157 0.0
C60 C 0.80734 0.12107 0.3663 0.0
C61 C 0.85197 0.06618 0.58414 0.0
O62 O 0.8519 0.04528 0.66778 0.0
O63 O 0.78132 0.04105 0.32008 0.0
O64 O 0.76651 0.03451 0.12435 0.0
O65 O 0.88858 0.10852 0.19277 0.0
O66 O 0.8418 0.10064 0.11344 0.0
C67 C 0.76315 0.02231 0.23248 0.0
C68 C 0.87328 0.1118 0.09878 0.0
O69 O 0.84276 0.05505 0.47479 0.0
Mg70 Mg 0.91509 0.75271 0.26678 0.0
O71 O 0.90765 0.69895 0.31276 0.0
O72 O 0.86387 0.683 0.20189 0.0
Mg73 Mg 0.82366 0.69363 0.25653 0.0
C74 C 0.87779 0.67619 0.28831 0.0
C75 C 0.989 0.80307 0.28304 0.0
O76 O 0.97451 0.81467 0.3567 0.0
O77 O 0.89693 0.74763 0.06038 0.0
O78 O 0.84073 0.7236 0.0815 0.0
O79 O 0.91084 0.7562 0.47188 0.0
O80 O 0.86816 0.73658 0.34195 0.0
C81 C 0.86775 0.73986 0.01869 0.0
C82 C 0.87881 0.74083 0.4527 0.0
O83 O 0.97084 0.77538 0.22517 0.0
Mg84 Mg 0.80592 0.72713 0.66816 0.0
O85 O 0.83476 0.73102 0.84382 0.0
O86 O 0.88627 0.77726 0.84604 0.0
Mg87 Mg 0.89028 0.80583 0.66579 0.0
C88 C 0.86344 0.74947 0.89402 0.0
C89 C 0.74676 0.66655 0.84221 0.0
O90 O 0.7193 0.63663 0.85211 0.0
O91 O 0.79375 0.76803 0.72849 0.0
O92 O 0.84582 0.81319 0.70675 0.0
O93 O 0.83085 0.70304 0.57128 0.0
O94 O 0.85163 0.75857 0.58513 0.0
C95 C 0.81433 0.80027 0.72552 0.0
C96 C 0.85492 0.73381 0.54923 0.0
O97 O 0.75658 0.67983 0.73564 0.0
Mg98 Mg 0.28675 0.09955 0.75101 0.0
O99 O 0.27573 0.10924 0.94715 0.0
O100 O 0.22039 0.08812 0.96203 0.0
Mg101 Mg 0.19513 0.06455 0.77577 0.0
C102 C 0.24996 0.10439 0.00699 0.0
C103 C 0.35611 0.11603 0.89831 0.0
O104 O 0.388 0.12538 0.89584 0.0
O105 O 0.2654 0.04159 0.76692 0.0
O106 O 0.21096 0.02475 0.745 0.0
O107 O 0.28905 0.14812 0.691 0.0
O108 O 0.24348 0.09775 0.69163 0.0
C109 C 0.23501 0.01862 0.74334 0.0
C110 C 0.25733 0.12937 0.66737 0.0
O111 O 0.34115 0.11362 0.79695 0.0
Mg112 Mg 0.90214 0.16296 0.7013 0.0
O113 O 0.88535 0.14208 0.90497 0.0
O114 O 0.90479 0.10673 0.9377 0.0
Mg115 Mg 0.92616 0.09838 0.75675 0.0
C116 C 0.88977 0.12206 0.97549 0.0
C117 C 0.9002 0.22917 0.8226 0.0
O118 O 0.89621 0.25542 0.80616 0.0
O119 O 0.9592 0.19481 0.73971 0.0
O120 O 0.97059 0.15267 0.75109 0.0
O121 O 0.85328 0.11924 0.62268 0.0
O122 O 0.89928 0.11745 0.65015 0.0
C123 C 0.98007 0.18428 0.74478 0.0
C124 C 0.86889 0.10252 0.61355 0.0
O125 O 0.89484 0.20912 0.73216 0.0
Mg126 Mg 0.74584 0.8458 0.77978 0.0
O127 O 0.75013 0.86673 0.57623 0.0
O128 O 0.80506 0.9023 0.54408 0.0
Mg129 Mg 0.83467 0.91038 0.72465 0.0
C130 C 0.77473 0.88693 0.50607 0.0
C131 C 0.67775 0.77829 0.66114 0.0
O132 O 0.64769 0.75188 0.6806 0.0
O133 O 0.77103 0.81423 0.73996 0.0
O134 O 0.82477 0.85609 0.72754 0.0
O135 O 0.74069 0.88948 0.85888 0.0
O136 O 0.78852 0.8913 0.83111 0.0
C137 C 0.80237 0.82453 0.73346 0.0
C138 C 0.77306 0.90621 0.86793 0.0
O139 O 0.69244 0.79928 0.74918 0.0
Mg140 Mg 0.20363 0.91489 0.74527 0.0
O141 O 0.17667 0.90159 0.55532 0.0
O142 O 0.13223 0.9088 0.5545 0.0
Mg143 Mg 0.14891 0.95091 0.70097 0.0
C144 C 0.14942 0.89685 0.50682 0.0
C145 C 0.24712 0.88933 0.58139 0.0
O146 O 0.26688 0.87656 0.57629 0.0
O147 O 0.24469 0.97197 0.71542 0.0
O148 O 0.20035 0.96741 0.6328 0.0
O149 O 0.15697 0.87006 0.81729 0.0
O150 O 0.16454 0.92194 0.82013 0.0
C151 C 0.22753 0.98568 0.69019 0.0
C152 C 0.14575 0.89017 0.8436 0.0
O153 O 0.23851 0.89483 0.68672 0.0
Mg154 Mg 0.08343 0.2809 0.79127 0.0
O155 O 0.10504 0.27509 0.60926 0.0
O156 O 0.10917 0.22822 0.60645 0.0
Mg157 Mg 0.08663 0.201 0.7908 0.0
C158 C 0.11396 0.25577 0.55726 0.0
C159 C 0.08517 0.34261 0.62382 0.0
O160 O 0.08751 0.37249 0.61725 0.0
O161 O 0.02884 0.24053 0.74304 0.0
O162 O 0.03485 0.19487 0.76154 0.0
O163 O 0.1342 0.30462 0.87567 0.0
O164 O 0.09809 0.24934 0.86957 0.0
C165 C 0.01654 0.20821 0.74764 0.0
C166 C 0.12706 0.2738 0.89906 0.0
O167 O 0.08132 0.32848 0.72884 0.0
Mg168 Mg 0.82311 0.57453 0.48414 0.0
O169 O 0.86126 0.63062 0.43103 0.0
O170 O 0.82663 0.64996 0.39245 0.0
Mg171 Mg 0.77252 0.61522 0.45073 0.0
C172 C 0.85556 0.6531 0.38632 0.0
C173 C 0.86279 0.54061 0.47577 0.0
O174 O 0.83674 0.52396 0.40303 0.0
O175 O 0.81216 0.5833 0.68505 0.0
O176 O 0.78108 0.60741 0.65163 0.0
O177 O 0.81836 0.56766 0.2795 0.0
O178 O 0.78404 0.576 0.39874 0.0
C179 C 0.79419 0.59545 0.7242 0.0
C180 C 0.79432 0.57414 0.29064 0.0
O181 O 0.86642 0.56654 0.5333 0.0
Mg182 Mg 0.42719 0.25756 0.56132 0.0
O183 O 0.37934 0.21508 0.47815 0.0
O184 O 0.34488 0.22705 0.58257 0.0
Mg185 Mg 0.36855 0.24815 0.77903 0.0
C186 C 0.35091 0.21288 0.49146 0.0
C187 C 0.45102 0.26657 0.26448 0.0
O188 O 0.47183 0.28728 0.18006 0.0
O189 O 0.40736 0.29354 0.5252 0.0
O190 O 0.40482 0.30381 0.72096 0.0
O191 O 0.44487 0.22477 0.65666 0.0
O192 O 0.40733 0.23445 0.73915 0.0
C193 C 0.41286 0.31463 0.61092 0.0
C194 C 0.42711 0.22262 0.75224 0.0
O195 O 0.45306 0.27788 0.37342 0.0
Mg196 Mg 0.7564 0.17918 0.49984 0.0
O197 O 0.7767 0.14249 0.46922 0.0
O198 O 0.83237 0.17619 0.44142 0.0
Mg199 Mg 0.84797 0.23172 0.46629 0.0
C200 C 0.80561 0.14699 0.44067 0.0
C201 C 0.69045 0.15047 0.62612 0.0
O202 O 0.70794 0.18255 0.65999 0.0
O203 O 0.77573 0.19479 0.69738 0.0
O204 O 0.8313 0.22593 0.66574 0.0
O205 O 0.75328 0.1766 0.29603 0.0
O206 O 0.79674 0.21485 0.40842 0.0
C207 C 0.80576 0.21338 0.73655 0.0
C208 C 0.78461 0.20017 0.30479 0.0
O209 O 0.70445 0.13803 0.56073 0.0
Mg210 Mg 0.92309 0.5011 0.61887 0.0
O211 O 0.98028 0.53749 0.6529 0.0
O212 O 1.00153 0.50304 0.67525 0.0
Mg213 Mg 0.96122 0.44776 0.64662 0.0
C214 C 1.00438 0.53237 0.68004 0.0
C215 C 0.88316 0.52537 0.50437 0.0
O216 O 0.87059 0.49283 0.48106 0.0
O217 O 0.92684 0.48643 0.41967 0.0
O218 O 0.94979 0.45398 0.44851 0.0
O219 O 0.9214 0.50229 0.82243 0.0
O220 O 0.92736 0.46499 0.70673 0.0
C221 C 0.93726 0.46714 0.37897 0.0
C222 C 0.92925 0.47886 0.81159 0.0
O223 O 0.91097 0.54151 0.56115 0.0
Mg224 Mg 0.51709 0.4069 0.64562 0.0
O225 O 0.50519 0.44459 0.73513 0.0
O226 O 0.46403 0.44004 0.61447 0.0
Mg227 Mg 0.46853 0.42056 0.41906 0.0
C228 C 0.48045 0.44895 0.71608 0.0
C229 C 0.5318 0.39986 0.94625 0.0
O230 O 0.53406 0.38043 0.0306 0.0
O231 O 0.46201 0.36501 0.6681 0.0
O232 O 0.43896 0.36471 0.48726 0.0
O233 O 0.56719 0.44646 0.55352 0.0
O234 O 0.51835 0.42812 0.46906 0.0
C235 C 0.43836 0.35062 0.58977 0.0
C236 C 0.55046 0.44653 0.45819 0.0
O237 O 0.52436 0.38859 0.83618 0.0
Mg238 Mg 0.57959 0.08341 0.63321 0.0
O239 O 0.57512 0.03139 0.68293 0.0
O240 O 0.53052 0.01236 0.57479 0.0
Mg241 Mg 0.48911 0.02166 0.62876 0.0
C242 C 0.54571 0.00731 0.66159 0.0
C243 C 0.65446 0.13106 0.65266 0.0
O244 O 0.6418 0.14266 0.73462 0.0
O245 O 0.56006 0.07658 0.42801 0.0
O246 O 0.50373 0.05057 0.45155 0.0
O247 O 0.57583 0.08761 0.83867 0.0
O248 O 0.53271 0.06652 0.71047 0.0
C249 C 0.53041 0.06752 0.38752 0.0
C250 C 0.54373 0.07147 0.8208 0.0
O251 O 0.63478 0.10541 0.58776 0.0
Mg252 Mg 0.469 0.05396 0.03408 0.0
O253 O 0.49671 0.05798 0.21352 0.0
O254 O 0.54771 0.10507 0.21596 0.0
Mg255 Mg 0.55185 0.13463 0.03853 0.0
C256 C 0.52535 0.07696 0.26361 0.0
C257 C 0.40852 0.98971 0.19658 0.0
O258 O 0.38252 0.95859 0.19778 0.0
O259 O 0.45393 0.09301 0.09324 0.0
O260 O 0.50554 0.13905 0.07535 0.0
O261 O 0.49658 0.03235 0.93969 0.0
O262 O 0.51503 0.08734 0.95391 0.0
C263 C 0.47387 0.12541 0.09147 0.0
C264 C 0.51981 0.0635 0.91834 0.0
O265 O 0.42058 0.00427 0.09329 0.0
Mg266 Mg 0.96123 0.43216 0.01467 0.0
O267 O 0.95264 0.45091 0.19721 0.0
O268 O 0.90156 0.44459 0.20674 0.0
Mg269 Mg 0.87446 0.41788 0.02796 0.0
C270 C 0.93068 0.45518 0.25161 0.0
C271 C 0.02711 0.44758 0.18015 0.0
O272 O 0.05849 0.45535 0.18663 0.0
O273 O 0.93049 0.37482 0.06243 0.0
O274 O 0.88074 0.37187 0.04995 0.0
O275 O 0.97347 0.48199 0.93129 0.0
O276 O 0.92272 0.43686 0.94236 0.0
C277 C 0.89835 0.35765 0.05909 0.0
C278 C 0.94156 0.46781 0.91136 0.0
O279 O 0.01279 0.44061 0.07516 0.0
Mg280 Mg 0.57171 0.49661 0.05877 0.0
O281 O 0.55794 0.47604 0.26422 0.0
O282 O 0.58735 0.45029 0.29839 0.0
Mg283 Mg 0.6099 0.44452 0.11286 0.0
C284 C 0.56728 0.46001 0.33587 0.0
C285 C 0.5681 0.56096 0.17926 0.0
O286 O 0.56397 0.58719 0.16479 0.0
O287 O 0.6281 0.53494 0.07988 0.0
O288 O 0.64947 0.50066 0.07281 0.0
O289 O 0.52533 0.44852 -0.01376 0.0
O290 O 0.5749 0.45419 0.0103 0.0
C291 C 0.65278 0.53019 0.06523 0.0
C292 C 0.54448 0.43564 0.97617 0.0
O293 O 0.56055 0.53992 0.09046 0.0
Mg294 Mg 0.4048 0.17029 0.14756 0.0
O295 O 0.40913 0.19261 0.94637 0.0
O296 O 0.46401 0.2275 0.91147 0.0
Mg297 Mg 0.4934 0.23514 0.0924 0.0
C298 C 0.43354 0.21254 0.87516 0.0
C299 C 0.33811 0.10709 0.01613 0.0
O300 O 0.30832 0.07952 0.02354 0.0
O301 O 0.42987 0.13862 0.10382 0.0
O302 O 0.48346 0.18087 0.09413 0.0
O303 O 0.39926 0.21332 0.22919 0.0
O304 O 0.44727 0.21548 0.19955 0.0
C305 C 0.46129 0.14921 0.09857 0.0
C306 C 0.43167 0.23021 0.2367 0.0
O307 O 0.3518 0.12393 0.114 0.0
Mg308 Mg 0.86431 0.24428 0.1017 0.0
O309 O 0.83768 0.22779 0.91714 0.0
O310 O 0.79407 0.23616 0.91172 0.0
Mg311 Mg 0.79418 0.26249 0.09199 0.0
C312 C 0.81183 0.22493 0.86429 0.0
C313 C 0.91446 0.22614 0.939 0.0
O314 O 0.93725 0.21715 0.93746 0.0
O315 O 0.89302 0.30208 0.05804 0.0
O316 O 0.84734 0.30705 0.07185 0.0
O317 O 0.82442 0.19469 0.18348 0.0
O318 O 0.82168 0.24134 0.17424 0.0
C319 C 0.87909 0.32024 0.06289 0.0
C320 C 0.80804 0.21022 0.20463 0.0
O321 O 0.90625 0.23343 0.04206 0.0
Mg322 Mg 0.75263 0.61393 0.09118 0.0
O323 O 0.77015 0.60702 0.89685 0.0
O324 O 0.77329 0.5595 0.89802 0.0
Mg325 Mg 0.73097 0.52588 0.03455 0.0
C326 C 0.78082 0.58829 0.85097 0.0
C327 C 0.76435 0.68488 0.9535 0.0
O328 O 0.77617 0.71783 0.95986 0.0
O329 O 0.69566 0.58921 0.05475 0.0
O330 O 0.70543 0.55288 0.96258 0.0
O331 O 0.79949 0.61889 0.16497 0.0
O332 O 0.75211 0.56949 0.16189 0.0
C333 C 0.68529 0.55868 0.02244 0.0
C334 C 0.78328 0.58662 0.18928 0.0
O335 O 0.76669 0.66943 0.04757 0.0
Mg336 Mg 0.49013 0.90697 0.85852 0.0
O337 O 0.52982 0.96255 0.80658 0.0
O338 O 0.49654 0.98389 0.77545 0.0
Mg339 Mg 0.44258 0.95171 0.83615 0.0
C340 C 0.52481 0.98577 0.76469 0.0
C341 C 0.52538 0.8686 0.84445 0.0
O342 O 0.4984 0.85277 0.77558 0.0
O343 O 0.4809 0.91568 0.05991 0.0
O344 O 0.45107 0.94146 0.03248 0.0
O345 O 0.48419 0.90071 0.65525 0.0
O346 O 0.4527 0.91195 0.78041 0.0
C347 C 0.46362 0.9283 0.10179 0.0
C348 C 0.46234 0.9101 0.67133 0.0
O349 O 0.53132 0.8955 0.90098 0.0
Mg350 Mg 0.11079 0.60098 0.82692 0.0
O351 O 0.06139 0.56276 0.73767 0.0
O352 O 0.02386 0.56517 0.86049 0.0
Mg353 Mg 0.04756 0.58488 0.0552 0.0
C354 C 0.0319 0.55721 0.75784 0.0
C355 C 0.13185 0.60787 0.52465 0.0
O356 O 0.15316 0.62758 0.43947 0.0
O357 O 0.09706 0.64251 0.80858 0.0
O358 O 0.07193 0.64059 -0.01294 0.0
O359 O 0.12118 0.56122 0.91679 0.0
O360 O 0.09165 0.58026 0.00497 0.0
C361 C 0.08612 0.65559 0.88631 0.0
C362 C 0.1046 0.56116 0.01316 0.0
O363 O 0.13564 0.61922 0.63464 0.0
Mg364 Mg 0.42645 0.50407 0.85436 0.0
O365 O 0.44779 0.46808 0.82025 0.0
O366 O 0.5035 0.50319 0.7972 0.0
Mg367 Mg 0.51793 0.55835 0.82415 0.0
C368 C 0.47723 0.47364 0.79308 0.0
C369 C 0.36238 0.48087 0.96522 0.0
O370 O 0.3829 0.51354 -0.01532 0.0
O371 O 0.4451 0.51938 0.05334 0.0
O372 O 0.50052 0.55239 0.0229 0.0
O373 O 0.42332 0.5025 0.65088 0.0
O374 O 0.46661 0.54024 0.76523 0.0
C375 C 0.47485 0.53909 0.09317 0.0
C376 C 0.45457 0.52619 0.66072 0.0
O377 O 0.37366 0.46375 0.91277 0.0
Mg378 Mg 0.58442 0.82692 -0.01399 0.0
O379 O 0.64124 0.86441 0.01424 0.0
O380 O 0.66399 0.83147 0.0409 0.0
Mg381 Mg 0.62467 0.77566 0.0165 0.0
C382 C 0.66594 0.86042 0.04208 0.0
C383 C 0.54465 0.85199 0.8695 0.0
O384 O 0.53107 0.81942 0.84439 0.0
O385 O 0.5879 0.81143 0.7879 0.0
O386 O 0.61281 0.78082 0.81793 0.0
O387 O 0.58397 0.82949 0.18973 0.0
O388 O 0.58994 0.79184 0.0763 0.0
C389 C 0.59936 0.79294 0.74796 0.0
C390 C 0.59227 0.80637 0.18014 0.0
O391 O 0.57241 0.8671 0.9267 0.0
Mg392 Mg 0.16714 0.74574 0.91666 0.0
O393 O 0.16474 0.78949 0.00172 0.0
O394 O 0.11833 0.7798 0.90328 0.0
Mg395 Mg 0.11942 0.75865 0.70443 0.0
C396 C 0.13929 0.79314 -0.0074 0.0
C397 C 0.17937 0.73581 0.21428 0.0
O398 O 0.17806 0.71486 0.30031 0.0
O399 O 0.11097 0.71227 0.95314 0.0
O400 O 0.09839 0.70242 0.75772 0.0
O401 O 0.21786 0.77651 0.81929 0.0
O402 O 0.17142 0.76967 0.73962 0.0
C403 C 0.0954 0.69129 0.86725 0.0
C404 C 0.20271 0.77983 0.72491 0.0
O405 O 0.17093 0.72451 0.10484 0.0
Mg406 Mg 0.25392 0.43634 -0.0096 0.0
O407 O 0.2319 0.37945 0.04131 0.0
O408 O 0.17864 0.3634 0.0848 0.0
Mg409 Mg 0.16351 0.40176 0.03111 0.0
C410 C 0.20324 0.35822 0.08701 0.0
C411 C 0.32683 0.46662 -0.00559 0.0
O412 O 0.31835 0.48426 0.06616 0.0
O413 O 0.23323 0.42844 0.79115 0.0
O414 O 0.17844 0.40719 0.82828 0.0
O415 O 0.2574 0.44284 0.19512 0.0
O416 O 0.21552 0.43818 0.0803 0.0
C417 C 0.20313 0.41748 0.75398 0.0
C418 C 0.22765 0.43867 0.18716 0.0
O419 O 0.30384 0.44093 0.93784 0.0
Mg420 Mg 0.14527 0.39748 0.38145 0.0
O421 O 0.16786 0.40478 0.57956 0.0
O422 O 0.21808 0.45303 0.57971 0.0
Mg423 Mg 0.20933 0.48595 0.4412 0.0
C424 C 0.197 0.42412 0.62665 0.0
C425 C 0.08514 0.32531 0.51068 0.0
O426 O 0.06346 0.29259 0.49933 0.0
O427 O 0.1115 0.42074 0.4114 0.0
O428 O 0.15617 0.45794 0.50903 0.0
O429 O 0.18878 0.39396 0.31499 0.0
O430 O 0.18916 0.44248 0.31379 0.0
C431 C 0.13048 0.45131 0.44613 0.0
C432 C 0.20418 0.42614 0.2892 0.0
O433 O 0.10382 0.34156 0.41919 0.0
Mg434 Mg 0.62659 0.76149 0.38258 0.0
O435 O 0.61642 0.7781 0.56691 0.0
O436 O 0.56465 0.77027 0.57342 0.0
Mg437 Mg 0.53851 0.74438 0.39251 0.0
C438 C 0.59361 0.78121 0.62039 0.0
C439 C 0.69489 0.78022 0.54506 0.0
O440 O 0.72663 0.78901 0.54661 0.0
O441 O 0.59654 0.70354 0.42437 0.0
O442 O 0.54617 0.69923 0.4102 0.0
O443 O 0.63719 0.8113 0.3012 0.0
O444 O 0.58734 0.76503 0.3106 0.0
C445 C 0.5644 0.68569 0.41836 0.0
C446 C 0.60526 0.79612 0.28028 0.0
O447 O 0.67921 0.77194 0.44251 0.0
Mg448 Mg 0.23329 0.83221 0.32994 0.0
O449 O 0.21575 0.81034 0.53185 0.0
O450 O 0.23297 0.7731 0.56241 0.0
Mg451 Mg 0.25315 0.76444 0.37872 0.0
C452 C 0.21906 0.78944 0.6013 0.0
C453 C 0.2366 0.8983 0.46699 0.0
O454 O 0.23658 0.92705 0.46139 0.0
O455 O 0.29031 0.86183 0.36745 0.0
O456 O 0.29888 0.81782 0.37556 0.0
O457 O 0.18322 0.79011 0.25262 0.0
O458 O 0.22818 0.78609 0.27481 0.0
C459 C 0.3099 0.84979 0.37098 0.0
C460 C 0.19766 0.77228 0.24107 0.0
O461 O 0.23009 0.8803 0.36966 0.0
Mg462 Mg 0.07654 0.51084 0.41218 0.0
O463 O 0.083 0.53131 0.20689 0.0
O464 O 0.1383 0.5584 0.17203 0.0
Mg465 Mg 0.16684 0.56486 0.35697 0.0
C466 C 0.10834 0.54787 0.13495 0.0
C467 C 0.00868 0.44558 0.29299 0.0
O468 O 0.97834 0.41926 0.30852 0.0
O469 O 0.09576 0.47352 0.38932 0.0
O470 O 0.1513 0.50903 0.39622 0.0
O471 O 0.07715 0.55831 0.48555 0.0
O472 O 0.12178 0.55394 0.46048 0.0
C473 C 0.12552 0.47914 0.40356 0.0
C474 C 0.10931 0.5719 0.49525 0.0
O475 O 0.02223 0.4668 0.38122 0.0
Mg476 Mg 0.53348 0.57332 0.45815 0.0
O477 O 0.50643 0.55509 0.27484 0.0
O478 O 0.46189 0.56176 0.26611 0.0
Mg479 Mg 0.46136 0.58802 0.44628 0.0
C480 C 0.48031 0.55108 0.22062 0.0
C481 C 0.58447 0.55882 0.29166 0.0
O482 O 0.60826 0.55134 0.28443 0.0
O483 O 0.56051 0.63086 0.41407 0.0
O484 O 0.51393 0.6342 0.42747 0.0
O485 O 0.49555 0.52319 0.53929 0.0
O486 O 0.49013 0.56839 0.53049 0.0
C487 C 0.54581 0.64824 0.41925 0.0
C488 C 0.47785 0.53735 0.56029 0.0
O489 O 0.5768 0.56528 0.39712 0.0
Mg490 Mg 0.41443 0.93924 0.45672 0.0
O491 O 0.44005 0.93865 0.27689 0.0
O492 O 0.44105 0.89016 0.26817 0.0
Mg493 Mg 0.41082 0.85581 0.43011 0.0
C494 C 0.4496 0.91967 0.22652 0.0
C495 C 0.42131 0.00775 0.31293 0.0
O496 O 0.43067 0.04017 0.31914 0.0
O497 O 0.36046 0.90463 0.3855 0.0
O498 O 0.36294 0.85673 0.39218 0.0
O499 O 0.46143 0.95397 0.55755 0.0
O500 O 0.42138 0.90081 0.53 0.0
C501 C 0.3465 0.87209 0.37897 0.0
C502 C 0.45023 0.92182 0.57227 0.0
O503 O 0.42162 0.99235 0.41066 0.0
loop_
_geom_bond_atom_site_label_1
_geom_bond_atom_site_label_2
_geom_bond_distance
_geom_bond_site_symmetry_2
_ccdc_geom_bond_type
Mg0 O1 2.028 . S
Mg0 O7 1.986 . S
Mg0 O9 2.114 . S
Mg0 O10 2.251 . S
Mg0 O13 2.010 . S
O1 Mg0 2.028 . S
O1 C4 1.250 . S
O2 Mg3 2.028 . S
O2 C4 1.248 . S
Mg3 O2 2.028 . S
Mg3 O8 2.032 . S
Mg3 O10 2.079 . S
C4 O1 1.250 . S
C4 O2 1.248 . S
C5 O6 1.264 . S
C5 O13 1.249 . S
O6 C5 1.264 . S
O7 Mg0 1.986 . S
O7 C11 1.246 . S
O8 Mg3 2.032 . S
O8 C11 1.259 . S
O9 Mg0 2.114 . S
O9 C12 1.252 1_554 S
O10 Mg0 2.251 . S
O10 Mg3 2.079 . S
O10 C12 1.273 1_554 S
C11 O7 1.246 . S
C11 O8 1.259 . S
C12 O9 1.252 1_556 S
C12 O10 1.273 1_556 S
O13 Mg0 2.010 . S
O13 C5 1.249 . S
Mg14 O15 2.028 . S
Mg14 O21 1.986 . S
Mg14 O23 2.114 . S
Mg14 O24 2.251 . S
Mg14 O27 2.010 . S
O15 Mg14 2.028 . S
O15 C18 1.250 . S
O16 Mg17 2.028 . S
O16 C18 1.248 . S
Mg17 O16 2.028 . S
Mg17 O22 2.032 . S
Mg17 O24 2.079 . S
C18 O15 1.250 . S
C18 O16 1.248 . S
C19 O20 1.264 . S
C19 O27 1.249 1_556 S
O20 C19 1.264 . S
O21 Mg14 1.986 . S
O21 C25 1.246 . S
O22 Mg17 2.032 . S
O22 C25 1.259 . S
O23 Mg14 2.114 . S
O23 C26 1.252 . S
O24 Mg14 2.251 . S
O24 Mg17 2.079 . S
O24 C26 1.273 . S
C25 O21 1.246 . S
C25 O22 1.259 . S
C26 O23 1.252 . S
C26 O24 1.273 . S
O27 Mg14 2.010 . S
O27 C19 1.249 1_554 S
Mg28 O29 2.028 . S
Mg28 O35 1.986 . S
Mg28 O37 2.114 1_554 S
Mg28 O38 2.251 . S
Mg28 O41 2.010 . S
O29 Mg28 2.028 . S
O29 C32 1.250 . S
O30 Mg31 2.028 . S
O30 C32 1.248 . S
Mg31 O30 2.028 . S
Mg31 O36 2.032 . S
Mg31 O38 2.079 . S
C32 O29 1.250 . S
C32 O30 1.248 . S
C33 O34 1.264 1_455 S
C33 O41 1.249 . S
O34 C33 1.264 1_655 S
O35 Mg28 1.986 . S
O35 C39 1.246 . S
O36 Mg31 2.032 . S
O36 C39 1.259 . S
O37 Mg28 2.114 1_556 S
O37 C40 1.252 . S
O38 Mg28 2.251 . S
O38 Mg31 2.079 . S
O38 C40 1.273 1_554 S
C39 O35 1.246 . S
C39 O36 1.259 . S
C40 O37 1.252 . S
C40 O38 1.273 1_556 S
O41 Mg28 2.010 . S
O41 C33 1.249 . S
Mg42 O43 2.028 . S
Mg42 O49 1.986 . S
Mg42 O51 2.114 . S
Mg42 O52 2.251 . S
Mg42 O55 2.010 . S
O43 Mg42 2.028 . S
O43 C46 1.250 . S
O44 Mg45 2.028 . S
O44 C46 1.248 . S
Mg45 O44 2.028 . S
Mg45 O50 2.032 . S
Mg45 O52 2.079 . S
C46 O43 1.250 . S
C46 O44 1.248 . S
C47 O48 1.264 . S
C47 O55 1.249 . S
O48 C47 1.264 . S
O49 Mg42 1.986 . S
O49 C53 1.246 . S
O50 Mg45 2.032 . S
O50 C53 1.259 . S
O51 Mg42 2.114 . S
O51 C54 1.252 . S
O52 Mg42 2.251 . S
O52 Mg45 2.079 . S
O52 C54 1.273 . S
C53 O49 1.246 . S
C53 O50 1.259 . S
C54 O51 1.252 . S
C54 O52 1.273 . S
O55 Mg42 2.010 . S
O55 C47 1.249 . S
Mg56 O57 2.028 . S
Mg56 O63 1.986 . S
Mg56 O65 2.114 . S
Mg56 O66 2.251 . S
Mg56 O69 2.010 . S
O57 Mg56 2.028 . S
O57 C60 1.250 . S
O58 Mg59 2.028 . S
O58 C60 1.248 . S
Mg59 O58 2.028 . S
Mg59 O64 2.032 . S
Mg59 O66 2.079 . S
C60 O57 1.250 . S
C60 O58 1.248 . S
C61 O62 1.264 . S
C61 O69 1.249 . S
O62 C61 1.264 . S
O63 Mg56 1.986 . S
O63 C67 1.246 . S
O64 Mg59 2.032 . S
O64 C67 1.259 . S
O65 Mg56 2.114 . S
O65 C68 1.252 . S
O66 Mg56 2.251 . S
O66 Mg59 2.079 . S
O66 C68 1.273 . S
C67 O63 1.246 . S
C67 O64 1.259 . S
C68 O65 1.252 . S
C68 O66 1.273 . S
O69 Mg56 2.010 . S
O69 C61 1.249 . S
Mg70 O71 2.028 . S
Mg70 O77 1.986 . S
Mg70 O79 2.114 . S
Mg70 O80 2.251 . S
Mg70 O83 2.010 . S
O71 Mg70 2.028 . S
O71 C74 1.250 . S
O72 Mg73 2.028 . S
O72 C74 1.248 . S
Mg73 O72 2.028 . S
Mg73 O78 2.032 . S
Mg73 O80 2.079 . S
C74 O71 1.250 . S
C74 O72 1.248 . S
C75 O76 1.264 1_655 S
C75 O83 1.249 . S
O76 C75 1.264 1_455 S
O77 Mg70 1.986 . S
O77 C81 1.246 . S
O78 Mg73 2.032 . S
O78 C81 1.259 . S
O79 Mg70 2.114 . S
O79 C82 1.252 . S
O80 Mg70 2.251 . S
O80 Mg73 2.079 . S
O80 C82 1.273 . S
C81 O77 1.246 . S
C81 O78 1.259 . S
C82 O79 1.252 . S
C82 O80 1.273 . S
O83 Mg70 2.010 . S
O83 C75 1.249 . S
Mg84 O85 2.028 . S
Mg84 O91 1.986 . S
Mg84 O93 2.114 . S
Mg84 O94 2.251 . S
Mg84 O97 2.010 . S
O85 Mg84 2.028 . S
O85 C88 1.250 . S
O86 Mg87 2.028 . S
O86 C88 1.248 . S
Mg87 O86 2.028 . S
Mg87 O92 2.032 . S
Mg87 O94 2.079 . S
C88 O85 1.250 . S
C88 O86 1.248 . S
C89 O90 1.264 . S
C89 O97 1.249 . S
O90 C89 1.264 . S
O91 Mg84 1.986 . S
O91 C95 1.246 . S
O92 Mg87 2.032 . S
O92 C95 1.259 . S
O93 Mg84 2.114 . S
O93 C96 1.252 . S
O94 Mg84 2.251 . S
O94 Mg87 2.079 . S
O94 C96 1.273 . S
C95 O91 1.246 . S
C95 O92 1.259 . S
C96 O93 1.252 . S
C96 O94 1.273 . S
O97 Mg84 2.010 . S
O97 C89 1.249 . S
Mg98 O99 2.028 . S
Mg98 O105 1.986 . S
Mg98 O107 2.114 . S
Mg98 O108 2.251 . S
Mg98 O111 2.010 . S
O99 Mg98 2.028 . S
O99 C102 1.250 . S
O100 Mg101 2.028 . S
O100 C102 1.248 . S
Mg101 O100 2.028 . S
Mg101 O106 2.032 . S
Mg101 O108 2.079 . S
C102 O99 1.250 . S
C102 O100 1.248 . S
C103 O104 1.264 . S
C103 O111 1.249 . S
O104 C103 1.264 . S
O105 Mg98 1.986 . S
O105 C109 1.246 . S
O106 Mg101 2.032 . S
O106 C109 1.259 . S
O107 Mg98 2.114 . S
O107 C110 1.252 . S
O108 Mg98 2.251 . S
O108 Mg101 2.079 . S
O108 C110 1.273 . S
C109 O105 1.246 . S
C109 O106 1.259 . S
C110 O107 1.252 . S
C110 O108 1.273 . S
O111 Mg98 2.010 . S
O111 C103 1.249 . S
Mg112 O113 2.028 . S
Mg112 O119 1.986 . S
Mg112 O121 2.114 . S
Mg112 O122 2.251 . S
Mg112 O125 2.010 . S
O113 Mg112 2.028 . S
O113 C116 1.250 1_556 S
O114 Mg115 2.028 . S
O114 C116 1.248 1_556 S
Mg115 O114 2.028 . S
Mg115 O120 2.032 . S
Mg115 O122 2.079 . S
C116 O113 1.250 1_554 S
C116 O114 1.248 1_554 S
C117 O118 1.264 . S
C117 O125 1.249 . S
O118 C117 1.264 . S
O119 Mg112 1.986 . S
O119 C123 1.246 . S
O120 Mg115 2.032 . S
O120 C123 1.259 . S
O121 Mg112 2.114 . S
O121 C124 1.252 . S
O122 Mg112 2.251 . S
O122 Mg115 2.079 . S
O122 C124 1.273 . S
C123 O119 1.246 . S
C123 O120 1.259 . S
C124 O121 1.252 . S
C124 O122 1.273 . S
O125 Mg112 2.010 . S
O125 C117 1.249 . S
Mg126 O127 2.028 . S
Mg126 O133 1.986 . S
Mg126 O135 2.114 . S
Mg126 O136 2.251 . S
Mg126 O139 2.010 . S
O127 Mg126 2.028 . S
O127 C130 1.250 . S
O128 Mg129 2.028 . S
O128 C130 1.248 . S
Mg129 O128 2.028 . S
Mg129 O134 2.032 . S
Mg129 O136 2.079 . S
C130 O127 1.250 . S
C130 O128 1.248 . S
C131 O132 1.264 . S
C131 O139 1.249 . S
O132 C131 1.264 . S
O133 Mg126 1.986 . S
O133 C137 1.246 . S
O134 Mg129 2.032 . S
O134 C137 1.259 . S
O135 Mg126 2.114 . S
O135 C138 1.252 . S
O136 Mg126 2.251 . S
O136 Mg129 2.079 . S
O136 C138 1.273 . S
C137 O133 1.246 . S
C137 O134 1.259 . S
C138 O135 1.252 . S
C138 O136 1.273 . S
O139 Mg126 2.010 . S
O139 C131 1.249 . S
Mg140 O141 2.028 . S
Mg140 O147 1.986 . S
Mg140 O149 2.114 . S
Mg140 O150 2.251 . S
Mg140 O153 2.010 . S
O141 Mg140 2.028 . S
O141 C144 1.250 . S
O142 Mg143 2.028 . S
O142 C144 1.248 . S
Mg143 O142 2.028 . S
Mg143 O148 2.032 . S
Mg143 O150 2.079 . S
C144 O141 1.250 . S
C144 O142 1.248 . S
C145 O146 1.264 . S
C145 O153 1.249 . S
O146 C145 1.264 . S
O147 Mg140 1.986 . S
O147 C151 1.246 . S
O148 Mg143 2.032 . S
O148 C151 1.259 . S
O149 Mg140 2.114 . S
O149 C152 1.252 . S
O150 Mg140 2.251 . S
O150 Mg143 2.079 . S
O150 C152 1.273 . S
C151 O147 1.246 . S
C151 O148 1.259 . S
C152 O149 1.252 . S
C152 O150 1.273 . S
O153 Mg140 2.010 . S
O153 C145 1.249 . S
Mg154 O155 2.028 . S
Mg154 O161 1.986 . S
Mg154 O163 2.114 . S
Mg154 O164 2.251 . S
Mg154 O167 2.010 . S
O155 Mg154 2.028 . S
O155 C158 1.250 . S
O156 Mg157 2.028 . S
O156 C158 1.248 . S
Mg157 O156 2.028 . S
Mg157 O162 2.032 . S
Mg157 O164 2.079 . S
C158 O155 1.250 . S
C158 O156 1.248 . S
C159 O160 1.264 . S
C159 O167 1.249 . S
O160 C159 1.264 . S
O161 Mg154 1.986 . S
O161 C165 1.246 . S
O162 Mg157 2.032 . S
O162 C165 1.259 . S
O163 Mg154 2.114 . S
O163 C166 1.252 . S
O164 Mg154 2.251 . S
O164 Mg157 2.079 . S
O164 C166 1.273 . S
C165 O161 1.246 . S
C165 O162 1.259 . S
C166 O163 1.252 . S
C166 O164 1.273 . S
O167 Mg154 2.010 . S
O167 C159 1.249 . S
Mg168 O169 2.028 . S
Mg168 O175 1.986 . S
Mg168 O177 2.114 . S
Mg168 O178 2.251 . S
Mg168 O181 2.010 . S
O169 Mg168 2.028 . S
O169 C172 1.250 . S
O170 Mg171 2.028 . S
O170 C172 1.248 . S
Mg171 O170 2.028 . S
Mg171 O176 2.032 . S
Mg171 O178 2.079 . S
C172 O169 1.250 . S
C172 O170 1.248 . S
C173 O174 1.264 . S
C173 O181 1.249 . S
O174 C173 1.264 . S
O175 Mg168 1.986 . S
O175 C179 1.246 . S
O176 Mg171 2.032 . S
O176 C179 1.259 . S
O177 Mg168 2.114 . S
O177 C180 1.252 . S
O178 Mg168 2.251 . S
O178 Mg171 2.079 . S
O178 C180 1.273 . S
C179 O175 1.246 . S
C179 O176 1.259 . S
C180 O177 1.252 . S
C180 O178 1.273 . S
O181 Mg168 2.010 . S
O181 C173 1.249 . S
Mg182 O183 2.028 . S
Mg182 O189 1.986 . S
Mg182 O191 2.114 . S
Mg182 O192 2.251 . S
Mg182 O195 2.010 . S
O183 Mg182 2.028 . S
O183 C186 1.250 . S
O184 Mg185 2.028 . S
O184 C186 1.248 . S
Mg185 O184 2.028 . S
Mg185 O190 2.032 . S
Mg185 O192 2.079 . S
C186 O183 1.250 . S
C186 O184 1.248 . S
C187 O188 1.264 . S
C187 O195 1.249 . S
O188 C187 1.264 . S
O189 Mg182 1.986 . S
O189 C193 1.246 . S
O190 Mg185 2.032 . S
O190 C193 1.259 . S
O191 Mg182 2.114 . S
O191 C194 1.252 . S
O192 Mg182 2.251 . S
O192 Mg185 2.079 . S
O192 C194 1.273 . S
C193 O189 1.246 . S
C193 O190 1.259 . S
C194 O191 1.252 . S
C194 O192 1.273 . S
O195 Mg182 2.010 . S
O195 C187 1.249 . S
Mg196 O197 2.028 . S
Mg196 O203 1.986 . S
Mg196 O205 2.114 . S
Mg196 O206 2.251 . S
Mg196 O209 2.010 . S
O197 Mg196 2.028 . S
O197 C200 1.250 . S
O198 Mg199 2.028 . S
O198 C200 1.248 . S
Mg199 O198 2.028 . S
Mg199 O204 2.032 . S
Mg199 O206 2.079 . S
C200 O197 1.250 . S
C200 O198 1.248 . S
C201 O202 1.264 . S
C201 O209 1.249 . S
O202 C201 1.264 . S
O203 Mg196 1.986 . S
O203 C207 1.246 . S
O204 Mg199 2.032 . S
O204 C207 1.259 . S
O205 Mg196 2.114 . S
O205 C208 1.252 . S
O206 Mg196 2.251 . S
O206 Mg199 2.079 . S
O206 C208 1.273 . S
C207 O203 1.246 . S
C207 O204 1.259 . S
C208 O205 1.252 . S
C208 O206 1.273 . S
O209 Mg196 2.010 . S
O209 C201 1.249 . S
Mg210 O211 2.028 . S
Mg210 O217 1.986 . S
Mg210 O219 2.114 . S
Mg210 O220 2.251 . S
Mg210 O223 2.010 . S
O211 Mg210 2.028 . S
O211 C214 1.250 . S
O212 Mg213 2.028 . S
O212 C214 1.248 . S
Mg213 O212 2.028 . S
Mg213 O218 2.032 . S
Mg213 O220 2.079 . S
C214 O211 1.250 . S
C214 O212 1.248 . S
C215 O216 1.264 . S
C215 O223 1.249 . S
O216 C215 1.264 . S
O217 Mg210 1.986 . S
O217 C221 1.246 . S
O218 Mg213 2.032 . S
O218 C221 1.259 . S
O219 Mg210 2.114 . S
O219 C222 1.252 . S
O220 Mg210 2.251 . S
O220 Mg213 2.079 . S
O220 C222 1.273 . S
C221 O217 1.246 . S
C221 O218 1.259 . S
C222 O219 1.252 . S
C222 O220 1.273 . S
O223 Mg210 2.010 . S
O223 C215 1.249 . S
Mg224 O225 2.028 . S
Mg224 O231 1.986 . S
Mg224 O233 2.114 . S
Mg224 O234 2.251 . S
Mg224 O237 2.010 . S
O225 Mg224 2.028 . S
O225 C228 1.250 . S
O226 Mg227 2.028 . S
O226 C228 1.248 . S
Mg227 O226 2.028 . S
Mg227 O232 2.032 . S
Mg227 O234 2.079 . S
C228 O225 1.250 . S
C228 O226 1.248 . S
C229 O230 1.264 . S
C229 O237 1.249 . S
O230 C229 1.264 . S
O231 Mg224 1.986 . S
O231 C235 1.246 . S
O232 Mg227 2.032 . S
O232 C235 1.259 . S
O233 Mg224 2.114 . S
O233 C236 1.252 . S
O234 Mg224 2.251 . S
O234 Mg227 2.079 . S
O234 C236 1.273 . S
C235 O231 1.246 . S
C235 O232 1.259 . S
C236 O233 1.252 . S
C236 O234 1.273 . S
O237 Mg224 2.010 . S
O237 C229 1.249 . S
Mg238 O239 2.028 . S
Mg238 O245 1.986 . S
Mg238 O247 2.114 . S
Mg238 O248 2.251 . S
Mg238 O251 2.010 . S
O239 Mg238 2.028 . S
O239 C242 1.250 . S
O240 Mg241 2.028 . S
O240 C242 1.248 . S
Mg241 O240 2.028 . S
Mg241 O246 2.032 . S
Mg241 O248 2.079 . S
C242 O239 1.250 . S
C242 O240 1.248 . S
C243 O244 1.264 . S
C243 O251 1.249 . S
O244 C243 1.264 . S
O245 Mg238 1.986 . S
O245 C249 1.246 . S
O246 Mg241 2.032 . S
O246 C249 1.259 . S
O247 Mg238 2.114 . S
O247 C250 1.252 . S
O248 Mg238 2.251 . S
O248 Mg241 2.079 . S
O248 C250 1.273 . S
C249 O245 1.246 . S
C249 O246 1.259 . S
C250 O247 1.252 . S
C250 O248 1.273 . S
O251 Mg238 2.010 . S
O251 C243 1.249 . S
Mg252 O253 2.028 . S
Mg252 O259 1.986 . S
Mg252 O261 2.114 . S
Mg252 O262 2.251 1_554 S
Mg252 O265 2.010 . S
O253 Mg252 2.028 . S
O253 C256 1.250 . S
O254 Mg255 2.028 . S
O254 C256 1.248 . S
Mg255 O254 2.028 . S
Mg255 O260 2.032 . S
Mg255 O262 2.079 1_554 S
C256 O253 1.250 . S
C256 O254 1.248 . S
C257 O258 1.278 . S
C257 O265 1.222 1_565 S
O258 C257 1.278 . S
O259 Mg252 1.986 . S
O259 C263 1.246 . S
O260 Mg255 2.032 . S
O260 C263 1.259 . S
O261 Mg252 2.114 . S
O261 C264 1.252 1_554 S
O262 Mg252 2.251 1_556 S
O262 Mg255 2.079 1_556 S
O262 C264 1.273 . S
C263 O259 1.246 . S
C263 O260 1.259 . S
C264 O261 1.252 1_556 S
C264 O262 1.273 . S
O265 Mg252 2.010 . S
O265 C257 1.222 1_545 S
Mg266 O267 2.028 . S
Mg266 O273 1.986 . S
Mg266 O275 2.110 1_554 S
Mg266 O276 2.251 . S
Mg266 O279 2.010 . S
O267 Mg266 2.028 . S
O267 C270 1.250 . S
O268 Mg269 2.028 . S
O268 C270 1.248 . S
Mg269 O268 2.028 . S
Mg269 O274 2.032 . S
Mg269 O276 2.079 . S
C270 O267 1.250 . S
C270 O268 1.248 . S
C271 O272 1.264 . S
C271 O279 1.249 1_455 S
O272 C271 1.264 . S
O273 Mg266 1.986 . S
O273 C277 1.246 . S
O274 Mg269 2.032 . S
O274 C277 1.259 . S
O275 Mg266 2.110 1_556 S
O275 C278 1.255 . S
O276 Mg266 2.251 . S
O276 Mg269 2.079 . S
O276 C278 1.273 1_554 S
C277 O273 1.246 . S
C277 O274 1.259 . S
C278 O275 1.255 . S
C278 O276 1.273 1_556 S
O279 Mg266 2.010 . S
O279 C271 1.249 1_655 S
Mg280 O281 2.028 . S
Mg280 O287 1.986 . S
Mg280 O289 2.114 . S
Mg280 O290 2.251 . S
Mg280 O293 2.010 . S
O281 Mg280 2.028 . S
O281 C284 1.250 . S
O282 Mg283 2.028 . S
O282 C284 1.248 . S
Mg283 O282 2.028 . S
Mg283 O288 2.032 . S
Mg283 O290 2.079 . S
C284 O281 1.250 . S
C284 O282 1.248 . S
C285 O286 1.264 . S
C285 O293 1.249 . S
O286 C285 1.264 . S
O287 Mg280 1.986 . S
O287 C291 1.246 . S
O288 Mg283 2.032 . S
O288 C291 1.259 . S
O289 Mg280 2.114 . S
O289 C292 1.252 1_554 S
O290 Mg280 2.251 . S
O290 Mg283 2.079 . S
O290 C292 1.273 1_554 S
C291 O287 1.246 . S
C291 O288 1.259 . S
C292 O289 1.252 1_556 S
C292 O290 1.273 1_556 S
O293 Mg280 2.010 . S
O293 C285 1.249 . S
Mg294 O295 2.028 1_554 S
Mg294 O301 1.986 . S
Mg294 O303 2.114 . S
Mg294 O304 2.251 . S
Mg294 O307 2.010 . S
O295 Mg294 2.028 1_556 S
O295 C298 1.250 . S
O296 Mg297 2.028 1_556 S
O296 C298 1.248 . S
Mg297 O296 2.028 1_554 S
Mg297 O302 2.032 . S
Mg297 O304 2.079 . S
C298 O295 1.250 . S
C298 O296 1.248 . S
C299 O300 1.264 1_556 S
C299 O307 1.249 1_556 S
O300 C299 1.264 1_554 S
O301 Mg294 1.986 . S
O301 C305 1.246 . S
O302 Mg297 2.032 . S
O302 C305 1.259 . S
O303 Mg294 2.114 . S
O303 C306 1.252 . S
O304 Mg294 2.251 . S
O304 Mg297 2.079 . S
O304 C306 1.273 . S
C305 O301 1.246 . S
C305 O302 1.259 . S
C306 O303 1.252 . S
C306 O304 1.273 . S
O307 Mg294 2.010 . S
O307 C299 1.249 1_554 S
Mg308 O309 2.028 1_554 S
Mg308 O315 1.986 . S
Mg308 O317 2.114 . S
Mg308 O318 2.251 . S
Mg308 O321 2.010 . S
O309 Mg308 2.028 1_556 S
O309 C312 1.250 . S
O310 Mg311 2.028 1_556 S
O310 C312 1.248 . S
Mg311 O310 2.028 1_554 S
Mg311 O316 2.032 . S
Mg311 O318 2.079 . S
C312 O309 1.250 . S
C312 O310 1.248 . S
C313 O314 1.264 . S
C313 O321 1.249 . S
O314 C313 1.264 . S
O315 Mg308 1.986 . S
O315 C319 1.246 . S
O316 Mg311 2.032 . S
O316 C319 1.259 . S
O317 Mg308 2.114 . S
O317 C320 1.252 . S
O318 Mg308 2.251 . S
O318 Mg311 2.079 . S
O318 C320 1.273 . S
C319 O315 1.246 . S
C319 O316 1.259 . S
C320 O317 1.252 . S
C320 O318 1.273 . S
O321 Mg308 2.010 . S
O321 C313 1.249 . S
Mg322 O323 2.028 1_554 S
Mg322 O329 1.986 . S
Mg322 O331 2.114 . S
Mg322 O332 2.251 . S
Mg322 O335 2.010 . S
O323 Mg322 2.028 1_556 S
O323 C326 1.250 . S
O324 Mg325 2.028 1_556 S
O324 C326 1.248 . S
Mg325 O324 2.028 1_554 S
Mg325 O330 2.032 . S
Mg325 O332 2.079 . S
C326 O323 1.250 . S
C326 O324 1.248 . S
C327 O328 1.264 . S
C327 O335 1.249 . S
O328 C327 1.264 . S
O329 Mg322 1.986 . S
O329 C333 1.246 . S
O330 Mg325 2.032 . S
O330 C333 1.259 . S
O331 Mg322 2.114 . S
O331 C334 1.252 . S
O332 Mg322 2.251 . S
O332 Mg325 2.079 . S
O332 C334 1.273 . S
C333 O329 1.246 . S
C333 O330 1.259 . S
C334 O331 1.252 . S
C334 O332 1.273 . S
O335 Mg322 2.010 . S
O335 C327 1.249 . S
Mg336 O337 2.028 . S
Mg336 O343 1.986 1_556 S
Mg336 O345 2.114 . S
Mg336 O346 2.251 . S
Mg336 O349 2.010 . S
O337 Mg336 2.028 . S
O337 C340 1.250 . S
O338 Mg339 2.028 . S
O338 C340 1.248 . S
Mg339 O338 2.028 . S
Mg339 O344 2.032 1_556 S
Mg339 O346 2.079 . S
C340 O337 1.250 . S
C340 O338 1.248 . S
C341 O342 1.264 . S
C341 O349 1.249 . S
O342 C341 1.264 . S
O343 Mg336 1.986 1_554 S
O343 C347 1.246 . S
O344 Mg339 2.032 1_554 S
O344 C347 1.259 . S
O345 Mg336 2.114 . S
O345 C348 1.252 . S
O346 Mg336 2.251 . S
O346 Mg339 2.079 . S
O346 C348 1.273 . S
C347 O343 1.246 . S
C347 O344 1.259 . S
C348 O345 1.252 . S
C348 O346 1.273 . S
O349 Mg336 2.010 . S
O349 C341 1.249 . S
Mg350 O351 2.028 . S
Mg350 O357 1.986 . S
Mg350 O359 2.114 . S
Mg350 O360 2.251 1_556 S
Mg350 O363 2.010 . S
O351 Mg350 2.028 . S
O351 C354 1.250 . S
O352 Mg353 2.028 1_556 S
O352 C354 1.248 . S
Mg353 O352 2.028 1_554 S
Mg353 O358 2.032 1_554 S
Mg353 O360 2.079 . S
C354 O351 1.250 . S
C354 O352 1.248 . S
C355 O356 1.264 . S
C355 O363 1.249 . S
O356 C355 1.264 . S
O357 Mg350 1.986 . S
O357 C361 1.246 . S
O358 Mg353 2.032 1_556 S
O358 C361 1.259 . S
O359 Mg350 2.114 . S
O359 C362 1.252 1_556 S
O360 Mg350 2.251 1_554 S
O360 Mg353 2.079 . S
O360 C362 1.273 . S
C361 O357 1.246 . S
C361 O358 1.259 . S
C362 O359 1.252 1_554 S
C362 O360 1.273 . S
O363 Mg350 2.010 . S
O363 C355 1.249 . S
Mg364 O365 2.028 . S
Mg364 O371 1.986 1_556 S
Mg364 O373 2.114 . S
Mg364 O374 2.251 . S
Mg364 O377 2.010 . S
O365 Mg364 2.028 . S
O365 C368 1.250 . S
O366 Mg367 2.028 . S
O366 C368 1.248 . S
Mg367 O366 2.028 . S
Mg367 O372 2.032 1_556 S
Mg367 O374 2.079 . S
C368 O365 1.250 . S
C368 O366 1.248 . S
C369 O370 1.264 . S
C369 O377 1.249 . S
O370 C369 1.264 . S
O371 Mg364 1.986 1_554 S
O371 C375 1.246 . S
O372 Mg367 2.032 1_554 S
O372 C375 1.259 . S
O373 Mg364 2.114 . S
O373 C376 1.252 . S
O374 Mg364 2.251 . S
O374 Mg367 2.079 . S
O374 C376 1.273 . S
C375 O371 1.246 . S
C375 O372 1.259 . S
C376 O373 1.252 . S
C376 O374 1.273 . S
O377 Mg364 2.010 . S
O377 C369 1.249 . S
Mg378 O379 2.028 1_556 S
Mg378 O385 1.986 . S
Mg378 O387 2.114 1_556 S
Mg378 O388 2.251 1_556 S
Mg378 O391 2.010 . S
O379 Mg378 2.028 1_554 S
O379 C382 1.250 . S
O380 Mg381 2.028 . S
O380 C382 1.248 . S
Mg381 O380 2.028 . S
Mg381 O386 2.032 1_554 S
Mg381 O388 2.079 . S
C382 O379 1.250 . S
C382 O380 1.248 . S
C383 O384 1.264 . S
C383 O391 1.249 . S
O384 C383 1.264 . S
O385 Mg378 1.986 . S
O385 C389 1.246 . S
O386 Mg381 2.032 1_556 S
O386 C389 1.259 . S
O387 Mg378 2.114 1_554 S
O387 C390 1.252 . S
O388 Mg378 2.251 1_554 S
O388 Mg381 2.079 . S
O388 C390 1.273 . S
C389 O385 1.246 . S
C389 O386 1.259 . S
C390 O387 1.252 . S
C390 O388 1.273 . S
O391 Mg378 2.010 . S
O391 C383 1.249 . S
Mg392 O393 2.028 1_556 S
Mg392 O399 1.986 1_556 S
Mg392 O401 2.114 . S
Mg392 O402 2.251 . S
Mg392 O405 2.010 1_556 S
O393 Mg392 2.028 1_554 S
O393 C396 1.250 1_554 S
O394 Mg395 2.028 . S
O394 C396 1.248 . S
Mg395 O394 2.028 . S
Mg395 O400 2.032 . S
Mg395 O402 2.079 . S
C396 O393 1.250 1_556 S
C396 O394 1.248 . S
C397 O398 1.264 . S
C397 O405 1.249 . S
O398 C397 1.264 . S
O399 Mg392 1.986 1_554 S
O399 C403 1.246 1_554 S
O400 Mg395 2.032 . S
O400 C403 1.259 . S
O401 Mg392 2.114 . S
O401 C404 1.252 . S
O402 Mg392 2.251 . S
O402 Mg395 2.079 . S
O402 C404 1.273 . S
C403 O399 1.246 1_556 S
C403 O400 1.259 . S
C404 O401 1.252 . S
C404 O402 1.273 . S
O405 Mg392 2.010 1_554 S
O405 C397 1.249 . S
Mg406 O407 2.028 1_556 S
Mg406 O413 1.986 . S
Mg406 O415 2.114 1_556 S
Mg406 O416 2.251 1_556 S
Mg406 O419 2.010 . S
O407 Mg406 2.028 1_554 S
O407 C410 1.250 . S
O408 Mg409 2.028 . S
O408 C410 1.248 . S
Mg409 O408 2.028 . S
Mg409 O414 2.032 1_554 S
Mg409 O416 2.079 . S
C410 O407 1.250 . S
C410 O408 1.248 . S
C411 O412 1.264 . S
C411 O419 1.249 . S
O412 C411 1.264 . S
O413 Mg406 1.986 . S
O413 C417 1.246 . S
O414 Mg409 2.032 1_556 S
O414 C417 1.259 . S
O415 Mg406 2.114 1_554 S
O415 C418 1.252 . S
O416 Mg406 2.251 1_554 S
O416 Mg409 2.079 . S
O416 C418 1.273 . S
C417 O413 1.246 . S
C417 O414 1.259 . S
C418 O415 1.252 . S
C418 O416 1.273 . S
O419 Mg406 2.010 . S
O419 C411 1.249 . S
Mg420 O421 2.028 . S
Mg420 O427 1.986 . S
Mg420 O429 2.114 . S
Mg420 O430 2.251 . S
Mg420 O433 2.010 . S
O421 Mg420 2.028 . S
O421 C424 1.250 . S
O422 Mg423 2.028 . S
O422 C424 1.248 . S
Mg423 O422 2.028 . S
Mg423 O428 2.032 . S
Mg423 O430 2.079 . S
C424 O421 1.250 . S
C424 O422 1.248 . S
C425 O426 1.264 . S
C425 O433 1.249 . S
O426 C425 1.264 . S
O427 Mg420 1.986 . S
O427 C431 1.246 . S
O428 Mg423 2.032 . S
O428 C431 1.259 . S
O429 Mg420 2.114 . S
O429 C432 1.252 . S
O430 Mg420 2.251 . S
O430 Mg423 2.079 . S
O430 C432 1.273 . S
C431 O427 1.246 . S
C431 O428 1.259 . S
C432 O429 1.252 . S
C432 O430 1.273 . S
O433 Mg420 2.010 . S
O433 C425 1.249 . S
Mg434 O435 2.028 . S
Mg434 O441 1.986 . S
Mg434 O443 2.114 . S
Mg434 O444 2.251 . S
Mg434 O447 2.010 . S
O435 Mg434 2.028 . S
O435 C438 1.250 . S
O436 Mg437 2.028 . S
O436 C438 1.248 . S
Mg437 O436 2.028 . S
Mg437 O442 2.032 . S
Mg437 O444 2.079 . S
C438 O435 1.250 . S
C438 O436 1.248 . S
C439 O440 1.264 . S
C439 O447 1.249 . S
O440 C439 1.264 . S
O441 Mg434 1.986 . S
O441 C445 1.246 . S
O442 Mg437 2.032 . S
O442 C445 1.259 . S
O443 Mg434 2.114 . S
O443 C446 1.252 . S
O444 Mg434 2.251 . S
O444 Mg437 2.079 . S
O444 C446 1.273 . S
C445 O441 1.246 . S
C445 O442 1.259 . S
C446 O443 1.252 . S
C446 O444 1.273 . S
O447 Mg434 2.010 . S
O447 C439 1.249 . S
Mg448 O449 2.028 . S
Mg448 O455 1.986 . S
Mg448 O457 2.114 . S
Mg448 O458 2.251 . S
Mg448 O461 2.010 . S
O449 Mg448 2.028 . S
O449 C452 1.250 . S
O450 Mg451 2.028 . S
O450 C452 1.248 . S
Mg451 O450 2.028 . S
Mg451 O456 2.032 . S
Mg451 O458 2.079 . S
C452 O449 1.250 . S
C452 O450 1.248 . S
C453 O454 1.264 . S
C453 O461 1.249 . S
O454 C453 1.264 . S
O455 Mg448 1.986 . S
O455 C459 1.246 . S
O456 Mg451 2.032 . S
O456 C459 1.259 . S
O457 Mg448 2.114 . S
O457 C460 1.252 . S
O458 Mg448 2.251 . S
O458 Mg451 2.079 . S
O458 C460 1.273 . S
C459 O455 1.246 . S
C459 O456 1.259 . S
C460 O457 1.252 . S
C460 O458 1.273 . S
O461 Mg448 2.010 . S
O461 C453 1.249 . S
Mg462 O463 2.028 . S
Mg462 O469 1.986 . S
Mg462 O471 2.114 . S
Mg462 O472 2.251 . S
Mg462 O475 2.010 . S
O463 Mg462 2.028 . S
O463 C466 1.250 . S
O464 Mg465 2.028 . S
O464 C466 1.248 . S
Mg465 O464 2.028 . S
Mg465 O470 2.032 . S
Mg465 O472 2.079 . S
C466 O463 1.250 . S
C466 O464 1.248 . S
C467 O468 1.264 1_455 S
C467 O475 1.249 . S
O468 C467 1.264 1_655 S
O469 Mg462 1.986 . S
O469 C473 1.246 . S
O470 Mg465 2.032 . S
O470 C473 1.259 . S
O471 Mg462 2.114 . S
O471 C474 1.252 . S
O472 Mg462 2.251 . S
O472 Mg465 2.079 . S
O472 C474 1.273 . S
C473 O469 1.246 . S
C473 O470 1.259 . S
C474 O471 1.252 . S
C474 O472 1.273 . S
O475 Mg462 2.010 . S
O475 C467 1.249 . S
Mg476 O477 2.028 . S
Mg476 O483 1.986 . S
Mg476 O485 2.114 . S
Mg476 O486 2.251 . S
Mg476 O489 2.010 . S
O477 Mg476 2.028 . S
O477 C480 1.250 . S
O478 Mg479 2.028 . S
O478 C480 1.248 . S
Mg479 O478 2.028 . S
Mg479 O484 2.032 . S
Mg479 O486 2.079 . S
C480 O477 1.250 . S
C480 O478 1.248 . S
C481 O482 1.264 . S
C481 O489 1.249 . S
O482 C481 1.264 . S
O483 Mg476 1.986 . S
O483 C487 1.246 . S
O484 Mg479 2.032 . S
O484 C487 1.259 . S
O485 Mg476 2.114 . S
O485 C488 1.252 . S
O486 Mg476 2.251 . S
O486 Mg479 2.079 . S
O486 C488 1.273 . S
C487 O483 1.246 . S
C487 O484 1.259 . S
C488 O485 1.252 . S
C488 O486 1.273 . S
O489 Mg476 2.010 . S
O489 C481 1.249 . S
Mg490 O491 2.028 . S
Mg490 O497 1.986 . S
Mg490 O499 2.114 . S
Mg490 O500 2.251 . S
Mg490 O503 2.010 . S
O491 Mg490 2.028 . S
O491 C494 1.250 . S
O492 Mg493 2.028 . S
O492 C494 1.248 . S
Mg493 O492 2.028 . S
Mg493 O498 2.032 . S
Mg493 O500 2.079 . S
C494 O491 1.250 . S
C494 O492 1.248 . S
C495 O496 1.264 . S
C495 O503 1.249 1_545 S
O496 C495 1.264 . S
O497 Mg490 1.986 . S
O497 C501 1.246 . S
O498 Mg493 2.032 . S
O498 C501 1.259 . S
O499 Mg490 2.114 . S
O499 C502 1.252 . S
O500 Mg490 2.251 . S
O500 Mg493 2.079 . S
O500 C502 1.273 . S
C501 O497 1.246 . S
C501 O498 1.259 . S
C502 O499 1.252 . S
C502 O500 1.273 . S
O503 Mg490 2.010 . S
O503 C495 1.249 1_565 S
C47 C5 0.607 . S
C67 C25 1.165 1_545 S
C75 C33 0.609 1_655 S
C95 C137 1.487 . S
C109 C151 1.449 1_545 S
C165 C123 1.489 1_455 S
C173 C215 0.594 . S
C193 C235 1.162 . S
C201 C243 0.609 . S
C263 C305 1.454 . S
C319 C277 1.416 . S
C291 C333 1.503 . S
C341 C383 0.605 . S
C361 C403 1.161 . S
C411 C369 0.596 . S
C473 C431 1.503 . S
C487 C445 1.418 . S
C501 C459 1.467 . S
C166 C12 1.238 . S
C19 C138 1.217 . S
C40 C152 1.147 . S
C110 C54 1.153 . S
C61 C124 1.217 . S
C96 C82 1.239 . S
C88 C81 1.981 1_556 S
C102 C53 2.017 1_556 S
C68 C116 2.006 . S
C26 C130 2.004 . S
C39 C144 2.020 . S
C158 C11 1.982 . S
C180 C334 1.231 . S
C306 C187 1.213 . S
C320 C208 1.149 . S
C222 C278 1.148 . S
C292 C229 1.211 . S
C250 C264 1.236 . S
C256 C249 1.971 . S
C270 C221 1.991 . S
C236 C284 2.009 . S
C194 C298 2.014 . S
C207 C312 1.997 . S
C326 C179 1.988 . S
C502 C348 1.235 . S
C355 C474 1.208 . S
C376 C488 1.149 . S
C390 C446 1.148 . S
C460 C397 1.230 . S
C418 C432 1.232 . S
C417 C424 1.988 . S
C389 C438 1.997 . S
C404 C452 1.997 . S
C362 C466 2.008 . S
C375 C480 1.993 . S
C347 C494 1.972 . S
C410 C4 1.890 . S
C18 C382 2.243 . S
C396 C32 2.270 1_556 S
C46 C186 2.259 . S
C200 C60 2.244 . S
C74 C172 1.890 . S
C89 C327 1.603 1_556 S
C299 C103 1.521 . S
C117 C313 1.481 1_556 S
C131 C439 1.480 . S
C145 C453 1.506 . S
C425 C159 1.603 . S
C354 C214 2.242 1_455 S
C368 C228 2.243 . S
C340 C242 1.882 1_565 S
C257 C495 1.588 1_565 S
C467 C271 1.478 . S
C285 C481 1.480 . S
