# Generated by pormake.
# Topology wse, (4)-cn, num edge types: 1
# Building blocks:
#     Node 0, Type 0, BuildingBlock: QUQFOY_clean_sbu_1, # of connection points: 4
#     Node 1, Type 0, BuildingBlock: QUQFOY_clean_sbu_1, # of connection points: 4
#     Node 2, Type 0, BuildingBlock: QUQFOY_clean_sbu_1, # of connection points: 4
#     Node 3, Type 0, BuildingBlock: QUQFOY_clean_sbu_1, # of connection points: 4
#     Node 4, Type 0, BuildingBlock: QUQFOY_clean_sbu_1, # of connection points: 4
#     Node 5, Type 0, BuildingBlock: QUQFOY_clean_sbu_1, # of connection points: 4
#     Node 6, Type 0, BuildingBlock: QUQFOY_clean_sbu_1, # of connection points: 4
#     Node 7, Type 0, BuildingBlock: QUQFOY_clean_sbu_1, # of connection points: 4
#     Node 8, Type 0, BuildingBlock: QUQFOY_clean_sbu_1, # of connection points: 4
#     Node 9, Type 0, BuildingBlock: QUQFOY_clean_sbu_1, # of connection points: 4
#     Node 10, Type 0, BuildingBlock: QUQFOY_clean_sbu_1, # of connection points: 4
#     Node 11, Type 0, BuildingBlock: QUQFOY_clean_sbu_1, # of connection points: 4
#     Node 12, Type 0, BuildingBlock: QUQFOY_clean_sbu_1, # of connection points: 4
#     Node 13, Type 0, BuildingBlock: QUQFOY_clean_sbu_1, # of connection points: 4
#     Node 14, Type 0, BuildingBlock: QUQFOY_clean_sbu_1, # of connection points: 4
#     Node 15, Type 0, BuildingBlock: QUQFOY_clean_sbu_1, # of connection points: 4
#     Node 16, Type 0, BuildingBlock: QUQFOY_clean_sbu_1, # of connection points: 4
#     Node 17, Type 0, BuildingBlock: QUQFOY_clean_sbu_1, # of connection points: 4
#     Node 18, Type 0, BuildingBlock: QUQFOY_clean_sbu_1, # of connection points: 4
#     Node 19, Type 0, BuildingBlock: QUQFOY_clean_sbu_1, # of connection points: 4
#     Node 20, Type 0, BuildingBlock: QUQFOY_clean_sbu_1, # of connection points: 4
#     Node 21, Type 0, BuildingBlock: QUQFOY_clean_sbu_1, # of connection points: 4
#     Node 22, Type 0, BuildingBlock: QUQFOY_clean_sbu_1, # of connection points: 4
#     Node 23, Type 0, BuildingBlock: QUQFOY_clean_sbu_1, # of connection points: 4
#     Node 24, Type 0, BuildingBlock: QUQFOY_clean_sbu_1, # of connection points: 4
#     Node 25, Type 0, BuildingBlock: QUQFOY_clean_sbu_1, # of connection points: 4
#     Node 26, Type 0, BuildingBlock: QUQFOY_clean_sbu_1, # of connection points: 4
#     Node 27, Type 0, BuildingBlock: QUQFOY_clean_sbu_1, # of connection points: 4
#     Node 28, Type 0, BuildingBlock: QUQFOY_clean_sbu_1, # of connection points: 4
#     Node 29, Type 0, BuildingBlock: QUQFOY_clean_sbu_1, # of connection points: 4
#     Node 30, Type 0, BuildingBlock: QUQFOY_clean_sbu_1, # of connection points: 4
#     Node 31, Type 0, BuildingBlock: QUQFOY_clean_sbu_1, # of connection points: 4
#     Node 32, Type 0, BuildingBlock: QUQFOY_clean_sbu_1, # of connection points: 4
#     Node 33, Type 0, BuildingBlock: QUQFOY_clean_sbu_1, # of connection points: 4
#     Node 34, Type 0, BuildingBlock: QUQFOY_clean_sbu_1, # of connection points: 4
#     Node 35, Type 0, BuildingBlock: QUQFOY_clean_sbu_1, # of connection points: 4
#     Node 36, Type 0, BuildingBlock: QUQFOY_clean_sbu_1, # of connection points: 4
#     Node 37, Type 0, BuildingBlock: QUQFOY_clean_sbu_1, # of connection points: 4
#     Node 38, Type 0, BuildingBlock: QUQFOY_clean_sbu_1, # of connection points: 4
#     Node 39, Type 0, BuildingBlock: QUQFOY_clean_sbu_1, # of connection points: 4
#     Node 40, Type 0, BuildingBlock: QUQFOY_clean_sbu_1, # of connection points: 4
#     Node 41, Type 0, BuildingBlock: QUQFOY_clean_sbu_1, # of connection points: 4
#     Node 42, Type 0, BuildingBlock: QUQFOY_clean_sbu_1, # of connection points: 4
#     Node 43, Type 0, BuildingBlock: QUQFOY_clean_sbu_1, # of connection points: 4
#     Node 44, Type 0, BuildingBlock: QUQFOY_clean_sbu_1, # of connection points: 4
#     Node 45, Type 0, BuildingBlock: QUQFOY_clean_sbu_1, # of connection points: 4
#     Node 46, Type 0, BuildingBlock: QUQFOY_clean_sbu_1, # of connection points: 4
#     Node 47, Type 0, BuildingBlock: QUQFOY_clean_sbu_1, # of connection points: 4
#     Node 48, Type 0, BuildingBlock: QUQFOY_clean_sbu_1, # of connection points: 4
#     Node 49, Type 0, BuildingBlock: QUQFOY_clean_sbu_1, # of connection points: 4
#     Node 50, Type 0, BuildingBlock: QUQFOY_clean_sbu_1, # of connection points: 4
#     Node 51, Type 0, BuildingBlock: QUQFOY_clean_sbu_1, # of connection points: 4
#     Node 52, Type 0, BuildingBlock: QUQFOY_clean_sbu_1, # of connection points: 4
#     Node 53, Type 0, BuildingBlock: QUQFOY_clean_sbu_1, # of connection points: 4
#     Node 54, Type 0, BuildingBlock: QUQFOY_clean_sbu_1, # of connection points: 4
#     Node 55, Type 0, BuildingBlock: QUQFOY_clean_sbu_1, # of connection points: 4
#     Node 56, Type 0, BuildingBlock: QUQFOY_clean_sbu_1, # of connection points: 4
#     Node 57, Type 0, BuildingBlock: QUQFOY_clean_sbu_1, # of connection points: 4
#     Node 58, Type 0, BuildingBlock: QUQFOY_clean_sbu_1, # of connection points: 4
#     Node 59, Type 0, BuildingBlock: QUQFOY_clean_sbu_1, # of connection points: 4
#     Node 60, Type 0, BuildingBlock: QUQFOY_clean_sbu_1, # of connection points: 4
#     Node 61, Type 0, BuildingBlock: QUQFOY_clean_sbu_1, # of connection points: 4
#     Node 62, Type 0, BuildingBlock: QUQFOY_clean_sbu_1, # of connection points: 4
#     Node 63, Type 0, BuildingBlock: QUQFOY_clean_sbu_1, # of connection points: 4
#     Node 64, Type 0, BuildingBlock: QUQFOY_clean_sbu_1, # of connection points: 4
#     Node 65, Type 0, BuildingBlock: QUQFOY_clean_sbu_1, # of connection points: 4
#     Node 66, Type 0, BuildingBlock: QUQFOY_clean_sbu_1, # of connection points: 4
#     Node 67, Type 0, BuildingBlock: QUQFOY_clean_sbu_1, # of connection points: 4
#     Node 68, Type 0, BuildingBlock: QUQFOY_clean_sbu_1, # of connection points: 4
#     Node 69, Type 0, BuildingBlock: QUQFOY_clean_sbu_1, # of connection points: 4
#     Node 70, Type 0, BuildingBlock: QUQFOY_clean_sbu_1, # of connection points: 4
#     Node 71, Type 0, BuildingBlock: QUQFOY_clean_sbu_1, # of connection points: 4
#     Node 72, Type 0, BuildingBlock: QUQFOY_clean_sbu_1, # of connection points: 4
#     Node 73, Type 0, BuildingBlock: QUQFOY_clean_sbu_1, # of connection points: 4
#     Node 74, Type 0, BuildingBlock: QUQFOY_clean_sbu_1, # of connection points: 4
#     Node 75, Type 0, BuildingBlock: QUQFOY_clean_sbu_1, # of connection points: 4
#     Node 76, Type 0, BuildingBlock: QUQFOY_clean_sbu_1, # of connection points: 4
#     Node 77, Type 0, BuildingBlock: QUQFOY_clean_sbu_1, # of connection points: 4
#     Node 78, Type 0, BuildingBlock: QUQFOY_clean_sbu_1, # of connection points: 4
#     Node 79, Type 0, BuildingBlock: QUQFOY_clean_sbu_1, # of connection points: 4
#     Node 80, Type 0, BuildingBlock: QUQFOY_clean_sbu_1, # of connection points: 4
#     Node 81, Type 0, BuildingBlock: QUQFOY_clean_sbu_1, # of connection points: 4
#     Node 82, Type 0, BuildingBlock: QUQFOY_clean_sbu_1, # of connection points: 4
#     Node 83, Type 0, BuildingBlock: QUQFOY_clean_sbu_1, # of connection points: 4
#     Node 84, Type 0, BuildingBlock: QUQFOY_clean_sbu_1, # of connection points: 4
#     Node 85, Type 0, BuildingBlock: QUQFOY_clean_sbu_1, # of connection points: 4
#     Node 86, Type 0, BuildingBlock: QUQFOY_clean_sbu_1, # of connection points: 4
#     Node 87, Type 0, BuildingBlock: QUQFOY_clean_sbu_1, # of connection points: 4
#     Node 88, Type 0, BuildingBlock: QUQFOY_clean_sbu_1, # of connection points: 4
#     Node 89, Type 0, BuildingBlock: QUQFOY_clean_sbu_1, # of connection points: 4
#     Node 90, Type 0, BuildingBlock: QUQFOY_clean_sbu_1, # of connection points: 4
#     Node 91, Type 0, BuildingBlock: QUQFOY_clean_sbu_1, # of connection points: 4
#     Node 92, Type 0, BuildingBlock: QUQFOY_clean_sbu_1, # of connection points: 4
#     Node 93, Type 0, BuildingBlock: QUQFOY_clean_sbu_1, # of connection points: 4
#     Node 94, Type 0, BuildingBlock: QUQFOY_clean_sbu_1, # of connection points: 4
#     Node 95, Type 0, BuildingBlock: QUQFOY_clean_sbu_1, # of connection points: 4
#     Edge 96, Type (0, 0), BuildingBlock: KIFKEQ_clean_linker_1, # of connection points: 2
#     Edge 97, Type (0, 0), BuildingBlock: KIFKEQ_clean_linker_1, # of connection points: 2
#     Edge 98, Type (0, 0), BuildingBlock: KIFKEQ_clean_linker_1, # of connection points: 2
#     Edge 99, Type (0, 0), BuildingBlock: KIFKEQ_clean_linker_1, # of connection points: 2
#     Edge 100, Type (0, 0), BuildingBlock: KIFKEQ_clean_linker_1, # of connection points: 2
#     Edge 101, Type (0, 0), BuildingBlock: KIFKEQ_clean_linker_1, # of connection points: 2
#     Edge 102, Type (0, 0), BuildingBlock: KIFKEQ_clean_linker_1, # of connection points: 2
#     Edge 103, Type (0, 0), BuildingBlock: KIFKEQ_clean_linker_1, # of connection points: 2
#     Edge 104, Type (0, 0), BuildingBlock: KIFKEQ_clean_linker_1, # of connection points: 2
#     Edge 105, Type (0, 0), BuildingBlock: KIFKEQ_clean_linker_1, # of connection points: 2
#     Edge 106, Type (0, 0), BuildingBlock: KIFKEQ_clean_linker_1, # of connection points: 2
#     Edge 107, Type (0, 0), BuildingBlock: KIFKEQ_clean_linker_1, # of connection points: 2
#     Edge 108, Type (0, 0), BuildingBlock: KIFKEQ_clean_linker_1, # of connection points: 2
#     Edge 109, Type (0, 0), BuildingBlock: KIFKEQ_clean_linker_1, # of connection points: 2
#     Edge 110, Type (0, 0), BuildingBlock: KIFKEQ_clean_linker_1, # of connection points: 2
#     Edge 111, Type (0, 0), BuildingBlock: KIFKEQ_clean_linker_1, # of connection points: 2
#     Edge 112, Type (0, 0), BuildingBlock: KIFKEQ_clean_linker_1, # of connection points: 2
#     Edge 113, Type (0, 0), BuildingBlock: KIFKEQ_clean_linker_1, # of connection points: 2
#     Edge 114, Type (0, 0), BuildingBlock: KIFKEQ_clean_linker_1, # of connection points: 2
#     Edge 115, Type (0, 0), BuildingBlock: KIFKEQ_clean_linker_1, # of connection points: 2
#     Edge 116, Type (0, 0), BuildingBlock: KIFKEQ_clean_linker_1, # of connection points: 2
#     Edge 117, Type (0, 0), BuildingBlock: KIFKEQ_clean_linker_1, # of connection points: 2
#     Edge 118, Type (0, 0), BuildingBlock: KIFKEQ_clean_linker_1, # of connection points: 2
#     Edge 119, Type (0, 0), BuildingBlock: KIFKEQ_clean_linker_1, # of connection points: 2
#     Edge 120, Type (0, 0), BuildingBlock: KIFKEQ_clean_linker_1, # of connection points: 2
#     Edge 121, Type (0, 0), BuildingBlock: KIFKEQ_clean_linker_1, # of connection points: 2
#     Edge 122, Type (0, 0), BuildingBlock: KIFKEQ_clean_linker_1, # of connection points: 2
#     Edge 123, Type (0, 0), BuildingBlock: KIFKEQ_clean_linker_1, # of connection points: 2
#     Edge 124, Type (0, 0), BuildingBlock: KIFKEQ_clean_linker_1, # of connection points: 2
#     Edge 125, Type (0, 0), BuildingBlock: KIFKEQ_clean_linker_1, # of connection points: 2
#     Edge 126, Type (0, 0), BuildingBlock: KIFKEQ_clean_linker_1, # of connection points: 2
#     Edge 127, Type (0, 0), BuildingBlock: KIFKEQ_clean_linker_1, # of connection points: 2
#     Edge 128, Type (0, 0), BuildingBlock: KIFKEQ_clean_linker_1, # of connection points: 2
#     Edge 129, Type (0, 0), BuildingBlock: KIFKEQ_clean_linker_1, # of connection points: 2
#     Edge 130, Type (0, 0), BuildingBlock: KIFKEQ_clean_linker_1, # of connection points: 2
#     Edge 131, Type (0, 0), BuildingBlock: KIFKEQ_clean_linker_1, # of connection points: 2
#     Edge 132, Type (0, 0), BuildingBlock: KIFKEQ_clean_linker_1, # of connection points: 2
#     Edge 133, Type (0, 0), BuildingBlock: KIFKEQ_clean_linker_1, # of connection points: 2
#     Edge 134, Type (0, 0), BuildingBlock: KIFKEQ_clean_linker_1, # of connection points: 2
#     Edge 135, Type (0, 0), BuildingBlock: KIFKEQ_clean_linker_1, # of connection points: 2
#     Edge 136, Type (0, 0), BuildingBlock: KIFKEQ_clean_linker_1, # of connection points: 2
#     Edge 137, Type (0, 0), BuildingBlock: KIFKEQ_clean_linker_1, # of connection points: 2
#     Edge 138, Type (0, 0), BuildingBlock: KIFKEQ_clean_linker_1, # of connection points: 2
#     Edge 139, Type (0, 0), BuildingBlock: KIFKEQ_clean_linker_1, # of connection points: 2
#     Edge 140, Type (0, 0), BuildingBlock: KIFKEQ_clean_linker_1, # of connection points: 2
#     Edge 141, Type (0, 0), BuildingBlock: KIFKEQ_clean_linker_1, # of connection points: 2
#     Edge 142, Type (0, 0), BuildingBlock: KIFKEQ_clean_linker_1, # of connection points: 2
#     Edge 143, Type (0, 0), BuildingBlock: KIFKEQ_clean_linker_1, # of connection points: 2
#     Edge 144, Type (0, 0), BuildingBlock: KIFKEQ_clean_linker_1, # of connection points: 2
#     Edge 145, Type (0, 0), BuildingBlock: KIFKEQ_clean_linker_1, # of connection points: 2
#     Edge 146, Type (0, 0), BuildingBlock: KIFKEQ_clean_linker_1, # of connection points: 2
#     Edge 147, Type (0, 0), BuildingBlock: KIFKEQ_clean_linker_1, # of connection points: 2
#     Edge 148, Type (0, 0), BuildingBlock: KIFKEQ_clean_linker_1, # of connection points: 2
#     Edge 149, Type (0, 0), BuildingBlock: KIFKEQ_clean_linker_1, # of connection points: 2
#     Edge 150, Type (0, 0), BuildingBlock: KIFKEQ_clean_linker_1, # of connection points: 2
#     Edge 151, Type (0, 0), BuildingBlock: KIFKEQ_clean_linker_1, # of connection points: 2
#     Edge 152, Type (0, 0), BuildingBlock: KIFKEQ_clean_linker_1, # of connection points: 2
#     Edge 153, Type (0, 0), BuildingBlock: KIFKEQ_clean_linker_1, # of connection points: 2
#     Edge 154, Type (0, 0), BuildingBlock: KIFKEQ_clean_linker_1, # of connection points: 2
#     Edge 155, Type (0, 0), BuildingBlock: KIFKEQ_clean_linker_1, # of connection points: 2
#     Edge 156, Type (0, 0), BuildingBlock: KIFKEQ_clean_linker_1, # of connection points: 2
#     Edge 157, Type (0, 0), BuildingBlock: KIFKEQ_clean_linker_1, # of connection points: 2
#     Edge 158, Type (0, 0), BuildingBlock: KIFKEQ_clean_linker_1, # of connection points: 2
#     Edge 159, Type (0, 0), BuildingBlock: KIFKEQ_clean_linker_1, # of connection points: 2
#     Edge 160, Type (0, 0), BuildingBlock: KIFKEQ_clean_linker_1, # of connection points: 2
#     Edge 161, Type (0, 0), BuildingBlock: KIFKEQ_clean_linker_1, # of connection points: 2
#     Edge 162, Type (0, 0), BuildingBlock: KIFKEQ_clean_linker_1, # of connection points: 2
#     Edge 163, Type (0, 0), BuildingBlock: KIFKEQ_clean_linker_1, # of connection points: 2
#     Edge 164, Type (0, 0), BuildingBlock: KIFKEQ_clean_linker_1, # of connection points: 2
#     Edge 165, Type (0, 0), BuildingBlock: KIFKEQ_clean_linker_1, # of connection points: 2
#     Edge 166, Type (0, 0), BuildingBlock: KIFKEQ_clean_linker_1, # of connection points: 2
#     Edge 167, Type (0, 0), BuildingBlock: KIFKEQ_clean_linker_1, # of connection points: 2
#     Edge 168, Type (0, 0), BuildingBlock: KIFKEQ_clean_linker_1, # of connection points: 2
#     Edge 169, Type (0, 0), BuildingBlock: KIFKEQ_clean_linker_1, # of connection points: 2
#     Edge 170, Type (0, 0), BuildingBlock: KIFKEQ_clean_linker_1, # of connection points: 2
#     Edge 171, Type (0, 0), BuildingBlock: KIFKEQ_clean_linker_1, # of connection points: 2
#     Edge 172, Type (0, 0), BuildingBlock: KIFKEQ_clean_linker_1, # of connection points: 2
#     Edge 173, Type (0, 0), BuildingBlock: KIFKEQ_clean_linker_1, # of connection points: 2
#     Edge 174, Type (0, 0), BuildingBlock: KIFKEQ_clean_linker_1, # of connection points: 2
#     Edge 175, Type (0, 0), BuildingBlock: KIFKEQ_clean_linker_1, # of connection points: 2
#     Edge 176, Type (0, 0), BuildingBlock: KIFKEQ_clean_linker_1, # of connection points: 2
#     Edge 177, Type (0, 0), BuildingBlock: KIFKEQ_clean_linker_1, # of connection points: 2
#     Edge 178, Type (0, 0), BuildingBlock: KIFKEQ_clean_linker_1, # of connection points: 2
#     Edge 179, Type (0, 0), BuildingBlock: KIFKEQ_clean_linker_1, # of connection points: 2
#     Edge 180, Type (0, 0), BuildingBlock: KIFKEQ_clean_linker_1, # of connection points: 2
#     Edge 181, Type (0, 0), BuildingBlock: KIFKEQ_clean_linker_1, # of connection points: 2
#     Edge 182, Type (0, 0), BuildingBlock: KIFKEQ_clean_linker_1, # of connection points: 2
#     Edge 183, Type (0, 0), BuildingBlock: KIFKEQ_clean_linker_1, # of connection points: 2
#     Edge 184, Type (0, 0), BuildingBlock: KIFKEQ_clean_linker_1, # of connection points: 2
#     Edge 185, Type (0, 0), BuildingBlock: KIFKEQ_clean_linker_1, # of connection points: 2
#     Edge 186, Type (0, 0), BuildingBlock: KIFKEQ_clean_linker_1, # of connection points: 2
#     Edge 187, Type (0, 0), BuildingBlock: KIFKEQ_clean_linker_1, # of connection points: 2
#     Edge 188, Type (0, 0), BuildingBlock: KIFKEQ_clean_linker_1, # of connection points: 2
#     Edge 189, Type (0, 0), BuildingBlock: KIFKEQ_clean_linker_1, # of connection points: 2
#     Edge 190, Type (0, 0), BuildingBlock: KIFKEQ_clean_linker_1, # of connection points: 2
#     Edge 191, Type (0, 0), BuildingBlock: KIFKEQ_clean_linker_1, # of connection points: 2
#     Edge 192, Type (0, 0), BuildingBlock: KIFKEQ_clean_linker_1, # of connection points: 2
#     Edge 193, Type (0, 0), BuildingBlock: KIFKEQ_clean_linker_1, # of connection points: 2
#     Edge 194, Type (0, 0), BuildingBlock: KIFKEQ_clean_linker_1, # of connection points: 2
#     Edge 195, Type (0, 0), BuildingBlock: KIFKEQ_clean_linker_1, # of connection points: 2
#     Edge 196, Type (0, 0), BuildingBlock: KIFKEQ_clean_linker_1, # of connection points: 2
#     Edge 197, Type (0, 0), BuildingBlock: KIFKEQ_clean_linker_1, # of connection points: 2
#     Edge 198, Type (0, 0), BuildingBlock: KIFKEQ_clean_linker_1, # of connection points: 2
#     Edge 199, Type (0, 0), BuildingBlock: KIFKEQ_clean_linker_1, # of connection points: 2
#     Edge 200, Type (0, 0), BuildingBlock: KIFKEQ_clean_linker_1, # of connection points: 2
#     Edge 201, Type (0, 0), BuildingBlock: KIFKEQ_clean_linker_1, # of connection points: 2
#     Edge 202, Type (0, 0), BuildingBlock: KIFKEQ_clean_linker_1, # of connection points: 2
#     Edge 203, Type (0, 0), BuildingBlock: KIFKEQ_clean_linker_1, # of connection points: 2
#     Edge 204, Type (0, 0), BuildingBlock: KIFKEQ_clean_linker_1, # of connection points: 2
#     Edge 205, Type (0, 0), BuildingBlock: KIFKEQ_clean_linker_1, # of connection points: 2
#     Edge 206, Type (0, 0), BuildingBlock: KIFKEQ_clean_linker_1, # of connection points: 2
#     Edge 207, Type (0, 0), BuildingBlock: KIFKEQ_clean_linker_1, # of connection points: 2
#     Edge 208, Type (0, 0), BuildingBlock: KIFKEQ_clean_linker_1, # of connection points: 2
#     Edge 209, Type (0, 0), BuildingBlock: KIFKEQ_clean_linker_1, # of connection points: 2
#     Edge 210, Type (0, 0), BuildingBlock: KIFKEQ_clean_linker_1, # of connection points: 2
#     Edge 211, Type (0, 0), BuildingBlock: KIFKEQ_clean_linker_1, # of connection points: 2
#     Edge 212, Type (0, 0), BuildingBlock: KIFKEQ_clean_linker_1, # of connection points: 2
#     Edge 213, Type (0, 0), BuildingBlock: KIFKEQ_clean_linker_1, # of connection points: 2
#     Edge 214, Type (0, 0), BuildingBlock: KIFKEQ_clean_linker_1, # of connection points: 2
#     Edge 215, Type (0, 0), BuildingBlock: KIFKEQ_clean_linker_1, # of connection points: 2
#     Edge 216, Type (0, 0), BuildingBlock: KIFKEQ_clean_linker_1, # of connection points: 2
#     Edge 217, Type (0, 0), BuildingBlock: KIFKEQ_clean_linker_1, # of connection points: 2
#     Edge 218, Type (0, 0), BuildingBlock: KIFKEQ_clean_linker_1, # of connection points: 2
#     Edge 219, Type (0, 0), BuildingBlock: KIFKEQ_clean_linker_1, # of connection points: 2
#     Edge 220, Type (0, 0), BuildingBlock: KIFKEQ_clean_linker_1, # of connection points: 2
#     Edge 221, Type (0, 0), BuildingBlock: KIFKEQ_clean_linker_1, # of connection points: 2
#     Edge 222, Type (0, 0), BuildingBlock: KIFKEQ_clean_linker_1, # of connection points: 2
#     Edge 223, Type (0, 0), BuildingBlock: KIFKEQ_clean_linker_1, # of connection points: 2
#     Edge 224, Type (0, 0), BuildingBlock: KIFKEQ_clean_linker_1, # of connection points: 2
#     Edge 225, Type (0, 0), BuildingBlock: KIFKEQ_clean_linker_1, # of connection points: 2
#     Edge 226, Type (0, 0), BuildingBlock: KIFKEQ_clean_linker_1, # of connection points: 2
#     Edge 227, Type (0, 0), BuildingBlock: KIFKEQ_clean_linker_1, # of connection points: 2
#     Edge 228, Type (0, 0), BuildingBlock: KIFKEQ_clean_linker_1, # of connection points: 2
#     Edge 229, Type (0, 0), BuildingBlock: KIFKEQ_clean_linker_1, # of connection points: 2
#     Edge 230, Type (0, 0), BuildingBlock: KIFKEQ_clean_linker_1, # of connection points: 2
#     Edge 231, Type (0, 0), BuildingBlock: KIFKEQ_clean_linker_1, # of connection points: 2
#     Edge 232, Type (0, 0), BuildingBlock: KIFKEQ_clean_linker_1, # of connection points: 2
#     Edge 233, Type (0, 0), BuildingBlock: KIFKEQ_clean_linker_1, # of connection points: 2
#     Edge 234, Type (0, 0), BuildingBlock: KIFKEQ_clean_linker_1, # of connection points: 2
#     Edge 235, Type (0, 0), BuildingBlock: KIFKEQ_clean_linker_1, # of connection points: 2
#     Edge 236, Type (0, 0), BuildingBlock: KIFKEQ_clean_linker_1, # of connection points: 2
#     Edge 237, Type (0, 0), BuildingBlock: KIFKEQ_clean_linker_1, # of connection points: 2
#     Edge 238, Type (0, 0), BuildingBlock: KIFKEQ_clean_linker_1, # of connection points: 2
#     Edge 239, Type (0, 0), BuildingBlock: KIFKEQ_clean_linker_1, # of connection points: 2
#     Edge 240, Type (0, 0), BuildingBlock: KIFKEQ_clean_linker_1, # of connection points: 2
#     Edge 241, Type (0, 0), BuildingBlock: KIFKEQ_clean_linker_1, # of connection points: 2
#     Edge 242, Type (0, 0), BuildingBlock: KIFKEQ_clean_linker_1, # of connection points: 2
#     Edge 243, Type (0, 0), BuildingBlock: KIFKEQ_clean_linker_1, # of connection points: 2
#     Edge 244, Type (0, 0), BuildingBlock: KIFKEQ_clean_linker_1, # of connection points: 2
#     Edge 245, Type (0, 0), BuildingBlock: KIFKEQ_clean_linker_1, # of connection points: 2
#     Edge 246, Type (0, 0), BuildingBlock: KIFKEQ_clean_linker_1, # of connection points: 2
#     Edge 247, Type (0, 0), BuildingBlock: KIFKEQ_clean_linker_1, # of connection points: 2
#     Edge 248, Type (0, 0), BuildingBlock: KIFKEQ_clean_linker_1, # of connection points: 2
#     Edge 249, Type (0, 0), BuildingBlock: KIFKEQ_clean_linker_1, # of connection points: 2
#     Edge 250, Type (0, 0), BuildingBlock: KIFKEQ_clean_linker_1, # of connection points: 2
#     Edge 251, Type (0, 0), BuildingBlock: KIFKEQ_clean_linker_1, # of connection points: 2
#     Edge 252, Type (0, 0), BuildingBlock: KIFKEQ_clean_linker_1, # of connection points: 2
#     Edge 253, Type (0, 0), BuildingBlock: KIFKEQ_clean_linker_1, # of connection points: 2
#     Edge 254, Type (0, 0), BuildingBlock: KIFKEQ_clean_linker_1, # of connection points: 2
#     Edge 255, Type (0, 0), BuildingBlock: KIFKEQ_clean_linker_1, # of connection points: 2
#     Edge 256, Type (0, 0), BuildingBlock: KIFKEQ_clean_linker_1, # of connection points: 2
#     Edge 257, Type (0, 0), BuildingBlock: KIFKEQ_clean_linker_1, # of connection points: 2
#     Edge 258, Type (0, 0), BuildingBlock: KIFKEQ_clean_linker_1, # of connection points: 2
#     Edge 259, Type (0, 0), BuildingBlock: KIFKEQ_clean_linker_1, # of connection points: 2
#     Edge 260, Type (0, 0), BuildingBlock: KIFKEQ_clean_linker_1, # of connection points: 2
#     Edge 261, Type (0, 0), BuildingBlock: KIFKEQ_clean_linker_1, # of connection points: 2
#     Edge 262, Type (0, 0), BuildingBlock: KIFKEQ_clean_linker_1, # of connection points: 2
#     Edge 263, Type (0, 0), BuildingBlock: KIFKEQ_clean_linker_1, # of connection points: 2
#     Edge 264, Type (0, 0), BuildingBlock: KIFKEQ_clean_linker_1, # of connection points: 2
#     Edge 265, Type (0, 0), BuildingBlock: KIFKEQ_clean_linker_1, # of connection points: 2
#     Edge 266, Type (0, 0), BuildingBlock: KIFKEQ_clean_linker_1, # of connection points: 2
#     Edge 267, Type (0, 0), BuildingBlock: KIFKEQ_clean_linker_1, # of connection points: 2
#     Edge 268, Type (0, 0), BuildingBlock: KIFKEQ_clean_linker_1, # of connection points: 2
#     Edge 269, Type (0, 0), BuildingBlock: KIFKEQ_clean_linker_1, # of connection points: 2
#     Edge 270, Type (0, 0), BuildingBlock: KIFKEQ_clean_linker_1, # of connection points: 2
#     Edge 271, Type (0, 0), BuildingBlock: KIFKEQ_clean_linker_1, # of connection points: 2
#     Edge 272, Type (0, 0), BuildingBlock: KIFKEQ_clean_linker_1, # of connection points: 2
#     Edge 273, Type (0, 0), BuildingBlock: KIFKEQ_clean_linker_1, # of connection points: 2
#     Edge 274, Type (0, 0), BuildingBlock: KIFKEQ_clean_linker_1, # of connection points: 2
#     Edge 275, Type (0, 0), BuildingBlock: KIFKEQ_clean_linker_1, # of connection points: 2
#     Edge 276, Type (0, 0), BuildingBlock: KIFKEQ_clean_linker_1, # of connection points: 2
#     Edge 277, Type (0, 0), BuildingBlock: KIFKEQ_clean_linker_1, # of connection points: 2
#     Edge 278, Type (0, 0), BuildingBlock: KIFKEQ_clean_linker_1, # of connection points: 2
#     Edge 279, Type (0, 0), BuildingBlock: KIFKEQ_clean_linker_1, # of connection points: 2
#     Edge 280, Type (0, 0), BuildingBlock: KIFKEQ_clean_linker_1, # of connection points: 2
#     Edge 281, Type (0, 0), BuildingBlock: KIFKEQ_clean_linker_1, # of connection points: 2
#     Edge 282, Type (0, 0), BuildingBlock: KIFKEQ_clean_linker_1, # of connection points: 2
#     Edge 283, Type (0, 0), BuildingBlock: KIFKEQ_clean_linker_1, # of connection points: 2
#     Edge 284, Type (0, 0), BuildingBlock: KIFKEQ_clean_linker_1, # of connection points: 2
#     Edge 285, Type (0, 0), BuildingBlock: KIFKEQ_clean_linker_1, # of connection points: 2
#     Edge 286, Type (0, 0), BuildingBlock: KIFKEQ_clean_linker_1, # of connection points: 2
#     Edge 287, Type (0, 0), BuildingBlock: KIFKEQ_clean_linker_1, # of connection points: 2
# Relax obj value: 0.259
# Max RMSD: 0.178
# Mean RMSD: 0.174
data_MOF--net-wse--node1-QUQFOY_clean_sbu_1--edge1-KIFKEQ_clean_linker_1
_symmetry_space_group_name_H-M    P1
_symmetry_Int_Tables_number       1
_symmetry_cell_setting            triclinic
loop_
_symmetry_equiv_pos_as_xyz
'x, y, z'
_cell_length_a     108.11444
_cell_length_b     108.10607
_cell_length_c     108.11454
_cell_angle_alpha  90.006134
_cell_angle_beta   90.002698
_cell_angle_gamma 90.005361
loop_
_atom_site_label
_atom_site_type_symbol
_atom_site_fract_x
_atom_site_fract_y
_atom_site_fract_z
_atom_type_partial_charge
O0 O 0.05434 0.18517 0.43108 0.0
Cd1 Cd 0.07303 0.18717 0.43483 0.0
Cd2 Cd 0.07092 0.16226 0.43184 0.0
O3 O 0.05386 0.16599 0.4242 0.0
O4 O 0.07424 0.2053 0.43788 0.0
O5 O 0.08339 0.19628 0.42202 0.0
C6 C 0.0809 0.20625 0.42809 0.0
C7 C 0.08716 0.15264 0.42172 0.0
C8 C 0.04846 0.17624 0.42616 0.0
C9 C 0.07718 0.17075 0.45693 0.0
O10 O 0.07212 0.16204 0.45087 0.0
O11 O 0.07969 0.18094 0.45163 0.0
O12 O 0.07768 0.14639 0.42547 0.0
O13 O 0.08701 0.16454 0.42304 0.0
O14 O 0.84518 0.07128 0.44642 0.0
Cd15 Cd 0.84754 0.06985 0.42765 0.0
Cd16 Cd 0.82003 0.06854 0.4281 0.0
O17 O 0.82484 0.07321 0.44609 0.0
O18 O 0.86395 0.07733 0.42406 0.0
O19 O 0.84622 0.08553 0.41783 0.0
C20 C 0.85813 0.08631 0.41874 0.0
C21 C 0.79862 0.07131 0.42472 0.0
C22 C 0.83503 0.07328 0.45197 0.0
C23 C 0.83635 0.04695 0.41783 0.0
O24 O 0.82606 0.0521 0.42027 0.0
O25 O 0.8465 0.05246 0.41999 0.0
O26 O 0.80295 0.06271 0.43165 0.0
O27 O 0.80647 0.07865 0.41954 0.0
O28 O 0.94923 0.82421 0.42371 0.0
Cd29 Cd 0.93203 0.81965 0.43085 0.0
Cd30 Cd 0.93232 0.84672 0.42885 0.0
O31 O 0.94928 0.84437 0.42054 0.0
O32 O 0.93654 0.80267 0.43625 0.0
O33 O 0.92185 0.80594 0.42261 0.0
C34 C 0.92824 0.7982 0.42906 0.0
C35 C 0.91536 0.85603 0.41963 0.0
C36 C 0.95467 0.83395 0.42 0.0
C37 C 0.92783 0.8363 0.45361 0.0
O38 O 0.93153 0.84584 0.44784 0.0
O39 O 0.92653 0.82604 0.44803 0.0
O40 O 0.92459 0.86254 0.42352 0.0
O41 O 0.91613 0.8441 0.4203 0.0
O42 O 0.16178 0.93204 0.4473 0.0
Cd43 Cd 0.15881 0.93255 0.42853 0.0
Cd44 Cd 0.18532 0.934 0.42753 0.0
O45 O 0.18216 0.93089 0.44621 0.0
O46 O 0.14245 0.92476 0.42519 0.0
O47 O 0.16033 0.91638 0.41959 0.0
C48 C 0.14841 0.91564 0.42032 0.0
C49 C 0.20511 0.92772 0.42102 0.0
C50 C 0.17223 0.93083 0.45252 0.0
C51 C 0.16915 0.95542 0.41759 0.0
O52 O 0.17965 0.95054 0.41969 0.0
O53 O 0.15926 0.94966 0.4202 0.0
O54 O 0.20343 0.9375 0.42753 0.0
O55 O 0.19553 0.92125 0.41808 0.0
O56 O 0.04714 0.81942 0.58119 0.0
Cd57 Cd 0.06252 0.81197 0.57261 0.0
Cd58 Cd 0.06843 0.8374 0.5713 0.0
O59 O 0.05095 0.83934 0.57878 0.0
O60 O 0.05924 0.79397 0.5748 0.0
O61 O 0.0763 0.80292 0.58159 0.0
C62 C 0.06978 0.79301 0.58022 0.0
C63 C 0.08507 0.84879 0.57907 0.0
C64 C 0.04386 0.83066 0.58232 0.0
C65 C 0.06724 0.82319 0.54735 0.0
O66 O 0.06959 0.83337 0.55272 0.0
O67 O 0.06401 0.81376 0.55358 0.0
O68 O 0.07638 0.85395 0.57275 0.0
O69 O 0.08407 0.83711 0.58144 0.0
O70 O 0.16365 0.06888 0.55568 0.0
Cd71 Cd 0.16092 0.06724 0.57442 0.0
Cd72 Cd 0.18738 0.06582 0.57469 0.0
O73 O 0.18408 0.06927 0.5561 0.0
O74 O 0.1443 0.07435 0.57772 0.0
O75 O 0.16165 0.08261 0.58484 0.0
C76 C 0.14975 0.08314 0.58369 0.0
C77 C 0.207 0.07242 0.58133 0.0
C78 C 0.17396 0.06989 0.55013 0.0
C79 C 0.1715 0.04399 0.58422 0.0
O80 O 0.18195 0.04905 0.58225 0.0
O81 O 0.16154 0.04972 0.58178 0.0
O82 O 0.20555 0.06271 0.57464 0.0
O83 O 0.19727 0.07862 0.58438 0.0
O84 O 0.95372 0.17849 0.58378 0.0
Cd85 Cd 0.93854 0.18636 0.5752 0.0
Cd86 Cd 0.93262 0.1602 0.57343 0.0
O87 O 0.9502 0.15858 0.58072 0.0
O88 O 0.9439 0.20396 0.57546 0.0
O89 O 0.92639 0.19789 0.58389 0.0
C90 C 0.93385 0.20679 0.58112 0.0
C91 C 0.91632 0.14843 0.58135 0.0
C92 C 0.95714 0.16726 0.58457 0.0
C93 C 0.93338 0.17477 0.54983 0.0
O94 O 0.93119 0.16442 0.55492 0.0
O95 O 0.93652 0.18407 0.5563 0.0
O96 O 0.92499 0.1435 0.57482 0.0
O97 O 0.91713 0.1601 0.58382 0.0
O98 O 0.8334 0.92928 0.556 0.0
Cd99 Cd 0.83737 0.93087 0.57456 0.0
Cd100 Cd 0.8121 0.93742 0.57562 0.0
O101 O 0.81405 0.93573 0.55664 0.0
O102 O 0.85394 0.92303 0.57616 0.0
O103 O 0.83721 0.91551 0.58517 0.0
C104 C 0.84888 0.91453 0.5828 0.0
C105 C 0.79292 0.93048 0.58297 0.0
C106 C 0.82337 0.93199 0.55051 0.0
C107 C 0.83106 0.95588 0.58498 0.0
O108 O 0.81975 0.9528 0.58402 0.0
O109 O 0.83956 0.94853 0.58153 0.0
O110 O 0.79413 0.94099 0.57755 0.0
O111 O 0.80271 0.92383 0.58455 0.0
O112 O 0.4452 0.06833 0.16066 0.0
Cd113 Cd 0.42638 0.06763 0.15815 0.0
Cd114 Cd 0.42631 0.06634 0.18458 0.0
O115 O 0.44498 0.06897 0.18107 0.0
O116 O 0.42333 0.07496 0.14156 0.0
O117 O 0.41693 0.0836 0.159 0.0
C118 C 0.41805 0.08412 0.1471 0.0
C119 C 0.42026 0.07342 0.20423 0.0
C120 C 0.45088 0.0692 0.1709 0.0
C121 C 0.41582 0.0448 0.16894 0.0
O122 O 0.41812 0.04981 0.17934 0.0
O123 O 0.41826 0.05043 0.15892 0.0
O124 O 0.42645 0.06339 0.20278 0.0
O125 O 0.41733 0.07964 0.19448 0.0
O126 O 0.94929 0.41721 0.17929 0.0
Cd127 Cd 0.93359 0.42603 0.18563 0.0
Cd128 Cd 0.93049 0.42718 0.15919 0.0
O129 O 0.94805 0.41963 0.15904 0.0
O130 O 0.9372 0.42511 0.20368 0.0
O131 O 0.92011 0.41744 0.19561 0.0
C132 C 0.92684 0.41953 0.20524 0.0
C133 C 0.91445 0.41908 0.14728 0.0
C134 C 0.95392 0.41598 0.16855 0.0
C135 C 0.93 0.45116 0.17327 0.0
O136 O 0.92892 0.44578 0.16288 0.0
O137 O 0.93207 0.44496 0.18305 0.0
O138 O 0.92344 0.42515 0.14231 0.0
O139 O 0.91488 0.41706 0.15906 0.0
O140 O 0.55444 0.92852 0.16218 0.0
Cd141 Cd 0.57318 0.92865 0.15898 0.0
Cd142 Cd 0.57401 0.93078 0.18572 0.0
O143 O 0.55523 0.9285 0.1826 0.0
O144 O 0.57531 0.92135 0.14222 0.0
O145 O 0.58229 0.91244 0.15928 0.0
C146 C 0.58066 0.91204 0.14744 0.0
C147 C 0.57994 0.92463 0.20574 0.0
C148 C 0.54905 0.92812 0.1726 0.0
C149 C 0.58467 0.95146 0.16899 0.0
O150 O 0.58255 0.94683 0.1796 0.0
O151 O 0.58177 0.94563 0.15921 0.0
O152 O 0.57407 0.93475 0.20373 0.0
O153 O 0.58266 0.91781 0.19633 0.0
O154 O 0.0488 0.58254 0.17422 0.0
Cd155 Cd 0.06372 0.57383 0.18243 0.0
Cd156 Cd 0.06998 0.57241 0.15611 0.0
O157 O 0.05249 0.57987 0.15429 0.0
O158 O 0.05725 0.57361 0.19964 0.0
O159 O 0.07503 0.58234 0.19496 0.0
C160 C 0.06698 0.57939 0.20325 0.0
C161 C 0.08656 0.58024 0.14468 0.0
C162 C 0.0455 0.58359 0.16298 0.0
C163 C 0.06896 0.54863 0.17043 0.0
O164 O 0.07116 0.55385 0.16014 0.0
O165 O 0.06587 0.55497 0.17983 0.0
O166 O 0.07788 0.57388 0.13955 0.0
O167 O 0.08559 0.58261 0.15636 0.0
O168 O 0.44477 0.93144 0.83546 0.0
Cd169 Cd 0.4261 0.93307 0.83883 0.0
Cd170 Cd 0.42514 0.93848 0.81335 0.0
O171 O 0.44406 0.93663 0.81573 0.0
O172 O 0.42309 0.92524 0.85524 0.0
O173 O 0.41581 0.91759 0.83767 0.0
C174 C 0.41706 0.91668 0.84953 0.0
C175 C 0.41818 0.93134 0.79407 0.0
C176 C 0.45022 0.93352 0.82526 0.0
C177 C 0.41567 0.95775 0.83142 0.0
O178 O 0.41673 0.9542 0.82027 0.0
O179 O 0.41902 0.95076 0.84025 0.0
O180 O 0.42377 0.94177 0.79526 0.0
O181 O 0.41623 0.92488 0.80391 0.0
O182 O 0.05177 0.41944 0.82081 0.0
Cd183 Cd 0.06741 0.42805 0.81405 0.0
Cd184 Cd 0.07099 0.42962 0.84037 0.0
O185 O 0.05349 0.42196 0.84101 0.0
O186 O 0.06363 0.42665 0.79606 0.0
O187 O 0.08074 0.41911 0.8042 0.0
C188 C 0.07394 0.42093 0.79457 0.0
C189 C 0.08713 0.42176 0.85233 0.0
C190 C 0.04739 0.41826 0.83166 0.0
C191 C 0.0711 0.4534 0.82586 0.0
O192 O 0.0723 0.44818 0.83632 0.0
O193 O 0.06901 0.44704 0.81619 0.0
O194 O 0.07822 0.428 0.85722 0.0
O195 O 0.08662 0.41951 0.8406 0.0
O196 O 0.55249 0.07194 0.84198 0.0
Cd197 Cd 0.57125 0.07034 0.84443 0.0
Cd198 Cd 0.57092 0.0693 0.81688 0.0
O199 O 0.55299 0.07424 0.82168 0.0
O200 O 0.57478 0.07738 0.86103 0.0
O201 O 0.58127 0.08593 0.84357 0.0
C202 C 0.58029 0.08641 0.85549 0.0
C203 C 0.57433 0.07211 0.79549 0.0
C204 C 0.54704 0.07419 0.83183 0.0
C205 C 0.58095 0.04748 0.83304 0.0
O206 O 0.57855 0.05271 0.82278 0.0
O207 O 0.57881 0.05293 0.84322 0.0
O208 O 0.56723 0.06365 0.79979 0.0
O209 O 0.57969 0.0793 0.80336 0.0
O210 O 0.95183 0.58388 0.8201 0.0
Cd211 Cd 0.93514 0.57568 0.81542 0.0
Cd212 Cd 0.93437 0.57616 0.84178 0.0
O213 O 0.95162 0.58405 0.84051 0.0
O214 O 0.93801 0.57472 0.79724 0.0
O215 O 0.922 0.58454 0.8052 0.0
C216 C 0.92814 0.58111 0.79557 0.0
C217 C 0.91787 0.58566 0.85164 0.0
C218 C 0.95706 0.58631 0.83035 0.0
C219 C 0.93206 0.55145 0.82994 0.0
O220 O 0.93334 0.55726 0.84007 0.0
O221 O 0.93217 0.5572 0.81967 0.0
O222 O 0.92685 0.58088 0.85788 0.0
O223 O 0.91852 0.5855 0.8397 0.0
O224 O 0.1623 0.44373 0.07041 0.0
Cd225 Cd 0.15959 0.42497 0.06925 0.0
Cd226 Cd 0.18573 0.42526 0.06477 0.0
O227 O 0.18258 0.4439 0.06797 0.0
O228 O 0.14288 0.42253 0.07655 0.0
O229 O 0.15993 0.41506 0.08502 0.0
C230 C 0.1481 0.41675 0.08557 0.0
C231 C 0.20544 0.41877 0.07117 0.0
C232 C 0.17247 0.44959 0.06989 0.0
C233 C 0.16813 0.41533 0.04479 0.0
O234 O 0.17909 0.41751 0.0485 0.0
O235 O 0.15892 0.41747 0.05177 0.0
O236 O 0.20382 0.42497 0.06117 0.0
O237 O 0.19581 0.41595 0.07763 0.0
O238 O 0.16392 0.55814 0.92967 0.0
Cd239 Cd 0.1616 0.57696 0.93069 0.0
Cd240 Cd 0.18776 0.57603 0.93545 0.0
O241 O 0.18419 0.55748 0.93214 0.0
O242 O 0.14497 0.57963 0.92328 0.0
O243 O 0.16219 0.58673 0.91484 0.0
C244 C 0.15035 0.58522 0.91423 0.0
C245 C 0.20772 0.58212 0.9294 0.0
C246 C 0.17394 0.55204 0.93021 0.0
C247 C 0.17014 0.58643 0.9552 0.0
O248 O 0.18107 0.58392 0.95162 0.0
O249 O 0.16095 0.58457 0.94812 0.0
O250 O 0.2058 0.57588 0.93933 0.0
O251 O 0.19826 0.58517 0.92279 0.0
O252 O 0.44323 0.16325 0.93092 0.0
Cd253 Cd 0.42435 0.16096 0.93163 0.0
Cd254 Cd 0.42455 0.18701 0.93544 0.0
O255 O 0.44332 0.1834 0.9343 0.0
O256 O 0.4207 0.14472 0.92378 0.0
O257 O 0.41511 0.16269 0.91562 0.0
C258 C 0.41567 0.15077 0.91481 0.0
C259 C 0.4191 0.20692 0.92859 0.0
C260 C 0.44909 0.17333 0.93235 0.0
C261 C 0.41323 0.17017 0.95517 0.0
O262 O 0.41523 0.18097 0.95098 0.0
O263 O 0.41627 0.16069 0.94893 0.0
O264 O 0.42442 0.2051 0.93905 0.0
O265 O 0.41669 0.19739 0.92183 0.0
O266 O 0.83807 0.45029 0.92507 0.0
Cd267 Cd 0.83819 0.43131 0.92686 0.0
Cd268 Cd 0.81284 0.43451 0.92547 0.0
O269 O 0.81877 0.45135 0.91865 0.0
O270 O 0.85485 0.42604 0.92114 0.0
O271 O 0.83755 0.42138 0.91119 0.0
C272 C 0.8495 0.42119 0.91162 0.0
C273 C 0.79352 0.4278 0.91816 0.0
C274 C 0.82917 0.45648 0.92053 0.0
C275 C 0.82465 0.42611 0.94982 0.0
O276 O 0.8155 0.43079 0.94408 0.0
O277 O 0.83481 0.4242 0.94423 0.0
O278 O 0.79467 0.43754 0.92486 0.0
O279 O 0.8034 0.42173 0.91535 0.0
O280 O 0.55057 0.83923 0.92439 0.0
Cd281 Cd 0.5695 0.83944 0.92605 0.0
Cd282 Cd 0.56698 0.81378 0.92527 0.0
O283 O 0.54969 0.81952 0.91925 0.0
O284 O 0.57539 0.85556 0.91942 0.0
O285 O 0.57884 0.83754 0.91019 0.0
C286 C 0.57965 0.84948 0.91006 0.0
C287 C 0.57332 0.79432 0.91797 0.0
C288 C 0.54445 0.82996 0.92056 0.0
C289 C 0.57602 0.82635 0.94907 0.0
O290 O 0.57195 0.81679 0.94354 0.0
O291 O 0.57672 0.83664 0.94344 0.0
O292 O 0.564 0.79558 0.92522 0.0
O293 O 0.57915 0.80416 0.91458 0.0
O294 O 0.8365 0.55384 0.07051 0.0
Cd295 Cd 0.84076 0.57237 0.06951 0.0
Cd296 Cd 0.81465 0.57437 0.06581 0.0
O297 O 0.81644 0.55535 0.06698 0.0
O298 O 0.8576 0.57372 0.07682 0.0
O299 O 0.84106 0.58231 0.08526 0.0
C300 C 0.85277 0.57994 0.08578 0.0
C301 C 0.79541 0.58153 0.07296 0.0
C302 C 0.82598 0.5488 0.06907 0.0
C303 C 0.83235 0.58406 0.04592 0.0
O304 O 0.82145 0.58304 0.05021 0.0
O305 O 0.84159 0.58021 0.05209 0.0
O306 O 0.79662 0.57617 0.06242 0.0
O307 O 0.80522 0.58309 0.07958 0.0
O308 O 0.44364 0.83806 0.06896 0.0
Cd309 Cd 0.42491 0.84105 0.06802 0.0
Cd310 Cd 0.42459 0.81506 0.06334 0.0
O311 O 0.44332 0.81782 0.06631 0.0
O312 O 0.42268 0.85762 0.07572 0.0
O313 O 0.41511 0.84045 0.08385 0.0
C314 C 0.41691 0.85224 0.08466 0.0
C315 C 0.41791 0.79553 0.07011 0.0
C316 C 0.44925 0.82777 0.06828 0.0
C317 C 0.41483 0.83293 0.04358 0.0
O318 O 0.41674 0.82189 0.04718 0.0
O319 O 0.41728 0.84203 0.05061 0.0
O320 O 0.42388 0.79694 0.05993 0.0
O321 O 0.41534 0.8053 0.07648 0.0
O322 O 0.55554 0.15999 0.07104 0.0
Cd323 Cd 0.57435 0.15739 0.07029 0.0
Cd324 Cd 0.57444 0.18403 0.06871 0.0
O325 O 0.55577 0.18042 0.07126 0.0
O326 O 0.57725 0.14067 0.07735 0.0
O327 O 0.58391 0.1579 0.08621 0.0
C328 C 0.58268 0.14601 0.08654 0.0
C329 C 0.58014 0.20398 0.07524 0.0
C330 C 0.54987 0.17025 0.0717 0.0
C331 C 0.58516 0.16805 0.0475 0.0
O332 O 0.58293 0.17851 0.05243 0.0
O333 O 0.58248 0.15809 0.05312 0.0
O334 O 0.57408 0.20213 0.0652 0.0
O335 O 0.58314 0.19447 0.08179 0.0
O336 O 0.91004 0.82558 0.55099 0.0
Cd337 Cd 0.90807 0.82203 0.56954 0.0
Cd338 Cd 0.93442 0.82061 0.56899 0.0
O339 O 0.93037 0.82713 0.55144 0.0
O340 O 0.89135 0.82833 0.57389 0.0
O341 O 0.90867 0.83653 0.58113 0.0
C342 C 0.89674 0.83685 0.58028 0.0
C343 C 0.954 0.82703 0.57579 0.0
C344 C 0.9202 0.82797 0.54562 0.0
C345 C 0.91925 0.79764 0.57595 0.0
O346 O 0.92969 0.80263 0.57381 0.0
O347 O 0.90932 0.80388 0.57514 0.0
O348 O 0.95265 0.8193 0.56687 0.0
O349 O 0.94419 0.8311 0.58123 0.0
O350 O 0.2008 0.92571 0.57727 0.0
Cd351 Cd 0.18456 0.93294 0.57009 0.0
Cd352 Cd 0.18087 0.90635 0.56846 0.0
O353 O 0.19824 0.90547 0.57615 0.0
O354 O 0.18963 0.95062 0.56973 0.0
O355 O 0.17366 0.9442 0.5806 0.0
C356 C 0.18068 0.9532 0.57709 0.0
C357 C 0.16435 0.8953 0.57681 0.0
C358 C 0.20483 0.91479 0.57895 0.0
C359 C 0.17925 0.92088 0.54496 0.0
O360 O 0.17973 0.91022 0.54987 0.0
O361 O 0.18041 0.93057 0.55152 0.0
O362 O 0.17298 0.88986 0.57062 0.0
O363 O 0.16533 0.90708 0.57865 0.0
O364 O 0.0914 0.17568 0.55555 0.0
Cd365 Cd 0.09266 0.17762 0.57442 0.0
Cd366 Cd 0.06663 0.17987 0.57297 0.0
O367 O 0.07105 0.17479 0.55504 0.0
O368 O 0.10911 0.17068 0.57877 0.0
O369 O 0.09143 0.16225 0.58478 0.0
C370 C 0.10338 0.16179 0.58431 0.0
C371 C 0.04703 0.1729 0.57907 0.0
C372 C 0.08142 0.1741 0.54957 0.0
C373 C 0.08194 0.20178 0.58235 0.0
O374 O 0.07147 0.19735 0.57928 0.0
O375 O 0.09168 0.19525 0.58152 0.0
O376 O 0.04842 0.18132 0.57081 0.0
O377 O 0.05682 0.16843 0.58424 0.0
O378 O 0.80424 0.06799 0.57146 0.0
Cd379 Cd 0.82266 0.06445 0.5675 0.0
Cd380 Cd 0.82248 0.09001 0.56909 0.0
O381 O 0.80491 0.08785 0.57613 0.0
O382 O 0.82255 0.04618 0.56534 0.0
O383 O 0.83301 0.05531 0.5803 0.0
C384 C 0.82974 0.04526 0.57474 0.0
C385 C 0.83808 0.10079 0.57923 0.0
C386 C 0.79892 0.07778 0.57526 0.0
C387 C 0.82828 0.07932 0.54451 0.0
O388 O 0.82449 0.0889 0.55015 0.0
O389 O 0.82934 0.06912 0.55023 0.0
O390 O 0.82905 0.1065 0.5739 0.0
O391 O 0.83788 0.08883 0.57938 0.0
O392 O 0.91511 0.18231 0.45196 0.0
Cd393 Cd 0.911 0.184 0.43344 0.0
Cd394 Cd 0.93659 0.191 0.43214 0.0
O395 O 0.93455 0.18848 0.45101 0.0
O396 O 0.89508 0.17505 0.43123 0.0
O397 O 0.91255 0.16901 0.42247 0.0
C398 C 0.90091 0.16715 0.42446 0.0
C399 C 0.95674 0.187 0.42514 0.0
C400 C 0.9253 0.18476 0.45726 0.0
C401 C 0.91673 0.20888 0.42281 0.0
O402 O 0.92806 0.20592 0.42378 0.0
O403 O 0.90829 0.20157 0.42647 0.0
O404 O 0.954 0.19688 0.43114 0.0
O405 O 0.94798 0.1792 0.42291 0.0
O406 O 0.79861 0.93066 0.42381 0.0
Cd407 Cd 0.81426 0.93765 0.43227 0.0
Cd408 Cd 0.81933 0.91203 0.43323 0.0
O409 O 0.80205 0.9106 0.42526 0.0
O410 O 0.81031 0.95561 0.43168 0.0
O411 O 0.82688 0.94786 0.42271 0.0
C412 C 0.82015 0.95738 0.42525 0.0
C413 C 0.83634 0.90241 0.42425 0.0
C414 C 0.79515 0.91956 0.42209 0.0
C415 C 0.81856 0.92539 0.4574 0.0
O416 O 0.82008 0.91504 0.45203 0.0
O417 O 0.81632 0.93509 0.45115 0.0
O418 O 0.82789 0.8961 0.42982 0.0
O419 O 0.83501 0.91427 0.42351 0.0
O420 O 0.08596 0.82022 0.4493 0.0
Cd421 Cd 0.08974 0.82006 0.43061 0.0
Cd422 Cd 0.06424 0.81512 0.42877 0.0
O423 O 0.06599 0.81616 0.44782 0.0
O424 O 0.1059 0.82857 0.4282 0.0
O425 O 0.08809 0.83613 0.4214 0.0
C426 C 0.09992 0.8373 0.42269 0.0
C427 C 0.04517 0.82183 0.42098 0.0
C428 C 0.07552 0.81834 0.45437 0.0
C429 C 0.08254 0.79632 0.41842 0.0
O430 O 0.07143 0.79984 0.41988 0.0
O431 O 0.09144 0.80303 0.42213 0.0
O432 O 0.04636 0.81142 0.42657 0.0
O433 O 0.05484 0.82872 0.41978 0.0
O434 O 0.20007 0.0725 0.42554 0.0
Cd435 Cd 0.18351 0.06603 0.4327 0.0
Cd436 Cd 0.18029 0.09241 0.43345 0.0
O437 O 0.19763 0.09276 0.42569 0.0
O438 O 0.18786 0.04817 0.43339 0.0
O439 O 0.1723 0.05505 0.42221 0.0
C440 C 0.17895 0.04585 0.42589 0.0
C441 C 0.16384 0.10282 0.42432 0.0
C442 C 0.20419 0.0833 0.42341 0.0
C443 C 0.17854 0.07899 0.45746 0.0
O444 O 0.17926 0.08949 0.45223 0.0
O445 O 0.17938 0.06907 0.45119 0.0
O446 O 0.17258 0.10873 0.42989 0.0
O447 O 0.16458 0.0909 0.42364 0.0
O448 O 0.54825 0.9148 0.81961 0.0
Cd449 Cd 0.56693 0.91133 0.8181 0.0
Cd450 Cd 0.56817 0.93738 0.81318 0.0
O451 O 0.54939 0.93485 0.81589 0.0
O452 O 0.57004 0.89491 0.82581 0.0
O453 O 0.57719 0.9125 0.83357 0.0
C454 C 0.57609 0.90062 0.83436 0.0
C455 C 0.57506 0.95736 0.81838 0.0
C456 C 0.54304 0.92526 0.81833 0.0
C457 C 0.5776 0.91918 0.79373 0.0
O458 O 0.57622 0.93027 0.79738 0.0
O459 O 0.57435 0.91019 0.80056 0.0
O460 O 0.5684 0.95524 0.80877 0.0
O461 O 0.57797 0.94804 0.82525 0.0
O462 O 0.08915 0.55144 0.82056 0.0
Cd463 Cd 0.09318 0.57 0.81892 0.0
Cd464 Cd 0.06721 0.57151 0.8135 0.0
O465 O 0.06923 0.55267 0.81621 0.0
O466 O 0.10951 0.57216 0.82709 0.0
O467 O 0.09232 0.58081 0.83406 0.0
C468 C 0.10405 0.57886 0.83531 0.0
C469 C 0.04724 0.5789 0.81799 0.0
C470 C 0.07871 0.54628 0.81899 0.0
C471 C 0.08607 0.58064 0.79443 0.0
O472 O 0.07492 0.57944 0.79794 0.0
O473 O 0.09494 0.57723 0.80134 0.0
O474 O 0.04952 0.57212 0.8085 0.0
O475 O 0.05639 0.58159 0.82518 0.0
O476 O 0.44889 0.09151 0.82263 0.0
Cd477 Cd 0.42998 0.09277 0.821 0.0
Cd478 Cd 0.43081 0.06692 0.81927 0.0
O479 O 0.44873 0.07121 0.82456 0.0
O480 O 0.42472 0.10874 0.82846 0.0
O481 O 0.42018 0.09042 0.83656 0.0
C482 C 0.41977 0.10236 0.83726 0.0
C483 C 0.42419 0.04753 0.82637 0.0
C484 C 0.45454 0.08143 0.82473 0.0
C485 C 0.42178 0.08189 0.79707 0.0
O486 O 0.4248 0.07147 0.80162 0.0
O487 O 0.42263 0.09169 0.8035 0.0
O488 O 0.43271 0.04865 0.81817 0.0
O489 O 0.41913 0.05747 0.83061 0.0
O490 O 0.91419 0.45346 0.82268 0.0
Cd491 Cd 0.91132 0.43475 0.82015 0.0
Cd492 Cd 0.93767 0.43488 0.81883 0.0
O493 O 0.9345 0.45276 0.82475 0.0
O494 O 0.89442 0.43151 0.82665 0.0
O495 O 0.91134 0.42364 0.83507 0.0
C496 C 0.89946 0.42502 0.8353 0.0
C497 C 0.95751 0.42729 0.82359 0.0
C498 C 0.92441 0.4588 0.82497 0.0
C499 C 0.92196 0.42771 0.79603 0.0
O500 O 0.93228 0.43019 0.80109 0.0
O501 O 0.91202 0.42823 0.80225 0.0
O502 O 0.95573 0.43582 0.81553 0.0
O503 O 0.94796 0.42303 0.82934 0.0
O504 O 0.54921 0.08502 0.17804 0.0
Cd505 Cd 0.56799 0.08751 0.18023 0.0
Cd506 Cd 0.56746 0.06138 0.18167 0.0
O507 O 0.54961 0.06474 0.17574 0.0
O508 O 0.57166 0.10411 0.17323 0.0
O509 O 0.57889 0.08669 0.1652 0.0
C510 C 0.57787 0.0986 0.16465 0.0
C511 C 0.57491 0.04141 0.17719 0.0
C512 C 0.54371 0.0749 0.17571 0.0
C513 C 0.57492 0.0771 0.20435 0.0
O514 O 0.57215 0.06681 0.19939 0.0
O515 O 0.57469 0.08699 0.19803 0.0
O516 O 0.56627 0.04335 0.18509 0.0
O517 O 0.57933 0.05087 0.17141 0.0
O518 O 0.9149 0.54985 0.17857 0.0
Cd519 Cd 0.91281 0.56881 0.17973 0.0
Cd520 Cd 0.93854 0.56874 0.18103 0.0
O521 O 0.93528 0.55018 0.17817 0.0
O522 O 0.89614 0.57241 0.17281 0.0
O523 O 0.91354 0.57859 0.16395 0.0
C524 C 0.90161 0.57781 0.16368 0.0
C525 C 0.95692 0.57579 0.172 0.0
C526 C 0.92517 0.54421 0.17781 0.0
C527 C 0.92403 0.57844 0.20311 0.0
O528 O 0.93442 0.57573 0.1983 0.0
O529 O 0.91407 0.57685 0.19706 0.0
O530 O 0.95692 0.56819 0.18114 0.0
O531 O 0.94642 0.57974 0.16795 0.0
O532 O 0.45098 0.91143 0.17891 0.0
Cd533 Cd 0.43233 0.90814 0.18051 0.0
Cd534 Cd 0.43151 0.93445 0.18404 0.0
O535 O 0.45002 0.93182 0.17971 0.0
O536 O 0.42937 0.89182 0.17257 0.0
O537 O 0.42162 0.90935 0.16537 0.0
C538 C 0.42304 0.89752 0.16422 0.0
C539 C 0.42426 0.95451 0.17963 0.0
C540 C 0.45624 0.92192 0.17844 0.0
C541 C 0.42299 0.91678 0.20479 0.0
O542 O 0.42473 0.92765 0.20063 0.0
O543 O 0.42531 0.90737 0.19815 0.0
O544 O 0.43185 0.9523 0.1885 0.0
O545 O 0.42071 0.94526 0.17298 0.0
O546 O 0.0858 0.45053 0.17777 0.0
Cd547 Cd 0.08968 0.43201 0.17988 0.0
Cd548 Cd 0.06364 0.43077 0.18483 0.0
O549 O 0.06579 0.44955 0.18172 0.0
O550 O 0.10617 0.42963 0.17207 0.0
O551 O 0.08907 0.42093 0.16493 0.0
C552 C 0.10083 0.42284 0.16385 0.0
C553 C 0.04386 0.42322 0.17982 0.0
C554 C 0.07537 0.4558 0.17898 0.0
C555 C 0.08207 0.42202 0.2045 0.0
O556 O 0.07099 0.42318 0.20075 0.0
O557 O 0.09108 0.4252 0.19765 0.0
O558 O 0.04581 0.43011 0.1893 0.0
O559 O 0.05323 0.42051 0.17293 0.0
O560 O 0.80513 0.5773 0.92999 0.0
Cd561 Cd 0.82283 0.57168 0.9345 0.0
Cd562 Cd 0.82368 0.5745 0.90858 0.0
O563 O 0.80619 0.58186 0.91016 0.0
O564 O 0.81967 0.56861 0.95235 0.0
O565 O 0.83334 0.58231 0.94605 0.0
C566 C 0.82761 0.577 0.95507 0.0
C567 C 0.84004 0.58486 0.89936 0.0
C568 C 0.80007 0.58129 0.92016 0.0
C569 C 0.828 0.54916 0.91851 0.0
O570 O 0.82526 0.5555 0.909 0.0
O571 O 0.82847 0.55421 0.92912 0.0
O572 O 0.83113 0.58033 0.89282 0.0
O573 O 0.83934 0.58402 0.91127 0.0
O574 O 0.79771 0.42198 0.07097 0.0
Cd575 Cd 0.81228 0.43094 0.06247 0.0
Cd576 Cd 0.81949 0.43176 0.08845 0.0
O577 O 0.8021 0.42425 0.09079 0.0
O578 O 0.806 0.43043 0.04517 0.0
O579 O 0.82396 0.42234 0.05047 0.0
C580 C 0.81591 0.4247 0.04198 0.0
C581 C 0.83613 0.42347 0.09947 0.0
C582 C 0.79484 0.42063 0.08229 0.0
C583 C 0.818 0.45586 0.0745 0.0
O584 O 0.82068 0.45036 0.08453 0.0
O585 O 0.81436 0.44979 0.06511 0.0
O586 O 0.82773 0.43002 0.10482 0.0
O587 O 0.83493 0.42132 0.08777 0.0
O588 O 0.54719 0.8194 0.0863 0.0
Cd589 Cd 0.566 0.8176 0.08883 0.0
Cd590 Cd 0.56529 0.81529 0.06197 0.0
O591 O 0.54767 0.82147 0.06598 0.0
O592 O 0.56944 0.82478 0.10542 0.0
O593 O 0.57653 0.83291 0.08802 0.0
C594 C 0.57544 0.83351 0.09992 0.0
C595 C 0.57056 0.81832 0.04102 0.0
C596 C 0.54175 0.82165 0.07613 0.0
C597 C 0.57362 0.79343 0.07865 0.0
O598 O 0.57073 0.79803 0.06822 0.0
O599 O 0.57311 0.79995 0.08841 0.0
O600 O 0.56232 0.8105 0.04446 0.0
O601 O 0.57598 0.82468 0.04953 0.0
O602 O 0.20004 0.56952 0.06652 0.0
Cd603 Cd 0.18161 0.56572 0.06291 0.0
Cd604 Cd 0.18161 0.56679 0.08818 0.0
O605 O 0.19916 0.57391 0.08642 0.0
O606 O 0.18148 0.56446 0.04455 0.0
O607 O 0.17114 0.57894 0.05457 0.0
C608 C 0.17429 0.57391 0.04422 0.0
C609 C 0.16575 0.5768 0.09867 0.0
C610 C 0.20528 0.57314 0.07642 0.0
C611 C 0.17635 0.5423 0.07703 0.0
O612 O 0.17994 0.54784 0.08674 0.0
O613 O 0.17516 0.5482 0.06695 0.0
O614 O 0.17464 0.57141 0.10455 0.0
O615 O 0.16621 0.57701 0.08672 0.0
O616 O 0.45161 0.17741 0.08806 0.0
Cd617 Cd 0.43281 0.17935 0.09066 0.0
Cd618 Cd 0.4331 0.18044 0.06461 0.0
O619 O 0.451 0.17459 0.06785 0.0
O620 O 0.42911 0.17201 0.10711 0.0
O621 O 0.42214 0.16419 0.0895 0.0
C622 C 0.42309 0.16343 0.1014 0.0
C623 C 0.42538 0.17593 0.04476 0.0
C624 C 0.45703 0.17487 0.07794 0.0
C625 C 0.42555 0.20326 0.08011 0.0
O626 O 0.42838 0.19818 0.0699 0.0
O627 O 0.42584 0.19707 0.09009 0.0
O628 O 0.43411 0.18377 0.04657 0.0
O629 O 0.42108 0.17015 0.05427 0.0
O630 O 0.19893 0.43202 0.93351 0.0
Cd631 Cd 0.1805 0.43586 0.93701 0.0
Cd632 Cd 0.18069 0.43478 0.91166 0.0
O633 O 0.19822 0.42765 0.91359 0.0
O634 O 0.18031 0.43719 0.95536 0.0
O635 O 0.16992 0.42272 0.94538 0.0
C636 C 0.17306 0.42778 0.95572 0.0
C637 C 0.16501 0.42495 0.9007 0.0
C638 C 0.20426 0.42843 0.92364 0.0
C639 C 0.17552 0.4593 0.92284 0.0
O640 O 0.17911 0.45372 0.91316 0.0
O641 O 0.17419 0.45342 0.93292 0.0
O642 O 0.17406 0.43036 0.89509 0.0
O643 O 0.16521 0.4246 0.91266 0.0
O644 O 0.54714 0.17821 0.91619 0.0
Cd645 Cd 0.56568 0.18095 0.9125 0.0
Cd646 Cd 0.56679 0.18415 0.9385 0.0
O647 O 0.54836 0.17963 0.93652 0.0
O648 O 0.56864 0.17335 0.89602 0.0
O649 O 0.5771 0.1663 0.91328 0.0
C650 C 0.57545 0.16522 0.90149 0.0
C651 C 0.5751 0.17946 0.95806 0.0
C652 C 0.54204 0.17788 0.92677 0.0
C653 C 0.57381 0.20565 0.92129 0.0
O654 O 0.57235 0.20119 0.93206 0.0
O655 O 0.57193 0.19899 0.91179 0.0
O656 O 0.56713 0.1881 0.95644 0.0
O657 O 0.57842 0.17314 0.94849 0.0
O658 O 0.44552 0.82459 0.90842 0.0
Cd659 Cd 0.42648 0.82336 0.90857 0.0
Cd660 Cd 0.42961 0.82332 0.93381 0.0
O661 O 0.44664 0.82983 0.92807 0.0
O662 O 0.42036 0.83047 0.89274 0.0
O663 O 0.41748 0.83935 0.91102 0.0
C664 C 0.41636 0.83974 0.89911 0.0
C665 C 0.42328 0.83025 0.95339 0.0
C666 C 0.45177 0.82844 0.91759 0.0
C667 C 0.42058 0.79986 0.92095 0.0
O668 O 0.42535 0.80497 0.93042 0.0
O669 O 0.4189 0.80606 0.91111 0.0
O670 O 0.4327 0.82316 0.95197 0.0
O671 O 0.41728 0.8336 0.94364 0.0
O672 O 0.55639 0.68253 0.92635 0.0
Cd673 Cd 0.57444 0.68592 0.93188 0.0
Cd674 Cd 0.57382 0.65992 0.92973 0.0
O675 O 0.55641 0.66246 0.9225 0.0
O676 O 0.574 0.70413 0.93469 0.0
O677 O 0.58535 0.69566 0.92001 0.0
C678 C 0.58156 0.70547 0.92564 0.0
C679 C 0.58947 0.64885 0.92 0.0
C680 C 0.55086 0.67281 0.92264 0.0
C681 C 0.57883 0.67014 0.95476 0.0
O682 O 0.57545 0.66071 0.94864 0.0
O683 O 0.57998 0.68058 0.94946 0.0
O684 O 0.58014 0.64332 0.925 0.0
O685 O 0.58949 0.66081 0.91983 0.0
O686 O 0.34077 0.57252 0.94509 0.0
Cd687 Cd 0.34339 0.57156 0.9263 0.0
Cd688 Cd 0.31714 0.56703 0.92677 0.0
O689 O 0.32049 0.57016 0.94539 0.0
O690 O 0.36005 0.579 0.92386 0.0
O691 O 0.34292 0.58745 0.91657 0.0
C692 C 0.35474 0.58807 0.91823 0.0
C693 C 0.29724 0.57313 0.92054 0.0
C694 C 0.33065 0.572 0.95101 0.0
C695 C 0.33478 0.54716 0.91659 0.0
O696 O 0.32384 0.55086 0.91887 0.0
O697 O 0.34402 0.55411 0.91868 0.0
O698 O 0.2991 0.56315 0.92672 0.0
O699 O 0.30672 0.57975 0.91762 0.0
O700 O 0.45011 0.32307 0.91937 0.0
Cd701 Cd 0.43383 0.31639 0.92701 0.0
Cd702 Cd 0.42936 0.34261 0.92681 0.0
O703 O 0.44682 0.34323 0.91925 0.0
O704 O 0.43779 0.29837 0.92704 0.0
O705 O 0.4214 0.30593 0.91751 0.0
C706 C 0.42801 0.29647 0.92056 0.0
C707 C 0.41287 0.35342 0.91814 0.0
C708 C 0.4538 0.33402 0.91714 0.0
C709 C 0.42844 0.32981 0.95135 0.0
O710 O 0.4282 0.34006 0.94561 0.0
O711 O 0.43023 0.31972 0.94557 0.0
O712 O 0.42186 0.35911 0.92353 0.0
O713 O 0.41347 0.34151 0.91719 0.0
O714 O 0.66122 0.42808 0.95105 0.0
Cd715 Cd 0.66004 0.42925 0.9321 0.0
Cd716 Cd 0.68582 0.42789 0.93317 0.0
O717 O 0.68081 0.42242 0.95085 0.0
O718 O 0.64365 0.42266 0.92696 0.0
O719 O 0.66144 0.41325 0.92289 0.0
C720 C 0.64948 0.41325 0.92247 0.0
C721 C 0.70503 0.42023 0.92653 0.0
C722 C 0.67075 0.42417 0.95669 0.0
C723 C 0.67323 0.4518 0.92432 0.0
O724 O 0.6829 0.4461 0.92787 0.0
O725 O 0.66279 0.44642 0.92441 0.0
O726 O 0.70408 0.42781 0.93562 0.0
O727 O 0.69502 0.41676 0.92106 0.0
O728 O 0.54761 0.31954 0.08143 0.0
Cd729 Cd 0.56395 0.31283 0.0739 0.0
Cd730 Cd 0.56874 0.33869 0.07454 0.0
O731 O 0.55109 0.33967 0.08153 0.0
O732 O 0.56041 0.29474 0.07437 0.0
O733 O 0.5766 0.30297 0.08371 0.0
C734 C 0.57021 0.29328 0.08093 0.0
C735 C 0.58485 0.34971 0.08371 0.0
C736 C 0.544 0.33053 0.08358 0.0
C737 C 0.56989 0.32606 0.04978 0.0
O738 O 0.5705 0.33614 0.05578 0.0
O739 O 0.56757 0.31593 0.0553 0.0
O740 O 0.57628 0.3552 0.07751 0.0
O741 O 0.58402 0.33787 0.08515 0.0
O742 O 0.66318 0.56988 0.05674 0.0
Cd743 Cd 0.66025 0.56822 0.07546 0.0
Cd744 Cd 0.68691 0.56696 0.07587 0.0
O745 O 0.6836 0.57039 0.05729 0.0
O746 O 0.64336 0.57491 0.07836 0.0
O747 O 0.66032 0.58369 0.08577 0.0
C748 C 0.64844 0.58391 0.08434 0.0
C749 C 0.70659 0.57359 0.0823 0.0
C750 C 0.67351 0.57096 0.05126 0.0
C751 C 0.6711 0.54505 0.08534 0.0
O752 O 0.68151 0.55018 0.08342 0.0
O753 O 0.6611 0.5507 0.08287 0.0
O754 O 0.70507 0.56383 0.07571 0.0
O755 O 0.69689 0.57979 0.08543 0.0
O756 O 0.45153 0.68006 0.0849 0.0
Cd757 Cd 0.43622 0.68757 0.07623 0.0
Cd758 Cd 0.42975 0.66189 0.07541 0.0
O759 O 0.44747 0.66019 0.08241 0.0
O760 O 0.43993 0.7056 0.07761 0.0
O761 O 0.42259 0.69741 0.08463 0.0
C762 C 0.42931 0.7071 0.08275 0.0
C763 C 0.41378 0.64951 0.08316 0.0
C764 C 0.45473 0.66878 0.08586 0.0
C765 C 0.43093 0.67581 0.05129 0.0
O766 O 0.42812 0.66586 0.05686 0.0
O767 O 0.43472 0.68517 0.05731 0.0
O768 O 0.42262 0.64495 0.0766 0.0
O769 O 0.41424 0.66115 0.0858 0.0
O770 O 0.33794 0.42803 0.05676 0.0
Cd771 Cd 0.34049 0.42935 0.07554 0.0
Cd772 Cd 0.3144 0.43427 0.07481 0.0
O773 O 0.31774 0.43101 0.05622 0.0
O774 O 0.35722 0.42211 0.07804 0.0
O775 O 0.34021 0.41368 0.08564 0.0
C776 C 0.35203 0.41315 0.08394 0.0
C777 C 0.29457 0.42804 0.08112 0.0
C778 C 0.3279 0.42878 0.05072 0.0
C779 C 0.33214 0.454 0.08493 0.0
O780 O 0.32115 0.45044 0.08266 0.0
O781 O 0.34128 0.4469 0.08289 0.0
O782 O 0.29634 0.43803 0.07493 0.0
O783 O 0.30412 0.4215 0.08404 0.0
O784 O 0.94758 0.57189 0.66578 0.0
Cd785 Cd 0.92902 0.57086 0.66164 0.0
Cd786 Cd 0.92771 0.56448 0.6872 0.0
O787 O 0.94672 0.56592 0.68528 0.0
O788 O 0.92788 0.57865 0.64499 0.0
O789 O 0.91896 0.58659 0.66157 0.0
C790 C 0.92152 0.58743 0.64992 0.0
C791 C 0.92041 0.57109 0.70654 0.0
C792 C 0.95296 0.56929 0.67589 0.0
C793 C 0.91798 0.54618 0.66815 0.0
O794 O 0.91908 0.5493 0.67943 0.0
O795 O 0.92153 0.5534 0.65957 0.0
O796 O 0.92578 0.56058 0.70512 0.0
O797 O 0.9189 0.57795 0.69689 0.0
O798 O 0.45152 0.91576 0.68006 0.0
Cd799 Cd 0.43606 0.92506 0.68637 0.0
Cd800 Cd 0.4326 0.92614 0.66028 0.0
O801 O 0.4499 0.91801 0.65983 0.0
O802 O 0.43925 0.92392 0.70449 0.0
O803 O 0.422 0.91708 0.69602 0.0
C804 C 0.42857 0.9189 0.70582 0.0
C805 C 0.41597 0.91842 0.64893 0.0
C806 C 0.4559 0.91434 0.66924 0.0
C807 C 0.43341 0.95024 0.67404 0.0
O808 O 0.43191 0.94484 0.66372 0.0
O809 O 0.43535 0.94401 0.68383 0.0
O810 O 0.42502 0.92411 0.64363 0.0
O811 O 0.41666 0.91657 0.66073 0.0
O812 O 0.05586 0.42881 0.66113 0.0
Cd813 Cd 0.07464 0.42982 0.65844 0.0
Cd814 Cd 0.07469 0.43156 0.68508 0.0
O815 O 0.05606 0.42852 0.68156 0.0
O816 O 0.07759 0.42252 0.64182 0.0
O817 O 0.08429 0.41397 0.65919 0.0
C818 C 0.08304 0.41343 0.6473 0.0
C819 C 0.08084 0.42545 0.70502 0.0
C820 C 0.05018 0.42799 0.67138 0.0
C821 C 0.08501 0.45287 0.66894 0.0
O822 O 0.08277 0.44798 0.6794 0.0
O823 O 0.08254 0.44713 0.65899 0.0
O824 O 0.07438 0.43523 0.70314 0.0
O825 O 0.08391 0.41887 0.69556 0.0
O826 O 0.55215 0.07954 0.67566 0.0
Cd827 Cd 0.5684 0.07129 0.68164 0.0
Cd828 Cd 0.56957 0.07095 0.65441 0.0
O829 O 0.55249 0.07926 0.65524 0.0
O830 O 0.56257 0.0684 0.69882 0.0
O831 O 0.57889 0.07987 0.69491 0.0
C832 C 0.57138 0.0752 0.70291 0.0
C833 C 0.58661 0.07978 0.64483 0.0
C834 C 0.54707 0.08189 0.66532 0.0
C835 C 0.57216 0.04683 0.66719 0.0
O836 O 0.57023 0.05212 0.65688 0.0
O837 O 0.57243 0.05303 0.67719 0.0
O838 O 0.57768 0.07508 0.63843 0.0
O839 O 0.58557 0.07996 0.65675 0.0
O840 O 0.94606 0.43312 0.33743 0.0
Cd841 Cd 0.92722 0.43452 0.3398 0.0
Cd842 Cd 0.92691 0.43565 0.31363 0.0
O843 O 0.94545 0.43205 0.31704 0.0
O844 O 0.92289 0.42699 0.35601 0.0
O845 O 0.91746 0.41888 0.33794 0.0
C846 C 0.91766 0.41817 0.34988 0.0
C847 C 0.92018 0.42867 0.29418 0.0
C848 C 0.95151 0.43175 0.32712 0.0
C849 C 0.91743 0.4577 0.32907 0.0
O850 O 0.91959 0.45263 0.31867 0.0
O851 O 0.91962 0.45193 0.33906 0.0
O852 O 0.927 0.43832 0.2954 0.0
O853 O 0.91705 0.42275 0.30405 0.0
O854 O 0.54704 0.91847 0.32102 0.0
Cd855 Cd 0.56358 0.92601 0.31485 0.0
Cd856 Cd 0.56752 0.92534 0.34069 0.0
O857 O 0.55008 0.91773 0.3412 0.0
O858 O 0.56026 0.92598 0.29671 0.0
O859 O 0.57628 0.91633 0.30489 0.0
C860 C 0.57001 0.91935 0.2952 0.0
C861 C 0.5845 0.9163 0.35029 0.0
C862 C 0.54319 0.91596 0.33185 0.0
C863 C 0.56863 0.95015 0.32862 0.0
O864 O 0.56855 0.94421 0.33876 0.0
O865 O 0.56718 0.94454 0.31838 0.0
O866 O 0.57572 0.92127 0.35666 0.0
O867 O 0.58335 0.91592 0.33839 0.0
O868 O 0.05379 0.57118 0.3421 0.0
Cd869 Cd 0.07257 0.56912 0.34389 0.0
Cd870 Cd 0.07156 0.5683 0.31643 0.0
O871 O 0.05395 0.57365 0.32183 0.0
O872 O 0.07681 0.57603 0.36038 0.0
O873 O 0.08283 0.58451 0.34272 0.0
C874 C 0.08225 0.58499 0.35466 0.0
C875 C 0.0742 0.57192 0.29505 0.0
C876 C 0.04821 0.57371 0.33209 0.0
C877 C 0.08146 0.54609 0.33203 0.0
O878 O 0.0789 0.55139 0.32184 0.0
O879 O 0.07976 0.55159 0.34227 0.0
O880 O 0.06715 0.56337 0.29928 0.0
O881 O 0.08013 0.57856 0.303 0.0
O882 O 0.45086 0.08257 0.32008 0.0
Cd883 Cd 0.43477 0.07485 0.313 0.0
Cd884 Cd 0.4299 0.07454 0.33911 0.0
O885 O 0.44729 0.08214 0.34019 0.0
O886 O 0.4387 0.07557 0.295 0.0
O887 O 0.4221 0.08442 0.30292 0.0
C888 C 0.42875 0.08185 0.29335 0.0
C889 C 0.4136 0.08256 0.35077 0.0
C890 C 0.45437 0.08456 0.33114 0.0
C891 C 0.42952 0.0502 0.32563 0.0
O892 O 0.42886 0.05583 0.33592 0.0
O893 O 0.43153 0.05612 0.31567 0.0
O894 O 0.42254 0.07654 0.35585 0.0
O895 O 0.41416 0.08451 0.33899 0.0
O896 O 0.6607 0.94423 0.56814 0.0
Cd897 Cd 0.65872 0.92537 0.56687 0.0
Cd898 Cd 0.68492 0.92544 0.56606 0.0
O899 O 0.68107 0.94391 0.56949 0.0
O900 O 0.64264 0.92084 0.57457 0.0
O901 O 0.66087 0.916 0.58269 0.0
C902 C 0.64893 0.91607 0.58353 0.0
C903 C 0.70451 0.91943 0.5733 0.0
C904 C 0.67091 0.94983 0.56966 0.0
C905 C 0.66989 0.91556 0.54389 0.0
O906 O 0.68019 0.91788 0.54908 0.0
O907 O 0.65979 0.91764 0.54951 0.0
O908 O 0.70316 0.92602 0.56352 0.0
O909 O 0.69469 0.91605 0.57916 0.0
O910 O 0.65991 0.05229 0.42882 0.0
Cd911 Cd 0.65717 0.07103 0.43037 0.0
Cd912 Cd 0.68472 0.07095 0.43196 0.0
O913 O 0.68028 0.0529 0.42717 0.0
O914 O 0.6404 0.07413 0.42354 0.0
O915 O 0.65754 0.08121 0.41485 0.0
C916 C 0.64565 0.07995 0.41454 0.0
C917 C 0.70605 0.07478 0.42914 0.0
C918 C 0.67017 0.04689 0.42696 0.0
C919 C 0.66808 0.08084 0.45345 0.0
O920 O 0.67848 0.07854 0.44845 0.0
O921 O 0.65805 0.07861 0.44777 0.0
O922 O 0.70188 0.06775 0.43773 0.0
O923 O 0.69808 0.07984 0.42185 0.0
O924 O 0.94744 0.66204 0.43177 0.0
Cd925 Cd 0.92868 0.65896 0.43282 0.0
Cd926 Cd 0.92796 0.68516 0.43868 0.0
O927 O 0.94669 0.68199 0.43609 0.0
O928 O 0.92538 0.64305 0.42413 0.0
O929 O 0.91895 0.66122 0.41714 0.0
C930 C 0.91988 0.64939 0.41565 0.0
C931 C 0.92267 0.70606 0.43549 0.0
C932 C 0.95285 0.67233 0.43343 0.0
C933 C 0.91781 0.66626 0.45726 0.0
O934 O 0.91934 0.67741 0.45389 0.0
O935 O 0.92104 0.65738 0.45026 0.0
O936 O 0.92873 0.7024 0.44501 0.0
O937 O 0.91938 0.6978 0.42753 0.0
O938 O 0.33842 0.94684 0.43219 0.0
Cd939 Cd 0.34106 0.92802 0.43226 0.0
Cd940 Cd 0.31457 0.9274 0.43357 0.0
O941 O 0.31803 0.9461 0.43096 0.0
O942 O 0.35735 0.92456 0.4244 0.0
O943 O 0.33937 0.91944 0.41592 0.0
C944 C 0.3513 0.91998 0.41518 0.0
C945 C 0.29472 0.92132 0.42704 0.0
C946 C 0.32806 0.95226 0.43109 0.0
C947 C 0.33047 0.9167 0.45482 0.0
O948 O 0.32002 0.91906 0.44995 0.0
O949 O 0.34042 0.91931 0.44918 0.0
O950 O 0.29645 0.92757 0.43698 0.0
O951 O 0.3043 0.91841 0.42055 0.0
O952 O 0.04903 0.33843 0.42859 0.0
Cd953 Cd 0.06809 0.3385 0.42948 0.0
Cd954 Cd 0.06543 0.3135 0.42774 0.0
O955 O 0.0484 0.3194 0.42136 0.0
O956 O 0.07418 0.3544 0.42252 0.0
O957 O 0.07673 0.33622 0.4133 0.0
C958 C 0.07792 0.34813 0.41306 0.0
C959 C 0.07224 0.29443 0.41989 0.0
C960 C 0.04301 0.32955 0.42381 0.0
C961 C 0.07438 0.32485 0.45201 0.0
O962 O 0.06952 0.31576 0.44632 0.0
O963 O 0.07605 0.33507 0.44646 0.0
O964 O 0.0626 0.29532 0.42677 0.0
O965 O 0.07813 0.30445 0.41718 0.0
O966 O 0.33866 0.05258 0.56969 0.0
Cd967 Cd 0.3422 0.07126 0.56924 0.0
Cd968 Cd 0.31569 0.07279 0.5679 0.0
O969 O 0.31828 0.05393 0.5703 0.0
O970 O 0.35889 0.07349 0.57666 0.0
O971 O 0.34173 0.08063 0.58527 0.0
C972 C 0.35357 0.07901 0.58581 0.0
C973 C 0.29615 0.07957 0.57463 0.0
C974 C 0.32812 0.04747 0.57047 0.0
C975 C 0.33202 0.08285 0.54663 0.0
O976 O 0.32151 0.08106 0.5516 0.0
O977 O 0.34188 0.07968 0.55218 0.0
O978 O 0.29757 0.07345 0.56456 0.0
O979 O 0.30587 0.082 0.58111 0.0
O980 O 0.94692 0.34065 0.56917 0.0
Cd981 Cd 0.92826 0.34428 0.56821 0.0
Cd982 Cd 0.92668 0.31743 0.56509 0.0
O983 O 0.9455 0.32045 0.5666 0.0
O984 O 0.92614 0.36099 0.57562 0.0
O985 O 0.91845 0.34397 0.584 0.0
C986 C 0.92028 0.35577 0.58461 0.0
C987 C 0.92191 0.29674 0.57014 0.0
C988 C 0.95199 0.33011 0.56822 0.0
C989 C 0.91626 0.33485 0.54512 0.0
O990 O 0.91751 0.32409 0.54971 0.0
O991 O 0.92017 0.34433 0.55088 0.0
O992 O 0.92735 0.29975 0.56003 0.0
O993 O 0.91874 0.30558 0.5775 0.0
O994 O 0.05613 0.66113 0.56849 0.0
Cd995 Cd 0.07485 0.65805 0.5677 0.0
Cd996 Cd 0.07576 0.68471 0.56671 0.0
O997 O 0.05703 0.68152 0.56933 0.0
O998 O 0.07747 0.6413 0.5748 0.0
O999 O 0.08434 0.65847 0.58364 0.0
C1000 C 0.08291 0.64659 0.58402 0.0
C1001 C 0.08178 0.70448 0.57348 0.0
C1002 C 0.0508 0.67154 0.56951 0.0
C1003 C 0.08601 0.66887 0.54516 0.0
O1004 O 0.08408 0.67927 0.55031 0.0
O1005 O 0.08305 0.65887 0.55056 0.0
O1006 O 0.0757 0.70284 0.56342 0.0
O1007 O 0.08466 0.69484 0.57989 0.0
O1008 O 0.4111 0.32088 0.04953 0.0
Cd1009 Cd 0.40972 0.31919 0.0685 0.0
Cd1010 Cd 0.43528 0.31941 0.06741 0.0
O1011 O 0.43093 0.32555 0.04985 0.0
O1012 O 0.39328 0.32594 0.07318 0.0
O1013 O 0.41101 0.33459 0.07876 0.0
C1014 C 0.39905 0.33486 0.07863 0.0
C1015 C 0.45433 0.32677 0.07468 0.0
C1016 C 0.42083 0.32443 0.04397 0.0
C1017 C 0.42189 0.29583 0.07552 0.0
O1018 O 0.43176 0.30112 0.07189 0.0
O1019 O 0.41176 0.30177 0.07588 0.0
O1020 O 0.45358 0.31928 0.0655 0.0
O1021 O 0.44421 0.33019 0.08 0.0
O1022 O 0.70027 0.42647 0.0804 0.0
Cd1023 Cd 0.68383 0.43332 0.07331 0.0
Cd1024 Cd 0.67971 0.40676 0.07392 0.0
O1025 O 0.69731 0.40626 0.08107 0.0
O1026 O 0.68868 0.45101 0.07186 0.0
O1027 O 0.67316 0.445 0.08358 0.0
C1028 C 0.67996 0.45387 0.0794 0.0
C1029 C 0.66366 0.39582 0.08323 0.0
C1030 C 0.70416 0.41563 0.08285 0.0
C1031 C 0.67745 0.41954 0.0494 0.0
O1032 O 0.67789 0.40932 0.05517 0.0
O1033 O 0.67906 0.42972 0.05508 0.0
O1034 O 0.67225 0.39027 0.0771 0.0
O1035 O 0.66445 0.40768 0.08451 0.0
O1036 O 0.5893 0.67532 0.05388 0.0
Cd1037 Cd 0.58946 0.67709 0.07286 0.0
Cd1038 Cd 0.56404 0.67714 0.06975 0.0
O1039 O 0.56951 0.67068 0.05261 0.0
O1040 O 0.60588 0.67076 0.07816 0.0
O1041 O 0.58822 0.66156 0.08298 0.0
C1042 C 0.60018 0.66156 0.0832 0.0
C1043 C 0.54455 0.67016 0.07632 0.0
C1044 C 0.58006 0.67177 0.04756 0.0
C1045 C 0.57711 0.70074 0.07834 0.0
O1046 O 0.56753 0.69551 0.07393 0.0
O1047 O 0.58703 0.69464 0.07987 0.0
O1048 O 0.54583 0.67731 0.06693 0.0
O1049 O 0.55439 0.66681 0.08219 0.0
O1050 O 0.30353 0.56626 0.07057 0.0
Cd1051 Cd 0.32197 0.56271 0.06682 0.0
Cd1052 Cd 0.32181 0.58825 0.06849 0.0
O1053 O 0.30422 0.58607 0.07542 0.0
O1054 O 0.32191 0.54441 0.06482 0.0
O1055 O 0.33223 0.5537 0.07979 0.0
C1056 C 0.329 0.5436 0.07432 0.0
C1057 C 0.33711 0.59949 0.07864 0.0
C1058 C 0.29819 0.57604 0.07437 0.0
C1059 C 0.32735 0.5775 0.04382 0.0
O1060 O 0.32366 0.58706 0.04955 0.0
O1061 O 0.32857 0.56728 0.04949 0.0
O1062 O 0.32803 0.60493 0.07312 0.0
O1063 O 0.33717 0.58752 0.0789 0.0
O1064 O 0.41511 0.68114 0.95279 0.0
Cd1065 Cd 0.41203 0.68309 0.93405 0.0
Cd1066 Cd 0.43867 0.68699 0.93391 0.0
O1067 O 0.43545 0.68294 0.95225 0.0
O1068 O 0.39556 0.67546 0.93096 0.0
O1069 O 0.41298 0.66797 0.92325 0.0
C1070 C 0.40114 0.66703 0.92462 0.0
C1071 C 0.45937 0.68338 0.92806 0.0
C1072 C 0.42551 0.6812 0.95827 0.0
C1073 C 0.42102 0.70757 0.92505 0.0
O1074 O 0.43182 0.70341 0.92709 0.0
O1075 O 0.41156 0.70086 0.92701 0.0
O1076 O 0.45626 0.69214 0.93544 0.0
O1077 O 0.45065 0.67643 0.9238 0.0
O1078 O 0.30241 0.43586 0.93099 0.0
Cd1079 Cd 0.32088 0.43892 0.93508 0.0
Cd1080 Cd 0.32053 0.41377 0.93288 0.0
O1081 O 0.30322 0.41627 0.92539 0.0
O1082 O 0.32142 0.45721 0.93718 0.0
O1083 O 0.33161 0.44763 0.92231 0.0
C1084 C 0.32865 0.45782 0.92778 0.0
C1085 C 0.33659 0.40391 0.92261 0.0
C1086 C 0.29716 0.42625 0.92669 0.0
C1087 C 0.32552 0.42354 0.95789 0.0
O1088 O 0.32171 0.41417 0.95191 0.0
O1089 O 0.3271 0.43382 0.95241 0.0
O1090 O 0.32737 0.39772 0.92702 0.0
O1091 O 0.33641 0.41584 0.92356 0.0
O1092 O 0.58676 0.321 0.9511 0.0
Cd1093 Cd 0.58782 0.3208 0.93203 0.0
Cd1094 Cd 0.56238 0.32077 0.93339 0.0
O1095 O 0.56699 0.32596 0.9512 0.0
O1096 O 0.6041 0.32784 0.92715 0.0
O1097 O 0.58618 0.33715 0.92346 0.0
C1098 C 0.59814 0.33729 0.92294 0.0
C1099 C 0.54339 0.3286 0.92645 0.0
C1100 C 0.57712 0.32432 0.95693 0.0
C1101 C 0.57565 0.29782 0.92374 0.0
O1102 O 0.56582 0.30271 0.92799 0.0
O1103 O 0.58566 0.30397 0.92341 0.0
O1104 O 0.54407 0.32072 0.9353 0.0
O1105 O 0.55354 0.33218 0.92131 0.0
O1106 O 0.70353 0.57063 0.92904 0.0
Cd1107 Cd 0.68651 0.56425 0.93504 0.0
Cd1108 Cd 0.68363 0.59097 0.93426 0.0
O1109 O 0.70121 0.59081 0.92696 0.0
O1110 O 0.69127 0.54666 0.93755 0.0
O1111 O 0.67666 0.55209 0.92449 0.0
C1112 C 0.68313 0.54343 0.92953 0.0
C1113 C 0.6677 0.60189 0.92467 0.0
C1114 C 0.70787 0.58117 0.92612 0.0
C1115 C 0.68019 0.57834 0.95868 0.0
O1116 O 0.68185 0.58856 0.95311 0.0
O1117 O 0.68082 0.56816 0.95286 0.0
O1118 O 0.67632 0.60748 0.93074 0.0
O1119 O 0.66837 0.58999 0.92366 0.0
O1120 O 0.04918 0.41133 0.32032 0.0
Cd1121 Cd 0.06795 0.40829 0.31941 0.0
Cd1122 Cd 0.06882 0.43486 0.31606 0.0
O1123 O 0.05035 0.43174 0.3202 0.0
O1124 O 0.07127 0.39191 0.32713 0.0
O1125 O 0.07753 0.40966 0.33527 0.0
C1126 C 0.07673 0.39775 0.33599 0.0
C1127 C 0.07517 0.45524 0.32044 0.0
C1128 C 0.04402 0.42186 0.32107 0.0
C1129 C 0.07838 0.41741 0.29561 0.0
O1130 O 0.07621 0.42824 0.29966 0.0
O1131 O 0.07597 0.40798 0.30217 0.0
O1132 O 0.06784 0.45265 0.31146 0.0
O1133 O 0.07901 0.44619 0.3272 0.0
O1134 O 0.5863 0.0484 0.32201 0.0
Cd1135 Cd 0.58781 0.06737 0.32053 0.0
Cd1136 Cd 0.56244 0.06645 0.32033 0.0
O1137 O 0.56641 0.04878 0.32638 0.0
O1138 O 0.60426 0.07179 0.32741 0.0
O1139 O 0.58655 0.07752 0.33601 0.0
C1140 C 0.59851 0.07723 0.33635 0.0
C1141 C 0.54363 0.07426 0.32771 0.0
C1142 C 0.57649 0.04285 0.32533 0.0
C1143 C 0.57616 0.07446 0.29697 0.0
O1144 O 0.56618 0.07084 0.30206 0.0
O1145 O 0.58616 0.07483 0.30312 0.0
O1146 O 0.5441 0.06507 0.3202 0.0
O1147 O 0.5539 0.07927 0.33114 0.0
O1148 O 0.95077 0.59326 0.32168 0.0
Cd1149 Cd 0.93188 0.59502 0.3195 0.0
Cd1150 Cd 0.9329 0.56898 0.31835 0.0
O1151 O 0.95023 0.57316 0.32521 0.0
O1152 O 0.92666 0.61078 0.32744 0.0
O1153 O 0.92183 0.59224 0.33481 0.0
C1154 C 0.92161 0.60415 0.33598 0.0
C1155 C 0.92645 0.54855 0.3223 0.0
C1156 C 0.95615 0.58332 0.3249 0.0
C1157 C 0.92537 0.58429 0.29542 0.0
O1158 O 0.92862 0.57418 0.30046 0.0
O1159 O 0.92498 0.59419 0.30173 0.0
O1160 O 0.93536 0.5511 0.31488 0.0
O1161 O 0.92118 0.55767 0.32791 0.0
O1162 O 0.41086 0.95206 0.32013 0.0
Cd1163 Cd 0.40883 0.93314 0.31974 0.0
Cd1164 Cd 0.43458 0.93285 0.31768 0.0
O1165 O 0.43118 0.95126 0.32182 0.0
O1166 O 0.39279 0.92888 0.32771 0.0
O1167 O 0.41105 0.92412 0.3358 0.0
C1168 C 0.39911 0.92413 0.33666 0.0
C1169 C 0.45358 0.92561 0.32517 0.0
C1170 C 0.42118 0.95745 0.32168 0.0
C1171 C 0.41902 0.92321 0.29618 0.0
O1172 O 0.42962 0.92606 0.30043 0.0
O1173 O 0.40936 0.92479 0.30267 0.0
O1174 O 0.45293 0.93368 0.31648 0.0
O1175 O 0.44339 0.92138 0.32972 0.0
O1176 O 0.05145 0.58548 0.67914 0.0
Cd1177 Cd 0.07014 0.58915 0.67988 0.0
Cd1178 Cd 0.07128 0.56323 0.68562 0.0
O1179 O 0.05239 0.56556 0.68355 0.0
O1180 O 0.07209 0.60547 0.67161 0.0
O1181 O 0.0802 0.58818 0.66424 0.0
C1182 C 0.07832 0.59994 0.66308 0.0
C1183 C 0.07827 0.54319 0.68084 0.0
C1184 C 0.04611 0.57517 0.68097 0.0
C1185 C 0.08156 0.58213 0.70406 0.0
O1186 O 0.07987 0.57095 0.70083 0.0
O1187 O 0.07819 0.59096 0.69708 0.0
O1188 O 0.07188 0.54553 0.69058 0.0
O1189 O 0.08079 0.55231 0.67357 0.0
O1190 O 0.41627 0.0482 0.6789 0.0
Cd1191 Cd 0.41204 0.06665 0.68083 0.0
Cd1192 Cd 0.43792 0.06841 0.686 0.0
O1193 O 0.43618 0.04956 0.68322 0.0
O1194 O 0.39552 0.06855 0.67295 0.0
O1195 O 0.41243 0.07754 0.66573 0.0
C1196 C 0.40073 0.07531 0.66462 0.0
C1197 C 0.45754 0.07618 0.6807 0.0
C1198 C 0.42675 0.04312 0.6804 0.0
C1199 C 0.41929 0.07682 0.70553 0.0
O1200 O 0.43042 0.07597 0.70186 0.0
O1201 O 0.41041 0.07343 0.69861 0.0
O1202 O 0.45576 0.06947 0.69034 0.0
O1203 O 0.44807 0.07867 0.67388 0.0
O1204 O 0.95144 0.41356 0.67888 0.0
Cd1205 Cd 0.93242 0.41251 0.68003 0.0
Cd1206 Cd 0.93393 0.43793 0.67983 0.0
O1207 O 0.95157 0.43336 0.67412 0.0
O1208 O 0.92772 0.39617 0.67301 0.0
O1209 O 0.92275 0.41404 0.66427 0.0
C1210 C 0.92276 0.40208 0.66388 0.0
C1211 C 0.9269 0.45694 0.67209 0.0
C1212 C 0.95725 0.42317 0.67545 0.0
C1213 C 0.92527 0.42472 0.70331 0.0
O1214 O 0.92917 0.43452 0.69809 0.0
O1215 O 0.92472 0.41462 0.69732 0.0
O1216 O 0.93591 0.45623 0.67979 0.0
O1217 O 0.9216 0.4468 0.6687 0.0
O1218 O 0.5897 0.94888 0.67671 0.0
Cd1219 Cd 0.59225 0.9301 0.67833 0.0
Cd1220 Cd 0.56611 0.92987 0.68163 0.0
O1221 O 0.56927 0.94821 0.67688 0.0
O1222 O 0.60819 0.92583 0.6702 0.0
O1223 O 0.5899 0.91995 0.66298 0.0
C1224 C 0.6018 0.92027 0.6618 0.0
C1225 C 0.54605 0.92277 0.67708 0.0
C1226 C 0.5793 0.95428 0.67579 0.0
C1227 C 0.58327 0.92094 0.70256 0.0
O1228 O 0.57249 0.92317 0.69842 0.0
O1229 O 0.59274 0.92283 0.69589 0.0
O1230 O 0.54822 0.93056 0.68579 0.0
O1231 O 0.55533 0.91901 0.6706 0.0
O1232 O 0.29965 0.07673 0.42958 0.0
Cd1233 Cd 0.31618 0.06975 0.43635 0.0
Cd1234 Cd 0.3197 0.06884 0.40994 0.0
O1235 O 0.30212 0.076 0.40931 0.0
O1236 O 0.31178 0.06946 0.45421 0.0
O1237 O 0.32744 0.08038 0.44713 0.0
C1238 C 0.32078 0.07689 0.4564 0.0
C1239 C 0.33569 0.07794 0.39873 0.0
C1240 C 0.29551 0.07847 0.4187 0.0
C1241 C 0.3218 0.04499 0.42385 0.0
O1242 O 0.32137 0.05021 0.41333 0.0
O1243 O 0.32043 0.05124 0.43372 0.0
O1244 O 0.32718 0.07152 0.39337 0.0
O1245 O 0.3349 0.07953 0.41056 0.0
O1246 O 0.29978 0.92232 0.57266 0.0
Cd1247 Cd 0.31595 0.92977 0.56553 0.0
Cd1248 Cd 0.31979 0.93095 0.59201 0.0
O1249 O 0.30251 0.92307 0.59289 0.0
O1250 O 0.3111 0.93007 0.54779 0.0
O1251 O 0.32715 0.91943 0.55441 0.0
C1252 C 0.32019 0.92283 0.54533 0.0
C1253 C 0.33645 0.92253 0.60281 0.0
C1254 C 0.29587 0.92039 0.58358 0.0
C1255 C 0.32096 0.95476 0.57793 0.0
O1256 O 0.32067 0.94963 0.58848 0.0
O1257 O 0.31981 0.94839 0.56811 0.0
O1258 O 0.32782 0.92858 0.6084 0.0
O1259 O 0.33541 0.9209 0.591 0.0
O1260 O 0.04968 0.32108 0.58569 0.0
Cd1261 Cd 0.06801 0.31842 0.59006 0.0
Cd1262 Cd 0.06932 0.31207 0.56402 0.0
O1263 O 0.05059 0.31538 0.56609 0.0
O1264 O 0.07013 0.32653 0.60644 0.0
O1265 O 0.07954 0.33305 0.58949 0.0
C1266 C 0.07729 0.33446 0.60115 0.0
C1267 C 0.07635 0.31572 0.5438 0.0
C1268 C 0.04441 0.31914 0.57537 0.0
C1269 C 0.07765 0.29329 0.58355 0.0
O1270 O 0.07701 0.29667 0.57231 0.0
O1271 O 0.07414 0.30045 0.59219 0.0
O1272 O 0.06992 0.30613 0.5466 0.0
O1273 O 0.07898 0.32343 0.55251 0.0
O1274 O 0.70106 0.07069 0.56876 0.0
Cd1275 Cd 0.68321 0.06584 0.56391 0.0
Cd1276 Cd 0.68234 0.06658 0.58982 0.0
O1277 O 0.69999 0.07373 0.58888 0.0
O1278 O 0.68625 0.0639 0.5459 0.0
O1279 O 0.67282 0.07737 0.55315 0.0
C1280 C 0.67835 0.07251 0.54377 0.0
C1281 C 0.66587 0.07679 0.59903 0.0
C1282 C 0.70616 0.0738 0.57888 0.0
C1283 C 0.6775 0.04224 0.57806 0.0
O1284 O 0.68046 0.04767 0.58806 0.0
O1285 O 0.67711 0.04819 0.56793 0.0
O1286 O 0.67447 0.07177 0.60562 0.0
O1287 O 0.66695 0.07651 0.58711 0.0
O1288 O 0.95304 0.67981 0.58831 0.0
Cd1289 Cd 0.93428 0.68156 0.59083 0.0
Cd1290 Cd 0.93361 0.68293 0.56488 0.0
O1291 O 0.95194 0.67831 0.56801 0.0
O1292 O 0.93074 0.67459 0.60748 0.0
O1293 O 0.92386 0.6662 0.59011 0.0
C1294 C 0.92486 0.66575 0.60202 0.0
C1295 C 0.92614 0.67497 0.54615 0.0
C1296 C 0.95823 0.67807 0.57793 0.0
C1297 C 0.92549 0.70538 0.58006 0.0
O1298 O 0.92757 0.70057 0.56951 0.0
O1299 O 0.92717 0.69918 0.58991 0.0
O1300 O 0.9343 0.6836 0.54651 0.0
O1301 O 0.92182 0.67089 0.55649 0.0
O1302 O 0.70004 0.92325 0.42613 0.0
Cd1303 Cd 0.68334 0.93012 0.43257 0.0
Cd1304 Cd 0.68 0.93012 0.4062 0.0
O1305 O 0.69751 0.92271 0.40587 0.0
O1306 O 0.68782 0.93151 0.45036 0.0
O1307 O 0.67262 0.91958 0.44397 0.0
C1308 C 0.67921 0.92377 0.453 0.0
C1309 C 0.66336 0.92041 0.39668 0.0
C1310 C 0.70416 0.92089 0.41537 0.0
C1311 C 0.67754 0.95438 0.41897 0.0
O1312 O 0.67854 0.94893 0.40861 0.0
O1313 O 0.67852 0.94836 0.42904 0.0
O1314 O 0.67185 0.92581 0.39027 0.0
O1315 O 0.66454 0.92015 0.40859 0.0
O1316 O 0.05057 0.67901 0.41415 0.0
Cd1317 Cd 0.06906 0.68098 0.40995 0.0
Cd1318 Cd 0.07082 0.68665 0.43566 0.0
O1319 O 0.05199 0.68352 0.43401 0.0
O1320 O 0.07126 0.67255 0.39376 0.0
O1321 O 0.08011 0.66604 0.41104 0.0
C1322 C 0.0781 0.66453 0.39935 0.0
C1323 C 0.07876 0.68195 0.45534 0.0
C1324 C 0.04553 0.68051 0.42466 0.0
C1325 C 0.07937 0.70574 0.41657 0.0
O1326 O 0.07834 0.70234 0.42778 0.0
O1327 O 0.07599 0.69864 0.40784 0.0
O1328 O 0.07187 0.69143 0.45338 0.0
O1329 O 0.08128 0.67492 0.44603 0.0
O1330 O 0.94426 0.32508 0.40973 0.0
Cd1331 Cd 0.92537 0.32388 0.40799 0.0
Cd1332 Cd 0.92638 0.32046 0.43419 0.0
O1333 O 0.94463 0.3248 0.43015 0.0
O1334 O 0.92099 0.33176 0.39196 0.0
O1335 O 0.91586 0.33966 0.41018 0.0
C1336 C 0.916 0.34058 0.39826 0.0
C1337 C 0.92041 0.32532 0.45455 0.0
C1338 C 0.9502 0.32584 0.41983 0.0
C1339 C 0.91617 0.29978 0.41746 0.0
O1340 O 0.91907 0.30381 0.42812 0.0
O1341 O 0.91764 0.3065 0.40794 0.0
O1342 O 0.92783 0.31638 0.45207 0.0
O1343 O 0.91634 0.33182 0.44541 0.0
H1344 H 0.0889 0.12968 0.4113 0.0
H1345 H 0.11088 0.16076 0.42329 0.0
H1346 H 0.10764 0.11759 0.40809 0.0
H1347 H 0.12952 0.14855 0.42103 0.0
H1348 H 0.16294 0.12624 0.41515 0.0
H1349 H 0.14459 0.13842 0.41045 0.0
H1350 H 0.12161 0.10698 0.41985 0.0
H1351 H 0.14005 0.09468 0.42353 0.0
C1352 C 0.09778 0.13396 0.41312 0.0
C1353 C 0.09844 0.14613 0.41759 0.0
C1354 C 0.10855 0.12698 0.41143 0.0
C1355 C 0.12021 0.13191 0.41453 0.0
C1356 C 0.12083 0.14437 0.41835 0.0
C1357 C 0.11009 0.15142 0.41972 0.0
C1358 C 0.15394 0.12191 0.41592 0.0
C1359 C 0.15288 0.10956 0.41977 0.0
C1360 C 0.14338 0.12892 0.41336 0.0
C1361 C 0.13148 0.12386 0.415 0.0
C1362 C 0.13052 0.11126 0.41828 0.0
C1363 C 0.14111 0.10417 0.42049 0.0
H1364 H 0.84853 0.10766 0.40902 0.0
H1365 H 0.88287 0.0909 0.42069 0.0
H1366 H 0.85899 0.12756 0.40694 0.0
H1367 H 0.89321 0.11076 0.41896 0.0
H1368 H 0.91082 0.14744 0.41187 0.0
H1369 H 0.90061 0.1279 0.40681 0.0
H1370 H 0.86646 0.14189 0.42216 0.0
H1371 H 0.87652 0.16137 0.42691 0.0
C1372 C 0.85835 0.10816 0.41093 0.0
C1373 C 0.86482 0.09773 0.41518 0.0
C1374 C 0.86433 0.11959 0.40982 0.0
C1375 C 0.87691 0.12083 0.41297 0.0
C1376 C 0.88355 0.11018 0.41637 0.0
C1377 C 0.87759 0.09876 0.41744 0.0
C1378 C 0.90108 0.1464 0.41395 0.0
C1379 C 0.89452 0.15591 0.41991 0.0
C1380 C 0.89524 0.13518 0.4111 0.0
C1381 C 0.88272 0.13327 0.41414 0.0
C1382 C 0.87605 0.14305 0.41953 0.0
C1383 C 0.88187 0.15422 0.42236 0.0
H1384 H 0.83829 0.87911 0.41494 0.0
H1385 H 0.85976 0.9116 0.42356 0.0
H1386 H 0.85714 0.86785 0.40998 0.0
H1387 H 0.87872 0.9002 0.41962 0.0
H1388 H 0.91236 0.8792 0.41004 0.0
H1389 H 0.89302 0.8905 0.40754 0.0
H1390 H 0.87284 0.85824 0.42006 0.0
H1391 H 0.89206 0.84684 0.42157 0.0
C1392 C 0.84709 0.88384 0.41572 0.0
C1393 C 0.8476 0.89619 0.41969 0.0
C1394 C 0.85794 0.87736 0.41301 0.0
C1395 C 0.86961 0.88294 0.41461 0.0
C1396 C 0.87001 0.89553 0.41807 0.0
C1397 C 0.85912 0.9021 0.42042 0.0
C1398 C 0.90372 0.87448 0.41193 0.0
C1399 C 0.9037 0.86216 0.41603 0.0
C1400 C 0.89261 0.881 0.41065 0.0
C1401 C 0.88124 0.87546 0.41382 0.0
C1402 C 0.88127 0.86289 0.41733 0.0
C1403 C 0.89235 0.8563 0.41827 0.0
H1404 H 0.09129 0.86092 0.42325 0.0
H1405 H 0.12332 0.83919 0.41369 0.0
H1406 H 0.10312 0.87979 0.42033 0.0
H1407 H 0.135 0.858 0.40965 0.0
H1408 H 0.15701 0.89207 0.42158 0.0
H1409 H 0.14509 0.87315 0.41991 0.0
H1410 H 0.11295 0.89445 0.40904 0.0
H1411 H 0.12478 0.91343 0.4118 0.0
C1412 C 0.10079 0.86023 0.42013 0.0
C1413 C 0.10644 0.84864 0.41881 0.0
C1414 C 0.10762 0.87108 0.41835 0.0
C1415 C 0.12019 0.87059 0.41486 0.0
C1416 C 0.12552 0.85888 0.41273 0.0
C1417 C 0.11879 0.84805 0.41489 0.0
C1418 C 0.14744 0.89266 0.41865 0.0
C1419 C 0.14179 0.90419 0.41691 0.0
C1420 C 0.14055 0.88176 0.4176 0.0
C1421 C 0.12789 0.88211 0.41445 0.0
C1422 C 0.12252 0.89371 0.41187 0.0
C1423 C 0.12933 0.90462 0.41329 0.0
H1424 H 0.16014 0.87055 0.57447 0.0
H1425 H 0.14338 0.90423 0.58796 0.0
H1426 H 0.14092 0.85949 0.57804 0.0
H1427 H 0.12412 0.89304 0.59181 0.0
H1428 H 0.08911 0.87346 0.57588 0.0
H1429 H 0.10844 0.88462 0.57829 0.0
H1430 H 0.12581 0.85156 0.59251 0.0
H1431 H 0.10642 0.84025 0.58981 0.0
C1432 C 0.15242 0.87555 0.57844 0.0
C1433 C 0.15325 0.88831 0.58079 0.0
C1434 C 0.14139 0.86917 0.58058 0.0
C1435 C 0.13092 0.87538 0.58514 0.0
C1436 C 0.13196 0.88802 0.58813 0.0
C1437 C 0.14302 0.89442 0.58598 0.0
C1438 C 0.09698 0.86859 0.57971 0.0
C1439 C 0.09626 0.85591 0.58251 0.0
C1440 C 0.10807 0.87504 0.58119 0.0
C1441 C 0.11873 0.86898 0.58551 0.0
C1442 C 0.11782 0.85646 0.58898 0.0
C1443 C 0.10669 0.84999 0.5875 0.0
H1444 H 0.09417 0.14064 0.5949 0.0
H1445 H 0.12828 0.15804 0.58344 0.0
H1446 H 0.10531 0.12135 0.59862 0.0
H1447 H 0.13928 0.13878 0.58673 0.0
H1448 H 0.15836 0.10376 0.59572 0.0
H1449 H 0.14704 0.12287 0.59984 0.0
H1450 H 0.11383 0.10628 0.58498 0.0
H1451 H 0.12499 0.08718 0.58128 0.0
C1452 C 0.10407 0.14042 0.59337 0.0
C1453 C 0.1103 0.15083 0.58872 0.0
C1454 C 0.11045 0.12933 0.59542 0.0
C1455 C 0.12318 0.12842 0.59281 0.0
C1456 C 0.12952 0.13911 0.58897 0.0
C1457 C 0.12317 0.15017 0.58698 0.0
C1458 C 0.14858 0.10413 0.59359 0.0
C1459 C 0.14262 0.094 0.58803 0.0
C1460 C 0.1421 0.1151 0.59588 0.0
C1461 C 0.12954 0.1162 0.59261 0.0
C1462 C 0.12344 0.10578 0.58776 0.0
C1463 C 0.12989 0.09482 0.58553 0.0
H1464 H 0.91244 0.12386 0.57735 0.0
H1465 H 0.89533 0.15626 0.59331 0.0
H1466 H 0.8934 0.11234 0.58016 0.0
H1467 H 0.87624 0.14455 0.59647 0.0
H1468 H 0.84143 0.12579 0.57905 0.0
H1469 H 0.8605 0.13704 0.58275 0.0
H1470 H 0.87848 0.10303 0.59361 0.0
H1471 H 0.85939 0.09167 0.58953 0.0
C1472 C 0.90468 0.12846 0.58171 0.0
C1473 C 0.90536 0.14103 0.58496 0.0
C1474 C 0.89375 0.1218 0.58343 0.0
C1475 C 0.88322 0.12752 0.58847 0.0
C1476 C 0.88412 0.13991 0.59238 0.0
C1477 C 0.89508 0.1466 0.59064 0.0
C1478 C 0.84937 0.12072 0.58245 0.0
C1479 C 0.84893 0.1078 0.58382 0.0
C1480 C 0.86032 0.12721 0.58466 0.0
C1481 C 0.87111 0.12094 0.58835 0.0
C1482 C 0.87042 0.10812 0.59055 0.0
C1483 C 0.85945 0.10161 0.58829 0.0
H1484 H 0.87174 0.84004 0.57942 0.0
H1485 H 0.90534 0.8576 0.59206 0.0
H1486 H 0.86028 0.8589 0.58351 0.0
H1487 H 0.89375 0.87648 0.5965 0.0
H1488 H 0.87361 0.91079 0.57989 0.0
H1489 H 0.88504 0.89174 0.5829 0.0
H1490 H 0.8522 0.87425 0.59751 0.0
H1491 H 0.8406 0.89338 0.59418 0.0
C1492 C 0.87664 0.84783 0.58338 0.0
C1493 C 0.8895 0.84738 0.58522 0.0
C1494 C 0.87002 0.85866 0.58582 0.0
C1495 C 0.87611 0.86929 0.59019 0.0
C1496 C 0.88882 0.86853 0.59292 0.0
C1497 C 0.89545 0.85768 0.59045 0.0
C1498 C 0.86884 0.90296 0.58394 0.0
C1499 C 0.85614 0.90356 0.58664 0.0
C1500 C 0.87545 0.89203 0.58577 0.0
C1501 C 0.86954 0.8814 0.59037 0.0
C1502 C 0.85699 0.88222 0.59378 0.0
C1503 C 0.85036 0.8932 0.59194 0.0
H1504 H 0.42048 0.0881 0.12232 0.0
H1505 H 0.40811 0.10571 0.15599 0.0
H1506 H 0.41854 0.10758 0.11135 0.0
H1507 H 0.40578 0.12523 0.14488 0.0
H1508 H 0.42478 0.15902 0.12616 0.0
H1509 H 0.42032 0.13989 0.13701 0.0
H1510 H 0.40617 0.12395 0.10318 0.0
H1511 H 0.41102 0.14309 0.09219 0.0
C1512 C 0.41705 0.09607 0.12733 0.0
C1513 C 0.41461 0.09538 0.14008 0.0
C1514 C 0.41584 0.10726 0.12099 0.0
C1515 C 0.41212 0.11805 0.12724 0.0
C1516 C 0.40889 0.11716 0.13983 0.0
C1517 C 0.41015 0.10595 0.14619 0.0
C1518 C 0.42053 0.15152 0.12105 0.0
C1519 C 0.41841 0.15253 0.10827 0.0
C1520 C 0.41787 0.14054 0.12732 0.0
C1521 C 0.41297 0.1303 0.12096 0.0
C1522 C 0.41014 0.13158 0.10831 0.0
C1523 C 0.41285 0.14257 0.10203 0.0
H1524 H 0.89274 0.40865 0.15524 0.0
H1525 H 0.91119 0.42213 0.12245 0.0
H1526 H 0.87357 0.40645 0.14349 0.0
H1527 H 0.89205 0.42022 0.11084 0.0
H1528 H 0.85692 0.41185 0.09066 0.0
H1529 H 0.87595 0.40736 0.10205 0.0
H1530 H 0.85923 0.42158 0.13545 0.0
H1531 H 0.84026 0.42579 0.12421 0.0
C1532 C 0.89277 0.41094 0.14548 0.0
C1533 C 0.90346 0.4157 0.13982 0.0
C1534 C 0.88177 0.40976 0.13877 0.0
C1535 C 0.88122 0.4133 0.12625 0.0
C1536 C 0.89213 0.4173 0.12042 0.0
C1537 C 0.90311 0.41848 0.12712 0.0
C1538 C 0.85726 0.4138 0.10048 0.0
C1539 C 0.84712 0.41929 0.1065 0.0
C1540 C 0.86817 0.41129 0.10699 0.0
C1541 C 0.86916 0.41418 0.11966 0.0
C1542 C 0.85878 0.41909 0.12576 0.0
C1543 C 0.84791 0.42161 0.11927 0.0
H1544 H 0.59055 0.89018 0.15569 0.0
H1545 H 0.57751 0.90851 0.12267 0.0
H1546 H 0.59262 0.87089 0.14411 0.0
H1547 H 0.57922 0.88927 0.11124 0.0
H1548 H 0.58712 0.85425 0.09112 0.0
H1549 H 0.59175 0.87321 0.10251 0.0
H1550 H 0.578 0.85633 0.13604 0.0
H1551 H 0.57373 0.83738 0.12478 0.0
C1552 C 0.58829 0.89014 0.14593 0.0
C1553 C 0.58374 0.90086 0.14014 0.0
C1554 C 0.5894 0.87907 0.13931 0.0
C1555 C 0.58596 0.87846 0.12676 0.0
C1556 C 0.58209 0.88937 0.12083 0.0
C1557 C 0.58102 0.90043 0.12744 0.0
C1558 C 0.58532 0.85452 0.10097 0.0
C1559 C 0.57994 0.84435 0.10701 0.0
C1560 C 0.5879 0.86542 0.10749 0.0
C1561 C 0.58514 0.86637 0.12018 0.0
C1562 C 0.58039 0.85593 0.12632 0.0
C1563 C 0.57785 0.84506 0.11982 0.0
H1564 H 0.09081 0.57637 0.12015 0.0
H1565 H 0.10763 0.59171 0.153 0.0
H1566 H 0.11014 0.57881 0.10904 0.0
H1567 H 0.12702 0.59449 0.1417 0.0
H1568 H 0.1618 0.5764 0.12358 0.0
H1569 H 0.14257 0.58043 0.13444 0.0
H1570 H 0.12557 0.59192 0.10013 0.0
H1571 H 0.14481 0.58751 0.08916 0.0
C1572 C 0.09857 0.58053 0.12494 0.0
C1573 C 0.09772 0.5837 0.13752 0.0
C1574 C 0.10967 0.58203 0.11851 0.0
C1575 C 0.1202 0.58677 0.12448 0.0
C1576 C 0.11914 0.59063 0.13688 0.0
C1577 C 0.10801 0.5891 0.14333 0.0
C1578 C 0.15404 0.57999 0.11837 0.0
C1579 C 0.15479 0.58145 0.10547 0.0
C1580 C 0.143 0.5824 0.12463 0.0
C1581 C 0.13244 0.58638 0.11815 0.0
C1582 C 0.13346 0.58864 0.10537 0.0
C1583 C 0.14451 0.58619 0.09909 0.0
H1584 H 0.41596 0.89295 0.84127 0.0
H1585 H 0.40878 0.91565 0.87326 0.0
H1586 H 0.41286 0.87444 0.85361 0.0
H1587 H 0.40462 0.89722 0.88552 0.0
H1588 H 0.41811 0.86343 0.90728 0.0
H1589 H 0.41545 0.88212 0.89523 0.0
H1590 H 0.40173 0.86032 0.86454 0.0
H1591 H 0.4054 0.84154 0.87644 0.0
C1592 C 0.41328 0.89395 0.85088 0.0
C1593 C 0.41274 0.90569 0.85636 0.0
C1594 C 0.41142 0.88331 0.858 0.0
C1595 C 0.40864 0.88419 0.87073 0.0
C1596 C 0.40715 0.89606 0.8759 0.0
C1597 C 0.40939 0.90667 0.86885 0.0
C1598 C 0.4143 0.86267 0.89804 0.0
C1599 C 0.41207 0.85104 0.89276 0.0
C1600 C 0.4127 0.87344 0.89108 0.0
C1601 C 0.40852 0.87287 0.87873 0.0
C1602 C 0.40535 0.8612 0.87384 0.0
C1603 C 0.40729 0.85041 0.8807 0.0
H1604 H 0.09063 0.42563 0.87699 0.0
H1605 H 0.10845 0.41029 0.84469 0.0
H1606 H 0.10961 0.4232 0.8887 0.0
H1607 H 0.12748 0.4075 0.85657 0.0
H1608 H 0.16174 0.42546 0.87569 0.0
H1609 H 0.14281 0.42154 0.86429 0.0
H1610 H 0.12478 0.41009 0.89808 0.0
H1611 H 0.14373 0.41438 0.9096 0.0
C1612 C 0.09853 0.42147 0.87245 0.0
C1613 C 0.09806 0.4183 0.85985 0.0
C1614 C 0.10943 0.41998 0.87922 0.0
C1615 C 0.12014 0.41524 0.87357 0.0
C1616 C 0.11946 0.41138 0.86115 0.0
C1617 C 0.10853 0.4129 0.85436 0.0
C1618 C 0.15382 0.4219 0.88068 0.0
C1619 C 0.15421 0.4204 0.89359 0.0
C1620 C 0.14295 0.41956 0.87411 0.0
C1621 C 0.13219 0.41562 0.88027 0.0
C1622 C 0.13282 0.41334 0.89308 0.0
C1623 C 0.14371 0.41572 0.89967 0.0
H1624 H 0.59028 0.10793 0.84653 0.0
H1625 H 0.57864 0.09016 0.88037 0.0
H1626 H 0.59285 0.1274 0.85769 0.0
H1627 H 0.58085 0.10959 0.8914 0.0
H1628 H 0.58827 0.14522 0.91042 0.0
H1629 H 0.59332 0.12618 0.89932 0.0
H1630 H 0.57802 0.14175 0.86583 0.0
H1631 H 0.57332 0.16076 0.87678 0.0
C1632 C 0.58848 0.10812 0.85638 0.0
C1633 C 0.5841 0.09753 0.86253 0.0
C1634 C 0.58987 0.1193 0.86277 0.0
C1635 C 0.58688 0.12013 0.87542 0.0
C1636 C 0.58334 0.10931 0.8817 0.0
C1637 C 0.58199 0.09815 0.87534 0.0
C1638 C 0.58623 0.14465 0.90063 0.0
C1639 C 0.58026 0.15445 0.89452 0.0
C1640 C 0.58906 0.13371 0.89428 0.0
C1641 C 0.58597 0.13236 0.8817 0.0
C1642 C 0.58068 0.14247 0.87546 0.0
C1643 C 0.57787 0.15337 0.88179 0.0
H1644 H 0.84191 0.59548 0.87657 0.0
H1645 H 0.86357 0.58433 0.90816 0.0
H1646 H 0.8608 0.59974 0.86504 0.0
H1647 H 0.88244 0.58761 0.89648 0.0
H1648 H 0.9161 0.59507 0.87497 0.0
H1649 H 0.89728 0.59898 0.88672 0.0
H1650 H 0.87547 0.58857 0.85479 0.0
H1651 H 0.89428 0.58563 0.84293 0.0
C1652 C 0.85075 0.59406 0.88107 0.0
C1653 C 0.8513 0.58952 0.89322 0.0
C1654 C 0.86161 0.59636 0.87442 0.0
C1655 C 0.87327 0.59378 0.87964 0.0
C1656 C 0.87374 0.58989 0.89209 0.0
C1657 C 0.86288 0.58793 0.89883 0.0
C1658 C 0.90724 0.59393 0.87043 0.0
C1659 C 0.90663 0.58998 0.85808 0.0
C1660 C 0.89642 0.59604 0.87719 0.0
C1661 C 0.88472 0.59387 0.87187 0.0
C1662 C 0.8842 0.59054 0.85927 0.0
C1663 C 0.89502 0.58877 0.85242 0.0
H1664 H 0.15658 0.40713 0.10746 0.0
H1665 H 0.12323 0.41905 0.08895 0.0
H1666 H 0.14507 0.40515 0.12681 0.0
H1667 H 0.11186 0.41738 0.10823 0.0
H1668 H 0.09216 0.41012 0.14366 0.0
H1669 H 0.10353 0.40501 0.1248 0.0
H1670 H 0.13679 0.4204 0.14078 0.0
H1671 H 0.12555 0.4252 0.15961 0.0
C1672 C 0.14676 0.40911 0.10746 0.0
C1673 C 0.14086 0.41339 0.0967 0.0
C1674 C 0.14018 0.40806 0.11857 0.0
C1675 C 0.12757 0.41126 0.11913 0.0
C1676 C 0.12152 0.41474 0.10815 0.0
C1677 C 0.12808 0.41578 0.09708 0.0
C1678 C 0.10195 0.4122 0.14321 0.0
C1679 C 0.10792 0.41819 0.15308 0.0
C1680 C 0.10846 0.40932 0.13239 0.0
C1681 C 0.12106 0.41238 0.13122 0.0
C1682 C 0.12714 0.41777 0.14137 0.0
C1683 C 0.12065 0.42063 0.15216 0.0
H1684 H 0.09513 0.59159 0.85538 0.0
H1685 H 0.12868 0.57628 0.83998 0.0
H1686 H 0.10627 0.59674 0.87438 0.0
H1687 H 0.13966 0.5811 0.85895 0.0
H1688 H 0.15911 0.5946 0.89235 0.0
H1689 H 0.14783 0.59644 0.87286 0.0
H1690 H 0.11436 0.58455 0.89118 0.0
H1691 H 0.1255 0.58305 0.91061 0.0
C1692 C 0.1049 0.58946 0.85599 0.0
C1693 C 0.11098 0.58341 0.84622 0.0
C1694 C 0.11127 0.59236 0.86689 0.0
C1695 C 0.12385 0.58926 0.86825 0.0
C1696 C 0.13004 0.58378 0.85821 0.0
C1697 C 0.12369 0.5809 0.84734 0.0
C1698 C 0.14929 0.59267 0.89226 0.0
C1699 C 0.14324 0.58853 0.903 0.0
C1700 C 0.14283 0.59364 0.88108 0.0
C1701 C 0.13022 0.59048 0.8804 0.0
C1702 C 0.12403 0.58716 0.89134 0.0
C1703 C 0.13046 0.58621 0.9025 0.0
H1704 H 0.40925 0.12522 0.83864 0.0
H1705 H 0.41977 0.09384 0.8609 0.0
H1706 H 0.40432 0.13688 0.85727 0.0
H1707 H 0.41586 0.10566 0.87955 0.0
H1708 H 0.40686 0.12725 0.91281 0.0
H1709 H 0.40394 0.11533 0.89391 0.0
H1710 H 0.41453 0.14739 0.87236 0.0
H1711 H 0.41642 0.1594 0.89122 0.0
C1712 C 0.41041 0.12081 0.84756 0.0
C1713 C 0.41494 0.10867 0.84835 0.0
C1714 C 0.40773 0.12753 0.85828 0.0
C1715 C 0.4099 0.1224 0.87007 0.0
C1716 C 0.41385 0.10998 0.87076 0.0
C1717 C 0.41619 0.10316 0.86002 0.0
C1718 C 0.40824 0.13177 0.90397 0.0
C1719 C 0.41192 0.14421 0.90345 0.0
C1720 C 0.40671 0.12491 0.89311 0.0
C1721 C 0.40924 0.13022 0.88148 0.0
C1722 C 0.4123 0.1429 0.88102 0.0
C1723 C 0.41347 0.14984 0.89187 0.0
H1724 H 0.84129 0.4116 0.88961 0.0
H1725 H 0.87461 0.42161 0.90927 0.0
H1726 H 0.85334 0.40869 0.87075 0.0
H1727 H 0.88653 0.41915 0.89044 0.0
H1728 H 0.90714 0.41201 0.85571 0.0
H1729 H 0.89499 0.40705 0.87411 0.0
H1730 H 0.86262 0.423 0.8569 0.0
H1731 H 0.8746 0.42754 0.83851 0.0
C1732 C 0.85121 0.41297 0.88997 0.0
C1733 C 0.85696 0.417 0.90091 0.0
C1734 C 0.85812 0.41139 0.87913 0.0
C1735 C 0.8709 0.41389 0.87898 0.0
C1736 C 0.87675 0.41704 0.89017 0.0
C1737 C 0.86987 0.41854 0.901 0.0
C1738 C 0.89737 0.41421 0.85579 0.0
C1739 C 0.89188 0.4203 0.8457 0.0
C1740 C 0.89041 0.41144 0.86636 0.0
C1741 C 0.87783 0.41474 0.86708 0.0
C1742 C 0.87222 0.42017 0.85668 0.0
C1743 C 0.87914 0.42288 0.84612 0.0
H1744 H 0.58529 0.87722 0.83473 0.0
H1745 H 0.57714 0.90836 0.85827 0.0
H1746 H 0.5903 0.86475 0.85279 0.0
H1747 H 0.58108 0.89575 0.87644 0.0
H1748 H 0.58985 0.87254 0.90869 0.0
H1749 H 0.59286 0.88498 0.89014 0.0
H1750 H 0.58018 0.85423 0.8678 0.0
H1751 H 0.57818 0.84169 0.88624 0.0
C1752 C 0.58463 0.88139 0.84382 0.0
C1753 C 0.58077 0.8937 0.84514 0.0
C1754 C 0.58737 0.87421 0.85422 0.0
C1755 C 0.58587 0.87905 0.86623 0.0
C1756 C 0.58255 0.89162 0.86744 0.0
C1757 C 0.5802 0.89889 0.85701 0.0
C1758 C 0.58806 0.86839 0.89974 0.0
C1759 C 0.58374 0.85618 0.89889 0.0
C1760 C 0.58963 0.87556 0.88908 0.0
C1761 C 0.58652 0.87081 0.87735 0.0
C1762 C 0.58286 0.8583 0.87654 0.0
C1763 C 0.58165 0.85105 0.88717 0.0
H1764 H 0.91027 0.58801 0.14213 0.0
H1765 H 0.87662 0.57668 0.16045 0.0
H1766 H 0.89861 0.59181 0.12316 0.0
H1767 H 0.86507 0.58012 0.1415 0.0
H1768 H 0.84519 0.59131 0.10717 0.0
H1769 H 0.85715 0.59411 0.12615 0.0
H1770 H 0.88921 0.5784 0.10816 0.0
H1771 H 0.87741 0.57594 0.08922 0.0
C1772 C 0.90037 0.5865 0.14217 0.0
C1773 C 0.8944 0.58192 0.15277 0.0
C1774 C 0.89369 0.5886 0.13127 0.0
C1775 C 0.88091 0.58615 0.13074 0.0
C1776 C 0.87486 0.58224 0.14157 0.0
C1777 C 0.88152 0.58017 0.15245 0.0
C1778 C 0.85486 0.58869 0.10722 0.0
C1779 C 0.86031 0.58329 0.09672 0.0
C1780 C 0.8617 0.59022 0.11811 0.0
C1781 C 0.87413 0.58638 0.11874 0.0
C1782 C 0.87972 0.5816 0.10801 0.0
C1783 C 0.8729 0.58009 0.09715 0.0
H1784 H 0.41973 0.87696 0.08872 0.0
H1785 H 0.40704 0.84339 0.10629 0.0
H1786 H 0.41815 0.88787 0.10827 0.0
H1787 H 0.40512 0.85445 0.12591 0.0
H1788 H 0.42491 0.87284 0.15949 0.0
H1789 H 0.42021 0.86213 0.14032 0.0
H1790 H 0.40581 0.89606 0.12485 0.0
H1791 H 0.41085 0.9069 0.14403 0.0
C1792 C 0.41631 0.87197 0.0967 0.0
C1793 C 0.41367 0.85925 0.09598 0.0
C1794 C 0.41531 0.87827 0.10793 0.0
C1795 C 0.41162 0.87203 0.11872 0.0
C1796 C 0.4082 0.85949 0.11782 0.0
C1797 C 0.40922 0.85317 0.10656 0.0
C1798 C 0.42057 0.878 0.15208 0.0
C1799 C 0.4184 0.89077 0.15324 0.0
C1800 C 0.41777 0.87182 0.14109 0.0
C1801 C 0.41269 0.87823 0.13098 0.0
C1802 C 0.40989 0.89087 0.13239 0.0
C1803 C 0.41272 0.89708 0.1434 0.0
H1804 H 0.58033 0.12115 0.08999 0.0
H1805 H 0.59285 0.15444 0.10821 0.0
H1806 H 0.58248 0.10976 0.1092 0.0
H1807 H 0.59539 0.1429 0.12746 0.0
H1808 H 0.57631 0.12347 0.16084 0.0
H1809 H 0.58085 0.13473 0.14198 0.0
H1810 H 0.59499 0.10125 0.12533 0.0
H1811 H 0.59006 0.08984 0.14419 0.0
C1812 C 0.58384 0.12598 0.09803 0.0
C1813 C 0.58624 0.13875 0.09761 0.0
C1814 C 0.58517 0.11941 0.10907 0.0
C1815 C 0.58899 0.12542 0.11995 0.0
C1816 C 0.5922 0.13803 0.11931 0.0
C1817 C 0.59083 0.14463 0.10825 0.0
C1818 C 0.58058 0.11852 0.15324 0.0
C1819 C 0.58266 0.10571 0.15396 0.0
C1820 C 0.58329 0.12503 0.14242 0.0
C1821 C 0.5882 0.1189 0.13206 0.0
C1822 C 0.59102 0.10622 0.13306 0.0
C1823 C 0.58826 0.09969 0.1439 0.0
H1824 H 0.6474 0.59301 0.91226 0.0
H1825 H 0.66354 0.62666 0.92655 0.0
H1826 H 0.62851 0.60429 0.90715 0.0
H1827 H 0.64465 0.63779 0.92187 0.0
H1828 H 0.61111 0.65752 0.91 0.0
H1829 H 0.63038 0.64606 0.90736 0.0
H1830 H 0.61198 0.61256 0.91911 0.0
H1831 H 0.59274 0.62388 0.92129 0.0
C1832 C 0.64698 0.60284 0.91416 0.0
C1833 C 0.65693 0.6089 0.91994 0.0
C1834 C 0.63613 0.6093 0.9113 0.0
C1835 C 0.63497 0.62195 0.9142 0.0
C1836 C 0.64521 0.62811 0.91934 0.0
C1837 C 0.65605 0.62168 0.92214 0.0
C1838 C 0.61112 0.64765 0.91172 0.0
C1839 C 0.60043 0.64165 0.91602 0.0
C1840 C 0.6222 0.64109 0.91029 0.0
C1841 C 0.62283 0.62841 0.91323 0.0
C1842 C 0.61188 0.62227 0.91666 0.0
C1843 C 0.60082 0.62881 0.918 0.0
H1844 H 0.37639 0.66263 0.92656 0.0
H1845 H 0.41017 0.64676 0.91229 0.0
H1846 H 0.3654 0.64364 0.92181 0.0
H1847 H 0.39904 0.62776 0.9072 0.0
H1848 H 0.37954 0.59178 0.92088 0.0
H1849 H 0.39069 0.6112 0.91939 0.0
H1850 H 0.35742 0.6294 0.90676 0.0
H1851 H 0.34611 0.60991 0.9086 0.0
C1852 C 0.38143 0.65517 0.92216 0.0
C1853 C 0.3942 0.65616 0.91995 0.0
C1854 C 0.37508 0.64428 0.91934 0.0
C1855 C 0.38133 0.6341 0.91419 0.0
C1856 C 0.39398 0.63534 0.91134 0.0
C1857 C 0.40035 0.64626 0.91419 0.0
C1858 C 0.37462 0.59986 0.91757 0.0
C1859 C 0.36188 0.59932 0.91502 0.0
C1860 C 0.38107 0.61102 0.91662 0.0
C1861 C 0.37495 0.62193 0.91307 0.0
C1862 C 0.36237 0.62122 0.90974 0.0
C1863 C 0.35591 0.61003 0.9107 0.0
H1864 H 0.38906 0.34537 0.91845 0.0
H1865 H 0.41154 0.37717 0.90987 0.0
H1866 H 0.37052 0.35791 0.91672 0.0
H1867 H 0.393 0.38964 0.9071 0.0
H1868 H 0.36049 0.41166 0.92314 0.0
H1869 H 0.37883 0.39939 0.91917 0.0
H1870 H 0.35578 0.36909 0.90669 0.0
H1871 H 0.33744 0.3812 0.91165 0.0
C1872 C 0.38998 0.35497 0.91574 0.0
C1873 C 0.40171 0.36034 0.91442 0.0
C1874 C 0.37932 0.36222 0.91468 0.0
C1875 C 0.38013 0.37496 0.91194 0.0
C1876 C 0.39192 0.38002 0.90963 0.0
C1877 C 0.40258 0.37284 0.91106 0.0
C1878 C 0.35938 0.40245 0.91934 0.0
C1879 C 0.34756 0.39734 0.91782 0.0
C1880 C 0.36993 0.39537 0.91697 0.0
C1881 C 0.36893 0.38307 0.91271 0.0
C1882 C 0.35702 0.37834 0.91032 0.0
C1883 C 0.34647 0.38532 0.91302 0.0
H1884 H 0.59054 0.36125 0.924 0.0
H1885 H 0.62122 0.33832 0.91284 0.0
H1886 H 0.60309 0.37962 0.92102 0.0
H1887 H 0.63362 0.35671 0.90891 0.0
H1888 H 0.65714 0.3893 0.92272 0.0
H1889 H 0.64447 0.37098 0.92004 0.0
H1890 H 0.61345 0.39404 0.90956 0.0
H1891 H 0.62603 0.41238 0.91319 0.0
C1892 C 0.59987 0.36018 0.9205 0.0
C1893 C 0.60495 0.34837 0.91878 0.0
C1894 C 0.60711 0.37075 0.91871 0.0
C1895 C 0.61954 0.36977 0.91485 0.0
C1896 C 0.62426 0.3579 0.91225 0.0
C1897 C 0.61712 0.34733 0.91437 0.0
C1898 C 0.64767 0.39042 0.91962 0.0
C1899 C 0.64253 0.40225 0.91829 0.0
C1900 C 0.64036 0.37988 0.91801 0.0
C1901 C 0.62777 0.3809 0.91473 0.0
C1902 C 0.62295 0.3928 0.91247 0.0
C1903 C 0.63019 0.40335 0.9144 0.0
H1904 H 0.58888 0.37449 0.08175 0.0
H1905 H 0.60572 0.3408 0.09509 0.0
H1906 H 0.60811 0.38553 0.08514 0.0
H1907 H 0.62499 0.35199 0.09885 0.0
H1908 H 0.65962 0.37101 0.08146 0.0
H1909 H 0.64042 0.36 0.08509 0.0
H1910 H 0.62364 0.39364 0.0987 0.0
H1911 H 0.64288 0.40481 0.09469 0.0
C1912 C 0.59661 0.36949 0.08569 0.0
C1913 C 0.59582 0.35672 0.08797 0.0
C1914 C 0.60765 0.37587 0.08774 0.0
C1915 C 0.61817 0.36964 0.09216 0.0
C1916 C 0.61713 0.35702 0.09524 0.0
C1917 C 0.60606 0.35062 0.09315 0.0
C1918 C 0.65191 0.37604 0.08543 0.0
C1919 C 0.65272 0.38884 0.0876 0.0
C1920 C 0.6409 0.36968 0.08762 0.0
C1921 C 0.63041 0.37595 0.09209 0.0
C1922 C 0.63148 0.38858 0.09505 0.0
C1923 C 0.64252 0.39497 0.09282 0.0
H1924 H 0.62369 0.58737 0.08112 0.0
H1925 H 0.65621 0.60484 0.09643 0.0
H1926 H 0.61199 0.60623 0.08428 0.0
H1927 H 0.64432 0.62372 0.10003 0.0
H1928 H 0.62519 0.65843 0.08317 0.0
H1929 H 0.63656 0.63944 0.08678 0.0
H1930 H 0.60266 0.62113 0.09747 0.0
H1931 H 0.59117 0.64014 0.09341 0.0
C1932 C 0.62828 0.59516 0.08545 0.0
C1933 C 0.64094 0.59465 0.08835 0.0
C1934 C 0.62151 0.60599 0.08737 0.0
C1935 C 0.62721 0.61659 0.09232 0.0
C1936 C 0.63969 0.61581 0.09598 0.0
C1937 C 0.64649 0.60497 0.09399 0.0
C1938 C 0.62017 0.65043 0.08651 0.0
C1939 C 0.60724 0.65076 0.08782 0.0
C1940 C 0.62673 0.63952 0.08868 0.0
C1941 C 0.62053 0.62866 0.09228 0.0
C1942 C 0.6077 0.62924 0.09446 0.0
C1943 C 0.60112 0.64017 0.09222 0.0
H1944 H 0.35841 0.59098 0.08948 0.0
H1945 H 0.33981 0.62457 0.07841 0.0
H1946 H 0.37702 0.60289 0.09418 0.0
H1947 H 0.35842 0.63637 0.08274 0.0
H1948 H 0.39222 0.65662 0.09456 0.0
H1949 H 0.37342 0.64431 0.09707 0.0
H1950 H 0.39211 0.61269 0.08127 0.0
H1951 H 0.41086 0.62482 0.07911 0.0
C1952 C 0.35822 0.60092 0.08823 0.0
C1953 C 0.34767 0.6068 0.08343 0.0
C1954 C 0.36892 0.60774 0.09085 0.0
C1955 C 0.3693 0.62058 0.08869 0.0
C1956 C 0.35847 0.62653 0.08463 0.0
C1957 C 0.34779 0.61973 0.08206 0.0
C1958 C 0.39237 0.64697 0.09188 0.0
C1959 C 0.40299 0.64174 0.08651 0.0
C1960 C 0.38158 0.63993 0.09324 0.0
C1961 C 0.38119 0.62752 0.08926 0.0
C1962 C 0.39206 0.62215 0.08457 0.0
C1963 C 0.40282 0.62916 0.08323 0.0
H1964 H 0.37413 0.33862 0.078 0.0
H1965 H 0.40824 0.35549 0.09019 0.0
H1966 H 0.36303 0.35754 0.08268 0.0
H1967 H 0.39701 0.37441 0.0953 0.0
H1968 H 0.37677 0.40956 0.08094 0.0
H1969 H 0.38814 0.39035 0.08297 0.0
H1970 H 0.35533 0.37238 0.0971 0.0
H1971 H 0.34379 0.39165 0.09466 0.0
C1972 C 0.37922 0.34628 0.08197 0.0
C1973 C 0.39211 0.3456 0.08355 0.0
C1974 C 0.37282 0.35714 0.08476 0.0
C1975 C 0.37912 0.36759 0.08927 0.0
C1976 C 0.3919 0.36662 0.09162 0.0
C1977 C 0.39833 0.35576 0.08876 0.0
C1978 C 0.37201 0.40158 0.08469 0.0
C1979 C 0.35932 0.4021 0.08747 0.0
C1980 C 0.37858 0.39054 0.08596 0.0
C1981 C 0.37265 0.37973 0.09009 0.0
C1982 C 0.36014 0.38047 0.09367 0.0
C1983 C 0.35354 0.39154 0.09236 0.0
H1984 H 0.92617 0.66223 0.62697 0.0
H1985 H 0.91384 0.64464 0.59327 0.0
H1986 H 0.92231 0.64326 0.63835 0.0
H1987 H 0.90965 0.62565 0.60477 0.0
H1988 H 0.92522 0.59113 0.62528 0.0
H1989 H 0.92294 0.61026 0.61377 0.0
H1990 H 0.908 0.6281 0.64626 0.0
H1991 H 0.91058 0.6089 0.65794 0.0
C1992 C 0.92237 0.65439 0.62202 0.0
C1993 C 0.92047 0.65491 0.60917 0.0
C1994 C 0.92006 0.6435 0.62859 0.0
C1995 C 0.91577 0.63286 0.62247 0.0
C1996 C 0.91315 0.63361 0.60973 0.0
C1997 C 0.91548 0.64452 0.60315 0.0
C1998 C 0.92126 0.59906 0.62995 0.0
C1999 C 0.91822 0.59852 0.64258 0.0
C2000 C 0.91986 0.61004 0.6233 0.0
C2001 C 0.91536 0.62078 0.62909 0.0
C2002 C 0.91166 0.62005 0.64156 0.0
C2003 C 0.91307 0.60903 0.64824 0.0
H2004 H 0.3572 0.91113 0.59367 0.0
H2005 H 0.34095 0.92482 0.62751 0.0
H2006 H 0.37646 0.90685 0.6047 0.0
H2007 H 0.36017 0.92086 0.63841 0.0
H2008 H 0.39435 0.9083 0.65752 0.0
H2009 H 0.37488 0.90612 0.64626 0.0
H2010 H 0.3926 0.91968 0.6131 0.0
H2011 H 0.41203 0.92153 0.62422 0.0
C2012 C 0.35768 0.91309 0.60348 0.0
C2013 C 0.34758 0.91843 0.60968 0.0
C2014 C 0.36873 0.9107 0.6098 0.0
C2015 C 0.36992 0.9136 0.62244 0.0
C2016 C 0.35958 0.91836 0.62873 0.0
C2017 C 0.34856 0.92073 0.62243 0.0
C2018 C 0.39414 0.91056 0.64776 0.0
C2019 C 0.40471 0.91521 0.6418 0.0
C2020 C 0.38296 0.90939 0.64132 0.0
C2021 C 0.38212 0.91286 0.6288 0.0
C2022 C 0.3929 0.91681 0.62269 0.0
C2023 C 0.40405 0.91796 0.62911 0.0
H2024 H 0.08116 0.40971 0.62242 0.0
H2025 H 0.09243 0.39162 0.65623 0.0
H2026 H 0.08293 0.39024 0.61136 0.0
H2027 H 0.09452 0.37211 0.64503 0.0
H2028 H 0.07457 0.33913 0.62575 0.0
H2029 H 0.0793 0.35812 0.63674 0.0
H2030 H 0.09535 0.37343 0.60349 0.0
H2031 H 0.09033 0.3544 0.59235 0.0
C2032 C 0.08431 0.40163 0.62744 0.0
C2033 C 0.08648 0.40219 0.64025 0.0
C2034 C 0.08542 0.39046 0.62106 0.0
C2035 C 0.08874 0.37955 0.62732 0.0
C2036 C 0.09173 0.38029 0.63997 0.0
C2037 C 0.09061 0.39149 0.64638 0.0
C2038 C 0.07928 0.34646 0.6208 0.0
C2039 C 0.08193 0.3453 0.60813 0.0
C2040 C 0.0821 0.35734 0.62715 0.0
C2041 C 0.08765 0.36736 0.62099 0.0
C2042 C 0.09092 0.36596 0.60847 0.0
C2043 C 0.0881 0.35503 0.6021 0.0
H2044 H 0.60992 0.07889 0.65417 0.0
H2045 H 0.58938 0.08886 0.62147 0.0
H2046 H 0.62916 0.08103 0.64286 0.0
H2047 H 0.60866 0.09203 0.61025 0.0
H2048 H 0.64256 0.07687 0.58966 0.0
H2049 H 0.62347 0.08045 0.60086 0.0
H2050 H 0.64454 0.09149 0.63309 0.0
H2051 H 0.66361 0.08689 0.62203 0.0
C2052 C 0.60957 0.08197 0.64465 0.0
C2053 C 0.59818 0.08358 0.63866 0.0
C2054 C 0.62064 0.08329 0.63811 0.0
C2055 C 0.62061 0.08656 0.62547 0.0
C2056 C 0.60915 0.08911 0.61981 0.0
C2057 C 0.59806 0.08744 0.62627 0.0
C2058 C 0.64308 0.08028 0.59907 0.0
C2059 C 0.65454 0.08148 0.60502 0.0
C2060 C 0.63209 0.08242 0.60554 0.0
C2061 C 0.6323 0.08613 0.61805 0.0
C2062 C 0.64389 0.08826 0.62364 0.0
C2063 C 0.65487 0.08577 0.61726 0.0
H2064 H 0.90609 0.34257 0.37519 0.0
H2065 H 0.91695 0.36413 0.40694 0.0
H2066 H 0.90254 0.36148 0.36347 0.0
H2067 H 0.91446 0.38301 0.39509 0.0
H2068 H 0.90823 0.41675 0.37321 0.0
H2069 H 0.90383 0.3981 0.38505 0.0
H2070 H 0.91399 0.37586 0.35332 0.0
H2071 H 0.91736 0.39453 0.34136 0.0
C2072 C 0.90761 0.35141 0.37968 0.0
C2073 C 0.91184 0.35192 0.39193 0.0
C2074 C 0.90573 0.36227 0.37293 0.0
C2075 C 0.90846 0.37391 0.37815 0.0
C2076 C 0.91207 0.37435 0.39068 0.0
C2077 C 0.91358 0.36348 0.39753 0.0
C2078 C 0.90921 0.40784 0.36873 0.0
C2079 C 0.91318 0.40706 0.3564 0.0
C2080 C 0.90683 0.39711 0.37556 0.0
C2081 C 0.90877 0.38533 0.37032 0.0
C2082 C 0.91218 0.38465 0.35774 0.0
C2083 C 0.9142 0.39539 0.35083 0.0
H2084 H 0.63995 0.92003 0.40582 0.0
H2085 H 0.66144 0.91055 0.37358 0.0
H2086 H 0.62101 0.91616 0.39443 0.0
H2087 H 0.64255 0.90562 0.36234 0.0
H2088 H 0.60781 0.91739 0.341 0.0
H2089 H 0.62701 0.91562 0.35244 0.0
H2090 H 0.60651 0.90432 0.38495 0.0
H2091 H 0.58726 0.90715 0.37361 0.0
C2092 C 0.6406 0.91669 0.39639 0.0
C2093 C 0.65212 0.91571 0.39053 0.0
C2094 C 0.6297 0.91437 0.38982 0.0
C2095 C 0.63009 0.91069 0.3773 0.0
C2096 C 0.64176 0.90882 0.37179 0.0
C2097 C 0.65263 0.9115 0.37827 0.0
C2098 C 0.60746 0.9143 0.35053 0.0
C2099 C 0.59607 0.91252 0.35646 0.0
C2100 C 0.61852 0.91321 0.35714 0.0
C2101 C 0.61846 0.90999 0.36979 0.0
C2102 C 0.60701 0.90723 0.37539 0.0
C2103 C 0.59594 0.90869 0.36885 0.0
H2104 H 0.09084 0.64462 0.40864 0.0
H2105 H 0.07556 0.65944 0.37482 0.0
H2106 H 0.09579 0.62535 0.39789 0.0
H2107 H 0.08017 0.64022 0.36423 0.0
H2108 H 0.09237 0.6063 0.34537 0.0
H2109 H 0.0951 0.62589 0.35626 0.0
H2110 H 0.08337 0.60852 0.39031 0.0
H2111 H 0.08102 0.58896 0.37954 0.0
C2112 C 0.08869 0.64384 0.39889 0.0
C2113 C 0.08268 0.65351 0.39262 0.0
C2114 C 0.09148 0.63277 0.39274 0.0
C2115 C 0.0883 0.63117 0.38021 0.0
C2116 C 0.08291 0.64113 0.37383 0.0
C2117 C 0.08015 0.65215 0.37995 0.0
C2118 C 0.09068 0.6066 0.35524 0.0
C2119 C 0.08631 0.59611 0.36155 0.0
C2120 C 0.09216 0.61785 0.36147 0.0
C2121 C 0.08926 0.61885 0.37413 0.0
C2122 C 0.08578 0.60811 0.38059 0.0
C2123 C 0.08435 0.59688 0.37438 0.0
H2124 H 0.39191 0.0929 0.3426 0.0
H2125 H 0.41029 0.07981 0.37559 0.0
H2126 H 0.37273 0.09532 0.35431 0.0
H2127 H 0.39116 0.0819 0.38715 0.0
H2128 H 0.35631 0.08996 0.40736 0.0
H2129 H 0.37516 0.09472 0.39583 0.0
H2130 H 0.35829 0.08047 0.36251 0.0
H2131 H 0.33947 0.07603 0.3739 0.0
C2132 C 0.39192 0.09073 0.35239 0.0
C2133 C 0.40258 0.08601 0.35813 0.0
C2134 C 0.38091 0.09205 0.35908 0.0
C2135 C 0.38035 0.08867 0.37165 0.0
C2136 C 0.39125 0.08471 0.37753 0.0
C2137 C 0.40222 0.08341 0.37086 0.0
C2138 C 0.35656 0.08807 0.39752 0.0
C2139 C 0.34645 0.08248 0.39158 0.0
C2140 C 0.36738 0.09074 0.39093 0.0
C2141 C 0.3683 0.08788 0.37826 0.0
C2142 C 0.3579 0.08294 0.37221 0.0
C2143 C 0.34711 0.08029 0.37878 0.0
H2144 H 0.59283 0.91985 0.63833 0.0
H2145 H 0.62479 0.91016 0.66012 0.0
H2146 H 0.60436 0.91584 0.61949 0.0
H2147 H 0.63616 0.90509 0.64136 0.0
H2148 H 0.65792 0.917 0.60695 0.0
H2149 H 0.64626 0.91515 0.62599 0.0
H2150 H 0.61397 0.90399 0.60506 0.0
H2151 H 0.62555 0.90689 0.58595 0.0
C2152 C 0.60222 0.91643 0.63906 0.0
C2153 C 0.60798 0.91544 0.65064 0.0
C2154 C 0.60888 0.91404 0.62823 0.0
C2155 C 0.62137 0.91027 0.62874 0.0
C2156 C 0.62675 0.90836 0.64047 0.0
C2157 C 0.6202 0.91113 0.65127 0.0
C2158 C 0.6484 0.91393 0.60646 0.0
C2159 C 0.6426 0.91221 0.59499 0.0
C2160 C 0.64165 0.91278 0.61743 0.0
C2161 C 0.629 0.90958 0.61721 0.0
C2162 C 0.62354 0.90688 0.60568 0.0
C2163 C 0.6302 0.90838 0.5947 0.0
H2164 H 0.65385 0.09139 0.39343 0.0
H2165 H 0.62086 0.07721 0.41097 0.0
H2166 H 0.64226 0.09459 0.37432 0.0
H2167 H 0.60943 0.08 0.39187 0.0
H2168 H 0.58934 0.08829 0.35726 0.0
H2169 H 0.60058 0.09285 0.37631 0.0
H2170 H 0.63454 0.08067 0.35908 0.0
H2171 H 0.62343 0.07655 0.34004 0.0
C2172 C 0.64409 0.08913 0.39327 0.0
C2173 C 0.63832 0.08389 0.40367 0.0
C2174 C 0.63746 0.0909 0.38229 0.0
C2175 C 0.62494 0.0874 0.38147 0.0
C2176 C 0.61901 0.08292 0.39215 0.0
C2177 C 0.62561 0.08122 0.40311 0.0
C2178 C 0.59925 0.08685 0.35748 0.0
C2179 C 0.60546 0.08191 0.34719 0.0
C2180 C 0.60569 0.08939 0.36842 0.0
C2181 C 0.61845 0.08698 0.36931 0.0
C2182 C 0.62475 0.08278 0.35874 0.0
C2183 C 0.61834 0.0803 0.34781 0.0
H2184 H 0.92183 0.59461 0.35921 0.0
H2185 H 0.91158 0.62715 0.33856 0.0
H2186 H 0.91862 0.60568 0.37843 0.0
H2187 H 0.9073 0.6381 0.35779 0.0
H2188 H 0.92021 0.65898 0.39243 0.0
H2189 H 0.91779 0.64781 0.37311 0.0
H2190 H 0.90749 0.61492 0.39354 0.0
H2191 H 0.911 0.62598 0.41284 0.0
C2192 C 0.91844 0.60403 0.35882 0.0
C2193 C 0.91706 0.61006 0.34742 0.0
C2194 C 0.91651 0.61044 0.36988 0.0
C2195 C 0.91283 0.62296 0.36983 0.0
C2196 C 0.91052 0.62864 0.35832 0.0
C2197 C 0.91281 0.62233 0.34725 0.0
C2198 C 0.91723 0.64942 0.39274 0.0
C2199 C 0.91591 0.6433 0.40409 0.0
C2200 C 0.91575 0.64296 0.38162 0.0
C2201 C 0.91259 0.63029 0.3816 0.0
C2202 C 0.91034 0.6245 0.39307 0.0
C2203 C 0.9122 0.63087 0.40417 0.0
H2204 H 0.37605 0.91417 0.33854 0.0
H2205 H 0.40781 0.92469 0.36025 0.0
H2206 H 0.36457 0.90963 0.35738 0.0
H2207 H 0.39618 0.92117 0.37913 0.0
H2208 H 0.375 0.91171 0.41273 0.0
H2209 H 0.38674 0.90926 0.39366 0.0
H2210 H 0.35431 0.91979 0.37264 0.0
H2211 H 0.3425 0.92122 0.39166 0.0
C2212 C 0.38057 0.91546 0.34739 0.0
C2213 C 0.39278 0.91982 0.34796 0.0
C2214 C 0.37396 0.91299 0.35823 0.0
C2215 C 0.37927 0.91522 0.36993 0.0
C2216 C 0.39172 0.91912 0.37041 0.0
C2217 C 0.39843 0.92123 0.35955 0.0
C2218 C 0.37036 0.9132 0.40398 0.0
C2219 C 0.35786 0.91669 0.40366 0.0
C2220 C 0.37712 0.91194 0.39301 0.0
C2221 C 0.37163 0.91454 0.38147 0.0
C2222 C 0.35893 0.9175 0.38122 0.0
C2223 C 0.3521 0.9184 0.39217 0.0
H2224 H 0.07728 0.40598 0.35976 0.0
H2225 H 0.08538 0.37414 0.33714 0.0
H2226 H 0.08043 0.3937 0.3783 0.0
H2227 H 0.08955 0.36196 0.35562 0.0
H2228 H 0.07622 0.33999 0.38935 0.0
H2229 H 0.07867 0.35209 0.37066 0.0
H2230 H 0.09185 0.383 0.39246 0.0
H2231 H 0.08844 0.37103 0.41124 0.0
C2232 C 0.08014 0.39642 0.35878 0.0
C2233 C 0.08095 0.39096 0.34705 0.0
C2234 C 0.08204 0.38934 0.36944 0.0
C2235 C 0.08511 0.37668 0.3686 0.0
C2236 C 0.08681 0.37153 0.35674 0.0
C2237 C 0.08456 0.37853 0.34611 0.0
C2238 C 0.07987 0.34929 0.39011 0.0
C2239 C 0.08202 0.3546 0.40175 0.0
C2240 C 0.08135 0.35628 0.37934 0.0
C2241 C 0.08532 0.3687 0.37992 0.0
C2242 C 0.0884 0.37365 0.39158 0.0
C2243 C 0.08659 0.36674 0.40237 0.0
H2244 H 0.34499 0.08879 0.60758 0.0
H2245 H 0.37841 0.07651 0.58944 0.0
H2246 H 0.35641 0.09117 0.62692 0.0
H2247 H 0.38971 0.07859 0.60875 0.0
H2248 H 0.40929 0.08742 0.64401 0.0
H2249 H 0.39791 0.09165 0.62493 0.0
H2250 H 0.36482 0.07641 0.64138 0.0
H2251 H 0.37605 0.07247 0.66041 0.0
C2252 C 0.3548 0.08678 0.60767 0.0
C2253 C 0.36075 0.08233 0.597 0.0
C2254 C 0.36134 0.08807 0.61877 0.0
C2255 C 0.37396 0.08494 0.61944 0.0
C2256 C 0.38004 0.0812 0.60857 0.0
C2257 C 0.37352 0.07992 0.59749 0.0
C2258 C 0.39953 0.08519 0.64361 0.0
C2259 C 0.39361 0.07949 0.65368 0.0
C2260 C 0.39302 0.08755 0.63266 0.0
C2261 C 0.38046 0.08428 0.63157 0.0
C2262 C 0.37442 0.07919 0.6419 0.0
C2263 C 0.38091 0.07683 0.65281 0.0
H2264 H 0.90877 0.34758 0.6057 0.0
H2265 H 0.92413 0.38035 0.58875 0.0
H2266 H 0.90588 0.35897 0.625 0.0
H2267 H 0.92163 0.39156 0.60802 0.0
H2268 H 0.91266 0.4116 0.64265 0.0
H2269 H 0.90861 0.4006 0.62334 0.0
H2270 H 0.91959 0.36629 0.64066 0.0
H2271 H 0.92322 0.37717 0.65995 0.0
C2272 C 0.91138 0.35725 0.60604 0.0
C2273 C 0.9168 0.36301 0.59572 0.0
C2274 C 0.9098 0.36376 0.61712 0.0
C2275 C 0.91364 0.37617 0.61814 0.0
C2276 C 0.91842 0.38209 0.60759 0.0
C2277 C 0.91995 0.3756 0.59652 0.0
C2278 C 0.91395 0.40167 0.64239 0.0
C2279 C 0.91839 0.39529 0.6528 0.0
C2280 C 0.91171 0.39537 0.63129 0.0
C2281 C 0.91392 0.38256 0.63036 0.0
C2282 C 0.91766 0.37611 0.64102 0.0
C2283 C 0.91983 0.38238 0.6521 0.0
H2284 H 0.07579 0.62459 0.65856 0.0
H2285 H 0.09003 0.59091 0.64243 0.0
H2286 H 0.07997 0.63558 0.63945 0.0
H2287 H 0.09453 0.60205 0.62328 0.0
H2288 H 0.08018 0.62177 0.58759 0.0
H2289 H 0.08196 0.61047 0.60692 0.0
H2290 H 0.09496 0.6436 0.62512 0.0
H2291 H 0.09285 0.65503 0.60576 0.0
C2292 C 0.08003 0.61957 0.651 0.0
C2293 C 0.08244 0.60683 0.65198 0.0
C2294 C 0.08254 0.62592 0.64004 0.0
C2295 C 0.08755 0.6197 0.62978 0.0
C2296 C 0.09052 0.60708 0.63095 0.0
C2297 C 0.08799 0.60071 0.64195 0.0
C2298 C 0.08363 0.62661 0.59565 0.0
C2299 C 0.08621 0.63935 0.59517 0.0
C2300 C 0.08473 0.62009 0.60675 0.0
C2301 C 0.08847 0.62614 0.61763 0.0
C2302 C 0.09184 0.6387 0.61696 0.0
C2303 C 0.0907 0.64524 0.60584 0.0
H2304 H 0.07945 0.21545 0.40465 0.0
H2305 H 0.08996 0.22499 0.44194 0.0
H2306 H 0.08031 0.23742 0.39885 0.0
H2307 H 0.09128 0.24677 0.43607 0.0
H2308 H 0.09574 0.28535 0.42109 0.0
H2309 H 0.10165 0.2634 0.42009 0.0
H2310 H 0.06436 0.2539 0.4095 0.0
H2311 H 0.05839 0.27565 0.41097 0.0
C2312 C 0.08246 0.22218 0.41144 0.0
C2313 C 0.08461 0.21861 0.42373 0.0
C2314 C 0.08292 0.23471 0.40814 0.0
C2315 C 0.0859 0.24374 0.41701 0.0
C2316 C 0.08912 0.23998 0.42902 0.0
C2317 C 0.08831 0.22754 0.43239 0.0
C2318 C 0.08896 0.27859 0.41813 0.0
C2319 C 0.07662 0.2821 0.41612 0.0
C2320 C 0.09232 0.26608 0.41759 0.0
C2321 C 0.08346 0.25701 0.41467 0.0
C2322 C 0.0714 0.26072 0.41161 0.0
C2323 C 0.06797 0.27313 0.4125 0.0
H2324 H 0.78524 0.09116 0.41569 0.0
H2325 H 0.78134 0.05418 0.43034 0.0
H2326 H 0.76256 0.09345 0.4158 0.0
H2327 H 0.75905 0.0564 0.43029 0.0
H2328 H 0.72353 0.0694 0.44615 0.0
H2329 H 0.7458 0.06971 0.44373 0.0
H2330 H 0.74181 0.08419 0.40673 0.0
H2331 H 0.71915 0.08403 0.40921 0.0
C2332 C 0.77957 0.08349 0.41875 0.0
C2333 C 0.78507 0.07257 0.42322 0.0
C2334 C 0.76662 0.08479 0.41879 0.0
C2335 C 0.75908 0.07519 0.42329 0.0
C2336 C 0.76463 0.06408 0.42705 0.0
C2337 C 0.77743 0.0628 0.42705 0.0
C2338 C 0.72733 0.07275 0.4375 0.0
C2339 C 0.71956 0.07649 0.42779 0.0
C2340 C 0.74012 0.0729 0.43611 0.0
C2341 C 0.74553 0.07672 0.42495 0.0
C2342 C 0.73786 0.08115 0.41542 0.0
C2343 C 0.72493 0.08104 0.41683 0.0
H2344 H 0.91055 0.78495 0.41612 0.0
H2345 H 0.94146 0.78074 0.44114 0.0
H2346 H 0.90704 0.76243 0.41691 0.0
H2347 H 0.93802 0.75866 0.44182 0.0
H2348 H 0.92167 0.72343 0.4534 0.0
H2349 H 0.92126 0.74575 0.45094 0.0
H2350 H 0.91808 0.74148 0.41136 0.0
H2351 H 0.91826 0.71884 0.41387 0.0
C2352 C 0.91661 0.77925 0.42171 0.0
C2353 C 0.92619 0.78465 0.42867 0.0
C2354 C 0.91461 0.7664 0.42213 0.0
C2355 C 0.92212 0.75884 0.42961 0.0
C2356 C 0.93189 0.76426 0.43621 0.0
C2357 C 0.93389 0.77696 0.43576 0.0
C2358 C 0.92069 0.72721 0.44417 0.0
C2359 C 0.92022 0.71941 0.4338 0.0
C2360 C 0.92048 0.74 0.44276 0.0
C2361 C 0.91992 0.74535 0.43093 0.0
C2362 C 0.91854 0.73759 0.42058 0.0
C2363 C 0.91866 0.72467 0.42201 0.0
H2364 H 0.22329 0.94266 0.41264 0.0
H2365 H 0.21554 0.90473 0.42229 0.0
H2366 H 0.2453 0.93782 0.41095 0.0
H2367 H 0.23777 0.89995 0.42106 0.0
H2368 H 0.27652 0.91258 0.44173 0.0
H2369 H 0.2545 0.9111 0.43684 0.0
H2370 H 0.26204 0.92239 0.39931 0.0
H2371 H 0.28428 0.92339 0.40411 0.0
C2372 C 0.2263 0.93321 0.41409 0.0
C2373 C 0.21778 0.92406 0.41759 0.0
C2374 C 0.23886 0.93043 0.41306 0.0
C2375 C 0.24319 0.91852 0.41585 0.0
C2376 C 0.23461 0.90918 0.41877 0.0
C2377 C 0.22194 0.9119 0.41945 0.0
C2378 C 0.27351 0.91433 0.43233 0.0
C2379 C 0.28203 0.91809 0.42328 0.0
C2380 C 0.26094 0.91343 0.42952 0.0
C2381 C 0.25662 0.9166 0.4177 0.0
C2382 C 0.2652 0.9198 0.40846 0.0
C2383 C 0.27787 0.92035 0.41119 0.0
H2384 H 0.07906 0.71429 0.59659 0.0
H2385 H 0.09018 0.72327 0.55934 0.0
H2386 H 0.07884 0.73644 0.6018 0.0
H2387 H 0.09041 0.74524 0.56463 0.0
H2388 H 0.09344 0.78427 0.57875 0.0
H2389 H 0.09984 0.7625 0.58005 0.0
H2390 H 0.06281 0.75229 0.59089 0.0
H2391 H 0.05635 0.77387 0.58919 0.0
C2392 C 0.08194 0.72097 0.58969 0.0
C2393 C 0.08461 0.71716 0.57757 0.0
C2394 C 0.08178 0.7336 0.59265 0.0
C2395 C 0.08465 0.74251 0.58361 0.0
C2396 C 0.08832 0.73856 0.5718 0.0
C2397 C 0.08813 0.72602 0.56876 0.0
C2398 C 0.0868 0.7774 0.58178 0.0
C2399 C 0.07439 0.78068 0.5838 0.0
C2400 C 0.09045 0.76498 0.5825 0.0
C2401 C 0.08182 0.75576 0.5856 0.0
C2402 C 0.06968 0.75923 0.58863 0.0
C2403 C 0.06597 0.77156 0.58758 0.0
H2404 H 0.21698 0.09561 0.58019 0.0
H2405 H 0.22542 0.05779 0.58969 0.0
H2406 H 0.23912 0.10079 0.5814 0.0
H2407 H 0.24734 0.06302 0.59136 0.0
H2408 H 0.27785 0.08885 0.56039 0.0
H2409 H 0.25591 0.09028 0.56559 0.0
H2410 H 0.26393 0.07834 0.60282 0.0
H2411 H 0.28608 0.07736 0.5977 0.0
C2412 C 0.22351 0.08855 0.583 0.0
C2413 C 0.21958 0.07631 0.58481 0.0
C2414 C 0.23613 0.0915 0.58367 0.0
C2415 C 0.24488 0.0823 0.58654 0.0
C2416 C 0.24077 0.07031 0.5893 0.0
C2417 C 0.22826 0.0673 0.58828 0.0
C2418 C 0.27497 0.08697 0.5698 0.0
C2419 C 0.28359 0.083 0.57866 0.0
C2420 C 0.26244 0.08785 0.57279 0.0
C2421 C 0.25827 0.08444 0.5846 0.0
C2422 C 0.26697 0.0811 0.59368 0.0
C2423 C 0.2796 0.08057 0.59077 0.0
H2424 H 0.92418 0.27725 0.55459 0.0
H2425 H 0.91639 0.28627 0.59276 0.0
H2426 H 0.92542 0.25544 0.55996 0.0
H2427 H 0.9176 0.26413 0.59808 0.0
H2428 H 0.9112 0.21714 0.58659 0.0
H2429 H 0.90596 0.23931 0.58587 0.0
H2430 H 0.9443 0.24812 0.5794 0.0
H2431 H 0.94959 0.22626 0.58014 0.0
C2432 C 0.92249 0.27457 0.5641 0.0
C2433 C 0.92034 0.28351 0.57328 0.0
C2434 C 0.92316 0.26207 0.56713 0.0
C2435 C 0.92165 0.25821 0.5794 0.0
C2436 C 0.91872 0.26696 0.58854 0.0
C2437 C 0.91805 0.27958 0.58549 0.0
C2438 C 0.91854 0.22385 0.58538 0.0
C2439 C 0.93078 0.21996 0.58326 0.0
C2440 C 0.91553 0.23649 0.58499 0.0
C2441 C 0.92475 0.2453 0.58255 0.0
C2442 C 0.93706 0.24145 0.5813 0.0
C2443 C 0.94005 0.22893 0.58168 0.0
H2444 H 0.78397 0.90694 0.58103 0.0
H2445 H 0.77369 0.94405 0.59155 0.0
H2446 H 0.7621 0.9008 0.58153 0.0
H2447 H 0.75198 0.93783 0.59246 0.0
H2448 H 0.7136 0.92155 0.59677 0.0
H2449 H 0.73557 0.92154 0.60269 0.0
H2450 H 0.74552 0.91099 0.5655 0.0
H2451 H 0.72374 0.91147 0.55952 0.0
C2452 C 0.77709 0.91363 0.58392 0.0
C2453 C 0.78045 0.92598 0.58619 0.0
C2454 C 0.76461 0.91013 0.58418 0.0
C2455 C 0.7554 0.91885 0.58706 0.0
C2456 C 0.75891 0.9309 0.59036 0.0
C2457 C 0.77131 0.93447 0.58977 0.0
C2458 C 0.72049 0.91885 0.59001 0.0
C2459 C 0.71706 0.91653 0.5777 0.0
C2460 C 0.73301 0.91888 0.59337 0.0
C2461 C 0.7422 0.91621 0.58455 0.0
C2462 C 0.73862 0.91292 0.57251 0.0
C2463 C 0.72619 0.91324 0.56908 0.0
H2464 H 0.40552 0.081 0.28348 0.0
H2465 H 0.4435 0.08946 0.27461 0.0
H2466 H 0.40025 0.08176 0.26136 0.0
H2467 H 0.43816 0.09068 0.25268 0.0
H2468 H 0.42299 0.09663 0.21384 0.0
H2469 H 0.4226 0.10216 0.23591 0.0
H2470 H 0.41061 0.06518 0.24492 0.0
H2471 H 0.41148 0.05955 0.22304 0.0
C2472 C 0.41261 0.08349 0.27685 0.0
C2473 C 0.42491 0.08513 0.28068 0.0
C2474 C 0.40961 0.0839 0.26424 0.0
C2475 C 0.4188 0.08633 0.25537 0.0
C2476 C 0.43088 0.08895 0.25934 0.0
C2477 C 0.43394 0.08819 0.27187 0.0
C2478 C 0.41991 0.08984 0.22053 0.0
C2479 C 0.41728 0.07767 0.21682 0.0
C2480 C 0.41972 0.09298 0.23311 0.0
C2481 C 0.41651 0.0841 0.24206 0.0
C2482 C 0.41296 0.07223 0.23819 0.0
C2483 C 0.4135 0.069 0.22571 0.0
H2484 H 0.9409 0.41032 0.22374 0.0
H2485 H 0.9038 0.42232 0.21524 0.0
H2486 H 0.93564 0.40941 0.2457 0.0
H2487 H 0.89864 0.42185 0.23738 0.0
H2488 H 0.91197 0.44298 0.27544 0.0
H2489 H 0.91022 0.43728 0.25365 0.0
H2490 H 0.91975 0.39959 0.26271 0.0
H2491 H 0.92103 0.40525 0.28472 0.0
C2492 C 0.93152 0.41243 0.22657 0.0
C2493 C 0.92275 0.4164 0.21786 0.0
C2494 C 0.92849 0.41185 0.23911 0.0
C2495 C 0.91674 0.41555 0.2432 0.0
C2496 C 0.90774 0.41887 0.23442 0.0
C2497 C 0.91067 0.41912 0.22179 0.0
C2498 C 0.91326 0.43339 0.27282 0.0
C2499 C 0.91663 0.42454 0.28169 0.0
C2500 C 0.9122 0.43012 0.26038 0.0
C2501 C 0.91483 0.418 0.25654 0.0
C2502 C 0.91759 0.40897 0.26549 0.0
C2503 C 0.9183 0.41219 0.27804 0.0
H2504 H 0.55534 0.91198 0.27634 0.0
H2505 H 0.59339 0.91965 0.28559 0.0
H2506 H 0.56096 0.9101 0.25452 0.0
H2507 H 0.59896 0.91825 0.26357 0.0
H2508 H 0.57684 0.90191 0.21631 0.0
H2509 H 0.57678 0.89736 0.23861 0.0
H2510 H 0.58901 0.93458 0.2462 0.0
H2511 H 0.58859 0.93925 0.22408 0.0
C2512 C 0.56496 0.91298 0.27371 0.0
C2513 C 0.57394 0.91596 0.28259 0.0
C2514 C 0.56818 0.91183 0.26125 0.0
C2515 C 0.58038 0.91399 0.25741 0.0
C2516 C 0.5895 0.91645 0.26635 0.0
C2517 C 0.58633 0.91722 0.27891 0.0
C2518 C 0.57988 0.90896 0.22275 0.0
C2519 C 0.5827 0.92092 0.21855 0.0
C2520 C 0.57981 0.90638 0.23546 0.0
C2521 C 0.58295 0.91562 0.24407 0.0
C2522 C 0.58671 0.92727 0.23975 0.0
C2523 C 0.58642 0.92995 0.22712 0.0
H2524 H 0.0888 0.58378 0.21572 0.0
H2525 H 0.04937 0.57999 0.22098 0.0
H2526 H 0.09173 0.58345 0.2383 0.0
H2527 H 0.05228 0.5798 0.24324 0.0
H2528 H 0.06329 0.55825 0.27716 0.0
H2529 H 0.06251 0.56223 0.25515 0.0
H2530 H 0.08569 0.59439 0.25988 0.0
H2531 H 0.08652 0.59039 0.28231 0.0
C2532 C 0.08076 0.5832 0.22168 0.0
C2533 C 0.06888 0.58168 0.2166 0.0
C2534 C 0.08244 0.58302 0.23457 0.0
C2535 C 0.07225 0.58135 0.24247 0.0
C2536 C 0.06033 0.58084 0.23735 0.0
C2537 C 0.05866 0.58097 0.22459 0.0
C2538 C 0.0683 0.56617 0.2736 0.0
C2539 C 0.07486 0.57409 0.28154 0.0
C2540 C 0.06779 0.56847 0.26096 0.0
C2541 C 0.07385 0.57875 0.25585 0.0
C2542 C 0.08089 0.58643 0.26362 0.0
C2543 C 0.08135 0.58415 0.27642 0.0
H2544 H 0.41032 0.94489 0.77453 0.0
H2545 H 0.41966 0.90764 0.78541 0.0
H2546 H 0.40952 0.93844 0.7529 0.0
H2547 H 0.41926 0.90124 0.7636 0.0
H2548 H 0.4417 0.91017 0.72525 0.0
H2549 H 0.43551 0.91017 0.74697 0.0
H2550 H 0.39907 0.92273 0.73662 0.0
H2551 H 0.40518 0.92233 0.71472 0.0
C2552 C 0.41188 0.93525 0.7723 0.0
C2553 C 0.41509 0.92677 0.78159 0.0
C2554 C 0.41135 0.93154 0.75994 0.0
C2555 C 0.41434 0.91935 0.75661 0.0
C2556 C 0.41687 0.91068 0.76597 0.0
C2557 C 0.41706 0.91433 0.77841 0.0
C2558 C 0.43224 0.91252 0.72759 0.0
C2559 C 0.42391 0.91627 0.71836 0.0
C2560 C 0.42868 0.91245 0.74 0.0
C2561 C 0.41682 0.91646 0.74344 0.0
C2562 C 0.40824 0.91955 0.73416 0.0
C2563 C 0.41172 0.91928 0.72167 0.0
H2564 H 0.05951 0.41143 0.77649 0.0
H2565 H 0.09695 0.42282 0.7843 0.0
H2566 H 0.06462 0.40941 0.75458 0.0
H2567 H 0.10198 0.42123 0.76217 0.0
H2568 H 0.08918 0.44062 0.72301 0.0
H2569 H 0.09067 0.43612 0.7451 0.0
H2570 H 0.08033 0.39821 0.73811 0.0
H2571 H 0.07929 0.40264 0.7158 0.0
C2572 C 0.06892 0.41319 0.77353 0.0
C2573 C 0.07784 0.4173 0.78203 0.0
C2574 C 0.07186 0.41197 0.76102 0.0
C2575 C 0.08369 0.41515 0.75672 0.0
C2576 C 0.09282 0.41864 0.76531 0.0
C2577 C 0.08996 0.41953 0.77792 0.0
C2578 C 0.08764 0.43123 0.72616 0.0
C2579 C 0.08412 0.42196 0.71777 0.0
C2580 C 0.08855 0.42864 0.73877 0.0
C2581 C 0.08564 0.41682 0.74327 0.0
C2582 C 0.0827 0.40737 0.73482 0.0
C2583 C 0.08214 0.40989 0.72211 0.0
H2584 H 0.55354 0.07218 0.72008 0.0
H2585 H 0.59187 0.08279 0.71622 0.0
H2586 H 0.55552 0.07276 0.74239 0.0
H2587 H 0.59391 0.08319 0.73893 0.0
H2588 H 0.58503 0.09124 0.78224 0.0
H2589 H 0.58531 0.09361 0.75957 0.0
H2590 H 0.56751 0.05807 0.75579 0.0
H2591 H 0.56711 0.05575 0.77804 0.0
C2592 C 0.5624 0.07471 0.72401 0.0
C2593 C 0.57262 0.07721 0.71639 0.0
C2594 C 0.56354 0.07503 0.73681 0.0
C2595 C 0.57493 0.07776 0.74239 0.0
C2596 C 0.58502 0.08102 0.73484 0.0
C2597 C 0.58387 0.08076 0.72189 0.0
C2598 C 0.5813 0.08392 0.77651 0.0
C2599 C 0.57586 0.0734 0.78194 0.0
C2600 C 0.58149 0.08526 0.76358 0.0
C2601 C 0.57622 0.07613 0.75596 0.0
C2602 C 0.57139 0.06539 0.76143 0.0
C2603 C 0.57119 0.06406 0.77421 0.0
H2604 H 0.91176 0.55703 0.7254 0.0
H2605 H 0.92208 0.59444 0.71604 0.0
H2606 H 0.91043 0.5628 0.74721 0.0
H2607 H 0.92116 0.60013 0.73803 0.0
H2608 H 0.94235 0.58918 0.77671 0.0
H2609 H 0.93693 0.58977 0.75478 0.0
H2610 H 0.89962 0.57874 0.76367 0.0
H2611 H 0.90496 0.57862 0.7858 0.0
C2612 C 0.91343 0.56657 0.728 0.0
C2613 C 0.91706 0.57529 0.71909 0.0
C2614 C 0.9126 0.56988 0.74045 0.0
C2615 C 0.91569 0.5819 0.74427 0.0
C2616 C 0.91866 0.59082 0.73528 0.0
C2617 C 0.91916 0.58758 0.72274 0.0
C2618 C 0.93288 0.5873 0.774 0.0
C2619 C 0.92405 0.58388 0.78287 0.0
C2620 C 0.92977 0.58769 0.76148 0.0
C2621 C 0.91786 0.58432 0.75757 0.0
C2622 C 0.90884 0.58146 0.76649 0.0
C2623 C 0.91187 0.58142 0.77911 0.0
H2624 H 0.22456 0.41118 0.05692 0.0
H2625 H 0.21491 0.42047 0.09452 0.0
H2626 H 0.24643 0.41049 0.06265 0.0
H2627 H 0.23696 0.42028 0.10016 0.0
H2628 H 0.27549 0.44249 0.08844 0.0
H2629 H 0.25357 0.43693 0.08899 0.0
H2630 H 0.26284 0.3993 0.0795 0.0
H2631 H 0.28492 0.40477 0.07946 0.0
C2632 C 0.22713 0.41276 0.06648 0.0
C2633 C 0.21811 0.41586 0.07529 0.0
C2634 C 0.23961 0.41232 0.06977 0.0
C2635 C 0.24333 0.4153 0.08184 0.0
C2636 C 0.23427 0.41784 0.09082 0.0
C2637 C 0.2217 0.41792 0.0876 0.0
C2638 C 0.27287 0.43294 0.0869 0.0
C2639 C 0.28184 0.42405 0.08392 0.0
C2640 C 0.26035 0.42976 0.08726 0.0
C2641 C 0.25657 0.41769 0.08432 0.0
C2642 C 0.26558 0.40863 0.0819 0.0
C2643 C 0.27817 0.41175 0.08191 0.0
H2644 H 0.21764 0.58056 0.90622 0.0
H2645 H 0.22667 0.58926 0.94411 0.0
H2646 H 0.23979 0.58073 0.90097 0.0
H2647 H 0.24865 0.58993 0.93877 0.0
H2648 H 0.27831 0.55849 0.91319 0.0
H2649 H 0.25634 0.56385 0.91249 0.0
H2650 H 0.2652 0.60158 0.922 0.0
H2651 H 0.28734 0.59631 0.9222 0.0
C2652 C 0.22432 0.58296 0.91329 0.0
C2653 C 0.22051 0.58488 0.92556 0.0
C2654 C 0.23694 0.58303 0.9103 0.0
C2655 C 0.24585 0.58542 0.91947 0.0
C2656 C 0.24194 0.58822 0.93152 0.0
C2657 C 0.2294 0.58779 0.93458 0.0
C2658 C 0.27559 0.56802 0.91472 0.0
C2659 C 0.28447 0.577 0.91773 0.0
C2660 C 0.26305 0.57109 0.91427 0.0
C2661 C 0.25914 0.58312 0.91716 0.0
C2662 C 0.26805 0.59226 0.91964 0.0
C2663 C 0.28066 0.58926 0.91972 0.0
H2664 H 0.42265 0.21687 0.90563 0.0
H2665 H 0.41035 0.22573 0.94254 0.0
H2666 H 0.42261 0.23902 0.90038 0.0
H2667 H 0.40983 0.24769 0.93717 0.0
H2668 H 0.40484 0.2864 0.92091 0.0
H2669 H 0.39974 0.26423 0.92019 0.0
H2670 H 0.43798 0.25572 0.91263 0.0
H2671 H 0.44314 0.2777 0.91382 0.0
C2672 C 0.41951 0.22351 0.91245 0.0
C2673 C 0.41653 0.21966 0.92449 0.0
C2674 C 0.41951 0.23613 0.90946 0.0
C2675 C 0.41615 0.245 0.91836 0.0
C2676 C 0.4123 0.24102 0.9301 0.0
C2677 C 0.41265 0.22849 0.93319 0.0
C2678 C 0.41205 0.27979 0.91875 0.0
C2679 C 0.42438 0.28369 0.91746 0.0
C2680 C 0.40915 0.26715 0.91836 0.0
C2681 C 0.41847 0.25833 0.91629 0.0
C2682 C 0.43061 0.26235 0.91408 0.0
C2683 C 0.43357 0.2749 0.91483 0.0
H2684 H 0.78405 0.40447 0.91989 0.0
H2685 H 0.77485 0.4418 0.90923 0.0
H2686 H 0.76201 0.39888 0.91912 0.0
H2687 H 0.753 0.43613 0.90798 0.0
H2688 H 0.71435 0.42102 0.90311 0.0
H2689 H 0.73637 0.41992 0.89745 0.0
H2690 H 0.74548 0.41003 0.93502 0.0
H2691 H 0.72366 0.41162 0.94074 0.0
C2692 C 0.77737 0.41131 0.91688 0.0
C2693 C 0.78106 0.42356 0.91463 0.0
C2694 C 0.76481 0.40813 0.91647 0.0
C2695 C 0.75586 0.41707 0.91343 0.0
C2696 C 0.75973 0.42903 0.91017 0.0
C2697 C 0.7722 0.43229 0.91094 0.0
C2698 C 0.72105 0.41819 0.91001 0.0
C2699 C 0.7174 0.41639 0.92234 0.0
C2700 C 0.7336 0.4176 0.90679 0.0
C2701 C 0.74256 0.41483 0.9158 0.0
C2702 C 0.73873 0.412 0.92788 0.0
C2703 C 0.72628 0.41296 0.93116 0.0
H2704 H 0.55896 0.77558 0.90977 0.0
H2705 H 0.59665 0.7848 0.91903 0.0
H2706 H 0.56456 0.75371 0.90845 0.0
H2707 H 0.60218 0.76273 0.91823 0.0
H2708 H 0.58958 0.72414 0.94017 0.0
H2709 H 0.59078 0.74607 0.93473 0.0
H2710 H 0.58123 0.73725 0.89701 0.0
H2711 H 0.58056 0.71514 0.90237 0.0
C2712 C 0.56852 0.77293 0.91117 0.0
C2713 C 0.5774 0.78181 0.91445 0.0
C2714 C 0.57173 0.76044 0.91037 0.0
C2715 C 0.5838 0.75659 0.9132 0.0
C2716 C 0.59285 0.76553 0.91589 0.0
C2717 C 0.5897 0.77811 0.91632 0.0
C2718 C 0.58823 0.72686 0.93062 0.0
C2719 C 0.58504 0.71802 0.92166 0.0
C2720 C 0.58895 0.73937 0.9275 0.0
C2721 C 0.58614 0.74329 0.91545 0.0
C2722 C 0.58356 0.7344 0.90633 0.0
C2723 C 0.5832 0.7218 0.90938 0.0
H2724 H 0.72537 0.55911 0.09015 0.0
H2725 H 0.71632 0.59688 0.081 0.0
H2726 H 0.74727 0.56453 0.09119 0.0
H2727 H 0.73843 0.60225 0.08159 0.0
H2728 H 0.77662 0.59101 0.05943 0.0
H2729 H 0.75484 0.59221 0.06533 0.0
H2730 H 0.76409 0.57973 0.10209 0.0
H2731 H 0.78605 0.57894 0.09628 0.0
C2732 C 0.72807 0.56865 0.08869 0.0
C2733 C 0.71922 0.57759 0.0855 0.0
C2734 C 0.74058 0.57177 0.08935 0.0
C2735 C 0.74451 0.58381 0.08648 0.0
C2736 C 0.73559 0.59293 0.08392 0.0
C2737 C 0.72299 0.58987 0.08361 0.0
C2738 C 0.77404 0.58895 0.06889 0.0
C2739 C 0.78296 0.58486 0.0774 0.0
C2740 C 0.76161 0.5897 0.07228 0.0
C2741 C 0.75782 0.58606 0.08416 0.0
C2742 C 0.76682 0.58265 0.0929 0.0
C2743 C 0.77935 0.58223 0.08959 0.0
H2744 H 0.44273 0.72672 0.09073 0.0
H2745 H 0.40588 0.71599 0.07977 0.0
H2746 H 0.43651 0.74845 0.09055 0.0
H2747 H 0.39976 0.73788 0.07915 0.0
H2748 H 0.41079 0.77582 0.05639 0.0
H2749 H 0.4105 0.75414 0.06278 0.0
H2750 H 0.41963 0.76498 0.10008 0.0
H2751 H 0.41946 0.78682 0.09376 0.0
C2752 C 0.43321 0.72901 0.0886 0.0
C2753 C 0.42478 0.71972 0.08526 0.0
C2754 C 0.42964 0.74143 0.08855 0.0
C2755 C 0.41767 0.7448 0.08484 0.0
C2756 C 0.40902 0.73548 0.08211 0.0
C2757 C 0.41251 0.72299 0.08251 0.0
C2758 C 0.41231 0.77359 0.06604 0.0
C2759 C 0.41514 0.78295 0.07459 0.0
C2760 C 0.41209 0.76121 0.0697 0.0
C2761 C 0.41503 0.75792 0.08191 0.0
C2762 C 0.41726 0.76731 0.09063 0.0
C2763 C 0.41712 0.77977 0.08703 0.0
H2764 H 0.58893 0.22244 0.06091 0.0
H2765 H 0.57686 0.21431 0.09805 0.0
H2766 H 0.58936 0.24451 0.06581 0.0
H2767 H 0.5768 0.23656 0.10284 0.0
H2768 H 0.55552 0.27444 0.08836 0.0
H2769 H 0.56114 0.25263 0.09026 0.0
H2770 H 0.59917 0.26169 0.08225 0.0
H2771 H 0.5936 0.28371 0.08082 0.0
C2772 C 0.5867 0.22539 0.07022 0.0
C2773 C 0.58289 0.21674 0.07912 0.0
C2774 C 0.58699 0.23799 0.07304 0.0
C2775 C 0.58314 0.24219 0.0847 0.0
C2776 C 0.57991 0.2335 0.09382 0.0
C2777 C 0.57997 0.22082 0.0911 0.0
C2778 C 0.56515 0.27182 0.08741 0.0
C2779 C 0.57413 0.2807 0.08444 0.0
C2780 C 0.56837 0.25936 0.08856 0.0
C2781 C 0.58058 0.25553 0.08643 0.0
C2782 C 0.58971 0.26447 0.08403 0.0
C2783 C 0.58653 0.27702 0.08323 0.0
H2784 H 0.89972 0.78198 0.57238 0.0
H2785 H 0.93756 0.78293 0.58519 0.0
H2786 H 0.89959 0.75942 0.57453 0.0
H2787 H 0.93731 0.76045 0.58754 0.0
H2788 H 0.92836 0.72085 0.59983 0.0
H2789 H 0.92555 0.74329 0.60025 0.0
H2790 H 0.91245 0.7424 0.56256 0.0
H2791 H 0.91546 0.71998 0.56201 0.0
C2792 C 0.90792 0.7774 0.57587 0.0
C2793 C 0.91867 0.78422 0.57858 0.0
C2794 C 0.90785 0.76451 0.57703 0.0
C2795 C 0.91843 0.75823 0.5812 0.0
C2796 C 0.929 0.76508 0.5844 0.0
C2797 C 0.92916 0.77793 0.583 0.0
C2798 C 0.92469 0.7254 0.5917 0.0
C2799 C 0.92219 0.71865 0.58086 0.0
C2800 C 0.92314 0.73824 0.59194 0.0
C2801 C 0.91882 0.74454 0.58144 0.0
C2802 C 0.91572 0.73774 0.57081 0.0
C2803 C 0.9175 0.72493 0.57048 0.0
H2804 H 0.21948 0.93149 0.59088 0.0
H2805 H 0.21957 0.89441 0.57593 0.0
H2806 H 0.24172 0.93018 0.5943 0.0
H2807 H 0.24191 0.89316 0.57932 0.0
H2808 H 0.28133 0.92273 0.60419 0.0
H2809 H 0.25905 0.91903 0.60564 0.0
H2810 H 0.25895 0.90502 0.56825 0.0
H2811 H 0.28112 0.90875 0.56674 0.0
C2812 C 0.22421 0.92296 0.58855 0.0
C2813 C 0.21779 0.9131 0.58302 0.0
C2814 C 0.23694 0.92218 0.59059 0.0
C2815 C 0.24355 0.91159 0.58701 0.0
C2816 C 0.23704 0.90146 0.5821 0.0
C2817 C 0.22425 0.90217 0.58022 0.0
C2818 C 0.2766 0.91859 0.59638 0.0
C2819 C 0.28296 0.91615 0.5853 0.0
C2820 C 0.26385 0.91653 0.59721 0.0
C2821 C 0.25727 0.9118 0.58704 0.0
C2822 C 0.26379 0.90858 0.57627 0.0
C2823 C 0.27648 0.9108 0.57538 0.0
H2824 H 0.06329 0.21719 0.58968 0.0
H2825 H 0.10265 0.21632 0.58277 0.0
H2826 H 0.06432 0.23955 0.59261 0.0
H2827 H 0.10361 0.23873 0.58561 0.0
H2828 H 0.09178 0.27797 0.56942 0.0
H2829 H 0.09442 0.2557 0.57187 0.0
H2830 H 0.07369 0.25691 0.60597 0.0
H2831 H 0.07114 0.2793 0.60361 0.0
C2832 C 0.07219 0.22174 0.58899 0.0
C2833 C 0.08286 0.21499 0.58588 0.0
C2834 C 0.07279 0.23453 0.59075 0.0
C2835 C 0.08404 0.24087 0.58929 0.0
C2836 C 0.09481 0.23407 0.58673 0.0
C2837 C 0.09425 0.22124 0.58514 0.0
C2838 C 0.08803 0.27354 0.5776 0.0
C2839 C 0.08119 0.28037 0.58629 0.0
C2840 C 0.08959 0.2608 0.57902 0.0
C2841 C 0.08419 0.25458 0.58907 0.0
C2842 C 0.07788 0.26149 0.5981 0.0
C2843 C 0.0765 0.2743 0.59679 0.0
H2844 H 0.78285 0.05899 0.57038 0.0
H2845 H 0.78435 0.09604 0.58541 0.0
H2846 H 0.76043 0.05922 0.57206 0.0
H2847 H 0.76171 0.09611 0.5872 0.0
H2848 H 0.72076 0.08137 0.59839 0.0
H2849 H 0.74343 0.08302 0.59867 0.0
H2850 H 0.74458 0.0732 0.56001 0.0
H2851 H 0.72218 0.07171 0.55959 0.0
C2852 C 0.77843 0.06713 0.5742 0.0
C2853 C 0.78542 0.07755 0.57766 0.0
C2854 C 0.76557 0.06726 0.57511 0.0
C2855 C 0.75938 0.07773 0.57964 0.0
C2856 C 0.76631 0.08794 0.58368 0.0
C2857 C 0.77924 0.08789 0.58261 0.0
C2858 C 0.72585 0.07975 0.58992 0.0
C2859 C 0.71964 0.07631 0.57899 0.0
C2860 C 0.73879 0.0807 0.59009 0.0
C2861 C 0.7457 0.07806 0.5794 0.0
C2862 C 0.73946 0.07511 0.56841 0.0
C2863 C 0.72661 0.07432 0.56819 0.0
H2864 H 0.93087 0.22441 0.40889 0.0
H2865 H 0.89572 0.22212 0.42775 0.0
H2866 H 0.92764 0.24645 0.40549 0.0
H2867 H 0.89254 0.24429 0.4244 0.0
H2868 H 0.91684 0.28541 0.39662 0.0
H2869 H 0.91421 0.26297 0.39547 0.0
H2870 H 0.90446 0.26213 0.43418 0.0
H2871 H 0.90714 0.28448 0.43538 0.0
C2872 C 0.92233 0.22857 0.41207 0.0
C2873 C 0.91361 0.22156 0.41869 0.0
C2874 C 0.92044 0.24118 0.41005 0.0
C2875 C 0.90987 0.2471 0.41475 0.0
C2876 C 0.9008 0.23996 0.42075 0.0
C2877 C 0.9026 0.22727 0.4226 0.0
C2878 C 0.91384 0.28048 0.40481 0.0
C2879 C 0.91233 0.2867 0.41613 0.0
C2880 C 0.91239 0.26763 0.40415 0.0
C2881 C 0.90919 0.26081 0.41474 0.0
C2882 C 0.90682 0.26715 0.42584 0.0
C2883 C 0.90845 0.27995 0.42654 0.0
H2884 H 0.71909 0.91045 0.4328 0.0
H2885 H 0.71893 0.92328 0.39495 0.0
H2886 H 0.74145 0.9077 0.43178 0.0
H2887 H 0.74139 0.92062 0.394 0.0
H2888 H 0.78134 0.89855 0.42495 0.0
H2889 H 0.75917 0.8962 0.42109 0.0
H2890 H 0.75798 0.93298 0.40559 0.0
H2891 H 0.78006 0.93539 0.40952 0.0
C2892 C 0.7238 0.91245 0.42418 0.0
C2893 C 0.71727 0.91718 0.41399 0.0
C2894 C 0.7366 0.9108 0.42358 0.0
C2895 C 0.74315 0.914 0.41283 0.0
C2896 C 0.73656 0.91813 0.40242 0.0
C2897 C 0.72371 0.9196 0.40295 0.0
C2898 C 0.77641 0.90601 0.42044 0.0
C2899 C 0.78242 0.91721 0.41765 0.0
C2900 C 0.76372 0.90468 0.41829 0.0
C2901 C 0.75686 0.91443 0.41311 0.0
C2902 C 0.76305 0.92527 0.40951 0.0
C2903 C 0.77568 0.92668 0.41183 0.0
H2904 H 0.06653 0.78116 0.40615 0.0
H2905 H 0.1037 0.78258 0.42077 0.0
H2906 H 0.06862 0.75899 0.40292 0.0
H2907 H 0.10579 0.76031 0.41748 0.0
H2908 H 0.07592 0.71913 0.39532 0.0
H2909 H 0.07934 0.74133 0.39252 0.0
H2910 H 0.09516 0.74346 0.42914 0.0
H2911 H 0.09179 0.7214 0.43193 0.0
C2912 C 0.07527 0.77679 0.40838 0.0
C2913 C 0.08488 0.7836 0.41389 0.0
C2914 C 0.0765 0.76408 0.40645 0.0
C2915 C 0.08733 0.75788 0.41007 0.0
C2916 C 0.09729 0.76483 0.41472 0.0
C2917 C 0.09611 0.77759 0.41654 0.0
C2918 C 0.0804 0.72429 0.40264 0.0
C2919 C 0.08344 0.71854 0.41391 0.0
C2920 C 0.08231 0.737 0.40106 0.0
C2921 C 0.08745 0.74415 0.41063 0.0
C2922 C 0.09129 0.73821 0.42153 0.0
C2923 C 0.08926 0.72556 0.42317 0.0
H2924 H 0.21898 0.06605 0.41244 0.0
H2925 H 0.21892 0.10375 0.42575 0.0
H2926 H 0.24125 0.06727 0.4091 0.0
H2927 H 0.24128 0.10489 0.42249 0.0
H2928 H 0.2808 0.07532 0.39835 0.0
H2929 H 0.25843 0.0785 0.39706 0.0
H2930 H 0.25838 0.09319 0.43419 0.0
H2931 H 0.28065 0.08992 0.43556 0.0
C2932 C 0.22368 0.07467 0.41443 0.0
C2933 C 0.21721 0.08477 0.41945 0.0
C2934 C 0.23643 0.07539 0.41245 0.0
C2935 C 0.24298 0.08616 0.4156 0.0
C2936 C 0.23644 0.09646 0.42005 0.0
C2937 C 0.22364 0.09582 0.42185 0.0
C2938 C 0.27606 0.07948 0.40614 0.0
C2939 C 0.28247 0.08228 0.4171 0.0
C2940 C 0.26326 0.08124 0.4054 0.0
C2941 C 0.25669 0.08605 0.41553 0.0
C2942 C 0.26322 0.08957 0.4262 0.0
C2943 C 0.27596 0.08762 0.42701 0.0
H2944 H 0.6038 0.9232 0.7172 0.0
H2945 H 0.56585 0.91067 0.71763 0.0
H2946 H 0.60493 0.92044 0.73964 0.0
H2947 H 0.56703 0.90784 0.73997 0.0
H2948 H 0.59013 0.93499 0.77858 0.0
H2949 H 0.59371 0.93274 0.75644 0.0
H2950 H 0.57772 0.89616 0.7575 0.0
H2951 H 0.57419 0.89835 0.77974 0.0
C2952 C 0.59581 0.91958 0.72203 0.0
C2953 C 0.5847 0.91726 0.71567 0.0
C2954 C 0.59644 0.91805 0.73487 0.0
C2955 C 0.58606 0.91398 0.74153 0.0
C2956 C 0.57522 0.9109 0.73506 0.0
C2957 C 0.57452 0.9126 0.72228 0.0
C2958 C 0.58762 0.92636 0.77416 0.0
C2959 C 0.58177 0.9169 0.78089 0.0
C2960 C 0.58975 0.92504 0.76148 0.0
C2961 C 0.58592 0.9143 0.75525 0.0
C2962 C 0.58069 0.90456 0.76208 0.0
C2963 C 0.57873 0.90581 0.77481 0.0
H2964 H 0.09381 0.56631 0.7194 0.0
H2965 H 0.07968 0.60364 0.71734 0.0
H2966 H 0.09779 0.569 0.74138 0.0
H2967 H 0.08373 0.60634 0.73943 0.0
H2968 H 0.10697 0.57707 0.78054 0.0
H2969 H 0.10908 0.58016 0.75822 0.0
H2970 H 0.07259 0.59635 0.75705 0.0
H2971 H 0.07048 0.59332 0.77923 0.0
C2972 C 0.09182 0.5752 0.72358 0.0
C2973 C 0.08626 0.5847 0.71667 0.0
C2974 C 0.0942 0.57678 0.73617 0.0
C2975 C 0.09098 0.58786 0.74215 0.0
C2976 C 0.0862 0.59766 0.73507 0.0
C2977 C 0.08394 0.59613 0.72242 0.0
C2978 C 0.09954 0.58159 0.77556 0.0
C2979 C 0.08848 0.58479 0.78161 0.0
C2980 C 0.10073 0.5833 0.76278 0.0
C2981 C 0.09096 0.5884 0.75587 0.0
C2982 C 0.08032 0.59249 0.76211 0.0
C2983 C 0.07908 0.59066 0.77482 0.0
H2984 H 0.39937 0.07086 0.71993 0.0
H2985 H 0.43409 0.09063 0.72054 0.0
H2986 H 0.39748 0.07358 0.74234 0.0
H2987 H 0.43211 0.09345 0.74283 0.0
H2988 H 0.42163 0.10243 0.7823 0.0
H2989 H 0.41864 0.10318 0.7599 0.0
H2990 H 0.41107 0.06398 0.75956 0.0
H2991 H 0.41416 0.06315 0.78191 0.0
C2992 C 0.40642 0.07607 0.72478 0.0
C2993 C 0.41692 0.08046 0.7185 0.0
C2994 C 0.40537 0.07755 0.7376 0.0
C2995 C 0.41468 0.08367 0.7443 0.0
C2996 C 0.42475 0.08877 0.73789 0.0
C2997 C 0.42591 0.08711 0.72513 0.0
C2998 C 0.4191 0.09401 0.77749 0.0
C2999 C 0.41824 0.0827 0.78386 0.0
C3000 C 0.41743 0.09445 0.76467 0.0
C3001 C 0.41465 0.08365 0.75801 0.0
C3002 C 0.41309 0.07248 0.76447 0.0
C3003 C 0.41495 0.07199 0.77726 0.0
H3004 H 0.91512 0.40629 0.71768 0.0
H3005 H 0.92946 0.4436 0.71946 0.0
H3006 H 0.9132 0.40607 0.74031 0.0
H3007 H 0.92769 0.44321 0.74188 0.0
H3008 H 0.94106 0.42978 0.77977 0.0
H3009 H 0.94029 0.42864 0.75734 0.0
H3010 H 0.90152 0.41938 0.75889 0.0
H3011 H 0.90213 0.4207 0.78158 0.0
C3012 C 0.91771 0.41448 0.72285 0.0
C3013 C 0.92255 0.42493 0.71675 0.0
C3014 C 0.91657 0.41434 0.73577 0.0
C3015 C 0.92043 0.42457 0.74277 0.0
C3016 C 0.92477 0.43516 0.73666 0.0
C3017 C 0.92574 0.43538 0.72381 0.0
C3018 C 0.93236 0.42737 0.77542 0.0
C3019 C 0.92162 0.42543 0.7825 0.0
C3020 C 0.93193 0.42678 0.76255 0.0
C3021 C 0.92082 0.42407 0.75644 0.0
C3022 C 0.91019 0.42151 0.76344 0.0
C3023 C 0.91055 0.42228 0.77639 0.0
H3024 H 0.58179 0.09703 0.21871 0.0
H3025 H 0.57283 0.05808 0.22068 0.0
H3026 H 0.58274 0.09782 0.24141 0.0
H3027 H 0.57359 0.05902 0.2431 0.0
H3028 H 0.55759 0.07033 0.28046 0.0
H3029 H 0.55852 0.07196 0.25803 0.0
H3030 H 0.59575 0.0861 0.26037 0.0
H3031 H 0.59499 0.08433 0.28299 0.0
C3032 C 0.58018 0.08864 0.22393 0.0
C3033 C 0.57714 0.07752 0.21787 0.0
C3034 C 0.58073 0.0891 0.23688 0.0
C3035 C 0.57806 0.07852 0.24392 0.0
C3036 C 0.57552 0.06734 0.23785 0.0
C3037 C 0.57515 0.06682 0.22499 0.0
C3038 C 0.56595 0.07395 0.27627 0.0
C3039 C 0.57627 0.07708 0.28353 0.0
C3040 C 0.56647 0.07483 0.26342 0.0
C3041 C 0.57724 0.07903 0.25754 0.0
C3042 C 0.58735 0.08284 0.26475 0.0
C3043 C 0.5869 0.08179 0.27766 0.0
H3044 H 0.9038 0.58556 0.21689 0.0
H3045 H 0.94329 0.57956 0.21934 0.0
H3046 H 0.90298 0.5885 0.2394 0.0
H3047 H 0.9423 0.58229 0.24166 0.0
H3048 H 0.92937 0.56554 0.27916 0.0
H3049 H 0.92835 0.56621 0.25673 0.0
H3050 H 0.91552 0.60394 0.25818 0.0
H3051 H 0.91676 0.60347 0.28092 0.0
C3052 C 0.91231 0.58509 0.22216 0.0
C3053 C 0.92359 0.58219 0.21631 0.0
C3054 C 0.91182 0.58681 0.23501 0.0
C3055 C 0.92256 0.58552 0.24217 0.0
C3056 C 0.93389 0.58327 0.23628 0.0
C3057 C 0.93443 0.58172 0.2235 0.0
C3058 C 0.9262 0.57398 0.2748 0.0
C3059 C 0.92323 0.58449 0.28187 0.0
C3060 C 0.92566 0.57435 0.26194 0.0
C3061 C 0.92196 0.58515 0.25581 0.0
C3062 C 0.91841 0.59552 0.26277 0.0
C3063 C 0.91913 0.59523 0.27574 0.0
H3064 H 0.42768 0.89705 0.21989 0.0
H3065 H 0.41072 0.93323 0.2194 0.0
H3066 H 0.42511 0.89621 0.24239 0.0
H3067 H 0.40801 0.93228 0.24178 0.0
H3068 H 0.39839 0.92363 0.28158 0.0
H3069 H 0.39728 0.91986 0.25931 0.0
H3070 H 0.43593 0.9099 0.25905 0.0
H3071 H 0.43713 0.91381 0.28127 0.0
C3072 C 0.42312 0.90467 0.22454 0.0
C3073 C 0.41946 0.91525 0.21791 0.0
C3074 C 0.42172 0.9042 0.2374 0.0
C3075 C 0.41641 0.91419 0.2438 0.0
C3076 C 0.41205 0.92441 0.23707 0.0
C3077 C 0.41365 0.92498 0.22427 0.0
C3078 C 0.40659 0.92041 0.27683 0.0
C3079 C 0.41788 0.91912 0.28317 0.0
C3080 C 0.40595 0.9183 0.26408 0.0
C3081 C 0.41652 0.91463 0.25749 0.0
C3082 C 0.42762 0.91262 0.26394 0.0
C3083 C 0.42832 0.91494 0.27664 0.0
H3084 H 0.07698 0.39667 0.28115 0.0
H3085 H 0.08891 0.43482 0.28066 0.0
H3086 H 0.08041 0.39536 0.25883 0.0
H3087 H 0.09237 0.43346 0.25844 0.0
H3088 H 0.0664 0.40921 0.21952 0.0
H3089 H 0.06835 0.40597 0.24173 0.0
H3090 H 0.10445 0.42305 0.24114 0.0
H3091 H 0.10255 0.42626 0.21881 0.0
C3092 C 0.08061 0.40468 0.27635 0.0
C3093 C 0.08254 0.41589 0.28265 0.0
C3094 C 0.08252 0.40393 0.26357 0.0
C3095 C 0.08659 0.41432 0.25689 0.0
C3096 C 0.08933 0.42526 0.26334 0.0
C3097 C 0.08727 0.42607 0.27607 0.0
C3098 C 0.07488 0.41204 0.22407 0.0
C3099 C 0.08427 0.4181 0.21743 0.0
C3100 C 0.07602 0.41011 0.23679 0.0
C3101 C 0.08653 0.41432 0.24317 0.0
C3102 C 0.09622 0.41978 0.23644 0.0
C3103 C 0.09515 0.42156 0.22366 0.0
H3104 H 0.72507 0.56279 0.92654 0.0
H3105 H 0.72086 0.60179 0.91858 0.0
H3106 H 0.74734 0.56471 0.92414 0.0
H3107 H 0.74338 0.60354 0.91598 0.0
H3108 H 0.78524 0.58932 0.901 0.0
H3109 H 0.76253 0.59062 0.90097 0.0
H3110 H 0.7619 0.58024 0.93947 0.0
H3111 H 0.78435 0.57913 0.93969 0.0
C3112 C 0.72884 0.57174 0.92407 0.0
C3113 C 0.72116 0.58217 0.92288 0.0
C3114 C 0.7416 0.57281 0.92271 0.0
C3115 C 0.74699 0.58428 0.91997 0.0
C3116 C 0.73937 0.59461 0.91808 0.0
C3117 C 0.72652 0.59359 0.9196 0.0
C3118 C 0.78026 0.58756 0.90952 0.0
C3119 C 0.78662 0.58399 0.92031 0.0
C3120 C 0.76731 0.58833 0.90948 0.0
C3121 C 0.76058 0.5854 0.92019 0.0
C3122 C 0.76694 0.58244 0.93109 0.0
C3123 C 0.7798 0.58183 0.93118 0.0
H3124 H 0.77935 0.40706 0.06776 0.0
H3125 H 0.78178 0.42454 0.10362 0.0
H3126 H 0.75734 0.40349 0.07097 0.0
H3127 H 0.75965 0.421 0.10679 0.0
H3128 H 0.71828 0.39467 0.08127 0.0
H3129 H 0.7407 0.39313 0.08392 0.0
H3130 H 0.74196 0.43139 0.09531 0.0
H3131 H 0.71965 0.43297 0.09263 0.0
C3132 C 0.77524 0.40987 0.07645 0.0
C3133 C 0.78227 0.4162 0.08537 0.0
C3134 C 0.76264 0.40776 0.07832 0.0
C3135 C 0.75677 0.41205 0.08909 0.0
C3136 C 0.76394 0.41767 0.09837 0.0
C3137 C 0.77661 0.41963 0.09657 0.0
C3138 C 0.7233 0.40266 0.08463 0.0
C3139 C 0.71722 0.41399 0.0866 0.0
C3140 C 0.73613 0.40178 0.0861 0.0
C3141 C 0.74307 0.41215 0.08976 0.0
C3142 C 0.73685 0.42321 0.09258 0.0
C3143 C 0.72408 0.42414 0.09095 0.0
H3144 H 0.59513 0.71534 0.08889 0.0
H3145 H 0.55864 0.71686 0.07256 0.0
H3146 H 0.59547 0.73802 0.09 0.0
H3147 H 0.55914 0.73932 0.07355 0.0
H3148 H 0.57289 0.77669 0.05985 0.0
H3149 H 0.57429 0.75432 0.06126 0.0
H3150 H 0.58179 0.75701 0.10035 0.0
H3151 H 0.58022 0.77964 0.09908 0.0
C3152 C 0.58715 0.72046 0.08569 0.0
C3153 C 0.57691 0.71427 0.08054 0.0
C3154 C 0.58735 0.73342 0.08636 0.0
C3155 C 0.5774 0.74035 0.08172 0.0
C3156 C 0.56699 0.73416 0.07705 0.0
C3157 C 0.56671 0.72128 0.07654 0.0
C3158 C 0.57498 0.77261 0.06876 0.0
C3159 C 0.57631 0.77999 0.07939 0.0
C3160 C 0.57573 0.75977 0.06955 0.0
C3161 C 0.57797 0.75399 0.08093 0.0
C3162 C 0.58002 0.7613 0.09147 0.0
C3163 C 0.57911 0.77422 0.09073 0.0
H3164 H 0.28345 0.59463 0.08357 0.0
H3165 H 0.28219 0.55714 0.06964 0.0
H3166 H 0.2608 0.59489 0.08462 0.0
H3167 H 0.25973 0.55752 0.07064 0.0
H3168 H 0.22147 0.56893 0.05757 0.0
H3169 H 0.24392 0.57012 0.05815 0.0
H3170 H 0.24242 0.58335 0.09578 0.0
H3171 H 0.21979 0.58209 0.09531 0.0
C3172 C 0.27838 0.58642 0.08087 0.0
C3173 C 0.28464 0.5759 0.07643 0.0
C3174 C 0.26544 0.58658 0.08149 0.0
C3175 C 0.25856 0.57629 0.07755 0.0
C3176 C 0.26483 0.56565 0.07355 0.0
C3177 C 0.27771 0.56542 0.07306 0.0
C3178 C 0.22586 0.57222 0.06595 0.0
C3179 C 0.21881 0.57532 0.07643 0.0
C3180 C 0.23873 0.57283 0.06629 0.0
C3181 C 0.24488 0.57667 0.07706 0.0
C3182 C 0.23788 0.58034 0.08737 0.0
C3183 C 0.22495 0.5796 0.08709 0.0
H3184 H 0.42735 0.21926 0.06079 0.0
H3185 H 0.41844 0.2179 0.09978 0.0
H3186 H 0.426 0.24166 0.06123 0.0
H3187 H 0.41689 0.24059 0.10006 0.0
H3188 H 0.40342 0.2815 0.08561 0.0
H3189 H 0.40332 0.25891 0.08789 0.0
H3190 H 0.44059 0.25734 0.07377 0.0
H3191 H 0.44086 0.27974 0.07162 0.0
C3192 C 0.42494 0.2237 0.06944 0.0
C3193 C 0.42312 0.21675 0.08029 0.0
C3194 C 0.42421 0.23655 0.06967 0.0
C3195 C 0.42149 0.2428 0.0807 0.0
C3196 C 0.41903 0.23593 0.09145 0.0
C3197 C 0.41993 0.22298 0.09128 0.0
C3198 C 0.41165 0.27634 0.08316 0.0
C3199 C 0.42211 0.28242 0.07833 0.0
C3200 C 0.41159 0.26345 0.08452 0.0
C3201 C 0.4219 0.25646 0.08089 0.0
C3202 C 0.43249 0.26256 0.07652 0.0
C3203 C 0.43263 0.27539 0.07533 0.0
H3204 H 0.22023 0.4324 0.94273 0.0
H3205 H 0.21903 0.41997 0.90473 0.0
H3206 H 0.2427 0.4315 0.94232 0.0
H3207 H 0.24168 0.41902 0.90442 0.0
H3208 H 0.28267 0.40792 0.91664 0.0
H3209 H 0.26005 0.40753 0.91531 0.0
H3210 H 0.25855 0.44445 0.93042 0.0
H3211 H 0.281 0.44494 0.93172 0.0
C3212 C 0.22473 0.42933 0.93432 0.0
C3213 C 0.21781 0.42635 0.92373 0.0
C3214 C 0.23762 0.4289 0.93408 0.0
C3215 C 0.2439 0.42537 0.92328 0.0
C3216 C 0.23703 0.4218 0.91285 0.0
C3217 C 0.22409 0.42236 0.91304 0.0
C3218 C 0.27752 0.41602 0.91952 0.0
C3219 C 0.28365 0.42643 0.92438 0.0
C3220 C 0.26459 0.41578 0.91874 0.0
C3221 C 0.25758 0.42589 0.92293 0.0
C3222 C 0.26373 0.43645 0.92732 0.0
C3223 C 0.27661 0.43675 0.92798 0.0
H3224 H 0.55692 0.28124 0.92691 0.0
H3225 H 0.59443 0.28419 0.91331 0.0
H3226 H 0.55788 0.25884 0.92462 0.0
H3227 H 0.5952 0.26162 0.91086 0.0
H3228 H 0.57677 0.21939 0.89998 0.0
H3229 H 0.57794 0.24207 0.89845 0.0
H3230 H 0.57731 0.2448 0.93822 0.0
H3231 H 0.5764 0.22241 0.9399 0.0
C3232 C 0.56528 0.27717 0.92318 0.0
C3233 C 0.57565 0.28452 0.92042 0.0
C3234 C 0.5658 0.26435 0.92188 0.0
C3235 C 0.57661 0.25862 0.9176 0.0
C3236 C 0.58675 0.26591 0.91412 0.0
C3237 C 0.5863 0.27879 0.91556 0.0
C3238 C 0.57714 0.22482 0.90839 0.0
C3239 C 0.57638 0.21907 0.92006 0.0
C3240 C 0.5778 0.23775 0.90749 0.0
C3241 C 0.5776 0.24504 0.91823 0.0
C3242 C 0.57741 0.23931 0.92983 0.0
C3243 C 0.5769 0.22647 0.93075 0.0
H3244 H 0.42676 0.78352 0.93908 0.0
H3245 H 0.40916 0.78557 0.9032 0.0
H3246 H 0.42553 0.76106 0.93837 0.0
H3247 H 0.40777 0.76288 0.90271 0.0
H3248 H 0.39956 0.72089 0.92134 0.0
H3249 H 0.39773 0.74347 0.91939 0.0
H3250 H 0.43747 0.74673 0.91994 0.0
H3251 H 0.43942 0.72441 0.92163 0.0
C3252 C 0.42243 0.77922 0.93113 0.0
C3253 C 0.41817 0.78637 0.92113 0.0
C3254 C 0.42175 0.76636 0.93075 0.0
C3255 C 0.41664 0.76034 0.92046 0.0
C3256 C 0.41174 0.76739 0.91074 0.0
C3257 C 0.41257 0.78033 0.91103 0.0
C3258 C 0.4079 0.7264 0.92077 0.0
C3259 C 0.41963 0.72083 0.92179 0.0
C3260 C 0.40683 0.73929 0.91965 0.0
C3261 C 0.41747 0.74673 0.91967 0.0
C3262 C 0.42915 0.74114 0.92001 0.0
C3263 C 0.43023 0.72834 0.92097 0.0
H3264 H 0.03275 0.15996 0.4144 0.0
H3265 H 0.0338 0.19579 0.4321 0.0
H3266 H 0.01044 0.1622 0.41132 0.0
H3267 H 0.01171 0.1978 0.42952 0.0
H3268 H 0.97359 0.20401 0.41801 0.0
H3269 H 0.99575 0.20116 0.41546 0.0
H3270 H 0.99148 0.16203 0.42268 0.0
H3271 H 0.96909 0.1649 0.42448 0.0
C3272 C 0.02825 0.16832 0.41759 0.0
C3273 C 0.03508 0.1777 0.42349 0.0
C3274 C 0.01545 0.16958 0.41588 0.0
C3275 C 0.00922 0.18021 0.4201 0.0
C3276 C 0.01615 0.18961 0.42585 0.0
C3277 C 0.02888 0.18841 0.42744 0.0
C3278 C 0.97738 0.19476 0.41879 0.0
C3279 C 0.96969 0.18469 0.42156 0.0
C3280 C 0.9901 0.19312 0.41744 0.0
C3281 C 0.9955 0.18142 0.4192 0.0
C3282 C 0.98768 0.17118 0.42122 0.0
C3283 C 0.97485 0.1728 0.42229 0.0
H3284 H 0.85397 0.02928 0.42226 0.0
H3285 H 0.8182 0.03481 0.40539 0.0
H3286 H 0.85096 0.00688 0.42125 0.0
H3287 H 0.81536 0.01251 0.40401 0.0
H3288 H 0.80562 0.97775 0.42628 0.0
H3289 H 0.81092 0.99887 0.42115 0.0
H3290 H 0.84741 0.98715 0.40982 0.0
H3291 H 0.84207 0.96571 0.41517 0.0
C3292 C 0.84568 0.02571 0.41791 0.0
C3293 C 0.83622 0.03378 0.41411 0.0
C3294 C 0.84395 0.01287 0.41733 0.0
C3295 C 0.83278 0.00793 0.41283 0.0
C3296 C 0.82393 0.01604 0.40784 0.0
C3297 C 0.82558 0.02881 0.40856 0.0
C3298 C 0.81476 0.9796 0.4226 0.0
C3299 C 0.82344 0.97004 0.42118 0.0
C3300 C 0.81776 0.99173 0.41953 0.0
C3301 C 0.82956 0.99471 0.41496 0.0
C3302 C 0.83825 0.98515 0.41334 0.0
C3303 C 0.83518 0.97289 0.41635 0.0
H3304 H 0.97063 0.85273 0.41332 0.0
H3305 H 0.96869 0.81313 0.41849 0.0
H3306 H 0.99296 0.85112 0.41 0.0
H3307 H 0.99073 0.81159 0.41579 0.0
H3308 H 0.02954 0.80825 0.40712 0.0
H3309 H 0.0078 0.8124 0.40301 0.0
H3310 H 0.01109 0.84756 0.42186 0.0
H3311 H 0.03314 0.84364 0.4251 0.0
C3312 C 0.97492 0.84368 0.4136 0.0
C3313 C 0.96785 0.83308 0.41626 0.0
C3314 C 0.98774 0.84276 0.4118 0.0
C3315 C 0.99375 0.83123 0.41265 0.0
C3316 C 0.98652 0.82062 0.41479 0.0
C3317 C 0.97379 0.82152 0.41648 0.0
C3318 C 0.02564 0.81701 0.41004 0.0
C3319 C 0.0329 0.8256 0.41647 0.0
C3320 C 0.01316 0.81936 0.40782 0.0
C3321 C 0.00752 0.83017 0.41241 0.0
C3322 C 0.01506 0.83916 0.41812 0.0
C3323 C 0.02769 0.83693 0.42003 0.0
H3324 H 0.18735 0.9688 0.40644 0.0
H3325 H 0.15015 0.97193 0.4207 0.0
H3326 H 0.18881 0.99124 0.4053 0.0
H3327 H 0.15175 0.99447 0.41983 0.0
H3328 H 0.15858 0.03623 0.41386 0.0
H3329 H 0.15503 0.01447 0.40822 0.0
H3330 H 0.19082 0.00493 0.4232 0.0
H3331 H 0.19435 0.02633 0.42869 0.0
C3332 C 0.17937 0.97428 0.40907 0.0
C3333 C 0.16872 0.9686 0.41388 0.0
C3334 C 0.18023 0.98714 0.40846 0.0
C3335 C 0.17051 0.99463 0.41277 0.0
C3336 C 0.1594 0.98896 0.41645 0.0
C3337 C 0.1585 0.97603 0.41696 0.0
C3338 C 0.1657 0.02946 0.41581 0.0
C3339 C 0.17672 0.03298 0.42176 0.0
C3340 C 0.16366 0.01703 0.41261 0.0
C3341 C 0.17269 0.008 0.41515 0.0
C3342 C 0.18377 0.01166 0.42086 0.0
C3343 C 0.18574 0.02395 0.42414 0.0
H3344 H 0.97216 0.83378 0.5602 0.0
H3345 H 0.96405 0.82909 0.59899 0.0
H3346 H 0.9938 0.83782 0.56512 0.0
H3347 H 0.98603 0.83271 0.60394 0.0
H3348 H 0.02788 0.81588 0.59521 0.0
H3349 H 0.00542 0.81815 0.59641 0.0
H3350 H 0.00799 0.85353 0.57816 0.0
H3351 H 0.03047 0.85144 0.57714 0.0
C3352 C 0.97501 0.83383 0.56981 0.0
C3353 C 0.96651 0.83115 0.57923 0.0
C3354 C 0.98736 0.83621 0.57263 0.0
C3355 C 0.99154 0.83563 0.58491 0.0
C3356 C 0.98298 0.83329 0.59442 0.0
C3357 C 0.97046 0.83125 0.5916 0.0
C3358 C 0.0237 0.82434 0.59184 0.0
C3359 C 0.03093 0.8334 0.58593 0.0
C3360 C 0.01086 0.82566 0.59259 0.0
C3361 C 0.00501 0.83597 0.58729 0.0
C3362 C 0.0123 0.84549 0.5823 0.0
C3363 C 0.02517 0.84429 0.58174 0.0
H3364 H 0.15258 0.0274 0.58111 0.0
H3365 H 0.18988 0.03062 0.59509 0.0
H3366 H 0.15413 0.00488 0.58223 0.0
H3367 H 0.19129 0.0082 0.59652 0.0
H3368 H 0.19653 0.97236 0.57431 0.0
H3369 H 0.19327 0.99392 0.57932 0.0
H3370 H 0.15715 0.98522 0.59403 0.0
H3371 H 0.16041 0.96333 0.58883 0.0
C3372 C 0.16095 0.02332 0.58481 0.0
C3373 C 0.1712 0.03077 0.58777 0.0
C3374 C 0.16183 0.01041 0.58548 0.0
C3375 C 0.17294 0.00475 0.5892 0.0
C3376 C 0.18272 0.01227 0.59331 0.0
C3377 C 0.18189 0.02513 0.59254 0.0
C3378 C 0.18791 0.97497 0.57871 0.0
C3379 C 0.1787 0.96613 0.58112 0.0
C3380 C 0.18609 0.98735 0.58171 0.0
C3381 C 0.17499 0.9913 0.58718 0.0
C3382 C 0.1658 0.98246 0.58981 0.0
C3383 C 0.16767 0.96994 0.58687 0.0
H3384 H 0.02898 0.16739 0.56287 0.0
H3385 H 0.03686 0.1689 0.60196 0.0
H3386 H 0.00736 0.16272 0.56732 0.0
H3387 H 0.0149 0.16467 0.60647 0.0
H3388 H 0.9727 0.18165 0.59837 0.0
H3389 H 0.99521 0.17979 0.59959 0.0
H3390 H 0.99352 0.14545 0.57936 0.0
H3391 H 0.971 0.14709 0.57835 0.0
C3392 C 0.02608 0.16652 0.57242 0.0
C3393 C 0.03452 0.16848 0.58208 0.0
C3394 C 0.01375 0.16378 0.57497 0.0
C3395 C 0.00952 0.16328 0.58723 0.0
C3396 C 0.018 0.16493 0.59695 0.0
C3397 C 0.03051 0.16731 0.59438 0.0
C3398 C 0.97709 0.17348 0.59456 0.0
C3399 C 0.97009 0.16459 0.58813 0.0
C3400 C 0.98996 0.17239 0.59532 0.0
C3401 C 0.99605 0.16252 0.5895 0.0
C3402 C 0.989 0.15314 0.58393 0.0
C3403 C 0.97611 0.15409 0.58338 0.0
H3404 H 0.8374 0.02654 0.56022 0.0
H3405 H 0.83076 0.03618 0.59837 0.0
H3406 H 0.84088 0.00506 0.56616 0.0
H3407 H 0.83385 0.0144 0.60434 0.0
H3408 H 0.81649 0.97281 0.59688 0.0
H3409 H 0.81945 0.99521 0.59725 0.0
H3410 H 0.8552 0.99083 0.5801 0.0
H3411 H 0.8524 0.96842 0.57988 0.0
C3412 C 0.83694 0.02407 0.56992 0.0
C3413 C 0.83383 0.03295 0.57885 0.0
C3414 C 0.83899 0.0118 0.57333 0.0
C3415 C 0.83767 0.0081 0.58571 0.0
C3416 C 0.83499 0.01707 0.59475 0.0
C3417 C 0.83327 0.02948 0.59136 0.0
C3418 C 0.82516 0.97659 0.59356 0.0
C3419 C 0.83413 0.96885 0.58818 0.0
C3420 C 0.82688 0.98941 0.59385 0.0
C3421 C 0.8375 0.99472 0.58861 0.0
C3422 C 0.84691 0.98694 0.58417 0.0
C3423 C 0.8453 0.97411 0.58408 0.0
H3424 H 0.41871 0.02801 0.15015 0.0
H3425 H 0.40484 0.03169 0.18744 0.0
H3426 H 0.41781 0.00551 0.15206 0.0
H3427 H 0.40363 0.00928 0.18922 0.0
H3428 H 0.42683 0.97409 0.195 0.0
H3429 H 0.42127 0.99545 0.19135 0.0
H3430 H 0.40637 0.98564 0.15559 0.0
H3431 H 0.4121 0.96394 0.15927 0.0
C3432 C 0.41505 0.02404 0.15859 0.0
C3433 C 0.41209 0.03162 0.16874 0.0
C3434 C 0.41452 0.01113 0.15968 0.0
C3435 C 0.41093 0.00562 0.1709 0.0
C3436 C 0.40674 0.01325 0.18056 0.0
C3437 C 0.40737 0.0261 0.17952 0.0
C3438 C 0.42227 0.97641 0.18638 0.0
C3439 C 0.41996 0.96732 0.1774 0.0
C3440 C 0.41896 0.98868 0.18434 0.0
C3441 C 0.41326 0.99226 0.17322 0.0
C3442 C 0.41075 0.98315 0.16425 0.0
C3443 C 0.41399 0.97075 0.16636 0.0
H3444 H 0.02439 0.42297 0.19552 0.0
H3445 H 0.03462 0.4137 0.15802 0.0
H3446 H 0.0031 0.41763 0.19114 0.0
H3447 H 0.013 0.40822 0.15358 0.0
H3448 H 0.97056 0.42143 0.15022 0.0
H3449 H 0.99306 0.42008 0.15182 0.0
H3450 H 0.98937 0.40039 0.18637 0.0
H3451 H 0.96696 0.40202 0.18494 0.0
C3452 C 0.02211 0.41964 0.18634 0.0
C3453 C 0.03119 0.41883 0.17709 0.0
C3454 C 0.00989 0.41645 0.18386 0.0
C3455 C 0.00634 0.4124 0.17203 0.0
C3456 C 0.01545 0.41132 0.16279 0.0
C3457 C 0.02781 0.41441 0.16533 0.0
C3458 C 0.97455 0.41646 0.15794 0.0
C3459 C 0.967 0.41206 0.16758 0.0
C3460 C 0.98746 0.41567 0.15886 0.0
C3461 C 0.993 0.41039 0.16938 0.0
C3462 C 0.98538 0.40479 0.17831 0.0
C3463 C 0.97253 0.40568 0.17746 0.0
H3464 H 0.59589 0.96508 0.18699 0.0
H3465 H 0.58205 0.96759 0.14958 0.0
H3466 H 0.59699 0.98755 0.18809 0.0
H3467 H 0.58294 0.99014 0.15081 0.0
H3468 H 0.58827 0.03212 0.15751 0.0
H3469 H 0.59463 0.01048 0.15431 0.0
H3470 H 0.57825 0.00069 0.18942 0.0
H3471 H 0.57197 0.02194 0.19254 0.0
C3472 C 0.59339 0.97041 0.17888 0.0
C3473 C 0.58863 0.96456 0.1683 0.0
C3474 C 0.59398 0.98329 0.17953 0.0
C3475 C 0.58975 0.9906 0.16965 0.0
C3476 C 0.58625 0.98475 0.15858 0.0
C3477 C 0.58572 0.97182 0.15789 0.0
C3478 C 0.58618 0.02532 0.16456 0.0
C3479 C 0.57956 0.0287 0.17523 0.0
C3480 C 0.58979 0.01297 0.16273 0.0
C3481 C 0.58706 0.00391 0.17167 0.0
C3482 C 0.58073 0.00745 0.18245 0.0
C3483 C 0.577 0.01965 0.18418 0.0
H3484 H 0.03159 0.57747 0.14281 0.0
H3485 H 0.03003 0.59737 0.17742 0.0
H3486 H 0.00903 0.57818 0.14144 0.0
H3487 H 0.00752 0.59825 0.17589 0.0
H3488 H 0.96597 0.59912 0.16818 0.0
H3489 H 0.98742 0.60449 0.16261 0.0
H3490 H 0.99572 0.56572 0.15779 0.0
H3491 H 0.97461 0.56043 0.16374 0.0
C3492 C 0.02649 0.58243 0.14986 0.0
C3493 C 0.03257 0.5872 0.16033 0.0
C3494 C 0.01358 0.5828 0.14908 0.0
C3495 C 0.00656 0.58818 0.15861 0.0
C3496 C 0.01271 0.59411 0.16839 0.0
C3497 C 0.0256 0.59355 0.16929 0.0
C3498 C 0.97235 0.59184 0.16559 0.0
C3499 C 0.96875 0.57938 0.16635 0.0
C3500 C 0.98457 0.59488 0.16245 0.0
C3501 C 0.99317 0.58552 0.15969 0.0
C3502 C 0.98924 0.57313 0.15968 0.0
C3503 C 0.9772 0.5701 0.16314 0.0
H3504 H 0.40321 0.97383 0.81637 0.0
H3505 H 0.42137 0.97139 0.85189 0.0
H3506 H 0.40266 0.99637 0.81825 0.0
H3507 H 0.42104 0.99393 0.85356 0.0
H3508 H 0.43964 0.02902 0.83255 0.0
H3509 H 0.43437 0.00749 0.83687 0.0
H3510 H 0.39558 0.01618 0.83328 0.0
H3511 H 0.40089 0.03803 0.82941 0.0
C3512 C 0.40674 0.97807 0.82473 0.0
C3513 C 0.41246 0.97084 0.83392 0.0
C3514 C 0.40636 0.99096 0.82582 0.0
C3515 C 0.41187 0.99683 0.83601 0.0
C3516 C 0.41673 0.98958 0.84563 0.0
C3517 C 0.41688 0.97669 0.84466 0.0
C3518 C 0.42998 0.02639 0.833 0.0
C3519 C 0.42066 0.03511 0.83069 0.0
C3520 C 0.42696 0.01411 0.83553 0.0
C3521 C 0.41458 0.01023 0.83546 0.0
C3522 C 0.40519 0.01901 0.83347 0.0
C3523 C 0.40821 0.03145 0.8313 0.0
H3524 H 0.03363 0.4051 0.81519 0.0
H3525 H 0.03149 0.42293 0.85089 0.0
H3526 H 0.01116 0.40383 0.81446 0.0
H3527 H 0.00891 0.42181 0.85004 0.0
H3528 H 0.96682 0.41549 0.84423 0.0
H3529 H 0.9885 0.40943 0.84786 0.0
H3530 H 0.9981 0.42263 0.8114 0.0
H3531 H 0.97682 0.42868 0.80787 0.0
C3532 C 0.02838 0.40845 0.82304 0.0
C3533 C 0.03432 0.41436 0.83297 0.0
C3534 C 0.0155 0.40774 0.82261 0.0
C3535 C 0.00829 0.41298 0.83206 0.0
C3536 C 0.01424 0.41769 0.84262 0.0
C3537 C 0.02718 0.41835 0.84309 0.0
C3538 C 0.97359 0.41693 0.83698 0.0
C3539 C 0.97017 0.42262 0.8258 0.0
C3540 C 0.98595 0.4135 0.83906 0.0
C3541 C 0.99496 0.41545 0.82987 0.0
C3542 C 0.99136 0.42079 0.81859 0.0
C3543 C 0.97917 0.42437 0.81661 0.0
H3544 H 0.59283 0.03528 0.81454 0.0
H3545 H 0.57724 0.02988 0.85092 0.0
H3546 H 0.59457 0.01299 0.81194 0.0
H3547 H 0.57861 0.00747 0.84815 0.0
H3548 H 0.58558 0.96637 0.83981 0.0
H3549 H 0.59046 0.98805 0.8446 0.0
H3550 H 0.57779 0.99874 0.80824 0.0
H3551 H 0.57313 0.97739 0.80347 0.0
C3552 C 0.59 0.02932 0.82209 0.0
C3553 C 0.58471 0.03432 0.83285 0.0
C3554 C 0.59093 0.01654 0.82057 0.0
C3555 C 0.58643 0.00845 0.8297 0.0
C3556 C 0.58217 0.01345 0.84094 0.0
C3557 C 0.58136 0.02629 0.84252 0.0
C3558 C 0.58401 0.97338 0.83283 0.0
C3559 C 0.57893 0.97017 0.82129 0.0
C3560 C 0.58676 0.98577 0.83558 0.0
C3561 C 0.58461 0.99512 0.82677 0.0
C3562 C 0.57981 0.99179 0.81516 0.0
C3563 C 0.57701 0.97951 0.81246 0.0
H3564 H 0.0379 0.59023 0.83885 0.0
H3565 H 0.0276 0.57701 0.80257 0.0
H3566 H 0.01623 0.59575 0.84287 0.0
H3567 H 0.00625 0.58225 0.80659 0.0
H3568 H 0.96966 0.59751 0.81164 0.0
H3569 H 0.99201 0.59908 0.80944 0.0
H3570 H 0.99669 0.58448 0.84634 0.0
H3571 H 0.97427 0.58332 0.84869 0.0
C3572 C 0.03106 0.58862 0.83171 0.0
C3573 C 0.03445 0.58313 0.82042 0.0
C3574 C 0.01866 0.59174 0.83402 0.0
C3575 C 0.00951 0.58953 0.82502 0.0
C3576 C 0.01305 0.58434 0.81365 0.0
C3577 C 0.02533 0.5812 0.81138 0.0
C3578 C 0.97545 0.59495 0.81941 0.0
C3579 C 0.97021 0.59009 0.83025 0.0
C3580 C 0.98826 0.59578 0.81813 0.0
C3581 C 0.99614 0.59159 0.82759 0.0
C3582 C 0.9909 0.58779 0.83887 0.0
C3583 C 0.97803 0.5871 0.84021 0.0
H3584 H 0.1847 0.40546 0.0284 0.0
H3585 H 0.14712 0.41878 0.03121 0.0
H3586 H 0.18297 0.40545 0.00586 0.0
H3587 H 0.14555 0.41899 0.00867 0.0
H3588 H 0.1638 0.44139 0.97439 0.0
H3589 H 0.15983 0.43474 0.9956 0.0
H3590 H 0.16963 0.3973 0.98577 0.0
H3591 H 0.17316 0.40395 0.96424 0.0
C3592 C 0.17596 0.40803 0.02423 0.0
C3593 C 0.16611 0.41227 0.03159 0.0
C3594 C 0.17496 0.40795 0.01133 0.0
C3595 C 0.16416 0.4123 0.00558 0.0
C3596 C 0.15397 0.41561 0.01292 0.0
C3597 C 0.15489 0.41546 0.02582 0.0
C3598 C 0.16475 0.43167 0.97669 0.0
C3599 C 0.16872 0.42316 0.96775 0.0
C3600 C 0.16244 0.42786 0.98878 0.0
C3601 C 0.16439 0.41551 0.99227 0.0
C3602 C 0.16799 0.40686 0.98325 0.0
C3603 C 0.16996 0.41064 0.97098 0.0
H3604 H 0.14894 0.58345 0.96859 0.0
H3605 H 0.18677 0.59599 0.97171 0.0
H3606 H 0.14718 0.58329 0.99111 0.0
H3607 H 0.18484 0.59606 0.99424 0.0
H3608 H 0.17484 0.59774 0.03574 0.0
H3609 H 0.17153 0.60448 0.01422 0.0
H3610 H 0.16103 0.56725 0.0043 0.0
H3611 H 0.16478 0.56051 0.02552 0.0
C3612 C 0.15673 0.58662 0.97404 0.0
C3613 C 0.16806 0.58957 0.96837 0.0
C3614 C 0.1557 0.5865 0.98693 0.0
C3615 C 0.16589 0.5896 0.99437 0.0
C3616 C 0.17683 0.59372 0.9887 0.0
C3617 C 0.17794 0.59361 0.97581 0.0
C3618 C 0.17152 0.59113 0.02898 0.0
C3619 C 0.17003 0.57863 0.03219 0.0
C3620 C 0.16968 0.59496 0.01672 0.0
C3621 C 0.16596 0.58639 0.00767 0.0
C3622 C 0.16373 0.57407 0.01114 0.0
C3623 C 0.16592 0.5702 0.02324 0.0
H3624 H 0.42774 0.19161 0.02549 0.0
H3625 H 0.41182 0.15635 0.03551 0.0
H3626 H 0.42073 0.18891 0.00441 0.0
H3627 H 0.40475 0.15358 0.01401 0.0
H3628 H 0.41639 0.15022 0.97051 0.0
H3629 H 0.41603 0.1507 0.99311 0.0
H3630 H 0.40124 0.18777 0.99207 0.0
H3631 H 0.40179 0.18741 0.96956 0.0
C3632 C 0.42266 0.18328 0.02319 0.0
C3633 C 0.4204 0.17415 0.03215 0.0
C3634 C 0.41851 0.1818 0.01111 0.0
C3635 C 0.41206 0.1711 0.00758 0.0
C3636 C 0.40966 0.16195 0.01652 0.0
C3637 C 0.41368 0.16353 0.02878 0.0
C3638 C 0.41264 0.1583 0.97509 0.0
C3639 C 0.40939 0.16889 0.96826 0.0
C3640 C 0.41242 0.15856 0.98805 0.0
C3641 C 0.40889 0.16938 0.99433 0.0
C3642 C 0.40426 0.1794 0.98746 0.0
C3643 C 0.40455 0.17918 0.97456 0.0
H3644 H 0.80557 0.43244 0.96493 0.0
H3645 H 0.84123 0.4144 0.96525 0.0
H3646 H 0.80405 0.43003 0.98708 0.0
H3647 H 0.83948 0.41147 0.98763 0.0
H3648 H 0.83773 0.42422 0.02911 0.0
H3649 H 0.84013 0.42274 0.00664 0.0
H3650 H 0.80086 0.41598 0.00306 0.0
H3651 H 0.79848 0.4182 0.0253 0.0
C3652 C 0.81302 0.42774 0.9697 0.0
C3653 C 0.82353 0.42363 0.96327 0.0
C3654 C 0.81211 0.42626 0.98247 0.0
C3655 C 0.82159 0.42044 0.98922 0.0
C3656 C 0.83204 0.4161 0.98277 0.0
C3657 C 0.83302 0.4177 0.96993 0.0
C3658 C 0.82969 0.42222 0.02348 0.0
C3659 C 0.8179 0.4215 0.02887 0.0
C3660 C 0.83104 0.42133 0.0106 0.0
C3661 C 0.82064 0.4195 0.00296 0.0
C3662 C 0.80902 0.41781 0.00857 0.0
C3663 C 0.80765 0.41897 0.02134 0.0
H3664 H 0.58602 0.83522 0.02972 0.0
H3665 H 0.56151 0.80456 0.02214 0.0
H3666 H 0.59003 0.83736 0.00745 0.0
H3667 H 0.56532 0.8068 1.00022 0.0
H3668 H 0.58033 0.80558 0.96264 0.0
H3669 H 0.58145 0.80383 0.98504 0.0
H3670 H 0.57866 0.84355 0.98836 0.0
H3671 H 0.57788 0.84534 0.96583 0.0
C3672 C 0.58155 0.82893 0.02334 0.0
C3673 C 0.57346 0.81972 0.0277 0.0
C3674 C 0.5838 0.83018 0.01061 0.0
C3675 C 0.5781 0.82217 0.00207 0.0
C3676 C 0.57009 0.81295 0.00652 0.0
C3677 C 0.56782 0.81175 0.01913 0.0
C3678 C 0.58017 0.81397 0.96812 0.0
C3679 C 0.57881 0.82558 0.96246 0.0
C3680 C 0.58076 0.81296 0.98097 0.0
C3681 C 0.57987 0.82353 0.9885 0.0
C3682 C 0.57939 0.83523 0.98283 0.0
C3683 C 0.5789 0.83625 0.96992 0.0
H3684 H 0.81555 0.59598 0.03141 0.0
H3685 H 0.8524 0.58051 0.03071 0.0
H3686 H 0.81561 0.59711 0.00892 0.0
H3687 H 0.85237 0.5816 0.0081 0.0
H3688 H 0.84714 0.58971 0.96558 0.0
H3689 H 0.84982 0.59489 0.98762 0.0
H3690 H 0.81477 0.57757 0.99577 0.0
H3691 H 0.81218 0.57234 0.97414 0.0
C3692 C 0.8238 0.59313 0.02649 0.0
C3693 C 0.83387 0.5879 0.03284 0.0
C3694 C 0.82381 0.59377 0.0136 0.0
C3695 C 0.83388 0.5892 0.00678 0.0
C3696 C 0.84448 0.58518 0.01314 0.0
C3697 C 0.84448 0.58454 0.02609 0.0
C3698 C 0.84002 0.58709 0.97212 0.0
C3699 C 0.82948 0.58058 0.96815 0.0
C3700 C 0.84156 0.59004 0.98469 0.0
C3701 C 0.83242 0.58677 0.99336 0.0
C3702 C 0.82186 0.58041 0.98929 0.0
C3703 C 0.82044 0.57731 0.97688 0.0
H3704 H 0.43839 0.83764 0.97181 0.0
H3705 H 0.39999 0.83088 0.96329 0.0
H3706 H 0.43308 0.84089 0.99352 0.0
H3707 H 0.39469 0.83367 0.98529 0.0
H3708 H 0.40418 0.81684 0.02718 0.0
H3709 H 0.40352 0.81896 0.00465 0.0
H3710 H 0.41832 0.85588 0.00764 0.0
H3711 H 0.41873 0.85396 0.03015 0.0
C3712 C 0.42877 0.83708 0.97458 0.0
C3713 C 0.41958 0.83406 0.96593 0.0
C3714 C 0.42573 0.83898 0.98697 0.0
C3715 C 0.41348 0.83756 0.99102 0.0
C3716 C 0.40419 0.83488 0.98233 0.0
C3717 C 0.4072 0.83334 0.9698 0.0
C3718 C 0.40691 0.82556 0.02306 0.0
C3719 C 0.41162 0.83518 0.03045 0.0
C3720 C 0.40647 0.82678 0.01018 0.0
C3721 C 0.41093 0.83756 0.00447 0.0
C3722 C 0.41482 0.84749 0.01186 0.0
C3723 C 0.41503 0.84637 0.02475 0.0
H3724 H 0.58738 0.15883 0.96672 0.0
H3725 H 0.57396 0.19482 0.97774 0.0
H3726 H 0.59392 0.15483 0.98815 0.0
H3727 H 0.58031 0.19087 0.99881 0.0
H3728 H 0.59694 0.18619 0.03458 0.0
H3729 H 0.59821 0.18805 0.01217 0.0
H3730 H 0.58278 0.15141 0.00821 0.0
H3731 H 0.58184 0.1494 0.03069 0.0
C3732 C 0.58598 0.16592 0.97366 0.0
C3733 C 0.58008 0.17709 0.97058 0.0
C3734 C 0.58968 0.16363 0.9859 0.0
C3735 C 0.58773 0.17257 0.99516 0.0
C3736 C 0.5822 0.18387 0.99189 0.0
C3737 C 0.57841 0.18608 0.9798 0.0
C3738 C 0.59417 0.17838 0.02894 0.0
C3739 C 0.58906 0.16775 0.03439 0.0
C3740 C 0.59485 0.17946 0.0161 0.0
C3741 C 0.59028 0.17 0.00842 0.0
C3742 C 0.58636 0.15886 0.01387 0.0
C3743 C 0.5858 0.15772 0.02676 0.0
H3744 H 0.53787 0.69328 0.9159 0.0
H3745 H 0.53369 0.65413 0.92272 0.0
H3746 H 0.51552 0.69545 0.91451 0.0
H3747 H 0.51121 0.65638 0.92175 0.0
H3748 H 0.47002 0.66459 0.91443 0.0
H3749 H 0.49214 0.66159 0.91021 0.0
H3750 H 0.5004 0.69488 0.93074 0.0
H3751 H 0.47862 0.69796 0.93469 0.0
C3752 C 0.53217 0.6851 0.91696 0.0
C3753 C 0.53753 0.67357 0.91962 0.0
C3754 C 0.51935 0.68635 0.91622 0.0
C3755 C 0.51156 0.67614 0.91831 0.0
C3756 C 0.51694 0.66443 0.92007 0.0
C3757 C 0.52982 0.66315 0.92067 0.0
C3758 C 0.47659 0.6713 0.91791 0.0
C3759 C 0.47256 0.68151 0.92489 0.0
C3760 C 0.48925 0.66956 0.91554 0.0
C3761 C 0.49804 0.67806 0.92004 0.0
C3762 C 0.4939 0.6883 0.92688 0.0
C3763 C 0.48137 0.69 0.92926 0.0
H3764 H 0.31831 0.53107 0.9061 0.0
H3765 H 0.3555 0.53329 0.92057 0.0
H3766 H 0.31976 0.50849 0.90595 0.0
H3767 H 0.35676 0.51072 0.92067 0.0
H3768 H 0.33723 0.47636 0.94205 0.0
H3769 H 0.34154 0.49764 0.93586 0.0
H3770 H 0.33343 0.48833 0.8979 0.0
H3771 H 0.32956 0.46673 0.90409 0.0
C3772 C 0.32691 0.52676 0.90889 0.0
C3773 C 0.33674 0.53396 0.91347 0.0
C3774 C 0.32775 0.51385 0.90875 0.0
C3775 C 0.33834 0.50792 0.91337 0.0
C3776 C 0.34851 0.51511 0.91706 0.0
C3777 C 0.34777 0.52802 0.91697 0.0
C3778 C 0.33671 0.47878 0.93234 0.0
C3779 C 0.33311 0.46996 0.92353 0.0
C3780 C 0.33922 0.49093 0.92879 0.0
C3781 C 0.33785 0.49458 0.91641 0.0
C3782 C 0.33462 0.48568 0.90749 0.0
C3783 C 0.33246 0.47337 0.91101 0.0
H3784 H 0.4699 0.31761 0.90659 0.0
H3785 H 0.46756 0.35485 0.92092 0.0
H3786 H 0.49245 0.31931 0.90598 0.0
H3787 H 0.49012 0.35637 0.92056 0.0
H3788 H 0.52525 0.33724 0.94115 0.0
H3789 H 0.50378 0.34139 0.93549 0.0
H3790 H 0.51219 0.3332 0.89733 0.0
H3791 H 0.53397 0.32951 0.90299 0.0
C3792 C 0.47417 0.32627 0.90927 0.0
C3793 C 0.46696 0.33604 0.91392 0.0
C3794 C 0.48707 0.32725 0.90885 0.0
C3795 C 0.49297 0.33794 0.91328 0.0
C3796 C 0.48575 0.34804 0.91708 0.0
C3797 C 0.47284 0.34716 0.91726 0.0
C3798 C 0.52258 0.3367 0.9315 0.0
C3799 C 0.53119 0.33313 0.92249 0.0
C3800 C 0.51034 0.33911 0.92825 0.0
C3801 C 0.50638 0.33765 0.91597 0.0
C3802 C 0.51508 0.33446 0.90684 0.0
C3803 C 0.52748 0.33241 0.91006 0.0
H3804 H 0.66531 0.53255 0.91485 0.0
H3805 H 0.69723 0.5243 0.93745 0.0
H3806 H 0.66263 0.51036 0.91073 0.0
H3807 H 0.69448 0.50245 0.93354 0.0
H3808 H 0.694 0.46487 0.91861 0.0
H3809 H 0.69616 0.48723 0.91727 0.0
H3810 H 0.65675 0.4914 0.92237 0.0
H3811 H 0.65453 0.46893 0.92337 0.0
C3812 C 0.67177 0.52604 0.91887 0.0
C3813 C 0.68147 0.53019 0.92648 0.0
C3814 C 0.67021 0.51335 0.91655 0.0
C3815 C 0.67841 0.50464 0.92171 0.0
C3816 C 0.68815 0.50889 0.92918 0.0
C3817 C 0.68966 0.52146 0.93153 0.0
C3818 C 0.68576 0.47053 0.91922 0.0
C3819 C 0.67412 0.46513 0.9213 0.0
C3820 C 0.687 0.48335 0.9185 0.0
C3821 C 0.67666 0.49111 0.91998 0.0
C3822 C 0.66489 0.48569 0.92117 0.0
C3823 C 0.66363 0.47281 0.92178 0.0
H3824 H 0.53057 0.35166 0.08024 0.0
H3825 H 0.52763 0.31416 0.09377 0.0
H3826 H 0.50806 0.3536 0.08086 0.0
H3827 H 0.50513 0.31626 0.09461 0.0
H3828 H 0.46394 0.32655 0.09807 0.0
H3829 H 0.4858 0.32982 0.10367 0.0
H3830 H 0.49388 0.33976 0.06586 0.0
H3831 H 0.47233 0.33607 0.06024 0.0
C3832 C 0.52517 0.34398 0.08375 0.0
C3833 C 0.53086 0.33269 0.0868 0.0
C3834 C 0.51229 0.34511 0.08409 0.0
C3835 C 0.50491 0.33507 0.08774 0.0
C3836 C 0.51064 0.32417 0.09186 0.0
C3837 C 0.5235 0.32295 0.0913 0.0
C3838 C 0.47038 0.32975 0.09109 0.0
C3839 C 0.46656 0.33109 0.07875 0.0
C3840 C 0.48283 0.33157 0.09427 0.0
C3841 C 0.49146 0.3351 0.0852 0.0
C3842 C 0.48739 0.3372 0.07305 0.0
C3843 C 0.47509 0.33505 0.06983 0.0
H3844 H 0.65205 0.52845 0.08282 0.0
H3845 H 0.68978 0.53161 0.09561 0.0
H3846 H 0.65357 0.50592 0.084 0.0
H3847 H 0.69118 0.50919 0.09703 0.0
H3848 H 0.69552 0.47303 0.07517 0.0
H3849 H 0.69241 0.49473 0.07971 0.0
H3850 H 0.657 0.48639 0.09623 0.0
H3851 H 0.66011 0.46435 0.09154 0.0
C3852 C 0.66053 0.52437 0.08625 0.0
C3853 C 0.67088 0.53181 0.08888 0.0
C3854 C 0.66139 0.51145 0.08695 0.0
C3855 C 0.67259 0.50578 0.09035 0.0
C3856 C 0.68252 0.51329 0.09409 0.0
C3857 C 0.6817 0.52614 0.09332 0.0
C3858 C 0.68708 0.47575 0.07985 0.0
C3859 C 0.67804 0.46696 0.08296 0.0
C3860 C 0.68536 0.48821 0.08257 0.0
C3861 C 0.67451 0.49229 0.08845 0.0
C3862 C 0.66546 0.48351 0.09169 0.0
C3863 C 0.66725 0.47092 0.08905 0.0
H3864 H 0.4675 0.64765 0.08053 0.0
H3865 H 0.47154 0.68346 0.09783 0.0
H3866 H 0.48994 0.64509 0.08069 0.0
H3867 H 0.49398 0.68072 0.09818 0.0
H3868 H 0.53508 0.66877 0.09978 0.0
H3869 H 0.51318 0.66587 0.10539 0.0
H3870 H 0.50421 0.66001 0.06693 0.0
H3871 H 0.52582 0.66333 0.06134 0.0
C3872 C 0.47312 0.65478 0.08478 0.0
C3873 C 0.46774 0.66585 0.08901 0.0
C3874 C 0.48597 0.6533 0.08484 0.0
C3875 C 0.49365 0.66274 0.08938 0.0
C3876 C 0.48824 0.67327 0.0947 0.0
C3877 C 0.4754 0.67486 0.09444 0.0
C3878 C 0.52843 0.66658 0.09261 0.0
C3879 C 0.53206 0.66628 0.08014 0.0
C3880 C 0.51595 0.66497 0.09581 0.0
C3881 C 0.50707 0.66265 0.08659 0.0
C3882 C 0.5109 0.66163 0.07423 0.0
C3883 C 0.52323 0.66358 0.07102 0.0
H3884 H 0.31575 0.47054 0.09486 0.0
H3885 H 0.35334 0.46733 0.08165 0.0
H3886 H 0.31787 0.49306 0.09525 0.0
H3887 H 0.35528 0.48984 0.08181 0.0
H3888 H 0.33777 0.52504 0.06021 0.0
H3889 H 0.34121 0.50358 0.0663 0.0
H3890 H 0.3317 0.51267 0.10399 0.0
H3891 H 0.3287 0.53445 0.09791 0.0
C3892 C 0.32457 0.47461 0.09238 0.0
C3893 C 0.33433 0.46716 0.08809 0.0
C3894 C 0.32579 0.48749 0.09267 0.0
C3895 C 0.33671 0.49314 0.08849 0.0
C3896 C 0.34677 0.48568 0.08508 0.0
C3897 C 0.34565 0.47279 0.08501 0.0
C3898 C 0.33677 0.52252 0.06986 0.0
C3899 C 0.33303 0.53133 0.07861 0.0
C3900 C 0.33878 0.51027 0.07335 0.0
C3901 C 0.33675 0.50652 0.08561 0.0
C3902 C 0.33339 0.5154 0.0945 0.0
C3903 C 0.33173 0.5278 0.09105 0.0
H3904 H 0.92325 0.53314 0.64716 0.0
H3905 H 0.90532 0.52983 0.68272 0.0
H3906 H 0.92272 0.51067 0.64485 0.0
H3907 H 0.90462 0.50738 0.68025 0.0
H3908 H 0.90339 0.46616 0.67011 0.0
H3909 H 0.8977 0.48789 0.66619 0.0
H3910 H 0.93615 0.49668 0.65992 0.0
H3911 H 0.94179 0.47528 0.66424 0.0
C3912 C 0.91877 0.52768 0.65426 0.0
C3913 C 0.9145 0.53325 0.66522 0.0
C3914 C 0.9185 0.51481 0.65294 0.0
C3915 C 0.91372 0.50732 0.66241 0.0
C3916 C 0.90829 0.51296 0.67278 0.0
C3917 C 0.90876 0.52581 0.67421 0.0
C3918 C 0.91053 0.47273 0.66759 0.0
C3919 C 0.92301 0.46914 0.66748 0.0
C3920 C 0.90729 0.48511 0.66539 0.0
C3921 C 0.91649 0.49391 0.66268 0.0
C3922 C 0.92886 0.49006 0.66181 0.0
C3923 C 0.9321 0.47785 0.66434 0.0
H3924 H 0.53634 0.9114 0.6564 0.0
H3925 H 0.52684 0.92431 0.693 0.0
H3926 H 0.51462 0.9055 0.65296 0.0
H3927 H 0.50548 0.91849 0.68962 0.0
H3928 H 0.46963 0.90147 0.686 0.0
H3929 H 0.4921 0.90019 0.68675 0.0
H3930 H 0.49437 0.91745 0.65081 0.0
H3931 H 0.47181 0.91854 0.64993 0.0
C3932 C 0.52967 0.91284 0.66373 0.0
C3933 C 0.53327 0.91838 0.67494 0.0
C3934 C 0.51727 0.9095 0.66176 0.0
C3935 C 0.50837 0.91142 0.67106 0.0
C3936 C 0.51212 0.91665 0.68234 0.0
C3937 C 0.52438 0.92012 0.68423 0.0
C3938 C 0.47489 0.90465 0.67808 0.0
C3939 C 0.46895 0.91034 0.66802 0.0
C3940 C 0.48777 0.90395 0.67853 0.0
C3941 C 0.495 0.90901 0.66898 0.0
C3942 C 0.48905 0.91349 0.65832 0.0
C3943 C 0.47611 0.91413 0.65783 0.0
H3944 H 0.08851 0.53369 0.65949 0.0
H3945 H 0.07701 0.52361 0.69641 0.0
H3946 H 0.09375 0.51197 0.65531 0.0
H3947 H 0.082 0.50222 0.69225 0.0
H3948 H 0.09725 0.46569 0.6868 0.0
H3949 H 0.09885 0.48808 0.68867 0.0
H3950 H 0.08224 0.4923 0.65257 0.0
H3951 H 0.08101 0.46983 0.65054 0.0
C3952 C 0.08722 0.52688 0.66673 0.0
C3953 C 0.0823 0.53036 0.67826 0.0
C3954 C 0.09017 0.51446 0.66433 0.0
C3955 C 0.08839 0.50536 0.67347 0.0
C3956 C 0.08376 0.50898 0.68506 0.0
C3957 C 0.08076 0.52128 0.68742 0.0
C3958 C 0.09426 0.47139 0.67912 0.0
C3959 C 0.08881 0.46602 0.66862 0.0
C3960 C 0.09511 0.48422 0.68021 0.0
C3961 C 0.09037 0.49198 0.67091 0.0
C3962 C 0.08598 0.4866 0.65991 0.0
C3963 C 0.08526 0.47371 0.65875 0.0
H3964 H 0.46611 0.08617 0.65886 0.0
H3965 H 0.47759 0.07574 0.69568 0.0
H3966 H 0.48764 0.09136 0.65372 0.0
H3967 H 0.4988 0.08068 0.69059 0.0
H3968 H 0.53525 0.095 0.68323 0.0
H3969 H 0.513 0.09716 0.68591 0.0
H3970 H 0.50702 0.07957 0.65053 0.0
H3971 H 0.52937 0.0778 0.64767 0.0
C3972 C 0.47318 0.08514 0.66588 0.0
C3973 C 0.47017 0.08049 0.67765 0.0
C3974 C 0.48549 0.08806 0.66293 0.0
C3975 C 0.49494 0.08651 0.67176 0.0
C3976 C 0.49177 0.08224 0.68362 0.0
C3977 C 0.47958 0.07927 0.68651 0.0
C3978 C 0.5292 0.09192 0.67586 0.0
C3979 C 0.53404 0.08605 0.66534 0.0
C3980 C 0.51644 0.0931 0.67742 0.0
C3981 C 0.50823 0.08823 0.66859 0.0
C3982 C 0.51308 0.08342 0.65751 0.0
C3983 C 0.5259 0.08239 0.65588 0.0
H3984 H 0.91868 0.47381 0.34866 0.0
H3985 H 0.90876 0.47171 0.31 0.0
H3986 H 0.91806 0.49639 0.34756 0.0
H3987 H 0.90798 0.49419 0.30899 0.0
H3988 H 0.93218 0.52925 0.30749 0.0
H3989 H 0.92659 0.50771 0.3099 0.0
H3990 H 0.90612 0.51653 0.34305 0.0
H3991 H 0.91177 0.53846 0.3406 0.0
C3992 C 0.91599 0.47813 0.34004 0.0
C3993 C 0.91404 0.47097 0.32934 0.0
C3994 C 0.9156 0.49108 0.33943 0.0
C3995 C 0.91323 0.49704 0.32812 0.0
C3996 C 0.91009 0.48984 0.31776 0.0
C3997 C 0.91052 0.47695 0.31836 0.0
C3998 C 0.92643 0.52668 0.31528 0.0
C3999 C 0.92246 0.53556 0.32388 0.0
C4000 C 0.92311 0.51431 0.31659 0.0
C4001 C 0.9158 0.51044 0.32659 0.0
C4002 C 0.91175 0.51928 0.33524 0.0
C4003 C 0.91495 0.5318 0.33382 0.0
H4004 H 0.46297 0.90217 0.32624 0.0
H4005 H 0.4717 0.94038 0.33366 0.0
H4006 H 0.48472 0.8965 0.33015 0.0
H4007 H 0.49315 0.93471 0.33803 0.0
H4008 H 0.52906 0.91979 0.35242 0.0
H4009 H 0.50647 0.91963 0.35349 0.0
H4010 H 0.50474 0.9052 0.31634 0.0
H4011 H 0.52732 0.90564 0.31508 0.0
C4012 C 0.46946 0.90924 0.32911 0.0
C4013 C 0.46577 0.92168 0.32972 0.0
C4014 C 0.48184 0.90603 0.33129 0.0
C4015 C 0.49053 0.91517 0.33447 0.0
C4016 C 0.48659 0.92748 0.33576 0.0
C4017 C 0.47437 0.93072 0.33324 0.0
C4018 C 0.5239 0.91621 0.34461 0.0
C4019 C 0.52997 0.91285 0.33361 0.0
C4020 C 0.51098 0.91615 0.34524 0.0
C4021 C 0.50392 0.91243 0.33499 0.0
C4022 C 0.50999 0.90801 0.3244 0.0
C4023 C 0.52291 0.90832 0.32367 0.0
H4024 H 0.07918 0.52894 0.35059 0.0
H4025 H 0.09133 0.53322 0.31277 0.0
H4026 H 0.08028 0.50646 0.34836 0.0
H4027 H 0.09276 0.51086 0.31067 0.0
H4028 H 0.07109 0.47483 0.3054 0.0
H4029 H 0.07569 0.4964 0.30911 0.0
H4030 H 0.09216 0.48703 0.34429 0.0
H4031 H 0.08735 0.46511 0.34059 0.0
C4032 C 0.08246 0.5251 0.34194 0.0
C4033 C 0.08494 0.53284 0.33178 0.0
C4034 C 0.08312 0.51221 0.34067 0.0
C4035 C 0.08634 0.50688 0.32925 0.0
C4036 C 0.08994 0.51468 0.31949 0.0
C4037 C 0.08917 0.52751 0.32071 0.0
C4038 C 0.07577 0.47729 0.31391 0.0
C4039 C 0.07881 0.46824 0.32272 0.0
C4040 C 0.07853 0.48969 0.31598 0.0
C4041 C 0.08441 0.49345 0.32695 0.0
C4042 C 0.08761 0.48441 0.33576 0.0
C4043 C 0.0849 0.47189 0.33362 0.0
H4044 H 0.52533 0.06036 0.33723 0.0
H4045 H 0.53459 0.09788 0.32731 0.0
H4046 H 0.50394 0.06652 0.34093 0.0
H4047 H 0.51288 0.10403 0.33059 0.0
H4048 H 0.47089 0.09483 0.31494 0.0
H4049 H 0.49337 0.09545 0.31719 0.0
H4050 H 0.49007 0.0818 0.35454 0.0
H4051 H 0.46758 0.08137 0.35244 0.0
C4052 C 0.5228 0.07 0.33614 0.0
C4053 C 0.53153 0.07867 0.33206 0.0
C4054 C 0.51059 0.07353 0.33829 0.0
C4055 C 0.5068 0.08575 0.33607 0.0
C4056 C 0.51564 0.09458 0.33243 0.0
C4057 C 0.528 0.09108 0.33061 0.0
C4058 C 0.47493 0.09234 0.32377 0.0
C4059 C 0.46746 0.08788 0.33345 0.0
C4060 C 0.48779 0.09278 0.32508 0.0
C4061 C 0.49341 0.08859 0.33601 0.0
C4062 C 0.48592 0.08506 0.34601 0.0
C4063 C 0.47305 0.08484 0.3448 0.0
H4064 H 0.69432 0.92829 0.47245 0.0
H4065 H 0.65969 0.9107 0.46301 0.0
H4066 H 0.69121 0.9231 0.49399 0.0
H4067 H 0.65658 0.90536 0.48489 0.0
H4068 H 0.65082 0.91754 0.52726 0.0
H4069 H 0.65251 0.91691 0.50473 0.0
H4070 H 0.6906 0.90533 0.50796 0.0
H4071 H 0.68901 0.90622 0.53039 0.0
C4072 C 0.68606 0.92321 0.47496 0.0
C4073 C 0.67723 0.91995 0.466 0.0
C4074 C 0.68433 0.92012 0.48733 0.0
C4075 C 0.67371 0.91369 0.49116 0.0
C4076 C 0.66486 0.91031 0.48222 0.0
C4077 C 0.66666 0.91334 0.46971 0.0
C4078 C 0.65945 0.91453 0.52316 0.0
C4079 C 0.66986 0.91217 0.53061 0.0
C4080 C 0.6604 0.91415 0.51024 0.0
C4081 C 0.67177 0.91134 0.50457 0.0
C4082 C 0.6818 0.90782 0.51206 0.0
C4083 C 0.68087 0.90828 0.52492 0.0
H4084 H 0.69295 0.06813 0.52397 0.0
H4085 H 0.6588 0.08604 0.53447 0.0
H4086 H 0.68941 0.07368 0.50258 0.0
H4087 H 0.6552 0.09166 0.51268 0.0
H4088 H 0.64907 0.07851 0.47012 0.0
H4089 H 0.65084 0.07946 0.49266 0.0
H4090 H 0.68849 0.09229 0.48913 0.0
H4091 H 0.68683 0.09115 0.46671 0.0
C4092 C 0.68469 0.07334 0.52172 0.0
C4093 C 0.67612 0.07661 0.53091 0.0
C4094 C 0.68273 0.07664 0.50944 0.0
C4095 C 0.67209 0.08323 0.50596 0.0
C4096 C 0.66349 0.08661 0.51513 0.0
C4097 C 0.66556 0.08342 0.52756 0.0
C4098 C 0.6576 0.08189 0.47415 0.0
C4099 C 0.66791 0.0845 0.46665 0.0
C4100 C 0.65859 0.08246 0.48707 0.0
C4101 C 0.66989 0.08569 0.49263 0.0
C4102 C 0.67975 0.08951 0.48508 0.0
C4103 C 0.67879 0.08889 0.47224 0.0
H4104 H 0.92347 0.64607 0.47133 0.0
H4105 H 0.90457 0.68125 0.47268 0.0
H4106 H 0.92288 0.64494 0.49391 0.0
H4107 H 0.90379 0.67995 0.49523 0.0
H4108 H 0.90271 0.67169 0.53704 0.0
H4109 H 0.8972 0.66647 0.51552 0.0
H4110 H 0.93588 0.66152 0.50695 0.0
H4111 H 0.94133 0.66714 0.52811 0.0
C4112 C 0.91874 0.65331 0.4764 0.0
C4113 C 0.91422 0.66384 0.47025 0.0
C4114 C 0.91844 0.65266 0.48932 0.0
C4115 C 0.91337 0.6624 0.49627 0.0
C4116 C 0.90768 0.67229 0.49007 0.0
C4117 C 0.90819 0.67305 0.47717 0.0
C4118 C 0.90995 0.66919 0.53057 0.0
C4119 C 0.92242 0.66981 0.53413 0.0
C4120 C 0.90682 0.66625 0.51832 0.0
C4121 C 0.91612 0.66351 0.50965 0.0
C4122 C 0.92852 0.66341 0.51349 0.0
C4123 C 0.93164 0.66669 0.52556 0.0
H4124 H 0.31219 0.90512 0.46773 0.0
H4125 H 0.34928 0.91946 0.47159 0.0
H4126 H 0.31055 0.90331 0.49011 0.0
H4127 H 0.3475 0.91797 0.49406 0.0
H4128 H 0.34074 0.91134 0.53547 0.0
H4129 H 0.34434 0.90615 0.51362 0.0
H4130 H 0.30814 0.92037 0.50445 0.0
H4131 H 0.30455 0.92536 0.52596 0.0
C4132 C 0.3201 0.90764 0.47335 0.0
C4133 C 0.33078 0.91265 0.4679 0.0
C4134 C 0.31914 0.90666 0.48618 0.0
C4135 C 0.32877 0.9108 0.49388 0.0
C4136 C 0.33991 0.9147 0.4884 0.0
C4137 C 0.34092 0.91558 0.47551 0.0
C4138 C 0.33353 0.91319 0.52876 0.0
C4139 C 0.32238 0.91881 0.53242 0.0
C4140 C 0.3356 0.91026 0.51627 0.0
C4141 C 0.32649 0.91275 0.50731 0.0
C4142 C 0.31527 0.91807 0.51111 0.0
C4143 C 0.31325 0.92107 0.52347 0.0
H4144 H 0.07705 0.3376 0.53109 0.0
H4145 H 0.08342 0.29841 0.52725 0.0
H4146 H 0.07869 0.34006 0.50865 0.0
H4147 H 0.08585 0.30086 0.50503 0.0
H4148 H 0.0688 0.30549 0.46707 0.0
H4149 H 0.0717 0.30387 0.48914 0.0
H4150 H 0.08973 0.33958 0.48955 0.0
H4151 H 0.08629 0.34144 0.46726 0.0
C4152 C 0.07921 0.32959 0.52546 0.0
C4153 C 0.07994 0.3178 0.53082 0.0
C4154 C 0.08018 0.33098 0.5126 0.0
C4155 C 0.08212 0.3206 0.50494 0.0
C4156 C 0.08392 0.30899 0.51055 0.0
C4157 C 0.08265 0.30759 0.5233 0.0
C4158 C 0.07349 0.31298 0.47179 0.0
C4159 C 0.07728 0.32361 0.46536 0.0
C4160 C 0.07527 0.312 0.48452 0.0
C4161 C 0.08106 0.32155 0.49121 0.0
C4162 C 0.08513 0.3321 0.48474 0.0
C4163 C 0.08323 0.33313 0.47195 0.0
H4164 H 0.35056 0.07929 0.52971 0.0
H4165 H 0.31422 0.09534 0.53392 0.0
H4166 H 0.34868 0.08095 0.50726 0.0
H4167 H 0.31248 0.09729 0.51155 0.0
H4168 H 0.30526 0.07505 0.47592 0.0
H4169 H 0.30925 0.08008 0.49735 0.0
H4170 H 0.34577 0.09312 0.48768 0.0
H4171 H 0.34173 0.08794 0.4659 0.0
C4172 C 0.34236 0.08358 0.52587 0.0
C4173 C 0.33242 0.08694 0.53357 0.0
C4174 C 0.34129 0.08455 0.51299 0.0
C4175 C 0.3303 0.08898 0.50763 0.0
C4176 C 0.32094 0.09355 0.51541 0.0
C4177 C 0.32196 0.09248 0.52823 0.0
C4178 C 0.31411 0.0791 0.47828 0.0
C4179 C 0.32321 0.08103 0.46921 0.0
C4180 C 0.31636 0.08212 0.4906 0.0
C4181 C 0.32779 0.08711 0.49423 0.0
C4182 C 0.33687 0.08928 0.48515 0.0
C4183 C 0.33455 0.08636 0.4727 0.0
H4184 H 0.9101 0.34642 0.46456 0.0
H4185 H 0.92269 0.30966 0.47391 0.0
H4186 H 0.90554 0.35032 0.48652 0.0
H4187 H 0.91818 0.3135 0.49551 0.0
H4188 H 0.9027 0.3181 0.53209 0.0
H4189 H 0.90058 0.31699 0.5097 0.0
H4190 H 0.91858 0.35246 0.50615 0.0
H4191 H 0.92052 0.3537 0.52866 0.0
C4192 C 0.91175 0.33916 0.47126 0.0
C4193 C 0.9168 0.32776 0.46753 0.0
C4194 C 0.90918 0.3414 0.4838 0.0
C4195 C 0.91138 0.33218 0.49272 0.0
C4196 C 0.91614 0.32072 0.48886 0.0
C4197 C 0.91885 0.31856 0.47646 0.0
C4198 C 0.9059 0.32583 0.52657 0.0
C4199 C 0.912 0.33587 0.53213 0.0
C4200 C 0.90471 0.32517 0.51374 0.0
C4201 C 0.90968 0.33449 0.50616 0.0
C4202 C 0.91467 0.34513 0.51175 0.0
C4203 C 0.91579 0.34583 0.52465 0.0
H4204 H 0.0894 0.66059 0.46434 0.0
H4205 H 0.07814 0.69741 0.47503 0.0
H4206 H 0.09502 0.65616 0.4859 0.0
H4207 H 0.08352 0.693 0.49628 0.0
H4208 H 0.09852 0.68687 0.53274 0.0
H4209 H 0.10031 0.68909 0.5104 0.0
H4210 H 0.08354 0.65315 0.50547 0.0
H4211 H 0.08213 0.65076 0.52787 0.0
C4212 C 0.08827 0.66776 0.47124 0.0
C4213 C 0.08326 0.67932 0.468 0.0
C4214 C 0.09144 0.66522 0.48357 0.0
C4215 C 0.08979 0.67424 0.49282 0.0
C4216 C 0.08516 0.6859 0.48941 0.0
C4217 C 0.08194 0.6884 0.4772 0.0
C4218 C 0.09554 0.67929 0.5269 0.0
C4219 C 0.08998 0.66874 0.53206 0.0
C4220 C 0.0965 0.68058 0.51409 0.0
C4221 C 0.09176 0.67144 0.50615 0.0
C4222 C 0.08729 0.66037 0.51132 0.0
C4223 C 0.08645 0.65901 0.52418 0.0
H4224 H 0.1014 0.17554 0.53404 0.0
H4225 H 0.06223 0.16752 0.5345 0.0
H4226 H 0.10159 0.17308 0.51158 0.0
H4227 H 0.06245 0.16514 0.5121 0.0
H4228 H 0.06871 0.15267 0.47255 0.0
H4229 H 0.07077 0.15192 0.49506 0.0
H4230 H 0.09271 0.18529 0.49417 0.0
H4231 H 0.09074 0.18603 0.47175 0.0
C4232 C 0.09286 0.17315 0.52938 0.0
C4233 C 0.08178 0.17181 0.53607 0.0
C4234 C 0.09297 0.17179 0.51652 0.0
C4235 C 0.08203 0.16894 0.51009 0.0
C4236 C 0.07105 0.1672 0.51681 0.0
C4237 C 0.07091 0.16867 0.52964 0.0
C4238 C 0.07411 0.15974 0.47714 0.0
C4239 C 0.07948 0.16946 0.47037 0.0
C4240 C 0.07523 0.15935 0.49003 0.0
C4241 C 0.08185 0.16858 0.49637 0.0
C4242 C 0.08765 0.17798 0.48954 0.0
C4243 C 0.08644 0.17844 0.47669 0.0
H4244 H 0.85408 0.07002 0.46836 0.0
H4245 H 0.81584 0.08151 0.46621 0.0
H4246 H 0.85358 0.0727 0.49079 0.0
H4247 H 0.81538 0.08416 0.48859 0.0
H4248 H 0.82208 0.09755 0.52803 0.0
H4249 H 0.82466 0.09722 0.50556 0.0
H4250 H 0.84267 0.06167 0.50814 0.0
H4251 H 0.84013 0.06196 0.53053 0.0
C4252 C 0.8456 0.0732 0.47264 0.0
C4253 C 0.83498 0.07548 0.46549 0.0
C4254 C 0.84531 0.07469 0.48549 0.0
C4255 C 0.83444 0.07863 0.49143 0.0
C4256 C 0.82393 0.08123 0.48425 0.0
C4257 C 0.82417 0.07962 0.47144 0.0
C4258 C 0.82672 0.08974 0.52382 0.0
C4259 C 0.83083 0.07975 0.53106 0.0
C4260 C 0.82813 0.08952 0.51096 0.0
C4261 C 0.83382 0.0794 0.50511 0.0
C4262 C 0.83834 0.06964 0.51239 0.0
C4263 C 0.83681 0.06978 0.52522 0.0
H4264 H 0.90097 0.82693 0.52916 0.0
H4265 H 0.93971 0.83648 0.53197 0.0
H4266 H 0.9017 0.83071 0.50691 0.0
H4267 H 0.94039 0.8402 0.50974 0.0
H4268 H 0.93495 0.85415 0.47022 0.0
H4269 H 0.93208 0.85387 0.49269 0.0
H4270 H 0.91224 0.81933 0.48972 0.0
H4271 H 0.91506 0.81957 0.46741 0.0
C4272 C 0.9096 0.82996 0.52507 0.0
C4273 C 0.92031 0.83129 0.53233 0.0
C4274 C 0.91002 0.83209 0.51233 0.0
C4275 C 0.92112 0.8357 0.5066 0.0
C4276 C 0.93169 0.83753 0.51392 0.0
C4277 C 0.93131 0.8353 0.52664 0.0
C4278 C 0.92985 0.84658 0.47436 0.0
C4279 C 0.9253 0.83684 0.46705 0.0
C4280 C 0.92827 0.8464 0.48722 0.0
C4281 C 0.92195 0.83658 0.49294 0.0
C4282 C 0.91703 0.82709 0.48556 0.0
C4283 C 0.91874 0.82719 0.47278 0.0
H4284 H 0.15453 0.93642 0.46973 0.0
H4285 H 0.19146 0.92155 0.466 0.0
H4286 H 0.1558 0.93381 0.49218 0.0
H4287 H 0.1926 0.91882 0.48839 0.0
H4288 H 0.1831 0.90323 0.52726 0.0
H4289 H 0.18107 0.90549 0.50485 0.0
H4290 H 0.16948 0.94339 0.50966 0.0
H4291 H 0.17165 0.94124 0.53207 0.0
C4292 C 0.16289 0.93256 0.47369 0.0
C4293 C 0.1729 0.92921 0.4661 0.0
C4294 C 0.16362 0.93112 0.48652 0.0
C4295 C 0.17429 0.92609 0.49198 0.0
C4296 C 0.18424 0.92262 0.4844 0.0
C4297 C 0.1836 0.92426 0.47159 0.0
C4298 C 0.18007 0.91203 0.52355 0.0
C4299 C 0.17757 0.92207 0.53143 0.0
C4300 C 0.17897 0.91333 0.51073 0.0
C4301 C 0.17514 0.92461 0.50557 0.0
C4302 C 0.17238 0.93457 0.51344 0.0
C4303 C 0.17369 0.93335 0.52624 0.0
H4304 H 0.09293 0.82581 0.47118 0.0
H4305 H 0.05554 0.81187 0.46852 0.0
H4306 H 0.09094 0.82676 0.49364 0.0
H4307 H 0.05358 0.81289 0.49098 0.0
H4308 H 0.06024 0.80405 0.53227 0.0
H4309 H 0.06235 0.80267 0.50982 0.0
H4310 H 0.07895 0.83899 0.50912 0.0
H4311 H 0.07691 0.84039 0.53153 0.0
C4312 C 0.08429 0.82293 0.47537 0.0
C4313 C 0.07439 0.81878 0.46803 0.0
C4314 C 0.08314 0.82354 0.48824 0.0
C4315 C 0.0721 0.81991 0.49407 0.0
C4316 C 0.06224 0.81564 0.48675 0.0
C4317 C 0.06335 0.81513 0.47388 0.0
C4318 C 0.06434 0.81174 0.52733 0.0
C4319 C 0.0684 0.82233 0.53371 0.0
C4320 C 0.06549 0.81097 0.51447 0.0
C4321 C 0.07083 0.82071 0.50772 0.0
C4322 C 0.07492 0.83128 0.51409 0.0
C4323 C 0.07368 0.8321 0.52693 0.0
H4324 H 0.17021 0.05934 0.47095 0.0
H4325 H 0.18354 0.09684 0.47469 0.0
H4326 H 0.16858 0.05769 0.49342 0.0
H4327 H 0.18206 0.09507 0.49722 0.0
H4328 H 0.19304 0.07862 0.53603 0.0
H4329 H 0.19348 0.08144 0.51359 0.0
H4330 H 0.15594 0.06809 0.51111 0.0
H4331 H 0.15539 0.06541 0.53356 0.0
C4332 C 0.17276 0.06724 0.47656 0.0
C4333 C 0.17703 0.07822 0.47105 0.0
C4334 C 0.17177 0.0663 0.48941 0.0
C4335 C 0.17522 0.07624 0.49702 0.0
C4336 C 0.17941 0.08725 0.49154 0.0
C4337 C 0.18019 0.08828 0.47866 0.0
C4338 C 0.18487 0.07631 0.5307 0.0
C4339 C 0.17419 0.07176 0.53656 0.0
C4340 C 0.18511 0.078 0.51789 0.0
C4341 C 0.17475 0.07498 0.51065 0.0
C4342 C 0.16407 0.07044 0.51649 0.0
C4343 C 0.16375 0.06895 0.52933 0.0
H4344 H 0.92462 0.15777 0.53318 0.0
H4345 H 0.93951 0.19481 0.53567 0.0
H4346 H 0.92271 0.16009 0.5108 0.0
H4347 H 0.93749 0.19711 0.51335 0.0
H4348 H 0.94488 0.19117 0.47197 0.0
H4349 H 0.94685 0.18855 0.49427 0.0
H4350 H 0.91039 0.17229 0.49564 0.0
H4351 H 0.90841 0.17481 0.4733 0.0
C4352 C 0.92748 0.1664 0.52897 0.0
C4353 C 0.93223 0.1761 0.53623 0.0
C4354 C 0.92632 0.16775 0.51616 0.0
C4355 C 0.92996 0.17878 0.51032 0.0
C4356 C 0.93474 0.18845 0.51756 0.0
C4357 C 0.93583 0.18714 0.53037 0.0
C4358 C 0.93727 0.18703 0.477 0.0
C4359 C 0.92647 0.18322 0.47083 0.0
C4360 C 0.93839 0.18559 0.4898 0.0
C4361 C 0.92877 0.18023 0.49671 0.0
C4362 C 0.91801 0.17635 0.49055 0.0
C4363 C 0.91685 0.17786 0.47776 0.0
H4364 H 0.8258 0.9074 0.47375 0.0
H4365 H 0.81295 0.94523 0.47204 0.0
H4366 H 0.82683 0.90881 0.49627 0.0
H4367 H 0.81405 0.94662 0.49451 0.0
H4368 H 0.80457 0.93956 0.53533 0.0
H4369 H 0.80336 0.93773 0.51287 0.0
H4370 H 0.83913 0.91997 0.51233 0.0
H4371 H 0.84035 0.92172 0.53479 0.0
C4372 C 0.8232 0.91601 0.47816 0.0
C4373 C 0.81929 0.9262 0.47108 0.0
C4374 C 0.82385 0.91684 0.49105 0.0
C4375 C 0.8205 0.92782 0.49715 0.0
C4376 C 0.81656 0.93798 0.49008 0.0
C4377 C 0.816 0.9372 0.4772 0.0
C4378 C 0.81217 0.93525 0.53044 0.0
C4379 C 0.82257 0.93081 0.53688 0.0
C4380 C 0.8115 0.93426 0.51756 0.0
C4381 C 0.82115 0.92872 0.51084 0.0
C4382 C 0.83149 0.92418 0.51727 0.0
C4383 C 0.83222 0.92525 0.53014 0.0
H4384 H 0.46705 0.06457 0.152 0.0
H4385 H 0.46552 0.07689 0.19001 0.0
H4386 H 0.48958 0.06654 0.1523 0.0
H4387 H 0.48801 0.07894 0.19022 0.0
H4388 H 0.52708 0.09316 0.18116 0.0
H4389 H 0.50456 0.09224 0.17941 0.0
H4390 H 0.5072 0.05552 0.16396 0.0
H4391 H 0.5297 0.05634 0.16578 0.0
C4392 C 0.4715 0.06775 0.16039 0.0
C4393 C 0.4645 0.07054 0.17099 0.0
C4394 C 0.48439 0.06883 0.16057 0.0
C4395 C 0.4905 0.07292 0.17127 0.0
C4396 C 0.48351 0.07588 0.18181 0.0
C4397 C 0.47065 0.07462 0.18171 0.0
C4398 C 0.52287 0.08493 0.17728 0.0
C4399 C 0.53017 0.0748 0.17365 0.0
C4400 C 0.50999 0.08439 0.17635 0.0
C4401 C 0.50417 0.07379 0.1716 0.0
C4402 C 0.51147 0.06383 0.16759 0.0
C4403 C 0.52434 0.06429 0.16868 0.0
H4404 H 0.93721 0.46632 0.19216 0.0
H4405 H 0.92013 0.46681 0.15601 0.0
H4406 H 0.93565 0.48883 0.19317 0.0
H4407 H 0.91849 0.48934 0.15713 0.0
H4408 H 0.90628 0.52839 0.1717 0.0
H4409 H 0.90709 0.50576 0.17057 0.0
H4410 H 0.94564 0.50662 0.18092 0.0
H4411 H 0.94493 0.52912 0.18194 0.0
C4412 C 0.93308 0.47121 0.18446 0.0
C4413 C 0.92885 0.46478 0.17398 0.0
C4414 C 0.93223 0.48409 0.18502 0.0
C4415 C 0.92696 0.4908 0.17522 0.0
C4416 C 0.92252 0.48438 0.16484 0.0
C4417 C 0.92354 0.4715 0.16418 0.0
C4418 C 0.91492 0.52374 0.17371 0.0
C4419 C 0.92553 0.53055 0.1769 0.0
C4420 C 0.91539 0.51081 0.17302 0.0
C4421 C 0.92641 0.50447 0.17572 0.0
C4422 C 0.93699 0.51128 0.17892 0.0
C4423 C 0.93659 0.52417 0.17942 0.0
H4424 H 0.47323 0.9037 0.18262 0.0
H4425 H 0.46993 0.94174 0.17075 0.0
H4426 H 0.49573 0.90516 0.18094 0.0
H4427 H 0.49245 0.94307 0.1689 0.0
H4428 H 0.53237 0.9339 0.15449 0.0
H4429 H 0.50981 0.93233 0.15549 0.0
H4430 H 0.51239 0.91834 0.19278 0.0
H4431 H 0.53492 0.92008 0.19192 0.0
C4432 C 0.47729 0.91233 0.17955 0.0
C4433 C 0.46981 0.92262 0.17684 0.0
C4434 C 0.49016 0.91317 0.17866 0.0
C4435 C 0.49578 0.92423 0.17482 0.0
C4436 C 0.48831 0.93443 0.17183 0.0
C4437 C 0.47545 0.93367 0.17294 0.0
C4438 C 0.52812 0.93049 0.1629 0.0
C4439 C 0.53541 0.92713 0.17314 0.0
C4440 C 0.51523 0.92965 0.16347 0.0
C4441 C 0.50941 0.92519 0.17419 0.0
C4442 C 0.51668 0.92172 0.18438 0.0
C4443 C 0.52955 0.92279 0.1839 0.0
H4444 H 0.06181 0.53408 0.18984 0.0
H4445 H 0.07833 0.53228 0.15347 0.0
H4446 H 0.06336 0.51166 0.19164 0.0
H4447 H 0.07983 0.50982 0.1553 0.0
H4448 H 0.09298 0.47178 0.17023 0.0
H4449 H 0.09141 0.4942 0.16799 0.0
H4450 H 0.05396 0.49298 0.18179 0.0
H4451 H 0.05549 0.4706 0.18409 0.0
C4452 C 0.06577 0.52892 0.18222 0.0
C4453 C 0.06994 0.53499 0.1715 0.0
C4454 C 0.06659 0.51606 0.18323 0.0
C4455 C 0.07169 0.50899 0.1736 0.0
C4456 C 0.07594 0.51504 0.16291 0.0
C4457 C 0.07502 0.5279 0.16185 0.0
C4458 C 0.0844 0.47628 0.17278 0.0
C4459 C 0.07437 0.46938 0.17737 0.0
C4460 C 0.08349 0.48911 0.17142 0.0
C4461 C 0.07257 0.49534 0.17474 0.0
C4462 C 0.06253 0.48845 0.17928 0.0
C4463 C 0.0634 0.47561 0.18053 0.0
H4464 H 0.46608 0.92377 0.84246 0.0
H4465 H 0.46521 0.9403 0.80606 0.0
H4466 H 0.48852 0.92163 0.84091 0.0
H4467 H 0.4876 0.93812 0.80455 0.0
H4468 H 0.52862 0.94528 0.81291 0.0
H4469 H 0.50625 0.94716 0.81476 0.0
H4470 H 0.50416 0.90968 0.82841 0.0
H4471 H 0.52662 0.90776 0.8266 0.0
C4472 C 0.47066 0.92695 0.83414 0.0
C4473 C 0.46384 0.93223 0.82439 0.0
C4474 C 0.4835 0.92566 0.83323 0.0
C4475 C 0.48981 0.92972 0.82262 0.0
C4476 C 0.483 0.93502 0.8129 0.0
C4477 C 0.47016 0.93621 0.81375 0.0
C4478 C 0.52342 0.93743 0.81632 0.0
C4479 C 0.52943 0.92636 0.81959 0.0
C4480 C 0.51059 0.93849 0.81732 0.0
C4481 C 0.50346 0.92856 0.8217 0.0
C4482 C 0.50944 0.91753 0.82509 0.0
C4483 C 0.52229 0.91641 0.82399 0.0
H4484 H 0.05907 0.53174 0.81245 0.0
H4485 H 0.09574 0.52999 0.82829 0.0
H4486 H 0.05726 0.50932 0.81419 0.0
H4487 H 0.09388 0.50754 0.83 0.0
H4488 H 0.07938 0.46955 0.84351 0.0
H4489 H 0.08121 0.492 0.84195 0.0
H4490 H 0.0672 0.49058 0.80458 0.0
H4491 H 0.06534 0.46813 0.80609 0.0
C4492 C 0.06674 0.52659 0.81632 0.0
C4493 C 0.07756 0.53267 0.82022 0.0
C4494 C 0.06572 0.51374 0.81725 0.0
C4495 C 0.07543 0.50669 0.82221 0.0
C4496 C 0.08621 0.51276 0.82623 0.0
C4497 C 0.08729 0.5256 0.82518 0.0
C4498 C 0.07668 0.47402 0.83496 0.0
C4499 C 0.0722 0.46704 0.82493 0.0
C4500 C 0.07779 0.48687 0.83405 0.0
C4501 C 0.07434 0.49303 0.82315 0.0
C4502 C 0.06982 0.48608 0.81314 0.0
C4503 C 0.06882 0.47322 0.81399 0.0
H4504 H 0.46842 0.06279 0.83452 0.0
H4505 H 0.4712 0.09996 0.82008 0.0
H4506 H 0.4908 0.06212 0.83714 0.0
H4507 H 0.49368 0.09922 0.82267 0.0
H4508 H 0.5332 0.08387 0.81302 0.0
H4509 H 0.51082 0.08665 0.81236 0.0
H4510 H 0.50789 0.07248 0.84957 0.0
H4511 H 0.53031 0.06972 0.85031 0.0
C4512 C 0.4738 0.07085 0.83198 0.0
C4513 C 0.46803 0.08141 0.82704 0.0
C4514 C 0.48661 0.07048 0.83356 0.0
C4515 C 0.49397 0.08061 0.83009 0.0
C4516 C 0.48822 0.09126 0.82534 0.0
C4517 C 0.47536 0.0917 0.82392 0.0
C4518 C 0.52781 0.08142 0.8211 0.0
C4519 C 0.53354 0.07651 0.8317 0.0
C4520 C 0.515 0.0831 0.82074 0.0
C4521 C 0.50763 0.07977 0.8309 0.0
C4522 C 0.51335 0.07505 0.84158 0.0
C4523 C 0.52619 0.07352 0.842 0.0
H4524 H 0.90627 0.47575 0.82015 0.0
H4525 H 0.94334 0.47241 0.83476 0.0
H4526 H 0.90755 0.49823 0.82217 0.0
H4527 H 0.94453 0.49487 0.83684 0.0
H4528 H 0.93675 0.53526 0.84886 0.0
H4529 H 0.93421 0.51277 0.84871 0.0
H4530 H 0.92084 0.5145 0.81113 0.0
H4531 H 0.92344 0.53691 0.81119 0.0
C4532 C 0.91462 0.47979 0.82393 0.0
C4533 C 0.92473 0.4723 0.82723 0.0
C4534 C 0.91537 0.49265 0.82502 0.0
C4535 C 0.92615 0.49827 0.82961 0.0
C4536 C 0.93608 0.49077 0.83334 0.0
C4537 C 0.93541 0.47792 0.83209 0.0
C4538 C 0.93323 0.53084 0.84058 0.0
C4539 C 0.93033 0.53787 0.83002 0.0
C4540 C 0.93182 0.51798 0.84049 0.0
C4541 C 0.9273 0.51192 0.82992 0.0
C4542 C 0.92422 0.51895 0.81944 0.0
C4543 C 0.9258 0.53177 0.81946 0.0
H4544 H 0.15278 0.46539 0.06866 0.0
H4545 H 0.19224 0.4645 0.07506 0.0
H4546 H 0.15288 0.48784 0.07129 0.0
H4547 H 0.19226 0.48694 0.07779 0.0
H4548 H 0.18463 0.52555 0.09409 0.0
H4549 H 0.18319 0.50299 0.093 0.0
H4550 H 0.16236 0.50591 0.05907 0.0
H4551 H 0.16386 0.52842 0.06005 0.0
C4552 C 0.16146 0.46997 0.07068 0.0
C4553 C 0.17251 0.46317 0.07161 0.0
C4554 C 0.16151 0.48281 0.07215 0.0
C4555 C 0.17257 0.48909 0.07478 0.0
C4556 C 0.18359 0.4823 0.07589 0.0
C4557 C 0.18358 0.46947 0.07424 0.0
C4558 C 0.17961 0.52138 0.08648 0.0
C4559 C 0.17439 0.52876 0.07713 0.0
C4560 C 0.17887 0.50849 0.08582 0.0
C4561 C 0.17272 0.50274 0.07592 0.0
C4562 C 0.1671 0.51012 0.06683 0.0
C4563 C 0.168 0.52299 0.06738 0.0
H4564 H 0.18415 0.4759 0.90583 0.0
H4565 H 0.16324 0.47341 0.93981 0.0
H4566 H 0.18327 0.49848 0.90699 0.0
H4567 H 0.16229 0.49595 0.94087 0.0
H4568 H 0.15384 0.53676 0.93141 0.0
H4569 H 0.15334 0.51433 0.92872 0.0
H4570 H 0.19275 0.51419 0.9223 0.0
H4571 H 0.19332 0.53662 0.92508 0.0
C4572 C 0.17921 0.48016 0.91344 0.0
C4573 C 0.1738 0.47288 0.92275 0.0
C4574 C 0.17879 0.49306 0.91414 0.0
C4575 C 0.17277 0.49892 0.92405 0.0
C4576 C 0.16694 0.49165 0.9331 0.0
C4577 C 0.16752 0.47876 0.9325 0.0
C4578 C 0.1624 0.53196 0.9294 0.0
C4579 C 0.17363 0.53846 0.92849 0.0
C4580 C 0.1621 0.51913 0.92789 0.0
C4581 C 0.173 0.51256 0.92527 0.0
C4582 C 0.1842 0.51906 0.9242 0.0
C4583 C 0.18453 0.53188 0.92588 0.0
H4584 H 0.46476 0.19158 0.94001 0.0
H4585 H 0.46434 0.15532 0.92314 0.0
H4586 H 0.48729 0.19187 0.93879 0.0
H4587 H 0.48694 0.1557 0.92187 0.0
H4588 H 0.52589 0.17026 0.90875 0.0
H4589 H 0.50338 0.16853 0.91027 0.0
H4590 H 0.50508 0.17983 0.94853 0.0
H4591 H 0.52751 0.18151 0.94709 0.0
C4592 C 0.46947 0.18367 0.93604 0.0
C4593 C 0.46276 0.17342 0.93168 0.0
C4594 C 0.48237 0.18382 0.93541 0.0
C4595 C 0.48883 0.1738 0.93026 0.0
C4596 C 0.48216 0.16357 0.92582 0.0
C4597 C 0.46925 0.16334 0.92661 0.0
C4598 C 0.52147 0.17229 0.91751 0.0
C4599 C 0.5285 0.17606 0.92778 0.0
C4600 C 0.5086 0.17124 0.91838 0.0
C4601 C 0.50251 0.17411 0.9295 0.0
C4602 C 0.50954 0.17768 0.93982 0.0
C4603 C 0.5224 0.17858 0.93899 0.0
H4604 H 0.82382 0.53427 0.89841 0.0
H4605 H 0.83682 0.53345 0.93622 0.0
H4606 H 0.82562 0.51176 0.89735 0.0
H4607 H 0.83852 0.51103 0.93515 0.0
H4608 H 0.84865 0.47139 0.92688 0.0
H4609 H 0.84993 0.49386 0.92498 0.0
H4610 H 0.81414 0.49442 0.90726 0.0
H4611 H 0.81286 0.472 0.90904 0.0
C4612 C 0.82718 0.52932 0.90644 0.0
C4613 C 0.83009 0.53566 0.91743 0.0
C4614 C 0.82816 0.51643 0.90585 0.0
C4615 C 0.83218 0.50963 0.91618 0.0
C4616 C 0.83552 0.51601 0.92699 0.0
C4617 C 0.83445 0.52887 0.92762 0.0
C4618 C 0.84113 0.47629 0.92242 0.0
C4619 C 0.8306 0.46991 0.91821 0.0
C4620 C 0.84184 0.48916 0.92139 0.0
C4621 C 0.8321 0.49591 0.91604 0.0
C4622 C 0.82184 0.48947 0.91133 0.0
C4623 C 0.82108 0.47662 0.91243 0.0
H4624 H 0.46693 0.82244 0.89815 0.0
H4625 H 0.46716 0.83922 0.93445 0.0
H4626 H 0.48946 0.82417 0.89728 0.0
H4627 H 0.48959 0.84082 0.93359 0.0
H4628 H 0.52945 0.84987 0.92514 0.0
H4629 H 0.50701 0.85101 0.92283 0.0
H4630 H 0.50658 0.81374 0.90846 0.0
H4631 H 0.52897 0.8126 0.91063 0.0
C4632 C 0.47175 0.82662 0.90587 0.0
C4633 C 0.46525 0.83061 0.91641 0.0
C4634 C 0.48465 0.82755 0.90539 0.0
C4635 C 0.49129 0.83258 0.91538 0.0
C4636 C 0.48474 0.83702 0.92569 0.0
C4637 C 0.47188 0.83601 0.92621 0.0
C4638 C 0.52459 0.84197 0.92135 0.0
C4639 C 0.531 0.83111 0.91817 0.0
C4640 C 0.51173 0.84261 0.92008 0.0
C4641 C 0.50503 0.83244 0.91552 0.0
C4642 C 0.51149 0.82177 0.91189 0.0
C4643 C 0.52432 0.8211 0.91322 0.0
H4644 H 0.81037 0.47103 0.05573 0.0
H4645 H 0.82822 0.47159 0.09151 0.0
H4646 H 0.81234 0.49347 0.05443 0.0
H4647 H 0.83011 0.49404 0.09019 0.0
H4648 H 0.84357 0.53209 0.07632 0.0
H4649 H 0.84161 0.50965 0.07762 0.0
H4650 H 0.8038 0.51217 0.06499 0.0
H4651 H 0.80573 0.53461 0.06362 0.0
C4652 C 0.8147 0.47593 0.06332 0.0
C4653 C 0.81914 0.4695 0.07373 0.0
C4654 C 0.81576 0.48879 0.0626 0.0
C4655 C 0.82137 0.49551 0.07221 0.0
C4656 C 0.82585 0.4891 0.08259 0.0
C4657 C 0.8247 0.47624 0.08337 0.0
C4658 C 0.83484 0.52787 0.07381 0.0
C4659 C 0.82481 0.53516 0.06986 0.0
C4660 C 0.8337 0.51502 0.07462 0.0
C4661 C 0.82256 0.50916 0.0714 0.0
C4662 C 0.81255 0.51642 0.06741 0.0
C4663 C 0.81364 0.52929 0.06669 0.0
H4664 H 0.46564 0.8469 0.06616 0.0
H4665 H 0.46353 0.80778 0.07419 0.0
H4666 H 0.4881 0.84619 0.06879 0.0
H4667 H 0.48596 0.80718 0.07698 0.0
H4668 H 0.52467 0.81506 0.09358 0.0
H4669 H 0.50215 0.817 0.09218 0.0
H4670 H 0.50587 0.83505 0.05677 0.0
H4671 H 0.52833 0.83297 0.05803 0.0
C4672 C 0.46995 0.83817 0.06854 0.0
C4673 C 0.46282 0.82738 0.06993 0.0
C4674 C 0.48279 0.83778 0.07001 0.0
C4675 C 0.48871 0.82665 0.07313 0.0
C4676 C 0.48158 0.8159 0.07468 0.0
C4677 C 0.46877 0.81624 0.073 0.0
C4678 C 0.52069 0.81955 0.08556 0.0
C4679 C 0.52826 0.82382 0.07589 0.0
C4680 C 0.50782 0.82059 0.08474 0.0
C4681 C 0.50232 0.82613 0.07435 0.0
C4682 C 0.5099 0.83079 0.0649 0.0
C4683 C 0.52274 0.82956 0.06561 0.0
H4684 H 0.53369 0.15125 0.06751 0.0
H4685 H 0.53524 0.18953 0.07898 0.0
H4686 H 0.51117 0.15158 0.06957 0.0
H4687 H 0.51275 0.18976 0.08113 0.0
H4688 H 0.47381 0.18089 0.09588 0.0
H4689 H 0.49633 0.17924 0.09478 0.0
H4690 H 0.49341 0.16291 0.05846 0.0
H4691 H 0.47091 0.16463 0.05946 0.0
C4692 C 0.52924 0.15971 0.07051 0.0
C4693 C 0.53625 0.17038 0.07305 0.0
C4694 C 0.51636 0.1599 0.07165 0.0
C4695 C 0.51025 0.17068 0.07554 0.0
C4696 C 0.51725 0.18129 0.07823 0.0
C4697 C 0.53011 0.18117 0.07691 0.0
C4698 C 0.47796 0.17683 0.08771 0.0
C4699 C 0.47058 0.17292 0.07774 0.0
C4700 C 0.49084 0.17597 0.08706 0.0
C4701 C 0.49659 0.171 0.07652 0.0
C4702 C 0.48921 0.16672 0.06672 0.0
C4703 C 0.47634 0.16775 0.06728 0.0
H4704 H 0.57386 0.65037 0.96978 0.0
H4705 H 0.58823 0.68769 0.97039 0.0
H4706 H 0.57552 0.6494 0.99227 0.0
H4707 H 0.58982 0.68669 0.99286 0.0
H4708 H 0.59973 0.67754 0.03267 0.0
H4709 H 0.60085 0.67596 0.01015 0.0
H4710 H 0.56428 0.65991 0.00945 0.0
H4711 H 0.56315 0.66142 0.0319 0.0
C4712 C 0.57748 0.65832 0.97468 0.0
C4713 C 0.58083 0.66914 0.96828 0.0
C4714 C 0.57838 0.65777 0.98757 0.0
C4715 C 0.58275 0.66798 0.99432 0.0
C4716 C 0.58652 0.67863 0.9879 0.0
C4717 C 0.58553 0.67923 0.97502 0.0
C4718 C 0.59199 0.67353 0.02773 0.0
C4719 C 0.58132 0.66968 0.03408 0.0
C4720 C 0.59262 0.67269 0.01483 0.0
C4721 C 0.58263 0.66786 0.00804 0.0
C4722 C 0.57217 0.66357 0.01444 0.0
C4723 C 0.57149 0.66451 0.0273 0.0
H4724 H 0.31905 0.5949 0.02745 0.0
H4725 H 0.33988 0.56084 0.02956 0.0
H4726 H 0.32038 0.59427 0.00488 0.0
H4727 H 0.34127 0.56031 0.00703 0.0
H4728 H 0.35048 0.57055 0.96662 0.0
H4729 H 0.35058 0.57284 0.9891 0.0
H4730 H 0.31119 0.57936 0.98864 0.0
H4731 H 0.31102 0.57699 0.96616 0.0
C4732 C 0.32406 0.58739 0.02312 0.0
C4733 C 0.32932 0.5779 0.03029 0.0
C4734 C 0.32474 0.58699 0.01021 0.0
C4735 C 0.33087 0.57721 0.00424 0.0
C4736 C 0.33654 0.56799 0.01141 0.0
C4737 C 0.33571 0.56828 0.0243 0.0
C4738 C 0.34185 0.57251 0.9713 0.0
C4739 C 0.33073 0.57355 0.96461 0.0
C4740 C 0.34191 0.57378 0.98416 0.0
C4741 C 0.3309 0.5763 0.99057 0.0
C4742 C 0.31983 0.57754 0.98389 0.0
C4743 C 0.31972 0.57609 0.97105 0.0
H4744 H 0.40377 0.31637 0.02706 0.0
H4745 H 0.43777 0.33715 0.0303 0.0
H4746 H 0.40484 0.31824 0.00452 0.0
H4747 H 0.43874 0.33907 0.00784 0.0
H4748 H 0.4296 0.34927 0.96749 0.0
H4749 H 0.42674 0.34883 0.98991 0.0
H4750 H 0.41993 0.30952 0.98829 0.0
H4751 H 0.42287 0.30989 0.9659 0.0
C4752 C 0.41137 0.32148 0.02299 0.0
C4753 C 0.42071 0.32657 0.03046 0.0
C4754 C 0.41202 0.32247 0.0101 0.0
C4755 C 0.4219 0.32876 0.00446 0.0
C4756 C 0.43098 0.33424 0.01195 0.0
C4757 C 0.43045 0.33309 0.0248 0.0
C4758 C 0.42746 0.34054 0.9719 0.0
C4759 C 0.42652 0.3296 0.96492 0.0
C4760 C 0.42585 0.34029 0.98473 0.0
C4761 C 0.42308 0.32915 0.99081 0.0
C4762 C 0.42193 0.31826 0.98382 0.0
C4763 C 0.42372 0.31846 0.97102 0.0
H4764 H 0.67849 0.39994 0.03342 0.0
H4765 H 0.67148 0.43929 0.03475 0.0
H4766 H 0.67576 0.40024 0.011 0.0
H4767 H 0.66871 0.43952 0.01234 0.0
H4768 H 0.65356 0.43264 0.97325 0.0
H4769 H 0.65418 0.43092 0.9958 0.0
H4770 H 0.68794 0.40975 0.99328 0.0
H4771 H 0.6874 0.41149 0.9708 0.0
C4772 C 0.67629 0.40863 0.02896 0.0
C4773 C 0.67526 0.41961 0.03587 0.0
C4774 C 0.67476 0.4088 0.01612 0.0
C4775 C 0.67202 0.4199 0.00995 0.0
C4776 C 0.6707 0.43081 0.01688 0.0
C4777 C 0.67238 0.43068 0.0297 0.0
C4778 C 0.66104 0.42751 0.9775 0.0
C4779 C 0.67046 0.42225 0.97024 0.0
C4780 C 0.66142 0.42659 0.9904 0.0
C4781 C 0.67112 0.42024 0.99627 0.0
C4782 C 0.6803 0.41462 0.989 0.0
C4783 C 0.68002 0.41568 0.97613 0.0
H4784 H 0.57453 0.30636 0.03454 0.0
H4785 H 0.56976 0.34606 0.03433 0.0
H4786 H 0.57743 0.30664 0.0121 0.0
H4787 H 0.57257 0.34626 0.01193 0.0
H4788 H 0.56071 0.33691 0.97133 0.0
H4789 H 0.55987 0.33772 0.99386 0.0
H4790 H 0.59286 0.31533 0.99596 0.0
H4791 H 0.59381 0.3146 0.97333 0.0
C4792 C 0.57411 0.31513 0.02972 0.0
C4793 C 0.57186 0.32618 0.03622 0.0
C4794 C 0.57587 0.31529 0.0169 0.0
C4795 C 0.57523 0.32647 0.01031 0.0
C4796 C 0.57305 0.33751 0.01679 0.0
C4797 C 0.57147 0.33738 0.02962 0.0
C4798 C 0.56787 0.33226 0.97658 0.0
C4799 C 0.57732 0.32567 0.97055 0.0
C4800 C 0.56741 0.33277 0.98948 0.0
C4801 C 0.57628 0.32655 0.99664 0.0
C4802 C 0.58586 0.32013 0.99064 0.0
C4803 C 0.58644 0.31979 0.97771 0.0
H4804 H 0.67035 0.55959 0.97238 0.0
H4805 H 0.68518 0.59658 0.97554 0.0
H4806 H 0.66803 0.55861 0.99481 0.0
H4807 H 0.68296 0.5955 0.99805 0.0
H4808 H 0.69283 0.57935 0.03728 0.0
H4809 H 0.69351 0.58203 0.01485 0.0
H4810 H 0.65572 0.56947 0.01213 0.0
H4811 H 0.65493 0.56688 0.03458 0.0
C4812 C 0.67304 0.56754 0.97786 0.0
C4813 C 0.67798 0.57815 0.97219 0.0
C4814 C 0.67165 0.56699 0.99069 0.0
C4815 C 0.67535 0.57696 0.99814 0.0
C4816 C 0.68011 0.58765 0.99249 0.0
C4817 C 0.68132 0.58829 0.97962 0.0
C4818 C 0.68464 0.5772 0.03191 0.0
C4819 C 0.67384 0.57286 0.03771 0.0
C4820 C 0.68502 0.57882 0.01909 0.0
C4821 C 0.67466 0.57596 0.01179 0.0
C4822 C 0.66384 0.57168 0.01756 0.0
C4823 C 0.6634 0.57024 0.0304 0.0
H4824 H 0.41983 0.65916 0.03577 0.0
H4825 H 0.43948 0.69399 0.03595 0.0
H4826 H 0.4183 0.66017 0.01325 0.0
H4827 H 0.43791 0.69496 0.01347 0.0
H4828 H 0.44564 0.68446 0.97315 0.0
H4829 H 0.44666 0.68299 0.99558 0.0
H4830 H 0.40793 0.67332 0.99681 0.0
H4831 H 0.40685 0.67476 0.97425 0.0
C4832 C 0.42382 0.66703 0.03102 0.0
C4833 C 0.42982 0.67648 0.03766 0.0
C4834 C 0.42286 0.66763 0.01814 0.0
C4835 C 0.42801 0.67761 0.01162 0.0
C4836 C 0.43397 0.68708 0.01825 0.0
C4837 C 0.43481 0.68655 0.03113 0.0
C4838 C 0.43733 0.68196 0.97816 0.0
C4839 C 0.42614 0.67975 0.97189 0.0
C4840 C 0.43791 0.68121 0.99103 0.0
C4841 C 0.42736 0.67812 0.99793 0.0
C4842 C 0.41622 0.67566 0.99169 0.0
C4843 C 0.4156 0.67653 0.97879 0.0
H4844 H 0.31618 0.40638 0.97398 0.0
H4845 H 0.33863 0.43942 0.97245 0.0
H4846 H 0.31724 0.40677 0.99659 0.0
H4847 H 0.33975 0.43971 0.99499 0.0
H4848 H 0.34796 0.42917 0.03535 0.0
H4849 H 0.34823 0.42674 0.0129 0.0
H4850 H 0.30859 0.42194 0.01289 0.0
H4851 H 0.30825 0.42445 0.03536 0.0
C4852 C 0.32149 0.4136 0.97845 0.0
C4853 C 0.32729 0.42289 0.97144 0.0
C4854 C 0.32202 0.41387 0.99138 0.0
C4855 C 0.32853 0.4233 0.99751 0.0
C4856 C 0.33473 0.43229 0.99049 0.0
C4857 C 0.33404 0.43214 0.97759 0.0
C4858 C 0.3393 0.42755 0.03058 0.0
C4859 C 0.32807 0.42706 0.03713 0.0
C4860 C 0.33947 0.42619 0.01773 0.0
C4861 C 0.32844 0.42413 0.01119 0.0
C4862 C 0.31724 0.4234 0.01774 0.0
C4863 C 0.31705 0.42493 0.03058 0.0
H4864 H 0.96892 0.57878 0.65871 0.0
H4865 H 0.96795 0.56189 0.69494 0.0
H4866 H 0.99139 0.5802 0.65998 0.0
H4867 H 0.99044 0.5634 0.6962 0.0
H4868 H 0.0314 0.5555 0.6871 0.0
H4869 H 0.00891 0.55415 0.68593 0.0
H4870 H 0.00735 0.59158 0.67206 0.0
H4871 H 0.02985 0.59295 0.67315 0.0
C4872 C 0.97348 0.57538 0.66695 0.0
C4873 C 0.96662 0.57021 0.67672 0.0
C4874 C 0.98636 0.57627 0.6677 0.0
C4875 C 0.99268 0.57192 0.67819 0.0
C4876 C 0.98583 0.56672 0.68795 0.0
C4877 C 0.97294 0.56592 0.68725 0.0
C4878 C 0.02628 0.56345 0.68378 0.0
C4879 C 0.03244 0.57433 0.68021 0.0
C4880 C 0.01338 0.56269 0.68319 0.0
C4881 C 0.00637 0.57276 0.67891 0.0
C4882 C 0.01252 0.58362 0.67529 0.0
C4883 C 0.02541 0.58442 0.67597 0.0
H4884 H 0.44652 0.02864 0.6867 0.0
H4885 H 0.40976 0.02685 0.67105 0.0
H4886 H 0.44835 0.00622 0.68491 0.0
H4887 H 0.41163 0.00442 0.66929 0.0
H4888 H 0.42559 0.96629 0.65611 0.0
H4889 H 0.42421 0.98879 0.65737 0.0
H4890 H 0.43831 0.98761 0.69472 0.0
H4891 H 0.43972 0.96512 0.69351 0.0
C4892 C 0.43884 0.02348 0.68285 0.0
C4893 C 0.42798 0.02954 0.67904 0.0
C4894 C 0.43988 0.01064 0.68189 0.0
C4895 C 0.43013 0.00359 0.67698 0.0
C4896 C 0.41933 0.00964 0.67301 0.0
C4897 C 0.41824 0.02248 0.67409 0.0
C4898 C 0.42843 0.97082 0.66459 0.0
C4899 C 0.43276 0.9639 0.67471 0.0
C4900 C 0.42757 0.9837 0.66532 0.0
C4901 C 0.43115 0.98994 0.67614 0.0
C4902 C 0.4356 0.98305 0.68622 0.0
C4903 C 0.43634 0.97016 0.68554 0.0
H4904 H 0.03417 0.43088 0.65201 0.0
H4905 H 0.03538 0.42158 0.69089 0.0
H4906 H 0.0117 0.42876 0.65223 0.0
H4907 H 0.01289 0.41944 0.69103 0.0
H4908 H 0.97352 0.40534 0.68317 0.0
H4909 H 0.99609 0.40576 0.68168 0.0
H4910 H 0.99419 0.44062 0.6623 0.0
H4911 H 0.97169 0.44027 0.6638 0.0
C4912 C 0.02966 0.42834 0.66059 0.0
C4913 C 0.03657 0.42645 0.67145 0.0
C4914 C 0.01679 0.42716 0.66071 0.0
C4915 C 0.01057 0.42393 0.67164 0.0
C4916 C 0.01747 0.42182 0.68245 0.0
C4917 C 0.03033 0.42314 0.68237 0.0
C4918 C 0.97791 0.41302 0.67848 0.0
C4919 C 0.97082 0.42279 0.67364 0.0
C4920 C 0.99083 0.41329 0.6777 0.0
C4921 C 0.99688 0.42324 0.67191 0.0
C4922 C 0.98977 0.43279 0.66673 0.0
C4923 C 0.97689 0.43261 0.66765 0.0
H4924 H 0.59783 0.97123 0.67895 0.0
H4925 H 0.55959 0.96791 0.66777 0.0
H4926 H 0.59665 0.99364 0.67619 0.0
H4927 H 0.5585 0.9903 0.66491 0.0
H4928 H 0.56608 0.02962 0.64961 0.0
H4929 H 0.56829 0.00712 0.651 0.0
H4930 H 0.58454 0.01093 0.68727 0.0
H4931 H 0.58225 0.03335 0.68599 0.0
C4932 C 0.58921 0.97526 0.67582 0.0
C4933 C 0.57879 0.96779 0.67363 0.0
C4934 C 0.58853 0.98809 0.67429 0.0
C4935 C 0.57749 0.99368 0.67034 0.0
C4936 C 0.56716 0.98621 0.66787 0.0
C4937 C 0.56777 0.97341 0.66959 0.0
C4938 C 0.57019 0.02566 0.65785 0.0
C4939 C 0.57395 0.03326 0.66771 0.0
C4940 C 0.57139 0.01279 0.65866 0.0
C4941 C 0.57659 0.00731 0.66924 0.0
C4942 C 0.5806 0.01493 0.67896 0.0
C4943 C 0.57921 0.02775 0.67825 0.0
H4944 H 0.0308 0.44175 0.32925 0.0
H4945 H 0.02657 0.40403 0.31668 0.0
H4946 H 0.00839 0.44357 0.33133 0.0
H4947 H 0.0041 0.40596 0.31864 0.0
H4948 H 0.96522 0.42232 0.30812 0.0
H4949 H 0.9876 0.41931 0.30736 0.0
H4950 H 0.99086 0.43372 0.34444 0.0
H4951 H 0.96843 0.43662 0.34532 0.0
C4952 C 0.0251 0.43384 0.32696 0.0
C4953 C 0.03046 0.42275 0.32277 0.0
C4954 C 0.01228 0.43487 0.32822 0.0
C4955 C 0.00454 0.42491 0.32513 0.0
C4956 C 0.00988 0.4138 0.32101 0.0
C4957 C 0.02272 0.41269 0.31995 0.0
C4958 C 0.97069 0.42482 0.31613 0.0
C4959 C 0.96506 0.42974 0.32677 0.0
C4960 C 0.98349 0.42302 0.31571 0.0
C4961 C 0.99093 0.42628 0.32584 0.0
C4962 C 0.98532 0.43119 0.33649 0.0
C4963 C 0.97249 0.4328 0.33699 0.0
H4964 H 0.5937 0.02605 0.31743 0.0
H4965 H 0.55915 0.02899 0.33733 0.0
H4966 H 0.59251 0.00349 0.31881 0.0
H4967 H 0.55806 0.00649 0.33875 0.0
H4968 H 0.56687 0.96589 0.34835 0.0
H4969 H 0.56973 0.98831 0.34845 0.0
H4970 H 0.57766 0.9875 0.30933 0.0
H4971 H 0.57472 0.9651 0.30916 0.0
C4972 C 0.58596 0.0219 0.32224 0.0
C4973 C 0.5765 0.0293 0.32723 0.0
C4974 C 0.58524 0.009 0.32295 0.0
C4975 C 0.57517 0.00327 0.32884 0.0
C4976 C 0.56596 0.01067 0.33423 0.0
C4977 C 0.56657 0.02354 0.33336 0.0
C4978 C 0.56925 0.97048 0.33978 0.0
C4979 C 0.57052 0.96372 0.32873 0.0
C4980 C 0.57086 0.98331 0.33984 0.0
C4981 C 0.57394 0.98961 0.32891 0.0
C4982 C 0.57541 0.98285 0.31791 0.0
C4983 C 0.57363 0.97004 0.31781 0.0
H4984 H 0.96943 0.56507 0.33617 0.0
H4985 H 0.97319 0.60142 0.31994 0.0
H4986 H 0.99175 0.56404 0.33909 0.0
H4987 H 0.9956 0.60035 0.32289 0.0
H4988 H 0.03438 0.58354 0.31339 0.0
H4989 H 0.01215 0.58716 0.31307 0.0
H4990 H 0.00938 0.57396 0.35066 0.0
H4991 H 0.0317 0.57031 0.35103 0.0
C4992 C 0.975 0.5729 0.33334 0.0
C4993 C 0.96954 0.58329 0.32773 0.0
C4994 C 0.98778 0.57234 0.3351 0.0
C4995 C 0.9954 0.58209 0.33118 0.0
C4996 C 0.98993 0.59265 0.3259 0.0
C4997 C 0.97711 0.59328 0.32427 0.0
C4998 C 0.02907 0.58148 0.32163 0.0
C4999 C 0.03481 0.57655 0.33221 0.0
C5000 C 0.01634 0.58365 0.32147 0.0
C5001 C 0.00904 0.58084 0.33184 0.0
C5002 C 0.01479 0.57614 0.34251 0.0
C5003 C 0.02756 0.57409 0.34273 0.0
H5004 H 0.43976 0.97114 0.33183 0.0
H5005 H 0.40398 0.97451 0.31434 0.0
H5006 H 0.44127 0.99364 0.33308 0.0
H5007 H 0.40563 0.99709 0.31544 0.0
H5008 H 0.4235 0.03579 0.30572 0.0
H5009 H 0.42078 0.01332 0.30526 0.0
H5010 H 0.42924 0.01145 0.34422 0.0
H5011 H 0.43178 0.03391 0.34479 0.0
C5012 C 0.43221 0.97668 0.32829 0.0
C5013 C 0.42175 0.97106 0.32298 0.0
C5014 C 0.43306 0.98955 0.32905 0.0
C5015 C 0.42358 0.99706 0.32433 0.0
C5016 C 0.41309 0.99147 0.31908 0.0
C5017 C 0.41212 0.97858 0.31852 0.0
C5018 C 0.42476 0.03059 0.31419 0.0
C5019 C 0.42788 0.03662 0.32529 0.0
C5020 C 0.42313 0.01776 0.31393 0.0
C5021 C 0.4248 0.0107 0.3247 0.0
C5022 C 0.42795 0.0167 0.33578 0.0
C5023 C 0.42936 0.02954 0.3361 0.0
H5024 H 0.69014 0.96394 0.57797 0.0
H5025 H 0.652 0.96633 0.56617 0.0
H5026 H 0.69058 0.98627 0.58106 0.0
H5027 H 0.65252 0.98874 0.56925 0.0
H5028 H 0.66631 0.02882 0.55987 0.0
H5029 H 0.66384 0.00644 0.55876 0.0
H5030 H 0.68078 0.00273 0.59473 0.0
H5031 H 0.68325 0.0252 0.5959 0.0
C5032 C 0.68184 0.96922 0.57606 0.0
C5033 C 0.67105 0.96336 0.57176 0.0
C5034 C 0.68208 0.982 0.57793 0.0
C5035 C 0.67158 0.98922 0.57542 0.0
C5036 C 0.66076 0.98338 0.5712 0.0
C5037 C 0.66047 0.97056 0.56947 0.0
C5038 C 0.66941 0.02326 0.56761 0.0
C5039 C 0.67504 0.02878 0.57795 0.0
C5040 C 0.66792 0.01044 0.56699 0.0
C5041 C 0.67216 0.00286 0.57664 0.0
C5042 C 0.67753 0.00837 0.58712 0.0
C5043 C 0.67887 0.02123 0.58781 0.0
H5044 H 0.66912 0.96804 0.43847 0.0
H5045 H 0.68129 0.97131 0.40053 0.0
H5046 H 0.66653 0.99045 0.43956 0.0
H5047 H 0.6788 0.99378 0.40172 0.0
H5048 H 0.68897 0.03326 0.417 0.0
H5049 H 0.68988 0.01086 0.41431 0.0
H5050 H 0.6531 0.00747 0.42947 0.0
H5051 H 0.65208 0.02993 0.43207 0.0
C5052 C 0.6712 0.97353 0.43035 0.0
C5053 C 0.67545 0.9679 0.41942 0.0
C5054 C 0.66964 0.98635 0.43096 0.0
C5055 C 0.67248 0.99382 0.42073 0.0
C5056 C 0.67662 0.98821 0.40976 0.0
C5057 C 0.67799 0.97536 0.40907 0.0
C5058 C 0.68104 0.02776 0.4197 0.0
C5059 C 0.67047 0.03337 0.42479 0.0
C5060 C 0.68154 0.01495 0.41808 0.0
C5061 C 0.67157 0.00746 0.42169 0.0
C5062 C 0.66094 0.01305 0.42667 0.0
C5063 C 0.66035 0.02589 0.42811 0.0
H5064 H 0.02914 0.67115 0.40773 0.0
H5065 H 0.03122 0.68614 0.44474 0.0
H5066 H 0.00678 0.66883 0.40996 0.0
H5067 H 0.00891 0.68377 0.44694 0.0
H5068 H 0.9677 0.69178 0.43974 0.0
H5069 H 0.99007 0.69338 0.43766 0.0
H5070 H 0.99136 0.65651 0.42237 0.0
H5071 H 0.9689 0.65487 0.42441 0.0
C5072 C 0.02485 0.67392 0.41634 0.0
C5073 C 0.03198 0.67887 0.42604 0.0
C5074 C 0.01205 0.67252 0.41764 0.0
C5075 C 0.0061 0.67614 0.42861 0.0
C5076 C 0.01323 0.68102 0.43833 0.0
C5077 C 0.02602 0.68232 0.43708 0.0
C5078 C 0.97272 0.684 0.43594 0.0
C5079 C 0.96649 0.67319 0.43225 0.0
C5080 C 0.98556 0.6849 0.43481 0.0
C5081 C 0.99247 0.67507 0.42987 0.0
C5082 C 0.98626 0.66427 0.42613 0.0
C5083 C 0.97341 0.66331 0.42736 0.0
H5084 H 0.31823 0.02786 0.40561 0.0
H5085 H 0.32928 0.03147 0.44386 0.0
H5086 H 0.32019 0.00539 0.40719 0.0
H5087 H 0.33139 0.00899 0.44534 0.0
H5088 H 0.34597 0.96906 0.43727 0.0
H5089 H 0.34502 0.9916 0.43532 0.0
H5090 H 0.30828 0.98874 0.41997 0.0
H5091 H 0.30911 0.96626 0.42205 0.0
C5092 C 0.32118 0.02387 0.41432 0.0
C5093 C 0.32356 0.03143 0.42463 0.0
C5094 C 0.32224 0.01102 0.41523 0.0
C5095 C 0.32591 0.0055 0.42639 0.0
C5096 C 0.3286 0.01305 0.43661 0.0
C5097 C 0.32733 0.02589 0.43577 0.0
C5098 C 0.3377 0.97324 0.43347 0.0
C5099 C 0.3276 0.96588 0.42984 0.0
C5100 C 0.33715 0.98612 0.43241 0.0
C5101 C 0.32659 0.99186 0.42747 0.0
C5102 C 0.31656 0.98452 0.42371 0.0
C5103 C 0.31702 0.97167 0.42498 0.0
H5104 H 0.96582 0.32472 0.39992 0.0
H5105 H 0.9653 0.33139 0.43935 0.0
H5106 H 0.98829 0.32706 0.39987 0.0
H5107 H 0.98773 0.33368 0.43925 0.0
H5108 H 0.02717 0.34716 0.43285 0.0
H5109 H 0.00461 0.34752 0.43109 0.0
H5110 H 0.00582 0.31459 0.40853 0.0
H5111 H 0.02828 0.3142 0.41024 0.0
C5112 C 0.97048 0.32676 0.40856 0.0
C5113 C 0.96377 0.32779 0.41966 0.0
C5114 C 0.98334 0.32806 0.40852 0.0
C5115 C 0.98976 0.33055 0.41955 0.0
C5116 C 0.98303 0.3319 0.43058 0.0
C5117 C 0.97018 0.33048 0.43065 0.0
C5118 C 0.02263 0.34009 0.42738 0.0
C5119 C 0.02951 0.33061 0.42174 0.0
C5120 C 0.00972 0.34027 0.42644 0.0
C5121 C 0.00347 0.33105 0.41972 0.0
C5122 C 0.01039 0.32187 0.41369 0.0
C5123 C 0.02326 0.32161 0.41473 0.0
H5124 H 0.34571 0.03027 0.56465 0.0
H5125 H 0.30858 0.03391 0.57902 0.0
H5126 H 0.34421 0.00777 0.56655 0.0
H5127 H 0.30721 0.01143 0.58107 0.0
H5128 H 0.31677 0.97204 0.59591 0.0
H5129 H 0.31863 0.99452 0.59417 0.0
H5130 H 0.33045 0.99066 0.55624 0.0
H5131 H 0.32843 0.96819 0.55786 0.0
C5132 C 0.33726 0.02628 0.56825 0.0
C5133 C 0.32726 0.03386 0.57166 0.0
C5134 C 0.33639 0.01342 0.56928 0.0
C5135 C 0.3256 0.00791 0.57397 0.0
C5136 C 0.31565 0.01547 0.5775 0.0
C5137 C 0.31643 0.02832 0.57626 0.0
C5138 C 0.3198 0.97598 0.58721 0.0
C5139 C 0.32243 0.96834 0.57701 0.0
C5140 C 0.3208 0.98884 0.58621 0.0
C5141 C 0.32467 0.99429 0.57507 0.0
C5142 C 0.32751 0.98667 0.56495 0.0
C5143 C 0.3263 0.97383 0.56587 0.0
H5144 H 0.96883 0.34768 0.57543 0.0
H5145 H 0.966 0.30981 0.56288 0.0
H5146 H 0.99129 0.34542 0.57697 0.0
H5147 H 0.98836 0.30761 0.56446 0.0
H5148 H 0.0295 0.31282 0.55594 0.0
H5149 H 0.00726 0.31597 0.554 0.0
H5150 H 0.0065 0.33331 0.58997 0.0
H5151 H 0.02879 0.33022 0.59195 0.0
C5152 C 0.97298 0.3389 0.57298 0.0
C5153 C 0.96562 0.32892 0.56904 0.0
C5154 C 0.98582 0.33759 0.57393 0.0
C5155 C 0.99156 0.32635 0.57081 0.0
C5156 C 0.98421 0.31642 0.56679 0.0
C5157 C 0.97139 0.31768 0.56596 0.0
C5158 C 0.02462 0.31734 0.56343 0.0
C5159 C 0.03093 0.32122 0.57412 0.0
C5160 C 0.01187 0.31909 0.56234 0.0
C5161 C 0.00515 0.32486 0.57185 0.0
C5162 C 0.01146 0.32893 0.58245 0.0
C5163 C 0.02421 0.32707 0.58361 0.0
H5164 H 0.97152 0.66872 0.5586 0.0
H5165 H 0.97554 0.68324 0.59564 0.0
H5166 H 0.99395 0.66664 0.55699 0.0
H5167 H 0.99801 0.68125 0.59393 0.0
H5168 H 0.03694 0.69101 0.57772 0.0
H5169 H 0.01452 0.69189 0.5803 0.0
H5170 H 0.01148 0.65424 0.56736 0.0
H5171 H 0.03393 0.65326 0.56486 0.0
C5172 C 0.97718 0.67142 0.56642 0.0
C5173 C 0.97176 0.67617 0.57724 0.0
C5174 C 0.99001 0.67017 0.5655 0.0
C5175 C 0.99768 0.67382 0.57532 0.0
C5176 C 0.99229 0.67845 0.58619 0.0
C5177 C 0.97944 0.67952 0.58719 0.0
C5178 C 0.0315 0.68291 0.57543 0.0
C5179 C 0.03721 0.67207 0.57106 0.0
C5180 C 0.01869 0.6834 0.57699 0.0
C5181 C 0.0113 0.67312 0.57405 0.0
C5182 C 0.01698 0.6623 0.56964 0.0
C5183 C 0.02982 0.66174 0.56825 0.0
loop_
_geom_bond_atom_site_label_1
_geom_bond_atom_site_label_2
_geom_bond_distance
_geom_bond_site_symmetry_2
_ccdc_geom_bond_type
O0 Cd1 2.223 . S
O0 C8 1.315 . S
Cd1 O0 2.223 . S
Cd1 O4 2.297 . S
Cd1 O5 2.439 . S
Cd1 O11 2.240 . S
Cd2 O3 2.240 . S
Cd2 O10 2.223 . S
Cd2 O12 2.297 . S
Cd2 O13 2.439 . S
O3 Cd2 2.240 . S
O3 C8 1.279 . S
O4 Cd1 2.297 . S
O4 C6 1.247 . S
O5 Cd1 2.439 . S
O5 C6 1.208 . S
C6 O4 1.247 . S
C6 O5 1.208 . S
C7 O12 1.247 . S
C7 O13 1.208 . S
C8 O0 1.315 . S
C8 O3 1.279 . S
C9 O10 1.315 . S
C9 O11 1.279 . S
O10 Cd2 2.223 . S
O10 C9 1.315 . S
O11 Cd1 2.240 . S
O11 C9 1.279 . S
O12 Cd2 2.297 . S
O12 C7 1.247 . S
O13 Cd2 2.439 . S
O13 C7 1.208 . S
O14 Cd15 2.223 . S
O14 C22 1.315 . S
Cd15 O14 2.223 . S
Cd15 O18 2.297 . S
Cd15 O19 2.439 . S
Cd15 O25 2.240 . S
Cd16 O17 2.240 . S
Cd16 O24 2.223 . S
Cd16 O26 2.297 . S
Cd16 O27 2.439 . S
O17 Cd16 2.240 . S
O17 C22 1.279 . S
O18 Cd15 2.297 . S
O18 C20 1.247 . S
O19 Cd15 2.439 . S
O19 C20 1.208 . S
C20 O18 1.247 . S
C20 O19 1.208 . S
C21 O26 1.247 . S
C21 O27 1.208 . S
C22 O14 1.315 . S
C22 O17 1.279 . S
C23 O24 1.315 . S
C23 O25 1.279 . S
O24 Cd16 2.223 . S
O24 C23 1.315 . S
O25 Cd15 2.240 . S
O25 C23 1.279 . S
O26 Cd16 2.297 . S
O26 C21 1.247 . S
O27 Cd16 2.439 . S
O27 C21 1.208 . S
O28 Cd29 2.223 . S
O28 C36 1.315 . S
Cd29 O28 2.223 . S
Cd29 O32 2.297 . S
Cd29 O33 2.439 . S
Cd29 O39 2.240 . S
Cd30 O31 2.240 . S
Cd30 O38 2.223 . S
Cd30 O40 2.297 . S
Cd30 O41 2.439 . S
O31 Cd30 2.240 . S
O31 C36 1.279 . S
O32 Cd29 2.297 . S
O32 C34 1.247 . S
O33 Cd29 2.439 . S
O33 C34 1.208 . S
C34 O32 1.247 . S
C34 O33 1.208 . S
C35 O40 1.247 . S
C35 O41 1.208 . S
C36 O28 1.315 . S
C36 O31 1.279 . S
C37 O38 1.315 . S
C37 O39 1.279 . S
O38 Cd30 2.223 . S
O38 C37 1.315 . S
O39 Cd29 2.240 . S
O39 C37 1.279 . S
O40 Cd30 2.297 . S
O40 C35 1.247 . S
O41 Cd30 2.439 . S
O41 C35 1.208 . S
O42 Cd43 2.223 . S
O42 C50 1.315 . S
Cd43 O42 2.223 . S
Cd43 O46 2.297 . S
Cd43 O47 2.439 . S
Cd43 O53 2.240 . S
Cd44 O45 2.240 . S
Cd44 O52 2.223 . S
Cd44 O54 2.297 . S
Cd44 O55 2.439 . S
O45 Cd44 2.240 . S
O45 C50 1.279 . S
O46 Cd43 2.297 . S
O46 C48 1.247 . S
O47 Cd43 2.439 . S
O47 C48 1.208 . S
C48 O46 1.247 . S
C48 O47 1.208 . S
C49 O54 1.247 . S
C49 O55 1.208 . S
C50 O42 1.315 . S
C50 O45 1.279 . S
C51 O52 1.315 . S
C51 O53 1.279 . S
O52 Cd44 2.223 . S
O52 C51 1.315 . S
O53 Cd43 2.240 . S
O53 C51 1.279 . S
O54 Cd44 2.297 . S
O54 C49 1.247 . S
O55 Cd44 2.439 . S
O55 C49 1.208 . S
O56 Cd57 2.223 . S
O56 C64 1.315 . S
Cd57 O56 2.223 . S
Cd57 O60 2.297 . S
Cd57 O61 2.439 . S
Cd57 O67 2.240 . S
Cd58 O59 2.240 . S
Cd58 O66 2.223 . S
Cd58 O68 2.297 . S
Cd58 O69 2.439 . S
O59 Cd58 2.240 . S
O59 C64 1.279 . S
O60 Cd57 2.297 . S
O60 C62 1.247 . S
O61 Cd57 2.439 . S
O61 C62 1.208 . S
C62 O60 1.247 . S
C62 O61 1.208 . S
C63 O68 1.247 . S
C63 O69 1.208 . S
C64 O56 1.315 . S
C64 O59 1.279 . S
C65 O66 1.315 . S
C65 O67 1.279 . S
O66 Cd58 2.223 . S
O66 C65 1.315 . S
O67 Cd57 2.240 . S
O67 C65 1.279 . S
O68 Cd58 2.297 . S
O68 C63 1.247 . S
O69 Cd58 2.439 . S
O69 C63 1.208 . S
O70 Cd71 2.223 . S
O70 C78 1.315 . S
Cd71 O70 2.223 . S
Cd71 O74 2.297 . S
Cd71 O75 2.439 . S
Cd71 O81 2.240 . S
Cd72 O73 2.240 . S
Cd72 O80 2.223 . S
Cd72 O82 2.297 . S
Cd72 O83 2.439 . S
O73 Cd72 2.240 . S
O73 C78 1.279 . S
O74 Cd71 2.297 . S
O74 C76 1.247 . S
O75 Cd71 2.439 . S
O75 C76 1.208 . S
C76 O74 1.247 . S
C76 O75 1.208 . S
C77 O82 1.247 . S
C77 O83 1.208 . S
C78 O70 1.315 . S
C78 O73 1.279 . S
C79 O80 1.315 . S
C79 O81 1.279 . S
O80 Cd72 2.223 . S
O80 C79 1.315 . S
O81 Cd71 2.240 . S
O81 C79 1.279 . S
O82 Cd72 2.297 . S
O82 C77 1.247 . S
O83 Cd72 2.439 . S
O83 C77 1.208 . S
O84 Cd85 2.223 . S
O84 C92 1.315 . S
Cd85 O84 2.223 . S
Cd85 O88 2.297 . S
Cd85 O89 2.439 . S
Cd85 O95 2.240 . S
Cd86 O87 2.240 . S
Cd86 O94 2.223 . S
Cd86 O96 2.297 . S
Cd86 O97 2.439 . S
O87 Cd86 2.240 . S
O87 C92 1.279 . S
O88 Cd85 2.297 . S
O88 C90 1.247 . S
O89 Cd85 2.439 . S
O89 C90 1.208 . S
C90 O88 1.247 . S
C90 O89 1.208 . S
C91 O96 1.247 . S
C91 O97 1.208 . S
C92 O84 1.315 . S
C92 O87 1.279 . S
C93 O94 1.315 . S
C93 O95 1.279 . S
O94 Cd86 2.223 . S
O94 C93 1.315 . S
O95 Cd85 2.240 . S
O95 C93 1.279 . S
O96 Cd86 2.297 . S
O96 C91 1.247 . S
O97 Cd86 2.439 . S
O97 C91 1.208 . S
O98 Cd99 2.223 . S
O98 C106 1.315 . S
Cd99 O98 2.223 . S
Cd99 O102 2.297 . S
Cd99 O103 2.439 . S
Cd99 O109 2.240 . S
Cd100 O101 2.240 . S
Cd100 O108 2.223 . S
Cd100 O110 2.297 . S
Cd100 O111 2.439 . S
O101 Cd100 2.240 . S
O101 C106 1.279 . S
O102 Cd99 2.297 . S
O102 C104 1.247 . S
O103 Cd99 2.439 . S
O103 C104 1.208 . S
C104 O102 1.247 . S
C104 O103 1.208 . S
C105 O110 1.247 . S
C105 O111 1.208 . S
C106 O98 1.315 . S
C106 O101 1.279 . S
C107 O108 1.315 . S
C107 O109 1.279 . S
O108 Cd100 2.223 . S
O108 C107 1.315 . S
O109 Cd99 2.240 . S
O109 C107 1.279 . S
O110 Cd100 2.297 . S
O110 C105 1.247 . S
O111 Cd100 2.439 . S
O111 C105 1.208 . S
O112 Cd113 2.223 . S
O112 C120 1.315 . S
Cd113 O112 2.223 . S
Cd113 O116 2.297 . S
Cd113 O117 2.439 . S
Cd113 O123 2.240 . S
Cd114 O115 2.240 . S
Cd114 O122 2.223 . S
Cd114 O124 2.297 . S
Cd114 O125 2.439 . S
O115 Cd114 2.240 . S
O115 C120 1.279 . S
O116 Cd113 2.297 . S
O116 C118 1.247 . S
O117 Cd113 2.439 . S
O117 C118 1.208 . S
C118 O116 1.247 . S
C118 O117 1.208 . S
C119 O124 1.247 . S
C119 O125 1.208 . S
C120 O112 1.315 . S
C120 O115 1.279 . S
C121 O122 1.315 . S
C121 O123 1.279 . S
O122 Cd114 2.223 . S
O122 C121 1.315 . S
O123 Cd113 2.240 . S
O123 C121 1.279 . S
O124 Cd114 2.297 . S
O124 C119 1.247 . S
O125 Cd114 2.439 . S
O125 C119 1.208 . S
O126 Cd127 2.223 . S
O126 C134 1.315 . S
Cd127 O126 2.223 . S
Cd127 O130 2.297 . S
Cd127 O131 2.439 . S
Cd127 O137 2.240 . S
Cd128 O129 2.240 . S
Cd128 O136 2.223 . S
Cd128 O138 2.297 . S
Cd128 O139 2.439 . S
O129 Cd128 2.240 . S
O129 C134 1.279 . S
O130 Cd127 2.297 . S
O130 C132 1.247 . S
O131 Cd127 2.439 . S
O131 C132 1.208 . S
C132 O130 1.247 . S
C132 O131 1.208 . S
C133 O138 1.247 . S
C133 O139 1.208 . S
C134 O126 1.315 . S
C134 O129 1.279 . S
C135 O136 1.315 . S
C135 O137 1.279 . S
O136 Cd128 2.223 . S
O136 C135 1.315 . S
O137 Cd127 2.240 . S
O137 C135 1.279 . S
O138 Cd128 2.297 . S
O138 C133 1.247 . S
O139 Cd128 2.439 . S
O139 C133 1.208 . S
O140 Cd141 2.223 . S
O140 C148 1.315 . S
Cd141 O140 2.223 . S
Cd141 O144 2.297 . S
Cd141 O145 2.439 . S
Cd141 O151 2.240 . S
Cd142 O143 2.240 . S
Cd142 O150 2.223 . S
Cd142 O152 2.297 . S
Cd142 O153 2.439 . S
O143 Cd142 2.240 . S
O143 C148 1.279 . S
O144 Cd141 2.297 . S
O144 C146 1.247 . S
O145 Cd141 2.439 . S
O145 C146 1.208 . S
C146 O144 1.247 . S
C146 O145 1.208 . S
C147 O152 1.247 . S
C147 O153 1.208 . S
C148 O140 1.315 . S
C148 O143 1.279 . S
C149 O150 1.315 . S
C149 O151 1.279 . S
O150 Cd142 2.223 . S
O150 C149 1.315 . S
O151 Cd141 2.240 . S
O151 C149 1.279 . S
O152 Cd142 2.297 . S
O152 C147 1.247 . S
O153 Cd142 2.439 . S
O153 C147 1.208 . S
O154 Cd155 2.223 . S
O154 C162 1.315 . S
Cd155 O154 2.223 . S
Cd155 O158 2.297 . S
Cd155 O159 2.439 . S
Cd155 O165 2.240 . S
Cd156 O157 2.240 . S
Cd156 O164 2.223 . S
Cd156 O166 2.297 . S
Cd156 O167 2.439 . S
O157 Cd156 2.240 . S
O157 C162 1.279 . S
O158 Cd155 2.297 . S
O158 C160 1.247 . S
O159 Cd155 2.439 . S
O159 C160 1.208 . S
C160 O158 1.247 . S
C160 O159 1.208 . S
C161 O166 1.247 . S
C161 O167 1.208 . S
C162 O154 1.315 . S
C162 O157 1.279 . S
C163 O164 1.315 . S
C163 O165 1.279 . S
O164 Cd156 2.223 . S
O164 C163 1.315 . S
O165 Cd155 2.240 . S
O165 C163 1.279 . S
O166 Cd156 2.297 . S
O166 C161 1.247 . S
O167 Cd156 2.439 . S
O167 C161 1.208 . S
O168 Cd169 2.223 . S
O168 C176 1.315 . S
Cd169 O168 2.223 . S
Cd169 O172 2.297 . S
Cd169 O173 2.439 . S
Cd169 O179 2.240 . S
Cd170 O171 2.240 . S
Cd170 O178 2.223 . S
Cd170 O180 2.297 . S
Cd170 O181 2.439 . S
O171 Cd170 2.240 . S
O171 C176 1.279 . S
O172 Cd169 2.297 . S
O172 C174 1.247 . S
O173 Cd169 2.439 . S
O173 C174 1.208 . S
C174 O172 1.247 . S
C174 O173 1.208 . S
C175 O180 1.247 . S
C175 O181 1.208 . S
C176 O168 1.315 . S
C176 O171 1.279 . S
C177 O178 1.315 . S
C177 O179 1.279 . S
O178 Cd170 2.223 . S
O178 C177 1.315 . S
O179 Cd169 2.240 . S
O179 C177 1.279 . S
O180 Cd170 2.297 . S
O180 C175 1.247 . S
O181 Cd170 2.439 . S
O181 C175 1.208 . S
O182 Cd183 2.223 . S
O182 C190 1.315 . S
Cd183 O182 2.223 . S
Cd183 O186 2.297 . S
Cd183 O187 2.439 . S
Cd183 O193 2.240 . S
Cd184 O185 2.240 . S
Cd184 O192 2.223 . S
Cd184 O194 2.297 . S
Cd184 O195 2.439 . S
O185 Cd184 2.240 . S
O185 C190 1.279 . S
O186 Cd183 2.297 . S
O186 C188 1.247 . S
O187 Cd183 2.439 . S
O187 C188 1.208 . S
C188 O186 1.247 . S
C188 O187 1.208 . S
C189 O194 1.247 . S
C189 O195 1.208 . S
C190 O182 1.315 . S
C190 O185 1.279 . S
C191 O192 1.315 . S
C191 O193 1.279 . S
O192 Cd184 2.223 . S
O192 C191 1.315 . S
O193 Cd183 2.240 . S
O193 C191 1.279 . S
O194 Cd184 2.297 . S
O194 C189 1.247 . S
O195 Cd184 2.439 . S
O195 C189 1.208 . S
O196 Cd197 2.223 . S
O196 C204 1.315 . S
Cd197 O196 2.223 . S
Cd197 O200 2.297 . S
Cd197 O201 2.439 . S
Cd197 O207 2.240 . S
Cd198 O199 2.240 . S
Cd198 O206 2.223 . S
Cd198 O208 2.297 . S
Cd198 O209 2.439 . S
O199 Cd198 2.240 . S
O199 C204 1.279 . S
O200 Cd197 2.297 . S
O200 C202 1.247 . S
O201 Cd197 2.439 . S
O201 C202 1.208 . S
C202 O200 1.247 . S
C202 O201 1.208 . S
C203 O208 1.247 . S
C203 O209 1.208 . S
C204 O196 1.315 . S
C204 O199 1.279 . S
C205 O206 1.315 . S
C205 O207 1.279 . S
O206 Cd198 2.223 . S
O206 C205 1.315 . S
O207 Cd197 2.240 . S
O207 C205 1.279 . S
O208 Cd198 2.297 . S
O208 C203 1.247 . S
O209 Cd198 2.439 . S
O209 C203 1.208 . S
O210 Cd211 2.223 . S
O210 C218 1.315 . S
Cd211 O210 2.223 . S
Cd211 O214 2.297 . S
Cd211 O215 2.439 . S
Cd211 O221 2.240 . S
Cd212 O213 2.240 . S
Cd212 O220 2.223 . S
Cd212 O222 2.297 . S
Cd212 O223 2.439 . S
O213 Cd212 2.240 . S
O213 C218 1.279 . S
O214 Cd211 2.297 . S
O214 C216 1.247 . S
O215 Cd211 2.439 . S
O215 C216 1.208 . S
C216 O214 1.247 . S
C216 O215 1.208 . S
C217 O222 1.247 . S
C217 O223 1.208 . S
C218 O210 1.315 . S
C218 O213 1.279 . S
C219 O220 1.315 . S
C219 O221 1.279 . S
O220 Cd212 2.223 . S
O220 C219 1.315 . S
O221 Cd211 2.240 . S
O221 C219 1.279 . S
O222 Cd212 2.297 . S
O222 C217 1.247 . S
O223 Cd212 2.439 . S
O223 C217 1.208 . S
O224 Cd225 2.223 . S
O224 C232 1.315 . S
Cd225 O224 2.223 . S
Cd225 O228 2.297 . S
Cd225 O229 2.439 . S
Cd225 O235 2.240 . S
Cd226 O227 2.240 . S
Cd226 O234 2.223 . S
Cd226 O236 2.297 . S
Cd226 O237 2.439 . S
O227 Cd226 2.240 . S
O227 C232 1.279 . S
O228 Cd225 2.297 . S
O228 C230 1.247 . S
O229 Cd225 2.439 . S
O229 C230 1.208 . S
C230 O228 1.247 . S
C230 O229 1.208 . S
C231 O236 1.247 . S
C231 O237 1.208 . S
C232 O224 1.315 . S
C232 O227 1.279 . S
C233 O234 1.315 . S
C233 O235 1.279 . S
O234 Cd226 2.223 . S
O234 C233 1.315 . S
O235 Cd225 2.240 . S
O235 C233 1.279 . S
O236 Cd226 2.297 . S
O236 C231 1.247 . S
O237 Cd226 2.439 . S
O237 C231 1.208 . S
O238 Cd239 2.223 . S
O238 C246 1.315 . S
Cd239 O238 2.223 . S
Cd239 O242 2.297 . S
Cd239 O243 2.439 . S
Cd239 O249 2.240 . S
Cd240 O241 2.240 . S
Cd240 O248 2.223 . S
Cd240 O250 2.297 . S
Cd240 O251 2.439 . S
O241 Cd240 2.240 . S
O241 C246 1.279 . S
O242 Cd239 2.297 . S
O242 C244 1.247 . S
O243 Cd239 2.439 . S
O243 C244 1.208 . S
C244 O242 1.247 . S
C244 O243 1.208 . S
C245 O250 1.247 . S
C245 O251 1.208 . S
C246 O238 1.315 . S
C246 O241 1.279 . S
C247 O248 1.315 . S
C247 O249 1.279 . S
O248 Cd240 2.223 . S
O248 C247 1.315 . S
O249 Cd239 2.240 . S
O249 C247 1.279 . S
O250 Cd240 2.297 . S
O250 C245 1.247 . S
O251 Cd240 2.439 . S
O251 C245 1.208 . S
O252 Cd253 2.223 . S
O252 C260 1.315 . S
Cd253 O252 2.223 . S
Cd253 O256 2.297 . S
Cd253 O257 2.439 . S
Cd253 O263 2.240 . S
Cd254 O255 2.240 . S
Cd254 O262 2.223 . S
Cd254 O264 2.297 . S
Cd254 O265 2.439 . S
O255 Cd254 2.240 . S
O255 C260 1.279 . S
O256 Cd253 2.297 . S
O256 C258 1.247 . S
O257 Cd253 2.439 . S
O257 C258 1.208 . S
C258 O256 1.247 . S
C258 O257 1.208 . S
C259 O264 1.247 . S
C259 O265 1.208 . S
C260 O252 1.315 . S
C260 O255 1.279 . S
C261 O262 1.315 . S
C261 O263 1.279 . S
O262 Cd254 2.223 . S
O262 C261 1.315 . S
O263 Cd253 2.240 . S
O263 C261 1.279 . S
O264 Cd254 2.297 . S
O264 C259 1.247 . S
O265 Cd254 2.439 . S
O265 C259 1.208 . S
O266 Cd267 2.223 . S
O266 C274 1.315 . S
Cd267 O266 2.223 . S
Cd267 O270 2.297 . S
Cd267 O271 2.439 . S
Cd267 O277 2.240 . S
Cd268 O269 2.240 . S
Cd268 O276 2.223 . S
Cd268 O278 2.297 . S
Cd268 O279 2.439 . S
O269 Cd268 2.240 . S
O269 C274 1.279 . S
O270 Cd267 2.297 . S
O270 C272 1.247 . S
O271 Cd267 2.439 . S
O271 C272 1.208 . S
C272 O270 1.247 . S
C272 O271 1.208 . S
C273 O278 1.247 . S
C273 O279 1.208 . S
C274 O266 1.315 . S
C274 O269 1.279 . S
C275 O276 1.315 . S
C275 O277 1.279 . S
O276 Cd268 2.223 . S
O276 C275 1.315 . S
O277 Cd267 2.240 . S
O277 C275 1.279 . S
O278 Cd268 2.297 . S
O278 C273 1.247 . S
O279 Cd268 2.439 . S
O279 C273 1.208 . S
O280 Cd281 2.223 . S
O280 C288 1.315 . S
Cd281 O280 2.223 . S
Cd281 O284 2.297 . S
Cd281 O285 2.439 . S
Cd281 O291 2.240 . S
Cd282 O283 2.240 . S
Cd282 O290 2.223 . S
Cd282 O292 2.297 . S
Cd282 O293 2.439 . S
O283 Cd282 2.240 . S
O283 C288 1.279 . S
O284 Cd281 2.297 . S
O284 C286 1.247 . S
O285 Cd281 2.439 . S
O285 C286 1.208 . S
C286 O284 1.247 . S
C286 O285 1.208 . S
C287 O292 1.247 . S
C287 O293 1.208 . S
C288 O280 1.315 . S
C288 O283 1.279 . S
C289 O290 1.315 . S
C289 O291 1.279 . S
O290 Cd282 2.223 . S
O290 C289 1.315 . S
O291 Cd281 2.240 . S
O291 C289 1.279 . S
O292 Cd282 2.297 . S
O292 C287 1.247 . S
O293 Cd282 2.439 . S
O293 C287 1.208 . S
O294 Cd295 2.223 . S
O294 C302 1.315 . S
Cd295 O294 2.223 . S
Cd295 O298 2.297 . S
Cd295 O299 2.439 . S
Cd295 O305 2.240 . S
Cd296 O297 2.240 . S
Cd296 O304 2.223 . S
Cd296 O306 2.297 . S
Cd296 O307 2.439 . S
O297 Cd296 2.240 . S
O297 C302 1.279 . S
O298 Cd295 2.297 . S
O298 C300 1.247 . S
O299 Cd295 2.439 . S
O299 C300 1.208 . S
C300 O298 1.247 . S
C300 O299 1.208 . S
C301 O306 1.247 . S
C301 O307 1.208 . S
C302 O294 1.315 . S
C302 O297 1.279 . S
C303 O304 1.315 . S
C303 O305 1.279 . S
O304 Cd296 2.223 . S
O304 C303 1.315 . S
O305 Cd295 2.240 . S
O305 C303 1.279 . S
O306 Cd296 2.297 . S
O306 C301 1.247 . S
O307 Cd296 2.439 . S
O307 C301 1.208 . S
O308 Cd309 2.223 . S
O308 C316 1.315 . S
Cd309 O308 2.223 . S
Cd309 O312 2.297 . S
Cd309 O313 2.439 . S
Cd309 O319 2.240 . S
Cd310 O311 2.240 . S
Cd310 O318 2.223 . S
Cd310 O320 2.297 . S
Cd310 O321 2.439 . S
O311 Cd310 2.240 . S
O311 C316 1.279 . S
O312 Cd309 2.297 . S
O312 C314 1.247 . S
O313 Cd309 2.439 . S
O313 C314 1.208 . S
C314 O312 1.247 . S
C314 O313 1.208 . S
C315 O320 1.247 . S
C315 O321 1.208 . S
C316 O308 1.315 . S
C316 O311 1.279 . S
C317 O318 1.315 . S
C317 O319 1.279 . S
O318 Cd310 2.223 . S
O318 C317 1.315 . S
O319 Cd309 2.240 . S
O319 C317 1.279 . S
O320 Cd310 2.297 . S
O320 C315 1.247 . S
O321 Cd310 2.439 . S
O321 C315 1.208 . S
O322 Cd323 2.223 . S
O322 C330 1.315 . S
Cd323 O322 2.223 . S
Cd323 O326 2.297 . S
Cd323 O327 2.439 . S
Cd323 O333 2.240 . S
Cd324 O325 2.240 . S
Cd324 O332 2.223 . S
Cd324 O334 2.297 . S
Cd324 O335 2.439 . S
O325 Cd324 2.240 . S
O325 C330 1.279 . S
O326 Cd323 2.297 . S
O326 C328 1.247 . S
O327 Cd323 2.439 . S
O327 C328 1.208 . S
C328 O326 1.247 . S
C328 O327 1.208 . S
C329 O334 1.247 . S
C329 O335 1.208 . S
C330 O322 1.315 . S
C330 O325 1.279 . S
C331 O332 1.315 . S
C331 O333 1.279 . S
O332 Cd324 2.223 . S
O332 C331 1.315 . S
O333 Cd323 2.240 . S
O333 C331 1.279 . S
O334 Cd324 2.297 . S
O334 C329 1.247 . S
O335 Cd324 2.439 . S
O335 C329 1.208 . S
O336 Cd337 2.223 . S
O336 C344 1.315 . S
Cd337 O336 2.223 . S
Cd337 O340 2.297 . S
Cd337 O341 2.439 . S
Cd337 O347 2.240 . S
Cd338 O339 2.240 . S
Cd338 O346 2.223 . S
Cd338 O348 2.297 . S
Cd338 O349 2.439 . S
O339 Cd338 2.240 . S
O339 C344 1.279 . S
O340 Cd337 2.297 . S
O340 C342 1.247 . S
O341 Cd337 2.439 . S
O341 C342 1.208 . S
C342 O340 1.247 . S
C342 O341 1.208 . S
C343 O348 1.247 . S
C343 O349 1.208 . S
C344 O336 1.315 . S
C344 O339 1.279 . S
C345 O346 1.315 . S
C345 O347 1.279 . S
O346 Cd338 2.223 . S
O346 C345 1.315 . S
O347 Cd337 2.240 . S
O347 C345 1.279 . S
O348 Cd338 2.297 . S
O348 C343 1.247 . S
O349 Cd338 2.439 . S
O349 C343 1.208 . S
O350 Cd351 2.223 . S
O350 C358 1.315 . S
Cd351 O350 2.223 . S
Cd351 O354 2.297 . S
Cd351 O355 2.439 . S
Cd351 O361 2.240 . S
Cd352 O353 2.240 . S
Cd352 O360 2.223 . S
Cd352 O362 2.297 . S
Cd352 O363 2.439 . S
O353 Cd352 2.240 . S
O353 C358 1.279 . S
O354 Cd351 2.297 . S
O354 C356 1.247 . S
O355 Cd351 2.439 . S
O355 C356 1.208 . S
C356 O354 1.247 . S
C356 O355 1.208 . S
C357 O362 1.247 . S
C357 O363 1.208 . S
C358 O350 1.315 . S
C358 O353 1.279 . S
C359 O360 1.315 . S
C359 O361 1.279 . S
O360 Cd352 2.223 . S
O360 C359 1.315 . S
O361 Cd351 2.240 . S
O361 C359 1.279 . S
O362 Cd352 2.297 . S
O362 C357 1.247 . S
O363 Cd352 2.439 . S
O363 C357 1.208 . S
O364 Cd365 2.223 . S
O364 C372 1.315 . S
Cd365 O364 2.223 . S
Cd365 O368 2.297 . S
Cd365 O369 2.439 . S
Cd365 O375 2.240 . S
Cd366 O367 2.240 . S
Cd366 O374 2.223 . S
Cd366 O376 2.297 . S
Cd366 O377 2.439 . S
O367 Cd366 2.240 . S
O367 C372 1.279 . S
O368 Cd365 2.297 . S
O368 C370 1.247 . S
O369 Cd365 2.439 . S
O369 C370 1.208 . S
C370 O368 1.247 . S
C370 O369 1.208 . S
C371 O376 1.247 . S
C371 O377 1.208 . S
C372 O364 1.315 . S
C372 O367 1.279 . S
C373 O374 1.315 . S
C373 O375 1.279 . S
O374 Cd366 2.223 . S
O374 C373 1.315 . S
O375 Cd365 2.240 . S
O375 C373 1.279 . S
O376 Cd366 2.297 . S
O376 C371 1.247 . S
O377 Cd366 2.439 . S
O377 C371 1.208 . S
O378 Cd379 2.223 . S
O378 C386 1.315 . S
Cd379 O378 2.223 . S
Cd379 O382 2.297 . S
Cd379 O383 2.439 . S
Cd379 O389 2.240 . S
Cd380 O381 2.240 . S
Cd380 O388 2.223 . S
Cd380 O390 2.297 . S
Cd380 O391 2.439 . S
O381 Cd380 2.240 . S
O381 C386 1.279 . S
O382 Cd379 2.297 . S
O382 C384 1.247 . S
O383 Cd379 2.439 . S
O383 C384 1.208 . S
C384 O382 1.247 . S
C384 O383 1.208 . S
C385 O390 1.247 . S
C385 O391 1.208 . S
C386 O378 1.315 . S
C386 O381 1.279 . S
C387 O388 1.315 . S
C387 O389 1.279 . S
O388 Cd380 2.223 . S
O388 C387 1.315 . S
O389 Cd379 2.240 . S
O389 C387 1.279 . S
O390 Cd380 2.297 . S
O390 C385 1.247 . S
O391 Cd380 2.439 . S
O391 C385 1.208 . S
O392 Cd393 2.223 . S
O392 C400 1.315 . S
Cd393 O392 2.223 . S
Cd393 O396 2.297 . S
Cd393 O397 2.439 . S
Cd393 O403 2.240 . S
Cd394 O395 2.240 . S
Cd394 O402 2.223 . S
Cd394 O404 2.297 . S
Cd394 O405 2.439 . S
O395 Cd394 2.240 . S
O395 C400 1.279 . S
O396 Cd393 2.297 . S
O396 C398 1.247 . S
O397 Cd393 2.439 . S
O397 C398 1.208 . S
C398 O396 1.247 . S
C398 O397 1.208 . S
C399 O404 1.247 . S
C399 O405 1.208 . S
C400 O392 1.315 . S
C400 O395 1.279 . S
C401 O402 1.315 . S
C401 O403 1.279 . S
O402 Cd394 2.223 . S
O402 C401 1.315 . S
O403 Cd393 2.240 . S
O403 C401 1.279 . S
O404 Cd394 2.297 . S
O404 C399 1.247 . S
O405 Cd394 2.439 . S
O405 C399 1.208 . S
O406 Cd407 2.223 . S
O406 C414 1.315 . S
Cd407 O406 2.223 . S
Cd407 O410 2.297 . S
Cd407 O411 2.439 . S
Cd407 O417 2.240 . S
Cd408 O409 2.240 . S
Cd408 O416 2.223 . S
Cd408 O418 2.297 . S
Cd408 O419 2.439 . S
O409 Cd408 2.240 . S
O409 C414 1.279 . S
O410 Cd407 2.297 . S
O410 C412 1.247 . S
O411 Cd407 2.439 . S
O411 C412 1.208 . S
C412 O410 1.247 . S
C412 O411 1.208 . S
C413 O418 1.247 . S
C413 O419 1.208 . S
C414 O406 1.315 . S
C414 O409 1.279 . S
C415 O416 1.315 . S
C415 O417 1.279 . S
O416 Cd408 2.223 . S
O416 C415 1.315 . S
O417 Cd407 2.240 . S
O417 C415 1.279 . S
O418 Cd408 2.297 . S
O418 C413 1.247 . S
O419 Cd408 2.439 . S
O419 C413 1.208 . S
O420 Cd421 2.223 . S
O420 C428 1.315 . S
Cd421 O420 2.223 . S
Cd421 O424 2.297 . S
Cd421 O425 2.439 . S
Cd421 O431 2.240 . S
Cd422 O423 2.240 . S
Cd422 O430 2.223 . S
Cd422 O432 2.297 . S
Cd422 O433 2.439 . S
O423 Cd422 2.240 . S
O423 C428 1.279 . S
O424 Cd421 2.297 . S
O424 C426 1.247 . S
O425 Cd421 2.439 . S
O425 C426 1.208 . S
C426 O424 1.247 . S
C426 O425 1.208 . S
C427 O432 1.247 . S
C427 O433 1.208 . S
C428 O420 1.315 . S
C428 O423 1.279 . S
C429 O430 1.315 . S
C429 O431 1.279 . S
O430 Cd422 2.223 . S
O430 C429 1.315 . S
O431 Cd421 2.240 . S
O431 C429 1.279 . S
O432 Cd422 2.297 . S
O432 C427 1.247 . S
O433 Cd422 2.439 . S
O433 C427 1.208 . S
O434 Cd435 2.223 . S
O434 C442 1.315 . S
Cd435 O434 2.223 . S
Cd435 O438 2.297 . S
Cd435 O439 2.439 . S
Cd435 O445 2.240 . S
Cd436 O437 2.240 . S
Cd436 O444 2.223 . S
Cd436 O446 2.297 . S
Cd436 O447 2.439 . S
O437 Cd436 2.240 . S
O437 C442 1.279 . S
O438 Cd435 2.297 . S
O438 C440 1.247 . S
O439 Cd435 2.439 . S
O439 C440 1.208 . S
C440 O438 1.247 . S
C440 O439 1.208 . S
C441 O446 1.247 . S
C441 O447 1.208 . S
C442 O434 1.315 . S
C442 O437 1.279 . S
C443 O444 1.315 . S
C443 O445 1.279 . S
O444 Cd436 2.223 . S
O444 C443 1.315 . S
O445 Cd435 2.240 . S
O445 C443 1.279 . S
O446 Cd436 2.297 . S
O446 C441 1.247 . S
O447 Cd436 2.439 . S
O447 C441 1.208 . S
O448 Cd449 2.223 . S
O448 C456 1.315 . S
Cd449 O448 2.223 . S
Cd449 O452 2.297 . S
Cd449 O453 2.439 . S
Cd449 O459 2.240 . S
Cd450 O451 2.240 . S
Cd450 O458 2.223 . S
Cd450 O460 2.297 . S
Cd450 O461 2.439 . S
O451 Cd450 2.240 . S
O451 C456 1.279 . S
O452 Cd449 2.297 . S
O452 C454 1.247 . S
O453 Cd449 2.439 . S
O453 C454 1.208 . S
C454 O452 1.247 . S
C454 O453 1.208 . S
C455 O460 1.247 . S
C455 O461 1.208 . S
C456 O448 1.315 . S
C456 O451 1.279 . S
C457 O458 1.315 . S
C457 O459 1.279 . S
O458 Cd450 2.223 . S
O458 C457 1.315 . S
O459 Cd449 2.240 . S
O459 C457 1.279 . S
O460 Cd450 2.297 . S
O460 C455 1.247 . S
O461 Cd450 2.439 . S
O461 C455 1.208 . S
O462 Cd463 2.223 . S
O462 C470 1.315 . S
Cd463 O462 2.223 . S
Cd463 O466 2.297 . S
Cd463 O467 2.439 . S
Cd463 O473 2.240 . S
Cd464 O465 2.240 . S
Cd464 O472 2.223 . S
Cd464 O474 2.297 . S
Cd464 O475 2.439 . S
O465 Cd464 2.240 . S
O465 C470 1.279 . S
O466 Cd463 2.297 . S
O466 C468 1.247 . S
O467 Cd463 2.439 . S
O467 C468 1.208 . S
C468 O466 1.247 . S
C468 O467 1.208 . S
C469 O474 1.247 . S
C469 O475 1.208 . S
C470 O462 1.315 . S
C470 O465 1.279 . S
C471 O472 1.315 . S
C471 O473 1.279 . S
O472 Cd464 2.223 . S
O472 C471 1.315 . S
O473 Cd463 2.240 . S
O473 C471 1.279 . S
O474 Cd464 2.297 . S
O474 C469 1.247 . S
O475 Cd464 2.439 . S
O475 C469 1.208 . S
O476 Cd477 2.223 . S
O476 C484 1.315 . S
Cd477 O476 2.223 . S
Cd477 O480 2.297 . S
Cd477 O481 2.439 . S
Cd477 O487 2.240 . S
Cd478 O479 2.240 . S
Cd478 O486 2.223 . S
Cd478 O488 2.297 . S
Cd478 O489 2.439 . S
O479 Cd478 2.240 . S
O479 C484 1.279 . S
O480 Cd477 2.297 . S
O480 C482 1.247 . S
O481 Cd477 2.439 . S
O481 C482 1.208 . S
C482 O480 1.247 . S
C482 O481 1.208 . S
C483 O488 1.247 . S
C483 O489 1.208 . S
C484 O476 1.315 . S
C484 O479 1.279 . S
C485 O486 1.315 . S
C485 O487 1.279 . S
O486 Cd478 2.223 . S
O486 C485 1.315 . S
O487 Cd477 2.240 . S
O487 C485 1.279 . S
O488 Cd478 2.297 . S
O488 C483 1.247 . S
O489 Cd478 2.439 . S
O489 C483 1.208 . S
O490 Cd491 2.223 . S
O490 C498 1.315 . S
Cd491 O490 2.223 . S
Cd491 O494 2.297 . S
Cd491 O495 2.439 . S
Cd491 O501 2.240 . S
Cd492 O493 2.240 . S
Cd492 O500 2.223 . S
Cd492 O502 2.297 . S
Cd492 O503 2.439 . S
O493 Cd492 2.240 . S
O493 C498 1.279 . S
O494 Cd491 2.297 . S
O494 C496 1.247 . S
O495 Cd491 2.439 . S
O495 C496 1.208 . S
C496 O494 1.247 . S
C496 O495 1.208 . S
C497 O502 1.247 . S
C497 O503 1.208 . S
C498 O490 1.315 . S
C498 O493 1.279 . S
C499 O500 1.315 . S
C499 O501 1.279 . S
O500 Cd492 2.223 . S
O500 C499 1.315 . S
O501 Cd491 2.240 . S
O501 C499 1.279 . S
O502 Cd492 2.297 . S
O502 C497 1.247 . S
O503 Cd492 2.439 . S
O503 C497 1.208 . S
O504 Cd505 2.223 . S
O504 C512 1.315 . S
Cd505 O504 2.223 . S
Cd505 O508 2.297 . S
Cd505 O509 2.439 . S
Cd505 O515 2.240 . S
Cd506 O507 2.240 . S
Cd506 O514 2.223 . S
Cd506 O516 2.297 . S
Cd506 O517 2.439 . S
O507 Cd506 2.240 . S
O507 C512 1.279 . S
O508 Cd505 2.297 . S
O508 C510 1.247 . S
O509 Cd505 2.439 . S
O509 C510 1.208 . S
C510 O508 1.247 . S
C510 O509 1.208 . S
C511 O516 1.247 . S
C511 O517 1.208 . S
C512 O504 1.315 . S
C512 O507 1.279 . S
C513 O514 1.315 . S
C513 O515 1.279 . S
O514 Cd506 2.223 . S
O514 C513 1.315 . S
O515 Cd505 2.240 . S
O515 C513 1.279 . S
O516 Cd506 2.297 . S
O516 C511 1.247 . S
O517 Cd506 2.439 . S
O517 C511 1.208 . S
O518 Cd519 2.223 . S
O518 C526 1.315 . S
Cd519 O518 2.223 . S
Cd519 O522 2.297 . S
Cd519 O523 2.439 . S
Cd519 O529 2.240 . S
Cd520 O521 2.240 . S
Cd520 O528 2.223 . S
Cd520 O530 2.297 . S
Cd520 O531 2.439 . S
O521 Cd520 2.240 . S
O521 C526 1.279 . S
O522 Cd519 2.297 . S
O522 C524 1.247 . S
O523 Cd519 2.439 . S
O523 C524 1.208 . S
C524 O522 1.247 . S
C524 O523 1.208 . S
C525 O530 1.247 . S
C525 O531 1.208 . S
C526 O518 1.315 . S
C526 O521 1.279 . S
C527 O528 1.315 . S
C527 O529 1.279 . S
O528 Cd520 2.223 . S
O528 C527 1.315 . S
O529 Cd519 2.240 . S
O529 C527 1.279 . S
O530 Cd520 2.297 . S
O530 C525 1.247 . S
O531 Cd520 2.439 . S
O531 C525 1.208 . S
O532 Cd533 2.223 . S
O532 C540 1.315 . S
Cd533 O532 2.223 . S
Cd533 O536 2.297 . S
Cd533 O537 2.439 . S
Cd533 O543 2.240 . S
Cd534 O535 2.240 . S
Cd534 O542 2.223 . S
Cd534 O544 2.297 . S
Cd534 O545 2.439 . S
O535 Cd534 2.240 . S
O535 C540 1.279 . S
O536 Cd533 2.297 . S
O536 C538 1.247 . S
O537 Cd533 2.439 . S
O537 C538 1.208 . S
C538 O536 1.247 . S
C538 O537 1.208 . S
C539 O544 1.247 . S
C539 O545 1.208 . S
C540 O532 1.315 . S
C540 O535 1.279 . S
C541 O542 1.315 . S
C541 O543 1.279 . S
O542 Cd534 2.223 . S
O542 C541 1.315 . S
O543 Cd533 2.240 . S
O543 C541 1.279 . S
O544 Cd534 2.297 . S
O544 C539 1.247 . S
O545 Cd534 2.439 . S
O545 C539 1.208 . S
O546 Cd547 2.223 . S
O546 C554 1.315 . S
Cd547 O546 2.223 . S
Cd547 O550 2.297 . S
Cd547 O551 2.439 . S
Cd547 O557 2.240 . S
Cd548 O549 2.240 . S
Cd548 O556 2.223 . S
Cd548 O558 2.297 . S
Cd548 O559 2.439 . S
O549 Cd548 2.240 . S
O549 C554 1.279 . S
O550 Cd547 2.297 . S
O550 C552 1.247 . S
O551 Cd547 2.439 . S
O551 C552 1.208 . S
C552 O550 1.247 . S
C552 O551 1.208 . S
C553 O558 1.247 . S
C553 O559 1.208 . S
C554 O546 1.315 . S
C554 O549 1.279 . S
C555 O556 1.315 . S
C555 O557 1.279 . S
O556 Cd548 2.223 . S
O556 C555 1.315 . S
O557 Cd547 2.240 . S
O557 C555 1.279 . S
O558 Cd548 2.297 . S
O558 C553 1.247 . S
O559 Cd548 2.439 . S
O559 C553 1.208 . S
O560 Cd561 2.223 . S
O560 C568 1.315 . S
Cd561 O560 2.223 . S
Cd561 O564 2.297 . S
Cd561 O565 2.439 . S
Cd561 O571 2.240 . S
Cd562 O563 2.240 . S
Cd562 O570 2.223 . S
Cd562 O572 2.297 . S
Cd562 O573 2.439 . S
O563 Cd562 2.240 . S
O563 C568 1.279 . S
O564 Cd561 2.297 . S
O564 C566 1.247 . S
O565 Cd561 2.439 . S
O565 C566 1.208 . S
C566 O564 1.247 . S
C566 O565 1.208 . S
C567 O572 1.247 . S
C567 O573 1.208 . S
C568 O560 1.315 . S
C568 O563 1.279 . S
C569 O570 1.315 . S
C569 O571 1.279 . S
O570 Cd562 2.223 . S
O570 C569 1.315 . S
O571 Cd561 2.240 . S
O571 C569 1.279 . S
O572 Cd562 2.297 . S
O572 C567 1.247 . S
O573 Cd562 2.439 . S
O573 C567 1.208 . S
O574 Cd575 2.223 . S
O574 C582 1.315 . S
Cd575 O574 2.223 . S
Cd575 O578 2.297 . S
Cd575 O579 2.439 . S
Cd575 O585 2.240 . S
Cd576 O577 2.240 . S
Cd576 O584 2.223 . S
Cd576 O586 2.297 . S
Cd576 O587 2.439 . S
O577 Cd576 2.240 . S
O577 C582 1.279 . S
O578 Cd575 2.297 . S
O578 C580 1.247 . S
O579 Cd575 2.439 . S
O579 C580 1.208 . S
C580 O578 1.247 . S
C580 O579 1.208 . S
C581 O586 1.247 . S
C581 O587 1.208 . S
C582 O574 1.315 . S
C582 O577 1.279 . S
C583 O584 1.315 . S
C583 O585 1.279 . S
O584 Cd576 2.223 . S
O584 C583 1.315 . S
O585 Cd575 2.240 . S
O585 C583 1.279 . S
O586 Cd576 2.297 . S
O586 C581 1.247 . S
O587 Cd576 2.439 . S
O587 C581 1.208 . S
O588 Cd589 2.223 . S
O588 C596 1.315 . S
Cd589 O588 2.223 . S
Cd589 O592 2.297 . S
Cd589 O593 2.439 . S
Cd589 O599 2.240 . S
Cd590 O591 2.240 . S
Cd590 O598 2.223 . S
Cd590 O600 2.297 . S
Cd590 O601 2.439 . S
O591 Cd590 2.240 . S
O591 C596 1.279 . S
O592 Cd589 2.297 . S
O592 C594 1.247 . S
O593 Cd589 2.439 . S
O593 C594 1.208 . S
C594 O592 1.247 . S
C594 O593 1.208 . S
C595 O600 1.247 . S
C595 O601 1.208 . S
C596 O588 1.315 . S
C596 O591 1.279 . S
C597 O598 1.315 . S
C597 O599 1.279 . S
O598 Cd590 2.223 . S
O598 C597 1.315 . S
O599 Cd589 2.240 . S
O599 C597 1.279 . S
O600 Cd590 2.297 . S
O600 C595 1.247 . S
O601 Cd590 2.439 . S
O601 C595 1.208 . S
O602 Cd603 2.223 . S
O602 C610 1.315 . S
Cd603 O602 2.223 . S
Cd603 O606 2.297 . S
Cd603 O607 2.439 . S
Cd603 O613 2.240 . S
Cd604 O605 2.240 . S
Cd604 O612 2.223 . S
Cd604 O614 2.297 . S
Cd604 O615 2.439 . S
O605 Cd604 2.240 . S
O605 C610 1.279 . S
O606 Cd603 2.297 . S
O606 C608 1.247 . S
O607 Cd603 2.439 . S
O607 C608 1.208 . S
C608 O606 1.247 . S
C608 O607 1.208 . S
C609 O614 1.247 . S
C609 O615 1.208 . S
C610 O602 1.315 . S
C610 O605 1.279 . S
C611 O612 1.315 . S
C611 O613 1.279 . S
O612 Cd604 2.223 . S
O612 C611 1.315 . S
O613 Cd603 2.240 . S
O613 C611 1.279 . S
O614 Cd604 2.297 . S
O614 C609 1.247 . S
O615 Cd604 2.439 . S
O615 C609 1.208 . S
O616 Cd617 2.223 . S
O616 C624 1.315 . S
Cd617 O616 2.223 . S
Cd617 O620 2.297 . S
Cd617 O621 2.439 . S
Cd617 O627 2.240 . S
Cd618 O619 2.240 . S
Cd618 O626 2.223 . S
Cd618 O628 2.297 . S
Cd618 O629 2.439 . S
O619 Cd618 2.240 . S
O619 C624 1.279 . S
O620 Cd617 2.297 . S
O620 C622 1.247 . S
O621 Cd617 2.439 . S
O621 C622 1.208 . S
C622 O620 1.247 . S
C622 O621 1.208 . S
C623 O628 1.247 . S
C623 O629 1.208 . S
C624 O616 1.315 . S
C624 O619 1.279 . S
C625 O626 1.315 . S
C625 O627 1.279 . S
O626 Cd618 2.223 . S
O626 C625 1.315 . S
O627 Cd617 2.240 . S
O627 C625 1.279 . S
O628 Cd618 2.297 . S
O628 C623 1.247 . S
O629 Cd618 2.439 . S
O629 C623 1.208 . S
O630 Cd631 2.223 . S
O630 C638 1.315 . S
Cd631 O630 2.223 . S
Cd631 O634 2.297 . S
Cd631 O635 2.439 . S
Cd631 O641 2.240 . S
Cd632 O633 2.240 . S
Cd632 O640 2.223 . S
Cd632 O642 2.297 . S
Cd632 O643 2.439 . S
O633 Cd632 2.240 . S
O633 C638 1.279 . S
O634 Cd631 2.297 . S
O634 C636 1.247 . S
O635 Cd631 2.439 . S
O635 C636 1.208 . S
C636 O634 1.247 . S
C636 O635 1.208 . S
C637 O642 1.247 . S
C637 O643 1.208 . S
C638 O630 1.315 . S
C638 O633 1.279 . S
C639 O640 1.315 . S
C639 O641 1.279 . S
O640 Cd632 2.223 . S
O640 C639 1.315 . S
O641 Cd631 2.240 . S
O641 C639 1.279 . S
O642 Cd632 2.297 . S
O642 C637 1.247 . S
O643 Cd632 2.439 . S
O643 C637 1.208 . S
O644 Cd645 2.223 . S
O644 C652 1.315 . S
Cd645 O644 2.223 . S
Cd645 O648 2.297 . S
Cd645 O649 2.439 . S
Cd645 O655 2.240 . S
Cd646 O647 2.240 . S
Cd646 O654 2.223 . S
Cd646 O656 2.297 . S
Cd646 O657 2.439 . S
O647 Cd646 2.240 . S
O647 C652 1.279 . S
O648 Cd645 2.297 . S
O648 C650 1.247 . S
O649 Cd645 2.439 . S
O649 C650 1.208 . S
C650 O648 1.247 . S
C650 O649 1.208 . S
C651 O656 1.247 . S
C651 O657 1.208 . S
C652 O644 1.315 . S
C652 O647 1.279 . S
C653 O654 1.315 . S
C653 O655 1.279 . S
O654 Cd646 2.223 . S
O654 C653 1.315 . S
O655 Cd645 2.240 . S
O655 C653 1.279 . S
O656 Cd646 2.297 . S
O656 C651 1.247 . S
O657 Cd646 2.439 . S
O657 C651 1.208 . S
O658 Cd659 2.223 . S
O658 C666 1.315 . S
Cd659 O658 2.223 . S
Cd659 O662 2.297 . S
Cd659 O663 2.439 . S
Cd659 O669 2.240 . S
Cd660 O661 2.240 . S
Cd660 O668 2.223 . S
Cd660 O670 2.297 . S
Cd660 O671 2.439 . S
O661 Cd660 2.240 . S
O661 C666 1.279 . S
O662 Cd659 2.297 . S
O662 C664 1.247 . S
O663 Cd659 2.439 . S
O663 C664 1.208 . S
C664 O662 1.247 . S
C664 O663 1.208 . S
C665 O670 1.247 . S
C665 O671 1.208 . S
C666 O658 1.315 . S
C666 O661 1.279 . S
C667 O668 1.315 . S
C667 O669 1.279 . S
O668 Cd660 2.223 . S
O668 C667 1.315 . S
O669 Cd659 2.240 . S
O669 C667 1.279 . S
O670 Cd660 2.297 . S
O670 C665 1.247 . S
O671 Cd660 2.439 . S
O671 C665 1.208 . S
O672 Cd673 2.223 . S
O672 C680 1.315 . S
Cd673 O672 2.223 . S
Cd673 O676 2.297 . S
Cd673 O677 2.439 . S
Cd673 O683 2.240 . S
Cd674 O675 2.240 . S
Cd674 O682 2.223 . S
Cd674 O684 2.297 . S
Cd674 O685 2.439 . S
O675 Cd674 2.240 . S
O675 C680 1.279 . S
O676 Cd673 2.297 . S
O676 C678 1.247 . S
O677 Cd673 2.439 . S
O677 C678 1.208 . S
C678 O676 1.247 . S
C678 O677 1.208 . S
C679 O684 1.247 . S
C679 O685 1.208 . S
C680 O672 1.315 . S
C680 O675 1.279 . S
C681 O682 1.315 . S
C681 O683 1.279 . S
O682 Cd674 2.223 . S
O682 C681 1.315 . S
O683 Cd673 2.240 . S
O683 C681 1.279 . S
O684 Cd674 2.297 . S
O684 C679 1.247 . S
O685 Cd674 2.439 . S
O685 C679 1.208 . S
O686 Cd687 2.223 . S
O686 C694 1.315 . S
Cd687 O686 2.223 . S
Cd687 O690 2.297 . S
Cd687 O691 2.439 . S
Cd687 O697 2.240 . S
Cd688 O689 2.240 . S
Cd688 O696 2.223 . S
Cd688 O698 2.297 . S
Cd688 O699 2.439 . S
O689 Cd688 2.240 . S
O689 C694 1.279 . S
O690 Cd687 2.297 . S
O690 C692 1.247 . S
O691 Cd687 2.439 . S
O691 C692 1.208 . S
C692 O690 1.247 . S
C692 O691 1.208 . S
C693 O698 1.247 . S
C693 O699 1.208 . S
C694 O686 1.315 . S
C694 O689 1.279 . S
C695 O696 1.315 . S
C695 O697 1.279 . S
O696 Cd688 2.223 . S
O696 C695 1.315 . S
O697 Cd687 2.240 . S
O697 C695 1.279 . S
O698 Cd688 2.297 . S
O698 C693 1.247 . S
O699 Cd688 2.439 . S
O699 C693 1.208 . S
O700 Cd701 2.223 . S
O700 C708 1.315 . S
Cd701 O700 2.223 . S
Cd701 O704 2.297 . S
Cd701 O705 2.439 . S
Cd701 O711 2.240 . S
Cd702 O703 2.240 . S
Cd702 O710 2.223 . S
Cd702 O712 2.297 . S
Cd702 O713 2.439 . S
O703 Cd702 2.240 . S
O703 C708 1.279 . S
O704 Cd701 2.297 . S
O704 C706 1.247 . S
O705 Cd701 2.439 . S
O705 C706 1.208 . S
C706 O704 1.247 . S
C706 O705 1.208 . S
C707 O712 1.247 . S
C707 O713 1.208 . S
C708 O700 1.315 . S
C708 O703 1.279 . S
C709 O710 1.315 . S
C709 O711 1.279 . S
O710 Cd702 2.223 . S
O710 C709 1.315 . S
O711 Cd701 2.240 . S
O711 C709 1.279 . S
O712 Cd702 2.297 . S
O712 C707 1.247 . S
O713 Cd702 2.439 . S
O713 C707 1.208 . S
O714 Cd715 2.223 . S
O714 C722 1.315 . S
Cd715 O714 2.223 . S
Cd715 O718 2.297 . S
Cd715 O719 2.439 . S
Cd715 O725 2.240 . S
Cd716 O717 2.240 . S
Cd716 O724 2.223 . S
Cd716 O726 2.297 . S
Cd716 O727 2.439 . S
O717 Cd716 2.240 . S
O717 C722 1.279 . S
O718 Cd715 2.297 . S
O718 C720 1.247 . S
O719 Cd715 2.439 . S
O719 C720 1.208 . S
C720 O718 1.247 . S
C720 O719 1.208 . S
C721 O726 1.247 . S
C721 O727 1.208 . S
C722 O714 1.315 . S
C722 O717 1.279 . S
C723 O724 1.315 . S
C723 O725 1.279 . S
O724 Cd716 2.223 . S
O724 C723 1.315 . S
O725 Cd715 2.240 . S
O725 C723 1.279 . S
O726 Cd716 2.297 . S
O726 C721 1.247 . S
O727 Cd716 2.439 . S
O727 C721 1.208 . S
O728 Cd729 2.223 . S
O728 C736 1.315 . S
Cd729 O728 2.223 . S
Cd729 O732 2.297 . S
Cd729 O733 2.439 . S
Cd729 O739 2.240 . S
Cd730 O731 2.240 . S
Cd730 O738 2.223 . S
Cd730 O740 2.297 . S
Cd730 O741 2.439 . S
O731 Cd730 2.240 . S
O731 C736 1.279 . S
O732 Cd729 2.297 . S
O732 C734 1.247 . S
O733 Cd729 2.439 . S
O733 C734 1.208 . S
C734 O732 1.247 . S
C734 O733 1.208 . S
C735 O740 1.247 . S
C735 O741 1.208 . S
C736 O728 1.315 . S
C736 O731 1.279 . S
C737 O738 1.315 . S
C737 O739 1.279 . S
O738 Cd730 2.223 . S
O738 C737 1.315 . S
O739 Cd729 2.240 . S
O739 C737 1.279 . S
O740 Cd730 2.297 . S
O740 C735 1.247 . S
O741 Cd730 2.439 . S
O741 C735 1.208 . S
O742 Cd743 2.223 . S
O742 C750 1.315 . S
Cd743 O742 2.223 . S
Cd743 O746 2.297 . S
Cd743 O747 2.439 . S
Cd743 O753 2.240 . S
Cd744 O745 2.240 . S
Cd744 O752 2.223 . S
Cd744 O754 2.297 . S
Cd744 O755 2.439 . S
O745 Cd744 2.240 . S
O745 C750 1.279 . S
O746 Cd743 2.297 . S
O746 C748 1.247 . S
O747 Cd743 2.439 . S
O747 C748 1.208 . S
C748 O746 1.247 . S
C748 O747 1.208 . S
C749 O754 1.247 . S
C749 O755 1.208 . S
C750 O742 1.315 . S
C750 O745 1.279 . S
C751 O752 1.315 . S
C751 O753 1.279 . S
O752 Cd744 2.223 . S
O752 C751 1.315 . S
O753 Cd743 2.240 . S
O753 C751 1.279 . S
O754 Cd744 2.297 . S
O754 C749 1.247 . S
O755 Cd744 2.439 . S
O755 C749 1.208 . S
O756 Cd757 2.223 . S
O756 C764 1.315 . S
Cd757 O756 2.223 . S
Cd757 O760 2.297 . S
Cd757 O761 2.439 . S
Cd757 O767 2.240 . S
Cd758 O759 2.240 . S
Cd758 O766 2.223 . S
Cd758 O768 2.297 . S
Cd758 O769 2.439 . S
O759 Cd758 2.240 . S
O759 C764 1.279 . S
O760 Cd757 2.297 . S
O760 C762 1.247 . S
O761 Cd757 2.439 . S
O761 C762 1.208 . S
C762 O760 1.247 . S
C762 O761 1.208 . S
C763 O768 1.247 . S
C763 O769 1.208 . S
C764 O756 1.315 . S
C764 O759 1.279 . S
C765 O766 1.315 . S
C765 O767 1.279 . S
O766 Cd758 2.223 . S
O766 C765 1.315 . S
O767 Cd757 2.240 . S
O767 C765 1.279 . S
O768 Cd758 2.297 . S
O768 C763 1.247 . S
O769 Cd758 2.439 . S
O769 C763 1.208 . S
O770 Cd771 2.223 . S
O770 C778 1.315 . S
Cd771 O770 2.223 . S
Cd771 O774 2.297 . S
Cd771 O775 2.439 . S
Cd771 O781 2.240 . S
Cd772 O773 2.240 . S
Cd772 O780 2.223 . S
Cd772 O782 2.297 . S
Cd772 O783 2.439 . S
O773 Cd772 2.240 . S
O773 C778 1.279 . S
O774 Cd771 2.297 . S
O774 C776 1.247 . S
O775 Cd771 2.439 . S
O775 C776 1.208 . S
C776 O774 1.247 . S
C776 O775 1.208 . S
C777 O782 1.247 . S
C777 O783 1.208 . S
C778 O770 1.315 . S
C778 O773 1.279 . S
C779 O780 1.315 . S
C779 O781 1.279 . S
O780 Cd772 2.223 . S
O780 C779 1.315 . S
O781 Cd771 2.240 . S
O781 C779 1.279 . S
O782 Cd772 2.297 . S
O782 C777 1.247 . S
O783 Cd772 2.439 . S
O783 C777 1.208 . S
O784 Cd785 2.223 . S
O784 C792 1.315 . S
Cd785 O784 2.223 . S
Cd785 O788 2.297 . S
Cd785 O789 2.439 . S
Cd785 O795 2.240 . S
Cd786 O787 2.240 . S
Cd786 O794 2.223 . S
Cd786 O796 2.297 . S
Cd786 O797 2.439 . S
O787 Cd786 2.240 . S
O787 C792 1.279 . S
O788 Cd785 2.297 . S
O788 C790 1.247 . S
O789 Cd785 2.439 . S
O789 C790 1.208 . S
C790 O788 1.247 . S
C790 O789 1.208 . S
C791 O796 1.247 . S
C791 O797 1.208 . S
C792 O784 1.315 . S
C792 O787 1.279 . S
C793 O794 1.315 . S
C793 O795 1.279 . S
O794 Cd786 2.223 . S
O794 C793 1.315 . S
O795 Cd785 2.240 . S
O795 C793 1.279 . S
O796 Cd786 2.297 . S
O796 C791 1.247 . S
O797 Cd786 2.439 . S
O797 C791 1.208 . S
O798 Cd799 2.223 . S
O798 C806 1.315 . S
Cd799 O798 2.223 . S
Cd799 O802 2.297 . S
Cd799 O803 2.439 . S
Cd799 O809 2.240 . S
Cd800 O801 2.240 . S
Cd800 O808 2.223 . S
Cd800 O810 2.297 . S
Cd800 O811 2.439 . S
O801 Cd800 2.240 . S
O801 C806 1.279 . S
O802 Cd799 2.297 . S
O802 C804 1.247 . S
O803 Cd799 2.439 . S
O803 C804 1.208 . S
C804 O802 1.247 . S
C804 O803 1.208 . S
C805 O810 1.247 . S
C805 O811 1.208 . S
C806 O798 1.315 . S
C806 O801 1.279 . S
C807 O808 1.315 . S
C807 O809 1.279 . S
O808 Cd800 2.223 . S
O808 C807 1.315 . S
O809 Cd799 2.240 . S
O809 C807 1.279 . S
O810 Cd800 2.297 . S
O810 C805 1.247 . S
O811 Cd800 2.439 . S
O811 C805 1.208 . S
O812 Cd813 2.223 . S
O812 C820 1.315 . S
Cd813 O812 2.223 . S
Cd813 O816 2.297 . S
Cd813 O817 2.439 . S
Cd813 O823 2.240 . S
Cd814 O815 2.240 . S
Cd814 O822 2.223 . S
Cd814 O824 2.297 . S
Cd814 O825 2.439 . S
O815 Cd814 2.240 . S
O815 C820 1.279 . S
O816 Cd813 2.297 . S
O816 C818 1.247 . S
O817 Cd813 2.439 . S
O817 C818 1.208 . S
C818 O816 1.247 . S
C818 O817 1.208 . S
C819 O824 1.247 . S
C819 O825 1.208 . S
C820 O812 1.315 . S
C820 O815 1.279 . S
C821 O822 1.315 . S
C821 O823 1.279 . S
O822 Cd814 2.223 . S
O822 C821 1.315 . S
O823 Cd813 2.240 . S
O823 C821 1.279 . S
O824 Cd814 2.297 . S
O824 C819 1.247 . S
O825 Cd814 2.439 . S
O825 C819 1.208 . S
O826 Cd827 2.223 . S
O826 C834 1.315 . S
Cd827 O826 2.223 . S
Cd827 O830 2.297 . S
Cd827 O831 2.439 . S
Cd827 O837 2.240 . S
Cd828 O829 2.240 . S
Cd828 O836 2.223 . S
Cd828 O838 2.297 . S
Cd828 O839 2.439 . S
O829 Cd828 2.240 . S
O829 C834 1.279 . S
O830 Cd827 2.297 . S
O830 C832 1.247 . S
O831 Cd827 2.439 . S
O831 C832 1.208 . S
C832 O830 1.247 . S
C832 O831 1.208 . S
C833 O838 1.247 . S
C833 O839 1.208 . S
C834 O826 1.315 . S
C834 O829 1.279 . S
C835 O836 1.315 . S
C835 O837 1.279 . S
O836 Cd828 2.223 . S
O836 C835 1.315 . S
O837 Cd827 2.240 . S
O837 C835 1.279 . S
O838 Cd828 2.297 . S
O838 C833 1.247 . S
O839 Cd828 2.439 . S
O839 C833 1.208 . S
O840 Cd841 2.223 . S
O840 C848 1.315 . S
Cd841 O840 2.223 . S
Cd841 O844 2.297 . S
Cd841 O845 2.439 . S
Cd841 O851 2.240 . S
Cd842 O843 2.240 . S
Cd842 O850 2.223 . S
Cd842 O852 2.297 . S
Cd842 O853 2.439 . S
O843 Cd842 2.240 . S
O843 C848 1.279 . S
O844 Cd841 2.297 . S
O844 C846 1.247 . S
O845 Cd841 2.439 . S
O845 C846 1.208 . S
C846 O844 1.247 . S
C846 O845 1.208 . S
C847 O852 1.247 . S
C847 O853 1.208 . S
C848 O840 1.315 . S
C848 O843 1.279 . S
C849 O850 1.315 . S
C849 O851 1.279 . S
O850 Cd842 2.223 . S
O850 C849 1.315 . S
O851 Cd841 2.240 . S
O851 C849 1.279 . S
O852 Cd842 2.297 . S
O852 C847 1.247 . S
O853 Cd842 2.439 . S
O853 C847 1.208 . S
O854 Cd855 2.223 . S
O854 C862 1.315 . S
Cd855 O854 2.223 . S
Cd855 O858 2.297 . S
Cd855 O859 2.439 . S
Cd855 O865 2.240 . S
Cd856 O857 2.240 . S
Cd856 O864 2.223 . S
Cd856 O866 2.297 . S
Cd856 O867 2.439 . S
O857 Cd856 2.240 . S
O857 C862 1.279 . S
O858 Cd855 2.297 . S
O858 C860 1.247 . S
O859 Cd855 2.439 . S
O859 C860 1.208 . S
C860 O858 1.247 . S
C860 O859 1.208 . S
C861 O866 1.247 . S
C861 O867 1.208 . S
C862 O854 1.315 . S
C862 O857 1.279 . S
C863 O864 1.315 . S
C863 O865 1.279 . S
O864 Cd856 2.223 . S
O864 C863 1.315 . S
O865 Cd855 2.240 . S
O865 C863 1.279 . S
O866 Cd856 2.297 . S
O866 C861 1.247 . S
O867 Cd856 2.439 . S
O867 C861 1.208 . S
O868 Cd869 2.223 . S
O868 C876 1.315 . S
Cd869 O868 2.223 . S
Cd869 O872 2.297 . S
Cd869 O873 2.439 . S
Cd869 O879 2.240 . S
Cd870 O871 2.240 . S
Cd870 O878 2.223 . S
Cd870 O880 2.297 . S
Cd870 O881 2.439 . S
O871 Cd870 2.240 . S
O871 C876 1.279 . S
O872 Cd869 2.297 . S
O872 C874 1.247 . S
O873 Cd869 2.439 . S
O873 C874 1.208 . S
C874 O872 1.247 . S
C874 O873 1.208 . S
C875 O880 1.247 . S
C875 O881 1.208 . S
C876 O868 1.315 . S
C876 O871 1.279 . S
C877 O878 1.315 . S
C877 O879 1.279 . S
O878 Cd870 2.223 . S
O878 C877 1.315 . S
O879 Cd869 2.240 . S
O879 C877 1.279 . S
O880 Cd870 2.297 . S
O880 C875 1.247 . S
O881 Cd870 2.439 . S
O881 C875 1.208 . S
O882 Cd883 2.223 . S
O882 C890 1.315 . S
Cd883 O882 2.223 . S
Cd883 O886 2.297 . S
Cd883 O887 2.439 . S
Cd883 O893 2.240 . S
Cd884 O885 2.240 . S
Cd884 O892 2.223 . S
Cd884 O894 2.297 . S
Cd884 O895 2.439 . S
O885 Cd884 2.240 . S
O885 C890 1.279 . S
O886 Cd883 2.297 . S
O886 C888 1.247 . S
O887 Cd883 2.439 . S
O887 C888 1.208 . S
C888 O886 1.247 . S
C888 O887 1.208 . S
C889 O894 1.247 . S
C889 O895 1.208 . S
C890 O882 1.315 . S
C890 O885 1.279 . S
C891 O892 1.315 . S
C891 O893 1.279 . S
O892 Cd884 2.223 . S
O892 C891 1.315 . S
O893 Cd883 2.240 . S
O893 C891 1.279 . S
O894 Cd884 2.297 . S
O894 C889 1.247 . S
O895 Cd884 2.439 . S
O895 C889 1.208 . S
O896 Cd897 2.223 . S
O896 C904 1.315 . S
Cd897 O896 2.223 . S
Cd897 O900 2.297 . S
Cd897 O901 2.439 . S
Cd897 O907 2.240 . S
Cd898 O899 2.240 . S
Cd898 O906 2.223 . S
Cd898 O908 2.297 . S
Cd898 O909 2.439 . S
O899 Cd898 2.240 . S
O899 C904 1.279 . S
O900 Cd897 2.297 . S
O900 C902 1.247 . S
O901 Cd897 2.439 . S
O901 C902 1.208 . S
C902 O900 1.247 . S
C902 O901 1.208 . S
C903 O908 1.247 . S
C903 O909 1.208 . S
C904 O896 1.315 . S
C904 O899 1.279 . S
C905 O906 1.315 . S
C905 O907 1.279 . S
O906 Cd898 2.223 . S
O906 C905 1.315 . S
O907 Cd897 2.240 . S
O907 C905 1.279 . S
O908 Cd898 2.297 . S
O908 C903 1.247 . S
O909 Cd898 2.439 . S
O909 C903 1.208 . S
O910 Cd911 2.223 . S
O910 C918 1.315 . S
Cd911 O910 2.223 . S
Cd911 O914 2.297 . S
Cd911 O915 2.439 . S
Cd911 O921 2.240 . S
Cd912 O913 2.240 . S
Cd912 O920 2.223 . S
Cd912 O922 2.297 . S
Cd912 O923 2.439 . S
O913 Cd912 2.240 . S
O913 C918 1.279 . S
O914 Cd911 2.297 . S
O914 C916 1.247 . S
O915 Cd911 2.439 . S
O915 C916 1.208 . S
C916 O914 1.247 . S
C916 O915 1.208 . S
C917 O922 1.247 . S
C917 O923 1.208 . S
C918 O910 1.315 . S
C918 O913 1.279 . S
C919 O920 1.315 . S
C919 O921 1.279 . S
O920 Cd912 2.223 . S
O920 C919 1.315 . S
O921 Cd911 2.240 . S
O921 C919 1.279 . S
O922 Cd912 2.297 . S
O922 C917 1.247 . S
O923 Cd912 2.439 . S
O923 C917 1.208 . S
O924 Cd925 2.223 . S
O924 C932 1.315 . S
Cd925 O924 2.223 . S
Cd925 O928 2.297 . S
Cd925 O929 2.439 . S
Cd925 O935 2.240 . S
Cd926 O927 2.240 . S
Cd926 O934 2.223 . S
Cd926 O936 2.297 . S
Cd926 O937 2.439 . S
O927 Cd926 2.240 . S
O927 C932 1.279 . S
O928 Cd925 2.297 . S
O928 C930 1.247 . S
O929 Cd925 2.439 . S
O929 C930 1.208 . S
C930 O928 1.247 . S
C930 O929 1.208 . S
C931 O936 1.247 . S
C931 O937 1.208 . S
C932 O924 1.315 . S
C932 O927 1.279 . S
C933 O934 1.315 . S
C933 O935 1.279 . S
O934 Cd926 2.223 . S
O934 C933 1.315 . S
O935 Cd925 2.240 . S
O935 C933 1.279 . S
O936 Cd926 2.297 . S
O936 C931 1.247 . S
O937 Cd926 2.439 . S
O937 C931 1.208 . S
O938 Cd939 2.223 . S
O938 C946 1.315 . S
Cd939 O938 2.223 . S
Cd939 O942 2.297 . S
Cd939 O943 2.439 . S
Cd939 O949 2.240 . S
Cd940 O941 2.240 . S
Cd940 O948 2.223 . S
Cd940 O950 2.297 . S
Cd940 O951 2.439 . S
O941 Cd940 2.240 . S
O941 C946 1.279 . S
O942 Cd939 2.297 . S
O942 C944 1.247 . S
O943 Cd939 2.439 . S
O943 C944 1.208 . S
C944 O942 1.247 . S
C944 O943 1.208 . S
C945 O950 1.247 . S
C945 O951 1.208 . S
C946 O938 1.315 . S
C946 O941 1.279 . S
C947 O948 1.315 . S
C947 O949 1.279 . S
O948 Cd940 2.223 . S
O948 C947 1.315 . S
O949 Cd939 2.240 . S
O949 C947 1.279 . S
O950 Cd940 2.297 . S
O950 C945 1.247 . S
O951 Cd940 2.439 . S
O951 C945 1.208 . S
O952 Cd953 2.223 . S
O952 C960 1.315 . S
Cd953 O952 2.223 . S
Cd953 O956 2.297 . S
Cd953 O957 2.439 . S
Cd953 O963 2.240 . S
Cd954 O955 2.240 . S
Cd954 O962 2.223 . S
Cd954 O964 2.297 . S
Cd954 O965 2.439 . S
O955 Cd954 2.240 . S
O955 C960 1.279 . S
O956 Cd953 2.297 . S
O956 C958 1.247 . S
O957 Cd953 2.439 . S
O957 C958 1.208 . S
C958 O956 1.247 . S
C958 O957 1.208 . S
C959 O964 1.247 . S
C959 O965 1.208 . S
C960 O952 1.315 . S
C960 O955 1.279 . S
C961 O962 1.315 . S
C961 O963 1.279 . S
O962 Cd954 2.223 . S
O962 C961 1.315 . S
O963 Cd953 2.240 . S
O963 C961 1.279 . S
O964 Cd954 2.297 . S
O964 C959 1.247 . S
O965 Cd954 2.439 . S
O965 C959 1.208 . S
O966 Cd967 2.223 . S
O966 C974 1.315 . S
Cd967 O966 2.223 . S
Cd967 O970 2.297 . S
Cd967 O971 2.439 . S
Cd967 O977 2.240 . S
Cd968 O969 2.240 . S
Cd968 O976 2.223 . S
Cd968 O978 2.297 . S
Cd968 O979 2.439 . S
O969 Cd968 2.240 . S
O969 C974 1.279 . S
O970 Cd967 2.297 . S
O970 C972 1.247 . S
O971 Cd967 2.439 . S
O971 C972 1.208 . S
C972 O970 1.247 . S
C972 O971 1.208 . S
C973 O978 1.247 . S
C973 O979 1.208 . S
C974 O966 1.315 . S
C974 O969 1.279 . S
C975 O976 1.315 . S
C975 O977 1.279 . S
O976 Cd968 2.223 . S
O976 C975 1.315 . S
O977 Cd967 2.240 . S
O977 C975 1.279 . S
O978 Cd968 2.297 . S
O978 C973 1.247 . S
O979 Cd968 2.439 . S
O979 C973 1.208 . S
O980 Cd981 2.223 . S
O980 C988 1.315 . S
Cd981 O980 2.223 . S
Cd981 O984 2.297 . S
Cd981 O985 2.439 . S
Cd981 O991 2.240 . S
Cd982 O983 2.240 . S
Cd982 O990 2.223 . S
Cd982 O992 2.297 . S
Cd982 O993 2.439 . S
O983 Cd982 2.240 . S
O983 C988 1.279 . S
O984 Cd981 2.297 . S
O984 C986 1.247 . S
O985 Cd981 2.439 . S
O985 C986 1.208 . S
C986 O984 1.247 . S
C986 O985 1.208 . S
C987 O992 1.247 . S
C987 O993 1.208 . S
C988 O980 1.315 . S
C988 O983 1.279 . S
C989 O990 1.315 . S
C989 O991 1.279 . S
O990 Cd982 2.223 . S
O990 C989 1.315 . S
O991 Cd981 2.240 . S
O991 C989 1.279 . S
O992 Cd982 2.297 . S
O992 C987 1.247 . S
O993 Cd982 2.439 . S
O993 C987 1.208 . S
O994 Cd995 2.223 . S
O994 C1002 1.315 . S
Cd995 O994 2.223 . S
Cd995 O998 2.297 . S
Cd995 O999 2.439 . S
Cd995 O1005 2.240 . S
Cd996 O997 2.240 . S
Cd996 O1004 2.223 . S
Cd996 O1006 2.297 . S
Cd996 O1007 2.439 . S
O997 Cd996 2.240 . S
O997 C1002 1.279 . S
O998 Cd995 2.297 . S
O998 C1000 1.247 . S
O999 Cd995 2.439 . S
O999 C1000 1.208 . S
C1000 O998 1.247 . S
C1000 O999 1.208 . S
C1001 O1006 1.247 . S
C1001 O1007 1.208 . S
C1002 O994 1.315 . S
C1002 O997 1.279 . S
C1003 O1004 1.315 . S
C1003 O1005 1.279 . S
O1004 Cd996 2.223 . S
O1004 C1003 1.315 . S
O1005 Cd995 2.240 . S
O1005 C1003 1.279 . S
O1006 Cd996 2.297 . S
O1006 C1001 1.247 . S
O1007 Cd996 2.439 . S
O1007 C1001 1.208 . S
O1008 Cd1009 2.223 . S
O1008 C1016 1.315 . S
Cd1009 O1008 2.223 . S
Cd1009 O1012 2.297 . S
Cd1009 O1013 2.439 . S
Cd1009 O1019 2.240 . S
Cd1010 O1011 2.240 . S
Cd1010 O1018 2.223 . S
Cd1010 O1020 2.297 . S
Cd1010 O1021 2.439 . S
O1011 Cd1010 2.240 . S
O1011 C1016 1.279 . S
O1012 Cd1009 2.297 . S
O1012 C1014 1.247 . S
O1013 Cd1009 2.439 . S
O1013 C1014 1.208 . S
C1014 O1012 1.247 . S
C1014 O1013 1.208 . S
C1015 O1020 1.247 . S
C1015 O1021 1.208 . S
C1016 O1008 1.315 . S
C1016 O1011 1.279 . S
C1017 O1018 1.315 . S
C1017 O1019 1.279 . S
O1018 Cd1010 2.223 . S
O1018 C1017 1.315 . S
O1019 Cd1009 2.240 . S
O1019 C1017 1.279 . S
O1020 Cd1010 2.297 . S
O1020 C1015 1.247 . S
O1021 Cd1010 2.439 . S
O1021 C1015 1.208 . S
O1022 Cd1023 2.223 . S
O1022 C1030 1.315 . S
Cd1023 O1022 2.223 . S
Cd1023 O1026 2.297 . S
Cd1023 O1027 2.439 . S
Cd1023 O1033 2.240 . S
Cd1024 O1025 2.240 . S
Cd1024 O1032 2.223 . S
Cd1024 O1034 2.297 . S
Cd1024 O1035 2.439 . S
O1025 Cd1024 2.240 . S
O1025 C1030 1.279 . S
O1026 Cd1023 2.297 . S
O1026 C1028 1.247 . S
O1027 Cd1023 2.439 . S
O1027 C1028 1.208 . S
C1028 O1026 1.247 . S
C1028 O1027 1.208 . S
C1029 O1034 1.247 . S
C1029 O1035 1.208 . S
C1030 O1022 1.315 . S
C1030 O1025 1.279 . S
C1031 O1032 1.315 . S
C1031 O1033 1.279 . S
O1032 Cd1024 2.223 . S
O1032 C1031 1.315 . S
O1033 Cd1023 2.240 . S
O1033 C1031 1.279 . S
O1034 Cd1024 2.297 . S
O1034 C1029 1.247 . S
O1035 Cd1024 2.439 . S
O1035 C1029 1.208 . S
O1036 Cd1037 2.223 . S
O1036 C1044 1.315 . S
Cd1037 O1036 2.223 . S
Cd1037 O1040 2.297 . S
Cd1037 O1041 2.439 . S
Cd1037 O1047 2.240 . S
Cd1038 O1039 2.240 . S
Cd1038 O1046 2.223 . S
Cd1038 O1048 2.297 . S
Cd1038 O1049 2.439 . S
O1039 Cd1038 2.240 . S
O1039 C1044 1.279 . S
O1040 Cd1037 2.297 . S
O1040 C1042 1.247 . S
O1041 Cd1037 2.439 . S
O1041 C1042 1.208 . S
C1042 O1040 1.247 . S
C1042 O1041 1.208 . S
C1043 O1048 1.247 . S
C1043 O1049 1.208 . S
C1044 O1036 1.315 . S
C1044 O1039 1.279 . S
C1045 O1046 1.315 . S
C1045 O1047 1.279 . S
O1046 Cd1038 2.223 . S
O1046 C1045 1.315 . S
O1047 Cd1037 2.240 . S
O1047 C1045 1.279 . S
O1048 Cd1038 2.297 . S
O1048 C1043 1.247 . S
O1049 Cd1038 2.439 . S
O1049 C1043 1.208 . S
O1050 Cd1051 2.223 . S
O1050 C1058 1.315 . S
Cd1051 O1050 2.223 . S
Cd1051 O1054 2.297 . S
Cd1051 O1055 2.439 . S
Cd1051 O1061 2.240 . S
Cd1052 O1053 2.240 . S
Cd1052 O1060 2.223 . S
Cd1052 O1062 2.297 . S
Cd1052 O1063 2.439 . S
O1053 Cd1052 2.240 . S
O1053 C1058 1.279 . S
O1054 Cd1051 2.297 . S
O1054 C1056 1.247 . S
O1055 Cd1051 2.439 . S
O1055 C1056 1.208 . S
C1056 O1054 1.247 . S
C1056 O1055 1.208 . S
C1057 O1062 1.247 . S
C1057 O1063 1.208 . S
C1058 O1050 1.315 . S
C1058 O1053 1.279 . S
C1059 O1060 1.315 . S
C1059 O1061 1.279 . S
O1060 Cd1052 2.223 . S
O1060 C1059 1.315 . S
O1061 Cd1051 2.240 . S
O1061 C1059 1.279 . S
O1062 Cd1052 2.297 . S
O1062 C1057 1.247 . S
O1063 Cd1052 2.439 . S
O1063 C1057 1.208 . S
O1064 Cd1065 2.223 . S
O1064 C1072 1.315 . S
Cd1065 O1064 2.223 . S
Cd1065 O1068 2.297 . S
Cd1065 O1069 2.439 . S
Cd1065 O1075 2.240 . S
Cd1066 O1067 2.240 . S
Cd1066 O1074 2.223 . S
Cd1066 O1076 2.297 . S
Cd1066 O1077 2.439 . S
O1067 Cd1066 2.240 . S
O1067 C1072 1.279 . S
O1068 Cd1065 2.297 . S
O1068 C1070 1.247 . S
O1069 Cd1065 2.439 . S
O1069 C1070 1.208 . S
C1070 O1068 1.247 . S
C1070 O1069 1.208 . S
C1071 O1076 1.247 . S
C1071 O1077 1.208 . S
C1072 O1064 1.315 . S
C1072 O1067 1.279 . S
C1073 O1074 1.315 . S
C1073 O1075 1.279 . S
O1074 Cd1066 2.223 . S
O1074 C1073 1.315 . S
O1075 Cd1065 2.240 . S
O1075 C1073 1.279 . S
O1076 Cd1066 2.297 . S
O1076 C1071 1.247 . S
O1077 Cd1066 2.439 . S
O1077 C1071 1.208 . S
O1078 Cd1079 2.223 . S
O1078 C1086 1.315 . S
Cd1079 O1078 2.223 . S
Cd1079 O1082 2.297 . S
Cd1079 O1083 2.439 . S
Cd1079 O1089 2.240 . S
Cd1080 O1081 2.240 . S
Cd1080 O1088 2.223 . S
Cd1080 O1090 2.297 . S
Cd1080 O1091 2.439 . S
O1081 Cd1080 2.240 . S
O1081 C1086 1.279 . S
O1082 Cd1079 2.297 . S
O1082 C1084 1.247 . S
O1083 Cd1079 2.439 . S
O1083 C1084 1.208 . S
C1084 O1082 1.247 . S
C1084 O1083 1.208 . S
C1085 O1090 1.247 . S
C1085 O1091 1.208 . S
C1086 O1078 1.315 . S
C1086 O1081 1.279 . S
C1087 O1088 1.315 . S
C1087 O1089 1.279 . S
O1088 Cd1080 2.223 . S
O1088 C1087 1.315 . S
O1089 Cd1079 2.240 . S
O1089 C1087 1.279 . S
O1090 Cd1080 2.297 . S
O1090 C1085 1.247 . S
O1091 Cd1080 2.439 . S
O1091 C1085 1.208 . S
O1092 Cd1093 2.223 . S
O1092 C1100 1.315 . S
Cd1093 O1092 2.223 . S
Cd1093 O1096 2.297 . S
Cd1093 O1097 2.439 . S
Cd1093 O1103 2.240 . S
Cd1094 O1095 2.240 . S
Cd1094 O1102 2.223 . S
Cd1094 O1104 2.297 . S
Cd1094 O1105 2.439 . S
O1095 Cd1094 2.240 . S
O1095 C1100 1.279 . S
O1096 Cd1093 2.297 . S
O1096 C1098 1.247 . S
O1097 Cd1093 2.439 . S
O1097 C1098 1.208 . S
C1098 O1096 1.247 . S
C1098 O1097 1.208 . S
C1099 O1104 1.247 . S
C1099 O1105 1.208 . S
C1100 O1092 1.315 . S
C1100 O1095 1.279 . S
C1101 O1102 1.315 . S
C1101 O1103 1.279 . S
O1102 Cd1094 2.223 . S
O1102 C1101 1.315 . S
O1103 Cd1093 2.240 . S
O1103 C1101 1.279 . S
O1104 Cd1094 2.297 . S
O1104 C1099 1.247 . S
O1105 Cd1094 2.439 . S
O1105 C1099 1.208 . S
O1106 Cd1107 2.223 . S
O1106 C1114 1.315 . S
Cd1107 O1106 2.223 . S
Cd1107 O1110 2.297 . S
Cd1107 O1111 2.439 . S
Cd1107 O1117 2.240 . S
Cd1108 O1109 2.240 . S
Cd1108 O1116 2.223 . S
Cd1108 O1118 2.297 . S
Cd1108 O1119 2.439 . S
O1109 Cd1108 2.240 . S
O1109 C1114 1.279 . S
O1110 Cd1107 2.297 . S
O1110 C1112 1.247 . S
O1111 Cd1107 2.439 . S
O1111 C1112 1.208 . S
C1112 O1110 1.247 . S
C1112 O1111 1.208 . S
C1113 O1118 1.247 . S
C1113 O1119 1.208 . S
C1114 O1106 1.315 . S
C1114 O1109 1.279 . S
C1115 O1116 1.315 . S
C1115 O1117 1.279 . S
O1116 Cd1108 2.223 . S
O1116 C1115 1.315 . S
O1117 Cd1107 2.240 . S
O1117 C1115 1.279 . S
O1118 Cd1108 2.297 . S
O1118 C1113 1.247 . S
O1119 Cd1108 2.439 . S
O1119 C1113 1.208 . S
O1120 Cd1121 2.223 . S
O1120 C1128 1.315 . S
Cd1121 O1120 2.223 . S
Cd1121 O1124 2.297 . S
Cd1121 O1125 2.439 . S
Cd1121 O1131 2.240 . S
Cd1122 O1123 2.240 . S
Cd1122 O1130 2.223 . S
Cd1122 O1132 2.297 . S
Cd1122 O1133 2.439 . S
O1123 Cd1122 2.240 . S
O1123 C1128 1.279 . S
O1124 Cd1121 2.297 . S
O1124 C1126 1.247 . S
O1125 Cd1121 2.439 . S
O1125 C1126 1.208 . S
C1126 O1124 1.247 . S
C1126 O1125 1.208 . S
C1127 O1132 1.247 . S
C1127 O1133 1.208 . S
C1128 O1120 1.315 . S
C1128 O1123 1.279 . S
C1129 O1130 1.315 . S
C1129 O1131 1.279 . S
O1130 Cd1122 2.223 . S
O1130 C1129 1.315 . S
O1131 Cd1121 2.240 . S
O1131 C1129 1.279 . S
O1132 Cd1122 2.297 . S
O1132 C1127 1.247 . S
O1133 Cd1122 2.439 . S
O1133 C1127 1.208 . S
O1134 Cd1135 2.223 . S
O1134 C1142 1.315 . S
Cd1135 O1134 2.223 . S
Cd1135 O1138 2.297 . S
Cd1135 O1139 2.439 . S
Cd1135 O1145 2.240 . S
Cd1136 O1137 2.240 . S
Cd1136 O1144 2.223 . S
Cd1136 O1146 2.297 . S
Cd1136 O1147 2.439 . S
O1137 Cd1136 2.240 . S
O1137 C1142 1.279 . S
O1138 Cd1135 2.297 . S
O1138 C1140 1.247 . S
O1139 Cd1135 2.439 . S
O1139 C1140 1.208 . S
C1140 O1138 1.247 . S
C1140 O1139 1.208 . S
C1141 O1146 1.247 . S
C1141 O1147 1.208 . S
C1142 O1134 1.315 . S
C1142 O1137 1.279 . S
C1143 O1144 1.315 . S
C1143 O1145 1.279 . S
O1144 Cd1136 2.223 . S
O1144 C1143 1.315 . S
O1145 Cd1135 2.240 . S
O1145 C1143 1.279 . S
O1146 Cd1136 2.297 . S
O1146 C1141 1.247 . S
O1147 Cd1136 2.439 . S
O1147 C1141 1.208 . S
O1148 Cd1149 2.223 . S
O1148 C1156 1.315 . S
Cd1149 O1148 2.223 . S
Cd1149 O1152 2.297 . S
Cd1149 O1153 2.439 . S
Cd1149 O1159 2.240 . S
Cd1150 O1151 2.240 . S
Cd1150 O1158 2.223 . S
Cd1150 O1160 2.297 . S
Cd1150 O1161 2.439 . S
O1151 Cd1150 2.240 . S
O1151 C1156 1.279 . S
O1152 Cd1149 2.297 . S
O1152 C1154 1.247 . S
O1153 Cd1149 2.439 . S
O1153 C1154 1.208 . S
C1154 O1152 1.247 . S
C1154 O1153 1.208 . S
C1155 O1160 1.247 . S
C1155 O1161 1.208 . S
C1156 O1148 1.315 . S
C1156 O1151 1.279 . S
C1157 O1158 1.315 . S
C1157 O1159 1.279 . S
O1158 Cd1150 2.223 . S
O1158 C1157 1.315 . S
O1159 Cd1149 2.240 . S
O1159 C1157 1.279 . S
O1160 Cd1150 2.297 . S
O1160 C1155 1.247 . S
O1161 Cd1150 2.439 . S
O1161 C1155 1.208 . S
O1162 Cd1163 2.223 . S
O1162 C1170 1.315 . S
Cd1163 O1162 2.223 . S
Cd1163 O1166 2.297 . S
Cd1163 O1167 2.439 . S
Cd1163 O1173 2.240 . S
Cd1164 O1165 2.240 . S
Cd1164 O1172 2.223 . S
Cd1164 O1174 2.297 . S
Cd1164 O1175 2.439 . S
O1165 Cd1164 2.240 . S
O1165 C1170 1.279 . S
O1166 Cd1163 2.297 . S
O1166 C1168 1.247 . S
O1167 Cd1163 2.439 . S
O1167 C1168 1.208 . S
C1168 O1166 1.247 . S
C1168 O1167 1.208 . S
C1169 O1174 1.247 . S
C1169 O1175 1.208 . S
C1170 O1162 1.315 . S
C1170 O1165 1.279 . S
C1171 O1172 1.315 . S
C1171 O1173 1.279 . S
O1172 Cd1164 2.223 . S
O1172 C1171 1.315 . S
O1173 Cd1163 2.240 . S
O1173 C1171 1.279 . S
O1174 Cd1164 2.297 . S
O1174 C1169 1.247 . S
O1175 Cd1164 2.439 . S
O1175 C1169 1.208 . S
O1176 Cd1177 2.223 . S
O1176 C1184 1.315 . S
Cd1177 O1176 2.223 . S
Cd1177 O1180 2.297 . S
Cd1177 O1181 2.439 . S
Cd1177 O1187 2.240 . S
Cd1178 O1179 2.240 . S
Cd1178 O1186 2.223 . S
Cd1178 O1188 2.297 . S
Cd1178 O1189 2.439 . S
O1179 Cd1178 2.240 . S
O1179 C1184 1.279 . S
O1180 Cd1177 2.297 . S
O1180 C1182 1.247 . S
O1181 Cd1177 2.439 . S
O1181 C1182 1.208 . S
C1182 O1180 1.247 . S
C1182 O1181 1.208 . S
C1183 O1188 1.247 . S
C1183 O1189 1.208 . S
C1184 O1176 1.315 . S
C1184 O1179 1.279 . S
C1185 O1186 1.315 . S
C1185 O1187 1.279 . S
O1186 Cd1178 2.223 . S
O1186 C1185 1.315 . S
O1187 Cd1177 2.240 . S
O1187 C1185 1.279 . S
O1188 Cd1178 2.297 . S
O1188 C1183 1.247 . S
O1189 Cd1178 2.439 . S
O1189 C1183 1.208 . S
O1190 Cd1191 2.223 . S
O1190 C1198 1.315 . S
Cd1191 O1190 2.223 . S
Cd1191 O1194 2.297 . S
Cd1191 O1195 2.439 . S
Cd1191 O1201 2.240 . S
Cd1192 O1193 2.240 . S
Cd1192 O1200 2.223 . S
Cd1192 O1202 2.297 . S
Cd1192 O1203 2.439 . S
O1193 Cd1192 2.240 . S
O1193 C1198 1.279 . S
O1194 Cd1191 2.297 . S
O1194 C1196 1.247 . S
O1195 Cd1191 2.439 . S
O1195 C1196 1.208 . S
C1196 O1194 1.247 . S
C1196 O1195 1.208 . S
C1197 O1202 1.247 . S
C1197 O1203 1.208 . S
C1198 O1190 1.315 . S
C1198 O1193 1.279 . S
C1199 O1200 1.315 . S
C1199 O1201 1.279 . S
O1200 Cd1192 2.223 . S
O1200 C1199 1.315 . S
O1201 Cd1191 2.240 . S
O1201 C1199 1.279 . S
O1202 Cd1192 2.297 . S
O1202 C1197 1.247 . S
O1203 Cd1192 2.439 . S
O1203 C1197 1.208 . S
O1204 Cd1205 2.223 . S
O1204 C1212 1.315 . S
Cd1205 O1204 2.223 . S
Cd1205 O1208 2.297 . S
Cd1205 O1209 2.439 . S
Cd1205 O1215 2.240 . S
Cd1206 O1207 2.240 . S
Cd1206 O1214 2.223 . S
Cd1206 O1216 2.297 . S
Cd1206 O1217 2.439 . S
O1207 Cd1206 2.240 . S
O1207 C1212 1.279 . S
O1208 Cd1205 2.297 . S
O1208 C1210 1.247 . S
O1209 Cd1205 2.439 . S
O1209 C1210 1.208 . S
C1210 O1208 1.247 . S
C1210 O1209 1.208 . S
C1211 O1216 1.247 . S
C1211 O1217 1.208 . S
C1212 O1204 1.315 . S
C1212 O1207 1.279 . S
C1213 O1214 1.315 . S
C1213 O1215 1.279 . S
O1214 Cd1206 2.223 . S
O1214 C1213 1.315 . S
O1215 Cd1205 2.240 . S
O1215 C1213 1.279 . S
O1216 Cd1206 2.297 . S
O1216 C1211 1.247 . S
O1217 Cd1206 2.439 . S
O1217 C1211 1.208 . S
O1218 Cd1219 2.223 . S
O1218 C1226 1.315 . S
Cd1219 O1218 2.223 . S
Cd1219 O1222 2.297 . S
Cd1219 O1223 2.439 . S
Cd1219 O1229 2.240 . S
Cd1220 O1221 2.240 . S
Cd1220 O1228 2.223 . S
Cd1220 O1230 2.297 . S
Cd1220 O1231 2.439 . S
O1221 Cd1220 2.240 . S
O1221 C1226 1.279 . S
O1222 Cd1219 2.297 . S
O1222 C1224 1.247 . S
O1223 Cd1219 2.439 . S
O1223 C1224 1.208 . S
C1224 O1222 1.247 . S
C1224 O1223 1.208 . S
C1225 O1230 1.247 . S
C1225 O1231 1.208 . S
C1226 O1218 1.315 . S
C1226 O1221 1.279 . S
C1227 O1228 1.315 . S
C1227 O1229 1.279 . S
O1228 Cd1220 2.223 . S
O1228 C1227 1.315 . S
O1229 Cd1219 2.240 . S
O1229 C1227 1.279 . S
O1230 Cd1220 2.297 . S
O1230 C1225 1.247 . S
O1231 Cd1220 2.439 . S
O1231 C1225 1.208 . S
O1232 Cd1233 2.223 . S
O1232 C1240 1.315 . S
Cd1233 O1232 2.223 . S
Cd1233 O1236 2.297 . S
Cd1233 O1237 2.439 . S
Cd1233 O1243 2.240 . S
Cd1234 O1235 2.240 . S
Cd1234 O1242 2.223 . S
Cd1234 O1244 2.297 . S
Cd1234 O1245 2.439 . S
O1235 Cd1234 2.240 . S
O1235 C1240 1.279 . S
O1236 Cd1233 2.297 . S
O1236 C1238 1.247 . S
O1237 Cd1233 2.439 . S
O1237 C1238 1.208 . S
C1238 O1236 1.247 . S
C1238 O1237 1.208 . S
C1239 O1244 1.247 . S
C1239 O1245 1.208 . S
C1240 O1232 1.315 . S
C1240 O1235 1.279 . S
C1241 O1242 1.315 . S
C1241 O1243 1.279 . S
O1242 Cd1234 2.223 . S
O1242 C1241 1.315 . S
O1243 Cd1233 2.240 . S
O1243 C1241 1.279 . S
O1244 Cd1234 2.297 . S
O1244 C1239 1.247 . S
O1245 Cd1234 2.439 . S
O1245 C1239 1.208 . S
O1246 Cd1247 2.223 . S
O1246 C1254 1.315 . S
Cd1247 O1246 2.223 . S
Cd1247 O1250 2.297 . S
Cd1247 O1251 2.439 . S
Cd1247 O1257 2.240 . S
Cd1248 O1249 2.240 . S
Cd1248 O1256 2.223 . S
Cd1248 O1258 2.297 . S
Cd1248 O1259 2.439 . S
O1249 Cd1248 2.240 . S
O1249 C1254 1.279 . S
O1250 Cd1247 2.297 . S
O1250 C1252 1.247 . S
O1251 Cd1247 2.439 . S
O1251 C1252 1.208 . S
C1252 O1250 1.247 . S
C1252 O1251 1.208 . S
C1253 O1258 1.247 . S
C1253 O1259 1.208 . S
C1254 O1246 1.315 . S
C1254 O1249 1.279 . S
C1255 O1256 1.315 . S
C1255 O1257 1.279 . S
O1256 Cd1248 2.223 . S
O1256 C1255 1.315 . S
O1257 Cd1247 2.240 . S
O1257 C1255 1.279 . S
O1258 Cd1248 2.297 . S
O1258 C1253 1.247 . S
O1259 Cd1248 2.439 . S
O1259 C1253 1.208 . S
O1260 Cd1261 2.223 . S
O1260 C1268 1.315 . S
Cd1261 O1260 2.223 . S
Cd1261 O1264 2.297 . S
Cd1261 O1265 2.439 . S
Cd1261 O1271 2.240 . S
Cd1262 O1263 2.240 . S
Cd1262 O1270 2.223 . S
Cd1262 O1272 2.297 . S
Cd1262 O1273 2.439 . S
O1263 Cd1262 2.240 . S
O1263 C1268 1.279 . S
O1264 Cd1261 2.297 . S
O1264 C1266 1.247 . S
O1265 Cd1261 2.439 . S
O1265 C1266 1.208 . S
C1266 O1264 1.247 . S
C1266 O1265 1.208 . S
C1267 O1272 1.247 . S
C1267 O1273 1.208 . S
C1268 O1260 1.315 . S
C1268 O1263 1.279 . S
C1269 O1270 1.315 . S
C1269 O1271 1.279 . S
O1270 Cd1262 2.223 . S
O1270 C1269 1.315 . S
O1271 Cd1261 2.240 . S
O1271 C1269 1.279 . S
O1272 Cd1262 2.297 . S
O1272 C1267 1.247 . S
O1273 Cd1262 2.439 . S
O1273 C1267 1.208 . S
O1274 Cd1275 2.223 . S
O1274 C1282 1.315 . S
Cd1275 O1274 2.223 . S
Cd1275 O1278 2.297 . S
Cd1275 O1279 2.439 . S
Cd1275 O1285 2.240 . S
Cd1276 O1277 2.240 . S
Cd1276 O1284 2.223 . S
Cd1276 O1286 2.297 . S
Cd1276 O1287 2.439 . S
O1277 Cd1276 2.240 . S
O1277 C1282 1.279 . S
O1278 Cd1275 2.297 . S
O1278 C1280 1.247 . S
O1279 Cd1275 2.439 . S
O1279 C1280 1.208 . S
C1280 O1278 1.247 . S
C1280 O1279 1.208 . S
C1281 O1286 1.247 . S
C1281 O1287 1.208 . S
C1282 O1274 1.315 . S
C1282 O1277 1.279 . S
C1283 O1284 1.315 . S
C1283 O1285 1.279 . S
O1284 Cd1276 2.223 . S
O1284 C1283 1.315 . S
O1285 Cd1275 2.240 . S
O1285 C1283 1.279 . S
O1286 Cd1276 2.297 . S
O1286 C1281 1.247 . S
O1287 Cd1276 2.439 . S
O1287 C1281 1.208 . S
O1288 Cd1289 2.223 . S
O1288 C1296 1.315 . S
Cd1289 O1288 2.223 . S
Cd1289 O1292 2.297 . S
Cd1289 O1293 2.439 . S
Cd1289 O1299 2.240 . S
Cd1290 O1291 2.240 . S
Cd1290 O1298 2.223 . S
Cd1290 O1300 2.297 . S
Cd1290 O1301 2.439 . S
O1291 Cd1290 2.240 . S
O1291 C1296 1.279 . S
O1292 Cd1289 2.297 . S
O1292 C1294 1.247 . S
O1293 Cd1289 2.439 . S
O1293 C1294 1.208 . S
C1294 O1292 1.247 . S
C1294 O1293 1.208 . S
C1295 O1300 1.247 . S
C1295 O1301 1.208 . S
C1296 O1288 1.315 . S
C1296 O1291 1.279 . S
C1297 O1298 1.315 . S
C1297 O1299 1.279 . S
O1298 Cd1290 2.223 . S
O1298 C1297 1.315 . S
O1299 Cd1289 2.240 . S
O1299 C1297 1.279 . S
O1300 Cd1290 2.297 . S
O1300 C1295 1.247 . S
O1301 Cd1290 2.439 . S
O1301 C1295 1.208 . S
O1302 Cd1303 2.223 . S
O1302 C1310 1.315 . S
Cd1303 O1302 2.223 . S
Cd1303 O1306 2.297 . S
Cd1303 O1307 2.439 . S
Cd1303 O1313 2.240 . S
Cd1304 O1305 2.240 . S
Cd1304 O1312 2.223 . S
Cd1304 O1314 2.297 . S
Cd1304 O1315 2.439 . S
O1305 Cd1304 2.240 . S
O1305 C1310 1.279 . S
O1306 Cd1303 2.297 . S
O1306 C1308 1.247 . S
O1307 Cd1303 2.439 . S
O1307 C1308 1.208 . S
C1308 O1306 1.247 . S
C1308 O1307 1.208 . S
C1309 O1314 1.247 . S
C1309 O1315 1.208 . S
C1310 O1302 1.315 . S
C1310 O1305 1.279 . S
C1311 O1312 1.315 . S
C1311 O1313 1.279 . S
O1312 Cd1304 2.223 . S
O1312 C1311 1.315 . S
O1313 Cd1303 2.240 . S
O1313 C1311 1.279 . S
O1314 Cd1304 2.297 . S
O1314 C1309 1.247 . S
O1315 Cd1304 2.439 . S
O1315 C1309 1.208 . S
O1316 Cd1317 2.223 . S
O1316 C1324 1.315 . S
Cd1317 O1316 2.223 . S
Cd1317 O1320 2.297 . S
Cd1317 O1321 2.439 . S
Cd1317 O1327 2.240 . S
Cd1318 O1319 2.240 . S
Cd1318 O1326 2.223 . S
Cd1318 O1328 2.297 . S
Cd1318 O1329 2.439 . S
O1319 Cd1318 2.240 . S
O1319 C1324 1.279 . S
O1320 Cd1317 2.297 . S
O1320 C1322 1.247 . S
O1321 Cd1317 2.439 . S
O1321 C1322 1.208 . S
C1322 O1320 1.247 . S
C1322 O1321 1.208 . S
C1323 O1328 1.247 . S
C1323 O1329 1.208 . S
C1324 O1316 1.315 . S
C1324 O1319 1.279 . S
C1325 O1326 1.315 . S
C1325 O1327 1.279 . S
O1326 Cd1318 2.223 . S
O1326 C1325 1.315 . S
O1327 Cd1317 2.240 . S
O1327 C1325 1.279 . S
O1328 Cd1318 2.297 . S
O1328 C1323 1.247 . S
O1329 Cd1318 2.439 . S
O1329 C1323 1.208 . S
O1330 Cd1331 2.223 . S
O1330 C1338 1.315 . S
Cd1331 O1330 2.223 . S
Cd1331 O1334 2.297 . S
Cd1331 O1335 2.439 . S
Cd1331 O1341 2.240 . S
Cd1332 O1333 2.240 . S
Cd1332 O1340 2.223 . S
Cd1332 O1342 2.297 . S
Cd1332 O1343 2.439 . S
O1333 Cd1332 2.240 . S
O1333 C1338 1.279 . S
O1334 Cd1331 2.297 . S
O1334 C1336 1.247 . S
O1335 Cd1331 2.439 . S
O1335 C1336 1.208 . S
C1336 O1334 1.247 . S
C1336 O1335 1.208 . S
C1337 O1342 1.247 . S
C1337 O1343 1.208 . S
C1338 O1330 1.315 . S
C1338 O1333 1.279 . S
C1339 O1340 1.315 . S
C1339 O1341 1.279 . S
O1340 Cd1332 2.223 . S
O1340 C1339 1.315 . S
O1341 Cd1331 2.240 . S
O1341 C1339 1.279 . S
O1342 Cd1332 2.297 . S
O1342 C1337 1.247 . S
O1343 Cd1332 2.439 . S
O1343 C1337 1.208 . S
H1344 C1352 0.950 . S
H1345 C1357 0.950 . S
H1346 C1354 0.950 . S
H1347 C1356 0.950 . S
H1348 C1358 0.950 . S
H1349 C1360 0.950 . S
H1350 C1362 0.950 . S
H1351 C1363 0.950 . S
C1352 H1344 0.950 . S
C1352 C1353 1.386 . S
C1352 C1354 1.391 . S
C1353 C1352 1.386 . S
C1353 C1357 1.393 . S
C1354 H1346 0.950 . S
C1354 C1352 1.391 . S
C1354 C1355 1.400 . S
C1355 C1354 1.400 . S
C1355 C1356 1.398 . S
C1355 C1361 1.491 . S
C1356 H1347 0.950 . S
C1356 C1355 1.398 . S
C1356 C1357 1.391 . S
C1357 H1345 0.950 . S
C1357 C1353 1.393 . S
C1357 C1356 1.391 . S
C1358 H1348 0.950 . S
C1358 C1359 1.386 . S
C1358 C1360 1.391 . S
C1359 C1358 1.386 . S
C1359 C1363 1.393 . S
C1360 H1349 0.950 . S
C1360 C1358 1.391 . S
C1360 C1361 1.400 . S
C1361 C1355 1.491 . S
C1361 C1360 1.400 . S
C1361 C1362 1.398 . S
C1362 H1350 0.950 . S
C1362 C1361 1.398 . S
C1362 C1363 1.391 . S
C1363 H1351 0.950 . S
C1363 C1359 1.393 . S
C1363 C1362 1.391 . S
H1364 C1372 0.950 . S
H1365 C1377 0.950 . S
H1366 C1374 0.950 . S
H1367 C1376 0.950 . S
H1368 C1378 0.950 . S
H1369 C1380 0.950 . S
H1370 C1382 0.950 . S
H1371 C1383 0.950 . S
C1372 H1364 0.950 . S
C1372 C1373 1.386 . S
C1372 C1374 1.391 . S
C1373 C1372 1.386 . S
C1373 C1377 1.393 . S
C1374 H1366 0.950 . S
C1374 C1372 1.391 . S
C1374 C1375 1.400 . S
C1375 C1374 1.400 . S
C1375 C1376 1.398 . S
C1375 C1381 1.491 . S
C1376 H1367 0.950 . S
C1376 C1375 1.398 . S
C1376 C1377 1.391 . S
C1377 H1365 0.950 . S
C1377 C1373 1.393 . S
C1377 C1376 1.391 . S
C1378 H1368 0.950 . S
C1378 C1379 1.386 . S
C1378 C1380 1.391 . S
C1379 C1378 1.386 . S
C1379 C1383 1.393 . S
C1380 H1369 0.950 . S
C1380 C1378 1.391 . S
C1380 C1381 1.400 . S
C1381 C1375 1.491 . S
C1381 C1380 1.400 . S
C1381 C1382 1.398 . S
C1382 H1370 0.950 . S
C1382 C1381 1.398 . S
C1382 C1383 1.391 . S
C1383 H1371 0.950 . S
C1383 C1379 1.393 . S
C1383 C1382 1.391 . S
H1384 C1392 0.950 . S
H1385 C1397 0.950 . S
H1386 C1394 0.950 . S
H1387 C1396 0.950 . S
H1388 C1398 0.950 . S
H1389 C1400 0.950 . S
H1390 C1402 0.950 . S
H1391 C1403 0.950 . S
C1392 H1384 0.950 . S
C1392 C1393 1.386 . S
C1392 C1394 1.391 . S
C1393 C1392 1.386 . S
C1393 C1397 1.393 . S
C1394 H1386 0.950 . S
C1394 C1392 1.391 . S
C1394 C1395 1.400 . S
C1395 C1394 1.400 . S
C1395 C1396 1.398 . S
C1395 C1401 1.491 . S
C1396 H1387 0.950 . S
C1396 C1395 1.398 . S
C1396 C1397 1.391 . S
C1397 H1385 0.950 . S
C1397 C1393 1.393 . S
C1397 C1396 1.391 . S
C1398 H1388 0.950 . S
C1398 C1399 1.386 . S
C1398 C1400 1.391 . S
C1399 C1398 1.386 . S
C1399 C1403 1.393 . S
C1400 H1389 0.950 . S
C1400 C1398 1.391 . S
C1400 C1401 1.400 . S
C1401 C1395 1.491 . S
C1401 C1400 1.400 . S
C1401 C1402 1.398 . S
C1402 H1390 0.950 . S
C1402 C1401 1.398 . S
C1402 C1403 1.391 . S
C1403 H1391 0.950 . S
C1403 C1399 1.393 . S
C1403 C1402 1.391 . S
H1404 C1412 0.950 . S
H1405 C1417 0.950 . S
H1406 C1414 0.950 . S
H1407 C1416 0.950 . S
H1408 C1418 0.950 . S
H1409 C1420 0.950 . S
H1410 C1422 0.950 . S
H1411 C1423 0.950 . S
C1412 H1404 0.950 . S
C1412 C1413 1.386 . S
C1412 C1414 1.391 . S
C1413 C1412 1.386 . S
C1413 C1417 1.393 . S
C1414 H1406 0.950 . S
C1414 C1412 1.391 . S
C1414 C1415 1.400 . S
C1415 C1414 1.400 . S
C1415 C1416 1.398 . S
C1415 C1421 1.491 . S
C1416 H1407 0.950 . S
C1416 C1415 1.398 . S
C1416 C1417 1.391 . S
C1417 H1405 0.950 . S
C1417 C1413 1.393 . S
C1417 C1416 1.391 . S
C1418 H1408 0.950 . S
C1418 C1419 1.386 . S
C1418 C1420 1.391 . S
C1419 C1418 1.386 . S
C1419 C1423 1.393 . S
C1420 H1409 0.950 . S
C1420 C1418 1.391 . S
C1420 C1421 1.400 . S
C1421 C1415 1.491 . S
C1421 C1420 1.400 . S
C1421 C1422 1.398 . S
C1422 H1410 0.950 . S
C1422 C1421 1.398 . S
C1422 C1423 1.391 . S
C1423 H1411 0.950 . S
C1423 C1419 1.393 . S
C1423 C1422 1.391 . S
H1424 C1432 0.950 . S
H1425 C1437 0.950 . S
H1426 C1434 0.950 . S
H1427 C1436 0.950 . S
H1428 C1438 0.950 . S
H1429 C1440 0.950 . S
H1430 C1442 0.950 . S
H1431 C1443 0.950 . S
C1432 H1424 0.950 . S
C1432 C1433 1.386 . S
C1432 C1434 1.391 . S
C1433 C1432 1.386 . S
C1433 C1437 1.393 . S
C1434 H1426 0.950 . S
C1434 C1432 1.391 . S
C1434 C1435 1.400 . S
C1435 C1434 1.400 . S
C1435 C1436 1.398 . S
C1435 C1441 1.491 . S
C1436 H1427 0.950 . S
C1436 C1435 1.398 . S
C1436 C1437 1.391 . S
C1437 H1425 0.950 . S
C1437 C1433 1.393 . S
C1437 C1436 1.391 . S
C1438 H1428 0.950 . S
C1438 C1439 1.386 . S
C1438 C1440 1.391 . S
C1439 C1438 1.386 . S
C1439 C1443 1.393 . S
C1440 H1429 0.950 . S
C1440 C1438 1.391 . S
C1440 C1441 1.400 . S
C1441 C1435 1.491 . S
C1441 C1440 1.400 . S
C1441 C1442 1.398 . S
C1442 H1430 0.950 . S
C1442 C1441 1.398 . S
C1442 C1443 1.391 . S
C1443 H1431 0.950 . S
C1443 C1439 1.393 . S
C1443 C1442 1.391 . S
H1444 C1452 0.950 . S
H1445 C1457 0.950 . S
H1446 C1454 0.950 . S
H1447 C1456 0.950 . S
H1448 C1458 0.950 . S
H1449 C1460 0.950 . S
H1450 C1462 0.950 . S
H1451 C1463 0.950 . S
C1452 H1444 0.950 . S
C1452 C1453 1.386 . S
C1452 C1454 1.391 . S
C1453 C1452 1.386 . S
C1453 C1457 1.393 . S
C1454 H1446 0.950 . S
C1454 C1452 1.391 . S
C1454 C1455 1.400 . S
C1455 C1454 1.400 . S
C1455 C1456 1.398 . S
C1455 C1461 1.491 . S
C1456 H1447 0.950 . S
C1456 C1455 1.398 . S
C1456 C1457 1.391 . S
C1457 H1445 0.950 . S
C1457 C1453 1.393 . S
C1457 C1456 1.391 . S
C1458 H1448 0.950 . S
C1458 C1459 1.386 . S
C1458 C1460 1.391 . S
C1459 C1458 1.386 . S
C1459 C1463 1.393 . S
C1460 H1449 0.950 . S
C1460 C1458 1.391 . S
C1460 C1461 1.400 . S
C1461 C1455 1.491 . S
C1461 C1460 1.400 . S
C1461 C1462 1.398 . S
C1462 H1450 0.950 . S
C1462 C1461 1.398 . S
C1462 C1463 1.391 . S
C1463 H1451 0.950 . S
C1463 C1459 1.393 . S
C1463 C1462 1.391 . S
H1464 C1472 0.950 . S
H1465 C1477 0.950 . S
H1466 C1474 0.950 . S
H1467 C1476 0.950 . S
H1468 C1478 0.950 . S
H1469 C1480 0.950 . S
H1470 C1482 0.950 . S
H1471 C1483 0.950 . S
C1472 H1464 0.950 . S
C1472 C1473 1.386 . S
C1472 C1474 1.391 . S
C1473 C1472 1.386 . S
C1473 C1477 1.393 . S
C1474 H1466 0.950 . S
C1474 C1472 1.391 . S
C1474 C1475 1.400 . S
C1475 C1474 1.400 . S
C1475 C1476 1.398 . S
C1475 C1481 1.491 . S
C1476 H1467 0.950 . S
C1476 C1475 1.398 . S
C1476 C1477 1.391 . S
C1477 H1465 0.950 . S
C1477 C1473 1.393 . S
C1477 C1476 1.391 . S
C1478 H1468 0.950 . S
C1478 C1479 1.386 . S
C1478 C1480 1.391 . S
C1479 C1478 1.386 . S
C1479 C1483 1.393 . S
C1480 H1469 0.950 . S
C1480 C1478 1.391 . S
C1480 C1481 1.400 . S
C1481 C1475 1.491 . S
C1481 C1480 1.400 . S
C1481 C1482 1.398 . S
C1482 H1470 0.950 . S
C1482 C1481 1.398 . S
C1482 C1483 1.391 . S
C1483 H1471 0.950 . S
C1483 C1479 1.393 . S
C1483 C1482 1.391 . S
H1484 C1492 0.950 . S
H1485 C1497 0.950 . S
H1486 C1494 0.950 . S
H1487 C1496 0.950 . S
H1488 C1498 0.950 . S
H1489 C1500 0.950 . S
H1490 C1502 0.950 . S
H1491 C1503 0.950 . S
C1492 H1484 0.950 . S
C1492 C1493 1.386 . S
C1492 C1494 1.391 . S
C1493 C1492 1.386 . S
C1493 C1497 1.393 . S
C1494 H1486 0.950 . S
C1494 C1492 1.391 . S
C1494 C1495 1.400 . S
C1495 C1494 1.400 . S
C1495 C1496 1.398 . S
C1495 C1501 1.491 . S
C1496 H1487 0.950 . S
C1496 C1495 1.398 . S
C1496 C1497 1.391 . S
C1497 H1485 0.950 . S
C1497 C1493 1.393 . S
C1497 C1496 1.391 . S
C1498 H1488 0.950 . S
C1498 C1499 1.386 . S
C1498 C1500 1.391 . S
C1499 C1498 1.386 . S
C1499 C1503 1.393 . S
C1500 H1489 0.950 . S
C1500 C1498 1.391 . S
C1500 C1501 1.400 . S
C1501 C1495 1.491 . S
C1501 C1500 1.400 . S
C1501 C1502 1.398 . S
C1502 H1490 0.950 . S
C1502 C1501 1.398 . S
C1502 C1503 1.391 . S
C1503 H1491 0.950 . S
C1503 C1499 1.393 . S
C1503 C1502 1.391 . S
H1504 C1512 0.950 . S
H1505 C1517 0.950 . S
H1506 C1514 0.950 . S
H1507 C1516 0.950 . S
H1508 C1518 0.950 . S
H1509 C1520 0.950 . S
H1510 C1522 0.950 . S
H1511 C1523 0.950 . S
C1512 H1504 0.950 . S
C1512 C1513 1.386 . S
C1512 C1514 1.391 . S
C1513 C1512 1.386 . S
C1513 C1517 1.393 . S
C1514 H1506 0.950 . S
C1514 C1512 1.391 . S
C1514 C1515 1.400 . S
C1515 C1514 1.400 . S
C1515 C1516 1.398 . S
C1515 C1521 1.491 . S
C1516 H1507 0.950 . S
C1516 C1515 1.398 . S
C1516 C1517 1.391 . S
C1517 H1505 0.950 . S
C1517 C1513 1.393 . S
C1517 C1516 1.391 . S
C1518 H1508 0.950 . S
C1518 C1519 1.386 . S
C1518 C1520 1.391 . S
C1519 C1518 1.386 . S
C1519 C1523 1.393 . S
C1520 H1509 0.950 . S
C1520 C1518 1.391 . S
C1520 C1521 1.400 . S
C1521 C1515 1.491 . S
C1521 C1520 1.400 . S
C1521 C1522 1.398 . S
C1522 H1510 0.950 . S
C1522 C1521 1.398 . S
C1522 C1523 1.391 . S
C1523 H1511 0.950 . S
C1523 C1519 1.393 . S
C1523 C1522 1.391 . S
H1524 C1532 0.950 . S
H1525 C1537 0.950 . S
H1526 C1534 0.950 . S
H1527 C1536 0.950 . S
H1528 C1538 0.950 . S
H1529 C1540 0.950 . S
H1530 C1542 0.950 . S
H1531 C1543 0.950 . S
C1532 H1524 0.950 . S
C1532 C1533 1.386 . S
C1532 C1534 1.391 . S
C1533 C1532 1.386 . S
C1533 C1537 1.393 . S
C1534 H1526 0.950 . S
C1534 C1532 1.391 . S
C1534 C1535 1.400 . S
C1535 C1534 1.400 . S
C1535 C1536 1.398 . S
C1535 C1541 1.491 . S
C1536 H1527 0.950 . S
C1536 C1535 1.398 . S
C1536 C1537 1.391 . S
C1537 H1525 0.950 . S
C1537 C1533 1.393 . S
C1537 C1536 1.391 . S
C1538 H1528 0.950 . S
C1538 C1539 1.386 . S
C1538 C1540 1.391 . S
C1539 C1538 1.386 . S
C1539 C1543 1.393 . S
C1540 H1529 0.950 . S
C1540 C1538 1.391 . S
C1540 C1541 1.400 . S
C1541 C1535 1.491 . S
C1541 C1540 1.400 . S
C1541 C1542 1.398 . S
C1542 H1530 0.950 . S
C1542 C1541 1.398 . S
C1542 C1543 1.391 . S
C1543 H1531 0.950 . S
C1543 C1539 1.393 . S
C1543 C1542 1.391 . S
H1544 C1552 0.950 . S
H1545 C1557 0.950 . S
H1546 C1554 0.950 . S
H1547 C1556 0.950 . S
H1548 C1558 0.950 . S
H1549 C1560 0.950 . S
H1550 C1562 0.950 . S
H1551 C1563 0.950 . S
C1552 H1544 0.950 . S
C1552 C1553 1.386 . S
C1552 C1554 1.391 . S
C1553 C1552 1.386 . S
C1553 C1557 1.393 . S
C1554 H1546 0.950 . S
C1554 C1552 1.391 . S
C1554 C1555 1.400 . S
C1555 C1554 1.400 . S
C1555 C1556 1.398 . S
C1555 C1561 1.491 . S
C1556 H1547 0.950 . S
C1556 C1555 1.398 . S
C1556 C1557 1.391 . S
C1557 H1545 0.950 . S
C1557 C1553 1.393 . S
C1557 C1556 1.391 . S
C1558 H1548 0.950 . S
C1558 C1559 1.386 . S
C1558 C1560 1.391 . S
C1559 C1558 1.386 . S
C1559 C1563 1.393 . S
C1560 H1549 0.950 . S
C1560 C1558 1.391 . S
C1560 C1561 1.400 . S
C1561 C1555 1.491 . S
C1561 C1560 1.400 . S
C1561 C1562 1.398 . S
C1562 H1550 0.950 . S
C1562 C1561 1.398 . S
C1562 C1563 1.391 . S
C1563 H1551 0.950 . S
C1563 C1559 1.393 . S
C1563 C1562 1.391 . S
H1564 C1572 0.950 . S
H1565 C1577 0.950 . S
H1566 C1574 0.950 . S
H1567 C1576 0.950 . S
H1568 C1578 0.950 . S
H1569 C1580 0.950 . S
H1570 C1582 0.950 . S
H1571 C1583 0.950 . S
C1572 H1564 0.950 . S
C1572 C1573 1.386 . S
C1572 C1574 1.391 . S
C1573 C1572 1.386 . S
C1573 C1577 1.393 . S
C1574 H1566 0.950 . S
C1574 C1572 1.391 . S
C1574 C1575 1.400 . S
C1575 C1574 1.400 . S
C1575 C1576 1.398 . S
C1575 C1581 1.491 . S
C1576 H1567 0.950 . S
C1576 C1575 1.398 . S
C1576 C1577 1.391 . S
C1577 H1565 0.950 . S
C1577 C1573 1.393 . S
C1577 C1576 1.391 . S
C1578 H1568 0.950 . S
C1578 C1579 1.386 . S
C1578 C1580 1.391 . S
C1579 C1578 1.386 . S
C1579 C1583 1.393 . S
C1580 H1569 0.950 . S
C1580 C1578 1.391 . S
C1580 C1581 1.400 . S
C1581 C1575 1.491 . S
C1581 C1580 1.400 . S
C1581 C1582 1.398 . S
C1582 H1570 0.950 . S
C1582 C1581 1.398 . S
C1582 C1583 1.391 . S
C1583 H1571 0.950 . S
C1583 C1579 1.393 . S
C1583 C1582 1.391 . S
H1584 C1592 0.950 . S
H1585 C1597 0.950 . S
H1586 C1594 0.950 . S
H1587 C1596 0.950 . S
H1588 C1598 0.950 . S
H1589 C1600 0.950 . S
H1590 C1602 0.950 . S
H1591 C1603 0.950 . S
C1592 H1584 0.950 . S
C1592 C1593 1.386 . S
C1592 C1594 1.391 . S
C1593 C1592 1.386 . S
C1593 C1597 1.393 . S
C1594 H1586 0.950 . S
C1594 C1592 1.391 . S
C1594 C1595 1.400 . S
C1595 C1594 1.400 . S
C1595 C1596 1.398 . S
C1595 C1601 1.491 . S
C1596 H1587 0.950 . S
C1596 C1595 1.398 . S
C1596 C1597 1.391 . S
C1597 H1585 0.950 . S
C1597 C1593 1.393 . S
C1597 C1596 1.391 . S
C1598 H1588 0.950 . S
C1598 C1599 1.386 . S
C1598 C1600 1.391 . S
C1599 C1598 1.386 . S
C1599 C1603 1.393 . S
C1600 H1589 0.950 . S
C1600 C1598 1.391 . S
C1600 C1601 1.400 . S
C1601 C1595 1.491 . S
C1601 C1600 1.400 . S
C1601 C1602 1.398 . S
C1602 H1590 0.950 . S
C1602 C1601 1.398 . S
C1602 C1603 1.391 . S
C1603 H1591 0.950 . S
C1603 C1599 1.393 . S
C1603 C1602 1.391 . S
H1604 C1612 0.950 . S
H1605 C1617 0.950 . S
H1606 C1614 0.950 . S
H1607 C1616 0.950 . S
H1608 C1618 0.950 . S
H1609 C1620 0.950 . S
H1610 C1622 0.950 . S
H1611 C1623 0.950 . S
C1612 H1604 0.950 . S
C1612 C1613 1.386 . S
C1612 C1614 1.391 . S
C1613 C1612 1.386 . S
C1613 C1617 1.393 . S
C1614 H1606 0.950 . S
C1614 C1612 1.391 . S
C1614 C1615 1.400 . S
C1615 C1614 1.400 . S
C1615 C1616 1.398 . S
C1615 C1621 1.491 . S
C1616 H1607 0.950 . S
C1616 C1615 1.398 . S
C1616 C1617 1.391 . S
C1617 H1605 0.950 . S
C1617 C1613 1.393 . S
C1617 C1616 1.391 . S
C1618 H1608 0.950 . S
C1618 C1619 1.386 . S
C1618 C1620 1.391 . S
C1619 C1618 1.386 . S
C1619 C1623 1.393 . S
C1620 H1609 0.950 . S
C1620 C1618 1.391 . S
C1620 C1621 1.400 . S
C1621 C1615 1.491 . S
C1621 C1620 1.400 . S
C1621 C1622 1.398 . S
C1622 H1610 0.950 . S
C1622 C1621 1.398 . S
C1622 C1623 1.391 . S
C1623 H1611 0.950 . S
C1623 C1619 1.393 . S
C1623 C1622 1.391 . S
H1624 C1632 0.950 . S
H1625 C1637 0.950 . S
H1626 C1634 0.950 . S
H1627 C1636 0.950 . S
H1628 C1638 0.950 . S
H1629 C1640 0.950 . S
H1630 C1642 0.950 . S
H1631 C1643 0.950 . S
C1632 H1624 0.950 . S
C1632 C1633 1.386 . S
C1632 C1634 1.391 . S
C1633 C1632 1.386 . S
C1633 C1637 1.393 . S
C1634 H1626 0.950 . S
C1634 C1632 1.391 . S
C1634 C1635 1.400 . S
C1635 C1634 1.400 . S
C1635 C1636 1.398 . S
C1635 C1641 1.491 . S
C1636 H1627 0.950 . S
C1636 C1635 1.398 . S
C1636 C1637 1.391 . S
C1637 H1625 0.950 . S
C1637 C1633 1.393 . S
C1637 C1636 1.391 . S
C1638 H1628 0.950 . S
C1638 C1639 1.386 . S
C1638 C1640 1.391 . S
C1639 C1638 1.386 . S
C1639 C1643 1.393 . S
C1640 H1629 0.950 . S
C1640 C1638 1.391 . S
C1640 C1641 1.400 . S
C1641 C1635 1.491 . S
C1641 C1640 1.400 . S
C1641 C1642 1.398 . S
C1642 H1630 0.950 . S
C1642 C1641 1.398 . S
C1642 C1643 1.391 . S
C1643 H1631 0.950 . S
C1643 C1639 1.393 . S
C1643 C1642 1.391 . S
H1644 C1652 0.950 . S
H1645 C1657 0.950 . S
H1646 C1654 0.950 . S
H1647 C1656 0.950 . S
H1648 C1658 0.950 . S
H1649 C1660 0.950 . S
H1650 C1662 0.950 . S
H1651 C1663 0.950 . S
C1652 H1644 0.950 . S
C1652 C1653 1.386 . S
C1652 C1654 1.391 . S
C1653 C1652 1.386 . S
C1653 C1657 1.393 . S
C1654 H1646 0.950 . S
C1654 C1652 1.391 . S
C1654 C1655 1.400 . S
C1655 C1654 1.400 . S
C1655 C1656 1.398 . S
C1655 C1661 1.491 . S
C1656 H1647 0.950 . S
C1656 C1655 1.398 . S
C1656 C1657 1.391 . S
C1657 H1645 0.950 . S
C1657 C1653 1.393 . S
C1657 C1656 1.391 . S
C1658 H1648 0.950 . S
C1658 C1659 1.386 . S
C1658 C1660 1.391 . S
C1659 C1658 1.386 . S
C1659 C1663 1.393 . S
C1660 H1649 0.950 . S
C1660 C1658 1.391 . S
C1660 C1661 1.400 . S
C1661 C1655 1.491 . S
C1661 C1660 1.400 . S
C1661 C1662 1.398 . S
C1662 H1650 0.950 . S
C1662 C1661 1.398 . S
C1662 C1663 1.391 . S
C1663 H1651 0.950 . S
C1663 C1659 1.393 . S
C1663 C1662 1.391 . S
H1664 C1672 0.950 . S
H1665 C1677 0.950 . S
H1666 C1674 0.950 . S
H1667 C1676 0.950 . S
H1668 C1678 0.950 . S
H1669 C1680 0.950 . S
H1670 C1682 0.950 . S
H1671 C1683 0.950 . S
C1672 H1664 0.950 . S
C1672 C1673 1.386 . S
C1672 C1674 1.391 . S
C1673 C1672 1.386 . S
C1673 C1677 1.393 . S
C1674 H1666 0.950 . S
C1674 C1672 1.391 . S
C1674 C1675 1.400 . S
C1675 C1674 1.400 . S
C1675 C1676 1.398 . S
C1675 C1681 1.491 . S
C1676 H1667 0.950 . S
C1676 C1675 1.398 . S
C1676 C1677 1.391 . S
C1677 H1665 0.950 . S
C1677 C1673 1.393 . S
C1677 C1676 1.391 . S
C1678 H1668 0.950 . S
C1678 C1679 1.386 . S
C1678 C1680 1.391 . S
C1679 C1678 1.386 . S
C1679 C1683 1.393 . S
C1680 H1669 0.950 . S
C1680 C1678 1.391 . S
C1680 C1681 1.400 . S
C1681 C1675 1.491 . S
C1681 C1680 1.400 . S
C1681 C1682 1.398 . S
C1682 H1670 0.950 . S
C1682 C1681 1.398 . S
C1682 C1683 1.391 . S
C1683 H1671 0.950 . S
C1683 C1679 1.393 . S
C1683 C1682 1.391 . S
H1684 C1692 0.950 . S
H1685 C1697 0.950 . S
H1686 C1694 0.950 . S
H1687 C1696 0.950 . S
H1688 C1698 0.950 . S
H1689 C1700 0.950 . S
H1690 C1702 0.950 . S
H1691 C1703 0.950 . S
C1692 H1684 0.950 . S
C1692 C1693 1.386 . S
C1692 C1694 1.391 . S
C1693 C1692 1.386 . S
C1693 C1697 1.393 . S
C1694 H1686 0.950 . S
C1694 C1692 1.391 . S
C1694 C1695 1.400 . S
C1695 C1694 1.400 . S
C1695 C1696 1.398 . S
C1695 C1701 1.491 . S
C1696 H1687 0.950 . S
C1696 C1695 1.398 . S
C1696 C1697 1.391 . S
C1697 H1685 0.950 . S
C1697 C1693 1.393 . S
C1697 C1696 1.391 . S
C1698 H1688 0.950 . S
C1698 C1699 1.386 . S
C1698 C1700 1.391 . S
C1699 C1698 1.386 . S
C1699 C1703 1.393 . S
C1700 H1689 0.950 . S
C1700 C1698 1.391 . S
C1700 C1701 1.400 . S
C1701 C1695 1.491 . S
C1701 C1700 1.400 . S
C1701 C1702 1.398 . S
C1702 H1690 0.950 . S
C1702 C1701 1.398 . S
C1702 C1703 1.391 . S
C1703 H1691 0.950 . S
C1703 C1699 1.393 . S
C1703 C1702 1.391 . S
H1704 C1712 0.950 . S
H1705 C1717 0.950 . S
H1706 C1714 0.950 . S
H1707 C1716 0.950 . S
H1708 C1718 0.950 . S
H1709 C1720 0.950 . S
H1710 C1722 0.950 . S
H1711 C1723 0.950 . S
C1712 H1704 0.950 . S
C1712 C1713 1.386 . S
C1712 C1714 1.391 . S
C1713 C1712 1.386 . S
C1713 C1717 1.393 . S
C1714 H1706 0.950 . S
C1714 C1712 1.391 . S
C1714 C1715 1.400 . S
C1715 C1714 1.400 . S
C1715 C1716 1.398 . S
C1715 C1721 1.491 . S
C1716 H1707 0.950 . S
C1716 C1715 1.398 . S
C1716 C1717 1.391 . S
C1717 H1705 0.950 . S
C1717 C1713 1.393 . S
C1717 C1716 1.391 . S
C1718 H1708 0.950 . S
C1718 C1719 1.386 . S
C1718 C1720 1.391 . S
C1719 C1718 1.386 . S
C1719 C1723 1.393 . S
C1720 H1709 0.950 . S
C1720 C1718 1.391 . S
C1720 C1721 1.400 . S
C1721 C1715 1.491 . S
C1721 C1720 1.400 . S
C1721 C1722 1.398 . S
C1722 H1710 0.950 . S
C1722 C1721 1.398 . S
C1722 C1723 1.391 . S
C1723 H1711 0.950 . S
C1723 C1719 1.393 . S
C1723 C1722 1.391 . S
H1724 C1732 0.950 . S
H1725 C1737 0.950 . S
H1726 C1734 0.950 . S
H1727 C1736 0.950 . S
H1728 C1738 0.950 . S
H1729 C1740 0.950 . S
H1730 C1742 0.950 . S
H1731 C1743 0.950 . S
C1732 H1724 0.950 . S
C1732 C1733 1.386 . S
C1732 C1734 1.391 . S
C1733 C1732 1.386 . S
C1733 C1737 1.393 . S
C1734 H1726 0.950 . S
C1734 C1732 1.391 . S
C1734 C1735 1.400 . S
C1735 C1734 1.400 . S
C1735 C1736 1.398 . S
C1735 C1741 1.491 . S
C1736 H1727 0.950 . S
C1736 C1735 1.398 . S
C1736 C1737 1.391 . S
C1737 H1725 0.950 . S
C1737 C1733 1.393 . S
C1737 C1736 1.391 . S
C1738 H1728 0.950 . S
C1738 C1739 1.386 . S
C1738 C1740 1.391 . S
C1739 C1738 1.386 . S
C1739 C1743 1.393 . S
C1740 H1729 0.950 . S
C1740 C1738 1.391 . S
C1740 C1741 1.400 . S
C1741 C1735 1.491 . S
C1741 C1740 1.400 . S
C1741 C1742 1.398 . S
C1742 H1730 0.950 . S
C1742 C1741 1.398 . S
C1742 C1743 1.391 . S
C1743 H1731 0.950 . S
C1743 C1739 1.393 . S
C1743 C1742 1.391 . S
H1744 C1752 0.950 . S
H1745 C1757 0.950 . S
H1746 C1754 0.950 . S
H1747 C1756 0.950 . S
H1748 C1758 0.950 . S
H1749 C1760 0.950 . S
H1750 C1762 0.950 . S
H1751 C1763 0.950 . S
C1752 H1744 0.950 . S
C1752 C1753 1.386 . S
C1752 C1754 1.391 . S
C1753 C1752 1.386 . S
C1753 C1757 1.393 . S
C1754 H1746 0.950 . S
C1754 C1752 1.391 . S
C1754 C1755 1.400 . S
C1755 C1754 1.400 . S
C1755 C1756 1.398 . S
C1755 C1761 1.491 . S
C1756 H1747 0.950 . S
C1756 C1755 1.398 . S
C1756 C1757 1.391 . S
C1757 H1745 0.950 . S
C1757 C1753 1.393 . S
C1757 C1756 1.391 . S
C1758 H1748 0.950 . S
C1758 C1759 1.386 . S
C1758 C1760 1.391 . S
C1759 C1758 1.386 . S
C1759 C1763 1.393 . S
C1760 H1749 0.950 . S
C1760 C1758 1.391 . S
C1760 C1761 1.400 . S
C1761 C1755 1.491 . S
C1761 C1760 1.400 . S
C1761 C1762 1.398 . S
C1762 H1750 0.950 . S
C1762 C1761 1.398 . S
C1762 C1763 1.391 . S
C1763 H1751 0.950 . S
C1763 C1759 1.393 . S
C1763 C1762 1.391 . S
H1764 C1772 0.950 . S
H1765 C1777 0.950 . S
H1766 C1774 0.950 . S
H1767 C1776 0.950 . S
H1768 C1778 0.950 . S
H1769 C1780 0.950 . S
H1770 C1782 0.950 . S
H1771 C1783 0.950 . S
C1772 H1764 0.950 . S
C1772 C1773 1.386 . S
C1772 C1774 1.391 . S
C1773 C1772 1.386 . S
C1773 C1777 1.393 . S
C1774 H1766 0.950 . S
C1774 C1772 1.391 . S
C1774 C1775 1.400 . S
C1775 C1774 1.400 . S
C1775 C1776 1.398 . S
C1775 C1781 1.491 . S
C1776 H1767 0.950 . S
C1776 C1775 1.398 . S
C1776 C1777 1.391 . S
C1777 H1765 0.950 . S
C1777 C1773 1.393 . S
C1777 C1776 1.391 . S
C1778 H1768 0.950 . S
C1778 C1779 1.386 . S
C1778 C1780 1.391 . S
C1779 C1778 1.386 . S
C1779 C1783 1.393 . S
C1780 H1769 0.950 . S
C1780 C1778 1.391 . S
C1780 C1781 1.400 . S
C1781 C1775 1.491 . S
C1781 C1780 1.400 . S
C1781 C1782 1.398 . S
C1782 H1770 0.950 . S
C1782 C1781 1.398 . S
C1782 C1783 1.391 . S
C1783 H1771 0.950 . S
C1783 C1779 1.393 . S
C1783 C1782 1.391 . S
H1784 C1792 0.950 . S
H1785 C1797 0.950 . S
H1786 C1794 0.950 . S
H1787 C1796 0.950 . S
H1788 C1798 0.950 . S
H1789 C1800 0.950 . S
H1790 C1802 0.950 . S
H1791 C1803 0.950 . S
C1792 H1784 0.950 . S
C1792 C1793 1.386 . S
C1792 C1794 1.391 . S
C1793 C1792 1.386 . S
C1793 C1797 1.393 . S
C1794 H1786 0.950 . S
C1794 C1792 1.391 . S
C1794 C1795 1.400 . S
C1795 C1794 1.400 . S
C1795 C1796 1.398 . S
C1795 C1801 1.491 . S
C1796 H1787 0.950 . S
C1796 C1795 1.398 . S
C1796 C1797 1.391 . S
C1797 H1785 0.950 . S
C1797 C1793 1.393 . S
C1797 C1796 1.391 . S
C1798 H1788 0.950 . S
C1798 C1799 1.386 . S
C1798 C1800 1.391 . S
C1799 C1798 1.386 . S
C1799 C1803 1.393 . S
C1800 H1789 0.950 . S
C1800 C1798 1.391 . S
C1800 C1801 1.400 . S
C1801 C1795 1.491 . S
C1801 C1800 1.400 . S
C1801 C1802 1.398 . S
C1802 H1790 0.950 . S
C1802 C1801 1.398 . S
C1802 C1803 1.391 . S
C1803 H1791 0.950 . S
C1803 C1799 1.393 . S
C1803 C1802 1.391 . S
H1804 C1812 0.950 . S
H1805 C1817 0.950 . S
H1806 C1814 0.950 . S
H1807 C1816 0.950 . S
H1808 C1818 0.950 . S
H1809 C1820 0.950 . S
H1810 C1822 0.950 . S
H1811 C1823 0.950 . S
C1812 H1804 0.950 . S
C1812 C1813 1.386 . S
C1812 C1814 1.391 . S
C1813 C1812 1.386 . S
C1813 C1817 1.393 . S
C1814 H1806 0.950 . S
C1814 C1812 1.391 . S
C1814 C1815 1.400 . S
C1815 C1814 1.400 . S
C1815 C1816 1.398 . S
C1815 C1821 1.491 . S
C1816 H1807 0.950 . S
C1816 C1815 1.398 . S
C1816 C1817 1.391 . S
C1817 H1805 0.950 . S
C1817 C1813 1.393 . S
C1817 C1816 1.391 . S
C1818 H1808 0.950 . S
C1818 C1819 1.386 . S
C1818 C1820 1.391 . S
C1819 C1818 1.386 . S
C1819 C1823 1.393 . S
C1820 H1809 0.950 . S
C1820 C1818 1.391 . S
C1820 C1821 1.400 . S
C1821 C1815 1.491 . S
C1821 C1820 1.400 . S
C1821 C1822 1.398 . S
C1822 H1810 0.950 . S
C1822 C1821 1.398 . S
C1822 C1823 1.391 . S
C1823 H1811 0.950 . S
C1823 C1819 1.393 . S
C1823 C1822 1.391 . S
H1824 C1832 0.950 . S
H1825 C1837 0.950 . S
H1826 C1834 0.950 . S
H1827 C1836 0.950 . S
H1828 C1838 0.950 . S
H1829 C1840 0.950 . S
H1830 C1842 0.950 . S
H1831 C1843 0.950 . S
C1832 H1824 0.950 . S
C1832 C1833 1.386 . S
C1832 C1834 1.391 . S
C1833 C1832 1.386 . S
C1833 C1837 1.393 . S
C1834 H1826 0.950 . S
C1834 C1832 1.391 . S
C1834 C1835 1.400 . S
C1835 C1834 1.400 . S
C1835 C1836 1.398 . S
C1835 C1841 1.491 . S
C1836 H1827 0.950 . S
C1836 C1835 1.398 . S
C1836 C1837 1.391 . S
C1837 H1825 0.950 . S
C1837 C1833 1.393 . S
C1837 C1836 1.391 . S
C1838 H1828 0.950 . S
C1838 C1839 1.386 . S
C1838 C1840 1.391 . S
C1839 C1838 1.386 . S
C1839 C1843 1.393 . S
C1840 H1829 0.950 . S
C1840 C1838 1.391 . S
C1840 C1841 1.400 . S
C1841 C1835 1.491 . S
C1841 C1840 1.400 . S
C1841 C1842 1.398 . S
C1842 H1830 0.950 . S
C1842 C1841 1.398 . S
C1842 C1843 1.391 . S
C1843 H1831 0.950 . S
C1843 C1839 1.393 . S
C1843 C1842 1.391 . S
H1844 C1852 0.950 . S
H1845 C1857 0.950 . S
H1846 C1854 0.950 . S
H1847 C1856 0.950 . S
H1848 C1858 0.950 . S
H1849 C1860 0.950 . S
H1850 C1862 0.950 . S
H1851 C1863 0.950 . S
C1852 H1844 0.950 . S
C1852 C1853 1.386 . S
C1852 C1854 1.391 . S
C1853 C1852 1.386 . S
C1853 C1857 1.393 . S
C1854 H1846 0.950 . S
C1854 C1852 1.391 . S
C1854 C1855 1.400 . S
C1855 C1854 1.400 . S
C1855 C1856 1.398 . S
C1855 C1861 1.491 . S
C1856 H1847 0.950 . S
C1856 C1855 1.398 . S
C1856 C1857 1.391 . S
C1857 H1845 0.950 . S
C1857 C1853 1.393 . S
C1857 C1856 1.391 . S
C1858 H1848 0.950 . S
C1858 C1859 1.386 . S
C1858 C1860 1.391 . S
C1859 C1858 1.386 . S
C1859 C1863 1.393 . S
C1860 H1849 0.950 . S
C1860 C1858 1.391 . S
C1860 C1861 1.400 . S
C1861 C1855 1.491 . S
C1861 C1860 1.400 . S
C1861 C1862 1.398 . S
C1862 H1850 0.950 . S
C1862 C1861 1.398 . S
C1862 C1863 1.391 . S
C1863 H1851 0.950 . S
C1863 C1859 1.393 . S
C1863 C1862 1.391 . S
H1864 C1872 0.950 . S
H1865 C1877 0.950 . S
H1866 C1874 0.950 . S
H1867 C1876 0.950 . S
H1868 C1878 0.950 . S
H1869 C1880 0.950 . S
H1870 C1882 0.950 . S
H1871 C1883 0.950 . S
C1872 H1864 0.950 . S
C1872 C1873 1.386 . S
C1872 C1874 1.391 . S
C1873 C1872 1.386 . S
C1873 C1877 1.393 . S
C1874 H1866 0.950 . S
C1874 C1872 1.391 . S
C1874 C1875 1.400 . S
C1875 C1874 1.400 . S
C1875 C1876 1.398 . S
C1875 C1881 1.491 . S
C1876 H1867 0.950 . S
C1876 C1875 1.398 . S
C1876 C1877 1.391 . S
C1877 H1865 0.950 . S
C1877 C1873 1.393 . S
C1877 C1876 1.391 . S
C1878 H1868 0.950 . S
C1878 C1879 1.386 . S
C1878 C1880 1.391 . S
C1879 C1878 1.386 . S
C1879 C1883 1.393 . S
C1880 H1869 0.950 . S
C1880 C1878 1.391 . S
C1880 C1881 1.400 . S
C1881 C1875 1.491 . S
C1881 C1880 1.400 . S
C1881 C1882 1.398 . S
C1882 H1870 0.950 . S
C1882 C1881 1.398 . S
C1882 C1883 1.391 . S
C1883 H1871 0.950 . S
C1883 C1879 1.393 . S
C1883 C1882 1.391 . S
H1884 C1892 0.950 . S
H1885 C1897 0.950 . S
H1886 C1894 0.950 . S
H1887 C1896 0.950 . S
H1888 C1898 0.950 . S
H1889 C1900 0.950 . S
H1890 C1902 0.950 . S
H1891 C1903 0.950 . S
C1892 H1884 0.950 . S
C1892 C1893 1.386 . S
C1892 C1894 1.391 . S
C1893 C1892 1.386 . S
C1893 C1897 1.393 . S
C1894 H1886 0.950 . S
C1894 C1892 1.391 . S
C1894 C1895 1.400 . S
C1895 C1894 1.400 . S
C1895 C1896 1.398 . S
C1895 C1901 1.491 . S
C1896 H1887 0.950 . S
C1896 C1895 1.398 . S
C1896 C1897 1.391 . S
C1897 H1885 0.950 . S
C1897 C1893 1.393 . S
C1897 C1896 1.391 . S
C1898 H1888 0.950 . S
C1898 C1899 1.386 . S
C1898 C1900 1.391 . S
C1899 C1898 1.386 . S
C1899 C1903 1.393 . S
C1900 H1889 0.950 . S
C1900 C1898 1.391 . S
C1900 C1901 1.400 . S
C1901 C1895 1.491 . S
C1901 C1900 1.400 . S
C1901 C1902 1.398 . S
C1902 H1890 0.950 . S
C1902 C1901 1.398 . S
C1902 C1903 1.391 . S
C1903 H1891 0.950 . S
C1903 C1899 1.393 . S
C1903 C1902 1.391 . S
H1904 C1912 0.950 . S
H1905 C1917 0.950 . S
H1906 C1914 0.950 . S
H1907 C1916 0.950 . S
H1908 C1918 0.950 . S
H1909 C1920 0.950 . S
H1910 C1922 0.950 . S
H1911 C1923 0.950 . S
C1912 H1904 0.950 . S
C1912 C1913 1.386 . S
C1912 C1914 1.391 . S
C1913 C1912 1.386 . S
C1913 C1917 1.393 . S
C1914 H1906 0.950 . S
C1914 C1912 1.391 . S
C1914 C1915 1.400 . S
C1915 C1914 1.400 . S
C1915 C1916 1.398 . S
C1915 C1921 1.491 . S
C1916 H1907 0.950 . S
C1916 C1915 1.398 . S
C1916 C1917 1.391 . S
C1917 H1905 0.950 . S
C1917 C1913 1.393 . S
C1917 C1916 1.391 . S
C1918 H1908 0.950 . S
C1918 C1919 1.386 . S
C1918 C1920 1.391 . S
C1919 C1918 1.386 . S
C1919 C1923 1.393 . S
C1920 H1909 0.950 . S
C1920 C1918 1.391 . S
C1920 C1921 1.400 . S
C1921 C1915 1.491 . S
C1921 C1920 1.400 . S
C1921 C1922 1.398 . S
C1922 H1910 0.950 . S
C1922 C1921 1.398 . S
C1922 C1923 1.391 . S
C1923 H1911 0.950 . S
C1923 C1919 1.393 . S
C1923 C1922 1.391 . S
H1924 C1932 0.950 . S
H1925 C1937 0.950 . S
H1926 C1934 0.950 . S
H1927 C1936 0.950 . S
H1928 C1938 0.950 . S
H1929 C1940 0.950 . S
H1930 C1942 0.950 . S
H1931 C1943 0.950 . S
C1932 H1924 0.950 . S
C1932 C1933 1.386 . S
C1932 C1934 1.391 . S
C1933 C1932 1.386 . S
C1933 C1937 1.393 . S
C1934 H1926 0.950 . S
C1934 C1932 1.391 . S
C1934 C1935 1.400 . S
C1935 C1934 1.400 . S
C1935 C1936 1.398 . S
C1935 C1941 1.491 . S
C1936 H1927 0.950 . S
C1936 C1935 1.398 . S
C1936 C1937 1.391 . S
C1937 H1925 0.950 . S
C1937 C1933 1.393 . S
C1937 C1936 1.391 . S
C1938 H1928 0.950 . S
C1938 C1939 1.386 . S
C1938 C1940 1.391 . S
C1939 C1938 1.386 . S
C1939 C1943 1.393 . S
C1940 H1929 0.950 . S
C1940 C1938 1.391 . S
C1940 C1941 1.400 . S
C1941 C1935 1.491 . S
C1941 C1940 1.400 . S
C1941 C1942 1.398 . S
C1942 H1930 0.950 . S
C1942 C1941 1.398 . S
C1942 C1943 1.391 . S
C1943 H1931 0.950 . S
C1943 C1939 1.393 . S
C1943 C1942 1.391 . S
H1944 C1952 0.950 . S
H1945 C1957 0.950 . S
H1946 C1954 0.950 . S
H1947 C1956 0.950 . S
H1948 C1958 0.950 . S
H1949 C1960 0.950 . S
H1950 C1962 0.950 . S
H1951 C1963 0.950 . S
C1952 H1944 0.950 . S
C1952 C1953 1.386 . S
C1952 C1954 1.391 . S
C1953 C1952 1.386 . S
C1953 C1957 1.393 . S
C1954 H1946 0.950 . S
C1954 C1952 1.391 . S
C1954 C1955 1.400 . S
C1955 C1954 1.400 . S
C1955 C1956 1.398 . S
C1955 C1961 1.491 . S
C1956 H1947 0.950 . S
C1956 C1955 1.398 . S
C1956 C1957 1.391 . S
C1957 H1945 0.950 . S
C1957 C1953 1.393 . S
C1957 C1956 1.391 . S
C1958 H1948 0.950 . S
C1958 C1959 1.386 . S
C1958 C1960 1.391 . S
C1959 C1958 1.386 . S
C1959 C1963 1.393 . S
C1960 H1949 0.950 . S
C1960 C1958 1.391 . S
C1960 C1961 1.400 . S
C1961 C1955 1.491 . S
C1961 C1960 1.400 . S
C1961 C1962 1.398 . S
C1962 H1950 0.950 . S
C1962 C1961 1.398 . S
C1962 C1963 1.391 . S
C1963 H1951 0.950 . S
C1963 C1959 1.393 . S
C1963 C1962 1.391 . S
H1964 C1972 0.950 . S
H1965 C1977 0.950 . S
H1966 C1974 0.950 . S
H1967 C1976 0.950 . S
H1968 C1978 0.950 . S
H1969 C1980 0.950 . S
H1970 C1982 0.950 . S
H1971 C1983 0.950 . S
C1972 H1964 0.950 . S
C1972 C1973 1.386 . S
C1972 C1974 1.391 . S
C1973 C1972 1.386 . S
C1973 C1977 1.393 . S
C1974 H1966 0.950 . S
C1974 C1972 1.391 . S
C1974 C1975 1.400 . S
C1975 C1974 1.400 . S
C1975 C1976 1.398 . S
C1975 C1981 1.491 . S
C1976 H1967 0.950 . S
C1976 C1975 1.398 . S
C1976 C1977 1.391 . S
C1977 H1965 0.950 . S
C1977 C1973 1.393 . S
C1977 C1976 1.391 . S
C1978 H1968 0.950 . S
C1978 C1979 1.386 . S
C1978 C1980 1.391 . S
C1979 C1978 1.386 . S
C1979 C1983 1.393 . S
C1980 H1969 0.950 . S
C1980 C1978 1.391 . S
C1980 C1981 1.400 . S
C1981 C1975 1.491 . S
C1981 C1980 1.400 . S
C1981 C1982 1.398 . S
C1982 H1970 0.950 . S
C1982 C1981 1.398 . S
C1982 C1983 1.391 . S
C1983 H1971 0.950 . S
C1983 C1979 1.393 . S
C1983 C1982 1.391 . S
H1984 C1992 0.950 . S
H1985 C1997 0.950 . S
H1986 C1994 0.950 . S
H1987 C1996 0.950 . S
H1988 C1998 0.950 . S
H1989 C2000 0.950 . S
H1990 C2002 0.950 . S
H1991 C2003 0.950 . S
C1992 H1984 0.950 . S
C1992 C1993 1.386 . S
C1992 C1994 1.391 . S
C1993 C1992 1.386 . S
C1993 C1997 1.393 . S
C1994 H1986 0.950 . S
C1994 C1992 1.391 . S
C1994 C1995 1.400 . S
C1995 C1994 1.400 . S
C1995 C1996 1.398 . S
C1995 C2001 1.491 . S
C1996 H1987 0.950 . S
C1996 C1995 1.398 . S
C1996 C1997 1.391 . S
C1997 H1985 0.950 . S
C1997 C1993 1.393 . S
C1997 C1996 1.391 . S
C1998 H1988 0.950 . S
C1998 C1999 1.386 . S
C1998 C2000 1.391 . S
C1999 C1998 1.386 . S
C1999 C2003 1.393 . S
C2000 H1989 0.950 . S
C2000 C1998 1.391 . S
C2000 C2001 1.400 . S
C2001 C1995 1.491 . S
C2001 C2000 1.400 . S
C2001 C2002 1.398 . S
C2002 H1990 0.950 . S
C2002 C2001 1.398 . S
C2002 C2003 1.391 . S
C2003 H1991 0.950 . S
C2003 C1999 1.393 . S
C2003 C2002 1.391 . S
H2004 C2012 0.950 . S
H2005 C2017 0.950 . S
H2006 C2014 0.950 . S
H2007 C2016 0.950 . S
H2008 C2018 0.950 . S
H2009 C2020 0.950 . S
H2010 C2022 0.950 . S
H2011 C2023 0.950 . S
C2012 H2004 0.950 . S
C2012 C2013 1.386 . S
C2012 C2014 1.391 . S
C2013 C2012 1.386 . S
C2013 C2017 1.393 . S
C2014 H2006 0.950 . S
C2014 C2012 1.391 . S
C2014 C2015 1.400 . S
C2015 C2014 1.400 . S
C2015 C2016 1.398 . S
C2015 C2021 1.491 . S
C2016 H2007 0.950 . S
C2016 C2015 1.398 . S
C2016 C2017 1.391 . S
C2017 H2005 0.950 . S
C2017 C2013 1.393 . S
C2017 C2016 1.391 . S
C2018 H2008 0.950 . S
C2018 C2019 1.386 . S
C2018 C2020 1.391 . S
C2019 C2018 1.386 . S
C2019 C2023 1.393 . S
C2020 H2009 0.950 . S
C2020 C2018 1.391 . S
C2020 C2021 1.400 . S
C2021 C2015 1.491 . S
C2021 C2020 1.400 . S
C2021 C2022 1.398 . S
C2022 H2010 0.950 . S
C2022 C2021 1.398 . S
C2022 C2023 1.391 . S
C2023 H2011 0.950 . S
C2023 C2019 1.393 . S
C2023 C2022 1.391 . S
H2024 C2032 0.950 . S
H2025 C2037 0.950 . S
H2026 C2034 0.950 . S
H2027 C2036 0.950 . S
H2028 C2038 0.950 . S
H2029 C2040 0.950 . S
H2030 C2042 0.950 . S
H2031 C2043 0.950 . S
C2032 H2024 0.950 . S
C2032 C2033 1.386 . S
C2032 C2034 1.391 . S
C2033 C2032 1.386 . S
C2033 C2037 1.393 . S
C2034 H2026 0.950 . S
C2034 C2032 1.391 . S
C2034 C2035 1.400 . S
C2035 C2034 1.400 . S
C2035 C2036 1.398 . S
C2035 C2041 1.491 . S
C2036 H2027 0.950 . S
C2036 C2035 1.398 . S
C2036 C2037 1.391 . S
C2037 H2025 0.950 . S
C2037 C2033 1.393 . S
C2037 C2036 1.391 . S
C2038 H2028 0.950 . S
C2038 C2039 1.386 . S
C2038 C2040 1.391 . S
C2039 C2038 1.386 . S
C2039 C2043 1.393 . S
C2040 H2029 0.950 . S
C2040 C2038 1.391 . S
C2040 C2041 1.400 . S
C2041 C2035 1.491 . S
C2041 C2040 1.400 . S
C2041 C2042 1.398 . S
C2042 H2030 0.950 . S
C2042 C2041 1.398 . S
C2042 C2043 1.391 . S
C2043 H2031 0.950 . S
C2043 C2039 1.393 . S
C2043 C2042 1.391 . S
H2044 C2052 0.950 . S
H2045 C2057 0.950 . S
H2046 C2054 0.950 . S
H2047 C2056 0.950 . S
H2048 C2058 0.950 . S
H2049 C2060 0.950 . S
H2050 C2062 0.950 . S
H2051 C2063 0.950 . S
C2052 H2044 0.950 . S
C2052 C2053 1.386 . S
C2052 C2054 1.391 . S
C2053 C2052 1.386 . S
C2053 C2057 1.393 . S
C2054 H2046 0.950 . S
C2054 C2052 1.391 . S
C2054 C2055 1.400 . S
C2055 C2054 1.400 . S
C2055 C2056 1.398 . S
C2055 C2061 1.491 . S
C2056 H2047 0.950 . S
C2056 C2055 1.398 . S
C2056 C2057 1.391 . S
C2057 H2045 0.950 . S
C2057 C2053 1.393 . S
C2057 C2056 1.391 . S
C2058 H2048 0.950 . S
C2058 C2059 1.386 . S
C2058 C2060 1.391 . S
C2059 C2058 1.386 . S
C2059 C2063 1.393 . S
C2060 H2049 0.950 . S
C2060 C2058 1.391 . S
C2060 C2061 1.400 . S
C2061 C2055 1.491 . S
C2061 C2060 1.400 . S
C2061 C2062 1.398 . S
C2062 H2050 0.950 . S
C2062 C2061 1.398 . S
C2062 C2063 1.391 . S
C2063 H2051 0.950 . S
C2063 C2059 1.393 . S
C2063 C2062 1.391 . S
H2064 C2072 0.950 . S
H2065 C2077 0.950 . S
H2066 C2074 0.950 . S
H2067 C2076 0.950 . S
H2068 C2078 0.950 . S
H2069 C2080 0.950 . S
H2070 C2082 0.950 . S
H2071 C2083 0.950 . S
C2072 H2064 0.950 . S
C2072 C2073 1.386 . S
C2072 C2074 1.391 . S
C2073 C2072 1.386 . S
C2073 C2077 1.393 . S
C2074 H2066 0.950 . S
C2074 C2072 1.391 . S
C2074 C2075 1.400 . S
C2075 C2074 1.400 . S
C2075 C2076 1.398 . S
C2075 C2081 1.491 . S
C2076 H2067 0.950 . S
C2076 C2075 1.398 . S
C2076 C2077 1.391 . S
C2077 H2065 0.950 . S
C2077 C2073 1.393 . S
C2077 C2076 1.391 . S
C2078 H2068 0.950 . S
C2078 C2079 1.386 . S
C2078 C2080 1.391 . S
C2079 C2078 1.386 . S
C2079 C2083 1.393 . S
C2080 H2069 0.950 . S
C2080 C2078 1.391 . S
C2080 C2081 1.400 . S
C2081 C2075 1.491 . S
C2081 C2080 1.400 . S
C2081 C2082 1.398 . S
C2082 H2070 0.950 . S
C2082 C2081 1.398 . S
C2082 C2083 1.391 . S
C2083 H2071 0.950 . S
C2083 C2079 1.393 . S
C2083 C2082 1.391 . S
H2084 C2092 0.950 . S
H2085 C2097 0.950 . S
H2086 C2094 0.950 . S
H2087 C2096 0.950 . S
H2088 C2098 0.950 . S
H2089 C2100 0.950 . S
H2090 C2102 0.950 . S
H2091 C2103 0.950 . S
C2092 H2084 0.950 . S
C2092 C2093 1.386 . S
C2092 C2094 1.391 . S
C2093 C2092 1.386 . S
C2093 C2097 1.393 . S
C2094 H2086 0.950 . S
C2094 C2092 1.391 . S
C2094 C2095 1.400 . S
C2095 C2094 1.400 . S
C2095 C2096 1.398 . S
C2095 C2101 1.491 . S
C2096 H2087 0.950 . S
C2096 C2095 1.398 . S
C2096 C2097 1.391 . S
C2097 H2085 0.950 . S
C2097 C2093 1.393 . S
C2097 C2096 1.391 . S
C2098 H2088 0.950 . S
C2098 C2099 1.386 . S
C2098 C2100 1.391 . S
C2099 C2098 1.386 . S
C2099 C2103 1.393 . S
C2100 H2089 0.950 . S
C2100 C2098 1.391 . S
C2100 C2101 1.400 . S
C2101 C2095 1.491 . S
C2101 C2100 1.400 . S
C2101 C2102 1.398 . S
C2102 H2090 0.950 . S
C2102 C2101 1.398 . S
C2102 C2103 1.391 . S
C2103 H2091 0.950 . S
C2103 C2099 1.393 . S
C2103 C2102 1.391 . S
H2104 C2112 0.950 . S
H2105 C2117 0.950 . S
H2106 C2114 0.950 . S
H2107 C2116 0.950 . S
H2108 C2118 0.950 . S
H2109 C2120 0.950 . S
H2110 C2122 0.950 . S
H2111 C2123 0.950 . S
C2112 H2104 0.950 . S
C2112 C2113 1.386 . S
C2112 C2114 1.391 . S
C2113 C2112 1.386 . S
C2113 C2117 1.393 . S
C2114 H2106 0.950 . S
C2114 C2112 1.391 . S
C2114 C2115 1.400 . S
C2115 C2114 1.400 . S
C2115 C2116 1.398 . S
C2115 C2121 1.491 . S
C2116 H2107 0.950 . S
C2116 C2115 1.398 . S
C2116 C2117 1.391 . S
C2117 H2105 0.950 . S
C2117 C2113 1.393 . S
C2117 C2116 1.391 . S
C2118 H2108 0.950 . S
C2118 C2119 1.386 . S
C2118 C2120 1.391 . S
C2119 C2118 1.386 . S
C2119 C2123 1.393 . S
C2120 H2109 0.950 . S
C2120 C2118 1.391 . S
C2120 C2121 1.400 . S
C2121 C2115 1.491 . S
C2121 C2120 1.400 . S
C2121 C2122 1.398 . S
C2122 H2110 0.950 . S
C2122 C2121 1.398 . S
C2122 C2123 1.391 . S
C2123 H2111 0.950 . S
C2123 C2119 1.393 . S
C2123 C2122 1.391 . S
H2124 C2132 0.950 . S
H2125 C2137 0.950 . S
H2126 C2134 0.950 . S
H2127 C2136 0.950 . S
H2128 C2138 0.950 . S
H2129 C2140 0.950 . S
H2130 C2142 0.950 . S
H2131 C2143 0.950 . S
C2132 H2124 0.950 . S
C2132 C2133 1.386 . S
C2132 C2134 1.391 . S
C2133 C2132 1.386 . S
C2133 C2137 1.393 . S
C2134 H2126 0.950 . S
C2134 C2132 1.391 . S
C2134 C2135 1.400 . S
C2135 C2134 1.400 . S
C2135 C2136 1.398 . S
C2135 C2141 1.491 . S
C2136 H2127 0.950 . S
C2136 C2135 1.398 . S
C2136 C2137 1.391 . S
C2137 H2125 0.950 . S
C2137 C2133 1.393 . S
C2137 C2136 1.391 . S
C2138 H2128 0.950 . S
C2138 C2139 1.386 . S
C2138 C2140 1.391 . S
C2139 C2138 1.386 . S
C2139 C2143 1.393 . S
C2140 H2129 0.950 . S
C2140 C2138 1.391 . S
C2140 C2141 1.400 . S
C2141 C2135 1.491 . S
C2141 C2140 1.400 . S
C2141 C2142 1.398 . S
C2142 H2130 0.950 . S
C2142 C2141 1.398 . S
C2142 C2143 1.391 . S
C2143 H2131 0.950 . S
C2143 C2139 1.393 . S
C2143 C2142 1.391 . S
H2144 C2152 0.950 . S
H2145 C2157 0.950 . S
H2146 C2154 0.950 . S
H2147 C2156 0.950 . S
H2148 C2158 0.950 . S
H2149 C2160 0.950 . S
H2150 C2162 0.950 . S
H2151 C2163 0.950 . S
C2152 H2144 0.950 . S
C2152 C2153 1.386 . S
C2152 C2154 1.391 . S
C2153 C2152 1.386 . S
C2153 C2157 1.393 . S
C2154 H2146 0.950 . S
C2154 C2152 1.391 . S
C2154 C2155 1.400 . S
C2155 C2154 1.400 . S
C2155 C2156 1.398 . S
C2155 C2161 1.491 . S
C2156 H2147 0.950 . S
C2156 C2155 1.398 . S
C2156 C2157 1.391 . S
C2157 H2145 0.950 . S
C2157 C2153 1.393 . S
C2157 C2156 1.391 . S
C2158 H2148 0.950 . S
C2158 C2159 1.386 . S
C2158 C2160 1.391 . S
C2159 C2158 1.386 . S
C2159 C2163 1.393 . S
C2160 H2149 0.950 . S
C2160 C2158 1.391 . S
C2160 C2161 1.400 . S
C2161 C2155 1.491 . S
C2161 C2160 1.400 . S
C2161 C2162 1.398 . S
C2162 H2150 0.950 . S
C2162 C2161 1.398 . S
C2162 C2163 1.391 . S
C2163 H2151 0.950 . S
C2163 C2159 1.393 . S
C2163 C2162 1.391 . S
H2164 C2172 0.950 . S
H2165 C2177 0.950 . S
H2166 C2174 0.950 . S
H2167 C2176 0.950 . S
H2168 C2178 0.950 . S
H2169 C2180 0.950 . S
H2170 C2182 0.950 . S
H2171 C2183 0.950 . S
C2172 H2164 0.950 . S
C2172 C2173 1.386 . S
C2172 C2174 1.391 . S
C2173 C2172 1.386 . S
C2173 C2177 1.393 . S
C2174 H2166 0.950 . S
C2174 C2172 1.391 . S
C2174 C2175 1.400 . S
C2175 C2174 1.400 . S
C2175 C2176 1.398 . S
C2175 C2181 1.491 . S
C2176 H2167 0.950 . S
C2176 C2175 1.398 . S
C2176 C2177 1.391 . S
C2177 H2165 0.950 . S
C2177 C2173 1.393 . S
C2177 C2176 1.391 . S
C2178 H2168 0.950 . S
C2178 C2179 1.386 . S
C2178 C2180 1.391 . S
C2179 C2178 1.386 . S
C2179 C2183 1.393 . S
C2180 H2169 0.950 . S
C2180 C2178 1.391 . S
C2180 C2181 1.400 . S
C2181 C2175 1.491 . S
C2181 C2180 1.400 . S
C2181 C2182 1.398 . S
C2182 H2170 0.950 . S
C2182 C2181 1.398 . S
C2182 C2183 1.391 . S
C2183 H2171 0.950 . S
C2183 C2179 1.393 . S
C2183 C2182 1.391 . S
H2184 C2192 0.950 . S
H2185 C2197 0.950 . S
H2186 C2194 0.950 . S
H2187 C2196 0.950 . S
H2188 C2198 0.950 . S
H2189 C2200 0.950 . S
H2190 C2202 0.950 . S
H2191 C2203 0.950 . S
C2192 H2184 0.950 . S
C2192 C2193 1.386 . S
C2192 C2194 1.391 . S
C2193 C2192 1.386 . S
C2193 C2197 1.393 . S
C2194 H2186 0.950 . S
C2194 C2192 1.391 . S
C2194 C2195 1.400 . S
C2195 C2194 1.400 . S
C2195 C2196 1.398 . S
C2195 C2201 1.491 . S
C2196 H2187 0.950 . S
C2196 C2195 1.398 . S
C2196 C2197 1.391 . S
C2197 H2185 0.950 . S
C2197 C2193 1.393 . S
C2197 C2196 1.391 . S
C2198 H2188 0.950 . S
C2198 C2199 1.386 . S
C2198 C2200 1.391 . S
C2199 C2198 1.386 . S
C2199 C2203 1.393 . S
C2200 H2189 0.950 . S
C2200 C2198 1.391 . S
C2200 C2201 1.400 . S
C2201 C2195 1.491 . S
C2201 C2200 1.400 . S
C2201 C2202 1.398 . S
C2202 H2190 0.950 . S
C2202 C2201 1.398 . S
C2202 C2203 1.391 . S
C2203 H2191 0.950 . S
C2203 C2199 1.393 . S
C2203 C2202 1.391 . S
H2204 C2212 0.950 . S
H2205 C2217 0.950 . S
H2206 C2214 0.950 . S
H2207 C2216 0.950 . S
H2208 C2218 0.950 . S
H2209 C2220 0.950 . S
H2210 C2222 0.950 . S
H2211 C2223 0.950 . S
C2212 H2204 0.950 . S
C2212 C2213 1.386 . S
C2212 C2214 1.391 . S
C2213 C2212 1.386 . S
C2213 C2217 1.393 . S
C2214 H2206 0.950 . S
C2214 C2212 1.391 . S
C2214 C2215 1.400 . S
C2215 C2214 1.400 . S
C2215 C2216 1.398 . S
C2215 C2221 1.491 . S
C2216 H2207 0.950 . S
C2216 C2215 1.398 . S
C2216 C2217 1.391 . S
C2217 H2205 0.950 . S
C2217 C2213 1.393 . S
C2217 C2216 1.391 . S
C2218 H2208 0.950 . S
C2218 C2219 1.386 . S
C2218 C2220 1.391 . S
C2219 C2218 1.386 . S
C2219 C2223 1.393 . S
C2220 H2209 0.950 . S
C2220 C2218 1.391 . S
C2220 C2221 1.400 . S
C2221 C2215 1.491 . S
C2221 C2220 1.400 . S
C2221 C2222 1.398 . S
C2222 H2210 0.950 . S
C2222 C2221 1.398 . S
C2222 C2223 1.391 . S
C2223 H2211 0.950 . S
C2223 C2219 1.393 . S
C2223 C2222 1.391 . S
H2224 C2232 0.950 . S
H2225 C2237 0.950 . S
H2226 C2234 0.950 . S
H2227 C2236 0.950 . S
H2228 C2238 0.950 . S
H2229 C2240 0.950 . S
H2230 C2242 0.950 . S
H2231 C2243 0.950 . S
C2232 H2224 0.950 . S
C2232 C2233 1.386 . S
C2232 C2234 1.391 . S
C2233 C2232 1.386 . S
C2233 C2237 1.393 . S
C2234 H2226 0.950 . S
C2234 C2232 1.391 . S
C2234 C2235 1.400 . S
C2235 C2234 1.400 . S
C2235 C2236 1.398 . S
C2235 C2241 1.491 . S
C2236 H2227 0.950 . S
C2236 C2235 1.398 . S
C2236 C2237 1.391 . S
C2237 H2225 0.950 . S
C2237 C2233 1.393 . S
C2237 C2236 1.391 . S
C2238 H2228 0.950 . S
C2238 C2239 1.386 . S
C2238 C2240 1.391 . S
C2239 C2238 1.386 . S
C2239 C2243 1.393 . S
C2240 H2229 0.950 . S
C2240 C2238 1.391 . S
C2240 C2241 1.400 . S
C2241 C2235 1.491 . S
C2241 C2240 1.400 . S
C2241 C2242 1.398 . S
C2242 H2230 0.950 . S
C2242 C2241 1.398 . S
C2242 C2243 1.391 . S
C2243 H2231 0.950 . S
C2243 C2239 1.393 . S
C2243 C2242 1.391 . S
H2244 C2252 0.950 . S
H2245 C2257 0.950 . S
H2246 C2254 0.950 . S
H2247 C2256 0.950 . S
H2248 C2258 0.950 . S
H2249 C2260 0.950 . S
H2250 C2262 0.950 . S
H2251 C2263 0.950 . S
C2252 H2244 0.950 . S
C2252 C2253 1.386 . S
C2252 C2254 1.391 . S
C2253 C2252 1.386 . S
C2253 C2257 1.393 . S
C2254 H2246 0.950 . S
C2254 C2252 1.391 . S
C2254 C2255 1.400 . S
C2255 C2254 1.400 . S
C2255 C2256 1.398 . S
C2255 C2261 1.491 . S
C2256 H2247 0.950 . S
C2256 C2255 1.398 . S
C2256 C2257 1.391 . S
C2257 H2245 0.950 . S
C2257 C2253 1.393 . S
C2257 C2256 1.391 . S
C2258 H2248 0.950 . S
C2258 C2259 1.386 . S
C2258 C2260 1.391 . S
C2259 C2258 1.386 . S
C2259 C2263 1.393 . S
C2260 H2249 0.950 . S
C2260 C2258 1.391 . S
C2260 C2261 1.400 . S
C2261 C2255 1.491 . S
C2261 C2260 1.400 . S
C2261 C2262 1.398 . S
C2262 H2250 0.950 . S
C2262 C2261 1.398 . S
C2262 C2263 1.391 . S
C2263 H2251 0.950 . S
C2263 C2259 1.393 . S
C2263 C2262 1.391 . S
H2264 C2272 0.950 . S
H2265 C2277 0.950 . S
H2266 C2274 0.950 . S
H2267 C2276 0.950 . S
H2268 C2278 0.950 . S
H2269 C2280 0.950 . S
H2270 C2282 0.950 . S
H2271 C2283 0.950 . S
C2272 H2264 0.950 . S
C2272 C2273 1.386 . S
C2272 C2274 1.391 . S
C2273 C2272 1.386 . S
C2273 C2277 1.393 . S
C2274 H2266 0.950 . S
C2274 C2272 1.391 . S
C2274 C2275 1.400 . S
C2275 C2274 1.400 . S
C2275 C2276 1.398 . S
C2275 C2281 1.491 . S
C2276 H2267 0.950 . S
C2276 C2275 1.398 . S
C2276 C2277 1.391 . S
C2277 H2265 0.950 . S
C2277 C2273 1.393 . S
C2277 C2276 1.391 . S
C2278 H2268 0.950 . S
C2278 C2279 1.386 . S
C2278 C2280 1.391 . S
C2279 C2278 1.386 . S
C2279 C2283 1.393 . S
C2280 H2269 0.950 . S
C2280 C2278 1.391 . S
C2280 C2281 1.400 . S
C2281 C2275 1.491 . S
C2281 C2280 1.400 . S
C2281 C2282 1.398 . S
C2282 H2270 0.950 . S
C2282 C2281 1.398 . S
C2282 C2283 1.391 . S
C2283 H2271 0.950 . S
C2283 C2279 1.393 . S
C2283 C2282 1.391 . S
H2284 C2292 0.950 . S
H2285 C2297 0.950 . S
H2286 C2294 0.950 . S
H2287 C2296 0.950 . S
H2288 C2298 0.950 . S
H2289 C2300 0.950 . S
H2290 C2302 0.950 . S
H2291 C2303 0.950 . S
C2292 H2284 0.950 . S
C2292 C2293 1.386 . S
C2292 C2294 1.391 . S
C2293 C2292 1.386 . S
C2293 C2297 1.393 . S
C2294 H2286 0.950 . S
C2294 C2292 1.391 . S
C2294 C2295 1.400 . S
C2295 C2294 1.400 . S
C2295 C2296 1.398 . S
C2295 C2301 1.491 . S
C2296 H2287 0.950 . S
C2296 C2295 1.398 . S
C2296 C2297 1.391 . S
C2297 H2285 0.950 . S
C2297 C2293 1.393 . S
C2297 C2296 1.391 . S
C2298 H2288 0.950 . S
C2298 C2299 1.386 . S
C2298 C2300 1.391 . S
C2299 C2298 1.386 . S
C2299 C2303 1.393 . S
C2300 H2289 0.950 . S
C2300 C2298 1.391 . S
C2300 C2301 1.400 . S
C2301 C2295 1.491 . S
C2301 C2300 1.400 . S
C2301 C2302 1.398 . S
C2302 H2290 0.950 . S
C2302 C2301 1.398 . S
C2302 C2303 1.391 . S
C2303 H2291 0.950 . S
C2303 C2299 1.393 . S
C2303 C2302 1.391 . S
H2304 C2312 0.950 . S
H2305 C2317 0.950 . S
H2306 C2314 0.950 . S
H2307 C2316 0.950 . S
H2308 C2318 0.950 . S
H2309 C2320 0.950 . S
H2310 C2322 0.950 . S
H2311 C2323 0.950 . S
C2312 H2304 0.950 . S
C2312 C2313 1.386 . S
C2312 C2314 1.391 . S
C2313 C2312 1.386 . S
C2313 C2317 1.393 . S
C2314 H2306 0.950 . S
C2314 C2312 1.391 . S
C2314 C2315 1.400 . S
C2315 C2314 1.400 . S
C2315 C2316 1.398 . S
C2315 C2321 1.491 . S
C2316 H2307 0.950 . S
C2316 C2315 1.398 . S
C2316 C2317 1.391 . S
C2317 H2305 0.950 . S
C2317 C2313 1.393 . S
C2317 C2316 1.391 . S
C2318 H2308 0.950 . S
C2318 C2319 1.386 . S
C2318 C2320 1.391 . S
C2319 C2318 1.386 . S
C2319 C2323 1.393 . S
C2320 H2309 0.950 . S
C2320 C2318 1.391 . S
C2320 C2321 1.400 . S
C2321 C2315 1.491 . S
C2321 C2320 1.400 . S
C2321 C2322 1.398 . S
C2322 H2310 0.950 . S
C2322 C2321 1.398 . S
C2322 C2323 1.391 . S
C2323 H2311 0.950 . S
C2323 C2319 1.393 . S
C2323 C2322 1.391 . S
H2324 C2332 0.950 . S
H2325 C2337 0.950 . S
H2326 C2334 0.950 . S
H2327 C2336 0.950 . S
H2328 C2338 0.950 . S
H2329 C2340 0.950 . S
H2330 C2342 0.950 . S
H2331 C2343 0.950 . S
C2332 H2324 0.950 . S
C2332 C2333 1.386 . S
C2332 C2334 1.391 . S
C2333 C2332 1.386 . S
C2333 C2337 1.393 . S
C2334 H2326 0.950 . S
C2334 C2332 1.391 . S
C2334 C2335 1.400 . S
C2335 C2334 1.400 . S
C2335 C2336 1.398 . S
C2335 C2341 1.491 . S
C2336 H2327 0.950 . S
C2336 C2335 1.398 . S
C2336 C2337 1.391 . S
C2337 H2325 0.950 . S
C2337 C2333 1.393 . S
C2337 C2336 1.391 . S
C2338 H2328 0.950 . S
C2338 C2339 1.386 . S
C2338 C2340 1.391 . S
C2339 C2338 1.386 . S
C2339 C2343 1.393 . S
C2340 H2329 0.950 . S
C2340 C2338 1.391 . S
C2340 C2341 1.400 . S
C2341 C2335 1.491 . S
C2341 C2340 1.400 . S
C2341 C2342 1.398 . S
C2342 H2330 0.950 . S
C2342 C2341 1.398 . S
C2342 C2343 1.391 . S
C2343 H2331 0.950 . S
C2343 C2339 1.393 . S
C2343 C2342 1.391 . S
H2344 C2352 0.950 . S
H2345 C2357 0.950 . S
H2346 C2354 0.950 . S
H2347 C2356 0.950 . S
H2348 C2358 0.950 . S
H2349 C2360 0.950 . S
H2350 C2362 0.950 . S
H2351 C2363 0.950 . S
C2352 H2344 0.950 . S
C2352 C2353 1.386 . S
C2352 C2354 1.391 . S
C2353 C2352 1.386 . S
C2353 C2357 1.393 . S
C2354 H2346 0.950 . S
C2354 C2352 1.391 . S
C2354 C2355 1.400 . S
C2355 C2354 1.400 . S
C2355 C2356 1.398 . S
C2355 C2361 1.491 . S
C2356 H2347 0.950 . S
C2356 C2355 1.398 . S
C2356 C2357 1.391 . S
C2357 H2345 0.950 . S
C2357 C2353 1.393 . S
C2357 C2356 1.391 . S
C2358 H2348 0.950 . S
C2358 C2359 1.386 . S
C2358 C2360 1.391 . S
C2359 C2358 1.386 . S
C2359 C2363 1.393 . S
C2360 H2349 0.950 . S
C2360 C2358 1.391 . S
C2360 C2361 1.400 . S
C2361 C2355 1.491 . S
C2361 C2360 1.400 . S
C2361 C2362 1.398 . S
C2362 H2350 0.950 . S
C2362 C2361 1.398 . S
C2362 C2363 1.391 . S
C2363 H2351 0.950 . S
C2363 C2359 1.393 . S
C2363 C2362 1.391 . S
H2364 C2372 0.950 . S
H2365 C2377 0.950 . S
H2366 C2374 0.950 . S
H2367 C2376 0.950 . S
H2368 C2378 0.950 . S
H2369 C2380 0.950 . S
H2370 C2382 0.950 . S
H2371 C2383 0.950 . S
C2372 H2364 0.950 . S
C2372 C2373 1.386 . S
C2372 C2374 1.391 . S
C2373 C2372 1.386 . S
C2373 C2377 1.393 . S
C2374 H2366 0.950 . S
C2374 C2372 1.391 . S
C2374 C2375 1.400 . S
C2375 C2374 1.400 . S
C2375 C2376 1.398 . S
C2375 C2381 1.491 . S
C2376 H2367 0.950 . S
C2376 C2375 1.398 . S
C2376 C2377 1.391 . S
C2377 H2365 0.950 . S
C2377 C2373 1.393 . S
C2377 C2376 1.391 . S
C2378 H2368 0.950 . S
C2378 C2379 1.386 . S
C2378 C2380 1.391 . S
C2379 C2378 1.386 . S
C2379 C2383 1.393 . S
C2380 H2369 0.950 . S
C2380 C2378 1.391 . S
C2380 C2381 1.400 . S
C2381 C2375 1.491 . S
C2381 C2380 1.400 . S
C2381 C2382 1.398 . S
C2382 H2370 0.950 . S
C2382 C2381 1.398 . S
C2382 C2383 1.391 . S
C2383 H2371 0.950 . S
C2383 C2379 1.393 . S
C2383 C2382 1.391 . S
H2384 C2392 0.950 . S
H2385 C2397 0.950 . S
H2386 C2394 0.950 . S
H2387 C2396 0.950 . S
H2388 C2398 0.950 . S
H2389 C2400 0.950 . S
H2390 C2402 0.950 . S
H2391 C2403 0.950 . S
C2392 H2384 0.950 . S
C2392 C2393 1.386 . S
C2392 C2394 1.391 . S
C2393 C2392 1.386 . S
C2393 C2397 1.393 . S
C2394 H2386 0.950 . S
C2394 C2392 1.391 . S
C2394 C2395 1.400 . S
C2395 C2394 1.400 . S
C2395 C2396 1.398 . S
C2395 C2401 1.491 . S
C2396 H2387 0.950 . S
C2396 C2395 1.398 . S
C2396 C2397 1.391 . S
C2397 H2385 0.950 . S
C2397 C2393 1.393 . S
C2397 C2396 1.391 . S
C2398 H2388 0.950 . S
C2398 C2399 1.386 . S
C2398 C2400 1.391 . S
C2399 C2398 1.386 . S
C2399 C2403 1.393 . S
C2400 H2389 0.950 . S
C2400 C2398 1.391 . S
C2400 C2401 1.400 . S
C2401 C2395 1.491 . S
C2401 C2400 1.400 . S
C2401 C2402 1.398 . S
C2402 H2390 0.950 . S
C2402 C2401 1.398 . S
C2402 C2403 1.391 . S
C2403 H2391 0.950 . S
C2403 C2399 1.393 . S
C2403 C2402 1.391 . S
H2404 C2412 0.950 . S
H2405 C2417 0.950 . S
H2406 C2414 0.950 . S
H2407 C2416 0.950 . S
H2408 C2418 0.950 . S
H2409 C2420 0.950 . S
H2410 C2422 0.950 . S
H2411 C2423 0.950 . S
C2412 H2404 0.950 . S
C2412 C2413 1.386 . S
C2412 C2414 1.391 . S
C2413 C2412 1.386 . S
C2413 C2417 1.393 . S
C2414 H2406 0.950 . S
C2414 C2412 1.391 . S
C2414 C2415 1.400 . S
C2415 C2414 1.400 . S
C2415 C2416 1.398 . S
C2415 C2421 1.491 . S
C2416 H2407 0.950 . S
C2416 C2415 1.398 . S
C2416 C2417 1.391 . S
C2417 H2405 0.950 . S
C2417 C2413 1.393 . S
C2417 C2416 1.391 . S
C2418 H2408 0.950 . S
C2418 C2419 1.386 . S
C2418 C2420 1.391 . S
C2419 C2418 1.386 . S
C2419 C2423 1.393 . S
C2420 H2409 0.950 . S
C2420 C2418 1.391 . S
C2420 C2421 1.400 . S
C2421 C2415 1.491 . S
C2421 C2420 1.400 . S
C2421 C2422 1.398 . S
C2422 H2410 0.950 . S
C2422 C2421 1.398 . S
C2422 C2423 1.391 . S
C2423 H2411 0.950 . S
C2423 C2419 1.393 . S
C2423 C2422 1.391 . S
H2424 C2432 0.950 . S
H2425 C2437 0.950 . S
H2426 C2434 0.950 . S
H2427 C2436 0.950 . S
H2428 C2438 0.950 . S
H2429 C2440 0.950 . S
H2430 C2442 0.950 . S
H2431 C2443 0.950 . S
C2432 H2424 0.950 . S
C2432 C2433 1.386 . S
C2432 C2434 1.391 . S
C2433 C2432 1.386 . S
C2433 C2437 1.393 . S
C2434 H2426 0.950 . S
C2434 C2432 1.391 . S
C2434 C2435 1.400 . S
C2435 C2434 1.400 . S
C2435 C2436 1.398 . S
C2435 C2441 1.491 . S
C2436 H2427 0.950 . S
C2436 C2435 1.398 . S
C2436 C2437 1.391 . S
C2437 H2425 0.950 . S
C2437 C2433 1.393 . S
C2437 C2436 1.391 . S
C2438 H2428 0.950 . S
C2438 C2439 1.386 . S
C2438 C2440 1.391 . S
C2439 C2438 1.386 . S
C2439 C2443 1.393 . S
C2440 H2429 0.950 . S
C2440 C2438 1.391 . S
C2440 C2441 1.400 . S
C2441 C2435 1.491 . S
C2441 C2440 1.400 . S
C2441 C2442 1.398 . S
C2442 H2430 0.950 . S
C2442 C2441 1.398 . S
C2442 C2443 1.391 . S
C2443 H2431 0.950 . S
C2443 C2439 1.393 . S
C2443 C2442 1.391 . S
H2444 C2452 0.950 . S
H2445 C2457 0.950 . S
H2446 C2454 0.950 . S
H2447 C2456 0.950 . S
H2448 C2458 0.950 . S
H2449 C2460 0.950 . S
H2450 C2462 0.950 . S
H2451 C2463 0.950 . S
C2452 H2444 0.950 . S
C2452 C2453 1.386 . S
C2452 C2454 1.391 . S
C2453 C2452 1.386 . S
C2453 C2457 1.393 . S
C2454 H2446 0.950 . S
C2454 C2452 1.391 . S
C2454 C2455 1.400 . S
C2455 C2454 1.400 . S
C2455 C2456 1.398 . S
C2455 C2461 1.491 . S
C2456 H2447 0.950 . S
C2456 C2455 1.398 . S
C2456 C2457 1.391 . S
C2457 H2445 0.950 . S
C2457 C2453 1.393 . S
C2457 C2456 1.391 . S
C2458 H2448 0.950 . S
C2458 C2459 1.386 . S
C2458 C2460 1.391 . S
C2459 C2458 1.386 . S
C2459 C2463 1.393 . S
C2460 H2449 0.950 . S
C2460 C2458 1.391 . S
C2460 C2461 1.400 . S
C2461 C2455 1.491 . S
C2461 C2460 1.400 . S
C2461 C2462 1.398 . S
C2462 H2450 0.950 . S
C2462 C2461 1.398 . S
C2462 C2463 1.391 . S
C2463 H2451 0.950 . S
C2463 C2459 1.393 . S
C2463 C2462 1.391 . S
H2464 C2472 0.950 . S
H2465 C2477 0.950 . S
H2466 C2474 0.950 . S
H2467 C2476 0.950 . S
H2468 C2478 0.950 . S
H2469 C2480 0.950 . S
H2470 C2482 0.950 . S
H2471 C2483 0.950 . S
C2472 H2464 0.950 . S
C2472 C2473 1.386 . S
C2472 C2474 1.391 . S
C2473 C2472 1.386 . S
C2473 C2477 1.393 . S
C2474 H2466 0.950 . S
C2474 C2472 1.391 . S
C2474 C2475 1.400 . S
C2475 C2474 1.400 . S
C2475 C2476 1.398 . S
C2475 C2481 1.491 . S
C2476 H2467 0.950 . S
C2476 C2475 1.398 . S
C2476 C2477 1.391 . S
C2477 H2465 0.950 . S
C2477 C2473 1.393 . S
C2477 C2476 1.391 . S
C2478 H2468 0.950 . S
C2478 C2479 1.386 . S
C2478 C2480 1.391 . S
C2479 C2478 1.386 . S
C2479 C2483 1.393 . S
C2480 H2469 0.950 . S
C2480 C2478 1.391 . S
C2480 C2481 1.400 . S
C2481 C2475 1.491 . S
C2481 C2480 1.400 . S
C2481 C2482 1.398 . S
C2482 H2470 0.950 . S
C2482 C2481 1.398 . S
C2482 C2483 1.391 . S
C2483 H2471 0.950 . S
C2483 C2479 1.393 . S
C2483 C2482 1.391 . S
H2484 C2492 0.950 . S
H2485 C2497 0.950 . S
H2486 C2494 0.950 . S
H2487 C2496 0.950 . S
H2488 C2498 0.950 . S
H2489 C2500 0.950 . S
H2490 C2502 0.950 . S
H2491 C2503 0.950 . S
C2492 H2484 0.950 . S
C2492 C2493 1.386 . S
C2492 C2494 1.391 . S
C2493 C2492 1.386 . S
C2493 C2497 1.393 . S
C2494 H2486 0.950 . S
C2494 C2492 1.391 . S
C2494 C2495 1.400 . S
C2495 C2494 1.400 . S
C2495 C2496 1.398 . S
C2495 C2501 1.491 . S
C2496 H2487 0.950 . S
C2496 C2495 1.398 . S
C2496 C2497 1.391 . S
C2497 H2485 0.950 . S
C2497 C2493 1.393 . S
C2497 C2496 1.391 . S
C2498 H2488 0.950 . S
C2498 C2499 1.386 . S
C2498 C2500 1.391 . S
C2499 C2498 1.386 . S
C2499 C2503 1.393 . S
C2500 H2489 0.950 . S
C2500 C2498 1.391 . S
C2500 C2501 1.400 . S
C2501 C2495 1.491 . S
C2501 C2500 1.400 . S
C2501 C2502 1.398 . S
C2502 H2490 0.950 . S
C2502 C2501 1.398 . S
C2502 C2503 1.391 . S
C2503 H2491 0.950 . S
C2503 C2499 1.393 . S
C2503 C2502 1.391 . S
H2504 C2512 0.950 . S
H2505 C2517 0.950 . S
H2506 C2514 0.950 . S
H2507 C2516 0.950 . S
H2508 C2518 0.950 . S
H2509 C2520 0.950 . S
H2510 C2522 0.950 . S
H2511 C2523 0.950 . S
C2512 H2504 0.950 . S
C2512 C2513 1.386 . S
C2512 C2514 1.391 . S
C2513 C2512 1.386 . S
C2513 C2517 1.393 . S
C2514 H2506 0.950 . S
C2514 C2512 1.391 . S
C2514 C2515 1.400 . S
C2515 C2514 1.400 . S
C2515 C2516 1.398 . S
C2515 C2521 1.491 . S
C2516 H2507 0.950 . S
C2516 C2515 1.398 . S
C2516 C2517 1.391 . S
C2517 H2505 0.950 . S
C2517 C2513 1.393 . S
C2517 C2516 1.391 . S
C2518 H2508 0.950 . S
C2518 C2519 1.386 . S
C2518 C2520 1.391 . S
C2519 C2518 1.386 . S
C2519 C2523 1.393 . S
C2520 H2509 0.950 . S
C2520 C2518 1.391 . S
C2520 C2521 1.400 . S
C2521 C2515 1.491 . S
C2521 C2520 1.400 . S
C2521 C2522 1.398 . S
C2522 H2510 0.950 . S
C2522 C2521 1.398 . S
C2522 C2523 1.391 . S
C2523 H2511 0.950 . S
C2523 C2519 1.393 . S
C2523 C2522 1.391 . S
H2524 C2532 0.950 . S
H2525 C2537 0.950 . S
H2526 C2534 0.950 . S
H2527 C2536 0.950 . S
H2528 C2538 0.950 . S
H2529 C2540 0.950 . S
H2530 C2542 0.950 . S
H2531 C2543 0.950 . S
C2532 H2524 0.950 . S
C2532 C2533 1.386 . S
C2532 C2534 1.391 . S
C2533 C2532 1.386 . S
C2533 C2537 1.393 . S
C2534 H2526 0.950 . S
C2534 C2532 1.391 . S
C2534 C2535 1.400 . S
C2535 C2534 1.400 . S
C2535 C2536 1.398 . S
C2535 C2541 1.491 . S
C2536 H2527 0.950 . S
C2536 C2535 1.398 . S
C2536 C2537 1.391 . S
C2537 H2525 0.950 . S
C2537 C2533 1.393 . S
C2537 C2536 1.391 . S
C2538 H2528 0.950 . S
C2538 C2539 1.386 . S
C2538 C2540 1.391 . S
C2539 C2538 1.386 . S
C2539 C2543 1.393 . S
C2540 H2529 0.950 . S
C2540 C2538 1.391 . S
C2540 C2541 1.400 . S
C2541 C2535 1.491 . S
C2541 C2540 1.400 . S
C2541 C2542 1.398 . S
C2542 H2530 0.950 . S
C2542 C2541 1.398 . S
C2542 C2543 1.391 . S
C2543 H2531 0.950 . S
C2543 C2539 1.393 . S
C2543 C2542 1.391 . S
H2544 C2552 0.950 . S
H2545 C2557 0.950 . S
H2546 C2554 0.950 . S
H2547 C2556 0.950 . S
H2548 C2558 0.950 . S
H2549 C2560 0.950 . S
H2550 C2562 0.950 . S
H2551 C2563 0.950 . S
C2552 H2544 0.950 . S
C2552 C2553 1.386 . S
C2552 C2554 1.391 . S
C2553 C2552 1.386 . S
C2553 C2557 1.393 . S
C2554 H2546 0.950 . S
C2554 C2552 1.391 . S
C2554 C2555 1.400 . S
C2555 C2554 1.400 . S
C2555 C2556 1.398 . S
C2555 C2561 1.491 . S
C2556 H2547 0.950 . S
C2556 C2555 1.398 . S
C2556 C2557 1.391 . S
C2557 H2545 0.950 . S
C2557 C2553 1.393 . S
C2557 C2556 1.391 . S
C2558 H2548 0.950 . S
C2558 C2559 1.386 . S
C2558 C2560 1.391 . S
C2559 C2558 1.386 . S
C2559 C2563 1.393 . S
C2560 H2549 0.950 . S
C2560 C2558 1.391 . S
C2560 C2561 1.400 . S
C2561 C2555 1.491 . S
C2561 C2560 1.400 . S
C2561 C2562 1.398 . S
C2562 H2550 0.950 . S
C2562 C2561 1.398 . S
C2562 C2563 1.391 . S
C2563 H2551 0.950 . S
C2563 C2559 1.393 . S
C2563 C2562 1.391 . S
H2564 C2572 0.950 . S
H2565 C2577 0.950 . S
H2566 C2574 0.950 . S
H2567 C2576 0.950 . S
H2568 C2578 0.950 . S
H2569 C2580 0.950 . S
H2570 C2582 0.950 . S
H2571 C2583 0.950 . S
C2572 H2564 0.950 . S
C2572 C2573 1.386 . S
C2572 C2574 1.391 . S
C2573 C2572 1.386 . S
C2573 C2577 1.393 . S
C2574 H2566 0.950 . S
C2574 C2572 1.391 . S
C2574 C2575 1.400 . S
C2575 C2574 1.400 . S
C2575 C2576 1.398 . S
C2575 C2581 1.491 . S
C2576 H2567 0.950 . S
C2576 C2575 1.398 . S
C2576 C2577 1.391 . S
C2577 H2565 0.950 . S
C2577 C2573 1.393 . S
C2577 C2576 1.391 . S
C2578 H2568 0.950 . S
C2578 C2579 1.386 . S
C2578 C2580 1.391 . S
C2579 C2578 1.386 . S
C2579 C2583 1.393 . S
C2580 H2569 0.950 . S
C2580 C2578 1.391 . S
C2580 C2581 1.400 . S
C2581 C2575 1.491 . S
C2581 C2580 1.400 . S
C2581 C2582 1.398 . S
C2582 H2570 0.950 . S
C2582 C2581 1.398 . S
C2582 C2583 1.391 . S
C2583 H2571 0.950 . S
C2583 C2579 1.393 . S
C2583 C2582 1.391 . S
H2584 C2592 0.950 . S
H2585 C2597 0.950 . S
H2586 C2594 0.950 . S
H2587 C2596 0.950 . S
H2588 C2598 0.950 . S
H2589 C2600 0.950 . S
H2590 C2602 0.950 . S
H2591 C2603 0.950 . S
C2592 H2584 0.950 . S
C2592 C2593 1.386 . S
C2592 C2594 1.391 . S
C2593 C2592 1.386 . S
C2593 C2597 1.393 . S
C2594 H2586 0.950 . S
C2594 C2592 1.391 . S
C2594 C2595 1.400 . S
C2595 C2594 1.400 . S
C2595 C2596 1.398 . S
C2595 C2601 1.491 . S
C2596 H2587 0.950 . S
C2596 C2595 1.398 . S
C2596 C2597 1.391 . S
C2597 H2585 0.950 . S
C2597 C2593 1.393 . S
C2597 C2596 1.391 . S
C2598 H2588 0.950 . S
C2598 C2599 1.386 . S
C2598 C2600 1.391 . S
C2599 C2598 1.386 . S
C2599 C2603 1.393 . S
C2600 H2589 0.950 . S
C2600 C2598 1.391 . S
C2600 C2601 1.400 . S
C2601 C2595 1.491 . S
C2601 C2600 1.400 . S
C2601 C2602 1.398 . S
C2602 H2590 0.950 . S
C2602 C2601 1.398 . S
C2602 C2603 1.391 . S
C2603 H2591 0.950 . S
C2603 C2599 1.393 . S
C2603 C2602 1.391 . S
H2604 C2612 0.950 . S
H2605 C2617 0.950 . S
H2606 C2614 0.950 . S
H2607 C2616 0.950 . S
H2608 C2618 0.950 . S
H2609 C2620 0.950 . S
H2610 C2622 0.950 . S
H2611 C2623 0.950 . S
C2612 H2604 0.950 . S
C2612 C2613 1.386 . S
C2612 C2614 1.391 . S
C2613 C2612 1.386 . S
C2613 C2617 1.393 . S
C2614 H2606 0.950 . S
C2614 C2612 1.391 . S
C2614 C2615 1.400 . S
C2615 C2614 1.400 . S
C2615 C2616 1.398 . S
C2615 C2621 1.491 . S
C2616 H2607 0.950 . S
C2616 C2615 1.398 . S
C2616 C2617 1.391 . S
C2617 H2605 0.950 . S
C2617 C2613 1.393 . S
C2617 C2616 1.391 . S
C2618 H2608 0.950 . S
C2618 C2619 1.386 . S
C2618 C2620 1.391 . S
C2619 C2618 1.386 . S
C2619 C2623 1.393 . S
C2620 H2609 0.950 . S
C2620 C2618 1.391 . S
C2620 C2621 1.400 . S
C2621 C2615 1.491 . S
C2621 C2620 1.400 . S
C2621 C2622 1.398 . S
C2622 H2610 0.950 . S
C2622 C2621 1.398 . S
C2622 C2623 1.391 . S
C2623 H2611 0.950 . S
C2623 C2619 1.393 . S
C2623 C2622 1.391 . S
H2624 C2632 0.950 . S
H2625 C2637 0.950 . S
H2626 C2634 0.950 . S
H2627 C2636 0.950 . S
H2628 C2638 0.950 . S
H2629 C2640 0.950 . S
H2630 C2642 0.950 . S
H2631 C2643 0.950 . S
C2632 H2624 0.950 . S
C2632 C2633 1.386 . S
C2632 C2634 1.391 . S
C2633 C2632 1.386 . S
C2633 C2637 1.393 . S
C2634 H2626 0.950 . S
C2634 C2632 1.391 . S
C2634 C2635 1.400 . S
C2635 C2634 1.400 . S
C2635 C2636 1.398 . S
C2635 C2641 1.491 . S
C2636 H2627 0.950 . S
C2636 C2635 1.398 . S
C2636 C2637 1.391 . S
C2637 H2625 0.950 . S
C2637 C2633 1.393 . S
C2637 C2636 1.391 . S
C2638 H2628 0.950 . S
C2638 C2639 1.386 . S
C2638 C2640 1.391 . S
C2639 C2638 1.386 . S
C2639 C2643 1.393 . S
C2640 H2629 0.950 . S
C2640 C2638 1.391 . S
C2640 C2641 1.400 . S
C2641 C2635 1.491 . S
C2641 C2640 1.400 . S
C2641 C2642 1.398 . S
C2642 H2630 0.950 . S
C2642 C2641 1.398 . S
C2642 C2643 1.391 . S
C2643 H2631 0.950 . S
C2643 C2639 1.393 . S
C2643 C2642 1.391 . S
H2644 C2652 0.950 . S
H2645 C2657 0.950 . S
H2646 C2654 0.950 . S
H2647 C2656 0.950 . S
H2648 C2658 0.950 . S
H2649 C2660 0.950 . S
H2650 C2662 0.950 . S
H2651 C2663 0.950 . S
C2652 H2644 0.950 . S
C2652 C2653 1.386 . S
C2652 C2654 1.391 . S
C2653 C2652 1.386 . S
C2653 C2657 1.393 . S
C2654 H2646 0.950 . S
C2654 C2652 1.391 . S
C2654 C2655 1.400 . S
C2655 C2654 1.400 . S
C2655 C2656 1.398 . S
C2655 C2661 1.491 . S
C2656 H2647 0.950 . S
C2656 C2655 1.398 . S
C2656 C2657 1.391 . S
C2657 H2645 0.950 . S
C2657 C2653 1.393 . S
C2657 C2656 1.391 . S
C2658 H2648 0.950 . S
C2658 C2659 1.386 . S
C2658 C2660 1.391 . S
C2659 C2658 1.386 . S
C2659 C2663 1.393 . S
C2660 H2649 0.950 . S
C2660 C2658 1.391 . S
C2660 C2661 1.400 . S
C2661 C2655 1.491 . S
C2661 C2660 1.400 . S
C2661 C2662 1.398 . S
C2662 H2650 0.950 . S
C2662 C2661 1.398 . S
C2662 C2663 1.391 . S
C2663 H2651 0.950 . S
C2663 C2659 1.393 . S
C2663 C2662 1.391 . S
H2664 C2672 0.950 . S
H2665 C2677 0.950 . S
H2666 C2674 0.950 . S
H2667 C2676 0.950 . S
H2668 C2678 0.950 . S
H2669 C2680 0.950 . S
H2670 C2682 0.950 . S
H2671 C2683 0.950 . S
C2672 H2664 0.950 . S
C2672 C2673 1.386 . S
C2672 C2674 1.391 . S
C2673 C2672 1.386 . S
C2673 C2677 1.393 . S
C2674 H2666 0.950 . S
C2674 C2672 1.391 . S
C2674 C2675 1.400 . S
C2675 C2674 1.400 . S
C2675 C2676 1.398 . S
C2675 C2681 1.491 . S
C2676 H2667 0.950 . S
C2676 C2675 1.398 . S
C2676 C2677 1.391 . S
C2677 H2665 0.950 . S
C2677 C2673 1.393 . S
C2677 C2676 1.391 . S
C2678 H2668 0.950 . S
C2678 C2679 1.386 . S
C2678 C2680 1.391 . S
C2679 C2678 1.386 . S
C2679 C2683 1.393 . S
C2680 H2669 0.950 . S
C2680 C2678 1.391 . S
C2680 C2681 1.400 . S
C2681 C2675 1.491 . S
C2681 C2680 1.400 . S
C2681 C2682 1.398 . S
C2682 H2670 0.950 . S
C2682 C2681 1.398 . S
C2682 C2683 1.391 . S
C2683 H2671 0.950 . S
C2683 C2679 1.393 . S
C2683 C2682 1.391 . S
H2684 C2692 0.950 . S
H2685 C2697 0.950 . S
H2686 C2694 0.950 . S
H2687 C2696 0.950 . S
H2688 C2698 0.950 . S
H2689 C2700 0.950 . S
H2690 C2702 0.950 . S
H2691 C2703 0.950 . S
C2692 H2684 0.950 . S
C2692 C2693 1.386 . S
C2692 C2694 1.391 . S
C2693 C2692 1.386 . S
C2693 C2697 1.393 . S
C2694 H2686 0.950 . S
C2694 C2692 1.391 . S
C2694 C2695 1.400 . S
C2695 C2694 1.400 . S
C2695 C2696 1.398 . S
C2695 C2701 1.491 . S
C2696 H2687 0.950 . S
C2696 C2695 1.398 . S
C2696 C2697 1.391 . S
C2697 H2685 0.950 . S
C2697 C2693 1.393 . S
C2697 C2696 1.391 . S
C2698 H2688 0.950 . S
C2698 C2699 1.386 . S
C2698 C2700 1.391 . S
C2699 C2698 1.386 . S
C2699 C2703 1.393 . S
C2700 H2689 0.950 . S
C2700 C2698 1.391 . S
C2700 C2701 1.400 . S
C2701 C2695 1.491 . S
C2701 C2700 1.400 . S
C2701 C2702 1.398 . S
C2702 H2690 0.950 . S
C2702 C2701 1.398 . S
C2702 C2703 1.391 . S
C2703 H2691 0.950 . S
C2703 C2699 1.393 . S
C2703 C2702 1.391 . S
H2704 C2712 0.950 . S
H2705 C2717 0.950 . S
H2706 C2714 0.950 . S
H2707 C2716 0.950 . S
H2708 C2718 0.950 . S
H2709 C2720 0.950 . S
H2710 C2722 0.950 . S
H2711 C2723 0.950 . S
C2712 H2704 0.950 . S
C2712 C2713 1.386 . S
C2712 C2714 1.391 . S
C2713 C2712 1.386 . S
C2713 C2717 1.393 . S
C2714 H2706 0.950 . S
C2714 C2712 1.391 . S
C2714 C2715 1.400 . S
C2715 C2714 1.400 . S
C2715 C2716 1.398 . S
C2715 C2721 1.491 . S
C2716 H2707 0.950 . S
C2716 C2715 1.398 . S
C2716 C2717 1.391 . S
C2717 H2705 0.950 . S
C2717 C2713 1.393 . S
C2717 C2716 1.391 . S
C2718 H2708 0.950 . S
C2718 C2719 1.386 . S
C2718 C2720 1.391 . S
C2719 C2718 1.386 . S
C2719 C2723 1.393 . S
C2720 H2709 0.950 . S
C2720 C2718 1.391 . S
C2720 C2721 1.400 . S
C2721 C2715 1.491 . S
C2721 C2720 1.400 . S
C2721 C2722 1.398 . S
C2722 H2710 0.950 . S
C2722 C2721 1.398 . S
C2722 C2723 1.391 . S
C2723 H2711 0.950 . S
C2723 C2719 1.393 . S
C2723 C2722 1.391 . S
H2724 C2732 0.950 . S
H2725 C2737 0.950 . S
H2726 C2734 0.950 . S
H2727 C2736 0.950 . S
H2728 C2738 0.950 . S
H2729 C2740 0.950 . S
H2730 C2742 0.950 . S
H2731 C2743 0.950 . S
C2732 H2724 0.950 . S
C2732 C2733 1.386 . S
C2732 C2734 1.391 . S
C2733 C2732 1.386 . S
C2733 C2737 1.393 . S
C2734 H2726 0.950 . S
C2734 C2732 1.391 . S
C2734 C2735 1.400 . S
C2735 C2734 1.400 . S
C2735 C2736 1.398 . S
C2735 C2741 1.491 . S
C2736 H2727 0.950 . S
C2736 C2735 1.398 . S
C2736 C2737 1.391 . S
C2737 H2725 0.950 . S
C2737 C2733 1.393 . S
C2737 C2736 1.391 . S
C2738 H2728 0.950 . S
C2738 C2739 1.386 . S
C2738 C2740 1.391 . S
C2739 C2738 1.386 . S
C2739 C2743 1.393 . S
C2740 H2729 0.950 . S
C2740 C2738 1.391 . S
C2740 C2741 1.400 . S
C2741 C2735 1.491 . S
C2741 C2740 1.400 . S
C2741 C2742 1.398 . S
C2742 H2730 0.950 . S
C2742 C2741 1.398 . S
C2742 C2743 1.391 . S
C2743 H2731 0.950 . S
C2743 C2739 1.393 . S
C2743 C2742 1.391 . S
H2744 C2752 0.950 . S
H2745 C2757 0.950 . S
H2746 C2754 0.950 . S
H2747 C2756 0.950 . S
H2748 C2758 0.950 . S
H2749 C2760 0.950 . S
H2750 C2762 0.950 . S
H2751 C2763 0.950 . S
C2752 H2744 0.950 . S
C2752 C2753 1.386 . S
C2752 C2754 1.391 . S
C2753 C2752 1.386 . S
C2753 C2757 1.393 . S
C2754 H2746 0.950 . S
C2754 C2752 1.391 . S
C2754 C2755 1.400 . S
C2755 C2754 1.400 . S
C2755 C2756 1.398 . S
C2755 C2761 1.491 . S
C2756 H2747 0.950 . S
C2756 C2755 1.398 . S
C2756 C2757 1.391 . S
C2757 H2745 0.950 . S
C2757 C2753 1.393 . S
C2757 C2756 1.391 . S
C2758 H2748 0.950 . S
C2758 C2759 1.386 . S
C2758 C2760 1.391 . S
C2759 C2758 1.386 . S
C2759 C2763 1.393 . S
C2760 H2749 0.950 . S
C2760 C2758 1.391 . S
C2760 C2761 1.400 . S
C2761 C2755 1.491 . S
C2761 C2760 1.400 . S
C2761 C2762 1.398 . S
C2762 H2750 0.950 . S
C2762 C2761 1.398 . S
C2762 C2763 1.391 . S
C2763 H2751 0.950 . S
C2763 C2759 1.393 . S
C2763 C2762 1.391 . S
H2764 C2772 0.950 . S
H2765 C2777 0.950 . S
H2766 C2774 0.950 . S
H2767 C2776 0.950 . S
H2768 C2778 0.950 . S
H2769 C2780 0.950 . S
H2770 C2782 0.950 . S
H2771 C2783 0.950 . S
C2772 H2764 0.950 . S
C2772 C2773 1.386 . S
C2772 C2774 1.391 . S
C2773 C2772 1.386 . S
C2773 C2777 1.393 . S
C2774 H2766 0.950 . S
C2774 C2772 1.391 . S
C2774 C2775 1.400 . S
C2775 C2774 1.400 . S
C2775 C2776 1.398 . S
C2775 C2781 1.491 . S
C2776 H2767 0.950 . S
C2776 C2775 1.398 . S
C2776 C2777 1.391 . S
C2777 H2765 0.950 . S
C2777 C2773 1.393 . S
C2777 C2776 1.391 . S
C2778 H2768 0.950 . S
C2778 C2779 1.386 . S
C2778 C2780 1.391 . S
C2779 C2778 1.386 . S
C2779 C2783 1.393 . S
C2780 H2769 0.950 . S
C2780 C2778 1.391 . S
C2780 C2781 1.400 . S
C2781 C2775 1.491 . S
C2781 C2780 1.400 . S
C2781 C2782 1.398 . S
C2782 H2770 0.950 . S
C2782 C2781 1.398 . S
C2782 C2783 1.391 . S
C2783 H2771 0.950 . S
C2783 C2779 1.393 . S
C2783 C2782 1.391 . S
H2784 C2792 0.950 . S
H2785 C2797 0.950 . S
H2786 C2794 0.950 . S
H2787 C2796 0.950 . S
H2788 C2798 0.950 . S
H2789 C2800 0.950 . S
H2790 C2802 0.950 . S
H2791 C2803 0.950 . S
C2792 H2784 0.950 . S
C2792 C2793 1.386 . S
C2792 C2794 1.391 . S
C2793 C2792 1.386 . S
C2793 C2797 1.393 . S
C2794 H2786 0.950 . S
C2794 C2792 1.391 . S
C2794 C2795 1.400 . S
C2795 C2794 1.400 . S
C2795 C2796 1.398 . S
C2795 C2801 1.491 . S
C2796 H2787 0.950 . S
C2796 C2795 1.398 . S
C2796 C2797 1.391 . S
C2797 H2785 0.950 . S
C2797 C2793 1.393 . S
C2797 C2796 1.391 . S
C2798 H2788 0.950 . S
C2798 C2799 1.386 . S
C2798 C2800 1.391 . S
C2799 C2798 1.386 . S
C2799 C2803 1.393 . S
C2800 H2789 0.950 . S
C2800 C2798 1.391 . S
C2800 C2801 1.400 . S
C2801 C2795 1.491 . S
C2801 C2800 1.400 . S
C2801 C2802 1.398 . S
C2802 H2790 0.950 . S
C2802 C2801 1.398 . S
C2802 C2803 1.391 . S
C2803 H2791 0.950 . S
C2803 C2799 1.393 . S
C2803 C2802 1.391 . S
H2804 C2812 0.950 . S
H2805 C2817 0.950 . S
H2806 C2814 0.950 . S
H2807 C2816 0.950 . S
H2808 C2818 0.950 . S
H2809 C2820 0.950 . S
H2810 C2822 0.950 . S
H2811 C2823 0.950 . S
C2812 H2804 0.950 . S
C2812 C2813 1.386 . S
C2812 C2814 1.391 . S
C2813 C2812 1.386 . S
C2813 C2817 1.393 . S
C2814 H2806 0.950 . S
C2814 C2812 1.391 . S
C2814 C2815 1.400 . S
C2815 C2814 1.400 . S
C2815 C2816 1.398 . S
C2815 C2821 1.491 . S
C2816 H2807 0.950 . S
C2816 C2815 1.398 . S
C2816 C2817 1.391 . S
C2817 H2805 0.950 . S
C2817 C2813 1.393 . S
C2817 C2816 1.391 . S
C2818 H2808 0.950 . S
C2818 C2819 1.386 . S
C2818 C2820 1.391 . S
C2819 C2818 1.386 . S
C2819 C2823 1.393 . S
C2820 H2809 0.950 . S
C2820 C2818 1.391 . S
C2820 C2821 1.400 . S
C2821 C2815 1.491 . S
C2821 C2820 1.400 . S
C2821 C2822 1.398 . S
C2822 H2810 0.950 . S
C2822 C2821 1.398 . S
C2822 C2823 1.391 . S
C2823 H2811 0.950 . S
C2823 C2819 1.393 . S
C2823 C2822 1.391 . S
H2824 C2832 0.950 . S
H2825 C2837 0.950 . S
H2826 C2834 0.950 . S
H2827 C2836 0.950 . S
H2828 C2838 0.950 . S
H2829 C2840 0.950 . S
H2830 C2842 0.950 . S
H2831 C2843 0.950 . S
C2832 H2824 0.950 . S
C2832 C2833 1.386 . S
C2832 C2834 1.391 . S
C2833 C2832 1.386 . S
C2833 C2837 1.393 . S
C2834 H2826 0.950 . S
C2834 C2832 1.391 . S
C2834 C2835 1.400 . S
C2835 C2834 1.400 . S
C2835 C2836 1.398 . S
C2835 C2841 1.491 . S
C2836 H2827 0.950 . S
C2836 C2835 1.398 . S
C2836 C2837 1.391 . S
C2837 H2825 0.950 . S
C2837 C2833 1.393 . S
C2837 C2836 1.391 . S
C2838 H2828 0.950 . S
C2838 C2839 1.386 . S
C2838 C2840 1.391 . S
C2839 C2838 1.386 . S
C2839 C2843 1.393 . S
C2840 H2829 0.950 . S
C2840 C2838 1.391 . S
C2840 C2841 1.400 . S
C2841 C2835 1.491 . S
C2841 C2840 1.400 . S
C2841 C2842 1.398 . S
C2842 H2830 0.950 . S
C2842 C2841 1.398 . S
C2842 C2843 1.391 . S
C2843 H2831 0.950 . S
C2843 C2839 1.393 . S
C2843 C2842 1.391 . S
H2844 C2852 0.950 . S
H2845 C2857 0.950 . S
H2846 C2854 0.950 . S
H2847 C2856 0.950 . S
H2848 C2858 0.950 . S
H2849 C2860 0.950 . S
H2850 C2862 0.950 . S
H2851 C2863 0.950 . S
C2852 H2844 0.950 . S
C2852 C2853 1.386 . S
C2852 C2854 1.391 . S
C2853 C2852 1.386 . S
C2853 C2857 1.393 . S
C2854 H2846 0.950 . S
C2854 C2852 1.391 . S
C2854 C2855 1.400 . S
C2855 C2854 1.400 . S
C2855 C2856 1.398 . S
C2855 C2861 1.491 . S
C2856 H2847 0.950 . S
C2856 C2855 1.398 . S
C2856 C2857 1.391 . S
C2857 H2845 0.950 . S
C2857 C2853 1.393 . S
C2857 C2856 1.391 . S
C2858 H2848 0.950 . S
C2858 C2859 1.386 . S
C2858 C2860 1.391 . S
C2859 C2858 1.386 . S
C2859 C2863 1.393 . S
C2860 H2849 0.950 . S
C2860 C2858 1.391 . S
C2860 C2861 1.400 . S
C2861 C2855 1.491 . S
C2861 C2860 1.400 . S
C2861 C2862 1.398 . S
C2862 H2850 0.950 . S
C2862 C2861 1.398 . S
C2862 C2863 1.391 . S
C2863 H2851 0.950 . S
C2863 C2859 1.393 . S
C2863 C2862 1.391 . S
H2864 C2872 0.950 . S
H2865 C2877 0.950 . S
H2866 C2874 0.950 . S
H2867 C2876 0.950 . S
H2868 C2878 0.950 . S
H2869 C2880 0.950 . S
H2870 C2882 0.950 . S
H2871 C2883 0.950 . S
C2872 H2864 0.950 . S
C2872 C2873 1.386 . S
C2872 C2874 1.391 . S
C2873 C2872 1.386 . S
C2873 C2877 1.393 . S
C2874 H2866 0.950 . S
C2874 C2872 1.391 . S
C2874 C2875 1.400 . S
C2875 C2874 1.400 . S
C2875 C2876 1.398 . S
C2875 C2881 1.491 . S
C2876 H2867 0.950 . S
C2876 C2875 1.398 . S
C2876 C2877 1.391 . S
C2877 H2865 0.950 . S
C2877 C2873 1.393 . S
C2877 C2876 1.391 . S
C2878 H2868 0.950 . S
C2878 C2879 1.386 . S
C2878 C2880 1.391 . S
C2879 C2878 1.386 . S
C2879 C2883 1.393 . S
C2880 H2869 0.950 . S
C2880 C2878 1.391 . S
C2880 C2881 1.400 . S
C2881 C2875 1.491 . S
C2881 C2880 1.400 . S
C2881 C2882 1.398 . S
C2882 H2870 0.950 . S
C2882 C2881 1.398 . S
C2882 C2883 1.391 . S
C2883 H2871 0.950 . S
C2883 C2879 1.393 . S
C2883 C2882 1.391 . S
H2884 C2892 0.950 . S
H2885 C2897 0.950 . S
H2886 C2894 0.950 . S
H2887 C2896 0.950 . S
H2888 C2898 0.950 . S
H2889 C2900 0.950 . S
H2890 C2902 0.950 . S
H2891 C2903 0.950 . S
C2892 H2884 0.950 . S
C2892 C2893 1.386 . S
C2892 C2894 1.391 . S
C2893 C2892 1.386 . S
C2893 C2897 1.393 . S
C2894 H2886 0.950 . S
C2894 C2892 1.391 . S
C2894 C2895 1.400 . S
C2895 C2894 1.400 . S
C2895 C2896 1.398 . S
C2895 C2901 1.491 . S
C2896 H2887 0.950 . S
C2896 C2895 1.398 . S
C2896 C2897 1.391 . S
C2897 H2885 0.950 . S
C2897 C2893 1.393 . S
C2897 C2896 1.391 . S
C2898 H2888 0.950 . S
C2898 C2899 1.386 . S
C2898 C2900 1.391 . S
C2899 C2898 1.386 . S
C2899 C2903 1.393 . S
C2900 H2889 0.950 . S
C2900 C2898 1.391 . S
C2900 C2901 1.400 . S
C2901 C2895 1.491 . S
C2901 C2900 1.400 . S
C2901 C2902 1.398 . S
C2902 H2890 0.950 . S
C2902 C2901 1.398 . S
C2902 C2903 1.391 . S
C2903 H2891 0.950 . S
C2903 C2899 1.393 . S
C2903 C2902 1.391 . S
H2904 C2912 0.950 . S
H2905 C2917 0.950 . S
H2906 C2914 0.950 . S
H2907 C2916 0.950 . S
H2908 C2918 0.950 . S
H2909 C2920 0.950 . S
H2910 C2922 0.950 . S
H2911 C2923 0.950 . S
C2912 H2904 0.950 . S
C2912 C2913 1.386 . S
C2912 C2914 1.391 . S
C2913 C2912 1.386 . S
C2913 C2917 1.393 . S
C2914 H2906 0.950 . S
C2914 C2912 1.391 . S
C2914 C2915 1.400 . S
C2915 C2914 1.400 . S
C2915 C2916 1.398 . S
C2915 C2921 1.491 . S
C2916 H2907 0.950 . S
C2916 C2915 1.398 . S
C2916 C2917 1.391 . S
C2917 H2905 0.950 . S
C2917 C2913 1.393 . S
C2917 C2916 1.391 . S
C2918 H2908 0.950 . S
C2918 C2919 1.386 . S
C2918 C2920 1.391 . S
C2919 C2918 1.386 . S
C2919 C2923 1.393 . S
C2920 H2909 0.950 . S
C2920 C2918 1.391 . S
C2920 C2921 1.400 . S
C2921 C2915 1.491 . S
C2921 C2920 1.400 . S
C2921 C2922 1.398 . S
C2922 H2910 0.950 . S
C2922 C2921 1.398 . S
C2922 C2923 1.391 . S
C2923 H2911 0.950 . S
C2923 C2919 1.393 . S
C2923 C2922 1.391 . S
H2924 C2932 0.950 . S
H2925 C2937 0.950 . S
H2926 C2934 0.950 . S
H2927 C2936 0.950 . S
H2928 C2938 0.950 . S
H2929 C2940 0.950 . S
H2930 C2942 0.950 . S
H2931 C2943 0.950 . S
C2932 H2924 0.950 . S
C2932 C2933 1.386 . S
C2932 C2934 1.391 . S
C2933 C2932 1.386 . S
C2933 C2937 1.393 . S
C2934 H2926 0.950 . S
C2934 C2932 1.391 . S
C2934 C2935 1.400 . S
C2935 C2934 1.400 . S
C2935 C2936 1.398 . S
C2935 C2941 1.491 . S
C2936 H2927 0.950 . S
C2936 C2935 1.398 . S
C2936 C2937 1.391 . S
C2937 H2925 0.950 . S
C2937 C2933 1.393 . S
C2937 C2936 1.391 . S
C2938 H2928 0.950 . S
C2938 C2939 1.386 . S
C2938 C2940 1.391 . S
C2939 C2938 1.386 . S
C2939 C2943 1.393 . S
C2940 H2929 0.950 . S
C2940 C2938 1.391 . S
C2940 C2941 1.400 . S
C2941 C2935 1.491 . S
C2941 C2940 1.400 . S
C2941 C2942 1.398 . S
C2942 H2930 0.950 . S
C2942 C2941 1.398 . S
C2942 C2943 1.391 . S
C2943 H2931 0.950 . S
C2943 C2939 1.393 . S
C2943 C2942 1.391 . S
H2944 C2952 0.950 . S
H2945 C2957 0.950 . S
H2946 C2954 0.950 . S
H2947 C2956 0.950 . S
H2948 C2958 0.950 . S
H2949 C2960 0.950 . S
H2950 C2962 0.950 . S
H2951 C2963 0.950 . S
C2952 H2944 0.950 . S
C2952 C2953 1.386 . S
C2952 C2954 1.391 . S
C2953 C2952 1.386 . S
C2953 C2957 1.393 . S
C2954 H2946 0.950 . S
C2954 C2952 1.391 . S
C2954 C2955 1.400 . S
C2955 C2954 1.400 . S
C2955 C2956 1.398 . S
C2955 C2961 1.491 . S
C2956 H2947 0.950 . S
C2956 C2955 1.398 . S
C2956 C2957 1.391 . S
C2957 H2945 0.950 . S
C2957 C2953 1.393 . S
C2957 C2956 1.391 . S
C2958 H2948 0.950 . S
C2958 C2959 1.386 . S
C2958 C2960 1.391 . S
C2959 C2958 1.386 . S
C2959 C2963 1.393 . S
C2960 H2949 0.950 . S
C2960 C2958 1.391 . S
C2960 C2961 1.400 . S
C2961 C2955 1.491 . S
C2961 C2960 1.400 . S
C2961 C2962 1.398 . S
C2962 H2950 0.950 . S
C2962 C2961 1.398 . S
C2962 C2963 1.391 . S
C2963 H2951 0.950 . S
C2963 C2959 1.393 . S
C2963 C2962 1.391 . S
H2964 C2972 0.950 . S
H2965 C2977 0.950 . S
H2966 C2974 0.950 . S
H2967 C2976 0.950 . S
H2968 C2978 0.950 . S
H2969 C2980 0.950 . S
H2970 C2982 0.950 . S
H2971 C2983 0.950 . S
C2972 H2964 0.950 . S
C2972 C2973 1.386 . S
C2972 C2974 1.391 . S
C2973 C2972 1.386 . S
C2973 C2977 1.393 . S
C2974 H2966 0.950 . S
C2974 C2972 1.391 . S
C2974 C2975 1.400 . S
C2975 C2974 1.400 . S
C2975 C2976 1.398 . S
C2975 C2981 1.491 . S
C2976 H2967 0.950 . S
C2976 C2975 1.398 . S
C2976 C2977 1.391 . S
C2977 H2965 0.950 . S
C2977 C2973 1.393 . S
C2977 C2976 1.391 . S
C2978 H2968 0.950 . S
C2978 C2979 1.386 . S
C2978 C2980 1.391 . S
C2979 C2978 1.386 . S
C2979 C2983 1.393 . S
C2980 H2969 0.950 . S
C2980 C2978 1.391 . S
C2980 C2981 1.400 . S
C2981 C2975 1.491 . S
C2981 C2980 1.400 . S
C2981 C2982 1.398 . S
C2982 H2970 0.950 . S
C2982 C2981 1.398 . S
C2982 C2983 1.391 . S
C2983 H2971 0.950 . S
C2983 C2979 1.393 . S
C2983 C2982 1.391 . S
H2984 C2992 0.950 . S
H2985 C2997 0.950 . S
H2986 C2994 0.950 . S
H2987 C2996 0.950 . S
H2988 C2998 0.950 . S
H2989 C3000 0.950 . S
H2990 C3002 0.950 . S
H2991 C3003 0.950 . S
C2992 H2984 0.950 . S
C2992 C2993 1.386 . S
C2992 C2994 1.391 . S
C2993 C2992 1.386 . S
C2993 C2997 1.393 . S
C2994 H2986 0.950 . S
C2994 C2992 1.391 . S
C2994 C2995 1.400 . S
C2995 C2994 1.400 . S
C2995 C2996 1.398 . S
C2995 C3001 1.491 . S
C2996 H2987 0.950 . S
C2996 C2995 1.398 . S
C2996 C2997 1.391 . S
C2997 H2985 0.950 . S
C2997 C2993 1.393 . S
C2997 C2996 1.391 . S
C2998 H2988 0.950 . S
C2998 C2999 1.386 . S
C2998 C3000 1.391 . S
C2999 C2998 1.386 . S
C2999 C3003 1.393 . S
C3000 H2989 0.950 . S
C3000 C2998 1.391 . S
C3000 C3001 1.400 . S
C3001 C2995 1.491 . S
C3001 C3000 1.400 . S
C3001 C3002 1.398 . S
C3002 H2990 0.950 . S
C3002 C3001 1.398 . S
C3002 C3003 1.391 . S
C3003 H2991 0.950 . S
C3003 C2999 1.393 . S
C3003 C3002 1.391 . S
H3004 C3012 0.950 . S
H3005 C3017 0.950 . S
H3006 C3014 0.950 . S
H3007 C3016 0.950 . S
H3008 C3018 0.950 . S
H3009 C3020 0.950 . S
H3010 C3022 0.950 . S
H3011 C3023 0.950 . S
C3012 H3004 0.950 . S
C3012 C3013 1.386 . S
C3012 C3014 1.391 . S
C3013 C3012 1.386 . S
C3013 C3017 1.393 . S
C3014 H3006 0.950 . S
C3014 C3012 1.391 . S
C3014 C3015 1.400 . S
C3015 C3014 1.400 . S
C3015 C3016 1.398 . S
C3015 C3021 1.491 . S
C3016 H3007 0.950 . S
C3016 C3015 1.398 . S
C3016 C3017 1.391 . S
C3017 H3005 0.950 . S
C3017 C3013 1.393 . S
C3017 C3016 1.391 . S
C3018 H3008 0.950 . S
C3018 C3019 1.386 . S
C3018 C3020 1.391 . S
C3019 C3018 1.386 . S
C3019 C3023 1.393 . S
C3020 H3009 0.950 . S
C3020 C3018 1.391 . S
C3020 C3021 1.400 . S
C3021 C3015 1.491 . S
C3021 C3020 1.400 . S
C3021 C3022 1.398 . S
C3022 H3010 0.950 . S
C3022 C3021 1.398 . S
C3022 C3023 1.391 . S
C3023 H3011 0.950 . S
C3023 C3019 1.393 . S
C3023 C3022 1.391 . S
H3024 C3032 0.950 . S
H3025 C3037 0.950 . S
H3026 C3034 0.950 . S
H3027 C3036 0.950 . S
H3028 C3038 0.950 . S
H3029 C3040 0.950 . S
H3030 C3042 0.950 . S
H3031 C3043 0.950 . S
C3032 H3024 0.950 . S
C3032 C3033 1.386 . S
C3032 C3034 1.391 . S
C3033 C3032 1.386 . S
C3033 C3037 1.393 . S
C3034 H3026 0.950 . S
C3034 C3032 1.391 . S
C3034 C3035 1.400 . S
C3035 C3034 1.400 . S
C3035 C3036 1.398 . S
C3035 C3041 1.491 . S
C3036 H3027 0.950 . S
C3036 C3035 1.398 . S
C3036 C3037 1.391 . S
C3037 H3025 0.950 . S
C3037 C3033 1.393 . S
C3037 C3036 1.391 . S
C3038 H3028 0.950 . S
C3038 C3039 1.386 . S
C3038 C3040 1.391 . S
C3039 C3038 1.386 . S
C3039 C3043 1.393 . S
C3040 H3029 0.950 . S
C3040 C3038 1.391 . S
C3040 C3041 1.400 . S
C3041 C3035 1.491 . S
C3041 C3040 1.400 . S
C3041 C3042 1.398 . S
C3042 H3030 0.950 . S
C3042 C3041 1.398 . S
C3042 C3043 1.391 . S
C3043 H3031 0.950 . S
C3043 C3039 1.393 . S
C3043 C3042 1.391 . S
H3044 C3052 0.950 . S
H3045 C3057 0.950 . S
H3046 C3054 0.950 . S
H3047 C3056 0.950 . S
H3048 C3058 0.950 . S
H3049 C3060 0.950 . S
H3050 C3062 0.950 . S
H3051 C3063 0.950 . S
C3052 H3044 0.950 . S
C3052 C3053 1.386 . S
C3052 C3054 1.391 . S
C3053 C3052 1.386 . S
C3053 C3057 1.393 . S
C3054 H3046 0.950 . S
C3054 C3052 1.391 . S
C3054 C3055 1.400 . S
C3055 C3054 1.400 . S
C3055 C3056 1.398 . S
C3055 C3061 1.491 . S
C3056 H3047 0.950 . S
C3056 C3055 1.398 . S
C3056 C3057 1.391 . S
C3057 H3045 0.950 . S
C3057 C3053 1.393 . S
C3057 C3056 1.391 . S
C3058 H3048 0.950 . S
C3058 C3059 1.386 . S
C3058 C3060 1.391 . S
C3059 C3058 1.386 . S
C3059 C3063 1.393 . S
C3060 H3049 0.950 . S
C3060 C3058 1.391 . S
C3060 C3061 1.400 . S
C3061 C3055 1.491 . S
C3061 C3060 1.400 . S
C3061 C3062 1.398 . S
C3062 H3050 0.950 . S
C3062 C3061 1.398 . S
C3062 C3063 1.391 . S
C3063 H3051 0.950 . S
C3063 C3059 1.393 . S
C3063 C3062 1.391 . S
H3064 C3072 0.950 . S
H3065 C3077 0.950 . S
H3066 C3074 0.950 . S
H3067 C3076 0.950 . S
H3068 C3078 0.950 . S
H3069 C3080 0.950 . S
H3070 C3082 0.950 . S
H3071 C3083 0.950 . S
C3072 H3064 0.950 . S
C3072 C3073 1.386 . S
C3072 C3074 1.391 . S
C3073 C3072 1.386 . S
C3073 C3077 1.393 . S
C3074 H3066 0.950 . S
C3074 C3072 1.391 . S
C3074 C3075 1.400 . S
C3075 C3074 1.400 . S
C3075 C3076 1.398 . S
C3075 C3081 1.491 . S
C3076 H3067 0.950 . S
C3076 C3075 1.398 . S
C3076 C3077 1.391 . S
C3077 H3065 0.950 . S
C3077 C3073 1.393 . S
C3077 C3076 1.391 . S
C3078 H3068 0.950 . S
C3078 C3079 1.386 . S
C3078 C3080 1.391 . S
C3079 C3078 1.386 . S
C3079 C3083 1.393 . S
C3080 H3069 0.950 . S
C3080 C3078 1.391 . S
C3080 C3081 1.400 . S
C3081 C3075 1.491 . S
C3081 C3080 1.400 . S
C3081 C3082 1.398 . S
C3082 H3070 0.950 . S
C3082 C3081 1.398 . S
C3082 C3083 1.391 . S
C3083 H3071 0.950 . S
C3083 C3079 1.393 . S
C3083 C3082 1.391 . S
H3084 C3092 0.950 . S
H3085 C3097 0.950 . S
H3086 C3094 0.950 . S
H3087 C3096 0.950 . S
H3088 C3098 0.950 . S
H3089 C3100 0.950 . S
H3090 C3102 0.950 . S
H3091 C3103 0.950 . S
C3092 H3084 0.950 . S
C3092 C3093 1.386 . S
C3092 C3094 1.391 . S
C3093 C3092 1.386 . S
C3093 C3097 1.393 . S
C3094 H3086 0.950 . S
C3094 C3092 1.391 . S
C3094 C3095 1.400 . S
C3095 C3094 1.400 . S
C3095 C3096 1.398 . S
C3095 C3101 1.491 . S
C3096 H3087 0.950 . S
C3096 C3095 1.398 . S
C3096 C3097 1.391 . S
C3097 H3085 0.950 . S
C3097 C3093 1.393 . S
C3097 C3096 1.391 . S
C3098 H3088 0.950 . S
C3098 C3099 1.386 . S
C3098 C3100 1.391 . S
C3099 C3098 1.386 . S
C3099 C3103 1.393 . S
C3100 H3089 0.950 . S
C3100 C3098 1.391 . S
C3100 C3101 1.400 . S
C3101 C3095 1.491 . S
C3101 C3100 1.400 . S
C3101 C3102 1.398 . S
C3102 H3090 0.950 . S
C3102 C3101 1.398 . S
C3102 C3103 1.391 . S
C3103 H3091 0.950 . S
C3103 C3099 1.393 . S
C3103 C3102 1.391 . S
H3104 C3112 0.950 . S
H3105 C3117 0.950 . S
H3106 C3114 0.950 . S
H3107 C3116 0.950 . S
H3108 C3118 0.950 . S
H3109 C3120 0.950 . S
H3110 C3122 0.950 . S
H3111 C3123 0.950 . S
C3112 H3104 0.950 . S
C3112 C3113 1.386 . S
C3112 C3114 1.391 . S
C3113 C3112 1.386 . S
C3113 C3117 1.393 . S
C3114 H3106 0.950 . S
C3114 C3112 1.391 . S
C3114 C3115 1.400 . S
C3115 C3114 1.400 . S
C3115 C3116 1.398 . S
C3115 C3121 1.491 . S
C3116 H3107 0.950 . S
C3116 C3115 1.398 . S
C3116 C3117 1.391 . S
C3117 H3105 0.950 . S
C3117 C3113 1.393 . S
C3117 C3116 1.391 . S
C3118 H3108 0.950 . S
C3118 C3119 1.386 . S
C3118 C3120 1.391 . S
C3119 C3118 1.386 . S
C3119 C3123 1.393 . S
C3120 H3109 0.950 . S
C3120 C3118 1.391 . S
C3120 C3121 1.400 . S
C3121 C3115 1.491 . S
C3121 C3120 1.400 . S
C3121 C3122 1.398 . S
C3122 H3110 0.950 . S
C3122 C3121 1.398 . S
C3122 C3123 1.391 . S
C3123 H3111 0.950 . S
C3123 C3119 1.393 . S
C3123 C3122 1.391 . S
H3124 C3132 0.950 . S
H3125 C3137 0.950 . S
H3126 C3134 0.950 . S
H3127 C3136 0.950 . S
H3128 C3138 0.950 . S
H3129 C3140 0.950 . S
H3130 C3142 0.950 . S
H3131 C3143 0.950 . S
C3132 H3124 0.950 . S
C3132 C3133 1.386 . S
C3132 C3134 1.391 . S
C3133 C3132 1.386 . S
C3133 C3137 1.393 . S
C3134 H3126 0.950 . S
C3134 C3132 1.391 . S
C3134 C3135 1.400 . S
C3135 C3134 1.400 . S
C3135 C3136 1.398 . S
C3135 C3141 1.491 . S
C3136 H3127 0.950 . S
C3136 C3135 1.398 . S
C3136 C3137 1.391 . S
C3137 H3125 0.950 . S
C3137 C3133 1.393 . S
C3137 C3136 1.391 . S
C3138 H3128 0.950 . S
C3138 C3139 1.386 . S
C3138 C3140 1.391 . S
C3139 C3138 1.386 . S
C3139 C3143 1.393 . S
C3140 H3129 0.950 . S
C3140 C3138 1.391 . S
C3140 C3141 1.400 . S
C3141 C3135 1.491 . S
C3141 C3140 1.400 . S
C3141 C3142 1.398 . S
C3142 H3130 0.950 . S
C3142 C3141 1.398 . S
C3142 C3143 1.391 . S
C3143 H3131 0.950 . S
C3143 C3139 1.393 . S
C3143 C3142 1.391 . S
H3144 C3152 0.950 . S
H3145 C3157 0.950 . S
H3146 C3154 0.950 . S
H3147 C3156 0.950 . S
H3148 C3158 0.950 . S
H3149 C3160 0.950 . S
H3150 C3162 0.950 . S
H3151 C3163 0.950 . S
C3152 H3144 0.950 . S
C3152 C3153 1.386 . S
C3152 C3154 1.391 . S
C3153 C3152 1.386 . S
C3153 C3157 1.393 . S
C3154 H3146 0.950 . S
C3154 C3152 1.391 . S
C3154 C3155 1.400 . S
C3155 C3154 1.400 . S
C3155 C3156 1.398 . S
C3155 C3161 1.491 . S
C3156 H3147 0.950 . S
C3156 C3155 1.398 . S
C3156 C3157 1.391 . S
C3157 H3145 0.950 . S
C3157 C3153 1.393 . S
C3157 C3156 1.391 . S
C3158 H3148 0.950 . S
C3158 C3159 1.386 . S
C3158 C3160 1.391 . S
C3159 C3158 1.386 . S
C3159 C3163 1.393 . S
C3160 H3149 0.950 . S
C3160 C3158 1.391 . S
C3160 C3161 1.400 . S
C3161 C3155 1.491 . S
C3161 C3160 1.400 . S
C3161 C3162 1.398 . S
C3162 H3150 0.950 . S
C3162 C3161 1.398 . S
C3162 C3163 1.391 . S
C3163 H3151 0.950 . S
C3163 C3159 1.393 . S
C3163 C3162 1.391 . S
H3164 C3172 0.950 . S
H3165 C3177 0.950 . S
H3166 C3174 0.950 . S
H3167 C3176 0.950 . S
H3168 C3178 0.950 . S
H3169 C3180 0.950 . S
H3170 C3182 0.950 . S
H3171 C3183 0.950 . S
C3172 H3164 0.950 . S
C3172 C3173 1.386 . S
C3172 C3174 1.391 . S
C3173 C3172 1.386 . S
C3173 C3177 1.393 . S
C3174 H3166 0.950 . S
C3174 C3172 1.391 . S
C3174 C3175 1.400 . S
C3175 C3174 1.400 . S
C3175 C3176 1.398 . S
C3175 C3181 1.491 . S
C3176 H3167 0.950 . S
C3176 C3175 1.398 . S
C3176 C3177 1.391 . S
C3177 H3165 0.950 . S
C3177 C3173 1.393 . S
C3177 C3176 1.391 . S
C3178 H3168 0.950 . S
C3178 C3179 1.386 . S
C3178 C3180 1.391 . S
C3179 C3178 1.386 . S
C3179 C3183 1.393 . S
C3180 H3169 0.950 . S
C3180 C3178 1.391 . S
C3180 C3181 1.400 . S
C3181 C3175 1.491 . S
C3181 C3180 1.400 . S
C3181 C3182 1.398 . S
C3182 H3170 0.950 . S
C3182 C3181 1.398 . S
C3182 C3183 1.391 . S
C3183 H3171 0.950 . S
C3183 C3179 1.393 . S
C3183 C3182 1.391 . S
H3184 C3192 0.950 . S
H3185 C3197 0.950 . S
H3186 C3194 0.950 . S
H3187 C3196 0.950 . S
H3188 C3198 0.950 . S
H3189 C3200 0.950 . S
H3190 C3202 0.950 . S
H3191 C3203 0.950 . S
C3192 H3184 0.950 . S
C3192 C3193 1.386 . S
C3192 C3194 1.391 . S
C3193 C3192 1.386 . S
C3193 C3197 1.393 . S
C3194 H3186 0.950 . S
C3194 C3192 1.391 . S
C3194 C3195 1.400 . S
C3195 C3194 1.400 . S
C3195 C3196 1.398 . S
C3195 C3201 1.491 . S
C3196 H3187 0.950 . S
C3196 C3195 1.398 . S
C3196 C3197 1.391 . S
C3197 H3185 0.950 . S
C3197 C3193 1.393 . S
C3197 C3196 1.391 . S
C3198 H3188 0.950 . S
C3198 C3199 1.386 . S
C3198 C3200 1.391 . S
C3199 C3198 1.386 . S
C3199 C3203 1.393 . S
C3200 H3189 0.950 . S
C3200 C3198 1.391 . S
C3200 C3201 1.400 . S
C3201 C3195 1.491 . S
C3201 C3200 1.400 . S
C3201 C3202 1.398 . S
C3202 H3190 0.950 . S
C3202 C3201 1.398 . S
C3202 C3203 1.391 . S
C3203 H3191 0.950 . S
C3203 C3199 1.393 . S
C3203 C3202 1.391 . S
H3204 C3212 0.950 . S
H3205 C3217 0.950 . S
H3206 C3214 0.950 . S
H3207 C3216 0.950 . S
H3208 C3218 0.950 . S
H3209 C3220 0.950 . S
H3210 C3222 0.950 . S
H3211 C3223 0.950 . S
C3212 H3204 0.950 . S
C3212 C3213 1.386 . S
C3212 C3214 1.391 . S
C3213 C3212 1.386 . S
C3213 C3217 1.393 . S
C3214 H3206 0.950 . S
C3214 C3212 1.391 . S
C3214 C3215 1.400 . S
C3215 C3214 1.400 . S
C3215 C3216 1.398 . S
C3215 C3221 1.491 . S
C3216 H3207 0.950 . S
C3216 C3215 1.398 . S
C3216 C3217 1.391 . S
C3217 H3205 0.950 . S
C3217 C3213 1.393 . S
C3217 C3216 1.391 . S
C3218 H3208 0.950 . S
C3218 C3219 1.386 . S
C3218 C3220 1.391 . S
C3219 C3218 1.386 . S
C3219 C3223 1.393 . S
C3220 H3209 0.950 . S
C3220 C3218 1.391 . S
C3220 C3221 1.400 . S
C3221 C3215 1.491 . S
C3221 C3220 1.400 . S
C3221 C3222 1.398 . S
C3222 H3210 0.950 . S
C3222 C3221 1.398 . S
C3222 C3223 1.391 . S
C3223 H3211 0.950 . S
C3223 C3219 1.393 . S
C3223 C3222 1.391 . S
H3224 C3232 0.950 . S
H3225 C3237 0.950 . S
H3226 C3234 0.950 . S
H3227 C3236 0.950 . S
H3228 C3238 0.950 . S
H3229 C3240 0.950 . S
H3230 C3242 0.950 . S
H3231 C3243 0.950 . S
C3232 H3224 0.950 . S
C3232 C3233 1.386 . S
C3232 C3234 1.391 . S
C3233 C3232 1.386 . S
C3233 C3237 1.393 . S
C3234 H3226 0.950 . S
C3234 C3232 1.391 . S
C3234 C3235 1.400 . S
C3235 C3234 1.400 . S
C3235 C3236 1.398 . S
C3235 C3241 1.491 . S
C3236 H3227 0.950 . S
C3236 C3235 1.398 . S
C3236 C3237 1.391 . S
C3237 H3225 0.950 . S
C3237 C3233 1.393 . S
C3237 C3236 1.391 . S
C3238 H3228 0.950 . S
C3238 C3239 1.386 . S
C3238 C3240 1.391 . S
C3239 C3238 1.386 . S
C3239 C3243 1.393 . S
C3240 H3229 0.950 . S
C3240 C3238 1.391 . S
C3240 C3241 1.400 . S
C3241 C3235 1.491 . S
C3241 C3240 1.400 . S
C3241 C3242 1.398 . S
C3242 H3230 0.950 . S
C3242 C3241 1.398 . S
C3242 C3243 1.391 . S
C3243 H3231 0.950 . S
C3243 C3239 1.393 . S
C3243 C3242 1.391 . S
H3244 C3252 0.950 . S
H3245 C3257 0.950 . S
H3246 C3254 0.950 . S
H3247 C3256 0.950 . S
H3248 C3258 0.950 . S
H3249 C3260 0.950 . S
H3250 C3262 0.950 . S
H3251 C3263 0.950 . S
C3252 H3244 0.950 . S
C3252 C3253 1.386 . S
C3252 C3254 1.391 . S
C3253 C3252 1.386 . S
C3253 C3257 1.393 . S
C3254 H3246 0.950 . S
C3254 C3252 1.391 . S
C3254 C3255 1.400 . S
C3255 C3254 1.400 . S
C3255 C3256 1.398 . S
C3255 C3261 1.491 . S
C3256 H3247 0.950 . S
C3256 C3255 1.398 . S
C3256 C3257 1.391 . S
C3257 H3245 0.950 . S
C3257 C3253 1.393 . S
C3257 C3256 1.391 . S
C3258 H3248 0.950 . S
C3258 C3259 1.386 . S
C3258 C3260 1.391 . S
C3259 C3258 1.386 . S
C3259 C3263 1.393 . S
C3260 H3249 0.950 . S
C3260 C3258 1.391 . S
C3260 C3261 1.400 . S
C3261 C3255 1.491 . S
C3261 C3260 1.400 . S
C3261 C3262 1.398 . S
C3262 H3250 0.950 . S
C3262 C3261 1.398 . S
C3262 C3263 1.391 . S
C3263 H3251 0.950 . S
C3263 C3259 1.393 . S
C3263 C3262 1.391 . S
H3264 C3272 0.950 . S
H3265 C3277 0.950 . S
H3266 C3274 0.950 . S
H3267 C3276 0.950 . S
H3268 C3278 0.950 . S
H3269 C3280 0.904 1_455 S
H3270 C3282 0.950 1_455 S
H3271 C3283 0.950 . S
C3272 H3264 0.950 . S
C3272 C3273 1.386 . S
C3272 C3274 1.391 . S
C3273 C3272 1.386 . S
C3273 C3277 1.393 . S
C3274 H3266 0.950 . S
C3274 C3272 1.391 . S
C3274 C3275 1.400 . S
C3275 C3274 1.400 . S
C3275 C3276 1.398 . S
C3275 C3281 1.491 . S
C3276 H3267 0.950 . S
C3276 C3275 1.398 . S
C3276 C3277 1.391 . S
C3277 H3265 0.950 . S
C3277 C3273 1.393 . S
C3277 C3276 1.391 . S
C3278 H3268 0.950 . S
C3278 C3279 1.386 . S
C3278 C3280 1.487 . S
C3279 C3278 1.386 . S
C3279 C3283 1.393 . S
C3280 H3269 0.904 1_655 S
C3280 C3278 1.487 . S
C3280 C3281 1.355 1_655 S
C3281 C3275 1.491 . S
C3281 C3280 1.355 1_455 S
C3281 C3282 1.398 1_455 S
C3282 H3270 0.950 1_655 S
C3282 C3281 1.398 1_655 S
C3282 C3283 1.391 . S
C3283 H3271 0.950 . S
C3283 C3279 1.393 . S
C3283 C3282 1.391 . S
H3284 C3292 0.950 . S
H3285 C3297 0.950 . S
H3286 C3294 0.950 . S
H3287 C3296 0.950 . S
H3288 C3298 0.950 . S
H3289 C3300 0.950 1_545 S
H3290 C3302 0.948 1_545 S
H3291 C3303 0.950 . S
C3292 H3284 0.950 . S
C3292 C3293 1.386 . S
C3292 C3294 1.391 . S
C3293 C3292 1.386 . S
C3293 C3297 1.393 . S
C3294 H3286 0.950 . S
C3294 C3292 1.391 . S
C3294 C3295 1.400 . S
C3295 C3294 1.400 . S
C3295 C3296 1.398 . S
C3295 C3301 1.491 . S
C3296 H3287 0.950 . S
C3296 C3295 1.398 . S
C3296 C3297 1.391 . S
C3297 H3285 0.950 . S
C3297 C3293 1.393 . S
C3297 C3296 1.391 . S
C3298 H3288 0.950 . S
C3298 C3299 1.386 . S
C3298 C3300 1.391 . S
C3299 C3298 1.386 . S
C3299 C3303 1.393 . S
C3300 H3289 0.950 1_565 S
C3300 C3298 1.391 . S
C3300 C3301 1.400 1_565 S
C3301 C3295 1.491 . S
C3301 C3300 1.400 1_545 S
C3301 C3302 1.396 1_545 S
C3302 H3290 0.948 1_565 S
C3302 C3301 1.396 1_565 S
C3302 C3303 1.395 . S
C3303 H3291 0.950 . S
C3303 C3299 1.393 . S
C3303 C3302 1.395 . S
H3304 C3312 0.950 . S
H3305 C3317 0.950 . S
H3306 C3314 0.950 . S
H3307 C3316 0.950 . S
H3308 C3318 0.950 . S
H3309 C3320 0.950 1_655 S
H3310 C3322 0.950 1_655 S
H3311 C3323 0.950 . S
C3312 H3304 0.950 . S
C3312 C3313 1.386 . S
C3312 C3314 1.391 . S
C3313 C3312 1.386 . S
C3313 C3317 1.393 . S
C3314 H3306 0.950 . S
C3314 C3312 1.391 . S
C3314 C3315 1.400 . S
C3315 C3314 1.400 . S
C3315 C3316 1.398 . S
C3315 C3321 1.491 . S
C3316 H3307 0.950 . S
C3316 C3315 1.398 . S
C3316 C3317 1.391 . S
C3317 H3305 0.950 . S
C3317 C3313 1.393 . S
C3317 C3316 1.391 . S
C3318 H3308 0.950 . S
C3318 C3319 1.386 . S
C3318 C3320 1.391 . S
C3319 C3318 1.386 . S
C3319 C3323 1.393 . S
C3320 H3309 0.950 1_455 S
C3320 C3318 1.391 . S
C3320 C3321 1.400 1_455 S
C3321 C3315 1.491 . S
C3321 C3320 1.400 1_655 S
C3321 C3322 1.398 1_655 S
C3322 H3310 0.950 1_455 S
C3322 C3321 1.398 1_455 S
C3322 C3323 1.391 . S
C3323 H3311 0.950 . S
C3323 C3319 1.393 . S
C3323 C3322 1.391 . S
H3324 C3332 0.950 . S
H3325 C3337 0.950 . S
H3326 C3334 0.950 . S
H3327 C3336 0.950 . S
H3328 C3338 0.950 . S
H3329 C3340 0.948 1_565 S
H3330 C3342 0.950 1_565 S
H3331 C3343 0.950 . S
C3332 H3324 0.950 . S
C3332 C3333 1.386 . S
C3332 C3334 1.391 . S
C3333 C3332 1.386 . S
C3333 C3337 1.393 . S
C3334 H3326 0.950 . S
C3334 C3332 1.391 . S
C3334 C3335 1.400 . S
C3335 C3334 1.400 . S
C3335 C3336 1.398 . S
C3335 C3341 1.491 . S
C3336 H3327 0.950 . S
C3336 C3335 1.398 . S
C3336 C3337 1.391 . S
C3337 H3325 0.950 . S
C3337 C3333 1.393 . S
C3337 C3336 1.391 . S
C3338 H3328 0.950 . S
C3338 C3339 1.386 . S
C3338 C3340 1.395 . S
C3339 C3338 1.386 . S
C3339 C3343 1.393 . S
C3340 H3329 0.948 1_545 S
C3340 C3338 1.395 . S
C3340 C3341 1.399 1_545 S
C3341 C3335 1.491 . S
C3341 C3340 1.399 1_565 S
C3341 C3342 1.398 1_565 S
C3342 H3330 0.950 1_545 S
C3342 C3341 1.398 1_545 S
C3342 C3343 1.391 . S
C3343 H3331 0.950 . S
C3343 C3339 1.393 . S
C3343 C3342 1.391 . S
H3344 C3352 0.950 . S
H3345 C3357 0.950 . S
H3346 C3354 0.950 1_455 S
H3347 C3356 0.950 1_455 S
H3348 C3358 0.950 . S
H3349 C3360 0.950 . S
H3350 C3362 0.950 . S
H3351 C3363 0.950 . S
C3352 H3344 0.950 . S
C3352 C3353 1.386 . S
C3352 C3354 1.391 . S
C3353 C3352 1.386 . S
C3353 C3357 1.393 . S
C3354 H3346 0.950 1_655 S
C3354 C3352 1.391 . S
C3354 C3355 1.400 1_655 S
C3355 C3354 1.400 1_455 S
C3355 C3356 1.398 1_455 S
C3355 C3361 1.491 . S
C3356 H3347 0.950 1_655 S
C3356 C3355 1.398 1_655 S
C3356 C3357 1.391 . S
C3357 H3345 0.950 . S
C3357 C3353 1.393 . S
C3357 C3356 1.391 . S
C3358 H3348 0.950 . S
C3358 C3359 1.386 . S
C3358 C3360 1.391 . S
C3359 C3358 1.386 . S
C3359 C3363 1.393 . S
C3360 H3349 0.950 . S
C3360 C3358 1.391 . S
C3360 C3361 1.400 . S
C3361 C3355 1.491 . S
C3361 C3360 1.400 . S
C3361 C3362 1.398 . S
C3362 H3350 0.950 . S
C3362 C3361 1.398 . S
C3362 C3363 1.391 . S
C3363 H3351 0.950 . S
C3363 C3359 1.393 . S
C3363 C3362 1.391 . S
H3364 C3372 0.950 . S
H3365 C3377 0.950 . S
H3366 C3374 0.950 . S
H3367 C3376 0.950 . S
H3368 C3378 0.950 . S
H3369 C3380 0.950 1_545 S
H3370 C3382 0.948 1_545 S
H3371 C3383 0.950 . S
C3372 H3364 0.950 . S
C3372 C3373 1.386 . S
C3372 C3374 1.391 . S
C3373 C3372 1.386 . S
C3373 C3377 1.393 . S
C3374 H3366 0.950 . S
C3374 C3372 1.391 . S
C3374 C3375 1.400 . S
C3375 C3374 1.400 . S
C3375 C3376 1.398 . S
C3375 C3381 1.491 . S
C3376 H3367 0.950 . S
C3376 C3375 1.398 . S
C3376 C3377 1.391 . S
C3377 H3365 0.950 . S
C3377 C3373 1.393 . S
C3377 C3376 1.391 . S
C3378 H3368 0.950 . S
C3378 C3379 1.386 . S
C3378 C3380 1.391 . S
C3379 C3378 1.386 . S
C3379 C3383 1.393 . S
C3380 H3369 0.950 1_565 S
C3380 C3378 1.391 . S
C3380 C3381 1.400 1_565 S
C3381 C3375 1.491 . S
C3381 C3380 1.400 1_545 S
C3381 C3382 1.397 1_545 S
C3382 H3370 0.948 1_565 S
C3382 C3381 1.397 1_565 S
C3382 C3383 1.394 . S
C3383 H3371 0.950 . S
C3383 C3379 1.393 . S
C3383 C3382 1.394 . S
H3384 C3392 0.950 . S
H3385 C3397 0.950 . S
H3386 C3394 0.950 1_655 S
H3387 C3396 0.907 1_655 S
H3388 C3398 0.950 . S
H3389 C3400 0.950 . S
H3390 C3402 0.950 . S
H3391 C3403 0.950 . S
C3392 H3384 0.950 . S
C3392 C3393 1.386 . S
C3392 C3394 1.391 . S
C3393 C3392 1.386 . S
C3393 C3397 1.393 . S
C3394 H3386 0.950 1_455 S
C3394 C3392 1.391 . S
C3394 C3395 1.400 1_455 S
C3395 C3394 1.400 1_655 S
C3395 C3396 1.357 1_655 S
C3395 C3401 1.491 . S
C3396 H3387 0.907 1_455 S
C3396 C3395 1.357 1_455 S
C3396 C3397 1.479 . S
C3397 H3385 0.950 . S
C3397 C3393 1.393 . S
C3397 C3396 1.479 . S
C3398 H3388 0.950 . S
C3398 C3399 1.386 . S
C3398 C3400 1.391 . S
C3399 C3398 1.386 . S
C3399 C3403 1.393 . S
C3400 H3389 0.950 . S
C3400 C3398 1.391 . S
C3400 C3401 1.400 . S
C3401 C3395 1.491 . S
C3401 C3400 1.400 . S
C3401 C3402 1.398 . S
C3402 H3390 0.950 . S
C3402 C3401 1.398 . S
C3402 C3403 1.391 . S
C3403 H3391 0.950 . S
C3403 C3399 1.393 . S
C3403 C3402 1.391 . S
H3404 C3412 0.950 . S
H3405 C3417 0.950 . S
H3406 C3414 0.950 1_565 S
H3407 C3416 0.907 1_565 S
H3408 C3418 0.950 . S
H3409 C3420 0.950 . S
H3410 C3422 0.950 . S
H3411 C3423 0.950 . S
C3412 H3404 0.950 . S
C3412 C3413 1.386 . S
C3412 C3414 1.391 . S
C3413 C3412 1.386 . S
C3413 C3417 1.393 . S
C3414 H3406 0.950 1_545 S
C3414 C3412 1.391 . S
C3414 C3415 1.400 1_545 S
C3415 C3414 1.400 1_565 S
C3415 C3416 1.357 1_565 S
C3415 C3421 1.491 . S
C3416 H3407 0.907 1_545 S
C3416 C3415 1.357 1_545 S
C3416 C3417 1.479 . S
C3417 H3405 0.950 . S
C3417 C3413 1.393 . S
C3417 C3416 1.479 . S
C3418 H3408 0.950 . S
C3418 C3419 1.386 . S
C3418 C3420 1.391 . S
C3419 C3418 1.386 . S
C3419 C3423 1.393 . S
C3420 H3409 0.950 . S
C3420 C3418 1.391 . S
C3420 C3421 1.400 . S
C3421 C3415 1.491 . S
C3421 C3420 1.400 . S
C3421 C3422 1.398 . S
C3422 H3410 0.950 . S
C3422 C3421 1.398 . S
C3422 C3423 1.391 . S
C3423 H3411 0.950 . S
C3423 C3419 1.393 . S
C3423 C3422 1.391 . S
H3424 C3432 0.950 . S
H3425 C3437 0.950 . S
H3426 C3434 0.950 . S
H3427 C3436 0.950 . S
H3428 C3438 0.950 . S
H3429 C3440 0.950 1_545 S
H3430 C3442 0.939 1_545 S
H3431 C3443 0.950 . S
C3432 H3424 0.950 . S
C3432 C3433 1.386 . S
C3432 C3434 1.391 . S
C3433 C3432 1.386 . S
C3433 C3437 1.393 . S
C3434 H3426 0.950 . S
C3434 C3432 1.391 . S
C3434 C3435 1.400 . S
C3435 C3434 1.400 . S
C3435 C3436 1.398 . S
C3435 C3441 1.491 . S
C3436 H3427 0.950 . S
C3436 C3435 1.398 . S
C3436 C3437 1.391 . S
C3437 H3425 0.950 . S
C3437 C3433 1.393 . S
C3437 C3436 1.391 . S
C3438 H3428 0.950 . S
C3438 C3439 1.386 . S
C3438 C3440 1.391 . S
C3439 C3438 1.386 . S
C3439 C3443 1.393 . S
C3440 H3429 0.950 1_565 S
C3440 C3438 1.391 . S
C3440 C3441 1.400 1_565 S
C3441 C3435 1.491 . S
C3441 C3440 1.400 1_545 S
C3441 C3442 1.390 1_545 S
C3442 H3430 0.939 1_565 S
C3442 C3441 1.390 1_565 S
C3442 C3443 1.410 . S
C3443 H3431 0.950 . S
C3443 C3439 1.393 . S
C3443 C3442 1.410 . S
H3444 C3452 0.950 . S
H3445 C3457 0.950 . S
H3446 C3454 0.951 1_655 S
H3447 C3456 0.950 1_655 S
H3448 C3458 0.950 . S
H3449 C3460 0.950 . S
H3450 C3462 0.950 . S
H3451 C3463 0.950 . S
C3452 H3444 0.950 . S
C3452 C3453 1.386 . S
C3452 C3454 1.389 . S
C3453 C3452 1.386 . S
C3453 C3457 1.393 . S
C3454 H3446 0.951 1_455 S
C3454 C3452 1.389 . S
C3454 C3455 1.401 1_455 S
C3455 C3454 1.401 1_655 S
C3455 C3456 1.398 1_655 S
C3455 C3461 1.491 . S
C3456 H3447 0.950 1_455 S
C3456 C3455 1.398 1_455 S
C3456 C3457 1.391 . S
C3457 H3445 0.950 . S
C3457 C3453 1.393 . S
C3457 C3456 1.391 . S
C3458 H3448 0.950 . S
C3458 C3459 1.386 . S
C3458 C3460 1.391 . S
C3459 C3458 1.386 . S
C3459 C3463 1.393 . S
C3460 H3449 0.950 . S
C3460 C3458 1.391 . S
C3460 C3461 1.400 . S
C3461 C3455 1.491 . S
C3461 C3460 1.400 . S
C3461 C3462 1.398 . S
C3462 H3450 0.950 . S
C3462 C3461 1.398 . S
C3462 C3463 1.391 . S
C3463 H3451 0.950 . S
C3463 C3459 1.393 . S
C3463 C3462 1.391 . S
H3464 C3472 0.950 . S
H3465 C3477 0.950 . S
H3466 C3474 0.950 . S
H3467 C3476 0.950 . S
H3468 C3478 0.950 . S
H3469 C3480 0.950 1_565 S
H3470 C3482 0.955 1_565 S
H3471 C3483 0.950 . S
C3472 H3464 0.950 . S
C3472 C3473 1.386 . S
C3472 C3474 1.391 . S
C3473 C3472 1.386 . S
C3473 C3477 1.393 . S
C3474 H3466 0.950 . S
C3474 C3472 1.391 . S
C3474 C3475 1.400 . S
C3475 C3474 1.400 . S
C3475 C3476 1.398 . S
C3475 C3481 1.491 . S
C3476 H3467 0.950 . S
C3476 C3475 1.398 . S
C3476 C3477 1.391 . S
C3477 H3465 0.950 . S
C3477 C3473 1.393 . S
C3477 C3476 1.391 . S
C3478 H3468 0.950 . S
C3478 C3479 1.386 . S
C3478 C3480 1.391 . S
C3479 C3478 1.386 . S
C3479 C3483 1.393 . S
C3480 H3469 0.950 1_545 S
C3480 C3478 1.391 . S
C3480 C3481 1.400 1_545 S
C3481 C3475 1.491 . S
C3481 C3480 1.400 1_565 S
C3481 C3482 1.402 1_565 S
C3482 H3470 0.955 1_545 S
C3482 C3481 1.402 1_545 S
C3482 C3483 1.381 . S
C3483 H3471 0.950 . S
C3483 C3479 1.393 . S
C3483 C3482 1.381 . S
H3484 C3492 0.950 . S
H3485 C3497 0.950 . S
H3486 C3494 0.950 . S
H3487 C3496 0.950 . S
H3488 C3498 0.950 . S
H3489 C3500 0.950 1_455 S
H3490 C3502 0.950 1_455 S
H3491 C3503 0.950 . S
C3492 H3484 0.950 . S
C3492 C3493 1.386 . S
C3492 C3494 1.391 . S
C3493 C3492 1.386 . S
C3493 C3497 1.393 . S
C3494 H3486 0.950 . S
C3494 C3492 1.391 . S
C3494 C3495 1.400 . S
C3495 C3494 1.400 . S
C3495 C3496 1.398 . S
C3495 C3501 1.491 . S
C3496 H3487 0.950 . S
C3496 C3495 1.398 . S
C3496 C3497 1.391 . S
C3497 H3485 0.950 . S
C3497 C3493 1.393 . S
C3497 C3496 1.391 . S
C3498 H3488 0.950 . S
C3498 C3499 1.386 . S
C3498 C3500 1.391 . S
C3499 C3498 1.386 . S
C3499 C3503 1.393 . S
C3500 H3489 0.950 1_655 S
C3500 C3498 1.391 . S
C3500 C3501 1.400 1_655 S
C3501 C3495 1.491 . S
C3501 C3500 1.400 1_455 S
C3501 C3502 1.398 1_455 S
C3502 H3490 0.950 1_655 S
C3502 C3501 1.398 1_655 S
C3502 C3503 1.391 . S
C3503 H3491 0.950 . S
C3503 C3499 1.393 . S
C3503 C3502 1.391 . S
H3504 C3512 0.950 . S
H3505 C3517 0.950 . S
H3506 C3514 0.950 . S
H3507 C3516 0.950 . S
H3508 C3518 0.950 . S
H3509 C3520 0.936 1_565 S
H3510 C3522 0.950 1_565 S
H3511 C3523 0.950 . S
C3512 H3504 0.950 . S
C3512 C3513 1.386 . S
C3512 C3514 1.391 . S
C3513 C3512 1.386 . S
C3513 C3517 1.393 . S
C3514 H3506 0.950 . S
C3514 C3512 1.391 . S
C3514 C3515 1.400 . S
C3515 C3514 1.400 . S
C3515 C3516 1.398 . S
C3515 C3521 1.491 . S
C3516 H3507 0.950 . S
C3516 C3515 1.398 . S
C3516 C3517 1.391 . S
C3517 H3505 0.950 . S
C3517 C3513 1.393 . S
C3517 C3516 1.391 . S
C3518 H3508 0.950 . S
C3518 C3519 1.386 . S
C3518 C3520 1.416 . S
C3519 C3518 1.386 . S
C3519 C3523 1.393 . S
C3520 H3509 0.936 1_545 S
C3520 C3518 1.416 . S
C3520 C3521 1.389 1_545 S
C3521 C3515 1.491 . S
C3521 C3520 1.389 1_565 S
C3521 C3522 1.398 1_565 S
C3522 H3510 0.950 1_545 S
C3522 C3521 1.398 1_545 S
C3522 C3523 1.391 . S
C3523 H3511 0.950 . S
C3523 C3519 1.393 . S
C3523 C3522 1.391 . S
H3524 C3532 0.950 . S
H3525 C3537 0.950 . S
H3526 C3534 0.950 . S
H3527 C3536 0.950 . S
H3528 C3538 0.950 . S
H3529 C3540 0.950 1_455 S
H3530 C3542 0.955 1_455 S
H3531 C3543 0.950 . S
C3532 H3524 0.950 . S
C3532 C3533 1.386 . S
C3532 C3534 1.391 . S
C3533 C3532 1.386 . S
C3533 C3537 1.393 . S
C3534 H3526 0.950 . S
C3534 C3532 1.391 . S
C3534 C3535 1.400 . S
C3535 C3534 1.400 . S
C3535 C3536 1.398 . S
C3535 C3541 1.491 . S
C3536 H3527 0.950 . S
C3536 C3535 1.398 . S
C3536 C3537 1.391 . S
C3537 H3525 0.950 . S
C3537 C3533 1.393 . S
C3537 C3536 1.391 . S
C3538 H3528 0.950 . S
C3538 C3539 1.386 . S
C3538 C3540 1.391 . S
C3539 C3538 1.386 . S
C3539 C3543 1.393 . S
C3540 H3529 0.950 1_655 S
C3540 C3538 1.391 . S
C3540 C3541 1.400 1_655 S
C3541 C3535 1.491 . S
C3541 C3540 1.400 1_455 S
C3541 C3542 1.402 1_455 S
C3542 H3530 0.955 1_655 S
C3542 C3541 1.402 1_655 S
C3542 C3543 1.382 . S
C3543 H3531 0.950 . S
C3543 C3539 1.393 . S
C3543 C3542 1.382 . S
H3544 C3552 0.950 . S
H3545 C3557 0.950 . S
H3546 C3554 0.950 . S
H3547 C3556 0.950 . S
H3548 C3558 0.950 . S
H3549 C3560 0.950 1_545 S
H3550 C3562 0.952 1_545 S
H3551 C3563 0.950 . S
C3552 H3544 0.950 . S
C3552 C3553 1.386 . S
C3552 C3554 1.391 . S
C3553 C3552 1.386 . S
C3553 C3557 1.393 . S
C3554 H3546 0.950 . S
C3554 C3552 1.391 . S
C3554 C3555 1.400 . S
C3555 C3554 1.400 . S
C3555 C3556 1.398 . S
C3555 C3561 1.491 . S
C3556 H3547 0.950 . S
C3556 C3555 1.398 . S
C3556 C3557 1.391 . S
C3557 H3545 0.950 . S
C3557 C3553 1.393 . S
C3557 C3556 1.391 . S
C3558 H3548 0.950 . S
C3558 C3559 1.386 . S
C3558 C3560 1.391 . S
C3559 C3558 1.386 . S
C3559 C3563 1.393 . S
C3560 H3549 0.950 1_565 S
C3560 C3558 1.391 . S
C3560 C3561 1.400 1_565 S
C3561 C3555 1.491 . S
C3561 C3560 1.400 1_545 S
C3561 C3562 1.400 1_545 S
C3562 H3550 0.952 1_565 S
C3562 C3561 1.400 1_565 S
C3562 C3563 1.387 . S
C3563 H3551 0.950 . S
C3563 C3559 1.393 . S
C3563 C3562 1.387 . S
H3564 C3572 0.950 . S
H3565 C3577 0.950 . S
H3566 C3574 0.911 1_655 S
H3567 C3576 0.950 1_655 S
H3568 C3578 0.950 . S
H3569 C3580 0.950 . S
H3570 C3582 0.950 . S
H3571 C3583 0.950 . S
C3572 H3564 0.950 . S
C3572 C3573 1.386 . S
C3572 C3574 1.470 . S
C3573 C3572 1.386 . S
C3573 C3577 1.393 . S
C3574 H3566 0.911 1_455 S
C3574 C3572 1.470 . S
C3574 C3575 1.364 1_455 S
C3575 C3574 1.364 1_655 S
C3575 C3576 1.398 1_655 S
C3575 C3581 1.491 . S
C3576 H3567 0.950 1_455 S
C3576 C3575 1.398 1_455 S
C3576 C3577 1.391 . S
C3577 H3565 0.950 . S
C3577 C3573 1.393 . S
C3577 C3576 1.391 . S
C3578 H3568 0.950 . S
C3578 C3579 1.386 . S
C3578 C3580 1.391 . S
C3579 C3578 1.386 . S
C3579 C3583 1.393 . S
C3580 H3569 0.950 . S
C3580 C3578 1.391 . S
C3580 C3581 1.400 . S
C3581 C3575 1.491 . S
C3581 C3580 1.400 . S
C3581 C3582 1.398 . S
C3582 H3570 0.950 . S
C3582 C3581 1.398 . S
C3582 C3583 1.391 . S
C3583 H3571 0.950 . S
C3583 C3579 1.393 . S
C3583 C3582 1.391 . S
H3584 C3592 0.950 . S
H3585 C3597 0.950 . S
H3586 C3594 0.950 . S
H3587 C3596 0.950 . S
H3588 C3598 0.950 . S
H3589 C3600 0.911 1_554 S
H3590 C3602 0.950 1_554 S
H3591 C3603 0.950 . S
C3592 H3584 0.950 . S
C3592 C3593 1.386 . S
C3592 C3594 1.391 . S
C3593 C3592 1.386 . S
C3593 C3597 1.393 . S
C3594 H3586 0.950 . S
C3594 C3592 1.391 . S
C3594 C3595 1.400 . S
C3595 C3594 1.400 . S
C3595 C3596 1.398 . S
C3595 C3601 1.491 . S
C3596 H3587 0.950 . S
C3596 C3595 1.398 . S
C3596 C3597 1.391 . S
C3597 H3585 0.950 . S
C3597 C3593 1.393 . S
C3597 C3596 1.391 . S
C3598 H3588 0.950 . S
C3598 C3599 1.386 . S
C3598 C3600 1.470 . S
C3599 C3598 1.386 . S
C3599 C3603 1.393 . S
C3600 H3589 0.911 1_556 S
C3600 C3598 1.470 . S
C3600 C3601 1.363 1_556 S
C3601 C3595 1.491 . S
C3601 C3600 1.363 1_554 S
C3601 C3602 1.398 1_554 S
C3602 H3590 0.950 1_556 S
C3602 C3601 1.398 1_556 S
C3602 C3603 1.391 . S
C3603 H3591 0.950 . S
C3603 C3599 1.393 . S
C3603 C3602 1.391 . S
H3604 C3612 0.950 . S
H3605 C3617 0.950 . S
H3606 C3614 0.950 . S
H3607 C3616 0.950 . S
H3608 C3618 0.950 . S
H3609 C3620 0.927 1_556 S
H3610 C3622 0.950 1_556 S
H3611 C3623 0.950 . S
C3612 H3604 0.950 . S
C3612 C3613 1.386 . S
C3612 C3614 1.391 . S
C3613 C3612 1.386 . S
C3613 C3617 1.393 . S
C3614 H3606 0.950 . S
C3614 C3612 1.391 . S
C3614 C3615 1.400 . S
C3615 C3614 1.400 . S
C3615 C3616 1.398 . S
C3615 C3621 1.491 . S
C3616 H3607 0.950 . S
C3616 C3615 1.398 . S
C3616 C3617 1.391 . S
C3617 H3605 0.950 . S
C3617 C3613 1.393 . S
C3617 C3616 1.391 . S
C3618 H3608 0.950 . S
C3618 C3619 1.386 . S
C3618 C3620 1.434 . S
C3619 C3618 1.386 . S
C3619 C3623 1.393 . S
C3620 H3609 0.927 1_554 S
C3620 C3618 1.434 . S
C3620 C3621 1.381 1_554 S
C3621 C3615 1.491 . S
C3621 C3620 1.381 1_556 S
C3621 C3622 1.398 1_556 S
C3622 H3610 0.950 1_554 S
C3622 C3621 1.398 1_554 S
C3622 C3623 1.391 . S
C3623 H3611 0.950 . S
C3623 C3619 1.393 . S
C3623 C3622 1.391 . S
H3624 C3632 0.950 . S
H3625 C3637 0.950 . S
H3626 C3634 0.944 1_556 S
H3627 C3636 0.950 1_556 S
H3628 C3638 0.950 . S
H3629 C3640 0.950 . S
H3630 C3642 0.950 . S
H3631 C3643 0.950 . S
C3632 H3624 0.950 . S
C3632 C3633 1.386 . S
C3632 C3634 1.402 . S
C3633 C3632 1.386 . S
C3633 C3637 1.393 . S
C3634 H3626 0.944 1_554 S
C3634 C3632 1.402 . S
C3634 C3635 1.396 1_554 S
C3635 C3634 1.396 1_556 S
C3635 C3636 1.398 1_556 S
C3635 C3641 1.491 . S
C3636 H3627 0.950 1_554 S
C3636 C3635 1.398 1_554 S
C3636 C3637 1.391 . S
C3637 H3625 0.950 . S
C3637 C3633 1.393 . S
C3637 C3636 1.391 . S
C3638 H3628 0.950 . S
C3638 C3639 1.386 . S
C3638 C3640 1.391 . S
C3639 C3638 1.386 . S
C3639 C3643 1.393 . S
C3640 H3629 0.950 . S
C3640 C3638 1.391 . S
C3640 C3641 1.400 . S
C3641 C3635 1.491 . S
C3641 C3640 1.400 . S
C3641 C3642 1.398 . S
C3642 H3630 0.950 . S
C3642 C3641 1.398 . S
C3642 C3643 1.391 . S
C3643 H3631 0.950 . S
C3643 C3639 1.393 . S
C3643 C3642 1.391 . S
H3644 C3652 0.950 . S
H3645 C3657 0.950 . S
H3646 C3654 0.950 . S
H3647 C3656 0.950 . S
H3648 C3658 0.950 . S
H3649 C3660 0.950 1_556 S
H3650 C3662 0.929 1_556 S
H3651 C3663 0.950 . S
C3652 H3644 0.950 . S
C3652 C3653 1.386 . S
C3652 C3654 1.391 . S
C3653 C3652 1.386 . S
C3653 C3657 1.393 . S
C3654 H3646 0.950 . S
C3654 C3652 1.391 . S
C3654 C3655 1.400 . S
C3655 C3654 1.400 . S
C3655 C3656 1.398 . S
C3655 C3661 1.491 . S
C3656 H3647 0.950 . S
C3656 C3655 1.398 . S
C3656 C3657 1.391 . S
C3657 H3645 0.950 . S
C3657 C3653 1.393 . S
C3657 C3656 1.391 . S
C3658 H3648 0.950 . S
C3658 C3659 1.386 . S
C3658 C3660 1.391 . S
C3659 C3658 1.386 . S
C3659 C3663 1.393 . S
C3660 H3649 0.950 1_554 S
C3660 C3658 1.391 . S
C3660 C3661 1.400 1_554 S
C3661 C3655 1.491 . S
C3661 C3660 1.400 1_556 S
C3661 C3662 1.381 1_556 S
C3662 H3650 0.929 1_554 S
C3662 C3661 1.381 1_554 S
C3662 C3663 1.430 . S
C3663 H3651 0.950 . S
C3663 C3659 1.393 . S
C3663 C3662 1.430 . S
H3664 C3672 0.950 . S
H3665 C3677 0.950 . S
H3666 C3674 0.950 1_556 S
H3667 C3676 0.955 1_556 S
H3668 C3678 0.950 . S
H3669 C3680 0.950 . S
H3670 C3682 0.950 . S
H3671 C3683 0.950 . S
C3672 H3664 0.950 . S
C3672 C3673 1.386 . S
C3672 C3674 1.391 . S
C3673 C3672 1.386 . S
C3673 C3677 1.393 . S
C3674 H3666 0.950 1_554 S
C3674 C3672 1.391 . S
C3674 C3675 1.400 1_554 S
C3675 C3674 1.400 1_556 S
C3675 C3676 1.402 1_556 S
C3675 C3681 1.491 . S
C3676 H3667 0.955 1_554 S
C3676 C3675 1.402 1_554 S
C3676 C3677 1.383 . S
C3677 H3665 0.950 . S
C3677 C3673 1.393 . S
C3677 C3676 1.383 . S
C3678 H3668 0.950 . S
C3678 C3679 1.386 . S
C3678 C3680 1.391 . S
C3679 C3678 1.386 . S
C3679 C3683 1.393 . S
C3680 H3669 0.950 . S
C3680 C3678 1.391 . S
C3680 C3681 1.400 . S
C3681 C3675 1.491 . S
C3681 C3680 1.400 . S
C3681 C3682 1.398 . S
C3682 H3670 0.950 . S
C3682 C3681 1.398 . S
C3682 C3683 1.391 . S
C3683 H3671 0.950 . S
C3683 C3679 1.393 . S
C3683 C3682 1.391 . S
H3684 C3692 0.950 . S
H3685 C3697 0.950 . S
H3686 C3694 0.950 . S
H3687 C3696 0.950 . S
H3688 C3698 0.950 . S
H3689 C3700 0.950 1_554 S
H3690 C3702 0.956 1_554 S
H3691 C3703 0.950 . S
C3692 H3684 0.950 . S
C3692 C3693 1.386 . S
C3692 C3694 1.391 . S
C3693 C3692 1.386 . S
C3693 C3697 1.393 . S
C3694 H3686 0.950 . S
C3694 C3692 1.391 . S
C3694 C3695 1.400 . S
C3695 C3694 1.400 . S
C3695 C3696 1.398 . S
C3695 C3701 1.491 . S
C3696 H3687 0.950 . S
C3696 C3695 1.398 . S
C3696 C3697 1.391 . S
C3697 H3685 0.950 . S
C3697 C3693 1.393 . S
C3697 C3696 1.391 . S
C3698 H3688 0.950 . S
C3698 C3699 1.386 . S
C3698 C3700 1.391 . S
C3699 C3698 1.386 . S
C3699 C3703 1.393 . S
C3700 H3689 0.950 1_556 S
C3700 C3698 1.391 . S
C3700 C3701 1.400 1_556 S
C3701 C3695 1.491 . S
C3701 C3700 1.400 1_554 S
C3701 C3702 1.402 1_554 S
C3702 H3690 0.956 1_556 S
C3702 C3701 1.402 1_556 S
C3702 C3703 1.381 . S
C3703 H3691 0.950 . S
C3703 C3699 1.393 . S
C3703 C3702 1.381 . S
H3704 C3712 0.950 . S
H3705 C3717 0.950 . S
H3706 C3714 0.927 1_554 S
H3707 C3716 0.950 1_554 S
H3708 C3718 0.950 . S
H3709 C3720 0.950 . S
H3710 C3722 0.950 . S
H3711 C3723 0.950 . S
C3712 H3704 0.950 . S
C3712 C3713 1.386 . S
C3712 C3714 1.434 . S
C3713 C3712 1.386 . S
C3713 C3717 1.393 . S
C3714 H3706 0.927 1_556 S
C3714 C3712 1.434 . S
C3714 C3715 1.381 1_556 S
C3715 C3714 1.381 1_554 S
C3715 C3716 1.398 1_554 S
C3715 C3721 1.491 . S
C3716 H3707 0.950 1_556 S
C3716 C3715 1.398 1_556 S
C3716 C3717 1.391 . S
C3717 H3705 0.950 . S
C3717 C3713 1.393 . S
C3717 C3716 1.391 . S
C3718 H3708 0.950 . S
C3718 C3719 1.386 . S
C3718 C3720 1.391 . S
C3719 C3718 1.386 . S
C3719 C3723 1.393 . S
C3720 H3709 0.950 . S
C3720 C3718 1.391 . S
C3720 C3721 1.400 . S
C3721 C3715 1.491 . S
C3721 C3720 1.400 . S
C3721 C3722 1.398 . S
C3722 H3710 0.950 . S
C3722 C3721 1.398 . S
C3722 C3723 1.391 . S
C3723 H3711 0.950 . S
C3723 C3719 1.393 . S
C3723 C3722 1.391 . S
H3724 C3732 0.950 . S
H3725 C3737 0.950 . S
H3726 C3734 0.950 1_554 S
H3727 C3736 0.955 1_554 S
H3728 C3738 0.950 . S
H3729 C3740 0.950 . S
H3730 C3742 0.950 . S
H3731 C3743 0.950 . S
C3732 H3724 0.950 . S
C3732 C3733 1.386 . S
C3732 C3734 1.391 . S
C3733 C3732 1.386 . S
C3733 C3737 1.393 . S
C3734 H3726 0.950 1_556 S
C3734 C3732 1.391 . S
C3734 C3735 1.400 1_556 S
C3735 C3734 1.400 1_554 S
C3735 C3736 1.402 1_554 S
C3735 C3741 1.491 . S
C3736 H3727 0.955 1_556 S
C3736 C3735 1.402 1_556 S
C3736 C3737 1.381 . S
C3737 H3725 0.950 . S
C3737 C3733 1.393 . S
C3737 C3736 1.381 . S
C3738 H3728 0.950 . S
C3738 C3739 1.386 . S
C3738 C3740 1.391 . S
C3739 C3738 1.386 . S
C3739 C3743 1.393 . S
C3740 H3729 0.950 . S
C3740 C3738 1.391 . S
C3740 C3741 1.400 . S
C3741 C3735 1.491 . S
C3741 C3740 1.400 . S
C3741 C3742 1.398 . S
C3742 H3730 0.950 . S
C3742 C3741 1.398 . S
C3742 C3743 1.391 . S
C3743 H3731 0.950 . S
C3743 C3739 1.393 . S
C3743 C3742 1.391 . S
H3744 C3752 0.950 . S
H3745 C3757 0.950 . S
H3746 C3754 0.950 . S
H3747 C3756 0.950 . S
H3748 C3758 0.950 . S
H3749 C3760 0.950 . S
H3750 C3762 0.950 . S
H3751 C3763 0.950 . S
C3752 H3744 0.950 . S
C3752 C3753 1.386 . S
C3752 C3754 1.391 . S
C3753 C3752 1.386 . S
C3753 C3757 1.393 . S
C3754 H3746 0.950 . S
C3754 C3752 1.391 . S
C3754 C3755 1.400 . S
C3755 C3754 1.400 . S
C3755 C3756 1.398 . S
C3755 C3761 1.491 . S
C3756 H3747 0.950 . S
C3756 C3755 1.398 . S
C3756 C3757 1.391 . S
C3757 H3745 0.950 . S
C3757 C3753 1.393 . S
C3757 C3756 1.391 . S
C3758 H3748 0.950 . S
C3758 C3759 1.386 . S
C3758 C3760 1.391 . S
C3759 C3758 1.386 . S
C3759 C3763 1.393 . S
C3760 H3749 0.950 . S
C3760 C3758 1.391 . S
C3760 C3761 1.400 . S
C3761 C3755 1.491 . S
C3761 C3760 1.400 . S
C3761 C3762 1.398 . S
C3762 H3750 0.950 . S
C3762 C3761 1.398 . S
C3762 C3763 1.391 . S
C3763 H3751 0.950 . S
C3763 C3759 1.393 . S
C3763 C3762 1.391 . S
H3764 C3772 0.950 . S
H3765 C3777 0.950 . S
H3766 C3774 0.950 . S
H3767 C3776 0.950 . S
H3768 C3778 0.950 . S
H3769 C3780 0.950 . S
H3770 C3782 0.950 . S
H3771 C3783 0.950 . S
C3772 H3764 0.950 . S
C3772 C3773 1.386 . S
C3772 C3774 1.391 . S
C3773 C3772 1.386 . S
C3773 C3777 1.393 . S
C3774 H3766 0.950 . S
C3774 C3772 1.391 . S
C3774 C3775 1.400 . S
C3775 C3774 1.400 . S
C3775 C3776 1.398 . S
C3775 C3781 1.491 . S
C3776 H3767 0.950 . S
C3776 C3775 1.398 . S
C3776 C3777 1.391 . S
C3777 H3765 0.950 . S
C3777 C3773 1.393 . S
C3777 C3776 1.391 . S
C3778 H3768 0.950 . S
C3778 C3779 1.386 . S
C3778 C3780 1.391 . S
C3779 C3778 1.386 . S
C3779 C3783 1.393 . S
C3780 H3769 0.950 . S
C3780 C3778 1.391 . S
C3780 C3781 1.400 . S
C3781 C3775 1.491 . S
C3781 C3780 1.400 . S
C3781 C3782 1.398 . S
C3782 H3770 0.950 . S
C3782 C3781 1.398 . S
C3782 C3783 1.391 . S
C3783 H3771 0.950 . S
C3783 C3779 1.393 . S
C3783 C3782 1.391 . S
H3784 C3792 0.950 . S
H3785 C3797 0.950 . S
H3786 C3794 0.950 . S
H3787 C3796 0.950 . S
H3788 C3798 0.950 . S
H3789 C3800 0.950 . S
H3790 C3802 0.950 . S
H3791 C3803 0.950 . S
C3792 H3784 0.950 . S
C3792 C3793 1.386 . S
C3792 C3794 1.391 . S
C3793 C3792 1.386 . S
C3793 C3797 1.393 . S
C3794 H3786 0.950 . S
C3794 C3792 1.391 . S
C3794 C3795 1.400 . S
C3795 C3794 1.400 . S
C3795 C3796 1.398 . S
C3795 C3801 1.491 . S
C3796 H3787 0.950 . S
C3796 C3795 1.398 . S
C3796 C3797 1.391 . S
C3797 H3785 0.950 . S
C3797 C3793 1.393 . S
C3797 C3796 1.391 . S
C3798 H3788 0.950 . S
C3798 C3799 1.386 . S
C3798 C3800 1.391 . S
C3799 C3798 1.386 . S
C3799 C3803 1.393 . S
C3800 H3789 0.950 . S
C3800 C3798 1.391 . S
C3800 C3801 1.400 . S
C3801 C3795 1.491 . S
C3801 C3800 1.400 . S
C3801 C3802 1.398 . S
C3802 H3790 0.950 . S
C3802 C3801 1.398 . S
C3802 C3803 1.391 . S
C3803 H3791 0.950 . S
C3803 C3799 1.393 . S
C3803 C3802 1.391 . S
H3804 C3812 0.950 . S
H3805 C3817 0.950 . S
H3806 C3814 0.950 . S
H3807 C3816 0.950 . S
H3808 C3818 0.950 . S
H3809 C3820 0.950 . S
H3810 C3822 0.950 . S
H3811 C3823 0.950 . S
C3812 H3804 0.950 . S
C3812 C3813 1.386 . S
C3812 C3814 1.391 . S
C3813 C3812 1.386 . S
C3813 C3817 1.393 . S
C3814 H3806 0.950 . S
C3814 C3812 1.391 . S
C3814 C3815 1.400 . S
C3815 C3814 1.400 . S
C3815 C3816 1.398 . S
C3815 C3821 1.491 . S
C3816 H3807 0.950 . S
C3816 C3815 1.398 . S
C3816 C3817 1.391 . S
C3817 H3805 0.950 . S
C3817 C3813 1.393 . S
C3817 C3816 1.391 . S
C3818 H3808 0.950 . S
C3818 C3819 1.386 . S
C3818 C3820 1.391 . S
C3819 C3818 1.386 . S
C3819 C3823 1.393 . S
C3820 H3809 0.950 . S
C3820 C3818 1.391 . S
C3820 C3821 1.400 . S
C3821 C3815 1.491 . S
C3821 C3820 1.400 . S
C3821 C3822 1.398 . S
C3822 H3810 0.950 . S
C3822 C3821 1.398 . S
C3822 C3823 1.391 . S
C3823 H3811 0.950 . S
C3823 C3819 1.393 . S
C3823 C3822 1.391 . S
H3824 C3832 0.950 . S
H3825 C3837 0.950 . S
H3826 C3834 0.950 . S
H3827 C3836 0.950 . S
H3828 C3838 0.950 . S
H3829 C3840 0.950 . S
H3830 C3842 0.950 . S
H3831 C3843 0.950 . S
C3832 H3824 0.950 . S
C3832 C3833 1.386 . S
C3832 C3834 1.391 . S
C3833 C3832 1.386 . S
C3833 C3837 1.393 . S
C3834 H3826 0.950 . S
C3834 C3832 1.391 . S
C3834 C3835 1.400 . S
C3835 C3834 1.400 . S
C3835 C3836 1.398 . S
C3835 C3841 1.491 . S
C3836 H3827 0.950 . S
C3836 C3835 1.398 . S
C3836 C3837 1.391 . S
C3837 H3825 0.950 . S
C3837 C3833 1.393 . S
C3837 C3836 1.391 . S
C3838 H3828 0.950 . S
C3838 C3839 1.386 . S
C3838 C3840 1.391 . S
C3839 C3838 1.386 . S
C3839 C3843 1.393 . S
C3840 H3829 0.950 . S
C3840 C3838 1.391 . S
C3840 C3841 1.400 . S
C3841 C3835 1.491 . S
C3841 C3840 1.400 . S
C3841 C3842 1.398 . S
C3842 H3830 0.950 . S
C3842 C3841 1.398 . S
C3842 C3843 1.391 . S
C3843 H3831 0.950 . S
C3843 C3839 1.393 . S
C3843 C3842 1.391 . S
H3844 C3852 0.950 . S
H3845 C3857 0.950 . S
H3846 C3854 0.950 . S
H3847 C3856 0.950 . S
H3848 C3858 0.950 . S
H3849 C3860 0.950 . S
H3850 C3862 0.950 . S
H3851 C3863 0.950 . S
C3852 H3844 0.950 . S
C3852 C3853 1.386 . S
C3852 C3854 1.391 . S
C3853 C3852 1.386 . S
C3853 C3857 1.393 . S
C3854 H3846 0.950 . S
C3854 C3852 1.391 . S
C3854 C3855 1.400 . S
C3855 C3854 1.400 . S
C3855 C3856 1.398 . S
C3855 C3861 1.491 . S
C3856 H3847 0.950 . S
C3856 C3855 1.398 . S
C3856 C3857 1.391 . S
C3857 H3845 0.950 . S
C3857 C3853 1.393 . S
C3857 C3856 1.391 . S
C3858 H3848 0.950 . S
C3858 C3859 1.386 . S
C3858 C3860 1.391 . S
C3859 C3858 1.386 . S
C3859 C3863 1.393 . S
C3860 H3849 0.950 . S
C3860 C3858 1.391 . S
C3860 C3861 1.400 . S
C3861 C3855 1.491 . S
C3861 C3860 1.400 . S
C3861 C3862 1.398 . S
C3862 H3850 0.950 . S
C3862 C3861 1.398 . S
C3862 C3863 1.391 . S
C3863 H3851 0.950 . S
C3863 C3859 1.393 . S
C3863 C3862 1.391 . S
H3864 C3872 0.950 . S
H3865 C3877 0.950 . S
H3866 C3874 0.950 . S
H3867 C3876 0.950 . S
H3868 C3878 0.950 . S
H3869 C3880 0.950 . S
H3870 C3882 0.950 . S
H3871 C3883 0.950 . S
C3872 H3864 0.950 . S
C3872 C3873 1.386 . S
C3872 C3874 1.391 . S
C3873 C3872 1.386 . S
C3873 C3877 1.393 . S
C3874 H3866 0.950 . S
C3874 C3872 1.391 . S
C3874 C3875 1.400 . S
C3875 C3874 1.400 . S
C3875 C3876 1.398 . S
C3875 C3881 1.491 . S
C3876 H3867 0.950 . S
C3876 C3875 1.398 . S
C3876 C3877 1.391 . S
C3877 H3865 0.950 . S
C3877 C3873 1.393 . S
C3877 C3876 1.391 . S
C3878 H3868 0.950 . S
C3878 C3879 1.386 . S
C3878 C3880 1.391 . S
C3879 C3878 1.386 . S
C3879 C3883 1.393 . S
C3880 H3869 0.950 . S
C3880 C3878 1.391 . S
C3880 C3881 1.400 . S
C3881 C3875 1.491 . S
C3881 C3880 1.400 . S
C3881 C3882 1.398 . S
C3882 H3870 0.950 . S
C3882 C3881 1.398 . S
C3882 C3883 1.391 . S
C3883 H3871 0.950 . S
C3883 C3879 1.393 . S
C3883 C3882 1.391 . S
H3884 C3892 0.950 . S
H3885 C3897 0.950 . S
H3886 C3894 0.950 . S
H3887 C3896 0.950 . S
H3888 C3898 0.950 . S
H3889 C3900 0.950 . S
H3890 C3902 0.950 . S
H3891 C3903 0.950 . S
C3892 H3884 0.950 . S
C3892 C3893 1.386 . S
C3892 C3894 1.391 . S
C3893 C3892 1.386 . S
C3893 C3897 1.393 . S
C3894 H3886 0.950 . S
C3894 C3892 1.391 . S
C3894 C3895 1.400 . S
C3895 C3894 1.400 . S
C3895 C3896 1.398 . S
C3895 C3901 1.491 . S
C3896 H3887 0.950 . S
C3896 C3895 1.398 . S
C3896 C3897 1.391 . S
C3897 H3885 0.950 . S
C3897 C3893 1.393 . S
C3897 C3896 1.391 . S
C3898 H3888 0.950 . S
C3898 C3899 1.386 . S
C3898 C3900 1.391 . S
C3899 C3898 1.386 . S
C3899 C3903 1.393 . S
C3900 H3889 0.950 . S
C3900 C3898 1.391 . S
C3900 C3901 1.400 . S
C3901 C3895 1.491 . S
C3901 C3900 1.400 . S
C3901 C3902 1.398 . S
C3902 H3890 0.950 . S
C3902 C3901 1.398 . S
C3902 C3903 1.391 . S
C3903 H3891 0.950 . S
C3903 C3899 1.393 . S
C3903 C3902 1.391 . S
H3904 C3912 0.950 . S
H3905 C3917 0.950 . S
H3906 C3914 0.950 . S
H3907 C3916 0.950 . S
H3908 C3918 0.950 . S
H3909 C3920 0.950 . S
H3910 C3922 0.950 . S
H3911 C3923 0.950 . S
C3912 H3904 0.950 . S
C3912 C3913 1.386 . S
C3912 C3914 1.391 . S
C3913 C3912 1.386 . S
C3913 C3917 1.393 . S
C3914 H3906 0.950 . S
C3914 C3912 1.391 . S
C3914 C3915 1.400 . S
C3915 C3914 1.400 . S
C3915 C3916 1.398 . S
C3915 C3921 1.491 . S
C3916 H3907 0.950 . S
C3916 C3915 1.398 . S
C3916 C3917 1.391 . S
C3917 H3905 0.950 . S
C3917 C3913 1.393 . S
C3917 C3916 1.391 . S
C3918 H3908 0.950 . S
C3918 C3919 1.386 . S
C3918 C3920 1.391 . S
C3919 C3918 1.386 . S
C3919 C3923 1.393 . S
C3920 H3909 0.950 . S
C3920 C3918 1.391 . S
C3920 C3921 1.400 . S
C3921 C3915 1.491 . S
C3921 C3920 1.400 . S
C3921 C3922 1.398 . S
C3922 H3910 0.950 . S
C3922 C3921 1.398 . S
C3922 C3923 1.391 . S
C3923 H3911 0.950 . S
C3923 C3919 1.393 . S
C3923 C3922 1.391 . S
H3924 C3932 0.950 . S
H3925 C3937 0.950 . S
H3926 C3934 0.950 . S
H3927 C3936 0.950 . S
H3928 C3938 0.950 . S
H3929 C3940 0.950 . S
H3930 C3942 0.950 . S
H3931 C3943 0.950 . S
C3932 H3924 0.950 . S
C3932 C3933 1.386 . S
C3932 C3934 1.391 . S
C3933 C3932 1.386 . S
C3933 C3937 1.393 . S
C3934 H3926 0.950 . S
C3934 C3932 1.391 . S
C3934 C3935 1.400 . S
C3935 C3934 1.400 . S
C3935 C3936 1.398 . S
C3935 C3941 1.491 . S
C3936 H3927 0.950 . S
C3936 C3935 1.398 . S
C3936 C3937 1.391 . S
C3937 H3925 0.950 . S
C3937 C3933 1.393 . S
C3937 C3936 1.391 . S
C3938 H3928 0.950 . S
C3938 C3939 1.386 . S
C3938 C3940 1.391 . S
C3939 C3938 1.386 . S
C3939 C3943 1.393 . S
C3940 H3929 0.950 . S
C3940 C3938 1.391 . S
C3940 C3941 1.400 . S
C3941 C3935 1.491 . S
C3941 C3940 1.400 . S
C3941 C3942 1.398 . S
C3942 H3930 0.950 . S
C3942 C3941 1.398 . S
C3942 C3943 1.391 . S
C3943 H3931 0.950 . S
C3943 C3939 1.393 . S
C3943 C3942 1.391 . S
H3944 C3952 0.950 . S
H3945 C3957 0.950 . S
H3946 C3954 0.950 . S
H3947 C3956 0.950 . S
H3948 C3958 0.950 . S
H3949 C3960 0.950 . S
H3950 C3962 0.950 . S
H3951 C3963 0.950 . S
C3952 H3944 0.950 . S
C3952 C3953 1.386 . S
C3952 C3954 1.391 . S
C3953 C3952 1.386 . S
C3953 C3957 1.393 . S
C3954 H3946 0.950 . S
C3954 C3952 1.391 . S
C3954 C3955 1.400 . S
C3955 C3954 1.400 . S
C3955 C3956 1.398 . S
C3955 C3961 1.491 . S
C3956 H3947 0.950 . S
C3956 C3955 1.398 . S
C3956 C3957 1.391 . S
C3957 H3945 0.950 . S
C3957 C3953 1.393 . S
C3957 C3956 1.391 . S
C3958 H3948 0.950 . S
C3958 C3959 1.386 . S
C3958 C3960 1.391 . S
C3959 C3958 1.386 . S
C3959 C3963 1.393 . S
C3960 H3949 0.950 . S
C3960 C3958 1.391 . S
C3960 C3961 1.400 . S
C3961 C3955 1.491 . S
C3961 C3960 1.400 . S
C3961 C3962 1.398 . S
C3962 H3950 0.950 . S
C3962 C3961 1.398 . S
C3962 C3963 1.391 . S
C3963 H3951 0.950 . S
C3963 C3959 1.393 . S
C3963 C3962 1.391 . S
H3964 C3972 0.950 . S
H3965 C3977 0.950 . S
H3966 C3974 0.950 . S
H3967 C3976 0.950 . S
H3968 C3978 0.950 . S
H3969 C3980 0.950 . S
H3970 C3982 0.950 . S
H3971 C3983 0.950 . S
C3972 H3964 0.950 . S
C3972 C3973 1.386 . S
C3972 C3974 1.391 . S
C3973 C3972 1.386 . S
C3973 C3977 1.393 . S
C3974 H3966 0.950 . S
C3974 C3972 1.391 . S
C3974 C3975 1.400 . S
C3975 C3974 1.400 . S
C3975 C3976 1.398 . S
C3975 C3981 1.491 . S
C3976 H3967 0.950 . S
C3976 C3975 1.398 . S
C3976 C3977 1.391 . S
C3977 H3965 0.950 . S
C3977 C3973 1.393 . S
C3977 C3976 1.391 . S
C3978 H3968 0.950 . S
C3978 C3979 1.386 . S
C3978 C3980 1.391 . S
C3979 C3978 1.386 . S
C3979 C3983 1.393 . S
C3980 H3969 0.950 . S
C3980 C3978 1.391 . S
C3980 C3981 1.400 . S
C3981 C3975 1.491 . S
C3981 C3980 1.400 . S
C3981 C3982 1.398 . S
C3982 H3970 0.950 . S
C3982 C3981 1.398 . S
C3982 C3983 1.391 . S
C3983 H3971 0.950 . S
C3983 C3979 1.393 . S
C3983 C3982 1.391 . S
H3984 C3992 0.950 . S
H3985 C3997 0.950 . S
H3986 C3994 0.950 . S
H3987 C3996 0.950 . S
H3988 C3998 0.950 . S
H3989 C4000 0.950 . S
H3990 C4002 0.950 . S
H3991 C4003 0.950 . S
C3992 H3984 0.950 . S
C3992 C3993 1.386 . S
C3992 C3994 1.391 . S
C3993 C3992 1.386 . S
C3993 C3997 1.393 . S
C3994 H3986 0.950 . S
C3994 C3992 1.391 . S
C3994 C3995 1.400 . S
C3995 C3994 1.400 . S
C3995 C3996 1.398 . S
C3995 C4001 1.491 . S
C3996 H3987 0.950 . S
C3996 C3995 1.398 . S
C3996 C3997 1.391 . S
C3997 H3985 0.950 . S
C3997 C3993 1.393 . S
C3997 C3996 1.391 . S
C3998 H3988 0.950 . S
C3998 C3999 1.386 . S
C3998 C4000 1.391 . S
C3999 C3998 1.386 . S
C3999 C4003 1.393 . S
C4000 H3989 0.950 . S
C4000 C3998 1.391 . S
C4000 C4001 1.400 . S
C4001 C3995 1.491 . S
C4001 C4000 1.400 . S
C4001 C4002 1.398 . S
C4002 H3990 0.950 . S
C4002 C4001 1.398 . S
C4002 C4003 1.391 . S
C4003 H3991 0.950 . S
C4003 C3999 1.393 . S
C4003 C4002 1.391 . S
H4004 C4012 0.950 . S
H4005 C4017 0.950 . S
H4006 C4014 0.950 . S
H4007 C4016 0.950 . S
H4008 C4018 0.950 . S
H4009 C4020 0.950 . S
H4010 C4022 0.950 . S
H4011 C4023 0.950 . S
C4012 H4004 0.950 . S
C4012 C4013 1.386 . S
C4012 C4014 1.391 . S
C4013 C4012 1.386 . S
C4013 C4017 1.393 . S
C4014 H4006 0.950 . S
C4014 C4012 1.391 . S
C4014 C4015 1.400 . S
C4015 C4014 1.400 . S
C4015 C4016 1.398 . S
C4015 C4021 1.491 . S
C4016 H4007 0.950 . S
C4016 C4015 1.398 . S
C4016 C4017 1.391 . S
C4017 H4005 0.950 . S
C4017 C4013 1.393 . S
C4017 C4016 1.391 . S
C4018 H4008 0.950 . S
C4018 C4019 1.386 . S
C4018 C4020 1.391 . S
C4019 C4018 1.386 . S
C4019 C4023 1.393 . S
C4020 H4009 0.950 . S
C4020 C4018 1.391 . S
C4020 C4021 1.400 . S
C4021 C4015 1.491 . S
C4021 C4020 1.400 . S
C4021 C4022 1.398 . S
C4022 H4010 0.950 . S
C4022 C4021 1.398 . S
C4022 C4023 1.391 . S
C4023 H4011 0.950 . S
C4023 C4019 1.393 . S
C4023 C4022 1.391 . S
H4024 C4032 0.950 . S
H4025 C4037 0.950 . S
H4026 C4034 0.950 . S
H4027 C4036 0.950 . S
H4028 C4038 0.950 . S
H4029 C4040 0.950 . S
H4030 C4042 0.950 . S
H4031 C4043 0.950 . S
C4032 H4024 0.950 . S
C4032 C4033 1.386 . S
C4032 C4034 1.391 . S
C4033 C4032 1.386 . S
C4033 C4037 1.393 . S
C4034 H4026 0.950 . S
C4034 C4032 1.391 . S
C4034 C4035 1.400 . S
C4035 C4034 1.400 . S
C4035 C4036 1.398 . S
C4035 C4041 1.491 . S
C4036 H4027 0.950 . S
C4036 C4035 1.398 . S
C4036 C4037 1.391 . S
C4037 H4025 0.950 . S
C4037 C4033 1.393 . S
C4037 C4036 1.391 . S
C4038 H4028 0.950 . S
C4038 C4039 1.386 . S
C4038 C4040 1.391 . S
C4039 C4038 1.386 . S
C4039 C4043 1.393 . S
C4040 H4029 0.950 . S
C4040 C4038 1.391 . S
C4040 C4041 1.400 . S
C4041 C4035 1.491 . S
C4041 C4040 1.400 . S
C4041 C4042 1.398 . S
C4042 H4030 0.950 . S
C4042 C4041 1.398 . S
C4042 C4043 1.391 . S
C4043 H4031 0.950 . S
C4043 C4039 1.393 . S
C4043 C4042 1.391 . S
H4044 C4052 0.950 . S
H4045 C4057 0.950 . S
H4046 C4054 0.950 . S
H4047 C4056 0.950 . S
H4048 C4058 0.950 . S
H4049 C4060 0.950 . S
H4050 C4062 0.950 . S
H4051 C4063 0.950 . S
C4052 H4044 0.950 . S
C4052 C4053 1.386 . S
C4052 C4054 1.391 . S
C4053 C4052 1.386 . S
C4053 C4057 1.393 . S
C4054 H4046 0.950 . S
C4054 C4052 1.391 . S
C4054 C4055 1.400 . S
C4055 C4054 1.400 . S
C4055 C4056 1.398 . S
C4055 C4061 1.491 . S
C4056 H4047 0.950 . S
C4056 C4055 1.398 . S
C4056 C4057 1.391 . S
C4057 H4045 0.950 . S
C4057 C4053 1.393 . S
C4057 C4056 1.391 . S
C4058 H4048 0.950 . S
C4058 C4059 1.386 . S
C4058 C4060 1.391 . S
C4059 C4058 1.386 . S
C4059 C4063 1.393 . S
C4060 H4049 0.950 . S
C4060 C4058 1.391 . S
C4060 C4061 1.400 . S
C4061 C4055 1.491 . S
C4061 C4060 1.400 . S
C4061 C4062 1.398 . S
C4062 H4050 0.950 . S
C4062 C4061 1.398 . S
C4062 C4063 1.391 . S
C4063 H4051 0.950 . S
C4063 C4059 1.393 . S
C4063 C4062 1.391 . S
H4064 C4072 0.950 . S
H4065 C4077 0.950 . S
H4066 C4074 0.950 . S
H4067 C4076 0.950 . S
H4068 C4078 0.950 . S
H4069 C4080 0.950 . S
H4070 C4082 0.950 . S
H4071 C4083 0.950 . S
C4072 H4064 0.950 . S
C4072 C4073 1.386 . S
C4072 C4074 1.391 . S
C4073 C4072 1.386 . S
C4073 C4077 1.393 . S
C4074 H4066 0.950 . S
C4074 C4072 1.391 . S
C4074 C4075 1.400 . S
C4075 C4074 1.400 . S
C4075 C4076 1.398 . S
C4075 C4081 1.491 . S
C4076 H4067 0.950 . S
C4076 C4075 1.398 . S
C4076 C4077 1.391 . S
C4077 H4065 0.950 . S
C4077 C4073 1.393 . S
C4077 C4076 1.391 . S
C4078 H4068 0.950 . S
C4078 C4079 1.386 . S
C4078 C4080 1.391 . S
C4079 C4078 1.386 . S
C4079 C4083 1.393 . S
C4080 H4069 0.950 . S
C4080 C4078 1.391 . S
C4080 C4081 1.400 . S
C4081 C4075 1.491 . S
C4081 C4080 1.400 . S
C4081 C4082 1.398 . S
C4082 H4070 0.950 . S
C4082 C4081 1.398 . S
C4082 C4083 1.391 . S
C4083 H4071 0.950 . S
C4083 C4079 1.393 . S
C4083 C4082 1.391 . S
H4084 C4092 0.950 . S
H4085 C4097 0.950 . S
H4086 C4094 0.950 . S
H4087 C4096 0.950 . S
H4088 C4098 0.950 . S
H4089 C4100 0.950 . S
H4090 C4102 0.950 . S
H4091 C4103 0.950 . S
C4092 H4084 0.950 . S
C4092 C4093 1.386 . S
C4092 C4094 1.391 . S
C4093 C4092 1.386 . S
C4093 C4097 1.393 . S
C4094 H4086 0.950 . S
C4094 C4092 1.391 . S
C4094 C4095 1.400 . S
C4095 C4094 1.400 . S
C4095 C4096 1.398 . S
C4095 C4101 1.491 . S
C4096 H4087 0.950 . S
C4096 C4095 1.398 . S
C4096 C4097 1.391 . S
C4097 H4085 0.950 . S
C4097 C4093 1.393 . S
C4097 C4096 1.391 . S
C4098 H4088 0.950 . S
C4098 C4099 1.386 . S
C4098 C4100 1.391 . S
C4099 C4098 1.386 . S
C4099 C4103 1.393 . S
C4100 H4089 0.950 . S
C4100 C4098 1.391 . S
C4100 C4101 1.400 . S
C4101 C4095 1.491 . S
C4101 C4100 1.400 . S
C4101 C4102 1.398 . S
C4102 H4090 0.950 . S
C4102 C4101 1.398 . S
C4102 C4103 1.391 . S
C4103 H4091 0.950 . S
C4103 C4099 1.393 . S
C4103 C4102 1.391 . S
H4104 C4112 0.950 . S
H4105 C4117 0.950 . S
H4106 C4114 0.950 . S
H4107 C4116 0.950 . S
H4108 C4118 0.950 . S
H4109 C4120 0.950 . S
H4110 C4122 0.950 . S
H4111 C4123 0.950 . S
C4112 H4104 0.950 . S
C4112 C4113 1.386 . S
C4112 C4114 1.391 . S
C4113 C4112 1.386 . S
C4113 C4117 1.393 . S
C4114 H4106 0.950 . S
C4114 C4112 1.391 . S
C4114 C4115 1.400 . S
C4115 C4114 1.400 . S
C4115 C4116 1.398 . S
C4115 C4121 1.491 . S
C4116 H4107 0.950 . S
C4116 C4115 1.398 . S
C4116 C4117 1.391 . S
C4117 H4105 0.950 . S
C4117 C4113 1.393 . S
C4117 C4116 1.391 . S
C4118 H4108 0.950 . S
C4118 C4119 1.386 . S
C4118 C4120 1.391 . S
C4119 C4118 1.386 . S
C4119 C4123 1.393 . S
C4120 H4109 0.950 . S
C4120 C4118 1.391 . S
C4120 C4121 1.400 . S
C4121 C4115 1.491 . S
C4121 C4120 1.400 . S
C4121 C4122 1.398 . S
C4122 H4110 0.950 . S
C4122 C4121 1.398 . S
C4122 C4123 1.391 . S
C4123 H4111 0.950 . S
C4123 C4119 1.393 . S
C4123 C4122 1.391 . S
H4124 C4132 0.950 . S
H4125 C4137 0.950 . S
H4126 C4134 0.950 . S
H4127 C4136 0.950 . S
H4128 C4138 0.950 . S
H4129 C4140 0.950 . S
H4130 C4142 0.950 . S
H4131 C4143 0.950 . S
C4132 H4124 0.950 . S
C4132 C4133 1.386 . S
C4132 C4134 1.391 . S
C4133 C4132 1.386 . S
C4133 C4137 1.393 . S
C4134 H4126 0.950 . S
C4134 C4132 1.391 . S
C4134 C4135 1.400 . S
C4135 C4134 1.400 . S
C4135 C4136 1.398 . S
C4135 C4141 1.491 . S
C4136 H4127 0.950 . S
C4136 C4135 1.398 . S
C4136 C4137 1.391 . S
C4137 H4125 0.950 . S
C4137 C4133 1.393 . S
C4137 C4136 1.391 . S
C4138 H4128 0.950 . S
C4138 C4139 1.386 . S
C4138 C4140 1.391 . S
C4139 C4138 1.386 . S
C4139 C4143 1.393 . S
C4140 H4129 0.950 . S
C4140 C4138 1.391 . S
C4140 C4141 1.400 . S
C4141 C4135 1.491 . S
C4141 C4140 1.400 . S
C4141 C4142 1.398 . S
C4142 H4130 0.950 . S
C4142 C4141 1.398 . S
C4142 C4143 1.391 . S
C4143 H4131 0.950 . S
C4143 C4139 1.393 . S
C4143 C4142 1.391 . S
H4144 C4152 0.950 . S
H4145 C4157 0.950 . S
H4146 C4154 0.950 . S
H4147 C4156 0.950 . S
H4148 C4158 0.950 . S
H4149 C4160 0.950 . S
H4150 C4162 0.950 . S
H4151 C4163 0.950 . S
C4152 H4144 0.950 . S
C4152 C4153 1.386 . S
C4152 C4154 1.391 . S
C4153 C4152 1.386 . S
C4153 C4157 1.393 . S
C4154 H4146 0.950 . S
C4154 C4152 1.391 . S
C4154 C4155 1.400 . S
C4155 C4154 1.400 . S
C4155 C4156 1.398 . S
C4155 C4161 1.491 . S
C4156 H4147 0.950 . S
C4156 C4155 1.398 . S
C4156 C4157 1.391 . S
C4157 H4145 0.950 . S
C4157 C4153 1.393 . S
C4157 C4156 1.391 . S
C4158 H4148 0.950 . S
C4158 C4159 1.386 . S
C4158 C4160 1.391 . S
C4159 C4158 1.386 . S
C4159 C4163 1.393 . S
C4160 H4149 0.950 . S
C4160 C4158 1.391 . S
C4160 C4161 1.400 . S
C4161 C4155 1.491 . S
C4161 C4160 1.400 . S
C4161 C4162 1.398 . S
C4162 H4150 0.950 . S
C4162 C4161 1.398 . S
C4162 C4163 1.391 . S
C4163 H4151 0.950 . S
C4163 C4159 1.393 . S
C4163 C4162 1.391 . S
H4164 C4172 0.950 . S
H4165 C4177 0.950 . S
H4166 C4174 0.950 . S
H4167 C4176 0.950 . S
H4168 C4178 0.950 . S
H4169 C4180 0.950 . S
H4170 C4182 0.950 . S
H4171 C4183 0.950 . S
C4172 H4164 0.950 . S
C4172 C4173 1.386 . S
C4172 C4174 1.391 . S
C4173 C4172 1.386 . S
C4173 C4177 1.393 . S
C4174 H4166 0.950 . S
C4174 C4172 1.391 . S
C4174 C4175 1.400 . S
C4175 C4174 1.400 . S
C4175 C4176 1.398 . S
C4175 C4181 1.491 . S
C4176 H4167 0.950 . S
C4176 C4175 1.398 . S
C4176 C4177 1.391 . S
C4177 H4165 0.950 . S
C4177 C4173 1.393 . S
C4177 C4176 1.391 . S
C4178 H4168 0.950 . S
C4178 C4179 1.386 . S
C4178 C4180 1.391 . S
C4179 C4178 1.386 . S
C4179 C4183 1.393 . S
C4180 H4169 0.950 . S
C4180 C4178 1.391 . S
C4180 C4181 1.400 . S
C4181 C4175 1.491 . S
C4181 C4180 1.400 . S
C4181 C4182 1.398 . S
C4182 H4170 0.950 . S
C4182 C4181 1.398 . S
C4182 C4183 1.391 . S
C4183 H4171 0.950 . S
C4183 C4179 1.393 . S
C4183 C4182 1.391 . S
H4184 C4192 0.950 . S
H4185 C4197 0.950 . S
H4186 C4194 0.950 . S
H4187 C4196 0.950 . S
H4188 C4198 0.950 . S
H4189 C4200 0.950 . S
H4190 C4202 0.950 . S
H4191 C4203 0.950 . S
C4192 H4184 0.950 . S
C4192 C4193 1.386 . S
C4192 C4194 1.391 . S
C4193 C4192 1.386 . S
C4193 C4197 1.393 . S
C4194 H4186 0.950 . S
C4194 C4192 1.391 . S
C4194 C4195 1.400 . S
C4195 C4194 1.400 . S
C4195 C4196 1.398 . S
C4195 C4201 1.491 . S
C4196 H4187 0.950 . S
C4196 C4195 1.398 . S
C4196 C4197 1.391 . S
C4197 H4185 0.950 . S
C4197 C4193 1.393 . S
C4197 C4196 1.391 . S
C4198 H4188 0.950 . S
C4198 C4199 1.386 . S
C4198 C4200 1.391 . S
C4199 C4198 1.386 . S
C4199 C4203 1.393 . S
C4200 H4189 0.950 . S
C4200 C4198 1.391 . S
C4200 C4201 1.400 . S
C4201 C4195 1.491 . S
C4201 C4200 1.400 . S
C4201 C4202 1.398 . S
C4202 H4190 0.950 . S
C4202 C4201 1.398 . S
C4202 C4203 1.391 . S
C4203 H4191 0.950 . S
C4203 C4199 1.393 . S
C4203 C4202 1.391 . S
H4204 C4212 0.950 . S
H4205 C4217 0.950 . S
H4206 C4214 0.950 . S
H4207 C4216 0.950 . S
H4208 C4218 0.950 . S
H4209 C4220 0.950 . S
H4210 C4222 0.950 . S
H4211 C4223 0.950 . S
C4212 H4204 0.950 . S
C4212 C4213 1.386 . S
C4212 C4214 1.391 . S
C4213 C4212 1.386 . S
C4213 C4217 1.393 . S
C4214 H4206 0.950 . S
C4214 C4212 1.391 . S
C4214 C4215 1.400 . S
C4215 C4214 1.400 . S
C4215 C4216 1.398 . S
C4215 C4221 1.491 . S
C4216 H4207 0.950 . S
C4216 C4215 1.398 . S
C4216 C4217 1.391 . S
C4217 H4205 0.950 . S
C4217 C4213 1.393 . S
C4217 C4216 1.391 . S
C4218 H4208 0.950 . S
C4218 C4219 1.386 . S
C4218 C4220 1.391 . S
C4219 C4218 1.386 . S
C4219 C4223 1.393 . S
C4220 H4209 0.950 . S
C4220 C4218 1.391 . S
C4220 C4221 1.400 . S
C4221 C4215 1.491 . S
C4221 C4220 1.400 . S
C4221 C4222 1.398 . S
C4222 H4210 0.950 . S
C4222 C4221 1.398 . S
C4222 C4223 1.391 . S
C4223 H4211 0.950 . S
C4223 C4219 1.393 . S
C4223 C4222 1.391 . S
H4224 C4232 0.950 . S
H4225 C4237 0.950 . S
H4226 C4234 0.950 . S
H4227 C4236 0.950 . S
H4228 C4238 0.950 . S
H4229 C4240 0.950 . S
H4230 C4242 0.950 . S
H4231 C4243 0.950 . S
C4232 H4224 0.950 . S
C4232 C4233 1.386 . S
C4232 C4234 1.391 . S
C4233 C4232 1.386 . S
C4233 C4237 1.393 . S
C4234 H4226 0.950 . S
C4234 C4232 1.391 . S
C4234 C4235 1.400 . S
C4235 C4234 1.400 . S
C4235 C4236 1.398 . S
C4235 C4241 1.491 . S
C4236 H4227 0.950 . S
C4236 C4235 1.398 . S
C4236 C4237 1.391 . S
C4237 H4225 0.950 . S
C4237 C4233 1.393 . S
C4237 C4236 1.391 . S
C4238 H4228 0.950 . S
C4238 C4239 1.386 . S
C4238 C4240 1.391 . S
C4239 C4238 1.386 . S
C4239 C4243 1.393 . S
C4240 H4229 0.950 . S
C4240 C4238 1.391 . S
C4240 C4241 1.400 . S
C4241 C4235 1.491 . S
C4241 C4240 1.400 . S
C4241 C4242 1.398 . S
C4242 H4230 0.950 . S
C4242 C4241 1.398 . S
C4242 C4243 1.391 . S
C4243 H4231 0.950 . S
C4243 C4239 1.393 . S
C4243 C4242 1.391 . S
H4244 C4252 0.950 . S
H4245 C4257 0.950 . S
H4246 C4254 0.950 . S
H4247 C4256 0.950 . S
H4248 C4258 0.950 . S
H4249 C4260 0.950 . S
H4250 C4262 0.950 . S
H4251 C4263 0.950 . S
C4252 H4244 0.950 . S
C4252 C4253 1.386 . S
C4252 C4254 1.391 . S
C4253 C4252 1.386 . S
C4253 C4257 1.393 . S
C4254 H4246 0.950 . S
C4254 C4252 1.391 . S
C4254 C4255 1.400 . S
C4255 C4254 1.400 . S
C4255 C4256 1.398 . S
C4255 C4261 1.491 . S
C4256 H4247 0.950 . S
C4256 C4255 1.398 . S
C4256 C4257 1.391 . S
C4257 H4245 0.950 . S
C4257 C4253 1.393 . S
C4257 C4256 1.391 . S
C4258 H4248 0.950 . S
C4258 C4259 1.386 . S
C4258 C4260 1.391 . S
C4259 C4258 1.386 . S
C4259 C4263 1.393 . S
C4260 H4249 0.950 . S
C4260 C4258 1.391 . S
C4260 C4261 1.400 . S
C4261 C4255 1.491 . S
C4261 C4260 1.400 . S
C4261 C4262 1.398 . S
C4262 H4250 0.950 . S
C4262 C4261 1.398 . S
C4262 C4263 1.391 . S
C4263 H4251 0.950 . S
C4263 C4259 1.393 . S
C4263 C4262 1.391 . S
H4264 C4272 0.950 . S
H4265 C4277 0.950 . S
H4266 C4274 0.950 . S
H4267 C4276 0.950 . S
H4268 C4278 0.950 . S
H4269 C4280 0.950 . S
H4270 C4282 0.950 . S
H4271 C4283 0.950 . S
C4272 H4264 0.950 . S
C4272 C4273 1.386 . S
C4272 C4274 1.391 . S
C4273 C4272 1.386 . S
C4273 C4277 1.393 . S
C4274 H4266 0.950 . S
C4274 C4272 1.391 . S
C4274 C4275 1.400 . S
C4275 C4274 1.400 . S
C4275 C4276 1.398 . S
C4275 C4281 1.491 . S
C4276 H4267 0.950 . S
C4276 C4275 1.398 . S
C4276 C4277 1.391 . S
C4277 H4265 0.950 . S
C4277 C4273 1.393 . S
C4277 C4276 1.391 . S
C4278 H4268 0.950 . S
C4278 C4279 1.386 . S
C4278 C4280 1.391 . S
C4279 C4278 1.386 . S
C4279 C4283 1.393 . S
C4280 H4269 0.950 . S
C4280 C4278 1.391 . S
C4280 C4281 1.400 . S
C4281 C4275 1.491 . S
C4281 C4280 1.400 . S
C4281 C4282 1.398 . S
C4282 H4270 0.950 . S
C4282 C4281 1.398 . S
C4282 C4283 1.391 . S
C4283 H4271 0.950 . S
C4283 C4279 1.393 . S
C4283 C4282 1.391 . S
H4284 C4292 0.950 . S
H4285 C4297 0.950 . S
H4286 C4294 0.950 . S
H4287 C4296 0.950 . S
H4288 C4298 0.950 . S
H4289 C4300 0.950 . S
H4290 C4302 0.950 . S
H4291 C4303 0.950 . S
C4292 H4284 0.950 . S
C4292 C4293 1.386 . S
C4292 C4294 1.391 . S
C4293 C4292 1.386 . S
C4293 C4297 1.393 . S
C4294 H4286 0.950 . S
C4294 C4292 1.391 . S
C4294 C4295 1.400 . S
C4295 C4294 1.400 . S
C4295 C4296 1.398 . S
C4295 C4301 1.491 . S
C4296 H4287 0.950 . S
C4296 C4295 1.398 . S
C4296 C4297 1.391 . S
C4297 H4285 0.950 . S
C4297 C4293 1.393 . S
C4297 C4296 1.391 . S
C4298 H4288 0.950 . S
C4298 C4299 1.386 . S
C4298 C4300 1.391 . S
C4299 C4298 1.386 . S
C4299 C4303 1.393 . S
C4300 H4289 0.950 . S
C4300 C4298 1.391 . S
C4300 C4301 1.400 . S
C4301 C4295 1.491 . S
C4301 C4300 1.400 . S
C4301 C4302 1.398 . S
C4302 H4290 0.950 . S
C4302 C4301 1.398 . S
C4302 C4303 1.391 . S
C4303 H4291 0.950 . S
C4303 C4299 1.393 . S
C4303 C4302 1.391 . S
H4304 C4312 0.950 . S
H4305 C4317 0.950 . S
H4306 C4314 0.950 . S
H4307 C4316 0.950 . S
H4308 C4318 0.950 . S
H4309 C4320 0.950 . S
H4310 C4322 0.950 . S
H4311 C4323 0.950 . S
C4312 H4304 0.950 . S
C4312 C4313 1.386 . S
C4312 C4314 1.391 . S
C4313 C4312 1.386 . S
C4313 C4317 1.393 . S
C4314 H4306 0.950 . S
C4314 C4312 1.391 . S
C4314 C4315 1.400 . S
C4315 C4314 1.400 . S
C4315 C4316 1.398 . S
C4315 C4321 1.491 . S
C4316 H4307 0.950 . S
C4316 C4315 1.398 . S
C4316 C4317 1.391 . S
C4317 H4305 0.950 . S
C4317 C4313 1.393 . S
C4317 C4316 1.391 . S
C4318 H4308 0.950 . S
C4318 C4319 1.386 . S
C4318 C4320 1.391 . S
C4319 C4318 1.386 . S
C4319 C4323 1.393 . S
C4320 H4309 0.950 . S
C4320 C4318 1.391 . S
C4320 C4321 1.400 . S
C4321 C4315 1.491 . S
C4321 C4320 1.400 . S
C4321 C4322 1.398 . S
C4322 H4310 0.950 . S
C4322 C4321 1.398 . S
C4322 C4323 1.391 . S
C4323 H4311 0.950 . S
C4323 C4319 1.393 . S
C4323 C4322 1.391 . S
H4324 C4332 0.950 . S
H4325 C4337 0.950 . S
H4326 C4334 0.950 . S
H4327 C4336 0.950 . S
H4328 C4338 0.950 . S
H4329 C4340 0.950 . S
H4330 C4342 0.950 . S
H4331 C4343 0.950 . S
C4332 H4324 0.950 . S
C4332 C4333 1.386 . S
C4332 C4334 1.391 . S
C4333 C4332 1.386 . S
C4333 C4337 1.393 . S
C4334 H4326 0.950 . S
C4334 C4332 1.391 . S
C4334 C4335 1.400 . S
C4335 C4334 1.400 . S
C4335 C4336 1.398 . S
C4335 C4341 1.491 . S
C4336 H4327 0.950 . S
C4336 C4335 1.398 . S
C4336 C4337 1.391 . S
C4337 H4325 0.950 . S
C4337 C4333 1.393 . S
C4337 C4336 1.391 . S
C4338 H4328 0.950 . S
C4338 C4339 1.386 . S
C4338 C4340 1.391 . S
C4339 C4338 1.386 . S
C4339 C4343 1.393 . S
C4340 H4329 0.950 . S
C4340 C4338 1.391 . S
C4340 C4341 1.400 . S
C4341 C4335 1.491 . S
C4341 C4340 1.400 . S
C4341 C4342 1.398 . S
C4342 H4330 0.950 . S
C4342 C4341 1.398 . S
C4342 C4343 1.391 . S
C4343 H4331 0.950 . S
C4343 C4339 1.393 . S
C4343 C4342 1.391 . S
H4344 C4352 0.950 . S
H4345 C4357 0.950 . S
H4346 C4354 0.950 . S
H4347 C4356 0.950 . S
H4348 C4358 0.950 . S
H4349 C4360 0.950 . S
H4350 C4362 0.950 . S
H4351 C4363 0.950 . S
C4352 H4344 0.950 . S
C4352 C4353 1.386 . S
C4352 C4354 1.391 . S
C4353 C4352 1.386 . S
C4353 C4357 1.393 . S
C4354 H4346 0.950 . S
C4354 C4352 1.391 . S
C4354 C4355 1.400 . S
C4355 C4354 1.400 . S
C4355 C4356 1.398 . S
C4355 C4361 1.491 . S
C4356 H4347 0.950 . S
C4356 C4355 1.398 . S
C4356 C4357 1.391 . S
C4357 H4345 0.950 . S
C4357 C4353 1.393 . S
C4357 C4356 1.391 . S
C4358 H4348 0.950 . S
C4358 C4359 1.386 . S
C4358 C4360 1.391 . S
C4359 C4358 1.386 . S
C4359 C4363 1.393 . S
C4360 H4349 0.950 . S
C4360 C4358 1.391 . S
C4360 C4361 1.400 . S
C4361 C4355 1.491 . S
C4361 C4360 1.400 . S
C4361 C4362 1.398 . S
C4362 H4350 0.950 . S
C4362 C4361 1.398 . S
C4362 C4363 1.391 . S
C4363 H4351 0.950 . S
C4363 C4359 1.393 . S
C4363 C4362 1.391 . S
H4364 C4372 0.950 . S
H4365 C4377 0.950 . S
H4366 C4374 0.950 . S
H4367 C4376 0.950 . S
H4368 C4378 0.950 . S
H4369 C4380 0.950 . S
H4370 C4382 0.950 . S
H4371 C4383 0.950 . S
C4372 H4364 0.950 . S
C4372 C4373 1.386 . S
C4372 C4374 1.391 . S
C4373 C4372 1.386 . S
C4373 C4377 1.393 . S
C4374 H4366 0.950 . S
C4374 C4372 1.391 . S
C4374 C4375 1.400 . S
C4375 C4374 1.400 . S
C4375 C4376 1.398 . S
C4375 C4381 1.491 . S
C4376 H4367 0.950 . S
C4376 C4375 1.398 . S
C4376 C4377 1.391 . S
C4377 H4365 0.950 . S
C4377 C4373 1.393 . S
C4377 C4376 1.391 . S
C4378 H4368 0.950 . S
C4378 C4379 1.386 . S
C4378 C4380 1.391 . S
C4379 C4378 1.386 . S
C4379 C4383 1.393 . S
C4380 H4369 0.950 . S
C4380 C4378 1.391 . S
C4380 C4381 1.400 . S
C4381 C4375 1.491 . S
C4381 C4380 1.400 . S
C4381 C4382 1.398 . S
C4382 H4370 0.950 . S
C4382 C4381 1.398 . S
C4382 C4383 1.391 . S
C4383 H4371 0.950 . S
C4383 C4379 1.393 . S
C4383 C4382 1.391 . S
H4384 C4392 0.950 . S
H4385 C4397 0.950 . S
H4386 C4394 0.950 . S
H4387 C4396 0.950 . S
H4388 C4398 0.950 . S
H4389 C4400 0.950 . S
H4390 C4402 0.950 . S
H4391 C4403 0.950 . S
C4392 H4384 0.950 . S
C4392 C4393 1.386 . S
C4392 C4394 1.391 . S
C4393 C4392 1.386 . S
C4393 C4397 1.393 . S
C4394 H4386 0.950 . S
C4394 C4392 1.391 . S
C4394 C4395 1.400 . S
C4395 C4394 1.400 . S
C4395 C4396 1.398 . S
C4395 C4401 1.491 . S
C4396 H4387 0.950 . S
C4396 C4395 1.398 . S
C4396 C4397 1.391 . S
C4397 H4385 0.950 . S
C4397 C4393 1.393 . S
C4397 C4396 1.391 . S
C4398 H4388 0.950 . S
C4398 C4399 1.386 . S
C4398 C4400 1.391 . S
C4399 C4398 1.386 . S
C4399 C4403 1.393 . S
C4400 H4389 0.950 . S
C4400 C4398 1.391 . S
C4400 C4401 1.400 . S
C4401 C4395 1.491 . S
C4401 C4400 1.400 . S
C4401 C4402 1.398 . S
C4402 H4390 0.950 . S
C4402 C4401 1.398 . S
C4402 C4403 1.391 . S
C4403 H4391 0.950 . S
C4403 C4399 1.393 . S
C4403 C4402 1.391 . S
H4404 C4412 0.950 . S
H4405 C4417 0.950 . S
H4406 C4414 0.950 . S
H4407 C4416 0.950 . S
H4408 C4418 0.950 . S
H4409 C4420 0.950 . S
H4410 C4422 0.950 . S
H4411 C4423 0.950 . S
C4412 H4404 0.950 . S
C4412 C4413 1.386 . S
C4412 C4414 1.391 . S
C4413 C4412 1.386 . S
C4413 C4417 1.393 . S
C4414 H4406 0.950 . S
C4414 C4412 1.391 . S
C4414 C4415 1.400 . S
C4415 C4414 1.400 . S
C4415 C4416 1.398 . S
C4415 C4421 1.491 . S
C4416 H4407 0.950 . S
C4416 C4415 1.398 . S
C4416 C4417 1.391 . S
C4417 H4405 0.950 . S
C4417 C4413 1.393 . S
C4417 C4416 1.391 . S
C4418 H4408 0.950 . S
C4418 C4419 1.386 . S
C4418 C4420 1.391 . S
C4419 C4418 1.386 . S
C4419 C4423 1.393 . S
C4420 H4409 0.950 . S
C4420 C4418 1.391 . S
C4420 C4421 1.400 . S
C4421 C4415 1.491 . S
C4421 C4420 1.400 . S
C4421 C4422 1.398 . S
C4422 H4410 0.950 . S
C4422 C4421 1.398 . S
C4422 C4423 1.391 . S
C4423 H4411 0.950 . S
C4423 C4419 1.393 . S
C4423 C4422 1.391 . S
H4424 C4432 0.950 . S
H4425 C4437 0.950 . S
H4426 C4434 0.950 . S
H4427 C4436 0.950 . S
H4428 C4438 0.950 . S
H4429 C4440 0.950 . S
H4430 C4442 0.950 . S
H4431 C4443 0.950 . S
C4432 H4424 0.950 . S
C4432 C4433 1.386 . S
C4432 C4434 1.391 . S
C4433 C4432 1.386 . S
C4433 C4437 1.393 . S
C4434 H4426 0.950 . S
C4434 C4432 1.391 . S
C4434 C4435 1.400 . S
C4435 C4434 1.400 . S
C4435 C4436 1.398 . S
C4435 C4441 1.491 . S
C4436 H4427 0.950 . S
C4436 C4435 1.398 . S
C4436 C4437 1.391 . S
C4437 H4425 0.950 . S
C4437 C4433 1.393 . S
C4437 C4436 1.391 . S
C4438 H4428 0.950 . S
C4438 C4439 1.386 . S
C4438 C4440 1.391 . S
C4439 C4438 1.386 . S
C4439 C4443 1.393 . S
C4440 H4429 0.950 . S
C4440 C4438 1.391 . S
C4440 C4441 1.400 . S
C4441 C4435 1.491 . S
C4441 C4440 1.400 . S
C4441 C4442 1.398 . S
C4442 H4430 0.950 . S
C4442 C4441 1.398 . S
C4442 C4443 1.391 . S
C4443 H4431 0.950 . S
C4443 C4439 1.393 . S
C4443 C4442 1.391 . S
H4444 C4452 0.950 . S
H4445 C4457 0.950 . S
H4446 C4454 0.950 . S
H4447 C4456 0.950 . S
H4448 C4458 0.950 . S
H4449 C4460 0.950 . S
H4450 C4462 0.950 . S
H4451 C4463 0.950 . S
C4452 H4444 0.950 . S
C4452 C4453 1.386 . S
C4452 C4454 1.391 . S
C4453 C4452 1.386 . S
C4453 C4457 1.393 . S
C4454 H4446 0.950 . S
C4454 C4452 1.391 . S
C4454 C4455 1.400 . S
C4455 C4454 1.400 . S
C4455 C4456 1.398 . S
C4455 C4461 1.491 . S
C4456 H4447 0.950 . S
C4456 C4455 1.398 . S
C4456 C4457 1.391 . S
C4457 H4445 0.950 . S
C4457 C4453 1.393 . S
C4457 C4456 1.391 . S
C4458 H4448 0.950 . S
C4458 C4459 1.386 . S
C4458 C4460 1.391 . S
C4459 C4458 1.386 . S
C4459 C4463 1.393 . S
C4460 H4449 0.950 . S
C4460 C4458 1.391 . S
C4460 C4461 1.400 . S
C4461 C4455 1.491 . S
C4461 C4460 1.400 . S
C4461 C4462 1.398 . S
C4462 H4450 0.950 . S
C4462 C4461 1.398 . S
C4462 C4463 1.391 . S
C4463 H4451 0.950 . S
C4463 C4459 1.393 . S
C4463 C4462 1.391 . S
H4464 C4472 0.950 . S
H4465 C4477 0.950 . S
H4466 C4474 0.950 . S
H4467 C4476 0.950 . S
H4468 C4478 0.950 . S
H4469 C4480 0.950 . S
H4470 C4482 0.950 . S
H4471 C4483 0.950 . S
C4472 H4464 0.950 . S
C4472 C4473 1.386 . S
C4472 C4474 1.391 . S
C4473 C4472 1.386 . S
C4473 C4477 1.393 . S
C4474 H4466 0.950 . S
C4474 C4472 1.391 . S
C4474 C4475 1.400 . S
C4475 C4474 1.400 . S
C4475 C4476 1.398 . S
C4475 C4481 1.491 . S
C4476 H4467 0.950 . S
C4476 C4475 1.398 . S
C4476 C4477 1.391 . S
C4477 H4465 0.950 . S
C4477 C4473 1.393 . S
C4477 C4476 1.391 . S
C4478 H4468 0.950 . S
C4478 C4479 1.386 . S
C4478 C4480 1.391 . S
C4479 C4478 1.386 . S
C4479 C4483 1.393 . S
C4480 H4469 0.950 . S
C4480 C4478 1.391 . S
C4480 C4481 1.400 . S
C4481 C4475 1.491 . S
C4481 C4480 1.400 . S
C4481 C4482 1.398 . S
C4482 H4470 0.950 . S
C4482 C4481 1.398 . S
C4482 C4483 1.391 . S
C4483 H4471 0.950 . S
C4483 C4479 1.393 . S
C4483 C4482 1.391 . S
H4484 C4492 0.950 . S
H4485 C4497 0.950 . S
H4486 C4494 0.950 . S
H4487 C4496 0.950 . S
H4488 C4498 0.950 . S
H4489 C4500 0.950 . S
H4490 C4502 0.950 . S
H4491 C4503 0.950 . S
C4492 H4484 0.950 . S
C4492 C4493 1.386 . S
C4492 C4494 1.391 . S
C4493 C4492 1.386 . S
C4493 C4497 1.393 . S
C4494 H4486 0.950 . S
C4494 C4492 1.391 . S
C4494 C4495 1.400 . S
C4495 C4494 1.400 . S
C4495 C4496 1.398 . S
C4495 C4501 1.491 . S
C4496 H4487 0.950 . S
C4496 C4495 1.398 . S
C4496 C4497 1.391 . S
C4497 H4485 0.950 . S
C4497 C4493 1.393 . S
C4497 C4496 1.391 . S
C4498 H4488 0.950 . S
C4498 C4499 1.386 . S
C4498 C4500 1.391 . S
C4499 C4498 1.386 . S
C4499 C4503 1.393 . S
C4500 H4489 0.950 . S
C4500 C4498 1.391 . S
C4500 C4501 1.400 . S
C4501 C4495 1.491 . S
C4501 C4500 1.400 . S
C4501 C4502 1.398 . S
C4502 H4490 0.950 . S
C4502 C4501 1.398 . S
C4502 C4503 1.391 . S
C4503 H4491 0.950 . S
C4503 C4499 1.393 . S
C4503 C4502 1.391 . S
H4504 C4512 0.950 . S
H4505 C4517 0.950 . S
H4506 C4514 0.950 . S
H4507 C4516 0.950 . S
H4508 C4518 0.950 . S
H4509 C4520 0.950 . S
H4510 C4522 0.950 . S
H4511 C4523 0.950 . S
C4512 H4504 0.950 . S
C4512 C4513 1.386 . S
C4512 C4514 1.391 . S
C4513 C4512 1.386 . S
C4513 C4517 1.393 . S
C4514 H4506 0.950 . S
C4514 C4512 1.391 . S
C4514 C4515 1.400 . S
C4515 C4514 1.400 . S
C4515 C4516 1.398 . S
C4515 C4521 1.491 . S
C4516 H4507 0.950 . S
C4516 C4515 1.398 . S
C4516 C4517 1.391 . S
C4517 H4505 0.950 . S
C4517 C4513 1.393 . S
C4517 C4516 1.391 . S
C4518 H4508 0.950 . S
C4518 C4519 1.386 . S
C4518 C4520 1.391 . S
C4519 C4518 1.386 . S
C4519 C4523 1.393 . S
C4520 H4509 0.950 . S
C4520 C4518 1.391 . S
C4520 C4521 1.400 . S
C4521 C4515 1.491 . S
C4521 C4520 1.400 . S
C4521 C4522 1.398 . S
C4522 H4510 0.950 . S
C4522 C4521 1.398 . S
C4522 C4523 1.391 . S
C4523 H4511 0.950 . S
C4523 C4519 1.393 . S
C4523 C4522 1.391 . S
H4524 C4532 0.950 . S
H4525 C4537 0.950 . S
H4526 C4534 0.950 . S
H4527 C4536 0.950 . S
H4528 C4538 0.950 . S
H4529 C4540 0.950 . S
H4530 C4542 0.950 . S
H4531 C4543 0.950 . S
C4532 H4524 0.950 . S
C4532 C4533 1.386 . S
C4532 C4534 1.391 . S
C4533 C4532 1.386 . S
C4533 C4537 1.393 . S
C4534 H4526 0.950 . S
C4534 C4532 1.391 . S
C4534 C4535 1.400 . S
C4535 C4534 1.400 . S
C4535 C4536 1.398 . S
C4535 C4541 1.491 . S
C4536 H4527 0.950 . S
C4536 C4535 1.398 . S
C4536 C4537 1.391 . S
C4537 H4525 0.950 . S
C4537 C4533 1.393 . S
C4537 C4536 1.391 . S
C4538 H4528 0.950 . S
C4538 C4539 1.386 . S
C4538 C4540 1.391 . S
C4539 C4538 1.386 . S
C4539 C4543 1.393 . S
C4540 H4529 0.950 . S
C4540 C4538 1.391 . S
C4540 C4541 1.400 . S
C4541 C4535 1.491 . S
C4541 C4540 1.400 . S
C4541 C4542 1.398 . S
C4542 H4530 0.950 . S
C4542 C4541 1.398 . S
C4542 C4543 1.391 . S
C4543 H4531 0.950 . S
C4543 C4539 1.393 . S
C4543 C4542 1.391 . S
H4544 C4552 0.950 . S
H4545 C4557 0.950 . S
H4546 C4554 0.950 . S
H4547 C4556 0.950 . S
H4548 C4558 0.950 . S
H4549 C4560 0.950 . S
H4550 C4562 0.950 . S
H4551 C4563 0.950 . S
C4552 H4544 0.950 . S
C4552 C4553 1.386 . S
C4552 C4554 1.391 . S
C4553 C4552 1.386 . S
C4553 C4557 1.393 . S
C4554 H4546 0.950 . S
C4554 C4552 1.391 . S
C4554 C4555 1.400 . S
C4555 C4554 1.400 . S
C4555 C4556 1.398 . S
C4555 C4561 1.491 . S
C4556 H4547 0.950 . S
C4556 C4555 1.398 . S
C4556 C4557 1.391 . S
C4557 H4545 0.950 . S
C4557 C4553 1.393 . S
C4557 C4556 1.391 . S
C4558 H4548 0.950 . S
C4558 C4559 1.386 . S
C4558 C4560 1.391 . S
C4559 C4558 1.386 . S
C4559 C4563 1.393 . S
C4560 H4549 0.950 . S
C4560 C4558 1.391 . S
C4560 C4561 1.400 . S
C4561 C4555 1.491 . S
C4561 C4560 1.400 . S
C4561 C4562 1.398 . S
C4562 H4550 0.950 . S
C4562 C4561 1.398 . S
C4562 C4563 1.391 . S
C4563 H4551 0.950 . S
C4563 C4559 1.393 . S
C4563 C4562 1.391 . S
H4564 C4572 0.950 . S
H4565 C4577 0.950 . S
H4566 C4574 0.950 . S
H4567 C4576 0.950 . S
H4568 C4578 0.950 . S
H4569 C4580 0.950 . S
H4570 C4582 0.950 . S
H4571 C4583 0.950 . S
C4572 H4564 0.950 . S
C4572 C4573 1.386 . S
C4572 C4574 1.391 . S
C4573 C4572 1.386 . S
C4573 C4577 1.393 . S
C4574 H4566 0.950 . S
C4574 C4572 1.391 . S
C4574 C4575 1.400 . S
C4575 C4574 1.400 . S
C4575 C4576 1.398 . S
C4575 C4581 1.491 . S
C4576 H4567 0.950 . S
C4576 C4575 1.398 . S
C4576 C4577 1.391 . S
C4577 H4565 0.950 . S
C4577 C4573 1.393 . S
C4577 C4576 1.391 . S
C4578 H4568 0.950 . S
C4578 C4579 1.386 . S
C4578 C4580 1.391 . S
C4579 C4578 1.386 . S
C4579 C4583 1.393 . S
C4580 H4569 0.950 . S
C4580 C4578 1.391 . S
C4580 C4581 1.400 . S
C4581 C4575 1.491 . S
C4581 C4580 1.400 . S
C4581 C4582 1.398 . S
C4582 H4570 0.950 . S
C4582 C4581 1.398 . S
C4582 C4583 1.391 . S
C4583 H4571 0.950 . S
C4583 C4579 1.393 . S
C4583 C4582 1.391 . S
H4584 C4592 0.950 . S
H4585 C4597 0.950 . S
H4586 C4594 0.950 . S
H4587 C4596 0.950 . S
H4588 C4598 0.950 . S
H4589 C4600 0.950 . S
H4590 C4602 0.950 . S
H4591 C4603 0.950 . S
C4592 H4584 0.950 . S
C4592 C4593 1.386 . S
C4592 C4594 1.391 . S
C4593 C4592 1.386 . S
C4593 C4597 1.393 . S
C4594 H4586 0.950 . S
C4594 C4592 1.391 . S
C4594 C4595 1.400 . S
C4595 C4594 1.400 . S
C4595 C4596 1.398 . S
C4595 C4601 1.491 . S
C4596 H4587 0.950 . S
C4596 C4595 1.398 . S
C4596 C4597 1.391 . S
C4597 H4585 0.950 . S
C4597 C4593 1.393 . S
C4597 C4596 1.391 . S
C4598 H4588 0.950 . S
C4598 C4599 1.386 . S
C4598 C4600 1.391 . S
C4599 C4598 1.386 . S
C4599 C4603 1.393 . S
C4600 H4589 0.950 . S
C4600 C4598 1.391 . S
C4600 C4601 1.400 . S
C4601 C4595 1.491 . S
C4601 C4600 1.400 . S
C4601 C4602 1.398 . S
C4602 H4590 0.950 . S
C4602 C4601 1.398 . S
C4602 C4603 1.391 . S
C4603 H4591 0.950 . S
C4603 C4599 1.393 . S
C4603 C4602 1.391 . S
H4604 C4612 0.950 . S
H4605 C4617 0.950 . S
H4606 C4614 0.950 . S
H4607 C4616 0.950 . S
H4608 C4618 0.950 . S
H4609 C4620 0.950 . S
H4610 C4622 0.950 . S
H4611 C4623 0.950 . S
C4612 H4604 0.950 . S
C4612 C4613 1.386 . S
C4612 C4614 1.391 . S
C4613 C4612 1.386 . S
C4613 C4617 1.393 . S
C4614 H4606 0.950 . S
C4614 C4612 1.391 . S
C4614 C4615 1.400 . S
C4615 C4614 1.400 . S
C4615 C4616 1.398 . S
C4615 C4621 1.491 . S
C4616 H4607 0.950 . S
C4616 C4615 1.398 . S
C4616 C4617 1.391 . S
C4617 H4605 0.950 . S
C4617 C4613 1.393 . S
C4617 C4616 1.391 . S
C4618 H4608 0.950 . S
C4618 C4619 1.386 . S
C4618 C4620 1.391 . S
C4619 C4618 1.386 . S
C4619 C4623 1.393 . S
C4620 H4609 0.950 . S
C4620 C4618 1.391 . S
C4620 C4621 1.400 . S
C4621 C4615 1.491 . S
C4621 C4620 1.400 . S
C4621 C4622 1.398 . S
C4622 H4610 0.950 . S
C4622 C4621 1.398 . S
C4622 C4623 1.391 . S
C4623 H4611 0.950 . S
C4623 C4619 1.393 . S
C4623 C4622 1.391 . S
H4624 C4632 0.950 . S
H4625 C4637 0.950 . S
H4626 C4634 0.950 . S
H4627 C4636 0.950 . S
H4628 C4638 0.950 . S
H4629 C4640 0.950 . S
H4630 C4642 0.950 . S
H4631 C4643 0.950 . S
C4632 H4624 0.950 . S
C4632 C4633 1.386 . S
C4632 C4634 1.391 . S
C4633 C4632 1.386 . S
C4633 C4637 1.393 . S
C4634 H4626 0.950 . S
C4634 C4632 1.391 . S
C4634 C4635 1.400 . S
C4635 C4634 1.400 . S
C4635 C4636 1.398 . S
C4635 C4641 1.491 . S
C4636 H4627 0.950 . S
C4636 C4635 1.398 . S
C4636 C4637 1.391 . S
C4637 H4625 0.950 . S
C4637 C4633 1.393 . S
C4637 C4636 1.391 . S
C4638 H4628 0.950 . S
C4638 C4639 1.386 . S
C4638 C4640 1.391 . S
C4639 C4638 1.386 . S
C4639 C4643 1.393 . S
C4640 H4629 0.950 . S
C4640 C4638 1.391 . S
C4640 C4641 1.400 . S
C4641 C4635 1.491 . S
C4641 C4640 1.400 . S
C4641 C4642 1.398 . S
C4642 H4630 0.950 . S
C4642 C4641 1.398 . S
C4642 C4643 1.391 . S
C4643 H4631 0.950 . S
C4643 C4639 1.393 . S
C4643 C4642 1.391 . S
H4644 C4652 0.950 . S
H4645 C4657 0.950 . S
H4646 C4654 0.950 . S
H4647 C4656 0.950 . S
H4648 C4658 0.950 . S
H4649 C4660 0.950 . S
H4650 C4662 0.950 . S
H4651 C4663 0.950 . S
C4652 H4644 0.950 . S
C4652 C4653 1.386 . S
C4652 C4654 1.391 . S
C4653 C4652 1.386 . S
C4653 C4657 1.393 . S
C4654 H4646 0.950 . S
C4654 C4652 1.391 . S
C4654 C4655 1.400 . S
C4655 C4654 1.400 . S
C4655 C4656 1.398 . S
C4655 C4661 1.491 . S
C4656 H4647 0.950 . S
C4656 C4655 1.398 . S
C4656 C4657 1.391 . S
C4657 H4645 0.950 . S
C4657 C4653 1.393 . S
C4657 C4656 1.391 . S
C4658 H4648 0.950 . S
C4658 C4659 1.386 . S
C4658 C4660 1.391 . S
C4659 C4658 1.386 . S
C4659 C4663 1.393 . S
C4660 H4649 0.950 . S
C4660 C4658 1.391 . S
C4660 C4661 1.400 . S
C4661 C4655 1.491 . S
C4661 C4660 1.400 . S
C4661 C4662 1.398 . S
C4662 H4650 0.950 . S
C4662 C4661 1.398 . S
C4662 C4663 1.391 . S
C4663 H4651 0.950 . S
C4663 C4659 1.393 . S
C4663 C4662 1.391 . S
H4664 C4672 0.950 . S
H4665 C4677 0.950 . S
H4666 C4674 0.950 . S
H4667 C4676 0.950 . S
H4668 C4678 0.950 . S
H4669 C4680 0.950 . S
H4670 C4682 0.950 . S
H4671 C4683 0.950 . S
C4672 H4664 0.950 . S
C4672 C4673 1.386 . S
C4672 C4674 1.391 . S
C4673 C4672 1.386 . S
C4673 C4677 1.393 . S
C4674 H4666 0.950 . S
C4674 C4672 1.391 . S
C4674 C4675 1.400 . S
C4675 C4674 1.400 . S
C4675 C4676 1.398 . S
C4675 C4681 1.491 . S
C4676 H4667 0.950 . S
C4676 C4675 1.398 . S
C4676 C4677 1.391 . S
C4677 H4665 0.950 . S
C4677 C4673 1.393 . S
C4677 C4676 1.391 . S
C4678 H4668 0.950 . S
C4678 C4679 1.386 . S
C4678 C4680 1.391 . S
C4679 C4678 1.386 . S
C4679 C4683 1.393 . S
C4680 H4669 0.950 . S
C4680 C4678 1.391 . S
C4680 C4681 1.400 . S
C4681 C4675 1.491 . S
C4681 C4680 1.400 . S
C4681 C4682 1.398 . S
C4682 H4670 0.950 . S
C4682 C4681 1.398 . S
C4682 C4683 1.391 . S
C4683 H4671 0.950 . S
C4683 C4679 1.393 . S
C4683 C4682 1.391 . S
H4684 C4692 0.950 . S
H4685 C4697 0.950 . S
H4686 C4694 0.950 . S
H4687 C4696 0.950 . S
H4688 C4698 0.950 . S
H4689 C4700 0.950 . S
H4690 C4702 0.950 . S
H4691 C4703 0.950 . S
C4692 H4684 0.950 . S
C4692 C4693 1.386 . S
C4692 C4694 1.391 . S
C4693 C4692 1.386 . S
C4693 C4697 1.393 . S
C4694 H4686 0.950 . S
C4694 C4692 1.391 . S
C4694 C4695 1.400 . S
C4695 C4694 1.400 . S
C4695 C4696 1.398 . S
C4695 C4701 1.491 . S
C4696 H4687 0.950 . S
C4696 C4695 1.398 . S
C4696 C4697 1.391 . S
C4697 H4685 0.950 . S
C4697 C4693 1.393 . S
C4697 C4696 1.391 . S
C4698 H4688 0.950 . S
C4698 C4699 1.386 . S
C4698 C4700 1.391 . S
C4699 C4698 1.386 . S
C4699 C4703 1.393 . S
C4700 H4689 0.950 . S
C4700 C4698 1.391 . S
C4700 C4701 1.400 . S
C4701 C4695 1.491 . S
C4701 C4700 1.400 . S
C4701 C4702 1.398 . S
C4702 H4690 0.950 . S
C4702 C4701 1.398 . S
C4702 C4703 1.391 . S
C4703 H4691 0.950 . S
C4703 C4699 1.393 . S
C4703 C4702 1.391 . S
H4704 C4712 0.950 . S
H4705 C4717 0.950 . S
H4706 C4714 0.950 . S
H4707 C4716 0.950 . S
H4708 C4718 0.950 . S
H4709 C4720 0.950 1_556 S
H4710 C4722 0.950 1_556 S
H4711 C4723 0.950 . S
C4712 H4704 0.950 . S
C4712 C4713 1.386 . S
C4712 C4714 1.391 . S
C4713 C4712 1.386 . S
C4713 C4717 1.393 . S
C4714 H4706 0.950 . S
C4714 C4712 1.391 . S
C4714 C4715 1.400 . S
C4715 C4714 1.400 . S
C4715 C4716 1.398 . S
C4715 C4721 1.491 . S
C4716 H4707 0.950 . S
C4716 C4715 1.398 . S
C4716 C4717 1.391 . S
C4717 H4705 0.950 . S
C4717 C4713 1.393 . S
C4717 C4716 1.391 . S
C4718 H4708 0.950 . S
C4718 C4719 1.386 . S
C4718 C4720 1.391 . S
C4719 C4718 1.386 . S
C4719 C4723 1.393 . S
C4720 H4709 0.950 1_554 S
C4720 C4718 1.391 . S
C4720 C4721 1.400 1_554 S
C4721 C4715 1.491 . S
C4721 C4720 1.400 1_556 S
C4721 C4722 1.398 1_556 S
C4722 H4710 0.950 1_554 S
C4722 C4721 1.398 1_554 S
C4722 C4723 1.391 . S
C4723 H4711 0.950 . S
C4723 C4719 1.393 . S
C4723 C4722 1.391 . S
H4724 C4732 0.950 . S
H4725 C4737 0.950 . S
H4726 C4734 0.950 1_556 S
H4727 C4736 0.950 1_556 S
H4728 C4738 0.950 . S
H4729 C4740 0.950 . S
H4730 C4742 0.950 . S
H4731 C4743 0.950 . S
C4732 H4724 0.950 . S
C4732 C4733 1.386 . S
C4732 C4734 1.391 . S
C4733 C4732 1.386 . S
C4733 C4737 1.393 . S
C4734 H4726 0.950 1_554 S
C4734 C4732 1.391 . S
C4734 C4735 1.400 1_554 S
C4735 C4734 1.400 1_556 S
C4735 C4736 1.398 1_556 S
C4735 C4741 1.491 . S
C4736 H4727 0.950 1_554 S
C4736 C4735 1.398 1_554 S
C4736 C4737 1.391 . S
C4737 H4725 0.950 . S
C4737 C4733 1.393 . S
C4737 C4736 1.391 . S
C4738 H4728 0.950 . S
C4738 C4739 1.386 . S
C4738 C4740 1.391 . S
C4739 C4738 1.386 . S
C4739 C4743 1.393 . S
C4740 H4729 0.950 . S
C4740 C4738 1.391 . S
C4740 C4741 1.400 . S
C4741 C4735 1.491 . S
C4741 C4740 1.400 . S
C4741 C4742 1.398 . S
C4742 H4730 0.950 . S
C4742 C4741 1.398 . S
C4742 C4743 1.391 . S
C4743 H4731 0.950 . S
C4743 C4739 1.393 . S
C4743 C4742 1.391 . S
H4744 C4752 0.950 . S
H4745 C4757 0.950 . S
H4746 C4754 0.950 1_556 S
H4747 C4756 0.950 1_556 S
H4748 C4758 0.950 . S
H4749 C4760 0.950 . S
H4750 C4762 0.950 . S
H4751 C4763 0.950 . S
C4752 H4744 0.950 . S
C4752 C4753 1.386 . S
C4752 C4754 1.391 . S
C4753 C4752 1.386 . S
C4753 C4757 1.393 . S
C4754 H4746 0.950 1_554 S
C4754 C4752 1.391 . S
C4754 C4755 1.400 1_554 S
C4755 C4754 1.400 1_556 S
C4755 C4756 1.398 1_556 S
C4755 C4761 1.491 . S
C4756 H4747 0.950 1_554 S
C4756 C4755 1.398 1_554 S
C4756 C4757 1.391 . S
C4757 H4745 0.950 . S
C4757 C4753 1.393 . S
C4757 C4756 1.391 . S
C4758 H4748 0.950 . S
C4758 C4759 1.386 . S
C4758 C4760 1.391 . S
C4759 C4758 1.386 . S
C4759 C4763 1.393 . S
C4760 H4749 0.950 . S
C4760 C4758 1.391 . S
C4760 C4761 1.400 . S
C4761 C4755 1.491 . S
C4761 C4760 1.400 . S
C4761 C4762 1.398 . S
C4762 H4750 0.950 . S
C4762 C4761 1.398 . S
C4762 C4763 1.391 . S
C4763 H4751 0.950 . S
C4763 C4759 1.393 . S
C4763 C4762 1.391 . S
H4764 C4772 0.950 . S
H4765 C4777 0.950 . S
H4766 C4774 0.950 1_556 S
H4767 C4776 0.950 1_556 S
H4768 C4778 0.950 . S
H4769 C4780 0.950 . S
H4770 C4782 0.950 . S
H4771 C4783 0.950 . S
C4772 H4764 0.950 . S
C4772 C4773 1.386 . S
C4772 C4774 1.391 . S
C4773 C4772 1.386 . S
C4773 C4777 1.393 . S
C4774 H4766 0.950 1_554 S
C4774 C4772 1.391 . S
C4774 C4775 1.400 1_554 S
C4775 C4774 1.400 1_556 S
C4775 C4776 1.398 1_556 S
C4775 C4781 1.491 . S
C4776 H4767 0.950 1_554 S
C4776 C4775 1.398 1_554 S
C4776 C4777 1.391 . S
C4777 H4765 0.950 . S
C4777 C4773 1.393 . S
C4777 C4776 1.391 . S
C4778 H4768 0.950 . S
C4778 C4779 1.386 . S
C4778 C4780 1.391 . S
C4779 C4778 1.386 . S
C4779 C4783 1.393 . S
C4780 H4769 0.950 . S
C4780 C4778 1.391 . S
C4780 C4781 1.400 . S
C4781 C4775 1.491 . S
C4781 C4780 1.400 . S
C4781 C4782 1.398 . S
C4782 H4770 0.950 . S
C4782 C4781 1.398 . S
C4782 C4783 1.391 . S
C4783 H4771 0.950 . S
C4783 C4779 1.393 . S
C4783 C4782 1.391 . S
H4784 C4792 0.950 . S
H4785 C4797 0.950 . S
H4786 C4794 0.950 . S
H4787 C4796 0.950 . S
H4788 C4798 0.950 . S
H4789 C4800 0.950 1_554 S
H4790 C4802 0.950 1_554 S
H4791 C4803 0.950 . S
C4792 H4784 0.950 . S
C4792 C4793 1.386 . S
C4792 C4794 1.391 . S
C4793 C4792 1.386 . S
C4793 C4797 1.393 . S
C4794 H4786 0.950 . S
C4794 C4792 1.391 . S
C4794 C4795 1.400 . S
C4795 C4794 1.400 . S
C4795 C4796 1.398 . S
C4795 C4801 1.491 . S
C4796 H4787 0.950 . S
C4796 C4795 1.398 . S
C4796 C4797 1.391 . S
C4797 H4785 0.950 . S
C4797 C4793 1.393 . S
C4797 C4796 1.391 . S
C4798 H4788 0.950 . S
C4798 C4799 1.386 . S
C4798 C4800 1.391 . S
C4799 C4798 1.386 . S
C4799 C4803 1.393 . S
C4800 H4789 0.950 1_556 S
C4800 C4798 1.391 . S
C4800 C4801 1.400 1_556 S
C4801 C4795 1.491 . S
C4801 C4800 1.400 1_554 S
C4801 C4802 1.398 1_554 S
C4802 H4790 0.950 1_556 S
C4802 C4801 1.398 1_556 S
C4802 C4803 1.391 . S
C4803 H4791 0.950 . S
C4803 C4799 1.393 . S
C4803 C4802 1.391 . S
H4804 C4812 0.950 . S
H4805 C4817 0.950 . S
H4806 C4814 0.950 1_554 S
H4807 C4816 0.950 1_554 S
H4808 C4818 0.950 . S
H4809 C4820 0.950 . S
H4810 C4822 0.950 . S
H4811 C4823 0.950 . S
C4812 H4804 0.950 . S
C4812 C4813 1.386 . S
C4812 C4814 1.391 . S
C4813 C4812 1.386 . S
C4813 C4817 1.393 . S
C4814 H4806 0.950 1_556 S
C4814 C4812 1.391 . S
C4814 C4815 1.400 1_556 S
C4815 C4814 1.400 1_554 S
C4815 C4816 1.398 1_554 S
C4815 C4821 1.491 . S
C4816 H4807 0.950 1_556 S
C4816 C4815 1.398 1_556 S
C4816 C4817 1.391 . S
C4817 H4805 0.950 . S
C4817 C4813 1.393 . S
C4817 C4816 1.391 . S
C4818 H4808 0.950 . S
C4818 C4819 1.386 . S
C4818 C4820 1.391 . S
C4819 C4818 1.386 . S
C4819 C4823 1.393 . S
C4820 H4809 0.950 . S
C4820 C4818 1.391 . S
C4820 C4821 1.400 . S
C4821 C4815 1.491 . S
C4821 C4820 1.400 . S
C4821 C4822 1.398 . S
C4822 H4810 0.950 . S
C4822 C4821 1.398 . S
C4822 C4823 1.391 . S
C4823 H4811 0.950 . S
C4823 C4819 1.393 . S
C4823 C4822 1.391 . S
H4824 C4832 0.950 . S
H4825 C4837 0.950 . S
H4826 C4834 0.950 . S
H4827 C4836 0.950 . S
H4828 C4838 0.950 . S
H4829 C4840 0.938 1_554 S
H4830 C4842 0.967 . S
H4831 C4843 0.950 . S
C4832 H4824 0.950 . S
C4832 C4833 1.386 . S
C4832 C4834 1.391 . S
C4833 C4832 1.386 . S
C4833 C4837 1.393 . S
C4834 H4826 0.950 . S
C4834 C4832 1.391 . S
C4834 C4835 1.400 . S
C4835 C4834 1.400 . S
C4835 C4836 1.398 . S
C4835 C4841 1.491 . S
C4836 H4827 0.950 . S
C4836 C4835 1.398 . S
C4836 C4837 1.391 . S
C4837 H4825 0.950 . S
C4837 C4833 1.393 . S
C4837 C4836 1.391 . S
C4838 H4828 0.950 . S
C4838 C4839 1.386 . S
C4838 C4840 1.411 . S
C4839 C4838 1.386 . S
C4839 C4843 1.393 . S
C4840 H4829 0.938 1_556 S
C4840 C4838 1.411 . S
C4840 C4841 1.393 1_556 S
C4841 C4835 1.491 . S
C4841 C4840 1.393 1_554 S
C4841 C4842 1.398 1_554 S
C4842 H4830 0.967 . S
C4842 C4841 1.398 1_556 S
C4842 C4843 1.391 . S
C4843 H4831 0.950 . S
C4843 C4839 1.393 . S
C4843 C4842 1.391 . S
H4844 C4852 0.950 . S
H4845 C4857 0.950 . S
H4846 C4854 0.950 1_554 S
H4847 C4856 0.950 1_554 S
H4848 C4858 0.950 . S
H4849 C4860 0.950 . S
H4850 C4862 0.950 . S
H4851 C4863 0.950 . S
C4852 H4844 0.950 . S
C4852 C4853 1.386 . S
C4852 C4854 1.391 . S
C4853 C4852 1.386 . S
C4853 C4857 1.393 . S
C4854 H4846 0.950 1_556 S
C4854 C4852 1.391 . S
C4854 C4855 1.400 1_556 S
C4855 C4854 1.400 1_554 S
C4855 C4856 1.398 1_554 S
C4855 C4861 1.491 . S
C4856 H4847 0.950 1_556 S
C4856 C4855 1.398 1_556 S
C4856 C4857 1.391 . S
C4857 H4845 0.950 . S
C4857 C4853 1.393 . S
C4857 C4856 1.391 . S
C4858 H4848 0.950 . S
C4858 C4859 1.386 . S
C4858 C4860 1.391 . S
C4859 C4858 1.386 . S
C4859 C4863 1.393 . S
C4860 H4849 0.950 . S
C4860 C4858 1.391 . S
C4860 C4861 1.400 . S
C4861 C4855 1.491 . S
C4861 C4860 1.400 . S
C4861 C4862 1.398 . S
C4862 H4850 0.950 . S
C4862 C4861 1.398 . S
C4862 C4863 1.391 . S
C4863 H4851 0.950 . S
C4863 C4859 1.393 . S
C4863 C4862 1.391 . S
H4864 C4872 0.950 . S
H4865 C4877 0.950 . S
H4866 C4874 0.950 . S
H4867 C4876 0.950 . S
H4868 C4878 0.950 . S
H4869 C4880 0.926 1_655 S
H4870 C4882 0.956 . S
H4871 C4883 0.950 . S
C4872 H4864 0.950 . S
C4872 C4873 1.386 . S
C4872 C4874 1.391 . S
C4873 C4872 1.386 . S
C4873 C4877 1.393 . S
C4874 H4866 0.950 . S
C4874 C4872 1.391 . S
C4874 C4875 1.400 . S
C4875 C4874 1.400 . S
C4875 C4876 1.398 . S
C4875 C4881 1.491 . S
C4876 H4867 0.950 . S
C4876 C4875 1.398 . S
C4876 C4877 1.391 . S
C4877 H4865 0.950 . S
C4877 C4873 1.393 . S
C4877 C4876 1.391 . S
C4878 H4868 0.950 . S
C4878 C4879 1.386 . S
C4878 C4880 1.431 . S
C4879 C4878 1.386 . S
C4879 C4883 1.393 . S
C4880 H4869 0.926 1_455 S
C4880 C4878 1.431 . S
C4880 C4881 1.385 1_455 S
C4881 C4875 1.491 . S
C4881 C4880 1.385 1_655 S
C4881 C4882 1.398 1_655 S
C4882 H4870 0.956 . S
C4882 C4881 1.398 1_455 S
C4882 C4883 1.391 . S
C4883 H4871 0.950 . S
C4883 C4879 1.393 . S
C4883 C4882 1.391 . S
H4884 C4892 0.950 . S
H4885 C4897 0.950 . S
H4886 C4894 0.912 1_565 S
H4887 C4896 0.931 1_565 S
H4888 C4898 0.950 . S
H4889 C4900 0.950 . S
H4890 C4902 0.950 . S
H4891 C4903 0.950 . S
C4892 H4884 0.950 . S
C4892 C4893 1.386 . S
C4892 C4894 1.460 . S
C4893 C4892 1.386 . S
C4893 C4897 1.393 . S
C4894 H4886 0.912 1_545 S
C4894 C4892 1.460 . S
C4894 C4895 1.372 1_545 S
C4895 C4894 1.372 1_565 S
C4895 C4896 1.398 1_565 S
C4895 C4901 1.491 . S
C4896 H4887 0.931 1_545 S
C4896 C4895 1.398 1_545 S
C4896 C4897 1.391 . S
C4897 H4885 0.950 . S
C4897 C4893 1.393 . S
C4897 C4896 1.391 . S
C4898 H4888 0.950 . S
C4898 C4899 1.386 . S
C4898 C4900 1.391 . S
C4899 C4898 1.386 . S
C4899 C4903 1.393 . S
C4900 H4889 0.950 . S
C4900 C4898 1.391 . S
C4900 C4901 1.400 . S
C4901 C4895 1.491 . S
C4901 C4900 1.400 . S
C4901 C4902 1.398 . S
C4902 H4890 0.950 . S
C4902 C4901 1.398 . S
C4902 C4903 1.391 . S
C4903 H4891 0.950 . S
C4903 C4899 1.393 . S
C4903 C4902 1.391 . S
H4904 C4912 0.950 . S
H4905 C4917 0.950 . S
H4906 C4914 0.950 . S
H4907 C4916 0.950 . S
H4908 C4918 0.950 . S
H4909 C4920 0.938 1_455 S
H4910 C4922 0.959 . S
H4911 C4923 0.950 . S
C4912 H4904 0.950 . S
C4912 C4913 1.386 . S
C4912 C4914 1.391 . S
C4913 C4912 1.386 . S
C4913 C4917 1.393 . S
C4914 H4906 0.950 . S
C4914 C4912 1.391 . S
C4914 C4915 1.400 . S
C4915 C4914 1.400 . S
C4915 C4916 1.398 . S
C4915 C4921 1.491 . S
C4916 H4907 0.950 . S
C4916 C4915 1.398 . S
C4916 C4917 1.391 . S
C4917 H4905 0.950 . S
C4917 C4913 1.393 . S
C4917 C4916 1.391 . S
C4918 H4908 0.950 . S
C4918 C4919 1.386 . S
C4918 C4920 1.411 . S
C4919 C4918 1.386 . S
C4919 C4923 1.393 . S
C4920 H4909 0.938 1_655 S
C4920 C4918 1.411 . S
C4920 C4921 1.393 1_655 S
C4921 C4915 1.491 . S
C4921 C4920 1.393 1_455 S
C4921 C4922 1.398 1_455 S
C4922 H4910 0.959 . S
C4922 C4921 1.398 1_655 S
C4922 C4923 1.391 . S
C4923 H4911 0.950 . S
C4923 C4919 1.393 . S
C4923 C4922 1.391 . S
H4924 C4932 0.950 . S
H4925 C4937 0.950 . S
H4926 C4934 0.947 1_545 S
H4927 C4936 0.913 1_545 S
H4928 C4938 0.950 . S
H4929 C4940 0.950 . S
H4930 C4942 0.950 . S
H4931 C4943 0.950 . S
C4932 H4924 0.950 . S
C4932 C4933 1.386 . S
C4932 C4934 1.391 . S
C4933 C4932 1.386 . S
C4933 C4937 1.393 . S
C4934 H4926 0.947 1_565 S
C4934 C4932 1.391 . S
C4934 C4935 1.400 1_565 S
C4935 C4934 1.400 1_545 S
C4935 C4936 1.371 1_545 S
C4935 C4941 1.491 . S
C4936 H4927 0.913 1_565 S
C4936 C4935 1.371 1_565 S
C4936 C4937 1.457 . S
C4937 H4925 0.950 . S
C4937 C4933 1.393 . S
C4937 C4936 1.457 . S
C4938 H4928 0.950 . S
C4938 C4939 1.386 . S
C4938 C4940 1.391 . S
C4939 C4938 1.386 . S
C4939 C4943 1.393 . S
C4940 H4929 0.950 . S
C4940 C4938 1.391 . S
C4940 C4941 1.400 . S
C4941 C4935 1.491 . S
C4941 C4940 1.400 . S
C4941 C4942 1.398 . S
C4942 H4930 0.950 . S
C4942 C4941 1.398 . S
C4942 C4943 1.391 . S
C4943 H4931 0.950 . S
C4943 C4939 1.393 . S
C4943 C4942 1.391 . S
H4944 C4952 0.950 . S
H4945 C4957 0.950 . S
H4946 C4954 0.950 1_655 S
H4947 C4956 0.950 1_655 S
H4948 C4958 0.950 . S
H4949 C4960 0.950 . S
H4950 C4962 0.950 . S
H4951 C4963 0.950 . S
C4952 H4944 0.950 . S
C4952 C4953 1.386 . S
C4952 C4954 1.391 . S
C4953 C4952 1.386 . S
C4953 C4957 1.393 . S
C4954 H4946 0.950 1_455 S
C4954 C4952 1.391 . S
C4954 C4955 1.400 1_455 S
C4955 C4954 1.400 1_655 S
C4955 C4956 1.398 1_655 S
C4955 C4961 1.491 . S
C4956 H4947 0.950 1_455 S
C4956 C4955 1.398 1_455 S
C4956 C4957 1.391 . S
C4957 H4945 0.950 . S
C4957 C4953 1.393 . S
C4957 C4956 1.391 . S
C4958 H4948 0.950 . S
C4958 C4959 1.386 . S
C4958 C4960 1.391 . S
C4959 C4958 1.386 . S
C4959 C4963 1.393 . S
C4960 H4949 0.950 . S
C4960 C4958 1.391 . S
C4960 C4961 1.400 . S
C4961 C4955 1.491 . S
C4961 C4960 1.400 . S
C4961 C4962 1.398 . S
C4962 H4950 0.950 . S
C4962 C4961 1.398 . S
C4962 C4963 1.391 . S
C4963 H4951 0.950 . S
C4963 C4959 1.393 . S
C4963 C4962 1.391 . S
H4964 C4972 0.950 . S
H4965 C4977 0.950 . S
H4966 C4974 0.950 1_565 S
H4967 C4976 0.950 1_565 S
H4968 C4978 0.950 . S
H4969 C4980 0.950 . S
H4970 C4982 0.950 . S
H4971 C4983 0.950 . S
C4972 H4964 0.950 . S
C4972 C4973 1.386 . S
C4972 C4974 1.391 . S
C4973 C4972 1.386 . S
C4973 C4977 1.393 . S
C4974 H4966 0.950 1_545 S
C4974 C4972 1.391 . S
C4974 C4975 1.400 1_545 S
C4975 C4974 1.400 1_565 S
C4975 C4976 1.398 1_565 S
C4975 C4981 1.491 . S
C4976 H4967 0.950 1_545 S
C4976 C4975 1.398 1_545 S
C4976 C4977 1.391 . S
C4977 H4965 0.950 . S
C4977 C4973 1.393 . S
C4977 C4976 1.391 . S
C4978 H4968 0.950 . S
C4978 C4979 1.386 . S
C4978 C4980 1.391 . S
C4979 C4978 1.386 . S
C4979 C4983 1.393 . S
C4980 H4969 0.950 . S
C4980 C4978 1.391 . S
C4980 C4981 1.400 . S
C4981 C4975 1.491 . S
C4981 C4980 1.400 . S
C4981 C4982 1.398 . S
C4982 H4970 0.950 . S
C4982 C4981 1.398 . S
C4982 C4983 1.391 . S
C4983 H4971 0.950 . S
C4983 C4979 1.393 . S
C4983 C4982 1.391 . S
H4984 C4992 0.950 . S
H4985 C4997 0.950 . S
H4986 C4994 0.969 . S
H4987 C4996 0.947 1_455 S
H4988 C4998 0.950 . S
H4989 C5000 0.950 . S
H4990 C5002 0.950 . S
H4991 C5003 0.950 . S
C4992 H4984 0.950 . S
C4992 C4993 1.386 . S
C4992 C4994 1.391 . S
C4993 C4992 1.386 . S
C4993 C4997 1.393 . S
C4994 H4986 0.969 . S
C4994 C4992 1.391 . S
C4994 C4995 1.400 1_655 S
C4995 C4994 1.400 1_455 S
C4995 C4996 1.396 1_455 S
C4995 C5001 1.491 . S
C4996 H4987 0.947 1_655 S
C4996 C4995 1.396 1_655 S
C4996 C4997 1.396 . S
C4997 H4985 0.950 . S
C4997 C4993 1.393 . S
C4997 C4996 1.396 . S
C4998 H4988 0.950 . S
C4998 C4999 1.386 . S
C4998 C5000 1.391 . S
C4999 C4998 1.386 . S
C4999 C5003 1.393 . S
C5000 H4989 0.950 . S
C5000 C4998 1.391 . S
C5000 C5001 1.400 . S
C5001 C4995 1.491 . S
C5001 C5000 1.400 . S
C5001 C5002 1.398 . S
C5002 H4990 0.950 . S
C5002 C5001 1.398 . S
C5002 C5003 1.391 . S
C5003 H4991 0.950 . S
C5003 C4999 1.393 . S
C5003 C5002 1.391 . S
H5004 C5012 0.950 . S
H5005 C5017 0.950 . S
H5006 C5014 0.950 1_545 S
H5007 C5016 0.950 1_545 S
H5008 C5018 0.950 . S
H5009 C5020 0.950 . S
H5010 C5022 0.950 . S
H5011 C5023 0.950 . S
C5012 H5004 0.950 . S
C5012 C5013 1.386 . S
C5012 C5014 1.391 . S
C5013 C5012 1.386 . S
C5013 C5017 1.393 . S
C5014 H5006 0.950 1_565 S
C5014 C5012 1.391 . S
C5014 C5015 1.400 1_565 S
C5015 C5014 1.400 1_545 S
C5015 C5016 1.398 1_545 S
C5015 C5021 1.491 . S
C5016 H5007 0.950 1_565 S
C5016 C5015 1.398 1_565 S
C5016 C5017 1.391 . S
C5017 H5005 0.950 . S
C5017 C5013 1.393 . S
C5017 C5016 1.391 . S
C5018 H5008 0.950 . S
C5018 C5019 1.386 . S
C5018 C5020 1.391 . S
C5019 C5018 1.386 . S
C5019 C5023 1.393 . S
C5020 H5009 0.950 . S
C5020 C5018 1.391 . S
C5020 C5021 1.400 . S
C5021 C5015 1.491 . S
C5021 C5020 1.400 . S
C5021 C5022 1.398 . S
C5022 H5010 0.950 . S
C5022 C5021 1.398 . S
C5022 C5023 1.391 . S
C5023 H5011 0.950 . S
C5023 C5019 1.393 . S
C5023 C5022 1.391 . S
H5024 C5032 0.950 . S
H5025 C5037 0.950 . S
H5026 C5034 0.950 . S
H5027 C5036 0.950 . S
H5028 C5038 0.950 . S
H5029 C5040 0.945 1_565 S
H5030 C5042 0.911 1_565 S
H5031 C5043 0.950 . S
C5032 H5024 0.950 . S
C5032 C5033 1.386 . S
C5032 C5034 1.391 . S
C5033 C5032 1.386 . S
C5033 C5037 1.393 . S
C5034 H5026 0.950 . S
C5034 C5032 1.391 . S
C5034 C5035 1.400 . S
C5035 C5034 1.400 . S
C5035 C5036 1.398 . S
C5035 C5041 1.491 . S
C5036 H5027 0.950 . S
C5036 C5035 1.398 . S
C5036 C5037 1.391 . S
C5037 H5025 0.950 . S
C5037 C5033 1.393 . S
C5037 C5036 1.391 . S
C5038 H5028 0.950 . S
C5038 C5039 1.386 . S
C5038 C5040 1.391 . S
C5039 C5038 1.386 . S
C5039 C5043 1.393 . S
C5040 H5029 0.945 1_545 S
C5040 C5038 1.391 . S
C5040 C5041 1.400 1_545 S
C5041 C5035 1.491 . S
C5041 C5040 1.400 1_565 S
C5041 C5042 1.370 1_565 S
C5042 H5030 0.911 1_545 S
C5042 C5041 1.370 1_545 S
C5042 C5043 1.460 . S
C5043 H5031 0.950 . S
C5043 C5039 1.393 . S
C5043 C5042 1.460 . S
H5044 C5052 0.950 . S
H5045 C5057 0.950 . S
H5046 C5054 0.950 1_545 S
H5047 C5056 0.950 1_545 S
H5048 C5058 0.950 . S
H5049 C5060 0.950 . S
H5050 C5062 0.950 . S
H5051 C5063 0.950 . S
C5052 H5044 0.950 . S
C5052 C5053 1.386 . S
C5052 C5054 1.391 . S
C5053 C5052 1.386 . S
C5053 C5057 1.393 . S
C5054 H5046 0.950 1_565 S
C5054 C5052 1.391 . S
C5054 C5055 1.400 1_565 S
C5055 C5054 1.400 1_545 S
C5055 C5056 1.398 1_545 S
C5055 C5061 1.491 . S
C5056 H5047 0.950 1_565 S
C5056 C5055 1.398 1_565 S
C5056 C5057 1.391 . S
C5057 H5045 0.950 . S
C5057 C5053 1.393 . S
C5057 C5056 1.391 . S
C5058 H5048 0.950 . S
C5058 C5059 1.386 . S
C5058 C5060 1.391 . S
C5059 C5058 1.386 . S
C5059 C5063 1.393 . S
C5060 H5049 0.950 . S
C5060 C5058 1.391 . S
C5060 C5061 1.400 . S
C5061 C5055 1.491 . S
C5061 C5060 1.400 . S
C5061 C5062 1.398 . S
C5062 H5050 0.950 . S
C5062 C5061 1.398 . S
C5062 C5063 1.391 . S
C5063 H5051 0.950 . S
C5063 C5059 1.393 . S
C5063 C5062 1.391 . S
H5064 C5072 0.950 . S
H5065 C5077 0.950 . S
H5066 C5074 0.970 . S
H5067 C5076 0.943 1_655 S
H5068 C5078 0.950 . S
H5069 C5080 0.950 . S
H5070 C5082 0.950 . S
H5071 C5083 0.950 . S
C5072 H5064 0.950 . S
C5072 C5073 1.386 . S
C5072 C5074 1.391 . S
C5073 C5072 1.386 . S
C5073 C5077 1.393 . S
C5074 H5066 0.970 . S
C5074 C5072 1.391 . S
C5074 C5075 1.400 1_455 S
C5075 C5074 1.400 1_655 S
C5075 C5076 1.394 1_655 S
C5075 C5081 1.491 . S
C5076 H5067 0.943 1_455 S
C5076 C5075 1.394 1_455 S
C5076 C5077 1.402 . S
C5077 H5065 0.950 . S
C5077 C5073 1.393 . S
C5077 C5076 1.402 . S
C5078 H5068 0.950 . S
C5078 C5079 1.386 . S
C5078 C5080 1.391 . S
C5079 C5078 1.386 . S
C5079 C5083 1.393 . S
C5080 H5069 0.950 . S
C5080 C5078 1.391 . S
C5080 C5081 1.400 . S
C5081 C5075 1.491 . S
C5081 C5080 1.400 . S
C5081 C5082 1.398 . S
C5082 H5070 0.950 . S
C5082 C5081 1.398 . S
C5082 C5083 1.391 . S
C5083 H5071 0.950 . S
C5083 C5079 1.393 . S
C5083 C5082 1.391 . S
H5084 C5092 0.950 . S
H5085 C5097 0.950 . S
H5086 C5094 0.908 1_565 S
H5087 C5096 0.943 1_565 S
H5088 C5098 0.950 . S
H5089 C5100 0.950 . S
H5090 C5102 0.950 . S
H5091 C5103 0.950 . S
C5092 H5084 0.950 . S
C5092 C5093 1.386 . S
C5092 C5094 1.466 . S
C5093 C5092 1.386 . S
C5093 C5097 1.393 . S
C5094 H5086 0.908 1_545 S
C5094 C5092 1.466 . S
C5094 C5095 1.370 1_545 S
C5095 C5094 1.370 1_565 S
C5095 C5096 1.398 1_565 S
C5095 C5101 1.491 . S
C5096 H5087 0.943 1_545 S
C5096 C5095 1.398 1_545 S
C5096 C5097 1.391 . S
C5097 H5085 0.950 . S
C5097 C5093 1.393 . S
C5097 C5096 1.391 . S
C5098 H5088 0.950 . S
C5098 C5099 1.386 . S
C5098 C5100 1.391 . S
C5099 C5098 1.386 . S
C5099 C5103 1.393 . S
C5100 H5089 0.950 . S
C5100 C5098 1.391 . S
C5100 C5101 1.400 . S
C5101 C5095 1.491 . S
C5101 C5100 1.400 . S
C5101 C5102 1.398 . S
C5102 H5090 0.950 . S
C5102 C5101 1.398 . S
C5102 C5103 1.391 . S
C5103 H5091 0.950 . S
C5103 C5099 1.393 . S
C5103 C5102 1.391 . S
H5104 C5112 0.950 . S
H5105 C5117 0.950 . S
H5106 C5114 0.903 1_455 S
H5107 C5116 0.936 1_455 S
H5108 C5118 0.950 . S
H5109 C5120 0.950 . S
H5110 C5122 0.950 . S
H5111 C5123 0.950 . S
C5112 H5104 0.950 . S
C5112 C5113 1.386 . S
C5112 C5114 1.479 . S
C5113 C5112 1.386 . S
C5113 C5117 1.393 . S
C5114 H5106 0.903 1_655 S
C5114 C5112 1.479 . S
C5114 C5115 1.364 1_655 S
C5115 C5114 1.364 1_455 S
C5115 C5116 1.398 1_455 S
C5115 C5121 1.491 . S
C5116 H5107 0.936 1_655 S
C5116 C5115 1.398 1_655 S
C5116 C5117 1.391 . S
C5117 H5105 0.950 . S
C5117 C5113 1.393 . S
C5117 C5116 1.391 . S
C5118 H5108 0.950 . S
C5118 C5119 1.386 . S
C5118 C5120 1.391 . S
C5119 C5118 1.386 . S
C5119 C5123 1.393 . S
C5120 H5109 0.950 . S
C5120 C5118 1.391 . S
C5120 C5121 1.400 . S
C5121 C5115 1.491 . S
C5121 C5120 1.400 . S
C5121 C5122 1.398 . S
C5122 H5110 0.950 . S
C5122 C5121 1.398 . S
C5122 C5123 1.391 . S
C5123 H5111 0.950 . S
C5123 C5119 1.393 . S
C5123 C5122 1.391 . S
H5124 C5132 0.950 . S
H5125 C5137 0.950 . S
H5126 C5134 0.950 . S
H5127 C5136 0.950 . S
H5128 C5138 0.950 . S
H5129 C5140 0.915 1_545 S
H5130 C5142 0.937 1_545 S
H5131 C5143 0.950 . S
C5132 H5124 0.950 . S
C5132 C5133 1.386 . S
C5132 C5134 1.391 . S
C5133 C5132 1.386 . S
C5133 C5137 1.393 . S
C5134 H5126 0.950 . S
C5134 C5132 1.391 . S
C5134 C5135 1.400 . S
C5135 C5134 1.400 . S
C5135 C5136 1.398 . S
C5135 C5141 1.491 . S
C5136 H5127 0.950 . S
C5136 C5135 1.398 . S
C5136 C5137 1.391 . S
C5137 H5125 0.950 . S
C5137 C5133 1.393 . S
C5137 C5136 1.391 . S
C5138 H5128 0.950 . S
C5138 C5139 1.386 . S
C5138 C5140 1.452 . S
C5139 C5138 1.386 . S
C5139 C5143 1.393 . S
C5140 H5129 0.915 1_565 S
C5140 C5138 1.452 . S
C5140 C5141 1.376 1_565 S
C5141 C5135 1.491 . S
C5141 C5140 1.376 1_545 S
C5141 C5142 1.398 1_545 S
C5142 H5130 0.937 1_565 S
C5142 C5141 1.398 1_565 S
C5142 C5143 1.391 . S
C5143 H5131 0.950 . S
C5143 C5139 1.393 . S
C5143 C5142 1.391 . S
H5144 C5152 0.950 . S
H5145 C5157 0.950 . S
H5146 C5154 0.950 . S
H5147 C5156 0.950 . S
H5148 C5158 0.950 . S
H5149 C5160 0.935 1_655 S
H5150 C5162 0.964 . S
H5151 C5163 0.950 . S
C5152 H5144 0.950 . S
C5152 C5153 1.386 . S
C5152 C5154 1.391 . S
C5153 C5152 1.386 . S
C5153 C5157 1.393 . S
C5154 H5146 0.950 . S
C5154 C5152 1.391 . S
C5154 C5155 1.400 . S
C5155 C5154 1.400 . S
C5155 C5156 1.398 . S
C5155 C5161 1.491 . S
C5156 H5147 0.950 . S
C5156 C5155 1.398 . S
C5156 C5157 1.391 . S
C5157 H5145 0.950 . S
C5157 C5153 1.393 . S
C5157 C5156 1.391 . S
C5158 H5148 0.950 . S
C5158 C5159 1.386 . S
C5158 C5160 1.416 . S
C5159 C5158 1.386 . S
C5159 C5163 1.393 . S
C5160 H5149 0.935 1_455 S
C5160 C5158 1.416 . S
C5160 C5161 1.391 1_455 S
C5161 C5155 1.491 . S
C5161 C5160 1.391 1_655 S
C5161 C5162 1.398 1_655 S
C5162 H5150 0.964 . S
C5162 C5161 1.398 1_455 S
C5162 C5163 1.391 . S
C5163 H5151 0.950 . S
C5163 C5159 1.393 . S
C5163 C5162 1.391 . S
H5164 C5172 0.950 . S
H5165 C5177 0.950 . S
H5166 C5174 0.923 1_455 S
H5167 C5176 0.906 1_455 S
H5168 C5178 0.950 . S
H5169 C5180 0.950 . S
H5170 C5182 0.950 . S
H5171 C5183 0.950 . S
C5172 H5164 0.950 . S
C5172 C5173 1.386 . S
C5172 C5174 1.391 . S
C5173 C5172 1.386 . S
C5173 C5177 1.393 . S
C5174 H5166 0.923 1_655 S
C5174 C5172 1.391 . S
C5174 C5175 1.400 1_655 S
C5175 C5174 1.400 1_455 S
C5175 C5176 1.364 1_455 S
C5175 C5181 1.491 . S
C5176 H5167 0.906 1_655 S
C5176 C5175 1.364 1_655 S
C5176 C5177 1.472 . S
C5177 H5165 0.950 . S
C5177 C5173 1.393 . S
C5177 C5176 1.472 . S
C5178 H5168 0.950 . S
C5178 C5179 1.386 . S
C5178 C5180 1.391 . S
C5179 C5178 1.386 . S
C5179 C5183 1.393 . S
C5180 H5169 0.950 . S
C5180 C5178 1.391 . S
C5180 C5181 1.400 . S
C5181 C5175 1.491 . S
C5181 C5180 1.400 . S
C5181 C5182 1.398 . S
C5182 H5170 0.950 . S
C5182 C5181 1.398 . S
C5182 C5183 1.391 . S
C5183 H5171 0.950 . S
C5183 C5179 1.393 . S
C5183 C5182 1.391 . S
C1353 C7 1.336 . S
C1359 C441 1.357 . S
C1373 C20 1.307 . S
C1379 C398 1.345 . S
C1393 C413 1.364 . S
C1399 C35 1.322 . S
C1413 C426 1.357 . S
C1419 C48 1.336 . S
C1433 C357 1.374 . S
C1439 C63 1.339 . S
C1453 C370 1.344 . S
C1459 C76 1.318 . S
C1473 C91 1.344 . S
C1479 C385 1.367 . S
C1493 C342 1.346 . S
C1499 C104 1.307 . S
C1513 C118 1.343 . S
C1519 C622 1.375 . S
C1533 C133 1.309 . S
C1539 C581 1.343 . S
C1553 C146 1.312 . S
C1559 C594 1.342 . S
C1573 C161 1.344 . S
C1579 C609 1.374 . S
C1593 C174 1.309 . S
C1599 C664 1.349 . S
C1613 C189 1.321 . S
C1619 C637 1.346 . S
C1633 C202 1.322 . S
C1639 C650 1.364 . S
C1653 C567 1.362 . S
C1659 C217 1.320 . S
C1673 C230 1.307 . S
C1679 C552 1.344 . S
C1693 C468 1.344 . S
C1699 C244 1.317 . S
C1713 C482 1.367 . S
C1719 C258 1.327 . S
C1733 C272 1.307 . S
C1739 C496 1.345 . S
C1753 C454 1.360 . S
C1759 C286 1.318 . S
C1773 C524 1.373 . S
C1779 C300 1.346 . S
C1793 C314 1.323 . S
C1799 C538 1.347 . S
C1813 C328 1.345 . S
C1819 C510 1.369 . S
C1833 C1113 1.342 . S
C1839 C679 1.312 . S
C1853 C1070 1.373 . S
C1859 C692 1.337 . S
C1873 C707 1.319 . S
C1879 C1085 1.361 . S
C1893 C1098 1.359 . S
C1899 C720 1.338 . S
C1913 C735 1.342 . S
C1919 C1029 1.375 . S
C1933 C748 1.343 . S
C1939 C1042 1.375 . S
C1953 C1057 1.347 . S
C1959 C763 1.322 . S
C1973 C1014 1.372 . S
C1979 C776 1.333 . S
C1993 C1294 1.344 . S
C1999 C790 1.307 . S
C2013 C1253 1.343 . S
C2019 C805 1.313 . S
C2033 C818 1.317 . S
C2039 C1266 1.344 . S
C2053 C833 1.317 . S
C2059 C1281 1.360 . S
C2073 C1336 1.355 . S
C2079 C846 1.313 . S
C2093 C1309 1.354 . S
C2099 C861 1.332 . S
C2113 C1322 1.372 . S
C2119 C874 1.346 . S
C2133 C889 1.307 . S
C2139 C1239 1.346 . S
C2153 C1224 1.359 . S
C2159 C902 1.338 . S
C2173 C916 1.308 . S
C2179 C1140 1.343 . S
C2193 C1154 1.360 . S
C2199 C930 1.338 . S
C2213 C1168 1.359 . S
C2219 C944 1.317 . S
C2233 C1126 1.350 . S
C2239 C958 1.328 . S
C2253 C972 1.313 . S
C2259 C1196 1.342 . S
C2273 C986 1.322 . S
C2279 C1210 1.364 . S
C2293 C1182 1.347 . S
C2299 C1000 1.308 . S
C2313 C6 1.448 . S
C2319 C959 1.472 . S
C2333 C21 1.471 . S
C2339 C917 1.451 . S
C2353 C34 1.448 . S
C2359 C931 1.472 . S
C2373 C49 1.430 . S
C2379 C945 1.465 . S
C2393 C1001 1.472 . S
C2399 C62 1.439 . S
C2413 C77 1.465 . S
C2419 C973 1.461 . S
C2433 C987 1.452 . S
C2439 C90 1.430 . S
C2453 C105 1.473 . S
C2459 C903 1.442 . S
C2473 C888 1.464 . S
C2479 C119 1.429 . S
C2493 C132 1.428 . S
C2499 C847 1.458 . S
C2513 C860 1.438 . S
C2519 C147 1.439 . S
C2533 C160 1.469 . S
C2539 C875 1.455 . S
C2553 C175 1.431 . S
C2559 C804 1.468 . S
C2573 C188 1.429 . S
C2579 C819 1.456 . S
C2593 C832 1.434 . S
C2599 C203 1.443 . S
C2613 C791 1.429 . S
C2619 C216 1.455 . S
C2633 C231 1.430 . S
C2639 C777 1.452 . S
C2653 C245 1.457 . S
C2659 C693 1.468 . S
C2673 C259 1.471 . S
C2679 C706 1.434 . S
C2693 C273 1.431 . S
C2699 C721 1.448 . S
C2713 C287 1.471 . S
C2719 C678 1.450 . S
C2733 C749 1.429 . S
C2739 C301 1.462 . S
C2753 C762 1.434 . S
C2759 C315 1.470 . S
C2773 C329 1.439 . S
C2779 C734 1.472 . S
C2793 C345 1.624 . S
C2799 C1297 1.638 . S
C2813 C358 1.623 . S
C2819 C1254 1.632 . S
C2833 C373 1.638 . S
C2839 C1269 1.624 . S
C2853 C386 1.623 . S
C2859 C1282 1.634 . S
C2873 C401 1.634 . S
C2879 C1339 1.623 . S
C2893 C1310 1.633 . S
C2899 C414 1.623 . S
C2913 C429 1.627 . S
C2919 C1325 1.626 . S
C2933 C442 1.628 . S
C2939 C1240 1.625 . S
C2953 C1227 1.640 . S
C2959 C457 1.628 . S
C2973 C1185 1.626 . S
C2979 C471 1.627 . S
C2993 C1199 1.625 . S
C2999 C485 1.639 . S
C3013 C1213 1.638 . S
C3019 C499 1.634 . S
C3033 C513 1.627 . S
C3039 C1143 1.640 . S
C3053 C527 1.633 . S
C3059 C1157 1.638 . S
C3073 C541 1.626 . S
C3079 C1171 1.639 . S
C3093 C1129 1.639 . S
C3099 C555 1.631 . S
C3113 C1114 1.631 . S
C3119 C568 1.624 . S
C3133 C582 1.633 . S
C3139 C1030 1.623 . S
C3153 C1045 1.638 . S
C3159 C597 1.633 . S
C3173 C1058 1.637 . S
C3179 C610 1.635 . S
C3193 C625 1.626 . S
C3199 C1017 1.627 . S
C3213 C638 1.623 . S
C3219 C1086 1.631 . S
C3233 C1101 1.635 . S
C3239 C653 1.623 . S
C3253 C667 1.623 . S
C3259 C1073 1.631 . S
C3273 C8 1.521 . S
C3279 C399 1.456 . S
C3293 C23 1.514 . S
C3299 C412 1.456 . S
C3313 C36 1.520 . S
C3319 C427 1.457 . S
C3333 C51 1.533 . S
C3339 C440 1.430 . S
C3353 C343 1.455 . S
C3359 C64 1.521 . S
C3373 C79 1.514 . S
C3379 C356 1.456 . S
C3393 C371 1.452 . S
C3399 C92 1.524 . S
C3413 C384 1.452 . S
C3419 C107 1.524 . S
C3433 C121 1.514 . S
C3439 C539 1.458 . S
C3453 C553 1.453 . S
C3459 C134 1.515 . S
C3473 C149 1.515 . S
C3479 C511 1.451 . S
C3493 C162 1.520 . S
C3499 C525 1.457 . S
C3513 C177 1.527 . S
C3519 C483 1.446 . S
C3533 C190 1.515 . S
C3539 C497 1.451 . S
C3553 C205 1.518 . S
C3559 C455 1.444 . S
C3573 C469 1.460 . S
C3579 C218 1.517 . S
C3593 C233 1.531 . S
C3599 C636 1.425 . S
C3613 C247 1.525 . S
C3619 C608 1.449 . S
C3633 C623 1.446 . S
C3639 C261 1.517 . S
C3653 C275 1.523 . S
C3659 C580 1.434 . S
C3673 C595 1.433 . S
C3679 C289 1.533 . S
C3693 C303 1.516 . S
C3699 C566 1.450 . S
C3713 C665 1.460 . S
C3719 C317 1.515 . S
C3733 C651 1.431 . S
C3739 C331 1.533 . S
C3753 C680 1.521 . S
C3759 C1071 1.437 . S
C3773 C695 1.532 . S
C3779 C1084 1.425 . S
C3793 C708 1.530 . S
C3799 C1099 1.426 . S
C3813 C1112 1.460 . S
C3819 C723 1.517 . S
C3833 C736 1.525 . S
C3839 C1015 1.451 . S
C3853 C751 1.531 . S
C3859 C1028 1.437 . S
C3873 C764 1.525 . S
C3879 C1043 1.450 . S
C3893 C779 1.532 . S
C3899 C1056 1.425 . S
C3913 C793 1.515 . S
C3919 C1211 1.460 . S
C3933 C1225 1.460 . S
C3939 C806 1.515 . S
C3953 C1183 1.434 . S
C3959 C821 1.532 . S
C3973 C1197 1.432 . S
C3979 C834 1.533 . S
C3993 C849 1.532 . S
C3999 C1155 1.435 . S
C4013 C1169 1.425 . S
C4019 C862 1.532 . S
C4033 C877 1.529 . S
C4039 C1127 1.442 . S
C4053 C1141 1.460 . S
C4059 C890 1.517 . S
C4073 C1308 1.449 . S
C4079 C905 1.516 . S
C4093 C1280 1.442 . S
C4099 C919 1.519 . S
C4113 C933 1.514 . S
C4119 C1295 1.459 . S
C4133 C947 1.531 . S
C4139 C1252 1.425 . S
C4153 C1267 1.459 . S
C4159 C961 1.519 . S
C4173 C975 1.516 . S
C4179 C1238 1.460 . S
C4193 C1337 1.460 . S
C4199 C989 1.515 . S
C4213 C1323 1.431 . S
C4219 C1003 1.533 . S
C4233 C372 1.632 . S
C4239 C9 1.646 . S
C4253 C22 1.646 . S
C4259 C387 1.640 . S
C4273 C344 1.632 . S
C4279 C37 1.647 . S
C4293 C50 1.648 . S
C4299 C359 1.643 . S
C4313 C428 1.637 . S
C4319 C65 1.645 . S
C4333 C443 1.642 . S
C4339 C78 1.646 . S
C4353 C93 1.646 . S
C4359 C400 1.634 . S
C4373 C415 1.634 . S
C4379 C106 1.646 . S
C4393 C120 1.646 . S
C4399 C512 1.639 . S
C4413 C135 1.649 . S
C4419 C526 1.638 . S
C4433 C540 1.632 . S
C4439 C148 1.648 . S
C4453 C163 1.649 . S
C4459 C554 1.640 . S
C4473 C176 1.646 . S
C4479 C456 1.635 . S
C4493 C470 1.638 . S
C4499 C191 1.649 . S
C4513 C484 1.643 . S
C4519 C204 1.648 . S
C4533 C498 1.633 . S
C4539 C219 1.646 . S
C4553 C232 1.647 . S
C4559 C611 1.642 . S
C4573 C639 1.634 . S
C4579 C246 1.649 . S
C4593 C260 1.649 . S
C4599 C652 1.641 . S
C4613 C569 1.632 . S
C4619 C274 1.647 . S
C4633 C666 1.633 . S
C4639 C288 1.648 . S
C4653 C583 1.639 . S
C4659 C302 1.649 . S
C4673 C316 1.647 . S
C4679 C596 1.642 . S
C4693 C330 1.648 . S
C4699 C624 1.643 . S
C4713 C681 1.648 . S
C4719 C1044 1.642 . S
C4733 C1059 1.632 . S
C4739 C694 1.648 . S
C4753 C1016 1.632 . S
C4759 C709 1.646 . S
C4773 C1031 1.632 . S
C4779 C722 1.647 . S
C4793 C737 1.647 . S
C4799 C1100 1.632 . S
C4813 C1115 1.642 . S
C4819 C750 1.648 . S
C4833 C765 1.646 . S
C4839 C1072 1.635 . S
C4853 C1087 1.632 . S
C4859 C778 1.647 . S
C4873 C792 1.646 . S
C4879 C1184 1.634 . S
C4893 C1198 1.641 . S
C4899 C807 1.649 . S
C4913 C820 1.646 . S
C4919 C1212 1.638 . S
C4933 C1226 1.634 . S
C4939 C835 1.646 . S
C4953 C1128 1.642 . S
C4959 C848 1.647 . S
C4973 C1142 1.632 . S
C4979 C863 1.647 . S
C4993 C1156 1.639 . S
C4999 C876 1.646 . S
C5013 C1170 1.642 . S
C5019 C891 1.647 . S
C5033 C904 1.649 . S
C5039 C1283 1.634 . S
C5053 C1311 1.642 . S
C5059 C918 1.648 . S
C5073 C1324 1.636 . S
C5079 C932 1.645 . S
C5093 C1241 1.633 . S
C5099 C946 1.648 . S
C5113 C1338 1.633 . S
C5119 C960 1.648 . S
C5133 C974 1.646 . S
C5139 C1255 1.640 . S
C5153 C988 1.646 . S
C5159 C1268 1.634 . S
C5173 C1296 1.642 . S
C5179 C1002 1.647 . S
