# Generated by pormake.
# Topology sxc, (6)-cn, num edge types: 1
# Building blocks:
#     Node 0, Type 0, BuildingBlock: MIFKUJ_clean_sbu_0, # of connection points: 6
#     Node 1, Type 0, BuildingBlock: MIFKUJ_clean_sbu_0, # of connection points: 6
#     Node 2, Type 0, BuildingBlock: MIFKUJ_clean_sbu_0, # of connection points: 6
#     Edge 3, Type (0, 0), BuildingBlock: UVAHIK_clean_linker_0, # of connection points: 2
#     Edge 4, Type (0, 0), BuildingBlock: UVAHIK_clean_linker_0, # of connection points: 2
#     Edge 5, Type (0, 0), BuildingBlock: UVAHIK_clean_linker_0, # of connection points: 2
#     Edge 6, Type (0, 0), BuildingBlock: UVAHIK_clean_linker_0, # of connection points: 2
#     Edge 7, Type (0, 0), BuildingBlock: UVAHIK_clean_linker_0, # of connection points: 2
#     Edge 8, Type (0, 0), BuildingBlock: UVAHIK_clean_linker_0, # of connection points: 2
#     Edge 9, Type (0, 0), BuildingBlock: UVAHIK_clean_linker_0, # of connection points: 2
#     Edge 10, Type (0, 0), BuildingBlock: UVAHIK_clean_linker_0, # of connection points: 2
#     Edge 11, Type (0, 0), BuildingBlock: UVAHIK_clean_linker_0, # of connection points: 2
# Relax obj value: 0.014
# Max RMSD: 0.062
# Mean RMSD: 0.047
data_MOF--net-sxc--node1-MIFKUJ_clean_sbu_0--edge1-UVAHIK_clean_linker_0
_symmetry_space_group_name_H-M    P1
_symmetry_Int_Tables_number       1
_symmetry_cell_setting            triclinic
loop_
_symmetry_equiv_pos_as_xyz
'x, y, z'
_cell_length_a     22.943156
_cell_length_b     21.838486
_cell_length_c     55.284073
_cell_angle_alpha  90.761648
_cell_angle_beta   98.675848
_cell_angle_gamma 117.33468
loop_
_atom_site_label
_atom_site_type_symbol
_atom_site_fract_x
_atom_site_fract_y
_atom_site_fract_z
_atom_type_partial_charge
Zn0 Zn 0.95586 0.90233 0.00352 0.0
Zn1 Zn 0.09681 0.08276 0.00876 0.0
C2 C 0.97937 0.79002 0.99463 0.0
O3 O 0.93389 0.78251 0.97562 0.0
C4 C 0.0902 0.19851 0.03103 0.0
O5 O 0.14373 0.20408 0.04549 0.0
O6 O 0.85929 0.83557 0.00243 0.0
O7 O -0.01723 0.9737 0.03186 0.0
O8 O 0.09199 0.02509 0.03716 0.0
C9 C 0.845 0.79572 0.01956 0.0
O10 O 0.89275 0.80341 0.03767 0.0
O11 O 0.00239 0.8432 0.00992 0.0
C12 C 0.20553 0.19205 0.99303 0.0
O13 O 0.15562 0.19087 0.97748 0.0
O14 O 0.19329 0.14697 0.00845 0.0
O15 O 0.05549 0.03727 0.97447 0.0
O16 O 0.96526 0.9349 0.96999 0.0
O17 O 0.05847 0.14723 0.01478 0.0
C18 C 0.03858 0.99097 0.04549 0.0
C19 C 0.00758 0.98625 0.96094 0.0
Zn20 Zn 0.09955 0.04654 0.33081 0.0
Zn21 Zn 0.94758 0.08615 0.33114 0.0
C22 C 0.07891 0.91353 0.33641 0.0
O23 O 0.12923 0.95156 0.354 0.0
C24 C 0.93189 0.20096 0.31424 0.0
O25 O 0.87698 0.15067 0.30157 0.0
O26 O 0.19406 0.08102 0.32642 0.0
O27 O 0.05433 0.09377 0.31223 0.0
O28 O 0.94813 0.04508 0.29859 0.0
C29 C 0.20667 0.04752 0.31083 0.0
O30 O 0.15701 -0.00318 0.29609 0.0
O31 O 0.05227 0.9432 0.32254 0.0
C32 C 0.84121 0.068 0.3547 0.0
O33 O 0.88978 0.12158 0.36866 0.0
O34 O 0.8547 0.04045 0.33747 0.0
O35 O 0.00892 0.07973 0.36061 0.0
O36 O 0.09761 0.06206 0.36615 0.0
O37 O 0.97189 0.18599 0.32823 0.0
C38 C 0.00573 0.05765 0.29532 0.0
C39 C 0.05484 0.07354 0.37477 0.0
Zn40 Zn 0.1077 0.08967 0.66867 0.0
Zn41 Zn 0.89631 0.96382 0.66417 0.0
C42 C 0.2212 0.07463 0.68336 0.0
O43 O 0.22993 0.12425 0.69945 0.0
C44 C 0.78208 0.97782 0.6498 0.0
O45 O 0.77346 0.92843 0.63362 0.0
O46 O 0.1608 0.1892 0.66199 0.0
O47 O 0.02066 0.03477 0.6454 0.0
O48 O 0.9161 0.96855 0.62965 0.0
C49 C 0.20268 0.20268 0.6476 0.0
O50 O 0.20307 0.15116 0.63521 0.0
O51 O 0.16765 0.04658 0.66762 0.0
C52 C 0.80255 0.85016 0.68526 0.0
O53 O 0.80219 0.90137 0.69787 0.0
O54 O 0.84411 0.86409 0.67072 0.0
O55 O -0.01665 0.0192 0.6873 0.0
O56 O 0.0877 0.08581 0.70315 0.0
O57 O 0.83575 0.00605 0.66546 0.0
C58 C 0.97575 0.00567 0.62654 0.0
C59 C 0.02798 0.04877 0.70619 0.0
C60 C 0.02338 0.25626 0.01292 0.0
C61 C 0.07323 0.25634 0.03116 0.0
C62 C 0.01258 0.31419 0.01129 0.0
C63 C 0.09821 0.50319 0.02867 0.0
H64 H 0.92128 0.48425 0.00757 0.0
C65 C 0.04096 0.73694 0.02066 0.0
C66 C -0.00355 0.73306 -0.00052 0.0
C67 C 0.05199 0.68013 0.02599 0.0
C68 C 0.97108 0.49036 0.01334 0.0
H69 H 0.14905 0.31653 0.06263 0.0
H70 H 0.12926 0.41702 0.0601 0.0
H71 H 0.93475 0.38147 0.01521 0.0
H72 H 0.93014 0.66707 0.96696 0.0
H73 H 0.94948 0.56875 0.97624 0.0
H74 H 0.13429 0.61237 0.02676 0.0
C75 C 0.09944 0.3727 0.04671 0.0
C76 C 0.97883 0.43143 0.01769 0.0
C77 C 0.1104 0.31479 0.04828 0.0
C78 C 0.96457 0.67189 0.98349 0.0
C79 C 0.97522 0.61521 0.98889 0.0
C80 C 0.09038 0.56228 0.02445 0.0
C81 C 0.05114 0.37359 0.02794 0.0
C82 C 0.04256 0.4369 0.02506 0.0
C83 C 0.01829 0.61825 0.01035 0.0
C84 C 0.0268 0.55636 0.01636 0.0
H85 H -0.00596 0.21228 -0.00066 0.0
H86 H 0.97551 0.31321 -0.00359 0.0
H87 H 0.14814 0.50937 0.03403 0.0
H88 H 0.06622 0.78327 0.03337 0.0
H89 H 0.08538 0.68393 0.0427 0.0
C90 C 0.28621 0.00961 0.29866 0.0
C91 C 0.2745 0.05521 0.31291 0.0
C92 C 0.34703 0.00833 0.30356 0.0
C93 C 0.48567 0.0491 0.35436 0.0
H94 H 0.57432 0.02627 0.30317 0.0
C95 C 0.75604 0.09116 0.37029 0.0
C96 C 0.77125 0.04984 0.35537 0.0
C97 C 0.69145 0.0834 0.36713 0.0
C98 C 0.54947 0.03138 0.31766 0.0
H99 H 0.31877 0.1385 0.34234 0.0
H100 H 0.42547 0.13706 0.35056 0.0
H101 H 0.47235 0.03602 0.29196 0.0
H102 H 0.72964 0.96335 0.32725 0.0
H103 H 0.61675 0.94941 0.32197 0.0
H104 H 0.56352 0.04543 0.38007 0.0
C105 C 0.38698 0.10115 0.33603 0.0
C106 C 0.49132 0.03733 0.31123 0.0
C107 C 0.32614 0.10241 0.33115 0.0
C108 C 0.71962 -0.00333 0.33877 0.0
C109 C 0.6551 0.98889 0.33564 0.0
C110 C 0.54394 0.04324 0.3608 0.0
C111 C 0.39729 0.0528 0.32274 0.0
C112 C 0.45912 0.04674 0.32952 0.0
C113 C 0.64109 0.03405 0.34907 0.0
C114 C 0.57654 0.03467 0.3425 0.0
H115 H 0.24742 0.97264 0.28445 0.0
H116 H 0.35352 0.97038 0.29305 0.0
H117 H 0.46109 0.05493 0.36883 0.0
H118 H 0.7947 0.13231 0.38335 0.0
H119 H 0.68208 0.119 0.37773 0.0
C120 C 0.73771 0.72695 0.6668 0.0
C121 C 0.74702 0.7793 0.68434 0.0
C122 C 0.67941 0.66363 0.66328 0.0
C123 C 0.5044 0.58998 0.67141 0.0
H124 H 0.50095 0.41382 0.65749 0.0
C125 C 0.26771 0.32608 0.66584 0.0
C126 C 0.25832 0.27343 0.64843 0.0
C127 C 0.32603 0.38938 0.66926 0.0
C128 C 0.50101 0.46276 0.66101 0.0
H129 H 0.70433 0.8046 0.71297 0.0
H130 H 0.60331 0.69388 0.70705 0.0
H131 H 0.6076 0.51876 0.66698 0.0
H132 H 0.30092 0.24754 0.6199 0.0
H133 H 0.40196 0.35821 0.62562 0.0
H134 H 0.39781 0.53401 0.66544 0.0
C135 C 0.64032 0.70235 0.69564 0.0
C136 C 0.56215 0.52282 0.66653 0.0
C137 C 0.69852 0.76559 0.69917 0.0
C138 C 0.30679 0.28679 0.63361 0.0
C139 C 0.365 0.35002 0.63702 0.0
C140 C 0.44325 0.52993 0.66588 0.0
C141 C 0.62931 0.65135 0.67723 0.0
C142 C 0.56455 0.5871 0.67183 0.0
C143 C 0.37608 0.40134 0.65531 0.0
C144 C 0.44085 0.46562 0.66061 0.0
H145 H 0.77404 0.73589 0.65504 0.0
H146 H 0.67234 0.62551 0.64887 0.0
H147 H 0.50447 0.63892 0.67495 0.0
H148 H 0.23141 0.31742 0.67759 0.0
H149 H 0.33314 0.42772 0.68359 0.0
C150 C 0.66556 0.95745 0.63559 0.0
C151 C 0.72679 0.9935 0.65169 0.0
C152 C 0.61103 0.96701 0.63878 0.0
C153 C 0.56318 0.08507 0.66838 0.0
H154 H 0.39281 0.92031 0.66397 0.0
C155 C 0.33752 0.09457 0.69772 0.0
C156 C 0.27636 0.05865 0.68157 0.0
C157 C 0.39201 0.08489 0.6946 0.0
C158 C 0.43991 0.9668 0.66504 0.0
H159 H 0.77955 0.06945 0.68329 0.0
H160 H 0.68413 0.08598 0.68887 0.0
H161 H 0.48996 0.90947 0.65656 0.0
H162 H 0.22367 0.98274 0.64996 0.0
H163 H 0.31904 0.96598 0.64448 0.0
H164 H 0.51313 0.1424 0.67686 0.0
C165 C 0.67846 0.05063 0.67371 0.0
C166 C 0.49547 0.96064 0.66076 0.0
C167 C 0.73303 0.041 0.67055 0.0
C168 C 0.27013 0.01109 0.66273 0.0
C169 C 0.32467 0.00134 0.65963 0.0
C170 C 0.50763 0.09123 0.67266 0.0
C171 C 0.61664 0.01288 0.65809 0.0
C172 C 0.55765 0.01972 0.66236 0.0
C173 C 0.38644 0.03901 0.67529 0.0
C174 C 0.44545 0.03215 0.67105 0.0
H175 H 0.65919 0.92067 0.62081 0.0
H176 H 0.56429 0.9381 0.6262 0.0
H177 H 0.61027 0.13156 0.66945 0.0
H178 H 0.34387 0.13139 0.71249 0.0
H179 H 0.43871 0.11374 0.7072 0.0
C180 C 0.72701 0.72593 -0.00219 0.0
C181 C 0.77751 0.73678 0.0178 0.0
C182 C 0.66494 0.66709 0.99517 0.0
C183 C 0.55604 0.52698 0.02923 0.0
H184 H 0.47452 0.43003 0.96418 0.0
C185 C 0.3251 0.25812 0.01355 0.0
C186 C 0.27358 0.24959 0.99432 0.0
C187 C 0.3877 0.31615 0.016 0.0
C188 C 0.49645 0.45683 0.98242 0.0
H189 H 0.80201 0.69516 0.05098 0.0
H190 H 0.69416 0.59235 0.04624 0.0
H191 H 0.58036 0.53613 0.96974 0.0
H192 H 0.24797 0.29407 0.96214 0.0
H193 H 0.35712 0.3952 0.96644 0.0
H194 H 0.47219 0.44746 0.04191 0.0
C195 C 0.70215 0.62961 0.03274 0.0
C196 C 0.55694 0.51772 0.9856 0.0
C197 C 0.76412 0.68847 0.0354 0.0
C198 C 0.28659 0.29911 0.97716 0.0
C199 C 0.34923 0.35694 0.97956 0.0
C200 C 0.49566 0.46598 0.02606 0.0
C201 C 0.6521 0.61782 0.01245 0.0
C202 C 0.58737 0.55357 0.00904 0.0
C203 C 0.40013 0.36662 -0.00079 0.0
C204 C 0.46518 0.43031 0.00262 0.0
H205 H 0.73567 0.76231 0.98397 0.0
H206 H 0.62705 0.66009 0.97955 0.0
H207 H 0.57769 0.55384 0.04747 0.0
H208 H 0.3167 0.22084 0.02706 0.0
H209 H 0.42629 0.32177 0.03114 0.0
C210 C 0.00312 0.32718 0.32736 0.0
C211 C 0.94549 0.27379 0.31314 0.0
C212 C 0.01509 0.39579 0.32699 0.0
C213 C 0.93041 0.50263 0.31343 0.0
H214 H 0.11115 0.64858 0.31613 0.0
C215 C 0.00335 0.79611 0.31378 0.0
C216 C 0.05839 0.83905 0.33183 0.0
C217 C -0.0135 0.72623 0.30913 0.0
C218 C 0.06044 0.60834 0.31543 0.0
H219 H 0.85542 0.25058 0.28719 0.0
H220 H 0.87681 0.37078 0.28635 0.0
H221 H 0.08801 0.528 0.31186 0.0
H222 H 0.13841 0.84227 0.35928 0.0
H223 H 0.10916 0.72122 0.35112 0.0
H224 H 0.90325 0.58361 0.31722 0.0
C225 C 0.91232 0.35934 0.29799 0.0
C226 C 0.0472 0.53933 0.31305 0.0
C227 C 0.90031 0.29057 0.29837 0.0
C228 C 0.09576 0.81074 0.34523 0.0
C229 C 0.07935 0.74143 0.34044 0.0
C230 C 0.94366 0.57188 0.3157 0.0
C231 C 0.96981 0.41269 0.31234 0.0
C232 C -0.01766 0.48569 0.31256 0.0
C233 C 0.02494 0.69858 0.32225 0.0
C234 C 0.00908 0.62532 0.31726 0.0
H235 H 0.03877 0.31601 0.33904 0.0
H236 H 0.05929 0.43551 0.33858 0.0
H237 H 0.87998 0.46248 0.31329 0.0
H238 H 0.97366 0.81653 0.30316 0.0
H239 H 0.94433 0.69421 0.29497 0.0
C240 C 0.08025 0.06013 0.26648 0.0
C241 C 0.01611 0.0321 0.27236 0.0
C242 C 0.08963 0.04258 0.24355 0.0
C243 C 0.00452 0.9241 0.18595 0.0
H244 H 0.1223 0.08397 0.15614 0.0
C245 C -0.01711 0.94616 0.08163 0.0
C246 C 0.04177 0.98094 0.07194 0.0
C247 C -0.01441 0.94158 0.10689 0.0
C248 C 0.09022 0.03845 0.1643 0.0
H249 H 0.91149 0.96231 0.25912 0.0
H250 H 0.92736 0.93356 0.21873 0.0
H251 H 0.11672 0.09519 0.19931 0.0
H252 H 0.14983 0.03513 0.08105 0.0
H253 H 0.15436 0.02741 0.1252 0.0
H254 H 0.97588 0.86848 0.15034 0.0
C255 C 0.97084 0.96759 0.23205 0.0
C256 C 0.08707 0.04479 0.18912 0.0
C257 C 0.96161 0.98453 0.25513 0.0
C258 C 0.10351 0.00852 0.08794 0.0
C259 C 0.10617 0.00422 0.11321 0.0
C260 C 0.00736 0.91791 0.16101 0.0
C261 C 0.03481 -0.00224 0.22579 0.0
C262 C 0.04335 0.98806 0.20016 0.0
C263 C 0.04719 0.97191 0.12297 0.0
C264 C 0.04943 0.9754 0.14987 0.0
H265 H 0.12309 0.0977 0.27925 0.0
H266 H 0.1397 0.06588 0.2395 0.0
H267 H 0.97107 0.87915 0.19399 0.0
H268 H 0.93451 0.92415 0.06981 0.0
H269 H 0.93929 0.91698 0.11391 0.0
C270 C 0.01853 0.10231 0.4118 0.0
C271 C 0.05693 0.07744 0.40159 0.0
C272 C 0.01618 0.10095 0.43684 0.0
C273 C 0.0987 0.08052 0.49688 0.0
H274 H 0.92232 0.01467 0.51313 0.0
C275 C 0.94743 0.96552 0.58198 0.0
C276 C -0.0085 0.01388 0.60157 0.0
C277 C 0.95977 0.97511 0.55804 0.0
C278 C 0.97184 0.0326 0.50889 0.0
H279 H 0.12504 0.03394 0.40981 0.0
H280 H 0.12001 0.03044 0.45353 0.0
H281 H 0.93711 0.0303 0.47068 0.0
H282 H 0.08243 0.1102 0.61157 0.0
H283 H 0.10435 0.12741 0.56962 0.0
H284 H 0.13286 0.08074 0.53517 0.0
C285 C 0.09233 0.05181 0.4422 0.0
C286 C -0.0195 0.04256 0.4846 0.0
C287 C 0.09495 0.05351 0.41713 0.0
C288 C 0.04867 0.07149 0.59685 0.0
C289 C 0.06096 0.08135 0.57284 0.0
C290 C 0.08999 0.07041 0.52126 0.0
C291 C 0.05192 0.07432 0.45223 0.0
C292 C 0.04394 0.06643 0.47829 0.0
C293 C 0.0161 0.03366 0.55315 0.0
C294 C 0.02632 0.04584 0.52747 0.0
H295 H -0.01036 0.12219 0.40041 0.0
H296 H -0.0143 0.12006 0.44412 0.0
H297 H 0.14828 0.09948 0.4926 0.0
H298 H 0.9031 0.92036 0.58513 0.0
H299 H 0.92492 0.93677 0.54333 0.0
C300 C 0.05437 0.09235 0.75032 0.0
C301 C 0.01175 0.04182 0.73109 0.0
C302 C 0.04162 0.08433 0.77425 0.0
C303 C 0.96323 0.95118 0.81457 0.0
H304 H -0.00597 0.10775 0.85814 0.0
C305 C 0.94694 0.93396 0.91815 0.0
C306 C -0.00049 0.98872 0.93397 0.0
C307 C 0.93883 0.93772 0.89273 0.0
C308 C -0.01456 0.0636 0.8462 0.0
H309 H 0.92311 0.94315 0.7217 0.0
H310 H 0.90018 0.92902 0.7637 0.0
H311 H -0.00473 0.11995 0.81441 0.0
H312 H 0.08513 0.09004 0.93537 0.0
H313 H 0.07133 0.09616 0.89124 0.0
H314 H 0.95543 0.89546 0.84652 0.0
C315 C 0.94317 0.97503 0.76017 0.0
C316 C -0.01399 0.07055 0.8212 0.0
C317 C 0.95574 0.98341 0.73615 0.0
C318 C 0.04393 0.04704 0.9238 0.0
C319 C 0.0357 0.05082 0.89848 0.0
C320 C 0.96275 0.94423 0.83963 0.0
C321 C -0.01369 0.02528 0.77947 0.0
C322 C 0.97658 0.01496 0.80524 0.0
C323 C -0.01704 -0.00356 0.88268 0.0
C324 C 0.97556 0.00095 0.85578 0.0
H325 H 0.09805 0.13785 0.74693 0.0
H326 H 0.07634 0.12338 0.7888 0.0
H327 H 0.95637 0.90764 0.80271 0.0
H328 H 0.9118 0.88827 0.92539 0.0
H329 H 0.89761 0.89515 0.88097 0.0
loop_
_geom_bond_atom_site_label_1
_geom_bond_atom_site_label_2
_geom_bond_distance
_geom_bond_site_symmetry_2
_ccdc_geom_bond_type
Zn0 O6 1.986 1_554 S
Zn0 O7 1.971 1_655 S
Zn0 O11 2.007 1_655 S
Zn0 O16 1.966 1_654 S
Zn1 O8 1.969 . S
Zn1 O14 1.969 . S
Zn1 O15 1.965 1_554 S
Zn1 O17 2.024 1_554 S
C2 O3 1.229 1_454 S
C2 O11 1.058 . S
O3 C2 1.229 1_656 S
C4 O5 1.229 . S
C4 O17 1.058 1_554 S
O5 C4 1.229 . S
O6 Zn0 1.986 1_556 S
O6 C9 1.267 1_556 S
O7 Zn0 1.971 1_455 S
O7 C18 1.260 1_565 S
O8 Zn1 1.969 . S
O8 C18 1.258 . S
C9 O6 1.267 1_554 S
C9 O10 1.228 . S
O10 C9 1.228 . S
O11 Zn0 2.007 1_455 S
O11 C2 1.058 . S
C12 O13 1.228 1_554 S
C12 O14 1.267 . S
O13 C12 1.228 1_556 S
O14 Zn1 1.969 . S
O14 C12 1.267 . S
O15 Zn1 1.965 1_556 S
O15 C19 1.260 . S
O16 Zn0 1.966 1_456 S
O16 C19 1.258 1_565 S
O17 Zn1 2.024 1_556 S
O17 C4 1.058 1_556 S
C18 O7 1.260 1_545 S
C18 O8 1.258 . S
C19 O15 1.260 . S
C19 O16 1.258 1_545 S
Zn20 O26 1.969 1_565 S
Zn20 O27 1.965 1_565 S
Zn20 O31 2.024 . S
Zn20 O36 1.971 . S
Zn21 O28 1.969 . S
Zn21 O34 1.969 . S
Zn21 O35 1.965 . S
Zn21 O37 2.024 1_655 S
C22 O23 1.229 . S
C22 O31 1.058 . S
O23 C22 1.229 . S
C24 O25 1.229 . S
C24 O37 1.058 1_655 S
O25 C24 1.229 . S
O26 Zn20 1.969 1_545 S
O26 C29 1.267 . S
O27 Zn20 1.965 1_545 S
O27 C38 1.260 . S
O28 Zn21 1.969 . S
O28 C38 1.258 1_655 S
C29 O26 1.267 . S
C29 O30 1.228 1_545 S
O30 C29 1.228 1_565 S
O31 Zn20 2.024 . S
O31 C22 1.058 . S
C32 O33 1.228 . S
C32 O34 1.267 . S
O33 C32 1.228 . S
O34 Zn21 1.969 . S
O34 C32 1.267 . S
O35 Zn21 1.965 . S
O35 C39 1.260 1_655 S
O36 Zn20 1.971 . S
O36 C39 1.253 1_565 S
O37 Zn21 2.024 1_455 S
O37 C24 1.058 1_455 S
C38 O27 1.260 . S
C38 O28 1.258 1_455 S
C39 O35 1.260 1_455 S
C39 O36 1.253 1_545 S
Zn40 O46 1.969 . S
Zn40 O47 1.965 . S
Zn40 O51 2.024 . S
Zn40 O56 1.969 . S
Zn41 O48 1.969 . S
Zn41 O54 1.969 . S
Zn41 O55 1.965 . S
Zn41 O57 2.024 1_565 S
C42 O43 1.229 . S
C42 O51 1.058 . S
O43 C42 1.229 . S
C44 O45 1.229 1_545 S
C44 O57 1.058 . S
O45 C44 1.229 1_565 S
O46 Zn40 1.969 . S
O46 C49 1.267 . S
O47 Zn40 1.965 . S
O47 C58 1.260 . S
O48 Zn41 1.969 . S
O48 C58 1.258 1_665 S
C49 O46 1.267 . S
C49 O50 1.228 . S
O50 C49 1.228 . S
O51 Zn40 2.024 . S
O51 C42 1.058 . S
C52 O53 1.228 . S
C52 O54 1.267 . S
O53 C52 1.228 . S
O54 Zn41 1.969 . S
O54 C52 1.267 . S
O55 Zn41 1.965 . S
O55 C59 1.260 1_665 S
O56 Zn40 1.969 . S
O56 C59 1.258 . S
O57 Zn41 2.024 1_545 S
O57 C44 1.058 . S
C58 O47 1.260 . S
C58 O48 1.258 1_445 S
C59 O55 1.260 1_445 S
C59 O56 1.258 . S
C60 C61 1.349 1_556 S
C60 C62 1.327 . S
C60 H85 0.950 1_455 S
C61 C60 1.349 1_554 S
C61 C77 1.349 . S
C62 C60 1.327 . S
C62 C81 1.429 1_556 S
C62 H86 0.950 1_455 S
C63 C80 1.574 . S
C63 C82 1.368 . S
C63 H87 0.949 . S
H64 C68 0.949 1_655 S
C65 C66 1.349 . S
C65 C67 1.327 . S
C65 H88 0.950 . S
C66 C65 1.349 . S
C66 C78 1.349 1_554 S
C67 C65 1.327 . S
C67 C83 1.429 . S
C67 H89 0.950 . S
C68 H64 0.949 1_455 S
C68 C76 1.574 . S
C68 C84 1.368 1_556 S
H69 C77 0.950 . S
H70 C75 0.950 . S
H71 C76 0.949 1_655 S
H72 C78 0.950 . S
H73 C79 0.947 1_655 S
H74 C80 0.949 . S
C75 H70 0.950 . S
C75 C77 1.327 . S
C75 C81 1.429 . S
C76 C68 1.574 . S
C76 H71 0.949 1_455 S
C76 C82 1.368 1_556 S
C77 C61 1.349 . S
C77 H69 0.950 . S
C77 C75 1.327 . S
C78 C66 1.349 1_556 S
C78 H72 0.950 . S
C78 C79 1.327 . S
C79 H73 0.947 1_455 S
C79 C78 1.327 . S
C79 C83 1.429 1_556 S
C80 C63 1.574 . S
C80 H74 0.949 . S
C80 C84 1.368 . S
C81 C62 1.429 1_554 S
C81 C75 1.429 . S
C81 C82 1.523 . S
C82 C63 1.368 . S
C82 C76 1.368 1_554 S
C82 C81 1.523 . S
C83 C67 1.429 . S
C83 C79 1.429 1_554 S
C83 C84 1.523 . S
C84 C68 1.368 1_554 S
C84 C80 1.368 . S
C84 C83 1.523 . S
H85 C60 0.950 1_655 S
H86 C62 0.950 1_655 S
H87 C63 0.949 . S
H88 C65 0.950 . S
H89 C67 0.950 . S
C90 C91 1.349 1_565 S
C90 C92 1.327 . S
C90 H115 0.950 . S
C91 C90 1.349 1_545 S
C91 C107 1.349 . S
C92 C90 1.327 . S
C92 C111 1.429 1_565 S
C92 H116 0.950 . S
C93 C110 1.574 . S
C93 C112 1.368 . S
C93 H117 0.949 . S
H94 C98 0.949 . S
C95 C96 1.349 . S
C95 C97 1.327 . S
C95 H118 0.950 . S
C96 C95 1.349 . S
C96 C108 1.349 1_545 S
C97 C95 1.327 . S
C97 C113 1.429 . S
C97 H119 0.950 . S
C98 H94 0.949 . S
C98 C106 1.574 . S
C98 C114 1.368 1_565 S
H99 C107 0.950 . S
H100 C105 0.950 . S
H101 C106 0.949 . S
H102 C108 0.950 . S
H103 C109 0.950 . S
H104 C110 0.949 . S
C105 H100 0.950 . S
C105 C107 1.327 . S
C105 C111 1.429 . S
C106 C98 1.574 . S
C106 H101 0.949 . S
C106 C112 1.368 1_565 S
C107 C91 1.349 . S
C107 H99 0.950 . S
C107 C105 1.327 . S
C108 C96 1.349 1_565 S
C108 H102 0.950 . S
C108 C109 1.327 . S
C109 H103 0.950 . S
C109 C108 1.327 . S
C109 C113 1.429 1_565 S
C110 C93 1.574 . S
C110 H104 0.949 . S
C110 C114 1.368 . S
C111 C92 1.429 1_545 S
C111 C105 1.429 . S
C111 C112 1.523 . S
C112 C93 1.368 . S
C112 C106 1.368 1_545 S
C112 C111 1.523 . S
C113 C97 1.429 . S
C113 C109 1.429 1_545 S
C113 C114 1.523 . S
C114 C98 1.368 1_545 S
C114 C110 1.368 . S
C114 C113 1.523 . S
H115 C90 0.950 . S
H116 C92 0.950 . S
H117 C93 0.949 . S
H118 C95 0.950 . S
H119 C97 0.950 . S
C120 C121 1.349 . S
C120 C122 1.327 . S
C120 H145 0.950 . S
C121 C120 1.349 . S
C121 C137 1.349 . S
C122 C120 1.327 . S
C122 C141 1.429 . S
C122 H146 0.950 . S
C123 C140 1.574 . S
C123 C142 1.368 . S
C123 H147 0.949 . S
H124 C128 0.949 . S
C125 C126 1.349 . S
C125 C127 1.327 . S
C125 H148 0.950 . S
C126 C125 1.349 . S
C126 C138 1.349 . S
C127 C125 1.327 . S
C127 C143 1.429 . S
C127 H149 0.950 . S
C128 H124 0.949 . S
C128 C136 1.574 . S
C128 C144 1.368 . S
H129 C137 0.950 . S
H130 C135 0.950 . S
H131 C136 0.949 . S
H132 C138 0.950 . S
H133 C139 0.950 . S
H134 C140 0.949 . S
C135 H130 0.950 . S
C135 C137 1.327 . S
C135 C141 1.429 . S
C136 C128 1.574 . S
C136 H131 0.949 . S
C136 C142 1.368 . S
C137 C121 1.349 . S
C137 H129 0.950 . S
C137 C135 1.327 . S
C138 C126 1.349 . S
C138 H132 0.950 . S
C138 C139 1.327 . S
C139 H133 0.950 . S
C139 C138 1.327 . S
C139 C143 1.429 . S
C140 C123 1.574 . S
C140 H134 0.949 . S
C140 C144 1.368 . S
C141 C122 1.429 . S
C141 C135 1.429 . S
C141 C142 1.523 . S
C142 C123 1.368 . S
C142 C136 1.368 . S
C142 C141 1.523 . S
C143 C127 1.429 . S
C143 C139 1.429 . S
C143 C144 1.523 . S
C144 C128 1.368 . S
C144 C140 1.368 . S
C144 C143 1.523 . S
H145 C120 0.950 . S
H146 C122 0.950 . S
H147 C123 0.949 . S
H148 C125 0.950 . S
H149 C127 0.950 . S
C150 C151 1.345 1_565 S
C150 C152 1.321 . S
C150 H175 0.961 . S
C151 C150 1.345 1_545 S
C151 C167 1.349 . S
C152 C150 1.321 . S
C152 C171 1.429 1_565 S
C152 H176 0.950 . S
C153 C170 1.574 . S
C153 C172 1.368 . S
C153 H177 0.949 . S
H154 C158 0.949 . S
C155 C156 1.349 . S
C155 C157 1.327 . S
C155 H178 0.950 . S
C156 C155 1.349 . S
C156 C168 1.349 1_545 S
C157 C155 1.327 . S
C157 C173 1.429 . S
C157 H179 0.950 . S
C158 H154 0.949 . S
C158 C166 1.574 . S
C158 C174 1.368 1_565 S
H159 C167 0.950 . S
H160 C165 0.950 . S
H161 C166 0.949 . S
H162 C168 0.950 . S
H163 C169 0.950 . S
H164 C170 0.949 . S
C165 H160 0.950 . S
C165 C167 1.327 . S
C165 C171 1.429 . S
C166 C158 1.574 . S
C166 H161 0.949 . S
C166 C172 1.368 1_565 S
C167 C151 1.349 . S
C167 H159 0.950 . S
C167 C165 1.327 . S
C168 C156 1.349 1_565 S
C168 H162 0.950 . S
C168 C169 1.327 . S
C169 H163 0.950 . S
C169 C168 1.327 . S
C169 C173 1.429 1_565 S
C170 C153 1.574 . S
C170 H164 0.949 . S
C170 C174 1.368 . S
C171 C152 1.429 1_545 S
C171 C165 1.429 . S
C171 C172 1.523 . S
C172 C153 1.368 . S
C172 C166 1.368 1_545 S
C172 C171 1.523 . S
C173 C157 1.429 . S
C173 C169 1.429 1_545 S
C173 C174 1.523 . S
C174 C158 1.368 1_545 S
C174 C170 1.368 . S
C174 C173 1.523 . S
H175 C150 0.961 . S
H176 C152 0.950 . S
H177 C153 0.949 . S
H178 C155 0.950 . S
H179 C157 0.950 . S
C180 C181 1.349 1_556 S
C180 C182 1.327 . S
C180 H205 0.950 . S
C181 C180 1.349 1_554 S
C181 C197 1.349 . S
C182 C180 1.327 . S
C182 C201 1.429 1_556 S
C182 H206 0.950 . S
C183 C200 1.574 . S
C183 C202 1.368 . S
C183 H207 0.949 . S
H184 C188 0.949 . S
C185 C186 1.349 . S
C185 C187 1.327 . S
C185 H208 0.950 . S
C186 C185 1.349 . S
C186 C198 1.349 1_554 S
C187 C185 1.327 . S
C187 C203 1.429 . S
C187 H209 0.950 . S
C188 H184 0.949 . S
C188 C196 1.574 . S
C188 C204 1.368 1_556 S
H189 C197 0.950 . S
H190 C195 0.950 . S
H191 C196 0.949 . S
H192 C198 0.950 . S
H193 C199 0.950 . S
H194 C200 0.949 . S
C195 H190 0.950 . S
C195 C197 1.327 . S
C195 C201 1.429 . S
C196 C188 1.574 . S
C196 H191 0.949 . S
C196 C202 1.368 1_556 S
C197 C181 1.349 . S
C197 H189 0.950 . S
C197 C195 1.327 . S
C198 C186 1.349 1_556 S
C198 H192 0.950 . S
C198 C199 1.327 . S
C199 H193 0.950 . S
C199 C198 1.327 . S
C199 C203 1.429 1_556 S
C200 C183 1.574 . S
C200 H194 0.949 . S
C200 C204 1.368 . S
C201 C182 1.429 1_554 S
C201 C195 1.429 . S
C201 C202 1.523 . S
C202 C183 1.368 . S
C202 C196 1.368 1_554 S
C202 C201 1.523 . S
C203 C187 1.429 . S
C203 C199 1.429 1_554 S
C203 C204 1.523 . S
C204 C188 1.368 1_554 S
C204 C200 1.368 . S
C204 C203 1.523 . S
H205 C180 0.950 . S
H206 C182 0.950 . S
H207 C183 0.949 . S
H208 C185 0.950 . S
H209 C187 0.950 . S
C210 C211 1.349 . S
C210 C212 1.327 . S
C210 H235 0.950 . S
C211 C210 1.349 . S
C211 C227 1.349 1_455 S
C212 C210 1.327 . S
C212 C231 1.429 . S
C212 H236 0.950 . S
C213 C230 1.574 . S
C213 C232 1.368 1_655 S
C213 H237 0.949 . S
H214 C218 0.949 . S
C215 C216 1.349 1_655 S
C215 C217 1.327 . S
C215 H238 0.950 . S
C216 C215 1.349 1_455 S
C216 C228 1.349 . S
C217 C215 1.327 . S
C217 C233 1.429 1_655 S
C217 H239 0.950 . S
C218 H214 0.949 . S
C218 C226 1.574 . S
C218 C234 1.368 . S
H219 C227 0.950 . S
H220 C225 0.950 . S
H221 C226 0.949 . S
H222 C228 0.950 . S
H223 C229 0.950 . S
H224 C230 0.949 . S
C225 H220 0.950 . S
C225 C227 1.327 . S
C225 C231 1.429 1_655 S
C226 C218 1.574 . S
C226 H221 0.949 . S
C226 C232 1.368 . S
C227 C211 1.349 1_655 S
C227 H219 0.950 . S
C227 C225 1.327 . S
C228 C216 1.349 . S
C228 H222 0.950 . S
C228 C229 1.327 . S
C229 H223 0.950 . S
C229 C228 1.327 . S
C229 C233 1.429 . S
C230 C213 1.574 . S
C230 H224 0.949 . S
C230 C234 1.368 1_655 S
C231 C212 1.429 . S
C231 C225 1.429 1_455 S
C231 C232 1.523 . S
C232 C213 1.368 1_455 S
C232 C226 1.368 . S
C232 C231 1.523 . S
C233 C217 1.429 1_455 S
C233 C229 1.429 . S
C233 C234 1.523 . S
C234 C218 1.368 . S
C234 C230 1.368 1_455 S
C234 C233 1.523 . S
H235 C210 0.950 . S
H236 C212 0.950 . S
H237 C213 0.949 . S
H238 C215 0.950 . S
H239 C217 0.950 . S
C240 C241 1.349 . S
C240 C242 1.327 . S
C240 H265 0.950 . S
C241 C240 1.349 . S
C241 C257 1.349 1_445 S
C242 C240 1.327 . S
C242 C261 1.429 . S
C242 H266 0.950 . S
C243 C260 1.574 . S
C243 C262 1.368 1_665 S
C243 H267 0.949 . S
H244 C248 0.949 . S
C245 C246 1.349 1_565 S
C245 C247 1.327 1_455 S
C245 H268 0.950 1_455 S
C246 C245 1.349 1_545 S
C246 C258 1.349 . S
C247 C245 1.327 1_655 S
C247 C263 1.429 1_665 S
C247 H269 0.950 . S
C248 H244 0.949 . S
C248 C256 1.574 . S
C248 C264 1.368 . S
H249 C257 0.950 . S
H250 C255 0.950 . S
H251 C256 0.949 . S
H252 C258 0.950 . S
H253 C259 0.950 . S
H254 C260 0.949 . S
C255 H250 0.950 . S
C255 C257 1.327 . S
C255 C261 1.429 1_665 S
C256 C248 1.574 . S
C256 H251 0.949 . S
C256 C262 1.368 . S
C257 C241 1.349 1_665 S
C257 H249 0.950 . S
C257 C255 1.327 . S
C258 C246 1.349 . S
C258 H252 0.950 . S
C258 C259 1.327 . S
C259 H253 0.950 . S
C259 C258 1.327 . S
C259 C263 1.429 . S
C260 C243 1.574 . S
C260 H254 0.949 . S
C260 C264 1.368 1_665 S
C261 C242 1.429 . S
C261 C255 1.429 1_445 S
C261 C262 1.523 . S
C262 C243 1.368 1_445 S
C262 C256 1.368 . S
C262 C261 1.523 . S
C263 C247 1.429 1_445 S
C263 C259 1.429 . S
C263 C264 1.523 . S
C264 C248 1.368 . S
C264 C260 1.368 1_445 S
C264 C263 1.523 . S
H265 C240 0.950 . S
H266 C242 0.950 . S
H267 C243 0.949 . S
H268 C245 0.950 1_655 S
H269 C247 0.950 . S
C270 C271 1.349 . S
C270 C272 1.327 . S
C270 H295 0.950 . S
C271 C270 1.349 . S
C271 C287 1.349 1_545 S
C272 C270 1.327 . S
C272 C291 1.429 . S
C272 H296 0.950 . S
C273 C290 1.574 . S
C273 C292 1.368 1_565 S
C273 H297 0.949 . S
H274 C278 0.949 . S
C275 C276 1.349 1_565 S
C275 C277 1.327 . S
C275 H298 0.950 . S
C276 C275 1.349 1_545 S
C276 C288 1.349 . S
C277 C275 1.327 . S
C277 C293 1.429 1_565 S
C277 H299 0.950 . S
C278 H274 0.949 . S
C278 C286 1.574 . S
C278 C294 1.368 . S
H279 C287 0.950 . S
H280 C285 0.950 . S
H281 C286 0.949 . S
H282 C288 0.950 . S
H283 C289 0.950 . S
H284 C290 0.949 . S
C285 H280 0.950 . S
C285 C287 1.327 . S
C285 C291 1.429 1_565 S
C286 C278 1.574 . S
C286 H281 0.949 . S
C286 C292 1.368 . S
C287 C271 1.349 1_565 S
C287 H279 0.950 . S
C287 C285 1.327 . S
C288 C276 1.349 . S
C288 H282 0.950 . S
C288 C289 1.327 . S
C289 H283 0.950 . S
C289 C288 1.327 . S
C289 C293 1.429 . S
C290 C273 1.574 . S
C290 H284 0.949 . S
C290 C294 1.368 1_565 S
C291 C272 1.429 . S
C291 C285 1.429 1_545 S
C291 C292 1.523 . S
C292 C273 1.368 1_545 S
C292 C286 1.368 . S
C292 C291 1.523 . S
C293 C277 1.429 1_545 S
C293 C289 1.429 . S
C293 C294 1.523 . S
C294 C278 1.368 . S
C294 C290 1.368 1_545 S
C294 C293 1.523 . S
H295 C270 0.950 . S
H296 C272 0.950 . S
H297 C273 0.949 . S
H298 C275 0.950 . S
H299 C277 0.950 . S
C300 C301 1.349 . S
C300 C302 1.327 . S
C300 H325 0.950 . S
C301 C300 1.349 . S
C301 C317 1.349 1_545 S
C302 C300 1.327 . S
C302 C321 1.429 . S
C302 H326 0.950 . S
C303 C320 1.574 . S
C303 C322 1.368 1_565 S
C303 H327 0.949 . S
H304 C308 0.949 . S
C305 C306 1.349 1_565 S
C305 C307 1.327 . S
C305 H328 0.950 . S
C306 C305 1.349 1_545 S
C306 C318 1.349 . S
C307 C305 1.327 . S
C307 C323 1.429 1_565 S
C307 H329 0.950 . S
C308 H304 0.949 . S
C308 C316 1.574 . S
C308 C324 1.368 . S
H309 C317 0.950 . S
H310 C315 0.950 . S
H311 C316 0.949 . S
H312 C318 0.950 . S
H313 C319 0.950 . S
H314 C320 0.949 . S
C315 H310 0.950 . S
C315 C317 1.327 . S
C315 C321 1.429 1_565 S
C316 C308 1.574 . S
C316 H311 0.949 . S
C316 C322 1.368 . S
C317 C301 1.349 1_565 S
C317 H309 0.950 . S
C317 C315 1.327 . S
C318 C306 1.349 . S
C318 H312 0.950 . S
C318 C319 1.327 . S
C319 H313 0.950 . S
C319 C318 1.327 . S
C319 C323 1.429 . S
C320 C303 1.574 . S
C320 H314 0.949 . S
C320 C324 1.368 1_565 S
C321 C302 1.429 . S
C321 C315 1.429 1_545 S
C321 C322 1.523 . S
C322 C303 1.368 1_545 S
C322 C316 1.368 . S
C322 C321 1.523 . S
C323 C307 1.429 1_545 S
C323 C319 1.429 . S
C323 C324 1.523 . S
C324 C308 1.368 . S
C324 C320 1.368 1_545 S
C324 C323 1.523 . S
H325 C300 0.950 . S
H326 C302 0.950 . S
H327 C303 0.949 . S
H328 C305 0.950 . S
H329 C307 0.950 . S
C61 C4 1.387 . S
C66 C2 1.387 . S
C91 C29 1.083 . S
C96 C32 1.083 . S
C121 C52 1.241 . S
C126 C49 1.241 . S
C151 C44 1.548 . S
C156 C42 1.548 . S
C181 C9 1.235 . S
C186 C12 1.235 . S
C211 C24 1.386 1_455 S
C216 C22 1.386 . S
C241 C38 1.490 . S
C246 C18 1.484 . S
C271 C39 1.483 . S
C276 C58 1.492 . S
C301 C59 1.490 . S
C306 C19 1.495 . S
