# Generated by pormake.
# Topology wko, (6)-cn, num edge types: 1
# Building blocks:
#     Node 0, Type 0, BuildingBlock: IZENUY_clean_sbu_0, # of connection points: 6
#     Node 1, Type 0, BuildingBlock: IZENUY_clean_sbu_0, # of connection points: 6
#     Node 2, Type 0, BuildingBlock: IZENUY_clean_sbu_0, # of connection points: 6
#     Node 3, Type 0, BuildingBlock: IZENUY_clean_sbu_0, # of connection points: 6
#     Node 4, Type 0, BuildingBlock: IZENUY_clean_sbu_0, # of connection points: 6
#     Node 5, Type 0, BuildingBlock: IZENUY_clean_sbu_0, # of connection points: 6
#     Node 6, Type 0, BuildingBlock: IZENUY_clean_sbu_0, # of connection points: 6
#     Node 7, Type 0, BuildingBlock: IZENUY_clean_sbu_0, # of connection points: 6
#     Node 8, Type 0, BuildingBlock: IZENUY_clean_sbu_0, # of connection points: 6
#     Node 9, Type 0, BuildingBlock: IZENUY_clean_sbu_0, # of connection points: 6
#     Node 10, Type 0, BuildingBlock: IZENUY_clean_sbu_0, # of connection points: 6
#     Node 11, Type 0, BuildingBlock: IZENUY_clean_sbu_0, # of connection points: 6
#     Edge 12, Type (0, 0), BuildingBlock: EZIPEK_clean_linker_0, # of connection points: 2
#     Edge 13, Type (0, 0), BuildingBlock: EZIPEK_clean_linker_0, # of connection points: 2
#     Edge 14, Type (0, 0), BuildingBlock: EZIPEK_clean_linker_0, # of connection points: 2
#     Edge 15, Type (0, 0), BuildingBlock: EZIPEK_clean_linker_0, # of connection points: 2
#     Edge 16, Type (0, 0), BuildingBlock: EZIPEK_clean_linker_0, # of connection points: 2
#     Edge 17, Type (0, 0), BuildingBlock: EZIPEK_clean_linker_0, # of connection points: 2
#     Edge 18, Type (0, 0), BuildingBlock: EZIPEK_clean_linker_0, # of connection points: 2
#     Edge 19, Type (0, 0), BuildingBlock: EZIPEK_clean_linker_0, # of connection points: 2
#     Edge 20, Type (0, 0), BuildingBlock: EZIPEK_clean_linker_0, # of connection points: 2
#     Edge 21, Type (0, 0), BuildingBlock: EZIPEK_clean_linker_0, # of connection points: 2
#     Edge 22, Type (0, 0), BuildingBlock: EZIPEK_clean_linker_0, # of connection points: 2
#     Edge 23, Type (0, 0), BuildingBlock: EZIPEK_clean_linker_0, # of connection points: 2
#     Edge 24, Type (0, 0), BuildingBlock: EZIPEK_clean_linker_0, # of connection points: 2
#     Edge 25, Type (0, 0), BuildingBlock: EZIPEK_clean_linker_0, # of connection points: 2
#     Edge 26, Type (0, 0), BuildingBlock: EZIPEK_clean_linker_0, # of connection points: 2
#     Edge 27, Type (0, 0), BuildingBlock: EZIPEK_clean_linker_0, # of connection points: 2
#     Edge 28, Type (0, 0), BuildingBlock: EZIPEK_clean_linker_0, # of connection points: 2
#     Edge 29, Type (0, 0), BuildingBlock: EZIPEK_clean_linker_0, # of connection points: 2
#     Edge 30, Type (0, 0), BuildingBlock: EZIPEK_clean_linker_0, # of connection points: 2
#     Edge 31, Type (0, 0), BuildingBlock: EZIPEK_clean_linker_0, # of connection points: 2
#     Edge 32, Type (0, 0), BuildingBlock: EZIPEK_clean_linker_0, # of connection points: 2
#     Edge 33, Type (0, 0), BuildingBlock: EZIPEK_clean_linker_0, # of connection points: 2
#     Edge 34, Type (0, 0), BuildingBlock: EZIPEK_clean_linker_0, # of connection points: 2
#     Edge 35, Type (0, 0), BuildingBlock: EZIPEK_clean_linker_0, # of connection points: 2
#     Edge 36, Type (0, 0), BuildingBlock: EZIPEK_clean_linker_0, # of connection points: 2
#     Edge 37, Type (0, 0), BuildingBlock: EZIPEK_clean_linker_0, # of connection points: 2
#     Edge 38, Type (0, 0), BuildingBlock: EZIPEK_clean_linker_0, # of connection points: 2
#     Edge 39, Type (0, 0), BuildingBlock: EZIPEK_clean_linker_0, # of connection points: 2
#     Edge 40, Type (0, 0), BuildingBlock: EZIPEK_clean_linker_0, # of connection points: 2
#     Edge 41, Type (0, 0), BuildingBlock: EZIPEK_clean_linker_0, # of connection points: 2
#     Edge 42, Type (0, 0), BuildingBlock: EZIPEK_clean_linker_0, # of connection points: 2
#     Edge 43, Type (0, 0), BuildingBlock: EZIPEK_clean_linker_0, # of connection points: 2
#     Edge 44, Type (0, 0), BuildingBlock: EZIPEK_clean_linker_0, # of connection points: 2
#     Edge 45, Type (0, 0), BuildingBlock: EZIPEK_clean_linker_0, # of connection points: 2
#     Edge 46, Type (0, 0), BuildingBlock: EZIPEK_clean_linker_0, # of connection points: 2
#     Edge 47, Type (0, 0), BuildingBlock: EZIPEK_clean_linker_0, # of connection points: 2
# Relax obj value: 0.319
# Max RMSD: 0.278
# Mean RMSD: 0.278
data_MOF--net-wko--node1-IZENUY_clean_sbu_0--edge1-EZIPEK_clean_linker_0
_symmetry_space_group_name_H-M    P1
_symmetry_Int_Tables_number       1
_symmetry_cell_setting            triclinic
loop_
_symmetry_equiv_pos_as_xyz
'x, y, z'
_cell_length_a     33.911234
_cell_length_b     34.002994
_cell_length_c     21.811942
_cell_angle_alpha  89.708009
_cell_angle_beta   90.085735
_cell_angle_gamma 120.00213
loop_
_atom_site_label
_atom_site_type_symbol
_atom_site_fract_x
_atom_site_fract_y
_atom_site_fract_z
_atom_type_partial_charge
Fe0 Fe 0.37329 0.36178 0.41293 0.0
Fe1 Fe 0.33476 0.26221 0.45745 0.0
O2 O 0.37586 0.31063 0.41557 0.0
Fe3 Fe 0.42071 0.30742 0.37717 0.0
O4 O 0.46355 0.36774 0.38008 0.0
O5 O 0.43273 0.39801 0.43601 0.0
O6 O 0.35763 0.35971 0.49381 0.0
C7 C 0.3531 0.33267 0.53681 0.0
C8 C 0.39111 0.34617 0.29052 0.0
O9 O 0.34818 0.29404 0.52701 0.0
C10 C 0.34613 0.21652 0.36256 0.0
O11 O 0.31391 0.33331 0.38968 0.0
O12 O 0.28601 0.27137 0.4444 0.0
O13 O 0.40067 0.31536 0.30336 0.0
O14 O 0.38754 0.3706 0.3315 0.0
C15 C 0.41907 0.27001 0.48896 0.0
O16 O 0.31801 0.22448 0.39031 0.0
O17 O 0.38822 0.24556 0.36468 0.0
C18 C 0.28017 0.30034 0.41517 0.0
O19 O 0.37628 0.24602 0.48253 0.0
O20 O 0.44307 0.30043 0.45018 0.0
C21 C 0.46732 0.4009 0.41005 0.0
Fe22 Fe 0.13018 0.41116 0.54165 0.0
Fe23 Fe 0.03313 0.36913 0.5943 0.0
O24 O 0.08514 0.36862 0.58689 0.0
Fe25 Fe 0.09084 0.32588 0.62707 0.0
O26 O 0.14048 0.36772 0.66665 0.0
O27 O 0.17573 0.42129 0.59662 0.0
O28 O 0.12862 0.45885 0.57868 0.0
C29 C 0.09442 0.46408 0.58106 0.0
C30 C 0.14384 0.33803 0.51804 0.0
O31 O 0.05514 0.42985 0.57769 0.0
C32 C 1.00056 0.27355 0.60215 0.0
O33 O 0.09063 0.40659 0.48063 0.0
O34 O 1.02112 0.35566 0.51358 0.0
O35 O 0.12724 0.31951 0.56942 0.0
O36 O 0.13828 0.36988 0.49836 0.0
C37 C 0.05237 0.35858 0.71316 0.0
O38 O 0.99695 0.30815 0.61261 0.0
O39 O 0.0397 0.27876 0.59178 0.0
C40 C 0.04902 0.37743 0.47064 0.0
O41 O 0.04541 0.38309 0.67545 0.0
O42 O 0.05771 0.32653 0.69362 0.0
C43 C 0.17431 0.40408 0.64885 0.0
Fe44 Fe 0.67486 0.02397 0.74342 0.0
Fe45 Fe 0.77327 0.06899 0.79268 0.0
O46 O 0.73016 0.07352 0.75043 0.0
Fe47 Fe 0.74059 0.12589 0.71612 0.0
O48 O 0.68658 0.12172 0.73881 0.0
O49 O 0.64047 0.04999 0.7278 0.0
O50 O 0.66443 0.02556 0.82437 0.0
C51 C 0.69151 0.02867 0.86663 0.0
C52 C 0.69927 0.05582 0.6242 0.0
O53 O 0.73234 0.03767 0.85566 0.0
C54 C 0.82748 0.132 0.69947 0.0
O55 O 0.6913 0.98124 0.7585 0.0
O56 O 0.76421 0.01672 0.75548 0.0
O57 O 0.71837 0.09725 0.64179 0.0
O58 O 0.68403 0.02245 0.66192 0.0
C59 C 0.78396 0.15367 0.83159 0.0
O60 O 0.81956 0.10025 0.73692 0.0
O61 O 0.79774 0.14297 0.68827 0.0
C62 C 0.72739 0.97966 0.75505 0.0
O63 O 0.79063 0.12046 0.83595 0.0
O64 O 0.76331 0.1586 0.78642 0.0
C65 C 0.64672 0.08902 0.73515 0.0
Fe66 Fe 0.7226 0.76209 0.94811 0.0
Fe67 Fe 0.62932 0.71725 0.88217 0.0
O68 O 0.67643 0.7149 0.91172 0.0
Fe69 Fe 0.67738 0.66283 0.90615 0.0
O70 O 0.66366 0.65269 0.98736 0.0
O71 O 0.71653 0.72339 0.01421 0.0
O72 O 0.68843 0.77859 0.99092 0.0
C73 C 0.64719 0.7665 0.99463 0.0
C74 C 0.77194 0.72278 0.9176 0.0
O75 O 0.61947 0.74029 0.95417 0.0
C76 C 0.66688 0.68455 0.78802 0.0
O77 O 0.73117 0.80503 0.88955 0.0
O78 O 0.66286 0.77368 0.84851 0.0
O79 O 0.73755 0.68451 0.92545 0.0
O80 O 0.76603 0.7556 0.9079 0.0
C81 C 0.58275 0.62412 0.90185 0.0
O82 O 0.63676 0.69448 0.80727 0.0
O83 O 0.69008 0.67444 0.82483 0.0
C84 C 0.70243 0.80741 0.85465 0.0
O85 O 0.58607 0.66175 0.91273 0.0
O86 O 0.61785 0.62348 0.88645 0.0
C87 C 0.68571 0.68233 0.02837 0.0
Fe88 Fe 1.02557 0.66869 0.08971 0.0
Fe89 Fe 0.96019 0.70399 0.11965 0.0
O90 O 0.97238 0.6663 0.07983 0.0
Fe91 Fe 0.92928 0.62485 0.03209 0.0
O92 O 0.94588 0.5813 0.04106 0.0
O93 O 0.99921 0.60892 0.11079 0.0
O94 O 0.02861 0.6805 0.17238 0.0
C95 C 0.99831 0.67748 0.20942 0.0
C96 C 1.0063 0.65613 0.96112 0.0
O97 O 0.96488 0.6806 0.19129 0.0
C98 C 0.91933 0.7029 0.01302 0.0
O99 O 0.05916 0.7294 0.0715 0.0
O100 O 1.01928 0.75164 0.12449 0.0
O101 O 0.96597 0.64891 0.96583 0.0
O102 O 0.02929 0.65692 0.00792 0.0
C103 C 0.88019 0.62156 0.1329 0.0
O104 O 0.95234 0.7277 0.04815 0.0
O105 O 0.90384 0.66028 0.01192 0.0
C106 C 0.05643 0.76033 0.09956 0.0
O107 O 0.89984 0.66404 0.1259 0.0
O108 O 0.89036 0.59847 0.09774 0.0
C109 C 0.96971 0.5757 0.08084 0.0
Fe110 Fe 0.31188 0.90919 0.19717 0.0
Fe111 Fe 0.37078 1.00682 0.24777 0.0
O112 O 0.31794 0.95555 0.2418 0.0
Fe113 Fe 0.26935 0.94931 0.28143 0.0
O114 O 0.24242 0.88746 0.29077 0.0
O115 O 0.29572 0.87243 0.26531 0.0
O116 O 0.37006 0.9196 0.20779 0.0
C117 C 0.40325 0.94625 0.24087 0.0
C118 C 0.22907 0.90992 0.1744 0.0
O119 O 0.40298 0.97886 0.26765 0.0
C120 C 0.31677 0.04502 0.25875 0.0
O121 O 0.32825 0.94354 0.12811 0.0
O122 O 0.38392 1.00843 0.16576 0.0
O123 O 0.23987 0.94365 0.20904 0.0
O124 O 0.25199 0.88961 0.17631 0.0
C125 C 0.33569 0.9831 0.37036 0.0
O126 O 0.34633 0.0423 0.22752 0.0
O127 O 0.28641 1.00996 0.28539 0.0
C128 C 0.36143 0.98347 0.12091 0.0
O129 O 0.36388 1.01129 0.33149 0.0
O130 O 0.29648 0.95381 0.35352 0.0
C131 C 0.26247 0.86503 0.2992 0.0
Fe132 Fe 0.67933 0.6718 0.412 0.0
Fe133 Fe 0.77886 0.7146 0.36756 0.0
O134 O 0.73123 0.66999 0.4069 0.0
Fe135 Fe 0.73334 0.6232 0.43956 0.0
O136 O 0.67689 0.57928 0.41409 0.0
O137 O 0.63898 0.61288 0.43186 0.0
O138 O 0.66879 0.65775 0.33124 0.0
C139 C 0.69825 0.67798 0.28918 0.0
C140 C 0.70046 0.6622 0.53137 0.0
O141 O 0.74019 0.70713 0.30127 0.0
C142 C 0.82428 0.69666 0.46419 0.0
O143 O 0.70119 0.73164 0.39182 0.0
O144 O 0.77359 0.76083 0.40172 0.0
O145 O 0.71218 0.63313 0.51407 0.0
O146 O 0.69036 0.68471 0.49333 0.0
C147 C 0.78 0.6361 0.32569 0.0
O148 O 0.82175 0.72482 0.42796 0.0
O149 O 0.79113 0.65666 0.4697 0.0
C150 C 0.73991 0.7661 0.39417 0.0
O151 O 0.79455 0.678 0.32755 0.0
O152 O 0.75371 0.61008 0.36767 0.0
C153 C 0.63924 0.57706 0.42113 0.0
Fe154 Fe 0.08756 0.77053 0.54472 0.0
Fe155 Fe 0.13476 0.73088 0.62339 0.0
O156 O 0.08451 0.72353 0.5861 0.0
Fe157 Fe 0.03276 0.6703 0.58972 0.0
O158 O 1.01835 0.67152 0.5092 0.0
O159 O 0.07149 0.73885 0.47424 0.0
O160 O 0.14721 0.79327 0.52085 0.0
C161 C 0.16879 0.77227 0.51244 0.0
C162 C 0.99357 0.7245 0.58329 0.0
O163 O 0.16447 0.74176 0.54974 0.0
C164 C 0.06959 0.68387 0.7116 0.0
O165 O 0.10453 0.80652 0.6134 0.0
O166 O 0.15902 0.7925 0.63852 0.0
O167 O 0.99855 0.69564 0.61386 0.0
O168 O 0.02772 0.7559 0.55579 0.0
C169 C 0.09311 0.63697 0.58951 0.0
O170 O 0.10704 0.71906 0.69787 0.0
O171 O 0.04026 0.66188 0.67062 0.0
C172 C 0.14151 0.81791 0.64145 0.0
O173 O 0.12225 0.67154 0.61819 0.0
O174 O 0.05903 0.63679 0.56575 0.0
C175 C 0.03902 0.69895 0.46572 0.0
Fe176 Fe 0.37836 0.02238 0.74642 0.0
Fe177 Fe 0.33707 0.08026 0.70249 0.0
O178 O 0.37813 0.07464 0.747 0.0
Fe179 Fe 0.41906 0.12074 0.79184 0.0
O180 O 0.46732 0.12074 0.75452 0.0
O181 O 0.44016 0.04727 0.75998 0.0
O182 O 0.39032 0.02754 0.66473 0.0
C183 C 0.36578 0.03224 0.62506 0.0
C184 C 0.38892 0.04324 0.86832 0.0
O185 O 0.33714 0.04414 0.63999 0.0
C186 C 0.34554 0.13293 0.81046 0.0
O187 O 0.31685 0.98618 0.7321 0.0
O188 O 0.28851 0.03134 0.73979 0.0
O189 O 0.41795 0.084 0.8548 0.0
O190 O 0.36599 1.01446 0.82767 0.0
C191 C 0.41408 0.16333 0.68144 0.0
O192 O 0.33108 0.11931 0.75644 0.0
O193 O 0.37515 0.12533 0.83377 0.0
C194 C 0.28256 0.99152 0.73543 0.0
O195 O 0.38104 0.12779 0.66001 0.0
O196 O 0.4268 0.16537 0.73656 0.0
C197 C 0.47342 0.08709 0.75258 0.0
Fe198 Fe 0.36766 0.36086 0.91835 0.0
Fe199 Fe 0.26803 0.32294 0.87682 0.0
O200 O 0.31651 0.36328 0.91813 0.0
Fe201 Fe 0.31293 0.40686 0.95866 0.0
O202 O 0.37424 0.45025 0.955 0.0
O203 O 0.4028 0.41994 0.89445 0.0
O204 O 0.36411 0.34605 0.83661 0.0
C205 C 0.33736 0.34432 0.79461 0.0
C206 C 0.35225 0.37671 0.04234 0.0
O207 O 0.29892 0.3398 0.80608 0.0
C208 C 0.22401 0.32992 0.97625 0.0
O209 O 0.33965 0.30148 0.94102 0.0
O210 O 0.27918 0.27516 0.88412 0.0
O211 O 0.32098 0.38555 0.03067 0.0
O212 O 0.37753 0.37465 0.00074 0.0
C213 C 0.273 0.40611 0.84992 0.0
O214 O 0.23316 0.30363 0.94639 0.0
O215 O 0.25068 0.37262 0.97308 0.0
C216 C 0.30737 0.26846 0.91384 0.0
O217 O 0.24892 0.36354 0.85765 0.0
O218 O 0.3049 0.42995 0.88679 0.0
C219 C 0.40627 0.45422 0.92111 0.0
Fe220 Fe 0.02803 0.37114 0.09307 0.0
Fe221 Fe 0.96917 0.27607 0.03909 0.0
O222 O 0.97489 0.31985 0.08848 0.0
Fe223 Fe 0.92796 0.31252 0.13292 0.0
O224 O 0.93011 0.36319 0.10111 0.0
O225 O 1.00384 0.40786 0.11147 0.0
O226 O 1.02547 0.38374 0.01228 0.0
C227 C 1.02102 0.35655 0.96994 0.0
C228 C 1.0035 0.35364 0.21369 0.0
O229 O 1.009 0.31553 0.98172 0.0
C230 C 0.91178 0.22546 0.14097 0.0
O231 O 0.06293 0.34481 0.07503 0.0
O232 O 1.01462 0.27163 0.07816 0.0
O233 O 0.96326 0.34359 0.19927 0.0
O234 O 0.03329 0.361 0.17357 0.0
C235 C 0.88894 0.2742 0.0168 0.0
O236 O 0.92598 0.22802 0.08638 0.0
O237 O 0.92158 0.26137 0.1692 0.0
C238 C 0.05528 0.30427 0.07604 0.0
O239 O 0.92535 0.27851 0.9957 0.0
O240 O 0.88499 0.27985 0.07349 0.0
C241 C 0.96446 0.40247 0.10309 0.0
Fe242 Fe 0.66849 1.01413 0.24673 0.0
Fe243 Fe 0.71132 0.95984 0.19742 0.0
O244 O 0.67142 0.96334 0.24625 0.0
Fe245 Fe 0.63405 0.91701 0.29418 0.0
O246 O 0.58333 0.9151 0.26128 0.0
O247 O 0.60843 0.98783 0.26949 0.0
O248 O 0.64985 1.00571 0.16676 0.0
C249 C 0.67182 1.00039 0.12368 0.0
C250 C 0.66562 0.9953 0.36959 0.0
O251 O 0.70378 0.99212 0.13491 0.0
C252 C 0.71392 0.91216 0.30586 0.0
O253 O 0.72771 0.05243 0.22305 0.0
O254 O 0.76001 1.01097 0.22944 0.0
O255 O 0.63676 0.95436 0.35703 0.0
O256 O 0.68682 0.02367 0.32682 0.0
C257 C 0.63574 0.87405 0.18367 0.0
O258 O 0.72397 0.92526 0.25062 0.0
O259 O 0.68097 0.91351 0.33143 0.0
C260 C 0.76344 0.0496 0.22469 0.0
O261 O 0.66755 0.90967 0.16018 0.0
O262 O 0.62522 0.87244 0.23958 0.0
C263 C 0.57596 0.94798 0.26157 0.0
C264 C 0.42832 0.2685 0.60116 0.0
C265 C 0.43954 0.25972 0.54245 0.0
C266 C 0.45846 0.20562 0.58873 0.0
C267 C 0.43402 0.20453 0.64194 0.0
N268 N 0.39903 0.2383 0.7021 0.0
N269 N 0.4733 0.22601 0.48076 0.0
C270 C 0.42093 0.23779 0.64992 0.0
C271 C 0.45809 0.2308 0.53652 0.0
N272 N 0.42503 0.30642 0.60973 0.0
N273 N 0.48205 0.18287 0.5889 0.0
H274 H 0.47473 0.24553 0.44285 0.0
H275 H 0.48283 0.20187 0.47174 0.0
H276 H 0.4834 0.16555 0.62784 0.0
H277 H 0.5033 0.18467 0.55327 0.0
H278 H 0.42019 0.31675 0.65257 0.0
H279 H 0.43267 0.33005 0.57444 0.0
H280 H 0.3838 0.25818 0.7071 0.0
H281 H 0.39442 0.21724 0.73946 0.0
C282 C 0.2269 0.43789 0.80356 0.0
C283 C 0.26162 0.42666 0.79746 0.0
C284 C 0.25082 0.41997 0.68613 0.0
C285 C 0.21255 0.42581 0.69294 0.0
N286 N 0.17228 0.45373 0.7524 0.0
N287 N 0.31821 0.42533 0.73313 0.0
C288 C 0.20386 0.44001 0.74996 0.0
C289 C 0.27758 0.42411 0.73852 0.0
N290 N 0.21494 0.44446 0.86072 0.0
N291 N 0.25934 0.40691 0.63092 0.0
H292 H 0.33813 0.42875 0.77137 0.0
H293 H 0.33394 0.42772 0.69122 0.0
H294 H 0.241 0.4048 0.59148 0.0
H295 H 0.28306 0.39631 0.62491 0.0
H296 H 0.18771 0.44956 0.86964 0.0
H297 H 0.23249 0.4442 0.89995 0.0
H298 H 0.16494 0.46624 0.79153 0.0
H299 H 0.15548 0.45543 0.71317 0.0
C300 C 0.85522 0.26703 0.91355 0.0
C301 C 0.84895 0.25215 0.97525 0.0
C302 C 0.79328 0.17556 0.94384 0.0
C303 C 0.80293 0.18877 0.88083 0.0
N304 N 0.84736 0.2473 0.806 0.0
N305 N 0.79743 0.19906 0.04945 0.0
C306 C 0.83403 0.23498 0.86554 0.0
C307 C 0.81313 0.20863 0.99053 0.0
N308 N 0.8818 0.31228 0.90166 0.0
N309 N 0.76772 0.13096 0.9598 0.0
H310 H 0.80886 0.2238 0.08332 0.0
H311 H 0.76894 0.16868 0.06273 0.0
H312 H 0.75124 0.10546 0.92794 0.0
H313 H 0.76581 0.1189 0.00433 0.0
H314 H 0.88471 0.32701 0.85875 0.0
H315 H 0.89708 0.3355 0.93708 0.0
H316 H 0.87369 0.27915 0.79291 0.0
H317 H 0.83513 0.22475 0.76943 0.0
C318 C 0.6525 0.8149 0.15626 0.0
C319 C 0.62275 0.83166 0.14986 0.0
C320 C 0.59569 0.79138 0.05158 0.0
C321 C 0.63365 0.78352 0.05099 0.0
N322 N 0.69992 0.79142 0.10917 0.0
N323 N 0.5599 0.83075 0.0997 0.0
C324 C 0.66228 0.79609 0.1052 0.0
C325 C 0.59199 0.81772 0.10025 0.0
N326 N 0.67169 0.81697 0.21222 0.0
N327 N 0.5637 0.77492 0.00613 0.0
H328 H 0.5553 0.8469 0.13734 0.0
H329 H 0.53932 0.82733 0.06236 0.0
H330 H 0.56491 0.75776 0.96777 0.0
H331 H 0.53349 0.77577 0.0078 0.0
H332 H 0.69248 0.80322 0.22148 0.0
H333 H 0.66192 0.82718 0.25153 0.0
H334 H 0.72682 0.81066 0.13898 0.0
H335 H 0.70434 0.76771 0.08565 0.0
C336 C 0.79762 0.63746 0.21056 0.0
C337 C 0.7951 0.61896 0.27119 0.0
C338 C 0.83768 0.58325 0.22986 0.0
C339 C 0.83835 0.60153 0.17127 0.0
N340 N 0.80419 0.62914 0.10102 0.0
N341 N 0.8054 0.56445 0.3321 0.0
C342 C 0.81117 0.62091 0.16034 0.0
C343 C 0.81194 0.58796 0.27862 0.0
N344 N 0.79056 0.67303 0.19998 0.0
N345 N 0.86409 0.56407 0.23975 0.0
H346 H 0.78932 0.56794 0.37042 0.0
H347 H 0.8133 0.53867 0.33701 0.0
H348 H 0.88058 0.55822 0.20363 0.0
H349 H 0.87076 0.5557 0.28305 0.0
H350 H 0.79931 0.69138 0.15905 0.0
H351 H 0.77803 0.68638 0.2314 0.0
H352 H 0.78657 0.64561 0.08834 0.0
H353 H 0.81448 0.61685 0.06417 0.0
C354 C 0.24541 0.81928 0.46085 0.0
C355 C 0.19914 0.78471 0.45762 0.0
C356 C 0.20041 0.79277 0.34569 0.0
C357 C 0.24534 0.83014 0.34911 0.0
N358 N 0.31528 0.8701 0.40585 0.0
N359 N 0.13996 0.72659 0.39685 0.0
C360 C 0.26964 0.83986 0.40538 0.0
C361 C 0.17904 0.76755 0.39979 0.0
N362 N 0.26529 0.83369 0.51694 0.0
N363 N 0.1776 0.78249 0.29115 0.0
H364 H 0.12529 0.70698 0.43608 0.0
H365 H 0.12559 0.7101 0.35581 0.0
H366 H 0.19324 0.79883 0.25019 0.0
H367 H 0.14296 0.75918 0.28707 0.0
H368 H 0.29757 0.86163 0.52348 0.0
H369 H 0.24844 0.81814 0.55766 0.0
H370 H 0.33592 0.87713 0.44427 0.0
H371 H 0.33317 0.88569 0.36592 0.0
C372 C 0.52531 0.47161 0.46599 0.0
C373 C 0.51282 0.44461 0.4125 0.0
C374 C 0.58655 0.50177 0.36697 0.0
C375 C 0.59488 0.53204 0.41686 0.0
N376 N 0.56019 0.54766 0.50435 0.0
N377 N 0.53039 0.44033 0.30544 0.0
C378 C 0.56066 0.51779 0.4633 0.0
C379 C 0.5432 0.4612 0.36119 0.0
N380 N 0.50542 0.45272 0.52083 0.0
N381 N 0.61929 0.51175 0.32364 0.0
H382 H 0.49948 0.41128 0.29677 0.0
H383 H 0.54885 0.45467 0.26535 0.0
H384 H 0.64947 0.54254 0.32117 0.0
H385 H 0.61743 0.48805 0.29193 0.0
H386 H 0.51623 0.47043 0.56204 0.0
H387 H 0.48299 0.41795 0.526 0.0
H388 H 0.53352 0.53828 0.53538 0.0
H389 H 0.58268 0.58239 0.50331 0.0
C390 C 0.08924 0.52567 0.64012 0.0
C391 C 0.09948 0.51091 0.58461 0.0
C392 C 0.10781 0.57982 0.53245 0.0
C393 C 0.09744 0.59453 0.58809 0.0
N394 N 0.08875 0.58612 0.69805 0.0
N395 N 0.1257 0.52733 0.48015 0.0
C396 C 0.09129 0.56879 0.64279 0.0
C397 C 0.11094 0.53911 0.53143 0.0
N398 N 0.07687 0.49802 0.6906 0.0
N399 N 0.11509 0.60518 0.48052 0.0
H400 H 0.12802 0.49796 0.4777 0.0
H401 H 0.13845 0.54768 0.44127 0.0
H402 H 0.11766 0.63703 0.48111 0.0
H403 H 0.11729 0.59451 0.4367 0.0
H404 H 0.06243 0.50297 0.72978 0.0
H405 H 0.07902 0.46852 0.69229 0.0
H406 H 0.08958 0.57204 0.74016 0.0
H407 H 0.08968 0.61695 0.70245 0.0
C408 C 0.5969 0.11624 0.78677 0.0
C409 C 0.60573 0.09553 0.73587 0.0
C410 C 0.53203 0.07918 0.69072 0.0
C411 C 0.5206 0.0939 0.74514 0.0
N412 N 0.54096 0.12408 0.84719 0.0
N413 N 0.58019 0.05596 0.63923 0.0
C414 C 0.55297 0.11232 0.79345 0.0
C415 C 0.57283 0.07673 0.68783 0.0
N416 N 0.63024 0.13957 0.8291 0.0
N417 N 0.50455 0.06919 0.64054 0.0
H418 H 0.61089 0.05688 0.63149 0.0
H419 H 0.55507 0.03583 0.60781 0.0
H420 H 0.4751 0.07146 0.64102 0.0
H421 H 0.51299 0.06318 0.59708 0.0
H422 H 0.62784 0.15969 0.86304 0.0
H423 H 0.66204 0.14203 0.82789 0.0
H424 H 0.56011 0.13176 0.88723 0.0
H425 H 0.51001 0.12312 0.85326 0.0
C426 C 0.47053 0.5167 0.85886 0.0
C427 C 0.45064 0.49876 0.91684 0.0
C428 C 0.51568 0.56514 0.96536 0.0
C429 C 0.5377 0.58026 0.90751 0.0
N430 N 0.54087 0.55874 0.80294 0.0
N431 N 0.46272 0.50005 0.02584 0.0
C432 C 0.5166 0.55263 0.8553 0.0
C433 C 0.47531 0.52161 0.97045 0.0
N434 N 0.44518 0.50048 0.80686 0.0
N435 N 0.53417 0.59125 0.01614 0.0
H436 H 0.43689 0.46639 0.02989 0.0
H437 H 0.4815 0.51317 0.06587 0.0
H438 H 0.56556 0.62103 0.01537 0.0
H439 H 0.51708 0.58444 0.05795 0.0
H440 H 0.45696 0.51518 0.76382 0.0
H441 H 0.41085 0.47569 0.808 0.0
H442 H 0.5278 0.53707 0.76542 0.0
H443 H 0.57567 0.58125 0.80034 0.0
C444 C 0.95535 0.46007 0.04156 0.0
C445 C 0.95878 0.44332 0.09949 0.0
C446 C 0.95972 0.50932 0.14689 0.0
C447 C 0.96584 0.53002 0.0881 0.0
N448 N 0.98068 0.52754 0.98028 0.0
N449 N 0.96338 0.45179 0.2092 0.0
C450 C 0.96648 0.50597 0.03551 0.0
C451 C 0.96098 0.46806 0.15286 0.0
N452 N 0.93998 0.4318 0.99252 0.0
N453 N 0.95007 0.5275 0.1963 0.0
H454 H 0.95998 0.4198 0.21525 0.0
H455 H 0.97059 0.47074 0.24924 0.0
H456 H 0.9467 0.55622 0.19277 0.0
H457 H 0.94111 0.5118 0.23916 0.0
H458 H 0.93338 0.44159 0.95008 0.0
H459 H 0.9288 0.39731 0.99707 0.0
H460 H 0.98462 0.51186 0.94166 0.0
H461 H 0.99428 0.56246 0.97548 0.0
C462 C 0.46477 0.94461 0.30552 0.0
C463 C 0.44441 0.94032 0.24691 0.0
C464 C 0.50528 0.92963 0.20118 0.0
C465 C 0.52854 0.94043 0.25811 0.0
N466 N 0.5321 0.96129 0.36428 0.0
N467 N 0.44888 0.93295 0.1368 0.0
C468 C 0.50869 0.94876 0.31017 0.0
C469 C 0.4652 0.9332 0.19425 0.0
N470 N 0.4412 0.94259 0.35734 0.0
N471 N 0.52193 0.9166 0.15313 0.0
H472 H 0.42002 0.93527 0.12798 0.0
H473 H 0.46616 0.93429 0.09673 0.0
H474 H 0.55257 0.91647 0.15514 0.0
H475 H 0.50381 0.90261 0.1129 0.0
H476 H 0.45189 0.94061 0.40145 0.0
H477 H 0.40857 0.93821 0.35634 0.0
H478 H 0.52267 0.97406 0.40126 0.0
H479 H 0.56256 0.96139 0.37117 0.0
C480 C 0.38296 0.37921 0.63305 0.0
C481 C 0.34737 0.3423 0.60097 0.0
C482 C 0.3124 0.30391 0.69667 0.0
C483 C 0.34679 0.34088 0.72959 0.0
N484 N 0.41874 0.41068 0.73129 0.0
N485 N 0.27088 0.27885 0.6019 0.0
C486 C 0.38335 0.37787 0.69843 0.0
C487 C 0.30982 0.30751 0.63286 0.0
N488 N 0.41505 0.41595 0.60113 0.0
N489 N 0.28342 0.26436 0.72642 0.0
H490 H 0.26717 0.28271 0.55518 0.0
H491 H 0.24081 0.25529 0.62359 0.0
H492 H 0.28662 0.25961 0.77298 0.0
H493 H 0.26025 0.23479 0.7038 0.0
H494 H 0.44026 0.4456 0.62117 0.0
H495 H 0.41425 0.41854 0.55368 0.0
H496 H 0.44824 0.437 0.71206 0.0
H497 H 0.42026 0.40984 0.77886 0.0
C498 C 0.07555 0.36942 0.88693 0.0
C499 C 0.03832 0.37318 0.90741 0.0
C500 C 1.01187 0.36981 0.80243 0.0
C501 C 0.04752 0.3628 0.78072 0.0
N502 N 0.11042 0.34982 0.80577 0.0
N503 N 0.983 0.39496 0.88592 0.0
C504 C 0.07901 0.3614 0.82378 0.0
C505 C 1.01039 0.37926 0.86533 0.0
N506 N 0.10755 0.3739 0.92888 0.0
N507 N 0.97664 0.36262 0.7647 0.0
H508 H 0.98378 0.40356 0.93171 0.0
H509 H 0.96465 0.40459 0.85729 0.0
H510 H 0.97274 0.34982 0.72045 0.0
H511 H 0.94805 0.36368 0.77964 0.0
H512 H 0.13747 0.37389 0.91882 0.0
H513 H 0.10602 0.38212 0.97449 0.0
H514 H 0.13321 0.34713 0.83483 0.0
H515 H 0.11188 0.33832 0.76276 0.0
C516 C 0.66773 0.04823 0.96632 0.0
C517 C 0.67386 0.01692 0.9303 0.0
C518 C 0.6538 0.96722 0.01936 0.0
C519 C 0.66154 1.00365 0.05798 0.0
N520 N 0.67432 0.07978 0.06792 0.0
N521 N 0.66951 0.94413 0.92221 0.0
C522 C 0.66698 0.04422 0.03152 0.0
C523 C 0.66577 0.97551 0.95668 0.0
N524 N 0.66424 0.08239 0.9385 0.0
N525 N 0.63244 0.92425 0.04238 0.0
H526 H 0.67532 0.94782 0.87511 0.0
H527 H 0.66897 0.91565 0.94115 0.0
H528 H 0.6181 0.91783 0.08604 0.0
H529 H 0.62312 0.89558 0.01572 0.0
H530 H 0.65604 0.10393 0.96203 0.0
H531 H 0.66625 0.08682 0.89107 0.0
H532 H 0.68337 0.11183 0.05069 0.0
H533 H 0.67396 0.07799 0.11563 0.0
C534 C 0.65952 0.68856 0.19595 0.0
C535 C 0.6831 0.66862 0.22359 0.0
C536 C 0.68939 0.63954 0.12308 0.0
C537 C 0.6764 0.66896 0.09496 0.0
N538 N 0.62102 0.69265 0.10417 0.0
N539 N 0.69526 0.605 0.21851 0.0
C540 C 0.65251 0.68465 0.13128 0.0
C541 C 0.68975 0.63724 0.18866 0.0
N542 N 0.64377 0.71083 0.23117 0.0
N543 N 0.70076 0.61384 0.08748 0.0
H544 H 0.69612 0.60381 0.26615 0.0
H545 H 0.69644 0.57839 0.19697 0.0
H546 H 0.70075 0.61516 0.03973 0.0
H547 H 0.71037 0.59135 0.10482 0.0
H548 H 0.62682 0.7267 0.21333 0.0
H549 H 0.64827 0.71394 0.27857 0.0
H550 H 0.59838 0.69898 0.12847 0.0
H551 H 0.61483 0.68832 0.05724 0.0
C552 C 1.0026 0.71108 0.3752 0.0
C553 C 1.02125 0.68655 0.40318 0.0
C554 C 1.0185 0.65018 0.30565 0.0
C555 C 1.00624 0.68 0.27618 0.0
N556 N 0.9939 0.74476 0.28349 0.0
N557 N 0.04437 0.63032 0.39838 0.0
C558 C 0.99962 0.71161 0.31108 0.0
C559 C 0.02781 0.65482 0.36953 0.0
N560 N 0.98701 0.73362 0.41016 0.0
N561 N 1.02028 0.6169 0.27306 0.0
H562 H 0.04837 0.6307 0.44571 0.0
H563 H 0.05597 0.61118 0.37573 0.0
H564 H 1.01615 0.61375 0.22587 0.0
H565 H 1.02331 0.59064 0.29282 0.0
H566 H 0.96691 0.74641 0.39309 0.0
H567 H 0.98991 0.73518 0.45736 0.0
H568 H 0.99504 0.77177 0.30734 0.0
H569 H 0.99386 0.74969 0.23649 0.0
C570 C 0.31272 0.96251 0.48427 0.0
C571 C 0.34652 0.98792 0.43799 0.0
C572 C 0.39611 0.03957 0.51786 0.0
C573 C 0.3629 1.01435 0.56267 0.0
N574 N 0.29941 0.94221 0.59163 0.0
N575 N 0.4281 0.035 0.42167 0.0
C576 C 0.32428 0.97286 0.54682 0.0
C577 C 0.39072 0.02172 0.45794 0.0
N578 N 0.26934 0.92909 0.47084 0.0
N579 N 0.43229 0.08098 0.53178 0.0
H580 H 0.42713 0.01818 0.38145 0.0
H581 H 0.46108 0.05765 0.43642 0.0
H582 H 0.43697 0.09473 0.57549 0.0
H583 H 0.45508 0.10268 0.4987 0.0
H584 H 0.24299 0.91763 0.50271 0.0
H585 H 0.25823 0.9112 0.43034 0.0
H586 H 0.27265 0.90959 0.58282 0.0
H587 H 0.30948 0.94721 0.63726 0.0
C588 C 0.29773 0.14592 0.29474 0.0
C589 C 0.333 0.16974 0.33847 0.0
C590 C 0.36212 0.11788 0.31752 0.0
C591 C 0.32455 0.09077 0.27876 0.0
N592 N 0.25306 0.07647 0.23599 0.0
N593 N 0.38436 0.16301 0.40858 0.0
C594 C 0.29109 0.10395 0.26931 0.0
C595 C 0.36099 0.15125 0.35468 0.0
N596 N 0.27131 0.16361 0.27638 0.0
N597 N 0.39944 0.11255 0.31968 0.0
H598 H 0.3803 0.18321 0.44049 0.0
H599 H 0.40151 0.14691 0.4254 0.0
H600 H 0.40426 0.09091 0.29127 0.0
H601 H 0.4286 0.1343 0.34448 0.0
H602 H 0.24868 0.15086 0.23976 0.0
H603 H 0.27377 0.19263 0.29593 0.0
H604 H 0.22512 0.08129 0.23279 0.0
H605 H 0.24863 0.04734 0.214 0.0
C606 C 0.23724 0.34383 0.4107 0.0
C607 C 0.23643 0.3025 0.42368 0.0
C608 C 0.16422 0.27862 0.48023 0.0
C609 C 0.17372 0.32456 0.482 0.0
N610 N 0.22839 0.40316 0.45575 0.0
N611 N 0.19166 0.22581 0.46195 0.0
C612 C 0.2125 0.35778 0.44871 0.0
C613 C 0.19762 0.26839 0.456 0.0
N614 N 0.2603 0.36939 0.36088 0.0
N615 N 0.12238 0.24443 0.49822 0.0
H616 H 0.20961 0.21458 0.43543 0.0
H617 H 0.16869 0.20173 0.4927 0.0
H618 H 0.09617 0.25019 0.51143 0.0
H619 H 0.11183 0.21012 0.49345 0.0
H620 H 0.2595 0.39859 0.34809 0.0
H621 H 0.27377 0.35749 0.32757 0.0
H622 H 0.25857 0.4278 0.43529 0.0
H623 H 0.21566 0.41651 0.48779 0.0
C624 C 0.87816 0.17186 0.60689 0.0
C625 C 0.87423 0.16046 0.67047 0.0
C626 C 0.95784 0.20996 0.67905 0.0
C627 C 0.96014 0.22793 0.61931 0.0
N628 N 0.92134 0.22643 0.5263 0.0
N629 N 0.91152 0.17632 0.76943 0.0
C630 C 0.91991 0.20871 0.58311 0.0
C631 C 0.91451 0.18102 0.70706 0.0
N632 N 0.84221 0.1468 0.56885 0.0
N633 N 0.9971 0.22082 0.70968 0.0
H634 H 0.88094 0.15768 0.79298 0.0
H635 H 0.93907 0.19497 0.79846 0.0
H636 H 0.02918 0.24056 0.69013 0.0
H637 H 0.99762 0.20577 0.75118 0.0
H638 H 0.84396 0.1507 0.52137 0.0
H639 H 0.81202 0.11885 0.58427 0.0
H640 H 0.89238 0.21798 0.50037 0.0
H641 H 0.95164 0.25142 0.50647 0.0
C642 C 0.68079 0.89509 0.77434 0.0
C643 C 0.72458 0.9336 0.76516 0.0
C644 C 0.7557 0.88451 0.8 0.0
C645 C 0.71217 0.85182 0.82403 0.0
N646 N 0.63645 0.8382 0.849 0.0
N647 N 0.80582 0.96155 0.76315 0.0
C648 C 0.67558 0.86052 0.81538 0.0
C649 C 0.76286 0.92749 0.77645 0.0
N650 N 0.64387 0.89058 0.74313 0.0
N651 N 0.78943 0.87382 0.79604 0.0
H652 H 0.81242 0.9892 0.73548 0.0
H653 H 0.83492 0.96183 0.77916 0.0
H654 H 0.7848 0.84225 0.80896 0.0
H655 H 0.82032 0.89432 0.77389 0.0
H656 H 0.61173 0.86171 0.74742 0.0
H657 H 0.64701 0.91212 0.70686 0.0
H658 H 0.61043 0.84603 0.84538 0.0
H659 H 0.63292 0.8175 0.88641 0.0
C660 C 0.83842 0.7505 0.99084 0.0
C661 C 0.81788 0.72958 0.93426 0.0
C662 C 0.87647 0.7076 0.92164 0.0
C663 C 0.89081 0.72014 0.98331 0.0
N664 N 0.8806 0.74945 0.07956 0.0
N665 N 0.81775 0.68857 0.84468 0.0
C666 C 0.87117 0.7413 0.01843 0.0
C667 C 0.83732 0.70852 0.89913 0.0
N668 N 0.82645 0.77881 0.01904 0.0
N669 N 0.90085 0.69533 0.88438 0.0
H670 H 0.79102 0.6912 0.82517 0.0
H671 H 0.82656 0.66783 0.8203 0.0
H672 H 0.93023 0.69555 0.89923 0.0
H673 H 0.89478 0.68943 0.8376 0.0
H674 H 0.84382 0.79867 0.05674 0.0
H675 H 0.80269 0.7866 0.00129 0.0
H676 H 0.86271 0.75917 0.10866 0.0
H677 H 0.90349 0.74312 0.10316 0.0
C678 C 0.14491 0.86435 0.18881 0.0
C679 C 0.18218 0.88399 0.14787 0.0
C680 C 0.13163 0.83102 0.06853 0.0
C681 C 0.09915 0.80466 0.11429 0.0
N682 N 0.08629 0.79214 0.22338 0.0
N683 N 0.21105 0.88531 0.04653 0.0
C684 C 0.10836 0.82059 0.17582 0.0
C685 C 0.17548 0.86721 0.08676 0.0
N686 N 0.14487 0.88559 0.24172 0.0
N687 N 0.12029 0.82256 0.00814 0.0
H688 H 0.24265 0.91297 0.05787 0.0
H689 H 0.20961 0.87147 0.0035 0.0
H690 H 0.08749 0.79861 0.99424 0.0
H691 H 0.14154 0.84264 0.97275 0.0
H692 H 0.11664 0.87241 0.27078 0.0
H693 H 0.16967 0.91864 0.25236 0.0
H694 H 0.09445 0.80124 0.26922 0.0
H695 H 0.06611 0.75773 0.21647 0.0
C696 C 0.9356 0.75144 0.56362 0.0
C697 C 0.94619 0.71561 0.56452 0.0
C698 C 0.88303 0.67404 0.49144 0.0
C699 C 0.86875 0.70681 0.49578 0.0
N700 N 0.87947 0.77502 0.54385 0.0
N701 N 0.91788 0.63594 0.54176 0.0
C702 C 0.8946 0.74519 0.53406 0.0
C703 C 0.9159 0.67472 0.53301 0.0
N704 N 0.9648 0.79164 0.59114 0.0
N705 N 0.86742 0.64354 0.44448 0.0
H706 H 0.93894 0.63268 0.57343 0.0
H707 H 0.89392 0.60485 0.52311 0.0
H708 H 0.84658 0.6443 0.40994 0.0
H709 H 0.88022 0.62198 0.43518 0.0
H710 H 0.9625 0.8209 0.58612 0.0
H711 H 0.99257 0.79606 0.61714 0.0
H712 H 0.89365 0.80084 0.57625 0.0
H713 H 0.85058 0.77195 0.52243 0.0
C714 C 0.1852 0.86726 0.73237 0.0
C715 C 0.16901 0.86424 0.67132 0.0
C716 C 0.21398 0.9484 0.6646 0.0
C717 C 0.23661 0.95039 0.7207 0.0
N718 N 0.24223 0.91126 0.80948 0.0
N719 N 0.17093 0.9031 0.57734 0.0
C720 C 0.22136 0.90959 0.75513 0.0
C721 C 0.18349 0.90521 0.63737 0.0
N722 N 0.16497 0.82967 0.7693 0.0
N723 N 0.22193 0.98768 0.63641 0.0
H724 H 0.14974 0.8729 0.55468 0.0
H725 H 0.18449 0.93106 0.54798 0.0
H726 H 0.24406 0.01981 0.6535 0.0
H727 H 0.20295 0.98854 0.59941 0.0
H728 H 0.17197 0.82997 0.81583 0.0
H729 H 0.1376 0.79895 0.75468 0.0
H730 H 0.23742 0.88257 0.83327 0.0
H731 H 0.2659 0.94184 0.82975 0.0
C732 C 0.28615 0.15447 0.84453 0.0
C733 C 0.33193 0.1632 0.8446 0.0
C734 C 0.35073 0.22536 0.91724 0.0
C735 C 0.30968 0.22514 0.90375 0.0
N736 N 0.23336 0.18193 0.86361 0.0
N737 N 0.41036 0.21597 0.87354 0.0
C738 C 0.27584 0.18738 0.86989 0.0
C739 C 0.36488 0.20092 0.87922 0.0
N740 N 0.25211 0.11374 0.8235 0.0
N741 N 0.37569 0.24737 0.96772 0.0
H742 H 0.42387 0.20313 0.84188 0.0
H743 H 0.43509 0.24555 0.89474 0.0
H744 H 0.36348 0.26041 0.00115 0.0
H745 H 0.40456 0.24601 0.98094 0.0
H746 H 0.21767 0.10344 0.82691 0.0
H747 H 0.25791 0.08806 0.80829 0.0
H748 H 0.20965 0.16009 0.83184 0.0
H749 H 0.22177 0.1991 0.89103 0.0
C750 C 0.13726 0.29017 0.97181 0.0
C751 C 0.17825 0.31238 0.00656 0.0
C752 C 0.13498 0.31825 0.0936 0.0
C753 C 0.09426 0.29714 0.05844 0.0
N754 N 0.05475 0.25091 0.97045 0.0
N755 N 0.21336 0.33542 0.10565 0.0
C756 C 0.09472 0.27877 -5e-05 0.0
C757 C 0.17614 0.3226 0.06916 0.0
N758 N 0.13901 0.28275 0.91056 0.0
N759 N 0.13442 0.33504 0.15018 0.0
H760 H 0.2432 0.33734 0.08946 0.0
H761 H 0.21328 0.33964 0.15287 0.0
H762 H 0.10435 0.32931 0.1712 0.0
H763 H 0.16366 0.3559 0.17522 0.0
H764 H 0.11137 0.27216 0.88112 0.0
H765 H 0.16884 0.29054 0.88737 0.0
H766 H 0.05276 0.23271 0.9312 0.0
H767 H 1.02283 0.24172 0.98805 0.0
C768 C 0.84093 0.09608 0.1693 0.0
C769 C 0.80817 0.09273 0.21322 0.0
C770 C 0.84225 0.17561 0.20845 0.0
C771 C 0.87785 0.17992 0.169 0.0
N772 N 0.91746 0.14284 0.12941 0.0
N773 N 0.79083 0.13213 0.29062 0.0
C774 C 0.87926 0.13972 0.15493 0.0
C775 C 0.81363 0.13352 0.23838 0.0
N776 N 0.8348 0.05865 0.13832 0.0
N777 N 0.83236 0.20979 0.21384 0.0
H778 H 0.77092 0.10204 0.31497 0.0
H779 H 0.79631 0.16142 0.31319 0.0
H780 H 0.84716 0.2391 0.18709 0.0
H781 H 0.80436 0.20595 0.2386 0.0
H782 H 0.85522 0.06074 0.10135 0.0
H783 H 0.80736 0.02618 0.14542 0.0
H784 H 0.92142 0.11465 0.12294 0.0
H785 H 0.94714 0.1738 0.12196 0.0
C786 C 0.76533 0.83424 0.32245 0.0
C787 C 0.74509 0.81186 0.37895 0.0
C788 C 0.72351 0.87017 0.39782 0.0
C789 C 0.7349 0.88623 0.33664 0.0
N790 N 0.79088 0.90125 0.25836 0.0
N791 N 0.70627 0.81029 0.47215 0.0
C792 C 0.76301 0.87351 0.30376 0.0
C793 C 0.72488 0.83062 0.4173 0.0
N794 N 0.78497 0.81691 0.28481 0.0
N795 N 0.71698 0.89617 0.43919 0.0
H796 H 0.70924 0.7833 0.48978 0.0
H797 H 0.68618 0.81893 0.49858 0.0
H798 H 0.72386 0.92878 0.42741 0.0
H799 H 0.71252 0.889 0.48598 0.0
H800 H 0.79321 0.82678 0.23918 0.0
H801 H 0.79126 0.79117 0.29814 0.0
H802 H 0.8146 0.89573 0.2355 0.0
H803 H 0.79572 0.93362 0.25042 0.0
C804 C 0.35083 0.31608 0.18991 0.0
C805 C 0.38191 0.35358 0.22615 0.0
C806 C 0.38361 0.40567 0.14671 0.0
C807 C 0.3597 0.36857 0.10674 0.0
N808 N 0.31895 0.28781 0.08957 0.0
N809 N 0.43322 0.43485 0.23417 0.0
C810 C 0.34329 0.32356 0.12795 0.0
C811 C 0.3998 0.39864 0.20322 0.0
N812 N 0.32554 0.27399 0.21589 0.0
N813 N 0.38921 0.44728 0.13215 0.0
H814 H 0.44664 0.4319 0.27568 0.0
H815 H 0.45069 0.46752 0.21562 0.0
H816 H 0.37606 0.4533 0.09224 0.0
H817 H 0.40252 0.47442 0.16263 0.0
H818 H 0.29922 0.24647 0.19327 0.0
H819 H 0.32706 0.26753 0.26225 0.0
H820 H 0.31162 0.2548 0.0993 0.0
H821 H 0.30732 0.29154 0.04692 0.0
C822 C 1.02304 0.32816 0.37741 0.0
C823 C 0.03346 0.36958 0.40629 0.0
C824 C 0.03102 0.40237 0.30714 0.0
C825 C 1.01638 0.35976 0.27915 0.0
N826 N 0.99498 0.2808 0.28697 0.0
N827 N 0.0393 0.4431 0.4015 0.0
C828 C 1.01122 0.32219 0.31418 0.0
C829 C 0.03513 0.40587 0.37191 0.0
N830 N 0.0268 0.29552 0.40955 0.0
N831 N 0.04261 0.43983 0.27164 0.0
H832 H 0.04111 0.44605 0.44915 0.0
H833 H 0.03647 0.46885 0.37956 0.0
H834 H 0.04103 0.43859 0.2239 0.0
H835 H 0.05773 0.47268 0.28896 0.0
H836 H 1.02487 0.26692 0.38943 0.0
H837 H 0.03517 0.29846 0.45597 0.0
H838 H 0.98482 0.25081 0.31132 0.0
H839 H 0.98955 0.27601 0.23988 0.0
C840 C 0.69808 1.00739 0.53805 0.0
C841 C 0.69424 0.04499 0.55712 0.0
C842 C 0.67289 0.05222 0.451 0.0
C843 C 0.67134 1.01079 0.43513 0.0
N844 N 0.66304 0.94038 0.47729 0.0
N845 N 0.67002 0.09935 0.53184 0.0
C846 C 0.67791 0.98563 0.48244 0.0
C847 C 0.67995 0.06686 0.51356 0.0
N848 N 0.72212 0.99272 0.57215 0.0
N849 N 0.66535 0.0766 0.40726 0.0
H850 H 0.67391 0.11138 0.57637 0.0
H851 H 0.65398 0.11193 0.50371 0.0
H852 H 0.65188 0.06373 0.3642 0.0
H853 H 0.67325 0.11012 0.41358 0.0
H854 H 0.72807 0.96702 0.5572 0.0
H855 H 0.74078 1.00993 0.61088 0.0
H856 H 0.66319 0.92116 0.51467 0.0
H857 H 0.64616 0.92055 0.43967 0.0
C858 C 0.72613 0.70752 0.63045 0.0
C859 C 0.69458 0.66771 0.59843 0.0
C860 C 0.64109 0.64777 0.68392 0.0
C861 C 0.67467 0.68298 0.72034 0.0
N862 N 0.75135 0.74607 0.72859 0.0
N863 N 0.62846 0.59308 0.60549 0.0
C864 C 0.71805 0.71272 0.6937 0.0
C865 C 0.65406 0.63571 0.62846 0.0
N866 N 0.76353 0.74038 0.6004 0.0
N867 N 0.59635 0.6271 0.70013 0.0
H868 H 0.63864 0.58204 0.56733 0.0
H869 H 0.60036 0.56755 0.62875 0.0
H870 H 0.58494 0.63823 0.73682 0.0
H871 H 0.57046 0.60323 0.67231 0.0
H872 H 0.78544 0.77217 0.61894 0.0
H873 H 0.77105 0.73668 0.55517 0.0
H874 H 0.78505 0.76554 0.71425 0.0
H875 H 0.74559 0.7529 0.77324 0.0
C876 C 1.01576 0.62952 0.7935 0.0
C877 C 0.05832 0.6683 0.77731 0.0
C878 C 0.06966 0.69431 0.8832 0.0
C879 C 1.02517 0.65878 0.89862 0.0
N880 N 0.96059 0.58572 0.87261 0.0
N881 N 0.13405 0.7175 0.81607 0.0
C882 C 0.9994 0.62438 0.85485 0.0
C883 C 0.088 0.69474 0.82487 0.0
N884 N 0.99196 0.59652 0.75112 0.0
N885 N 0.09402 0.72905 0.92284 0.0
H886 H 0.14903 0.7128 0.77718 0.0
H887 H 0.15727 0.7348 0.85101 0.0
H888 H 0.08195 0.73082 0.96571 0.0
H889 H 0.12428 0.75818 0.91056 0.0
H890 H 0.9574 0.57292 0.75452 0.0
H891 H 1.00758 0.59136 0.71336 0.0
H892 H 0.94236 0.55742 0.84503 0.0
H893 H 0.94757 0.57987 0.91694 0.0
C894 C 0.34169 0.01896 0.96374 0.0
C895 C 0.38271 0.02902 0.9334 0.0
C896 C 0.41306 1.01573 0.0287 0.0
C897 C 0.37097 1.003 0.05807 0.0
N898 N 0.30077 1.00461 0.05996 0.0
N899 N 0.45509 0.03177 0.93305 0.0
C900 C 0.33663 1.0077 0.0272 0.0
C901 C 0.41802 0.02647 0.96497 0.0
N902 N 0.30728 0.01948 0.93152 0.0
N903 N 0.44871 0.01896 0.06207 0.0
H904 H 0.45942 0.03886 0.88618 0.0
H905 H 0.47982 0.02556 0.95135 0.0
H906 H 0.44665 1.01207 0.10886 0.0
H907 H 0.48164 0.03237 0.04509 0.0
H908 H 0.2744 1.00675 0.94837 0.0
H909 H 0.3106 0.03034 0.88605 0.0
H910 H 0.27674 1.01204 0.04221 0.0
H911 H 0.29701 0.9984 0.10706 0.0
loop_
_geom_bond_atom_site_label_1
_geom_bond_atom_site_label_2
_geom_bond_distance
_geom_bond_site_symmetry_2
_ccdc_geom_bond_type
Fe0 O2 1.918 . S
Fe0 O5 1.997 . S
Fe0 O6 2.002 . S
Fe0 O11 1.976 . S
Fe0 O14 1.996 . S
Fe1 O2 1.918 . S
Fe1 O9 1.997 . S
Fe1 O12 1.996 . S
Fe1 O16 1.976 . S
Fe1 O19 2.002 . S
O2 Fe0 1.918 . S
O2 Fe1 1.918 . S
O2 Fe3 1.918 . S
Fe3 O2 1.918 . S
Fe3 O4 2.002 . S
Fe3 O13 1.976 . S
Fe3 O17 1.996 . S
Fe3 O20 1.997 . S
O4 Fe3 2.002 . S
O4 C21 1.295 . S
O5 Fe0 1.997 . S
O5 C21 1.235 . S
O6 Fe0 2.002 . S
O6 C7 1.295 . S
C7 O6 1.295 . S
C7 O9 1.235 . S
C8 O13 1.287 . S
C8 O14 1.255 . S
O9 Fe1 1.997 . S
O9 C7 1.235 . S
C10 O16 1.287 . S
C10 O17 1.255 . S
O11 Fe0 1.976 . S
O11 C18 1.287 . S
O12 Fe1 1.996 . S
O12 C18 1.255 . S
O13 Fe3 1.976 . S
O13 C8 1.287 . S
O14 Fe0 1.996 . S
O14 C8 1.255 . S
C15 O19 1.295 . S
C15 O20 1.235 . S
O16 Fe1 1.976 . S
O16 C10 1.287 . S
O17 Fe3 1.996 . S
O17 C10 1.255 . S
C18 O11 1.287 . S
C18 O12 1.255 . S
O19 Fe1 2.002 . S
O19 C15 1.295 . S
O20 Fe3 1.997 . S
O20 C15 1.235 . S
C21 O4 1.295 . S
C21 O5 1.235 . S
Fe22 O24 1.918 . S
Fe22 O27 1.997 . S
Fe22 O28 2.002 . S
Fe22 O33 1.976 . S
Fe22 O36 1.996 . S
Fe23 O24 1.918 . S
Fe23 O31 1.997 . S
Fe23 O34 1.996 . S
Fe23 O38 1.976 1_455 S
Fe23 O41 2.002 1_455 S
O24 Fe22 1.918 . S
O24 Fe23 1.918 . S
O24 Fe25 1.918 . S
Fe25 O24 1.918 . S
Fe25 O26 2.002 . S
Fe25 O35 1.976 . S
Fe25 O39 1.996 . S
Fe25 O42 1.997 . S
O26 Fe25 2.002 . S
O26 C43 1.295 . S
O27 Fe22 1.997 . S
O27 C43 1.235 . S
O28 Fe22 2.002 . S
O28 C29 1.295 . S
C29 O28 1.295 . S
C29 O31 1.235 . S
C30 O35 1.287 . S
C30 O36 1.255 . S
O31 Fe23 1.997 . S
O31 C29 1.235 . S
C32 O38 1.287 . S
C32 O39 1.255 1_655 S
O33 Fe22 1.976 . S
O33 C40 1.287 . S
O34 Fe23 1.996 . S
O34 C40 1.255 . S
O35 Fe25 1.976 . S
O35 C30 1.287 . S
O36 Fe22 1.996 . S
O36 C30 1.255 . S
C37 O41 1.295 1_455 S
C37 O42 1.235 . S
O38 Fe23 1.976 1_655 S
O38 C32 1.287 . S
O39 Fe25 1.996 . S
O39 C32 1.255 1_455 S
C40 O33 1.287 . S
C40 O34 1.255 . S
O41 Fe23 2.002 1_655 S
O41 C37 1.295 1_655 S
O42 Fe25 1.997 . S
O42 C37 1.235 . S
C43 O26 1.295 . S
C43 O27 1.235 . S
Fe44 O46 1.918 . S
Fe44 O49 1.997 . S
Fe44 O50 2.002 1_545 S
Fe44 O55 1.976 1_545 S
Fe44 O58 1.996 . S
Fe45 O46 1.918 . S
Fe45 O53 1.997 . S
Fe45 O56 1.996 . S
Fe45 O60 1.976 . S
Fe45 O63 2.002 . S
O46 Fe44 1.918 . S
O46 Fe45 1.918 . S
O46 Fe47 1.918 . S
Fe47 O46 1.918 . S
Fe47 O48 2.002 . S
Fe47 O57 1.976 . S
Fe47 O61 1.996 . S
Fe47 O64 1.997 . S
O48 Fe47 2.002 . S
O48 C65 1.295 . S
O49 Fe44 1.997 . S
O49 C65 1.235 . S
O50 Fe44 2.002 1_565 S
O50 C51 1.295 1_565 S
C51 O50 1.295 1_545 S
C51 O53 1.235 . S
C52 O57 1.287 . S
C52 O58 1.255 . S
O53 Fe45 1.997 . S
O53 C51 1.235 . S
C54 O60 1.287 . S
C54 O61 1.255 . S
O55 Fe44 1.976 1_565 S
O55 C62 1.287 . S
O56 Fe45 1.996 . S
O56 C62 1.255 1_545 S
O57 Fe47 1.976 . S
O57 C52 1.287 . S
O58 Fe44 1.996 . S
O58 C52 1.255 . S
C59 O63 1.295 . S
C59 O64 1.235 . S
O60 Fe45 1.976 . S
O60 C54 1.287 . S
O61 Fe47 1.996 . S
O61 C54 1.255 . S
C62 O55 1.287 . S
C62 O56 1.255 1_565 S
O63 Fe45 2.002 . S
O63 C59 1.295 . S
O64 Fe47 1.997 . S
O64 C59 1.235 . S
C65 O48 1.295 . S
C65 O49 1.235 . S
Fe66 O68 1.918 . S
Fe66 O71 1.997 1_556 S
Fe66 O72 2.002 1_556 S
Fe66 O77 1.976 . S
Fe66 O80 1.996 . S
Fe67 O68 1.918 . S
Fe67 O75 1.997 . S
Fe67 O78 1.996 . S
Fe67 O82 1.976 . S
Fe67 O85 2.002 . S
O68 Fe66 1.918 . S
O68 Fe67 1.918 . S
O68 Fe69 1.918 . S
Fe69 O68 1.918 . S
Fe69 O70 2.002 1_556 S
Fe69 O79 1.976 . S
Fe69 O83 1.996 . S
Fe69 O86 1.997 . S
O70 Fe69 2.002 1_554 S
O70 C87 1.295 . S
O71 Fe66 1.997 1_554 S
O71 C87 1.235 . S
O72 Fe66 2.002 1_554 S
O72 C73 1.295 1_554 S
C73 O72 1.295 1_556 S
C73 O75 1.235 . S
C74 O79 1.287 . S
C74 O80 1.255 . S
O75 Fe67 1.997 . S
O75 C73 1.235 . S
C76 O82 1.287 . S
C76 O83 1.255 . S
O77 Fe66 1.976 . S
O77 C84 1.287 . S
O78 Fe67 1.996 . S
O78 C84 1.255 . S
O79 Fe69 1.976 . S
O79 C74 1.287 . S
O80 Fe66 1.996 . S
O80 C74 1.255 . S
C81 O85 1.295 . S
C81 O86 1.235 . S
O82 Fe67 1.976 . S
O82 C76 1.287 . S
O83 Fe69 1.996 . S
O83 C76 1.255 . S
C84 O77 1.287 . S
C84 O78 1.255 . S
O85 Fe67 2.002 . S
O85 C81 1.295 . S
O86 Fe69 1.997 . S
O86 C81 1.235 . S
C87 O70 1.295 . S
C87 O71 1.235 . S
Fe88 O90 1.918 . S
Fe88 O93 1.997 . S
Fe88 O94 2.002 1_655 S
Fe88 O99 1.976 1_655 S
Fe88 O102 1.996 1_554 S
Fe89 O90 1.918 . S
Fe89 O97 1.997 . S
Fe89 O100 1.996 . S
Fe89 O104 1.976 . S
Fe89 O107 2.002 . S
O90 Fe88 1.918 . S
O90 Fe89 1.918 . S
O90 Fe91 1.918 . S
Fe91 O90 1.918 . S
Fe91 O92 2.002 . S
Fe91 O101 1.976 1_554 S
Fe91 O105 1.996 . S
Fe91 O108 1.997 . S
O92 Fe91 2.002 . S
O92 C109 1.295 . S
O93 Fe88 1.997 . S
O93 C109 1.235 . S
O94 Fe88 2.002 1_455 S
O94 C95 1.295 1_455 S
C95 O94 1.295 1_655 S
C95 O97 1.235 . S
C96 O101 1.287 . S
C96 O102 1.255 . S
O97 Fe89 1.997 . S
O97 C95 1.235 . S
C98 O104 1.287 . S
C98 O105 1.255 . S
O99 Fe88 1.976 1_455 S
O99 C106 1.287 . S
O100 Fe89 1.996 . S
O100 C106 1.255 1_655 S
O101 Fe91 1.976 1_556 S
O101 C96 1.287 . S
O102 Fe88 1.996 1_556 S
O102 C96 1.255 . S
C103 O107 1.295 . S
C103 O108 1.235 . S
O104 Fe89 1.976 . S
O104 C98 1.287 . S
O105 Fe91 1.996 . S
O105 C98 1.255 . S
C106 O99 1.287 . S
C106 O100 1.255 1_455 S
O107 Fe89 2.002 . S
O107 C103 1.295 . S
O108 Fe91 1.997 . S
O108 C103 1.235 . S
C109 O92 1.295 . S
C109 O93 1.235 . S
Fe110 O112 1.918 . S
Fe110 O115 1.997 . S
Fe110 O116 2.002 . S
Fe110 O121 1.976 . S
Fe110 O124 1.996 . S
Fe111 O112 1.918 . S
Fe111 O119 1.997 . S
Fe111 O122 1.996 . S
Fe111 O126 1.976 1_565 S
Fe111 O129 2.002 1_565 S
O112 Fe110 1.918 . S
O112 Fe111 1.918 . S
O112 Fe113 1.918 . S
Fe113 O112 1.918 . S
Fe113 O114 2.002 . S
Fe113 O123 1.976 . S
Fe113 O127 1.996 . S
Fe113 O130 1.997 . S
O114 Fe113 2.002 . S
O114 C131 1.295 . S
O115 Fe110 1.997 . S
O115 C131 1.235 . S
O116 Fe110 2.002 . S
O116 C117 1.295 . S
C117 O116 1.295 . S
C117 O119 1.235 . S
C118 O123 1.287 . S
C118 O124 1.255 . S
O119 Fe111 1.997 . S
O119 C117 1.235 . S
C120 O126 1.287 . S
C120 O127 1.255 1_545 S
O121 Fe110 1.976 . S
O121 C128 1.287 . S
O122 Fe111 1.996 . S
O122 C128 1.255 . S
O123 Fe113 1.976 . S
O123 C118 1.287 . S
O124 Fe110 1.996 . S
O124 C118 1.255 . S
C125 O129 1.295 1_565 S
C125 O130 1.235 . S
O126 Fe111 1.976 1_545 S
O126 C120 1.287 . S
O127 Fe113 1.996 . S
O127 C120 1.255 1_565 S
C128 O121 1.287 . S
C128 O122 1.255 . S
O129 Fe111 2.002 1_545 S
O129 C125 1.295 1_545 S
O130 Fe113 1.997 . S
O130 C125 1.235 . S
C131 O114 1.295 . S
C131 O115 1.235 . S
Fe132 O134 1.918 . S
Fe132 O137 1.997 . S
Fe132 O138 2.002 . S
Fe132 O143 1.976 . S
Fe132 O146 1.996 . S
Fe133 O134 1.918 . S
Fe133 O141 1.997 . S
Fe133 O144 1.996 . S
Fe133 O148 1.976 . S
Fe133 O151 2.002 . S
O134 Fe132 1.918 . S
O134 Fe133 1.918 . S
O134 Fe135 1.918 . S
Fe135 O134 1.918 . S
Fe135 O136 2.002 . S
Fe135 O145 1.976 . S
Fe135 O149 1.996 . S
Fe135 O152 1.997 . S
O136 Fe135 2.002 . S
O136 C153 1.295 . S
O137 Fe132 1.997 . S
O137 C153 1.235 . S
O138 Fe132 2.002 . S
O138 C139 1.295 . S
C139 O138 1.295 . S
C139 O141 1.235 . S
C140 O145 1.287 . S
C140 O146 1.255 . S
O141 Fe133 1.997 . S
O141 C139 1.235 . S
C142 O148 1.287 . S
C142 O149 1.255 . S
O143 Fe132 1.976 . S
O143 C150 1.287 . S
O144 Fe133 1.996 . S
O144 C150 1.255 . S
O145 Fe135 1.976 . S
O145 C140 1.287 . S
O146 Fe132 1.996 . S
O146 C140 1.255 . S
C147 O151 1.295 . S
C147 O152 1.235 . S
O148 Fe133 1.976 . S
O148 C142 1.287 . S
O149 Fe135 1.996 . S
O149 C142 1.255 . S
C150 O143 1.287 . S
C150 O144 1.255 . S
O151 Fe133 2.002 . S
O151 C147 1.295 . S
O152 Fe135 1.997 . S
O152 C147 1.235 . S
C153 O136 1.295 . S
C153 O137 1.235 . S
Fe154 O156 1.918 . S
Fe154 O159 1.997 . S
Fe154 O160 2.002 . S
Fe154 O165 1.976 . S
Fe154 O168 1.996 . S
Fe155 O156 1.918 . S
Fe155 O163 1.997 . S
Fe155 O166 1.996 . S
Fe155 O170 1.976 . S
Fe155 O173 2.002 . S
O156 Fe154 1.918 . S
O156 Fe155 1.918 . S
O156 Fe157 1.918 . S
Fe157 O156 1.918 . S
Fe157 O158 2.002 1_455 S
Fe157 O167 1.976 1_455 S
Fe157 O171 1.996 . S
Fe157 O174 1.997 . S
O158 Fe157 2.002 1_655 S
O158 C175 1.295 1_655 S
O159 Fe154 1.997 . S
O159 C175 1.235 . S
O160 Fe154 2.002 . S
O160 C161 1.295 . S
C161 O160 1.295 . S
C161 O163 1.235 . S
C162 O167 1.287 . S
C162 O168 1.255 1_655 S
O163 Fe155 1.997 . S
O163 C161 1.235 . S
C164 O170 1.287 . S
C164 O171 1.255 . S
O165 Fe154 1.976 . S
O165 C172 1.287 . S
O166 Fe155 1.996 . S
O166 C172 1.255 . S
O167 Fe157 1.976 1_655 S
O167 C162 1.287 . S
O168 Fe154 1.996 . S
O168 C162 1.255 1_455 S
C169 O173 1.295 . S
C169 O174 1.235 . S
O170 Fe155 1.976 . S
O170 C164 1.287 . S
O171 Fe157 1.996 . S
O171 C164 1.255 . S
C172 O165 1.287 . S
C172 O166 1.255 . S
O173 Fe155 2.002 . S
O173 C169 1.295 . S
O174 Fe157 1.997 . S
O174 C169 1.235 . S
C175 O158 1.295 1_455 S
C175 O159 1.235 . S
Fe176 O178 1.918 . S
Fe176 O181 1.997 . S
Fe176 O182 2.002 1_545 S
Fe176 O187 1.976 1_545 S
Fe176 O190 1.996 . S
Fe177 O178 1.918 . S
Fe177 O185 1.997 . S
Fe177 O188 1.996 . S
Fe177 O192 1.976 . S
Fe177 O195 2.002 . S
O178 Fe176 1.918 . S
O178 Fe177 1.918 . S
O178 Fe179 1.918 . S
Fe179 O178 1.918 . S
Fe179 O180 2.002 . S
Fe179 O189 1.976 . S
Fe179 O193 1.996 . S
Fe179 O196 1.997 . S
O180 Fe179 2.002 . S
O180 C197 1.295 . S
O181 Fe176 1.997 . S
O181 C197 1.235 . S
O182 Fe176 2.002 1_565 S
O182 C183 1.295 1_565 S
C183 O182 1.295 1_545 S
C183 O185 1.235 . S
C184 O189 1.287 . S
C184 O190 1.255 . S
O185 Fe177 1.997 . S
O185 C183 1.235 . S
C186 O192 1.287 . S
C186 O193 1.255 . S
O187 Fe176 1.976 1_565 S
O187 C194 1.287 . S
O188 Fe177 1.996 . S
O188 C194 1.255 1_545 S
O189 Fe179 1.976 . S
O189 C184 1.287 . S
O190 Fe176 1.996 . S
O190 C184 1.255 . S
C191 O195 1.295 . S
C191 O196 1.235 . S
O192 Fe177 1.976 . S
O192 C186 1.287 . S
O193 Fe179 1.996 . S
O193 C186 1.255 . S
C194 O187 1.287 . S
C194 O188 1.255 1_565 S
O195 Fe177 2.002 . S
O195 C191 1.295 . S
O196 Fe179 1.997 . S
O196 C191 1.235 . S
C197 O180 1.295 . S
C197 O181 1.235 . S
Fe198 O200 1.918 . S
Fe198 O203 1.997 . S
Fe198 O204 2.002 . S
Fe198 O209 1.976 . S
Fe198 O212 1.996 1_556 S
Fe199 O200 1.918 . S
Fe199 O207 1.997 . S
Fe199 O210 1.996 . S
Fe199 O214 1.976 . S
Fe199 O217 2.002 . S
O200 Fe198 1.918 . S
O200 Fe199 1.918 . S
O200 Fe201 1.918 . S
Fe201 O200 1.918 . S
Fe201 O202 2.002 . S
Fe201 O211 1.976 1_556 S
Fe201 O215 1.996 . S
Fe201 O218 1.997 . S
O202 Fe201 2.002 . S
O202 C219 1.295 . S
O203 Fe198 1.997 . S
O203 C219 1.235 . S
O204 Fe198 2.002 . S
O204 C205 1.295 . S
C205 O204 1.295 . S
C205 O207 1.235 . S
C206 O211 1.287 . S
C206 O212 1.255 . S
O207 Fe199 1.997 . S
O207 C205 1.235 . S
C208 O214 1.287 . S
C208 O215 1.255 . S
O209 Fe198 1.976 . S
O209 C216 1.287 . S
O210 Fe199 1.996 . S
O210 C216 1.255 . S
O211 Fe201 1.976 1_554 S
O211 C206 1.287 . S
O212 Fe198 1.996 1_554 S
O212 C206 1.255 . S
C213 O217 1.295 . S
C213 O218 1.235 . S
O214 Fe199 1.976 . S
O214 C208 1.287 . S
O215 Fe201 1.996 . S
O215 C208 1.255 . S
C216 O209 1.287 . S
C216 O210 1.255 . S
O217 Fe199 2.002 . S
O217 C213 1.295 . S
O218 Fe201 1.997 . S
O218 C213 1.235 . S
C219 O202 1.295 . S
C219 O203 1.235 . S
Fe220 O222 1.918 . S
Fe220 O225 1.997 . S
Fe220 O226 2.002 1_654 S
Fe220 O231 1.976 1_655 S
Fe220 O234 1.996 . S
Fe221 O222 1.918 . S
Fe221 O229 1.997 1_554 S
Fe221 O232 1.996 . S
Fe221 O236 1.976 . S
Fe221 O239 2.002 1_554 S
O222 Fe220 1.918 . S
O222 Fe221 1.918 . S
O222 Fe223 1.918 . S
Fe223 O222 1.918 . S
Fe223 O224 2.002 . S
Fe223 O233 1.976 . S
Fe223 O237 1.996 . S
Fe223 O240 1.997 . S
O224 Fe223 2.002 . S
O224 C241 1.295 . S
O225 Fe220 1.997 . S
O225 C241 1.235 . S
O226 Fe220 2.002 1_456 S
O226 C227 1.295 1_455 S
C227 O226 1.295 1_655 S
C227 O229 1.235 . S
C228 O233 1.287 . S
C228 O234 1.255 . S
O229 Fe221 1.997 1_556 S
O229 C227 1.235 . S
C230 O236 1.287 . S
C230 O237 1.255 . S
O231 Fe220 1.976 1_455 S
O231 C238 1.287 . S
O232 Fe221 1.996 . S
O232 C238 1.255 1_655 S
O233 Fe223 1.976 . S
O233 C228 1.287 . S
O234 Fe220 1.996 . S
O234 C228 1.255 . S
C235 O239 1.295 1_554 S
C235 O240 1.235 . S
O236 Fe221 1.976 . S
O236 C230 1.287 . S
O237 Fe223 1.996 . S
O237 C230 1.255 . S
C238 O231 1.287 . S
C238 O232 1.255 1_455 S
O239 Fe221 2.002 1_556 S
O239 C235 1.295 1_556 S
O240 Fe223 1.997 . S
O240 C235 1.235 . S
C241 O224 1.295 . S
C241 O225 1.235 . S
Fe242 O244 1.918 . S
Fe242 O247 1.997 . S
Fe242 O248 2.002 1_565 S
Fe242 O253 1.976 1_565 S
Fe242 O256 1.996 . S
Fe243 O244 1.918 . S
Fe243 O251 1.997 . S
Fe243 O254 1.996 . S
Fe243 O258 1.976 . S
Fe243 O261 2.002 . S
O244 Fe242 1.918 . S
O244 Fe243 1.918 . S
O244 Fe245 1.918 . S
Fe245 O244 1.918 . S
Fe245 O246 2.002 . S
Fe245 O255 1.976 . S
Fe245 O259 1.996 . S
Fe245 O262 1.997 . S
O246 Fe245 2.002 . S
O246 C263 1.295 . S
O247 Fe242 1.997 . S
O247 C263 1.235 . S
O248 Fe242 2.002 1_545 S
O248 C249 1.295 1_545 S
C249 O248 1.295 1_565 S
C249 O251 1.235 . S
C250 O255 1.287 . S
C250 O256 1.255 . S
O251 Fe243 1.997 . S
O251 C249 1.235 . S
C252 O258 1.287 . S
C252 O259 1.255 . S
O253 Fe242 1.976 1_545 S
O253 C260 1.287 . S
O254 Fe243 1.996 . S
O254 C260 1.255 1_565 S
O255 Fe245 1.976 . S
O255 C250 1.287 . S
O256 Fe242 1.996 . S
O256 C250 1.255 . S
C257 O261 1.295 . S
C257 O262 1.235 . S
O258 Fe243 1.976 . S
O258 C252 1.287 . S
O259 Fe245 1.996 . S
O259 C252 1.255 . S
C260 O253 1.287 . S
C260 O254 1.255 1_545 S
O261 Fe243 2.002 . S
O261 C257 1.295 . S
O262 Fe245 1.997 . S
O262 C257 1.235 . S
C263 O246 1.295 . S
C263 O247 1.235 . S
C264 C265 1.363 . S
C264 C270 1.379 . S
C264 N272 1.356 . S
C265 C264 1.363 . S
C265 C271 1.363 . S
C266 C267 1.363 . S
C266 C271 1.379 . S
C266 N273 1.356 . S
C267 C266 1.363 . S
C267 C270 1.363 . S
N268 C270 1.356 . S
N268 H280 0.984 . S
N268 H281 0.985 . S
N269 C271 1.356 . S
N269 H274 0.984 . S
N269 H275 0.985 . S
C270 C264 1.379 . S
C270 C267 1.363 . S
C270 N268 1.356 . S
C271 C265 1.363 . S
C271 C266 1.379 . S
C271 N269 1.356 . S
N272 C264 1.356 . S
N272 H278 0.984 . S
N272 H279 0.984 . S
N273 C266 1.356 . S
N273 H276 0.984 . S
N273 H277 0.985 . S
H274 N269 0.984 . S
H275 N269 0.985 . S
H276 N273 0.984 . S
H277 N273 0.985 . S
H278 N272 0.984 . S
H279 N272 0.984 . S
H280 N268 0.984 . S
H281 N268 0.985 . S
C282 C283 1.363 . S
C282 C288 1.379 . S
C282 N290 1.356 . S
C283 C282 1.363 . S
C283 C289 1.363 . S
C284 C285 1.363 . S
C284 C289 1.379 . S
C284 N291 1.356 . S
C285 C284 1.363 . S
C285 C288 1.363 . S
N286 C288 1.356 . S
N286 H298 0.984 . S
N286 H299 0.985 . S
N287 C289 1.356 . S
N287 H292 0.984 . S
N287 H293 0.985 . S
C288 C282 1.379 . S
C288 C285 1.363 . S
C288 N286 1.356 . S
C289 C283 1.363 . S
C289 C284 1.379 . S
C289 N287 1.356 . S
N290 C282 1.356 . S
N290 H296 0.984 . S
N290 H297 0.984 . S
N291 C284 1.356 . S
N291 H294 0.984 . S
N291 H295 0.985 . S
H292 N287 0.984 . S
H293 N287 0.985 . S
H294 N291 0.984 . S
H295 N291 0.985 . S
H296 N290 0.984 . S
H297 N290 0.984 . S
H298 N286 0.984 . S
H299 N286 0.985 . S
C300 C301 1.363 . S
C300 C306 1.379 . S
C300 N308 1.356 . S
C301 C300 1.363 . S
C301 C307 1.363 . S
C302 C303 1.363 . S
C302 C307 1.379 . S
C302 N309 1.356 . S
C303 C302 1.363 . S
C303 C306 1.363 . S
N304 C306 1.356 . S
N304 H316 0.984 . S
N304 H317 0.985 . S
N305 C307 1.356 1_554 S
N305 H310 0.984 . S
N305 H311 0.985 . S
C306 C300 1.379 . S
C306 C303 1.363 . S
C306 N304 1.356 . S
C307 C301 1.363 . S
C307 C302 1.379 . S
C307 N305 1.356 1_556 S
N308 C300 1.356 . S
N308 H314 0.984 . S
N308 H315 0.984 . S
N309 C302 1.356 . S
N309 H312 0.984 . S
N309 H313 0.985 . S
H310 N305 0.984 . S
H311 N305 0.985 . S
H312 N309 0.984 . S
H313 N309 0.985 . S
H314 N308 0.984 . S
H315 N308 0.984 . S
H316 N304 0.984 . S
H317 N304 0.985 . S
C318 C319 1.363 . S
C318 C324 1.379 . S
C318 N326 1.356 . S
C319 C318 1.363 . S
C319 C325 1.363 . S
C320 C321 1.363 . S
C320 C325 1.379 . S
C320 N327 1.356 1_554 S
C321 C320 1.363 . S
C321 C324 1.363 . S
N322 C324 1.356 . S
N322 H334 0.984 . S
N322 H335 0.985 . S
N323 C325 1.356 . S
N323 H328 0.984 . S
N323 H329 0.985 . S
C324 C318 1.379 . S
C324 C321 1.363 . S
C324 N322 1.356 . S
C325 C319 1.363 . S
C325 C320 1.379 . S
C325 N323 1.356 . S
N326 C318 1.356 . S
N326 H332 0.984 . S
N326 H333 0.984 . S
N327 C320 1.356 1_556 S
N327 H330 0.984 . S
N327 H331 0.985 . S
H328 N323 0.984 . S
H329 N323 0.985 . S
H330 N327 0.984 . S
H331 N327 0.985 . S
H332 N326 0.984 . S
H333 N326 0.984 . S
H334 N322 0.984 . S
H335 N322 0.985 . S
C336 C337 1.363 . S
C336 C342 1.379 . S
C336 N344 1.356 . S
C337 C336 1.363 . S
C337 C343 1.363 . S
C338 C339 1.363 . S
C338 C343 1.379 . S
C338 N345 1.356 . S
C339 C338 1.363 . S
C339 C342 1.363 . S
N340 C342 1.356 . S
N340 H352 0.984 . S
N340 H353 0.985 . S
N341 C343 1.356 . S
N341 H346 0.984 . S
N341 H347 0.985 . S
C342 C336 1.379 . S
C342 C339 1.363 . S
C342 N340 1.356 . S
C343 C337 1.363 . S
C343 C338 1.379 . S
C343 N341 1.356 . S
N344 C336 1.356 . S
N344 H350 0.984 . S
N344 H351 0.984 . S
N345 C338 1.356 . S
N345 H348 0.984 . S
N345 H349 0.985 . S
H346 N341 0.984 . S
H347 N341 0.985 . S
H348 N345 0.984 . S
H349 N345 0.985 . S
H350 N344 0.984 . S
H351 N344 0.984 . S
H352 N340 0.984 . S
H353 N340 0.985 . S
C354 C355 1.363 . S
C354 C360 1.379 . S
C354 N362 1.356 . S
C355 C354 1.363 . S
C355 C361 1.363 . S
C356 C357 1.363 . S
C356 C361 1.379 . S
C356 N363 1.356 . S
C357 C356 1.363 . S
C357 C360 1.363 . S
N358 C360 1.356 . S
N358 H370 0.984 . S
N358 H371 0.985 . S
N359 C361 1.356 . S
N359 H364 0.984 . S
N359 H365 0.985 . S
C360 C354 1.379 . S
C360 C357 1.363 . S
C360 N358 1.356 . S
C361 C355 1.363 . S
C361 C356 1.379 . S
C361 N359 1.356 . S
N362 C354 1.356 . S
N362 H368 0.984 . S
N362 H369 0.984 . S
N363 C356 1.356 . S
N363 H366 0.984 . S
N363 H367 0.985 . S
H364 N359 0.984 . S
H365 N359 0.985 . S
H366 N363 0.984 . S
H367 N363 0.985 . S
H368 N362 0.984 . S
H369 N362 0.984 . S
H370 N358 0.984 . S
H371 N358 0.985 . S
C372 C373 1.363 . S
C372 C378 1.379 . S
C372 N380 1.356 . S
C373 C372 1.363 . S
C373 C379 1.363 . S
C374 C375 1.363 . S
C374 C379 1.379 . S
C374 N381 1.356 . S
C375 C374 1.363 . S
C375 C378 1.363 . S
N376 C378 1.356 . S
N376 H388 0.984 . S
N376 H389 0.985 . S
N377 C379 1.356 . S
N377 H382 0.984 . S
N377 H383 0.985 . S
C378 C372 1.379 . S
C378 C375 1.363 . S
C378 N376 1.356 . S
C379 C373 1.363 . S
C379 C374 1.379 . S
C379 N377 1.356 . S
N380 C372 1.356 . S
N380 H386 0.984 . S
N380 H387 0.984 . S
N381 C374 1.356 . S
N381 H384 0.984 . S
N381 H385 0.985 . S
H382 N377 0.984 . S
H383 N377 0.985 . S
H384 N381 0.984 . S
H385 N381 0.985 . S
H386 N380 0.984 . S
H387 N380 0.984 . S
H388 N376 0.984 . S
H389 N376 0.985 . S
C390 C391 1.363 . S
C390 C396 1.379 . S
C390 N398 1.356 . S
C391 C390 1.363 . S
C391 C397 1.363 . S
C392 C393 1.363 . S
C392 C397 1.379 . S
C392 N399 1.356 . S
C393 C392 1.363 . S
C393 C396 1.363 . S
N394 C396 1.356 . S
N394 H406 0.984 . S
N394 H407 0.985 . S
N395 C397 1.356 . S
N395 H400 0.984 . S
N395 H401 0.985 . S
C396 C390 1.379 . S
C396 C393 1.363 . S
C396 N394 1.356 . S
C397 C391 1.363 . S
C397 C392 1.379 . S
C397 N395 1.356 . S
N398 C390 1.356 . S
N398 H404 0.984 . S
N398 H405 0.984 . S
N399 C392 1.356 . S
N399 H402 0.984 . S
N399 H403 0.985 . S
H400 N395 0.984 . S
H401 N395 0.985 . S
H402 N399 0.984 . S
H403 N399 0.985 . S
H404 N398 0.984 . S
H405 N398 0.984 . S
H406 N394 0.984 . S
H407 N394 0.985 . S
C408 C409 1.363 . S
C408 C414 1.379 . S
C408 N416 1.356 . S
C409 C408 1.363 . S
C409 C415 1.363 . S
C410 C411 1.363 . S
C410 C415 1.379 . S
C410 N417 1.356 . S
C411 C410 1.363 . S
C411 C414 1.363 . S
N412 C414 1.356 . S
N412 H424 0.984 . S
N412 H425 0.985 . S
N413 C415 1.356 . S
N413 H418 0.984 . S
N413 H419 0.984 . S
C414 C408 1.379 . S
C414 C411 1.363 . S
C414 N412 1.356 . S
C415 C409 1.363 . S
C415 C410 1.379 . S
C415 N413 1.356 . S
N416 C408 1.356 . S
N416 H422 0.984 . S
N416 H423 0.984 . S
N417 C410 1.356 . S
N417 H420 0.984 . S
N417 H421 0.984 . S
H418 N413 0.984 . S
H419 N413 0.984 . S
H420 N417 0.984 . S
H421 N417 0.984 . S
H422 N416 0.984 . S
H423 N416 0.984 . S
H424 N412 0.984 . S
H425 N412 0.985 . S
C426 C427 1.363 . S
C426 C432 1.379 . S
C426 N434 1.356 . S
C427 C426 1.363 . S
C427 C433 1.363 . S
C428 C429 1.363 . S
C428 C433 1.379 . S
C428 N435 1.356 . S
C429 C428 1.363 . S
C429 C432 1.363 . S
N430 C432 1.356 . S
N430 H442 0.984 . S
N430 H443 0.985 . S
N431 C433 1.356 . S
N431 H436 0.984 . S
N431 H437 0.985 1_556 S
C432 C426 1.379 . S
C432 C429 1.363 . S
C432 N430 1.356 . S
C433 C427 1.363 . S
C433 C428 1.379 . S
C433 N431 1.356 . S
N434 C426 1.356 . S
N434 H440 0.984 . S
N434 H441 0.984 . S
N435 C428 1.356 . S
N435 H438 0.984 . S
N435 H439 0.985 1_556 S
H436 N431 0.984 . S
H437 N431 0.985 1_554 S
H438 N435 0.984 . S
H439 N435 0.985 1_554 S
H440 N434 0.984 . S
H441 N434 0.984 . S
H442 N430 0.984 . S
H443 N430 0.985 . S
C444 C445 1.363 . S
C444 C450 1.379 . S
C444 N452 1.356 . S
C445 C444 1.363 . S
C445 C451 1.363 . S
C446 C447 1.363 . S
C446 C451 1.379 . S
C446 N453 1.356 . S
C447 C446 1.363 . S
C447 C450 1.363 . S
N448 C450 1.356 . S
N448 H460 0.984 1_554 S
N448 H461 0.985 . S
N449 C451 1.356 . S
N449 H454 0.984 . S
N449 H455 0.985 . S
C450 C444 1.379 . S
C450 C447 1.363 . S
C450 N448 1.356 . S
C451 C445 1.363 . S
C451 C446 1.379 . S
C451 N449 1.356 . S
N452 C444 1.356 . S
N452 H458 0.984 1_554 S
N452 H459 0.984 . S
N453 C446 1.356 . S
N453 H456 0.984 . S
N453 H457 0.985 . S
H454 N449 0.984 . S
H455 N449 0.985 . S
H456 N453 0.984 . S
H457 N453 0.985 . S
H458 N452 0.984 1_556 S
H459 N452 0.984 . S
H460 N448 0.984 1_556 S
H461 N448 0.985 . S
C462 C463 1.363 . S
C462 C468 1.379 . S
C462 N470 1.356 . S
C463 C462 1.363 . S
C463 C469 1.363 . S
C464 C465 1.363 . S
C464 C469 1.379 . S
C464 N471 1.356 . S
C465 C464 1.363 . S
C465 C468 1.363 . S
N466 C468 1.356 . S
N466 H478 0.984 . S
N466 H479 0.985 . S
N467 C469 1.356 . S
N467 H472 0.984 . S
N467 H473 0.980 1_565 S
C468 C462 1.379 . S
C468 C465 1.363 . S
C468 N466 1.356 . S
C469 C463 1.363 . S
C469 C464 1.379 . S
C469 N467 1.356 . S
N470 C462 1.356 . S
N470 H476 0.984 . S
N470 H477 0.984 . S
N471 C464 1.356 . S
N471 H474 0.984 . S
N471 H475 0.978 1_565 S
H472 N467 0.984 . S
H473 N467 0.980 1_545 S
H474 N471 0.984 . S
H475 N471 0.978 1_545 S
H476 N470 0.984 . S
H477 N470 0.984 . S
H478 N466 0.984 . S
H479 N466 0.985 . S
C480 C481 1.363 . S
C480 C486 1.379 . S
C480 N488 1.356 . S
C481 C480 1.363 . S
C481 C487 1.363 . S
C482 C483 1.363 . S
C482 C487 1.379 . S
C482 N489 1.356 . S
C483 C482 1.363 . S
C483 C486 1.363 . S
N484 C486 1.356 . S
N484 H496 0.984 . S
N484 H497 0.985 . S
N485 C487 1.356 . S
N485 H490 0.984 . S
N485 H491 0.985 . S
C486 C480 1.379 . S
C486 C483 1.363 . S
C486 N484 1.356 . S
C487 C481 1.363 . S
C487 C482 1.379 . S
C487 N485 1.356 . S
N488 C480 1.356 . S
N488 H494 0.984 . S
N488 H495 0.984 . S
N489 C482 1.356 . S
N489 H492 0.984 . S
N489 H493 0.985 . S
H490 N485 0.984 . S
H491 N485 0.985 . S
H492 N489 0.984 . S
H493 N489 0.985 . S
H494 N488 0.984 . S
H495 N488 0.984 . S
H496 N484 0.984 . S
H497 N484 0.985 . S
C498 C499 1.363 . S
C498 C504 1.379 1_655 S
C498 N506 1.356 . S
C499 C498 1.363 . S
C499 C505 1.363 . S
C500 C501 1.363 . S
C500 C505 1.379 1_455 S
C500 N507 1.356 . S
C501 C500 1.363 . S
C501 C504 1.363 . S
N502 C504 1.356 . S
N502 H514 0.984 . S
N502 H515 0.985 . S
N503 C505 1.356 . S
N503 H508 0.984 . S
N503 H509 0.985 . S
C504 C498 1.379 1_455 S
C504 C501 1.363 . S
C504 N502 1.356 . S
C505 C499 1.363 . S
C505 C500 1.379 1_655 S
C505 N503 1.356 . S
N506 C498 1.356 . S
N506 H512 0.984 . S
N506 H513 0.984 . S
N507 C500 1.356 . S
N507 H510 0.984 . S
N507 H511 0.985 . S
H508 N503 0.984 . S
H509 N503 0.985 . S
H510 N507 0.984 . S
H511 N507 0.985 . S
H512 N506 0.984 . S
H513 N506 0.984 . S
H514 N502 0.984 . S
H515 N502 0.985 . S
C516 C517 1.363 . S
C516 C522 1.379 1_556 S
C516 N524 1.356 . S
C517 C516 1.363 . S
C517 C523 1.363 1_545 S
C518 C519 1.363 . S
C518 C523 1.379 1_554 S
C518 N525 1.356 . S
C519 C518 1.363 . S
C519 C522 1.363 1_565 S
N520 C522 1.356 . S
N520 H532 0.984 . S
N520 H533 0.985 . S
N521 C523 1.356 . S
N521 H526 0.984 . S
N521 H527 0.985 . S
C522 C516 1.379 1_554 S
C522 C519 1.363 1_545 S
C522 N520 1.356 . S
C523 C517 1.363 1_565 S
C523 C518 1.379 1_556 S
C523 N521 1.356 . S
N524 C516 1.356 . S
N524 H530 0.984 . S
N524 H531 0.984 . S
N525 C518 1.356 . S
N525 H528 0.984 . S
N525 H529 0.985 . S
H526 N521 0.984 . S
H527 N521 0.985 . S
H528 N525 0.984 . S
H529 N525 0.985 . S
H530 N524 0.984 . S
H531 N524 0.984 . S
H532 N520 0.984 . S
H533 N520 0.985 . S
C534 C535 1.363 . S
C534 C540 1.379 . S
C534 N542 1.356 . S
C535 C534 1.363 . S
C535 C541 1.363 . S
C536 C537 1.363 . S
C536 C541 1.379 . S
C536 N543 1.356 . S
C537 C536 1.363 . S
C537 C540 1.363 . S
N538 C540 1.356 . S
N538 H550 0.984 . S
N538 H551 0.985 . S
N539 C541 1.356 . S
N539 H544 0.984 . S
N539 H545 0.985 . S
C540 C534 1.379 . S
C540 C537 1.363 . S
C540 N538 1.356 . S
C541 C535 1.363 . S
C541 C536 1.379 . S
C541 N539 1.356 . S
N542 C534 1.356 . S
N542 H548 0.984 . S
N542 H549 0.984 . S
N543 C536 1.356 . S
N543 H546 0.984 . S
N543 H547 0.985 . S
H544 N539 0.984 . S
H545 N539 0.985 . S
H546 N543 0.984 . S
H547 N543 0.985 . S
H548 N542 0.984 . S
H549 N542 0.984 . S
H550 N538 0.984 . S
H551 N538 0.985 . S
C552 C553 1.363 1_655 S
C552 C558 1.379 . S
C552 N560 1.347 . S
C553 C552 1.363 1_455 S
C553 C559 1.363 . S
C554 C555 1.363 1_455 S
C554 C559 1.379 . S
C554 N561 1.347 . S
C555 C554 1.363 1_655 S
C555 C558 1.363 . S
N556 C558 1.356 . S
N556 H568 0.984 . S
N556 H569 0.985 . S
N557 C559 1.356 . S
N557 H562 0.984 . S
N557 H563 0.985 . S
C558 C552 1.379 . S
C558 C555 1.363 . S
C558 N556 1.356 . S
C559 C553 1.363 . S
C559 C554 1.379 . S
C559 N557 1.356 . S
N560 C552 1.347 . S
N560 H566 1.004 . S
N560 H567 0.975 1_655 S
N561 C554 1.347 . S
N561 H564 0.975 1_455 S
N561 H565 1.004 . S
H562 N557 0.984 . S
H563 N557 0.985 . S
H564 N561 0.975 1_655 S
H565 N561 1.004 . S
H566 N560 1.004 . S
H567 N560 0.975 1_455 S
H568 N556 0.984 . S
H569 N556 0.985 . S
C570 C571 1.363 . S
C570 C576 1.379 . S
C570 N578 1.356 . S
C571 C570 1.363 . S
C571 C577 1.363 1_565 S
C572 C573 1.363 . S
C572 C577 1.379 . S
C572 N579 1.356 . S
C573 C572 1.363 . S
C573 C576 1.363 1_545 S
N574 C576 1.356 . S
N574 H586 0.984 . S
N574 H587 0.985 . S
N575 C577 1.356 . S
N575 H580 0.984 . S
N575 H581 0.985 . S
C576 C570 1.379 . S
C576 C573 1.363 1_565 S
C576 N574 1.356 . S
C577 C571 1.363 1_545 S
C577 C572 1.379 . S
C577 N575 1.356 . S
N578 C570 1.356 . S
N578 H584 0.984 . S
N578 H585 0.984 . S
N579 C572 1.356 . S
N579 H582 0.984 . S
N579 H583 0.985 . S
H580 N575 0.984 . S
H581 N575 0.985 . S
H582 N579 0.984 . S
H583 N579 0.985 . S
H584 N578 0.984 . S
H585 N578 0.984 . S
H586 N574 0.984 . S
H587 N574 0.985 . S
C588 C589 1.363 . S
C588 C594 1.379 . S
C588 N596 1.356 . S
C589 C588 1.363 . S
C589 C595 1.363 . S
C590 C591 1.363 . S
C590 C595 1.379 . S
C590 N597 1.356 . S
C591 C590 1.363 . S
C591 C594 1.363 . S
N592 C594 1.356 . S
N592 H604 0.984 . S
N592 H605 0.985 . S
N593 C595 1.356 . S
N593 H598 0.984 . S
N593 H599 0.985 . S
C594 C588 1.379 . S
C594 C591 1.363 . S
C594 N592 1.356 . S
C595 C589 1.363 . S
C595 C590 1.379 . S
C595 N593 1.356 . S
N596 C588 1.356 . S
N596 H602 0.984 . S
N596 H603 0.984 . S
N597 C590 1.356 . S
N597 H600 0.984 . S
N597 H601 0.985 . S
H598 N593 0.984 . S
H599 N593 0.985 . S
H600 N597 0.984 . S
H601 N597 0.985 . S
H602 N596 0.984 . S
H603 N596 0.984 . S
H604 N592 0.984 . S
H605 N592 0.985 . S
C606 C607 1.363 . S
C606 C612 1.379 . S
C606 N614 1.356 . S
C607 C606 1.363 . S
C607 C613 1.363 . S
C608 C609 1.363 . S
C608 C613 1.379 . S
C608 N615 1.356 . S
C609 C608 1.363 . S
C609 C612 1.363 . S
N610 C612 1.356 . S
N610 H622 0.984 . S
N610 H623 0.985 . S
N611 C613 1.356 . S
N611 H616 0.984 . S
N611 H617 0.985 . S
C612 C606 1.379 . S
C612 C609 1.363 . S
C612 N610 1.356 . S
C613 C607 1.363 . S
C613 C608 1.379 . S
C613 N611 1.356 . S
N614 C606 1.356 . S
N614 H620 0.984 . S
N614 H621 0.984 . S
N615 C608 1.356 . S
N615 H618 0.984 . S
N615 H619 0.985 . S
H616 N611 0.984 . S
H617 N611 0.985 . S
H618 N615 0.984 . S
H619 N615 0.985 . S
H620 N614 0.984 . S
H621 N614 0.984 . S
H622 N610 0.984 . S
H623 N610 0.985 . S
C624 C625 1.363 . S
C624 C630 1.379 . S
C624 N632 1.356 . S
C625 C624 1.363 . S
C625 C631 1.363 . S
C626 C627 1.363 . S
C626 C631 1.379 . S
C626 N633 1.356 . S
C627 C626 1.363 . S
C627 C630 1.363 . S
N628 C630 1.356 . S
N628 H640 0.984 . S
N628 H641 0.985 . S
N629 C631 1.356 . S
N629 H634 0.984 . S
N629 H635 0.985 . S
C630 C624 1.379 . S
C630 C627 1.363 . S
C630 N628 1.356 . S
C631 C625 1.363 . S
C631 C626 1.379 . S
C631 N629 1.356 . S
N632 C624 1.356 . S
N632 H638 0.984 . S
N632 H639 0.984 . S
N633 C626 1.356 . S
N633 H636 0.984 . S
N633 H637 0.985 . S
H634 N629 0.984 . S
H635 N629 0.985 . S
H636 N633 0.984 . S
H637 N633 0.985 . S
H638 N632 0.984 . S
H639 N632 0.984 . S
H640 N628 0.984 . S
H641 N628 0.985 . S
C642 C643 1.363 . S
C642 C648 1.379 . S
C642 N650 1.356 . S
C643 C642 1.363 . S
C643 C649 1.363 . S
C644 C645 1.363 . S
C644 C649 1.379 . S
C644 N651 1.356 . S
C645 C644 1.363 . S
C645 C648 1.363 . S
N646 C648 1.356 . S
N646 H658 0.984 . S
N646 H659 0.985 . S
N647 C649 1.356 . S
N647 H652 0.984 . S
N647 H653 0.985 . S
C648 C642 1.379 . S
C648 C645 1.363 . S
C648 N646 1.356 . S
C649 C643 1.363 . S
C649 C644 1.379 . S
C649 N647 1.356 . S
N650 C642 1.356 . S
N650 H656 0.984 . S
N650 H657 0.984 . S
N651 C644 1.356 . S
N651 H654 0.984 . S
N651 H655 0.985 . S
H652 N647 0.984 . S
H653 N647 0.985 . S
H654 N651 0.984 . S
H655 N651 0.985 . S
H656 N650 0.984 . S
H657 N650 0.984 . S
H658 N646 0.984 . S
H659 N646 0.985 . S
C660 C661 1.363 . S
C660 C666 1.379 . S
C660 N668 1.356 . S
C661 C660 1.363 . S
C661 C667 1.363 . S
C662 C663 1.363 . S
C662 C667 1.379 1_554 S
C662 N669 1.356 . S
C663 C662 1.363 . S
C663 C666 1.363 1_554 S
N664 C666 1.356 . S
N664 H676 0.984 . S
N664 H677 0.985 1_556 S
N665 C667 1.356 . S
N665 H670 0.984 . S
N665 H671 0.985 . S
C666 C660 1.379 . S
C666 C663 1.363 1_556 S
C666 N664 1.356 . S
C667 C661 1.363 . S
C667 C662 1.379 1_556 S
C667 N665 1.356 . S
N668 C660 1.356 . S
N668 H674 0.984 . S
N668 H675 0.984 . S
N669 C662 1.356 . S
N669 H672 0.984 . S
N669 H673 0.985 . S
H670 N665 0.984 . S
H671 N665 0.985 . S
H672 N669 0.984 . S
H673 N669 0.985 . S
H674 N668 0.984 . S
H675 N668 0.984 . S
H676 N664 0.984 . S
H677 N664 0.985 1_554 S
C678 C679 1.363 . S
C678 C684 1.379 . S
C678 N686 1.356 . S
C679 C678 1.363 . S
C679 C685 1.363 . S
C680 C681 1.363 . S
C680 C685 1.379 . S
C680 N687 1.356 . S
C681 C680 1.363 . S
C681 C684 1.363 . S
N682 C684 1.356 . S
N682 H694 0.984 . S
N682 H695 0.985 . S
N683 C685 1.356 . S
N683 H688 0.984 . S
N683 H689 0.985 . S
C684 C678 1.379 . S
C684 C681 1.363 . S
C684 N682 1.356 . S
C685 C679 1.363 . S
C685 C680 1.379 . S
C685 N683 1.356 . S
N686 C678 1.356 . S
N686 H692 0.984 . S
N686 H693 0.984 . S
N687 C680 1.356 . S
N687 H690 0.984 . S
N687 H691 0.985 1_554 S
H688 N683 0.984 . S
H689 N683 0.985 . S
H690 N687 0.984 . S
H691 N687 0.985 1_556 S
H692 N686 0.984 . S
H693 N686 0.984 . S
H694 N682 0.984 . S
H695 N682 0.985 . S
C696 C697 1.363 . S
C696 C702 1.379 . S
C696 N704 1.356 . S
C697 C696 1.363 . S
C697 C703 1.363 . S
C698 C699 1.363 . S
C698 C703 1.379 . S
C698 N705 1.356 . S
C699 C698 1.363 . S
C699 C702 1.363 . S
N700 C702 1.356 . S
N700 H712 0.984 . S
N700 H713 0.985 . S
N701 C703 1.356 . S
N701 H706 0.984 . S
N701 H707 0.985 . S
C702 C696 1.379 . S
C702 C699 1.363 . S
C702 N700 1.356 . S
C703 C697 1.363 . S
C703 C698 1.379 . S
C703 N701 1.356 . S
N704 C696 1.356 . S
N704 H710 0.984 . S
N704 H711 0.984 . S
N705 C698 1.356 . S
N705 H708 0.984 . S
N705 H709 0.985 . S
H706 N701 0.984 . S
H707 N701 0.985 . S
H708 N705 0.984 . S
H709 N705 0.985 . S
H710 N704 0.984 . S
H711 N704 0.984 . S
H712 N700 0.984 . S
H713 N700 0.985 . S
C714 C715 1.363 . S
C714 C720 1.379 . S
C714 N722 1.356 . S
C715 C714 1.363 . S
C715 C721 1.363 . S
C716 C717 1.363 . S
C716 C721 1.379 . S
C716 N723 1.356 . S
C717 C716 1.363 . S
C717 C720 1.363 . S
N718 C720 1.356 . S
N718 H730 0.984 . S
N718 H731 0.985 . S
N719 C721 1.356 . S
N719 H724 0.984 . S
N719 H725 0.985 . S
C720 C714 1.379 . S
C720 C717 1.363 . S
C720 N718 1.356 . S
C721 C715 1.363 . S
C721 C716 1.379 . S
C721 N719 1.356 . S
N722 C714 1.356 . S
N722 H728 0.984 . S
N722 H729 0.984 . S
N723 C716 1.356 . S
N723 H726 0.984 . S
N723 H727 0.985 . S
H724 N719 0.984 . S
H725 N719 0.985 . S
H726 N723 0.984 . S
H727 N723 0.985 . S
H728 N722 0.984 . S
H729 N722 0.984 . S
H730 N718 0.984 . S
H731 N718 0.985 . S
C732 C733 1.363 . S
C732 C738 1.379 . S
C732 N740 1.356 . S
C733 C732 1.363 . S
C733 C739 1.363 . S
C734 C735 1.363 . S
C734 C739 1.379 . S
C734 N741 1.356 . S
C735 C734 1.363 . S
C735 C738 1.363 . S
N736 C738 1.356 . S
N736 H748 0.984 . S
N736 H749 0.985 . S
N737 C739 1.356 . S
N737 H742 0.984 . S
N737 H743 0.985 . S
C738 C732 1.379 . S
C738 C735 1.363 . S
C738 N736 1.356 . S
C739 C733 1.363 . S
C739 C734 1.379 . S
C739 N737 1.356 . S
N740 C732 1.356 . S
N740 H746 0.984 . S
N740 H747 0.984 . S
N741 C734 1.356 . S
N741 H744 0.984 . S
N741 H745 0.985 . S
H742 N737 0.984 . S
H743 N737 0.985 . S
H744 N741 0.984 . S
H745 N741 0.985 . S
H746 N740 0.984 . S
H747 N740 0.984 . S
H748 N736 0.984 . S
H749 N736 0.985 . S
C750 C751 1.363 . S
C750 C756 1.379 1_556 S
C750 N758 1.356 . S
C751 C750 1.363 . S
C751 C757 1.363 1_556 S
C752 C753 1.363 . S
C752 C757 1.379 . S
C752 N759 1.356 . S
C753 C752 1.363 . S
C753 C756 1.363 . S
N754 C756 1.356 . S
N754 H766 0.984 . S
N754 H767 0.985 . S
N755 C757 1.356 . S
N755 H760 0.986 . S
N755 H761 0.985 . S
C756 C750 1.379 1_554 S
C756 C753 1.363 . S
C756 N754 1.356 . S
C757 C751 1.363 1_554 S
C757 C752 1.379 . S
C757 N755 1.356 . S
N758 C750 1.356 . S
N758 H764 0.984 . S
N758 H765 0.984 . S
N759 C752 1.356 . S
N759 H762 0.984 . S
N759 H763 0.985 . S
H760 N755 0.986 . S
H761 N755 0.985 . S
H762 N759 0.984 . S
H763 N759 0.985 . S
H764 N758 0.984 . S
H765 N758 0.984 . S
H766 N754 0.984 . S
H767 N754 0.985 . S
C768 C769 1.363 . S
C768 C774 1.379 . S
C768 N776 1.356 . S
C769 C768 1.363 . S
C769 C775 1.363 . S
C770 C771 1.363 . S
C770 C775 1.379 . S
C770 N777 1.356 . S
C771 C770 1.363 . S
C771 C774 1.363 . S
N772 C774 1.356 . S
N772 H784 0.984 . S
N772 H785 0.985 . S
N773 C775 1.356 . S
N773 H778 0.984 . S
N773 H779 0.985 . S
C774 C768 1.379 . S
C774 C771 1.363 . S
C774 N772 1.356 . S
C775 C769 1.363 . S
C775 C770 1.379 . S
C775 N773 1.356 . S
N776 C768 1.356 . S
N776 H782 0.984 . S
N776 H783 0.984 . S
N777 C770 1.356 . S
N777 H780 0.984 . S
N777 H781 0.985 . S
H778 N773 0.984 . S
H779 N773 0.985 . S
H780 N777 0.984 . S
H781 N777 0.985 . S
H782 N776 0.984 . S
H783 N776 0.984 . S
H784 N772 0.984 . S
H785 N772 0.985 . S
C786 C787 1.363 . S
C786 C792 1.379 . S
C786 N794 1.356 . S
C787 C786 1.363 . S
C787 C793 1.363 . S
C788 C789 1.363 . S
C788 C793 1.379 . S
C788 N795 1.356 . S
C789 C788 1.363 . S
C789 C792 1.363 . S
N790 C792 1.356 . S
N790 H802 0.984 . S
N790 H803 0.985 . S
N791 C793 1.356 . S
N791 H796 0.984 . S
N791 H797 0.985 . S
C792 C786 1.379 . S
C792 C789 1.363 . S
C792 N790 1.356 . S
C793 C787 1.363 . S
C793 C788 1.379 . S
C793 N791 1.356 . S
N794 C786 1.356 . S
N794 H800 0.984 . S
N794 H801 0.984 . S
N795 C788 1.356 . S
N795 H798 0.984 . S
N795 H799 0.985 . S
H796 N791 0.984 . S
H797 N791 0.985 . S
H798 N795 0.984 . S
H799 N795 0.985 . S
H800 N794 0.984 . S
H801 N794 0.984 . S
H802 N790 0.984 . S
H803 N790 0.985 . S
C804 C805 1.363 . S
C804 C810 1.379 . S
C804 N812 1.356 . S
C805 C804 1.363 . S
C805 C811 1.363 . S
C806 C807 1.363 . S
C806 C811 1.379 . S
C806 N813 1.356 . S
C807 C806 1.363 . S
C807 C810 1.363 . S
N808 C810 1.356 . S
N808 H820 0.984 . S
N808 H821 0.985 . S
N809 C811 1.356 . S
N809 H814 0.984 . S
N809 H815 0.985 . S
C810 C804 1.379 . S
C810 C807 1.363 . S
C810 N808 1.356 . S
C811 C805 1.363 . S
C811 C806 1.379 . S
C811 N809 1.356 . S
N812 C804 1.356 . S
N812 H818 0.984 . S
N812 H819 0.984 . S
N813 C806 1.356 . S
N813 H816 0.984 . S
N813 H817 0.985 . S
H814 N809 0.984 . S
H815 N809 0.985 . S
H816 N813 0.984 . S
H817 N813 0.985 . S
H818 N812 0.984 . S
H819 N812 0.984 . S
H820 N808 0.984 . S
H821 N808 0.985 . S
C822 C823 1.363 . S
C822 C828 1.379 1_455 S
C822 N830 1.356 . S
C823 C822 1.363 . S
C823 C829 1.363 . S
C824 C825 1.363 . S
C824 C829 1.379 1_655 S
C824 N831 1.356 . S
C825 C824 1.363 . S
C825 C828 1.363 . S
N826 C828 1.356 . S
N826 H838 0.984 . S
N826 H839 0.985 . S
N827 C829 1.356 . S
N827 H832 0.984 . S
N827 H833 0.985 . S
C828 C822 1.379 1_655 S
C828 C825 1.363 . S
C828 N826 1.356 . S
C829 C823 1.363 . S
C829 C824 1.379 1_455 S
C829 N827 1.356 . S
N830 C822 1.356 . S
N830 H836 0.984 . S
N830 H837 0.984 . S
N831 C824 1.356 . S
N831 H834 0.984 . S
N831 H835 0.985 . S
H832 N827 0.984 . S
H833 N827 0.985 . S
H834 N831 0.984 . S
H835 N831 0.985 . S
H836 N830 0.984 . S
H837 N830 0.984 . S
H838 N826 0.984 . S
H839 N826 0.985 . S
C840 C841 1.363 1_565 S
C840 C846 1.379 . S
C840 N848 1.356 . S
C841 C840 1.363 1_545 S
C841 C847 1.363 . S
C842 C843 1.363 1_545 S
C842 C847 1.379 . S
C842 N849 1.356 . S
C843 C842 1.363 1_565 S
C843 C846 1.363 . S
N844 C846 1.356 . S
N844 H856 0.984 . S
N844 H857 0.985 . S
N845 C847 1.356 . S
N845 H850 0.984 . S
N845 H851 0.985 . S
C846 C840 1.379 . S
C846 C843 1.363 . S
C846 N844 1.356 . S
C847 C841 1.363 . S
C847 C842 1.379 . S
C847 N845 1.356 . S
N848 C840 1.356 . S
N848 H854 0.984 . S
N848 H855 0.984 . S
N849 C842 1.356 . S
N849 H852 0.984 . S
N849 H853 0.985 . S
H850 N845 0.984 . S
H851 N845 0.985 . S
H852 N849 0.984 . S
H853 N849 0.985 . S
H854 N848 0.984 . S
H855 N848 0.984 . S
H856 N844 0.984 . S
H857 N844 0.985 . S
C858 C859 1.363 . S
C858 C864 1.379 . S
C858 N866 1.356 . S
C859 C858 1.363 . S
C859 C865 1.363 . S
C860 C861 1.363 . S
C860 C865 1.379 . S
C860 N867 1.356 . S
C861 C860 1.363 . S
C861 C864 1.363 . S
N862 C864 1.356 . S
N862 H874 0.984 . S
N862 H875 0.985 . S
N863 C865 1.356 . S
N863 H868 0.984 . S
N863 H869 0.985 . S
C864 C858 1.379 . S
C864 C861 1.363 . S
C864 N862 1.356 . S
C865 C859 1.363 . S
C865 C860 1.379 . S
C865 N863 1.356 . S
N866 C858 1.356 . S
N866 H872 0.984 . S
N866 H873 0.984 . S
N867 C860 1.356 . S
N867 H870 0.984 . S
N867 H871 0.985 . S
H868 N863 0.984 . S
H869 N863 0.985 . S
H870 N867 0.984 . S
H871 N867 0.985 . S
H872 N866 0.984 . S
H873 N866 0.984 . S
H874 N862 0.984 . S
H875 N862 0.985 . S
C876 C877 1.363 1_655 S
C876 C882 1.379 . S
C876 N884 1.356 . S
C877 C876 1.363 1_455 S
C877 C883 1.363 . S
C878 C879 1.363 1_455 S
C878 C883 1.379 . S
C878 N885 1.356 . S
C879 C878 1.363 1_655 S
C879 C882 1.363 . S
N880 C882 1.356 . S
N880 H892 0.984 . S
N880 H893 0.985 . S
N881 C883 1.356 . S
N881 H886 0.984 . S
N881 H887 0.985 . S
C882 C876 1.379 . S
C882 C879 1.363 . S
C882 N880 1.356 . S
C883 C877 1.363 . S
C883 C878 1.379 . S
C883 N881 1.356 . S
N884 C876 1.356 . S
N884 H890 0.984 . S
N884 H891 0.984 . S
N885 C878 1.356 . S
N885 H888 0.984 . S
N885 H889 0.985 . S
H886 N881 0.984 . S
H887 N881 0.985 . S
H888 N885 0.984 . S
H889 N885 0.985 . S
H890 N884 0.984 . S
H891 N884 0.984 . S
H892 N880 0.984 . S
H893 N880 0.985 . S
C894 C895 1.363 1_565 S
C894 C900 1.379 1_556 S
C894 N902 1.356 . S
C895 C894 1.363 1_545 S
C895 C901 1.363 . S
C896 C897 1.363 1_545 S
C896 C901 1.379 1_554 S
C896 N903 1.356 . S
C897 C896 1.363 1_565 S
C897 C900 1.363 . S
N898 C900 1.356 . S
N898 H910 0.984 . S
N898 H911 0.985 . S
N899 C901 1.356 . S
N899 H904 0.984 . S
N899 H905 0.985 . S
C900 C894 1.379 1_554 S
C900 C897 1.363 . S
C900 N898 1.356 . S
C901 C895 1.363 . S
C901 C896 1.379 1_556 S
C901 N899 1.356 . S
N902 C894 1.356 . S
N902 H908 0.984 . S
N902 H909 0.984 . S
N903 C896 1.356 . S
N903 H906 0.984 . S
N903 H907 0.985 . S
H904 N899 0.984 . S
H905 N899 0.985 . S
H906 N903 0.984 . S
H907 N903 0.985 . S
H908 N902 0.984 . S
H909 N902 0.984 . S
H910 N898 0.984 . S
H911 N898 0.985 . S
C265 C15 1.162 . S
C267 C191 1.162 . S
C283 C213 1.162 . S
C285 C43 1.162 . S
C301 C235 1.162 1_556 S
C303 C59 1.162 . S
C319 C257 1.162 . S
C321 C73 1.162 1_554 S
C337 C147 1.162 . S
C339 C103 1.162 . S
C355 C161 1.162 . S
C357 C131 1.162 . S
C373 C21 1.580 . S
C375 C153 1.580 . S
C391 C29 1.580 . S
C393 C169 1.580 . S
C409 C65 1.580 . S
C411 C197 1.580 . S
C427 C219 1.580 . S
C429 C81 1.580 . S
C445 C241 1.580 . S
C447 C109 1.580 . S
C463 C117 1.580 . S
C465 C263 1.580 . S
C481 C7 1.111 . S
C483 C205 1.111 . S
C499 C227 1.111 . S
C501 C37 1.111 . S
C517 C51 1.111 . S
C519 C249 1.111 . S
C535 C139 1.111 . S
C537 C87 1.111 . S
C553 C175 1.111 . S
C555 C95 1.111 . S
C571 C125 1.111 . S
C573 C183 1.111 . S
C589 C10 1.627 . S
C591 C120 1.610 . S
C607 C18 1.610 . S
C609 C30 1.627 . S
C625 C54 1.627 . S
C627 C32 1.610 . S
C643 C62 1.610 . S
C645 C84 1.627 . S
C661 C74 1.610 . S
C663 C98 1.627 . S
C679 C118 1.627 . S
C681 C106 1.610 . S
C697 C162 1.610 . S
C699 C142 1.627 . S
C715 C172 1.627 . S
C717 C194 1.610 . S
C733 C186 1.627 . S
C735 C216 1.610 . S
C751 C208 1.627 . S
C753 C238 1.610 . S
C769 C260 1.610 . S
C771 C230 1.627 . S
C787 C150 1.610 . S
C789 C252 1.627 . S
C805 C8 1.409 . S
C807 C206 1.409 . S
C823 C40 1.410 . S
C825 C228 1.410 . S
C841 C52 1.410 . S
C843 C250 1.410 . S
C859 C140 1.409 . S
C861 C76 1.409 . S
C877 C164 1.410 . S
C879 C96 1.410 . S
C895 C184 1.410 . S
C897 C128 1.410 . S
