# Generated by pormake.
# Topology lon, (4)-cn, num edge types: 1
# Building blocks:
#     Node 0, Type 0, BuildingBlock: UXUYUI_clean_sbu_0, # of connection points: 4
#     Node 1, Type 0, BuildingBlock: UXUYUI_clean_sbu_0, # of connection points: 4
#     Node 2, Type 0, BuildingBlock: UXUYUI_clean_sbu_0, # of connection points: 4
#     Node 3, Type 0, BuildingBlock: UXUYUI_clean_sbu_0, # of connection points: 4
#     Edge 4, Type (0, 0), BuildingBlock: TEMPAE_clean_linker_10, # of connection points: 2
#     Edge 5, Type (0, 0), BuildingBlock: TEMPAE_clean_linker_10, # of connection points: 2
#     Edge 6, Type (0, 0), BuildingBlock: TEMPAE_clean_linker_10, # of connection points: 2
#     Edge 7, Type (0, 0), BuildingBlock: TEMPAE_clean_linker_10, # of connection points: 2
#     Edge 8, Type (0, 0), BuildingBlock: TEMPAE_clean_linker_10, # of connection points: 2
#     Edge 9, Type (0, 0), BuildingBlock: TEMPAE_clean_linker_10, # of connection points: 2
#     Edge 10, Type (0, 0), BuildingBlock: TEMPAE_clean_linker_10, # of connection points: 2
#     Edge 11, Type (0, 0), BuildingBlock: TEMPAE_clean_linker_10, # of connection points: 2
# Relax obj value: 0.000
# Max RMSD: 0.004
# Mean RMSD: 0.003
data_MOF--net-lon--node1-UXUYUI_clean_sbu_0--edge1-TEMPAE_clean_linker_10
_symmetry_space_group_name_H-M    P1
_symmetry_Int_Tables_number       1
_symmetry_cell_setting            triclinic
loop_
_symmetry_equiv_pos_as_xyz
'x, y, z'
_cell_length_a     36.814485
_cell_length_b     36.765898
_cell_length_c     60.048899
_cell_angle_alpha  90.321493
_cell_angle_beta   89.919497
_cell_angle_gamma 120.05656
loop_
_atom_site_label
_atom_site_type_symbol
_atom_site_fract_x
_atom_site_fract_y
_atom_site_fract_z
_atom_type_partial_charge
Li0 Li 0.34796 0.67295 0.0952 0.0
Li1 Li 0.36706 0.64922 0.061 0.0
Li2 Li 0.36739 0.7182 0.06163 0.0
Li3 Li 0.30162 0.64982 0.06104 0.0
C4 C 0.43742 0.72552 0.09122 0.0
N5 N 0.50876 0.77578 0.11597 0.0
C6 C 0.46567 0.71177 0.09615 0.0
C7 C 0.44585 0.76515 0.09856 0.0
C8 C 0.50144 0.73753 0.10878 0.0
C9 C 0.48197 0.79001 0.11113 0.0
C10 C 0.3154 0.57876 0.08299 0.0
C11 C 0.3008 0.51192 0.06777 0.0
N12 N 0.31292 0.50279 0.08735 0.0
C13 C 0.3274 0.5686 0.10302 0.0
C14 C 0.30166 0.5501 0.06527 0.0
C15 C 0.32601 0.53005 0.10487 0.0
C16 C 0.31432 0.66984 0.13777 0.0
N17 N 0.34817 0.6726 0.12705 0.0
C18 C 0.38049 0.67407 0.16183 0.0
C19 C 0.38072 0.67418 0.13856 0.0
C20 C 0.34619 0.6718 0.17337 0.0
C21 C 0.31271 0.66949 0.16102 0.0
H22 H 0.28856 0.66801 0.12822 0.0
H23 H 0.40664 0.67498 0.12974 0.0
C24 C 0.40065 0.61976 0.02759 0.0
N25 N 0.3956 0.62139 0.04995 0.0
C26 C 0.42086 0.59912 0.01903 0.0
C27 C 0.43026 0.58217 0.05663 0.0
C28 C 0.41042 0.60363 0.06447 0.0
C29 C 0.43566 0.57971 0.03363 0.0
H30 H 0.38897 0.63449 0.0164 0.0
H31 H 0.40675 0.60603 0.08218 0.0
C32 C 0.31004 0.72863 0.0901 0.0
N33 N 0.29535 0.78921 0.1084 0.0
C34 C 0.27581 0.73216 0.08296 0.0
C35 C 0.33644 0.75554 0.10676 0.0
C36 C 0.26902 0.7631 0.09235 0.0
C37 C 0.32858 0.78605 0.11575 0.0
C38 C 0.3255 0.6666 0.01852 0.0
C39 C 0.3242 0.69949 1.00771 0.0
C40 C 0.30451 0.6262 0.00928 0.0
C41 C 0.30135 0.69126 0.98794 0.0
C42 C 0.28195 0.61923 0.98951 0.0
N43 N 0.28083 0.65162 0.97935 0.0
C44 C 0.43608 0.79103 0.0441 0.0
C45 C 0.37611 0.79776 0.05023 0.0
C46 C 0.45855 0.83221 0.03619 0.0
N47 N 0.39574 0.77479 0.05107 0.0
C48 C 0.39752 0.83919 0.04268 0.0
C49 C 0.43931 0.85691 0.03555 0.0
H50 H 0.45082 0.77195 0.04476 0.0
H51 H 0.34373 0.78394 0.0552 0.0
C52 C 0.21877 0.58108 0.05697 0.0
N53 N 0.24468 0.62168 0.05097 0.0
C54 C 0.17706 0.5596 0.04976 0.0
C55 C 0.18937 0.62217 0.03037 0.0
C56 C 0.23071 0.64252 0.03813 0.0
C57 C 0.16181 0.58006 0.03616 0.0
H58 H 0.2304 0.5654 0.0675 0.0
H59 H 0.25175 0.67499 0.03384 0.0
O60 O 0.40231 0.70066 0.07882 0.0
O61 O 0.31701 0.61654 0.08078 0.0
O62 O 0.31713 0.69853 0.08101 0.0
O63 O 0.34733 0.67396 0.038 0.0
H64 H 0.45991 0.68141 0.0904 0.0
H65 H 0.42504 0.77685 0.09441 0.0
H66 H 0.52339 0.72714 0.11285 0.0
H67 H 0.48881 0.8207 0.11696 0.0
H68 H 0.29053 0.48957 0.05414 0.0
H69 H 0.33792 0.59034 0.11693 0.0
H70 H 0.29207 0.5574 0.0497 0.0
H71 H 0.33542 0.52186 0.12023 0.0
H72 H 0.40658 0.67504 0.17068 0.0
H73 H 0.28576 0.66794 0.16923 0.0
H74 H 0.42433 0.5978 1.00118 0.0
H75 H 0.44177 0.56811 0.06844 0.0
H76 H 0.25482 0.71137 0.07023 0.0
H77 H 0.3624 0.75261 0.1129 0.0
H78 H 0.24279 0.76634 0.08689 0.0
H79 H 0.34881 0.8071 0.12864 0.0
H80 H 0.34039 0.73097 0.0146 0.0
H81 H 0.30543 0.60047 0.01737 0.0
H82 H 0.29987 0.71636 0.97946 0.0
H83 H 0.26532 0.58806 0.98225 0.0
H84 H 0.49078 0.84478 0.03091 0.0
H85 H 0.38134 0.85696 0.04207 0.0
H86 H 0.15686 0.52747 0.05504 0.0
H87 H 0.1793 0.63917 0.01975 0.0
Li88 Li 0.65564 0.36529 0.56158 0.0
Li89 Li 0.72162 0.36621 0.56231 0.0
Li90 Li 0.65635 0.29732 0.56224 0.0
Li91 Li 0.6798 0.34395 0.59509 0.0
C92 C 0.69608 0.36221 0.51948 0.0
N93 N 0.73559 0.40402 0.48085 0.0
C94 C 0.70327 0.40275 0.51557 0.0
C95 C 0.70911 0.34302 0.50372 0.0
C96 C 0.72324 0.42333 0.49595 0.0
C97 C 0.72902 0.36465 0.48431 0.0
C98 C 0.73887 0.43922 0.58161 0.0
C99 C 0.81019 0.48674 0.59313 0.0
N100 N 0.80913 0.51854 0.58225 0.0
C101 C 0.73843 0.47244 0.57063 0.0
C102 C 0.77496 0.44646 0.59306 0.0
C103 C 0.77428 0.51229 0.57113 0.0
C104 C 0.6217 0.41897 0.56508 0.0
N105 N 0.62429 0.39054 0.55161 0.0
C106 C 0.58368 0.39974 0.52353 0.0
C107 C 0.60545 0.38028 0.53128 0.0
C108 C 0.58132 0.43004 0.53684 0.0
C109 C 0.60044 0.43937 0.55795 0.0
H110 H 0.63664 0.42615 0.58127 0.0
H111 H 0.60789 0.35743 0.52093 0.0
C112 C 0.80032 0.37373 0.55281 0.0
N113 N 0.77804 0.39393 0.55084 0.0
C114 C 0.84142 0.39217 0.5448 0.0
C115 C 0.83592 0.45178 0.53274 0.0
C116 C 0.7949 0.43208 0.5408 0.0
C117 C 0.85979 0.43187 0.53474 0.0
H118 H 0.78617 0.34324 0.56064 0.0
H119 H 0.77669 0.44747 0.53907 0.0
C120 C 0.58152 0.29704 0.57632 0.0
N121 N 0.4973 0.26205 0.56637 0.0
C122 C 0.55301 0.29213 0.59303 0.0
C123 C 0.56728 0.28429 0.55454 0.0
C124 C 0.51051 0.27431 0.58767 0.0
C125 C 0.52457 0.26664 0.54985 0.0
C126 C 0.71745 0.29963 0.59795 0.0
C127 C 0.6904 0.25812 0.60438 0.0
C128 C 0.75403 0.3246 0.61019 0.0
C129 C 0.70014 0.24244 0.62319 0.0
C130 C 0.76264 0.30778 0.62891 0.0
N131 N 0.73572 0.2674 0.63498 0.0
C132 C 0.64673 0.22941 0.53569 0.0
C133 C 0.59306 0.21067 0.5625 0.0
C134 C 0.62747 0.18809 0.52774 0.0
N135 N 0.62902 0.24002 0.55251 0.0
C136 C 0.57265 0.169 0.55504 0.0
C137 C 0.58969 0.15729 0.53732 0.0
H138 H 0.67589 0.25305 0.52847 0.0
H139 H 0.58023 0.21953 0.57631 0.0
C140 C 0.70304 0.37872 0.63874 0.0
N141 N 0.67831 0.34306 0.62692 0.0
C142 C 0.70232 0.37821 0.66199 0.0
C143 C 0.6502 0.30438 0.66055 0.0
C144 C 0.65184 0.30638 0.6373 0.0
C145 C 0.67575 0.34064 0.67324 0.0
H146 H 0.72312 0.4077 0.63014 0.0
H147 H 0.63213 0.27858 0.62749 0.0
O148 O 0.6766 0.34154 0.53864 0.0
O149 O 0.70404 0.39997 0.5813 0.0
O150 O 0.62327 0.31486 0.58126 0.0
O151 O 0.708 0.31586 0.57989 0.0
H152 H 0.69442 0.41862 0.52774 0.0
H153 H 0.70406 0.31181 0.50641 0.0
H154 H 0.72916 0.45479 0.49281 0.0
H155 H 0.73925 0.35013 0.47199 0.0
H156 H 0.8384 0.49269 0.6018 0.0
H157 H 0.71087 0.46749 0.56165 0.0
H158 H 0.77591 0.42115 0.60159 0.0
H159 H 0.77444 0.53822 0.56262 0.0
H160 H 0.56968 0.39185 0.50709 0.0
H161 H 0.59884 0.46208 0.56886 0.0
H162 H 0.85886 0.37584 0.54677 0.0
H163 H 0.84867 0.48213 0.5248 0.0
H164 H 0.56363 0.302 0.60995 0.0
H165 H 0.589 0.28803 0.54139 0.0
H166 H 0.48804 0.27027 0.60043 0.0
H167 H 0.5131 0.25664 0.53307 0.0
H168 H 0.66195 0.23838 0.59512 0.0
H169 H 0.77549 0.35665 0.60531 0.0
H170 H 0.67934 0.21046 0.62846 0.0
H171 H 0.79072 0.32682 0.63861 0.0
H172 H 0.64169 0.18051 0.51402 0.0
H173 H 0.54407 0.1461 0.56322 0.0
H174 H 0.72193 0.40712 0.67105 0.0
H175 H 0.6295 0.27464 0.66846 0.0
Li176 Li 0.36673 0.71979 0.45213 0.0
Li177 Li 0.34274 0.67136 0.4201 0.0
Li178 Li 0.29932 0.65202 0.45492 0.0
Li179 Li 0.36517 0.65014 0.45282 0.0
C180 C 0.29421 0.72206 0.43586 0.0
N181 N 0.25279 0.76708 0.43934 0.0
C182 C 0.2873 0.73967 0.4169 0.0
C183 C 0.27979 0.72706 0.45653 0.0
C184 C 0.26639 0.76242 0.41902 0.0
C185 C 0.25897 0.74998 0.45797 0.0
C186 C 0.425 0.71578 0.41602 0.0
C187 C 0.4581 0.70502 0.38397 0.0
N188 N 0.47444 0.74613 0.37845 0.0
C189 C 0.44234 0.75798 0.41014 0.0
C190 C 0.43315 0.68911 0.40295 0.0
C191 C 0.4672 0.77271 0.39105 0.0
C192 C 0.42568 0.7872 0.47819 0.0
N193 N 0.3971 0.77713 0.46158 0.0
C194 C 0.41194 0.84824 0.45983 0.0
C195 C 0.39035 0.80675 0.45212 0.0
C196 C 0.44101 0.85945 0.47734 0.0
C197 C 0.44797 0.8283 0.48642 0.0
H198 H 0.43077 0.76309 0.48522 0.0
H199 H 0.36816 0.79826 0.43862 0.0
C200 C 0.32646 0.63336 0.37708 0.0
N201 N 0.34075 0.67026 0.3883 0.0
C202 C 0.32617 0.63265 0.35381 0.0
C203 C 0.35476 0.70787 0.35406 0.0
C204 C 0.35428 0.70706 0.37731 0.0
C205 C 0.3407 0.67031 0.34195 0.0
H206 H 0.3152 0.60443 0.38618 0.0
H207 H 0.36517 0.73593 0.38666 0.0
C208 C 0.34097 0.67994 0.49824 0.0
N209 N 0.32828 0.68643 0.54316 0.0
C210 C 0.33663 0.64868 0.51296 0.0
C211 C 0.33907 0.71464 0.50645 0.0
C212 C 0.33016 0.65249 0.53559 0.0
C213 C 0.33258 0.71731 0.52918 0.0
C214 C 0.30633 0.57651 0.43599 0.0
C215 C 0.27447 0.54606 0.44924 0.0
C216 C 0.3321 0.56608 0.42366 0.0
C217 C 0.26913 0.5057 0.45006 0.0
C218 C 0.32581 0.52539 0.42497 0.0
N219 N 0.29472 0.4963 0.43803 0.0
C220 C 0.21216 0.60167 0.45069 0.0
C221 C 0.23334 0.62639 0.48755 0.0
C222 C 0.17008 0.57944 0.45721 0.0
N223 N 0.24281 0.62432 0.46585 0.0
C224 C 0.19175 0.60477 0.49479 0.0
C225 C 0.15942 0.58063 0.47958 0.0
H226 H 0.22053 0.60051 0.43353 0.0
H227 H 0.25779 0.64484 0.49935 0.0
C228 C 0.43452 0.63753 0.45852 0.0
N229 N 0.39343 0.62208 0.46372 0.0
C230 C 0.45589 0.61756 0.46619 0.0
C231 C 0.39231 0.5662 0.48446 0.0
C232 C 0.37226 0.58722 0.4765 0.0
C233 C 0.43475 0.58135 0.47938 0.0
H234 H 0.45078 0.66553 0.44849 0.0
H235 H 0.33965 0.57549 0.48045 0.0
O236 O 0.31479 0.69987 0.43403 0.0
O237 O 0.3999 0.70059 0.43439 0.0
O238 O 0.34762 0.67683 0.47603 0.0
O239 O 0.31225 0.61629 0.43511 0.0
H240 H 0.2981 0.73592 0.40074 0.0
H241 H 0.28443 0.71325 0.47129 0.0
H242 H 0.26095 0.77636 0.40451 0.0
H243 H 0.24767 0.75412 0.47388 0.0
H244 H 0.46442 0.68467 0.3736 0.0
H245 H 0.43635 0.77904 0.42008 0.0
H246 H 0.42007 0.6564 0.40732 0.0
H247 H 0.48063 0.80524 0.38622 0.0
H248 H 0.40537 0.87111 0.4524 0.0
H249 H 0.47059 0.83563 0.49966 0.0
H250 H 0.31429 0.60285 0.34521 0.0
H251 H 0.36666 0.73771 0.34569 0.0
H252 H 0.33801 0.62166 0.50703 0.0
H253 H 0.3424 0.73926 0.49545 0.0
H254 H 0.32664 0.62844 0.54713 0.0
H255 H 0.33096 0.74394 0.53571 0.0
H256 H 0.25435 0.5536 0.45897 0.0
H257 H 0.35699 0.58928 0.41339 0.0
H258 H 0.24473 0.48188 0.46033 0.0
H259 H 0.34569 0.51697 0.41563 0.0
H260 H 0.14626 0.56095 0.44494 0.0
H261 H 0.18499 0.60729 0.5121 0.0
H262 H 0.48876 0.63069 0.46211 0.0
H263 H 0.37456 0.53809 0.49429 0.0
Li264 Li 0.65764 0.29502 0.95333 0.0
Li265 Li 0.65445 0.35797 0.95458 0.0
Li266 Li 0.67547 0.3357 0.91979 0.0
Li267 Li 0.72286 0.36022 0.9535 0.0
C268 C 0.58008 0.28735 0.94283 0.0
N269 N 0.49838 0.24624 0.95815 0.0
C270 C 0.57197 0.28122 0.96566 0.0
C271 C 0.54667 0.27256 0.92779 0.0
C272 C 0.53044 0.26037 0.97307 0.0
C273 C 0.50557 0.25185 0.93586 0.0
C274 C 0.6943 0.36519 0.99511 0.0
C275 C 0.7306 0.43606 0.0096 0.0
N276 N 0.72364 0.42067 0.03068 0.0
C277 C 0.68758 0.3501 0.01691 0.0
C278 C 0.71603 0.40854 0.99141 0.0
C279 C 0.70262 0.37864 0.03467 0.0
C280 C 0.63934 0.23039 0.9845 0.0
N281 N 0.6306 0.23836 0.96372 0.0
C282 C 0.58269 0.1653 0.95746 0.0
C283 C 0.60279 0.20692 0.95023 0.0
C284 C 0.5908 0.15592 0.97893 0.0
C285 C 0.61961 0.18926 0.99251 0.0
H286 H 0.66156 0.25606 0.99487 0.0
H287 H 0.59644 0.2142 0.93377 0.0
C288 C 0.61523 0.40649 0.94961 0.0
N289 N 0.62496 0.38545 0.96484 0.0
C290 C 0.59409 0.4275 0.95615 0.0
C291 C 0.59284 0.40431 0.99387 0.0
C292 C 0.61357 0.38339 0.98656 0.0
C293 C 0.58301 0.4269 0.9786 0.0
H294 H 0.62416 0.40713 0.93238 0.0
H295 H 0.62034 0.36539 0.99826 0.0
C296 C 0.70614 0.27379 0.93237 0.0
N297 N 0.70085 0.19615 0.93093 0.0
C298 C 0.72654 0.26312 0.94846 0.0
C299 C 0.68324 0.24508 0.91546 0.0
C300 C 0.7234 0.22367 0.94748 0.0
C301 C 0.68094 0.20598 0.91503 0.0
C302 C 0.72541 0.42856 0.92413 0.0
C303 C 0.75046 0.4312 0.906 0.0
C304 C 0.724 0.46419 0.93104 0.0
C305 C 0.7736 0.4695 0.89501 0.0
C306 C 0.74762 0.50193 0.91962 0.0
N307 N 0.7717 0.50377 0.90198 0.0
C308 C 0.64558 0.34322 0.8776 0.0
C309 C 0.70172 0.32911 0.87649 0.0
C310 C 0.64415 0.34348 0.85432 0.0
N311 N 0.67404 0.33605 0.88812 0.0
C312 C 0.70136 0.32901 0.85325 0.0
C313 C 0.67225 0.33618 0.84183 0.0
H314 H 0.62393 0.34862 0.88731 0.0
H315 H 0.7243 0.3239 0.88532 0.0
C316 C 0.79016 0.37221 0.98073 0.0
N317 N 0.77988 0.38975 0.96378 0.0
C318 C 0.83113 0.39191 0.98906 0.0
C319 C 0.85009 0.44792 0.96268 0.0
C320 C 0.80882 0.42703 0.9548 0.0
C321 C 0.86186 0.4303 0.97997 0.0
H322 H 0.76643 0.34284 0.98782 0.0
H323 H 0.80006 0.44086 0.94162 0.0
O324 O 0.62044 0.3077 0.93509 0.0
O325 O 0.67972 0.33737 0.97764 0.0
O326 O 0.70792 0.31183 0.93338 0.0
O327 O 0.70215 0.39127 0.93501 0.0
H328 H 0.59738 0.29233 0.97756 0.0
H329 H 0.55248 0.27707 0.91006 0.0
H330 H 0.52371 0.25542 0.99069 0.0
H331 H 0.47939 0.24023 0.92441 0.0
H332 H 0.74744 0.46965 1.00696 0.0
H333 H 0.6708 0.31665 0.02008 0.0
H334 H 0.72166 0.42093 0.97472 0.0
H335 H 0.69758 0.36738 0.05163 0.0
H336 H 0.56133 0.14074 0.94623 0.0
H337 H 0.62644 0.18379 0.00928 0.0
H338 H 0.58711 0.44462 0.94388 0.0
H339 H 0.58412 0.40243 0.01124 0.0
H340 H 0.74424 0.28488 0.96169 0.0
H341 H 0.66682 0.25261 0.90303 0.0
H342 H 0.73881 0.21489 0.95991 0.0
H343 H 0.6631 0.18334 0.90214 0.0
H344 H 0.75254 0.40416 0.9007 0.0
H345 H 0.70503 0.4628 0.94514 0.0
H346 H 0.79318 0.47202 0.88098 0.0
H347 H 0.74685 0.52976 0.9248 0.0
H348 H 0.62095 0.34875 0.84621 0.0
H349 H 0.72402 0.32391 0.84431 0.0
H350 H 0.83873 0.37691 1.00228 0.0
H351 H 0.8724 0.47783 0.95544 0.0
C352 C 0.30846 0.64389 0.20958 0.0
C353 C 0.34527 0.6716 0.19814 0.0
C354 C 0.30721 0.64327 0.23296 0.0
C355 C 0.34359 0.67116 0.24521 0.0
C356 C 0.3808 0.69929 0.23377 0.0
C357 C 0.38122 0.6991 0.21038 0.0
C358 C 0.26701 0.6126 0.24455 0.0
C359 C 0.42015 0.72972 0.24623 0.0
C360 C 0.33025 0.6962 0.30518 0.0
C361 C 0.34128 0.67043 0.31713 0.0
C362 C 0.33097 0.69683 0.2818 0.0
C363 C 0.34273 0.67087 0.27002 0.0
C364 C 0.35373 0.64466 0.28194 0.0
C365 C 0.35301 0.64486 0.30533 0.0
C366 C 0.31908 0.72525 0.26969 0.0
C367 C 0.36641 0.61649 0.26999 0.0
H368 H 0.28073 0.62218 0.20023 0.0
H369 H 0.40961 0.72096 0.20165 0.0
H370 H 0.27259 0.59147 0.25535 0.0
H371 H 0.25632 0.62982 0.25549 0.0
H372 H 0.24146 0.59307 0.23261 0.0
H373 H 0.44649 0.74957 0.23486 0.0
H374 H 0.41379 0.75053 0.25698 0.0
H375 H 0.43013 0.71226 0.2573 0.0
H376 H 0.32055 0.7156 0.31411 0.0
H377 H 0.3622 0.62532 0.31438 0.0
H378 H 0.29167 0.70629 0.25871 0.0
H379 H 0.34534 0.74725 0.25888 0.0
H380 H 0.31115 0.74388 0.28129 0.0
H381 H 0.34092 0.59482 0.25858 0.0
H382 H 0.37345 0.59752 0.28169 0.0
H383 H 0.3946 0.6357 0.25964 0.0
C384 C 0.71179 0.36151 0.71045 0.0
C385 C 0.67461 0.33944 0.69804 0.0
C386 C 0.71121 0.36106 0.73383 0.0
C387 C 0.67252 0.3378 0.74514 0.0
C388 C 0.63489 0.31531 0.73276 0.0
C389 C 0.63637 0.31646 0.70938 0.0
C390 C 0.75203 0.38539 0.74644 0.0
C391 C 0.59303 0.29014 0.74421 0.0
C392 C 0.67573 0.30579 0.80489 0.0
C393 C 0.67139 0.33611 0.81704 0.0
C394 C 0.67583 0.30579 0.78151 0.0
C395 C 0.67152 0.33688 0.76995 0.0
C396 C 0.6668 0.36738 0.7821 0.0
C397 C 0.66675 0.36661 0.80549 0.0
C398 C 0.6807 0.27258 0.76916 0.0
C399 C 0.66231 0.40115 0.77038 0.0
H400 H 0.74154 0.37883 0.70186 0.0
H401 H 0.60743 0.2998 0.69996 0.0
H402 H 0.75057 0.40863 0.75772 0.0
H403 H 0.75724 0.36373 0.75698 0.0
H404 H 0.77938 0.40231 0.73516 0.0
H405 H 0.56669 0.27408 0.73218 0.0
H406 H 0.59351 0.26609 0.75509 0.0
H407 H 0.58692 0.31104 0.75504 0.0
H408 H 0.67871 0.28175 0.81369 0.0
H409 H 0.66388 0.39043 0.81475 0.0
H410 H 0.70917 0.28766 0.75857 0.0
H411 H 0.65345 0.25446 0.75795 0.0
H412 H 0.68326 0.25034 0.78062 0.0
H413 H 0.69056 0.42059 0.76011 0.0
H414 H 0.65813 0.42208 0.78223 0.0
H415 H 0.63497 0.38665 0.75892 0.0
C416 C 0.48866 0.57589 0.009 0.0
C417 C 0.45677 0.55714 0.02496 0.0
C418 C 0.50949 0.55522 1.00102 0.0
C419 C 0.49769 0.51458 0.00896 0.0
C420 C 0.46509 0.49527 0.02486 0.0
C421 C 0.44523 0.51692 0.03278 0.0
C422 C 0.54449 0.5771 0.98433 0.0
C423 C 0.45119 0.45175 0.0335 0.0
C424 C 0.52678 0.44588 0.97438 0.0
C425 C 0.56143 0.44974 0.98614 0.0
C426 C 0.50565 0.46672 0.98164 0.0
C427 C 0.5199 0.49249 1.00093 0.0
C428 C 0.5552 0.49689 0.0127 0.0
C429 C 0.57536 0.47524 1.00524 0.0
C430 C 0.46779 0.46079 0.96881 0.0
C431 C 0.57173 0.52452 0.03316 0.0
H432 H 0.4979 0.60715 1.00308 0.0
H433 H 0.42027 0.50218 0.04495 0.0
H434 H 0.57409 0.58078 0.99126 0.0
H435 H 0.53723 0.55778 0.96896 0.0
H436 H 0.54977 0.60863 0.97977 0.0
H437 H 0.42456 0.4407 0.04535 0.0
H438 H 0.44157 0.42912 0.01941 0.0
H439 H 0.47772 0.45144 0.04206 0.0
H440 H 0.5157 0.42587 0.95972 0.0
H441 H 0.60244 0.47867 0.01422 0.0
H442 H 0.473 0.49159 0.96295 0.0
H443 H 0.43993 0.44737 0.97987 0.0
H444 H 0.46069 0.43965 0.95417 0.0
H445 H 0.5797 0.55708 0.02906 0.0
H446 H 0.60008 0.52532 0.04011 0.0
H447 H 0.54717 0.51303 0.04622 0.0
C448 C 0.08285 0.55584 0.47404 0.0
C449 C 0.11497 0.55696 0.48711 0.0
C450 C 0.04095 0.5345 0.48127 0.0
C451 C 0.03091 0.51389 0.5021 0.0
C452 C 0.06307 0.51446 0.51526 0.0
C453 C 0.10465 0.53587 0.50758 0.0
C454 C 1.00751 0.53455 0.46676 0.0
C455 C 0.05363 0.49282 0.53756 0.0
C456 C 0.93124 0.4953 0.53103 0.0
C457 C 0.90367 0.45264 0.52647 0.0
C458 C 0.97273 0.51556 0.52324 0.0
C459 C 0.98694 0.49267 0.51044 0.0
C460 C 0.95925 0.44959 0.50575 0.0
C461 C 0.91797 0.43003 0.51391 0.0
C462 C 1.00142 0.56142 0.52879 0.0
C463 C 0.97316 0.42425 0.49201 0.0
H464 H 0.09058 0.57243 0.45833 0.0
H465 H 0.12914 0.53595 0.51761 0.0
H466 H 0.98228 0.50182 0.46334 0.0
H467 H 0.99291 0.55058 0.4756 0.0
H468 H 0.02021 0.55064 0.45064 0.0
H469 H 0.08211 0.49569 0.54561 0.0
H470 H 0.03976 0.50655 0.54888 0.0
H471 H 0.03017 0.45898 0.53554 0.0
H472 H 0.92046 0.51276 0.54097 0.0
H473 H 0.89662 0.39716 0.51015 0.0
H474 H 0.01311 0.5799 0.51325 0.0
H475 H 0.02918 0.56543 0.53814 0.0
H476 H 0.98551 0.5747 0.53893 0.0
H477 H 0.98362 0.43864 0.47535 0.0
H478 H 0.94776 0.3911 0.4898 0.0
H479 H 1.00037 0.42449 0.50008 0.0
C480 C 0.52696 0.08391 0.98158 0.0
C481 C 0.5691 0.11176 0.98715 0.0
C482 C 0.50612 0.04226 0.98918 0.0
C483 C 0.52764 0.02813 1.00298 0.0
C484 C 0.57005 0.05601 0.00877 0.0
C485 C 0.59034 0.09733 1.00067 0.0
C486 C 0.46095 0.0134 0.9825 0.0
C487 C 0.59398 0.04221 0.02359 0.0
C488 C 0.46132 0.93309 0.03933 0.0
C489 C 0.46252 0.90084 0.02737 0.0
C490 C 0.4828 0.97473 0.03173 0.0
C491 C 0.50559 0.98426 0.01153 0.0
C492 C 0.5069 0.9518 0.99937 0.0
C493 C 0.48556 0.91051 1.00752 0.0
C494 C 0.48113 0.00854 0.04532 0.0
C495 C 0.53035 0.96059 0.97761 0.0
H496 H 0.50996 0.09479 0.9715 0.0
H497 H 0.62305 0.11825 1.00479 0.0
H498 H 0.45767 0.98491 0.97414 0.0
H499 H 0.44078 1.00283 0.99753 0.0
H500 H 0.4491 0.02882 0.97109 0.0
H501 H 0.62662 0.06788 0.0268 0.0
H502 H 0.5776 0.0312 0.03978 0.0
H503 H 0.59513 0.01537 0.01582 0.0
H504 H 0.44392 0.92578 0.05481 0.0
H505 H 0.48619 0.88558 0.99813 0.0
H506 H 0.46675 0.02339 0.03537 0.0
H507 H 0.5134 0.03356 0.04974 0.0
H508 H 0.46279 0.99609 0.0609 0.0
H509 H 0.51736 0.97377 0.96549 0.0
H510 H 0.52846 0.9319 0.97024 0.0
H511 H 0.56387 0.98444 0.98016 0.0
C512 C 0.52092 0.43008 0.51758 0.0
C513 C 0.55966 0.45227 0.52859 0.0
C514 C 0.50039 0.45082 0.5095 0.0
C515 C 0.51914 0.49485 0.51241 0.0
C516 C 0.55825 0.51744 0.52349 0.0
C517 C 0.57799 0.49586 0.53148 0.0
C518 C 0.45856 0.42561 0.49792 0.0
C519 C 0.57936 0.56444 0.52678 0.0
C520 C 0.48473 0.55421 0.47423 0.0
C521 C 0.45674 0.55953 0.48788 0.0
C522 C 0.50536 0.53335 0.48201 0.0
C523 C 0.49772 0.51727 0.50395 0.0
C524 C 0.46958 0.52258 0.51782 0.0
C525 C 0.44954 0.54372 0.50965 0.0
C526 C 0.53517 0.52831 0.46673 0.0
C527 C 0.46066 0.50593 0.54132 0.0
H528 H 0.50639 0.39632 0.51552 0.0
H529 H 0.6082 0.51327 0.5397 0.0
H530 H 0.43424 0.42932 0.50689 0.0
H531 H 0.46044 0.43751 0.48077 0.0
H532 H 0.44827 0.39161 0.49695 0.0
H533 H 0.60976 0.57734 0.53575 0.0
H534 H 0.5851 0.58019 0.5104 0.0
H535 H 0.55853 0.57248 0.53637 0.0
H536 H 0.49007 0.56583 0.4573 0.0
H537 H 0.42848 0.54825 0.52042 0.0
H538 H 0.52414 0.49446 0.4641 0.0
H539 H 0.56674 0.5426 0.47449 0.0
H540 H 0.53814 0.54314 0.45025 0.0
H541 H 0.44817 0.47149 0.54115 0.0
H542 H 0.43768 0.51234 0.5499 0.0
H543 H 0.49016 0.52042 0.55116 0.0
C544 C 0.09793 0.51523 0.02177 0.0
C545 C 0.11749 0.55771 0.02815 0.0
C546 C 0.0562 0.49379 0.01421 0.0
C547 C 0.03351 0.5154 0.01273 0.0
C548 C 0.053 0.55826 0.01907 0.0
C549 C 0.09461 0.5788 0.02681 0.0
C550 C 0.03645 0.44802 1.0077 0.0
C551 C 0.02991 0.58247 0.01763 0.0
C552 C 0.93972 0.47203 0.9736 0.0
C553 C 0.90587 0.45185 0.98841 0.0
C554 C 0.98135 0.49288 0.98129 0.0
C555 C 0.98948 0.4933 1.00435 0.0
C556 C 0.95556 0.47276 0.01939 0.0
C557 C 0.9142 0.45245 0.01126 0.0
C558 C 0.01665 0.51452 0.96473 0.0
C559 C 0.96297 0.47238 0.04409 0.0
H560 H 0.11544 0.49876 0.02239 0.0
H561 H 0.10909 0.61138 0.03203 0.0
H562 H 1.00752 0.42898 0.01756 0.0
H563 H 0.02712 0.44387 0.9899 0.0
H564 H 0.058 0.43548 0.01032 0.0
H565 H 0.04963 0.61572 0.02303 0.0
H566 H 0.01945 0.58193 1.00025 0.0
H567 H 1.00138 0.56737 0.02818 0.0
H568 H 0.9337 0.47119 0.95589 0.0
H569 H 0.88833 0.4375 0.02288 0.0
H570 H 0.03754 0.5009 0.96548 0.0
H571 H 0.03597 0.54837 0.96901 0.0
H572 H 1.00504 0.51162 0.94738 0.0
H573 H 0.98306 0.45837 0.04725 0.0
H574 H 0.93324 0.45433 0.05353 0.0
H575 H 0.97993 0.50502 0.05066 0.0
C576 C 0.52441 0.09111 0.52592 0.0
C577 C 0.56811 0.1133 0.5288 0.0
C578 C 0.50363 0.04977 0.51762 0.0
C579 C 0.5271 0.03007 0.5121 0.0
C580 C 0.57119 0.0522 0.51505 0.0
C581 C 0.59117 0.09355 0.52335 0.0
C582 C 0.45659 0.02729 0.51461 0.0
C583 C 0.59727 0.03217 0.50947 0.0
C584 C 0.46956 0.91071 0.50922 0.0
C585 C 0.4636 0.90323 0.48621 0.0
C586 C 0.49037 0.9518 0.51787 0.0
C587 C 0.50549 0.98632 0.50316 0.0
C588 C 0.49969 0.97903 0.47991 0.0
C589 C 0.47888 0.93761 0.47172 0.0
C590 C 0.49588 0.95827 0.54276 0.0
C591 C 0.51543 0.01502 0.46369 0.0
H592 H 0.50645 0.10636 0.52982 0.0
H593 H 0.62487 0.11029 0.5258 0.0
H594 H 0.44849 0.01833 0.49687 0.0
H595 H 0.44169 0.99786 0.52443 0.0
H596 H 0.4429 0.04689 0.51987 0.0
H597 H 0.63122 0.05361 0.51274 0.0
H598 H 0.58653 1.00324 0.51943 0.0
H599 H 0.59312 0.02273 0.49166 0.0
H600 H 0.45733 0.88435 0.52056 0.0
H601 H 0.47494 0.93215 0.45391 0.0
H602 H 0.47994 0.97529 0.54877 0.0
H603 H 0.52967 0.97799 0.54692 0.0
H604 H 0.48298 0.92813 0.5519 0.0
H605 H 0.50086 0.03448 0.46739 0.0
H606 H 0.50838 1.00405 0.44612 0.0
H607 H 0.54986 0.03563 0.46553 0.0
loop_
_geom_bond_atom_site_label_1
_geom_bond_atom_site_label_2
_geom_bond_distance
_geom_bond_site_symmetry_2
_ccdc_geom_bond_type
Li0 N17 1.990 . S
Li0 O60 1.956 . S
Li0 O61 1.970 . S
Li0 O62 1.961 . S
Li1 N25 1.990 . S
Li1 O60 1.970 . S
Li1 O61 1.956 . S
Li1 O63 1.961 . S
Li2 N47 1.990 . S
Li2 O60 1.961 . S
Li2 O62 1.956 . S
Li2 O63 1.970 . S
Li3 N53 1.990 . S
Li3 O61 1.961 . S
Li3 O62 1.970 . S
Li3 O63 1.956 . S
C4 C6 1.348 . S
C4 C7 1.356 . S
C4 O60 1.325 . S
N5 C8 1.314 . S
N5 C9 1.279 . S
C6 C4 1.348 . S
C6 C8 1.353 . S
C6 H64 0.929 . S
C7 C4 1.356 . S
C7 C9 1.358 . S
C7 H65 0.930 . S
C8 N5 1.314 . S
C8 C6 1.353 . S
C8 H66 0.930 . S
C9 N5 1.279 . S
C9 C7 1.358 . S
C9 H67 0.930 . S
C10 C13 1.348 . S
C10 C14 1.356 . S
C10 O61 1.325 . S
C11 N12 1.279 . S
C11 C14 1.358 . S
C11 H68 0.930 . S
N12 C11 1.279 . S
N12 C15 1.314 . S
C13 C10 1.348 . S
C13 C15 1.353 . S
C13 H69 0.929 . S
C14 C10 1.356 . S
C14 C11 1.358 . S
C14 H70 0.930 . S
C15 N12 1.314 . S
C15 C13 1.353 . S
C15 H71 0.930 . S
C16 N17 1.314 . S
C16 C21 1.353 . S
C16 H22 0.930 . S
N17 Li0 1.990 . S
N17 C16 1.314 . S
N17 C19 1.279 . S
C18 C19 1.358 . S
C18 C20 1.356 . S
C18 H72 0.930 . S
C19 N17 1.279 . S
C19 C18 1.358 . S
C19 H23 0.930 . S
C20 C18 1.356 . S
C20 C21 1.348 . S
C21 C16 1.353 . S
C21 C20 1.348 . S
C21 H73 0.929 . S
H22 C16 0.930 . S
H23 C19 0.930 . S
C24 N25 1.314 . S
C24 C26 1.353 . S
C24 H30 0.930 . S
N25 Li1 1.990 . S
N25 C24 1.314 . S
N25 C28 1.279 . S
C26 C24 1.353 . S
C26 C29 1.348 . S
C26 H74 0.929 . S
C27 C28 1.358 . S
C27 C29 1.356 . S
C27 H75 0.930 . S
C28 N25 1.279 . S
C28 C27 1.358 . S
C28 H31 0.930 . S
C29 C26 1.348 . S
C29 C27 1.356 . S
H30 C24 0.930 . S
H31 C28 0.930 . S
C32 C34 1.348 . S
C32 C35 1.356 . S
C32 O62 1.325 . S
N33 C36 1.314 . S
N33 C37 1.279 . S
C34 C32 1.348 . S
C34 C36 1.353 . S
C34 H76 0.929 . S
C35 C32 1.356 . S
C35 C37 1.358 . S
C35 H77 0.930 . S
C36 N33 1.314 . S
C36 C34 1.353 . S
C36 H78 0.930 . S
C37 N33 1.279 . S
C37 C35 1.358 . S
C37 H79 0.930 . S
C38 C39 1.343 1_554 S
C38 C40 1.361 . S
C38 O63 1.325 . S
C39 C38 1.343 1_556 S
C39 C41 1.361 . S
C39 H80 0.926 1_556 S
C40 C38 1.361 . S
C40 C42 1.349 1_554 S
C40 H81 0.934 . S
C41 C39 1.361 . S
C41 N43 1.314 . S
C41 H82 0.930 . S
C42 C40 1.349 1_556 S
C42 N43 1.279 . S
C42 H83 0.930 . S
N43 C41 1.314 . S
N43 C42 1.279 . S
C44 C46 1.353 . S
C44 N47 1.314 . S
C44 H50 0.930 . S
C45 N47 1.279 . S
C45 C48 1.358 . S
C45 H51 0.930 . S
C46 C44 1.353 . S
C46 C49 1.348 . S
C46 H84 0.929 . S
N47 Li2 1.990 . S
N47 C44 1.314 . S
N47 C45 1.279 . S
C48 C45 1.358 . S
C48 C49 1.356 . S
C48 H85 0.930 . S
C49 C46 1.348 . S
C49 C48 1.356 . S
H50 C44 0.930 . S
H51 C45 0.930 . S
C52 N53 1.314 . S
C52 C54 1.353 . S
C52 H58 0.930 . S
N53 Li3 1.990 . S
N53 C52 1.314 . S
N53 C56 1.279 . S
C54 C52 1.353 . S
C54 C57 1.348 . S
C54 H86 0.929 . S
C55 C56 1.358 . S
C55 C57 1.356 . S
C55 H87 0.881 1_554 S
C56 N53 1.279 . S
C56 C55 1.358 . S
C56 H59 0.930 . S
C57 C54 1.348 . S
C57 C55 1.356 . S
H58 C52 0.930 . S
H59 C56 0.930 . S
O60 Li0 1.956 . S
O60 Li1 1.970 . S
O60 Li2 1.961 . S
O60 C4 1.325 . S
O61 Li0 1.970 . S
O61 Li1 1.956 . S
O61 Li3 1.961 . S
O61 C10 1.325 . S
O62 Li0 1.961 . S
O62 Li2 1.956 . S
O62 Li3 1.970 . S
O62 C32 1.325 . S
O63 Li1 1.961 . S
O63 Li2 1.970 . S
O63 Li3 1.956 . S
O63 C38 1.325 . S
H64 C6 0.929 . S
H65 C7 0.930 . S
H66 C8 0.930 . S
H67 C9 0.930 . S
H68 C11 0.930 . S
H69 C13 0.929 . S
H70 C14 0.930 . S
H71 C15 0.930 . S
H72 C18 0.930 . S
H73 C21 0.929 . S
H74 C26 0.929 . S
H75 C27 0.930 . S
H76 C34 0.929 . S
H77 C35 0.930 . S
H78 C36 0.930 . S
H79 C37 0.930 . S
H80 C39 0.926 1_554 S
H81 C40 0.934 . S
H82 C41 0.930 . S
H83 C42 0.930 . S
H84 C46 0.929 . S
H85 C48 0.930 . S
H86 C54 0.929 . S
H87 C55 0.881 1_556 S
Li88 N105 1.990 . S
Li88 O148 1.956 . S
Li88 O149 1.970 . S
Li88 O150 1.961 . S
Li89 N113 1.990 . S
Li89 O148 1.970 . S
Li89 O149 1.956 . S
Li89 O151 1.961 . S
Li90 N135 1.990 . S
Li90 O148 1.961 . S
Li90 O150 1.956 . S
Li90 O151 1.970 . S
Li91 N141 1.990 . S
Li91 O149 1.961 . S
Li91 O150 1.970 . S
Li91 O151 1.956 . S
C92 C94 1.348 . S
C92 C95 1.356 . S
C92 O148 1.325 . S
N93 C96 1.314 . S
N93 C97 1.279 . S
C94 C92 1.348 . S
C94 C96 1.353 . S
C94 H152 0.929 . S
C95 C92 1.356 . S
C95 C97 1.358 . S
C95 H153 0.930 . S
C96 N93 1.314 . S
C96 C94 1.353 . S
C96 H154 0.930 . S
C97 N93 1.279 . S
C97 C95 1.358 . S
C97 H155 0.930 . S
C98 C101 1.348 . S
C98 C102 1.356 . S
C98 O149 1.325 . S
C99 N100 1.279 . S
C99 C102 1.358 . S
C99 H156 0.930 . S
N100 C99 1.279 . S
N100 C103 1.314 . S
C101 C98 1.348 . S
C101 C103 1.353 . S
C101 H157 0.929 . S
C102 C98 1.356 . S
C102 C99 1.358 . S
C102 H158 0.930 . S
C103 N100 1.314 . S
C103 C101 1.353 . S
C103 H159 0.930 . S
C104 N105 1.314 . S
C104 C109 1.353 . S
C104 H110 0.930 . S
N105 Li88 1.990 . S
N105 C104 1.314 . S
N105 C107 1.279 . S
C106 C107 1.358 . S
C106 C108 1.356 . S
C106 H160 0.930 . S
C107 N105 1.279 . S
C107 C106 1.358 . S
C107 H111 0.930 . S
C108 C106 1.356 . S
C108 C109 1.348 . S
C109 C104 1.353 . S
C109 C108 1.348 . S
C109 H161 0.929 . S
H110 C104 0.930 . S
H111 C107 0.930 . S
C112 N113 1.314 . S
C112 C114 1.353 . S
C112 H118 0.930 . S
N113 Li89 1.990 . S
N113 C112 1.314 . S
N113 C116 1.279 . S
C114 C112 1.353 . S
C114 C117 1.348 . S
C114 H162 0.929 . S
C115 C116 1.358 . S
C115 C117 1.356 . S
C115 H163 0.930 . S
C116 N113 1.279 . S
C116 C115 1.358 . S
C116 H119 0.930 . S
C117 C114 1.348 . S
C117 C115 1.356 . S
H118 C112 0.930 . S
H119 C116 0.930 . S
C120 C122 1.348 . S
C120 C123 1.356 . S
C120 O150 1.325 . S
N121 C124 1.314 . S
N121 C125 1.279 . S
C122 C120 1.348 . S
C122 C124 1.353 . S
C122 H164 0.929 . S
C123 C120 1.356 . S
C123 C125 1.358 . S
C123 H165 0.930 . S
C124 N121 1.314 . S
C124 C122 1.353 . S
C124 H166 0.930 . S
C125 N121 1.279 . S
C125 C123 1.358 . S
C125 H167 0.930 . S
C126 C127 1.348 . S
C126 C128 1.356 . S
C126 O151 1.325 . S
C127 C126 1.348 . S
C127 C129 1.353 . S
C127 H168 0.929 . S
C128 C126 1.356 . S
C128 C130 1.358 . S
C128 H169 0.930 . S
C129 C127 1.353 . S
C129 N131 1.314 . S
C129 H170 0.930 . S
C130 C128 1.358 . S
C130 N131 1.279 . S
C130 H171 0.930 . S
N131 C129 1.314 . S
N131 C130 1.279 . S
C132 C134 1.353 . S
C132 N135 1.314 . S
C132 H138 0.930 . S
C133 N135 1.279 . S
C133 C136 1.358 . S
C133 H139 0.930 . S
C134 C132 1.353 . S
C134 C137 1.348 . S
C134 H172 0.929 . S
N135 Li90 1.990 . S
N135 C132 1.314 . S
N135 C133 1.279 . S
C136 C133 1.358 . S
C136 C137 1.356 . S
C136 H173 0.930 . S
C137 C134 1.348 . S
C137 C136 1.356 . S
H138 C132 0.930 . S
H139 C133 0.930 . S
C140 N141 1.314 . S
C140 C142 1.353 . S
C140 H146 0.930 . S
N141 Li91 1.990 . S
N141 C140 1.314 . S
N141 C144 1.279 . S
C142 C140 1.353 . S
C142 C145 1.348 . S
C142 H174 0.929 . S
C143 C144 1.358 . S
C143 C145 1.356 . S
C143 H175 0.930 . S
C144 N141 1.279 . S
C144 C143 1.358 . S
C144 H147 0.930 . S
C145 C142 1.348 . S
C145 C143 1.356 . S
H146 C140 0.930 . S
H147 C144 0.930 . S
O148 Li88 1.956 . S
O148 Li89 1.970 . S
O148 Li90 1.961 . S
O148 C92 1.325 . S
O149 Li88 1.970 . S
O149 Li89 1.956 . S
O149 Li91 1.961 . S
O149 C98 1.325 . S
O150 Li88 1.961 . S
O150 Li90 1.956 . S
O150 Li91 1.970 . S
O150 C120 1.325 . S
O151 Li89 1.961 . S
O151 Li90 1.970 . S
O151 Li91 1.956 . S
O151 C126 1.325 . S
H152 C94 0.929 . S
H153 C95 0.930 . S
H154 C96 0.930 . S
H155 C97 0.930 . S
H156 C99 0.930 . S
H157 C101 0.929 . S
H158 C102 0.930 . S
H159 C103 0.930 . S
H160 C106 0.930 . S
H161 C109 0.929 . S
H162 C114 0.929 . S
H163 C115 0.930 . S
H164 C122 0.929 . S
H165 C123 0.930 . S
H166 C124 0.930 . S
H167 C125 0.930 . S
H168 C127 0.929 . S
H169 C128 0.930 . S
H170 C129 0.930 . S
H171 C130 0.930 . S
H172 C134 0.929 . S
H173 C136 0.930 . S
H174 C142 0.929 . S
H175 C143 0.930 . S
Li176 N193 1.990 . S
Li176 O236 1.956 . S
Li176 O237 1.970 . S
Li176 O238 1.961 . S
Li177 N201 1.990 . S
Li177 O236 1.970 . S
Li177 O237 1.956 . S
Li177 O239 1.961 . S
Li178 N223 1.990 . S
Li178 O236 1.961 . S
Li178 O238 1.956 . S
Li178 O239 1.970 . S
Li179 N229 1.990 . S
Li179 O237 1.961 . S
Li179 O238 1.970 . S
Li179 O239 1.956 . S
C180 C182 1.348 . S
C180 C183 1.356 . S
C180 O236 1.325 . S
N181 C184 1.314 . S
N181 C185 1.279 . S
C182 C180 1.348 . S
C182 C184 1.353 . S
C182 H240 0.929 . S
C183 C180 1.356 . S
C183 C185 1.358 . S
C183 H241 0.930 . S
C184 N181 1.314 . S
C184 C182 1.353 . S
C184 H242 0.930 . S
C185 N181 1.279 . S
C185 C183 1.358 . S
C185 H243 0.930 . S
C186 C189 1.348 . S
C186 C190 1.356 . S
C186 O237 1.325 . S
C187 N188 1.279 . S
C187 C190 1.358 . S
C187 H244 0.930 . S
N188 C187 1.279 . S
N188 C191 1.314 . S
C189 C186 1.348 . S
C189 C191 1.353 . S
C189 H245 0.929 . S
C190 C186 1.356 . S
C190 C187 1.358 . S
C190 H246 0.930 . S
C191 N188 1.314 . S
C191 C189 1.353 . S
C191 H247 0.930 . S
C192 N193 1.314 . S
C192 C197 1.353 . S
C192 H198 0.930 . S
N193 Li176 1.990 . S
N193 C192 1.314 . S
N193 C195 1.279 . S
C194 C195 1.358 . S
C194 C196 1.356 . S
C194 H248 0.930 . S
C195 N193 1.279 . S
C195 C194 1.358 . S
C195 H199 0.930 . S
C196 C194 1.356 . S
C196 C197 1.348 . S
C197 C192 1.353 . S
C197 C196 1.348 . S
C197 H249 0.929 . S
H198 C192 0.930 . S
H199 C195 0.930 . S
C200 N201 1.314 . S
C200 C202 1.353 . S
C200 H206 0.930 . S
N201 Li177 1.990 . S
N201 C200 1.314 . S
N201 C204 1.279 . S
C202 C200 1.353 . S
C202 C205 1.348 . S
C202 H250 0.929 . S
C203 C204 1.358 . S
C203 C205 1.356 . S
C203 H251 0.930 . S
C204 N201 1.279 . S
C204 C203 1.358 . S
C204 H207 0.930 . S
C205 C202 1.348 . S
C205 C203 1.356 . S
H206 C200 0.930 . S
H207 C204 0.930 . S
C208 C210 1.348 . S
C208 C211 1.356 . S
C208 O238 1.325 . S
N209 C212 1.314 . S
N209 C213 1.279 . S
C210 C208 1.348 . S
C210 C212 1.353 . S
C210 H252 0.929 . S
C211 C208 1.356 . S
C211 C213 1.358 . S
C211 H253 0.930 . S
C212 N209 1.314 . S
C212 C210 1.353 . S
C212 H254 0.930 . S
C213 N209 1.279 . S
C213 C211 1.358 . S
C213 H255 0.930 . S
C214 C215 1.348 . S
C214 C216 1.356 . S
C214 O239 1.325 . S
C215 C214 1.348 . S
C215 C217 1.353 . S
C215 H256 0.929 . S
C216 C214 1.356 . S
C216 C218 1.358 . S
C216 H257 0.930 . S
C217 C215 1.353 . S
C217 N219 1.314 . S
C217 H258 0.930 . S
C218 C216 1.358 . S
C218 N219 1.279 . S
C218 H259 0.930 . S
N219 C217 1.314 . S
N219 C218 1.279 . S
C220 C222 1.353 . S
C220 N223 1.314 . S
C220 H226 0.930 . S
C221 N223 1.279 . S
C221 C224 1.358 . S
C221 H227 0.930 . S
C222 C220 1.353 . S
C222 C225 1.348 . S
C222 H260 0.929 . S
N223 Li178 1.990 . S
N223 C220 1.314 . S
N223 C221 1.279 . S
C224 C221 1.358 . S
C224 C225 1.356 . S
C224 H261 0.930 . S
C225 C222 1.348 . S
C225 C224 1.356 . S
H226 C220 0.930 . S
H227 C221 0.930 . S
C228 N229 1.314 . S
C228 C230 1.353 . S
C228 H234 0.930 . S
N229 Li179 1.990 . S
N229 C228 1.314 . S
N229 C232 1.279 . S
C230 C228 1.353 . S
C230 C233 1.348 . S
C230 H262 0.929 . S
C231 C232 1.358 . S
C231 C233 1.356 . S
C231 H263 0.930 . S
C232 N229 1.279 . S
C232 C231 1.358 . S
C232 H235 0.930 . S
C233 C230 1.348 . S
C233 C231 1.356 . S
H234 C228 0.930 . S
H235 C232 0.930 . S
O236 Li176 1.956 . S
O236 Li177 1.970 . S
O236 Li178 1.961 . S
O236 C180 1.325 . S
O237 Li176 1.970 . S
O237 Li177 1.956 . S
O237 Li179 1.961 . S
O237 C186 1.325 . S
O238 Li176 1.961 . S
O238 Li178 1.956 . S
O238 Li179 1.970 . S
O238 C208 1.325 . S
O239 Li177 1.961 . S
O239 Li178 1.970 . S
O239 Li179 1.956 . S
O239 C214 1.325 . S
H240 C182 0.929 . S
H241 C183 0.930 . S
H242 C184 0.930 . S
H243 C185 0.930 . S
H244 C187 0.930 . S
H245 C189 0.929 . S
H246 C190 0.930 . S
H247 C191 0.930 . S
H248 C194 0.930 . S
H249 C197 0.929 . S
H250 C202 0.929 . S
H251 C203 0.930 . S
H252 C210 0.929 . S
H253 C211 0.930 . S
H254 C212 0.930 . S
H255 C213 0.930 . S
H256 C215 0.929 . S
H257 C216 0.930 . S
H258 C217 0.930 . S
H259 C218 0.930 . S
H260 C222 0.929 . S
H261 C224 0.930 . S
H262 C230 0.929 . S
H263 C231 0.930 . S
Li264 N281 1.990 . S
Li264 O324 1.956 . S
Li264 O325 1.970 . S
Li264 O326 1.961 . S
Li265 N289 1.990 . S
Li265 O324 1.970 . S
Li265 O325 1.956 . S
Li265 O327 1.961 . S
Li266 N311 1.990 . S
Li266 O324 1.961 . S
Li266 O326 1.956 . S
Li266 O327 1.970 . S
Li267 N317 1.990 . S
Li267 O325 1.961 . S
Li267 O326 1.970 . S
Li267 O327 1.956 . S
C268 C270 1.348 . S
C268 C271 1.356 . S
C268 O324 1.325 . S
N269 C272 1.314 . S
N269 C273 1.279 . S
C270 C268 1.348 . S
C270 C272 1.353 . S
C270 H328 0.929 . S
C271 C268 1.356 . S
C271 C273 1.358 . S
C271 H329 0.930 . S
C272 N269 1.314 . S
C272 C270 1.353 . S
C272 H330 0.930 . S
C273 N269 1.279 . S
C273 C271 1.358 . S
C273 H331 0.930 . S
C274 C277 1.343 1_556 S
C274 C278 1.361 . S
C274 O325 1.325 . S
C275 N276 1.279 . S
C275 C278 1.349 1_554 S
C275 H332 0.930 . S
N276 C275 1.279 . S
N276 C279 1.314 . S
C277 C274 1.343 1_554 S
C277 C279 1.361 . S
C277 H333 0.926 1_554 S
C278 C274 1.361 . S
C278 C275 1.349 1_556 S
C278 H334 0.934 . S
C279 N276 1.314 . S
C279 C277 1.361 . S
C279 H335 0.930 . S
C280 N281 1.314 . S
C280 C285 1.353 . S
C280 H286 0.930 . S
N281 Li264 1.990 . S
N281 C280 1.314 . S
N281 C283 1.279 . S
C282 C283 1.358 . S
C282 C284 1.356 . S
C282 H336 0.930 . S
C283 N281 1.279 . S
C283 C282 1.358 . S
C283 H287 0.930 . S
C284 C282 1.356 . S
C284 C285 1.348 . S
C285 C280 1.353 . S
C285 C284 1.348 . S
C285 H337 0.929 . S
H286 C280 0.930 . S
H287 C283 0.930 . S
C288 N289 1.314 . S
C288 C290 1.353 . S
C288 H294 0.930 . S
N289 Li265 1.990 . S
N289 C288 1.314 . S
N289 C292 1.279 . S
C290 C288 1.353 . S
C290 C293 1.348 . S
C290 H338 0.929 . S
C291 C292 1.358 . S
C291 C293 1.356 . S
C291 H339 0.881 1_556 S
C292 N289 1.279 . S
C292 C291 1.358 . S
C292 H295 0.930 . S
C293 C290 1.348 . S
C293 C291 1.356 . S
H294 C288 0.930 . S
H295 C292 0.930 . S
C296 C298 1.348 . S
C296 C299 1.356 . S
C296 O326 1.325 . S
N297 C300 1.314 . S
N297 C301 1.279 . S
C298 C296 1.348 . S
C298 C300 1.353 . S
C298 H340 0.929 . S
C299 C296 1.356 . S
C299 C301 1.358 . S
C299 H341 0.930 . S
C300 N297 1.314 . S
C300 C298 1.353 . S
C300 H342 0.930 . S
C301 N297 1.279 . S
C301 C299 1.358 . S
C301 H343 0.930 . S
C302 C303 1.348 . S
C302 C304 1.356 . S
C302 O327 1.325 . S
C303 C302 1.348 . S
C303 C305 1.353 . S
C303 H344 0.929 . S
C304 C302 1.356 . S
C304 C306 1.358 . S
C304 H345 0.930 . S
C305 C303 1.353 . S
C305 N307 1.314 . S
C305 H346 0.930 . S
C306 C304 1.358 . S
C306 N307 1.279 . S
C306 H347 0.930 . S
N307 C305 1.314 . S
N307 C306 1.279 . S
C308 C310 1.353 . S
C308 N311 1.314 . S
C308 H314 0.930 . S
C309 N311 1.279 . S
C309 C312 1.358 . S
C309 H315 0.930 . S
C310 C308 1.353 . S
C310 C313 1.348 . S
C310 H348 0.929 . S
N311 Li266 1.990 . S
N311 C308 1.314 . S
N311 C309 1.279 . S
C312 C309 1.358 . S
C312 C313 1.356 . S
C312 H349 0.930 . S
C313 C310 1.348 . S
C313 C312 1.356 . S
H314 C308 0.930 . S
H315 C309 0.930 . S
C316 N317 1.314 . S
C316 C318 1.353 . S
C316 H322 0.930 . S
N317 Li267 1.990 . S
N317 C316 1.314 . S
N317 C320 1.279 . S
C318 C316 1.353 . S
C318 C321 1.348 . S
C318 H350 0.929 . S
C319 C320 1.358 . S
C319 C321 1.356 . S
C319 H351 0.930 . S
C320 N317 1.279 . S
C320 C319 1.358 . S
C320 H323 0.930 . S
C321 C318 1.348 . S
C321 C319 1.356 . S
H322 C316 0.930 . S
H323 C320 0.930 . S
O324 Li264 1.956 . S
O324 Li265 1.970 . S
O324 Li266 1.961 . S
O324 C268 1.325 . S
O325 Li264 1.970 . S
O325 Li265 1.956 . S
O325 Li267 1.961 . S
O325 C274 1.325 . S
O326 Li264 1.961 . S
O326 Li266 1.956 . S
O326 Li267 1.970 . S
O326 C296 1.325 . S
O327 Li265 1.961 . S
O327 Li266 1.970 . S
O327 Li267 1.956 . S
O327 C302 1.325 . S
H328 C270 0.929 . S
H329 C271 0.930 . S
H330 C272 0.930 . S
H331 C273 0.930 . S
H332 C275 0.930 . S
H333 C277 0.926 1_556 S
H334 C278 0.934 . S
H335 C279 0.930 . S
H336 C282 0.930 . S
H337 C285 0.929 . S
H338 C290 0.929 . S
H339 C291 0.881 1_554 S
H340 C298 0.929 . S
H341 C299 0.930 . S
H342 C300 0.930 . S
H343 C301 0.930 . S
H344 C303 0.929 . S
H345 C304 0.930 . S
H346 C305 0.930 . S
H347 C306 0.930 . S
H348 C310 0.929 . S
H349 C312 0.930 . S
H350 C318 0.929 . S
H351 C319 0.930 . S
C352 C353 1.391 . S
C352 C354 1.394 . S
C352 H368 0.931 . S
C353 C352 1.391 . S
C353 C357 1.376 . S
C354 C352 1.394 . S
C354 C355 1.369 . S
C354 C358 1.531 . S
C355 C354 1.369 . S
C355 C356 1.410 . S
C355 C363 1.503 . S
C356 C355 1.410 . S
C356 C357 1.392 . S
C356 C359 1.511 . S
C357 C353 1.376 . S
C357 C356 1.392 . S
C357 H369 0.929 . S
C358 C354 1.531 . S
C358 H370 0.960 . S
C358 H371 0.962 . S
C358 H372 0.960 . S
C359 C356 1.511 . S
C359 H373 0.961 . S
C359 H374 0.961 . S
C359 H375 0.961 . S
C360 C361 1.370 . S
C360 C362 1.363 . S
C360 H376 0.931 . S
C361 C360 1.370 . S
C361 C365 1.408 . S
C362 C360 1.363 . S
C362 C363 1.370 . S
C362 C366 1.524 . S
C363 C355 1.503 . S
C363 C362 1.370 . S
C363 C364 1.403 . S
C364 C363 1.403 . S
C364 C365 1.404 . S
C364 C367 1.539 . S
C365 C361 1.408 . S
C365 C364 1.404 . S
C365 H377 0.930 . S
C366 C362 1.524 . S
C366 H378 0.956 . S
C366 H379 0.961 . S
C366 H380 0.961 . S
C367 C364 1.539 . S
C367 H381 0.958 . S
C367 H382 0.961 . S
C367 H383 0.960 . S
H368 C352 0.931 . S
H369 C357 0.929 . S
H370 C358 0.960 . S
H371 C358 0.962 . S
H372 C358 0.960 . S
H373 C359 0.961 . S
H374 C359 0.961 . S
H375 C359 0.961 . S
H376 C360 0.931 . S
H377 C365 0.930 . S
H378 C366 0.956 . S
H379 C366 0.961 . S
H380 C366 0.961 . S
H381 C367 0.958 . S
H382 C367 0.961 . S
H383 C367 0.960 . S
C384 C385 1.391 . S
C384 C386 1.394 . S
C384 H400 0.931 . S
C385 C384 1.391 . S
C385 C389 1.376 . S
C386 C384 1.394 . S
C386 C387 1.369 . S
C386 C390 1.531 . S
C387 C386 1.369 . S
C387 C388 1.410 . S
C387 C395 1.503 . S
C388 C387 1.410 . S
C388 C389 1.392 . S
C388 C391 1.511 . S
C389 C385 1.376 . S
C389 C388 1.392 . S
C389 H401 0.929 . S
C390 C386 1.531 . S
C390 H402 0.960 . S
C390 H403 0.962 . S
C390 H404 0.960 . S
C391 C388 1.511 . S
C391 H405 0.961 . S
C391 H406 0.961 . S
C391 H407 0.961 . S
C392 C393 1.370 . S
C392 C394 1.363 . S
C392 H408 0.931 . S
C393 C392 1.370 . S
C393 C397 1.408 . S
C394 C392 1.363 . S
C394 C395 1.370 . S
C394 C398 1.524 . S
C395 C387 1.503 . S
C395 C394 1.370 . S
C395 C396 1.403 . S
C396 C395 1.403 . S
C396 C397 1.404 . S
C396 C399 1.539 . S
C397 C393 1.408 . S
C397 C396 1.404 . S
C397 H409 0.930 . S
C398 C394 1.524 . S
C398 H410 0.956 . S
C398 H411 0.961 . S
C398 H412 0.961 . S
C399 C396 1.539 . S
C399 H413 0.958 . S
C399 H414 0.961 . S
C399 H415 0.960 . S
H400 C384 0.931 . S
H401 C389 0.929 . S
H402 C390 0.960 . S
H403 C390 0.962 . S
H404 C390 0.960 . S
H405 C391 0.961 . S
H406 C391 0.961 . S
H407 C391 0.961 . S
H408 C392 0.931 . S
H409 C397 0.930 . S
H410 C398 0.956 . S
H411 C398 0.961 . S
H412 C398 0.961 . S
H413 C399 0.958 . S
H414 C399 0.961 . S
H415 C399 0.960 . S
C416 C417 1.391 . S
C416 C418 1.394 . S
C416 H432 0.931 . S
C417 C416 1.391 . S
C417 C421 1.376 . S
C418 C416 1.394 . S
C418 C419 1.369 . S
C418 C422 1.531 . S
C419 C418 1.369 . S
C419 C420 1.410 . S
C419 C427 1.487 1_554 S
C420 C419 1.410 . S
C420 C421 1.392 . S
C420 C423 1.511 . S
C421 C417 1.376 . S
C421 C420 1.392 . S
C421 H433 0.929 . S
C422 C418 1.531 . S
C422 H434 0.960 . S
C422 H435 0.985 . S
C422 H436 0.960 . S
C423 C420 1.511 . S
C423 H437 0.961 1_554 S
C423 H438 0.961 1_554 S
C423 H439 0.961 . S
C424 C425 1.370 . S
C424 C426 1.363 . S
C424 H440 0.931 . S
C425 C424 1.370 . S
C425 C429 1.408 1_556 S
C426 C424 1.363 . S
C426 C427 1.414 . S
C426 C430 1.524 . S
C427 C419 1.487 1_556 S
C427 C426 1.414 . S
C427 C428 1.376 1_556 S
C428 C427 1.376 1_554 S
C428 C429 1.404 . S
C428 C431 1.539 . S
C429 C425 1.408 1_554 S
C429 C428 1.404 . S
C429 H441 0.930 . S
C430 C426 1.524 . S
C430 H442 0.956 . S
C430 H443 0.961 . S
C430 H444 0.961 . S
C431 C428 1.539 . S
C431 H445 0.958 . S
C431 H446 0.961 . S
C431 H447 0.960 . S
H432 C416 0.931 . S
H433 C421 0.929 . S
H434 C422 0.960 . S
H435 C422 0.985 . S
H436 C422 0.960 . S
H437 C423 0.961 1_556 S
H438 C423 0.961 1_556 S
H439 C423 0.961 . S
H440 C424 0.931 . S
H441 C429 0.930 . S
H442 C430 0.956 . S
H443 C430 0.961 . S
H444 C430 0.961 . S
H445 C431 0.958 . S
H446 C431 0.961 . S
H447 C431 0.960 . S
C448 C449 1.391 . S
C448 C450 1.394 . S
C448 H464 0.931 . S
C449 C448 1.391 . S
C449 C453 1.376 . S
C450 C448 1.394 . S
C450 C451 1.369 . S
C450 C454 1.531 . S
C451 C450 1.369 . S
C451 C452 1.410 . S
C451 C459 1.503 1_455 S
C452 C451 1.410 . S
C452 C453 1.392 . S
C452 C455 1.511 . S
C453 C449 1.376 . S
C453 C452 1.392 . S
C453 H465 0.929 . S
C454 C450 1.531 . S
C454 H466 0.960 1_455 S
C454 H467 0.962 . S
C454 H468 0.960 . S
C455 C452 1.511 . S
C455 H469 0.961 . S
C455 H470 0.961 . S
C455 H471 0.961 . S
C456 C457 1.370 . S
C456 C458 1.363 . S
C456 H472 0.931 . S
C457 C456 1.370 . S
C457 C461 1.408 . S
C458 C456 1.363 . S
C458 C459 1.370 . S
C458 C462 1.524 1_655 S
C459 C451 1.503 1_655 S
C459 C458 1.370 . S
C459 C460 1.403 . S
C460 C459 1.403 . S
C460 C461 1.404 . S
C460 C463 1.539 . S
C461 C457 1.408 . S
C461 C460 1.404 . S
C461 H473 0.930 . S
C462 C458 1.524 1_455 S
C462 H474 0.956 . S
C462 H475 0.961 . S
C462 H476 0.961 1_455 S
C463 C460 1.539 . S
C463 H477 0.958 . S
C463 H478 0.961 . S
C463 H479 0.960 . S
H464 C448 0.931 . S
H465 C453 0.929 . S
H466 C454 0.960 1_655 S
H467 C454 0.962 . S
H468 C454 0.960 . S
H469 C455 0.961 . S
H470 C455 0.961 . S
H471 C455 0.961 . S
H472 C456 0.931 . S
H473 C461 0.930 . S
H474 C462 0.956 . S
H475 C462 0.961 . S
H476 C462 0.961 1_655 S
H477 C463 0.958 . S
H478 C463 0.961 . S
H479 C463 0.960 . S
C480 C481 1.391 . S
C480 C482 1.394 . S
C480 H496 0.931 . S
C481 C480 1.391 . S
C481 C485 1.376 . S
C482 C480 1.394 . S
C482 C483 1.369 . S
C482 C486 1.531 . S
C483 C482 1.369 . S
C483 C484 1.410 . S
C483 C491 1.492 1_546 S
C484 C483 1.410 . S
C484 C485 1.392 . S
C484 C487 1.511 . S
C485 C481 1.376 . S
C485 C484 1.392 . S
C485 H497 0.929 . S
C486 C482 1.531 . S
C486 H498 0.960 1_545 S
C486 H499 0.962 . S
C486 H500 0.960 . S
C487 C484 1.511 . S
C487 H501 0.961 1_556 S
C487 H502 0.961 1_556 S
C487 H503 0.961 . S
C488 C489 1.370 . S
C488 C490 1.363 . S
C488 H504 0.931 . S
C489 C488 1.370 . S
C489 C493 1.408 1_554 S
C490 C488 1.363 . S
C490 C491 1.398 . S
C490 C494 1.524 1_565 S
C491 C483 1.492 1_564 S
C491 C490 1.398 . S
C491 C492 1.386 1_554 S
C492 C491 1.386 1_556 S
C492 C493 1.404 . S
C492 C495 1.539 . S
C493 C489 1.408 1_556 S
C493 C492 1.404 . S
C493 H505 0.930 . S
C494 C490 1.524 1_545 S
C494 H506 0.956 . S
C494 H507 0.961 . S
C494 H508 0.961 1_545 S
C495 C492 1.539 . S
C495 H509 0.958 . S
C495 H510 0.961 . S
C495 H511 0.960 . S
H496 C480 0.931 . S
H497 C485 0.929 . S
H498 C486 0.960 1_565 S
H499 C486 0.962 . S
H500 C486 0.960 . S
H501 C487 0.961 1_554 S
H502 C487 0.961 1_554 S
H503 C487 0.961 . S
H504 C488 0.931 . S
H505 C493 0.930 . S
H506 C494 0.956 . S
H507 C494 0.961 . S
H508 C494 0.961 1_565 S
H509 C495 0.958 . S
H510 C495 0.961 . S
H511 C495 0.960 . S
C512 C513 1.391 . S
C512 C514 1.394 . S
C512 H528 0.931 . S
C513 C512 1.391 . S
C513 C517 1.376 . S
C514 C512 1.394 . S
C514 C515 1.369 . S
C514 C518 1.531 . S
C515 C514 1.369 . S
C515 C516 1.410 . S
C515 C523 1.503 . S
C516 C515 1.410 . S
C516 C517 1.392 . S
C516 C519 1.511 . S
C517 C513 1.376 . S
C517 C516 1.392 . S
C517 H529 0.929 . S
C518 C514 1.531 . S
C518 H530 0.960 . S
C518 H531 0.962 . S
C518 H532 0.960 . S
C519 C516 1.511 . S
C519 H533 0.961 . S
C519 H534 0.961 . S
C519 H535 0.961 . S
C520 C521 1.370 . S
C520 C522 1.363 . S
C520 H536 0.931 . S
C521 C520 1.370 . S
C521 C525 1.408 . S
C522 C520 1.363 . S
C522 C523 1.370 . S
C522 C526 1.524 . S
C523 C515 1.503 . S
C523 C522 1.370 . S
C523 C524 1.403 . S
C524 C523 1.403 . S
C524 C525 1.404 . S
C524 C527 1.539 . S
C525 C521 1.408 . S
C525 C524 1.404 . S
C525 H537 0.930 . S
C526 C522 1.524 . S
C526 H538 0.956 . S
C526 H539 0.961 . S
C526 H540 0.961 . S
C527 C524 1.539 . S
C527 H541 0.958 . S
C527 H542 0.961 . S
C527 H543 0.960 . S
H528 C512 0.931 . S
H529 C517 0.929 . S
H530 C518 0.960 . S
H531 C518 0.962 . S
H532 C518 0.960 . S
H533 C519 0.961 . S
H534 C519 0.961 . S
H535 C519 0.961 . S
H536 C520 0.931 . S
H537 C525 0.930 . S
H538 C526 0.956 . S
H539 C526 0.961 . S
H540 C526 0.961 . S
H541 C527 0.958 . S
H542 C527 0.961 . S
H543 C527 0.960 . S
C544 C545 1.391 . S
C544 C546 1.394 . S
C544 H560 0.931 . S
C545 C544 1.391 . S
C545 C549 1.376 . S
C546 C544 1.394 . S
C546 C547 1.369 . S
C546 C550 1.536 . S
C547 C546 1.369 . S
C547 C548 1.410 . S
C547 C555 1.494 1_454 S
C548 C547 1.410 . S
C548 C549 1.392 . S
C548 C551 1.511 . S
C549 C545 1.376 . S
C549 C548 1.392 . S
C549 H561 0.929 . S
C550 C546 1.536 . S
C550 H562 0.964 1_455 S
C550 H563 0.946 1_554 S
C550 H564 0.968 . S
C551 C548 1.511 . S
C551 H565 0.961 . S
C551 H566 0.961 1_455 S
C551 H567 0.961 1_455 S
C552 C553 1.370 . S
C552 C554 1.363 . S
C552 H568 0.931 . S
C553 C552 1.370 . S
C553 C557 1.408 1_556 S
C554 C552 1.363 . S
C554 C555 1.394 . S
C554 C558 1.524 1_655 S
C555 C547 1.494 1_656 S
C555 C554 1.394 . S
C555 C556 1.388 1_556 S
C556 C555 1.388 1_554 S
C556 C557 1.404 . S
C556 C559 1.539 . S
C557 C553 1.408 1_554 S
C557 C556 1.404 . S
C557 H569 0.930 . S
C558 C554 1.524 1_455 S
C558 H570 0.956 . S
C558 H571 0.961 . S
C558 H572 0.961 1_455 S
C559 C556 1.539 . S
C559 H573 0.958 . S
C559 H574 0.961 . S
C559 H575 0.960 . S
H560 C544 0.931 . S
H561 C549 0.929 . S
H562 C550 0.964 1_655 S
H563 C550 0.946 1_556 S
H564 C550 0.968 . S
H565 C551 0.961 . S
H566 C551 0.961 1_655 S
H567 C551 0.961 1_655 S
H568 C552 0.931 . S
H569 C557 0.930 . S
H570 C558 0.956 . S
H571 C558 0.961 . S
H572 C558 0.961 1_655 S
H573 C559 0.958 . S
H574 C559 0.961 . S
H575 C559 0.960 . S
C576 C577 1.391 . S
C576 C578 1.394 . S
C576 H592 0.931 . S
C577 C576 1.391 . S
C577 C581 1.376 . S
C578 C576 1.394 . S
C578 C579 1.369 . S
C578 C582 1.531 . S
C579 C578 1.369 . S
C579 C580 1.410 . S
C579 C587 1.503 1_545 S
C580 C579 1.410 . S
C580 C581 1.392 . S
C580 C583 1.511 . S
C581 C577 1.376 . S
C581 C580 1.392 . S
C581 H593 0.929 . S
C582 C578 1.531 . S
C582 H594 0.961 . S
C582 H595 0.962 . S
C582 H596 0.960 . S
C583 C580 1.511 . S
C583 H597 0.961 . S
C583 H598 0.963 . S
C583 H599 0.961 . S
C584 C585 1.370 . S
C584 C586 1.363 . S
C584 H600 0.931 . S
C585 C584 1.370 . S
C585 C589 1.408 . S
C586 C584 1.363 . S
C586 C587 1.370 . S
C586 C590 1.524 . S
C587 C579 1.503 1_565 S
C587 C586 1.370 . S
C587 C588 1.403 . S
C588 C587 1.403 . S
C588 C589 1.404 . S
C588 C591 1.539 1_565 S
C589 C585 1.408 . S
C589 C588 1.404 . S
C589 H601 0.930 . S
C590 C586 1.524 . S
C590 H602 0.956 . S
C590 H603 0.961 . S
C590 H604 0.961 . S
C591 C588 1.539 1_545 S
C591 H605 0.958 . S
C591 H606 0.961 1_545 S
C591 H607 0.960 . S
H592 C576 0.931 . S
H593 C581 0.929 . S
H594 C582 0.961 . S
H595 C582 0.962 . S
H596 C582 0.960 . S
H597 C583 0.961 . S
H598 C583 0.963 . S
H599 C583 0.961 . S
H600 C584 0.931 . S
H601 C589 0.930 . S
H602 C590 0.956 . S
H603 C590 0.961 . S
H604 C590 0.961 . S
H605 C591 0.958 . S
H606 C591 0.961 1_565 S
H607 C591 0.960 . S
C353 C20 1.496 . S
C361 C205 1.498 . S
C385 C145 1.497 . S
C393 C313 1.500 . S
C417 C29 1.489 . S
C425 C293 1.492 . S
C449 C225 1.504 . S
C457 C117 1.506 . S
C481 C284 1.505 . S
C489 C49 1.512 . S
C513 C108 1.500 . S
C521 C233 1.505 . S
C545 C57 1.491 . S
C553 C321 1.493 . S
C577 C137 1.482 . S
C585 C196 1.487 . S
