# Generated by pormake.
# Topology whz, (6)-cn, num edge types: 1
# Building blocks:
#     Node 0, Type 0, BuildingBlock: OJICUG_clean_sbu_0, # of connection points: 6
#     Node 1, Type 0, BuildingBlock: OJICUG_clean_sbu_0, # of connection points: 6
#     Node 2, Type 0, BuildingBlock: OJICUG_clean_sbu_0, # of connection points: 6
#     Node 3, Type 0, BuildingBlock: OJICUG_clean_sbu_0, # of connection points: 6
#     Node 4, Type 0, BuildingBlock: OJICUG_clean_sbu_0, # of connection points: 6
#     Node 5, Type 0, BuildingBlock: OJICUG_clean_sbu_0, # of connection points: 6
#     Node 6, Type 0, BuildingBlock: OJICUG_clean_sbu_0, # of connection points: 6
#     Node 7, Type 0, BuildingBlock: OJICUG_clean_sbu_0, # of connection points: 6
#     Node 8, Type 0, BuildingBlock: OJICUG_clean_sbu_0, # of connection points: 6
#     Node 9, Type 0, BuildingBlock: OJICUG_clean_sbu_0, # of connection points: 6
#     Node 10, Type 0, BuildingBlock: OJICUG_clean_sbu_0, # of connection points: 6
#     Node 11, Type 0, BuildingBlock: OJICUG_clean_sbu_0, # of connection points: 6
#     Node 12, Type 0, BuildingBlock: OJICUG_clean_sbu_0, # of connection points: 6
#     Node 13, Type 0, BuildingBlock: OJICUG_clean_sbu_0, # of connection points: 6
#     Node 14, Type 0, BuildingBlock: OJICUG_clean_sbu_0, # of connection points: 6
#     Node 15, Type 0, BuildingBlock: OJICUG_clean_sbu_0, # of connection points: 6
#     Edge 16, Type (0, 0), BuildingBlock: ZUJKAS_clean_linker_0, # of connection points: 2
#     Edge 17, Type (0, 0), BuildingBlock: ZUJKAS_clean_linker_0, # of connection points: 2
#     Edge 18, Type (0, 0), BuildingBlock: ZUJKAS_clean_linker_0, # of connection points: 2
#     Edge 19, Type (0, 0), BuildingBlock: ZUJKAS_clean_linker_0, # of connection points: 2
#     Edge 20, Type (0, 0), BuildingBlock: ZUJKAS_clean_linker_0, # of connection points: 2
#     Edge 21, Type (0, 0), BuildingBlock: ZUJKAS_clean_linker_0, # of connection points: 2
#     Edge 22, Type (0, 0), BuildingBlock: ZUJKAS_clean_linker_0, # of connection points: 2
#     Edge 23, Type (0, 0), BuildingBlock: ZUJKAS_clean_linker_0, # of connection points: 2
#     Edge 24, Type (0, 0), BuildingBlock: ZUJKAS_clean_linker_0, # of connection points: 2
#     Edge 25, Type (0, 0), BuildingBlock: ZUJKAS_clean_linker_0, # of connection points: 2
#     Edge 26, Type (0, 0), BuildingBlock: ZUJKAS_clean_linker_0, # of connection points: 2
#     Edge 27, Type (0, 0), BuildingBlock: ZUJKAS_clean_linker_0, # of connection points: 2
#     Edge 28, Type (0, 0), BuildingBlock: ZUJKAS_clean_linker_0, # of connection points: 2
#     Edge 29, Type (0, 0), BuildingBlock: ZUJKAS_clean_linker_0, # of connection points: 2
#     Edge 30, Type (0, 0), BuildingBlock: ZUJKAS_clean_linker_0, # of connection points: 2
#     Edge 31, Type (0, 0), BuildingBlock: ZUJKAS_clean_linker_0, # of connection points: 2
#     Edge 32, Type (0, 0), BuildingBlock: ZUJKAS_clean_linker_0, # of connection points: 2
#     Edge 33, Type (0, 0), BuildingBlock: ZUJKAS_clean_linker_0, # of connection points: 2
#     Edge 34, Type (0, 0), BuildingBlock: ZUJKAS_clean_linker_0, # of connection points: 2
#     Edge 35, Type (0, 0), BuildingBlock: ZUJKAS_clean_linker_0, # of connection points: 2
#     Edge 36, Type (0, 0), BuildingBlock: ZUJKAS_clean_linker_0, # of connection points: 2
#     Edge 37, Type (0, 0), BuildingBlock: ZUJKAS_clean_linker_0, # of connection points: 2
#     Edge 38, Type (0, 0), BuildingBlock: ZUJKAS_clean_linker_0, # of connection points: 2
#     Edge 39, Type (0, 0), BuildingBlock: ZUJKAS_clean_linker_0, # of connection points: 2
#     Edge 40, Type (0, 0), BuildingBlock: ZUJKAS_clean_linker_0, # of connection points: 2
#     Edge 41, Type (0, 0), BuildingBlock: ZUJKAS_clean_linker_0, # of connection points: 2
#     Edge 42, Type (0, 0), BuildingBlock: ZUJKAS_clean_linker_0, # of connection points: 2
#     Edge 43, Type (0, 0), BuildingBlock: ZUJKAS_clean_linker_0, # of connection points: 2
#     Edge 44, Type (0, 0), BuildingBlock: ZUJKAS_clean_linker_0, # of connection points: 2
#     Edge 45, Type (0, 0), BuildingBlock: ZUJKAS_clean_linker_0, # of connection points: 2
#     Edge 46, Type (0, 0), BuildingBlock: ZUJKAS_clean_linker_0, # of connection points: 2
#     Edge 47, Type (0, 0), BuildingBlock: ZUJKAS_clean_linker_0, # of connection points: 2
#     Edge 48, Type (0, 0), BuildingBlock: ZUJKAS_clean_linker_0, # of connection points: 2
#     Edge 49, Type (0, 0), BuildingBlock: ZUJKAS_clean_linker_0, # of connection points: 2
#     Edge 50, Type (0, 0), BuildingBlock: ZUJKAS_clean_linker_0, # of connection points: 2
#     Edge 51, Type (0, 0), BuildingBlock: ZUJKAS_clean_linker_0, # of connection points: 2
#     Edge 52, Type (0, 0), BuildingBlock: ZUJKAS_clean_linker_0, # of connection points: 2
#     Edge 53, Type (0, 0), BuildingBlock: ZUJKAS_clean_linker_0, # of connection points: 2
#     Edge 54, Type (0, 0), BuildingBlock: ZUJKAS_clean_linker_0, # of connection points: 2
#     Edge 55, Type (0, 0), BuildingBlock: ZUJKAS_clean_linker_0, # of connection points: 2
#     Edge 56, Type (0, 0), BuildingBlock: ZUJKAS_clean_linker_0, # of connection points: 2
#     Edge 57, Type (0, 0), BuildingBlock: ZUJKAS_clean_linker_0, # of connection points: 2
#     Edge 58, Type (0, 0), BuildingBlock: ZUJKAS_clean_linker_0, # of connection points: 2
#     Edge 59, Type (0, 0), BuildingBlock: ZUJKAS_clean_linker_0, # of connection points: 2
#     Edge 60, Type (0, 0), BuildingBlock: ZUJKAS_clean_linker_0, # of connection points: 2
#     Edge 61, Type (0, 0), BuildingBlock: ZUJKAS_clean_linker_0, # of connection points: 2
#     Edge 62, Type (0, 0), BuildingBlock: ZUJKAS_clean_linker_0, # of connection points: 2
#     Edge 63, Type (0, 0), BuildingBlock: ZUJKAS_clean_linker_0, # of connection points: 2
# Relax obj value: 0.452
# Max RMSD: 0.271
# Mean RMSD: 0.271
data_MOF--net-whz--node1-OJICUG_clean_sbu_0--edge1-ZUJKAS_clean_linker_0
_symmetry_space_group_name_H-M    P1
_symmetry_Int_Tables_number       1
_symmetry_cell_setting            triclinic
loop_
_symmetry_equiv_pos_as_xyz
'x, y, z'
_cell_length_a     42.712343
_cell_length_b     42.736577
_cell_length_c     69.969272
_cell_angle_alpha  90.001757
_cell_angle_beta   90.004216
_cell_angle_gamma 89.988609
loop_
_atom_site_label
_atom_site_type_symbol
_atom_site_fract_x
_atom_site_fract_y
_atom_site_fract_z
_atom_type_partial_charge
Sc0 Sc 0.34802 0.18484 0.12975 0.0
Sc1 Sc 0.27 0.17188 0.11612 0.0
Sc2 Sc 0.32861 0.11763 0.10288 0.0
O3 O 0.31551 0.15812 0.11621 0.0
C4 C 0.38469 0.16344 0.09231 0.0
C5 C 0.3056 0.23724 0.11053 0.0
C6 C 0.27897 0.14635 0.07347 0.0
C7 C 0.2903 0.18985 0.15855 0.0
C8 C 0.36794 0.11568 0.14184 0.0
C9 C 0.26362 0.09781 0.12179 0.0
O10 O 0.38082 0.18084 0.1068 0.0
O11 O 0.28158 0.21972 0.10947 0.0
O12 O 0.30174 0.12834 0.07756 0.0
O13 O 0.31911 0.19211 0.15436 0.0
O14 O 0.35642 0.10225 0.12717 0.0
O15 O 0.25337 0.12569 0.1229 0.0
O16 O 0.36683 0.14509 0.1443 0.0
O17 O 0.26955 0.18213 0.14638 0.0
O18 O 0.29041 0.09116 0.11497 0.0
O19 O 0.33171 0.22781 0.11709 0.0
O20 O 0.36765 0.13984 0.08866 0.0
O21 O 0.26542 0.16342 0.08587 0.0
Sc22 Sc 0.5637 0.59131 0.38141 0.0
Sc23 Sc 0.57919 0.51506 0.36603 0.0
Sc24 Sc 0.63071 0.5765 0.35339 0.0
O25 O 0.5913 0.56091 0.36694 0.0
C26 C 0.58032 0.62945 0.34374 0.0
C27 C 0.51292 0.54717 0.36149 0.0
C28 C 0.60479 0.52679 0.32346 0.0
C29 C 0.56129 0.53339 0.40927 0.0
C30 C 0.63245 0.61539 0.39217 0.0
C31 C 0.65297 0.51152 0.372 0.0
O32 O 0.56252 0.62221 0.35757 0.0
O33 O 0.53195 0.52534 0.35738 0.0
O34 O 0.61954 0.5518 0.32742 0.0
O35 O 0.562 0.56267 0.40635 0.0
O36 O 0.64632 0.60251 0.37814 0.0
O37 O 0.62542 0.50093 0.37442 0.0
O38 O 0.60294 0.61451 0.39429 0.0
O39 O 0.56559 0.51341 0.396 0.0
O40 O 0.65858 0.53764 0.36389 0.0
O41 O 0.52064 0.57127 0.37101 0.0
O42 O 0.60692 0.61673 0.341 0.0
O43 O 0.59056 0.51072 0.33606 0.0
Sc44 Sc 0.16959 0.88085 0.60093 0.0
Sc45 Sc 0.22662 0.82504 0.61417 0.0
Sc46 Sc 0.14855 0.81481 0.6286 0.0
O47 O 0.18159 0.84023 0.61453 0.0
C48 C 0.13057 0.88489 0.63991 0.0
C49 C 0.23558 0.89896 0.61918 0.0
C50 C 0.20678 0.80874 0.65699 0.0
C51 C 0.21735 0.84983 0.5714 0.0
C52 C 0.11138 0.8368 0.59143 0.0
C53 C 0.18919 0.76065 0.60959 0.0
O54 O 0.14307 0.89746 0.62529 0.0
O55 O 0.24493 0.8708 0.62043 0.0
O56 O 0.17779 0.80745 0.65307 0.0
O57 O 0.19563 0.86904 0.57552 0.0
O58 O 0.11547 0.81935 0.60588 0.0
O59 O 0.2135 0.77761 0.60811 0.0
O60 O 0.12908 0.85977 0.58736 0.0
O61 O 0.23042 0.83225 0.58372 0.0
O62 O 0.16347 0.77081 0.61635 0.0
O63 O 0.20892 0.90636 0.61246 0.0
O64 O 0.13058 0.85553 0.64276 0.0
O65 O 0.2275 0.81544 0.64457 0.0
Sc66 Sc 0.86333 0.41799 0.8522 0.0
Sc67 Sc 0.9127 0.48009 0.86663 0.0
Sc68 Sc 0.93001 0.40325 0.88055 0.0
O69 O 0.90197 0.43383 0.86645 0.0
C70 C 0.86146 0.37777 0.89054 0.0
C71 C 0.8386 0.4814 0.8715 0.0
C72 C 0.93051 0.46021 0.9095 0.0
C73 C 0.88902 0.46964 0.8235 0.0
C74 C 0.91466 0.36621 0.84223 0.0
C75 C 0.98024 0.44985 0.86203 0.0
O76 O 0.848 0.39075 0.8764 0.0
O77 O 0.86575 0.49267 0.87435 0.0
O78 O 0.93174 0.43114 0.90589 0.0
O79 O 0.87457 0.44424 0.82689 0.0
O80 O 0.93176 0.3729 0.85647 0.0
O81 O 0.96079 0.47186 0.85908 0.0
O82 O 0.88819 0.37898 0.83924 0.0
O83 O 0.90268 0.4854 0.8365 0.0
O84 O 0.97261 0.42424 0.87004 0.0
O85 O 0.83401 0.45544 0.86301 0.0
O86 O 0.89088 0.37912 0.89317 0.0
O87 O 0.92465 0.48066 0.89675 0.0
Sc88 Sc 0.67338 0.87596 0.89917 0.0
Sc89 Sc 0.72742 0.81597 0.88821 0.0
Sc90 Sc 0.65001 0.81138 0.87118 0.0
O91 O 0.68363 0.83442 0.88621 0.0
C92 C 0.61253 0.83527 0.90783 0.0
C93 C 0.71785 0.84363 0.93026 0.0
C94 C 0.68541 0.75459 0.89171 0.0
C95 C 0.74145 0.88875 0.88214 0.0
C96 C 0.63637 0.88231 0.8596 0.0
C97 C 0.7096 0.80061 0.84477 0.0
O98 O 0.63117 0.85743 0.91205 0.0
O99 O 0.73072 0.825 0.91847 0.0
O100 O 0.66171 0.76627 0.88329 0.0
O101 O 0.71481 0.89827 0.88783 0.0
O102 O 0.63482 0.85302 0.85677 0.0
O103 O 0.72956 0.80407 0.85812 0.0
O104 O 0.649 0.89405 0.87441 0.0
O105 O 0.74921 0.86002 0.88173 0.0
O106 O 0.6803 0.80324 0.8473 0.0
O107 O 0.69704 0.86332 0.92532 0.0
O108 O 0.61625 0.81747 0.89347 0.0
O109 O 0.71028 0.77008 0.89487 0.0
Sc110 Sc 0.36532 0.41818 0.65016 0.0
Sc111 Sc 0.42164 0.47439 0.63671 0.0
Sc112 Sc 0.43017 0.39626 0.62185 0.0
O113 O 0.40574 0.42961 0.63628 0.0
C114 C 0.40922 0.35955 0.65927 0.0
C115 C 0.39617 0.46583 0.67957 0.0
C116 C 0.48503 0.4362 0.64119 0.0
C117 C 0.34826 0.48449 0.63147 0.0
C118 C 0.35934 0.37917 0.61143 0.0
C119 C 0.43766 0.45383 0.59365 0.0
O120 O 0.38556 0.3766 0.6629 0.0
O121 O 0.41193 0.48011 0.66684 0.0
O122 O 0.47502 0.41194 0.6326 0.0
O123 O 0.34074 0.4588 0.63945 0.0
O124 O 0.38871 0.37741 0.60881 0.0
O125 O 0.434 0.47448 0.60659 0.0
O126 O 0.34724 0.39326 0.62564 0.0
O127 O 0.37655 0.49284 0.62898 0.0
O128 O 0.43559 0.42473 0.59698 0.0
O129 O 0.37887 0.44244 0.6758 0.0
O130 O 0.42729 0.36412 0.64515 0.0
O131 O 0.46816 0.46008 0.6445 0.0
Sc132 Sc 0.85537 0.18499 0.37261 0.0
Sc133 Sc 0.7764 0.17485 0.38536 0.0
Sc134 Sc 0.83215 0.11795 0.39865 0.0
O135 O 0.82131 0.15931 0.38559 0.0
C136 C 0.8728 0.11514 0.36026 0.0
C137 C 0.79881 0.1936 0.34335 0.0
C138 C 0.76698 0.10159 0.37858 0.0
C139 C 0.81409 0.23857 0.39197 0.0
C140 C 0.89033 0.16075 0.41002 0.0
C141 C 0.783 0.1476 0.42785 0.0
O142 O 0.87387 0.14466 0.35818 0.0
O143 O 0.7775 0.18699 0.35538 0.0
O144 O 0.79279 0.09357 0.38621 0.0
O145 O 0.83986 0.22861 0.38514 0.0
O146 O 0.87246 0.13753 0.41306 0.0
O147 O 0.77004 0.16492 0.41535 0.0
O148 O 0.88705 0.17934 0.39603 0.0
O149 O 0.78971 0.22161 0.39312 0.0
O150 O 0.80576 0.12945 0.42398 0.0
O151 O 0.8277 0.19364 0.3476 0.0
O152 O 0.85906 0.10202 0.37428 0.0
O153 O 0.75826 0.12993 0.37725 0.0
Sc154 Sc 0.06453 0.59931 0.12056 0.0
Sc155 Sc 0.07638 0.52151 0.13464 0.0
Sc156 Sc 0.1305 0.5799 0.14852 0.0
O157 O 0.09052 0.56685 0.13458 0.0
C158 C 0.13447 0.62027 0.11025 0.0
C159 C 0.05986 0.5424 0.09172 0.0
C160 C 0.15019 0.51476 0.12929 0.0
C161 C 0.01112 0.55645 0.13909 0.0
C162 C 0.08283 0.6348 0.15896 0.0
C163 C 0.10162 0.53019 0.17755 0.0
O164 O 0.10501 0.62076 0.10776 0.0
O165 O 0.06445 0.52167 0.1045 0.0
O166 O 0.15691 0.54069 0.13728 0.0
O167 O 0.02054 0.58145 0.13109 0.0
O168 O 0.1084 0.62025 0.16183 0.0
O169 O 0.08604 0.51579 0.16478 0.0
O170 O 0.06522 0.62955 0.14472 0.0
O171 O 0.02901 0.5332 0.14211 0.0
O172 O 0.11826 0.55413 0.17391 0.0
O173 O 0.06062 0.57152 0.09526 0.0
O174 O 0.14725 0.60639 0.12431 0.0
O175 O 0.12222 0.50531 0.12703 0.0
Sc176 Sc 0.84622 0.68736 0.62852 0.0
Sc177 Sc 0.7689 0.67771 0.61324 0.0
Sc178 Sc 0.8247 0.62002 0.60245 0.0
O179 O 0.81331 0.66165 0.61472 0.0
C180 C 0.88426 0.66111 0.59259 0.0
C181 C 0.80848 0.7412 0.60853 0.0
C182 C 0.7794 0.65165 0.57143 0.0
C183 C 0.78629 0.69597 0.6555 0.0
C184 C 0.86194 0.61834 0.64227 0.0
C185 C 0.75768 0.60409 0.61872 0.0
O186 O 0.88137 0.67799 0.60743 0.0
O187 O 0.78327 0.72544 0.60905 0.0
O188 O 0.79773 0.62989 0.5769 0.0
O189 O 0.8149 0.70025 0.65125 0.0
O190 O 0.85219 0.60542 0.62696 0.0
O191 O 0.74834 0.6322 0.61716 0.0
O192 O 0.86023 0.64764 0.64518 0.0
O193 O 0.7664 0.68455 0.64388 0.0
O194 O 0.78576 0.59587 0.61546 0.0
O195 O 0.8348 0.72987 0.61344 0.0
O196 O 0.86463 0.64013 0.5879 0.0
O197 O 0.76851 0.67241 0.58264 0.0
Sc198 Sc 0.06706 0.09826 0.8802 0.0
Sc199 Sc 0.07896 0.02073 0.8651 0.0
Sc200 Sc 0.13262 0.07941 0.8516 0.0
O201 O 0.09287 0.06612 0.86561 0.0
C202 C 0.08554 0.13542 0.84244 0.0
C203 C 0.01398 0.05622 0.86082 0.0
C204 C 0.10385 0.03026 0.82226 0.0
C205 C 0.0624 0.04013 0.90824 0.0
C206 C 0.13699 0.11881 0.89034 0.0
C207 C 0.15285 0.01417 0.87038 0.0
O208 O 0.06826 0.13053 0.85689 0.0
O209 O 0.03176 0.033 0.8575 0.0
O210 O 0.1205 0.05412 0.82601 0.0
O211 O 0.06296 0.06935 0.90504 0.0
O212 O 0.14956 0.10566 0.87595 0.0
O213 O 0.12496 0.00437 0.8726 0.0
O214 O 0.10764 0.1188 0.8932 0.0
O215 O 0.06707 0.01986 0.89521 0.0
O216 O 0.15925 0.04031 0.86257 0.0
O217 O 0.02301 0.08081 0.86944 0.0
O218 O 0.10982 0.1194 0.83862 0.0
O219 O 0.08846 0.01564 0.83499 0.0
Sc220 Sc 0.66922 0.37957 0.10201 0.0
Sc221 Sc 0.72944 0.32744 0.11581 0.0
Sc222 Sc 0.65234 0.31387 0.13077 0.0
O223 O 0.68372 0.34033 0.11619 0.0
C224 C 0.63037 0.38354 0.14088 0.0
C225 C 0.73423 0.40139 0.12055 0.0
C226 C 0.7103 0.31118 0.159 0.0
C227 C 0.71879 0.35116 0.07277 0.0
C228 C 0.61496 0.33057 0.09275 0.0
C229 C 0.6958 0.26141 0.11181 0.0
O230 O 0.6432 0.39626 0.12643 0.0
O231 O 0.74447 0.37377 0.12306 0.0
O232 O 0.68109 0.31086 0.15573 0.0
O233 O 0.69439 0.36712 0.07645 0.0
O234 O 0.62105 0.31354 0.10711 0.0
O235 O 0.71868 0.27974 0.10868 0.0
O236 O 0.62898 0.35626 0.0894 0.0
O237 O 0.73415 0.33664 0.08559 0.0
O238 O 0.67078 0.27027 0.12004 0.0
O239 O 0.70811 0.40722 0.11252 0.0
O240 O 0.63069 0.35416 0.14367 0.0
O241 O 0.73054 0.31617 0.146 0.0
Sc242 Sc 0.36922 0.92356 0.35358 0.0
Sc243 Sc 0.42175 0.98417 0.36509 0.0
Sc244 Sc 0.43833 0.90774 0.37922 0.0
O245 O 0.40965 0.93854 0.36595 0.0
C246 C 0.37129 0.88711 0.39372 0.0
C247 C 0.34729 0.98816 0.37125 0.0
C248 C 0.44439 0.96762 0.40645 0.0
C249 C 0.39613 0.97239 0.32308 0.0
C250 C 0.41479 0.86789 0.3435 0.0
C251 C 0.48789 0.94955 0.3585 0.0
O252 O 0.35749 0.89431 0.37813 0.0
O253 O 0.37455 9e-05 0.37037 0.0
O254 O 0.45084 0.93973 0.40162 0.0
O255 O 0.37646 0.9516 0.32817 0.0
O256 O 0.43068 0.87136 0.35866 0.0
O257 O 0.47052 0.97368 0.3599 0.0
O258 O 0.3929 0.88628 0.3386 0.0
O259 O 0.41529 0.98528 0.33456 0.0
O260 O 0.47858 0.92228 0.36305 0.0
O261 O 0.34166 0.95996 0.36662 0.0
O262 O 0.40028 0.89195 0.39657 0.0
O263 O 0.4299 0.98657 0.39558 0.0
Sc264 Sc 0.16835 0.37719 0.39837 0.0
Sc265 Sc 0.22226 0.31727 0.38765 0.0
Sc266 Sc 0.14411 0.3104 0.37245 0.0
O267 O 0.17822 0.33493 0.38619 0.0
C268 C 0.10789 0.33725 0.40885 0.0
C269 C 0.21384 0.34592 0.42939 0.0
C270 C 0.18105 0.25539 0.39321 0.0
C271 C 0.23569 0.38992 0.38067 0.0
C272 C 0.13022 0.38043 0.359 0.0
C273 C 0.20287 0.29931 0.34505 0.0
O274 O 0.12711 0.35914 0.4125 0.0
O275 O 0.22568 0.32625 0.41783 0.0
O276 O 0.15595 0.26645 0.3861 0.0
O277 O 0.20882 0.39957 0.38581 0.0
O278 O 0.12914 0.35095 0.35674 0.0
O279 O 0.22349 0.30616 0.3575 0.0
O280 O 0.14252 0.39319 0.37362 0.0
O281 O 0.24366 0.36131 0.38113 0.0
O282 O 0.17372 0.29937 0.34865 0.0
O283 O 0.19363 0.36617 0.4243 0.0
O284 O 0.1107 0.31883 0.39471 0.0
O285 O 0.2062 0.27111 0.3944 0.0
Sc286 Sc 0.8699 0.91946 0.14931 0.0
Sc287 Sc 0.92502 0.97596 0.13458 0.0
Sc288 Sc 0.93518 0.89718 0.12139 0.0
O289 O 0.91004 0.93089 0.1351 0.0
C290 C 0.91489 0.86263 0.15981 0.0
C291 C 0.90024 0.96956 0.17762 0.0
C292 C 0.98929 0.93876 0.13997 0.0
C293 C 0.85116 0.984 0.12934 0.0
C294 C 0.86484 0.87839 0.1111 0.0
C295 C 0.94154 0.95391 0.09209 0.0
O296 O 0.89185 0.88036 0.16363 0.0
O297 O 0.91684 0.98252 0.16477 0.0
O298 O 0.97931 0.91309 0.13304 0.0
O299 O 0.84402 0.958 0.13706 0.0
O300 O 0.89412 0.8783 0.10788 0.0
O301 O 0.93557 0.97507 0.10435 0.0
O302 O 0.85282 0.89148 0.12571 0.0
O303 O 0.87927 0.99331 0.12751 0.0
O304 O 0.94191 0.925 0.09623 0.0
O305 O 0.88216 0.94663 0.17415 0.0
O306 O 0.93165 0.86549 0.14495 0.0
O307 O 0.97224 0.96303 0.14149 0.0
Sc308 Sc 0.35061 0.6871 0.87154 0.0
Sc309 Sc 0.27216 0.67921 0.88601 0.0
Sc310 Sc 0.32749 0.6216 0.89893 0.0
O311 O 0.31674 0.66266 0.88552 0.0
C312 C 0.3662 0.61658 0.85984 0.0
C313 C 0.2927 0.69646 0.84336 0.0
C314 C 0.26104 0.60597 0.88018 0.0
C315 C 0.31189 0.74197 0.89146 0.0
C316 C 0.38706 0.66344 0.90861 0.0
C317 C 0.28015 0.65292 0.92863 0.0
O318 O 0.36712 0.64595 0.85706 0.0
O319 O 0.27185 0.69054 0.85583 0.0
O320 O 0.28718 0.59765 0.88728 0.0
O321 O 0.33701 0.73129 0.88415 0.0
O322 O 0.36861 0.64104 0.91255 0.0
O323 O 0.26697 0.67031 0.91624 0.0
O324 O 0.38359 0.68117 0.89423 0.0
O325 O 0.28708 0.72574 0.89309 0.0
O326 O 0.30229 0.63422 0.92447 0.0
O327 O 0.32176 0.69599 0.84711 0.0
O328 O 0.35344 0.6044 0.87451 0.0
O329 O 0.25273 0.63444 0.87882 0.0
Sc330 Sc 0.56655 0.09976 0.62128 0.0
Sc331 Sc 0.57864 0.02227 0.63644 0.0
Sc332 Sc 0.63274 0.08109 0.64928 0.0
O333 O 0.59259 0.06771 0.63572 0.0
C334 C 0.63638 0.11949 0.61018 0.0
C335 C 0.56128 0.04136 0.59348 0.0
C336 C 0.65238 0.01543 0.63082 0.0
C337 C 0.51347 0.05759 0.64092 0.0
C338 C 0.58664 0.13804 0.6583 0.0
C339 C 0.60429 0.03266 0.67914 0.0
O340 O 0.60691 0.1199 0.60772 0.0
O341 O 0.56598 0.02105 0.60646 0.0
O342 O 0.65897 0.04152 0.6386 0.0
O343 O 0.52267 0.08255 0.63271 0.0
O344 O 0.61096 0.12194 0.66194 0.0
O345 O 0.58878 0.01766 0.6666 0.0
O346 O 0.56861 0.13255 0.64428 0.0
O347 O 0.53147 0.03442 0.64396 0.0
O348 O 0.62073 0.05656 0.67512 0.0
O349 O 0.56195 0.07059 0.59657 0.0
O350 O 0.64928 0.10639 0.62448 0.0
O351 O 0.62444 0.00577 0.62867 0.0
H352 H 0.32837 0.20059 0.1892 0.0
H353 H 0.31331 0.21764 0.22113 0.0
H354 H 0.21601 0.21513 0.20477 0.0
H355 H 0.23078 0.19768 0.17268 0.0
H356 H 0.28077 0.27245 0.2297 0.0
H357 H 0.21721 0.16733 0.25566 0.0
H358 H 0.24286 0.16637 0.23515 0.0
H359 H 0.20397 0.18205 0.23301 0.0
C360 C 0.3037 0.20336 0.19237 0.0
C361 C 0.28076 0.19784 0.17831 0.0
C362 C 0.29518 0.21312 0.21066 0.0
C363 C 0.26359 0.21742 0.21533 0.0
C364 C 0.24052 0.21143 0.20151 0.0
H365 H 0.1656 0.28711 0.3142 0.0
H366 H 0.18146 0.26842 0.28276 0.0
C367 C 0.24901 0.20157 0.18317 0.0
C368 C 0.25506 0.22978 0.23437 0.0
H369 H 0.21426 0.21286 0.27498 0.0
C370 C 0.26635 0.2594 0.23966 0.0
C371 C 0.23626 0.21264 0.24728 0.0
C372 C 0.22456 0.18021 0.24262 0.0
C373 C 0.25884 0.27263 0.25742 0.0
C374 C 0.23996 0.25553 0.2703 0.0
C375 C 0.22874 0.22588 0.26504 0.0
C376 C 0.23097 0.2682 0.28918 0.0
C377 C 0.27054 0.30506 0.26208 0.0
C378 C 0.25366 0.27438 0.30319 0.0
C379 C 0.24472 0.28519 0.32126 0.0
C380 C 0.21289 0.28975 0.32563 0.0
C381 C 0.19033 0.28381 0.3114 0.0
C382 C 0.1993 0.27308 0.2934 0.0
H383 H 0.27841 0.31777 0.24909 0.0
H384 H 0.25203 0.31905 0.26924 0.0
H385 H 0.29075 0.30326 0.27199 0.0
H386 H 0.27823 0.27028 0.30027 0.0
H387 H 0.26268 0.28936 0.33188 0.0
H388 H 0.4393 0.41759 0.56153 0.0
H389 H 0.46079 0.43113 0.53035 0.0
H390 H 0.47869 0.52509 0.54993 0.0
H391 H 0.45755 0.51168 0.58145 0.0
H392 H 0.44431 0.4775 0.5038 0.0
H393 H 0.56507 0.49418 0.53158 0.0
H394 H 0.53467 0.47538 0.54535 0.0
H395 H 0.5355 0.51727 0.5432 0.0
C396 C 0.44761 0.44124 0.55925 0.0
C397 C 0.44702 0.46347 0.57411 0.0
C398 C 0.45986 0.44891 0.54138 0.0
C399 C 0.4719 0.47888 0.53798 0.0
C400 C 0.47008 0.50161 0.55243 0.0
H401 H 0.55995 0.56815 0.44196 0.0
H402 H 0.53928 0.55299 0.47306 0.0
C403 C 0.45774 0.49398 0.57037 0.0
C404 C 0.48691 0.48591 0.5194 0.0
H405 H 0.55667 0.50586 0.49891 0.0
C406 C 0.46888 0.48363 0.50269 0.0
C407 C 0.51904 0.49366 0.51805 0.0
C408 C 0.53985 0.49503 0.53546 0.0
C409 C 0.48196 0.48962 0.48466 0.0
C410 C 0.51405 0.49751 0.48331 0.0
C411 C 0.53212 0.49965 0.50001 0.0
C412 C 0.52886 0.50537 0.46479 0.0
C413 C 0.46114 0.48829 0.46725 0.0
C414 C 0.53082 0.48324 0.44999 0.0
C415 C 0.54268 0.49182 0.43208 0.0
C416 C 0.55274 0.52268 0.42873 0.0
C417 C 0.55211 0.54426 0.44394 0.0
C418 C 0.54035 0.53566 0.46177 0.0
H419 H 0.43591 0.4886 0.47112 0.0
H420 H 0.46596 0.50828 0.45754 0.0
H421 H 0.46589 0.46634 0.45929 0.0
H422 H 0.52263 0.45953 0.45219 0.0
H423 H 0.54293 0.47461 0.42072 0.0
H424 H 0.26624 0.79781 0.67054 0.0
H425 H 0.28085 0.77895 0.70241 0.0
H426 H 0.18408 0.78208 0.7198 0.0
H427 H 0.16916 0.8006 0.68815 0.0
H428 H 0.27008 0.80526 0.73945 0.0
H429 H 0.21022 0.69086 0.73036 0.0
H430 H 0.21868 0.71651 0.71051 0.0
H431 H 0.1859 0.72436 0.72589 0.0
C432 C 0.24809 0.79472 0.68118 0.0
C433 C 0.21648 0.80036 0.67668 0.0
C434 C 0.25648 0.7839 0.69936 0.0
C435 C 0.23343 0.77848 0.71327 0.0
C436 C 0.20211 0.78539 0.7091 0.0
H437 H 0.23335 0.70843 0.82994 0.0
H438 H 0.21885 0.72834 0.7983 0.0
C439 C 0.19369 0.79612 0.69099 0.0
C440 C 0.24191 0.76528 0.73212 0.0
H441 H 0.22963 0.70243 0.76133 0.0
C442 C 0.26141 0.78272 0.74422 0.0
C443 C 0.23041 0.73591 0.73828 0.0
C444 C 0.21036 0.71563 0.72554 0.0
C445 C 0.26929 0.77179 0.76251 0.0
C446 C 0.25779 0.74241 0.76867 0.0
C447 C 0.23829 0.72498 0.75656 0.0
C448 C 0.26631 0.72911 0.78749 0.0
C449 C 0.28937 0.79203 0.77525 0.0
C450 C 0.29762 0.72212 0.79163 0.0
C451 C 0.30598 0.71075 0.8096 0.0
C452 C 0.28313 0.70596 0.82382 0.0
C453 C 0.25155 0.71191 0.81937 0.0
C454 C 0.24322 0.72334 0.80133 0.0
H455 H 0.28945 0.81683 0.77046 0.0
H456 H 0.28111 0.79109 0.79028 0.0
H457 H 0.31384 0.78335 0.77485 0.0
H458 H 0.31567 0.7257 0.78098 0.0
H459 H 0.33049 0.70612 0.8124 0.0
H460 H 0.9441 0.51964 0.92194 0.0
H461 H 0.96531 0.53464 0.95316 0.0
H462 H 0.95829 0.43898 0.97226 0.0
H463 H 0.9368 0.42379 0.94134 0.0
H464 H 0.93904 0.48392 0.99967 0.0
H465 H 0.05581 0.51104 0.96865 0.0
H466 H 0.02331 0.53126 0.95799 0.0
H467 H 0.02626 0.4895 0.95572 0.0
C468 C 0.94661 0.50188 0.93287 0.0
C469 C 0.93908 0.47044 0.92904 0.0
C470 C 0.95897 0.51044 0.95063 0.0
C471 C 0.96396 0.48776 0.96481 0.0
C472 C 0.95487 0.45676 0.96142 0.0
H473 H 0.04422 0.4835 0.07921 0.0
H474 H 0.02217 0.46933 0.04809 0.0
C475 C 0.94262 0.44815 0.94371 0.0
C476 C 0.97964 0.49588 0.983 0.0
H477 H 0.04925 0.52055 0.00167 0.0
C478 C 0.96313 0.49192 1.00015 0.0
C479 C 0.01113 0.50612 0.9835 0.0
C480 C 0.03035 0.50952 0.96552 0.0
C481 C 0.97713 0.49845 0.01785 0.0
C482 C 0.00865 0.50859 0.01836 0.0
C483 C 0.02514 0.51261 0.0012 0.0
C484 C 0.02453 0.51626 0.03656 0.0
C485 C 0.95786 0.49511 0.03582 0.0
C486 C 0.03448 0.54697 0.03999 0.0
C487 C 0.04728 0.5551 0.05765 0.0
C488 C 0.05047 0.53261 0.07223 0.0
C489 C 0.04197 0.50143 0.06837 0.0
C490 C 0.02912 0.49334 0.05065 0.0
H491 H 0.93238 0.49417 0.03268 0.0
H492 H 0.96444 0.47307 0.04318 0.0
H493 H 0.96235 0.51485 0.04577 0.0
H494 H 0.03141 0.56492 0.02922 0.0
H495 H 0.05381 0.57928 0.06003 0.0
H496 H 0.68723 0.82067 0.81059 0.0
H497 H 0.70096 0.80113 0.77885 0.0
H498 H 0.76788 0.73776 0.80419 0.0
H499 H 0.75556 0.75885 0.83589 0.0
H500 H 0.79108 0.7588 0.7734 0.0
H501 H 0.67044 0.72254 0.75604 0.0
H502 H 0.67164 0.76369 0.76077 0.0
H503 H 0.68123 0.73626 0.77949 0.0
C504 C 0.70512 0.80281 0.80931 0.0
C505 C 0.72032 0.79116 0.82561 0.0
C506 C 0.71265 0.79133 0.79121 0.0
C507 C 0.73462 0.7671 0.78913 0.0
C508 C 0.7506 0.75621 0.8054 0.0
H509 H 0.74669 0.6655 0.68005 0.0
H510 H 0.73474 0.68021 0.71324 0.0
C511 C 0.74369 0.76834 0.82349 0.0
C512 C 0.74122 0.75349 0.76998 0.0
H513 H 0.70605 0.72585 0.72951 0.0
C514 C 0.77246 0.75128 0.76391 0.0
C515 C 0.71709 0.74273 0.75771 0.0
C516 C 0.68329 0.74108 0.76395 0.0
C517 C 0.78016 0.73974 0.74574 0.0
C518 C 0.75586 0.73162 0.73286 0.0
C519 C 0.72469 0.73267 0.73918 0.0
C520 C 0.76226 0.72282 0.71268 0.0
C521 C 0.81435 0.73592 0.74076 0.0
C522 C 0.78081 0.74227 0.70115 0.0
C523 C 0.78819 0.73353 0.6825 0.0
C524 C 0.77621 0.70573 0.67472 0.0
C525 C 0.75617 0.68705 0.68579 0.0
C526 C 0.74944 0.69542 0.70471 0.0
H527 H 0.82868 0.73175 0.75377 0.0
H528 H 0.81813 0.71617 0.73072 0.0
H529 H 0.82302 0.75777 0.73402 0.0
H530 H 0.78985 0.76418 0.70662 0.0
H531 H 0.80327 0.74859 0.67411 0.0
H532 H 0.77029 0.29973 0.1714 0.0
H533 H 0.78626 0.28018 0.20285 0.0
H534 H 0.69054 0.28464 0.22217 0.0
H535 H 0.67425 0.30398 0.19095 0.0
H536 H 0.77688 0.30587 0.24086 0.0
H537 H 0.71667 0.19195 0.23019 0.0
H538 H 0.72509 0.21838 0.21072 0.0
H539 H 0.69258 0.22585 0.22637 0.0
C540 C 0.75267 0.29689 0.18239 0.0
C541 C 0.72092 0.30306 0.17854 0.0
C542 C 0.76185 0.28567 0.20032 0.0
C543 C 0.73944 0.28038 0.21462 0.0
C544 C 0.70805 0.28796 0.21115 0.0
H545 H 0.73984 0.2053 0.32946 0.0
H546 H 0.72599 0.22611 0.29799 0.0
C547 C 0.69884 0.29913 0.1933 0.0
C548 C 0.7486 0.26622 0.23306 0.0
H549 H 0.73717 0.20185 0.26109 0.0
C550 C 0.7684 0.28307 0.24528 0.0
C551 C 0.73737 0.23649 0.2387 0.0
C552 C 0.71696 0.21692 0.22577 0.0
C553 C 0.77672 0.27123 0.26328 0.0
C554 C 0.76539 0.24153 0.26896 0.0
C555 C 0.74573 0.22463 0.25668 0.0
C556 C 0.7737 0.2276 0.28763 0.0
C557 C 0.79692 0.29093 0.27626 0.0
C558 C 0.80497 0.22071 0.29196 0.0
C559 C 0.81299 0.20885 0.30988 0.0
C560 C 0.7898 0.20345 0.3238 0.0
C561 C 0.75829 0.20924 0.31912 0.0
C562 C 0.75033 0.22119 0.30117 0.0
H563 H 0.79702 0.31591 0.27185 0.0
H564 H 0.78876 0.2894 0.2913 0.0
H565 H 0.82138 0.28222 0.27567 0.0
H566 H 0.82325 0.22478 0.28151 0.0
H567 H 0.83746 0.20435 0.31288 0.0
H568 H 0.95383 0.01287 0.07841 0.0
H569 H 0.97372 0.02686 0.04673 0.0
H570 H 0.97032 0.92993 0.02978 0.0
H571 H 0.95021 0.91568 0.0612 0.0
H572 H 0.03023 0.00319 0.03074 0.0
H573 H 0.92738 0.97563 0.98516 0.0
H574 H 0.92437 0.98097 0.0107 0.0
H575 H 0.93893 0.94478 0.00111 0.0
C576 C 0.95681 0.99457 0.06786 0.0
C577 C 0.95046 0.96313 0.0724 0.0
C578 C 0.96828 0.00261 0.04979 0.0
C579 C 0.97324 0.97945 0.03591 0.0
C580 C 0.96619 0.94821 0.04021 0.0
H581 H 0.04947 0.9804 0.92047 0.0
H582 H 0.03023 0.9645 0.95198 0.0
C583 C 0.95484 0.94012 0.05824 0.0
C584 C 0.98763 0.98757 0.01732 0.0
H585 H 0.97517 0.98632 0.96916 0.0
C586 C 0.01816 -0.00032 0.01726 0.0
C587 C 0.9719 0.98262 0.99981 0.0
C588 C 0.93873 0.97053 0.99911 0.0
C589 C 0.03357 0.00673 1.00008 0.0
C590 C 0.01775 0.00202 0.98256 0.0
C591 C 0.98728 0.98973 0.98262 0.0
C592 C 0.03178 0.0111 0.96403 0.0
C593 C 0.06679 0.01866 0.00084 0.0
C594 C 0.03919 0.0425 0.96044 0.0
C595 C 0.05023 0.05164 0.94254 0.0
C596 C 0.05386 0.0296 0.92774 0.0
C597 C 0.04707 0.99797 0.93152 0.0
C598 C 0.03597 0.98885 0.94949 0.0
H599 H 0.07842 0.01235 0.01451 0.0
H600 H 0.0809 0.0092 0.98882 0.0
H601 H 0.06662 0.04456 0.9997 0.0
H602 H 0.03558 0.06013 0.97134 0.0
H603 H 0.05517 0.07621 0.94018 0.0
H604 H 0.41388 0.00235 0.43366 0.0
H605 H 0.43308 0.01501 0.46587 0.0
H606 H 0.52125 0.97047 0.45271 0.0
H607 H 0.50145 0.95626 0.42122 0.0
H608 H 0.50319 0.95192 0.48553 0.0
H609 H 0.49087 0.08095 0.48419 0.0
H610 H 0.45442 0.06129 0.4801 0.0
H611 H 0.48582 0.05731 0.46309 0.0
C612 C 0.43744 0.99564 0.43769 0.0
C613 C 0.45622 0.97833 0.42509 0.0
C614 C 0.44849 0.00301 0.45602 0.0
C615 C 0.47883 0.99406 0.4617 0.0
C616 C 0.49775 0.97753 0.44877 0.0
H617 H 0.57796 0.06795 0.55972 0.0
H618 H 0.55892 0.05445 0.52781 0.0
C619 C 0.48647 0.96949 0.43076 0.0
C620 C 0.49072 0.00032 0.4813 0.0
H621 H 0.50329 0.05796 0.51416 0.0
C622 C 0.50337 0.97519 0.49173 0.0
C623 C 0.49129 0.03068 0.48937 0.0
C624 C 0.48017 0.05913 0.47853 0.0
C625 C 0.5169 0.97955 0.5098 0.0
C626 C 0.51645 0.0097 0.51816 0.0
C627 C 0.50352 0.0348 0.50783 0.0
C628 C 0.52979 0.01603 0.5374 0.0
C629 C 0.53248 0.95194 0.51933 0.0
C630 C 0.52023 0.99865 0.55344 0.0
C631 C 0.5319 0.00573 0.57161 0.0
C632 C 0.5525 0.03099 0.57413 0.0
C633 C 0.56215 0.04829 0.55812 0.0
C634 C 0.55114 0.0407 0.53992 0.0
H635 H 0.53991 0.93411 0.5087 0.0
H636 H 0.55335 0.95924 0.52767 0.0
H637 H 0.51557 0.94058 0.52916 0.0
H638 H 0.50305 0.98018 0.55203 0.0
H639 H 0.52362 0.99246 0.5838 0.0
H640 H 0.12081 0.15975 0.91859 0.0
H641 H 0.14984 0.17069 0.94786 0.0
H642 H 0.22703 0.11505 0.92727 0.0
H643 H 0.19836 0.10445 0.89772 0.0
H644 H 0.16522 0.1232 0.97201 0.0
H645 H 0.27236 0.18865 0.95168 0.0
H646 H 0.23888 0.18531 0.93604 0.0
H647 H 0.26615 0.15346 0.93818 0.0
C648 C 0.14432 0.15055 0.92003 0.0
C649 C 0.15718 0.13107 0.90585 0.0
C650 C 0.16087 0.1568 0.93679 0.0
C651 C 0.19062 0.14374 0.93976 0.0
C652 C 0.20436 0.12586 0.92516 0.0
H653 H 0.30233 0.11517 0.04223 0.0
H654 H 0.28184 0.11553 0.00956 0.0
C655 C 0.18788 0.11977 0.90827 0.0
C656 C 0.20515 0.14544 0.959 0.0
H657 H 0.27069 0.16806 0.98337 0.0
C658 C 0.18817 0.13326 0.97449 0.0
C659 C 0.23526 0.1582 0.96218 0.0
C660 C 0.25416 0.17241 0.94618 0.0
C661 C 0.2005 0.13332 0.99305 0.0
C662 C 0.23047 0.14627 0.99628 0.0
C663 C 0.24766 0.15822 0.98081 0.0
C664 C 0.24406 0.14766 0.01572 0.0
C665 C 0.18156 0.11899 0.00903 0.0
C666 C 0.22988 0.16603 0.02988 0.0
C667 C 0.24141 0.16587 0.04856 0.0
C668 C 0.26746 0.14732 0.05345 0.0
C669 C 0.28211 0.12955 0.03905 0.0
C670 C 0.27055 0.12981 0.02034 0.0
H671 H 0.16252 0.10374 0.00352 0.0
H672 H 0.19673 0.10495 0.01866 0.0
H673 H 0.1707 0.13793 0.01762 0.0
H674 H 0.20963 0.18028 0.02652 0.0
H675 H 0.22965 0.18003 0.05919 0.0
H676 H 0.62885 0.556 0.29174 0.0
H677 H 0.62728 0.53784 0.25861 0.0
H678 H 0.57776 0.45485 0.27631 0.0
H679 H 0.57869 0.47293 0.30937 0.0
H680 H 0.65272 0.4846 0.24389 0.0
H681 H 0.52464 0.4842 0.23174 0.0
H682 H 0.54246 0.50391 0.25181 0.0
H683 H 0.53581 0.46234 0.25255 0.0
C684 C 0.61743 0.53395 0.2886 0.0
C685 C 0.60385 0.51597 0.30329 0.0
C686 C 0.61651 0.52366 0.26963 0.0
C687 C 0.60188 0.49529 0.26492 0.0
C688 C 0.58844 0.47722 0.27952 0.0
H689 H 0.59759 0.36574 0.17271 0.0
H690 H 0.588 0.39682 0.20138 0.0
C691 C 0.58925 0.48751 0.29848 0.0
C692 C 0.60237 0.48355 0.24496 0.0
H693 H 0.55571 0.45541 0.20919 0.0
C694 C 0.6315 0.47868 0.23618 0.0
C695 C 0.57464 0.47585 0.23492 0.0
C696 C 0.54261 0.48213 0.24316 0.0
C697 C 0.63374 0.46504 0.21799 0.0
C698 C 0.60605 0.45647 0.20819 0.0
C699 C 0.57687 0.46206 0.21674 0.0
C700 C 0.60727 0.43953 0.18973 0.0
C701 C 0.66577 0.45865 0.20973 0.0
C702 C 0.61998 0.45367 0.17338 0.0
C703 C 0.62548 0.43597 0.15689 0.0
C704 C 0.61841 0.40379 0.15651 0.0
C705 C 0.60357 0.39036 0.1725 0.0
C706 C 0.59802 0.40809 0.18893 0.0
H707 H 0.68463 0.46149 0.22053 0.0
H708 H 0.66699 0.43455 0.20384 0.0
H709 H 0.67035 0.47526 0.19787 0.0
H710 H 0.62683 0.47807 0.17365 0.0
H711 H 0.63685 0.44715 0.14486 0.0
H712 H 0.22205 0.8975 0.54577 0.0
H713 H 0.24268 0.89519 0.51327 0.0
H714 H 0.25585 0.79543 0.51896 0.0
H715 H 0.23723 0.79817 0.55201 0.0
H716 H 0.30379 0.81675 0.50365 0.0
H717 H 0.20648 0.87059 0.46413 0.0
H718 H 0.21896 0.89726 0.4823 0.0
H719 H 0.20277 0.85975 0.48893 0.0
C720 C 0.2291 0.87505 0.53999 0.0
C721 C 0.22809 0.84802 0.55137 0.0
C722 C 0.24055 0.87365 0.5213 0.0
C723 C 0.2501 0.84498 0.51334 0.0
C724 C 0.24853 0.81783 0.52466 0.0
H725 H 0.31267 0.85995 0.39327 0.0
H726 H 0.28165 0.84313 0.421 0.0
C727 C 0.23793 0.81939 0.54355 0.0
C728 C 0.26429 0.8439 0.49389 0.0
H729 H 0.25782 0.87451 0.44897 0.0
C730 C 0.29331 0.82886 0.49162 0.0
C731 C 0.25047 0.85877 0.47785 0.0
C732 C 0.21777 0.87212 0.47841 0.0
C733 C 0.30972 0.83008 0.47428 0.0
C734 C 0.29759 0.84812 0.459 0.0
C735 C 0.2676 0.86129 0.46078 0.0
C736 C 0.31677 0.85599 0.44192 0.0
C737 C 0.34003 0.8121 0.47265 0.0
C738 C 0.34665 0.86899 0.44439 0.0
C739 C 0.36451 0.87795 0.42867 0.0
C740 C 0.35265 0.87501 0.41 0.0
C741 C 0.32254 0.86233 0.40745 0.0
C742 C 0.3048 0.85277 0.42328 0.0
H743 H 0.33926 0.79049 0.48148 0.0
H744 H 0.34517 0.80542 0.45764 0.0
H745 H 0.35952 0.82672 0.47815 0.0
H746 H 0.35599 0.873 0.45857 0.0
H747 H 0.38731 0.88823 0.43126 0.0
H748 H 0.89326 0.63659 0.67446 0.0
H749 H 0.9036 0.60547 0.70298 0.0
H750 H 0.86539 0.5239 0.67522 0.0
H751 H 0.85469 0.55493 0.64654 0.0
H752 H 0.83769 0.53881 0.71069 0.0
H753 H 0.96711 0.53658 0.7165 0.0
H754 H 0.9512 0.57493 0.71251 0.0
H755 H 0.94703 0.54536 0.69441 0.0
C756 C 0.88761 0.61188 0.67422 0.0
C757 C 0.87301 0.59831 0.6582 0.0
C758 C 0.89375 0.59407 0.69052 0.0
C759 C 0.88552 0.56233 0.69115 0.0
C760 C 0.87211 0.54834 0.67495 0.0
H761 H 0.86922 0.43975 0.79102 0.0
H762 H 0.86959 0.4597 0.75831 0.0
C763 C 0.86611 0.56611 0.65855 0.0
C764 C 0.88766 0.54494 0.70941 0.0
H765 H 0.93839 0.52346 0.74476 0.0
C766 C 0.85973 0.53498 0.71803 0.0
C767 C 0.91642 0.54029 0.71898 0.0
C768 C 0.9472 0.54959 0.71007 0.0
C769 C 0.85963 0.5216 0.73634 0.0
C770 C 0.88837 0.51743 0.74609 0.0
C771 C 0.91639 0.52673 0.73727 0.0
C772 C 0.88964 0.50456 0.76575 0.0
C773 C 0.82863 0.51334 0.7454 0.0
C774 C 0.90176 0.52277 0.78071 0.0
C775 C 0.90185 0.51135 0.79944 0.0
C776 C 0.8898 0.48146 0.80356 0.0
C777 C 0.87832 0.46302 0.78843 0.0
C778 C 0.87841 0.4744 0.76971 0.0
H779 H 0.80872 0.52506 0.73811 0.0
H780 H 0.82494 0.4877 0.74439 0.0
H781 H 0.82828 0.51997 0.76075 0.0
H782 H 0.91065 0.54608 0.77795 0.0
H783 H 0.91098 0.52617 0.81069 0.0
H784 H 0.80207 0.88947 0.10637 0.0
H785 H 0.77038 0.87758 0.07815 0.0
H786 H 0.84853 0.82891 0.05292 0.0
H787 H 0.88038 0.84057 0.081 0.0
H788 H 0.78952 0.89953 0.04137 0.0
H789 H 0.77308 0.77077 0.04175 0.0
H790 H 0.7828 0.79273 0.06302 0.0
H791 H 0.81265 0.7834 0.04585 0.0
C792 C 0.81229 0.87546 0.09508 0.0
C793 C 0.84386 0.86609 0.09594 0.0
C794 C 0.79415 0.8688 0.07892 0.0
C795 C 0.80705 0.85221 0.06351 0.0
C796 C 0.83795 0.84132 0.06478 0.0
H797 H 0.76925 0.81427 0.94535 0.0
H798 H 0.78794 0.81597 0.97833 0.0
C799 C 0.85619 0.84817 0.08083 0.0
C800 C 0.78976 0.84959 0.0452 0.0
H801 H 0.76268 0.79711 0.01233 0.0
C802 C 0.78319 0.87718 0.03511 0.0
C803 C 0.7819 0.82038 0.03704 0.0
C804 C 0.7877 0.7901 0.04752 0.0
C805 C 0.77007 0.87637 0.01673 0.0
C806 C 0.7625 0.84711 0.00841 0.0
C807 C 0.76844 0.81951 0.01871 0.0
C808 C 0.74982 0.84469 0.98869 0.0
C809 C 0.76582 0.9068 0.00607 0.0
C810 C 0.72178 0.85969 0.98361 0.0
C811 C 0.71118 0.85907 0.9647 0.0
C812 C 0.72818 0.843 0.95053 0.0
C813 C 0.7556 0.82695 0.95585 0.0
C814 C 0.76631 0.82784 0.97472 0.0
H815 H 0.78014 0.92592 0.01234 0.0
H816 H 0.77229 0.90419 0.99078 0.0
H817 H 0.74089 0.91398 0.00684 0.0
H818 H 0.70823 0.87216 0.99425 0.0
H819 H 0.68974 0.87132 0.96119 0.0
H820 H 0.39967 0.63308 0.82805 0.0
H821 H 0.4099 0.60108 0.79985 0.0
H822 H 0.36827 0.52132 0.82768 0.0
H823 H 0.3576 0.55318 0.85602 0.0
H824 H 0.44195 0.54172 0.79368 0.0
H825 H 0.31383 0.53709 0.77918 0.0
H826 H 0.33076 0.56443 0.7959 0.0
H827 H 0.32634 0.52404 0.80238 0.0
C828 C 0.39309 0.60861 0.82836 0.0
C829 C 0.37742 0.59584 0.84426 0.0
C830 C 0.39904 0.59035 0.81221 0.0
C831 C 0.38936 0.55904 0.81159 0.0
C832 C 0.37552 0.54561 0.82782 0.0
H833 H 0.371 0.4385 0.71151 0.0
H834 H 0.37194 0.45815 0.74429 0.0
C835 C 0.36961 0.56384 0.84404 0.0
C836 C 0.39157 0.54143 0.79341 0.0
H837 H 0.3469 0.51239 0.75706 0.0
C838 C 0.42122 0.53505 0.7857 0.0
C839 C 0.36444 0.53286 0.78306 0.0
C840 C 0.33199 0.54008 0.7904 0.0
C841 C 0.42446 0.52038 0.76784 0.0
C842 C 0.39731 0.51258 0.75725 0.0
C843 C 0.36768 0.51836 0.76519 0.0
C844 C 0.39888 0.49959 0.7376 0.0
C845 C 0.45691 0.51323 0.76053 0.0
C846 C 0.41363 0.51642 0.72291 0.0
C847 C 0.41322 0.50523 0.70414 0.0
C848 C 0.39769 0.47714 0.69962 0.0
C849 C 0.3831 0.46026 0.71442 0.0
C850 C 0.38365 0.47141 0.7332 0.0
H851 H 0.47407 0.51148 0.77242 0.0
H852 H 0.4573 0.49102 0.7523 0.0
H853 H 0.46465 0.53243 0.75096 0.0
H854 H 0.42482 0.53863 0.72587 0.0
H855 H 0.42455 0.51895 0.69312 0.0
H856 H 0.73136 0.1787 0.44122 0.0
H857 H 0.71048 0.17882 0.47371 0.0
H858 H 0.7857 0.11866 0.49207 0.0
H859 H 0.80697 0.11839 0.4596 0.0
H860 H 0.69193 0.12367 0.49412 0.0
H861 H 0.78451 0.19035 0.53238 0.0
H862 H 0.7798 0.19191 0.50673 0.0
H863 H 0.79779 0.15846 0.51769 0.0
C864 C 0.74368 0.16566 0.45215 0.0
C865 C 0.77086 0.14847 0.44773 0.0
C866 C 0.7317 0.1658 0.47073 0.0
C867 C 0.74676 0.14907 0.48531 0.0
C868 C 0.77404 0.13216 0.48107 0.0
H869 H 0.69757 0.10472 0.60251 0.0
H870 H 0.72584 0.11454 0.57267 0.0
C871 C 0.786 0.13186 0.46246 0.0
C872 C 0.73269 0.14771 0.50464 0.0
H873 H 0.74461 0.16753 0.55139 0.0
C874 C 0.70335 0.1334 0.50664 0.0
C875 C 0.74785 0.16016 0.52092 0.0
C876 C 0.77914 0.17632 0.51942 0.0
C877 C 0.68881 0.13088 0.52453 0.0
C878 C 0.70368 0.14378 0.54082 0.0
C879 C 0.73318 0.1579 0.53886 0.0
C880 C 0.68889 0.14224 0.55996 0.0
C881 C 0.65799 0.11369 0.52589 0.0
C882 C 0.65948 0.15592 0.56307 0.0
C883 C 0.6432 0.15023 0.58002 0.0
C884 C 0.65624 0.13107 0.59431 0.0
C885 C 0.68686 0.1196 0.59182 0.0
C886 C 0.70302 0.1251 0.57474 0.0
H887 H 0.65403 0.09829 0.51332 0.0
H888 H 0.65692 0.09917 0.53903 0.0
H889 H 0.6386 0.13094 0.52642 0.0
H890 H 0.64851 0.16989 0.55203 0.0
H891 H 0.61983 0.15974 0.58158 0.0
H892 H 0.09811 0.36274 0.32689 0.0
H893 H 0.08879 0.39378 0.29815 0.0
H894 H 0.12955 0.47447 0.32546 0.0
H895 H 0.13926 0.44361 0.35432 0.0
H896 H 0.05652 0.45281 0.29128 0.0
H897 H 0.18475 0.45806 0.27736 0.0
H898 H 0.16778 0.43093 0.2942 0.0
H899 H 0.17192 0.47146 0.30042 0.0
C900 C 0.10471 0.38722 0.32695 0.0
C901 C 0.11977 0.40055 0.3429 0.0
C902 C 0.0993 0.40492 0.3105 0.0
C903 C 0.10895 0.43623 0.30959 0.0
C904 C 0.12233 0.45018 0.32581 0.0
H905 H 0.12701 0.55706 0.20961 0.0
H906 H 0.12649 0.53681 0.24226 0.0
C907 C 0.12768 0.43252 0.34233 0.0
C908 C 0.1069 0.45342 0.29125 0.0
H909 H 0.15181 0.48259 0.25504 0.0
C910 C 0.07731 0.45953 0.28338 0.0
C911 C 0.1341 0.46209 0.281 0.0
C912 C 0.16649 0.45517 0.28853 0.0
C913 C 0.07418 0.47411 0.26547 0.0
C914 C 0.10141 0.48208 0.255 0.0
C915 C 0.13097 0.47649 0.26308 0.0
C916 C 0.09994 0.49521 0.23537 0.0
C917 C 0.04177 0.48107 0.25803 0.0
C918 C 0.08533 0.47847 0.22059 0.0
C919 C 0.08548 0.49 0.20189 0.0
C920 C 0.1006 0.51838 0.19752 0.0
C921 C 0.11518 0.53511 0.2124 0.0
C922 C 0.11489 0.5236 0.23111 0.0
H923 H 0.02445 0.48263 0.26984 0.0
H924 H 0.04132 0.50333 0.24984 0.0
H925 H 0.03429 0.46187 0.24838 0.0
H926 H 0.07436 0.4561 0.22343 0.0
H927 H 0.07418 0.47637 0.19082 0.0
H928 H 0.76716 0.6025 0.54787 0.0
H929 H 0.74888 0.60442 0.51482 0.0
H930 H 0.75435 0.70531 0.51582 0.0
H931 H 0.77046 0.7034 0.54937 0.0
H932 H 0.70428 0.69149 0.49998 0.0
H933 H 0.79178 0.61546 0.46592 0.0
H934 H 0.77342 0.59398 0.48478 0.0
H935 H 0.79604 0.62855 0.49028 0.0
C936 C 0.76469 0.62504 0.54094 0.0
C937 C 0.77018 0.65279 0.55112 0.0
C938 C 0.7546 0.62615 0.52195 0.0
C939 C 0.75099 0.65499 0.51251 0.0
C940 C 0.75705 0.68274 0.52266 0.0
H941 H 0.69454 0.63305 0.39201 0.0
H942 H 0.72601 0.64962 0.41957 0.0
C943 C 0.76623 0.68165 0.54184 0.0
C944 C 0.73839 0.6562 0.49266 0.0
H945 H 0.74153 0.61918 0.44947 0.0
C946 C 0.71294 0.6761 0.48885 0.0
C947 C 0.75007 0.637 0.47776 0.0
C948 C 0.77958 0.61789 0.47987 0.0
C949 C 0.69766 0.67578 0.47111 0.0
C950 C 0.70699 0.65384 0.45705 0.0
C951 C 0.73378 0.63553 0.46034 0.0
C952 C 0.68767 0.64737 0.4398 0.0
C953 C 0.67155 0.69895 0.46776 0.0
C954 C 0.65568 0.64075 0.44189 0.0
C955 C 0.63763 0.63204 0.42619 0.0
C956 C 0.65127 0.62875 0.408 0.0
C957 C 0.68329 0.63553 0.4058 0.0
C958 C 0.7013 0.64491 0.42155 0.0
H959 H 0.67617 0.72119 0.47549 0.0
H960 H 0.66848 0.70428 0.45234 0.0
H961 H 0.64934 0.68924 0.47346 0.0
H962 H 0.64474 0.64117 0.45585 0.0
H963 H 0.6132 0.62644 0.42856 0.0
H964 H 0.13081 0.05623 0.79035 0.0
H965 H 0.13018 0.03576 0.7577 0.0
H966 H 0.0734 0.95802 0.77611 0.0
H967 H 0.07397 0.97804 0.80877 0.0
H968 H 0.12819 0.94168 0.75528 0.0
H969 H 0.05823 0.03271 0.71783 0.0
H970 H 0.09015 0.04676 0.73222 0.0
H971 H 0.05746 0.02787 0.74348 0.0
C972 C 0.11798 0.03488 0.78746 0.0
C973 C 0.10253 0.01874 0.80226 0.0
C974 C 0.11746 0.02338 0.76875 0.0
C975 C 0.10142 0.99561 0.76447 0.0
C976 C 0.08573 0.97962 0.77912 0.0
H977 H 0.09031 0.86896 0.66858 0.0
H978 H 0.0803 0.89812 0.69796 0.0
C979 C 0.08614 0.99111 0.7978 0.0
C980 C 0.10287 0.98187 0.74507 0.0
H981 H 0.08171 0.99357 0.6985 0.0
C982 C 0.1179 0.95294 0.74287 0.0
C983 C 0.0897 0.99683 0.72893 0.0
C984 C 0.07274 0.02766 0.73064 0.0
C985 C 0.12034 0.93857 0.72494 0.0
C986 C 0.10668 0.9532 0.70881 0.0
C987 C 0.09192 0.98234 0.71093 0.0
C988 C 0.10789 0.93834 0.6897 0.0
C989 C 0.13813 0.90813 0.72337 0.0
C990 C 0.125 0.95222 0.67482 0.0
C991 C 0.13046 0.93574 0.65785 0.0
C992 C 0.119 0.90509 0.65559 0.0
C993 C 0.09982 0.89235 0.66997 0.0
C994 C 0.09417 0.90891 0.6868 0.0
H995 H 0.15383 0.90435 0.73582 0.0
H996 H 0.12124 0.88842 0.72287 0.0
H997 H 0.15243 0.90746 0.71012 0.0
H998 H 0.13559 0.97503 0.67676 0.0
H999 H 0.14535 0.94622 0.64707 0.0
H1000 H 0.77435 0.32751 0.0595 0.0
H1001 H 0.79324 0.32655 0.02655 0.0
H1002 H 0.70711 0.36898 0.00751 0.0
H1003 H 0.68824 0.37073 0.04045 0.0
H1004 H 0.7699 0.29879 0.99383 0.0
H1005 H 0.7726 0.42817 0.98619 0.0
H1006 H 0.7676 0.40916 0.00899 0.0
H1007 H 0.73508 0.4127 0.99281 0.0
C1008 C 0.75937 0.33667 0.04833 0.0
C1009 C 0.7299 0.34956 0.0527 0.0
C1010 C 0.7702 0.336 0.02949 0.0
C1011 C 0.75181 0.34815 0.01462 0.0
C1012 C 0.722 0.36013 0.01882 0.0
H1013 H 0.79786 0.38237 0.8951 0.0
H1014 H 0.76787 0.37031 0.92392 0.0
C1015 C 0.71122 0.36103 0.03767 0.0
C1016 C 0.76419 0.34886 0.99482 0.0
H1017 H 0.78477 0.39855 0.95876 0.0
C1018 C 0.77307 0.32058 0.98612 0.0
C1019 C 0.76832 0.37732 0.9848 0.0
C1020 C 0.76069 0.4086 0.9937 0.0
C1021 C 0.78607 0.32005 0.96767 0.0
C1022 C 0.7905 0.34854 0.95779 0.0
C1023 C 0.78106 0.37671 0.96633 0.0
C1024 C 0.80704 0.35024 0.9392 0.0
C1025 C 0.79497 0.28906 0.95891 0.0
C1026 C 0.83881 0.34216 0.93806 0.0
C1027 C 0.85607 0.34906 0.92164 0.0
C1028 C 0.84191 0.36434 0.90604 0.0
C1029 C 0.80956 0.37055 0.90679 0.0
C1030 C 0.79235 0.36377 0.92328 0.0
H1031 H 0.78227 0.26933 0.96575 0.0
H1032 H 0.79002 0.28883 0.94333 0.0
H1033 H 0.82043 0.28513 0.96094 0.0
H1034 H 0.85073 0.33218 0.95029 0.0
H1035 H 0.8809 0.3439 0.92159 0.0
H1036 H 0.37832 0.13498 0.17828 0.0
H1037 H 0.39088 0.10353 0.20592 0.0
H1038 H 0.39745 0.02127 0.17039 0.0
H1039 H 0.38305 0.05277 0.14235 0.0
H1040 H 0.36587 0.00751 0.20045 0.0
H1041 H 0.4697 0.07012 0.22624 0.0
H1042 H 0.4388 0.09804 0.22365 0.0
H1043 H 0.45344 0.07756 0.2029 0.0
C1044 C 0.38302 0.11032 0.17612 0.0
C1045 C 0.3799 0.0965 0.15796 0.0
C1046 C 0.39049 0.09231 0.19205 0.0
C1047 C 0.39603 0.06009 0.19028 0.0
C1048 C 0.3936 0.04616 0.17212 0.0
H1049 H 0.44807 0.9804 0.30128 0.0
H1050 H 0.45065 0.99524 0.26755 0.0
C1051 C 0.38548 0.06419 0.15609 0.0
C1052 C 0.40157 0.04109 0.20779 0.0
H1053 H 0.43843 0.04434 0.25096 0.0
C1054 C 0.38226 0.01512 0.21134 0.0
C1055 C 0.42356 0.05021 0.22188 0.0
C1056 C 0.44775 0.07528 0.21832 0.0
C1057 C 0.38284 -0.00049 0.22902 0.0
C1058 C 0.40214 0.01113 0.24391 0.0
C1059 C 0.42296 0.03572 0.23986 0.0
C1060 C 0.40038 -0.00077 0.26393 0.0
C1061 C 0.36277 0.97071 0.23138 0.0
C1062 C 0.37135 0.99634 0.27329 0.0
C1063 C 0.36987 0.98683 0.2924 0.0
C1064 C 0.39745 0.98138 0.30276 0.0
C1065 C 0.42648 0.9847 0.29358 0.0
C1066 C 0.42792 0.99315 0.27431 0.0
H1067 H 0.36022 0.95809 0.21758 0.0
H1068 H 0.37273 0.95431 0.24208 0.0
H1069 H 0.33897 0.9778 0.23603 0.0
H1070 H 0.34977 0.0021 0.26599 0.0
H1071 H 0.34723 0.98475 0.29926 0.0
H1072 H 0.3733 0.33618 0.58386 0.0
H1073 H 0.34379 0.32565 0.55466 0.0
H1074 H 0.27002 0.38683 0.57398 0.0
H1075 H 0.29909 0.397 0.6035 0.0
H1076 H 0.24784 0.33396 0.55404 0.0
H1077 H 0.34239 0.39464 0.51422 0.0
H1078 H 0.35597 0.36201 0.52807 0.0
H1079 H 0.33966 0.39561 0.53994 0.0
C1080 C 0.35051 0.34692 0.58209 0.0
C1081 C 0.33874 0.36776 0.59589 0.0
C1082 C 0.33375 0.34099 0.56535 0.0
C1083 C 0.30516 0.35616 0.56194 0.0
C1084 C 0.29219 0.3751 0.57628 0.0
H1085 H 0.19116 0.38013 0.45963 0.0
H1086 H 0.21113 0.38124 0.49243 0.0
C1087 C 0.30881 0.38081 0.59317 0.0
C1088 C 0.29021 0.35422 0.54286 0.0
H1089 H 0.30326 0.36974 0.49565 0.0
C1090 C 0.25986 0.34186 0.54127 0.0
C1091 C 0.30584 0.36493 0.52625 0.0
C1092 C 0.33763 0.38034 0.52716 0.0
C1093 C 0.2451 0.3391 0.52337 0.0
C1094 C 0.26109 0.34915 0.50679 0.0
C1095 C 0.29122 0.36182 0.50842 0.0
C1096 C 0.24723 0.34669 0.48747 0.0
C1097 C 0.21282 0.32494 0.52223 0.0
C1098 C 0.26105 0.32701 0.47384 0.0
C1099 C 0.24979 0.32632 0.45511 0.0
C1100 C 0.22465 0.3456 0.44956 0.0
C1101 C 0.21058 0.36502 0.46337 0.0
C1102 C 0.22179 0.36555 0.48216 0.0
H1103 H 0.206 0.31325 0.53579 0.0
H1104 H 0.19552 0.34366 0.51917 0.0
H1105 H 0.2116 0.30763 0.51041 0.0
H1106 H 0.28085 0.31245 0.47766 0.0
H1107 H 0.26124 0.31108 0.44491 0.0
H1108 H 0.93173 0.02136 0.19048 0.0
H1109 H 0.93283 0.04246 0.22294 0.0
H1110 H 0.87342 0.96726 0.24215 0.0
H1111 H 0.87224 0.94577 0.20979 0.0
H1112 H 0.879 0.06141 0.24381 0.0
H1113 H 0.94527 0.9685 0.28191 0.0
H1114 H 0.94601 0.97267 0.25621 0.0
H1115 H 0.91283 0.95508 0.26774 0.0
C1116 C 0.91909 0.00909 0.2016 0.0
C1117 C 0.90183 0.98186 0.19745 0.0
C1118 C 0.91978 0.0212 0.22016 0.0
C1119 C 0.90355 0.00619 0.23498 0.0
C1120 C 0.88659 0.97886 0.23099 0.0
H1121 H 0.8577 0.05429 0.35191 0.0
H1122 H 0.86812 0.02657 0.32195 0.0
C1123 C 0.88576 0.96678 0.21242 0.0
C1124 C 0.9026 0.02037 0.2543 0.0
H1125 H 0.92176 0.00791 0.30111 0.0
C1126 C 0.88856 0.04984 0.25632 0.0
C1127 C 0.91482 0.00504 0.27059 0.0
C1128 C 0.93082 0.97367 0.26908 0.0
C1129 C 0.88592 0.06424 0.27426 0.0
C1130 C 0.89841 0.04909 0.29057 0.0
C1131 C 0.91241 0.01954 0.28857 0.0
C1132 C 0.89642 0.06354 0.3098 0.0
C1133 C 0.86896 0.09517 0.27564 0.0
C1134 C 0.9102 0.09279 0.31327 0.0
C1135 C 0.90417 0.10875 0.33029 0.0
C1136 C 0.88455 0.09557 0.3443 0.0
C1137 C 0.87291 0.06511 0.34144 0.0
C1138 C 0.87877 0.04926 0.3243 0.0
H1139 H 0.85394 0.09951 0.26294 0.0
H1140 H 0.85407 0.09613 0.28863 0.0
H1141 H 0.88637 0.11438 0.27649 0.0
H1142 H 0.92454 0.10387 0.30244 0.0
H1143 H 0.91382 0.132 0.33211 0.0
H1144 H 0.11666 0.65562 0.07945 0.0
H1145 H 0.1474 0.66679 0.05084 0.0
H1146 H 0.22835 0.62408 0.07675 0.0
H1147 H 0.19782 0.61256 0.10549 0.0
H1148 H 0.20797 0.69828 0.04381 0.0
H1149 H 0.20782 0.57054 0.0281 0.0
H1150 H 0.1816 0.58795 0.04531 0.0
H1151 H 0.22207 0.58209 0.05123 0.0
C1152 C 0.14116 0.64911 0.07928 0.0
C1153 C 0.15461 0.63279 0.09473 0.0
C1154 C 0.1587 0.65558 0.06289 0.0
C1155 C 0.18994 0.64578 0.06159 0.0
C1156 C 0.20412 0.63148 0.07743 0.0
H1157 H 0.30663 0.62549 0.96014 0.0
H1158 H 0.28743 0.6263 0.99301 0.0
C1159 C 0.18664 0.62507 0.09388 0.0
C1160 C 0.20658 0.64797 0.04307 0.0
H1161 H 0.23274 0.60331 0.00591 0.0
C1162 C 0.21361 0.67757 0.03554 0.0
C1163 C 0.21379 0.62086 0.03234 0.0
C1164 C 0.2058 0.58851 0.03951 0.0
C1165 C 0.22779 0.68077 0.01751 0.0
C1166 C 0.23435 0.65366 0.00658 0.0
C1167 C 0.22774 0.62407 0.0143 0.0
C1168 C 0.2471 0.65524 0.98685 0.0
C1169 C 0.23587 0.71313 0.01044 0.0
C1170 C 0.23077 0.67116 0.9724 0.0
C1171 C 0.24174 0.67086 0.95357 0.0
C1172 C 0.26907 0.65425 0.94873 0.0
C1173 C 0.28544 0.63843 0.96328 0.0
C1174 C 0.27455 0.63892 0.98212 0.0
H1175 H 0.23853 0.72989 0.02247 0.0
H1176 H 0.25787 0.71297 0.00199 0.0
H1177 H 0.21668 0.72177 0.00114 0.0
H1178 H 0.20909 0.68323 0.97559 0.0
H1179 H 0.22841 0.68315 0.94275 0.0
H1180 H 0.57655 0.97963 0.69331 0.0
H1181 H 0.57732 0.96045 0.72616 0.0
H1182 H 0.63063 0.04125 0.74355 0.0
H1183 H 0.6305 0.06046 0.71066 0.0
H1184 H 0.65596 0.9869 0.75646 0.0
H1185 H 0.52922 0.98886 0.77298 0.0
H1186 H 0.53794 0.96764 0.75151 0.0
H1187 H 0.54563 0.00901 0.75263 0.0
C1188 C 0.58822 0.99353 0.70412 0.0
C1189 C 0.60351 0.0216 0.69927 0.0
C1190 C 0.58841 0.98262 0.72295 0.0
C1191 C 0.60355 -0.00031 0.73739 0.0
C1192 C 0.61861 0.02782 0.73266 0.0
H1193 H 0.64704 0.9454 0.85565 0.0
H1194 H 0.63678 0.97763 0.82739 0.0
C1195 C 0.61854 0.03872 0.71381 0.0
C1196 C 0.60557 0.98704 0.75711 0.0
H1197 H 0.56162 0.95847 0.794 0.0
C1198 C 0.63535 0.98114 0.7648 0.0
C1199 C 0.57863 0.97954 0.76797 0.0
C1200 C 0.54606 0.98687 0.76094 0.0
C1201 C 0.63893 0.9667 0.78268 0.0
C1202 C 0.612 0.95834 0.79327 0.0
C1203 C 0.58221 0.96495 0.78583 0.0
C1204 C 0.61444 0.94053 0.81138 0.0
C1205 C 0.6715 0.95923 0.78972 0.0
C1206 C 0.604 0.90946 0.81203 0.0
C1207 C 0.60969 0.89102 0.82813 0.0
C1208 C 0.62586 0.90335 0.84398 0.0
C1209 C 0.6346 0.93511 0.84372 0.0
C1210 C 0.62895 0.95353 0.82754 0.0
H1211 H 0.6894 0.96208 0.77833 0.0
H1212 H 0.67757 0.97525 0.80164 0.0
H1213 H 0.67268 0.93488 0.79521 0.0
H1214 H 0.59262 0.89905 0.79974 0.0
H1215 H 0.60241 0.86675 0.82785 0.0
H1216 H 0.44584 0.17368 0.09922 0.0
H1217 H 0.4813 0.2049 0.07954 0.0
H1218 H 0.41114 0.21068 0.03536 0.0
H1219 H 0.3757 0.17836 0.05493 0.0
H1220 H 0.49751 0.2037 0.03209 0.0
H1221 H 0.43184 0.30217 0.06518 0.0
H1222 H 0.43279 0.26593 0.07833 0.0
H1223 H 0.41267 0.26771 0.05584 0.0
C1224 C 0.43857 0.18041 0.08496 0.0
C1225 C 0.40834 0.17356 0.07845 0.0
C1226 C 0.45872 0.19824 0.07375 0.0
C1227 C 0.44869 0.21005 0.05608 0.0
C1228 C 0.41928 0.20145 0.04889 0.0
H1229 H 0.57695 0.36248 0.06726 0.0
H1230 H 0.53589 0.33944 0.04682 0.0
C1231 C 0.39922 0.18296 0.06001 0.0
C1232 C 0.46734 0.23533 0.04739 0.0
H1233 H 0.48669 0.30944 0.06054 0.0
C1234 C 0.49463 0.22735 0.03744 0.0
C1235 C 0.46315 0.26638 0.05384 0.0
C1236 C 0.43344 0.27632 0.06379 0.0
C1237 C 0.51976 0.2484 0.0364 0.0
C1238 C 0.51776 0.27722 0.04632 0.0
C1239 C 0.48859 0.28708 0.05329 0.0
C1240 C 0.54601 0.29159 0.05496 0.0
C1241 C 0.54938 0.23826 0.02647 0.0
C1242 C 0.56518 0.27247 0.06628 0.0
C1243 C 0.58794 0.28542 0.07799 0.0
C1244 C 0.59215 0.31798 0.07886 0.0
C1245 C 0.57407 0.33731 0.06691 0.0
C1246 C 0.55082 0.32418 0.05517 0.0
H1247 H 0.54365 0.22598 0.01292 0.0
H1248 H 0.56491 0.25843 0.02327 0.0
H1249 H 0.56218 0.2214 0.03566 0.0
H1250 H 0.56138 0.24743 0.06701 0.0
H1251 H 0.60177 0.26978 0.08679 0.0
H1252 H 0.51962 0.6415 0.33634 0.0
H1253 H 0.49778 0.68365 0.31774 0.0
H1254 H 0.59059 0.7126 0.30087 0.0
H1255 H 0.61304 0.66992 0.32021 0.0
H1256 H 0.56017 0.75941 0.31582 0.0
H1257 H 0.47849 0.70845 0.26466 0.0
H1258 H 0.47211 0.68799 0.2866 0.0
H1259 H 0.50985 0.68556 0.27497 0.0
C1260 C 0.53554 0.65645 0.32846 0.0
C1261 C 0.56811 0.65278 0.33005 0.0
C1262 C 0.5229 0.68027 0.31741 0.0
C1263 C 0.5424 0.70102 0.30745 0.0
C1264 C 0.57505 0.69656 0.30819 0.0
H1265 H 0.43078 0.87394 0.306 0.0
H1266 H 0.46344 0.8369 0.28779 0.0
C1267 C 0.58785 0.67234 0.31929 0.0
C1268 C 0.52826 0.73024 0.29992 0.0
H1269 H 0.45601 0.75335 0.2847 0.0
C1270 C 0.5382 0.75855 0.30807 0.0
C1271 C 0.4999 0.72964 0.28942 0.0
C1272 C 0.4898 0.70122 0.27825 0.0
C1273 C 0.51804 0.78438 0.3089 0.0
C1274 C 0.48737 0.78152 0.30155 0.0
C1275 C 0.47933 0.75516 0.29073 0.0
C1276 C 0.46214 0.80104 0.30956 0.0
C1277 C 0.52808 0.8131 0.31983 0.0
C1278 C 0.44981 0.79242 0.32737 0.0
C1279 C 0.43173 0.81346 0.3378 0.0
C1280 C 0.4252 0.8432 0.33039 0.0
C1281 C 0.43513 0.85084 0.3118 0.0
C1282 C 0.45384 0.82986 0.30145 0.0
H1283 H 0.55394 0.81431 0.32138 0.0
H1284 H 0.51973 0.83463 0.31255 0.0
H1285 H 0.51754 0.81253 0.33433 0.0
H1286 H 0.45617 0.77026 0.33384 0.0
H1287 H 0.42454 0.80726 0.35216 0.0
H1288 H 0.94344 0.67464 0.60301 0.0
H1289 H 0.98253 0.70155 0.58379 0.0
H1290 H 0.92309 0.69377 0.53414 0.0
H1291 H 0.88351 0.66648 0.55358 0.0
H1292 H 0.01553 0.69225 0.54808 0.0
H1293 H 0.92805 0.78915 0.54569 0.0
H1294 H 0.92189 0.75627 0.56139 0.0
H1295 H 0.9187 0.75124 0.536 0.0
C1296 C 0.93914 0.67771 0.58785 0.0
C1297 C 0.91047 0.66878 0.57978 0.0
C1298 C 0.96151 0.69301 0.57685 0.0
C1299 C 0.95551 0.70004 0.55761 0.0
C1300 C 0.92803 0.68875 0.54901 0.0
H1301 H 0.11271 0.82956 0.55254 0.0
H1302 H 0.0735 0.80101 0.53343 0.0
C1303 C 0.9056 0.673 0.56007 0.0
C1304 C 0.97602 0.72338 0.54824 0.0
H1305 H 0.98101 0.80295 0.5469 0.0
C1306 C 0.00802 0.71641 0.54683 0.0
C1307 C 0.96601 0.75482 0.54644 0.0
C1308 C 0.93182 0.76358 0.54742 0.0
C1309 C 0.03053 0.74034 0.54669 0.0
C1310 C 0.02052 0.77186 0.54784 0.0
C1311 C 0.98853 0.77874 0.54616 0.0
C1312 C 0.04089 0.79564 0.55688 0.0
C1313 C 0.06471 0.73165 0.54797 0.0
C1314 C 0.03469 0.80347 0.57598 0.0
C1315 C 0.05683 0.81945 0.58679 0.0
C1316 C 0.08546 0.82828 0.57864 0.0
C1317 C 0.0906 0.82315 0.55904 0.0
C1318 C 0.06839 0.8067 0.54819 0.0
H1319 H 0.06853 0.70603 0.54664 0.0
H1320 H 0.07797 0.74355 0.53643 0.0
H1321 H 0.07446 0.73954 0.56187 0.0
H1322 H 0.01367 0.7951 0.583 0.0
H1323 H 0.05241 0.82316 0.60187 0.0
H1324 H 0.97578 0.35529 0.83558 0.0
H1325 H 0.99896 0.31464 0.81637 0.0
H1326 H 0.90728 0.28545 0.79745 0.0
H1327 H 0.88344 0.32663 0.81739 0.0
H1328 H 0.93801 0.23812 0.8118 0.0
H1329 H 0.02066 0.29346 0.76301 0.0
H1330 H 0.02561 0.31299 0.7854 0.0
H1331 H 0.98832 0.31509 0.7732 0.0
C1332 C 0.96039 0.34062 0.82713 0.0
C1333 C 0.92772 0.34376 0.82829 0.0
C1334 C 0.97381 0.31769 0.81574 0.0
C1335 C 0.95502 0.29731 0.805 0.0
C1336 C 0.92229 0.30124 0.80536 0.0
H1337 H 0.07086 0.12778 0.80488 0.0
H1338 H 0.0379 0.16344 0.78582 0.0
C1339 C 0.9087 0.3246 0.8168 0.0
C1340 C 0.96993 0.26881 0.79701 0.0
H1341 H 0.0435 0.24833 0.78285 0.0
C1342 C 0.96032 0.23989 0.80447 0.0
C1343 C 0.99873 0.27058 0.78702 0.0
C1344 C 0.0086 0.29976 0.77654 0.0
C1345 C 0.98115 0.21458 0.8053 0.0
C1346 C 0.01212 0.21862 0.79866 0.0
C1347 C 0.01992 0.24559 0.78835 0.0
C1348 C 0.03751 0.19995 0.80721 0.0
C1349 C 0.97139 0.18518 0.81563 0.0
C1350 C 0.04893 0.20937 0.8251 0.0
C1351 C 0.06714 0.1891 0.836 0.0
C1352 C 0.07476 0.15938 0.82898 0.0
C1353 C 0.06567 0.15092 0.81037 0.0
C1354 C 0.04681 0.1711 0.79954 0.0
H1355 H 0.94551 0.1833 0.8168 0.0
H1356 H 0.98052 0.16419 0.80813 0.0
H1357 H 0.9814 0.18536 0.83028 0.0
H1358 H 0.04175 0.23152 0.83125 0.0
H1359 H 0.07363 0.19586 0.85039 0.0
H1360 H 0.61293 0.83262 0.94693 0.0
H1361 H 0.57359 0.80608 0.96696 0.0
H1362 H 0.51503 0.79331 0.91731 0.0
H1363 H 0.55393 0.81933 0.8975 0.0
H1364 H 0.48178 0.8059 0.95332 0.0
H1365 H 0.5693 0.70928 0.95755 0.0
H1366 H 0.5786 0.74805 0.96594 0.0
H1367 H 0.57529 0.74073 0.94077 0.0
C1368 C 0.59107 0.82513 0.94054 0.0
C1369 C 0.58639 0.8277 0.9207 0.0
C1370 C 0.56879 0.80985 0.95194 0.0
C1371 C 0.54161 0.79748 0.94356 0.0
C1372 C 0.53581 0.80276 0.92408 0.0
H1373 H 0.44635 0.67741 0.89887 0.0
H1374 H 0.48468 0.70451 0.91857 0.0
C1375 C 0.55806 0.81754 0.91274 0.0
C1376 C 0.52126 0.77473 0.95352 0.0
H1377 H 0.51629 0.69523 0.95533 0.0
C1378 C 0.48927 0.78177 0.95482 0.0
C1379 C 0.53125 0.74337 0.9557 0.0
C1380 C 0.56546 0.73465 0.95498 0.0
C1381 C 0.46677 0.75785 0.95501 0.0
C1382 C 0.47681 0.72633 0.95397 0.0
C1383 C 0.50875 0.71945 0.95596 0.0
C1384 C 0.45683 0.70279 0.94443 0.0
C1385 C 0.4326 0.76651 0.95353 0.0
C1386 C 0.42914 0.69136 0.95269 0.0
C1387 C 0.40719 0.67546 0.94137 0.0
C1388 C 0.41276 0.67128 0.92172 0.0
C1389 C 0.44159 0.68041 0.91398 0.0
C1390 C 0.4635 0.69581 0.92526 0.0
H1391 H 0.42872 0.79207 0.95516 0.0
H1392 H 0.42327 0.75912 0.93942 0.0
H1393 H 0.41905 0.75416 0.96476 0.0
H1394 H 0.42367 0.69643 0.96748 0.0
H1395 H 0.38493 0.66879 0.94757 0.0
H1396 H 0.41401 0.36139 0.69826 0.0
H1397 H 0.44231 0.32312 0.71819 0.0
H1398 H 0.453 0.26307 0.66904 0.0
H1399 H 0.42531 0.30096 0.64932 0.0
H1400 H 0.44322 0.2309 0.70591 0.0
H1401 H 0.53861 0.31999 0.70632 0.0
H1402 H 0.50025 0.32899 0.71554 0.0
H1403 H 0.50596 0.32489 0.69026 0.0
C1404 C 0.42142 0.33941 0.692 0.0
C1405 C 0.41777 0.334 0.6723 0.0
C1406 C 0.43768 0.31774 0.70334 0.0
C1407 C 0.44995 0.29045 0.69503 0.0
C1408 C 0.44361 0.28392 0.67576 0.0
H1409 H 0.56695 0.19527 0.64782 0.0
H1410 H 0.53967 0.23327 0.66768 0.0
C1411 C 0.42788 0.30558 0.66447 0.0
C1412 C 0.47371 0.27086 0.70468 0.0
H1413 H 0.55337 0.26716 0.70406 0.0
C1414 C 0.46732 0.23882 0.7066 0.0
C1415 C 0.50506 0.28139 0.7058 0.0
C1416 C 0.51314 0.31568 0.70444 0.0
C1417 C 0.49162 0.21673 0.70635 0.0
C1418 C 0.52282 0.22721 0.70417 0.0
C1419 C 0.52935 0.25928 0.70556 0.0
C1420 C 0.54577 0.20736 0.69402 0.0
C1421 C 0.48351 0.1824 0.70558 0.0
C1422 C 0.55945 0.18083 0.70242 0.0
C1423 C 0.57549 0.15911 0.691 0.0
C1424 C 0.57747 0.16368 0.67113 0.0
C1425 C 0.56566 0.19129 0.6631 0.0
C1426 C 0.55018 0.21302 0.67445 0.0
H1427 H 0.45832 0.17809 0.70855 0.0
H1428 H 0.48911 0.17294 0.6912 0.0
H1429 H 0.49768 0.16932 0.71621 0.0
H1430 H 0.55627 0.17612 0.7175 0.0
H1431 H 0.58424 0.13777 0.69743 0.0
H1432 H 0.04729 0.3275 0.40002 0.0
H1433 H 0.00845 0.30184 0.42004 0.0
H1434 H 0.07272 0.30335 0.46763 0.0
H1435 H 0.11176 0.32982 0.44746 0.0
H1436 H 0.05527 0.244 0.45695 0.0
H1437 H 0.94864 0.31457 0.46443 0.0
H1438 H 0.96324 0.31894 0.44057 0.0
H1439 H 0.98668 0.33208 0.46048 0.0
C1440 C 0.05257 0.32365 0.41499 0.0
C1441 C 0.08231 0.3306 0.42227 0.0
C1442 C 0.0303 0.30917 0.4265 0.0
C1443 C 0.03751 0.30098 0.44544 0.0
C1444 C 0.06653 0.3099 0.45316 0.0
H1445 H 0.88391 0.17233 0.44807 0.0
H1446 H 0.92183 0.20079 0.46805 0.0
C1447 C 0.08872 0.32504 0.44167 0.0
C1448 C 0.0175 0.2774 0.45497 0.0
H1449 H 0.94018 0.25851 0.45533 0.0
C1450 C 0.0301 0.24733 0.45753 0.0
C1451 C 0.98479 0.28166 0.45637 0.0
C1452 C 0.97016 0.31371 0.45553 0.0
C1453 C 0.01059 0.22096 0.45798 0.0
C1454 C 0.97799 0.225 0.45566 0.0
C1455 C 0.96528 0.25528 0.45662 0.0
C1456 C 0.95853 0.20035 0.44672 0.0
C1457 C 0.02522 0.18891 0.45888 0.0
C1458 C 0.96693 0.1899 0.42838 0.0
C1459 C 0.94531 0.17427 0.41697 0.0
C1460 C 0.91506 0.16838 0.42378 0.0
C1461 C 0.90739 0.17623 0.4427 0.0
C1462 C 0.92894 0.19251 0.45408 0.0
H1463 H 0.04613 0.18912 0.46832 0.0
H1464 H 0.00837 0.17113 0.46418 0.0
H1465 H 0.03315 0.182 0.44437 0.0
H1466 H 0.98924 0.19637 0.42217 0.0
H1467 H 0.95149 0.16873 0.40233 0.0
H1468 H 0.11613 0.67372 0.18321 0.0
H1469 H 0.09401 0.715 0.20385 0.0
H1470 H 0.0009 0.68697 0.18697 0.0
H1471 H 0.02243 0.64635 0.16704 0.0
H1472 H 0.06259 0.76284 0.19027 0.0
H1473 H 0.98288 0.70786 0.24096 0.0
H1474 H 0.01465 0.68618 0.23013 0.0
H1475 H 0.97667 0.68811 0.21875 0.0
C1476 C 0.09096 0.67605 0.1844 0.0
C1477 C 0.071 0.65727 0.17327 0.0
C1478 C 0.07835 0.69945 0.19624 0.0
C1479 C 0.04571 0.70371 0.19738 0.0
C1480 C 0.02604 0.68367 0.187 0.0
H1481 H 0.92424 0.80103 0.15395 0.0
H1482 H 0.95651 0.76653 0.17363 0.0
C1483 C 0.03848 0.66076 0.17519 0.0
C1484 C 0.03155 0.73226 0.20581 0.0
H1485 H 0.9587 0.75263 0.22129 0.0
C1486 C 0.0407 0.76112 0.19806 0.0
C1487 C 0.00336 0.73055 0.21641 0.0
C1488 C 0.99416 0.70145 0.2272 0.0
C1489 C 0.01972 0.78633 0.19748 0.0
C1490 C 0.98909 0.78222 0.20469 0.0
C1491 C 0.98198 0.75541 0.21534 0.0
C1492 C 0.96314 0.80033 0.1963 0.0
C1493 C 0.02878 0.81558 0.18675 0.0
C1494 C 0.95499 0.8301 0.20309 0.0
C1495 C 0.93589 0.84963 0.19199 0.0
C1496 C 0.92543 0.8396 0.17394 0.0
C1497 C 0.93178 0.80902 0.16791 0.0
C1498 C 0.95021 0.7894 0.17912 0.0
H1499 H 0.05451 0.81722 0.18465 0.0
H1500 H 0.01734 0.81551 0.1725 0.0
H1501 H 0.02063 0.83667 0.19456 0.0
H1502 H 0.96507 0.83894 0.21623 0.0
H1503 H 0.93169 0.87342 0.19669 0.0
H1504 H 0.25726 0.26494 0.09136 0.0
H1505 H 0.24599 0.32067 0.08922 0.0
H1506 H 0.33352 0.34172 0.11711 0.0
H1507 H 0.34501 0.28576 0.11948 0.0
H1508 H 0.28233 0.36594 0.13562 0.0
H1509 H 0.27598 0.39636 0.05907 0.0
H1510 H 0.25448 0.36128 0.06415 0.0
H1511 H 0.29626 0.36198 0.06765 0.0
C1512 C 0.27454 0.28137 0.09663 0.0
C1513 C 0.30187 0.27083 0.10579 0.0
C1514 C 0.26818 0.31331 0.09521 0.0
C1515 C 0.28905 0.33537 0.10284 0.0
C1516 C 0.31723 0.32506 0.111 0.0
H1517 H 0.21353 0.52047 0.13588 0.0
H1518 H 0.25451 0.48244 0.12784 0.0
C1519 C 0.32373 0.29305 0.11233 0.0
C1520 C 0.27882 0.3683 0.10496 0.0
H1521 H 0.24333 0.42746 0.08043 0.0
C1522 C 0.27464 0.37991 0.12355 0.0
C1523 C 0.26889 0.38642 0.08919 0.0
C1524 C 0.27445 0.37598 0.06889 0.0
C1525 C 0.2582 0.4078 0.12688 0.0
C1526 C 0.24618 0.42473 0.11113 0.0
C1527 C 0.25248 0.41435 0.09248 0.0
C1528 C 0.223 0.4501 0.11384 0.0
C1529 C 0.25165 0.41753 0.14723 0.0
C1530 C 0.19205 0.44502 0.10798 0.0
C1531 C 0.16871 0.46657 0.11248 0.0
C1532 C 0.17581 0.49378 0.12294 0.0
C1533 C 0.2072 0.49964 0.12796 0.0
C1534 C 0.23063 0.47793 0.12343 0.0
H1535 H 0.25908 0.39949 0.15773 0.0
H1536 H 0.2645 0.43947 0.15044 0.0
H1537 H 0.22627 0.42214 0.14924 0.0
H1538 H 0.18568 0.4237 0.10055 0.0
H1539 H 0.14492 0.4614 0.10815 0.0
H1540 H 0.22665 0.44535 0.36149 0.0
H1541 H 0.26748 0.48069 0.3492 0.0
H1542 H 0.33841 0.42149 0.3742 0.0
H1543 H 0.29826 0.38581 0.38556 0.0
H1544 H 0.31079 0.5155 0.36499 0.0
H1545 H 0.37173 0.42796 0.32147 0.0
H1546 H 0.33344 0.42062 0.3314 0.0
H1547 H 0.36832 0.41254 0.34515 0.0
C1548 C 0.25102 0.43998 0.36424 0.0
C1549 C 0.25939 0.41265 0.37419 0.0
C1550 C 0.27427 0.46007 0.35719 0.0
C1551 C 0.30608 0.45315 0.36019 0.0
C1552 C 0.31416 0.42662 0.37093 0.0
H1553 H 0.46351 0.55627 0.38487 0.0
H1554 H 0.40975 0.53979 0.37955 0.0
C1555 C 0.29115 0.40636 0.37759 0.0
C1556 C 0.33131 0.47383 0.35296 0.0
H1557 H 0.40526 0.46896 0.33521 0.0
C1558 C 0.33119 0.5056 0.35802 0.0
C1559 C 0.35737 0.46151 0.343 0.0
C1560 C 0.35747 0.42887 0.33474 0.0
C1561 C 0.35781 0.52437 0.35526 0.0
C1562 C 0.38564 0.51052 0.34815 0.0
C1563 C 0.38444 0.47969 0.34119 0.0
C1564 C 0.41692 0.52558 0.35008 0.0
C1565 C 0.35579 0.5586 0.36034 0.0
C1566 C 0.43948 0.52267 0.33551 0.0
C1567 C 0.47073 0.53066 0.33894 0.0
C1568 C 0.47971 0.54266 0.35677 0.0
C1569 C 0.45696 0.5475 0.37089 0.0
C1570 C 0.42603 0.53844 0.36773 0.0
H1571 H 0.33241 0.5681 0.35649 0.0
H1572 H 0.35849 0.5614 0.37603 0.0
H1573 H 0.374 0.57264 0.35296 0.0
H1574 H 0.43323 0.51284 0.32176 0.0
H1575 H 0.48799 0.5268 0.32784 0.0
H1576 H 0.23523 0.73264 0.58876 0.0
H1577 H 0.2476 0.67719 0.58763 0.0
H1578 H 0.16369 0.65628 0.61946 0.0
H1579 H 0.15131 0.7122 0.62098 0.0
H1580 H 0.21534 0.63408 0.63666 0.0
H1581 H 0.21932 0.59884 0.56097 0.0
H1582 H 0.24098 0.63429 0.56443 0.0
H1583 H 0.19938 0.63386 0.56882 0.0
C1584 C 0.21891 0.71626 0.59511 0.0
C1585 C 0.19248 0.72691 0.60518 0.0
C1586 C 0.22586 0.68442 0.59426 0.0
C1587 C 0.20643 0.66248 0.60329 0.0
C1588 C 0.17889 0.67281 0.61227 0.0
H1589 H 0.28489 0.47942 0.63769 0.0
H1590 H 0.24429 0.51772 0.6296 0.0
C1591 C 0.17183 0.70478 0.61309 0.0
C1592 C 0.21791 0.63003 0.60601 0.0
H1593 H 0.25497 0.57075 0.5824 0.0
C1594 C 0.22314 0.61971 0.6248 0.0
C1595 C 0.22809 0.61132 0.59054 0.0
C1596 C 0.22132 0.62005 0.57007 0.0
C1597 C 0.24063 0.59261 0.62853 0.0
C1598 C 0.25284 0.57523 0.61304 0.0
C1599 C 0.24575 0.58429 0.59425 0.0
C1600 C 0.27622 0.55019 0.61611 0.0
C1601 C 0.2479 0.58407 0.64899 0.0
C1602 C 0.30737 0.55542 0.61069 0.0
C1603 C 0.33059 0.53373 0.61529 0.0
C1604 C 0.32309 0.50622 0.62535 0.0
C1605 C 0.29155 0.50043 0.63005 0.0
C1606 C 0.26831 0.52227 0.62548 0.0
H1607 H 0.2399 0.60225 0.65924 0.0
H1608 H 0.23605 0.56175 0.65263 0.0
H1609 H 0.27348 0.58057 0.65089 0.0
H1610 H 0.31391 0.57686 0.60345 0.0
H1611 H 0.35452 0.53889 0.61127 0.0
H1612 H 0.00583 0.50076 0.84423 0.0
H1613 H 0.06103 0.51412 0.84178 0.0
H1614 H 0.08603 0.42561 0.86717 0.0
H1615 H 0.0306 0.41209 0.86997 0.0
H1616 H 0.11057 0.47488 0.88621 0.0
H1617 H 0.13522 0.48918 0.80932 0.0
H1618 H 0.10052 0.51009 0.81601 0.0
H1619 H 0.10144 0.46805 0.818 0.0
C1620 C 0.02299 0.48376 0.84893 0.0
C1621 C 0.01368 0.45548 0.8575 0.0
C1622 C 0.05465 0.49133 0.84733 0.0
C1623 C 0.07769 0.47071 0.85408 0.0
C1624 C 0.06861 0.44176 0.86174 0.0
H1625 H 0.26588 0.54202 0.88385 0.0
H1626 H 0.22622 0.50281 0.87559 0.0
C1627 C 0.03689 0.43411 0.86334 0.0
C1628 C 0.1105 0.4816 0.85571 0.0
H1629 H 0.16752 0.52015 0.83098 0.0
C1630 C 0.12349 0.48398 0.87408 0.0
C1631 C 0.12731 0.49338 0.83986 0.0
C1632 C 0.1155 0.48973 0.81968 0.0
C1633 C 0.15156 0.5002 0.87724 0.0
C1634 C 0.16721 0.51395 0.86153 0.0
C1635 C 0.15536 0.50968 0.843 0.0
C1636 C 0.19309 0.53645 0.86441 0.0
C1637 C 0.16298 0.50451 0.89749 0.0
C1638 C 0.18797 0.56809 0.86023 0.0
C1639 C 0.21044 0.59046 0.86487 0.0
C1640 C 0.23863 0.58165 0.87378 0.0
C1641 C 0.24434 0.54966 0.87715 0.0
C1642 C 0.22171 0.52722 0.87249 0.0
H1643 H 0.14578 0.49598 0.9082 0.0
H1644 H 0.18511 0.49131 0.89949 0.0
H1645 H 0.16788 0.52959 0.90038 0.0
H1646 H 0.16601 0.57566 0.85398 0.0
H1647 H 0.20531 0.61479 0.86186 0.0
H1648 H 0.72892 0.7225 0.91249 0.0
H1649 H 0.73712 0.66621 0.91289 0.0
H1650 H 0.65173 0.65266 0.88107 0.0
H1651 H 0.64359 0.70939 0.88015 0.0
H1652 H 0.70472 0.61201 0.92369 0.0
H1653 H 0.71915 0.62047 0.84458 0.0
H1654 H 0.71649 0.65481 0.85944 0.0
H1655 H 0.68208 0.63209 0.85443 0.0
C1656 C 0.71148 0.70764 0.90586 0.0
C1657 C 0.68599 0.72057 0.89587 0.0
C1658 C 0.71615 0.67537 0.90619 0.0
C1659 C 0.69544 0.65533 0.89661 0.0
C1660 C 0.66834 0.66782 0.8882 0.0
H1661 H 0.77728 0.47642 0.85995 0.0
H1662 H 0.73405 0.512 0.86782 0.0
C1663 C 0.66366 0.70025 0.8878 0.0
C1664 C 0.70488 0.62234 0.89355 0.0
H1665 H 0.73676 0.57505 0.8594 0.0
C1666 C 0.71103 0.60355 0.90959 0.0
C1667 C 0.71297 0.61126 0.87512 0.0
C1668 C 0.70757 0.63064 0.85737 0.0
C1669 C 0.727 0.575 0.90779 0.0
C1670 C 0.73737 0.56526 0.88955 0.0
C1671 C 0.72882 0.58265 0.87337 0.0
C1672 C 0.76138 0.54055 0.88715 0.0
C1673 C 0.73388 0.5562 0.92554 0.0
C1674 C 0.79094 0.54474 0.89548 0.0
C1675 C 0.81563 0.52478 0.8909 0.0
C1676 C 0.81134 0.50016 0.87783 0.0
C1677 C 0.78134 0.49513 0.87009 0.0
C1678 C 0.75661 0.51538 0.87459 0.0
H1679 H 0.71559 0.55998 0.93659 0.0
H1680 H 0.73541 0.5308 0.92232 0.0
H1681 H 0.75659 0.56392 0.93164 0.0
H1682 H 0.79539 0.56444 0.90484 0.0
H1683 H 0.83835 0.52924 0.89722 0.0
H1684 H 0.69513 0.60563 0.61235 0.0
H1685 H 0.65585 0.56792 0.62245 0.0
H1686 H 0.72766 0.51116 0.64853 0.0
H1687 H 0.76764 0.54855 0.63764 0.0
H1688 H 0.68601 0.47495 0.63124 0.0
H1689 H 0.62126 0.55985 0.67503 0.0
H1690 H 0.62483 0.57507 0.6513 0.0
H1691 H 0.65953 0.56843 0.66547 0.0
C1692 C 0.70264 0.58518 0.62028 0.0
C1693 C 0.73442 0.58025 0.62442 0.0
C1694 C 0.6801 0.56371 0.62617 0.0
C1695 C 0.68863 0.53724 0.63684 0.0
C1696 C 0.72049 0.53166 0.64054 0.0
H1697 H 0.51314 0.45509 0.67416 0.0
H1698 H 0.5679 0.4709 0.67795 0.0
C1699 C 0.74327 0.55297 0.6343 0.0
C1700 C 0.66391 0.51551 0.64363 0.0
H1701 H 0.59051 0.51651 0.6625 0.0
C1702 C 0.66535 0.48379 0.63846 0.0
C1703 C 0.6375 0.52657 0.65379 0.0
C1704 C 0.63591 0.55926 0.66191 0.0
C1705 C 0.63988 0.46361 0.64167 0.0
C1706 C 0.6118 0.47586 0.64949 0.0
C1707 C 0.61158 0.50691 0.65614 0.0
C1708 C 0.58146 0.45862 0.64903 0.0
C1709 C 0.64342 0.42956 0.63646 0.0
C1710 C 0.57101 0.44488 0.63191 0.0
C1711 C 0.5401 0.43464 0.63006 0.0
C1712 C 0.51875 0.43906 0.64504 0.0
C1713 C 0.52934 0.45134 0.66246 0.0
C1714 C 0.56057 0.46051 0.66456 0.0
H1715 H 0.66769 0.42145 0.63933 0.0
H1716 H 0.62692 0.41447 0.64454 0.0
H1717 H 0.63913 0.42659 0.62092 0.0
H1718 H 0.58596 0.44409 0.61944 0.0
H1719 H 0.53224 0.42581 0.61636 0.0
H1720 H 0.76604 0.26687 0.411 0.0
H1721 H 0.75428 0.32256 0.41195 0.0
H1722 H 0.84233 0.34288 0.38449 0.0
H1723 H 0.85416 0.28682 0.38308 0.0
H1724 H 0.78282 0.37788 0.42543 0.0
H1725 H 0.77693 0.37354 0.34581 0.0
H1726 H 0.77961 0.3385 0.36007 0.0
H1727 H 0.81342 0.36291 0.35684 0.0
C1728 C 0.78327 0.28312 0.40546 0.0
C1729 C 0.81075 0.27228 0.39657 0.0
C1730 C 0.77653 0.31502 0.4061 0.0
C1731 C 0.7971 0.33677 0.3979 0.0
C1732 C 0.82587 0.32637 0.39056 0.0
H1733 H 0.71522 0.51656 0.36236 0.0
H1734 H 0.75754 0.48017 0.37065 0.0
C1735 C 0.83266 0.29433 0.38988 0.0
C1736 C 0.78624 0.3694 0.39516 0.0
H1737 H 0.75642 0.41767 0.36081 0.0
C1738 C 0.77768 0.38695 0.4113 0.0
C1739 C 0.77964 0.38125 0.37669 0.0
C1740 C 0.78765 0.36313 0.35881 0.0
C1741 C 0.76104 0.41512 0.40947 0.0
C1742 C 0.75239 0.42569 0.39106 0.0
C1743 C 0.76306 0.40945 0.37491 0.0
C1744 C 0.72845 0.45037 0.38824 0.0
C1745 C 0.75185 0.4327 0.4273 0.0
C1746 C 0.69815 0.4457 0.39541 0.0
C1747 C 0.67398 0.46618 0.39061 0.0
C1748 C 0.67952 0.49179 0.37844 0.0
C1749 C 0.71016 0.49711 0.37179 0.0
C1750 C 0.73438 0.47638 0.37652 0.0
H1751 H 0.76894 0.42857 0.43901 0.0
H1752 H 0.75018 0.45825 0.42459 0.0
H1753 H 0.72867 0.42423 0.43225 0.0
H1754 H 0.69282 0.42539 0.40407 0.0
H1755 H 0.65074 0.46141 0.39607 0.0
H1756 H 0.78409 0.39865 0.14473 0.0
H1757 H 0.8209 0.44009 0.15245 0.0
H1758 H 0.76735 0.50525 0.11858 0.0
H1759 H 0.73017 0.4635 0.11054 0.0
H1760 H 0.82938 0.50253 0.10854 0.0
H1761 H 0.8204 0.51676 0.18666 0.0
H1762 H 0.8236 0.47622 0.18035 0.0
H1763 H 0.78999 0.49837 0.17263 0.0
C1764 C 0.77976 0.42187 0.13911 0.0
C1765 C 0.75431 0.42767 0.12686 0.0
C1766 C 0.80066 0.44568 0.14377 0.0
C1767 C 0.79658 0.4759 0.13637 0.0
C1768 C 0.77067 0.48215 0.12462 0.0
H1769 H 0.96327 0.59702 0.13039 0.0
H1770 H 0.90706 0.58617 0.1319 0.0
C1771 C 0.74951 0.45827 0.12002 0.0
C1772 C 0.8219 0.49919 0.13888 0.0
H1773 H 0.87168 0.52804 0.17271 0.0
C1774 C 0.83815 0.50903 0.12253 0.0
C1775 C 0.83319 0.50765 0.15716 0.0
C1776 C 0.81564 0.49944 0.17517 0.0
C1777 C 0.86701 0.52449 0.12401 0.0
C1778 C 0.87955 0.53071 0.14235 0.0
C1779 C 0.86207 0.5231 0.15867 0.0
C1780 C 0.91254 0.54046 0.14473 0.0
C1781 C 0.88503 0.53168 0.10596 0.0
C1782 C 0.93402 0.51908 0.15242 0.0
C1783 C 0.96607 0.52518 0.15167 0.0
C1784 C 0.97727 0.55284 0.14318 0.0
C1785 C 0.9555 0.57533 0.13684 0.0
C1786 C 0.92336 0.56917 0.13762 0.0
H1787 H 0.8738 0.52151 0.09306 0.0
H1788 H 0.88642 0.55741 0.10401 0.0
H1789 H 0.9093 0.52251 0.10699 0.0
H1790 H 0.92609 0.49682 0.15804 0.0
H1791 H 0.98206 0.50748 0.1569 0.0
H1792 H 0.85049 0.78823 0.6165 0.0
H1793 H 0.84016 0.84467 0.61518 0.0
H1794 H 0.75 0.82659 0.58971 0.0
H1795 H 0.76028 0.77065 0.59056 0.0
H1796 H 0.77881 0.88092 0.57551 0.0
H1797 H 0.77809 0.87709 0.65524 0.0
H1798 H 0.81356 0.8658 0.64327 0.0
H1799 H 0.77918 0.8419 0.64105 0.0
C1800 C 0.82885 0.79635 0.61013 0.0
C1801 C 0.80591 0.77494 0.604 0.0
C1802 C 0.82291 0.82858 0.60951 0.0
C1803 C 0.79401 0.83971 0.60276 0.0
C1804 C 0.77238 0.8185 0.59508 0.0
H1805 H 0.64823 0.96384 0.60796 0.0
H1806 H 0.68981 0.92756 0.59931 0.0
C1807 C 0.77824 0.78646 0.59569 0.0
C1808 C 0.78405 0.87255 0.6057 0.0
H1809 H 0.75629 0.92092 0.64063 0.0
C1810 C 0.77458 0.89007 0.58974 0.0
C1811 C 0.77862 0.88448 0.62429 0.0
C1812 C 0.78767 0.86641 0.642 0.0
C1813 C 0.75796 0.91817 0.5919 0.0
C1814 C 0.75036 0.92873 0.61047 0.0
C1815 C 0.7621 0.91264 0.6264 0.0
C1816 C 0.72649 0.95324 0.61379 0.0
C1817 C 0.74751 0.93562 0.57429 0.0
C1818 C 0.73322 0.97963 0.62499 0.0
C1819 C 0.70935 0.00048 0.63007 0.0
C1820 C 0.67826 0.99494 0.6243 0.0
C1821 C 0.67184 0.9688 0.61274 0.0
C1822 C 0.69568 0.94819 0.60757 0.0
H1823 H 0.76364 0.93128 0.56211 0.0
H1824 H 0.72391 0.92727 0.57005 0.0
H1825 H 0.7462 0.9612 0.57696 0.0
H1826 H 0.7568 0.9837 0.63013 0.0
H1827 H 0.71511 0.02036 0.63901 0.0
H1828 H 0.73146 0.94526 0.86459 0.0
H1829 H 0.77142 0.98211 0.85308 0.0
H1830 H 0.84382 0.9219 0.87549 0.0
H1831 H 0.80438 0.88459 0.88597 0.0
H1832 H 0.81354 0.01635 0.86932 0.0
H1833 H 0.87669 0.93383 0.82328 0.0
H1834 H 0.83901 0.92439 0.83338 0.0
H1835 H 0.87454 0.91707 0.84667 0.0
C1836 C 0.75597 0.93994 0.86692 0.0
C1837 C 0.76492 0.91191 0.87591 0.0
C1838 C 0.77874 0.96093 0.86032 0.0
C1839 C 0.81071 0.95431 0.86285 0.0
C1840 C 0.81942 0.92692 0.87258 0.0
H1841 H 0.96626 0.06443 0.8855 0.0
H1842 H 0.91277 0.04596 0.88169 0.0
C1843 C 0.79684 0.90572 0.87874 0.0
C1844 C 0.83532 0.97625 0.85614 0.0
H1845 H 0.9085 0.97584 0.83697 0.0
C1846 C 0.83404 0.00773 0.86184 0.0
C1847 C 0.8615 0.96562 0.84559 0.0
C1848 C 0.86276 0.93347 0.83669 0.0
C1849 C 0.85952 0.02794 0.85886 0.0
C1850 C 0.88753 0.01589 0.85085 0.0
C1851 C 0.88753 0.98524 0.84356 0.0
C1852 C 0.91799 0.03279 0.85189 0.0
C1853 C 0.85607 0.06181 0.86455 0.0
C1854 C 0.93929 0.03148 0.83655 0.0
C1855 C 0.97044 0.04067 0.83907 0.0
C1856 C 0.98048 0.05239 0.85676 0.0
C1857 C 0.95879 0.05601 0.87162 0.0
C1858 C 0.92802 0.04572 0.86934 0.0
H1859 H 0.83191 0.07016 0.86159 0.0
H1860 H 0.85997 0.06414 0.88017 0.0
H1861 H 0.87283 0.07713 0.85684 0.0
H1862 H 0.93231 0.0217 0.82292 0.0
H1863 H 0.98693 0.03759 0.82746 0.0
H1864 H 0.85721 0.0388 0.10967 0.0
H1865 H 0.81641 0.07641 0.10186 0.0
H1866 H 0.74666 0.0151 0.12597 0.0
H1867 H 0.78757 0.97714 0.13415 0.0
H1868 H 0.75928 0.07248 0.08023 0.0
H1869 H 0.73996 0.09646 0.15774 0.0
H1870 H 0.77363 0.07496 0.14939 0.0
H1871 H 0.73575 0.05681 0.14954 0.0
C1872 C 0.83321 0.03305 0.11322 0.0
C1873 C 0.82578 0.00512 0.12284 0.0
C1874 C 0.80988 0.05454 0.10862 0.0
C1875 C 0.77863 0.04866 0.11354 0.0
C1876 C 0.77075 0.02018 0.12227 0.0
H1877 H 0.65682 0.21262 0.12105 0.0
H1878 H 0.66813 0.15672 0.11809 0.0
C1879 C 0.79416 0.99854 0.1269 0.0
C1880 C 0.7553 0.07385 0.11091 0.0
H1881 H 0.71786 0.1312 0.13589 0.0
C1882 C 0.74958 0.08498 0.09236 0.0
C1883 C 0.7425 0.08991 0.12676 0.0
C1884 C 0.74827 0.07917 0.14702 0.0
C1885 C 0.73302 0.11289 0.08931 0.0
C1886 C 0.72249 0.13029 0.10525 0.0
C1887 C 0.72604 0.11784 0.12369 0.0
C1888 C 0.71235 0.16331 0.10357 0.0
C1889 C 0.72796 0.12404 0.0691 0.0
C1890 C 0.73316 0.18552 0.09604 0.0
C1891 C 0.72687 0.21741 0.09774 0.0
C1892 C 0.69972 0.2278 0.10718 0.0
C1893 C 0.678 0.20547 0.11374 0.0
C1894 C 0.68438 0.17349 0.11205 0.0
H1895 H 0.72611 0.10395 0.05908 0.0
H1896 H 0.70647 0.13853 0.06788 0.0
H1897 H 0.74833 0.13835 0.06459 0.0
H1898 H 0.75525 0.17828 0.08985 0.0
H1899 H 0.74406 0.23389 0.09244 0.0
H1900 H 0.53647 0.90759 0.36145 0.0
H1901 H 0.59246 0.91922 0.35868 0.0
H1902 H 0.57063 0.01369 0.34164 0.0
H1903 H 0.51493 0.00233 0.34405 0.0
H1904 H 0.62342 0.98684 0.32224 0.0
H1905 H 0.62959 0.97448 0.40155 0.0
H1906 H 0.61593 0.94147 0.38797 0.0
H1907 H 0.59268 0.97641 0.38909 0.0
C1908 C 0.54356 0.93064 0.35668 0.0
C1909 C 0.5212 0.95423 0.35333 0.0
C1910 C 0.57557 0.93724 0.35519 0.0
C1911 C 0.5856 0.96747 0.35032 0.0
C1912 C 0.56334 0.99024 0.3455 0.0
H1913 H 0.71413 0.10967 0.35724 0.0
H1914 H 0.67609 0.07028 0.34786 0.0
C1915 C 0.53146 0.98373 0.34699 0.0
C1916 C 0.61874 0.97697 0.35228 0.0
H1917 H 0.67195 0.99805 0.38629 0.0
C1918 C 0.63441 0.98866 0.33617 0.0
C1919 C 0.63307 0.97913 0.37048 0.0
C1920 C 0.61704 0.9674 0.38833 0.0
C1921 C 0.66321 0.00419 0.33794 0.0
C1922 C 0.67625 0.00858 0.35633 0.0
C1923 C 0.66182 0.99472 0.37222 0.0
C1924 C 0.70179 0.03129 0.35986 0.0
C1925 C 0.6788 0.01677 0.3202 0.0
C1926 C 0.72882 0.02255 0.36994 0.0
C1927 C 0.75067 0.0452 0.37552 0.0
C1928 C 0.74555 0.07702 0.37134 0.0
C1929 C 0.71882 0.08545 0.36079 0.0
C1930 C 0.69717 0.06286 0.35518 0.0
H1931 H 0.67297 0.00223 0.30752 0.0
H1932 H 0.67015 0.04083 0.31741 0.0
H1933 H 0.70464 0.01764 0.32184 0.0
H1934 H 0.73261 0.99833 0.37389 0.0
H1935 H 0.771 0.03788 0.38363 0.0
H1936 H 0.14308 0.20743 0.38106 0.0
H1937 H 0.15497 0.1514 0.38288 0.0
H1938 H 0.23622 0.17175 0.41735 0.0
H1939 H 0.22411 0.22714 0.41605 0.0
H1940 H 0.20614 0.12942 0.36681 0.0
H1941 H 0.20922 0.09238 0.44198 0.0
H1942 H 0.18955 0.12777 0.43454 0.0
H1943 H 0.23099 0.12795 0.4396 0.0
C1944 C 0.16274 0.19981 0.38967 0.0
C1945 C 0.18288 0.22176 0.39821 0.0
C1946 C 0.16956 0.16777 0.39064 0.0
C1947 C 0.19639 0.15723 0.40035 0.0
C1948 C 0.21499 0.17903 0.41014 0.0
H1949 H 0.35079 0.04545 0.38843 0.0
H1950 H 0.30775 0.08054 0.39658 0.0
C1951 C 0.20822 0.21088 0.40919 0.0
C1952 C 0.20851 0.125 0.39747 0.0
H1953 H 0.24821 0.06713 0.42083 0.0
C1954 C 0.21435 0.1152 0.37863 0.0
C1955 C 0.21921 0.10634 0.41285 0.0
C1956 C 0.21156 0.11408 0.43335 0.0
C1957 C 0.23309 0.08897 0.37482 0.0
C1958 C 0.24619 0.07214 0.39024 0.0
C1959 C 0.23835 0.08036 0.40904 0.0
C1960 C 0.27138 0.04902 0.38704 0.0
C1961 C 0.24081 0.08083 0.35437 0.0
C1962 C 0.26503 0.01947 0.37924 0.0
C1963 C 0.28965 -0.00078 0.37456 0.0
C1964 C 0.32097 0.00839 0.37747 0.0
C1965 C 0.32702 0.03771 0.38582 0.0
C1966 C 0.30245 0.05775 0.39061 0.0
H1967 H 0.22976 0.09715 0.34402 0.0
H1968 H 0.26657 0.08131 0.35222 0.0
H1969 H 0.23262 0.05675 0.35119 0.0
H1970 H 0.24113 0.01239 0.37641 0.0
H1971 H 0.28415 0.97679 0.36819 0.0
H1972 H 0.0378 0.89992 0.12983 0.0
H1973 H 0.09384 0.91128 0.13246 0.0
H1974 H 0.07265 0.99658 0.16277 0.0
H1975 H 0.01706 0.98526 0.16054 0.0
H1976 H 0.11834 0.96178 0.11526 0.0
H1977 H 0.14862 0.9676 0.19165 0.0
H1978 H 0.1138 0.94798 0.18318 0.0
H1979 H 0.11371 0.98967 0.1872 0.0
C1980 C 0.04513 0.92058 0.13759 0.0
C1981 C 0.02292 0.94188 0.14477 0.0
C1982 C 0.07718 0.92703 0.13906 0.0
C1983 C 0.0875 0.95462 0.14797 0.0
C1984 C 0.06539 0.97479 0.15623 0.0
H1985 H 0.20825 0.10275 0.14106 0.0
H1986 H 0.1714 0.06112 0.14874 0.0
C1987 C 0.03349 0.96844 0.15473 0.0
C1988 C 0.12033 0.96534 0.14594 0.0
H1989 H 0.17807 0.00299 0.17059 0.0
C1990 C 0.13195 0.96987 0.12738 0.0
C1991 C 0.1381 0.97581 0.16175 0.0
C1992 C 0.128 0.96967 0.18206 0.0
C1993 C 0.15931 0.98722 0.12413 0.0
C1994 C 0.17558 -0.0 0.1399 0.0
C1995 C 0.16537 0.99334 0.15852 0.0
C1996 C 0.20013 0.02398 0.13718 0.0
C1997 C 0.1692 0.9939 0.10382 0.0
C1998 C 0.22885 0.01673 0.12852 0.0
C1999 C 0.25007 0.04059 0.12403 0.0
C2000 C 0.24279 0.07205 0.12809 0.0
C2001 C 0.21453 0.07889 0.13753 0.0
C2002 C 0.19348 0.05509 0.14205 0.0
H2003 H 0.15201 0.98503 0.0932 0.0
H2004 H 0.17215 0.01947 0.10164 0.0
H2005 H 0.19209 0.98255 0.10097 0.0
H2006 H 0.23448 0.99278 0.12482 0.0
H2007 H 0.2717 0.03446 0.11687 0.0
H2008 H 0.21603 0.02209 0.86447 0.0
H2009 H 0.25817 0.9856 0.87279 0.0
H2010 H 0.19086 0.92359 0.89872 0.0
H2011 H 0.14876 0.95972 0.89068 0.0
H2012 H 0.24949 0.93197 0.9199 0.0
H2013 H 0.2659 0.90144 0.843 0.0
H2014 H 0.26826 0.94195 0.84985 0.0
H2015 H 0.23148 0.92182 0.85127 0.0
C2016 C 0.21022 0.00084 0.87212 0.0
C2017 C 0.1789 0.99366 0.87667 0.0
C2018 C 0.23434 0.98004 0.87684 0.0
C2019 C 0.22752 0.95184 0.8862 0.0
C2020 C 0.19657 0.94529 0.89149 0.0
H2021 H 0.26726 0.77079 0.91301 0.0
H2022 H 0.25654 0.8265 0.91468 0.0
C2023 C 0.17249 0.96592 0.88676 0.0
C2024 C 0.25178 0.92766 0.88926 0.0
H2025 H 0.28987 0.86928 0.86558 0.0
C2026 C 0.25896 0.91863 0.90804 0.0
C2027 C 0.26434 0.91056 0.87376 0.0
C2028 C 0.25714 0.91918 0.8533 0.0
C2029 C 0.27679 0.89171 0.91173 0.0
C2030 C 0.28702 0.87307 0.89624 0.0
C2031 C 0.28198 0.88355 0.87747 0.0
C2032 C 0.29788 0.84039 0.89888 0.0
C2033 C 0.28351 0.88292 0.93219 0.0
C2034 C 0.325 0.82947 0.88969 0.0
C2035 C 0.33108 0.79733 0.88853 0.0
C2036 C 0.30986 0.77563 0.89634 0.0
C2037 C 0.28398 0.78682 0.90672 0.0
C2038 C 0.27799 0.81882 0.90789 0.0
H2039 H 0.28596 0.90416 0.94124 0.0
H2040 H 0.26358 0.86914 0.93791 0.0
H2041 H 0.30518 0.86871 0.93344 0.0
H2042 H 0.34054 0.84571 0.88253 0.0
H2043 H 0.35122 0.7895 0.88043 0.0
H2044 H 0.28796 0.89289 0.64119 0.0
H2045 H 0.32603 0.93314 0.64937 0.0
H2046 H 0.27087 0.00218 0.61962 0.0
H2047 H 0.23236 0.96186 0.61127 0.0
H2048 H 0.33416 0.9988 0.60823 0.0
H2049 H 0.32494 0.00736 0.68687 0.0
H2050 H 0.32726 0.96762 0.67869 0.0
H2051 H 0.29409 0.99128 0.67215 0.0
C2052 C 0.28362 0.91668 0.63655 0.0
C2053 C 0.25717 0.92409 0.62546 0.0
C2054 C 0.30528 0.93975 0.64144 0.0
C2055 C 0.30101 0.97073 0.63536 0.0
C2056 C 0.27436 0.97845 0.62463 0.0
H2057 H 0.46457 0.09641 0.63116 0.0
H2058 H 0.40871 0.08355 0.63209 0.0
C2059 C 0.25243 0.95538 0.61986 0.0
C2060 C 0.32637 0.99379 0.63844 0.0
H2061 H 0.37458 0.02273 0.67307 0.0
C2062 C 0.3426 0.00483 0.62238 0.0
C2063 C 0.3372 0.00155 0.65693 0.0
C2064 C 0.31977 0.99158 0.67465 0.0
C2065 C 0.37092 0.02117 0.6243 0.0
C2066 C 0.38286 0.02723 0.64283 0.0
C2067 C 0.36543 0.01806 0.65889 0.0
C2068 C 0.41533 0.03854 0.64567 0.0
C2069 C 0.38899 0.02957 0.60647 0.0
C2070 C 0.43727 0.01848 0.65416 0.0
C2071 C 0.46906 0.02585 0.65385 0.0
C2072 C 0.47963 0.05344 0.64498 0.0
C2073 C 0.45732 0.0748 0.63793 0.0
C2074 C 0.42538 0.06741 0.63832 0.0
H2075 H 0.37889 0.01862 0.59345 0.0
H2076 H 0.38857 0.05532 0.60448 0.0
H2077 H 0.4138 0.02212 0.60776 0.0
H2078 H 0.43001 0.99617 0.66003 0.0
H2079 H 0.48546 0.00901 0.65967 0.0
loop_
_geom_bond_atom_site_label_1
_geom_bond_atom_site_label_2
_geom_bond_distance
_geom_bond_site_symmetry_2
_ccdc_geom_bond_type
Sc0 O3 2.025 . S
Sc0 O10 2.105 . S
Sc0 O13 2.105 . S
Sc0 O16 2.105 . S
Sc0 O19 2.105 . S
Sc1 O3 2.025 . S
Sc1 O11 2.105 . S
Sc1 O15 2.105 . S
Sc1 O17 2.105 . S
Sc1 O21 2.105 . S
Sc2 O3 2.025 . S
Sc2 O12 2.105 . S
Sc2 O14 2.105 . S
Sc2 O18 2.105 . S
Sc2 O20 2.105 . S
O3 Sc0 2.025 . S
O3 Sc1 2.025 . S
O3 Sc2 2.025 . S
C4 O10 1.268 . S
C4 O20 1.268 . S
C5 O11 1.268 . S
C5 O19 1.268 . S
C6 O12 1.268 . S
C6 O21 1.268 . S
C7 O13 1.268 . S
C7 O17 1.268 . S
C8 O14 1.268 . S
C8 O16 1.268 . S
C9 O15 1.268 . S
C9 O18 1.268 . S
O10 Sc0 2.105 . S
O10 C4 1.268 . S
O11 Sc1 2.105 . S
O11 C5 1.268 . S
O12 Sc2 2.105 . S
O12 C6 1.268 . S
O13 Sc0 2.105 . S
O13 C7 1.268 . S
O14 Sc2 2.105 . S
O14 C8 1.268 . S
O15 Sc1 2.105 . S
O15 C9 1.268 . S
O16 Sc0 2.105 . S
O16 C8 1.268 . S
O17 Sc1 2.105 . S
O17 C7 1.268 . S
O18 Sc2 2.105 . S
O18 C9 1.268 . S
O19 Sc0 2.105 . S
O19 C5 1.268 . S
O20 Sc2 2.105 . S
O20 C4 1.268 . S
O21 Sc1 2.105 . S
O21 C6 1.268 . S
Sc22 O25 2.025 . S
Sc22 O32 2.105 . S
Sc22 O35 2.105 . S
Sc22 O38 2.105 . S
Sc22 O41 2.105 . S
Sc23 O25 2.025 . S
Sc23 O33 2.105 . S
Sc23 O37 2.105 . S
Sc23 O39 2.105 . S
Sc23 O43 2.105 . S
Sc24 O25 2.025 . S
Sc24 O34 2.105 . S
Sc24 O36 2.105 . S
Sc24 O40 2.105 . S
Sc24 O42 2.105 . S
O25 Sc22 2.025 . S
O25 Sc23 2.025 . S
O25 Sc24 2.025 . S
C26 O32 1.268 . S
C26 O42 1.268 . S
C27 O33 1.268 . S
C27 O41 1.268 . S
C28 O34 1.268 . S
C28 O43 1.268 . S
C29 O35 1.268 . S
C29 O39 1.268 . S
C30 O36 1.268 . S
C30 O38 1.268 . S
C31 O37 1.268 . S
C31 O40 1.268 . S
O32 Sc22 2.105 . S
O32 C26 1.268 . S
O33 Sc23 2.105 . S
O33 C27 1.268 . S
O34 Sc24 2.105 . S
O34 C28 1.268 . S
O35 Sc22 2.105 . S
O35 C29 1.268 . S
O36 Sc24 2.105 . S
O36 C30 1.268 . S
O37 Sc23 2.105 . S
O37 C31 1.268 . S
O38 Sc22 2.105 . S
O38 C30 1.268 . S
O39 Sc23 2.105 . S
O39 C29 1.268 . S
O40 Sc24 2.105 . S
O40 C31 1.268 . S
O41 Sc22 2.105 . S
O41 C27 1.268 . S
O42 Sc24 2.105 . S
O42 C26 1.268 . S
O43 Sc23 2.105 . S
O43 C28 1.268 . S
Sc44 O47 2.025 . S
Sc44 O54 2.105 . S
Sc44 O57 2.105 . S
Sc44 O60 2.105 . S
Sc44 O63 2.105 . S
Sc45 O47 2.025 . S
Sc45 O55 2.105 . S
Sc45 O59 2.105 . S
Sc45 O61 2.105 . S
Sc45 O65 2.105 . S
Sc46 O47 2.025 . S
Sc46 O56 2.105 . S
Sc46 O58 2.105 . S
Sc46 O62 2.105 . S
Sc46 O64 2.105 . S
O47 Sc44 2.025 . S
O47 Sc45 2.025 . S
O47 Sc46 2.025 . S
C48 O54 1.268 . S
C48 O64 1.268 . S
C49 O55 1.268 . S
C49 O63 1.268 . S
C50 O56 1.268 . S
C50 O65 1.268 . S
C51 O57 1.268 . S
C51 O61 1.268 . S
C52 O58 1.268 . S
C52 O60 1.268 . S
C53 O59 1.268 . S
C53 O62 1.268 . S
O54 Sc44 2.105 . S
O54 C48 1.268 . S
O55 Sc45 2.105 . S
O55 C49 1.268 . S
O56 Sc46 2.105 . S
O56 C50 1.268 . S
O57 Sc44 2.105 . S
O57 C51 1.268 . S
O58 Sc46 2.105 . S
O58 C52 1.268 . S
O59 Sc45 2.105 . S
O59 C53 1.268 . S
O60 Sc44 2.105 . S
O60 C52 1.268 . S
O61 Sc45 2.105 . S
O61 C51 1.268 . S
O62 Sc46 2.105 . S
O62 C53 1.268 . S
O63 Sc44 2.105 . S
O63 C49 1.268 . S
O64 Sc46 2.105 . S
O64 C48 1.268 . S
O65 Sc45 2.105 . S
O65 C50 1.268 . S
Sc66 O69 2.025 . S
Sc66 O76 2.105 . S
Sc66 O79 2.105 . S
Sc66 O82 2.105 . S
Sc66 O85 2.105 . S
Sc67 O69 2.025 . S
Sc67 O77 2.105 . S
Sc67 O81 2.105 . S
Sc67 O83 2.105 . S
Sc67 O87 2.105 . S
Sc68 O69 2.025 . S
Sc68 O78 2.105 . S
Sc68 O80 2.105 . S
Sc68 O84 2.105 . S
Sc68 O86 2.105 . S
O69 Sc66 2.025 . S
O69 Sc67 2.025 . S
O69 Sc68 2.025 . S
C70 O76 1.268 . S
C70 O86 1.268 . S
C71 O77 1.268 . S
C71 O85 1.268 . S
C72 O78 1.268 . S
C72 O87 1.268 . S
C73 O79 1.268 . S
C73 O83 1.268 . S
C74 O80 1.268 . S
C74 O82 1.268 . S
C75 O81 1.268 . S
C75 O84 1.268 . S
O76 Sc66 2.105 . S
O76 C70 1.268 . S
O77 Sc67 2.105 . S
O77 C71 1.268 . S
O78 Sc68 2.105 . S
O78 C72 1.268 . S
O79 Sc66 2.105 . S
O79 C73 1.268 . S
O80 Sc68 2.105 . S
O80 C74 1.268 . S
O81 Sc67 2.105 . S
O81 C75 1.268 . S
O82 Sc66 2.105 . S
O82 C74 1.268 . S
O83 Sc67 2.105 . S
O83 C73 1.268 . S
O84 Sc68 2.105 . S
O84 C75 1.268 . S
O85 Sc66 2.105 . S
O85 C71 1.268 . S
O86 Sc68 2.105 . S
O86 C70 1.268 . S
O87 Sc67 2.105 . S
O87 C72 1.268 . S
Sc88 O91 2.025 . S
Sc88 O98 2.105 . S
Sc88 O101 2.105 . S
Sc88 O104 2.105 . S
Sc88 O107 2.105 . S
Sc89 O91 2.025 . S
Sc89 O99 2.105 . S
Sc89 O103 2.105 . S
Sc89 O105 2.105 . S
Sc89 O109 2.105 . S
Sc90 O91 2.025 . S
Sc90 O100 2.105 . S
Sc90 O102 2.105 . S
Sc90 O106 2.105 . S
Sc90 O108 2.105 . S
O91 Sc88 2.025 . S
O91 Sc89 2.025 . S
O91 Sc90 2.025 . S
C92 O98 1.268 . S
C92 O108 1.268 . S
C93 O99 1.268 . S
C93 O107 1.268 . S
C94 O100 1.268 . S
C94 O109 1.268 . S
C95 O101 1.268 . S
C95 O105 1.268 . S
C96 O102 1.268 . S
C96 O104 1.268 . S
C97 O103 1.268 . S
C97 O106 1.268 . S
O98 Sc88 2.105 . S
O98 C92 1.268 . S
O99 Sc89 2.105 . S
O99 C93 1.268 . S
O100 Sc90 2.105 . S
O100 C94 1.268 . S
O101 Sc88 2.105 . S
O101 C95 1.268 . S
O102 Sc90 2.105 . S
O102 C96 1.268 . S
O103 Sc89 2.105 . S
O103 C97 1.268 . S
O104 Sc88 2.105 . S
O104 C96 1.268 . S
O105 Sc89 2.105 . S
O105 C95 1.268 . S
O106 Sc90 2.105 . S
O106 C97 1.268 . S
O107 Sc88 2.105 . S
O107 C93 1.268 . S
O108 Sc90 2.105 . S
O108 C92 1.268 . S
O109 Sc89 2.105 . S
O109 C94 1.268 . S
Sc110 O113 2.025 . S
Sc110 O120 2.105 . S
Sc110 O123 2.105 . S
Sc110 O126 2.105 . S
Sc110 O129 2.105 . S
Sc111 O113 2.025 . S
Sc111 O121 2.105 . S
Sc111 O125 2.105 . S
Sc111 O127 2.105 . S
Sc111 O131 2.105 . S
Sc112 O113 2.025 . S
Sc112 O122 2.105 . S
Sc112 O124 2.105 . S
Sc112 O128 2.105 . S
Sc112 O130 2.105 . S
O113 Sc110 2.025 . S
O113 Sc111 2.025 . S
O113 Sc112 2.025 . S
C114 O120 1.268 . S
C114 O130 1.268 . S
C115 O121 1.268 . S
C115 O129 1.268 . S
C116 O122 1.268 . S
C116 O131 1.268 . S
C117 O123 1.268 . S
C117 O127 1.268 . S
C118 O124 1.268 . S
C118 O126 1.268 . S
C119 O125 1.268 . S
C119 O128 1.268 . S
O120 Sc110 2.105 . S
O120 C114 1.268 . S
O121 Sc111 2.105 . S
O121 C115 1.268 . S
O122 Sc112 2.105 . S
O122 C116 1.268 . S
O123 Sc110 2.105 . S
O123 C117 1.268 . S
O124 Sc112 2.105 . S
O124 C118 1.268 . S
O125 Sc111 2.105 . S
O125 C119 1.268 . S
O126 Sc110 2.105 . S
O126 C118 1.268 . S
O127 Sc111 2.105 . S
O127 C117 1.268 . S
O128 Sc112 2.105 . S
O128 C119 1.268 . S
O129 Sc110 2.105 . S
O129 C115 1.268 . S
O130 Sc112 2.105 . S
O130 C114 1.268 . S
O131 Sc111 2.105 . S
O131 C116 1.268 . S
Sc132 O135 2.025 . S
Sc132 O142 2.105 . S
Sc132 O145 2.105 . S
Sc132 O148 2.105 . S
Sc132 O151 2.105 . S
Sc133 O135 2.025 . S
Sc133 O143 2.105 . S
Sc133 O147 2.105 . S
Sc133 O149 2.105 . S
Sc133 O153 2.105 . S
Sc134 O135 2.025 . S
Sc134 O144 2.105 . S
Sc134 O146 2.105 . S
Sc134 O150 2.105 . S
Sc134 O152 2.105 . S
O135 Sc132 2.025 . S
O135 Sc133 2.025 . S
O135 Sc134 2.025 . S
C136 O142 1.268 . S
C136 O152 1.268 . S
C137 O143 1.268 . S
C137 O151 1.268 . S
C138 O144 1.268 . S
C138 O153 1.268 . S
C139 O145 1.268 . S
C139 O149 1.268 . S
C140 O146 1.268 . S
C140 O148 1.268 . S
C141 O147 1.268 . S
C141 O150 1.268 . S
O142 Sc132 2.105 . S
O142 C136 1.268 . S
O143 Sc133 2.105 . S
O143 C137 1.268 . S
O144 Sc134 2.105 . S
O144 C138 1.268 . S
O145 Sc132 2.105 . S
O145 C139 1.268 . S
O146 Sc134 2.105 . S
O146 C140 1.268 . S
O147 Sc133 2.105 . S
O147 C141 1.268 . S
O148 Sc132 2.105 . S
O148 C140 1.268 . S
O149 Sc133 2.105 . S
O149 C139 1.268 . S
O150 Sc134 2.105 . S
O150 C141 1.268 . S
O151 Sc132 2.105 . S
O151 C137 1.268 . S
O152 Sc134 2.105 . S
O152 C136 1.268 . S
O153 Sc133 2.105 . S
O153 C138 1.268 . S
Sc154 O157 2.025 . S
Sc154 O164 2.105 . S
Sc154 O167 2.105 . S
Sc154 O170 2.105 . S
Sc154 O173 2.105 . S
Sc155 O157 2.025 . S
Sc155 O165 2.105 . S
Sc155 O169 2.105 . S
Sc155 O171 2.105 . S
Sc155 O175 2.105 . S
Sc156 O157 2.025 . S
Sc156 O166 2.105 . S
Sc156 O168 2.105 . S
Sc156 O172 2.105 . S
Sc156 O174 2.105 . S
O157 Sc154 2.025 . S
O157 Sc155 2.025 . S
O157 Sc156 2.025 . S
C158 O164 1.268 . S
C158 O174 1.268 . S
C159 O165 1.268 . S
C159 O173 1.268 . S
C160 O166 1.268 . S
C160 O175 1.268 . S
C161 O167 1.268 . S
C161 O171 1.268 . S
C162 O168 1.268 . S
C162 O170 1.268 . S
C163 O169 1.268 . S
C163 O172 1.268 . S
O164 Sc154 2.105 . S
O164 C158 1.268 . S
O165 Sc155 2.105 . S
O165 C159 1.268 . S
O166 Sc156 2.105 . S
O166 C160 1.268 . S
O167 Sc154 2.105 . S
O167 C161 1.268 . S
O168 Sc156 2.105 . S
O168 C162 1.268 . S
O169 Sc155 2.105 . S
O169 C163 1.268 . S
O170 Sc154 2.105 . S
O170 C162 1.268 . S
O171 Sc155 2.105 . S
O171 C161 1.268 . S
O172 Sc156 2.105 . S
O172 C163 1.268 . S
O173 Sc154 2.105 . S
O173 C159 1.268 . S
O174 Sc156 2.105 . S
O174 C158 1.268 . S
O175 Sc155 2.105 . S
O175 C160 1.268 . S
Sc176 O179 2.025 . S
Sc176 O186 2.105 . S
Sc176 O189 2.105 . S
Sc176 O192 2.105 . S
Sc176 O195 2.105 . S
Sc177 O179 2.025 . S
Sc177 O187 2.105 . S
Sc177 O191 2.105 . S
Sc177 O193 2.105 . S
Sc177 O197 2.105 . S
Sc178 O179 2.025 . S
Sc178 O188 2.105 . S
Sc178 O190 2.105 . S
Sc178 O194 2.105 . S
Sc178 O196 2.105 . S
O179 Sc176 2.025 . S
O179 Sc177 2.025 . S
O179 Sc178 2.025 . S
C180 O186 1.268 . S
C180 O196 1.268 . S
C181 O187 1.268 . S
C181 O195 1.268 . S
C182 O188 1.268 . S
C182 O197 1.268 . S
C183 O189 1.268 . S
C183 O193 1.268 . S
C184 O190 1.268 . S
C184 O192 1.268 . S
C185 O191 1.268 . S
C185 O194 1.268 . S
O186 Sc176 2.105 . S
O186 C180 1.268 . S
O187 Sc177 2.105 . S
O187 C181 1.268 . S
O188 Sc178 2.105 . S
O188 C182 1.268 . S
O189 Sc176 2.105 . S
O189 C183 1.268 . S
O190 Sc178 2.105 . S
O190 C184 1.268 . S
O191 Sc177 2.105 . S
O191 C185 1.268 . S
O192 Sc176 2.105 . S
O192 C184 1.268 . S
O193 Sc177 2.105 . S
O193 C183 1.268 . S
O194 Sc178 2.105 . S
O194 C185 1.268 . S
O195 Sc176 2.105 . S
O195 C181 1.268 . S
O196 Sc178 2.105 . S
O196 C180 1.268 . S
O197 Sc177 2.105 . S
O197 C182 1.268 . S
Sc198 O201 2.025 . S
Sc198 O208 2.105 . S
Sc198 O211 2.105 . S
Sc198 O214 2.105 . S
Sc198 O217 2.105 . S
Sc199 O201 2.025 . S
Sc199 O209 2.105 . S
Sc199 O213 2.105 . S
Sc199 O215 2.105 . S
Sc199 O219 2.105 . S
Sc200 O201 2.025 . S
Sc200 O210 2.105 . S
Sc200 O212 2.105 . S
Sc200 O216 2.105 . S
Sc200 O218 2.105 . S
O201 Sc198 2.025 . S
O201 Sc199 2.025 . S
O201 Sc200 2.025 . S
C202 O208 1.268 . S
C202 O218 1.268 . S
C203 O209 1.268 . S
C203 O217 1.268 . S
C204 O210 1.268 . S
C204 O219 1.268 . S
C205 O211 1.268 . S
C205 O215 1.268 . S
C206 O212 1.268 . S
C206 O214 1.268 . S
C207 O213 1.268 . S
C207 O216 1.268 . S
O208 Sc198 2.105 . S
O208 C202 1.268 . S
O209 Sc199 2.105 . S
O209 C203 1.268 . S
O210 Sc200 2.105 . S
O210 C204 1.268 . S
O211 Sc198 2.105 . S
O211 C205 1.268 . S
O212 Sc200 2.105 . S
O212 C206 1.268 . S
O213 Sc199 2.105 . S
O213 C207 1.268 . S
O214 Sc198 2.105 . S
O214 C206 1.268 . S
O215 Sc199 2.105 . S
O215 C205 1.268 . S
O216 Sc200 2.105 . S
O216 C207 1.268 . S
O217 Sc198 2.105 . S
O217 C203 1.268 . S
O218 Sc200 2.105 . S
O218 C202 1.268 . S
O219 Sc199 2.105 . S
O219 C204 1.268 . S
Sc220 O223 2.025 . S
Sc220 O230 2.105 . S
Sc220 O233 2.105 . S
Sc220 O236 2.105 . S
Sc220 O239 2.105 . S
Sc221 O223 2.025 . S
Sc221 O231 2.105 . S
Sc221 O235 2.105 . S
Sc221 O237 2.105 . S
Sc221 O241 2.105 . S
Sc222 O223 2.025 . S
Sc222 O232 2.105 . S
Sc222 O234 2.105 . S
Sc222 O238 2.105 . S
Sc222 O240 2.105 . S
O223 Sc220 2.025 . S
O223 Sc221 2.025 . S
O223 Sc222 2.025 . S
C224 O230 1.268 . S
C224 O240 1.268 . S
C225 O231 1.268 . S
C225 O239 1.268 . S
C226 O232 1.268 . S
C226 O241 1.268 . S
C227 O233 1.268 . S
C227 O237 1.268 . S
C228 O234 1.268 . S
C228 O236 1.268 . S
C229 O235 1.268 . S
C229 O238 1.268 . S
O230 Sc220 2.105 . S
O230 C224 1.268 . S
O231 Sc221 2.105 . S
O231 C225 1.268 . S
O232 Sc222 2.105 . S
O232 C226 1.268 . S
O233 Sc220 2.105 . S
O233 C227 1.268 . S
O234 Sc222 2.105 . S
O234 C228 1.268 . S
O235 Sc221 2.105 . S
O235 C229 1.268 . S
O236 Sc220 2.105 . S
O236 C228 1.268 . S
O237 Sc221 2.105 . S
O237 C227 1.268 . S
O238 Sc222 2.105 . S
O238 C229 1.268 . S
O239 Sc220 2.105 . S
O239 C225 1.268 . S
O240 Sc222 2.105 . S
O240 C224 1.268 . S
O241 Sc221 2.105 . S
O241 C226 1.268 . S
Sc242 O245 2.025 . S
Sc242 O252 2.105 . S
Sc242 O255 2.105 . S
Sc242 O258 2.105 . S
Sc242 O261 2.105 . S
Sc243 O245 2.025 . S
Sc243 O253 2.105 . S
Sc243 O257 2.105 . S
Sc243 O259 2.105 . S
Sc243 O263 2.105 . S
Sc244 O245 2.025 . S
Sc244 O254 2.105 . S
Sc244 O256 2.105 . S
Sc244 O260 2.105 . S
Sc244 O262 2.105 . S
O245 Sc242 2.025 . S
O245 Sc243 2.025 . S
O245 Sc244 2.025 . S
C246 O252 1.268 . S
C246 O262 1.268 . S
C247 O253 1.268 . S
C247 O261 1.268 . S
C248 O254 1.268 . S
C248 O263 1.268 . S
C249 O255 1.268 . S
C249 O259 1.268 . S
C250 O256 1.268 . S
C250 O258 1.268 . S
C251 O257 1.268 . S
C251 O260 1.268 . S
O252 Sc242 2.105 . S
O252 C246 1.268 . S
O253 Sc243 2.105 . S
O253 C247 1.268 . S
O254 Sc244 2.105 . S
O254 C248 1.268 . S
O255 Sc242 2.105 . S
O255 C249 1.268 . S
O256 Sc244 2.105 . S
O256 C250 1.268 . S
O257 Sc243 2.105 . S
O257 C251 1.268 . S
O258 Sc242 2.105 . S
O258 C250 1.268 . S
O259 Sc243 2.105 . S
O259 C249 1.268 . S
O260 Sc244 2.105 . S
O260 C251 1.268 . S
O261 Sc242 2.105 . S
O261 C247 1.268 . S
O262 Sc244 2.105 . S
O262 C246 1.268 . S
O263 Sc243 2.105 . S
O263 C248 1.268 . S
Sc264 O267 2.025 . S
Sc264 O274 2.105 . S
Sc264 O277 2.105 . S
Sc264 O280 2.105 . S
Sc264 O283 2.105 . S
Sc265 O267 2.025 . S
Sc265 O275 2.105 . S
Sc265 O279 2.105 . S
Sc265 O281 2.105 . S
Sc265 O285 2.105 . S
Sc266 O267 2.025 . S
Sc266 O276 2.105 . S
Sc266 O278 2.105 . S
Sc266 O282 2.105 . S
Sc266 O284 2.105 . S
O267 Sc264 2.025 . S
O267 Sc265 2.025 . S
O267 Sc266 2.025 . S
C268 O274 1.268 . S
C268 O284 1.268 . S
C269 O275 1.268 . S
C269 O283 1.268 . S
C270 O276 1.268 . S
C270 O285 1.268 . S
C271 O277 1.268 . S
C271 O281 1.268 . S
C272 O278 1.268 . S
C272 O280 1.268 . S
C273 O279 1.268 . S
C273 O282 1.268 . S
O274 Sc264 2.105 . S
O274 C268 1.268 . S
O275 Sc265 2.105 . S
O275 C269 1.268 . S
O276 Sc266 2.105 . S
O276 C270 1.268 . S
O277 Sc264 2.105 . S
O277 C271 1.268 . S
O278 Sc266 2.105 . S
O278 C272 1.268 . S
O279 Sc265 2.105 . S
O279 C273 1.268 . S
O280 Sc264 2.105 . S
O280 C272 1.268 . S
O281 Sc265 2.105 . S
O281 C271 1.268 . S
O282 Sc266 2.105 . S
O282 C273 1.268 . S
O283 Sc264 2.105 . S
O283 C269 1.268 . S
O284 Sc266 2.105 . S
O284 C268 1.268 . S
O285 Sc265 2.105 . S
O285 C270 1.268 . S
Sc286 O289 2.025 . S
Sc286 O296 2.105 . S
Sc286 O299 2.105 . S
Sc286 O302 2.105 . S
Sc286 O305 2.105 . S
Sc287 O289 2.025 . S
Sc287 O297 2.105 . S
Sc287 O301 2.105 . S
Sc287 O303 2.105 . S
Sc287 O307 2.105 . S
Sc288 O289 2.025 . S
Sc288 O298 2.105 . S
Sc288 O300 2.105 . S
Sc288 O304 2.105 . S
Sc288 O306 2.105 . S
O289 Sc286 2.025 . S
O289 Sc287 2.025 . S
O289 Sc288 2.025 . S
C290 O296 1.268 . S
C290 O306 1.268 . S
C291 O297 1.268 . S
C291 O305 1.268 . S
C292 O298 1.268 . S
C292 O307 1.268 . S
C293 O299 1.268 . S
C293 O303 1.268 . S
C294 O300 1.268 . S
C294 O302 1.268 . S
C295 O301 1.268 . S
C295 O304 1.268 . S
O296 Sc286 2.105 . S
O296 C290 1.268 . S
O297 Sc287 2.105 . S
O297 C291 1.268 . S
O298 Sc288 2.105 . S
O298 C292 1.268 . S
O299 Sc286 2.105 . S
O299 C293 1.268 . S
O300 Sc288 2.105 . S
O300 C294 1.268 . S
O301 Sc287 2.105 . S
O301 C295 1.268 . S
O302 Sc286 2.105 . S
O302 C294 1.268 . S
O303 Sc287 2.105 . S
O303 C293 1.268 . S
O304 Sc288 2.105 . S
O304 C295 1.268 . S
O305 Sc286 2.105 . S
O305 C291 1.268 . S
O306 Sc288 2.105 . S
O306 C290 1.268 . S
O307 Sc287 2.105 . S
O307 C292 1.268 . S
Sc308 O311 2.025 . S
Sc308 O318 2.105 . S
Sc308 O321 2.105 . S
Sc308 O324 2.105 . S
Sc308 O327 2.105 . S
Sc309 O311 2.025 . S
Sc309 O319 2.105 . S
Sc309 O323 2.105 . S
Sc309 O325 2.105 . S
Sc309 O329 2.105 . S
Sc310 O311 2.025 . S
Sc310 O320 2.105 . S
Sc310 O322 2.105 . S
Sc310 O326 2.105 . S
Sc310 O328 2.105 . S
O311 Sc308 2.025 . S
O311 Sc309 2.025 . S
O311 Sc310 2.025 . S
C312 O318 1.268 . S
C312 O328 1.268 . S
C313 O319 1.268 . S
C313 O327 1.268 . S
C314 O320 1.268 . S
C314 O329 1.268 . S
C315 O321 1.268 . S
C315 O325 1.268 . S
C316 O322 1.268 . S
C316 O324 1.268 . S
C317 O323 1.268 . S
C317 O326 1.268 . S
O318 Sc308 2.105 . S
O318 C312 1.268 . S
O319 Sc309 2.105 . S
O319 C313 1.268 . S
O320 Sc310 2.105 . S
O320 C314 1.268 . S
O321 Sc308 2.105 . S
O321 C315 1.268 . S
O322 Sc310 2.105 . S
O322 C316 1.268 . S
O323 Sc309 2.105 . S
O323 C317 1.268 . S
O324 Sc308 2.105 . S
O324 C316 1.268 . S
O325 Sc309 2.105 . S
O325 C315 1.268 . S
O326 Sc310 2.105 . S
O326 C317 1.268 . S
O327 Sc308 2.105 . S
O327 C313 1.268 . S
O328 Sc310 2.105 . S
O328 C312 1.268 . S
O329 Sc309 2.105 . S
O329 C314 1.268 . S
Sc330 O333 2.025 . S
Sc330 O340 2.105 . S
Sc330 O343 2.105 . S
Sc330 O346 2.105 . S
Sc330 O349 2.105 . S
Sc331 O333 2.025 . S
Sc331 O341 2.105 . S
Sc331 O345 2.105 . S
Sc331 O347 2.105 . S
Sc331 O351 2.105 . S
Sc332 O333 2.025 . S
Sc332 O342 2.105 . S
Sc332 O344 2.105 . S
Sc332 O348 2.105 . S
Sc332 O350 2.105 . S
O333 Sc330 2.025 . S
O333 Sc331 2.025 . S
O333 Sc332 2.025 . S
C334 O340 1.268 . S
C334 O350 1.268 . S
C335 O341 1.268 . S
C335 O349 1.268 . S
C336 O342 1.268 . S
C336 O351 1.268 . S
C337 O343 1.268 . S
C337 O347 1.268 . S
C338 O344 1.268 . S
C338 O346 1.268 . S
C339 O345 1.268 . S
C339 O348 1.268 . S
O340 Sc330 2.105 . S
O340 C334 1.268 . S
O341 Sc331 2.105 . S
O341 C335 1.268 . S
O342 Sc332 2.105 . S
O342 C336 1.268 . S
O343 Sc330 2.105 . S
O343 C337 1.268 . S
O344 Sc332 2.105 . S
O344 C338 1.268 . S
O345 Sc331 2.105 . S
O345 C339 1.268 . S
O346 Sc330 2.105 . S
O346 C338 1.268 . S
O347 Sc331 2.105 . S
O347 C337 1.268 . S
O348 Sc332 2.105 . S
O348 C339 1.268 . S
O349 Sc330 2.105 . S
O349 C335 1.268 . S
O350 Sc332 2.105 . S
O350 C334 1.268 . S
O351 Sc331 2.105 . S
O351 C336 1.268 . S
H352 C360 0.929 . S
H353 C362 0.930 . S
H354 C364 0.930 . S
H355 C367 0.929 . S
H356 C370 0.930 . S
H357 C372 0.960 . S
H358 C372 0.960 . S
H359 C372 0.960 . S
C360 H352 0.929 . S
C360 C361 1.377 . S
C360 C362 1.384 . S
C361 C360 1.377 . S
C361 C367 1.390 . S
C362 H353 0.930 . S
C362 C360 1.384 . S
C362 C363 1.372 . S
C363 C362 1.372 . S
C363 C364 1.400 . S
C363 C368 1.490 . S
C364 H354 0.930 . S
C364 C363 1.400 . S
C364 C367 1.386 . S
H365 C381 0.930 . S
H366 C382 0.931 . S
C367 H355 0.929 . S
C367 C361 1.390 . S
C367 C364 1.386 . S
C368 C363 1.490 . S
C368 C370 1.395 . S
C368 C371 1.403 . S
H369 C375 0.930 . S
C370 H356 0.930 . S
C370 C368 1.395 . S
C370 C373 1.403 . S
C371 C368 1.403 . S
C371 C372 1.524 . S
C371 C375 1.400 . S
C372 H357 0.960 . S
C372 H358 0.960 . S
C372 H359 0.960 . S
C372 C371 1.524 . S
C373 C370 1.403 . S
C373 C374 1.392 . S
C373 C377 1.495 . S
C374 C373 1.392 . S
C374 C375 1.385 . S
C374 C376 1.478 . S
C375 H369 0.930 . S
C375 C371 1.400 . S
C375 C374 1.385 . S
C376 C374 1.478 . S
C376 C378 1.381 . S
C376 C382 1.383 . S
C377 C373 1.495 . S
C377 H383 0.959 . S
C377 H384 0.961 . S
C377 H385 0.960 . S
C378 C376 1.381 . S
C378 C379 1.394 . S
C378 H386 0.930 . S
C379 C378 1.394 . S
C379 C380 1.383 . S
C379 H387 0.929 . S
C380 C379 1.383 . S
C380 C381 1.377 . S
C381 H365 0.930 . S
C381 C380 1.377 . S
C381 C382 1.379 . S
C382 H366 0.931 . S
C382 C376 1.383 . S
C382 C381 1.379 . S
H383 C377 0.959 . S
H384 C377 0.961 . S
H385 C377 0.960 . S
H386 C378 0.930 . S
H387 C379 0.929 . S
H388 C396 0.929 . S
H389 C398 0.930 . S
H390 C400 0.930 . S
H391 C403 0.929 . S
H392 C406 0.930 . S
H393 C408 0.960 . S
H394 C408 0.960 . S
H395 C408 0.960 . S
C396 H388 0.929 . S
C396 C397 1.377 . S
C396 C398 1.384 . S
C397 C396 1.377 . S
C397 C403 1.390 . S
C398 H389 0.930 . S
C398 C396 1.384 . S
C398 C399 1.372 . S
C399 C398 1.372 . S
C399 C400 1.400 . S
C399 C404 1.490 . S
C400 H390 0.930 . S
C400 C399 1.400 . S
C400 C403 1.386 . S
H401 C417 0.930 . S
H402 C418 0.931 . S
C403 H391 0.929 . S
C403 C397 1.390 . S
C403 C400 1.386 . S
C404 C399 1.490 . S
C404 C406 1.395 . S
C404 C407 1.403 . S
H405 C411 0.930 . S
C406 H392 0.930 . S
C406 C404 1.395 . S
C406 C409 1.403 . S
C407 C404 1.403 . S
C407 C408 1.524 . S
C407 C411 1.400 . S
C408 H393 0.960 . S
C408 H394 0.960 . S
C408 H395 0.960 . S
C408 C407 1.524 . S
C409 C406 1.403 . S
C409 C410 1.392 . S
C409 C413 1.495 . S
C410 C409 1.392 . S
C410 C411 1.385 . S
C410 C412 1.478 . S
C411 H405 0.930 . S
C411 C407 1.400 . S
C411 C410 1.385 . S
C412 C410 1.478 . S
C412 C414 1.381 . S
C412 C418 1.383 . S
C413 C409 1.495 . S
C413 H419 0.959 . S
C413 H420 0.961 . S
C413 H421 0.960 . S
C414 C412 1.381 . S
C414 C415 1.394 . S
C414 H422 0.930 . S
C415 C414 1.394 . S
C415 C416 1.383 . S
C415 H423 0.929 . S
C416 C415 1.383 . S
C416 C417 1.377 . S
C417 H401 0.930 . S
C417 C416 1.377 . S
C417 C418 1.379 . S
C418 H402 0.931 . S
C418 C412 1.383 . S
C418 C417 1.379 . S
H419 C413 0.959 . S
H420 C413 0.961 . S
H421 C413 0.960 . S
H422 C414 0.930 . S
H423 C415 0.929 . S
H424 C432 0.929 . S
H425 C434 0.930 . S
H426 C436 0.930 . S
H427 C439 0.929 . S
H428 C442 0.930 . S
H429 C444 0.960 . S
H430 C444 0.960 . S
H431 C444 0.960 . S
C432 H424 0.929 . S
C432 C433 1.377 . S
C432 C434 1.384 . S
C433 C432 1.377 . S
C433 C439 1.390 . S
C434 H425 0.930 . S
C434 C432 1.384 . S
C434 C435 1.372 . S
C435 C434 1.372 . S
C435 C436 1.400 . S
C435 C440 1.490 . S
C436 H426 0.930 . S
C436 C435 1.400 . S
C436 C439 1.386 . S
H437 C453 0.930 . S
H438 C454 0.931 . S
C439 H427 0.929 . S
C439 C433 1.390 . S
C439 C436 1.386 . S
C440 C435 1.490 . S
C440 C442 1.395 . S
C440 C443 1.403 . S
H441 C447 0.930 . S
C442 H428 0.930 . S
C442 C440 1.395 . S
C442 C445 1.403 . S
C443 C440 1.403 . S
C443 C444 1.524 . S
C443 C447 1.400 . S
C444 H429 0.960 . S
C444 H430 0.960 . S
C444 H431 0.960 . S
C444 C443 1.524 . S
C445 C442 1.403 . S
C445 C446 1.392 . S
C445 C449 1.495 . S
C446 C445 1.392 . S
C446 C447 1.385 . S
C446 C448 1.478 . S
C447 H441 0.930 . S
C447 C443 1.400 . S
C447 C446 1.385 . S
C448 C446 1.478 . S
C448 C450 1.381 . S
C448 C454 1.383 . S
C449 C445 1.495 . S
C449 H455 0.959 . S
C449 H456 0.961 . S
C449 H457 0.960 . S
C450 C448 1.381 . S
C450 C451 1.394 . S
C450 H458 0.930 . S
C451 C450 1.394 . S
C451 C452 1.383 . S
C451 H459 0.929 . S
C452 C451 1.383 . S
C452 C453 1.377 . S
C453 H437 0.930 . S
C453 C452 1.377 . S
C453 C454 1.379 . S
C454 H438 0.931 . S
C454 C448 1.383 . S
C454 C453 1.379 . S
H455 C449 0.959 . S
H456 C449 0.961 . S
H457 C449 0.960 . S
H458 C450 0.930 . S
H459 C451 0.929 . S
H460 C468 0.929 . S
H461 C470 0.930 . S
H462 C472 0.930 1_455 S
H463 C475 0.929 . S
H464 C478 0.930 . S
H465 C480 0.960 . S
H466 C480 0.960 1_655 S
H467 C480 0.960 . S
C468 H460 0.929 . S
C468 C469 1.377 . S
C468 C470 1.384 . S
C469 C468 1.377 . S
C469 C475 1.390 . S
C470 H461 0.930 . S
C470 C468 1.384 . S
C470 C471 1.372 . S
C471 C470 1.372 . S
C471 C472 1.400 . S
C471 C476 1.490 . S
C472 H462 0.930 1_655 S
C472 C471 1.400 . S
C472 C475 1.386 . S
H473 C489 0.930 . S
H474 C490 0.931 . S
C475 H463 0.929 . S
C475 C469 1.390 . S
C475 C472 1.386 . S
C476 C471 1.490 . S
C476 C478 1.395 . S
C476 C479 1.403 1_655 S
H477 C483 0.930 . S
C478 H464 0.930 . S
C478 C476 1.395 . S
C478 C481 1.403 1_556 S
C479 C476 1.403 1_455 S
C479 C480 1.524 . S
C479 C483 1.400 1_556 S
C480 H465 0.960 . S
C480 H466 0.960 1_455 S
C480 H467 0.960 . S
C480 C479 1.524 . S
C481 C478 1.403 1_554 S
C481 C482 1.392 1_655 S
C481 C485 1.495 . S
C482 C481 1.392 1_455 S
C482 C483 1.385 . S
C482 C484 1.478 . S
C483 H477 0.930 . S
C483 C479 1.400 1_554 S
C483 C482 1.385 . S
C484 C482 1.478 . S
C484 C486 1.381 . S
C484 C490 1.383 . S
C485 C481 1.495 . S
C485 H491 0.959 . S
C485 H492 0.961 1_655 S
C485 H493 0.960 . S
C486 C484 1.381 . S
C486 C487 1.394 . S
C486 H494 0.930 1_455 S
C487 C486 1.394 . S
C487 C488 1.383 . S
C487 H495 0.929 . S
C488 C487 1.383 . S
C488 C489 1.377 . S
C489 H473 0.930 . S
C489 C488 1.377 . S
C489 C490 1.379 . S
C490 H474 0.931 . S
C490 C484 1.383 . S
C490 C489 1.379 . S
H491 C485 0.959 . S
H492 C485 0.961 1_455 S
H493 C485 0.960 . S
H494 C486 0.930 1_655 S
H495 C487 0.929 . S
H496 C504 0.929 . S
H497 C506 0.930 . S
H498 C508 0.930 . S
H499 C511 0.929 . S
H500 C514 0.930 . S
H501 C516 0.960 . S
H502 C516 0.960 . S
H503 C516 0.960 . S
C504 H496 0.929 . S
C504 C505 1.377 . S
C504 C506 1.384 . S
C505 C504 1.377 . S
C505 C511 1.390 . S
C506 H497 0.930 . S
C506 C504 1.384 . S
C506 C507 1.372 . S
C507 C506 1.372 . S
C507 C508 1.400 . S
C507 C512 1.490 . S
C508 H498 0.930 . S
C508 C507 1.400 . S
C508 C511 1.386 . S
H509 C525 0.930 . S
H510 C526 0.931 . S
C511 H499 0.929 . S
C511 C505 1.390 . S
C511 C508 1.386 . S
C512 C507 1.490 . S
C512 C514 1.395 . S
C512 C515 1.403 . S
H513 C519 0.930 . S
C514 H500 0.930 . S
C514 C512 1.395 . S
C514 C517 1.403 . S
C515 C512 1.403 . S
C515 C516 1.524 . S
C515 C519 1.400 . S
C516 H501 0.960 . S
C516 H502 0.960 . S
C516 H503 0.960 . S
C516 C515 1.524 . S
C517 C514 1.403 . S
C517 C518 1.392 . S
C517 C521 1.495 . S
C518 C517 1.392 . S
C518 C519 1.385 . S
C518 C520 1.478 . S
C519 H513 0.930 . S
C519 C515 1.400 . S
C519 C518 1.385 . S
C520 C518 1.478 . S
C520 C522 1.381 . S
C520 C526 1.383 . S
C521 C517 1.495 . S
C521 H527 0.959 . S
C521 H528 0.961 . S
C521 H529 0.960 . S
C522 C520 1.381 . S
C522 C523 1.394 . S
C522 H530 0.930 . S
C523 C522 1.394 . S
C523 C524 1.383 . S
C523 H531 0.929 . S
C524 C523 1.383 . S
C524 C525 1.377 . S
C525 H509 0.930 . S
C525 C524 1.377 . S
C525 C526 1.379 . S
C526 H510 0.931 . S
C526 C520 1.383 . S
C526 C525 1.379 . S
H527 C521 0.959 . S
H528 C521 0.961 . S
H529 C521 0.960 . S
H530 C522 0.930 . S
H531 C523 0.929 . S
H532 C540 0.929 . S
H533 C542 0.930 . S
H534 C544 0.930 . S
H535 C547 0.929 . S
H536 C550 0.930 . S
H537 C552 0.960 . S
H538 C552 0.960 . S
H539 C552 0.960 . S
C540 H532 0.929 . S
C540 C541 1.377 . S
C540 C542 1.384 . S
C541 C540 1.377 . S
C541 C547 1.390 . S
C542 H533 0.930 . S
C542 C540 1.384 . S
C542 C543 1.372 . S
C543 C542 1.372 . S
C543 C544 1.400 . S
C543 C548 1.490 . S
C544 H534 0.930 . S
C544 C543 1.400 . S
C544 C547 1.386 . S
H545 C561 0.930 . S
H546 C562 0.931 . S
C547 H535 0.929 . S
C547 C541 1.390 . S
C547 C544 1.386 . S
C548 C543 1.490 . S
C548 C550 1.395 . S
C548 C551 1.403 . S
H549 C555 0.930 . S
C550 H536 0.930 . S
C550 C548 1.395 . S
C550 C553 1.403 . S
C551 C548 1.403 . S
C551 C552 1.524 . S
C551 C555 1.400 . S
C552 H537 0.960 . S
C552 H538 0.960 . S
C552 H539 0.960 . S
C552 C551 1.524 . S
C553 C550 1.403 . S
C553 C554 1.392 . S
C553 C557 1.495 . S
C554 C553 1.392 . S
C554 C555 1.385 . S
C554 C556 1.478 . S
C555 H549 0.930 . S
C555 C551 1.400 . S
C555 C554 1.385 . S
C556 C554 1.478 . S
C556 C558 1.381 . S
C556 C562 1.383 . S
C557 C553 1.495 . S
C557 H563 0.959 . S
C557 H564 0.961 . S
C557 H565 0.960 . S
C558 C556 1.381 . S
C558 C559 1.394 . S
C558 H566 0.930 . S
C559 C558 1.394 . S
C559 C560 1.383 . S
C559 H567 0.929 . S
C560 C559 1.383 . S
C560 C561 1.377 . S
C561 H545 0.930 . S
C561 C560 1.377 . S
C561 C562 1.379 . S
C562 H546 0.931 . S
C562 C556 1.383 . S
C562 C561 1.379 . S
H563 C557 0.959 . S
H564 C557 0.961 . S
H565 C557 0.960 . S
H566 C558 0.930 . S
H567 C559 0.929 . S
H568 C576 0.929 . S
H569 C578 0.930 . S
H570 C580 0.930 . S
H571 C583 0.929 . S
H572 C586 0.930 . S
H573 C588 0.960 1_556 S
H574 C588 0.960 . S
H575 C588 0.960 . S
C576 H568 0.929 . S
C576 C577 1.377 1_545 S
C576 C578 1.384 . S
C577 C576 1.377 1_565 S
C577 C583 1.390 . S
C578 H569 0.930 . S
C578 C576 1.384 . S
C578 C579 1.372 1_545 S
C579 C578 1.372 1_565 S
C579 C580 1.400 . S
C579 C584 1.490 . S
C580 H570 0.930 . S
C580 C579 1.400 . S
C580 C583 1.386 . S
H581 C597 0.930 1_565 S
H582 C598 0.931 . S
C583 H571 0.929 . S
C583 C577 1.390 . S
C583 C580 1.386 . S
C584 C579 1.490 . S
C584 C586 1.395 1_665 S
C584 C587 1.403 . S
H585 C591 0.930 . S
C586 H572 0.930 . S
C586 C584 1.395 1_445 S
C586 C589 1.376 1_554 S
C587 C584 1.403 . S
C587 C588 1.524 . S
C587 C591 1.400 1_554 S
C588 H573 0.960 1_554 S
C588 H574 0.960 . S
C588 H575 0.960 . S
C588 C587 1.524 . S
C589 C586 1.376 1_556 S
C589 C590 1.419 . S
C589 C593 1.495 . S
C590 C589 1.419 . S
C590 C591 1.385 1_445 S
C590 C592 1.478 . S
C591 H585 0.930 . S
C591 C587 1.400 1_556 S
C591 C590 1.385 1_665 S
C592 C590 1.478 . S
C592 C594 1.381 . S
C592 C598 1.383 1_545 S
C593 C589 1.495 . S
C593 H599 0.914 1_556 S
C593 H600 0.971 . S
C593 H601 0.997 . S
C594 C592 1.381 . S
C594 C595 1.394 . S
C594 H602 0.930 . S
C595 C594 1.394 . S
C595 C596 1.383 . S
C595 H603 0.929 . S
C596 C595 1.383 . S
C596 C597 1.377 . S
C597 H581 0.930 1_545 S
C597 C596 1.377 . S
C597 C598 1.379 1_545 S
C598 H582 0.931 . S
C598 C592 1.383 1_565 S
C598 C597 1.379 1_565 S
H599 C593 0.914 1_554 S
H600 C593 0.971 . S
H601 C593 0.997 . S
H602 C594 0.930 . S
H603 C595 0.929 . S
H604 C612 0.929 . S
H605 C614 0.930 . S
H606 C616 0.930 . S
H607 C619 0.929 . S
H608 C622 0.930 . S
H609 C624 0.960 . S
H610 C624 0.960 . S
H611 C624 0.960 . S
C612 H604 0.929 . S
C612 C613 1.377 . S
C612 C614 1.384 . S
C613 C612 1.377 . S
C613 C619 1.390 . S
C614 H605 0.930 . S
C614 C612 1.384 . S
C614 C615 1.372 . S
C615 C614 1.372 . S
C615 C616 1.400 . S
C615 C620 1.490 . S
C616 H606 0.930 . S
C616 C615 1.400 . S
C616 C619 1.386 . S
H617 C633 0.930 . S
H618 C634 0.931 . S
C619 H607 0.929 . S
C619 C613 1.390 . S
C619 C616 1.386 . S
C620 C615 1.490 . S
C620 C622 1.395 . S
C620 C623 1.403 1_565 S
H621 C627 0.930 . S
C622 H608 0.930 . S
C622 C620 1.395 . S
C622 C625 1.403 . S
C623 C620 1.403 1_545 S
C623 C624 1.524 . S
C623 C627 1.400 . S
C624 H609 0.960 . S
C624 H610 0.960 . S
C624 H611 0.960 . S
C624 C623 1.524 . S
C625 C622 1.403 . S
C625 C626 1.362 1_565 S
C625 C629 1.495 . S
C626 C625 1.362 1_545 S
C626 C627 1.411 . S
C626 C628 1.484 . S
C627 H621 0.930 . S
C627 C623 1.400 . S
C627 C626 1.411 . S
C628 C626 1.484 . S
C628 C630 1.381 . S
C628 C634 1.383 . S
C629 C625 1.495 . S
C629 H635 0.959 . S
C629 H636 0.961 . S
C629 H637 0.960 . S
C630 C628 1.381 . S
C630 C631 1.394 . S
C630 H638 0.930 . S
C631 C630 1.394 . S
C631 C632 1.383 . S
C631 H639 0.929 . S
C632 C631 1.383 . S
C632 C633 1.377 . S
C633 H617 0.930 . S
C633 C632 1.377 . S
C633 C634 1.379 . S
C634 H618 0.931 . S
C634 C628 1.383 . S
C634 C633 1.379 . S
H635 C629 0.959 . S
H636 C629 0.961 . S
H637 C629 0.960 . S
H638 C630 0.930 . S
H639 C631 0.929 . S
H640 C648 0.929 . S
H641 C650 0.930 . S
H642 C652 0.930 . S
H643 C655 0.929 . S
H644 C658 0.930 . S
H645 C660 0.960 . S
H646 C660 0.960 . S
H647 C660 0.960 . S
C648 H640 0.929 . S
C648 C649 1.377 . S
C648 C650 1.384 . S
C649 C648 1.377 . S
C649 C655 1.390 . S
C650 H641 0.930 . S
C650 C648 1.384 . S
C650 C651 1.372 . S
C651 C650 1.372 . S
C651 C652 1.400 . S
C651 C656 1.490 . S
C652 H642 0.930 . S
C652 C651 1.400 . S
C652 C655 1.386 . S
H653 C669 0.930 . S
H654 C670 0.931 . S
C655 H643 0.929 . S
C655 C649 1.390 . S
C655 C652 1.386 . S
C656 C651 1.490 . S
C656 C658 1.395 . S
C656 C659 1.403 . S
H657 C663 0.930 . S
C658 H644 0.930 . S
C658 C656 1.395 . S
C658 C661 1.403 1_556 S
C659 C656 1.403 . S
C659 C660 1.524 . S
C659 C663 1.400 . S
C660 H645 0.960 . S
C660 H646 0.960 . S
C660 H647 0.960 . S
C660 C659 1.524 . S
C661 C658 1.403 1_554 S
C661 C662 1.392 . S
C661 C665 1.495 . S
C662 C661 1.392 . S
C662 C663 1.385 1_554 S
C662 C664 1.478 . S
C663 H657 0.930 . S
C663 C659 1.400 . S
C663 C662 1.385 1_556 S
C664 C662 1.478 . S
C664 C666 1.381 . S
C664 C670 1.383 . S
C665 C661 1.495 . S
C665 H671 0.959 . S
C665 H672 0.961 . S
C665 H673 0.960 . S
C666 C664 1.381 . S
C666 C667 1.394 . S
C666 H674 0.930 . S
C667 C666 1.394 . S
C667 C668 1.383 . S
C667 H675 0.929 . S
C668 C667 1.383 . S
C668 C669 1.377 . S
C669 H653 0.930 . S
C669 C668 1.377 . S
C669 C670 1.379 . S
C670 H654 0.931 . S
C670 C664 1.383 . S
C670 C669 1.379 . S
H671 C665 0.959 . S
H672 C665 0.961 . S
H673 C665 0.960 . S
H674 C666 0.930 . S
H675 C667 0.929 . S
H676 C684 0.929 . S
H677 C686 0.930 . S
H678 C688 0.930 . S
H679 C691 0.929 . S
H680 C694 0.930 . S
H681 C696 0.960 . S
H682 C696 0.960 . S
H683 C696 0.960 . S
C684 H676 0.929 . S
C684 C685 1.377 . S
C684 C686 1.384 . S
C685 C684 1.377 . S
C685 C691 1.390 . S
C686 H677 0.930 . S
C686 C684 1.384 . S
C686 C687 1.372 . S
C687 C686 1.372 . S
C687 C688 1.400 . S
C687 C692 1.490 . S
C688 H678 0.930 . S
C688 C687 1.400 . S
C688 C691 1.386 . S
H689 C705 0.930 . S
H690 C706 0.931 . S
C691 H679 0.929 . S
C691 C685 1.390 . S
C691 C688 1.386 . S
C692 C687 1.490 . S
C692 C694 1.395 . S
C692 C695 1.403 . S
H693 C699 0.930 . S
C694 H680 0.930 . S
C694 C692 1.395 . S
C694 C697 1.403 . S
C695 C692 1.403 . S
C695 C696 1.524 . S
C695 C699 1.400 . S
C696 H681 0.960 . S
C696 H682 0.960 . S
C696 H683 0.960 . S
C696 C695 1.524 . S
C697 C694 1.403 . S
C697 C698 1.392 . S
C697 C701 1.495 . S
C698 C697 1.392 . S
C698 C699 1.385 . S
C698 C700 1.478 . S
C699 H693 0.930 . S
C699 C695 1.400 . S
C699 C698 1.385 . S
C700 C698 1.478 . S
C700 C702 1.381 . S
C700 C706 1.383 . S
C701 C697 1.495 . S
C701 H707 0.959 . S
C701 H708 0.961 . S
C701 H709 0.960 . S
C702 C700 1.381 . S
C702 C703 1.394 . S
C702 H710 0.930 . S
C703 C702 1.394 . S
C703 C704 1.383 . S
C703 H711 0.929 . S
C704 C703 1.383 . S
C704 C705 1.377 . S
C705 H689 0.930 . S
C705 C704 1.377 . S
C705 C706 1.379 . S
C706 H690 0.931 . S
C706 C700 1.383 . S
C706 C705 1.379 . S
H707 C701 0.959 . S
H708 C701 0.961 . S
H709 C701 0.960 . S
H710 C702 0.930 . S
H711 C703 0.929 . S
H712 C720 0.929 . S
H713 C722 0.930 . S
H714 C724 0.930 . S
H715 C727 0.929 . S
H716 C730 0.930 . S
H717 C732 0.960 . S
H718 C732 0.960 . S
H719 C732 0.960 . S
C720 H712 0.929 . S
C720 C721 1.377 . S
C720 C722 1.384 . S
C721 C720 1.377 . S
C721 C727 1.390 . S
C722 H713 0.930 . S
C722 C720 1.384 . S
C722 C723 1.372 . S
C723 C722 1.372 . S
C723 C724 1.400 . S
C723 C728 1.490 . S
C724 H714 0.930 . S
C724 C723 1.400 . S
C724 C727 1.386 . S
H725 C741 0.930 . S
H726 C742 0.931 . S
C727 H715 0.929 . S
C727 C721 1.390 . S
C727 C724 1.386 . S
C728 C723 1.490 . S
C728 C730 1.395 . S
C728 C731 1.403 . S
H729 C735 0.930 . S
C730 H716 0.930 . S
C730 C728 1.395 . S
C730 C733 1.403 . S
C731 C728 1.403 . S
C731 C732 1.524 . S
C731 C735 1.400 . S
C732 H717 0.960 . S
C732 H718 0.960 . S
C732 H719 0.960 . S
C732 C731 1.524 . S
C733 C730 1.403 . S
C733 C734 1.392 . S
C733 C737 1.495 . S
C734 C733 1.392 . S
C734 C735 1.385 . S
C734 C736 1.478 . S
C735 H729 0.930 . S
C735 C731 1.400 . S
C735 C734 1.385 . S
C736 C734 1.478 . S
C736 C738 1.381 . S
C736 C742 1.383 . S
C737 C733 1.495 . S
C737 H743 0.959 . S
C737 H744 0.961 . S
C737 H745 0.960 . S
C738 C736 1.381 . S
C738 C739 1.394 . S
C738 H746 0.930 . S
C739 C738 1.394 . S
C739 C740 1.383 . S
C739 H747 0.929 . S
C740 C739 1.383 . S
C740 C741 1.377 . S
C741 H725 0.930 . S
C741 C740 1.377 . S
C741 C742 1.379 . S
C742 H726 0.931 . S
C742 C736 1.383 . S
C742 C741 1.379 . S
H743 C737 0.959 . S
H744 C737 0.961 . S
H745 C737 0.960 . S
H746 C738 0.930 . S
H747 C739 0.929 . S
H748 C756 0.929 . S
H749 C758 0.930 . S
H750 C760 0.930 . S
H751 C763 0.929 . S
H752 C766 0.930 . S
H753 C768 0.960 . S
H754 C768 0.960 . S
H755 C768 0.960 . S
C756 H748 0.929 . S
C756 C757 1.377 . S
C756 C758 1.384 . S
C757 C756 1.377 . S
C757 C763 1.390 . S
C758 H749 0.930 . S
C758 C756 1.384 . S
C758 C759 1.372 . S
C759 C758 1.372 . S
C759 C760 1.400 . S
C759 C764 1.490 . S
C760 H750 0.930 . S
C760 C759 1.400 . S
C760 C763 1.386 . S
H761 C777 0.930 . S
H762 C778 0.931 . S
C763 H751 0.929 . S
C763 C757 1.390 . S
C763 C760 1.386 . S
C764 C759 1.490 . S
C764 C766 1.395 . S
C764 C767 1.403 . S
H765 C771 0.930 . S
C766 H752 0.930 . S
C766 C764 1.395 . S
C766 C769 1.403 . S
C767 C764 1.403 . S
C767 C768 1.524 . S
C767 C771 1.400 . S
C768 H753 0.960 . S
C768 H754 0.960 . S
C768 H755 0.960 . S
C768 C767 1.524 . S
C769 C766 1.403 . S
C769 C770 1.392 . S
C769 C773 1.495 . S
C770 C769 1.392 . S
C770 C771 1.385 . S
C770 C772 1.478 . S
C771 H765 0.930 . S
C771 C767 1.400 . S
C771 C770 1.385 . S
C772 C770 1.478 . S
C772 C774 1.381 . S
C772 C778 1.383 . S
C773 C769 1.495 . S
C773 H779 0.959 . S
C773 H780 0.961 . S
C773 H781 0.960 . S
C774 C772 1.381 . S
C774 C775 1.394 . S
C774 H782 0.930 . S
C775 C774 1.394 . S
C775 C776 1.383 . S
C775 H783 0.929 . S
C776 C775 1.383 . S
C776 C777 1.377 . S
C777 H761 0.930 . S
C777 C776 1.377 . S
C777 C778 1.379 . S
C778 H762 0.931 . S
C778 C772 1.383 . S
C778 C777 1.379 . S
H779 C773 0.959 . S
H780 C773 0.961 . S
H781 C773 0.960 . S
H782 C774 0.930 . S
H783 C775 0.929 . S
H784 C792 0.929 . S
H785 C794 0.930 . S
H786 C796 0.930 . S
H787 C799 0.929 . S
H788 C802 0.930 . S
H789 C804 0.960 . S
H790 C804 0.960 . S
H791 C804 0.960 . S
C792 H784 0.929 . S
C792 C793 1.377 . S
C792 C794 1.384 . S
C793 C792 1.377 . S
C793 C799 1.390 . S
C794 H785 0.930 . S
C794 C792 1.384 . S
C794 C795 1.372 . S
C795 C794 1.372 . S
C795 C796 1.400 . S
C795 C800 1.490 . S
C796 H786 0.930 . S
C796 C795 1.400 . S
C796 C799 1.386 . S
H797 C813 0.930 . S
H798 C814 0.931 . S
C799 H787 0.929 . S
C799 C793 1.390 . S
C799 C796 1.386 . S
C800 C795 1.490 . S
C800 C802 1.395 . S
C800 C803 1.403 . S
H801 C807 0.939 . S
C802 H788 0.930 . S
C802 C800 1.395 . S
C802 C805 1.403 1_554 S
C803 C800 1.403 . S
C803 C804 1.524 . S
C803 C807 1.378 1_554 S
C804 H789 0.960 . S
C804 H790 0.960 . S
C804 H791 0.960 . S
C804 C803 1.524 . S
C805 C802 1.403 1_556 S
C805 C806 1.392 . S
C805 C809 1.495 . S
C806 C805 1.392 . S
C806 C807 1.399 . S
C806 C808 1.478 . S
C807 H801 0.939 . S
C807 C803 1.378 1_556 S
C807 C806 1.399 . S
C808 C806 1.478 . S
C808 C810 1.381 . S
C808 C814 1.383 . S
C809 C805 1.495 . S
C809 H815 0.959 . S
C809 H816 0.961 . S
C809 H817 0.960 . S
C810 C808 1.381 . S
C810 C811 1.394 . S
C810 H818 0.930 . S
C811 C810 1.394 . S
C811 C812 1.383 . S
C811 H819 0.929 . S
C812 C811 1.383 . S
C812 C813 1.377 . S
C813 H797 0.930 . S
C813 C812 1.377 . S
C813 C814 1.379 . S
C814 H798 0.931 . S
C814 C808 1.383 . S
C814 C813 1.379 . S
H815 C809 0.959 . S
H816 C809 0.961 . S
H817 C809 0.960 . S
H818 C810 0.930 . S
H819 C811 0.929 . S
H820 C828 0.929 . S
H821 C830 0.930 . S
H822 C832 0.930 . S
H823 C835 0.929 . S
H824 C838 0.930 . S
H825 C840 0.960 . S
H826 C840 0.960 . S
H827 C840 0.960 . S
C828 H820 0.929 . S
C828 C829 1.377 . S
C828 C830 1.384 . S
C829 C828 1.377 . S
C829 C835 1.390 . S
C830 H821 0.930 . S
C830 C828 1.384 . S
C830 C831 1.372 . S
C831 C830 1.372 . S
C831 C832 1.400 . S
C831 C836 1.490 . S
C832 H822 0.930 . S
C832 C831 1.400 . S
C832 C835 1.386 . S
H833 C849 0.930 . S
H834 C850 0.931 . S
C835 H823 0.929 . S
C835 C829 1.390 . S
C835 C832 1.386 . S
C836 C831 1.490 . S
C836 C838 1.395 . S
C836 C839 1.403 . S
H837 C843 0.930 . S
C838 H824 0.930 . S
C838 C836 1.395 . S
C838 C841 1.403 . S
C839 C836 1.403 . S
C839 C840 1.524 . S
C839 C843 1.400 . S
C840 H825 0.960 . S
C840 H826 0.960 . S
C840 H827 0.960 . S
C840 C839 1.524 . S
C841 C838 1.403 . S
C841 C842 1.392 . S
C841 C845 1.495 . S
C842 C841 1.392 . S
C842 C843 1.385 . S
C842 C844 1.478 . S
C843 H837 0.930 . S
C843 C839 1.400 . S
C843 C842 1.385 . S
C844 C842 1.478 . S
C844 C846 1.381 . S
C844 C850 1.383 . S
C845 C841 1.495 . S
C845 H851 0.959 . S
C845 H852 0.961 . S
C845 H853 0.960 . S
C846 C844 1.381 . S
C846 C847 1.394 . S
C846 H854 0.930 . S
C847 C846 1.394 . S
C847 C848 1.383 . S
C847 H855 0.929 . S
C848 C847 1.383 . S
C848 C849 1.377 . S
C849 H833 0.930 . S
C849 C848 1.377 . S
C849 C850 1.379 . S
C850 H834 0.931 . S
C850 C844 1.383 . S
C850 C849 1.379 . S
H851 C845 0.959 . S
H852 C845 0.961 . S
H853 C845 0.960 . S
H854 C846 0.930 . S
H855 C847 0.929 . S
H856 C864 0.929 . S
H857 C866 0.930 . S
H858 C868 0.930 . S
H859 C871 0.929 . S
H860 C874 0.930 . S
H861 C876 0.960 . S
H862 C876 0.960 . S
H863 C876 0.960 . S
C864 H856 0.929 . S
C864 C865 1.377 . S
C864 C866 1.384 . S
C865 C864 1.377 . S
C865 C871 1.390 . S
C866 H857 0.930 . S
C866 C864 1.384 . S
C866 C867 1.372 . S
C867 C866 1.372 . S
C867 C868 1.400 . S
C867 C872 1.490 . S
C868 H858 0.930 . S
C868 C867 1.400 . S
C868 C871 1.386 . S
H869 C885 0.930 . S
H870 C886 0.931 . S
C871 H859 0.929 . S
C871 C865 1.390 . S
C871 C868 1.386 . S
C872 C867 1.490 . S
C872 C874 1.395 . S
C872 C875 1.403 . S
H873 C879 0.930 . S
C874 H860 0.930 . S
C874 C872 1.395 . S
C874 C877 1.403 . S
C875 C872 1.403 . S
C875 C876 1.524 . S
C875 C879 1.400 . S
C876 H861 0.960 . S
C876 H862 0.960 . S
C876 H863 0.960 . S
C876 C875 1.524 . S
C877 C874 1.403 . S
C877 C878 1.392 . S
C877 C881 1.495 . S
C878 C877 1.392 . S
C878 C879 1.385 . S
C878 C880 1.478 . S
C879 H873 0.930 . S
C879 C875 1.400 . S
C879 C878 1.385 . S
C880 C878 1.478 . S
C880 C882 1.381 . S
C880 C886 1.383 . S
C881 C877 1.495 . S
C881 H887 0.959 . S
C881 H888 0.961 . S
C881 H889 0.960 . S
C882 C880 1.381 . S
C882 C883 1.394 . S
C882 H890 0.930 . S
C883 C882 1.394 . S
C883 C884 1.383 . S
C883 H891 0.929 . S
C884 C883 1.383 . S
C884 C885 1.377 . S
C885 H869 0.930 . S
C885 C884 1.377 . S
C885 C886 1.379 . S
C886 H870 0.931 . S
C886 C880 1.383 . S
C886 C885 1.379 . S
H887 C881 0.959 . S
H888 C881 0.961 . S
H889 C881 0.960 . S
H890 C882 0.930 . S
H891 C883 0.929 . S
H892 C900 0.929 . S
H893 C902 0.930 . S
H894 C904 0.930 . S
H895 C907 0.929 . S
H896 C910 0.930 . S
H897 C912 0.960 . S
H898 C912 0.960 . S
H899 C912 0.960 . S
C900 H892 0.929 . S
C900 C901 1.377 . S
C900 C902 1.384 . S
C901 C900 1.377 . S
C901 C907 1.390 . S
C902 H893 0.930 . S
C902 C900 1.384 . S
C902 C903 1.372 . S
C903 C902 1.372 . S
C903 C904 1.400 . S
C903 C908 1.490 . S
C904 H894 0.930 . S
C904 C903 1.400 . S
C904 C907 1.386 . S
H905 C921 0.930 . S
H906 C922 0.931 . S
C907 H895 0.929 . S
C907 C901 1.390 . S
C907 C904 1.386 . S
C908 C903 1.490 . S
C908 C910 1.395 . S
C908 C911 1.403 . S
H909 C915 0.930 . S
C910 H896 0.930 . S
C910 C908 1.395 . S
C910 C913 1.403 . S
C911 C908 1.403 . S
C911 C912 1.524 . S
C911 C915 1.400 . S
C912 H897 0.960 . S
C912 H898 0.960 . S
C912 H899 0.960 . S
C912 C911 1.524 . S
C913 C910 1.403 . S
C913 C914 1.392 . S
C913 C917 1.495 . S
C914 C913 1.392 . S
C914 C915 1.385 . S
C914 C916 1.478 . S
C915 H909 0.930 . S
C915 C911 1.400 . S
C915 C914 1.385 . S
C916 C914 1.478 . S
C916 C918 1.381 . S
C916 C922 1.383 . S
C917 C913 1.495 . S
C917 H923 0.959 . S
C917 H924 0.961 . S
C917 H925 0.960 . S
C918 C916 1.381 . S
C918 C919 1.394 . S
C918 H926 0.930 . S
C919 C918 1.394 . S
C919 C920 1.383 . S
C919 H927 0.929 . S
C920 C919 1.383 . S
C920 C921 1.377 . S
C921 H905 0.930 . S
C921 C920 1.377 . S
C921 C922 1.379 . S
C922 H906 0.931 . S
C922 C916 1.383 . S
C922 C921 1.379 . S
H923 C917 0.959 . S
H924 C917 0.961 . S
H925 C917 0.960 . S
H926 C918 0.930 . S
H927 C919 0.929 . S
H928 C936 0.929 . S
H929 C938 0.930 . S
H930 C940 0.930 . S
H931 C943 0.929 . S
H932 C946 0.930 . S
H933 C948 0.960 . S
H934 C948 0.960 . S
H935 C948 0.960 . S
C936 H928 0.929 . S
C936 C937 1.377 . S
C936 C938 1.384 . S
C937 C936 1.377 . S
C937 C943 1.390 . S
C938 H929 0.930 . S
C938 C936 1.384 . S
C938 C939 1.372 . S
C939 C938 1.372 . S
C939 C940 1.400 . S
C939 C944 1.490 . S
C940 H930 0.930 . S
C940 C939 1.400 . S
C940 C943 1.386 . S
H941 C957 0.930 . S
H942 C958 0.931 . S
C943 H931 0.929 . S
C943 C937 1.390 . S
C943 C940 1.386 . S
C944 C939 1.490 . S
C944 C946 1.395 . S
C944 C947 1.403 . S
H945 C951 0.930 . S
C946 H932 0.930 . S
C946 C944 1.395 . S
C946 C949 1.403 . S
C947 C944 1.403 . S
C947 C948 1.524 . S
C947 C951 1.400 . S
C948 H933 0.960 . S
C948 H934 0.960 . S
C948 H935 0.960 . S
C948 C947 1.524 . S
C949 C946 1.403 . S
C949 C950 1.392 . S
C949 C953 1.495 . S
C950 C949 1.392 . S
C950 C951 1.385 . S
C950 C952 1.478 . S
C951 H945 0.930 . S
C951 C947 1.400 . S
C951 C950 1.385 . S
C952 C950 1.478 . S
C952 C954 1.381 . S
C952 C958 1.383 . S
C953 C949 1.495 . S
C953 H959 0.959 . S
C953 H960 0.961 . S
C953 H961 0.960 . S
C954 C952 1.381 . S
C954 C955 1.394 . S
C954 H962 0.930 . S
C955 C954 1.394 . S
C955 C956 1.383 . S
C955 H963 0.929 . S
C956 C955 1.383 . S
C956 C957 1.377 . S
C957 H941 0.930 . S
C957 C956 1.377 . S
C957 C958 1.379 . S
C958 H942 0.931 . S
C958 C952 1.383 . S
C958 C957 1.379 . S
H959 C953 0.959 . S
H960 C953 0.961 . S
H961 C953 0.960 . S
H962 C954 0.930 . S
H963 C955 0.929 . S
H964 C972 0.929 . S
H965 C974 0.930 . S
H966 C976 0.930 . S
H967 C979 0.929 . S
H968 C982 0.930 . S
H969 C984 0.960 . S
H970 C984 0.960 . S
H971 C984 0.960 . S
C972 H964 0.929 . S
C972 C973 1.377 . S
C972 C974 1.384 . S
C973 C972 1.377 . S
C973 C979 1.390 . S
C974 H965 0.930 . S
C974 C972 1.384 . S
C974 C975 1.372 . S
C975 C974 1.372 . S
C975 C976 1.400 . S
C975 C980 1.490 1_545 S
C976 H966 0.930 . S
C976 C975 1.400 . S
C976 C979 1.386 . S
H977 C993 0.930 . S
H978 C994 0.931 . S
C979 H967 0.929 . S
C979 C973 1.390 . S
C979 C976 1.386 . S
C980 C975 1.490 1_565 S
C980 C982 1.395 . S
C980 C983 1.403 . S
H981 C987 0.930 . S
C982 H968 0.930 . S
C982 C980 1.395 . S
C982 C985 1.403 . S
C983 C980 1.403 . S
C983 C984 1.524 1_565 S
C983 C987 1.400 . S
C984 H969 0.960 . S
C984 H970 0.960 . S
C984 H971 0.960 . S
C984 C983 1.524 1_545 S
C985 C982 1.403 . S
C985 C986 1.392 . S
C985 C989 1.495 . S
C986 C985 1.392 . S
C986 C987 1.385 . S
C986 C988 1.478 . S
C987 H981 0.930 . S
C987 C983 1.400 . S
C987 C986 1.385 . S
C988 C986 1.478 . S
C988 C990 1.381 . S
C988 C994 1.383 . S
C989 C985 1.495 . S
C989 H995 0.959 . S
C989 H996 0.961 . S
C989 H997 0.960 . S
C990 C988 1.381 . S
C990 C991 1.394 . S
C990 H998 0.930 . S
C991 C990 1.394 . S
C991 C992 1.383 . S
C991 H999 0.929 . S
C992 C991 1.383 . S
C992 C993 1.377 . S
C993 H977 0.930 . S
C993 C992 1.377 . S
C993 C994 1.379 . S
C994 H978 0.931 . S
C994 C988 1.383 . S
C994 C993 1.379 . S
H995 C989 0.959 . S
H996 C989 0.961 . S
H997 C989 0.960 . S
H998 C990 0.930 . S
H999 C991 0.929 . S
H1000 C1008 0.929 . S
H1001 C1010 0.930 . S
H1002 C1012 0.930 . S
H1003 C1015 0.929 . S
H1004 C1018 0.930 . S
H1005 C1020 0.948 1_556 S
H1006 C1020 0.972 . S
H1007 C1020 0.962 . S
C1008 H1000 0.929 . S
C1008 C1009 1.377 . S
C1008 C1010 1.384 . S
C1009 C1008 1.377 . S
C1009 C1015 1.390 . S
C1010 H1001 0.930 . S
C1010 C1008 1.384 . S
C1010 C1011 1.372 . S
C1011 C1010 1.372 . S
C1011 C1012 1.400 . S
C1011 C1016 1.490 . S
C1012 H1002 0.930 . S
C1012 C1011 1.400 . S
C1012 C1015 1.386 . S
H1013 C1029 0.930 . S
H1014 C1030 0.931 . S
C1015 H1003 0.929 . S
C1015 C1009 1.390 . S
C1015 C1012 1.386 . S
C1016 C1011 1.490 . S
C1016 C1018 1.395 . S
C1016 C1019 1.403 1_554 S
H1017 C1023 0.930 . S
C1018 H1004 0.930 . S
C1018 C1016 1.395 . S
C1018 C1021 1.403 1_554 S
C1019 C1016 1.403 1_556 S
C1019 C1020 1.522 1_556 S
C1019 C1023 1.400 . S
C1020 H1005 0.948 1_554 S
C1020 H1006 0.972 . S
C1020 H1007 0.962 . S
C1020 C1019 1.522 1_554 S
C1021 C1018 1.403 1_556 S
C1021 C1022 1.392 . S
C1021 C1025 1.495 . S
C1022 C1021 1.392 . S
C1022 C1023 1.385 . S
C1022 C1024 1.478 . S
C1023 H1017 0.930 . S
C1023 C1019 1.400 . S
C1023 C1022 1.385 . S
C1024 C1022 1.478 . S
C1024 C1026 1.381 . S
C1024 C1030 1.383 . S
C1025 C1021 1.495 . S
C1025 H1031 0.980 . S
C1025 H1032 0.961 . S
C1025 H1033 0.960 . S
C1026 C1024 1.381 . S
C1026 C1027 1.394 . S
C1026 H1034 0.930 . S
C1027 C1026 1.394 . S
C1027 C1028 1.383 . S
C1027 H1035 0.929 . S
C1028 C1027 1.383 . S
C1028 C1029 1.377 . S
C1029 H1013 0.930 . S
C1029 C1028 1.377 . S
C1029 C1030 1.379 . S
C1030 H1014 0.931 . S
C1030 C1024 1.383 . S
C1030 C1029 1.379 . S
H1031 C1025 0.980 . S
H1032 C1025 0.961 . S
H1033 C1025 0.960 . S
H1034 C1026 0.930 . S
H1035 C1027 0.929 . S
H1036 C1044 0.929 . S
H1037 C1046 0.930 . S
H1038 C1048 0.930 . S
H1039 C1051 0.929 . S
H1040 C1054 0.930 . S
H1041 C1056 0.960 . S
H1042 C1056 0.960 . S
H1043 C1056 0.960 . S
C1044 H1036 0.929 . S
C1044 C1045 1.377 . S
C1044 C1046 1.384 . S
C1045 C1044 1.377 . S
C1045 C1051 1.390 . S
C1046 H1037 0.930 . S
C1046 C1044 1.384 . S
C1046 C1047 1.372 . S
C1047 C1046 1.372 . S
C1047 C1048 1.400 . S
C1047 C1052 1.490 . S
C1048 H1038 0.930 . S
C1048 C1047 1.400 . S
C1048 C1051 1.386 . S
H1049 C1065 0.930 . S
H1050 C1066 0.931 . S
C1051 H1039 0.929 . S
C1051 C1045 1.390 . S
C1051 C1048 1.386 . S
C1052 C1047 1.490 . S
C1052 C1054 1.395 . S
C1052 C1055 1.403 . S
H1053 C1059 0.930 . S
C1054 H1040 0.930 . S
C1054 C1052 1.395 . S
C1054 C1057 1.403 1_545 S
C1055 C1052 1.403 . S
C1055 C1056 1.524 . S
C1055 C1059 1.400 . S
C1056 H1041 0.960 . S
C1056 H1042 0.960 . S
C1056 H1043 0.960 . S
C1056 C1055 1.524 . S
C1057 C1054 1.403 1_565 S
C1057 C1058 1.392 1_565 S
C1057 C1061 1.495 . S
C1058 C1057 1.392 1_545 S
C1058 C1059 1.385 . S
C1058 C1060 1.478 1_545 S
C1059 H1053 0.930 . S
C1059 C1055 1.400 . S
C1059 C1058 1.385 . S
C1060 C1058 1.478 1_565 S
C1060 C1062 1.381 . S
C1060 C1066 1.383 . S
C1061 C1057 1.495 . S
C1061 H1067 0.959 . S
C1061 H1068 0.961 . S
C1061 H1069 0.960 . S
C1062 C1060 1.381 . S
C1062 C1063 1.394 . S
C1062 H1070 0.930 . S
C1063 C1062 1.394 . S
C1063 C1064 1.383 . S
C1063 H1071 0.929 . S
C1064 C1063 1.383 . S
C1064 C1065 1.377 . S
C1065 H1049 0.930 . S
C1065 C1064 1.377 . S
C1065 C1066 1.379 . S
C1066 H1050 0.931 . S
C1066 C1060 1.383 . S
C1066 C1065 1.379 . S
H1067 C1061 0.959 . S
H1068 C1061 0.961 . S
H1069 C1061 0.960 . S
H1070 C1062 0.930 . S
H1071 C1063 0.929 . S
H1072 C1080 0.929 . S
H1073 C1082 0.930 . S
H1074 C1084 0.930 . S
H1075 C1087 0.929 . S
H1076 C1090 0.930 . S
H1077 C1092 0.960 . S
H1078 C1092 0.960 . S
H1079 C1092 0.960 . S
C1080 H1072 0.929 . S
C1080 C1081 1.377 . S
C1080 C1082 1.384 . S
C1081 C1080 1.377 . S
C1081 C1087 1.390 . S
C1082 H1073 0.930 . S
C1082 C1080 1.384 . S
C1082 C1083 1.372 . S
C1083 C1082 1.372 . S
C1083 C1084 1.400 . S
C1083 C1088 1.490 . S
C1084 H1074 0.930 . S
C1084 C1083 1.400 . S
C1084 C1087 1.386 . S
H1085 C1101 0.930 . S
H1086 C1102 0.931 . S
C1087 H1075 0.929 . S
C1087 C1081 1.390 . S
C1087 C1084 1.386 . S
C1088 C1083 1.490 . S
C1088 C1090 1.395 . S
C1088 C1091 1.403 . S
H1089 C1095 0.930 . S
C1090 H1076 0.930 . S
C1090 C1088 1.395 . S
C1090 C1093 1.403 . S
C1091 C1088 1.403 . S
C1091 C1092 1.524 . S
C1091 C1095 1.400 . S
C1092 H1077 0.960 . S
C1092 H1078 0.960 . S
C1092 H1079 0.960 . S
C1092 C1091 1.524 . S
C1093 C1090 1.403 . S
C1093 C1094 1.392 . S
C1093 C1097 1.495 . S
C1094 C1093 1.392 . S
C1094 C1095 1.385 . S
C1094 C1096 1.478 . S
C1095 H1089 0.930 . S
C1095 C1091 1.400 . S
C1095 C1094 1.385 . S
C1096 C1094 1.478 . S
C1096 C1098 1.381 . S
C1096 C1102 1.383 . S
C1097 C1093 1.495 . S
C1097 H1103 0.959 . S
C1097 H1104 0.961 . S
C1097 H1105 0.960 . S
C1098 C1096 1.381 . S
C1098 C1099 1.394 . S
C1098 H1106 0.930 . S
C1099 C1098 1.394 . S
C1099 C1100 1.383 . S
C1099 H1107 0.929 . S
C1100 C1099 1.383 . S
C1100 C1101 1.377 . S
C1101 H1085 0.930 . S
C1101 C1100 1.377 . S
C1101 C1102 1.379 . S
C1102 H1086 0.931 . S
C1102 C1096 1.383 . S
C1102 C1101 1.379 . S
H1103 C1097 0.959 . S
H1104 C1097 0.961 . S
H1105 C1097 0.960 . S
H1106 C1098 0.930 . S
H1107 C1099 0.929 . S
H1108 C1116 0.929 . S
H1109 C1118 0.930 . S
H1110 C1120 0.930 . S
H1111 C1123 0.929 . S
H1112 C1126 0.930 . S
H1113 C1128 0.960 . S
H1114 C1128 0.960 . S
H1115 C1128 0.960 . S
C1116 H1108 0.929 . S
C1116 C1117 1.377 . S
C1116 C1118 1.384 1_565 S
C1117 C1116 1.377 . S
C1117 C1123 1.390 . S
C1118 H1109 0.930 . S
C1118 C1116 1.384 1_545 S
C1118 C1119 1.372 1_545 S
C1119 C1118 1.372 1_565 S
C1119 C1120 1.400 . S
C1119 C1124 1.490 1_565 S
C1120 H1110 0.930 . S
C1120 C1119 1.400 . S
C1120 C1123 1.386 . S
H1121 C1137 0.930 . S
H1122 C1138 0.931 . S
C1123 H1111 0.929 . S
C1123 C1117 1.390 . S
C1123 C1120 1.386 . S
C1124 C1119 1.490 1_545 S
C1124 C1126 1.395 . S
C1124 C1127 1.403 . S
H1125 C1131 0.930 . S
C1126 H1112 0.930 . S
C1126 C1124 1.395 . S
C1126 C1129 1.403 . S
C1127 C1124 1.403 . S
C1127 C1128 1.524 1_545 S
C1127 C1131 1.400 . S
C1128 H1113 0.960 . S
C1128 H1114 0.960 . S
C1128 H1115 0.960 . S
C1128 C1127 1.524 1_565 S
C1129 C1126 1.403 . S
C1129 C1130 1.392 . S
C1129 C1133 1.495 . S
C1130 C1129 1.392 . S
C1130 C1131 1.385 . S
C1130 C1132 1.478 . S
C1131 H1125 0.930 . S
C1131 C1127 1.400 . S
C1131 C1130 1.385 . S
C1132 C1130 1.478 . S
C1132 C1134 1.381 . S
C1132 C1138 1.383 . S
C1133 C1129 1.495 . S
C1133 H1139 0.959 . S
C1133 H1140 0.961 . S
C1133 H1141 0.960 . S
C1134 C1132 1.381 . S
C1134 C1135 1.394 . S
C1134 H1142 0.930 . S
C1135 C1134 1.394 . S
C1135 C1136 1.383 . S
C1135 H1143 0.929 . S
C1136 C1135 1.383 . S
C1136 C1137 1.377 . S
C1137 H1121 0.930 . S
C1137 C1136 1.377 . S
C1137 C1138 1.379 . S
C1138 H1122 0.931 . S
C1138 C1132 1.383 . S
C1138 C1137 1.379 . S
H1139 C1133 0.959 . S
H1140 C1133 0.961 . S
H1141 C1133 0.960 . S
H1142 C1134 0.930 . S
H1143 C1135 0.929 . S
H1144 C1152 0.929 . S
H1145 C1154 0.930 . S
H1146 C1156 0.930 . S
H1147 C1159 0.929 . S
H1148 C1162 0.930 . S
H1149 C1164 0.950 1_556 S
H1150 C1164 0.960 . S
H1151 C1164 0.960 . S
C1152 H1144 0.929 . S
C1152 C1153 1.377 . S
C1152 C1154 1.384 . S
C1153 C1152 1.377 . S
C1153 C1159 1.390 . S
C1154 H1145 0.930 . S
C1154 C1152 1.384 . S
C1154 C1155 1.372 . S
C1155 C1154 1.372 . S
C1155 C1156 1.400 . S
C1155 C1160 1.490 . S
C1156 H1146 0.930 . S
C1156 C1155 1.400 . S
C1156 C1159 1.386 . S
H1157 C1173 0.930 . S
H1158 C1174 0.931 . S
C1159 H1147 0.929 . S
C1159 C1153 1.390 . S
C1159 C1156 1.386 . S
C1160 C1155 1.490 . S
C1160 C1162 1.395 . S
C1160 C1163 1.403 . S
H1161 C1167 0.930 . S
C1162 H1148 0.930 . S
C1162 C1160 1.395 . S
C1162 C1165 1.403 . S
C1163 C1160 1.403 . S
C1163 C1164 1.524 . S
C1163 C1167 1.400 1_554 S
C1164 H1149 0.950 1_554 S
C1164 H1150 0.960 . S
C1164 H1151 0.960 . S
C1164 C1163 1.524 . S
C1165 C1162 1.403 . S
C1165 C1166 1.392 1_554 S
C1165 C1169 1.495 . S
C1166 C1165 1.392 1_556 S
C1166 C1167 1.385 . S
C1166 C1168 1.478 . S
C1167 H1161 0.930 . S
C1167 C1163 1.400 1_556 S
C1167 C1166 1.385 . S
C1168 C1166 1.478 . S
C1168 C1170 1.381 . S
C1168 C1174 1.383 . S
C1169 C1165 1.495 . S
C1169 H1175 0.959 . S
C1169 H1176 0.961 . S
C1169 H1177 0.960 1_554 S
C1170 C1168 1.381 . S
C1170 C1171 1.394 . S
C1170 H1178 0.930 . S
C1171 C1170 1.394 . S
C1171 C1172 1.383 . S
C1171 H1179 0.929 . S
C1172 C1171 1.383 . S
C1172 C1173 1.377 . S
C1173 H1157 0.930 . S
C1173 C1172 1.377 . S
C1173 C1174 1.379 . S
C1174 H1158 0.931 . S
C1174 C1168 1.383 . S
C1174 C1173 1.379 . S
H1175 C1169 0.959 . S
H1176 C1169 0.961 . S
H1177 C1169 0.960 1_556 S
H1178 C1170 0.930 . S
H1179 C1171 0.929 . S
H1180 C1188 0.929 . S
H1181 C1190 0.930 . S
H1182 C1192 0.930 . S
H1183 C1195 0.929 . S
H1184 C1198 0.930 . S
H1185 C1200 0.960 . S
H1186 C1200 0.960 . S
H1187 C1200 0.960 1_545 S
C1188 H1180 0.929 . S
C1188 C1189 1.377 . S
C1188 C1190 1.384 1_545 S
C1189 C1188 1.377 . S
C1189 C1195 1.390 . S
C1190 H1181 0.930 . S
C1190 C1188 1.384 1_565 S
C1190 C1191 1.372 1_565 S
C1191 C1190 1.372 1_545 S
C1191 C1192 1.400 . S
C1191 C1196 1.490 1_545 S
C1192 H1182 0.930 . S
C1192 C1191 1.400 . S
C1192 C1195 1.386 . S
H1193 C1209 0.930 . S
H1194 C1210 0.931 . S
C1195 H1183 0.929 . S
C1195 C1189 1.390 . S
C1195 C1192 1.386 . S
C1196 C1191 1.490 1_565 S
C1196 C1198 1.395 . S
C1196 C1199 1.403 . S
H1197 C1203 0.930 . S
C1198 H1184 0.930 . S
C1198 C1196 1.395 . S
C1198 C1201 1.403 . S
C1199 C1196 1.403 . S
C1199 C1200 1.524 . S
C1199 C1203 1.400 . S
C1200 H1185 0.960 . S
C1200 H1186 0.960 . S
C1200 H1187 0.960 1_565 S
C1200 C1199 1.524 . S
C1201 C1198 1.403 . S
C1201 C1202 1.392 . S
C1201 C1205 1.495 . S
C1202 C1201 1.392 . S
C1202 C1203 1.385 . S
C1202 C1204 1.478 . S
C1203 H1197 0.930 . S
C1203 C1199 1.400 . S
C1203 C1202 1.385 . S
C1204 C1202 1.478 . S
C1204 C1206 1.381 . S
C1204 C1210 1.383 . S
C1205 C1201 1.495 . S
C1205 H1211 0.959 . S
C1205 H1212 0.961 . S
C1205 H1213 0.960 . S
C1206 C1204 1.381 . S
C1206 C1207 1.394 . S
C1206 H1214 0.930 . S
C1207 C1206 1.394 . S
C1207 C1208 1.383 . S
C1207 H1215 0.929 . S
C1208 C1207 1.383 . S
C1208 C1209 1.377 . S
C1209 H1193 0.930 . S
C1209 C1208 1.377 . S
C1209 C1210 1.379 . S
C1210 H1194 0.931 . S
C1210 C1204 1.383 . S
C1210 C1209 1.379 . S
H1211 C1205 0.959 . S
H1212 C1205 0.961 . S
H1213 C1205 0.960 . S
H1214 C1206 0.930 . S
H1215 C1207 0.929 . S
H1216 C1224 0.929 . S
H1217 C1226 0.930 . S
H1218 C1228 0.930 . S
H1219 C1231 0.929 . S
H1220 C1234 0.930 . S
H1221 C1236 0.960 . S
H1222 C1236 0.960 . S
H1223 C1236 0.960 . S
C1224 H1216 0.929 . S
C1224 C1225 1.377 . S
C1224 C1226 1.384 . S
C1225 C1224 1.377 . S
C1225 C1231 1.390 . S
C1226 H1217 0.930 . S
C1226 C1224 1.384 . S
C1226 C1227 1.372 . S
C1227 C1226 1.372 . S
C1227 C1228 1.400 . S
C1227 C1232 1.490 . S
C1228 H1218 0.930 . S
C1228 C1227 1.400 . S
C1228 C1231 1.386 . S
H1229 C1245 0.930 . S
H1230 C1246 0.931 . S
C1231 H1219 0.929 . S
C1231 C1225 1.390 . S
C1231 C1228 1.386 . S
C1232 C1227 1.490 . S
C1232 C1234 1.395 . S
C1232 C1235 1.403 . S
H1233 C1239 0.930 . S
C1234 H1220 0.930 . S
C1234 C1232 1.395 . S
C1234 C1237 1.403 . S
C1235 C1232 1.403 . S
C1235 C1236 1.524 . S
C1235 C1239 1.400 . S
C1236 H1221 0.960 . S
C1236 H1222 0.960 . S
C1236 H1223 0.960 . S
C1236 C1235 1.524 . S
C1237 C1234 1.403 . S
C1237 C1238 1.392 . S
C1237 C1241 1.495 . S
C1238 C1237 1.392 . S
C1238 C1239 1.385 . S
C1238 C1240 1.478 . S
C1239 H1233 0.930 . S
C1239 C1235 1.400 . S
C1239 C1238 1.385 . S
C1240 C1238 1.478 . S
C1240 C1242 1.381 . S
C1240 C1246 1.383 . S
C1241 C1237 1.495 . S
C1241 H1247 0.959 . S
C1241 H1248 0.961 . S
C1241 H1249 0.960 . S
C1242 C1240 1.381 . S
C1242 C1243 1.394 . S
C1242 H1250 0.930 . S
C1243 C1242 1.394 . S
C1243 C1244 1.383 . S
C1243 H1251 0.929 . S
C1244 C1243 1.383 . S
C1244 C1245 1.377 . S
C1245 H1229 0.930 . S
C1245 C1244 1.377 . S
C1245 C1246 1.379 . S
C1246 H1230 0.931 . S
C1246 C1240 1.383 . S
C1246 C1245 1.379 . S
H1247 C1241 0.959 . S
H1248 C1241 0.961 . S
H1249 C1241 0.960 . S
H1250 C1242 0.930 . S
H1251 C1243 0.929 . S
H1252 C1260 0.929 . S
H1253 C1262 0.930 . S
H1254 C1264 0.930 . S
H1255 C1267 0.929 . S
H1256 C1270 0.930 . S
H1257 C1272 0.960 . S
H1258 C1272 0.960 . S
H1259 C1272 0.960 . S
C1260 H1252 0.929 . S
C1260 C1261 1.377 . S
C1260 C1262 1.384 . S
C1261 C1260 1.377 . S
C1261 C1267 1.390 . S
C1262 H1253 0.930 . S
C1262 C1260 1.384 . S
C1262 C1263 1.372 . S
C1263 C1262 1.372 . S
C1263 C1264 1.400 . S
C1263 C1268 1.490 . S
C1264 H1254 0.930 . S
C1264 C1263 1.400 . S
C1264 C1267 1.386 . S
H1265 C1281 0.930 . S
H1266 C1282 0.931 . S
C1267 H1255 0.929 . S
C1267 C1261 1.390 . S
C1267 C1264 1.386 . S
C1268 C1263 1.490 . S
C1268 C1270 1.395 . S
C1268 C1271 1.403 . S
H1269 C1275 0.930 . S
C1270 H1256 0.930 . S
C1270 C1268 1.395 . S
C1270 C1273 1.403 . S
C1271 C1268 1.403 . S
C1271 C1272 1.524 . S
C1271 C1275 1.400 . S
C1272 H1257 0.960 . S
C1272 H1258 0.960 . S
C1272 H1259 0.960 . S
C1272 C1271 1.524 . S
C1273 C1270 1.403 . S
C1273 C1274 1.392 . S
C1273 C1277 1.495 . S
C1274 C1273 1.392 . S
C1274 C1275 1.385 . S
C1274 C1276 1.478 . S
C1275 H1269 0.930 . S
C1275 C1271 1.400 . S
C1275 C1274 1.385 . S
C1276 C1274 1.478 . S
C1276 C1278 1.381 . S
C1276 C1282 1.383 . S
C1277 C1273 1.495 . S
C1277 H1283 0.959 . S
C1277 H1284 0.961 . S
C1277 H1285 0.960 . S
C1278 C1276 1.381 . S
C1278 C1279 1.394 . S
C1278 H1286 0.930 . S
C1279 C1278 1.394 . S
C1279 C1280 1.383 . S
C1279 H1287 0.929 . S
C1280 C1279 1.383 . S
C1280 C1281 1.377 . S
C1281 H1265 0.930 . S
C1281 C1280 1.377 . S
C1281 C1282 1.379 . S
C1282 H1266 0.931 . S
C1282 C1276 1.383 . S
C1282 C1281 1.379 . S
H1283 C1277 0.959 . S
H1284 C1277 0.961 . S
H1285 C1277 0.960 . S
H1286 C1278 0.930 . S
H1287 C1279 0.929 . S
H1288 C1296 0.929 . S
H1289 C1298 0.930 . S
H1290 C1300 0.930 . S
H1291 C1303 0.929 . S
H1292 C1306 0.930 . S
H1293 C1308 0.960 . S
H1294 C1308 0.960 . S
H1295 C1308 0.960 . S
C1296 H1288 0.929 . S
C1296 C1297 1.377 . S
C1296 C1298 1.384 . S
C1297 C1296 1.377 . S
C1297 C1303 1.390 . S
C1298 H1289 0.930 . S
C1298 C1296 1.384 . S
C1298 C1299 1.372 . S
C1299 C1298 1.372 . S
C1299 C1300 1.400 . S
C1299 C1304 1.490 . S
C1300 H1290 0.930 . S
C1300 C1299 1.400 . S
C1300 C1303 1.386 . S
H1301 C1317 0.930 . S
H1302 C1318 0.931 . S
C1303 H1291 0.929 . S
C1303 C1297 1.390 . S
C1303 C1300 1.386 . S
C1304 C1299 1.490 . S
C1304 C1306 1.395 1_655 S
C1304 C1307 1.403 . S
H1305 C1311 0.929 1_655 S
C1306 H1292 0.930 . S
C1306 C1304 1.395 1_455 S
C1306 C1309 1.403 . S
C1307 C1304 1.403 . S
C1307 C1308 1.524 . S
C1307 C1311 1.391 1_655 S
C1308 H1293 0.960 . S
C1308 H1294 0.960 . S
C1308 H1295 0.960 . S
C1308 C1307 1.524 . S
C1309 C1306 1.403 . S
C1309 C1310 1.392 . S
C1309 C1313 1.495 . S
C1310 C1309 1.392 . S
C1310 C1311 1.395 . S
C1310 C1312 1.478 . S
C1311 H1305 0.929 1_455 S
C1311 C1307 1.391 1_455 S
C1311 C1310 1.395 . S
C1312 C1310 1.478 . S
C1312 C1314 1.381 . S
C1312 C1318 1.383 . S
C1313 C1309 1.495 . S
C1313 H1319 0.959 . S
C1313 H1320 0.961 . S
C1313 H1321 0.960 . S
C1314 C1312 1.381 . S
C1314 C1315 1.394 . S
C1314 H1322 0.930 . S
C1315 C1314 1.394 . S
C1315 C1316 1.383 . S
C1315 H1323 0.929 . S
C1316 C1315 1.383 . S
C1316 C1317 1.377 . S
C1317 H1301 0.930 . S
C1317 C1316 1.377 . S
C1317 C1318 1.379 . S
C1318 H1302 0.931 . S
C1318 C1312 1.383 . S
C1318 C1317 1.379 . S
H1319 C1313 0.959 . S
H1320 C1313 0.961 . S
H1321 C1313 0.960 . S
H1322 C1314 0.930 . S
H1323 C1315 0.929 . S
H1324 C1332 0.929 . S
H1325 C1334 0.930 . S
H1326 C1336 0.930 . S
H1327 C1339 0.929 . S
H1328 C1342 0.930 . S
H1329 C1344 0.960 . S
H1330 C1344 0.960 . S
H1331 C1344 0.960 . S
C1332 H1324 0.929 . S
C1332 C1333 1.377 . S
C1332 C1334 1.384 . S
C1333 C1332 1.377 . S
C1333 C1339 1.390 . S
C1334 H1325 0.930 . S
C1334 C1332 1.384 . S
C1334 C1335 1.372 . S
C1335 C1334 1.372 . S
C1335 C1336 1.400 . S
C1335 C1340 1.490 . S
C1336 H1326 0.930 . S
C1336 C1335 1.400 . S
C1336 C1339 1.386 . S
H1337 C1353 0.930 . S
H1338 C1354 0.931 . S
C1339 H1327 0.929 . S
C1339 C1333 1.390 . S
C1339 C1336 1.386 . S
C1340 C1335 1.490 . S
C1340 C1342 1.395 . S
C1340 C1343 1.403 . S
H1341 C1347 0.930 . S
C1342 H1328 0.930 . S
C1342 C1340 1.395 . S
C1342 C1345 1.403 1_655 S
C1343 C1340 1.403 . S
C1343 C1344 1.524 . S
C1343 C1347 1.400 1_655 S
C1344 H1329 0.960 . S
C1344 H1330 0.960 . S
C1344 H1331 0.960 . S
C1344 C1343 1.524 . S
C1345 C1342 1.403 1_455 S
C1345 C1346 1.392 . S
C1345 C1349 1.495 . S
C1346 C1345 1.392 . S
C1346 C1347 1.385 . S
C1346 C1348 1.478 . S
C1347 H1341 0.930 . S
C1347 C1343 1.400 1_455 S
C1347 C1346 1.385 . S
C1348 C1346 1.478 . S
C1348 C1350 1.381 . S
C1348 C1354 1.383 . S
C1349 C1345 1.495 . S
C1349 H1355 0.959 . S
C1349 H1356 0.961 . S
C1349 H1357 0.960 . S
C1350 C1348 1.381 . S
C1350 C1351 1.394 . S
C1350 H1358 0.930 . S
C1351 C1350 1.394 . S
C1351 C1352 1.383 . S
C1351 H1359 0.929 . S
C1352 C1351 1.383 . S
C1352 C1353 1.377 . S
C1353 H1337 0.930 . S
C1353 C1352 1.377 . S
C1353 C1354 1.379 . S
C1354 H1338 0.931 . S
C1354 C1348 1.383 . S
C1354 C1353 1.379 . S
H1355 C1349 0.959 . S
H1356 C1349 0.961 . S
H1357 C1349 0.960 . S
H1358 C1350 0.930 . S
H1359 C1351 0.929 . S
H1360 C1368 0.929 . S
H1361 C1370 0.930 . S
H1362 C1372 0.930 . S
H1363 C1375 0.929 . S
H1364 C1378 0.930 . S
H1365 C1380 0.960 . S
H1366 C1380 0.960 . S
H1367 C1380 0.960 . S
C1368 H1360 0.929 . S
C1368 C1369 1.377 . S
C1368 C1370 1.384 . S
C1369 C1368 1.377 . S
C1369 C1375 1.390 . S
C1370 H1361 0.930 . S
C1370 C1368 1.384 . S
C1370 C1371 1.372 . S
C1371 C1370 1.372 . S
C1371 C1372 1.400 . S
C1371 C1376 1.490 . S
C1372 H1362 0.930 . S
C1372 C1371 1.400 . S
C1372 C1375 1.386 . S
H1373 C1389 0.930 . S
H1374 C1390 0.931 . S
C1375 H1363 0.929 . S
C1375 C1369 1.390 . S
C1375 C1372 1.386 . S
C1376 C1371 1.490 . S
C1376 C1378 1.395 . S
C1376 C1379 1.403 . S
H1377 C1383 0.930 . S
C1378 H1364 0.930 . S
C1378 C1376 1.395 . S
C1378 C1381 1.403 . S
C1379 C1376 1.403 . S
C1379 C1380 1.524 . S
C1379 C1383 1.400 . S
C1380 H1365 0.960 . S
C1380 H1366 0.960 . S
C1380 H1367 0.960 . S
C1380 C1379 1.524 . S
C1381 C1378 1.403 . S
C1381 C1382 1.392 . S
C1381 C1385 1.495 . S
C1382 C1381 1.392 . S
C1382 C1383 1.385 . S
C1382 C1384 1.478 . S
C1383 H1377 0.930 . S
C1383 C1379 1.400 . S
C1383 C1382 1.385 . S
C1384 C1382 1.478 . S
C1384 C1386 1.381 . S
C1384 C1390 1.383 . S
C1385 C1381 1.495 . S
C1385 H1391 0.959 . S
C1385 H1392 0.961 . S
C1385 H1393 0.960 . S
C1386 C1384 1.381 . S
C1386 C1387 1.394 . S
C1386 H1394 0.930 . S
C1387 C1386 1.394 . S
C1387 C1388 1.383 . S
C1387 H1395 0.929 . S
C1388 C1387 1.383 . S
C1388 C1389 1.377 . S
C1389 H1373 0.930 . S
C1389 C1388 1.377 . S
C1389 C1390 1.379 . S
C1390 H1374 0.931 . S
C1390 C1384 1.383 . S
C1390 C1389 1.379 . S
H1391 C1385 0.959 . S
H1392 C1385 0.961 . S
H1393 C1385 0.960 . S
H1394 C1386 0.930 . S
H1395 C1387 0.929 . S
H1396 C1404 0.929 . S
H1397 C1406 0.930 . S
H1398 C1408 0.930 . S
H1399 C1411 0.929 . S
H1400 C1414 0.930 . S
H1401 C1416 0.960 . S
H1402 C1416 0.960 . S
H1403 C1416 0.960 . S
C1404 H1396 0.929 . S
C1404 C1405 1.377 . S
C1404 C1406 1.384 . S
C1405 C1404 1.377 . S
C1405 C1411 1.390 . S
C1406 H1397 0.930 . S
C1406 C1404 1.384 . S
C1406 C1407 1.372 . S
C1407 C1406 1.372 . S
C1407 C1408 1.400 . S
C1407 C1412 1.490 . S
C1408 H1398 0.930 . S
C1408 C1407 1.400 . S
C1408 C1411 1.386 . S
H1409 C1425 0.930 . S
H1410 C1426 0.931 . S
C1411 H1399 0.929 . S
C1411 C1405 1.390 . S
C1411 C1408 1.386 . S
C1412 C1407 1.490 . S
C1412 C1414 1.395 . S
C1412 C1415 1.403 . S
H1413 C1419 0.930 . S
C1414 H1400 0.930 . S
C1414 C1412 1.395 . S
C1414 C1417 1.403 . S
C1415 C1412 1.403 . S
C1415 C1416 1.524 . S
C1415 C1419 1.400 . S
C1416 H1401 0.960 . S
C1416 H1402 0.960 . S
C1416 H1403 0.960 . S
C1416 C1415 1.524 . S
C1417 C1414 1.403 . S
C1417 C1418 1.392 . S
C1417 C1421 1.495 . S
C1418 C1417 1.392 . S
C1418 C1419 1.385 . S
C1418 C1420 1.478 . S
C1419 H1413 0.930 . S
C1419 C1415 1.400 . S
C1419 C1418 1.385 . S
C1420 C1418 1.478 . S
C1420 C1422 1.381 . S
C1420 C1426 1.383 . S
C1421 C1417 1.495 . S
C1421 H1427 0.959 . S
C1421 H1428 0.961 . S
C1421 H1429 0.960 . S
C1422 C1420 1.381 . S
C1422 C1423 1.394 . S
C1422 H1430 0.930 . S
C1423 C1422 1.394 . S
C1423 C1424 1.383 . S
C1423 H1431 0.929 . S
C1424 C1423 1.383 . S
C1424 C1425 1.377 . S
C1425 H1409 0.930 . S
C1425 C1424 1.377 . S
C1425 C1426 1.379 . S
C1426 H1410 0.931 . S
C1426 C1420 1.383 . S
C1426 C1425 1.379 . S
H1427 C1421 0.959 . S
H1428 C1421 0.961 . S
H1429 C1421 0.960 . S
H1430 C1422 0.930 . S
H1431 C1423 0.929 . S
H1432 C1440 0.929 . S
H1433 C1442 0.930 . S
H1434 C1444 0.930 . S
H1435 C1447 0.929 . S
H1436 C1450 0.930 . S
H1437 C1452 0.960 . S
H1438 C1452 0.960 . S
H1439 C1452 0.960 . S
C1440 H1432 0.929 . S
C1440 C1441 1.377 . S
C1440 C1442 1.384 . S
C1441 C1440 1.377 . S
C1441 C1447 1.390 . S
C1442 H1433 0.930 . S
C1442 C1440 1.384 . S
C1442 C1443 1.372 . S
C1443 C1442 1.372 . S
C1443 C1444 1.400 . S
C1443 C1448 1.490 . S
C1444 H1434 0.930 . S
C1444 C1443 1.400 . S
C1444 C1447 1.386 . S
H1445 C1461 0.930 . S
H1446 C1462 0.931 . S
C1447 H1435 0.929 . S
C1447 C1441 1.390 . S
C1447 C1444 1.386 . S
C1448 C1443 1.490 . S
C1448 C1450 1.395 . S
C1448 C1451 1.403 1_455 S
H1449 C1455 0.930 . S
C1450 H1436 0.930 . S
C1450 C1448 1.395 . S
C1450 C1453 1.403 . S
C1451 C1448 1.403 1_655 S
C1451 C1452 1.524 . S
C1451 C1455 1.400 . S
C1452 H1437 0.960 . S
C1452 H1438 0.960 . S
C1452 H1439 0.960 . S
C1452 C1451 1.524 . S
C1453 C1450 1.403 . S
C1453 C1454 1.392 1_455 S
C1453 C1457 1.495 . S
C1454 C1453 1.392 1_655 S
C1454 C1455 1.385 . S
C1454 C1456 1.478 . S
C1455 H1449 0.930 . S
C1455 C1451 1.400 . S
C1455 C1454 1.385 . S
C1456 C1454 1.478 . S
C1456 C1458 1.381 . S
C1456 C1462 1.383 . S
C1457 C1453 1.495 . S
C1457 H1463 0.959 . S
C1457 H1464 0.961 . S
C1457 H1465 0.960 . S
C1458 C1456 1.381 . S
C1458 C1459 1.394 . S
C1458 H1466 0.930 . S
C1459 C1458 1.394 . S
C1459 C1460 1.383 . S
C1459 H1467 0.929 . S
C1460 C1459 1.383 . S
C1460 C1461 1.377 . S
C1461 H1445 0.930 . S
C1461 C1460 1.377 . S
C1461 C1462 1.379 . S
C1462 H1446 0.931 . S
C1462 C1456 1.383 . S
C1462 C1461 1.379 . S
H1463 C1457 0.959 . S
H1464 C1457 0.961 . S
H1465 C1457 0.960 . S
H1466 C1458 0.930 . S
H1467 C1459 0.929 . S
H1468 C1476 0.929 . S
H1469 C1478 0.930 . S
H1470 C1480 0.930 . S
H1471 C1483 0.929 . S
H1472 C1486 0.930 . S
H1473 C1488 0.960 1_655 S
H1474 C1488 0.960 . S
H1475 C1488 0.960 . S
C1476 H1468 0.929 . S
C1476 C1477 1.377 . S
C1476 C1478 1.384 . S
C1477 C1476 1.377 . S
C1477 C1483 1.390 . S
C1478 H1469 0.930 . S
C1478 C1476 1.384 . S
C1478 C1479 1.372 . S
C1479 C1478 1.372 . S
C1479 C1480 1.400 . S
C1479 C1484 1.490 . S
C1480 H1470 0.930 . S
C1480 C1479 1.400 . S
C1480 C1483 1.386 . S
H1481 C1497 0.930 . S
H1482 C1498 0.931 . S
C1483 H1471 0.929 . S
C1483 C1477 1.390 . S
C1483 C1480 1.386 . S
C1484 C1479 1.490 . S
C1484 C1486 1.395 . S
C1484 C1487 1.403 . S
H1485 C1491 0.930 . S
C1486 H1472 0.930 . S
C1486 C1484 1.395 . S
C1486 C1489 1.403 1_455 S
C1487 C1484 1.403 . S
C1487 C1488 1.524 . S
C1487 C1491 1.400 1_455 S
C1488 H1473 0.960 1_455 S
C1488 H1474 0.960 . S
C1488 H1475 0.960 . S
C1488 C1487 1.524 . S
C1489 C1486 1.403 1_655 S
C1489 C1490 1.392 . S
C1489 C1493 1.495 . S
C1490 C1489 1.392 . S
C1490 C1491 1.385 . S
C1490 C1492 1.478 . S
C1491 H1485 0.930 . S
C1491 C1487 1.400 1_655 S
C1491 C1490 1.385 . S
C1492 C1490 1.478 . S
C1492 C1494 1.381 . S
C1492 C1498 1.383 . S
C1493 C1489 1.495 . S
C1493 H1499 0.959 1_655 S
C1493 H1500 0.961 . S
C1493 H1501 0.961 . S
C1494 C1492 1.381 . S
C1494 C1495 1.394 . S
C1494 H1502 0.930 . S
C1495 C1494 1.394 . S
C1495 C1496 1.383 . S
C1495 H1503 0.929 . S
C1496 C1495 1.383 . S
C1496 C1497 1.377 . S
C1497 H1481 0.930 . S
C1497 C1496 1.377 . S
C1497 C1498 1.379 . S
C1498 H1482 0.931 . S
C1498 C1492 1.383 . S
C1498 C1497 1.379 . S
H1499 C1493 0.959 1_455 S
H1500 C1493 0.961 . S
H1501 C1493 0.961 . S
H1502 C1494 0.930 . S
H1503 C1495 0.929 . S
H1504 C1512 0.929 . S
H1505 C1514 0.930 . S
H1506 C1516 0.930 . S
H1507 C1519 0.929 . S
H1508 C1522 0.930 . S
H1509 C1524 0.960 . S
H1510 C1524 0.960 . S
H1511 C1524 0.960 . S
C1512 H1504 0.929 . S
C1512 C1513 1.377 . S
C1512 C1514 1.384 . S
C1513 C1512 1.377 . S
C1513 C1519 1.390 . S
C1514 H1505 0.930 . S
C1514 C1512 1.384 . S
C1514 C1515 1.372 . S
C1515 C1514 1.372 . S
C1515 C1516 1.400 . S
C1515 C1520 1.490 . S
C1516 H1506 0.930 . S
C1516 C1515 1.400 . S
C1516 C1519 1.386 . S
H1517 C1533 0.930 . S
H1518 C1534 0.931 . S
C1519 H1507 0.929 . S
C1519 C1513 1.390 . S
C1519 C1516 1.386 . S
C1520 C1515 1.490 . S
C1520 C1522 1.395 . S
C1520 C1523 1.403 . S
H1521 C1527 0.930 . S
C1522 H1508 0.930 . S
C1522 C1520 1.395 . S
C1522 C1525 1.403 . S
C1523 C1520 1.403 . S
C1523 C1524 1.524 . S
C1523 C1527 1.400 . S
C1524 H1509 0.960 . S
C1524 H1510 0.960 . S
C1524 H1511 0.960 . S
C1524 C1523 1.524 . S
C1525 C1522 1.403 . S
C1525 C1526 1.392 . S
C1525 C1529 1.495 . S
C1526 C1525 1.392 . S
C1526 C1527 1.385 . S
C1526 C1528 1.478 . S
C1527 H1521 0.930 . S
C1527 C1523 1.400 . S
C1527 C1526 1.385 . S
C1528 C1526 1.478 . S
C1528 C1530 1.381 . S
C1528 C1534 1.383 . S
C1529 C1525 1.495 . S
C1529 H1535 0.959 . S
C1529 H1536 0.961 . S
C1529 H1537 0.960 . S
C1530 C1528 1.381 . S
C1530 C1531 1.394 . S
C1530 H1538 0.930 . S
C1531 C1530 1.394 . S
C1531 C1532 1.383 . S
C1531 H1539 0.929 . S
C1532 C1531 1.383 . S
C1532 C1533 1.377 . S
C1533 H1517 0.930 . S
C1533 C1532 1.377 . S
C1533 C1534 1.379 . S
C1534 H1518 0.931 . S
C1534 C1528 1.383 . S
C1534 C1533 1.379 . S
H1535 C1529 0.959 . S
H1536 C1529 0.961 . S
H1537 C1529 0.960 . S
H1538 C1530 0.930 . S
H1539 C1531 0.929 . S
H1540 C1548 0.929 . S
H1541 C1550 0.930 . S
H1542 C1552 0.930 . S
H1543 C1555 0.929 . S
H1544 C1558 0.930 . S
H1545 C1560 0.960 . S
H1546 C1560 0.960 . S
H1547 C1560 0.960 . S
C1548 H1540 0.929 . S
C1548 C1549 1.377 . S
C1548 C1550 1.384 . S
C1549 C1548 1.377 . S
C1549 C1555 1.390 . S
C1550 H1541 0.930 . S
C1550 C1548 1.384 . S
C1550 C1551 1.372 . S
C1551 C1550 1.372 . S
C1551 C1552 1.400 . S
C1551 C1556 1.490 . S
C1552 H1542 0.930 . S
C1552 C1551 1.400 . S
C1552 C1555 1.386 . S
H1553 C1569 0.930 . S
H1554 C1570 0.931 . S
C1555 H1543 0.929 . S
C1555 C1549 1.390 . S
C1555 C1552 1.386 . S
C1556 C1551 1.490 . S
C1556 C1558 1.395 . S
C1556 C1559 1.403 . S
H1557 C1563 0.930 . S
C1558 H1544 0.930 . S
C1558 C1556 1.395 . S
C1558 C1561 1.403 . S
C1559 C1556 1.403 . S
C1559 C1560 1.524 . S
C1559 C1563 1.400 . S
C1560 H1545 0.960 . S
C1560 H1546 0.960 . S
C1560 H1547 0.960 . S
C1560 C1559 1.524 . S
C1561 C1558 1.403 . S
C1561 C1562 1.392 . S
C1561 C1565 1.495 . S
C1562 C1561 1.392 . S
C1562 C1563 1.385 . S
C1562 C1564 1.478 . S
C1563 H1557 0.930 . S
C1563 C1559 1.400 . S
C1563 C1562 1.385 . S
C1564 C1562 1.478 . S
C1564 C1566 1.381 . S
C1564 C1570 1.383 . S
C1565 C1561 1.495 . S
C1565 H1571 0.959 . S
C1565 H1572 0.961 . S
C1565 H1573 0.960 . S
C1566 C1564 1.381 . S
C1566 C1567 1.394 . S
C1566 H1574 0.930 . S
C1567 C1566 1.394 . S
C1567 C1568 1.383 . S
C1567 H1575 0.929 . S
C1568 C1567 1.383 . S
C1568 C1569 1.377 . S
C1569 H1553 0.930 . S
C1569 C1568 1.377 . S
C1569 C1570 1.379 . S
C1570 H1554 0.931 . S
C1570 C1564 1.383 . S
C1570 C1569 1.379 . S
H1571 C1565 0.959 . S
H1572 C1565 0.961 . S
H1573 C1565 0.960 . S
H1574 C1566 0.930 . S
H1575 C1567 0.929 . S
H1576 C1584 0.929 . S
H1577 C1586 0.930 . S
H1578 C1588 0.930 . S
H1579 C1591 0.929 . S
H1580 C1594 0.930 . S
H1581 C1596 0.960 . S
H1582 C1596 0.960 . S
H1583 C1596 0.960 . S
C1584 H1576 0.929 . S
C1584 C1585 1.377 . S
C1584 C1586 1.384 . S
C1585 C1584 1.377 . S
C1585 C1591 1.390 . S
C1586 H1577 0.930 . S
C1586 C1584 1.384 . S
C1586 C1587 1.372 . S
C1587 C1586 1.372 . S
C1587 C1588 1.400 . S
C1587 C1592 1.490 . S
C1588 H1578 0.930 . S
C1588 C1587 1.400 . S
C1588 C1591 1.386 . S
H1589 C1605 0.930 . S
H1590 C1606 0.931 . S
C1591 H1579 0.929 . S
C1591 C1585 1.390 . S
C1591 C1588 1.386 . S
C1592 C1587 1.490 . S
C1592 C1594 1.395 . S
C1592 C1595 1.403 . S
H1593 C1599 0.930 . S
C1594 H1580 0.930 . S
C1594 C1592 1.395 . S
C1594 C1597 1.403 . S
C1595 C1592 1.403 . S
C1595 C1596 1.524 . S
C1595 C1599 1.400 . S
C1596 H1581 0.960 . S
C1596 H1582 0.960 . S
C1596 H1583 0.960 . S
C1596 C1595 1.524 . S
C1597 C1594 1.403 . S
C1597 C1598 1.392 . S
C1597 C1601 1.495 . S
C1598 C1597 1.392 . S
C1598 C1599 1.385 . S
C1598 C1600 1.478 . S
C1599 H1593 0.930 . S
C1599 C1595 1.400 . S
C1599 C1598 1.385 . S
C1600 C1598 1.478 . S
C1600 C1602 1.381 . S
C1600 C1606 1.383 . S
C1601 C1597 1.495 . S
C1601 H1607 0.959 . S
C1601 H1608 0.961 . S
C1601 H1609 0.960 . S
C1602 C1600 1.381 . S
C1602 C1603 1.394 . S
C1602 H1610 0.930 . S
C1603 C1602 1.394 . S
C1603 C1604 1.383 . S
C1603 H1611 0.929 . S
C1604 C1603 1.383 . S
C1604 C1605 1.377 . S
C1605 H1589 0.930 . S
C1605 C1604 1.377 . S
C1605 C1606 1.379 . S
C1606 H1590 0.931 . S
C1606 C1600 1.383 . S
C1606 C1605 1.379 . S
H1607 C1601 0.959 . S
H1608 C1601 0.961 . S
H1609 C1601 0.960 . S
H1610 C1602 0.930 . S
H1611 C1603 0.929 . S
H1612 C1620 0.953 . S
H1613 C1622 0.930 . S
H1614 C1624 0.930 . S
H1615 C1627 0.929 . S
H1616 C1630 0.930 . S
H1617 C1632 0.960 . S
H1618 C1632 0.960 . S
H1619 C1632 0.960 . S
C1620 H1612 0.953 . S
C1620 C1621 1.377 . S
C1620 C1622 1.384 . S
C1621 C1620 1.377 . S
C1621 C1627 1.390 . S
C1622 H1613 0.930 . S
C1622 C1620 1.384 . S
C1622 C1623 1.372 . S
C1623 C1622 1.372 . S
C1623 C1624 1.400 . S
C1623 C1628 1.490 . S
C1624 H1614 0.930 . S
C1624 C1623 1.400 . S
C1624 C1627 1.386 . S
H1625 C1641 0.930 . S
H1626 C1642 0.931 . S
C1627 H1615 0.929 . S
C1627 C1621 1.390 . S
C1627 C1624 1.386 . S
C1628 C1623 1.490 . S
C1628 C1630 1.395 . S
C1628 C1631 1.403 . S
H1629 C1635 0.930 . S
C1630 H1616 0.930 . S
C1630 C1628 1.395 . S
C1630 C1633 1.403 . S
C1631 C1628 1.403 . S
C1631 C1632 1.524 . S
C1631 C1635 1.400 . S
C1632 H1617 0.960 . S
C1632 H1618 0.960 . S
C1632 H1619 0.960 . S
C1632 C1631 1.524 . S
C1633 C1630 1.403 . S
C1633 C1634 1.392 . S
C1633 C1637 1.495 . S
C1634 C1633 1.392 . S
C1634 C1635 1.385 . S
C1634 C1636 1.478 . S
C1635 H1629 0.930 . S
C1635 C1631 1.400 . S
C1635 C1634 1.385 . S
C1636 C1634 1.478 . S
C1636 C1638 1.381 . S
C1636 C1642 1.383 . S
C1637 C1633 1.495 . S
C1637 H1643 0.959 . S
C1637 H1644 0.961 . S
C1637 H1645 0.960 . S
C1638 C1636 1.381 . S
C1638 C1639 1.394 . S
C1638 H1646 0.930 . S
C1639 C1638 1.394 . S
C1639 C1640 1.383 . S
C1639 H1647 0.929 . S
C1640 C1639 1.383 . S
C1640 C1641 1.377 . S
C1641 H1625 0.930 . S
C1641 C1640 1.377 . S
C1641 C1642 1.379 . S
C1642 H1626 0.931 . S
C1642 C1636 1.383 . S
C1642 C1641 1.379 . S
H1643 C1637 0.959 . S
H1644 C1637 0.961 . S
H1645 C1637 0.960 . S
H1646 C1638 0.930 . S
H1647 C1639 0.929 . S
H1648 C1656 0.929 . S
H1649 C1658 0.930 . S
H1650 C1660 0.930 . S
H1651 C1663 0.929 . S
H1652 C1666 0.930 . S
H1653 C1668 0.960 . S
H1654 C1668 0.960 . S
H1655 C1668 0.960 . S
C1656 H1648 0.929 . S
C1656 C1657 1.377 . S
C1656 C1658 1.384 . S
C1657 C1656 1.377 . S
C1657 C1663 1.390 . S
C1658 H1649 0.930 . S
C1658 C1656 1.384 . S
C1658 C1659 1.372 . S
C1659 C1658 1.372 . S
C1659 C1660 1.400 . S
C1659 C1664 1.490 . S
C1660 H1650 0.930 . S
C1660 C1659 1.400 . S
C1660 C1663 1.386 . S
H1661 C1677 0.930 . S
H1662 C1678 0.931 . S
C1663 H1651 0.929 . S
C1663 C1657 1.390 . S
C1663 C1660 1.386 . S
C1664 C1659 1.490 . S
C1664 C1666 1.395 . S
C1664 C1667 1.403 . S
H1665 C1671 0.930 . S
C1666 H1652 0.930 . S
C1666 C1664 1.395 . S
C1666 C1669 1.403 . S
C1667 C1664 1.403 . S
C1667 C1668 1.524 . S
C1667 C1671 1.400 . S
C1668 H1653 0.960 . S
C1668 H1654 0.960 . S
C1668 H1655 0.960 . S
C1668 C1667 1.524 . S
C1669 C1666 1.403 . S
C1669 C1670 1.392 . S
C1669 C1673 1.495 . S
C1670 C1669 1.392 . S
C1670 C1671 1.385 . S
C1670 C1672 1.478 . S
C1671 H1665 0.930 . S
C1671 C1667 1.400 . S
C1671 C1670 1.385 . S
C1672 C1670 1.478 . S
C1672 C1674 1.381 . S
C1672 C1678 1.383 . S
C1673 C1669 1.495 . S
C1673 H1679 0.959 . S
C1673 H1680 0.961 . S
C1673 H1681 0.960 . S
C1674 C1672 1.381 . S
C1674 C1675 1.394 . S
C1674 H1682 0.930 . S
C1675 C1674 1.394 . S
C1675 C1676 1.383 . S
C1675 H1683 0.929 . S
C1676 C1675 1.383 . S
C1676 C1677 1.377 . S
C1677 H1661 0.930 . S
C1677 C1676 1.377 . S
C1677 C1678 1.379 . S
C1678 H1662 0.931 . S
C1678 C1672 1.383 . S
C1678 C1677 1.379 . S
H1679 C1673 0.959 . S
H1680 C1673 0.961 . S
H1681 C1673 0.960 . S
H1682 C1674 0.930 . S
H1683 C1675 0.929 . S
H1684 C1692 0.929 . S
H1685 C1694 0.930 . S
H1686 C1696 0.930 . S
H1687 C1699 0.929 . S
H1688 C1702 0.930 . S
H1689 C1704 0.960 . S
H1690 C1704 0.960 . S
H1691 C1704 0.960 . S
C1692 H1684 0.929 . S
C1692 C1693 1.377 . S
C1692 C1694 1.384 . S
C1693 C1692 1.377 . S
C1693 C1699 1.390 . S
C1694 H1685 0.930 . S
C1694 C1692 1.384 . S
C1694 C1695 1.372 . S
C1695 C1694 1.372 . S
C1695 C1696 1.400 . S
C1695 C1700 1.490 . S
C1696 H1686 0.930 . S
C1696 C1695 1.400 . S
C1696 C1699 1.386 . S
H1697 C1713 0.930 . S
H1698 C1714 0.931 . S
C1699 H1687 0.929 . S
C1699 C1693 1.390 . S
C1699 C1696 1.386 . S
C1700 C1695 1.490 . S
C1700 C1702 1.395 . S
C1700 C1703 1.403 . S
H1701 C1707 0.930 . S
C1702 H1688 0.930 . S
C1702 C1700 1.395 . S
C1702 C1705 1.403 . S
C1703 C1700 1.403 . S
C1703 C1704 1.524 . S
C1703 C1707 1.400 . S
C1704 H1689 0.960 . S
C1704 H1690 0.960 . S
C1704 H1691 0.960 . S
C1704 C1703 1.524 . S
C1705 C1702 1.403 . S
C1705 C1706 1.392 . S
C1705 C1709 1.495 . S
C1706 C1705 1.392 . S
C1706 C1707 1.385 . S
C1706 C1708 1.478 . S
C1707 H1701 0.930 . S
C1707 C1703 1.400 . S
C1707 C1706 1.385 . S
C1708 C1706 1.478 . S
C1708 C1710 1.381 . S
C1708 C1714 1.383 . S
C1709 C1705 1.495 . S
C1709 H1715 0.959 . S
C1709 H1716 0.961 . S
C1709 H1717 0.960 . S
C1710 C1708 1.381 . S
C1710 C1711 1.394 . S
C1710 H1718 0.930 . S
C1711 C1710 1.394 . S
C1711 C1712 1.383 . S
C1711 H1719 0.929 . S
C1712 C1711 1.383 . S
C1712 C1713 1.377 . S
C1713 H1697 0.930 . S
C1713 C1712 1.377 . S
C1713 C1714 1.379 . S
C1714 H1698 0.931 . S
C1714 C1708 1.383 . S
C1714 C1713 1.379 . S
H1715 C1709 0.959 . S
H1716 C1709 0.961 . S
H1717 C1709 0.960 . S
H1718 C1710 0.930 . S
H1719 C1711 0.929 . S
H1720 C1728 0.929 . S
H1721 C1730 0.930 . S
H1722 C1732 0.930 . S
H1723 C1735 0.929 . S
H1724 C1738 0.930 . S
H1725 C1740 0.960 . S
H1726 C1740 0.960 . S
H1727 C1740 0.960 . S
C1728 H1720 0.929 . S
C1728 C1729 1.377 . S
C1728 C1730 1.384 . S
C1729 C1728 1.377 . S
C1729 C1735 1.390 . S
C1730 H1721 0.930 . S
C1730 C1728 1.384 . S
C1730 C1731 1.372 . S
C1731 C1730 1.372 . S
C1731 C1732 1.400 . S
C1731 C1736 1.490 . S
C1732 H1722 0.930 . S
C1732 C1731 1.400 . S
C1732 C1735 1.386 . S
H1733 C1749 0.930 . S
H1734 C1750 0.931 . S
C1735 H1723 0.929 . S
C1735 C1729 1.390 . S
C1735 C1732 1.386 . S
C1736 C1731 1.490 . S
C1736 C1738 1.395 . S
C1736 C1739 1.403 . S
H1737 C1743 0.930 . S
C1738 H1724 0.930 . S
C1738 C1736 1.395 . S
C1738 C1741 1.403 . S
C1739 C1736 1.403 . S
C1739 C1740 1.524 . S
C1739 C1743 1.400 . S
C1740 H1725 0.960 . S
C1740 H1726 0.960 . S
C1740 H1727 0.960 . S
C1740 C1739 1.524 . S
C1741 C1738 1.403 . S
C1741 C1742 1.392 . S
C1741 C1745 1.495 . S
C1742 C1741 1.392 . S
C1742 C1743 1.385 . S
C1742 C1744 1.478 . S
C1743 H1737 0.930 . S
C1743 C1739 1.400 . S
C1743 C1742 1.385 . S
C1744 C1742 1.478 . S
C1744 C1746 1.381 . S
C1744 C1750 1.383 . S
C1745 C1741 1.495 . S
C1745 H1751 0.959 . S
C1745 H1752 0.961 . S
C1745 H1753 0.960 . S
C1746 C1744 1.381 . S
C1746 C1747 1.394 . S
C1746 H1754 0.930 . S
C1747 C1746 1.394 . S
C1747 C1748 1.383 . S
C1747 H1755 0.929 . S
C1748 C1747 1.383 . S
C1748 C1749 1.377 . S
C1749 H1733 0.930 . S
C1749 C1748 1.377 . S
C1749 C1750 1.379 . S
C1750 H1734 0.931 . S
C1750 C1744 1.383 . S
C1750 C1749 1.379 . S
H1751 C1745 0.959 . S
H1752 C1745 0.961 . S
H1753 C1745 0.960 . S
H1754 C1746 0.930 . S
H1755 C1747 0.929 . S
H1756 C1764 0.929 . S
H1757 C1766 0.930 . S
H1758 C1768 0.930 . S
H1759 C1771 0.929 . S
H1760 C1774 0.930 . S
H1761 C1776 0.960 . S
H1762 C1776 0.960 . S
H1763 C1776 0.960 . S
C1764 H1756 0.929 . S
C1764 C1765 1.377 . S
C1764 C1766 1.384 . S
C1765 C1764 1.377 . S
C1765 C1771 1.390 . S
C1766 H1757 0.930 . S
C1766 C1764 1.384 . S
C1766 C1767 1.372 . S
C1767 C1766 1.372 . S
C1767 C1768 1.400 . S
C1767 C1772 1.490 . S
C1768 H1758 0.930 . S
C1768 C1767 1.400 . S
C1768 C1771 1.386 . S
H1769 C1785 0.930 . S
H1770 C1786 0.931 . S
C1771 H1759 0.929 . S
C1771 C1765 1.390 . S
C1771 C1768 1.386 . S
C1772 C1767 1.490 . S
C1772 C1774 1.395 . S
C1772 C1775 1.403 . S
H1773 C1779 0.930 . S
C1774 H1760 0.930 . S
C1774 C1772 1.395 . S
C1774 C1777 1.403 . S
C1775 C1772 1.403 . S
C1775 C1776 1.524 . S
C1775 C1779 1.400 . S
C1776 H1761 0.960 . S
C1776 H1762 0.960 . S
C1776 H1763 0.960 . S
C1776 C1775 1.524 . S
C1777 C1774 1.403 . S
C1777 C1778 1.392 . S
C1777 C1781 1.495 . S
C1778 C1777 1.392 . S
C1778 C1779 1.385 . S
C1778 C1780 1.478 . S
C1779 H1773 0.930 . S
C1779 C1775 1.400 . S
C1779 C1778 1.385 . S
C1780 C1778 1.478 . S
C1780 C1782 1.381 . S
C1780 C1786 1.383 . S
C1781 C1777 1.495 . S
C1781 H1787 0.959 . S
C1781 H1788 0.961 . S
C1781 H1789 0.960 . S
C1782 C1780 1.381 . S
C1782 C1783 1.394 . S
C1782 H1790 0.930 . S
C1783 C1782 1.394 . S
C1783 C1784 1.383 . S
C1783 H1791 0.929 . S
C1784 C1783 1.383 . S
C1784 C1785 1.377 . S
C1785 H1769 0.930 . S
C1785 C1784 1.377 . S
C1785 C1786 1.379 . S
C1786 H1770 0.931 . S
C1786 C1780 1.383 . S
C1786 C1785 1.379 . S
H1787 C1781 0.959 . S
H1788 C1781 0.961 . S
H1789 C1781 0.960 . S
H1790 C1782 0.930 . S
H1791 C1783 0.929 . S
H1792 C1800 0.929 . S
H1793 C1802 0.930 . S
H1794 C1804 0.930 . S
H1795 C1807 0.929 . S
H1796 C1810 0.930 . S
H1797 C1812 0.960 . S
H1798 C1812 0.960 . S
H1799 C1812 0.960 . S
C1800 H1792 0.929 . S
C1800 C1801 1.377 . S
C1800 C1802 1.384 . S
C1801 C1800 1.377 . S
C1801 C1807 1.390 . S
C1802 H1793 0.930 . S
C1802 C1800 1.384 . S
C1802 C1803 1.372 . S
C1803 C1802 1.372 . S
C1803 C1804 1.400 . S
C1803 C1808 1.490 . S
C1804 H1794 0.930 . S
C1804 C1803 1.400 . S
C1804 C1807 1.386 . S
H1805 C1821 0.930 . S
H1806 C1822 0.931 . S
C1807 H1795 0.929 . S
C1807 C1801 1.390 . S
C1807 C1804 1.386 . S
C1808 C1803 1.490 . S
C1808 C1810 1.395 . S
C1808 C1811 1.403 . S
H1809 C1815 0.930 . S
C1810 H1796 0.930 . S
C1810 C1808 1.395 . S
C1810 C1813 1.403 . S
C1811 C1808 1.403 . S
C1811 C1812 1.524 . S
C1811 C1815 1.400 . S
C1812 H1797 0.960 . S
C1812 H1798 0.960 . S
C1812 H1799 0.960 . S
C1812 C1811 1.524 . S
C1813 C1810 1.403 . S
C1813 C1814 1.392 . S
C1813 C1817 1.495 . S
C1814 C1813 1.392 . S
C1814 C1815 1.385 . S
C1814 C1816 1.478 . S
C1815 H1809 0.930 . S
C1815 C1811 1.400 . S
C1815 C1814 1.385 . S
C1816 C1814 1.478 . S
C1816 C1818 1.381 . S
C1816 C1822 1.383 . S
C1817 C1813 1.495 . S
C1817 H1823 0.959 . S
C1817 H1824 0.961 . S
C1817 H1825 0.960 . S
C1818 C1816 1.381 . S
C1818 C1819 1.394 . S
C1818 H1826 0.930 . S
C1819 C1818 1.394 . S
C1819 C1820 1.393 . S
C1819 H1827 0.925 1_565 S
C1820 C1819 1.393 . S
C1820 C1821 1.393 . S
C1821 H1805 0.930 . S
C1821 C1820 1.393 . S
C1821 C1822 1.379 . S
C1822 H1806 0.931 . S
C1822 C1816 1.383 . S
C1822 C1821 1.379 . S
H1823 C1817 0.959 . S
H1824 C1817 0.961 . S
H1825 C1817 0.960 . S
H1826 C1818 0.930 . S
H1827 C1819 0.925 1_545 S
H1828 C1836 0.929 . S
H1829 C1838 0.930 . S
H1830 C1840 0.930 . S
H1831 C1843 0.929 . S
H1832 C1846 0.930 . S
H1833 C1848 0.960 . S
H1834 C1848 0.960 . S
H1835 C1848 0.960 . S
C1836 H1828 0.929 . S
C1836 C1837 1.377 . S
C1836 C1838 1.384 . S
C1837 C1836 1.377 . S
C1837 C1843 1.390 . S
C1838 H1829 0.930 . S
C1838 C1836 1.384 . S
C1838 C1839 1.372 . S
C1839 C1838 1.372 . S
C1839 C1840 1.400 . S
C1839 C1844 1.490 . S
C1840 H1830 0.930 . S
C1840 C1839 1.400 . S
C1840 C1843 1.386 . S
H1841 C1857 0.930 . S
H1842 C1858 0.931 . S
C1843 H1831 0.929 . S
C1843 C1837 1.390 . S
C1843 C1840 1.386 . S
C1844 C1839 1.490 . S
C1844 C1846 1.395 1_565 S
C1844 C1847 1.403 . S
H1845 C1851 0.930 . S
C1846 H1832 0.930 . S
C1846 C1844 1.395 1_545 S
C1846 C1849 1.403 . S
C1847 C1844 1.403 . S
C1847 C1848 1.524 . S
C1847 C1851 1.400 . S
C1848 H1833 0.960 . S
C1848 H1834 0.960 . S
C1848 H1835 0.960 . S
C1848 C1847 1.524 . S
C1849 C1846 1.403 . S
C1849 C1850 1.392 . S
C1849 C1853 1.495 . S
C1850 C1849 1.392 . S
C1850 C1851 1.385 1_545 S
C1850 C1852 1.478 . S
C1851 H1845 0.930 . S
C1851 C1847 1.400 . S
C1851 C1850 1.385 1_565 S
C1852 C1850 1.478 . S
C1852 C1854 1.381 . S
C1852 C1858 1.383 . S
C1853 C1849 1.495 . S
C1853 H1859 0.959 . S
C1853 H1860 0.961 . S
C1853 H1861 0.960 . S
C1854 C1852 1.381 . S
C1854 C1855 1.394 . S
C1854 H1862 0.930 . S
C1855 C1854 1.394 . S
C1855 C1856 1.383 . S
C1855 H1863 0.929 . S
C1856 C1855 1.383 . S
C1856 C1857 1.377 . S
C1857 H1841 0.930 . S
C1857 C1856 1.377 . S
C1857 C1858 1.379 . S
C1858 H1842 0.931 . S
C1858 C1852 1.383 . S
C1858 C1857 1.379 . S
H1859 C1853 0.959 . S
H1860 C1853 0.961 . S
H1861 C1853 0.960 . S
H1862 C1854 0.930 . S
H1863 C1855 0.929 . S
H1864 C1872 0.929 . S
H1865 C1874 0.930 . S
H1866 C1876 0.930 . S
H1867 C1879 0.929 1_565 S
H1868 C1882 0.930 . S
H1869 C1884 0.960 . S
H1870 C1884 0.960 . S
H1871 C1884 0.960 . S
C1872 H1864 0.929 . S
C1872 C1873 1.377 . S
C1872 C1874 1.384 . S
C1873 C1872 1.377 . S
C1873 C1879 1.390 . S
C1874 H1865 0.930 . S
C1874 C1872 1.384 . S
C1874 C1875 1.372 . S
C1875 C1874 1.372 . S
C1875 C1876 1.400 . S
C1875 C1880 1.490 . S
C1876 H1866 0.930 . S
C1876 C1875 1.400 . S
C1876 C1879 1.386 . S
H1877 C1893 0.930 . S
H1878 C1894 0.931 . S
C1879 H1867 0.929 1_545 S
C1879 C1873 1.390 . S
C1879 C1876 1.386 . S
C1880 C1875 1.490 . S
C1880 C1882 1.395 . S
C1880 C1883 1.403 . S
H1881 C1887 0.930 . S
C1882 H1868 0.930 . S
C1882 C1880 1.395 . S
C1882 C1885 1.403 . S
C1883 C1880 1.403 . S
C1883 C1884 1.524 . S
C1883 C1887 1.400 . S
C1884 H1869 0.960 . S
C1884 H1870 0.960 . S
C1884 H1871 0.960 . S
C1884 C1883 1.524 . S
C1885 C1882 1.403 . S
C1885 C1886 1.392 . S
C1885 C1889 1.495 . S
C1886 C1885 1.392 . S
C1886 C1887 1.385 . S
C1886 C1888 1.478 . S
C1887 H1881 0.930 . S
C1887 C1883 1.400 . S
C1887 C1886 1.385 . S
C1888 C1886 1.478 . S
C1888 C1890 1.381 . S
C1888 C1894 1.383 . S
C1889 C1885 1.495 . S
C1889 H1895 0.959 . S
C1889 H1896 0.961 . S
C1889 H1897 0.960 . S
C1890 C1888 1.381 . S
C1890 C1891 1.394 . S
C1890 H1898 0.930 . S
C1891 C1890 1.394 . S
C1891 C1892 1.383 . S
C1891 H1899 0.929 . S
C1892 C1891 1.383 . S
C1892 C1893 1.377 . S
C1893 H1877 0.930 . S
C1893 C1892 1.377 . S
C1893 C1894 1.379 . S
C1894 H1878 0.931 . S
C1894 C1888 1.383 . S
C1894 C1893 1.379 . S
H1895 C1889 0.959 . S
H1896 C1889 0.961 . S
H1897 C1889 0.960 . S
H1898 C1890 0.930 . S
H1899 C1891 0.929 . S
H1900 C1908 0.929 . S
H1901 C1910 0.930 . S
H1902 C1912 0.930 1_545 S
H1903 C1915 0.929 . S
H1904 C1918 0.930 . S
H1905 C1920 0.960 . S
H1906 C1920 0.960 1_565 S
H1907 C1920 0.960 . S
C1908 H1900 0.929 . S
C1908 C1909 1.377 . S
C1908 C1910 1.384 . S
C1909 C1908 1.377 . S
C1909 C1915 1.390 . S
C1910 H1901 0.930 . S
C1910 C1908 1.384 . S
C1910 C1911 1.372 . S
C1911 C1910 1.372 . S
C1911 C1912 1.400 . S
C1911 C1916 1.490 . S
C1912 H1902 0.930 1_565 S
C1912 C1911 1.400 . S
C1912 C1915 1.386 . S
H1913 C1929 0.930 . S
H1914 C1930 0.931 . S
C1915 H1903 0.929 . S
C1915 C1909 1.390 . S
C1915 C1912 1.386 . S
C1916 C1911 1.490 . S
C1916 C1918 1.395 . S
C1916 C1919 1.403 1_565 S
H1917 C1923 0.930 . S
C1918 H1904 0.930 . S
C1918 C1916 1.395 . S
C1918 C1921 1.403 1_565 S
C1919 C1916 1.403 1_545 S
C1919 C1920 1.524 . S
C1919 C1923 1.400 . S
C1920 H1905 0.960 . S
C1920 H1906 0.960 1_545 S
C1920 H1907 0.960 . S
C1920 C1919 1.524 . S
C1921 C1918 1.403 1_545 S
C1921 C1922 1.392 . S
C1921 C1925 1.495 . S
C1922 C1921 1.392 . S
C1922 C1923 1.385 . S
C1922 C1924 1.478 . S
C1923 H1917 0.930 . S
C1923 C1919 1.400 . S
C1923 C1922 1.385 . S
C1924 C1922 1.478 . S
C1924 C1926 1.381 . S
C1924 C1930 1.383 . S
C1925 C1921 1.495 . S
C1925 H1931 0.959 . S
C1925 H1932 0.961 . S
C1925 H1933 0.960 . S
C1926 C1924 1.381 . S
C1926 C1927 1.394 . S
C1926 H1934 0.930 . S
C1927 C1926 1.394 . S
C1927 C1928 1.383 . S
C1927 H1935 0.929 . S
C1928 C1927 1.383 . S
C1928 C1929 1.377 . S
C1929 H1913 0.930 . S
C1929 C1928 1.377 . S
C1929 C1930 1.379 . S
C1930 H1914 0.931 . S
C1930 C1924 1.383 . S
C1930 C1929 1.379 . S
H1931 C1925 0.959 . S
H1932 C1925 0.961 . S
H1933 C1925 0.960 . S
H1934 C1926 0.930 . S
H1935 C1927 0.929 . S
H1936 C1944 0.929 . S
H1937 C1946 0.930 . S
H1938 C1948 0.930 . S
H1939 C1951 0.929 . S
H1940 C1954 0.930 . S
H1941 C1956 0.960 . S
H1942 C1956 0.960 . S
H1943 C1956 0.960 . S
C1944 H1936 0.929 . S
C1944 C1945 1.377 . S
C1944 C1946 1.384 . S
C1945 C1944 1.377 . S
C1945 C1951 1.390 . S
C1946 H1937 0.930 . S
C1946 C1944 1.384 . S
C1946 C1947 1.372 . S
C1947 C1946 1.372 . S
C1947 C1948 1.400 . S
C1947 C1952 1.490 . S
C1948 H1938 0.930 . S
C1948 C1947 1.400 . S
C1948 C1951 1.386 . S
H1949 C1965 0.930 . S
H1950 C1966 0.931 . S
C1951 H1939 0.929 . S
C1951 C1945 1.390 . S
C1951 C1948 1.386 . S
C1952 C1947 1.490 . S
C1952 C1954 1.395 . S
C1952 C1955 1.403 . S
H1953 C1959 0.930 . S
C1954 H1940 0.930 . S
C1954 C1952 1.395 . S
C1954 C1957 1.403 . S
C1955 C1952 1.403 . S
C1955 C1956 1.524 . S
C1955 C1959 1.400 . S
C1956 H1941 0.960 . S
C1956 H1942 0.960 . S
C1956 H1943 0.960 . S
C1956 C1955 1.524 . S
C1957 C1954 1.403 . S
C1957 C1958 1.392 . S
C1957 C1961 1.495 . S
C1958 C1957 1.392 . S
C1958 C1959 1.385 . S
C1958 C1960 1.478 . S
C1959 H1953 0.930 . S
C1959 C1955 1.400 . S
C1959 C1958 1.385 . S
C1960 C1958 1.478 . S
C1960 C1962 1.381 . S
C1960 C1966 1.383 . S
C1961 C1957 1.495 . S
C1961 H1967 0.959 . S
C1961 H1968 0.961 . S
C1961 H1969 0.960 . S
C1962 C1960 1.381 . S
C1962 C1963 1.411 . S
C1962 H1970 0.930 . S
C1963 C1962 1.411 . S
C1963 C1964 1.384 . S
C1963 H1971 0.912 1_545 S
C1964 C1963 1.384 . S
C1964 C1965 1.377 . S
C1965 H1949 0.930 . S
C1965 C1964 1.377 . S
C1965 C1966 1.379 . S
C1966 H1950 0.931 . S
C1966 C1960 1.383 . S
C1966 C1965 1.379 . S
H1967 C1961 0.959 . S
H1968 C1961 0.961 . S
H1969 C1961 0.960 . S
H1970 C1962 0.930 . S
H1971 C1963 0.912 1_565 S
H1972 C1980 0.929 . S
H1973 C1982 0.930 . S
H1974 C1984 0.930 . S
H1975 C1987 0.929 . S
H1976 C1990 0.930 . S
H1977 C1992 0.960 . S
H1978 C1992 0.960 . S
H1979 C1992 0.960 . S
C1980 H1972 0.929 . S
C1980 C1981 1.377 . S
C1980 C1982 1.384 . S
C1981 C1980 1.377 . S
C1981 C1987 1.390 . S
C1982 H1973 0.930 . S
C1982 C1980 1.384 . S
C1982 C1983 1.372 . S
C1983 C1982 1.372 . S
C1983 C1984 1.400 . S
C1983 C1988 1.490 . S
C1984 H1974 0.930 . S
C1984 C1983 1.400 . S
C1984 C1987 1.386 . S
H1985 C2001 0.930 . S
H1986 C2002 0.931 . S
C1987 H1975 0.929 . S
C1987 C1981 1.390 . S
C1987 C1984 1.386 . S
C1988 C1983 1.490 . S
C1988 C1990 1.395 1_565 S
C1988 C1991 1.403 . S
H1989 C1995 0.930 1_565 S
C1990 H1976 0.930 . S
C1990 C1988 1.395 1_545 S
C1990 C1993 1.403 . S
C1991 C1988 1.403 . S
C1991 C1992 1.524 . S
C1991 C1995 1.400 1_565 S
C1992 H1977 0.960 . S
C1992 H1978 0.960 . S
C1992 H1979 0.960 . S
C1992 C1991 1.524 . S
C1993 C1990 1.403 . S
C1993 C1994 1.392 . S
C1993 C1997 1.495 . S
C1994 C1993 1.392 . S
C1994 C1995 1.385 . S
C1994 C1996 1.478 . S
C1995 H1989 0.930 1_545 S
C1995 C1991 1.400 1_545 S
C1995 C1994 1.385 . S
C1996 C1994 1.478 . S
C1996 C1998 1.381 . S
C1996 C2002 1.383 . S
C1997 C1993 1.495 . S
C1997 H2003 0.959 . S
C1997 H2004 0.961 . S
C1997 H2005 0.960 . S
C1998 C1996 1.381 . S
C1998 C1999 1.394 . S
C1998 H2006 0.930 . S
C1999 C1998 1.394 . S
C1999 C2000 1.383 . S
C1999 H2007 0.929 . S
C2000 C1999 1.383 . S
C2000 C2001 1.377 . S
C2001 H1985 0.930 . S
C2001 C2000 1.377 . S
C2001 C2002 1.379 . S
C2002 H1986 0.931 . S
C2002 C1996 1.383 . S
C2002 C2001 1.379 . S
H2003 C1997 0.959 . S
H2004 C1997 0.961 . S
H2005 C1997 0.960 . S
H2006 C1998 0.930 . S
H2007 C1999 0.929 . S
H2008 C2016 0.929 1_545 S
H2009 C2018 0.930 . S
H2010 C2020 0.930 . S
H2011 C2023 0.929 . S
H2012 C2026 0.930 . S
H2013 C2028 0.960 . S
H2014 C2028 0.960 . S
H2015 C2028 0.960 . S
C2016 H2008 0.929 1_565 S
C2016 C2017 1.377 . S
C2016 C2018 1.384 . S
C2017 C2016 1.377 . S
C2017 C2023 1.390 . S
C2018 H2009 0.930 . S
C2018 C2016 1.384 . S
C2018 C2019 1.372 . S
C2019 C2018 1.372 . S
C2019 C2020 1.400 . S
C2019 C2024 1.490 . S
C2020 H2010 0.930 . S
C2020 C2019 1.400 . S
C2020 C2023 1.386 . S
H2021 C2037 0.930 . S
H2022 C2038 0.931 . S
C2023 H2011 0.929 . S
C2023 C2017 1.390 . S
C2023 C2020 1.386 . S
C2024 C2019 1.490 . S
C2024 C2026 1.395 . S
C2024 C2027 1.403 . S
H2025 C2031 0.930 . S
C2026 H2012 0.930 . S
C2026 C2024 1.395 . S
C2026 C2029 1.403 . S
C2027 C2024 1.403 . S
C2027 C2028 1.524 . S
C2027 C2031 1.400 . S
C2028 H2013 0.960 . S
C2028 H2014 0.960 . S
C2028 H2015 0.960 . S
C2028 C2027 1.524 . S
C2029 C2026 1.403 . S
C2029 C2030 1.392 . S
C2029 C2033 1.495 . S
C2030 C2029 1.392 . S
C2030 C2031 1.385 . S
C2030 C2032 1.478 . S
C2031 H2025 0.930 . S
C2031 C2027 1.400 . S
C2031 C2030 1.385 . S
C2032 C2030 1.478 . S
C2032 C2034 1.381 . S
C2032 C2038 1.383 . S
C2033 C2029 1.495 . S
C2033 H2039 0.959 . S
C2033 H2040 0.961 . S
C2033 H2041 0.960 . S
C2034 C2032 1.381 . S
C2034 C2035 1.394 . S
C2034 H2042 0.930 . S
C2035 C2034 1.394 . S
C2035 C2036 1.383 . S
C2035 H2043 0.929 . S
C2036 C2035 1.383 . S
C2036 C2037 1.377 . S
C2037 H2021 0.930 . S
C2037 C2036 1.377 . S
C2037 C2038 1.379 . S
C2038 H2022 0.931 . S
C2038 C2032 1.383 . S
C2038 C2037 1.379 . S
H2039 C2033 0.959 . S
H2040 C2033 0.961 . S
H2041 C2033 0.960 . S
H2042 C2034 0.930 . S
H2043 C2035 0.929 . S
H2044 C2052 0.929 . S
H2045 C2054 0.930 . S
H2046 C2056 0.930 . S
H2047 C2059 0.929 . S
H2048 C2062 0.930 . S
H2049 C2064 0.960 . S
H2050 C2064 0.960 . S
H2051 C2064 0.960 . S
C2052 H2044 0.929 . S
C2052 C2053 1.377 . S
C2052 C2054 1.384 . S
C2053 C2052 1.377 . S
C2053 C2059 1.390 . S
C2054 H2045 0.930 . S
C2054 C2052 1.384 . S
C2054 C2055 1.372 . S
C2055 C2054 1.372 . S
C2055 C2056 1.400 . S
C2055 C2060 1.490 . S
C2056 H2046 0.930 . S
C2056 C2055 1.400 . S
C2056 C2059 1.386 . S
H2057 C2073 0.930 . S
H2058 C2074 0.931 . S
C2059 H2047 0.929 . S
C2059 C2053 1.390 . S
C2059 C2056 1.386 . S
C2060 C2055 1.490 . S
C2060 C2062 1.395 . S
C2060 C2063 1.403 1_565 S
H2061 C2067 0.930 . S
C2062 H2048 0.930 . S
C2062 C2060 1.395 . S
C2062 C2065 1.403 . S
C2063 C2060 1.403 1_545 S
C2063 C2064 1.524 . S
C2063 C2067 1.400 . S
C2064 H2049 0.960 . S
C2064 H2050 0.960 . S
C2064 H2051 0.960 . S
C2064 C2063 1.524 . S
C2065 C2062 1.403 . S
C2065 C2066 1.372 1_565 S
C2065 C2069 1.495 . S
C2066 C2065 1.372 1_545 S
C2066 C2067 1.395 . S
C2066 C2068 1.489 . S
C2067 H2061 0.930 . S
C2067 C2063 1.400 . S
C2067 C2066 1.395 . S
C2068 C2066 1.489 . S
C2068 C2070 1.381 . S
C2068 C2074 1.383 . S
C2069 C2065 1.495 . S
C2069 H2075 0.959 . S
C2069 H2076 0.961 . S
C2069 H2077 0.960 . S
C2070 C2068 1.381 . S
C2070 C2071 1.394 . S
C2070 H2078 0.930 1_545 S
C2071 C2070 1.394 . S
C2071 C2072 1.383 . S
C2071 H2079 0.929 . S
C2072 C2071 1.383 . S
C2072 C2073 1.377 . S
C2073 H2057 0.930 . S
C2073 C2072 1.377 . S
C2073 C2074 1.379 . S
C2074 H2058 0.931 . S
C2074 C2068 1.383 . S
C2074 C2073 1.379 . S
H2075 C2069 0.959 . S
H2076 C2069 0.961 . S
H2077 C2069 0.960 . S
H2078 C2070 0.930 1_565 S
H2079 C2071 0.929 . S
C361 C7 1.092 . S
C380 C273 1.124 . S
C397 C119 1.081 . S
C416 C29 1.096 . S
C433 C50 1.081 . S
C452 C313 1.048 . S
C469 C72 1.095 . S
C488 C159 1.092 . S
C505 C97 1.089 . S
C524 C183 1.057 . S
C541 C226 1.082 . S
C560 C137 1.047 . S
C577 C295 1.095 . S
C596 C205 1.087 . S
C613 C248 1.095 . S
C632 C335 1.094 . S
C649 C206 1.561 . S
C668 C6 1.453 . S
C685 C28 1.491 . S
C704 C224 1.554 . S
C721 C51 1.485 . S
C740 C246 1.553 . S
C757 C184 1.561 . S
C776 C73 1.458 . S
C793 C294 1.562 . S
C812 C93 1.462 . S
C829 C312 1.559 . S
C848 C115 1.479 . S
C865 C141 1.489 . S
C884 C334 1.552 . S
C901 C272 1.559 . S
C920 C163 1.499 . S
C937 C182 1.480 . S
C956 C30 1.557 . S
C973 C204 1.488 . S
C992 C48 1.551 . S
C1009 C227 1.479 . S
C1028 C70 1.558 . S
C1045 C8 1.559 . S
C1064 C249 1.497 . S
C1081 C118 1.561 . S
C1100 C269 1.508 . S
C1117 C291 1.486 . S
C1136 C136 1.551 . S
C1153 C158 1.559 . S
C1172 C317 1.506 . S
C1189 C339 1.481 . S
C1208 C96 1.553 . S
C1225 C4 0.447 . S
C1244 C228 0.480 . S
C1261 C26 0.478 . S
C1280 C250 0.402 . S
C1297 C180 0.447 . S
C1316 C52 0.478 . S
C1333 C74 0.469 . S
C1352 C202 0.374 . S
C1369 C92 0.479 . S
C1388 C316 0.456 . S
C1405 C114 0.481 . S
C1424 C338 0.441 . S
C1441 C268 0.451 . S
C1460 C140 0.523 . S
C1477 C162 0.485 . S
C1496 C290 0.371 . S
C1513 C5 1.429 . S
C1532 C160 1.459 . S
C1549 C271 1.485 . S
C1568 C27 1.452 . S
C1585 C53 1.429 . S
C1604 C117 1.458 . S
C1621 C75 1.420 1_455 S
C1640 C314 1.465 . S
C1657 C94 1.416 . S
C1676 C71 1.505 . S
C1693 C185 1.480 . S
C1712 C116 1.424 . S
C1729 C139 1.417 . S
C1748 C31 1.507 . S
C1765 C225 1.490 . S
C1784 C161 1.389 1_655 S
C1801 C181 1.415 . S
C1820 C336 1.479 1_565 S
C1837 C95 1.488 . S
C1856 C203 1.437 1_655 S
C1873 C293 1.480 1_545 S
C1892 C229 1.450 . S
C1909 C251 1.424 . S
C1928 C138 1.502 . S
C1945 C270 1.430 . S
C1964 C247 1.473 1_545 S
C1981 C292 1.422 1_455 S
C2000 C9 1.459 . S
C2017 C207 1.483 1_565 S
C2036 C315 1.457 . S
C2053 C49 1.489 . S
C2072 C337 1.383 . S
