# Generated by pormake.
# Topology umd, (4)-cn, num edge types: 1
# Building blocks:
#     Node 0, Type 0, BuildingBlock: MUDLON_clean_sbu_0, # of connection points: 4
#     Node 1, Type 0, BuildingBlock: MUDLON_clean_sbu_0, # of connection points: 4
#     Node 2, Type 0, BuildingBlock: MUDLON_clean_sbu_0, # of connection points: 4
#     Node 3, Type 0, BuildingBlock: MUDLON_clean_sbu_0, # of connection points: 4
#     Node 4, Type 0, BuildingBlock: MUDLON_clean_sbu_0, # of connection points: 4
#     Node 5, Type 0, BuildingBlock: MUDLON_clean_sbu_0, # of connection points: 4
#     Node 6, Type 0, BuildingBlock: MUDLON_clean_sbu_0, # of connection points: 4
#     Node 7, Type 0, BuildingBlock: MUDLON_clean_sbu_0, # of connection points: 4
#     Node 8, Type 0, BuildingBlock: MUDLON_clean_sbu_0, # of connection points: 4
#     Node 9, Type 0, BuildingBlock: MUDLON_clean_sbu_0, # of connection points: 4
#     Node 10, Type 0, BuildingBlock: MUDLON_clean_sbu_0, # of connection points: 4
#     Node 11, Type 0, BuildingBlock: MUDLON_clean_sbu_0, # of connection points: 4
#     Node 12, Type 0, BuildingBlock: MUDLON_clean_sbu_0, # of connection points: 4
#     Node 13, Type 0, BuildingBlock: MUDLON_clean_sbu_0, # of connection points: 4
#     Node 14, Type 0, BuildingBlock: MUDLON_clean_sbu_0, # of connection points: 4
#     Node 15, Type 0, BuildingBlock: MUDLON_clean_sbu_0, # of connection points: 4
#     Edge 16, Type (0, 0), BuildingBlock: MIFKUJ_clean_linker_0, # of connection points: 2
#     Edge 17, Type (0, 0), BuildingBlock: MIFKUJ_clean_linker_0, # of connection points: 2
#     Edge 18, Type (0, 0), BuildingBlock: MIFKUJ_clean_linker_0, # of connection points: 2
#     Edge 19, Type (0, 0), BuildingBlock: MIFKUJ_clean_linker_0, # of connection points: 2
#     Edge 20, Type (0, 0), BuildingBlock: MIFKUJ_clean_linker_0, # of connection points: 2
#     Edge 21, Type (0, 0), BuildingBlock: MIFKUJ_clean_linker_0, # of connection points: 2
#     Edge 22, Type (0, 0), BuildingBlock: MIFKUJ_clean_linker_0, # of connection points: 2
#     Edge 23, Type (0, 0), BuildingBlock: MIFKUJ_clean_linker_0, # of connection points: 2
#     Edge 24, Type (0, 0), BuildingBlock: MIFKUJ_clean_linker_0, # of connection points: 2
#     Edge 25, Type (0, 0), BuildingBlock: MIFKUJ_clean_linker_0, # of connection points: 2
#     Edge 26, Type (0, 0), BuildingBlock: MIFKUJ_clean_linker_0, # of connection points: 2
#     Edge 27, Type (0, 0), BuildingBlock: MIFKUJ_clean_linker_0, # of connection points: 2
#     Edge 28, Type (0, 0), BuildingBlock: MIFKUJ_clean_linker_0, # of connection points: 2
#     Edge 29, Type (0, 0), BuildingBlock: MIFKUJ_clean_linker_0, # of connection points: 2
#     Edge 30, Type (0, 0), BuildingBlock: MIFKUJ_clean_linker_0, # of connection points: 2
#     Edge 31, Type (0, 0), BuildingBlock: MIFKUJ_clean_linker_0, # of connection points: 2
#     Edge 32, Type (0, 0), BuildingBlock: MIFKUJ_clean_linker_0, # of connection points: 2
#     Edge 33, Type (0, 0), BuildingBlock: MIFKUJ_clean_linker_0, # of connection points: 2
#     Edge 34, Type (0, 0), BuildingBlock: MIFKUJ_clean_linker_0, # of connection points: 2
#     Edge 35, Type (0, 0), BuildingBlock: MIFKUJ_clean_linker_0, # of connection points: 2
#     Edge 36, Type (0, 0), BuildingBlock: MIFKUJ_clean_linker_0, # of connection points: 2
#     Edge 37, Type (0, 0), BuildingBlock: MIFKUJ_clean_linker_0, # of connection points: 2
#     Edge 38, Type (0, 0), BuildingBlock: MIFKUJ_clean_linker_0, # of connection points: 2
#     Edge 39, Type (0, 0), BuildingBlock: MIFKUJ_clean_linker_0, # of connection points: 2
#     Edge 40, Type (0, 0), BuildingBlock: MIFKUJ_clean_linker_0, # of connection points: 2
#     Edge 41, Type (0, 0), BuildingBlock: MIFKUJ_clean_linker_0, # of connection points: 2
#     Edge 42, Type (0, 0), BuildingBlock: MIFKUJ_clean_linker_0, # of connection points: 2
#     Edge 43, Type (0, 0), BuildingBlock: MIFKUJ_clean_linker_0, # of connection points: 2
#     Edge 44, Type (0, 0), BuildingBlock: MIFKUJ_clean_linker_0, # of connection points: 2
#     Edge 45, Type (0, 0), BuildingBlock: MIFKUJ_clean_linker_0, # of connection points: 2
#     Edge 46, Type (0, 0), BuildingBlock: MIFKUJ_clean_linker_0, # of connection points: 2
#     Edge 47, Type (0, 0), BuildingBlock: MIFKUJ_clean_linker_0, # of connection points: 2
# Relax obj value: 0.014
# Max RMSD: 0.192
# Mean RMSD: 0.192
data_MOF--net-umd--node1-MUDLON_clean_sbu_0--edge1-MIFKUJ_clean_linker_0
_symmetry_space_group_name_H-M    P1
_symmetry_Int_Tables_number       1
_symmetry_cell_setting            triclinic
loop_
_symmetry_equiv_pos_as_xyz
'x, y, z'
_cell_length_a     52.933124
_cell_length_b     52.874702
_cell_length_c     77.021389
_cell_angle_alpha  89.585695
_cell_angle_beta   89.971924
_cell_angle_gamma 90.044371
loop_
_atom_site_label
_atom_site_type_symbol
_atom_site_fract_x
_atom_site_fract_y
_atom_site_fract_z
_atom_type_partial_charge
Mg0 Mg 0.18643 0.45456 0.14502 0.0
C1 C 0.18534 0.48039 0.10934 0.0
O2 O 0.16193 0.4849 0.11402 0.0
C3 C 0.21528 0.46928 0.17851 0.0
O4 O 0.23116 0.45148 0.1739 0.0
C5 C 0.22403 0.41381 0.14144 0.0
O6 O 0.23547 0.43381 0.13495 0.0
O7 O 0.20157 0.41626 0.1471 0.0
O8 O 0.20019 0.46968 0.12012 0.0
O9 O 0.14525 0.45666 0.14467 0.0
C10 C 0.1364 0.47795 0.14934 0.0
O11 O 0.1523 0.49574 0.15401 0.0
O12 O 0.19705 0.47505 0.16848 0.0
Mg13 Mg 0.55973 0.18895 0.64923 0.0
C14 C 0.55144 0.2186 0.61572 0.0
O15 O 0.57096 0.2312 0.62167 0.0
C16 C 0.54831 0.18678 0.68659 0.0
O17 O 0.56458 0.16839 0.68413 0.0
C18 C 0.60618 0.21854 0.65986 0.0
O19 O 0.59069 0.22525 0.67233 0.0
O20 O 0.59866 0.20266 0.64865 0.0
O21 O 0.5416 0.2014 0.62519 0.0
O22 O 0.55681 0.14793 0.64859 0.0
C23 C 0.53438 0.13975 0.64668 0.0
O24 O 0.51594 0.15625 0.64518 0.0
O25 O 0.54169 0.20016 0.67355 0.0
Mg26 Mg 0.82331 0.56645 0.14612 0.0
C27 C 0.79406 0.5566 0.11309 0.0
O28 O 0.78509 0.579 0.11701 0.0
C29 C 0.79781 0.54065 0.17896 0.0
O30 O 0.77742 0.53713 0.16956 0.0
C31 C 0.79965 0.6159 0.15825 0.0
O32 O 0.80184 0.60476 0.17348 0.0
O33 O 0.80816 0.60481 0.14487 0.0
O34 O 0.80871 0.54557 0.12384 0.0
O35 O 0.86416 0.56466 0.14317 0.0
C36 C 0.87244 0.54271 0.13959 0.0
O37 O 0.85608 0.52429 0.13744 0.0
O38 O 0.81716 0.55093 0.17211 0.0
Mg39 Mg 0.45327 0.82354 0.64399 0.0
C40 C 0.4615 0.79867 0.60915 0.0
O41 O 0.44005 0.788 0.61368 0.0
C42 C 0.46722 0.79428 0.67787 0.0
O43 O 0.45047 0.77764 0.67267 0.0
C44 C 0.40035 0.80479 0.65586 0.0
O45 O 0.40719 0.81294 0.67123 0.0
O46 O 0.41518 0.80782 0.64301 0.0
O47 O 0.47252 0.81312 0.61993 0.0
O48 O 0.45415 0.86465 0.64396 0.0
C49 C 0.47631 0.87357 0.64581 0.0
O50 O 0.49524 0.85766 0.64746 0.0
O51 O 0.47249 0.81309 0.66811 0.0
Mg52 Mg 0.19098 0.5619 0.39269 0.0
C53 C 0.21575 0.55424 0.42801 0.0
O54 O 0.22748 0.57499 0.42313 0.0
C55 C 0.20432 0.55659 0.35519 0.0
O56 O 0.19864 0.58071 0.35622 0.0
C57 C 0.22872 0.60359 0.38736 0.0
O58 O 0.24121 0.584 0.38143 0.0
O59 O 0.20632 0.60036 0.393 0.0
O60 O 0.20081 0.54354 0.41738 0.0
O61 O 0.14986 0.5605 0.39182 0.0
C62 C 0.14066 0.53952 0.38683 0.0
O63 O 0.15627 0.52145 0.38223 0.0
O64 O 0.20355 0.54303 0.36892 0.0
Mg65 Mg 0.44955 0.1858 0.89696 0.0
C66 C 0.47796 0.18351 0.93167 0.0
O67 O 0.48451 0.16116 0.92587 0.0
C68 C 0.45986 0.21226 0.86212 0.0
O69 O 0.43718 0.2215 0.86483 0.0
C70 C 0.40884 0.2233 0.90132 0.0
O71 O 0.42908 0.23498 0.90703 0.0
O72 O 0.41113 0.20075 0.89585 0.0
O73 O 0.46495 0.19808 0.92195 0.0
O74 O 0.45171 0.1446 0.89613 0.0
C75 C 0.47277 0.13585 0.89087 0.0
O76 O 0.49059 0.15187 0.8863 0.0
O77 O 0.47008 0.1986 0.87384 0.0
Mg78 Mg 0.82572 0.45422 0.39398 0.0
C79 C 0.79589 0.46266 0.42768 0.0
O80 O 0.78041 0.44607 0.42082 0.0
C81 C 0.82464 0.48776 0.36163 0.0
O82 O 0.84668 0.49454 0.36787 0.0
C83 C 0.79393 0.40919 0.38477 0.0
O84 O 0.78462 0.4264 0.37419 0.0
O85 O 0.81243 0.41512 0.39448 0.0
O86 O 0.81462 0.47057 0.41879 0.0
O87 O 0.86689 0.45723 0.3932 0.0
C88 C 0.87635 0.47691 0.40008 0.0
O89 O 0.86108 0.49324 0.40742 0.0
O90 O 0.811 0.47249 0.37041 0.0
Mg91 Mg 0.55847 0.82074 0.89262 0.0
C92 C 0.54953 0.79205 0.92642 0.0
O93 O 0.56904 0.77922 0.9207 0.0
C94 C 0.54761 0.82166 0.85517 0.0
O95 O 0.56356 0.84038 0.85752 0.0
C96 C 0.60639 0.79272 0.88239 0.0
O97 O 0.59258 0.78767 0.86868 0.0
O98 O 0.59738 0.80706 0.89407 0.0
O99 O 0.53987 0.80903 0.9167 0.0
O100 O 0.55537 0.8618 0.89251 0.0
C101 C 0.53291 0.86994 0.89435 0.0
O102 O 0.51455 0.85341 0.89627 0.0
O103 O 0.54101 0.80849 0.86833 0.0
Mg104 Mg 0.82181 0.55948 0.89579 0.0
C105 C 0.81935 0.53091 0.93021 0.0
O106 O 0.8409 0.52194 0.92446 0.0
C107 C 0.80625 0.55398 0.85885 0.0
O108 O 0.81057 0.57836 0.86009 0.0
C109 C 0.80291 0.6116 0.90665 0.0
O110 O 0.80667 0.60217 0.92226 0.0
O111 O 0.80913 0.59859 0.8935 0.0
O112 O 0.8065 0.54549 0.92041 0.0
O113 O 0.86281 0.55487 0.89699 0.0
C114 C 0.87475 0.54483 0.88445 0.0
O115 O 0.86243 0.53928 0.87018 0.0
O116 O 0.80847 0.54023 0.87242 0.0
Mg117 Mg 0.45395 0.82741 0.39191 0.0
C118 C 0.48567 0.82323 0.42539 0.0
O119 O 0.4989 0.84149 0.41814 0.0
C120 C 0.46329 0.82298 0.35494 0.0
O121 O 0.44296 0.83704 0.35654 0.0
C122 C 0.40027 0.81001 0.4012 0.0
O123 O 0.40606 0.8191 0.41653 0.0
O124 O 0.41594 0.81244 0.38878 0.0
O125 O 0.46757 0.81334 0.41694 0.0
O126 O 0.45652 0.86854 0.39108 0.0
C127 C 0.45587 0.88262 0.40439 0.0
O128 O 0.45111 0.87245 0.41966 0.0
O129 O 0.47392 0.81484 0.36872 0.0
Mg130 Mg 0.18291 0.44891 0.89306 0.0
C131 C 0.21149 0.46365 0.92552 0.0
O132 O 0.22673 0.44612 0.9196 0.0
C133 C 0.18407 0.4539 0.85518 0.0
O134 O 0.16982 0.43403 0.85832 0.0
C135 C 0.19767 0.39133 0.88997 0.0
O136 O 0.17616 0.38773 0.88187 0.0
O137 O 0.20327 0.41326 0.89545 0.0
O138 O 0.19273 0.47043 0.91626 0.0
O139 O 0.14177 0.44628 0.89254 0.0
C140 C 0.1289 0.45283 0.90572 0.0
O141 O 0.14077 0.45817 0.92021 0.0
O142 O 0.19344 0.46564 0.86805 0.0
Mg143 Mg 0.56496 0.18894 0.39746 0.0
C144 C 0.53759 0.19121 0.43205 0.0
O145 O 0.53062 0.1685 0.42716 0.0
C146 C 0.55749 0.20221 0.36014 0.0
O147 O 0.58209 0.19944 0.36126 0.0
C148 C 0.61847 0.20724 0.40684 0.0
O149 O 0.61246 0.19906 0.42245 0.0
O150 O 0.60304 0.204 0.3944 0.0
O151 O 0.55061 0.20477 0.42166 0.0
O152 O 0.56262 0.14786 0.4 0.0
C153 C 0.55813 0.13402 0.38691 0.0
O154 O 0.55748 0.1445 0.3714 0.0
O155 O 0.54428 0.19967 0.37389 0.0
Mg156 Mg 0.82647 0.44748 0.64918 0.0
C157 C 0.82961 0.45887 0.61141 0.0
O158 O 0.85191 0.44929 0.615 0.0
C159 C 0.81491 0.45383 0.68605 0.0
O160 O 0.82435 0.43094 0.68481 0.0
C161 C 0.80842 0.39441 0.63897 0.0
O162 O 0.81427 0.40226 0.62325 0.0
O163 O 0.81309 0.40862 0.65183 0.0
O164 O 0.81377 0.46145 0.62374 0.0
O165 O 0.86729 0.45277 0.65047 0.0
C166 C 0.87396 0.47576 0.64856 0.0
O167 O 0.85631 0.49285 0.64601 0.0
O168 O 0.81232 0.4669 0.6722 0.0
Mg169 Mg 0.56015 0.82742 0.14463 0.0
C170 C 0.53361 0.8244 0.10969 0.0
O171 O 0.5265 0.84721 0.11425 0.0
C172 C 0.55222 0.80177 0.1796 0.0
O173 O 0.57538 0.79429 0.17635 0.0
C174 C 0.61153 0.80651 0.13457 0.0
O175 O 0.60078 0.80636 0.1192 0.0
O176 O 0.59953 0.81586 0.14732 0.0
O177 O 0.54639 0.81113 0.12038 0.0
O178 O 0.55508 0.86838 0.14289 0.0
C179 C 0.54532 0.88032 0.15552 0.0
O180 O 0.54036 0.86799 0.16999 0.0
O181 O 0.54042 0.81447 0.16806 0.0
Mg182 Mg 0.18734 0.56492 0.64611 0.0
C183 C 0.18884 0.53606 0.61214 0.0
O184 O 0.16727 0.52748 0.61825 0.0
C185 C 0.19084 0.52501 0.6752 0.0
O186 O 0.17393 0.51331 0.66569 0.0
C187 C 0.20871 0.61595 0.63536 0.0
O188 O 0.20633 0.6058 0.61993 0.0
O189 O 0.20085 0.60369 0.64857 0.0
O190 O 0.20211 0.55059 0.62157 0.0
O191 O 0.1463 0.56175 0.64504 0.0
C192 C 0.13282 0.55991 0.65867 0.0
O193 O 0.14366 0.56212 0.67392 0.0
O194 O 0.20045 0.54554 0.66955 0.0
Mg195 Mg 0.45076 0.18893 0.14928 0.0
C196 C 0.46293 0.2147 0.115 0.0
O197 O 0.44315 0.22804 0.11962 0.0
C198 C 0.45558 0.19749 0.18706 0.0
O199 O 0.43181 0.19089 0.18517 0.0
C200 C 0.39324 0.20347 0.15295 0.0
O201 O 0.38947 0.18093 0.15975 0.0
O202 O 0.41528 0.20982 0.14799 0.0
O203 O 0.47172 0.19833 0.12559 0.0
O204 O 0.44753 0.14779 0.14983 0.0
C205 C 0.45324 0.13511 0.13639 0.0
O206 O 0.45793 0.14725 0.1218 0.0
O207 O 0.46944 0.19906 0.17357 0.0
H208 H 0.09756 0.44691 0.13891 0.0
H209 H 0.05259 0.45766 0.13682 0.0
H210 H 0.06861 0.53272 0.15546 0.0
H211 H 0.1132 0.52206 0.15789 0.0
H212 H 0.02767 0.51467 0.17076 0.0
H213 H 0.05836 0.52095 0.11211 0.0
H214 H 0.07928 0.50568 0.08557 0.0
H215 H 0.02435 0.44626 0.08122 0.0
H216 H 1.00331 0.46097 0.10789 0.0
H217 H 0.91206 0.57419 0.14759 0.0
H218 H 0.95707 0.56333 0.14851 0.0
H219 H 0.93969 0.48777 0.13146 0.0
H220 H 0.89492 0.49849 0.13031 0.0
H221 H 0.98113 0.50577 0.11525 0.0
H222 H 0.95059 0.49961 0.17399 0.0
H223 H 0.92979 0.51498 0.20056 0.0
H224 H 0.98466 0.5745 0.20463 0.0
H225 H 1.00559 0.55969 0.17794 0.0
C226 C 0.09145 0.46565 0.14263 0.0
C227 C 0.109 0.48364 0.14852 0.0
C228 C 0.06577 0.47182 0.14135 0.0
C229 C 0.05725 0.49612 0.14579 0.0
C230 C 0.0747 0.51388 0.15195 0.0
C231 C 0.10026 0.50773 0.15328 0.0
C232 C 0.03021 0.50329 0.14402 0.0
C233 C 0.0176 0.513 0.15856 0.0
C234 C 0.01688 0.50069 0.12819 0.0
C235 C 0.02942 0.4919 0.1121 0.0
C236 C 0.05086 0.50451 0.10557 0.0
C237 C 0.06272 0.49597 0.09049 0.0
C238 C 0.05319 0.47497 0.08174 0.0
C239 C 0.03173 0.4625 0.08802 0.0
C240 C 0.01982 0.47094 0.10312 0.0
C241 C 0.91786 0.55534 0.1439 0.0
C242 C 0.89987 0.53716 0.139 0.0
C243 C 0.94356 0.54912 0.1445 0.0
C244 C 0.9517 0.52462 0.14027 0.0
C245 C 0.93386 0.50676 0.13482 0.0
C246 C 0.90823 0.51292 0.13423 0.0
C247 C 0.97868 0.51724 0.14197 0.0
C248 C 0.99124 0.50746 0.12743 0.0
C249 C 0.992 0.51982 0.15779 0.0
C250 C 0.97949 0.5287 0.17387 0.0
C251 C 0.9581 0.5161 0.18048 0.0
C252 C 0.94631 0.52469 0.19557 0.0
C253 C 0.95586 0.54575 0.20425 0.0
C254 C 0.97726 0.55822 0.19788 0.0
C255 C 0.98911 0.54972 0.18278 0.0
H256 H 0.9467 0.55237 0.21593 0.0
H257 H 0.0624 0.46839 0.07006 0.0
H258 H 0.52135 0.89712 0.65119 0.0
H259 H 0.5301 0.94234 0.65151 0.0
H260 H 0.45149 0.95807 0.64145 0.0
H261 H 0.44253 0.91251 0.64096 0.0
H262 H 0.48285 0.98691 0.62114 0.0
H263 H 0.47516 0.96659 0.68151 0.0
H264 H 0.48374 0.94279 0.70851 0.0
H265 H 0.56211 0.9634 0.70548 0.0
H266 H 0.55406 0.98703 0.67831 0.0
H267 H 0.48869 0.11743 0.64112 0.0
H268 H 0.47874 0.07241 0.64088 0.0
H269 H 0.55687 0.05467 0.65109 0.0
H270 H 0.56704 0.09994 0.65152 0.0
H271 H 0.52493 0.02699 0.67152 0.0
H272 H 0.53267 0.04686 0.61094 0.0
H273 H 0.52405 0.07059 0.58391 0.0
H274 H 0.44551 0.05083 0.58737 0.0
H275 H 0.45359 0.02727 0.61457 0.0
C276 C 0.50584 0.91012 0.64907 0.0
C277 C 0.48119 0.90117 0.6461 0.0
C278 C 0.51089 0.93602 0.64933 0.0
C279 C 0.49141 0.9536 0.64672 0.0
C280 C 0.46679 0.9448 0.64356 0.0
C281 C 0.46169 0.91879 0.64334 0.0
C282 C 0.49702 0.98112 0.64706 0.0
C283 C 0.49167 0.99578 0.63226 0.0
C284 C 0.50913 0.99253 0.66141 0.0
C285 C 0.51404 0.97839 0.67778 0.0
C286 C 0.49426 0.96588 0.68652 0.0
C287 C 0.49902 0.95245 0.70187 0.0
C288 C 0.52347 0.95153 0.70869 0.0
C289 C 0.54319 0.9641 0.70018 0.0
C290 C 0.53853 0.97754 0.68481 0.0
C291 C 0.50384 0.10401 0.64328 0.0
C292 C 0.52871 0.1123 0.6463 0.0
C293 C 0.4981 0.07824 0.64306 0.0
C294 C 0.5171 0.06016 0.64577 0.0
C295 C 0.54193 0.06832 0.64892 0.0
C296 C 0.54772 0.09417 0.64911 0.0
C297 C 0.51085 0.03277 0.64558 0.0
C298 C 0.51607 0.01814 0.66041 0.0
C299 C 0.49861 0.02139 0.63126 0.0
C300 C 0.4937 0.03551 0.61489 0.0
C301 C 0.51352 0.04775 0.60602 0.0
C302 C 0.50874 0.06114 0.59065 0.0
C303 C 0.48424 0.06228 0.58395 0.0
C304 C 0.46447 0.04997 0.59259 0.0
C305 C 0.46914 0.03657 0.60797 0.0
H306 H 0.48058 0.07265 0.57205 0.0
H307 H 0.52712 0.94112 0.72058 0.0
H308 H 0.11606 0.49807 0.37453 0.0
H309 H 0.0711 0.48839 0.37626 0.0
H310 H 0.05756 0.55978 0.40134 0.0
H311 H 0.10283 0.5696 0.39978 0.0
H312 H 0.0341 0.5206 0.41811 0.0
H313 H 0.04019 0.55129 0.35957 0.0
H314 H 0.05743 0.55362 0.32986 0.0
H315 H 0.03728 0.47597 0.32155 0.0
H316 H 0.02024 0.47306 0.35131 0.0
H317 H 0.90092 0.51838 0.41239 0.0
H318 H 0.94555 0.52891 0.40974 0.0
H319 H 0.95885 0.459 0.3827 0.0
H320 H 0.91383 0.44848 0.38502 0.0
H321 H 0.98249 0.49762 0.36682 0.0
H322 H 0.97694 0.46646 0.42519 0.0
H323 H 0.96003 0.46353 0.45497 0.0
H324 H 0.97955 0.54124 0.46372 0.0
H325 H 0.99628 0.54473 0.43389 0.0
C326 C 0.10356 0.51185 0.38033 0.0
C327 C 0.11307 0.53464 0.38703 0.0
C328 C 0.0778 0.5063 0.38123 0.0
C329 C 0.06091 0.52343 0.3888 0.0
C330 C 0.07027 0.5463 0.39542 0.0
C331 C 0.09611 0.55193 0.39446 0.0
C332 C 0.03366 0.51697 0.39029 0.0
C333 C 0.02269 0.51598 0.40687 0.0
C334 C 0.01899 0.51017 0.37568 0.0
C335 C 0.02915 0.51189 0.35774 0.0
C336 C 0.03962 0.53465 0.35146 0.0
C337 C 0.04932 0.53609 0.3346 0.0
C338 C 0.04851 0.51494 0.32384 0.0
C339 C 0.03792 0.49233 0.3299 0.0
C340 C 0.02822 0.49078 0.34677 0.0
C341 C 0.91329 0.50512 0.40594 0.0
C342 C 0.90377 0.48251 0.39897 0.0
C343 C 0.93888 0.51115 0.4045 0.0
C344 C 0.95567 0.49462 0.39622 0.0
C345 C 0.94626 0.47203 0.38919 0.0
C346 C 0.92055 0.46599 0.39058 0.0
C347 C 0.98289 0.50126 0.39465 0.0
C348 C 0.99387 0.50227 0.37807 0.0
C349 C 0.99761 0.50798 0.40928 0.0
C350 C 0.98765 0.50592 0.42725 0.0
C351 C 0.97745 0.48298 0.43342 0.0
C352 C 0.96793 0.48121 0.45032 0.0
C353 C 0.96866 0.5022 0.46122 0.0
C354 C 0.97898 0.525 0.45526 0.0
C355 C 0.9885 0.52688 0.43836 0.0
H356 H 0.96128 0.50079 0.4743 0.0
H357 H 0.05603 0.5161 0.31079 0.0
H358 H 0.56508 0.9097 0.88773 0.0
H359 H 0.55462 0.95483 0.887 0.0
H360 H 0.47726 0.93724 0.90001 0.0
H361 H 0.4874 0.89228 0.90042 0.0
H362 H 0.4785 0.9715 0.87499 0.0
H363 H 0.51904 0.961 0.93034 0.0
H364 H 0.55312 0.94828 0.95039 0.0
H365 H 0.60439 0.99904 0.92454 0.0
H366 H 0.57068 0.01181 0.90418 0.0
H367 H 0.44058 0.09659 0.89896 0.0
H368 H 0.45047 0.05126 0.89941 0.0
H369 H 0.52674 0.06769 0.88313 0.0
H370 H 0.51713 0.11276 0.8827 0.0
H371 H 0.52575 0.03414 0.90997 0.0
H372 H 0.48488 0.04461 0.85467 0.0
H373 H 0.4505 0.05756 0.83493 0.0
H374 H 0.39946 0.00695 0.86114 0.0
H375 H 0.43347 0.99397 0.88121 0.0
C376 C 0.54587 0.91547 0.89048 0.0
C377 C 0.52711 0.89738 0.89417 0.0
C378 C 0.53992 0.94128 0.89011 0.0
C379 C 0.51518 0.94949 0.89362 0.0
C380 C 0.49645 0.93141 0.89724 0.0
C381 C 0.50234 0.90567 0.89752 0.0
C382 C 0.50863 0.97685 0.89343 0.0
C383 C 0.48864 0.98513 0.88282 0.0
C384 C 0.52212 0.99477 0.90338 0.0
C385 C 0.5424 0.98717 0.91563 0.0
C386 C 0.53763 0.9693 0.92885 0.0
C387 C 0.55687 0.96211 0.94028 0.0
C388 C 0.58093 0.97279 0.93871 0.0
C389 C 0.58576 0.99075 0.92573 0.0
C390 C 0.56659 0.99799 0.91424 0.0
C391 C 0.45942 0.09052 0.89542 0.0
C392 C 0.47804 0.10831 0.89078 0.0
C393 C 0.46503 0.06462 0.89565 0.0
C394 C 0.48934 0.05609 0.89123 0.0
C395 C 0.5079 0.07383 0.88662 0.0
C396 C 0.5023 0.09962 0.88632 0.0
C397 C 0.49567 0.02873 0.89155 0.0
C398 C 0.51561 0.02047 0.90217 0.0
C399 C 0.4821 0.01083 0.88166 0.0
C400 C 0.46166 0.01852 0.86956 0.0
C401 C 0.46627 0.0364 0.85632 0.0
C402 C 0.44687 0.04372 0.84505 0.0
C403 C 0.4228 0.03314 0.84681 0.0
C404 C 0.41811 0.01516 0.85981 0.0
C405 C 0.43745 0.0078 0.87113 0.0
H406 H 0.40779 0.03882 0.83808 0.0
H407 H 0.5958 0.9672 0.94758 0.0
H408 H 0.90391 0.54587 0.91386 0.0
H409 H 0.94675 0.52944 0.91754 0.0
H410 H 0.94897 0.50949 0.86334 0.0
H411 H 0.90597 0.52535 0.85965 0.0
H412 H 0.96622 0.47168 0.88236 0.0
H413 H 0.98211 0.56093 0.8796 0.0
H414 H 0.97694 0.60565 0.88774 0.0
H415 H 1.00061 0.58822 0.93978 0.0
H416 H 1.00562 0.54332 0.932 0.0
H417 H 0.09938 0.45037 0.87649 0.0
H418 H 0.05572 0.46473 0.87321 0.0
H419 H 0.05279 0.48236 0.92777 0.0
H420 H 0.09649 0.46837 0.93112 0.0
H421 H 0.03587 0.5211 0.90866 0.0
H422 H 0.02054 0.43165 0.91101 0.0
H423 H 0.02604 0.38713 0.90247 0.0
H424 H 1.00173 0.40525 0.85068 0.0
H425 H 0.99641 0.44996 0.85885 0.0
C426 C 0.91361 0.53825 0.90268 0.0
C427 C 0.90151 0.537 0.88645 0.0
C428 C 0.93815 0.52888 0.90479 0.0
C429 C 0.95123 0.51837 0.89069 0.0
C430 C 0.93929 0.51744 0.87443 0.0
C431 C 0.91472 0.52665 0.87233 0.0
C432 C 0.97706 0.5077 0.89296 0.0
C433 C 0.98154 0.48262 0.88789 0.0
C434 C 0.99694 0.52172 0.90055 0.0
C435 C 0.994 0.54872 0.90526 0.0
C436 C 0.98603 0.5666 0.89281 0.0
C437 C 0.98316 0.59198 0.89736 0.0
C438 C 0.98838 0.59976 0.91428 0.0
C439 C 0.99654 0.58217 0.92669 0.0
C440 C 0.99942 0.55675 0.92221 0.0
C441 C 0.08933 0.45693 0.88786 0.0
C442 C 0.10149 0.45826 0.90407 0.0
C443 C 0.06433 0.46511 0.88596 0.0
C444 C 0.05092 0.47459 0.90025 0.0
C445 C 0.06278 0.47522 0.91654 0.0
C446 C 0.08775 0.46708 0.91844 0.0
C447 C 0.02502 0.48509 0.89808 0.0
C448 C 0.02054 0.51016 0.90315 0.0
C449 C 1.00518 0.47109 0.89044 0.0
C450 C 0.00831 0.4442 0.8855 0.0
C451 C 0.01656 0.42618 0.89776 0.0
C452 C 0.01961 0.4009 0.89299 0.0
C453 C 0.0143 0.39338 0.87603 0.0
C454 C 0.00586 0.41111 0.86381 0.0
C455 C 1.00281 0.43641 0.86851 0.0
H456 H 0.01667 0.3738 0.87236 0.0
H457 H 0.98615 0.61942 0.91778 0.0
H458 H 0.549 0.09905 0.36172 0.0
H459 H 0.53178 0.05649 0.36539 0.0
H460 H 0.5315 0.06595 0.42096 0.0
H461 H 0.54922 0.10844 0.41742 0.0
H462 H 0.54612 0.01911 0.41273 0.0
H463 H 0.47735 0.07359 0.39707 0.0
H464 H 0.45491 0.10535 0.37928 0.0
H465 H 0.45726 0.05571 0.33543 0.0
H466 H 0.48004 0.02377 0.3529 0.0
H467 H 0.46292 0.91665 0.43063 0.0
H468 H 0.47982 0.95962 0.42827 0.0
H469 H 0.48396 0.95229 0.37261 0.0
H470 H 0.46685 0.90946 0.37481 0.0
H471 H 0.46661 0.99848 0.38178 0.0
H472 H 0.53615 0.94437 0.39751 0.0
H473 H 0.5583 0.91262 0.41549 0.0
H474 H 0.55399 0.96175 0.45954 0.0
H475 H 0.53147 0.99366 0.44187 0.0
C476 C 0.54554 0.09202 0.37474 0.0
C477 C 0.55033 0.10725 0.38927 0.0
C478 C 0.53554 0.0677 0.37681 0.0
C479 C 0.52983 0.05819 0.39343 0.0
C480 C 0.53561 0.07292 0.40801 0.0
C481 C 0.54576 0.09723 0.40595 0.0
C482 C 0.5172 0.0332 0.39555 0.0
C483 C 0.52855 0.01473 0.40616 0.0
C484 C 0.49446 0.02728 0.38676 0.0
C485 C 0.48061 0.04638 0.37625 0.0
C486 C 0.47324 0.06951 0.3836 0.0
C487 C 0.46044 0.08754 0.37358 0.0
C488 C 0.45472 0.08257 0.35622 0.0
C489 C 0.46173 0.05954 0.34887 0.0
C490 C 0.47457 0.04146 0.35883 0.0
C491 C 0.46715 0.92426 0.41786 0.0
C492 C 0.46365 0.90952 0.40292 0.0
C493 C 0.47696 0.94879 0.41655 0.0
C494 C 0.48353 0.95904 0.40029 0.0
C495 C 0.47912 0.94475 0.3853 0.0
C496 C 0.46936 0.92023 0.3866 0.0
C497 C 0.49561 0.98437 0.39886 0.0
C498 C 0.48413 1.0029 0.38839 0.0
C499 C 0.51819 0.99036 0.40781 0.0
C500 C 0.53189 0.97128 0.41842 0.0
C501 C 0.53976 0.94832 0.41106 0.0
C502 C 0.5524 0.93031 0.42119 0.0
C503 C 0.55749 0.93514 0.43866 0.0
C504 C 0.55 0.95802 0.44602 0.0
C505 C 0.53731 0.97608 0.43595 0.0
H506 H 0.56727 0.92117 0.44648 0.0
H507 H 0.4448 0.09656 0.34848 0.0
H508 H 0.8932 0.52234 0.64119 0.0
H509 H 0.93706 0.53609 0.64235 0.0
H510 H 0.95968 0.46126 0.65873 0.0
H511 H 0.91558 0.44712 0.6572 0.0
H512 H 0.96855 0.5399 0.668 0.0
H513 H 0.02 0.44999 0.64442 0.0
H514 H 0.01226 0.41349 0.62535 0.0
H515 H 0.95896 0.45719 0.59574 0.0
H516 H 0.96663 0.49402 0.61448 0.0
H517 H 0.09985 0.55004 0.68524 0.0
H518 H 0.05612 0.53564 0.68315 0.0
H519 H 0.06068 0.5391 0.62726 0.0
H520 H 0.10463 0.55308 0.62923 0.0
H521 H 0.03825 0.49656 0.63712 0.0
H522 H 0.02886 0.58435 0.65036 0.0
H523 H 0.03577 0.62362 0.66678 0.0
H524 H 1.00338 0.58912 0.71227 0.0
H525 H 0.99657 0.54951 0.69617 0.0
C526 C 0.90746 0.50871 0.64499 0.0
C527 C 0.90086 0.48359 0.6491 0.0
C528 C 0.93258 0.51666 0.6457 0.0
C529 C 0.95176 0.49974 0.65055 0.0
C530 C 0.94528 0.47461 0.65471 0.0
C531 C 0.92006 0.46656 0.65389 0.0
C532 C 0.97838 0.50874 0.65143 0.0
C533 C 0.98378 0.53034 0.66128 0.0
C534 C 0.99827 0.4966 0.64245 0.0
C535 C 0.99369 0.47465 0.63098 0.0
C536 C 0.00669 0.45182 0.63381 0.0
C537 C 1.0023 0.43107 0.62306 0.0
C538 C 0.98506 0.43299 0.60938 0.0
C539 C 0.97223 0.45569 0.60638 0.0
C540 C 0.97657 0.4765 0.61708 0.0
C541 C 0.09153 0.54794 0.67249 0.0
C542 C 0.10575 0.55283 0.65741 0.0
C543 C 0.06648 0.53971 0.67132 0.0
C544 C 0.05501 0.53644 0.65505 0.0
C545 C 0.06912 0.54143 0.63996 0.0
C546 C 0.09422 0.54957 0.64112 0.0
C547 C 0.02838 0.52761 0.65376 0.0
C548 C 0.02301 0.50602 0.64389 0.0
C549 C 0.00839 0.54011 0.66239 0.0
C550 C 0.01244 0.56389 0.6721 0.0
C551 C 0.02339 0.58508 0.6639 0.0
C552 C 0.02726 0.6074 0.67314 0.0
C553 C 0.02008 0.60884 0.69057 0.0
C554 C 0.00896 0.58797 0.69878 0.0
C555 C 1.00508 0.56558 0.6896 0.0
H556 H 0.02308 0.62615 0.6977 0.0
H557 H 0.98168 0.41691 0.60109 0.0
H558 H 0.4698 0.10363 0.1108 0.0
H559 H 0.48411 0.06 0.11387 0.0
H560 H 0.46343 0.06048 0.16805 0.0
H561 H 0.44956 0.10445 0.16518 0.0
H562 H 0.50965 0.04228 0.16419 0.0
H563 H 0.42946 0.02645 0.13745 0.0
H564 H 0.39613 0.03147 0.11534 0.0
H565 H 0.44709 1.00555 0.07591 0.0
H566 H 0.48085 1.00069 0.09776 0.0
H567 H 0.52444 0.91081 0.18013 0.0
H568 H 0.50829 0.95371 0.17643 0.0
H569 H 0.53156 0.9535 0.12276 0.0
H570 H 0.54752 0.91029 0.12629 0.0
H571 H 0.48406 0.97143 0.12616 0.0
H572 H 0.56418 0.98738 0.15282 0.0
H573 H 0.59766 0.98259 0.17484 0.0
H574 H 0.54682 0.00847 0.21436 0.0
H575 H 0.51291 0.0131 0.19261 0.0
C576 C 0.46794 0.09439 0.12334 0.0
C577 C 0.45858 0.10761 0.13777 0.0
C578 C 0.47608 0.06935 0.12505 0.0
C579 C 0.47476 0.05684 0.14118 0.0
C580 C 0.46469 0.06974 0.15548 0.0
C581 C 0.45663 0.09485 0.1538 0.0
C582 C 0.48518 0.03086 0.14332 0.0
C583 C 0.50373 0.02669 0.15606 0.0
C584 C 0.47807 0.01066 0.13237 0.0
C585 C 0.45775 0.01342 0.11922 0.0
C586 C 0.43362 0.02199 0.12405 0.0
C587 C 0.41463 0.02478 0.11157 0.0
C588 C 0.41951 0.01889 0.09423 0.0
C589 C 0.44335 0.01013 0.08934 0.0
C590 C 0.46241 0.00733 0.10177 0.0
C591 C 0.52635 0.91991 0.16755 0.0
C592 C 0.53735 0.90709 0.15351 0.0
C593 C 0.51714 0.94452 0.16548 0.0
C594 C 0.51886 0.95694 0.14935 0.0
C595 C 0.53002 0.9443 0.13532 0.0
C596 C 0.53928 0.91964 0.13739 0.0
C597 C 0.50841 0.98287 0.14707 0.0
C598 C 0.48991 0.98702 0.1343 0.0
C599 C 0.51556 1.00308 0.15799 0.0
C600 C 0.53593 1.00035 0.17111 0.0
C601 C 0.56007 0.99186 0.16623 0.0
C602 C 0.57914 0.98921 0.17866 0.0
C603 C 0.57435 0.99516 0.196 0.0
C604 C 0.55049 1.00384 0.20093 0.0
C605 C 0.53135 0.0065 0.18855 0.0
H606 H 0.58914 0.9931 0.2056 0.0
H607 H 0.40479 0.02107 0.08459 0.0
H608 H 0.22675 0.57992 0.32775 0.0
H609 H 0.23166 0.56403 0.29827 0.0
H610 H 0.19763 0.4932 0.31387 0.0
H611 H 0.19403 0.50868 0.34374 0.0
H612 H 0.23118 0.48334 0.29106 0.0
H613 H 0.16337 0.54228 0.29274 0.0
H614 H 0.14191 0.5826 0.29895 0.0
H615 H 0.19309 0.62181 0.26485 0.0
H616 H 0.21507 0.58175 0.25861 0.0
H617 H 0.17746 0.4929 0.1962 0.0
H618 H 0.17746 0.50624 0.22642 0.0
H619 H 0.25561 0.484 0.23122 0.0
H620 H 0.25525 0.46931 0.20115 0.0
H621 H 0.19852 0.53918 0.24416 0.0
H622 H 0.26982 0.46593 0.27212 0.0
H623 H 0.28413 0.42242 0.26623 0.0
H624 H 0.21327 0.4059 0.24167 0.0
H625 H 0.19842 0.44918 0.24761 0.0
C626 C 0.22065 0.56082 0.32494 0.0
C627 C 0.20984 0.54559 0.33799 0.0
C628 C 0.22329 0.55179 0.30803 0.0
C629 C 0.21433 0.52765 0.30362 0.0
C630 C 0.20457 0.51195 0.31686 0.0
C631 C 0.20251 0.52079 0.33393 0.0
C632 C 0.21414 0.51937 0.28511 0.0
C633 C 0.22406 0.49558 0.28081 0.0
C634 C 0.20421 0.53492 0.27168 0.0
C635 C 0.19101 0.55906 0.27534 0.0
C636 C 0.17015 0.55953 0.28666 0.0
C637 C 0.15788 0.58233 0.29017 0.0
C638 C 0.16617 0.60477 0.28233 0.0
C639 C 0.18671 0.60443 0.27093 0.0
C640 C 0.19907 0.58168 0.26739 0.0
C641 C 0.19472 0.49096 0.20365 0.0
C642 C 0.21633 0.47992 0.19628 0.0
C643 C 0.1947 0.49863 0.22098 0.0
C644 C 0.2164 0.49578 0.23133 0.0
C645 C 0.23838 0.48578 0.22374 0.0
C646 C 0.23824 0.4776 0.20648 0.0
C647 C 0.21579 0.50323 0.25001 0.0
C648 C 0.20572 0.52693 0.25437 0.0
C649 C 0.22453 0.4871 0.26353 0.0
C650 C 0.23315 0.46089 0.26014 0.0
C651 C 0.25727 0.45298 0.26552 0.0
C652 C 0.26547 0.42836 0.26216 0.0
C653 C 0.24966 0.41143 0.25352 0.0
C654 C 0.22554 0.41905 0.2483 0.0
C655 C 0.21723 0.44363 0.25165 0.0
H656 H 0.25606 0.3924 0.2509 0.0
H657 H 0.15665 0.6224 0.28507 0.0
H658 H 0.51679 0.22499 0.69754 0.0
H659 H 0.50146 0.2324 0.72718 0.0
H660 H 0.54274 0.16704 0.74528 0.0
H661 H 0.55779 0.15941 0.71592 0.0
H662 H 0.49659 0.16702 0.75859 0.0
H663 H 0.56416 0.22702 0.75242 0.0
H664 H 0.58742 0.26244 0.73888 0.0
H665 H 0.52408 0.31156 0.74726 0.0
H666 H 0.50028 0.2763 0.76064 0.0
H667 H 0.49925 0.18479 0.84907 0.0
H668 H 0.5141 0.18381 0.81901 0.0
H669 H 0.46148 0.24284 0.80532 0.0
H670 H 0.44627 0.24381 0.83537 0.0
H671 H 0.51084 0.24788 0.78941 0.0
H672 H 0.44411 0.18689 0.79666 0.0
H673 H 0.42244 0.15112 0.81099 0.0
H674 H 0.48628 0.1033 0.80105 0.0
H675 H 0.50851 0.13893 0.78687 0.0
C676 C 0.52254 0.21221 0.70785 0.0
C677 C 0.53854 0.19163 0.70433 0.0
C678 C 0.51387 0.21652 0.72479 0.0
C679 C 0.52109 0.20037 0.73851 0.0
C680 C 0.53687 0.17975 0.73495 0.0
C681 C 0.54553 0.17546 0.7181 0.0
C682 C 0.51222 0.20458 0.75662 0.0
C683 C 0.49993 0.18465 0.76534 0.0
C684 C 0.51609 0.22773 0.76539 0.0
C685 C 0.53033 0.24895 0.75734 0.0
C686 C 0.5551 0.24532 0.75123 0.0
C687 C 0.5684 0.26537 0.74361 0.0
C688 C 0.5572 0.28922 0.74216 0.0
C689 C 0.5327 0.29306 0.74836 0.0
C690 C 0.5193 0.27305 0.75597 0.0
C691 C 0.49111 0.19789 0.83976 0.0
C692 C 0.47144 0.21428 0.84461 0.0
C693 C 0.49956 0.19723 0.82256 0.0
C694 C 0.4887 0.21307 0.80991 0.0
C695 C 0.47008 0.23044 0.81488 0.0
C696 C 0.46138 0.23091 0.83205 0.0
C697 C 0.49561 0.21021 0.79133 0.0
C698 C 0.50742 0.23036 0.78256 0.0
C699 C 0.4915 0.18719 0.78251 0.0
C700 C 0.47807 0.16565 0.79086 0.0
C701 C 0.45361 0.1688 0.79765 0.0
C702 C 0.44121 0.14854 0.80572 0.0
C703 C 0.453 0.12496 0.80697 0.0
C704 C 0.47719 0.12158 0.80009 0.0
C705 C 0.48969 0.1418 0.79202 0.0
H706 H 0.44337 0.1093 0.81324 0.0
H707 H 0.56754 0.30472 0.73626 0.0
H708 H 0.76249 0.51395 0.19794 0.0
H709 H 0.76378 0.50361 0.22903 0.0
H710 H 0.83502 0.54274 0.23352 0.0
H711 H 0.83422 0.55241 0.2026 0.0
H712 H 0.83763 0.50058 0.25061 0.0
H713 H 0.77662 0.56828 0.2474 0.0
H714 H 0.73766 0.58927 0.2373 0.0
H715 H 0.69318 0.52811 0.25795 0.0
H716 H 0.73193 0.5066 0.26799 0.0
H717 H 0.8497 0.52013 0.33988 0.0
H718 H 0.84156 0.52813 0.30917 0.0
H719 H 0.7761 0.47964 0.31143 0.0
H720 H 0.78399 0.47162 0.34237 0.0
H721 H 0.76807 0.52254 0.29097 0.0
H722 H 0.82982 0.45652 0.29584 0.0
H723 H 0.86914 0.43669 0.30636 0.0
H724 H 0.91273 0.49607 0.28258 0.0
H725 H 0.87363 0.51647 0.27214 0.0
C726 C 0.77843 0.5203 0.20557 0.0
C727 C 0.79825 0.53399 0.19774 0.0
C728 C 0.77909 0.5145 0.22337 0.0
C729 C 0.79938 0.52262 0.23374 0.0
C730 C 0.81917 0.53618 0.22587 0.0
C731 C 0.81866 0.54175 0.20813 0.0
C732 C 0.80047 0.51689 0.25272 0.0
C733 C 0.82248 0.50564 0.25941 0.0
C734 C 0.78047 0.52277 0.26425 0.0
C735 C 0.75718 0.53571 0.25827 0.0
C736 C 0.75854 0.55922 0.24967 0.0
C737 C 0.7365 0.57123 0.24397 0.0
C738 C 0.71296 0.56 0.24693 0.0
C739 C 0.71143 0.53677 0.25564 0.0
C740 C 0.73342 0.52467 0.26134 0.0
C741 C 0.83337 0.51136 0.33395 0.0
C742 C 0.81763 0.49503 0.34359 0.0
C743 C 0.8288 0.5159 0.31634 0.0
C744 C 0.8085 0.50411 0.30791 0.0
C745 C 0.79195 0.48883 0.31765 0.0
C746 C 0.79651 0.48427 0.33534 0.0
C747 C 0.80545 0.50689 0.28878 0.0
C748 C 0.78311 0.5174 0.28209 0.0
C749 C 0.8252 0.50049 0.27721 0.0
C750 C 0.84877 0.48812 0.28333 0.0
C751 C 0.84778 0.46544 0.29296 0.0
C752 C 0.87003 0.45408 0.29889 0.0
C753 C 0.89342 0.46514 0.29517 0.0
C754 C 0.8946 0.48754 0.28547 0.0
C755 C 0.8724 0.49899 0.27952 0.0
H756 H 0.91062 0.45632 0.29978 0.0
H757 H 0.69592 0.56932 0.24251 0.0
H758 H 0.5578 0.84806 0.82555 0.0
H759 H 0.54274 0.84001 0.79628 0.0
H760 H 0.5009 0.77524 0.81484 0.0
H761 H 0.51622 0.78308 0.84447 0.0
H762 H 0.52617 0.76553 0.78407 0.0
H763 H 0.46979 0.82844 0.80536 0.0
H764 H 0.45765 0.86838 0.81941 0.0
H765 H 0.49668 0.9106 0.77983 0.0
H766 H 0.50939 0.87089 0.76567 0.0
H767 H 0.45681 0.7594 0.7035 0.0
H768 H 0.46977 0.76078 0.73399 0.0
H769 H 0.51304 0.82836 0.72359 0.0
H770 H 0.50005 0.82726 0.69321 0.0
H771 H 0.48315 0.83424 0.75137 0.0
H772 H 0.54171 0.7713 0.7312 0.0
H773 H 0.55429 0.7314 0.71727 0.0
H774 H 0.51092 0.68924 0.75469 0.0
H775 H 0.49781 0.72895 0.76871 0.0
C776 C 0.54538 0.83207 0.82351 0.0
C777 C 0.53812 0.81629 0.83743 0.0
C778 C 0.53671 0.82755 0.80671 0.0
C779 C 0.52042 0.80723 0.80337 0.0
C780 C 0.5134 0.7911 0.81714 0.0
C781 C 0.52208 0.79566 0.83406 0.0
C782 C 0.51087 0.80319 0.78542 0.0
C783 C 0.51633 0.78036 0.77701 0.0
C784 C 0.49842 0.8227 0.77609 0.0
C785 C 0.49071 0.84666 0.78452 0.0
C786 C 0.47595 0.84623 0.79972 0.0
C787 C 0.46894 0.86883 0.80769 0.0
C788 C 0.47643 0.89201 0.80054 0.0
C789 C 0.4909 0.89263 0.78536 0.0
C790 C 0.49799 0.87008 0.77734 0.0
C791 C 0.46936 0.77437 0.70764 0.0
C792 C 0.47732 0.79326 0.69587 0.0
C793 C 0.4768 0.7751 0.72509 0.0
C794 C 0.49241 0.79467 0.73112 0.0
C795 C 0.50091 0.81313 0.71928 0.0
C796 C 0.49353 0.8124 0.70187 0.0
C797 C 0.49893 0.7968 0.74986 0.0
C798 C 0.4928 0.8193 0.75845 0.0
C799 C 0.51071 0.77698 0.75931 0.0
C800 C 0.51854 0.75311 0.75088 0.0
C801 C 0.53467 0.75354 0.73636 0.0
C802 C 0.54193 0.73096 0.72847 0.0
C803 C 0.53334 0.70781 0.73505 0.0
C804 C 0.51752 0.70719 0.74958 0.0
C805 C 0.51018 0.72973 0.75751 0.0
H806 H 0.539 0.69034 0.72893 0.0
H807 H 0.47098 0.90949 0.80673 0.0
H808 H 0.80416 0.50368 0.85001 0.0
H809 H 0.80128 0.48605 0.82072 0.0
H810 H 0.79608 0.56139 0.79918 0.0
H811 H 0.79853 0.57906 0.82828 0.0
H812 H 0.76493 0.52989 0.78231 0.0
H813 H 0.85199 0.53013 0.8001 0.0
H814 H 0.88766 0.52007 0.81954 0.0
H815 H 0.87388 0.44069 0.81293 0.0
H816 H 0.83784 0.45028 0.79367 0.0
H817 H 0.80466 0.50314 0.69508 0.0
H818 H 0.79929 0.51988 0.7245 0.0
H819 H 0.80692 0.44454 0.74572 0.0
H820 H 0.81272 0.42787 0.7166 0.0
H821 H 0.83597 0.47588 0.7629 0.0
H822 H 0.74925 0.47602 0.74421 0.0
H823 H 0.71361 0.48666 0.7249 0.0
H824 H 0.72709 0.56582 0.73289 0.0
H825 H 0.76305 0.55565 0.75208 0.0
C826 C 0.80204 0.51646 0.83905 0.0
C827 C 0.80179 0.54279 0.84149 0.0
C828 C 0.80052 0.50638 0.82231 0.0
C829 C 0.79884 0.52243 0.8077 0.0
C830 C 0.79742 0.54863 0.81021 0.0
C831 C 0.79893 0.5587 0.82689 0.0
C832 C 0.79994 0.51216 0.78977 0.0
C833 C 0.78056 0.51824 0.77801 0.0
C834 C 0.82018 0.49674 0.78419 0.0
C835 C 0.84205 0.49092 0.79559 0.0
C836 C 0.85646 0.51053 0.80289 0.0
C837 C 0.87675 0.50491 0.81387 0.0
C838 C 0.88299 0.47976 0.81751 0.0
C839 C 0.869 0.46016 0.81012 0.0
C840 C 0.84864 0.46568 0.79917 0.0
C841 C 0.80489 0.49014 0.70601 0.0
C842 C 0.80922 0.46419 0.70348 0.0
C843 C 0.80177 0.49971 0.72283 0.0
C844 C 0.80262 0.48346 0.73737 0.0
C845 C 0.80631 0.4575 0.73476 0.0
C846 C 0.80957 0.44799 0.71805 0.0
C847 C 0.80082 0.49338 0.75539 0.0
C848 C 0.82021 0.48737 0.76718 0.0
C849 C 0.78063 0.50892 0.76094 0.0
C850 C 0.75899 0.51507 0.74944 0.0
C851 C 0.74474 0.4957 0.74174 0.0
C852 C 0.72446 0.50165 0.73084 0.0
C853 C 0.71813 0.5269 0.72763 0.0
C854 C 0.73204 0.54627 0.73536 0.0
C855 C 0.75235 0.54042 0.74627 0.0
H856 H 0.70242 0.53147 0.71919 0.0
H857 H 0.8987 0.47545 0.82601 0.0
H858 H 0.50503 0.79469 0.34591 0.0
H859 H 0.52055 0.78602 0.31649 0.0
H860 H 0.4593 0.82989 0.29494 0.0
H861 H 0.4436 0.83825 0.324 0.0
H862 H 0.46508 0.78758 0.27714 0.0
H863 H 0.51973 0.85378 0.29831 0.0
H864 H 0.55009 0.87307 0.31859 0.0
H865 H 0.60245 0.81262 0.30943 0.0
H866 H 0.57224 0.79279 0.28926 0.0
H867 H 0.50778 0.82065 0.19251 0.0
H868 H 0.49294 0.81907 0.22256 0.0
H869 H 0.55767 0.77406 0.23692 0.0
H870 H 0.57281 0.77581 0.20696 0.0
H871 H 0.55167 0.81204 0.25899 0.0
H872 H 0.49813 0.74813 0.2354 0.0
H873 H 0.46771 0.72967 0.21482 0.0
H874 H 0.4131 0.78628 0.22824 0.0
H875 H 0.44332 0.80529 0.24874 0.0
C876 C 0.49488 0.80243 0.33489 0.0
C877 C 0.47311 0.81722 0.33735 0.0
C878 C 0.5038 0.79752 0.31808 0.0
C879 C 0.49117 0.80744 0.30346 0.0
C880 C 0.46933 0.82195 0.30596 0.0
C881 C 0.46043 0.8268 0.32265 0.0
C882 C 0.50062 0.80319 0.2855 0.0
C883 C 0.48397 0.79308 0.27314 0.0
C884 C 0.52546 0.80975 0.28034 0.0
C885 C 0.54361 0.82165 0.29245 0.0
C886 C 0.53763 0.84449 0.30074 0.0
C887 C 0.55482 0.85554 0.31219 0.0
C888 C 0.57815 0.84403 0.31534 0.0
C889 C 0.58435 0.82148 0.30701 0.0
C890 C 0.56721 0.81034 0.29556 0.0
C891 C 0.51868 0.81008 0.20199 0.0
C892 C 0.54151 0.79838 0.19729 0.0
C893 C 0.51013 0.80915 0.21919 0.0
C894 C 0.52411 0.79632 0.23203 0.0
C895 C 0.54658 0.7841 0.22727 0.0
C896 C 0.55515 0.78505 0.2101 0.0
C897 C 0.51599 0.79681 0.25054 0.0
C898 C 0.53288 0.80623 0.263 0.0
C899 C 0.49134 0.78969 0.25578 0.0
C900 C 0.47308 0.77825 0.24351 0.0
C901 C 0.4797 0.75676 0.23387 0.0
C902 C 0.46248 0.74617 0.22223 0.0
C903 C 0.43851 0.75683 0.2202 0.0
C904 C 0.43168 0.77805 0.22982 0.0
C905 C 0.44884 0.78872 0.24147 0.0
H906 H 0.4252 0.74861 0.21118 0.0
H907 H 0.59143 0.85262 0.3242 0.0
H908 H 0.2121 0.4944 0.8431 0.0
H909 H 0.2187 0.50725 0.81272 0.0
H910 H 0.1726 0.44478 0.79584 0.0
H911 H 0.16627 0.43172 0.82587 0.0
H912 H 0.21358 0.44841 0.77618 0.0
H913 H 0.14984 0.5059 0.79741 0.0
H914 H 0.13259 0.53838 0.81694 0.0
H915 H 0.19282 0.58894 0.80276 0.0
H916 H 0.21061 0.55661 0.78331 0.0
H917 H 0.17228 0.48301 0.69184 0.0
H918 H 0.17681 0.47158 0.72247 0.0
H919 H 0.22478 0.53645 0.73038 0.0
H920 H 0.22019 0.54815 0.69975 0.0
H921 H 0.1886 0.53355 0.75493 0.0
H922 H 0.24956 0.47717 0.73109 0.0
H923 H 0.2659 0.44466 0.71124 0.0
H924 H 0.21045 0.39186 0.73006 0.0
H925 H 0.19353 0.42417 0.74986 0.0
C926 C 0.20343 0.48341 0.8329 0.0
C927 C 0.18861 0.46207 0.83695 0.0
C928 C 0.20715 0.49081 0.81554 0.0
C929 C 0.196 0.47707 0.80196 0.0
C930 C 0.18147 0.45565 0.80604 0.0
C931 C 0.17778 0.44827 0.82329 0.0
C932 C 0.19903 0.48486 0.78345 0.0
C933 C 0.20797 0.46698 0.77152 0.0
C934 C 0.19239 0.50932 0.77739 0.0
C935 C 0.18172 0.52874 0.78908 0.0
C936 C 0.15952 0.52387 0.79857 0.0
C937 C 0.14963 0.54226 0.8096 0.0
C938 C 0.16165 0.56568 0.81114 0.0
C939 C 0.18356 0.57077 0.8016 0.0
C940 C 0.19355 0.55243 0.79056 0.0
C941 C 0.18409 0.49468 0.70001 0.0
C942 C 0.19587 0.5165 0.6933 0.0
C943 C 0.18671 0.48808 0.71754 0.0
C944 C 0.20127 0.50307 0.72874 0.0
C945 C 0.21346 0.52459 0.722 0.0
C946 C 0.2109 0.53118 0.70445 0.0
C947 C 0.20265 0.49691 0.74761 0.0
C948 C 0.19455 0.51509 0.7596 0.0
C949 C 0.20999 0.4727 0.75373 0.0
C950 C 0.22015 0.45317 0.74187 0.0
C951 C 0.24072 0.45869 0.73091 0.0
C952 C 0.25011 0.44028 0.71968 0.0
C953 C 0.23919 0.41623 0.71937 0.0
C954 C 0.21888 0.41051 0.73031 0.0
C955 C 0.20941 0.42885 0.74156 0.0
H956 H 0.24649 0.402 0.71067 0.0
H957 H 0.15395 0.5799 0.81968 0.0
H958 H 0.58141 0.21017 0.32926 0.0
H959 H 0.56286 0.21277 0.30039 0.0
H960 H 0.48837 0.20513 0.32255 0.0
H961 H 0.50694 0.2021 0.35168 0.0
H962 H 0.49456 0.17392 0.29552 0.0
H963 H 0.50906 0.26192 0.30564 0.0
H964 H 0.53377 0.29959 0.3137 0.0
H965 H 0.58524 0.28588 0.27171 0.0
H966 H 0.56103 0.24791 0.26354 0.0
H967 H 0.42938 0.19849 0.2175 0.0
H968 H 0.44597 0.20242 0.24686 0.0
H969 H 0.52156 0.20915 0.22641 0.0
H970 H 0.50498 0.20558 0.19677 0.0
H971 H 0.51377 0.24199 0.25282 0.0
H972 H 0.50075 0.15338 0.24346 0.0
H973 H 0.47673 0.11526 0.23538 0.0
H974 H 0.42325 0.12972 0.27605 0.0
H975 H 0.44677 0.16814 0.28422 0.0
C976 C 0.56104 0.20927 0.32808 0.0
C977 C 0.54566 0.20592 0.34283 0.0
C978 C 0.55045 0.2109 0.31151 0.0
C979 C 0.52419 0.20942 0.30926 0.0
C980 C 0.50869 0.20641 0.32397 0.0
C981 C 0.51931 0.20478 0.34062 0.0
C982 C 0.51318 0.2097 0.29147 0.0
C983 C 0.49837 0.18905 0.2863 0.0
C984 C 0.51879 0.22904 0.27923 0.0
C985 C 0.53334 0.25194 0.28407 0.0
C986 C 0.52575 0.26682 0.2982 0.0
C987 C 0.53965 0.28826 0.30278 0.0
C988 C 0.56109 0.2951 0.29325 0.0
C989 C 0.56864 0.28055 0.27909 0.0
C990 C 0.55482 0.25909 0.27447 0.0
C991 C 0.44955 0.20092 0.21917 0.0
C992 C 0.46588 0.20151 0.20475 0.0
C993 C 0.45901 0.20308 0.23602 0.0
C994 C 0.48506 0.20564 0.23889 0.0
C995 C 0.50139 0.20708 0.22452 0.0
C996 C 0.4919 0.205 0.20759 0.0
C997 C 0.49515 0.20623 0.25692 0.0
C998 C 0.50984 0.22696 0.2621 0.0
C999 C 0.48952 0.18692 0.26919 0.0
C1000 C 0.47538 0.16378 0.26433 0.0
C1001 C 0.48375 0.14854 0.25059 0.0
C1002 C 0.47025 0.12686 0.24601 0.0
C1003 C 0.44844 0.12011 0.25516 0.0
C1004 C 0.44013 0.13499 0.26895 0.0
C1005 C 0.45354 0.15671 0.27357 0.0
H1006 H 0.43802 0.10331 0.2516 0.0
H1007 H 0.57183 0.31169 0.29682 0.0
H1008 H 0.24853 0.45156 0.94885 0.0
H1009 H 0.24863 0.4592 0.98007 0.0
H1010 H 0.17906 0.50105 0.97532 0.0
H1011 H 0.17891 0.4937 0.94397 0.0
H1012 H 0.21082 0.5225 0.9992 0.0
H1013 H 0.17722 0.44016 0.98725 0.0
H1014 H 0.17716 0.39752 0.9745 0.0
H1015 H 0.24429 0.37864 1.00303 0.0
H1016 H 0.24493 0.42134 1.01581 0.0
H1017 H 0.15939 0.50562 0.08394 0.0
H1018 H 0.16895 0.50746 0.05295 0.0
H1019 H 0.23768 0.46559 0.06183 0.0
H1020 H 0.22817 0.46354 0.09295 0.0
H1021 H 0.20953 0.44511 0.03603 0.0
H1022 H 0.24009 0.52753 0.05016 0.0
H1023 H 0.23834 0.57012 0.06292 0.0
H1024 H 0.17505 0.58887 0.03045 0.0
H1025 H 0.17619 0.54624 1.01766 0.0
C1026 C 0.23344 0.46276 0.95435 0.0
C1027 C 0.21357 0.4718 0.94389 0.0
C1028 C 0.23349 0.46703 0.97225 0.0
C1029 C 0.21362 0.48031 0.9801 0.0
C1030 C 0.19455 0.49068 0.96956 0.0
C1031 C 0.19449 0.48644 0.95163 0.0
C1032 C 0.21183 0.48181 0.99935 0.0
C1033 C 0.21034 0.5056 1.00726 0.0
C1034 C 0.21164 0.45975 1.00991 0.0
C1035 C 0.21127 0.43403 1.00234 0.0
C1036 C 0.19208 0.42698 0.99071 0.0
C1037 C 0.19192 0.4028 0.98349 0.0
C1038 C 0.21073 0.38541 0.98793 0.0
C1039 C 0.22974 0.39215 0.9996 0.0
C1040 C 0.23 0.41634 1.00684 0.0
C1041 C 0.17676 0.49713 0.07938 0.0
C1042 C 0.19299 0.48439 0.09096 0.0
C1043 C 0.18225 0.49829 0.06162 0.0
C1044 C 0.2041 0.48676 0.05503 0.0
C1045 C 0.22072 0.47464 0.06662 0.0
C1046 C 0.21532 0.4736 0.08442 0.0
C1047 C 0.20854 0.48584 0.03595 0.0
C1048 C 0.21036 0.46208 0.02804 0.0
C1049 C 0.20882 0.50792 0.02542 0.0
C1050 C 0.2081 0.5336 0.03305 0.0
C1051 C 0.22567 0.54066 0.04584 0.0
C1052 C 0.22481 0.56482 0.05306 0.0
C1053 C 0.20656 0.58217 0.04753 0.0
C1054 C 0.18916 0.5754 0.03473 0.0
C1055 C 0.18993 0.55125 0.02748 0.0
H1056 H 0.20593 0.60087 0.05313 0.0
H1057 H 0.21052 0.36668 0.98235 0.0
H1058 H 0.51063 0.16668 0.45737 0.0
H1059 H 0.50839 0.17691 0.48818 0.0
H1060 H 0.55313 0.2439 0.47905 0.0
H1061 H 0.55571 0.23364 0.44817 0.0
H1062 H 0.57191 0.21619 0.5053 0.0
H1063 H 0.49033 0.24804 0.48984 0.0
H1064 H 0.44788 0.24667 0.47671 0.0
H1065 H 0.42766 0.1845 0.5101 0.0
H1066 H 0.47012 0.18525 0.52327 0.0
H1067 H 0.56686 0.25472 0.59241 0.0
H1068 H 0.55973 0.25548 0.56107 0.0
H1069 H 0.51299 0.18889 0.56556 0.0
H1070 H 0.51951 0.18837 0.59698 0.0
H1071 H 0.49431 0.21996 0.54133 0.0
H1072 H 0.57594 0.18491 0.55456 0.0
H1073 H 0.61853 0.18439 0.56754 0.0
H1074 H 0.63871 0.25056 0.53798 0.0
H1075 H 0.5961 0.25166 0.525 0.0
C1076 C 0.51968 0.18382 0.46183 0.0
C1077 C 0.53343 0.19929 0.45027 0.0
C1078 C 0.51828 0.18971 0.47949 0.0
C1079 C 0.53047 0.21126 0.48597 0.0
C1080 C 0.54355 0.22718 0.47436 0.0
C1081 C 0.54492 0.22133 0.45668 0.0
C1082 C 0.53123 0.21604 0.50499 0.0
C1083 C 0.55491 0.21756 0.51311 0.0
C1084 C 0.50908 0.21704 0.5153 0.0
C1085 C 0.48349 0.21658 0.50745 0.0
C1086 C 0.4769 0.23395 0.4943 0.0
C1087 C 0.45282 0.23331 0.48686 0.0
C1088 C 0.4351 0.21548 0.49254 0.0
C1089 C 0.44141 0.19829 0.5057 0.0
C1090 C 0.46547 0.19884 0.51317 0.0
C1091 C 0.55471 0.24047 0.58679 0.0
C1092 C 0.54398 0.22132 0.59721 0.0
C1093 C 0.55075 0.24086 0.56883 0.0
C1094 C 0.53628 0.22191 0.56087 0.0
C1095 C 0.52433 0.20365 0.57136 0.0
C1096 C 0.5281 0.20337 0.58936 0.0
C1097 C 0.53498 0.2201 0.54159 0.0
C1098 C 0.51127 0.21896 0.53346 0.0
C1099 C 0.5571 0.21922 0.53123 0.0
C1100 C 0.58275 0.21853 0.53896 0.0
C1101 C 0.5894 0.19945 0.55093 0.0
C1102 C 0.61355 0.19904 0.55827 0.0
C1103 C 0.63128 0.21748 0.55363 0.0
C1104 C 0.62493 0.23632 0.54159 0.0
C1105 C 0.60079 0.23684 0.53423 0.0
H1106 H 0.64997 0.21712 0.55933 0.0
H1107 H 0.41647 0.21501 0.48677 0.0
H1108 H 0.81736 0.5157 0.0982 0.0
H1109 H 0.81771 0.50454 0.06741 0.0
H1110 H 0.76514 0.56484 0.05645 0.0
H1111 H 0.7644 0.57588 0.08717 0.0
H1112 H 0.75525 0.52373 0.03654 0.0
H1113 H 0.82812 0.57412 0.05173 0.0
H1114 H 0.86657 0.58391 0.06847 0.0
H1115 H 0.90048 0.51449 0.0517 0.0
H1116 H 0.86206 0.50412 0.03505 0.0
H1117 H 0.78216 0.55506 0.9485 0.0
H1118 H 0.77431 0.55286 0.97972 0.0
H1119 H 0.83234 0.49608 0.9851 0.0
H1120 H 0.84074 0.49869 0.95394 0.0
H1121 H 0.83919 0.53088 1.00825 0.0
H1122 H 0.76765 0.48246 0.99045 0.0
H1123 H 0.72914 0.473 0.97369 0.0
H1124 H 0.69264 0.53828 0.99502 0.0
H1125 H 0.73105 0.54834 1.01174 0.0
C1126 C 0.80546 0.52626 0.08931 0.0
C1127 C 0.79106 0.54688 0.09516 0.0
C1128 C 0.80578 0.51993 0.07168 0.0
C1129 C 0.79181 0.53415 0.05955 0.0
C1130 C 0.77616 0.55365 0.06553 0.0
C1131 C 0.77582 0.55999 0.08313 0.0
C1132 C 0.79496 0.53019 0.04055 0.0
C1133 C 0.77357 0.5254 0.03032 0.0
C1134 C 0.81893 0.53188 0.03245 0.0
C1135 C 0.84212 0.53822 0.04231 0.0
C1136 C 0.84371 0.56086 0.05172 0.0
C1137 C 0.8655 0.56653 0.06117 0.0
C1138 C 0.88593 0.5498 0.0612 0.0
C1139 C 0.88463 0.52741 0.0517 0.0
C1140 C 0.86286 0.52163 0.04225 0.0
C1141 C 0.79297 0.54178 0.95626 0.0
C1142 C 0.81213 0.52709 0.94869 0.0
C1143 C 0.78839 0.54046 0.97416 0.0
C1144 C 0.80259 0.52415 0.98484 0.0
C1145 C 0.82114 0.50885 0.97719 0.0
C1146 C 0.82587 0.5103 0.95933 0.0
C1147 C 0.79943 0.52445 1.00409 0.0
C1148 C 0.82087 0.52875 1.01441 0.0
C1149 C 0.77549 0.52229 1.01223 0.0
C1150 C 0.75231 0.51625 1.00225 0.0
C1151 C 0.75147 0.4949 0.99148 0.0
C1152 C 0.72965 0.48941 0.982 0.0
C1153 C 0.70848 0.50506 0.98327 0.0
C1154 C 0.70906 0.52619 0.99405 0.0
C1155 C 0.73084 0.53177 1.00355 0.0
H1156 H 0.6916 0.50078 0.97592 0.0
H1157 H 0.90278 0.55421 0.06853 0.0
H1158 H 0.50179 0.82298 0.59383 0.0
H1159 H 0.51259 0.82409 0.5629 0.0
H1160 H 0.45172 0.77222 0.5522 0.0
H1161 H 0.44113 0.77064 0.58301 0.0
H1162 H 0.49168 0.76151 0.5324 0.0
H1163 H 0.44454 0.83655 0.54718 0.0
H1164 H 0.43617 0.87569 0.56343 0.0
H1165 H 0.50679 0.90678 0.54597 0.0
H1166 H 0.51573 0.86766 0.5298 0.0
H1167 H 0.45905 0.78903 0.44505 0.0
H1168 H 0.46164 0.78205 0.47634 0.0
H1169 H 0.52276 0.83582 0.47948 0.0
H1170 H 0.52 0.84326 0.44814 0.0
H1171 H 0.4882 0.8455 0.50338 0.0
H1172 H 0.53274 0.77156 0.48563 0.0
H1173 H 0.53998 0.73248 0.4691 0.0
H1174 H 0.47352 0.69921 0.4917 0.0
H1175 H 0.46568 0.73824 0.5082 0.0
C1176 C 0.49096 0.81149 0.58493 0.0
C1177 C 0.47043 0.7969 0.59091 0.0
C1178 C 0.49708 0.81225 0.56723 0.0
C1179 C 0.48268 0.79858 0.55515 0.0
C1180 C 0.46306 0.78299 0.56122 0.0
C1181 C 0.45698 0.78217 0.57888 0.0
C1182 C 0.48693 0.80154 0.53612 0.0
C1183 C 0.4908 0.77986 0.52603 0.0
C1184 C 0.48634 0.82553 0.5278 0.0
C1185 C 0.48094 0.84908 0.53746 0.0
C1186 C 0.45837 0.85167 0.54692 0.0
C1187 C 0.45351 0.87385 0.5561 0.0
C1188 C 0.47098 0.89368 0.55578 0.0
C1189 C 0.49331 0.89139 0.54624 0.0
C1190 C 0.49828 0.86922 0.53706 0.0
C1191 C 0.47332 0.79912 0.45232 0.0
C1192 C 0.48931 0.81673 0.44403 0.0
C1193 C 0.47485 0.79502 0.47025 0.0
C1194 C 0.49255 0.80824 0.48031 0.0
C1195 C 0.50897 0.82537 0.47201 0.0
C1196 C 0.50742 0.82952 0.45406 0.0
C1197 C 0.49269 0.80542 0.49958 0.0
C1198 C 0.48952 0.82716 0.50972 0.0
C1199 C 0.49382 0.78147 0.50791 0.0
C1200 C 0.49853 0.75791 0.49806 0.0
C1201 C 0.51957 0.75598 0.48699 0.0
C1202 C 0.5238 0.73382 0.47763 0.0
C1203 C 0.5072 0.71339 0.47932 0.0
C1204 C 0.48636 0.71506 0.4904 0.0
C1205 C 0.48204 0.73718 0.49977 0.0
H1206 H 0.5105 0.69626 0.47206 0.0
H1207 H 0.46718 0.91084 0.56289 0.0
H1208 H 0.2466 0.57236 0.45349 0.0
H1209 H 0.24485 0.56302 0.48453 0.0
H1210 H 0.1859 0.50828 0.47564 0.0
H1211 H 0.18735 0.51773 0.44447 0.0
H1212 H 0.17305 0.54063 0.50086 0.0
H1213 H 0.24523 0.48965 0.48826 0.0
H1214 H 0.28729 0.48022 0.47617 0.0
H1215 H 0.32044 0.53716 0.50848 0.0
H1216 H 0.27851 0.54718 0.52059 0.0
H1217 H 0.16581 0.50456 0.58898 0.0
H1218 H 0.17336 0.50173 0.55776 0.0
H1219 H 0.23399 0.55588 0.56197 0.0
H1220 H 0.2269 0.55843 0.5933 0.0
H1221 H 0.24595 0.52015 0.5389 0.0
H1222 H 0.17447 0.57398 0.54933 0.0
H1223 H 0.13269 0.5851 0.56122 0.0
H1224 H 0.09863 0.52458 0.53261 0.0
H1225 H 0.1403 0.51288 0.52073 0.0
C1226 C 0.23352 0.55802 0.45806 0.0
C1227 C 0.21706 0.54586 0.44645 0.0
C1228 C 0.23262 0.55262 0.47585 0.0
C1229 C 0.21533 0.53484 0.48246 0.0
C1230 C 0.19942 0.52206 0.47085 0.0
C1231 C 0.20035 0.5274 0.45301 0.0
C1232 C 0.21259 0.53111 0.50157 0.0
C1233 C 0.1889 0.53561 0.50913 0.0
C1234 C 0.2334 0.52534 0.51245 0.0
C1235 C 0.25867 0.5193 0.50524 0.0
C1236 C 0.26145 0.50029 0.49269 0.0
C1237 C 0.28528 0.49482 0.48586 0.0
C1238 C 0.30651 0.50811 0.49153 0.0
C1239 C 0.30397 0.52688 0.50409 0.0
C1240 C 0.28018 0.53244 0.51096 0.0
C1241 C 0.18099 0.51562 0.58333 0.0
C1242 C 0.1956 0.53189 0.59365 0.0
C1243 C 0.18522 0.51406 0.56544 0.0
C1244 C 0.20392 0.52897 0.55742 0.0
C1245 C 0.21939 0.54426 0.56782 0.0
C1246 C 0.21528 0.54571 0.58575 0.0
C1247 C 0.20643 0.52972 0.53814 0.0
C1248 C 0.23006 0.52482 0.53058 0.0
C1249 C 0.18561 0.53533 0.52722 0.0
C1250 C 0.16053 0.54238 0.5343 0.0
C1251 C 0.1581 0.56292 0.54568 0.0
C1252 C 0.13444 0.56935 0.5524 0.0
C1253 C 0.11303 0.55551 0.54771 0.0
C1254 C 0.11524 0.53525 0.53626 0.0
C1255 C 0.13886 0.52872 0.52952 0.0
H1256 H 0.09473 0.56051 0.55293 0.0
H1257 H 0.32495 0.50385 0.48622 0.0
H1258 H 0.4588 0.22333 0.9501 0.0
H1259 H 0.46274 0.23093 0.98123 0.0
H1260 H 0.512 0.1663 0.98613 0.0
H1261 H 0.50762 0.15822 0.95509 0.0
H1262 H 0.4775 0.16408 1.01017 0.0
H1263 H 0.53381 0.22868 0.99024 0.0
H1264 H 0.54744 0.26547 0.97274 0.0
H1265 H 0.48835 0.3104 0.99503 0.0
H1266 H 0.47414 0.27377 1.0125 0.0
H1267 H 0.49906 0.18522 0.09944 0.0
H1268 H 0.50859 0.18268 0.0684 0.0
H1269 H 0.45576 0.24298 0.05803 0.0
H1270 H 0.44652 0.24599 0.08899 0.0
H1271 H 0.4965 0.24692 0.03706 0.0
H1272 H 0.43818 0.18099 0.05472 0.0
H1273 H 0.42498 0.14443 0.07263 0.0
H1274 H 0.48874 0.10199 0.05446 0.0
H1275 H 0.50252 0.13846 0.03663 0.0
C1276 C 0.47079 0.21096 0.95774 0.0
C1277 C 0.48285 0.19013 0.95007 0.0
C1278 C 0.47311 0.21538 0.97557 0.0
C1279 C 0.48783 0.1993 0.98609 0.0
C1280 C 0.5005 0.17895 0.97834 0.0
C1281 C 0.49804 0.17441 0.96055 0.0
C1282 C 0.48868 0.20271 1.00529 0.0
C1283 C 0.48216 0.1821 1.01602 0.0
C1284 C 0.49425 0.22631 1.01302 0.0
C1285 C 0.50279 0.24841 1.00258 0.0
C1286 C 0.52361 0.24635 0.99132 0.0
C1287 C 0.53146 0.26719 0.98142 0.0
C1288 C 0.51874 0.29024 0.98275 0.0
C1289 C 0.49818 0.29252 0.99401 0.0
C1290 C 0.49024 0.27174 1.00393 0.0
C1291 C 0.48984 0.19828 0.09061 0.0
C1292 C 0.47182 0.21564 0.09671 0.0
C1293 C 0.49521 0.19672 0.07284 0.0
C1294 C 0.48253 0.21232 0.06083 0.0
C1295 C 0.46572 0.23068 0.06702 0.0
C1296 C 0.46039 0.23231 0.08476 0.0
C1297 C 0.4852 0.20837 0.0418 0.0
C1298 C 0.49222 0.22886 0.03114 0.0
C1299 C 0.48013 0.18466 0.0341 0.0
C1300 C 0.47153 0.16253 0.04449 0.0
C1301 C 0.44945 0.1639 0.05462 0.0
C1302 C 0.44187 0.1432 0.06475 0.0
C1303 C 0.45606 0.12093 0.06472 0.0
C1304 C 0.47779 0.11927 0.05449 0.0
C1305 C 0.4855 0.13994 0.04436 0.0
H1306 H 0.45018 0.10494 0.07261 0.0
H1307 H 0.52484 0.30635 0.97507 0.0
H1308 H 0.83225 0.48394 0.44809 0.0
H1309 H 0.83248 0.4869 0.47973 0.0
H1310 H 0.75658 0.45753 0.48173 0.0
H1311 H 0.75633 0.45383 0.44997 0.0
H1312 H 0.77516 0.50443 0.50653 0.0
H1313 H 0.78656 0.41608 0.49035 0.0
H1314 H 0.80566 0.38254 0.47256 0.0
H1315 H 0.8797 0.40573 0.48879 0.0
H1316 H 0.86099 0.43971 0.50647 0.0
H1317 H 0.78249 0.46694 0.59714 0.0
H1318 H 0.77211 0.4713 0.56618 0.0
H1319 H 0.85139 0.46761 0.55341 0.0
H1320 H 0.86174 0.4628 0.58404 0.0
H1321 H 0.82637 0.43637 0.53383 0.0
H1322 H 0.81649 0.52327 0.55058 0.0
H1323 H 0.7992 0.55868 0.56751 0.0
H1324 H 0.72434 0.54049 0.55011 0.0
H1325 H 0.74117 0.50473 0.53325 0.0
C1326 C 0.81537 0.47858 0.45517 0.0
C1327 C 0.79431 0.46849 0.44648 0.0
C1328 C 0.81555 0.48031 0.47327 0.0
C1329 C 0.79457 0.47243 0.48302 0.0
C1330 C 0.77291 0.46383 0.47439 0.0
C1331 C 0.77285 0.46165 0.45626 0.0
C1332 C 0.79662 0.47053 0.50218 0.0
C1333 C 0.78594 0.48935 0.51261 0.0
C1334 C 0.81113 0.45115 0.50998 0.0
C1335 C 0.82241 0.43058 0.49955 0.0
C1336 C 0.80692 0.41418 0.48998 0.0
C1337 C 0.81767 0.39506 0.47995 0.0
C1338 C 0.84389 0.39205 0.4795 0.0
C1339 C 0.8594 0.40811 0.48913 0.0
C1340 C 0.84873 0.42729 0.49916 0.0
C1341 C 0.79768 0.4674 0.58772 0.0
C1342 C 0.82293 0.46437 0.59306 0.0
C1343 C 0.79174 0.46992 0.57002 0.0
C1344 C 0.81097 0.46976 0.5574 0.0
C1345 C 0.83619 0.46758 0.56283 0.0
C1346 C 0.84208 0.4649 0.5804 0.0
C1347 C 0.80514 0.47049 0.53846 0.0
C1348 C 0.81524 0.45138 0.52795 0.0
C1349 C 0.7902 0.48972 0.53067 0.0
C1350 C 0.78005 0.51114 0.54083 0.0
C1351 C 0.79632 0.52668 0.55049 0.0
C1352 C 0.78661 0.54684 0.56005 0.0
C1353 C 0.76068 0.55178 0.55993 0.0
C1354 C 0.74442 0.5366 0.55022 0.0
C1355 C 0.75403 0.5164 0.54065 0.0
H1356 H 0.7532 0.56741 0.56733 0.0
H1357 H 0.85218 0.37724 0.47173 0.0
H1358 H 0.50669 0.84793 0.08396 0.0
H1359 H 0.50493 0.8369 0.05326 0.0
H1360 H 0.5505 0.77084 0.06338 0.0
H1361 H 0.55259 0.7819 0.09415 0.0
H1362 H 0.5691 0.79813 0.03681 0.0
H1363 H 0.48793 0.76537 0.05247 0.0
H1364 H 0.44538 0.76632 0.06549 0.0
H1365 H 0.42439 0.82727 0.0313 0.0
H1366 H 0.46695 0.82692 1.01824 0.0
H1367 H 0.56498 0.75677 0.95029 0.0
H1368 H 0.55762 0.75692 0.98161 0.0
H1369 H 0.51044 0.82295 0.97603 0.0
H1370 H 0.51723 0.82258 0.94462 0.0
H1371 H 0.4918 0.79217 1.00066 0.0
H1372 H 0.57305 0.82804 0.98712 0.0
H1373 H 0.61569 0.82877 0.97421 0.0
H1374 H 0.63654 0.76379 1.00473 0.0
H1375 H 0.59388 0.76247 1.01765 0.0
C1376 C 0.51603 0.83083 0.07974 0.0
C1377 C 0.52984 0.81585 0.09155 0.0
C1378 C 0.51491 0.82448 0.06215 0.0
C1379 C 0.52746 0.80294 0.05598 0.0
C1380 C 0.54064 0.78753 0.06783 0.0
C1381 C 0.54173 0.79383 0.08544 0.0
C1382 C 0.52842 0.79767 0.03702 0.0
C1383 C 0.55217 0.79629 0.02898 0.0
C1384 C 0.50636 0.79603 0.02668 0.0
C1385 C 0.48072 0.79624 0.03447 0.0
C1386 C 0.47431 0.77911 0.04782 0.0
C1387 C 0.45018 0.77951 0.05519 0.0
C1388 C 0.43221 0.79688 0.04925 0.0
C1389 C 0.43833 0.81384 0.0359 0.0
C1390 C 0.46245 0.81352 0.02849 0.0
C1391 C 0.55269 0.77109 0.95567 0.0
C1392 C 0.54191 0.78982 0.94494 0.0
C1393 C 0.54859 0.77122 0.97361 0.0
C1394 C 0.53393 0.79028 0.98126 0.0
C1395 C 0.52193 0.80811 0.97047 0.0
C1396 C 0.52586 0.80789 0.95248 0.0
C1397 C 0.53247 0.79265 1.0005 0.0
C1398 C 0.50869 0.79365 1.00856 0.0
C1399 C 0.5545 0.79416 1.01089 0.0
C1400 C 0.5802 0.79498 1.0032 0.0
C1401 C 0.58667 0.81379 0.99098 0.0
C1402 C 0.61085 0.81433 0.98367 0.0
C1403 C 0.62879 0.79629 0.98861 0.0
C1404 C 0.62261 0.77772 1.0009 0.0
C1405 C 0.59844 0.77707 1.00822 0.0
H1406 H 0.6475 0.79673 0.98294 0.0
H1407 H 0.41354 0.79716 0.05497 0.0
H1408 H 0.208 0.36864 0.15581 0.0
H1409 H 0.23178 0.32883 0.15767 0.0
H1410 H 0.29469 0.36424 0.13143 0.0
H1411 H 0.27118 0.40364 0.12935 0.0
H1412 H 0.28582 0.31852 0.11844 0.0
H1413 H 0.29396 0.35517 0.17562 0.0
H1414 H 0.27781 0.37202 0.20327 0.0
H1415 H 0.2413 0.30113 0.21422 0.0
H1416 H 0.25698 0.28397 0.1865 0.0
H1417 H 0.39511 0.25064 0.13846 0.0
H1418 H 0.36149 0.28188 0.13652 0.0
H1419 H 0.31019 0.23024 0.16203 0.0
H1420 H 0.34409 0.19867 0.16425 0.0
H1421 H 0.30678 0.27855 0.17509 0.0
H1422 H 0.30434 0.24042 0.11913 0.0
H1423 H 0.32207 0.22426 0.09176 0.0
H1424 H 0.34886 0.29861 0.07855 0.0
H1425 H 0.33161 0.31517 0.10595 0.0
C1426 C 0.22687 0.36787 0.15039 0.0
C1427 C 0.23769 0.38935 0.14246 0.0
C1428 C 0.24046 0.34514 0.15152 0.0
C1429 C 0.2651 0.34357 0.14477 0.0
C1430 C 0.27571 0.36493 0.13669 0.0
C1431 C 0.26222 0.38753 0.13557 0.0
C1432 C 0.28024 0.31995 0.14611 0.0
C1433 C 0.29045 0.30984 0.13084 0.0
C1434 C 0.28571 0.30813 0.16223 0.0
C1435 C 0.27636 0.3184 0.1789 0.0
C1436 C 0.28231 0.34325 0.18386 0.0
C1437 C 0.27328 0.35284 0.19955 0.0
C1438 C 0.25847 0.33769 0.21046 0.0
C1439 C 0.25273 0.31287 0.20573 0.0
C1440 C 0.26169 0.3032 0.19004 0.0
C1441 C 0.3767 0.24577 0.14364 0.0
C1442 C 0.37231 0.22204 0.15146 0.0
C1443 C 0.35743 0.26368 0.14244 0.0
C1444 C 0.33321 0.2583 0.14892 0.0
C1445 C 0.32872 0.23474 0.15688 0.0
C1446 C 0.34807 0.2167 0.15808 0.0
C1447 C 0.31294 0.27765 0.14745 0.0
C1448 C 0.30175 0.28693 0.16267 0.0
C1449 C 0.30663 0.28883 0.13127 0.0
C1450 C 0.31678 0.27901 0.11466 0.0
C1451 C 0.31414 0.2533 0.11044 0.0
C1452 C 0.32409 0.24407 0.09491 0.0
C1453 C 0.33661 0.26039 0.08344 0.0
C1454 C 0.33915 0.28599 0.08745 0.0
C1455 C 0.32925 0.29532 0.10296 0.0
H1456 H 0.34432 0.2532 0.07143 0.0
H1457 H 0.25149 0.34515 0.22261 0.0
H1458 H 0.79741 0.35799 0.61499 0.0
H1459 H 0.76784 0.32269 0.61817 0.0
H1460 H 0.75421 0.34363 0.67139 0.0
H1461 H 0.78433 0.37836 0.66849 0.0
H1462 H 0.75418 0.29432 0.66913 0.0
H1463 H 0.71442 0.36217 0.63727 0.0
H1464 H 0.7101 0.39338 0.61351 0.0
H1465 H 0.70887 0.33345 0.57619 0.0
H1466 H 0.71352 0.30188 0.59974 0.0
H1467 H 0.62928 0.24968 0.68309 0.0
H1468 H 0.66812 0.27393 0.67907 0.0
H1469 H 0.67808 0.24109 0.62843 0.0
H1470 H 0.63904 0.21675 0.63232 0.0
H1471 H 0.68245 0.29252 0.62772 0.0
H1472 H 0.71703 0.2244 0.66131 0.0
H1473 H 0.71943 0.19458 0.68601 0.0
H1474 H 0.72827 0.2566 0.72118 0.0
H1475 H 0.72557 0.28683 0.69671 0.0
C1476 C 0.7884 0.35485 0.62745 0.0
C1477 C 0.79307 0.37116 0.64143 0.0
C1478 C 0.77137 0.33473 0.62922 0.0
C1479 C 0.75832 0.3308 0.64491 0.0
C1480 C 0.76393 0.34629 0.65913 0.0
C1481 C 0.78117 0.36621 0.65744 0.0
C1482 C 0.73786 0.31153 0.64632 0.0
C1483 C 0.73843 0.29403 0.66013 0.0
C1484 C 0.71747 0.31076 0.6344 0.0
C1485 C 0.71462 0.3297 0.62024 0.0
C1486 C 0.71342 0.35567 0.62399 0.0
C1487 C 0.71088 0.37341 0.61056 0.0
C1488 C 0.7093 0.36541 0.59334 0.0
C1489 C 0.71016 0.33962 0.58953 0.0
C1490 C 0.71274 0.3218 0.60291 0.0
C1491 C 0.63986 0.24735 0.67117 0.0
C1492 C 0.63102 0.23128 0.65802 0.0
C1493 C 0.66216 0.26116 0.66892 0.0
C1494 C 0.67613 0.2592 0.6535 0.0
C1495 C 0.66763 0.24283 0.64046 0.0
C1496 C 0.64537 0.22886 0.64274 0.0
C1497 C 0.69866 0.27552 0.65062 0.0
C1498 C 0.69841 0.29253 0.63656 0.0
C1499 C 0.71913 0.27604 0.66243 0.0
C1500 C 0.72092 0.25789 0.67717 0.0
C1501 C 0.71931 0.23169 0.67432 0.0
C1502 C 0.72075 0.21471 0.68828 0.0
C1503 C 0.72396 0.22369 0.70516 0.0
C1504 C 0.72578 0.24967 0.7081 0.0
C1505 C 0.72433 0.26674 0.69419 0.0
H1506 H 0.72507 0.21051 0.71595 0.0
H1507 H 0.70733 0.37918 0.58297 0.0
H1508 H 0.78535 0.64025 0.12831 0.0
H1509 H 0.75759 0.6769 0.12547 0.0
H1510 H 0.75295 0.68221 0.18125 0.0
H1511 H 0.78027 0.64519 0.1842 0.0
H1512 H 0.70762 0.68489 0.1678 0.0
H1513 H 0.78609 0.72628 0.15618 0.0
H1514 H 0.82731 0.73302 0.14196 0.0
H1515 H 0.79054 0.74113 0.09256 0.0
H1516 H 0.7491 0.7341 0.10645 0.0
H1517 H 0.63595 0.79758 0.16542 0.0
H1518 H 0.67218 0.76978 0.17044 0.0
H1519 H 0.67722 0.75552 0.11549 0.0
H1520 H 0.64124 0.78348 0.11031 0.0
H1521 H 0.72405 0.75971 0.13021 0.0
H1522 H 0.64631 0.7147 0.14173 0.0
H1523 H 0.60506 0.70813 0.15597 0.0
H1524 H 0.64113 0.70699 0.20589 0.0
H1525 H 0.68259 0.71391 0.19195 0.0
C1526 C 0.77871 0.6494 0.13999 0.0
C1527 C 0.78503 0.63972 0.15649 0.0
C1528 C 0.76289 0.67047 0.13835 0.0
C1529 C 0.75329 0.68252 0.15315 0.0
C1530 C 0.76008 0.67326 0.16964 0.0
C1531 C 0.77579 0.65211 0.17129 0.0
C1532 C 0.73492 0.70371 0.15143 0.0
C1533 C 0.71147 0.70147 0.15985 0.0
C1534 C 0.73961 0.72515 0.14075 0.0
C1535 C 0.76449 0.72945 0.13235 0.0
C1536 C 0.7868 0.72931 0.14227 0.0
C1537 C 0.81021 0.73322 0.13427 0.0
C1538 C 0.81155 0.73745 0.11636 0.0
C1539 C 0.78947 0.73784 0.10643 0.0
C1540 C 0.76602 0.73392 0.11436 0.0
C1541 C 0.64501 0.78887 0.15436 0.0
C1542 C 0.63551 0.79258 0.13747 0.0
C1543 C 0.66567 0.7729 0.15726 0.0
C1544 C 0.67716 0.76024 0.14337 0.0
C1545 C 0.66861 0.76501 0.12641 0.0
C1546 C 0.64796 0.78097 0.12349 0.0
C1547 C 0.69689 0.74075 0.14654 0.0
C1548 C 0.72045 0.74325 0.13833 0.0
C1549 C 0.69236 0.71954 0.15744 0.0
C1550 C 0.6675 0.7151 0.16581 0.0
C1551 C 0.64542 0.71323 0.15575 0.0
C1552 C 0.62201 0.70942 0.16376 0.0
C1553 C 0.62046 0.70723 0.18182 0.0
C1554 C 0.64235 0.70874 0.1919 0.0
C1555 C 0.66581 0.71259 0.18396 0.0
H1556 H 0.60232 0.70429 0.18801 0.0
H1557 H 0.82969 0.74047 0.1102 0.0
H1558 H 0.22957 0.64564 0.60992 0.0
H1559 H 0.25845 0.68125 0.61352 0.0
H1560 H 0.25093 0.67515 0.66914 0.0
H1561 H 0.22173 0.63962 0.66567 0.0
H1562 H 0.25304 0.72477 0.65831 0.0
H1563 H 0.30049 0.64848 0.64947 0.0
H1564 H 0.31249 0.60939 0.63428 0.0
H1565 H 0.33237 0.65269 0.58891 0.0
H1566 H 0.32014 0.69204 0.60375 0.0
H1567 H 0.36844 0.78701 0.68124 0.0
H1568 H 0.33243 0.7585 0.67772 0.0
H1569 H 0.3431 0.76002 0.62218 0.0
H1570 H 0.3794 0.78803 0.62562 0.0
H1571 H 0.3385 0.71323 0.63312 0.0
H1572 H 0.29238 0.79003 0.64243 0.0
H1573 H 0.28045 0.82898 0.6578 0.0
H1574 H 0.25838 0.78508 0.70242 0.0
H1575 H 0.27051 0.74587 0.68739 0.0
C1576 C 0.23374 0.65205 0.62293 0.0
C1577 C 0.22352 0.63957 0.63751 0.0
C1578 C 0.25034 0.67239 0.62496 0.0
C1579 C 0.25721 0.68058 0.64161 0.0
C1580 C 0.24598 0.66909 0.65618 0.0
C1581 C 0.22932 0.64873 0.65416 0.0
C1582 C 0.27727 0.69999 0.64379 0.0
C1583 C 0.27181 0.72219 0.65296 0.0
C1584 C 0.30165 0.69679 0.63658 0.0
C1585 C 0.30915 0.67317 0.62766 0.0
C1586 C 0.30724 0.64965 0.63621 0.0
C1587 C 0.31411 0.62745 0.62767 0.0
C1588 C 0.32313 0.62855 0.61062 0.0
C1589 C 0.32535 0.65186 0.6021 0.0
C1590 C 0.31846 0.67412 0.61057 0.0
C1591 C 0.36292 0.78155 0.66826 0.0
C1592 C 0.37688 0.78976 0.65372 0.0
C1593 C 0.34224 0.7653 0.66626 0.0
C1594 C 0.3349 0.75718 0.64966 0.0
C1595 C 0.3484 0.76595 0.63512 0.0
C1596 C 0.36914 0.78204 0.63711 0.0
C1597 C 0.31429 0.73829 0.64748 0.0
C1598 C 0.3197 0.71602 0.63839 0.0
C1599 C 0.28993 0.74148 0.65478 0.0
C1600 C 0.28259 0.76503 0.66384 0.0
C1601 C 0.28518 0.78869 0.65557 0.0
C1602 C 0.27834 0.81082 0.66421 0.0
C1603 C 0.26872 0.80951 0.68109 0.0
C1604 C 0.26586 0.78607 0.68935 0.0
C1605 C 0.27269 0.76388 0.68077 0.0
H1606 H 0.26344 0.82667 0.68776 0.0
H1607 H 0.32844 0.61134 0.60404 0.0
H1608 H 0.36003 0.80445 0.42337 0.0
H1609 H 0.32497 0.77447 0.42097 0.0
H1610 H 0.35485 0.74831 0.37215 0.0
H1611 H 0.38919 0.77886 0.37411 0.0
H1612 H 0.30651 0.7485 0.36996 0.0
H1613 H 0.36554 0.71715 0.41253 0.0
H1614 H 0.39116 0.71863 0.43924 0.0
H1615 H 0.32386 0.72704 0.46981 0.0
H1616 H 0.29785 0.72592 0.44323 0.0
H1617 H 0.26889 0.61966 0.36824 0.0
H1618 H 0.29175 0.65966 0.37057 0.0
H1619 H 0.24056 0.68384 0.41071 0.0
H1620 H 0.21719 0.64381 0.40824 0.0
H1621 H 0.294 0.68803 0.41877 0.0
H1622 H 0.23531 0.71241 0.37435 0.0
H1623 H 0.21222 0.7076 0.34678 0.0
H1624 H 0.28227 0.7086 0.31865 0.0
H1625 H 0.30582 0.71304 0.34608 0.0
C1626 C 0.35892 0.79254 0.41201 0.0
C1627 C 0.37753 0.79393 0.399 0.0
C1628 C 0.33893 0.77528 0.4107 0.0
C1629 C 0.33749 0.75867 0.39656 0.0
C1630 C 0.35549 0.76082 0.38322 0.0
C1631 C 0.3752 0.77832 0.38438 0.0
C1632 C 0.31808 0.73824 0.3959 0.0
C1633 C 0.30389 0.73525 0.38063 0.0
C1634 C 0.31421 0.7211 0.4099 0.0
C1635 C 0.32979 0.72178 0.42589 0.0
C1636 C 0.35623 0.71951 0.42494 0.0
C1637 C 0.37081 0.72025 0.44005 0.0
C1638 C 0.35915 0.72302 0.45621 0.0
C1639 C 0.33287 0.72496 0.45728 0.0
C1640 C 0.3182 0.72427 0.4422 0.0
C1641 C 0.26232 0.63357 0.37746 0.0
C1642 C 0.24125 0.6286 0.38807 0.0
C1643 C 0.27535 0.65645 0.37872 0.0
C1644 C 0.26778 0.67473 0.39076 0.0
C1645 C 0.24663 0.66997 0.4013 0.0
C1646 C 0.23327 0.64719 0.39983 0.0
C1647 C 0.2829 0.69816 0.39277 0.0
C1648 C 0.29632 0.70162 0.40826 0.0
C1649 C 0.28646 0.71538 0.37885 0.0
C1650 C 0.27234 0.71289 0.3623 0.0
C1651 C 0.24581 0.71141 0.3623 0.0
C1652 C 0.23263 0.70878 0.34669 0.0
C1653 C 0.24577 0.70775 0.33098 0.0
C1654 C 0.27211 0.70939 0.33084 0.0
C1655 C 0.28539 0.712 0.34641 0.0
H1656 H 0.23553 0.70571 0.31891 0.0
H1657 H 0.37047 0.72358 0.4679 0.0
H1658 H 0.36301 0.20646 0.88892 0.0
H1659 H 0.32302 0.22994 0.88785 0.0
H1660 H 0.35949 0.29414 0.91137 0.0
H1661 H 0.39907 0.27087 0.91271 0.0
H1662 H 0.31461 0.28608 0.92585 0.0
H1663 H 0.348 0.29119 0.86735 0.0
H1664 H 0.36335 0.27359 0.83972 0.0
H1665 H 0.29221 0.23615 0.8322 0.0
H1666 H 0.27656 0.25328 0.85992 0.0
H1667 H 0.2444 0.39384 0.90476 0.0
H1668 H 0.27576 0.36048 0.90743 0.0
H1669 H 0.22477 0.30796 0.88299 0.0
H1670 H 0.19319 0.34167 0.87989 0.0
H1671 H 0.27159 0.30372 0.86986 0.0
H1672 H 0.23649 0.30485 0.92701 0.0
H1673 H 0.22203 0.32399 0.95438 0.0
H1674 H 0.29713 0.35087 0.96445 0.0
H1675 H 0.31198 0.33225 0.93702 0.0
C1676 C 0.36243 0.22554 0.89392 0.0
C1677 C 0.38427 0.23679 0.90086 0.0
C1678 C 0.3396 0.23897 0.89324 0.0
C1679 C 0.33827 0.2639 0.89943 0.0
C1680 C 0.35998 0.27493 0.90657 0.0
C1681 C 0.38269 0.26159 0.90725 0.0
C1682 C 0.31456 0.27894 0.89837 0.0
C1683 C 0.30525 0.29001 0.9136 0.0
C1684 C 0.30186 0.28348 0.88247 0.0
C1685 C 0.31123 0.27324 0.8658 0.0
C1686 C 0.33571 0.27903 0.85987 0.0
C1687 C 0.34445 0.26918 0.84419 0.0
C1688 C 0.32879 0.25369 0.83424 0.0
C1689 C 0.30434 0.2481 0.83994 0.0
C1690 C 0.29552 0.25788 0.85563 0.0
C1691 C 0.23967 0.37519 0.90002 0.0
C1692 C 0.21617 0.37045 0.89215 0.0
C1693 C 0.25765 0.35604 0.90165 0.0
C1694 C 0.25252 0.33155 0.89569 0.0
C1695 C 0.22911 0.32668 0.88778 0.0
C1696 C 0.21105 0.34594 0.88606 0.0
C1697 C 0.2721 0.31148 0.89729 0.0
C1698 C 0.28062 0.29943 0.88218 0.0
C1699 C 0.28419 0.30614 0.9133 0.0
C1700 C 0.27533 0.31722 0.9299 0.0
C1701 C 0.2499 0.31497 0.93501 0.0
C1702 C 0.24163 0.32572 0.95054 0.0
C1703 C 0.25865 0.33864 0.96114 0.0
C1704 C 0.28397 0.34084 0.95623 0.0
C1705 C 0.29233 0.33016 0.9407 0.0
H1706 H 0.25226 0.3469 0.97317 0.0
H1707 H 0.33559 0.24608 0.8221 0.0
H1708 H 0.62951 0.23748 0.379 0.0
H1709 H 0.66466 0.26679 0.37573 0.0
H1710 H 0.69489 0.24193 0.42501 0.0
H1711 H 0.6589 0.21322 0.42872 0.0
H1712 H 0.69698 0.29024 0.42385 0.0
H1713 H 0.72331 0.22691 0.38422 0.0
H1714 H 0.71935 0.19668 0.36015 0.0
H1715 H 0.70425 0.2578 0.32466 0.0
H1716 H 0.70778 0.28839 0.34855 0.0
H1717 H 0.80302 0.37141 0.40868 0.0
H1718 H 0.77922 0.33197 0.41262 0.0
H1719 H 0.73242 0.35137 0.36868 0.0
H1720 H 0.75616 0.39047 0.36454 0.0
H1721 H 0.74471 0.30134 0.36887 0.0
H1722 H 0.71322 0.36326 0.41016 0.0
H1723 H 0.71861 0.3931 0.43437 0.0
H1724 H 0.74565 0.33279 0.46703 0.0
H1725 H 0.74072 0.30266 0.44293 0.0
C1726 C 0.64379 0.23795 0.38906 0.0
C1727 C 0.6414 0.22294 0.40411 0.0
C1728 C 0.66405 0.25468 0.38712 0.0
C1729 C 0.68281 0.25637 0.39997 0.0
C1730 C 0.68074 0.24098 0.41488 0.0
C1731 C 0.6602 0.2245 0.41696 0.0
C1732 C 0.70358 0.27531 0.39825 0.0
C1733 C 0.70779 0.29224 0.41194 0.0
C1734 C 0.71763 0.27826 0.38268 0.0
C1735 C 0.71567 0.25994 0.36822 0.0
C1736 C 0.719 0.2339 0.3713 0.0
C1737 C 0.71685 0.2167 0.35768 0.0
C1738 C 0.71152 0.22531 0.34089 0.0
C1739 C 0.70838 0.25116 0.33767 0.0
C1740 C 0.7105 0.26844 0.35125 0.0
C1741 C 0.78787 0.36711 0.39973 0.0
C1742 C 0.78138 0.38419 0.38637 0.0
C1743 C 0.77422 0.34461 0.40204 0.0
C1744 C 0.75384 0.33886 0.39106 0.0
C1745 C 0.74805 0.3554 0.37731 0.0
C1746 C 0.7616 0.37783 0.37501 0.0
C1747 C 0.73754 0.31639 0.39427 0.0
C1748 C 0.73418 0.2989 0.38085 0.0
C1749 C 0.72446 0.31277 0.41013 0.0
C1750 C 0.72685 0.33078 0.42471 0.0
C1751 C 0.72043 0.3564 0.42248 0.0
C1752 C 0.7234 0.37336 0.43618 0.0
C1753 C 0.73254 0.36487 0.45221 0.0
C1754 C 0.73861 0.33936 0.4546 0.0
C1755 C 0.73572 0.32233 0.44093 0.0
H1756 H 0.73487 0.37803 0.46278 0.0
H1757 H 0.70984 0.21196 0.33037 0.0
H1758 H 0.78842 0.64521 0.93164 0.0
H1759 H 0.75971 0.68112 0.92834 0.0
H1760 H 0.75444 0.66685 0.87338 0.0
H1761 H 0.78368 0.63141 0.87649 0.0
H1762 H 0.75456 0.71605 0.87874 0.0
H1763 H 0.70944 0.64481 0.90268 0.0
H1764 H 0.70108 0.61049 0.92377 0.0
H1765 H 0.69391 0.66486 0.96462 0.0
H1766 H 0.70257 0.6995 0.94379 0.0
H1767 H 0.63284 0.76498 0.8588 0.0
H1768 H 0.67071 0.73963 0.86386 0.0
H1769 H 0.67304 0.76473 0.91698 0.0
H1770 H 0.635 0.79016 0.91204 0.0
H1771 H 0.67651 0.71336 0.9144 0.0
H1772 H 0.71711 0.78518 0.88858 0.0
H1773 H 0.724 0.81842 0.86647 0.0
H1774 H 0.73794 0.76181 0.82796 0.0
H1775 H 0.73078 0.72819 0.84978 0.0
C1776 C 0.78145 0.64993 0.91881 0.0
C1777 C 0.78817 0.63526 0.90436 0.0
C1778 C 0.76492 0.67041 0.91695 0.0
C1779 C 0.75445 0.67639 0.90067 0.0
C1780 C 0.76216 0.66258 0.88609 0.0
C1781 C 0.77887 0.64225 0.88791 0.0
C1782 C 0.73444 0.69604 0.89891 0.0
C1783 C 0.73743 0.71536 0.88646 0.0
C1784 C 0.71223 0.69548 0.90919 0.0
C1785 C 0.70695 0.6747 0.92172 0.0
C1786 C 0.70627 0.64942 0.91618 0.0
C1787 C 0.70145 0.62992 0.92808 0.0
C1788 C 0.69705 0.63548 0.94553 0.0
C1789 C 0.69738 0.66058 0.9511 0.0
C1790 C 0.70223 0.68015 0.93926 0.0
C1791 C 0.64157 0.7654 0.87151 0.0
C1792 C 0.63086 0.77958 0.88502 0.0
C1793 C 0.66331 0.75097 0.87436 0.0
C1794 C 0.67482 0.75039 0.89077 0.0
C1795 C 0.6645 0.76495 0.9042 0.0
C1796 C 0.64282 0.77955 0.90133 0.0
C1797 C 0.69654 0.73323 0.89415 0.0
C1798 C 0.69381 0.71428 0.90686 0.0
C1799 C 0.7188 0.73398 0.88396 0.0
C1800 C 0.72322 0.75416 0.87081 0.0
C1801 C 0.72145 0.77981 0.87537 0.0
C1802 C 0.72545 0.79872 0.86289 0.0
C1803 C 0.73136 0.79223 0.84581 0.0
C1804 C 0.73335 0.76681 0.84119 0.0
C1805 C 0.72936 0.74782 0.85362 0.0
H1806 H 0.73444 0.80691 0.83617 0.0
H1807 H 0.69332 0.62036 0.95473 0.0
loop_
_geom_bond_atom_site_label_1
_geom_bond_atom_site_label_2
_geom_bond_distance
_geom_bond_site_symmetry_2
_ccdc_geom_bond_type
Mg0 O7 2.141 . S
Mg0 O8 2.048 . S
Mg0 O9 2.048 . S
Mg0 O12 2.141 . S
C1 O2 1.313 . S
C1 O8 1.195 . S
O2 C1 1.313 . S
C3 O4 1.245 . S
C3 O12 1.289 . S
O4 C3 1.245 . S
C5 O6 1.245 . S
C5 O7 1.289 . S
O6 C5 1.245 . S
O7 Mg0 2.141 . S
O7 C5 1.289 . S
O8 Mg0 2.048 . S
O8 C1 1.195 . S
O9 Mg0 2.048 . S
O9 C10 1.195 . S
C10 O9 1.195 . S
C10 O11 1.313 . S
O11 C10 1.313 . S
O12 Mg0 2.141 . S
O12 C3 1.289 . S
Mg13 O20 2.141 . S
Mg13 O21 2.048 . S
Mg13 O22 2.048 . S
Mg13 O25 2.141 . S
C14 O15 1.313 . S
C14 O21 1.195 . S
O15 C14 1.313 . S
C16 O17 1.245 . S
C16 O25 1.289 . S
O17 C16 1.245 . S
C18 O19 1.245 . S
C18 O20 1.289 . S
O19 C18 1.245 . S
O20 Mg13 2.141 . S
O20 C18 1.289 . S
O21 Mg13 2.048 . S
O21 C14 1.195 . S
O22 Mg13 2.048 . S
O22 C23 1.195 . S
C23 O22 1.195 . S
C23 O24 1.313 . S
O24 C23 1.313 . S
O25 Mg13 2.141 . S
O25 C16 1.289 . S
Mg26 O33 2.141 . S
Mg26 O34 2.048 . S
Mg26 O35 2.048 . S
Mg26 O38 2.141 . S
C27 O28 1.313 . S
C27 O34 1.195 . S
O28 C27 1.313 . S
C29 O30 1.245 . S
C29 O38 1.289 . S
O30 C29 1.245 . S
C31 O32 1.245 . S
C31 O33 1.289 . S
O32 C31 1.245 . S
O33 Mg26 2.141 . S
O33 C31 1.289 . S
O34 Mg26 2.048 . S
O34 C27 1.195 . S
O35 Mg26 2.048 . S
O35 C36 1.195 . S
C36 O35 1.195 . S
C36 O37 1.313 . S
O37 C36 1.313 . S
O38 Mg26 2.141 . S
O38 C29 1.289 . S
Mg39 O46 2.141 . S
Mg39 O47 2.048 . S
Mg39 O48 2.048 . S
Mg39 O51 2.141 . S
C40 O41 1.313 . S
C40 O47 1.195 . S
O41 C40 1.313 . S
C42 O43 1.245 . S
C42 O51 1.289 . S
O43 C42 1.245 . S
C44 O45 1.245 . S
C44 O46 1.289 . S
O45 C44 1.245 . S
O46 Mg39 2.141 . S
O46 C44 1.289 . S
O47 Mg39 2.048 . S
O47 C40 1.195 . S
O48 Mg39 2.048 . S
O48 C49 1.195 . S
C49 O48 1.195 . S
C49 O50 1.313 . S
O50 C49 1.313 . S
O51 Mg39 2.141 . S
O51 C42 1.289 . S
Mg52 O59 2.141 . S
Mg52 O60 2.048 . S
Mg52 O61 2.048 . S
Mg52 O64 2.141 . S
C53 O54 1.313 . S
C53 O60 1.195 . S
O54 C53 1.313 . S
C55 O56 1.245 . S
C55 O64 1.289 . S
O56 C55 1.245 . S
C57 O58 1.245 . S
C57 O59 1.289 . S
O58 C57 1.245 . S
O59 Mg52 2.141 . S
O59 C57 1.289 . S
O60 Mg52 2.048 . S
O60 C53 1.195 . S
O61 Mg52 2.048 . S
O61 C62 1.195 . S
C62 O61 1.195 . S
C62 O63 1.313 . S
O63 C62 1.313 . S
O64 Mg52 2.141 . S
O64 C55 1.289 . S
Mg65 O72 2.141 . S
Mg65 O73 2.048 . S
Mg65 O74 2.048 . S
Mg65 O77 2.141 . S
C66 O67 1.313 . S
C66 O73 1.195 . S
O67 C66 1.313 . S
C68 O69 1.245 . S
C68 O77 1.289 . S
O69 C68 1.245 . S
C70 O71 1.245 . S
C70 O72 1.289 . S
O71 C70 1.245 . S
O72 Mg65 2.141 . S
O72 C70 1.289 . S
O73 Mg65 2.048 . S
O73 C66 1.195 . S
O74 Mg65 2.048 . S
O74 C75 1.195 . S
C75 O74 1.195 . S
C75 O76 1.313 . S
O76 C75 1.313 . S
O77 Mg65 2.141 . S
O77 C68 1.289 . S
Mg78 O85 2.141 . S
Mg78 O86 2.048 . S
Mg78 O87 2.048 . S
Mg78 O90 2.141 . S
C79 O80 1.313 . S
C79 O86 1.195 . S
O80 C79 1.313 . S
C81 O82 1.245 . S
C81 O90 1.289 . S
O82 C81 1.245 . S
C83 O84 1.245 . S
C83 O85 1.289 . S
O84 C83 1.245 . S
O85 Mg78 2.141 . S
O85 C83 1.289 . S
O86 Mg78 2.048 . S
O86 C79 1.195 . S
O87 Mg78 2.048 . S
O87 C88 1.195 . S
C88 O87 1.195 . S
C88 O89 1.313 . S
O89 C88 1.313 . S
O90 Mg78 2.141 . S
O90 C81 1.289 . S
Mg91 O98 2.141 . S
Mg91 O99 2.048 . S
Mg91 O100 2.048 . S
Mg91 O103 2.141 . S
C92 O93 1.313 . S
C92 O99 1.195 . S
O93 C92 1.313 . S
C94 O95 1.245 . S
C94 O103 1.289 . S
O95 C94 1.245 . S
C96 O97 1.245 . S
C96 O98 1.289 . S
O97 C96 1.245 . S
O98 Mg91 2.141 . S
O98 C96 1.289 . S
O99 Mg91 2.048 . S
O99 C92 1.195 . S
O100 Mg91 2.048 . S
O100 C101 1.195 . S
C101 O100 1.195 . S
C101 O102 1.313 . S
O102 C101 1.313 . S
O103 Mg91 2.141 . S
O103 C94 1.289 . S
Mg104 O111 2.141 . S
Mg104 O112 2.048 . S
Mg104 O113 2.048 . S
Mg104 O116 2.141 . S
C105 O106 1.313 . S
C105 O112 1.195 . S
O106 C105 1.313 . S
C107 O108 1.245 . S
C107 O116 1.289 . S
O108 C107 1.245 . S
C109 O110 1.245 . S
C109 O111 1.289 . S
O110 C109 1.245 . S
O111 Mg104 2.141 . S
O111 C109 1.289 . S
O112 Mg104 2.048 . S
O112 C105 1.195 . S
O113 Mg104 2.048 . S
O113 C114 1.195 . S
C114 O113 1.195 . S
C114 O115 1.313 . S
O115 C114 1.313 . S
O116 Mg104 2.141 . S
O116 C107 1.289 . S
Mg117 O124 2.141 . S
Mg117 O125 2.048 . S
Mg117 O126 2.048 . S
Mg117 O129 2.141 . S
C118 O119 1.313 . S
C118 O125 1.195 . S
O119 C118 1.313 . S
C120 O121 1.245 . S
C120 O129 1.289 . S
O121 C120 1.245 . S
C122 O123 1.245 . S
C122 O124 1.289 . S
O123 C122 1.245 . S
O124 Mg117 2.141 . S
O124 C122 1.289 . S
O125 Mg117 2.048 . S
O125 C118 1.195 . S
O126 Mg117 2.048 . S
O126 C127 1.195 . S
C127 O126 1.195 . S
C127 O128 1.313 . S
O128 C127 1.313 . S
O129 Mg117 2.141 . S
O129 C120 1.289 . S
Mg130 O137 2.141 . S
Mg130 O138 2.048 . S
Mg130 O139 2.048 . S
Mg130 O142 2.141 . S
C131 O132 1.313 . S
C131 O138 1.195 . S
O132 C131 1.313 . S
C133 O134 1.245 . S
C133 O142 1.289 . S
O134 C133 1.245 . S
C135 O136 1.245 . S
C135 O137 1.289 . S
O136 C135 1.245 . S
O137 Mg130 2.141 . S
O137 C135 1.289 . S
O138 Mg130 2.048 . S
O138 C131 1.195 . S
O139 Mg130 2.048 . S
O139 C140 1.195 . S
C140 O139 1.195 . S
C140 O141 1.313 . S
O141 C140 1.313 . S
O142 Mg130 2.141 . S
O142 C133 1.289 . S
Mg143 O150 2.141 . S
Mg143 O151 2.048 . S
Mg143 O152 2.048 . S
Mg143 O155 2.141 . S
C144 O145 1.313 . S
C144 O151 1.195 . S
O145 C144 1.313 . S
C146 O147 1.245 . S
C146 O155 1.289 . S
O147 C146 1.245 . S
C148 O149 1.245 . S
C148 O150 1.289 . S
O149 C148 1.245 . S
O150 Mg143 2.141 . S
O150 C148 1.289 . S
O151 Mg143 2.048 . S
O151 C144 1.195 . S
O152 Mg143 2.048 . S
O152 C153 1.195 . S
C153 O152 1.195 . S
C153 O154 1.313 . S
O154 C153 1.313 . S
O155 Mg143 2.141 . S
O155 C146 1.289 . S
Mg156 O163 2.141 . S
Mg156 O164 2.048 . S
Mg156 O165 2.048 . S
Mg156 O168 2.141 . S
C157 O158 1.313 . S
C157 O164 1.195 . S
O158 C157 1.313 . S
C159 O160 1.245 . S
C159 O168 1.289 . S
O160 C159 1.245 . S
C161 O162 1.245 . S
C161 O163 1.289 . S
O162 C161 1.245 . S
O163 Mg156 2.141 . S
O163 C161 1.289 . S
O164 Mg156 2.048 . S
O164 C157 1.195 . S
O165 Mg156 2.048 . S
O165 C166 1.195 . S
C166 O165 1.195 . S
C166 O167 1.313 . S
O167 C166 1.313 . S
O168 Mg156 2.141 . S
O168 C159 1.289 . S
Mg169 O176 2.141 . S
Mg169 O177 2.048 . S
Mg169 O178 2.048 . S
Mg169 O181 2.141 . S
C170 O171 1.313 . S
C170 O177 1.195 . S
O171 C170 1.313 . S
C172 O173 1.245 . S
C172 O181 1.289 . S
O173 C172 1.245 . S
C174 O175 1.245 . S
C174 O176 1.289 . S
O175 C174 1.245 . S
O176 Mg169 2.141 . S
O176 C174 1.289 . S
O177 Mg169 2.048 . S
O177 C170 1.195 . S
O178 Mg169 2.048 . S
O178 C179 1.195 . S
C179 O178 1.195 . S
C179 O180 1.313 . S
O180 C179 1.313 . S
O181 Mg169 2.141 . S
O181 C172 1.289 . S
Mg182 O189 2.141 . S
Mg182 O190 2.048 . S
Mg182 O191 2.048 . S
Mg182 O194 2.141 . S
C183 O184 1.313 . S
C183 O190 1.195 . S
O184 C183 1.313 . S
C185 O186 1.245 . S
C185 O194 1.289 . S
O186 C185 1.245 . S
C187 O188 1.245 . S
C187 O189 1.289 . S
O188 C187 1.245 . S
O189 Mg182 2.141 . S
O189 C187 1.289 . S
O190 Mg182 2.048 . S
O190 C183 1.195 . S
O191 Mg182 2.048 . S
O191 C192 1.195 . S
C192 O191 1.195 . S
C192 O193 1.313 . S
O193 C192 1.313 . S
O194 Mg182 2.141 . S
O194 C185 1.289 . S
Mg195 O202 2.141 . S
Mg195 O203 2.048 . S
Mg195 O204 2.048 . S
Mg195 O207 2.141 . S
C196 O197 1.313 . S
C196 O203 1.195 . S
O197 C196 1.313 . S
C198 O199 1.245 . S
C198 O207 1.289 . S
O199 C198 1.245 . S
C200 O201 1.245 . S
C200 O202 1.289 . S
O201 C200 1.245 . S
O202 Mg195 2.141 . S
O202 C200 1.289 . S
O203 Mg195 2.048 . S
O203 C196 1.195 . S
O204 Mg195 2.048 . S
O204 C205 1.195 . S
C205 O204 1.195 . S
C205 O206 1.313 . S
O206 C205 1.313 . S
O207 Mg195 2.141 . S
O207 C198 1.289 . S
H208 C226 0.951 . S
H209 C228 0.951 . S
H210 C230 0.950 . S
H211 C231 0.950 . S
H212 C233 0.950 . S
H213 C236 0.950 . S
H214 C237 0.950 . S
H215 C239 0.950 . S
H216 C240 0.950 . S
H217 C241 0.951 . S
H218 C243 0.951 . S
H219 C245 0.950 . S
H220 C246 0.950 . S
H221 C248 0.950 . S
H222 C251 0.950 . S
H223 C252 0.950 . S
H224 C254 0.950 . S
H225 C255 0.950 . S
C226 H208 0.951 . S
C226 C227 1.366 . S
C226 C228 1.388 . S
C227 C226 1.366 . S
C227 C231 1.385 . S
C228 H209 0.951 . S
C228 C226 1.388 . S
C228 C229 1.366 . S
C229 C228 1.366 . S
C229 C230 1.414 . S
C229 C232 1.499 . S
C230 H210 0.950 . S
C230 C229 1.414 . S
C230 C231 1.374 . S
C231 H211 0.950 . S
C231 C227 1.385 . S
C231 C230 1.374 . S
C232 C229 1.499 . S
C232 C233 1.373 . S
C232 C234 1.389 . S
C233 H212 0.950 . S
C233 C232 1.373 . S
C233 C249 1.377 1_455 S
C234 C232 1.389 . S
C234 C235 1.524 . S
C234 C248 1.377 1_455 S
C235 C234 1.524 . S
C235 C236 1.397 . S
C235 C240 1.363 . S
C236 H213 0.950 . S
C236 C235 1.397 . S
C236 C237 1.334 . S
C237 H214 0.950 . S
C237 C236 1.334 . S
C237 C238 1.287 . S
C238 C237 1.287 . S
C238 C239 1.524 . S
C238 H257 0.913 . S
C239 H215 0.950 . S
C239 C238 1.524 . S
C239 C240 1.415 . S
C240 H216 0.950 . S
C240 C235 1.363 . S
C240 C239 1.415 . S
C241 H217 0.951 . S
C241 C242 1.366 . S
C241 C243 1.388 . S
C242 C241 1.366 . S
C242 C246 1.385 . S
C243 H218 0.951 . S
C243 C241 1.388 . S
C243 C244 1.366 . S
C244 C243 1.366 . S
C244 C245 1.414 . S
C244 C247 1.499 . S
C245 H219 0.950 . S
C245 C244 1.414 . S
C245 C246 1.374 . S
C246 H220 0.950 . S
C246 C242 1.385 . S
C246 C245 1.374 . S
C247 C244 1.499 . S
C247 C248 1.373 . S
C247 C249 1.389 . S
C248 H221 0.950 . S
C248 C234 1.377 1_655 S
C248 C247 1.373 . S
C249 C233 1.377 1_655 S
C249 C247 1.389 . S
C249 C250 1.524 . S
C250 C249 1.524 . S
C250 C251 1.397 . S
C250 C255 1.363 . S
C251 H222 0.950 . S
C251 C250 1.397 . S
C251 C252 1.334 . S
C252 H223 0.950 . S
C252 C251 1.334 . S
C252 C253 1.287 . S
C253 C252 1.287 . S
C253 C254 1.524 . S
C253 H256 0.999 . S
C254 H224 0.950 . S
C254 C253 1.524 . S
C254 C255 1.415 . S
C255 H225 0.950 . S
C255 C250 1.363 . S
C255 C254 1.415 . S
H256 C253 0.999 . S
H257 C238 0.913 . S
H258 C276 0.951 . S
H259 C278 0.951 . S
H260 C280 0.950 . S
H261 C281 0.950 . S
H262 C283 0.950 . S
H263 C286 0.950 . S
H264 C287 0.950 . S
H265 C289 0.950 . S
H266 C290 0.950 . S
H267 C291 0.951 . S
H268 C293 0.951 . S
H269 C295 0.950 . S
H270 C296 0.950 . S
H271 C298 0.950 . S
H272 C301 0.950 . S
H273 C302 0.950 . S
H274 C304 0.950 . S
H275 C305 0.950 . S
C276 H258 0.951 . S
C276 C277 1.366 . S
C276 C278 1.388 . S
C277 C276 1.366 . S
C277 C281 1.385 . S
C278 H259 0.951 . S
C278 C276 1.388 . S
C278 C279 1.366 . S
C279 C278 1.366 . S
C279 C280 1.414 . S
C279 C282 1.499 . S
C280 H260 0.950 . S
C280 C279 1.414 . S
C280 C281 1.374 . S
C281 H261 0.950 . S
C281 C277 1.385 . S
C281 C280 1.374 . S
C282 C279 1.499 . S
C282 C283 1.373 . S
C282 C284 1.389 . S
C283 H262 0.950 . S
C283 C282 1.373 . S
C283 C299 1.377 1_565 S
C284 C282 1.389 . S
C284 C285 1.524 . S
C284 C298 1.377 1_565 S
C285 C284 1.524 . S
C285 C286 1.397 . S
C285 C290 1.363 . S
C286 H263 0.950 . S
C286 C285 1.397 . S
C286 C287 1.334 . S
C287 H264 0.950 . S
C287 C286 1.334 . S
C287 C288 1.287 . S
C288 C287 1.287 . S
C288 C289 1.524 . S
C288 H307 0.913 . S
C289 H265 0.950 . S
C289 C288 1.524 . S
C289 C290 1.415 . S
C290 H266 0.950 . S
C290 C285 1.363 . S
C290 C289 1.415 . S
C291 H267 0.951 . S
C291 C292 1.366 . S
C291 C293 1.388 . S
C292 C291 1.366 . S
C292 C296 1.385 . S
C293 H268 0.951 . S
C293 C291 1.388 . S
C293 C294 1.366 . S
C294 C293 1.366 . S
C294 C295 1.414 . S
C294 C297 1.499 . S
C295 H269 0.950 . S
C295 C294 1.414 . S
C295 C296 1.374 . S
C296 H270 0.950 . S
C296 C292 1.385 . S
C296 C295 1.374 . S
C297 C294 1.499 . S
C297 C298 1.373 . S
C297 C299 1.389 . S
C298 H271 0.950 . S
C298 C284 1.377 1_545 S
C298 C297 1.373 . S
C299 C283 1.377 1_545 S
C299 C297 1.389 . S
C299 C300 1.524 . S
C300 C299 1.524 . S
C300 C301 1.397 . S
C300 C305 1.363 . S
C301 H272 0.950 . S
C301 C300 1.397 . S
C301 C302 1.334 . S
C302 H273 0.950 . S
C302 C301 1.334 . S
C302 C303 1.287 . S
C303 C302 1.287 . S
C303 C304 1.524 . S
C303 H306 0.999 . S
C304 H274 0.950 . S
C304 C303 1.524 . S
C304 C305 1.415 . S
C305 H275 0.950 . S
C305 C300 1.363 . S
C305 C304 1.415 . S
H306 C303 0.999 . S
H307 C288 0.913 . S
H308 C326 0.951 . S
H309 C328 0.951 . S
H310 C330 0.950 . S
H311 C331 0.950 . S
H312 C333 0.950 . S
H313 C336 0.950 . S
H314 C337 0.950 . S
H315 C339 0.950 . S
H316 C340 0.950 . S
H317 C341 0.951 . S
H318 C343 0.951 . S
H319 C345 0.950 . S
H320 C346 0.950 . S
H321 C348 0.950 . S
H322 C351 0.950 . S
H323 C352 0.950 . S
H324 C354 0.950 . S
H325 C355 0.950 . S
C326 H308 0.951 . S
C326 C327 1.366 . S
C326 C328 1.388 . S
C327 C326 1.366 . S
C327 C331 1.385 . S
C328 H309 0.951 . S
C328 C326 1.388 . S
C328 C329 1.366 . S
C329 C328 1.366 . S
C329 C330 1.414 . S
C329 C332 1.499 . S
C330 H310 0.950 . S
C330 C329 1.414 . S
C330 C331 1.374 . S
C331 H311 0.950 . S
C331 C327 1.385 . S
C331 C330 1.374 . S
C332 C329 1.499 . S
C332 C333 1.373 . S
C332 C334 1.389 . S
C333 H312 0.950 . S
C333 C332 1.373 . S
C333 C349 1.377 1_455 S
C334 C332 1.389 . S
C334 C335 1.524 . S
C334 C348 1.377 1_455 S
C335 C334 1.524 . S
C335 C336 1.397 . S
C335 C340 1.363 . S
C336 H313 0.950 . S
C336 C335 1.397 . S
C336 C337 1.334 . S
C337 H314 0.950 . S
C337 C336 1.334 . S
C337 C338 1.287 . S
C338 C337 1.287 . S
C338 C339 1.524 . S
C338 H357 0.913 . S
C339 H315 0.950 . S
C339 C338 1.524 . S
C339 C340 1.415 . S
C340 H316 0.950 . S
C340 C335 1.363 . S
C340 C339 1.415 . S
C341 H317 0.951 . S
C341 C342 1.366 . S
C341 C343 1.388 . S
C342 C341 1.366 . S
C342 C346 1.385 . S
C343 H318 0.951 . S
C343 C341 1.388 . S
C343 C344 1.366 . S
C344 C343 1.366 . S
C344 C345 1.414 . S
C344 C347 1.499 . S
C345 H319 0.950 . S
C345 C344 1.414 . S
C345 C346 1.374 . S
C346 H320 0.950 . S
C346 C342 1.385 . S
C346 C345 1.374 . S
C347 C344 1.499 . S
C347 C348 1.373 . S
C347 C349 1.389 . S
C348 H321 0.950 . S
C348 C334 1.377 1_655 S
C348 C347 1.373 . S
C349 C333 1.377 1_655 S
C349 C347 1.389 . S
C349 C350 1.524 . S
C350 C349 1.524 . S
C350 C351 1.397 . S
C350 C355 1.363 . S
C351 H322 0.950 . S
C351 C350 1.397 . S
C351 C352 1.334 . S
C352 H323 0.950 . S
C352 C351 1.334 . S
C352 C353 1.287 . S
C353 C352 1.287 . S
C353 C354 1.524 . S
C353 H356 0.999 . S
C354 H324 0.950 . S
C354 C353 1.524 . S
C354 C355 1.415 . S
C355 H325 0.950 . S
C355 C350 1.363 . S
C355 C354 1.415 . S
H356 C353 0.999 . S
H357 C338 0.913 . S
H358 C376 0.951 . S
H359 C378 0.951 . S
H360 C380 0.950 . S
H361 C381 0.950 . S
H362 C383 0.950 . S
H363 C386 0.950 . S
H364 C387 0.950 . S
H365 C389 0.950 . S
H366 C390 0.950 . S
H367 C391 0.951 . S
H368 C393 0.951 . S
H369 C395 0.950 . S
H370 C396 0.950 . S
H371 C398 0.950 . S
H372 C401 0.950 . S
H373 C402 0.950 . S
H374 C404 0.950 . S
H375 C405 0.950 . S
C376 H358 0.951 . S
C376 C377 1.366 . S
C376 C378 1.388 . S
C377 C376 1.366 . S
C377 C381 1.385 . S
C378 H359 0.951 . S
C378 C376 1.388 . S
C378 C379 1.366 . S
C379 C378 1.366 . S
C379 C380 1.414 . S
C379 C382 1.499 . S
C380 H360 0.950 . S
C380 C379 1.414 . S
C380 C381 1.374 . S
C381 H361 0.950 . S
C381 C377 1.385 . S
C381 C380 1.374 . S
C382 C379 1.499 . S
C382 C383 1.373 . S
C382 C384 1.389 . S
C383 H362 0.950 . S
C383 C382 1.373 . S
C383 C399 1.377 1_565 S
C384 C382 1.389 . S
C384 C385 1.524 . S
C384 C398 1.377 1_565 S
C385 C384 1.524 . S
C385 C386 1.397 . S
C385 C390 1.363 . S
C386 H363 0.950 . S
C386 C385 1.397 . S
C386 C387 1.334 . S
C387 H364 0.950 . S
C387 C386 1.334 . S
C387 C388 1.287 . S
C388 C387 1.287 . S
C388 C389 1.524 . S
C388 H407 0.913 . S
C389 H365 0.950 . S
C389 C388 1.524 . S
C389 C390 1.415 . S
C390 H366 0.950 . S
C390 C385 1.363 . S
C390 C389 1.415 . S
C391 H367 0.951 . S
C391 C392 1.366 . S
C391 C393 1.388 . S
C392 C391 1.366 . S
C392 C396 1.385 . S
C393 H368 0.951 . S
C393 C391 1.388 . S
C393 C394 1.366 . S
C394 C393 1.366 . S
C394 C395 1.414 . S
C394 C397 1.499 . S
C395 H369 0.950 . S
C395 C394 1.414 . S
C395 C396 1.374 . S
C396 H370 0.950 . S
C396 C392 1.385 . S
C396 C395 1.374 . S
C397 C394 1.499 . S
C397 C398 1.373 . S
C397 C399 1.389 . S
C398 H371 0.950 . S
C398 C384 1.377 1_545 S
C398 C397 1.373 . S
C399 C383 1.377 1_545 S
C399 C397 1.389 . S
C399 C400 1.524 . S
C400 C399 1.524 . S
C400 C401 1.397 . S
C400 C405 1.363 . S
C401 H372 0.950 . S
C401 C400 1.397 . S
C401 C402 1.334 . S
C402 H373 0.950 . S
C402 C401 1.334 . S
C402 C403 1.287 . S
C403 C402 1.287 . S
C403 C404 1.524 . S
C403 H406 0.999 . S
C404 H374 0.950 . S
C404 C403 1.524 . S
C404 C405 1.415 . S
C405 H375 0.950 . S
C405 C400 1.363 . S
C405 C404 1.415 . S
H406 C403 0.999 . S
H407 C388 0.913 . S
H408 C426 0.951 . S
H409 C428 0.951 . S
H410 C430 0.950 . S
H411 C431 0.950 . S
H412 C433 0.950 . S
H413 C436 0.950 . S
H414 C437 0.950 . S
H415 C439 0.950 . S
H416 C440 0.950 . S
H417 C441 0.951 . S
H418 C443 0.951 . S
H419 C445 0.950 . S
H420 C446 0.950 . S
H421 C448 0.950 . S
H422 C451 0.950 . S
H423 C452 0.950 . S
H424 C454 0.950 . S
H425 C455 0.950 . S
C426 H408 0.951 . S
C426 C427 1.366 . S
C426 C428 1.388 . S
C427 C426 1.366 . S
C427 C431 1.385 . S
C428 H409 0.951 . S
C428 C426 1.388 . S
C428 C429 1.366 . S
C429 C428 1.366 . S
C429 C430 1.414 . S
C429 C432 1.499 . S
C430 H410 0.950 . S
C430 C429 1.414 . S
C430 C431 1.374 . S
C431 H411 0.950 . S
C431 C427 1.385 . S
C431 C430 1.374 . S
C432 C429 1.499 . S
C432 C433 1.373 . S
C432 C434 1.389 . S
C433 H412 0.950 . S
C433 C432 1.373 . S
C433 C449 1.377 1_655 S
C434 C432 1.389 . S
C434 C435 1.524 . S
C434 C448 1.377 1_655 S
C435 C434 1.524 . S
C435 C436 1.397 . S
C435 C440 1.363 . S
C436 H413 0.950 . S
C436 C435 1.397 . S
C436 C437 1.334 . S
C437 H414 0.950 . S
C437 C436 1.334 . S
C437 C438 1.287 . S
C438 C437 1.287 . S
C438 C439 1.524 . S
C438 H457 0.913 . S
C439 H415 0.950 . S
C439 C438 1.524 . S
C439 C440 1.415 . S
C440 H416 0.950 . S
C440 C435 1.363 . S
C440 C439 1.415 . S
C441 H417 0.951 . S
C441 C442 1.366 . S
C441 C443 1.388 . S
C442 C441 1.366 . S
C442 C446 1.385 . S
C443 H418 0.951 . S
C443 C441 1.388 . S
C443 C444 1.366 . S
C444 C443 1.366 . S
C444 C445 1.414 . S
C444 C447 1.499 . S
C445 H419 0.950 . S
C445 C444 1.414 . S
C445 C446 1.374 . S
C446 H420 0.950 . S
C446 C442 1.385 . S
C446 C445 1.374 . S
C447 C444 1.499 . S
C447 C448 1.373 . S
C447 C449 1.389 . S
C448 H421 0.950 . S
C448 C434 1.377 1_455 S
C448 C447 1.373 . S
C449 C433 1.377 1_455 S
C449 C447 1.389 . S
C449 C450 1.524 . S
C450 C449 1.524 . S
C450 C451 1.397 . S
C450 C455 1.363 . S
C451 H422 0.950 . S
C451 C450 1.397 . S
C451 C452 1.334 . S
C452 H423 0.950 . S
C452 C451 1.334 . S
C452 C453 1.287 . S
C453 C452 1.287 . S
C453 C454 1.524 . S
C453 H456 0.999 . S
C454 H424 0.950 . S
C454 C453 1.524 . S
C454 C455 1.415 . S
C455 H425 0.950 . S
C455 C450 1.363 . S
C455 C454 1.415 . S
H456 C453 0.999 . S
H457 C438 0.913 . S
H458 C476 0.951 . S
H459 C478 0.951 . S
H460 C480 0.950 . S
H461 C481 0.950 . S
H462 C483 0.950 . S
H463 C486 0.950 . S
H464 C487 0.950 . S
H465 C489 0.950 . S
H466 C490 0.950 . S
H467 C491 0.951 . S
H468 C493 0.951 . S
H469 C495 0.950 . S
H470 C496 0.950 . S
H471 C498 0.950 . S
H472 C501 0.950 . S
H473 C502 0.950 . S
H474 C504 0.950 . S
H475 C505 0.950 . S
C476 H458 0.951 . S
C476 C477 1.366 . S
C476 C478 1.388 . S
C477 C476 1.366 . S
C477 C481 1.385 . S
C478 H459 0.951 . S
C478 C476 1.388 . S
C478 C479 1.366 . S
C479 C478 1.366 . S
C479 C480 1.414 . S
C479 C482 1.499 . S
C480 H460 0.950 . S
C480 C479 1.414 . S
C480 C481 1.374 . S
C481 H461 0.950 . S
C481 C477 1.385 . S
C481 C480 1.374 . S
C482 C479 1.499 . S
C482 C483 1.373 . S
C482 C484 1.389 . S
C483 H462 0.950 . S
C483 C482 1.373 . S
C483 C499 1.377 1_545 S
C484 C482 1.389 . S
C484 C485 1.524 . S
C484 C498 1.377 1_545 S
C485 C484 1.524 . S
C485 C486 1.397 . S
C485 C490 1.363 . S
C486 H463 0.950 . S
C486 C485 1.397 . S
C486 C487 1.334 . S
C487 H464 0.950 . S
C487 C486 1.334 . S
C487 C488 1.287 . S
C488 C487 1.287 . S
C488 C489 1.524 . S
C488 H507 0.913 . S
C489 H465 0.950 . S
C489 C488 1.524 . S
C489 C490 1.415 . S
C490 H466 0.950 . S
C490 C485 1.363 . S
C490 C489 1.415 . S
C491 H467 0.951 . S
C491 C492 1.366 . S
C491 C493 1.388 . S
C492 C491 1.366 . S
C492 C496 1.385 . S
C493 H468 0.951 . S
C493 C491 1.388 . S
C493 C494 1.366 . S
C494 C493 1.366 . S
C494 C495 1.414 . S
C494 C497 1.499 . S
C495 H469 0.950 . S
C495 C494 1.414 . S
C495 C496 1.374 . S
C496 H470 0.950 . S
C496 C492 1.385 . S
C496 C495 1.374 . S
C497 C494 1.499 . S
C497 C498 1.373 . S
C497 C499 1.389 . S
C498 H471 0.950 . S
C498 C484 1.377 1_565 S
C498 C497 1.373 . S
C499 C483 1.377 1_565 S
C499 C497 1.389 . S
C499 C500 1.524 . S
C500 C499 1.524 . S
C500 C501 1.397 . S
C500 C505 1.363 . S
C501 H472 0.950 . S
C501 C500 1.397 . S
C501 C502 1.334 . S
C502 H473 0.950 . S
C502 C501 1.334 . S
C502 C503 1.287 . S
C503 C502 1.287 . S
C503 C504 1.524 . S
C503 H506 0.999 . S
C504 H474 0.950 . S
C504 C503 1.524 . S
C504 C505 1.415 . S
C505 H475 0.950 . S
C505 C500 1.363 . S
C505 C504 1.415 . S
H506 C503 0.999 . S
H507 C488 0.913 . S
H508 C526 0.951 . S
H509 C528 0.951 . S
H510 C530 0.950 . S
H511 C531 0.950 . S
H512 C533 0.950 . S
H513 C536 0.950 . S
H514 C537 0.950 . S
H515 C539 0.950 . S
H516 C540 0.950 . S
H517 C541 0.951 . S
H518 C543 0.951 . S
H519 C545 0.950 . S
H520 C546 0.950 . S
H521 C548 0.950 . S
H522 C551 0.950 . S
H523 C552 0.950 . S
H524 C554 0.950 . S
H525 C555 0.950 . S
C526 H508 0.951 . S
C526 C527 1.366 . S
C526 C528 1.388 . S
C527 C526 1.366 . S
C527 C531 1.385 . S
C528 H509 0.951 . S
C528 C526 1.388 . S
C528 C529 1.366 . S
C529 C528 1.366 . S
C529 C530 1.414 . S
C529 C532 1.499 . S
C530 H510 0.950 . S
C530 C529 1.414 . S
C530 C531 1.374 . S
C531 H511 0.950 . S
C531 C527 1.385 . S
C531 C530 1.374 . S
C532 C529 1.499 . S
C532 C533 1.373 . S
C532 C534 1.389 . S
C533 H512 0.950 . S
C533 C532 1.373 . S
C533 C549 1.377 1_655 S
C534 C532 1.389 . S
C534 C535 1.524 . S
C534 C548 1.377 1_655 S
C535 C534 1.524 . S
C535 C536 1.397 . S
C535 C540 1.363 . S
C536 H513 0.950 . S
C536 C535 1.397 . S
C536 C537 1.334 . S
C537 H514 0.950 . S
C537 C536 1.334 . S
C537 C538 1.287 . S
C538 C537 1.287 . S
C538 C539 1.524 . S
C538 H557 0.913 . S
C539 H515 0.950 . S
C539 C538 1.524 . S
C539 C540 1.415 . S
C540 H516 0.950 . S
C540 C535 1.363 . S
C540 C539 1.415 . S
C541 H517 0.951 . S
C541 C542 1.366 . S
C541 C543 1.388 . S
C542 C541 1.366 . S
C542 C546 1.385 . S
C543 H518 0.951 . S
C543 C541 1.388 . S
C543 C544 1.366 . S
C544 C543 1.366 . S
C544 C545 1.414 . S
C544 C547 1.499 . S
C545 H519 0.950 . S
C545 C544 1.414 . S
C545 C546 1.374 . S
C546 H520 0.950 . S
C546 C542 1.385 . S
C546 C545 1.374 . S
C547 C544 1.499 . S
C547 C548 1.373 . S
C547 C549 1.389 . S
C548 H521 0.950 . S
C548 C534 1.377 1_455 S
C548 C547 1.373 . S
C549 C533 1.377 1_455 S
C549 C547 1.389 . S
C549 C550 1.524 . S
C550 C549 1.524 . S
C550 C551 1.397 . S
C550 C555 1.363 . S
C551 H522 0.950 . S
C551 C550 1.397 . S
C551 C552 1.334 . S
C552 H523 0.950 . S
C552 C551 1.334 . S
C552 C553 1.287 . S
C553 C552 1.287 . S
C553 C554 1.524 . S
C553 H556 0.999 . S
C554 H524 0.950 . S
C554 C553 1.524 . S
C554 C555 1.415 . S
C555 H525 0.950 . S
C555 C550 1.363 . S
C555 C554 1.415 . S
H556 C553 0.999 . S
H557 C538 0.913 . S
H558 C576 0.951 . S
H559 C578 0.951 . S
H560 C580 0.950 . S
H561 C581 0.950 . S
H562 C583 0.950 . S
H563 C586 0.950 . S
H564 C587 0.950 . S
H565 C589 0.950 . S
H566 C590 0.950 . S
H567 C591 0.951 . S
H568 C593 0.951 . S
H569 C595 0.950 . S
H570 C596 0.950 . S
H571 C598 0.950 . S
H572 C601 0.950 . S
H573 C602 0.950 . S
H574 C604 0.950 . S
H575 C605 0.950 . S
C576 H558 0.951 . S
C576 C577 1.366 . S
C576 C578 1.388 . S
C577 C576 1.366 . S
C577 C581 1.385 . S
C578 H559 0.951 . S
C578 C576 1.388 . S
C578 C579 1.366 . S
C579 C578 1.366 . S
C579 C580 1.414 . S
C579 C582 1.499 . S
C580 H560 0.950 . S
C580 C579 1.414 . S
C580 C581 1.374 . S
C581 H561 0.950 . S
C581 C577 1.385 . S
C581 C580 1.374 . S
C582 C579 1.499 . S
C582 C583 1.373 . S
C582 C584 1.389 . S
C583 H562 0.950 . S
C583 C582 1.373 . S
C583 C599 1.377 1_545 S
C584 C582 1.389 . S
C584 C585 1.524 . S
C584 C598 1.377 1_545 S
C585 C584 1.524 . S
C585 C586 1.397 . S
C585 C590 1.363 . S
C586 H563 0.950 . S
C586 C585 1.397 . S
C586 C587 1.334 . S
C587 H564 0.950 . S
C587 C586 1.334 . S
C587 C588 1.287 . S
C588 C587 1.287 . S
C588 C589 1.524 . S
C588 H607 0.913 . S
C589 H565 0.950 . S
C589 C588 1.524 . S
C589 C590 1.415 . S
C590 H566 0.950 . S
C590 C585 1.363 . S
C590 C589 1.415 . S
C591 H567 0.951 . S
C591 C592 1.366 . S
C591 C593 1.388 . S
C592 C591 1.366 . S
C592 C596 1.385 . S
C593 H568 0.951 . S
C593 C591 1.388 . S
C593 C594 1.366 . S
C594 C593 1.366 . S
C594 C595 1.414 . S
C594 C597 1.499 . S
C595 H569 0.950 . S
C595 C594 1.414 . S
C595 C596 1.374 . S
C596 H570 0.950 . S
C596 C592 1.385 . S
C596 C595 1.374 . S
C597 C594 1.499 . S
C597 C598 1.373 . S
C597 C599 1.389 . S
C598 H571 0.950 . S
C598 C584 1.377 1_565 S
C598 C597 1.373 . S
C599 C583 1.377 1_565 S
C599 C597 1.389 . S
C599 C600 1.524 . S
C600 C599 1.524 . S
C600 C601 1.397 . S
C600 C605 1.363 . S
C601 H572 0.950 . S
C601 C600 1.397 . S
C601 C602 1.334 . S
C602 H573 0.950 . S
C602 C601 1.334 . S
C602 C603 1.287 . S
C603 C602 1.287 . S
C603 C604 1.524 . S
C603 H606 0.999 . S
C604 H574 0.950 . S
C604 C603 1.524 . S
C604 C605 1.415 . S
C605 H575 0.950 . S
C605 C600 1.363 . S
C605 C604 1.415 . S
H606 C603 0.999 . S
H607 C588 0.913 . S
H608 C626 0.951 . S
H609 C628 0.951 . S
H610 C630 0.950 . S
H611 C631 0.950 . S
H612 C633 0.950 . S
H613 C636 0.950 . S
H614 C637 0.950 . S
H615 C639 0.950 . S
H616 C640 0.950 . S
H617 C641 0.951 . S
H618 C643 0.951 . S
H619 C645 0.950 . S
H620 C646 0.950 . S
H621 C648 0.950 . S
H622 C651 0.950 . S
H623 C652 0.950 . S
H624 C654 0.950 . S
H625 C655 0.950 . S
C626 H608 0.951 . S
C626 C627 1.366 . S
C626 C628 1.388 . S
C627 C626 1.366 . S
C627 C631 1.385 . S
C628 H609 0.951 . S
C628 C626 1.388 . S
C628 C629 1.366 . S
C629 C628 1.366 . S
C629 C630 1.414 . S
C629 C632 1.499 . S
C630 H610 0.950 . S
C630 C629 1.414 . S
C630 C631 1.374 . S
C631 H611 0.950 . S
C631 C627 1.385 . S
C631 C630 1.374 . S
C632 C629 1.499 . S
C632 C633 1.373 . S
C632 C634 1.389 . S
C633 H612 0.950 . S
C633 C632 1.373 . S
C633 C649 1.377 . S
C634 C632 1.389 . S
C634 C635 1.524 . S
C634 C648 1.377 . S
C635 C634 1.524 . S
C635 C636 1.397 . S
C635 C640 1.363 . S
C636 H613 0.950 . S
C636 C635 1.397 . S
C636 C637 1.334 . S
C637 H614 0.950 . S
C637 C636 1.334 . S
C637 C638 1.287 . S
C638 C637 1.287 . S
C638 C639 1.524 . S
C638 H657 0.913 . S
C639 H615 0.950 . S
C639 C638 1.524 . S
C639 C640 1.415 . S
C640 H616 0.950 . S
C640 C635 1.363 . S
C640 C639 1.415 . S
C641 H617 0.951 . S
C641 C642 1.366 . S
C641 C643 1.388 . S
C642 C641 1.366 . S
C642 C646 1.385 . S
C643 H618 0.951 . S
C643 C641 1.388 . S
C643 C644 1.366 . S
C644 C643 1.366 . S
C644 C645 1.414 . S
C644 C647 1.499 . S
C645 H619 0.950 . S
C645 C644 1.414 . S
C645 C646 1.374 . S
C646 H620 0.950 . S
C646 C642 1.385 . S
C646 C645 1.374 . S
C647 C644 1.499 . S
C647 C648 1.373 . S
C647 C649 1.389 . S
C648 H621 0.950 . S
C648 C634 1.377 . S
C648 C647 1.373 . S
C649 C633 1.377 . S
C649 C647 1.389 . S
C649 C650 1.524 . S
C650 C649 1.524 . S
C650 C651 1.397 . S
C650 C655 1.363 . S
C651 H622 0.950 . S
C651 C650 1.397 . S
C651 C652 1.334 . S
C652 H623 0.950 . S
C652 C651 1.334 . S
C652 C653 1.287 . S
C653 C652 1.287 . S
C653 C654 1.524 . S
C653 H656 0.999 . S
C654 H624 0.950 . S
C654 C653 1.524 . S
C654 C655 1.415 . S
C655 H625 0.950 . S
C655 C650 1.363 . S
C655 C654 1.415 . S
H656 C653 0.999 . S
H657 C638 0.913 . S
H658 C676 0.951 . S
H659 C678 0.951 . S
H660 C680 0.950 . S
H661 C681 0.950 . S
H662 C683 0.950 . S
H663 C686 0.950 . S
H664 C687 0.950 . S
H665 C689 0.950 . S
H666 C690 0.950 . S
H667 C691 0.951 . S
H668 C693 0.951 . S
H669 C695 0.950 . S
H670 C696 0.950 . S
H671 C698 0.950 . S
H672 C701 0.950 . S
H673 C702 0.950 . S
H674 C704 0.950 . S
H675 C705 0.950 . S
C676 H658 0.951 . S
C676 C677 1.366 . S
C676 C678 1.388 . S
C677 C676 1.366 . S
C677 C681 1.385 . S
C678 H659 0.951 . S
C678 C676 1.388 . S
C678 C679 1.366 . S
C679 C678 1.366 . S
C679 C680 1.414 . S
C679 C682 1.499 . S
C680 H660 0.950 . S
C680 C679 1.414 . S
C680 C681 1.374 . S
C681 H661 0.950 . S
C681 C677 1.385 . S
C681 C680 1.374 . S
C682 C679 1.499 . S
C682 C683 1.373 . S
C682 C684 1.389 . S
C683 H662 0.950 . S
C683 C682 1.373 . S
C683 C699 1.377 . S
C684 C682 1.389 . S
C684 C685 1.524 . S
C684 C698 1.377 . S
C685 C684 1.524 . S
C685 C686 1.397 . S
C685 C690 1.363 . S
C686 H663 0.950 . S
C686 C685 1.397 . S
C686 C687 1.334 . S
C687 H664 0.950 . S
C687 C686 1.334 . S
C687 C688 1.287 . S
C688 C687 1.287 . S
C688 C689 1.524 . S
C688 H707 0.913 . S
C689 H665 0.950 . S
C689 C688 1.524 . S
C689 C690 1.415 . S
C690 H666 0.950 . S
C690 C685 1.363 . S
C690 C689 1.415 . S
C691 H667 0.951 . S
C691 C692 1.366 . S
C691 C693 1.388 . S
C692 C691 1.366 . S
C692 C696 1.385 . S
C693 H668 0.951 . S
C693 C691 1.388 . S
C693 C694 1.366 . S
C694 C693 1.366 . S
C694 C695 1.414 . S
C694 C697 1.499 . S
C695 H669 0.950 . S
C695 C694 1.414 . S
C695 C696 1.374 . S
C696 H670 0.950 . S
C696 C692 1.385 . S
C696 C695 1.374 . S
C697 C694 1.499 . S
C697 C698 1.373 . S
C697 C699 1.389 . S
C698 H671 0.950 . S
C698 C684 1.377 . S
C698 C697 1.373 . S
C699 C683 1.377 . S
C699 C697 1.389 . S
C699 C700 1.524 . S
C700 C699 1.524 . S
C700 C701 1.397 . S
C700 C705 1.363 . S
C701 H672 0.950 . S
C701 C700 1.397 . S
C701 C702 1.334 . S
C702 H673 0.950 . S
C702 C701 1.334 . S
C702 C703 1.287 . S
C703 C702 1.287 . S
C703 C704 1.524 . S
C703 H706 0.999 . S
C704 H674 0.950 . S
C704 C703 1.524 . S
C704 C705 1.415 . S
C705 H675 0.950 . S
C705 C700 1.363 . S
C705 C704 1.415 . S
H706 C703 0.999 . S
H707 C688 0.913 . S
H708 C726 0.951 . S
H709 C728 0.951 . S
H710 C730 0.950 . S
H711 C731 0.950 . S
H712 C733 0.950 . S
H713 C736 0.950 . S
H714 C737 0.950 . S
H715 C739 0.950 . S
H716 C740 0.950 . S
H717 C741 0.951 . S
H718 C743 0.951 . S
H719 C745 0.950 . S
H720 C746 0.950 . S
H721 C748 0.950 . S
H722 C751 0.950 . S
H723 C752 0.950 . S
H724 C754 0.950 . S
H725 C755 0.950 . S
C726 H708 0.951 . S
C726 C727 1.366 . S
C726 C728 1.388 . S
C727 C726 1.366 . S
C727 C731 1.385 . S
C728 H709 0.951 . S
C728 C726 1.388 . S
C728 C729 1.366 . S
C729 C728 1.366 . S
C729 C730 1.414 . S
C729 C732 1.499 . S
C730 H710 0.950 . S
C730 C729 1.414 . S
C730 C731 1.374 . S
C731 H711 0.950 . S
C731 C727 1.385 . S
C731 C730 1.374 . S
C732 C729 1.499 . S
C732 C733 1.373 . S
C732 C734 1.389 . S
C733 H712 0.950 . S
C733 C732 1.373 . S
C733 C749 1.377 . S
C734 C732 1.389 . S
C734 C735 1.524 . S
C734 C748 1.377 . S
C735 C734 1.524 . S
C735 C736 1.397 . S
C735 C740 1.363 . S
C736 H713 0.950 . S
C736 C735 1.397 . S
C736 C737 1.334 . S
C737 H714 0.950 . S
C737 C736 1.334 . S
C737 C738 1.287 . S
C738 C737 1.287 . S
C738 C739 1.524 . S
C738 H757 0.913 . S
C739 H715 0.950 . S
C739 C738 1.524 . S
C739 C740 1.415 . S
C740 H716 0.950 . S
C740 C735 1.363 . S
C740 C739 1.415 . S
C741 H717 0.951 . S
C741 C742 1.366 . S
C741 C743 1.388 . S
C742 C741 1.366 . S
C742 C746 1.385 . S
C743 H718 0.951 . S
C743 C741 1.388 . S
C743 C744 1.366 . S
C744 C743 1.366 . S
C744 C745 1.414 . S
C744 C747 1.499 . S
C745 H719 0.950 . S
C745 C744 1.414 . S
C745 C746 1.374 . S
C746 H720 0.950 . S
C746 C742 1.385 . S
C746 C745 1.374 . S
C747 C744 1.499 . S
C747 C748 1.373 . S
C747 C749 1.389 . S
C748 H721 0.950 . S
C748 C734 1.377 . S
C748 C747 1.373 . S
C749 C733 1.377 . S
C749 C747 1.389 . S
C749 C750 1.524 . S
C750 C749 1.524 . S
C750 C751 1.397 . S
C750 C755 1.363 . S
C751 H722 0.950 . S
C751 C750 1.397 . S
C751 C752 1.334 . S
C752 H723 0.950 . S
C752 C751 1.334 . S
C752 C753 1.287 . S
C753 C752 1.287 . S
C753 C754 1.524 . S
C753 H756 0.999 . S
C754 H724 0.950 . S
C754 C753 1.524 . S
C754 C755 1.415 . S
C755 H725 0.950 . S
C755 C750 1.363 . S
C755 C754 1.415 . S
H756 C753 0.999 . S
H757 C738 0.913 . S
H758 C776 0.951 . S
H759 C778 0.951 . S
H760 C780 0.950 . S
H761 C781 0.950 . S
H762 C783 0.950 . S
H763 C786 0.950 . S
H764 C787 0.950 . S
H765 C789 0.950 . S
H766 C790 0.950 . S
H767 C791 0.951 . S
H768 C793 0.951 . S
H769 C795 0.950 . S
H770 C796 0.950 . S
H771 C798 0.950 . S
H772 C801 0.950 . S
H773 C802 0.950 . S
H774 C804 0.950 . S
H775 C805 0.950 . S
C776 H758 0.951 . S
C776 C777 1.366 . S
C776 C778 1.388 . S
C777 C776 1.366 . S
C777 C781 1.385 . S
C778 H759 0.951 . S
C778 C776 1.388 . S
C778 C779 1.366 . S
C779 C778 1.366 . S
C779 C780 1.414 . S
C779 C782 1.499 . S
C780 H760 0.950 . S
C780 C779 1.414 . S
C780 C781 1.374 . S
C781 H761 0.950 . S
C781 C777 1.385 . S
C781 C780 1.374 . S
C782 C779 1.499 . S
C782 C783 1.373 . S
C782 C784 1.389 . S
C783 H762 0.950 . S
C783 C782 1.373 . S
C783 C799 1.377 . S
C784 C782 1.389 . S
C784 C785 1.524 . S
C784 C798 1.377 . S
C785 C784 1.524 . S
C785 C786 1.397 . S
C785 C790 1.363 . S
C786 H763 0.950 . S
C786 C785 1.397 . S
C786 C787 1.334 . S
C787 H764 0.950 . S
C787 C786 1.334 . S
C787 C788 1.287 . S
C788 C787 1.287 . S
C788 C789 1.524 . S
C788 H807 0.913 . S
C789 H765 0.950 . S
C789 C788 1.524 . S
C789 C790 1.415 . S
C790 H766 0.950 . S
C790 C785 1.363 . S
C790 C789 1.415 . S
C791 H767 0.951 . S
C791 C792 1.366 . S
C791 C793 1.388 . S
C792 C791 1.366 . S
C792 C796 1.385 . S
C793 H768 0.951 . S
C793 C791 1.388 . S
C793 C794 1.366 . S
C794 C793 1.366 . S
C794 C795 1.414 . S
C794 C797 1.499 . S
C795 H769 0.950 . S
C795 C794 1.414 . S
C795 C796 1.374 . S
C796 H770 0.950 . S
C796 C792 1.385 . S
C796 C795 1.374 . S
C797 C794 1.499 . S
C797 C798 1.373 . S
C797 C799 1.389 . S
C798 H771 0.950 . S
C798 C784 1.377 . S
C798 C797 1.373 . S
C799 C783 1.377 . S
C799 C797 1.389 . S
C799 C800 1.524 . S
C800 C799 1.524 . S
C800 C801 1.397 . S
C800 C805 1.363 . S
C801 H772 0.950 . S
C801 C800 1.397 . S
C801 C802 1.334 . S
C802 H773 0.950 . S
C802 C801 1.334 . S
C802 C803 1.287 . S
C803 C802 1.287 . S
C803 C804 1.524 . S
C803 H806 0.999 . S
C804 H774 0.950 . S
C804 C803 1.524 . S
C804 C805 1.415 . S
C805 H775 0.950 . S
C805 C800 1.363 . S
C805 C804 1.415 . S
H806 C803 0.999 . S
H807 C788 0.913 . S
H808 C826 0.951 . S
H809 C828 0.951 . S
H810 C830 0.950 . S
H811 C831 0.950 . S
H812 C833 0.950 . S
H813 C836 0.950 . S
H814 C837 0.950 . S
H815 C839 0.950 . S
H816 C840 0.950 . S
H817 C841 0.951 . S
H818 C843 0.951 . S
H819 C845 0.950 . S
H820 C846 0.950 . S
H821 C848 0.950 . S
H822 C851 0.950 . S
H823 C852 0.950 . S
H824 C854 0.950 . S
H825 C855 0.950 . S
C826 H808 0.951 . S
C826 C827 1.366 . S
C826 C828 1.388 . S
C827 C826 1.366 . S
C827 C831 1.385 . S
C828 H809 0.951 . S
C828 C826 1.388 . S
C828 C829 1.366 . S
C829 C828 1.366 . S
C829 C830 1.414 . S
C829 C832 1.499 . S
C830 H810 0.950 . S
C830 C829 1.414 . S
C830 C831 1.374 . S
C831 H811 0.950 . S
C831 C827 1.385 . S
C831 C830 1.374 . S
C832 C829 1.499 . S
C832 C833 1.373 . S
C832 C834 1.389 . S
C833 H812 0.950 . S
C833 C832 1.373 . S
C833 C849 1.377 . S
C834 C832 1.389 . S
C834 C835 1.524 . S
C834 C848 1.377 . S
C835 C834 1.524 . S
C835 C836 1.397 . S
C835 C840 1.363 . S
C836 H813 0.950 . S
C836 C835 1.397 . S
C836 C837 1.334 . S
C837 H814 0.950 . S
C837 C836 1.334 . S
C837 C838 1.287 . S
C838 C837 1.287 . S
C838 C839 1.524 . S
C838 H857 0.913 . S
C839 H815 0.950 . S
C839 C838 1.524 . S
C839 C840 1.415 . S
C840 H816 0.950 . S
C840 C835 1.363 . S
C840 C839 1.415 . S
C841 H817 0.951 . S
C841 C842 1.366 . S
C841 C843 1.388 . S
C842 C841 1.366 . S
C842 C846 1.385 . S
C843 H818 0.951 . S
C843 C841 1.388 . S
C843 C844 1.366 . S
C844 C843 1.366 . S
C844 C845 1.414 . S
C844 C847 1.499 . S
C845 H819 0.950 . S
C845 C844 1.414 . S
C845 C846 1.374 . S
C846 H820 0.950 . S
C846 C842 1.385 . S
C846 C845 1.374 . S
C847 C844 1.499 . S
C847 C848 1.373 . S
C847 C849 1.389 . S
C848 H821 0.950 . S
C848 C834 1.377 . S
C848 C847 1.373 . S
C849 C833 1.377 . S
C849 C847 1.389 . S
C849 C850 1.524 . S
C850 C849 1.524 . S
C850 C851 1.397 . S
C850 C855 1.363 . S
C851 H822 0.950 . S
C851 C850 1.397 . S
C851 C852 1.334 . S
C852 H823 0.950 . S
C852 C851 1.334 . S
C852 C853 1.287 . S
C853 C852 1.287 . S
C853 C854 1.524 . S
C853 H856 0.999 . S
C854 H824 0.950 . S
C854 C853 1.524 . S
C854 C855 1.415 . S
C855 H825 0.950 . S
C855 C850 1.363 . S
C855 C854 1.415 . S
H856 C853 0.999 . S
H857 C838 0.913 . S
H858 C876 0.951 . S
H859 C878 0.951 . S
H860 C880 0.950 . S
H861 C881 0.950 . S
H862 C883 0.950 . S
H863 C886 0.950 . S
H864 C887 0.950 . S
H865 C889 0.950 . S
H866 C890 0.950 . S
H867 C891 0.951 . S
H868 C893 0.951 . S
H869 C895 0.950 . S
H870 C896 0.950 . S
H871 C898 0.950 . S
H872 C901 0.950 . S
H873 C902 0.950 . S
H874 C904 0.950 . S
H875 C905 0.950 . S
C876 H858 0.951 . S
C876 C877 1.366 . S
C876 C878 1.388 . S
C877 C876 1.366 . S
C877 C881 1.385 . S
C878 H859 0.951 . S
C878 C876 1.388 . S
C878 C879 1.366 . S
C879 C878 1.366 . S
C879 C880 1.414 . S
C879 C882 1.499 . S
C880 H860 0.950 . S
C880 C879 1.414 . S
C880 C881 1.374 . S
C881 H861 0.950 . S
C881 C877 1.385 . S
C881 C880 1.374 . S
C882 C879 1.499 . S
C882 C883 1.373 . S
C882 C884 1.389 . S
C883 H862 0.950 . S
C883 C882 1.373 . S
C883 C899 1.377 . S
C884 C882 1.389 . S
C884 C885 1.524 . S
C884 C898 1.377 . S
C885 C884 1.524 . S
C885 C886 1.397 . S
C885 C890 1.363 . S
C886 H863 0.950 . S
C886 C885 1.397 . S
C886 C887 1.334 . S
C887 H864 0.950 . S
C887 C886 1.334 . S
C887 C888 1.287 . S
C888 C887 1.287 . S
C888 C889 1.524 . S
C888 H907 0.913 . S
C889 H865 0.950 . S
C889 C888 1.524 . S
C889 C890 1.415 . S
C890 H866 0.950 . S
C890 C885 1.363 . S
C890 C889 1.415 . S
C891 H867 0.951 . S
C891 C892 1.366 . S
C891 C893 1.388 . S
C892 C891 1.366 . S
C892 C896 1.385 . S
C893 H868 0.951 . S
C893 C891 1.388 . S
C893 C894 1.366 . S
C894 C893 1.366 . S
C894 C895 1.414 . S
C894 C897 1.499 . S
C895 H869 0.950 . S
C895 C894 1.414 . S
C895 C896 1.374 . S
C896 H870 0.950 . S
C896 C892 1.385 . S
C896 C895 1.374 . S
C897 C894 1.499 . S
C897 C898 1.373 . S
C897 C899 1.389 . S
C898 H871 0.950 . S
C898 C884 1.377 . S
C898 C897 1.373 . S
C899 C883 1.377 . S
C899 C897 1.389 . S
C899 C900 1.524 . S
C900 C899 1.524 . S
C900 C901 1.397 . S
C900 C905 1.363 . S
C901 H872 0.950 . S
C901 C900 1.397 . S
C901 C902 1.334 . S
C902 H873 0.950 . S
C902 C901 1.334 . S
C902 C903 1.287 . S
C903 C902 1.287 . S
C903 C904 1.524 . S
C903 H906 0.999 . S
C904 H874 0.950 . S
C904 C903 1.524 . S
C904 C905 1.415 . S
C905 H875 0.950 . S
C905 C900 1.363 . S
C905 C904 1.415 . S
H906 C903 0.999 . S
H907 C888 0.913 . S
H908 C926 0.951 . S
H909 C928 0.951 . S
H910 C930 0.950 . S
H911 C931 0.950 . S
H912 C933 0.950 . S
H913 C936 0.950 . S
H914 C937 0.950 . S
H915 C939 0.950 . S
H916 C940 0.950 . S
H917 C941 0.951 . S
H918 C943 0.951 . S
H919 C945 0.950 . S
H920 C946 0.950 . S
H921 C948 0.950 . S
H922 C951 0.950 . S
H923 C952 0.950 . S
H924 C954 0.950 . S
H925 C955 0.950 . S
C926 H908 0.951 . S
C926 C927 1.366 . S
C926 C928 1.388 . S
C927 C926 1.366 . S
C927 C931 1.385 . S
C928 H909 0.951 . S
C928 C926 1.388 . S
C928 C929 1.366 . S
C929 C928 1.366 . S
C929 C930 1.414 . S
C929 C932 1.499 . S
C930 H910 0.950 . S
C930 C929 1.414 . S
C930 C931 1.374 . S
C931 H911 0.950 . S
C931 C927 1.385 . S
C931 C930 1.374 . S
C932 C929 1.499 . S
C932 C933 1.373 . S
C932 C934 1.389 . S
C933 H912 0.950 . S
C933 C932 1.373 . S
C933 C949 1.377 . S
C934 C932 1.389 . S
C934 C935 1.524 . S
C934 C948 1.377 . S
C935 C934 1.524 . S
C935 C936 1.397 . S
C935 C940 1.363 . S
C936 H913 0.950 . S
C936 C935 1.397 . S
C936 C937 1.334 . S
C937 H914 0.950 . S
C937 C936 1.334 . S
C937 C938 1.287 . S
C938 C937 1.287 . S
C938 C939 1.524 . S
C938 H957 0.913 . S
C939 H915 0.950 . S
C939 C938 1.524 . S
C939 C940 1.415 . S
C940 H916 0.950 . S
C940 C935 1.363 . S
C940 C939 1.415 . S
C941 H917 0.951 . S
C941 C942 1.366 . S
C941 C943 1.388 . S
C942 C941 1.366 . S
C942 C946 1.385 . S
C943 H918 0.951 . S
C943 C941 1.388 . S
C943 C944 1.366 . S
C944 C943 1.366 . S
C944 C945 1.414 . S
C944 C947 1.499 . S
C945 H919 0.950 . S
C945 C944 1.414 . S
C945 C946 1.374 . S
C946 H920 0.950 . S
C946 C942 1.385 . S
C946 C945 1.374 . S
C947 C944 1.499 . S
C947 C948 1.373 . S
C947 C949 1.389 . S
C948 H921 0.950 . S
C948 C934 1.377 . S
C948 C947 1.373 . S
C949 C933 1.377 . S
C949 C947 1.389 . S
C949 C950 1.524 . S
C950 C949 1.524 . S
C950 C951 1.397 . S
C950 C955 1.363 . S
C951 H922 0.950 . S
C951 C950 1.397 . S
C951 C952 1.334 . S
C952 H923 0.950 . S
C952 C951 1.334 . S
C952 C953 1.287 . S
C953 C952 1.287 . S
C953 C954 1.524 . S
C953 H956 0.999 . S
C954 H924 0.950 . S
C954 C953 1.524 . S
C954 C955 1.415 . S
C955 H925 0.950 . S
C955 C950 1.363 . S
C955 C954 1.415 . S
H956 C953 0.999 . S
H957 C938 0.913 . S
H958 C976 0.951 . S
H959 C978 0.951 . S
H960 C980 0.950 . S
H961 C981 0.950 . S
H962 C983 0.950 . S
H963 C986 0.950 . S
H964 C987 0.950 . S
H965 C989 0.950 . S
H966 C990 0.950 . S
H967 C991 0.951 . S
H968 C993 0.951 . S
H969 C995 0.950 . S
H970 C996 0.950 . S
H971 C998 0.950 . S
H972 C1001 0.950 . S
H973 C1002 0.950 . S
H974 C1004 0.950 . S
H975 C1005 0.950 . S
C976 H958 0.951 . S
C976 C977 1.366 . S
C976 C978 1.388 . S
C977 C976 1.366 . S
C977 C981 1.385 . S
C978 H959 0.951 . S
C978 C976 1.388 . S
C978 C979 1.366 . S
C979 C978 1.366 . S
C979 C980 1.414 . S
C979 C982 1.499 . S
C980 H960 0.950 . S
C980 C979 1.414 . S
C980 C981 1.374 . S
C981 H961 0.950 . S
C981 C977 1.385 . S
C981 C980 1.374 . S
C982 C979 1.499 . S
C982 C983 1.373 . S
C982 C984 1.389 . S
C983 H962 0.950 . S
C983 C982 1.373 . S
C983 C999 1.377 . S
C984 C982 1.389 . S
C984 C985 1.524 . S
C984 C998 1.377 . S
C985 C984 1.524 . S
C985 C986 1.397 . S
C985 C990 1.363 . S
C986 H963 0.950 . S
C986 C985 1.397 . S
C986 C987 1.334 . S
C987 H964 0.950 . S
C987 C986 1.334 . S
C987 C988 1.287 . S
C988 C987 1.287 . S
C988 C989 1.524 . S
C988 H1007 0.913 . S
C989 H965 0.950 . S
C989 C988 1.524 . S
C989 C990 1.415 . S
C990 H966 0.950 . S
C990 C985 1.363 . S
C990 C989 1.415 . S
C991 H967 0.951 . S
C991 C992 1.366 . S
C991 C993 1.388 . S
C992 C991 1.366 . S
C992 C996 1.385 . S
C993 H968 0.951 . S
C993 C991 1.388 . S
C993 C994 1.366 . S
C994 C993 1.366 . S
C994 C995 1.414 . S
C994 C997 1.499 . S
C995 H969 0.950 . S
C995 C994 1.414 . S
C995 C996 1.374 . S
C996 H970 0.950 . S
C996 C992 1.385 . S
C996 C995 1.374 . S
C997 C994 1.499 . S
C997 C998 1.373 . S
C997 C999 1.389 . S
C998 H971 0.950 . S
C998 C984 1.377 . S
C998 C997 1.373 . S
C999 C983 1.377 . S
C999 C997 1.389 . S
C999 C1000 1.524 . S
C1000 C999 1.524 . S
C1000 C1001 1.397 . S
C1000 C1005 1.363 . S
C1001 H972 0.950 . S
C1001 C1000 1.397 . S
C1001 C1002 1.334 . S
C1002 H973 0.950 . S
C1002 C1001 1.334 . S
C1002 C1003 1.287 . S
C1003 C1002 1.287 . S
C1003 C1004 1.524 . S
C1003 H1006 0.999 . S
C1004 H974 0.950 . S
C1004 C1003 1.524 . S
C1004 C1005 1.415 . S
C1005 H975 0.950 . S
C1005 C1000 1.363 . S
C1005 C1004 1.415 . S
H1006 C1003 0.999 . S
H1007 C988 0.913 . S
H1008 C1026 0.951 . S
H1009 C1028 0.951 . S
H1010 C1030 0.950 . S
H1011 C1031 0.950 . S
H1012 C1033 0.950 . S
H1013 C1036 0.950 . S
H1014 C1037 0.950 . S
H1015 C1039 0.950 . S
H1016 C1040 0.950 . S
H1017 C1041 0.951 . S
H1018 C1043 0.951 . S
H1019 C1045 0.950 . S
H1020 C1046 0.950 . S
H1021 C1048 0.950 . S
H1022 C1051 0.950 . S
H1023 C1052 0.950 . S
H1024 C1054 0.950 . S
H1025 C1055 0.950 . S
C1026 H1008 0.951 . S
C1026 C1027 1.366 . S
C1026 C1028 1.388 . S
C1027 C1026 1.366 . S
C1027 C1031 1.385 . S
C1028 H1009 0.951 . S
C1028 C1026 1.388 . S
C1028 C1029 1.366 . S
C1029 C1028 1.366 . S
C1029 C1030 1.414 . S
C1029 C1032 1.499 . S
C1030 H1010 0.950 . S
C1030 C1029 1.414 . S
C1030 C1031 1.374 . S
C1031 H1011 0.950 . S
C1031 C1027 1.385 . S
C1031 C1030 1.374 . S
C1032 C1029 1.499 . S
C1032 C1033 1.373 . S
C1032 C1034 1.389 . S
C1033 H1012 0.950 . S
C1033 C1032 1.373 . S
C1033 C1049 1.377 1_556 S
C1034 C1032 1.389 . S
C1034 C1035 1.524 . S
C1034 C1048 1.377 1_556 S
C1035 C1034 1.524 . S
C1035 C1036 1.397 . S
C1035 C1040 1.363 . S
C1036 H1013 0.950 . S
C1036 C1035 1.397 . S
C1036 C1037 1.334 . S
C1037 H1014 0.950 . S
C1037 C1036 1.334 . S
C1037 C1038 1.287 . S
C1038 C1037 1.287 . S
C1038 C1039 1.524 . S
C1038 H1057 0.913 . S
C1039 H1015 0.950 . S
C1039 C1038 1.524 . S
C1039 C1040 1.415 . S
C1040 H1016 0.950 . S
C1040 C1035 1.363 . S
C1040 C1039 1.415 . S
C1041 H1017 0.951 . S
C1041 C1042 1.366 . S
C1041 C1043 1.388 . S
C1042 C1041 1.366 . S
C1042 C1046 1.385 . S
C1043 H1018 0.951 . S
C1043 C1041 1.388 . S
C1043 C1044 1.366 . S
C1044 C1043 1.366 . S
C1044 C1045 1.414 . S
C1044 C1047 1.499 . S
C1045 H1019 0.950 . S
C1045 C1044 1.414 . S
C1045 C1046 1.374 . S
C1046 H1020 0.950 . S
C1046 C1042 1.385 . S
C1046 C1045 1.374 . S
C1047 C1044 1.499 . S
C1047 C1048 1.373 . S
C1047 C1049 1.389 . S
C1048 H1021 0.950 . S
C1048 C1034 1.377 1_554 S
C1048 C1047 1.373 . S
C1049 C1033 1.377 1_554 S
C1049 C1047 1.389 . S
C1049 C1050 1.524 . S
C1050 C1049 1.524 . S
C1050 C1051 1.397 . S
C1050 C1055 1.363 . S
C1051 H1022 0.950 . S
C1051 C1050 1.397 . S
C1051 C1052 1.334 . S
C1052 H1023 0.950 . S
C1052 C1051 1.334 . S
C1052 C1053 1.287 . S
C1053 C1052 1.287 . S
C1053 C1054 1.524 . S
C1053 H1056 0.999 . S
C1054 H1024 0.950 . S
C1054 C1053 1.524 . S
C1054 C1055 1.415 . S
C1055 H1025 0.950 . S
C1055 C1050 1.363 . S
C1055 C1054 1.415 . S
H1056 C1053 0.999 . S
H1057 C1038 0.913 . S
H1058 C1076 0.951 . S
H1059 C1078 0.951 . S
H1060 C1080 0.950 . S
H1061 C1081 0.950 . S
H1062 C1083 0.950 . S
H1063 C1086 0.950 . S
H1064 C1087 0.950 . S
H1065 C1089 0.950 . S
H1066 C1090 0.950 . S
H1067 C1091 0.951 . S
H1068 C1093 0.951 . S
H1069 C1095 0.950 . S
H1070 C1096 0.950 . S
H1071 C1098 0.950 . S
H1072 C1101 0.950 . S
H1073 C1102 0.950 . S
H1074 C1104 0.950 . S
H1075 C1105 0.950 . S
C1076 H1058 0.951 . S
C1076 C1077 1.366 . S
C1076 C1078 1.388 . S
C1077 C1076 1.366 . S
C1077 C1081 1.385 . S
C1078 H1059 0.951 . S
C1078 C1076 1.388 . S
C1078 C1079 1.366 . S
C1079 C1078 1.366 . S
C1079 C1080 1.414 . S
C1079 C1082 1.499 . S
C1080 H1060 0.950 . S
C1080 C1079 1.414 . S
C1080 C1081 1.374 . S
C1081 H1061 0.950 . S
C1081 C1077 1.385 . S
C1081 C1080 1.374 . S
C1082 C1079 1.499 . S
C1082 C1083 1.373 . S
C1082 C1084 1.389 . S
C1083 H1062 0.950 . S
C1083 C1082 1.373 . S
C1083 C1099 1.377 . S
C1084 C1082 1.389 . S
C1084 C1085 1.524 . S
C1084 C1098 1.377 . S
C1085 C1084 1.524 . S
C1085 C1086 1.397 . S
C1085 C1090 1.363 . S
C1086 H1063 0.950 . S
C1086 C1085 1.397 . S
C1086 C1087 1.334 . S
C1087 H1064 0.950 . S
C1087 C1086 1.334 . S
C1087 C1088 1.287 . S
C1088 C1087 1.287 . S
C1088 C1089 1.524 . S
C1088 H1107 0.913 . S
C1089 H1065 0.950 . S
C1089 C1088 1.524 . S
C1089 C1090 1.415 . S
C1090 H1066 0.950 . S
C1090 C1085 1.363 . S
C1090 C1089 1.415 . S
C1091 H1067 0.951 . S
C1091 C1092 1.366 . S
C1091 C1093 1.388 . S
C1092 C1091 1.366 . S
C1092 C1096 1.385 . S
C1093 H1068 0.951 . S
C1093 C1091 1.388 . S
C1093 C1094 1.366 . S
C1094 C1093 1.366 . S
C1094 C1095 1.414 . S
C1094 C1097 1.499 . S
C1095 H1069 0.950 . S
C1095 C1094 1.414 . S
C1095 C1096 1.374 . S
C1096 H1070 0.950 . S
C1096 C1092 1.385 . S
C1096 C1095 1.374 . S
C1097 C1094 1.499 . S
C1097 C1098 1.373 . S
C1097 C1099 1.389 . S
C1098 H1071 0.950 . S
C1098 C1084 1.377 . S
C1098 C1097 1.373 . S
C1099 C1083 1.377 . S
C1099 C1097 1.389 . S
C1099 C1100 1.524 . S
C1100 C1099 1.524 . S
C1100 C1101 1.397 . S
C1100 C1105 1.363 . S
C1101 H1072 0.950 . S
C1101 C1100 1.397 . S
C1101 C1102 1.334 . S
C1102 H1073 0.950 . S
C1102 C1101 1.334 . S
C1102 C1103 1.287 . S
C1103 C1102 1.287 . S
C1103 C1104 1.524 . S
C1103 H1106 0.999 . S
C1104 H1074 0.950 . S
C1104 C1103 1.524 . S
C1104 C1105 1.415 . S
C1105 H1075 0.950 . S
C1105 C1100 1.363 . S
C1105 C1104 1.415 . S
H1106 C1103 0.999 . S
H1107 C1088 0.913 . S
H1108 C1126 0.951 . S
H1109 C1128 0.951 . S
H1110 C1130 0.950 . S
H1111 C1131 0.950 . S
H1112 C1133 0.950 . S
H1113 C1136 0.950 . S
H1114 C1137 0.950 . S
H1115 C1139 0.950 . S
H1116 C1140 0.950 . S
H1117 C1141 0.951 . S
H1118 C1143 0.951 . S
H1119 C1145 0.950 . S
H1120 C1146 0.950 . S
H1121 C1148 0.950 . S
H1122 C1151 0.950 . S
H1123 C1152 0.950 . S
H1124 C1154 0.950 . S
H1125 C1155 0.950 . S
C1126 H1108 0.951 . S
C1126 C1127 1.366 . S
C1126 C1128 1.388 . S
C1127 C1126 1.366 . S
C1127 C1131 1.385 . S
C1128 H1109 0.951 . S
C1128 C1126 1.388 . S
C1128 C1129 1.366 . S
C1129 C1128 1.366 . S
C1129 C1130 1.414 . S
C1129 C1132 1.499 . S
C1130 H1110 0.950 . S
C1130 C1129 1.414 . S
C1130 C1131 1.374 . S
C1131 H1111 0.950 . S
C1131 C1127 1.385 . S
C1131 C1130 1.374 . S
C1132 C1129 1.499 . S
C1132 C1133 1.373 . S
C1132 C1134 1.389 . S
C1133 H1112 0.950 . S
C1133 C1132 1.373 . S
C1133 C1149 1.377 1_554 S
C1134 C1132 1.389 . S
C1134 C1135 1.524 . S
C1134 C1148 1.377 1_554 S
C1135 C1134 1.524 . S
C1135 C1136 1.397 . S
C1135 C1140 1.363 . S
C1136 H1113 0.950 . S
C1136 C1135 1.397 . S
C1136 C1137 1.334 . S
C1137 H1114 0.950 . S
C1137 C1136 1.334 . S
C1137 C1138 1.287 . S
C1138 C1137 1.287 . S
C1138 C1139 1.524 . S
C1138 H1157 0.913 . S
C1139 H1115 0.950 . S
C1139 C1138 1.524 . S
C1139 C1140 1.415 . S
C1140 H1116 0.950 . S
C1140 C1135 1.363 . S
C1140 C1139 1.415 . S
C1141 H1117 0.951 . S
C1141 C1142 1.366 . S
C1141 C1143 1.388 . S
C1142 C1141 1.366 . S
C1142 C1146 1.385 . S
C1143 H1118 0.951 . S
C1143 C1141 1.388 . S
C1143 C1144 1.366 . S
C1144 C1143 1.366 . S
C1144 C1145 1.414 . S
C1144 C1147 1.499 . S
C1145 H1119 0.950 . S
C1145 C1144 1.414 . S
C1145 C1146 1.374 . S
C1146 H1120 0.950 . S
C1146 C1142 1.385 . S
C1146 C1145 1.374 . S
C1147 C1144 1.499 . S
C1147 C1148 1.373 . S
C1147 C1149 1.389 . S
C1148 H1121 0.950 . S
C1148 C1134 1.377 1_556 S
C1148 C1147 1.373 . S
C1149 C1133 1.377 1_556 S
C1149 C1147 1.389 . S
C1149 C1150 1.524 . S
C1150 C1149 1.524 . S
C1150 C1151 1.397 . S
C1150 C1155 1.363 . S
C1151 H1122 0.950 . S
C1151 C1150 1.397 . S
C1151 C1152 1.334 . S
C1152 H1123 0.950 . S
C1152 C1151 1.334 . S
C1152 C1153 1.287 . S
C1153 C1152 1.287 . S
C1153 C1154 1.524 . S
C1153 H1156 0.999 . S
C1154 H1124 0.950 . S
C1154 C1153 1.524 . S
C1154 C1155 1.415 . S
C1155 H1125 0.950 . S
C1155 C1150 1.363 . S
C1155 C1154 1.415 . S
H1156 C1153 0.999 . S
H1157 C1138 0.913 . S
H1158 C1176 0.951 . S
H1159 C1178 0.951 . S
H1160 C1180 0.950 . S
H1161 C1181 0.950 . S
H1162 C1183 0.950 . S
H1163 C1186 0.950 . S
H1164 C1187 0.950 . S
H1165 C1189 0.950 . S
H1166 C1190 0.950 . S
H1167 C1191 0.951 . S
H1168 C1193 0.951 . S
H1169 C1195 0.950 . S
H1170 C1196 0.950 . S
H1171 C1198 0.950 . S
H1172 C1201 0.950 . S
H1173 C1202 0.950 . S
H1174 C1204 0.950 . S
H1175 C1205 0.950 . S
C1176 H1158 0.951 . S
C1176 C1177 1.366 . S
C1176 C1178 1.388 . S
C1177 C1176 1.366 . S
C1177 C1181 1.385 . S
C1178 H1159 0.951 . S
C1178 C1176 1.388 . S
C1178 C1179 1.366 . S
C1179 C1178 1.366 . S
C1179 C1180 1.414 . S
C1179 C1182 1.499 . S
C1180 H1160 0.950 . S
C1180 C1179 1.414 . S
C1180 C1181 1.374 . S
C1181 H1161 0.950 . S
C1181 C1177 1.385 . S
C1181 C1180 1.374 . S
C1182 C1179 1.499 . S
C1182 C1183 1.373 . S
C1182 C1184 1.389 . S
C1183 H1162 0.950 . S
C1183 C1182 1.373 . S
C1183 C1199 1.377 . S
C1184 C1182 1.389 . S
C1184 C1185 1.524 . S
C1184 C1198 1.377 . S
C1185 C1184 1.524 . S
C1185 C1186 1.397 . S
C1185 C1190 1.363 . S
C1186 H1163 0.950 . S
C1186 C1185 1.397 . S
C1186 C1187 1.334 . S
C1187 H1164 0.950 . S
C1187 C1186 1.334 . S
C1187 C1188 1.287 . S
C1188 C1187 1.287 . S
C1188 C1189 1.524 . S
C1188 H1207 0.913 . S
C1189 H1165 0.950 . S
C1189 C1188 1.524 . S
C1189 C1190 1.415 . S
C1190 H1166 0.950 . S
C1190 C1185 1.363 . S
C1190 C1189 1.415 . S
C1191 H1167 0.951 . S
C1191 C1192 1.366 . S
C1191 C1193 1.388 . S
C1192 C1191 1.366 . S
C1192 C1196 1.385 . S
C1193 H1168 0.951 . S
C1193 C1191 1.388 . S
C1193 C1194 1.366 . S
C1194 C1193 1.366 . S
C1194 C1195 1.414 . S
C1194 C1197 1.499 . S
C1195 H1169 0.950 . S
C1195 C1194 1.414 . S
C1195 C1196 1.374 . S
C1196 H1170 0.950 . S
C1196 C1192 1.385 . S
C1196 C1195 1.374 . S
C1197 C1194 1.499 . S
C1197 C1198 1.373 . S
C1197 C1199 1.389 . S
C1198 H1171 0.950 . S
C1198 C1184 1.377 . S
C1198 C1197 1.373 . S
C1199 C1183 1.377 . S
C1199 C1197 1.389 . S
C1199 C1200 1.524 . S
C1200 C1199 1.524 . S
C1200 C1201 1.397 . S
C1200 C1205 1.363 . S
C1201 H1172 0.950 . S
C1201 C1200 1.397 . S
C1201 C1202 1.334 . S
C1202 H1173 0.950 . S
C1202 C1201 1.334 . S
C1202 C1203 1.287 . S
C1203 C1202 1.287 . S
C1203 C1204 1.524 . S
C1203 H1206 0.999 . S
C1204 H1174 0.950 . S
C1204 C1203 1.524 . S
C1204 C1205 1.415 . S
C1205 H1175 0.950 . S
C1205 C1200 1.363 . S
C1205 C1204 1.415 . S
H1206 C1203 0.999 . S
H1207 C1188 0.913 . S
H1208 C1226 0.951 . S
H1209 C1228 0.951 . S
H1210 C1230 0.950 . S
H1211 C1231 0.950 . S
H1212 C1233 0.950 . S
H1213 C1236 0.950 . S
H1214 C1237 0.950 . S
H1215 C1239 0.950 . S
H1216 C1240 0.950 . S
H1217 C1241 0.951 . S
H1218 C1243 0.951 . S
H1219 C1245 0.950 . S
H1220 C1246 0.950 . S
H1221 C1248 0.950 . S
H1222 C1251 0.950 . S
H1223 C1252 0.950 . S
H1224 C1254 0.950 . S
H1225 C1255 0.950 . S
C1226 H1208 0.951 . S
C1226 C1227 1.366 . S
C1226 C1228 1.388 . S
C1227 C1226 1.366 . S
C1227 C1231 1.385 . S
C1228 H1209 0.951 . S
C1228 C1226 1.388 . S
C1228 C1229 1.366 . S
C1229 C1228 1.366 . S
C1229 C1230 1.414 . S
C1229 C1232 1.499 . S
C1230 H1210 0.950 . S
C1230 C1229 1.414 . S
C1230 C1231 1.374 . S
C1231 H1211 0.950 . S
C1231 C1227 1.385 . S
C1231 C1230 1.374 . S
C1232 C1229 1.499 . S
C1232 C1233 1.373 . S
C1232 C1234 1.389 . S
C1233 H1212 0.950 . S
C1233 C1232 1.373 . S
C1233 C1249 1.377 . S
C1234 C1232 1.389 . S
C1234 C1235 1.524 . S
C1234 C1248 1.377 . S
C1235 C1234 1.524 . S
C1235 C1236 1.397 . S
C1235 C1240 1.363 . S
C1236 H1213 0.950 . S
C1236 C1235 1.397 . S
C1236 C1237 1.334 . S
C1237 H1214 0.950 . S
C1237 C1236 1.334 . S
C1237 C1238 1.287 . S
C1238 C1237 1.287 . S
C1238 C1239 1.524 . S
C1238 H1257 0.913 . S
C1239 H1215 0.950 . S
C1239 C1238 1.524 . S
C1239 C1240 1.415 . S
C1240 H1216 0.950 . S
C1240 C1235 1.363 . S
C1240 C1239 1.415 . S
C1241 H1217 0.951 . S
C1241 C1242 1.366 . S
C1241 C1243 1.388 . S
C1242 C1241 1.366 . S
C1242 C1246 1.385 . S
C1243 H1218 0.951 . S
C1243 C1241 1.388 . S
C1243 C1244 1.366 . S
C1244 C1243 1.366 . S
C1244 C1245 1.414 . S
C1244 C1247 1.499 . S
C1245 H1219 0.950 . S
C1245 C1244 1.414 . S
C1245 C1246 1.374 . S
C1246 H1220 0.950 . S
C1246 C1242 1.385 . S
C1246 C1245 1.374 . S
C1247 C1244 1.499 . S
C1247 C1248 1.373 . S
C1247 C1249 1.389 . S
C1248 H1221 0.950 . S
C1248 C1234 1.377 . S
C1248 C1247 1.373 . S
C1249 C1233 1.377 . S
C1249 C1247 1.389 . S
C1249 C1250 1.524 . S
C1250 C1249 1.524 . S
C1250 C1251 1.397 . S
C1250 C1255 1.363 . S
C1251 H1222 0.950 . S
C1251 C1250 1.397 . S
C1251 C1252 1.334 . S
C1252 H1223 0.950 . S
C1252 C1251 1.334 . S
C1252 C1253 1.287 . S
C1253 C1252 1.287 . S
C1253 C1254 1.524 . S
C1253 H1256 0.999 . S
C1254 H1224 0.950 . S
C1254 C1253 1.524 . S
C1254 C1255 1.415 . S
C1255 H1225 0.950 . S
C1255 C1250 1.363 . S
C1255 C1254 1.415 . S
H1256 C1253 0.999 . S
H1257 C1238 0.913 . S
H1258 C1276 0.951 . S
H1259 C1278 0.951 . S
H1260 C1280 0.950 . S
H1261 C1281 0.950 . S
H1262 C1283 0.950 . S
H1263 C1286 0.950 . S
H1264 C1287 0.950 . S
H1265 C1289 0.950 . S
H1266 C1290 0.950 . S
H1267 C1291 0.951 . S
H1268 C1293 0.951 . S
H1269 C1295 0.950 . S
H1270 C1296 0.950 . S
H1271 C1298 0.950 . S
H1272 C1301 0.950 . S
H1273 C1302 0.950 . S
H1274 C1304 0.950 . S
H1275 C1305 0.950 . S
C1276 H1258 0.951 . S
C1276 C1277 1.366 . S
C1276 C1278 1.388 . S
C1277 C1276 1.366 . S
C1277 C1281 1.385 . S
C1278 H1259 0.951 . S
C1278 C1276 1.388 . S
C1278 C1279 1.366 . S
C1279 C1278 1.366 . S
C1279 C1280 1.414 . S
C1279 C1282 1.499 . S
C1280 H1260 0.950 . S
C1280 C1279 1.414 . S
C1280 C1281 1.374 . S
C1281 H1261 0.950 . S
C1281 C1277 1.385 . S
C1281 C1280 1.374 . S
C1282 C1279 1.499 . S
C1282 C1283 1.373 . S
C1282 C1284 1.389 . S
C1283 H1262 0.950 . S
C1283 C1282 1.373 . S
C1283 C1299 1.377 1_556 S
C1284 C1282 1.389 . S
C1284 C1285 1.524 . S
C1284 C1298 1.377 1_556 S
C1285 C1284 1.524 . S
C1285 C1286 1.397 . S
C1285 C1290 1.363 . S
C1286 H1263 0.950 . S
C1286 C1285 1.397 . S
C1286 C1287 1.334 . S
C1287 H1264 0.950 . S
C1287 C1286 1.334 . S
C1287 C1288 1.287 . S
C1288 C1287 1.287 . S
C1288 C1289 1.524 . S
C1288 H1307 0.913 . S
C1289 H1265 0.950 . S
C1289 C1288 1.524 . S
C1289 C1290 1.415 . S
C1290 H1266 0.950 . S
C1290 C1285 1.363 . S
C1290 C1289 1.415 . S
C1291 H1267 0.951 . S
C1291 C1292 1.366 . S
C1291 C1293 1.388 . S
C1292 C1291 1.366 . S
C1292 C1296 1.385 . S
C1293 H1268 0.951 . S
C1293 C1291 1.388 . S
C1293 C1294 1.366 . S
C1294 C1293 1.366 . S
C1294 C1295 1.414 . S
C1294 C1297 1.499 . S
C1295 H1269 0.950 . S
C1295 C1294 1.414 . S
C1295 C1296 1.374 . S
C1296 H1270 0.950 . S
C1296 C1292 1.385 . S
C1296 C1295 1.374 . S
C1297 C1294 1.499 . S
C1297 C1298 1.373 . S
C1297 C1299 1.389 . S
C1298 H1271 0.950 . S
C1298 C1284 1.377 1_554 S
C1298 C1297 1.373 . S
C1299 C1283 1.377 1_554 S
C1299 C1297 1.389 . S
C1299 C1300 1.524 . S
C1300 C1299 1.524 . S
C1300 C1301 1.397 . S
C1300 C1305 1.363 . S
C1301 H1272 0.950 . S
C1301 C1300 1.397 . S
C1301 C1302 1.334 . S
C1302 H1273 0.950 . S
C1302 C1301 1.334 . S
C1302 C1303 1.287 . S
C1303 C1302 1.287 . S
C1303 C1304 1.524 . S
C1303 H1306 0.999 . S
C1304 H1274 0.950 . S
C1304 C1303 1.524 . S
C1304 C1305 1.415 . S
C1305 H1275 0.950 . S
C1305 C1300 1.363 . S
C1305 C1304 1.415 . S
H1306 C1303 0.999 . S
H1307 C1288 0.913 . S
H1308 C1326 0.951 . S
H1309 C1328 0.951 . S
H1310 C1330 0.950 . S
H1311 C1331 0.950 . S
H1312 C1333 0.950 . S
H1313 C1336 0.950 . S
H1314 C1337 0.950 . S
H1315 C1339 0.950 . S
H1316 C1340 0.950 . S
H1317 C1341 0.951 . S
H1318 C1343 0.951 . S
H1319 C1345 0.950 . S
H1320 C1346 0.950 . S
H1321 C1348 0.950 . S
H1322 C1351 0.950 . S
H1323 C1352 0.950 . S
H1324 C1354 0.950 . S
H1325 C1355 0.950 . S
C1326 H1308 0.951 . S
C1326 C1327 1.366 . S
C1326 C1328 1.388 . S
C1327 C1326 1.366 . S
C1327 C1331 1.385 . S
C1328 H1309 0.951 . S
C1328 C1326 1.388 . S
C1328 C1329 1.366 . S
C1329 C1328 1.366 . S
C1329 C1330 1.414 . S
C1329 C1332 1.499 . S
C1330 H1310 0.950 . S
C1330 C1329 1.414 . S
C1330 C1331 1.374 . S
C1331 H1311 0.950 . S
C1331 C1327 1.385 . S
C1331 C1330 1.374 . S
C1332 C1329 1.499 . S
C1332 C1333 1.373 . S
C1332 C1334 1.389 . S
C1333 H1312 0.950 . S
C1333 C1332 1.373 . S
C1333 C1349 1.377 . S
C1334 C1332 1.389 . S
C1334 C1335 1.524 . S
C1334 C1348 1.377 . S
C1335 C1334 1.524 . S
C1335 C1336 1.397 . S
C1335 C1340 1.363 . S
C1336 H1313 0.950 . S
C1336 C1335 1.397 . S
C1336 C1337 1.334 . S
C1337 H1314 0.950 . S
C1337 C1336 1.334 . S
C1337 C1338 1.287 . S
C1338 C1337 1.287 . S
C1338 C1339 1.524 . S
C1338 H1357 0.913 . S
C1339 H1315 0.950 . S
C1339 C1338 1.524 . S
C1339 C1340 1.415 . S
C1340 H1316 0.950 . S
C1340 C1335 1.363 . S
C1340 C1339 1.415 . S
C1341 H1317 0.951 . S
C1341 C1342 1.366 . S
C1341 C1343 1.388 . S
C1342 C1341 1.366 . S
C1342 C1346 1.385 . S
C1343 H1318 0.951 . S
C1343 C1341 1.388 . S
C1343 C1344 1.366 . S
C1344 C1343 1.366 . S
C1344 C1345 1.414 . S
C1344 C1347 1.499 . S
C1345 H1319 0.950 . S
C1345 C1344 1.414 . S
C1345 C1346 1.374 . S
C1346 H1320 0.950 . S
C1346 C1342 1.385 . S
C1346 C1345 1.374 . S
C1347 C1344 1.499 . S
C1347 C1348 1.373 . S
C1347 C1349 1.389 . S
C1348 H1321 0.950 . S
C1348 C1334 1.377 . S
C1348 C1347 1.373 . S
C1349 C1333 1.377 . S
C1349 C1347 1.389 . S
C1349 C1350 1.524 . S
C1350 C1349 1.524 . S
C1350 C1351 1.397 . S
C1350 C1355 1.363 . S
C1351 H1322 0.950 . S
C1351 C1350 1.397 . S
C1351 C1352 1.334 . S
C1352 H1323 0.950 . S
C1352 C1351 1.334 . S
C1352 C1353 1.287 . S
C1353 C1352 1.287 . S
C1353 C1354 1.524 . S
C1353 H1356 0.999 . S
C1354 H1324 0.950 . S
C1354 C1353 1.524 . S
C1354 C1355 1.415 . S
C1355 H1325 0.950 . S
C1355 C1350 1.363 . S
C1355 C1354 1.415 . S
H1356 C1353 0.999 . S
H1357 C1338 0.913 . S
H1358 C1376 0.951 . S
H1359 C1378 0.951 . S
H1360 C1380 0.950 . S
H1361 C1381 0.950 . S
H1362 C1383 0.950 . S
H1363 C1386 0.950 . S
H1364 C1387 0.950 . S
H1365 C1389 0.950 . S
H1366 C1390 0.950 . S
H1367 C1391 0.951 . S
H1368 C1393 0.951 . S
H1369 C1395 0.950 . S
H1370 C1396 0.950 . S
H1371 C1398 0.950 . S
H1372 C1401 0.950 . S
H1373 C1402 0.950 . S
H1374 C1404 0.950 . S
H1375 C1405 0.950 . S
C1376 H1358 0.951 . S
C1376 C1377 1.366 . S
C1376 C1378 1.388 . S
C1377 C1376 1.366 . S
C1377 C1381 1.385 . S
C1378 H1359 0.951 . S
C1378 C1376 1.388 . S
C1378 C1379 1.366 . S
C1379 C1378 1.366 . S
C1379 C1380 1.414 . S
C1379 C1382 1.499 . S
C1380 H1360 0.950 . S
C1380 C1379 1.414 . S
C1380 C1381 1.374 . S
C1381 H1361 0.950 . S
C1381 C1377 1.385 . S
C1381 C1380 1.374 . S
C1382 C1379 1.499 . S
C1382 C1383 1.373 . S
C1382 C1384 1.389 . S
C1383 H1362 0.950 . S
C1383 C1382 1.373 . S
C1383 C1399 1.377 1_554 S
C1384 C1382 1.389 . S
C1384 C1385 1.524 . S
C1384 C1398 1.377 1_554 S
C1385 C1384 1.524 . S
C1385 C1386 1.397 . S
C1385 C1390 1.363 . S
C1386 H1363 0.950 . S
C1386 C1385 1.397 . S
C1386 C1387 1.334 . S
C1387 H1364 0.950 . S
C1387 C1386 1.334 . S
C1387 C1388 1.287 . S
C1388 C1387 1.287 . S
C1388 C1389 1.524 . S
C1388 H1407 0.913 . S
C1389 H1365 0.950 . S
C1389 C1388 1.524 . S
C1389 C1390 1.415 . S
C1390 H1366 0.950 . S
C1390 C1385 1.363 . S
C1390 C1389 1.415 . S
C1391 H1367 0.951 . S
C1391 C1392 1.366 . S
C1391 C1393 1.388 . S
C1392 C1391 1.366 . S
C1392 C1396 1.385 . S
C1393 H1368 0.951 . S
C1393 C1391 1.388 . S
C1393 C1394 1.366 . S
C1394 C1393 1.366 . S
C1394 C1395 1.414 . S
C1394 C1397 1.499 . S
C1395 H1369 0.950 . S
C1395 C1394 1.414 . S
C1395 C1396 1.374 . S
C1396 H1370 0.950 . S
C1396 C1392 1.385 . S
C1396 C1395 1.374 . S
C1397 C1394 1.499 . S
C1397 C1398 1.373 . S
C1397 C1399 1.389 . S
C1398 H1371 0.950 . S
C1398 C1384 1.377 1_556 S
C1398 C1397 1.373 . S
C1399 C1383 1.377 1_556 S
C1399 C1397 1.389 . S
C1399 C1400 1.524 . S
C1400 C1399 1.524 . S
C1400 C1401 1.397 . S
C1400 C1405 1.363 . S
C1401 H1372 0.950 . S
C1401 C1400 1.397 . S
C1401 C1402 1.334 . S
C1402 H1373 0.950 . S
C1402 C1401 1.334 . S
C1402 C1403 1.287 . S
C1403 C1402 1.287 . S
C1403 C1404 1.524 . S
C1403 H1406 0.999 . S
C1404 H1374 0.950 . S
C1404 C1403 1.524 . S
C1404 C1405 1.415 . S
C1405 H1375 0.950 . S
C1405 C1400 1.363 . S
C1405 C1404 1.415 . S
H1406 C1403 0.999 . S
H1407 C1388 0.913 . S
H1408 C1426 0.951 . S
H1409 C1428 0.951 . S
H1410 C1430 0.950 . S
H1411 C1431 0.950 . S
H1412 C1433 0.950 . S
H1413 C1436 0.950 . S
H1414 C1437 0.950 . S
H1415 C1439 0.950 . S
H1416 C1440 0.950 . S
H1417 C1441 0.951 . S
H1418 C1443 0.951 . S
H1419 C1445 0.950 . S
H1420 C1446 0.950 . S
H1421 C1448 0.950 . S
H1422 C1451 0.950 . S
H1423 C1452 0.950 . S
H1424 C1454 0.950 . S
H1425 C1455 0.950 . S
C1426 H1408 0.951 . S
C1426 C1427 1.366 . S
C1426 C1428 1.388 . S
C1427 C1426 1.366 . S
C1427 C1431 1.385 . S
C1428 H1409 0.951 . S
C1428 C1426 1.388 . S
C1428 C1429 1.366 . S
C1429 C1428 1.366 . S
C1429 C1430 1.414 . S
C1429 C1432 1.499 . S
C1430 H1410 0.950 . S
C1430 C1429 1.414 . S
C1430 C1431 1.374 . S
C1431 H1411 0.950 . S
C1431 C1427 1.385 . S
C1431 C1430 1.374 . S
C1432 C1429 1.499 . S
C1432 C1433 1.373 . S
C1432 C1434 1.389 . S
C1433 H1412 0.950 . S
C1433 C1432 1.373 . S
C1433 C1449 1.377 . S
C1434 C1432 1.389 . S
C1434 C1435 1.524 . S
C1434 C1448 1.377 . S
C1435 C1434 1.524 . S
C1435 C1436 1.397 . S
C1435 C1440 1.363 . S
C1436 H1413 0.950 . S
C1436 C1435 1.397 . S
C1436 C1437 1.334 . S
C1437 H1414 0.950 . S
C1437 C1436 1.334 . S
C1437 C1438 1.287 . S
C1438 C1437 1.287 . S
C1438 C1439 1.524 . S
C1438 H1457 0.913 . S
C1439 H1415 0.950 . S
C1439 C1438 1.524 . S
C1439 C1440 1.415 . S
C1440 H1416 0.950 . S
C1440 C1435 1.363 . S
C1440 C1439 1.415 . S
C1441 H1417 0.951 . S
C1441 C1442 1.366 . S
C1441 C1443 1.388 . S
C1442 C1441 1.366 . S
C1442 C1446 1.385 . S
C1443 H1418 0.951 . S
C1443 C1441 1.388 . S
C1443 C1444 1.366 . S
C1444 C1443 1.366 . S
C1444 C1445 1.414 . S
C1444 C1447 1.499 . S
C1445 H1419 0.950 . S
C1445 C1444 1.414 . S
C1445 C1446 1.374 . S
C1446 H1420 0.950 . S
C1446 C1442 1.385 . S
C1446 C1445 1.374 . S
C1447 C1444 1.499 . S
C1447 C1448 1.373 . S
C1447 C1449 1.389 . S
C1448 H1421 0.950 . S
C1448 C1434 1.377 . S
C1448 C1447 1.373 . S
C1449 C1433 1.377 . S
C1449 C1447 1.389 . S
C1449 C1450 1.524 . S
C1450 C1449 1.524 . S
C1450 C1451 1.397 . S
C1450 C1455 1.363 . S
C1451 H1422 0.950 . S
C1451 C1450 1.397 . S
C1451 C1452 1.334 . S
C1452 H1423 0.950 . S
C1452 C1451 1.334 . S
C1452 C1453 1.287 . S
C1453 C1452 1.287 . S
C1453 C1454 1.524 . S
C1453 H1456 0.999 . S
C1454 H1424 0.950 . S
C1454 C1453 1.524 . S
C1454 C1455 1.415 . S
C1455 H1425 0.950 . S
C1455 C1450 1.363 . S
C1455 C1454 1.415 . S
H1456 C1453 0.999 . S
H1457 C1438 0.913 . S
H1458 C1476 0.951 . S
H1459 C1478 0.951 . S
H1460 C1480 0.950 . S
H1461 C1481 0.950 . S
H1462 C1483 0.950 . S
H1463 C1486 0.950 . S
H1464 C1487 0.950 . S
H1465 C1489 0.950 . S
H1466 C1490 0.950 . S
H1467 C1491 0.951 . S
H1468 C1493 0.951 . S
H1469 C1495 0.950 . S
H1470 C1496 0.950 . S
H1471 C1498 0.950 . S
H1472 C1501 0.950 . S
H1473 C1502 0.950 . S
H1474 C1504 0.950 . S
H1475 C1505 0.950 . S
C1476 H1458 0.951 . S
C1476 C1477 1.366 . S
C1476 C1478 1.388 . S
C1477 C1476 1.366 . S
C1477 C1481 1.385 . S
C1478 H1459 0.951 . S
C1478 C1476 1.388 . S
C1478 C1479 1.366 . S
C1479 C1478 1.366 . S
C1479 C1480 1.414 . S
C1479 C1482 1.499 . S
C1480 H1460 0.950 . S
C1480 C1479 1.414 . S
C1480 C1481 1.374 . S
C1481 H1461 0.950 . S
C1481 C1477 1.385 . S
C1481 C1480 1.374 . S
C1482 C1479 1.499 . S
C1482 C1483 1.373 . S
C1482 C1484 1.389 . S
C1483 H1462 0.950 . S
C1483 C1482 1.373 . S
C1483 C1499 1.377 . S
C1484 C1482 1.389 . S
C1484 C1485 1.524 . S
C1484 C1498 1.377 . S
C1485 C1484 1.524 . S
C1485 C1486 1.397 . S
C1485 C1490 1.363 . S
C1486 H1463 0.950 . S
C1486 C1485 1.397 . S
C1486 C1487 1.334 . S
C1487 H1464 0.950 . S
C1487 C1486 1.334 . S
C1487 C1488 1.287 . S
C1488 C1487 1.287 . S
C1488 C1489 1.524 . S
C1488 H1507 0.913 . S
C1489 H1465 0.950 . S
C1489 C1488 1.524 . S
C1489 C1490 1.415 . S
C1490 H1466 0.950 . S
C1490 C1485 1.363 . S
C1490 C1489 1.415 . S
C1491 H1467 0.951 . S
C1491 C1492 1.366 . S
C1491 C1493 1.388 . S
C1492 C1491 1.366 . S
C1492 C1496 1.385 . S
C1493 H1468 0.951 . S
C1493 C1491 1.388 . S
C1493 C1494 1.366 . S
C1494 C1493 1.366 . S
C1494 C1495 1.414 . S
C1494 C1497 1.499 . S
C1495 H1469 0.950 . S
C1495 C1494 1.414 . S
C1495 C1496 1.374 . S
C1496 H1470 0.950 . S
C1496 C1492 1.385 . S
C1496 C1495 1.374 . S
C1497 C1494 1.499 . S
C1497 C1498 1.373 . S
C1497 C1499 1.389 . S
C1498 H1471 0.950 . S
C1498 C1484 1.377 . S
C1498 C1497 1.373 . S
C1499 C1483 1.377 . S
C1499 C1497 1.389 . S
C1499 C1500 1.524 . S
C1500 C1499 1.524 . S
C1500 C1501 1.397 . S
C1500 C1505 1.363 . S
C1501 H1472 0.950 . S
C1501 C1500 1.397 . S
C1501 C1502 1.334 . S
C1502 H1473 0.950 . S
C1502 C1501 1.334 . S
C1502 C1503 1.287 . S
C1503 C1502 1.287 . S
C1503 C1504 1.524 . S
C1503 H1506 0.999 . S
C1504 H1474 0.950 . S
C1504 C1503 1.524 . S
C1504 C1505 1.415 . S
C1505 H1475 0.950 . S
C1505 C1500 1.363 . S
C1505 C1504 1.415 . S
H1506 C1503 0.999 . S
H1507 C1488 0.913 . S
H1508 C1526 0.951 . S
H1509 C1528 0.951 . S
H1510 C1530 0.950 . S
H1511 C1531 0.950 . S
H1512 C1533 0.950 . S
H1513 C1536 0.950 . S
H1514 C1537 0.950 . S
H1515 C1539 0.950 . S
H1516 C1540 0.950 . S
H1517 C1541 0.951 . S
H1518 C1543 0.951 . S
H1519 C1545 0.950 . S
H1520 C1546 0.950 . S
H1521 C1548 0.950 . S
H1522 C1551 0.950 . S
H1523 C1552 0.950 . S
H1524 C1554 0.950 . S
H1525 C1555 0.950 . S
C1526 H1508 0.951 . S
C1526 C1527 1.366 . S
C1526 C1528 1.388 . S
C1527 C1526 1.366 . S
C1527 C1531 1.385 . S
C1528 H1509 0.951 . S
C1528 C1526 1.388 . S
C1528 C1529 1.366 . S
C1529 C1528 1.366 . S
C1529 C1530 1.414 . S
C1529 C1532 1.499 . S
C1530 H1510 0.950 . S
C1530 C1529 1.414 . S
C1530 C1531 1.374 . S
C1531 H1511 0.950 . S
C1531 C1527 1.385 . S
C1531 C1530 1.374 . S
C1532 C1529 1.499 . S
C1532 C1533 1.373 . S
C1532 C1534 1.389 . S
C1533 H1512 0.950 . S
C1533 C1532 1.373 . S
C1533 C1549 1.377 . S
C1534 C1532 1.389 . S
C1534 C1535 1.524 . S
C1534 C1548 1.377 . S
C1535 C1534 1.524 . S
C1535 C1536 1.397 . S
C1535 C1540 1.363 . S
C1536 H1513 0.950 . S
C1536 C1535 1.397 . S
C1536 C1537 1.334 . S
C1537 H1514 0.950 . S
C1537 C1536 1.334 . S
C1537 C1538 1.287 . S
C1538 C1537 1.287 . S
C1538 C1539 1.524 . S
C1538 H1557 0.913 . S
C1539 H1515 0.950 . S
C1539 C1538 1.524 . S
C1539 C1540 1.415 . S
C1540 H1516 0.950 . S
C1540 C1535 1.363 . S
C1540 C1539 1.415 . S
C1541 H1517 0.951 . S
C1541 C1542 1.366 . S
C1541 C1543 1.388 . S
C1542 C1541 1.366 . S
C1542 C1546 1.385 . S
C1543 H1518 0.951 . S
C1543 C1541 1.388 . S
C1543 C1544 1.366 . S
C1544 C1543 1.366 . S
C1544 C1545 1.414 . S
C1544 C1547 1.499 . S
C1545 H1519 0.950 . S
C1545 C1544 1.414 . S
C1545 C1546 1.374 . S
C1546 H1520 0.950 . S
C1546 C1542 1.385 . S
C1546 C1545 1.374 . S
C1547 C1544 1.499 . S
C1547 C1548 1.373 . S
C1547 C1549 1.389 . S
C1548 H1521 0.950 . S
C1548 C1534 1.377 . S
C1548 C1547 1.373 . S
C1549 C1533 1.377 . S
C1549 C1547 1.389 . S
C1549 C1550 1.524 . S
C1550 C1549 1.524 . S
C1550 C1551 1.397 . S
C1550 C1555 1.363 . S
C1551 H1522 0.950 . S
C1551 C1550 1.397 . S
C1551 C1552 1.334 . S
C1552 H1523 0.950 . S
C1552 C1551 1.334 . S
C1552 C1553 1.287 . S
C1553 C1552 1.287 . S
C1553 C1554 1.524 . S
C1553 H1556 0.999 . S
C1554 H1524 0.950 . S
C1554 C1553 1.524 . S
C1554 C1555 1.415 . S
C1555 H1525 0.950 . S
C1555 C1550 1.363 . S
C1555 C1554 1.415 . S
H1556 C1553 0.999 . S
H1557 C1538 0.913 . S
H1558 C1576 0.951 . S
H1559 C1578 0.951 . S
H1560 C1580 0.950 . S
H1561 C1581 0.950 . S
H1562 C1583 0.950 . S
H1563 C1586 0.950 . S
H1564 C1587 0.950 . S
H1565 C1589 0.950 . S
H1566 C1590 0.950 . S
H1567 C1591 0.951 . S
H1568 C1593 0.951 . S
H1569 C1595 0.950 . S
H1570 C1596 0.950 . S
H1571 C1598 0.950 . S
H1572 C1601 0.950 . S
H1573 C1602 0.950 . S
H1574 C1604 0.950 . S
H1575 C1605 0.950 . S
C1576 H1558 0.951 . S
C1576 C1577 1.366 . S
C1576 C1578 1.388 . S
C1577 C1576 1.366 . S
C1577 C1581 1.385 . S
C1578 H1559 0.951 . S
C1578 C1576 1.388 . S
C1578 C1579 1.366 . S
C1579 C1578 1.366 . S
C1579 C1580 1.414 . S
C1579 C1582 1.499 . S
C1580 H1560 0.950 . S
C1580 C1579 1.414 . S
C1580 C1581 1.374 . S
C1581 H1561 0.950 . S
C1581 C1577 1.385 . S
C1581 C1580 1.374 . S
C1582 C1579 1.499 . S
C1582 C1583 1.373 . S
C1582 C1584 1.389 . S
C1583 H1562 0.950 . S
C1583 C1582 1.373 . S
C1583 C1599 1.377 . S
C1584 C1582 1.389 . S
C1584 C1585 1.524 . S
C1584 C1598 1.377 . S
C1585 C1584 1.524 . S
C1585 C1586 1.397 . S
C1585 C1590 1.363 . S
C1586 H1563 0.950 . S
C1586 C1585 1.397 . S
C1586 C1587 1.334 . S
C1587 H1564 0.950 . S
C1587 C1586 1.334 . S
C1587 C1588 1.287 . S
C1588 C1587 1.287 . S
C1588 C1589 1.524 . S
C1588 H1607 0.913 . S
C1589 H1565 0.950 . S
C1589 C1588 1.524 . S
C1589 C1590 1.415 . S
C1590 H1566 0.950 . S
C1590 C1585 1.363 . S
C1590 C1589 1.415 . S
C1591 H1567 0.951 . S
C1591 C1592 1.366 . S
C1591 C1593 1.388 . S
C1592 C1591 1.366 . S
C1592 C1596 1.385 . S
C1593 H1568 0.951 . S
C1593 C1591 1.388 . S
C1593 C1594 1.366 . S
C1594 C1593 1.366 . S
C1594 C1595 1.414 . S
C1594 C1597 1.499 . S
C1595 H1569 0.950 . S
C1595 C1594 1.414 . S
C1595 C1596 1.374 . S
C1596 H1570 0.950 . S
C1596 C1592 1.385 . S
C1596 C1595 1.374 . S
C1597 C1594 1.499 . S
C1597 C1598 1.373 . S
C1597 C1599 1.389 . S
C1598 H1571 0.950 . S
C1598 C1584 1.377 . S
C1598 C1597 1.373 . S
C1599 C1583 1.377 . S
C1599 C1597 1.389 . S
C1599 C1600 1.524 . S
C1600 C1599 1.524 . S
C1600 C1601 1.397 . S
C1600 C1605 1.363 . S
C1601 H1572 0.950 . S
C1601 C1600 1.397 . S
C1601 C1602 1.334 . S
C1602 H1573 0.950 . S
C1602 C1601 1.334 . S
C1602 C1603 1.287 . S
C1603 C1602 1.287 . S
C1603 C1604 1.524 . S
C1603 H1606 0.999 . S
C1604 H1574 0.950 . S
C1604 C1603 1.524 . S
C1604 C1605 1.415 . S
C1605 H1575 0.950 . S
C1605 C1600 1.363 . S
C1605 C1604 1.415 . S
H1606 C1603 0.999 . S
H1607 C1588 0.913 . S
H1608 C1626 0.951 . S
H1609 C1628 0.951 . S
H1610 C1630 0.950 . S
H1611 C1631 0.950 . S
H1612 C1633 0.950 . S
H1613 C1636 0.950 . S
H1614 C1637 0.950 . S
H1615 C1639 0.950 . S
H1616 C1640 0.950 . S
H1617 C1641 0.951 . S
H1618 C1643 0.951 . S
H1619 C1645 0.950 . S
H1620 C1646 0.950 . S
H1621 C1648 0.950 . S
H1622 C1651 0.950 . S
H1623 C1652 0.950 . S
H1624 C1654 0.950 . S
H1625 C1655 0.950 . S
C1626 H1608 0.951 . S
C1626 C1627 1.366 . S
C1626 C1628 1.388 . S
C1627 C1626 1.366 . S
C1627 C1631 1.385 . S
C1628 H1609 0.951 . S
C1628 C1626 1.388 . S
C1628 C1629 1.366 . S
C1629 C1628 1.366 . S
C1629 C1630 1.414 . S
C1629 C1632 1.499 . S
C1630 H1610 0.950 . S
C1630 C1629 1.414 . S
C1630 C1631 1.374 . S
C1631 H1611 0.950 . S
C1631 C1627 1.385 . S
C1631 C1630 1.374 . S
C1632 C1629 1.499 . S
C1632 C1633 1.373 . S
C1632 C1634 1.389 . S
C1633 H1612 0.950 . S
C1633 C1632 1.373 . S
C1633 C1649 1.377 . S
C1634 C1632 1.389 . S
C1634 C1635 1.524 . S
C1634 C1648 1.377 . S
C1635 C1634 1.524 . S
C1635 C1636 1.397 . S
C1635 C1640 1.363 . S
C1636 H1613 0.950 . S
C1636 C1635 1.397 . S
C1636 C1637 1.334 . S
C1637 H1614 0.950 . S
C1637 C1636 1.334 . S
C1637 C1638 1.287 . S
C1638 C1637 1.287 . S
C1638 C1639 1.524 . S
C1638 H1657 0.913 . S
C1639 H1615 0.950 . S
C1639 C1638 1.524 . S
C1639 C1640 1.415 . S
C1640 H1616 0.950 . S
C1640 C1635 1.363 . S
C1640 C1639 1.415 . S
C1641 H1617 0.951 . S
C1641 C1642 1.366 . S
C1641 C1643 1.388 . S
C1642 C1641 1.366 . S
C1642 C1646 1.385 . S
C1643 H1618 0.951 . S
C1643 C1641 1.388 . S
C1643 C1644 1.366 . S
C1644 C1643 1.366 . S
C1644 C1645 1.414 . S
C1644 C1647 1.499 . S
C1645 H1619 0.950 . S
C1645 C1644 1.414 . S
C1645 C1646 1.374 . S
C1646 H1620 0.950 . S
C1646 C1642 1.385 . S
C1646 C1645 1.374 . S
C1647 C1644 1.499 . S
C1647 C1648 1.373 . S
C1647 C1649 1.389 . S
C1648 H1621 0.950 . S
C1648 C1634 1.377 . S
C1648 C1647 1.373 . S
C1649 C1633 1.377 . S
C1649 C1647 1.389 . S
C1649 C1650 1.524 . S
C1650 C1649 1.524 . S
C1650 C1651 1.397 . S
C1650 C1655 1.363 . S
C1651 H1622 0.950 . S
C1651 C1650 1.397 . S
C1651 C1652 1.334 . S
C1652 H1623 0.950 . S
C1652 C1651 1.334 . S
C1652 C1653 1.287 . S
C1653 C1652 1.287 . S
C1653 C1654 1.524 . S
C1653 H1656 0.999 . S
C1654 H1624 0.950 . S
C1654 C1653 1.524 . S
C1654 C1655 1.415 . S
C1655 H1625 0.950 . S
C1655 C1650 1.363 . S
C1655 C1654 1.415 . S
H1656 C1653 0.999 . S
H1657 C1638 0.913 . S
H1658 C1676 0.951 . S
H1659 C1678 0.951 . S
H1660 C1680 0.950 . S
H1661 C1681 0.950 . S
H1662 C1683 0.950 . S
H1663 C1686 0.950 . S
H1664 C1687 0.950 . S
H1665 C1689 0.950 . S
H1666 C1690 0.950 . S
H1667 C1691 0.951 . S
H1668 C1693 0.951 . S
H1669 C1695 0.950 . S
H1670 C1696 0.950 . S
H1671 C1698 0.950 . S
H1672 C1701 0.950 . S
H1673 C1702 0.950 . S
H1674 C1704 0.950 . S
H1675 C1705 0.950 . S
C1676 H1658 0.951 . S
C1676 C1677 1.366 . S
C1676 C1678 1.388 . S
C1677 C1676 1.366 . S
C1677 C1681 1.385 . S
C1678 H1659 0.951 . S
C1678 C1676 1.388 . S
C1678 C1679 1.366 . S
C1679 C1678 1.366 . S
C1679 C1680 1.414 . S
C1679 C1682 1.499 . S
C1680 H1660 0.950 . S
C1680 C1679 1.414 . S
C1680 C1681 1.374 . S
C1681 H1661 0.950 . S
C1681 C1677 1.385 . S
C1681 C1680 1.374 . S
C1682 C1679 1.499 . S
C1682 C1683 1.373 . S
C1682 C1684 1.389 . S
C1683 H1662 0.950 . S
C1683 C1682 1.373 . S
C1683 C1699 1.377 . S
C1684 C1682 1.389 . S
C1684 C1685 1.524 . S
C1684 C1698 1.377 . S
C1685 C1684 1.524 . S
C1685 C1686 1.397 . S
C1685 C1690 1.363 . S
C1686 H1663 0.950 . S
C1686 C1685 1.397 . S
C1686 C1687 1.334 . S
C1687 H1664 0.950 . S
C1687 C1686 1.334 . S
C1687 C1688 1.287 . S
C1688 C1687 1.287 . S
C1688 C1689 1.524 . S
C1688 H1707 0.913 . S
C1689 H1665 0.950 . S
C1689 C1688 1.524 . S
C1689 C1690 1.415 . S
C1690 H1666 0.950 . S
C1690 C1685 1.363 . S
C1690 C1689 1.415 . S
C1691 H1667 0.951 . S
C1691 C1692 1.366 . S
C1691 C1693 1.388 . S
C1692 C1691 1.366 . S
C1692 C1696 1.385 . S
C1693 H1668 0.951 . S
C1693 C1691 1.388 . S
C1693 C1694 1.366 . S
C1694 C1693 1.366 . S
C1694 C1695 1.414 . S
C1694 C1697 1.499 . S
C1695 H1669 0.950 . S
C1695 C1694 1.414 . S
C1695 C1696 1.374 . S
C1696 H1670 0.950 . S
C1696 C1692 1.385 . S
C1696 C1695 1.374 . S
C1697 C1694 1.499 . S
C1697 C1698 1.373 . S
C1697 C1699 1.389 . S
C1698 H1671 0.950 . S
C1698 C1684 1.377 . S
C1698 C1697 1.373 . S
C1699 C1683 1.377 . S
C1699 C1697 1.389 . S
C1699 C1700 1.524 . S
C1700 C1699 1.524 . S
C1700 C1701 1.397 . S
C1700 C1705 1.363 . S
C1701 H1672 0.950 . S
C1701 C1700 1.397 . S
C1701 C1702 1.334 . S
C1702 H1673 0.950 . S
C1702 C1701 1.334 . S
C1702 C1703 1.287 . S
C1703 C1702 1.287 . S
C1703 C1704 1.524 . S
C1703 H1706 0.999 . S
C1704 H1674 0.950 . S
C1704 C1703 1.524 . S
C1704 C1705 1.415 . S
C1705 H1675 0.950 . S
C1705 C1700 1.363 . S
C1705 C1704 1.415 . S
H1706 C1703 0.999 . S
H1707 C1688 0.913 . S
H1708 C1726 0.951 . S
H1709 C1728 0.951 . S
H1710 C1730 0.950 . S
H1711 C1731 0.950 . S
H1712 C1733 0.950 . S
H1713 C1736 0.950 . S
H1714 C1737 0.950 . S
H1715 C1739 0.950 . S
H1716 C1740 0.950 . S
H1717 C1741 0.951 . S
H1718 C1743 0.951 . S
H1719 C1745 0.950 . S
H1720 C1746 0.950 . S
H1721 C1748 0.950 . S
H1722 C1751 0.950 . S
H1723 C1752 0.950 . S
H1724 C1754 0.950 . S
H1725 C1755 0.950 . S
C1726 H1708 0.951 . S
C1726 C1727 1.366 . S
C1726 C1728 1.388 . S
C1727 C1726 1.366 . S
C1727 C1731 1.385 . S
C1728 H1709 0.951 . S
C1728 C1726 1.388 . S
C1728 C1729 1.366 . S
C1729 C1728 1.366 . S
C1729 C1730 1.414 . S
C1729 C1732 1.499 . S
C1730 H1710 0.950 . S
C1730 C1729 1.414 . S
C1730 C1731 1.374 . S
C1731 H1711 0.950 . S
C1731 C1727 1.385 . S
C1731 C1730 1.374 . S
C1732 C1729 1.499 . S
C1732 C1733 1.373 . S
C1732 C1734 1.389 . S
C1733 H1712 0.950 . S
C1733 C1732 1.373 . S
C1733 C1749 1.377 . S
C1734 C1732 1.389 . S
C1734 C1735 1.524 . S
C1734 C1748 1.377 . S
C1735 C1734 1.524 . S
C1735 C1736 1.397 . S
C1735 C1740 1.363 . S
C1736 H1713 0.950 . S
C1736 C1735 1.397 . S
C1736 C1737 1.334 . S
C1737 H1714 0.950 . S
C1737 C1736 1.334 . S
C1737 C1738 1.287 . S
C1738 C1737 1.287 . S
C1738 C1739 1.524 . S
C1738 H1757 0.913 . S
C1739 H1715 0.950 . S
C1739 C1738 1.524 . S
C1739 C1740 1.415 . S
C1740 H1716 0.950 . S
C1740 C1735 1.363 . S
C1740 C1739 1.415 . S
C1741 H1717 0.951 . S
C1741 C1742 1.366 . S
C1741 C1743 1.388 . S
C1742 C1741 1.366 . S
C1742 C1746 1.385 . S
C1743 H1718 0.951 . S
C1743 C1741 1.388 . S
C1743 C1744 1.366 . S
C1744 C1743 1.366 . S
C1744 C1745 1.414 . S
C1744 C1747 1.499 . S
C1745 H1719 0.950 . S
C1745 C1744 1.414 . S
C1745 C1746 1.374 . S
C1746 H1720 0.950 . S
C1746 C1742 1.385 . S
C1746 C1745 1.374 . S
C1747 C1744 1.499 . S
C1747 C1748 1.373 . S
C1747 C1749 1.389 . S
C1748 H1721 0.950 . S
C1748 C1734 1.377 . S
C1748 C1747 1.373 . S
C1749 C1733 1.377 . S
C1749 C1747 1.389 . S
C1749 C1750 1.524 . S
C1750 C1749 1.524 . S
C1750 C1751 1.397 . S
C1750 C1755 1.363 . S
C1751 H1722 0.950 . S
C1751 C1750 1.397 . S
C1751 C1752 1.334 . S
C1752 H1723 0.950 . S
C1752 C1751 1.334 . S
C1752 C1753 1.287 . S
C1753 C1752 1.287 . S
C1753 C1754 1.524 . S
C1753 H1756 0.999 . S
C1754 H1724 0.950 . S
C1754 C1753 1.524 . S
C1754 C1755 1.415 . S
C1755 H1725 0.950 . S
C1755 C1750 1.363 . S
C1755 C1754 1.415 . S
H1756 C1753 0.999 . S
H1757 C1738 0.913 . S
H1758 C1776 0.951 . S
H1759 C1778 0.951 . S
H1760 C1780 0.950 . S
H1761 C1781 0.950 . S
H1762 C1783 0.950 . S
H1763 C1786 0.950 . S
H1764 C1787 0.950 . S
H1765 C1789 0.950 . S
H1766 C1790 0.950 . S
H1767 C1791 0.951 . S
H1768 C1793 0.951 . S
H1769 C1795 0.950 . S
H1770 C1796 0.950 . S
H1771 C1798 0.950 . S
H1772 C1801 0.950 . S
H1773 C1802 0.950 . S
H1774 C1804 0.950 . S
H1775 C1805 0.950 . S
C1776 H1758 0.951 . S
C1776 C1777 1.366 . S
C1776 C1778 1.388 . S
C1777 C1776 1.366 . S
C1777 C1781 1.385 . S
C1778 H1759 0.951 . S
C1778 C1776 1.388 . S
C1778 C1779 1.366 . S
C1779 C1778 1.366 . S
C1779 C1780 1.414 . S
C1779 C1782 1.499 . S
C1780 H1760 0.950 . S
C1780 C1779 1.414 . S
C1780 C1781 1.374 . S
C1781 H1761 0.950 . S
C1781 C1777 1.385 . S
C1781 C1780 1.374 . S
C1782 C1779 1.499 . S
C1782 C1783 1.373 . S
C1782 C1784 1.389 . S
C1783 H1762 0.950 . S
C1783 C1782 1.373 . S
C1783 C1799 1.377 . S
C1784 C1782 1.389 . S
C1784 C1785 1.524 . S
C1784 C1798 1.377 . S
C1785 C1784 1.524 . S
C1785 C1786 1.397 . S
C1785 C1790 1.363 . S
C1786 H1763 0.950 . S
C1786 C1785 1.397 . S
C1786 C1787 1.334 . S
C1787 H1764 0.950 . S
C1787 C1786 1.334 . S
C1787 C1788 1.287 . S
C1788 C1787 1.287 . S
C1788 C1789 1.524 . S
C1788 H1807 0.913 . S
C1789 H1765 0.950 . S
C1789 C1788 1.524 . S
C1789 C1790 1.415 . S
C1790 H1766 0.950 . S
C1790 C1785 1.363 . S
C1790 C1789 1.415 . S
C1791 H1767 0.951 . S
C1791 C1792 1.366 . S
C1791 C1793 1.388 . S
C1792 C1791 1.366 . S
C1792 C1796 1.385 . S
C1793 H1768 0.951 . S
C1793 C1791 1.388 . S
C1793 C1794 1.366 . S
C1794 C1793 1.366 . S
C1794 C1795 1.414 . S
C1794 C1797 1.499 . S
C1795 H1769 0.950 . S
C1795 C1794 1.414 . S
C1795 C1796 1.374 . S
C1796 H1770 0.950 . S
C1796 C1792 1.385 . S
C1796 C1795 1.374 . S
C1797 C1794 1.499 . S
C1797 C1798 1.373 . S
C1797 C1799 1.389 . S
C1798 H1771 0.950 . S
C1798 C1784 1.377 . S
C1798 C1797 1.373 . S
C1799 C1783 1.377 . S
C1799 C1797 1.389 . S
C1799 C1800 1.524 . S
C1800 C1799 1.524 . S
C1800 C1801 1.397 . S
C1800 C1805 1.363 . S
C1801 H1772 0.950 . S
C1801 C1800 1.397 . S
C1801 C1802 1.334 . S
C1802 H1773 0.950 . S
C1802 C1801 1.334 . S
C1802 C1803 1.287 . S
C1803 C1802 1.287 . S
C1803 C1804 1.524 . S
C1803 H1806 0.999 . S
C1804 H1774 0.950 . S
C1804 C1803 1.524 . S
C1804 C1805 1.415 . S
C1805 H1775 0.950 . S
C1805 C1800 1.363 . S
C1805 C1804 1.415 . S
H1806 C1803 0.999 . S
H1807 C1788 0.913 . S
C227 C10 1.949 . S
C242 C36 1.949 . S
C277 C49 1.949 . S
C292 C23 1.949 . S
C327 C62 1.948 . S
C342 C88 1.949 . S
C377 C101 1.949 . S
C392 C75 1.949 . S
C427 C114 1.876 . S
C442 C140 1.876 . S
C477 C153 1.876 . S
C492 C127 1.876 . S
C527 C166 1.877 . S
C542 C192 1.877 . S
C577 C205 1.877 . S
C592 C179 1.877 . S
C627 C55 1.532 . S
C642 C3 1.532 . S
C677 C16 1.532 . S
C692 C68 1.532 . S
C727 C29 1.532 . S
C742 C81 1.532 . S
C777 C94 1.533 . S
C792 C42 1.533 . S
C827 C107 1.557 . S
C842 C159 1.557 . S
C877 C120 1.557 . S
C892 C172 1.557 . S
C927 C133 1.557 . S
C942 C185 1.557 . S
C977 C146 1.557 . S
C992 C198 1.557 . S
C1027 C131 1.544 . S
C1042 C1 1.531 . S
C1077 C144 1.544 . S
C1092 C14 1.531 . S
C1127 C27 1.531 . S
C1142 C105 1.544 . S
C1177 C40 1.531 . S
C1192 C118 1.544 . S
C1227 C53 1.532 . S
C1242 C183 1.544 . S
C1277 C66 1.532 . S
C1292 C196 1.544 . S
C1327 C79 1.531 . S
C1342 C157 1.544 . S
C1377 C170 1.544 . S
C1392 C92 1.531 . S
C1427 C5 1.891 . S
C1442 C200 1.828 . S
C1477 C161 1.828 . S
C1492 C18 1.891 . S
C1527 C31 1.891 . S
C1542 C174 1.828 . S
C1577 C187 1.828 . S
C1592 C44 1.891 . S
C1627 C122 1.828 . S
C1642 C57 1.891 . S
C1677 C70 1.891 . S
C1692 C135 1.828 . S
C1727 C148 1.828 . S
C1742 C83 1.891 . S
C1777 C109 1.828 . S
C1792 C96 1.891 . S
