# Generated by pormake.
# Topology wka, (5)-cn, num edge types: 1
# Building blocks:
#     Node 0, Type 0, BuildingBlock: XOMCOT_clean_sbu_0, # of connection points: 5
#     Node 1, Type 0, BuildingBlock: XOMCOT_clean_sbu_0, # of connection points: 5
#     Node 2, Type 0, BuildingBlock: XOMCOT_clean_sbu_0, # of connection points: 5
#     Node 3, Type 0, BuildingBlock: XOMCOT_clean_sbu_0, # of connection points: 5
#     Node 4, Type 0, BuildingBlock: XOMCOT_clean_sbu_0, # of connection points: 5
#     Node 5, Type 0, BuildingBlock: XOMCOT_clean_sbu_0, # of connection points: 5
#     Node 6, Type 0, BuildingBlock: XOMCOT_clean_sbu_0, # of connection points: 5
#     Node 7, Type 0, BuildingBlock: XOMCOT_clean_sbu_0, # of connection points: 5
#     Node 8, Type 0, BuildingBlock: XOMCOT_clean_sbu_0, # of connection points: 5
#     Node 9, Type 0, BuildingBlock: XOMCOT_clean_sbu_0, # of connection points: 5
#     Node 10, Type 0, BuildingBlock: XOMCOT_clean_sbu_0, # of connection points: 5
#     Node 11, Type 0, BuildingBlock: XOMCOT_clean_sbu_0, # of connection points: 5
#     Edge 12, Type (0, 0), BuildingBlock: TEMPAE_clean_linker_10, # of connection points: 2
#     Edge 13, Type (0, 0), BuildingBlock: TEMPAE_clean_linker_10, # of connection points: 2
#     Edge 14, Type (0, 0), BuildingBlock: TEMPAE_clean_linker_10, # of connection points: 2
#     Edge 15, Type (0, 0), BuildingBlock: TEMPAE_clean_linker_10, # of connection points: 2
#     Edge 16, Type (0, 0), BuildingBlock: TEMPAE_clean_linker_10, # of connection points: 2
#     Edge 17, Type (0, 0), BuildingBlock: TEMPAE_clean_linker_10, # of connection points: 2
#     Edge 18, Type (0, 0), BuildingBlock: TEMPAE_clean_linker_10, # of connection points: 2
#     Edge 19, Type (0, 0), BuildingBlock: TEMPAE_clean_linker_10, # of connection points: 2
#     Edge 20, Type (0, 0), BuildingBlock: TEMPAE_clean_linker_10, # of connection points: 2
#     Edge 21, Type (0, 0), BuildingBlock: TEMPAE_clean_linker_10, # of connection points: 2
#     Edge 22, Type (0, 0), BuildingBlock: TEMPAE_clean_linker_10, # of connection points: 2
#     Edge 23, Type (0, 0), BuildingBlock: TEMPAE_clean_linker_10, # of connection points: 2
#     Edge 24, Type (0, 0), BuildingBlock: TEMPAE_clean_linker_10, # of connection points: 2
#     Edge 25, Type (0, 0), BuildingBlock: TEMPAE_clean_linker_10, # of connection points: 2
#     Edge 26, Type (0, 0), BuildingBlock: TEMPAE_clean_linker_10, # of connection points: 2
#     Edge 27, Type (0, 0), BuildingBlock: TEMPAE_clean_linker_10, # of connection points: 2
#     Edge 28, Type (0, 0), BuildingBlock: TEMPAE_clean_linker_10, # of connection points: 2
#     Edge 29, Type (0, 0), BuildingBlock: TEMPAE_clean_linker_10, # of connection points: 2
#     Edge 30, Type (0, 0), BuildingBlock: TEMPAE_clean_linker_10, # of connection points: 2
#     Edge 31, Type (0, 0), BuildingBlock: TEMPAE_clean_linker_10, # of connection points: 2
#     Edge 32, Type (0, 0), BuildingBlock: TEMPAE_clean_linker_10, # of connection points: 2
#     Edge 33, Type (0, 0), BuildingBlock: TEMPAE_clean_linker_10, # of connection points: 2
#     Edge 34, Type (0, 0), BuildingBlock: TEMPAE_clean_linker_10, # of connection points: 2
#     Edge 35, Type (0, 0), BuildingBlock: TEMPAE_clean_linker_10, # of connection points: 2
#     Edge 36, Type (0, 0), BuildingBlock: TEMPAE_clean_linker_10, # of connection points: 2
#     Edge 37, Type (0, 0), BuildingBlock: TEMPAE_clean_linker_10, # of connection points: 2
#     Edge 38, Type (0, 0), BuildingBlock: TEMPAE_clean_linker_10, # of connection points: 2
#     Edge 39, Type (0, 0), BuildingBlock: TEMPAE_clean_linker_10, # of connection points: 2
#     Edge 40, Type (0, 0), BuildingBlock: TEMPAE_clean_linker_10, # of connection points: 2
#     Edge 41, Type (0, 0), BuildingBlock: TEMPAE_clean_linker_10, # of connection points: 2
# Relax obj value: 0.222
# Max RMSD: 0.185
# Mean RMSD: 0.185
data_MOF--net-wka--node1-XOMCOT_clean_sbu_0--edge1-TEMPAE_clean_linker_10
_symmetry_space_group_name_H-M    P1
_symmetry_Int_Tables_number       1
_symmetry_cell_setting            triclinic
loop_
_symmetry_equiv_pos_as_xyz
'x, y, z'
_cell_length_a     67.790601
_cell_length_b     67.823974
_cell_length_c     17.428447
_cell_angle_alpha  89.989714
_cell_angle_beta   90.021141
_cell_angle_gamma 119.9869
loop_
_atom_site_label
_atom_site_type_symbol
_atom_site_fract_x
_atom_site_fract_y
_atom_site_fract_z
_atom_type_partial_charge
Co0 Co 0.10812 0.40782 0.07816 0.0
C1 C 0.1007 0.40478 0.24376 0.0
C2 C 0.07217 0.3772 0.18688 0.0
C3 C 0.06897 0.37419 0.26533 0.0
N4 N 0.09211 0.3964 0.17391 0.0
N5 N 0.08711 0.39146 0.30064 0.0
H6 H 0.11704 0.41996 0.25275 0.0
H7 H 0.06127 0.36569 0.14279 0.0
C8 C 0.07351 0.40261 0.96357 0.0
O9 O 0.08797 0.42375 0.9439 0.0
N10 N 0.12454 0.41878 0.98159 0.0
C11 C 0.14219 0.43943 0.96299 0.0
C12 C 0.14561 0.44024 0.88494 0.0
C13 C 0.11855 0.40694 0.91511 0.0
N14 N 0.1305 0.41989 0.85495 0.0
C15 C 0.12662 0.45537 0.11371 0.0
C16 C 0.08579 0.45513 0.11058 0.0
C17 C 0.10602 0.476 0.11962 0.0
C18 C 0.12656 0.47575 0.12423 0.0
C19 C 0.08667 0.43513 0.10166 0.0
N20 N 0.10707 0.43572 0.09603 0.0
H21 H 0.14248 0.45544 0.12035 0.0
H22 H 0.07082 0.41921 0.09827 0.0
H23 H 0.15171 0.45337 0.00167 0.0
H24 H 0.10427 0.3898 0.90981 0.0
O25 O 0.13623 0.41616 0.12999 0.0
O26 O 0.11408 0.38263 0.07472 0.0
O27 O 0.07827 0.39337 0.01937 0.0
C28 C 0.13234 0.39583 0.11408 0.0
H29 H 0.05507 0.35981 0.29404 0.0
H30 H 0.1576 0.45498 0.85227 0.0
H31 H 0.06936 0.45415 0.1088 0.0
H32 H 0.1425 0.49113 0.13617 0.0
Co33 Co 0.69633 0.10261 0.27682 0.0
C34 C 0.68871 0.09359 0.44333 0.0
C35 C 0.69747 0.07086 0.38787 0.0
C36 C 0.69804 0.06817 0.46593 0.0
N37 N 0.69131 0.08662 0.37344 0.0
N38 N 0.69254 0.08253 0.50035 0.0
H39 H 0.68687 0.10827 0.4533 0.0
H40 H 0.70315 0.06329 0.34497 0.0
C41 C 0.6703 0.05372 0.2291 0.0
O42 O 0.65636 0.04981 0.2869 0.0
N43 N 0.70211 0.11858 0.18079 0.0
C44 C 0.69989 0.13681 0.16466 0.0
C45 C 0.70211 0.14042 0.08638 0.0
C46 C 0.70589 0.11155 0.11311 0.0
N47 N 0.7056 0.12431 0.05443 0.0
C48 C 0.65855 0.10758 0.32667 0.0
C49 C 0.62961 0.08368 0.20704 0.0
C50 C 0.62226 0.0933 0.26306 0.0
C51 C 0.63707 0.10564 0.32285 0.0
C52 C 0.65142 0.08649 0.21207 0.0
N53 N 0.66524 0.09731 0.27353 0.0
H54 H 0.6701 0.1183 0.37042 0.0
H55 H 0.65736 0.08052 0.16496 0.0
H56 H 0.69564 0.14595 0.20616 0.0
H57 H 0.70785 0.09678 0.1062 0.0
O58 O 0.71065 0.13113 0.33098 0.0
O59 O 0.72859 0.1135 0.28792 0.0
O60 O 0.68737 0.07361 0.21887 0.0
C61 C 0.72951 0.13066 0.32476 0.0
H62 H 0.70348 0.05761 0.49511 0.0
H63 H 0.69978 0.15288 0.05499 0.0
H64 H 0.61892 0.07484 0.15822 0.0
H65 H 0.6322 0.11397 0.36572 0.0
Co66 Co 0.58667 0.69298 0.45148 0.0
C67 C 0.58885 0.68581 0.61813 0.0
C68 C 0.62122 0.69837 0.5634 0.0
C69 C 0.6242 0.69783 0.64131 0.0
N70 N 0.59895 0.69046 0.54879 0.0
N71 N 0.60378 0.68994 0.67536 0.0
H72 H 0.5715 0.68154 0.62793 0.0
H73 H 0.63455 0.70517 0.52061 0.0
C74 C 0.61008 0.66661 0.41628 0.0
O75 O 0.60121 0.65499 0.47963 0.0
N76 N 0.57498 0.69615 0.35469 0.0
C77 C 0.55465 0.69451 0.34063 0.0
C78 C 0.55189 0.69472 0.26221 0.0
C79 C 0.58433 0.69749 0.28564 0.0
N80 N 0.57051 0.69633 0.22836 0.0
C81 C 0.54349 0.65787 0.50813 0.0
C82 C 0.53774 0.62462 0.40436 0.0
C83 C 0.5205 0.61986 0.45762 0.0
C84 C 0.52346 0.63682 0.50963 0.0
C85 C 0.55737 0.64605 0.40406 0.0
N86 N 0.56065 0.6621 0.45796 0.0
H87 H 0.54452 0.67108 0.54495 0.0
H88 H 0.56932 0.64992 0.35785 0.0
H89 H 0.54229 0.69222 0.38406 0.0
H90 H 0.60065 0.69863 0.27695 0.0
O91 O 0.57352 0.70895 0.50162 0.0
O92 O 0.60832 0.72539 0.45233 0.0
O93 O 0.60592 0.68233 0.39661 0.0
C94 C 0.59274 0.72746 0.48917 0.0
H95 H 0.64024 0.70366 0.67072 0.0
H96 H 0.53692 0.69256 0.23241 0.0
H97 H 0.53558 0.61226 0.36096 0.0
H98 H 0.51018 0.63401 0.55013 0.0
Co99 Co 0.8889 0.59471 0.56263 0.0
C100 C 0.89613 0.59529 0.73026 0.0
C101 C 0.92241 0.62496 0.67489 0.0
C102 C 0.92456 0.62858 0.75278 0.0
N103 N 0.90479 0.60386 0.66034 0.0
N104 N 0.90801 0.60986 0.78704 0.0
H105 H 0.87982 0.58022 0.73984 0.0
H106 H 0.93164 0.63783 0.63194 0.0
C107 C 0.93711 0.61292 0.51738 0.0
O108 O 0.93834 0.60062 0.5735 0.0
N109 N 0.87301 0.58671 0.46608 0.0
C110 C 0.85372 0.56734 0.44825 0.0
C111 C 0.84988 0.5674 0.37056 0.0
C112 C 0.88043 0.59839 0.40007 0.0
N113 N 0.86685 0.58685 0.34056 0.0
C114 C 0.88446 0.55203 0.61288 0.0
C115 C 0.90182 0.54385 0.48078 0.0
C116 C 0.89542 0.52843 0.5417 0.0
C117 C 0.88649 0.53258 0.60817 0.0
C118 C 0.89983 0.56327 0.48838 0.0
N119 N 0.89197 0.56764 0.55493 0.0
H120 H 0.87623 0.55406 0.66229 0.0
H121 H 0.90465 0.57484 0.44034 0.0
H122 H 0.84388 0.55365 0.48806 0.0
H123 H 0.89597 0.61462 0.395 0.0
O124 O 0.86011 0.5815 0.61483 0.0
O125 O 0.88041 0.61773 0.57868 0.0
O126 O 0.91869 0.61338 0.50649 0.0
C127 C 0.86238 0.60168 0.61264 0.0
H128 H 0.93626 0.64428 0.78168 0.0
H129 H 0.83653 0.55358 0.33795 0.0
H130 H 0.90844 0.54101 0.42794 0.0
H131 H 0.88054 0.52055 0.65531 0.0
Co132 Co 0.30607 0.89836 0.77174 0.0
C133 C 0.30903 0.90516 0.93953 0.0
C134 C 0.30632 0.93165 0.88274 0.0
C135 C 0.30536 0.93435 0.96081 0.0
N136 N 0.30934 0.9137 0.86925 0.0
N137 N 0.30686 0.91749 0.99586 0.0
H138 H 0.30869 0.8893 0.94988 0.0
H139 H 0.30329 0.94119 0.83934 0.0
C140 C 0.3312 0.94715 0.72088 0.0
O141 O 0.34572 0.95183 0.77747 0.0
N142 N 0.30208 0.8829 0.67544 0.0
C143 C 0.30723 0.86656 0.65956 0.0
C144 C 0.3054 0.86286 0.58145 0.0
C145 C 0.29677 0.8886 0.60772 0.0
N146 N 0.29891 0.87682 0.5492 0.0
C147 C 0.34499 0.89702 0.83101 0.0
C148 C 0.37357 0.91874 0.70847 0.0
C149 C 0.38148 0.91067 0.76835 0.0
C150 C 0.36674 0.8996 0.83007 0.0
C151 C 0.35151 0.91536 0.71099 0.0
N152 N 0.33771 0.90533 0.77303 0.0
H153 H 0.33367 0.88725 0.87668 0.0
H154 H 0.34535 0.92032 0.66167 0.0
H155 H 0.31311 0.85883 0.70123 0.0
H156 H 0.29284 0.9021 0.60068 0.0
O157 O 0.29246 0.86956 0.82405 0.0
O158 O 0.27347 0.88589 0.77852 0.0
O159 O 0.31419 0.92709 0.7134 0.0
C160 C 0.27312 0.86894 0.81504 0.0
H161 H 0.3021 0.94662 0.98931 0.0
H162 H 0.30933 0.85141 0.55055 0.0
H163 H 0.38412 0.9273 0.6592 0.0
H164 H 0.37154 0.89209 0.87606 0.0
Co165 Co 0.41338 0.30235 0.91499 0.0
C166 C 0.41088 0.30924 0.0815 0.0
C167 C 0.37863 0.29664 0.02572 0.0
C168 C 0.37529 0.29631 0.10365 0.0
N169 N 0.40101 0.30501 0.01177 0.0
N170 N 0.39563 0.30422 0.13826 0.0
H171 H 0.42827 0.31363 0.09171 0.0
H172 H 0.36542 0.28978 0.98247 0.0
C173 C 0.38907 0.32771 0.87596 0.0
O174 O 0.39787 0.34008 0.93798 0.0
N175 N 0.42502 0.29902 0.81851 0.0
C176 C 0.44585 0.30204 0.80328 0.0
C177 C 0.44795 0.30097 0.72482 0.0
C178 C 0.41471 0.29594 0.75026 0.0
N179 N 0.4284 0.29739 0.69208 0.0
C180 C 0.45621 0.33835 0.97045 0.0
C181 C 0.46105 0.37108 0.86604 0.0
C182 C 0.47862 0.37657 0.9192 0.0
C183 C 0.476 0.35962 0.97123 0.0
C184 C 0.44185 0.34932 0.86575 0.0
N185 N 0.43895 0.33355 0.92013 0.0
H186 H 0.4555 0.32539 0.00786 0.0
H187 H 0.42981 0.34508 0.81956 0.0
H188 H 0.45891 0.30584 0.84576 0.0
H189 H 0.39776 0.29341 0.74285 0.0
O190 O 0.42719 0.28713 0.96614 0.0
O191 O 0.39229 0.26982 0.91752 0.0
O192 O 0.39353 0.31202 0.85904 0.0
C193 C 0.40818 0.26831 0.95453 0.0
H194 H 0.35909 0.28967 0.13271 0.0
H195 H 0.46306 0.30392 0.69409 0.0
H196 H 0.46214 0.38326 0.82371 0.0
H197 H 0.48946 0.36229 0.01059 0.0
Co198 Co 0.59226 0.89635 0.73532 0.0
C199 C 0.59426 0.90544 0.56869 0.0
C200 C 0.62594 0.92732 0.62471 0.0
C201 C 0.62933 0.93006 0.5467 0.0
N202 N 0.60384 0.91208 0.6387 0.0
N203 N 0.60935 0.91625 0.51195 0.0
H204 H 0.57749 0.89119 0.55836 0.0
H205 H 0.63914 0.93454 0.66792 0.0
C206 C 0.61587 0.94541 0.78154 0.0
O207 O 0.6063 0.94951 0.72273 0.0
N208 N 0.58149 0.88067 0.8315 0.0
C209 C 0.56078 0.86284 0.84763 0.0
C210 C 0.55924 0.85934 0.92598 0.0
C211 C 0.59232 0.88756 0.8992 0.0
N212 N 0.57904 0.87511 0.95791 0.0
C213 C 0.54986 0.8916 0.68292 0.0
C214 C 0.54498 0.91656 0.79915 0.0
C215 C 0.52806 0.90663 0.74304 0.0
C216 C 0.53046 0.89378 0.68496 0.0
C217 C 0.56386 0.91351 0.79592 0.0
N218 N 0.5668 0.90215 0.73603 0.0
H219 H 0.55056 0.88042 0.64072 0.0
H220 H 0.57567 0.91967 0.84332 0.0
H221 H 0.54735 0.85389 0.80603 0.0
H222 H 0.60928 0.90199 0.90601 0.0
O223 O 0.57789 0.86771 0.68184 0.0
O224 O 0.61326 0.88492 0.72687 0.0
O225 O 0.61245 0.92535 0.79299 0.0
C226 C 0.597 0.86782 0.6899 0.0
H227 H 0.64544 0.9403 0.51776 0.0
H228 H 0.54429 0.84717 0.95739 0.0
H229 H 0.54315 0.92578 0.84679 0.0
H230 H 0.51728 0.8852 0.64214 0.0
Co231 Co 0.70413 0.5878 0.96437 0.0
C232 C 0.70339 0.59226 0.79749 0.0
C233 C 0.69926 0.61813 0.85371 0.0
C234 C 0.70011 0.62171 0.77554 0.0
N235 N 0.70117 0.59956 0.86697 0.0
N236 N 0.70297 0.60555 0.74106 0.0
H237 H 0.70579 0.57781 0.78825 0.0
H238 H 0.69805 0.62875 0.89754 0.0
C239 C 0.67224 0.59459 0.06293 0.0
O240 O 0.66252 0.57286 0.08029 0.0
N241 N 0.70833 0.57693 0.06305 0.0
C242 C 0.7136 0.56051 0.0779 0.0
C243 C 0.71686 0.55983 0.15562 0.0
C244 C 0.71034 0.5871 0.13142 0.0
N245 N 0.71482 0.57662 0.18865 0.0
C246 C 0.67193 0.53939 0.95369 0.0
C247 C 0.63518 0.54369 0.90898 0.0
C248 C 0.63169 0.52179 0.9231 0.0
C249 C 0.65065 0.51989 0.94469 0.0
C250 C 0.65664 0.56276 0.92087 0.0
N251 N 0.67452 0.56057 0.94666 0.0
H252 H 0.68624 0.53723 0.96535 0.0
H253 H 0.65872 0.57941 0.91087 0.0
H254 H 0.71623 0.55045 0.03555 0.0
H255 H 0.70896 0.60214 0.13966 0.0
O256 O 0.7232 0.57775 0.91708 0.0
O257 O 0.73554 0.61203 0.9681 0.0
O258 O 0.68939 0.60369 0.0177 0.0
C259 C 0.74009 0.59797 0.93186 0.0
H260 H 0.69967 0.6356 0.74651 0.0
H261 H 0.72115 0.54844 0.18525 0.0
H262 H 0.62151 0.54624 0.88891 0.0
H263 H 0.64921 0.50352 0.95561 0.0
Co264 Co 0.1099 0.69603 0.07399 0.0
C265 C 0.10158 0.68933 0.90669 0.0
C266 C 0.07722 0.69562 0.9628 0.0
C267 C 0.07429 0.69603 0.88483 0.0
N268 N 0.09403 0.69089 0.97683 0.0
N269 N 0.08965 0.69204 0.85002 0.0
H270 H 0.11711 0.68904 0.89629 0.0
H271 H 0.06886 0.70033 0.00588 0.0
C272 C 0.06109 0.66876 0.11947 0.0
O273 O 0.05837 0.65483 0.0628 0.0
N274 N 0.12581 0.70215 0.17025 0.0
C275 C 0.14444 0.70065 0.18668 0.0
C276 C 0.14805 0.70312 0.26493 0.0
C277 C 0.11857 0.70582 0.2376 0.0
N278 N 0.13156 0.70609 0.29638 0.0
C279 C 0.11361 0.65756 0.0218 0.0
C280 C 0.09449 0.63109 0.15094 0.0
C281 C 0.10243 0.62282 0.0922 0.0
C282 C 0.11201 0.63626 0.02685 0.0
C283 C 0.09605 0.6523 0.14295 0.0
N284 N 0.10499 0.6651 0.07802 0.0
H285 H 0.12286 0.66832 0.97445 0.0
H286 H 0.09067 0.65871 0.19045 0.0
H287 H 0.15388 0.69669 0.14545 0.0
H288 H 0.10345 0.7072 0.24431 0.0
O289 O 0.13859 0.71068 0.02074 0.0
O290 O 0.12037 0.72814 0.06302 0.0
O291 O 0.08053 0.68641 0.13097 0.0
C292 C 0.13786 0.72941 0.02737 0.0
H293 H 0.06272 0.70024 0.85602 0.0
H294 H 0.16075 0.70126 0.2967 0.0
H295 H 0.08737 0.62137 0.20301 0.0
H296 H 0.11914 0.63079 0.98157 0.0
Co297 Co 0.40757 0.09953 0.21114 0.0
C298 C 0.40437 0.09235 0.04354 0.0
C299 C 0.37502 0.06594 0.09989 0.0
C300 C 0.37155 0.06316 0.02175 0.0
N301 N 0.39596 0.08391 0.11375 0.0
N302 N 0.38999 0.07997 0.98696 0.0
H303 H 0.41989 0.10823 0.03338 0.0
H304 H 0.3623 0.0565 0.14301 0.0
C305 C 0.38403 0.05082 0.26298 0.0
O306 O 0.39415 0.04616 0.20732 0.0
N307 N 0.41862 0.11528 0.30728 0.0
C308 C 0.43998 0.13195 0.32312 0.0
C309 C 0.44182 0.13568 0.4012 0.0
C310 C 0.40765 0.10941 0.37508 0.0
N311 N 0.42149 0.12139 0.43356 0.0
C312 C 0.44839 0.10137 0.15523 0.0
C313 C 0.45501 0.08012 0.27977 0.0
C314 C 0.47139 0.08844 0.22116 0.0
C315 C 0.46782 0.09924 0.15834 0.0
C316 C 0.43609 0.08307 0.27515 0.0
N317 N 0.43248 0.09291 0.2122 0.0
H318 H 0.44688 0.11094 0.10877 0.0
H319 H 0.42469 0.07799 0.32367 0.0
H320 H 0.45357 0.13986 0.28146 0.0
H321 H 0.39036 0.09562 0.38228 0.0
O322 O 0.42266 0.12821 0.15802 0.0
O323 O 0.38719 0.11165 0.20201 0.0
O324 O 0.38695 0.07086 0.26974 0.0
C325 C 0.40377 0.12859 0.16549 0.0
H326 H 0.35605 0.05093 0.99299 0.0
H327 H 0.45714 0.14733 0.43204 0.0
H328 H 0.45687 0.07171 0.32974 0.0
H329 H 0.48037 0.10689 0.11316 0.0
Co330 Co 0.29779 0.40552 0.41882 0.0
C331 C 0.30589 0.40547 0.25233 0.0
C332 C 0.30054 0.37486 0.30625 0.0
C333 C 0.3009 0.37224 0.22813 0.0
N334 N 0.30418 0.39593 0.3217 0.0
N335 N 0.30418 0.39153 0.19455 0.0
H336 H 0.30563 0.42106 0.24326 0.0
H337 H 0.2961 0.36158 0.34834 0.0
C338 C 0.32681 0.3858 0.46436 0.0
O339 O 0.34053 0.39733 0.4076 0.0
N340 N 0.29063 0.4144 0.51507 0.0
C341 C 0.28906 0.43311 0.52942 0.0
C342 C 0.28683 0.43468 0.60753 0.0
C343 C 0.2892 0.40481 0.58383 0.0
N344 N 0.28718 0.41696 0.6411 0.0
C345 C 0.33424 0.44927 0.37034 0.0
C346 C 0.36313 0.45582 0.49166 0.0
C347 C 0.37039 0.47254 0.43436 0.0
C348 C 0.35538 0.46918 0.37381 0.0
C349 C 0.34169 0.43633 0.4865 0.0
N350 N 0.32799 0.43257 0.42412 0.0
H351 H 0.32261 0.44782 0.3259 0.0
H352 H 0.3361 0.42436 0.53345 0.0
H353 H 0.29068 0.44541 0.4867 0.0
H354 H 0.29065 0.38981 0.59271 0.0
O355 O 0.28208 0.41845 0.36564 0.0
O356 O 0.26604 0.38262 0.40522 0.0
O357 O 0.30862 0.38666 0.47548 0.0
C358 C 0.26396 0.39846 0.37003 0.0
H359 H 0.29767 0.3569 0.19839 0.0
H360 H 0.28655 0.44849 0.63765 0.0
H361 H 0.37385 0.45768 0.54034 0.0
H362 H 0.35962 0.48211 0.33037 0.0
Co363 Co 0.88854 0.30717 0.56824 0.0
C364 C 0.89753 0.31363 0.40303 0.0
C365 C 0.92099 0.30598 0.46022 0.0
C366 C 0.92398 0.30557 0.38211 0.0
N367 N 0.90434 0.31091 0.47292 0.0
N368 N 0.90918 0.31035 0.34658 0.0
H369 H 0.8831 0.31606 0.39359 0.0
H370 H 0.92923 0.30145 0.50434 0.0
C371 C 0.92471 0.33525 0.68081 0.0
O372 O 0.91151 0.34335 0.70188 0.0
N373 N 0.87257 0.30239 0.66537 0.0
C374 C 0.85451 0.30463 0.68508 0.0
C375 C 0.85104 0.30129 0.76319 0.0
C376 C 0.8788 0.29639 0.73091 0.0
N377 N 0.86665 0.29653 0.79179 0.0
C378 C 0.87226 0.33817 0.53798 0.0
C379 C 0.91415 0.37758 0.53711 0.0
C380 C 0.89439 0.37928 0.53105 0.0
C381 C 0.8733 0.35906 0.52837 0.0
C382 C 0.91227 0.3562 0.54506 0.0
N383 N 0.89142 0.33699 0.55221 0.0
H384 H 0.85593 0.32289 0.53279 0.0
H385 H 0.92768 0.35521 0.54658 0.0
H386 H 0.84464 0.30881 0.64704 0.0
H387 H 0.89287 0.29316 0.73481 0.0
O388 O 0.86014 0.28916 0.51607 0.0
O389 O 0.88031 0.2753 0.57008 0.0
O390 O 0.91852 0.32079 0.62588 0.0
C391 C 0.86244 0.27166 0.53066 0.0
H392 H 0.93536 0.30107 0.35357 0.0
H393 H 0.83888 0.30352 0.79688 0.0
H394 H 0.93092 0.39258 0.5372 0.0
H395 H 0.85765 0.3593 0.51856 0.0
C396 C 0.11113 0.59656 0.16637 0.0
C397 C 0.10197 0.60088 0.10069 0.0
C398 C 0.11186 0.57631 0.17354 0.0
C399 C 0.10281 0.55989 0.11417 0.0
C400 C 0.09307 0.56399 0.04849 0.0
C401 C 0.09298 0.58457 0.04219 0.0
C402 C 0.1228 0.57276 0.24367 0.0
C403 C 0.08289 0.54671 0.98462 0.0
C404 C 0.12335 0.51752 0.0882 0.0
C405 C 0.10576 0.49784 0.12267 0.0
C406 C 0.12288 0.53796 0.08693 0.0
C407 C 0.10415 0.5387 0.11946 0.0
C408 C 0.08645 0.51905 0.15506 0.0
C409 C 0.08758 0.49895 0.15697 0.0
C410 C 0.14227 0.55867 0.04943 0.0
C411 C 0.06608 0.51914 0.18975 0.0
H412 H 0.11832 0.60931 0.21122 0.0
H413 H 0.08577 0.5879 0.99165 0.0
H414 H 0.11062 0.55669 0.27289 0.0
H415 H 0.13768 0.57116 0.22625 0.0
H416 H 0.1286 0.58699 0.28536 0.0
H417 H 0.07501 0.55204 0.93924 0.0
H418 H 0.09628 0.54411 0.95796 0.0
H419 H 0.06974 0.53005 0.00801 0.0
H420 H 0.13729 0.51686 0.06035 0.0
H421 H 0.07413 0.48405 0.18518 0.0
H422 H 0.1493 0.57332 0.08958 0.0
H423 H 0.13594 0.56353 -0.00177 0.0
H424 H 0.15627 0.55569 0.03125 0.0
H425 H 0.0717 0.53252 0.23446 0.0
H426 H 0.05384 0.5025 0.2159 0.0
H427 H 0.05708 0.52325 0.1449 0.0
C428 C 0.50301 0.08914 0.29914 0.0
C429 C 0.49268 0.08714 0.22743 0.0
C430 C 0.52349 0.08884 0.30559 0.0
C431 C 0.53433 0.08717 0.23857 0.0
C432 C 0.52402 0.08499 0.1661 0.0
C433 C 0.50319 0.08469 0.16151 0.0
C434 C 0.53376 0.09077 0.38409 0.0
C435 C 0.53526 0.08354 0.09319 0.0
C436 C 0.59826 0.11142 0.25104 0.0
C437 C 0.59976 0.09162 0.25662 0.0
C438 C 0.57706 0.11017 0.24379 0.0
C439 C 0.55691 0.08862 0.24413 0.0
C440 C 0.55838 0.06856 0.2505 0.0
C441 C 0.57987 0.07031 0.25562 0.0
C442 C 0.57624 0.13191 0.2353 0.0
C443 C 0.53727 0.04533 0.25298 0.0
H444 H 0.49543 0.0915 0.35047 0.0
H445 H 0.49523 0.08266 0.10595 0.0
H446 H 0.53762 0.07685 0.39283 0.0
H447 H 0.55006 0.10709 0.38871 0.0
H448 H 0.52229 0.09006 0.43088 0.0
H449 H 0.52495 0.08177 0.04136 0.0
H450 H 0.5522 0.09908 0.08691 0.0
H451 H 0.53811 0.06882 0.09583 0.0
H452 H 0.61374 0.12787 0.25113 0.0
H453 H 0.58116 0.05505 0.26027 0.0
H454 H 0.56674 0.13374 0.28398 0.0
H455 H 0.567 0.1313 0.18195 0.0
H456 H 0.5935 0.14722 0.23334 0.0
H457 H 0.52636 0.0444 0.30189 0.0
H458 H 0.54136 0.03145 0.25906 0.0
H459 H 0.52714 0.04236 0.19989 0.0
C460 C 0.4022 0.50402 0.50971 0.0
C461 C 0.39307 0.49365 0.43872 0.0
C462 C 0.4234 0.52409 0.51429 0.0
C463 C 0.4356 0.53432 0.44616 0.0
C464 C 0.42659 0.52398 0.37439 0.0
C465 C 0.40557 0.50367 0.3716 0.0
C466 C 0.43261 0.5345 0.59198 0.0
C467 C 0.43898 0.53454 0.30039 0.0
C468 C 0.47807 0.59766 0.45164 0.0
C469 C 0.49884 0.59792 0.45541 0.0
C470 C 0.45737 0.57706 0.44811 0.0
C471 C 0.45747 0.55624 0.44974 0.0
C472 C 0.47842 0.55641 0.45429 0.0
C473 C 0.49891 0.57731 0.45626 0.0
C474 C 0.43542 0.57759 0.44181 0.0
C475 C 0.47916 0.53455 0.45753 0.0
H476 H 0.3926 0.49672 0.56187 0.0
H477 H 0.39893 0.49562 0.31659 0.0
H478 H 0.45003 0.53717 0.5998 0.0
H479 H 0.4339 0.55143 0.59586 0.0
H480 H 0.42169 0.52371 0.63971 0.0
H481 H 0.42965 0.52435 0.24929 0.0
H482 H 0.44141 0.5519 0.29418 0.0
H483 H 0.45615 0.5363 0.30138 0.0
H484 H 0.47807 0.61364 0.45002 0.0
H485 H 0.51501 0.57756 0.45957 0.0
H486 H 0.42419 0.56853 0.49118 0.0
H487 H 0.42617 0.56859 0.38895 0.0
H488 H 0.43833 0.59522 0.44026 0.0
H489 H 0.46911 0.52419 0.50729 0.0
H490 H 0.49682 0.53764 0.46256 0.0
H491 H 0.47128 0.52432 0.40513 0.0
C492 C 0.87869 0.40467 0.56498 0.0
C493 C 0.89556 0.4018 0.5285 0.0
C494 C 0.87936 0.42565 0.56387 0.0
C495 C 0.89765 0.44448 0.5269 0.0
C496 C 0.91487 0.44187 0.49051 0.0
C497 C 0.91351 0.42051 0.49111 0.0
C498 C 0.86053 0.42768 0.60272 0.0
C499 C 0.93479 0.46168 0.45141 0.0
C500 C 0.88794 0.49315 0.47207 0.0
C501 C 0.89728 0.50767 0.53533 0.0
C502 C 0.88836 0.4727 0.4677 0.0
C503 C 0.89873 0.46691 0.52741 0.0
C504 C 0.90888 0.48194 0.59011 0.0
C505 C 0.90783 0.50206 0.59367 0.0
C506 C 0.877 0.45692 0.40066 0.0
C507 C 0.92045 0.47655 0.65418 0.0
H508 H 0.86501 0.39054 0.59556 0.0
H509 H 0.92647 0.41848 0.4618 0.0
H510 H 0.86764 0.44013 0.65046 0.0
H511 H 0.85263 0.43414 0.56145 0.0
H512 H 0.84703 0.41117 0.62611 0.0
H513 H 0.94695 0.45693 0.42678 0.0
H514 H 0.92861 0.46833 0.40467 0.0
H515 H 0.94403 0.47575 0.49301 0.0
H516 H 0.87964 0.49744 0.42725 0.0
H517 H 0.91526 0.51344 0.64219 0.0
H518 H 0.86239 0.44072 0.42149 0.0
H519 H 0.88905 0.45266 0.37242 0.0
H520 H 0.87067 0.46443 0.35723 0.0
H521 H 0.90771 0.46122 0.68566 0.0
H522 H 0.929 0.49081 0.69567 0.0
H523 H 0.93329 0.47265 0.63034 0.0
C524 C 0.41326 0.91058 0.69402 0.0
C525 C 0.40433 0.91249 0.76457 0.0
C526 C 0.4342 0.91114 0.69007 0.0
C527 C 0.44628 0.91304 0.75844 0.0
C528 C 0.43759 0.91525 0.82971 0.0
C529 C 0.4169 0.91526 0.83181 0.0
C530 C 0.44313 0.90914 0.61278 0.0
C531 C 0.44982 0.91696 0.90402 0.0
C532 C 0.48591 0.88868 0.75278 0.0
C533 C 0.50727 0.90842 0.74778 0.0
C534 C 0.46596 0.88999 0.7577 0.0
C535 C 0.46743 0.91156 0.75565 0.0
C536 C 0.48901 0.93157 0.75009 0.0
C537 C 0.50875 0.92976 0.74723 0.0
C538 C 0.44332 0.86829 0.76536 0.0
C539 C 0.4912 0.95482 0.74592 0.0
H540 H 0.40363 0.90801 0.64172 0.0
H541 H 0.41048 0.91723 0.88648 0.0
H542 H 0.46099 0.92305 0.60524 0.0
H543 H 0.44313 0.89281 0.60933 0.0
H544 H 0.43274 0.90983 0.56463 0.0
H545 H 0.44101 0.91899 0.95454 0.0
H546 H 0.45108 0.90139 0.91217 0.0
H547 H 0.46745 0.93161 0.90198 0.0
H548 H 0.48489 0.8722 0.7539 0.0
H549 H 0.52534 0.94499 0.74301 0.0
H550 H 0.43235 0.86634 0.7154 0.0
H551 H 0.43433 0.86906 0.81749 0.0
H552 H 0.44522 0.85297 0.76904 0.0
H553 H 0.48166 0.95569 0.69553 0.0
H554 H 0.50922 0.96867 0.74121 0.0
H555 H 0.4836 0.95787 0.79768 0.0
C556 C 0.60595 0.47999 0.89546 0.0
C557 C 0.60853 0.50117 0.91642 0.0
C558 C 0.58447 0.4602 0.89482 0.0
C559 C 0.56486 0.46166 0.91233 0.0
C560 C 0.56711 0.48304 0.93007 0.0
C561 C 0.5889 0.50241 0.93341 0.0
C562 C 0.58284 0.43762 0.87725 0.0
C563 C 0.54653 0.4854 0.94664 0.0
C564 C 0.5086 0.41121 0.84877 0.0
C565 C 0.50008 0.39919 0.9179 0.0
C566 C 0.52918 0.43201 0.84665 0.0
C567 C 0.54211 0.44065 0.91461 0.0
C568 C 0.53368 0.42878 0.98456 0.0
C569 C 0.5126 0.40852 0.98564 0.0
C570 C 0.53726 0.44458 0.77137 0.0
C571 C 0.54721 0.43716 0.05805 0.0
H572 H 0.62073 0.47872 0.87989 0.0
H573 H 0.59045 0.51844 0.95098 0.0
H574 H 0.57471 0.42574 0.92605 0.0
H575 H 0.57195 0.42975 0.82615 0.0
H576 H 0.59977 0.43932 0.8664 0.0
H577 H 0.55096 0.50349 0.95181 0.0
H578 H 0.53368 0.47726 0.9004 0.0
H579 H 0.53843 0.47654 0.00097 0.0
H580 H 0.49952 0.40421 0.79557 0.0
H581 H 0.50607 0.3999 0.03987 0.0
H582 H 0.55278 0.44448 0.75199 0.0
H583 H 0.54186 0.46264 0.77868 0.0
H584 H 0.52415 0.43685 0.72562 0.0
H585 H 0.5641 0.43851 0.05055 0.0
H586 H 0.53844 0.42571 0.10738 0.0
H587 H 0.55028 0.4544 0.07221 0.0
C588 C 0.04933 0.39888 0.85088 0.0
C589 C 0.05202 0.38988 0.92003 0.0
C590 C 0.0288 0.388 0.81013 0.0
C591 C 0.01043 0.36758 0.83918 0.0
C592 C 0.01329 0.35786 0.90725 0.0
C593 C 0.03411 0.36916 0.94703 0.0
C594 C 0.02651 0.39889 0.73755 0.0
C595 C 0.99413 0.33601 0.93966 0.0
C596 C 0.95209 0.3576 0.78474 0.0
C597 C 0.94633 0.34262 0.72242 0.0
C598 C 0.97257 0.36524 0.8246 0.0
C599 C 0.98775 0.35774 0.80173 0.0
C600 C 0.98186 0.34217 0.74011 0.0
C601 C 0.96118 0.3348 0.701 0.0
C602 C 0.9782 0.38182 0.89008 0.0
C603 C 0.99757 0.33366 0.71469 0.0
H604 H 0.06322 0.41469 0.82882 0.0
H605 H 0.03614 0.36205 0.00016 0.0
H606 H 0.0137 0.40431 0.74628 0.0
H607 H 0.04286 0.41398 0.72013 0.0
H608 H 0.02039 0.38644 0.68972 0.0
H609 H 0.00013 0.32882 0.98532 0.0
H610 H 0.981 0.3393 0.96459 0.0
H611 H 0.98582 0.32309 0.89375 0.0
H612 H 0.94063 0.36356 0.80234 0.0
H613 H 0.95678 0.3231 0.65326 0.0
H614 H 0.99374 0.39817 0.87604 0.0
H615 H 0.98185 0.37507 0.94285 0.0
H616 H 0.96414 0.38528 0.90254 0.0
H617 H 0.01352 0.348 0.69125 0.0
H618 H 0.98971 0.32025 0.66997 0.0
H619 H 0.00235 0.32671 0.76443 0.0
C620 C 0.6392 0.95933 0.90111 0.0
C621 C 0.6268 0.96258 0.84296 0.0
C622 C 0.64729 0.97385 0.96491 0.0
C623 C 0.643 0.99222 0.97047 0.0
C624 C 0.63095 0.99592 0.91088 0.0
C625 C 0.62308 0.98109 0.84779 0.0
C626 C 0.66025 0.96919 0.02602 0.0
C627 C 0.62509 0.01466 0.91427 0.0
C628 C 0.64173 0.01817 0.16231 0.0
C629 C 0.664 0.03662 0.16735 0.0
C630 C 0.63474 0.0034 0.0991 0.0
C631 C 0.65046 0.0071 0.03947 0.0
C632 C 0.67314 0.02542 0.04515 0.0
C633 C 0.67963 0.03987 0.10917 0.0
C634 C 0.61012 0.98469 0.09553 0.0
C635 C 0.69073 0.0301 0.98394 0.0
H636 H 0.64226 0.94512 0.89758 0.0
H637 H 0.61324 0.98358 0.8037 0.0
H638 H 0.67865 0.97869 0.01179 0.0
H639 H 0.65802 0.97463 0.08384 0.0
H640 H 0.65486 0.9508 0.02836 0.0
H641 H 0.6266 0.0222 0.85647 0.0
H642 H 0.60707 0.00723 0.93255 0.0
H643 H 0.63587 0.02846 0.95492 0.0
H644 H 0.62942 0.01568 0.20643 0.0
H645 H 0.69693 0.05402 0.11281 0.0
H646 H 0.60721 0.97069 0.05598 0.0
H647 H 0.59964 0.99206 0.07548 0.0
H648 H 0.60388 0.97742 0.15351 0.0
H649 H 0.70379 0.04847 0.98184 0.0
H650 H 0.68303 0.02477 0.92609 0.0
H651 H 0.69957 0.02051 -0.00216 0.0
C652 C 0.62798 0.6686 0.28845 0.0
C653 C 0.62232 0.65946 0.36278 0.0
C654 C 0.6376 0.66037 0.23496 0.0
C655 C 0.64193 0.64279 0.25667 0.0
C656 C 0.63713 0.63415 0.33249 0.0
C657 C 0.62731 0.64253 0.38451 0.0
C658 C 0.64261 0.67008 0.15477 0.0
C659 C 0.64171 0.61554 0.35802 0.0
C660 C 0.6415 0.60065 0.11327 0.0
C661 C 0.66478 0.60871 0.10353 0.0
C662 C 0.63389 0.61241 0.15949 0.0
C663 C 0.64999 0.63221 0.19915 0.0
C664 C 0.67359 0.64072 0.18789 0.0
C665 C 0.68072 0.62901 0.13905 0.0
C666 C 0.6086 0.60322 0.16797 0.0
C667 C 0.69126 0.66136 0.23084 0.0
H668 H 0.62437 0.68181 0.27119 0.0
H669 H 0.62318 0.63548 0.44194 0.0
H670 H 0.66118 0.67857 0.14366 0.0
H671 H 0.63414 0.65621 0.11194 0.0
H672 H 0.63689 0.68266 0.14561 0.0
H673 H 0.63866 0.61195 0.42038 0.0
H674 H 0.63052 0.59964 0.32609 0.0
H675 H 0.65957 0.62035 0.34485 0.0
H676 H 0.62924 0.58495 0.08537 0.0
H677 H 0.69874 0.63502 0.1321 0.0
H678 H 0.6045 0.61689 0.15696 0.0
H679 H 0.60327 0.59717 0.2276 0.0
H680 H 0.59845 0.58886 0.12811 0.0
H681 H 0.68773 0.6756 0.22594 0.0
H682 H 0.70878 0.66718 0.20964 0.0
H683 H 0.69054 0.65715 0.29269 0.0
C684 C 0.9557 0.63798 0.40329 0.0
C685 C 0.95595 0.62374 0.46124 0.0
C686 C 0.97266 0.64687 0.34647 0.0
C687 C 0.99019 0.64129 0.34759 0.0
C688 C 0.99071 0.62722 0.40662 0.0
C689 C 0.97365 0.61871 0.46283 0.0
C690 C 0.97176 0.66213 0.28518 0.0
C691 C 0.00884 0.62049 0.4091 0.0
C692 C 0.02127 0.64281 0.16473 0.0
C693 C 0.04229 0.66281 0.17454 0.0
C694 C 0.00391 0.63599 0.21952 0.0
C695 C 0.00766 0.64946 0.28587 0.0
C696 C 0.0286 0.66998 0.2952 0.0
C697 C 0.04563 0.67647 0.23925 0.0
C698 C 0.98183 0.61396 0.20758 0.0
C699 C 0.03319 0.68485 0.365 0.0
H700 H 0.94211 0.642 0.40179 0.0
H701 H 0.9739 0.60757 0.50694 0.0
H702 H 0.95545 0.66229 0.28616 0.0
H703 H 0.98594 0.67977 0.29412 0.0
H704 H 0.97401 0.65668 0.2274 0.0
H705 H 0.00863 0.61203 0.46393 0.0
H706 H 0.00605 0.60857 0.36129 0.0
H707 H 0.02597 0.63558 0.40122 0.0
H708 H 0.0185 0.63217 0.11491 0.0
H709 H 0.06173 0.69203 0.24716 0.0
H710 H 0.96709 0.61653 0.2168 0.0
H711 H 0.98051 0.60121 0.25021 0.0
H712 H 0.98056 0.60686 0.14917 0.0
H713 H 0.02149 0.69185 0.36502 0.0
H714 H 0.05101 0.69924 0.36679 0.0
H715 H 0.02982 0.67467 0.41822 0.0
C716 C 0.3615 0.0392 0.38467 0.0
C717 C 0.37247 0.03425 0.32572 0.0
C718 C 0.35315 0.02531 0.44987 0.0
C719 C 0.35566 0.00588 0.45598 0.0
C720 C 0.36588 0.00026 0.39536 0.0
C721 C 0.37413 0.01449 0.33082 0.0
C722 C 0.34212 0.03172 0.5129 0.0
C723 C 0.36896 0.97973 0.40009 0.0
C724 C 0.35812 0.9832 0.65269 0.0
C725 C 0.33651 0.96372 0.6579 0.0
C726 C 0.36437 0.99735 0.58789 0.0
C727 C 0.34859 0.99196 0.52718 0.0
C728 C 0.32647 0.9728 0.53334 0.0
C729 C 0.32068 0.95895 0.59875 0.0
C730 C 0.3882 0.01754 0.58295 0.0
C731 C 0.30908 0.96663 0.47025 0.0
H732 H 0.3599 0.05429 0.38085 0.0
H733 H 0.38259 0.01054 0.28569 0.0
H734 H 0.32379 0.01873 0.51656 0.0
H735 H 0.34989 0.03203 0.56919 0.0
H736 H 0.34366 0.04862 0.50303 0.0
H737 H 0.37526 0.97651 0.34536 0.0
H738 H 0.38137 0.98236 0.44605 0.0
H739 H 0.35264 0.96433 0.41542 0.0
H740 H 0.37049 0.98698 0.69792 0.0
H741 H 0.30386 0.94405 0.60262 0.0
H742 H 0.38768 0.03314 0.56738 0.0
H743 H 0.39776 0.01457 0.53706 0.0
H744 H 0.39772 0.02061 0.63767 0.0
H745 H 0.30384 0.97971 0.46713 0.0
H746 H 0.29365 0.94975 0.47973 0.0
H747 H 0.31654 0.96642 0.41385 0.0
C748 C 0.37808 0.35529 0.82449 0.0
C749 C 0.37707 0.33418 0.81914 0.0
C750 C 0.36869 0.36261 0.76706 0.0
C751 C 0.35788 0.34842 0.703 0.0
C752 C 0.35628 0.32683 0.69823 0.0
C753 C 0.36589 0.31997 0.75636 0.0
C754 C 0.37143 0.38604 0.77341 0.0
C755 C 0.34479 0.31116 0.63103 0.0
C756 C 0.31941 0.36181 0.58193 0.0
C757 C 0.33403 0.37458 0.52189 0.0
C758 C 0.32681 0.35283 0.64057 0.0
C759 C 0.34935 0.35669 0.63908 0.0
C760 C 0.36405 0.36922 0.57792 0.0
C761 C 0.35619 0.37795 0.52004 0.0
C762 C 0.31079 0.3399 0.70553 0.0
C763 C 0.38851 0.3746 0.57503 0.0
H764 H 0.38688 0.3665 0.8723 0.0
H765 H 0.36494 0.30357 0.75196 0.0
H766 H 0.38616 0.39807 0.73793 0.0
H767 H 0.35617 0.38621 0.7516 0.0
H768 H 0.37462 0.39232 0.83355 0.0
H769 H 0.34734 0.2962 0.63129 0.0
H770 H 0.32624 0.30498 0.63289 0.0
H771 H 0.35135 0.32044 0.57609 0.0
H772 H 0.30226 0.35914 0.58394 0.0
H773 H 0.36774 0.38803 0.47451 0.0
H774 H 0.31815 0.3487 0.7607 0.0
H775 H 0.30863 0.32261 0.70975 0.0
H776 H 0.29377 0.33829 0.69814 0.0
H777 H 0.39919 0.39044 0.60801 0.0
H778 H 0.39499 0.37746 0.51516 0.0
H779 H 0.39075 0.36091 0.60086 0.0
C780 C 0.16284 0.38576 0.10283 0.0
C781 C 0.14686 0.38781 0.14762 0.0
C782 C 0.18025 0.38342 0.13781 0.0
C783 C 0.18153 0.38324 0.21907 0.0
C784 C 0.16424 0.38349 0.26385 0.0
C785 C 0.14716 0.3859 0.22737 0.0
C786 C 0.1983 0.38308 0.08809 0.0
C787 C 0.16483 0.38329 0.35046 0.0
C788 C 0.22462 0.37185 0.32065 0.0
C789 C 0.2425 0.39409 0.33343 0.0
C790 C 0.20469 0.3679 0.28234 0.0
C791 C 0.20263 0.38665 0.25721 0.0
C792 C 0.22061 0.4091 0.27062 0.0
C793 C 0.24032 0.41253 0.30818 0.0
C794 C 0.18591 0.34375 0.26853 0.0
C795 C 0.219 0.4296 0.24565 0.0
H796 H 0.16258 0.38747 0.04102 0.0
H797 H 0.13462 0.38741 0.26142 0.0
H798 H 0.21416 0.39987 0.09135 0.0
H799 H 0.2024 0.37007 0.10874 0.0
H800 H 0.19294 0.37955 0.02704 0.0
H801 H 0.14834 0.37971 0.37598 0.0
H802 H 0.16903 0.37039 0.37155 0.0
H803 H 0.17831 0.40016 0.37133 0.0
H804 H 0.22634 0.35755 0.33952 0.0
H805 H 0.25407 0.42976 0.31801 0.0
H806 H 0.18234 0.34084 0.20616 0.0
H807 H 0.17 0.34083 0.29666 0.0
H808 H 0.19028 0.33105 0.29067 0.0
H809 H 0.21622 0.42905 0.18277 0.0
H810 H 0.23458 0.44592 0.26002 0.0
H811 H 0.20421 0.42938 0.27378 0.0
C812 C 0.74935 0.16167 0.41999 0.0
C813 C 0.75066 0.14854 0.36035 0.0
C814 C 0.76906 0.17975 0.45186 0.0
C815 C 0.79062 0.18508 0.42239 0.0
C816 C 0.79212 0.17126 0.36438 0.0
C817 C 0.77205 0.15296 0.33435 0.0
C818 C 0.76671 0.19383 0.51452 0.0
C819 C 0.81479 0.17652 0.33116 0.0
C820 C 0.83311 0.24796 0.43501 0.0
C821 C 0.84578 0.24912 0.50009 0.0
C822 C 0.81596 0.22706 0.40686 0.0
C823 C 0.81105 0.20677 0.44556 0.0
C824 C 0.82435 0.20772 0.50977 0.0
C825 C 0.84178 0.22898 0.53603 0.0
C826 C 0.80246 0.22683 0.33747 0.0
C827 C 0.81948 0.18644 0.55272 0.0
H828 H 0.73282 0.158 0.44124 0.0
H829 H 0.77307 0.14272 0.28847 0.0
H830 H 0.77839 0.19627 0.56278 0.0
H831 H 0.77151 0.21094 0.49178 0.0
H832 H 0.74904 0.18588 0.53709 0.0
H833 H 0.81331 0.16259 0.29372 0.0
H834 H 0.82184 0.19236 0.29662 0.0
H835 H 0.82718 0.17953 0.3776 0.0
H836 H 0.83646 0.26353 0.40629 0.0
H837 H 0.85163 0.2299 0.5863 0.0
H838 H 0.78469 0.22129 0.35473 0.0
H839 H 0.80178 0.2145 0.29426 0.0
H840 H 0.8098 0.24384 0.30998 0.0
H841 H 0.80292 0.1795 0.58293 0.0
H842 H 0.83288 0.18973 0.59573 0.0
H843 H 0.81802 0.17314 0.51229 0.0
C844 C 0.58632 0.83698 0.59437 0.0
C845 C 0.6 0.84956 0.65629 0.0
C846 C 0.58783 0.8187 0.5637 0.0
C847 C 0.60306 0.81256 0.59691 0.0
C848 C 0.61749 0.8257 0.6579 0.0
C849 C 0.61594 0.84426 0.68645 0.0
C850 C 0.57248 0.80542 0.49765 0.0
C851 C 0.63372 0.81949 0.69535 0.0
C852 C 0.5832 0.74979 0.57915 0.0
C853 C 0.59662 0.7495 0.51857 0.0
C854 C 0.58586 0.77032 0.60716 0.0
C855 C 0.60206 0.79107 0.57274 0.0
C856 C 0.61601 0.79095 0.51243 0.0
C857 C 0.61327 0.7701 0.48645 0.0
C858 C 0.5709 0.76972 0.67243 0.0
C859 C 0.63323 0.81274 0.4737 0.0
H860 H 0.57425 0.84133 0.5701 0.0
H861 H 0.62656 0.85405 0.73425 0.0
H862 H 0.58247 0.80324 0.45141 0.0
H863 H 0.55958 0.78817 0.51757 0.0
H864 H 0.56345 0.81386 0.47315 0.0
H865 H 0.64524 0.83261 0.73701 0.0
H866 H 0.62388 0.80306 0.72611 0.0
H867 H 0.6442 0.81715 0.65138 0.0
H868 H 0.57053 0.73389 0.60486 0.0
H869 H 0.62367 0.76986 0.4396 0.0
H870 H 0.5593 0.77572 0.65194 0.0
H871 H 0.58148 0.78136 0.71904 0.0
H872 H 0.56042 0.75235 0.69669 0.0
H873 H 0.62428 0.82042 0.44352 0.0
H874 H 0.64382 0.80991 0.43138 0.0
H875 H 0.64461 0.82527 0.51695 0.0
C876 C 0.77457 0.59447 0.91818 0.0
C877 C 0.76241 0.6053 0.89771 0.0
C878 C 0.79341 0.59775 0.87482 0.0
C879 C 0.79944 0.61137 0.80774 0.0
C880 C 0.7877 0.6231 0.78893 0.0
C881 C 0.76944 0.62014 0.83499 0.0
C882 C 0.80591 0.58547 0.89801 0.0
C883 C 0.79326 0.63732 0.71705 0.0
C884 C 0.8542 0.62473 0.70453 0.0
C885 C 0.84624 0.60622 0.65418 0.0
C886 C 0.83914 0.62696 0.75444 0.0
C887 C 0.81562 0.61059 0.75198 0.0
C888 C 0.80748 0.59251 0.69823 0.0
C889 C 0.82298 0.59032 0.65101 0.0
C890 C 0.8486 0.64595 0.81273 0.0
C891 C 0.78252 0.57479 0.69289 0.0
H892 H 0.76883 0.58281 0.96645 0.0
H893 H 0.75958 0.62808 0.81869 0.0
H894 H 0.8016 0.57123 0.85768 0.0
H895 H 0.8246 0.59712 0.89508 0.0
H896 H 0.80135 0.5784 0.957 0.0
H897 H 0.78267 0.64553 0.7111 0.0
H898 H 0.81148 0.65073 0.71713 0.0
H899 H 0.79045 0.62647 0.66594 0.0
H900 H 0.87234 0.63668 0.70804 0.0
H901 H 0.81696 0.57591 0.61236 0.0
H902 H 0.8476 0.63873 0.8707 0.0
H903 H 0.8384 0.65461 0.81401 0.0
H904 H 0.86666 0.65879 0.80092 0.0
H905 H 0.77788 0.5628 0.74178 0.0
H906 H 0.77848 0.56483 0.63881 0.0
H907 H 0.77168 0.58274 0.69629 0.0
C908 C 0.23078 0.84385 0.81566 0.0
C909 C 0.25206 0.85021 0.84792 0.0
C910 C 0.21089 0.82506 0.84442 0.0
C911 C 0.21242 0.81281 0.90783 0.0
C912 C 0.23381 0.81989 0.9426 0.0
C913 C 0.2534 0.83835 0.91164 0.0
C914 C 0.18842 0.81781 0.80527 0.0
C915 C 0.23611 0.80762 0.01137 0.0
C916 C 0.15986 0.77195 0.02183 0.0
C917 C 0.15597 0.75089 0.99435 0.0
C918 C 0.17794 0.79238 0.99315 0.0
C919 C 0.19206 0.79161 0.93472 0.0
C920 C 0.18759 0.77036 0.90488 0.0
C921 C 0.16973 0.75025 0.93561 0.0
C922 C 0.18241 0.81472 0.02709 0.0
C923 C 0.202 0.76882 0.84167 0.0
H924 H 0.22978 0.85307 0.76639 0.0
H925 H 0.26984 0.84352 0.93743 0.0
H926 H 0.18201 0.80081 0.77871 0.0
H927 H 0.17553 0.8162 0.84778 0.0
H928 H 0.18989 0.82998 0.75993 0.0
H929 H 0.25369 0.81631 0.03494 0.0
H930 H 0.22422 0.80636 0.05737 0.0
H931 H 0.23147 0.79001 0.99502 0.0
H932 H 0.14921 0.77244 0.06733 0.0
H933 H 0.16655 0.73397 0.91355 0.0
H934 H 0.18326 0.82642 0.98105 0.0
H935 H 0.19915 0.82308 0.05664 0.0
H936 H 0.16909 0.81248 0.06897 0.0
H937 H 0.20299 0.77965 0.79243 0.0
H938 H 0.1952 0.75109 0.8209 0.0
H939 H 0.21962 0.77526 0.8628 0.0
C940 C 0.38583 0.15304 0.16098 0.0
C941 C 0.40127 0.14704 0.13097 0.0
C942 C 0.38462 0.17165 0.13102 0.0
C943 C 0.39883 0.1841 0.06871 0.0
C944 C 0.4136 0.17731 0.0359 0.0
C945 C 0.41481 0.15901 0.068 0.0
C946 C 0.36888 0.17858 0.16811 0.0
C947 C 0.42867 0.18981 0.96839 0.0
C948 C 0.38805 0.22568 0.95483 0.0
C949 C 0.40481 0.24655 0.98499 0.0
C950 C 0.38557 0.20506 0.98227 0.0
C951 C 0.39992 0.20545 0.04209 0.0
C952 C 0.41635 0.22649 0.07428 0.0
C953 C 0.41873 0.24677 0.04485 0.0
C954 C 0.36809 0.18295 0.9459 0.0
C955 C 0.43174 0.22763 0.13894 0.0
H956 H 0.37532 0.14373 0.2096 0.0
H957 H 0.42647 0.1541 0.04385 0.0
H958 H 0.3791 0.1954 0.19624 0.0
H959 H 0.35809 0.18044 0.12415 0.0
H960 H 0.35766 0.16609 0.21188 0.0
H961 H 0.43775 0.1812 0.94573 0.0
H962 H 0.41841 0.19124 0.92141 0.0
H963 H 0.44152 0.20736 0.98583 0.0
H964 H 0.37727 0.2255 0.90854 0.0
H965 H 0.43151 0.26288 0.06903 0.0
H966 H 0.35673 0.17099 0.99047 0.0
H967 H 0.37679 0.17475 0.91742 0.0
H968 H 0.35751 0.18547 0.90265 0.0
H969 H 0.42145 0.21659 0.18713 0.0
H970 H 0.44256 0.24523 0.16091 0.0
H971 H 0.44302 0.2212 0.1188 0.0
C972 C 0.11513 0.4026 0.4052 0.0
C973 C 0.09251 0.39381 0.38129 0.0
C974 C 0.12093 0.40539 0.48315 0.0
C975 C 0.10373 0.39969 0.53888 0.0
C976 C 0.08077 0.39059 0.51537 0.0
C977 C 0.0754 0.38753 0.43669 0.0
C978 C 0.14553 0.4147 0.50579 0.0
C979 C 0.06203 0.38473 0.57314 0.0
C980 C 0.11731 0.3931 0.74601 0.0
C981 C 0.1244 0.41485 0.77538 0.0
C982 C 0.11041 0.3878 0.6691 0.0
C983 C 0.11012 0.40454 0.62125 0.0
C984 C 0.11689 0.42642 0.65122 0.0
C985 C 0.12413 0.43135 0.72768 0.0
C986 C 0.10367 0.36442 0.63884 0.0
C987 C 0.11648 0.44463 0.6025 0.0
H988 H 0.12838 0.40721 0.36279 0.0
H989 H 0.05794 0.38085 0.41827 0.0
H990 H 0.1518 0.43088 0.53787 0.0
H991 H 0.14703 0.40252 0.54448 0.0
H992 H 0.15677 0.41795 0.45537 0.0
H993 H 0.04497 0.37706 0.5458 0.0
H994 H 0.06183 0.37264 0.61644 0.0
H995 H 0.06525 0.40032 0.60436 0.0
H996 H 0.11744 0.38035 0.78316 0.0
H997 H 0.12906 0.448 0.75089 0.0
H998 H 0.11495 0.36588 0.59042 0.0
H999 H 0.08602 0.35607 0.61627 0.0
H1000 H 0.1047 0.3533 0.68359 0.0
H1001 H 0.12837 0.44893 0.55348 0.0
H1002 H 0.12136 0.46044 0.63546 0.0
H1003 H 0.09919 0.43825 0.57834 0.0
C1004 C 0.71482 0.13633 0.91951 0.0
C1005 C 0.70478 0.11898 0.97432 0.0
C1006 C 0.71377 0.13112 0.84107 0.0
C1007 C 0.70201 0.10805 0.81739 0.0
C1008 C 0.69177 0.09052 0.87262 0.0
C1009 C 0.6934 0.09619 0.95043 0.0
C1010 C 0.72521 0.15023 0.78363 0.0
C1011 C 0.67878 0.06576 0.84945 0.0
C1012 C 0.67915 0.09359 0.61439 0.0
C1013 C 0.6947 0.08842 0.58018 0.0
C1014 C 0.68142 0.10018 0.69155 0.0
C1015 C 0.69997 0.10207 0.73481 0.0
C1016 C 0.71591 0.09715 0.70017 0.0
C1017 C 0.71295 0.09017 0.62327 0.0
C1018 C 0.6638 0.1048 0.72705 0.0
C1019 C 0.73606 0.09929 0.74429 0.0
H1020 H 0.72369 0.15391 0.93824 0.0
H1021 H 0.68523 0.08275 0.99265 0.0
H1022 H 0.7376 0.1479 0.74882 0.0
H1023 H 0.71236 0.14992 0.74349 0.0
H1024 H 0.73429 0.1672 0.81164 0.0
H1025 H 0.67188 0.05432 0.89976 0.0
H1026 H 0.66443 0.06264 0.81114 0.0
H1027 H 0.69002 0.06122 0.81706 0.0
H1028 H 0.66506 0.09218 0.5807 0.0
H1029 H 0.7252 0.08659 0.59619 0.0
H1030 H 0.67211 0.12233 0.75061 0.0
H1031 H 0.65534 0.09293 0.7756 0.0
H1032 H 0.65057 0.10281 0.68518 0.0
H1033 H 0.74611 0.11669 0.76859 0.0
H1034 H 0.74744 0.09582 0.70791 0.0
H1035 H 0.73007 0.0872 0.79317 0.0
C1036 C 0.5775 0.67327 0.7842 0.0
C1037 C 0.59902 0.68924 0.75593 0.0
C1038 C 0.57187 0.67343 0.86138 0.0
C1039 C 0.58819 0.68999 0.91126 0.0
C1040 C 0.61011 0.70587 0.88353 0.0
C1041 C 0.61529 0.70527 0.80605 0.0
C1042 C 0.54846 0.65599 0.88943 0.0
C1043 C 0.62794 0.72372 0.9354 0.0
C1044 C 0.56832 0.70538 0.09322 0.0
C1045 C 0.57384 0.69398 0.14847 0.0
C1046 C 0.57273 0.70409 0.0153 0.0
C1047 C 0.5824 0.69069 0.99272 0.0
C1048 C 0.58716 0.67844 0.04825 0.0
C1049 C 0.58308 0.68047 0.12567 0.0
C1050 C 0.56753 0.71744 0.95742 0.0
C1051 C 0.59693 0.66351 0.02625 0.0
H1052 H 0.56503 0.66067 0.74566 0.0
H1053 H 0.63183 0.71782 0.7842 0.0
H1054 H 0.54993 0.64603 0.93736 0.0
H1055 H 0.53947 0.66466 0.91199 0.0
H1056 H 0.53789 0.64402 0.84341 0.0
H1057 H 0.64418 0.73479 0.9048 0.0
H1058 H 0.62154 0.73457 0.95978 0.0
H1059 H 0.63147 0.71543 0.9842 0.0
H1060 H 0.56121 0.71581 0.11141 0.0
H1061 H 0.58697 0.67136 0.16864 0.0
H1062 H 0.55595 0.70589 0.91241 0.0
H1063 H 0.58347 0.73008 0.92851 0.0
H1064 H 0.55951 0.72657 0.98421 0.0
H1065 H 0.58767 0.65257 0.97651 0.0
H1066 H 0.59614 0.6524 0.07437 0.0
H1067 H 0.61499 0.67437 0.00897 0.0
C1068 C 0.90005 0.6249 0.90396 0.0
C1069 C 0.90131 0.60739 0.86593 0.0
C1070 C 0.89295 0.62236 0.98065 0.0
C1071 C 0.88753 0.60202 0.02014 0.0
C1072 C 0.88861 0.58422 0.98147 0.0
C1073 C 0.89525 0.58705 0.90434 0.0
C1074 C 0.8915 0.64147 0.01959 0.0
C1075 C 0.88326 0.56242 0.022 0.0
C1076 C 0.89458 0.60323 0.23546 0.0
C1077 C 0.87191 0.59216 0.26062 0.0
C1078 C 0.89989 0.60709 0.15738 0.0
C1079 C 0.88208 0.59979 0.10311 0.0
C1080 C 0.85916 0.58923 0.12812 0.0
C1081 C 0.85433 0.58538 0.20681 0.0
C1082 C 0.92453 0.61819 0.13291 0.0
C1083 C 0.83979 0.58164 0.07171 0.0
H1084 H 0.90427 0.6404 0.87317 0.0
H1085 H 0.89619 0.57358 0.87413 0.0
H1086 H 0.87443 0.63494 0.0457 0.0
H1087 H 0.90418 0.64859 0.0667 0.0
H1088 H 0.8947 0.65544 0.97919 0.0
H1089 H 0.88442 0.55007 0.98308 0.0
H1090 H 0.8953 0.56624 0.07035 0.0
H1091 H 0.86585 0.55427 0.04662 0.0
H1092 H 0.90822 0.60813 0.27667 0.0
H1093 H 0.83682 0.577 0.22639 0.0
H1094 H 0.92889 0.63289 0.09471 0.0
H1095 H 0.92738 0.60583 0.09999 0.0
H1096 H 0.93631 0.62423 0.18267 0.0
H1097 H 0.84266 0.59606 0.03424 0.0
H1098 H 0.82306 0.57495 0.10074 0.0
H1099 H 0.83907 0.56812 0.03399 0.0
C1100 C 0.31331 0.87999 0.41744 0.0
C1101 C 0.29807 0.8812 0.46885 0.0
C1102 C 0.31394 0.88599 0.34014 0.0
C1103 C 0.29874 0.89309 0.31349 0.0
C1104 C 0.28301 0.89394 0.3648 0.0
C1105 C 0.28297 0.88811 0.44206 0.0
C1106 C 0.33121 0.88521 0.28737 0.0
C1107 C 0.26641 0.90122 0.33829 0.0
C1108 C 0.31535 0.92849 0.13129 0.0
C1109 C 0.30363 0.91175 0.07579 0.0
C1110 C 0.31366 0.92272 0.20929 0.0
C1111 C 0.2995 0.89975 0.23191 0.0
C1112 C 0.28688 0.88296 0.17604 0.0
C1113 C 0.2893 0.88914 0.09846 0.0
C1114 C 0.32772 0.941 0.267 0.0
C1115 C 0.27117 0.8584 0.19797 0.0
H1116 H 0.3253 0.87507 0.43827 0.0
H1117 H 0.27111 0.88895 0.48172 0.0
H1118 H 0.32245 0.87363 0.23847 0.0
H1119 H 0.34259 0.90239 0.26321 0.0
H1120 H 0.34183 0.87934 0.31719 0.0
H1121 H 0.25447 0.89979 0.3845 0.0
H1122 H 0.27584 0.91916 0.31847 0.0
H1123 H 0.25637 0.89066 0.28885 0.0
H1124 H 0.32648 0.94591 0.11318 0.0
H1125 H 0.27997 0.87631 0.05522 0.0
H1126 H 0.34086 0.93764 0.29156 0.0
H1127 H 0.31689 0.9407 0.3151 0.0
H1128 H 0.33637 0.95829 0.24116 0.0
H1129 H 0.28126 0.85103 0.22167 0.0
H1130 H 0.26114 0.84789 0.14831 0.0
H1131 H 0.25919 0.85728 0.24344 0.0
C1132 C 0.43196 0.28898 0.55707 0.0
C1133 C 0.42404 0.2984 0.61205 0.0
C1134 C 0.42738 0.28964 0.47888 0.0
C1135 C 0.41495 0.30032 0.45573 0.0
C1136 C 0.40724 0.31014 0.51106 0.0
C1137 C 0.41178 0.30896 0.58863 0.0
C1138 C 0.43562 0.27877 0.4212 0.0
C1139 C 0.39424 0.32196 0.48838 0.0
C1140 C 0.42038 0.32067 0.25053 0.0
C1141 C 0.39996 0.30368 0.21854 0.0
C1142 C 0.42552 0.31979 0.32783 0.0
C1143 C 0.40995 0.30128 0.3736 0.0
C1144 C 0.38928 0.28406 0.34156 0.0
C1145 C 0.38446 0.28556 0.26432 0.0
C1146 C 0.44751 0.33868 0.36058 0.0
C1147 C 0.37239 0.26398 0.38866 0.0
H1148 H 0.44134 0.28075 0.57553 0.0
H1149 H 0.40604 0.31665 0.6311 0.0
H1150 H 0.42093 0.26537 0.38879 0.0
H1151 H 0.44708 0.29165 0.37897 0.0
H1152 H 0.4449 0.27101 0.44873 0.0
H1153 H 0.39018 0.32934 0.53856 0.0
H1154 H 0.40431 0.33581 0.44687 0.0
H1155 H 0.37807 0.30974 0.45969 0.0
H1156 H 0.43225 0.3347 0.21489 0.0
H1157 H 0.36886 0.27223 0.23909 0.0
H1158 H 0.45792 0.33161 0.38376 0.0
H1159 H 0.44381 0.34697 0.40897 0.0
H1160 H 0.45775 0.35186 0.31712 0.0
H1161 H 0.38074 0.25483 0.41264 0.0
H1162 H 0.35735 0.25179 0.35451 0.0
H1163 H 0.3664 0.26997 0.43785 0.0
C1164 C 0.57597 0.86305 0.09285 0.0
C1165 C 0.58372 0.88041 0.03796 0.0
C1166 C 0.58038 0.86823 0.1712 0.0
C1167 C 0.59242 0.89131 0.19471 0.0
C1168 C 0.60015 0.90887 0.13943 0.0
C1169 C 0.59582 0.9032 0.06169 0.0
C1170 C 0.57221 0.84909 0.22873 0.0
C1171 C 0.6127 0.93364 0.16246 0.0
C1172 C 0.58498 0.90628 0.39796 0.0
C1173 C 0.60548 0.91063 0.43197 0.0
C1174 C 0.58043 0.89984 0.32074 0.0
C1175 C 0.59664 0.89728 0.27721 0.0
C1176 C 0.61729 0.90143 0.31158 0.0
C1177 C 0.62156 0.90828 0.38857 0.0
C1178 C 0.55845 0.89605 0.28553 0.0
C1179 C 0.63482 0.89857 0.2671 0.0
H1180 H 0.56672 0.84546 0.07423 0.0
H1181 H 0.60144 0.91667 0.01941 0.0
H1182 H 0.58679 0.8509 0.26324 0.0
H1183 H 0.56001 0.84992 0.26913 0.0
H1184 H 0.56375 0.83209 0.20082 0.0
H1185 H 0.6176 0.9451 0.11209 0.0
H1186 H 0.60185 0.9373 0.20075 0.0
H1187 H 0.62836 0.93765 0.19484 0.0
H1188 H 0.57263 0.90817 0.4319 0.0
H1189 H 0.63722 0.91125 0.4155 0.0
H1190 H 0.54865 0.87854 0.2621 0.0
H1191 H 0.56221 0.90799 0.23693 0.0
H1192 H 0.54759 0.89858 0.32755 0.0
H1193 H 0.62693 0.88112 0.24295 0.0
H1194 H 0.64958 0.90159 0.30321 0.0
H1195 H 0.64115 0.91062 0.21811 0.0
C1196 C 0.70453 0.56414 0.32185 0.0
C1197 C 0.71584 0.58175 0.26878 0.0
C1198 C 0.70333 0.56891 0.39934 0.0
C1199 C 0.71423 0.59185 0.42423 0.0
C1200 C 0.7264 0.60969 0.37116 0.0
C1201 C 0.72678 0.60441 0.29364 0.0
C1202 C 0.68974 0.54946 0.454 0.0
C1203 C 0.73874 0.63431 0.39601 0.0
C1204 C 0.69205 0.60445 0.60641 0.0
C1205 C 0.7067 0.60371 0.66124 0.0
C1206 C 0.69445 0.60084 0.52862 0.0
C1207 C 0.71235 0.59708 0.50553 0.0
C1208 C 0.72779 0.59732 0.56064 0.0
C1209 C 0.72458 0.60032 0.63821 0.0
C1210 C 0.67744 0.60031 0.4716 0.0
C1211 C 0.74744 0.59404 0.53779 0.0
H1212 H 0.69583 0.54666 0.30194 0.0
H1213 H 0.73562 0.61795 0.25221 0.0
H1214 H 0.7007 0.54989 0.50198 0.0
H1215 H 0.6757 0.55125 0.47932 0.0
H1216 H 0.68232 0.53261 0.42535 0.0
H1217 H 0.74896 0.64596 0.3488 0.0
H1218 H 0.72626 0.63923 0.41595 0.0
H1219 H 0.75022 0.63675 0.44496 0.0
H1220 H 0.67823 0.60699 0.62502 0.0
H1221 H 0.73604 0.60009 0.68114 0.0
H1222 H 0.66844 0.58343 0.44305 0.0
H1223 H 0.68634 0.61323 0.42623 0.0
H1224 H 0.6646 0.60362 0.49913 0.0
H1225 H 0.74088 0.57658 0.51507 0.0
H1226 H 0.75896 0.59659 0.58671 0.0
H1227 H 0.75749 0.60611 0.49138 0.0
C1228 C 0.10315 0.69168 0.39939 0.0
C1229 C 0.1259 0.70486 0.37616 0.0
C1230 C 0.09718 0.68967 0.47694 0.0
C1231 C 0.11435 0.70151 0.53239 0.0
C1232 C 0.13736 0.71508 0.50925 0.0
C1233 C 0.14291 0.71636 0.43112 0.0
C1234 C 0.07254 0.67468 0.49945 0.0
C1235 C 0.15603 0.72822 0.56693 0.0
C1236 C 0.0946 0.71095 0.72524 0.0
C1237 C 0.09514 0.69406 0.76988 0.0
C1238 C 0.10122 0.71386 0.64799 0.0
C1239 C 0.10816 0.69926 0.61471 0.0
C1240 C 0.10847 0.682 0.65942 0.0
C1241 C 0.10213 0.67975 0.73678 0.0
C1242 C 0.10099 0.73265 0.60218 0.0
C1243 C 0.11525 0.66577 0.62536 0.0
H1244 H 0.09006 0.68248 0.35678 0.0
H1245 H 0.16045 0.72658 0.41266 0.0
H1246 H 0.06599 0.68513 0.52607 0.0
H1247 H 0.06164 0.66555 0.44947 0.0
H1248 H 0.07093 0.66193 0.54263 0.0
H1249 H 0.17293 0.73858 0.53923 0.0
H1250 H 0.15207 0.73969 0.60061 0.0
H1251 H 0.1571 0.71631 0.60806 0.0
H1252 H 0.08956 0.72225 0.75136 0.0
H1253 H 0.10241 0.66665 0.77157 0.0
H1254 H 0.08904 0.7253 0.55317 0.0
H1255 H 0.11816 0.74407 0.57798 0.0
H1256 H 0.09583 0.74298 0.63735 0.0
H1257 H 0.1038 0.65636 0.57676 0.0
H1258 H 0.1145 0.65325 0.66803 0.0
H1259 H 0.13281 0.6754 0.60217 0.0
C1260 C 0.39439 0.10951 0.54123 0.0
C1261 C 0.41644 0.11685 0.51394 0.0
C1262 C 0.38881 0.10357 0.61854 0.0
C1263 C 0.40564 0.10471 0.66937 0.0
C1264 C 0.42796 0.1122 0.64218 0.0
C1265 C 0.43312 0.11833 0.56487 0.0
C1266 C 0.36489 0.09587 0.64562 0.0
C1267 C 0.44626 0.11326 0.69437 0.0
C1268 C 0.40046 0.10839 0.88472 0.0
C1269 C 0.3925 0.08581 0.90711 0.0
C1270 C 0.404 0.11463 0.80716 0.0
C1271 C 0.39997 0.09795 0.75101 0.0
C1272 C 0.39153 0.07502 0.7734 0.0
C1273 C 0.38764 0.06917 0.85138 0.0
C1274 C 0.41243 0.13913 0.78553 0.0
C1275 C 0.38747 0.05685 0.71542 0.0
H1276 H 0.38151 0.10845 0.50192 0.0
H1277 H 0.45005 0.12355 0.54366 0.0
H1278 H 0.35669 0.07793 0.66527 0.0
H1279 H 0.36531 0.1063 0.69531 0.0
H1280 H 0.35417 0.09712 0.59979 0.0
H1281 H 0.46273 0.11938 0.66413 0.0
H1282 H 0.44902 0.12479 0.74341 0.0
H1283 H 0.44076 0.09613 0.7184 0.0
H1284 H 0.40383 0.12113 0.92814 0.0
H1285 H 0.38158 0.05177 0.86928 0.0
H1286 H 0.40142 0.14008 0.74023 0.0
H1287 H 0.4299 0.1468 0.76173 0.0
H1288 H 0.41275 0.14951 0.83537 0.0
H1289 H 0.37678 0.05701 0.6676 0.0
H1290 H 0.37908 0.03955 0.74114 0.0
H1291 H 0.40401 0.06047 0.6905 0.0
C1292 C 0.30613 0.4087 0.74541 0.0
C1293 C 0.28965 0.41402 0.72121 0.0
C1294 C 0.30904 0.40584 0.82318 0.0
C1295 C 0.29457 0.40761 0.87776 0.0
C1296 C 0.27788 0.41304 0.85366 0.0
C1297 C 0.27582 0.4165 0.77534 0.0
C1298 C 0.32743 0.40056 0.84564 0.0
C1299 C 0.26205 0.41487 0.91043 0.0
C1300 C 0.28776 0.37725 0.06656 0.0
C1301 C 0.30224 0.39534 0.11452 0.0
C1302 C 0.28486 0.38106 0.98943 0.0
C1303 C 0.29675 0.40347 0.95987 0.0
C1304 C 0.31159 0.42176 0.00774 0.0
C1305 C 0.31411 0.41747 0.08463 0.0
C1306 C 0.26919 0.36113 0.93944 0.0
C1307 C 0.3252 0.44574 0.9772 0.0
H1308 H 0.31704 0.40712 0.70333 0.0
H1309 H 0.2631 0.42061 0.75601 0.0
H1310 H 0.33393 0.40629 0.90458 0.0
H1311 H 0.32045 0.38189 0.84254 0.0
H1312 H 0.34204 0.40882 0.8054 0.0
H1313 H 0.25007 0.41931 0.88233 0.0
H1314 H 0.25203 0.39846 0.94119 0.0
H1315 H 0.27206 0.42802 0.95413 0.0
H1316 H 0.27832 0.36018 0.08969 0.0
H1317 H 0.32556 0.43141 0.12145 0.0
H1318 H 0.27914 0.35915 0.89253 0.0
H1319 H 0.25621 0.36429 0.91238 0.0
H1320 H 0.26035 0.34492 0.97215 0.0
H1321 H 0.33683 0.44635 0.93126 0.0
H1322 H 0.3355 0.45817 0.02256 0.0
H1323 H 0.31366 0.45109 0.95126 0.0
C1324 C 0.90295 0.29051 0.22305 0.0
C1325 C 0.90398 0.30845 0.26607 0.0
C1326 C 0.89657 0.28766 0.14546 0.0
C1327 C 0.8916 0.30343 0.10979 0.0
C1328 C 0.89301 0.32182 0.15278 0.0
C1329 C 0.8989 0.32393 0.23078 0.0
C1330 C 0.89486 0.26761 0.10193 0.0
C1331 C 0.88837 0.3393 0.11636 0.0
C1332 C 0.89573 0.30853 0.89291 0.0
C1333 C 0.87272 0.29706 0.87118 0.0
C1334 C 0.90212 0.31069 0.97026 0.0
C1335 C 0.88506 0.3008 0.02736 0.0
C1336 C 0.86179 0.28875 0.00571 0.0
C1337 C 0.85589 0.28727 0.92775 0.0
C1338 C 0.9271 0.32411 0.9908 0.0
C1339 C 0.84315 0.27755 0.06491 0.0
H1340 H 0.90651 0.27833 0.25084 0.0
H1341 H 0.89979 0.3378 0.2643 0.0
H1342 H 0.87738 0.25709 0.07865 0.0
H1343 H 0.90671 0.27367 0.05238 0.0
H1344 H 0.89889 0.25667 0.13846 0.0
H1345 H 0.89082 0.35291 0.15724 0.0
H1346 H 0.89984 0.34726 0.06653 0.0
H1347 H 0.87064 0.33094 0.09448 0.0
H1348 H 0.90876 0.31651 0.84936 0.0
H1349 H 0.83813 0.27838 0.91078 0.0
H1350 H 0.93185 0.31389 0.02811 0.0
H1351 H 0.93056 0.33955 0.02355 0.0
H1352 H 0.93823 0.32949 0.93927 0.0
H1353 H 0.84605 0.2657 0.10072 0.0
H1354 H 0.82598 0.26793 0.0384 0.0
H1355 H 0.84344 0.29063 0.10383 0.0
loop_
_geom_bond_atom_site_label_1
_geom_bond_atom_site_label_2
_geom_bond_distance
_geom_bond_site_symmetry_2
_ccdc_geom_bond_type
Co0 N4 2.148 . S
Co0 N10 2.128 1_554 S
Co0 N20 2.194 . S
Co0 O25 2.351 . S
Co0 O26 2.155 . S
Co0 O27 2.096 . S
C1 N4 1.301 . S
C1 N5 1.328 . S
C1 H6 0.930 . S
C2 C3 1.333 . S
C2 N4 1.317 . S
C2 H7 0.930 . S
C3 C2 1.333 . S
C3 N5 1.350 . S
C3 H29 0.931 . S
N4 Co0 2.148 . S
N4 C1 1.301 . S
N4 C2 1.317 . S
N5 C1 1.328 . S
N5 C3 1.350 . S
H6 C1 0.930 . S
H7 C2 0.930 . S
C8 O9 1.224 1_556 S
C8 O27 1.244 1_556 S
O9 C8 1.224 1_554 S
N10 Co0 2.128 1_556 S
N10 C11 1.355 . S
N10 C13 1.311 . S
C11 N10 1.355 . S
C11 C12 1.363 . S
C11 H23 0.929 . S
C12 C11 1.363 . S
C12 N14 1.375 . S
C12 H30 0.931 . S
C13 N10 1.311 . S
C13 N14 1.347 . S
C13 H24 0.929 . S
N14 C12 1.375 . S
N14 C13 1.347 . S
C15 C18 1.365 . S
C15 N20 1.328 . S
C15 H21 0.929 . S
C16 C17 1.362 . S
C16 C19 1.378 . S
C16 H31 0.929 . S
C17 C16 1.362 . S
C17 C18 1.366 . S
C18 C15 1.365 . S
C18 C17 1.366 . S
C18 H32 0.930 . S
C19 C16 1.378 . S
C19 N20 1.315 . S
C19 H22 0.930 . S
N20 Co0 2.194 . S
N20 C15 1.328 . S
N20 C19 1.315 . S
H21 C15 0.929 . S
H22 C19 0.930 . S
H23 C11 0.929 . S
H24 C13 0.929 . S
O25 Co0 2.351 . S
O25 C28 1.244 . S
O26 Co0 2.155 . S
O26 C28 1.240 . S
O27 Co0 2.096 . S
O27 C8 1.244 1_554 S
C28 O25 1.244 . S
C28 O26 1.240 . S
H29 C3 0.931 . S
H30 C12 0.931 . S
H31 C16 0.929 . S
H32 C18 0.930 . S
Co33 N37 2.148 . S
Co33 N43 2.128 . S
Co33 N53 2.194 . S
Co33 O58 2.351 . S
Co33 O59 2.155 . S
Co33 O60 2.096 . S
C34 N37 1.301 . S
C34 N38 1.328 . S
C34 H39 0.930 . S
C35 C36 1.333 . S
C35 N37 1.317 . S
C35 H40 0.930 . S
C36 C35 1.333 . S
C36 N38 1.350 . S
C36 H62 0.931 . S
N37 Co33 2.148 . S
N37 C34 1.301 . S
N37 C35 1.317 . S
N38 C34 1.328 . S
N38 C36 1.350 . S
H39 C34 0.930 . S
H40 C35 0.930 . S
C41 O42 1.224 . S
C41 O60 1.247 . S
O42 C41 1.224 . S
N43 Co33 2.128 . S
N43 C44 1.355 . S
N43 C46 1.311 . S
C44 N43 1.355 . S
C44 C45 1.363 . S
C44 H56 0.929 . S
C45 C44 1.363 . S
C45 N47 1.375 1_554 S
C45 H63 0.931 1_554 S
C46 N43 1.311 . S
C46 N47 1.347 1_554 S
C46 H57 0.929 . S
N47 C45 1.375 1_556 S
N47 C46 1.347 1_556 S
C48 C51 1.365 . S
C48 N53 1.328 . S
C48 H54 0.929 . S
C49 C50 1.362 . S
C49 C52 1.378 . S
C49 H64 0.929 . S
C50 C49 1.362 . S
C50 C51 1.366 . S
C51 C48 1.365 . S
C51 C50 1.366 . S
C51 H65 0.930 . S
C52 C49 1.378 . S
C52 N53 1.315 . S
C52 H55 0.930 . S
N53 Co33 2.194 . S
N53 C48 1.328 . S
N53 C52 1.315 . S
H54 C48 0.929 . S
H55 C52 0.930 . S
H56 C44 0.929 . S
H57 C46 0.929 . S
O58 Co33 2.351 . S
O58 C61 1.244 . S
O59 Co33 2.155 . S
O59 C61 1.240 . S
O60 Co33 2.096 . S
O60 C41 1.247 . S
C61 O58 1.244 . S
C61 O59 1.240 . S
H62 C36 0.931 . S
H63 C45 0.931 1_556 S
H64 C49 0.929 . S
H65 C51 0.930 . S
Co66 N70 2.148 . S
Co66 N76 2.128 . S
Co66 N86 2.194 . S
Co66 O91 2.351 . S
Co66 O92 2.155 . S
Co66 O93 2.096 . S
C67 N70 1.301 . S
C67 N71 1.328 . S
C67 H72 0.930 . S
C68 C69 1.333 . S
C68 N70 1.317 . S
C68 H73 0.930 . S
C69 C68 1.333 . S
C69 N71 1.350 . S
C69 H95 0.931 . S
N70 Co66 2.148 . S
N70 C67 1.301 . S
N70 C68 1.317 . S
N71 C67 1.328 . S
N71 C69 1.350 . S
H72 C67 0.930 . S
H73 C68 0.930 . S
C74 O75 1.224 . S
C74 O93 1.247 . S
O75 C74 1.224 . S
N76 Co66 2.128 . S
N76 C77 1.355 . S
N76 C79 1.311 . S
C77 N76 1.355 . S
C77 C78 1.363 . S
C77 H89 0.929 . S
C78 C77 1.363 . S
C78 N80 1.375 . S
C78 H96 0.931 . S
C79 N76 1.311 . S
C79 N80 1.347 . S
C79 H90 0.929 . S
N80 C78 1.375 . S
N80 C79 1.347 . S
C81 C84 1.365 . S
C81 N86 1.328 . S
C81 H87 0.929 . S
C82 C83 1.362 . S
C82 C85 1.378 . S
C82 H97 0.929 . S
C83 C82 1.362 . S
C83 C84 1.366 . S
C84 C81 1.365 . S
C84 C83 1.366 . S
C84 H98 0.930 . S
C85 C82 1.378 . S
C85 N86 1.315 . S
C85 H88 0.930 . S
N86 Co66 2.194 . S
N86 C81 1.328 . S
N86 C85 1.315 . S
H87 C81 0.929 . S
H88 C85 0.930 . S
H89 C77 0.929 . S
H90 C79 0.929 . S
O91 Co66 2.351 . S
O91 C94 1.244 . S
O92 Co66 2.155 . S
O92 C94 1.240 . S
O93 Co66 2.096 . S
O93 C74 1.247 . S
C94 O91 1.244 . S
C94 O92 1.240 . S
H95 C69 0.931 . S
H96 C78 0.931 . S
H97 C82 0.929 . S
H98 C84 0.930 . S
Co99 N103 2.148 . S
Co99 N109 2.128 . S
Co99 N119 2.194 . S
Co99 O124 2.351 . S
Co99 O125 2.155 . S
Co99 O126 2.096 . S
C100 N103 1.301 . S
C100 N104 1.328 . S
C100 H105 0.930 . S
C101 C102 1.333 . S
C101 N103 1.317 . S
C101 H106 0.930 . S
C102 C101 1.333 . S
C102 N104 1.350 . S
C102 H128 0.931 . S
N103 Co99 2.148 . S
N103 C100 1.301 . S
N103 C101 1.317 . S
N104 C100 1.328 . S
N104 C102 1.350 . S
H105 C100 0.930 . S
H106 C101 0.930 . S
C107 O108 1.224 . S
C107 O126 1.247 . S
O108 C107 1.224 . S
N109 Co99 2.128 . S
N109 C110 1.355 . S
N109 C112 1.311 . S
C110 N109 1.355 . S
C110 C111 1.363 . S
C110 H122 0.929 . S
C111 C110 1.363 . S
C111 N113 1.375 . S
C111 H129 0.931 . S
C112 N109 1.311 . S
C112 N113 1.347 . S
C112 H123 0.929 . S
N113 C111 1.375 . S
N113 C112 1.347 . S
C114 C117 1.365 . S
C114 N119 1.328 . S
C114 H120 0.929 . S
C115 C116 1.362 . S
C115 C118 1.378 . S
C115 H130 0.929 . S
C116 C115 1.362 . S
C116 C117 1.366 . S
C117 C114 1.365 . S
C117 C116 1.366 . S
C117 H131 0.930 . S
C118 C115 1.378 . S
C118 N119 1.315 . S
C118 H121 0.930 . S
N119 Co99 2.194 . S
N119 C114 1.328 . S
N119 C118 1.315 . S
H120 C114 0.929 . S
H121 C118 0.930 . S
H122 C110 0.929 . S
H123 C112 0.929 . S
O124 Co99 2.351 . S
O124 C127 1.244 . S
O125 Co99 2.155 . S
O125 C127 1.240 . S
O126 Co99 2.096 . S
O126 C107 1.247 . S
C127 O124 1.244 . S
C127 O125 1.240 . S
H128 C102 0.931 . S
H129 C111 0.931 . S
H130 C115 0.929 . S
H131 C117 0.930 . S
Co132 N136 2.148 . S
Co132 N142 2.128 . S
Co132 N152 2.194 . S
Co132 O157 2.351 . S
Co132 O158 2.155 . S
Co132 O159 2.096 . S
C133 N136 1.301 . S
C133 N137 1.328 . S
C133 H138 0.930 . S
C134 C135 1.333 . S
C134 N136 1.317 . S
C134 H139 0.930 . S
C135 C134 1.333 . S
C135 N137 1.350 . S
C135 H161 0.931 . S
N136 Co132 2.148 . S
N136 C133 1.301 . S
N136 C134 1.317 . S
N137 C133 1.328 . S
N137 C135 1.350 . S
H138 C133 0.930 . S
H139 C134 0.930 . S
C140 O141 1.224 . S
C140 O159 1.247 . S
O141 C140 1.224 . S
N142 Co132 2.128 . S
N142 C143 1.355 . S
N142 C145 1.311 . S
C143 N142 1.355 . S
C143 C144 1.363 . S
C143 H155 0.929 . S
C144 C143 1.363 . S
C144 N146 1.375 . S
C144 H162 0.931 . S
C145 N142 1.311 . S
C145 N146 1.347 . S
C145 H156 0.929 . S
N146 C144 1.375 . S
N146 C145 1.347 . S
C147 C150 1.365 . S
C147 N152 1.328 . S
C147 H153 0.929 . S
C148 C149 1.362 . S
C148 C151 1.378 . S
C148 H163 0.929 . S
C149 C148 1.362 . S
C149 C150 1.366 . S
C150 C147 1.365 . S
C150 C149 1.366 . S
C150 H164 0.930 . S
C151 C148 1.378 . S
C151 N152 1.315 . S
C151 H154 0.930 . S
N152 Co132 2.194 . S
N152 C147 1.328 . S
N152 C151 1.315 . S
H153 C147 0.929 . S
H154 C151 0.930 . S
H155 C143 0.929 . S
H156 C145 0.929 . S
O157 Co132 2.351 . S
O157 C160 1.244 . S
O158 Co132 2.155 . S
O158 C160 1.240 . S
O159 Co132 2.096 . S
O159 C140 1.247 . S
C160 O157 1.244 . S
C160 O158 1.240 . S
H161 C135 0.931 . S
H162 C144 0.931 . S
H163 C148 0.929 . S
H164 C150 0.930 . S
Co165 N169 2.148 1_556 S
Co165 N175 2.128 . S
Co165 N185 2.194 . S
Co165 O190 2.351 . S
Co165 O191 2.155 . S
Co165 O192 2.096 . S
C166 N169 1.301 . S
C166 N170 1.328 . S
C166 H171 0.930 . S
C167 C168 1.333 . S
C167 N169 1.317 . S
C167 H172 0.930 1_554 S
C168 C167 1.333 . S
C168 N170 1.350 . S
C168 H194 0.931 . S
N169 Co165 2.148 1_554 S
N169 C166 1.301 . S
N169 C167 1.317 . S
N170 C166 1.328 . S
N170 C168 1.350 . S
H171 C166 0.930 . S
H172 C167 0.930 1_556 S
C173 O174 1.224 . S
C173 O192 1.247 . S
O174 C173 1.224 . S
N175 Co165 2.128 . S
N175 C176 1.355 . S
N175 C178 1.311 . S
C176 N175 1.355 . S
C176 C177 1.363 . S
C176 H188 0.929 . S
C177 C176 1.363 . S
C177 N179 1.375 . S
C177 H195 0.931 . S
C178 N175 1.311 . S
C178 N179 1.347 . S
C178 H189 0.929 . S
N179 C177 1.375 . S
N179 C178 1.347 . S
C180 C183 1.365 . S
C180 N185 1.328 . S
C180 H186 0.929 . S
C181 C182 1.362 . S
C181 C184 1.378 . S
C181 H196 0.929 . S
C182 C181 1.362 . S
C182 C183 1.366 . S
C183 C180 1.365 . S
C183 C182 1.366 . S
C183 H197 0.930 . S
C184 C181 1.378 . S
C184 N185 1.315 . S
C184 H187 0.930 . S
N185 Co165 2.194 . S
N185 C180 1.328 . S
N185 C184 1.315 . S
H186 C180 0.929 . S
H187 C184 0.930 . S
H188 C176 0.929 . S
H189 C178 0.929 . S
O190 Co165 2.351 . S
O190 C193 1.244 . S
O191 Co165 2.155 . S
O191 C193 1.240 . S
O192 Co165 2.096 . S
O192 C173 1.247 . S
C193 O190 1.244 . S
C193 O191 1.240 . S
H194 C168 0.931 . S
H195 C177 0.931 . S
H196 C181 0.929 . S
H197 C183 0.930 . S
Co198 N202 2.148 . S
Co198 N208 2.128 . S
Co198 N218 2.194 . S
Co198 O223 2.351 . S
Co198 O224 2.155 . S
Co198 O225 2.096 . S
C199 N202 1.301 . S
C199 N203 1.328 . S
C199 H204 0.930 . S
C200 C201 1.333 . S
C200 N202 1.317 . S
C200 H205 0.930 . S
C201 C200 1.333 . S
C201 N203 1.350 . S
C201 H227 0.931 . S
N202 Co198 2.148 . S
N202 C199 1.301 . S
N202 C200 1.317 . S
N203 C199 1.328 . S
N203 C201 1.350 . S
H204 C199 0.930 . S
H205 C200 0.930 . S
C206 O207 1.224 . S
C206 O225 1.247 . S
O207 C206 1.224 . S
N208 Co198 2.128 . S
N208 C209 1.355 . S
N208 C211 1.311 . S
C209 N208 1.355 . S
C209 C210 1.363 . S
C209 H221 0.929 . S
C210 C209 1.363 . S
C210 N212 1.375 1_556 S
C210 H228 0.931 1_556 S
C211 N208 1.311 . S
C211 N212 1.347 1_556 S
C211 H222 0.929 . S
N212 C210 1.375 1_554 S
N212 C211 1.347 1_554 S
C213 C216 1.365 . S
C213 N218 1.328 . S
C213 H219 0.929 . S
C214 C215 1.362 . S
C214 C217 1.378 . S
C214 H229 0.929 . S
C215 C214 1.362 . S
C215 C216 1.366 . S
C216 C213 1.365 . S
C216 C215 1.366 . S
C216 H230 0.930 . S
C217 C214 1.378 . S
C217 N218 1.315 . S
C217 H220 0.930 . S
N218 Co198 2.194 . S
N218 C213 1.328 . S
N218 C217 1.315 . S
H219 C213 0.929 . S
H220 C217 0.930 . S
H221 C209 0.929 . S
H222 C211 0.929 . S
O223 Co198 2.351 . S
O223 C226 1.244 . S
O224 Co198 2.155 . S
O224 C226 1.240 . S
O225 Co198 2.096 . S
O225 C206 1.247 . S
C226 O223 1.244 . S
C226 O224 1.240 . S
H227 C201 0.931 . S
H228 C210 0.931 1_554 S
H229 C214 0.929 . S
H230 C216 0.930 . S
Co231 N235 2.148 . S
Co231 N241 2.128 1_556 S
Co231 N251 2.194 . S
Co231 O256 2.351 . S
Co231 O257 2.155 . S
Co231 O258 2.096 . S
C232 N235 1.301 . S
C232 N236 1.328 . S
C232 H237 0.930 . S
C233 C234 1.333 . S
C233 N235 1.317 . S
C233 H238 0.930 . S
C234 C233 1.333 . S
C234 N236 1.350 . S
C234 H260 0.931 . S
N235 Co231 2.148 . S
N235 C232 1.301 . S
N235 C233 1.317 . S
N236 C232 1.328 . S
N236 C234 1.350 . S
H237 C232 0.930 . S
H238 C233 0.930 . S
C239 O240 1.224 . S
C239 O258 1.247 1_554 S
O240 C239 1.224 . S
N241 Co231 2.128 1_554 S
N241 C242 1.355 . S
N241 C244 1.311 . S
C242 N241 1.355 . S
C242 C243 1.363 . S
C242 H254 0.929 . S
C243 C242 1.363 . S
C243 N245 1.375 . S
C243 H261 0.931 . S
C244 N241 1.311 . S
C244 N245 1.347 . S
C244 H255 0.929 . S
N245 C243 1.375 . S
N245 C244 1.347 . S
C246 C249 1.365 . S
C246 N251 1.328 . S
C246 H252 0.929 . S
C247 C248 1.362 . S
C247 C250 1.378 . S
C247 H262 0.929 . S
C248 C247 1.362 . S
C248 C249 1.366 . S
C249 C246 1.365 . S
C249 C248 1.366 . S
C249 H263 0.930 . S
C250 C247 1.378 . S
C250 N251 1.315 . S
C250 H253 0.930 . S
N251 Co231 2.194 . S
N251 C246 1.328 . S
N251 C250 1.315 . S
H252 C246 0.929 . S
H253 C250 0.930 . S
H254 C242 0.929 . S
H255 C244 0.929 . S
O256 Co231 2.351 . S
O256 C259 1.244 . S
O257 Co231 2.155 . S
O257 C259 1.240 . S
O258 Co231 2.096 . S
O258 C239 1.247 1_556 S
C259 O256 1.244 . S
C259 O257 1.240 . S
H260 C234 0.931 . S
H261 C243 0.931 . S
H262 C247 0.929 . S
H263 C249 0.930 . S
Co264 N268 2.160 . S
Co264 N274 2.128 . S
Co264 N284 2.194 . S
Co264 O289 2.351 . S
Co264 O290 2.155 . S
Co264 O291 2.096 . S
C265 N268 1.290 1_556 S
C265 N269 1.328 . S
C265 H270 0.930 . S
C266 C267 1.333 . S
C266 N268 1.314 1_556 S
C266 H271 0.930 1_556 S
C267 C266 1.333 . S
C267 N269 1.350 . S
C267 H293 0.931 . S
N268 Co264 2.160 . S
N268 C265 1.290 1_554 S
N268 C266 1.314 1_554 S
N269 C265 1.328 . S
N269 C267 1.350 . S
H270 C265 0.930 . S
H271 C266 0.930 1_554 S
C272 O273 1.224 . S
C272 O291 1.247 . S
O273 C272 1.224 . S
N274 Co264 2.128 . S
N274 C275 1.355 . S
N274 C277 1.311 . S
C275 N274 1.355 . S
C275 C276 1.363 . S
C275 H287 0.929 . S
C276 C275 1.363 . S
C276 N278 1.375 . S
C276 H294 0.931 . S
C277 N274 1.311 . S
C277 N278 1.347 . S
C277 H288 0.929 . S
N278 C276 1.375 . S
N278 C277 1.347 . S
C279 C282 1.365 . S
C279 N284 1.328 . S
C279 H285 0.929 . S
C280 C281 1.362 . S
C280 C283 1.378 . S
C280 H295 0.929 . S
C281 C280 1.362 . S
C281 C282 1.366 . S
C282 C279 1.365 . S
C282 C281 1.366 . S
C282 H296 0.930 . S
C283 C280 1.378 . S
C283 N284 1.315 . S
C283 H286 0.930 . S
N284 Co264 2.194 . S
N284 C279 1.328 . S
N284 C283 1.315 . S
H285 C279 0.929 . S
H286 C283 0.930 . S
H287 C275 0.929 . S
H288 C277 0.929 . S
O289 Co264 2.351 . S
O289 C292 1.244 . S
O290 Co264 2.155 . S
O290 C292 1.240 . S
O291 Co264 2.096 . S
O291 C272 1.247 . S
C292 O289 1.244 . S
C292 O290 1.240 . S
H293 C267 0.931 . S
H294 C276 0.931 . S
H295 C280 0.929 . S
H296 C282 0.930 . S
Co297 N301 2.148 . S
Co297 N307 2.128 . S
Co297 N317 2.194 . S
Co297 O322 2.351 . S
Co297 O323 2.155 . S
Co297 O324 2.096 . S
C298 N301 1.301 . S
C298 N302 1.328 . S
C298 H303 0.930 . S
C299 C300 1.333 . S
C299 N301 1.317 . S
C299 H304 0.930 . S
C300 C299 1.333 . S
C300 N302 1.350 . S
C300 H326 0.931 . S
N301 Co297 2.148 . S
N301 C298 1.301 . S
N301 C299 1.317 . S
N302 C298 1.328 . S
N302 C300 1.350 . S
H303 C298 0.930 . S
H304 C299 0.930 . S
C305 O306 1.224 . S
C305 O324 1.247 . S
O306 C305 1.224 . S
N307 Co297 2.128 . S
N307 C308 1.355 . S
N307 C310 1.311 . S
C308 N307 1.355 . S
C308 C309 1.363 . S
C308 H320 0.929 . S
C309 C308 1.363 . S
C309 N311 1.375 . S
C309 H327 0.931 . S
C310 N307 1.311 . S
C310 N311 1.347 . S
C310 H321 0.929 . S
N311 C309 1.375 . S
N311 C310 1.347 . S
C312 C315 1.365 . S
C312 N317 1.328 . S
C312 H318 0.929 . S
C313 C314 1.362 . S
C313 C316 1.378 . S
C313 H328 0.929 . S
C314 C313 1.362 . S
C314 C315 1.366 . S
C315 C312 1.365 . S
C315 C314 1.366 . S
C315 H329 0.930 . S
C316 C313 1.378 . S
C316 N317 1.315 . S
C316 H319 0.930 . S
N317 Co297 2.194 . S
N317 C312 1.328 . S
N317 C316 1.315 . S
H318 C312 0.929 . S
H319 C316 0.930 . S
H320 C308 0.929 . S
H321 C310 0.929 . S
O322 Co297 2.351 . S
O322 C325 1.244 . S
O323 Co297 2.155 . S
O323 C325 1.240 . S
O324 Co297 2.096 . S
O324 C305 1.247 . S
C325 O322 1.244 . S
C325 O323 1.240 . S
H326 C300 0.931 . S
H327 C309 0.931 . S
H328 C313 0.929 . S
H329 C315 0.930 . S
Co330 N334 2.148 . S
Co330 N340 2.128 . S
Co330 N350 2.194 . S
Co330 O355 2.351 . S
Co330 O356 2.155 . S
Co330 O357 2.096 . S
C331 N334 1.301 . S
C331 N335 1.328 . S
C331 H336 0.930 . S
C332 C333 1.333 . S
C332 N334 1.317 . S
C332 H337 0.930 . S
C333 C332 1.333 . S
C333 N335 1.350 . S
C333 H359 0.931 . S
N334 Co330 2.148 . S
N334 C331 1.301 . S
N334 C332 1.317 . S
N335 C331 1.328 . S
N335 C333 1.350 . S
H336 C331 0.930 . S
H337 C332 0.930 . S
C338 O339 1.224 . S
C338 O357 1.247 . S
O339 C338 1.224 . S
N340 Co330 2.128 . S
N340 C341 1.355 . S
N340 C343 1.311 . S
C341 N340 1.355 . S
C341 C342 1.363 . S
C341 H353 0.929 . S
C342 C341 1.363 . S
C342 N344 1.375 . S
C342 H360 0.931 . S
C343 N340 1.311 . S
C343 N344 1.347 . S
C343 H354 0.929 . S
N344 C342 1.375 . S
N344 C343 1.347 . S
C345 C348 1.365 . S
C345 N350 1.328 . S
C345 H351 0.929 . S
C346 C347 1.362 . S
C346 C349 1.378 . S
C346 H361 0.929 . S
C347 C346 1.362 . S
C347 C348 1.366 . S
C348 C345 1.365 . S
C348 C347 1.366 . S
C348 H362 0.930 . S
C349 C346 1.378 . S
C349 N350 1.315 . S
C349 H352 0.930 . S
N350 Co330 2.194 . S
N350 C345 1.328 . S
N350 C349 1.315 . S
H351 C345 0.929 . S
H352 C349 0.930 . S
H353 C341 0.929 . S
H354 C343 0.929 . S
O355 Co330 2.351 . S
O355 C358 1.244 . S
O356 Co330 2.155 . S
O356 C358 1.240 . S
O357 Co330 2.096 . S
O357 C338 1.247 . S
C358 O355 1.244 . S
C358 O356 1.240 . S
H359 C333 0.931 . S
H360 C342 0.931 . S
H361 C346 0.929 . S
H362 C348 0.930 . S
Co363 N367 2.148 . S
Co363 N373 2.128 . S
Co363 N383 2.194 . S
Co363 O388 2.351 . S
Co363 O389 2.155 . S
Co363 O390 2.096 . S
C364 N367 1.301 . S
C364 N368 1.328 . S
C364 H369 0.930 . S
C365 C366 1.333 . S
C365 N367 1.317 . S
C365 H370 0.930 . S
C366 C365 1.333 . S
C366 N368 1.350 . S
C366 H392 0.931 . S
N367 Co363 2.148 . S
N367 C364 1.301 . S
N367 C365 1.317 . S
N368 C364 1.328 . S
N368 C366 1.350 . S
H369 C364 0.930 . S
H370 C365 0.930 . S
C371 O372 1.224 . S
C371 O390 1.247 . S
O372 C371 1.224 . S
N373 Co363 2.128 . S
N373 C374 1.355 . S
N373 C376 1.311 . S
C374 N373 1.355 . S
C374 C375 1.363 . S
C374 H386 0.929 . S
C375 C374 1.363 . S
C375 N377 1.375 . S
C375 H393 0.931 . S
C376 N373 1.311 . S
C376 N377 1.347 . S
C376 H387 0.929 . S
N377 C375 1.375 . S
N377 C376 1.347 . S
C378 C381 1.365 . S
C378 N383 1.328 . S
C378 H384 0.929 . S
C379 C380 1.362 . S
C379 C382 1.378 . S
C379 H394 0.929 . S
C380 C379 1.362 . S
C380 C381 1.366 . S
C381 C378 1.365 . S
C381 C380 1.366 . S
C381 H395 0.930 . S
C382 C379 1.378 . S
C382 N383 1.315 . S
C382 H385 0.930 . S
N383 Co363 2.194 . S
N383 C378 1.328 . S
N383 C382 1.315 . S
H384 C378 0.929 . S
H385 C382 0.930 . S
H386 C374 0.929 . S
H387 C376 0.929 . S
O388 Co363 2.351 . S
O388 C391 1.244 . S
O389 Co363 2.155 . S
O389 C391 1.240 . S
O390 Co363 2.096 . S
O390 C371 1.247 . S
C391 O388 1.244 . S
C391 O389 1.240 . S
H392 C366 0.931 . S
H393 C375 0.931 . S
H394 C379 0.929 . S
H395 C381 0.930 . S
C396 C397 1.391 . S
C396 C398 1.394 . S
C396 H412 0.931 . S
C397 C396 1.391 . S
C397 C401 1.376 . S
C398 C396 1.394 . S
C398 C399 1.369 . S
C398 C402 1.531 . S
C399 C398 1.369 . S
C399 C400 1.410 . S
C399 C407 1.503 . S
C400 C399 1.410 . S
C400 C401 1.392 . S
C400 C403 1.511 1_554 S
C401 C397 1.376 . S
C401 C400 1.392 . S
C401 H413 0.929 1_554 S
C402 C398 1.531 . S
C402 H414 0.960 . S
C402 H415 0.962 . S
C402 H416 0.960 . S
C403 C400 1.511 1_556 S
C403 H417 0.961 . S
C403 H418 0.961 . S
C403 H419 0.961 . S
C404 C405 1.370 . S
C404 C406 1.363 . S
C404 H420 0.931 . S
C405 C404 1.370 . S
C405 C409 1.408 . S
C406 C404 1.363 . S
C406 C407 1.370 . S
C406 C410 1.524 . S
C407 C399 1.503 . S
C407 C406 1.370 . S
C407 C408 1.403 . S
C408 C407 1.403 . S
C408 C409 1.404 . S
C408 C411 1.539 . S
C409 C405 1.408 . S
C409 C408 1.404 . S
C409 H421 0.930 . S
C410 C406 1.524 . S
C410 H422 0.956 . S
C410 H423 0.961 . S
C410 H424 0.961 . S
C411 C408 1.539 . S
C411 H425 0.958 . S
C411 H426 0.961 . S
C411 H427 0.960 . S
H412 C396 0.931 . S
H413 C401 0.929 1_556 S
H414 C402 0.960 . S
H415 C402 0.962 . S
H416 C402 0.960 . S
H417 C403 0.961 . S
H418 C403 0.961 . S
H419 C403 0.961 . S
H420 C404 0.931 . S
H421 C409 0.930 . S
H422 C410 0.956 . S
H423 C410 0.961 . S
H424 C410 0.961 . S
H425 C411 0.958 . S
H426 C411 0.961 . S
H427 C411 0.960 . S
C428 C429 1.391 . S
C428 C430 1.394 . S
C428 H444 0.931 . S
C429 C428 1.391 . S
C429 C433 1.376 . S
C430 C428 1.394 . S
C430 C431 1.369 . S
C430 C434 1.531 . S
C431 C430 1.369 . S
C431 C432 1.410 . S
C431 C439 1.503 . S
C432 C431 1.410 . S
C432 C433 1.392 . S
C432 C435 1.511 . S
C433 C429 1.376 . S
C433 C432 1.392 . S
C433 H445 0.929 . S
C434 C430 1.531 . S
C434 H446 0.960 . S
C434 H447 0.962 . S
C434 H448 0.960 . S
C435 C432 1.511 . S
C435 H449 0.961 . S
C435 H450 0.961 . S
C435 H451 0.961 . S
C436 C437 1.370 . S
C436 C438 1.363 . S
C436 H452 0.931 . S
C437 C436 1.370 . S
C437 C441 1.408 . S
C438 C436 1.363 . S
C438 C439 1.370 . S
C438 C442 1.524 . S
C439 C431 1.503 . S
C439 C438 1.370 . S
C439 C440 1.403 . S
C440 C439 1.403 . S
C440 C441 1.404 . S
C440 C443 1.539 . S
C441 C437 1.408 . S
C441 C440 1.404 . S
C441 H453 0.930 . S
C442 C438 1.524 . S
C442 H454 0.956 . S
C442 H455 0.961 . S
C442 H456 0.961 . S
C443 C440 1.539 . S
C443 H457 0.958 . S
C443 H458 0.961 . S
C443 H459 0.960 . S
H444 C428 0.931 . S
H445 C433 0.929 . S
H446 C434 0.960 . S
H447 C434 0.962 . S
H448 C434 0.960 . S
H449 C435 0.961 . S
H450 C435 0.961 . S
H451 C435 0.961 . S
H452 C436 0.931 . S
H453 C441 0.930 . S
H454 C442 0.956 . S
H455 C442 0.961 . S
H456 C442 0.961 . S
H457 C443 0.958 . S
H458 C443 0.961 . S
H459 C443 0.960 . S
C460 C461 1.391 . S
C460 C462 1.394 . S
C460 H476 0.931 . S
C461 C460 1.391 . S
C461 C465 1.376 . S
C462 C460 1.394 . S
C462 C463 1.369 . S
C462 C466 1.531 . S
C463 C462 1.369 . S
C463 C464 1.410 . S
C463 C471 1.503 . S
C464 C463 1.410 . S
C464 C465 1.392 . S
C464 C467 1.511 . S
C465 C461 1.376 . S
C465 C464 1.392 . S
C465 H477 0.929 . S
C466 C462 1.531 . S
C466 H478 0.960 . S
C466 H479 0.962 . S
C466 H480 0.960 . S
C467 C464 1.511 . S
C467 H481 0.961 . S
C467 H482 0.961 . S
C467 H483 0.961 . S
C468 C469 1.370 . S
C468 C470 1.363 . S
C468 H484 0.931 . S
C469 C468 1.370 . S
C469 C473 1.408 . S
C470 C468 1.363 . S
C470 C471 1.370 . S
C470 C474 1.524 . S
C471 C463 1.503 . S
C471 C470 1.370 . S
C471 C472 1.403 . S
C472 C471 1.403 . S
C472 C473 1.404 . S
C472 C475 1.539 . S
C473 C469 1.408 . S
C473 C472 1.404 . S
C473 H485 0.930 . S
C474 C470 1.524 . S
C474 H486 0.956 . S
C474 H487 0.961 . S
C474 H488 0.961 . S
C475 C472 1.539 . S
C475 H489 0.958 . S
C475 H490 0.961 . S
C475 H491 0.960 . S
H476 C460 0.931 . S
H477 C465 0.929 . S
H478 C466 0.960 . S
H479 C466 0.962 . S
H480 C466 0.960 . S
H481 C467 0.961 . S
H482 C467 0.961 . S
H483 C467 0.961 . S
H484 C468 0.931 . S
H485 C473 0.930 . S
H486 C474 0.956 . S
H487 C474 0.961 . S
H488 C474 0.961 . S
H489 C475 0.958 . S
H490 C475 0.961 . S
H491 C475 0.960 . S
C492 C493 1.391 . S
C492 C494 1.394 . S
C492 H508 0.931 . S
C493 C492 1.391 . S
C493 C497 1.376 . S
C494 C492 1.394 . S
C494 C495 1.369 . S
C494 C498 1.531 . S
C495 C494 1.369 . S
C495 C496 1.410 . S
C495 C503 1.503 . S
C496 C495 1.410 . S
C496 C497 1.392 . S
C496 C499 1.511 . S
C497 C493 1.376 . S
C497 C496 1.392 . S
C497 H509 0.929 . S
C498 C494 1.531 . S
C498 H510 0.960 . S
C498 H511 0.962 . S
C498 H512 0.960 . S
C499 C496 1.511 . S
C499 H513 0.961 . S
C499 H514 0.961 . S
C499 H515 0.961 . S
C500 C501 1.370 . S
C500 C502 1.363 . S
C500 H516 0.931 . S
C501 C500 1.370 . S
C501 C505 1.408 . S
C502 C500 1.363 . S
C502 C503 1.370 . S
C502 C506 1.524 . S
C503 C495 1.503 . S
C503 C502 1.370 . S
C503 C504 1.403 . S
C504 C503 1.403 . S
C504 C505 1.404 . S
C504 C507 1.539 . S
C505 C501 1.408 . S
C505 C504 1.404 . S
C505 H517 0.930 . S
C506 C502 1.524 . S
C506 H518 0.956 . S
C506 H519 0.961 . S
C506 H520 0.961 . S
C507 C504 1.539 . S
C507 H521 0.958 . S
C507 H522 0.961 . S
C507 H523 0.960 . S
H508 C492 0.931 . S
H509 C497 0.929 . S
H510 C498 0.960 . S
H511 C498 0.962 . S
H512 C498 0.960 . S
H513 C499 0.961 . S
H514 C499 0.961 . S
H515 C499 0.961 . S
H516 C500 0.931 . S
H517 C505 0.930 . S
H518 C506 0.956 . S
H519 C506 0.961 . S
H520 C506 0.961 . S
H521 C507 0.958 . S
H522 C507 0.961 . S
H523 C507 0.960 . S
C524 C525 1.391 . S
C524 C526 1.394 . S
C524 H540 0.931 . S
C525 C524 1.391 . S
C525 C529 1.376 . S
C526 C524 1.394 . S
C526 C527 1.369 . S
C526 C530 1.531 . S
C527 C526 1.369 . S
C527 C528 1.410 . S
C527 C535 1.503 . S
C528 C527 1.410 . S
C528 C529 1.392 . S
C528 C531 1.511 . S
C529 C525 1.376 . S
C529 C528 1.392 . S
C529 H541 0.929 . S
C530 C526 1.531 . S
C530 H542 0.960 . S
C530 H543 0.962 . S
C530 H544 0.960 . S
C531 C528 1.511 . S
C531 H545 0.961 . S
C531 H546 0.961 . S
C531 H547 0.961 . S
C532 C533 1.370 . S
C532 C534 1.363 . S
C532 H548 0.931 . S
C533 C532 1.370 . S
C533 C537 1.408 . S
C534 C532 1.363 . S
C534 C535 1.370 . S
C534 C538 1.524 . S
C535 C527 1.503 . S
C535 C534 1.370 . S
C535 C536 1.403 . S
C536 C535 1.403 . S
C536 C537 1.404 . S
C536 C539 1.539 . S
C537 C533 1.408 . S
C537 C536 1.404 . S
C537 H549 0.930 . S
C538 C534 1.524 . S
C538 H550 0.956 . S
C538 H551 0.961 . S
C538 H552 0.961 . S
C539 C536 1.539 . S
C539 H553 0.958 . S
C539 H554 0.961 . S
C539 H555 0.960 . S
H540 C524 0.931 . S
H541 C529 0.929 . S
H542 C530 0.960 . S
H543 C530 0.962 . S
H544 C530 0.960 . S
H545 C531 0.961 . S
H546 C531 0.961 . S
H547 C531 0.961 . S
H548 C532 0.931 . S
H549 C537 0.930 . S
H550 C538 0.956 . S
H551 C538 0.961 . S
H552 C538 0.961 . S
H553 C539 0.958 . S
H554 C539 0.961 . S
H555 C539 0.960 . S
C556 C557 1.391 . S
C556 C558 1.394 . S
C556 H572 0.931 . S
C557 C556 1.391 . S
C557 C561 1.376 . S
C558 C556 1.394 . S
C558 C559 1.369 . S
C558 C562 1.531 . S
C559 C558 1.369 . S
C559 C560 1.410 . S
C559 C567 1.503 . S
C560 C559 1.410 . S
C560 C561 1.392 . S
C560 C563 1.511 1_556 S
C561 C557 1.376 . S
C561 C560 1.392 . S
C561 H573 0.929 1_556 S
C562 C558 1.531 . S
C562 H574 0.960 . S
C562 H575 0.962 . S
C562 H576 0.960 . S
C563 C560 1.511 1_554 S
C563 H577 0.961 . S
C563 H578 0.961 . S
C563 H579 0.961 . S
C564 C565 1.370 . S
C564 C566 1.363 . S
C564 H580 0.931 . S
C565 C564 1.370 . S
C565 C569 1.408 . S
C566 C564 1.363 . S
C566 C567 1.370 . S
C566 C570 1.524 . S
C567 C559 1.503 . S
C567 C566 1.370 . S
C567 C568 1.403 . S
C568 C567 1.403 . S
C568 C569 1.404 . S
C568 C571 1.539 1_556 S
C569 C565 1.408 . S
C569 C568 1.404 . S
C569 H581 0.930 1_556 S
C570 C566 1.524 . S
C570 H582 0.956 . S
C570 H583 0.961 . S
C570 H584 0.961 . S
C571 C568 1.539 1_554 S
C571 H585 0.958 . S
C571 H586 0.961 . S
C571 H587 0.960 . S
H572 C556 0.931 . S
H573 C561 0.929 1_554 S
H574 C562 0.960 . S
H575 C562 0.962 . S
H576 C562 0.960 . S
H577 C563 0.961 . S
H578 C563 0.961 . S
H579 C563 0.961 . S
H580 C564 0.931 . S
H581 C569 0.930 1_554 S
H582 C570 0.956 . S
H583 C570 0.961 . S
H584 C570 0.961 . S
H585 C571 0.958 . S
H586 C571 0.961 . S
H587 C571 0.960 . S
C588 C589 1.391 . S
C588 C590 1.394 . S
C588 H604 0.931 . S
C589 C588 1.391 . S
C589 C593 1.376 . S
C590 C588 1.394 . S
C590 C591 1.369 . S
C590 C594 1.531 . S
C591 C590 1.369 . S
C591 C592 1.410 . S
C591 C599 1.503 1_455 S
C592 C591 1.410 . S
C592 C593 1.392 . S
C592 C595 1.511 1_455 S
C593 C589 1.376 . S
C593 C592 1.392 . S
C593 H605 0.929 1_556 S
C594 C590 1.531 . S
C594 H606 0.960 . S
C594 H607 0.962 . S
C594 H608 0.960 . S
C595 C592 1.511 1_655 S
C595 H609 0.961 . S
C595 H610 0.961 . S
C595 H611 0.961 . S
C596 C597 1.370 . S
C596 C598 1.363 . S
C596 H612 0.931 . S
C597 C596 1.370 . S
C597 C601 1.408 . S
C598 C596 1.363 . S
C598 C599 1.370 . S
C598 C602 1.524 1_655 S
C599 C591 1.503 1_655 S
C599 C598 1.370 . S
C599 C600 1.403 . S
C600 C599 1.403 . S
C600 C601 1.404 . S
C600 C603 1.539 . S
C601 C597 1.408 . S
C601 C600 1.404 . S
C601 H613 0.930 . S
C602 C598 1.524 1_455 S
C602 H614 0.956 . S
C602 H615 0.961 . S
C602 H616 0.961 . S
C603 C600 1.539 . S
C603 H617 0.958 . S
C603 H618 0.961 . S
C603 H619 0.960 . S
H604 C588 0.931 . S
H605 C593 0.929 1_554 S
H606 C594 0.960 . S
H607 C594 0.962 . S
H608 C594 0.960 . S
H609 C595 0.961 . S
H610 C595 0.961 . S
H611 C595 0.961 . S
H612 C596 0.931 . S
H613 C601 0.930 . S
H614 C602 0.956 . S
H615 C602 0.961 . S
H616 C602 0.961 . S
H617 C603 0.958 . S
H618 C603 0.961 . S
H619 C603 0.960 . S
C620 C621 1.391 . S
C620 C622 1.394 . S
C620 H636 0.931 . S
C621 C620 1.391 . S
C621 C625 1.376 . S
C622 C620 1.394 . S
C622 C623 1.369 . S
C622 C626 1.531 1_565 S
C623 C622 1.369 . S
C623 C624 1.410 . S
C623 C631 1.503 1_566 S
C624 C623 1.410 . S
C624 C625 1.392 . S
C624 C627 1.511 . S
C625 C621 1.376 . S
C625 C624 1.392 . S
C625 H637 0.929 . S
C626 C622 1.531 1_545 S
C626 H638 0.960 . S
C626 H639 0.962 1_545 S
C626 H640 0.960 . S
C627 C624 1.511 . S
C627 H641 0.961 1_556 S
C627 H642 0.961 1_556 S
C627 H643 0.961 . S
C628 C629 1.370 . S
C628 C630 1.363 . S
C628 H644 0.931 . S
C629 C628 1.370 . S
C629 C633 1.408 . S
C630 C628 1.363 . S
C630 C631 1.370 . S
C630 C634 1.524 1_545 S
C631 C623 1.503 1_544 S
C631 C630 1.370 . S
C631 C632 1.403 . S
C632 C631 1.403 . S
C632 C633 1.404 . S
C632 C635 1.539 1_554 S
C633 C629 1.408 . S
C633 C632 1.404 . S
C633 H645 0.930 . S
C634 C630 1.524 1_565 S
C634 H646 0.956 . S
C634 H647 0.961 . S
C634 H648 0.961 . S
C635 C632 1.539 1_556 S
C635 H649 0.958 . S
C635 H650 0.961 . S
C635 H651 0.960 . S
H636 C620 0.931 . S
H637 C625 0.929 . S
H638 C626 0.960 . S
H639 C626 0.962 1_565 S
H640 C626 0.960 . S
H641 C627 0.961 1_554 S
H642 C627 0.961 1_554 S
H643 C627 0.961 . S
H644 C628 0.931 . S
H645 C633 0.930 . S
H646 C634 0.956 . S
H647 C634 0.961 . S
H648 C634 0.961 . S
H649 C635 0.958 . S
H650 C635 0.961 . S
H651 C635 0.960 . S
C652 C653 1.391 . S
C652 C654 1.394 . S
C652 H668 0.931 . S
C653 C652 1.391 . S
C653 C657 1.376 . S
C654 C652 1.394 . S
C654 C655 1.369 . S
C654 C658 1.531 . S
C655 C654 1.369 . S
C655 C656 1.410 . S
C655 C663 1.503 . S
C656 C655 1.410 . S
C656 C657 1.392 . S
C656 C659 1.511 . S
C657 C653 1.376 . S
C657 C656 1.392 . S
C657 H669 0.929 . S
C658 C654 1.531 . S
C658 H670 0.960 . S
C658 H671 0.962 . S
C658 H672 0.960 . S
C659 C656 1.511 . S
C659 H673 0.961 . S
C659 H674 0.961 . S
C659 H675 0.961 . S
C660 C661 1.370 . S
C660 C662 1.363 . S
C660 H676 0.931 . S
C661 C660 1.370 . S
C661 C665 1.408 . S
C662 C660 1.363 . S
C662 C663 1.370 . S
C662 C666 1.524 . S
C663 C655 1.503 . S
C663 C662 1.370 . S
C663 C664 1.403 . S
C664 C663 1.403 . S
C664 C665 1.404 . S
C664 C667 1.539 . S
C665 C661 1.408 . S
C665 C664 1.404 . S
C665 H677 0.930 . S
C666 C662 1.524 . S
C666 H678 0.956 . S
C666 H679 0.961 . S
C666 H680 0.961 . S
C667 C664 1.539 . S
C667 H681 0.958 . S
C667 H682 0.961 . S
C667 H683 0.960 . S
H668 C652 0.931 . S
H669 C657 0.929 . S
H670 C658 0.960 . S
H671 C658 0.962 . S
H672 C658 0.960 . S
H673 C659 0.961 . S
H674 C659 0.961 . S
H675 C659 0.961 . S
H676 C660 0.931 . S
H677 C665 0.930 . S
H678 C666 0.956 . S
H679 C666 0.961 . S
H680 C666 0.961 . S
H681 C667 0.958 . S
H682 C667 0.961 . S
H683 C667 0.960 . S
C684 C685 1.391 . S
C684 C686 1.394 . S
C684 H700 0.931 . S
C685 C684 1.391 . S
C685 C689 1.376 . S
C686 C684 1.394 . S
C686 C687 1.369 . S
C686 C690 1.531 . S
C687 C686 1.369 . S
C687 C688 1.410 . S
C687 C695 1.503 1_655 S
C688 C687 1.410 . S
C688 C689 1.392 . S
C688 C691 1.511 1_655 S
C689 C685 1.376 . S
C689 C688 1.392 . S
C689 H701 0.929 . S
C690 C686 1.531 . S
C690 H702 0.960 . S
C690 H703 0.962 . S
C690 H704 0.960 . S
C691 C688 1.511 1_455 S
C691 H705 0.961 . S
C691 H706 0.961 . S
C691 H707 0.978 . S
C692 C693 1.370 . S
C692 C694 1.363 . S
C692 H708 0.931 . S
C693 C692 1.370 . S
C693 C697 1.408 . S
C694 C692 1.363 . S
C694 C695 1.370 . S
C694 C698 1.524 . S
C695 C687 1.503 1_455 S
C695 C694 1.370 . S
C695 C696 1.403 . S
C696 C695 1.403 . S
C696 C697 1.404 . S
C696 C699 1.539 1_455 S
C697 C693 1.408 . S
C697 C696 1.404 . S
C697 H709 0.930 . S
C698 C694 1.524 . S
C698 H710 0.956 . S
C698 H711 0.961 . S
C698 H712 0.961 . S
C699 C696 1.539 1_655 S
C699 H713 0.958 . S
C699 H714 0.961 . S
C699 H715 0.960 . S
H700 C684 0.931 . S
H701 C689 0.929 . S
H702 C690 0.960 . S
H703 C690 0.962 . S
H704 C690 0.960 . S
H705 C691 0.961 . S
H706 C691 0.961 . S
H707 C691 0.978 . S
H708 C692 0.931 . S
H709 C697 0.930 . S
H710 C698 0.956 . S
H711 C698 0.961 . S
H712 C698 0.961 . S
H713 C699 0.958 . S
H714 C699 0.961 . S
H715 C699 0.960 . S
C716 C717 1.391 . S
C716 C718 1.394 . S
C716 H732 0.931 . S
C717 C716 1.391 . S
C717 C721 1.376 . S
C718 C716 1.394 . S
C718 C719 1.369 . S
C718 C722 1.531 . S
C719 C718 1.369 . S
C719 C720 1.410 . S
C719 C727 1.503 1_545 S
C720 C719 1.410 . S
C720 C721 1.392 . S
C720 C723 1.511 1_545 S
C721 C717 1.376 . S
C721 C720 1.392 . S
C721 H733 0.929 . S
C722 C718 1.531 . S
C722 H734 0.960 . S
C722 H735 0.962 . S
C722 H736 0.960 . S
C723 C720 1.511 1_565 S
C723 H737 0.961 . S
C723 H738 0.961 . S
C723 H739 0.961 . S
C724 C725 1.370 . S
C724 C726 1.363 . S
C724 H740 0.931 . S
C725 C724 1.370 . S
C725 C729 1.408 . S
C726 C724 1.363 . S
C726 C727 1.370 . S
C726 C730 1.524 . S
C727 C719 1.503 1_565 S
C727 C726 1.370 . S
C727 C728 1.403 . S
C728 C727 1.403 . S
C728 C729 1.404 . S
C728 C731 1.539 1_565 S
C729 C725 1.408 . S
C729 C728 1.404 . S
C729 H741 0.930 . S
C730 C726 1.524 . S
C730 H742 0.956 . S
C730 H743 0.961 . S
C730 H744 0.961 . S
C731 C728 1.539 1_545 S
C731 H745 0.958 . S
C731 H746 0.961 1_545 S
C731 H747 0.960 . S
H732 C716 0.931 . S
H733 C721 0.929 . S
H734 C722 0.960 . S
H735 C722 0.962 . S
H736 C722 0.960 . S
H737 C723 0.961 . S
H738 C723 0.961 . S
H739 C723 0.961 . S
H740 C724 0.931 . S
H741 C729 0.930 . S
H742 C730 0.956 . S
H743 C730 0.961 . S
H744 C730 0.961 . S
H745 C731 0.958 . S
H746 C731 0.961 1_565 S
H747 C731 0.960 . S
C748 C749 1.391 . S
C748 C750 1.394 . S
C748 H764 0.931 . S
C749 C748 1.391 . S
C749 C753 1.376 . S
C750 C748 1.394 . S
C750 C751 1.369 . S
C750 C754 1.531 . S
C751 C750 1.369 . S
C751 C752 1.410 . S
C751 C759 1.503 . S
C752 C751 1.410 . S
C752 C753 1.392 . S
C752 C755 1.511 . S
C753 C749 1.376 . S
C753 C752 1.392 . S
C753 H765 0.929 . S
C754 C750 1.531 . S
C754 H766 0.960 . S
C754 H767 0.962 . S
C754 H768 0.960 . S
C755 C752 1.511 . S
C755 H769 0.961 . S
C755 H770 0.961 . S
C755 H771 0.961 . S
C756 C757 1.370 . S
C756 C758 1.363 . S
C756 H772 0.931 . S
C757 C756 1.370 . S
C757 C761 1.408 . S
C758 C756 1.363 . S
C758 C759 1.370 . S
C758 C762 1.524 . S
C759 C751 1.503 . S
C759 C758 1.370 . S
C759 C760 1.403 . S
C760 C759 1.403 . S
C760 C761 1.404 . S
C760 C763 1.539 . S
C761 C757 1.408 . S
C761 C760 1.404 . S
C761 H773 0.930 . S
C762 C758 1.524 . S
C762 H774 0.956 . S
C762 H775 0.961 . S
C762 H776 0.961 . S
C763 C760 1.539 . S
C763 H777 0.958 . S
C763 H778 0.961 . S
C763 H779 0.960 . S
H764 C748 0.931 . S
H765 C753 0.929 . S
H766 C754 0.960 . S
H767 C754 0.962 . S
H768 C754 0.960 . S
H769 C755 0.961 . S
H770 C755 0.961 . S
H771 C755 0.961 . S
H772 C756 0.931 . S
H773 C761 0.930 . S
H774 C762 0.956 . S
H775 C762 0.961 . S
H776 C762 0.961 . S
H777 C763 0.958 . S
H778 C763 0.961 . S
H779 C763 0.960 . S
C780 C781 1.391 . S
C780 C782 1.394 . S
C780 H796 0.931 . S
C781 C780 1.391 . S
C781 C785 1.376 . S
C782 C780 1.394 . S
C782 C783 1.369 . S
C782 C786 1.531 . S
C783 C782 1.369 . S
C783 C784 1.410 . S
C783 C791 1.503 . S
C784 C783 1.410 . S
C784 C785 1.392 . S
C784 C787 1.511 . S
C785 C781 1.376 . S
C785 C784 1.392 . S
C785 H797 0.929 . S
C786 C782 1.531 . S
C786 H798 0.960 . S
C786 H799 0.962 . S
C786 H800 0.960 . S
C787 C784 1.511 . S
C787 H801 0.961 . S
C787 H802 0.961 . S
C787 H803 0.961 . S
C788 C789 1.370 . S
C788 C790 1.363 . S
C788 H804 0.931 . S
C789 C788 1.370 . S
C789 C793 1.408 . S
C790 C788 1.363 . S
C790 C791 1.370 . S
C790 C794 1.524 . S
C791 C783 1.503 . S
C791 C790 1.370 . S
C791 C792 1.403 . S
C792 C791 1.403 . S
C792 C793 1.404 . S
C792 C795 1.539 . S
C793 C789 1.408 . S
C793 C792 1.404 . S
C793 H805 0.930 . S
C794 C790 1.524 . S
C794 H806 0.956 . S
C794 H807 0.961 . S
C794 H808 0.961 . S
C795 C792 1.539 . S
C795 H809 0.958 . S
C795 H810 0.961 . S
C795 H811 0.960 . S
H796 C780 0.931 . S
H797 C785 0.929 . S
H798 C786 0.960 . S
H799 C786 0.962 . S
H800 C786 0.960 . S
H801 C787 0.961 . S
H802 C787 0.961 . S
H803 C787 0.961 . S
H804 C788 0.931 . S
H805 C793 0.930 . S
H806 C794 0.956 . S
H807 C794 0.961 . S
H808 C794 0.961 . S
H809 C795 0.958 . S
H810 C795 0.961 . S
H811 C795 0.960 . S
C812 C813 1.391 . S
C812 C814 1.394 . S
C812 H828 0.931 . S
C813 C812 1.391 . S
C813 C817 1.376 . S
C814 C812 1.394 . S
C814 C815 1.369 . S
C814 C818 1.531 . S
C815 C814 1.369 . S
C815 C816 1.410 . S
C815 C823 1.503 . S
C816 C815 1.410 . S
C816 C817 1.392 . S
C816 C819 1.511 . S
C817 C813 1.376 . S
C817 C816 1.392 . S
C817 H829 0.929 . S
C818 C814 1.531 . S
C818 H830 0.960 . S
C818 H831 0.962 . S
C818 H832 0.960 . S
C819 C816 1.511 . S
C819 H833 0.961 . S
C819 H834 0.961 . S
C819 H835 0.961 . S
C820 C821 1.370 . S
C820 C822 1.363 . S
C820 H836 0.931 . S
C821 C820 1.370 . S
C821 C825 1.408 . S
C822 C820 1.363 . S
C822 C823 1.370 . S
C822 C826 1.524 . S
C823 C815 1.503 . S
C823 C822 1.370 . S
C823 C824 1.403 . S
C824 C823 1.403 . S
C824 C825 1.404 . S
C824 C827 1.539 . S
C825 C821 1.408 . S
C825 C824 1.404 . S
C825 H837 0.930 . S
C826 C822 1.524 . S
C826 H838 0.956 . S
C826 H839 0.961 . S
C826 H840 0.961 . S
C827 C824 1.539 . S
C827 H841 0.958 . S
C827 H842 0.961 . S
C827 H843 0.960 . S
H828 C812 0.931 . S
H829 C817 0.929 . S
H830 C818 0.960 . S
H831 C818 0.962 . S
H832 C818 0.960 . S
H833 C819 0.961 . S
H834 C819 0.961 . S
H835 C819 0.961 . S
H836 C820 0.931 . S
H837 C825 0.930 . S
H838 C826 0.956 . S
H839 C826 0.961 . S
H840 C826 0.961 . S
H841 C827 0.958 . S
H842 C827 0.961 . S
H843 C827 0.960 . S
C844 C845 1.391 . S
C844 C846 1.394 . S
C844 H860 0.931 . S
C845 C844 1.391 . S
C845 C849 1.376 . S
C846 C844 1.394 . S
C846 C847 1.369 . S
C846 C850 1.531 . S
C847 C846 1.369 . S
C847 C848 1.410 . S
C847 C855 1.503 . S
C848 C847 1.410 . S
C848 C849 1.392 . S
C848 C851 1.511 . S
C849 C845 1.376 . S
C849 C848 1.392 . S
C849 H861 0.929 . S
C850 C846 1.531 . S
C850 H862 0.960 . S
C850 H863 0.962 . S
C850 H864 0.960 . S
C851 C848 1.511 . S
C851 H865 0.961 . S
C851 H866 0.961 . S
C851 H867 0.961 . S
C852 C853 1.370 . S
C852 C854 1.363 . S
C852 H868 0.931 . S
C853 C852 1.370 . S
C853 C857 1.408 . S
C854 C852 1.363 . S
C854 C855 1.370 . S
C854 C858 1.524 . S
C855 C847 1.503 . S
C855 C854 1.370 . S
C855 C856 1.403 . S
C856 C855 1.403 . S
C856 C857 1.404 . S
C856 C859 1.539 . S
C857 C853 1.408 . S
C857 C856 1.404 . S
C857 H869 0.930 . S
C858 C854 1.524 . S
C858 H870 0.956 . S
C858 H871 0.961 . S
C858 H872 0.961 . S
C859 C856 1.539 . S
C859 H873 0.958 . S
C859 H874 0.961 . S
C859 H875 0.960 . S
H860 C844 0.931 . S
H861 C849 0.929 . S
H862 C850 0.960 . S
H863 C850 0.962 . S
H864 C850 0.960 . S
H865 C851 0.961 . S
H866 C851 0.961 . S
H867 C851 0.961 . S
H868 C852 0.931 . S
H869 C857 0.930 . S
H870 C858 0.956 . S
H871 C858 0.961 . S
H872 C858 0.961 . S
H873 C859 0.958 . S
H874 C859 0.961 . S
H875 C859 0.960 . S
C876 C877 1.391 . S
C876 C878 1.394 . S
C876 H892 0.931 . S
C877 C876 1.391 . S
C877 C881 1.376 . S
C878 C876 1.394 . S
C878 C879 1.369 . S
C878 C882 1.531 . S
C879 C878 1.369 . S
C879 C880 1.410 . S
C879 C887 1.503 . S
C880 C879 1.410 . S
C880 C881 1.392 . S
C880 C883 1.511 . S
C881 C877 1.376 . S
C881 C880 1.392 . S
C881 H893 0.929 . S
C882 C878 1.531 . S
C882 H894 0.960 . S
C882 H895 0.962 . S
C882 H896 0.960 . S
C883 C880 1.511 . S
C883 H897 0.961 . S
C883 H898 0.961 . S
C883 H899 0.961 . S
C884 C885 1.370 . S
C884 C886 1.363 . S
C884 H900 0.931 . S
C885 C884 1.370 . S
C885 C889 1.408 . S
C886 C884 1.363 . S
C886 C887 1.370 . S
C886 C890 1.524 . S
C887 C879 1.503 . S
C887 C886 1.370 . S
C887 C888 1.403 . S
C888 C887 1.403 . S
C888 C889 1.404 . S
C888 C891 1.539 . S
C889 C885 1.408 . S
C889 C888 1.404 . S
C889 H901 0.930 . S
C890 C886 1.524 . S
C890 H902 0.956 . S
C890 H903 0.961 . S
C890 H904 0.961 . S
C891 C888 1.539 . S
C891 H905 0.958 . S
C891 H906 0.961 . S
C891 H907 0.960 . S
H892 C876 0.931 . S
H893 C881 0.929 . S
H894 C882 0.960 . S
H895 C882 0.962 . S
H896 C882 0.960 . S
H897 C883 0.961 . S
H898 C883 0.961 . S
H899 C883 0.961 . S
H900 C884 0.931 . S
H901 C889 0.930 . S
H902 C890 0.956 . S
H903 C890 0.961 . S
H904 C890 0.961 . S
H905 C891 0.958 . S
H906 C891 0.961 . S
H907 C891 0.960 . S
C908 C909 1.391 . S
C908 C910 1.394 . S
C908 H924 0.931 . S
C909 C908 1.391 . S
C909 C913 1.376 . S
C910 C908 1.394 . S
C910 C911 1.369 . S
C910 C914 1.531 . S
C911 C910 1.369 . S
C911 C912 1.410 . S
C911 C919 1.503 . S
C912 C911 1.410 . S
C912 C913 1.392 . S
C912 C915 1.511 . S
C913 C909 1.376 . S
C913 C912 1.392 . S
C913 H925 0.929 . S
C914 C910 1.531 . S
C914 H926 0.960 . S
C914 H927 0.962 . S
C914 H928 0.960 . S
C915 C912 1.511 . S
C915 H929 0.961 . S
C915 H930 0.961 . S
C915 H931 0.961 . S
C916 C917 1.370 . S
C916 C918 1.363 . S
C916 H932 0.931 . S
C917 C916 1.370 . S
C917 C921 1.408 1_554 S
C918 C916 1.363 . S
C918 C919 1.370 1_554 S
C918 C922 1.524 . S
C919 C911 1.503 . S
C919 C918 1.370 1_556 S
C919 C920 1.403 . S
C920 C919 1.403 . S
C920 C921 1.404 . S
C920 C923 1.539 . S
C921 C917 1.408 1_556 S
C921 C920 1.404 . S
C921 H933 0.930 . S
C922 C918 1.524 . S
C922 H934 0.956 1_554 S
C922 H935 0.961 . S
C922 H936 0.961 . S
C923 C920 1.539 . S
C923 H937 0.958 . S
C923 H938 0.961 . S
C923 H939 0.960 . S
H924 C908 0.931 . S
H925 C913 0.929 . S
H926 C914 0.960 . S
H927 C914 0.962 . S
H928 C914 0.960 . S
H929 C915 0.961 . S
H930 C915 0.961 . S
H931 C915 0.961 . S
H932 C916 0.931 . S
H933 C921 0.930 . S
H934 C922 0.956 1_556 S
H935 C922 0.961 . S
H936 C922 0.961 . S
H937 C923 0.958 . S
H938 C923 0.961 . S
H939 C923 0.960 . S
C940 C941 1.391 . S
C940 C942 1.394 . S
C940 H956 0.931 . S
C941 C940 1.391 . S
C941 C945 1.376 . S
C942 C940 1.394 . S
C942 C943 1.369 . S
C942 C946 1.531 . S
C943 C942 1.369 . S
C943 C944 1.410 . S
C943 C951 1.503 . S
C944 C943 1.410 . S
C944 C945 1.392 . S
C944 C947 1.511 . S
C945 C941 1.376 . S
C945 C944 1.392 . S
C945 H957 0.929 . S
C946 C942 1.531 . S
C946 H958 0.960 . S
C946 H959 0.962 . S
C946 H960 0.960 . S
C947 C944 1.511 . S
C947 H961 0.961 1_554 S
C947 H962 0.961 1_554 S
C947 H963 0.961 . S
C948 C949 1.370 . S
C948 C950 1.363 1_556 S
C948 H964 0.931 . S
C949 C948 1.370 . S
C949 C953 1.408 1_556 S
C950 C948 1.363 1_554 S
C950 C951 1.370 . S
C950 C954 1.524 . S
C951 C943 1.503 . S
C951 C950 1.370 . S
C951 C952 1.403 . S
C952 C951 1.403 . S
C952 C953 1.404 . S
C952 C955 1.539 . S
C953 C949 1.408 1_554 S
C953 C952 1.404 . S
C953 H965 0.930 . S
C954 C950 1.524 . S
C954 H966 0.956 . S
C954 H967 0.961 . S
C954 H968 0.961 1_554 S
C955 C952 1.539 . S
C955 H969 0.958 . S
C955 H970 0.961 . S
C955 H971 0.960 . S
H956 C940 0.931 . S
H957 C945 0.929 . S
H958 C946 0.960 . S
H959 C946 0.962 . S
H960 C946 0.960 . S
H961 C947 0.961 1_556 S
H962 C947 0.961 1_556 S
H963 C947 0.961 . S
H964 C948 0.931 . S
H965 C953 0.930 . S
H966 C954 0.956 . S
H967 C954 0.961 . S
H968 C954 0.961 1_556 S
H969 C955 0.958 . S
H970 C955 0.961 . S
H971 C955 0.960 . S
C972 C973 1.391 . S
C972 C974 1.394 . S
C972 H988 0.931 . S
C973 C972 1.391 . S
C973 C977 1.376 . S
C974 C972 1.394 . S
C974 C975 1.369 . S
C974 C978 1.531 . S
C975 C974 1.369 . S
C975 C976 1.410 . S
C975 C983 1.503 . S
C976 C975 1.410 . S
C976 C977 1.392 . S
C976 C979 1.511 . S
C977 C973 1.376 . S
C977 C976 1.392 . S
C977 H989 0.929 . S
C978 C974 1.531 . S
C978 H990 0.960 . S
C978 H991 0.962 . S
C978 H992 0.960 . S
C979 C976 1.511 . S
C979 H993 0.961 . S
C979 H994 0.961 . S
C979 H995 0.961 . S
C980 C981 1.370 . S
C980 C982 1.363 . S
C980 H996 0.931 . S
C981 C980 1.370 . S
C981 C985 1.408 . S
C982 C980 1.363 . S
C982 C983 1.370 . S
C982 C986 1.524 . S
C983 C975 1.503 . S
C983 C982 1.370 . S
C983 C984 1.403 . S
C984 C983 1.403 . S
C984 C985 1.404 . S
C984 C987 1.539 . S
C985 C981 1.408 . S
C985 C984 1.404 . S
C985 H997 0.930 . S
C986 C982 1.524 . S
C986 H998 0.956 . S
C986 H999 0.961 . S
C986 H1000 0.961 . S
C987 C984 1.539 . S
C987 H1001 0.958 . S
C987 H1002 0.961 . S
C987 H1003 0.960 . S
H988 C972 0.931 . S
H989 C977 0.929 . S
H990 C978 0.960 . S
H991 C978 0.962 . S
H992 C978 0.960 . S
H993 C979 0.961 . S
H994 C979 0.961 . S
H995 C979 0.961 . S
H996 C980 0.931 . S
H997 C985 0.930 . S
H998 C986 0.956 . S
H999 C986 0.961 . S
H1000 C986 0.961 . S
H1001 C987 0.958 . S
H1002 C987 0.961 . S
H1003 C987 0.960 . S
C1004 C1005 1.391 . S
C1004 C1006 1.394 . S
C1004 H1020 0.931 . S
C1005 C1004 1.391 . S
C1005 C1009 1.376 . S
C1006 C1004 1.394 . S
C1006 C1007 1.369 . S
C1006 C1010 1.531 . S
C1007 C1006 1.369 . S
C1007 C1008 1.410 . S
C1007 C1015 1.503 . S
C1008 C1007 1.410 . S
C1008 C1009 1.392 . S
C1008 C1011 1.511 . S
C1009 C1005 1.376 . S
C1009 C1008 1.392 . S
C1009 H1021 0.929 . S
C1010 C1006 1.531 . S
C1010 H1022 0.960 . S
C1010 H1023 0.962 . S
C1010 H1024 0.960 . S
C1011 C1008 1.511 . S
C1011 H1025 0.961 . S
C1011 H1026 0.961 . S
C1011 H1027 0.961 . S
C1012 C1013 1.370 . S
C1012 C1014 1.363 . S
C1012 H1028 0.931 . S
C1013 C1012 1.370 . S
C1013 C1017 1.408 . S
C1014 C1012 1.363 . S
C1014 C1015 1.370 . S
C1014 C1018 1.524 . S
C1015 C1007 1.503 . S
C1015 C1014 1.370 . S
C1015 C1016 1.403 . S
C1016 C1015 1.403 . S
C1016 C1017 1.404 . S
C1016 C1019 1.539 . S
C1017 C1013 1.408 . S
C1017 C1016 1.404 . S
C1017 H1029 0.930 . S
C1018 C1014 1.524 . S
C1018 H1030 0.956 . S
C1018 H1031 0.961 . S
C1018 H1032 0.961 . S
C1019 C1016 1.539 . S
C1019 H1033 0.958 . S
C1019 H1034 0.961 . S
C1019 H1035 0.960 . S
H1020 C1004 0.931 . S
H1021 C1009 0.929 . S
H1022 C1010 0.960 . S
H1023 C1010 0.962 . S
H1024 C1010 0.960 . S
H1025 C1011 0.961 . S
H1026 C1011 0.961 . S
H1027 C1011 0.961 . S
H1028 C1012 0.931 . S
H1029 C1017 0.930 . S
H1030 C1018 0.956 . S
H1031 C1018 0.961 . S
H1032 C1018 0.961 . S
H1033 C1019 0.958 . S
H1034 C1019 0.961 . S
H1035 C1019 0.960 . S
C1036 C1037 1.391 . S
C1036 C1038 1.394 . S
C1036 H1052 0.931 . S
C1037 C1036 1.391 . S
C1037 C1041 1.376 . S
C1038 C1036 1.394 . S
C1038 C1039 1.369 . S
C1038 C1042 1.531 . S
C1039 C1038 1.369 . S
C1039 C1040 1.410 . S
C1039 C1047 1.503 . S
C1040 C1039 1.410 . S
C1040 C1041 1.392 . S
C1040 C1043 1.511 . S
C1041 C1037 1.376 . S
C1041 C1040 1.392 . S
C1041 H1053 0.929 . S
C1042 C1038 1.531 . S
C1042 H1054 0.960 . S
C1042 H1055 0.962 . S
C1042 H1056 0.960 . S
C1043 C1040 1.511 . S
C1043 H1057 0.961 . S
C1043 H1058 0.961 . S
C1043 H1059 0.961 . S
C1044 C1045 1.370 . S
C1044 C1046 1.363 1_554 S
C1044 H1060 0.931 . S
C1045 C1044 1.370 . S
C1045 C1049 1.408 . S
C1046 C1044 1.363 1_556 S
C1046 C1047 1.370 . S
C1046 C1050 1.524 . S
C1047 C1039 1.503 . S
C1047 C1046 1.370 . S
C1047 C1048 1.403 . S
C1048 C1047 1.403 . S
C1048 C1049 1.404 1_556 S
C1048 C1051 1.539 . S
C1049 C1045 1.408 . S
C1049 C1048 1.404 1_554 S
C1049 H1061 0.930 . S
C1050 C1046 1.524 . S
C1050 H1062 0.956 . S
C1050 H1063 0.961 . S
C1050 H1064 0.961 . S
C1051 C1048 1.539 . S
C1051 H1065 0.958 . S
C1051 H1066 0.961 1_556 S
C1051 H1067 0.960 . S
H1052 C1036 0.931 . S
H1053 C1041 0.929 . S
H1054 C1042 0.960 . S
H1055 C1042 0.962 . S
H1056 C1042 0.960 . S
H1057 C1043 0.961 . S
H1058 C1043 0.961 . S
H1059 C1043 0.961 . S
H1060 C1044 0.931 . S
H1061 C1049 0.930 . S
H1062 C1050 0.956 . S
H1063 C1050 0.961 . S
H1064 C1050 0.961 . S
H1065 C1051 0.958 . S
H1066 C1051 0.961 1_554 S
H1067 C1051 0.960 . S
C1068 C1069 1.391 . S
C1068 C1070 1.394 . S
C1068 H1084 0.931 . S
C1069 C1068 1.391 . S
C1069 C1073 1.376 . S
C1070 C1068 1.394 . S
C1070 C1071 1.369 1_556 S
C1070 C1074 1.531 1_556 S
C1071 C1070 1.369 1_554 S
C1071 C1072 1.410 1_554 S
C1071 C1079 1.503 . S
C1072 C1071 1.410 1_556 S
C1072 C1073 1.392 . S
C1072 C1075 1.511 1_556 S
C1073 C1069 1.376 . S
C1073 C1072 1.392 . S
C1073 H1085 0.929 . S
C1074 C1070 1.531 1_554 S
C1074 H1086 0.960 . S
C1074 H1087 0.962 . S
C1074 H1088 0.960 1_554 S
C1075 C1072 1.511 1_554 S
C1075 H1089 0.961 1_554 S
C1075 H1090 0.961 . S
C1075 H1091 0.961 . S
C1076 C1077 1.370 . S
C1076 C1078 1.363 . S
C1076 H1092 0.931 . S
C1077 C1076 1.370 . S
C1077 C1081 1.408 . S
C1078 C1076 1.363 . S
C1078 C1079 1.370 . S
C1078 C1082 1.524 . S
C1079 C1071 1.503 . S
C1079 C1078 1.370 . S
C1079 C1080 1.403 . S
C1080 C1079 1.403 . S
C1080 C1081 1.404 . S
C1080 C1083 1.539 . S
C1081 C1077 1.408 . S
C1081 C1080 1.404 . S
C1081 H1093 0.930 . S
C1082 C1078 1.524 . S
C1082 H1094 0.956 . S
C1082 H1095 0.961 . S
C1082 H1096 0.961 . S
C1083 C1080 1.539 . S
C1083 H1097 0.958 . S
C1083 H1098 0.961 . S
C1083 H1099 0.960 . S
H1084 C1068 0.931 . S
H1085 C1073 0.929 . S
H1086 C1074 0.960 . S
H1087 C1074 0.962 . S
H1088 C1074 0.960 1_556 S
H1089 C1075 0.961 1_556 S
H1090 C1075 0.961 . S
H1091 C1075 0.961 . S
H1092 C1076 0.931 . S
H1093 C1081 0.930 . S
H1094 C1082 0.956 . S
H1095 C1082 0.961 . S
H1096 C1082 0.961 . S
H1097 C1083 0.958 . S
H1098 C1083 0.961 . S
H1099 C1083 0.960 . S
C1100 C1101 1.391 . S
C1100 C1102 1.394 . S
C1100 H1116 0.931 . S
C1101 C1100 1.391 . S
C1101 C1105 1.376 . S
C1102 C1100 1.394 . S
C1102 C1103 1.369 . S
C1102 C1106 1.531 . S
C1103 C1102 1.369 . S
C1103 C1104 1.410 . S
C1103 C1111 1.503 . S
C1104 C1103 1.410 . S
C1104 C1105 1.392 . S
C1104 C1107 1.511 . S
C1105 C1101 1.376 . S
C1105 C1104 1.392 . S
C1105 H1117 0.929 . S
C1106 C1102 1.531 . S
C1106 H1118 0.960 . S
C1106 H1119 0.962 . S
C1106 H1120 0.960 . S
C1107 C1104 1.511 . S
C1107 H1121 0.961 . S
C1107 H1122 0.961 . S
C1107 H1123 0.961 . S
C1108 C1109 1.370 . S
C1108 C1110 1.363 . S
C1108 H1124 0.931 . S
C1109 C1108 1.370 . S
C1109 C1113 1.408 . S
C1110 C1108 1.363 . S
C1110 C1111 1.370 . S
C1110 C1114 1.524 . S
C1111 C1103 1.503 . S
C1111 C1110 1.370 . S
C1111 C1112 1.403 . S
C1112 C1111 1.403 . S
C1112 C1113 1.404 . S
C1112 C1115 1.539 . S
C1113 C1109 1.408 . S
C1113 C1112 1.404 . S
C1113 H1125 0.930 . S
C1114 C1110 1.524 . S
C1114 H1126 0.956 . S
C1114 H1127 0.961 . S
C1114 H1128 0.961 . S
C1115 C1112 1.539 . S
C1115 H1129 0.958 . S
C1115 H1130 0.961 . S
C1115 H1131 0.960 . S
H1116 C1100 0.931 . S
H1117 C1105 0.929 . S
H1118 C1106 0.960 . S
H1119 C1106 0.962 . S
H1120 C1106 0.960 . S
H1121 C1107 0.961 . S
H1122 C1107 0.961 . S
H1123 C1107 0.961 . S
H1124 C1108 0.931 . S
H1125 C1113 0.930 . S
H1126 C1114 0.956 . S
H1127 C1114 0.961 . S
H1128 C1114 0.961 . S
H1129 C1115 0.958 . S
H1130 C1115 0.961 . S
H1131 C1115 0.960 . S
C1132 C1133 1.391 . S
C1132 C1134 1.394 . S
C1132 H1148 0.931 . S
C1133 C1132 1.391 . S
C1133 C1137 1.376 . S
C1134 C1132 1.394 . S
C1134 C1135 1.369 . S
C1134 C1138 1.531 . S
C1135 C1134 1.369 . S
C1135 C1136 1.410 . S
C1135 C1143 1.503 . S
C1136 C1135 1.410 . S
C1136 C1137 1.392 . S
C1136 C1139 1.511 . S
C1137 C1133 1.376 . S
C1137 C1136 1.392 . S
C1137 H1149 0.929 . S
C1138 C1134 1.531 . S
C1138 H1150 0.960 . S
C1138 H1151 0.962 . S
C1138 H1152 0.960 . S
C1139 C1136 1.511 . S
C1139 H1153 0.961 . S
C1139 H1154 0.961 . S
C1139 H1155 0.961 . S
C1140 C1141 1.370 . S
C1140 C1142 1.363 . S
C1140 H1156 0.931 . S
C1141 C1140 1.370 . S
C1141 C1145 1.408 . S
C1142 C1140 1.363 . S
C1142 C1143 1.370 . S
C1142 C1146 1.524 . S
C1143 C1135 1.503 . S
C1143 C1142 1.370 . S
C1143 C1144 1.403 . S
C1144 C1143 1.403 . S
C1144 C1145 1.404 . S
C1144 C1147 1.539 . S
C1145 C1141 1.408 . S
C1145 C1144 1.404 . S
C1145 H1157 0.930 . S
C1146 C1142 1.524 . S
C1146 H1158 0.956 . S
C1146 H1159 0.961 . S
C1146 H1160 0.961 . S
C1147 C1144 1.539 . S
C1147 H1161 0.958 . S
C1147 H1162 0.961 . S
C1147 H1163 0.960 . S
H1148 C1132 0.931 . S
H1149 C1137 0.929 . S
H1150 C1138 0.960 . S
H1151 C1138 0.962 . S
H1152 C1138 0.960 . S
H1153 C1139 0.961 . S
H1154 C1139 0.961 . S
H1155 C1139 0.961 . S
H1156 C1140 0.931 . S
H1157 C1145 0.930 . S
H1158 C1146 0.956 . S
H1159 C1146 0.961 . S
H1160 C1146 0.961 . S
H1161 C1147 0.958 . S
H1162 C1147 0.961 . S
H1163 C1147 0.960 . S
C1164 C1165 1.391 . S
C1164 C1166 1.394 . S
C1164 H1180 0.931 . S
C1165 C1164 1.391 . S
C1165 C1169 1.376 . S
C1166 C1164 1.394 . S
C1166 C1167 1.369 . S
C1166 C1170 1.531 . S
C1167 C1166 1.369 . S
C1167 C1168 1.410 . S
C1167 C1175 1.503 . S
C1168 C1167 1.410 . S
C1168 C1169 1.392 . S
C1168 C1171 1.511 . S
C1169 C1165 1.376 . S
C1169 C1168 1.392 . S
C1169 H1181 0.929 . S
C1170 C1166 1.531 . S
C1170 H1182 0.960 . S
C1170 H1183 0.962 . S
C1170 H1184 0.960 . S
C1171 C1168 1.511 . S
C1171 H1185 0.961 . S
C1171 H1186 0.961 . S
C1171 H1187 0.961 . S
C1172 C1173 1.370 . S
C1172 C1174 1.363 . S
C1172 H1188 0.931 . S
C1173 C1172 1.370 . S
C1173 C1177 1.408 . S
C1174 C1172 1.363 . S
C1174 C1175 1.370 . S
C1174 C1178 1.524 . S
C1175 C1167 1.503 . S
C1175 C1174 1.370 . S
C1175 C1176 1.403 . S
C1176 C1175 1.403 . S
C1176 C1177 1.404 . S
C1176 C1179 1.539 . S
C1177 C1173 1.408 . S
C1177 C1176 1.404 . S
C1177 H1189 0.930 . S
C1178 C1174 1.524 . S
C1178 H1190 0.956 . S
C1178 H1191 0.961 . S
C1178 H1192 0.961 . S
C1179 C1176 1.539 . S
C1179 H1193 0.958 . S
C1179 H1194 0.961 . S
C1179 H1195 0.960 . S
H1180 C1164 0.931 . S
H1181 C1169 0.929 . S
H1182 C1170 0.960 . S
H1183 C1170 0.962 . S
H1184 C1170 0.960 . S
H1185 C1171 0.961 . S
H1186 C1171 0.961 . S
H1187 C1171 0.961 . S
H1188 C1172 0.931 . S
H1189 C1177 0.930 . S
H1190 C1178 0.956 . S
H1191 C1178 0.961 . S
H1192 C1178 0.961 . S
H1193 C1179 0.958 . S
H1194 C1179 0.961 . S
H1195 C1179 0.960 . S
C1196 C1197 1.391 . S
C1196 C1198 1.394 . S
C1196 H1212 0.931 . S
C1197 C1196 1.391 . S
C1197 C1201 1.376 . S
C1198 C1196 1.394 . S
C1198 C1199 1.369 . S
C1198 C1202 1.531 . S
C1199 C1198 1.369 . S
C1199 C1200 1.410 . S
C1199 C1207 1.503 . S
C1200 C1199 1.410 . S
C1200 C1201 1.392 . S
C1200 C1203 1.511 . S
C1201 C1197 1.376 . S
C1201 C1200 1.392 . S
C1201 H1213 0.929 . S
C1202 C1198 1.531 . S
C1202 H1214 0.960 . S
C1202 H1215 0.962 . S
C1202 H1216 0.960 . S
C1203 C1200 1.511 . S
C1203 H1217 0.961 . S
C1203 H1218 0.961 . S
C1203 H1219 0.961 . S
C1204 C1205 1.370 . S
C1204 C1206 1.363 . S
C1204 H1220 0.931 . S
C1205 C1204 1.370 . S
C1205 C1209 1.408 . S
C1206 C1204 1.363 . S
C1206 C1207 1.370 . S
C1206 C1210 1.524 . S
C1207 C1199 1.503 . S
C1207 C1206 1.370 . S
C1207 C1208 1.403 . S
C1208 C1207 1.403 . S
C1208 C1209 1.404 . S
C1208 C1211 1.539 . S
C1209 C1205 1.408 . S
C1209 C1208 1.404 . S
C1209 H1221 0.930 . S
C1210 C1206 1.524 . S
C1210 H1222 0.956 . S
C1210 H1223 0.961 . S
C1210 H1224 0.961 . S
C1211 C1208 1.539 . S
C1211 H1225 0.958 . S
C1211 H1226 0.961 . S
C1211 H1227 0.960 . S
H1212 C1196 0.931 . S
H1213 C1201 0.929 . S
H1214 C1202 0.960 . S
H1215 C1202 0.962 . S
H1216 C1202 0.960 . S
H1217 C1203 0.961 . S
H1218 C1203 0.961 . S
H1219 C1203 0.961 . S
H1220 C1204 0.931 . S
H1221 C1209 0.930 . S
H1222 C1210 0.956 . S
H1223 C1210 0.961 . S
H1224 C1210 0.961 . S
H1225 C1211 0.958 . S
H1226 C1211 0.961 . S
H1227 C1211 0.960 . S
C1228 C1229 1.391 . S
C1228 C1230 1.394 . S
C1228 H1244 0.931 . S
C1229 C1228 1.391 . S
C1229 C1233 1.376 . S
C1230 C1228 1.394 . S
C1230 C1231 1.369 . S
C1230 C1234 1.531 . S
C1231 C1230 1.369 . S
C1231 C1232 1.410 . S
C1231 C1239 1.503 . S
C1232 C1231 1.410 . S
C1232 C1233 1.392 . S
C1232 C1235 1.511 . S
C1233 C1229 1.376 . S
C1233 C1232 1.392 . S
C1233 H1245 0.929 . S
C1234 C1230 1.531 . S
C1234 H1246 0.960 . S
C1234 H1247 0.962 . S
C1234 H1248 0.960 . S
C1235 C1232 1.511 . S
C1235 H1249 0.961 . S
C1235 H1250 0.961 . S
C1235 H1251 0.961 . S
C1236 C1237 1.370 . S
C1236 C1238 1.363 . S
C1236 H1252 0.931 . S
C1237 C1236 1.370 . S
C1237 C1241 1.408 . S
C1238 C1236 1.363 . S
C1238 C1239 1.370 . S
C1238 C1242 1.524 . S
C1239 C1231 1.503 . S
C1239 C1238 1.370 . S
C1239 C1240 1.403 . S
C1240 C1239 1.403 . S
C1240 C1241 1.404 . S
C1240 C1243 1.539 . S
C1241 C1237 1.408 . S
C1241 C1240 1.404 . S
C1241 H1253 0.930 . S
C1242 C1238 1.524 . S
C1242 H1254 0.956 . S
C1242 H1255 0.961 . S
C1242 H1256 0.961 . S
C1243 C1240 1.539 . S
C1243 H1257 0.958 . S
C1243 H1258 0.961 . S
C1243 H1259 0.960 . S
H1244 C1228 0.931 . S
H1245 C1233 0.929 . S
H1246 C1234 0.960 . S
H1247 C1234 0.962 . S
H1248 C1234 0.960 . S
H1249 C1235 0.961 . S
H1250 C1235 0.961 . S
H1251 C1235 0.961 . S
H1252 C1236 0.931 . S
H1253 C1241 0.930 . S
H1254 C1242 0.956 . S
H1255 C1242 0.961 . S
H1256 C1242 0.961 . S
H1257 C1243 0.958 . S
H1258 C1243 0.961 . S
H1259 C1243 0.960 . S
C1260 C1261 1.391 . S
C1260 C1262 1.394 . S
C1260 H1276 0.931 . S
C1261 C1260 1.391 . S
C1261 C1265 1.376 . S
C1262 C1260 1.394 . S
C1262 C1263 1.369 . S
C1262 C1266 1.531 . S
C1263 C1262 1.369 . S
C1263 C1264 1.410 . S
C1263 C1271 1.503 . S
C1264 C1263 1.410 . S
C1264 C1265 1.392 . S
C1264 C1267 1.511 . S
C1265 C1261 1.376 . S
C1265 C1264 1.392 . S
C1265 H1277 0.929 . S
C1266 C1262 1.531 . S
C1266 H1278 0.960 . S
C1266 H1279 0.962 . S
C1266 H1280 0.960 . S
C1267 C1264 1.511 . S
C1267 H1281 0.961 . S
C1267 H1282 0.961 . S
C1267 H1283 0.961 . S
C1268 C1269 1.370 . S
C1268 C1270 1.363 . S
C1268 H1284 0.931 . S
C1269 C1268 1.370 . S
C1269 C1273 1.408 . S
C1270 C1268 1.363 . S
C1270 C1271 1.370 . S
C1270 C1274 1.524 . S
C1271 C1263 1.503 . S
C1271 C1270 1.370 . S
C1271 C1272 1.403 . S
C1272 C1271 1.403 . S
C1272 C1273 1.404 . S
C1272 C1275 1.539 . S
C1273 C1269 1.408 . S
C1273 C1272 1.404 . S
C1273 H1285 0.930 . S
C1274 C1270 1.524 . S
C1274 H1286 0.956 . S
C1274 H1287 0.961 . S
C1274 H1288 0.961 . S
C1275 C1272 1.539 . S
C1275 H1289 0.958 . S
C1275 H1290 0.961 . S
C1275 H1291 0.960 . S
H1276 C1260 0.931 . S
H1277 C1265 0.929 . S
H1278 C1266 0.960 . S
H1279 C1266 0.962 . S
H1280 C1266 0.960 . S
H1281 C1267 0.961 . S
H1282 C1267 0.961 . S
H1283 C1267 0.961 . S
H1284 C1268 0.931 . S
H1285 C1273 0.930 . S
H1286 C1274 0.956 . S
H1287 C1274 0.961 . S
H1288 C1274 0.961 . S
H1289 C1275 0.958 . S
H1290 C1275 0.961 . S
H1291 C1275 0.960 . S
C1292 C1293 1.391 . S
C1292 C1294 1.394 . S
C1292 H1308 0.931 . S
C1293 C1292 1.391 . S
C1293 C1297 1.376 . S
C1294 C1292 1.394 . S
C1294 C1295 1.369 . S
C1294 C1298 1.531 . S
C1295 C1294 1.369 . S
C1295 C1296 1.410 . S
C1295 C1303 1.503 . S
C1296 C1295 1.410 . S
C1296 C1297 1.392 . S
C1296 C1299 1.511 . S
C1297 C1293 1.376 . S
C1297 C1296 1.392 . S
C1297 H1309 0.929 . S
C1298 C1294 1.531 . S
C1298 H1310 0.960 . S
C1298 H1311 0.962 . S
C1298 H1312 0.960 . S
C1299 C1296 1.511 . S
C1299 H1313 0.961 . S
C1299 H1314 0.961 . S
C1299 H1315 0.961 . S
C1300 C1301 1.370 . S
C1300 C1302 1.363 . S
C1300 H1316 0.931 . S
C1301 C1300 1.370 . S
C1301 C1305 1.408 . S
C1302 C1300 1.363 . S
C1302 C1303 1.370 1_554 S
C1302 C1306 1.524 1_554 S
C1303 C1295 1.503 . S
C1303 C1302 1.370 1_556 S
C1303 C1304 1.403 1_556 S
C1304 C1303 1.403 1_554 S
C1304 C1305 1.404 . S
C1304 C1307 1.539 . S
C1305 C1301 1.408 . S
C1305 C1304 1.404 . S
C1305 H1317 0.930 . S
C1306 C1302 1.524 1_556 S
C1306 H1318 0.956 . S
C1306 H1319 0.961 . S
C1306 H1320 0.961 . S
C1307 C1304 1.539 . S
C1307 H1321 0.958 . S
C1307 H1322 0.961 . S
C1307 H1323 0.960 1_554 S
H1308 C1292 0.931 . S
H1309 C1297 0.929 . S
H1310 C1298 0.960 . S
H1311 C1298 0.962 . S
H1312 C1298 0.960 . S
H1313 C1299 0.961 . S
H1314 C1299 0.961 . S
H1315 C1299 0.961 . S
H1316 C1300 0.931 . S
H1317 C1305 0.930 . S
H1318 C1306 0.956 . S
H1319 C1306 0.961 . S
H1320 C1306 0.961 . S
H1321 C1307 0.958 . S
H1322 C1307 0.961 . S
H1323 C1307 0.960 1_556 S
C1324 C1325 1.391 . S
C1324 C1326 1.394 . S
C1324 H1340 0.931 . S
C1325 C1324 1.391 . S
C1325 C1329 1.376 . S
C1326 C1324 1.394 . S
C1326 C1327 1.369 . S
C1326 C1330 1.531 . S
C1327 C1326 1.369 . S
C1327 C1328 1.410 . S
C1327 C1335 1.503 . S
C1328 C1327 1.410 . S
C1328 C1329 1.392 . S
C1328 C1331 1.511 . S
C1329 C1325 1.376 . S
C1329 C1328 1.392 . S
C1329 H1341 0.929 . S
C1330 C1326 1.531 . S
C1330 H1342 0.960 . S
C1330 H1343 0.962 . S
C1330 H1344 0.960 . S
C1331 C1328 1.511 . S
C1331 H1345 0.961 . S
C1331 H1346 0.961 . S
C1331 H1347 0.961 . S
C1332 C1333 1.370 . S
C1332 C1334 1.363 1_556 S
C1332 H1348 0.931 . S
C1333 C1332 1.370 . S
C1333 C1337 1.408 . S
C1334 C1332 1.363 1_554 S
C1334 C1335 1.370 . S
C1334 C1338 1.524 . S
C1335 C1327 1.503 . S
C1335 C1334 1.370 . S
C1335 C1336 1.403 . S
C1336 C1335 1.403 . S
C1336 C1337 1.404 1_554 S
C1336 C1339 1.539 . S
C1337 C1333 1.408 . S
C1337 C1336 1.404 1_556 S
C1337 H1349 0.930 . S
C1338 C1334 1.524 . S
C1338 H1350 0.956 . S
C1338 H1351 0.961 . S
C1338 H1352 0.961 . S
C1339 C1336 1.539 . S
C1339 H1353 0.958 . S
C1339 H1354 0.961 . S
C1339 H1355 0.960 . S
H1340 C1324 0.931 . S
H1341 C1329 0.929 . S
H1342 C1330 0.960 . S
H1343 C1330 0.962 . S
H1344 C1330 0.960 . S
H1345 C1331 0.961 . S
H1346 C1331 0.961 . S
H1347 C1331 0.961 . S
H1348 C1332 0.931 . S
H1349 C1337 0.930 . S
H1350 C1338 0.956 . S
H1351 C1338 0.961 . S
H1352 C1338 0.961 . S
H1353 C1339 0.958 . S
H1354 C1339 0.961 . S
H1355 C1339 0.960 . S
C397 C281 1.615 . S
C405 C17 1.622 . S
C429 C314 1.617 . S
C437 C50 1.621 . S
C461 C347 1.618 . S
C469 C83 1.621 . S
C493 C380 1.621 . S
C501 C116 1.621 . S
C525 C149 1.613 . S
C533 C215 1.622 . S
C557 C248 1.629 . S
C565 C182 1.624 . S
C589 C8 1.205 . S
C597 C371 1.165 . S
C621 C206 1.175 . S
C629 C41 1.149 . S
C653 C74 1.200 . S
C661 C239 1.168 . S
C685 C107 1.162 . S
C693 C272 1.181 . S
C717 C305 1.177 . S
C725 C140 1.180 . S
C749 C173 1.136 . S
C757 C338 1.150 . S
C781 C28 1.340 . S
C789 C358 1.360 . S
C813 C61 1.356 . S
C821 C391 1.363 . S
C845 C226 1.347 . S
C853 C94 1.365 . S
C877 C259 1.340 . S
C885 C127 1.360 . S
C909 C160 1.366 . S
C917 C292 1.351 . S
C941 C325 1.354 . S
C949 C193 1.354 . S
C973 N5 1.063 . S
C981 N14 1.053 . S
C1005 N47 1.067 . S
C1013 N38 1.055 . S
C1037 N71 1.055 . S
C1045 N80 1.059 . S
C1069 N104 1.061 . S
C1077 N113 1.054 . S
C1101 N146 1.053 . S
C1109 N137 1.059 1_554 S
C1133 N179 1.066 . S
C1141 N170 1.056 . S
C1165 N212 1.061 . S
C1173 N203 1.057 . S
C1197 N245 1.049 . S
C1205 N236 1.060 . S
C1229 N278 1.044 . S
C1237 N269 1.062 . S
C1261 N311 1.057 . S
C1269 N302 1.059 1_556 S
C1293 N344 1.043 . S
C1301 N335 1.062 . S
C1325 N368 1.059 . S
C1333 N377 1.055 . S
