# Generated by pormake.
# Topology mer, (4)-cn, num edge types: 1
# Building blocks:
#     Node 0, Type 0, BuildingBlock: CEKHIL_clean_sbu_0, # of connection points: 4
#     Node 1, Type 0, BuildingBlock: CEKHIL_clean_sbu_0, # of connection points: 4
#     Node 2, Type 0, BuildingBlock: CEKHIL_clean_sbu_0, # of connection points: 4
#     Node 3, Type 0, BuildingBlock: CEKHIL_clean_sbu_0, # of connection points: 4
#     Node 4, Type 0, BuildingBlock: CEKHIL_clean_sbu_0, # of connection points: 4
#     Node 5, Type 0, BuildingBlock: CEKHIL_clean_sbu_0, # of connection points: 4
#     Node 6, Type 0, BuildingBlock: CEKHIL_clean_sbu_0, # of connection points: 4
#     Node 7, Type 0, BuildingBlock: CEKHIL_clean_sbu_0, # of connection points: 4
#     Node 8, Type 0, BuildingBlock: CEKHIL_clean_sbu_0, # of connection points: 4
#     Node 9, Type 0, BuildingBlock: CEKHIL_clean_sbu_0, # of connection points: 4
#     Node 10, Type 0, BuildingBlock: CEKHIL_clean_sbu_0, # of connection points: 4
#     Node 11, Type 0, BuildingBlock: CEKHIL_clean_sbu_0, # of connection points: 4
#     Node 12, Type 0, BuildingBlock: CEKHIL_clean_sbu_0, # of connection points: 4
#     Node 13, Type 0, BuildingBlock: CEKHIL_clean_sbu_0, # of connection points: 4
#     Node 14, Type 0, BuildingBlock: CEKHIL_clean_sbu_0, # of connection points: 4
#     Node 15, Type 0, BuildingBlock: CEKHIL_clean_sbu_0, # of connection points: 4
#     Node 16, Type 0, BuildingBlock: CEKHIL_clean_sbu_0, # of connection points: 4
#     Node 17, Type 0, BuildingBlock: CEKHIL_clean_sbu_0, # of connection points: 4
#     Node 18, Type 0, BuildingBlock: CEKHIL_clean_sbu_0, # of connection points: 4
#     Node 19, Type 0, BuildingBlock: CEKHIL_clean_sbu_0, # of connection points: 4
#     Node 20, Type 0, BuildingBlock: CEKHIL_clean_sbu_0, # of connection points: 4
#     Node 21, Type 0, BuildingBlock: CEKHIL_clean_sbu_0, # of connection points: 4
#     Node 22, Type 0, BuildingBlock: CEKHIL_clean_sbu_0, # of connection points: 4
#     Node 23, Type 0, BuildingBlock: CEKHIL_clean_sbu_0, # of connection points: 4
#     Node 24, Type 0, BuildingBlock: CEKHIL_clean_sbu_0, # of connection points: 4
#     Node 25, Type 0, BuildingBlock: CEKHIL_clean_sbu_0, # of connection points: 4
#     Node 26, Type 0, BuildingBlock: CEKHIL_clean_sbu_0, # of connection points: 4
#     Node 27, Type 0, BuildingBlock: CEKHIL_clean_sbu_0, # of connection points: 4
#     Node 28, Type 0, BuildingBlock: CEKHIL_clean_sbu_0, # of connection points: 4
#     Node 29, Type 0, BuildingBlock: CEKHIL_clean_sbu_0, # of connection points: 4
#     Node 30, Type 0, BuildingBlock: CEKHIL_clean_sbu_0, # of connection points: 4
#     Node 31, Type 0, BuildingBlock: CEKHIL_clean_sbu_0, # of connection points: 4
#     Edge 32, Type (0, 0), BuildingBlock: XIVTED_clean_linker_0, # of connection points: 2
#     Edge 33, Type (0, 0), BuildingBlock: XIVTED_clean_linker_0, # of connection points: 2
#     Edge 34, Type (0, 0), BuildingBlock: XIVTED_clean_linker_0, # of connection points: 2
#     Edge 35, Type (0, 0), BuildingBlock: XIVTED_clean_linker_0, # of connection points: 2
#     Edge 36, Type (0, 0), BuildingBlock: XIVTED_clean_linker_0, # of connection points: 2
#     Edge 37, Type (0, 0), BuildingBlock: XIVTED_clean_linker_0, # of connection points: 2
#     Edge 38, Type (0, 0), BuildingBlock: XIVTED_clean_linker_0, # of connection points: 2
#     Edge 39, Type (0, 0), BuildingBlock: XIVTED_clean_linker_0, # of connection points: 2
#     Edge 40, Type (0, 0), BuildingBlock: XIVTED_clean_linker_0, # of connection points: 2
#     Edge 41, Type (0, 0), BuildingBlock: XIVTED_clean_linker_0, # of connection points: 2
#     Edge 42, Type (0, 0), BuildingBlock: XIVTED_clean_linker_0, # of connection points: 2
#     Edge 43, Type (0, 0), BuildingBlock: XIVTED_clean_linker_0, # of connection points: 2
#     Edge 44, Type (0, 0), BuildingBlock: XIVTED_clean_linker_0, # of connection points: 2
#     Edge 45, Type (0, 0), BuildingBlock: XIVTED_clean_linker_0, # of connection points: 2
#     Edge 46, Type (0, 0), BuildingBlock: XIVTED_clean_linker_0, # of connection points: 2
#     Edge 47, Type (0, 0), BuildingBlock: XIVTED_clean_linker_0, # of connection points: 2
#     Edge 48, Type (0, 0), BuildingBlock: XIVTED_clean_linker_0, # of connection points: 2
#     Edge 49, Type (0, 0), BuildingBlock: XIVTED_clean_linker_0, # of connection points: 2
#     Edge 50, Type (0, 0), BuildingBlock: XIVTED_clean_linker_0, # of connection points: 2
#     Edge 51, Type (0, 0), BuildingBlock: XIVTED_clean_linker_0, # of connection points: 2
#     Edge 52, Type (0, 0), BuildingBlock: XIVTED_clean_linker_0, # of connection points: 2
#     Edge 53, Type (0, 0), BuildingBlock: XIVTED_clean_linker_0, # of connection points: 2
#     Edge 54, Type (0, 0), BuildingBlock: XIVTED_clean_linker_0, # of connection points: 2
#     Edge 55, Type (0, 0), BuildingBlock: XIVTED_clean_linker_0, # of connection points: 2
#     Edge 56, Type (0, 0), BuildingBlock: XIVTED_clean_linker_0, # of connection points: 2
#     Edge 57, Type (0, 0), BuildingBlock: XIVTED_clean_linker_0, # of connection points: 2
#     Edge 58, Type (0, 0), BuildingBlock: XIVTED_clean_linker_0, # of connection points: 2
#     Edge 59, Type (0, 0), BuildingBlock: XIVTED_clean_linker_0, # of connection points: 2
#     Edge 60, Type (0, 0), BuildingBlock: XIVTED_clean_linker_0, # of connection points: 2
#     Edge 61, Type (0, 0), BuildingBlock: XIVTED_clean_linker_0, # of connection points: 2
#     Edge 62, Type (0, 0), BuildingBlock: XIVTED_clean_linker_0, # of connection points: 2
#     Edge 63, Type (0, 0), BuildingBlock: XIVTED_clean_linker_0, # of connection points: 2
#     Edge 64, Type (0, 0), BuildingBlock: XIVTED_clean_linker_0, # of connection points: 2
#     Edge 65, Type (0, 0), BuildingBlock: XIVTED_clean_linker_0, # of connection points: 2
#     Edge 66, Type (0, 0), BuildingBlock: XIVTED_clean_linker_0, # of connection points: 2
#     Edge 67, Type (0, 0), BuildingBlock: XIVTED_clean_linker_0, # of connection points: 2
#     Edge 68, Type (0, 0), BuildingBlock: XIVTED_clean_linker_0, # of connection points: 2
#     Edge 69, Type (0, 0), BuildingBlock: XIVTED_clean_linker_0, # of connection points: 2
#     Edge 70, Type (0, 0), BuildingBlock: XIVTED_clean_linker_0, # of connection points: 2
#     Edge 71, Type (0, 0), BuildingBlock: XIVTED_clean_linker_0, # of connection points: 2
#     Edge 72, Type (0, 0), BuildingBlock: XIVTED_clean_linker_0, # of connection points: 2
#     Edge 73, Type (0, 0), BuildingBlock: XIVTED_clean_linker_0, # of connection points: 2
#     Edge 74, Type (0, 0), BuildingBlock: XIVTED_clean_linker_0, # of connection points: 2
#     Edge 75, Type (0, 0), BuildingBlock: XIVTED_clean_linker_0, # of connection points: 2
#     Edge 76, Type (0, 0), BuildingBlock: XIVTED_clean_linker_0, # of connection points: 2
#     Edge 77, Type (0, 0), BuildingBlock: XIVTED_clean_linker_0, # of connection points: 2
#     Edge 78, Type (0, 0), BuildingBlock: XIVTED_clean_linker_0, # of connection points: 2
#     Edge 79, Type (0, 0), BuildingBlock: XIVTED_clean_linker_0, # of connection points: 2
#     Edge 80, Type (0, 0), BuildingBlock: XIVTED_clean_linker_0, # of connection points: 2
#     Edge 81, Type (0, 0), BuildingBlock: XIVTED_clean_linker_0, # of connection points: 2
#     Edge 82, Type (0, 0), BuildingBlock: XIVTED_clean_linker_0, # of connection points: 2
#     Edge 83, Type (0, 0), BuildingBlock: XIVTED_clean_linker_0, # of connection points: 2
#     Edge 84, Type (0, 0), BuildingBlock: XIVTED_clean_linker_0, # of connection points: 2
#     Edge 85, Type (0, 0), BuildingBlock: XIVTED_clean_linker_0, # of connection points: 2
#     Edge 86, Type (0, 0), BuildingBlock: XIVTED_clean_linker_0, # of connection points: 2
#     Edge 87, Type (0, 0), BuildingBlock: XIVTED_clean_linker_0, # of connection points: 2
#     Edge 88, Type (0, 0), BuildingBlock: XIVTED_clean_linker_0, # of connection points: 2
#     Edge 89, Type (0, 0), BuildingBlock: XIVTED_clean_linker_0, # of connection points: 2
#     Edge 90, Type (0, 0), BuildingBlock: XIVTED_clean_linker_0, # of connection points: 2
#     Edge 91, Type (0, 0), BuildingBlock: XIVTED_clean_linker_0, # of connection points: 2
#     Edge 92, Type (0, 0), BuildingBlock: XIVTED_clean_linker_0, # of connection points: 2
#     Edge 93, Type (0, 0), BuildingBlock: XIVTED_clean_linker_0, # of connection points: 2
#     Edge 94, Type (0, 0), BuildingBlock: XIVTED_clean_linker_0, # of connection points: 2
#     Edge 95, Type (0, 0), BuildingBlock: XIVTED_clean_linker_0, # of connection points: 2
# Relax obj value: 0.065
# Max RMSD: 0.119
# Mean RMSD: 0.119
data_MOF--net-mer--node1-CEKHIL_clean_sbu_0--edge1-XIVTED_clean_linker_0
_symmetry_space_group_name_H-M    P1
_symmetry_Int_Tables_number       1
_symmetry_cell_setting            triclinic
loop_
_symmetry_equiv_pos_as_xyz
'x, y, z'
_cell_length_a     62.333529
_cell_length_b     62.326139
_cell_length_c     53.552682
_cell_angle_alpha  90.001483
_cell_angle_beta   89.99808
_cell_angle_gamma 89.972699
loop_
_atom_site_label
_atom_site_type_symbol
_atom_site_fract_x
_atom_site_fract_y
_atom_site_fract_z
_atom_type_partial_charge
Co0 Co 0.11179 0.2921 0.35342 0.0
O1 O 0.08456 0.30541 0.35923 0.0
O2 O 0.0903 0.27031 0.3599 0.0
C3 C 0.12052 0.31146 0.31944 0.0
O4 O 0.13768 0.27271 0.34745 0.0
Co5 Co 0.15369 0.31927 0.35642 0.0
O6 O 0.16629 0.29375 0.33984 0.0
C7 C 0.13089 0.30699 0.40261 0.0
C8 C 0.07691 0.28622 0.36217 0.0
C9 C 0.15724 0.2754 0.34032 0.0
O10 O 0.11862 0.29433 0.39011 0.0
O11 O 0.14461 0.3195 0.39235 0.0
O12 O 0.10803 0.29486 0.3173 0.0
O13 O 0.12545 0.31683 0.34196 0.0
Co14 Co 0.71222 0.11381 0.35314 0.0
O15 O 0.6989 0.08687 0.36051 0.0
O16 O 0.73402 0.09247 0.36016 0.0
C17 C 0.69243 0.12138 0.31908 0.0
O18 O 0.73163 0.13932 0.34551 0.0
Co19 Co 0.68547 0.156 0.3545 0.0
O20 O 0.71062 0.16758 0.33626 0.0
C21 C 0.69855 0.13515 0.40169 0.0
C22 C 0.71811 0.07922 0.36329 0.0
C23 C 0.72893 0.15848 0.33704 0.0
O24 O 0.71057 0.12198 0.38955 0.0
O25 O 0.68619 0.14876 0.39101 0.0
O26 O 0.70895 0.10874 0.31732 0.0
O27 O 0.68736 0.1272 0.34143 0.0
Co28 Co 0.88951 0.71108 0.353 0.0
O29 O 0.917 0.69767 0.35576 0.0
O30 O 0.91124 0.73261 0.35971 0.0
C31 C 0.87902 0.69361 0.31836 0.0
O32 O 0.86314 0.73044 0.35047 0.0
Co33 Co 0.84829 0.68293 0.35733 0.0
O34 O 0.8344 0.70923 0.34415 0.0
C35 C 0.87427 0.69222 0.40201 0.0
C36 C 0.92473 0.71665 0.3599 0.0
C37 C 0.8432 0.72769 0.34495 0.0
O38 O 0.88481 0.70654 0.38983 0.0
O39 O 0.86043 0.67982 0.39181 0.0
O40 O 0.89126 0.71042 0.31651 0.0
O41 O 0.87546 0.68694 0.34075 0.0
Co42 Co 0.28827 0.88903 0.35243 0.0
O43 O 0.30083 0.91644 0.3592 0.0
O44 O 0.26587 0.90991 0.35891 0.0
C45 C 0.3084 0.88137 0.31868 0.0
O46 O 0.26963 0.8628 0.34545 0.0
Co47 Co 0.31638 0.84768 0.35488 0.0
O48 O 0.29144 0.83485 0.33743 0.0
C49 C 0.30268 0.86918 0.40142 0.0
C50 C 0.28142 0.9236 0.36188 0.0
C51 C 0.27288 0.84345 0.33787 0.0
O52 O 0.29008 0.88157 0.38899 0.0
O53 O 0.3156 0.85588 0.39107 0.0
O54 O 0.29154 0.8935 0.31647 0.0
O55 O 0.31351 0.87616 0.3412 0.0
Co56 Co 0.11437 0.7105 0.63901 0.0
O57 O 0.08753 0.69669 0.63244 0.0
O58 O 0.09256 0.7319 0.632 0.0
C59 C 0.12266 0.69122 0.67328 0.0
O60 O 0.13973 0.73038 0.6457 0.0
Co61 Co 0.1569 0.68418 0.63753 0.0
O62 O 0.16865 0.71003 0.65422 0.0
C63 C 0.13501 0.69594 0.5905 0.0
C64 C 0.07953 0.71574 0.62943 0.0
C65 C 0.15921 0.72817 0.65334 0.0
O66 O 0.12208 0.70835 0.60249 0.0
O67 O 0.14873 0.68379 0.60132 0.0
O68 O 0.10988 0.70763 0.67504 0.0
O69 O 0.12824 0.68599 0.65091 0.0
Co70 Co 0.2869 0.11355 0.63893 0.0
O71 O 0.29993 0.08642 0.63187 0.0
O72 O 0.26487 0.09247 0.63171 0.0
C73 C 0.30653 0.12103 0.67312 0.0
O74 O 0.26782 0.13947 0.646 0.0
Co75 Co 0.31454 0.15524 0.63757 0.0
O76 O 0.28914 0.16767 0.65456 0.0
C77 C 0.30191 0.13394 0.59053 0.0
C78 C 0.28067 0.07905 0.6287 0.0
C79 C 0.27071 0.15883 0.65375 0.0
O80 O 0.28908 0.12147 0.60254 0.0
O81 O 0.3146 0.14718 0.60132 0.0
O82 O 0.2898 0.10868 0.67488 0.0
O83 O 0.31182 0.12658 0.65077 0.0
Co84 Co 0.8862 0.28745 0.63775 0.0
O85 O 0.91267 0.30147 0.62985 0.0
O86 O 0.90818 0.2662 0.63107 0.0
C87 C 0.87825 0.30768 0.67133 0.0
O88 O 0.86134 0.26736 0.64595 0.0
Co89 Co 0.84315 0.31286 0.63635 0.0
O90 O 0.83232 0.28746 0.65473 0.0
C91 C 0.8642 0.29978 0.58924 0.0
C92 C 0.9209 0.28245 0.62743 0.0
C93 C 0.84204 0.26947 0.65421 0.0
O94 O 0.87779 0.28826 0.60142 0.0
O95 O 0.85033 0.3119 0.59987 0.0
O96 O 0.89134 0.29155 0.67348 0.0
O97 O 0.87213 0.31208 0.64892 0.0
Co98 Co 0.70976 0.88486 0.63781 0.0
O99 O 0.69694 0.91265 0.63575 0.0
O100 O 0.73165 0.90623 0.63071 0.0
C101 C 0.6928 0.87447 0.67286 0.0
O102 O 0.72837 0.85788 0.63932 0.0
Co103 Co 0.67988 0.84482 0.63346 0.0
O104 O 0.70623 0.82962 0.64431 0.0
C105 C 0.68983 0.87051 0.58886 0.0
C106 C 0.71594 0.92002 0.63103 0.0
C107 C 0.725 0.83777 0.64349 0.0
O108 O 0.70444 0.88061 0.60107 0.0
O109 O 0.67698 0.85708 0.59902 0.0
O110 O 0.70996 0.88626 0.67433 0.0
O111 O 0.68551 0.87139 0.65065 0.0
Co112 Co 0.88503 0.70858 0.63713 0.0
O113 O 0.91296 0.69601 0.63612 0.0
O114 O 0.90641 0.73065 0.63075 0.0
C115 C 0.87383 0.69159 0.67182 0.0
O116 O 0.85782 0.72692 0.63774 0.0
Co117 Co 0.84554 0.67821 0.63115 0.0
O118 O 0.82979 0.70434 0.64164 0.0
C119 C 0.87254 0.68828 0.58771 0.0
C120 C 0.92032 0.71506 0.63161 0.0
C121 C 0.83769 0.72323 0.6413 0.0
O122 O 0.88187 0.7032 0.60024 0.0
O123 O 0.85906 0.6752 0.59737 0.0
O124 O 0.88545 0.70884 0.67368 0.0
O125 O 0.87145 0.68421 0.64952 0.0
Co126 Co 0.28609 0.88601 0.6374 0.0
O127 O 0.29908 0.9132 0.63049 0.0
O128 O 0.26403 0.90718 0.63064 0.0
C129 C 0.30604 0.87833 0.67128 0.0
O130 O 0.26701 0.86012 0.6445 0.0
Co131 Co 0.3135 0.8442 0.63551 0.0
O132 O 0.28833 0.83191 0.65303 0.0
C133 C 0.3008 0.86594 0.58873 0.0
C134 C 0.2798 0.92063 0.62768 0.0
C135 C 0.26991 0.84081 0.65239 0.0
O136 O 0.28803 0.87836 0.6009 0.0
O137 O 0.31344 0.85254 0.59934 0.0
O138 O 0.2893 0.89066 0.67334 0.0
O139 O 0.3111 0.87285 0.64884 0.0
Co140 Co 0.11456 0.28899 0.63845 0.0
O141 O 0.08741 0.30247 0.63259 0.0
O142 O 0.09304 0.26736 0.63147 0.0
C143 C 0.12309 0.30803 0.67275 0.0
O144 O 0.1403 0.26941 0.64439 0.0
Co145 Co 0.15663 0.31591 0.63626 0.0
O146 O 0.16908 0.29009 0.65234 0.0
C147 C 0.13374 0.30475 0.58977 0.0
C148 C 0.07973 0.28334 0.62929 0.0
C149 C 0.15988 0.27184 0.6516 0.0
O150 O 0.1216 0.29167 0.60186 0.0
O151 O 0.14739 0.31708 0.60042 0.0
O152 O 0.11056 0.29143 0.67458 0.0
O153 O 0.12824 0.31355 0.65035 0.0
Co154 Co 0.71338 0.11404 0.63817 0.0
O155 O 0.6996 0.08728 0.63101 0.0
O156 O 0.73481 0.09215 0.63175 0.0
C157 C 0.69334 0.12226 0.67186 0.0
O158 O 0.73324 0.13923 0.64573 0.0
Co159 Co 0.68753 0.15677 0.63608 0.0
O160 O 0.71272 0.16794 0.65458 0.0
C161 C 0.70045 0.13515 0.58926 0.0
C162 C 0.71867 0.07918 0.62864 0.0
C163 C 0.73085 0.15848 0.65405 0.0
O164 O 0.71219 0.12188 0.60164 0.0
O165 O 0.6883 0.1491 0.59971 0.0
O166 O 0.70963 0.10937 0.67401 0.0
O167 O 0.68866 0.12802 0.64938 0.0
Co168 Co 0.88312 0.28899 0.35309 0.0
O169 O 0.9095 0.30323 0.36087 0.0
O170 O 0.90535 0.26793 0.35946 0.0
C171 C 0.87483 0.30934 0.31971 0.0
O172 O 0.8584 0.26871 0.34496 0.0
Co173 Co 0.83985 0.31399 0.35504 0.0
O174 O 0.82912 0.28858 0.33662 0.0
C175 C 0.86138 0.30096 0.40187 0.0
C176 C 0.91792 0.28429 0.36311 0.0
C177 C 0.83902 0.27068 0.33692 0.0
O178 O 0.87493 0.28956 0.38949 0.0
O179 O 0.84733 0.31301 0.39145 0.0
O180 O 0.88803 0.29331 0.31737 0.0
O181 O 0.86877 0.31356 0.3422 0.0
Co182 Co 0.71279 0.88538 0.35407 0.0
O183 O 0.69924 0.91268 0.35822 0.0
O184 O 0.73429 0.90709 0.36105 0.0
C185 C 0.69468 0.87584 0.31951 0.0
O186 O 0.73228 0.85924 0.35015 0.0
Co187 Co 0.68506 0.84383 0.35746 0.0
O188 O 0.71123 0.83048 0.34323 0.0
C189 C 0.69482 0.86875 0.40284 0.0
C190 C 0.71823 0.92042 0.36221 0.0
C191 C 0.72963 0.83941 0.34403 0.0
O192 O 0.70891 0.87967 0.39076 0.0
O193 O 0.68239 0.85505 0.39242 0.0
O194 O 0.71143 0.88816 0.31769 0.0
O195 O 0.68851 0.87153 0.34191 0.0
Co196 Co 0.11881 0.7115 0.35383 0.0
O197 O 0.09201 0.69758 0.3602 0.0
O198 O 0.0968 0.73283 0.36009 0.0
C199 C 0.12764 0.69183 0.32009 0.0
O200 O 0.14411 0.73146 0.34719 0.0
Co201 Co 0.16141 0.68556 0.35692 0.0
O202 O 0.1733 0.71117 0.33987 0.0
C203 C 0.13854 0.69772 0.40312 0.0
C204 C 0.08386 0.7166 0.3628 0.0
C205 C 0.16372 0.72925 0.34003 0.0
O206 O 0.12593 0.70994 0.39049 0.0
O207 O 0.15256 0.68547 0.39296 0.0
O208 O 0.11478 0.70814 0.31785 0.0
O209 O 0.13301 0.68691 0.34263 0.0
Co210 Co 0.28491 0.11699 0.35422 0.0
O211 O 0.29837 0.08998 0.36074 0.0
O212 O 0.2632 0.09536 0.36061 0.0
C213 C 0.3048 0.12533 0.32051 0.0
O214 O 0.26544 0.14272 0.34756 0.0
Co215 Co 0.31182 0.15907 0.35704 0.0
O216 O 0.28634 0.17148 0.34024 0.0
C217 C 0.29933 0.13647 0.4033 0.0
C218 C 0.27922 0.08219 0.36349 0.0
C219 C 0.26806 0.16232 0.3405 0.0
O220 O 0.28666 0.12421 0.39083 0.0
O221 O 0.31192 0.1501 0.39301 0.0
O222 O 0.28824 0.11282 0.31821 0.0
O223 O 0.30973 0.13064 0.34305 0.0
Co224 Co 0.61214 0.78819 0.85487 0.0
O225 O 0.5852 0.80221 0.86002 0.0
O226 O 0.59022 0.76704 0.86231 0.0
C227 C 0.62132 0.80618 0.82007 0.0
O228 O 0.63774 0.7682 0.84984 0.0
Co229 Co 0.65441 0.81493 0.85689 0.0
O230 O 0.66652 0.78875 0.84126 0.0
C231 C 0.63107 0.80481 0.90334 0.0
C232 C 0.57718 0.78331 0.86389 0.0
C233 C 0.65729 0.77052 0.84248 0.0
O234 O 0.61894 0.79161 0.89142 0.0
O235 O 0.64491 0.81686 0.89258 0.0
O236 O 0.6085 0.78977 0.81862 0.0
O237 O 0.62623 0.81223 0.84235 0.0
Co238 Co 0.21307 0.61359 0.8543 0.0
O239 O 0.20002 0.5864 0.86105 0.0
O240 O 0.23508 0.59237 0.86112 0.0
C241 C 0.19336 0.62145 0.82026 0.0
O242 O 0.23221 0.63946 0.84736 0.0
Co243 Co 0.18568 0.65538 0.85639 0.0
O244 O 0.21094 0.66777 0.83914 0.0
C245 C 0.19849 0.6337 0.90313 0.0
C246 C 0.21929 0.57893 0.86395 0.0
C247 C 0.22934 0.65885 0.83968 0.0
O248 O 0.21107 0.62117 0.89084 0.0
O249 O 0.18588 0.64718 0.89261 0.0
O250 O 0.21005 0.60903 0.81834 0.0
O251 O 0.18813 0.62684 0.84269 0.0
Co252 Co 0.38552 0.21053 0.85388 0.0
O253 O 0.4124 0.19673 0.8604 0.0
O254 O 0.4073 0.23193 0.86079 0.0
C255 C 0.3771 0.19119 0.81978 0.0
O256 O 0.36011 0.2304 0.84726 0.0
Co257 Co 0.34304 0.18422 0.85586 0.0
O258 O 0.33116 0.21 0.83914 0.0
C259 C 0.36545 0.19582 0.90255 0.0
C260 C 0.42035 0.21578 0.86345 0.0
C261 C 0.34059 0.22814 0.83978 0.0
O262 O 0.37803 0.20844 0.89041 0.0
O263 O 0.35172 0.18357 0.89191 0.0
O264 O 0.38988 0.20758 0.81787 0.0
O265 O 0.37162 0.18602 0.84219 0.0
Co266 Co 0.78795 0.3841 0.85304 0.0
O267 O 0.80154 0.41095 0.86021 0.0
O268 O 0.76636 0.4058 0.85949 0.0
C269 C 0.8081 0.37599 0.81945 0.0
O270 O 0.76826 0.35875 0.84555 0.0
Co271 Co 0.81412 0.34155 0.85522 0.0
O272 O 0.7889 0.33003 0.83707 0.0
C273 C 0.80117 0.36329 0.90194 0.0
C274 C 0.78241 0.41888 0.86267 0.0
C275 C 0.77073 0.33942 0.83752 0.0
O276 O 0.78918 0.37632 0.88955 0.0
O277 O 0.81349 0.34947 0.89152 0.0
O278 O 0.79171 0.38874 0.81719 0.0
O279 O 0.81276 0.3703 0.84195 0.0
Co280 Co 0.61571 0.21204 0.13752 0.0
O281 O 0.58912 0.198 0.13033 0.0
O282 O 0.59373 0.23328 0.13078 0.0
C283 C 0.62402 0.19233 0.17141 0.0
O284 O 0.64076 0.23211 0.14494 0.0
Co285 Co 0.6585 0.18634 0.13542 0.0
O286 O 0.66983 0.21188 0.15312 0.0
C287 C 0.63671 0.19887 0.08865 0.0
C288 C 0.58094 0.217 0.12761 0.0
C289 C 0.6602 0.22993 0.15272 0.0
O290 O 0.62358 0.21072 0.10105 0.0
O291 O 0.65066 0.18671 0.09906 0.0
O292 O 0.61099 0.20853 0.17336 0.0
O293 O 0.62982 0.18749 0.14898 0.0
Co294 Co 0.78531 0.61559 0.13964 0.0
O295 O 0.79888 0.58847 0.13411 0.0
O296 O 0.76372 0.5939 0.13304 0.0
C297 C 0.80439 0.62465 0.17368 0.0
O298 O 0.76577 0.64143 0.14518 0.0
Co299 Co 0.81244 0.65753 0.13635 0.0
O300 O 0.78667 0.67026 0.15222 0.0
C301 C 0.80096 0.63394 0.0905 0.0
C302 C 0.7798 0.58069 0.13083 0.0
C303 C 0.76836 0.66113 0.15184 0.0
O304 O 0.78784 0.62215 0.10295 0.0
O305 O 0.81347 0.64767 0.10073 0.0
O306 O 0.78785 0.61207 0.17583 0.0
O307 O 0.80985 0.62944 0.15116 0.0
Co308 Co 0.38305 0.78773 0.13819 0.0
O309 O 0.40983 0.80139 0.13088 0.0
O310 O 0.4048 0.76618 0.13191 0.0
C311 C 0.37491 0.8081 0.17158 0.0
O312 O 0.35785 0.76795 0.14582 0.0
Co313 Co 0.34032 0.81361 0.13596 0.0
O314 O 0.32874 0.7882 0.15368 0.0
C315 C 0.36226 0.80079 0.08932 0.0
C316 C 0.41781 0.78226 0.12857 0.0
C317 C 0.33837 0.77015 0.15344 0.0
O318 O 0.37524 0.78875 0.1017 0.0
O319 O 0.34845 0.81311 0.09973 0.0
O320 O 0.3877 0.79176 0.17401 0.0
O321 O 0.36913 0.81254 0.14906 0.0
Co322 Co 0.21483 0.38359 0.13806 0.0
O323 O 0.20191 0.41071 0.13064 0.0
O324 O 0.23698 0.40469 0.1315 0.0
C325 C 0.19445 0.37612 0.17164 0.0
O326 O 0.23381 0.35773 0.14566 0.0
Co327 Co 0.18742 0.34183 0.13586 0.0
O328 O 0.21244 0.32945 0.15362 0.0
C329 C 0.2008 0.36335 0.08923 0.0
C330 C 0.22123 0.41809 0.12802 0.0
C331 C 0.23084 0.33836 0.15334 0.0
O332 O 0.21341 0.37575 0.10161 0.0
O333 O 0.18796 0.35002 0.09964 0.0
O334 O 0.21115 0.38846 0.1739 0.0
O335 O 0.18968 0.37051 0.14915 0.0
Co336 Co 0.38742 0.20936 0.13882 0.0
O337 O 0.41458 0.19607 0.13251 0.0
O338 O 0.40882 0.23117 0.13218 0.0
C339 C 0.37899 0.18985 0.17279 0.0
O340 O 0.36166 0.22876 0.14531 0.0
Co341 Co 0.34541 0.18235 0.13628 0.0
O342 O 0.33298 0.20786 0.15304 0.0
C343 C 0.3677 0.19482 0.08982 0.0
C344 C 0.42218 0.21528 0.12958 0.0
C345 C 0.34213 0.22616 0.15259 0.0
O346 O 0.38019 0.20734 0.10222 0.0
O347 O 0.35404 0.18233 0.10021 0.0
O348 O 0.39156 0.2064 0.17487 0.0
O349 O 0.37383 0.1846 0.1503 0.0
Co350 Co 0.78666 0.38745 0.138 0.0
O351 O 0.79963 0.41457 0.1307 0.0
O352 O 0.76457 0.4086 0.13136 0.0
C353 C 0.80685 0.37995 0.17175 0.0
O354 O 0.76757 0.36168 0.14558 0.0
Co355 Co 0.81387 0.34551 0.13631 0.0
O356 O 0.78883 0.3335 0.15437 0.0
C357 C 0.80044 0.36657 0.08934 0.0
C358 C 0.78032 0.42203 0.12817 0.0
C359 C 0.77045 0.34245 0.15374 0.0
O360 O 0.78819 0.37948 0.10154 0.0
O361 O 0.81304 0.35311 0.09994 0.0
O362 O 0.79017 0.39235 0.17385 0.0
O363 O 0.81174 0.3743 0.14931 0.0
Co364 Co 0.61125 0.79017 0.13928 0.0
O365 O 0.58402 0.80349 0.13363 0.0
O366 O 0.58986 0.76839 0.13232 0.0
C367 C 0.61998 0.80901 0.17359 0.0
O368 O 0.63725 0.77087 0.1449 0.0
Co369 Co 0.65292 0.81775 0.13652 0.0
O370 O 0.6657 0.7921 0.15263 0.0
C371 C 0.62998 0.80602 0.09033 0.0
C372 C 0.57647 0.78433 0.13017 0.0
C373 C 0.6568 0.77368 0.15198 0.0
O374 O 0.61804 0.79295 0.10267 0.0
O375 O 0.64358 0.81858 0.1007 0.0
O376 O 0.60748 0.79239 0.17543 0.0
O377 O 0.62479 0.81477 0.15117 0.0
Co378 Co 0.21414 0.61064 0.13919 0.0
O379 O 0.20155 0.5833 0.1322 0.0
O380 O 0.23651 0.58991 0.13201 0.0
C381 C 0.19451 0.61795 0.17344 0.0
O382 O 0.23279 0.63682 0.1463 0.0
Co383 Co 0.18591 0.65189 0.13761 0.0
O384 O 0.21093 0.66454 0.15513 0.0
C385 C 0.19918 0.63096 0.09059 0.0
C386 C 0.22095 0.57623 0.12907 0.0
C387 C 0.22952 0.65602 0.15436 0.0
O388 O 0.21189 0.61847 0.10274 0.0
O389 O 0.18635 0.64416 0.10126 0.0
O390 O 0.21138 0.60577 0.17513 0.0
O391 O 0.18903 0.62335 0.15109 0.0
Co392 Co 0.38354 0.78974 0.85329 0.0
O393 O 0.41044 0.80322 0.86048 0.0
O394 O 0.4051 0.76806 0.85993 0.0
C395 C 0.37558 0.80978 0.81956 0.0
O396 O 0.35813 0.77014 0.84584 0.0
Co397 Co 0.34108 0.81612 0.85509 0.0
O398 O 0.32939 0.79075 0.83738 0.0
C399 C 0.36261 0.80326 0.90197 0.0
C400 C 0.41825 0.78405 0.86308 0.0
C401 C 0.33876 0.77256 0.83795 0.0
O402 O 0.37563 0.79115 0.88974 0.0
O403 O 0.34892 0.81562 0.89141 0.0
O404 O 0.38828 0.79333 0.81742 0.0
O405 O 0.36987 0.81455 0.84202 0.0
Co406 Co 0.21323 0.38582 0.85354 0.0
O407 O 0.19996 0.41281 0.86081 0.0
O408 O 0.23508 0.40712 0.86069 0.0
C409 C 0.1935 0.37829 0.81945 0.0
O410 O 0.23254 0.36013 0.84619 0.0
Co411 Co 0.18605 0.34384 0.85482 0.0
O412 O 0.21144 0.33181 0.83744 0.0
C413 C 0.19875 0.36501 0.90192 0.0
C414 C 0.21916 0.42038 0.86384 0.0
C415 C 0.22979 0.34081 0.83823 0.0
O416 O 0.21131 0.37774 0.88991 0.0
O417 O 0.18618 0.35165 0.89114 0.0
O418 O 0.2101 0.39081 0.81764 0.0
O419 O 0.18838 0.37259 0.84179 0.0
Co420 Co 0.61396 0.21131 0.85269 0.0
O421 O 0.58714 0.19763 0.85981 0.0
O422 O 0.59232 0.23281 0.8598 0.0
C423 C 0.62187 0.19174 0.81853 0.0
O424 O 0.63929 0.23107 0.8454 0.0
Co425 Co 0.65645 0.18496 0.85393 0.0
O426 O 0.66798 0.21054 0.83647 0.0
C427 C 0.63524 0.19741 0.90114 0.0
C428 C 0.57925 0.21673 0.86274 0.0
C429 C 0.65862 0.22872 0.83733 0.0
O430 O 0.62203 0.20949 0.88912 0.0
O431 O 0.64894 0.18521 0.89034 0.0
O432 O 0.60909 0.20815 0.81677 0.0
O433 O 0.62765 0.18667 0.84088 0.0
Co434 Co 0.78677 0.61302 0.85482 0.0
O435 O 0.80091 0.58612 0.85997 0.0
O436 O 0.76571 0.59094 0.86189 0.0
C437 C 0.80504 0.62244 0.82028 0.0
O438 O 0.76667 0.63851 0.84976 0.0
Co439 Co 0.81324 0.65546 0.8573 0.0
O440 O 0.78699 0.6676 0.84186 0.0
C441 C 0.80281 0.63194 0.90356 0.0
C442 C 0.78202 0.57797 0.86356 0.0
C443 C 0.76884 0.65819 0.84281 0.0
O444 O 0.78983 0.61971 0.89146 0.0
O445 O 0.81488 0.64586 0.89297 0.0
O446 O 0.78872 0.60954 0.81855 0.0
O447 O 0.81084 0.62731 0.84266 0.0
H448 H 0.22572 0.15563 0.35309 0.0
H449 H 0.19388 0.27466 0.31265 0.0
H450 H 0.26734 0.19959 0.31396 0.0
H451 H 0.15117 0.23319 0.35381 0.0
H452 H 0.21854 0.2448 0.30723 0.0
H453 H 0.19604 0.18115 0.34792 0.0
C454 C 0.22853 0.17045 0.34305 0.0
C455 C 0.24913 0.17564 0.3343 0.0
C456 C 0.20371 0.24209 0.31727 0.0
C457 C 0.21537 0.20484 0.32842 0.0
C458 C 0.1896 0.25918 0.32039 0.0
C459 C 0.17059 0.25652 0.33406 0.0
C460 C 0.19899 0.22213 0.32813 0.0
C461 C 0.16573 0.23598 0.34328 0.0
C462 C 0.21162 0.18503 0.34019 0.0
C463 C 0.25184 0.19505 0.32141 0.0
N464 N 0.18002 0.21962 0.34048 0.0
N465 N 0.23525 0.20897 0.31908 0.0
H466 H 0.72972 0.19351 0.30667 0.0
H467 H 0.84695 0.2286 0.34954 0.0
H468 H 0.77104 0.15313 0.35112 0.0
H469 H 0.80282 0.26868 0.30847 0.0
H470 H 0.82261 0.19812 0.34355 0.0
H471 H 0.75944 0.21819 0.30026 0.0
C472 C 0.74515 0.18972 0.31489 0.0
C473 C 0.7478 0.17144 0.32985 0.0
C474 C 0.81845 0.21352 0.33554 0.0
C475 C 0.78195 0.19986 0.32284 0.0
C476 C 0.83237 0.23091 0.33886 0.0
C477 C 0.8267 0.25131 0.3299 0.0
C478 C 0.79884 0.21663 0.32309 0.0
C479 C 0.80765 0.25335 0.31615 0.0
C480 C 0.76215 0.20383 0.31121 0.0
C481 C 0.76826 0.16715 0.33963 0.0
N482 N 0.79434 0.23631 0.31342 0.0
N483 N 0.78449 0.18147 0.33631 0.0
H484 H 0.8495 0.76987 0.35894 0.0
H485 H 0.73068 0.80239 0.31727 0.0
H486 H 0.805 0.72837 0.32046 0.0
H487 H 0.7715 0.84498 0.35943 0.0
H488 H 0.76028 0.77729 0.31335 0.0
H489 H 0.82369 0.79951 0.35471 0.0
C490 C 0.83447 0.76706 0.34933 0.0
C491 C 0.82927 0.74653 0.34035 0.0
C492 C 0.76292 0.79216 0.32334 0.0
C493 C 0.79983 0.78023 0.33545 0.0
C494 C 0.74597 0.80653 0.32559 0.0
C495 C 0.74852 0.82568 0.33901 0.0
C496 C 0.78265 0.79674 0.33482 0.0
C497 C 0.76883 0.83033 0.34902 0.0
C498 C 0.81974 0.78395 0.347 0.0
C499 C 0.80959 0.7438 0.32805 0.0
N500 N 0.78509 0.8158 0.34702 0.0
N501 N 0.79561 0.76037 0.32612 0.0
H502 H 0.15549 0.77157 0.35134 0.0
H503 H 0.27315 0.80703 0.30975 0.0
H504 H 0.20119 0.73066 0.31386 0.0
H505 H 0.23053 0.84834 0.3513 0.0
H506 H 0.2441 0.78139 0.30457 0.0
H507 H 0.17984 0.80204 0.34525 0.0
C508 C 0.17046 0.76906 0.34149 0.0
C509 C 0.17648 0.74846 0.33348 0.0
C510 C 0.24096 0.79614 0.31462 0.0
C511 C 0.20434 0.78315 0.3265 0.0
C512 C 0.25758 0.81082 0.31759 0.0
C513 C 0.25437 0.82969 0.33136 0.0
C514 C 0.22096 0.80017 0.32575 0.0
C515 C 0.23374 0.8339 0.34071 0.0
C516 C 0.18437 0.78643 0.33809 0.0
C517 C 0.19603 0.74615 0.32077 0.0
N518 N 0.21787 0.81907 0.33808 0.0
N519 N 0.2093 0.7632 0.31789 0.0
H520 H 0.15166 0.77024 0.64026 0.0
H521 H 0.26953 0.80505 0.6816 0.0
H522 H 0.19624 0.7299 0.68031 0.0
H523 H 0.2277 0.846 0.63853 0.0
H524 H 0.24005 0.78003 0.68753 0.0
H525 H 0.17638 0.80053 0.64548 0.0
C526 C 0.16645 0.76783 0.6505 0.0
C527 C 0.17207 0.74741 0.65948 0.0
C528 C 0.23717 0.79457 0.67698 0.0
C529 C 0.20036 0.78189 0.66544 0.0
C530 C 0.25404 0.80888 0.67357 0.0
C531 C 0.25118 0.82747 0.65917 0.0
C532 C 0.21726 0.79865 0.66566 0.0
C533 C 0.23064 0.83177 0.64961 0.0
C534 C 0.18058 0.7851 0.6534 0.0
C535 C 0.1914 0.74524 0.67266 0.0
N536 N 0.21452 0.81728 0.65268 0.0
N537 N 0.20489 0.76218 0.67502 0.0
H538 H 0.27015 0.19503 0.68223 0.0
H539 H 0.15246 0.22955 0.6393 0.0
H540 H 0.22861 0.15363 0.63939 0.0
H541 H 0.19733 0.27065 0.67781 0.0
H542 H 0.17724 0.19935 0.64512 0.0
H543 H 0.24075 0.22034 0.68706 0.0
C544 C 0.25474 0.19115 0.67403 0.0
C545 C 0.25195 0.17234 0.66002 0.0
C546 C 0.18149 0.21493 0.65254 0.0
C547 C 0.21813 0.2015 0.66523 0.0
C548 C 0.16734 0.23216 0.64929 0.0
C549 C 0.17299 0.25274 0.65772 0.0
C550 C 0.20131 0.21835 0.6644 0.0
C551 C 0.19245 0.25517 0.67059 0.0
C552 C 0.23792 0.20564 0.67679 0.0
C553 C 0.2315 0.16801 0.6502 0.0
N554 N 0.20593 0.23826 0.67333 0.0
N555 N 0.21543 0.18267 0.65265 0.0
H556 H 0.73215 0.19332 0.68468 0.0
H557 H 0.84951 0.22738 0.64128 0.0
H558 H 0.77288 0.15263 0.63988 0.0
H559 H 0.80603 0.26767 0.68299 0.0
H560 H 0.82493 0.19709 0.64731 0.0
H561 H 0.76217 0.21762 0.69112 0.0
C562 C 0.74751 0.18938 0.67639 0.0
C563 C 0.74991 0.17113 0.66132 0.0
C564 C 0.82097 0.2125 0.65545 0.0
C565 C 0.7844 0.19913 0.66836 0.0
C566 C 0.83502 0.22977 0.6521 0.0
C567 C 0.8296 0.25018 0.66124 0.0
C568 C 0.80147 0.21572 0.66809 0.0
C569 C 0.81067 0.25233 0.67518 0.0
C570 C 0.76469 0.20328 0.6801 0.0
C571 C 0.7703 0.16663 0.65146 0.0
N572 N 0.79721 0.23541 0.67792 0.0
N573 N 0.7867 0.18076 0.65478 0.0
H574 H 0.79619 0.72108 0.65676 0.0
H575 H 0.76799 0.84459 0.63304 0.0
H576 H 0.84428 0.76667 0.63318 0.0
H577 H 0.72386 0.79666 0.66048 0.0
H578 H 0.79693 0.81773 0.63468 0.0
H579 H 0.77031 0.74984 0.65968 0.0
C580 C 0.80139 0.7372 0.65225 0.0
C581 C 0.8225 0.74136 0.64453 0.0
C582 C 0.78092 0.81325 0.64049 0.0
C583 C 0.79255 0.77476 0.64786 0.0
C584 C 0.76441 0.82856 0.63963 0.0
C585 C 0.74338 0.82285 0.6464 0.0
C586 C 0.77627 0.79219 0.64821 0.0
C587 C 0.7397 0.80184 0.65478 0.0
C588 C 0.78651 0.75372 0.65397 0.0
C589 C 0.82818 0.76271 0.63918 0.0
N590 N 0.75589 0.78735 0.6553 0.0
N591 N 0.81322 0.77865 0.64076 0.0
H592 H 0.69257 0.76867 0.81276 0.0
H593 H 0.72708 0.65158 0.85788 0.0
H594 H 0.65204 0.72896 0.85893 0.0
H595 H 0.76688 0.69469 0.81509 0.0
H596 H 0.69696 0.67668 0.85304 0.0
H597 H 0.71721 0.73877 0.80776 0.0
C598 C 0.68876 0.75355 0.8217 0.0
C599 C 0.6704 0.75141 0.83662 0.0
C600 C 0.71223 0.68046 0.84446 0.0
C601 C 0.6988 0.717 0.83122 0.0
C602 C 0.72939 0.66612 0.84713 0.0
C603 C 0.74961 0.67123 0.83721 0.0
C604 C 0.71538 0.6999 0.83165 0.0
C605 C 0.7517 0.69026 0.82345 0.0
C606 C 0.70286 0.73643 0.81883 0.0
C607 C 0.6661 0.73132 0.84738 0.0
N608 N 0.73489 0.70393 0.82127 0.0
N609 N 0.68041 0.71493 0.8448 0.0
H610 H 0.27184 0.65247 0.85171 0.0
H611 H 0.30257 0.77122 0.80944 0.0
H612 H 0.22957 0.69582 0.81252 0.0
H613 H 0.34543 0.73048 0.85142 0.0
H614 H 0.27832 0.74102 0.804 0.0
H615 H 0.30134 0.67798 0.84559 0.0
C616 C 0.26884 0.66716 0.84147 0.0
C617 C 0.24811 0.6722 0.83302 0.0
C618 C 0.29312 0.73855 0.81419 0.0
C619 C 0.28169 0.70138 0.82603 0.0
C620 C 0.30699 0.75583 0.81732 0.0
C621 C 0.32588 0.75347 0.83129 0.0
C622 C 0.29796 0.71875 0.82538 0.0
C623 C 0.33095 0.73304 0.84068 0.0
C624 C 0.28566 0.68173 0.83806 0.0
C625 C 0.24517 0.69143 0.8198 0.0
N626 N 0.31688 0.71652 0.8379 0.0
N627 N 0.26169 0.70536 0.81695 0.0
H628 H 0.34805 0.27034 0.85241 0.0
H629 H 0.23059 0.30502 0.80908 0.0
H630 H 0.30361 0.22963 0.81272 0.0
H631 H 0.27185 0.34611 0.85267 0.0
H632 H 0.26013 0.27993 0.80385 0.0
H633 H 0.32337 0.30062 0.84656 0.0
C634 C 0.3333 0.26784 0.84213 0.0
C635 C 0.32771 0.24734 0.83341 0.0
C636 C 0.26287 0.29452 0.81436 0.0
C637 C 0.29949 0.2818 0.82672 0.0
C638 C 0.24597 0.30888 0.81735 0.0
C639 C 0.24864 0.32752 0.8317 0.0
C640 C 0.28262 0.29861 0.82604 0.0
C641 C 0.26905 0.33184 0.8416 0.0
C642 C 0.3192 0.28511 0.83887 0.0
C643 C 0.30842 0.24504 0.82017 0.0
N644 N 0.28521 0.3173 0.83894 0.0
N645 N 0.29497 0.26198 0.81745 0.0
H646 H 0.65164 0.27087 0.85047 0.0
H647 H 0.76954 0.30401 0.80776 0.0
H648 H 0.69507 0.23013 0.80928 0.0
H649 H 0.72865 0.34545 0.85143 0.0
H650 H 0.73952 0.27964 0.80168 0.0
H651 H 0.6766 0.3009 0.84474 0.0
C652 C 0.66622 0.26832 0.83986 0.0
C653 C 0.67147 0.24786 0.83074 0.0
C654 C 0.73697 0.29416 0.81238 0.0
C655 C 0.70003 0.28203 0.82421 0.0
C656 C 0.75414 0.3081 0.81588 0.0
C657 C 0.7517 0.3266 0.83051 0.0
C658 C 0.71719 0.29853 0.82388 0.0
C659 C 0.73128 0.33126 0.84018 0.0
C660 C 0.68048 0.28545 0.83667 0.0
C661 C 0.69053 0.2455 0.81707 0.0
N662 N 0.71486 0.31711 0.83705 0.0
N663 N 0.70418 0.26229 0.81446 0.0
H664 H 0.6524 0.27215 0.1406 0.0
H665 H 0.76996 0.30674 0.18307 0.0
H666 H 0.69691 0.23148 0.1803 0.0
H667 H 0.72824 0.34786 0.14006 0.0
H668 H 0.74041 0.28178 0.18892 0.0
H669 H 0.67689 0.3025 0.14672 0.0
C670 C 0.66712 0.26968 0.15097 0.0
C671 C 0.67281 0.24916 0.15955 0.0
C672 C 0.73757 0.29636 0.17841 0.0
C673 C 0.70083 0.2837 0.16652 0.0
C674 C 0.75448 0.31063 0.17505 0.0
C675 C 0.75168 0.32923 0.16066 0.0
C676 C 0.7177 0.30049 0.16704 0.0
C677 C 0.73115 0.33362 0.15112 0.0
C678 C 0.68111 0.28699 0.15438 0.0
C679 C 0.69204 0.2469 0.17293 0.0
N680 N 0.715 0.31915 0.15412 0.0
N681 N 0.70541 0.26387 0.17576 0.0
H682 H 0.72607 0.65425 0.13915 0.0
H683 H 0.69344 0.77312 0.1796 0.0
H684 H 0.76754 0.69873 0.17772 0.0
H685 H 0.6511 0.7315 0.13815 0.0
H686 H 0.71836 0.74346 0.18481 0.0
H687 H 0.69627 0.67966 0.14416 0.0
C688 C 0.72884 0.66917 0.14901 0.0
C689 C 0.74941 0.67453 0.15767 0.0
C690 C 0.70355 0.74067 0.17475 0.0
C691 C 0.71552 0.70358 0.1634 0.0
C692 C 0.68929 0.75765 0.17175 0.0
C693 C 0.67031 0.75488 0.15806 0.0
C694 C 0.699 0.72073 0.16375 0.0
C695 C 0.66563 0.73436 0.1487 0.0
C696 C 0.71185 0.68369 0.15178 0.0
C697 C 0.75206 0.69406 0.17034 0.0
N698 N 0.68006 0.7181 0.15139 0.0
N699 N 0.7354 0.7079 0.17261 0.0
H700 H 0.22918 0.69206 0.18314 0.0
H701 H 0.34683 0.72788 0.14226 0.0
H702 H 0.27189 0.65129 0.14099 0.0
H703 H 0.30101 0.76857 0.17988 0.0
H704 H 0.32261 0.69733 0.14826 0.0
H705 H 0.25825 0.71758 0.18893 0.0
C706 C 0.24477 0.68837 0.17528 0.0
C707 C 0.248 0.66969 0.16115 0.0
C708 C 0.31803 0.7129 0.15548 0.0
C709 C 0.28143 0.69907 0.1675 0.0
C710 C 0.33187 0.73033 0.15214 0.0
C711 C 0.32576 0.7509 0.16019 0.0
C712 C 0.29804 0.71611 0.16703 0.0
C713 C 0.30622 0.7531 0.17295 0.0
C714 C 0.2614 0.70297 0.17862 0.0
C715 C 0.26866 0.66558 0.15183 0.0
N716 N 0.29301 0.736 0.17574 0.0
N717 N 0.28454 0.68035 0.15482 0.0
H718 H 0.23101 0.30198 0.18153 0.0
H719 H 0.34957 0.26858 0.14112 0.0
H720 H 0.2732 0.34401 0.14043 0.0
H721 H 0.3045 0.22696 0.17852 0.0
H722 H 0.32462 0.29861 0.14693 0.0
H723 H 0.2605 0.27688 0.18709 0.0
C724 C 0.24657 0.30604 0.17388 0.0
C725 C 0.24954 0.32496 0.16012 0.0
C726 C 0.32036 0.28295 0.15413 0.0
C727 C 0.28346 0.29605 0.16616 0.0
C728 C 0.33461 0.26582 0.15089 0.0
C729 C 0.32895 0.24514 0.15896 0.0
C730 C 0.30041 0.27933 0.16561 0.0
C731 C 0.30939 0.24251 0.17156 0.0
C732 C 0.26344 0.29167 0.17706 0.0
C733 C 0.27017 0.32953 0.15101 0.0
N734 N 0.29578 0.25933 0.17428 0.0
N735 N 0.2863 0.31499 0.15385 0.0
H736 H 0.94409 0.31414 0.38357 0.0
H737 H 0.0526 0.24954 0.35693 0.0
H738 H 0.9442 0.24938 0.35513 0.0
H739 H 0.04878 0.31601 0.37899 0.0
H740 H 0.01342 0.24669 0.36172 0.0
H741 H 0.98281 0.31245 0.38813 0.0
C742 C 0.95231 0.29947 0.37842 0.0
C743 C 0.94099 0.28198 0.36864 0.0
C744 C 0.02126 0.2618 0.36574 0.0
C745 C 0.98556 0.27999 0.37348 0.0
C746 C 0.04357 0.26341 0.36307 0.0
C747 C 0.05386 0.28311 0.36729 0.0
C748 C 0.00936 0.27998 0.37286 0.0
C749 C 0.04148 0.30059 0.37521 0.0
C750 C 0.97447 0.2985 0.38103 0.0
C751 C 0.95241 0.26325 0.36264 0.0
N752 N 0.01994 0.29863 0.37761 0.0
N753 N 0.97419 0.26283 0.36483 0.0
H754 H 0.75444 0.05457 0.35686 0.0
H755 H 0.68835 0.94695 0.38165 0.0
H756 H 0.68873 0.05157 0.38193 0.0
H757 H 0.75386 0.94612 0.35568 0.0
H758 H 0.69063 0.98551 0.38711 0.0
H759 H 0.75694 0.01533 0.36125 0.0
C760 C 0.74068 0.0457 0.36364 0.0
C761 C 0.72126 0.05624 0.36873 0.0
C762 C 0.70462 0.97701 0.38034 0.0
C763 C 0.72397 0.01166 0.37376 0.0
C764 C 0.7033 0.95494 0.37718 0.0
C765 C 0.72084 0.94341 0.36786 0.0
C766 C 0.72354 0.98785 0.37376 0.0
C767 C 0.73994 0.95452 0.3628 0.0
C768 C 0.7421 0.02335 0.36606 0.0
C769 C 0.70392 0.04407 0.37744 0.0
N770 N 0.74071 0.97627 0.36546 0.0
N771 N 0.70566 0.02248 0.37951 0.0
H772 H 0.05703 0.68682 0.38204 0.0
H773 H 0.94938 0.75338 0.35661 0.0
H774 H 0.05815 0.752 0.35497 0.0
H775 H 0.95268 0.68591 0.3743 0.0
H776 H 0.98863 0.75567 0.36168 0.0
H777 H 0.01829 0.68892 0.38584 0.0
C778 C 0.04908 0.70167 0.37701 0.0
C779 C 0.06075 0.71916 0.36784 0.0
C780 C 0.98065 0.74046 0.36463 0.0
C781 C 0.01614 0.72162 0.37178 0.0
C782 C 0.95832 0.73915 0.3618 0.0
C783 C 0.94786 0.71937 0.36474 0.0
C784 C 0.99237 0.72188 0.3707 0.0
C785 C 0.96011 0.70143 0.37149 0.0
C786 C 0.02691 0.70287 0.37917 0.0
C787 C 0.04965 0.73812 0.362 0.0
N788 N 0.98163 0.70312 0.37414 0.0
N789 N 0.02784 0.73878 0.36374 0.0
H790 H 0.24482 0.94768 0.35448 0.0
H791 H 0.30775 0.05603 0.38615 0.0
H792 H 0.30979 0.95155 0.38188 0.0
H793 H 0.24444 0.05618 0.35364 0.0
H794 H 0.30562 0.01736 0.39094 0.0
H795 H 0.24143 0.98682 0.35967 0.0
C796 C 0.25822 0.95671 0.36192 0.0
C797 C 0.27771 0.94648 0.36746 0.0
C798 C 0.29206 0.02574 0.38289 0.0
C799 C 0.27396 0.99089 0.37348 0.0
C800 C 0.29329 0.04786 0.38015 0.0
C801 C 0.27637 0.05923 0.36916 0.0
C802 C 0.27391 0.0147 0.37418 0.0
C803 C 0.25787 0.04791 0.3621 0.0
C804 C 0.2563 0.97899 0.3648 0.0
C805 C 0.29458 0.95883 0.37702 0.0
N806 N 0.25724 0.02613 0.36437 0.0
N807 N 0.29234 0.98033 0.37958 0.0
H808 H 0.05278 0.68617 0.60966 0.0
H809 H 0.94464 0.75214 0.63497 0.0
H810 H 0.05377 0.75111 0.63748 0.0
H811 H 0.94868 0.68461 0.61783 0.0
H812 H 0.98396 0.75474 0.63017 0.0
H813 H 0.01406 0.68823 0.60582 0.0
C814 C 0.0448 0.70096 0.61483 0.0
C815 C 0.05644 0.71838 0.62423 0.0
C816 C 0.97611 0.73944 0.62729 0.0
C817 C 0.01181 0.72081 0.62029 0.0
C818 C 0.95375 0.73797 0.62997 0.0
C819 C 0.94348 0.71807 0.62709 0.0
C820 C 0.98802 0.72093 0.62139 0.0
C821 C 0.95594 0.70021 0.62059 0.0
C822 C 0.02263 0.70215 0.61267 0.0
C823 C 0.0453 0.73728 0.63026 0.0
N824 N 0.97745 0.70207 0.61805 0.0
N825 N 0.02347 0.73793 0.62852 0.0
H826 H 0.24364 0.94531 0.63526 0.0
H827 H 0.30888 0.05265 0.60582 0.0
H828 H 0.30855 0.9481 0.60751 0.0
H829 H 0.24525 0.05365 0.63744 0.0
H830 H 0.30596 0.01413 0.60008 0.0
H831 H 0.24099 0.98453 0.63048 0.0
C832 C 0.25717 0.95412 0.62781 0.0
C833 C 0.27645 0.94356 0.6221 0.0
C834 C 0.2925 0.02267 0.60814 0.0
C835 C 0.27355 0.98808 0.61656 0.0
C836 C 0.29419 0.04471 0.61142 0.0
C837 C 0.27741 0.05625 0.62245 0.0
C838 C 0.27402 0.01188 0.61634 0.0
C839 C 0.25859 0.04523 0.62898 0.0
C840 C 0.25568 0.97646 0.62516 0.0
C841 C 0.2935 0.95564 0.61252 0.0
N842 N 0.25751 0.02351 0.62619 0.0
N843 N 0.29169 0.9772 0.61022 0.0
H844 H 0.05522 0.24674 0.63399 0.0
H845 H 0.94726 0.31204 0.60677 0.0
H846 H 0.0519 0.31333 0.61226 0.0
H847 H 0.94688 0.24732 0.63534 0.0
H848 H 0.98597 0.31005 0.60221 0.0
H849 H 0.01607 0.2441 0.62874 0.0
C850 C 0.0463 0.26069 0.62782 0.0
C851 C 0.05672 0.28036 0.62385 0.0
C852 C 0.97751 0.29617 0.60934 0.0
C853 C 0.01226 0.27746 0.61775 0.0
C854 C 0.95536 0.29731 0.61193 0.0
C855 C 0.94391 0.27993 0.62178 0.0
C856 C 0.98847 0.2776 0.61696 0.0
C857 C 0.95519 0.26112 0.6278 0.0
C858 C 0.02401 0.25919 0.62489 0.0
C859 C 0.04449 0.29793 0.61587 0.0
N860 N 0.97697 0.26054 0.62563 0.0
N861 N 0.02297 0.29607 0.61321 0.0
H862 H 0.75446 0.05384 0.63582 0.0
H863 H 0.68588 0.94738 0.61385 0.0
H864 H 0.68879 0.05184 0.61049 0.0
H865 H 0.75232 0.94505 0.63624 0.0
H866 H 0.68869 0.98587 0.60858 0.0
H867 H 0.75612 0.01447 0.63229 0.0
C868 C 0.74054 0.04516 0.62917 0.0
C869 C 0.72136 0.05604 0.62374 0.0
C870 C 0.70278 0.97708 0.61452 0.0
C871 C 0.72313 0.01132 0.61971 0.0
C872 C 0.70115 0.95503 0.6176 0.0
C873 C 0.71882 0.94307 0.6258 0.0
C874 C 0.72217 0.98751 0.62005 0.0
C875 C 0.7383 0.95379 0.62997 0.0
C876 C 0.74148 0.02274 0.62723 0.0
C877 C 0.7038 0.0441 0.61522 0.0
N878 N 0.73941 0.97554 0.62738 0.0
N879 N 0.70508 0.02246 0.61364 0.0
H880 H 0.55065 0.81358 0.88267 0.0
H881 H 0.44293 0.74764 0.85747 0.0
H882 H 0.55132 0.74782 0.85758 0.0
H883 H 0.44593 0.8138 0.88096 0.0
H884 H 0.48212 0.74512 0.86232 0.0
H885 H 0.51199 0.81163 0.88747 0.0
C886 C 0.5426 0.79864 0.87829 0.0
C887 C 0.55413 0.78093 0.8694 0.0
C888 C 0.47411 0.76008 0.86667 0.0
C889 C 0.50959 0.7786 0.87452 0.0
C890 C 0.45178 0.76151 0.86397 0.0
C891 C 0.44126 0.78104 0.86852 0.0
C892 C 0.48579 0.77829 0.87409 0.0
C893 C 0.45342 0.79851 0.8769 0.0
C894 C 0.52048 0.79751 0.88105 0.0
C895 C 0.54294 0.76186 0.86439 0.0
N896 N 0.47498 0.79675 0.87925 0.0
N897 N 0.52116 0.76127 0.86667 0.0
H898 H 0.19068 0.44674 0.88635 0.0
H899 H 0.2556 0.55435 0.85696 0.0
H900 H 0.25444 0.44597 0.85508 0.0
H901 H 0.19032 0.55133 0.88349 0.0
H902 H 0.25835 0.51515 0.86189 0.0
H903 H 0.19331 0.48533 0.89173 0.0
C904 C 0.20534 0.45474 0.88076 0.0
C905 C 0.22224 0.44324 0.86993 0.0
C906 C 0.24355 0.52317 0.8669 0.0
C907 C 0.22529 0.48768 0.87563 0.0
C908 C 0.242 0.54549 0.86416 0.0
C909 C 0.2226 0.55599 0.86951 0.0
C910 C 0.22562 0.51149 0.87522 0.0
C911 C 0.20547 0.54384 0.87877 0.0
C912 C 0.20685 0.47682 0.88383 0.0
C913 C 0.24101 0.45435 0.8634 0.0
N914 N 0.20735 0.52229 0.88118 0.0
N915 N 0.24193 0.47609 0.86599 0.0
H916 H 0.44712 0.18612 0.88318 0.0
H917 H 0.55423 0.25291 0.85708 0.0
H918 H 0.44589 0.25136 0.85632 0.0
H919 H 0.55188 0.1868 0.88084 0.0
H920 H 0.51501 0.25506 0.86193 0.0
H921 H 0.48577 0.18856 0.88808 0.0
C922 C 0.45503 0.20105 0.87844 0.0
C923 C 0.44336 0.21847 0.86902 0.0
C924 C 0.52317 0.24019 0.86634 0.0
C925 C 0.48786 0.22134 0.87424 0.0
C926 C 0.54551 0.23898 0.86365 0.0
C927 C 0.55623 0.21956 0.86827 0.0
C928 C 0.51167 0.22189 0.87384 0.0
C929 C 0.54424 0.202 0.87672 0.0
C930 C 0.47715 0.20246 0.88125 0.0
C931 C 0.45438 0.23753 0.86354 0.0
N932 N 0.52266 0.20356 0.87907 0.0
N933 N 0.47614 0.23839 0.86589 0.0
H934 H 0.74609 0.44371 0.85705 0.0
H935 H 0.81249 0.55128 0.88167 0.0
H936 H 0.81231 0.44651 0.88029 0.0
H937 H 0.74649 0.55214 0.85742 0.0
H938 H 0.81052 0.5126 0.88629 0.0
H939 H 0.74376 0.48293 0.86175 0.0
C940 C 0.76001 0.45253 0.86346 0.0
C941 C 0.77951 0.44193 0.86799 0.0
C942 C 0.79635 0.52114 0.88009 0.0
C943 C 0.77697 0.48649 0.87338 0.0
C944 C 0.79749 0.54328 0.87743 0.0
C945 C 0.77971 0.55487 0.86884 0.0
C946 C 0.77736 0.5103 0.87378 0.0
C947 C 0.7606 0.54372 0.86399 0.0
C948 C 0.75869 0.47487 0.86607 0.0
C949 C 0.79705 0.45404 0.87625 0.0
N950 N 0.75999 0.52193 0.86619 0.0
N951 N 0.79539 0.47562 0.87852 0.0
H952 H 0.4465 0.25194 0.13485 0.0
H953 H 0.55472 0.18742 0.10679 0.0
H954 H 0.45011 0.18567 0.11191 0.0
H955 H 0.55484 0.25201 0.13572 0.0
H956 H 0.51601 0.18927 0.10222 0.0
H957 H 0.48562 0.25485 0.12955 0.0
C958 C 0.45548 0.23812 0.1284 0.0
C959 C 0.44515 0.21845 0.12411 0.0
C960 C 0.52441 0.20315 0.10943 0.0
C961 C 0.48958 0.22167 0.11796 0.0
C962 C 0.54655 0.20209 0.11204 0.0
C963 C 0.55792 0.21947 0.12198 0.0
C964 C 0.51337 0.22164 0.11716 0.0
C965 C 0.54658 0.23822 0.1281 0.0
C966 C 0.47775 0.23978 0.12544 0.0
C967 C 0.45745 0.20106 0.11577 0.0
N968 N 0.5248 0.23872 0.12593 0.0
N969 N 0.47896 0.20306 0.11311 0.0
H970 H 0.80906 0.55446 0.10959 0.0
H971 H 0.74404 0.44645 0.13593 0.0
H972 H 0.74448 0.55485 0.13853 0.0
H973 H 0.80905 0.44986 0.1086 0.0
H974 H 0.74127 0.48571 0.13191 0.0
H975 H 0.80668 0.51595 0.10367 0.0
C976 C 0.79429 0.54638 0.11461 0.0
C977 C 0.77706 0.55776 0.1249 0.0
C978 C 0.75601 0.47777 0.12651 0.0
C979 C 0.77425 0.51339 0.1185 0.0
C980 C 0.75757 0.45542 0.12872 0.0
C981 C 0.77691 0.445 0.1229 0.0
C982 C 0.77389 0.48958 0.11828 0.0
C983 C 0.79396 0.45727 0.11366 0.0
C984 C 0.7929 0.52434 0.11119 0.0
C985 C 0.75817 0.54656 0.13066 0.0
N986 N 0.79208 0.47886 0.1118 0.0
N987 N 0.75735 0.52484 0.12773 0.0
H988 H 0.44294 0.74639 0.13574 0.0
H989 H 0.54971 0.81346 0.10956 0.0
H990 H 0.44507 0.8118 0.10949 0.0
H991 H 0.55124 0.74855 0.13744 0.0
H992 H 0.51119 0.81057 0.10395 0.0
H993 H 0.4822 0.74435 0.13139 0.0
C994 C 0.45163 0.76017 0.12872 0.0
C995 C 0.44084 0.77939 0.12329 0.0
C996 C 0.51984 0.79683 0.11116 0.0
C997 C 0.48543 0.77719 0.11827 0.0
C998 C 0.54188 0.79851 0.1144 0.0
C999 C 0.55358 0.78132 0.12431 0.0
C1000 C 0.50922 0.77793 0.11827 0.0
C1001 C 0.5427 0.7622 0.12986 0.0
C1002 C 0.47398 0.75902 0.12631 0.0
C1003 C 0.45277 0.79677 0.11426 0.0
N1004 N 0.52098 0.76109 0.12711 0.0
N1005 N 0.47437 0.79529 0.1122 0.0
H1006 H 0.19367 0.44432 0.10389 0.0
H1007 H 0.25734 0.55191 0.13661 0.0
H1008 H 0.25626 0.4436 0.13821 0.0
H1009 H 0.19273 0.54874 0.10799 0.0
H1010 H 0.2605 0.51279 0.13113 0.0
H1011 H 0.19654 0.48289 0.09845 0.0
C1012 C 0.20813 0.45234 0.11014 0.0
C1013 C 0.22461 0.44087 0.12186 0.0
C1014 C 0.24577 0.52077 0.12577 0.0
C1015 C 0.2279 0.48527 0.11613 0.0
C1016 C 0.24399 0.54304 0.12882 0.0
C1017 C 0.22463 0.55344 0.12307 0.0
C1018 C 0.22812 0.50906 0.11672 0.0
C1019 C 0.20782 0.5413 0.11304 0.0
C1020 C 0.20978 0.4744 0.10703 0.0
C1021 C 0.24315 0.45197 0.12921 0.0
N1022 N 0.20992 0.5198 0.11034 0.0
N1023 N 0.24418 0.4737 0.1266 0.0
H1024 H 0.10675 0.28074 0.43301 0.0
H1025 H 0.15408 0.33243 0.55812 0.0
H1026 H 0.15195 0.33325 0.43526 0.0
H1027 H 0.1096 0.27926 0.55848 0.0
H1028 H 0.15199 0.33352 0.5129 0.0
H1029 H 0.10609 0.28055 0.47874 0.0
C1030 C 0.11647 0.29226 0.44305 0.0
C1031 C 0.12954 0.30694 0.4302 0.0
C1032 C 0.14265 0.32159 0.5228 0.0
C1033 C 0.12883 0.30679 0.48244 0.0
C1034 C 0.14386 0.32093 0.54871 0.0
C1035 C 0.13211 0.30562 0.56221 0.0
C1036 C 0.12965 0.30682 0.51009 0.0
C1037 C 0.11901 0.29129 0.54886 0.0
C1038 C 0.11609 0.29212 0.46915 0.0
C1039 C 0.14174 0.32152 0.44425 0.0
N1040 N 0.1182 0.29218 0.52349 0.0
N1041 N 0.14111 0.32102 0.46954 0.0
H1042 H 0.72387 0.10845 0.5585 0.0
H1043 H 0.67568 0.16041 0.43384 0.0
H1044 H 0.67791 0.16036 0.55676 0.0
H1045 H 0.72244 0.10921 0.43282 0.0
H1046 H 0.67649 0.16003 0.47913 0.0
H1047 H 0.7238 0.10798 0.51274 0.0
C1048 C 0.71379 0.11974 0.54857 0.0
C1049 C 0.70088 0.13448 0.5616 0.0
C1050 C 0.68661 0.14886 0.46907 0.0
C1051 C 0.70073 0.13397 0.5093 0.0
C1052 C 0.68615 0.14905 0.4431 0.0
C1053 C 0.69903 0.13483 0.42937 0.0
C1054 C 0.70003 0.13434 0.48162 0.0
C1055 C 0.71224 0.12049 0.44259 0.0
C1056 C 0.71376 0.11945 0.52245 0.0
C1057 C 0.68815 0.1487 0.54767 0.0
N1058 N 0.71241 0.12061 0.46801 0.0
N1059 N 0.6884 0.14807 0.52237 0.0
H1060 H 0.89763 0.7186 0.43296 0.0
H1061 H 0.86013 0.65636 0.55583 0.0
H1062 H 0.85896 0.66108 0.43316 0.0
H1063 H 0.89451 0.71652 0.5577 0.0
H1064 H 0.86408 0.65556 0.51068 0.0
H1065 H 0.90089 0.71591 0.4784 0.0
C1066 C 0.88993 0.70535 0.44249 0.0
C1067 C 0.87772 0.69023 0.42922 0.0
C1068 C 0.87086 0.66891 0.52094 0.0
C1069 C 0.88146 0.68705 0.4811 0.0
C1070 C 0.86859 0.66939 0.54678 0.0
C1071 C 0.87667 0.68673 0.56059 0.0
C1072 C 0.88117 0.68594 0.5087 0.0
C1073 C 0.88782 0.70294 0.54779 0.0
C1074 C 0.89181 0.70384 0.46842 0.0
C1075 C 0.86827 0.67331 0.44257 0.0
N1076 N 0.88954 0.70228 0.5225 0.0
N1077 N 0.87024 0.67227 0.46774 0.0
H1078 H 0.3266 0.8436 0.55674 0.0
H1079 H 0.27658 0.89342 0.43198 0.0
H1080 H 0.27572 0.89072 0.55761 0.0
H1081 H 0.3277 0.84657 0.43401 0.0
H1082 H 0.27596 0.89341 0.47773 0.0
H1083 H 0.32709 0.84522 0.51151 0.0
C1084 C 0.31548 0.8543 0.54745 0.0
C1085 C 0.30104 0.867 0.56111 0.0
C1086 C 0.2873 0.88318 0.46808 0.0
C1087 C 0.30155 0.86893 0.50894 0.0
C1088 C 0.28769 0.88317 0.44197 0.0
C1089 C 0.30217 0.86991 0.42905 0.0
C1090 C 0.30151 0.86986 0.4813 0.0
C1091 C 0.31618 0.85701 0.44304 0.0
C1092 C 0.31579 0.85523 0.52152 0.0
C1093 C 0.2871 0.8806 0.54787 0.0
N1094 N 0.31546 0.85731 0.46832 0.0
N1095 N 0.28767 0.88119 0.52248 0.0
H1096 H 0.11235 0.72231 0.43315 0.0
H1097 H 0.15786 0.67017 0.55897 0.0
H1098 H 0.16103 0.67299 0.43618 0.0
H1099 H 0.11094 0.72124 0.55881 0.0
H1100 H 0.15786 0.67048 0.51369 0.0
H1101 H 0.11042 0.72175 0.47883 0.0
C1102 C 0.12262 0.71137 0.44335 0.0
C1103 C 0.13694 0.69772 0.43072 0.0
C1104 C 0.14753 0.68165 0.52348 0.0
C1105 C 0.13473 0.697 0.48293 0.0
C1106 C 0.14752 0.68149 0.54945 0.0
C1107 C 0.13446 0.69579 0.56284 0.0
C1108 C 0.13442 0.69622 0.51059 0.0
C1109 C 0.12132 0.70995 0.54929 0.0
C1110 C 0.1215 0.71107 0.46943 0.0
C1111 C 0.1498 0.68388 0.44498 0.0
N1112 N 0.12168 0.70986 0.52387 0.0
N1113 N 0.14838 0.68389 0.47024 0.0
H1114 H 0.27416 0.11118 0.43367 0.0
H1115 H 0.32812 0.156 0.55874 0.0
H1116 H 0.325 0.15827 0.43595 0.0
H1117 H 0.27586 0.11047 0.55919 0.0
H1118 H 0.32767 0.15568 0.51345 0.0
H1119 H 0.27493 0.1095 0.47936 0.0
C1120 C 0.28547 0.12115 0.44371 0.0
C1121 C 0.29948 0.13496 0.43088 0.0
C1122 C 0.31627 0.14573 0.52339 0.0
C1123 C 0.30044 0.13304 0.48306 0.0
C1124 C 0.31651 0.14591 0.54935 0.0
C1125 C 0.30192 0.13332 0.5629 0.0
C1126 C 0.30132 0.13293 0.5107 0.0
C1127 C 0.28737 0.12048 0.54954 0.0
C1128 C 0.2859 0.12017 0.46978 0.0
C1129 C 0.31382 0.14745 0.44492 0.0
N1130 N 0.28739 0.12066 0.52414 0.0
N1131 N 0.3139 0.14619 0.47018 0.0
H1132 H 0.83538 0.32249 0.4344 0.0
H1133 H 0.8908 0.2766 0.55814 0.0
H1134 H 0.88846 0.27789 0.43249 0.0
H1135 H 0.83793 0.32148 0.55716 0.0
H1136 H 0.8904 0.27624 0.51238 0.0
H1137 H 0.83631 0.32166 0.47966 0.0
C1138 C 0.84726 0.31248 0.44346 0.0
C1139 C 0.86188 0.30025 0.4295 0.0
C1140 C 0.87891 0.28613 0.52226 0.0
C1141 C 0.86302 0.29924 0.4817 0.0
C1142 C 0.87911 0.28635 0.54838 0.0
C1143 C 0.86438 0.29909 0.5616 0.0
C1144 C 0.86388 0.29874 0.50934 0.0
C1145 C 0.84963 0.3114 0.5479 0.0
C1146 C 0.84778 0.31202 0.46941 0.0
C1147 C 0.87687 0.28759 0.44246 0.0
N1148 N 0.84978 0.3109 0.52261 0.0
N1149 N 0.87707 0.28742 0.46787 0.0
H1150 H 0.65909 0.85529 0.55705 0.0
H1151 H 0.72012 0.89343 0.43357 0.0
H1152 H 0.7173 0.8929 0.55833 0.0
H1153 H 0.66501 0.85138 0.43434 0.0
H1154 H 0.71722 0.89701 0.47893 0.0
H1155 H 0.65873 0.85767 0.51174 0.0
C1156 C 0.67177 0.86414 0.54783 0.0
C1157 C 0.68844 0.87362 0.56155 0.0
C1158 C 0.70574 0.88708 0.4691 0.0
C1159 C 0.68816 0.87632 0.5095 0.0
C1160 C 0.70738 0.885 0.44322 0.0
C1161 C 0.69295 0.87186 0.43012 0.0
C1162 C 0.68952 0.87599 0.48193 0.0
C1163 C 0.67667 0.86148 0.44361 0.0
C1164 C 0.67155 0.86549 0.52191 0.0
C1165 C 0.70424 0.88516 0.54852 0.0
N1166 N 0.67548 0.8637 0.46875 0.0
N1167 N 0.70382 0.88601 0.52317 0.0
H1168 H 0.60508 0.78055 0.05997 0.0
H1169 H 0.65141 0.83275 0.93472 0.0
H1170 H 0.65096 0.83248 0.05776 0.0
H1171 H 0.60678 0.77971 0.93479 0.0
H1172 H 0.64957 0.8339 0.97998 0.0
H1173 H 0.60372 0.78099 0.01431 0.0
C1174 C 0.61483 0.79207 0.04995 0.0
C1175 C 0.62829 0.80639 0.06278 0.0
C1176 C 0.64014 0.822 0.97015 0.0
C1177 C 0.62675 0.80697 0.0106 0.0
C1178 C 0.64119 0.82131 0.94423 0.0
C1179 C 0.62937 0.80598 0.93086 0.0
C1180 C 0.62722 0.80722 0.98297 0.0
C1181 C 0.61626 0.79174 0.94431 0.0
C1182 C 0.61403 0.79231 0.02388 0.0
C1183 C 0.64046 0.82102 0.04876 0.0
N1184 N 0.61562 0.79264 0.96967 0.0
N1185 N 0.63943 0.82087 0.02348 0.0
H1186 H 0.17342 0.65655 0.93549 0.0
H1187 H 0.22445 0.60633 0.05954 0.0
H1188 H 0.22358 0.60867 0.93397 0.0
H1189 H 0.17432 0.65425 0.05842 0.0
H1190 H 0.22443 0.60629 0.01379 0.0
H1191 H 0.17362 0.65521 0.98076 0.0
C1192 C 0.18452 0.64573 0.94464 0.0
C1193 C 0.19855 0.63274 0.93077 0.0
C1194 C 0.21345 0.61678 0.02363 0.0
C1195 C 0.19884 0.63114 0.98299 0.0
C1196 C 0.21344 0.61682 0.04974 0.0
C1197 C 0.1994 0.63036 0.06293 0.0
C1198 C 0.19932 0.63035 0.01065 0.0
C1199 C 0.18548 0.64356 0.04918 0.0
C1200 C 0.18461 0.64497 0.97059 0.0
C1201 C 0.21249 0.61901 0.94385 0.0
N1202 N 0.18583 0.64322 0.02388 0.0
N1203 N 0.21231 0.61859 0.96925 0.0
H1204 H 0.39241 0.22039 0.05925 0.0
H1205 H 0.34353 0.16959 0.93445 0.0
H1206 H 0.34544 0.16944 0.0573 0.0
H1207 H 0.3902 0.22084 0.93371 0.0
H1208 H 0.34512 0.16906 0.97969 0.0
H1209 H 0.3929 0.22051 0.01351 0.0
C1210 C 0.38225 0.20921 0.04927 0.0
C1211 C 0.36878 0.19495 0.06221 0.0
C1212 C 0.35505 0.18044 0.9697 0.0
C1213 C 0.36931 0.19503 0.00996 0.0
C1214 C 0.35413 0.18078 0.94377 0.0
C1215 C 0.36667 0.19536 0.93015 0.0
C1216 C 0.36857 0.19481 0.98232 0.0
C1217 C 0.38019 0.20935 0.94342 0.0
C1218 C 0.38254 0.2093 0.02317 0.0
C1219 C 0.35601 0.18081 0.04824 0.0
N1220 N 0.38074 0.20878 0.96881 0.0
N1221 N 0.35658 0.18125 0.02296 0.0
H1222 H 0.77583 0.39187 0.05825 0.0
H1223 H 0.82473 0.3391 0.93447 0.0
H1224 H 0.82413 0.34211 0.05722 0.0
H1225 H 0.77693 0.38933 0.93257 0.0
H1226 H 0.8243 0.34042 0.97972 0.0
H1227 H 0.77563 0.3916 0.01248 0.0
C1228 C 0.78638 0.38091 0.04847 0.0
C1229 C 0.79999 0.36696 0.06169 0.0
C1230 C 0.81387 0.35118 0.96948 0.0
C1231 C 0.79982 0.36662 0.00942 0.0
C1232 C 0.81409 0.35043 0.94353 0.0
C1233 C 0.80082 0.36411 0.92957 0.0
C1234 C 0.80027 0.36569 0.98177 0.0
C1235 C 0.78743 0.37846 0.94254 0.0
C1236 C 0.78625 0.38078 0.02235 0.0
C1237 C 0.81332 0.35314 0.04797 0.0
N1238 N 0.78749 0.37887 0.96794 0.0
N1239 N 0.81288 0.35334 0.02268 0.0
H1240 H 0.61012 0.22265 0.05823 0.0
H1241 H 0.66001 0.17367 0.93292 0.0
H1242 H 0.6612 0.1758 0.05587 0.0
H1243 H 0.60986 0.22157 0.93262 0.0
H1244 H 0.65992 0.17424 0.9782 0.0
H1245 H 0.60916 0.22254 0.01251 0.0
C1246 C 0.62113 0.21236 0.04817 0.0
C1247 C 0.63579 0.19922 0.061 0.0
C1248 C 0.64891 0.18466 0.9683 0.0
C1249 C 0.6347 0.19902 0.00874 0.0
C1250 C 0.64894 0.18435 0.94234 0.0
C1251 C 0.63494 0.19764 0.92881 0.0
C1252 C 0.63479 0.19836 0.98106 0.0
C1253 C 0.62095 0.21106 0.94224 0.0
C1254 C 0.62056 0.21231 0.02207 0.0
C1255 C 0.64963 0.18622 0.04691 0.0
N1256 N 0.62125 0.2111 0.96765 0.0
N1257 N 0.64873 0.18646 0.02162 0.0
H1258 H 0.77555 0.60885 0.06023 0.0
H1259 H 0.83083 0.65186 0.93515 0.0
H1260 H 0.82802 0.65411 0.05796 0.0
H1261 H 0.77677 0.60848 0.93486 0.0
H1262 H 0.83114 0.65073 0.98044 0.0
H1263 H 0.77675 0.60657 0.01461 0.0
C1264 C 0.78733 0.61827 0.0502 0.0
C1265 C 0.8016 0.63183 0.063 0.0
C1266 C 0.8192 0.64141 0.97053 0.0
C1267 C 0.80307 0.62921 0.01089 0.0
C1268 C 0.819 0.64205 0.94459 0.0
C1269 C 0.80361 0.6304 0.9311 0.0
C1270 C 0.80387 0.62908 0.98327 0.0
C1271 C 0.78886 0.61781 0.94448 0.0
C1272 C 0.788 0.61694 0.02417 0.0
C1273 C 0.81658 0.64356 0.04899 0.0
N1274 N 0.78927 0.61758 0.96987 0.0
N1275 N 0.81687 0.642 0.02375 0.0
H1276 H 0.33872 0.82744 0.93417 0.0
H1277 H 0.38823 0.77654 0.05862 0.0
H1278 H 0.38769 0.77833 0.93293 0.0
H1279 H 0.33828 0.82463 0.05688 0.0
H1280 H 0.38902 0.77691 0.01287 0.0
H1281 H 0.33921 0.82664 0.97942 0.0
C1282 C 0.34961 0.81644 0.94338 0.0
C1283 C 0.36315 0.80288 0.92961 0.0
C1284 C 0.37791 0.78735 0.02258 0.0
C1285 C 0.36376 0.80189 0.98181 0.0
C1286 C 0.37744 0.78715 0.04869 0.0
C1287 C 0.36314 0.80054 0.06169 0.0
C1288 C 0.36402 0.80106 0.00945 0.0
C1289 C 0.34956 0.81397 0.04779 0.0
C1290 C 0.34987 0.816 0.96933 0.0
C1291 C 0.37694 0.78906 0.94276 0.0
N1292 N 0.35036 0.81387 0.02251 0.0
N1293 N 0.37687 0.78889 0.96817 0.0
H1294 H 0.17328 0.34211 0.93374 0.0
H1295 H 0.22591 0.3886 0.05876 0.0
H1296 H 0.22437 0.38897 0.93325 0.0
H1297 H 0.17595 0.34058 0.05661 0.0
H1298 H 0.22547 0.38981 0.01305 0.0
H1299 H 0.17384 0.34235 0.97903 0.0
C1300 C 0.18466 0.35248 0.94312 0.0
C1301 C 0.19887 0.36548 0.92956 0.0
C1302 C 0.21463 0.37903 0.02266 0.0
C1303 C 0.19958 0.3658 0.98176 0.0
C1304 C 0.21487 0.37831 0.04874 0.0
C1305 C 0.20098 0.36441 0.06162 0.0
C1306 C 0.20039 0.3658 0.0094 0.0
C1307 C 0.187 0.35151 0.0476 0.0
C1308 C 0.18496 0.35261 0.96908 0.0
C1309 C 0.21314 0.37864 0.94291 0.0
N1310 N 0.18708 0.35253 0.02233 0.0
N1311 N 0.21317 0.37843 0.96831 0.0
H1312 H 0.16079 0.34826 0.17112 0.0
H1313 H 0.14919 0.34447 0.31972 0.0
H1314 H 0.20135 0.38419 0.2213 0.0
H1315 H 0.11454 0.30256 0.26984 0.0
H1316 H 0.16666 0.36104 0.28381 0.0
H1317 H 0.14196 0.33319 0.20697 0.0
C1318 C 0.16572 0.35301 0.18971 0.0
C1319 C 0.18271 0.36744 0.19328 0.0
C1320 C 0.15522 0.34825 0.28069 0.0
C1321 C 0.16117 0.35027 0.2344 0.0
C1322 C 0.14521 0.33879 0.30118 0.0
C1323 C 0.13045 0.32206 0.29773 0.0
C1324 C 0.15039 0.34098 0.25654 0.0
C1325 C 0.12586 0.31539 0.27331 0.0
C1326 C 0.15496 0.34438 0.21017 0.0
C1327 C 0.18836 0.37308 0.21775 0.0
N1328 N 0.13583 0.32486 0.25362 0.0
N1329 N 0.17761 0.36445 0.23741 0.0
H1330 H 0.61518 0.1996 0.22074 0.0
H1331 H 0.70098 0.11362 0.26974 0.0
H1332 H 0.6534 0.15987 0.17196 0.0
H1333 H 0.6593 0.14998 0.31825 0.0
H1334 H 0.6836 0.13019 0.23358 0.0
H1335 H 0.63107 0.18146 0.25677 0.0
C1336 C 0.62688 0.18703 0.21762 0.0
C1337 C 0.63303 0.18126 0.19336 0.0
C1338 C 0.67821 0.13448 0.25214 0.0
C1339 C 0.65131 0.16048 0.23442 0.0
C1340 C 0.68813 0.12503 0.27276 0.0
C1341 C 0.68161 0.13049 0.297 0.0
C1342 C 0.66172 0.14956 0.25582 0.0
C1343 C 0.66487 0.14535 0.29988 0.0
C1344 C 0.63594 0.17667 0.23818 0.0
C1345 C 0.64824 0.16485 0.19037 0.0
N1346 N 0.65556 0.15442 0.27954 0.0
N1347 N 0.65691 0.15508 0.21066 0.0
H1348 H 0.79638 0.61788 0.22336 0.0
H1349 H 0.88335 0.704 0.26891 0.0
H1350 H 0.83696 0.65375 0.17314 0.0
H1351 H 0.85036 0.66064 0.31866 0.0
H1352 H 0.86502 0.68719 0.23352 0.0
H1353 H 0.81456 0.63483 0.25876 0.0
C1354 C 0.80912 0.6293 0.21981 0.0
C1355 C 0.81519 0.63442 0.19533 0.0
C1356 C 0.86183 0.68135 0.25219 0.0
C1357 C 0.83596 0.65389 0.23558 0.0
C1358 C 0.87227 0.69095 0.27236 0.0
C1359 C 0.86836 0.68369 0.2967 0.0
C1360 C 0.84733 0.66447 0.25647 0.0
C1361 C 0.85384 0.66674 0.30018 0.0
C1362 C 0.81949 0.63895 0.23998 0.0
C1363 C 0.83177 0.64933 0.19173 0.0
N1364 N 0.84382 0.65774 0.28029 0.0
N1365 N 0.84155 0.65858 0.21163 0.0
H1366 H 0.34621 0.84107 0.1707 0.0
H1367 H 0.34237 0.85383 0.31916 0.0
H1368 H 0.38335 0.80198 0.2213 0.0
H1369 H 0.29959 0.88714 0.26901 0.0
H1370 H 0.35948 0.83669 0.28339 0.0
H1371 H 0.33085 0.85998 0.20633 0.0
C1372 C 0.35116 0.83648 0.18934 0.0
C1373 C 0.36601 0.81987 0.19309 0.0
C1374 C 0.34639 0.84778 0.28018 0.0
C1375 C 0.34851 0.84151 0.23396 0.0
C1376 C 0.33661 0.8576 0.30059 0.0
C1377 C 0.31946 0.87186 0.29702 0.0
C1378 C 0.339 0.85227 0.25599 0.0
C1379 C 0.31273 0.87621 0.27257 0.0
C1380 C 0.34237 0.84729 0.20967 0.0
C1381 C 0.3719 0.81465 0.21761 0.0
N1382 N 0.3225 0.86641 0.25295 0.0
N1383 N 0.3631 0.82544 0.23715 0.0
H1384 H 0.20162 0.61395 0.77081 0.0
H1385 H 0.11496 0.69946 0.72274 0.0
H1386 H 0.16013 0.64992 0.81992 0.0
H1387 H 0.15162 0.65845 0.67376 0.0
H1388 H 0.13157 0.68178 0.75871 0.0
H1389 H 0.18372 0.63037 0.73491 0.0
C1390 C 0.18871 0.62525 0.77402 0.0
C1391 C 0.18238 0.63062 0.79834 0.0
C1392 C 0.13592 0.67662 0.74008 0.0
C1393 C 0.16188 0.64952 0.75747 0.0
C1394 C 0.12645 0.68671 0.71957 0.0
C1395 C 0.13196 0.68044 0.69527 0.0
C1396 C 0.15106 0.66022 0.73621 0.0
C1397 C 0.14694 0.66383 0.6922 0.0
C1398 C 0.17849 0.63462 0.75355 0.0
C1399 C 0.16555 0.64535 0.80147 0.0
N1400 N 0.15601 0.65434 0.71242 0.0
N1401 N 0.15594 0.65434 0.78127 0.0
H1402 H 0.2979 0.11383 0.7226 0.0
H1403 H 0.38487 0.19908 0.77028 0.0
H1404 H 0.3401 0.14898 0.67352 0.0
H1405 H 0.34801 0.15856 0.81958 0.0
H1406 H 0.36828 0.18121 0.73447 0.0
H1407 H 0.31576 0.13032 0.75851 0.0
C1408 C 0.31096 0.12495 0.7194 0.0
C1409 C 0.31749 0.1301 0.69509 0.0
C1410 C 0.36387 0.17619 0.75313 0.0
C1411 C 0.33791 0.14907 0.73594 0.0
C1412 C 0.37333 0.1864 0.77355 0.0
C1413 C 0.36776 0.18032 0.79789 0.0
C1414 C 0.34869 0.15987 0.75713 0.0
C1415 C 0.35273 0.16378 0.8011 0.0
C1416 C 0.32115 0.13436 0.73987 0.0
C1417 C 0.3345 0.14461 0.69196 0.0
N1418 N 0.34366 0.15418 0.78096 0.0
N1419 N 0.34406 0.15364 0.71214 0.0
H1420 H 0.84944 0.34056 0.67107 0.0
H1421 H 0.84135 0.34756 0.81987 0.0
H1422 H 0.88601 0.30031 0.72098 0.0
H1423 H 0.80083 0.38368 0.7698 0.0
H1424 H 0.85945 0.3317 0.78394 0.0
H1425 H 0.83311 0.35814 0.70704 0.0
C1426 C 0.85408 0.33545 0.68963 0.0
C1427 C 0.86904 0.31889 0.69308 0.0
C1428 C 0.84663 0.34312 0.78078 0.0
C1429 C 0.85039 0.33896 0.73436 0.0
C1430 C 0.83629 0.3522 0.80129 0.0
C1431 C 0.81951 0.3669 0.79778 0.0
C1432 C 0.84018 0.3488 0.75657 0.0
C1433 C 0.81366 0.37237 0.77332 0.0
C1434 C 0.84473 0.3455 0.71017 0.0
C1435 C 0.87451 0.31299 0.71752 0.0
N1436 N 0.82398 0.36328 0.75362 0.0
N1437 N 0.86514 0.323 0.73726 0.0
H1438 H 0.70374 0.87914 0.72206 0.0
H1439 H 0.61481 0.79639 0.77076 0.0
H1440 H 0.65923 0.84649 0.67341 0.0
H1441 H 0.65118 0.83805 0.81928 0.0
H1442 H 0.63266 0.81264 0.73467 0.0
H1443 H 0.68647 0.86213 0.75802 0.0
C1444 C 0.69036 0.86838 0.71897 0.0
C1445 C 0.68285 0.86425 0.69478 0.0
C1446 C 0.63669 0.81823 0.75324 0.0
C1447 C 0.66309 0.84474 0.73567 0.0
C1448 C 0.62652 0.80896 0.7738 0.0
C1449 C 0.63151 0.81591 0.798 0.0
C1450 C 0.65203 0.83444 0.75698 0.0
C1451 C 0.64683 0.83221 0.80093 0.0
C1452 C 0.68049 0.85871 0.73946 0.0
C1453 C 0.66549 0.85015 0.69177 0.0
N1454 N 0.65658 0.84089 0.78066 0.0
N1455 N 0.6562 0.84088 0.71198 0.0
H1456 H 0.84579 0.65801 0.67158 0.0
H1457 H 0.83664 0.65257 0.82012 0.0
H1458 H 0.87756 0.70242 0.72113 0.0
H1459 H 0.79628 0.61564 0.77072 0.0
H1460 H 0.85294 0.66985 0.78401 0.0
H1461 H 0.82854 0.64125 0.70756 0.0
C1462 C 0.84912 0.66425 0.69005 0.0
C1463 C 0.86316 0.6816 0.69343 0.0
C1464 C 0.84049 0.658 0.78102 0.0
C1465 C 0.84354 0.66244 0.73465 0.0
C1466 C 0.8312 0.64808 0.80164 0.0
C1467 C 0.81507 0.63264 0.79838 0.0
C1468 C 0.83374 0.65235 0.75692 0.0
C1469 C 0.80868 0.62745 0.77403 0.0
C1470 C 0.83924 0.65469 0.71057 0.0
C1471 C 0.86686 0.68906 0.71773 0.0
N1472 N 0.81808 0.63727 0.75417 0.0
N1473 N 0.85716 0.67937 0.73745 0.0
H1474 H 0.34694 0.84282 0.81985 0.0
H1475 H 0.33985 0.85063 0.67109 0.0
H1476 H 0.38321 0.80229 0.76993 0.0
H1477 H 0.29798 0.88544 0.72091 0.0
H1478 H 0.35773 0.8347 0.70709 0.0
H1479 H 0.33072 0.8605 0.78387 0.0
C1480 C 0.35153 0.83767 0.80129 0.0
C1481 C 0.36638 0.821 0.79783 0.0
C1482 C 0.34466 0.84584 0.71018 0.0
C1483 C 0.34787 0.8412 0.75657 0.0
C1484 C 0.33444 0.85496 0.68964 0.0
C1485 C 0.31734 0.86931 0.69305 0.0
C1486 C 0.33778 0.85113 0.73436 0.0
C1487 C 0.31107 0.87441 0.71747 0.0
C1488 C 0.34224 0.84776 0.78076 0.0
C1489 C 0.37179 0.81504 0.7734 0.0
N1490 N 0.32128 0.86529 0.73723 0.0
N1491 N 0.3625 0.82513 0.75366 0.0
H1492 H 0.1158 0.29961 0.72223 0.0
H1493 H 0.20186 0.38576 0.76997 0.0
H1494 H 0.15176 0.34101 0.67303 0.0
H1495 H 0.16027 0.34993 0.81908 0.0
H1496 H 0.18407 0.36918 0.73407 0.0
H1497 H 0.13237 0.31746 0.75809 0.0
C1498 C 0.12714 0.31248 0.71899 0.0
C1499 C 0.13246 0.31882 0.69467 0.0
C1500 C 0.1788 0.365 0.75272 0.0
C1501 C 0.1515 0.33924 0.73546 0.0
C1502 C 0.18895 0.37447 0.77318 0.0
C1503 C 0.18256 0.36916 0.79749 0.0
C1504 C 0.16223 0.35008 0.75666 0.0
C1505 C 0.16575 0.35443 0.80063 0.0
C1506 C 0.13658 0.32267 0.73943 0.0
C1507 C 0.14724 0.33558 0.69149 0.0
N1508 N 0.15622 0.34535 0.78046 0.0
N1509 N 0.15629 0.34517 0.71165 0.0
H1510 H 0.7004 0.11383 0.72133 0.0
H1511 H 0.61444 0.20023 0.76905 0.0
H1512 H 0.66082 0.15159 0.6719 0.0
H1513 H 0.65036 0.15859 0.81803 0.0
H1514 H 0.63113 0.1826 0.73309 0.0
H1515 H 0.68216 0.13008 0.75707 0.0
C1516 C 0.68784 0.1255 0.71801 0.0
C1517 C 0.68214 0.13141 0.69365 0.0
C1518 C 0.6353 0.17729 0.75171 0.0
C1519 C 0.66125 0.15012 0.73438 0.0
C1520 C 0.62578 0.18734 0.77222 0.0
C1521 C 0.63108 0.1809 0.79653 0.0
C1522 C 0.65027 0.16074 0.7556 0.0
C1523 C 0.64586 0.16411 0.7996 0.0
C1524 C 0.67742 0.13477 0.7384 0.0
C1525 C 0.66574 0.1466 0.69039 0.0
N1526 N 0.65498 0.15467 0.77939 0.0
N1527 N 0.65591 0.15548 0.71053 0.0
H1528 H 0.84082 0.35243 0.17157 0.0
H1529 H 0.84542 0.34171 0.32026 0.0
H1530 H 0.79838 0.38656 0.22138 0.0
H1531 H 0.88351 0.30313 0.27009 0.0
H1532 H 0.82965 0.36 0.28441 0.0
H1533 H 0.8583 0.33602 0.20755 0.0
C1534 C 0.83521 0.35653 0.19011 0.0
C1535 C 0.81805 0.3708 0.19352 0.0
C1536 C 0.84148 0.34757 0.28121 0.0
C1537 C 0.83801 0.35205 0.23481 0.0
C1538 C 0.8505 0.33711 0.30167 0.0
C1539 C 0.86574 0.32082 0.29811 0.0
C1540 C 0.84776 0.34172 0.25699 0.0
C1541 C 0.87177 0.31557 0.27365 0.0
C1542 C 0.8452 0.34713 0.21065 0.0
C1543 C 0.81152 0.37559 0.21794 0.0
N1544 N 0.86273 0.32598 0.25399 0.0
N1545 N 0.82149 0.36618 0.23768 0.0
H1546 H 0.61437 0.79916 0.22298 0.0
H1547 H 0.70322 0.8827 0.26997 0.0
H1548 H 0.64893 0.84175 0.17378 0.0
H1549 H 0.66164 0.84729 0.31951 0.0
H1550 H 0.68471 0.8666 0.23425 0.0
H1551 H 0.63263 0.81552 0.25866 0.0
C1552 C 0.62574 0.81199 0.21971 0.0
C1553 C 0.63016 0.81911 0.19544 0.0
C1554 C 0.67964 0.86238 0.25295 0.0
C1555 C 0.65118 0.83778 0.23601 0.0
C1556 C 0.69022 0.87154 0.27331 0.0
C1557 C 0.68393 0.86632 0.29768 0.0
C1558 C 0.66276 0.84785 0.25708 0.0
C1559 C 0.667 0.85177 0.30101 0.0
C1560 C 0.63617 0.82132 0.24005 0.0
C1561 C 0.64506 0.83575 0.19221 0.0
N1562 N 0.65702 0.84302 0.28094 0.0
N1563 N 0.65508 0.84449 0.21226 0.0
H1564 H 0.11877 0.69842 0.27066 0.0
H1565 H 0.20423 0.61168 0.22281 0.0
H1566 H 0.15708 0.6594 0.32012 0.0
H1567 H 0.1608 0.6458 0.17417 0.0
H1568 H 0.18738 0.62908 0.25881 0.0
H1569 H 0.13435 0.67955 0.23497 0.0
C1570 C 0.13045 0.68587 0.274 0.0
C1571 C 0.13667 0.68048 0.29834 0.0
C1572 C 0.18149 0.63269 0.24026 0.0
C1573 C 0.1546 0.65884 0.25768 0.0
C1574 C 0.1911 0.62275 0.21973 0.0
C1575 C 0.18394 0.62737 0.1955 0.0
C1576 C 0.1647 0.64739 0.23647 0.0
C1577 C 0.16687 0.64183 0.19254 0.0
C1578 C 0.13932 0.67507 0.25364 0.0
C1579 C 0.15184 0.66407 0.30163 0.0
N1580 N 0.15789 0.65139 0.21277 0.0
N1581 N 0.16034 0.65387 0.28152 0.0
H1582 H 0.33811 0.15362 0.32112 0.0
H1583 H 0.35042 0.15677 0.17258 0.0
H1584 H 0.29802 0.11729 0.27084 0.0
H1585 H 0.3849 0.19891 0.22238 0.0
H1586 H 0.33281 0.14039 0.2085 0.0
H1587 H 0.35703 0.1687 0.28533 0.0
C1588 C 0.33329 0.1488 0.30252 0.0
C1589 C 0.31643 0.13423 0.29891 0.0
C1590 C 0.34424 0.15319 0.2116 0.0
C1591 C 0.33806 0.1514 0.25785 0.0
C1592 C 0.35434 0.16254 0.19111 0.0
C1593 C 0.36908 0.17929 0.19454 0.0
C1594 C 0.34896 0.16058 0.23573 0.0
C1595 C 0.3736 0.18606 0.21893 0.0
C1596 C 0.3441 0.15743 0.2821 0.0
C1597 C 0.31091 0.12851 0.27443 0.0
N1598 N 0.36354 0.17669 0.23863 0.0
N1599 N 0.32171 0.13712 0.2548 0.0
loop_
_geom_bond_atom_site_label_1
_geom_bond_atom_site_label_2
_geom_bond_distance
_geom_bond_site_symmetry_2
_ccdc_geom_bond_type
Co0 O1 2.216 . S
Co0 O2 2.091 . S
Co0 O4 2.004 . S
Co0 O10 2.021 . S
Co0 O12 2.137 . S
Co0 O13 2.244 . S
O1 Co0 2.216 . S
O1 C8 1.247 . S
O2 Co0 2.091 . S
O2 C8 1.261 . S
C3 O12 1.247 . S
C3 O13 1.272 . S
O4 Co0 2.004 . S
O4 C9 1.259 . S
Co5 O6 2.061 . S
Co5 O11 2.052 . S
Co5 O13 2.135 . S
O6 Co5 2.061 . S
O6 C9 1.235 . S
C7 O10 1.238 . S
C7 O11 1.241 . S
C8 O1 1.247 . S
C8 O2 1.261 . S
C9 O4 1.259 . S
C9 O6 1.235 . S
O10 Co0 2.021 . S
O10 C7 1.238 . S
O11 Co5 2.052 . S
O11 C7 1.241 . S
O12 Co0 2.137 . S
O12 C3 1.247 . S
O13 Co0 2.244 . S
O13 C3 1.272 . S
O13 Co5 2.135 . S
Co14 O15 2.216 . S
Co14 O16 2.091 . S
Co14 O18 2.004 . S
Co14 O24 2.021 . S
Co14 O26 2.137 . S
Co14 O27 2.244 . S
O15 Co14 2.216 . S
O15 C22 1.247 . S
O16 Co14 2.091 . S
O16 C22 1.261 . S
C17 O26 1.247 . S
C17 O27 1.272 . S
O18 Co14 2.004 . S
O18 C23 1.259 . S
Co19 O20 2.061 . S
Co19 O25 2.052 . S
Co19 O27 2.135 . S
O20 Co19 2.061 . S
O20 C23 1.235 . S
C21 O24 1.238 . S
C21 O25 1.241 . S
C22 O15 1.247 . S
C22 O16 1.261 . S
C23 O18 1.259 . S
C23 O20 1.235 . S
O24 Co14 2.021 . S
O24 C21 1.238 . S
O25 Co19 2.052 . S
O25 C21 1.241 . S
O26 Co14 2.137 . S
O26 C17 1.247 . S
O27 Co14 2.244 . S
O27 C17 1.272 . S
O27 Co19 2.135 . S
Co28 O29 2.216 . S
Co28 O30 2.091 . S
Co28 O32 2.004 . S
Co28 O38 2.021 . S
Co28 O40 2.137 . S
Co28 O41 2.244 . S
O29 Co28 2.216 . S
O29 C36 1.247 . S
O30 Co28 2.091 . S
O30 C36 1.261 . S
C31 O40 1.247 . S
C31 O41 1.272 . S
O32 Co28 2.004 . S
O32 C37 1.259 . S
Co33 O34 2.061 . S
Co33 O39 2.052 . S
Co33 O41 2.135 . S
O34 Co33 2.061 . S
O34 C37 1.235 . S
C35 O38 1.238 . S
C35 O39 1.241 . S
C36 O29 1.247 . S
C36 O30 1.261 . S
C37 O32 1.259 . S
C37 O34 1.235 . S
O38 Co28 2.021 . S
O38 C35 1.238 . S
O39 Co33 2.052 . S
O39 C35 1.241 . S
O40 Co28 2.137 . S
O40 C31 1.247 . S
O41 Co28 2.244 . S
O41 C31 1.272 . S
O41 Co33 2.135 . S
Co42 O43 2.216 . S
Co42 O44 2.091 . S
Co42 O46 2.004 . S
Co42 O52 2.021 . S
Co42 O54 2.137 . S
Co42 O55 2.244 . S
O43 Co42 2.216 . S
O43 C50 1.247 . S
O44 Co42 2.091 . S
O44 C50 1.261 . S
C45 O54 1.247 . S
C45 O55 1.272 . S
O46 Co42 2.004 . S
O46 C51 1.259 . S
Co47 O48 2.061 . S
Co47 O53 2.052 . S
Co47 O55 2.135 . S
O48 Co47 2.061 . S
O48 C51 1.235 . S
C49 O52 1.238 . S
C49 O53 1.241 . S
C50 O43 1.247 . S
C50 O44 1.261 . S
C51 O46 1.259 . S
C51 O48 1.235 . S
O52 Co42 2.021 . S
O52 C49 1.238 . S
O53 Co47 2.052 . S
O53 C49 1.241 . S
O54 Co42 2.137 . S
O54 C45 1.247 . S
O55 Co42 2.244 . S
O55 C45 1.272 . S
O55 Co47 2.135 . S
Co56 O57 2.216 . S
Co56 O58 2.091 . S
Co56 O60 2.004 . S
Co56 O66 2.021 . S
Co56 O68 2.137 . S
Co56 O69 2.244 . S
O57 Co56 2.216 . S
O57 C64 1.247 . S
O58 Co56 2.091 . S
O58 C64 1.261 . S
C59 O68 1.247 . S
C59 O69 1.272 . S
O60 Co56 2.004 . S
O60 C65 1.259 . S
Co61 O62 2.061 . S
Co61 O67 2.052 . S
Co61 O69 2.135 . S
O62 Co61 2.061 . S
O62 C65 1.235 . S
C63 O66 1.238 . S
C63 O67 1.241 . S
C64 O57 1.247 . S
C64 O58 1.261 . S
C65 O60 1.259 . S
C65 O62 1.235 . S
O66 Co56 2.021 . S
O66 C63 1.238 . S
O67 Co61 2.052 . S
O67 C63 1.241 . S
O68 Co56 2.137 . S
O68 C59 1.247 . S
O69 Co56 2.244 . S
O69 C59 1.272 . S
O69 Co61 2.135 . S
Co70 O71 2.216 . S
Co70 O72 2.091 . S
Co70 O74 2.004 . S
Co70 O80 2.021 . S
Co70 O82 2.137 . S
Co70 O83 2.244 . S
O71 Co70 2.216 . S
O71 C78 1.247 . S
O72 Co70 2.091 . S
O72 C78 1.261 . S
C73 O82 1.247 . S
C73 O83 1.272 . S
O74 Co70 2.004 . S
O74 C79 1.259 . S
Co75 O76 2.061 . S
Co75 O81 2.052 . S
Co75 O83 2.135 . S
O76 Co75 2.061 . S
O76 C79 1.235 . S
C77 O80 1.238 . S
C77 O81 1.241 . S
C78 O71 1.247 . S
C78 O72 1.261 . S
C79 O74 1.259 . S
C79 O76 1.235 . S
O80 Co70 2.021 . S
O80 C77 1.238 . S
O81 Co75 2.052 . S
O81 C77 1.241 . S
O82 Co70 2.137 . S
O82 C73 1.247 . S
O83 Co70 2.244 . S
O83 C73 1.272 . S
O83 Co75 2.135 . S
Co84 O85 2.216 . S
Co84 O86 2.091 . S
Co84 O88 2.004 . S
Co84 O94 2.021 . S
Co84 O96 2.137 . S
Co84 O97 2.244 . S
O85 Co84 2.216 . S
O85 C92 1.247 . S
O86 Co84 2.091 . S
O86 C92 1.261 . S
C87 O96 1.247 . S
C87 O97 1.272 . S
O88 Co84 2.004 . S
O88 C93 1.259 . S
Co89 O90 2.061 . S
Co89 O95 2.052 . S
Co89 O97 2.135 . S
O90 Co89 2.061 . S
O90 C93 1.235 . S
C91 O94 1.238 . S
C91 O95 1.241 . S
C92 O85 1.247 . S
C92 O86 1.261 . S
C93 O88 1.259 . S
C93 O90 1.235 . S
O94 Co84 2.021 . S
O94 C91 1.238 . S
O95 Co89 2.052 . S
O95 C91 1.241 . S
O96 Co84 2.137 . S
O96 C87 1.247 . S
O97 Co84 2.244 . S
O97 C87 1.272 . S
O97 Co89 2.135 . S
Co98 O99 2.216 . S
Co98 O100 2.091 . S
Co98 O102 2.004 . S
Co98 O108 2.021 . S
Co98 O110 2.137 . S
Co98 O111 2.244 . S
O99 Co98 2.216 . S
O99 C106 1.247 . S
O100 Co98 2.091 . S
O100 C106 1.261 . S
C101 O110 1.247 . S
C101 O111 1.272 . S
O102 Co98 2.004 . S
O102 C107 1.259 . S
Co103 O104 2.061 . S
Co103 O109 2.052 . S
Co103 O111 2.135 . S
O104 Co103 2.061 . S
O104 C107 1.235 . S
C105 O108 1.238 . S
C105 O109 1.241 . S
C106 O99 1.247 . S
C106 O100 1.261 . S
C107 O102 1.259 . S
C107 O104 1.235 . S
O108 Co98 2.021 . S
O108 C105 1.238 . S
O109 Co103 2.052 . S
O109 C105 1.241 . S
O110 Co98 2.137 . S
O110 C101 1.247 . S
O111 Co98 2.244 . S
O111 C101 1.272 . S
O111 Co103 2.135 . S
Co112 O113 2.216 . S
Co112 O114 2.091 . S
Co112 O116 2.004 . S
Co112 O122 2.021 . S
Co112 O124 2.137 . S
Co112 O125 2.244 . S
O113 Co112 2.216 . S
O113 C120 1.247 . S
O114 Co112 2.091 . S
O114 C120 1.261 . S
C115 O124 1.247 . S
C115 O125 1.272 . S
O116 Co112 2.004 . S
O116 C121 1.259 . S
Co117 O118 2.061 . S
Co117 O123 2.052 . S
Co117 O125 2.135 . S
O118 Co117 2.061 . S
O118 C121 1.235 . S
C119 O122 1.238 . S
C119 O123 1.241 . S
C120 O113 1.247 . S
C120 O114 1.261 . S
C121 O116 1.259 . S
C121 O118 1.235 . S
O122 Co112 2.021 . S
O122 C119 1.238 . S
O123 Co117 2.052 . S
O123 C119 1.241 . S
O124 Co112 2.137 . S
O124 C115 1.247 . S
O125 Co112 2.244 . S
O125 C115 1.272 . S
O125 Co117 2.135 . S
Co126 O127 2.216 . S
Co126 O128 2.091 . S
Co126 O130 2.004 . S
Co126 O136 2.021 . S
Co126 O138 2.137 . S
Co126 O139 2.244 . S
O127 Co126 2.216 . S
O127 C134 1.247 . S
O128 Co126 2.091 . S
O128 C134 1.261 . S
C129 O138 1.247 . S
C129 O139 1.272 . S
O130 Co126 2.004 . S
O130 C135 1.259 . S
Co131 O132 2.061 . S
Co131 O137 2.052 . S
Co131 O139 2.135 . S
O132 Co131 2.061 . S
O132 C135 1.235 . S
C133 O136 1.238 . S
C133 O137 1.241 . S
C134 O127 1.247 . S
C134 O128 1.261 . S
C135 O130 1.259 . S
C135 O132 1.235 . S
O136 Co126 2.021 . S
O136 C133 1.238 . S
O137 Co131 2.052 . S
O137 C133 1.241 . S
O138 Co126 2.137 . S
O138 C129 1.247 . S
O139 Co126 2.244 . S
O139 C129 1.272 . S
O139 Co131 2.135 . S
Co140 O141 2.216 . S
Co140 O142 2.091 . S
Co140 O144 2.004 . S
Co140 O150 2.021 . S
Co140 O152 2.137 . S
Co140 O153 2.244 . S
O141 Co140 2.216 . S
O141 C148 1.247 . S
O142 Co140 2.091 . S
O142 C148 1.261 . S
C143 O152 1.247 . S
C143 O153 1.272 . S
O144 Co140 2.004 . S
O144 C149 1.259 . S
Co145 O146 2.061 . S
Co145 O151 2.052 . S
Co145 O153 2.135 . S
O146 Co145 2.061 . S
O146 C149 1.235 . S
C147 O150 1.238 . S
C147 O151 1.241 . S
C148 O141 1.247 . S
C148 O142 1.261 . S
C149 O144 1.259 . S
C149 O146 1.235 . S
O150 Co140 2.021 . S
O150 C147 1.238 . S
O151 Co145 2.052 . S
O151 C147 1.241 . S
O152 Co140 2.137 . S
O152 C143 1.247 . S
O153 Co140 2.244 . S
O153 C143 1.272 . S
O153 Co145 2.135 . S
Co154 O155 2.216 . S
Co154 O156 2.091 . S
Co154 O158 2.004 . S
Co154 O164 2.021 . S
Co154 O166 2.137 . S
Co154 O167 2.244 . S
O155 Co154 2.216 . S
O155 C162 1.247 . S
O156 Co154 2.091 . S
O156 C162 1.261 . S
C157 O166 1.247 . S
C157 O167 1.272 . S
O158 Co154 2.004 . S
O158 C163 1.259 . S
Co159 O160 2.061 . S
Co159 O165 2.052 . S
Co159 O167 2.135 . S
O160 Co159 2.061 . S
O160 C163 1.235 . S
C161 O164 1.238 . S
C161 O165 1.241 . S
C162 O155 1.247 . S
C162 O156 1.261 . S
C163 O158 1.259 . S
C163 O160 1.235 . S
O164 Co154 2.021 . S
O164 C161 1.238 . S
O165 Co159 2.052 . S
O165 C161 1.241 . S
O166 Co154 2.137 . S
O166 C157 1.247 . S
O167 Co154 2.244 . S
O167 C157 1.272 . S
O167 Co159 2.135 . S
Co168 O169 2.216 . S
Co168 O170 2.091 . S
Co168 O172 2.004 . S
Co168 O178 2.021 . S
Co168 O180 2.137 . S
Co168 O181 2.244 . S
O169 Co168 2.216 . S
O169 C176 1.247 . S
O170 Co168 2.091 . S
O170 C176 1.261 . S
C171 O180 1.247 . S
C171 O181 1.272 . S
O172 Co168 2.004 . S
O172 C177 1.259 . S
Co173 O174 2.061 . S
Co173 O179 2.052 . S
Co173 O181 2.135 . S
O174 Co173 2.061 . S
O174 C177 1.235 . S
C175 O178 1.238 . S
C175 O179 1.241 . S
C176 O169 1.247 . S
C176 O170 1.261 . S
C177 O172 1.259 . S
C177 O174 1.235 . S
O178 Co168 2.021 . S
O178 C175 1.238 . S
O179 Co173 2.052 . S
O179 C175 1.241 . S
O180 Co168 2.137 . S
O180 C171 1.247 . S
O181 Co168 2.244 . S
O181 C171 1.272 . S
O181 Co173 2.135 . S
Co182 O183 2.216 . S
Co182 O184 2.091 . S
Co182 O186 2.004 . S
Co182 O192 2.021 . S
Co182 O194 2.137 . S
Co182 O195 2.244 . S
O183 Co182 2.216 . S
O183 C190 1.247 . S
O184 Co182 2.091 . S
O184 C190 1.261 . S
C185 O194 1.247 . S
C185 O195 1.272 . S
O186 Co182 2.004 . S
O186 C191 1.259 . S
Co187 O188 2.061 . S
Co187 O193 2.052 . S
Co187 O195 2.135 . S
O188 Co187 2.061 . S
O188 C191 1.235 . S
C189 O192 1.238 . S
C189 O193 1.241 . S
C190 O183 1.247 . S
C190 O184 1.261 . S
C191 O186 1.259 . S
C191 O188 1.235 . S
O192 Co182 2.021 . S
O192 C189 1.238 . S
O193 Co187 2.052 . S
O193 C189 1.241 . S
O194 Co182 2.137 . S
O194 C185 1.247 . S
O195 Co182 2.244 . S
O195 C185 1.272 . S
O195 Co187 2.135 . S
Co196 O197 2.216 . S
Co196 O198 2.091 . S
Co196 O200 2.004 . S
Co196 O206 2.021 . S
Co196 O208 2.137 . S
Co196 O209 2.244 . S
O197 Co196 2.216 . S
O197 C204 1.247 . S
O198 Co196 2.091 . S
O198 C204 1.261 . S
C199 O208 1.247 . S
C199 O209 1.272 . S
O200 Co196 2.004 . S
O200 C205 1.259 . S
Co201 O202 2.061 . S
Co201 O207 2.052 . S
Co201 O209 2.135 . S
O202 Co201 2.061 . S
O202 C205 1.235 . S
C203 O206 1.238 . S
C203 O207 1.241 . S
C204 O197 1.247 . S
C204 O198 1.261 . S
C205 O200 1.259 . S
C205 O202 1.235 . S
O206 Co196 2.021 . S
O206 C203 1.238 . S
O207 Co201 2.052 . S
O207 C203 1.241 . S
O208 Co196 2.137 . S
O208 C199 1.247 . S
O209 Co196 2.244 . S
O209 C199 1.272 . S
O209 Co201 2.135 . S
Co210 O211 2.216 . S
Co210 O212 2.091 . S
Co210 O214 2.004 . S
Co210 O220 2.021 . S
Co210 O222 2.137 . S
Co210 O223 2.244 . S
O211 Co210 2.216 . S
O211 C218 1.247 . S
O212 Co210 2.091 . S
O212 C218 1.261 . S
C213 O222 1.247 . S
C213 O223 1.272 . S
O214 Co210 2.004 . S
O214 C219 1.259 . S
Co215 O216 2.061 . S
Co215 O221 2.052 . S
Co215 O223 2.135 . S
O216 Co215 2.061 . S
O216 C219 1.235 . S
C217 O220 1.238 . S
C217 O221 1.241 . S
C218 O211 1.247 . S
C218 O212 1.261 . S
C219 O214 1.259 . S
C219 O216 1.235 . S
O220 Co210 2.021 . S
O220 C217 1.238 . S
O221 Co215 2.052 . S
O221 C217 1.241 . S
O222 Co210 2.137 . S
O222 C213 1.247 . S
O223 Co210 2.244 . S
O223 C213 1.272 . S
O223 Co215 2.135 . S
Co224 O225 2.216 . S
Co224 O226 2.091 . S
Co224 O228 2.004 . S
Co224 O234 2.021 . S
Co224 O236 2.137 . S
Co224 O237 2.244 . S
O225 Co224 2.216 . S
O225 C232 1.247 . S
O226 Co224 2.091 . S
O226 C232 1.261 . S
C227 O236 1.247 . S
C227 O237 1.272 . S
O228 Co224 2.004 . S
O228 C233 1.259 . S
Co229 O230 2.061 . S
Co229 O235 2.052 . S
Co229 O237 2.135 . S
O230 Co229 2.061 . S
O230 C233 1.235 . S
C231 O234 1.238 . S
C231 O235 1.241 . S
C232 O225 1.247 . S
C232 O226 1.261 . S
C233 O228 1.259 . S
C233 O230 1.235 . S
O234 Co224 2.021 . S
O234 C231 1.238 . S
O235 Co229 2.052 . S
O235 C231 1.241 . S
O236 Co224 2.137 . S
O236 C227 1.247 . S
O237 Co224 2.244 . S
O237 C227 1.272 . S
O237 Co229 2.135 . S
Co238 O239 2.216 . S
Co238 O240 2.091 . S
Co238 O242 2.004 . S
Co238 O248 2.021 . S
Co238 O250 2.137 . S
Co238 O251 2.244 . S
O239 Co238 2.216 . S
O239 C246 1.247 . S
O240 Co238 2.091 . S
O240 C246 1.261 . S
C241 O250 1.247 . S
C241 O251 1.272 . S
O242 Co238 2.004 . S
O242 C247 1.259 . S
Co243 O244 2.061 . S
Co243 O249 2.052 . S
Co243 O251 2.135 . S
O244 Co243 2.061 . S
O244 C247 1.235 . S
C245 O248 1.238 . S
C245 O249 1.241 . S
C246 O239 1.247 . S
C246 O240 1.261 . S
C247 O242 1.259 . S
C247 O244 1.235 . S
O248 Co238 2.021 . S
O248 C245 1.238 . S
O249 Co243 2.052 . S
O249 C245 1.241 . S
O250 Co238 2.137 . S
O250 C241 1.247 . S
O251 Co238 2.244 . S
O251 C241 1.272 . S
O251 Co243 2.135 . S
Co252 O253 2.216 . S
Co252 O254 2.091 . S
Co252 O256 2.004 . S
Co252 O262 2.021 . S
Co252 O264 2.137 . S
Co252 O265 2.244 . S
O253 Co252 2.216 . S
O253 C260 1.247 . S
O254 Co252 2.091 . S
O254 C260 1.261 . S
C255 O264 1.247 . S
C255 O265 1.272 . S
O256 Co252 2.004 . S
O256 C261 1.259 . S
Co257 O258 2.061 . S
Co257 O263 2.052 . S
Co257 O265 2.135 . S
O258 Co257 2.061 . S
O258 C261 1.235 . S
C259 O262 1.238 . S
C259 O263 1.241 . S
C260 O253 1.247 . S
C260 O254 1.261 . S
C261 O256 1.259 . S
C261 O258 1.235 . S
O262 Co252 2.021 . S
O262 C259 1.238 . S
O263 Co257 2.052 . S
O263 C259 1.241 . S
O264 Co252 2.137 . S
O264 C255 1.247 . S
O265 Co252 2.244 . S
O265 C255 1.272 . S
O265 Co257 2.135 . S
Co266 O267 2.216 . S
Co266 O268 2.091 . S
Co266 O270 2.004 . S
Co266 O276 2.021 . S
Co266 O278 2.137 . S
Co266 O279 2.244 . S
O267 Co266 2.216 . S
O267 C274 1.247 . S
O268 Co266 2.091 . S
O268 C274 1.261 . S
C269 O278 1.247 . S
C269 O279 1.272 . S
O270 Co266 2.004 . S
O270 C275 1.259 . S
Co271 O272 2.061 . S
Co271 O277 2.052 . S
Co271 O279 2.135 . S
O272 Co271 2.061 . S
O272 C275 1.235 . S
C273 O276 1.238 . S
C273 O277 1.241 . S
C274 O267 1.247 . S
C274 O268 1.261 . S
C275 O270 1.259 . S
C275 O272 1.235 . S
O276 Co266 2.021 . S
O276 C273 1.238 . S
O277 Co271 2.052 . S
O277 C273 1.241 . S
O278 Co266 2.137 . S
O278 C269 1.247 . S
O279 Co266 2.244 . S
O279 C269 1.272 . S
O279 Co271 2.135 . S
Co280 O281 2.216 . S
Co280 O282 2.091 . S
Co280 O284 2.004 . S
Co280 O290 2.021 . S
Co280 O292 2.137 . S
Co280 O293 2.244 . S
O281 Co280 2.216 . S
O281 C288 1.247 . S
O282 Co280 2.091 . S
O282 C288 1.261 . S
C283 O292 1.247 . S
C283 O293 1.272 . S
O284 Co280 2.004 . S
O284 C289 1.259 . S
Co285 O286 2.061 . S
Co285 O291 2.052 . S
Co285 O293 2.135 . S
O286 Co285 2.061 . S
O286 C289 1.235 . S
C287 O290 1.238 . S
C287 O291 1.241 . S
C288 O281 1.247 . S
C288 O282 1.261 . S
C289 O284 1.259 . S
C289 O286 1.235 . S
O290 Co280 2.021 . S
O290 C287 1.238 . S
O291 Co285 2.052 . S
O291 C287 1.241 . S
O292 Co280 2.137 . S
O292 C283 1.247 . S
O293 Co280 2.244 . S
O293 C283 1.272 . S
O293 Co285 2.135 . S
Co294 O295 2.216 . S
Co294 O296 2.091 . S
Co294 O298 2.004 . S
Co294 O304 2.021 . S
Co294 O306 2.137 . S
Co294 O307 2.244 . S
O295 Co294 2.216 . S
O295 C302 1.247 . S
O296 Co294 2.091 . S
O296 C302 1.261 . S
C297 O306 1.247 . S
C297 O307 1.272 . S
O298 Co294 2.004 . S
O298 C303 1.259 . S
Co299 O300 2.061 . S
Co299 O305 2.052 . S
Co299 O307 2.135 . S
O300 Co299 2.061 . S
O300 C303 1.235 . S
C301 O304 1.238 . S
C301 O305 1.241 . S
C302 O295 1.247 . S
C302 O296 1.261 . S
C303 O298 1.259 . S
C303 O300 1.235 . S
O304 Co294 2.021 . S
O304 C301 1.238 . S
O305 Co299 2.052 . S
O305 C301 1.241 . S
O306 Co294 2.137 . S
O306 C297 1.247 . S
O307 Co294 2.244 . S
O307 C297 1.272 . S
O307 Co299 2.135 . S
Co308 O309 2.216 . S
Co308 O310 2.091 . S
Co308 O312 2.004 . S
Co308 O318 2.021 . S
Co308 O320 2.137 . S
Co308 O321 2.244 . S
O309 Co308 2.216 . S
O309 C316 1.247 . S
O310 Co308 2.091 . S
O310 C316 1.261 . S
C311 O320 1.247 . S
C311 O321 1.272 . S
O312 Co308 2.004 . S
O312 C317 1.259 . S
Co313 O314 2.061 . S
Co313 O319 2.052 . S
Co313 O321 2.135 . S
O314 Co313 2.061 . S
O314 C317 1.235 . S
C315 O318 1.238 . S
C315 O319 1.241 . S
C316 O309 1.247 . S
C316 O310 1.261 . S
C317 O312 1.259 . S
C317 O314 1.235 . S
O318 Co308 2.021 . S
O318 C315 1.238 . S
O319 Co313 2.052 . S
O319 C315 1.241 . S
O320 Co308 2.137 . S
O320 C311 1.247 . S
O321 Co308 2.244 . S
O321 C311 1.272 . S
O321 Co313 2.135 . S
Co322 O323 2.216 . S
Co322 O324 2.091 . S
Co322 O326 2.004 . S
Co322 O332 2.021 . S
Co322 O334 2.137 . S
Co322 O335 2.244 . S
O323 Co322 2.216 . S
O323 C330 1.247 . S
O324 Co322 2.091 . S
O324 C330 1.261 . S
C325 O334 1.247 . S
C325 O335 1.272 . S
O326 Co322 2.004 . S
O326 C331 1.259 . S
Co327 O328 2.061 . S
Co327 O333 2.052 . S
Co327 O335 2.135 . S
O328 Co327 2.061 . S
O328 C331 1.235 . S
C329 O332 1.238 . S
C329 O333 1.241 . S
C330 O323 1.247 . S
C330 O324 1.261 . S
C331 O326 1.259 . S
C331 O328 1.235 . S
O332 Co322 2.021 . S
O332 C329 1.238 . S
O333 Co327 2.052 . S
O333 C329 1.241 . S
O334 Co322 2.137 . S
O334 C325 1.247 . S
O335 Co322 2.244 . S
O335 C325 1.272 . S
O335 Co327 2.135 . S
Co336 O337 2.216 . S
Co336 O338 2.091 . S
Co336 O340 2.004 . S
Co336 O346 2.021 . S
Co336 O348 2.137 . S
Co336 O349 2.244 . S
O337 Co336 2.216 . S
O337 C344 1.247 . S
O338 Co336 2.091 . S
O338 C344 1.261 . S
C339 O348 1.247 . S
C339 O349 1.272 . S
O340 Co336 2.004 . S
O340 C345 1.259 . S
Co341 O342 2.061 . S
Co341 O347 2.052 . S
Co341 O349 2.135 . S
O342 Co341 2.061 . S
O342 C345 1.235 . S
C343 O346 1.238 . S
C343 O347 1.241 . S
C344 O337 1.247 . S
C344 O338 1.261 . S
C345 O340 1.259 . S
C345 O342 1.235 . S
O346 Co336 2.021 . S
O346 C343 1.238 . S
O347 Co341 2.052 . S
O347 C343 1.241 . S
O348 Co336 2.137 . S
O348 C339 1.247 . S
O349 Co336 2.244 . S
O349 C339 1.272 . S
O349 Co341 2.135 . S
Co350 O351 2.216 . S
Co350 O352 2.091 . S
Co350 O354 2.004 . S
Co350 O360 2.021 . S
Co350 O362 2.137 . S
Co350 O363 2.244 . S
O351 Co350 2.216 . S
O351 C358 1.247 . S
O352 Co350 2.091 . S
O352 C358 1.261 . S
C353 O362 1.247 . S
C353 O363 1.272 . S
O354 Co350 2.004 . S
O354 C359 1.259 . S
Co355 O356 2.061 . S
Co355 O361 2.052 . S
Co355 O363 2.135 . S
O356 Co355 2.061 . S
O356 C359 1.235 . S
C357 O360 1.238 . S
C357 O361 1.241 . S
C358 O351 1.247 . S
C358 O352 1.261 . S
C359 O354 1.259 . S
C359 O356 1.235 . S
O360 Co350 2.021 . S
O360 C357 1.238 . S
O361 Co355 2.052 . S
O361 C357 1.241 . S
O362 Co350 2.137 . S
O362 C353 1.247 . S
O363 Co350 2.244 . S
O363 C353 1.272 . S
O363 Co355 2.135 . S
Co364 O365 2.216 . S
Co364 O366 2.091 . S
Co364 O368 2.004 . S
Co364 O374 2.021 . S
Co364 O376 2.137 . S
Co364 O377 2.244 . S
O365 Co364 2.216 . S
O365 C372 1.247 . S
O366 Co364 2.091 . S
O366 C372 1.261 . S
C367 O376 1.247 . S
C367 O377 1.272 . S
O368 Co364 2.004 . S
O368 C373 1.259 . S
Co369 O370 2.061 . S
Co369 O375 2.052 . S
Co369 O377 2.135 . S
O370 Co369 2.061 . S
O370 C373 1.235 . S
C371 O374 1.238 . S
C371 O375 1.241 . S
C372 O365 1.247 . S
C372 O366 1.261 . S
C373 O368 1.259 . S
C373 O370 1.235 . S
O374 Co364 2.021 . S
O374 C371 1.238 . S
O375 Co369 2.052 . S
O375 C371 1.241 . S
O376 Co364 2.137 . S
O376 C367 1.247 . S
O377 Co364 2.244 . S
O377 C367 1.272 . S
O377 Co369 2.135 . S
Co378 O379 2.216 . S
Co378 O380 2.091 . S
Co378 O382 2.004 . S
Co378 O388 2.021 . S
Co378 O390 2.137 . S
Co378 O391 2.244 . S
O379 Co378 2.216 . S
O379 C386 1.247 . S
O380 Co378 2.091 . S
O380 C386 1.261 . S
C381 O390 1.247 . S
C381 O391 1.272 . S
O382 Co378 2.004 . S
O382 C387 1.259 . S
Co383 O384 2.061 . S
Co383 O389 2.052 . S
Co383 O391 2.135 . S
O384 Co383 2.061 . S
O384 C387 1.235 . S
C385 O388 1.238 . S
C385 O389 1.241 . S
C386 O379 1.247 . S
C386 O380 1.261 . S
C387 O382 1.259 . S
C387 O384 1.235 . S
O388 Co378 2.021 . S
O388 C385 1.238 . S
O389 Co383 2.052 . S
O389 C385 1.241 . S
O390 Co378 2.137 . S
O390 C381 1.247 . S
O391 Co378 2.244 . S
O391 C381 1.272 . S
O391 Co383 2.135 . S
Co392 O393 2.216 . S
Co392 O394 2.091 . S
Co392 O396 2.004 . S
Co392 O402 2.021 . S
Co392 O404 2.137 . S
Co392 O405 2.244 . S
O393 Co392 2.216 . S
O393 C400 1.247 . S
O394 Co392 2.091 . S
O394 C400 1.261 . S
C395 O404 1.247 . S
C395 O405 1.272 . S
O396 Co392 2.004 . S
O396 C401 1.259 . S
Co397 O398 2.061 . S
Co397 O403 2.052 . S
Co397 O405 2.135 . S
O398 Co397 2.061 . S
O398 C401 1.235 . S
C399 O402 1.238 . S
C399 O403 1.241 . S
C400 O393 1.247 . S
C400 O394 1.261 . S
C401 O396 1.259 . S
C401 O398 1.235 . S
O402 Co392 2.021 . S
O402 C399 1.238 . S
O403 Co397 2.052 . S
O403 C399 1.241 . S
O404 Co392 2.137 . S
O404 C395 1.247 . S
O405 Co392 2.244 . S
O405 C395 1.272 . S
O405 Co397 2.135 . S
Co406 O407 2.216 . S
Co406 O408 2.091 . S
Co406 O410 2.004 . S
Co406 O416 2.021 . S
Co406 O418 2.137 . S
Co406 O419 2.244 . S
O407 Co406 2.216 . S
O407 C414 1.247 . S
O408 Co406 2.091 . S
O408 C414 1.261 . S
C409 O418 1.247 . S
C409 O419 1.272 . S
O410 Co406 2.004 . S
O410 C415 1.259 . S
Co411 O412 2.061 . S
Co411 O417 2.052 . S
Co411 O419 2.135 . S
O412 Co411 2.061 . S
O412 C415 1.235 . S
C413 O416 1.238 . S
C413 O417 1.241 . S
C414 O407 1.247 . S
C414 O408 1.261 . S
C415 O410 1.259 . S
C415 O412 1.235 . S
O416 Co406 2.021 . S
O416 C413 1.238 . S
O417 Co411 2.052 . S
O417 C413 1.241 . S
O418 Co406 2.137 . S
O418 C409 1.247 . S
O419 Co406 2.244 . S
O419 C409 1.272 . S
O419 Co411 2.135 . S
Co420 O421 2.216 . S
Co420 O422 2.091 . S
Co420 O424 2.004 . S
Co420 O430 2.021 . S
Co420 O432 2.137 . S
Co420 O433 2.244 . S
O421 Co420 2.216 . S
O421 C428 1.247 . S
O422 Co420 2.091 . S
O422 C428 1.261 . S
C423 O432 1.247 . S
C423 O433 1.272 . S
O424 Co420 2.004 . S
O424 C429 1.259 . S
Co425 O426 2.061 . S
Co425 O431 2.052 . S
Co425 O433 2.135 . S
O426 Co425 2.061 . S
O426 C429 1.235 . S
C427 O430 1.238 . S
C427 O431 1.241 . S
C428 O421 1.247 . S
C428 O422 1.261 . S
C429 O424 1.259 . S
C429 O426 1.235 . S
O430 Co420 2.021 . S
O430 C427 1.238 . S
O431 Co425 2.052 . S
O431 C427 1.241 . S
O432 Co420 2.137 . S
O432 C423 1.247 . S
O433 Co420 2.244 . S
O433 C423 1.272 . S
O433 Co425 2.135 . S
Co434 O435 2.216 . S
Co434 O436 2.091 . S
Co434 O438 2.004 . S
Co434 O444 2.021 . S
Co434 O446 2.137 . S
Co434 O447 2.244 . S
O435 Co434 2.216 . S
O435 C442 1.247 . S
O436 Co434 2.091 . S
O436 C442 1.261 . S
C437 O446 1.247 . S
C437 O447 1.272 . S
O438 Co434 2.004 . S
O438 C443 1.259 . S
Co439 O440 2.061 . S
Co439 O445 2.052 . S
Co439 O447 2.135 . S
O440 Co439 2.061 . S
O440 C443 1.235 . S
C441 O444 1.238 . S
C441 O445 1.241 . S
C442 O435 1.247 . S
C442 O436 1.261 . S
C443 O438 1.259 . S
C443 O440 1.235 . S
O444 Co434 2.021 . S
O444 C441 1.238 . S
O445 Co439 2.052 . S
O445 C441 1.241 . S
O446 Co434 2.137 . S
O446 C437 1.247 . S
O447 Co434 2.244 . S
O447 C437 1.272 . S
O447 Co439 2.135 . S
H448 C454 0.930 . S
H449 C458 0.930 . S
H450 C463 0.929 . S
H451 C461 0.929 . S
H452 C456 0.929 . S
H453 C462 0.929 . S
C454 H448 0.930 . S
C454 C455 1.367 . S
C454 C462 1.378 . S
C455 C454 1.367 . S
C455 C463 1.433 . S
C456 H452 0.929 . S
C456 C458 1.378 . S
C456 C460 1.350 . S
C457 C460 1.463 . S
C457 C462 1.350 . S
C457 N465 1.427 . S
C458 H449 0.930 . S
C458 C456 1.378 . S
C458 C459 1.367 . S
C459 C458 1.367 . S
C459 C461 1.433 . S
C460 C456 1.350 . S
C460 C457 1.463 . S
C460 N464 1.427 . S
C461 H451 0.929 . S
C461 C459 1.433 . S
C461 N464 1.384 . S
C462 H453 0.929 . S
C462 C454 1.378 . S
C462 C457 1.350 . S
C463 H450 0.929 . S
C463 C455 1.433 . S
C463 N465 1.384 . S
N464 C460 1.427 . S
N464 C461 1.384 . S
N465 C457 1.427 . S
N465 C463 1.384 . S
H466 C472 0.930 . S
H467 C476 0.930 . S
H468 C481 0.929 . S
H469 C479 0.929 . S
H470 C474 0.929 . S
H471 C480 0.929 . S
C472 H466 0.930 . S
C472 C473 1.367 . S
C472 C480 1.378 . S
C473 C472 1.367 . S
C473 C481 1.433 . S
C474 H470 0.929 . S
C474 C476 1.378 . S
C474 C478 1.350 . S
C475 C478 1.463 . S
C475 C480 1.350 . S
C475 N483 1.427 . S
C476 H467 0.930 . S
C476 C474 1.378 . S
C476 C477 1.367 . S
C477 C476 1.367 . S
C477 C479 1.433 . S
C478 C474 1.350 . S
C478 C475 1.463 . S
C478 N482 1.427 . S
C479 H469 0.929 . S
C479 C477 1.433 . S
C479 N482 1.384 . S
C480 H471 0.929 . S
C480 C472 1.378 . S
C480 C475 1.350 . S
C481 H468 0.929 . S
C481 C473 1.433 . S
C481 N483 1.384 . S
N482 C478 1.427 . S
N482 C479 1.384 . S
N483 C475 1.427 . S
N483 C481 1.384 . S
H484 C490 0.930 . S
H485 C494 0.930 . S
H486 C499 0.929 . S
H487 C497 0.929 . S
H488 C492 0.929 . S
H489 C498 0.929 . S
C490 H484 0.930 . S
C490 C491 1.367 . S
C490 C498 1.378 . S
C491 C490 1.367 . S
C491 C499 1.433 . S
C492 H488 0.929 . S
C492 C494 1.378 . S
C492 C496 1.350 . S
C493 C496 1.463 . S
C493 C498 1.350 . S
C493 N501 1.427 . S
C494 H485 0.930 . S
C494 C492 1.378 . S
C494 C495 1.367 . S
C495 C494 1.367 . S
C495 C497 1.433 . S
C496 C492 1.350 . S
C496 C493 1.463 . S
C496 N500 1.427 . S
C497 H487 0.929 . S
C497 C495 1.433 . S
C497 N500 1.384 . S
C498 H489 0.929 . S
C498 C490 1.378 . S
C498 C493 1.350 . S
C499 H486 0.929 . S
C499 C491 1.433 . S
C499 N501 1.384 . S
N500 C496 1.427 . S
N500 C497 1.384 . S
N501 C493 1.427 . S
N501 C499 1.384 . S
H502 C508 0.930 . S
H503 C512 0.930 . S
H504 C517 0.929 . S
H505 C515 0.929 . S
H506 C510 0.929 . S
H507 C516 0.929 . S
C508 H502 0.930 . S
C508 C509 1.367 . S
C508 C516 1.378 . S
C509 C508 1.367 . S
C509 C517 1.433 . S
C510 H506 0.929 . S
C510 C512 1.378 . S
C510 C514 1.350 . S
C511 C514 1.463 . S
C511 C516 1.350 . S
C511 N519 1.427 . S
C512 H503 0.930 . S
C512 C510 1.378 . S
C512 C513 1.367 . S
C513 C512 1.367 . S
C513 C515 1.433 . S
C514 C510 1.350 . S
C514 C511 1.463 . S
C514 N518 1.427 . S
C515 H505 0.929 . S
C515 C513 1.433 . S
C515 N518 1.384 . S
C516 H507 0.929 . S
C516 C508 1.378 . S
C516 C511 1.350 . S
C517 H504 0.929 . S
C517 C509 1.433 . S
C517 N519 1.384 . S
N518 C514 1.427 . S
N518 C515 1.384 . S
N519 C511 1.427 . S
N519 C517 1.384 . S
H520 C526 0.930 . S
H521 C530 0.930 . S
H522 C535 0.929 . S
H523 C533 0.929 . S
H524 C528 0.929 . S
H525 C534 0.929 . S
C526 H520 0.930 . S
C526 C527 1.367 . S
C526 C534 1.378 . S
C527 C526 1.367 . S
C527 C535 1.433 . S
C528 H524 0.929 . S
C528 C530 1.378 . S
C528 C532 1.350 . S
C529 C532 1.463 . S
C529 C534 1.350 . S
C529 N537 1.427 . S
C530 H521 0.930 . S
C530 C528 1.378 . S
C530 C531 1.367 . S
C531 C530 1.367 . S
C531 C533 1.433 . S
C532 C528 1.350 . S
C532 C529 1.463 . S
C532 N536 1.427 . S
C533 H523 0.929 . S
C533 C531 1.433 . S
C533 N536 1.384 . S
C534 H525 0.929 . S
C534 C526 1.378 . S
C534 C529 1.350 . S
C535 H522 0.929 . S
C535 C527 1.433 . S
C535 N537 1.384 . S
N536 C532 1.427 . S
N536 C533 1.384 . S
N537 C529 1.427 . S
N537 C535 1.384 . S
H538 C544 0.930 . S
H539 C548 0.930 . S
H540 C553 0.929 . S
H541 C551 0.929 . S
H542 C546 0.929 . S
H543 C552 0.929 . S
C544 H538 0.930 . S
C544 C545 1.367 . S
C544 C552 1.378 . S
C545 C544 1.367 . S
C545 C553 1.433 . S
C546 H542 0.929 . S
C546 C548 1.378 . S
C546 C550 1.350 . S
C547 C550 1.463 . S
C547 C552 1.350 . S
C547 N555 1.427 . S
C548 H539 0.930 . S
C548 C546 1.378 . S
C548 C549 1.367 . S
C549 C548 1.367 . S
C549 C551 1.433 . S
C550 C546 1.350 . S
C550 C547 1.463 . S
C550 N554 1.427 . S
C551 H541 0.929 . S
C551 C549 1.433 . S
C551 N554 1.384 . S
C552 H543 0.929 . S
C552 C544 1.378 . S
C552 C547 1.350 . S
C553 H540 0.929 . S
C553 C545 1.433 . S
C553 N555 1.384 . S
N554 C550 1.427 . S
N554 C551 1.384 . S
N555 C547 1.427 . S
N555 C553 1.384 . S
H556 C562 0.930 . S
H557 C566 0.930 . S
H558 C571 0.929 . S
H559 C569 0.929 . S
H560 C564 0.929 . S
H561 C570 0.929 . S
C562 H556 0.930 . S
C562 C563 1.367 . S
C562 C570 1.378 . S
C563 C562 1.367 . S
C563 C571 1.433 . S
C564 H560 0.929 . S
C564 C566 1.378 . S
C564 C568 1.350 . S
C565 C568 1.463 . S
C565 C570 1.350 . S
C565 N573 1.427 . S
C566 H557 0.930 . S
C566 C564 1.378 . S
C566 C567 1.367 . S
C567 C566 1.367 . S
C567 C569 1.433 . S
C568 C564 1.350 . S
C568 C565 1.463 . S
C568 N572 1.427 . S
C569 H559 0.929 . S
C569 C567 1.433 . S
C569 N572 1.384 . S
C570 H561 0.929 . S
C570 C562 1.378 . S
C570 C565 1.350 . S
C571 H558 0.929 . S
C571 C563 1.433 . S
C571 N573 1.384 . S
N572 C568 1.427 . S
N572 C569 1.384 . S
N573 C565 1.427 . S
N573 C571 1.384 . S
H574 C580 0.930 . S
H575 C584 0.930 . S
H576 C589 0.929 . S
H577 C587 0.929 . S
H578 C582 0.929 . S
H579 C588 0.929 . S
C580 H574 0.930 . S
C580 C581 1.367 . S
C580 C588 1.378 . S
C581 C580 1.367 . S
C581 C589 1.433 . S
C582 H578 0.929 . S
C582 C584 1.378 . S
C582 C586 1.350 . S
C583 C586 1.463 . S
C583 C588 1.350 . S
C583 N591 1.427 . S
C584 H575 0.930 . S
C584 C582 1.378 . S
C584 C585 1.367 . S
C585 C584 1.367 . S
C585 C587 1.433 . S
C586 C582 1.350 . S
C586 C583 1.463 . S
C586 N590 1.427 . S
C587 H577 0.929 . S
C587 C585 1.433 . S
C587 N590 1.384 . S
C588 H579 0.929 . S
C588 C580 1.378 . S
C588 C583 1.350 . S
C589 H576 0.929 . S
C589 C581 1.433 . S
C589 N591 1.384 . S
N590 C586 1.427 . S
N590 C587 1.384 . S
N591 C583 1.427 . S
N591 C589 1.384 . S
H592 C598 0.930 . S
H593 C602 0.930 . S
H594 C607 0.929 . S
H595 C605 0.929 . S
H596 C600 0.929 . S
H597 C606 0.929 . S
C598 H592 0.930 . S
C598 C599 1.367 . S
C598 C606 1.378 . S
C599 C598 1.367 . S
C599 C607 1.433 . S
C600 H596 0.929 . S
C600 C602 1.378 . S
C600 C604 1.350 . S
C601 C604 1.463 . S
C601 C606 1.350 . S
C601 N609 1.427 . S
C602 H593 0.930 . S
C602 C600 1.378 . S
C602 C603 1.367 . S
C603 C602 1.367 . S
C603 C605 1.433 . S
C604 C600 1.350 . S
C604 C601 1.463 . S
C604 N608 1.427 . S
C605 H595 0.929 . S
C605 C603 1.433 . S
C605 N608 1.384 . S
C606 H597 0.929 . S
C606 C598 1.378 . S
C606 C601 1.350 . S
C607 H594 0.929 . S
C607 C599 1.433 . S
C607 N609 1.384 . S
N608 C604 1.427 . S
N608 C605 1.384 . S
N609 C601 1.427 . S
N609 C607 1.384 . S
H610 C616 0.930 . S
H611 C620 0.930 . S
H612 C625 0.929 . S
H613 C623 0.929 . S
H614 C618 0.929 . S
H615 C624 0.929 . S
C616 H610 0.930 . S
C616 C617 1.367 . S
C616 C624 1.378 . S
C617 C616 1.367 . S
C617 C625 1.433 . S
C618 H614 0.929 . S
C618 C620 1.378 . S
C618 C622 1.350 . S
C619 C622 1.463 . S
C619 C624 1.350 . S
C619 N627 1.427 . S
C620 H611 0.930 . S
C620 C618 1.378 . S
C620 C621 1.367 . S
C621 C620 1.367 . S
C621 C623 1.433 . S
C622 C618 1.350 . S
C622 C619 1.463 . S
C622 N626 1.427 . S
C623 H613 0.929 . S
C623 C621 1.433 . S
C623 N626 1.384 . S
C624 H615 0.929 . S
C624 C616 1.378 . S
C624 C619 1.350 . S
C625 H612 0.929 . S
C625 C617 1.433 . S
C625 N627 1.384 . S
N626 C622 1.427 . S
N626 C623 1.384 . S
N627 C619 1.427 . S
N627 C625 1.384 . S
H628 C634 0.930 . S
H629 C638 0.930 . S
H630 C643 0.929 . S
H631 C641 0.929 . S
H632 C636 0.929 . S
H633 C642 0.929 . S
C634 H628 0.930 . S
C634 C635 1.367 . S
C634 C642 1.378 . S
C635 C634 1.367 . S
C635 C643 1.433 . S
C636 H632 0.929 . S
C636 C638 1.378 . S
C636 C640 1.350 . S
C637 C640 1.463 . S
C637 C642 1.350 . S
C637 N645 1.427 . S
C638 H629 0.930 . S
C638 C636 1.378 . S
C638 C639 1.367 . S
C639 C638 1.367 . S
C639 C641 1.433 . S
C640 C636 1.350 . S
C640 C637 1.463 . S
C640 N644 1.427 . S
C641 H631 0.929 . S
C641 C639 1.433 . S
C641 N644 1.384 . S
C642 H633 0.929 . S
C642 C634 1.378 . S
C642 C637 1.350 . S
C643 H630 0.929 . S
C643 C635 1.433 . S
C643 N645 1.384 . S
N644 C640 1.427 . S
N644 C641 1.384 . S
N645 C637 1.427 . S
N645 C643 1.384 . S
H646 C652 0.930 . S
H647 C656 0.930 . S
H648 C661 0.929 . S
H649 C659 0.929 . S
H650 C654 0.929 . S
H651 C660 0.929 . S
C652 H646 0.930 . S
C652 C653 1.367 . S
C652 C660 1.378 . S
C653 C652 1.367 . S
C653 C661 1.433 . S
C654 H650 0.929 . S
C654 C656 1.378 . S
C654 C658 1.350 . S
C655 C658 1.463 . S
C655 C660 1.350 . S
C655 N663 1.427 . S
C656 H647 0.930 . S
C656 C654 1.378 . S
C656 C657 1.367 . S
C657 C656 1.367 . S
C657 C659 1.433 . S
C658 C654 1.350 . S
C658 C655 1.463 . S
C658 N662 1.427 . S
C659 H649 0.929 . S
C659 C657 1.433 . S
C659 N662 1.384 . S
C660 H651 0.929 . S
C660 C652 1.378 . S
C660 C655 1.350 . S
C661 H648 0.929 . S
C661 C653 1.433 . S
C661 N663 1.384 . S
N662 C658 1.427 . S
N662 C659 1.384 . S
N663 C655 1.427 . S
N663 C661 1.384 . S
H664 C670 0.930 . S
H665 C674 0.930 . S
H666 C679 0.929 . S
H667 C677 0.929 . S
H668 C672 0.929 . S
H669 C678 0.929 . S
C670 H664 0.930 . S
C670 C671 1.367 . S
C670 C678 1.378 . S
C671 C670 1.367 . S
C671 C679 1.433 . S
C672 H668 0.929 . S
C672 C674 1.378 . S
C672 C676 1.350 . S
C673 C676 1.463 . S
C673 C678 1.350 . S
C673 N681 1.427 . S
C674 H665 0.930 . S
C674 C672 1.378 . S
C674 C675 1.367 . S
C675 C674 1.367 . S
C675 C677 1.433 . S
C676 C672 1.350 . S
C676 C673 1.463 . S
C676 N680 1.427 . S
C677 H667 0.929 . S
C677 C675 1.433 . S
C677 N680 1.384 . S
C678 H669 0.929 . S
C678 C670 1.378 . S
C678 C673 1.350 . S
C679 H666 0.929 . S
C679 C671 1.433 . S
C679 N681 1.384 . S
N680 C676 1.427 . S
N680 C677 1.384 . S
N681 C673 1.427 . S
N681 C679 1.384 . S
H682 C688 0.930 . S
H683 C692 0.930 . S
H684 C697 0.929 . S
H685 C695 0.929 . S
H686 C690 0.929 . S
H687 C696 0.929 . S
C688 H682 0.930 . S
C688 C689 1.367 . S
C688 C696 1.378 . S
C689 C688 1.367 . S
C689 C697 1.433 . S
C690 H686 0.929 . S
C690 C692 1.378 . S
C690 C694 1.350 . S
C691 C694 1.463 . S
C691 C696 1.350 . S
C691 N699 1.427 . S
C692 H683 0.930 . S
C692 C690 1.378 . S
C692 C693 1.367 . S
C693 C692 1.367 . S
C693 C695 1.433 . S
C694 C690 1.350 . S
C694 C691 1.463 . S
C694 N698 1.427 . S
C695 H685 0.929 . S
C695 C693 1.433 . S
C695 N698 1.384 . S
C696 H687 0.929 . S
C696 C688 1.378 . S
C696 C691 1.350 . S
C697 H684 0.929 . S
C697 C689 1.433 . S
C697 N699 1.384 . S
N698 C694 1.427 . S
N698 C695 1.384 . S
N699 C691 1.427 . S
N699 C697 1.384 . S
H700 C706 0.930 . S
H701 C710 0.930 . S
H702 C715 0.929 . S
H703 C713 0.929 . S
H704 C708 0.929 . S
H705 C714 0.929 . S
C706 H700 0.930 . S
C706 C707 1.367 . S
C706 C714 1.378 . S
C707 C706 1.367 . S
C707 C715 1.433 . S
C708 H704 0.929 . S
C708 C710 1.378 . S
C708 C712 1.350 . S
C709 C712 1.463 . S
C709 C714 1.350 . S
C709 N717 1.427 . S
C710 H701 0.930 . S
C710 C708 1.378 . S
C710 C711 1.367 . S
C711 C710 1.367 . S
C711 C713 1.433 . S
C712 C708 1.350 . S
C712 C709 1.463 . S
C712 N716 1.427 . S
C713 H703 0.929 . S
C713 C711 1.433 . S
C713 N716 1.384 . S
C714 H705 0.929 . S
C714 C706 1.378 . S
C714 C709 1.350 . S
C715 H702 0.929 . S
C715 C707 1.433 . S
C715 N717 1.384 . S
N716 C712 1.427 . S
N716 C713 1.384 . S
N717 C709 1.427 . S
N717 C715 1.384 . S
H718 C724 0.930 . S
H719 C728 0.930 . S
H720 C733 0.929 . S
H721 C731 0.929 . S
H722 C726 0.929 . S
H723 C732 0.929 . S
C724 H718 0.930 . S
C724 C725 1.367 . S
C724 C732 1.378 . S
C725 C724 1.367 . S
C725 C733 1.433 . S
C726 H722 0.929 . S
C726 C728 1.378 . S
C726 C730 1.350 . S
C727 C730 1.463 . S
C727 C732 1.350 . S
C727 N735 1.427 . S
C728 H719 0.930 . S
C728 C726 1.378 . S
C728 C729 1.367 . S
C729 C728 1.367 . S
C729 C731 1.433 . S
C730 C726 1.350 . S
C730 C727 1.463 . S
C730 N734 1.427 . S
C731 H721 0.929 . S
C731 C729 1.433 . S
C731 N734 1.384 . S
C732 H723 0.929 . S
C732 C724 1.378 . S
C732 C727 1.350 . S
C733 H720 0.929 . S
C733 C725 1.433 . S
C733 N735 1.384 . S
N734 C730 1.427 . S
N734 C731 1.384 . S
N735 C727 1.427 . S
N735 C733 1.384 . S
H736 C742 0.930 . S
H737 C746 0.930 . S
H738 C751 0.929 . S
H739 C749 0.929 . S
H740 C744 0.929 . S
H741 C750 0.929 . S
C742 H736 0.930 . S
C742 C743 1.367 . S
C742 C750 1.378 . S
C743 C742 1.367 . S
C743 C751 1.433 . S
C744 H740 0.929 . S
C744 C746 1.378 . S
C744 C748 1.350 . S
C745 C748 1.463 1_655 S
C745 C750 1.350 . S
C745 N753 1.427 . S
C746 H737 0.930 . S
C746 C744 1.378 . S
C746 C747 1.367 . S
C747 C746 1.367 . S
C747 C749 1.433 . S
C748 C744 1.350 . S
C748 C745 1.463 1_455 S
C748 N752 1.427 . S
C749 H739 0.929 . S
C749 C747 1.433 . S
C749 N752 1.384 . S
C750 H741 0.929 . S
C750 C742 1.378 . S
C750 C745 1.350 . S
C751 H738 0.929 . S
C751 C743 1.433 . S
C751 N753 1.384 . S
N752 C748 1.427 . S
N752 C749 1.384 . S
N753 C745 1.427 . S
N753 C751 1.384 . S
H754 C760 0.930 . S
H755 C764 0.930 . S
H756 C769 0.929 . S
H757 C767 0.929 . S
H758 C762 0.929 . S
H759 C768 0.929 . S
C760 H754 0.930 . S
C760 C761 1.367 . S
C760 C768 1.378 . S
C761 C760 1.367 . S
C761 C769 1.433 . S
C762 H758 0.929 . S
C762 C764 1.378 . S
C762 C766 1.350 . S
C763 C766 1.463 1_545 S
C763 C768 1.350 . S
C763 N771 1.427 . S
C764 H755 0.930 . S
C764 C762 1.378 . S
C764 C765 1.367 . S
C765 C764 1.367 . S
C765 C767 1.433 . S
C766 C762 1.350 . S
C766 C763 1.463 1_565 S
C766 N770 1.427 . S
C767 H757 0.929 . S
C767 C765 1.433 . S
C767 N770 1.384 . S
C768 H759 0.929 . S
C768 C760 1.378 . S
C768 C763 1.350 . S
C769 H756 0.929 . S
C769 C761 1.433 . S
C769 N771 1.384 . S
N770 C766 1.427 . S
N770 C767 1.384 . S
N771 C763 1.427 . S
N771 C769 1.384 . S
H772 C778 0.930 . S
H773 C782 0.930 . S
H774 C787 0.929 . S
H775 C785 0.929 . S
H776 C780 0.929 . S
H777 C786 0.929 . S
C778 H772 0.930 . S
C778 C779 1.367 . S
C778 C786 1.378 . S
C779 C778 1.367 . S
C779 C787 1.433 . S
C780 H776 0.929 . S
C780 C782 1.378 . S
C780 C784 1.350 . S
C781 C784 1.463 1_455 S
C781 C786 1.350 . S
C781 N789 1.427 . S
C782 H773 0.930 . S
C782 C780 1.378 . S
C782 C783 1.367 . S
C783 C782 1.367 . S
C783 C785 1.433 . S
C784 C780 1.350 . S
C784 C781 1.463 1_655 S
C784 N788 1.427 . S
C785 H775 0.929 . S
C785 C783 1.433 . S
C785 N788 1.384 . S
C786 H777 0.929 . S
C786 C778 1.378 . S
C786 C781 1.350 . S
C787 H774 0.929 . S
C787 C779 1.433 . S
C787 N789 1.384 . S
N788 C784 1.427 . S
N788 C785 1.384 . S
N789 C781 1.427 . S
N789 C787 1.384 . S
H790 C796 0.930 . S
H791 C800 0.930 . S
H792 C805 0.929 . S
H793 C803 0.929 . S
H794 C798 0.929 . S
H795 C804 0.929 . S
C796 H790 0.930 . S
C796 C797 1.367 . S
C796 C804 1.378 . S
C797 C796 1.367 . S
C797 C805 1.433 . S
C798 H794 0.929 . S
C798 C800 1.378 . S
C798 C802 1.350 . S
C799 C802 1.463 1_565 S
C799 C804 1.350 . S
C799 N807 1.427 . S
C800 H791 0.930 . S
C800 C798 1.378 . S
C800 C801 1.367 . S
C801 C800 1.367 . S
C801 C803 1.433 . S
C802 C798 1.350 . S
C802 C799 1.463 1_545 S
C802 N806 1.427 . S
C803 H793 0.929 . S
C803 C801 1.433 . S
C803 N806 1.384 . S
C804 H795 0.929 . S
C804 C796 1.378 . S
C804 C799 1.350 . S
C805 H792 0.929 . S
C805 C797 1.433 . S
C805 N807 1.384 . S
N806 C802 1.427 . S
N806 C803 1.384 . S
N807 C799 1.427 . S
N807 C805 1.384 . S
H808 C814 0.930 . S
H809 C818 0.930 . S
H810 C823 0.929 . S
H811 C821 0.929 . S
H812 C816 0.929 . S
H813 C822 0.929 . S
C814 H808 0.930 . S
C814 C815 1.367 . S
C814 C822 1.378 . S
C815 C814 1.367 . S
C815 C823 1.433 . S
C816 H812 0.929 . S
C816 C818 1.378 . S
C816 C820 1.350 . S
C817 C820 1.463 1_455 S
C817 C822 1.350 . S
C817 N825 1.427 . S
C818 H809 0.930 . S
C818 C816 1.378 . S
C818 C819 1.367 . S
C819 C818 1.367 . S
C819 C821 1.433 . S
C820 C816 1.350 . S
C820 C817 1.463 1_655 S
C820 N824 1.427 . S
C821 H811 0.929 . S
C821 C819 1.433 . S
C821 N824 1.384 . S
C822 H813 0.929 . S
C822 C814 1.378 . S
C822 C817 1.350 . S
C823 H810 0.929 . S
C823 C815 1.433 . S
C823 N825 1.384 . S
N824 C820 1.427 . S
N824 C821 1.384 . S
N825 C817 1.427 . S
N825 C823 1.384 . S
H826 C832 0.930 . S
H827 C836 0.930 . S
H828 C841 0.929 . S
H829 C839 0.929 . S
H830 C834 0.929 . S
H831 C840 0.929 . S
C832 H826 0.930 . S
C832 C833 1.367 . S
C832 C840 1.378 . S
C833 C832 1.367 . S
C833 C841 1.433 . S
C834 H830 0.929 . S
C834 C836 1.378 . S
C834 C838 1.350 . S
C835 C838 1.463 1_565 S
C835 C840 1.350 . S
C835 N843 1.427 . S
C836 H827 0.930 . S
C836 C834 1.378 . S
C836 C837 1.367 . S
C837 C836 1.367 . S
C837 C839 1.433 . S
C838 C834 1.350 . S
C838 C835 1.463 1_545 S
C838 N842 1.427 . S
C839 H829 0.929 . S
C839 C837 1.433 . S
C839 N842 1.384 . S
C840 H831 0.929 . S
C840 C832 1.378 . S
C840 C835 1.350 . S
C841 H828 0.929 . S
C841 C833 1.433 . S
C841 N843 1.384 . S
N842 C838 1.427 . S
N842 C839 1.384 . S
N843 C835 1.427 . S
N843 C841 1.384 . S
H844 C850 0.930 . S
H845 C854 0.930 . S
H846 C859 0.929 . S
H847 C857 0.929 . S
H848 C852 0.929 . S
H849 C858 0.929 . S
C850 H844 0.930 . S
C850 C851 1.367 . S
C850 C858 1.378 . S
C851 C850 1.367 . S
C851 C859 1.433 . S
C852 H848 0.929 . S
C852 C854 1.378 . S
C852 C856 1.350 . S
C853 C856 1.463 1_455 S
C853 C858 1.350 . S
C853 N861 1.427 . S
C854 H845 0.930 . S
C854 C852 1.378 . S
C854 C855 1.367 . S
C855 C854 1.367 . S
C855 C857 1.433 . S
C856 C852 1.350 . S
C856 C853 1.463 1_655 S
C856 N860 1.427 . S
C857 H847 0.929 . S
C857 C855 1.433 . S
C857 N860 1.384 . S
C858 H849 0.929 . S
C858 C850 1.378 . S
C858 C853 1.350 . S
C859 H846 0.929 . S
C859 C851 1.433 . S
C859 N861 1.384 . S
N860 C856 1.427 . S
N860 C857 1.384 . S
N861 C853 1.427 . S
N861 C859 1.384 . S
H862 C868 0.930 . S
H863 C872 0.930 . S
H864 C877 0.929 . S
H865 C875 0.929 . S
H866 C870 0.929 . S
H867 C876 0.929 . S
C868 H862 0.930 . S
C868 C869 1.367 . S
C868 C876 1.378 . S
C869 C868 1.367 . S
C869 C877 1.433 . S
C870 H866 0.929 . S
C870 C872 1.378 . S
C870 C874 1.350 . S
C871 C874 1.463 1_545 S
C871 C876 1.350 . S
C871 N879 1.427 . S
C872 H863 0.930 . S
C872 C870 1.378 . S
C872 C873 1.367 . S
C873 C872 1.367 . S
C873 C875 1.433 . S
C874 C870 1.350 . S
C874 C871 1.463 1_565 S
C874 N878 1.427 . S
C875 H865 0.929 . S
C875 C873 1.433 . S
C875 N878 1.384 . S
C876 H867 0.929 . S
C876 C868 1.378 . S
C876 C871 1.350 . S
C877 H864 0.929 . S
C877 C869 1.433 . S
C877 N879 1.384 . S
N878 C874 1.427 . S
N878 C875 1.384 . S
N879 C871 1.427 . S
N879 C877 1.384 . S
H880 C886 0.930 . S
H881 C890 0.930 . S
H882 C895 0.929 . S
H883 C893 0.929 . S
H884 C888 0.929 . S
H885 C894 0.929 . S
C886 H880 0.930 . S
C886 C887 1.367 . S
C886 C894 1.378 . S
C887 C886 1.367 . S
C887 C895 1.433 . S
C888 H884 0.929 . S
C888 C890 1.378 . S
C888 C892 1.350 . S
C889 C892 1.463 . S
C889 C894 1.350 . S
C889 N897 1.427 . S
C890 H881 0.930 . S
C890 C888 1.378 . S
C890 C891 1.367 . S
C891 C890 1.367 . S
C891 C893 1.433 . S
C892 C888 1.350 . S
C892 C889 1.463 . S
C892 N896 1.427 . S
C893 H883 0.929 . S
C893 C891 1.433 . S
C893 N896 1.384 . S
C894 H885 0.929 . S
C894 C886 1.378 . S
C894 C889 1.350 . S
C895 H882 0.929 . S
C895 C887 1.433 . S
C895 N897 1.384 . S
N896 C892 1.427 . S
N896 C893 1.384 . S
N897 C889 1.427 . S
N897 C895 1.384 . S
H898 C904 0.930 . S
H899 C908 0.930 . S
H900 C913 0.929 . S
H901 C911 0.929 . S
H902 C906 0.929 . S
H903 C912 0.929 . S
C904 H898 0.930 . S
C904 C905 1.367 . S
C904 C912 1.378 . S
C905 C904 1.367 . S
C905 C913 1.433 . S
C906 H902 0.929 . S
C906 C908 1.378 . S
C906 C910 1.350 . S
C907 C910 1.463 . S
C907 C912 1.350 . S
C907 N915 1.427 . S
C908 H899 0.930 . S
C908 C906 1.378 . S
C908 C909 1.367 . S
C909 C908 1.367 . S
C909 C911 1.433 . S
C910 C906 1.350 . S
C910 C907 1.463 . S
C910 N914 1.427 . S
C911 H901 0.929 . S
C911 C909 1.433 . S
C911 N914 1.384 . S
C912 H903 0.929 . S
C912 C904 1.378 . S
C912 C907 1.350 . S
C913 H900 0.929 . S
C913 C905 1.433 . S
C913 N915 1.384 . S
N914 C910 1.427 . S
N914 C911 1.384 . S
N915 C907 1.427 . S
N915 C913 1.384 . S
H916 C922 0.930 . S
H917 C926 0.930 . S
H918 C931 0.929 . S
H919 C929 0.929 . S
H920 C924 0.929 . S
H921 C930 0.929 . S
C922 H916 0.930 . S
C922 C923 1.367 . S
C922 C930 1.378 . S
C923 C922 1.367 . S
C923 C931 1.433 . S
C924 H920 0.929 . S
C924 C926 1.378 . S
C924 C928 1.350 . S
C925 C928 1.463 . S
C925 C930 1.350 . S
C925 N933 1.427 . S
C926 H917 0.930 . S
C926 C924 1.378 . S
C926 C927 1.367 . S
C927 C926 1.367 . S
C927 C929 1.433 . S
C928 C924 1.350 . S
C928 C925 1.463 . S
C928 N932 1.427 . S
C929 H919 0.929 . S
C929 C927 1.433 . S
C929 N932 1.384 . S
C930 H921 0.929 . S
C930 C922 1.378 . S
C930 C925 1.350 . S
C931 H918 0.929 . S
C931 C923 1.433 . S
C931 N933 1.384 . S
N932 C928 1.427 . S
N932 C929 1.384 . S
N933 C925 1.427 . S
N933 C931 1.384 . S
H934 C940 0.930 . S
H935 C944 0.930 . S
H936 C949 0.929 . S
H937 C947 0.929 . S
H938 C942 0.929 . S
H939 C948 0.929 . S
C940 H934 0.930 . S
C940 C941 1.367 . S
C940 C948 1.378 . S
C941 C940 1.367 . S
C941 C949 1.433 . S
C942 H938 0.929 . S
C942 C944 1.378 . S
C942 C946 1.350 . S
C943 C946 1.463 . S
C943 C948 1.350 . S
C943 N951 1.427 . S
C944 H935 0.930 . S
C944 C942 1.378 . S
C944 C945 1.367 . S
C945 C944 1.367 . S
C945 C947 1.433 . S
C946 C942 1.350 . S
C946 C943 1.463 . S
C946 N950 1.427 . S
C947 H937 0.929 . S
C947 C945 1.433 . S
C947 N950 1.384 . S
C948 H939 0.929 . S
C948 C940 1.378 . S
C948 C943 1.350 . S
C949 H936 0.929 . S
C949 C941 1.433 . S
C949 N951 1.384 . S
N950 C946 1.427 . S
N950 C947 1.384 . S
N951 C943 1.427 . S
N951 C949 1.384 . S
H952 C958 0.930 . S
H953 C962 0.930 . S
H954 C967 0.929 . S
H955 C965 0.929 . S
H956 C960 0.929 . S
H957 C966 0.929 . S
C958 H952 0.930 . S
C958 C959 1.367 . S
C958 C966 1.378 . S
C959 C958 1.367 . S
C959 C967 1.433 . S
C960 H956 0.929 . S
C960 C962 1.378 . S
C960 C964 1.350 . S
C961 C964 1.463 . S
C961 C966 1.350 . S
C961 N969 1.427 . S
C962 H953 0.930 . S
C962 C960 1.378 . S
C962 C963 1.367 . S
C963 C962 1.367 . S
C963 C965 1.433 . S
C964 C960 1.350 . S
C964 C961 1.463 . S
C964 N968 1.427 . S
C965 H955 0.929 . S
C965 C963 1.433 . S
C965 N968 1.384 . S
C966 H957 0.929 . S
C966 C958 1.378 . S
C966 C961 1.350 . S
C967 H954 0.929 . S
C967 C959 1.433 . S
C967 N969 1.384 . S
N968 C964 1.427 . S
N968 C965 1.384 . S
N969 C961 1.427 . S
N969 C967 1.384 . S
H970 C976 0.930 . S
H971 C980 0.930 . S
H972 C985 0.929 . S
H973 C983 0.929 . S
H974 C978 0.929 . S
H975 C984 0.929 . S
C976 H970 0.930 . S
C976 C977 1.367 . S
C976 C984 1.378 . S
C977 C976 1.367 . S
C977 C985 1.433 . S
C978 H974 0.929 . S
C978 C980 1.378 . S
C978 C982 1.350 . S
C979 C982 1.463 . S
C979 C984 1.350 . S
C979 N987 1.427 . S
C980 H971 0.930 . S
C980 C978 1.378 . S
C980 C981 1.367 . S
C981 C980 1.367 . S
C981 C983 1.433 . S
C982 C978 1.350 . S
C982 C979 1.463 . S
C982 N986 1.427 . S
C983 H973 0.929 . S
C983 C981 1.433 . S
C983 N986 1.384 . S
C984 H975 0.929 . S
C984 C976 1.378 . S
C984 C979 1.350 . S
C985 H972 0.929 . S
C985 C977 1.433 . S
C985 N987 1.384 . S
N986 C982 1.427 . S
N986 C983 1.384 . S
N987 C979 1.427 . S
N987 C985 1.384 . S
H988 C994 0.930 . S
H989 C998 0.930 . S
H990 C1003 0.929 . S
H991 C1001 0.929 . S
H992 C996 0.929 . S
H993 C1002 0.929 . S
C994 H988 0.930 . S
C994 C995 1.367 . S
C994 C1002 1.378 . S
C995 C994 1.367 . S
C995 C1003 1.433 . S
C996 H992 0.929 . S
C996 C998 1.378 . S
C996 C1000 1.350 . S
C997 C1000 1.463 . S
C997 C1002 1.350 . S
C997 N1005 1.427 . S
C998 H989 0.930 . S
C998 C996 1.378 . S
C998 C999 1.367 . S
C999 C998 1.367 . S
C999 C1001 1.433 . S
C1000 C996 1.350 . S
C1000 C997 1.463 . S
C1000 N1004 1.427 . S
C1001 H991 0.929 . S
C1001 C999 1.433 . S
C1001 N1004 1.384 . S
C1002 H993 0.929 . S
C1002 C994 1.378 . S
C1002 C997 1.350 . S
C1003 H990 0.929 . S
C1003 C995 1.433 . S
C1003 N1005 1.384 . S
N1004 C1000 1.427 . S
N1004 C1001 1.384 . S
N1005 C997 1.427 . S
N1005 C1003 1.384 . S
H1006 C1012 0.930 . S
H1007 C1016 0.930 . S
H1008 C1021 0.929 . S
H1009 C1019 0.929 . S
H1010 C1014 0.929 . S
H1011 C1020 0.929 . S
C1012 H1006 0.930 . S
C1012 C1013 1.367 . S
C1012 C1020 1.378 . S
C1013 C1012 1.367 . S
C1013 C1021 1.433 . S
C1014 H1010 0.929 . S
C1014 C1016 1.378 . S
C1014 C1018 1.350 . S
C1015 C1018 1.463 . S
C1015 C1020 1.350 . S
C1015 N1023 1.427 . S
C1016 H1007 0.930 . S
C1016 C1014 1.378 . S
C1016 C1017 1.367 . S
C1017 C1016 1.367 . S
C1017 C1019 1.433 . S
C1018 C1014 1.350 . S
C1018 C1015 1.463 . S
C1018 N1022 1.427 . S
C1019 H1009 0.929 . S
C1019 C1017 1.433 . S
C1019 N1022 1.384 . S
C1020 H1011 0.929 . S
C1020 C1012 1.378 . S
C1020 C1015 1.350 . S
C1021 H1008 0.929 . S
C1021 C1013 1.433 . S
C1021 N1023 1.384 . S
N1022 C1018 1.427 . S
N1022 C1019 1.384 . S
N1023 C1015 1.427 . S
N1023 C1021 1.384 . S
H1024 C1030 0.930 . S
H1025 C1034 0.930 . S
H1026 C1039 0.929 . S
H1027 C1037 0.929 . S
H1028 C1032 0.929 . S
H1029 C1038 0.929 . S
C1030 H1024 0.930 . S
C1030 C1031 1.367 . S
C1030 C1038 1.378 . S
C1031 C1030 1.367 . S
C1031 C1039 1.433 . S
C1032 H1028 0.929 . S
C1032 C1034 1.378 . S
C1032 C1036 1.350 . S
C1033 C1036 1.463 . S
C1033 C1038 1.350 . S
C1033 N1041 1.427 . S
C1034 H1025 0.930 . S
C1034 C1032 1.378 . S
C1034 C1035 1.367 . S
C1035 C1034 1.367 . S
C1035 C1037 1.433 . S
C1036 C1032 1.350 . S
C1036 C1033 1.463 . S
C1036 N1040 1.427 . S
C1037 H1027 0.929 . S
C1037 C1035 1.433 . S
C1037 N1040 1.384 . S
C1038 H1029 0.929 . S
C1038 C1030 1.378 . S
C1038 C1033 1.350 . S
C1039 H1026 0.929 . S
C1039 C1031 1.433 . S
C1039 N1041 1.384 . S
N1040 C1036 1.427 . S
N1040 C1037 1.384 . S
N1041 C1033 1.427 . S
N1041 C1039 1.384 . S
H1042 C1048 0.930 . S
H1043 C1052 0.930 . S
H1044 C1057 0.929 . S
H1045 C1055 0.929 . S
H1046 C1050 0.929 . S
H1047 C1056 0.929 . S
C1048 H1042 0.930 . S
C1048 C1049 1.367 . S
C1048 C1056 1.378 . S
C1049 C1048 1.367 . S
C1049 C1057 1.433 . S
C1050 H1046 0.929 . S
C1050 C1052 1.378 . S
C1050 C1054 1.350 . S
C1051 C1054 1.463 . S
C1051 C1056 1.350 . S
C1051 N1059 1.427 . S
C1052 H1043 0.930 . S
C1052 C1050 1.378 . S
C1052 C1053 1.367 . S
C1053 C1052 1.367 . S
C1053 C1055 1.433 . S
C1054 C1050 1.350 . S
C1054 C1051 1.463 . S
C1054 N1058 1.427 . S
C1055 H1045 0.929 . S
C1055 C1053 1.433 . S
C1055 N1058 1.384 . S
C1056 H1047 0.929 . S
C1056 C1048 1.378 . S
C1056 C1051 1.350 . S
C1057 H1044 0.929 . S
C1057 C1049 1.433 . S
C1057 N1059 1.384 . S
N1058 C1054 1.427 . S
N1058 C1055 1.384 . S
N1059 C1051 1.427 . S
N1059 C1057 1.384 . S
H1060 C1066 0.930 . S
H1061 C1070 0.930 . S
H1062 C1075 0.929 . S
H1063 C1073 0.929 . S
H1064 C1068 0.929 . S
H1065 C1074 0.929 . S
C1066 H1060 0.930 . S
C1066 C1067 1.367 . S
C1066 C1074 1.378 . S
C1067 C1066 1.367 . S
C1067 C1075 1.433 . S
C1068 H1064 0.929 . S
C1068 C1070 1.378 . S
C1068 C1072 1.350 . S
C1069 C1072 1.463 . S
C1069 C1074 1.350 . S
C1069 N1077 1.427 . S
C1070 H1061 0.930 . S
C1070 C1068 1.378 . S
C1070 C1071 1.367 . S
C1071 C1070 1.367 . S
C1071 C1073 1.433 . S
C1072 C1068 1.350 . S
C1072 C1069 1.463 . S
C1072 N1076 1.427 . S
C1073 H1063 0.929 . S
C1073 C1071 1.433 . S
C1073 N1076 1.384 . S
C1074 H1065 0.929 . S
C1074 C1066 1.378 . S
C1074 C1069 1.350 . S
C1075 H1062 0.929 . S
C1075 C1067 1.433 . S
C1075 N1077 1.384 . S
N1076 C1072 1.427 . S
N1076 C1073 1.384 . S
N1077 C1069 1.427 . S
N1077 C1075 1.384 . S
H1078 C1084 0.930 . S
H1079 C1088 0.930 . S
H1080 C1093 0.929 . S
H1081 C1091 0.929 . S
H1082 C1086 0.929 . S
H1083 C1092 0.929 . S
C1084 H1078 0.930 . S
C1084 C1085 1.367 . S
C1084 C1092 1.378 . S
C1085 C1084 1.367 . S
C1085 C1093 1.433 . S
C1086 H1082 0.929 . S
C1086 C1088 1.378 . S
C1086 C1090 1.350 . S
C1087 C1090 1.463 . S
C1087 C1092 1.350 . S
C1087 N1095 1.427 . S
C1088 H1079 0.930 . S
C1088 C1086 1.378 . S
C1088 C1089 1.367 . S
C1089 C1088 1.367 . S
C1089 C1091 1.433 . S
C1090 C1086 1.350 . S
C1090 C1087 1.463 . S
C1090 N1094 1.427 . S
C1091 H1081 0.929 . S
C1091 C1089 1.433 . S
C1091 N1094 1.384 . S
C1092 H1083 0.929 . S
C1092 C1084 1.378 . S
C1092 C1087 1.350 . S
C1093 H1080 0.929 . S
C1093 C1085 1.433 . S
C1093 N1095 1.384 . S
N1094 C1090 1.427 . S
N1094 C1091 1.384 . S
N1095 C1087 1.427 . S
N1095 C1093 1.384 . S
H1096 C1102 0.930 . S
H1097 C1106 0.930 . S
H1098 C1111 0.929 . S
H1099 C1109 0.929 . S
H1100 C1104 0.929 . S
H1101 C1110 0.929 . S
C1102 H1096 0.930 . S
C1102 C1103 1.367 . S
C1102 C1110 1.378 . S
C1103 C1102 1.367 . S
C1103 C1111 1.433 . S
C1104 H1100 0.929 . S
C1104 C1106 1.378 . S
C1104 C1108 1.350 . S
C1105 C1108 1.463 . S
C1105 C1110 1.350 . S
C1105 N1113 1.427 . S
C1106 H1097 0.930 . S
C1106 C1104 1.378 . S
C1106 C1107 1.367 . S
C1107 C1106 1.367 . S
C1107 C1109 1.433 . S
C1108 C1104 1.350 . S
C1108 C1105 1.463 . S
C1108 N1112 1.427 . S
C1109 H1099 0.929 . S
C1109 C1107 1.433 . S
C1109 N1112 1.384 . S
C1110 H1101 0.929 . S
C1110 C1102 1.378 . S
C1110 C1105 1.350 . S
C1111 H1098 0.929 . S
C1111 C1103 1.433 . S
C1111 N1113 1.384 . S
N1112 C1108 1.427 . S
N1112 C1109 1.384 . S
N1113 C1105 1.427 . S
N1113 C1111 1.384 . S
H1114 C1120 0.930 . S
H1115 C1124 0.930 . S
H1116 C1129 0.929 . S
H1117 C1127 0.929 . S
H1118 C1122 0.929 . S
H1119 C1128 0.929 . S
C1120 H1114 0.930 . S
C1120 C1121 1.367 . S
C1120 C1128 1.378 . S
C1121 C1120 1.367 . S
C1121 C1129 1.433 . S
C1122 H1118 0.929 . S
C1122 C1124 1.378 . S
C1122 C1126 1.350 . S
C1123 C1126 1.463 . S
C1123 C1128 1.350 . S
C1123 N1131 1.427 . S
C1124 H1115 0.930 . S
C1124 C1122 1.378 . S
C1124 C1125 1.367 . S
C1125 C1124 1.367 . S
C1125 C1127 1.433 . S
C1126 C1122 1.350 . S
C1126 C1123 1.463 . S
C1126 N1130 1.427 . S
C1127 H1117 0.929 . S
C1127 C1125 1.433 . S
C1127 N1130 1.384 . S
C1128 H1119 0.929 . S
C1128 C1120 1.378 . S
C1128 C1123 1.350 . S
C1129 H1116 0.929 . S
C1129 C1121 1.433 . S
C1129 N1131 1.384 . S
N1130 C1126 1.427 . S
N1130 C1127 1.384 . S
N1131 C1123 1.427 . S
N1131 C1129 1.384 . S
H1132 C1138 0.930 . S
H1133 C1142 0.930 . S
H1134 C1147 0.929 . S
H1135 C1145 0.929 . S
H1136 C1140 0.929 . S
H1137 C1146 0.929 . S
C1138 H1132 0.930 . S
C1138 C1139 1.367 . S
C1138 C1146 1.378 . S
C1139 C1138 1.367 . S
C1139 C1147 1.433 . S
C1140 H1136 0.929 . S
C1140 C1142 1.378 . S
C1140 C1144 1.350 . S
C1141 C1144 1.463 . S
C1141 C1146 1.350 . S
C1141 N1149 1.427 . S
C1142 H1133 0.930 . S
C1142 C1140 1.378 . S
C1142 C1143 1.367 . S
C1143 C1142 1.367 . S
C1143 C1145 1.433 . S
C1144 C1140 1.350 . S
C1144 C1141 1.463 . S
C1144 N1148 1.427 . S
C1145 H1135 0.929 . S
C1145 C1143 1.433 . S
C1145 N1148 1.384 . S
C1146 H1137 0.929 . S
C1146 C1138 1.378 . S
C1146 C1141 1.350 . S
C1147 H1134 0.929 . S
C1147 C1139 1.433 . S
C1147 N1149 1.384 . S
N1148 C1144 1.427 . S
N1148 C1145 1.384 . S
N1149 C1141 1.427 . S
N1149 C1147 1.384 . S
H1150 C1156 0.930 . S
H1151 C1160 0.930 . S
H1152 C1165 0.929 . S
H1153 C1163 0.929 . S
H1154 C1158 0.929 . S
H1155 C1164 0.929 . S
C1156 H1150 0.930 . S
C1156 C1157 1.367 . S
C1156 C1164 1.378 . S
C1157 C1156 1.367 . S
C1157 C1165 1.433 . S
C1158 H1154 0.929 . S
C1158 C1160 1.378 . S
C1158 C1162 1.350 . S
C1159 C1162 1.463 . S
C1159 C1164 1.350 . S
C1159 N1167 1.427 . S
C1160 H1151 0.930 . S
C1160 C1158 1.378 . S
C1160 C1161 1.367 . S
C1161 C1160 1.367 . S
C1161 C1163 1.433 . S
C1162 C1158 1.350 . S
C1162 C1159 1.463 . S
C1162 N1166 1.427 . S
C1163 H1153 0.929 . S
C1163 C1161 1.433 . S
C1163 N1166 1.384 . S
C1164 H1155 0.929 . S
C1164 C1156 1.378 . S
C1164 C1159 1.350 . S
C1165 H1152 0.929 . S
C1165 C1157 1.433 . S
C1165 N1167 1.384 . S
N1166 C1162 1.427 . S
N1166 C1163 1.384 . S
N1167 C1159 1.427 . S
N1167 C1165 1.384 . S
H1168 C1174 0.930 . S
H1169 C1178 0.930 . S
H1170 C1183 0.929 . S
H1171 C1181 0.929 . S
H1172 C1176 0.929 . S
H1173 C1182 0.929 . S
C1174 H1168 0.930 . S
C1174 C1175 1.367 . S
C1174 C1182 1.378 . S
C1175 C1174 1.367 . S
C1175 C1183 1.433 . S
C1176 H1172 0.929 . S
C1176 C1178 1.378 . S
C1176 C1180 1.350 . S
C1177 C1180 1.463 1_554 S
C1177 C1182 1.350 . S
C1177 N1185 1.427 . S
C1178 H1169 0.930 . S
C1178 C1176 1.378 . S
C1178 C1179 1.367 . S
C1179 C1178 1.367 . S
C1179 C1181 1.433 . S
C1180 C1176 1.350 . S
C1180 C1177 1.463 1_556 S
C1180 N1184 1.427 . S
C1181 H1171 0.929 . S
C1181 C1179 1.433 . S
C1181 N1184 1.384 . S
C1182 H1173 0.929 . S
C1182 C1174 1.378 . S
C1182 C1177 1.350 . S
C1183 H1170 0.929 . S
C1183 C1175 1.433 . S
C1183 N1185 1.384 . S
N1184 C1180 1.427 . S
N1184 C1181 1.384 . S
N1185 C1177 1.427 . S
N1185 C1183 1.384 . S
H1186 C1192 0.930 . S
H1187 C1196 0.930 . S
H1188 C1201 0.929 . S
H1189 C1199 0.929 . S
H1190 C1194 0.929 . S
H1191 C1200 0.929 . S
C1192 H1186 0.930 . S
C1192 C1193 1.367 . S
C1192 C1200 1.378 . S
C1193 C1192 1.367 . S
C1193 C1201 1.433 . S
C1194 H1190 0.929 . S
C1194 C1196 1.378 . S
C1194 C1198 1.350 . S
C1195 C1198 1.463 1_556 S
C1195 C1200 1.350 . S
C1195 N1203 1.427 . S
C1196 H1187 0.930 . S
C1196 C1194 1.378 . S
C1196 C1197 1.367 . S
C1197 C1196 1.367 . S
C1197 C1199 1.433 . S
C1198 C1194 1.350 . S
C1198 C1195 1.463 1_554 S
C1198 N1202 1.427 . S
C1199 H1189 0.929 . S
C1199 C1197 1.433 . S
C1199 N1202 1.384 . S
C1200 H1191 0.929 . S
C1200 C1192 1.378 . S
C1200 C1195 1.350 . S
C1201 H1188 0.929 . S
C1201 C1193 1.433 . S
C1201 N1203 1.384 . S
N1202 C1198 1.427 . S
N1202 C1199 1.384 . S
N1203 C1195 1.427 . S
N1203 C1201 1.384 . S
H1204 C1210 0.930 . S
H1205 C1214 0.930 . S
H1206 C1219 0.929 . S
H1207 C1217 0.929 . S
H1208 C1212 0.929 . S
H1209 C1218 0.929 . S
C1210 H1204 0.930 . S
C1210 C1211 1.367 . S
C1210 C1218 1.378 . S
C1211 C1210 1.367 . S
C1211 C1219 1.433 . S
C1212 H1208 0.929 . S
C1212 C1214 1.378 . S
C1212 C1216 1.350 . S
C1213 C1216 1.463 1_554 S
C1213 C1218 1.350 . S
C1213 N1221 1.427 . S
C1214 H1205 0.930 . S
C1214 C1212 1.378 . S
C1214 C1215 1.367 . S
C1215 C1214 1.367 . S
C1215 C1217 1.433 . S
C1216 C1212 1.350 . S
C1216 C1213 1.463 1_556 S
C1216 N1220 1.427 . S
C1217 H1207 0.929 . S
C1217 C1215 1.433 . S
C1217 N1220 1.384 . S
C1218 H1209 0.929 . S
C1218 C1210 1.378 . S
C1218 C1213 1.350 . S
C1219 H1206 0.929 . S
C1219 C1211 1.433 . S
C1219 N1221 1.384 . S
N1220 C1216 1.427 . S
N1220 C1217 1.384 . S
N1221 C1213 1.427 . S
N1221 C1219 1.384 . S
H1222 C1228 0.930 . S
H1223 C1232 0.930 . S
H1224 C1237 0.929 . S
H1225 C1235 0.929 . S
H1226 C1230 0.929 . S
H1227 C1236 0.929 . S
C1228 H1222 0.930 . S
C1228 C1229 1.367 . S
C1228 C1236 1.378 . S
C1229 C1228 1.367 . S
C1229 C1237 1.433 . S
C1230 H1226 0.929 . S
C1230 C1232 1.378 . S
C1230 C1234 1.350 . S
C1231 C1234 1.463 1_554 S
C1231 C1236 1.350 . S
C1231 N1239 1.427 . S
C1232 H1223 0.930 . S
C1232 C1230 1.378 . S
C1232 C1233 1.367 . S
C1233 C1232 1.367 . S
C1233 C1235 1.433 . S
C1234 C1230 1.350 . S
C1234 C1231 1.463 1_556 S
C1234 N1238 1.427 . S
C1235 H1225 0.929 . S
C1235 C1233 1.433 . S
C1235 N1238 1.384 . S
C1236 H1227 0.929 . S
C1236 C1228 1.378 . S
C1236 C1231 1.350 . S
C1237 H1224 0.929 . S
C1237 C1229 1.433 . S
C1237 N1239 1.384 . S
N1238 C1234 1.427 . S
N1238 C1235 1.384 . S
N1239 C1231 1.427 . S
N1239 C1237 1.384 . S
H1240 C1246 0.930 . S
H1241 C1250 0.930 . S
H1242 C1255 0.929 . S
H1243 C1253 0.929 . S
H1244 C1248 0.929 . S
H1245 C1254 0.929 . S
C1246 H1240 0.930 . S
C1246 C1247 1.367 . S
C1246 C1254 1.378 . S
C1247 C1246 1.367 . S
C1247 C1255 1.433 . S
C1248 H1244 0.929 . S
C1248 C1250 1.378 . S
C1248 C1252 1.350 . S
C1249 C1252 1.463 1_554 S
C1249 C1254 1.350 . S
C1249 N1257 1.427 . S
C1250 H1241 0.930 . S
C1250 C1248 1.378 . S
C1250 C1251 1.367 . S
C1251 C1250 1.367 . S
C1251 C1253 1.433 . S
C1252 C1248 1.350 . S
C1252 C1249 1.463 1_556 S
C1252 N1256 1.427 . S
C1253 H1243 0.929 . S
C1253 C1251 1.433 . S
C1253 N1256 1.384 . S
C1254 H1245 0.929 . S
C1254 C1246 1.378 . S
C1254 C1249 1.350 . S
C1255 H1242 0.929 . S
C1255 C1247 1.433 . S
C1255 N1257 1.384 . S
N1256 C1252 1.427 . S
N1256 C1253 1.384 . S
N1257 C1249 1.427 . S
N1257 C1255 1.384 . S
H1258 C1264 0.930 . S
H1259 C1268 0.930 . S
H1260 C1273 0.929 . S
H1261 C1271 0.929 . S
H1262 C1266 0.929 . S
H1263 C1272 0.929 . S
C1264 H1258 0.930 . S
C1264 C1265 1.367 . S
C1264 C1272 1.378 . S
C1265 C1264 1.367 . S
C1265 C1273 1.433 . S
C1266 H1262 0.929 . S
C1266 C1268 1.378 . S
C1266 C1270 1.350 . S
C1267 C1270 1.463 1_554 S
C1267 C1272 1.350 . S
C1267 N1275 1.427 . S
C1268 H1259 0.930 . S
C1268 C1266 1.378 . S
C1268 C1269 1.367 . S
C1269 C1268 1.367 . S
C1269 C1271 1.433 . S
C1270 C1266 1.350 . S
C1270 C1267 1.463 1_556 S
C1270 N1274 1.427 . S
C1271 H1261 0.929 . S
C1271 C1269 1.433 . S
C1271 N1274 1.384 . S
C1272 H1263 0.929 . S
C1272 C1264 1.378 . S
C1272 C1267 1.350 . S
C1273 H1260 0.929 . S
C1273 C1265 1.433 . S
C1273 N1275 1.384 . S
N1274 C1270 1.427 . S
N1274 C1271 1.384 . S
N1275 C1267 1.427 . S
N1275 C1273 1.384 . S
H1276 C1282 0.930 . S
H1277 C1286 0.930 . S
H1278 C1291 0.929 . S
H1279 C1289 0.929 . S
H1280 C1284 0.929 . S
H1281 C1290 0.929 . S
C1282 H1276 0.930 . S
C1282 C1283 1.367 . S
C1282 C1290 1.378 . S
C1283 C1282 1.367 . S
C1283 C1291 1.433 . S
C1284 H1280 0.929 . S
C1284 C1286 1.378 . S
C1284 C1288 1.350 . S
C1285 C1288 1.463 1_556 S
C1285 C1290 1.350 . S
C1285 N1293 1.427 . S
C1286 H1277 0.930 . S
C1286 C1284 1.378 . S
C1286 C1287 1.367 . S
C1287 C1286 1.367 . S
C1287 C1289 1.433 . S
C1288 C1284 1.350 . S
C1288 C1285 1.463 1_554 S
C1288 N1292 1.427 . S
C1289 H1279 0.929 . S
C1289 C1287 1.433 . S
C1289 N1292 1.384 . S
C1290 H1281 0.929 . S
C1290 C1282 1.378 . S
C1290 C1285 1.350 . S
C1291 H1278 0.929 . S
C1291 C1283 1.433 . S
C1291 N1293 1.384 . S
N1292 C1288 1.427 . S
N1292 C1289 1.384 . S
N1293 C1285 1.427 . S
N1293 C1291 1.384 . S
H1294 C1300 0.930 . S
H1295 C1304 0.930 . S
H1296 C1309 0.929 . S
H1297 C1307 0.929 . S
H1298 C1302 0.929 . S
H1299 C1308 0.929 . S
C1300 H1294 0.930 . S
C1300 C1301 1.367 . S
C1300 C1308 1.378 . S
C1301 C1300 1.367 . S
C1301 C1309 1.433 . S
C1302 H1298 0.929 . S
C1302 C1304 1.378 . S
C1302 C1306 1.350 . S
C1303 C1306 1.463 1_556 S
C1303 C1308 1.350 . S
C1303 N1311 1.427 . S
C1304 H1295 0.930 . S
C1304 C1302 1.378 . S
C1304 C1305 1.367 . S
C1305 C1304 1.367 . S
C1305 C1307 1.433 . S
C1306 C1302 1.350 . S
C1306 C1303 1.463 1_554 S
C1306 N1310 1.427 . S
C1307 H1297 0.929 . S
C1307 C1305 1.433 . S
C1307 N1310 1.384 . S
C1308 H1299 0.929 . S
C1308 C1300 1.378 . S
C1308 C1303 1.350 . S
C1309 H1296 0.929 . S
C1309 C1301 1.433 . S
C1309 N1311 1.384 . S
N1310 C1306 1.427 . S
N1310 C1307 1.384 . S
N1311 C1303 1.427 . S
N1311 C1309 1.384 . S
H1312 C1318 0.930 . S
H1313 C1322 0.930 . S
H1314 C1327 0.929 . S
H1315 C1325 0.929 . S
H1316 C1320 0.929 . S
H1317 C1326 0.929 . S
C1318 H1312 0.930 . S
C1318 C1319 1.367 . S
C1318 C1326 1.378 . S
C1319 C1318 1.367 . S
C1319 C1327 1.433 . S
C1320 H1316 0.929 . S
C1320 C1322 1.378 . S
C1320 C1324 1.350 . S
C1321 C1324 1.463 . S
C1321 C1326 1.350 . S
C1321 N1329 1.427 . S
C1322 H1313 0.930 . S
C1322 C1320 1.378 . S
C1322 C1323 1.367 . S
C1323 C1322 1.367 . S
C1323 C1325 1.433 . S
C1324 C1320 1.350 . S
C1324 C1321 1.463 . S
C1324 N1328 1.427 . S
C1325 H1315 0.929 . S
C1325 C1323 1.433 . S
C1325 N1328 1.384 . S
C1326 H1317 0.929 . S
C1326 C1318 1.378 . S
C1326 C1321 1.350 . S
C1327 H1314 0.929 . S
C1327 C1319 1.433 . S
C1327 N1329 1.384 . S
N1328 C1324 1.427 . S
N1328 C1325 1.384 . S
N1329 C1321 1.427 . S
N1329 C1327 1.384 . S
H1330 C1336 0.930 . S
H1331 C1340 0.930 . S
H1332 C1345 0.929 . S
H1333 C1343 0.929 . S
H1334 C1338 0.929 . S
H1335 C1344 0.929 . S
C1336 H1330 0.930 . S
C1336 C1337 1.367 . S
C1336 C1344 1.378 . S
C1337 C1336 1.367 . S
C1337 C1345 1.433 . S
C1338 H1334 0.929 . S
C1338 C1340 1.378 . S
C1338 C1342 1.350 . S
C1339 C1342 1.463 . S
C1339 C1344 1.350 . S
C1339 N1347 1.427 . S
C1340 H1331 0.930 . S
C1340 C1338 1.378 . S
C1340 C1341 1.367 . S
C1341 C1340 1.367 . S
C1341 C1343 1.433 . S
C1342 C1338 1.350 . S
C1342 C1339 1.463 . S
C1342 N1346 1.427 . S
C1343 H1333 0.929 . S
C1343 C1341 1.433 . S
C1343 N1346 1.384 . S
C1344 H1335 0.929 . S
C1344 C1336 1.378 . S
C1344 C1339 1.350 . S
C1345 H1332 0.929 . S
C1345 C1337 1.433 . S
C1345 N1347 1.384 . S
N1346 C1342 1.427 . S
N1346 C1343 1.384 . S
N1347 C1339 1.427 . S
N1347 C1345 1.384 . S
H1348 C1354 0.930 . S
H1349 C1358 0.930 . S
H1350 C1363 0.929 . S
H1351 C1361 0.929 . S
H1352 C1356 0.929 . S
H1353 C1362 0.929 . S
C1354 H1348 0.930 . S
C1354 C1355 1.367 . S
C1354 C1362 1.378 . S
C1355 C1354 1.367 . S
C1355 C1363 1.433 . S
C1356 H1352 0.929 . S
C1356 C1358 1.378 . S
C1356 C1360 1.350 . S
C1357 C1360 1.463 . S
C1357 C1362 1.350 . S
C1357 N1365 1.427 . S
C1358 H1349 0.930 . S
C1358 C1356 1.378 . S
C1358 C1359 1.367 . S
C1359 C1358 1.367 . S
C1359 C1361 1.433 . S
C1360 C1356 1.350 . S
C1360 C1357 1.463 . S
C1360 N1364 1.427 . S
C1361 H1351 0.929 . S
C1361 C1359 1.433 . S
C1361 N1364 1.384 . S
C1362 H1353 0.929 . S
C1362 C1354 1.378 . S
C1362 C1357 1.350 . S
C1363 H1350 0.929 . S
C1363 C1355 1.433 . S
C1363 N1365 1.384 . S
N1364 C1360 1.427 . S
N1364 C1361 1.384 . S
N1365 C1357 1.427 . S
N1365 C1363 1.384 . S
H1366 C1372 0.930 . S
H1367 C1376 0.930 . S
H1368 C1381 0.929 . S
H1369 C1379 0.929 . S
H1370 C1374 0.929 . S
H1371 C1380 0.929 . S
C1372 H1366 0.930 . S
C1372 C1373 1.367 . S
C1372 C1380 1.378 . S
C1373 C1372 1.367 . S
C1373 C1381 1.433 . S
C1374 H1370 0.929 . S
C1374 C1376 1.378 . S
C1374 C1378 1.350 . S
C1375 C1378 1.463 . S
C1375 C1380 1.350 . S
C1375 N1383 1.427 . S
C1376 H1367 0.930 . S
C1376 C1374 1.378 . S
C1376 C1377 1.367 . S
C1377 C1376 1.367 . S
C1377 C1379 1.433 . S
C1378 C1374 1.350 . S
C1378 C1375 1.463 . S
C1378 N1382 1.427 . S
C1379 H1369 0.929 . S
C1379 C1377 1.433 . S
C1379 N1382 1.384 . S
C1380 H1371 0.929 . S
C1380 C1372 1.378 . S
C1380 C1375 1.350 . S
C1381 H1368 0.929 . S
C1381 C1373 1.433 . S
C1381 N1383 1.384 . S
N1382 C1378 1.427 . S
N1382 C1379 1.384 . S
N1383 C1375 1.427 . S
N1383 C1381 1.384 . S
H1384 C1390 0.930 . S
H1385 C1394 0.930 . S
H1386 C1399 0.929 . S
H1387 C1397 0.929 . S
H1388 C1392 0.929 . S
H1389 C1398 0.929 . S
C1390 H1384 0.930 . S
C1390 C1391 1.367 . S
C1390 C1398 1.378 . S
C1391 C1390 1.367 . S
C1391 C1399 1.433 . S
C1392 H1388 0.929 . S
C1392 C1394 1.378 . S
C1392 C1396 1.350 . S
C1393 C1396 1.463 . S
C1393 C1398 1.350 . S
C1393 N1401 1.427 . S
C1394 H1385 0.930 . S
C1394 C1392 1.378 . S
C1394 C1395 1.367 . S
C1395 C1394 1.367 . S
C1395 C1397 1.433 . S
C1396 C1392 1.350 . S
C1396 C1393 1.463 . S
C1396 N1400 1.427 . S
C1397 H1387 0.929 . S
C1397 C1395 1.433 . S
C1397 N1400 1.384 . S
C1398 H1389 0.929 . S
C1398 C1390 1.378 . S
C1398 C1393 1.350 . S
C1399 H1386 0.929 . S
C1399 C1391 1.433 . S
C1399 N1401 1.384 . S
N1400 C1396 1.427 . S
N1400 C1397 1.384 . S
N1401 C1393 1.427 . S
N1401 C1399 1.384 . S
H1402 C1408 0.930 . S
H1403 C1412 0.930 . S
H1404 C1417 0.929 . S
H1405 C1415 0.929 . S
H1406 C1410 0.929 . S
H1407 C1416 0.929 . S
C1408 H1402 0.930 . S
C1408 C1409 1.367 . S
C1408 C1416 1.378 . S
C1409 C1408 1.367 . S
C1409 C1417 1.433 . S
C1410 H1406 0.929 . S
C1410 C1412 1.378 . S
C1410 C1414 1.350 . S
C1411 C1414 1.463 . S
C1411 C1416 1.350 . S
C1411 N1419 1.427 . S
C1412 H1403 0.930 . S
C1412 C1410 1.378 . S
C1412 C1413 1.367 . S
C1413 C1412 1.367 . S
C1413 C1415 1.433 . S
C1414 C1410 1.350 . S
C1414 C1411 1.463 . S
C1414 N1418 1.427 . S
C1415 H1405 0.929 . S
C1415 C1413 1.433 . S
C1415 N1418 1.384 . S
C1416 H1407 0.929 . S
C1416 C1408 1.378 . S
C1416 C1411 1.350 . S
C1417 H1404 0.929 . S
C1417 C1409 1.433 . S
C1417 N1419 1.384 . S
N1418 C1414 1.427 . S
N1418 C1415 1.384 . S
N1419 C1411 1.427 . S
N1419 C1417 1.384 . S
H1420 C1426 0.930 . S
H1421 C1430 0.930 . S
H1422 C1435 0.929 . S
H1423 C1433 0.929 . S
H1424 C1428 0.929 . S
H1425 C1434 0.929 . S
C1426 H1420 0.930 . S
C1426 C1427 1.367 . S
C1426 C1434 1.378 . S
C1427 C1426 1.367 . S
C1427 C1435 1.433 . S
C1428 H1424 0.929 . S
C1428 C1430 1.378 . S
C1428 C1432 1.350 . S
C1429 C1432 1.463 . S
C1429 C1434 1.350 . S
C1429 N1437 1.427 . S
C1430 H1421 0.930 . S
C1430 C1428 1.378 . S
C1430 C1431 1.367 . S
C1431 C1430 1.367 . S
C1431 C1433 1.433 . S
C1432 C1428 1.350 . S
C1432 C1429 1.463 . S
C1432 N1436 1.427 . S
C1433 H1423 0.929 . S
C1433 C1431 1.433 . S
C1433 N1436 1.384 . S
C1434 H1425 0.929 . S
C1434 C1426 1.378 . S
C1434 C1429 1.350 . S
C1435 H1422 0.929 . S
C1435 C1427 1.433 . S
C1435 N1437 1.384 . S
N1436 C1432 1.427 . S
N1436 C1433 1.384 . S
N1437 C1429 1.427 . S
N1437 C1435 1.384 . S
H1438 C1444 0.930 . S
H1439 C1448 0.930 . S
H1440 C1453 0.929 . S
H1441 C1451 0.929 . S
H1442 C1446 0.929 . S
H1443 C1452 0.929 . S
C1444 H1438 0.930 . S
C1444 C1445 1.367 . S
C1444 C1452 1.378 . S
C1445 C1444 1.367 . S
C1445 C1453 1.433 . S
C1446 H1442 0.929 . S
C1446 C1448 1.378 . S
C1446 C1450 1.350 . S
C1447 C1450 1.463 . S
C1447 C1452 1.350 . S
C1447 N1455 1.427 . S
C1448 H1439 0.930 . S
C1448 C1446 1.378 . S
C1448 C1449 1.367 . S
C1449 C1448 1.367 . S
C1449 C1451 1.433 . S
C1450 C1446 1.350 . S
C1450 C1447 1.463 . S
C1450 N1454 1.427 . S
C1451 H1441 0.929 . S
C1451 C1449 1.433 . S
C1451 N1454 1.384 . S
C1452 H1443 0.929 . S
C1452 C1444 1.378 . S
C1452 C1447 1.350 . S
C1453 H1440 0.929 . S
C1453 C1445 1.433 . S
C1453 N1455 1.384 . S
N1454 C1450 1.427 . S
N1454 C1451 1.384 . S
N1455 C1447 1.427 . S
N1455 C1453 1.384 . S
H1456 C1462 0.930 . S
H1457 C1466 0.930 . S
H1458 C1471 0.929 . S
H1459 C1469 0.929 . S
H1460 C1464 0.929 . S
H1461 C1470 0.929 . S
C1462 H1456 0.930 . S
C1462 C1463 1.367 . S
C1462 C1470 1.378 . S
C1463 C1462 1.367 . S
C1463 C1471 1.433 . S
C1464 H1460 0.929 . S
C1464 C1466 1.378 . S
C1464 C1468 1.350 . S
C1465 C1468 1.463 . S
C1465 C1470 1.350 . S
C1465 N1473 1.427 . S
C1466 H1457 0.930 . S
C1466 C1464 1.378 . S
C1466 C1467 1.367 . S
C1467 C1466 1.367 . S
C1467 C1469 1.433 . S
C1468 C1464 1.350 . S
C1468 C1465 1.463 . S
C1468 N1472 1.427 . S
C1469 H1459 0.929 . S
C1469 C1467 1.433 . S
C1469 N1472 1.384 . S
C1470 H1461 0.929 . S
C1470 C1462 1.378 . S
C1470 C1465 1.350 . S
C1471 H1458 0.929 . S
C1471 C1463 1.433 . S
C1471 N1473 1.384 . S
N1472 C1468 1.427 . S
N1472 C1469 1.384 . S
N1473 C1465 1.427 . S
N1473 C1471 1.384 . S
H1474 C1480 0.930 . S
H1475 C1484 0.930 . S
H1476 C1489 0.929 . S
H1477 C1487 0.929 . S
H1478 C1482 0.929 . S
H1479 C1488 0.929 . S
C1480 H1474 0.930 . S
C1480 C1481 1.367 . S
C1480 C1488 1.378 . S
C1481 C1480 1.367 . S
C1481 C1489 1.433 . S
C1482 H1478 0.929 . S
C1482 C1484 1.378 . S
C1482 C1486 1.350 . S
C1483 C1486 1.463 . S
C1483 C1488 1.350 . S
C1483 N1491 1.427 . S
C1484 H1475 0.930 . S
C1484 C1482 1.378 . S
C1484 C1485 1.367 . S
C1485 C1484 1.367 . S
C1485 C1487 1.433 . S
C1486 C1482 1.350 . S
C1486 C1483 1.463 . S
C1486 N1490 1.427 . S
C1487 H1477 0.929 . S
C1487 C1485 1.433 . S
C1487 N1490 1.384 . S
C1488 H1479 0.929 . S
C1488 C1480 1.378 . S
C1488 C1483 1.350 . S
C1489 H1476 0.929 . S
C1489 C1481 1.433 . S
C1489 N1491 1.384 . S
N1490 C1486 1.427 . S
N1490 C1487 1.384 . S
N1491 C1483 1.427 . S
N1491 C1489 1.384 . S
H1492 C1498 0.930 . S
H1493 C1502 0.930 . S
H1494 C1507 0.929 . S
H1495 C1505 0.929 . S
H1496 C1500 0.929 . S
H1497 C1506 0.929 . S
C1498 H1492 0.930 . S
C1498 C1499 1.367 . S
C1498 C1506 1.378 . S
C1499 C1498 1.367 . S
C1499 C1507 1.433 . S
C1500 H1496 0.929 . S
C1500 C1502 1.378 . S
C1500 C1504 1.350 . S
C1501 C1504 1.463 . S
C1501 C1506 1.350 . S
C1501 N1509 1.427 . S
C1502 H1493 0.930 . S
C1502 C1500 1.378 . S
C1502 C1503 1.367 . S
C1503 C1502 1.367 . S
C1503 C1505 1.433 . S
C1504 C1500 1.350 . S
C1504 C1501 1.463 . S
C1504 N1508 1.427 . S
C1505 H1495 0.929 . S
C1505 C1503 1.433 . S
C1505 N1508 1.384 . S
C1506 H1497 0.929 . S
C1506 C1498 1.378 . S
C1506 C1501 1.350 . S
C1507 H1494 0.929 . S
C1507 C1499 1.433 . S
C1507 N1509 1.384 . S
N1508 C1504 1.427 . S
N1508 C1505 1.384 . S
N1509 C1501 1.427 . S
N1509 C1507 1.384 . S
H1510 C1516 0.930 . S
H1511 C1520 0.930 . S
H1512 C1525 0.929 . S
H1513 C1523 0.929 . S
H1514 C1518 0.929 . S
H1515 C1524 0.929 . S
C1516 H1510 0.930 . S
C1516 C1517 1.367 . S
C1516 C1524 1.378 . S
C1517 C1516 1.367 . S
C1517 C1525 1.433 . S
C1518 H1514 0.929 . S
C1518 C1520 1.378 . S
C1518 C1522 1.350 . S
C1519 C1522 1.463 . S
C1519 C1524 1.350 . S
C1519 N1527 1.427 . S
C1520 H1511 0.930 . S
C1520 C1518 1.378 . S
C1520 C1521 1.367 . S
C1521 C1520 1.367 . S
C1521 C1523 1.433 . S
C1522 C1518 1.350 . S
C1522 C1519 1.463 . S
C1522 N1526 1.427 . S
C1523 H1513 0.929 . S
C1523 C1521 1.433 . S
C1523 N1526 1.384 . S
C1524 H1515 0.929 . S
C1524 C1516 1.378 . S
C1524 C1519 1.350 . S
C1525 H1512 0.929 . S
C1525 C1517 1.433 . S
C1525 N1527 1.384 . S
N1526 C1522 1.427 . S
N1526 C1523 1.384 . S
N1527 C1519 1.427 . S
N1527 C1525 1.384 . S
H1528 C1534 0.930 . S
H1529 C1538 0.930 . S
H1530 C1543 0.929 . S
H1531 C1541 0.929 . S
H1532 C1536 0.929 . S
H1533 C1542 0.929 . S
C1534 H1528 0.930 . S
C1534 C1535 1.367 . S
C1534 C1542 1.378 . S
C1535 C1534 1.367 . S
C1535 C1543 1.433 . S
C1536 H1532 0.929 . S
C1536 C1538 1.378 . S
C1536 C1540 1.350 . S
C1537 C1540 1.463 . S
C1537 C1542 1.350 . S
C1537 N1545 1.427 . S
C1538 H1529 0.930 . S
C1538 C1536 1.378 . S
C1538 C1539 1.367 . S
C1539 C1538 1.367 . S
C1539 C1541 1.433 . S
C1540 C1536 1.350 . S
C1540 C1537 1.463 . S
C1540 N1544 1.427 . S
C1541 H1531 0.929 . S
C1541 C1539 1.433 . S
C1541 N1544 1.384 . S
C1542 H1533 0.929 . S
C1542 C1534 1.378 . S
C1542 C1537 1.350 . S
C1543 H1530 0.929 . S
C1543 C1535 1.433 . S
C1543 N1545 1.384 . S
N1544 C1540 1.427 . S
N1544 C1541 1.384 . S
N1545 C1537 1.427 . S
N1545 C1543 1.384 . S
H1546 C1552 0.930 . S
H1547 C1556 0.930 . S
H1548 C1561 0.929 . S
H1549 C1559 0.929 . S
H1550 C1554 0.929 . S
H1551 C1560 0.929 . S
C1552 H1546 0.930 . S
C1552 C1553 1.367 . S
C1552 C1560 1.378 . S
C1553 C1552 1.367 . S
C1553 C1561 1.433 . S
C1554 H1550 0.929 . S
C1554 C1556 1.378 . S
C1554 C1558 1.350 . S
C1555 C1558 1.463 . S
C1555 C1560 1.350 . S
C1555 N1563 1.427 . S
C1556 H1547 0.930 . S
C1556 C1554 1.378 . S
C1556 C1557 1.367 . S
C1557 C1556 1.367 . S
C1557 C1559 1.433 . S
C1558 C1554 1.350 . S
C1558 C1555 1.463 . S
C1558 N1562 1.427 . S
C1559 H1549 0.929 . S
C1559 C1557 1.433 . S
C1559 N1562 1.384 . S
C1560 H1551 0.929 . S
C1560 C1552 1.378 . S
C1560 C1555 1.350 . S
C1561 H1548 0.929 . S
C1561 C1553 1.433 . S
C1561 N1563 1.384 . S
N1562 C1558 1.427 . S
N1562 C1559 1.384 . S
N1563 C1555 1.427 . S
N1563 C1561 1.384 . S
H1564 C1570 0.930 . S
H1565 C1574 0.930 . S
H1566 C1579 0.929 . S
H1567 C1577 0.929 . S
H1568 C1572 0.929 . S
H1569 C1578 0.929 . S
C1570 H1564 0.930 . S
C1570 C1571 1.367 . S
C1570 C1578 1.378 . S
C1571 C1570 1.367 . S
C1571 C1579 1.433 . S
C1572 H1568 0.929 . S
C1572 C1574 1.378 . S
C1572 C1576 1.350 . S
C1573 C1576 1.463 . S
C1573 C1578 1.350 . S
C1573 N1581 1.427 . S
C1574 H1565 0.930 . S
C1574 C1572 1.378 . S
C1574 C1575 1.367 . S
C1575 C1574 1.367 . S
C1575 C1577 1.433 . S
C1576 C1572 1.350 . S
C1576 C1573 1.463 . S
C1576 N1580 1.427 . S
C1577 H1567 0.929 . S
C1577 C1575 1.433 . S
C1577 N1580 1.384 . S
C1578 H1569 0.929 . S
C1578 C1570 1.378 . S
C1578 C1573 1.350 . S
C1579 H1566 0.929 . S
C1579 C1571 1.433 . S
C1579 N1581 1.384 . S
N1580 C1576 1.427 . S
N1580 C1577 1.384 . S
N1581 C1573 1.427 . S
N1581 C1579 1.384 . S
H1582 C1588 0.930 . S
H1583 C1592 0.930 . S
H1584 C1597 0.929 . S
H1585 C1595 0.929 . S
H1586 C1590 0.929 . S
H1587 C1596 0.929 . S
C1588 H1582 0.930 . S
C1588 C1589 1.367 . S
C1588 C1596 1.378 . S
C1589 C1588 1.367 . S
C1589 C1597 1.433 . S
C1590 H1586 0.929 . S
C1590 C1592 1.378 . S
C1590 C1594 1.350 . S
C1591 C1594 1.463 . S
C1591 C1596 1.350 . S
C1591 N1599 1.427 . S
C1592 H1583 0.930 . S
C1592 C1590 1.378 . S
C1592 C1593 1.367 . S
C1593 C1592 1.367 . S
C1593 C1595 1.433 . S
C1594 C1590 1.350 . S
C1594 C1591 1.463 . S
C1594 N1598 1.427 . S
C1595 H1585 0.929 . S
C1595 C1593 1.433 . S
C1595 N1598 1.384 . S
C1596 H1587 0.929 . S
C1596 C1588 1.378 . S
C1596 C1591 1.350 . S
C1597 H1584 0.929 . S
C1597 C1589 1.433 . S
C1597 N1599 1.384 . S
N1598 C1594 1.427 . S
N1598 C1595 1.384 . S
N1599 C1591 1.427 . S
N1599 C1597 1.384 . S
C455 C219 1.473 . S
C459 C9 1.469 . S
C473 C23 1.472 . S
C477 C177 1.470 . S
C491 C37 1.473 . S
C495 C191 1.469 . S
C509 C205 1.475 . S
C513 C51 1.466 . S
C527 C65 1.473 . S
C531 C135 1.469 . S
C545 C79 1.468 . S
C549 C149 1.474 . S
C563 C163 1.473 . S
C567 C93 1.469 . S
C581 C121 1.466 . S
C585 C107 1.475 . S
C599 C233 1.472 . S
C603 C443 1.469 . S
C617 C247 1.469 . S
C621 C401 1.472 . S
C635 C261 1.476 . S
C639 C415 1.466 . S
C653 C429 1.475 . S
C657 C275 1.467 . S
C671 C289 1.473 . S
C675 C359 1.469 . S
C689 C303 1.475 . S
C693 C373 1.466 . S
C707 C387 1.472 . S
C711 C317 1.470 . S
C725 C331 1.468 . S
C729 C345 1.474 . S
C743 C176 1.432 . S
C747 C8 1.431 . S
C761 C22 1.431 . S
C765 C190 1.432 . S
C779 C204 1.433 . S
C783 C36 1.430 . S
C797 C50 1.432 . S
C801 C218 1.431 . S
C815 C64 1.432 . S
C819 C120 1.430 . S
C833 C134 1.431 . S
C837 C78 1.432 . S
C851 C148 1.431 . S
C855 C92 1.432 . S
C869 C162 1.430 . S
C873 C106 1.432 . S
C887 C232 1.432 . S
C891 C400 1.431 . S
C905 C414 1.432 . S
C909 C246 1.431 . S
C923 C260 1.433 . S
C927 C428 1.430 . S
C941 C274 1.432 . S
C945 C442 1.431 . S
C959 C344 1.431 . S
C963 C288 1.432 . S
C977 C302 1.432 . S
C981 C358 1.431 . S
C995 C316 1.431 . S
C999 C372 1.432 . S
C1013 C330 1.431 . S
C1017 C386 1.432 . S
C1031 C7 1.295 . S
C1035 C147 1.299 . S
C1049 C161 1.292 . S
C1053 C21 1.302 . S
C1067 C35 1.293 . S
C1071 C119 1.301 . S
C1085 C133 1.292 . S
C1089 C49 1.302 . S
C1103 C203 1.297 . S
C1107 C63 1.297 . S
C1121 C217 1.301 . S
C1125 C77 1.293 . S
C1139 C175 1.296 . S
C1143 C91 1.298 . S
C1157 C105 1.297 . S
C1161 C189 1.297 . S
C1175 C371 1.300 . S
C1179 C231 1.294 . S
C1193 C245 1.295 . S
C1197 C385 1.298 . S
C1211 C343 1.297 . S
C1215 C259 1.297 . S
C1229 C357 1.302 . S
C1233 C273 1.292 . S
C1247 C287 1.292 . S
C1251 C427 1.301 . S
C1265 C301 1.299 . S
C1269 C441 1.294 . S
C1283 C399 1.296 . S
C1287 C315 1.298 . S
C1301 C413 1.301 . S
C1305 C329 1.293 . S
C1319 C325 1.200 . S
C1323 C3 1.204 . S
C1337 C283 1.192 . S
C1341 C17 1.197 . S
C1355 C297 1.198 . S
C1359 C31 1.193 . S
C1373 C311 1.197 . S
C1377 C45 1.202 . S
C1391 C241 1.195 . S
C1395 C59 1.200 . S
C1409 C73 1.192 . S
C1413 C255 1.194 . S
C1427 C87 1.205 . S
C1431 C269 1.204 . S
C1445 C101 1.192 . S
C1449 C227 1.193 . S
C1463 C115 1.202 . S
C1467 C437 1.197 . S
C1481 C395 1.200 . S
C1485 C129 1.204 . S
C1499 C143 1.193 . S
C1503 C409 1.192 . S
C1517 C157 1.197 . S
C1521 C423 1.193 . S
C1535 C353 1.203 . S
C1539 C171 1.198 . S
C1553 C367 1.193 . S
C1557 C185 1.199 . S
C1571 C199 1.197 . S
C1575 C381 1.192 . S
C1589 C213 1.201 . S
C1593 C339 1.205 . S
