# Generated by pormake.
# Topology irl, (4)-cn, num edge types: 1
# Building blocks:
#     Node 0, Type 0, BuildingBlock: NAHDIM_clean_sbu_0, # of connection points: 4
#     Node 1, Type 0, BuildingBlock: NAHDIM_clean_sbu_0, # of connection points: 4
#     Node 2, Type 0, BuildingBlock: NAHDIM_clean_sbu_0, # of connection points: 4
#     Node 3, Type 0, BuildingBlock: NAHDIM_clean_sbu_0, # of connection points: 4
#     Node 4, Type 0, BuildingBlock: NAHDIM_clean_sbu_0, # of connection points: 4
#     Node 5, Type 0, BuildingBlock: NAHDIM_clean_sbu_0, # of connection points: 4
#     Node 6, Type 0, BuildingBlock: NAHDIM_clean_sbu_0, # of connection points: 4
#     Node 7, Type 0, BuildingBlock: NAHDIM_clean_sbu_0, # of connection points: 4
#     Edge 8, Type (0, 0), BuildingBlock: OJICUG_clean_linker_0, # of connection points: 2
#     Edge 9, Type (0, 0), BuildingBlock: OJICUG_clean_linker_0, # of connection points: 2
#     Edge 10, Type (0, 0), BuildingBlock: OJICUG_clean_linker_0, # of connection points: 2
#     Edge 11, Type (0, 0), BuildingBlock: OJICUG_clean_linker_0, # of connection points: 2
#     Edge 12, Type (0, 0), BuildingBlock: OJICUG_clean_linker_0, # of connection points: 2
#     Edge 13, Type (0, 0), BuildingBlock: OJICUG_clean_linker_0, # of connection points: 2
#     Edge 14, Type (0, 0), BuildingBlock: OJICUG_clean_linker_0, # of connection points: 2
#     Edge 15, Type (0, 0), BuildingBlock: OJICUG_clean_linker_0, # of connection points: 2
#     Edge 16, Type (0, 0), BuildingBlock: OJICUG_clean_linker_0, # of connection points: 2
#     Edge 17, Type (0, 0), BuildingBlock: OJICUG_clean_linker_0, # of connection points: 2
#     Edge 18, Type (0, 0), BuildingBlock: OJICUG_clean_linker_0, # of connection points: 2
#     Edge 19, Type (0, 0), BuildingBlock: OJICUG_clean_linker_0, # of connection points: 2
#     Edge 20, Type (0, 0), BuildingBlock: OJICUG_clean_linker_0, # of connection points: 2
#     Edge 21, Type (0, 0), BuildingBlock: OJICUG_clean_linker_0, # of connection points: 2
#     Edge 22, Type (0, 0), BuildingBlock: OJICUG_clean_linker_0, # of connection points: 2
#     Edge 23, Type (0, 0), BuildingBlock: OJICUG_clean_linker_0, # of connection points: 2
# Relax obj value: 0.185
# Max RMSD: 0.179
# Mean RMSD: 0.179
data_MOF--net-irl--node1-NAHDIM_clean_sbu_0--edge1-OJICUG_clean_linker_0
_symmetry_space_group_name_H-M    P1
_symmetry_Int_Tables_number       1
_symmetry_cell_setting            triclinic
loop_
_symmetry_equiv_pos_as_xyz
'x, y, z'
_cell_length_a     29.813804
_cell_length_b     25.863672
_cell_length_c     19.393056
_cell_angle_alpha  90.001428
_cell_angle_beta   89.997078
_cell_angle_gamma 89.997651
loop_
_atom_site_label
_atom_site_type_symbol
_atom_site_fract_x
_atom_site_fract_y
_atom_site_fract_z
_atom_type_partial_charge
C0 C 0.15028 0.23412 0.05631 0.0
O1 O 0.12953 0.22698 0.11531 0.0
O2 O 0.03867 0.2506 0.09223 0.0
Zn3 Zn 0.0614 0.21683 0.00578 0.0
O4 O 0.03197 0.24494 0.9206 0.0
C5 C 0.03238 0.11884 0.06562 0.0
O6 O 0.03394 0.14498 0.12364 0.0
O7 O 0.12825 0.22927 0.00052 0.0
C8 C 0.99086 0.23439 0.91068 0.0
O9 O 0.9686 0.20986 0.95917 0.0
C10 C 0.01054 0.28663 0.10258 0.0
O11 O 0.99061 0.30896 0.05003 0.0
O12 O 0.04502 0.1406 0.01002 0.0
C13 C 0.8343 0.80575 0.0624 0.0
O14 O 0.8545 0.8187 0.12009 0.0
O15 O 0.95614 0.7827 0.07567 0.0
Zn16 Zn 0.92318 0.81826 -0.00126 0.0
O17 O 0.94434 0.79377 0.90586 0.0
C18 C 0.951 0.91522 0.06128 0.0
O19 O 0.94893 0.88794 0.11834 0.0
O20 O 0.85658 0.80491 0.00652 0.0
C21 C 0.91925 0.80395 0.85462 0.0
O22 O 0.88061 0.82694 0.86567 0.0
C23 C 0.94275 0.74462 0.11164 0.0
O24 O 0.9053 0.72091 0.09511 0.0
O25 O 0.9391 0.89441 0.00467 0.0
C26 C 0.15013 0.80433 0.4334 0.0
O27 O 0.12935 0.81138 0.37441 0.0
O28 O 0.03857 0.7873 0.39755 0.0
Zn29 Zn 0.0612 0.82119 0.48397 0.0
O30 O 0.03187 0.79299 0.56917 0.0
C31 C 0.03188 0.91908 0.42412 0.0
O32 O 0.03343 0.89293 0.36611 0.0
O33 O 0.12809 0.80905 0.48921 0.0
C34 C 0.99074 0.80341 0.57913 0.0
O35 O 0.9684 0.82787 0.53065 0.0
C36 C 0.01043 0.75127 0.38725 0.0
O37 O 0.99043 0.72905 0.43981 0.0
O38 O 0.0446 0.89736 0.47971 0.0
C39 C 0.83415 0.2327 0.42752 0.0
O40 O 0.8543 0.21963 0.36984 0.0
O41 O 0.95604 0.2552 0.41417 0.0
Zn42 Zn 0.92299 0.21978 0.49111 0.0
O43 O 0.94426 0.24416 0.58399 0.0
C44 C 0.95054 0.12273 0.42852 0.0
O45 O 0.9485 0.15001 0.37147 0.0
O46 O 0.85644 0.23342 0.4834 0.0
C47 C 0.91922 0.23385 0.63526 0.0
O48 O 0.88061 0.21081 0.62423 0.0
C49 C 0.94277 0.29333 0.37818 0.0
O50 O 0.90539 0.3172 0.39472 0.0
O51 O 0.9387 0.14356 0.48515 0.0
C52 C 0.65064 0.73308 0.06244 0.0
O53 O 0.63045 0.72011 0.12013 0.0
O54 O 0.52882 0.75628 0.07579 0.0
Zn55 Zn 0.56173 0.72068 -0.00115 0.0
O56 O 0.54057 0.74519 0.90597 0.0
C57 C 0.53379 0.62375 0.06136 0.0
O58 O 0.53583 0.65102 0.11842 0.0
O59 O 0.62834 0.73396 0.00658 0.0
C60 C 0.56565 0.73495 0.85473 0.0
O61 O 0.60426 0.7119 0.86577 0.0
C62 C 0.54226 0.79435 0.11176 0.0
O63 O 0.57973 0.81799 0.0952 0.0
O64 O 0.54576 0.64454 0.00477 0.0
C65 C 0.33461 0.30476 0.05622 0.0
O66 O 0.35539 0.31188 0.1152 0.0
O67 O 0.44624 0.28837 0.09201 0.0
Zn68 Zn 0.42346 0.32214 0.0056 0.0
O69 O 0.45288 0.29411 0.92037 0.0
C70 C 0.45237 0.42015 0.06553 0.0
O71 O 0.45079 0.39399 0.12354 0.0
O72 O 0.35661 0.30965 0.0004 0.0
C73 C 0.49398 0.30474 0.91043 0.0
O74 O 0.51621 0.3293 0.95893 0.0
C75 C 0.47446 0.25242 0.10232 0.0
O76 O 0.49446 0.2302 0.04975 0.0
O77 O 0.43979 0.39838 0.0099 0.0
C78 C 0.65084 0.30656 0.42741 0.0
O79 O 0.63073 0.31966 0.3697 0.0
O80 O 0.52894 0.28394 0.4139 0.0
Zn81 Zn 0.56194 0.31939 0.49087 0.0
O82 O 0.54065 0.29501 0.58374 0.0
C83 C 0.53432 0.41643 0.42831 0.0
O84 O 0.53632 0.38915 0.37125 0.0
O85 O 0.62851 0.30578 0.48324 0.0
C86 C 0.56564 0.3054 0.63501 0.0
O87 O 0.60423 0.32852 0.62399 0.0
C88 C 0.54228 0.24584 0.37789 0.0
O89 O 0.57968 0.22205 0.39441 0.0
O90 O 0.54621 0.39561 0.48492 0.0
C91 C 0.3348 0.73485 0.43346 0.0
O92 O 0.35559 0.72779 0.37447 0.0
O93 O 0.44636 0.75187 0.39765 0.0
Zn94 Zn 0.42371 0.71796 0.48404 0.0
O95 O 0.45304 0.7461 0.56928 0.0
C96 C 0.45296 0.62007 0.4241 0.0
O97 O 0.45137 0.64623 0.3661 0.0
O98 O 0.35682 0.73013 0.48927 0.0
C99 C 0.49416 0.73561 0.57924 0.0
O100 O 0.51648 0.71113 0.53076 0.0
C101 C 0.47458 0.78782 0.38737 0.0
O102 O 0.49466 0.80994 0.43994 0.0
O103 O 0.44028 0.64178 0.47972 0.0
C104 C 0.98144 0.99196 0.12514 0.0
C105 C 0.97081 0.96786 0.06222 0.0
H106 H 0.0093 0.05821 0.17559 0.0
C107 C 0.98119 0.99358 0.00034 0.0
H108 H 0.97405 0.97322 0.17378 0.0
C109 C 0.00193 0.04214 0.00137 0.0
C110 C 0.01243 0.06628 0.06431 0.0
H111 H 0.97372 0.97601 0.95096 0.0
H112 H 0.00931 0.06094 0.95278 0.0
C113 C 0.00183 0.04068 0.12617 0.0
C114 C 0.00126 0.99722 0.36359 0.0
C115 C 0.01189 0.97161 0.42544 0.0
H116 H 0.97349 0.06469 0.316 0.0
C117 C 0.00139 0.99576 0.48839 0.0
H118 H 0.00872 0.97969 0.31417 0.0
C119 C 0.98066 0.04432 0.48944 0.0
C120 C 0.97028 0.07005 0.42757 0.0
H121 H 0.00879 0.97695 0.53698 0.0
H122 H 0.97321 0.0619 0.53882 0.0
C123 C 0.98088 0.04594 0.36464 0.0
C124 C 0.50328 0.54701 0.12515 0.0
C125 C 0.51397 0.57111 0.06225 0.0
H126 H 0.47537 0.48077 0.17555 0.0
C127 C 0.50363 0.5454 0.00036 0.0
H128 H 0.51064 0.56575 0.17381 0.0
C129 C 0.48288 0.49685 0.00135 0.0
C130 C 0.47232 0.4727 0.06426 0.0
H131 H 0.51115 0.56297 0.951 0.0
H132 H 0.47554 0.47804 0.95274 0.0
C133 C 0.48288 0.4983 0.12615 0.0
C134 C 0.50423 0.49483 0.48929 0.0
C135 C 0.51457 0.4691 0.4274 0.0
H136 H 0.47614 0.56219 0.5369 0.0
C137 C 0.50392 0.49322 0.3645 0.0
H138 H 0.51172 0.47725 0.53866 0.0
C139 C 0.48353 0.54193 0.36349 0.0
C140 C 0.47295 0.56754 0.42537 0.0
H141 H 0.51127 0.47447 0.31584 0.0
H142 H 0.47603 0.55947 0.31409 0.0
C143 C 0.4835 0.54339 0.48829 0.0
C144 C 0.95708 0.32471 0.18904 0.0
C145 C -0.00302 0.29797 0.17432 0.0
H146 H 0.90854 0.34484 0.26612 0.0
C147 C 0.02208 0.27726 0.22909 0.0
H148 H 0.93717 0.34135 0.14793 0.0
C149 C 0.00586 0.27933 0.29635 0.0
C150 C 0.96417 0.30221 0.3105 0.0
H151 H 0.05339 0.25718 0.21971 0.0
H152 H 0.02497 0.26057 0.33676 0.0
C153 C 0.94077 0.32685 0.25675 0.0
C154 C 0.95692 0.71327 0.30081 0.0
C155 C -0.0031 0.73986 0.31552 0.0
H156 H 0.90835 0.69329 0.22372 0.0
C157 C 0.02209 0.76042 0.26073 0.0
H158 H 0.93694 0.69675 0.34192 0.0
C159 C 0.00588 0.75836 0.19346 0.0
C160 C 0.96413 0.73565 0.17932 0.0
H161 H 0.05345 0.78038 0.27011 0.0
H162 H 0.02506 0.777 0.15304 0.0
C163 C 0.94064 0.71115 0.23308 0.0
C164 C -0.00366 0.77764 0.70347 0.0
C165 C 0.97038 0.79574 0.64794 0.0
H166 H 0.00049 0.76575 0.81255 0.0
C167 C 0.92592 0.81115 0.66023 0.0
H168 H 0.03067 0.76522 0.69569 0.0
C169 C 0.90865 0.81144 0.72715 0.0
C170 C 0.93548 0.79637 0.78325 0.0
H171 H 0.9049 0.82495 0.61855 0.0
H172 H 0.87478 0.82538 0.73507 0.0
C173 C 0.97906 0.77798 0.7705 0.0
C174 C 0.92603 0.22648 0.82963 0.0
C175 C 0.97047 0.24202 0.84189 0.0
H176 H 0.87489 0.21216 0.75485 0.0
C177 C -0.00364 0.26022 0.78634 0.0
H178 H 0.90507 0.2126 0.87133 0.0
C179 C 0.97905 0.25987 0.71933 0.0
C180 C 0.9355 0.24138 0.70662 0.0
H181 H 0.03066 0.27273 0.79409 0.0
H182 H 0.00043 0.27219 0.67726 0.0
C183 C 0.90873 0.22619 0.76274 0.0
C184 C 0.54444 0.82779 0.23321 0.0
C185 C 0.5209 0.80336 0.17944 0.0
H186 H 0.54818 0.84216 0.34204 0.0
C187 C 0.4791 0.78076 0.19359 0.0
H188 H 0.57677 0.84557 0.22384 0.0
C189 C 0.46289 0.77874 0.26085 0.0
C190 C 0.48813 0.79922 0.31564 0.0
H191 H 0.45988 0.76218 0.15316 0.0
H192 H 0.43149 0.75886 0.27024 0.0
C193 C 0.52816 0.82571 0.30093 0.0
C194 C 0.54433 0.21237 0.25645 0.0
C195 C 0.52088 0.23693 0.31022 0.0
H196 H 0.54795 0.19789 0.14762 0.0
C197 C 0.47915 0.2597 0.29609 0.0
H198 H 0.57659 0.19446 0.2658 0.0
C199 C 0.46291 0.26173 0.22884 0.0
C200 C 0.48805 0.2411 0.17405 0.0
H201 H 0.46 0.27839 0.33652 0.0
H202 H 0.43156 0.28173 0.21948 0.0
C203 C 0.52801 0.21446 0.18874 0.0
C204 C 0.48851 0.27892 0.78608 0.0
C205 C 0.51438 0.29715 0.84164 0.0
H206 H 0.48447 0.26694 0.67701 0.0
C207 C 0.5588 0.31277 0.82938 0.0
H208 H 0.45422 0.26636 0.79383 0.0
C209 C 0.57611 0.31309 0.76249 0.0
C210 C 0.54936 0.29785 0.70637 0.0
H211 H 0.57975 0.32667 0.87108 0.0
H212 H 0.60994 0.32716 0.7546 0.0
C213 C 0.50583 0.27929 0.71907 0.0
C214 C 0.57623 0.72745 0.72725 0.0
C215 C 0.54941 0.74256 0.78336 0.0
H216 H 0.57997 0.71395 0.61866 0.0
C217 C 0.50585 0.761 0.77062 0.0
H218 H 0.61009 0.71346 0.73517 0.0
C219 C 0.48858 0.76138 0.70359 0.0
C220 C 0.51452 0.74325 0.64805 0.0
H221 H 0.48444 0.77326 0.81268 0.0
H222 H 0.45426 0.77384 0.69582 0.0
C223 C 0.55897 0.72777 0.66034 0.0
C224 C 0.26454 0.2784 0.11782 0.0
C225 C 0.2872 0.28757 0.05546 0.0
H226 H 0.204 0.25396 0.16694 0.0
C227 C 0.2646 0.2784 -0.00701 0.0
H228 H 0.28095 0.28484 0.1669 0.0
C229 C 0.22026 0.2605 -0.00698 0.0
C230 C 0.19769 0.25129 0.05551 0.0
H231 H 0.28115 0.2849 0.94404 0.0
H232 H 0.20368 0.25403 0.94408 0.0
C233 C 0.22039 0.26042 0.11784 0.0
C234 C 0.72042 0.76028 0.00046 0.0
C235 C 0.6979 0.75073 0.06285 0.0
H236 H 0.7809 0.78523 0.9514 0.0
C237 C 0.72044 0.76005 0.1253 0.0
H238 H 0.70402 0.75361 0.95142 0.0
C239 C 0.76451 0.77873 0.12529 0.0
C240 C 0.78705 0.78807 0.06284 0.0
H241 H 0.70395 0.75339 0.17427 0.0
H242 H 0.78102 0.78538 0.17425 0.0
C243 C 0.76451 0.77854 0.00045 0.0
C244 C 0.22035 0.77844 0.37186 0.0
C245 C 0.19762 0.78744 0.4342 0.0
H246 H 0.28103 0.75439 0.32278 0.0
C247 C 0.22025 0.7784 0.49668 0.0
H248 H 0.20393 0.78479 0.32276 0.0
C249 C 0.26467 0.76079 0.49669 0.0
C250 C 0.28731 0.75174 0.43422 0.0
H251 H 0.20364 0.78478 0.54562 0.0
H252 H 0.28126 0.75441 0.54564 0.0
C253 C 0.2646 0.76074 0.37187 0.0
C254 C 0.72054 0.27915 0.36459 0.0
C255 C 0.69801 0.2886 0.42702 0.0
H256 H 0.781 0.25343 0.31566 0.0
C257 C 0.72047 0.27889 0.48943 0.0
H258 H 0.70409 0.28593 0.31562 0.0
C259 C 0.76447 0.26034 0.48945 0.0
C260 C 0.78698 0.25067 0.42708 0.0
H261 H 0.70409 0.28566 0.53846 0.0
H262 H 0.78081 0.25353 0.53851 0.0
C263 C 0.76451 0.26017 0.36461 0.0
loop_
_geom_bond_atom_site_label_1
_geom_bond_atom_site_label_2
_geom_bond_distance
_geom_bond_site_symmetry_2
_ccdc_geom_bond_type
C0 O1 1.160 . S
C0 O7 1.185 1_554 S
O1 C0 1.160 . S
O2 Zn3 1.899 . S
O2 C10 1.284 . S
Zn3 O2 1.899 . S
Zn3 O4 2.032 1_554 S
Zn3 O7 2.086 1_554 S
Zn3 O12 1.977 1_554 S
O4 Zn3 2.032 1_556 S
O4 C8 1.278 . S
C5 O6 1.203 1_455 S
C5 O12 1.267 1_554 S
O6 C5 1.203 1_655 S
O7 C0 1.185 1_556 S
O7 Zn3 2.086 1_556 S
C8 O4 1.278 . S
C8 O9 1.211 1_455 S
O9 C8 1.211 1_655 S
C10 O2 1.284 . S
C10 O11 1.273 1_455 S
O11 C10 1.273 1_655 S
O12 Zn3 1.977 1_556 S
O12 C5 1.267 1_556 S
C13 O14 1.160 . S
C13 O20 1.185 1_554 S
O14 C13 1.160 . S
O15 Zn16 1.899 . S
O15 C23 1.284 . S
Zn16 O15 1.899 . S
Zn16 O17 2.032 1_554 S
Zn16 O20 2.086 1_554 S
Zn16 O25 1.977 1_554 S
O17 Zn16 2.032 1_556 S
O17 C21 1.278 . S
C18 O19 1.203 1_655 S
C18 O25 1.267 1_554 S
O19 C18 1.203 1_455 S
O20 C13 1.185 1_556 S
O20 Zn16 2.086 1_556 S
C21 O17 1.278 . S
C21 O22 1.211 1_655 S
O22 C21 1.211 1_455 S
C23 O15 1.284 . S
C23 O24 1.273 1_655 S
O24 C23 1.273 1_455 S
O25 Zn16 1.977 1_556 S
O25 C18 1.267 1_556 S
C26 O27 1.160 . S
C26 O33 1.185 . S
O27 C26 1.160 . S
O28 Zn29 1.899 . S
O28 C36 1.284 . S
Zn29 O28 1.899 . S
Zn29 O30 2.032 . S
Zn29 O33 2.086 . S
Zn29 O38 1.977 . S
O30 Zn29 2.032 . S
O30 C34 1.278 . S
C31 O32 1.203 1_455 S
C31 O38 1.267 . S
O32 C31 1.203 1_655 S
O33 C26 1.185 . S
O33 Zn29 2.086 . S
C34 O30 1.278 . S
C34 O35 1.211 1_455 S
O35 C34 1.211 1_655 S
C36 O28 1.284 . S
C36 O37 1.273 1_455 S
O37 C36 1.273 1_655 S
O38 Zn29 1.977 . S
O38 C31 1.267 . S
C39 O40 1.160 . S
C39 O46 1.185 . S
O40 C39 1.160 . S
O41 Zn42 1.899 . S
O41 C49 1.284 . S
Zn42 O41 1.899 . S
Zn42 O43 2.032 . S
Zn42 O46 2.086 . S
Zn42 O51 1.977 . S
O43 Zn42 2.032 . S
O43 C47 1.278 . S
C44 O45 1.203 1_655 S
C44 O51 1.267 . S
O45 C44 1.203 1_455 S
O46 C39 1.185 . S
O46 Zn42 2.086 . S
C47 O43 1.278 . S
C47 O48 1.211 1_655 S
O48 C47 1.211 1_455 S
C49 O41 1.284 . S
C49 O50 1.273 1_655 S
O50 C49 1.273 1_455 S
O51 Zn42 1.977 . S
O51 C44 1.267 . S
C52 O53 1.160 . S
C52 O59 1.185 1_554 S
O53 C52 1.160 . S
O54 Zn55 1.899 . S
O54 C62 1.284 . S
Zn55 O54 1.899 . S
Zn55 O56 2.032 1_554 S
Zn55 O59 2.086 1_554 S
Zn55 O64 1.977 1_554 S
O56 Zn55 2.032 1_556 S
O56 C60 1.278 . S
C57 O58 1.203 . S
C57 O64 1.267 1_554 S
O58 C57 1.203 . S
O59 C52 1.185 1_556 S
O59 Zn55 2.086 1_556 S
C60 O56 1.278 . S
C60 O61 1.211 . S
O61 C60 1.211 . S
C62 O54 1.284 . S
C62 O63 1.273 . S
O63 C62 1.273 . S
O64 Zn55 1.977 1_556 S
O64 C57 1.267 1_556 S
C65 O66 1.160 . S
C65 O72 1.185 1_554 S
O66 C65 1.160 . S
O67 Zn68 1.899 . S
O67 C75 1.284 . S
Zn68 O67 1.899 . S
Zn68 O69 2.032 1_554 S
Zn68 O72 2.086 1_554 S
Zn68 O77 1.977 1_554 S
O69 Zn68 2.032 1_556 S
O69 C73 1.278 . S
C70 O71 1.203 . S
C70 O77 1.267 1_554 S
O71 C70 1.203 . S
O72 C65 1.185 1_556 S
O72 Zn68 2.086 1_556 S
C73 O69 1.278 . S
C73 O74 1.211 . S
O74 C73 1.211 . S
C75 O67 1.284 . S
C75 O76 1.273 . S
O76 C75 1.273 . S
O77 Zn68 1.977 1_556 S
O77 C70 1.267 1_556 S
C78 O79 1.160 . S
C78 O85 1.185 . S
O79 C78 1.160 . S
O80 Zn81 1.899 . S
O80 C88 1.284 . S
Zn81 O80 1.899 . S
Zn81 O82 2.032 . S
Zn81 O85 2.086 . S
Zn81 O90 1.977 . S
O82 Zn81 2.032 . S
O82 C86 1.278 . S
C83 O84 1.203 . S
C83 O90 1.267 . S
O84 C83 1.203 . S
O85 C78 1.185 . S
O85 Zn81 2.086 . S
C86 O82 1.278 . S
C86 O87 1.211 . S
O87 C86 1.211 . S
C88 O80 1.284 . S
C88 O89 1.273 . S
O89 C88 1.273 . S
O90 Zn81 1.977 . S
O90 C83 1.267 . S
C91 O92 1.160 . S
C91 O98 1.185 . S
O92 C91 1.160 . S
O93 Zn94 1.899 . S
O93 C101 1.284 . S
Zn94 O93 1.899 . S
Zn94 O95 2.032 . S
Zn94 O98 2.086 . S
Zn94 O103 1.977 . S
O95 Zn94 2.032 . S
O95 C99 1.278 . S
C96 O97 1.203 . S
C96 O103 1.267 . S
O97 C96 1.203 . S
O98 C91 1.185 . S
O98 Zn94 2.086 . S
C99 O95 1.278 . S
C99 O100 1.211 . S
O100 C99 1.211 . S
C101 O93 1.284 . S
C101 O102 1.273 . S
O102 C101 1.273 . S
O103 Zn94 1.977 . S
O103 C96 1.267 . S
C104 C105 1.387 . S
C104 H108 0.950 . S
C104 C113 1.390 1_665 S
C105 C104 1.387 . S
C105 C107 1.387 1_554 S
H106 C113 0.950 . S
C107 C105 1.387 1_556 S
C107 C109 1.390 1_665 S
C107 H111 0.950 . S
H108 C104 0.950 . S
C109 C107 1.390 1_445 S
C109 C110 1.387 1_556 S
C109 H112 0.950 . S
C110 C109 1.387 1_554 S
C110 C113 1.387 . S
H111 C107 0.950 . S
H112 C109 0.950 . S
C113 C104 1.390 1_445 S
C113 H106 0.950 . S
C113 C110 1.387 . S
C114 C115 1.387 . S
C114 H118 0.950 . S
C114 C123 1.390 1_465 S
C115 C114 1.387 . S
C115 C117 1.387 . S
H116 C123 0.950 . S
C117 C115 1.387 . S
C117 C119 1.390 1_465 S
C117 H121 0.950 . S
H118 C114 0.950 . S
C119 C117 1.390 1_645 S
C119 C120 1.387 . S
C119 H122 0.950 . S
C120 C119 1.387 . S
C120 C123 1.387 . S
H121 C117 0.950 . S
H122 C119 0.950 . S
C123 C114 1.390 1_645 S
C123 H116 0.950 . S
C123 C120 1.387 . S
C124 C125 1.387 . S
C124 H128 0.950 . S
C124 C133 1.390 . S
C125 C124 1.387 . S
C125 C127 1.387 1_554 S
H126 C133 0.950 . S
C127 C125 1.387 1_556 S
C127 C129 1.390 . S
C127 H131 0.950 . S
H128 C124 0.950 . S
C129 C127 1.390 . S
C129 C130 1.387 1_556 S
C129 H132 0.950 . S
C130 C129 1.387 1_554 S
C130 C133 1.387 . S
H131 C127 0.950 . S
H132 C129 0.950 . S
C133 C124 1.390 . S
C133 H126 0.950 . S
C133 C130 1.387 . S
C134 C135 1.387 . S
C134 H138 0.950 . S
C134 C143 1.390 . S
C135 C134 1.387 . S
C135 C137 1.387 . S
H136 C143 0.950 . S
C137 C135 1.387 . S
C137 C139 1.390 . S
C137 H141 0.950 . S
H138 C134 0.950 . S
C139 C137 1.390 . S
C139 C140 1.387 . S
C139 H142 0.950 . S
C140 C139 1.387 . S
C140 C143 1.387 . S
H141 C137 0.950 . S
H142 C139 0.950 . S
C143 C134 1.390 . S
C143 H136 0.950 . S
C143 C140 1.387 . S
C144 C145 1.387 . S
C144 H148 0.950 . S
C144 C153 1.390 1_455 S
C145 C144 1.387 . S
C145 C147 1.387 . S
H146 C153 0.950 . S
C147 C145 1.387 . S
C147 C149 1.390 1_455 S
C147 H151 0.950 . S
H148 C144 0.950 . S
C149 C147 1.390 1_655 S
C149 C150 1.387 . S
C149 H152 0.950 . S
C150 C149 1.387 . S
C150 C153 1.387 . S
H151 C147 0.950 . S
H152 C149 0.950 . S
C153 C144 1.390 1_655 S
C153 H146 0.950 . S
C153 C150 1.387 . S
C154 C155 1.387 . S
C154 H158 0.950 . S
C154 C163 1.390 1_455 S
C155 C154 1.387 . S
C155 C157 1.387 . S
H156 C163 0.950 . S
C157 C155 1.387 . S
C157 C159 1.390 1_455 S
C157 H161 0.950 . S
H158 C154 0.950 . S
C159 C157 1.390 1_655 S
C159 C160 1.387 . S
C159 H162 0.950 . S
C160 C159 1.387 . S
C160 C163 1.387 . S
H161 C157 0.950 . S
H162 C159 0.950 . S
C163 C154 1.390 1_655 S
C163 H156 0.950 . S
C163 C160 1.387 . S
C164 C165 1.387 . S
C164 H168 0.950 . S
C164 C173 1.390 1_455 S
C165 C164 1.387 . S
C165 C167 1.387 . S
H166 C173 0.950 . S
C167 C165 1.387 . S
C167 C169 1.390 1_455 S
C167 H171 0.950 . S
H168 C164 0.950 . S
C169 C167 1.390 1_655 S
C169 C170 1.387 . S
C169 H172 0.950 . S
C170 C169 1.387 . S
C170 C173 1.387 . S
H171 C167 0.950 . S
H172 C169 0.950 . S
C173 C164 1.390 1_655 S
C173 H166 0.950 . S
C173 C170 1.387 . S
C174 C175 1.387 . S
C174 H178 0.950 . S
C174 C183 1.390 1_455 S
C175 C174 1.387 . S
C175 C177 1.387 . S
H176 C183 0.950 . S
C177 C175 1.387 . S
C177 C179 1.390 1_455 S
C177 H181 0.950 . S
H178 C174 0.950 . S
C179 C177 1.390 1_655 S
C179 C180 1.387 . S
C179 H182 0.950 . S
C180 C179 1.387 . S
C180 C183 1.387 . S
H181 C177 0.950 . S
H182 C179 0.950 . S
C183 C174 1.390 1_655 S
C183 H176 0.950 . S
C183 C180 1.387 . S
C184 C185 1.387 . S
C184 H188 0.950 . S
C184 C193 1.390 . S
C185 C184 1.387 . S
C185 C187 1.387 . S
H186 C193 0.950 . S
C187 C185 1.387 . S
C187 C189 1.390 . S
C187 H191 0.950 . S
H188 C184 0.950 . S
C189 C187 1.390 . S
C189 C190 1.387 . S
C189 H192 0.950 . S
C190 C189 1.387 . S
C190 C193 1.387 . S
H191 C187 0.950 . S
H192 C189 0.950 . S
C193 C184 1.390 . S
C193 H186 0.950 . S
C193 C190 1.387 . S
C194 C195 1.387 . S
C194 H198 0.950 . S
C194 C203 1.390 . S
C195 C194 1.387 . S
C195 C197 1.387 . S
H196 C203 0.950 . S
C197 C195 1.387 . S
C197 C199 1.390 . S
C197 H201 0.950 . S
H198 C194 0.950 . S
C199 C197 1.390 . S
C199 C200 1.387 . S
C199 H202 0.950 . S
C200 C199 1.387 . S
C200 C203 1.387 . S
H201 C197 0.950 . S
H202 C199 0.950 . S
C203 C194 1.390 . S
C203 H196 0.950 . S
C203 C200 1.387 . S
C204 C205 1.387 . S
C204 H208 0.950 . S
C204 C213 1.390 . S
C205 C204 1.387 . S
C205 C207 1.387 . S
H206 C213 0.950 . S
C207 C205 1.387 . S
C207 C209 1.390 . S
C207 H211 0.950 . S
H208 C204 0.950 . S
C209 C207 1.390 . S
C209 C210 1.387 . S
C209 H212 0.950 . S
C210 C209 1.387 . S
C210 C213 1.387 . S
H211 C207 0.950 . S
H212 C209 0.950 . S
C213 C204 1.390 . S
C213 H206 0.950 . S
C213 C210 1.387 . S
C214 C215 1.387 . S
C214 H218 0.950 . S
C214 C223 1.390 . S
C215 C214 1.387 . S
C215 C217 1.387 . S
H216 C223 0.950 . S
C217 C215 1.387 . S
C217 C219 1.390 . S
C217 H221 0.950 . S
H218 C214 0.950 . S
C219 C217 1.390 . S
C219 C220 1.387 . S
C219 H222 0.950 . S
C220 C219 1.387 . S
C220 C223 1.387 . S
H221 C217 0.950 . S
H222 C219 0.950 . S
C223 C214 1.390 . S
C223 H216 0.950 . S
C223 C220 1.387 . S
C224 C225 1.384 1_554 S
C224 H228 0.950 . S
C224 C233 1.390 . S
C225 C224 1.384 1_556 S
C225 C227 1.391 . S
H226 C233 0.950 . S
C227 C225 1.391 . S
C227 C229 1.390 . S
C227 H231 0.950 . S
H228 C224 0.950 . S
C229 C227 1.390 . S
C229 C230 1.391 . S
C229 H232 0.950 . S
C230 C229 1.391 . S
C230 C233 1.384 1_556 S
H231 C227 0.950 . S
H232 C229 0.950 . S
C233 C224 1.390 . S
C233 H226 0.950 . S
C233 C230 1.384 1_554 S
C234 C235 1.391 . S
C234 H238 0.950 . S
C234 C243 1.390 . S
C235 C234 1.391 . S
C235 C237 1.384 1_556 S
H236 C243 0.950 . S
C237 C235 1.384 1_554 S
C237 C239 1.390 . S
C237 H241 0.950 . S
H238 C234 0.950 . S
C239 C237 1.390 . S
C239 C240 1.384 1_554 S
C239 H242 0.950 . S
C240 C239 1.384 1_556 S
C240 C243 1.391 . S
H241 C237 0.950 . S
H242 C239 0.950 . S
C243 C234 1.390 . S
C243 H236 0.950 . S
C243 C240 1.391 . S
C244 C245 1.387 . S
C244 H248 0.950 . S
C244 C253 1.390 . S
C245 C244 1.387 . S
C245 C247 1.387 . S
H246 C253 0.950 . S
C247 C245 1.387 . S
C247 C249 1.390 . S
C247 H251 0.950 . S
H248 C244 0.950 . S
C249 C247 1.390 . S
C249 C250 1.387 . S
C249 H252 0.950 . S
C250 C249 1.387 . S
C250 C253 1.387 . S
H251 C247 0.950 . S
H252 C249 0.950 . S
C253 C244 1.390 . S
C253 H246 0.950 . S
C253 C250 1.387 . S
C254 C255 1.387 . S
C254 H258 0.950 . S
C254 C263 1.390 . S
C255 C254 1.387 . S
C255 C257 1.387 . S
H256 C263 0.950 . S
C257 C255 1.387 . S
C257 C259 1.390 . S
C257 H261 0.950 . S
H258 C254 0.950 . S
C259 C257 1.390 . S
C259 C260 1.387 . S
C259 H262 0.950 . S
C260 C259 1.387 . S
C260 C263 1.387 . S
H261 C257 0.950 . S
H262 C259 0.950 . S
C263 C254 1.390 . S
C263 H256 0.950 . S
C263 C260 1.387 . S
C105 C18 1.472 . S
C110 C5 1.472 . S
C115 C31 1.472 . S
C120 C44 1.472 . S
C125 C57 1.472 . S
C130 C70 1.472 . S
C135 C83 1.469 . S
C140 C96 1.469 . S
C145 C10 1.382 . S
C150 C49 1.382 . S
C155 C36 1.382 . S
C160 C23 1.382 . S
C165 C34 1.272 . S
C170 C21 1.272 . S
C175 C8 1.271 . S
C180 C47 1.271 . S
C185 C62 1.382 . S
C190 C101 1.382 . S
C195 C88 1.382 . S
C200 C75 1.382 . S
C205 C73 1.272 . S
C210 C86 1.272 . S
C215 C60 1.271 . S
C220 C99 1.271 . S
C225 C65 1.525 1_556 S
C230 C0 1.525 1_556 S
C235 C52 1.525 1_556 S
C240 C13 1.525 1_556 S
C245 C26 1.526 . S
C250 C91 1.526 . S
C255 C78 1.526 . S
C260 C39 1.526 . S
