# Generated by pormake.
# Topology yfw, (5)-cn, num edge types: 1
# Building blocks:
#     Node 0, Type 0, BuildingBlock: XOMCOT_clean_sbu_1, # of connection points: 5
#     Node 1, Type 0, BuildingBlock: XOMCOT_clean_sbu_1, # of connection points: 5
#     Node 2, Type 0, BuildingBlock: XOMCOT_clean_sbu_1, # of connection points: 5
#     Node 3, Type 0, BuildingBlock: XOMCOT_clean_sbu_1, # of connection points: 5
#     Node 4, Type 0, BuildingBlock: XOMCOT_clean_sbu_1, # of connection points: 5
#     Node 5, Type 0, BuildingBlock: XOMCOT_clean_sbu_1, # of connection points: 5
#     Node 6, Type 0, BuildingBlock: XOMCOT_clean_sbu_1, # of connection points: 5
#     Node 7, Type 0, BuildingBlock: XOMCOT_clean_sbu_1, # of connection points: 5
#     Node 8, Type 0, BuildingBlock: XOMCOT_clean_sbu_1, # of connection points: 5
#     Node 9, Type 0, BuildingBlock: XOMCOT_clean_sbu_1, # of connection points: 5
#     Node 10, Type 0, BuildingBlock: XOMCOT_clean_sbu_1, # of connection points: 5
#     Node 11, Type 0, BuildingBlock: XOMCOT_clean_sbu_1, # of connection points: 5
#     Node 12, Type 0, BuildingBlock: XOMCOT_clean_sbu_1, # of connection points: 5
#     Node 13, Type 0, BuildingBlock: XOMCOT_clean_sbu_1, # of connection points: 5
#     Node 14, Type 0, BuildingBlock: XOMCOT_clean_sbu_1, # of connection points: 5
#     Node 15, Type 0, BuildingBlock: XOMCOT_clean_sbu_1, # of connection points: 5
#     Edge 16, Type (0, 0), None
#     Edge 17, Type (0, 0), None
#     Edge 18, Type (0, 0), None
#     Edge 19, Type (0, 0), None
#     Edge 20, Type (0, 0), None
#     Edge 21, Type (0, 0), None
#     Edge 22, Type (0, 0), None
#     Edge 23, Type (0, 0), None
#     Edge 24, Type (0, 0), None
#     Edge 25, Type (0, 0), None
#     Edge 26, Type (0, 0), None
#     Edge 27, Type (0, 0), None
#     Edge 28, Type (0, 0), None
#     Edge 29, Type (0, 0), None
#     Edge 30, Type (0, 0), None
#     Edge 31, Type (0, 0), None
#     Edge 32, Type (0, 0), None
#     Edge 33, Type (0, 0), None
#     Edge 34, Type (0, 0), None
#     Edge 35, Type (0, 0), None
#     Edge 36, Type (0, 0), None
#     Edge 37, Type (0, 0), None
#     Edge 38, Type (0, 0), None
#     Edge 39, Type (0, 0), None
#     Edge 40, Type (0, 0), None
#     Edge 41, Type (0, 0), None
#     Edge 42, Type (0, 0), None
#     Edge 43, Type (0, 0), None
#     Edge 44, Type (0, 0), None
#     Edge 45, Type (0, 0), None
#     Edge 46, Type (0, 0), None
#     Edge 47, Type (0, 0), None
#     Edge 48, Type (0, 0), None
#     Edge 49, Type (0, 0), None
#     Edge 50, Type (0, 0), None
#     Edge 51, Type (0, 0), None
#     Edge 52, Type (0, 0), None
#     Edge 53, Type (0, 0), None
#     Edge 54, Type (0, 0), None
#     Edge 55, Type (0, 0), None
# Relax obj value: 0.091
# Max RMSD: 0.147
# Mean RMSD: 0.147
data_MOF--net-yfw--node1-XOMCOT_clean_sbu_1--edge1-none
_symmetry_space_group_name_H-M    P1
_symmetry_Int_Tables_number       1
_symmetry_cell_setting            triclinic
loop_
_symmetry_equiv_pos_as_xyz
'x, y, z'
_cell_length_a     30.75069
_cell_length_b     30.7511
_cell_length_c     11.748131
_cell_angle_alpha  89.993231
_cell_angle_beta   89.999369
_cell_angle_gamma 89.999069
loop_
_atom_site_label
_atom_site_type_symbol
_atom_site_fract_x
_atom_site_fract_y
_atom_site_fract_z
_atom_type_partial_charge
C0 C 0.05051 0.08564 0.92117 0.0
C1 C 0.01168 0.06351 0.91367 0.0
N2 N 0.01969 0.02177 0.93997 0.0
N3 N 0.08221 0.05783 0.95398 0.0
C4 C 0.06237 0.01889 0.96361 0.0
H5 H 0.05532 0.11982 0.90364 0.0
Co6 Co 0.14043 0.07079 0.9783 0.0
C7 C 0.15422 0.02861 0.21363 0.0
O8 O 0.17218 0.06204 0.26415 0.0
N9 N 0.19965 0.08458 1.0017 0.0
C10 C 0.26123 0.11223 0.07129 0.0
C11 C 0.21752 0.10707 0.08911 0.0
C12 C 0.23329 0.07815 0.92933 0.0
N13 N 0.27104 0.09411 0.97079 0.0
O14 O 0.15635 0.02193 0.88509 0.0
H15 H 0.19975 0.12199 0.15796 0.0
H16 H 0.23 0.06365 0.84586 0.0
O17 O 0.14107 0.03108 0.11038 0.0
C18 C 0.14662 0.02048 0.77957 0.0
O19 O 0.12756 0.05399 0.73145 0.0
N20 N 0.12358 0.11947 0.06216 0.0
C21 C 0.10021 0.19791 0.16167 0.0
C22 C 0.08983 0.15844 0.21484 0.0
C23 C 0.10079 0.11926 0.16185 0.0
C24 C 0.13218 0.15757 1.00722 0.0
C25 C 0.12068 0.19731 0.05552 0.0
H26 H 0.09083 0.08902 0.20053 0.0
H27 H 0.14856 0.15694 0.92574 0.0
H28 H 0.07879 0.98915 0.98777 0.0
H29 H 0.98045 0.07664 0.88869 0.0
H30 H 0.28345 0.13089 0.12352 0.0
H31 H 0.07345 0.1581 0.29643 0.0
H32 H 0.12923 0.22731 1.01278 0.0
C33 C 0.92356 0.55053 0.1712 0.0
C34 C 0.94569 0.5117 0.16368 0.0
N35 N 0.98744 0.5197 0.18996 0.0
N36 N 0.95137 0.58222 0.204 0.0
C37 C 0.99032 0.56239 0.21361 0.0
H38 H 0.88938 0.55535 0.15369 0.0
Co39 Co 0.93841 0.64044 0.22832 0.0
C40 C 0.98061 0.65423 0.46362 0.0
O41 O 0.94718 0.67221 0.51415 0.0
N42 N 0.92463 0.69967 0.25172 0.0
C43 C 0.89698 0.76124 0.32129 0.0
C44 C 0.90214 0.71753 0.33913 0.0
C45 C 0.93105 0.7333 0.17934 0.0
N46 N 0.91509 0.77105 0.22079 0.0
O47 O 0.98728 0.65636 0.13509 0.0
H48 H 0.88721 0.69976 0.40798 0.0
H49 H 0.94555 0.73001 0.09586 0.0
O50 O 0.97813 0.64107 0.36039 0.0
C51 C 0.98872 0.64664 0.02957 0.0
O52 O 0.9552 0.6276 0.98147 0.0
N53 N 0.88973 0.62359 0.3122 0.0
C54 C 0.81129 0.60023 0.41171 0.0
C55 C 0.85075 0.58985 0.46489 0.0
C56 C 0.88994 0.60081 0.4119 0.0
C57 C 0.85164 0.63219 0.25725 0.0
C58 C 0.81189 0.62069 0.30555 0.0
H59 H 0.92018 0.59086 0.4506 0.0
H60 H 0.85228 0.64857 0.17575 0.0
H61 H 0.02005 0.5788 0.23775 0.0
H62 H 0.93256 0.48047 0.13871 0.0
H63 H 0.87831 0.78346 0.37353 0.0
H64 H 0.85109 0.57347 0.54649 0.0
H65 H 0.78189 0.62924 0.26279 0.0
C66 C 0.45867 0.42358 0.42118 0.0
C67 C 0.4975 0.44572 0.41368 0.0
N68 N 0.48949 0.48746 0.43997 0.0
N69 N 0.42697 0.45139 0.45398 0.0
C70 C 0.4468 0.49033 0.46361 0.0
H71 H 0.45385 0.38941 0.40366 0.0
Co72 Co 0.36875 0.43842 0.4783 0.0
C73 C 0.35495 0.4806 0.71361 0.0
O74 O 0.33699 0.44716 0.76416 0.0
N75 N 0.30952 0.42463 0.50169 0.0
C76 C 0.24795 0.39698 0.57127 0.0
C77 C 0.29165 0.40215 0.58911 0.0
C78 C 0.27589 0.43105 0.4293 0.0
N79 N 0.23814 0.41509 0.47075 0.0
O80 O 0.35283 0.48729 0.38507 0.0
H81 H 0.30942 0.38722 0.65798 0.0
H82 H 0.27919 0.44555 0.34581 0.0
O83 O 0.36811 0.47813 0.61037 0.0
C84 C 0.36256 0.48873 0.27955 0.0
O85 O 0.38163 0.45522 0.23147 0.0
N86 N 0.3856 0.38974 0.56218 0.0
C87 C 0.40897 0.3113 0.6617 0.0
C88 C 0.41935 0.35076 0.71486 0.0
C89 C 0.40839 0.38995 0.66187 0.0
C90 C 0.377 0.35164 0.50725 0.0
C91 C 0.38851 0.3119 0.55555 0.0
H92 H 0.41834 0.42019 0.70054 0.0
H93 H 0.36062 0.35228 0.42576 0.0
H94 H 0.43039 0.52007 0.48776 0.0
H95 H 0.52873 0.43258 0.38871 0.0
H96 H 0.22572 0.37832 0.62351 0.0
H97 H 0.43574 0.3511 0.79645 0.0
H98 H 0.37996 0.2819 0.51281 0.0
C99 C 0.58562 0.95868 0.67112 0.0
C100 C 0.56349 0.99751 0.66362 0.0
N101 N 0.52175 0.9895 0.68993 0.0
N102 N 0.55781 0.92698 0.70394 0.0
C103 C 0.51887 0.94682 0.71358 0.0
H104 H 0.6198 0.95386 0.65359 0.0
Co105 Co 0.57078 0.86876 0.72827 0.0
C106 C 0.52859 0.85497 0.96359 0.0
O107 O 0.56202 0.837 1.01412 0.0
N108 N 0.58457 0.80954 0.75168 0.0
C109 C 0.61221 0.74796 0.82127 0.0
C110 C 0.60705 0.79167 0.83909 0.0
C111 C 0.57814 0.77591 0.6793 0.0
N112 N 0.5941 0.73815 0.72076 0.0
O113 O 0.52191 0.85285 0.63505 0.0
H114 H 0.62198 0.80943 0.90795 0.0
H115 H 0.56364 0.7792 0.59582 0.0
O116 O 0.53106 0.86812 0.86035 0.0
C117 C 0.52046 0.86257 0.52953 0.0
O118 O 0.55398 0.88162 0.4814 0.0
N119 N 0.61946 0.88561 0.81213 0.0
C120 C 0.6979 0.90897 0.91166 0.0
C121 C 0.65843 0.91935 0.96482 0.0
C122 C 0.61924 0.90839 0.91182 0.0
C123 C 0.65756 0.87701 0.75721 0.0
C124 C 0.6973 0.88851 0.80551 0.0
H125 H 0.589 0.91835 0.95049 0.0
H126 H 0.65692 0.86063 0.67572 0.0
H127 H 0.48913 0.9304 0.73774 0.0
H128 H 0.57662 0.02874 0.63865 0.0
H129 H 0.63087 0.72573 0.87351 0.0
H130 H 0.65809 0.93574 0.04641 0.0
H131 H 0.7273 0.87996 0.76278 0.0
C132 C 0.95867 0.08562 0.4211 0.0
C133 C 0.9975 0.06349 0.4136 0.0
N134 N 0.9895 0.02175 0.43993 0.0
N135 N 0.92698 0.05782 0.45393 0.0
C136 C 0.94682 0.01887 0.46358 0.0
H137 H 0.95386 0.1198 0.40355 0.0
Co138 Co 0.86876 0.07078 0.47827 0.0
C139 C 0.85497 0.02858 0.71358 0.0
O140 O 0.83698 0.06201 0.7641 0.0
N141 N 0.80954 0.08457 0.50168 0.0
C142 C 0.74797 0.11223 0.57127 0.0
C143 C 0.79168 0.10707 0.58909 0.0
C144 C 0.7759 0.07815 0.42932 0.0
N145 N 0.73815 0.09411 0.47078 0.0
O146 O 0.85284 0.02192 0.38505 0.0
H147 H 0.80945 0.12199 0.65793 0.0
H148 H 0.77919 0.06365 0.34585 0.0
O149 O 0.86813 0.03106 0.61035 0.0
C150 C 0.86256 0.02048 0.27953 0.0
O151 O 0.8816 0.05399 0.2314 0.0
N152 N 0.88562 0.11946 0.56212 0.0
C153 C 0.90899 0.19789 0.66164 0.0
C154 C 0.91936 0.15842 0.71481 0.0
C155 C 0.9084 0.11924 0.66182 0.0
C156 C 0.87702 0.15756 0.50718 0.0
C157 C 0.88853 0.1973 0.55548 0.0
H158 H 0.91835 0.089 0.70051 0.0
H159 H 0.86064 0.15693 0.4257 0.0
H160 H 0.9304 0.98914 0.48775 0.0
H161 H 0.02874 0.07663 0.38863 0.0
H162 H 0.72575 0.13089 0.62351 0.0
H163 H 0.93575 0.15808 0.79641 0.0
H164 H 0.87998 0.2273 0.51274 0.0
C165 C 0.92358 0.45869 0.67113 0.0
C166 C 0.94571 0.49752 0.66364 0.0
N167 N 0.98745 0.48951 0.68996 0.0
N168 N 0.95138 0.42699 0.70395 0.0
C169 C 0.99033 0.44683 0.7136 0.0
H170 H 0.8894 0.45388 0.65359 0.0
Co171 Co 0.93841 0.36878 0.72826 0.0
C172 C 0.9806 0.35498 0.9636 0.0
O173 O 0.94717 0.33704 1.01418 0.0
N174 N 0.9246 0.30956 0.75164 0.0
C175 C 0.8969 0.24799 0.82118 0.0
C176 C 0.90214 0.29168 0.8391 0.0
C177 C 0.93093 0.27595 0.67914 0.0
N178 N 0.91491 0.23822 0.72052 0.0
O179 O 0.98727 0.35285 0.63504 0.0
H180 H 0.88727 0.30944 0.90804 0.0
H181 H 0.94542 0.27925 0.59564 0.0
O182 O 0.97812 0.36812 0.86034 0.0
C183 C 0.98871 0.36258 0.52951 0.0
O184 O 0.9552 0.38164 0.4814 0.0
N185 N 0.88973 0.38563 0.81214 0.0
C186 C 0.8113 0.40901 0.91168 0.0
C187 C 0.85077 0.41939 0.96483 0.0
C188 C 0.88995 0.40842 0.91182 0.0
C189 C 0.85163 0.37703 0.75723 0.0
C190 C 0.81189 0.38854 0.80554 0.0
H191 H 0.9202 0.41837 0.95048 0.0
H192 H 0.85226 0.36065 0.67575 0.0
H193 H 0.02006 0.43041 0.73777 0.0
H194 H 0.93258 0.52876 0.63867 0.0
H195 H 0.87827 0.22576 0.87347 0.0
H196 H 0.85112 0.43578 0.04641 0.0
H197 H 0.78189 0.38 0.76281 0.0
C198 C 0.5505 0.4236 0.9212 0.0
C199 C 0.51167 0.44573 0.91367 0.0
N200 N 0.51968 0.48747 0.93995 0.0
N201 N 0.5822 0.4514 0.95401 0.0
C202 C 0.56236 0.49035 0.96362 0.0
H203 H 0.55532 0.38942 0.90368 0.0
Co204 Co 0.64041 0.43843 0.97833 0.0
C205 C 0.65421 0.48062 0.21365 0.0
O206 O 0.67215 0.44718 0.26423 0.0
N207 N 0.69963 0.42462 1.0017 0.0
C208 C 0.7612 0.39693 0.07123 0.0
C209 C 0.71751 0.40216 0.08916 0.0
C210 C 0.73325 0.43096 0.9292 0.0
N211 N 0.77098 0.41493 0.97057 0.0
O212 O 0.65634 0.48729 0.88509 0.0
H213 H 0.69975 0.38728 0.1581 0.0
H214 H 0.72995 0.44544 0.84569 0.0
O215 O 0.64106 0.47814 0.1104 0.0
C216 C 0.64661 0.48873 0.77957 0.0
O217 O 0.62756 0.45522 0.73147 0.0
N218 N 0.62356 0.38975 0.0622 0.0
C219 C 0.60019 0.3113 0.16173 0.0
C220 C 0.58981 0.35077 0.2149 0.0
C221 C 0.60078 0.38996 0.1619 0.0
C222 C 0.63216 0.35165 1.00727 0.0
C223 C 0.62066 0.31191 0.05558 0.0
H224 H 0.59082 0.4202 0.20058 0.0
H225 H 0.64854 0.35229 0.92579 0.0
H226 H 0.57878 0.52008 0.98777 0.0
H227 H 0.48044 0.43259 0.88869 0.0
H228 H 0.78343 0.37829 0.12352 0.0
H229 H 0.57343 0.35111 0.29649 0.0
H230 H 0.6292 0.28191 1.01284 0.0
C231 C 0.58561 0.05051 0.17118 0.0
C232 C 0.56348 0.01168 0.16367 0.0
N233 N 0.52174 0.01969 0.18997 0.0
N234 N 0.5578 0.0822 0.20401 0.0
C235 C 0.51886 0.06237 0.21364 0.0
H236 H 0.61979 0.05532 0.15365 0.0
Co237 Co 0.57078 0.14041 0.22833 0.0
C238 C 0.52858 0.1542 0.46364 0.0
O239 O 0.56203 0.17211 0.51422 0.0
N240 N 0.5846 0.19963 0.25171 0.0
C241 C 0.61228 0.2612 0.32126 0.0
C242 C 0.60706 0.2175 0.33917 0.0
C243 C 0.57825 0.23325 0.17923 0.0
N244 N 0.59428 0.27098 0.22061 0.0
O245 O 0.52193 0.15635 0.13506 0.0
H246 H 0.62193 0.19974 0.40811 0.0
H247 H 0.56377 0.22996 0.09573 0.0
O248 O 0.53105 0.14107 0.36038 0.0
C249 C 0.52048 0.14662 0.02955 0.0
O250 O 0.55399 0.12755 0.98145 0.0
N251 N 0.61945 0.12354 0.31225 0.0
C252 C 0.69785 0.10009 0.41185 0.0
C253 C 0.65836 0.08971 0.46492 0.0
C254 C 0.6192 0.10072 0.41189 0.0
C255 C 0.65756 0.13216 0.25741 0.0
C256 C 0.69729 0.12062 0.30576 0.0
H257 H 0.58894 0.09076 0.45047 0.0
H258 H 0.65696 0.14857 0.17597 0.0
H259 H 0.48912 0.07878 0.2378 0.0
H260 H 0.57661 0.98045 0.13868 0.0
H261 H 0.63092 0.28342 0.37355 0.0
H262 H 0.65799 0.07329 0.54646 0.0
H263 H 0.7273 0.12917 0.2631 0.0
C264 C 0.55048 0.5856 0.42116 0.0
C265 C 0.51166 0.56346 0.41364 0.0
N266 N 0.51968 0.52172 0.43992 0.0
N267 N 0.58219 0.55781 0.45398 0.0
C268 C 0.56236 0.51885 0.46361 0.0
H269 H 0.55529 0.61979 0.40364 0.0
Co270 Co 0.6404 0.5708 0.47831 0.0
C271 C 0.65419 0.52861 0.71364 0.0
O272 O 0.67208 0.56207 0.76423 0.0
N273 N 0.69961 0.58462 0.50168 0.0
C274 C 0.76118 0.61231 0.57124 0.0
C275 C 0.71748 0.60708 0.58915 0.0
C276 C 0.73323 0.57829 0.4292 0.0
N277 N 0.77096 0.59431 0.47058 0.0
O278 O 0.65634 0.52195 0.38506 0.0
H279 H 0.69972 0.62195 0.65808 0.0
H280 H 0.72994 0.5638 0.3457 0.0
O281 O 0.64107 0.53107 0.61037 0.0
C282 C 0.6466 0.52049 0.27955 0.0
O283 O 0.62751 0.55399 0.23143 0.0
N284 N 0.62352 0.61946 0.56221 0.0
C285 C 0.60008 0.69786 0.66181 0.0
C286 C 0.58969 0.65837 0.71487 0.0
C287 C 0.60069 0.61921 0.66183 0.0
C288 C 0.63214 0.65758 0.50738 0.0
C289 C 0.6206 0.6973 0.55573 0.0
H290 H 0.59073 0.58895 0.70041 0.0
H291 H 0.64855 0.65698 0.42594 0.0
H292 H 0.57878 0.48912 0.48778 0.0
H293 H 0.48042 0.57659 0.38868 0.0
H294 H 0.7834 0.63095 0.62353 0.0
H295 H 0.57326 0.65799 0.7964 0.0
H296 H 0.62916 0.72732 0.51308 0.0
C297 C 0.4236 0.0505 0.6712 0.0
C298 C 0.44574 0.01168 0.66366 0.0
N299 N 0.48748 0.01969 0.68991 0.0
N300 N 0.4514 0.0822 0.70401 0.0
C301 C 0.49035 0.06237 0.7136 0.0
H302 H 0.38941 0.05531 0.6537 0.0
Co303 Co 0.43841 0.14041 0.72833 0.0
C304 C 0.48061 0.1542 0.96364 0.0
O305 O 0.44715 0.17211 1.01423 0.0
N306 N 0.42459 0.19963 0.7517 0.0
C307 C 0.39689 0.26119 0.82124 0.0
C308 C 0.40213 0.21749 0.83916 0.0
C309 C 0.43092 0.23325 0.6792 0.0
N310 N 0.41489 0.27097 0.72058 0.0
O311 O 0.48726 0.15635 0.63506 0.0
H312 H 0.38726 0.19973 0.90811 0.0
H313 H 0.4454 0.22995 0.5957 0.0
O314 O 0.47814 0.14107 0.86038 0.0
C315 C 0.48871 0.14662 0.52955 0.0
O316 O 0.4552 0.12755 0.48145 0.0
N317 N 0.38974 0.12354 0.81225 0.0
C318 C 0.31134 0.10009 0.91185 0.0
C319 C 0.35083 0.08971 0.96492 0.0
C320 C 0.38999 0.10071 0.91188 0.0
C321 C 0.35163 0.13215 0.75741 0.0
C322 C 0.31191 0.12061 0.80576 0.0
H323 H 0.42025 0.09076 0.95048 0.0
H324 H 0.35224 0.14856 0.67596 0.0
H325 H 0.52008 0.07879 0.73776 0.0
H326 H 0.43261 0.98044 0.6387 0.0
H327 H 0.37825 0.28341 0.87354 0.0
H328 H 0.3512 0.07328 0.04646 0.0
H329 H 0.28189 0.12916 0.76309 0.0
C330 C 0.95869 0.92362 0.92117 0.0
C331 C 0.99752 0.94576 0.91365 0.0
N332 N 0.9895 0.9875 0.93993 0.0
N333 N 0.92699 0.95141 0.95399 0.0
C334 C 0.94682 0.99037 0.9636 0.0
H335 H 0.95389 0.88944 0.90366 0.0
Co336 Co 0.86878 0.93842 0.9783 0.0
C337 C 0.85498 0.9806 0.21362 0.0
O338 O 0.8371 0.94714 0.26424 0.0
N339 N 0.80956 0.92459 1.00167 0.0
C340 C 0.748 0.89689 0.07122 0.0
C341 C 0.79169 0.90214 0.08915 0.0
C342 C 0.77595 0.93092 0.92916 0.0
N343 N 0.73822 0.91489 0.97054 0.0
O344 O 0.85284 0.98727 0.88504 0.0
H345 H 0.80945 0.88727 0.15811 0.0
H346 H 0.77925 0.9454 0.84566 0.0
O347 O 0.86811 0.97814 0.11035 0.0
C348 C 0.86258 0.98872 0.77953 0.0
O349 O 0.88168 0.95523 0.73145 0.0
N350 N 0.88566 0.88975 0.06223 0.0
C351 C 0.90911 0.81135 0.16184 0.0
C352 C 0.91949 0.85084 0.21489 0.0
C353 C 0.90849 0.89 0.16185 0.0
C354 C 0.87704 0.85164 1.0074 0.0
C355 C 0.88859 0.81192 0.05576 0.0
H356 H 0.91845 0.92026 0.20042 0.0
H357 H 0.86063 0.85225 0.92596 0.0
H358 H 0.93039 0.02009 0.98777 0.0
H359 H 0.02876 0.93263 0.8887 0.0
H360 H 0.72577 0.87826 0.12352 0.0
H361 H 0.93592 0.85121 0.29642 0.0
H362 H 0.88003 0.7819 1.01311 0.0
C363 C 0.08558 0.4587 0.17111 0.0
C364 C 0.06344 0.49753 0.1636 0.0
N365 N 0.0217 0.48951 0.18989 0.0
N366 N 0.05779 0.427 0.20394 0.0
C367 C 0.01884 0.44683 0.21357 0.0
H368 H 0.11977 0.4539 0.15359 0.0
Co369 Co 0.07078 0.36879 0.22827 0.0
C370 C 0.02859 0.355 0.4636 0.0
O371 O 0.06205 0.3371 0.51421 0.0
N372 N 0.08461 0.30958 0.25166 0.0
C373 C 0.1123 0.24801 0.32122 0.0
C374 C 0.10706 0.2917 0.33913 0.0
C375 C 0.07827 0.27596 0.17917 0.0
N376 N 0.0943 0.23824 0.22055 0.0
O377 O 0.02193 0.35285 0.13502 0.0
H378 H 0.12193 0.30946 0.40808 0.0
H379 H 0.06379 0.27926 0.09567 0.0
O380 O 0.03105 0.36812 0.36033 0.0
C381 C 0.02047 0.36258 0.02951 0.0
O382 O 0.05397 0.38167 0.98139 0.0
N383 N 0.11945 0.38567 0.31218 0.0
C384 C 0.19784 0.40911 0.4118 0.0
C385 C 0.15835 0.4195 0.46485 0.0
C386 C 0.11919 0.40849 0.4118 0.0
C387 C 0.15756 0.37705 0.25737 0.0
C388 C 0.19728 0.38859 0.30572 0.0
H389 H 0.08893 0.41845 0.45037 0.0
H390 H 0.15696 0.36064 0.17593 0.0
H391 H 0.98911 0.43041 0.23776 0.0
H392 H 0.07657 0.52877 0.13864 0.0
H393 H 0.13093 0.22578 0.37352 0.0
H394 H 0.15798 0.43592 0.54637 0.0
H395 H 0.22731 0.38004 0.26308 0.0
C396 C 0.45867 0.58561 0.9211 0.0
C397 C 0.4975 0.56347 0.9136 0.0
N398 N 0.48948 0.52173 0.93989 0.0
N399 N 0.42697 0.55781 0.95393 0.0
C400 C 0.4468 0.51886 0.96356 0.0
H401 H 0.45386 0.61979 0.90358 0.0
Co402 Co 0.36875 0.57078 0.97826 0.0
C403 C 0.35496 0.5286 0.2136 0.0
O404 O 0.33702 0.56204 0.26412 0.0
N405 N 0.30953 0.58457 1.00168 0.0
C406 C 0.24796 0.61222 0.07127 0.0
C407 C 0.29167 0.60706 0.08909 0.0
C408 C 0.27589 0.57815 0.92932 0.0
N409 N 0.23815 0.59411 0.97077 0.0
O410 O 0.35283 0.52191 0.88505 0.0
H411 H 0.30944 0.62199 0.15793 0.0
H412 H 0.27918 0.56365 0.84584 0.0
O413 O 0.36811 0.53106 0.11035 0.0
C414 C 0.36255 0.52047 0.77954 0.0
O415 O 0.38163 0.55397 0.73143 0.0
N416 N 0.38561 0.61946 0.06212 0.0
C417 C 0.40899 0.69789 0.16163 0.0
C418 C 0.41937 0.65842 0.21479 0.0
C419 C 0.40841 0.61924 0.1618 0.0
C420 C 0.37701 0.65756 1.00719 0.0
C421 C 0.38852 0.69729 0.05548 0.0
H422 H 0.41836 0.58899 0.20046 0.0
H423 H 0.36062 0.65692 0.92571 0.0
H424 H 0.43039 0.48913 0.98775 0.0
H425 H 0.52873 0.57661 0.88865 0.0
H426 H 0.22574 0.63089 0.12351 0.0
H427 H 0.43576 0.65807 0.29637 0.0
H428 H 0.37997 0.7273 1.01275 0.0
C429 C 0.42359 0.95869 0.17114 0.0
C430 C 0.44573 0.99751 0.16364 0.0
N431 N 0.48747 0.98949 0.18992 0.0
N432 N 0.45139 0.92698 0.20395 0.0
C433 C 0.49034 0.94681 0.21358 0.0
H434 H 0.38941 0.95388 0.15362 0.0
Co435 Co 0.43841 0.86877 0.22826 0.0
C436 C 0.48059 0.85498 0.46361 0.0
O437 O 0.44714 0.83707 0.51421 0.0
N438 N 0.4246 0.80955 0.25163 0.0
C439 C 0.39691 0.74798 0.32118 0.0
C440 C 0.40214 0.79167 0.3391 0.0
C441 C 0.43093 0.77594 0.17913 0.0
N442 N 0.41491 0.73821 0.22051 0.0
O443 O 0.48728 0.85284 0.13504 0.0
H444 H 0.38727 0.80943 0.40805 0.0
H445 H 0.44541 0.77924 0.09563 0.0
O446 O 0.47813 0.86811 0.36034 0.0
C447 C 0.48872 0.86258 0.02953 0.0
O448 O 0.45522 0.88166 0.98143 0.0
N449 N 0.38973 0.88563 0.31213 0.0
C450 C 0.3113 0.90901 0.41166 0.0
C451 C 0.35077 0.9194 0.4648 0.0
C452 C 0.38996 0.90843 0.4118 0.0
C453 C 0.35163 0.87702 0.25723 0.0
C454 C 0.3119 0.88853 0.30554 0.0
H455 H 0.4202 0.91839 0.45044 0.0
H456 H 0.35226 0.86063 0.17576 0.0
H457 H 0.52007 0.93039 0.23776 0.0
H458 H 0.4326 0.02875 0.13869 0.0
H459 H 0.37827 0.72575 0.37347 0.0
H460 H 0.35112 0.93579 0.54637 0.0
H461 H 0.28189 0.87998 0.26282 0.0
C462 C 0.05051 0.92361 0.4212 0.0
C463 C 0.01168 0.94575 0.41367 0.0
N464 N 0.0197 0.98749 0.43992 0.0
N465 N 0.08221 0.95141 0.45401 0.0
C466 C 0.06238 0.99036 0.4636 0.0
H467 H 0.05532 0.88943 0.4037 0.0
Co468 Co 0.14042 0.93843 0.47832 0.0
C469 C 0.15421 0.98061 0.71366 0.0
O470 O 0.17212 0.94716 0.76426 0.0
N471 N 0.19964 0.92462 0.50169 0.0
C472 C 0.26121 0.89693 0.57123 0.0
C473 C 0.21751 0.90216 0.58916 0.0
C474 C 0.23325 0.93096 0.42919 0.0
N475 N 0.27098 0.91493 0.47056 0.0
O476 O 0.15635 0.9873 0.38509 0.0
H477 H 0.19976 0.88729 0.6581 0.0
H478 H 0.22995 0.94544 0.34568 0.0
O479 O 0.14108 0.97814 0.6104 0.0
C480 C 0.14662 0.98874 0.27958 0.0
O481 O 0.12754 0.95524 0.23149 0.0
N482 N 0.12356 0.88975 0.5622 0.0
C483 C 0.10019 0.81131 0.66171 0.0
C484 C 0.0898 0.85078 0.71487 0.0
C485 C 0.10077 0.88996 0.66187 0.0
C486 C 0.13217 0.85166 0.50727 0.0
C487 C 0.12067 0.81192 0.55558 0.0
H488 H 0.09081 0.92021 0.70053 0.0
H489 H 0.14856 0.8523 0.4258 0.0
H490 H 0.07879 0.02009 0.48776 0.0
H491 H 0.98044 0.93261 0.38871 0.0
H492 H 0.28344 0.87829 0.62352 0.0
H493 H 0.07341 0.85112 0.79645 0.0
H494 H 0.12922 0.78192 0.51285 0.0
C495 C 0.0856 0.55051 0.67119 0.0
C496 C 0.06346 0.51169 0.66366 0.0
N497 N 0.02172 0.5197 0.68994 0.0
N498 N 0.05779 0.58221 0.70401 0.0
C499 C 0.01884 0.56238 0.71362 0.0
H500 H 0.11978 0.55532 0.65368 0.0
Co501 Co 0.07078 0.64042 0.72833 0.0
C502 C 0.0286 0.6542 0.96365 0.0
O503 O 0.06206 0.67208 1.01425 0.0
N504 N 0.0846 0.69964 0.7517 0.0
C505 C 0.11228 0.7612 0.82126 0.0
C506 C 0.10705 0.71751 0.83917 0.0
C507 C 0.07826 0.73326 0.67922 0.0
N508 N 0.09428 0.77099 0.7206 0.0
O509 O 0.02193 0.65636 0.63507 0.0
H510 H 0.12193 0.69974 0.90811 0.0
H511 H 0.06377 0.72996 0.59572 0.0
O512 O 0.03105 0.64109 0.86038 0.0
C513 C 0.02047 0.64662 0.52956 0.0
O514 O 0.05397 0.62753 0.48148 0.0
N515 N 0.11944 0.62355 0.81224 0.0
C516 C 0.19785 0.6001 0.91184 0.0
C517 C 0.15836 0.5897 0.96489 0.0
C518 C 0.11919 0.60071 0.91186 0.0
C519 C 0.15756 0.63217 0.75742 0.0
C520 C 0.19728 0.62063 0.80576 0.0
H521 H 0.08893 0.59074 0.95043 0.0
H522 H 0.15695 0.64859 0.67598 0.0
H523 H 0.98911 0.5788 0.73779 0.0
H524 H 0.07659 0.48045 0.6387 0.0
H525 H 0.13091 0.78343 0.87355 0.0
H526 H 0.15799 0.57327 0.04642 0.0
H527 H 0.2273 0.62919 0.76311 0.0
loop_
_geom_bond_atom_site_label_1
_geom_bond_atom_site_label_2
_geom_bond_distance
_geom_bond_site_symmetry_2
_ccdc_geom_bond_type
C0 C1 1.351 . S
C0 N3 1.368 . S
C0 H5 0.931 . S
C1 C0 1.351 . S
C1 N2 1.373 1_546 S
C1 H29 0.930 1_455 S
N2 C1 1.373 1_564 S
N2 C4 1.340 1_565 S
N3 C0 1.368 . S
N3 C4 1.321 1_556 S
N3 Co6 2.135 . S
C4 N2 1.340 1_545 S
C4 N3 1.321 1_554 S
C4 H28 0.930 1_545 S
H5 C0 0.931 . S
Co6 N3 2.135 . S
Co6 N9 2.121 . S
Co6 O14 2.055 1_545 S
Co6 O17 2.039 1_546 S
Co6 N20 2.140 1_556 S
C7 O8 1.227 . S
C7 O17 1.265 1_545 S
O8 C7 1.227 . S
N9 Co6 2.121 . S
N9 C11 1.375 1_556 S
N9 C12 1.313 . S
C10 C11 1.338 . S
C10 N13 1.377 1_554 S
C10 H30 0.930 . S
C11 N9 1.375 1_554 S
C11 C10 1.338 . S
C11 H15 0.931 . S
C12 N9 1.313 . S
C12 N13 1.344 . S
C12 H16 0.930 . S
N13 C10 1.377 1_556 S
N13 C12 1.344 . S
O14 Co6 2.055 1_565 S
O14 C18 1.253 1_565 S
H15 C11 0.931 . S
H16 C12 0.930 . S
O17 Co6 2.039 1_564 S
O17 C7 1.265 1_565 S
C18 O14 1.253 1_545 S
C18 O19 1.227 . S
O19 C18 1.227 . S
N20 Co6 2.140 1_554 S
N20 C23 1.346 . S
N20 C24 1.345 1_554 S
C21 C22 1.387 . S
C21 C25 1.391 1_554 S
C22 C21 1.387 . S
C22 C23 1.369 . S
C22 H31 0.929 . S
C23 N20 1.346 . S
C23 C22 1.369 . S
C23 H26 0.928 . S
C24 N20 1.345 1_556 S
C24 C25 1.371 . S
C24 H27 0.931 . S
C25 C21 1.391 1_556 S
C25 C24 1.371 . S
C25 H32 0.930 . S
H26 C23 0.928 . S
H27 C24 0.931 . S
H28 C4 0.930 1_565 S
H29 C1 0.930 1_655 S
H30 C10 0.930 . S
H31 C22 0.929 . S
H32 C25 0.930 . S
C33 C34 1.351 . S
C33 N36 1.368 . S
C33 H38 0.931 . S
C34 C33 1.351 . S
C34 N35 1.373 1_655 S
C34 H62 0.930 . S
N35 C34 1.373 1_455 S
N35 C37 1.340 1_455 S
N36 C33 1.368 . S
N36 C37 1.321 . S
N36 Co39 2.135 . S
C37 N35 1.340 1_655 S
C37 N36 1.321 . S
C37 H61 0.930 1_655 S
H38 C33 0.931 . S
Co39 N36 2.135 . S
Co39 N42 2.121 . S
Co39 O47 2.055 1_655 S
Co39 O50 2.039 1_655 S
Co39 N53 2.140 . S
C40 O41 1.227 . S
C40 O50 1.265 1_655 S
O41 C40 1.227 . S
N42 Co39 2.121 . S
N42 C44 1.375 . S
N42 C45 1.313 . S
C43 C44 1.338 . S
C43 N46 1.377 . S
C43 H63 0.930 . S
C44 N42 1.375 . S
C44 C43 1.338 . S
C44 H48 0.931 . S
C45 N42 1.313 . S
C45 N46 1.344 . S
C45 H49 0.930 . S
N46 C43 1.377 . S
N46 C45 1.344 . S
O47 Co39 2.055 1_455 S
O47 C51 1.253 1_455 S
H48 C44 0.931 . S
H49 C45 0.930 . S
O50 Co39 2.039 1_455 S
O50 C40 1.265 1_455 S
C51 O47 1.253 1_655 S
C51 O52 1.227 . S
O52 C51 1.227 . S
N53 Co39 2.140 . S
N53 C56 1.346 . S
N53 C57 1.345 . S
C54 C55 1.387 . S
C54 C58 1.391 . S
C55 C54 1.387 . S
C55 C56 1.369 . S
C55 H64 0.929 . S
C56 N53 1.346 . S
C56 C55 1.369 . S
C56 H59 0.928 . S
C57 N53 1.345 . S
C57 C58 1.371 . S
C57 H60 0.931 . S
C58 C54 1.391 . S
C58 C57 1.371 . S
C58 H65 0.930 . S
H59 C56 0.928 . S
H60 C57 0.931 . S
H61 C37 0.930 1_455 S
H62 C34 0.930 . S
H63 C43 0.930 . S
H64 C55 0.929 . S
H65 C58 0.930 . S
C66 C67 1.351 . S
C66 N69 1.368 . S
C66 H71 0.931 . S
C67 C66 1.351 . S
C67 N68 1.373 . S
C67 H95 0.930 . S
N68 C67 1.373 . S
N68 C70 1.340 . S
N69 C66 1.368 . S
N69 C70 1.321 . S
N69 Co72 2.135 . S
C70 N68 1.340 . S
C70 N69 1.321 . S
C70 H94 0.930 . S
H71 C66 0.931 . S
Co72 N69 2.135 . S
Co72 N75 2.121 . S
Co72 O80 2.055 . S
Co72 O83 2.039 . S
Co72 N86 2.140 . S
C73 O74 1.227 . S
C73 O83 1.265 . S
O74 C73 1.227 . S
N75 Co72 2.121 . S
N75 C77 1.375 . S
N75 C78 1.313 . S
C76 C77 1.338 . S
C76 N79 1.377 . S
C76 H96 0.930 . S
C77 N75 1.375 . S
C77 C76 1.338 . S
C77 H81 0.931 . S
C78 N75 1.313 . S
C78 N79 1.344 . S
C78 H82 0.930 . S
N79 C76 1.377 . S
N79 C78 1.344 . S
O80 Co72 2.055 . S
O80 C84 1.253 . S
H81 C77 0.931 . S
H82 C78 0.930 . S
O83 Co72 2.039 . S
O83 C73 1.265 . S
C84 O80 1.253 . S
C84 O85 1.227 . S
O85 C84 1.227 . S
N86 Co72 2.140 . S
N86 C89 1.346 . S
N86 C90 1.345 . S
C87 C88 1.387 . S
C87 C91 1.391 . S
C88 C87 1.387 . S
C88 C89 1.369 . S
C88 H97 0.929 . S
C89 N86 1.346 . S
C89 C88 1.369 . S
C89 H92 0.928 . S
C90 N86 1.345 . S
C90 C91 1.371 . S
C90 H93 0.931 . S
C91 C87 1.391 . S
C91 C90 1.371 . S
C91 H98 0.930 . S
H92 C89 0.928 . S
H93 C90 0.931 . S
H94 C70 0.930 . S
H95 C67 0.930 . S
H96 C76 0.930 . S
H97 C88 0.929 . S
H98 C91 0.930 . S
C99 C100 1.351 . S
C99 N102 1.368 . S
C99 H104 0.931 . S
C100 C99 1.351 . S
C100 N101 1.373 . S
C100 H128 0.930 1_565 S
N101 C100 1.373 . S
N101 C103 1.340 . S
N102 C99 1.368 . S
N102 C103 1.321 . S
N102 Co105 2.135 . S
C103 N101 1.340 . S
C103 N102 1.321 . S
C103 H127 0.930 . S
H104 C99 0.931 . S
Co105 N102 2.135 . S
Co105 N108 2.121 . S
Co105 O113 2.055 . S
Co105 O116 2.039 . S
Co105 N119 2.140 . S
C106 O107 1.227 . S
C106 O116 1.265 . S
O107 C106 1.227 . S
N108 Co105 2.121 . S
N108 C110 1.375 . S
N108 C111 1.313 . S
C109 C110 1.338 . S
C109 N112 1.377 . S
C109 H129 0.930 . S
C110 N108 1.375 . S
C110 C109 1.338 . S
C110 H114 0.931 . S
C111 N108 1.313 . S
C111 N112 1.344 . S
C111 H115 0.930 . S
N112 C109 1.377 . S
N112 C111 1.344 . S
O113 Co105 2.055 . S
O113 C117 1.253 . S
H114 C110 0.931 . S
H115 C111 0.930 . S
O116 Co105 2.039 . S
O116 C106 1.265 . S
C117 O113 1.253 . S
C117 O118 1.227 . S
O118 C117 1.227 . S
N119 Co105 2.140 . S
N119 C122 1.346 . S
N119 C123 1.345 . S
C120 C121 1.387 . S
C120 C124 1.391 . S
C121 C120 1.387 . S
C121 C122 1.369 . S
C121 H130 0.929 . S
C122 N119 1.346 . S
C122 C121 1.369 . S
C122 H125 0.928 . S
C123 N119 1.345 . S
C123 C124 1.371 . S
C123 H126 0.931 . S
C124 C120 1.391 . S
C124 C123 1.371 . S
C124 H131 0.930 . S
H125 C122 0.928 . S
H126 C123 0.931 . S
H127 C103 0.930 . S
H128 C100 0.930 1_545 S
H129 C109 0.930 . S
H130 C121 0.929 . S
H131 C124 0.930 . S
C132 C133 1.351 . S
C132 N135 1.368 . S
C132 H137 0.931 . S
C133 C132 1.351 . S
C133 N134 1.373 1_545 S
C133 H161 0.930 1_655 S
N134 C133 1.373 1_565 S
N134 C136 1.340 1_565 S
N135 C132 1.368 . S
N135 C136 1.321 . S
N135 Co138 2.135 . S
C136 N134 1.340 1_545 S
C136 N135 1.321 . S
C136 H160 0.930 1_545 S
H137 C132 0.931 . S
Co138 N135 2.135 . S
Co138 N141 2.121 . S
Co138 O146 2.055 1_545 S
Co138 O149 2.039 1_545 S
Co138 N152 2.140 . S
C139 O140 1.227 . S
C139 O149 1.265 1_545 S
O140 C139 1.227 . S
N141 Co138 2.121 . S
N141 C143 1.375 . S
N141 C144 1.313 . S
C142 C143 1.338 . S
C142 N145 1.377 . S
C142 H162 0.930 . S
C143 N141 1.375 . S
C143 C142 1.338 . S
C143 H147 0.931 . S
C144 N141 1.313 . S
C144 N145 1.344 . S
C144 H148 0.930 . S
N145 C142 1.377 . S
N145 C144 1.344 . S
O146 Co138 2.055 1_565 S
O146 C150 1.253 1_565 S
H147 C143 0.931 . S
H148 C144 0.930 . S
O149 Co138 2.039 1_565 S
O149 C139 1.265 1_565 S
C150 O146 1.253 1_545 S
C150 O151 1.227 . S
O151 C150 1.227 . S
N152 Co138 2.140 . S
N152 C155 1.346 . S
N152 C156 1.345 . S
C153 C154 1.387 . S
C153 C157 1.391 . S
C154 C153 1.387 . S
C154 C155 1.369 . S
C154 H163 0.929 . S
C155 N152 1.346 . S
C155 C154 1.369 . S
C155 H158 0.928 . S
C156 N152 1.345 . S
C156 C157 1.371 . S
C156 H159 0.931 . S
C157 C153 1.391 . S
C157 C156 1.371 . S
C157 H164 0.930 . S
H158 C155 0.928 . S
H159 C156 0.931 . S
H160 C136 0.930 1_565 S
H161 C133 0.930 1_455 S
H162 C142 0.930 . S
H163 C154 0.929 . S
H164 C157 0.930 . S
C165 C166 1.351 . S
C165 N168 1.368 . S
C165 H170 0.931 . S
C166 C165 1.351 . S
C166 N167 1.373 1_655 S
C166 H194 0.930 . S
N167 C166 1.373 1_455 S
N167 C169 1.340 1_455 S
N168 C165 1.368 . S
N168 C169 1.321 . S
N168 Co171 2.135 . S
C169 N167 1.340 1_655 S
C169 N168 1.321 . S
C169 H193 0.930 1_655 S
H170 C165 0.931 . S
Co171 N168 2.135 . S
Co171 N174 2.121 . S
Co171 O179 2.055 1_655 S
Co171 O182 2.039 1_655 S
Co171 N185 2.140 . S
C172 O173 1.227 . S
C172 O182 1.265 1_655 S
O173 C172 1.227 . S
N174 Co171 2.121 . S
N174 C176 1.375 . S
N174 C177 1.313 . S
C175 C176 1.338 . S
C175 N178 1.377 . S
C175 H195 0.930 . S
C176 N174 1.375 . S
C176 C175 1.338 . S
C176 H180 0.931 . S
C177 N174 1.313 . S
C177 N178 1.344 . S
C177 H181 0.930 . S
N178 C175 1.377 . S
N178 C177 1.344 . S
O179 Co171 2.055 1_455 S
O179 C183 1.253 1_455 S
H180 C176 0.931 . S
H181 C177 0.930 . S
O182 Co171 2.039 1_455 S
O182 C172 1.265 1_455 S
C183 O179 1.253 1_655 S
C183 O184 1.227 . S
O184 C183 1.227 . S
N185 Co171 2.140 . S
N185 C188 1.346 . S
N185 C189 1.345 . S
C186 C187 1.387 . S
C186 C190 1.391 . S
C187 C186 1.387 . S
C187 C188 1.369 . S
C187 H196 0.929 . S
C188 N185 1.346 . S
C188 C187 1.369 . S
C188 H191 0.928 . S
C189 N185 1.345 . S
C189 C190 1.371 . S
C189 H192 0.931 . S
C190 C186 1.391 . S
C190 C189 1.371 . S
C190 H197 0.930 . S
H191 C188 0.928 . S
H192 C189 0.931 . S
H193 C169 0.930 1_455 S
H194 C166 0.930 . S
H195 C175 0.930 . S
H196 C187 0.929 . S
H197 C190 0.930 . S
C198 C199 1.351 . S
C198 N201 1.368 . S
C198 H203 0.931 . S
C199 C198 1.351 . S
C199 N200 1.373 1_556 S
C199 H227 0.930 . S
N200 C199 1.373 1_554 S
N200 C202 1.340 . S
N201 C198 1.368 . S
N201 C202 1.321 1_556 S
N201 Co204 2.135 . S
C202 N200 1.340 . S
C202 N201 1.321 1_554 S
C202 H226 0.930 . S
H203 C198 0.931 . S
Co204 N201 2.135 . S
Co204 N207 2.121 . S
Co204 O212 2.055 . S
Co204 O215 2.039 1_556 S
Co204 N218 2.140 1_556 S
C205 O206 1.227 . S
C205 O215 1.265 . S
O206 C205 1.227 . S
N207 Co204 2.121 . S
N207 C209 1.375 1_556 S
N207 C210 1.313 . S
C208 C209 1.338 . S
C208 N211 1.377 1_554 S
C208 H228 0.930 . S
C209 N207 1.375 1_554 S
C209 C208 1.338 . S
C209 H213 0.931 . S
C210 N207 1.313 . S
C210 N211 1.344 . S
C210 H214 0.930 . S
N211 C208 1.377 1_556 S
N211 C210 1.344 . S
O212 Co204 2.055 . S
O212 C216 1.253 . S
H213 C209 0.931 . S
H214 C210 0.930 . S
O215 Co204 2.039 1_554 S
O215 C205 1.265 . S
C216 O212 1.253 . S
C216 O217 1.227 . S
O217 C216 1.227 . S
N218 Co204 2.140 1_554 S
N218 C221 1.346 . S
N218 C222 1.345 1_554 S
C219 C220 1.387 . S
C219 C223 1.391 1_554 S
C220 C219 1.387 . S
C220 C221 1.369 . S
C220 H229 0.929 . S
C221 N218 1.346 . S
C221 C220 1.369 . S
C221 H224 0.928 . S
C222 N218 1.345 1_556 S
C222 C223 1.371 . S
C222 H225 0.931 . S
C223 C219 1.391 1_556 S
C223 C222 1.371 . S
C223 H230 0.930 . S
H224 C221 0.928 . S
H225 C222 0.931 . S
H226 C202 0.930 . S
H227 C199 0.930 . S
H228 C208 0.930 . S
H229 C220 0.929 . S
H230 C223 0.930 . S
C231 C232 1.351 . S
C231 N234 1.368 . S
C231 H236 0.931 . S
C232 C231 1.351 . S
C232 N233 1.373 . S
C232 H260 0.930 1_545 S
N233 C232 1.373 . S
N233 C235 1.340 . S
N234 C231 1.368 . S
N234 C235 1.321 . S
N234 Co237 2.135 . S
C235 N233 1.340 . S
C235 N234 1.321 . S
C235 H259 0.930 . S
H236 C231 0.931 . S
Co237 N234 2.135 . S
Co237 N240 2.121 . S
Co237 O245 2.055 . S
Co237 O248 2.039 . S
Co237 N251 2.140 . S
C238 O239 1.227 . S
C238 O248 1.265 . S
O239 C238 1.227 . S
N240 Co237 2.121 . S
N240 C242 1.375 . S
N240 C243 1.313 . S
C241 C242 1.338 . S
C241 N244 1.377 . S
C241 H261 0.930 . S
C242 N240 1.375 . S
C242 C241 1.338 . S
C242 H246 0.931 . S
C243 N240 1.313 . S
C243 N244 1.344 . S
C243 H247 0.930 . S
N244 C241 1.377 . S
N244 C243 1.344 . S
O245 Co237 2.055 . S
O245 C249 1.253 . S
H246 C242 0.931 . S
H247 C243 0.930 . S
O248 Co237 2.039 . S
O248 C238 1.265 . S
C249 O245 1.253 . S
C249 O250 1.227 . S
O250 C249 1.227 . S
N251 Co237 2.140 . S
N251 C254 1.346 . S
N251 C255 1.345 . S
C252 C253 1.387 . S
C252 C256 1.391 . S
C253 C252 1.387 . S
C253 C254 1.369 . S
C253 H262 0.929 . S
C254 N251 1.346 . S
C254 C253 1.369 . S
C254 H257 0.928 . S
C255 N251 1.345 . S
C255 C256 1.371 . S
C255 H258 0.931 . S
C256 C252 1.391 . S
C256 C255 1.371 . S
C256 H263 0.930 . S
H257 C254 0.928 . S
H258 C255 0.931 . S
H259 C235 0.930 . S
H260 C232 0.930 1_565 S
H261 C241 0.930 . S
H262 C253 0.929 . S
H263 C256 0.930 . S
C264 C265 1.351 . S
C264 N267 1.368 . S
C264 H269 0.931 . S
C265 C264 1.351 . S
C265 N266 1.373 . S
C265 H293 0.930 . S
N266 C265 1.373 . S
N266 C268 1.340 . S
N267 C264 1.368 . S
N267 C268 1.321 . S
N267 Co270 2.135 . S
C268 N266 1.340 . S
C268 N267 1.321 . S
C268 H292 0.930 . S
H269 C264 0.931 . S
Co270 N267 2.135 . S
Co270 N273 2.121 . S
Co270 O278 2.055 . S
Co270 O281 2.039 . S
Co270 N284 2.140 . S
C271 O272 1.227 . S
C271 O281 1.265 . S
O272 C271 1.227 . S
N273 Co270 2.121 . S
N273 C275 1.375 . S
N273 C276 1.313 . S
C274 C275 1.338 . S
C274 N277 1.377 . S
C274 H294 0.930 . S
C275 N273 1.375 . S
C275 C274 1.338 . S
C275 H279 0.931 . S
C276 N273 1.313 . S
C276 N277 1.344 . S
C276 H280 0.930 . S
N277 C274 1.377 . S
N277 C276 1.344 . S
O278 Co270 2.055 . S
O278 C282 1.253 . S
H279 C275 0.931 . S
H280 C276 0.930 . S
O281 Co270 2.039 . S
O281 C271 1.265 . S
C282 O278 1.253 . S
C282 O283 1.227 . S
O283 C282 1.227 . S
N284 Co270 2.140 . S
N284 C287 1.346 . S
N284 C288 1.345 . S
C285 C286 1.387 . S
C285 C289 1.391 . S
C286 C285 1.387 . S
C286 C287 1.369 . S
C286 H295 0.929 . S
C287 N284 1.346 . S
C287 C286 1.369 . S
C287 H290 0.928 . S
C288 N284 1.345 . S
C288 C289 1.371 . S
C288 H291 0.931 . S
C289 C285 1.391 . S
C289 C288 1.371 . S
C289 H296 0.930 . S
H290 C287 0.928 . S
H291 C288 0.931 . S
H292 C268 0.930 . S
H293 C265 0.930 . S
H294 C274 0.930 . S
H295 C286 0.929 . S
H296 C289 0.930 . S
C297 C298 1.351 . S
C297 N300 1.368 . S
C297 H302 0.931 . S
C298 C297 1.351 . S
C298 N299 1.373 . S
C298 H326 0.930 1_545 S
N299 C298 1.373 . S
N299 C301 1.340 . S
N300 C297 1.368 . S
N300 C301 1.321 . S
N300 Co303 2.135 . S
C301 N299 1.340 . S
C301 N300 1.321 . S
C301 H325 0.930 . S
H302 C297 0.931 . S
Co303 N300 2.135 . S
Co303 N306 2.121 . S
Co303 O311 2.055 . S
Co303 O314 2.039 . S
Co303 N317 2.140 . S
C304 O305 1.227 . S
C304 O314 1.265 . S
O305 C304 1.227 . S
N306 Co303 2.121 . S
N306 C308 1.375 . S
N306 C309 1.313 . S
C307 C308 1.338 . S
C307 N310 1.377 . S
C307 H327 0.930 . S
C308 N306 1.375 . S
C308 C307 1.338 . S
C308 H312 0.931 . S
C309 N306 1.313 . S
C309 N310 1.344 . S
C309 H313 0.930 . S
N310 C307 1.377 . S
N310 C309 1.344 . S
O311 Co303 2.055 . S
O311 C315 1.253 . S
H312 C308 0.931 . S
H313 C309 0.930 . S
O314 Co303 2.039 . S
O314 C304 1.265 . S
C315 O311 1.253 . S
C315 O316 1.227 . S
O316 C315 1.227 . S
N317 Co303 2.140 . S
N317 C320 1.346 . S
N317 C321 1.345 . S
C318 C319 1.387 . S
C318 C322 1.391 . S
C319 C318 1.387 . S
C319 C320 1.369 . S
C319 H328 0.929 . S
C320 N317 1.346 . S
C320 C319 1.369 . S
C320 H323 0.928 . S
C321 N317 1.345 . S
C321 C322 1.371 . S
C321 H324 0.931 . S
C322 C318 1.391 . S
C322 C321 1.371 . S
C322 H329 0.930 . S
H323 C320 0.928 . S
H324 C321 0.931 . S
H325 C301 0.930 . S
H326 C298 0.930 1_565 S
H327 C307 0.930 . S
H328 C319 0.929 . S
H329 C322 0.930 . S
C330 C331 1.351 . S
C330 N333 1.368 . S
C330 H335 0.931 . S
C331 C330 1.351 . S
C331 N332 1.373 1_566 S
C331 H359 0.930 1_655 S
N332 C331 1.373 1_544 S
N332 C334 1.340 1_545 S
N333 C330 1.368 . S
N333 C334 1.321 1_556 S
N333 Co336 2.135 . S
C334 N332 1.340 1_565 S
C334 N333 1.321 1_554 S
C334 H358 0.930 1_565 S
H335 C330 0.931 . S
Co336 N333 2.135 . S
Co336 N339 2.121 . S
Co336 O344 2.055 1_565 S
Co336 O347 2.039 1_566 S
Co336 N350 2.140 1_556 S
C337 O338 1.227 . S
C337 O347 1.265 1_565 S
O338 C337 1.227 . S
N339 Co336 2.121 . S
N339 C341 1.375 1_556 S
N339 C342 1.313 . S
C340 C341 1.338 . S
C340 N343 1.377 1_554 S
C340 H360 0.930 . S
C341 N339 1.375 1_554 S
C341 C340 1.338 . S
C341 H345 0.931 . S
C342 N339 1.313 . S
C342 N343 1.344 . S
C342 H346 0.930 . S
N343 C340 1.377 1_556 S
N343 C342 1.344 . S
O344 Co336 2.055 1_545 S
O344 C348 1.253 1_545 S
H345 C341 0.931 . S
H346 C342 0.930 . S
O347 Co336 2.039 1_544 S
O347 C337 1.265 1_545 S
C348 O344 1.253 1_565 S
C348 O349 1.227 . S
O349 C348 1.227 . S
N350 Co336 2.140 1_554 S
N350 C353 1.346 . S
N350 C354 1.345 1_554 S
C351 C352 1.387 . S
C351 C355 1.391 1_554 S
C352 C351 1.387 . S
C352 C353 1.369 . S
C352 H361 0.929 . S
C353 N350 1.346 . S
C353 C352 1.369 . S
C353 H356 0.928 . S
C354 N350 1.345 1_556 S
C354 C355 1.371 . S
C354 H357 0.931 . S
C355 C351 1.391 1_556 S
C355 C354 1.371 . S
C355 H362 0.930 . S
H356 C353 0.928 . S
H357 C354 0.931 . S
H358 C334 0.930 1_545 S
H359 C331 0.930 1_455 S
H360 C340 0.930 . S
H361 C352 0.929 . S
H362 C355 0.930 . S
C363 C364 1.351 . S
C363 N366 1.368 . S
C363 H368 0.931 . S
C364 C363 1.351 . S
C364 N365 1.373 1_455 S
C364 H392 0.930 . S
N365 C364 1.373 1_655 S
N365 C367 1.340 1_655 S
N366 C363 1.368 . S
N366 C367 1.321 . S
N366 Co369 2.135 . S
C367 N365 1.340 1_455 S
C367 N366 1.321 . S
C367 H391 0.930 1_455 S
H368 C363 0.931 . S
Co369 N366 2.135 . S
Co369 N372 2.121 . S
Co369 O377 2.055 1_455 S
Co369 O380 2.039 1_455 S
Co369 N383 2.140 . S
C370 O371 1.227 . S
C370 O380 1.265 1_455 S
O371 C370 1.227 . S
N372 Co369 2.121 . S
N372 C374 1.375 . S
N372 C375 1.313 . S
C373 C374 1.338 . S
C373 N376 1.377 . S
C373 H393 0.930 . S
C374 N372 1.375 . S
C374 C373 1.338 . S
C374 H378 0.931 . S
C375 N372 1.313 . S
C375 N376 1.344 . S
C375 H379 0.930 . S
N376 C373 1.377 . S
N376 C375 1.344 . S
O377 Co369 2.055 1_655 S
O377 C381 1.253 1_655 S
H378 C374 0.931 . S
H379 C375 0.930 . S
O380 Co369 2.039 1_655 S
O380 C370 1.265 1_655 S
C381 O377 1.253 1_455 S
C381 O382 1.227 . S
O382 C381 1.227 . S
N383 Co369 2.140 . S
N383 C386 1.346 . S
N383 C387 1.345 . S
C384 C385 1.387 . S
C384 C388 1.391 . S
C385 C384 1.387 . S
C385 C386 1.369 . S
C385 H394 0.929 . S
C386 N383 1.346 . S
C386 C385 1.369 . S
C386 H389 0.928 . S
C387 N383 1.345 . S
C387 C388 1.371 . S
C387 H390 0.931 . S
C388 C384 1.391 . S
C388 C387 1.371 . S
C388 H395 0.930 . S
H389 C386 0.928 . S
H390 C387 0.931 . S
H391 C367 0.930 1_655 S
H392 C364 0.930 . S
H393 C373 0.930 . S
H394 C385 0.929 . S
H395 C388 0.930 . S
C396 C397 1.351 . S
C396 N399 1.368 . S
C396 H401 0.931 . S
C397 C396 1.351 . S
C397 N398 1.373 1_556 S
C397 H425 0.930 . S
N398 C397 1.373 1_554 S
N398 C400 1.340 . S
N399 C396 1.368 . S
N399 C400 1.321 1_556 S
N399 Co402 2.135 . S
C400 N398 1.340 . S
C400 N399 1.321 1_554 S
C400 H424 0.930 . S
H401 C396 0.931 . S
Co402 N399 2.135 . S
Co402 N405 2.121 . S
Co402 O410 2.055 . S
Co402 O413 2.039 1_556 S
Co402 N416 2.140 1_556 S
C403 O404 1.227 . S
C403 O413 1.265 . S
O404 C403 1.227 . S
N405 Co402 2.121 . S
N405 C407 1.375 1_556 S
N405 C408 1.313 . S
C406 C407 1.338 . S
C406 N409 1.377 1_554 S
C406 H426 0.930 . S
C407 N405 1.375 1_554 S
C407 C406 1.338 . S
C407 H411 0.931 . S
C408 N405 1.313 . S
C408 N409 1.344 . S
C408 H412 0.930 . S
N409 C406 1.377 1_556 S
N409 C408 1.344 . S
O410 Co402 2.055 . S
O410 C414 1.253 . S
H411 C407 0.931 . S
H412 C408 0.930 . S
O413 Co402 2.039 1_554 S
O413 C403 1.265 . S
C414 O410 1.253 . S
C414 O415 1.227 . S
O415 C414 1.227 . S
N416 Co402 2.140 1_554 S
N416 C419 1.346 . S
N416 C420 1.345 1_554 S
C417 C418 1.387 . S
C417 C421 1.391 1_554 S
C418 C417 1.387 . S
C418 C419 1.369 . S
C418 H427 0.929 . S
C419 N416 1.346 . S
C419 C418 1.369 . S
C419 H422 0.928 . S
C420 N416 1.345 1_556 S
C420 C421 1.371 . S
C420 H423 0.931 . S
C421 C417 1.391 1_556 S
C421 C420 1.371 . S
C421 H428 0.930 . S
H422 C419 0.928 . S
H423 C420 0.931 . S
H424 C400 0.930 . S
H425 C397 0.930 . S
H426 C406 0.930 . S
H427 C418 0.929 . S
H428 C421 0.930 . S
C429 C430 1.351 . S
C429 N432 1.368 . S
C429 H434 0.931 . S
C430 C429 1.351 . S
C430 N431 1.373 . S
C430 H458 0.930 1_565 S
N431 C430 1.373 . S
N431 C433 1.340 . S
N432 C429 1.368 . S
N432 C433 1.321 . S
N432 Co435 2.135 . S
C433 N431 1.340 . S
C433 N432 1.321 . S
C433 H457 0.930 . S
H434 C429 0.931 . S
Co435 N432 2.135 . S
Co435 N438 2.121 . S
Co435 O443 2.055 . S
Co435 O446 2.039 . S
Co435 N449 2.140 . S
C436 O437 1.227 . S
C436 O446 1.265 . S
O437 C436 1.227 . S
N438 Co435 2.121 . S
N438 C440 1.375 . S
N438 C441 1.313 . S
C439 C440 1.338 . S
C439 N442 1.377 . S
C439 H459 0.930 . S
C440 N438 1.375 . S
C440 C439 1.338 . S
C440 H444 0.931 . S
C441 N438 1.313 . S
C441 N442 1.344 . S
C441 H445 0.930 . S
N442 C439 1.377 . S
N442 C441 1.344 . S
O443 Co435 2.055 . S
O443 C447 1.253 . S
H444 C440 0.931 . S
H445 C441 0.930 . S
O446 Co435 2.039 . S
O446 C436 1.265 . S
C447 O443 1.253 . S
C447 O448 1.227 . S
O448 C447 1.227 . S
N449 Co435 2.140 . S
N449 C452 1.346 . S
N449 C453 1.345 . S
C450 C451 1.387 . S
C450 C454 1.391 . S
C451 C450 1.387 . S
C451 C452 1.369 . S
C451 H460 0.929 . S
C452 N449 1.346 . S
C452 C451 1.369 . S
C452 H455 0.928 . S
C453 N449 1.345 . S
C453 C454 1.371 . S
C453 H456 0.931 . S
C454 C450 1.391 . S
C454 C453 1.371 . S
C454 H461 0.930 . S
H455 C452 0.928 . S
H456 C453 0.931 . S
H457 C433 0.930 . S
H458 C430 0.930 1_545 S
H459 C439 0.930 . S
H460 C451 0.929 . S
H461 C454 0.930 . S
C462 C463 1.351 . S
C462 N465 1.368 . S
C462 H467 0.931 . S
C463 C462 1.351 . S
C463 N464 1.373 1_565 S
C463 H491 0.930 1_455 S
N464 C463 1.373 1_545 S
N464 C466 1.340 1_545 S
N465 C462 1.368 . S
N465 C466 1.321 . S
N465 Co468 2.135 . S
C466 N464 1.340 1_565 S
C466 N465 1.321 . S
C466 H490 0.930 1_565 S
H467 C462 0.931 . S
Co468 N465 2.135 . S
Co468 N471 2.121 . S
Co468 O476 2.055 1_565 S
Co468 O479 2.039 1_565 S
Co468 N482 2.140 . S
C469 O470 1.227 . S
C469 O479 1.265 1_565 S
O470 C469 1.227 . S
N471 Co468 2.121 . S
N471 C473 1.375 . S
N471 C474 1.313 . S
C472 C473 1.338 . S
C472 N475 1.377 . S
C472 H492 0.930 . S
C473 N471 1.375 . S
C473 C472 1.338 . S
C473 H477 0.931 . S
C474 N471 1.313 . S
C474 N475 1.344 . S
C474 H478 0.930 . S
N475 C472 1.377 . S
N475 C474 1.344 . S
O476 Co468 2.055 1_545 S
O476 C480 1.253 1_545 S
H477 C473 0.931 . S
H478 C474 0.930 . S
O479 Co468 2.039 1_545 S
O479 C469 1.265 1_545 S
C480 O476 1.253 1_565 S
C480 O481 1.227 . S
O481 C480 1.227 . S
N482 Co468 2.140 . S
N482 C485 1.346 . S
N482 C486 1.345 . S
C483 C484 1.387 . S
C483 C487 1.391 . S
C484 C483 1.387 . S
C484 C485 1.369 . S
C484 H493 0.929 . S
C485 N482 1.346 . S
C485 C484 1.369 . S
C485 H488 0.928 . S
C486 N482 1.345 . S
C486 C487 1.371 . S
C486 H489 0.931 . S
C487 C483 1.391 . S
C487 C486 1.371 . S
C487 H494 0.930 . S
H488 C485 0.928 . S
H489 C486 0.931 . S
H490 C466 0.930 1_545 S
H491 C463 0.930 1_655 S
H492 C472 0.930 . S
H493 C484 0.929 . S
H494 C487 0.930 . S
C495 C496 1.351 . S
C495 N498 1.368 . S
C495 H500 0.931 . S
C496 C495 1.351 . S
C496 N497 1.373 1_455 S
C496 H524 0.930 . S
N497 C496 1.373 1_655 S
N497 C499 1.340 1_655 S
N498 C495 1.368 . S
N498 C499 1.321 . S
N498 Co501 2.135 . S
C499 N497 1.340 1_455 S
C499 N498 1.321 . S
C499 H523 0.930 1_455 S
H500 C495 0.931 . S
Co501 N498 2.135 . S
Co501 N504 2.121 . S
Co501 O509 2.055 1_455 S
Co501 O512 2.039 1_455 S
Co501 N515 2.140 . S
C502 O503 1.227 . S
C502 O512 1.265 1_455 S
O503 C502 1.227 . S
N504 Co501 2.121 . S
N504 C506 1.375 . S
N504 C507 1.313 . S
C505 C506 1.338 . S
C505 N508 1.377 . S
C505 H525 0.930 . S
C506 N504 1.375 . S
C506 C505 1.338 . S
C506 H510 0.931 . S
C507 N504 1.313 . S
C507 N508 1.344 . S
C507 H511 0.930 . S
N508 C505 1.377 . S
N508 C507 1.344 . S
O509 Co501 2.055 1_655 S
O509 C513 1.253 1_655 S
H510 C506 0.931 . S
H511 C507 0.930 . S
O512 Co501 2.039 1_655 S
O512 C502 1.265 1_655 S
C513 O509 1.253 1_455 S
C513 O514 1.227 . S
O514 C513 1.227 . S
N515 Co501 2.140 . S
N515 C518 1.346 . S
N515 C519 1.345 . S
C516 C517 1.387 . S
C516 C520 1.391 . S
C517 C516 1.387 . S
C517 C518 1.369 . S
C517 H526 0.929 . S
C518 N515 1.346 . S
C518 C517 1.369 . S
C518 H521 0.928 . S
C519 N515 1.345 . S
C519 C520 1.371 . S
C519 H522 0.931 . S
C520 C516 1.391 . S
C520 C519 1.371 . S
C520 H527 0.930 . S
H521 C518 0.928 . S
H522 C519 0.931 . S
H523 C499 0.930 1_655 S
H524 C496 0.930 . S
H525 C505 0.930 . S
H526 C517 0.929 . S
H527 C520 0.930 . S
N332 N2 1.254 1_645 S
N35 N365 1.254 1_455 S
N266 N68 1.254 . S
N101 N299 1.254 1_565 S
N464 N134 1.254 1_445 S
N167 N497 1.254 1_455 S
N200 N398 1.254 . S
N431 N233 1.254 1_565 S
C480 C7 1.179 1_565 S
C513 C40 1.179 1_455 S
C73 C414 1.179 . S
C447 C106 1.179 1_554 S
C139 C348 1.179 1_545 S
C172 C381 1.179 1_656 S
C282 C205 1.179 . S
C238 C315 1.179 . S
C216 C271 1.179 . S
C249 C304 1.179 1_554 S
C150 C337 1.179 1_545 S
C370 C183 1.179 1_455 S
C403 C84 1.179 . S
C436 C117 1.179 . S
C469 C18 1.179 1_565 S
C51 C502 1.179 1_654 S
N376 C21 2.283 . S
C54 N277 2.284 . S
C87 N310 2.283 . S
C120 N343 2.284 . S
N178 C153 2.283 . S
C186 N211 2.284 . S
N244 C219 2.283 . S
C252 N145 2.284 . S
N112 C285 2.283 . S
C318 N13 2.284 . S
C351 N46 2.283 . S
N79 C384 2.284 . S
N442 C417 2.283 . S
N475 C450 2.284 . S
C483 N508 2.283 . S
N409 C516 2.284 . S
