# Generated by pormake.
# Topology mdf, (4)-cn, num edge types: 1
# Building blocks:
#     Node 0, Type 0, BuildingBlock: NAHDIM_clean_sbu_0, # of connection points: 4
#     Node 1, Type 0, BuildingBlock: NAHDIM_clean_sbu_0, # of connection points: 4
#     Node 2, Type 0, BuildingBlock: NAHDIM_clean_sbu_0, # of connection points: 4
#     Node 3, Type 0, BuildingBlock: NAHDIM_clean_sbu_0, # of connection points: 4
#     Node 4, Type 0, BuildingBlock: NAHDIM_clean_sbu_0, # of connection points: 4
#     Node 5, Type 0, BuildingBlock: NAHDIM_clean_sbu_0, # of connection points: 4
#     Node 6, Type 0, BuildingBlock: NAHDIM_clean_sbu_0, # of connection points: 4
#     Node 7, Type 0, BuildingBlock: NAHDIM_clean_sbu_0, # of connection points: 4
#     Edge 8, Type (0, 0), BuildingBlock: UVAHIK_clean_linker_0, # of connection points: 2
#     Edge 9, Type (0, 0), BuildingBlock: UVAHIK_clean_linker_0, # of connection points: 2
#     Edge 10, Type (0, 0), BuildingBlock: UVAHIK_clean_linker_0, # of connection points: 2
#     Edge 11, Type (0, 0), BuildingBlock: UVAHIK_clean_linker_0, # of connection points: 2
#     Edge 12, Type (0, 0), BuildingBlock: UVAHIK_clean_linker_0, # of connection points: 2
#     Edge 13, Type (0, 0), BuildingBlock: UVAHIK_clean_linker_0, # of connection points: 2
#     Edge 14, Type (0, 0), BuildingBlock: UVAHIK_clean_linker_0, # of connection points: 2
#     Edge 15, Type (0, 0), BuildingBlock: UVAHIK_clean_linker_0, # of connection points: 2
#     Edge 16, Type (0, 0), BuildingBlock: UVAHIK_clean_linker_0, # of connection points: 2
#     Edge 17, Type (0, 0), BuildingBlock: UVAHIK_clean_linker_0, # of connection points: 2
#     Edge 18, Type (0, 0), BuildingBlock: UVAHIK_clean_linker_0, # of connection points: 2
#     Edge 19, Type (0, 0), BuildingBlock: UVAHIK_clean_linker_0, # of connection points: 2
#     Edge 20, Type (0, 0), BuildingBlock: UVAHIK_clean_linker_0, # of connection points: 2
#     Edge 21, Type (0, 0), BuildingBlock: UVAHIK_clean_linker_0, # of connection points: 2
#     Edge 22, Type (0, 0), BuildingBlock: UVAHIK_clean_linker_0, # of connection points: 2
#     Edge 23, Type (0, 0), BuildingBlock: UVAHIK_clean_linker_0, # of connection points: 2
# Relax obj value: 0.051
# Max RMSD: 0.056
# Mean RMSD: 0.056
data_MOF--net-mdf--node1-NAHDIM_clean_sbu_0--edge1-UVAHIK_clean_linker_0
_symmetry_space_group_name_H-M    P1
_symmetry_Int_Tables_number       1
_symmetry_cell_setting            triclinic
loop_
_symmetry_equiv_pos_as_xyz
'x, y, z'
_cell_length_a     45.388158
_cell_length_b     45.443219
_cell_length_c     19.174584
_cell_angle_alpha  89.936907
_cell_angle_beta   89.960747
_cell_angle_gamma 95.18625
loop_
_atom_site_label
_atom_site_type_symbol
_atom_site_fract_x
_atom_site_fract_y
_atom_site_fract_z
_atom_type_partial_charge
C0 C 0.22918 0.58506 0.48705 0.0
O1 O 0.22283 0.59165 0.42241 0.0
O2 O 0.27571 0.56442 0.34373 0.0
Zn3 Zn 0.25753 0.53841 0.42033 0.0
O4 O 0.22287 0.51126 0.38722 0.0
C5 C 0.30771 0.50449 0.41498 0.0
O6 O 0.30705 0.51205 0.3489 0.0
O7 O 0.24412 0.56325 0.49877 0.0
C8 C 0.22256 0.49734 0.32975 0.0
O9 O 0.24541 0.50135 0.28762 0.0
C10 C 0.26256 0.5737 0.29067 0.0
O11 O 0.23404 0.56665 0.28281 0.0
O12 O 0.28853 0.51336 0.45643 0.0
C13 C 0.41107 0.77759 0.55303 0.0
O14 O 0.4084 0.7866 0.61764 0.0
O15 O 0.42837 0.7297 0.69554 0.0
Zn16 Zn 0.45437 0.74423 0.61582 0.0
O17 O 0.48408 0.77705 0.64729 0.0
C18 C 0.46643 0.68405 0.58127 0.0
O19 O 0.43996 0.6768 0.60716 0.0
O20 O 0.42959 0.75906 0.53936 0.0
C21 C 0.50703 0.7829 0.61001 0.0
O22 O 0.51008 0.76774 0.55255 0.0
C23 C 0.43996 0.72224 0.75238 0.0
O24 O 0.46893 0.72476 0.7582 0.0
O25 O 0.47647 0.71106 0.57968 0.0
C26 C 0.26843 0.9087 0.97775 0.0
O27 O 0.27622 0.90167 0.91433 0.0
O28 O 0.22246 0.91852 0.83047 0.0
Zn29 Zn 0.23637 0.94925 0.9017 0.0
O30 O 0.26938 0.9776 0.86438 0.0
C31 C 0.18095 0.97531 0.88817 0.0
O32 O 0.18115 0.96335 0.82585 0.0
O33 O 0.25111 0.92888 0.98582 0.0
C34 C 0.26555 0.99471 0.81335 0.0
O35 O 0.23951 0.99358 0.78314 0.0
C36 C 0.23588 0.91412 0.77378 0.0
O37 O 0.26077 0.92999 0.75932 0.0
O38 O 0.20223 0.97205 0.92973 0.0
C39 C 0.08233 0.72572 0.04137 0.0
O40 O 0.0835 0.71631 0.10603 0.0
O41 O 0.06813 0.77335 0.18341 0.0
Zn42 Zn 0.04122 0.76196 0.10247 0.0
O43 O 0.00867 0.73097 0.13025 0.0
C44 C 0.01827 0.81921 0.10655 0.0
O45 O 0.02533 0.81784 0.17283 0.0
O46 O 0.06536 0.74559 0.02659 0.0
C47 C 0.9893 0.7361 0.17547 0.0
O48 O 0.99065 0.76217 0.20541 0.0
C49 C 0.06868 0.75867 0.2398 0.0
O50 O 0.05083 0.73449 0.24749 0.0
O51 O 0.02326 0.79796 0.06642 0.0
C52 C 0.73571 0.09599 0.95375 0.0
O53 O 0.7278 0.10102 0.88923 0.0
O54 O 0.77801 0.08231 0.80634 0.0
Zn55 Zn 0.76778 0.05358 0.88481 0.0
O56 O 0.73557 0.02224 0.85705 0.0
C57 C 0.82457 0.0298 0.87179 0.0
O58 O 0.82272 0.0389 0.80701 0.0
O59 O 0.75314 0.0762 0.96545 0.0
C60 C 0.74045 0.00138 0.8157 0.0
O61 O 0.76709 0.00033 0.78956 0.0
C62 C 0.76538 0.08094 0.74716 0.0
O63 O 0.74459 0.05963 0.73444 0.0
O64 O 0.80389 0.03407 0.91435 0.0
C65 C 0.89987 0.25051 0.9898 0.0
O66 O 0.88359 0.23409 0.03417 0.0
O67 O 0.91971 0.22487 0.15451 0.0
Zn68 Zn 0.94874 0.23646 0.07799 0.0
O69 O 0.98076 0.26707 0.11022 0.0
C70 C 0.98061 0.18573 0.09155 0.0
O71 O 0.98046 0.19407 0.15712 0.0
O72 O 0.92776 0.25387 -0.00209 0.0
C73 C 0.9893 0.27103 0.1729 0.0
O74 O 0.97686 0.25429 0.22259 0.0
C75 C 0.90852 0.24331 0.1941 0.0
O76 O 0.9163 0.27169 0.18659 0.0
O77 O 0.96777 0.20055 0.04636 0.0
C78 C 0.77303 0.42996 0.4717 0.0
O79 O 0.79025 0.44199 0.42234 0.0
O80 O 0.71581 0.42524 0.31596 0.0
Zn81 Zn 0.72866 0.45472 0.39 0.0
O82 O 0.75914 0.48566 0.35252 0.0
C83 C 0.67585 0.48308 0.37479 0.0
O84 O 0.68159 0.4781 0.30889 0.0
O85 O 0.74549 0.43301 0.46978 0.0
C86 C 0.7642 0.50959 0.38644 0.0
O87 O 0.74929 0.51326 0.44407 0.0
C88 C 0.73373 0.41189 0.27929 0.0
O89 O 0.76233 0.41778 0.28847 0.0
O90 O 0.69316 0.47461 0.42127 0.0
C91 C 0.593 0.2223 0.53379 0.0
O92 O 0.59759 0.2119 0.59641 0.0
O93 O 0.57757 0.26473 0.68584 0.0
Zn94 Zn 0.54986 0.25194 0.60787 0.0
O95 O 0.52099 0.21797 0.63687 0.0
C96 C 0.5106 0.2965 0.62752 0.0
O97 O 0.50985 0.28514 0.69062 0.0
O98 O 0.57327 0.24011 0.52551 0.0
C99 C 0.49906 0.21121 0.59705 0.0
O100 O 0.49665 0.22622 0.53902 0.0
C101 C 0.58319 0.24834 0.73697 0.0
O102 O 0.57024 0.22133 0.74065 0.0
O103 O 0.52687 0.28596 0.58161 0.0
C104 C 0.39024 0.70526 0.80207 0.0
C105 C 0.42113 0.7096 0.80991 0.0
C106 C 0.37257 0.69212 0.85529 0.0
C107 C 0.37657 0.64327 0.00763 0.0
H108 H 0.3008 0.67095 0.05585 0.0
C109 C 0.31035 0.59823 0.24583 0.0
C110 C 0.27975 0.59136 0.23719 0.0
C111 C 0.32702 0.61383 0.19449 0.0
C112 C 0.32178 0.66281 0.04246 0.0
H113 H 0.4576 0.7042 0.88045 0.0
H114 H 0.42674 0.68158 0.97353 0.0
H115 H 0.33121 0.69642 0.96518 0.0
H116 H 0.24255 0.59599 0.1683 0.0
H117 H 0.27182 0.62316 0.07814 0.0
H118 H 0.36721 0.60966 0.08457 0.0
C119 C 0.41623 0.68791 0.92578 0.0
C120 C 0.33919 0.67739 0.99059 0.0
C121 C 0.4339 0.70102 0.87258 0.0
C122 C 0.26609 0.60093 0.17652 0.0
C123 C 0.28281 0.61661 0.12505 0.0
C124 C 0.35921 0.62875 0.05941 0.0
C125 C 0.3854 0.68304 0.91748 0.0
C126 C 0.36683 0.66781 0.97276 0.0
C127 C 0.31352 0.62294 0.13322 0.0
C128 C 0.33167 0.63839 0.07759 0.0
H129 H 0.3797 0.7116 0.75437 0.0
H130 H 0.34892 0.68841 0.84697 0.0
H131 H 0.39746 0.63496 0.99415 0.0
H132 H 0.32158 0.59135 0.29209 0.0
H133 H 0.35054 0.6188 0.20287 0.0
C134 C 0.39669 0.78008 0.42736 0.0
C135 C 0.39332 0.78937 0.49657 0.0
C136 C 0.3806 0.79179 0.37363 0.0
C137 C 0.34185 0.85687 0.32889 0.0
H138 H 0.31018 0.80743 0.17689 0.0
C139 C 0.27292 0.90216 0.10693 0.0
C140 C 0.28009 0.8937 0.03894 0.0
C141 C 0.28456 0.88847 0.16469 0.0
C142 C 0.31908 0.82154 0.21876 0.0
H143 H 0.37001 0.81784 0.56384 0.0
H144 H 0.34172 0.83813 0.46996 0.0
H145 H 0.33422 0.78509 0.27491 0.0
H146 H 0.30478 0.86399 0.97826 0.0
H147 H 0.32524 0.84028 0.07903 0.0
H148 H 0.327 0.89336 0.27241 0.0
C149 C 0.3571 0.82205 0.45722 0.0
C150 C 0.33284 0.80876 0.27486 0.0
C151 C 0.37321 0.81032 0.51102 0.0
C152 C 0.29881 0.87102 0.02994 0.0
C153 C 0.31039 0.85729 0.08769 0.0
C154 C 0.32806 0.86965 0.27283 0.0
C155 C 0.36076 0.81304 0.38788 0.0
C156 C 0.34465 0.82633 0.3302 0.0
C157 C 0.30353 0.86599 0.15567 0.0
C158 C 0.31679 0.85216 0.21683 0.0
H159 H 0.41203 0.76399 0.41441 0.0
H160 H 0.38422 0.78468 0.32066 0.0
H161 H 0.35109 0.87107 0.37022 0.0
H162 H 0.25846 0.9195 0.11566 0.0
H163 H 0.2786 0.89542 0.21644 0.0
C164 C 0.08474 0.758 0.36465 0.0
C165 C 0.08883 0.76926 0.2967 0.0
C166 C 0.10286 0.76924 0.41909 0.0
C167 C 0.17438 0.81027 0.45867 0.0
H168 H 0.13409 0.83809 0.6208 0.0
C169 C 0.2315 0.89365 0.65283 0.0
C170 C 0.22254 0.89248 0.72294 0.0
C171 C 0.21713 0.87476 0.60367 0.0
C172 C 0.14586 0.82991 0.57677 0.0
H173 H 0.11574 0.80033 0.23197 0.0
H174 H 0.14753 0.8197 0.32695 0.0
H175 H 0.10563 0.81133 0.52985 0.0
H176 H 0.19264 0.86957 0.7974 0.0
H177 H 0.16826 0.83595 0.71229 0.0
H178 H 0.21464 0.82877 0.50538 0.0
C179 C 0.13029 0.80225 0.33806 0.0
C180 C 0.12947 0.81465 0.52453 0.0
C181 C 0.11195 0.79131 0.28385 0.0
C182 C 0.19978 0.87124 0.74351 0.0
C183 C 0.1857 0.85208 0.69459 0.0
C184 C 0.19086 0.82522 0.51137 0.0
C185 C 0.12566 0.79162 0.40633 0.0
C186 C 0.1435 0.80515 0.46446 0.0
C187 C 0.19374 0.85401 0.62375 0.0
C188 C 0.17674 0.83572 0.57053 0.0
H189 H 0.06712 0.74099 0.37614 0.0
H190 H 0.09895 0.76059 0.47127 0.0
H191 H 0.18575 0.80287 0.41311 0.0
H192 H 0.24891 0.90986 0.63539 0.0
H193 H 0.22369 0.87722 0.54953 0.0
C194 C 0.09848 0.72261 0.91686 0.0
C195 C 0.10023 0.71309 0.98639 0.0
C196 C 0.1149 0.71018 0.86471 0.0
C197 C 0.15149 0.64316 0.82481 0.0
H198 H 0.18839 0.69112 0.67574 0.0
C199 C 0.22319 0.5938 0.615 0.0
C200 C 0.21784 0.60189 0.54569 0.0
C201 C 0.21116 0.60869 0.67034 0.0
C202 C 0.17803 0.67743 0.7168 0.0
H203 H 0.12103 0.68346 0.0559 0.0
H204 H 0.14985 0.66196 0.96495 0.0
H205 H 0.16304 0.71471 0.76995 0.0
H206 H 0.19629 0.63248 0.4802 0.0
H207 H 0.17512 0.6583 0.57684 0.0
H208 H 0.16618 0.60587 0.77145 0.0
C209 C 0.13547 0.67875 0.95062 0.0
C210 C 0.16351 0.69092 0.77069 0.0
C211 C 0.11905 0.69117 0.00278 0.0
C212 C 0.2008 0.62567 0.53298 0.0
C213 C 0.18881 0.64059 0.58836 0.0
C214 C 0.16602 0.62969 0.77102 0.0
C215 C 0.13343 0.68797 0.88093 0.0
C216 C 0.1499 0.6739 0.82505 0.0
C217 C 0.19357 0.63203 0.65761 0.0
C218 C 0.17929 0.64664 0.71619 0.0
H219 H 0.08418 0.73946 0.90248 0.0
H220 H 0.11255 0.71752 0.8114 0.0
H221 H 0.14082 0.62937 0.86528 0.0
H222 H 0.23636 0.57568 0.62661 0.0
H223 H 0.21557 0.60186 0.72317 0.0
C224 C 0.79036 0.12975 0.71016 0.0
C225 C 0.77464 0.10275 0.69255 0.0
C226 C 0.80021 0.14986 0.65822 0.0
C227 C 0.79322 0.16594 0.46771 0.0
H228 H 0.87211 0.20491 0.49258 0.0
C229 C 0.87232 0.20449 0.2444 0.0
C230 C 0.88791 0.23253 0.24987 0.0
C231 C 0.85426 0.19325 0.29887 0.0
C232 C 0.84986 0.19457 0.48539 0.0
H233 H 0.75645 0.07577 0.60704 0.0
H234 H 0.77469 0.11011 0.51626 0.0
H235 H 0.84865 0.17624 0.5879 0.0
H236 H 0.89638 0.27112 0.3157 0.0
H237 H 0.86535 0.25093 0.4123 0.0
H238 H 0.79555 0.18294 0.36327 0.0
C239 C 0.77871 0.11634 0.57012 0.0
C240 C 0.8363 0.17818 0.54009 0.0
C241 C 0.76844 0.09647 0.62217 0.0
C242 C 0.88456 0.24945 0.31015 0.0
C243 C 0.86692 0.23793 0.36533 0.0
C244 C 0.80702 0.18194 0.41263 0.0
C245 C 0.79501 0.14319 0.58738 0.0
C246 C 0.80802 0.16316 0.53158 0.0
C247 C 0.85187 0.20962 0.36032 0.0
C248 C 0.83565 0.19596 0.42071 0.0
H249 H 0.79511 0.13534 0.76415 0.0
H250 H 0.8121 0.17055 0.6737 0.0
H251 H 0.77116 0.1553 0.4597 0.0
H252 H 0.87435 0.19106 0.1983 0.0
H253 H 0.84309 0.17125 0.29406 0.0
C254 C 0.855 0.2671 0.93065 0.0
C255 C 0.8859 0.2667 0.93371 0.0
C256 C 0.84205 0.28412 0.88037 0.0
C257 C 0.85995 0.34867 0.76623 0.0
H258 H 0.78749 0.32072 0.67082 0.0
C259 C 0.81595 0.40926 0.52973 0.0
C260 C 0.78539 0.41199 0.52691 0.0
C261 C 0.82762 0.39158 0.58043 0.0
C262 C 0.80756 0.32893 0.69764 0.0
H263 H 0.92737 0.28294 0.88484 0.0
H264 H 0.90478 0.31214 0.79663 0.0
H265 H 0.80899 0.28887 0.75595 0.0
H266 H 0.7431 0.39845 0.57542 0.0
H267 H 0.76358 0.36764 0.66425 0.0
H268 H 0.85865 0.38861 0.70769 0.0
C269 C 0.89058 0.29987 0.83398 0.0
C270 C 0.81987 0.3107 0.74635 0.0
C271 C 0.90351 0.28297 0.8843 0.0
C272 C 0.76675 0.3968 0.57618 0.0
C273 C 0.77843 0.379 0.62677 0.0
C274 C 0.8477 0.36682 0.71747 0.0
C275 C 0.85975 0.301 0.83207 0.0
C276 C 0.84631 0.32032 0.78088 0.0
C277 C 0.80898 0.37617 0.6293 0.0
C278 C 0.82147 0.3571 0.68241 0.0
H279 H 0.84083 0.25484 0.96807 0.0
H280 H 0.81825 0.2847 0.8806 0.0
H281 H 0.87999 0.35699 0.793 0.0
H282 H 0.83091 0.42061 0.49245 0.0
H283 H 0.85122 0.38956 0.58059 0.0
C284 C 0.69159 0.38267 0.22055 0.0
C285 C 0.72222 0.38994 0.2269 0.0
C286 C 0.68043 0.36247 0.17041 0.0
C287 C 0.69836 0.33214 0.00088 0.0
H288 H 0.62892 0.27835 0.03907 0.0
C289 C 0.61758 0.28883 0.78733 0.0
C290 C 0.60377 0.25996 0.79219 0.0
C291 C 0.63605 0.30046 0.84052 0.0
C292 C 0.6486 0.29285 0.02766 0.0
H293 H 0.76522 0.38128 0.18629 0.0
H294 H 0.74559 0.3459 0.09822 0.0
H295 H 0.65394 0.30566 0.13457 0.0
H296 H 0.59925 0.22029 0.85581 0.0
H297 H 0.63167 0.24067 0.94893 0.0
H298 H 0.69279 0.31961 0.89381 0.0
C299 C 0.73028 0.35603 0.13203 0.0
C300 C 0.66273 0.30875 0.08227 0.0
C301 C 0.7415 0.37623 0.18253 0.0
C302 C 0.60942 0.24269 0.85072 0.0
C303 C 0.62791 0.25436 0.90411 0.0
C304 C 0.68422 0.31625 0.94623 0.0
C305 C 0.6996 0.34906 0.12528 0.0
C306 C 0.68725 0.32917 0.06917 0.0
C307 C 0.64118 0.2835 0.89987 0.0
C308 C 0.6587 0.29705 0.95877 0.0
H309 H 0.67611 0.39281 0.25391 0.0
H310 H 0.65666 0.35797 0.16579 0.0
H311 H 0.71715 0.34778 0.98905 0.0
H312 H 0.61375 0.30274 0.74293 0.0
H313 H 0.64553 0.32313 0.83611 0.0
C314 C 0.73091 0.10608 0.0814 0.0
C315 C 0.72383 0.11258 0.01206 0.0
C316 C 0.71877 0.12099 0.13656 0.0
C317 C 0.65487 0.16185 0.1791 0.0
H318 H 0.70014 0.18428 0.34522 0.0
C319 C 0.60482 0.22355 0.40621 0.0
C320 C 0.61016 0.21295 0.47349 0.0
C321 C 0.62036 0.21394 0.34894 0.0
C322 C 0.68718 0.17798 0.29931 0.0
H323 H 0.6991 0.14039 0.94615 0.0
H324 H 0.67813 0.16658 0.04244 0.0
H325 H 0.72452 0.16288 0.24634 0.0
H326 H 0.63641 0.18441 0.53364 0.0
H327 H 0.66328 0.16742 0.43357 0.0
H328 H 0.61747 0.17655 0.23223 0.0
C329 C 0.69272 0.14964 0.05416 0.0
C330 C 0.70113 0.16573 0.24273 0.0
C331 C 0.70483 0.13471 -0.001 0.0
C332 C 0.63175 0.19298 0.48248 0.0
C333 C 0.64731 0.18339 0.4252 0.0
C334 C 0.64095 0.17412 0.23557 0.0
C335 C 0.69931 0.14273 0.12356 0.0
C336 C 0.68505 0.15728 0.18226 0.0
C337 C 0.64158 0.19356 0.35774 0.0
C338 C 0.65688 0.18206 0.29653 0.0
H339 H 0.74548 0.08914 0.09323 0.0
H340 H 0.72401 0.1149 0.18945 0.0
H341 H 0.64174 0.15515 0.13373 0.0
H342 H 0.58845 0.23909 0.39757 0.0
H343 H 0.61575 0.22247 0.2977 0.0
C344 C 0.33072 0.4768 0.51077 0.0
C345 C 0.33016 0.4854 0.44039 0.0
C346 C 0.35151 0.45818 0.53422 0.0
C347 C 0.42311 0.43027 0.48862 0.0
H348 H 0.39645 0.36545 0.61159 0.0
C349 C 0.49185 0.3318 0.54129 0.0
C350 C 0.49188 0.32039 0.60944 0.0
C351 C 0.47331 0.35356 0.52358 0.0
C352 C 0.40436 0.38368 0.57807 0.0
H353 H 0.35121 0.48146 0.33958 0.0
H354 H 0.38723 0.44877 0.38036 0.0
H355 H 0.36188 0.40054 0.57551 0.0
H356 H 0.47289 0.3233 0.71282 0.0
H357 H 0.4407 0.36144 0.68196 0.0
H358 H 0.46553 0.41318 0.49062 0.0
C359 C 0.37184 0.45669 0.41762 0.0
C360 C 0.38455 0.40379 0.55739 0.0
C361 C 0.35105 0.47528 0.39416 0.0
C362 C 0.47331 0.33153 0.65976 0.0
C363 C 0.45475 0.35327 0.64202 0.0
C364 C 0.44294 0.41015 0.50931 0.0
C365 C 0.3722 0.4478 0.48782 0.0
C366 C 0.39363 0.42718 0.51203 0.0
C367 C 0.45438 0.36437 0.5736 0.0
C368 C 0.43372 0.3865 0.55387 0.0
H369 H 0.31501 0.48431 0.5478 0.0
H370 H 0.35146 0.45201 0.5888 0.0
H371 H 0.43091 0.44833 0.45449 0.0
H372 H 0.50587 0.32367 0.50125 0.0
H373 H 0.4733 0.36139 0.47021 0.0
C374 C 0.72053 0.95841 0.74297 0.0
C375 C 0.71625 0.97898 0.79581 0.0
C376 C 0.69764 0.93736 0.72376 0.0
C377 C 0.61622 0.92104 0.73382 0.0
H378 H 0.63443 0.84166 0.68724 0.0
C379 C 0.52632 0.82404 0.68949 0.0
C380 C 0.53041 0.80587 0.63164 0.0
C381 C 0.54869 0.84542 0.71019 0.0
C382 C 0.62905 0.86381 0.69957 0.0
H383 H 0.68463 0.99346 0.87039 0.0
H384 H 0.64491 0.95635 0.83796 0.0
H385 H 0.67408 0.87827 0.72293 0.0
H386 H 0.56116 0.79597 0.55002 0.0
H387 H 0.60014 0.83317 0.58633 0.0
H388 H 0.57107 0.90631 0.7111 0.0
C389 C 0.66576 0.95682 0.81032 0.0
C390 C 0.65177 0.88483 0.71986 0.0
C391 C 0.6886 0.978 0.82922 0.0
C392 C 0.55729 0.80958 0.59486 0.0
C393 C 0.57971 0.83077 0.61587 0.0
C394 C 0.59346 0.89994 0.71397 0.0
C395 C 0.66998 0.93626 0.75729 0.0
C396 C 0.64567 0.91376 0.73689 0.0
C397 C 0.57568 0.84887 0.67381 0.0
C398 C 0.59968 0.87115 0.69627 0.0
H399 H 0.7415 0.95868 0.71589 0.0
H400 H 0.70153 0.92221 0.68191 0.0
H401 H 0.61077 0.94322 0.74552 0.0
H402 H 0.50586 0.82173 0.71892 0.0
H403 H 0.54507 0.85892 0.75538 0.0
C404 C 0.01445 0.14675 0.11865 0.0
C405 C 0.99683 0.1604 0.07027 0.0
C406 C 0.03116 0.12395 0.09789 0.0
C407 C 0.0646 0.09389 0.94097 0.0
H408 H 0.07794 0.02875 0.06441 0.0
C409 C 0.1355 0.00037 0.85987 0.0
C410 C 0.1568 0.99329 0.90881 0.0
C411 C 0.11343 0.01841 0.87857 0.0
C412 C 0.07448 0.04688 0.02953 0.0
H413 H 0.98211 0.16011 0.96265 0.0
H414 H 0.01085 0.11993 0.92668 0.0
H415 H 0.04328 0.0642 0.09856 0.0
H416 H 0.17122 -0.001 0.01621 0.0
H417 H 0.13268 0.03046 0.04875 0.0
H418 H 0.09592 0.07662 0.87215 0.0
C419 C 0.01225 0.12727 0.98038 0.0
C420 C 0.05469 0.06722 0.0491 0.0
C421 C 0.99565 0.15021 0.00108 0.0
C422 C 0.15518 0.00409 0.97723 0.0
C423 C 0.13299 0.02195 0.99603 0.0
C424 C 0.08423 0.07345 0.92125 0.0
C425 C 0.03051 0.11413 0.02834 0.0
C426 C 0.04982 0.09121 0.00547 0.0
C427 C 0.11207 0.02954 0.94671 0.0
C428 C 0.08968 0.04997 0.96573 0.0
H429 H 0.0159 0.15411 0.17235 0.0
H430 H 0.04528 0.11464 0.13601 0.0
H431 H 0.06177 0.11234 0.90657 0.0
H432 H 0.13609 0.99235 0.80676 0.0
H433 H 0.09743 0.02368 0.83966 0.0
C434 C 0.96328 0.68546 0.16046 0.0
C435 C 0.96584 0.71282 0.1951 0.0
C436 C 0.94115 0.66347 0.17918 0.0
C437 C 0.86915 0.65209 0.2708 0.0
H438 H 0.88741 0.57043 0.27914 0.0
C439 C 0.79075 0.5601 0.39707 0.0
C440 C 0.7868 0.53286 0.36215 0.0
C441 C 0.81223 0.58204 0.37475 0.0
C442 C 0.88189 0.59309 0.27629 0.0
H443 H 0.94725 0.73847 0.27683 0.0
H444 H 0.90901 0.69998 0.31022 0.0
H445 H 0.92569 0.60876 0.24427 0.0
H446 H 0.80232 0.50728 0.27627 0.0
H447 H 0.83986 0.54567 0.23729 0.0
H448 H 0.82544 0.63641 0.30364 0.0
C449 C 0.92375 0.69568 0.26774 0.0
C450 C 0.9038 0.61506 0.25625 0.0
C451 C 0.94581 0.7177 0.24887 0.0
C452 C 0.80481 0.52803 0.30433 0.0
C453 C 0.82642 0.54994 0.28223 0.0
C454 C 0.84728 0.63014 0.2911 0.0
C455 C 0.92114 0.6683 0.23312 0.0
C456 C 0.89772 0.64485 0.25345 0.0
C457 C 0.83036 0.57718 0.31722 0.0
C458 C 0.85343 0.60041 0.29427 0.0
H459 H 0.97829 0.68103 0.1186 0.0
H460 H 0.93952 0.6428 0.15079 0.0
H461 H 0.86355 0.67473 0.26802 0.0
H462 H 0.77727 0.56452 0.44184 0.0
H463 H 0.81497 0.60266 0.40329 0.0
C464 C 0.28677 0.03293 0.72858 0.0
C465 C 0.29014 0.01571 0.78846 0.0
C466 C 0.30981 0.05312 0.70576 0.0
C467 C 0.39066 0.07236 0.72277 0.0
H468 H 0.37158 0.14886 0.65545 0.0
C469 C 0.47892 0.17061 0.67724 0.0
C470 C 0.47601 0.18753 0.61664 0.0
C471 C 0.45668 0.1488 0.69647 0.0
C472 C 0.37724 0.12748 0.67341 0.0
H473 H 0.32043 0.00609 0.87121 0.0
H474 H 0.36039 0.04168 0.83218 0.0
H475 H 0.33194 0.11242 0.69219 0.0
H476 H 0.44763 0.19459 0.52826 0.0
H477 H 0.40891 0.15655 0.56184 0.0
H478 H 0.43606 0.08771 0.70476 0.0
C479 C 0.34013 0.03925 0.8021 0.0
C480 C 0.35452 0.10656 0.69436 0.0
C481 C 0.31714 0.01896 0.82473 0.0
C482 C 0.45054 0.182 0.57537 0.0
C483 C 0.42826 0.16032 0.59477 0.0
C484 C 0.41341 0.09336 0.7021 0.0
C485 C 0.33672 0.05666 0.74247 0.0
C486 C 0.36094 0.07874 0.71933 0.0
C487 C 0.43102 0.14359 0.6557 0.0
C488 C 0.40693 0.12114 0.6772 0.0
H489 H 0.26632 0.03083 0.69918 0.0
H490 H 0.30659 0.06583 0.65901 0.0
H491 H 0.39637 0.051 0.74072 0.0
H492 H 0.49828 0.17433 0.71018 0.0
H493 H 0.45931 0.13644 0.74405 0.0
C494 C 0.86797 0.00159 0.84379 0.0
C495 C 0.84927 0.01281 0.89373 0.0
C496 C 0.88984 0.98359 0.8641 0.0
C497 C 0.93405 0.96195 0.01321 0.0
H498 H 0.93375 0.88691 0.91708 0.0
C499 C 0.99103 0.86397 0.12592 0.0
C500 C 0.00326 0.84444 0.07966 0.0
C501 C 0.97527 0.88675 0.10066 0.0
C502 C 0.93464 0.90797 0.94371 0.0
H503 H 0.83961 0.01494 0.00436 0.0
H504 H 0.87803 0.98373 0.03976 0.0
H505 H 0.9014 0.92333 0.8772 0.0
H506 H 0.00964 0.83421 0.97055 0.0
H507 H 0.98294 0.87447 0.92636 0.0
H508 H 0.96734 0.94672 0.07966 0.0
C509 C 0.87569 0.98883 0.98495 0.0
C510 C 0.916 0.9288 0.92089 0.0
C511 C 0.85359 0.00654 0.9646 0.0
C512 C 0.0002 0.84872 0.00756 0.0
C513 C 0.98474 0.87172 0.98225 0.0
C514 C 0.95298 0.94123 0.03562 0.0
C515 C 0.89369 0.97678 0.9348 0.0
C516 C 0.91521 0.95582 0.95598 0.0
C517 C 0.97166 0.89075 0.02848 0.0
C518 C 0.9532 0.91378 0.00177 0.0
H519 H 0.86522 0.00604 0.78878 0.0
H520 H 0.90358 0.97476 0.82445 0.0
H521 H 0.93409 0.98276 0.04073 0.0
H522 H 0.99291 0.86118 0.1818 0.0
H523 H 0.96515 0.90064 0.13791 0.0
C524 C 0.0302 0.30839 0.1359 0.0
C525 C 0.0129 0.29456 0.18946 0.0
C526 C 0.05243 0.33072 0.15119 0.0
C527 C 0.09857 0.36271 0.29714 0.0
H528 H 0.11326 0.42877 0.16967 0.0
C529 C 0.17632 0.46643 0.36362 0.0
C530 C 0.19734 0.47569 0.31239 0.0
C531 C 0.15329 0.4449 0.34845 0.0
C532 C 0.10949 0.41035 0.20546 0.0
H533 H 0.00515 0.29351 0.30104 0.0
H534 H 0.04336 0.33306 0.32767 0.0
H535 H 0.0738 0.3902 0.14446 0.0
H536 H 0.21026 0.47013 0.20461 0.0
H537 H 0.16967 0.43275 0.17789 0.0
H538 H 0.13398 0.38333 0.35871 0.0
C539 C 0.04028 0.32619 0.27392 0.0
C540 C 0.08697 0.38816 0.19098 0.0
C541 C 0.01825 0.3036 0.25866 0.0
C542 C 0.19446 0.46342 0.24523 0.0
C543 C 0.17118 0.44213 0.22982 0.0
C544 C 0.12084 0.38507 0.31197 0.0
C545 C 0.0577 0.34002 0.22036 0.0
C546 C 0.08131 0.36396 0.23645 0.0
C547 C 0.15057 0.43246 0.28152 0.0
C548 C 0.1266 0.40903 0.26614 0.0
H549 H 0.02678 0.30177 0.08204 0.0
H550 H 0.06573 0.34041 0.10871 0.0
H551 H 0.09525 0.34419 0.33272 0.0
H552 H 0.17792 0.47543 0.4159 0.0
H553 H 0.13753 0.43804 0.38906 0.0
C554 C 0.47501 0.63095 0.56073 0.0
C555 C 0.48484 0.66111 0.5555 0.0
C556 C 0.49293 0.60941 0.53782 0.0
C557 C 0.55704 0.59896 0.42436 0.0
H558 H 0.56631 0.5309 0.54186 0.0
C559 C 0.63136 0.50886 0.34248 0.0
C560 C 0.65045 0.49961 0.39413 0.0
C561 C 0.60837 0.52593 0.36006 0.0
C562 C 0.56397 0.54981 0.50856 0.0
H563 H 0.5211 0.69229 0.52156 0.0
H564 H 0.55228 0.65483 0.48224 0.0
H565 H 0.53158 0.56636 0.57575 0.0
H566 H 0.65991 0.50037 0.50506 0.0
H567 H 0.62002 0.53047 0.53559 0.0
H568 H 0.5901 0.58307 0.35842 0.0
C569 C 0.53062 0.64778 0.50325 0.0
C570 C 0.54386 0.56994 0.52757 0.0
C571 C 0.5128 0.66926 0.52626 0.0
C572 C 0.64558 0.50714 0.46401 0.0
C573 C 0.6226 0.52424 0.48158 0.0
C574 C 0.57709 0.57884 0.40532 0.0
C575 C 0.52096 0.61762 0.50895 0.0
C576 C 0.54052 0.59498 0.48619 0.0
C577 C 0.60398 0.53415 0.42967 0.0
C578 C 0.58108 0.55425 0.44766 0.0
H579 H 0.45356 0.62395 0.58292 0.0
H580 H 0.48479 0.58633 0.54234 0.0
H581 H 0.55469 0.61783 0.39093 0.0
H582 H 0.63436 0.50325 0.28821 0.0
H583 H 0.59413 0.53285 0.319 0.0
loop_
_geom_bond_atom_site_label_1
_geom_bond_atom_site_label_2
_geom_bond_distance
_geom_bond_site_symmetry_2
_ccdc_geom_bond_type
C0 O1 1.160 . S
C0 O7 1.185 . S
O1 C0 1.160 . S
O2 Zn3 1.899 . S
O2 C10 1.284 . S
Zn3 O2 1.899 . S
Zn3 O4 2.032 . S
Zn3 O7 2.086 . S
Zn3 O12 1.977 . S
O4 Zn3 2.032 . S
O4 C8 1.278 . S
C5 O6 1.203 . S
C5 O12 1.267 . S
O6 C5 1.203 . S
O7 C0 1.185 . S
O7 Zn3 2.086 . S
C8 O4 1.278 . S
C8 O9 1.211 . S
O9 C8 1.211 . S
C10 O2 1.284 . S
C10 O11 1.273 . S
O11 C10 1.273 . S
O12 Zn3 1.977 . S
O12 C5 1.267 . S
C13 O14 1.160 . S
C13 O20 1.185 . S
O14 C13 1.160 . S
O15 Zn16 1.899 . S
O15 C23 1.284 . S
Zn16 O15 1.899 . S
Zn16 O17 2.032 . S
Zn16 O20 2.086 . S
Zn16 O25 1.977 . S
O17 Zn16 2.032 . S
O17 C21 1.278 . S
C18 O19 1.203 . S
C18 O25 1.267 . S
O19 C18 1.203 . S
O20 C13 1.185 . S
O20 Zn16 2.086 . S
C21 O17 1.278 . S
C21 O22 1.211 . S
O22 C21 1.211 . S
C23 O15 1.284 . S
C23 O24 1.273 . S
O24 C23 1.273 . S
O25 Zn16 1.977 . S
O25 C18 1.267 . S
C26 O27 1.160 . S
C26 O33 1.185 . S
O27 C26 1.160 . S
O28 Zn29 1.899 . S
O28 C36 1.284 . S
Zn29 O28 1.899 . S
Zn29 O30 2.032 . S
Zn29 O33 2.086 . S
Zn29 O38 1.977 . S
O30 Zn29 2.032 . S
O30 C34 1.278 . S
C31 O32 1.203 . S
C31 O38 1.267 . S
O32 C31 1.203 . S
O33 C26 1.185 . S
O33 Zn29 2.086 . S
C34 O30 1.278 . S
C34 O35 1.211 1_565 S
O35 C34 1.211 1_545 S
C36 O28 1.284 . S
C36 O37 1.273 . S
O37 C36 1.273 . S
O38 Zn29 1.977 . S
O38 C31 1.267 . S
C39 O40 1.160 . S
C39 O46 1.185 . S
O40 C39 1.160 . S
O41 Zn42 1.899 . S
O41 C49 1.284 . S
Zn42 O41 1.899 . S
Zn42 O43 2.032 . S
Zn42 O46 2.086 . S
Zn42 O51 1.977 . S
O43 Zn42 2.032 . S
O43 C47 1.278 . S
C44 O45 1.203 . S
C44 O51 1.267 . S
O45 C44 1.203 . S
O46 C39 1.185 . S
O46 Zn42 2.086 . S
C47 O43 1.278 . S
C47 O48 1.211 1_455 S
O48 C47 1.211 1_655 S
C49 O41 1.284 . S
C49 O50 1.273 . S
O50 C49 1.273 . S
O51 Zn42 1.977 . S
O51 C44 1.267 . S
C52 O53 1.160 . S
C52 O59 1.185 . S
O53 C52 1.160 . S
O54 Zn55 1.899 . S
O54 C62 1.284 . S
Zn55 O54 1.899 . S
Zn55 O56 2.032 . S
Zn55 O59 2.086 . S
Zn55 O64 1.977 . S
O56 Zn55 2.032 . S
O56 C60 1.278 . S
C57 O58 1.203 . S
C57 O64 1.267 . S
O58 C57 1.203 . S
O59 C52 1.185 . S
O59 Zn55 2.086 . S
C60 O56 1.278 . S
C60 O61 1.211 1_545 S
O61 C60 1.211 1_565 S
C62 O54 1.284 . S
C62 O63 1.273 . S
O63 C62 1.273 . S
O64 Zn55 1.977 . S
O64 C57 1.267 . S
C65 O66 1.160 . S
C65 O72 1.185 . S
O66 C65 1.160 . S
O67 Zn68 1.899 . S
O67 C75 1.284 . S
Zn68 O67 1.899 . S
Zn68 O69 2.032 . S
Zn68 O72 2.086 . S
Zn68 O77 1.977 . S
O69 Zn68 2.032 . S
O69 C73 1.278 . S
C70 O71 1.203 . S
C70 O77 1.267 . S
O71 C70 1.203 . S
O72 C65 1.185 . S
O72 Zn68 2.086 . S
C73 O69 1.278 . S
C73 O74 1.211 1_655 S
O74 C73 1.211 1_455 S
C75 O67 1.284 . S
C75 O76 1.273 . S
O76 C75 1.273 . S
O77 Zn68 1.977 . S
O77 C70 1.267 . S
C78 O79 1.160 . S
C78 O85 1.185 . S
O79 C78 1.160 . S
O80 Zn81 1.899 . S
O80 C88 1.284 . S
Zn81 O80 1.899 . S
Zn81 O82 2.032 . S
Zn81 O85 2.086 . S
Zn81 O90 1.977 . S
O82 Zn81 2.032 . S
O82 C86 1.278 . S
C83 O84 1.203 . S
C83 O90 1.267 . S
O84 C83 1.203 . S
O85 C78 1.185 . S
O85 Zn81 2.086 . S
C86 O82 1.278 . S
C86 O87 1.211 . S
O87 C86 1.211 . S
C88 O80 1.284 . S
C88 O89 1.273 . S
O89 C88 1.273 . S
O90 Zn81 1.977 . S
O90 C83 1.267 . S
C91 O92 1.160 . S
C91 O98 1.185 . S
O92 C91 1.160 . S
O93 Zn94 1.899 . S
O93 C101 1.284 . S
Zn94 O93 1.899 . S
Zn94 O95 2.032 . S
Zn94 O98 2.086 . S
Zn94 O103 1.977 . S
O95 Zn94 2.032 . S
O95 C99 1.278 . S
C96 O97 1.203 . S
C96 O103 1.267 . S
O97 C96 1.203 . S
O98 C91 1.185 . S
O98 Zn94 2.086 . S
C99 O95 1.278 . S
C99 O100 1.211 . S
O100 C99 1.211 . S
C101 O93 1.284 . S
C101 O102 1.273 . S
O102 C101 1.273 . S
O103 Zn94 1.977 . S
O103 C96 1.267 . S
C104 C105 1.349 . S
C104 C106 1.327 . S
C104 H129 0.950 . S
C105 C104 1.349 . S
C105 C121 1.349 . S
C106 C104 1.327 . S
C106 C125 1.429 . S
C106 H130 0.950 . S
C107 C124 1.574 1_556 S
C107 C126 1.368 . S
C107 H131 0.949 . S
H108 C112 0.949 . S
C109 C110 1.349 . S
C109 C111 1.327 . S
C109 H132 0.950 . S
C110 C109 1.349 . S
C110 C122 1.349 . S
C111 C109 1.327 . S
C111 C127 1.429 . S
C111 H133 0.950 . S
C112 H108 0.949 . S
C112 C120 1.574 1_554 S
C112 C128 1.368 . S
H113 C121 0.950 . S
H114 C119 0.950 . S
H115 C120 0.949 . S
H116 C122 0.950 . S
H117 C123 0.950 . S
H118 C124 0.949 . S
C119 H114 0.950 . S
C119 C121 1.327 . S
C119 C125 1.429 . S
C120 C112 1.574 1_556 S
C120 H115 0.949 . S
C120 C126 1.368 . S
C121 C105 1.349 . S
C121 H113 0.950 . S
C121 C119 1.327 . S
C122 C110 1.349 . S
C122 H116 0.950 . S
C122 C123 1.327 . S
C123 H117 0.950 . S
C123 C122 1.327 . S
C123 C127 1.429 . S
C124 C107 1.574 1_554 S
C124 H118 0.949 . S
C124 C128 1.368 . S
C125 C106 1.429 . S
C125 C119 1.429 . S
C125 C126 1.523 . S
C126 C107 1.368 . S
C126 C120 1.368 . S
C126 C125 1.523 . S
C127 C111 1.429 . S
C127 C123 1.429 . S
C127 C128 1.523 . S
C128 C112 1.368 . S
C128 C124 1.368 . S
C128 C127 1.523 . S
H129 C104 0.950 . S
H130 C106 0.950 . S
H131 C107 0.949 . S
H132 C109 0.950 . S
H133 C111 0.950 . S
C134 C135 1.349 . S
C134 C136 1.327 . S
C134 H159 0.950 . S
C135 C134 1.349 . S
C135 C151 1.349 . S
C136 C134 1.327 . S
C136 C155 1.429 . S
C136 H160 0.950 . S
C137 C154 1.574 . S
C137 C156 1.368 . S
C137 H161 0.949 . S
H138 C142 0.949 . S
C139 C140 1.349 . S
C139 C141 1.327 . S
C139 H162 0.950 . S
C140 C139 1.349 . S
C140 C152 1.349 . S
C141 C139 1.327 . S
C141 C157 1.429 . S
C141 H163 0.950 . S
C142 H138 0.949 . S
C142 C150 1.574 . S
C142 C158 1.368 . S
H143 C151 0.950 . S
H144 C149 0.950 . S
H145 C150 0.949 . S
H146 C152 0.950 . S
H147 C153 0.950 . S
H148 C154 0.949 . S
C149 H144 0.950 . S
C149 C151 1.327 . S
C149 C155 1.429 . S
C150 C142 1.574 . S
C150 H145 0.949 . S
C150 C156 1.368 . S
C151 C135 1.349 . S
C151 H143 0.950 . S
C151 C149 1.327 . S
C152 C140 1.349 . S
C152 H146 0.950 . S
C152 C153 1.327 . S
C153 H147 0.950 . S
C153 C152 1.327 . S
C153 C157 1.429 . S
C154 C137 1.574 . S
C154 H148 0.949 . S
C154 C158 1.368 . S
C155 C136 1.429 . S
C155 C149 1.429 . S
C155 C156 1.523 . S
C156 C137 1.368 . S
C156 C150 1.368 . S
C156 C155 1.523 . S
C157 C141 1.429 . S
C157 C153 1.429 . S
C157 C158 1.523 . S
C158 C142 1.368 . S
C158 C154 1.368 . S
C158 C157 1.523 . S
H159 C134 0.950 . S
H160 C136 0.950 . S
H161 C137 0.949 . S
H162 C139 0.950 . S
H163 C141 0.950 . S
C164 C165 1.349 . S
C164 C166 1.327 . S
C164 H189 0.950 . S
C165 C164 1.349 . S
C165 C181 1.349 . S
C166 C164 1.327 . S
C166 C185 1.429 . S
C166 H190 0.950 . S
C167 C184 1.574 . S
C167 C186 1.368 . S
C167 H191 0.949 . S
H168 C172 0.949 . S
C169 C170 1.349 . S
C169 C171 1.327 . S
C169 H192 0.950 . S
C170 C169 1.349 . S
C170 C182 1.349 . S
C171 C169 1.327 . S
C171 C187 1.429 . S
C171 H193 0.950 . S
C172 H168 0.949 . S
C172 C180 1.574 . S
C172 C188 1.368 . S
H173 C181 0.950 . S
H174 C179 0.950 . S
H175 C180 0.949 . S
H176 C182 0.950 . S
H177 C183 0.950 . S
H178 C184 0.949 . S
C179 H174 0.950 . S
C179 C181 1.327 . S
C179 C185 1.429 . S
C180 C172 1.574 . S
C180 H175 0.949 . S
C180 C186 1.368 . S
C181 C165 1.349 . S
C181 H173 0.950 . S
C181 C179 1.327 . S
C182 C170 1.349 . S
C182 H176 0.950 . S
C182 C183 1.327 . S
C183 H177 0.950 . S
C183 C182 1.327 . S
C183 C187 1.429 . S
C184 C167 1.574 . S
C184 H178 0.949 . S
C184 C188 1.368 . S
C185 C166 1.429 . S
C185 C179 1.429 . S
C185 C186 1.523 . S
C186 C167 1.368 . S
C186 C180 1.368 . S
C186 C185 1.523 . S
C187 C171 1.429 . S
C187 C183 1.429 . S
C187 C188 1.523 . S
C188 C172 1.368 . S
C188 C184 1.368 . S
C188 C187 1.523 . S
H189 C164 0.950 . S
H190 C166 0.950 . S
H191 C167 0.949 . S
H192 C169 0.950 . S
H193 C171 0.950 . S
C194 C195 1.349 . S
C194 C196 1.327 . S
C194 H219 0.950 . S
C195 C194 1.349 . S
C195 C211 1.349 . S
C196 C194 1.327 . S
C196 C215 1.429 . S
C196 H220 0.950 . S
C197 C214 1.574 . S
C197 C216 1.368 . S
C197 H221 0.949 . S
H198 C202 0.949 . S
C199 C200 1.349 . S
C199 C201 1.327 . S
C199 H222 0.950 . S
C200 C199 1.349 . S
C200 C212 1.349 . S
C201 C199 1.327 . S
C201 C217 1.429 . S
C201 H223 0.950 . S
C202 H198 0.949 . S
C202 C210 1.574 . S
C202 C218 1.368 . S
H203 C211 0.950 . S
H204 C209 0.950 . S
H205 C210 0.949 . S
H206 C212 0.950 . S
H207 C213 0.950 . S
H208 C214 0.949 . S
C209 H204 0.950 . S
C209 C211 1.327 . S
C209 C215 1.429 . S
C210 C202 1.574 . S
C210 H205 0.949 . S
C210 C216 1.368 . S
C211 C195 1.349 . S
C211 H203 0.950 . S
C211 C209 1.327 . S
C212 C200 1.349 . S
C212 H206 0.950 . S
C212 C213 1.327 . S
C213 H207 0.950 . S
C213 C212 1.327 . S
C213 C217 1.429 . S
C214 C197 1.574 . S
C214 H208 0.949 . S
C214 C218 1.368 . S
C215 C196 1.429 . S
C215 C209 1.429 . S
C215 C216 1.523 . S
C216 C197 1.368 . S
C216 C210 1.368 . S
C216 C215 1.523 . S
C217 C201 1.429 . S
C217 C213 1.429 . S
C217 C218 1.523 . S
C218 C202 1.368 . S
C218 C214 1.368 . S
C218 C217 1.523 . S
H219 C194 0.950 . S
H220 C196 0.950 . S
H221 C197 0.949 . S
H222 C199 0.950 . S
H223 C201 0.950 . S
C224 C225 1.349 . S
C224 C226 1.327 . S
C224 H249 0.950 . S
C225 C224 1.349 . S
C225 C241 1.349 . S
C226 C224 1.327 . S
C226 C245 1.429 . S
C226 H250 0.950 . S
C227 C244 1.574 . S
C227 C246 1.368 . S
C227 H251 0.949 . S
H228 C232 0.949 . S
C229 C230 1.349 . S
C229 C231 1.327 . S
C229 H252 0.950 . S
C230 C229 1.349 . S
C230 C242 1.349 . S
C231 C229 1.327 . S
C231 C247 1.429 . S
C231 H253 0.950 . S
C232 H228 0.949 . S
C232 C240 1.574 . S
C232 C248 1.368 . S
H233 C241 0.950 . S
H234 C239 0.950 . S
H235 C240 0.949 . S
H236 C242 0.950 . S
H237 C243 0.950 . S
H238 C244 0.949 . S
C239 H234 0.950 . S
C239 C241 1.327 . S
C239 C245 1.429 . S
C240 C232 1.574 . S
C240 H235 0.949 . S
C240 C246 1.368 . S
C241 C225 1.349 . S
C241 H233 0.950 . S
C241 C239 1.327 . S
C242 C230 1.349 . S
C242 H236 0.950 . S
C242 C243 1.327 . S
C243 H237 0.950 . S
C243 C242 1.327 . S
C243 C247 1.429 . S
C244 C227 1.574 . S
C244 H238 0.949 . S
C244 C248 1.368 . S
C245 C226 1.429 . S
C245 C239 1.429 . S
C245 C246 1.523 . S
C246 C227 1.368 . S
C246 C240 1.368 . S
C246 C245 1.523 . S
C247 C231 1.429 . S
C247 C243 1.429 . S
C247 C248 1.523 . S
C248 C232 1.368 . S
C248 C244 1.368 . S
C248 C247 1.523 . S
H249 C224 0.950 . S
H250 C226 0.950 . S
H251 C227 0.949 . S
H252 C229 0.950 . S
H253 C231 0.950 . S
C254 C255 1.349 . S
C254 C256 1.327 . S
C254 H279 0.950 . S
C255 C254 1.349 . S
C255 C271 1.349 . S
C256 C254 1.327 . S
C256 C275 1.429 . S
C256 H280 0.950 . S
C257 C274 1.574 . S
C257 C276 1.368 . S
C257 H281 0.949 . S
H258 C262 0.949 . S
C259 C260 1.349 . S
C259 C261 1.327 . S
C259 H282 0.950 . S
C260 C259 1.349 . S
C260 C272 1.349 . S
C261 C259 1.327 . S
C261 C277 1.429 . S
C261 H283 0.950 . S
C262 H258 0.949 . S
C262 C270 1.574 . S
C262 C278 1.368 . S
H263 C271 0.950 . S
H264 C269 0.950 . S
H265 C270 0.949 . S
H266 C272 0.950 . S
H267 C273 0.950 . S
H268 C274 0.949 . S
C269 H264 0.950 . S
C269 C271 1.327 . S
C269 C275 1.429 . S
C270 C262 1.574 . S
C270 H265 0.949 . S
C270 C276 1.368 . S
C271 C255 1.349 . S
C271 H263 0.950 . S
C271 C269 1.327 . S
C272 C260 1.349 . S
C272 H266 0.950 . S
C272 C273 1.327 . S
C273 H267 0.950 . S
C273 C272 1.327 . S
C273 C277 1.429 . S
C274 C257 1.574 . S
C274 H268 0.949 . S
C274 C278 1.368 . S
C275 C256 1.429 . S
C275 C269 1.429 . S
C275 C276 1.523 . S
C276 C257 1.368 . S
C276 C270 1.368 . S
C276 C275 1.523 . S
C277 C261 1.429 . S
C277 C273 1.429 . S
C277 C278 1.523 . S
C278 C262 1.368 . S
C278 C274 1.368 . S
C278 C277 1.523 . S
H279 C254 0.950 . S
H280 C256 0.950 . S
H281 C257 0.949 . S
H282 C259 0.950 . S
H283 C261 0.950 . S
C284 C285 1.349 . S
C284 C286 1.327 . S
C284 H309 0.950 . S
C285 C284 1.349 . S
C285 C301 1.349 . S
C286 C284 1.327 . S
C286 C305 1.429 . S
C286 H310 0.950 . S
C287 C304 1.574 . S
C287 C306 1.368 1_556 S
C287 H311 0.949 . S
H288 C292 0.949 . S
C289 C290 1.349 . S
C289 C291 1.327 . S
C289 H312 0.950 . S
C290 C289 1.349 . S
C290 C302 1.349 . S
C291 C289 1.327 . S
C291 C307 1.429 . S
C291 H313 0.950 . S
C292 H288 0.949 . S
C292 C300 1.574 . S
C292 C308 1.368 1_554 S
H293 C301 0.950 . S
H294 C299 0.950 . S
H295 C300 0.949 . S
H296 C302 0.950 . S
H297 C303 0.950 . S
H298 C304 0.949 . S
C299 H294 0.950 . S
C299 C301 1.327 . S
C299 C305 1.429 . S
C300 C292 1.574 . S
C300 H295 0.949 . S
C300 C306 1.368 . S
C301 C285 1.349 . S
C301 H293 0.950 . S
C301 C299 1.327 . S
C302 C290 1.349 . S
C302 H296 0.950 . S
C302 C303 1.327 . S
C303 H297 0.950 . S
C303 C302 1.327 . S
C303 C307 1.429 . S
C304 C287 1.574 . S
C304 H298 0.949 . S
C304 C308 1.368 . S
C305 C286 1.429 . S
C305 C299 1.429 . S
C305 C306 1.523 . S
C306 C287 1.368 1_554 S
C306 C300 1.368 . S
C306 C305 1.523 . S
C307 C291 1.429 . S
C307 C303 1.429 . S
C307 C308 1.523 . S
C308 C292 1.368 1_556 S
C308 C304 1.368 . S
C308 C307 1.523 . S
H309 C284 0.950 . S
H310 C286 0.950 . S
H311 C287 0.949 . S
H312 C289 0.950 . S
H313 C291 0.950 . S
C314 C315 1.349 . S
C314 C316 1.327 . S
C314 H339 0.950 . S
C315 C314 1.349 . S
C315 C331 1.349 . S
C316 C314 1.327 . S
C316 C335 1.429 . S
C316 H340 0.950 . S
C317 C334 1.574 . S
C317 C336 1.368 . S
C317 H341 0.949 . S
H318 C322 0.949 . S
C319 C320 1.349 . S
C319 C321 1.327 . S
C319 H342 0.950 . S
C320 C319 1.349 . S
C320 C332 1.349 . S
C321 C319 1.327 . S
C321 C337 1.429 . S
C321 H343 0.950 . S
C322 H318 0.949 . S
C322 C330 1.574 . S
C322 C338 1.368 . S
H323 C331 0.950 1_556 S
H324 C329 0.950 . S
H325 C330 0.949 . S
H326 C332 0.950 . S
H327 C333 0.950 . S
H328 C334 0.949 . S
C329 H324 0.950 . S
C329 C331 1.327 . S
C329 C335 1.429 . S
C330 C322 1.574 . S
C330 H325 0.949 . S
C330 C336 1.368 . S
C331 C315 1.349 . S
C331 H323 0.950 1_554 S
C331 C329 1.327 . S
C332 C320 1.349 . S
C332 H326 0.950 . S
C332 C333 1.327 . S
C333 H327 0.950 . S
C333 C332 1.327 . S
C333 C337 1.429 . S
C334 C317 1.574 . S
C334 H328 0.949 . S
C334 C338 1.368 . S
C335 C316 1.429 . S
C335 C329 1.429 . S
C335 C336 1.523 . S
C336 C317 1.368 . S
C336 C330 1.368 . S
C336 C335 1.523 . S
C337 C321 1.429 . S
C337 C333 1.429 . S
C337 C338 1.523 . S
C338 C322 1.368 . S
C338 C334 1.368 . S
C338 C337 1.523 . S
H339 C314 0.950 . S
H340 C316 0.950 . S
H341 C317 0.949 . S
H342 C319 0.950 . S
H343 C321 0.950 . S
C344 C345 1.349 . S
C344 C346 1.327 . S
C344 H369 0.950 . S
C345 C344 1.349 . S
C345 C361 1.349 . S
C346 C344 1.327 . S
C346 C365 1.429 . S
C346 H370 0.950 . S
C347 C364 1.574 . S
C347 C366 1.368 . S
C347 H371 0.949 . S
H348 C352 0.949 . S
C349 C350 1.349 . S
C349 C351 1.327 . S
C349 H372 0.950 . S
C350 C349 1.349 . S
C350 C362 1.349 . S
C351 C349 1.327 . S
C351 C367 1.429 . S
C351 H373 0.950 . S
C352 H348 0.949 . S
C352 C360 1.574 . S
C352 C368 1.368 . S
H353 C361 0.950 . S
H354 C359 0.950 . S
H355 C360 0.949 . S
H356 C362 0.950 . S
H357 C363 0.950 . S
H358 C364 0.949 . S
C359 H354 0.950 . S
C359 C361 1.327 . S
C359 C365 1.429 . S
C360 C352 1.574 . S
C360 H355 0.949 . S
C360 C366 1.368 . S
C361 C345 1.349 . S
C361 H353 0.950 . S
C361 C359 1.327 . S
C362 C350 1.349 . S
C362 H356 0.950 . S
C362 C363 1.327 . S
C363 H357 0.950 . S
C363 C362 1.327 . S
C363 C367 1.429 . S
C364 C347 1.574 . S
C364 H358 0.949 . S
C364 C368 1.368 . S
C365 C346 1.429 . S
C365 C359 1.429 . S
C365 C366 1.523 . S
C366 C347 1.368 . S
C366 C360 1.368 . S
C366 C365 1.523 . S
C367 C351 1.429 . S
C367 C363 1.429 . S
C367 C368 1.523 . S
C368 C352 1.368 . S
C368 C364 1.368 . S
C368 C367 1.523 . S
H369 C344 0.950 . S
H370 C346 0.950 . S
H371 C347 0.949 . S
H372 C349 0.950 . S
H373 C351 0.950 . S
C374 C375 1.349 . S
C374 C376 1.327 . S
C374 H399 0.950 . S
C375 C374 1.349 . S
C375 C391 1.349 . S
C376 C374 1.327 . S
C376 C395 1.429 . S
C376 H400 0.950 . S
C377 C394 1.574 . S
C377 C396 1.368 . S
C377 H401 0.949 . S
H378 C382 0.949 . S
C379 C380 1.349 . S
C379 C381 1.327 . S
C379 H402 0.950 . S
C380 C379 1.349 . S
C380 C392 1.349 . S
C381 C379 1.327 . S
C381 C397 1.429 . S
C381 H403 0.950 . S
C382 H378 0.949 . S
C382 C390 1.574 . S
C382 C398 1.368 . S
H383 C391 0.950 1_545 S
H384 C389 0.950 . S
H385 C390 0.949 . S
H386 C392 0.950 . S
H387 C393 0.950 . S
H388 C394 0.949 . S
C389 H384 0.950 . S
C389 C391 1.327 . S
C389 C395 1.429 . S
C390 C382 1.574 . S
C390 H385 0.949 . S
C390 C396 1.368 . S
C391 C375 1.349 . S
C391 H383 0.950 1_565 S
C391 C389 1.327 . S
C392 C380 1.349 . S
C392 H386 0.950 . S
C392 C393 1.327 . S
C393 H387 0.950 . S
C393 C392 1.327 . S
C393 C397 1.429 . S
C394 C377 1.574 . S
C394 H388 0.949 . S
C394 C398 1.368 . S
C395 C376 1.429 . S
C395 C389 1.429 . S
C395 C396 1.523 . S
C396 C377 1.368 . S
C396 C390 1.368 . S
C396 C395 1.523 . S
C397 C381 1.429 . S
C397 C393 1.429 . S
C397 C398 1.523 . S
C398 C382 1.368 . S
C398 C394 1.368 . S
C398 C397 1.523 . S
H399 C374 0.950 . S
H400 C376 0.950 . S
H401 C377 0.949 . S
H402 C379 0.950 . S
H403 C381 0.950 . S
C404 C405 1.349 . S
C404 C406 1.327 . S
C404 H429 0.950 1_455 S
C405 C404 1.349 . S
C405 C421 1.349 . S
C406 C404 1.327 . S
C406 C425 1.429 . S
C406 H430 0.950 . S
C407 C424 1.574 . S
C407 C426 1.368 1_556 S
C407 H431 0.949 . S
H408 C412 0.949 . S
C409 C410 1.349 . S
C409 C411 1.327 . S
C409 H432 0.950 . S
C410 C409 1.349 . S
C410 C422 1.349 . S
C411 C409 1.327 . S
C411 C427 1.429 . S
C411 H433 0.950 . S
C412 H408 0.949 . S
C412 C420 1.574 . S
C412 C428 1.368 1_554 S
H413 C421 0.950 1_556 S
H414 C419 0.950 . S
H415 C420 0.949 . S
H416 C422 0.950 1_564 S
H417 C423 0.950 . S
H418 C424 0.949 . S
C419 H414 0.950 . S
C419 C421 1.327 1_556 S
C419 C425 1.429 1_556 S
C420 C412 1.574 . S
C420 H415 0.949 . S
C420 C426 1.368 . S
C421 C405 1.349 . S
C421 H413 0.950 1_554 S
C421 C419 1.327 1_554 S
C422 C410 1.349 . S
C422 H416 0.950 1_546 S
C422 C423 1.327 1_556 S
C423 H417 0.950 . S
C423 C422 1.327 1_554 S
C423 C427 1.429 1_554 S
C424 C407 1.574 . S
C424 H418 0.949 . S
C424 C428 1.368 . S
C425 C406 1.429 . S
C425 C419 1.429 1_554 S
C425 C426 1.523 . S
C426 C407 1.368 1_554 S
C426 C420 1.368 . S
C426 C425 1.523 . S
C427 C411 1.429 . S
C427 C423 1.429 1_556 S
C427 C428 1.523 . S
C428 C412 1.368 1_556 S
C428 C424 1.368 . S
C428 C427 1.523 . S
H429 C404 0.950 1_655 S
H430 C406 0.950 . S
H431 C407 0.949 . S
H432 C409 0.950 . S
H433 C411 0.950 . S
C434 C435 1.349 . S
C434 C436 1.327 . S
C434 H459 0.950 . S
C435 C434 1.349 . S
C435 C451 1.349 . S
C436 C434 1.327 . S
C436 C455 1.429 . S
C436 H460 0.950 . S
C437 C454 1.574 . S
C437 C456 1.368 . S
C437 H461 0.949 . S
H438 C442 0.949 . S
C439 C440 1.349 . S
C439 C441 1.327 . S
C439 H462 0.950 . S
C440 C439 1.349 . S
C440 C452 1.349 . S
C441 C439 1.327 . S
C441 C457 1.429 . S
C441 H463 0.950 . S
C442 H438 0.949 . S
C442 C450 1.574 . S
C442 C458 1.368 . S
H443 C451 0.950 . S
H444 C449 0.950 . S
H445 C450 0.949 . S
H446 C452 0.950 . S
H447 C453 0.950 . S
H448 C454 0.949 . S
C449 H444 0.950 . S
C449 C451 1.327 . S
C449 C455 1.429 . S
C450 C442 1.574 . S
C450 H445 0.949 . S
C450 C456 1.368 . S
C451 C435 1.349 . S
C451 H443 0.950 . S
C451 C449 1.327 . S
C452 C440 1.349 . S
C452 H446 0.950 . S
C452 C453 1.327 . S
C453 H447 0.950 . S
C453 C452 1.327 . S
C453 C457 1.429 . S
C454 C437 1.574 . S
C454 H448 0.949 . S
C454 C458 1.368 . S
C455 C436 1.429 . S
C455 C449 1.429 . S
C455 C456 1.523 . S
C456 C437 1.368 . S
C456 C450 1.368 . S
C456 C455 1.523 . S
C457 C441 1.429 . S
C457 C453 1.429 . S
C457 C458 1.523 . S
C458 C442 1.368 . S
C458 C454 1.368 . S
C458 C457 1.523 . S
H459 C434 0.950 . S
H460 C436 0.950 . S
H461 C437 0.949 . S
H462 C439 0.950 . S
H463 C441 0.950 . S
C464 C465 1.349 . S
C464 C466 1.327 . S
C464 H489 0.950 . S
C465 C464 1.349 . S
C465 C481 1.349 . S
C466 C464 1.327 . S
C466 C485 1.429 . S
C466 H490 0.950 . S
C467 C484 1.574 . S
C467 C486 1.368 . S
C467 H491 0.949 . S
H468 C472 0.949 . S
C469 C470 1.349 . S
C469 C471 1.327 . S
C469 H492 0.950 . S
C470 C469 1.349 . S
C470 C482 1.349 . S
C471 C469 1.327 . S
C471 C487 1.429 . S
C471 H493 0.950 . S
C472 H468 0.949 . S
C472 C480 1.574 . S
C472 C488 1.368 . S
H473 C481 0.960 . S
H474 C479 0.950 . S
H475 C480 0.949 . S
H476 C482 0.950 . S
H477 C483 0.950 . S
H478 C484 0.949 . S
C479 H474 0.950 . S
C479 C481 1.327 . S
C479 C485 1.429 . S
C480 C472 1.574 . S
C480 H475 0.949 . S
C480 C486 1.368 . S
C481 C465 1.349 . S
C481 H473 0.960 . S
C481 C479 1.327 . S
C482 C470 1.349 . S
C482 H476 0.950 . S
C482 C483 1.327 . S
C483 H477 0.950 . S
C483 C482 1.327 . S
C483 C487 1.429 . S
C484 C467 1.574 . S
C484 H478 0.949 . S
C484 C488 1.368 . S
C485 C466 1.429 . S
C485 C479 1.429 . S
C485 C486 1.523 . S
C486 C467 1.368 . S
C486 C480 1.368 . S
C486 C485 1.523 . S
C487 C471 1.429 . S
C487 C483 1.429 . S
C487 C488 1.523 . S
C488 C472 1.368 . S
C488 C484 1.368 . S
C488 C487 1.523 . S
H489 C464 0.950 . S
H490 C466 0.950 . S
H491 C467 0.949 . S
H492 C469 0.950 . S
H493 C471 0.950 . S
C494 C495 1.349 . S
C494 C496 1.327 . S
C494 H519 0.950 . S
C495 C494 1.349 . S
C495 C511 1.349 1_556 S
C496 C494 1.327 . S
C496 C515 1.429 . S
C496 H520 0.950 . S
C497 C514 1.574 . S
C497 C516 1.368 1_554 S
C497 H521 0.949 . S
H498 C502 0.949 . S
C499 C500 1.349 . S
C499 C501 1.327 . S
C499 H522 0.950 . S
C500 C499 1.349 . S
C500 C512 1.349 1_554 S
C501 C499 1.327 . S
C501 C517 1.429 . S
C501 H523 0.950 . S
C502 H498 0.949 . S
C502 C510 1.574 . S
C502 C518 1.368 1_556 S
H503 C511 0.950 . S
H504 C509 0.950 . S
H505 C510 0.949 . S
H506 C512 0.950 1_455 S
H507 C513 0.950 . S
H508 C514 0.949 . S
C509 H504 0.950 . S
C509 C511 1.327 . S
C509 C515 1.429 1_554 S
C510 C502 1.574 . S
C510 H505 0.949 . S
C510 C516 1.368 . S
C511 C495 1.349 1_554 S
C511 H503 0.950 . S
C511 C509 1.327 . S
C512 C500 1.349 1_556 S
C512 H506 0.950 1_655 S
C512 C513 1.327 . S
C513 H507 0.950 . S
C513 C512 1.327 . S
C513 C517 1.429 1_556 S
C514 C497 1.574 . S
C514 H508 0.949 . S
C514 C518 1.368 . S
C515 C496 1.429 . S
C515 C509 1.429 1_556 S
C515 C516 1.523 . S
C516 C497 1.368 1_556 S
C516 C510 1.368 . S
C516 C515 1.523 . S
C517 C501 1.429 . S
C517 C513 1.429 1_554 S
C517 C518 1.523 . S
C518 C502 1.368 1_554 S
C518 C514 1.368 . S
C518 C517 1.523 . S
H519 C494 0.950 . S
H520 C496 0.950 . S
H521 C497 0.949 . S
H522 C499 0.950 . S
H523 C501 0.950 . S
C524 C525 1.349 . S
C524 C526 1.327 . S
C524 H549 0.950 . S
C525 C524 1.349 . S
C525 C541 1.349 . S
C526 C524 1.327 . S
C526 C545 1.429 . S
C526 H550 0.950 . S
C527 C544 1.574 . S
C527 C546 1.368 . S
C527 H551 0.949 . S
H528 C532 0.949 . S
C529 C530 1.349 . S
C529 C531 1.327 . S
C529 H552 0.950 . S
C530 C529 1.349 . S
C530 C542 1.349 . S
C531 C529 1.327 . S
C531 C547 1.429 . S
C531 H553 0.950 . S
C532 H528 0.949 . S
C532 C540 1.574 . S
C532 C548 1.368 . S
H533 C541 0.950 . S
H534 C539 0.950 . S
H535 C540 0.949 . S
H536 C542 0.950 . S
H537 C543 0.950 . S
H538 C544 0.949 . S
C539 H534 0.950 . S
C539 C541 1.327 . S
C539 C545 1.429 . S
C540 C532 1.574 . S
C540 H535 0.949 . S
C540 C546 1.368 . S
C541 C525 1.349 . S
C541 H533 0.950 . S
C541 C539 1.327 . S
C542 C530 1.349 . S
C542 H536 0.950 . S
C542 C543 1.327 . S
C543 H537 0.950 . S
C543 C542 1.327 . S
C543 C547 1.429 . S
C544 C527 1.574 . S
C544 H538 0.949 . S
C544 C548 1.368 . S
C545 C526 1.429 . S
C545 C539 1.429 . S
C545 C546 1.523 . S
C546 C527 1.368 . S
C546 C540 1.368 . S
C546 C545 1.523 . S
C547 C531 1.429 . S
C547 C543 1.429 . S
C547 C548 1.523 . S
C548 C532 1.368 . S
C548 C544 1.368 . S
C548 C547 1.523 . S
H549 C524 0.950 . S
H550 C526 0.950 . S
H551 C527 0.949 . S
H552 C529 0.950 . S
H553 C531 0.950 . S
C554 C555 1.349 . S
C554 C556 1.327 . S
C554 H579 0.950 . S
C555 C554 1.349 . S
C555 C571 1.349 . S
C556 C554 1.327 . S
C556 C575 1.429 . S
C556 H580 0.950 . S
C557 C574 1.574 . S
C557 C576 1.368 . S
C557 H581 0.949 . S
H558 C562 0.949 . S
C559 C560 1.349 . S
C559 C561 1.327 . S
C559 H582 0.950 . S
C560 C559 1.349 . S
C560 C572 1.349 . S
C561 C559 1.327 . S
C561 C577 1.429 . S
C561 H583 0.950 . S
C562 H558 0.949 . S
C562 C570 1.574 . S
C562 C578 1.368 . S
H563 C571 0.950 . S
H564 C569 0.950 . S
H565 C570 0.949 . S
H566 C572 0.950 . S
H567 C573 0.950 . S
H568 C574 0.949 . S
C569 H564 0.950 . S
C569 C571 1.327 . S
C569 C575 1.429 . S
C570 C562 1.574 . S
C570 H565 0.949 . S
C570 C576 1.368 . S
C571 C555 1.349 . S
C571 H563 0.950 . S
C571 C569 1.327 . S
C572 C560 1.349 . S
C572 H566 0.950 . S
C572 C573 1.327 . S
C573 H567 0.950 . S
C573 C572 1.327 . S
C573 C577 1.429 . S
C574 C557 1.574 . S
C574 H568 0.949 . S
C574 C578 1.368 . S
C575 C556 1.429 . S
C575 C569 1.429 . S
C575 C576 1.523 . S
C576 C557 1.368 . S
C576 C570 1.368 . S
C576 C575 1.523 . S
C577 C561 1.429 . S
C577 C573 1.429 . S
C577 C578 1.523 . S
C578 C562 1.368 . S
C578 C574 1.368 . S
C578 C577 1.523 . S
H579 C554 0.950 . S
H580 C556 0.950 . S
H581 C557 0.949 . S
H582 C559 0.950 . S
H583 C561 0.950 . S
C105 C23 1.349 . S
C110 C10 1.349 . S
C135 C13 1.364 . S
C140 C26 1.364 1_554 S
C165 C49 1.349 . S
C170 C36 1.349 . S
C195 C39 1.364 1_556 S
C200 C0 1.364 . S
C225 C62 1.349 . S
C230 C75 1.349 . S
C255 C65 1.364 1_556 S
C260 C78 1.364 . S
C285 C88 1.349 . S
C290 C101 1.349 . S
C315 C52 1.364 1_554 S
C320 C91 1.364 . S
C345 C5 1.416 . S
C350 C96 1.416 . S
C375 C60 1.417 1_565 S
C380 C21 1.417 . S
C405 C70 1.416 1_455 S
C410 C31 1.416 1_545 S
C435 C47 1.417 1_655 S
C440 C86 1.417 . S
C465 C34 1.417 1_545 S
C470 C99 1.417 . S
C495 C57 1.416 1_565 S
C500 C44 1.416 1_655 S
C525 C73 1.417 1_455 S
C530 C8 1.417 . S
C555 C18 1.416 . S
C560 C83 1.416 . S
