# Generated by pormake.
# Topology rob, (6)-cn, num edge types: 1
# Building blocks:
#     Node 0, Type 0, BuildingBlock: KUMJIN_clean_sbu_1, # of connection points: 6
#     Node 1, Type 0, BuildingBlock: KUMJIN_clean_sbu_1, # of connection points: 6
#     Node 2, Type 0, BuildingBlock: KUMJIN_clean_sbu_1, # of connection points: 6
#     Node 3, Type 0, BuildingBlock: KUMJIN_clean_sbu_1, # of connection points: 6
#     Edge 4, Type (0, 0), BuildingBlock: ZUJKAS_clean_linker_0, # of connection points: 2
#     Edge 5, Type (0, 0), BuildingBlock: ZUJKAS_clean_linker_0, # of connection points: 2
#     Edge 6, Type (0, 0), BuildingBlock: ZUJKAS_clean_linker_0, # of connection points: 2
#     Edge 7, Type (0, 0), BuildingBlock: ZUJKAS_clean_linker_0, # of connection points: 2
#     Edge 8, Type (0, 0), BuildingBlock: ZUJKAS_clean_linker_0, # of connection points: 2
#     Edge 9, Type (0, 0), BuildingBlock: ZUJKAS_clean_linker_0, # of connection points: 2
#     Edge 10, Type (0, 0), BuildingBlock: ZUJKAS_clean_linker_0, # of connection points: 2
#     Edge 11, Type (0, 0), BuildingBlock: ZUJKAS_clean_linker_0, # of connection points: 2
#     Edge 12, Type (0, 0), BuildingBlock: ZUJKAS_clean_linker_0, # of connection points: 2
#     Edge 13, Type (0, 0), BuildingBlock: ZUJKAS_clean_linker_0, # of connection points: 2
#     Edge 14, Type (0, 0), BuildingBlock: ZUJKAS_clean_linker_0, # of connection points: 2
#     Edge 15, Type (0, 0), BuildingBlock: ZUJKAS_clean_linker_0, # of connection points: 2
# Relax obj value: 0.016
# Max RMSD: 0.098
# Mean RMSD: 0.098
data_MOF--net-rob--node1-KUMJIN_clean_sbu_1--edge1-ZUJKAS_clean_linker_0
_symmetry_space_group_name_H-M    P1
_symmetry_Int_Tables_number       1
_symmetry_cell_setting            triclinic
loop_
_symmetry_equiv_pos_as_xyz
'x, y, z'
_cell_length_a     23.400178
_cell_length_b     31.10441
_cell_length_c     41.754577
_cell_angle_alpha  108.82482
_cell_angle_beta   90.080823
_cell_angle_gamma 89.969067
loop_
_atom_site_label
_atom_site_type_symbol
_atom_site_fract_x
_atom_site_fract_y
_atom_site_fract_z
_atom_type_partial_charge
Eu0 Eu 0.30478 0.20728 0.97827 0.0
C1 C 0.13806 0.38033 0.03238 0.0
N2 N 0.18779 0.37226 0.04634 0.0
C3 C 0.21521 0.4502 0.05925 0.0
C4 C 0.12517 0.42407 0.03118 0.0
C5 C 0.22597 0.40635 0.06007 0.0
C6 C 0.16466 0.4591 0.04467 0.0
C7 C 0.04763 0.35217 1.00497 0.0
C8 C 0.09977 0.34474 0.0193 0.0
C9 C 0.03478 0.39566 1.00362 0.0
C10 C 0.07345 0.43149 0.01665 0.0
Eu11 Eu 0.20274 0.29707 0.04557 0.0
N12 N 0.11391 0.30268 0.02025 0.0
C13 C 0.00995 0.31562 0.99241 0.0
C14 C 0.07654 0.26733 0.00913 0.0
C15 C 0.02432 0.27313 0.99473 0.0
H16 H 0.26432 0.39983 0.07215 0.0
H17 H 0.99507 0.24485 0.98554 0.0
H18 H 0.27021 0.1065 0.98526 0.0
H19 H 0.50812 0.29978 1.0059 0.0
H20 H 0.08677 0.23462 0.01126 0.0
H21 H 0.96948 0.31994 0.98118 0.0
H22 H 0.41349 0.28061 0.97963 0.0
H23 H 0.24572 0.47716 0.07005 0.0
H24 H 0.995 0.40198 0.9926 0.0
H25 H 0.06285 0.46486 0.01546 0.0
H26 H 0.31201 0.04928 1.00814 0.0
H27 H 0.15636 0.49315 0.04417 0.0
H28 H 0.55136 0.25169 0.03647 0.0
N29 N 0.3417 0.15069 0.99881 0.0
C30 C 0.39507 0.15789 0.01243 0.0
C31 C 0.33571 0.07972 0.00959 0.0
C32 C 0.42036 0.12638 0.026 0.0
C33 C 0.31211 0.11211 0.99674 0.0
C34 C 0.38994 0.08697 0.02443 0.0
N35 N 0.39849 0.22702 0.99983 0.0
C36 C 0.42962 0.26156 0.9951 0.0
C37 C 0.47916 0.2058 0.02758 0.0
C38 C 0.42376 0.1975 0.01352 0.0
C39 C 0.50873 0.24414 0.026 0.0
C40 C 0.48433 0.27155 0.00899 0.0
H41 H 0.40792 0.06197 0.0346 0.0
H42 H 0.49455 0.11181 0.05186 0.0
H43 H 0.5462 0.18113 0.05303 0.0
O44 O 0.35066 0.20561 0.93173 0.0
O45 O 0.2978 0.20816 0.03314 0.0
O46 O 0.29128 0.28385 0.06177 0.0
O47 O 0.31325 0.14368 0.93651 0.0
O48 O 0.30959 0.28258 0.98305 0.0
O49 O 0.29308 0.31831 0.03971 0.0
O50 O 0.16347 0.27499 0.08507 0.0
O51 O 0.19269 0.29286 0.99027 0.0
O52 O 0.21984 0.22068 0.95737 0.0
O53 O 0.18149 0.34618 0.09483 0.0
O54 O 0.18309 0.22212 0.03431 0.0
O55 O 0.21645 0.1794 0.98106 0.0
C56 C 0.30882 0.24318 0.05998 0.0
C57 C 0.36205 0.13572 0.8835 0.0
C58 C 0.40246 0.13155 0.82852 0.0
C59 C 0.39475 0.08419 0.81757 0.0
C60 C 0.35503 0.08832 0.87188 0.0
C61 C 0.37146 0.06282 0.83919 0.0
C62 C 0.38647 0.15721 0.86177 0.0
C63 C 0.31453 0.3181 0.01062 0.0
C64 C 0.34163 0.16227 0.9177 0.0
C65 C 0.47466 0.1354 0.04101 0.0
C66 C 0.50394 0.17501 0.04183 0.0
C67 C 0.1936 0.25936 0.96135 0.0
C68 C 0.10036 0.32722 0.12137 0.0
C69 C 0.03123 0.32449 0.16439 0.0
C70 C 0.98953 0.34266 0.14819 0.0
C71 C 0.0583 0.34601 0.1059 0.0
C72 C 0.08684 0.31699 0.15092 0.0
C73 C 0.00321 0.35364 0.11925 0.0
C74 C 0.18355 0.18503 1.0077 0.0
C75 C 0.15739 0.31609 0.10604 0.0
H76 H 0.40734 0.06357 0.79232 0.0
H77 H 0.3365 0.07085 0.88801 0.0
H78 H 0.36589 0.02632 0.8305 0.0
H79 H 0.39168 0.19379 0.87031 0.0
H80 H 0.94651 0.34885 0.15819 0.0
H81 H 0.06784 0.35461 0.08344 0.0
H82 H 0.11907 0.30232 0.16295 0.0
H83 H 0.97096 0.36795 0.10706 0.0
Eu84 Eu 0.80495 0.7046 0.97629 0.0
C85 C 0.60717 0.83645 1.00215 0.0
N86 N 0.6587 0.84574 0.018 0.0
C87 C 0.66336 0.91673 1.00718 0.0
C88 C 0.58241 0.86678 0.98728 0.0
C89 C 0.6866 0.88542 0.02122 0.0
C90 C 0.6112 0.90728 0.98997 0.0
C91 C 0.52667 0.78529 0.98357 0.0
C92 C 0.58006 0.7958 1.0 0.0
C93 C 0.50251 0.81492 0.96804 0.0
C94 C 0.53028 0.85554 0.9699 0.0
Eu95 Eu 0.69507 0.79087 0.04052 0.0
N96 N 0.6048 0.76735 0.01489 0.0
C97 C 0.49831 0.74593 0.98409 0.0
C98 C 0.57439 0.73181 0.01853 0.0
C99 C 0.52169 0.71966 1.00232 0.0
H100 H 0.72695 0.89269 0.03448 0.0
H101 H 0.49856 0.69064 1.00457 0.0
H102 H 0.7469 0.60051 0.94807 0.0
H103 H 0.0076 0.76107 0.0416 0.0
H104 H 0.58941 0.71363 0.03486 0.0
H105 H 0.45721 0.73668 0.97181 0.0
H106 H 0.91742 0.76947 0.01361 0.0
H107 H 0.68576 0.94803 0.0095 0.0
H108 H 0.46185 0.80709 0.955 0.0
H109 H 0.51089 0.87818 0.95799 0.0
H110 H 0.76693 0.52351 0.95042 0.0
H111 H 0.59356 0.93143 0.97886 0.0
H112 H 0.03466 0.68628 0.046 0.0
N113 N 0.8214 0.62961 0.9756 0.0
C114 C 0.87079 0.6224 0.9903 0.0
C115 C 0.79632 0.55107 0.96189 0.0
C116 C 0.88443 0.5789 0.99176 0.0
C117 C 0.78468 0.59475 0.96097 0.0
C118 C 0.84628 0.54313 0.97748 0.0
N119 N 0.89273 0.70057 1.00317 0.0
C120 C 0.92846 0.73681 0.01557 0.0
C121 C 0.95913 0.65232 0.01974 0.0
C122 C 0.90785 0.65869 1.00406 0.0
C123 C 0.99501 0.68975 0.03362 0.0
C124 C 0.97978 0.73207 0.0313 0.0
H125 H 0.85521 0.50923 0.97811 0.0
H126 H 0.94659 0.53932 1.00882 0.0
H127 H 0.01179 0.60358 0.0334 0.0
O128 O 0.84712 0.72783 0.93806 0.0
O129 O 0.81354 0.71006 0.03196 0.0
O130 O 0.77698 0.77937 0.06549 0.0
O131 O 0.8334 0.65614 0.92846 0.0
O132 O 0.82184 0.78017 0.98896 0.0
O133 O 0.78267 0.82163 0.04106 0.0
O134 O 0.64189 0.79196 0.08455 0.0
O135 O 0.70798 0.79057 0.98611 0.0
O136 O 0.71723 0.71526 0.95738 0.0
O137 O 0.68124 0.8542 0.08167 0.0
O138 O 0.69423 0.71567 0.03607 0.0
O139 O 0.71503 0.68089 0.9799 0.0
C140 C 0.80843 0.74286 0.06113 0.0
C141 C 0.82879 0.68271 0.88166 0.0
C142 C 0.84605 0.68483 0.82437 0.0
C143 C 0.78808 0.67413 0.8167 0.0
C144 C 0.77148 0.67149 0.8732 0.0
C145 C 0.75129 0.66739 0.84093 0.0
C146 C 0.86597 0.68938 0.85724 0.0
C147 C 0.81832 0.81696 0.01573 0.0
C148 C 0.84991 0.68728 0.91585 0.0
C149 C 0.93547 0.57248 1.00739 0.0
C150 C 0.97267 0.60907 0.02135 0.0
C151 C 0.6993 0.75568 0.95879 0.0
C152 C 0.62349 0.86224 0.1316 0.0
C153 C 0.57203 0.86757 0.18386 0.0
C154 C 0.57404 0.9152 0.19291 0.0
C155 C 0.62482 0.9099 0.14144 0.0
C156 C 0.59723 0.8411 0.15308 0.0
C157 C 0.6003 0.93608 0.17187 0.0
C158 C 0.69243 0.68003 1.00842 0.0
C159 C 0.64906 0.83548 0.09879 0.0
H160 H 0.77093 0.67123 0.79199 0.0
H161 H 0.74246 0.66564 0.89152 0.0
H162 H 0.70694 0.65881 0.83466 0.0
H163 H 0.91049 0.69724 0.86371 0.0
H164 H 0.55586 0.93644 0.21658 0.0
H165 H 0.64457 0.92709 0.1255 0.0
H166 H 0.59581 0.80437 0.14575 0.0
H167 H 0.60164 0.97277 0.1792 0.0
Eu168 Eu 0.3083 0.80139 0.54403 0.0
C169 C 0.1214 0.65195 0.50915 0.0
N170 N 0.17434 0.64854 0.49514 0.0
C171 C 0.18773 0.5757 0.50206 0.0
C172 C 0.10009 0.61741 0.52096 0.0
C173 C 0.20727 0.61097 0.491 0.0
C174 C 0.13403 0.579 0.51725 0.0
C175 C 0.03459 0.69556 0.52757 0.0
C176 C 0.08939 0.69093 0.51275 0.0
C177 C 0.01353 0.66148 0.53973 0.0
C178 C 0.04617 0.62253 0.53644 0.0
Eu179 Eu 0.20492 0.71014 0.47821 0.0
N180 N 0.11128 0.72382 0.50124 0.0
C181 C 0.00202 0.73387 0.52907 0.0
C182 C 0.07734 0.7588 0.49971 0.0
C183 C 0.02303 0.76512 0.51441 0.0
H184 H 0.24845 0.60814 0.47892 0.0
H185 H 0.99695 0.7936 0.5138 0.0
H186 H 0.25669 0.90308 0.54712 0.0
H187 H 0.51646 0.72368 0.49987 0.0
H188 H 0.09078 0.7811 0.48617 0.0
H189 H 0.95977 0.7387 0.54026 0.0
H190 H 0.42277 0.72968 0.52707 0.0
H191 H 0.21411 0.54602 0.49889 0.0
H192 H 0.97171 0.66467 0.55138 0.0
H193 H 0.02925 0.5965 0.54587 0.0
H194 H 0.28659 0.96942 0.53092 0.0
H195 H 0.11917 0.55175 0.52601 0.0
H196 H 0.551 0.78556 0.47976 0.0
N197 N 0.33308 0.86619 0.52963 0.0
C198 C 0.38594 0.86604 0.51607 0.0
C199 C 0.3148 0.94049 0.52646 0.0
C200 C 0.40485 0.90326 0.50659 0.0
C201 C 0.29772 0.90275 0.53529 0.0
C202 C 0.36853 0.94073 0.51198 0.0
N203 N 0.40045 0.79175 0.51912 0.0
C204 C 0.43529 0.75567 0.51676 0.0
C205 C 0.47472 0.82629 0.49556 0.0
C206 C 0.42028 0.82767 0.51037 0.0
C207 C 0.50893 0.78789 0.491 0.0
C208 C 0.48942 0.75274 0.50209 0.0
H209 H 0.38152 0.96996 0.50503 0.0
H210 H 0.47395 0.92988 0.48404 0.0
H211 H 0.53517 0.86268 0.47455 0.0
O212 O 0.35856 0.79871 0.5884 0.0
O213 O 0.30676 0.79919 0.48875 0.0
O214 O 0.29138 0.72403 0.45938 0.0
O215 O 0.31742 0.86168 0.58815 0.0
O216 O 0.32065 0.72661 0.53809 0.0
O217 O 0.29518 0.68638 0.48285 0.0
O218 O 0.15898 0.71185 0.43227 0.0
O219 O 0.20862 0.71137 0.53309 0.0
O220 O 0.2228 0.78637 0.56381 0.0
O221 O 0.19604 0.6486 0.43486 0.0
O222 O 0.19421 0.7855 0.48466 0.0
O223 O 0.21711 0.82297 0.54058 0.0
C224 C 0.31128 0.76407 0.46104 0.0
C225 C 0.37159 0.86643 0.63874 0.0
C226 C 0.42203 0.86887 0.69077 0.0
C227 C 0.41647 0.91641 0.7023 0.0
C228 C 0.36657 0.91401 0.6511 0.0
C229 C 0.38877 0.93869 0.68265 0.0
C230 C 0.39905 0.84382 0.6589 0.0
C231 C 0.3224 0.68979 0.51124 0.0
C232 C 0.34918 0.84157 0.60456 0.0
C233 C 0.45879 0.90166 0.49158 0.0
C234 C 0.49358 0.86331 0.48607 0.0
C235 C 0.20122 0.74623 0.56059 0.0
C236 C 0.14662 0.64353 0.3825 0.0
C237 C 0.09658 0.64037 0.33016 0.0
C238 C 0.10558 0.59317 0.31803 0.0
C239 C 0.15499 0.5963 0.36955 0.0
C240 C 0.11772 0.66563 0.36247 0.0
C241 C 0.13472 0.57144 0.33755 0.0
C242 C 0.19022 0.82085 0.51246 0.0
C243 C 0.16725 0.66861 0.41708 0.0
H244 H 0.43316 0.93639 0.72681 0.0
H245 H 0.34584 0.93236 0.63624 0.0
H246 H 0.38467 0.97531 0.69186 0.0
H247 H 0.40338 0.80717 0.64971 0.0
H248 H 0.09046 0.57303 0.29318 0.0
H249 H 0.177 0.57834 0.38425 0.0
H250 H 0.11073 0.70199 0.37214 0.0
H251 H 0.14145 0.53509 0.32787 0.0
Eu252 Eu 0.80562 0.2956 0.54697 0.0
C253 C 0.63529 0.12352 0.49067 0.0
N254 N 0.68504 0.13231 0.47719 0.0
C255 C 0.7122 0.05405 0.46224 0.0
C256 C 0.62243 0.0793 0.4908 0.0
C257 C 0.723 0.0984 0.46257 0.0
C258 C 0.66182 0.04447 0.47655 0.0
C259 C 0.54508 0.15086 0.51857 0.0
C260 C 0.59699 0.15889 0.50437 0.0
C261 C 0.53228 0.10688 0.51889 0.0
C262 C 0.57083 0.07122 0.50506 0.0
Eu263 Eu 0.70009 0.20827 0.47993 0.0
N264 N 0.61128 0.20143 0.50465 0.0
C265 C 0.5077 0.18735 0.53218 0.0
C266 C 0.57418 0.2368 0.51679 0.0
C267 C 0.52216 0.23041 0.53106 0.0
H268 H 0.76112 0.10547 0.45063 0.0
H269 H 0.49318 0.25868 0.54113 0.0
H270 H 0.77117 0.39665 0.54029 0.0
H271 H 0.00544 0.1991 0.514 0.0
H272 H 0.58462 0.26999 0.51568 0.0
H273 H 0.46744 0.18258 0.54337 0.0
H274 H 0.91291 0.21988 0.54256 0.0
H275 H 0.74254 0.02725 0.45077 0.0
H276 H 0.49266 0.10009 0.52978 0.0
H277 H 0.56027 0.03748 0.50545 0.0
H278 H 0.81188 0.45294 0.51612 0.0
H279 H 0.65352 0.01005 0.47619 0.0
H280 H 0.04712 0.24656 0.48251 0.0
N281 N 0.84124 0.35124 0.52508 0.0
C282 C 0.89363 0.34312 0.51026 0.0
C283 C 0.83517 0.42215 0.51422 0.0
C284 C 0.91816 0.37402 0.49589 0.0
C285 C 0.81221 0.39032 0.52781 0.0
C286 C 0.88821 0.41387 0.49802 0.0
N287 N 0.89728 0.27393 0.52291 0.0
C288 C 0.92823 0.23874 0.52678 0.0
C289 C 0.97614 0.29375 0.4932 0.0
C290 C 0.92189 0.30305 0.50862 0.0
C291 C 0.00536 0.25488 0.49403 0.0
C292 C 0.98181 0.22781 0.51155 0.0
H293 H 0.90566 0.43843 0.48728 0.0
H294 H 0.99063 0.3872 0.46818 0.0
H295 H 0.04157 0.31717 0.46605 0.0
O296 O 0.85819 0.29827 0.59154 0.0
O297 O 0.79419 0.29585 0.49268 0.0
O298 O 0.78884 0.22052 0.46367 0.0
O299 O 0.8153 0.35922 0.58853 0.0
O300 O 0.80845 0.22028 0.54213 0.0
O301 O 0.79007 0.18579 0.48554 0.0
O302 O 0.65907 0.23261 0.4419 0.0
O303 O 0.68835 0.21221 0.53497 0.0
O304 O 0.72411 0.28079 0.57054 0.0
O305 O 0.67556 0.16096 0.43067 0.0
O306 O 0.68125 0.28375 0.49343 0.0
O307 O 0.71697 0.32415 0.54675 0.0
C308 C 0.8059 0.26133 0.46572 0.0
C309 C 0.87208 0.36856 0.63912 0.0
C310 C 0.92264 0.37431 0.69175 0.0
C311 C 0.9173 0.42186 0.70164 0.0
C312 C 0.86741 0.41613 0.64972 0.0
C313 C 0.88988 0.44249 0.68076 0.0
C314 C 0.89965 0.34772 0.66034 0.0
C315 C 0.81128 0.18478 0.51442 0.0
C316 C 0.84837 0.34142 0.60589 0.0
C317 C 0.97131 0.36405 0.47961 0.0
C318 C 1.00019 0.32404 0.47826 0.0
C319 C 0.69276 0.24394 0.56471 0.0
C320 C 0.68047 0.19044 0.38531 0.0
C321 C 0.66405 0.19359 0.32821 0.0
C322 C 0.72305 0.18721 0.32183 0.0
C323 C 0.73884 0.18318 0.37805 0.0
C324 C 0.64317 0.19561 0.36037 0.0
C325 C 0.75999 0.18192 0.34656 0.0
C326 C 0.68249 0.31973 0.52091 0.0
C327 C 0.65835 0.19267 0.4188 0.0
H328 H 0.93369 0.44318 0.72582 0.0
H329 H 0.84654 0.43308 0.63394 0.0
H330 H 0.88595 0.47911 0.68871 0.0
H331 H 0.90369 0.31107 0.65234 0.0
H332 H 0.74081 0.18653 0.29773 0.0
H333 H 0.7679 0.17826 0.39673 0.0
H334 H 0.5979 0.20032 0.36585 0.0
H335 H 0.80517 0.17665 0.34121 0.0
H336 H 0.66109 0.65398 0.06242 0.0
H337 H 0.59757 0.59113 0.06203 0.0
H338 H 0.57918 0.55554 0.9538 0.0
H339 H 0.64224 0.61811 0.95396 0.0
H340 H 0.48336 0.57928 0.03861 0.0
H341 H 0.62024 0.43408 0.96731 0.0
H342 H 0.64807 0.49074 0.98653 0.0
H343 H 0.61012 0.47642 0.94704 0.0
C344 C 0.64392 0.63243 0.03853 0.0
C345 C 0.65715 0.64058 1.00819 0.0
C346 C 0.60768 0.59665 0.03834 0.0
C347 C 0.58444 0.56837 1.00782 0.0
C348 C 0.59774 0.57635 0.97751 0.0
H349 H 0.34448 0.3426 0.95563 0.0
H350 H 0.40831 0.4047 0.95458 0.0
C351 C 0.63386 0.61209 0.97766 0.0
C352 C 0.54412 0.53177 1.0078 0.0
H353 H 0.52418 0.41701 0.97702 0.0
C354 C 0.49233 0.54377 0.02531 0.0
C355 C 0.55595 0.48558 0.99019 0.0
C356 C 0.6118 0.47074 0.97193 0.0
C357 C 0.45161 0.51073 0.02539 0.0
C358 C 0.46353 0.46454 1.00791 0.0
C359 C 0.51519 0.45254 0.99026 0.0
C360 C 0.42371 0.42797 1.00858 0.0
C361 C 0.39579 0.52556 0.04371 0.0
C362 C 0.41178 0.42044 0.03922 0.0
C363 C 0.37561 0.38512 0.03988 0.0
C364 C 0.3508 0.35661 0.00986 0.0
C365 C 0.36286 0.36416 0.97915 0.0
C366 C 0.39924 0.39952 0.97851 0.0
H367 H 0.38715 0.56215 0.04812 0.0
H368 H 0.35954 0.50534 0.02924 0.0
H369 H 0.39769 0.52017 0.06869 0.0
H370 H 0.43128 0.44142 0.06258 0.0
H371 H 0.36814 0.37957 0.06384 0.0
H372 H 0.35417 0.61397 0.45929 0.0
H373 H 0.41335 0.55076 0.46284 0.0
H374 H 0.43051 0.61516 0.57056 0.0
H375 H 0.37118 0.67832 0.56742 0.0
H376 H 0.53577 0.58389 0.53407 0.0
H377 H 0.36667 0.45135 0.50511 0.0
H378 H 0.3719 0.48301 0.47602 0.0
H379 H 0.35059 0.51137 0.51897 0.0
C380 C 0.37011 0.61455 0.48379 0.0
C381 C 0.35768 0.65111 0.51309 0.0
C382 C 0.40381 0.57837 0.48576 0.0
C383 C 0.42567 0.57817 0.51701 0.0
C384 C 0.41377 0.61469 0.54624 0.0
H385 H 0.6597 0.39625 0.57468 0.0
H386 H 0.59697 0.45952 0.57534 0.0
C387 C 0.37988 0.65074 0.54435 0.0
C388 C 0.46227 0.54043 0.51913 0.0
H389 H 0.46192 0.42677 0.50764 0.0
C390 C 0.51971 0.54954 0.52849 0.0
C391 C 0.44094 0.49581 0.5118 0.0
C392 C 0.37905 0.48463 0.50267 0.0
C393 C 0.55701 0.5148 0.52983 0.0
C394 C 0.53576 0.47005 0.52239 0.0
C395 C 0.47807 0.46112 0.51338 0.0
C396 C 0.57306 0.4316 0.52255 0.0
C397 C 0.61916 0.5261 0.53812 0.0
C398 C 0.57907 0.39435 0.49297 0.0
C399 C 0.61424 0.35798 0.4926 0.0
C400 C 0.64423 0.35807 0.52186 0.0
C401 C 0.63761 0.39524 0.55164 0.0
C402 C 0.60204 0.43156 0.55202 0.0
H403 H 0.63129 0.55878 0.53454 0.0
H404 H 0.62704 0.52928 0.565 0.0
H405 H 0.64736 0.4989 0.52213 0.0
H406 H 0.55696 0.39363 0.46999 0.0
H407 H 0.61827 0.33001 0.46918 0.0
H408 H 0.11392 0.18138 0.05931 0.0
H409 H 0.05249 0.11902 0.0612 0.0
H410 H 0.1031 0.04155 0.95971 0.0
H411 H 0.16545 0.10367 0.95755 0.0
H412 H 0.96092 0.07873 0.01916 0.0
H413 H 0.1342 0.95437 0.01348 0.0
H414 H 0.14773 0.01429 0.02268 0.0
H415 H 0.13547 0.97864 0.97985 0.0
C416 C 0.11223 0.15113 0.03731 0.0
C417 C 0.1451 0.14748 1.00833 0.0
C418 C 0.07697 0.11552 0.03849 0.0
C419 C 0.07395 0.07547 0.01082 0.0
C420 C 0.10577 0.07188 0.9816 0.0
H421 H 0.88973 0.82365 0.96586 0.0
H422 H 0.95015 0.8874 0.96612 0.0
C423 C 0.14117 0.10752 0.98037 0.0
C424 C 0.0369 0.03774 0.01256 0.0
H425 H 0.03913 0.9268 0.00953 0.0
C426 C 0.97794 0.04553 0.0172 0.0
C427 C 0.05942 0.9946 0.01011 0.0
C428 C 0.12272 0.98491 1.00656 0.0
C429 C 0.94057 0.01093 0.01866 0.0
C430 C 0.96306 0.9677 0.01599 0.0
C431 C 0.02208 0.96002 0.01159 0.0
C432 C 0.92594 0.92938 0.01647 0.0
C433 C 0.87726 0.02056 0.02209 0.0
C434 C 0.89265 0.93165 0.04492 0.0
C435 C 0.85769 0.89515 0.04489 0.0
C436 C 0.85581 0.85564 0.01646 0.0
C437 C 0.88994 0.85343 0.98823 0.0
C438 C 0.92463 0.88988 0.98828 0.0
H439 H 0.8659 0.05154 0.01572 0.0
H440 H 0.85242 0.99145 1.00545 0.0
H441 H 0.86416 0.02599 0.04863 0.0
H442 H 0.89395 0.96154 0.06721 0.0
H443 H 0.8323 0.8979 0.06713 0.0
H444 H 0.86347 0.12349 0.4605 0.0
H445 H 0.92535 0.06039 0.46072 0.0
H446 H 0.90488 0.09599 0.56881 0.0
H447 H 0.84125 0.15855 0.56866 0.0
H448 H 0.02777 0.06606 0.49487 0.0
H449 H 0.87196 0.95958 0.53572 0.0
H450 H 0.85022 0.00528 0.52055 0.0
H451 H 0.87604 0.01742 0.56312 0.0
C452 C 0.87105 0.11731 0.48424 0.0
C453 C 0.84679 0.14553 0.51452 0.0
C454 C 0.90683 0.08148 0.48434 0.0
C455 C 0.91905 0.07315 0.51469 0.0
C456 C 0.89501 0.10128 0.54501 0.0
H457 H 0.14368 0.88477 0.56724 0.0
H458 H 0.07902 0.94669 0.56748 0.0
C459 C 0.85901 0.13713 0.54492 0.0
C460 C 0.95893 0.03618 0.51464 0.0
H461 H 0.96939 0.93738 0.5333 0.0
C462 C 0.01498 0.0378 0.50313 0.0
C463 C 0.94202 0.99943 0.52544 0.0
C464 C 0.88165 0.99492 0.53663 0.0
C465 C 0.0549 0.00391 0.50256 0.0
C466 C 0.03801 0.96728 0.51345 0.0
C467 C 0.98206 0.96565 0.52503 0.0
C468 C 0.07791 0.93027 0.51305 0.0
C469 C 0.11509 0.00786 0.49089 0.0
C470 C 0.09836 0.90051 0.48231 0.0
C471 C 0.1353 0.8651 0.48206 0.0
C472 C 0.15229 0.85891 0.51258 0.0
C473 C 0.13172 0.88888 0.54332 0.0
C474 C 0.09463 0.92412 0.54352 0.0
H475 H 0.12447 0.04262 0.49031 0.0
H476 H 0.14667 0.99904 0.50765 0.0
H477 H 0.12081 0.98372 0.46494 0.0
H478 H 0.08528 0.90443 0.45851 0.0
H479 H 0.15043 0.84251 0.45799 0.0
H480 H 0.6666 0.14494 0.26065 0.0
H481 H 0.60487 0.15326 0.2158 0.0
H482 H 0.50994 0.25846 0.28923 0.0
H483 H 0.57216 0.25089 0.33439 0.0
H484 H 0.44088 0.19202 0.24144 0.0
H485 H 0.60995 0.26155 0.17888 0.0
H486 H 0.62827 0.20909 0.18574 0.0
H487 H 0.61732 0.25942 0.22139 0.0
C488 C 0.63299 0.17022 0.26731 0.0
C489 C 0.6248 0.1976 0.30116 0.0
C490 C 0.59766 0.17483 0.2416 0.0
C491 C 0.5534 0.20695 0.2491 0.0
C492 C 0.54403 0.23357 0.2829 0.0
H493 H 0.37056 0.30761 0.10708 0.0
H494 H 0.42819 0.29814 0.15327 0.0
C495 C 0.57948 0.22905 0.30869 0.0
C496 C 0.51709 0.21274 0.2216 0.0
H497 H 0.52185 0.24229 0.14963 0.0
C498 C 0.45846 0.20312 0.2214 0.0
C499 C 0.54009 0.22765 0.19568 0.0
C500 C 0.60225 0.24045 0.19544 0.0
C501 C 0.42233 0.20741 0.19566 0.0
C502 C 0.44565 0.22116 0.16924 0.0
C503 C 0.50415 0.23135 0.16973 0.0
C504 C 0.40991 0.22648 0.14133 0.0
C505 C 0.35935 0.19797 0.1973 0.0
C506 C 0.38074 0.18927 0.11911 0.0
C507 C 0.34736 0.1947 0.09284 0.0
C508 C 0.34324 0.23728 0.08803 0.0
C509 C 0.37266 0.27441 0.11023 0.0
C510 C 0.40584 0.26901 0.13653 0.0
H511 H 0.34622 0.19883 0.22306 0.0
H512 H 0.33332 0.22303 0.1898 0.0
H513 H 0.34964 0.16364 0.17951 0.0
H514 H 0.38407 0.15595 0.12194 0.0
H515 H 0.32467 0.16561 0.07636 0.0
H516 H 0.46854 0.88921 0.21474 0.0
H517 H 0.42751 0.86251 0.25873 0.0
H518 H 0.57043 0.77191 0.25001 0.0
H519 H 0.61226 0.79903 0.206 0.0
H520 H 0.39728 0.77352 0.25947 0.0
H521 H 0.56992 0.85339 0.35121 0.0
H522 H 0.55819 0.86753 0.31304 0.0
H523 H 0.59216 0.81493 0.31091 0.0
C524 C 0.49111 0.86338 0.22202 0.0
C525 C 0.54396 0.84657 0.20716 0.0
C526 C 0.46749 0.84803 0.24708 0.0
C527 C 0.4963 0.81576 0.25804 0.0
C528 C 0.54787 0.79733 0.24225 0.0
H529 H 0.34709 0.69738 0.40388 0.0
H530 H 0.39371 0.70671 0.35407 0.0
C531 C 0.57145 0.81252 0.21692 0.0
C532 C 0.47305 0.80328 0.28698 0.0
H533 H 0.49645 0.81626 0.37044 0.0
C534 C 0.41919 0.78239 0.28363 0.0
C535 C 0.5014 0.81548 0.31862 0.0
C536 C 0.55844 0.83937 0.32398 0.0
C537 C 0.39268 0.77376 0.31116 0.0
C538 C 0.42095 0.78614 0.34282 0.0
C539 C 0.47504 0.8066 0.34609 0.0
C540 C 0.39383 0.78015 0.37327 0.0
C541 C 0.33378 0.75291 0.30651 0.0
C542 C 0.37917 0.81831 0.40083 0.0
C543 C 0.3522 0.81312 0.42924 0.0
C544 C 0.34018 0.76961 0.43096 0.0
C545 C 0.35553 0.7314 0.40342 0.0
C546 C 0.38214 0.73664 0.37488 0.0
H547 H 0.31347 0.75339 0.28256 0.0
H548 H 0.33694 0.71705 0.30587 0.0
H549 H 0.30561 0.77117 0.32798 0.0
H550 H 0.38767 0.85221 0.40009 0.0
H551 H 0.33992 0.84327 0.44957 0.0
H552 H 0.64159 0.69208 0.90831 0.0
H553 H 0.59282 0.7029 0.85939 0.0
H554 H 0.63905 0.8446 0.89443 0.0
H555 H 0.6898 0.83365 0.94256 0.0
H556 H 0.51506 0.81978 0.87489 0.0
H557 H 0.67783 0.73422 0.77822 0.0
H558 H 0.65158 0.70304 0.80472 0.0
H559 H 0.69328 0.75344 0.82303 0.0
C560 C 0.64189 0.72543 0.90537 0.0
C561 C 0.66958 0.76205 0.92928 0.0
C562 C 0.61381 0.73157 0.87752 0.0
C563 C 0.61249 0.7745 0.87328 0.0
C564 C 0.63958 0.81119 0.89726 0.0
H565 H 0.5268 0.88958 0.71987 0.0
H566 H 0.57088 0.86091 0.7622 0.0
C567 C 0.66831 0.80493 0.92482 0.0
C568 C 0.58292 0.78144 0.84388 0.0
H569 H 0.5956 0.76262 0.75888 0.0
C570 C 0.53228 0.80695 0.84945 0.0
C571 C 0.60577 0.76481 0.81081 0.0
C572 C 0.66034 0.73759 0.80364 0.0
C573 C 0.50416 0.81669 0.82281 0.0
C574 C 0.52737 0.80053 0.78981 0.0
C575 C 0.5777 0.77462 0.78417 0.0
C576 C 0.50266 0.81383 0.76162 0.0
C577 C 0.45081 0.84543 0.83019 0.0
C578 C 0.45041 0.79585 0.74656 0.0
C579 C 0.42533 0.81191 0.72203 0.0
C580 C 0.4519 0.84652 0.71259 0.0
C581 C 0.50525 0.86308 0.72683 0.0
C582 C 0.53049 0.84671 0.75096 0.0
H583 H 0.44141 0.85901 0.85771 0.0
H584 H 0.45519 0.87434 0.82024 0.0
H585 H 0.41385 0.82469 0.8172 0.0
H586 H 0.42843 0.77026 0.75438 0.0
H587 H 0.38405 0.79879 0.71162 0.0
H588 H 0.66471 0.30845 0.62485 0.0
H589 H 0.61384 0.29724 0.67282 0.0
H590 H 0.59666 0.15451 0.61762 0.0
H591 H 0.64793 0.16514 0.56978 0.0
H592 H 0.49867 0.25579 0.67307 0.0
H593 H 0.67717 0.16368 0.71022 0.0
H594 H 0.68756 0.19935 0.68407 0.0
H595 H 0.65774 0.14353 0.66617 0.0
C596 C 0.65014 0.27465 0.62289 0.0
C597 C 0.6604 0.23769 0.59341 0.0
C598 C 0.6209 0.26839 0.65028 0.0
C599 C 0.602 0.22502 0.64884 0.0
C600 C 0.61138 0.1882 0.61932 0.0
H601 H 0.37189 0.1181 0.76298 0.0
H602 H 0.41915 0.14726 0.72198 0.0
C603 C 0.64032 0.19444 0.59189 0.0
C604 C 0.57311 0.21793 0.67831 0.0
H605 H 0.58798 0.16399 0.73729 0.0
C606 C 0.51826 0.23603 0.68731 0.0
C607 C 0.59916 0.19265 0.69707 0.0
C608 C 0.65886 0.17391 0.6892 0.0
C609 C 0.48788 0.22801 0.71386 0.0
C610 C 0.51304 0.20114 0.73172 0.0
C611 C 0.56872 0.18448 0.7235 0.0
C612 C 0.4812 0.18748 0.75759 0.0
C613 C 0.42899 0.24807 0.72253 0.0
C614 C 0.50032 0.20052 0.79128 0.0
C615 C 0.47321 0.18397 0.81484 0.0
C616 C 0.42724 0.15344 0.80489 0.0
C617 C 0.40745 0.14134 0.77131 0.0
C618 C 0.43412 0.15823 0.74793 0.0
H619 H 0.42166 0.2767 0.71256 0.0
H620 H 0.39658 0.22149 0.71113 0.0
H621 H 0.42235 0.26033 0.75035 0.0
H622 H 0.53687 0.22283 0.79915 0.0
H623 H 0.48962 0.19357 0.84045 0.0
H624 H 0.83082 0.80927 0.1215 0.0
H625 H 0.88338 0.80178 0.17017 0.0
H626 H 0.91081 0.65958 0.11671 0.0
H627 H 0.85782 0.66654 0.06826 0.0
H628 H 0.85881 0.74615 0.20892 0.0
H629 H 0.07187 0.70461 0.14909 0.0
H630 H 0.01509 0.72841 0.13074 0.0
H631 H 0.01583 0.66873 0.1255 0.0
C632 C 0.84817 0.7764 0.12001 0.0
C633 C 0.84073 0.73864 0.09066 0.0
C634 C 0.87833 0.77223 0.14787 0.0
C635 C 0.90201 0.73034 0.14689 0.0
C636 C 0.89426 0.69254 0.11776 0.0
H637 H 0.99473 0.61417 0.29839 0.0
H638 H 0.94812 0.6429 0.25696 0.0
C639 C 0.86393 0.69661 0.08999 0.0
C640 C 0.93257 0.7255 0.17681 0.0
H641 H 0.05851 0.69015 0.20157 0.0
C642 C 0.90269 0.73441 0.20742 0.0
C643 C 0.9901 0.71082 0.17505 0.0
C644 C 0.02536 0.703 0.14344 0.0
C645 C 0.92791 0.727 0.23578 0.0
C646 C 0.98434 0.7099 0.23342 0.0
C647 C 0.01513 0.70299 0.20332 0.0
C648 C 0.01053 0.69565 0.26087 0.0
C649 C 0.89372 0.73706 0.26796 0.0
C650 C 0.06118 0.7158 0.277 0.0
C651 C 0.0879 0.69947 0.30092 0.0
C652 C 0.0649 0.66217 0.30857 0.0
C653 C 0.01352 0.64286 0.29293 0.0
C654 C 0.98666 0.65942 0.26938 0.0
H655 H 0.85869 0.76159 0.26894 0.0
H656 H 0.87417 0.70512 0.26916 0.0
H657 H 0.92141 0.751 0.29057 0.0
H658 H 0.08051 0.74363 0.27065 0.0
H659 H 0.12773 0.71469 0.31233 0.0
H660 H 0.81028 0.33869 0.44837 0.0
H661 H 0.85687 0.34907 0.39894 0.0
H662 H 0.91486 0.21 0.36795 0.0
H663 H 0.87069 0.2002 0.41826 0.0
H664 H 0.99598 0.26489 0.35716 0.0
H665 H 0.78943 0.2993 0.30526 0.0
H666 H 0.80403 0.33869 0.34648 0.0
H667 H 0.79384 0.27945 0.34124 0.0
C668 C 0.83358 0.31054 0.43123 0.0
C669 C 0.8362 0.26845 0.43684 0.0
C670 C 0.8597 0.31635 0.40282 0.0
C671 C 0.88804 0.27994 0.37923 0.0
C672 C 0.89277 0.23845 0.38561 0.0
H673 H 0.94538 0.2696 0.17166 0.0
H674 H 0.91511 0.2555 0.22346 0.0
C675 C 0.86713 0.23278 0.41419 0.0
C676 C 0.91117 0.28455 0.34738 0.0
H677 H 0.87317 0.31195 0.27746 0.0
C678 C 0.96916 0.27503 0.33962 0.0
C679 C 0.87584 0.2967 0.32413 0.0
C680 C 0.81223 0.30363 0.32946 0.0
C681 C 0.99298 0.27801 0.3095 0.0
C682 C 0.95824 0.29237 0.28703 0.0
C683 C 0.90009 0.30136 0.29472 0.0
C684 C 0.98052 0.29777 0.25514 0.0
C685 C 0.05465 0.26448 0.30175 0.0
C686 C 0.02787 0.32574 0.25543 0.0
C687 C 0.04593 0.33298 0.22561 0.0
C688 C 0.01601 0.31336 0.19522 0.0
C689 C 0.96902 0.28517 0.19484 0.0
C690 C 0.95171 0.27721 0.22444 0.0
H691 H 0.06902 0.24074 0.31511 0.0
H692 H 0.06152 0.24803 0.27418 0.0
H693 H 0.08194 0.29524 0.31052 0.0
H694 H 0.04987 0.34311 0.27885 0.0
H695 H 0.08184 0.35533 0.22656 0.0
H696 H 0.88833 0.30051 0.70936 0.0
H697 H 0.93209 0.27115 0.75164 0.0
H698 H 0.06526 0.37184 0.76872 0.0
H699 H 0.02258 0.40067 0.72623 0.0
H700 H 0.10484 0.28403 0.7649 0.0
H701 H 0.92307 0.34169 0.85438 0.0
H702 H 0.90538 0.3052 0.81251 0.0
H703 H 0.93295 0.36108 0.81841 0.0
C704 C 0.92742 0.31588 0.72177 0.0
C705 C 0.95167 0.35323 0.71472 0.0
C706 C 0.95206 0.29936 0.74612 0.0
C707 C 0.00139 0.31983 0.76373 0.0
C708 C 0.02699 0.35574 0.75562 0.0
H709 H 0.14986 0.33797 0.95508 0.0
H710 H 0.10069 0.34813 0.90646 0.0
C711 C 0.00236 0.37234 0.73146 0.0
C712 C 0.02569 0.3053 0.79147 0.0
H713 H 1.00006 0.3063 0.87228 0.0
C714 C 0.08178 0.28842 0.78826 0.0
C715 C 0.9957 0.31165 0.82207 0.0
C716 C 0.93609 0.3312 0.82737 0.0
C717 C 0.109 0.27827 0.81499 0.0
C718 C 0.07908 0.28479 0.84563 0.0
C719 C 0.02272 0.30109 0.84868 0.0
C720 C 0.10672 0.27754 0.87551 0.0
C721 C 0.17029 0.26232 0.81071 0.0
C722 C 0.12561 0.23429 0.8745 0.0
C723 C 0.15339 0.22824 0.90246 0.0
C724 C 0.16255 0.26534 0.93204 0.0
C725 C 0.14281 0.30849 0.93303 0.0
C726 C 0.11489 0.31444 0.90515 0.0
H727 H 0.19071 0.2679 0.78837 0.0
H728 H 0.1958 0.28016 0.83358 0.0
H729 H 0.17167 0.2254 0.80715 0.0
H730 H 0.11897 0.20522 0.85205 0.0
H731 H 0.16776 0.19449 0.90082 0.0
H732 H 0.18268 0.66803 0.57537 0.0
H733 H 0.12241 0.65773 0.62028 0.0
H734 H 0.0823 0.80067 0.6542 0.0
H735 H 0.14174 0.81109 0.60895 0.0
H736 H 0.13275 0.70427 0.69304 0.0
H737 H 0.92431 0.73368 0.63954 0.0
H738 H 0.98878 0.72003 0.61456 0.0
H739 H 0.97793 0.77643 0.64322 0.0
C740 C 0.16062 0.69719 0.59222 0.0
C741 C 0.16646 0.74028 0.58844 0.0
C742 C 0.12653 0.6913 0.61798 0.0
C743 C 0.09751 0.72836 0.64035 0.0
C744 C 0.10384 0.77154 0.63694 0.0
H745 H 0.93192 0.74773 0.83174 0.0
H746 H 0.99446 0.75791 0.78773 0.0
C747 C 0.13811 0.77749 0.61125 0.0
C748 C 0.06101 0.72189 0.66746 0.0
H749 H 0.92264 0.7263 0.69429 0.0
C750 C 0.08682 0.70909 0.69338 0.0
C751 C 1.00108 0.72775 0.66757 0.0
C752 C 0.97107 0.73987 0.63963 0.0
C753 C 0.05427 0.70253 0.7197 0.0
C754 C 0.99443 0.70929 0.7202 0.0
C755 C 0.96858 0.72153 0.69402 0.0
C756 C 0.95763 0.70267 0.74719 0.0
C757 C 0.08395 0.68764 0.74645 0.0
C758 C 0.91585 0.66853 0.73899 0.0
C759 C 0.88029 0.66245 0.76406 0.0
C760 C 0.8853 0.69071 0.79794 0.0
C761 C 0.92737 0.72491 0.80608 0.0
C762 C 0.9631 0.73085 0.78093 0.0
H763 H 0.12762 0.67449 0.73851 0.0
H764 H 0.08771 0.71708 0.76999 0.0
H765 H 0.05892 0.66084 0.75238 0.0
H766 H 0.91097 0.64634 0.71313 0.0
H767 H 0.8491 0.6353 0.75689 0.0
loop_
_geom_bond_atom_site_label_1
_geom_bond_atom_site_label_2
_geom_bond_distance
_geom_bond_site_symmetry_2
_ccdc_geom_bond_type
Eu0 N29 2.600 . S
Eu0 N35 2.562 . S
Eu0 O44 2.462 . S
Eu0 O45 2.373 1_556 S
Eu0 O47 2.432 . S
Eu0 O48 2.291 . S
Eu0 O52 2.335 . S
Eu0 O55 2.372 . S
Eu0 C64 2.787 . S
C1 N2 1.365 . S
C1 C4 1.405 . S
C1 C8 1.448 . S
N2 C1 1.365 . S
N2 C5 1.319 . S
N2 Eu11 2.600 . S
C3 C5 1.397 . S
C3 C6 1.367 . S
C3 H23 0.931 . S
C4 C1 1.405 . S
C4 C6 1.403 . S
C4 C10 1.439 . S
C5 N2 1.319 . S
C5 C3 1.397 . S
C5 H16 0.930 . S
C6 C3 1.367 . S
C6 C4 1.403 . S
C6 H27 0.929 . S
C7 C8 1.430 . S
C7 C9 1.387 1_454 S
C7 C13 1.404 1_454 S
C8 C1 1.448 . S
C8 C7 1.430 . S
C8 N12 1.351 . S
C9 C7 1.387 1_656 S
C9 C10 1.374 1_656 S
C9 H24 0.931 . S
C10 C4 1.439 . S
C10 C9 1.374 1_454 S
C10 H25 0.931 1_455 S
Eu11 N2 2.600 . S
Eu11 N12 2.562 . S
Eu11 O46 2.335 . S
Eu11 O49 2.372 . S
Eu11 O50 2.462 . S
Eu11 O51 2.373 1_554 S
Eu11 O53 2.432 . S
Eu11 O54 2.291 . S
Eu11 C75 2.787 . S
N12 C8 1.351 . S
N12 Eu11 2.562 . S
N12 C14 1.325 . S
C13 C7 1.404 1_656 S
C13 C15 1.366 . S
C13 H21 0.930 . S
C14 N12 1.325 . S
C14 C15 1.416 1_454 S
C14 H20 0.929 . S
C15 C13 1.366 . S
C15 C14 1.416 1_656 S
C15 H17 0.930 . S
H16 C5 0.930 . S
H17 C15 0.930 . S
H18 C33 0.930 . S
H19 C40 0.930 . S
H20 C14 0.929 . S
H21 C13 0.930 . S
H22 C36 0.929 . S
H23 C3 0.931 . S
H24 C9 0.931 . S
H25 C10 0.931 1_655 S
H26 C31 0.931 . S
H27 C6 0.929 . S
H28 C39 0.930 . S
N29 Eu0 2.600 . S
N29 C30 1.365 . S
N29 C33 1.319 . S
C30 N29 1.365 . S
C30 C32 1.405 . S
C30 C38 1.448 . S
C31 H26 0.931 . S
C31 C33 1.397 . S
C31 C34 1.367 . S
C32 C30 1.405 . S
C32 C34 1.403 . S
C32 C65 1.439 . S
C33 H18 0.930 . S
C33 N29 1.319 . S
C33 C31 1.397 . S
C34 C31 1.367 . S
C34 C32 1.403 . S
C34 H41 0.929 . S
N35 Eu0 2.562 . S
N35 C36 1.325 . S
N35 C38 1.351 . S
C36 H22 0.929 . S
C36 N35 1.325 . S
C36 C40 1.416 1_556 S
C37 C38 1.430 . S
C37 C39 1.404 1_556 S
C37 C66 1.387 1_556 S
C38 C30 1.448 . S
C38 N35 1.351 . S
C38 C37 1.430 . S
C39 H28 0.930 . S
C39 C37 1.404 1_554 S
C39 C40 1.366 . S
C40 H19 0.930 . S
C40 C36 1.416 1_554 S
C40 C39 1.366 . S
H41 C34 0.929 . S
H42 C65 0.931 . S
H43 C66 0.931 . S
O44 Eu0 2.462 . S
O44 C64 1.252 . S
O45 Eu0 2.373 1_554 S
O45 C56 1.249 . S
O46 Eu11 2.335 . S
O46 C56 1.264 . S
O47 Eu0 2.432 . S
O47 C64 1.268 . S
O48 Eu0 2.291 . S
O48 C63 1.255 1_556 S
O49 Eu11 2.372 . S
O49 C63 1.257 . S
O50 Eu11 2.462 . S
O50 C75 1.252 . S
O51 Eu11 2.373 1_556 S
O51 C67 1.249 . S
O52 Eu0 2.335 . S
O52 C67 1.264 . S
O53 Eu11 2.432 . S
O53 C75 1.268 . S
O54 Eu11 2.291 . S
O54 C74 1.255 1_554 S
O55 Eu0 2.372 . S
O55 C74 1.257 . S
C56 O45 1.249 . S
C56 O46 1.264 . S
C57 C60 1.382 . S
C57 C62 1.390 . S
C57 C64 1.506 . S
C58 C59 1.398 . S
C58 C62 1.392 . S
C59 C58 1.398 . S
C59 C61 1.372 . S
C59 H76 0.931 . S
C60 C57 1.382 . S
C60 C61 1.390 . S
C60 H77 0.931 . S
C61 C59 1.372 . S
C61 C60 1.390 . S
C61 H78 0.929 . S
C62 C57 1.390 . S
C62 C58 1.392 . S
C62 H79 0.930 . S
C63 O48 1.255 1_554 S
C63 O49 1.257 . S
C64 Eu0 2.787 . S
C64 O44 1.252 . S
C64 O47 1.268 . S
C64 C57 1.506 . S
C65 C32 1.439 . S
C65 H42 0.931 . S
C65 C66 1.374 1_556 S
C66 C37 1.387 1_554 S
C66 H43 0.931 . S
C66 C65 1.374 1_554 S
C67 O51 1.249 . S
C67 O52 1.264 . S
C68 C71 1.382 . S
C68 C72 1.390 . S
C68 C75 1.506 . S
C69 C70 1.398 . S
C69 C72 1.392 . S
C70 C69 1.398 . S
C70 C73 1.372 . S
C70 H80 0.931 . S
C71 C68 1.382 . S
C71 C73 1.390 . S
C71 H81 0.931 . S
C72 C68 1.390 . S
C72 C69 1.392 . S
C72 H82 0.930 . S
C73 C70 1.372 . S
C73 C71 1.390 . S
C73 H83 0.929 . S
C74 O54 1.255 1_556 S
C74 O55 1.257 . S
C75 Eu11 2.787 . S
C75 O50 1.252 . S
C75 O53 1.268 . S
C75 C68 1.506 . S
H76 C59 0.931 . S
H77 C60 0.931 . S
H78 C61 0.929 . S
H79 C62 0.930 . S
H80 C70 0.931 . S
H81 C71 0.931 . S
H82 C72 0.930 . S
H83 C73 0.929 . S
Eu84 N113 2.600 . S
Eu84 N119 2.562 . S
Eu84 O128 2.462 . S
Eu84 O129 2.373 1_556 S
Eu84 O131 2.432 . S
Eu84 O132 2.291 . S
Eu84 O136 2.335 . S
Eu84 O139 2.372 . S
Eu84 C148 2.787 . S
C85 N86 1.365 . S
C85 C88 1.405 . S
C85 C92 1.448 . S
N86 C85 1.365 . S
N86 C89 1.319 . S
N86 Eu95 2.600 . S
C87 C89 1.397 . S
C87 C90 1.367 . S
C87 H107 0.931 . S
C88 C85 1.405 . S
C88 C90 1.403 . S
C88 C94 1.439 . S
C89 N86 1.319 . S
C89 C87 1.397 . S
C89 H100 0.930 . S
C90 C87 1.367 . S
C90 C88 1.403 . S
C90 H111 0.929 . S
C91 C92 1.430 . S
C91 C93 1.387 1_554 S
C91 C97 1.404 1_554 S
C92 C85 1.448 . S
C92 C91 1.430 . S
C92 N96 1.351 . S
C93 C91 1.387 1_556 S
C93 C94 1.374 1_556 S
C93 H108 0.931 . S
C94 C88 1.439 . S
C94 C93 1.374 1_554 S
C94 H109 0.931 . S
Eu95 N86 2.600 . S
Eu95 N96 2.562 . S
Eu95 O130 2.335 . S
Eu95 O133 2.372 . S
Eu95 O134 2.462 . S
Eu95 O135 2.373 1_554 S
Eu95 O137 2.432 . S
Eu95 O138 2.291 . S
Eu95 C159 2.787 . S
N96 C92 1.351 . S
N96 Eu95 2.562 . S
N96 C98 1.325 . S
C97 C91 1.404 1_556 S
C97 C99 1.366 . S
C97 H105 0.930 . S
C98 N96 1.325 . S
C98 C99 1.416 1_554 S
C98 H104 0.929 . S
C99 C97 1.366 . S
C99 C98 1.416 1_556 S
C99 H101 0.930 . S
H100 C89 0.930 . S
H101 C99 0.930 . S
H102 C117 0.930 . S
H103 C124 0.930 . S
H104 C98 0.929 . S
H105 C97 0.930 . S
H106 C120 0.929 . S
H107 C87 0.931 . S
H108 C93 0.931 . S
H109 C94 0.931 . S
H110 C115 0.931 . S
H111 C90 0.929 . S
H112 C123 0.930 . S
N113 Eu84 2.600 . S
N113 C114 1.365 . S
N113 C117 1.319 . S
C114 N113 1.365 . S
C114 C116 1.405 . S
C114 C122 1.448 . S
C115 H110 0.931 . S
C115 C117 1.397 . S
C115 C118 1.367 . S
C116 C114 1.405 . S
C116 C118 1.403 . S
C116 C149 1.439 . S
C117 H102 0.930 . S
C117 N113 1.319 . S
C117 C115 1.397 . S
C118 C115 1.367 . S
C118 C116 1.403 . S
C118 H125 0.929 . S
N119 Eu84 2.562 . S
N119 C120 1.325 . S
N119 C122 1.351 . S
C120 H106 0.929 . S
C120 N119 1.325 . S
C120 C124 1.416 1_656 S
C121 C122 1.430 . S
C121 C123 1.404 1_656 S
C121 C150 1.387 1_656 S
C122 C114 1.448 . S
C122 N119 1.351 . S
C122 C121 1.430 . S
C123 H112 0.930 . S
C123 C121 1.404 1_454 S
C123 C124 1.366 . S
C124 H103 0.930 . S
C124 C120 1.416 1_454 S
C124 C123 1.366 . S
H125 C118 0.929 . S
H126 C149 0.931 1_455 S
H127 C150 0.931 . S
O128 Eu84 2.462 . S
O128 C148 1.252 . S
O129 Eu84 2.373 1_554 S
O129 C140 1.249 . S
O130 Eu95 2.335 . S
O130 C140 1.264 . S
O131 Eu84 2.432 . S
O131 C148 1.268 . S
O132 Eu84 2.291 . S
O132 C147 1.255 1_556 S
O133 Eu95 2.372 . S
O133 C147 1.257 . S
O134 Eu95 2.462 . S
O134 C159 1.252 . S
O135 Eu95 2.373 1_556 S
O135 C151 1.249 . S
O136 Eu84 2.335 . S
O136 C151 1.264 . S
O137 Eu95 2.432 . S
O137 C159 1.268 . S
O138 Eu95 2.291 . S
O138 C158 1.255 1_554 S
O139 Eu84 2.372 . S
O139 C158 1.257 . S
C140 O129 1.249 . S
C140 O130 1.264 . S
C141 C144 1.382 . S
C141 C146 1.390 . S
C141 C148 1.506 . S
C142 C143 1.398 . S
C142 C146 1.392 . S
C143 C142 1.398 . S
C143 C145 1.372 . S
C143 H160 0.931 . S
C144 C141 1.382 . S
C144 C145 1.390 . S
C144 H161 0.931 . S
C145 C143 1.372 . S
C145 C144 1.390 . S
C145 H162 0.929 . S
C146 C141 1.390 . S
C146 C142 1.392 . S
C146 H163 0.930 . S
C147 O132 1.255 1_554 S
C147 O133 1.257 . S
C148 Eu84 2.787 . S
C148 O128 1.252 . S
C148 O131 1.268 . S
C148 C141 1.506 . S
C149 C116 1.439 . S
C149 H126 0.931 1_655 S
C149 C150 1.374 1_656 S
C150 C121 1.387 1_454 S
C150 H127 0.931 . S
C150 C149 1.374 1_454 S
C151 O135 1.249 . S
C151 O136 1.264 . S
C152 C155 1.382 . S
C152 C156 1.390 . S
C152 C159 1.506 . S
C153 C154 1.398 . S
C153 C156 1.392 . S
C154 C153 1.398 . S
C154 C157 1.372 . S
C154 H164 0.931 . S
C155 C152 1.382 . S
C155 C157 1.390 . S
C155 H165 0.931 . S
C156 C152 1.390 . S
C156 C153 1.392 . S
C156 H166 0.930 . S
C157 C154 1.372 . S
C157 C155 1.390 . S
C157 H167 0.929 . S
C158 O138 1.255 1_556 S
C158 O139 1.257 . S
C159 Eu95 2.787 . S
C159 O134 1.252 . S
C159 O137 1.268 . S
C159 C152 1.506 . S
H160 C143 0.931 . S
H161 C144 0.931 . S
H162 C145 0.929 . S
H163 C146 0.930 . S
H164 C154 0.931 . S
H165 C155 0.931 . S
H166 C156 0.930 . S
H167 C157 0.929 . S
Eu168 N197 2.600 . S
Eu168 N203 2.562 . S
Eu168 O212 2.462 . S
Eu168 O213 2.373 . S
Eu168 O215 2.432 . S
Eu168 O216 2.291 . S
Eu168 O220 2.335 . S
Eu168 O223 2.372 . S
Eu168 C232 2.787 . S
C169 N170 1.365 . S
C169 C172 1.405 . S
C169 C176 1.448 . S
N170 C169 1.365 . S
N170 C173 1.319 . S
N170 Eu179 2.600 . S
C171 C173 1.397 . S
C171 C174 1.367 . S
C171 H191 0.931 . S
C172 C169 1.405 . S
C172 C174 1.403 . S
C172 C178 1.439 . S
C173 N170 1.319 . S
C173 C171 1.397 . S
C173 H184 0.930 . S
C174 C171 1.367 . S
C174 C172 1.403 . S
C174 H195 0.929 . S
C175 C176 1.430 . S
C175 C177 1.387 1_455 S
C175 C181 1.404 1_455 S
C176 C169 1.448 . S
C176 C175 1.430 . S
C176 N180 1.351 . S
C177 C175 1.387 1_655 S
C177 C178 1.374 1_655 S
C177 H192 0.931 . S
C178 C172 1.439 . S
C178 C177 1.374 1_455 S
C178 H193 0.931 1_455 S
Eu179 N170 2.600 . S
Eu179 N180 2.562 . S
Eu179 O214 2.335 . S
Eu179 O217 2.372 . S
Eu179 O218 2.462 . S
Eu179 O219 2.373 . S
Eu179 O221 2.432 . S
Eu179 O222 2.291 . S
Eu179 C243 2.787 . S
N180 C176 1.351 . S
N180 Eu179 2.562 . S
N180 C182 1.325 . S
C181 C175 1.404 1_655 S
C181 C183 1.366 . S
C181 H189 0.930 . S
C182 N180 1.325 . S
C182 C183 1.416 1_455 S
C182 H188 0.929 . S
C183 C181 1.366 . S
C183 C182 1.416 1_655 S
C183 H185 0.930 . S
H184 C173 0.930 . S
H185 C183 0.930 . S
H186 C201 0.930 . S
H187 C208 0.930 . S
H188 C182 0.929 . S
H189 C181 0.930 . S
H190 C204 0.929 . S
H191 C171 0.931 . S
H192 C177 0.931 . S
H193 C178 0.931 1_655 S
H194 C199 0.931 . S
H195 C174 0.929 . S
H196 C207 0.930 . S
N197 Eu168 2.600 . S
N197 C198 1.365 . S
N197 C201 1.319 . S
C198 N197 1.365 . S
C198 C200 1.405 . S
C198 C206 1.448 . S
C199 H194 0.931 . S
C199 C201 1.397 . S
C199 C202 1.367 . S
C200 C198 1.405 . S
C200 C202 1.403 . S
C200 C233 1.439 . S
C201 H186 0.930 . S
C201 N197 1.319 . S
C201 C199 1.397 . S
C202 C199 1.367 . S
C202 C200 1.403 . S
C202 H209 0.929 . S
N203 Eu168 2.562 . S
N203 C204 1.325 . S
N203 C206 1.351 . S
C204 H190 0.929 . S
C204 N203 1.325 . S
C204 C208 1.416 . S
C205 C206 1.430 . S
C205 C207 1.404 . S
C205 C234 1.387 . S
C206 C198 1.448 . S
C206 N203 1.351 . S
C206 C205 1.430 . S
C207 H196 0.930 . S
C207 C205 1.404 . S
C207 C208 1.366 . S
C208 H187 0.930 . S
C208 C204 1.416 . S
C208 C207 1.366 . S
H209 C202 0.929 . S
H210 C233 0.931 . S
H211 C234 0.931 . S
O212 Eu168 2.462 . S
O212 C232 1.252 . S
O213 Eu168 2.373 . S
O213 C224 1.249 . S
O214 Eu179 2.335 . S
O214 C224 1.264 . S
O215 Eu168 2.432 . S
O215 C232 1.268 . S
O216 Eu168 2.291 . S
O216 C231 1.255 . S
O217 Eu179 2.372 . S
O217 C231 1.257 . S
O218 Eu179 2.462 . S
O218 C243 1.252 . S
O219 Eu179 2.373 . S
O219 C235 1.249 . S
O220 Eu168 2.335 . S
O220 C235 1.264 . S
O221 Eu179 2.432 . S
O221 C243 1.268 . S
O222 Eu179 2.291 . S
O222 C242 1.255 . S
O223 Eu168 2.372 . S
O223 C242 1.257 . S
C224 O213 1.249 . S
C224 O214 1.264 . S
C225 C228 1.382 . S
C225 C230 1.390 . S
C225 C232 1.506 . S
C226 C227 1.398 . S
C226 C230 1.392 . S
C227 C226 1.398 . S
C227 C229 1.372 . S
C227 H244 0.931 . S
C228 C225 1.382 . S
C228 C229 1.390 . S
C228 H245 0.931 . S
C229 C227 1.372 . S
C229 C228 1.390 . S
C229 H246 0.929 . S
C230 C225 1.390 . S
C230 C226 1.392 . S
C230 H247 0.930 . S
C231 O216 1.255 . S
C231 O217 1.257 . S
C232 Eu168 2.787 . S
C232 O212 1.252 . S
C232 O215 1.268 . S
C232 C225 1.506 . S
C233 C200 1.439 . S
C233 H210 0.931 . S
C233 C234 1.374 . S
C234 C205 1.387 . S
C234 H211 0.931 . S
C234 C233 1.374 . S
C235 O219 1.249 . S
C235 O220 1.264 . S
C236 C239 1.382 . S
C236 C240 1.390 . S
C236 C243 1.506 . S
C237 C238 1.398 . S
C237 C240 1.392 . S
C238 C237 1.398 . S
C238 C241 1.372 . S
C238 H248 0.931 . S
C239 C236 1.382 . S
C239 C241 1.390 . S
C239 H249 0.931 . S
C240 C236 1.390 . S
C240 C237 1.392 . S
C240 H250 0.930 . S
C241 C238 1.372 . S
C241 C239 1.390 . S
C241 H251 0.929 . S
C242 O222 1.255 . S
C242 O223 1.257 . S
C243 Eu179 2.787 . S
C243 O218 1.252 . S
C243 O221 1.268 . S
C243 C236 1.506 . S
H244 C227 0.931 . S
H245 C228 0.931 . S
H246 C229 0.929 . S
H247 C230 0.930 . S
H248 C238 0.931 . S
H249 C239 0.931 . S
H250 C240 0.930 . S
H251 C241 0.929 . S
Eu252 N281 2.600 . S
Eu252 N287 2.562 . S
Eu252 O296 2.462 . S
Eu252 O297 2.373 . S
Eu252 O299 2.432 . S
Eu252 O300 2.291 . S
Eu252 O304 2.335 . S
Eu252 O307 2.372 . S
Eu252 C316 2.787 . S
C253 N254 1.365 . S
C253 C256 1.405 . S
C253 C260 1.448 . S
N254 C253 1.365 . S
N254 C257 1.319 . S
N254 Eu263 2.600 . S
C255 C257 1.397 . S
C255 C258 1.367 . S
C255 H275 0.931 . S
C256 C253 1.405 . S
C256 C258 1.403 . S
C256 C262 1.439 . S
C257 N254 1.319 . S
C257 C255 1.397 . S
C257 H268 0.930 . S
C258 C255 1.367 . S
C258 C256 1.403 . S
C258 H279 0.929 . S
C259 C260 1.430 . S
C259 C261 1.387 . S
C259 C265 1.404 . S
C260 C253 1.448 . S
C260 C259 1.430 . S
C260 N264 1.351 . S
C261 C259 1.387 . S
C261 C262 1.374 . S
C261 H276 0.931 . S
C262 C256 1.439 . S
C262 C261 1.374 . S
C262 H277 0.931 . S
Eu263 N254 2.600 . S
Eu263 N264 2.562 . S
Eu263 O298 2.335 . S
Eu263 O301 2.372 . S
Eu263 O302 2.462 . S
Eu263 O303 2.373 . S
Eu263 O305 2.432 . S
Eu263 O306 2.291 . S
Eu263 C327 2.787 . S
N264 C260 1.351 . S
N264 Eu263 2.562 . S
N264 C266 1.325 . S
C265 C259 1.404 . S
C265 C267 1.366 . S
C265 H273 0.930 . S
C266 N264 1.325 . S
C266 C267 1.416 . S
C266 H272 0.929 . S
C267 C265 1.366 . S
C267 C266 1.416 . S
C267 H269 0.930 . S
H268 C257 0.930 . S
H269 C267 0.930 . S
H270 C285 0.930 . S
H271 C292 0.930 . S
H272 C266 0.929 . S
H273 C265 0.930 . S
H274 C288 0.929 . S
H275 C255 0.931 . S
H276 C261 0.931 . S
H277 C262 0.931 . S
H278 C283 0.931 . S
H279 C258 0.929 . S
H280 C291 0.930 . S
N281 Eu252 2.600 . S
N281 C282 1.365 . S
N281 C285 1.319 . S
C282 N281 1.365 . S
C282 C284 1.405 . S
C282 C290 1.448 . S
C283 H278 0.931 . S
C283 C285 1.397 . S
C283 C286 1.367 . S
C284 C282 1.405 . S
C284 C286 1.403 . S
C284 C317 1.439 . S
C285 H270 0.930 . S
C285 N281 1.319 . S
C285 C283 1.397 . S
C286 C283 1.367 . S
C286 C284 1.403 . S
C286 H293 0.929 . S
N287 Eu252 2.562 . S
N287 C288 1.325 . S
N287 C290 1.351 . S
C288 H274 0.929 . S
C288 N287 1.325 . S
C288 C292 1.416 1_655 S
C289 C290 1.430 . S
C289 C291 1.404 1_655 S
C289 C318 1.387 1_655 S
C290 C282 1.448 . S
C290 N287 1.351 . S
C290 C289 1.430 . S
C291 H280 0.930 . S
C291 C289 1.404 1_455 S
C291 C292 1.366 . S
C292 H271 0.930 . S
C292 C288 1.416 1_455 S
C292 C291 1.366 . S
H293 C286 0.929 . S
H294 C317 0.931 1_455 S
H295 C318 0.931 . S
O296 Eu252 2.462 . S
O296 C316 1.252 . S
O297 Eu252 2.373 . S
O297 C308 1.249 . S
O298 Eu263 2.335 . S
O298 C308 1.264 . S
O299 Eu252 2.432 . S
O299 C316 1.268 . S
O300 Eu252 2.291 . S
O300 C315 1.255 . S
O301 Eu263 2.372 . S
O301 C315 1.257 . S
O302 Eu263 2.462 . S
O302 C327 1.252 . S
O303 Eu263 2.373 . S
O303 C319 1.249 . S
O304 Eu252 2.335 . S
O304 C319 1.264 . S
O305 Eu263 2.432 . S
O305 C327 1.268 . S
O306 Eu263 2.291 . S
O306 C326 1.255 . S
O307 Eu252 2.372 . S
O307 C326 1.257 . S
C308 O297 1.249 . S
C308 O298 1.264 . S
C309 C312 1.382 . S
C309 C314 1.390 . S
C309 C316 1.506 . S
C310 C311 1.398 . S
C310 C314 1.392 . S
C311 C310 1.398 . S
C311 C313 1.372 . S
C311 H328 0.931 . S
C312 C309 1.382 . S
C312 C313 1.390 . S
C312 H329 0.931 . S
C313 C311 1.372 . S
C313 C312 1.390 . S
C313 H330 0.929 . S
C314 C309 1.390 . S
C314 C310 1.392 . S
C314 H331 0.930 . S
C315 O300 1.255 . S
C315 O301 1.257 . S
C316 Eu252 2.787 . S
C316 O296 1.252 . S
C316 O299 1.268 . S
C316 C309 1.506 . S
C317 C284 1.439 . S
C317 H294 0.931 1_655 S
C317 C318 1.374 1_655 S
C318 C289 1.387 1_455 S
C318 H295 0.931 . S
C318 C317 1.374 1_455 S
C319 O303 1.249 . S
C319 O304 1.264 . S
C320 C323 1.382 . S
C320 C324 1.390 . S
C320 C327 1.506 . S
C321 C322 1.398 . S
C321 C324 1.392 . S
C322 C321 1.398 . S
C322 C325 1.372 . S
C322 H332 0.931 . S
C323 C320 1.382 . S
C323 C325 1.390 . S
C323 H333 0.931 . S
C324 C320 1.390 . S
C324 C321 1.392 . S
C324 H334 0.930 . S
C325 C322 1.372 . S
C325 C323 1.390 . S
C325 H335 0.929 . S
C326 O306 1.255 . S
C326 O307 1.257 . S
C327 Eu263 2.787 . S
C327 O302 1.252 . S
C327 O305 1.268 . S
C327 C320 1.506 . S
H328 C311 0.931 . S
H329 C312 0.931 . S
H330 C313 0.929 . S
H331 C314 0.930 . S
H332 C322 0.931 . S
H333 C323 0.931 . S
H334 C324 0.930 . S
H335 C325 0.929 . S
H336 C344 0.929 . S
H337 C346 0.930 . S
H338 C348 0.930 . S
H339 C351 0.929 . S
H340 C354 0.930 . S
H341 C356 0.960 . S
H342 C356 0.960 1_554 S
H343 C356 0.960 . S
C344 H336 0.929 . S
C344 C345 1.372 1_554 S
C344 C346 1.384 . S
C345 C344 1.372 1_556 S
C345 C351 1.393 . S
C346 H337 0.930 . S
C346 C344 1.384 . S
C346 C347 1.372 . S
C347 C346 1.372 . S
C347 C348 1.400 1_554 S
C347 C352 1.490 . S
C348 H338 0.930 . S
C348 C347 1.400 1_556 S
C348 C351 1.386 . S
H349 C365 0.930 . S
H350 C366 0.931 . S
C351 H339 0.929 . S
C351 C345 1.393 . S
C351 C348 1.386 . S
C352 C347 1.490 . S
C352 C354 1.395 . S
C352 C355 1.403 1_554 S
H353 C359 0.928 . S
C354 H340 0.930 . S
C354 C352 1.395 . S
C354 C357 1.403 . S
C355 C352 1.403 1_556 S
C355 C356 1.524 . S
C355 C359 1.402 . S
C356 H341 0.960 . S
C356 H342 0.960 1_556 S
C356 H343 0.960 . S
C356 C355 1.524 . S
C357 C354 1.403 . S
C357 C358 1.392 . S
C357 C361 1.495 . S
C358 C357 1.392 . S
C358 C359 1.385 1_554 S
C358 C360 1.478 . S
C359 H353 0.928 . S
C359 C355 1.402 . S
C359 C358 1.385 1_556 S
C360 C358 1.478 . S
C360 C362 1.381 . S
C360 C366 1.383 1_554 S
C361 C357 1.495 . S
C361 H367 0.959 . S
C361 H368 0.961 1_554 S
C361 H369 0.960 . S
C362 C360 1.381 . S
C362 C363 1.394 . S
C362 H370 0.930 . S
C363 C362 1.394 . S
C363 C364 1.383 . S
C363 H371 0.929 . S
C364 C363 1.383 . S
C364 C365 1.377 1_554 S
C365 H349 0.930 . S
C365 C364 1.377 1_556 S
C365 C366 1.379 . S
C366 H350 0.931 . S
C366 C360 1.383 1_556 S
C366 C365 1.379 . S
H367 C361 0.959 . S
H368 C361 0.961 1_556 S
H369 C361 0.960 . S
H370 C362 0.930 . S
H371 C363 0.929 . S
H372 C380 0.929 . S
H373 C382 0.930 . S
H374 C384 0.930 . S
H375 C387 0.929 . S
H376 C390 0.930 . S
H377 C392 0.960 . S
H378 C392 0.960 . S
H379 C392 0.960 . S
C380 H372 0.929 . S
C380 C381 1.377 . S
C380 C382 1.384 . S
C381 C380 1.377 . S
C381 C387 1.390 . S
C382 H373 0.930 . S
C382 C380 1.384 . S
C382 C383 1.372 . S
C383 C382 1.372 . S
C383 C384 1.400 . S
C383 C388 1.490 . S
C384 H374 0.930 . S
C384 C383 1.400 . S
C384 C387 1.386 . S
H385 C401 0.930 . S
H386 C402 0.931 . S
C387 H375 0.929 . S
C387 C381 1.390 . S
C387 C384 1.386 . S
C388 C383 1.490 . S
C388 C390 1.395 . S
C388 C391 1.403 . S
H389 C395 0.930 . S
C390 H376 0.930 . S
C390 C388 1.395 . S
C390 C393 1.403 . S
C391 C388 1.403 . S
C391 C392 1.524 . S
C391 C395 1.400 . S
C392 H377 0.960 . S
C392 H378 0.960 . S
C392 H379 0.960 . S
C392 C391 1.524 . S
C393 C390 1.403 . S
C393 C394 1.392 . S
C393 C397 1.495 . S
C394 C393 1.392 . S
C394 C395 1.385 . S
C394 C396 1.478 . S
C395 H389 0.930 . S
C395 C391 1.400 . S
C395 C394 1.385 . S
C396 C394 1.478 . S
C396 C398 1.381 . S
C396 C402 1.383 . S
C397 C393 1.495 . S
C397 H403 0.959 . S
C397 H404 0.961 . S
C397 H405 0.960 . S
C398 C396 1.381 . S
C398 C399 1.394 . S
C398 H406 0.930 . S
C399 C398 1.394 . S
C399 C400 1.383 . S
C399 H407 0.929 . S
C400 C399 1.383 . S
C400 C401 1.377 . S
C401 H385 0.930 . S
C401 C400 1.377 . S
C401 C402 1.379 . S
C402 H386 0.931 . S
C402 C396 1.383 . S
C402 C401 1.379 . S
H403 C397 0.959 . S
H404 C397 0.961 . S
H405 C397 0.960 . S
H406 C398 0.930 . S
H407 C399 0.929 . S
H408 C416 0.929 . S
H409 C418 0.930 . S
H410 C420 0.930 . S
H411 C423 0.929 . S
H412 C426 0.930 . S
H413 C428 0.960 . S
H414 C428 0.960 . S
H415 C428 0.960 1_545 S
C416 H408 0.929 . S
C416 C417 1.354 1_554 S
C416 C418 1.384 . S
C417 C416 1.354 1_556 S
C417 C423 1.406 . S
C418 H409 0.930 . S
C418 C416 1.384 . S
C418 C419 1.372 . S
C419 C418 1.372 . S
C419 C420 1.400 1_554 S
C419 C424 1.490 . S
C420 H410 0.930 . S
C420 C419 1.400 1_556 S
C420 C423 1.386 . S
H421 C437 0.930 . S
H422 C438 0.931 . S
C423 H411 0.929 . S
C423 C417 1.406 . S
C423 C420 1.386 . S
C424 C419 1.490 . S
C424 C426 1.395 . S
C424 C427 1.403 1_544 S
H425 C431 0.930 . S
C426 H412 0.930 . S
C426 C424 1.395 . S
C426 C429 1.403 1_455 S
C427 C424 1.403 1_566 S
C427 C428 1.524 . S
C427 C431 1.400 1_455 S
C428 H413 0.960 . S
C428 H414 0.960 . S
C428 H415 0.960 1_565 S
C428 C427 1.524 . S
C429 C426 1.403 1_655 S
C429 C430 1.392 1_545 S
C429 C433 1.495 . S
C430 C429 1.392 1_565 S
C430 C431 1.385 1_554 S
C430 C432 1.478 . S
C431 H425 0.930 . S
C431 C427 1.400 1_655 S
C431 C430 1.385 1_556 S
C432 C430 1.478 . S
C432 C434 1.381 . S
C432 C438 1.383 1_554 S
C433 C429 1.495 . S
C433 H439 0.959 . S
C433 H440 0.961 . S
C433 H441 0.960 1_545 S
C434 C432 1.381 . S
C434 C435 1.394 . S
C434 H442 0.930 . S
C435 C434 1.394 . S
C435 C436 1.383 . S
C435 H443 0.929 . S
C436 C435 1.383 . S
C436 C437 1.377 1_554 S
C437 H421 0.930 . S
C437 C436 1.377 1_556 S
C437 C438 1.379 . S
C438 H422 0.931 . S
C438 C432 1.383 1_556 S
C438 C437 1.379 . S
H439 C433 0.959 . S
H440 C433 0.961 . S
H441 C433 0.960 1_565 S
H442 C434 0.930 . S
H443 C435 0.929 . S
H444 C452 0.929 . S
H445 C454 0.930 . S
H446 C456 0.930 . S
H447 C459 0.929 . S
H448 C462 0.930 . S
H449 C464 0.960 . S
H450 C464 0.960 . S
H451 C464 0.960 1_545 S
C452 H444 0.929 . S
C452 C453 1.377 . S
C452 C454 1.384 . S
C453 C452 1.377 . S
C453 C459 1.390 . S
C454 H445 0.930 . S
C454 C452 1.384 . S
C454 C455 1.372 . S
C455 C454 1.372 . S
C455 C456 1.400 . S
C455 C460 1.490 . S
C456 H446 0.930 . S
C456 C455 1.400 . S
C456 C459 1.386 . S
H457 C473 0.930 . S
H458 C474 0.931 . S
C459 H447 0.929 . S
C459 C453 1.390 . S
C459 C456 1.386 . S
C460 C455 1.490 . S
C460 C462 1.395 1_655 S
C460 C463 1.403 1_545 S
H461 C467 0.930 . S
C462 H448 0.930 . S
C462 C460 1.395 1_455 S
C462 C465 1.403 . S
C463 C460 1.403 1_565 S
C463 C464 1.524 . S
C463 C467 1.400 . S
C464 H449 0.960 . S
C464 H450 0.960 . S
C464 H451 0.960 1_565 S
C464 C463 1.524 . S
C465 C462 1.403 . S
C465 C466 1.392 1_545 S
C465 C469 1.495 . S
C466 C465 1.392 1_565 S
C466 C467 1.385 1_455 S
C466 C468 1.478 . S
C467 H461 0.930 . S
C467 C463 1.400 . S
C467 C466 1.385 1_655 S
C468 C466 1.478 . S
C468 C470 1.381 . S
C468 C474 1.383 . S
C469 C465 1.495 . S
C469 H475 0.959 . S
C469 H476 0.961 . S
C469 H477 0.960 1_545 S
C470 C468 1.381 . S
C470 C471 1.394 . S
C470 H478 0.930 . S
C471 C470 1.394 . S
C471 C472 1.383 . S
C471 H479 0.929 . S
C472 C471 1.383 . S
C472 C473 1.377 . S
C473 H457 0.930 . S
C473 C472 1.377 . S
C473 C474 1.379 . S
C474 H458 0.931 . S
C474 C468 1.383 . S
C474 C473 1.379 . S
H475 C469 0.959 . S
H476 C469 0.961 . S
H477 C469 0.960 1_565 S
H478 C470 0.930 . S
H479 C471 0.929 . S
H480 C488 0.929 . S
H481 C490 0.930 . S
H482 C492 0.930 . S
H483 C495 0.929 . S
H484 C498 0.930 . S
H485 C500 0.960 . S
H486 C500 0.960 . S
H487 C500 0.960 . S
C488 H480 0.929 . S
C488 C489 1.377 . S
C488 C490 1.384 . S
C489 C488 1.377 . S
C489 C495 1.390 . S
C490 H481 0.930 . S
C490 C488 1.384 . S
C490 C491 1.372 . S
C491 C490 1.372 . S
C491 C492 1.400 . S
C491 C496 1.490 . S
C492 H482 0.930 . S
C492 C491 1.400 . S
C492 C495 1.386 . S
H493 C509 0.930 . S
H494 C510 0.931 . S
C495 H483 0.929 . S
C495 C489 1.390 . S
C495 C492 1.386 . S
C496 C491 1.490 . S
C496 C498 1.395 . S
C496 C499 1.403 . S
H497 C503 0.930 . S
C498 H484 0.930 . S
C498 C496 1.395 . S
C498 C501 1.403 . S
C499 C496 1.403 . S
C499 C500 1.524 . S
C499 C503 1.400 . S
C500 H485 0.960 . S
C500 H486 0.960 . S
C500 H487 0.960 . S
C500 C499 1.524 . S
C501 C498 1.403 . S
C501 C502 1.392 . S
C501 C505 1.495 . S
C502 C501 1.392 . S
C502 C503 1.385 . S
C502 C504 1.478 . S
C503 H497 0.930 . S
C503 C499 1.400 . S
C503 C502 1.385 . S
C504 C502 1.478 . S
C504 C506 1.381 . S
C504 C510 1.383 . S
C505 C501 1.495 . S
C505 H511 0.959 . S
C505 H512 0.961 . S
C505 H513 0.960 . S
C506 C504 1.381 . S
C506 C507 1.394 . S
C506 H514 0.930 . S
C507 C506 1.394 . S
C507 C508 1.383 . S
C507 H515 0.929 . S
C508 C507 1.383 . S
C508 C509 1.377 . S
C509 H493 0.930 . S
C509 C508 1.377 . S
C509 C510 1.379 . S
C510 H494 0.931 . S
C510 C504 1.383 . S
C510 C509 1.379 . S
H511 C505 0.959 . S
H512 C505 0.961 . S
H513 C505 0.960 . S
H514 C506 0.930 . S
H515 C507 0.929 . S
H516 C524 0.929 . S
H517 C526 0.930 . S
H518 C528 0.930 . S
H519 C531 0.929 . S
H520 C534 0.930 . S
H521 C536 0.960 . S
H522 C536 0.960 . S
H523 C536 0.960 . S
C524 H516 0.929 . S
C524 C525 1.377 . S
C524 C526 1.384 . S
C525 C524 1.377 . S
C525 C531 1.390 . S
C526 H517 0.930 . S
C526 C524 1.384 . S
C526 C527 1.372 . S
C527 C526 1.372 . S
C527 C528 1.400 . S
C527 C532 1.490 . S
C528 H518 0.930 . S
C528 C527 1.400 . S
C528 C531 1.386 . S
H529 C545 0.930 . S
H530 C546 0.931 . S
C531 H519 0.929 . S
C531 C525 1.390 . S
C531 C528 1.386 . S
C532 C527 1.490 . S
C532 C534 1.395 . S
C532 C535 1.403 . S
H533 C539 0.930 . S
C534 H520 0.930 . S
C534 C532 1.395 . S
C534 C537 1.403 . S
C535 C532 1.403 . S
C535 C536 1.524 . S
C535 C539 1.400 . S
C536 H521 0.960 . S
C536 H522 0.960 . S
C536 H523 0.960 . S
C536 C535 1.524 . S
C537 C534 1.403 . S
C537 C538 1.392 . S
C537 C541 1.495 . S
C538 C537 1.392 . S
C538 C539 1.385 . S
C538 C540 1.478 . S
C539 H533 0.930 . S
C539 C535 1.400 . S
C539 C538 1.385 . S
C540 C538 1.478 . S
C540 C542 1.381 . S
C540 C546 1.383 . S
C541 C537 1.495 . S
C541 H547 0.959 . S
C541 H548 0.961 . S
C541 H549 0.960 . S
C542 C540 1.381 . S
C542 C543 1.394 . S
C542 H550 0.930 . S
C543 C542 1.394 . S
C543 C544 1.383 . S
C543 H551 0.929 . S
C544 C543 1.383 . S
C544 C545 1.377 . S
C545 H529 0.930 . S
C545 C544 1.377 . S
C545 C546 1.379 . S
C546 H530 0.931 . S
C546 C540 1.383 . S
C546 C545 1.379 . S
H547 C541 0.959 . S
H548 C541 0.961 . S
H549 C541 0.960 . S
H550 C542 0.930 . S
H551 C543 0.929 . S
H552 C560 0.929 . S
H553 C562 0.930 . S
H554 C564 0.930 . S
H555 C567 0.929 . S
H556 C570 0.930 . S
H557 C572 0.960 . S
H558 C572 0.960 . S
H559 C572 0.960 . S
C560 H552 0.929 . S
C560 C561 1.377 . S
C560 C562 1.384 . S
C561 C560 1.377 . S
C561 C567 1.390 . S
C562 H553 0.930 . S
C562 C560 1.384 . S
C562 C563 1.372 . S
C563 C562 1.372 . S
C563 C564 1.400 . S
C563 C568 1.490 . S
C564 H554 0.930 . S
C564 C563 1.400 . S
C564 C567 1.386 . S
H565 C581 0.930 . S
H566 C582 0.931 . S
C567 H555 0.929 . S
C567 C561 1.390 . S
C567 C564 1.386 . S
C568 C563 1.490 . S
C568 C570 1.395 . S
C568 C571 1.403 . S
H569 C575 0.930 . S
C570 H556 0.930 . S
C570 C568 1.395 . S
C570 C573 1.403 . S
C571 C568 1.403 . S
C571 C572 1.524 . S
C571 C575 1.400 . S
C572 H557 0.960 . S
C572 H558 0.960 . S
C572 H559 0.960 . S
C572 C571 1.524 . S
C573 C570 1.403 . S
C573 C574 1.392 . S
C573 C577 1.495 . S
C574 C573 1.392 . S
C574 C575 1.385 . S
C574 C576 1.478 . S
C575 H569 0.930 . S
C575 C571 1.400 . S
C575 C574 1.385 . S
C576 C574 1.478 . S
C576 C578 1.381 . S
C576 C582 1.383 . S
C577 C573 1.495 . S
C577 H583 0.959 . S
C577 H584 0.961 . S
C577 H585 0.960 . S
C578 C576 1.381 . S
C578 C579 1.394 . S
C578 H586 0.930 . S
C579 C578 1.394 . S
C579 C580 1.383 . S
C579 H587 0.929 . S
C580 C579 1.383 . S
C580 C581 1.377 . S
C581 H565 0.930 . S
C581 C580 1.377 . S
C581 C582 1.379 . S
C582 H566 0.931 . S
C582 C576 1.383 . S
C582 C581 1.379 . S
H583 C577 0.959 . S
H584 C577 0.961 . S
H585 C577 0.960 . S
H586 C578 0.930 . S
H587 C579 0.929 . S
H588 C596 0.929 . S
H589 C598 0.930 . S
H590 C600 0.930 . S
H591 C603 0.929 . S
H592 C606 0.930 . S
H593 C608 0.960 . S
H594 C608 0.960 . S
H595 C608 0.960 . S
C596 H588 0.929 . S
C596 C597 1.377 . S
C596 C598 1.384 . S
C597 C596 1.377 . S
C597 C603 1.390 . S
C598 H589 0.930 . S
C598 C596 1.384 . S
C598 C599 1.372 . S
C599 C598 1.372 . S
C599 C600 1.400 . S
C599 C604 1.490 . S
C600 H590 0.930 . S
C600 C599 1.400 . S
C600 C603 1.386 . S
H601 C617 0.930 . S
H602 C618 0.931 . S
C603 H591 0.929 . S
C603 C597 1.390 . S
C603 C600 1.386 . S
C604 C599 1.490 . S
C604 C606 1.395 . S
C604 C607 1.403 . S
H605 C611 0.930 . S
C606 H592 0.930 . S
C606 C604 1.395 . S
C606 C609 1.403 . S
C607 C604 1.403 . S
C607 C608 1.524 . S
C607 C611 1.400 . S
C608 H593 0.960 . S
C608 H594 0.960 . S
C608 H595 0.960 . S
C608 C607 1.524 . S
C609 C606 1.403 . S
C609 C610 1.392 . S
C609 C613 1.495 . S
C610 C609 1.392 . S
C610 C611 1.385 . S
C610 C612 1.478 . S
C611 H605 0.930 . S
C611 C607 1.400 . S
C611 C610 1.385 . S
C612 C610 1.478 . S
C612 C614 1.381 . S
C612 C618 1.383 . S
C613 C609 1.495 . S
C613 H619 0.959 . S
C613 H620 0.961 . S
C613 H621 0.960 . S
C614 C612 1.381 . S
C614 C615 1.394 . S
C614 H622 0.930 . S
C615 C614 1.394 . S
C615 C616 1.383 . S
C615 H623 0.929 . S
C616 C615 1.383 . S
C616 C617 1.377 . S
C617 H601 0.930 . S
C617 C616 1.377 . S
C617 C618 1.379 . S
C618 H602 0.931 . S
C618 C612 1.383 . S
C618 C617 1.379 . S
H619 C613 0.959 . S
H620 C613 0.961 . S
H621 C613 0.960 . S
H622 C614 0.930 . S
H623 C615 0.929 . S
H624 C632 0.929 . S
H625 C634 0.930 . S
H626 C636 0.930 . S
H627 C639 0.929 . S
H628 C642 0.930 . S
H629 C644 0.960 1_455 S
H630 C644 0.960 1_455 S
H631 C644 0.960 . S
C632 H624 0.929 . S
C632 C633 1.377 . S
C632 C634 1.384 . S
C633 C632 1.377 . S
C633 C639 1.390 . S
C634 H625 0.930 . S
C634 C632 1.384 . S
C634 C635 1.372 . S
C635 C634 1.372 . S
C635 C636 1.400 . S
C635 C640 1.490 . S
C636 H626 0.930 . S
C636 C635 1.400 . S
C636 C639 1.386 . S
H637 C653 0.930 . S
H638 C654 0.931 . S
C639 H627 0.929 . S
C639 C633 1.390 . S
C639 C636 1.386 . S
C640 C635 1.490 . S
C640 C642 1.395 . S
C640 C643 1.403 . S
H641 C647 0.930 1_455 S
C642 H628 0.930 . S
C642 C640 1.395 . S
C642 C645 1.403 . S
C643 C640 1.403 . S
C643 C644 1.524 . S
C643 C647 1.400 . S
C644 H629 0.960 1_655 S
C644 H630 0.960 1_655 S
C644 H631 0.960 . S
C644 C643 1.524 . S
C645 C642 1.403 . S
C645 C646 1.392 . S
C645 C649 1.495 . S
C646 C645 1.392 . S
C646 C647 1.385 . S
C646 C648 1.478 . S
C647 H641 0.930 1_655 S
C647 C643 1.400 . S
C647 C646 1.385 . S
C648 C646 1.478 . S
C648 C650 1.381 1_655 S
C648 C654 1.383 . S
C649 C645 1.495 . S
C649 H655 0.959 . S
C649 H656 0.961 . S
C649 H657 0.960 . S
C650 C648 1.381 1_455 S
C650 C651 1.394 . S
C650 H658 0.930 . S
C651 C650 1.394 . S
C651 C652 1.383 . S
C651 H659 0.929 . S
C652 C651 1.383 . S
C652 C653 1.377 . S
C653 H637 0.930 . S
C653 C652 1.377 . S
C653 C654 1.379 1_455 S
C654 H638 0.931 . S
C654 C648 1.383 . S
C654 C653 1.379 1_655 S
H655 C649 0.959 . S
H656 C649 0.961 . S
H657 C649 0.960 . S
H658 C650 0.930 . S
H659 C651 0.929 . S
H660 C668 0.929 . S
H661 C670 0.930 . S
H662 C672 0.930 . S
H663 C675 0.929 . S
H664 C678 0.930 . S
H665 C680 0.960 . S
H666 C680 0.960 . S
H667 C680 0.960 . S
C668 H660 0.929 . S
C668 C669 1.377 . S
C668 C670 1.384 . S
C669 C668 1.377 . S
C669 C675 1.390 . S
C670 H661 0.930 . S
C670 C668 1.384 . S
C670 C671 1.372 . S
C671 C670 1.372 . S
C671 C672 1.400 . S
C671 C676 1.490 . S
C672 H662 0.930 . S
C672 C671 1.400 . S
C672 C675 1.386 . S
H673 C689 0.930 . S
H674 C690 0.931 . S
C675 H663 0.929 . S
C675 C669 1.390 . S
C675 C672 1.386 . S
C676 C671 1.490 . S
C676 C678 1.395 . S
C676 C679 1.403 . S
H677 C683 0.930 . S
C678 H664 0.930 . S
C678 C676 1.395 . S
C678 C681 1.403 . S
C679 C676 1.403 . S
C679 C680 1.524 . S
C679 C683 1.400 . S
C680 H665 0.960 . S
C680 H666 0.960 . S
C680 H667 0.960 . S
C680 C679 1.524 . S
C681 C678 1.403 . S
C681 C682 1.392 . S
C681 C685 1.495 1_655 S
C682 C681 1.392 . S
C682 C683 1.385 . S
C682 C684 1.478 1_655 S
C683 H677 0.930 . S
C683 C679 1.400 . S
C683 C682 1.385 . S
C684 C682 1.478 1_455 S
C684 C686 1.381 . S
C684 C690 1.383 1_455 S
C685 C681 1.495 1_455 S
C685 H691 0.959 . S
C685 H692 0.961 . S
C685 H693 0.960 . S
C686 C684 1.381 . S
C686 C687 1.394 . S
C686 H694 0.930 . S
C687 C686 1.394 . S
C687 C688 1.383 . S
C687 H695 0.929 . S
C688 C687 1.383 . S
C688 C689 1.377 1_455 S
C689 H673 0.930 . S
C689 C688 1.377 1_655 S
C689 C690 1.379 . S
C690 H674 0.931 . S
C690 C684 1.383 1_655 S
C690 C689 1.379 . S
H691 C685 0.959 . S
H692 C685 0.961 . S
H693 C685 0.960 . S
H694 C686 0.930 . S
H695 C687 0.929 . S
H696 C704 0.929 . S
H697 C706 0.930 . S
H698 C708 0.930 . S
H699 C711 0.929 . S
H700 C714 0.930 . S
H701 C716 0.960 . S
H702 C716 0.960 1_655 S
H703 C716 0.960 . S
C704 H696 0.929 . S
C704 C705 1.377 . S
C704 C706 1.384 . S
C705 C704 1.377 . S
C705 C711 1.390 1_655 S
C706 H697 0.930 . S
C706 C704 1.384 . S
C706 C707 1.372 1_655 S
C707 C706 1.372 1_455 S
C707 C708 1.400 . S
C707 C712 1.490 . S
C708 H698 0.930 . S
C708 C707 1.400 . S
C708 C711 1.386 . S
H709 C725 0.930 . S
H710 C726 0.931 . S
C711 H699 0.929 . S
C711 C705 1.390 1_455 S
C711 C708 1.386 . S
C712 C707 1.490 . S
C712 C714 1.395 . S
C712 C715 1.403 . S
H713 C719 0.930 . S
C714 H700 0.930 . S
C714 C712 1.395 . S
C714 C717 1.403 . S
C715 C712 1.403 . S
C715 C716 1.524 . S
C715 C719 1.400 . S
C716 H701 0.960 . S
C716 H702 0.960 1_455 S
C716 H703 0.960 . S
C716 C715 1.524 . S
C717 C714 1.403 . S
C717 C718 1.392 . S
C717 C721 1.495 . S
C718 C717 1.392 . S
C718 C719 1.385 . S
C718 C720 1.478 . S
C719 H713 0.930 . S
C719 C715 1.400 . S
C719 C718 1.385 . S
C720 C718 1.478 . S
C720 C722 1.381 . S
C720 C726 1.383 . S
C721 C717 1.495 . S
C721 H727 0.959 . S
C721 H728 0.961 . S
C721 H729 0.960 . S
C722 C720 1.381 . S
C722 C723 1.394 . S
C722 H730 0.930 . S
C723 C722 1.394 . S
C723 C724 1.383 . S
C723 H731 0.929 . S
C724 C723 1.383 . S
C724 C725 1.377 . S
C725 H709 0.930 . S
C725 C724 1.377 . S
C725 C726 1.379 . S
C726 H710 0.931 . S
C726 C720 1.383 . S
C726 C725 1.379 . S
H727 C721 0.959 . S
H728 C721 0.961 . S
H729 C721 0.960 . S
H730 C722 0.930 . S
H731 C723 0.929 . S
H732 C740 0.929 . S
H733 C742 0.930 . S
H734 C744 0.930 . S
H735 C747 0.929 . S
H736 C750 0.930 . S
H737 C752 0.960 . S
H738 C752 0.960 . S
H739 C752 0.960 1_455 S
C740 H732 0.929 . S
C740 C741 1.377 . S
C740 C742 1.384 . S
C741 C740 1.377 . S
C741 C747 1.390 . S
C742 H733 0.930 . S
C742 C740 1.384 . S
C742 C743 1.372 . S
C743 C742 1.372 . S
C743 C744 1.400 . S
C743 C748 1.490 . S
C744 H734 0.930 . S
C744 C743 1.400 . S
C744 C747 1.386 . S
H745 C761 0.930 . S
H746 C762 0.931 . S
C747 H735 0.929 . S
C747 C741 1.390 . S
C747 C744 1.386 . S
C748 C743 1.490 . S
C748 C750 1.395 . S
C748 C751 1.403 . S
H749 C755 0.930 1_655 S
C750 H736 0.930 . S
C750 C748 1.395 . S
C750 C753 1.403 . S
C751 C748 1.403 . S
C751 C752 1.524 1_455 S
C751 C755 1.400 . S
C752 H737 0.960 . S
C752 H738 0.960 . S
C752 H739 0.960 1_655 S
C752 C751 1.524 1_655 S
C753 C750 1.403 . S
C753 C754 1.392 . S
C753 C757 1.495 . S
C754 C753 1.392 . S
C754 C755 1.385 . S
C754 C756 1.478 . S
C755 H749 0.930 1_455 S
C755 C751 1.400 . S
C755 C754 1.385 . S
C756 C754 1.478 . S
C756 C758 1.381 1_455 S
C756 C762 1.383 . S
C757 C753 1.495 . S
C757 H763 0.959 . S
C757 H764 0.961 . S
C757 H765 0.960 . S
C758 C756 1.381 1_655 S
C758 C759 1.394 . S
C758 H766 0.930 . S
C759 C758 1.394 . S
C759 C760 1.383 . S
C759 H767 0.929 . S
C760 C759 1.383 . S
C760 C761 1.377 . S
C761 H745 0.930 . S
C761 C760 1.377 . S
C761 C762 1.379 1_655 S
C762 H746 0.931 . S
C762 C756 1.383 . S
C762 C761 1.379 1_455 S
H763 C757 0.959 . S
H764 C757 0.961 . S
H765 C757 0.960 . S
H766 C758 0.930 . S
H767 C759 0.929 . S
C345 C158 1.507 . S
C364 C63 1.503 . S
C381 C231 1.498 . S
C400 C326 1.499 . S
C417 C74 1.513 . S
C436 C147 1.487 . S
C453 C315 1.499 . S
C472 C242 1.505 . S
C489 C321 1.175 . S
C508 C56 1.250 . S
C525 C153 1.174 . S
C544 C224 1.255 . S
C561 C151 1.266 . S
C580 C226 1.141 . S
C597 C319 1.264 . S
C616 C58 1.194 . S
C633 C140 1.268 . S
C652 C237 1.217 . S
C669 C308 1.264 . S
C688 C69 1.205 . S
C705 C310 1.177 . S
C724 C67 1.267 . S
C741 C235 1.266 . S
C760 C142 1.174 . S
