# Generated by pormake.
# Topology vcl, (7)-cn, num edge types: 1
# Building blocks:
#     Node 0, Type 0, BuildingBlock: NUHQUE_clean_sbu_2, # of connection points: 7
#     Node 1, Type 0, BuildingBlock: NUHQUE_clean_sbu_2, # of connection points: 7
#     Node 2, Type 0, BuildingBlock: NUHQUE_clean_sbu_2, # of connection points: 7
#     Node 3, Type 0, BuildingBlock: NUHQUE_clean_sbu_2, # of connection points: 7
#     Node 4, Type 0, BuildingBlock: NUHQUE_clean_sbu_2, # of connection points: 7
#     Node 5, Type 0, BuildingBlock: NUHQUE_clean_sbu_2, # of connection points: 7
#     Node 6, Type 0, BuildingBlock: NUHQUE_clean_sbu_2, # of connection points: 7
#     Node 7, Type 0, BuildingBlock: NUHQUE_clean_sbu_2, # of connection points: 7
#     Node 8, Type 0, BuildingBlock: NUHQUE_clean_sbu_2, # of connection points: 7
#     Node 9, Type 0, BuildingBlock: NUHQUE_clean_sbu_2, # of connection points: 7
#     Node 10, Type 0, BuildingBlock: NUHQUE_clean_sbu_2, # of connection points: 7
#     Node 11, Type 0, BuildingBlock: NUHQUE_clean_sbu_2, # of connection points: 7
#     Node 12, Type 0, BuildingBlock: NUHQUE_clean_sbu_2, # of connection points: 7
#     Node 13, Type 0, BuildingBlock: NUHQUE_clean_sbu_2, # of connection points: 7
#     Node 14, Type 0, BuildingBlock: NUHQUE_clean_sbu_2, # of connection points: 7
#     Node 15, Type 0, BuildingBlock: NUHQUE_clean_sbu_2, # of connection points: 7
#     Edge 16, Type (0, 0), BuildingBlock: OJICUG_clean_linker_0, # of connection points: 2
#     Edge 17, Type (0, 0), BuildingBlock: OJICUG_clean_linker_0, # of connection points: 2
#     Edge 18, Type (0, 0), BuildingBlock: OJICUG_clean_linker_0, # of connection points: 2
#     Edge 19, Type (0, 0), BuildingBlock: OJICUG_clean_linker_0, # of connection points: 2
#     Edge 20, Type (0, 0), BuildingBlock: OJICUG_clean_linker_0, # of connection points: 2
#     Edge 21, Type (0, 0), BuildingBlock: OJICUG_clean_linker_0, # of connection points: 2
#     Edge 22, Type (0, 0), BuildingBlock: OJICUG_clean_linker_0, # of connection points: 2
#     Edge 23, Type (0, 0), BuildingBlock: OJICUG_clean_linker_0, # of connection points: 2
#     Edge 24, Type (0, 0), BuildingBlock: OJICUG_clean_linker_0, # of connection points: 2
#     Edge 25, Type (0, 0), BuildingBlock: OJICUG_clean_linker_0, # of connection points: 2
#     Edge 26, Type (0, 0), BuildingBlock: OJICUG_clean_linker_0, # of connection points: 2
#     Edge 27, Type (0, 0), BuildingBlock: OJICUG_clean_linker_0, # of connection points: 2
#     Edge 28, Type (0, 0), BuildingBlock: OJICUG_clean_linker_0, # of connection points: 2
#     Edge 29, Type (0, 0), BuildingBlock: OJICUG_clean_linker_0, # of connection points: 2
#     Edge 30, Type (0, 0), BuildingBlock: OJICUG_clean_linker_0, # of connection points: 2
#     Edge 31, Type (0, 0), BuildingBlock: OJICUG_clean_linker_0, # of connection points: 2
#     Edge 32, Type (0, 0), BuildingBlock: OJICUG_clean_linker_0, # of connection points: 2
#     Edge 33, Type (0, 0), BuildingBlock: OJICUG_clean_linker_0, # of connection points: 2
#     Edge 34, Type (0, 0), BuildingBlock: OJICUG_clean_linker_0, # of connection points: 2
#     Edge 35, Type (0, 0), BuildingBlock: OJICUG_clean_linker_0, # of connection points: 2
#     Edge 36, Type (0, 0), BuildingBlock: OJICUG_clean_linker_0, # of connection points: 2
#     Edge 37, Type (0, 0), BuildingBlock: OJICUG_clean_linker_0, # of connection points: 2
#     Edge 38, Type (0, 0), BuildingBlock: OJICUG_clean_linker_0, # of connection points: 2
#     Edge 39, Type (0, 0), BuildingBlock: OJICUG_clean_linker_0, # of connection points: 2
#     Edge 40, Type (0, 0), BuildingBlock: OJICUG_clean_linker_0, # of connection points: 2
#     Edge 41, Type (0, 0), BuildingBlock: OJICUG_clean_linker_0, # of connection points: 2
#     Edge 42, Type (0, 0), BuildingBlock: OJICUG_clean_linker_0, # of connection points: 2
#     Edge 43, Type (0, 0), BuildingBlock: OJICUG_clean_linker_0, # of connection points: 2
#     Edge 44, Type (0, 0), BuildingBlock: OJICUG_clean_linker_0, # of connection points: 2
#     Edge 45, Type (0, 0), BuildingBlock: OJICUG_clean_linker_0, # of connection points: 2
#     Edge 46, Type (0, 0), BuildingBlock: OJICUG_clean_linker_0, # of connection points: 2
#     Edge 47, Type (0, 0), BuildingBlock: OJICUG_clean_linker_0, # of connection points: 2
#     Edge 48, Type (0, 0), BuildingBlock: OJICUG_clean_linker_0, # of connection points: 2
#     Edge 49, Type (0, 0), BuildingBlock: OJICUG_clean_linker_0, # of connection points: 2
#     Edge 50, Type (0, 0), BuildingBlock: OJICUG_clean_linker_0, # of connection points: 2
#     Edge 51, Type (0, 0), BuildingBlock: OJICUG_clean_linker_0, # of connection points: 2
#     Edge 52, Type (0, 0), BuildingBlock: OJICUG_clean_linker_0, # of connection points: 2
#     Edge 53, Type (0, 0), BuildingBlock: OJICUG_clean_linker_0, # of connection points: 2
#     Edge 54, Type (0, 0), BuildingBlock: OJICUG_clean_linker_0, # of connection points: 2
#     Edge 55, Type (0, 0), BuildingBlock: OJICUG_clean_linker_0, # of connection points: 2
#     Edge 56, Type (0, 0), BuildingBlock: OJICUG_clean_linker_0, # of connection points: 2
#     Edge 57, Type (0, 0), BuildingBlock: OJICUG_clean_linker_0, # of connection points: 2
#     Edge 58, Type (0, 0), BuildingBlock: OJICUG_clean_linker_0, # of connection points: 2
#     Edge 59, Type (0, 0), BuildingBlock: OJICUG_clean_linker_0, # of connection points: 2
#     Edge 60, Type (0, 0), BuildingBlock: OJICUG_clean_linker_0, # of connection points: 2
#     Edge 61, Type (0, 0), BuildingBlock: OJICUG_clean_linker_0, # of connection points: 2
#     Edge 62, Type (0, 0), BuildingBlock: OJICUG_clean_linker_0, # of connection points: 2
#     Edge 63, Type (0, 0), BuildingBlock: OJICUG_clean_linker_0, # of connection points: 2
#     Edge 64, Type (0, 0), BuildingBlock: OJICUG_clean_linker_0, # of connection points: 2
#     Edge 65, Type (0, 0), BuildingBlock: OJICUG_clean_linker_0, # of connection points: 2
#     Edge 66, Type (0, 0), BuildingBlock: OJICUG_clean_linker_0, # of connection points: 2
#     Edge 67, Type (0, 0), BuildingBlock: OJICUG_clean_linker_0, # of connection points: 2
#     Edge 68, Type (0, 0), BuildingBlock: OJICUG_clean_linker_0, # of connection points: 2
#     Edge 69, Type (0, 0), BuildingBlock: OJICUG_clean_linker_0, # of connection points: 2
#     Edge 70, Type (0, 0), BuildingBlock: OJICUG_clean_linker_0, # of connection points: 2
#     Edge 71, Type (0, 0), BuildingBlock: OJICUG_clean_linker_0, # of connection points: 2
# Relax obj value: 0.251
# Max RMSD: 0.260
# Mean RMSD: 0.260
data_MOF--net-vcl--node1-NUHQUE_clean_sbu_2--edge1-OJICUG_clean_linker_0
_symmetry_space_group_name_H-M    P1
_symmetry_Int_Tables_number       1
_symmetry_cell_setting            triclinic
loop_
_symmetry_equiv_pos_as_xyz
'x, y, z'
_cell_length_a     50.106369
_cell_length_b     35.892018
_cell_length_c     24.434484
_cell_angle_alpha  89.93058
_cell_angle_beta   89.754547
_cell_angle_gamma 90.035493
loop_
_atom_site_label
_atom_site_type_symbol
_atom_site_fract_x
_atom_site_fract_y
_atom_site_fract_z
_atom_type_partial_charge
O0 O 0.34307 1.02591 0.08945 0.0
Tb1 Tb 0.32363 0.08047 0.08293 0.0
Eu2 Eu 0.27007 0.14546 0.05589 0.0
C3 C 0.33066 0.9951 0.10485 0.0
O4 O 0.30448 0.99434 0.10555 0.0
C5 C 0.27308 0.08759 0.15181 0.0
O6 O 0.24695 0.19975 0.05493 0.0
C7 C 0.24913 0.09798 0.9878 0.0
C8 C 0.2598 0.2318 0.0519 0.0
O9 O 0.28598 0.23146 0.04944 0.0
C10 C 0.32613 0.14249 0.99666 0.0
C11 C 0.22639 0.09777 0.95 0.0
C12 C 0.22766 0.07688 0.90136 0.0
C13 C 0.20671 0.07877 0.8635 0.0
C14 C 0.18428 0.10063 0.87534 0.0
C15 C 0.18275 0.12144 0.92374 0.0
C16 C 0.204 0.12018 0.96078 0.0
O17 O 0.2845 0.06591 0.11518 0.0
O18 O 0.27105 0.12358 0.14249 0.0
O19 O 0.3582 0.09145 0.13436 0.0
O20 O 0.32676 0.13073 0.13327 0.0
C21 C 0.35002 0.1231 0.15369 0.0
O22 O 0.31211 0.16133 1.03289 0.0
O23 O 0.32951 0.10612 1.00236 0.0
O24 O 0.24321 0.09911 0.0401 0.0
O25 O 0.26883 0.1203 0.97465 0.0
H26 H 0.24523 0.06039 0.89211 0.0
H27 H 0.16839 0.10262 0.84542 0.0
H28 H 0.20326 0.13701 0.99758 0.0
O29 O 0.62726 0.07959 0.09717 0.0
Tb30 Tb 0.64148 1.02238 0.08625 0.0
Eu31 Eu 0.69356 0.95597 0.05783 0.0
C32 C 0.63212 0.09563 0.14472 0.0
O33 O 0.64546 0.0767 0.18153 0.0
C34 C 0.6918 1.01228 0.15484 0.0
O35 O 0.7163 0.90152 0.0563 0.0
C36 C 0.7154 1.00337 0.99021 0.0
C37 C 0.70315 0.86971 0.0548 0.0
O38 O 0.67694 0.87049 0.0543 0.0
C39 C 0.63767 0.96169 0.99944 0.0
C40 C 0.73909 1.00336 0.95458 0.0
C41 C 0.73912 1.02372 0.90531 0.0
C42 C 0.76088 1.02103 0.86907 0.0
C43 C 0.7829 0.99911 0.88359 0.0
C44 C 0.78301 0.9786 0.93243 0.0
C45 C 0.76097 0.98062 0.96766 0.0
O46 O 0.68097 1.03451 0.11836 0.0
O47 O 0.69301 0.97631 0.14522 0.0
O48 O 0.60443 1.01153 0.13045 0.0
O49 O 0.63599 0.97244 0.13649 0.0
C50 C 0.61156 0.97974 0.15116 0.0
O51 O 0.65142 0.9417 1.03452 0.0
O52 O 0.63589 0.99827 1.00496 0.0
O53 O 0.72 1.00309 0.04298 0.0
O54 O 0.69635 0.98034 0.97613 0.0
H55 H 0.72183 1.04015 0.89413 0.0
H56 H 0.7995 0.99648 0.85519 0.0
H57 H 0.76058 0.96384 1.0046 0.0
O58 O 0.86933 0.27589 0.34105 0.0
Tb59 Tb 0.88943 0.32995 0.33401 0.0
Eu60 Eu 0.94364 0.39134 0.30977 0.0
C61 C 0.88148 0.24489 0.35617 0.0
O62 O 0.90765 0.24364 0.35598 0.0
C63 C 0.93786 0.33674 0.40782 0.0
O64 O 0.96736 0.44499 0.30541 0.0
C65 C 0.96638 0.34143 0.24802 0.0
C66 C 0.95481 0.47722 0.30816 0.0
O67 O 0.92876 0.47722 0.31444 0.0
C68 C 0.88857 0.39039 0.24492 0.0
C69 C -0.01095 0.34184 0.20954 0.0
C70 C -0.01207 0.32136 0.16048 0.0
C71 C 0.00877 0.32421 0.12208 0.0
C72 C 0.03102 0.34636 0.13397 0.0
C73 C 0.0323 0.36696 0.18249 0.0
C74 C 0.01117 0.36486 0.21998 0.0
O75 O 0.92723 0.31465 0.37097 0.0
O76 O 0.93993 0.37254 0.3975 0.0
O77 O 0.85425 0.3421 0.38362 0.0
O78 O 0.88538 0.38194 0.38007 0.0
C79 C 0.86196 0.37463 0.4004 0.0
O80 O 0.90349 0.40982 0.27874 0.0
O81 O 0.8849 0.35418 0.25228 0.0
O82 O 0.97233 0.34648 0.29968 0.0
O83 O 0.94529 0.3603 0.23292 0.0
H84 H 0.97048 0.30466 0.15125 0.0
H85 H 0.04683 0.3491 0.10373 0.0
H86 H 0.01175 0.38173 0.25675 0.0
O87 O 0.08822 0.82979 0.34228 0.0
Tb88 Tb 0.07507 0.77226 0.32999 0.0
Eu89 Eu 0.02185 0.70452 0.29712 0.0
C90 C 0.08334 0.84433 0.39092 0.0
O91 O 0.07105 0.82351 0.42734 0.0
C92 C 0.02205 0.76373 0.39154 0.0
O93 O -0.0011 0.65018 0.2985 0.0
C94 C 0.00255 0.74923 0.22303 0.0
C95 C 0.01173 0.61815 0.2961 0.0
O96 O 0.03791 0.61849 0.29281 0.0
C97 C 0.07873 0.71052 0.24472 0.0
C98 C 0.97908 0.74986 0.18722 0.0
C99 C 0.97974 0.77013 0.13789 0.0
C100 C 0.95813 0.76825 0.1016 0.0
C101 C 0.93566 0.74701 0.11577 0.0
C102 C 0.93471 0.7269 0.16499 0.0
C103 C 0.95661 0.7282 0.20043 0.0
O104 O 0.03432 0.78475 0.35515 0.0
O105 O 0.01951 0.72775 0.38286 0.0
O106 O 0.11093 0.76128 0.37734 0.0
O107 O 0.07797 0.72454 0.38557 0.0
C108 C 0.10228 0.73127 0.40131 0.0
O109 O 0.06521 0.69207 0.28222 0.0
O110 O 0.0821 0.7469 0.24977 0.0
O111 O -0.00216 0.75287 0.27558 0.0
O112 O 0.02011 0.72319 0.21227 0.0
H113 H -0.00266 0.7861 0.12689 0.0
H114 H 0.91921 0.74503 0.08718 0.0
H115 H 0.95635 0.71191 0.23785 0.0
O116 O 0.34307 0.52428 0.58948 0.0
Tb117 Tb 0.32375 0.57898 0.58275 0.0
Eu118 Eu 0.27034 0.64401 0.55437 0.0
C119 C 0.33093 0.49409 0.60818 0.0
O120 O 0.30484 0.49393 0.61274 0.0
C121 C 0.27305 0.58719 0.65197 0.0
O122 O 0.247 0.69797 0.554 0.0
C123 C 0.24894 0.5971 0.48605 0.0
C124 C 0.25984 0.72999 0.5512 0.0
O125 O 0.28604 0.72967 0.54924 0.0
C126 C 0.3262 0.64036 0.49548 0.0
C127 C 0.22479 0.59699 0.4521 0.0
C128 C 0.22421 0.57663 0.40291 0.0
C129 C 0.202 0.57923 0.36817 0.0
C130 C 0.18011 0.60099 0.38421 0.0
C131 C 0.18056 0.62162 0.43284 0.0
C132 C 0.20305 0.61972 0.46655 0.0
O133 O 0.28475 0.56491 0.61645 0.0
O134 O 0.27098 0.62302 0.64146 0.0
O135 O 0.35879 0.58972 0.63289 0.0
O136 O 0.32777 0.62964 0.63207 0.0
C137 C 0.35114 0.62175 0.65176 0.0
O138 O 0.31247 0.65935 0.53192 0.0
O139 O 0.32948 0.604 0.50155 0.0
O140 O 0.24502 0.59586 0.5391 0.0
O141 O 0.26728 0.62131 0.47183 0.0
H142 H 0.24141 0.56033 0.39056 0.0
H143 H 0.16316 0.60353 0.35695 0.0
H144 H 0.20389 0.63659 0.50329 0.0
O145 O 0.61938 0.57457 0.59324 0.0
Tb146 Tb 0.6391 0.52027 0.58572 0.0
Eu147 Eu 0.69321 0.45827 0.56314 0.0
C148 C 0.63191 0.60561 0.60685 0.0
O149 O 0.65807 0.60667 0.60474 0.0
C150 C 0.68728 0.51369 0.66031 0.0
O151 O 0.71638 0.40405 0.55996 0.0
C152 C 0.71625 0.50768 0.50057 0.0
C153 C 0.70353 0.372 0.56303 0.0
O154 O 0.67746 0.37243 0.56875 0.0
C155 C 0.6383 0.45943 0.49752 0.0
C156 C 0.73871 0.50727 0.46152 0.0
C157 C 0.7373 0.52764 0.41227 0.0
C158 C 0.75807 0.52507 0.37364 0.0
C159 C 0.7805 0.50329 0.38546 0.0
C160 C 0.78207 0.48284 0.43415 0.0
C161 C 0.76103 0.48466 0.47187 0.0
O162 O 0.67687 0.53552 0.62283 0.0
O163 O 0.68946 0.47782 0.65056 0.0
O164 O 0.60352 0.50761 0.63394 0.0
O165 O 0.63509 0.46845 0.63235 0.0
C166 C 0.61137 0.47529 0.6514 0.0
O167 O 0.65302 0.44007 0.53185 0.0
O168 O 0.6348 0.49573 0.50422 0.0
O169 O 0.72243 0.50243 0.55211 0.0
O170 O 0.69494 0.48909 0.48595 0.0
H171 H 0.71974 0.54412 0.40316 0.0
H172 H 0.79627 0.50078 0.3551 0.0
H173 H 0.76188 0.46794 0.50882 0.0
O174 O 0.87434 0.77028 0.84123 0.0
Tb175 Tb 0.88848 0.82755 0.82987 0.0
Eu176 Eu 0.94118 0.89511 0.79696 0.0
C177 C 0.87973 0.75419 0.88856 0.0
O178 O 0.89343 0.77318 0.9247 0.0
C179 C 0.94127 0.83588 0.89155 0.0
O180 O 0.96406 0.94949 0.79717 0.0
C181 C 0.9607 0.85031 0.72309 0.0
C182 C 0.95108 0.98143 0.79688 0.0
O183 O 0.92486 0.9809 0.7967 0.0
C184 C 0.88434 0.88978 0.74512 0.0
C185 C -0.0158 0.8503 0.68698 0.0
C186 C -0.01601 0.82978 0.63797 0.0
C187 C 0.00563 0.83225 0.60141 0.0
C188 C 0.02771 0.85432 0.61511 0.0
C189 C 0.02817 0.8747 0.66404 0.0
C190 C 0.00623 0.87283 0.69965 0.0
O191 O 0.92899 0.81463 0.85571 0.0
O192 O 0.9434 0.87192 0.88275 0.0
O193 O 0.85287 0.83857 0.87862 0.0
O194 O 0.8857 0.87562 0.88462 0.0
C195 C 0.86153 0.86886 0.90152 0.0
O196 O 0.89798 0.90818 0.78216 0.0
O197 O 0.88131 0.85329 0.74989 0.0
O198 O 0.96548 0.84697 0.77558 0.0
O199 O 0.9428 0.87587 0.71241 0.0
H200 H 0.96669 0.81318 0.62737 0.0
H201 H 0.04422 0.8567 0.58644 0.0
H202 H 0.00612 0.88932 0.73682 0.0
O203 O 0.09108 0.3266 0.84084 0.0
Tb204 Tb 0.07156 0.27211 0.83447 0.0
Eu205 Eu 0.01819 0.20883 0.80808 0.0
C206 C 0.07898 0.3569 0.85898 0.0
O207 O 0.05288 0.35713 0.8635 0.0
C208 C 0.02257 0.26299 0.9072 0.0
O209 O -0.00524 0.15489 0.80467 0.0
C210 C -0.00456 0.25834 0.74582 0.0
C211 C 0.00757 0.12282 0.8033 0.0
O212 O 0.03377 0.12306 0.80456 0.0
C213 C 0.07367 0.21271 0.7446 0.0
C214 C 0.97205 0.25815 0.70969 0.0
C215 C 0.97247 0.27819 0.66012 0.0
C216 C 0.95102 0.27523 0.62354 0.0
C217 C 0.92884 0.2535 0.63797 0.0
C218 C 0.92829 0.23324 0.68696 0.0
C219 C 0.95003 0.23543 0.72256 0.0
O220 O 0.0333 0.28584 0.87125 0.0
O221 O 0.02112 0.22723 0.89614 0.0
O222 O 0.107 0.2607 0.88317 0.0
O223 O 0.0768 0.21959 0.87888 0.0
C224 C 0.10014 0.22747 0.89875 0.0
O225 O 0.05895 0.1923 0.77779 0.0
O226 O 0.07649 0.24896 0.75239 0.0
O227 O -0.00956 0.2549 0.7983 0.0
O228 O 0.01563 0.23791 0.72971 0.0
H229 H -0.01012 0.29451 0.64897 0.0
H230 H 0.9125 0.25069 0.60926 0.0
H231 H 0.95004 0.21874 0.75958 0.0
O232 O 0.84338 1.0255 0.59036 0.0
Tb233 Tb 0.82376 0.07989 0.5835 0.0
Eu234 Eu 0.76969 0.1437 0.55913 0.0
C235 C 0.83084 0.99435 0.6036 0.0
O236 O 0.80469 0.9932 0.60139 0.0
C237 C 0.77398 0.08582 0.65466 0.0
O238 O 0.74661 0.19807 0.5585 0.0
C239 C 0.74807 0.09609 0.49209 0.0
C240 C 0.75952 0.23012 0.55651 0.0
O241 O 0.78572 0.22973 0.55495 0.0
C242 C 0.82537 0.14189 0.49717 0.0
C243 C 0.72558 0.09644 0.45357 0.0
C244 C 0.72697 0.07584 0.40464 0.0
C245 C 0.70622 0.07821 0.36632 0.0
C246 C 0.68384 0.10022 0.37806 0.0
C247 C 0.68218 0.1207 0.42676 0.0
C248 C 0.70324 0.119 0.46417 0.0
O249 O 0.78511 0.06452 0.61722 0.0
O250 O 0.77162 0.12181 0.64571 0.0
O251 O 0.85873 0.09178 0.63337 0.0
O252 O 0.82679 0.13032 0.63344 0.0
C253 C 0.85035 0.1233 0.65284 0.0
O254 O 0.81118 0.16061 0.53331 0.0
O255 O 0.82892 0.10554 0.50277 0.0
O256 O 0.74183 0.09839 0.54415 0.0
O257 O 0.76847 0.1171 0.47881 0.0
H258 H 0.74448 0.05918 0.39557 0.0
H259 H 0.66806 0.10253 0.34796 0.0
H260 H 0.70237 0.13558 0.50121 0.0
O261 O 0.12655 0.08067 0.59272 0.0
Tb262 Tb 0.14123 1.02353 0.58356 0.0
Eu263 Eu 0.19318 0.95736 0.55506 0.0
C264 C 0.13234 0.09853 0.63841 0.0
O265 O 0.14721 0.08163 0.67482 0.0
C266 C 0.19145 1.01313 0.65244 0.0
O267 O 0.21629 0.90326 0.55241 0.0
C268 C 0.2146 1.00555 0.48815 0.0
C269 C 0.20335 0.87127 0.55265 0.0
O270 O 0.17714 0.87169 0.55466 0.0
C271 C 0.13722 0.96261 0.49711 0.0
C272 C 0.23811 1.00594 0.45203 0.0
C273 C 0.23767 1.02623 0.40273 0.0
C274 C 0.25923 1.0238 0.366 0.0
C275 C 0.28148 1.00219 0.37989 0.0
C276 C 0.28209 0.98181 0.42881 0.0
C277 C 0.26026 0.9836 0.46464 0.0
O278 O 0.18065 1.03557 0.61619 0.0
O279 O 0.19249 0.97719 0.64261 0.0
O280 O 0.1043 1.01316 0.62843 0.0
O281 O 0.13549 0.9735 0.63354 0.0
C282 C 0.1112 0.98117 0.64875 0.0
O283 O 0.15111 0.94264 0.53197 0.0
O284 O 0.13561 0.99922 0.50238 0.0
O285 O 0.21947 1.0047 0.5408 0.0
O286 O 0.19548 0.98267 0.47392 0.0
H287 H 0.22019 1.04239 0.39192 0.0
H288 H 0.29786 0.99972 0.35093 0.0
H289 H 0.26025 0.96691 0.50168 0.0
O290 O 0.36898 0.27611 0.83916 0.0
Tb291 Tb 0.38915 0.33014 0.83282 0.0
Eu292 Eu 0.44338 0.39028 0.81195 0.0
C293 C 0.38119 0.24494 0.85327 0.0
O294 O 0.40736 0.24355 0.85188 0.0
C295 C 0.43666 0.33578 0.9094 0.0
O296 O 0.46703 0.44398 0.80783 0.0
C297 C 0.46656 0.34011 0.75128 0.0
C298 C 0.45456 0.47606 0.81387 0.0
O299 O 0.42873 0.47579 0.82334 0.0
C300 C 0.38912 0.39091 0.74402 0.0
C301 C 0.48869 0.34074 0.71145 0.0
C302 C 0.48705 0.32031 0.66238 0.0
C303 C 0.50749 0.32322 0.62304 0.0
C304 C 0.52984 0.34544 0.63396 0.0
C305 C 0.53162 0.36591 0.68252 0.0
C306 C 0.51092 0.36372 0.72092 0.0
O307 O 0.42628 0.314 0.87186 0.0
O308 O 0.43885 0.37161 0.89954 0.0
O309 O 0.35352 0.34245 0.88096 0.0
O310 O 0.38485 0.38205 0.87894 0.0
C311 C 0.3612 0.37488 0.89821 0.0
O312 O 0.40411 0.41007 0.77806 0.0
O313 O 0.38526 0.35469 0.75108 0.0
O314 O 0.47307 0.3467 0.80229 0.0
O315 O 0.44473 0.35746 0.73661 0.0
H316 H 0.46956 0.30351 0.65396 0.0
H317 H 0.54536 0.3482 0.6031 0.0
H318 H 0.51196 0.38046 0.75777 0.0
O319 O 0.58768 0.82842 0.84658 0.0
Tb320 Tb 0.57379 0.77108 0.83515 0.0
Eu321 Eu 0.5213 0.70354 0.80238 0.0
C322 C 0.58227 0.84419 0.89416 0.0
O323 O 0.56877 0.82481 0.93049 0.0
C324 C 0.52088 0.76248 0.89745 0.0
O325 O 0.49814 0.6494 0.80518 0.0
C326 C 0.50179 0.74798 0.7281 0.0
C327 C 0.51089 0.61741 0.80068 0.0
O328 O 0.53695 0.61782 0.79462 0.0
C329 C 0.57806 0.70941 0.7496 0.0
C330 C 0.47725 0.74989 0.69563 0.0
C331 C 0.47681 0.77024 0.64635 0.0
C332 C 0.45412 0.76919 0.61283 0.0
C333 C 0.43171 0.74886 0.63 0.0
C334 C 0.43196 0.72835 0.67885 0.0
C335 C 0.45487 0.72889 0.71153 0.0
O336 O 0.53325 0.78386 0.8616 0.0
O337 O 0.5185 0.72652 0.88825 0.0
O338 O 0.60929 0.75983 0.88355 0.0
O339 O 0.57637 0.72287 0.88979 0.0
C340 C 0.60051 0.72954 0.90654 0.0
O341 O 0.5645 0.6907 0.78672 0.0
O342 O 0.58107 0.74586 0.7548 0.0
O343 O 0.49901 0.75351 0.78083 0.0
O344 O 0.51762 0.71994 0.71682 0.0
H345 H 0.49443 0.78532 0.63299 0.0
H346 H 0.41446 0.74734 0.6034 0.0
H347 H 0.45556 0.71218 0.74851 0.0
O348 O 0.84108 0.52307 0.0916 0.0
Tb349 Tb 0.82163 0.57764 0.08546 0.0
Eu350 Eu 0.76851 0.64145 0.06014 0.0
C351 C 0.82911 0.4929 0.1108 0.0
O352 O 0.80306 0.49279 0.11655 0.0
C353 C 0.77278 0.58671 0.15903 0.0
O354 O 0.74553 0.69571 0.05781 0.0
C355 C 0.74529 0.5928 0.99718 0.0
C356 C 0.7586 0.72761 0.05775 0.0
O357 O 0.78479 0.72697 0.05964 0.0
C358 C 0.82377 0.6376 0.99621 0.0
C359 C 0.7218 0.59348 0.96128 0.0
C360 C 0.72182 0.57332 0.91186 0.0
C361 C 0.70024 0.57655 0.87558 0.0
C362 C 0.67833 0.59871 0.89026 0.0
C363 C 0.67819 0.61909 0.9391 0.0
C364 C 0.70007 0.61663 0.9743 0.0
O365 O 0.78352 0.56388 0.12314 0.0
O366 O 0.77142 0.6225 0.14804 0.0
O367 O 0.85749 0.58881 0.13292 0.0
O368 O 0.82733 0.62996 0.13003 0.0
C369 C 0.85086 0.62201 0.14887 0.0
O370 O 0.80936 0.65785 1.03001 0.0
O371 O 0.82631 0.60122 1.00338 0.0
O372 O 0.74045 0.59576 0.04978 0.0
O373 O 0.76554 0.61325 0.98123 0.0
H374 H 0.73901 0.55663 0.90061 0.0
H375 H 0.66185 0.60168 0.86192 0.0
H376 H 0.70041 0.63337 1.01122 0.0
O377 O 0.11873 0.57546 0.088 0.0
Tb378 Tb 0.13846 0.52122 0.08088 0.0
Eu379 Eu 0.1927 0.45942 0.05696 0.0
C380 C 0.13132 0.60666 0.10041 0.0
O381 O 0.15746 0.60785 0.09702 0.0
C382 C 0.18733 0.51547 0.1538 0.0
O383 O 0.21618 0.40548 0.0543 0.0
C384 C 0.21485 0.50833 0.99222 0.0
C385 C 0.20345 0.37336 0.05773 0.0
O386 O 0.17738 0.37365 0.06352 0.0
C387 C 0.13748 0.4602 0.99338 0.0
C388 C 0.23756 0.50782 0.95383 0.0
C389 C 0.23643 0.52779 0.90421 0.0
C390 C 0.25739 0.52487 0.86606 0.0
C391 C 0.27974 0.50316 0.87879 0.0
C392 C 0.28104 0.48315 0.92791 0.0
C393 C 0.25981 0.4853 0.96511 0.0
O394 O 0.17643 0.53701 0.11654 0.0
O395 O 0.18977 0.4796 0.14425 0.0
O396 O 0.10309 0.50874 0.12987 0.0
O397 O 0.13488 0.46991 0.12893 0.0
C398 C 0.11118 0.47675 0.14816 0.0
O399 O 0.15209 0.44116 1.02826 0.0
O400 O 0.13391 0.49649 0.99965 0.0
O401 O 0.22081 0.50481 0.04417 0.0
O402 O 0.19417 0.48825 0.97816 0.0
H403 H 0.21893 0.54422 0.89445 0.0
H404 H 0.2957 0.50043 0.8489 0.0
H405 H 0.26043 0.46889 1.00238 0.0
O406 O 0.36782 0.77432 0.33703 0.0
Tb407 Tb 0.38779 0.8285 0.32916 0.0
Eu408 Eu 0.4421 0.89158 0.3038 0.0
C409 C 0.38017 0.74309 0.35046 0.0
O410 O 0.4063 0.74158 0.34747 0.0
C411 C 0.43774 0.83386 0.39956 0.0
O412 O 0.46506 0.94601 0.30176 0.0
C413 C 0.46394 0.84446 0.23606 0.0
C414 C 0.45221 0.9779 0.30691 0.0
O415 O 0.42621 0.97722 0.31409 0.0
C416 C 0.38642 0.89053 0.24278 0.0
C417 C 0.48619 0.84621 0.1966 0.0
C418 C 0.48506 0.82609 0.14721 0.0
C419 C 0.50561 0.8298 0.10822 0.0
C420 C 0.5276 0.85259 0.1199 0.0
C421 C 0.52897 0.87256 0.16905 0.0
C422 C 0.50806 0.86965 0.20696 0.0
O423 O 0.42624 0.8126 0.36271 0.0
O424 O 0.44022 0.86981 0.39045 0.0
O425 O 0.35271 0.84074 0.37898 0.0
O426 O 0.38474 0.87919 0.37866 0.0
C427 C 0.36104 0.87237 0.39802 0.0
O428 O 0.40082 0.90913 0.27845 0.0
O429 O 0.38274 0.85417 0.24842 0.0
O430 O 0.47046 0.84702 0.28785 0.0
O431 O 0.44293 0.86441 0.22382 0.0
H432 H 0.46791 0.80871 0.1384 0.0
H433 H 0.54337 0.85571 0.08966 0.0
H434 H 0.50875 0.88587 0.24435 0.0
O435 O 0.59064 0.32607 0.34564 0.0
Tb436 Tb 0.57134 0.27138 0.33869 0.0
Eu437 Eu 0.51865 0.20607 0.30975 0.0
C438 C 0.57865 0.35595 0.36556 0.0
O439 O 0.55265 0.35566 0.37221 0.0
C440 C 0.52128 0.26157 0.40864 0.0
O441 O 0.49538 0.15185 0.30861 0.0
C442 C 0.49694 0.25427 0.24364 0.0
C443 C 0.50805 0.12 0.30135 0.0
O444 O 0.53407 0.12059 0.29455 0.0
C445 C 0.57474 0.21136 0.25013 0.0
C446 C 0.47298 0.25503 0.20916 0.0
C447 C 0.473 0.27523 0.15971 0.0
C448 C 0.45096 0.27313 0.12448 0.0
C449 C 0.42866 0.25205 0.1402 0.0
C450 C 0.42852 0.23159 0.18904 0.0
C451 C 0.4508 0.233 0.22332 0.0
O452 O 0.53248 0.2845 0.37335 0.0
O453 O 0.51986 0.22577 0.39754 0.0
O454 O 0.60662 0.26003 0.3879 0.0
O455 O 0.57619 0.21927 0.38431 0.0
C456 C 0.59958 0.22701 0.40405 0.0
O457 O 0.56042 0.191 0.28406 0.0
O458 O 0.57698 0.24778 0.25703 0.0
O459 O 0.49276 0.2539 0.29664 0.0
O460 O 0.51556 0.23084 0.22842 0.0
H461 H 0.49052 0.29099 0.14757 0.0
H462 H 0.41188 0.24984 0.11245 0.0
H463 H 0.45116 0.21618 0.26022 0.0
C464 C 0.38627 0.94435 0.17845 0.0
C465 C 0.37318 0.91261 0.19917 0.0
H466 H 0.38353 0.9945 0.13152 0.0
C467 C 0.34679 0.90569 0.18288 0.0
H468 H 0.40668 0.95037 0.19006 0.0
C469 C 0.33325 0.93151 0.14961 0.0
C470 C 0.346 0.96438 0.13135 0.0
H471 H 0.33615 0.88163 0.1985 0.0
H472 H 0.31246 0.92648 0.14016 0.0
C473 C 0.37298 0.96968 0.14466 0.0
C474 C 0.61827 0.18197 0.22844 0.0
C475 C 0.59229 0.19092 0.21205 0.0
H476 H 0.65136 0.1447 0.21936 0.0
C477 C 0.58103 0.17177 0.16757 0.0
H478 H 0.62703 0.19553 0.26367 0.0
C479 C 0.59501 0.14277 0.1417 0.0
C480 C 0.62014 0.13178 0.16111 0.0
H481 H 0.56068 0.17753 0.1553 0.0
H482 H 0.58522 0.12703 0.10974 0.0
C483 C 0.63202 0.15259 0.20337 0.0
C484 C 0.83914 0.22065 0.39825 0.0
C485 C 0.86594 0.21463 0.38359 0.0
H486 H 0.80554 0.20224 0.44536 0.0
C487 C 0.87839 0.18152 0.40143 0.0
H488 H 0.82882 0.24568 0.38546 0.0
C489 C 0.86477 0.15614 0.43553 0.0
C490 C 0.83862 0.16376 0.45311 0.0
H491 H 0.89903 0.17595 0.39094 0.0
H492 H 0.87521 0.13184 0.45069 0.0
C493 C 0.82578 0.19574 0.43285 0.0
C494 C 0.09499 0.92918 0.47904 0.0
C495 C 0.11973 0.94183 0.45959 0.0
H496 H 0.06391 0.88856 0.47185 0.0
C497 C 0.13061 0.92557 0.41213 0.0
H498 H 0.08661 0.94046 0.51649 0.0
C499 C 0.11761 0.89572 0.38627 0.0
C500 C 0.09389 0.8811 0.40845 0.0
H501 H 0.1501 0.93414 0.39744 0.0
H502 H 0.12723 0.88224 0.35181 0.0
C503 C 0.0822 0.89913 0.45377 0.0
C504 C 0.37407 0.46878 0.64455 0.0
C505 C 0.34679 0.46357 0.63391 0.0
H506 H 0.40863 0.44976 0.68748 0.0
C507 C 0.33432 0.43105 0.65426 0.0
H508 H 0.3844 0.49335 0.62978 0.0
C509 C 0.34846 0.40554 0.68696 0.0
C510 C 0.37521 0.41242 0.70065 0.0
H511 H 0.31331 0.4261 0.6469 0.0
H512 H 0.33804 0.38183 0.70427 0.0
C513 C 0.38798 0.44376 0.67782 0.0
C514 C 0.57724 0.65626 0.68433 0.0
C515 C 0.59069 0.68768 0.70474 0.0
H516 H 0.57928 0.60646 0.63659 0.0
C517 C 0.61692 0.69456 0.68691 0.0
H518 H 0.55691 0.6504 0.69697 0.0
C519 C 0.63 0.66892 0.65244 0.0
C520 C 0.61695 0.63626 0.63458 0.0
H521 H 0.62782 0.7184 0.70223 0.0
H522 H 0.6507 0.67387 0.6418 0.0
C523 C 0.59008 0.63107 0.64945 0.0
C524 C 0.82918 0.67738 0.91337 0.0
C525 C 0.84091 0.65828 0.95744 0.0
H526 H 0.83266 0.72226 0.85539 0.0
C527 C 0.86698 0.66755 0.97291 0.0
H528 H 0.80877 0.67139 0.90182 0.0
C529 C 0.88036 0.69716 0.94737 0.0
C530 C 0.86803 0.7179 0.90552 0.0
H531 H 0.87612 0.65405 1.00783 0.0
H532 H 0.89979 0.70525 0.96266 0.0
C533 C 0.84279 0.70661 0.88701 0.0
C534 C 0.08255 0.4201 0.90416 0.0
C535 C 0.09491 0.38743 0.88431 0.0
H536 H 0.08647 0.46951 0.95352 0.0
C537 C 0.12216 0.38206 0.89505 0.0
H538 H 0.06158 0.42514 0.89668 0.0
C539 C 0.13616 0.40711 0.92803 0.0
C540 C 0.12349 0.4386 0.95038 0.0
H541 H 0.13241 0.35737 0.88062 0.0
H542 H 0.15678 0.40103 0.93783 0.0
C543 C 0.09679 0.44564 0.93655 0.0
C544 C 0.87249 0.96893 0.64623 0.0
C545 C 0.84575 0.9636 0.63104 0.0
H546 H 0.90545 0.94957 0.69379 0.0
C547 C 0.83274 0.93068 0.64833 0.0
H548 H 0.88325 0.99375 0.63383 0.0
C549 C 0.84574 0.90487 0.68251 0.0
C550 C 0.87182 0.91185 0.70065 0.0
H551 H 0.81212 0.92563 0.63743 0.0
H552 H 0.83487 0.88078 0.69735 0.0
C553 C 0.88524 0.94359 0.68085 0.0
C554 C 0.09311 0.14208 0.63833 0.0
C555 C 0.11943 0.13419 0.65402 0.0
H556 H 0.05774 0.17391 0.65544 0.0
C557 C 0.13187 0.15756 0.69258 0.0
H558 H 0.08291 0.12432 0.60933 0.0
C559 C 0.1177 0.1865 0.71783 0.0
C560 C 0.09072 0.19227 0.70555 0.0
H561 H 0.15212 0.15202 0.70568 0.0
H562 H 0.12713 0.20217 0.75034 0.0
C563 C 0.07875 0.17052 0.66457 0.0
C564 C 0.33913 0.22064 0.89635 0.0
C565 C 0.36587 0.21471 0.88122 0.0
H566 H 0.30582 0.20231 0.94437 0.0
C567 C 0.37851 0.18177 0.89918 0.0
H568 H 0.32866 0.24552 0.88345 0.0
C569 C 0.36515 0.15653 0.93393 0.0
C570 C 0.33908 0.16412 0.952 0.0
H571 H 0.39911 0.17626 0.88833 0.0
H572 H 0.37574 0.13238 0.9492 0.0
C573 C 0.32602 0.19587 0.93156 0.0
C574 C 0.61828 0.8932 0.89048 0.0
C575 C 0.59361 0.88067 0.91099 0.0
H576 H 0.65175 0.92971 0.90291 0.0
C577 C 0.58157 0.90049 0.95427 0.0
H578 H 0.62818 0.8783 0.85767 0.0
C579 C 0.59477 0.93033 0.97924 0.0
C580 C 0.62032 0.9409 0.9616 0.0
H581 H 0.56257 0.89151 0.97107 0.0
H582 H 0.58596 0.94307 1.01523 0.0
C583 C 0.63169 0.92277 0.91613 0.0
C584 C 0.83297 0.42998 0.15693 0.0
C585 C 0.84522 0.46245 0.13593 0.0
H586 H 0.83719 0.38094 0.20713 0.0
C587 C 0.8726 0.46774 0.1454 0.0
H588 H 0.8119 0.42499 0.15045 0.0
C589 C 0.88684 0.44286 0.17829 0.0
C590 C 0.87429 0.41161 0.20183 0.0
H591 H 0.88278 0.49228 0.13007 0.0
H592 H 0.90757 0.44893 0.18713 0.0
C593 C 0.84744 0.40461 0.18923 0.0
C594 C 0.11695 0.69568 0.18053 0.0
C595 C 0.09096 0.68863 0.19965 0.0
H596 H 0.1503 0.67513 0.13394 0.0
C597 C 0.07738 0.6571 0.18005 0.0
H598 H 0.12793 0.71965 0.19517 0.0
C599 C 0.08991 0.63194 0.14469 0.0
C600 C 0.11659 0.63729 0.12854 0.0
H601 H 0.05722 0.65113 0.19366 0.0
H602 H 0.07905 0.60723 0.13246 0.0
C603 C 0.12973 0.67007 0.14559 0.0
C604 C 0.3649 0.65456 0.4318 0.0
C605 C 0.33885 0.66188 0.45026 0.0
H606 H 0.39859 0.67461 0.3856 0.0
C607 C 0.32557 0.6935 0.42994 0.0
H608 H 0.37568 0.63057 0.447 0.0
C609 C 0.33841 0.7184 0.3945 0.0
C610 C 0.36513 0.71274 0.37892 0.0
H611 H 0.30538 0.69977 0.4431 0.0
H612 H 0.32776 0.74316 0.38172 0.0
C613 C 0.378 0.67992 0.39675 0.0
C614 C 0.6365 0.4068 0.43136 0.0
C615 C 0.62394 0.43802 0.45479 0.0
H616 H 0.6324 0.35715 0.3838 0.0
C617 C 0.59699 0.44468 0.44273 0.0
H618 H 0.6573 0.40097 0.43988 0.0
C619 C 0.58246 0.41903 0.41105 0.0
C620 C 0.59475 0.38661 0.39013 0.0
H621 H 0.58673 0.46829 0.46063 0.0
H622 H 0.56134 0.42378 0.40498 0.0
C623 C 0.6222 0.38165 0.39906 0.0
C624 C 0.24587 0.33607 0.04988 0.0
C625 C 0.21796 0.33723 0.05533 0.0
H626 H 0.28089 0.30209 0.04446 0.0
C627 C 0.20386 0.30331 0.05861 0.0
H628 H 0.25736 0.36157 0.04696 0.0
C629 C 0.21733 0.26912 0.05705 0.0
C630 C 0.24527 0.26796 0.05228 0.0
H631 H 0.18232 0.30308 0.06259 0.0
H632 H 0.20583 0.24362 0.05991 0.0
C633 C 0.25936 0.30187 0.04842 0.0
C634 C 0.7163 0.76533 0.05469 0.0
C635 C 0.74431 0.76389 0.05603 0.0
H636 H 0.6814 0.79969 0.05321 0.0
C637 C 0.7587 0.79762 0.05597 0.0
H638 H 0.70459 0.73995 0.05443 0.0
C639 C 0.74541 0.83194 0.0552 0.0
C640 C 0.7174 0.83339 0.05451 0.0
H641 H 0.78031 0.7976 0.05673 0.0
H642 H 0.75713 0.85731 0.05536 0.0
C643 C 0.70301 0.79966 0.05396 0.0
C644 C -0.00261 0.51399 0.29817 0.0
C645 C 0.9695 0.51316 0.30427 0.0
H646 H 0.03256 0.54763 0.29074 0.0
C647 C 0.95558 0.5472 0.30668 0.0
H648 H 0.00874 0.48836 0.29589 0.0
C649 C 0.96921 0.58122 0.30359 0.0
C650 C -0.00288 0.58209 0.29813 0.0
H651 H 0.93406 0.54767 0.31111 0.0
H652 H 0.95783 0.60683 0.30579 0.0
C653 C 0.01104 0.54805 0.29518 0.0
C654 C 0.21725 0.76711 0.55242 0.0
C655 C 0.24527 0.76606 0.55071 0.0
H656 H 0.1821 0.80096 0.55431 0.0
C657 C 0.2594 0.79998 0.54872 0.0
H658 H 0.20574 0.74156 0.55368 0.0
C659 C 0.24586 0.83411 0.54904 0.0
C660 C 0.21784 0.83516 0.55135 0.0
H661 H 0.281 0.80027 0.54713 0.0
H662 H 0.25738 0.85964 0.54766 0.0
C663 C 0.20371 0.80124 0.55274 0.0
C664 C 0.71711 0.26765 0.56117 0.0
C665 C 0.74506 0.26635 0.55702 0.0
H666 H 0.68217 0.30178 0.5664 0.0
C667 C 0.75926 0.30021 0.55394 0.0
H668 H 0.70552 0.2422 0.56343 0.0
C669 C 0.74587 0.33447 0.55554 0.0
C670 C 0.71793 0.33577 0.56039 0.0
H671 H 0.78081 0.30033 0.55047 0.0
H672 H 0.75745 0.35993 0.55323 0.0
C673 C 0.70372 0.30191 0.5629 0.0
C674 C 0.95141 0.05151 0.79817 0.0
C675 C 0.96556 1.0176 0.79752 0.0
H676 H 0.95343 0.1112 0.80039 0.0
C677 C -0.00641 1.01872 0.79789 0.0
H678 H 0.9298 0.05175 0.79769 0.0
C679 C 0.00712 0.05286 0.7995 0.0
C680 C -0.00702 0.08676 0.80075 0.0
H681 H 0.00513 0.99322 0.79714 0.0
H682 H 0.02873 0.05259 0.79997 0.0
C683 C 0.96496 0.08567 0.79975 0.0
C684 C 0.51026 0.54736 0.79754 0.0
C685 C 0.49638 0.58128 0.80321 0.0
H686 H 0.50808 0.48767 0.79631 0.0
C687 C 0.46865 0.58019 0.81175 0.0
H688 H 0.53163 0.54711 0.79071 0.0
C689 C 0.45517 0.54606 0.81511 0.0
C690 C 0.46907 0.51214 0.80988 0.0
H691 H 0.45732 0.60571 0.81611 0.0
H692 H 0.4338 0.54634 0.82192 0.0
C693 C 0.49676 0.51321 0.80078 0.0
C694 C 0.45245 1.04795 0.31089 0.0
C695 C 0.46653 1.01422 0.30475 0.0
H696 H 0.45434 0.10761 0.31449 0.0
C697 C 0.49429 1.01573 0.29659 0.0
H698 H 0.43103 1.04791 0.31702 0.0
C699 C 0.50764 0.05004 0.29514 0.0
C700 C 0.4936 0.08375 0.30182 0.0
H701 H 0.50576 0.99039 0.29143 0.0
H702 H 0.52906 0.05006 0.289 0.0
C703 C 0.46581 0.08227 0.30943 0.0
C704 C 0.25637 0.0792 0.30322 0.0
C705 C 0.25821 1.04052 0.31069 0.0
H706 H 0.25975 0.12475 0.24656 0.0
C707 C 0.262 1.01751 0.26494 0.0
H708 H 0.2535 0.09744 0.33804 0.0
C709 C 0.26546 1.03288 0.21302 0.0
C710 C 0.26545 0.07169 0.20563 0.0
H711 H 0.26319 0.98753 0.26968 0.0
H712 H 0.26893 1.01427 0.17896 0.0
C713 C 0.26002 0.09473 0.25097 0.0
C714 C 0.70339 0.06674 0.2135 0.0
C715 C 0.70037 1.028 0.20801 0.0
H716 H 0.70768 0.11281 0.26832 0.0
C717 C 0.70326 1.00531 0.25466 0.0
H718 H 0.70175 0.08498 0.17832 0.0
C719 C 0.70708 1.02141 0.30638 0.0
C720 C 0.708 0.06032 0.31195 0.0
H721 H 0.70116 0.97536 0.25167 0.0
H722 H 0.70772 1.00367 0.34224 0.0
C723 C 0.70693 0.08272 0.26493 0.0
C724 C 0.95093 0.34483 0.50664 0.0
C725 C 0.94505 0.32138 0.46209 0.0
H726 H 0.95773 0.34844 0.59344 0.0
C727 C 0.94437 0.28269 0.47056 0.0
H728 H 0.95172 0.37477 0.50135 0.0
C729 C 0.9478 0.26787 0.52274 0.0
C730 C 0.9521 0.29132 0.56779 0.0
H731 H 0.94041 0.26374 0.43716 0.0
H732 H 0.94619 0.23799 0.52829 0.0
C733 C 0.95448 0.32986 0.55921 0.0
C734 C 0.0041 0.77529 0.54178 0.0
C735 C 0.00506 0.81422 0.547 0.0
H736 H 0.00885 0.72846 0.48799 0.0
C737 C 0.00839 0.83619 0.49993 0.0
H738 H 0.00159 0.75785 0.57764 0.0
C739 C 0.01221 0.81961 0.44892 0.0
C740 C 0.01331 0.78064 0.44396 0.0
H741 H 0.00898 0.8663 0.50295 0.0
H742 H 0.01552 0.83744 0.41374 0.0
C743 C 0.00827 0.75857 0.49055 0.0
C744 C 0.2627 0.53325 0.71301 0.0
C745 C 0.26445 0.57197 0.70562 0.0
H746 H 0.25858 0.48819 0.76982 0.0
C747 C 0.25995 0.59545 0.7509 0.0
H748 H 0.2654 0.51439 0.67893 0.0
C749 C 0.25571 0.58028 0.80321 0.0
C750 C 0.2559 0.54152 0.81075 0.0
H751 H 0.26107 0.62544 0.74646 0.0
H752 H 0.25386 0.59875 0.83805 0.0
C753 C 0.25855 0.51821 0.76497 0.0
C754 C 0.7039 0.52165 0.81173 0.0
C755 C 0.70093 0.56015 0.81996 0.0
H756 H 0.70178 0.47644 0.75436 0.0
C757 C 0.69606 0.58324 0.77469 0.0
H758 H 0.70763 0.50331 0.84609 0.0
C759 C 0.69277 0.56812 0.72269 0.0
C760 C 0.69413 0.52944 0.71455 0.0
H761 H 0.69404 0.6131 0.77984 0.0
H762 H 0.68842 0.58683 0.68915 0.0
C763 C 0.70046 0.50636 0.75934 0.0
C764 C 0.9559 0.76391 1.00018 0.0
C765 C 0.959 0.78607 0.04699 0.0
H766 H 0.94871 0.76232 0.91412 0.0
C767 C 0.95958 0.82499 0.04141 0.0
H768 H 0.95553 0.7338 1.00353 0.0
C769 C 0.95522 0.84149 0.99012 0.0
C770 C 0.95033 0.81922 0.94382 0.0
H771 H 0.96185 0.84257 0.07709 0.0
H772 H 0.95431 0.87158 0.98733 0.0
C773 C 0.95188 0.78029 0.94909 0.0
C774 C 0.00724 0.26881 0.05936 0.0
C775 C 0.00697 0.30757 0.06694 0.0
H776 H 0.01245 0.22396 1.00217 0.0
C777 C 0.0087 0.33107 1.02115 0.0
H778 H 0.00608 0.25024 0.09426 0.0
C779 C 0.01237 0.3163 0.969 0.0
C780 C 0.01453 0.27764 0.96141 0.0
H781 H 0.00837 0.36107 1.02608 0.0
H782 H 0.01443 0.33534 0.93486 0.0
C783 C 0.01099 0.2539 1.0068 0.0
C784 C 0.75713 0.07638 0.80606 0.0
C785 C 0.76027 1.03785 0.81369 0.0
H786 H 0.75913 0.12209 0.74937 0.0
C787 C 0.76526 1.01517 0.76803 0.0
H788 H 0.75329 0.0944 0.84074 0.0
C789 C 0.76848 1.03075 0.71618 0.0
C790 C 0.76699 0.06949 0.70864 0.0
H791 H 0.76739 0.98529 0.77275 0.0
H792 H 0.77285 1.01236 0.68229 0.0
C793 C 0.76055 0.09213 0.75386 0.0
C794 C 0.20792 0.08312 0.76222 0.0
C795 C 0.20841 0.06074 0.80929 0.0
H796 H 0.20297 0.08541 0.67553 0.0
C797 C 0.20668 1.02189 0.80391 0.0
H798 H 0.20927 0.11317 0.76553 0.0
C799 C 0.20265 1.00587 0.75223 0.0
C800 C 0.20031 1.02859 0.70551 0.0
H801 H 0.20685 1.00421 0.83986 0.0
H802 H 0.1999 0.976 0.74935 0.0
C803 C 0.20414 0.0672 0.71083 0.0
C804 C 0.44588 0.26625 1.02388 0.0
C805 C 0.45148 0.28935 0.06872 0.0
H806 H 0.43719 0.26266 0.93876 0.0
C807 C 0.45474 0.32776 0.06009 0.0
H808 H 0.44356 0.23646 1.0294 0.0
C809 C 0.45088 0.34301 1.00776 0.0
C810 C 0.44383 0.31997 0.96345 0.0
H811 H 0.45899 0.34609 0.09414 0.0
H812 H 0.45246 0.3729 1.00249 0.0
C813 C 0.44215 0.28134 0.97193 0.0
C814 C 0.5065 0.8341 1.0066 0.0
C815 C 0.50419 0.81191 0.05373 0.0
H816 H 0.5128 0.83581 0.92013 0.0
C817 C 0.50389 0.77298 0.04829 0.0
H818 H 0.50659 0.86422 1.00978 0.0
C819 C 0.50782 0.75655 0.99677 0.0
C820 C 0.51202 0.77891 0.95012 0.0
H821 H 0.50221 0.75535 0.08415 0.0
H822 H 0.50902 0.72648 0.99401 0.0
C823 C 0.51014 0.81779 0.95534 0.0
C824 C 0.76193 0.53331 0.22057 0.0
C825 C 0.7644 0.57196 0.21308 0.0
H826 H 0.75745 0.48843 0.27754 0.0
C827 C 0.76081 0.59561 0.25848 0.0
H828 H 0.76401 0.51433 0.18643 0.0
C829 C 0.75675 0.5806 0.31096 0.0
C830 C 0.75619 0.54183 0.31849 0.0
H831 H 0.7625 0.62554 0.25394 0.0
H832 H 0.75564 0.59911 0.34589 0.0
C833 C 0.75794 0.51844 0.27265 0.0
C834 C 0.19608 0.5855 0.26759 0.0
C835 C 0.20203 0.56269 0.31262 0.0
H836 H 0.18726 0.58866 0.18253 0.0
C837 C 0.20563 0.52431 0.30432 0.0
H838 H 0.19357 0.61528 0.27276 0.0
C839 C 0.2018 0.5088 0.25219 0.0
C840 C 0.19447 0.53154 0.20769 0.0
H841 H 0.21021 0.50618 0.33849 0.0
H842 H 0.20367 0.47893 0.2472 0.0
C843 C 0.19241 0.57017 0.21584 0.0
C844 C 0.44349 0.77876 0.4609 0.0
C845 C 0.44551 0.81743 0.45292 0.0
H846 H 0.44498 0.73342 0.51764 0.0
C847 C 0.45334 0.83995 0.49724 0.0
H848 H 0.43802 0.76044 0.4277 0.0
C849 C 0.45765 0.82421 0.54911 0.0
C850 C 0.45401 0.78581 0.55732 0.0
H851 H 0.45521 0.86983 0.49239 0.0
H852 H 0.46255 0.84217 0.5832 0.0
C853 C 0.44759 0.7632 0.51244 0.0
C854 C 0.50627 0.32963 0.52206 0.0
C855 C 0.50529 0.30629 0.56813 0.0
H856 H 0.51145 0.33367 0.43556 0.0
C857 C 0.50625 0.26753 0.56089 0.0
H858 H 0.50544 0.35963 0.52673 0.0
C859 C 0.51 0.25251 0.50839 0.0
C860 C 0.51289 0.27615 0.4627 0.0
H861 H 0.50572 0.24908 0.596 0.0
H862 H 0.51209 0.22262 0.50403 0.0
C863 C 0.50994 0.31474 0.46995 0.0
C864 C 0.14466 0.21135 0.93632 0.0
C865 C 0.11907 0.19993 0.92022 0.0
H866 H 0.1851 0.19498 0.9507 0.0
C867 C 0.1135 0.16179 0.91525 0.0
H868 H 0.14938 0.24067 0.94055 0.0
C869 C 0.13395 0.13568 0.92071 0.0
C870 C 0.16016 0.14738 0.93172 0.0
H871 H 0.09389 0.1523 0.90292 0.0
H872 H 0.12964 0.10657 0.91306 0.0
C873 C 0.16507 0.18521 0.94226 0.0
C874 C 0.83133 0.96157 0.93308 0.0
C875 C 0.80458 0.95129 0.94165 0.0
H876 H 0.87095 0.94284 0.91509 0.0
C877 C 0.79817 0.91352 0.94904 0.0
H878 H 0.83673 0.99059 0.92774 0.0
C879 C 0.81766 0.88625 0.94144 0.0
C880 C 0.8438 0.89647 0.92694 0.0
H881 H 0.77767 0.90488 0.95559 0.0
H882 H 0.8118 0.85719 0.94254 0.0
C883 C 0.85089 0.93429 0.92613 0.0
C884 C 0.04805 0.43192 0.19788 0.0
C885 C 0.05413 0.39418 0.18943 0.0
H886 H 0.06191 0.48821 0.19171 0.0
C887 C 0.08062 0.38378 0.17821 0.0
H888 H 0.02776 0.44065 0.20641 0.0
C889 C 0.10017 0.41095 0.17016 0.0
C890 C 0.09336 0.44881 0.17264 0.0
H891 H 0.08576 0.35477 0.172 0.0
H892 H 0.11999 0.40235 0.15753 0.0
C893 C 0.06755 0.45911 0.18928 0.0
C894 C 0.91666 0.66384 0.18741 0.0
C895 C 0.91197 0.70155 0.17548 0.0
H896 H 0.90042 0.60867 0.18893 0.0
C897 C 0.88572 0.71353 0.16559 0.0
H898 H 0.9367 0.65386 0.19506 0.0
C899 C 0.86495 0.68771 0.16245 0.0
C900 C 0.87022 0.64957 0.16867 0.0
H901 H 0.88159 0.74257 0.15694 0.0
H902 H 0.84528 0.69732 0.15078 0.0
C903 C 0.89591 0.63799 0.1838 0.0
C904 C 0.13229 0.63889 0.43584 0.0
C905 C 0.15914 0.6491 0.44288 0.0
H906 H 0.09265 0.65759 0.41845 0.0
C907 C 0.1657 0.68693 0.44855 0.0
H908 H 0.12677 0.60983 0.43181 0.0
C909 C 0.14625 0.71421 0.4405 0.0
C910 C 0.12002 0.70394 0.42726 0.0
H911 H 0.18625 0.69554 0.45389 0.0
H912 H 0.15223 0.74323 0.44019 0.0
C913 C 0.11279 0.66619 0.42841 0.0
C914 C 0.81831 0.39155 0.44189 0.0
C915 C 0.84394 0.40233 0.42463 0.0
H916 H 0.7784 0.40921 0.45936 0.0
C917 C 0.85035 0.44031 0.42143 0.0
H918 H 0.81299 0.36235 0.44491 0.0
C919 C 0.83054 0.46709 0.4294 0.0
C920 C 0.80421 0.45616 0.44119 0.0
H921 H 0.87002 0.44927 0.40836 0.0
H922 H 0.83536 0.49618 0.42267 0.0
C923 C 0.79856 0.41834 0.45037 0.0
C924 C 0.07696 0.88919 0.66591 0.0
C925 C 0.05047 0.90073 0.67428 0.0
H926 H 0.11747 0.90605 0.65295 0.0
C927 C 0.0452 0.93847 0.6849 0.0
H928 H 0.08151 0.86016 0.65817 0.0
C929 C 0.06572 0.96471 0.68166 0.0
C930 C 0.09179 0.95349 0.6684 0.0
H931 H 0.02493 0.94808 0.69136 0.0
H932 H 0.06085 0.99399 0.68571 0.0
C933 C 0.09753 0.91538 0.66337 0.0
C934 C 0.89378 0.14075 0.69411 0.0
C935 C 0.86785 0.15094 0.67858 0.0
H936 H 0.93353 0.15953 0.71007 0.0
C937 C 0.86067 0.1887 0.67802 0.0
H938 H 0.89969 0.11172 0.69516 0.0
C939 C 0.88004 0.21604 0.68629 0.0
C940 C 0.9067 0.20586 0.69574 0.0
H941 H 0.84074 0.19721 0.66641 0.0
H942 H 0.87465 0.24506 0.68112 0.0
C943 C 0.9131 0.16809 0.70288 0.0
C944 C 0.6334 0.13503 0.42375 0.0
C945 C 0.6596 0.14662 0.43497 0.0
H946 H 0.59332 0.15182 0.40659 0.0
C947 C 0.66452 0.18433 0.44643 0.0
H948 H 0.6291 0.10601 0.4154 0.0
C949 C 0.64409 0.21052 0.44126 0.0
C950 C 0.61848 0.19926 0.42504 0.0
H951 H 0.68455 0.194 0.45508 0.0
H952 H 0.64881 0.23979 0.44615 0.0
C953 C 0.61293 0.16118 0.4191 0.0
C954 C 0.29786 0.91714 0.44653 0.0
C955 C 0.30393 0.95486 0.43755 0.0
H956 H 0.31178 0.86089 0.44145 0.0
C957 C 0.33051 0.9653 0.42716 0.0
H958 H 0.27751 0.90834 0.45448 0.0
C959 C 0.35014 0.93815 0.42002 0.0
C960 C 0.34331 0.90029 0.42264 0.0
H961 H 0.33568 0.99429 0.42066 0.0
H962 H 0.37002 0.94675 0.40771 0.0
C963 C 0.31743 0.88999 0.43889 0.0
C964 C 0.58001 0.38226 0.67717 0.0
C965 C 0.55364 0.39286 0.68911 0.0
H966 H 0.61951 0.4006 0.6572 0.0
C967 C 0.54786 0.43053 0.69902 0.0
H968 H 0.58492 0.35329 0.66988 0.0
C969 C 0.56756 0.45756 0.69147 0.0
C970 C 0.59328 0.44716 0.67447 0.0
H971 H 0.52766 0.4394 0.70814 0.0
H972 H 0.56217 0.48668 0.69517 0.0
C973 C 0.59978 0.40926 0.67023 0.0
C974 C 0.39527 0.6377 0.69111 0.0
C975 C 0.36942 0.64888 0.6765 0.0
H976 H 0.43564 0.65472 0.70424 0.0
C977 C 0.36313 0.68694 0.67539 0.0
H978 H 0.40051 0.60843 0.69263 0.0
C979 C 0.38325 0.71346 0.68197 0.0
C980 C 0.4098 0.70217 0.69005 0.0
H981 H 0.34327 0.69623 0.66452 0.0
H982 H 0.37845 0.74265 0.67638 0.0
C983 C 0.41535 0.66421 0.69802 0.0
C984 C 0.64421 0.71194 0.94645 0.0
C985 C 0.61804 0.70193 0.93237 0.0
H986 H 0.68404 0.69288 0.96078 0.0
C987 C 0.61067 0.66422 0.93263 0.0
H988 H 0.65028 0.74092 0.94677 0.0
C989 C 0.63001 0.63674 0.94017 0.0
C990 C 0.65682 0.64673 0.94825 0.0
H991 H 0.59057 0.65584 0.92201 0.0
H992 H 0.62443 0.60775 0.93556 0.0
C993 C 0.66349 0.68447 0.95464 0.0
C994 C 0.34943 0.44067 0.91802 0.0
C995 C 0.34302 0.4027 0.9216 0.0
H996 H 0.33439 0.49651 0.91785 0.0
C997 C 0.31728 0.39199 0.93821 0.0
H998 H 0.36919 0.44956 0.9054 0.0
C999 C 0.29745 0.41881 0.94564 0.0
C1000 C 0.30314 0.45657 0.93603 0.0
H1001 H 0.31196 0.36281 0.9415 0.0
H1002 H 0.27723 0.40971 0.95415 0.0
C1003 C 0.32954 0.46746 0.9249 0.0
C1004 C 0.54593 0.93649 0.18891 0.0
C1005 C 0.55124 0.89884 0.17779 0.0
H1006 H 0.56142 0.99211 0.18965 0.0
C1007 C 0.57766 0.88751 0.16808 0.0
H1008 H 0.52569 0.94589 0.1964 0.0
C1009 C 0.59813 0.91383 0.16507 0.0
C1010 C 0.59233 0.95186 0.17085 0.0
H1011 H 0.58222 0.85853 0.15988 0.0
H1012 H 0.61801 0.90467 0.15382 0.0
C1013 C 0.56633 0.96288 0.18508 0.0
C1014 C 0.41293 0.16664 0.20499 0.0
C1015 C 0.40676 0.20454 0.19851 0.0
H1016 H 0.39919 0.11051 0.19616 0.0
C1017 C 0.38012 0.2151 0.18965 0.0
H1018 H 0.43332 0.15776 0.21175 0.0
C1019 C 0.36059 0.18807 0.18083 0.0
C1020 C 0.36758 0.15024 0.1804 0.0
H1021 H 0.37489 0.24422 0.18506 0.0
H1022 H 0.3407 0.19691 0.16944 0.0
C1023 C 0.39344 0.13961 0.19578 0.0
loop_
_geom_bond_atom_site_label_1
_geom_bond_atom_site_label_2
_geom_bond_distance
_geom_bond_site_symmetry_2
_ccdc_geom_bond_type
O0 Tb1 2.292 . S
O0 C3 1.255 1_545 S
Tb1 O0 2.292 . S
Tb1 O17 2.326 . S
Tb1 O19 2.500 . S
Tb1 O20 2.473 . S
Tb1 O23 2.324 1_554 S
Eu2 O6 2.292 . S
Eu2 C7 2.852 1_554 S
Eu2 O18 2.324 . S
Eu2 O22 2.326 1_554 S
Eu2 O24 2.500 1_554 S
Eu2 O25 2.473 . S
C3 O0 1.255 1_565 S
C3 O4 1.247 . S
O4 C3 1.247 . S
C5 O17 1.242 . S
C5 O18 1.258 . S
O6 Eu2 2.292 . S
O6 C8 1.255 . S
C7 Eu2 2.852 1_556 S
C7 C11 1.503 . S
C7 O24 1.273 . S
C7 O25 1.257 1_556 S
C8 O6 1.255 . S
C8 O9 1.247 . S
O9 C8 1.247 . S
C10 O22 1.242 . S
C10 O23 1.258 . S
C11 C7 1.503 . S
C11 C12 1.379 . S
C11 C16 1.392 . S
C12 C11 1.379 . S
C12 C13 1.404 . S
C12 H26 0.929 . S
C13 C12 1.404 . S
C13 C14 1.389 . S
C14 C13 1.389 . S
C14 C15 1.399 . S
C14 H27 0.931 . S
C15 C14 1.399 . S
C15 C16 1.390 . S
C16 C11 1.392 . S
C16 C15 1.390 . S
C16 H28 0.929 . S
O17 Tb1 2.326 . S
O17 C5 1.242 . S
O18 Eu2 2.324 . S
O18 C5 1.258 . S
O19 Tb1 2.500 . S
O19 C21 1.273 . S
O20 Tb1 2.473 . S
O20 C21 1.257 . S
C21 O19 1.273 . S
C21 O20 1.257 . S
O22 Eu2 2.326 1_556 S
O22 C10 1.242 . S
O23 Tb1 2.324 1_556 S
O23 C10 1.258 . S
O24 Eu2 2.500 1_556 S
O24 C7 1.273 . S
O25 Eu2 2.473 . S
O25 C7 1.257 1_554 S
H26 C12 0.929 . S
H27 C14 0.931 . S
H28 C16 0.929 . S
O29 Tb30 2.292 . S
O29 C32 1.255 1_565 S
Tb30 O29 2.292 . S
Tb30 O46 2.326 . S
Tb30 O48 2.500 . S
Tb30 O49 2.473 . S
Tb30 O52 2.324 1_554 S
Eu31 O35 2.292 . S
Eu31 C36 2.852 1_554 S
Eu31 O47 2.324 . S
Eu31 O51 2.326 1_554 S
Eu31 O53 2.500 1_554 S
Eu31 O54 2.473 . S
C32 O29 1.255 1_545 S
C32 O33 1.247 . S
O33 C32 1.247 . S
C34 O46 1.242 . S
C34 O47 1.258 . S
O35 Eu31 2.292 . S
O35 C37 1.255 . S
C36 Eu31 2.852 1_556 S
C36 C40 1.503 . S
C36 O53 1.273 . S
C36 O54 1.257 1_556 S
C37 O35 1.255 . S
C37 O38 1.247 . S
O38 C37 1.247 . S
C39 O51 1.242 . S
C39 O52 1.258 . S
C40 C36 1.503 . S
C40 C41 1.379 . S
C40 C45 1.392 . S
C41 C40 1.379 . S
C41 C42 1.404 . S
C41 H55 0.929 . S
C42 C41 1.404 . S
C42 C43 1.389 . S
C43 C42 1.389 . S
C43 C44 1.399 . S
C43 H56 0.931 . S
C44 C43 1.399 . S
C44 C45 1.390 . S
C45 C40 1.392 . S
C45 C44 1.390 . S
C45 H57 0.929 . S
O46 Tb30 2.326 . S
O46 C34 1.242 . S
O47 Eu31 2.324 . S
O47 C34 1.258 . S
O48 Tb30 2.500 . S
O48 C50 1.273 . S
O49 Tb30 2.473 . S
O49 C50 1.257 . S
C50 O48 1.273 . S
C50 O49 1.257 . S
O51 Eu31 2.326 1_556 S
O51 C39 1.242 . S
O52 Tb30 2.324 1_556 S
O52 C39 1.258 . S
O53 Eu31 2.500 1_556 S
O53 C36 1.273 . S
O54 Eu31 2.473 . S
O54 C36 1.257 1_554 S
H55 C41 0.929 . S
H56 C43 0.931 . S
H57 C45 0.929 . S
O58 Tb59 2.292 . S
O58 C61 1.255 . S
Tb59 O58 2.292 . S
Tb59 O75 2.326 . S
Tb59 O77 2.500 . S
Tb59 O78 2.473 . S
Tb59 O81 2.324 . S
Eu60 O64 2.292 . S
Eu60 C65 2.852 1_655 S
Eu60 O76 2.324 . S
Eu60 O80 2.326 . S
Eu60 O82 2.500 1_655 S
Eu60 O83 2.473 . S
C61 O58 1.255 . S
C61 O62 1.247 . S
O62 C61 1.247 . S
C63 O75 1.242 . S
C63 O76 1.258 . S
O64 Eu60 2.292 . S
O64 C66 1.255 . S
C65 Eu60 2.852 1_455 S
C65 C69 1.503 . S
C65 O82 1.273 . S
C65 O83 1.257 1_455 S
C66 O64 1.255 . S
C66 O67 1.247 . S
O67 C66 1.247 . S
C68 O80 1.242 . S
C68 O81 1.258 . S
C69 C65 1.503 . S
C69 C70 1.379 . S
C69 C74 1.392 . S
C70 C69 1.379 . S
C70 C71 1.404 . S
C70 H84 0.929 1_455 S
C71 C70 1.404 . S
C71 C72 1.389 . S
C72 C71 1.389 . S
C72 C73 1.399 . S
C72 H85 0.931 . S
C73 C72 1.399 . S
C73 C74 1.390 . S
C74 C69 1.392 . S
C74 C73 1.390 . S
C74 H86 0.929 . S
O75 Tb59 2.326 . S
O75 C63 1.242 . S
O76 Eu60 2.324 . S
O76 C63 1.258 . S
O77 Tb59 2.500 . S
O77 C79 1.273 . S
O78 Tb59 2.473 . S
O78 C79 1.257 . S
C79 O77 1.273 . S
C79 O78 1.257 . S
O80 Eu60 2.326 . S
O80 C68 1.242 . S
O81 Tb59 2.324 . S
O81 C68 1.258 . S
O82 Eu60 2.500 1_455 S
O82 C65 1.273 . S
O83 Eu60 2.473 . S
O83 C65 1.257 1_655 S
H84 C70 0.929 1_655 S
H85 C72 0.931 . S
H86 C74 0.929 . S
O87 Tb88 2.292 . S
O87 C90 1.255 . S
Tb88 O87 2.292 . S
Tb88 O104 2.326 . S
Tb88 O106 2.500 . S
Tb88 O107 2.473 . S
Tb88 O110 2.324 . S
Eu89 O93 2.292 . S
Eu89 C94 2.852 1_455 S
Eu89 O105 2.324 . S
Eu89 O109 2.326 . S
Eu89 O111 2.500 1_455 S
Eu89 O112 2.473 . S
C90 O87 1.255 . S
C90 O91 1.247 . S
O91 C90 1.247 . S
C92 O104 1.242 . S
C92 O105 1.258 . S
O93 Eu89 2.292 . S
O93 C95 1.255 . S
C94 Eu89 2.852 1_655 S
C94 C98 1.503 . S
C94 O111 1.273 . S
C94 O112 1.257 1_655 S
C95 O93 1.255 . S
C95 O96 1.247 . S
O96 C95 1.247 . S
C97 O109 1.242 . S
C97 O110 1.258 . S
C98 C94 1.503 . S
C98 C99 1.379 . S
C98 C103 1.392 . S
C99 C98 1.379 . S
C99 C100 1.404 . S
C99 H113 0.929 1_655 S
C100 C99 1.404 . S
C100 C101 1.389 . S
C101 C100 1.389 . S
C101 C102 1.399 . S
C101 H114 0.931 . S
C102 C101 1.399 . S
C102 C103 1.390 . S
C103 C98 1.392 . S
C103 C102 1.390 . S
C103 H115 0.929 . S
O104 Tb88 2.326 . S
O104 C92 1.242 . S
O105 Eu89 2.324 . S
O105 C92 1.258 . S
O106 Tb88 2.500 . S
O106 C108 1.273 . S
O107 Tb88 2.473 . S
O107 C108 1.257 . S
C108 O106 1.273 . S
C108 O107 1.257 . S
O109 Eu89 2.326 . S
O109 C97 1.242 . S
O110 Tb88 2.324 . S
O110 C97 1.258 . S
O111 Eu89 2.500 1_655 S
O111 C94 1.273 . S
O112 Eu89 2.473 . S
O112 C94 1.257 1_455 S
H113 C99 0.929 1_455 S
H114 C101 0.931 . S
H115 C103 0.929 . S
O116 Tb117 2.292 . S
O116 C119 1.255 . S
Tb117 O116 2.292 . S
Tb117 O133 2.326 . S
Tb117 O135 2.500 . S
Tb117 O136 2.473 . S
Tb117 O139 2.324 . S
Eu118 O122 2.292 . S
Eu118 C123 2.852 . S
Eu118 O134 2.324 . S
Eu118 O138 2.326 . S
Eu118 O140 2.500 . S
Eu118 O141 2.473 . S
C119 O116 1.255 . S
C119 O120 1.247 . S
O120 C119 1.247 . S
C121 O133 1.242 . S
C121 O134 1.258 . S
O122 Eu118 2.292 . S
O122 C124 1.255 . S
C123 Eu118 2.852 . S
C123 C127 1.503 . S
C123 O140 1.273 . S
C123 O141 1.257 . S
C124 O122 1.255 . S
C124 O125 1.247 . S
O125 C124 1.247 . S
C126 O138 1.242 . S
C126 O139 1.258 . S
C127 C123 1.503 . S
C127 C128 1.379 . S
C127 C132 1.392 . S
C128 C127 1.379 . S
C128 C129 1.404 . S
C128 H142 0.929 . S
C129 C128 1.404 . S
C129 C130 1.389 . S
C130 C129 1.389 . S
C130 C131 1.399 . S
C130 H143 0.931 . S
C131 C130 1.399 . S
C131 C132 1.390 . S
C132 C127 1.392 . S
C132 C131 1.390 . S
C132 H144 0.929 . S
O133 Tb117 2.326 . S
O133 C121 1.242 . S
O134 Eu118 2.324 . S
O134 C121 1.258 . S
O135 Tb117 2.500 . S
O135 C137 1.273 . S
O136 Tb117 2.473 . S
O136 C137 1.257 . S
C137 O135 1.273 . S
C137 O136 1.257 . S
O138 Eu118 2.326 . S
O138 C126 1.242 . S
O139 Tb117 2.324 . S
O139 C126 1.258 . S
O140 Eu118 2.500 . S
O140 C123 1.273 . S
O141 Eu118 2.473 . S
O141 C123 1.257 . S
H142 C128 0.929 . S
H143 C130 0.931 . S
H144 C132 0.929 . S
O145 Tb146 2.292 . S
O145 C148 1.255 . S
Tb146 O145 2.292 . S
Tb146 O162 2.326 . S
Tb146 O164 2.500 . S
Tb146 O165 2.473 . S
Tb146 O168 2.324 . S
Eu147 O151 2.292 . S
Eu147 C152 2.852 . S
Eu147 O163 2.324 . S
Eu147 O167 2.326 . S
Eu147 O169 2.500 . S
Eu147 O170 2.473 . S
C148 O145 1.255 . S
C148 O149 1.247 . S
O149 C148 1.247 . S
C150 O162 1.242 . S
C150 O163 1.258 . S
O151 Eu147 2.292 . S
O151 C153 1.255 . S
C152 Eu147 2.852 . S
C152 C156 1.503 . S
C152 O169 1.273 . S
C152 O170 1.257 . S
C153 O151 1.255 . S
C153 O154 1.247 . S
O154 C153 1.247 . S
C155 O167 1.242 . S
C155 O168 1.258 . S
C156 C152 1.503 . S
C156 C157 1.379 . S
C156 C161 1.392 . S
C157 C156 1.379 . S
C157 C158 1.404 . S
C157 H171 0.929 . S
C158 C157 1.404 . S
C158 C159 1.389 . S
C159 C158 1.389 . S
C159 C160 1.399 . S
C159 H172 0.931 . S
C160 C159 1.399 . S
C160 C161 1.390 . S
C161 C156 1.392 . S
C161 C160 1.390 . S
C161 H173 0.929 . S
O162 Tb146 2.326 . S
O162 C150 1.242 . S
O163 Eu147 2.324 . S
O163 C150 1.258 . S
O164 Tb146 2.500 . S
O164 C166 1.273 . S
O165 Tb146 2.473 . S
O165 C166 1.257 . S
C166 O164 1.273 . S
C166 O165 1.257 . S
O167 Eu147 2.326 . S
O167 C155 1.242 . S
O168 Tb146 2.324 . S
O168 C155 1.258 . S
O169 Eu147 2.500 . S
O169 C152 1.273 . S
O170 Eu147 2.473 . S
O170 C152 1.257 . S
H171 C157 0.929 . S
H172 C159 0.931 . S
H173 C161 0.929 . S
O174 Tb175 2.292 . S
O174 C177 1.255 . S
Tb175 O174 2.292 . S
Tb175 O191 2.326 . S
Tb175 O193 2.500 . S
Tb175 O194 2.473 . S
Tb175 O197 2.324 . S
Eu176 O180 2.292 . S
Eu176 C181 2.852 1_655 S
Eu176 O192 2.324 . S
Eu176 O196 2.326 . S
Eu176 O198 2.500 1_655 S
Eu176 O199 2.473 . S
C177 O174 1.255 . S
C177 O178 1.247 . S
O178 C177 1.247 . S
C179 O191 1.242 . S
C179 O192 1.258 . S
O180 Eu176 2.292 . S
O180 C182 1.255 . S
C181 Eu176 2.852 1_455 S
C181 C185 1.503 . S
C181 O198 1.273 . S
C181 O199 1.257 1_455 S
C182 O180 1.255 . S
C182 O183 1.247 . S
O183 C182 1.247 . S
C184 O196 1.242 . S
C184 O197 1.258 . S
C185 C181 1.503 . S
C185 C186 1.379 . S
C185 C190 1.392 . S
C186 C185 1.379 . S
C186 C187 1.404 . S
C186 H200 0.929 1_455 S
C187 C186 1.404 . S
C187 C188 1.389 . S
C188 C187 1.389 . S
C188 C189 1.399 . S
C188 H201 0.931 . S
C189 C188 1.399 . S
C189 C190 1.390 . S
C190 C185 1.392 . S
C190 C189 1.390 . S
C190 H202 0.929 . S
O191 Tb175 2.326 . S
O191 C179 1.242 . S
O192 Eu176 2.324 . S
O192 C179 1.258 . S
O193 Tb175 2.500 . S
O193 C195 1.273 . S
O194 Tb175 2.473 . S
O194 C195 1.257 . S
C195 O193 1.273 . S
C195 O194 1.257 . S
O196 Eu176 2.326 . S
O196 C184 1.242 . S
O197 Tb175 2.324 . S
O197 C184 1.258 . S
O198 Eu176 2.500 1_455 S
O198 C181 1.273 . S
O199 Eu176 2.473 . S
O199 C181 1.257 1_655 S
H200 C186 0.929 1_655 S
H201 C188 0.931 . S
H202 C190 0.929 . S
O203 Tb204 2.292 . S
O203 C206 1.255 . S
Tb204 O203 2.292 . S
Tb204 O220 2.326 . S
Tb204 O222 2.500 . S
Tb204 O223 2.473 . S
Tb204 O226 2.324 . S
Eu205 O209 2.292 . S
Eu205 C210 2.852 1_455 S
Eu205 O221 2.324 . S
Eu205 O225 2.326 . S
Eu205 O227 2.500 1_455 S
Eu205 O228 2.473 . S
C206 O203 1.255 . S
C206 O207 1.247 . S
O207 C206 1.247 . S
C208 O220 1.242 . S
C208 O221 1.258 . S
O209 Eu205 2.292 . S
O209 C211 1.255 . S
C210 Eu205 2.852 1_655 S
C210 C214 1.503 . S
C210 O227 1.273 . S
C210 O228 1.257 1_655 S
C211 O209 1.255 . S
C211 O212 1.247 . S
O212 C211 1.247 . S
C213 O225 1.242 . S
C213 O226 1.258 . S
C214 C210 1.503 . S
C214 C215 1.379 . S
C214 C219 1.392 . S
C215 C214 1.379 . S
C215 C216 1.404 . S
C215 H229 0.929 1_655 S
C216 C215 1.404 . S
C216 C217 1.389 . S
C217 C216 1.389 . S
C217 C218 1.399 . S
C217 H230 0.931 . S
C218 C217 1.399 . S
C218 C219 1.390 . S
C219 C214 1.392 . S
C219 C218 1.390 . S
C219 H231 0.929 . S
O220 Tb204 2.326 . S
O220 C208 1.242 . S
O221 Eu205 2.324 . S
O221 C208 1.258 . S
O222 Tb204 2.500 . S
O222 C224 1.273 . S
O223 Tb204 2.473 . S
O223 C224 1.257 . S
C224 O222 1.273 . S
C224 O223 1.257 . S
O225 Eu205 2.326 . S
O225 C213 1.242 . S
O226 Tb204 2.324 . S
O226 C213 1.258 . S
O227 Eu205 2.500 1_655 S
O227 C210 1.273 . S
O228 Eu205 2.473 . S
O228 C210 1.257 1_455 S
H229 C215 0.929 1_455 S
H230 C217 0.931 . S
H231 C219 0.929 . S
O232 Tb233 2.292 . S
O232 C235 1.255 1_545 S
Tb233 O232 2.292 . S
Tb233 O249 2.326 . S
Tb233 O251 2.500 . S
Tb233 O252 2.473 . S
Tb233 O255 2.324 . S
Eu234 O238 2.292 . S
Eu234 C239 2.852 . S
Eu234 O250 2.324 . S
Eu234 O254 2.326 . S
Eu234 O256 2.500 . S
Eu234 O257 2.473 . S
C235 O232 1.255 1_565 S
C235 O236 1.247 . S
O236 C235 1.247 . S
C237 O249 1.242 . S
C237 O250 1.258 . S
O238 Eu234 2.292 . S
O238 C240 1.255 . S
C239 Eu234 2.852 . S
C239 C243 1.503 . S
C239 O256 1.273 . S
C239 O257 1.257 . S
C240 O238 1.255 . S
C240 O241 1.247 . S
O241 C240 1.247 . S
C242 O254 1.242 . S
C242 O255 1.258 . S
C243 C239 1.503 . S
C243 C244 1.379 . S
C243 C248 1.392 . S
C244 C243 1.379 . S
C244 C245 1.404 . S
C244 H258 0.929 . S
C245 C244 1.404 . S
C245 C246 1.389 . S
C246 C245 1.389 . S
C246 C247 1.399 . S
C246 H259 0.931 . S
C247 C246 1.399 . S
C247 C248 1.390 . S
C248 C243 1.392 . S
C248 C247 1.390 . S
C248 H260 0.929 . S
O249 Tb233 2.326 . S
O249 C237 1.242 . S
O250 Eu234 2.324 . S
O250 C237 1.258 . S
O251 Tb233 2.500 . S
O251 C253 1.273 . S
O252 Tb233 2.473 . S
O252 C253 1.257 . S
C253 O251 1.273 . S
C253 O252 1.257 . S
O254 Eu234 2.326 . S
O254 C242 1.242 . S
O255 Tb233 2.324 . S
O255 C242 1.258 . S
O256 Eu234 2.500 . S
O256 C239 1.273 . S
O257 Eu234 2.473 . S
O257 C239 1.257 . S
H258 C244 0.929 . S
H259 C246 0.931 . S
H260 C248 0.929 . S
O261 Tb262 2.292 . S
O261 C264 1.255 1_565 S
Tb262 O261 2.292 . S
Tb262 O278 2.326 . S
Tb262 O280 2.500 . S
Tb262 O281 2.473 . S
Tb262 O284 2.324 . S
Eu263 O267 2.292 . S
Eu263 C268 2.852 . S
Eu263 O279 2.324 . S
Eu263 O283 2.326 . S
Eu263 O285 2.500 . S
Eu263 O286 2.473 . S
C264 O261 1.255 1_545 S
C264 O265 1.247 . S
O265 C264 1.247 . S
C266 O278 1.242 . S
C266 O279 1.258 . S
O267 Eu263 2.292 . S
O267 C269 1.255 . S
C268 Eu263 2.852 . S
C268 C272 1.503 . S
C268 O285 1.273 . S
C268 O286 1.257 . S
C269 O267 1.255 . S
C269 O270 1.247 . S
O270 C269 1.247 . S
C271 O283 1.242 . S
C271 O284 1.258 . S
C272 C268 1.503 . S
C272 C273 1.379 . S
C272 C277 1.392 . S
C273 C272 1.379 . S
C273 C274 1.404 . S
C273 H287 0.929 . S
C274 C273 1.404 . S
C274 C275 1.389 . S
C275 C274 1.389 . S
C275 C276 1.399 . S
C275 H288 0.931 . S
C276 C275 1.399 . S
C276 C277 1.390 . S
C277 C272 1.392 . S
C277 C276 1.390 . S
C277 H289 0.929 . S
O278 Tb262 2.326 . S
O278 C266 1.242 . S
O279 Eu263 2.324 . S
O279 C266 1.258 . S
O280 Tb262 2.500 . S
O280 C282 1.273 . S
O281 Tb262 2.473 . S
O281 C282 1.257 . S
C282 O280 1.273 . S
C282 O281 1.257 . S
O283 Eu263 2.326 . S
O283 C271 1.242 . S
O284 Tb262 2.324 . S
O284 C271 1.258 . S
O285 Eu263 2.500 . S
O285 C268 1.273 . S
O286 Eu263 2.473 . S
O286 C268 1.257 . S
H287 C273 0.929 . S
H288 C275 0.931 . S
H289 C277 0.929 . S
O290 Tb291 2.292 . S
O290 C293 1.255 . S
Tb291 O290 2.292 . S
Tb291 O307 2.326 . S
Tb291 O309 2.500 . S
Tb291 O310 2.473 . S
Tb291 O313 2.324 . S
Eu292 O296 2.292 . S
Eu292 C297 2.852 . S
Eu292 O308 2.324 . S
Eu292 O312 2.326 . S
Eu292 O314 2.500 . S
Eu292 O315 2.473 . S
C293 O290 1.255 . S
C293 O294 1.247 . S
O294 C293 1.247 . S
C295 O307 1.242 . S
C295 O308 1.258 . S
O296 Eu292 2.292 . S
O296 C298 1.255 . S
C297 Eu292 2.852 . S
C297 C301 1.503 . S
C297 O314 1.273 . S
C297 O315 1.257 . S
C298 O296 1.255 . S
C298 O299 1.247 . S
O299 C298 1.247 . S
C300 O312 1.242 . S
C300 O313 1.258 . S
C301 C297 1.503 . S
C301 C302 1.379 . S
C301 C306 1.392 . S
C302 C301 1.379 . S
C302 C303 1.404 . S
C302 H316 0.929 . S
C303 C302 1.404 . S
C303 C304 1.389 . S
C304 C303 1.389 . S
C304 C305 1.399 . S
C304 H317 0.931 . S
C305 C304 1.399 . S
C305 C306 1.390 . S
C306 C301 1.392 . S
C306 C305 1.390 . S
C306 H318 0.929 . S
O307 Tb291 2.326 . S
O307 C295 1.242 . S
O308 Eu292 2.324 . S
O308 C295 1.258 . S
O309 Tb291 2.500 . S
O309 C311 1.273 . S
O310 Tb291 2.473 . S
O310 C311 1.257 . S
C311 O309 1.273 . S
C311 O310 1.257 . S
O312 Eu292 2.326 . S
O312 C300 1.242 . S
O313 Tb291 2.324 . S
O313 C300 1.258 . S
O314 Eu292 2.500 . S
O314 C297 1.273 . S
O315 Eu292 2.473 . S
O315 C297 1.257 . S
H316 C302 0.929 . S
H317 C304 0.931 . S
H318 C306 0.929 . S
O319 Tb320 2.292 . S
O319 C322 1.255 . S
Tb320 O319 2.292 . S
Tb320 O336 2.326 . S
Tb320 O338 2.500 . S
Tb320 O339 2.473 . S
Tb320 O342 2.324 . S
Eu321 O325 2.292 . S
Eu321 C326 2.852 . S
Eu321 O337 2.324 . S
Eu321 O341 2.326 . S
Eu321 O343 2.500 . S
Eu321 O344 2.473 . S
C322 O319 1.255 . S
C322 O323 1.247 . S
O323 C322 1.247 . S
C324 O336 1.242 . S
C324 O337 1.258 . S
O325 Eu321 2.292 . S
O325 C327 1.255 . S
C326 Eu321 2.852 . S
C326 C330 1.503 . S
C326 O343 1.273 . S
C326 O344 1.257 . S
C327 O325 1.255 . S
C327 O328 1.247 . S
O328 C327 1.247 . S
C329 O341 1.242 . S
C329 O342 1.258 . S
C330 C326 1.503 . S
C330 C331 1.379 . S
C330 C335 1.392 . S
C331 C330 1.379 . S
C331 C332 1.404 . S
C331 H345 0.929 . S
C332 C331 1.404 . S
C332 C333 1.389 . S
C333 C332 1.389 . S
C333 C334 1.399 . S
C333 H346 0.931 . S
C334 C333 1.399 . S
C334 C335 1.390 . S
C335 C330 1.392 . S
C335 C334 1.390 . S
C335 H347 0.929 . S
O336 Tb320 2.326 . S
O336 C324 1.242 . S
O337 Eu321 2.324 . S
O337 C324 1.258 . S
O338 Tb320 2.500 . S
O338 C340 1.273 . S
O339 Tb320 2.473 . S
O339 C340 1.257 . S
C340 O338 1.273 . S
C340 O339 1.257 . S
O341 Eu321 2.326 . S
O341 C329 1.242 . S
O342 Tb320 2.324 . S
O342 C329 1.258 . S
O343 Eu321 2.500 . S
O343 C326 1.273 . S
O344 Eu321 2.473 . S
O344 C326 1.257 . S
H345 C331 0.929 . S
H346 C333 0.931 . S
H347 C335 0.929 . S
O348 Tb349 2.292 . S
O348 C351 1.255 . S
Tb349 O348 2.292 . S
Tb349 O365 2.326 . S
Tb349 O367 2.500 . S
Tb349 O368 2.473 . S
Tb349 O371 2.324 1_554 S
Eu350 O354 2.292 . S
Eu350 C355 2.852 1_554 S
Eu350 O366 2.324 . S
Eu350 O370 2.326 1_554 S
Eu350 O372 2.500 1_554 S
Eu350 O373 2.473 . S
C351 O348 1.255 . S
C351 O352 1.247 . S
O352 C351 1.247 . S
C353 O365 1.242 . S
C353 O366 1.258 . S
O354 Eu350 2.292 . S
O354 C356 1.255 . S
C355 Eu350 2.852 1_556 S
C355 C359 1.503 . S
C355 O372 1.273 . S
C355 O373 1.257 1_556 S
C356 O354 1.255 . S
C356 O357 1.247 . S
O357 C356 1.247 . S
C358 O370 1.242 . S
C358 O371 1.258 . S
C359 C355 1.503 . S
C359 C360 1.379 . S
C359 C364 1.392 . S
C360 C359 1.379 . S
C360 C361 1.404 . S
C360 H374 0.929 . S
C361 C360 1.404 . S
C361 C362 1.389 . S
C362 C361 1.389 . S
C362 C363 1.399 . S
C362 H375 0.931 . S
C363 C362 1.399 . S
C363 C364 1.390 . S
C364 C359 1.392 . S
C364 C363 1.390 . S
C364 H376 0.929 . S
O365 Tb349 2.326 . S
O365 C353 1.242 . S
O366 Eu350 2.324 . S
O366 C353 1.258 . S
O367 Tb349 2.500 . S
O367 C369 1.273 . S
O368 Tb349 2.473 . S
O368 C369 1.257 . S
C369 O367 1.273 . S
C369 O368 1.257 . S
O370 Eu350 2.326 1_556 S
O370 C358 1.242 . S
O371 Tb349 2.324 1_556 S
O371 C358 1.258 . S
O372 Eu350 2.500 1_556 S
O372 C355 1.273 . S
O373 Eu350 2.473 . S
O373 C355 1.257 1_554 S
H374 C360 0.929 . S
H375 C362 0.931 . S
H376 C364 0.929 . S
O377 Tb378 2.292 . S
O377 C380 1.255 . S
Tb378 O377 2.292 . S
Tb378 O394 2.326 . S
Tb378 O396 2.500 . S
Tb378 O397 2.473 . S
Tb378 O400 2.324 1_554 S
Eu379 O383 2.292 . S
Eu379 C384 2.852 1_554 S
Eu379 O395 2.324 . S
Eu379 O399 2.326 1_554 S
Eu379 O401 2.500 1_554 S
Eu379 O402 2.473 . S
C380 O377 1.255 . S
C380 O381 1.247 . S
O381 C380 1.247 . S
C382 O394 1.242 . S
C382 O395 1.258 . S
O383 Eu379 2.292 . S
O383 C385 1.255 . S
C384 Eu379 2.852 1_556 S
C384 C388 1.503 . S
C384 O401 1.273 . S
C384 O402 1.257 1_556 S
C385 O383 1.255 . S
C385 O386 1.247 . S
O386 C385 1.247 . S
C387 O399 1.242 . S
C387 O400 1.258 . S
C388 C384 1.503 . S
C388 C389 1.379 . S
C388 C393 1.392 . S
C389 C388 1.379 . S
C389 C390 1.404 . S
C389 H403 0.929 . S
C390 C389 1.404 . S
C390 C391 1.389 . S
C391 C390 1.389 . S
C391 C392 1.399 . S
C391 H404 0.931 . S
C392 C391 1.399 . S
C392 C393 1.390 . S
C393 C388 1.392 . S
C393 C392 1.390 . S
C393 H405 0.929 . S
O394 Tb378 2.326 . S
O394 C382 1.242 . S
O395 Eu379 2.324 . S
O395 C382 1.258 . S
O396 Tb378 2.500 . S
O396 C398 1.273 . S
O397 Tb378 2.473 . S
O397 C398 1.257 . S
C398 O396 1.273 . S
C398 O397 1.257 . S
O399 Eu379 2.326 1_556 S
O399 C387 1.242 . S
O400 Tb378 2.324 1_556 S
O400 C387 1.258 . S
O401 Eu379 2.500 1_556 S
O401 C384 1.273 . S
O402 Eu379 2.473 . S
O402 C384 1.257 1_554 S
H403 C389 0.929 . S
H404 C391 0.931 . S
H405 C393 0.929 . S
O406 Tb407 2.292 . S
O406 C409 1.255 . S
Tb407 O406 2.292 . S
Tb407 O423 2.326 . S
Tb407 O425 2.500 . S
Tb407 O426 2.473 . S
Tb407 O429 2.324 . S
Eu408 O412 2.292 . S
Eu408 C413 2.852 . S
Eu408 O424 2.324 . S
Eu408 O428 2.326 . S
Eu408 O430 2.500 . S
Eu408 O431 2.473 . S
C409 O406 1.255 . S
C409 O410 1.247 . S
O410 C409 1.247 . S
C411 O423 1.242 . S
C411 O424 1.258 . S
O412 Eu408 2.292 . S
O412 C414 1.255 . S
C413 Eu408 2.852 . S
C413 C417 1.503 . S
C413 O430 1.273 . S
C413 O431 1.257 . S
C414 O412 1.255 . S
C414 O415 1.247 . S
O415 C414 1.247 . S
C416 O428 1.242 . S
C416 O429 1.258 . S
C417 C413 1.503 . S
C417 C418 1.379 . S
C417 C422 1.392 . S
C418 C417 1.379 . S
C418 C419 1.404 . S
C418 H432 0.929 . S
C419 C418 1.404 . S
C419 C420 1.389 . S
C420 C419 1.389 . S
C420 C421 1.399 . S
C420 H433 0.931 . S
C421 C420 1.399 . S
C421 C422 1.390 . S
C422 C417 1.392 . S
C422 C421 1.390 . S
C422 H434 0.929 . S
O423 Tb407 2.326 . S
O423 C411 1.242 . S
O424 Eu408 2.324 . S
O424 C411 1.258 . S
O425 Tb407 2.500 . S
O425 C427 1.273 . S
O426 Tb407 2.473 . S
O426 C427 1.257 . S
C427 O425 1.273 . S
C427 O426 1.257 . S
O428 Eu408 2.326 . S
O428 C416 1.242 . S
O429 Tb407 2.324 . S
O429 C416 1.258 . S
O430 Eu408 2.500 . S
O430 C413 1.273 . S
O431 Eu408 2.473 . S
O431 C413 1.257 . S
H432 C418 0.929 . S
H433 C420 0.931 . S
H434 C422 0.929 . S
O435 Tb436 2.292 . S
O435 C438 1.255 . S
Tb436 O435 2.292 . S
Tb436 O452 2.326 . S
Tb436 O454 2.500 . S
Tb436 O455 2.473 . S
Tb436 O458 2.324 . S
Eu437 O441 2.292 . S
Eu437 C442 2.852 . S
Eu437 O453 2.324 . S
Eu437 O457 2.326 . S
Eu437 O459 2.500 . S
Eu437 O460 2.473 . S
C438 O435 1.255 . S
C438 O439 1.247 . S
O439 C438 1.247 . S
C440 O452 1.242 . S
C440 O453 1.258 . S
O441 Eu437 2.292 . S
O441 C443 1.255 . S
C442 Eu437 2.852 . S
C442 C446 1.503 . S
C442 O459 1.273 . S
C442 O460 1.257 . S
C443 O441 1.255 . S
C443 O444 1.247 . S
O444 C443 1.247 . S
C445 O457 1.242 . S
C445 O458 1.258 . S
C446 C442 1.503 . S
C446 C447 1.379 . S
C446 C451 1.392 . S
C447 C446 1.379 . S
C447 C448 1.404 . S
C447 H461 0.929 . S
C448 C447 1.404 . S
C448 C449 1.389 . S
C449 C448 1.389 . S
C449 C450 1.399 . S
C449 H462 0.931 . S
C450 C449 1.399 . S
C450 C451 1.390 . S
C451 C446 1.392 . S
C451 C450 1.390 . S
C451 H463 0.929 . S
O452 Tb436 2.326 . S
O452 C440 1.242 . S
O453 Eu437 2.324 . S
O453 C440 1.258 . S
O454 Tb436 2.500 . S
O454 C456 1.273 . S
O455 Tb436 2.473 . S
O455 C456 1.257 . S
C456 O454 1.273 . S
C456 O455 1.257 . S
O457 Eu437 2.326 . S
O457 C445 1.242 . S
O458 Tb436 2.324 . S
O458 C445 1.258 . S
O459 Eu437 2.500 . S
O459 C442 1.273 . S
O460 Eu437 2.473 . S
O460 C442 1.257 . S
H461 C447 0.929 . S
H462 C449 0.931 . S
H463 C451 0.929 . S
C464 C465 1.387 . S
C464 H468 0.950 . S
C464 C473 1.390 . S
C465 C464 1.387 . S
C465 C467 1.387 . S
H466 C473 0.950 . S
C467 C465 1.387 . S
C467 C469 1.390 . S
C467 H471 0.950 . S
H468 C464 0.950 . S
C469 C467 1.390 . S
C469 C470 1.387 . S
C469 H472 0.950 . S
C470 C469 1.387 . S
C470 C473 1.387 . S
H471 C467 0.950 . S
H472 C469 0.950 . S
C473 C464 1.390 . S
C473 H466 0.950 . S
C473 C470 1.387 . S
C474 C475 1.387 . S
C474 H478 0.950 . S
C474 C483 1.390 . S
C475 C474 1.387 . S
C475 C477 1.387 . S
H476 C483 0.950 . S
C477 C475 1.387 . S
C477 C479 1.390 . S
C477 H481 0.950 . S
H478 C474 0.950 . S
C479 C477 1.390 . S
C479 C480 1.387 . S
C479 H482 0.950 . S
C480 C479 1.387 . S
C480 C483 1.387 . S
H481 C477 0.950 . S
H482 C479 0.950 . S
C483 C474 1.390 . S
C483 H476 0.950 . S
C483 C480 1.387 . S
C484 C485 1.387 . S
C484 H488 0.950 . S
C484 C493 1.390 . S
C485 C484 1.387 . S
C485 C487 1.387 . S
H486 C493 0.950 . S
C487 C485 1.387 . S
C487 C489 1.390 . S
C487 H491 0.950 . S
H488 C484 0.950 . S
C489 C487 1.390 . S
C489 C490 1.387 . S
C489 H492 0.950 . S
C490 C489 1.387 . S
C490 C493 1.387 . S
H491 C487 0.950 . S
H492 C489 0.950 . S
C493 C484 1.390 . S
C493 H486 0.950 . S
C493 C490 1.387 . S
C494 C495 1.387 . S
C494 H498 0.950 . S
C494 C503 1.390 . S
C495 C494 1.387 . S
C495 C497 1.387 . S
H496 C503 0.950 . S
C497 C495 1.387 . S
C497 C499 1.390 . S
C497 H501 0.950 . S
H498 C494 0.950 . S
C499 C497 1.390 . S
C499 C500 1.387 . S
C499 H502 0.950 . S
C500 C499 1.387 . S
C500 C503 1.387 . S
H501 C497 0.950 . S
H502 C499 0.950 . S
C503 C494 1.390 . S
C503 H496 0.950 . S
C503 C500 1.387 . S
C504 C505 1.387 . S
C504 H508 0.950 . S
C504 C513 1.390 . S
C505 C504 1.387 . S
C505 C507 1.387 . S
H506 C513 0.950 . S
C507 C505 1.387 . S
C507 C509 1.390 . S
C507 H511 0.950 . S
H508 C504 0.950 . S
C509 C507 1.390 . S
C509 C510 1.387 . S
C509 H512 0.950 . S
C510 C509 1.387 . S
C510 C513 1.387 . S
H511 C507 0.950 . S
H512 C509 0.950 . S
C513 C504 1.390 . S
C513 H506 0.950 . S
C513 C510 1.387 . S
C514 C515 1.387 . S
C514 H518 0.950 . S
C514 C523 1.390 . S
C515 C514 1.387 . S
C515 C517 1.387 . S
H516 C523 0.950 . S
C517 C515 1.387 . S
C517 C519 1.390 . S
C517 H521 0.950 . S
H518 C514 0.950 . S
C519 C517 1.390 . S
C519 C520 1.387 . S
C519 H522 0.950 . S
C520 C519 1.387 . S
C520 C523 1.387 . S
H521 C517 0.950 . S
H522 C519 0.950 . S
C523 C514 1.390 . S
C523 H516 0.950 . S
C523 C520 1.387 . S
C524 C525 1.387 . S
C524 H528 0.950 . S
C524 C533 1.390 . S
C525 C524 1.387 . S
C525 C527 1.387 . S
H526 C533 0.950 . S
C527 C525 1.387 . S
C527 C529 1.390 . S
C527 H531 0.950 . S
H528 C524 0.950 . S
C529 C527 1.390 . S
C529 C530 1.387 . S
C529 H532 0.950 . S
C530 C529 1.387 . S
C530 C533 1.387 . S
H531 C527 0.950 . S
H532 C529 0.950 . S
C533 C524 1.390 . S
C533 H526 0.950 . S
C533 C530 1.387 . S
C534 C535 1.387 . S
C534 H538 0.950 . S
C534 C543 1.390 . S
C535 C534 1.387 . S
C535 C537 1.387 . S
H536 C543 0.950 . S
C537 C535 1.387 . S
C537 C539 1.390 . S
C537 H541 0.950 . S
H538 C534 0.950 . S
C539 C537 1.390 . S
C539 C540 1.387 . S
C539 H542 0.950 . S
C540 C539 1.387 . S
C540 C543 1.387 . S
H541 C537 0.950 . S
H542 C539 0.950 . S
C543 C534 1.390 . S
C543 H536 0.950 . S
C543 C540 1.387 . S
C544 C545 1.387 . S
C544 H548 0.950 . S
C544 C553 1.390 . S
C545 C544 1.387 . S
C545 C547 1.387 . S
H546 C553 0.950 . S
C547 C545 1.387 . S
C547 C549 1.390 . S
C547 H551 0.950 . S
H548 C544 0.950 . S
C549 C547 1.390 . S
C549 C550 1.387 . S
C549 H552 0.950 . S
C550 C549 1.387 . S
C550 C553 1.387 . S
H551 C547 0.950 . S
H552 C549 0.950 . S
C553 C544 1.390 . S
C553 H546 0.950 . S
C553 C550 1.387 . S
C554 C555 1.387 . S
C554 H558 0.950 . S
C554 C563 1.390 . S
C555 C554 1.387 . S
C555 C557 1.387 . S
H556 C563 0.950 . S
C557 C555 1.387 . S
C557 C559 1.390 . S
C557 H561 0.950 . S
H558 C554 0.950 . S
C559 C557 1.390 . S
C559 C560 1.387 . S
C559 H562 0.950 . S
C560 C559 1.387 . S
C560 C563 1.387 . S
H561 C557 0.950 . S
H562 C559 0.950 . S
C563 C554 1.390 . S
C563 H556 0.950 . S
C563 C560 1.387 . S
C564 C565 1.387 . S
C564 H568 0.950 . S
C564 C573 1.390 . S
C565 C564 1.387 . S
C565 C567 1.387 . S
H566 C573 0.950 . S
C567 C565 1.387 . S
C567 C569 1.390 . S
C567 H571 0.950 . S
H568 C564 0.950 . S
C569 C567 1.390 . S
C569 C570 1.387 . S
C569 H572 0.950 . S
C570 C569 1.387 . S
C570 C573 1.387 . S
H571 C567 0.950 . S
H572 C569 0.950 . S
C573 C564 1.390 . S
C573 H566 0.950 . S
C573 C570 1.387 . S
C574 C575 1.387 . S
C574 H578 0.950 . S
C574 C583 1.390 . S
C575 C574 1.387 . S
C575 C577 1.387 . S
H576 C583 0.950 . S
C577 C575 1.387 . S
C577 C579 1.390 . S
C577 H581 0.950 . S
H578 C574 0.950 . S
C579 C577 1.390 . S
C579 C580 1.387 . S
C579 H582 0.950 . S
C580 C579 1.387 . S
C580 C583 1.387 . S
H581 C577 0.950 . S
H582 C579 0.950 . S
C583 C574 1.390 . S
C583 H576 0.950 . S
C583 C580 1.387 . S
C584 C585 1.387 . S
C584 H588 0.950 . S
C584 C593 1.390 . S
C585 C584 1.387 . S
C585 C587 1.387 . S
H586 C593 0.950 . S
C587 C585 1.387 . S
C587 C589 1.390 . S
C587 H591 0.950 . S
H588 C584 0.950 . S
C589 C587 1.390 . S
C589 C590 1.387 . S
C589 H592 0.950 . S
C590 C589 1.387 . S
C590 C593 1.387 . S
H591 C587 0.950 . S
H592 C589 0.950 . S
C593 C584 1.390 . S
C593 H586 0.950 . S
C593 C590 1.387 . S
C594 C595 1.387 . S
C594 H598 0.950 . S
C594 C603 1.390 . S
C595 C594 1.387 . S
C595 C597 1.387 . S
H596 C603 0.950 . S
C597 C595 1.387 . S
C597 C599 1.390 . S
C597 H601 0.950 . S
H598 C594 0.950 . S
C599 C597 1.390 . S
C599 C600 1.387 . S
C599 H602 0.950 . S
C600 C599 1.387 . S
C600 C603 1.387 . S
H601 C597 0.950 . S
H602 C599 0.950 . S
C603 C594 1.390 . S
C603 H596 0.950 . S
C603 C600 1.387 . S
C604 C605 1.387 . S
C604 H608 0.950 . S
C604 C613 1.390 . S
C605 C604 1.387 . S
C605 C607 1.387 . S
H606 C613 0.950 . S
C607 C605 1.387 . S
C607 C609 1.390 . S
C607 H611 0.950 . S
H608 C604 0.950 . S
C609 C607 1.390 . S
C609 C610 1.387 . S
C609 H612 0.950 . S
C610 C609 1.387 . S
C610 C613 1.387 . S
H611 C607 0.950 . S
H612 C609 0.950 . S
C613 C604 1.390 . S
C613 H606 0.950 . S
C613 C610 1.387 . S
C614 C615 1.387 . S
C614 H618 0.950 . S
C614 C623 1.390 . S
C615 C614 1.387 . S
C615 C617 1.387 . S
H616 C623 0.950 . S
C617 C615 1.387 . S
C617 C619 1.390 . S
C617 H621 0.950 . S
H618 C614 0.950 . S
C619 C617 1.390 . S
C619 C620 1.387 . S
C619 H622 0.950 . S
C620 C619 1.387 . S
C620 C623 1.387 . S
H621 C617 0.950 . S
H622 C619 0.950 . S
C623 C614 1.390 . S
C623 H616 0.950 . S
C623 C620 1.387 . S
C624 C625 1.387 . S
C624 H628 0.950 . S
C624 C633 1.390 . S
C625 C624 1.387 . S
C625 C627 1.387 . S
H626 C633 0.950 . S
C627 C625 1.387 . S
C627 C629 1.390 . S
C627 H631 0.950 . S
H628 C624 0.950 . S
C629 C627 1.390 . S
C629 C630 1.387 . S
C629 H632 0.950 . S
C630 C629 1.387 . S
C630 C633 1.387 . S
H631 C627 0.950 . S
H632 C629 0.950 . S
C633 C624 1.390 . S
C633 H626 0.950 . S
C633 C630 1.387 . S
C634 C635 1.387 . S
C634 H638 0.950 . S
C634 C643 1.390 . S
C635 C634 1.387 . S
C635 C637 1.387 . S
H636 C643 0.950 . S
C637 C635 1.387 . S
C637 C639 1.390 . S
C637 H641 0.950 . S
H638 C634 0.950 . S
C639 C637 1.390 . S
C639 C640 1.387 . S
C639 H642 0.950 . S
C640 C639 1.387 . S
C640 C643 1.387 . S
H641 C637 0.950 . S
H642 C639 0.950 . S
C643 C634 1.390 . S
C643 H636 0.950 . S
C643 C640 1.387 . S
C644 C645 1.387 . S
C644 H648 0.950 . S
C644 C653 1.390 1_655 S
C645 C644 1.387 . S
C645 C647 1.387 . S
H646 C653 0.950 . S
C647 C645 1.387 . S
C647 C649 1.390 1_655 S
C647 H651 0.950 . S
H648 C644 0.950 . S
C649 C647 1.390 1_455 S
C649 C650 1.387 . S
C649 H652 0.950 . S
C650 C649 1.387 . S
C650 C653 1.387 . S
H651 C647 0.950 . S
H652 C649 0.950 . S
C653 C644 1.390 1_455 S
C653 H646 0.950 . S
C653 C650 1.387 . S
C654 C655 1.387 . S
C654 H658 0.950 . S
C654 C663 1.390 . S
C655 C654 1.387 . S
C655 C657 1.387 . S
H656 C663 0.950 . S
C657 C655 1.387 . S
C657 C659 1.390 . S
C657 H661 0.950 . S
H658 C654 0.950 . S
C659 C657 1.390 . S
C659 C660 1.387 . S
C659 H662 0.950 . S
C660 C659 1.387 . S
C660 C663 1.387 . S
H661 C657 0.950 . S
H662 C659 0.950 . S
C663 C654 1.390 . S
C663 H656 0.950 . S
C663 C660 1.387 . S
C664 C665 1.387 . S
C664 H668 0.950 . S
C664 C673 1.390 . S
C665 C664 1.387 . S
C665 C667 1.387 . S
H666 C673 0.950 . S
C667 C665 1.387 . S
C667 C669 1.390 . S
C667 H671 0.950 . S
H668 C664 0.950 . S
C669 C667 1.390 . S
C669 C670 1.387 . S
C669 H672 0.950 . S
C670 C669 1.387 . S
C670 C673 1.387 . S
H671 C667 0.950 . S
H672 C669 0.950 . S
C673 C664 1.390 . S
C673 H666 0.950 . S
C673 C670 1.387 . S
C674 C675 1.387 1_545 S
C674 H678 0.950 . S
C674 C683 1.390 . S
C675 C674 1.387 1_565 S
C675 C677 1.387 1_655 S
H676 C683 0.950 . S
C677 C675 1.387 1_455 S
C677 C679 1.390 . S
C677 H681 0.950 . S
H678 C674 0.950 . S
C679 C677 1.390 . S
C679 C680 1.387 1_565 S
C679 H682 0.950 . S
C680 C679 1.387 1_545 S
C680 C683 1.387 1_455 S
H681 C677 0.950 . S
H682 C679 0.950 . S
C683 C674 1.390 . S
C683 H676 0.950 . S
C683 C680 1.387 1_655 S
C684 C685 1.387 . S
C684 H688 0.950 . S
C684 C693 1.390 . S
C685 C684 1.387 . S
C685 C687 1.387 . S
H686 C693 0.950 . S
C687 C685 1.387 . S
C687 C689 1.390 . S
C687 H691 0.950 . S
H688 C684 0.950 . S
C689 C687 1.390 . S
C689 C690 1.387 . S
C689 H692 0.950 . S
C690 C689 1.387 . S
C690 C693 1.387 . S
H691 C687 0.950 . S
H692 C689 0.950 . S
C693 C684 1.390 . S
C693 H686 0.950 . S
C693 C690 1.387 . S
C694 C695 1.387 . S
C694 H698 0.950 . S
C694 C703 1.390 1_565 S
C695 C694 1.387 . S
C695 C697 1.387 . S
H696 C703 0.950 . S
C697 C695 1.387 . S
C697 C699 1.390 1_565 S
C697 H701 0.950 . S
H698 C694 0.950 . S
C699 C697 1.390 1_545 S
C699 C700 1.387 . S
C699 H702 0.950 . S
C700 C699 1.387 . S
C700 C703 1.387 . S
H701 C697 0.950 . S
H702 C699 0.950 . S
C703 C694 1.390 1_545 S
C703 H696 0.950 . S
C703 C700 1.387 . S
C704 C705 1.387 . S
C704 H708 0.950 . S
C704 C713 1.390 . S
C705 C704 1.387 . S
C705 C707 1.387 1_545 S
H706 C713 0.950 . S
C707 C705 1.387 1_565 S
C707 C709 1.390 1_565 S
C707 H711 0.950 . S
H708 C704 0.950 . S
C709 C707 1.390 1_545 S
C709 C710 1.387 . S
C709 H712 0.950 1_545 S
C710 C709 1.387 . S
C710 C713 1.387 . S
H711 C707 0.950 . S
H712 C709 0.950 1_565 S
C713 C704 1.390 . S
C713 H706 0.950 . S
C713 C710 1.387 . S
C714 C715 1.387 . S
C714 H718 0.950 1_565 S
C714 C723 1.390 1_565 S
C715 C714 1.387 . S
C715 C717 1.387 . S
H716 C723 0.950 . S
C717 C715 1.387 . S
C717 C719 1.390 . S
C717 H721 0.950 . S
H718 C714 0.950 1_545 S
C719 C717 1.390 . S
C719 C720 1.387 . S
C719 H722 0.950 . S
C720 C719 1.387 . S
C720 C723 1.387 1_565 S
H721 C717 0.950 . S
H722 C719 0.950 . S
C723 C714 1.390 1_545 S
C723 H716 0.950 . S
C723 C720 1.387 1_545 S
C724 C725 1.387 . S
C724 H728 0.950 . S
C724 C733 1.390 . S
C725 C724 1.387 . S
C725 C727 1.387 . S
H726 C733 0.950 . S
C727 C725 1.387 . S
C727 C729 1.390 . S
C727 H731 0.950 . S
H728 C724 0.950 . S
C729 C727 1.390 . S
C729 C730 1.387 . S
C729 H732 0.950 . S
C730 C729 1.387 . S
C730 C733 1.387 . S
H731 C727 0.950 . S
H732 C729 0.950 . S
C733 C724 1.390 . S
C733 H726 0.950 . S
C733 C730 1.387 . S
C734 C735 1.387 . S
C734 H738 0.950 . S
C734 C743 1.390 . S
C735 C734 1.387 . S
C735 C737 1.387 . S
H736 C743 0.950 . S
C737 C735 1.387 . S
C737 C739 1.390 . S
C737 H741 0.950 . S
H738 C734 0.950 . S
C739 C737 1.390 . S
C739 C740 1.387 . S
C739 H742 0.950 . S
C740 C739 1.387 . S
C740 C743 1.387 . S
H741 C737 0.950 . S
H742 C739 0.950 . S
C743 C734 1.390 . S
C743 H736 0.950 . S
C743 C740 1.387 . S
C744 C745 1.387 . S
C744 H748 0.950 . S
C744 C753 1.390 . S
C745 C744 1.387 . S
C745 C747 1.387 . S
H746 C753 0.950 . S
C747 C745 1.387 . S
C747 C749 1.390 . S
C747 H751 0.950 . S
H748 C744 0.950 . S
C749 C747 1.390 . S
C749 C750 1.387 . S
C749 H752 0.950 . S
C750 C749 1.387 . S
C750 C753 1.387 . S
H751 C747 0.950 . S
H752 C749 0.950 . S
C753 C744 1.390 . S
C753 H746 0.950 . S
C753 C750 1.387 . S
C754 C755 1.387 . S
C754 H758 0.950 . S
C754 C763 1.390 . S
C755 C754 1.387 . S
C755 C757 1.387 . S
H756 C763 0.950 . S
C757 C755 1.387 . S
C757 C759 1.390 . S
C757 H761 0.950 . S
H758 C754 0.950 . S
C759 C757 1.390 . S
C759 C760 1.387 . S
C759 H762 0.950 . S
C760 C759 1.387 . S
C760 C763 1.387 . S
H761 C757 0.950 . S
H762 C759 0.950 . S
C763 C754 1.390 . S
C763 H756 0.950 . S
C763 C760 1.387 . S
C764 C765 1.387 . S
C764 H768 0.950 . S
C764 C773 1.390 1_554 S
C765 C764 1.387 . S
C765 C767 1.387 . S
H766 C773 0.950 . S
C767 C765 1.387 . S
C767 C769 1.390 1_554 S
C767 H771 0.950 . S
H768 C764 0.950 . S
C769 C767 1.390 1_556 S
C769 C770 1.387 . S
C769 H772 0.950 . S
C770 C769 1.387 . S
C770 C773 1.387 . S
H771 C767 0.950 . S
H772 C769 0.950 . S
C773 C764 1.390 1_556 S
C773 H766 0.950 . S
C773 C770 1.387 . S
C774 C775 1.387 . S
C774 H778 0.950 . S
C774 C783 1.390 1_554 S
C775 C774 1.387 . S
C775 C777 1.387 . S
H776 C783 0.950 . S
C777 C775 1.387 . S
C777 C779 1.390 1_554 S
C777 H781 0.950 . S
H778 C774 0.950 . S
C779 C777 1.390 1_556 S
C779 C780 1.387 . S
C779 H782 0.950 . S
C780 C779 1.387 . S
C780 C783 1.387 . S
H781 C777 0.950 . S
H782 C779 0.950 . S
C783 C774 1.390 1_556 S
C783 H776 0.950 . S
C783 C780 1.387 . S
C784 C785 1.387 1_565 S
C784 H788 0.950 . S
C784 C793 1.390 1_565 S
C785 C784 1.387 1_545 S
C785 C787 1.387 . S
H786 C793 0.950 1_565 S
C787 C785 1.387 . S
C787 C789 1.390 . S
C787 H791 0.950 . S
H788 C784 0.950 . S
C789 C787 1.390 . S
C789 C790 1.387 . S
C789 H792 0.950 . S
C790 C789 1.387 . S
C790 C793 1.387 . S
H791 C787 0.950 . S
H792 C789 0.950 . S
C793 C784 1.390 1_545 S
C793 H786 0.950 1_545 S
C793 C790 1.387 . S
C794 C795 1.387 1_545 S
C794 H798 0.950 . S
C794 C803 1.390 1_545 S
C795 C794 1.387 1_565 S
C795 C797 1.387 . S
H796 C803 0.950 1_545 S
C797 C795 1.387 . S
C797 C799 1.390 . S
C797 H801 0.950 . S
H798 C794 0.950 . S
C799 C797 1.390 . S
C799 C800 1.387 . S
C799 H802 0.950 . S
C800 C799 1.387 . S
C800 C803 1.387 . S
H801 C797 0.950 . S
H802 C799 0.950 . S
C803 C794 1.390 1_565 S
C803 H796 0.950 1_565 S
C803 C800 1.387 . S
C804 C805 1.387 . S
C804 H808 0.950 . S
C804 C813 1.390 1_554 S
C805 C804 1.387 . S
C805 C807 1.387 . S
H806 C813 0.950 . S
C807 C805 1.387 . S
C807 C809 1.390 1_554 S
C807 H811 0.950 . S
H808 C804 0.950 . S
C809 C807 1.390 1_556 S
C809 C810 1.387 . S
C809 H812 0.950 . S
C810 C809 1.387 . S
C810 C813 1.387 . S
H811 C807 0.950 . S
H812 C809 0.950 . S
C813 C804 1.390 1_556 S
C813 H806 0.950 . S
C813 C810 1.387 . S
C814 C815 1.387 . S
C814 H818 0.950 . S
C814 C823 1.390 1_554 S
C815 C814 1.387 . S
C815 C817 1.387 . S
H816 C823 0.950 . S
C817 C815 1.387 . S
C817 C819 1.390 1_554 S
C817 H821 0.950 . S
H818 C814 0.950 . S
C819 C817 1.390 1_556 S
C819 C820 1.387 . S
C819 H822 0.950 . S
C820 C819 1.387 . S
C820 C823 1.387 . S
H821 C817 0.950 . S
H822 C819 0.950 . S
C823 C814 1.390 1_556 S
C823 H816 0.950 . S
C823 C820 1.387 . S
C824 C825 1.387 . S
C824 H828 0.950 . S
C824 C833 1.390 . S
C825 C824 1.387 . S
C825 C827 1.387 . S
H826 C833 0.950 . S
C827 C825 1.387 . S
C827 C829 1.390 . S
C827 H831 0.950 . S
H828 C824 0.950 . S
C829 C827 1.390 . S
C829 C830 1.387 . S
C829 H832 0.950 . S
C830 C829 1.387 . S
C830 C833 1.387 . S
H831 C827 0.950 . S
H832 C829 0.950 . S
C833 C824 1.390 . S
C833 H826 0.950 . S
C833 C830 1.387 . S
C834 C835 1.387 . S
C834 H838 0.950 . S
C834 C843 1.390 . S
C835 C834 1.387 . S
C835 C837 1.387 . S
H836 C843 0.950 . S
C837 C835 1.387 . S
C837 C839 1.390 . S
C837 H841 0.950 . S
H838 C834 0.950 . S
C839 C837 1.390 . S
C839 C840 1.387 . S
C839 H842 0.950 . S
C840 C839 1.387 . S
C840 C843 1.387 . S
H841 C837 0.950 . S
H842 C839 0.950 . S
C843 C834 1.390 . S
C843 H836 0.950 . S
C843 C840 1.387 . S
C844 C845 1.387 . S
C844 H848 0.950 . S
C844 C853 1.390 . S
C845 C844 1.387 . S
C845 C847 1.387 . S
H846 C853 0.950 . S
C847 C845 1.387 . S
C847 C849 1.390 . S
C847 H851 0.950 . S
H848 C844 0.950 . S
C849 C847 1.390 . S
C849 C850 1.387 . S
C849 H852 0.950 . S
C850 C849 1.387 . S
C850 C853 1.387 . S
H851 C847 0.950 . S
H852 C849 0.950 . S
C853 C844 1.390 . S
C853 H846 0.950 . S
C853 C850 1.387 . S
C854 C855 1.387 . S
C854 H858 0.950 . S
C854 C863 1.390 . S
C855 C854 1.387 . S
C855 C857 1.387 . S
H856 C863 0.950 . S
C857 C855 1.387 . S
C857 C859 1.390 . S
C857 H861 0.950 . S
H858 C854 0.950 . S
C859 C857 1.390 . S
C859 C860 1.387 . S
C859 H862 0.950 . S
C860 C859 1.387 . S
C860 C863 1.387 . S
H861 C857 0.950 . S
H862 C859 0.950 . S
C863 C854 1.390 . S
C863 H856 0.950 . S
C863 C860 1.387 . S
C864 C865 1.387 . S
C864 H868 0.950 . S
C864 C873 1.390 . S
C865 C864 1.387 . S
C865 C867 1.387 . S
H866 C873 0.950 . S
C867 C865 1.387 . S
C867 C869 1.390 . S
C867 H871 0.950 . S
H868 C864 0.950 . S
C869 C867 1.390 . S
C869 C870 1.387 . S
C869 H872 0.950 . S
C870 C869 1.387 . S
C870 C873 1.387 . S
H871 C867 0.950 . S
H872 C869 0.950 . S
C873 C864 1.390 . S
C873 H866 0.950 . S
C873 C870 1.387 . S
C874 C875 1.387 . S
C874 H878 0.950 . S
C874 C883 1.390 . S
C875 C874 1.387 . S
C875 C877 1.387 . S
H876 C883 0.950 . S
C877 C875 1.387 . S
C877 C879 1.390 . S
C877 H881 0.950 . S
H878 C874 0.950 . S
C879 C877 1.390 . S
C879 C880 1.387 . S
C879 H882 0.950 . S
C880 C879 1.387 . S
C880 C883 1.387 . S
H881 C877 0.950 . S
H882 C879 0.950 . S
C883 C874 1.390 . S
C883 H876 0.950 . S
C883 C880 1.387 . S
C884 C885 1.387 . S
C884 H888 0.950 . S
C884 C893 1.390 . S
C885 C884 1.387 . S
C885 C887 1.387 . S
H886 C893 0.950 . S
C887 C885 1.387 . S
C887 C889 1.390 . S
C887 H891 0.950 . S
H888 C884 0.950 . S
C889 C887 1.390 . S
C889 C890 1.387 . S
C889 H892 0.950 . S
C890 C889 1.387 . S
C890 C893 1.387 . S
H891 C887 0.950 . S
H892 C889 0.950 . S
C893 C884 1.390 . S
C893 H886 0.950 . S
C893 C890 1.387 . S
C894 C895 1.387 . S
C894 H898 0.950 . S
C894 C903 1.390 . S
C895 C894 1.387 . S
C895 C897 1.387 . S
H896 C903 0.950 . S
C897 C895 1.387 . S
C897 C899 1.390 . S
C897 H901 0.950 . S
H898 C894 0.950 . S
C899 C897 1.390 . S
C899 C900 1.387 . S
C899 H902 0.950 . S
C900 C899 1.387 . S
C900 C903 1.387 . S
H901 C897 0.950 . S
H902 C899 0.950 . S
C903 C894 1.390 . S
C903 H896 0.950 . S
C903 C900 1.387 . S
C904 C905 1.387 . S
C904 H908 0.950 . S
C904 C913 1.390 . S
C905 C904 1.387 . S
C905 C907 1.387 . S
H906 C913 0.950 . S
C907 C905 1.387 . S
C907 C909 1.390 . S
C907 H911 0.950 . S
H908 C904 0.950 . S
C909 C907 1.390 . S
C909 C910 1.387 . S
C909 H912 0.950 . S
C910 C909 1.387 . S
C910 C913 1.387 . S
H911 C907 0.950 . S
H912 C909 0.950 . S
C913 C904 1.390 . S
C913 H906 0.950 . S
C913 C910 1.387 . S
C914 C915 1.387 . S
C914 H918 0.950 . S
C914 C923 1.390 . S
C915 C914 1.387 . S
C915 C917 1.387 . S
H916 C923 0.950 . S
C917 C915 1.387 . S
C917 C919 1.390 . S
C917 H921 0.950 . S
H918 C914 0.950 . S
C919 C917 1.390 . S
C919 C920 1.387 . S
C919 H922 0.950 . S
C920 C919 1.387 . S
C920 C923 1.387 . S
H921 C917 0.950 . S
H922 C919 0.950 . S
C923 C914 1.390 . S
C923 H916 0.950 . S
C923 C920 1.387 . S
C924 C925 1.387 . S
C924 H928 0.950 . S
C924 C933 1.390 . S
C925 C924 1.387 . S
C925 C927 1.387 . S
H926 C933 0.950 . S
C927 C925 1.387 . S
C927 C929 1.390 . S
C927 H931 0.950 . S
H928 C924 0.950 . S
C929 C927 1.390 . S
C929 C930 1.387 . S
C929 H932 0.950 . S
C930 C929 1.387 . S
C930 C933 1.387 . S
H931 C927 0.950 . S
H932 C929 0.950 . S
C933 C924 1.390 . S
C933 H926 0.950 . S
C933 C930 1.387 . S
C934 C935 1.387 . S
C934 H938 0.950 . S
C934 C943 1.390 . S
C935 C934 1.387 . S
C935 C937 1.387 . S
H936 C943 0.950 . S
C937 C935 1.387 . S
C937 C939 1.390 . S
C937 H941 0.950 . S
H938 C934 0.950 . S
C939 C937 1.390 . S
C939 C940 1.387 . S
C939 H942 0.950 . S
C940 C939 1.387 . S
C940 C943 1.387 . S
H941 C937 0.950 . S
H942 C939 0.950 . S
C943 C934 1.390 . S
C943 H936 0.950 . S
C943 C940 1.387 . S
C944 C945 1.387 . S
C944 H948 0.950 . S
C944 C953 1.390 . S
C945 C944 1.387 . S
C945 C947 1.387 . S
H946 C953 0.950 . S
C947 C945 1.387 . S
C947 C949 1.390 . S
C947 H951 0.950 . S
H948 C944 0.950 . S
C949 C947 1.390 . S
C949 C950 1.387 . S
C949 H952 0.950 . S
C950 C949 1.387 . S
C950 C953 1.387 . S
H951 C947 0.950 . S
H952 C949 0.950 . S
C953 C944 1.390 . S
C953 H946 0.950 . S
C953 C950 1.387 . S
C954 C955 1.387 . S
C954 H958 0.950 . S
C954 C963 1.390 . S
C955 C954 1.387 . S
C955 C957 1.387 . S
H956 C963 0.950 . S
C957 C955 1.387 . S
C957 C959 1.390 . S
C957 H961 0.950 . S
H958 C954 0.950 . S
C959 C957 1.390 . S
C959 C960 1.387 . S
C959 H962 0.950 . S
C960 C959 1.387 . S
C960 C963 1.387 . S
H961 C957 0.950 . S
H962 C959 0.950 . S
C963 C954 1.390 . S
C963 H956 0.950 . S
C963 C960 1.387 . S
C964 C965 1.387 . S
C964 H968 0.950 . S
C964 C973 1.390 . S
C965 C964 1.387 . S
C965 C967 1.387 . S
H966 C973 0.950 . S
C967 C965 1.387 . S
C967 C969 1.390 . S
C967 H971 0.950 . S
H968 C964 0.950 . S
C969 C967 1.390 . S
C969 C970 1.387 . S
C969 H972 0.950 . S
C970 C969 1.387 . S
C970 C973 1.387 . S
H971 C967 0.950 . S
H972 C969 0.950 . S
C973 C964 1.390 . S
C973 H966 0.950 . S
C973 C970 1.387 . S
C974 C975 1.387 . S
C974 H978 0.950 . S
C974 C983 1.390 . S
C975 C974 1.387 . S
C975 C977 1.387 . S
H976 C983 0.950 . S
C977 C975 1.387 . S
C977 C979 1.390 . S
C977 H981 0.950 . S
H978 C974 0.950 . S
C979 C977 1.390 . S
C979 C980 1.387 . S
C979 H982 0.950 . S
C980 C979 1.387 . S
C980 C983 1.387 . S
H981 C977 0.950 . S
H982 C979 0.950 . S
C983 C974 1.390 . S
C983 H976 0.950 . S
C983 C980 1.387 . S
C984 C985 1.387 . S
C984 H988 0.950 . S
C984 C993 1.390 . S
C985 C984 1.387 . S
C985 C987 1.387 . S
H986 C993 0.950 . S
C987 C985 1.387 . S
C987 C989 1.390 . S
C987 H991 0.950 . S
H988 C984 0.950 . S
C989 C987 1.390 . S
C989 C990 1.387 . S
C989 H992 0.950 . S
C990 C989 1.387 . S
C990 C993 1.387 . S
H991 C987 0.950 . S
H992 C989 0.950 . S
C993 C984 1.390 . S
C993 H986 0.950 . S
C993 C990 1.387 . S
C994 C995 1.387 . S
C994 H998 0.950 . S
C994 C1003 1.390 . S
C995 C994 1.387 . S
C995 C997 1.387 . S
H996 C1003 0.950 . S
C997 C995 1.387 . S
C997 C999 1.390 . S
C997 H1001 0.950 . S
H998 C994 0.950 . S
C999 C997 1.390 . S
C999 C1000 1.387 . S
C999 H1002 0.950 . S
C1000 C999 1.387 . S
C1000 C1003 1.387 . S
H1001 C997 0.950 . S
H1002 C999 0.950 . S
C1003 C994 1.390 . S
C1003 H996 0.950 . S
C1003 C1000 1.387 . S
C1004 C1005 1.387 . S
C1004 H1008 0.950 . S
C1004 C1013 1.390 . S
C1005 C1004 1.387 . S
C1005 C1007 1.387 . S
H1006 C1013 0.950 . S
C1007 C1005 1.387 . S
C1007 C1009 1.390 . S
C1007 H1011 0.950 . S
H1008 C1004 0.950 . S
C1009 C1007 1.390 . S
C1009 C1010 1.387 . S
C1009 H1012 0.950 . S
C1010 C1009 1.387 . S
C1010 C1013 1.387 . S
H1011 C1007 0.950 . S
H1012 C1009 0.950 . S
C1013 C1004 1.390 . S
C1013 H1006 0.950 . S
C1013 C1010 1.387 . S
C1014 C1015 1.387 . S
C1014 H1018 0.950 . S
C1014 C1023 1.390 . S
C1015 C1014 1.387 . S
C1015 C1017 1.387 . S
H1016 C1023 0.950 . S
C1017 C1015 1.387 . S
C1017 C1019 1.390 . S
C1017 H1021 0.950 . S
H1018 C1014 0.950 . S
C1019 C1017 1.390 . S
C1019 C1020 1.387 . S
C1019 H1022 0.950 . S
C1020 C1019 1.387 . S
C1020 C1023 1.387 . S
H1021 C1017 0.950 . S
H1022 C1019 0.950 . S
C1023 C1014 1.390 . S
C1023 H1016 0.950 . S
C1023 C1020 1.387 . S
C465 C416 2.278 . S
C470 C3 2.338 . S
C475 C445 2.280 . S
C480 C32 2.339 . S
C485 C61 2.340 . S
C490 C242 2.280 . S
C495 C271 2.278 . S
C500 C90 2.339 . S
C505 C119 2.339 . S
C510 C300 2.278 . S
C515 C329 2.279 . S
C520 C148 2.340 . S
C525 C358 2.279 . S
C530 C177 2.340 . S
C535 C206 2.339 . S
C540 C387 2.279 . S
C545 C235 2.340 . S
C550 C184 2.279 . S
C555 C264 2.340 . S
C560 C213 2.279 . S
C565 C293 2.340 . S
C570 C10 2.281 . S
C575 C322 2.339 . S
C580 C39 2.281 . S
C585 C351 2.340 . S
C590 C68 2.279 . S
C595 C97 2.280 . S
C600 C380 2.339 . S
C605 C126 2.278 . S
C610 C409 2.340 . S
C615 C155 2.280 . S
C620 C438 2.340 . S
C625 C385 0.930 . S
C630 C8 0.926 . S
C635 C356 0.930 . S
C640 C37 0.926 . S
C645 C66 0.927 . S
C650 C95 0.927 . S
C655 C124 0.929 . S
C660 C269 0.929 . S
C665 C240 0.929 . S
C670 C153 0.929 . S
C675 C182 0.930 . S
C680 C211 0.926 . S
C685 C327 0.927 . S
C690 C298 0.927 . S
C695 C414 0.929 . S
C700 C443 0.929 . S
C705 C274 2.135 1_545 S
C710 C5 2.404 . S
C715 C34 2.404 . S
C720 C245 2.131 1_565 S
C725 C63 2.404 . S
C730 C216 2.134 . S
C735 C187 2.134 . S
C740 C92 2.404 . S
C745 C121 2.404 . S
C750 C390 2.135 . S
C755 C361 2.136 . S
C760 C150 2.407 . S
C765 C100 2.135 . S
C770 C179 2.405 . S
C775 C71 2.134 . S
C780 C208 2.404 . S
C785 C42 2.135 1_545 S
C790 C237 2.407 . S
C795 C13 2.132 1_565 S
C800 C266 2.406 . S
C805 C448 2.135 . S
C810 C295 2.405 . S
C815 C419 2.135 . S
C820 C324 2.405 . S
C825 C353 2.404 . S
C830 C158 2.131 . S
C835 C129 2.133 . S
C840 C382 2.402 . S
C845 C411 2.405 . S
C850 C332 2.136 . S
C855 C303 2.135 . S
C860 C440 2.405 . S
C865 C224 1.391 . S
C870 C15 1.528 . S
C875 C44 1.533 . S
C880 C195 1.397 . S
C885 C73 1.533 . S
C890 C398 1.397 . S
C895 C102 1.532 . S
C900 C369 1.396 . S
C905 C131 1.530 . S
C910 C108 1.394 . S
C915 C79 1.392 . S
C920 C160 1.529 . S
C925 C189 1.528 . S
C930 C282 1.391 . S
C935 C253 1.394 . S
C940 C218 1.530 . S
C945 C247 1.533 . S
C950 C456 1.397 . S
C955 C276 1.531 . S
C960 C427 1.395 . S
C965 C305 1.528 . S
C970 C166 1.391 . S
C975 C137 1.396 . S
C980 C334 1.532 . S
C985 C340 1.394 . S
C990 C363 1.530 . S
C995 C311 1.395 . S
C1000 C392 1.531 . S
C1005 C421 1.533 . S
C1010 C50 1.397 . S
C1015 C450 1.530 . S
C1020 C21 1.394 . S
