# Generated by pormake.
# Topology sml, (6)-cn, num edge types: 1
# Building blocks:
#     Node 0, Type 0, BuildingBlock: KUMJIN_clean_sbu_1, # of connection points: 6
#     Node 1, Type 0, BuildingBlock: KUMJIN_clean_sbu_1, # of connection points: 6
#     Node 2, Type 0, BuildingBlock: KUMJIN_clean_sbu_1, # of connection points: 6
#     Node 3, Type 0, BuildingBlock: KUMJIN_clean_sbu_1, # of connection points: 6
#     Node 4, Type 0, BuildingBlock: KUMJIN_clean_sbu_1, # of connection points: 6
#     Node 5, Type 0, BuildingBlock: KUMJIN_clean_sbu_1, # of connection points: 6
#     Edge 6, Type (0, 0), BuildingBlock: MIFKUJ_clean_linker_0, # of connection points: 2
#     Edge 7, Type (0, 0), BuildingBlock: MIFKUJ_clean_linker_0, # of connection points: 2
#     Edge 8, Type (0, 0), BuildingBlock: MIFKUJ_clean_linker_0, # of connection points: 2
#     Edge 9, Type (0, 0), BuildingBlock: MIFKUJ_clean_linker_0, # of connection points: 2
#     Edge 10, Type (0, 0), BuildingBlock: MIFKUJ_clean_linker_0, # of connection points: 2
#     Edge 11, Type (0, 0), BuildingBlock: MIFKUJ_clean_linker_0, # of connection points: 2
#     Edge 12, Type (0, 0), BuildingBlock: MIFKUJ_clean_linker_0, # of connection points: 2
#     Edge 13, Type (0, 0), BuildingBlock: MIFKUJ_clean_linker_0, # of connection points: 2
#     Edge 14, Type (0, 0), BuildingBlock: MIFKUJ_clean_linker_0, # of connection points: 2
#     Edge 15, Type (0, 0), BuildingBlock: MIFKUJ_clean_linker_0, # of connection points: 2
#     Edge 16, Type (0, 0), BuildingBlock: MIFKUJ_clean_linker_0, # of connection points: 2
#     Edge 17, Type (0, 0), BuildingBlock: MIFKUJ_clean_linker_0, # of connection points: 2
#     Edge 18, Type (0, 0), BuildingBlock: MIFKUJ_clean_linker_0, # of connection points: 2
#     Edge 19, Type (0, 0), BuildingBlock: MIFKUJ_clean_linker_0, # of connection points: 2
#     Edge 20, Type (0, 0), BuildingBlock: MIFKUJ_clean_linker_0, # of connection points: 2
#     Edge 21, Type (0, 0), BuildingBlock: MIFKUJ_clean_linker_0, # of connection points: 2
#     Edge 22, Type (0, 0), BuildingBlock: MIFKUJ_clean_linker_0, # of connection points: 2
#     Edge 23, Type (0, 0), BuildingBlock: MIFKUJ_clean_linker_0, # of connection points: 2
# Relax obj value: 0.053
# Max RMSD: 0.161
# Mean RMSD: 0.161
data_MOF--net-sml--node1-KUMJIN_clean_sbu_1--edge1-MIFKUJ_clean_linker_0
_symmetry_space_group_name_H-M    P1
_symmetry_Int_Tables_number       1
_symmetry_cell_setting            triclinic
loop_
_symmetry_equiv_pos_as_xyz
'x, y, z'
_cell_length_a     44.881504
_cell_length_b     44.866724
_cell_length_c     29.084217
_cell_angle_alpha  89.990516
_cell_angle_beta   90.101786
_cell_angle_gamma 119.99148
loop_
_atom_site_label
_atom_site_type_symbol
_atom_site_fract_x
_atom_site_fract_y
_atom_site_fract_z
_atom_type_partial_charge
Eu0 Eu 0.17347 0.42136 0.92668 0.0
C1 C 0.29888 0.43303 0.04695 0.0
N2 N 0.26767 0.40446 0.04029 0.0
C3 C 0.29422 0.37002 0.03148 0.0
C4 C 0.3293 0.43118 0.04537 0.0
C5 C 0.26483 0.37311 0.0336 0.0
C6 C 0.32666 0.39919 0.03708 0.0
C7 C 0.33223 0.4942 0.0635 0.0
C8 C 0.30033 0.46414 0.05608 0.0
C9 C 0.36265 0.49255 0.06151 0.0
C10 C 0.36119 0.46114 0.05247 0.0
Eu11 Eu 0.21958 0.41211 0.04331 0.0
N12 N 0.27046 0.46507 0.05661 0.0
C13 C 0.33256 0.525 0.0727 0.0
C14 C 0.2705 0.49469 0.06708 0.0
C15 C 0.30154 0.52517 0.07482 0.0
H16 H 0.23975 0.35039 0.03053 0.0
H17 H 0.30152 0.54875 0.0826 0.0
H18 H 0.13558 0.46617 0.95848 0.0
H19 H 0.117 0.28821 0.86657 0.0
H20 H 0.24669 0.49488 0.06963 0.0
H21 H 0.35656 0.54868 0.07863 0.0
H22 H 0.16394 0.34539 0.88828 0.0
H23 H 0.29163 0.34505 0.02589 0.0
H24 H 0.38744 0.51541 0.06705 0.0
H25 H 0.38487 0.46026 0.05128 0.0
H26 H 0.07683 0.45765 0.96328 0.0
H27 H 0.34943 0.39669 0.03558 0.0
H28 H 0.05674 0.27558 0.86913 0.0
N29 N 0.11871 0.41559 0.93392 0.0
C30 C 0.09173 0.38489 0.92045 0.0
C31 C 0.08068 0.43699 0.95125 0.0
C32 C 0.05783 0.37906 0.9222 0.0
C33 C 0.11385 0.44164 0.94888 0.0
C34 C 0.05254 0.40558 0.93781 0.0
N35 N 0.13087 0.36456 0.9073 0.0
C36 C 0.1379 0.34004 0.89184 0.0
C37 C 0.07028 0.32642 0.8935 0.0
C38 C 0.09798 0.35872 0.90674 0.0
C39 C 0.0773 0.3007 0.87961 0.0
C40 C 0.11126 0.30765 0.87845 0.0
H41 H 0.02685 0.40204 0.93979 0.0
H42 H 0.00409 0.34197 0.91009 0.0
H43 H 0.01499 0.29604 0.88459 0.0
O44 O 0.1841 0.42069 0.85318 0.0
O45 O 0.13917 0.39266 0.98718 0.0
O46 O 0.16873 0.36846 0.01861 0.0
O47 O 0.16908 0.45636 0.87874 0.0
O48 O 0.2101 0.40011 0.92092 0.0
O49 O 0.2021 0.37072 0.98883 0.0
O50 O 0.20696 0.41841 0.11416 0.0
O51 O 0.25499 0.4458 0.98548 0.0
O52 O 0.22356 0.46683 0.94977 0.0
O53 O 0.21863 0.37837 0.09804 0.0
O54 O 0.18816 0.43917 0.04935 0.0
O55 O 0.18967 0.4644 0.97883 0.0
C56 C 0.14089 0.37078 0.01538 0.0
C57 C 0.1504 0.43407 0.80366 0.0
C58 C 0.1378 0.42338 0.72142 0.0
C59 C 0.10487 0.41877 0.72944 0.0
C60 C 0.11736 0.42946 0.81062 0.0
C61 C 0.09476 0.42168 0.77374 0.0
C62 C 0.16037 0.43069 0.75896 0.0
C63 C 0.2139 0.378 0.94657 0.0
C64 C 0.17481 0.44305 0.84242 0.0
C65 C 0.03031 0.34691 0.90901 0.0
C66 C 0.03653 0.32072 0.89459 0.0
C67 C 0.25266 0.46757 0.95754 0.0
C68 C 0.23389 0.40305 0.17233 0.0
C69 C 0.23896 0.40698 0.25619 0.0
C70 C 0.27388 0.41666 0.25217 0.0
C71 C 0.2688 0.41277 0.16933 0.0
C72 C 0.21911 0.40048 0.21588 0.0
C73 C 0.28864 0.41964 0.20903 0.0
C74 C 0.186 0.46239 0.02399 0.0
C75 C 0.21248 0.39453 0.13051 0.0
H76 H 0.08678 0.41265 0.70142 0.0
H77 H 0.10897 0.43211 0.84442 0.0
H78 H 0.06935 0.4181 0.7795 0.0
H79 H 0.18591 0.4345 0.7533 0.0
H80 H 0.2899 0.42226 0.28246 0.0
H81 H 0.2807 0.41471 0.13643 0.0
H82 H 0.19208 0.39268 0.2184 0.0
H83 H 0.31555 0.42712 0.20635 0.0
Eu84 Eu 0.83112 0.24745 0.42287 0.0
C85 C 0.72014 0.11067 0.30505 0.0
N86 N 0.75474 0.13166 0.304 0.0
C87 C 0.76291 0.08299 0.2984 0.0
C88 C 0.70544 0.07464 0.30391 0.0
C89 C 0.77622 0.11859 0.29926 0.0
C90 C 0.72738 0.06092 0.30117 0.0
C91 C 0.66341 0.10449 0.30001 0.0
C92 C 0.69944 0.12537 0.30325 0.0
C93 C 0.64847 0.06853 0.30153 0.0
C94 C 0.66946 0.05364 0.30334 0.0
Eu95 Eu 0.7752 0.1912 0.30755 0.0
N96 N 0.71474 0.1601 0.30056 0.0
C97 C 0.64368 0.12036 0.29298 0.0
C98 C 0.69599 0.17558 0.29018 0.0
C99 C 0.66011 0.15603 0.28715 0.0
H100 H 0.8037 0.13571 0.29682 0.0
H101 H 0.64519 0.16845 0.28029 0.0
H102 H 0.88745 0.32789 0.39474 0.0
H103 H 0.85691 0.14534 0.47991 0.0
H104 H 0.70883 0.20319 0.28559 0.0
H105 H 0.61591 0.10522 0.29026 0.0
H106 H 0.82419 0.1755 0.47562 0.0
H107 H 0.77999 0.07259 0.29534 0.0
H108 H 0.62081 0.05202 0.29948 0.0
H109 H 0.65761 0.02591 0.30246 0.0
H110 H 0.94921 0.36306 0.37437 0.0
H111 H 0.71716 0.03346 0.29943 0.0
H112 H 0.91576 0.17225 0.44816 0.0
N113 N 0.88978 0.28227 0.40495 0.0
C114 C 0.90962 0.26737 0.40629 0.0
C115 C 0.93839 0.33617 0.38318 0.0
C116 C 0.9448 0.28627 0.39466 0.0
C117 C 0.9036 0.31634 0.39485 0.0
C118 C 0.95901 0.32096 0.38255 0.0
N119 N 0.86143 0.21689 0.43456 0.0
C120 C 0.8487 0.18666 0.45842 0.0
C121 C 0.91539 0.21792 0.42496 0.0
C122 C 0.8949 0.23353 0.42089 0.0
C123 C 0.9009 0.18512 0.44446 0.0
C124 C 0.86767 0.16979 0.46225 0.0
H125 H 0.98593 0.33632 0.37338 0.0
H126 H 0.99182 0.28434 0.38768 0.0
H127 H 0.96606 0.22443 0.41462 0.0
O128 O 0.84165 0.25196 0.49721 0.0
O129 O 0.85106 0.25759 0.34954 0.0
O130 O 0.82927 0.203 0.32313 0.0
O131 O 0.8393 0.29259 0.46161 0.0
O132 O 0.79016 0.19155 0.43162 0.0
O133 O 0.79798 0.17339 0.36246 0.0
O134 O 0.80407 0.22665 0.25136 0.0
O135 O 0.74188 0.19881 0.36048 0.0
O136 O 0.77368 0.22582 0.42723 0.0
O137 O 0.76363 0.17523 0.23576 0.0
O138 O 0.77938 0.24307 0.31749 0.0
O139 O 0.81673 0.27882 0.37576 0.0
C140 C 0.85415 0.23507 0.32432 0.0
C141 C 0.81957 0.28231 0.53901 0.0
C142 C 0.80239 0.27499 0.62036 0.0
C143 C 0.77978 0.28729 0.60995 0.0
C144 C 0.79677 0.29455 0.53007 0.0
C145 C 0.77697 0.2968 0.56524 0.0
C146 C 0.82231 0.27262 0.58438 0.0
C147 C 0.78341 0.16648 0.40285 0.0
C148 C 0.84101 0.28045 0.50148 0.0
C149 C 0.96477 0.27025 0.39656 0.0
C150 C 0.95009 0.23613 0.41169 0.0
C151 C 0.74487 0.21058 0.40303 0.0
C152 C 0.80916 0.20092 0.1828 0.0
C153 C 0.82727 0.20712 0.10213 0.0
C154 C 0.84812 0.19294 0.11364 0.0
C155 C 0.82954 0.18624 0.19294 0.0
C156 C 0.80792 0.21121 0.13736 0.0
C157 C 0.84921 0.18266 0.15865 0.0
C158 C 0.79631 0.27267 0.3397 0.0
C159 C 0.78797 0.20405 0.21905 0.0
H160 H 0.76464 0.29029 0.63654 0.0
H161 H 0.79411 0.30242 0.49581 0.0
H162 H 0.75952 0.30628 0.55787 0.0
H163 H 0.83975 0.26306 0.59145 0.0
H164 H 0.86294 0.18889 0.08759 0.0
H165 H 0.82983 0.17716 0.2273 0.0
H166 H 0.79188 0.22229 0.12953 0.0
H167 H 0.86497 0.17136 0.16683 0.0
Eu168 Eu 0.58481 0.76751 0.62289 0.0
C169 C 0.5951 0.89766 0.74581 0.0
N170 N 0.61113 0.87882 0.74552 0.0
C171 C 0.66552 0.92963 0.75885 0.0
C172 C 0.61393 0.93362 0.75209 0.0
C173 C 0.64562 0.89393 0.75352 0.0
C174 C 0.64966 0.94963 0.75767 0.0
C175 C 0.54173 0.89894 0.7476 0.0
C176 C 0.55951 0.88054 0.74378 0.0
C177 C 0.5604 0.93492 0.75199 0.0
C178 C 0.59638 0.95215 0.75475 0.0
Eu179 Eu 0.57593 0.81888 0.73679 0.0
N180 N 0.54221 0.84568 0.74185 0.0
C181 C 0.50573 0.88047 0.74929 0.0
C182 C 0.50729 0.82745 0.747 0.0
C183 C 0.48846 0.84453 0.7496 0.0
H184 H 0.65781 0.87838 0.75507 0.0
H185 H 0.4607 0.83 0.75233 0.0
H186 H 0.56606 0.68821 0.65133 0.0
H187 H 0.71194 0.87744 0.57964 0.0
H188 H 0.49399 0.79964 0.74796 0.0
H189 H 0.49114 0.89367 0.75209 0.0
H190 H 0.64909 0.84206 0.57488 0.0
H191 H 0.69301 0.94165 0.76422 0.0
H192 H 0.54723 0.94952 0.7551 0.0
H193 H 0.61029 0.97966 0.76057 0.0
H194 H 0.59569 0.65809 0.68137 0.0
H195 H 0.66506 0.97721 0.76249 0.0
H196 H 0.74553 0.85555 0.62039 0.0
N197 N 0.61204 0.73645 0.64582 0.0
C198 C 0.64676 0.75427 0.65017 0.0
C199 C 0.61036 0.68513 0.67272 0.0
C200 C 0.66471 0.73832 0.66746 0.0
C201 C 0.59371 0.7021 0.65544 0.0
C202 C 0.64599 0.70342 0.67928 0.0
N203 N 0.64603 0.80241 0.61866 0.0
C204 C 0.66294 0.83291 0.59536 0.0
C205 C 0.70053 0.80722 0.63864 0.0
C206 C 0.66426 0.78841 0.6367 0.0
C207 C 0.7177 0.84027 0.61969 0.0
C208 C 0.69884 0.85277 0.59684 0.0
H209 H 0.65882 0.69029 0.69294 0.0
H210 H 0.71488 0.74589 0.68568 0.0
H211 H 0.74635 0.80618 0.65989 0.0
O212 O 0.5952 0.76552 0.5494 0.0
O213 O 0.58955 0.75534 0.69724 0.0
O214 O 0.62016 0.80934 0.72565 0.0
O215 O 0.55322 0.72171 0.58149 0.0
O216 O 0.59583 0.82209 0.61447 0.0
O217 O 0.61888 0.84243 0.685 0.0
O218 O 0.56977 0.78337 0.79272 0.0
O219 O 0.53749 0.81049 0.67997 0.0
O220 O 0.54456 0.7839 0.61431 0.0
O221 O 0.57662 0.83329 0.80861 0.0
O222 O 0.52964 0.76591 0.7235 0.0
O223 O 0.53824 0.73353 0.66633 0.0
C224 C 0.61301 0.77732 0.72537 0.0
C225 C 0.54517 0.73289 0.50409 0.0
C226 C 0.53598 0.73752 0.42182 0.0
C227 C 0.50145 0.72734 0.43124 0.0
C228 C 0.5104 0.72231 0.51216 0.0
C229 C 0.48886 0.71985 0.47603 0.0
C230 C 0.5579 0.74059 0.4587 0.0
C231 C 0.61162 0.84782 0.64331 0.0
C232 C 0.568 0.73569 0.5428 0.0
C233 C 0.70064 0.75756 0.67202 0.0
C234 C 0.71853 0.79194 0.65754 0.0
C235 C 0.52961 0.79827 0.63759 0.0
C236 C 0.60083 0.81122 0.86017 0.0
C237 C 0.61738 0.81346 0.9409 0.0
C238 C 0.65168 0.82636 0.92677 0.0
C239 C 0.63524 0.82452 0.84719 0.0
C240 C 0.5919 0.80557 0.90703 0.0
C241 C 0.66042 0.83167 0.88029 0.0
C242 C 0.52063 0.73727 0.70011 0.0
C243 C 0.57481 0.8055 0.8251 0.0
H244 H 0.48414 0.7254 0.4039 0.0
H245 H 0.49974 0.71587 0.54647 0.0
H246 H 0.46222 0.712 0.48277 0.0
H247 H 0.58457 0.74837 0.45207 0.0
H248 H 0.67177 0.83183 0.95164 0.0
H249 H 0.64268 0.82977 0.81148 0.0
H250 H 0.56539 0.79588 0.91708 0.0
H251 H 0.68687 0.8416 0.86992 0.0
Eu252 Eu 0.75145 0.58355 0.08506 0.0
C253 C 0.84941 0.54238 0.98063 0.0
N254 N 0.84937 0.57267 0.97907 0.0
C255 C 0.91104 0.60398 0.98203 0.0
C256 C 0.88046 0.54185 0.98466 0.0
C257 C 0.87964 0.60318 0.9774 0.0
C258 C 0.9114 0.57316 0.98601 0.0
C259 C 0.81807 0.48015 0.97228 0.0
C260 C 0.81864 0.51184 0.97407 0.0
C261 C 0.84871 0.47946 0.97867 0.0
C262 C 0.87985 0.51025 0.98476 0.0
Eu263 Eu 0.79488 0.56827 0.97043 0.0
N264 N 0.78949 0.5133 0.96702 0.0
C265 C 0.78689 0.45022 0.96253 0.0
C266 C 0.75964 0.48466 0.95413 0.0
C267 C 0.75762 0.45256 0.95292 0.0
H268 H 0.87972 0.62689 0.97099 0.0
H269 H 0.73361 0.4297 0.94429 0.0
H270 H 0.66952 0.55154 0.05439 0.0
H271 H 0.84642 0.71619 0.13263 0.0
H272 H 0.73736 0.48663 0.94518 0.0
H273 H 0.78538 0.42536 0.96108 0.0
H274 H 0.82135 0.65337 0.13109 0.0
H275 H 0.93496 0.62828 0.98123 0.0
H276 H 0.84874 0.45535 0.9774 0.0
H277 H 0.90348 0.50943 0.98809 0.0
H278 H 0.63056 0.57263 0.02868 0.0
H279 H 0.93572 0.57367 0.98771 0.0
H280 H 0.81417 0.74265 0.09997 0.0
N281 N 0.71227 0.60175 0.0637 0.0
C282 C 0.72417 0.63614 0.06363 0.0
C283 C 0.65685 0.59075 0.03827 0.0
C284 C 0.7031 0.64934 0.04892 0.0
C285 C 0.6788 0.57889 0.05296 0.0
C286 C 0.66918 0.62615 0.03568 0.0
N287 N 0.77666 0.64413 0.09361 0.0
C288 C 0.80755 0.66447 0.1148 0.0
C289 C 0.77049 0.69383 0.0798 0.0
C290 C 0.75752 0.65799 0.07848 0.0
C291 C 0.80328 0.715 0.09828 0.0
C292 C 0.82161 0.70017 0.11661 0.0
H293 H 0.6522 0.63529 0.02405 0.0
H294 H 0.70074 0.69578 0.03676 0.0
H295 H 0.7597 0.73477 0.06413 0.0
O296 O 0.74982 0.59333 0.15884 0.0
O297 O 0.74015 0.59392 0.01285 0.0
O298 O 0.7928 0.6172 0.98007 0.0
O299 O 0.71033 0.54621 0.12877 0.0
O300 O 0.80918 0.60394 0.08574 0.0
O301 O 0.82828 0.61799 0.01067 0.0
O302 O 0.76947 0.56408 0.90441 0.0
O303 O 0.77772 0.52887 0.02889 0.0
O304 O 0.78694 0.56187 0.09334 0.0
O305 O 0.82261 0.57722 0.90573 0.0
O306 O 0.73646 0.54076 0.97324 0.0
O307 O 0.71971 0.53133 0.05035 0.0
C308 C 0.76267 0.61492 0.98303 0.0
C309 C 0.72906 0.5426 0.20354 0.0
C310 C 0.73812 0.53423 0.28461 0.0
C311 C 0.73828 0.50396 0.27235 0.0
C312 C 0.72937 0.51224 0.1925 0.0
C313 C 0.73384 0.4931 0.22671 0.0
C314 C 0.73364 0.55362 0.24975 0.0
C315 C 0.83387 0.62091 0.05542 0.0
C316 C 0.72415 0.56265 0.16682 0.0
C317 C 0.71641 0.68508 0.04834 0.0
C318 C 0.75002 0.70728 0.06381 0.0
C319 C 0.78447 0.53465 0.07306 0.0
C320 C 0.80569 0.60094 0.84629 0.0
C321 C 0.8082 0.61875 0.76615 0.0
C322 C 0.82413 0.65323 0.78118 0.0
C323 C 0.82122 0.63538 0.86031 0.0
C324 C 0.79916 0.59267 0.7994 0.0
C325 C 0.83028 0.66135 0.82784 0.0
C326 C 0.71433 0.52349 0.00623 0.0
C327 C 0.7972 0.57365 0.8803 0.0
H328 H 0.74225 0.48879 0.29805 0.0
H329 H 0.72623 0.5032 0.15732 0.0
H330 H 0.7339 0.46975 0.21771 0.0
H331 H 0.73326 0.5769 0.25853 0.0
H332 H 0.83152 0.67411 0.75709 0.0
H333 H 0.82667 0.64216 0.89629 0.0
H334 H 0.78767 0.56598 0.78897 0.0
H335 H 0.84226 0.68793 0.83886 0.0
Eu336 Eu 0.25077 0.82239 0.25731 0.0
C337 C 0.14208 0.69665 0.38472 0.0
N338 N 0.1404 0.72505 0.37272 0.0
C339 C 0.07962 0.69066 0.36052 0.0
C340 C 0.11229 0.6638 0.38447 0.0
C341 C 0.10986 0.72264 0.36101 0.0
C342 C 0.08083 0.66109 0.37226 0.0
C343 C 0.17663 0.67101 0.4062 0.0
C344 C 0.17398 0.70028 0.39547 0.0
C345 C 0.14694 0.63833 0.40647 0.0
C346 C 0.11488 0.63474 0.39569 0.0
Eu347 Eu 0.19245 0.77788 0.37475 0.0
N348 N 0.2025 0.7322 0.3937 0.0
C349 C 0.20914 0.67538 0.41569 0.0
C350 C 0.2339 0.73664 0.40524 0.0
C351 C 0.23787 0.70835 0.41517 0.0
H352 H 0.10876 0.74551 0.35288 0.0
H353 H 0.2631 0.71209 0.42284 0.0
H354 H 0.33266 0.85913 0.29252 0.0
H355 H 0.17958 0.88064 0.18262 0.0
H356 H 0.25594 0.76179 0.40777 0.0
H357 H 0.21231 0.65355 0.42373 0.0
H358 H 0.18774 0.83321 0.20836 0.0
H359 H 0.05541 0.68885 0.35122 0.0
H360 H 0.14854 0.6156 0.41464 0.0
H361 H 0.09226 0.60931 0.3957 0.0
H362 H 0.38344 0.91746 0.29881 0.0
H363 H 0.05737 0.63632 0.37167 0.0
H364 H 0.22769 0.94061 0.18718 0.0
N365 N 0.30065 0.87674 0.26389 0.0
C366 C 0.29814 0.90402 0.24852 0.0
C367 C 0.3596 0.91403 0.2847 0.0
C368 C 0.32652 0.93772 0.25126 0.0
C369 C 0.33076 0.8811 0.28143 0.0
C370 C 0.35748 0.94247 0.26958 0.0
N371 N 0.2392 0.86565 0.2313 0.0
C372 C 0.20859 0.85909 0.21261 0.0
C373 C 0.26318 0.92633 0.21647 0.0
C374 C 0.2666 0.89833 0.23177 0.0
C375 C 0.23133 0.91982 0.19931 0.0
C376 C 0.20405 0.88602 0.19697 0.0
H377 H 0.37984 0.96797 0.2723 0.0
H378 H 0.34457 0.99165 0.23818 0.0
H379 H 0.28927 0.98167 0.20736 0.0
O380 O 0.24036 0.80666 0.18381 0.0
O381 O 0.25358 0.85867 0.31382 0.0
O382 O 0.19996 0.82785 0.34545 0.0
O383 O 0.29124 0.82484 0.21403 0.0
O384 O 0.19268 0.78896 0.24948 0.0
O385 O 0.16701 0.79208 0.31751 0.0
O386 O 0.20527 0.79054 0.44871 0.0
O387 O 0.1876 0.74115 0.31742 0.0
O388 O 0.24151 0.7724 0.28842 0.0
O389 O 0.15488 0.77799 0.42151 0.0
O390 O 0.25067 0.81265 0.38255 0.0
O391 O 0.27484 0.80724 0.31487 0.0
C392 C 0.22964 0.85628 0.34191 0.0
C393 C 0.28554 0.80746 0.13439 0.0
C394 C 0.28645 0.80371 0.05028 0.0
C395 C 0.3132 0.7961 0.05417 0.0
C396 C 0.31229 0.79986 0.13695 0.0
C397 C 0.32586 0.79409 0.09713 0.0
C398 C 0.27228 0.80891 0.09086 0.0
C399 C 0.16576 0.78474 0.27323 0.0
C400 C 0.2719 0.81343 0.1776 0.0
C401 C 0.32305 0.96557 0.23627 0.0
C402 C 0.29152 0.95989 0.21881 0.0
C403 C 0.21152 0.74424 0.28885 0.0
C404 C 0.16333 0.79174 0.50264 0.0
C405 C 0.16594 0.79417 0.58696 0.0
C406 C 0.13877 0.80131 0.58691 0.0
C407 C 0.13614 0.79875 0.50403 0.0
C408 C 0.1786 0.7899 0.54437 0.0
C409 C 0.12412 0.80364 0.54582 0.0
C410 C 0.27726 0.81641 0.35846 0.0
C411 C 0.1749 0.78637 0.45727 0.0
H412 H 0.32414 0.79128 0.02384 0.0
H413 H 0.32261 0.7981 0.1699 0.0
H414 H 0.34632 0.78802 0.09958 0.0
H415 H 0.25168 0.81483 0.08854 0.0
H416 H 0.12896 0.80543 0.61886 0.0
H417 H 0.12416 0.80066 0.47264 0.0
H418 H 0.19948 0.78435 0.54378 0.0
H419 H 0.10328 0.80922 0.54637 0.0
Eu420 Eu 0.41344 0.16236 0.75633 0.0
C421 C 0.44387 0.29741 0.64401 0.0
N422 N 0.41417 0.26656 0.64498 0.0
C423 C 0.38104 0.29484 0.64836 0.0
C424 C 0.44319 0.32845 0.6463 0.0
C425 C 0.38299 0.2648 0.64604 0.0
C426 C 0.41126 0.32684 0.64893 0.0
C427 C 0.50626 0.32956 0.63906 0.0
C428 C 0.47508 0.29798 0.64034 0.0
C429 C 0.50568 0.36053 0.6419 0.0
C430 C 0.47426 0.35997 0.64553 0.0
Eu431 Eu 0.42018 0.21748 0.64234 0.0
N432 N 0.47493 0.26755 0.6391 0.0
C433 C 0.53709 0.32906 0.6349 0.0
C434 C 0.50474 0.26688 0.63324 0.0
C435 C 0.53627 0.29759 0.63154 0.0
H436 H 0.3596 0.24014 0.64436 0.0
H437 H 0.55993 0.29697 0.62748 0.0
H438 H 0.44977 0.11518 0.73155 0.0
H439 H 0.27776 0.12187 0.78818 0.0
H440 H 0.50434 0.24278 0.62988 0.0
H441 H 0.56159 0.35279 0.63374 0.0
H442 H 0.33992 0.162 0.78844 0.0
H443 H 0.35618 0.29312 0.64927 0.0
H444 H 0.5294 0.38507 0.64113 0.0
H445 H 0.47426 0.38409 0.64742 0.0
H446 H 0.4318 0.05435 0.71475 0.0
H447 H 0.40967 0.35012 0.65068 0.0
H448 H 0.25509 0.06107 0.76613 0.0
N449 N 0.39868 0.10507 0.74138 0.0
C450 C 0.36461 0.08119 0.74265 0.0
C451 C 0.41268 0.06158 0.7225 0.0
C452 C 0.35323 0.04633 0.73296 0.0
C453 C 0.42278 0.0959 0.73198 0.0
C454 C 0.37776 0.0367 0.72285 0.0
N455 N 0.35277 0.12603 0.76027 0.0
C456 C 0.33061 0.13638 0.77554 0.0
C457 C 0.30553 0.06772 0.75305 0.0
C458 C 0.34103 0.09202 0.75183 0.0
C459 C 0.28254 0.07894 0.76478 0.0
C460 C 0.29521 0.11329 0.77689 0.0
H461 H 0.37001 0.01016 0.71519 0.0
H462 H 0.30862 0.99543 0.72584 0.0
H463 H 0.26698 0.01399 0.7444 0.0
O464 O 0.40406 0.16528 0.82952 0.0
O465 O 0.39596 0.1367 0.68677 0.0
O466 O 0.3721 0.16624 0.65506 0.0
O467 O 0.43725 0.14594 0.8086 0.0
O468 O 0.39766 0.20324 0.75991 0.0
O469 O 0.3741 0.19971 0.68867 0.0
O470 O 0.42862 0.20169 0.57452 0.0
O471 O 0.4508 0.24797 0.70525 0.0
O472 O 0.4633 0.2128 0.7499 0.0
O473 O 0.40181 0.23025 0.58012 0.0
O474 O 0.4483 0.18711 0.64129 0.0
O475 O 0.46227 0.17825 0.71568 0.0
C476 C 0.37403 0.13814 0.65846 0.0
C477 C 0.45066 0.17742 0.87817 0.0
C478 C 0.46374 0.196 0.95834 0.0
C479 C 0.49759 0.22015 0.94526 0.0
C480 C 0.48454 0.20164 0.86599 0.0
C481 C 0.50781 0.2229 0.8994 0.0
C482 C 0.44036 0.17474 0.92428 0.0
C483 C 0.37873 0.20986 0.73171 0.0
C484 C 0.42555 0.15559 0.84298 0.0
C485 C 0.31787 0.02233 0.73324 0.0
C486 C 0.29412 0.03296 0.74347 0.0
C487 C 0.46851 0.2432 0.73764 0.0
C488 C 0.3867 0.19172 0.5179 0.0
C489 C 0.37371 0.17132 0.43847 0.0
C490 C 0.33892 0.15047 0.45069 0.0
C491 C 0.35179 0.17146 0.52897 0.0
C492 C 0.39757 0.19164 0.47267 0.0
C493 C 0.32811 0.15063 0.49564 0.0
C494 C 0.46615 0.17969 0.67058 0.0
C495 C 0.41178 0.21406 0.5527 0.0
H496 H 0.51637 0.23662 0.97053 0.0
H497 H 0.49297 0.20405 0.83069 0.0
H498 H 0.5339 0.24153 0.88975 0.0
H499 H 0.41399 0.15642 0.9334 0.0
H500 H 0.31983 0.13482 0.42521 0.0
H501 H 0.34286 0.17215 0.56327 0.0
H502 H 0.42453 0.20762 0.46411 0.0
H503 H 0.30119 0.13498 0.50447 0.0
H504 H 0.31641 0.2033 0.7093 0.0
H505 H 0.28967 0.23413 0.74369 0.0
H506 H 0.37986 0.29243 0.82815 0.0
H507 H 0.40602 0.26104 0.79485 0.0
H508 H 0.32676 0.26878 0.87933 0.0
H509 H 0.35605 0.34535 0.74166 0.0
H510 H 0.3584 0.35892 0.65894 0.0
H511 H 0.25314 0.27911 0.64293 0.0
H512 H 0.24984 0.26613 0.72598 0.0
H513 H 0.26712 0.40586 0.8865 0.0
H514 H 0.29756 0.37878 0.85268 0.0
H515 H 0.23221 0.28542 0.92751 0.0
H516 H 0.20223 0.31286 0.96234 0.0
H517 H 0.27251 0.32624 0.79701 0.0
H518 H 0.25976 0.24705 0.94796 0.0
H519 H 0.27053 0.24638 0.03122 0.0
H520 H 0.36119 0.34595 0.02043 0.0
H521 H 0.35015 0.3476 0.93746 0.0
C522 C 0.33058 0.22305 0.73476 0.0
C523 C 0.36316 0.22976 0.74957 0.0
C524 C 0.31545 0.24088 0.75413 0.0
C525 C 0.33284 0.26596 0.78825 0.0
C526 C 0.36583 0.27321 0.802 0.0
C527 C 0.38073 0.25518 0.78307 0.0
C528 C 0.31566 0.28233 0.81286 0.0
C529 C 0.31489 0.28131 0.86114 0.0
C530 C 0.3003 0.29897 0.78973 0.0
C531 C 0.30293 0.30435 0.73953 0.0
C532 C 0.33356 0.33051 0.72029 0.0
C533 C 0.33492 0.33839 0.67356 0.0
C534 C 0.30604 0.31969 0.64562 0.0
C535 C 0.27556 0.29341 0.66453 0.0
C536 C 0.27384 0.28598 0.71146 0.0
C537 C 0.25939 0.37961 0.8959 0.0
C538 C 0.23233 0.3614 0.92695 0.0
C539 C 0.27692 0.36421 0.8768 0.0
C540 C 0.26759 0.33017 0.888 0.0
C541 C 0.24063 0.31199 0.9193 0.0
C542 C 0.22325 0.32754 0.93879 0.0
C543 C 0.28396 0.31299 0.86345 0.0
C544 C 0.28425 0.31356 0.81515 0.0
C545 C 0.29975 0.29679 0.8866 0.0
C546 C 0.30367 0.29779 0.93704 0.0
C547 C 0.28151 0.26909 0.96369 0.0
C548 C 0.28771 0.26851 0.01073 0.0
C549 C 0.31644 0.29618 0.03116 0.0
C550 C 0.33883 0.32464 1.00465 0.0
C551 C 0.33235 0.32561 0.95778 0.0
H552 H 0.32141 0.29553 0.06747 0.0
H553 H 0.30724 0.32566 0.60938 0.0
H554 H 0.07275 0.34028 0.99453 0.0
H555 H 0.02433 0.31207 0.04693 0.0
H556 H 0.09436 0.32824 0.15865 0.0
H557 H 0.14275 0.35447 0.10504 0.0
H558 H 0.03941 0.27132 0.17265 0.0
H559 H 0.0618 0.38452 0.13743 0.0
H560 H 0.07228 0.43255 0.08605 0.0
H561 H 0.97186 0.37151 0.02668 0.0
H562 H 0.96083 0.32301 0.07749 0.0
H563 H 0.9004 0.30082 0.29955 0.0
H564 H 0.95125 0.32059 0.25197 0.0
H565 H 0.92472 0.21511 0.22786 0.0
H566 H 0.87644 0.19568 0.28086 0.0
H567 H 0.95931 0.31731 0.17062 0.0
H568 H 0.98241 0.20384 0.19319 0.0
H569 H 0.98346 0.16518 0.25286 0.0
H570 H 0.00995 0.24367 0.35485 0.0
H571 H 0.0073 0.28211 0.2962 0.0
C572 C 0.07781 0.33748 0.03001 0.0
C573 C 0.11154 0.35009 0.04586 0.0
C574 C 0.0501 0.32145 0.06011 0.0
C575 C 0.05573 0.31902 0.10711 0.0
C576 C 0.08933 0.33002 0.12261 0.0
C577 C 0.117 0.34512 0.09204 0.0
C578 C 0.02687 0.30684 0.14028 0.0
C579 C 0.02191 0.28141 0.17229 0.0
C580 C 0.00456 0.32063 0.14074 0.0
C581 C 0.01056 0.35008 0.11111 0.0
C582 C 0.04195 0.38134 0.11339 0.0
C583 C 0.04799 0.40865 0.08438 0.0
C584 C 0.0227 0.40509 0.05319 0.0
C585 C 0.99134 0.37425 0.05099 0.0
C586 C 0.98515 0.34687 0.07994 0.0
C587 C 0.906 0.28188 0.28531 0.0
C588 C 0.88448 0.24669 0.29422 0.0
C589 C 0.9349 0.2932 0.25743 0.0
C590 C 0.94237 0.26951 0.23634 0.0
C591 C 0.92049 0.23418 0.24467 0.0
C592 C 0.8923 0.22296 0.27418 0.0
C593 C 0.9719 0.28192 0.2039 0.0
C594 C 0.97683 0.30726 0.17146 0.0
C595 C 0.99528 0.26939 0.20468 0.0
C596 C 0.9943 0.24559 0.24056 0.0
C597 C 0.98796 0.21259 0.22853 0.0
C598 C 0.98859 0.19067 0.26219 0.0
C599 C 0.99627 0.20181 0.30778 0.0
C600 C 0.00316 0.23481 0.3198 0.0
C601 C 0.0018 0.25655 0.28646 0.0
H602 H 0.99717 0.18497 0.33372 0.0
H603 H 0.0274 0.42625 0.03076 0.0
H604 H 0.79556 0.11281 0.39744 0.0
H605 H 0.76234 0.05646 0.43446 0.0
H606 H 0.68739 0.08376 0.47905 0.0
H607 H 0.72146 0.14052 0.44407 0.0
H608 H 0.71031 0.06468 0.54916 0.0
H609 H 0.64522 0.9895 0.40594 0.0
H610 H 0.64276 0.96727 0.32747 0.0
H611 H 0.73913 0.97095 0.34994 0.0
H612 H 0.74131 0.99181 0.42916 0.0
H613 H 0.58208 0.86774 0.57857 0.0
H614 H 0.60784 0.92261 0.53787 0.0
H615 H 0.69783 0.96172 0.62429 0.0
H616 H 0.67254 0.90619 0.66428 0.0
H617 H 0.66682 0.94683 0.48842 0.0
H618 H 0.73173 0.04694 0.63179 0.0
H619 H 0.72059 0.06041 0.71006 0.0
H620 H 0.61188 0.00483 0.68333 0.0
H621 H 0.6224 0.99016 0.60568 0.0
C622 C 0.77148 0.10626 0.41413 0.0
C623 C 0.76092 0.13077 0.41799 0.0
C624 C 0.75234 0.07396 0.43497 0.0
C625 C 0.72209 0.06559 0.45924 0.0
C626 C 0.71065 0.08958 0.46065 0.0
C627 C 0.73009 0.12199 0.44069 0.0
C628 C 0.70506 0.03444 0.48875 0.0
C629 C 0.70098 0.03893 0.53573 0.0
C630 C 0.69255 0.00074 0.47172 0.0
C631 C 0.69396 0.99317 0.42271 0.0
C632 C 0.66616 0.98615 0.39373 0.0
C633 C 0.66455 0.97331 0.34943 0.0
C634 C 0.69086 0.96788 0.33364 0.0
C635 C 0.71884 0.97528 0.36213 0.0
C636 C 0.72021 0.98748 0.40676 0.0
C637 C 0.60713 0.88824 0.58944 0.0
C638 C 0.62524 0.88287 0.62485 0.0
C639 C 0.62174 0.91957 0.56622 0.0
C640 C 0.65466 0.94625 0.57808 0.0
C641 C 0.67217 0.94161 0.61502 0.0
C642 C 0.65761 0.91002 0.63813 0.0
C643 C 0.67193 0.97718 0.54844 0.0
C644 C 0.67634 0.97264 0.50173 0.0
C645 C 0.68427 0.01075 0.56556 0.0
C646 C 0.67783 0.01715 0.61334 0.0
C647 C 0.70546 0.03725 0.64298 0.0
C648 C 0.69926 0.04501 0.68723 0.0
C649 C 0.66554 0.03327 0.70182 0.0
C650 C 0.63796 0.01351 0.67231 0.0
C651 C 0.644 0.00519 0.62835 0.0
H652 H 0.6608 0.0396 0.73592 0.0
H653 H 0.68962 0.95802 0.2993 0.0
H654 H 0.58316 0.71493 0.76688 0.0
H655 H 0.61123 0.6904 0.81294 0.0
H656 H 0.70752 0.78589 0.80291 0.0
H657 H 0.6793 0.81066 0.75672 0.0
H658 H 0.7103 0.72748 0.77415 0.0
H659 H 0.67264 0.76051 0.91648 0.0
H660 H 0.63127 0.76165 0.97096 0.0
H661 H 0.56586 0.65251 0.95727 0.0
H662 H 0.60785 0.65035 0.90463 0.0
H663 H 0.80059 0.67535 0.9352 0.0
H664 H 0.77785 0.70394 0.88564 0.0
H665 H 0.67534 0.61757 0.90264 0.0
H666 H 0.69773 0.58921 0.95131 0.0
H667 H 0.67808 0.67472 0.9289 0.0
H668 H 0.70936 0.63504 0.79842 0.0
H669 H 0.74033 0.62367 0.73733 0.0
H670 H 0.80577 0.7322 0.7162 0.0
H671 H 0.77528 0.7443 0.77738 0.0
C672 C 0.61017 0.73092 0.77533 0.0
C673 C 0.62913 0.7647 0.75846 0.0
C674 C 0.62612 0.71695 0.80189 0.0
C675 C 0.6614 0.73641 0.81178 0.0
C676 C 0.6802 0.77055 0.79603 0.0
C677 C 0.6641 0.78471 0.76987 0.0
C678 C 0.67915 0.71977 0.83393 0.0
C679 C 0.70405 0.71669 0.80852 0.0
C680 C 0.6693 0.7038 0.87741 0.0
C681 C 0.64299 0.7054 0.90605 0.0
C682 C 0.64917 0.73686 0.92455 0.0
C683 C 0.62565 0.73768 0.95516 0.0
C684 C 0.59542 0.70742 0.96646 0.0
C685 C 0.58908 0.67602 0.9481 0.0
C686 C 0.61285 0.67492 0.91818 0.0
C687 C 0.77337 0.66221 0.92725 0.0
C688 C 0.75086 0.63033 0.94761 0.0
C689 C 0.76041 0.67849 0.89891 0.0
C690 C 0.72483 0.66298 0.89067 0.0
C691 C 0.70282 0.63016 0.90871 0.0
C692 C 0.71566 0.61405 0.9368 0.0
C693 C 0.70965 0.68245 0.86928 0.0
C694 C 0.68508 0.686 0.89482 0.0
C695 C 0.71886 0.69753 0.82508 0.0
C696 C 0.74036 0.69059 0.79307 0.0
C697 C 0.7309 0.65652 0.7816 0.0
C698 C 0.74813 0.64994 0.74658 0.0
C699 C 0.77489 0.67721 0.72281 0.0
C700 C 0.78496 0.71112 0.73459 0.0
C701 C 0.76774 0.71786 0.76946 0.0
H702 H 0.78786 0.67208 0.69524 0.0
H703 H 0.57724 0.7082 0.99012 0.0
H704 H 0.15014 0.75612 0.1877 0.0
H705 H 0.09628 0.73402 0.14572 0.0
H706 H 0.05256 0.7615 0.25876 0.0
H707 H 0.1073 0.78552 0.30018 0.0
H708 H 0.03728 0.68268 0.16376 0.0
H709 H 0.9881 0.77516 0.21904 0.0
H710 H 0.01206 0.83611 0.2406 0.0
H711 H 0.1037 0.8631 0.1637 0.0
H712 H 0.08007 0.80245 0.14103 0.0
H713 H 0.85766 0.61087 0.13626 0.0
H714 H 0.91551 0.64282 0.16782 0.0
H715 H 0.94916 0.7082 0.04821 0.0
H716 H 0.8903 0.67685 0.01672 0.0
H717 H 0.9713 0.74297 0.1387 0.0
H718 H 0.00712 0.66403 0.05294 0.0
H719 H 0.99316 0.60689 0.02361 0.0
H720 H 0.93686 0.55963 0.14709 0.0
H721 H 0.95211 0.61687 0.17803 0.0
C722 C 0.12926 0.75789 0.20359 0.0
C723 C 0.13297 0.77222 0.2477 0.0
C724 C 0.09835 0.74506 0.17951 0.0
C725 C 0.07027 0.74607 0.19891 0.0
C726 C 0.07394 0.76076 0.24274 0.0
C727 C 0.10512 0.77404 0.26671 0.0
C728 C 0.03678 0.73005 0.17405 0.0
C729 C 0.02307 0.69611 0.15838 0.0
C730 C 0.01823 0.7475 0.16602 0.0
C731 C 0.03241 0.78417 0.17875 0.0
C732 C 0.01328 0.79412 0.20654 0.0
C733 C 0.02682 0.82863 0.21897 0.0
C734 C 0.05942 0.85344 0.20365 0.0
C735 C 0.0785 0.84384 0.17568 0.0
C736 C 0.06505 0.80939 0.16306 0.0
C737 C 0.87722 0.63208 0.1165 0.0
C738 C 0.86944 0.64102 0.07358 0.0
C739 C 0.91044 0.65008 0.13446 0.0
C740 C 0.9368 0.67729 0.10989 0.0
C741 C 0.92918 0.68693 0.06743 0.0
C742 C 0.89568 0.66891 0.04937 0.0
C743 C 0.97199 0.69571 0.12958 0.0
C744 C 0.98584 0.72992 0.14429 0.0
C745 C 0.99121 0.67897 0.13605 0.0
C746 C 0.97998 0.64443 0.11716 0.0
C747 C 0.99152 0.64137 0.07358 0.0
C748 C 0.98373 0.60907 0.05694 0.0
C749 C 0.96385 0.57961 0.08327 0.0
C750 C 0.95206 0.58246 0.12661 0.0
C751 C 0.96047 0.61485 0.14384 0.0
H752 H 0.95781 0.55465 0.07014 0.0
H753 H 0.06987 0.88012 0.21337 0.0
H754 H 0.31633 0.12244 0.60767 0.0
H755 H 0.28803 0.07641 0.55058 0.0
H756 H 0.35796 0.03986 0.58457 0.0
H757 H 0.38815 0.0875 0.63761 0.0
H758 H 0.35258 0.03782 0.49929 0.0
H759 H 0.26962 8e-05 0.62138 0.0
H760 H 0.23044 0.0046 0.67669 0.0
H761 H 0.17375 0.01571 0.5655 0.0
H762 H 0.21273 0.01155 0.50945 0.0
H763 H 0.20806 0.85554 0.4295 0.0
H764 H 0.2279 0.90451 0.48183 0.0
H765 H 0.28549 0.97341 0.37108 0.0
H766 H 0.26768 0.92431 0.32002 0.0
H767 H 0.22615 0.96005 0.4932 0.0
H768 H 0.359 0.03762 0.40564 0.0
H769 H 0.39802 0.02686 0.35778 0.0
H770 H 0.35647 0.92592 0.41608 0.0
H771 H 0.31736 0.93612 0.46453 0.0
C772 C 0.32608 0.10503 0.60201 0.0
C773 C 0.35495 0.10915 0.62628 0.0
C774 C 0.30948 0.07829 0.57006 0.0
C775 C 0.32072 0.05443 0.56322 0.0
C776 C 0.34892 0.05802 0.58868 0.0
C777 C 0.36598 0.08517 0.6195 0.0
C778 C 0.30389 0.02603 0.52907 0.0
C779 C 0.32491 0.0209 0.49808 0.0
C780 C 0.26782 0.00351 0.52758 0.0
C781 C 0.24427 0.00583 0.56123 0.0
C782 C 0.24892 0.0037 0.60872 0.0
C783 C 0.22675 0.00618 0.64021 0.0
C784 C 0.19973 0.01057 0.62464 0.0
C785 C 0.19473 0.01237 0.57751 0.0
C786 C 0.21681 0.0099 0.54586 0.0
C787 C 0.22475 0.88116 0.41636 0.0
C788 C 0.23695 0.88608 0.371 0.0
C789 C 0.23597 0.9092 0.44621 0.0
C790 C 0.25899 0.94268 0.43081 0.0
C791 C 0.2687 0.94778 0.38429 0.0
C792 C 0.2584 0.91968 0.35498 0.0
C793 C 0.27492 0.97177 0.46403 0.0
C794 C 0.25379 0.97711 0.49452 0.0
C795 C 0.31106 0.99363 0.46655 0.0
C796 C 0.33514 0.9876 0.43848 0.0
C797 C 0.35836 0.01322 0.40844 0.0
C798 C 0.38044 0.0072 0.38117 0.0
C799 C 0.37976 0.97577 0.38396 0.0
C800 C 0.35696 0.95025 0.41397 0.0
C801 C 0.33482 0.95613 0.44132 0.0
H802 H 0.39694 0.97121 0.3629 0.0
H803 H 0.18262 0.0125 0.64909 0.0
H804 H 0.17051 0.38915 0.69168 0.0
H805 H 0.18536 0.38313 0.61251 0.0
H806 H 0.14395 0.44611 0.56458 0.0
H807 H 0.12863 0.45172 0.64342 0.0
H808 H 0.12326 0.39169 0.51033 0.0
H809 H 0.23208 0.47715 0.57547 0.0
H810 H 0.2788 0.49882 0.63295 0.0
H811 H 0.29776 0.41646 0.60009 0.0
H812 H 0.2508 0.39399 0.54291 0.0
H813 H 0.19819 0.43251 0.28609 0.0
H814 H 0.1781 0.43174 0.36462 0.0
H815 H 0.22516 0.37308 0.40935 0.0
H816 H 0.24578 0.37443 0.33127 0.0
H817 H 0.24203 0.42319 0.46587 0.0
H818 H 0.13524 0.33789 0.40008 0.0
H819 H 0.08609 0.31247 0.34628 0.0
H820 H 0.06167 0.39071 0.38152 0.0
H821 H 0.11091 0.41687 0.4351 0.0
C822 C 0.16487 0.40194 0.66427 0.0
C823 C 0.14837 0.42087 0.67378 0.0
C824 C 0.17333 0.39847 0.61901 0.0
C825 C 0.16601 0.41438 0.58248 0.0
C826 C 0.14971 0.43344 0.59205 0.0
C827 C 0.14098 0.43665 0.63715 0.0
C828 C 0.17519 0.41123 0.53424 0.0
C829 C 0.14932 0.39898 0.50042 0.0
C830 C 0.20897 0.41975 0.52154 0.0
C831 C 0.23773 0.43373 0.55518 0.0
C832 C 0.24611 0.46357 0.58066 0.0
C833 C 0.27264 0.476 0.61318 0.0
C834 C 0.29119 0.45899 0.62022 0.0
C835 C 0.28335 0.42959 0.59462 0.0
C836 C 0.2568 0.41702 0.56213 0.0
C837 C 0.20375 0.41901 0.31258 0.0
C838 C 0.22373 0.40372 0.30259 0.0
C839 C 0.1922 0.41851 0.35748 0.0
C840 C 0.19993 0.4022 0.39309 0.0
C841 C 0.219 0.38602 0.38269 0.0
C842 C 0.2308 0.38681 0.33803 0.0
C843 C 0.1901 0.40373 0.44162 0.0
C844 C 0.2159 0.41578 0.47557 0.0
C845 C 0.15617 0.39475 0.45444 0.0
C846 C 0.12704 0.37957 0.42129 0.0
C847 C 0.11964 0.34991 0.39599 0.0
C848 C 0.09169 0.33531 0.36562 0.0
C849 C 0.07084 0.35003 0.36039 0.0
C850 C 0.07788 0.37938 0.38553 0.0
C851 C 0.10579 0.39408 0.41593 0.0
H852 H 0.04918 0.33867 0.33697 0.0
H853 H 0.31169 0.46862 0.64545 0.0
H854 H 0.87952 0.23756 0.039 0.0
H855 H 0.87539 0.24816 0.95762 0.0
H856 H 0.7665 0.20929 0.97261 0.0
H857 H 0.77019 0.19721 0.05388 0.0
H858 H 0.77769 0.1839 0.89689 0.0
H859 H 0.82506 0.29709 0.96034 0.0
H860 H 0.86548 0.34811 1.00527 0.0
H861 H 0.94931 0.35991 0.92133 0.0
H862 H 0.90938 0.30873 0.87606 0.0
H863 H 0.75095 0.24359 0.68441 0.0
H864 H 0.75614 0.23315 0.76526 0.0
H865 H 0.86492 0.27247 0.7478 0.0
H866 H 0.86034 0.2852 0.66709 0.0
H867 H 0.85424 0.29707 0.82442 0.0
H868 H 0.80386 0.18353 0.75829 0.0
H869 H 0.76072 0.136 0.71052 0.0
H870 H 0.68016 0.12632 0.79953 0.0
H871 H 0.72272 0.17412 0.84746 0.0
C872 C 0.85461 0.23111 0.02507 0.0
C873 C 0.82516 0.21639 0.05324 0.0
C874 C 0.85235 0.23754 0.97845 0.0
C875 C 0.82067 0.22984 0.95875 0.0
C876 C 0.79127 0.21551 0.98685 0.0
C877 C 0.79349 0.20896 0.03354 0.0
C878 C 0.81817 0.23607 0.90873 0.0
C879 C 0.79419 0.20877 0.88121 0.0
C880 C 0.8401 0.26829 0.88774 0.0
C881 C 0.86426 0.29892 0.91504 0.0
C882 C 0.85215 0.31042 0.95166 0.0
C883 C 0.87495 0.33941 0.97712 0.0
C884 C 0.90992 0.35726 0.96612 0.0
C885 C 0.92219 0.34609 0.92973 0.0
C886 C 0.89948 0.31712 0.90412 0.0
C887 C 0.77612 0.25032 0.69761 0.0
C888 C 0.80527 0.2655 0.66889 0.0
C889 C 0.77896 0.24387 0.74398 0.0
C890 C 0.81086 0.25153 0.76283 0.0
C891 C 0.83997 0.2662 0.73419 0.0
C892 C 0.83723 0.27309 0.68778 0.0
C893 C 0.81384 0.24492 0.81257 0.0
C894 C 0.83792 0.27213 0.84003 0.0
C895 C 0.79185 0.21268 0.83352 0.0
C896 C 0.76648 0.18258 0.8063 0.0
C897 C 0.77694 0.17126 0.76768 0.0
C898 C 0.75259 0.14432 0.74053 0.0
C899 C 0.71773 0.12827 0.75189 0.0
C900 C 0.70718 0.13883 0.79074 0.0
C901 C 0.73141 0.16581 0.81797 0.0
H902 H 0.69888 0.10772 0.73056 0.0
H903 H 0.92747 0.37981 0.98573 0.0
H904 H 0.59606 0.79171 0.38856 0.0
H905 H 0.61338 0.8056 0.30781 0.0
H906 H 0.52095 0.71388 0.26509 0.0
H907 H 0.50396 0.69958 0.34538 0.0
H908 H 0.57611 0.72331 0.21528 0.0
H909 H 0.52689 0.79305 0.26416 0.0
H910 H 0.52352 0.83591 0.31365 0.0
H911 H 0.62641 0.91171 0.27554 0.0
H912 H 0.63063 0.86913 0.2265 0.0
H913 H 0.56183 0.7586 0.98159 0.0
H914 H 0.55092 0.74668 0.06389 0.0
H915 H 0.64266 0.84264 0.09549 0.0
H916 H 0.65337 0.85498 0.01343 0.0
H917 H 0.592 0.83298 0.15192 0.0
H918 H 0.64348 0.76791 0.10397 0.0
H919 H 0.65248 0.72682 0.05819 0.0
H920 H 0.55206 0.64518 0.0957 0.0
H921 H 0.54235 0.68585 0.14152 0.0
C922 C 0.57973 0.77426 0.36196 0.0
C923 C 0.54846 0.74472 0.37339 0.0
C924 C 0.5895 0.78236 0.3158 0.0
C925 C 0.5682 0.76105 0.28025 0.0
C926 C 0.53773 0.73083 0.29179 0.0
C927 C 0.52793 0.72281 0.33774 0.0
C928 C 0.57673 0.77052 0.23095 0.0
C929 C 0.57921 0.74712 0.20133 0.0
C930 C 0.58192 0.80211 0.21292 0.0
C931 C 0.5792 0.82779 0.24204 0.0
C932 C 0.54889 0.81878 0.26662 0.0
C933 C 0.54683 0.84304 0.29458 0.0
C934 C 0.57479 0.87648 0.2979 0.0
C935 C 0.60482 0.88578 0.2731 0.0
C936 C 0.60706 0.8616 0.2452 0.0
C937 C 0.57937 0.77744 0.00604 0.0
C938 C 0.60863 0.80763 0.99081 0.0
C939 C 0.57333 0.7704 0.05313 0.0
C940 C 0.59628 0.7935 0.08599 0.0
C941 C 0.62471 0.82429 0.07089 0.0
C942 C 0.63089 0.83122 0.02389 0.0
C943 C 0.59081 0.7855 0.13605 0.0
C944 C 0.58895 0.80918 0.16581 0.0
C945 C 0.58676 0.75443 0.15436 0.0
C946 C 0.59208 0.73 0.1259 0.0
C947 C 0.62319 0.74126 0.10215 0.0
C948 C 0.6285 0.71801 0.0764 0.0
C949 C 0.6029 0.6834 0.07416 0.0
C950 C 0.5719 0.67199 0.09757 0.0
C951 C 0.5665 0.69511 0.12351 0.0
H952 H 0.60705 0.66546 0.05415 0.0
H953 H 0.57316 0.89523 0.31957 0.0
H954 H 0.84641 0.65594 0.69138 0.0
H955 H 0.83261 0.64318 0.60995 0.0
H956 H 0.7409 0.54863 0.64518 0.0
H957 H 0.75308 0.56204 0.72688 0.0
H958 H 0.79136 0.54766 0.57333 0.0
H959 H 0.72237 0.59969 0.61222 0.0
H960 H 0.7141 0.64552 0.64574 0.0
H961 H 0.79036 0.71945 0.55452 0.0
H962 H 0.79922 0.67402 0.5206 0.0
H963 H 0.7085 0.49382 0.36002 0.0
H964 H 0.72015 0.50999 0.4409 0.0
H965 H 0.78991 0.61523 0.40212 0.0
H966 H 0.77828 0.59913 0.32065 0.0
H967 H 0.75261 0.61287 0.47609 0.0
H968 H 0.8206 0.56332 0.43389 0.0
H969 H 0.83416 0.52064 0.40179 0.0
H970 H 0.7668 0.44571 0.49978 0.0
H971 H 0.75233 0.48777 0.532 0.0
C972 C 0.82299 0.63264 0.68212 0.0
C973 C 0.80084 0.61014 0.71619 0.0
C974 C 0.81531 0.62532 0.63542 0.0
C975 C 0.78573 0.59503 0.62166 0.0
C976 C 0.76393 0.57211 0.65521 0.0
C977 C 0.77117 0.57973 0.70197 0.0
C978 C 0.77774 0.58727 0.57213 0.0
C979 C 0.78236 0.56148 0.55211 0.0
C980 C 0.76731 0.6063 0.54436 0.0
C981 C 0.76168 0.63354 0.56417 0.0
C982 C 0.73753 0.62576 0.5995 0.0
C983 C 0.73265 0.65163 0.61847 0.0
C984 C 0.75177 0.6854 0.60238 0.0
C985 C 0.77561 0.69329 0.56701 0.0
C986 C 0.7805 0.66747 0.5478 0.0
C987 C 0.72633 0.52045 0.36861 0.0
C988 C 0.7428 0.5451 0.33379 0.0
C989 C 0.73296 0.52966 0.41494 0.0
C990 C 0.75644 0.56371 0.42771 0.0
C991 C 0.7718 0.58877 0.39314 0.0
C992 C 0.76507 0.57955 0.34659 0.0
C993 C 0.76559 0.57262 0.47705 0.0
C994 C 0.76144 0.59883 0.49712 0.0
C995 C 0.77698 0.55426 0.50484 0.0
C996 C 0.78515 0.52864 0.48511 0.0
C997 C 0.80841 0.53764 0.44833 0.0
C998 C 0.81634 0.51359 0.43019 0.0
C999 C 0.80144 0.48053 0.44884 0.0
C1000 C 0.77841 0.47138 0.48549 0.0
C1001 C 0.77032 0.49531 0.50368 0.0
H1002 H 0.80765 0.46196 0.43479 0.0
H1003 H 0.74806 0.70542 0.61727 0.0
H1004 H 0.13022 0.75827 0.66246 0.0
H1005 H 0.15213 0.76026 0.73991 0.0
H1006 H 0.2558 0.82587 0.69187 0.0
H1007 H 0.23382 0.82387 0.61368 0.0
H1008 H 0.25215 0.77848 0.75503 0.0
H1009 H 0.21387 0.86061 0.74591 0.0
H1010 H 0.17297 0.88069 0.72876 0.0
H1011 H 0.10157 0.80886 0.82649 0.0
H1012 H 0.14186 0.78799 0.84375 0.0
H1013 H 0.32502 0.83713 0.97505 0.0
H1014 H 0.30546 0.83564 0.89627 0.0
H1015 H 0.2001 0.77347 0.94017 0.0
H1016 H 0.21968 0.77519 0.01958 0.0
H1017 H 0.2058 0.82029 0.87836 0.0
H1018 H 0.24389 0.73774 0.88693 0.0
H1019 H 0.28469 0.71746 0.90374 0.0
H1020 H 0.35646 0.78997 0.80694 0.0
H1021 H 0.31628 0.81104 0.79003 0.0
C1022 C 0.15774 0.77295 0.66824 0.0
C1023 C 0.18025 0.79134 0.63202 0.0
C1024 C 0.17023 0.77412 0.71262 0.0
C1025 C 0.20556 0.7939 0.72209 0.0
C1026 C 0.2284 0.81065 0.6855 0.0
C1027 C 0.21585 0.8094 0.6408 0.0
C1028 C 0.21816 0.79795 0.77048 0.0
C1029 C 0.24241 0.78811 0.78186 0.0
C1030 C 0.20494 0.80983 0.80584 0.0
C1031 C 0.18076 0.82253 0.79582 0.0
C1032 C 0.18935 0.84892 0.76351 0.0
C1033 C 0.16629 0.86047 0.7538 0.0
C1034 C 0.13466 0.846 0.77644 0.0
C1035 C 0.12606 0.82002 0.80894 0.0
C1036 C 0.14901 0.80834 0.81873 0.0
C1037 C 0.29765 0.82321 0.96801 0.0
C1038 C 0.27391 0.80592 1.00355 0.0
C1039 C 0.28649 0.82229 0.92285 0.0
C1040 C 0.25132 0.80374 0.91188 0.0
C1041 C 0.2274 0.78776 0.94763 0.0
C1042 C 0.23859 0.78885 0.99306 0.0
C1043 C 0.23968 0.80063 0.86306 0.0
C1044 C 0.21561 0.8107 0.85157 0.0
C1045 C 0.25309 0.78896 0.82763 0.0
C1046 C 0.27721 0.77619 0.83755 0.0
C1047 C 0.26848 0.74953 0.86947 0.0
C1048 C 0.29148 0.73787 0.87899 0.0
C1049 C 0.32318 0.75247 0.85651 0.0
C1050 C 0.33191 0.77871 0.82437 0.0
C1051 C 0.30903 0.79051 0.81479 0.0
H1052 H 0.34095 0.74341 0.86391 0.0
H1053 H 0.11684 0.85497 0.76887 0.0
H1054 H 0.35324 0.11813 0.37711 0.0
H1055 H 0.368 0.12166 0.29564 0.0
H1056 H 0.43388 0.23154 0.30816 0.0
H1057 H 0.4184 0.22837 0.3893 0.0
H1058 H 0.39301 0.21494 0.23292 0.0
H1059 H 0.46812 0.17836 0.29972 0.0
H1060 H 0.4815 0.14078 0.34678 0.0
H1061 H 0.41403 0.0539 0.2633 0.0
H1062 H 0.40012 0.09096 0.21582 0.0
H1063 H 0.48097 0.24783 0.021 0.0
H1064 H 0.46552 0.24251 0.10221 0.0
H1065 H 0.40572 0.13213 0.08779 0.0
H1066 H 0.42251 0.13713 0.00702 0.0
H1067 H 0.44194 0.14767 0.16385 0.0
H1068 H 0.3677 0.18298 0.09544 0.0
H1069 H 0.35263 0.21915 0.04806 0.0
H1070 H 0.41488 0.30622 0.13434 0.0
H1071 H 0.43074 0.2707 0.18189 0.0
C1072 C 0.37083 0.14306 0.36252 0.0
C1073 C 0.38462 0.17298 0.38977 0.0
C1074 C 0.37946 0.14501 0.31601 0.0
C1075 C 0.40223 0.17685 0.29581 0.0
C1076 C 0.41629 0.2067 0.323 0.0
C1077 C 0.40768 0.20478 0.36952 0.0
C1078 C 0.41081 0.17919 0.24611 0.0
C1079 C 0.40416 0.20062 0.21789 0.0
C1080 C 0.4243 0.15963 0.22624 0.0
C1081 C 0.43292 0.13739 0.25442 0.0
C1082 C 0.45602 0.15122 0.29153 0.0
C1083 C 0.46373 0.13003 0.31824 0.0
C1084 C 0.4486 0.09499 0.30807 0.0
C1085 C 0.42576 0.08106 0.2711 0.0
C1086 C 0.41802 0.10216 0.24421 0.0
C1087 C 0.46478 0.22237 0.03515 0.0
C1088 C 0.45305 0.1929 0.00739 0.0
C1089 C 0.45561 0.21939 0.08153 0.0
C1090 C 0.43407 0.18693 0.10111 0.0
C1091 C 0.42227 0.15746 0.0735 0.0
C1092 C 0.43162 0.1604 0.02715 0.0
C1093 C 0.42442 0.18369 0.15056 0.0
C1094 C 0.43078 0.16203 0.17876 0.0
C1095 C 0.41035 0.20281 0.17033 0.0
C1096 C 0.40067 0.22422 0.142 0.0
C1097 C 0.37838 0.2099 0.10413 0.0
C1098 C 0.36967 0.23028 0.07726 0.0
C1099 C 0.38286 0.26498 0.0881 0.0
C1100 C 0.40472 0.27935 0.12594 0.0
C1101 C 0.41355 0.25909 0.1529 0.0
H1102 H 0.37611 0.28072 0.06724 0.0
H1103 H 0.45464 0.07866 0.32877 0.0
H1104 H 0.15875 0.45937 0.10889 0.0
H1105 H 0.15922 0.50668 0.15165 0.0
H1106 H 0.20875 0.57495 0.03733 0.0
H1107 H 0.20795 0.52774 0.99408 0.0
H1108 H 0.24177 0.59873 0.12625 0.0
H1109 H 0.13004 0.5507 0.05402 0.0
H1110 H 0.0719 0.50332 0.03515 0.0
H1111 H 0.04619 0.48855 0.17862 0.0
H1112 H 0.10446 0.53538 0.19845 0.0
H1113 H 0.24438 0.74591 0.20975 0.0
H1114 H 0.23536 0.69774 0.16161 0.0
H1115 H 0.15861 0.62714 0.25661 0.0
H1116 H 0.16532 0.67577 0.30238 0.0
H1117 H 0.13855 0.60303 0.1773 0.0
H1118 H 0.24714 0.64484 0.25291 0.0
H1119 H 0.30539 0.68885 0.27766 0.0
H1120 H 0.33725 0.71096 0.13668 0.0
H1121 H 0.27908 0.66727 0.11109 0.0
C1122 C 0.1694 0.48438 0.0927 0.0
C1123 C 0.18331 0.48989 0.04817 0.0
C1124 C 0.16958 0.51131 0.11711 0.0
C1125 C 0.18404 0.54422 0.09757 0.0
C1126 C 0.19748 0.54968 0.0529 0.0
C1127 C 0.1968 0.52265 0.02818 0.0
C1128 C 0.18651 0.57336 0.12448 0.0
C1129 C 0.21928 0.6 0.13694 0.0
C1130 C 0.15703 0.57414 0.13976 0.0
C1131 C 0.12176 0.5464 0.12775 0.0
C1132 C 0.1121 0.53719 0.08159 0.0
C1133 C 0.0791 0.51045 0.07071 0.0
C1134 C 0.05537 0.49296 0.10567 0.0
C1135 C 0.0646 0.50215 0.15158 0.0
C1136 C 0.09761 0.52879 0.16266 0.0
C1137 C 0.22541 0.72018 0.22018 0.0
C1138 C 0.20589 0.71468 0.26017 0.0
C1139 C 0.22046 0.69251 0.19284 0.0
C1140 C 0.19706 0.65852 0.20608 0.0
C1141 C 0.177 0.65301 0.24565 0.0
C1142 C 0.18107 0.68086 0.2721 0.0
C1143 C 0.19403 0.62886 0.17911 0.0
C1144 C 0.16116 0.60197 0.16672 0.0
C1145 C 0.22344 0.62732 0.16482 0.0
C1146 C 0.2587 0.65295 0.1801 0.0
C1147 C 0.26656 0.65914 0.2272 0.0
C1148 C 0.29956 0.68403 0.24137 0.0
C1149 C 0.32499 0.70272 0.20876 0.0
C1150 C 0.31752 0.69645 0.1619 0.0
C1151 C 0.28457 0.67158 0.14754 0.0
H1152 H 0.3505 0.72203 0.21979 0.0
H1153 H 0.02982 0.47231 0.09719 0.0
H1154 H 0.74171 0.24307 0.48004 0.0
H1155 H 0.69166 0.22967 0.52669 0.0
H1156 H 0.62658 0.15054 0.43038 0.0
H1157 H 0.67716 0.16299 0.38411 0.0
H1158 H 0.60305 0.19781 0.45993 0.0
H1159 H 0.64189 0.12408 0.52321 0.0
H1160 H 0.68396 0.10978 0.55584 0.0
H1161 H 0.70354 0.17947 0.66791 0.0
H1162 H 0.66196 0.19464 0.63564 0.0
H1163 H 0.45793 0.13992 0.59678 0.0
H1164 H 0.50298 0.13666 0.55386 0.0
H1165 H 0.57821 0.20277 0.654 0.0
H1166 H 0.53261 0.20478 0.69821 0.0
H1167 H 0.59475 0.15718 0.62074 0.0
H1168 H 0.56277 0.23574 0.55756 0.0
H1169 H 0.5222 0.25316 0.52809 0.0
H1170 H 0.49347 0.18026 0.41774 0.0
H1171 H 0.53346 0.16191 0.44705 0.0
C1172 C 0.71684 0.22286 0.46853 0.0
C1173 C 0.71351 0.20434 0.42796 0.0
C1174 C 0.68824 0.21518 0.49539 0.0
C1175 C 0.65556 0.18891 0.48219 0.0
C1176 C 0.65172 0.17093 0.44106 0.0
C1177 C 0.68056 0.17837 0.41434 0.0
C1178 C 0.62561 0.18079 0.51156 0.0
C1179 C 0.60075 0.1882 0.49475 0.0
C1180 C 0.62355 0.16948 0.55751 0.0
C1181 C 0.64892 0.16069 0.57677 0.0
C1182 C 0.6554 0.13665 0.55455 0.0
C1183 C 0.67914 0.12834 0.57302 0.0
C1184 C 0.69648 0.14379 0.61382 0.0
C1185 C 0.69014 0.16759 0.63625 0.0
C1186 C 0.66644 0.17601 0.61792 0.0
C1187 C 0.48399 0.15306 0.61012 0.0
C1188 C 0.49209 0.17287 0.65036 0.0
C1189 C 0.50968 0.15129 0.58557 0.0
C1190 C 0.54409 0.17024 0.60005 0.0
C1191 C 0.55185 0.18809 0.64209 0.0
C1192 C 0.52589 0.18924 0.66731 0.0
C1193 C 0.57206 0.17412 0.5691 0.0
C1194 C 0.59671 0.16626 0.58571 0.0
C1195 C 0.5744 0.1857 0.52316 0.0
C1196 C 0.5509 0.19722 0.50476 0.0
C1197 C 0.54768 0.22328 0.52714 0.0
C1198 C 0.52478 0.23331 0.51049 0.0
C1199 C 0.50524 0.21778 0.47111 0.0
C1200 C 0.50862 0.19223 0.44826 0.0
C1201 C 0.5314 0.182 0.46488 0.0
H1202 H 0.48759 0.22563 0.45819 0.0
H1203 H 0.71475 0.13724 0.62815 0.0
H1204 H 0.26319 0.52976 0.92994 0.0
H1205 H 0.3107 0.57263 0.88424 0.0
H1206 H 0.36014 0.5113 0.88942 0.0
H1207 H 0.31261 0.46831 0.9367 0.0
H1208 H 0.40731 0.58107 0.89291 0.0
H1209 H 0.31344 0.50517 0.7971 0.0
H1210 H 0.25293 0.47212 0.77184 0.0
H1211 H 0.25109 0.56601 0.75198 0.0
H1212 H 0.31143 0.59963 0.77782 0.0
H1213 H 0.50868 0.67157 0.69804 0.0
H1214 H 0.46233 0.62147 0.73694 0.0
H1215 H 0.41685 0.68218 0.77811 0.0
H1216 H 0.46349 0.73267 0.74003 0.0
H1217 H 0.36928 0.60701 0.74509 0.0
H1218 H 0.4604 0.68037 0.85445 0.0
H1219 H 0.52286 0.71435 0.86929 0.0
H1220 H 0.53067 0.6232 0.85595 0.0
H1221 H 0.46823 0.58876 0.84026 0.0
C1222 C 0.28434 0.52552 0.92186 0.0
C1223 C 0.28393 0.4954 0.93601 0.0
C1224 C 0.31147 0.55004 0.8957 0.0
C1225 C 0.33842 0.54465 0.88232 0.0
C1226 C 0.33936 0.51574 0.89901 0.0
C1227 C 0.31226 0.49125 0.92592 0.0
C1228 C 0.36397 0.56825 0.84843 0.0
C1229 C 0.39901 0.58626 0.86033 0.0
C1230 C 0.35321 0.57508 0.80573 0.0
C1231 C 0.31695 0.55493 0.78967 0.0
C1232 C 0.30008 0.51878 0.78761 0.0
C1233 C 0.2658 0.49993 0.77316 0.0
C1234 C 0.24817 0.51696 0.76035 0.0
C1235 C 0.26479 0.55286 0.7619 0.0
C1236 C 0.29904 0.57183 0.7764 0.0
C1237 C 0.48833 0.67404 0.71434 0.0
C1238 C 0.48971 0.70602 0.71626 0.0
C1239 C 0.46197 0.64544 0.73657 0.0
C1240 C 0.43639 0.64833 0.76032 0.0
C1241 C 0.4364 0.67958 0.75971 0.0
C1242 C 0.46309 0.70836 0.73822 0.0
C1243 C 0.41203 0.62013 0.79026 0.0
C1244 C 0.37738 0.60134 0.7775 0.0
C1245 C 0.42315 0.61233 0.83173 0.0
C1246 C 0.45976 0.63206 0.846 0.0
C1247 C 0.47543 0.66756 0.85492 0.0
C1248 C 0.5108 0.68691 0.8633 0.0
C1249 C 0.53071 0.67096 0.86325 0.0
C1250 C 0.51518 0.6355 0.8558 0.0
C1251 C 0.47979 0.61604 0.84725 0.0
H1252 H 0.55818 0.68615 0.86877 0.0
H1253 H 0.22166 0.50237 0.74913 0.0
H1254 H 0.82156 0.3387 0.37342 0.0
H1255 H 0.82128 0.38712 0.33401 0.0
H1256 H 0.7658 0.32056 0.22042 0.0
H1257 H 0.76519 0.27246 0.25902 0.0
H1258 H 0.82898 0.38225 0.1974 0.0
H1259 H 0.72536 0.34101 0.28487 0.0
H1260 H 0.68857 0.32655 0.35335 0.0
H1261 H 0.74299 0.43224 0.396 0.0
H1262 H 0.78143 0.4472 0.32896 0.0
H1263 H 0.7684 0.46856 0.05239 0.0
H1264 H 0.77516 0.42821 0.10194 0.0
H1265 H 0.81782 0.50511 0.20878 0.0
H1266 H 0.81194 0.5457 0.15923 0.0
H1267 H 0.76702 0.44353 0.24103 0.0
H1268 H 0.86937 0.48517 0.15305 0.0
H1269 H 0.90674 0.49981 0.08509 0.0
H1270 H 0.85314 0.39412 0.04224 0.0
H1271 H 0.81495 0.37881 0.10962 0.0
C1272 C 0.80887 0.3343 0.34037 0.0
C1273 C 0.79357 0.30161 0.31947 0.0
C1274 C 0.80873 0.36195 0.31797 0.0
C1275 C 0.79366 0.35731 0.27427 0.0
C1276 C 0.77766 0.32464 0.25406 0.0
C1277 C 0.77731 0.29709 0.27647 0.0
C1278 C 0.7961 0.3865 0.24758 0.0
C1279 C 0.81525 0.39555 0.20674 0.0
C1280 C 0.77889 0.40434 0.26063 0.0
C1281 C 0.75694 0.39507 0.30232 0.0
C1282 C 0.73023 0.36106 0.30946 0.0
C1283 C 0.709 0.35279 0.34803 0.0
C1284 C 0.71376 0.37841 0.37934 0.0
C1285 C 0.73976 0.41237 0.37212 0.0
C1286 C 0.76137 0.42073 0.33393 0.0
C1287 C 0.77994 0.47711 0.08595 0.0
C1288 C 0.78988 0.51042 0.10157 0.0
C1289 C 0.78364 0.454 0.11437 0.0
C1290 C 0.79716 0.46376 0.15899 0.0
C1291 C 0.80738 0.49708 0.17448 0.0
C1292 C 0.80397 0.52023 0.14601 0.0
C1293 C 0.79921 0.43873 0.19021 0.0
C1294 C 0.78102 0.43051 0.23188 0.0
C1295 C 0.81722 0.42156 0.17797 0.0
C1296 C 0.83912 0.43088 0.1363 0.0
C1297 C 0.86524 0.46509 0.12888 0.0
C1298 C 0.88671 0.47348 0.09058 0.0
C1299 C 0.8825 0.44788 0.05956 0.0
C1300 C 0.8565 0.41388 0.06646 0.0
C1301 C 0.83492 0.40533 0.10469 0.0
H1302 H 0.89928 0.45442 0.03005 0.0
H1303 H 0.69711 0.37201 0.40897 0.0
H1304 H 0.31897 0.78938 0.34393 0.0
H1305 H 0.36362 0.79256 0.39572 0.0
H1306 H 0.35052 0.86233 0.48395 0.0
H1307 H 0.30464 0.85805 0.4333 0.0
H1308 H 0.42748 0.87197 0.45188 0.0
H1309 H 0.31959 0.80734 0.53365 0.0
H1310 H 0.25858 0.76319 0.54274 0.0
H1311 H 0.28194 0.68439 0.50618 0.0
H1312 H 0.34295 0.72832 0.49515 0.0
H1313 H 0.51649 0.85139 0.64539 0.0
H1314 H 0.47526 0.86035 0.60049 0.0
H1315 H 0.44308 0.76487 0.52863 0.0
H1316 H 0.48393 0.75578 0.57362 0.0
H1317 H 0.38825 0.77272 0.55805 0.0
H1318 H 0.4964 0.83766 0.47799 0.0
H1319 H 0.55763 0.88179 0.47051 0.0
H1320 H 0.53428 0.96047 0.50767 0.0
H1321 H 0.47294 0.91672 0.51608 0.0
C1322 C 0.32607 0.80593 0.37386 0.0
C1323 C 0.30827 0.82333 0.38481 0.0
C1324 C 0.35142 0.80758 0.40348 0.0
C1325 C 0.35998 0.82736 0.44379 0.0
C1326 C 0.344 0.84672 0.45314 0.0
C1327 C 0.3179 0.84428 0.42424 0.0
C1328 C 0.3839 0.82568 0.47735 0.0
C1329 C 0.41891 0.85067 0.47576 0.0
C1330 C 0.37263 0.79758 0.5079 0.0
C1331 C 0.33573 0.77123 0.51263 0.0
C1332 C 0.31161 0.78072 0.52647 0.0
C1333 C 0.27705 0.7557 0.53225 0.0
C1334 C 0.26639 0.721 0.52507 0.0
C1335 C 0.29025 0.71128 0.51181 0.0
C1336 C 0.32478 0.73625 0.50552 0.0
C1337 C 0.50028 0.83213 0.62042 0.0
C1338 C 0.5034 0.80284 0.61285 0.0
C1339 C 0.47699 0.83743 0.59455 0.0
C1340 C 0.45631 0.81339 0.561 0.0
C1341 C 0.45886 0.78378 0.55425 0.0
C1342 C 0.48233 0.77869 0.57972 0.0
C1343 C 0.43201 0.8189 0.53256 0.0
C1344 C 0.39686 0.79439 0.53478 0.0
C1345 C 0.4432 0.8476 0.50296 0.0
C1346 C 0.48012 0.87386 0.49816 0.0
C1347 C 0.50436 0.86433 0.48503 0.0
C1348 C 0.53908 0.88928 0.4805 0.0
C1349 C 0.54983 0.92391 0.48863 0.0
C1350 C 0.5259 0.93364 0.50139 0.0
C1351 C 0.49116 0.90878 0.50603 0.0
H1352 H 0.5767 0.94323 0.48492 0.0
H1353 H 0.23964 0.70165 0.52967 0.0
H1354 H 0.69451 0.45644 0.02006 0.0
H1355 H 0.64873 0.40725 0.97798 0.0
H1356 H 0.61628 0.47405 0.91708 0.0
H1357 H 0.66314 0.52349 0.95722 0.0
H1358 H 0.56116 0.39531 0.95261 0.0
H1359 H 0.65759 0.47036 0.85189 0.0
H1360 H 0.71953 0.50399 0.8342 0.0
H1361 H 0.72752 0.41291 0.84712 0.0
H1362 H 0.6658 0.37896 0.86647 0.0
H1363 H 0.46938 0.30351 0.7537 0.0
H1364 H 0.50919 0.35091 0.80348 0.0
H1365 H 0.56622 0.2986 0.82898 0.0
H1366 H 0.52667 0.25127 0.77898 0.0
H1367 H 0.6084 0.36927 0.81373 0.0
H1368 H 0.51379 0.29314 0.90848 0.0
H1369 H 0.45245 0.25719 0.92844 0.0
H1370 H 0.44102 0.34667 0.92829 0.0
H1371 H 0.50228 0.38311 0.90778 0.0
C1372 C 0.67682 0.46026 0.99884 0.0
C1373 C 0.68197 0.49342 0.99176 0.0
C1374 C 0.65087 0.43231 0.97479 0.0
C1375 C 0.62931 0.4372 0.94448 0.0
C1376 C 0.63263 0.46987 0.94052 0.0
C1377 C 0.65925 0.49797 0.9634 0.0
C1378 C 0.60658 0.40944 0.91252 0.0
C1379 C 0.57131 0.38981 0.92197 0.0
C1380 C 0.62015 0.40192 0.87321 0.0
C1381 C 0.65722 0.42226 0.86143 0.0
C1382 C 0.67266 0.45761 0.85173 0.0
C1383 C 0.70771 0.47672 0.84126 0.0
C1384 C 0.72746 0.46061 0.83964 0.0
C1385 C 0.71218 0.42535 0.8484 0.0
C1386 C 0.6772 0.4062 0.85931 0.0
C1387 C 0.49066 0.30233 0.76949 0.0
C1388 C 0.49463 0.27345 0.76323 0.0
C1389 C 0.51322 0.32929 0.79809 0.0
C1390 C 0.5403 0.32796 0.82043 0.0
C1391 C 0.54533 0.29997 0.81232 0.0
C1392 C 0.52259 0.27287 0.78409 0.0
C1393 C 0.56273 0.35526 0.85335 0.0
C1394 C 0.59809 0.37476 0.84423 0.0
C1395 C 0.54923 0.36244 0.89311 0.0
C1396 C 0.51252 0.34079 0.90616 0.0
C1397 C 0.49813 0.3051 0.9124 0.0
C1398 C 0.4634 0.28465 0.92388 0.0
C1399 C 0.44283 0.29963 0.92951 0.0
C1400 C 0.45699 0.33511 0.92387 0.0
C1401 C 0.49173 0.35569 0.91238 0.0
H1402 H 0.41593 0.28376 0.93834 0.0
H1403 H 0.7546 0.47544 0.83159 0.0
loop_
_geom_bond_atom_site_label_1
_geom_bond_atom_site_label_2
_geom_bond_distance
_geom_bond_site_symmetry_2
_ccdc_geom_bond_type
Eu0 N29 2.600 . S
Eu0 N35 2.562 . S
Eu0 O44 2.462 . S
Eu0 O45 2.373 1_556 S
Eu0 O47 2.432 . S
Eu0 O48 2.291 . S
Eu0 O52 2.335 . S
Eu0 O55 2.372 . S
Eu0 C64 2.787 . S
C1 N2 1.365 . S
C1 C4 1.405 . S
C1 C8 1.448 . S
N2 C1 1.365 . S
N2 C5 1.319 . S
N2 Eu11 2.600 . S
C3 C5 1.397 . S
C3 C6 1.367 . S
C3 H23 0.931 . S
C4 C1 1.405 . S
C4 C6 1.403 . S
C4 C10 1.439 . S
C5 N2 1.319 . S
C5 C3 1.397 . S
C5 H16 0.930 . S
C6 C3 1.367 . S
C6 C4 1.403 . S
C6 H27 0.929 . S
C7 C8 1.430 . S
C7 C9 1.387 . S
C7 C13 1.404 . S
C8 C1 1.448 . S
C8 C7 1.430 . S
C8 N12 1.351 . S
C9 C7 1.387 . S
C9 C10 1.374 . S
C9 H24 0.931 . S
C10 C4 1.439 . S
C10 C9 1.374 . S
C10 H25 0.931 . S
Eu11 N2 2.600 . S
Eu11 N12 2.562 . S
Eu11 O46 2.335 . S
Eu11 O49 2.372 . S
Eu11 O50 2.462 . S
Eu11 O51 2.373 1_554 S
Eu11 O53 2.432 . S
Eu11 O54 2.291 . S
Eu11 C75 2.787 . S
N12 C8 1.351 . S
N12 Eu11 2.562 . S
N12 C14 1.325 . S
C13 C7 1.404 . S
C13 C15 1.366 . S
C13 H21 0.930 . S
C14 N12 1.325 . S
C14 C15 1.416 . S
C14 H20 0.929 . S
C15 C13 1.366 . S
C15 C14 1.416 . S
C15 H17 0.930 . S
H16 C5 0.930 . S
H17 C15 0.930 . S
H18 C33 0.930 . S
H19 C40 0.930 . S
H20 C14 0.929 . S
H21 C13 0.930 . S
H22 C36 0.929 . S
H23 C3 0.931 . S
H24 C9 0.931 . S
H25 C10 0.931 . S
H26 C31 0.931 . S
H27 C6 0.929 . S
H28 C39 0.930 . S
N29 Eu0 2.600 . S
N29 C30 1.365 . S
N29 C33 1.319 . S
C30 N29 1.365 . S
C30 C32 1.405 . S
C30 C38 1.448 . S
C31 H26 0.931 . S
C31 C33 1.397 . S
C31 C34 1.367 . S
C32 C30 1.405 . S
C32 C34 1.403 . S
C32 C65 1.439 . S
C33 H18 0.930 . S
C33 N29 1.319 . S
C33 C31 1.397 . S
C34 C31 1.367 . S
C34 C32 1.403 . S
C34 H41 0.929 . S
N35 Eu0 2.562 . S
N35 C36 1.325 . S
N35 C38 1.351 . S
C36 H22 0.929 . S
C36 N35 1.325 . S
C36 C40 1.416 . S
C37 C38 1.430 . S
C37 C39 1.404 . S
C37 C66 1.387 . S
C38 C30 1.448 . S
C38 N35 1.351 . S
C38 C37 1.430 . S
C39 H28 0.930 . S
C39 C37 1.404 . S
C39 C40 1.366 . S
C40 H19 0.930 . S
C40 C36 1.416 . S
C40 C39 1.366 . S
H41 C34 0.929 . S
H42 C65 0.931 . S
H43 C66 0.931 . S
O44 Eu0 2.462 . S
O44 C64 1.252 . S
O45 Eu0 2.373 1_554 S
O45 C56 1.249 . S
O46 Eu11 2.335 . S
O46 C56 1.264 . S
O47 Eu0 2.432 . S
O47 C64 1.268 . S
O48 Eu0 2.291 . S
O48 C63 1.255 . S
O49 Eu11 2.372 . S
O49 C63 1.257 1_554 S
O50 Eu11 2.462 . S
O50 C75 1.252 . S
O51 Eu11 2.373 1_556 S
O51 C67 1.249 . S
O52 Eu0 2.335 . S
O52 C67 1.264 . S
O53 Eu11 2.432 . S
O53 C75 1.268 . S
O54 Eu11 2.291 . S
O54 C74 1.255 . S
O55 Eu0 2.372 . S
O55 C74 1.257 1_556 S
C56 O45 1.249 . S
C56 O46 1.264 . S
C57 C60 1.382 . S
C57 C62 1.390 . S
C57 C64 1.506 . S
C58 C59 1.398 . S
C58 C62 1.392 . S
C59 C58 1.398 . S
C59 C61 1.372 . S
C59 H76 0.931 . S
C60 C57 1.382 . S
C60 C61 1.390 . S
C60 H77 0.931 . S
C61 C59 1.372 . S
C61 C60 1.390 . S
C61 H78 0.929 . S
C62 C57 1.390 . S
C62 C58 1.392 . S
C62 H79 0.930 . S
C63 O48 1.255 . S
C63 O49 1.257 1_556 S
C64 Eu0 2.787 . S
C64 O44 1.252 . S
C64 O47 1.268 . S
C64 C57 1.506 . S
C65 C32 1.439 . S
C65 H42 0.931 . S
C65 C66 1.374 . S
C66 C37 1.387 . S
C66 H43 0.931 . S
C66 C65 1.374 . S
C67 O51 1.249 . S
C67 O52 1.264 . S
C68 C71 1.382 . S
C68 C72 1.390 . S
C68 C75 1.506 . S
C69 C70 1.398 . S
C69 C72 1.392 . S
C70 C69 1.398 . S
C70 C73 1.372 . S
C70 H80 0.931 . S
C71 C68 1.382 . S
C71 C73 1.390 . S
C71 H81 0.931 . S
C72 C68 1.390 . S
C72 C69 1.392 . S
C72 H82 0.930 . S
C73 C70 1.372 . S
C73 C71 1.390 . S
C73 H83 0.929 . S
C74 O54 1.255 . S
C74 O55 1.257 1_554 S
C75 Eu11 2.787 . S
C75 O50 1.252 . S
C75 O53 1.268 . S
C75 C68 1.506 . S
H76 C59 0.931 . S
H77 C60 0.931 . S
H78 C61 0.929 . S
H79 C62 0.930 . S
H80 C70 0.931 . S
H81 C71 0.931 . S
H82 C72 0.930 . S
H83 C73 0.929 . S
Eu84 N113 2.600 . S
Eu84 N119 2.562 . S
Eu84 O128 2.462 . S
Eu84 O129 2.373 . S
Eu84 O131 2.432 . S
Eu84 O132 2.291 . S
Eu84 O136 2.335 . S
Eu84 O139 2.372 . S
Eu84 C148 2.787 . S
C85 N86 1.365 . S
C85 C88 1.405 . S
C85 C92 1.448 . S
N86 C85 1.365 . S
N86 C89 1.319 . S
N86 Eu95 2.600 . S
C87 C89 1.397 . S
C87 C90 1.367 . S
C87 H107 0.931 . S
C88 C85 1.405 . S
C88 C90 1.403 . S
C88 C94 1.439 . S
C89 N86 1.319 . S
C89 C87 1.397 . S
C89 H100 0.930 . S
C90 C87 1.367 . S
C90 C88 1.403 . S
C90 H111 0.929 . S
C91 C92 1.430 . S
C91 C93 1.387 . S
C91 C97 1.404 . S
C92 C85 1.448 . S
C92 C91 1.430 . S
C92 N96 1.351 . S
C93 C91 1.387 . S
C93 C94 1.374 . S
C93 H108 0.931 . S
C94 C88 1.439 . S
C94 C93 1.374 . S
C94 H109 0.931 . S
Eu95 N86 2.600 . S
Eu95 N96 2.562 . S
Eu95 O130 2.335 . S
Eu95 O133 2.372 . S
Eu95 O134 2.462 . S
Eu95 O135 2.373 . S
Eu95 O137 2.432 . S
Eu95 O138 2.291 . S
Eu95 C159 2.787 . S
N96 C92 1.351 . S
N96 Eu95 2.562 . S
N96 C98 1.325 . S
C97 C91 1.404 . S
C97 C99 1.366 . S
C97 H105 0.930 . S
C98 N96 1.325 . S
C98 C99 1.416 . S
C98 H104 0.929 . S
C99 C97 1.366 . S
C99 C98 1.416 . S
C99 H101 0.930 . S
H100 C89 0.930 . S
H101 C99 0.930 . S
H102 C117 0.930 . S
H103 C124 0.930 . S
H104 C98 0.929 . S
H105 C97 0.930 . S
H106 C120 0.929 . S
H107 C87 0.931 . S
H108 C93 0.931 . S
H109 C94 0.931 . S
H110 C115 0.931 . S
H111 C90 0.929 . S
H112 C123 0.930 . S
N113 Eu84 2.600 . S
N113 C114 1.365 . S
N113 C117 1.319 . S
C114 N113 1.365 . S
C114 C116 1.405 . S
C114 C122 1.448 . S
C115 H110 0.931 . S
C115 C117 1.397 . S
C115 C118 1.367 . S
C116 C114 1.405 . S
C116 C118 1.403 . S
C116 C149 1.439 . S
C117 H102 0.930 . S
C117 N113 1.319 . S
C117 C115 1.397 . S
C118 C115 1.367 . S
C118 C116 1.403 . S
C118 H125 0.929 . S
N119 Eu84 2.562 . S
N119 C120 1.325 . S
N119 C122 1.351 . S
C120 H106 0.929 . S
C120 N119 1.325 . S
C120 C124 1.416 . S
C121 C122 1.430 . S
C121 C123 1.404 . S
C121 C150 1.387 . S
C122 C114 1.448 . S
C122 N119 1.351 . S
C122 C121 1.430 . S
C123 H112 0.930 . S
C123 C121 1.404 . S
C123 C124 1.366 . S
C124 H103 0.930 . S
C124 C120 1.416 . S
C124 C123 1.366 . S
H125 C118 0.929 . S
H126 C149 0.931 . S
H127 C150 0.931 . S
O128 Eu84 2.462 . S
O128 C148 1.252 . S
O129 Eu84 2.373 . S
O129 C140 1.249 . S
O130 Eu95 2.335 . S
O130 C140 1.264 . S
O131 Eu84 2.432 . S
O131 C148 1.268 . S
O132 Eu84 2.291 . S
O132 C147 1.255 . S
O133 Eu95 2.372 . S
O133 C147 1.257 . S
O134 Eu95 2.462 . S
O134 C159 1.252 . S
O135 Eu95 2.373 . S
O135 C151 1.249 . S
O136 Eu84 2.335 . S
O136 C151 1.264 . S
O137 Eu95 2.432 . S
O137 C159 1.268 . S
O138 Eu95 2.291 . S
O138 C158 1.255 . S
O139 Eu84 2.372 . S
O139 C158 1.257 . S
C140 O129 1.249 . S
C140 O130 1.264 . S
C141 C144 1.382 . S
C141 C146 1.390 . S
C141 C148 1.506 . S
C142 C143 1.398 . S
C142 C146 1.392 . S
C143 C142 1.398 . S
C143 C145 1.372 . S
C143 H160 0.931 . S
C144 C141 1.382 . S
C144 C145 1.390 . S
C144 H161 0.931 . S
C145 C143 1.372 . S
C145 C144 1.390 . S
C145 H162 0.929 . S
C146 C141 1.390 . S
C146 C142 1.392 . S
C146 H163 0.930 . S
C147 O132 1.255 . S
C147 O133 1.257 . S
C148 Eu84 2.787 . S
C148 O128 1.252 . S
C148 O131 1.268 . S
C148 C141 1.506 . S
C149 C116 1.439 . S
C149 H126 0.931 . S
C149 C150 1.374 . S
C150 C121 1.387 . S
C150 H127 0.931 . S
C150 C149 1.374 . S
C151 O135 1.249 . S
C151 O136 1.264 . S
C152 C155 1.382 . S
C152 C156 1.390 . S
C152 C159 1.506 . S
C153 C154 1.398 . S
C153 C156 1.392 . S
C154 C153 1.398 . S
C154 C157 1.372 . S
C154 H164 0.931 . S
C155 C152 1.382 . S
C155 C157 1.390 . S
C155 H165 0.931 . S
C156 C152 1.390 . S
C156 C153 1.392 . S
C156 H166 0.930 . S
C157 C154 1.372 . S
C157 C155 1.390 . S
C157 H167 0.929 . S
C158 O138 1.255 . S
C158 O139 1.257 . S
C159 Eu95 2.787 . S
C159 O134 1.252 . S
C159 O137 1.268 . S
C159 C152 1.506 . S
H160 C143 0.931 . S
H161 C144 0.931 . S
H162 C145 0.929 . S
H163 C146 0.930 . S
H164 C154 0.931 . S
H165 C155 0.931 . S
H166 C156 0.930 . S
H167 C157 0.929 . S
Eu168 N197 2.600 . S
Eu168 N203 2.562 . S
Eu168 O212 2.462 . S
Eu168 O213 2.373 . S
Eu168 O215 2.432 . S
Eu168 O216 2.291 . S
Eu168 O220 2.335 . S
Eu168 O223 2.372 . S
Eu168 C232 2.787 . S
C169 N170 1.365 . S
C169 C172 1.405 . S
C169 C176 1.448 . S
N170 C169 1.365 . S
N170 C173 1.319 . S
N170 Eu179 2.600 . S
C171 C173 1.397 . S
C171 C174 1.367 . S
C171 H191 0.931 . S
C172 C169 1.405 . S
C172 C174 1.403 . S
C172 C178 1.439 . S
C173 N170 1.319 . S
C173 C171 1.397 . S
C173 H184 0.930 . S
C174 C171 1.367 . S
C174 C172 1.403 . S
C174 H195 0.929 . S
C175 C176 1.430 . S
C175 C177 1.387 . S
C175 C181 1.404 . S
C176 C169 1.448 . S
C176 C175 1.430 . S
C176 N180 1.351 . S
C177 C175 1.387 . S
C177 C178 1.374 . S
C177 H192 0.931 . S
C178 C172 1.439 . S
C178 C177 1.374 . S
C178 H193 0.931 . S
Eu179 N170 2.600 . S
Eu179 N180 2.562 . S
Eu179 O214 2.335 . S
Eu179 O217 2.372 . S
Eu179 O218 2.462 . S
Eu179 O219 2.373 . S
Eu179 O221 2.432 . S
Eu179 O222 2.291 . S
Eu179 C243 2.787 . S
N180 C176 1.351 . S
N180 Eu179 2.562 . S
N180 C182 1.325 . S
C181 C175 1.404 . S
C181 C183 1.366 . S
C181 H189 0.930 . S
C182 N180 1.325 . S
C182 C183 1.416 . S
C182 H188 0.929 . S
C183 C181 1.366 . S
C183 C182 1.416 . S
C183 H185 0.930 . S
H184 C173 0.930 . S
H185 C183 0.930 . S
H186 C201 0.930 . S
H187 C208 0.930 . S
H188 C182 0.929 . S
H189 C181 0.930 . S
H190 C204 0.929 . S
H191 C171 0.931 . S
H192 C177 0.931 . S
H193 C178 0.931 . S
H194 C199 0.931 . S
H195 C174 0.929 . S
H196 C207 0.930 . S
N197 Eu168 2.600 . S
N197 C198 1.365 . S
N197 C201 1.319 . S
C198 N197 1.365 . S
C198 C200 1.405 . S
C198 C206 1.448 . S
C199 H194 0.931 . S
C199 C201 1.397 . S
C199 C202 1.367 . S
C200 C198 1.405 . S
C200 C202 1.403 . S
C200 C233 1.439 . S
C201 H186 0.930 . S
C201 N197 1.319 . S
C201 C199 1.397 . S
C202 C199 1.367 . S
C202 C200 1.403 . S
C202 H209 0.929 . S
N203 Eu168 2.562 . S
N203 C204 1.325 . S
N203 C206 1.351 . S
C204 H190 0.929 . S
C204 N203 1.325 . S
C204 C208 1.416 . S
C205 C206 1.430 . S
C205 C207 1.404 . S
C205 C234 1.387 . S
C206 C198 1.448 . S
C206 N203 1.351 . S
C206 C205 1.430 . S
C207 H196 0.930 . S
C207 C205 1.404 . S
C207 C208 1.366 . S
C208 H187 0.930 . S
C208 C204 1.416 . S
C208 C207 1.366 . S
H209 C202 0.929 . S
H210 C233 0.931 . S
H211 C234 0.931 . S
O212 Eu168 2.462 . S
O212 C232 1.252 . S
O213 Eu168 2.373 . S
O213 C224 1.249 . S
O214 Eu179 2.335 . S
O214 C224 1.264 . S
O215 Eu168 2.432 . S
O215 C232 1.268 . S
O216 Eu168 2.291 . S
O216 C231 1.255 . S
O217 Eu179 2.372 . S
O217 C231 1.257 . S
O218 Eu179 2.462 . S
O218 C243 1.252 . S
O219 Eu179 2.373 . S
O219 C235 1.249 . S
O220 Eu168 2.335 . S
O220 C235 1.264 . S
O221 Eu179 2.432 . S
O221 C243 1.268 . S
O222 Eu179 2.291 . S
O222 C242 1.255 . S
O223 Eu168 2.372 . S
O223 C242 1.257 . S
C224 O213 1.249 . S
C224 O214 1.264 . S
C225 C228 1.382 . S
C225 C230 1.390 . S
C225 C232 1.506 . S
C226 C227 1.398 . S
C226 C230 1.392 . S
C227 C226 1.398 . S
C227 C229 1.372 . S
C227 H244 0.931 . S
C228 C225 1.382 . S
C228 C229 1.390 . S
C228 H245 0.931 . S
C229 C227 1.372 . S
C229 C228 1.390 . S
C229 H246 0.929 . S
C230 C225 1.390 . S
C230 C226 1.392 . S
C230 H247 0.930 . S
C231 O216 1.255 . S
C231 O217 1.257 . S
C232 Eu168 2.787 . S
C232 O212 1.252 . S
C232 O215 1.268 . S
C232 C225 1.506 . S
C233 C200 1.439 . S
C233 H210 0.931 . S
C233 C234 1.374 . S
C234 C205 1.387 . S
C234 H211 0.931 . S
C234 C233 1.374 . S
C235 O219 1.249 . S
C235 O220 1.264 . S
C236 C239 1.382 . S
C236 C240 1.390 . S
C236 C243 1.506 . S
C237 C238 1.398 . S
C237 C240 1.392 . S
C238 C237 1.398 . S
C238 C241 1.372 . S
C238 H248 0.931 . S
C239 C236 1.382 . S
C239 C241 1.390 . S
C239 H249 0.931 . S
C240 C236 1.390 . S
C240 C237 1.392 . S
C240 H250 0.930 . S
C241 C238 1.372 . S
C241 C239 1.390 . S
C241 H251 0.929 . S
C242 O222 1.255 . S
C242 O223 1.257 . S
C243 Eu179 2.787 . S
C243 O218 1.252 . S
C243 O221 1.268 . S
C243 C236 1.506 . S
H244 C227 0.931 . S
H245 C228 0.931 . S
H246 C229 0.929 . S
H247 C230 0.930 . S
H248 C238 0.931 . S
H249 C239 0.931 . S
H250 C240 0.930 . S
H251 C241 0.929 . S
Eu252 N281 2.600 . S
Eu252 N287 2.562 . S
Eu252 O296 2.462 . S
Eu252 O297 2.373 . S
Eu252 O299 2.432 . S
Eu252 O300 2.291 . S
Eu252 O304 2.335 . S
Eu252 O307 2.372 . S
Eu252 C316 2.787 . S
C253 N254 1.365 . S
C253 C256 1.405 . S
C253 C260 1.448 . S
N254 C253 1.365 . S
N254 C257 1.319 . S
N254 Eu263 2.600 . S
C255 C257 1.397 . S
C255 C258 1.367 . S
C255 H275 0.931 . S
C256 C253 1.405 . S
C256 C258 1.403 . S
C256 C262 1.439 . S
C257 N254 1.319 . S
C257 C255 1.397 . S
C257 H268 0.930 . S
C258 C255 1.367 . S
C258 C256 1.403 . S
C258 H279 0.929 . S
C259 C260 1.430 . S
C259 C261 1.387 . S
C259 C265 1.404 . S
C260 C253 1.448 . S
C260 C259 1.430 . S
C260 N264 1.351 . S
C261 C259 1.387 . S
C261 C262 1.374 . S
C261 H276 0.931 . S
C262 C256 1.439 . S
C262 C261 1.374 . S
C262 H277 0.931 . S
Eu263 N254 2.600 . S
Eu263 N264 2.562 . S
Eu263 O298 2.335 . S
Eu263 O301 2.372 1_556 S
Eu263 O302 2.462 . S
Eu263 O303 2.373 1_556 S
Eu263 O305 2.432 . S
Eu263 O306 2.291 . S
Eu263 C327 2.787 . S
N264 C260 1.351 . S
N264 Eu263 2.562 . S
N264 C266 1.325 . S
C265 C259 1.404 . S
C265 C267 1.366 . S
C265 H273 0.930 . S
C266 N264 1.325 . S
C266 C267 1.416 . S
C266 H272 0.929 . S
C267 C265 1.366 . S
C267 C266 1.416 . S
C267 H269 0.930 . S
H268 C257 0.930 . S
H269 C267 0.930 . S
H270 C285 0.930 . S
H271 C292 0.930 . S
H272 C266 0.929 . S
H273 C265 0.930 . S
H274 C288 0.929 . S
H275 C255 0.931 . S
H276 C261 0.931 . S
H277 C262 0.931 . S
H278 C283 0.931 . S
H279 C258 0.929 . S
H280 C291 0.930 . S
N281 Eu252 2.600 . S
N281 C282 1.365 . S
N281 C285 1.319 . S
C282 N281 1.365 . S
C282 C284 1.405 . S
C282 C290 1.448 . S
C283 H278 0.931 . S
C283 C285 1.397 . S
C283 C286 1.367 . S
C284 C282 1.405 . S
C284 C286 1.403 . S
C284 C317 1.439 . S
C285 H270 0.930 . S
C285 N281 1.319 . S
C285 C283 1.397 . S
C286 C283 1.367 . S
C286 C284 1.403 . S
C286 H293 0.929 . S
N287 Eu252 2.562 . S
N287 C288 1.325 . S
N287 C290 1.351 . S
C288 H274 0.929 . S
C288 N287 1.325 . S
C288 C292 1.416 . S
C289 C290 1.430 . S
C289 C291 1.404 . S
C289 C318 1.387 . S
C290 C282 1.448 . S
C290 N287 1.351 . S
C290 C289 1.430 . S
C291 H280 0.930 . S
C291 C289 1.404 . S
C291 C292 1.366 . S
C292 H271 0.930 . S
C292 C288 1.416 . S
C292 C291 1.366 . S
H293 C286 0.929 . S
H294 C317 0.931 . S
H295 C318 0.931 . S
O296 Eu252 2.462 . S
O296 C316 1.252 . S
O297 Eu252 2.373 . S
O297 C308 1.249 1_554 S
O298 Eu263 2.335 . S
O298 C308 1.264 . S
O299 Eu252 2.432 . S
O299 C316 1.268 . S
O300 Eu252 2.291 . S
O300 C315 1.255 . S
O301 Eu263 2.372 1_554 S
O301 C315 1.257 . S
O302 Eu263 2.462 . S
O302 C327 1.252 . S
O303 Eu263 2.373 1_554 S
O303 C319 1.249 . S
O304 Eu252 2.335 . S
O304 C319 1.264 . S
O305 Eu263 2.432 . S
O305 C327 1.268 . S
O306 Eu263 2.291 . S
O306 C326 1.255 . S
O307 Eu252 2.372 . S
O307 C326 1.257 1_554 S
C308 O297 1.249 1_556 S
C308 O298 1.264 . S
C309 C312 1.382 . S
C309 C314 1.390 . S
C309 C316 1.506 . S
C310 C311 1.398 . S
C310 C314 1.392 . S
C311 C310 1.398 . S
C311 C313 1.372 . S
C311 H328 0.931 . S
C312 C309 1.382 . S
C312 C313 1.390 . S
C312 H329 0.931 . S
C313 C311 1.372 . S
C313 C312 1.390 . S
C313 H330 0.929 . S
C314 C309 1.390 . S
C314 C310 1.392 . S
C314 H331 0.930 . S
C315 O300 1.255 . S
C315 O301 1.257 . S
C316 Eu252 2.787 . S
C316 O296 1.252 . S
C316 O299 1.268 . S
C316 C309 1.506 . S
C317 C284 1.439 . S
C317 H294 0.931 . S
C317 C318 1.374 . S
C318 C289 1.387 . S
C318 H295 0.931 . S
C318 C317 1.374 . S
C319 O303 1.249 . S
C319 O304 1.264 . S
C320 C323 1.382 . S
C320 C324 1.390 . S
C320 C327 1.506 . S
C321 C322 1.398 . S
C321 C324 1.392 . S
C322 C321 1.398 . S
C322 C325 1.372 . S
C322 H332 0.931 . S
C323 C320 1.382 . S
C323 C325 1.390 . S
C323 H333 0.931 . S
C324 C320 1.390 . S
C324 C321 1.392 . S
C324 H334 0.930 . S
C325 C322 1.372 . S
C325 C323 1.390 . S
C325 H335 0.929 . S
C326 O306 1.255 . S
C326 O307 1.257 1_556 S
C327 Eu263 2.787 . S
C327 O302 1.252 . S
C327 O305 1.268 . S
C327 C320 1.506 . S
H328 C311 0.931 . S
H329 C312 0.931 . S
H330 C313 0.929 . S
H331 C314 0.930 . S
H332 C322 0.931 . S
H333 C323 0.931 . S
H334 C324 0.930 . S
H335 C325 0.929 . S
Eu336 N365 2.600 . S
Eu336 N371 2.562 . S
Eu336 O380 2.462 . S
Eu336 O381 2.373 . S
Eu336 O383 2.432 . S
Eu336 O384 2.291 . S
Eu336 O388 2.335 . S
Eu336 O391 2.372 . S
Eu336 C400 2.787 . S
C337 N338 1.365 . S
C337 C340 1.405 . S
C337 C344 1.448 . S
N338 C337 1.365 . S
N338 C341 1.319 . S
N338 Eu347 2.600 . S
C339 C341 1.397 . S
C339 C342 1.367 . S
C339 H359 0.931 . S
C340 C337 1.405 . S
C340 C342 1.403 . S
C340 C346 1.439 . S
C341 N338 1.319 . S
C341 C339 1.397 . S
C341 H352 0.930 . S
C342 C339 1.367 . S
C342 C340 1.403 . S
C342 H363 0.929 . S
C343 C344 1.430 . S
C343 C345 1.387 . S
C343 C349 1.404 . S
C344 C337 1.448 . S
C344 C343 1.430 . S
C344 N348 1.351 . S
C345 C343 1.387 . S
C345 C346 1.374 . S
C345 H360 0.931 . S
C346 C340 1.439 . S
C346 C345 1.374 . S
C346 H361 0.931 . S
Eu347 N338 2.600 . S
Eu347 N348 2.562 . S
Eu347 O382 2.335 . S
Eu347 O385 2.372 . S
Eu347 O386 2.462 . S
Eu347 O387 2.373 . S
Eu347 O389 2.432 . S
Eu347 O390 2.291 . S
Eu347 C411 2.787 . S
N348 C344 1.351 . S
N348 Eu347 2.562 . S
N348 C350 1.325 . S
C349 C343 1.404 . S
C349 C351 1.366 . S
C349 H357 0.930 . S
C350 N348 1.325 . S
C350 C351 1.416 . S
C350 H356 0.929 . S
C351 C349 1.366 . S
C351 C350 1.416 . S
C351 H353 0.930 . S
H352 C341 0.930 . S
H353 C351 0.930 . S
H354 C369 0.930 . S
H355 C376 0.930 . S
H356 C350 0.929 . S
H357 C349 0.930 . S
H358 C372 0.929 . S
H359 C339 0.931 . S
H360 C345 0.931 . S
H361 C346 0.931 . S
H362 C367 0.931 . S
H363 C342 0.929 . S
H364 C375 0.930 . S
N365 Eu336 2.600 . S
N365 C366 1.365 . S
N365 C369 1.319 . S
C366 N365 1.365 . S
C366 C368 1.405 . S
C366 C374 1.448 . S
C367 H362 0.931 . S
C367 C369 1.397 . S
C367 C370 1.367 . S
C368 C366 1.405 . S
C368 C370 1.403 . S
C368 C401 1.439 . S
C369 H354 0.930 . S
C369 N365 1.319 . S
C369 C367 1.397 . S
C370 C367 1.367 . S
C370 C368 1.403 . S
C370 H377 0.929 . S
N371 Eu336 2.562 . S
N371 C372 1.325 . S
N371 C374 1.351 . S
C372 H358 0.929 . S
C372 N371 1.325 . S
C372 C376 1.416 . S
C373 C374 1.430 . S
C373 C375 1.404 . S
C373 C402 1.387 . S
C374 C366 1.448 . S
C374 N371 1.351 . S
C374 C373 1.430 . S
C375 H364 0.930 . S
C375 C373 1.404 . S
C375 C376 1.366 . S
C376 H355 0.930 . S
C376 C372 1.416 . S
C376 C375 1.366 . S
H377 C370 0.929 . S
H378 C401 0.931 . S
H379 C402 0.931 . S
O380 Eu336 2.462 . S
O380 C400 1.252 . S
O381 Eu336 2.373 . S
O381 C392 1.249 . S
O382 Eu347 2.335 . S
O382 C392 1.264 . S
O383 Eu336 2.432 . S
O383 C400 1.268 . S
O384 Eu336 2.291 . S
O384 C399 1.255 . S
O385 Eu347 2.372 . S
O385 C399 1.257 . S
O386 Eu347 2.462 . S
O386 C411 1.252 . S
O387 Eu347 2.373 . S
O387 C403 1.249 . S
O388 Eu336 2.335 . S
O388 C403 1.264 . S
O389 Eu347 2.432 . S
O389 C411 1.268 . S
O390 Eu347 2.291 . S
O390 C410 1.255 . S
O391 Eu336 2.372 . S
O391 C410 1.257 . S
C392 O381 1.249 . S
C392 O382 1.264 . S
C393 C396 1.382 . S
C393 C398 1.390 . S
C393 C400 1.506 . S
C394 C395 1.398 . S
C394 C398 1.392 . S
C395 C394 1.398 . S
C395 C397 1.372 . S
C395 H412 0.931 . S
C396 C393 1.382 . S
C396 C397 1.390 . S
C396 H413 0.931 . S
C397 C395 1.372 . S
C397 C396 1.390 . S
C397 H414 0.929 . S
C398 C393 1.390 . S
C398 C394 1.392 . S
C398 H415 0.930 . S
C399 O384 1.255 . S
C399 O385 1.257 . S
C400 Eu336 2.787 . S
C400 O380 1.252 . S
C400 O383 1.268 . S
C400 C393 1.506 . S
C401 C368 1.439 . S
C401 H378 0.931 . S
C401 C402 1.374 . S
C402 C373 1.387 . S
C402 H379 0.931 . S
C402 C401 1.374 . S
C403 O387 1.249 . S
C403 O388 1.264 . S
C404 C407 1.382 . S
C404 C408 1.390 . S
C404 C411 1.506 . S
C405 C406 1.398 . S
C405 C408 1.392 . S
C406 C405 1.398 . S
C406 C409 1.372 . S
C406 H416 0.931 . S
C407 C404 1.382 . S
C407 C409 1.390 . S
C407 H417 0.931 . S
C408 C404 1.390 . S
C408 C405 1.392 . S
C408 H418 0.930 . S
C409 C406 1.372 . S
C409 C407 1.390 . S
C409 H419 0.929 . S
C410 O390 1.255 . S
C410 O391 1.257 . S
C411 Eu347 2.787 . S
C411 O386 1.252 . S
C411 O389 1.268 . S
C411 C404 1.506 . S
H412 C395 0.931 . S
H413 C396 0.931 . S
H414 C397 0.929 . S
H415 C398 0.930 . S
H416 C406 0.931 . S
H417 C407 0.931 . S
H418 C408 0.930 . S
H419 C409 0.929 . S
Eu420 N449 2.600 . S
Eu420 N455 2.562 . S
Eu420 O464 2.462 . S
Eu420 O465 2.373 . S
Eu420 O467 2.432 . S
Eu420 O468 2.291 . S
Eu420 O472 2.335 . S
Eu420 O475 2.372 . S
Eu420 C484 2.787 . S
C421 N422 1.365 . S
C421 C424 1.405 . S
C421 C428 1.448 . S
N422 C421 1.365 . S
N422 C425 1.319 . S
N422 Eu431 2.600 . S
C423 C425 1.397 . S
C423 C426 1.367 . S
C423 H443 0.931 . S
C424 C421 1.405 . S
C424 C426 1.403 . S
C424 C430 1.439 . S
C425 N422 1.319 . S
C425 C423 1.397 . S
C425 H436 0.930 . S
C426 C423 1.367 . S
C426 C424 1.403 . S
C426 H447 0.929 . S
C427 C428 1.430 . S
C427 C429 1.387 . S
C427 C433 1.404 . S
C428 C421 1.448 . S
C428 C427 1.430 . S
C428 N432 1.351 . S
C429 C427 1.387 . S
C429 C430 1.374 . S
C429 H444 0.931 . S
C430 C424 1.439 . S
C430 C429 1.374 . S
C430 H445 0.931 . S
Eu431 N422 2.600 . S
Eu431 N432 2.562 . S
Eu431 O466 2.335 . S
Eu431 O469 2.372 . S
Eu431 O470 2.462 . S
Eu431 O471 2.373 . S
Eu431 O473 2.432 . S
Eu431 O474 2.291 . S
Eu431 C495 2.787 . S
N432 C428 1.351 . S
N432 Eu431 2.562 . S
N432 C434 1.325 . S
C433 C427 1.404 . S
C433 C435 1.366 . S
C433 H441 0.930 . S
C434 N432 1.325 . S
C434 C435 1.416 . S
C434 H440 0.929 . S
C435 C433 1.366 . S
C435 C434 1.416 . S
C435 H437 0.930 . S
H436 C425 0.930 . S
H437 C435 0.930 . S
H438 C453 0.930 . S
H439 C460 0.930 . S
H440 C434 0.929 . S
H441 C433 0.930 . S
H442 C456 0.929 . S
H443 C423 0.931 . S
H444 C429 0.931 . S
H445 C430 0.931 . S
H446 C451 0.931 . S
H447 C426 0.929 . S
H448 C459 0.930 . S
N449 Eu420 2.600 . S
N449 C450 1.365 . S
N449 C453 1.319 . S
C450 N449 1.365 . S
C450 C452 1.405 . S
C450 C458 1.448 . S
C451 H446 0.931 . S
C451 C453 1.397 . S
C451 C454 1.367 . S
C452 C450 1.405 . S
C452 C454 1.403 . S
C452 C485 1.439 . S
C453 H438 0.930 . S
C453 N449 1.319 . S
C453 C451 1.397 . S
C454 C451 1.367 . S
C454 C452 1.403 . S
C454 H461 0.929 . S
N455 Eu420 2.562 . S
N455 C456 1.325 . S
N455 C458 1.351 . S
C456 H442 0.929 . S
C456 N455 1.325 . S
C456 C460 1.416 . S
C457 C458 1.430 . S
C457 C459 1.404 . S
C457 C486 1.387 . S
C458 C450 1.448 . S
C458 N455 1.351 . S
C458 C457 1.430 . S
C459 H448 0.930 . S
C459 C457 1.404 . S
C459 C460 1.366 . S
C460 H439 0.930 . S
C460 C456 1.416 . S
C460 C459 1.366 . S
H461 C454 0.929 . S
H462 C485 0.931 . S
H463 C486 0.931 . S
O464 Eu420 2.462 . S
O464 C484 1.252 . S
O465 Eu420 2.373 . S
O465 C476 1.249 . S
O466 Eu431 2.335 . S
O466 C476 1.264 . S
O467 Eu420 2.432 . S
O467 C484 1.268 . S
O468 Eu420 2.291 . S
O468 C483 1.255 . S
O469 Eu431 2.372 . S
O469 C483 1.257 . S
O470 Eu431 2.462 . S
O470 C495 1.252 . S
O471 Eu431 2.373 . S
O471 C487 1.249 . S
O472 Eu420 2.335 . S
O472 C487 1.264 . S
O473 Eu431 2.432 . S
O473 C495 1.268 . S
O474 Eu431 2.291 . S
O474 C494 1.255 . S
O475 Eu420 2.372 . S
O475 C494 1.257 . S
C476 O465 1.249 . S
C476 O466 1.264 . S
C477 C480 1.382 . S
C477 C482 1.390 . S
C477 C484 1.506 . S
C478 C479 1.398 . S
C478 C482 1.392 . S
C479 C478 1.398 . S
C479 C481 1.372 . S
C479 H496 0.931 . S
C480 C477 1.382 . S
C480 C481 1.390 . S
C480 H497 0.931 . S
C481 C479 1.372 . S
C481 C480 1.390 . S
C481 H498 0.929 . S
C482 C477 1.390 . S
C482 C478 1.392 . S
C482 H499 0.930 . S
C483 O468 1.255 . S
C483 O469 1.257 . S
C484 Eu420 2.787 . S
C484 O464 1.252 . S
C484 O467 1.268 . S
C484 C477 1.506 . S
C485 C452 1.439 . S
C485 H462 0.931 . S
C485 C486 1.374 . S
C486 C457 1.387 . S
C486 H463 0.931 . S
C486 C485 1.374 . S
C487 O471 1.249 . S
C487 O472 1.264 . S
C488 C491 1.382 . S
C488 C492 1.390 . S
C488 C495 1.506 . S
C489 C490 1.398 . S
C489 C492 1.392 . S
C490 C489 1.398 . S
C490 C493 1.372 . S
C490 H500 0.931 . S
C491 C488 1.382 . S
C491 C493 1.390 . S
C491 H501 0.931 . S
C492 C488 1.390 . S
C492 C489 1.392 . S
C492 H502 0.930 . S
C493 C490 1.372 . S
C493 C491 1.390 . S
C493 H503 0.929 . S
C494 O474 1.255 . S
C494 O475 1.257 . S
C495 Eu431 2.787 . S
C495 O470 1.252 . S
C495 O473 1.268 . S
C495 C488 1.506 . S
H496 C479 0.931 . S
H497 C480 0.931 . S
H498 C481 0.929 . S
H499 C482 0.930 . S
H500 C490 0.931 . S
H501 C491 0.931 . S
H502 C492 0.930 . S
H503 C493 0.929 . S
H504 C522 0.951 . S
H505 C524 0.951 . S
H506 C526 0.950 . S
H507 C527 0.950 . S
H508 C529 0.950 . S
H509 C532 0.950 . S
H510 C533 0.950 . S
H511 C535 0.950 . S
H512 C536 0.950 . S
H513 C537 0.951 . S
H514 C539 0.951 . S
H515 C541 0.950 . S
H516 C542 0.950 . S
H517 C544 0.950 . S
H518 C547 0.950 . S
H519 C548 0.949 1_554 S
H520 C550 0.950 . S
H521 C551 0.950 . S
C522 H504 0.951 . S
C522 C523 1.366 . S
C522 C524 1.388 . S
C523 C522 1.366 . S
C523 C527 1.385 . S
C524 H505 0.951 . S
C524 C522 1.388 . S
C524 C525 1.366 . S
C525 C524 1.366 . S
C525 C526 1.414 . S
C525 C528 1.499 . S
C526 H506 0.950 . S
C526 C525 1.414 . S
C526 C527 1.374 . S
C527 H507 0.950 . S
C527 C523 1.385 . S
C527 C526 1.374 . S
C528 C525 1.499 . S
C528 C529 1.373 . S
C528 C530 1.389 . S
C529 H508 0.950 . S
C529 C528 1.373 . S
C529 C545 1.377 . S
C530 C528 1.389 . S
C530 C531 1.524 . S
C530 C544 1.377 . S
C531 C530 1.524 . S
C531 C532 1.397 . S
C531 C536 1.363 . S
C532 H509 0.950 . S
C532 C531 1.397 . S
C532 C533 1.334 . S
C533 H510 0.950 . S
C533 C532 1.334 . S
C533 C534 1.287 . S
C534 C533 1.287 . S
C534 C535 1.524 . S
C534 H553 0.913 . S
C535 H511 0.950 . S
C535 C534 1.524 . S
C535 C536 1.415 . S
C536 H512 0.950 . S
C536 C531 1.363 . S
C536 C535 1.415 . S
C537 H513 0.951 . S
C537 C538 1.366 . S
C537 C539 1.388 . S
C538 C537 1.366 . S
C538 C542 1.385 . S
C539 H514 0.951 . S
C539 C537 1.388 . S
C539 C540 1.366 . S
C540 C539 1.366 . S
C540 C541 1.414 . S
C540 C543 1.499 . S
C541 H515 0.950 . S
C541 C540 1.414 . S
C541 C542 1.374 . S
C542 H516 0.950 . S
C542 C538 1.385 . S
C542 C541 1.374 . S
C543 C540 1.499 . S
C543 C544 1.373 . S
C543 C545 1.389 . S
C544 H517 0.950 . S
C544 C530 1.377 . S
C544 C543 1.373 . S
C545 C529 1.377 . S
C545 C543 1.389 . S
C545 C546 1.524 . S
C546 C545 1.524 . S
C546 C547 1.397 . S
C546 C551 1.363 . S
C547 H518 0.950 . S
C547 C546 1.397 . S
C547 C548 1.334 . S
C548 H519 0.949 1_556 S
C548 C547 1.334 . S
C548 C549 1.287 1_556 S
C549 C548 1.287 1_554 S
C549 C550 1.524 . S
C549 H552 0.999 . S
C550 H520 0.950 . S
C550 C549 1.524 . S
C550 C551 1.415 1_554 S
C551 H521 0.950 . S
C551 C546 1.363 . S
C551 C550 1.415 1_556 S
H552 C549 0.999 . S
H553 C534 0.913 . S
H554 C572 0.951 . S
H555 C574 0.951 . S
H556 C576 0.950 . S
H557 C577 0.950 . S
H558 C579 0.950 . S
H559 C582 0.950 . S
H560 C583 0.950 . S
H561 C585 0.950 . S
H562 C586 0.950 . S
H563 C587 0.951 . S
H564 C589 0.951 . S
H565 C591 0.950 . S
H566 C592 0.950 . S
H567 C594 0.950 . S
H568 C597 0.950 . S
H569 C598 0.950 . S
H570 C600 0.950 . S
H571 C601 0.950 . S
C572 H554 0.951 . S
C572 C573 1.366 . S
C572 C574 1.388 . S
C573 C572 1.366 . S
C573 C577 1.385 . S
C574 H555 0.951 . S
C574 C572 1.388 . S
C574 C575 1.366 . S
C575 C574 1.366 . S
C575 C576 1.414 . S
C575 C578 1.499 . S
C576 H556 0.950 . S
C576 C575 1.414 . S
C576 C577 1.374 . S
C577 H557 0.950 . S
C577 C573 1.385 . S
C577 C576 1.374 . S
C578 C575 1.499 . S
C578 C579 1.373 . S
C578 C580 1.389 . S
C579 H558 0.950 . S
C579 C578 1.373 . S
C579 C595 1.377 1_455 S
C580 C578 1.389 . S
C580 C581 1.524 . S
C580 C594 1.377 1_455 S
C581 C580 1.524 . S
C581 C582 1.397 . S
C581 C586 1.363 1_455 S
C582 H559 0.950 . S
C582 C581 1.397 . S
C582 C583 1.334 . S
C583 H560 0.950 . S
C583 C582 1.334 . S
C583 C584 1.287 . S
C584 C583 1.287 . S
C584 C585 1.524 1_455 S
C584 H603 0.913 . S
C585 H561 0.950 . S
C585 C584 1.524 1_655 S
C585 C586 1.415 . S
C586 H562 0.950 . S
C586 C581 1.363 1_655 S
C586 C585 1.415 . S
C587 H563 0.951 . S
C587 C588 1.366 . S
C587 C589 1.388 . S
C588 C587 1.366 . S
C588 C592 1.385 . S
C589 H564 0.951 . S
C589 C587 1.388 . S
C589 C590 1.366 . S
C590 C589 1.366 . S
C590 C591 1.414 . S
C590 C593 1.499 . S
C591 H565 0.950 . S
C591 C590 1.414 . S
C591 C592 1.374 . S
C592 H566 0.950 . S
C592 C588 1.385 . S
C592 C591 1.374 . S
C593 C590 1.499 . S
C593 C594 1.373 . S
C593 C595 1.389 . S
C594 H567 0.950 . S
C594 C580 1.377 1_655 S
C594 C593 1.373 . S
C595 C579 1.377 1_655 S
C595 C593 1.389 . S
C595 C596 1.524 . S
C596 C595 1.524 . S
C596 C597 1.397 . S
C596 C601 1.363 1_655 S
C597 H568 0.950 . S
C597 C596 1.397 . S
C597 C598 1.334 . S
C598 H569 0.950 . S
C598 C597 1.334 . S
C598 C599 1.287 . S
C599 C598 1.287 . S
C599 C600 1.524 1_655 S
C599 H602 0.999 . S
C600 H570 0.950 . S
C600 C599 1.524 1_455 S
C600 C601 1.415 . S
C601 H571 0.950 . S
C601 C596 1.363 1_455 S
C601 C600 1.415 . S
H602 C599 0.999 . S
H603 C584 0.913 . S
H604 C622 0.951 . S
H605 C624 0.951 . S
H606 C626 0.950 . S
H607 C627 0.950 . S
H608 C629 0.950 . S
H609 C632 0.950 . S
H610 C633 0.974 . S
H611 C635 0.950 . S
H612 C636 0.950 . S
H613 C637 0.951 . S
H614 C639 0.951 . S
H615 C641 0.950 . S
H616 C642 0.950 . S
H617 C644 0.950 . S
H618 C647 0.950 . S
H619 C648 0.974 . S
H620 C650 0.950 . S
H621 C651 0.950 . S
C622 H604 0.951 . S
C622 C623 1.366 . S
C622 C624 1.388 . S
C623 C622 1.366 . S
C623 C627 1.385 . S
C624 H605 0.951 . S
C624 C622 1.388 . S
C624 C625 1.366 . S
C625 C624 1.366 . S
C625 C626 1.414 . S
C625 C628 1.499 . S
C626 H606 0.950 . S
C626 C625 1.414 . S
C626 C627 1.374 . S
C627 H607 0.950 . S
C627 C623 1.385 . S
C627 C626 1.374 . S
C628 C625 1.499 . S
C628 C629 1.373 . S
C628 C630 1.389 1_545 S
C629 H608 0.950 . S
C629 C628 1.373 . S
C629 C645 1.377 . S
C630 C628 1.389 1_565 S
C630 C631 1.524 . S
C630 C644 1.377 . S
C631 C630 1.524 . S
C631 C632 1.397 1_565 S
C631 C636 1.363 . S
C632 H609 0.950 . S
C632 C631 1.397 1_545 S
C632 C633 1.338 . S
C633 H610 0.974 . S
C633 C632 1.338 . S
C633 C634 1.259 1_545 S
C634 C633 1.259 1_565 S
C634 C635 1.524 . S
C634 H653 0.913 . S
C635 H611 0.950 . S
C635 C634 1.524 . S
C635 C636 1.415 . S
C636 H612 0.950 . S
C636 C631 1.363 . S
C636 C635 1.415 . S
C637 H613 0.951 . S
C637 C638 1.366 . S
C637 C639 1.388 . S
C638 C637 1.366 . S
C638 C642 1.385 . S
C639 H614 0.951 . S
C639 C637 1.388 . S
C639 C640 1.366 . S
C640 C639 1.366 . S
C640 C641 1.414 . S
C640 C643 1.499 . S
C641 H615 0.950 . S
C641 C640 1.414 . S
C641 C642 1.374 . S
C642 H616 0.950 . S
C642 C638 1.385 . S
C642 C641 1.374 . S
C643 C640 1.499 . S
C643 C644 1.373 . S
C643 C645 1.389 1_565 S
C644 H617 0.950 . S
C644 C630 1.377 . S
C644 C643 1.373 . S
C645 C629 1.377 . S
C645 C643 1.389 1_545 S
C645 C646 1.524 . S
C646 C645 1.524 . S
C646 C647 1.397 1_545 S
C646 C651 1.363 . S
C647 H618 0.950 . S
C647 C646 1.397 1_565 S
C647 C648 1.338 . S
C648 H619 0.974 . S
C648 C647 1.338 . S
C648 C649 1.259 1_565 S
C649 C648 1.259 1_545 S
C649 C650 1.524 . S
C649 H652 0.999 . S
C650 H620 0.950 . S
C650 C649 1.524 . S
C650 C651 1.415 . S
C651 H621 0.950 . S
C651 C646 1.363 . S
C651 C650 1.415 . S
H652 C649 0.999 . S
H653 C634 0.913 . S
H654 C672 0.951 . S
H655 C674 0.951 . S
H656 C676 0.950 . S
H657 C677 0.950 . S
H658 C679 0.950 . S
H659 C682 0.950 . S
H660 C683 0.950 . S
H661 C685 0.950 . S
H662 C686 0.950 . S
H663 C687 0.951 . S
H664 C689 0.951 . S
H665 C691 0.950 . S
H666 C692 0.950 . S
H667 C694 0.950 . S
H668 C697 0.950 . S
H669 C698 0.950 . S
H670 C700 0.950 . S
H671 C701 0.950 . S
C672 H654 0.951 . S
C672 C673 1.366 . S
C672 C674 1.388 . S
C673 C672 1.366 . S
C673 C677 1.385 . S
C674 H655 0.951 . S
C674 C672 1.388 . S
C674 C675 1.366 . S
C675 C674 1.366 . S
C675 C676 1.414 . S
C675 C678 1.499 . S
C676 H656 0.950 . S
C676 C675 1.414 . S
C676 C677 1.374 . S
C677 H657 0.950 . S
C677 C673 1.385 . S
C677 C676 1.374 . S
C678 C675 1.499 . S
C678 C679 1.373 . S
C678 C680 1.389 . S
C679 H658 0.950 . S
C679 C678 1.373 . S
C679 C695 1.377 . S
C680 C678 1.389 . S
C680 C681 1.524 . S
C680 C694 1.377 . S
C681 C680 1.524 . S
C681 C682 1.397 . S
C681 C686 1.363 . S
C682 H659 0.950 . S
C682 C681 1.397 . S
C682 C683 1.334 . S
C683 H660 0.950 . S
C683 C682 1.334 . S
C683 C684 1.287 . S
C684 C683 1.287 . S
C684 C685 1.524 . S
C684 H703 0.913 . S
C685 H661 0.950 . S
C685 C684 1.524 . S
C685 C686 1.415 . S
C686 H662 0.950 . S
C686 C681 1.363 . S
C686 C685 1.415 . S
C687 H663 0.951 . S
C687 C688 1.366 . S
C687 C689 1.388 . S
C688 C687 1.366 . S
C688 C692 1.385 . S
C689 H664 0.951 . S
C689 C687 1.388 . S
C689 C690 1.366 . S
C690 C689 1.366 . S
C690 C691 1.414 . S
C690 C693 1.499 . S
C691 H665 0.950 . S
C691 C690 1.414 . S
C691 C692 1.374 . S
C692 H666 0.950 . S
C692 C688 1.385 . S
C692 C691 1.374 . S
C693 C690 1.499 . S
C693 C694 1.373 . S
C693 C695 1.389 . S
C694 H667 0.950 . S
C694 C680 1.377 . S
C694 C693 1.373 . S
C695 C679 1.377 . S
C695 C693 1.389 . S
C695 C696 1.524 . S
C696 C695 1.524 . S
C696 C697 1.397 . S
C696 C701 1.363 . S
C697 H668 0.950 . S
C697 C696 1.397 . S
C697 C698 1.334 . S
C698 H669 0.950 . S
C698 C697 1.334 . S
C698 C699 1.287 . S
C699 C698 1.287 . S
C699 C700 1.524 . S
C699 H702 0.999 . S
C700 H670 0.950 . S
C700 C699 1.524 . S
C700 C701 1.415 . S
C701 H671 0.950 . S
C701 C696 1.363 . S
C701 C700 1.415 . S
H702 C699 0.999 . S
H703 C684 0.913 . S
H704 C722 0.951 . S
H705 C724 0.951 . S
H706 C726 0.950 . S
H707 C727 0.950 . S
H708 C729 0.950 . S
H709 C732 0.950 . S
H710 C733 0.950 . S
H711 C735 0.950 . S
H712 C736 0.950 . S
H713 C737 0.951 . S
H714 C739 0.951 . S
H715 C741 0.950 . S
H716 C742 0.950 . S
H717 C744 0.950 . S
H718 C747 0.950 . S
H719 C748 0.950 . S
H720 C750 0.950 . S
H721 C751 0.950 . S
C722 H704 0.951 . S
C722 C723 1.366 . S
C722 C724 1.388 . S
C723 C722 1.366 . S
C723 C727 1.385 . S
C724 H705 0.951 . S
C724 C722 1.388 . S
C724 C725 1.366 . S
C725 C724 1.366 . S
C725 C726 1.414 . S
C725 C728 1.499 . S
C726 H706 0.950 . S
C726 C725 1.414 . S
C726 C727 1.374 . S
C727 H707 0.950 . S
C727 C723 1.385 . S
C727 C726 1.374 . S
C728 C725 1.499 . S
C728 C729 1.373 . S
C728 C730 1.389 . S
C729 H708 0.950 . S
C729 C728 1.373 . S
C729 C745 1.377 1_455 S
C730 C728 1.389 . S
C730 C731 1.524 . S
C730 C744 1.377 1_455 S
C731 C730 1.524 . S
C731 C732 1.397 . S
C731 C736 1.363 . S
C732 H709 0.950 . S
C732 C731 1.397 . S
C732 C733 1.334 . S
C733 H710 0.950 . S
C733 C732 1.334 . S
C733 C734 1.287 . S
C734 C733 1.287 . S
C734 C735 1.524 . S
C734 H753 0.913 . S
C735 H711 0.950 . S
C735 C734 1.524 . S
C735 C736 1.415 . S
C736 H712 0.950 . S
C736 C731 1.363 . S
C736 C735 1.415 . S
C737 H713 0.951 . S
C737 C738 1.366 . S
C737 C739 1.388 . S
C738 C737 1.366 . S
C738 C742 1.385 . S
C739 H714 0.951 . S
C739 C737 1.388 . S
C739 C740 1.366 . S
C740 C739 1.366 . S
C740 C741 1.414 . S
C740 C743 1.499 . S
C741 H715 0.950 . S
C741 C740 1.414 . S
C741 C742 1.374 . S
C742 H716 0.950 . S
C742 C738 1.385 . S
C742 C741 1.374 . S
C743 C740 1.499 . S
C743 C744 1.373 . S
C743 C745 1.389 . S
C744 H717 0.950 . S
C744 C730 1.377 1_655 S
C744 C743 1.373 . S
C745 C729 1.377 1_655 S
C745 C743 1.389 . S
C745 C746 1.524 . S
C746 C745 1.524 . S
C746 C747 1.397 . S
C746 C751 1.363 . S
C747 H718 0.950 . S
C747 C746 1.397 . S
C747 C748 1.334 . S
C748 H719 0.950 . S
C748 C747 1.334 . S
C748 C749 1.287 . S
C749 C748 1.287 . S
C749 C750 1.524 . S
C749 H752 0.999 . S
C750 H720 0.950 . S
C750 C749 1.524 . S
C750 C751 1.415 . S
C751 H721 0.950 . S
C751 C746 1.363 . S
C751 C750 1.415 . S
H752 C749 0.999 . S
H753 C734 0.913 . S
H754 C772 0.951 . S
H755 C774 0.951 . S
H756 C776 0.950 . S
H757 C777 0.950 . S
H758 C779 0.950 . S
H759 C782 0.950 . S
H760 C783 0.950 . S
H761 C785 0.950 . S
H762 C786 0.950 . S
H763 C787 0.951 . S
H764 C789 0.951 . S
H765 C791 0.950 . S
H766 C792 0.950 . S
H767 C794 0.950 . S
H768 C797 0.950 . S
H769 C798 0.950 . S
H770 C800 0.950 . S
H771 C801 0.950 . S
C772 H754 0.951 . S
C772 C773 1.366 . S
C772 C774 1.388 . S
C773 C772 1.366 . S
C773 C777 1.385 . S
C774 H755 0.951 . S
C774 C772 1.388 . S
C774 C775 1.366 . S
C775 C774 1.366 . S
C775 C776 1.414 . S
C775 C778 1.499 . S
C776 H756 0.950 . S
C776 C775 1.414 . S
C776 C777 1.374 . S
C777 H757 0.950 . S
C777 C773 1.385 . S
C777 C776 1.374 . S
C778 C775 1.499 . S
C778 C779 1.373 . S
C778 C780 1.389 . S
C779 H758 0.950 . S
C779 C778 1.373 . S
C779 C795 1.377 1_545 S
C780 C778 1.389 . S
C780 C781 1.524 . S
C780 C794 1.377 1_545 S
C781 C780 1.524 . S
C781 C782 1.397 . S
C781 C786 1.363 . S
C782 H759 0.950 . S
C782 C781 1.397 . S
C782 C783 1.334 . S
C783 H760 0.950 . S
C783 C782 1.334 . S
C783 C784 1.287 . S
C784 C783 1.287 . S
C784 C785 1.524 . S
C784 H803 0.913 . S
C785 H761 0.950 . S
C785 C784 1.524 . S
C785 C786 1.415 . S
C786 H762 0.950 . S
C786 C781 1.363 . S
C786 C785 1.415 . S
C787 H763 0.951 . S
C787 C788 1.366 . S
C787 C789 1.388 . S
C788 C787 1.366 . S
C788 C792 1.385 . S
C789 H764 0.951 . S
C789 C787 1.388 . S
C789 C790 1.366 . S
C790 C789 1.366 . S
C790 C791 1.414 . S
C790 C793 1.499 . S
C791 H765 0.950 . S
C791 C790 1.414 . S
C791 C792 1.374 . S
C792 H766 0.950 . S
C792 C788 1.385 . S
C792 C791 1.374 . S
C793 C790 1.499 . S
C793 C794 1.373 . S
C793 C795 1.389 . S
C794 H767 0.950 . S
C794 C780 1.377 1_565 S
C794 C793 1.373 . S
C795 C779 1.377 1_565 S
C795 C793 1.389 . S
C795 C796 1.524 . S
C796 C795 1.524 . S
C796 C797 1.397 . S
C796 C801 1.363 . S
C797 H768 0.950 . S
C797 C796 1.397 . S
C797 C798 1.334 . S
C798 H769 0.950 . S
C798 C797 1.334 . S
C798 C799 1.287 . S
C799 C798 1.287 . S
C799 C800 1.524 . S
C799 H802 0.999 . S
C800 H770 0.950 . S
C800 C799 1.524 . S
C800 C801 1.415 . S
C801 H771 0.950 . S
C801 C796 1.363 . S
C801 C800 1.415 . S
H802 C799 0.999 . S
H803 C784 0.913 . S
H804 C822 0.951 . S
H805 C824 0.951 . S
H806 C826 0.950 . S
H807 C827 0.950 . S
H808 C829 0.950 . S
H809 C832 0.950 . S
H810 C833 0.950 . S
H811 C835 0.950 . S
H812 C836 0.950 . S
H813 C837 0.951 . S
H814 C839 0.951 . S
H815 C841 0.950 . S
H816 C842 0.950 . S
H817 C844 0.950 . S
H818 C847 0.950 . S
H819 C848 0.950 . S
H820 C850 0.950 . S
H821 C851 0.950 . S
C822 H804 0.951 . S
C822 C823 1.366 . S
C822 C824 1.388 . S
C823 C822 1.366 . S
C823 C827 1.385 . S
C824 H805 0.951 . S
C824 C822 1.388 . S
C824 C825 1.366 . S
C825 C824 1.366 . S
C825 C826 1.414 . S
C825 C828 1.499 . S
C826 H806 0.950 . S
C826 C825 1.414 . S
C826 C827 1.374 . S
C827 H807 0.950 . S
C827 C823 1.385 . S
C827 C826 1.374 . S
C828 C825 1.499 . S
C828 C829 1.373 . S
C828 C830 1.389 . S
C829 H808 0.950 . S
C829 C828 1.373 . S
C829 C845 1.377 . S
C830 C828 1.389 . S
C830 C831 1.524 . S
C830 C844 1.377 . S
C831 C830 1.524 . S
C831 C832 1.397 . S
C831 C836 1.363 . S
C832 H809 0.950 . S
C832 C831 1.397 . S
C832 C833 1.334 . S
C833 H810 0.950 . S
C833 C832 1.334 . S
C833 C834 1.287 . S
C834 C833 1.287 . S
C834 C835 1.524 . S
C834 H853 0.913 . S
C835 H811 0.950 . S
C835 C834 1.524 . S
C835 C836 1.415 . S
C836 H812 0.950 . S
C836 C831 1.363 . S
C836 C835 1.415 . S
C837 H813 0.951 . S
C837 C838 1.366 . S
C837 C839 1.388 . S
C838 C837 1.366 . S
C838 C842 1.385 . S
C839 H814 0.951 . S
C839 C837 1.388 . S
C839 C840 1.366 . S
C840 C839 1.366 . S
C840 C841 1.414 . S
C840 C843 1.499 . S
C841 H815 0.950 . S
C841 C840 1.414 . S
C841 C842 1.374 . S
C842 H816 0.950 . S
C842 C838 1.385 . S
C842 C841 1.374 . S
C843 C840 1.499 . S
C843 C844 1.373 . S
C843 C845 1.389 . S
C844 H817 0.950 . S
C844 C830 1.377 . S
C844 C843 1.373 . S
C845 C829 1.377 . S
C845 C843 1.389 . S
C845 C846 1.524 . S
C846 C845 1.524 . S
C846 C847 1.397 . S
C846 C851 1.363 . S
C847 H818 0.950 . S
C847 C846 1.397 . S
C847 C848 1.334 . S
C848 H819 0.950 . S
C848 C847 1.334 . S
C848 C849 1.287 . S
C849 C848 1.287 . S
C849 C850 1.524 . S
C849 H852 0.999 . S
C850 H820 0.950 . S
C850 C849 1.524 . S
C850 C851 1.415 . S
C851 H821 0.950 . S
C851 C846 1.363 . S
C851 C850 1.415 . S
H852 C849 0.999 . S
H853 C834 0.913 . S
H854 C872 0.951 . S
H855 C874 0.951 . S
H856 C876 0.950 . S
H857 C877 0.950 . S
H858 C879 0.950 . S
H859 C882 0.950 . S
H860 C883 0.950 . S
H861 C885 0.950 . S
H862 C886 0.950 . S
H863 C887 0.951 . S
H864 C889 0.951 . S
H865 C891 0.950 . S
H866 C892 0.950 . S
H867 C894 0.950 . S
H868 C897 0.950 . S
H869 C898 0.950 . S
H870 C900 0.950 . S
H871 C901 0.950 . S
C872 H854 0.951 . S
C872 C873 1.366 . S
C872 C874 1.388 1_554 S
C873 C872 1.366 . S
C873 C877 1.385 . S
C874 H855 0.951 . S
C874 C872 1.388 1_556 S
C874 C875 1.366 . S
C875 C874 1.366 . S
C875 C876 1.414 . S
C875 C878 1.499 . S
C876 H856 0.950 . S
C876 C875 1.414 . S
C876 C877 1.374 1_556 S
C877 H857 0.950 . S
C877 C873 1.385 . S
C877 C876 1.374 1_554 S
C878 C875 1.499 . S
C878 C879 1.373 . S
C878 C880 1.389 . S
C879 H858 0.950 . S
C879 C878 1.373 . S
C879 C895 1.377 . S
C880 C878 1.389 . S
C880 C881 1.524 . S
C880 C894 1.377 . S
C881 C880 1.524 . S
C881 C882 1.397 . S
C881 C886 1.363 . S
C882 H859 0.950 . S
C882 C881 1.397 . S
C882 C883 1.334 . S
C883 H860 0.950 . S
C883 C882 1.334 . S
C883 C884 1.287 . S
C884 C883 1.287 . S
C884 C885 1.524 . S
C884 H903 0.913 . S
C885 H861 0.950 . S
C885 C884 1.524 . S
C885 C886 1.415 . S
C886 H862 0.950 . S
C886 C881 1.363 . S
C886 C885 1.415 . S
C887 H863 0.951 . S
C887 C888 1.366 . S
C887 C889 1.388 . S
C888 C887 1.366 . S
C888 C892 1.385 . S
C889 H864 0.951 . S
C889 C887 1.388 . S
C889 C890 1.366 . S
C890 C889 1.366 . S
C890 C891 1.414 . S
C890 C893 1.499 . S
C891 H865 0.950 . S
C891 C890 1.414 . S
C891 C892 1.374 . S
C892 H866 0.950 . S
C892 C888 1.385 . S
C892 C891 1.374 . S
C893 C890 1.499 . S
C893 C894 1.373 . S
C893 C895 1.389 . S
C894 H867 0.950 . S
C894 C880 1.377 . S
C894 C893 1.373 . S
C895 C879 1.377 . S
C895 C893 1.389 . S
C895 C896 1.524 . S
C896 C895 1.524 . S
C896 C897 1.397 . S
C896 C901 1.363 . S
C897 H868 0.950 . S
C897 C896 1.397 . S
C897 C898 1.334 . S
C898 H869 0.950 . S
C898 C897 1.334 . S
C898 C899 1.287 . S
C899 C898 1.287 . S
C899 C900 1.524 . S
C899 H902 0.999 . S
C900 H870 0.950 . S
C900 C899 1.524 . S
C900 C901 1.415 . S
C901 H871 0.950 . S
C901 C896 1.363 . S
C901 C900 1.415 . S
H902 C899 0.999 . S
H903 C884 0.913 . S
H904 C922 0.951 . S
H905 C924 0.951 . S
H906 C926 0.950 . S
H907 C927 0.950 . S
H908 C929 0.950 . S
H909 C932 0.950 . S
H910 C933 0.950 . S
H911 C935 0.950 . S
H912 C936 0.950 . S
H913 C937 0.951 . S
H914 C939 0.951 . S
H915 C941 0.950 . S
H916 C942 0.944 1_556 S
H917 C944 0.950 . S
H918 C947 0.950 . S
H919 C948 0.950 . S
H920 C950 0.950 . S
H921 C951 0.950 . S
C922 H904 0.951 . S
C922 C923 1.366 . S
C922 C924 1.388 . S
C923 C922 1.366 . S
C923 C927 1.385 . S
C924 H905 0.951 . S
C924 C922 1.388 . S
C924 C925 1.366 . S
C925 C924 1.366 . S
C925 C926 1.414 . S
C925 C928 1.499 . S
C926 H906 0.950 . S
C926 C925 1.414 . S
C926 C927 1.374 . S
C927 H907 0.950 . S
C927 C923 1.385 . S
C927 C926 1.374 . S
C928 C925 1.499 . S
C928 C929 1.373 . S
C928 C930 1.389 . S
C929 H908 0.950 . S
C929 C928 1.373 . S
C929 C945 1.377 . S
C930 C928 1.389 . S
C930 C931 1.524 . S
C930 C944 1.377 . S
C931 C930 1.524 . S
C931 C932 1.397 . S
C931 C936 1.363 . S
C932 H909 0.950 . S
C932 C931 1.397 . S
C932 C933 1.334 . S
C933 H910 0.950 . S
C933 C932 1.334 . S
C933 C934 1.287 . S
C934 C933 1.287 . S
C934 C935 1.524 . S
C934 H953 0.913 . S
C935 H911 0.950 . S
C935 C934 1.524 . S
C935 C936 1.415 . S
C936 H912 0.950 . S
C936 C931 1.363 . S
C936 C935 1.415 . S
C937 H913 0.951 . S
C937 C938 1.366 . S
C937 C939 1.388 1_556 S
C938 C937 1.366 . S
C938 C942 1.377 1_556 S
C939 H914 0.951 . S
C939 C937 1.388 1_554 S
C939 C940 1.366 . S
C940 C939 1.366 . S
C940 C941 1.414 . S
C940 C943 1.499 . S
C941 H915 0.950 . S
C941 C940 1.414 . S
C941 C942 1.387 . S
C942 H916 0.944 1_554 S
C942 C938 1.377 1_554 S
C942 C941 1.387 . S
C943 C940 1.499 . S
C943 C944 1.373 . S
C943 C945 1.389 . S
C944 H917 0.950 . S
C944 C930 1.377 . S
C944 C943 1.373 . S
C945 C929 1.377 . S
C945 C943 1.389 . S
C945 C946 1.524 . S
C946 C945 1.524 . S
C946 C947 1.397 . S
C946 C951 1.363 . S
C947 H918 0.950 . S
C947 C946 1.397 . S
C947 C948 1.334 . S
C948 H919 0.950 . S
C948 C947 1.334 . S
C948 C949 1.287 . S
C949 C948 1.287 . S
C949 C950 1.524 . S
C949 H952 0.999 . S
C950 H920 0.950 . S
C950 C949 1.524 . S
C950 C951 1.415 . S
C951 H921 0.950 . S
C951 C946 1.363 . S
C951 C950 1.415 . S
H952 C949 0.999 . S
H953 C934 0.913 . S
H954 C972 0.951 . S
H955 C974 0.951 . S
H956 C976 0.950 . S
H957 C977 0.950 . S
H958 C979 0.950 . S
H959 C982 0.950 . S
H960 C983 0.950 . S
H961 C985 0.950 . S
H962 C986 0.950 . S
H963 C987 0.951 . S
H964 C989 0.951 . S
H965 C991 0.950 . S
H966 C992 0.950 . S
H967 C994 0.950 . S
H968 C997 0.950 . S
H969 C998 0.950 . S
H970 C1000 0.950 . S
H971 C1001 0.950 . S
C972 H954 0.951 . S
C972 C973 1.366 . S
C972 C974 1.388 . S
C973 C972 1.366 . S
C973 C977 1.385 . S
C974 H955 0.951 . S
C974 C972 1.388 . S
C974 C975 1.366 . S
C975 C974 1.366 . S
C975 C976 1.414 . S
C975 C978 1.499 . S
C976 H956 0.950 . S
C976 C975 1.414 . S
C976 C977 1.374 . S
C977 H957 0.950 . S
C977 C973 1.385 . S
C977 C976 1.374 . S
C978 C975 1.499 . S
C978 C979 1.373 . S
C978 C980 1.389 . S
C979 H958 0.950 . S
C979 C978 1.373 . S
C979 C995 1.377 . S
C980 C978 1.389 . S
C980 C981 1.524 . S
C980 C994 1.377 . S
C981 C980 1.524 . S
C981 C982 1.397 . S
C981 C986 1.363 . S
C982 H959 0.950 . S
C982 C981 1.397 . S
C982 C983 1.334 . S
C983 H960 0.950 . S
C983 C982 1.334 . S
C983 C984 1.287 . S
C984 C983 1.287 . S
C984 C985 1.524 . S
C984 H1003 0.913 . S
C985 H961 0.950 . S
C985 C984 1.524 . S
C985 C986 1.415 . S
C986 H962 0.950 . S
C986 C981 1.363 . S
C986 C985 1.415 . S
C987 H963 0.951 . S
C987 C988 1.366 . S
C987 C989 1.388 . S
C988 C987 1.366 . S
C988 C992 1.385 . S
C989 H964 0.951 . S
C989 C987 1.388 . S
C989 C990 1.366 . S
C990 C989 1.366 . S
C990 C991 1.414 . S
C990 C993 1.499 . S
C991 H965 0.950 . S
C991 C990 1.414 . S
C991 C992 1.374 . S
C992 H966 0.950 . S
C992 C988 1.385 . S
C992 C991 1.374 . S
C993 C990 1.499 . S
C993 C994 1.373 . S
C993 C995 1.389 . S
C994 H967 0.950 . S
C994 C980 1.377 . S
C994 C993 1.373 . S
C995 C979 1.377 . S
C995 C993 1.389 . S
C995 C996 1.524 . S
C996 C995 1.524 . S
C996 C997 1.397 . S
C996 C1001 1.363 . S
C997 H968 0.950 . S
C997 C996 1.397 . S
C997 C998 1.334 . S
C998 H969 0.950 . S
C998 C997 1.334 . S
C998 C999 1.287 . S
C999 C998 1.287 . S
C999 C1000 1.524 . S
C999 H1002 0.999 . S
C1000 H970 0.950 . S
C1000 C999 1.524 . S
C1000 C1001 1.415 . S
C1001 H971 0.950 . S
C1001 C996 1.363 . S
C1001 C1000 1.415 . S
H1002 C999 0.999 . S
H1003 C984 0.913 . S
H1004 C1022 0.951 . S
H1005 C1024 0.951 . S
H1006 C1026 0.950 . S
H1007 C1027 0.950 . S
H1008 C1029 0.950 . S
H1009 C1032 0.950 . S
H1010 C1033 0.950 . S
H1011 C1035 0.950 . S
H1012 C1036 0.950 . S
H1013 C1037 0.951 . S
H1014 C1039 0.951 . S
H1015 C1041 0.950 . S
H1016 C1042 0.950 . S
H1017 C1044 0.950 . S
H1018 C1047 0.950 . S
H1019 C1048 0.950 . S
H1020 C1050 0.950 . S
H1021 C1051 0.950 . S
C1022 H1004 0.951 . S
C1022 C1023 1.366 . S
C1022 C1024 1.388 . S
C1023 C1022 1.366 . S
C1023 C1027 1.385 . S
C1024 H1005 0.951 . S
C1024 C1022 1.388 . S
C1024 C1025 1.366 . S
C1025 C1024 1.366 . S
C1025 C1026 1.414 . S
C1025 C1028 1.499 . S
C1026 H1006 0.950 . S
C1026 C1025 1.414 . S
C1026 C1027 1.374 . S
C1027 H1007 0.950 . S
C1027 C1023 1.385 . S
C1027 C1026 1.374 . S
C1028 C1025 1.499 . S
C1028 C1029 1.373 . S
C1028 C1030 1.389 . S
C1029 H1008 0.950 . S
C1029 C1028 1.373 . S
C1029 C1045 1.377 . S
C1030 C1028 1.389 . S
C1030 C1031 1.524 . S
C1030 C1044 1.377 . S
C1031 C1030 1.524 . S
C1031 C1032 1.397 . S
C1031 C1036 1.363 . S
C1032 H1009 0.950 . S
C1032 C1031 1.397 . S
C1032 C1033 1.334 . S
C1033 H1010 0.950 . S
C1033 C1032 1.334 . S
C1033 C1034 1.287 . S
C1034 C1033 1.287 . S
C1034 C1035 1.524 . S
C1034 H1053 0.913 . S
C1035 H1011 0.950 . S
C1035 C1034 1.524 . S
C1035 C1036 1.415 . S
C1036 H1012 0.950 . S
C1036 C1031 1.363 . S
C1036 C1035 1.415 . S
C1037 H1013 0.951 . S
C1037 C1038 1.366 . S
C1037 C1039 1.388 1_554 S
C1038 C1037 1.366 . S
C1038 C1042 1.385 . S
C1039 H1014 0.951 . S
C1039 C1037 1.388 1_556 S
C1039 C1040 1.366 . S
C1040 C1039 1.366 . S
C1040 C1041 1.414 . S
C1040 C1043 1.499 . S
C1041 H1015 0.950 . S
C1041 C1040 1.414 . S
C1041 C1042 1.374 1_556 S
C1042 H1016 0.950 . S
C1042 C1038 1.385 . S
C1042 C1041 1.374 1_554 S
C1043 C1040 1.499 . S
C1043 C1044 1.373 . S
C1043 C1045 1.389 . S
C1044 H1017 0.950 . S
C1044 C1030 1.377 . S
C1044 C1043 1.373 . S
C1045 C1029 1.377 . S
C1045 C1043 1.389 . S
C1045 C1046 1.524 . S
C1046 C1045 1.524 . S
C1046 C1047 1.397 . S
C1046 C1051 1.363 . S
C1047 H1018 0.950 . S
C1047 C1046 1.397 . S
C1047 C1048 1.334 . S
C1048 H1019 0.950 . S
C1048 C1047 1.334 . S
C1048 C1049 1.287 . S
C1049 C1048 1.287 . S
C1049 C1050 1.524 . S
C1049 H1052 0.999 . S
C1050 H1020 0.950 . S
C1050 C1049 1.524 . S
C1050 C1051 1.415 . S
C1051 H1021 0.950 . S
C1051 C1046 1.363 . S
C1051 C1050 1.415 . S
H1052 C1049 0.999 . S
H1053 C1034 0.913 . S
H1054 C1072 0.951 . S
H1055 C1074 0.951 . S
H1056 C1076 0.950 . S
H1057 C1077 0.950 . S
H1058 C1079 0.950 . S
H1059 C1082 0.950 . S
H1060 C1083 0.950 . S
H1061 C1085 0.950 . S
H1062 C1086 0.950 . S
H1063 C1087 0.951 1_556 S
H1064 C1089 0.951 . S
H1065 C1091 0.950 . S
H1066 C1092 0.950 1_556 S
H1067 C1094 0.950 . S
H1068 C1097 0.950 . S
H1069 C1098 0.950 . S
H1070 C1100 0.950 . S
H1071 C1101 0.950 . S
C1072 H1054 0.951 . S
C1072 C1073 1.366 . S
C1072 C1074 1.388 . S
C1073 C1072 1.366 . S
C1073 C1077 1.385 . S
C1074 H1055 0.951 . S
C1074 C1072 1.388 . S
C1074 C1075 1.366 . S
C1075 C1074 1.366 . S
C1075 C1076 1.414 . S
C1075 C1078 1.499 . S
C1076 H1056 0.950 . S
C1076 C1075 1.414 . S
C1076 C1077 1.374 . S
C1077 H1057 0.950 . S
C1077 C1073 1.385 . S
C1077 C1076 1.374 . S
C1078 C1075 1.499 . S
C1078 C1079 1.373 . S
C1078 C1080 1.389 . S
C1079 H1058 0.950 . S
C1079 C1078 1.373 . S
C1079 C1095 1.377 . S
C1080 C1078 1.389 . S
C1080 C1081 1.524 . S
C1080 C1094 1.377 . S
C1081 C1080 1.524 . S
C1081 C1082 1.397 . S
C1081 C1086 1.363 . S
C1082 H1059 0.950 . S
C1082 C1081 1.397 . S
C1082 C1083 1.334 . S
C1083 H1060 0.950 . S
C1083 C1082 1.334 . S
C1083 C1084 1.287 . S
C1084 C1083 1.287 . S
C1084 C1085 1.524 . S
C1084 H1103 0.913 . S
C1085 H1061 0.950 . S
C1085 C1084 1.524 . S
C1085 C1086 1.415 . S
C1086 H1062 0.950 . S
C1086 C1081 1.363 . S
C1086 C1085 1.415 . S
C1087 H1063 0.951 1_554 S
C1087 C1088 1.366 1_554 S
C1087 C1089 1.388 . S
C1088 C1087 1.366 1_556 S
C1088 C1092 1.385 1_556 S
C1089 H1064 0.951 . S
C1089 C1087 1.388 . S
C1089 C1090 1.366 . S
C1090 C1089 1.366 . S
C1090 C1091 1.414 . S
C1090 C1093 1.499 . S
C1091 H1065 0.950 . S
C1091 C1090 1.414 . S
C1091 C1092 1.374 . S
C1092 H1066 0.950 1_554 S
C1092 C1088 1.385 1_554 S
C1092 C1091 1.374 . S
C1093 C1090 1.499 . S
C1093 C1094 1.373 . S
C1093 C1095 1.389 . S
C1094 H1067 0.950 . S
C1094 C1080 1.377 . S
C1094 C1093 1.373 . S
C1095 C1079 1.377 . S
C1095 C1093 1.389 . S
C1095 C1096 1.524 . S
C1096 C1095 1.524 . S
C1096 C1097 1.397 . S
C1096 C1101 1.363 . S
C1097 H1068 0.950 . S
C1097 C1096 1.397 . S
C1097 C1098 1.334 . S
C1098 H1069 0.950 . S
C1098 C1097 1.334 . S
C1098 C1099 1.287 . S
C1099 C1098 1.287 . S
C1099 C1100 1.524 . S
C1099 H1102 0.999 . S
C1100 H1070 0.950 . S
C1100 C1099 1.524 . S
C1100 C1101 1.415 . S
C1101 H1071 0.950 . S
C1101 C1096 1.363 . S
C1101 C1100 1.415 . S
H1102 C1099 0.999 . S
H1103 C1084 0.913 . S
H1104 C1122 0.951 . S
H1105 C1124 0.951 . S
H1106 C1126 0.950 . S
H1107 C1127 0.950 . S
H1108 C1129 0.950 . S
H1109 C1132 0.950 . S
H1110 C1133 0.950 . S
H1111 C1135 0.950 . S
H1112 C1136 0.950 . S
H1113 C1137 0.951 . S
H1114 C1139 0.951 . S
H1115 C1141 0.950 . S
H1116 C1142 0.950 . S
H1117 C1144 0.950 . S
H1118 C1147 0.950 . S
H1119 C1148 0.950 . S
H1120 C1150 0.950 . S
H1121 C1151 0.950 . S
C1122 H1104 0.951 . S
C1122 C1123 1.366 . S
C1122 C1124 1.388 . S
C1123 C1122 1.366 . S
C1123 C1127 1.385 . S
C1124 H1105 0.951 . S
C1124 C1122 1.388 . S
C1124 C1125 1.366 . S
C1125 C1124 1.366 . S
C1125 C1126 1.414 . S
C1125 C1128 1.499 . S
C1126 H1106 0.950 . S
C1126 C1125 1.414 . S
C1126 C1127 1.374 . S
C1127 H1107 0.950 . S
C1127 C1123 1.385 . S
C1127 C1126 1.374 . S
C1128 C1125 1.499 . S
C1128 C1129 1.373 . S
C1128 C1130 1.389 . S
C1129 H1108 0.950 . S
C1129 C1128 1.373 . S
C1129 C1145 1.377 . S
C1130 C1128 1.389 . S
C1130 C1131 1.524 . S
C1130 C1144 1.377 . S
C1131 C1130 1.524 . S
C1131 C1132 1.397 . S
C1131 C1136 1.363 . S
C1132 H1109 0.950 . S
C1132 C1131 1.397 . S
C1132 C1133 1.334 . S
C1133 H1110 0.950 . S
C1133 C1132 1.334 . S
C1133 C1134 1.287 . S
C1134 C1133 1.287 . S
C1134 C1135 1.524 . S
C1134 H1153 0.913 . S
C1135 H1111 0.950 . S
C1135 C1134 1.524 . S
C1135 C1136 1.415 . S
C1136 H1112 0.950 . S
C1136 C1131 1.363 . S
C1136 C1135 1.415 . S
C1137 H1113 0.951 . S
C1137 C1138 1.366 . S
C1137 C1139 1.388 . S
C1138 C1137 1.366 . S
C1138 C1142 1.385 . S
C1139 H1114 0.951 . S
C1139 C1137 1.388 . S
C1139 C1140 1.366 . S
C1140 C1139 1.366 . S
C1140 C1141 1.414 . S
C1140 C1143 1.499 . S
C1141 H1115 0.950 . S
C1141 C1140 1.414 . S
C1141 C1142 1.374 . S
C1142 H1116 0.950 . S
C1142 C1138 1.385 . S
C1142 C1141 1.374 . S
C1143 C1140 1.499 . S
C1143 C1144 1.373 . S
C1143 C1145 1.389 . S
C1144 H1117 0.950 . S
C1144 C1130 1.377 . S
C1144 C1143 1.373 . S
C1145 C1129 1.377 . S
C1145 C1143 1.389 . S
C1145 C1146 1.524 . S
C1146 C1145 1.524 . S
C1146 C1147 1.397 . S
C1146 C1151 1.363 . S
C1147 H1118 0.950 . S
C1147 C1146 1.397 . S
C1147 C1148 1.334 . S
C1148 H1119 0.950 . S
C1148 C1147 1.334 . S
C1148 C1149 1.287 . S
C1149 C1148 1.287 . S
C1149 C1150 1.524 . S
C1149 H1152 0.999 . S
C1150 H1120 0.950 . S
C1150 C1149 1.524 . S
C1150 C1151 1.415 . S
C1151 H1121 0.950 . S
C1151 C1146 1.363 . S
C1151 C1150 1.415 . S
H1152 C1149 0.999 . S
H1153 C1134 0.913 . S
H1154 C1172 0.951 . S
H1155 C1174 0.951 . S
H1156 C1176 0.950 . S
H1157 C1177 0.950 . S
H1158 C1179 0.950 . S
H1159 C1182 0.950 . S
H1160 C1183 0.950 . S
H1161 C1185 0.950 . S
H1162 C1186 0.950 . S
H1163 C1187 0.951 . S
H1164 C1189 0.951 . S
H1165 C1191 0.950 . S
H1166 C1192 0.950 . S
H1167 C1194 0.950 . S
H1168 C1197 0.950 . S
H1169 C1198 0.950 . S
H1170 C1200 0.950 . S
H1171 C1201 0.950 . S
C1172 H1154 0.951 . S
C1172 C1173 1.366 . S
C1172 C1174 1.388 . S
C1173 C1172 1.366 . S
C1173 C1177 1.385 . S
C1174 H1155 0.951 . S
C1174 C1172 1.388 . S
C1174 C1175 1.366 . S
C1175 C1174 1.366 . S
C1175 C1176 1.414 . S
C1175 C1178 1.499 . S
C1176 H1156 0.950 . S
C1176 C1175 1.414 . S
C1176 C1177 1.374 . S
C1177 H1157 0.950 . S
C1177 C1173 1.385 . S
C1177 C1176 1.374 . S
C1178 C1175 1.499 . S
C1178 C1179 1.373 . S
C1178 C1180 1.389 . S
C1179 H1158 0.950 . S
C1179 C1178 1.373 . S
C1179 C1195 1.377 . S
C1180 C1178 1.389 . S
C1180 C1181 1.524 . S
C1180 C1194 1.377 . S
C1181 C1180 1.524 . S
C1181 C1182 1.397 . S
C1181 C1186 1.363 . S
C1182 H1159 0.950 . S
C1182 C1181 1.397 . S
C1182 C1183 1.334 . S
C1183 H1160 0.950 . S
C1183 C1182 1.334 . S
C1183 C1184 1.287 . S
C1184 C1183 1.287 . S
C1184 C1185 1.524 . S
C1184 H1203 0.913 . S
C1185 H1161 0.950 . S
C1185 C1184 1.524 . S
C1185 C1186 1.415 . S
C1186 H1162 0.950 . S
C1186 C1181 1.363 . S
C1186 C1185 1.415 . S
C1187 H1163 0.951 . S
C1187 C1188 1.366 . S
C1187 C1189 1.388 . S
C1188 C1187 1.366 . S
C1188 C1192 1.385 . S
C1189 H1164 0.951 . S
C1189 C1187 1.388 . S
C1189 C1190 1.366 . S
C1190 C1189 1.366 . S
C1190 C1191 1.414 . S
C1190 C1193 1.499 . S
C1191 H1165 0.950 . S
C1191 C1190 1.414 . S
C1191 C1192 1.374 . S
C1192 H1166 0.950 . S
C1192 C1188 1.385 . S
C1192 C1191 1.374 . S
C1193 C1190 1.499 . S
C1193 C1194 1.373 . S
C1193 C1195 1.389 . S
C1194 H1167 0.950 . S
C1194 C1180 1.377 . S
C1194 C1193 1.373 . S
C1195 C1179 1.377 . S
C1195 C1193 1.389 . S
C1195 C1196 1.524 . S
C1196 C1195 1.524 . S
C1196 C1197 1.397 . S
C1196 C1201 1.363 . S
C1197 H1168 0.950 . S
C1197 C1196 1.397 . S
C1197 C1198 1.334 . S
C1198 H1169 0.950 . S
C1198 C1197 1.334 . S
C1198 C1199 1.287 . S
C1199 C1198 1.287 . S
C1199 C1200 1.524 . S
C1199 H1202 0.999 . S
C1200 H1170 0.950 . S
C1200 C1199 1.524 . S
C1200 C1201 1.415 . S
C1201 H1171 0.950 . S
C1201 C1196 1.363 . S
C1201 C1200 1.415 . S
H1202 C1199 0.999 . S
H1203 C1184 0.913 . S
H1204 C1222 0.951 . S
H1205 C1224 0.951 . S
H1206 C1226 0.950 . S
H1207 C1227 0.950 . S
H1208 C1229 0.950 . S
H1209 C1232 0.950 . S
H1210 C1233 0.950 . S
H1211 C1235 0.950 . S
H1212 C1236 0.950 . S
H1213 C1237 0.951 . S
H1214 C1239 0.951 . S
H1215 C1241 0.950 . S
H1216 C1242 0.950 . S
H1217 C1244 0.950 . S
H1218 C1247 0.950 . S
H1219 C1248 0.950 . S
H1220 C1250 0.950 . S
H1221 C1251 0.950 . S
C1222 H1204 0.951 . S
C1222 C1223 1.366 . S
C1222 C1224 1.388 . S
C1223 C1222 1.366 . S
C1223 C1227 1.385 . S
C1224 H1205 0.951 . S
C1224 C1222 1.388 . S
C1224 C1225 1.366 . S
C1225 C1224 1.366 . S
C1225 C1226 1.414 . S
C1225 C1228 1.499 . S
C1226 H1206 0.950 . S
C1226 C1225 1.414 . S
C1226 C1227 1.374 . S
C1227 H1207 0.950 . S
C1227 C1223 1.385 . S
C1227 C1226 1.374 . S
C1228 C1225 1.499 . S
C1228 C1229 1.373 . S
C1228 C1230 1.389 . S
C1229 H1208 0.950 . S
C1229 C1228 1.373 . S
C1229 C1245 1.377 . S
C1230 C1228 1.389 . S
C1230 C1231 1.524 . S
C1230 C1244 1.377 . S
C1231 C1230 1.524 . S
C1231 C1232 1.397 . S
C1231 C1236 1.363 . S
C1232 H1209 0.950 . S
C1232 C1231 1.397 . S
C1232 C1233 1.334 . S
C1233 H1210 0.950 . S
C1233 C1232 1.334 . S
C1233 C1234 1.287 . S
C1234 C1233 1.287 . S
C1234 C1235 1.524 . S
C1234 H1253 0.913 . S
C1235 H1211 0.950 . S
C1235 C1234 1.524 . S
C1235 C1236 1.415 . S
C1236 H1212 0.950 . S
C1236 C1231 1.363 . S
C1236 C1235 1.415 . S
C1237 H1213 0.951 . S
C1237 C1238 1.366 . S
C1237 C1239 1.388 . S
C1238 C1237 1.366 . S
C1238 C1242 1.385 . S
C1239 H1214 0.951 . S
C1239 C1237 1.388 . S
C1239 C1240 1.366 . S
C1240 C1239 1.366 . S
C1240 C1241 1.414 . S
C1240 C1243 1.499 . S
C1241 H1215 0.950 . S
C1241 C1240 1.414 . S
C1241 C1242 1.374 . S
C1242 H1216 0.950 . S
C1242 C1238 1.385 . S
C1242 C1241 1.374 . S
C1243 C1240 1.499 . S
C1243 C1244 1.373 . S
C1243 C1245 1.389 . S
C1244 H1217 0.950 . S
C1244 C1230 1.377 . S
C1244 C1243 1.373 . S
C1245 C1229 1.377 . S
C1245 C1243 1.389 . S
C1245 C1246 1.524 . S
C1246 C1245 1.524 . S
C1246 C1247 1.397 . S
C1246 C1251 1.363 . S
C1247 H1218 0.950 . S
C1247 C1246 1.397 . S
C1247 C1248 1.334 . S
C1248 H1219 0.950 . S
C1248 C1247 1.334 . S
C1248 C1249 1.287 . S
C1249 C1248 1.287 . S
C1249 C1250 1.524 . S
C1249 H1252 0.999 . S
C1250 H1220 0.950 . S
C1250 C1249 1.524 . S
C1250 C1251 1.415 . S
C1251 H1221 0.950 . S
C1251 C1246 1.363 . S
C1251 C1250 1.415 . S
H1252 C1249 0.999 . S
H1253 C1234 0.913 . S
H1254 C1272 0.951 . S
H1255 C1274 0.951 . S
H1256 C1276 0.950 . S
H1257 C1277 0.950 . S
H1258 C1279 0.950 . S
H1259 C1282 0.950 . S
H1260 C1283 0.950 . S
H1261 C1285 0.950 . S
H1262 C1286 0.950 . S
H1263 C1287 0.951 . S
H1264 C1289 0.951 . S
H1265 C1291 0.950 . S
H1266 C1292 0.950 . S
H1267 C1294 0.950 . S
H1268 C1297 0.950 . S
H1269 C1298 0.950 . S
H1270 C1300 0.950 . S
H1271 C1301 0.950 . S
C1272 H1254 0.951 . S
C1272 C1273 1.366 . S
C1272 C1274 1.388 . S
C1273 C1272 1.366 . S
C1273 C1277 1.385 . S
C1274 H1255 0.951 . S
C1274 C1272 1.388 . S
C1274 C1275 1.366 . S
C1275 C1274 1.366 . S
C1275 C1276 1.414 . S
C1275 C1278 1.499 . S
C1276 H1256 0.950 . S
C1276 C1275 1.414 . S
C1276 C1277 1.374 . S
C1277 H1257 0.950 . S
C1277 C1273 1.385 . S
C1277 C1276 1.374 . S
C1278 C1275 1.499 . S
C1278 C1279 1.373 . S
C1278 C1280 1.389 . S
C1279 H1258 0.950 . S
C1279 C1278 1.373 . S
C1279 C1295 1.377 . S
C1280 C1278 1.389 . S
C1280 C1281 1.524 . S
C1280 C1294 1.377 . S
C1281 C1280 1.524 . S
C1281 C1282 1.397 . S
C1281 C1286 1.363 . S
C1282 H1259 0.950 . S
C1282 C1281 1.397 . S
C1282 C1283 1.334 . S
C1283 H1260 0.950 . S
C1283 C1282 1.334 . S
C1283 C1284 1.287 . S
C1284 C1283 1.287 . S
C1284 C1285 1.524 . S
C1284 H1303 0.913 . S
C1285 H1261 0.950 . S
C1285 C1284 1.524 . S
C1285 C1286 1.415 . S
C1286 H1262 0.950 . S
C1286 C1281 1.363 . S
C1286 C1285 1.415 . S
C1287 H1263 0.951 . S
C1287 C1288 1.366 . S
C1287 C1289 1.388 . S
C1288 C1287 1.366 . S
C1288 C1292 1.385 . S
C1289 H1264 0.951 . S
C1289 C1287 1.388 . S
C1289 C1290 1.366 . S
C1290 C1289 1.366 . S
C1290 C1291 1.414 . S
C1290 C1293 1.499 . S
C1291 H1265 0.950 . S
C1291 C1290 1.414 . S
C1291 C1292 1.374 . S
C1292 H1266 0.950 . S
C1292 C1288 1.385 . S
C1292 C1291 1.374 . S
C1293 C1290 1.499 . S
C1293 C1294 1.373 . S
C1293 C1295 1.389 . S
C1294 H1267 0.950 . S
C1294 C1280 1.377 . S
C1294 C1293 1.373 . S
C1295 C1279 1.377 . S
C1295 C1293 1.389 . S
C1295 C1296 1.524 . S
C1296 C1295 1.524 . S
C1296 C1297 1.397 . S
C1296 C1301 1.363 . S
C1297 H1268 0.950 . S
C1297 C1296 1.397 . S
C1297 C1298 1.334 . S
C1298 H1269 0.950 . S
C1298 C1297 1.334 . S
C1298 C1299 1.287 . S
C1299 C1298 1.287 . S
C1299 C1300 1.524 . S
C1299 H1302 0.999 . S
C1300 H1270 0.950 . S
C1300 C1299 1.524 . S
C1300 C1301 1.415 . S
C1301 H1271 0.950 . S
C1301 C1296 1.363 . S
C1301 C1300 1.415 . S
H1302 C1299 0.999 . S
H1303 C1284 0.913 . S
H1304 C1322 0.951 . S
H1305 C1324 0.951 . S
H1306 C1326 0.950 . S
H1307 C1327 0.950 . S
H1308 C1329 0.950 . S
H1309 C1332 0.950 . S
H1310 C1333 0.950 . S
H1311 C1335 0.950 . S
H1312 C1336 0.950 . S
H1313 C1337 0.951 . S
H1314 C1339 0.951 . S
H1315 C1341 0.950 . S
H1316 C1342 0.950 . S
H1317 C1344 0.950 . S
H1318 C1347 0.950 . S
H1319 C1348 0.950 . S
H1320 C1350 0.950 . S
H1321 C1351 0.950 . S
C1322 H1304 0.951 . S
C1322 C1323 1.366 . S
C1322 C1324 1.388 . S
C1323 C1322 1.366 . S
C1323 C1327 1.385 . S
C1324 H1305 0.951 . S
C1324 C1322 1.388 . S
C1324 C1325 1.366 . S
C1325 C1324 1.366 . S
C1325 C1326 1.414 . S
C1325 C1328 1.499 . S
C1326 H1306 0.950 . S
C1326 C1325 1.414 . S
C1326 C1327 1.374 . S
C1327 H1307 0.950 . S
C1327 C1323 1.385 . S
C1327 C1326 1.374 . S
C1328 C1325 1.499 . S
C1328 C1329 1.373 . S
C1328 C1330 1.389 . S
C1329 H1308 0.950 . S
C1329 C1328 1.373 . S
C1329 C1345 1.377 . S
C1330 C1328 1.389 . S
C1330 C1331 1.524 . S
C1330 C1344 1.377 . S
C1331 C1330 1.524 . S
C1331 C1332 1.397 . S
C1331 C1336 1.363 . S
C1332 H1309 0.950 . S
C1332 C1331 1.397 . S
C1332 C1333 1.334 . S
C1333 H1310 0.950 . S
C1333 C1332 1.334 . S
C1333 C1334 1.287 . S
C1334 C1333 1.287 . S
C1334 C1335 1.524 . S
C1334 H1353 0.913 . S
C1335 H1311 0.950 . S
C1335 C1334 1.524 . S
C1335 C1336 1.415 . S
C1336 H1312 0.950 . S
C1336 C1331 1.363 . S
C1336 C1335 1.415 . S
C1337 H1313 0.951 . S
C1337 C1338 1.366 . S
C1337 C1339 1.388 . S
C1338 C1337 1.366 . S
C1338 C1342 1.385 . S
C1339 H1314 0.951 . S
C1339 C1337 1.388 . S
C1339 C1340 1.366 . S
C1340 C1339 1.366 . S
C1340 C1341 1.414 . S
C1340 C1343 1.499 . S
C1341 H1315 0.950 . S
C1341 C1340 1.414 . S
C1341 C1342 1.374 . S
C1342 H1316 0.950 . S
C1342 C1338 1.385 . S
C1342 C1341 1.374 . S
C1343 C1340 1.499 . S
C1343 C1344 1.373 . S
C1343 C1345 1.389 . S
C1344 H1317 0.950 . S
C1344 C1330 1.377 . S
C1344 C1343 1.373 . S
C1345 C1329 1.377 . S
C1345 C1343 1.389 . S
C1345 C1346 1.524 . S
C1346 C1345 1.524 . S
C1346 C1347 1.397 . S
C1346 C1351 1.363 . S
C1347 H1318 0.950 . S
C1347 C1346 1.397 . S
C1347 C1348 1.334 . S
C1348 H1319 0.950 . S
C1348 C1347 1.334 . S
C1348 C1349 1.287 . S
C1349 C1348 1.287 . S
C1349 C1350 1.524 . S
C1349 H1352 0.999 . S
C1350 H1320 0.950 . S
C1350 C1349 1.524 . S
C1350 C1351 1.415 . S
C1351 H1321 0.950 . S
C1351 C1346 1.363 . S
C1351 C1350 1.415 . S
H1352 C1349 0.999 . S
H1353 C1334 0.913 . S
H1354 C1372 0.951 . S
H1355 C1374 0.951 . S
H1356 C1376 0.950 . S
H1357 C1377 0.950 . S
H1358 C1379 0.950 . S
H1359 C1382 0.950 . S
H1360 C1383 0.950 . S
H1361 C1385 0.950 . S
H1362 C1386 0.950 . S
H1363 C1387 0.951 . S
H1364 C1389 0.951 . S
H1365 C1391 0.950 . S
H1366 C1392 0.950 . S
H1367 C1394 0.950 . S
H1368 C1397 0.950 . S
H1369 C1398 0.950 . S
H1370 C1400 0.950 . S
H1371 C1401 0.950 . S
C1372 H1354 0.951 . S
C1372 C1373 1.366 . S
C1372 C1374 1.388 . S
C1373 C1372 1.366 . S
C1373 C1377 1.385 . S
C1374 H1355 0.951 . S
C1374 C1372 1.388 . S
C1374 C1375 1.366 . S
C1375 C1374 1.366 . S
C1375 C1376 1.414 . S
C1375 C1378 1.499 . S
C1376 H1356 0.950 . S
C1376 C1375 1.414 . S
C1376 C1377 1.374 . S
C1377 H1357 0.950 . S
C1377 C1373 1.385 . S
C1377 C1376 1.374 . S
C1378 C1375 1.499 . S
C1378 C1379 1.373 . S
C1378 C1380 1.389 . S
C1379 H1358 0.950 . S
C1379 C1378 1.373 . S
C1379 C1395 1.377 . S
C1380 C1378 1.389 . S
C1380 C1381 1.524 . S
C1380 C1394 1.377 . S
C1381 C1380 1.524 . S
C1381 C1382 1.397 . S
C1381 C1386 1.363 . S
C1382 H1359 0.950 . S
C1382 C1381 1.397 . S
C1382 C1383 1.334 . S
C1383 H1360 0.950 . S
C1383 C1382 1.334 . S
C1383 C1384 1.287 . S
C1384 C1383 1.287 . S
C1384 C1385 1.524 . S
C1384 H1403 0.913 . S
C1385 H1361 0.950 . S
C1385 C1384 1.524 . S
C1385 C1386 1.415 . S
C1386 H1362 0.950 . S
C1386 C1381 1.363 . S
C1386 C1385 1.415 . S
C1387 H1363 0.951 . S
C1387 C1388 1.366 . S
C1387 C1389 1.388 . S
C1388 C1387 1.366 . S
C1388 C1392 1.385 . S
C1389 H1364 0.951 . S
C1389 C1387 1.388 . S
C1389 C1390 1.366 . S
C1390 C1389 1.366 . S
C1390 C1391 1.414 . S
C1390 C1393 1.499 . S
C1391 H1365 0.950 . S
C1391 C1390 1.414 . S
C1391 C1392 1.374 . S
C1392 H1366 0.950 . S
C1392 C1388 1.385 . S
C1392 C1391 1.374 . S
C1393 C1390 1.499 . S
C1393 C1394 1.373 . S
C1393 C1395 1.389 . S
C1394 H1367 0.950 . S
C1394 C1380 1.377 . S
C1394 C1393 1.373 . S
C1395 C1379 1.377 . S
C1395 C1393 1.389 . S
C1395 C1396 1.524 . S
C1396 C1395 1.524 . S
C1396 C1397 1.397 . S
C1396 C1401 1.363 . S
C1397 H1368 0.950 . S
C1397 C1396 1.397 . S
C1397 C1398 1.334 . S
C1398 H1369 0.950 . S
C1398 C1397 1.334 . S
C1398 C1399 1.287 . S
C1399 C1398 1.287 . S
C1399 C1400 1.524 . S
C1399 H1402 0.999 . S
C1400 H1370 0.950 . S
C1400 C1399 1.524 . S
C1400 C1401 1.415 . S
C1401 H1371 0.950 . S
C1401 C1396 1.363 . S
C1401 C1400 1.415 . S
H1402 C1399 0.999 . S
H1403 C1384 0.913 . S
C523 C483 1.284 . S
C538 C63 1.283 . S
C573 C56 1.246 . S
C588 C140 1.245 . S
C623 C147 1.284 . S
C638 C231 1.284 . S
C673 C224 1.247 . S
C688 C308 1.246 . S
C723 C399 1.283 . S
C738 C315 1.284 . S
C773 C476 1.245 . S
C788 C392 1.246 . S
C823 C58 1.117 . S
C838 C69 1.117 . S
C873 C153 1.116 . S
C888 C142 1.116 . S
C923 C226 1.117 . S
C938 C237 1.117 . S
C973 C321 1.118 . S
C988 C310 1.118 . S
C1023 C405 1.118 . S
C1038 C394 1.118 . S
C1073 C489 1.116 . S
C1088 C478 1.116 . S
C1123 C74 1.585 . S
C1138 C403 1.600 . S
C1173 C151 1.600 . S
C1188 C494 1.585 . S
C1223 C67 1.600 . S
C1238 C242 1.584 . S
C1273 C158 1.585 . S
C1288 C319 1.600 . S
C1323 C410 1.585 . S
C1338 C235 1.600 . S
C1373 C326 1.585 . S
C1388 C487 1.600 . S
