# Generated by pormake.
# Topology unv, (4)-cn, num edge types: 1
# Building blocks:
#     Node 0, Type 0, BuildingBlock: KUFVIS_clean_sbu_0, # of connection points: 4
#     Node 1, Type 0, BuildingBlock: KUFVIS_clean_sbu_0, # of connection points: 4
#     Node 2, Type 0, BuildingBlock: KUFVIS_clean_sbu_0, # of connection points: 4
#     Node 3, Type 0, BuildingBlock: KUFVIS_clean_sbu_0, # of connection points: 4
#     Node 4, Type 0, BuildingBlock: KUFVIS_clean_sbu_0, # of connection points: 4
#     Node 5, Type 0, BuildingBlock: KUFVIS_clean_sbu_0, # of connection points: 4
#     Node 6, Type 0, BuildingBlock: KUFVIS_clean_sbu_0, # of connection points: 4
#     Node 7, Type 0, BuildingBlock: KUFVIS_clean_sbu_0, # of connection points: 4
#     Node 8, Type 0, BuildingBlock: KUFVIS_clean_sbu_0, # of connection points: 4
#     Node 9, Type 0, BuildingBlock: KUFVIS_clean_sbu_0, # of connection points: 4
#     Node 10, Type 0, BuildingBlock: KUFVIS_clean_sbu_0, # of connection points: 4
#     Node 11, Type 0, BuildingBlock: KUFVIS_clean_sbu_0, # of connection points: 4
#     Node 12, Type 0, BuildingBlock: KUFVIS_clean_sbu_0, # of connection points: 4
#     Node 13, Type 0, BuildingBlock: KUFVIS_clean_sbu_0, # of connection points: 4
#     Node 14, Type 0, BuildingBlock: KUFVIS_clean_sbu_0, # of connection points: 4
#     Node 15, Type 0, BuildingBlock: KUFVIS_clean_sbu_0, # of connection points: 4
#     Node 16, Type 0, BuildingBlock: KUFVIS_clean_sbu_0, # of connection points: 4
#     Node 17, Type 0, BuildingBlock: KUFVIS_clean_sbu_0, # of connection points: 4
#     Node 18, Type 0, BuildingBlock: KUFVIS_clean_sbu_0, # of connection points: 4
#     Node 19, Type 0, BuildingBlock: KUFVIS_clean_sbu_0, # of connection points: 4
#     Node 20, Type 0, BuildingBlock: KUFVIS_clean_sbu_0, # of connection points: 4
#     Node 21, Type 0, BuildingBlock: KUFVIS_clean_sbu_0, # of connection points: 4
#     Node 22, Type 0, BuildingBlock: KUFVIS_clean_sbu_0, # of connection points: 4
#     Node 23, Type 0, BuildingBlock: KUFVIS_clean_sbu_0, # of connection points: 4
#     Edge 24, Type (0, 0), BuildingBlock: UVAHIK_clean_linker_0, # of connection points: 2
#     Edge 25, Type (0, 0), BuildingBlock: UVAHIK_clean_linker_0, # of connection points: 2
#     Edge 26, Type (0, 0), BuildingBlock: UVAHIK_clean_linker_0, # of connection points: 2
#     Edge 27, Type (0, 0), BuildingBlock: UVAHIK_clean_linker_0, # of connection points: 2
#     Edge 28, Type (0, 0), BuildingBlock: UVAHIK_clean_linker_0, # of connection points: 2
#     Edge 29, Type (0, 0), BuildingBlock: UVAHIK_clean_linker_0, # of connection points: 2
#     Edge 30, Type (0, 0), BuildingBlock: UVAHIK_clean_linker_0, # of connection points: 2
#     Edge 31, Type (0, 0), BuildingBlock: UVAHIK_clean_linker_0, # of connection points: 2
#     Edge 32, Type (0, 0), BuildingBlock: UVAHIK_clean_linker_0, # of connection points: 2
#     Edge 33, Type (0, 0), BuildingBlock: UVAHIK_clean_linker_0, # of connection points: 2
#     Edge 34, Type (0, 0), BuildingBlock: UVAHIK_clean_linker_0, # of connection points: 2
#     Edge 35, Type (0, 0), BuildingBlock: UVAHIK_clean_linker_0, # of connection points: 2
#     Edge 36, Type (0, 0), BuildingBlock: UVAHIK_clean_linker_0, # of connection points: 2
#     Edge 37, Type (0, 0), BuildingBlock: UVAHIK_clean_linker_0, # of connection points: 2
#     Edge 38, Type (0, 0), BuildingBlock: UVAHIK_clean_linker_0, # of connection points: 2
#     Edge 39, Type (0, 0), BuildingBlock: UVAHIK_clean_linker_0, # of connection points: 2
#     Edge 40, Type (0, 0), BuildingBlock: UVAHIK_clean_linker_0, # of connection points: 2
#     Edge 41, Type (0, 0), BuildingBlock: UVAHIK_clean_linker_0, # of connection points: 2
#     Edge 42, Type (0, 0), BuildingBlock: UVAHIK_clean_linker_0, # of connection points: 2
#     Edge 43, Type (0, 0), BuildingBlock: UVAHIK_clean_linker_0, # of connection points: 2
#     Edge 44, Type (0, 0), BuildingBlock: UVAHIK_clean_linker_0, # of connection points: 2
#     Edge 45, Type (0, 0), BuildingBlock: UVAHIK_clean_linker_0, # of connection points: 2
#     Edge 46, Type (0, 0), BuildingBlock: UVAHIK_clean_linker_0, # of connection points: 2
#     Edge 47, Type (0, 0), BuildingBlock: UVAHIK_clean_linker_0, # of connection points: 2
#     Edge 48, Type (0, 0), BuildingBlock: UVAHIK_clean_linker_0, # of connection points: 2
#     Edge 49, Type (0, 0), BuildingBlock: UVAHIK_clean_linker_0, # of connection points: 2
#     Edge 50, Type (0, 0), BuildingBlock: UVAHIK_clean_linker_0, # of connection points: 2
#     Edge 51, Type (0, 0), BuildingBlock: UVAHIK_clean_linker_0, # of connection points: 2
#     Edge 52, Type (0, 0), BuildingBlock: UVAHIK_clean_linker_0, # of connection points: 2
#     Edge 53, Type (0, 0), BuildingBlock: UVAHIK_clean_linker_0, # of connection points: 2
#     Edge 54, Type (0, 0), BuildingBlock: UVAHIK_clean_linker_0, # of connection points: 2
#     Edge 55, Type (0, 0), BuildingBlock: UVAHIK_clean_linker_0, # of connection points: 2
#     Edge 56, Type (0, 0), BuildingBlock: UVAHIK_clean_linker_0, # of connection points: 2
#     Edge 57, Type (0, 0), BuildingBlock: UVAHIK_clean_linker_0, # of connection points: 2
#     Edge 58, Type (0, 0), BuildingBlock: UVAHIK_clean_linker_0, # of connection points: 2
#     Edge 59, Type (0, 0), BuildingBlock: UVAHIK_clean_linker_0, # of connection points: 2
#     Edge 60, Type (0, 0), BuildingBlock: UVAHIK_clean_linker_0, # of connection points: 2
#     Edge 61, Type (0, 0), BuildingBlock: UVAHIK_clean_linker_0, # of connection points: 2
#     Edge 62, Type (0, 0), BuildingBlock: UVAHIK_clean_linker_0, # of connection points: 2
#     Edge 63, Type (0, 0), BuildingBlock: UVAHIK_clean_linker_0, # of connection points: 2
#     Edge 64, Type (0, 0), BuildingBlock: UVAHIK_clean_linker_0, # of connection points: 2
#     Edge 65, Type (0, 0), BuildingBlock: UVAHIK_clean_linker_0, # of connection points: 2
#     Edge 66, Type (0, 0), BuildingBlock: UVAHIK_clean_linker_0, # of connection points: 2
#     Edge 67, Type (0, 0), BuildingBlock: UVAHIK_clean_linker_0, # of connection points: 2
#     Edge 68, Type (0, 0), BuildingBlock: UVAHIK_clean_linker_0, # of connection points: 2
#     Edge 69, Type (0, 0), BuildingBlock: UVAHIK_clean_linker_0, # of connection points: 2
#     Edge 70, Type (0, 0), BuildingBlock: UVAHIK_clean_linker_0, # of connection points: 2
#     Edge 71, Type (0, 0), BuildingBlock: UVAHIK_clean_linker_0, # of connection points: 2
# Relax obj value: 0.332
# Max RMSD: 0.272
# Mean RMSD: 0.240
data_MOF--net-unv--node1-KUFVIS_clean_sbu_0--edge1-UVAHIK_clean_linker_0
_symmetry_space_group_name_H-M    P1
_symmetry_Int_Tables_number       1
_symmetry_cell_setting            triclinic
loop_
_symmetry_equiv_pos_as_xyz
'x, y, z'
_cell_length_a     61.997659
_cell_length_b     61.98145
_cell_length_c     61.995078
_cell_angle_alpha  89.97758
_cell_angle_beta   89.988363
_cell_angle_gamma 89.99301
loop_
_atom_site_label
_atom_site_type_symbol
_atom_site_fract_x
_atom_site_fract_y
_atom_site_fract_z
_atom_type_partial_charge
Mn0 Mn 0.00572 0.09491 0.37389 0.0
Mn1 Mn 0.05478 0.10896 0.35536 0.0
C2 C 0.03261 0.10457 0.39782 0.0
C3 C 0.98215 0.06797 0.38517 0.0
C4 C 0.01518 0.13762 0.35188 0.0
O5 O 0.00595 0.08343 0.34319 0.0
O6 O 0.04054 0.08993 0.33382 0.0
C7 C 0.07661 0.06648 0.35569 0.0
N8 N 0.07558 0.08734 0.36252 0.0
C9 C 0.10744 0.08289 0.38425 0.0
C10 C 0.10891 0.06141 0.37733 0.0
C11 C 0.09342 0.05317 0.36299 0.0
C12 C 0.09048 0.09547 0.37621 0.0
H13 H 0.06463 0.06001 0.34482 0.0
C14 C 0.02189 0.0817 0.33023 0.0
O15 O 0.97492 0.08632 0.37802 0.0
O16 O 0.00288 0.0653 0.38532 0.0
N17 N 0.06999 0.12693 0.37535 0.0
C18 C 0.06529 0.14742 0.3818 0.0
C19 C 0.0787 0.15772 0.39685 0.0
C20 C 0.09678 0.14686 0.40514 0.0
C21 C 0.1013 0.12579 0.39827 0.0
C22 C 0.08749 0.11643 0.38305 0.0
H23 H 0.05132 0.15578 0.37562 0.0
O24 O 0.01252 0.10563 0.40362 0.0
O25 O 0.03608 0.09811 0.37823 0.0
O26 O 0.0025 0.12566 0.36277 0.0
O27 O 0.03467 0.13251 0.3475 0.0
C28 C 0.11867 0.11354 0.40632 0.0
C29 C 0.12176 0.09211 0.39929 0.0
H30 H 0.12171 0.05101 0.38312 0.0
H31 H 0.09437 0.03657 0.35769 0.0
H32 H 0.07505 0.17394 0.40216 0.0
H33 H 0.10695 0.15477 0.41694 0.0
H34 H 0.12957 0.12032 0.41817 0.0
H35 H 0.13497 0.08275 0.40586 0.0
Mn36 Mn 0.96817 0.39252 0.37673 0.0
Mn37 Mn 0.91665 0.38122 0.36337 0.0
C38 C 0.94563 0.37684 0.40177 0.0
C39 C 0.99386 0.41696 0.38875 0.0
C40 C 0.95479 0.35405 0.34916 0.0
O41 O 0.9633 0.41007 0.34967 0.0
O42 O 0.92805 0.40382 0.34345 0.0
C43 C 0.89655 0.42313 0.37441 0.0
N44 N 0.8977 0.40134 0.37707 0.0
C45 C 0.86897 0.40192 0.40317 0.0
C46 C 0.86735 0.42434 0.40057 0.0
C47 C 0.88122 0.43498 0.38614 0.0
C48 C 0.88439 0.39092 0.39085 0.0
H49 H 0.90729 0.43142 0.36349 0.0
C50 C 0.94592 0.41336 0.33921 0.0
O51 O -0.00074 0.40062 0.37681 0.0
O52 O 0.97362 0.41909 0.39363 0.0
N53 N 0.90365 0.36001 0.3817 0.0
C54 C 0.90832 0.3386 0.38349 0.0
C55 C 0.89646 0.32576 0.3979 0.0
C56 C 0.87991 0.33504 0.41028 0.0
C57 C 0.87531 0.35707 0.40808 0.0
C58 C 0.88751 0.36902 0.39328 0.0
H59 H 0.92112 0.33139 0.37414 0.0
O60 O 0.96642 0.37549 0.40397 0.0
O61 O 0.93875 0.38761 0.38512 0.0
O62 O 0.96912 0.36486 0.35914 0.0
O63 O 0.93481 0.35918 0.34901 0.0
C64 C 0.85944 0.36775 0.42036 0.0
C65 C 0.85627 0.39015 0.41791 0.0
H66 H 0.85569 0.43357 0.40974 0.0
H67 H 0.88016 0.4523 0.38416 0.0
H68 H 0.90016 0.30878 0.39956 0.0
H69 H 0.87097 0.32513 0.42157 0.0
H70 H 0.84982 0.35894 0.43199 0.0
H71 H 0.84426 0.39823 0.42769 0.0
Mn72 Mn -0.00079 0.89962 0.12666 0.0
Mn73 Mn 0.05121 0.89124 0.14022 0.0
C74 C 0.02358 0.88852 0.10079 0.0
C75 C 0.97183 0.92274 0.11581 0.0
C76 C 0.01491 0.86058 0.15193 0.0
O77 O 0.00228 0.91522 0.15528 0.0
O78 O 0.03801 0.91162 0.16123 0.0
C79 C 0.06915 0.93487 0.13267 0.0
N80 N 0.0692 0.91332 0.12838 0.0
C81 C 0.09855 0.91732 0.10327 0.0
C82 C 0.09891 0.93953 0.10755 0.0
C83 C 0.08413 0.94833 0.1223 0.0
C84 C 0.08344 0.90465 0.11431 0.0
H85 H 0.05771 0.94175 0.14386 0.0
C86 C 0.01937 0.91929 0.166 0.0
O87 O 0.96754 0.90515 0.12635 0.0
O88 O 0.99193 0.92697 0.11184 0.0
N89 N 0.06561 0.8722 0.12062 0.0
C90 C 0.06187 0.85087 0.11688 0.0
C91 C 0.07455 0.83983 0.1017 0.0
C92 C 0.09094 0.85081 0.09056 0.0
C93 C 0.09451 0.87276 0.0947 0.0
C94 C 0.08149 0.88288 0.11014 0.0
H95 H 0.0492 0.84237 0.12527 0.0
O96 O 0.00306 0.88533 0.09799 0.0
O97 O 0.02904 0.89794 0.11869 0.0
O98 O 6e-05 0.8706 0.14192 0.0
O99 O 0.03437 0.86727 0.15296 0.0
C100 C 0.11011 0.88511 0.08371 0.0
C101 C 0.11215 0.90737 0.08801 0.0
H102 H 0.11027 0.95001 0.0994 0.0
H103 H 0.08421 0.96548 0.12557 0.0
H104 H 0.07163 0.82291 0.09852 0.0
H105 H 0.10054 0.84229 0.07871 0.0
H106 H 0.12038 0.87774 0.07165 0.0
H107 H 0.12394 0.91677 0.07919 0.0
Mn108 Mn 0.98122 0.59953 0.14589 0.0
Mn109 Mn 0.9298 0.61504 0.15417 0.0
C110 C 0.96088 0.61161 0.11722 0.0
C111 C 0.00587 0.57201 0.13971 0.0
C112 C 0.96873 0.642 0.16671 0.0
O113 O 0.97399 0.58733 0.17538 0.0
O114 O 0.93838 0.59446 0.17732 0.0
C115 C 0.90716 0.57359 0.14712 0.0
N116 N 0.91017 0.59471 0.14185 0.0
C117 C 0.88283 0.59288 0.11436 0.0
C118 C 0.87931 0.57115 0.11962 0.0
C119 C 0.89155 0.56147 0.13605 0.0
C120 C 0.89842 0.60422 0.12612 0.0
H121 H 0.91664 0.56602 0.15961 0.0
C122 C 0.95562 0.58552 0.18449 0.0
O123 O 0.01183 0.59005 0.14853 0.0
O124 O 0.98568 0.57001 0.13459 0.0
N125 N 0.9196 0.63456 0.13249 0.0
C126 C 0.92617 0.65511 0.12823 0.0
C127 C 0.91621 0.66677 0.11155 0.0
C128 C 0.8996 0.65722 0.09947 0.0
C129 C 0.89305 0.6361 0.10421 0.0
C130 C 0.90342 0.62533 0.12116 0.0
H131 H 0.93901 0.66251 0.13735 0.0
O132 O 0.98179 0.61141 0.116 0.0
O133 O 0.95258 0.6043 0.13505 0.0
O134 O 0.98297 0.62983 0.1583 0.0
O135 O 0.94863 0.63742 0.16705 0.0
C136 C 0.87702 0.62512 0.09243 0.0
C137 C 0.8719 0.60353 0.09751 0.0
H138 H 0.86745 0.56169 0.11097 0.0
H139 H 0.88903 0.54467 0.1401 0.0
H140 H 0.92141 0.68304 0.10794 0.0
H141 H 0.89213 0.66619 0.08646 0.0
H142 H 0.86878 0.63301 0.0792 0.0
H143 H 0.85981 0.59515 0.08809 0.0
Mn144 Mn 0.37097 0.00978 0.09098 0.0
Mn145 Mn 0.35744 0.05995 0.10677 0.0
C146 C 0.39765 0.03374 0.10081 0.0
C147 C 0.37818 0.98599 0.06292 0.0
C148 C 0.35126 0.01998 0.13452 0.0
O149 O 0.34005 0.01319 0.0809 0.0
O150 O 0.33434 0.04849 0.08762 0.0
C151 C 0.35918 0.08312 0.06505 0.0
N152 N 0.36608 0.08083 0.08578 0.0
C153 C 0.39003 0.11119 0.08228 0.0
C154 C 0.38305 0.11398 0.06095 0.0
C155 C 0.36757 0.09987 0.0523 0.0
C156 C 0.38088 0.09438 0.09431 0.0
H157 H 0.34743 0.07221 0.05826 0.0
C158 C 0.32873 0.03032 0.07943 0.0
O159 O 0.37149 0.97902 0.08153 0.0
O160 O 0.38067 0.00665 0.06075 0.0
N161 N 0.37893 0.07271 0.12492 0.0
C162 C 0.38529 0.06669 0.14509 0.0
C163 C 0.40146 0.07851 0.15566 0.0
C164 C 0.4109 0.09638 0.14542 0.0
C165 C 0.40406 0.10231 0.1247 0.0
C166 C 0.38773 0.09005 0.11503 0.0
H167 H 0.37822 0.05288 0.15299 0.0
O168 O 0.4015 0.01315 0.10069 0.0
O169 O 0.3784 0.03955 0.09488 0.0
O170 O 0.36088 0.00676 0.12207 0.0
O171 O 0.34818 0.03983 0.12982 0.0
C172 C 0.4132 0.11955 0.11304 0.0
C173 C 0.40617 0.124 0.09186 0.0
H174 H 0.38966 0.12672 0.05099 0.0
H175 H 0.36222 0.10183 0.0358 0.0
H176 H 0.40671 0.07378 0.17162 0.0
H177 H 0.42353 0.10531 0.15354 0.0
H178 H 0.4259 0.12926 0.12007 0.0
H179 H 0.41359 0.13706 0.08292 0.0
Mn180 Mn 0.61975 0.51056 0.09256 0.0
Mn181 Mn 0.63627 0.45894 0.09676 0.0
C182 C 0.59474 0.48344 0.09723 0.0
C183 C 0.61019 0.53932 0.07068 0.0
C184 C 0.64083 0.49192 0.13265 0.0
O185 O 0.65043 0.51138 0.08122 0.0
O186 O 0.65856 0.47587 0.08105 0.0
C187 C 0.6355 0.44616 0.05077 0.0
N188 N 0.62865 0.44313 0.07143 0.0
C189 C 0.60645 0.41311 0.06081 0.0
C190 C 0.61337 0.41583 0.03945 0.0
C191 C 0.62795 0.43244 0.03442 0.0
C192 C 0.61469 0.42714 0.07647 0.0
H193 H 0.64659 0.459 0.0468 0.0
C194 C 0.66284 0.49562 0.07657 0.0
O195 O 0.61692 0.54256 0.09025 0.0
O196 O 0.60904 0.51957 0.06394 0.0
N197 N 0.61574 0.44104 0.11133 0.0
C198 C 0.60938 0.44165 0.13236 0.0
C199 C 0.59412 0.42667 0.13984 0.0
C200 C 0.58561 0.4112 0.12565 0.0
C201 C 0.59245 0.41083 0.1041 0.0
C202 C 0.60785 0.42604 0.09761 0.0
H203 H 0.61577 0.45358 0.14332 0.0
O204 O 0.58975 0.50324 0.10186 0.0
O205 O 0.6141 0.48029 0.08988 0.0
O206 O 0.6307 0.50722 0.12337 0.0
O207 O 0.64447 0.47366 0.1238 0.0
C208 C 0.58425 0.39628 0.0887 0.0
C209 C 0.59124 0.39741 0.06707 0.0
H210 H 0.60742 0.40541 0.02675 0.0
H211 H 0.63326 0.43472 0.01794 0.0
H212 H 0.58886 0.42711 0.15648 0.0
H213 H 0.57367 0.39981 0.13143 0.0
H214 H 0.57227 0.38438 0.09323 0.0
H215 H 0.58454 0.38637 0.05531 0.0
Mn216 Mn 0.37343 0.96856 0.39373 0.0
Mn217 Mn 0.35881 0.91817 0.37956 0.0
C218 C 0.39899 0.94513 0.38041 0.0
C219 C 0.38326 0.99256 0.4208 0.0
C220 C 0.34947 0.95788 0.35237 0.0
O221 O 0.344 0.96482 0.40734 0.0
O222 O 0.33763 0.92962 0.40092 0.0
C223 C 0.36539 0.89587 0.42128 0.0
N224 N 0.3699 0.89777 0.39987 0.0
C225 C 0.39463 0.86787 0.40134 0.0
C226 C 0.39008 0.86547 0.42336 0.0
C227 C 0.37542 0.87955 0.43338 0.0
C228 C 0.38395 0.88428 0.39005 0.0
H229 H 0.35429 0.90678 0.42911 0.0
C230 C 0.3329 0.94769 0.40983 0.0
O231 O 0.3744 -0.00067 0.40305 0.0
O232 O 0.38654 0.97197 0.42263 0.0
N233 N 0.37826 0.90519 0.35937 0.0
C234 C 0.38199 0.91059 0.33839 0.0
C235 C 0.39687 0.89857 0.32626 0.0
C236 C 0.40774 0.88112 0.3358 0.0
C237 C 0.40353 0.87577 0.35737 0.0
C238 C 0.38834 0.88818 0.36859 0.0
H239 H 0.3738 0.92405 0.33098 0.0
O240 O 0.40257 0.96577 0.38041 0.0
O241 O 0.38081 0.93888 0.38881 0.0
O242 O 0.35976 0.97129 0.36406 0.0
O243 O 0.34716 0.93796 0.35728 0.0
C244 C 0.41419 0.85894 0.36831 0.0
C245 C 0.40975 0.85499 0.39028 0.0
H246 H 0.39795 0.85303 0.4328 0.0
H247 H 0.37195 0.87789 0.45041 0.0
H248 H 0.40007 0.90284 0.30963 0.0
H249 H 0.4194 0.87206 0.32646 0.0
H250 H 0.42609 0.84914 0.36007 0.0
H251 H 0.41829 0.84222 0.3986 0.0
Mn252 Mn 0.63367 0.49518 0.40072 0.0
Mn253 Mn 0.64865 0.54686 0.39304 0.0
C254 C 0.60773 0.52125 0.39485 0.0
C255 C 0.62567 0.46748 0.42459 0.0
C256 C 0.65327 0.51187 0.35909 0.0
O257 O 0.66469 0.4959 0.41129 0.0
O258 O 0.67152 0.53157 0.40954 0.0
C259 C 0.64812 0.56251 0.43815 0.0
N260 N 0.641 0.5641 0.41743 0.0
C261 C 0.61863 0.59456 0.42629 0.0
C262 C 0.62584 0.59334 0.4477 0.0
C263 C 0.64061 0.57722 0.45365 0.0
C264 C 0.6268 0.57956 0.41151 0.0
H265 H 0.6594 0.55008 0.44282 0.0
C266 C 0.67659 0.51227 0.41505 0.0
O267 O 0.6321 0.46331 0.40508 0.0
O268 O 0.62383 0.48759 0.43004 0.0
N269 N 0.62756 0.56337 0.37765 0.0
C270 C 0.62099 0.56133 0.35677 0.0
C271 C 0.60553 0.57568 0.3485 0.0
C272 C 0.59706 0.59201 0.36172 0.0
C273 C 0.60415 0.59386 0.38312 0.0
C274 C 0.61969 0.57919 0.39044 0.0
H275 H 0.62739 0.54878 0.34654 0.0
O276 O 0.60325 0.50104 0.39172 0.0
O277 O 0.62712 0.52543 0.40162 0.0
O278 O 0.64374 0.49694 0.36952 0.0
O279 O 0.6568 0.53066 0.36681 0.0
C280 C 0.59606 0.6094 0.39759 0.0
C281 C 0.60328 0.60974 0.41916 0.0
H282 H 0.61996 0.60456 0.45974 0.0
H283 H 0.64615 0.5761 0.47017 0.0
H284 H 0.6001 0.5741 0.33199 0.0
H285 H 0.585 0.60292 0.35534 0.0
H286 H 0.584 0.62093 0.39239 0.0
H287 H 0.59666 0.62153 0.43023 0.0
Mn288 Mn 0.09057 0.37513 0.00537 0.0
Mn289 Mn 0.1023 0.35855 0.05576 0.0
C290 C 0.09759 0.40024 0.03197 0.0
C291 C 0.0647 0.38358 0.97959 0.0
C292 C 0.13335 0.35518 0.01804 0.0
O293 O 0.08071 0.34385 0.00589 0.0
O294 O 0.0848 0.336 0.04119 0.0
C295 C 0.05873 0.35806 0.07528 0.0
N296 N 0.0794 0.36548 0.0752 0.0
C297 C 0.07291 0.38706 0.1068 0.0
C298 C 0.05158 0.37955 0.10729 0.0
C299 C 0.04446 0.36501 0.09144 0.0
C300 C 0.08645 0.37943 0.09041 0.0
H301 H 0.05316 0.34696 0.06307 0.0
C302 C 0.0782 0.33141 0.02212 0.0
O303 O 0.08398 0.3776 0.97398 0.0
O304 O 0.06058 0.38467 8e-05 0.0
N305 N 0.11882 0.37943 0.0714 0.0
C306 C 0.13934 0.38638 0.06767 0.0
C307 C 0.1486 0.40171 0.08153 0.0
C308 C 0.1367 0.4097 0.09909 0.0
C309 C 0.11564 0.40226 0.10264 0.0
C310 C 0.10732 0.38685 0.08838 0.0
H311 H 0.14853 0.38038 0.05416 0.0
O312 O 0.09933 0.40557 0.01178 0.0
O313 O 0.09171 0.38051 0.03575 0.0
O314 O 0.12194 0.36556 0.00446 0.0
O315 O 0.12712 0.35091 0.03721 0.0
C316 C 0.10244 0.40986 0.1195 0.0
C317 C 0.0811 0.40224 0.1216 0.0
H318 H 0.04047 0.38502 0.11962 0.0
H319 H 0.02799 0.35924 0.09164 0.0
H320 H 0.16483 0.40743 0.07864 0.0
H321 H 0.14384 0.42167 0.10963 0.0
H322 H 0.10842 0.42182 0.13074 0.0
H323 H 0.071 0.40846 0.13443 0.0
Mn324 Mn 0.09227 0.61804 0.51265 0.0
Mn325 Mn 0.09405 0.63386 0.4606 0.0
C326 C 0.09505 0.59261 0.48566 0.0
C327 C 0.07238 0.60877 0.54297 0.0
C328 C 0.13183 0.63797 0.49139 0.0
O329 O 0.08122 0.64882 0.51373 0.0
O330 O 0.08011 0.65682 0.4782 0.0
C331 C 0.04737 0.63457 0.45058 0.0
N332 N 0.06757 0.62702 0.44638 0.0
C333 C 0.0545 0.60516 0.41709 0.0
C334 C 0.03358 0.61282 0.42101 0.0
C335 C 0.03001 0.62757 0.43784 0.0
C336 C 0.07121 0.6129 0.43016 0.0
H337 H 0.04453 0.6458 0.46359 0.0
C338 C 0.07642 0.66131 0.49807 0.0
O339 O 0.0921 0.6156 0.54473 0.0
O340 O 0.06423 0.60755 0.52374 0.0
N341 N 0.10682 0.61274 0.44205 0.0
C342 C 0.1276 0.60558 0.44155 0.0
C343 C 0.13366 0.59001 0.42626 0.0
C344 C 0.11833 0.58199 0.41164 0.0
C345 C 0.09707 0.58966 0.4124 0.0
C346 C 0.09201 0.60533 0.42787 0.0
H347 H 0.13942 0.61158 0.45284 0.0
O348 O 0.10088 0.58794 0.50522 0.0
O349 O 0.0877 0.61201 0.48257 0.0
O350 O 0.12296 0.62864 0.50742 0.0
O351 O 0.12222 0.6413 0.47348 0.0
C352 C 0.08058 0.58197 0.39879 0.0
C353 C 0.05931 0.58972 0.40113 0.0
H354 H 0.0201 0.6073 0.41136 0.0
H355 H 0.01388 0.63346 0.44104 0.0
H356 H 0.15008 0.58411 0.42583 0.0
H357 H 0.12302 0.56981 0.40002 0.0
H358 H 0.08401 0.56983 0.3867 0.0
H359 H 0.04671 0.58341 0.39081 0.0
Mn360 Mn 0.89946 0.8699 0.52708 0.0
Mn361 Mn 0.89344 0.85587 0.47496 0.0
C362 C 0.89049 0.89565 0.50166 0.0
C363 C 0.92205 0.88093 0.55479 0.0
C364 C 0.86054 0.84554 0.50965 0.0
O365 O 0.91458 0.8409 0.52523 0.0
O366 O 0.91202 0.83412 0.48953 0.0
C367 C 0.93839 0.86177 0.45997 0.0
N368 N 0.91709 0.86695 0.45855 0.0
C369 C 0.92418 0.89293 0.43056 0.0
C370 C 0.94618 0.88776 0.43164 0.0
C371 C 0.9533 0.87212 0.44641 0.0
C372 C 0.91004 0.8819 0.44431 0.0
H373 H 0.94398 0.84991 0.47144 0.0
C374 C 0.91876 0.82956 0.50856 0.0
O375 O 0.90409 0.87096 0.55901 0.0
O376 O 0.92685 0.88418 0.53473 0.0
N377 N 0.87613 0.87616 0.45936 0.0
C378 C 0.85465 0.88036 0.46142 0.0
C379 C 0.84508 0.89616 0.44829 0.0
C380 C 0.85768 0.90749 0.43325 0.0
C381 C 0.87975 0.90288 0.43141 0.0
C382 C 0.88834 0.88677 0.44473 0.0
H383 H 0.84492 0.87184 0.47308 0.0
O384 O 0.88621 0.89898 0.5219 0.0
O385 O 0.89939 0.87725 0.49723 0.0
O386 O 0.87001 0.85531 0.52507 0.0
O387 O 0.86815 0.84424 0.49053 0.0
C388 C 0.89364 0.91398 0.41725 0.0
C389 C 0.91584 0.909 0.41682 0.0
H390 H 0.95776 0.89588 0.42137 0.0
H391 H 0.97027 0.86814 0.44743 0.0
H392 H 0.82806 0.8997 0.44987 0.0
H393 H 0.8503 0.91985 0.42334 0.0
H394 H 0.88747 0.92659 0.40684 0.0
H395 H 0.9264 0.91787 0.40609 0.0
Mn396 Mn 0.40061 0.6323 0.50288 0.0
Mn397 Mn 0.38684 0.646 0.55359 0.0
C398 C 0.39015 0.60581 0.52672 0.0
C399 C 0.4281 0.62447 0.47863 0.0
C400 C 0.35787 0.65295 0.51464 0.0
O401 O 0.41172 0.66285 0.50609 0.0
O402 O 0.40623 0.66867 0.54152 0.0
C403 C 0.42941 0.64279 0.57497 0.0
N404 N 0.40838 0.63661 0.57355 0.0
C405 C 0.41234 0.61238 0.60364 0.0
C406 C 0.434 0.61863 0.60553 0.0
C407 C 0.44256 0.63388 0.59112 0.0
C408 C 0.39993 0.62201 0.58739 0.0
H409 H 0.43612 0.65437 0.56381 0.0
C410 C 0.41401 0.67411 0.52313 0.0
O411 O 0.40958 0.63166 0.4719 0.0
O412 O 0.43043 0.62175 0.49922 0.0
N413 N 0.3685 0.62512 0.5671 0.0
C414 C 0.34781 0.61963 0.56208 0.0
C415 C 0.33716 0.60389 0.5744 0.0
C416 C 0.34784 0.59399 0.59176 0.0
C417 C 0.36907 0.59998 0.59669 0.0
C418 C 0.37881 0.61594 0.58399 0.0
H419 H 0.33954 0.62708 0.5487 0.0
O420 O 0.38994 0.60216 0.50611 0.0
O421 O 0.39712 0.62468 0.53269 0.0
O422 O 0.3697 0.64334 0.50082 0.0
O423 O 0.36338 0.65583 0.53431 0.0
C424 C 0.38114 0.59036 0.61338 0.0
C425 C 0.40275 0.59656 0.61686 0.0
H426 H 0.44426 0.61163 0.61782 0.0
H427 H 0.4593 0.63867 0.59238 0.0
H428 H 0.32078 0.59931 0.57046 0.0
H429 H 0.33964 0.58167 0.60106 0.0
H430 H 0.37406 0.57792 0.62341 0.0
H431 H 0.41196 0.5888 0.62952 0.0
Mn432 Mn 0.4833 0.60055 0.86195 0.0
Mn433 Mn 0.53744 0.60302 0.85863 0.0
C434 C 0.50316 0.6075 0.8926 0.0
C435 C 0.45328 0.57838 0.8644 0.0
C436 C 0.50757 0.63905 0.8439 0.0
O437 O 0.48998 0.58769 0.83263 0.0
O438 O 0.52614 0.58554 0.83423 0.0
C439 C 0.54749 0.55702 0.86661 0.0
N440 N 0.54985 0.57818 0.87202 0.0
C441 C 0.57378 0.56915 0.90121 0.0
C442 C 0.57174 0.54727 0.89585 0.0
C443 C 0.55847 0.54118 0.87852 0.0
C444 C 0.56241 0.58421 0.88878 0.0
H445 H 0.53728 0.55226 0.85333 0.0
C446 C 0.50805 0.5814 0.82515 0.0
O447 O 0.45161 0.59768 0.85633 0.0
O448 O 0.47201 0.57244 0.87149 0.0
N449 N 0.55066 0.61912 0.88142 0.0
C450 C 0.5503 0.64081 0.88498 0.0
C451 C 0.56249 0.64952 0.90195 0.0
C452 C 0.5751 0.63589 0.91495 0.0
C453 C 0.5754 0.61365 0.91084 0.0
C454 C 0.563 0.6059 0.89364 0.0
H455 H 0.54077 0.6514 0.87496 0.0
O456 O 0.48266 0.61169 0.8922 0.0
O457 O 0.5111 0.59859 0.87536 0.0
O458 O 0.48993 0.63072 0.85054 0.0
O459 O 0.52585 0.62951 0.84506 0.0
C460 C 0.5874 0.59883 0.92324 0.0
C461 C 0.58647 0.57659 0.91852 0.0
H462 H 0.58016 0.535 0.90502 0.0
H463 H 0.55672 0.52431 0.87436 0.0
H464 H 0.5622 0.66671 0.90501 0.0
H465 H 0.58444 0.64268 0.92805 0.0
H466 H 0.59728 0.60434 0.93655 0.0
H467 H 0.59552 0.56534 0.92837 0.0
Mn468 Mn 0.52023 0.9068 0.86884 0.0
Mn469 Mn 0.47075 0.89972 0.8477 0.0
C470 C 0.49138 0.90063 0.89149 0.0
C471 C 0.54643 0.93142 0.87937 0.0
C472 C 0.50621 0.86587 0.84624 0.0
O473 O 0.52303 0.91754 0.8381 0.0
O474 O 0.48834 0.91711 0.82721 0.0
C475 C 0.45458 0.94465 0.84797 0.0
N476 N 0.45249 0.92368 0.85423 0.0
C477 C 0.41982 0.9316 0.87365 0.0
C478 C 0.42154 0.95325 0.86729 0.0
C479 C 0.43901 0.95979 0.85441 0.0
C480 C 0.43571 0.91719 0.86655 0.0
H481 H 0.46805 0.94977 0.83819 0.0
C482 C 0.50824 0.92214 0.82459 0.0
O483 O 0.55173 0.91188 0.87387 0.0
O484 O 0.52609 0.93621 0.87938 0.0
N485 N 0.45223 0.88347 0.86634 0.0
C486 C 0.45382 0.8624 0.87244 0.0
C487 C 0.43809 0.85353 0.88612 0.0
C488 C 0.42088 0.86637 0.89335 0.0
C489 C 0.41953 0.88798 0.88679 0.0
C490 C 0.43557 0.89589 0.87299 0.0
H491 H 0.46705 0.85247 0.86703 0.0
O492 O 0.51094 0.89761 0.89834 0.0
O493 O 0.48952 0.90753 0.87179 0.0
O494 O 0.51976 0.87557 0.85831 0.0
O495 O 0.48815 0.87401 0.8405 0.0
C496 C 0.40316 0.9021 0.8938 0.0
C497 C 0.40329 0.92389 0.88722 0.0
H498 H 0.40968 0.96502 0.87239 0.0
H499 H 0.44052 0.9765 0.84955 0.0
H500 H 0.43929 0.83686 0.89117 0.0
H501 H 0.4089 0.85953 0.90408 0.0
H502 H 0.39058 0.89646 0.90453 0.0
H503 H 0.39082 0.93468 0.89301 0.0
Mn504 Mn 0.49517 0.39741 0.62213 0.0
Mn505 Mn 0.54695 0.38983 0.63696 0.0
C506 C 0.52028 0.38657 0.59683 0.0
C507 C 0.46793 0.42056 0.61106 0.0
C508 C 0.51101 0.35821 0.64709 0.0
O509 O 0.49722 0.41283 0.65095 0.0
O510 O 0.53276 0.40968 0.65776 0.0
C511 C 0.56397 0.43396 0.63023 0.0
N512 N 0.56482 0.41242 0.62598 0.0
C513 C 0.59585 0.41705 0.60312 0.0
C514 C 0.59539 0.43927 0.60736 0.0
C515 C 0.57933 0.44776 0.62092 0.0
C516 C 0.58016 0.40408 0.61291 0.0
H517 H 0.55165 0.44056 0.64064 0.0
C518 C 0.51395 0.41707 0.66213 0.0
O519 O 0.46346 0.40274 0.62116 0.0
O520 O 0.48808 0.42486 0.60747 0.0
N521 N 0.56257 0.37128 0.61786 0.0
C522 C 0.55962 0.34985 0.61393 0.0
C523 C 0.5737 0.33907 0.59984 0.0
C524 C 0.59075 0.35037 0.5901 0.0
C525 C 0.59351 0.37239 0.59446 0.0
C526 C 0.57897 0.38228 0.60862 0.0
H527 H 0.54657 0.34107 0.6214 0.0
O528 O 0.49985 0.38339 0.59344 0.0
O529 O 0.52525 0.39611 0.61482 0.0
O530 O 0.49607 0.36813 0.63706 0.0
O531 O 0.53024 0.36539 0.64873 0.0
C532 C 0.60989 0.38499 0.58501 0.0
C533 C 0.61099 0.40732 0.58924 0.0
H534 H 0.60714 0.44998 0.60012 0.0
H535 H 0.5788 0.46491 0.62417 0.0
H536 H 0.57141 0.32209 0.59651 0.0
H537 H 0.60152 0.34201 0.57916 0.0
H538 H 0.62148 0.37773 0.57414 0.0
H539 H 0.62338 0.41692 0.5815 0.0
Mn540 Mn 0.51843 0.0936 0.61467 0.0
Mn541 Mn 0.4678 0.09379 0.63449 0.0
C542 C 0.48942 0.0952 0.59141 0.0
C543 C 0.54845 0.07413 0.60376 0.0
C544 C 0.49779 0.13244 0.6363 0.0
O545 O 0.52217 0.08304 0.64544 0.0
O546 O 0.48738 0.08006 0.65586 0.0
C547 C 0.45889 0.04689 0.63543 0.0
N548 N 0.45372 0.06706 0.62839 0.0
C549 C 0.42325 0.0535 0.60855 0.0
C550 C 0.42816 0.0326 0.61569 0.0
C551 C 0.44608 0.02929 0.62917 0.0
C552 C 0.43648 0.07044 0.61548 0.0
H553 H 0.47271 0.04425 0.6457 0.0
C554 C 0.50767 0.07734 0.6589 0.0
O555 O 0.55027 0.09409 0.60988 0.0
O556 O 0.52935 0.06563 0.60391 0.0
N557 N 0.44746 0.10634 0.61492 0.0
C558 C 0.44589 0.12721 0.60816 0.0
C559 C 0.42934 0.13308 0.59386 0.0
C560 C 0.41456 0.11747 0.5867 0.0
C561 C 0.41645 0.09612 0.59394 0.0
C562 C 0.43316 0.09125 0.60833 0.0
H563 H 0.45726 0.13925 0.61353 0.0
O564 O 0.50836 0.10145 0.58504 0.0
O565 O 0.48821 0.08814 0.6111 0.0
O566 O 0.51311 0.12428 0.62529 0.0
O567 O 0.48064 0.12216 0.64127 0.0
C568 C 0.40269 0.07939 0.58707 0.0
C569 C 0.40608 0.0581 0.59438 0.0
H570 H 0.41844 0.01896 0.61075 0.0
H571 H 0.45005 0.01319 0.63465 0.0
H572 H 0.42803 0.14957 0.58829 0.0
H573 H 0.40194 0.12202 0.5755 0.0
H574 H 0.38967 0.08265 0.57589 0.0
H575 H 0.3956 0.04531 0.58871 0.0
Mn576 Mn 0.87399 0.47706 0.60408 0.0
Mn577 Mn 0.87259 0.53138 0.60142 0.0
C578 C 0.90349 0.49701 0.61504 0.0
C579 C 0.88027 0.44438 0.58697 0.0
C580 C 0.85038 0.50558 0.63656 0.0
O581 O 0.8485 0.48294 0.58436 0.0
O582 O 0.85044 0.51909 0.58181 0.0
C583 C 0.88755 0.53626 0.55632 0.0
N584 N 0.88998 0.54066 0.57771 0.0
C585 C 0.92121 0.56263 0.57073 0.0
C586 C 0.91896 0.55845 0.54862 0.0
C587 C 0.90211 0.54514 0.5414 0.0
C588 C 0.90628 0.55324 0.58485 0.0
H589 H 0.87463 0.52604 0.55069 0.0
C590 C 0.84214 0.5009 0.57661 0.0
O591 O 0.8674 0.44549 0.60348 0.0
O592 O 0.88935 0.46209 0.58057 0.0
N593 N 0.89342 0.54552 0.61928 0.0
C594 C 0.89371 0.54746 0.64117 0.0
C595 C 0.90967 0.56015 0.65102 0.0
C596 C 0.92501 0.5709 0.63826 0.0
C597 C 0.92429 0.56881 0.61575 0.0
C598 C 0.90797 0.556 0.60685 0.0
H599 H 0.88185 0.5394 0.65105 0.0
O600 O 0.90119 0.47723 0.62155 0.0
O601 O 0.88865 0.50423 0.60215 0.0
O602 O 0.85661 0.48702 0.63018 0.0
O603 O 0.85486 0.52312 0.62665 0.0
C604 C 0.93916 0.57887 0.6018 0.0
C605 C 0.93775 0.57562 0.57933 0.0
H606 H 0.93015 0.56528 0.53706 0.0
H607 H 0.90032 0.54176 0.52437 0.0
H608 H 0.91011 0.56171 0.6684 0.0
H609 H 0.93727 0.58069 0.64593 0.0
H610 H 0.95184 0.58905 0.60817 0.0
H611 H 0.94947 0.58319 0.56881 0.0
Mn612 Mn 0.14126 0.98492 0.59877 0.0
Mn613 Mn 0.15093 0.93349 0.61362 0.0
C614 C 0.11342 0.9641 0.61199 0.0
C615 C 0.13396 0.0097 0.57159 0.0
C616 C 0.16396 0.97246 0.6403 0.0
O617 O 0.17034 0.97817 0.58538 0.0
O618 O 0.17295 0.94252 0.59204 0.0
C619 C 0.14223 0.91106 0.57238 0.0
N620 N 0.13797 0.9138 0.59375 0.0
C621 C 0.11105 0.88584 0.59309 0.0
C622 C 0.11527 0.8826 0.57111 0.0
C623 C 0.13091 0.89529 0.56071 0.0
C624 C 0.12299 0.90165 0.60394 0.0
H625 H 0.15412 0.92088 0.56427 0.0
C626 C 0.17952 0.95991 0.58295 0.0
O627 O 0.14327 0.0156 0.5894 0.0
O628 O 0.12881 0.9895 0.56968 0.0
N629 N 0.1304 0.92278 0.63408 0.0
C630 C 0.12712 0.92901 0.6549 0.0
C631 C 0.11136 0.91851 0.66734 0.0
C632 C 0.0992 0.90169 0.65828 0.0
C633 C 0.10294 0.89546 0.63687 0.0
C634 C 0.119 0.90638 0.62531 0.0
H635 H 0.13634 0.94198 0.66195 0.0
O636 O 0.11183 0.98499 0.61181 0.0
O637 O 0.13103 0.95609 0.60388 0.0
O638 O 0.15481 0.98663 0.62857 0.0
O639 O 0.16453 0.9524 0.63552 0.0
C640 C 0.09103 0.87919 0.62639 0.0
C641 C 0.09507 0.87439 0.60452 0.0
H642 H 0.10644 0.87058 0.56201 0.0
H643 H 0.13416 0.89298 0.54371 0.0
H644 H 0.10852 0.92345 0.68383 0.0
H645 H 0.08689 0.89379 0.66785 0.0
H646 H 0.07847 0.87052 0.6349 0.0
H647 H 0.08555 0.8621 0.59655 0.0
Mn648 Mn 0.87045 0.5195 0.89864 0.0
Mn649 Mn 0.85191 0.46921 0.88939 0.0
C650 C 0.89413 0.49247 0.88885 0.0
C651 C 0.88272 0.54515 0.92299 0.0
C652 C 0.84567 0.50651 0.85834 0.0
O653 O 0.8409 0.51944 0.91279 0.0
O654 O 0.83127 0.48458 0.90851 0.0
C655 C 0.85514 0.45073 0.93331 0.0
N656 N 0.86062 0.45019 0.91204 0.0
C657 C 0.88223 0.41836 0.91731 0.0
C658 C 0.87672 0.41851 0.93925 0.0
C659 C 0.86314 0.43478 0.94728 0.0
C660 C 0.8736 0.43455 0.90412 0.0
H661 H 0.84479 0.46327 0.93957 0.0
C662 C 0.82815 0.50361 0.91602 0.0
O663 O 0.87388 0.55092 0.90488 0.0
O664 O 0.88434 0.52467 0.92687 0.0
N665 N 0.8709 0.4528 0.87141 0.0
C666 C 0.87609 0.45601 0.85029 0.0
C667 C 0.89037 0.44173 0.84004 0.0
C668 C 0.89914 0.4243 0.85158 0.0
C669 C 0.89354 0.4213 0.87328 0.0
C670 C 0.87911 0.43597 0.88261 0.0
H671 H 0.8695 0.46944 0.84138 0.0
O672 O 0.89935 0.51256 0.88594 0.0
O673 O 0.87522 0.48904 0.89715 0.0
O674 O 0.85677 0.52038 0.86868 0.0
O675 O 0.84234 0.48729 0.86499 0.0
C676 C 0.90208 0.40463 0.88616 0.0
C677 C 0.89639 0.40313 0.90815 0.0
H678 H 0.88301 0.40636 0.95012 0.0
H679 H 0.85891 0.43508 0.96421 0.0
H680 H 0.89469 0.4442 0.82331 0.0
H681 H 0.9103 0.41343 0.84366 0.0
H682 H 0.9133 0.39307 0.8794 0.0
H683 H 0.90334 0.39045 0.91796 0.0
Mn684 Mn 0.12563 0.004 0.89777 0.0
Mn685 Mn 0.13711 0.05617 0.88738 0.0
C686 C 0.09889 0.02682 0.88551 0.0
C687 C 0.11557 0.97713 0.92187 0.0
C688 C 0.15048 0.0192 0.85825 0.0
O689 O 0.15394 0.00888 0.91347 0.0
O690 O 0.15857 0.04461 0.90827 0.0
C691 C 0.12872 0.07543 0.93026 0.0
N692 N 0.12448 0.07448 0.90873 0.0
C693 C 0.09818 0.1029 0.91156 0.0
C694 C 0.10237 0.10428 0.93374 0.0
C695 C 0.1177 0.09046 0.94313 0.0
C696 C 0.10987 0.08779 0.8995 0.0
H697 H 0.14036 0.06474 0.93758 0.0
C698 C 0.16401 0.02654 0.91678 0.0
O699 O 0.12648 0.97257 0.90457 0.0
O700 O 0.11084 0.99722 0.92527 0.0
N701 N 0.11702 0.06904 0.86777 0.0
C702 C 0.11352 0.06436 0.84658 0.0
C703 C 0.09789 0.076 0.83504 0.0
C704 C 0.08604 0.09232 0.84537 0.0
C705 C 0.08994 0.09686 0.86718 0.0
C706 C 0.10586 0.08486 0.87781 0.0
H707 H 0.12246 0.05173 0.83859 0.0
O708 O 0.09697 0.00609 0.88311 0.0
O709 O 0.11646 0.0334 0.89484 0.0
O710 O 0.1411 0.00431 0.86884 0.0
O711 O 0.15059 0.03895 0.86412 0.0
C712 C 0.07829 0.11246 0.87891 0.0
C713 C 0.08242 0.11549 0.90107 0.0
H714 H 0.09374 0.11569 0.94377 0.0
H715 H 0.12092 0.09134 0.96026 0.0
H716 H 0.09489 0.07233 0.81824 0.0
H717 H 0.07384 0.10111 0.83647 0.0
H718 H 0.06586 0.12195 0.87112 0.0
H719 H 0.07309 0.12727 0.91 0.0
Mn720 Mn 0.60371 0.8684 0.48293 0.0
Mn721 Mn 0.60537 0.86838 0.53727 0.0
C722 C 0.61612 0.8984 0.50114 0.0
C723 C 0.58407 0.874 0.45158 0.0
C724 C 0.6384 0.84553 0.50933 0.0
O725 O 0.5846 0.84309 0.49104 0.0
O726 O 0.58489 0.84584 0.52723 0.0
C727 C 0.56075 0.88332 0.54545 0.0
N728 N 0.58241 0.88598 0.54796 0.0
C729 C 0.5771 0.918 0.56922 0.0
C730 C 0.55473 0.91554 0.56699 0.0
C731 C 0.54653 0.89815 0.55499 0.0
C732 C 0.59048 0.90274 0.55931 0.0
H733 H 0.55436 0.87002 0.53621 0.0
C734 C 0.57829 0.83714 0.50969 0.0
O735 O 0.60059 0.8611 0.45166 0.0
O736 O 0.57904 0.8834 0.46955 0.0
N737 N 0.62423 0.88968 0.54928 0.0
C738 C 0.6462 0.8902 0.54924 0.0
C739 C 0.65696 0.90679 0.56029 0.0
C740 C 0.64505 0.92253 0.57142 0.0
C741 C 0.62245 0.92154 0.5714 0.0
C742 C 0.61262 0.9046 0.56016 0.0
H743 H 0.65545 0.87809 0.54082 0.0
O744 O 0.62108 0.89557 0.48099 0.0
O745 O 0.60388 0.88374 0.50976 0.0
O746 O 0.63059 0.85131 0.49118 0.0
O747 O 0.62991 0.85044 0.52749 0.0
C748 C 0.6093 0.93678 0.58196 0.0
C749 C 0.58664 0.93511 0.58073 0.0
H750 H 0.54371 0.92695 0.57431 0.0
H751 H 0.52929 0.89619 0.5531 0.0
H752 H 0.67441 0.90743 0.56024 0.0
H753 H 0.65342 0.93533 0.57987 0.0
H754 H 0.61642 0.94994 0.59097 0.0
H755 H 0.57672 0.94711 0.58865 0.0
Mn756 Mn 0.6021 0.14336 0.99035 0.0
Mn757 Mn 0.61496 0.15569 0.93896 0.0
C758 C 0.61657 0.11724 0.96811 0.0
C759 C 0.57677 0.13232 0.01564 0.0
C760 C 0.64178 0.16928 0.97756 0.0
O761 O 0.5859 0.1713 0.9849 0.0
O762 O 0.59285 0.17644 0.94957 0.0
C763 C 0.57338 0.1462 0.91747 0.0
N764 N 0.59498 0.14266 0.91944 0.0
C765 C 0.59448 0.11685 0.89045 0.0
C766 C 0.57227 0.12034 0.88802 0.0
C767 C 0.56167 0.13505 0.90161 0.0
C768 C 0.60535 0.12859 0.90639 0.0
H769 H 0.56514 0.1574 0.92797 0.0
C770 C 0.58323 0.18145 0.96719 0.0
O771 O 0.59346 0.14364 0.02133 0.0
O772 O 0.5747 0.12775 0.99534 0.0
N773 N 0.63583 0.13639 0.92687 0.0
C774 C 0.65688 0.13354 0.93252 0.0
C775 C 0.66953 0.11858 0.92116 0.0
C776 C 0.66045 0.10675 0.90411 0.0
C777 C 0.63877 0.11 0.89856 0.0
C778 C 0.62698 0.12525 0.91035 0.0
H779 H 0.66393 0.1425 0.94567 0.0
O780 O 0.61771 0.11516 0.98892 0.0
O781 O 0.60701 0.13453 0.96109 0.0
O782 O 0.6306 0.15957 0.9918 0.0
O783 O 0.6369 0.16953 0.95754 0.0
C784 C 0.62827 0.09836 0.88212 0.0
C785 C 0.60614 0.10178 0.87807 0.0
H786 H 0.56314 0.11162 0.87594 0.0
H787 H 0.54451 0.13773 0.89993 0.0
H788 H 0.68623 0.11609 0.9256 0.0
H789 H 0.67021 0.09508 0.89552 0.0
H790 H 0.63698 0.08646 0.87274 0.0
H791 H 0.59816 0.09244 0.86564 0.0
Mn792 Mn 0.39233 0.3759 0.9751 0.0
Mn793 Mn 0.38036 0.36002 0.92453 0.0
C794 C 0.3796 0.40084 0.95063 0.0
C795 C 0.41829 0.38644 -9e-05 0.0
C796 C 0.35199 0.35082 0.96341 0.0
O797 O 0.40659 0.3466 0.97246 0.0
O798 O 0.40174 0.33958 0.93715 0.0
C799 C 0.42262 0.36698 0.90342 0.0
N800 N 0.40105 0.37101 0.90449 0.0
C801 C 0.40278 0.39436 0.87352 0.0
C802 C 0.42497 0.39031 0.87197 0.0
C803 C 0.43494 0.37659 0.88701 0.0
C804 C 0.39129 0.38416 0.89009 0.0
H805 H 0.43038 0.35657 0.91503 0.0
C806 C 0.41003 0.33531 0.95563 0.0
O807 O 0.40038 0.37752 0.00616 0.0
O808 O 0.42085 0.38951 0.97936 0.0
N809 N 0.36021 0.37874 0.91046 0.0
C810 C 0.33908 0.3824 0.91529 0.0
C811 C 0.32699 0.39656 0.90238 0.0
C812 C 0.33671 0.40674 0.88462 0.0
C813 C 0.35845 0.40265 0.87991 0.0
C814 C 0.36965 0.38825 0.89324 0.0
H815 H 0.33153 0.3747 0.92895 0.0
O816 O 0.37866 0.4048 0.97117 0.0
O817 O 0.38846 0.38263 0.94512 0.0
O818 O 0.36285 0.36174 0.977 0.0
O819 O 0.3577 0.34826 0.94376 0.0
C820 C 0.36957 0.41269 0.86282 0.0
C821 C 0.39172 0.40857 0.85964 0.0
H822 H 0.43457 0.39785 0.85946 0.0
H823 H 0.45209 0.37351 0.88601 0.0
H824 H 0.31024 0.39969 0.90616 0.0
H825 H 0.32739 0.41782 0.87484 0.0
H826 H 0.36133 0.42391 0.85226 0.0
H827 H 0.40018 0.41671 0.84669 0.0
Mn828 Mn 0.8966 0.12705 -0.00017 0.0
Mn829 Mn 0.89002 0.14063 0.05208 0.0
C830 C 0.88497 0.10152 0.02432 0.0
C831 C 0.91872 0.1154 0.97194 0.0
C832 C 0.85908 0.15388 0.01656 0.0
O833 O 0.91345 0.15496 0.00267 0.0
O834 O 0.91092 0.16086 0.03849 0.0
C835 C 0.93369 0.13121 0.06896 0.0
N836 N 0.91199 0.12779 0.06949 0.0
C837 C 0.91561 0.10244 0.09868 0.0
C838 C 0.93798 0.1058 0.09854 0.0
C839 C 0.94705 0.12024 0.0836 0.0
C840 C 0.90307 0.11404 0.08389 0.0
H841 H 0.94076 0.14217 0.05741 0.0
C842 C 0.91833 0.16543 0.01971 0.0
O843 O 0.90148 0.12666 0.96804 0.0
O844 O 0.92314 0.11113 0.99194 0.0
N845 N 0.87053 0.12176 0.06685 0.0
C846 C 0.84898 0.11892 0.06359 0.0
C847 C 0.83761 0.10416 0.07648 0.0
C848 C 0.8485 0.09251 0.09259 0.0
C849 C 0.87067 0.09572 0.09565 0.0
C850 C 0.88112 0.11078 0.08244 0.0
H851 H 0.84056 0.12771 0.05114 0.0
O852 O 0.8812 0.09897 0.00387 0.0
O853 O 0.89525 0.11898 0.02965 0.0
O854 O 0.86828 0.14353 0.0014 0.0
O855 O 0.86624 0.15445 0.03587 0.0
C856 C 0.8829 0.08419 0.11095 0.0
C857 C 0.90535 0.08756 0.11248 0.0
H858 H 0.94837 0.09719 0.10965 0.0
H859 H 0.96431 0.12282 0.0833 0.0
H860 H 0.82052 0.10169 0.07395 0.0
H861 H 0.83971 0.08098 0.10235 0.0
H862 H 0.87527 0.07242 0.12136 0.0
H863 H 0.91464 0.07831 0.12404 0.0
C864 C 0.12824 0.04745 0.55815 0.0
C865 C 0.12942 0.02517 0.55409 0.0
C866 C 0.12276 0.0618 0.54157 0.0
C867 C 0.12063 0.06724 0.48255 0.0
H868 H 0.06839 0.10049 0.4914 0.0
C869 C 0.06117 0.08321 0.41534 0.0
C870 C 0.04927 0.10239 0.41449 0.0
C871 C 0.07556 0.07945 0.43212 0.0
C872 C 0.08333 0.09184 0.48875 0.0
H873 H 0.12664 0.00049 0.52947 0.0
H874 H 0.11752 0.0255 0.50056 0.0
H875 H 0.0859 0.08312 0.52212 0.0
H876 H 0.04227 0.13244 0.43075 0.0
H877 H 0.06768 0.12589 0.46057 0.0
H878 H 0.11769 0.07521 0.44911 0.0
C879 C 0.12071 0.0319 0.5165 0.0
C880 C 0.09332 0.08185 0.50635 0.0
C881 C 0.12574 0.01757 0.53309 0.0
C882 C 0.0517 0.11773 0.43093 0.0
C883 C 0.06615 0.11395 0.44791 0.0
C884 C 0.1108 0.07738 0.46502 0.0
C885 C 0.11892 0.05411 0.52061 0.0
C886 C 0.11146 0.06865 0.50321 0.0
C887 C 0.07811 0.09464 0.44874 0.0
C888 C 0.09144 0.08888 0.46777 0.0
H889 H 0.13098 0.05372 0.57422 0.0
H890 H 0.12141 0.07886 0.54512 0.0
H891 H 0.13482 0.05741 0.47979 0.0
H892 H 0.05889 0.07076 0.40328 0.0
H893 H 0.08398 0.06414 0.43253 0.0
C894 C 0.91863 0.38872 0.42853 0.0
C895 C 0.93178 0.37227 0.4204 0.0
C896 C 0.90742 0.38585 0.44777 0.0
C897 C 0.91508 0.36047 0.49904 0.0
H898 H 0.86092 0.38948 0.51077 0.0
C899 C 0.90394 0.42095 0.56504 0.0
C900 C 0.88389 0.4243 0.57491 0.0
C901 C 0.90662 0.40444 0.55008 0.0
C902 C 0.87576 0.38069 0.50792 0.0
H903 H 0.94425 0.34017 0.42607 0.0
H904 H 0.92483 0.33517 0.46031 0.0
H905 H 0.86969 0.37878 0.47396 0.0
H906 H 0.85121 0.41237 0.57805 0.0
H907 H 0.85571 0.38362 0.5511 0.0
H908 H 0.92185 0.36385 0.53273 0.0
C909 C 0.92266 0.35002 0.45137 0.0
C910 C 0.88085 0.37474 0.48679 0.0
C911 C 0.93375 0.35287 0.4319 0.0
C912 C 0.86687 0.40997 0.57067 0.0
C913 C 0.86942 0.39362 0.55526 0.0
C914 C 0.90999 0.36645 0.52015 0.0
C915 C 0.90963 0.36666 0.45965 0.0
C916 C 0.90116 0.36589 0.48199 0.0
C917 C 0.88917 0.39116 0.54435 0.0
C918 C 0.89093 0.3779 0.52453 0.0
H919 H 0.91766 0.40417 0.42041 0.0
H920 H 0.89807 0.39924 0.45399 0.0
H921 H 0.93084 0.35362 0.49587 0.0
H922 H 0.9173 0.43179 0.56813 0.0
H923 H 0.92195 0.40321 0.54177 0.0
C924 C 0.04974 0.90735 0.0774 0.0
C925 C 0.03795 0.88861 0.08196 0.0
C926 C 0.06204 0.90882 0.05871 0.0
C927 C 0.05962 0.89624 0.00395 0.0
H928 H 0.11815 0.91842 0.00257 0.0
C929 C 0.08962 0.96358 0.9492 0.0
C930 C 0.10835 0.96026 0.93695 0.0
C931 C 0.08281 0.94809 0.96399 0.0
C932 C 0.102 0.91175 0.00259 0.0
H933 H 0.02848 0.8572 0.07004 0.0
H934 H 0.04948 0.86018 0.03635 0.0
H935 H 0.10403 0.90233 0.03583 0.0
H936 H 0.13465 0.93818 0.93034 0.0
H937 H 0.12315 0.9113 0.95726 0.0
H938 H 0.05688 0.90769 0.97142 0.0
C939 C 0.04999 0.87321 0.04797 0.0
C940 C 0.09394 0.90259 0.02156 0.0
C941 C 0.038 0.87155 0.06708 0.0
C942 C 0.1201 0.94104 0.93959 0.0
C943 C 0.11357 0.92572 0.95489 0.0
C944 C 0.06755 0.90576 0.98513 0.0
C945 C 0.06208 0.89191 0.0437 0.0
C946 C 0.07243 0.89555 0.02259 0.0
C947 C 0.09485 0.92918 0.96715 0.0
C948 C 0.08851 0.91431 0.98461 0.0
H949 H 0.04899 0.92117 0.08807 0.0
H950 H 0.07069 0.92366 0.05546 0.0
H951 H 0.04291 0.89114 0.00447 0.0
H952 H 0.08022 0.97821 0.94738 0.0
H953 H 0.06848 0.95119 0.97351 0.0
C954 C 0.95236 0.63138 0.08323 0.0
C955 C 0.94824 0.61419 0.09738 0.0
C956 C 0.94248 0.63202 0.06295 0.0
C957 C 0.89893 0.60859 0.02988 0.0
H958 H 0.94136 0.60619 0.98395 0.0
C959 C 0.87919 0.58025 0.94269 0.0
C960 C 0.89042 0.56093 0.93892 0.0
C961 C 0.88519 0.59369 0.95985 0.0
C962 C 0.92927 0.60736 0.99651 0.0
H963 H 0.93164 0.58374 0.10126 0.0
H964 H 0.91376 0.58517 0.06625 0.0
H965 H 0.95225 0.61797 0.01998 0.0
H966 H 0.91727 0.541 0.94908 0.0
H967 H 0.92821 0.5648 0.97843 0.0
H968 H 0.87624 0.59677 0.00661 0.0
C969 C 0.92407 0.59846 0.07097 0.0
C970 C 0.93545 0.61416 0.01707 0.0
C971 C 0.93421 0.59767 0.09101 0.0
C972 C 0.90835 0.5558 0.95172 0.0
C973 C 0.91468 0.56946 0.96839 0.0
C974 C 0.89267 0.60213 0.00921 0.0
C975 C 0.9284 0.61542 0.05659 0.0
C976 C 0.92055 0.61387 0.03414 0.0
C977 C 0.90289 0.58825 0.97291 0.0
C978 C 0.90803 0.60055 0.99264 0.0
H979 H 0.96361 0.64399 0.08768 0.0
H980 H 0.94627 0.6451 0.052 0.0
H981 H 0.88718 0.60828 0.04282 0.0
H982 H 0.8652 0.5844 0.93308 0.0
H983 H 0.87581 0.60805 0.96319 0.0
C984 C 0.43211 0.04725 0.11664 0.0
C985 C 0.41586 0.04886 0.10099 0.0
C986 C 0.45084 0.05974 0.11485 0.0
C987 C 0.47509 0.10643 0.08708 0.0
H988 H 0.52565 0.07025 0.07994 0.0
C989 C 0.55731 0.13545 0.05097 0.0
C990 C 0.56095 0.12443 0.0315 0.0
C991 C 0.5415 0.12815 0.06539 0.0
C992 C 0.5118 0.08063 0.08237 0.0
H993 H 0.40669 0.06368 0.07075 0.0
H994 H 0.43888 0.08605 0.06799 0.0
H995 H 0.49293 0.0551 0.09595 0.0
H996 H 0.55162 0.09687 0.0121 0.0
H997 H 0.52458 0.08381 0.03754 0.0
H998 H 0.49373 0.13164 0.07239 0.0
C999 C 0.43699 0.0757 0.08196 0.0
C1000 C 0.49315 0.07203 0.0916 0.0
C1001 C 0.41855 0.06299 0.08356 0.0
C1002 C 0.54905 0.10572 0.02695 0.0
C1003 C 0.53372 0.09817 0.04154 0.0
C1004 C 0.4939 0.11514 0.07818 0.0
C1005 C 0.45348 0.07393 0.09736 0.0
C1006 C 0.47437 0.08459 0.09314 0.0
C1007 C 0.52967 0.10941 0.06075 0.0
C1008 C 0.51205 0.10201 0.07492 0.0
H1009 H 0.43054 0.03598 0.12991 0.0
H1010 H 0.46351 0.05788 0.12674 0.0
H1011 H 0.46077 0.11639 0.08812 0.0
H1012 H 0.56626 0.14996 0.05477 0.0
H1013 H 0.53847 0.13711 0.08009 0.0
C1014 C 0.57518 0.45843 0.07332 0.0
C1015 C 0.57743 0.46772 0.09377 0.0
C1016 C 0.55792 0.44483 0.06888 0.0
C1017 C 0.50216 0.43573 0.08293 0.0
H1018 H 0.50986 0.38649 0.04511 0.0
C1019 C 0.45628 0.39676 0.00746 0.0
C1020 C 0.43554 0.39214 0.01526 0.0
C1021 C 0.4729 0.40185 0.02166 0.0
C1022 C 0.50746 0.40005 0.05587 0.0
H1023 H 0.56302 0.47127 0.12535 0.0
H1024 H 0.5323 0.44732 0.11752 0.0
H1025 H 0.54115 0.40255 0.06273 0.0
H1026 H 0.41584 0.3893 0.04404 0.0
H1027 H 0.44509 0.39886 0.06902 0.0
H1028 H 0.46851 0.43379 0.07512 0.0
C1029 C 0.54429 0.45016 0.10514 0.0
C1030 C 0.52532 0.40923 0.06594 0.0
C1031 C 0.56178 0.46376 0.10963 0.0
C1032 C 0.43171 0.39278 0.03761 0.0
C1033 C 0.44837 0.39823 0.05187 0.0
C1034 C 0.48421 0.42645 0.07289 0.0
C1035 C 0.54223 0.44059 0.08468 0.0
C1036 C 0.52298 0.42779 0.07872 0.0
C1037 C 0.46914 0.40266 0.04397 0.0
C1038 C 0.4869 0.40917 0.05848 0.0
H1039 H 0.58658 0.46206 0.06058 0.0
H1040 H 0.55646 0.43824 0.05276 0.0
H1041 H 0.4999 0.45008 0.09264 0.0
H1042 H 0.45975 0.39635 0.99034 0.0
H1043 H 0.48867 0.40558 0.01511 0.0
C1044 C 0.56579 0.86081 0.41804 0.0
C1045 C 0.57081 0.87769 0.43228 0.0
C1046 C 0.54993 0.86373 0.40218 0.0
C1047 C 0.50255 0.87161 0.38927 0.0
H1048 H 0.49305 0.92687 0.36152 0.0
C1049 C 0.42346 0.91637 0.39319 0.0
C1050 C 0.41704 0.93033 0.37664 0.0
C1051 C 0.44244 0.90449 0.39131 0.0
C1052 C 0.49548 0.91107 0.36857 0.0
H1053 H 0.56474 0.91115 0.44023 0.0
H1054 H 0.53762 0.91642 0.41248 0.0
H1055 H 0.52927 0.91676 0.37277 0.0
H1056 H 0.4253 0.94331 0.34533 0.0
H1057 H 0.45886 0.92253 0.34196 0.0
H1058 H 0.46849 0.86654 0.38635 0.0
C1059 C 0.54566 0.90093 0.41342 0.0
C1060 C 0.51624 0.90536 0.37514 0.0
C1061 C 0.56106 0.89789 0.42946 0.0
C1062 C 0.42982 0.93224 0.35808 0.0
C1063 C 0.44894 0.92039 0.35619 0.0
C1064 C 0.48176 0.87733 0.3827 0.0
C1065 C 0.53937 0.88372 0.40009 0.0
C1066 C 0.51972 0.88619 0.38674 0.0
C1067 C 0.45569 0.90675 0.37303 0.0
C1068 C 0.47784 0.8977 0.37351 0.0
H1069 H 0.57308 0.84505 0.42005 0.0
H1070 H 0.54531 0.8502 0.39214 0.0
H1071 H 0.50475 0.85672 0.39815 0.0
H1072 H 0.41425 0.91533 0.40801 0.0
H1073 H 0.44739 0.8946 0.40484 0.0
C1074 C 0.46701 0.61763 0.47219 0.0
C1075 C 0.44608 0.61959 0.46382 0.0
C1076 C 0.48413 0.61185 0.45887 0.0
C1077 C 0.49643 0.58055 0.41137 0.0
H1078 H 0.55336 0.60477 0.42057 0.0
C1079 C 0.58747 0.54806 0.41623 0.0
C1080 C 0.59011 0.53692 0.39677 0.0
C1081 C 0.57006 0.56194 0.41911 0.0
C1082 C 0.53755 0.59795 0.41763 0.0
H1083 H 0.42663 0.61748 0.43485 0.0
H1084 H 0.45681 0.60682 0.41141 0.0
H1085 H 0.5218 0.62325 0.435 0.0
H1086 H 0.57618 0.53031 0.36548 0.0
H1087 H 0.54525 0.55471 0.37054 0.0
H1088 H 0.51237 0.55462 0.39496 0.0
C1089 C 0.45984 0.60996 0.42833 0.0
C1090 C 0.5195 0.60852 0.42588 0.0
C1091 C 0.44264 0.61609 0.44169 0.0
C1092 C 0.57464 0.53923 0.38042 0.0
C1093 C 0.55703 0.55309 0.38333 0.0
C1094 C 0.51455 0.56996 0.40305 0.0
C1095 C 0.48073 0.60769 0.43687 0.0
C1096 C 0.49887 0.59941 0.4237 0.0
C1097 C 0.55462 0.56461 0.40273 0.0
C1098 C 0.53534 0.57808 0.40697 0.0
H1099 H 0.47019 0.62031 0.48916 0.0
H1100 H 0.49995 0.60987 0.46602 0.0
H1101 H 0.48072 0.57312 0.40951 0.0
H1102 H 0.59873 0.54576 0.42939 0.0
H1103 H 0.56833 0.57008 0.43447 0.0
C1104 C 0.11077 0.43331 0.05105 0.0
C1105 C 0.09518 0.41715 0.04832 0.0
C1106 C 0.10724 0.45006 0.06582 0.0
C1107 C 0.07201 0.46583 0.11171 0.0
H1108 H 0.07792 0.52399 0.08944 0.0
C1109 C 0.01363 0.53349 0.13168 0.0
C1110 C 0.0213 0.55449 0.13519 0.0
C1111 C 0.02778 0.51702 0.12591 0.0
C1112 C 0.07665 0.5079 0.09615 0.0
H1113 H 0.06329 0.40634 0.05748 0.0
H1114 H 0.05709 0.43528 0.08315 0.0
H1115 H 0.09421 0.49388 0.06989 0.0
H1116 H 0.04982 0.57472 0.13591 0.0
H1117 H 0.07466 0.54578 0.12515 0.0
H1118 H 0.05324 0.47968 0.13716 0.0
C1119 C 0.07238 0.43476 0.0747 0.0
C1120 C 0.08599 0.49066 0.08497 0.0
C1121 C 0.07588 0.4182 0.05999 0.0
C1122 C 0.04351 0.55863 0.13333 0.0
C1123 C 0.05769 0.54215 0.12715 0.0
C1124 C 0.06261 0.483 0.12279 0.0
C1125 C 0.08797 0.45091 0.0778 0.0
C1126 C 0.08288 0.46937 0.09213 0.0
C1127 C 0.04988 0.52123 0.12324 0.0
C1128 C 0.06404 0.50407 0.11458 0.0
H1129 H 0.12558 0.43297 0.04178 0.0
H1130 H 0.11946 0.4624 0.06776 0.0
H1131 H 0.06972 0.44963 0.11784 0.0
H1132 H 0.9966 0.52982 0.13309 0.0
H1133 H 0.02126 0.50112 0.12269 0.0
C1134 C 0.00593 0.44442 0.41539 0.0
C1135 C 0.00991 0.43269 0.39644 0.0
C1136 C 0.02062 0.45991 0.42246 0.0
C1137 C 0.05435 0.50112 0.40533 0.0
H1138 H 0.08167 0.49807 0.46158 0.0
C1139 C 0.07052 0.57293 0.46108 0.0
C1140 C 0.09102 0.575 0.47036 0.0
C1141 C 0.06555 0.55514 0.4483 0.0
C1142 C 0.07451 0.49898 0.44566 0.0
H1143 H 0.03226 0.42785 0.36998 0.0
H1144 H 0.05768 0.45587 0.38202 0.0
H1145 H 0.06353 0.46618 0.44682 0.0
H1146 H 0.12207 0.55967 0.4748 0.0
H1147 H 0.11306 0.5278 0.45288 0.0
H1148 H 0.06372 0.53445 0.40497 0.0
C1149 C 0.04338 0.45258 0.39152 0.0
C1150 C 0.06412 0.48083 0.4373 0.0
C1151 C 0.02891 0.43663 0.38471 0.0
C1152 C 0.10635 0.55863 0.46725 0.0
C1153 C 0.10123 0.54052 0.45477 0.0
C1154 C 0.06434 0.51942 0.41389 0.0
C1155 C 0.03928 0.46427 0.41045 0.0
C1156 C 0.05357 0.48195 0.41733 0.0
C1157 C 0.08075 0.53865 0.44528 0.0
C1158 C 0.07404 0.5186 0.43434 0.0
H1159 H 0.99144 0.44162 0.42475 0.0
H1160 H 0.01712 0.46892 0.43702 0.0
H1161 H 0.04608 0.50231 0.38998 0.0
H1162 H 0.05809 0.58482 0.46422 0.0
H1163 H 0.04946 0.55377 0.44162 0.0
C1164 C 0.87811 0.92954 0.48313 0.0
C1165 C 0.89425 0.91429 0.48758 0.0
C1166 C 0.88304 0.94804 0.47101 0.0
C1167 C 0.92799 0.98366 0.46165 0.0
H1168 H 0.90488 0.99862 0.40544 0.0
C1169 C 0.94538 0.05436 0.39589 0.0
C1170 C 0.9678 0.05119 0.39415 0.0
C1171 C 0.93249 0.03911 0.40656 0.0
C1172 C 0.91114 0.99482 0.4213 0.0
H1173 H 0.9281 0.90651 0.48381 0.0
H1174 H 0.93668 0.93858 0.46293 0.0
H1175 H 0.88856 0.96888 0.42627 0.0
H1176 H 0.99406 0.0291 0.40121 0.0
H1177 H 0.97172 0.00288 0.41982 0.0
H1178 H 0.95111 0.00867 0.45652 0.0
C1179 C 0.92022 0.93621 0.46834 0.0
C1180 C 0.90182 0.97792 0.43317 0.0
C1181 C 0.91529 0.91782 0.48013 0.0
C1182 C 0.9769 0.03217 0.40242 0.0
C1183 C 0.96413 0.01715 0.41314 0.0
C1184 C 0.93723 0.00036 0.44988 0.0
C1185 C 0.90427 0.95162 0.46392 0.0
C1186 C 0.91073 0.9718 0.45309 0.0
C1187 C 0.94194 0.0207 0.41577 0.0
C1188 C 0.92942 0.00559 0.4293 0.0
H1189 H 0.86185 0.92718 0.48909 0.0
H1190 H 0.87054 0.95983 0.46783 0.0
H1191 H 0.93495 0.97934 0.47709 0.0
H1192 H 0.93793 0.06885 0.38959 0.0
H1193 H 0.91537 0.04211 0.40838 0.0
C1194 C 0.40529 0.58278 0.55557 0.0
C1195 C 0.38819 0.58753 0.5416 0.0
C1196 C 0.40531 0.56367 0.56742 0.0
C1197 C 0.39064 0.50881 0.55999 0.0
H1198 H 0.41282 0.50227 0.61814 0.0
C1199 C 0.43235 0.43887 0.61655 0.0
C1200 C 0.45103 0.43568 0.60412 0.0
C1201 C 0.41763 0.45509 0.61095 0.0
C1202 C 0.40612 0.50376 0.60207 0.0
H1203 H 0.35804 0.57602 0.52835 0.0
H1204 H 0.35833 0.542 0.54874 0.0
H1205 H 0.39889 0.53735 0.60629 0.0
H1206 H 0.46854 0.4459 0.57566 0.0
H1207 H 0.4425 0.4736 0.56546 0.0
H1208 H 0.39967 0.47579 0.55516 0.0
C1209 C 0.37127 0.55349 0.55112 0.0
C1210 C 0.39827 0.52379 0.59528 0.0
C1211 C 0.37111 0.57284 0.5395 0.0
C1212 C 0.45427 0.44812 0.58551 0.0
C1213 C 0.43933 0.46383 0.57961 0.0
C1214 C 0.39879 0.48891 0.56667 0.0
C1215 C 0.38859 0.5486 0.5649 0.0
C1216 C 0.3913 0.52668 0.5739 0.0
C1217 C 0.42114 0.46775 0.5925 0.0
C1218 C 0.40738 0.4865 0.58746 0.0
H1219 H 0.41911 0.59342 0.55664 0.0
H1220 H 0.41914 0.56007 0.57748 0.0
H1221 H 0.38554 0.51064 0.54337 0.0
H1222 H 0.42963 0.42951 0.63106 0.0
H1223 H 0.40375 0.458 0.62117 0.0
C1224 C 0.58909 0.57295 0.06416 0.0
C1225 C 0.60327 0.55701 0.05657 0.0
C1226 C 0.579 0.58695 0.04957 0.0
C1227 C 0.57926 0.60879 0.99475 0.0
H1228 H 0.51946 0.5908 0.99065 0.0
C1229 C 0.51645 0.62733 0.92499 0.0
C1230 C 0.51479 0.60811 0.91314 0.0
C1231 C 0.52682 0.62739 0.94506 0.0
C1232 C 0.53594 0.59646 0.99196 0.0
H1233 H 0.6195 0.54412 0.02848 0.0
H1234 H 0.6026 0.56915 0.00314 0.0
H1235 H 0.54049 0.58154 0.02276 0.0
H1236 H 0.521 0.57377 0.91318 0.0
H1237 H 0.53876 0.57375 0.94846 0.0
H1238 H 0.57476 0.62305 0.96353 0.0
C1239 C 0.59906 0.57071 0.02019 0.0
C1240 C 0.54793 0.59126 0.01028 0.0
C1241 C 0.6086 0.55634 0.03461 0.0
C1242 C 0.52267 0.58883 0.92188 0.0
C1243 C 0.53262 0.5888 0.94202 0.0
C1244 C 0.56707 0.6145 0.97665 0.0
C1245 C 0.58359 0.58556 0.02743 0.0
C1246 C 0.56992 0.59653 0.01136 0.0
C1247 C 0.53482 0.60806 0.95368 0.0
C1248 C 0.54567 0.60745 0.97475 0.0
H1249 H 0.58465 0.57356 0.08105 0.0
H1250 H 0.56694 0.59817 0.05541 0.0
H1251 H 0.59624 0.61288 0.99524 0.0
H1252 H 0.51002 0.64227 0.91859 0.0
H1253 H 0.52838 0.64236 0.95393 0.0
C1254 C 0.38605 0.97968 0.02409 0.0
C1255 C 0.38314 0.97125 0.0449 0.0
C1256 C 0.39219 0.96631 0.00712 0.0
C1257 C 0.42295 0.91781 0.99658 0.0
H1258 H 0.4032 0.92803 0.9381 0.0
C1259 C 0.46953 0.88609 0.92209 0.0
C1260 C 0.47377 0.90256 0.90716 0.0
C1261 C 0.45402 0.88915 0.93824 0.0
C1262 C 0.40876 0.92483 0.95435 0.0
H1263 H 0.38373 0.94208 0.06419 0.0
H1264 H 0.39489 0.91858 0.03436 0.0
H1265 H 0.38309 0.94316 0.96837 0.0
H1266 H 0.46645 0.93542 0.89797 0.0
H1267 H 0.4393 0.94076 0.9258 0.0
H1268 H 0.44929 0.90047 0.98247 0.0
C1269 C 0.3923 0.93558 0.03128 0.0
C1270 C 0.39727 0.93349 0.97166 0.0
C1271 C 0.38589 0.949 0.0483 0.0
C1272 C 0.46274 0.92219 0.90878 0.0
C1273 C 0.44722 0.92522 0.92472 0.0
C1274 C 0.43446 0.90912 0.97923 0.0
C1275 C 0.39572 0.94418 0.01056 0.0
C1276 C 0.4048 0.93089 0.99288 0.0
C1277 C 0.44277 0.90881 0.93972 0.0
C1278 C 0.42799 0.91339 0.95793 0.0
H1279 H 0.38396 0.99675 0.02094 0.0
H1280 H 0.39502 0.9735 0.99145 0.0
H1281 H 0.4292 0.91561 0.01275 0.0
H1282 H 0.47831 0.871 0.92135 0.0
H1283 H 0.45103 0.87632 0.94971 0.0
C1284 C 0.53612 0.36787 0.56466 0.0
C1285 C 0.53545 0.38567 0.57866 0.0
C1286 C 0.54971 0.36818 0.54656 0.0
C1287 C 0.56665 0.38774 0.50243 0.0
H1288 H 0.62529 0.40833 0.50957 0.0
C1289 C 0.6211 0.45514 0.46231 0.0
C1290 C 0.62062 0.45033 0.44023 0.0
C1291 C 0.61489 0.43978 0.47744 0.0
C1292 C 0.60909 0.40222 0.50723 0.0
H1293 H 0.54678 0.41826 0.58396 0.0
H1294 H 0.5711 0.41847 0.55314 0.0
H1295 H 0.60563 0.39436 0.54058 0.0
H1296 H 0.61379 0.42555 0.41654 0.0
H1297 H 0.60223 0.39857 0.44329 0.0
H1298 H 0.56942 0.39764 0.4694 0.0
C1299 C 0.56169 0.40409 0.55634 0.0
C1300 C 0.5979 0.39414 0.52495 0.0
C1301 C 0.5479 0.40393 0.57403 0.0
C1302 C 0.61434 0.4296 0.43352 0.0
C1303 C 0.60771 0.41423 0.44875 0.0
C1304 C 0.57782 0.39602 0.48463 0.0
C1305 C 0.56273 0.38626 0.54245 0.0
C1306 C 0.57624 0.38792 0.52293 0.0
C1307 C 0.60781 0.41929 0.47085 0.0
C1308 C 0.5987 0.40449 0.48723 0.0
H1309 H 0.52611 0.35387 0.56767 0.0
H1310 H 0.55001 0.35443 0.53579 0.0
H1311 H 0.54989 0.38313 0.50055 0.0
H1312 H 0.62597 0.47096 0.46795 0.0
H1313 H 0.61478 0.44432 0.49432 0.0
C1314 C 0.46645 0.10499 0.55973 0.0
C1315 C 0.47295 0.0899 0.57529 0.0
C1316 C 0.45201 0.09895 0.54342 0.0
C1317 C 0.41319 0.05602 0.52828 0.0
H1318 H 0.43083 0.06806 0.46948 0.0
C1319 C 0.38934 0.0299 0.43532 0.0
C1320 C 0.38919 0.00743 0.43842 0.0
C1321 C 0.39563 0.04369 0.45207 0.0
C1322 C 0.42539 0.06494 0.48579 0.0
H1323 H 0.4709 0.05656 0.58539 0.0
H1324 H 0.4457 0.04601 0.55726 0.0
H1325 H 0.44898 0.08622 0.49938 0.0
H1326 H 0.39498 0.98182 0.46158 0.0
H1327 H 0.40581 0.00575 0.49064 0.0
H1328 H 0.39035 0.03397 0.51479 0.0
C1329 C 0.45095 0.06266 0.55795 0.0
C1330 C 0.43576 0.07535 0.50291 0.0
C1331 C 0.46536 0.06867 0.57406 0.0
C1332 C 0.39498 -0.00095 0.45865 0.0
C1333 C 0.401 0.01278 0.47538 0.0
C1334 C 0.40288 0.04561 0.51122 0.0
C1335 C 0.44415 0.07768 0.54239 0.0
C1336 C 0.43032 0.07033 0.52434 0.0
C1337 C 0.40152 0.03522 0.47227 0.0
C1338 C 0.40945 0.04934 0.48985 0.0
H1339 H 0.47257 0.12135 0.56017 0.0
H1340 H 0.44715 0.11081 0.53155 0.0
H1341 H 0.4084 0.05214 0.54463 0.0
H1342 H 0.38494 0.03679 0.41988 0.0
H1343 H 0.39589 0.06094 0.44926 0.0
C1344 C 0.03756 0.60448 0.56221 0.0
C1345 C 0.05993 0.60126 0.56169 0.0
C1346 C 0.02499 0.59425 0.57781 0.0
C1347 C 0.02096 0.54333 0.59994 0.0
H1348 H 0.9738 0.56671 0.63373 0.0
C1349 C 0.93445 0.51194 0.6363 0.0
C1350 C 0.92469 0.50738 0.6164 0.0
C1351 C 0.95469 0.52204 0.63691 0.0
C1352 C 0.9871 0.55993 0.6247 0.0
H1353 H 0.08699 0.58576 0.57744 0.0
H1354 H 0.06468 0.5668 0.60421 0.0
H1355 H 0.00332 0.59043 0.6222 0.0
H1356 H 0.92863 0.50803 0.58172 0.0
H1357 H 0.96406 0.52512 0.58274 0.0
H1358 H 0.00346 0.51354 0.6001 0.0
C1359 C 0.05706 0.57779 0.59295 0.0
C1360 C 0.00396 0.57343 0.61819 0.0
C1361 C 0.06975 0.58858 0.57769 0.0
C1362 C 0.93576 0.51183 0.59722 0.0
C1363 C 0.95606 0.52136 0.59782 0.0
C1364 C 0.00381 0.53004 0.60588 0.0
C1365 C 0.03455 0.5802 0.59277 0.0
C1366 C 0.02054 0.56538 0.60503 0.0
C1367 C 0.96561 0.52673 0.61762 0.0
C1368 C 0.98627 0.53852 0.6174 0.0
H1369 H 0.02968 0.61421 0.55 0.0
H1370 H 0.00761 0.59608 0.57718 0.0
H1371 H 0.03349 0.53684 0.58962 0.0
H1372 H 0.92618 0.50829 0.65125 0.0
H1373 H 0.96178 0.5262 0.65233 0.0
C1374 C 0.94254 0.87523 0.58911 0.0
C1375 C 0.93674 0.88852 0.57172 0.0
C1376 C 0.95946 0.88131 0.60283 0.0
C1377 C 0.99388 0.92709 0.61922 0.0
H1378 H 0.04216 0.88785 0.61266 0.0
C1379 C 0.08138 0.95447 0.63434 0.0
C1380 C 0.0941 0.95103 0.61595 0.0
C1381 C 0.0617 0.94366 0.63672 0.0
C1382 C 0.02874 0.8988 0.61504 0.0
H1383 H 0.9427 0.919 0.55574 0.0
H1384 H 0.97158 0.92994 0.57998 0.0
H1385 H 0.00572 0.87562 0.60382 0.0
H1386 H 0.09598 0.9348 0.58514 0.0
H1387 H 0.06195 0.91557 0.58938 0.0
H1388 H 0.01704 0.95075 0.62895 0.0
C1389 C 0.96335 0.91482 0.58303 0.0
C1390 C 0.0079 0.89176 0.61016 0.0
C1391 C 0.94695 0.90852 0.56908 0.0
C1392 C 0.08685 0.93692 0.59989 0.0
C1393 C 0.06738 0.92596 0.60233 0.0
C1394 C 0.01468 0.93406 0.62433 0.0
C1395 C 0.97024 0.90101 0.59962 0.0
C1396 C 0.99048 0.90621 0.61112 0.0
C1397 C 0.05447 0.92942 0.62063 0.0
C1398 C 0.03241 0.92031 0.62119 0.0
H1399 H 0.93494 0.85964 0.59128 0.0
H1400 H 0.96462 0.87035 0.61544 0.0
H1401 H 0.98066 0.9385 0.62013 0.0
H1402 H 0.08652 0.96574 0.64667 0.0
H1403 H 0.05191 0.94679 0.65085 0.0
C1404 C 0.05338 0.39333 0.94192 0.0
C1405 C 0.04801 0.3891 0.96355 0.0
C1406 C 0.03745 0.39988 0.92728 0.0
C1407 C 0.97825 0.40162 0.91956 0.0
H1408 H 0.98826 0.45645 0.89109 0.0
C1409 C 0.91344 0.46467 0.90971 0.0
C1410 C 0.91123 0.47614 0.89037 0.0
C1411 C 0.9302 0.45003 0.91242 0.0
C1412 C 0.98536 0.44084 0.89841 0.0
H1413 H 0.02175 0.38761 0.98662 0.0
H1414 H 0.99414 0.39885 0.96124 0.0
H1415 H 0.01849 0.43718 0.90758 0.0
H1416 H 0.92545 0.48258 0.85916 0.0
H1417 H 0.95555 0.45698 0.86409 0.0
H1418 H 0.94495 0.40598 0.91171 0.0
C1419 C 0.01054 0.39707 0.95547 0.0
C1420 C 0.00265 0.42982 0.90787 0.0
C1421 C 0.02641 0.39083 0.97009 0.0
C1422 C 0.92661 0.47341 0.87399 0.0
C1423 C 0.94371 0.45885 0.8768 0.0
C1424 C 0.96103 0.41262 0.91017 0.0
C1425 C 0.01589 0.40191 0.93398 0.0
C1426 C -0.00097 0.41065 0.91945 0.0
C1427 C 0.94555 0.44698 0.89606 0.0
C1428 C 0.96426 0.43283 0.90044 0.0
H1429 H 0.06993 0.39212 0.93646 0.0
H1430 H 0.04199 0.40354 0.91081 0.0
H1431 H 0.97508 0.38666 0.92803 0.0
H1432 H 0.90235 0.46729 0.92296 0.0
H1433 H 0.93156 0.44162 0.92768 0.0
C1434 C 0.07428 0.05271 0.90308 0.0
C1435 C 0.07948 0.04037 0.88488 0.0
C1436 C 0.05507 0.06426 0.90392 0.0
C1437 C 0.00055 0.05908 0.89106 0.0
H1438 H 0.99679 0.11824 0.91122 0.0
C1439 C 0.94482 0.08867 0.95755 0.0
C1440 C 0.93286 0.10764 0.95453 0.0
C1441 C 0.95928 0.08172 0.94181 0.0
C1442 C 0.99745 0.10189 0.90509 0.0
H1443 H 0.06822 0.02914 0.85381 0.0
H1444 H 0.03366 0.04881 0.8557 0.0
H1445 H 0.03059 0.10494 0.89566 0.0
H1446 H 0.92628 0.13413 0.93267 0.0
H1447 H 0.95259 0.12238 0.90535 0.0
H1448 H 0.96813 0.05541 0.90254 0.0
C1449 C 0.04514 0.05033 0.86877 0.0
C1450 C 0.01673 0.0943 0.89624 0.0
C1451 C 0.06474 0.03911 0.86773 0.0
C1452 C 0.93529 0.11938 0.93528 0.0
C1453 C 0.95026 0.11271 0.91972 0.0
C1454 C 0.9814 0.06656 0.90027 0.0
C1455 C 0.04022 0.06299 0.88692 0.0
C1456 C 0.01867 0.0726 0.88999 0.0
C1457 C 0.96241 0.09386 0.92295 0.0
C1458 C 0.98003 0.08776 0.90815 0.0
H1459 H 0.08485 0.05298 0.91699 0.0
H1460 H 0.05135 0.07336 0.91837 0.0
H1461 H 0.00178 0.04224 0.88657 0.0
H1462 H 0.94315 0.07929 0.97221 0.0
H1463 H 0.96871 0.06731 0.94479 0.0
C1464 C 0.58208 0.07041 0.58189 0.0
C1465 C 0.56701 0.06148 0.59625 0.0
C1466 C 0.59713 0.05708 0.57158 0.0
C1467 C 0.60396 0.01856 0.54017 0.0
H1468 H 0.63771 0.9728 0.56632 0.0
C1469 C 0.59924 0.93101 0.5163 0.0
C1470 C 0.61811 0.91994 0.51066 0.0
C1471 C 0.60039 0.95179 0.52464 0.0
C1472 C 0.6287 0.9857 0.55876 0.0
H1473 H 0.5568 0.03235 0.61259 0.0
H1474 H 0.58356 0.00924 0.59523 0.0
H1475 H 0.62718 0.00426 0.58795 0.0
H1476 H 0.65288 0.92188 0.50828 0.0
H1477 H 0.655 0.95845 0.52405 0.0
H1478 H 0.60317 0.99879 0.51185 0.0
C1479 C 0.58368 0.02638 0.59174 0.0
C1480 C 0.62276 0.00366 0.57105 0.0
C1481 C 0.56828 0.03952 0.60151 0.0
C1482 C 0.63819 0.93015 0.51291 0.0
C1483 C 0.6394 0.95092 0.52179 0.0
C1484 C 0.60938 0.00035 0.52812 0.0
C1485 C 0.59768 0.03487 0.5761 0.0
C1486 C 0.60956 0.01975 0.56207 0.0
C1487 C 0.62043 0.96187 0.52756 0.0
C1488 C 0.62089 0.98336 0.53766 0.0
H1489 H 0.58124 0.08731 0.57753 0.0
H1490 H 0.60764 0.06388 0.55938 0.0
H1491 H 0.5936 0.03066 0.53298 0.0
H1492 H 0.58357 0.92354 0.51424 0.0
H1493 H 0.58559 0.95989 0.52923 0.0
C1494 C 0.6371 0.0844 0.95645 0.0
C1495 C 0.61916 0.09809 0.95441 0.0
C1496 C 0.63808 0.06511 0.94468 0.0
C1497 C 0.61463 0.03746 0.89779 0.0
H1498 H 0.6129 0.9856 0.93277 0.0
C1499 C 0.55666 0.96994 0.88164 0.0
C1500 C 0.56255 0.94823 0.88415 0.0
C1501 C 0.57115 0.98633 0.88652 0.0
C1502 C 0.61403 -0.00023 0.92261 0.0
H1503 H 0.58761 0.10178 0.93996 0.0
H1504 H 0.58962 0.06881 0.91883 0.0
H1505 H 0.62569 0.01946 0.94857 0.0
H1506 H 0.58835 0.92654 0.8934 0.0
H1507 H 0.6138 0.95563 0.90276 0.0
H1508 H 0.60152 0.01826 0.87232 0.0
C1509 C 0.60322 0.07314 0.92893 0.0
C1510 C 0.62134 0.01913 0.93165 0.0
C1511 C 0.60209 0.09205 0.94091 0.0
C1512 C 0.58345 0.94319 0.89135 0.0
C1513 C 0.59795 0.95975 0.89667 0.0
C1514 C 0.60745 0.01816 0.88876 0.0
C1515 C 0.62113 0.05941 0.93075 0.0
C1516 C 0.62048 0.03834 0.91964 0.0
C1517 C 0.59186 0.98148 0.89428 0.0
C1518 C 0.60584 -0.00054 0.90148 0.0
H1519 H 0.65016 0.08852 0.9673 0.0
H1520 H 0.65187 0.05455 0.9466 0.0
H1521 H 0.61401 0.05203 0.88817 0.0
H1522 H 0.54073 0.97434 0.87595 0.0
H1523 H 0.56583 0.0029 0.88489 0.0
C1524 C 0.43992 0.54111 0.86085 0.0
C1525 C 0.43532 0.56292 0.86457 0.0
C1526 C 0.42404 0.52551 0.86347 0.0
C1527 C 0.37944 0.51444 0.89805 0.0
H1528 H 0.38069 0.46085 0.86579 0.0
C1529 C 0.39321 0.42391 0.92114 0.0
C1530 C 0.37643 0.41856 0.93526 0.0
C1531 C 0.39149 0.44183 0.90772 0.0
C1532 C 0.37968 0.47581 0.87477 0.0
H1533 H 0.41038 0.58587 0.87297 0.0
H1534 H 0.38236 0.55817 0.87843 0.0
H1535 H 0.39329 0.49409 0.84886 0.0
H1536 H 0.34527 0.42828 0.94764 0.0
H1537 H 0.34249 0.46045 0.92442 0.0
H1538 H 0.36737 0.49574 0.92451 0.0
C1539 C 0.39827 0.5533 0.87311 0.0
C1540 C 0.38691 0.49481 0.86511 0.0
C1541 C 0.41421 0.56908 0.86999 0.0
C1542 C 0.35812 0.43185 0.93635 0.0
C1543 C 0.35652 0.45012 0.92312 0.0
C1544 C 0.37205 0.49541 0.90768 0.0
C1545 C 0.4032 0.53131 0.87024 0.0
C1546 C 0.38828 0.51396 0.87717 0.0
C1547 C 0.37324 0.45522 0.90869 0.0
C1548 C 0.37348 0.47573 0.89654 0.0
H1549 H 0.45607 0.536 0.85649 0.0
H1550 H 0.42852 0.50874 0.86149 0.0
H1551 H 0.38034 0.52894 0.90776 0.0
H1552 H 0.40794 0.41451 0.92084 0.0
H1553 H 0.40492 0.44577 0.89725 0.0
C1554 C 0.90343 0.07729 0.04995 0.0
C1555 C 0.88464 0.08261 0.03859 0.0
C1556 C 0.90444 0.05851 0.06217 0.0
C1557 C 0.8906 0.00438 0.05981 0.0
H1558 H 0.91253 0.00233 0.11841 0.0
C1559 C 0.9353 0.93956 0.11989 0.0
C1560 C 0.95469 0.93737 0.10835 0.0
C1561 C 0.91982 0.95467 0.11333 0.0
C1562 C 0.90589 0.00253 0.10224 0.0
H1563 H 0.85261 0.07192 0.02974 0.0
H1564 H 0.85475 0.03803 0.05056 0.0
H1565 H 0.89682 0.03584 0.10449 0.0
H1566 H 0.97278 0.94832 0.08051 0.0
H1567 H 0.94547 0.97411 0.06868 0.0
H1568 H 0.90183 0.97179 0.05682 0.0
C1569 C 0.86821 0.04916 0.05084 0.0
C1570 C 0.89695 0.02164 0.09431 0.0
C1571 C 0.86703 0.06838 0.03895 0.0
C1572 C 0.95801 0.9498 0.08974 0.0
C1573 C 0.94235 0.96439 0.08288 0.0
C1574 C 0.89993 0.98541 0.06761 0.0
C1575 C 0.88697 0.04416 0.06253 0.0
C1576 C 0.89004 0.02292 0.07277 0.0
C1577 C 0.9233 0.96718 0.09477 0.0
C1578 C 0.9084 0.98465 0.08859 0.0
H1579 H 0.91763 0.08742 0.04894 0.0
H1580 H 0.91931 0.05466 0.0705 0.0
H1581 H 0.88563 0.00512 0.04307 0.0
H1582 H 0.93245 0.93017 0.13435 0.0
H1583 H 0.90528 0.95677 0.1228 0.0
C1584 C 0.01718 0.1696 0.32724 0.0
C1585 C 0.00715 0.15881 0.34446 0.0
C1586 C 0.01013 0.19005 0.32088 0.0
C1587 C 0.00291 0.23826 0.3213 0.0
H1588 H 0.94411 0.25683 0.3315 0.0
C1589 C 0.98215 0.3251 0.343 0.0
C1590 C 0.96135 0.33332 0.33926 0.0
C1591 C 0.9874 0.30408 0.33702 0.0
C1592 C 0.96051 0.25197 0.32803 0.0
H1593 H 0.98172 0.16086 0.36838 0.0
H1594 H 0.97006 0.19676 0.35805 0.0
H1595 H 0.95281 0.21873 0.33289 0.0
H1596 H 0.93033 0.32643 0.32457 0.0
H1597 H 0.93976 0.2899 0.31347 0.0
H1598 H 0.01052 0.27145 0.31601 0.0
C1599 C 0.98288 0.18927 0.34886 0.0
C1600 C 0.9656 0.23006 0.32924 0.0
C1601 C 0.98969 0.1687 0.35495 0.0
C1602 C 0.94643 0.32053 0.32793 0.0
C1603 C 0.95179 0.29952 0.3217 0.0
C1604 C 0.99775 0.26013 0.31971 0.0
C1605 C 0.99312 0.20033 0.33186 0.0
C1606 C 0.98703 0.22301 0.3268 0.0
C1607 C 0.9721 0.29077 0.32685 0.0
C1608 C 0.97667 0.26737 0.32398 0.0
H1609 H 0.03053 0.16226 0.31867 0.0
H1610 H 0.01816 0.19787 0.30748 0.0
H1611 H 0.01961 0.23356 0.31934 0.0
H1612 H 0.99411 0.33445 0.35165 0.0
H1613 H 0.0031 0.29794 0.34158 0.0
C1614 C 0.99476 0.67269 0.16725 0.0
C1615 C 0.97556 0.66336 0.1748 0.0
C1616 C -0.00013 0.69399 0.17235 0.0
C1617 C 0.01102 0.73839 0.18798 0.0
H1618 H 0.96216 0.77728 0.18554 0.0
C1619 C 0.02351 0.82977 0.1768 0.0
C1620 C 0.00956 0.83955 0.16183 0.0
C1621 C 0.01902 0.80917 0.18486 0.0
C1622 C 0.97602 0.76667 0.18618 0.0
H1623 H 0.94746 0.66845 0.19499 0.0
H1624 H 0.95681 0.7054 0.20467 0.0
H1625 H 0.95599 0.73879 0.1877 0.0
H1626 H 0.97974 0.83555 0.14395 0.0
H1627 H 0.97242 0.79959 0.15717 0.0
H1628 H 0.031 0.76618 0.1844 0.0
C1629 C 0.96756 0.69655 0.19413 0.0
C1630 C 0.97248 0.7445 0.18782 0.0
C1631 C 0.96224 0.67532 0.18869 0.0
C1632 C 0.99077 0.82856 0.15556 0.0
C1633 C 0.98647 0.80792 0.16334 0.0
C1634 C 0.01455 0.76054 0.18589 0.0
C1635 C 0.98609 0.7064 0.18545 0.0
C1636 C 0.98993 0.72999 0.18795 0.0
C1637 C 0.00065 0.7978 0.17789 0.0
C1638 C 0.99706 0.77489 0.18414 0.0
H1639 H 0.00533 0.66395 0.15642 0.0
H1640 H 0.01407 0.70099 0.16499 0.0
H1641 H 0.02488 0.72778 0.18867 0.0
H1642 H 0.03802 0.83792 0.18211 0.0
H1643 H 0.03013 0.80206 0.1963 0.0
C1644 C 0.32878 0.02385 0.16788 0.0
C1645 C 0.34413 0.01224 0.15591 0.0
C1646 C 0.32311 0.01724 0.18867 0.0
C1647 C 0.32922 0.97169 0.22783 0.0
H1648 H 0.32414 0.0174 0.27016 0.0
C1649 C 0.34826 0.98528 0.32281 0.0
C1650 C 0.34136 0.96538 0.3312 0.0
C1651 C 0.34303 0.99127 0.30178 0.0
C1652 C 0.32557 0.00441 0.25857 0.0
H1653 H 0.36531 0.98438 0.15621 0.0
H1654 H 0.35615 0.97337 0.19262 0.0
H1655 H 0.3262 0.02648 0.23215 0.0
H1656 H 0.32233 0.93678 0.32449 0.0
H1657 H 0.31263 0.94756 0.28793 0.0
H1658 H 0.33034 0.94975 0.25434 0.0
C1659 C 0.34791 0.98719 0.18583 0.0
C1660 C 0.32642 0.0096 0.23667 0.0
C1661 C 0.35332 0.99361 0.16495 0.0
C1662 C 0.32809 0.95213 0.31845 0.0
C1663 C 0.32263 0.95826 0.29744 0.0
C1664 C 0.3287 0.96652 0.24974 0.0
C1665 C 0.33293 -0.00093 0.19809 0.0
C1666 C 0.32888 0.99334 0.22105 0.0
C1667 C 0.33052 0.97765 0.28865 0.0
C1668 C 0.32751 0.98287 0.26542 0.0
H1669 H 0.32123 0.03815 0.16125 0.0
H1670 H 0.31122 0.02655 0.19745 0.0
H1671 H 0.33058 0.9587 0.21623 0.0
H1672 H 0.35856 0.99588 0.33212 0.0
H1673 H 0.34973 0.00614 0.29554 0.0
C1674 C 0.63937 0.51167 0.16779 0.0
C1675 C 0.64812 0.49507 0.15511 0.0
C1676 C 0.64508 0.51366 0.18946 0.0
C1677 C 0.66621 0.48122 0.23458 0.0
H1678 H 0.66653 0.53679 0.26322 0.0
C1679 C 0.67284 0.52218 0.32529 0.0
C1680 C 0.65919 0.50785 0.33636 0.0
C1681 C 0.67649 0.51972 0.3032 0.0
C1682 C 0.66695 0.52113 0.2555 0.0
H1683 H 0.67052 0.46814 0.15495 0.0
H1684 H 0.6809 0.47198 0.19262 0.0
H1685 H 0.66449 0.53524 0.22414 0.0
H1686 H 0.63935 0.47919 0.33308 0.0
H1687 H 0.64515 0.47529 0.29459 0.0
H1688 H 0.66896 0.46713 0.26593 0.0
C1689 C 0.66919 0.48311 0.18598 0.0
C1690 C 0.66543 0.52024 0.23307 0.0
C1691 C 0.66329 0.48097 0.16436 0.0
C1692 C 0.65001 0.49048 0.32507 0.0
C1693 C 0.65346 0.48817 0.30296 0.0
C1694 C 0.66799 0.48212 0.257 0.0
C1695 C 0.65986 0.49925 0.19889 0.0
C1696 C 0.6644 0.50027 0.22239 0.0
C1697 C 0.66638 0.50302 0.29167 0.0
C1698 C 0.66773 0.50206 0.26777 0.0
H1699 H 0.62756 0.52273 0.16119 0.0
H1700 H 0.63727 0.52605 0.19899 0.0
H1701 H 0.66533 0.46554 0.22694 0.0
H1702 H 0.68036 0.5356 0.33357 0.0
H1703 H 0.68687 0.53119 0.29509 0.0
C1704 C 0.31855 0.32908 0.95645 0.0
C1705 C 0.33083 0.34219 0.9703 0.0
C1706 C 0.29745 0.32333 0.9619 0.0
C1707 C 0.2571 0.32544 0.00676 0.0
H1708 H 0.21656 0.33356 0.95987 0.0
C1709 C 0.16538 0.3577 0.9937 0.0
C1710 C 0.15508 0.34803 0.0114 0.0
C1711 C 0.18628 0.35167 0.98799 0.0
C1712 C 0.22766 0.33129 0.97317 0.0
H1713 H 0.33093 0.35851 0.00129 0.0
H1714 H 0.29419 0.34915 0.01041 0.0
H1715 H 0.25491 0.33216 0.95218 0.0
H1716 H 0.15825 0.32378 0.03645 0.0
H1717 H 0.19454 0.31279 0.02609 0.0
H1718 H 0.22998 0.32635 0.02793 0.0
C1719 C 0.30085 0.34287 0.99554 0.0
C1720 C 0.24968 0.33011 0.96871 0.0
C1721 C 0.32196 0.34843 0.9902 0.0
C1722 C 0.16588 0.33172 0.02288 0.0
C1723 C 0.1867 0.32546 0.01697 0.0
C1724 C 0.2351 0.32693 0.01124 0.0
C1725 C 0.28813 0.33072 0.98122 0.0
C1726 C 0.26473 0.32789 0.98554 0.0
C1727 C 0.19728 0.33558 -0.00036 0.0
C1728 C 0.22017 0.33059 0.99456 0.0
H1729 H 0.32498 0.32379 0.94109 0.0
H1730 H 0.28824 0.31361 0.95069 0.0
H1731 H 0.26821 0.32323 0.02006 0.0
H1732 H 0.15755 0.37041 0.98461 0.0
H1733 H 0.19404 0.36017 0.97485 0.0
C1734 C 0.164 0.65841 0.47784 0.0
C1735 C 0.15462 0.64477 0.49336 0.0
C1736 C 0.18573 0.66417 0.47929 0.0
C1737 C 0.23457 0.66159 0.47822 0.0
H1738 H 0.26208 0.66773 0.534 0.0
C1739 C 0.32539 0.64871 0.49115 0.0
C1740 C 0.33574 0.65917 0.50837 0.0
C1741 C 0.30336 0.65173 0.48758 0.0
C1742 C 0.25469 0.66653 0.51822 0.0
H1743 H 0.16073 0.62661 0.52266 0.0
H1744 H 0.19864 0.63611 0.52486 0.0
H1745 H 0.22316 0.66453 0.53196 0.0
H1746 H 0.33158 0.6824 0.53419 0.0
H1747 H 0.29334 0.68828 0.52748 0.0
H1748 H 0.26613 0.66391 0.46447 0.0
C1749 C 0.18914 0.64284 0.51184 0.0
C1750 C 0.23234 0.66431 0.51709 0.0
C1751 C 0.16738 0.63725 0.5105 0.0
C1752 C 0.32398 0.67388 0.52097 0.0
C1753 C 0.30202 0.67714 0.5172 0.0
C1754 C 0.25695 0.66405 0.47933 0.0
C1755 C 0.19862 0.65628 0.4962 0.0
C1756 C 0.22206 0.66121 0.49714 0.0
C1757 C 0.29127 0.6655 0.50098 0.0
C1758 C 0.26734 0.66598 0.49939 0.0
H1759 H 0.15458 0.66463 0.4645 0.0
H1760 H 0.19243 0.6748 0.46715 0.0
H1761 H 0.22723 0.65914 0.46256 0.0
H1762 H 0.33398 0.63719 0.48121 0.0
H1763 H 0.29564 0.6423 0.47508 0.0
C1764 C 0.6672 0.82416 0.52807 0.0
C1765 C 0.65962 0.83466 0.50946 0.0
C1766 C 0.68854 0.81691 0.52922 0.0
C1767 C 0.73679 0.82064 0.53418 0.0
H1768 H 0.77084 0.80973 0.48295 0.0
C1769 C 0.82505 0.8463 0.52855 0.0
C1770 C 0.83888 0.83651 0.51357 0.0
C1771 C 0.8036 0.83968 0.53026 0.0
C1772 C 0.76173 0.81224 0.49762 0.0
H1773 H 0.66817 0.84481 0.47708 0.0
H1774 H 0.70528 0.8332 0.47935 0.0
H1775 H 0.73196 0.80744 0.48102 0.0
H1776 H 0.84172 0.81107 0.48978 0.0
H1777 H 0.8046 0.79869 0.49353 0.0
H1778 H 0.76658 0.82476 0.55095 0.0
C1779 C 0.69482 0.82985 0.49292 0.0
C1780 C 0.73927 0.81131 0.4964 0.0
C1781 C 0.67344 0.8367 0.49163 0.0
C1782 C 0.83127 0.81909 0.50127 0.0
C1783 C 0.80994 0.81211 0.50334 0.0
C1784 C 0.75927 0.82104 0.53554 0.0
C1785 C 0.70286 0.82039 0.51194 0.0
C1786 C 0.72647 0.81656 0.51438 0.0
C1787 C 0.79559 0.82277 0.51736 0.0
C1788 C 0.77204 0.8179 0.51704 0.0
H1789 H 0.65685 0.82212 0.542 0.0
H1790 H 0.69395 0.80922 0.54394 0.0
H1791 H 0.72763 0.82479 0.54845 0.0
H1792 H 0.83045 0.85988 0.53814 0.0
H1793 H 0.79311 0.84865 0.54095 0.0
C1794 C 0.50024 0.83481 0.82136 0.0
C1795 C 0.51071 0.84349 0.83948 0.0
C1796 C 0.50225 0.81295 0.81639 0.0
C1797 C 0.49473 0.76516 0.82027 0.0
H1798 H 0.54515 0.73103 0.83441 0.0
C1799 C 0.48969 0.67509 0.84067 0.0
C1800 C 0.50735 0.66162 0.83619 0.0
C1801 C 0.49073 0.69714 0.83623 0.0
C1802 C 0.53102 0.74029 0.82996 0.0
H1803 H 0.5322 0.83633 0.8661 0.0
H1804 H 0.53516 0.79804 0.85791 0.0
H1805 H 0.54753 0.77017 0.83489 0.0
H1806 H 0.5394 0.6605 0.82212 0.0
H1807 H 0.54097 0.69887 0.81384 0.0
H1808 H 0.47829 0.7353 0.81512 0.0
C1809 C 0.52578 0.80815 0.84719 0.0
C1810 C 0.53232 0.76277 0.83056 0.0
C1811 C 0.52402 0.83011 0.85197 0.0
C1812 C 0.52559 0.67048 0.826 0.0
C1813 C 0.52655 0.6925 0.82137 0.0
C1814 C 0.4935 0.7427 0.81946 0.0
C1815 C 0.51449 0.79921 0.82963 0.0
C1816 C 0.51403 0.77547 0.82628 0.0
C1817 C 0.50938 0.70619 0.82698 0.0
C1818 C 0.51146 0.72998 0.82487 0.0
H1819 H 0.4901 0.84482 0.81124 0.0
H1820 H 0.49376 0.80674 0.80245 0.0
H1821 H 0.48023 0.77435 0.81707 0.0
H1822 H 0.47542 0.66883 0.84859 0.0
H1823 H 0.4773 0.7072 0.84104 0.0
C1824 C 0.52152 0.32572 0.66866 0.0
C1825 C 0.50664 0.33618 0.65512 0.0
C1826 C 0.51941 0.30374 0.67312 0.0
C1827 C 0.52193 0.25623 0.66329 0.0
H1828 H 0.46746 0.22556 0.66316 0.0
C1829 C 0.5151 0.16885 0.63402 0.0
C1830 C 0.49966 0.15515 0.64336 0.0
C1831 C 0.51616 0.19054 0.63994 0.0
C1832 C 0.48285 0.2338 0.6636 0.0
H1833 H 0.47709 0.33208 0.63681 0.0
H1834 H 0.47377 0.29379 0.64402 0.0
H1835 H 0.46772 0.26453 0.66769 0.0
H1836 H 0.47372 0.1533 0.66682 0.0
H1837 H 0.47594 0.19103 0.67751 0.0
H1838 H 0.53708 0.22552 0.65942 0.0
C1839 C 0.48687 0.30252 0.65157 0.0
C1840 C 0.48297 0.2562 0.66593 0.0
C1841 C 0.48884 0.32454 0.64732 0.0
C1842 C 0.48568 0.16349 0.65916 0.0
C1843 C 0.48689 0.18514 0.66524 0.0
C1844 C 0.52182 0.23382 0.6612 0.0
C1845 C 0.50252 0.2917 0.66393 0.0
C1846 C 0.50247 0.26776 0.66514 0.0
C1847 C 0.50197 0.199 0.65551 0.0
C1848 C 0.50225 0.2224 0.66065 0.0
H1849 H 0.53527 0.3343 0.67516 0.0
H1850 H 0.53146 0.29602 0.68314 0.0
H1851 H 0.53726 0.26454 0.66239 0.0
H1852 H 0.52603 0.16299 0.62172 0.0
H1853 H 0.52771 0.20081 0.6318 0.0
C1854 C 0.81867 0.50242 0.82878 0.0
C1855 C 0.83745 0.51221 0.83678 0.0
C1856 C 0.81244 0.50549 0.80736 0.0
C1857 C 0.82669 0.53579 0.75677 0.0
H1858 H 0.80769 0.48281 0.7296 0.0
C1859 C 0.83034 0.52668 0.66474 0.0
C1860 C 0.83934 0.50708 0.65768 0.0
C1861 C 0.82299 0.52891 0.68595 0.0
C1862 C 0.81304 0.49775 0.73688 0.0
H1863 H 0.86398 0.53356 0.82903 0.0
H1864 H 0.85391 0.53806 0.79145 0.0
H1865 H 0.80902 0.48499 0.76851 0.0
H1866 H 0.84656 0.47412 0.66709 0.0
H1867 H 0.8346 0.47818 0.70394 0.0
H1868 H 0.83269 0.54776 0.72506 0.0
C1869 C 0.84343 0.5286 0.80172 0.0
C1870 C 0.81346 0.49917 0.75933 0.0
C1871 C 0.84935 0.52593 0.82329 0.0
C1872 C 0.8397 0.48945 0.67192 0.0
C1873 C 0.83264 0.49176 0.69314 0.0
C1874 C 0.8267 0.5342 0.73429 0.0
C1875 C 0.8252 0.51795 0.79329 0.0
C1876 C 0.82102 0.51795 0.76961 0.0
C1877 C 0.82473 0.51168 0.70063 0.0
C1878 C 0.82063 0.51486 0.72408 0.0
H1879 H 0.80904 0.49199 0.83898 0.0
H1880 H 0.79798 0.49752 0.80168 0.0
H1881 H 0.83202 0.55074 0.76405 0.0
H1882 H 0.8296 0.54052 0.6541 0.0
H1883 H 0.81657 0.54435 0.691 0.0
C1884 C 0.18645 0.96578 0.67328 0.0
C1885 C 0.17255 0.97925 0.66148 0.0
C1886 C 0.19218 0.97101 0.69445 0.0
C1887 C 0.18682 0.01447 0.7364 0.0
H1888 H 0.18409 0.9656 0.77528 0.0
C1889 C 0.15446 0.99456 0.82667 0.0
C1890 C 0.16061 0.0135 0.83743 0.0
C1891 C 0.1623 0.99006 0.80609 0.0
C1892 C 0.1848 0.97947 0.76467 0.0
H1893 H 0.15451 0.00924 0.66233 0.0
H1894 H 0.16359 0.01784 0.69924 0.0
H1895 H 0.18602 0.95944 0.73677 0.0
H1896 H 0.18082 0.042 0.83557 0.0
H1897 H 0.1952 0.03375 0.7999 0.0
H1898 H 0.18351 0.03449 0.76417 0.0
C1899 C 0.17073 0.00357 0.69215 0.0
C1900 C 0.18632 0.97593 0.7425 0.0
C1901 C 0.16533 0.99854 0.67092 0.0
C1902 C 0.17559 0.02737 0.82757 0.0
C1903 C 0.18375 0.02268 0.80707 0.0
C1904 C 0.18484 0.01801 0.75855 0.0
C1905 C 0.18379 0.98962 0.70442 0.0
C1906 C 0.18653 0.99339 0.72799 0.0
C1907 C 0.17681 0.0042 0.79584 0.0
C1908 C 0.18298 0.00053 0.77291 0.0
H1909 H 0.19249 0.95092 0.66634 0.0
H1910 H 0.20267 0.96012 0.70319 0.0
H1911 H 0.1876 0.02834 0.7258 0.0
H1912 H 0.14283 0.98359 0.83374 0.0
H1913 H 0.15616 0.97592 0.79789 0.0
C1914 C 0.82658 0.15906 0.99336 0.0
C1915 C 0.83839 0.16477 0.01181 0.0
C1916 C 0.80615 0.1677 0.98976 0.0
C1917 C 0.76523 0.19175 0.98101 0.0
H1918 H 0.7284 0.19469 0.03142 0.0
C1919 C 0.67369 0.19313 0.97053 0.0
C1920 C 0.66262 0.17879 0.98416 0.0
C1921 C 0.69483 0.19937 0.97528 0.0
C1922 C 0.73842 0.19392 0.01713 0.0
H1923 H 0.83854 0.185 0.04036 0.0
H1924 H 0.80306 0.20066 0.03371 0.0
H1925 H 0.76694 0.18993 0.03597 0.0
H1926 H 0.66459 0.16075 0.0141 0.0
H1927 H 0.70145 0.17073 0.02185 0.0
H1928 H 0.73658 0.19356 0.96213 0.0
C1929 C 0.80934 0.18901 0.02232 0.0
C1930 C 0.76067 0.19153 0.01976 0.0
C1931 C 0.82972 0.18009 0.0261 0.0
C1932 C 0.67263 0.17186 0.00326 0.0
C1933 C 0.69384 0.17777 0.0078 0.0
C1934 C 0.74296 0.19367 0.97838 0.0
C1935 C 0.79708 0.18255 0.00434 0.0
C1936 C 0.77425 0.1895 0.0017 0.0
C1937 C 0.70548 0.19108 0.99354 0.0
C1938 C 0.72917 0.19387 0.99641 0.0
H1939 H 0.83272 0.14722 0.98207 0.0
H1940 H 0.79712 0.16191 0.97599 0.0
H1941 H 0.77525 0.19094 0.96673 0.0
H1942 H 0.66628 0.19898 0.95583 0.0
H1943 H 0.70306 0.21008 0.9642 0.0
C1944 C 0.99781 0.94232 0.19141 0.0
C1945 C 0.01796 0.93508 0.18386 0.0
C1946 C 0.99659 0.95875 0.2068 0.0
C1947 C 0.02687 0.00524 0.22637 0.0
H1948 H 0.99144 0.00092 0.27772 0.0
C1949 C 0.03738 0.06228 0.29843 0.0
C1950 C 0.01928 0.06798 0.31085 0.0
C1951 C 0.03554 0.04743 0.28165 0.0
C1952 C 0.0011 0.00259 0.26326 0.0
H1953 H 0.05263 0.93909 0.18707 0.0
H1954 H 0.0504 0.96777 0.21376 0.0
H1955 H 0.9914 0.97154 0.25149 0.0
H1956 H 0.98479 0.06321 0.31463 0.0
H1957 H 0.98151 0.03765 0.28494 0.0
H1958 H 0.03651 0.03626 0.23788 0.0
C1959 C 0.03559 0.96079 0.20765 0.0
C1960 C 0.00114 0.9857 0.24832 0.0
C1961 C 0.03683 0.94423 0.19248 0.0
C1962 C -0.0009 0.0591 0.30549 0.0
C1963 C 0.99724 0.04432 0.28856 0.0
C1964 C 0.02667 0.0222 0.24114 0.0
C1965 C 0.01547 0.96841 0.21472 0.0
C1966 C 0.01434 0.98673 0.22996 0.0
C1967 C 0.01552 0.03802 0.27671 0.0
C1968 C 0.01409 0.02092 0.25998 0.0
H1969 H 0.98295 0.93559 0.18515 0.0
H1970 H 0.98088 0.96437 0.21201 0.0
H1971 H 0.03688 0.00659 0.2121 0.0
H1972 H 0.05322 0.06869 0.30212 0.0
H1973 H 0.05003 0.04274 0.27309 0.0
C1974 C 0.96583 0.43947 0.31566 0.0
C1975 C 0.94619 0.43024 0.32228 0.0
C1976 C 0.96609 0.45676 0.30125 0.0
C1977 C 0.93314 0.4858 0.2609 0.0
H1978 H 0.97368 0.53212 0.27217 0.0
C1979 C 0.93349 0.56425 0.21088 0.0
C1980 C 0.95384 0.57076 0.20321 0.0
C1981 C 0.93179 0.54828 0.2267 0.0
C1982 C 0.96235 0.51927 0.26877 0.0
H1983 H 0.91141 0.43171 0.31847 0.0
H1984 H 0.91189 0.46206 0.29347 0.0
H1985 H 0.97217 0.50123 0.29647 0.0
H1986 H 0.98838 0.56623 0.20696 0.0
H1987 H 0.98535 0.53848 0.23456 0.0
H1988 H 0.92336 0.50389 0.23315 0.0
C1989 C 0.9271 0.45574 0.29928 0.0
C1990 C 0.96153 0.50153 0.28263 0.0
C1991 C 0.92684 0.43835 0.31365 0.0
C1992 C 0.97244 0.5616 0.21243 0.0
C1993 C 0.97073 0.54574 0.22833 0.0
C1994 C 0.9339 0.5036 0.24708 0.0
C1995 C 0.94673 0.46534 0.29317 0.0
C1996 C 0.94708 0.48447 0.27873 0.0
C1997 C 0.95039 0.53861 0.23532 0.0
C1998 C 0.94866 0.52042 0.25077 0.0
H1999 H 0.98106 0.43356 0.32184 0.0
H2000 H 0.9815 0.46347 0.2965 0.0
H2001 H 0.922 0.47284 0.2573 0.0
H2002 H 0.91881 0.57094 0.20417 0.0
H2003 H 0.91591 0.54329 0.232 0.0
C2004 C 0.18971 0.00703 0.94125 0.0
C2005 C 0.18201 0.02649 0.93248 0.0
C2006 C 0.20544 0.00717 0.95738 0.0
C2007 C 0.24675 0.04199 0.983 0.0
H2008 H 0.24057 0.00209 0.03084 0.0
C2009 C 0.29904 0.0488 0.05916 0.0
C2010 C 0.30915 0.02959 0.06579 0.0
C2011 C 0.28248 0.04831 0.04391 0.0
C2012 C 0.24253 0.01324 0.01752 0.0
H2013 H 0.18513 0.06138 0.93365 0.0
H2014 H 0.21219 0.06161 0.96193 0.0
H2015 H 0.21456 0.00125 0.00129 0.0
H2016 H 0.30889 0.9947 0.06244 0.0
H2017 H 0.27989 0.99393 0.03595 0.0
H2018 H 0.27461 0.05409 -0.00063 0.0
C2019 C 0.20636 0.0462 0.95611 0.0
C2020 C 0.22773 0.0127 0.00054 0.0
C2021 C 0.19075 0.04606 0.9399 0.0
C2022 C 0.30154 0.00982 0.05764 0.0
C2023 C 0.28486 0.00934 0.04252 0.0
C2024 C 0.26144 0.04262 3e-05 0.0
C2025 C 0.21374 0.02678 0.9652 0.0
C2026 C 0.22968 0.02706 0.98307 0.0
C2027 C 0.27554 0.02862 0.03512 0.0
C2028 C 0.25949 0.02826 0.01746 0.0
H2029 H 0.18341 0.99165 0.93586 0.0
H2030 H 0.21105 0.99191 0.96377 0.0
H2031 H 0.24895 0.05303 0.96964 0.0
H2032 H 0.30444 0.06431 0.0651 0.0
H2033 H 0.27534 0.06339 0.03871 0.0
C2034 C 0.68279 0.51817 0.04975 0.0
C2035 C 0.68216 0.50005 0.06338 0.0
C2036 C 0.69944 0.52061 0.03477 0.0
C2037 C 0.74026 0.52619 0.00838 0.0
H2038 H 0.75915 0.4731 0.98131 0.0
C2039 C 0.81061 0.52255 0.94701 0.0
C2040 C 0.80974 0.50674 0.93079 0.0
C2041 C 0.7947 0.52342 0.96295 0.0
C2042 C 0.75386 0.48814 0.98844 0.0
H2043 H 0.69924 0.47113 0.07311 0.0
H2044 H 0.72876 0.47583 0.04766 0.0
H2045 H 0.7331 0.47164 0.01032 0.0
H2046 H 0.79082 0.48045 0.91763 0.0
H2047 H 0.7626 0.48255 0.94482 0.0
H2048 H 0.76037 0.54271 0.98568 0.0
C2049 C 0.71599 0.48774 0.04791 0.0
C2050 C 0.73921 0.48727 0.00546 0.0
C2051 C 0.69917 0.48512 0.06264 0.0
C2052 C 0.79205 0.49264 0.93009 0.0
C2053 C 0.77598 0.49374 0.9458 0.0
C2054 C 0.75478 0.52708 0.99113 0.0
C2055 C 0.71597 0.50513 0.0333 0.0
C2056 C 0.73222 0.50626 0.01569 0.0
C2057 C 0.77744 0.50869 0.96282 0.0
C2058 C 0.76172 0.50804 0.98091 0.0
H2059 H 0.66981 0.52988 0.04983 0.0
H2060 H 0.69873 0.53408 0.02367 0.0
H2061 H 0.7354 0.54114 0.016 0.0
H2062 H 0.82415 0.53355 0.94804 0.0
H2063 H 0.79648 0.53502 0.97587 0.0
C2064 C 0.30764 0.96834 0.43363 0.0
C2065 C 0.31473 0.94845 0.42531 0.0
C2066 C 0.29231 0.96906 0.45009 0.0
C2067 C 0.2522 0.96609 0.47808 0.0
H2068 H 0.26123 0.92757 0.52658 0.0
C2069 C 0.20575 0.97712 0.55742 0.0
C2070 C 0.19739 0.9584 0.56715 0.0
C2071 C 0.22061 0.9756 0.54057 0.0
C2072 C 0.25834 0.93827 0.51307 0.0
H2073 H 0.31061 0.91372 0.42733 0.0
H2074 H 0.28375 0.91505 0.45608 0.0
H2075 H 0.28465 0.92502 0.49504 0.0
H2076 H 0.19881 0.92338 0.56725 0.0
H2077 H 0.22451 0.92079 0.53772 0.0
H2078 H 0.22587 0.97931 0.49598 0.0
C2079 C 0.29027 0.93005 0.44993 0.0
C2080 C 0.27172 0.93678 0.495 0.0
C2081 C 0.30552 0.92932 0.43333 0.0
C2082 C 0.20494 0.93815 0.5602 0.0
C2083 C 0.21973 0.93665 0.54327 0.0
C2084 C 0.23877 0.96753 0.49609 0.0
C2085 C 0.28378 0.94992 0.4587 0.0
C2086 C 0.26886 0.95076 0.47737 0.0
C2087 C 0.2274 0.95535 0.53297 0.0
C2088 C 0.24177 0.95374 0.51387 0.0
H2089 H 0.31434 0.9834 0.42782 0.0
H2090 H 0.28774 0.98461 0.45662 0.0
H2091 H 0.24946 0.9769 0.46462 0.0
H2092 H 0.20044 0.99299 0.56245 0.0
H2093 H 0.22657 0.99033 0.5333 0.0
C2094 C 0.81472 0.48154 0.55377 0.0
C2095 C 0.82488 0.50084 0.56006 0.0
C2096 C 0.79898 0.48163 0.53759 0.0
C2097 C 0.76139 0.51828 0.50924 0.0
H2098 H 0.76069 0.47382 0.46523 0.0
C2099 C 0.70912 0.52707 0.43384 0.0
C2100 C 0.69623 0.50923 0.42834 0.0
C2101 C 0.72574 0.52496 0.44885 0.0
C2102 C 0.76062 0.48624 0.47751 0.0
H2103 H 0.82647 0.53535 0.55406 0.0
H2104 H 0.79938 0.53541 0.52588 0.0
H2105 H 0.7873 0.47208 0.49433 0.0
H2106 H 0.6916 0.47486 0.43349 0.0
H2107 H 0.72071 0.47127 0.45973 0.0
H2108 H 0.73489 0.53253 0.49244 0.0
C2109 C 0.80325 0.52025 0.53368 0.0
C2110 C 0.77579 0.48522 0.4942 0.0
C2111 C 0.81889 0.52019 0.54983 0.0
C2112 C 0.70117 0.48897 0.43735 0.0
C2113 C 0.71788 0.48687 0.45237 0.0
C2114 C 0.74636 0.51934 0.49256 0.0
C2115 C 0.79308 0.50101 0.52737 0.0
C2116 C 0.77645 0.50136 0.51014 0.0
C2117 C 0.72993 0.50498 0.4587 0.0
C2118 C 0.74592 0.50347 0.47641 0.0
H2119 H 0.81894 0.46633 0.56128 0.0
H2120 H 0.79129 0.46656 0.53324 0.0
H2121 H 0.76114 0.53071 0.52151 0.0
H2122 H 0.70594 0.54289 0.42713 0.0
H2123 H 0.73506 0.53912 0.4531 0.0
C2124 C 0.05733 0.30562 -0.00113 0.0
C2125 C 0.06544 0.31142 0.01925 0.0
C2126 C 0.04325 0.28815 0.99672 0.0
C2127 C 0.02194 0.24015 0.02577 0.0
H2128 H 0.97117 0.24969 0.99046 0.0
C2129 C 0.94428 0.19124 0.03669 0.0
C2130 C 0.93463 0.18279 0.01798 0.0
C2131 C 0.96103 0.20617 0.03514 0.0
C2132 C 0.98538 0.24671 0.00018 0.0
H2133 H 0.06567 0.30281 0.05323 0.0
H2134 H 0.04098 0.27277 0.04952 0.0
H2135 H 0.00015 0.27634 0.99045 0.0
H2136 H 0.93462 0.18398 0.98296 0.0
H2137 H 0.96377 0.21039 0.98037 0.0
H2138 H 0.00677 0.21089 0.03605 0.0
C2139 C 0.0457 0.28146 0.03512 0.0
C2140 C 0.00204 0.2619 0.00011 0.0
C2141 C 0.05982 0.29883 0.03726 0.0
C2142 C 0.94171 0.19014 0.9977 0.0
C2143 C 0.95836 0.20527 0.99618 0.0
C2144 C 0.00523 0.2251 0.02597 0.0
C2145 C 0.03695 0.27613 0.0149 0.0
C2146 C 0.02035 0.25896 0.01319 0.0
C2147 C 0.96839 0.21313 0.01489 0.0
C2148 C 0.98665 0.22842 0.01346 0.0
H2149 H 0.0614 0.31489 0.98462 0.0
H2150 H 0.03705 0.28424 0.98086 0.0
H2151 H 0.03601 0.23718 0.03569 0.0
H2152 H 0.93928 0.18597 0.05258 0.0
H2153 H 0.96829 0.21224 0.04983 0.0
C2154 C 0.06391 0.69834 0.48824 0.0
C2155 C 0.0639 0.681 0.50279 0.0
C2156 C 0.04971 0.71559 0.49104 0.0
C2157 C 0.00817 0.74039 0.4904 0.0
H2158 H 0.98715 0.75982 0.54598 0.0
C2159 C 0.93346 0.79434 0.49569 0.0
C2160 C 0.93363 0.8111 0.51089 0.0
C2161 C 0.9491 0.77816 0.49637 0.0
C2162 C 0.99297 0.75476 0.53031 0.0
H2163 H 0.04956 0.66843 0.53213 0.0
H2164 H 0.02423 0.69803 0.53659 0.0
H2165 H 0.01697 0.73432 0.54436 0.0
H2166 H 0.94995 0.82383 0.53908 0.0
H2167 H 0.97772 0.79607 0.53984 0.0
H2168 H 0.98496 0.76145 0.47629 0.0
C2169 C 0.03556 0.69872 0.52331 0.0
C2170 C 0.00993 0.73991 0.52939 0.0
C2171 C 0.05006 0.68167 0.52073 0.0
C2172 C 0.94932 0.811 0.52723 0.0
C2173 C 0.96522 0.79502 0.52769 0.0
C2174 C 0.99149 0.75543 0.49132 0.0
C2175 C 0.03482 0.71565 0.50819 0.0
C2176 C 0.01766 0.73241 0.5094 0.0
C2177 C 0.96556 0.77863 0.512 0.0
C2178 C 0.98348 0.76266 0.51127 0.0
H2179 H 0.07457 0.69835 0.47439 0.0
H2180 H 0.05007 0.72863 0.47942 0.0
H2181 H 0.01333 0.73475 0.4747 0.0
H2182 H 0.92141 0.79388 0.48304 0.0
H2183 H 0.94844 0.76546 0.48441 0.0
C2184 C 0.55304 0.81417 0.53138 0.0
C2185 C 0.56163 0.82005 0.51121 0.0
C2186 C 0.53644 0.79903 0.5328 0.0
C2187 C 0.49295 0.77417 0.50073 0.0
H2188 H 0.49323 0.73125 0.54626 0.0
C2189 C 0.43621 0.70036 0.50184 0.0
C2190 C 0.4279 0.69353 0.52183 0.0
C2191 C 0.45125 0.71707 0.50077 0.0
C2192 C 0.49275 0.74334 0.53365 0.0
H2193 H 0.55964 0.81425 0.47672 0.0
H2194 H 0.53087 0.78759 0.47929 0.0
H2195 H 0.52273 0.7571 0.54375 0.0
H2196 H 0.42832 0.69961 0.55632 0.0
H2197 H 0.45446 0.72893 0.55438 0.0
H2198 H 0.46305 0.76022 0.49052 0.0
C2199 C 0.5368 0.79498 0.49397 0.0
C2200 C 0.50968 0.75812 0.53218 0.0
C2201 C 0.55341 0.81015 0.49252 0.0
C2202 C 0.43439 0.7044 0.54065 0.0
C2203 C 0.4495 0.72109 0.53957 0.0
C2204 C 0.47603 0.75935 0.50219 0.0
C2205 C 0.52802 0.78937 0.51412 0.0
C2206 C 0.51001 0.77366 0.51566 0.0
C2207 C 0.45838 0.72734 0.51966 0.0
C2208 C 0.47578 0.74374 0.51863 0.0
H2209 H 0.55885 0.82152 0.54612 0.0
H2210 H 0.52986 0.79525 0.54855 0.0
H2211 H 0.49254 0.78618 0.48804 0.0
H2212 H 0.43158 0.6924 0.48699 0.0
H2213 H 0.45791 0.72139 0.4852 0.0
C2214 C 0.48848 0.56124 0.79601 0.0
C2215 C 0.508 0.56711 0.806 0.0
C2216 C 0.48825 0.546 0.77941 0.0
C2217 C 0.5234 0.5179 0.74009 0.0
H2218 H 0.47951 0.47336 0.74273 0.0
C2219 C 0.53045 0.43967 0.69124 0.0
C2220 C 0.51197 0.43278 0.68004 0.0
C2221 C 0.5291 0.45617 0.70647 0.0
C2222 C 0.49172 0.48581 0.74166 0.0
H2223 H 0.54265 0.56197 0.80584 0.0
H2224 H 0.54218 0.53534 0.77711 0.0
H2225 H 0.47874 0.50302 0.76861 0.0
H2226 H 0.47739 0.4374 0.67672 0.0
H2227 H 0.47511 0.46619 0.70344 0.0
H2228 H 0.53655 0.50051 0.71336 0.0
C2229 C 0.52708 0.54268 0.78194 0.0
C2230 C 0.49126 0.50283 0.75642 0.0
C2231 C 0.52733 0.55792 0.7985 0.0
C2232 C 0.49196 0.44227 0.68503 0.0
C2233 C 0.49062 0.45875 0.70037 0.0
C2234 C 0.5239 0.50085 0.7254 0.0
C2235 C 0.50751 0.5363 0.77243 0.0
C2236 C 0.50722 0.51896 0.75592 0.0
C2237 C 0.50925 0.46613 0.71094 0.0
C2238 C 0.5082 0.48452 0.72617 0.0
H2239 H 0.47328 0.56802 0.80131 0.0
H2240 H 0.47295 0.54167 0.77218 0.0
H2241 H 0.5357 0.53026 0.73903 0.0
H2242 H 0.54613 0.43273 0.6879 0.0
H2243 H 0.54367 0.46127 0.71466 0.0
C2244 C 0.53209 0.94958 0.80724 0.0
C2245 C 0.51403 0.93589 0.80602 0.0
C2246 C 0.53601 0.96477 0.79108 0.0
C2247 C 0.52521 0.97922 0.73517 0.0
H2248 H 0.5255 0.03864 0.75497 0.0
C2249 C 0.53257 0.05129 0.67686 0.0
C2250 C 0.51433 0.06472 0.67793 0.0
C2251 C 0.53674 0.03643 0.69328 0.0
C2252 C 0.52571 0.02211 0.74929 0.0
H2253 H 0.4866 0.92659 0.78642 0.0
H2254 H 0.49385 0.95284 0.75784 0.0
H2255 H 0.52522 0.00917 0.78134 0.0
H2256 H 0.48699 0.07419 0.69758 0.0
H2257 H 0.49469 0.04863 0.72661 0.0
H2258 H 0.52532 0.99217 0.70312 0.0
C2259 C 0.50479 0.95187 0.77144 0.0
C2260 C 0.52563 0.00531 0.7643 0.0
C2261 C 0.50061 0.93695 0.7878 0.0
C2262 C 0.50114 0.064 0.69634 0.0
C2263 C 0.50557 0.04946 0.71295 0.0
C2264 C 0.52571 0.99602 0.72017 0.0
C2265 C 0.52221 0.96623 0.77323 0.0
C2266 C 0.52489 0.98376 0.75734 0.0
C2267 C 0.52301 0.03513 0.71123 0.0
C2268 C 0.52549 0.01758 0.72712 0.0
H2269 H 0.54265 0.94928 0.82116 0.0
H2270 H 0.54957 0.97567 0.79273 0.0
H2271 H 0.52466 0.9627 0.72949 0.0
H2272 H 0.54293 0.05137 0.66278 0.0
H2273 H 0.5503 0.02552 0.69169 0.0
C2274 C 0.43443 0.30797 0.93849 0.0
C2275 C 0.42583 0.31745 0.95722 0.0
C2276 C 0.45108 0.29286 0.93993 0.0
C2277 C 0.49453 0.27521 0.9768 0.0
H2278 H 0.49831 0.22664 0.93759 0.0
C2279 C 0.55695 0.20619 0.98559 0.0
C2280 C 0.56691 0.19891 0.96653 0.0
C2281 C 0.54012 0.22117 0.98471 0.0
C2282 C 0.49756 0.24026 0.94851 0.0
H2283 H 0.42739 0.3177 0.99221 0.0
H2284 H 0.45602 0.29097 0.9947 0.0
H2285 H 0.4672 0.25064 0.93584 0.0
H2286 H 0.5673 0.20223 0.93164 0.0
H2287 H 0.53798 0.22832 0.93021 0.0
H2288 H 0.52482 0.26457 0.98962 0.0
C2289 C 0.45028 0.29564 0.97887 0.0
C2290 C 0.47975 0.25401 0.94751 0.0
C2291 C 0.43373 0.31085 0.97744 0.0
C2292 C 0.56003 0.20744 0.94665 0.0
C2293 C 0.54311 0.22226 0.94578 0.0
C2294 C 0.51227 0.26134 0.9779 0.0
C2295 C 0.45943 0.28675 0.96013 0.0
C2296 C 0.47805 0.27171 0.96159 0.0
C2297 C 0.53279 0.22905 0.96477 0.0
C2298 C 0.514 0.2438 0.96369 0.0
H2299 H 0.42884 0.31276 0.92265 0.0
H2300 H 0.4579 0.28653 0.92515 0.0
H2301 H 0.49396 0.2889 0.98763 0.0
H2302 H 0.56183 0.2 0.00118 0.0
H2303 H 0.53239 0.22605 -0.0004 0.0
loop_
_geom_bond_atom_site_label_1
_geom_bond_atom_site_label_2
_geom_bond_distance
_geom_bond_site_symmetry_2
_ccdc_geom_bond_type
Mn0 O5 2.095 . S
Mn0 O15 2.162 . S
Mn0 O16 2.297 . S
Mn0 O24 2.385 1_655 S
Mn0 O25 2.209 1_655 S
Mn0 O26 2.094 . S
Mn1 O6 2.121 . S
Mn1 N8 2.257 . S
Mn1 N17 2.282 . S
Mn1 O25 2.215 . S
Mn1 O27 2.117 . S
C2 O24 1.234 . S
C2 O25 1.283 . S
C3 O15 1.281 . S
C3 O16 1.236 . S
C4 O26 1.240 . S
C4 O27 1.264 1_655 S
O5 Mn0 2.095 . S
O5 C14 1.250 1_655 S
O6 Mn1 2.121 . S
O6 C14 1.258 . S
C7 N8 1.326 . S
C7 C11 1.460 . S
C7 H13 0.929 . S
N8 Mn1 2.257 . S
N8 C7 1.326 . S
N8 C12 1.362 . S
C9 C10 1.258 . S
C9 C12 1.431 . S
C9 C29 1.449 . S
C10 C9 1.258 . S
C10 C11 1.477 . S
C10 H30 0.931 . S
C11 C7 1.460 . S
C11 C10 1.477 . S
C11 H31 0.930 . S
C12 N8 1.362 . S
C12 C9 1.431 . S
C12 C22 1.476 . S
H13 C7 0.929 . S
C14 O5 1.250 1_455 S
C14 O6 1.258 . S
O15 Mn0 2.162 . S
O15 C3 1.281 . S
O16 Mn0 2.297 . S
O16 C3 1.236 . S
N17 Mn1 2.282 . S
N17 C18 1.328 . S
N17 C22 1.318 . S
C18 N17 1.328 . S
C18 C19 1.457 . S
C18 H23 0.929 . S
C19 C18 1.457 . S
C19 C20 1.291 . S
C19 H32 0.931 . S
C20 C19 1.291 . S
C20 C21 1.373 . S
C20 H33 0.929 . S
C21 C20 1.373 . S
C21 C22 1.396 . S
C21 C28 1.403 . S
C22 C12 1.476 . S
C22 N17 1.318 . S
C22 C21 1.396 . S
H23 C18 0.929 . S
O24 Mn0 2.385 1_455 S
O24 C2 1.234 . S
O25 Mn0 2.209 1_455 S
O25 Mn1 2.215 . S
O25 C2 1.283 . S
O26 Mn0 2.094 . S
O26 C4 1.240 . S
O27 Mn1 2.117 . S
O27 C4 1.264 1_455 S
C28 C21 1.403 . S
C28 C29 1.399 . S
C28 H34 0.929 . S
C29 C9 1.449 . S
C29 C28 1.399 . S
C29 H35 0.930 . S
H30 C10 0.931 . S
H31 C11 0.930 . S
H32 C19 0.931 . S
H33 C20 0.929 . S
H34 C28 0.929 . S
H35 C29 0.930 . S
Mn36 O41 2.095 . S
Mn36 O51 2.162 . S
Mn36 O52 2.297 . S
Mn36 O60 2.385 1_455 S
Mn36 O61 2.209 1_455 S
Mn36 O62 2.094 . S
Mn37 O42 2.121 . S
Mn37 N44 2.257 . S
Mn37 N53 2.282 . S
Mn37 O61 2.215 . S
Mn37 O63 2.117 . S
C38 O60 1.234 . S
C38 O61 1.283 . S
C39 O51 1.281 . S
C39 O52 1.236 . S
C40 O62 1.240 . S
C40 O63 1.264 1_455 S
O41 Mn36 2.095 . S
O41 C50 1.250 1_455 S
O42 Mn37 2.121 . S
O42 C50 1.258 . S
C43 N44 1.326 . S
C43 C47 1.460 . S
C43 H49 0.929 . S
N44 Mn37 2.257 . S
N44 C43 1.326 . S
N44 C48 1.362 . S
C45 C46 1.258 . S
C45 C48 1.431 . S
C45 C65 1.449 . S
C46 C45 1.258 . S
C46 C47 1.477 . S
C46 H66 0.931 . S
C47 C43 1.460 . S
C47 C46 1.477 . S
C47 H67 0.930 . S
C48 N44 1.362 . S
C48 C45 1.431 . S
C48 C58 1.476 . S
H49 C43 0.929 . S
C50 O41 1.250 1_655 S
C50 O42 1.258 . S
O51 Mn36 2.162 . S
O51 C39 1.281 . S
O52 Mn36 2.297 . S
O52 C39 1.236 . S
N53 Mn37 2.282 . S
N53 C54 1.328 . S
N53 C58 1.318 . S
C54 N53 1.328 . S
C54 C55 1.457 . S
C54 H59 0.929 . S
C55 C54 1.457 . S
C55 C56 1.291 . S
C55 H68 0.931 . S
C56 C55 1.291 . S
C56 C57 1.373 . S
C56 H69 0.929 . S
C57 C56 1.373 . S
C57 C58 1.396 . S
C57 C64 1.403 . S
C58 C48 1.476 . S
C58 N53 1.318 . S
C58 C57 1.396 . S
H59 C54 0.929 . S
O60 Mn36 2.385 1_655 S
O60 C38 1.234 . S
O61 Mn36 2.209 1_655 S
O61 Mn37 2.215 . S
O61 C38 1.283 . S
O62 Mn36 2.094 . S
O62 C40 1.240 . S
O63 Mn37 2.117 . S
O63 C40 1.264 1_655 S
C64 C57 1.403 . S
C64 C65 1.399 . S
C64 H70 0.929 . S
C65 C45 1.449 . S
C65 C64 1.399 . S
C65 H71 0.930 . S
H66 C46 0.931 . S
H67 C47 0.930 . S
H68 C55 0.931 . S
H69 C56 0.929 . S
H70 C64 0.929 . S
H71 C65 0.930 . S
Mn72 O77 2.095 . S
Mn72 O87 2.162 . S
Mn72 O88 2.297 . S
Mn72 O96 2.385 1_655 S
Mn72 O97 2.209 1_655 S
Mn72 O98 2.094 . S
Mn73 O78 2.121 . S
Mn73 N80 2.257 . S
Mn73 N89 2.282 . S
Mn73 O97 2.215 . S
Mn73 O99 2.117 . S
C74 O96 1.234 . S
C74 O97 1.283 . S
C75 O87 1.281 . S
C75 O88 1.236 . S
C76 O98 1.240 . S
C76 O99 1.264 1_655 S
O77 Mn72 2.095 . S
O77 C86 1.250 1_655 S
O78 Mn73 2.121 . S
O78 C86 1.258 . S
C79 N80 1.326 . S
C79 C83 1.460 . S
C79 H85 0.929 . S
N80 Mn73 2.257 . S
N80 C79 1.326 . S
N80 C84 1.362 . S
C81 C82 1.258 . S
C81 C84 1.431 . S
C81 C101 1.449 . S
C82 C81 1.258 . S
C82 C83 1.477 . S
C82 H102 0.931 . S
C83 C79 1.460 . S
C83 C82 1.477 . S
C83 H103 0.930 . S
C84 N80 1.362 . S
C84 C81 1.431 . S
C84 C94 1.476 . S
H85 C79 0.929 . S
C86 O77 1.250 1_455 S
C86 O78 1.258 . S
O87 Mn72 2.162 . S
O87 C75 1.281 . S
O88 Mn72 2.297 . S
O88 C75 1.236 . S
N89 Mn73 2.282 . S
N89 C90 1.328 . S
N89 C94 1.318 . S
C90 N89 1.328 . S
C90 C91 1.457 . S
C90 H95 0.929 . S
C91 C90 1.457 . S
C91 C92 1.291 . S
C91 H104 0.931 . S
C92 C91 1.291 . S
C92 C93 1.373 . S
C92 H105 0.929 . S
C93 C92 1.373 . S
C93 C94 1.396 . S
C93 C100 1.403 . S
C94 C84 1.476 . S
C94 N89 1.318 . S
C94 C93 1.396 . S
H95 C90 0.929 . S
O96 Mn72 2.385 1_455 S
O96 C74 1.234 . S
O97 Mn72 2.209 1_455 S
O97 Mn73 2.215 . S
O97 C74 1.283 . S
O98 Mn72 2.094 . S
O98 C76 1.240 . S
O99 Mn73 2.117 . S
O99 C76 1.264 1_455 S
C100 C93 1.403 . S
C100 C101 1.399 . S
C100 H106 0.929 . S
C101 C81 1.449 . S
C101 C100 1.399 . S
C101 H107 0.930 . S
H102 C82 0.931 . S
H103 C83 0.930 . S
H104 C91 0.931 . S
H105 C92 0.929 . S
H106 C100 0.929 . S
H107 C101 0.930 . S
Mn108 O113 2.095 . S
Mn108 O123 2.162 . S
Mn108 O124 2.297 . S
Mn108 O132 2.385 1_455 S
Mn108 O133 2.209 1_455 S
Mn108 O134 2.094 . S
Mn109 O114 2.121 . S
Mn109 N116 2.257 . S
Mn109 N125 2.282 . S
Mn109 O133 2.215 . S
Mn109 O135 2.117 . S
C110 O132 1.234 . S
C110 O133 1.283 . S
C111 O123 1.281 . S
C111 O124 1.236 . S
C112 O134 1.240 . S
C112 O135 1.264 1_455 S
O113 Mn108 2.095 . S
O113 C122 1.250 1_455 S
O114 Mn109 2.121 . S
O114 C122 1.258 . S
C115 N116 1.326 . S
C115 C119 1.460 . S
C115 H121 0.929 . S
N116 Mn109 2.257 . S
N116 C115 1.326 . S
N116 C120 1.362 . S
C117 C118 1.258 . S
C117 C120 1.431 . S
C117 C137 1.449 . S
C118 C117 1.258 . S
C118 C119 1.477 . S
C118 H138 0.931 . S
C119 C115 1.460 . S
C119 C118 1.477 . S
C119 H139 0.930 . S
C120 N116 1.362 . S
C120 C117 1.431 . S
C120 C130 1.476 . S
H121 C115 0.929 . S
C122 O113 1.250 1_655 S
C122 O114 1.258 . S
O123 Mn108 2.162 . S
O123 C111 1.281 . S
O124 Mn108 2.297 . S
O124 C111 1.236 . S
N125 Mn109 2.282 . S
N125 C126 1.328 . S
N125 C130 1.318 . S
C126 N125 1.328 . S
C126 C127 1.457 . S
C126 H131 0.929 . S
C127 C126 1.457 . S
C127 C128 1.291 . S
C127 H140 0.931 . S
C128 C127 1.291 . S
C128 C129 1.373 . S
C128 H141 0.929 . S
C129 C128 1.373 . S
C129 C130 1.396 . S
C129 C136 1.403 . S
C130 C120 1.476 . S
C130 N125 1.318 . S
C130 C129 1.396 . S
H131 C126 0.929 . S
O132 Mn108 2.385 1_655 S
O132 C110 1.234 . S
O133 Mn108 2.209 1_655 S
O133 Mn109 2.215 . S
O133 C110 1.283 . S
O134 Mn108 2.094 . S
O134 C112 1.240 . S
O135 Mn109 2.117 . S
O135 C112 1.264 1_655 S
C136 C129 1.403 . S
C136 C137 1.399 . S
C136 H142 0.929 . S
C137 C117 1.449 . S
C137 C136 1.399 . S
C137 H143 0.930 . S
H138 C118 0.931 . S
H139 C119 0.930 . S
H140 C127 0.931 . S
H141 C128 0.929 . S
H142 C136 0.929 . S
H143 C137 0.930 . S
Mn144 O149 2.095 . S
Mn144 O159 2.162 . S
Mn144 O160 2.297 . S
Mn144 O168 2.385 1_565 S
Mn144 O169 2.209 1_565 S
Mn144 O170 2.094 . S
Mn145 O150 2.121 . S
Mn145 N152 2.257 . S
Mn145 N161 2.282 . S
Mn145 O169 2.215 . S
Mn145 O171 2.117 . S
C146 O168 1.234 . S
C146 O169 1.283 . S
C147 O159 1.281 . S
C147 O160 1.236 . S
C148 O170 1.240 . S
C148 O171 1.264 1_565 S
O149 Mn144 2.095 . S
O149 C158 1.250 1_565 S
O150 Mn145 2.121 . S
O150 C158 1.258 . S
C151 N152 1.326 . S
C151 C155 1.460 . S
C151 H157 0.929 . S
N152 Mn145 2.257 . S
N152 C151 1.326 . S
N152 C156 1.362 . S
C153 C154 1.258 . S
C153 C156 1.431 . S
C153 C173 1.449 . S
C154 C153 1.258 . S
C154 C155 1.477 . S
C154 H174 0.931 . S
C155 C151 1.460 . S
C155 C154 1.477 . S
C155 H175 0.930 . S
C156 N152 1.362 . S
C156 C153 1.431 . S
C156 C166 1.476 . S
H157 C151 0.929 . S
C158 O149 1.250 1_545 S
C158 O150 1.258 . S
O159 Mn144 2.162 . S
O159 C147 1.281 . S
O160 Mn144 2.297 . S
O160 C147 1.236 . S
N161 Mn145 2.282 . S
N161 C162 1.328 . S
N161 C166 1.318 . S
C162 N161 1.328 . S
C162 C163 1.457 . S
C162 H167 0.929 . S
C163 C162 1.457 . S
C163 C164 1.291 . S
C163 H176 0.931 . S
C164 C163 1.291 . S
C164 C165 1.373 . S
C164 H177 0.929 . S
C165 C164 1.373 . S
C165 C166 1.396 . S
C165 C172 1.403 . S
C166 C156 1.476 . S
C166 N161 1.318 . S
C166 C165 1.396 . S
H167 C162 0.929 . S
O168 Mn144 2.385 1_545 S
O168 C146 1.234 . S
O169 Mn144 2.209 1_545 S
O169 Mn145 2.215 . S
O169 C146 1.283 . S
O170 Mn144 2.094 . S
O170 C148 1.240 . S
O171 Mn145 2.117 . S
O171 C148 1.264 1_545 S
C172 C165 1.403 . S
C172 C173 1.399 . S
C172 H178 0.929 . S
C173 C153 1.449 . S
C173 C172 1.399 . S
C173 H179 0.930 . S
H174 C154 0.931 . S
H175 C155 0.930 . S
H176 C163 0.931 . S
H177 C164 0.929 . S
H178 C172 0.929 . S
H179 C173 0.930 . S
Mn180 O185 2.095 . S
Mn180 O195 2.162 . S
Mn180 O196 2.297 . S
Mn180 O204 2.385 . S
Mn180 O205 2.209 . S
Mn180 O206 2.094 . S
Mn181 O186 2.121 . S
Mn181 N188 2.257 . S
Mn181 N197 2.282 . S
Mn181 O205 2.215 . S
Mn181 O207 2.117 . S
C182 O204 1.234 . S
C182 O205 1.283 . S
C183 O195 1.281 . S
C183 O196 1.236 . S
C184 O206 1.240 . S
C184 O207 1.264 . S
O185 Mn180 2.095 . S
O185 C194 1.250 . S
O186 Mn181 2.121 . S
O186 C194 1.258 . S
C187 N188 1.326 . S
C187 C191 1.460 . S
C187 H193 0.929 . S
N188 Mn181 2.257 . S
N188 C187 1.326 . S
N188 C192 1.362 . S
C189 C190 1.258 . S
C189 C192 1.431 . S
C189 C209 1.449 . S
C190 C189 1.258 . S
C190 C191 1.477 . S
C190 H210 0.931 . S
C191 C187 1.460 . S
C191 C190 1.477 . S
C191 H211 0.930 . S
C192 N188 1.362 . S
C192 C189 1.431 . S
C192 C202 1.476 . S
H193 C187 0.929 . S
C194 O185 1.250 . S
C194 O186 1.258 . S
O195 Mn180 2.162 . S
O195 C183 1.281 . S
O196 Mn180 2.297 . S
O196 C183 1.236 . S
N197 Mn181 2.282 . S
N197 C198 1.328 . S
N197 C202 1.318 . S
C198 N197 1.328 . S
C198 C199 1.457 . S
C198 H203 0.929 . S
C199 C198 1.457 . S
C199 C200 1.291 . S
C199 H212 0.931 . S
C200 C199 1.291 . S
C200 C201 1.373 . S
C200 H213 0.929 . S
C201 C200 1.373 . S
C201 C202 1.396 . S
C201 C208 1.403 . S
C202 C192 1.476 . S
C202 N197 1.318 . S
C202 C201 1.396 . S
H203 C198 0.929 . S
O204 Mn180 2.385 . S
O204 C182 1.234 . S
O205 Mn180 2.209 . S
O205 Mn181 2.215 . S
O205 C182 1.283 . S
O206 Mn180 2.094 . S
O206 C184 1.240 . S
O207 Mn181 2.117 . S
O207 C184 1.264 . S
C208 C201 1.403 . S
C208 C209 1.399 . S
C208 H214 0.929 . S
C209 C189 1.449 . S
C209 C208 1.399 . S
C209 H215 0.930 . S
H210 C190 0.931 . S
H211 C191 0.930 . S
H212 C199 0.931 . S
H213 C200 0.929 . S
H214 C208 0.929 . S
H215 C209 0.930 . S
Mn216 O221 2.095 . S
Mn216 O231 2.162 . S
Mn216 O232 2.297 . S
Mn216 O240 2.385 1_545 S
Mn216 O241 2.209 1_545 S
Mn216 O242 2.094 . S
Mn217 O222 2.121 . S
Mn217 N224 2.257 . S
Mn217 N233 2.282 . S
Mn217 O241 2.215 . S
Mn217 O243 2.117 . S
C218 O240 1.234 . S
C218 O241 1.283 . S
C219 O231 1.281 . S
C219 O232 1.236 . S
C220 O242 1.240 . S
C220 O243 1.264 1_545 S
O221 Mn216 2.095 . S
O221 C230 1.250 1_545 S
O222 Mn217 2.121 . S
O222 C230 1.258 . S
C223 N224 1.326 . S
C223 C227 1.460 . S
C223 H229 0.929 . S
N224 Mn217 2.257 . S
N224 C223 1.326 . S
N224 C228 1.362 . S
C225 C226 1.258 . S
C225 C228 1.431 . S
C225 C245 1.449 . S
C226 C225 1.258 . S
C226 C227 1.477 . S
C226 H246 0.931 . S
C227 C223 1.460 . S
C227 C226 1.477 . S
C227 H247 0.930 . S
C228 N224 1.362 . S
C228 C225 1.431 . S
C228 C238 1.476 . S
H229 C223 0.929 . S
C230 O221 1.250 1_565 S
C230 O222 1.258 . S
O231 Mn216 2.162 . S
O231 C219 1.281 . S
O232 Mn216 2.297 . S
O232 C219 1.236 . S
N233 Mn217 2.282 . S
N233 C234 1.328 . S
N233 C238 1.318 . S
C234 N233 1.328 . S
C234 C235 1.457 . S
C234 H239 0.929 . S
C235 C234 1.457 . S
C235 C236 1.291 . S
C235 H248 0.931 . S
C236 C235 1.291 . S
C236 C237 1.373 . S
C236 H249 0.929 . S
C237 C236 1.373 . S
C237 C238 1.396 . S
C237 C244 1.403 . S
C238 C228 1.476 . S
C238 N233 1.318 . S
C238 C237 1.396 . S
H239 C234 0.929 . S
O240 Mn216 2.385 1_565 S
O240 C218 1.234 . S
O241 Mn216 2.209 1_565 S
O241 Mn217 2.215 . S
O241 C218 1.283 . S
O242 Mn216 2.094 . S
O242 C220 1.240 . S
O243 Mn217 2.117 . S
O243 C220 1.264 1_565 S
C244 C237 1.403 . S
C244 C245 1.399 . S
C244 H250 0.929 . S
C245 C225 1.449 . S
C245 C244 1.399 . S
C245 H251 0.930 . S
H246 C226 0.931 . S
H247 C227 0.930 . S
H248 C235 0.931 . S
H249 C236 0.929 . S
H250 C244 0.929 . S
H251 C245 0.930 . S
Mn252 O257 2.095 . S
Mn252 O267 2.162 . S
Mn252 O268 2.297 . S
Mn252 O276 2.385 . S
Mn252 O277 2.209 . S
Mn252 O278 2.094 . S
Mn253 O258 2.121 . S
Mn253 N260 2.257 . S
Mn253 N269 2.282 . S
Mn253 O277 2.215 . S
Mn253 O279 2.117 . S
C254 O276 1.234 . S
C254 O277 1.283 . S
C255 O267 1.281 . S
C255 O268 1.236 . S
C256 O278 1.240 . S
C256 O279 1.264 . S
O257 Mn252 2.095 . S
O257 C266 1.250 . S
O258 Mn253 2.121 . S
O258 C266 1.258 . S
C259 N260 1.326 . S
C259 C263 1.460 . S
C259 H265 0.929 . S
N260 Mn253 2.257 . S
N260 C259 1.326 . S
N260 C264 1.362 . S
C261 C262 1.258 . S
C261 C264 1.431 . S
C261 C281 1.449 . S
C262 C261 1.258 . S
C262 C263 1.477 . S
C262 H282 0.931 . S
C263 C259 1.460 . S
C263 C262 1.477 . S
C263 H283 0.930 . S
C264 N260 1.362 . S
C264 C261 1.431 . S
C264 C274 1.476 . S
H265 C259 0.929 . S
C266 O257 1.250 . S
C266 O258 1.258 . S
O267 Mn252 2.162 . S
O267 C255 1.281 . S
O268 Mn252 2.297 . S
O268 C255 1.236 . S
N269 Mn253 2.282 . S
N269 C270 1.328 . S
N269 C274 1.318 . S
C270 N269 1.328 . S
C270 C271 1.457 . S
C270 H275 0.929 . S
C271 C270 1.457 . S
C271 C272 1.291 . S
C271 H284 0.931 . S
C272 C271 1.291 . S
C272 C273 1.373 . S
C272 H285 0.929 . S
C273 C272 1.373 . S
C273 C274 1.396 . S
C273 C280 1.403 . S
C274 C264 1.476 . S
C274 N269 1.318 . S
C274 C273 1.396 . S
H275 C270 0.929 . S
O276 Mn252 2.385 . S
O276 C254 1.234 . S
O277 Mn252 2.209 . S
O277 Mn253 2.215 . S
O277 C254 1.283 . S
O278 Mn252 2.094 . S
O278 C256 1.240 . S
O279 Mn253 2.117 . S
O279 C256 1.264 . S
C280 C273 1.403 . S
C280 C281 1.399 . S
C280 H286 0.929 . S
C281 C261 1.449 . S
C281 C280 1.399 . S
C281 H287 0.930 . S
H282 C262 0.931 . S
H283 C263 0.930 . S
H284 C271 0.931 . S
H285 C272 0.929 . S
H286 C280 0.929 . S
H287 C281 0.930 . S
Mn288 O293 2.095 . S
Mn288 O303 2.162 . S
Mn288 O304 2.297 . S
Mn288 O312 2.385 1_556 S
Mn288 O313 2.209 1_556 S
Mn288 O314 2.094 . S
Mn289 O294 2.121 . S
Mn289 N296 2.257 . S
Mn289 N305 2.282 . S
Mn289 O313 2.215 . S
Mn289 O315 2.117 . S
C290 O312 1.234 . S
C290 O313 1.283 . S
C291 O303 1.281 . S
C291 O304 1.236 . S
C292 O314 1.240 . S
C292 O315 1.264 1_556 S
O293 Mn288 2.095 . S
O293 C302 1.250 1_556 S
O294 Mn289 2.121 . S
O294 C302 1.258 . S
C295 N296 1.326 . S
C295 C299 1.460 . S
C295 H301 0.929 . S
N296 Mn289 2.257 . S
N296 C295 1.326 . S
N296 C300 1.362 . S
C297 C298 1.258 . S
C297 C300 1.431 . S
C297 C317 1.449 . S
C298 C297 1.258 . S
C298 C299 1.477 . S
C298 H318 0.931 . S
C299 C295 1.460 . S
C299 C298 1.477 . S
C299 H319 0.930 . S
C300 N296 1.362 . S
C300 C297 1.431 . S
C300 C310 1.476 . S
H301 C295 0.929 . S
C302 O293 1.250 1_554 S
C302 O294 1.258 . S
O303 Mn288 2.162 . S
O303 C291 1.281 . S
O304 Mn288 2.297 . S
O304 C291 1.236 . S
N305 Mn289 2.282 . S
N305 C306 1.328 . S
N305 C310 1.318 . S
C306 N305 1.328 . S
C306 C307 1.457 . S
C306 H311 0.929 . S
C307 C306 1.457 . S
C307 C308 1.291 . S
C307 H320 0.931 . S
C308 C307 1.291 . S
C308 C309 1.373 . S
C308 H321 0.929 . S
C309 C308 1.373 . S
C309 C310 1.396 . S
C309 C316 1.403 . S
C310 C300 1.476 . S
C310 N305 1.318 . S
C310 C309 1.396 . S
H311 C306 0.929 . S
O312 Mn288 2.385 1_554 S
O312 C290 1.234 . S
O313 Mn288 2.209 1_554 S
O313 Mn289 2.215 . S
O313 C290 1.283 . S
O314 Mn288 2.094 . S
O314 C292 1.240 . S
O315 Mn289 2.117 . S
O315 C292 1.264 1_554 S
C316 C309 1.403 . S
C316 C317 1.399 . S
C316 H322 0.929 . S
C317 C297 1.449 . S
C317 C316 1.399 . S
C317 H323 0.930 . S
H318 C298 0.931 . S
H319 C299 0.930 . S
H320 C307 0.931 . S
H321 C308 0.929 . S
H322 C316 0.929 . S
H323 C317 0.930 . S
Mn324 O329 2.095 . S
Mn324 O339 2.162 . S
Mn324 O340 2.297 . S
Mn324 O348 2.385 . S
Mn324 O349 2.209 . S
Mn324 O350 2.094 . S
Mn325 O330 2.121 . S
Mn325 N332 2.257 . S
Mn325 N341 2.282 . S
Mn325 O349 2.215 . S
Mn325 O351 2.117 . S
C326 O348 1.234 . S
C326 O349 1.283 . S
C327 O339 1.281 . S
C327 O340 1.236 . S
C328 O350 1.240 . S
C328 O351 1.264 . S
O329 Mn324 2.095 . S
O329 C338 1.250 . S
O330 Mn325 2.121 . S
O330 C338 1.258 . S
C331 N332 1.326 . S
C331 C335 1.460 . S
C331 H337 0.929 . S
N332 Mn325 2.257 . S
N332 C331 1.326 . S
N332 C336 1.362 . S
C333 C334 1.258 . S
C333 C336 1.431 . S
C333 C353 1.449 . S
C334 C333 1.258 . S
C334 C335 1.477 . S
C334 H354 0.931 . S
C335 C331 1.460 . S
C335 C334 1.477 . S
C335 H355 0.930 . S
C336 N332 1.362 . S
C336 C333 1.431 . S
C336 C346 1.476 . S
H337 C331 0.929 . S
C338 O329 1.250 . S
C338 O330 1.258 . S
O339 Mn324 2.162 . S
O339 C327 1.281 . S
O340 Mn324 2.297 . S
O340 C327 1.236 . S
N341 Mn325 2.282 . S
N341 C342 1.328 . S
N341 C346 1.318 . S
C342 N341 1.328 . S
C342 C343 1.457 . S
C342 H347 0.929 . S
C343 C342 1.457 . S
C343 C344 1.291 . S
C343 H356 0.931 . S
C344 C343 1.291 . S
C344 C345 1.373 . S
C344 H357 0.929 . S
C345 C344 1.373 . S
C345 C346 1.396 . S
C345 C352 1.403 . S
C346 C336 1.476 . S
C346 N341 1.318 . S
C346 C345 1.396 . S
H347 C342 0.929 . S
O348 Mn324 2.385 . S
O348 C326 1.234 . S
O349 Mn324 2.209 . S
O349 Mn325 2.215 . S
O349 C326 1.283 . S
O350 Mn324 2.094 . S
O350 C328 1.240 . S
O351 Mn325 2.117 . S
O351 C328 1.264 . S
C352 C345 1.403 . S
C352 C353 1.399 . S
C352 H358 0.929 . S
C353 C333 1.449 . S
C353 C352 1.399 . S
C353 H359 0.930 . S
H354 C334 0.931 . S
H355 C335 0.930 . S
H356 C343 0.931 . S
H357 C344 0.929 . S
H358 C352 0.929 . S
H359 C353 0.930 . S
Mn360 O365 2.095 . S
Mn360 O375 2.162 . S
Mn360 O376 2.297 . S
Mn360 O384 2.385 . S
Mn360 O385 2.209 . S
Mn360 O386 2.094 . S
Mn361 O366 2.121 . S
Mn361 N368 2.257 . S
Mn361 N377 2.282 . S
Mn361 O385 2.215 . S
Mn361 O387 2.117 . S
C362 O384 1.234 . S
C362 O385 1.283 . S
C363 O375 1.281 . S
C363 O376 1.236 . S
C364 O386 1.240 . S
C364 O387 1.264 . S
O365 Mn360 2.095 . S
O365 C374 1.250 . S
O366 Mn361 2.121 . S
O366 C374 1.258 . S
C367 N368 1.326 . S
C367 C371 1.460 . S
C367 H373 0.929 . S
N368 Mn361 2.257 . S
N368 C367 1.326 . S
N368 C372 1.362 . S
C369 C370 1.258 . S
C369 C372 1.431 . S
C369 C389 1.449 . S
C370 C369 1.258 . S
C370 C371 1.477 . S
C370 H390 0.931 . S
C371 C367 1.460 . S
C371 C370 1.477 . S
C371 H391 0.930 . S
C372 N368 1.362 . S
C372 C369 1.431 . S
C372 C382 1.476 . S
H373 C367 0.929 . S
C374 O365 1.250 . S
C374 O366 1.258 . S
O375 Mn360 2.162 . S
O375 C363 1.281 . S
O376 Mn360 2.297 . S
O376 C363 1.236 . S
N377 Mn361 2.282 . S
N377 C378 1.328 . S
N377 C382 1.318 . S
C378 N377 1.328 . S
C378 C379 1.457 . S
C378 H383 0.929 . S
C379 C378 1.457 . S
C379 C380 1.291 . S
C379 H392 0.931 . S
C380 C379 1.291 . S
C380 C381 1.373 . S
C380 H393 0.929 . S
C381 C380 1.373 . S
C381 C382 1.396 . S
C381 C388 1.403 . S
C382 C372 1.476 . S
C382 N377 1.318 . S
C382 C381 1.396 . S
H383 C378 0.929 . S
O384 Mn360 2.385 . S
O384 C362 1.234 . S
O385 Mn360 2.209 . S
O385 Mn361 2.215 . S
O385 C362 1.283 . S
O386 Mn360 2.094 . S
O386 C364 1.240 . S
O387 Mn361 2.117 . S
O387 C364 1.264 . S
C388 C381 1.403 . S
C388 C389 1.399 . S
C388 H394 0.929 . S
C389 C369 1.449 . S
C389 C388 1.399 . S
C389 H395 0.930 . S
H390 C370 0.931 . S
H391 C371 0.930 . S
H392 C379 0.931 . S
H393 C380 0.929 . S
H394 C388 0.929 . S
H395 C389 0.930 . S
Mn396 O401 2.095 . S
Mn396 O411 2.162 . S
Mn396 O412 2.297 . S
Mn396 O420 2.385 . S
Mn396 O421 2.209 . S
Mn396 O422 2.094 . S
Mn397 O402 2.121 . S
Mn397 N404 2.257 . S
Mn397 N413 2.282 . S
Mn397 O421 2.215 . S
Mn397 O423 2.117 . S
C398 O420 1.234 . S
C398 O421 1.283 . S
C399 O411 1.281 . S
C399 O412 1.236 . S
C400 O422 1.240 . S
C400 O423 1.264 . S
O401 Mn396 2.095 . S
O401 C410 1.250 . S
O402 Mn397 2.121 . S
O402 C410 1.258 . S
C403 N404 1.326 . S
C403 C407 1.460 . S
C403 H409 0.929 . S
N404 Mn397 2.257 . S
N404 C403 1.326 . S
N404 C408 1.362 . S
C405 C406 1.258 . S
C405 C408 1.431 . S
C405 C425 1.449 . S
C406 C405 1.258 . S
C406 C407 1.477 . S
C406 H426 0.931 . S
C407 C403 1.460 . S
C407 C406 1.477 . S
C407 H427 0.930 . S
C408 N404 1.362 . S
C408 C405 1.431 . S
C408 C418 1.476 . S
H409 C403 0.929 . S
C410 O401 1.250 . S
C410 O402 1.258 . S
O411 Mn396 2.162 . S
O411 C399 1.281 . S
O412 Mn396 2.297 . S
O412 C399 1.236 . S
N413 Mn397 2.282 . S
N413 C414 1.328 . S
N413 C418 1.318 . S
C414 N413 1.328 . S
C414 C415 1.457 . S
C414 H419 0.929 . S
C415 C414 1.457 . S
C415 C416 1.291 . S
C415 H428 0.931 . S
C416 C415 1.291 . S
C416 C417 1.373 . S
C416 H429 0.929 . S
C417 C416 1.373 . S
C417 C418 1.396 . S
C417 C424 1.403 . S
C418 C408 1.476 . S
C418 N413 1.318 . S
C418 C417 1.396 . S
H419 C414 0.929 . S
O420 Mn396 2.385 . S
O420 C398 1.234 . S
O421 Mn396 2.209 . S
O421 Mn397 2.215 . S
O421 C398 1.283 . S
O422 Mn396 2.094 . S
O422 C400 1.240 . S
O423 Mn397 2.117 . S
O423 C400 1.264 . S
C424 C417 1.403 . S
C424 C425 1.399 . S
C424 H430 0.929 . S
C425 C405 1.449 . S
C425 C424 1.399 . S
C425 H431 0.930 . S
H426 C406 0.931 . S
H427 C407 0.930 . S
H428 C415 0.931 . S
H429 C416 0.929 . S
H430 C424 0.929 . S
H431 C425 0.930 . S
Mn432 O437 2.095 . S
Mn432 O447 2.162 . S
Mn432 O448 2.297 . S
Mn432 O456 2.385 . S
Mn432 O457 2.209 . S
Mn432 O458 2.094 . S
Mn433 O438 2.121 . S
Mn433 N440 2.257 . S
Mn433 N449 2.282 . S
Mn433 O457 2.215 . S
Mn433 O459 2.117 . S
C434 O456 1.234 . S
C434 O457 1.283 . S
C435 O447 1.281 . S
C435 O448 1.236 . S
C436 O458 1.240 . S
C436 O459 1.264 . S
O437 Mn432 2.095 . S
O437 C446 1.250 . S
O438 Mn433 2.121 . S
O438 C446 1.258 . S
C439 N440 1.326 . S
C439 C443 1.460 . S
C439 H445 0.929 . S
N440 Mn433 2.257 . S
N440 C439 1.326 . S
N440 C444 1.362 . S
C441 C442 1.258 . S
C441 C444 1.431 . S
C441 C461 1.449 . S
C442 C441 1.258 . S
C442 C443 1.477 . S
C442 H462 0.931 . S
C443 C439 1.460 . S
C443 C442 1.477 . S
C443 H463 0.930 . S
C444 N440 1.362 . S
C444 C441 1.431 . S
C444 C454 1.476 . S
H445 C439 0.929 . S
C446 O437 1.250 . S
C446 O438 1.258 . S
O447 Mn432 2.162 . S
O447 C435 1.281 . S
O448 Mn432 2.297 . S
O448 C435 1.236 . S
N449 Mn433 2.282 . S
N449 C450 1.328 . S
N449 C454 1.318 . S
C450 N449 1.328 . S
C450 C451 1.457 . S
C450 H455 0.929 . S
C451 C450 1.457 . S
C451 C452 1.291 . S
C451 H464 0.931 . S
C452 C451 1.291 . S
C452 C453 1.373 . S
C452 H465 0.929 . S
C453 C452 1.373 . S
C453 C454 1.396 . S
C453 C460 1.403 . S
C454 C444 1.476 . S
C454 N449 1.318 . S
C454 C453 1.396 . S
H455 C450 0.929 . S
O456 Mn432 2.385 . S
O456 C434 1.234 . S
O457 Mn432 2.209 . S
O457 Mn433 2.215 . S
O457 C434 1.283 . S
O458 Mn432 2.094 . S
O458 C436 1.240 . S
O459 Mn433 2.117 . S
O459 C436 1.264 . S
C460 C453 1.403 . S
C460 C461 1.399 . S
C460 H466 0.929 . S
C461 C441 1.449 . S
C461 C460 1.399 . S
C461 H467 0.930 . S
H462 C442 0.931 . S
H463 C443 0.930 . S
H464 C451 0.931 . S
H465 C452 0.929 . S
H466 C460 0.929 . S
H467 C461 0.930 . S
Mn468 O473 2.095 . S
Mn468 O483 2.162 . S
Mn468 O484 2.297 . S
Mn468 O492 2.385 . S
Mn468 O493 2.209 . S
Mn468 O494 2.094 . S
Mn469 O474 2.121 . S
Mn469 N476 2.257 . S
Mn469 N485 2.282 . S
Mn469 O493 2.215 . S
Mn469 O495 2.117 . S
C470 O492 1.234 . S
C470 O493 1.283 . S
C471 O483 1.281 . S
C471 O484 1.236 . S
C472 O494 1.240 . S
C472 O495 1.264 . S
O473 Mn468 2.095 . S
O473 C482 1.250 . S
O474 Mn469 2.121 . S
O474 C482 1.258 . S
C475 N476 1.326 . S
C475 C479 1.460 . S
C475 H481 0.929 . S
N476 Mn469 2.257 . S
N476 C475 1.326 . S
N476 C480 1.362 . S
C477 C478 1.258 . S
C477 C480 1.431 . S
C477 C497 1.449 . S
C478 C477 1.258 . S
C478 C479 1.477 . S
C478 H498 0.931 . S
C479 C475 1.460 . S
C479 C478 1.477 . S
C479 H499 0.930 . S
C480 N476 1.362 . S
C480 C477 1.431 . S
C480 C490 1.476 . S
H481 C475 0.929 . S
C482 O473 1.250 . S
C482 O474 1.258 . S
O483 Mn468 2.162 . S
O483 C471 1.281 . S
O484 Mn468 2.297 . S
O484 C471 1.236 . S
N485 Mn469 2.282 . S
N485 C486 1.328 . S
N485 C490 1.318 . S
C486 N485 1.328 . S
C486 C487 1.457 . S
C486 H491 0.929 . S
C487 C486 1.457 . S
C487 C488 1.291 . S
C487 H500 0.931 . S
C488 C487 1.291 . S
C488 C489 1.373 . S
C488 H501 0.929 . S
C489 C488 1.373 . S
C489 C490 1.396 . S
C489 C496 1.403 . S
C490 C480 1.476 . S
C490 N485 1.318 . S
C490 C489 1.396 . S
H491 C486 0.929 . S
O492 Mn468 2.385 . S
O492 C470 1.234 . S
O493 Mn468 2.209 . S
O493 Mn469 2.215 . S
O493 C470 1.283 . S
O494 Mn468 2.094 . S
O494 C472 1.240 . S
O495 Mn469 2.117 . S
O495 C472 1.264 . S
C496 C489 1.403 . S
C496 C497 1.399 . S
C496 H502 0.929 . S
C497 C477 1.449 . S
C497 C496 1.399 . S
C497 H503 0.930 . S
H498 C478 0.931 . S
H499 C479 0.930 . S
H500 C487 0.931 . S
H501 C488 0.929 . S
H502 C496 0.929 . S
H503 C497 0.930 . S
Mn504 O509 2.095 . S
Mn504 O519 2.162 . S
Mn504 O520 2.297 . S
Mn504 O528 2.385 . S
Mn504 O529 2.209 . S
Mn504 O530 2.094 . S
Mn505 O510 2.121 . S
Mn505 N512 2.257 . S
Mn505 N521 2.282 . S
Mn505 O529 2.215 . S
Mn505 O531 2.117 . S
C506 O528 1.234 . S
C506 O529 1.283 . S
C507 O519 1.281 . S
C507 O520 1.236 . S
C508 O530 1.240 . S
C508 O531 1.264 . S
O509 Mn504 2.095 . S
O509 C518 1.250 . S
O510 Mn505 2.121 . S
O510 C518 1.258 . S
C511 N512 1.326 . S
C511 C515 1.460 . S
C511 H517 0.929 . S
N512 Mn505 2.257 . S
N512 C511 1.326 . S
N512 C516 1.362 . S
C513 C514 1.258 . S
C513 C516 1.431 . S
C513 C533 1.449 . S
C514 C513 1.258 . S
C514 C515 1.477 . S
C514 H534 0.931 . S
C515 C511 1.460 . S
C515 C514 1.477 . S
C515 H535 0.930 . S
C516 N512 1.362 . S
C516 C513 1.431 . S
C516 C526 1.476 . S
H517 C511 0.929 . S
C518 O509 1.250 . S
C518 O510 1.258 . S
O519 Mn504 2.162 . S
O519 C507 1.281 . S
O520 Mn504 2.297 . S
O520 C507 1.236 . S
N521 Mn505 2.282 . S
N521 C522 1.328 . S
N521 C526 1.318 . S
C522 N521 1.328 . S
C522 C523 1.457 . S
C522 H527 0.929 . S
C523 C522 1.457 . S
C523 C524 1.291 . S
C523 H536 0.931 . S
C524 C523 1.291 . S
C524 C525 1.373 . S
C524 H537 0.929 . S
C525 C524 1.373 . S
C525 C526 1.396 . S
C525 C532 1.403 . S
C526 C516 1.476 . S
C526 N521 1.318 . S
C526 C525 1.396 . S
H527 C522 0.929 . S
O528 Mn504 2.385 . S
O528 C506 1.234 . S
O529 Mn504 2.209 . S
O529 Mn505 2.215 . S
O529 C506 1.283 . S
O530 Mn504 2.094 . S
O530 C508 1.240 . S
O531 Mn505 2.117 . S
O531 C508 1.264 . S
C532 C525 1.403 . S
C532 C533 1.399 . S
C532 H538 0.929 . S
C533 C513 1.449 . S
C533 C532 1.399 . S
C533 H539 0.930 . S
H534 C514 0.931 . S
H535 C515 0.930 . S
H536 C523 0.931 . S
H537 C524 0.929 . S
H538 C532 0.929 . S
H539 C533 0.930 . S
Mn540 O545 2.095 . S
Mn540 O555 2.162 . S
Mn540 O556 2.297 . S
Mn540 O564 2.385 . S
Mn540 O565 2.209 . S
Mn540 O566 2.094 . S
Mn541 O546 2.121 . S
Mn541 N548 2.257 . S
Mn541 N557 2.282 . S
Mn541 O565 2.215 . S
Mn541 O567 2.117 . S
C542 O564 1.234 . S
C542 O565 1.283 . S
C543 O555 1.281 . S
C543 O556 1.236 . S
C544 O566 1.240 . S
C544 O567 1.264 . S
O545 Mn540 2.095 . S
O545 C554 1.250 . S
O546 Mn541 2.121 . S
O546 C554 1.258 . S
C547 N548 1.326 . S
C547 C551 1.460 . S
C547 H553 0.929 . S
N548 Mn541 2.257 . S
N548 C547 1.326 . S
N548 C552 1.362 . S
C549 C550 1.258 . S
C549 C552 1.431 . S
C549 C569 1.449 . S
C550 C549 1.258 . S
C550 C551 1.477 . S
C550 H570 0.931 . S
C551 C547 1.460 . S
C551 C550 1.477 . S
C551 H571 0.930 . S
C552 N548 1.362 . S
C552 C549 1.431 . S
C552 C562 1.476 . S
H553 C547 0.929 . S
C554 O545 1.250 . S
C554 O546 1.258 . S
O555 Mn540 2.162 . S
O555 C543 1.281 . S
O556 Mn540 2.297 . S
O556 C543 1.236 . S
N557 Mn541 2.282 . S
N557 C558 1.328 . S
N557 C562 1.318 . S
C558 N557 1.328 . S
C558 C559 1.457 . S
C558 H563 0.929 . S
C559 C558 1.457 . S
C559 C560 1.291 . S
C559 H572 0.931 . S
C560 C559 1.291 . S
C560 C561 1.373 . S
C560 H573 0.929 . S
C561 C560 1.373 . S
C561 C562 1.396 . S
C561 C568 1.403 . S
C562 C552 1.476 . S
C562 N557 1.318 . S
C562 C561 1.396 . S
H563 C558 0.929 . S
O564 Mn540 2.385 . S
O564 C542 1.234 . S
O565 Mn540 2.209 . S
O565 Mn541 2.215 . S
O565 C542 1.283 . S
O566 Mn540 2.094 . S
O566 C544 1.240 . S
O567 Mn541 2.117 . S
O567 C544 1.264 . S
C568 C561 1.403 . S
C568 C569 1.399 . S
C568 H574 0.929 . S
C569 C549 1.449 . S
C569 C568 1.399 . S
C569 H575 0.930 . S
H570 C550 0.931 . S
H571 C551 0.930 . S
H572 C559 0.931 . S
H573 C560 0.929 . S
H574 C568 0.929 . S
H575 C569 0.930 . S
Mn576 O581 2.095 . S
Mn576 O591 2.162 . S
Mn576 O592 2.297 . S
Mn576 O600 2.385 . S
Mn576 O601 2.209 . S
Mn576 O602 2.094 . S
Mn577 O582 2.121 . S
Mn577 N584 2.257 . S
Mn577 N593 2.282 . S
Mn577 O601 2.215 . S
Mn577 O603 2.117 . S
C578 O600 1.234 . S
C578 O601 1.283 . S
C579 O591 1.281 . S
C579 O592 1.236 . S
C580 O602 1.240 . S
C580 O603 1.264 . S
O581 Mn576 2.095 . S
O581 C590 1.250 . S
O582 Mn577 2.121 . S
O582 C590 1.258 . S
C583 N584 1.326 . S
C583 C587 1.460 . S
C583 H589 0.929 . S
N584 Mn577 2.257 . S
N584 C583 1.326 . S
N584 C588 1.362 . S
C585 C586 1.258 . S
C585 C588 1.431 . S
C585 C605 1.449 . S
C586 C585 1.258 . S
C586 C587 1.477 . S
C586 H606 0.931 . S
C587 C583 1.460 . S
C587 C586 1.477 . S
C587 H607 0.930 . S
C588 N584 1.362 . S
C588 C585 1.431 . S
C588 C598 1.476 . S
H589 C583 0.929 . S
C590 O581 1.250 . S
C590 O582 1.258 . S
O591 Mn576 2.162 . S
O591 C579 1.281 . S
O592 Mn576 2.297 . S
O592 C579 1.236 . S
N593 Mn577 2.282 . S
N593 C594 1.328 . S
N593 C598 1.318 . S
C594 N593 1.328 . S
C594 C595 1.457 . S
C594 H599 0.929 . S
C595 C594 1.457 . S
C595 C596 1.291 . S
C595 H608 0.931 . S
C596 C595 1.291 . S
C596 C597 1.373 . S
C596 H609 0.929 . S
C597 C596 1.373 . S
C597 C598 1.396 . S
C597 C604 1.403 . S
C598 C588 1.476 . S
C598 N593 1.318 . S
C598 C597 1.396 . S
H599 C594 0.929 . S
O600 Mn576 2.385 . S
O600 C578 1.234 . S
O601 Mn576 2.209 . S
O601 Mn577 2.215 . S
O601 C578 1.283 . S
O602 Mn576 2.094 . S
O602 C580 1.240 . S
O603 Mn577 2.117 . S
O603 C580 1.264 . S
C604 C597 1.403 . S
C604 C605 1.399 . S
C604 H610 0.929 . S
C605 C585 1.449 . S
C605 C604 1.399 . S
C605 H611 0.930 . S
H606 C586 0.931 . S
H607 C587 0.930 . S
H608 C595 0.931 . S
H609 C596 0.929 . S
H610 C604 0.929 . S
H611 C605 0.930 . S
Mn612 O617 2.095 . S
Mn612 O627 2.162 . S
Mn612 O628 2.297 . S
Mn612 O636 2.385 1_545 S
Mn612 O637 2.209 1_545 S
Mn612 O638 2.094 . S
Mn613 O618 2.121 . S
Mn613 N620 2.257 . S
Mn613 N629 2.282 . S
Mn613 O637 2.215 . S
Mn613 O639 2.117 . S
C614 O636 1.234 . S
C614 O637 1.283 . S
C615 O627 1.281 . S
C615 O628 1.236 . S
C616 O638 1.240 . S
C616 O639 1.264 1_545 S
O617 Mn612 2.095 . S
O617 C626 1.250 1_545 S
O618 Mn613 2.121 . S
O618 C626 1.258 . S
C619 N620 1.326 . S
C619 C623 1.460 . S
C619 H625 0.929 . S
N620 Mn613 2.257 . S
N620 C619 1.326 . S
N620 C624 1.362 . S
C621 C622 1.258 . S
C621 C624 1.431 . S
C621 C641 1.449 . S
C622 C621 1.258 . S
C622 C623 1.477 . S
C622 H642 0.931 . S
C623 C619 1.460 . S
C623 C622 1.477 . S
C623 H643 0.930 . S
C624 N620 1.362 . S
C624 C621 1.431 . S
C624 C634 1.476 . S
H625 C619 0.929 . S
C626 O617 1.250 1_565 S
C626 O618 1.258 . S
O627 Mn612 2.162 . S
O627 C615 1.281 . S
O628 Mn612 2.297 . S
O628 C615 1.236 . S
N629 Mn613 2.282 . S
N629 C630 1.328 . S
N629 C634 1.318 . S
C630 N629 1.328 . S
C630 C631 1.457 . S
C630 H635 0.929 . S
C631 C630 1.457 . S
C631 C632 1.291 . S
C631 H644 0.931 . S
C632 C631 1.291 . S
C632 C633 1.373 . S
C632 H645 0.929 . S
C633 C632 1.373 . S
C633 C634 1.396 . S
C633 C640 1.403 . S
C634 C624 1.476 . S
C634 N629 1.318 . S
C634 C633 1.396 . S
H635 C630 0.929 . S
O636 Mn612 2.385 1_565 S
O636 C614 1.234 . S
O637 Mn612 2.209 1_565 S
O637 Mn613 2.215 . S
O637 C614 1.283 . S
O638 Mn612 2.094 . S
O638 C616 1.240 . S
O639 Mn613 2.117 . S
O639 C616 1.264 1_565 S
C640 C633 1.403 . S
C640 C641 1.399 . S
C640 H646 0.929 . S
C641 C621 1.449 . S
C641 C640 1.399 . S
C641 H647 0.930 . S
H642 C622 0.931 . S
H643 C623 0.930 . S
H644 C631 0.931 . S
H645 C632 0.929 . S
H646 C640 0.929 . S
H647 C641 0.930 . S
Mn648 O653 2.095 . S
Mn648 O663 2.162 . S
Mn648 O664 2.297 . S
Mn648 O672 2.385 . S
Mn648 O673 2.209 . S
Mn648 O674 2.094 . S
Mn649 O654 2.121 . S
Mn649 N656 2.257 . S
Mn649 N665 2.282 . S
Mn649 O673 2.215 . S
Mn649 O675 2.117 . S
C650 O672 1.234 . S
C650 O673 1.283 . S
C651 O663 1.281 . S
C651 O664 1.236 . S
C652 O674 1.240 . S
C652 O675 1.264 . S
O653 Mn648 2.095 . S
O653 C662 1.250 . S
O654 Mn649 2.121 . S
O654 C662 1.258 . S
C655 N656 1.326 . S
C655 C659 1.460 . S
C655 H661 0.929 . S
N656 Mn649 2.257 . S
N656 C655 1.326 . S
N656 C660 1.362 . S
C657 C658 1.258 . S
C657 C660 1.431 . S
C657 C677 1.449 . S
C658 C657 1.258 . S
C658 C659 1.477 . S
C658 H678 0.931 . S
C659 C655 1.460 . S
C659 C658 1.477 . S
C659 H679 0.930 . S
C660 N656 1.362 . S
C660 C657 1.431 . S
C660 C670 1.476 . S
H661 C655 0.929 . S
C662 O653 1.250 . S
C662 O654 1.258 . S
O663 Mn648 2.162 . S
O663 C651 1.281 . S
O664 Mn648 2.297 . S
O664 C651 1.236 . S
N665 Mn649 2.282 . S
N665 C666 1.328 . S
N665 C670 1.318 . S
C666 N665 1.328 . S
C666 C667 1.457 . S
C666 H671 0.929 . S
C667 C666 1.457 . S
C667 C668 1.291 . S
C667 H680 0.931 . S
C668 C667 1.291 . S
C668 C669 1.373 . S
C668 H681 0.929 . S
C669 C668 1.373 . S
C669 C670 1.396 . S
C669 C676 1.403 . S
C670 C660 1.476 . S
C670 N665 1.318 . S
C670 C669 1.396 . S
H671 C666 0.929 . S
O672 Mn648 2.385 . S
O672 C650 1.234 . S
O673 Mn648 2.209 . S
O673 Mn649 2.215 . S
O673 C650 1.283 . S
O674 Mn648 2.094 . S
O674 C652 1.240 . S
O675 Mn649 2.117 . S
O675 C652 1.264 . S
C676 C669 1.403 . S
C676 C677 1.399 . S
C676 H682 0.929 . S
C677 C657 1.449 . S
C677 C676 1.399 . S
C677 H683 0.930 . S
H678 C658 0.931 . S
H679 C659 0.930 . S
H680 C667 0.931 . S
H681 C668 0.929 . S
H682 C676 0.929 . S
H683 C677 0.930 . S
Mn684 O689 2.095 . S
Mn684 O699 2.162 . S
Mn684 O700 2.297 . S
Mn684 O708 2.385 1_565 S
Mn684 O709 2.209 1_565 S
Mn684 O710 2.094 . S
Mn685 O690 2.121 . S
Mn685 N692 2.257 . S
Mn685 N701 2.282 . S
Mn685 O709 2.215 . S
Mn685 O711 2.117 . S
C686 O708 1.234 . S
C686 O709 1.283 . S
C687 O699 1.281 . S
C687 O700 1.236 . S
C688 O710 1.240 . S
C688 O711 1.264 1_565 S
O689 Mn684 2.095 . S
O689 C698 1.250 1_565 S
O690 Mn685 2.121 . S
O690 C698 1.258 . S
C691 N692 1.326 . S
C691 C695 1.460 . S
C691 H697 0.929 . S
N692 Mn685 2.257 . S
N692 C691 1.326 . S
N692 C696 1.362 . S
C693 C694 1.258 . S
C693 C696 1.431 . S
C693 C713 1.449 . S
C694 C693 1.258 . S
C694 C695 1.477 . S
C694 H714 0.931 . S
C695 C691 1.460 . S
C695 C694 1.477 . S
C695 H715 0.930 . S
C696 N692 1.362 . S
C696 C693 1.431 . S
C696 C706 1.476 . S
H697 C691 0.929 . S
C698 O689 1.250 1_545 S
C698 O690 1.258 . S
O699 Mn684 2.162 . S
O699 C687 1.281 . S
O700 Mn684 2.297 . S
O700 C687 1.236 . S
N701 Mn685 2.282 . S
N701 C702 1.328 . S
N701 C706 1.318 . S
C702 N701 1.328 . S
C702 C703 1.457 . S
C702 H707 0.929 . S
C703 C702 1.457 . S
C703 C704 1.291 . S
C703 H716 0.931 . S
C704 C703 1.291 . S
C704 C705 1.373 . S
C704 H717 0.929 . S
C705 C704 1.373 . S
C705 C706 1.396 . S
C705 C712 1.403 . S
C706 C696 1.476 . S
C706 N701 1.318 . S
C706 C705 1.396 . S
H707 C702 0.929 . S
O708 Mn684 2.385 1_545 S
O708 C686 1.234 . S
O709 Mn684 2.209 1_545 S
O709 Mn685 2.215 . S
O709 C686 1.283 . S
O710 Mn684 2.094 . S
O710 C688 1.240 . S
O711 Mn685 2.117 . S
O711 C688 1.264 1_545 S
C712 C705 1.403 . S
C712 C713 1.399 . S
C712 H718 0.929 . S
C713 C693 1.449 . S
C713 C712 1.399 . S
C713 H719 0.930 . S
H714 C694 0.931 . S
H715 C695 0.930 . S
H716 C703 0.931 . S
H717 C704 0.929 . S
H718 C712 0.929 . S
H719 C713 0.930 . S
Mn720 O725 2.095 . S
Mn720 O735 2.162 . S
Mn720 O736 2.297 . S
Mn720 O744 2.385 . S
Mn720 O745 2.209 . S
Mn720 O746 2.094 . S
Mn721 O726 2.121 . S
Mn721 N728 2.257 . S
Mn721 N737 2.282 . S
Mn721 O745 2.215 . S
Mn721 O747 2.117 . S
C722 O744 1.234 . S
C722 O745 1.283 . S
C723 O735 1.281 . S
C723 O736 1.236 . S
C724 O746 1.240 . S
C724 O747 1.264 . S
O725 Mn720 2.095 . S
O725 C734 1.250 . S
O726 Mn721 2.121 . S
O726 C734 1.258 . S
C727 N728 1.326 . S
C727 C731 1.460 . S
C727 H733 0.929 . S
N728 Mn721 2.257 . S
N728 C727 1.326 . S
N728 C732 1.362 . S
C729 C730 1.258 . S
C729 C732 1.431 . S
C729 C749 1.449 . S
C730 C729 1.258 . S
C730 C731 1.477 . S
C730 H750 0.931 . S
C731 C727 1.460 . S
C731 C730 1.477 . S
C731 H751 0.930 . S
C732 N728 1.362 . S
C732 C729 1.431 . S
C732 C742 1.476 . S
H733 C727 0.929 . S
C734 O725 1.250 . S
C734 O726 1.258 . S
O735 Mn720 2.162 . S
O735 C723 1.281 . S
O736 Mn720 2.297 . S
O736 C723 1.236 . S
N737 Mn721 2.282 . S
N737 C738 1.328 . S
N737 C742 1.318 . S
C738 N737 1.328 . S
C738 C739 1.457 . S
C738 H743 0.929 . S
C739 C738 1.457 . S
C739 C740 1.291 . S
C739 H752 0.931 . S
C740 C739 1.291 . S
C740 C741 1.373 . S
C740 H753 0.929 . S
C741 C740 1.373 . S
C741 C742 1.396 . S
C741 C748 1.403 . S
C742 C732 1.476 . S
C742 N737 1.318 . S
C742 C741 1.396 . S
H743 C738 0.929 . S
O744 Mn720 2.385 . S
O744 C722 1.234 . S
O745 Mn720 2.209 . S
O745 Mn721 2.215 . S
O745 C722 1.283 . S
O746 Mn720 2.094 . S
O746 C724 1.240 . S
O747 Mn721 2.117 . S
O747 C724 1.264 . S
C748 C741 1.403 . S
C748 C749 1.399 . S
C748 H754 0.929 . S
C749 C729 1.449 . S
C749 C748 1.399 . S
C749 H755 0.930 . S
H750 C730 0.931 . S
H751 C731 0.930 . S
H752 C739 0.931 . S
H753 C740 0.929 . S
H754 C748 0.929 . S
H755 C749 0.930 . S
Mn756 O761 2.095 . S
Mn756 O771 2.162 . S
Mn756 O772 2.297 . S
Mn756 O780 2.385 1_554 S
Mn756 O781 2.209 1_554 S
Mn756 O782 2.094 . S
Mn757 O762 2.121 . S
Mn757 N764 2.257 . S
Mn757 N773 2.282 . S
Mn757 O781 2.215 . S
Mn757 O783 2.117 . S
C758 O780 1.234 . S
C758 O781 1.283 . S
C759 O771 1.281 . S
C759 O772 1.236 . S
C760 O782 1.240 . S
C760 O783 1.264 1_554 S
O761 Mn756 2.095 . S
O761 C770 1.250 1_554 S
O762 Mn757 2.121 . S
O762 C770 1.258 . S
C763 N764 1.326 . S
C763 C767 1.460 . S
C763 H769 0.929 . S
N764 Mn757 2.257 . S
N764 C763 1.326 . S
N764 C768 1.362 . S
C765 C766 1.258 . S
C765 C768 1.431 . S
C765 C785 1.449 . S
C766 C765 1.258 . S
C766 C767 1.477 . S
C766 H786 0.931 . S
C767 C763 1.460 . S
C767 C766 1.477 . S
C767 H787 0.930 . S
C768 N764 1.362 . S
C768 C765 1.431 . S
C768 C778 1.476 . S
H769 C763 0.929 . S
C770 O761 1.250 1_556 S
C770 O762 1.258 . S
O771 Mn756 2.162 . S
O771 C759 1.281 . S
O772 Mn756 2.297 . S
O772 C759 1.236 . S
N773 Mn757 2.282 . S
N773 C774 1.328 . S
N773 C778 1.318 . S
C774 N773 1.328 . S
C774 C775 1.457 . S
C774 H779 0.929 . S
C775 C774 1.457 . S
C775 C776 1.291 . S
C775 H788 0.931 . S
C776 C775 1.291 . S
C776 C777 1.373 . S
C776 H789 0.929 . S
C777 C776 1.373 . S
C777 C778 1.396 . S
C777 C784 1.403 . S
C778 C768 1.476 . S
C778 N773 1.318 . S
C778 C777 1.396 . S
H779 C774 0.929 . S
O780 Mn756 2.385 1_556 S
O780 C758 1.234 . S
O781 Mn756 2.209 1_556 S
O781 Mn757 2.215 . S
O781 C758 1.283 . S
O782 Mn756 2.094 . S
O782 C760 1.240 . S
O783 Mn757 2.117 . S
O783 C760 1.264 1_556 S
C784 C777 1.403 . S
C784 C785 1.399 . S
C784 H790 0.929 . S
C785 C765 1.449 . S
C785 C784 1.399 . S
C785 H791 0.930 . S
H786 C766 0.931 . S
H787 C767 0.930 . S
H788 C775 0.931 . S
H789 C776 0.929 . S
H790 C784 0.929 . S
H791 C785 0.930 . S
Mn792 O797 2.095 . S
Mn792 O807 2.162 . S
Mn792 O808 2.297 . S
Mn792 O816 2.385 1_554 S
Mn792 O817 2.209 1_554 S
Mn792 O818 2.094 . S
Mn793 O798 2.121 . S
Mn793 N800 2.257 . S
Mn793 N809 2.282 . S
Mn793 O817 2.215 . S
Mn793 O819 2.117 . S
C794 O816 1.234 . S
C794 O817 1.283 . S
C795 O807 1.281 . S
C795 O808 1.236 . S
C796 O818 1.240 . S
C796 O819 1.264 1_554 S
O797 Mn792 2.095 . S
O797 C806 1.250 1_554 S
O798 Mn793 2.121 . S
O798 C806 1.258 . S
C799 N800 1.326 . S
C799 C803 1.460 . S
C799 H805 0.929 . S
N800 Mn793 2.257 . S
N800 C799 1.326 . S
N800 C804 1.362 . S
C801 C802 1.258 . S
C801 C804 1.431 . S
C801 C821 1.449 . S
C802 C801 1.258 . S
C802 C803 1.477 . S
C802 H822 0.931 . S
C803 C799 1.460 . S
C803 C802 1.477 . S
C803 H823 0.930 . S
C804 N800 1.362 . S
C804 C801 1.431 . S
C804 C814 1.476 . S
H805 C799 0.929 . S
C806 O797 1.250 1_556 S
C806 O798 1.258 . S
O807 Mn792 2.162 . S
O807 C795 1.281 . S
O808 Mn792 2.297 . S
O808 C795 1.236 . S
N809 Mn793 2.282 . S
N809 C810 1.328 . S
N809 C814 1.318 . S
C810 N809 1.328 . S
C810 C811 1.457 . S
C810 H815 0.929 . S
C811 C810 1.457 . S
C811 C812 1.291 . S
C811 H824 0.931 . S
C812 C811 1.291 . S
C812 C813 1.373 . S
C812 H825 0.929 . S
C813 C812 1.373 . S
C813 C814 1.396 . S
C813 C820 1.403 . S
C814 C804 1.476 . S
C814 N809 1.318 . S
C814 C813 1.396 . S
H815 C810 0.929 . S
O816 Mn792 2.385 1_556 S
O816 C794 1.234 . S
O817 Mn792 2.209 1_556 S
O817 Mn793 2.215 . S
O817 C794 1.283 . S
O818 Mn792 2.094 . S
O818 C796 1.240 . S
O819 Mn793 2.117 . S
O819 C796 1.264 1_556 S
C820 C813 1.403 . S
C820 C821 1.399 . S
C820 H826 0.929 . S
C821 C801 1.449 . S
C821 C820 1.399 . S
C821 H827 0.930 . S
H822 C802 0.931 . S
H823 C803 0.930 . S
H824 C811 0.931 . S
H825 C812 0.929 . S
H826 C820 0.929 . S
H827 C821 0.930 . S
Mn828 O833 2.095 . S
Mn828 O843 2.162 . S
Mn828 O844 2.297 . S
Mn828 O852 2.385 1_556 S
Mn828 O853 2.209 1_556 S
Mn828 O854 2.094 . S
Mn829 O834 2.121 . S
Mn829 N836 2.257 . S
Mn829 N845 2.282 . S
Mn829 O853 2.215 . S
Mn829 O855 2.117 . S
C830 O852 1.234 . S
C830 O853 1.283 . S
C831 O843 1.281 . S
C831 O844 1.236 . S
C832 O854 1.240 . S
C832 O855 1.264 1_556 S
O833 Mn828 2.095 . S
O833 C842 1.250 1_556 S
O834 Mn829 2.121 . S
O834 C842 1.258 . S
C835 N836 1.326 . S
C835 C839 1.460 . S
C835 H841 0.929 . S
N836 Mn829 2.257 . S
N836 C835 1.326 . S
N836 C840 1.362 . S
C837 C838 1.258 . S
C837 C840 1.431 . S
C837 C857 1.449 . S
C838 C837 1.258 . S
C838 C839 1.477 . S
C838 H858 0.931 . S
C839 C835 1.460 . S
C839 C838 1.477 . S
C839 H859 0.930 . S
C840 N836 1.362 . S
C840 C837 1.431 . S
C840 C850 1.476 . S
H841 C835 0.929 . S
C842 O833 1.250 1_554 S
C842 O834 1.258 . S
O843 Mn828 2.162 . S
O843 C831 1.281 . S
O844 Mn828 2.297 . S
O844 C831 1.236 . S
N845 Mn829 2.282 . S
N845 C846 1.328 . S
N845 C850 1.318 . S
C846 N845 1.328 . S
C846 C847 1.457 . S
C846 H851 0.929 . S
C847 C846 1.457 . S
C847 C848 1.291 . S
C847 H860 0.931 . S
C848 C847 1.291 . S
C848 C849 1.373 . S
C848 H861 0.929 . S
C849 C848 1.373 . S
C849 C850 1.396 . S
C849 C856 1.403 . S
C850 C840 1.476 . S
C850 N845 1.318 . S
C850 C849 1.396 . S
H851 C846 0.929 . S
O852 Mn828 2.385 1_554 S
O852 C830 1.234 . S
O853 Mn828 2.209 1_554 S
O853 Mn829 2.215 . S
O853 C830 1.283 . S
O854 Mn828 2.094 . S
O854 C832 1.240 . S
O855 Mn829 2.117 . S
O855 C832 1.264 1_554 S
C856 C849 1.403 . S
C856 C857 1.399 . S
C856 H862 0.929 . S
C857 C837 1.449 . S
C857 C856 1.399 . S
C857 H863 0.930 . S
H858 C838 0.931 . S
H859 C839 0.930 . S
H860 C847 0.931 . S
H861 C848 0.929 . S
H862 C856 0.929 . S
H863 C857 0.930 . S
C864 C865 1.349 . S
C864 C866 1.327 . S
C864 H889 0.950 . S
C865 C864 1.349 . S
C865 C881 1.349 . S
C866 C864 1.327 . S
C866 C885 1.429 . S
C866 H890 0.950 . S
C867 C884 1.574 . S
C867 C886 1.368 . S
C867 H891 0.949 . S
H868 C872 0.949 . S
C869 C870 1.349 . S
C869 C871 1.327 . S
C869 H892 0.950 . S
C870 C869 1.349 . S
C870 C882 1.349 . S
C871 C869 1.327 . S
C871 C887 1.429 . S
C871 H893 0.950 . S
C872 H868 0.949 . S
C872 C880 1.574 . S
C872 C888 1.368 . S
H873 C881 0.950 . S
H874 C879 0.950 . S
H875 C880 0.949 . S
H876 C882 0.950 . S
H877 C883 0.950 . S
H878 C884 0.949 . S
C879 H874 0.950 . S
C879 C881 1.327 . S
C879 C885 1.429 . S
C880 C872 1.574 . S
C880 H875 0.949 . S
C880 C886 1.368 . S
C881 C865 1.349 . S
C881 H873 0.950 . S
C881 C879 1.327 . S
C882 C870 1.349 . S
C882 H876 0.950 . S
C882 C883 1.327 . S
C883 H877 0.950 . S
C883 C882 1.327 . S
C883 C887 1.429 . S
C884 C867 1.574 . S
C884 H878 0.949 . S
C884 C888 1.368 . S
C885 C866 1.429 . S
C885 C879 1.429 . S
C885 C886 1.523 . S
C886 C867 1.368 . S
C886 C880 1.368 . S
C886 C885 1.523 . S
C887 C871 1.429 . S
C887 C883 1.429 . S
C887 C888 1.523 . S
C888 C872 1.368 . S
C888 C884 1.368 . S
C888 C887 1.523 . S
H889 C864 0.950 . S
H890 C866 0.950 . S
H891 C867 0.949 . S
H892 C869 0.950 . S
H893 C871 0.950 . S
C894 C895 1.349 . S
C894 C896 1.327 . S
C894 H919 0.950 . S
C895 C894 1.349 . S
C895 C911 1.349 . S
C896 C894 1.327 . S
C896 C915 1.429 . S
C896 H920 0.950 . S
C897 C914 1.574 . S
C897 C916 1.368 . S
C897 H921 0.949 . S
H898 C902 0.949 . S
C899 C900 1.349 . S
C899 C901 1.327 . S
C899 H922 0.950 . S
C900 C899 1.349 . S
C900 C912 1.349 . S
C901 C899 1.327 . S
C901 C917 1.429 . S
C901 H923 0.950 . S
C902 H898 0.949 . S
C902 C910 1.574 . S
C902 C918 1.368 . S
H903 C911 0.950 . S
H904 C909 0.950 . S
H905 C910 0.949 . S
H906 C912 0.950 . S
H907 C913 0.950 . S
H908 C914 0.949 . S
C909 H904 0.950 . S
C909 C911 1.327 . S
C909 C915 1.429 . S
C910 C902 1.574 . S
C910 H905 0.949 . S
C910 C916 1.368 . S
C911 C895 1.349 . S
C911 H903 0.950 . S
C911 C909 1.327 . S
C912 C900 1.349 . S
C912 H906 0.950 . S
C912 C913 1.327 . S
C913 H907 0.950 . S
C913 C912 1.327 . S
C913 C917 1.429 . S
C914 C897 1.574 . S
C914 H908 0.949 . S
C914 C918 1.368 . S
C915 C896 1.429 . S
C915 C909 1.429 . S
C915 C916 1.523 . S
C916 C897 1.368 . S
C916 C910 1.368 . S
C916 C915 1.523 . S
C917 C901 1.429 . S
C917 C913 1.429 . S
C917 C918 1.523 . S
C918 C902 1.368 . S
C918 C914 1.368 . S
C918 C917 1.523 . S
H919 C894 0.950 . S
H920 C896 0.950 . S
H921 C897 0.949 . S
H922 C899 0.950 . S
H923 C901 0.950 . S
C924 C925 1.349 . S
C924 C926 1.327 . S
C924 H949 0.950 . S
C925 C924 1.349 . S
C925 C941 1.349 . S
C926 C924 1.327 . S
C926 C945 1.429 . S
C926 H950 0.950 . S
C927 C944 1.574 . S
C927 C946 1.368 . S
C927 H951 0.949 . S
H928 C932 0.949 . S
C929 C930 1.349 . S
C929 C931 1.327 . S
C929 H952 0.950 . S
C930 C929 1.349 . S
C930 C942 1.349 . S
C931 C929 1.327 . S
C931 C947 1.429 . S
C931 H953 0.950 . S
C932 H928 0.949 . S
C932 C940 1.574 . S
C932 C948 1.368 . S
H933 C941 0.950 . S
H934 C939 0.950 . S
H935 C940 0.949 . S
H936 C942 0.950 . S
H937 C943 0.950 1_554 S
H938 C944 0.949 1_556 S
C939 H934 0.950 . S
C939 C941 1.327 . S
C939 C945 1.429 . S
C940 C932 1.574 . S
C940 H935 0.949 . S
C940 C946 1.368 . S
C941 C925 1.349 . S
C941 H933 0.950 . S
C941 C939 1.327 . S
C942 C930 1.349 . S
C942 H936 0.950 . S
C942 C943 1.327 . S
C943 H937 0.950 1_556 S
C943 C942 1.327 . S
C943 C947 1.429 . S
C944 C927 1.574 . S
C944 H938 0.949 1_554 S
C944 C948 1.368 . S
C945 C926 1.429 . S
C945 C939 1.429 . S
C945 C946 1.523 . S
C946 C927 1.368 . S
C946 C940 1.368 . S
C946 C945 1.523 . S
C947 C931 1.429 . S
C947 C943 1.429 . S
C947 C948 1.523 1_556 S
C948 C932 1.368 . S
C948 C944 1.368 . S
C948 C947 1.523 1_554 S
H949 C924 0.950 . S
H950 C926 0.950 . S
H951 C927 0.949 . S
H952 C929 0.950 . S
H953 C931 0.950 . S
C954 C955 1.349 . S
C954 C956 1.327 . S
C954 H979 0.950 . S
C955 C954 1.349 . S
C955 C971 1.349 . S
C956 C954 1.327 . S
C956 C975 1.429 . S
C956 H980 0.950 . S
C957 C974 1.574 . S
C957 C976 1.368 . S
C957 H981 0.949 . S
H958 C962 0.949 1_556 S
C959 C960 1.349 . S
C959 C961 1.327 . S
C959 H982 0.950 . S
C960 C959 1.349 . S
C960 C972 1.349 . S
C961 C959 1.327 . S
C961 C977 1.429 . S
C961 H983 0.950 . S
C962 H958 0.949 1_554 S
C962 C970 1.574 . S
C962 C978 1.368 . S
H963 C971 0.950 . S
H964 C969 0.950 . S
H965 C970 0.949 . S
H966 C972 0.950 . S
H967 C973 0.950 . S
H968 C974 0.949 . S
C969 H964 0.950 . S
C969 C971 1.327 . S
C969 C975 1.429 . S
C970 C962 1.574 . S
C970 H965 0.949 . S
C970 C976 1.368 . S
C971 C955 1.349 . S
C971 H963 0.950 . S
C971 C969 1.327 . S
C972 C960 1.349 . S
C972 H966 0.950 . S
C972 C973 1.327 . S
C973 H967 0.950 . S
C973 C972 1.327 . S
C973 C977 1.429 . S
C974 C957 1.574 . S
C974 H968 0.949 . S
C974 C978 1.368 . S
C975 C956 1.429 . S
C975 C969 1.429 . S
C975 C976 1.523 . S
C976 C957 1.368 . S
C976 C970 1.368 . S
C976 C975 1.523 . S
C977 C961 1.429 . S
C977 C973 1.429 . S
C977 C978 1.523 1_556 S
C978 C962 1.368 . S
C978 C974 1.368 . S
C978 C977 1.523 1_554 S
H979 C954 0.950 . S
H980 C956 0.950 . S
H981 C957 0.949 . S
H982 C959 0.950 . S
H983 C961 0.950 . S
C984 C985 1.349 . S
C984 C986 1.327 . S
C984 H1009 0.950 . S
C985 C984 1.349 . S
C985 C1001 1.349 . S
C986 C984 1.327 . S
C986 C1005 1.429 . S
C986 H1010 0.950 . S
C987 C1004 1.574 . S
C987 C1006 1.368 . S
C987 H1011 0.949 . S
H988 C992 0.949 . S
C989 C990 1.349 . S
C989 C991 1.327 . S
C989 H1012 0.950 . S
C990 C989 1.349 . S
C990 C1002 1.349 . S
C991 C989 1.327 . S
C991 C1007 1.429 . S
C991 H1013 0.950 . S
C992 H988 0.949 . S
C992 C1000 1.574 . S
C992 C1008 1.368 . S
H993 C1001 0.950 . S
H994 C999 0.950 . S
H995 C1000 0.949 . S
H996 C1002 0.950 . S
H997 C1003 0.950 . S
H998 C1004 0.949 . S
C999 H994 0.950 . S
C999 C1001 1.327 . S
C999 C1005 1.429 . S
C1000 C992 1.574 . S
C1000 H995 0.949 . S
C1000 C1006 1.368 . S
C1001 C985 1.349 . S
C1001 H993 0.950 . S
C1001 C999 1.327 . S
C1002 C990 1.349 . S
C1002 H996 0.950 . S
C1002 C1003 1.327 . S
C1003 H997 0.950 . S
C1003 C1002 1.327 . S
C1003 C1007 1.429 . S
C1004 C987 1.574 . S
C1004 H998 0.949 . S
C1004 C1008 1.368 . S
C1005 C986 1.429 . S
C1005 C999 1.429 . S
C1005 C1006 1.523 . S
C1006 C987 1.368 . S
C1006 C1000 1.368 . S
C1006 C1005 1.523 . S
C1007 C991 1.429 . S
C1007 C1003 1.429 . S
C1007 C1008 1.523 . S
C1008 C992 1.368 . S
C1008 C1004 1.368 . S
C1008 C1007 1.523 . S
H1009 C984 0.950 . S
H1010 C986 0.950 . S
H1011 C987 0.949 . S
H1012 C989 0.950 . S
H1013 C991 0.950 . S
C1014 C1015 1.349 . S
C1014 C1016 1.327 . S
C1014 H1039 0.950 . S
C1015 C1014 1.349 . S
C1015 C1031 1.349 . S
C1016 C1014 1.327 . S
C1016 C1035 1.429 . S
C1016 H1040 0.950 . S
C1017 C1034 1.574 . S
C1017 C1036 1.368 . S
C1017 H1041 0.949 . S
H1018 C1022 0.949 . S
C1019 C1020 1.349 . S
C1019 C1021 1.327 . S
C1019 H1042 0.950 . S
C1020 C1019 1.349 . S
C1020 C1032 1.349 . S
C1021 C1019 1.327 . S
C1021 C1037 1.429 . S
C1021 H1043 0.950 . S
C1022 H1018 0.949 . S
C1022 C1030 1.574 . S
C1022 C1038 1.368 . S
H1023 C1031 0.950 . S
H1024 C1029 0.950 . S
H1025 C1030 0.949 . S
H1026 C1032 0.950 . S
H1027 C1033 0.950 . S
H1028 C1034 0.949 . S
C1029 H1024 0.950 . S
C1029 C1031 1.327 . S
C1029 C1035 1.429 . S
C1030 C1022 1.574 . S
C1030 H1025 0.949 . S
C1030 C1036 1.368 . S
C1031 C1015 1.349 . S
C1031 H1023 0.950 . S
C1031 C1029 1.327 . S
C1032 C1020 1.349 . S
C1032 H1026 0.950 . S
C1032 C1033 1.327 . S
C1033 H1027 0.950 . S
C1033 C1032 1.327 . S
C1033 C1037 1.429 . S
C1034 C1017 1.574 . S
C1034 H1028 0.949 . S
C1034 C1038 1.368 . S
C1035 C1016 1.429 . S
C1035 C1029 1.429 . S
C1035 C1036 1.523 . S
C1036 C1017 1.368 . S
C1036 C1030 1.368 . S
C1036 C1035 1.523 . S
C1037 C1021 1.429 . S
C1037 C1033 1.429 . S
C1037 C1038 1.523 . S
C1038 C1022 1.368 . S
C1038 C1034 1.368 . S
C1038 C1037 1.523 . S
H1039 C1014 0.950 . S
H1040 C1016 0.950 . S
H1041 C1017 0.949 . S
H1042 C1019 0.950 . S
H1043 C1021 0.950 . S
C1044 C1045 1.349 . S
C1044 C1046 1.327 . S
C1044 H1069 0.950 . S
C1045 C1044 1.349 . S
C1045 C1061 1.349 . S
C1046 C1044 1.327 . S
C1046 C1065 1.429 . S
C1046 H1070 0.950 . S
C1047 C1064 1.574 . S
C1047 C1066 1.368 . S
C1047 H1071 0.949 . S
H1048 C1052 0.949 . S
C1049 C1050 1.349 . S
C1049 C1051 1.327 . S
C1049 H1072 0.950 . S
C1050 C1049 1.349 . S
C1050 C1062 1.349 . S
C1051 C1049 1.327 . S
C1051 C1067 1.429 . S
C1051 H1073 0.950 . S
C1052 H1048 0.949 . S
C1052 C1060 1.574 . S
C1052 C1068 1.368 . S
H1053 C1061 0.950 . S
H1054 C1059 0.950 . S
H1055 C1060 0.949 . S
H1056 C1062 0.950 . S
H1057 C1063 0.950 . S
H1058 C1064 0.949 . S
C1059 H1054 0.950 . S
C1059 C1061 1.327 . S
C1059 C1065 1.429 . S
C1060 C1052 1.574 . S
C1060 H1055 0.949 . S
C1060 C1066 1.368 . S
C1061 C1045 1.349 . S
C1061 H1053 0.950 . S
C1061 C1059 1.327 . S
C1062 C1050 1.349 . S
C1062 H1056 0.950 . S
C1062 C1063 1.327 . S
C1063 H1057 0.950 . S
C1063 C1062 1.327 . S
C1063 C1067 1.429 . S
C1064 C1047 1.574 . S
C1064 H1058 0.949 . S
C1064 C1068 1.368 . S
C1065 C1046 1.429 . S
C1065 C1059 1.429 . S
C1065 C1066 1.523 . S
C1066 C1047 1.368 . S
C1066 C1060 1.368 . S
C1066 C1065 1.523 . S
C1067 C1051 1.429 . S
C1067 C1063 1.429 . S
C1067 C1068 1.523 . S
C1068 C1052 1.368 . S
C1068 C1064 1.368 . S
C1068 C1067 1.523 . S
H1069 C1044 0.950 . S
H1070 C1046 0.950 . S
H1071 C1047 0.949 . S
H1072 C1049 0.950 . S
H1073 C1051 0.950 . S
C1074 C1075 1.349 . S
C1074 C1076 1.327 . S
C1074 H1099 0.950 . S
C1075 C1074 1.349 . S
C1075 C1091 1.349 . S
C1076 C1074 1.327 . S
C1076 C1095 1.429 . S
C1076 H1100 0.950 . S
C1077 C1094 1.574 . S
C1077 C1096 1.368 . S
C1077 H1101 0.949 . S
H1078 C1082 0.949 . S
C1079 C1080 1.349 . S
C1079 C1081 1.327 . S
C1079 H1102 0.950 . S
C1080 C1079 1.349 . S
C1080 C1092 1.349 . S
C1081 C1079 1.327 . S
C1081 C1097 1.429 . S
C1081 H1103 0.950 . S
C1082 H1078 0.949 . S
C1082 C1090 1.574 . S
C1082 C1098 1.368 . S
H1083 C1091 0.950 . S
H1084 C1089 0.950 . S
H1085 C1090 0.949 . S
H1086 C1092 0.950 . S
H1087 C1093 0.950 . S
H1088 C1094 0.949 . S
C1089 H1084 0.950 . S
C1089 C1091 1.327 . S
C1089 C1095 1.429 . S
C1090 C1082 1.574 . S
C1090 H1085 0.949 . S
C1090 C1096 1.368 . S
C1091 C1075 1.349 . S
C1091 H1083 0.950 . S
C1091 C1089 1.327 . S
C1092 C1080 1.349 . S
C1092 H1086 0.950 . S
C1092 C1093 1.327 . S
C1093 H1087 0.950 . S
C1093 C1092 1.327 . S
C1093 C1097 1.429 . S
C1094 C1077 1.574 . S
C1094 H1088 0.949 . S
C1094 C1098 1.368 . S
C1095 C1076 1.429 . S
C1095 C1089 1.429 . S
C1095 C1096 1.523 . S
C1096 C1077 1.368 . S
C1096 C1090 1.368 . S
C1096 C1095 1.523 . S
C1097 C1081 1.429 . S
C1097 C1093 1.429 . S
C1097 C1098 1.523 . S
C1098 C1082 1.368 . S
C1098 C1094 1.368 . S
C1098 C1097 1.523 . S
H1099 C1074 0.950 . S
H1100 C1076 0.950 . S
H1101 C1077 0.949 . S
H1102 C1079 0.950 . S
H1103 C1081 0.950 . S
C1104 C1105 1.349 . S
C1104 C1106 1.327 . S
C1104 H1129 0.950 . S
C1105 C1104 1.349 . S
C1105 C1121 1.349 . S
C1106 C1104 1.327 . S
C1106 C1125 1.429 . S
C1106 H1130 0.950 . S
C1107 C1124 1.574 . S
C1107 C1126 1.368 . S
C1107 H1131 0.949 . S
H1108 C1112 0.949 . S
C1109 C1110 1.349 . S
C1109 C1111 1.327 . S
C1109 H1132 0.950 . S
C1110 C1109 1.349 . S
C1110 C1122 1.349 . S
C1111 C1109 1.327 . S
C1111 C1127 1.429 . S
C1111 H1133 0.950 . S
C1112 H1108 0.949 . S
C1112 C1120 1.574 . S
C1112 C1128 1.368 . S
H1113 C1121 0.950 . S
H1114 C1119 0.950 . S
H1115 C1120 0.949 . S
H1116 C1122 0.950 . S
H1117 C1123 0.950 . S
H1118 C1124 0.949 . S
C1119 H1114 0.950 . S
C1119 C1121 1.327 . S
C1119 C1125 1.429 . S
C1120 C1112 1.574 . S
C1120 H1115 0.949 . S
C1120 C1126 1.368 . S
C1121 C1105 1.349 . S
C1121 H1113 0.950 . S
C1121 C1119 1.327 . S
C1122 C1110 1.349 . S
C1122 H1116 0.950 . S
C1122 C1123 1.327 . S
C1123 H1117 0.950 . S
C1123 C1122 1.327 . S
C1123 C1127 1.429 . S
C1124 C1107 1.574 . S
C1124 H1118 0.949 . S
C1124 C1128 1.368 . S
C1125 C1106 1.429 . S
C1125 C1119 1.429 . S
C1125 C1126 1.523 . S
C1126 C1107 1.368 . S
C1126 C1120 1.368 . S
C1126 C1125 1.523 . S
C1127 C1111 1.429 . S
C1127 C1123 1.429 . S
C1127 C1128 1.523 . S
C1128 C1112 1.368 . S
C1128 C1124 1.368 . S
C1128 C1127 1.523 . S
H1129 C1104 0.950 . S
H1130 C1106 0.950 . S
H1131 C1107 0.949 . S
H1132 C1109 0.950 . S
H1133 C1111 0.950 . S
C1134 C1135 1.349 . S
C1134 C1136 1.327 . S
C1134 H1159 0.950 . S
C1135 C1134 1.349 . S
C1135 C1151 1.349 . S
C1136 C1134 1.327 . S
C1136 C1155 1.429 . S
C1136 H1160 0.950 . S
C1137 C1154 1.574 . S
C1137 C1156 1.368 . S
C1137 H1161 0.949 . S
H1138 C1142 0.949 . S
C1139 C1140 1.349 . S
C1139 C1141 1.327 . S
C1139 H1162 0.950 . S
C1140 C1139 1.349 . S
C1140 C1152 1.349 . S
C1141 C1139 1.327 . S
C1141 C1157 1.429 . S
C1141 H1163 0.950 . S
C1142 H1138 0.949 . S
C1142 C1150 1.574 . S
C1142 C1158 1.368 . S
H1143 C1151 0.950 . S
H1144 C1149 0.950 . S
H1145 C1150 0.949 . S
H1146 C1152 0.950 . S
H1147 C1153 0.950 . S
H1148 C1154 0.949 . S
C1149 H1144 0.950 . S
C1149 C1151 1.327 . S
C1149 C1155 1.429 . S
C1150 C1142 1.574 . S
C1150 H1145 0.949 . S
C1150 C1156 1.368 . S
C1151 C1135 1.349 . S
C1151 H1143 0.950 . S
C1151 C1149 1.327 . S
C1152 C1140 1.349 . S
C1152 H1146 0.950 . S
C1152 C1153 1.327 . S
C1153 H1147 0.950 . S
C1153 C1152 1.327 . S
C1153 C1157 1.429 . S
C1154 C1137 1.574 . S
C1154 H1148 0.949 . S
C1154 C1158 1.368 . S
C1155 C1136 1.429 . S
C1155 C1149 1.429 . S
C1155 C1156 1.523 . S
C1156 C1137 1.368 . S
C1156 C1150 1.368 . S
C1156 C1155 1.523 . S
C1157 C1141 1.429 . S
C1157 C1153 1.429 . S
C1157 C1158 1.523 . S
C1158 C1142 1.368 . S
C1158 C1154 1.368 . S
C1158 C1157 1.523 . S
H1159 C1134 0.950 . S
H1160 C1136 0.950 . S
H1161 C1137 0.949 . S
H1162 C1139 0.950 . S
H1163 C1141 0.950 . S
C1164 C1165 1.349 . S
C1164 C1166 1.327 . S
C1164 H1189 0.950 . S
C1165 C1164 1.349 . S
C1165 C1181 1.349 . S
C1166 C1164 1.327 . S
C1166 C1185 1.429 . S
C1166 H1190 0.950 . S
C1167 C1184 1.574 . S
C1167 C1186 1.368 . S
C1167 H1191 0.949 . S
H1168 C1172 0.949 . S
C1169 C1170 1.349 . S
C1169 C1171 1.327 . S
C1169 H1192 0.950 . S
C1170 C1169 1.349 . S
C1170 C1182 1.349 . S
C1171 C1169 1.327 . S
C1171 C1187 1.429 . S
C1171 H1193 0.950 . S
C1172 H1168 0.949 . S
C1172 C1180 1.574 . S
C1172 C1188 1.368 . S
H1173 C1181 0.950 . S
H1174 C1179 0.950 . S
H1175 C1180 0.949 . S
H1176 C1182 0.950 . S
H1177 C1183 0.950 . S
H1178 C1184 0.949 . S
C1179 H1174 0.950 . S
C1179 C1181 1.327 . S
C1179 C1185 1.429 . S
C1180 C1172 1.574 . S
C1180 H1175 0.949 . S
C1180 C1186 1.368 . S
C1181 C1165 1.349 . S
C1181 H1173 0.950 . S
C1181 C1179 1.327 . S
C1182 C1170 1.349 . S
C1182 H1176 0.950 . S
C1182 C1183 1.327 . S
C1183 H1177 0.950 . S
C1183 C1182 1.327 . S
C1183 C1187 1.429 . S
C1184 C1167 1.574 . S
C1184 H1178 0.949 . S
C1184 C1188 1.368 . S
C1185 C1166 1.429 . S
C1185 C1179 1.429 . S
C1185 C1186 1.523 . S
C1186 C1167 1.368 . S
C1186 C1180 1.368 . S
C1186 C1185 1.523 . S
C1187 C1171 1.429 . S
C1187 C1183 1.429 . S
C1187 C1188 1.523 1_545 S
C1188 C1172 1.368 . S
C1188 C1184 1.368 . S
C1188 C1187 1.523 1_565 S
H1189 C1164 0.950 . S
H1190 C1166 0.950 . S
H1191 C1167 0.949 . S
H1192 C1169 0.950 . S
H1193 C1171 0.950 . S
C1194 C1195 1.349 . S
C1194 C1196 1.327 . S
C1194 H1219 0.950 . S
C1195 C1194 1.349 . S
C1195 C1211 1.349 . S
C1196 C1194 1.327 . S
C1196 C1215 1.429 . S
C1196 H1220 0.950 . S
C1197 C1214 1.574 . S
C1197 C1216 1.368 . S
C1197 H1221 0.949 . S
H1198 C1202 0.949 . S
C1199 C1200 1.349 . S
C1199 C1201 1.327 . S
C1199 H1222 0.950 . S
C1200 C1199 1.349 . S
C1200 C1212 1.349 . S
C1201 C1199 1.327 . S
C1201 C1217 1.429 . S
C1201 H1223 0.950 . S
C1202 H1198 0.949 . S
C1202 C1210 1.574 . S
C1202 C1218 1.368 . S
H1203 C1211 0.950 . S
H1204 C1209 0.950 . S
H1205 C1210 0.949 . S
H1206 C1212 0.950 . S
H1207 C1213 0.950 . S
H1208 C1214 0.949 . S
C1209 H1204 0.950 . S
C1209 C1211 1.327 . S
C1209 C1215 1.429 . S
C1210 C1202 1.574 . S
C1210 H1205 0.949 . S
C1210 C1216 1.368 . S
C1211 C1195 1.349 . S
C1211 H1203 0.950 . S
C1211 C1209 1.327 . S
C1212 C1200 1.349 . S
C1212 H1206 0.950 . S
C1212 C1213 1.327 . S
C1213 H1207 0.950 . S
C1213 C1212 1.327 . S
C1213 C1217 1.429 . S
C1214 C1197 1.574 . S
C1214 H1208 0.949 . S
C1214 C1218 1.368 . S
C1215 C1196 1.429 . S
C1215 C1209 1.429 . S
C1215 C1216 1.523 . S
C1216 C1197 1.368 . S
C1216 C1210 1.368 . S
C1216 C1215 1.523 . S
C1217 C1201 1.429 . S
C1217 C1213 1.429 . S
C1217 C1218 1.523 . S
C1218 C1202 1.368 . S
C1218 C1214 1.368 . S
C1218 C1217 1.523 . S
H1219 C1194 0.950 . S
H1220 C1196 0.950 . S
H1221 C1197 0.949 . S
H1222 C1199 0.950 . S
H1223 C1201 0.950 . S
C1224 C1225 1.349 . S
C1224 C1226 1.327 . S
C1224 H1249 0.950 . S
C1225 C1224 1.349 . S
C1225 C1241 1.349 . S
C1226 C1224 1.327 . S
C1226 C1245 1.429 . S
C1226 H1250 0.950 . S
C1227 C1244 1.574 . S
C1227 C1246 1.368 . S
C1227 H1251 0.949 . S
H1228 C1232 0.949 . S
C1229 C1230 1.349 . S
C1229 C1231 1.327 . S
C1229 H1252 0.950 . S
C1230 C1229 1.349 . S
C1230 C1242 1.349 . S
C1231 C1229 1.327 . S
C1231 C1247 1.429 . S
C1231 H1253 0.950 . S
C1232 H1228 0.949 . S
C1232 C1240 1.574 . S
C1232 C1248 1.368 . S
H1233 C1241 0.950 . S
H1234 C1239 0.950 . S
H1235 C1240 0.931 1_554 S
H1236 C1242 0.950 . S
H1237 C1243 0.950 . S
H1238 C1244 0.949 . S
C1239 H1234 0.950 . S
C1239 C1241 1.327 . S
C1239 C1245 1.429 . S
C1240 C1232 1.574 . S
C1240 H1235 0.931 1_556 S
C1240 C1246 1.368 . S
C1241 C1225 1.349 . S
C1241 H1233 0.950 . S
C1241 C1239 1.327 . S
C1242 C1230 1.349 . S
C1242 H1236 0.950 . S
C1242 C1243 1.327 . S
C1243 H1237 0.950 . S
C1243 C1242 1.327 . S
C1243 C1247 1.429 . S
C1244 C1227 1.574 . S
C1244 H1238 0.949 . S
C1244 C1248 1.368 . S
C1245 C1226 1.429 . S
C1245 C1239 1.429 . S
C1245 C1246 1.523 1_554 S
C1246 C1227 1.368 . S
C1246 C1240 1.368 . S
C1246 C1245 1.523 1_556 S
C1247 C1231 1.429 . S
C1247 C1243 1.429 . S
C1247 C1248 1.523 . S
C1248 C1232 1.368 . S
C1248 C1244 1.368 . S
C1248 C1247 1.523 . S
H1249 C1224 0.950 . S
H1250 C1226 0.950 . S
H1251 C1227 0.949 . S
H1252 C1229 0.950 . S
H1253 C1231 0.950 . S
C1254 C1255 1.349 . S
C1254 C1256 1.327 . S
C1254 H1279 0.950 . S
C1255 C1254 1.349 . S
C1255 C1271 1.349 . S
C1256 C1254 1.327 . S
C1256 C1275 1.429 . S
C1256 H1280 0.950 1_554 S
C1257 C1274 1.574 . S
C1257 C1276 1.368 . S
C1257 H1281 0.949 1_556 S
H1258 C1262 0.949 . S
C1259 C1260 1.349 . S
C1259 C1261 1.327 . S
C1259 H1282 0.950 . S
C1260 C1259 1.349 . S
C1260 C1272 1.349 . S
C1261 C1259 1.327 . S
C1261 C1277 1.429 . S
C1261 H1283 0.950 . S
C1262 H1258 0.949 . S
C1262 C1270 1.574 . S
C1262 C1278 1.368 . S
H1263 C1271 0.950 . S
H1264 C1269 0.950 . S
H1265 C1270 0.949 . S
H1266 C1272 0.950 . S
H1267 C1273 0.950 . S
H1268 C1274 0.949 . S
C1269 H1264 0.950 . S
C1269 C1271 1.327 . S
C1269 C1275 1.429 . S
C1270 C1262 1.574 . S
C1270 H1265 0.949 . S
C1270 C1276 1.368 . S
C1271 C1255 1.349 . S
C1271 H1263 0.950 . S
C1271 C1269 1.327 . S
C1272 C1260 1.349 . S
C1272 H1266 0.950 . S
C1272 C1273 1.327 . S
C1273 H1267 0.950 . S
C1273 C1272 1.327 . S
C1273 C1277 1.429 . S
C1274 C1257 1.574 . S
C1274 H1268 0.949 . S
C1274 C1278 1.368 . S
C1275 C1256 1.429 . S
C1275 C1269 1.429 . S
C1275 C1276 1.523 1_554 S
C1276 C1257 1.368 . S
C1276 C1270 1.368 . S
C1276 C1275 1.523 1_556 S
C1277 C1261 1.429 . S
C1277 C1273 1.429 . S
C1277 C1278 1.523 . S
C1278 C1262 1.368 . S
C1278 C1274 1.368 . S
C1278 C1277 1.523 . S
H1279 C1254 0.950 . S
H1280 C1256 0.950 1_556 S
H1281 C1257 0.949 1_554 S
H1282 C1259 0.950 . S
H1283 C1261 0.950 . S
C1284 C1285 1.349 . S
C1284 C1286 1.327 . S
C1284 H1309 0.950 . S
C1285 C1284 1.349 . S
C1285 C1301 1.349 . S
C1286 C1284 1.327 . S
C1286 C1305 1.429 . S
C1286 H1310 0.950 . S
C1287 C1304 1.574 . S
C1287 C1306 1.368 . S
C1287 H1311 0.949 . S
H1288 C1292 0.949 . S
C1289 C1290 1.349 . S
C1289 C1291 1.327 . S
C1289 H1312 0.950 . S
C1290 C1289 1.349 . S
C1290 C1302 1.349 . S
C1291 C1289 1.327 . S
C1291 C1307 1.429 . S
C1291 H1313 0.950 . S
C1292 H1288 0.949 . S
C1292 C1300 1.574 . S
C1292 C1308 1.368 . S
H1293 C1301 0.950 . S
H1294 C1299 0.950 . S
H1295 C1300 0.949 . S
H1296 C1302 0.950 . S
H1297 C1303 0.950 . S
H1298 C1304 0.949 . S
C1299 H1294 0.950 . S
C1299 C1301 1.327 . S
C1299 C1305 1.429 . S
C1300 C1292 1.574 . S
C1300 H1295 0.949 . S
C1300 C1306 1.368 . S
C1301 C1285 1.349 . S
C1301 H1293 0.950 . S
C1301 C1299 1.327 . S
C1302 C1290 1.349 . S
C1302 H1296 0.950 . S
C1302 C1303 1.327 . S
C1303 H1297 0.950 . S
C1303 C1302 1.327 . S
C1303 C1307 1.429 . S
C1304 C1287 1.574 . S
C1304 H1298 0.949 . S
C1304 C1308 1.368 . S
C1305 C1286 1.429 . S
C1305 C1299 1.429 . S
C1305 C1306 1.523 . S
C1306 C1287 1.368 . S
C1306 C1300 1.368 . S
C1306 C1305 1.523 . S
C1307 C1291 1.429 . S
C1307 C1303 1.429 . S
C1307 C1308 1.523 . S
C1308 C1292 1.368 . S
C1308 C1304 1.368 . S
C1308 C1307 1.523 . S
H1309 C1284 0.950 . S
H1310 C1286 0.950 . S
H1311 C1287 0.949 . S
H1312 C1289 0.950 . S
H1313 C1291 0.950 . S
C1314 C1315 1.349 . S
C1314 C1316 1.327 . S
C1314 H1339 0.950 . S
C1315 C1314 1.349 . S
C1315 C1331 1.349 . S
C1316 C1314 1.327 . S
C1316 C1335 1.429 . S
C1316 H1340 0.950 . S
C1317 C1334 1.574 . S
C1317 C1336 1.368 . S
C1317 H1341 0.949 . S
H1318 C1322 0.949 . S
C1319 C1320 1.349 . S
C1319 C1321 1.327 . S
C1319 H1342 0.950 . S
C1320 C1319 1.349 . S
C1320 C1332 1.349 . S
C1321 C1319 1.327 . S
C1321 C1337 1.429 . S
C1321 H1343 0.950 . S
C1322 H1318 0.949 . S
C1322 C1330 1.574 . S
C1322 C1338 1.368 . S
H1323 C1331 0.950 . S
H1324 C1329 0.950 . S
H1325 C1330 0.949 . S
H1326 C1332 0.950 . S
H1327 C1333 0.950 . S
H1328 C1334 0.949 . S
C1329 H1324 0.950 . S
C1329 C1331 1.327 . S
C1329 C1335 1.429 . S
C1330 C1322 1.574 . S
C1330 H1325 0.949 . S
C1330 C1336 1.368 . S
C1331 C1315 1.349 . S
C1331 H1323 0.950 . S
C1331 C1329 1.327 . S
C1332 C1320 1.349 . S
C1332 H1326 0.950 . S
C1332 C1333 1.327 . S
C1333 H1327 0.950 . S
C1333 C1332 1.327 . S
C1333 C1337 1.429 . S
C1334 C1317 1.574 . S
C1334 H1328 0.949 . S
C1334 C1338 1.368 . S
C1335 C1316 1.429 . S
C1335 C1329 1.429 . S
C1335 C1336 1.523 . S
C1336 C1317 1.368 . S
C1336 C1330 1.368 . S
C1336 C1335 1.523 . S
C1337 C1321 1.429 . S
C1337 C1333 1.429 . S
C1337 C1338 1.523 . S
C1338 C1322 1.368 . S
C1338 C1334 1.368 . S
C1338 C1337 1.523 . S
H1339 C1314 0.950 . S
H1340 C1316 0.950 . S
H1341 C1317 0.949 . S
H1342 C1319 0.950 . S
H1343 C1321 0.950 . S
C1344 C1345 1.349 . S
C1344 C1346 1.327 . S
C1344 H1369 0.950 . S
C1345 C1344 1.349 . S
C1345 C1361 1.349 . S
C1346 C1344 1.327 . S
C1346 C1365 1.429 . S
C1346 H1370 0.950 . S
C1347 C1364 1.574 . S
C1347 C1366 1.368 . S
C1347 H1371 0.949 . S
H1348 C1352 0.949 . S
C1349 C1350 1.349 . S
C1349 C1351 1.327 . S
C1349 H1372 0.950 . S
C1350 C1349 1.349 . S
C1350 C1362 1.349 . S
C1351 C1349 1.327 . S
C1351 C1367 1.429 . S
C1351 H1373 0.950 . S
C1352 H1348 0.949 . S
C1352 C1360 1.574 . S
C1352 C1368 1.368 . S
H1353 C1361 0.950 . S
H1354 C1359 0.950 . S
H1355 C1360 0.949 . S
H1356 C1362 0.950 . S
H1357 C1363 0.950 . S
H1358 C1364 0.949 . S
C1359 H1354 0.950 . S
C1359 C1361 1.327 . S
C1359 C1365 1.429 . S
C1360 C1352 1.574 . S
C1360 H1355 0.949 . S
C1360 C1366 1.368 . S
C1361 C1345 1.349 . S
C1361 H1353 0.950 . S
C1361 C1359 1.327 . S
C1362 C1350 1.349 . S
C1362 H1356 0.950 . S
C1362 C1363 1.327 . S
C1363 H1357 0.950 . S
C1363 C1362 1.327 . S
C1363 C1367 1.429 . S
C1364 C1347 1.574 . S
C1364 H1358 0.949 . S
C1364 C1368 1.368 . S
C1365 C1346 1.429 . S
C1365 C1359 1.429 . S
C1365 C1366 1.523 1_455 S
C1366 C1347 1.368 . S
C1366 C1360 1.368 . S
C1366 C1365 1.523 1_655 S
C1367 C1351 1.429 . S
C1367 C1363 1.429 . S
C1367 C1368 1.523 . S
C1368 C1352 1.368 . S
C1368 C1364 1.368 . S
C1368 C1367 1.523 . S
H1369 C1344 0.950 . S
H1370 C1346 0.950 . S
H1371 C1347 0.949 . S
H1372 C1349 0.950 . S
H1373 C1351 0.950 . S
C1374 C1375 1.349 . S
C1374 C1376 1.327 . S
C1374 H1399 0.950 . S
C1375 C1374 1.349 . S
C1375 C1391 1.349 . S
C1376 C1374 1.327 . S
C1376 C1395 1.429 . S
C1376 H1400 0.950 . S
C1377 C1394 1.574 . S
C1377 C1396 1.368 . S
C1377 H1401 0.949 1_455 S
H1378 C1382 0.949 . S
C1379 C1380 1.349 . S
C1379 C1381 1.327 . S
C1379 H1402 0.950 . S
C1380 C1379 1.349 . S
C1380 C1392 1.349 . S
C1381 C1379 1.327 . S
C1381 C1397 1.429 . S
C1381 H1403 0.950 . S
C1382 H1378 0.949 . S
C1382 C1390 1.574 . S
C1382 C1398 1.368 . S
H1383 C1391 0.950 . S
H1384 C1389 0.950 . S
H1385 C1390 0.949 . S
H1386 C1392 0.950 . S
H1387 C1393 0.950 . S
H1388 C1394 0.949 . S
C1389 H1384 0.950 . S
C1389 C1391 1.327 . S
C1389 C1395 1.429 . S
C1390 C1382 1.574 . S
C1390 H1385 0.949 . S
C1390 C1396 1.368 . S
C1391 C1375 1.349 . S
C1391 H1383 0.950 . S
C1391 C1389 1.327 . S
C1392 C1380 1.349 . S
C1392 H1386 0.950 . S
C1392 C1393 1.327 . S
C1393 H1387 0.950 . S
C1393 C1392 1.327 . S
C1393 C1397 1.429 . S
C1394 C1377 1.574 . S
C1394 H1388 0.949 . S
C1394 C1398 1.368 . S
C1395 C1376 1.429 . S
C1395 C1389 1.429 . S
C1395 C1396 1.523 1_655 S
C1396 C1377 1.368 . S
C1396 C1390 1.368 . S
C1396 C1395 1.523 1_455 S
C1397 C1381 1.429 . S
C1397 C1393 1.429 . S
C1397 C1398 1.523 . S
C1398 C1382 1.368 . S
C1398 C1394 1.368 . S
C1398 C1397 1.523 . S
H1399 C1374 0.950 . S
H1400 C1376 0.950 . S
H1401 C1377 0.949 1_655 S
H1402 C1379 0.950 . S
H1403 C1381 0.950 . S
C1404 C1405 1.349 . S
C1404 C1406 1.327 . S
C1404 H1429 0.950 . S
C1405 C1404 1.349 . S
C1405 C1421 1.349 . S
C1406 C1404 1.327 . S
C1406 C1425 1.429 . S
C1406 H1430 0.950 . S
C1407 C1424 1.574 . S
C1407 C1426 1.368 . S
C1407 H1431 0.949 . S
H1408 C1412 0.949 . S
C1409 C1410 1.349 . S
C1409 C1411 1.327 . S
C1409 H1432 0.950 . S
C1410 C1409 1.349 . S
C1410 C1422 1.349 . S
C1411 C1409 1.327 . S
C1411 C1427 1.429 . S
C1411 H1433 0.950 . S
C1412 H1408 0.949 . S
C1412 C1420 1.574 . S
C1412 C1428 1.368 . S
H1413 C1421 0.950 . S
H1414 C1419 0.950 1_655 S
H1415 C1420 0.983 . S
H1416 C1422 0.950 . S
H1417 C1423 0.950 . S
H1418 C1424 0.949 . S
C1419 H1414 0.950 1_455 S
C1419 C1421 1.327 . S
C1419 C1425 1.429 . S
C1420 C1412 1.574 . S
C1420 H1415 0.983 . S
C1420 C1426 1.368 . S
C1421 C1405 1.349 . S
C1421 H1413 0.950 . S
C1421 C1419 1.327 . S
C1422 C1410 1.349 . S
C1422 H1416 0.950 . S
C1422 C1423 1.327 . S
C1423 H1417 0.950 . S
C1423 C1422 1.327 . S
C1423 C1427 1.429 . S
C1424 C1407 1.574 . S
C1424 H1418 0.949 . S
C1424 C1428 1.368 . S
C1425 C1406 1.429 . S
C1425 C1419 1.429 . S
C1425 C1426 1.523 1_455 S
C1426 C1407 1.368 . S
C1426 C1420 1.368 . S
C1426 C1425 1.523 1_655 S
C1427 C1411 1.429 . S
C1427 C1423 1.429 . S
C1427 C1428 1.523 . S
C1428 C1412 1.368 . S
C1428 C1424 1.368 . S
C1428 C1427 1.523 . S
H1429 C1404 0.950 . S
H1430 C1406 0.950 . S
H1431 C1407 0.949 . S
H1432 C1409 0.950 . S
H1433 C1411 0.950 . S
C1434 C1435 1.349 . S
C1434 C1436 1.327 . S
C1434 H1459 0.950 . S
C1435 C1434 1.349 . S
C1435 C1451 1.349 . S
C1436 C1434 1.327 . S
C1436 C1455 1.429 . S
C1436 H1460 0.950 . S
C1437 C1454 1.574 . S
C1437 C1456 1.368 . S
C1437 H1461 0.949 . S
H1438 C1442 0.949 . S
C1439 C1440 1.349 . S
C1439 C1441 1.327 . S
C1439 H1462 0.950 . S
C1440 C1439 1.349 . S
C1440 C1452 1.349 . S
C1441 C1439 1.327 . S
C1441 C1457 1.429 . S
C1441 H1463 0.950 . S
C1442 H1438 0.949 . S
C1442 C1450 1.574 . S
C1442 C1458 1.368 . S
H1443 C1451 0.950 . S
H1444 C1449 0.950 . S
H1445 C1450 0.949 . S
H1446 C1452 0.950 . S
H1447 C1453 0.950 1_455 S
H1448 C1454 0.949 1_655 S
C1449 H1444 0.950 . S
C1449 C1451 1.327 . S
C1449 C1455 1.429 . S
C1450 C1442 1.574 . S
C1450 H1445 0.949 . S
C1450 C1456 1.368 . S
C1451 C1435 1.349 . S
C1451 H1443 0.950 . S
C1451 C1449 1.327 . S
C1452 C1440 1.349 . S
C1452 H1446 0.950 . S
C1452 C1453 1.327 . S
C1453 H1447 0.950 1_655 S
C1453 C1452 1.327 . S
C1453 C1457 1.429 . S
C1454 C1437 1.574 . S
C1454 H1448 0.949 1_455 S
C1454 C1458 1.368 . S
C1455 C1436 1.429 . S
C1455 C1449 1.429 . S
C1455 C1456 1.523 . S
C1456 C1437 1.368 . S
C1456 C1450 1.368 . S
C1456 C1455 1.523 . S
C1457 C1441 1.429 . S
C1457 C1453 1.429 . S
C1457 C1458 1.523 1_655 S
C1458 C1442 1.368 . S
C1458 C1454 1.368 . S
C1458 C1457 1.523 1_455 S
H1459 C1434 0.950 . S
H1460 C1436 0.950 . S
H1461 C1437 0.949 . S
H1462 C1439 0.950 . S
H1463 C1441 0.950 . S
C1464 C1465 1.349 . S
C1464 C1466 1.327 . S
C1464 H1489 0.950 . S
C1465 C1464 1.349 . S
C1465 C1481 1.349 . S
C1466 C1464 1.327 . S
C1466 C1485 1.429 . S
C1466 H1490 0.950 . S
C1467 C1484 1.574 . S
C1467 C1486 1.368 . S
C1467 H1491 0.949 . S
H1468 C1472 0.949 . S
C1469 C1470 1.349 . S
C1469 C1471 1.327 . S
C1469 H1492 0.950 . S
C1470 C1469 1.349 . S
C1470 C1482 1.349 . S
C1471 C1469 1.327 . S
C1471 C1487 1.429 . S
C1471 H1493 0.950 . S
C1472 H1468 0.949 . S
C1472 C1480 1.574 . S
C1472 C1488 1.368 . S
H1473 C1481 0.950 . S
H1474 C1479 0.950 . S
H1475 C1480 0.963 . S
H1476 C1482 0.950 . S
H1477 C1483 0.950 . S
H1478 C1484 0.949 . S
C1479 H1474 0.950 . S
C1479 C1481 1.327 . S
C1479 C1485 1.429 . S
C1480 C1472 1.574 . S
C1480 H1475 0.963 . S
C1480 C1486 1.368 . S
C1481 C1465 1.349 . S
C1481 H1473 0.950 . S
C1481 C1479 1.327 . S
C1482 C1470 1.349 . S
C1482 H1476 0.950 . S
C1482 C1483 1.327 . S
C1483 H1477 0.950 . S
C1483 C1482 1.327 . S
C1483 C1487 1.429 . S
C1484 C1467 1.574 . S
C1484 H1478 0.949 . S
C1484 C1488 1.368 . S
C1485 C1466 1.429 . S
C1485 C1479 1.429 . S
C1485 C1486 1.523 1_545 S
C1486 C1467 1.368 . S
C1486 C1480 1.368 . S
C1486 C1485 1.523 1_565 S
C1487 C1471 1.429 . S
C1487 C1483 1.429 . S
C1487 C1488 1.523 . S
C1488 C1472 1.368 . S
C1488 C1484 1.368 . S
C1488 C1487 1.523 . S
H1489 C1464 0.950 . S
H1490 C1466 0.950 . S
H1491 C1467 0.949 . S
H1492 C1469 0.950 . S
H1493 C1471 0.950 . S
C1494 C1495 1.349 . S
C1494 C1496 1.327 . S
C1494 H1519 0.950 . S
C1495 C1494 1.349 . S
C1495 C1511 1.349 . S
C1496 C1494 1.327 . S
C1496 C1515 1.429 . S
C1496 H1520 0.950 . S
C1497 C1514 1.574 . S
C1497 C1516 1.368 . S
C1497 H1521 0.949 . S
H1498 C1502 0.949 1_565 S
C1499 C1500 1.349 . S
C1499 C1501 1.327 . S
C1499 H1522 0.950 . S
C1500 C1499 1.349 . S
C1500 C1512 1.349 . S
C1501 C1499 1.327 . S
C1501 C1517 1.429 . S
C1501 H1523 0.950 . S
C1502 H1498 0.949 1_545 S
C1502 C1510 1.574 . S
C1502 C1518 1.368 . S
H1503 C1511 0.950 . S
H1504 C1509 0.950 . S
H1505 C1510 0.949 . S
H1506 C1512 0.950 . S
H1507 C1513 0.950 . S
H1508 C1514 0.949 . S
C1509 H1504 0.950 . S
C1509 C1511 1.327 . S
C1509 C1515 1.429 . S
C1510 C1502 1.574 . S
C1510 H1505 0.949 . S
C1510 C1516 1.368 . S
C1511 C1495 1.349 . S
C1511 H1503 0.950 . S
C1511 C1509 1.327 . S
C1512 C1500 1.349 . S
C1512 H1506 0.950 . S
C1512 C1513 1.327 . S
C1513 H1507 0.950 . S
C1513 C1512 1.327 . S
C1513 C1517 1.429 . S
C1514 C1497 1.574 . S
C1514 H1508 0.949 . S
C1514 C1518 1.368 . S
C1515 C1496 1.429 . S
C1515 C1509 1.429 . S
C1515 C1516 1.523 . S
C1516 C1497 1.368 . S
C1516 C1510 1.368 . S
C1516 C1515 1.523 . S
C1517 C1501 1.429 . S
C1517 C1513 1.429 . S
C1517 C1518 1.523 1_565 S
C1518 C1502 1.368 . S
C1518 C1514 1.368 . S
C1518 C1517 1.523 1_545 S
H1519 C1494 0.950 . S
H1520 C1496 0.950 . S
H1521 C1497 0.949 . S
H1522 C1499 0.950 . S
H1523 C1501 0.950 . S
C1524 C1525 1.349 . S
C1524 C1526 1.327 . S
C1524 H1549 0.950 . S
C1525 C1524 1.349 . S
C1525 C1541 1.349 . S
C1526 C1524 1.327 . S
C1526 C1545 1.429 . S
C1526 H1550 0.950 . S
C1527 C1544 1.574 . S
C1527 C1546 1.368 . S
C1527 H1551 0.949 . S
H1528 C1532 0.949 . S
C1529 C1530 1.349 . S
C1529 C1531 1.327 . S
C1529 H1552 0.950 . S
C1530 C1529 1.349 . S
C1530 C1542 1.349 . S
C1531 C1529 1.327 . S
C1531 C1547 1.429 . S
C1531 H1553 0.950 . S
C1532 H1528 0.949 . S
C1532 C1540 1.574 . S
C1532 C1548 1.368 . S
H1533 C1541 0.950 . S
H1534 C1539 0.950 . S
H1535 C1540 0.949 . S
H1536 C1542 0.950 . S
H1537 C1543 0.950 . S
H1538 C1544 0.949 . S
C1539 H1534 0.950 . S
C1539 C1541 1.327 . S
C1539 C1545 1.429 . S
C1540 C1532 1.574 . S
C1540 H1535 0.949 . S
C1540 C1546 1.368 . S
C1541 C1525 1.349 . S
C1541 H1533 0.950 . S
C1541 C1539 1.327 . S
C1542 C1530 1.349 . S
C1542 H1536 0.950 . S
C1542 C1543 1.327 . S
C1543 H1537 0.950 . S
C1543 C1542 1.327 . S
C1543 C1547 1.429 . S
C1544 C1527 1.574 . S
C1544 H1538 0.949 . S
C1544 C1548 1.368 . S
C1545 C1526 1.429 . S
C1545 C1539 1.429 . S
C1545 C1546 1.523 . S
C1546 C1527 1.368 . S
C1546 C1540 1.368 . S
C1546 C1545 1.523 . S
C1547 C1531 1.429 . S
C1547 C1543 1.429 . S
C1547 C1548 1.523 . S
C1548 C1532 1.368 . S
C1548 C1544 1.368 . S
C1548 C1547 1.523 . S
H1549 C1524 0.950 . S
H1550 C1526 0.950 . S
H1551 C1527 0.949 . S
H1552 C1529 0.950 . S
H1553 C1531 0.950 . S
C1554 C1555 1.349 . S
C1554 C1556 1.327 . S
C1554 H1579 0.950 . S
C1555 C1554 1.349 . S
C1555 C1571 1.349 . S
C1556 C1554 1.327 . S
C1556 C1575 1.429 . S
C1556 H1580 0.950 . S
C1557 C1574 1.574 . S
C1557 C1576 1.368 . S
C1557 H1581 0.949 . S
H1558 C1562 0.949 . S
C1559 C1560 1.349 . S
C1559 C1561 1.327 . S
C1559 H1582 0.950 . S
C1560 C1559 1.349 . S
C1560 C1572 1.349 . S
C1561 C1559 1.327 . S
C1561 C1577 1.429 . S
C1561 H1583 0.950 . S
C1562 H1558 0.949 . S
C1562 C1570 1.574 . S
C1562 C1578 1.368 . S
H1563 C1571 0.950 . S
H1564 C1569 0.950 . S
H1565 C1570 0.949 . S
H1566 C1572 0.950 . S
H1567 C1573 0.950 . S
H1568 C1574 0.949 . S
C1569 H1564 0.950 . S
C1569 C1571 1.327 . S
C1569 C1575 1.429 . S
C1570 C1562 1.574 . S
C1570 H1565 0.949 . S
C1570 C1576 1.368 . S
C1571 C1555 1.349 . S
C1571 H1563 0.950 . S
C1571 C1569 1.327 . S
C1572 C1560 1.349 . S
C1572 H1566 0.950 . S
C1572 C1573 1.327 . S
C1573 H1567 0.950 . S
C1573 C1572 1.327 . S
C1573 C1577 1.429 . S
C1574 C1557 1.574 . S
C1574 H1568 0.949 . S
C1574 C1578 1.368 . S
C1575 C1556 1.429 . S
C1575 C1569 1.429 . S
C1575 C1576 1.523 . S
C1576 C1557 1.368 . S
C1576 C1570 1.368 . S
C1576 C1575 1.523 . S
C1577 C1561 1.429 . S
C1577 C1573 1.429 . S
C1577 C1578 1.523 1_565 S
C1578 C1562 1.368 . S
C1578 C1574 1.368 . S
C1578 C1577 1.523 1_545 S
H1579 C1554 0.950 . S
H1580 C1556 0.950 . S
H1581 C1557 0.949 . S
H1582 C1559 0.950 . S
H1583 C1561 0.950 . S
C1584 C1585 1.349 . S
C1584 C1586 1.327 . S
C1584 H1609 0.950 . S
C1585 C1584 1.349 . S
C1585 C1601 1.349 1_655 S
C1586 C1584 1.327 . S
C1586 C1605 1.429 . S
C1586 H1610 0.950 . S
C1587 C1604 1.574 . S
C1587 C1606 1.363 1_455 S
C1587 H1611 0.949 . S
H1588 C1592 0.949 . S
C1589 C1590 1.349 . S
C1589 C1591 1.327 . S
C1589 H1612 0.950 . S
C1590 C1589 1.349 . S
C1590 C1602 1.349 1_455 S
C1591 C1589 1.327 . S
C1591 C1607 1.429 . S
C1591 H1613 0.950 . S
C1592 H1588 0.949 . S
C1592 C1600 1.574 . S
C1592 C1608 1.368 1_655 S
H1593 C1601 0.950 . S
H1594 C1599 0.950 . S
H1595 C1600 0.949 . S
H1596 C1602 0.950 . S
H1597 C1603 0.950 . S
H1598 C1604 0.949 . S
C1599 H1594 0.950 . S
C1599 C1601 1.327 . S
C1599 C1605 1.429 1_455 S
C1600 C1592 1.574 . S
C1600 H1595 0.949 . S
C1600 C1606 1.373 . S
C1601 C1585 1.349 1_455 S
C1601 H1593 0.950 . S
C1601 C1599 1.327 . S
C1602 C1590 1.349 1_655 S
C1602 H1596 0.950 . S
C1602 C1603 1.327 . S
C1603 H1597 0.950 . S
C1603 C1602 1.327 . S
C1603 C1607 1.429 1_655 S
C1604 C1587 1.574 . S
C1604 H1598 0.949 . S
C1604 C1608 1.368 . S
C1605 C1586 1.429 . S
C1605 C1599 1.429 1_655 S
C1605 C1606 1.523 . S
C1606 C1587 1.363 1_655 S
C1606 C1600 1.373 . S
C1606 C1605 1.523 . S
C1607 C1591 1.429 . S
C1607 C1603 1.429 1_455 S
C1607 C1608 1.523 . S
C1608 C1592 1.368 1_455 S
C1608 C1604 1.368 . S
C1608 C1607 1.523 . S
H1609 C1584 0.950 . S
H1610 C1586 0.950 . S
H1611 C1587 0.949 . S
H1612 C1589 0.950 . S
H1613 C1591 0.950 . S
C1614 C1615 1.349 1_655 S
C1614 C1616 1.327 . S
C1614 H1639 0.950 . S
C1615 C1614 1.349 1_455 S
C1615 C1631 1.349 . S
C1616 C1614 1.327 . S
C1616 C1635 1.429 1_655 S
C1616 H1640 0.950 . S
C1617 C1634 1.574 . S
C1617 C1636 1.368 . S
C1617 H1641 0.949 . S
H1618 C1622 0.949 . S
C1619 C1620 1.349 1_455 S
C1619 C1621 1.327 . S
C1619 H1642 0.950 . S
C1620 C1619 1.349 1_655 S
C1620 C1632 1.349 . S
C1621 C1619 1.327 . S
C1621 C1637 1.429 1_455 S
C1621 H1643 0.950 . S
C1622 H1618 0.949 . S
C1622 C1630 1.574 . S
C1622 C1638 1.387 . S
H1623 C1631 0.950 . S
H1624 C1629 0.950 . S
H1625 C1630 0.949 . S
H1626 C1632 0.950 . S
H1627 C1633 0.950 . S
H1628 C1634 0.949 . S
C1629 H1624 0.950 . S
C1629 C1631 1.327 . S
C1629 C1635 1.429 . S
C1630 C1622 1.574 . S
C1630 H1625 0.949 . S
C1630 C1636 1.368 1_655 S
C1631 C1615 1.349 . S
C1631 H1623 0.950 . S
C1631 C1629 1.327 . S
C1632 C1620 1.349 . S
C1632 H1626 0.950 . S
C1632 C1633 1.327 . S
C1633 H1627 0.950 . S
C1633 C1632 1.327 . S
C1633 C1637 1.429 . S
C1634 C1617 1.574 . S
C1634 H1628 0.949 . S
C1634 C1638 1.349 1_455 S
C1635 C1616 1.429 1_455 S
C1635 C1629 1.429 . S
C1635 C1636 1.523 . S
C1636 C1617 1.368 . S
C1636 C1630 1.368 1_455 S
C1636 C1635 1.523 . S
C1637 C1621 1.429 1_655 S
C1637 C1633 1.429 . S
C1637 C1638 1.525 . S
C1638 C1622 1.387 . S
C1638 C1634 1.349 1_655 S
C1638 C1637 1.525 . S
H1639 C1614 0.950 . S
H1640 C1616 0.950 . S
H1641 C1617 0.949 . S
H1642 C1619 0.950 . S
H1643 C1621 0.950 . S
C1644 C1645 1.349 1_545 S
C1644 C1646 1.327 . S
C1644 H1669 0.950 . S
C1645 C1644 1.349 1_565 S
C1645 C1661 1.349 . S
C1646 C1644 1.327 . S
C1646 C1665 1.429 1_545 S
C1646 H1670 0.950 . S
C1647 C1664 1.574 . S
C1647 C1666 1.375 . S
C1647 H1671 0.949 . S
H1648 C1652 0.949 . S
C1649 C1650 1.349 1_565 S
C1649 C1651 1.327 . S
C1649 H1672 0.950 . S
C1650 C1649 1.349 1_545 S
C1650 C1662 1.349 . S
C1651 C1649 1.327 . S
C1651 C1667 1.429 1_565 S
C1651 H1673 0.950 . S
C1652 H1648 0.949 . S
C1652 C1660 1.574 . S
C1652 C1668 1.368 . S
H1653 C1661 0.950 . S
H1654 C1659 0.950 . S
H1655 C1660 0.949 . S
H1656 C1662 0.950 . S
H1657 C1663 0.950 . S
H1658 C1664 0.949 . S
C1659 H1654 0.950 . S
C1659 C1661 1.327 . S
C1659 C1665 1.429 . S
C1660 C1652 1.574 . S
C1660 H1655 0.949 . S
C1660 C1666 1.362 1_545 S
C1661 C1645 1.349 . S
C1661 H1653 0.950 . S
C1661 C1659 1.327 . S
C1662 C1650 1.349 . S
C1662 H1656 0.950 . S
C1662 C1663 1.327 . S
C1663 H1657 0.950 . S
C1663 C1662 1.327 . S
C1663 C1667 1.429 . S
C1664 C1647 1.574 . S
C1664 H1658 0.949 . S
C1664 C1668 1.368 1_565 S
C1665 C1646 1.429 1_565 S
C1665 C1659 1.429 . S
C1665 C1666 1.523 . S
C1666 C1647 1.375 . S
C1666 C1660 1.362 1_565 S
C1666 C1665 1.523 . S
C1667 C1651 1.429 1_545 S
C1667 C1663 1.429 . S
C1667 C1668 1.523 . S
C1668 C1652 1.368 . S
C1668 C1664 1.368 1_545 S
C1668 C1667 1.523 . S
H1669 C1644 0.950 . S
H1670 C1646 0.950 . S
H1671 C1647 0.949 . S
H1672 C1649 0.950 . S
H1673 C1651 0.950 . S
C1674 C1675 1.349 . S
C1674 C1676 1.327 . S
C1674 H1699 0.950 . S
C1675 C1674 1.349 . S
C1675 C1691 1.349 . S
C1676 C1674 1.327 . S
C1676 C1695 1.429 . S
C1676 H1700 0.950 . S
C1677 C1694 1.574 . S
C1677 C1696 1.368 . S
C1677 H1701 0.949 . S
H1678 C1682 0.949 . S
C1679 C1680 1.349 . S
C1679 C1681 1.327 . S
C1679 H1702 0.950 . S
C1680 C1679 1.349 . S
C1680 C1692 1.349 . S
C1681 C1679 1.327 . S
C1681 C1697 1.429 . S
C1681 H1703 0.950 . S
C1682 H1678 0.949 . S
C1682 C1690 1.574 . S
C1682 C1698 1.368 . S
H1683 C1691 0.950 . S
H1684 C1689 0.950 . S
H1685 C1690 0.949 . S
H1686 C1692 0.950 . S
H1687 C1693 0.950 . S
H1688 C1694 0.949 . S
C1689 H1684 0.950 . S
C1689 C1691 1.327 . S
C1689 C1695 1.429 . S
C1690 C1682 1.574 . S
C1690 H1685 0.949 . S
C1690 C1696 1.368 . S
C1691 C1675 1.349 . S
C1691 H1683 0.950 . S
C1691 C1689 1.327 . S
C1692 C1680 1.349 . S
C1692 H1686 0.950 . S
C1692 C1693 1.327 . S
C1693 H1687 0.950 . S
C1693 C1692 1.327 . S
C1693 C1697 1.429 . S
C1694 C1677 1.574 . S
C1694 H1688 0.949 . S
C1694 C1698 1.368 . S
C1695 C1676 1.429 . S
C1695 C1689 1.429 . S
C1695 C1696 1.523 . S
C1696 C1677 1.368 . S
C1696 C1690 1.368 . S
C1696 C1695 1.523 . S
C1697 C1681 1.429 . S
C1697 C1693 1.429 . S
C1697 C1698 1.523 . S
C1698 C1682 1.368 . S
C1698 C1694 1.368 . S
C1698 C1697 1.523 . S
H1699 C1674 0.950 . S
H1700 C1676 0.950 . S
H1701 C1677 0.949 . S
H1702 C1679 0.950 . S
H1703 C1681 0.950 . S
C1704 C1705 1.349 1_556 S
C1704 C1706 1.327 . S
C1704 H1729 0.950 . S
C1705 C1704 1.349 1_554 S
C1705 C1721 1.349 . S
C1706 C1704 1.327 . S
C1706 C1725 1.429 1_556 S
C1706 H1730 0.950 . S
C1707 C1724 1.574 . S
C1707 C1726 1.368 . S
C1707 H1731 0.949 . S
H1708 C1712 0.949 . S
C1709 C1710 1.349 1_554 S
C1709 C1711 1.327 . S
C1709 H1732 0.950 . S
C1710 C1709 1.349 1_556 S
C1710 C1722 1.349 . S
C1711 C1709 1.327 . S
C1711 C1727 1.429 1_554 S
C1711 H1733 0.950 . S
C1712 H1708 0.949 . S
C1712 C1720 1.574 . S
C1712 C1728 1.382 . S
H1713 C1721 0.950 . S
H1714 C1719 0.950 . S
H1715 C1720 0.949 . S
H1716 C1722 0.950 . S
H1717 C1723 0.950 . S
H1718 C1724 0.949 . S
C1719 H1714 0.950 . S
C1719 C1721 1.327 . S
C1719 C1725 1.429 . S
C1720 C1712 1.574 . S
C1720 H1715 0.949 . S
C1720 C1726 1.368 1_556 S
C1721 C1705 1.349 . S
C1721 H1713 0.950 . S
C1721 C1719 1.327 . S
C1722 C1710 1.349 . S
C1722 H1716 0.950 . S
C1722 C1723 1.327 . S
C1723 H1717 0.950 . S
C1723 C1722 1.327 . S
C1723 C1727 1.429 . S
C1724 C1707 1.574 . S
C1724 H1718 0.949 . S
C1724 C1728 1.353 1_554 S
C1725 C1706 1.429 1_554 S
C1725 C1719 1.429 . S
C1725 C1726 1.523 . S
C1726 C1707 1.368 . S
C1726 C1720 1.368 1_554 S
C1726 C1725 1.523 . S
C1727 C1711 1.429 1_556 S
C1727 C1723 1.429 . S
C1727 C1728 1.524 . S
C1728 C1712 1.382 . S
C1728 C1724 1.353 1_556 S
C1728 C1727 1.524 . S
H1729 C1704 0.950 . S
H1730 C1706 0.950 . S
H1731 C1707 0.949 . S
H1732 C1709 0.950 . S
H1733 C1711 0.950 . S
C1734 C1735 1.349 . S
C1734 C1736 1.327 . S
C1734 H1759 0.950 . S
C1735 C1734 1.349 . S
C1735 C1751 1.349 . S
C1736 C1734 1.327 . S
C1736 C1755 1.429 . S
C1736 H1760 0.950 . S
C1737 C1754 1.574 . S
C1737 C1756 1.368 . S
C1737 H1761 0.949 . S
H1738 C1742 0.949 . S
C1739 C1740 1.349 . S
C1739 C1741 1.327 . S
C1739 H1762 0.950 . S
C1740 C1739 1.349 . S
C1740 C1752 1.349 . S
C1741 C1739 1.327 . S
C1741 C1757 1.429 . S
C1741 H1763 0.950 . S
C1742 H1738 0.949 . S
C1742 C1750 1.574 . S
C1742 C1758 1.368 . S
H1743 C1751 0.950 . S
H1744 C1749 0.950 . S
H1745 C1750 0.949 . S
H1746 C1752 0.950 . S
H1747 C1753 0.950 . S
H1748 C1754 0.949 . S
C1749 H1744 0.950 . S
C1749 C1751 1.327 . S
C1749 C1755 1.429 . S
C1750 C1742 1.574 . S
C1750 H1745 0.949 . S
C1750 C1756 1.368 . S
C1751 C1735 1.349 . S
C1751 H1743 0.950 . S
C1751 C1749 1.327 . S
C1752 C1740 1.349 . S
C1752 H1746 0.950 . S
C1752 C1753 1.327 . S
C1753 H1747 0.950 . S
C1753 C1752 1.327 . S
C1753 C1757 1.429 . S
C1754 C1737 1.574 . S
C1754 H1748 0.949 . S
C1754 C1758 1.368 . S
C1755 C1736 1.429 . S
C1755 C1749 1.429 . S
C1755 C1756 1.523 . S
C1756 C1737 1.368 . S
C1756 C1750 1.368 . S
C1756 C1755 1.523 . S
C1757 C1741 1.429 . S
C1757 C1753 1.429 . S
C1757 C1758 1.523 . S
C1758 C1742 1.368 . S
C1758 C1754 1.368 . S
C1758 C1757 1.523 . S
H1759 C1734 0.950 . S
H1760 C1736 0.950 . S
H1761 C1737 0.949 . S
H1762 C1739 0.950 . S
H1763 C1741 0.950 . S
C1764 C1765 1.349 . S
C1764 C1766 1.327 . S
C1764 H1789 0.950 . S
C1765 C1764 1.349 . S
C1765 C1781 1.349 . S
C1766 C1764 1.327 . S
C1766 C1785 1.429 . S
C1766 H1790 0.950 . S
C1767 C1784 1.574 . S
C1767 C1786 1.368 . S
C1767 H1791 0.949 . S
H1768 C1772 0.949 . S
C1769 C1770 1.349 . S
C1769 C1771 1.327 . S
C1769 H1792 0.950 . S
C1770 C1769 1.349 . S
C1770 C1782 1.349 . S
C1771 C1769 1.327 . S
C1771 C1787 1.429 . S
C1771 H1793 0.950 . S
C1772 H1768 0.949 . S
C1772 C1780 1.574 . S
C1772 C1788 1.368 . S
H1773 C1781 0.950 . S
H1774 C1779 0.950 . S
H1775 C1780 0.949 . S
H1776 C1782 0.950 . S
H1777 C1783 0.950 . S
H1778 C1784 0.949 . S
C1779 H1774 0.950 . S
C1779 C1781 1.327 . S
C1779 C1785 1.429 . S
C1780 C1772 1.574 . S
C1780 H1775 0.949 . S
C1780 C1786 1.368 . S
C1781 C1765 1.349 . S
C1781 H1773 0.950 . S
C1781 C1779 1.327 . S
C1782 C1770 1.349 . S
C1782 H1776 0.950 . S
C1782 C1783 1.327 . S
C1783 H1777 0.950 . S
C1783 C1782 1.327 . S
C1783 C1787 1.429 . S
C1784 C1767 1.574 . S
C1784 H1778 0.949 . S
C1784 C1788 1.368 . S
C1785 C1766 1.429 . S
C1785 C1779 1.429 . S
C1785 C1786 1.523 . S
C1786 C1767 1.368 . S
C1786 C1780 1.368 . S
C1786 C1785 1.523 . S
C1787 C1771 1.429 . S
C1787 C1783 1.429 . S
C1787 C1788 1.523 . S
C1788 C1772 1.368 . S
C1788 C1784 1.368 . S
C1788 C1787 1.523 . S
H1789 C1764 0.950 . S
H1790 C1766 0.950 . S
H1791 C1767 0.949 . S
H1792 C1769 0.950 . S
H1793 C1771 0.950 . S
C1794 C1795 1.349 . S
C1794 C1796 1.327 . S
C1794 H1819 0.950 . S
C1795 C1794 1.349 . S
C1795 C1811 1.349 . S
C1796 C1794 1.327 . S
C1796 C1815 1.429 . S
C1796 H1820 0.950 . S
C1797 C1814 1.574 . S
C1797 C1816 1.368 . S
C1797 H1821 0.949 . S
H1798 C1802 0.949 . S
C1799 C1800 1.349 . S
C1799 C1801 1.327 . S
C1799 H1822 0.950 . S
C1800 C1799 1.349 . S
C1800 C1812 1.349 . S
C1801 C1799 1.327 . S
C1801 C1817 1.429 . S
C1801 H1823 0.950 . S
C1802 H1798 0.949 . S
C1802 C1810 1.574 . S
C1802 C1818 1.368 . S
H1803 C1811 0.950 . S
H1804 C1809 0.950 . S
H1805 C1810 0.949 . S
H1806 C1812 0.950 . S
H1807 C1813 0.950 . S
H1808 C1814 0.949 . S
C1809 H1804 0.950 . S
C1809 C1811 1.327 . S
C1809 C1815 1.429 . S
C1810 C1802 1.574 . S
C1810 H1805 0.949 . S
C1810 C1816 1.368 . S
C1811 C1795 1.349 . S
C1811 H1803 0.950 . S
C1811 C1809 1.327 . S
C1812 C1800 1.349 . S
C1812 H1806 0.950 . S
C1812 C1813 1.327 . S
C1813 H1807 0.950 . S
C1813 C1812 1.327 . S
C1813 C1817 1.429 . S
C1814 C1797 1.574 . S
C1814 H1808 0.949 . S
C1814 C1818 1.368 . S
C1815 C1796 1.429 . S
C1815 C1809 1.429 . S
C1815 C1816 1.523 . S
C1816 C1797 1.368 . S
C1816 C1810 1.368 . S
C1816 C1815 1.523 . S
C1817 C1801 1.429 . S
C1817 C1813 1.429 . S
C1817 C1818 1.523 . S
C1818 C1802 1.368 . S
C1818 C1814 1.368 . S
C1818 C1817 1.523 . S
H1819 C1794 0.950 . S
H1820 C1796 0.950 . S
H1821 C1797 0.949 . S
H1822 C1799 0.950 . S
H1823 C1801 0.950 . S
C1824 C1825 1.349 . S
C1824 C1826 1.327 . S
C1824 H1849 0.950 . S
C1825 C1824 1.349 . S
C1825 C1841 1.349 . S
C1826 C1824 1.327 . S
C1826 C1845 1.429 . S
C1826 H1850 0.950 . S
C1827 C1844 1.574 . S
C1827 C1846 1.368 . S
C1827 H1851 0.949 . S
H1828 C1832 0.949 . S
C1829 C1830 1.349 . S
C1829 C1831 1.327 . S
C1829 H1852 0.950 . S
C1830 C1829 1.349 . S
C1830 C1842 1.349 . S
C1831 C1829 1.327 . S
C1831 C1847 1.429 . S
C1831 H1853 0.950 . S
C1832 H1828 0.949 . S
C1832 C1840 1.574 . S
C1832 C1848 1.368 . S
H1833 C1841 0.950 . S
H1834 C1839 0.950 . S
H1835 C1840 0.949 . S
H1836 C1842 0.950 . S
H1837 C1843 0.950 . S
H1838 C1844 0.949 . S
C1839 H1834 0.950 . S
C1839 C1841 1.327 . S
C1839 C1845 1.429 . S
C1840 C1832 1.574 . S
C1840 H1835 0.949 . S
C1840 C1846 1.368 . S
C1841 C1825 1.349 . S
C1841 H1833 0.950 . S
C1841 C1839 1.327 . S
C1842 C1830 1.349 . S
C1842 H1836 0.950 . S
C1842 C1843 1.327 . S
C1843 H1837 0.950 . S
C1843 C1842 1.327 . S
C1843 C1847 1.429 . S
C1844 C1827 1.574 . S
C1844 H1838 0.949 . S
C1844 C1848 1.368 . S
C1845 C1826 1.429 . S
C1845 C1839 1.429 . S
C1845 C1846 1.523 . S
C1846 C1827 1.368 . S
C1846 C1840 1.368 . S
C1846 C1845 1.523 . S
C1847 C1831 1.429 . S
C1847 C1843 1.429 . S
C1847 C1848 1.523 . S
C1848 C1832 1.368 . S
C1848 C1844 1.368 . S
C1848 C1847 1.523 . S
H1849 C1824 0.950 . S
H1850 C1826 0.950 . S
H1851 C1827 0.949 . S
H1852 C1829 0.950 . S
H1853 C1831 0.950 . S
C1854 C1855 1.349 . S
C1854 C1856 1.327 . S
C1854 H1879 0.950 . S
C1855 C1854 1.349 . S
C1855 C1871 1.349 . S
C1856 C1854 1.327 . S
C1856 C1875 1.429 . S
C1856 H1880 0.950 . S
C1857 C1874 1.574 . S
C1857 C1876 1.368 . S
C1857 H1881 0.949 . S
H1858 C1862 0.949 . S
C1859 C1860 1.349 . S
C1859 C1861 1.327 . S
C1859 H1882 0.950 . S
C1860 C1859 1.349 . S
C1860 C1872 1.349 . S
C1861 C1859 1.327 . S
C1861 C1877 1.429 . S
C1861 H1883 0.950 . S
C1862 H1858 0.949 . S
C1862 C1870 1.574 . S
C1862 C1878 1.368 . S
H1863 C1871 0.950 . S
H1864 C1869 0.950 . S
H1865 C1870 0.949 . S
H1866 C1872 0.950 . S
H1867 C1873 0.950 . S
H1868 C1874 0.949 . S
C1869 H1864 0.950 . S
C1869 C1871 1.327 . S
C1869 C1875 1.429 . S
C1870 C1862 1.574 . S
C1870 H1865 0.949 . S
C1870 C1876 1.368 . S
C1871 C1855 1.349 . S
C1871 H1863 0.950 . S
C1871 C1869 1.327 . S
C1872 C1860 1.349 . S
C1872 H1866 0.950 . S
C1872 C1873 1.327 . S
C1873 H1867 0.950 . S
C1873 C1872 1.327 . S
C1873 C1877 1.429 . S
C1874 C1857 1.574 . S
C1874 H1868 0.949 . S
C1874 C1878 1.368 . S
C1875 C1856 1.429 . S
C1875 C1869 1.429 . S
C1875 C1876 1.523 . S
C1876 C1857 1.368 . S
C1876 C1870 1.368 . S
C1876 C1875 1.523 . S
C1877 C1861 1.429 . S
C1877 C1873 1.429 . S
C1877 C1878 1.523 . S
C1878 C1862 1.368 . S
C1878 C1874 1.368 . S
C1878 C1877 1.523 . S
H1879 C1854 0.950 . S
H1880 C1856 0.950 . S
H1881 C1857 0.949 . S
H1882 C1859 0.950 . S
H1883 C1861 0.950 . S
C1884 C1885 1.349 1_565 S
C1884 C1886 1.327 . S
C1884 H1909 0.950 . S
C1885 C1884 1.349 1_545 S
C1885 C1901 1.349 . S
C1886 C1884 1.327 . S
C1886 C1905 1.429 1_565 S
C1886 H1910 0.950 . S
C1887 C1904 1.574 . S
C1887 C1906 1.368 . S
C1887 H1911 0.949 . S
H1888 C1892 0.949 . S
C1889 C1890 1.349 1_545 S
C1889 C1891 1.327 . S
C1889 H1912 0.950 . S
C1890 C1889 1.349 1_565 S
C1890 C1902 1.349 . S
C1891 C1889 1.327 . S
C1891 C1907 1.429 1_545 S
C1891 H1913 0.950 . S
C1892 H1888 0.949 . S
C1892 C1900 1.574 . S
C1892 C1908 1.393 . S
H1893 C1901 0.950 . S
H1894 C1899 0.950 . S
H1895 C1900 0.949 . S
H1896 C1902 0.950 . S
H1897 C1903 0.950 . S
H1898 C1904 0.949 . S
C1899 H1894 0.950 . S
C1899 C1901 1.327 . S
C1899 C1905 1.429 . S
C1900 C1892 1.574 . S
C1900 H1895 0.949 . S
C1900 C1906 1.368 1_565 S
C1901 C1885 1.349 . S
C1901 H1893 0.950 . S
C1901 C1899 1.327 . S
C1902 C1890 1.349 . S
C1902 H1896 0.950 . S
C1902 C1903 1.327 . S
C1903 H1897 0.950 . S
C1903 C1902 1.327 . S
C1903 C1907 1.429 . S
C1904 C1887 1.574 . S
C1904 H1898 0.949 . S
C1904 C1908 1.342 1_545 S
C1905 C1886 1.429 1_545 S
C1905 C1899 1.429 . S
C1905 C1906 1.523 . S
C1906 C1887 1.368 . S
C1906 C1900 1.368 1_545 S
C1906 C1905 1.523 . S
C1907 C1891 1.429 1_565 S
C1907 C1903 1.429 . S
C1907 C1908 1.525 . S
C1908 C1892 1.393 . S
C1908 C1904 1.342 1_565 S
C1908 C1907 1.525 . S
H1909 C1884 0.950 . S
H1910 C1886 0.950 . S
H1911 C1887 0.949 . S
H1912 C1889 0.950 . S
H1913 C1891 0.950 . S
C1914 C1915 1.349 1_554 S
C1914 C1916 1.327 . S
C1914 H1939 0.950 . S
C1915 C1914 1.349 1_556 S
C1915 C1931 1.349 . S
C1916 C1914 1.327 . S
C1916 C1935 1.429 1_554 S
C1916 H1940 0.950 . S
C1917 C1934 1.574 . S
C1917 C1936 1.381 . S
C1917 H1941 0.949 . S
H1918 C1922 0.949 . S
C1919 C1920 1.349 1_556 S
C1919 C1921 1.327 . S
C1919 H1942 0.950 . S
C1920 C1919 1.349 1_554 S
C1920 C1932 1.349 . S
C1921 C1919 1.327 . S
C1921 C1937 1.429 1_556 S
C1921 H1943 0.950 . S
C1922 H1918 0.949 . S
C1922 C1930 1.574 . S
C1922 C1938 1.368 . S
H1923 C1931 0.950 . S
H1924 C1929 0.950 . S
H1925 C1930 0.949 . S
H1926 C1932 0.950 . S
H1927 C1933 0.950 . S
H1928 C1934 0.949 . S
C1929 H1924 0.950 . S
C1929 C1931 1.327 . S
C1929 C1935 1.429 . S
C1930 C1922 1.574 . S
C1930 H1925 0.949 . S
C1930 C1936 1.355 1_554 S
C1931 C1915 1.349 . S
C1931 H1923 0.950 . S
C1931 C1929 1.327 . S
C1932 C1920 1.349 . S
C1932 H1926 0.950 . S
C1932 C1933 1.327 . S
C1933 H1927 0.950 . S
C1933 C1932 1.327 . S
C1933 C1937 1.429 . S
C1934 C1917 1.574 . S
C1934 H1928 0.949 . S
C1934 C1938 1.368 1_556 S
C1935 C1916 1.429 1_556 S
C1935 C1929 1.429 . S
C1935 C1936 1.524 . S
C1936 C1917 1.381 . S
C1936 C1930 1.355 1_556 S
C1936 C1935 1.524 . S
C1937 C1921 1.429 1_554 S
C1937 C1933 1.429 . S
C1937 C1938 1.523 . S
C1938 C1922 1.368 . S
C1938 C1934 1.368 1_554 S
C1938 C1937 1.523 . S
H1939 C1914 0.950 . S
H1940 C1916 0.950 . S
H1941 C1917 0.949 . S
H1942 C1919 0.950 . S
H1943 C1921 0.950 . S
C1944 C1945 1.349 1_655 S
C1944 C1946 1.327 . S
C1944 H1969 0.950 . S
C1945 C1944 1.349 1_455 S
C1945 C1961 1.349 . S
C1946 C1944 1.327 . S
C1946 C1965 1.429 1_655 S
C1946 H1970 0.950 . S
C1947 C1964 1.585 . S
C1947 C1966 1.368 . S
C1947 H1971 0.949 . S
H1948 C1952 0.949 . S
C1949 C1950 1.349 . S
C1949 C1951 1.327 . S
C1949 H1972 0.950 . S
C1950 C1949 1.349 . S
C1950 C1962 1.349 1_455 S
C1951 C1949 1.327 . S
C1951 C1967 1.429 . S
C1951 H1973 0.950 . S
C1952 H1948 0.949 . S
C1952 C1960 1.574 1_545 S
C1952 C1968 1.368 1_655 S
H1953 C1961 0.950 . S
H1954 C1959 0.950 . S
H1955 C1960 0.949 . S
H1956 C1962 0.950 . S
H1957 C1963 0.950 . S
H1958 C1964 0.946 1_545 S
C1959 H1954 0.950 . S
C1959 C1961 1.327 . S
C1959 C1965 1.429 . S
C1960 C1952 1.574 1_565 S
C1960 H1955 0.949 . S
C1960 C1966 1.368 1_655 S
C1961 C1945 1.349 . S
C1961 H1953 0.950 . S
C1961 C1959 1.327 . S
C1962 C1950 1.349 1_655 S
C1962 H1956 0.950 . S
C1962 C1963 1.327 . S
C1963 H1957 0.950 . S
C1963 C1962 1.327 . S
C1963 C1967 1.429 1_655 S
C1964 C1947 1.585 . S
C1964 H1958 0.946 1_565 S
C1964 C1968 1.359 1_565 S
C1965 C1946 1.429 1_455 S
C1965 C1959 1.429 . S
C1965 C1966 1.523 . S
C1966 C1947 1.368 . S
C1966 C1960 1.368 1_455 S
C1966 C1965 1.523 . S
C1967 C1951 1.429 . S
C1967 C1963 1.429 1_455 S
C1967 C1968 1.523 . S
C1968 C1952 1.368 1_455 S
C1968 C1964 1.359 1_545 S
C1968 C1967 1.523 . S
H1969 C1944 0.950 . S
H1970 C1946 0.950 . S
H1971 C1947 0.949 . S
H1972 C1949 0.950 . S
H1973 C1951 0.950 . S
C1974 C1975 1.349 1_455 S
C1974 C1976 1.327 . S
C1974 H1999 0.950 . S
C1975 C1974 1.349 1_655 S
C1975 C1991 1.349 . S
C1976 C1974 1.327 . S
C1976 C1995 1.429 1_455 S
C1976 H2000 0.950 . S
C1977 C1994 1.574 . S
C1977 C1996 1.368 . S
C1977 H2001 0.949 . S
H1978 C1982 0.949 . S
C1979 C1980 1.349 . S
C1979 C1981 1.327 . S
C1979 H2002 0.950 . S
C1980 C1979 1.349 . S
C1980 C1992 1.349 1_655 S
C1981 C1979 1.327 . S
C1981 C1997 1.429 . S
C1981 H2003 0.950 . S
C1982 H1978 0.949 . S
C1982 C1990 1.574 . S
C1982 C1998 1.368 1_455 S
H1983 C1991 0.950 . S
H1984 C1989 0.950 . S
H1985 C1990 0.949 . S
H1986 C1992 0.950 . S
H1987 C1993 0.950 . S
H1988 C1994 0.949 . S
C1989 H1984 0.950 . S
C1989 C1991 1.327 . S
C1989 C1995 1.429 . S
C1990 C1982 1.574 . S
C1990 H1985 0.949 . S
C1990 C1996 1.368 1_455 S
C1991 C1975 1.349 . S
C1991 H1983 0.950 . S
C1991 C1989 1.327 . S
C1992 C1980 1.349 1_455 S
C1992 H1986 0.950 . S
C1992 C1993 1.327 . S
C1993 H1987 0.950 . S
C1993 C1992 1.327 . S
C1993 C1997 1.429 1_455 S
C1994 C1977 1.574 . S
C1994 H1988 0.949 . S
C1994 C1998 1.368 . S
C1995 C1976 1.429 1_655 S
C1995 C1989 1.429 . S
C1995 C1996 1.523 . S
C1996 C1977 1.368 . S
C1996 C1990 1.368 1_655 S
C1996 C1995 1.523 . S
C1997 C1981 1.429 . S
C1997 C1993 1.429 1_655 S
C1997 C1998 1.523 . S
C1998 C1982 1.368 1_655 S
C1998 C1994 1.368 . S
C1998 C1997 1.523 . S
H1999 C1974 0.950 . S
H2000 C1976 0.950 . S
H2001 C1977 0.949 . S
H2002 C1979 0.950 . S
H2003 C1981 0.950 . S
C2004 C2005 1.349 1_565 S
C2004 C2006 1.327 . S
C2004 H2029 0.950 . S
C2005 C2004 1.349 1_545 S
C2005 C2021 1.349 . S
C2006 C2004 1.327 . S
C2006 C2025 1.429 1_565 S
C2006 H2030 0.950 . S
C2007 C2024 1.574 1_556 S
C2007 C2026 1.368 . S
C2007 H2031 0.949 . S
H2008 C2012 0.949 . S
C2009 C2010 1.349 . S
C2009 C2011 1.327 . S
C2009 H2032 0.950 . S
C2010 C2009 1.349 . S
C2010 C2022 1.349 1_545 S
C2011 C2009 1.327 . S
C2011 C2027 1.429 . S
C2011 H2033 0.950 . S
C2012 H2008 0.949 . S
C2012 C2020 1.574 . S
C2012 C2028 1.368 1_566 S
H2013 C2021 0.950 . S
H2014 C2019 0.950 . S
H2015 C2020 0.949 . S
H2016 C2022 0.950 . S
H2017 C2023 0.950 . S
H2018 C2024 0.949 . S
C2019 H2014 0.950 . S
C2019 C2021 1.327 . S
C2019 C2025 1.429 . S
C2020 C2012 1.574 . S
C2020 H2015 0.949 . S
C2020 C2026 1.368 1_565 S
C2021 C2005 1.349 . S
C2021 H2013 0.950 . S
C2021 C2019 1.327 . S
C2022 C2010 1.349 1_565 S
C2022 H2016 0.950 . S
C2022 C2023 1.327 . S
C2023 H2017 0.950 . S
C2023 C2022 1.327 . S
C2023 C2027 1.429 1_565 S
C2024 C2007 1.574 1_554 S
C2024 H2018 0.949 . S
C2024 C2028 1.368 . S
C2025 C2006 1.429 1_545 S
C2025 C2019 1.429 . S
C2025 C2026 1.523 . S
C2026 C2007 1.368 . S
C2026 C2020 1.368 1_545 S
C2026 C2025 1.523 . S
C2027 C2011 1.429 . S
C2027 C2023 1.429 1_545 S
C2027 C2028 1.523 . S
C2028 C2012 1.368 1_544 S
C2028 C2024 1.368 . S
C2028 C2027 1.523 . S
H2029 C2004 0.950 . S
H2030 C2006 0.950 . S
H2031 C2007 0.949 . S
H2032 C2009 0.950 . S
H2033 C2011 0.950 . S
C2034 C2035 1.349 . S
C2034 C2036 1.327 . S
C2034 H2059 0.950 . S
C2035 C2034 1.349 . S
C2035 C2051 1.349 . S
C2036 C2034 1.327 . S
C2036 C2055 1.429 . S
C2036 H2060 0.950 . S
C2037 C2054 1.574 1_554 S
C2037 C2056 1.368 . S
C2037 H2061 0.949 . S
H2038 C2042 0.949 . S
C2039 C2040 1.349 . S
C2039 C2041 1.327 . S
C2039 H2062 0.950 . S
C2040 C2039 1.349 . S
C2040 C2052 1.349 . S
C2041 C2039 1.327 . S
C2041 C2057 1.429 . S
C2041 H2063 0.950 . S
C2042 H2038 0.949 . S
C2042 C2050 1.574 . S
C2042 C2058 1.368 . S
H2043 C2051 0.950 . S
H2044 C2049 0.950 . S
H2045 C2050 0.949 . S
H2046 C2052 0.950 . S
H2047 C2053 0.950 . S
H2048 C2054 0.949 . S
C2049 H2044 0.950 . S
C2049 C2051 1.327 . S
C2049 C2055 1.429 . S
C2050 C2042 1.574 . S
C2050 H2045 0.949 . S
C2050 C2056 1.368 1_556 S
C2051 C2035 1.349 . S
C2051 H2043 0.950 . S
C2051 C2049 1.327 . S
C2052 C2040 1.349 . S
C2052 H2046 0.950 . S
C2052 C2053 1.327 . S
C2053 H2047 0.950 . S
C2053 C2052 1.327 . S
C2053 C2057 1.429 . S
C2054 C2037 1.574 1_556 S
C2054 H2048 0.949 . S
C2054 C2058 1.368 . S
C2055 C2036 1.429 . S
C2055 C2049 1.429 . S
C2055 C2056 1.523 . S
C2056 C2037 1.368 . S
C2056 C2050 1.368 1_554 S
C2056 C2055 1.523 . S
C2057 C2041 1.429 . S
C2057 C2053 1.429 . S
C2057 C2058 1.523 . S
C2058 C2042 1.368 . S
C2058 C2054 1.368 . S
C2058 C2057 1.523 . S
H2059 C2034 0.950 . S
H2060 C2036 0.950 . S
H2061 C2037 0.949 . S
H2062 C2039 0.950 . S
H2063 C2041 0.950 . S
C2064 C2065 1.349 . S
C2064 C2066 1.327 . S
C2064 H2089 0.950 . S
C2065 C2064 1.349 . S
C2065 C2081 1.349 1_565 S
C2066 C2064 1.327 . S
C2066 C2085 1.429 . S
C2066 H2090 0.950 . S
C2067 C2084 1.574 . S
C2067 C2086 1.368 1_545 S
C2067 H2091 0.949 . S
H2068 C2072 0.949 . S
C2069 C2070 1.349 1_545 S
C2069 C2071 1.327 . S
C2069 H2092 0.950 . S
C2070 C2069 1.349 1_565 S
C2070 C2082 1.349 . S
C2071 C2069 1.327 . S
C2071 C2087 1.429 1_545 S
C2071 H2093 0.950 . S
C2072 H2068 0.949 . S
C2072 C2080 1.574 . S
C2072 C2088 1.368 . S
H2073 C2081 0.950 . S
H2074 C2079 0.950 . S
H2075 C2080 0.949 . S
H2076 C2082 0.950 . S
H2077 C2083 0.950 . S
H2078 C2084 0.949 . S
C2079 H2074 0.950 . S
C2079 C2081 1.327 . S
C2079 C2085 1.429 1_545 S
C2080 C2072 1.574 . S
C2080 H2075 0.949 . S
C2080 C2086 1.368 . S
C2081 C2065 1.349 1_545 S
C2081 H2073 0.950 . S
C2081 C2079 1.327 . S
C2082 C2070 1.349 . S
C2082 H2076 0.950 . S
C2082 C2083 1.327 . S
C2083 H2077 0.950 . S
C2083 C2082 1.327 . S
C2083 C2087 1.429 . S
C2084 C2067 1.574 . S
C2084 H2078 0.949 . S
C2084 C2088 1.368 1_545 S
C2085 C2066 1.429 . S
C2085 C2079 1.429 1_565 S
C2085 C2086 1.523 . S
C2086 C2067 1.368 1_565 S
C2086 C2080 1.368 . S
C2086 C2085 1.523 . S
C2087 C2071 1.429 1_565 S
C2087 C2083 1.429 . S
C2087 C2088 1.523 . S
C2088 C2072 1.368 . S
C2088 C2084 1.368 1_565 S
C2088 C2087 1.523 . S
H2089 C2064 0.950 . S
H2090 C2066 0.950 . S
H2091 C2067 0.949 . S
H2092 C2069 0.950 . S
H2093 C2071 0.950 . S
C2094 C2095 1.349 . S
C2094 C2096 1.327 . S
C2094 H2119 0.950 . S
C2095 C2094 1.349 . S
C2095 C2111 1.349 . S
C2096 C2094 1.327 . S
C2096 C2115 1.429 . S
C2096 H2120 0.950 . S
C2097 C2114 1.574 . S
C2097 C2116 1.368 . S
C2097 H2121 0.949 . S
H2098 C2102 0.949 . S
C2099 C2100 1.349 . S
C2099 C2101 1.327 . S
C2099 H2122 0.950 . S
C2100 C2099 1.349 . S
C2100 C2112 1.349 . S
C2101 C2099 1.327 . S
C2101 C2117 1.429 . S
C2101 H2123 0.950 . S
C2102 H2098 0.949 . S
C2102 C2110 1.574 . S
C2102 C2118 1.368 . S
H2103 C2111 0.950 . S
H2104 C2109 0.950 . S
H2105 C2110 0.949 . S
H2106 C2112 0.950 . S
H2107 C2113 0.950 . S
H2108 C2114 0.949 . S
C2109 H2104 0.950 . S
C2109 C2111 1.327 . S
C2109 C2115 1.429 . S
C2110 C2102 1.574 . S
C2110 H2105 0.949 . S
C2110 C2116 1.368 . S
C2111 C2095 1.349 . S
C2111 H2103 0.950 . S
C2111 C2109 1.327 . S
C2112 C2100 1.349 . S
C2112 H2106 0.950 . S
C2112 C2113 1.327 . S
C2113 H2107 0.950 . S
C2113 C2112 1.327 . S
C2113 C2117 1.429 . S
C2114 C2097 1.574 . S
C2114 H2108 0.949 . S
C2114 C2118 1.368 . S
C2115 C2096 1.429 . S
C2115 C2109 1.429 . S
C2115 C2116 1.523 . S
C2116 C2097 1.368 . S
C2116 C2110 1.368 . S
C2116 C2115 1.523 . S
C2117 C2101 1.429 . S
C2117 C2113 1.429 . S
C2117 C2118 1.523 . S
C2118 C2102 1.368 . S
C2118 C2114 1.368 . S
C2118 C2117 1.523 . S
H2119 C2094 0.950 . S
H2120 C2096 0.950 . S
H2121 C2097 0.949 . S
H2122 C2099 0.950 . S
H2123 C2101 0.950 . S
C2124 C2125 1.349 1_556 S
C2124 C2126 1.327 . S
C2124 H2149 0.950 . S
C2125 C2124 1.349 1_554 S
C2125 C2141 1.349 . S
C2126 C2124 1.327 . S
C2126 C2145 1.429 1_556 S
C2126 H2150 0.950 . S
C2127 C2144 1.574 . S
C2127 C2146 1.368 1_655 S
C2127 H2151 0.949 . S
H2128 C2132 0.949 . S
C2129 C2130 1.349 . S
C2129 C2131 1.327 . S
C2129 H2152 0.950 . S
C2130 C2129 1.349 . S
C2130 C2142 1.349 1_554 S
C2131 C2129 1.327 . S
C2131 C2147 1.429 . S
C2131 H2153 0.950 . S
C2132 H2128 0.949 . S
C2132 C2140 1.574 1_655 S
C2132 C2148 1.368 1_556 S
H2133 C2141 0.950 . S
H2134 C2139 0.950 . S
H2135 C2140 0.949 . S
H2136 C2142 0.950 . S
H2137 C2143 0.950 . S
H2138 C2144 0.949 . S
C2139 H2134 0.950 . S
C2139 C2141 1.327 . S
C2139 C2145 1.429 . S
C2140 C2132 1.574 1_455 S
C2140 H2135 0.949 . S
C2140 C2146 1.368 1_556 S
C2141 C2125 1.349 . S
C2141 H2133 0.950 . S
C2141 C2139 1.327 . S
C2142 C2130 1.349 1_556 S
C2142 H2136 0.950 . S
C2142 C2143 1.327 . S
C2143 H2137 0.950 . S
C2143 C2142 1.327 . S
C2143 C2147 1.429 1_556 S
C2144 C2127 1.574 . S
C2144 H2138 0.949 . S
C2144 C2148 1.368 . S
C2145 C2126 1.429 1_554 S
C2145 C2139 1.429 . S
C2145 C2146 1.523 . S
C2146 C2127 1.368 1_455 S
C2146 C2140 1.368 1_554 S
C2146 C2145 1.523 . S
C2147 C2131 1.429 . S
C2147 C2143 1.429 1_554 S
C2147 C2148 1.523 . S
C2148 C2132 1.368 1_554 S
C2148 C2144 1.368 . S
C2148 C2147 1.523 . S
H2149 C2124 0.950 . S
H2150 C2126 0.950 . S
H2151 C2127 0.949 . S
H2152 C2129 0.950 . S
H2153 C2131 0.950 . S
C2154 C2155 1.349 . S
C2154 C2156 1.327 . S
C2154 H2179 0.950 . S
C2155 C2154 1.349 . S
C2155 C2171 1.349 . S
C2156 C2154 1.327 . S
C2156 C2175 1.429 . S
C2156 H2180 0.950 . S
C2157 C2174 1.574 . S
C2157 C2176 1.368 1_655 S
C2157 H2181 0.949 . S
H2158 C2162 0.949 . S
C2159 C2160 1.349 . S
C2159 C2161 1.327 . S
C2159 H2182 0.950 . S
C2160 C2159 1.349 . S
C2160 C2172 1.349 . S
C2161 C2159 1.327 . S
C2161 C2177 1.429 . S
C2161 H2183 0.950 . S
C2162 H2158 0.949 . S
C2162 C2170 1.574 1_655 S
C2162 C2178 1.368 . S
H2163 C2171 0.950 . S
H2164 C2169 0.950 . S
H2165 C2170 0.949 . S
H2166 C2172 0.950 . S
H2167 C2173 0.950 . S
H2168 C2174 0.949 . S
C2169 H2164 0.950 . S
C2169 C2171 1.327 . S
C2169 C2175 1.429 . S
C2170 C2162 1.574 1_455 S
C2170 H2165 0.949 . S
C2170 C2176 1.368 . S
C2171 C2155 1.349 . S
C2171 H2163 0.950 . S
C2171 C2169 1.327 . S
C2172 C2160 1.349 . S
C2172 H2166 0.950 . S
C2172 C2173 1.327 . S
C2173 H2167 0.950 . S
C2173 C2172 1.327 . S
C2173 C2177 1.429 . S
C2174 C2157 1.574 . S
C2174 H2168 0.949 . S
C2174 C2178 1.368 . S
C2175 C2156 1.429 . S
C2175 C2169 1.429 . S
C2175 C2176 1.523 . S
C2176 C2157 1.368 1_455 S
C2176 C2170 1.368 . S
C2176 C2175 1.523 . S
C2177 C2161 1.429 . S
C2177 C2173 1.429 . S
C2177 C2178 1.523 . S
C2178 C2162 1.368 . S
C2178 C2174 1.368 . S
C2178 C2177 1.523 . S
H2179 C2154 0.950 . S
H2180 C2156 0.950 . S
H2181 C2157 0.949 . S
H2182 C2159 0.950 . S
H2183 C2161 0.950 . S
C2184 C2185 1.349 . S
C2184 C2186 1.327 . S
C2184 H2209 0.950 . S
C2185 C2184 1.349 . S
C2185 C2201 1.349 . S
C2186 C2184 1.327 . S
C2186 C2205 1.429 . S
C2186 H2210 0.950 . S
C2187 C2204 1.574 . S
C2187 C2206 1.368 . S
C2187 H2211 0.949 . S
H2188 C2192 0.949 . S
C2189 C2190 1.349 . S
C2189 C2191 1.327 . S
C2189 H2212 0.950 . S
C2190 C2189 1.349 . S
C2190 C2202 1.349 . S
C2191 C2189 1.327 . S
C2191 C2207 1.429 . S
C2191 H2213 0.950 . S
C2192 H2188 0.949 . S
C2192 C2200 1.574 . S
C2192 C2208 1.368 . S
H2193 C2201 0.950 . S
H2194 C2199 0.950 . S
H2195 C2200 0.949 . S
H2196 C2202 0.950 . S
H2197 C2203 0.950 . S
H2198 C2204 0.949 . S
C2199 H2194 0.950 . S
C2199 C2201 1.327 . S
C2199 C2205 1.429 . S
C2200 C2192 1.574 . S
C2200 H2195 0.949 . S
C2200 C2206 1.368 . S
C2201 C2185 1.349 . S
C2201 H2193 0.950 . S
C2201 C2199 1.327 . S
C2202 C2190 1.349 . S
C2202 H2196 0.950 . S
C2202 C2203 1.327 . S
C2203 H2197 0.950 . S
C2203 C2202 1.327 . S
C2203 C2207 1.429 . S
C2204 C2187 1.574 . S
C2204 H2198 0.949 . S
C2204 C2208 1.368 . S
C2205 C2186 1.429 . S
C2205 C2199 1.429 . S
C2205 C2206 1.523 . S
C2206 C2187 1.368 . S
C2206 C2200 1.368 . S
C2206 C2205 1.523 . S
C2207 C2191 1.429 . S
C2207 C2203 1.429 . S
C2207 C2208 1.523 . S
C2208 C2192 1.368 . S
C2208 C2204 1.368 . S
C2208 C2207 1.523 . S
H2209 C2184 0.950 . S
H2210 C2186 0.950 . S
H2211 C2187 0.949 . S
H2212 C2189 0.950 . S
H2213 C2191 0.950 . S
C2214 C2215 1.349 . S
C2214 C2216 1.327 . S
C2214 H2239 0.950 . S
C2215 C2214 1.349 . S
C2215 C2231 1.349 . S
C2216 C2214 1.327 . S
C2216 C2235 1.429 . S
C2216 H2240 0.950 . S
C2217 C2234 1.574 . S
C2217 C2236 1.368 . S
C2217 H2241 0.949 . S
H2218 C2222 0.949 . S
C2219 C2220 1.349 . S
C2219 C2221 1.327 . S
C2219 H2242 0.950 . S
C2220 C2219 1.349 . S
C2220 C2232 1.349 . S
C2221 C2219 1.327 . S
C2221 C2237 1.429 . S
C2221 H2243 0.950 . S
C2222 H2218 0.949 . S
C2222 C2230 1.574 . S
C2222 C2238 1.368 . S
H2223 C2231 0.950 . S
H2224 C2229 0.950 . S
H2225 C2230 0.949 . S
H2226 C2232 0.950 . S
H2227 C2233 0.950 . S
H2228 C2234 0.949 . S
C2229 H2224 0.950 . S
C2229 C2231 1.327 . S
C2229 C2235 1.429 . S
C2230 C2222 1.574 . S
C2230 H2225 0.949 . S
C2230 C2236 1.368 . S
C2231 C2215 1.349 . S
C2231 H2223 0.950 . S
C2231 C2229 1.327 . S
C2232 C2220 1.349 . S
C2232 H2226 0.950 . S
C2232 C2233 1.327 . S
C2233 H2227 0.950 . S
C2233 C2232 1.327 . S
C2233 C2237 1.429 . S
C2234 C2217 1.574 . S
C2234 H2228 0.949 . S
C2234 C2238 1.368 . S
C2235 C2216 1.429 . S
C2235 C2229 1.429 . S
C2235 C2236 1.523 . S
C2236 C2217 1.368 . S
C2236 C2230 1.368 . S
C2236 C2235 1.523 . S
C2237 C2221 1.429 . S
C2237 C2233 1.429 . S
C2237 C2238 1.523 . S
C2238 C2222 1.368 . S
C2238 C2234 1.368 . S
C2238 C2237 1.523 . S
H2239 C2214 0.950 . S
H2240 C2216 0.950 . S
H2241 C2217 0.949 . S
H2242 C2219 0.950 . S
H2243 C2221 0.950 . S
C2244 C2245 1.349 . S
C2244 C2246 1.327 . S
C2244 H2269 0.950 . S
C2245 C2244 1.349 . S
C2245 C2261 1.349 . S
C2246 C2244 1.327 . S
C2246 C2265 1.429 . S
C2246 H2270 0.950 . S
C2247 C2264 1.574 . S
C2247 C2266 1.368 . S
C2247 H2271 0.949 . S
H2248 C2252 0.949 . S
C2249 C2250 1.349 . S
C2249 C2251 1.327 . S
C2249 H2272 0.950 . S
C2250 C2249 1.349 . S
C2250 C2262 1.349 . S
C2251 C2249 1.327 . S
C2251 C2267 1.429 . S
C2251 H2273 0.950 . S
C2252 H2248 0.949 . S
C2252 C2260 1.574 . S
C2252 C2268 1.368 . S
H2253 C2261 0.950 . S
H2254 C2259 0.950 . S
H2255 C2260 0.949 . S
H2256 C2262 0.950 . S
H2257 C2263 0.950 . S
H2258 C2264 0.949 . S
C2259 H2254 0.950 . S
C2259 C2261 1.327 . S
C2259 C2265 1.429 . S
C2260 C2252 1.574 . S
C2260 H2255 0.949 . S
C2260 C2266 1.368 1_545 S
C2261 C2245 1.349 . S
C2261 H2253 0.950 . S
C2261 C2259 1.327 . S
C2262 C2250 1.349 . S
C2262 H2256 0.950 . S
C2262 C2263 1.327 . S
C2263 H2257 0.950 . S
C2263 C2262 1.327 . S
C2263 C2267 1.429 . S
C2264 C2247 1.574 . S
C2264 H2258 0.949 . S
C2264 C2268 1.368 1_565 S
C2265 C2246 1.429 . S
C2265 C2259 1.429 . S
C2265 C2266 1.523 . S
C2266 C2247 1.368 . S
C2266 C2260 1.368 1_565 S
C2266 C2265 1.523 . S
C2267 C2251 1.429 . S
C2267 C2263 1.429 . S
C2267 C2268 1.523 . S
C2268 C2252 1.368 . S
C2268 C2264 1.368 1_545 S
C2268 C2267 1.523 . S
H2269 C2244 0.950 . S
H2270 C2246 0.950 . S
H2271 C2247 0.949 . S
H2272 C2249 0.950 . S
H2273 C2251 0.950 . S
C2274 C2275 1.349 . S
C2274 C2276 1.327 . S
C2274 H2299 0.950 . S
C2275 C2274 1.349 . S
C2275 C2291 1.349 1_556 S
C2276 C2274 1.327 . S
C2276 C2295 1.429 . S
C2276 H2300 0.950 . S
C2277 C2294 1.574 . S
C2277 C2296 1.368 1_554 S
C2277 H2301 0.949 . S
H2278 C2282 0.949 . S
C2279 C2280 1.349 1_554 S
C2279 C2281 1.327 . S
C2279 H2302 0.950 . S
C2280 C2279 1.349 1_556 S
C2280 C2292 1.349 . S
C2281 C2279 1.327 . S
C2281 C2297 1.429 1_554 S
C2281 H2303 0.950 . S
C2282 H2278 0.949 . S
C2282 C2290 1.574 . S
C2282 C2298 1.368 . S
H2283 C2291 0.950 . S
H2284 C2289 0.950 . S
H2285 C2290 0.949 . S
H2286 C2292 0.950 . S
H2287 C2293 0.950 . S
H2288 C2294 0.949 . S
C2289 H2284 0.950 . S
C2289 C2291 1.327 . S
C2289 C2295 1.429 1_554 S
C2290 C2282 1.574 . S
C2290 H2285 0.949 . S
C2290 C2296 1.368 . S
C2291 C2275 1.349 1_554 S
C2291 H2283 0.950 . S
C2291 C2289 1.327 . S
C2292 C2280 1.349 . S
C2292 H2286 0.950 . S
C2292 C2293 1.327 . S
C2293 H2287 0.950 . S
C2293 C2292 1.327 . S
C2293 C2297 1.429 . S
C2294 C2277 1.574 . S
C2294 H2288 0.949 . S
C2294 C2298 1.368 1_554 S
C2295 C2276 1.429 . S
C2295 C2289 1.429 1_556 S
C2295 C2296 1.523 . S
C2296 C2277 1.368 1_556 S
C2296 C2290 1.368 . S
C2296 C2295 1.523 . S
C2297 C2281 1.429 1_556 S
C2297 C2293 1.429 . S
C2297 C2298 1.523 . S
C2298 C2282 1.368 . S
C2298 C2294 1.368 1_556 S
C2298 C2297 1.523 . S
H2299 C2274 0.950 . S
H2300 C2276 0.950 . S
H2301 C2277 0.949 . S
H2302 C2279 0.950 . S
H2303 C2281 0.950 . S
C865 C615 0.293 . S
C870 C2 0.394 . S
C895 C38 0.429 . S
C900 C579 0.449 . S
C925 C74 0.498 . S
C930 C687 0.459 . S
C955 C110 0.551 . S
C960 C651 0.559 . S
C985 C146 0.400 . S
C990 C759 0.297 . S
C1015 C182 0.453 . S
C1020 C795 0.432 . S
C1045 C723 0.451 . S
C1050 C218 0.423 . S
C1075 C399 0.524 . S
C1080 C254 0.500 . S
C1105 C290 0.400 . S
C1110 C111 0.297 . S
C1135 C39 0.427 . S
C1140 C326 0.454 . S
C1165 C362 0.648 . S
C1170 C3 0.647 . S
C1195 C398 0.500 . S
C1200 C507 0.524 . S
C1225 C183 0.698 . S
C1230 C434 0.694 . S
C1255 C147 0.643 . S
C1260 C470 0.649 . S
C1285 C506 0.500 . S
C1290 C255 0.524 . S
C1315 C542 0.453 . S
C1320 C219 0.432 . S
C1345 C327 0.698 . S
C1350 C578 0.694 . S
C1375 C363 0.561 . S
C1380 C614 0.545 . S
C1405 C291 0.643 . S
C1410 C650 0.649 . S
C1435 C686 0.498 . S
C1440 C831 0.459 . S
C1465 C543 0.698 . S
C1470 C722 0.694 . S
C1495 C758 0.551 . S
C1500 C471 0.559 . S
C1525 C435 0.451 . S
C1530 C794 0.423 . S
C1555 C830 0.498 . S
C1560 C75 0.459 . S
C1585 C4 1.768 . S
C1590 C40 1.759 . S
C1615 C112 1.632 . S
C1620 C76 1.642 . S
C1645 C148 1.768 . S
C1650 C220 1.759 . S
C1675 C184 1.970 . S
C1680 C256 1.955 . S
C1705 C796 1.758 . S
C1710 C292 1.769 . S
C1735 C328 1.970 . S
C1740 C400 1.956 . S
C1765 C724 1.854 . S
C1770 C364 1.868 . S
C1795 C472 1.868 . S
C1800 C436 1.854 . S
C1825 C508 1.955 . S
C1830 C544 1.970 . S
C1855 C652 1.868 . S
C1860 C580 1.854 . S
C1885 C616 1.632 . S
C1890 C688 1.642 . S
C1915 C832 1.641 . S
C1920 C760 1.633 . S
C1945 C86 1.025 . S
C1950 C14 1.022 . S
C1975 C50 1.324 . S
C1980 C122 1.327 . S
C2005 C698 1.025 . S
C2010 C158 1.022 . S
C2035 C194 1.244 . S
C2040 C662 1.249 . S
C2065 C230 1.324 . S
C2070 C626 1.327 . S
C2095 C590 1.553 . S
C2100 C266 1.548 . S
C2125 C302 1.022 . S
C2130 C842 1.025 . S
C2155 C338 1.244 . S
C2160 C374 1.249 . S
C2185 C734 1.553 . S
C2190 C410 1.548 . S
C2215 C446 1.553 . S
C2220 C518 1.548 . S
C2245 C482 1.249 . S
C2250 C554 1.244 . S
C2275 C806 1.324 . S
C2280 C770 1.327 . S
