# Generated by pormake.
# Topology uoe, (4)-cn, num edge types: 1
# Building blocks:
#     Node 0, Type 0, BuildingBlock: NAWXER_clean_sbu_0, # of connection points: 4
#     Node 1, Type 0, BuildingBlock: NAWXER_clean_sbu_0, # of connection points: 4
#     Node 2, Type 0, BuildingBlock: NAWXER_clean_sbu_0, # of connection points: 4
#     Node 3, Type 0, BuildingBlock: NAWXER_clean_sbu_0, # of connection points: 4
#     Node 4, Type 0, BuildingBlock: NAWXER_clean_sbu_0, # of connection points: 4
#     Node 5, Type 0, BuildingBlock: NAWXER_clean_sbu_0, # of connection points: 4
#     Node 6, Type 0, BuildingBlock: NAWXER_clean_sbu_0, # of connection points: 4
#     Node 7, Type 0, BuildingBlock: NAWXER_clean_sbu_0, # of connection points: 4
#     Node 8, Type 0, BuildingBlock: NAWXER_clean_sbu_0, # of connection points: 4
#     Node 9, Type 0, BuildingBlock: NAWXER_clean_sbu_0, # of connection points: 4
#     Node 10, Type 0, BuildingBlock: NAWXER_clean_sbu_0, # of connection points: 4
#     Node 11, Type 0, BuildingBlock: NAWXER_clean_sbu_0, # of connection points: 4
#     Node 12, Type 0, BuildingBlock: NAWXER_clean_sbu_0, # of connection points: 4
#     Node 13, Type 0, BuildingBlock: NAWXER_clean_sbu_0, # of connection points: 4
#     Node 14, Type 0, BuildingBlock: NAWXER_clean_sbu_0, # of connection points: 4
#     Node 15, Type 0, BuildingBlock: NAWXER_clean_sbu_0, # of connection points: 4
#     Node 16, Type 0, BuildingBlock: NAWXER_clean_sbu_0, # of connection points: 4
#     Node 17, Type 0, BuildingBlock: NAWXER_clean_sbu_0, # of connection points: 4
#     Node 18, Type 0, BuildingBlock: NAWXER_clean_sbu_0, # of connection points: 4
#     Node 19, Type 0, BuildingBlock: NAWXER_clean_sbu_0, # of connection points: 4
#     Node 20, Type 0, BuildingBlock: NAWXER_clean_sbu_0, # of connection points: 4
#     Node 21, Type 0, BuildingBlock: NAWXER_clean_sbu_0, # of connection points: 4
#     Node 22, Type 0, BuildingBlock: NAWXER_clean_sbu_0, # of connection points: 4
#     Node 23, Type 0, BuildingBlock: NAWXER_clean_sbu_0, # of connection points: 4
#     Node 24, Type 0, BuildingBlock: NAWXER_clean_sbu_0, # of connection points: 4
#     Node 25, Type 0, BuildingBlock: NAWXER_clean_sbu_0, # of connection points: 4
#     Node 26, Type 0, BuildingBlock: NAWXER_clean_sbu_0, # of connection points: 4
#     Node 27, Type 0, BuildingBlock: NAWXER_clean_sbu_0, # of connection points: 4
#     Node 28, Type 0, BuildingBlock: NAWXER_clean_sbu_0, # of connection points: 4
#     Node 29, Type 0, BuildingBlock: NAWXER_clean_sbu_0, # of connection points: 4
#     Node 30, Type 0, BuildingBlock: NAWXER_clean_sbu_0, # of connection points: 4
#     Node 31, Type 0, BuildingBlock: NAWXER_clean_sbu_0, # of connection points: 4
#     Edge 32, Type (0, 0), None
#     Edge 33, Type (0, 0), None
#     Edge 34, Type (0, 0), None
#     Edge 35, Type (0, 0), None
#     Edge 36, Type (0, 0), None
#     Edge 37, Type (0, 0), None
#     Edge 38, Type (0, 0), None
#     Edge 39, Type (0, 0), None
#     Edge 40, Type (0, 0), None
#     Edge 41, Type (0, 0), None
#     Edge 42, Type (0, 0), None
#     Edge 43, Type (0, 0), None
#     Edge 44, Type (0, 0), None
#     Edge 45, Type (0, 0), None
#     Edge 46, Type (0, 0), None
#     Edge 47, Type (0, 0), None
#     Edge 48, Type (0, 0), None
#     Edge 49, Type (0, 0), None
#     Edge 50, Type (0, 0), None
#     Edge 51, Type (0, 0), None
#     Edge 52, Type (0, 0), None
#     Edge 53, Type (0, 0), None
#     Edge 54, Type (0, 0), None
#     Edge 55, Type (0, 0), None
#     Edge 56, Type (0, 0), None
#     Edge 57, Type (0, 0), None
#     Edge 58, Type (0, 0), None
#     Edge 59, Type (0, 0), None
#     Edge 60, Type (0, 0), None
#     Edge 61, Type (0, 0), None
#     Edge 62, Type (0, 0), None
#     Edge 63, Type (0, 0), None
#     Edge 64, Type (0, 0), None
#     Edge 65, Type (0, 0), None
#     Edge 66, Type (0, 0), None
#     Edge 67, Type (0, 0), None
#     Edge 68, Type (0, 0), None
#     Edge 69, Type (0, 0), None
#     Edge 70, Type (0, 0), None
#     Edge 71, Type (0, 0), None
#     Edge 72, Type (0, 0), None
#     Edge 73, Type (0, 0), None
#     Edge 74, Type (0, 0), None
#     Edge 75, Type (0, 0), None
#     Edge 76, Type (0, 0), None
#     Edge 77, Type (0, 0), None
#     Edge 78, Type (0, 0), None
#     Edge 79, Type (0, 0), None
#     Edge 80, Type (0, 0), None
#     Edge 81, Type (0, 0), None
#     Edge 82, Type (0, 0), None
#     Edge 83, Type (0, 0), None
#     Edge 84, Type (0, 0), None
#     Edge 85, Type (0, 0), None
#     Edge 86, Type (0, 0), None
#     Edge 87, Type (0, 0), None
#     Edge 88, Type (0, 0), None
#     Edge 89, Type (0, 0), None
#     Edge 90, Type (0, 0), None
#     Edge 91, Type (0, 0), None
#     Edge 92, Type (0, 0), None
#     Edge 93, Type (0, 0), None
#     Edge 94, Type (0, 0), None
#     Edge 95, Type (0, 0), None
# Relax obj value: 0.105
# Max RMSD: 0.239
# Mean RMSD: 0.239
data_MOF--net-uoe--node1-NAWXER_clean_sbu_0--edge1-none
_symmetry_space_group_name_H-M    P1
_symmetry_Int_Tables_number       1
_symmetry_cell_setting            triclinic
loop_
_symmetry_equiv_pos_as_xyz
'x, y, z'
_cell_length_a     33.742294
_cell_length_b     33.742284
_cell_length_c     12.387422
_cell_angle_alpha  89.999739
_cell_angle_beta   89.998085
_cell_angle_gamma 90.000013
loop_
_atom_site_label
_atom_site_type_symbol
_atom_site_fract_x
_atom_site_fract_y
_atom_site_fract_z
_atom_type_partial_charge
C0 C 0.1169 0.39103 0.16254 0.0
C1 C 0.00519 0.47546 0.07315 0.0
O2 O 0.12881 0.42604 0.13859 0.0
Zn3 Zn 0.10025 0.47981 0.08238 0.0
O4 O 0.084 0.37886 0.12444 0.0
Zn5 Zn 0.0624 0.43043 0.07567 0.0
O6 O 0.08214 0.45224 0.91732 0.0
O7 O 0.12308 0.50159 0.95145 0.0
O8 O 0.00553 0.43775 0.06979 0.0
O9 O 0.03796 0.49463 0.07394 0.0
O10 O 0.11153 0.50765 0.21027 0.0
O11 O 0.0702 0.45661 0.22941 0.0
C12 C 0.10444 0.48071 0.88357 0.0
C13 C 0.09107 0.48436 0.26902 0.0
C14 C 0.7473 0.75519 0.32312 0.0
C15 C 0.83174 0.8669 0.41251 0.0
O16 O 0.72813 0.78795 0.32392 0.0
Zn17 Zn 0.74296 0.85025 0.33235 0.0
O18 O 0.78501 0.75553 0.31975 0.0
Zn19 Zn 0.79233 0.8124 0.32563 0.0
O20 O 0.76616 0.8202 0.47937 0.0
O21 O 0.71512 0.86153 0.46024 0.0
O22 O 0.8439 0.834 0.3744 0.0
O23 O 0.79673 0.87881 0.38856 0.0
O24 O 0.72118 0.87307 0.20142 0.0
O25 O 0.77052 0.83214 0.16729 0.0
C26 C 0.7384 0.84107 0.51899 0.0
C27 C 0.74206 0.85444 0.13354 0.0
C28 C 0.38167 0.4884 0.76903 0.0
C29 C 0.36831 0.49206 0.38358 0.0
O30 O 0.40255 0.51615 0.72941 0.0
Zn31 Zn 0.41035 0.54233 0.57567 0.0
O32 O 0.36122 0.46511 0.71028 0.0
Zn33 Zn 0.3725 0.49295 0.58239 0.0
O34 O 0.43479 0.47813 0.57395 0.0
O35 O 0.46722 0.535 0.56979 0.0
O36 O 0.34967 0.47118 0.45147 0.0
O37 O 0.39061 0.52052 0.41733 0.0
O38 O 0.38875 0.5939 0.62445 0.0
O39 O 0.34395 0.54672 0.6386 0.0
C40 C 0.46756 0.49729 0.57316 0.0
C41 C 0.35586 0.58173 0.66255 0.0
C42 C 0.73436 0.13167 0.01898 0.0
C43 C 0.7307 0.11831 0.63353 0.0
O44 O 0.7066 0.15255 0.97937 0.0
Zn45 Zn 0.68043 0.16035 0.82563 0.0
O46 O 0.75764 0.11122 0.96023 0.0
Zn47 Zn 0.72981 0.1225 0.83234 0.0
O48 O 0.74463 0.18479 0.82391 0.0
O49 O 0.68775 0.21722 0.81975 0.0
O50 O 0.75158 0.09967 0.70141 0.0
O51 O 0.70224 0.14061 0.66729 0.0
O52 O 0.62886 0.13875 0.8744 0.0
O53 O 0.67603 0.09394 0.88855 0.0
C54 C 0.72546 0.21756 0.82311 0.0
C55 C 0.64102 0.10585 0.91251 0.0
C56 C 0.09107 0.4884 0.38265 0.0
C57 C 0.10444 0.49207 0.76809 0.0
O58 O 0.0702 0.51616 0.42226 0.0
Zn59 Zn 0.0624 0.54234 0.576 0.0
O60 O 0.11153 0.46512 0.4414 0.0
Zn61 Zn 0.10025 0.49296 0.56929 0.0
O62 O 0.03795 0.47814 0.57773 0.0
O63 O 0.00553 0.53501 0.58189 0.0
O64 O 0.12308 0.47119 0.70021 0.0
O65 O 0.08214 0.52053 0.73435 0.0
O66 O 0.08399 0.59391 0.52722 0.0
O67 O 0.1288 0.54673 0.51307 0.0
C68 C 0.00519 0.4973 0.57853 0.0
C69 C 0.11689 0.58174 0.48911 0.0
C70 C 0.7307 0.85444 0.01807 0.0
C71 C 0.73436 0.84107 0.63262 0.0
O72 O 0.70224 0.83214 0.98432 0.0
Zn73 Zn 0.68042 0.8124 0.82598 0.0
O74 O 0.75158 0.87308 0.95018 0.0
Zn75 Zn 0.7298 0.85025 0.81926 0.0
O76 O 0.67603 0.8788 0.76304 0.0
O77 O 0.62885 0.834 0.7772 0.0
O78 O 0.75764 0.86153 0.69137 0.0
O79 O 0.7066 0.8202 0.67224 0.0
O80 O 0.68774 0.75553 0.83186 0.0
O81 O 0.74462 0.78795 0.8277 0.0
C82 C 0.64102 0.86689 0.73909 0.0
C83 C 0.72546 0.75519 0.8285 0.0
C84 C 0.35586 0.39102 0.98913 0.0
C85 C 0.46756 0.47546 0.07853 0.0
O86 O 0.34394 0.42603 0.01308 0.0
Zn87 Zn 0.3725 0.4798 0.0693 0.0
O88 O 0.38875 0.37885 0.02723 0.0
Zn89 Zn 0.41035 0.43042 0.07601 0.0
O90 O 0.39061 0.45224 0.23436 0.0
O91 O 0.34967 0.50158 0.20023 0.0
O92 O 0.46722 0.43774 0.0819 0.0
O93 O 0.43479 0.49462 0.07774 0.0
O94 O 0.36122 0.50764 0.94142 0.0
O95 O 0.40255 0.4566 0.92228 0.0
C96 C 0.36831 0.4807 0.26811 0.0
C97 C 0.38168 0.48436 0.88266 0.0
C98 C 0.74729 0.21756 0.32849 0.0
C99 C 0.83174 0.10586 0.23907 0.0
O100 O 0.72813 0.18479 0.3277 0.0
Zn101 Zn 0.74296 0.1225 0.31925 0.0
O102 O 0.78501 0.21722 0.33185 0.0
Zn103 Zn 0.79233 0.16035 0.32596 0.0
O104 O 0.76615 0.15255 0.17222 0.0
O105 O 0.71512 0.11122 0.19137 0.0
O106 O 0.8439 0.13876 0.27718 0.0
O107 O 0.79673 0.09395 0.26303 0.0
O108 O 0.72118 0.09967 0.45018 0.0
O109 O 0.77052 0.14061 0.48431 0.0
C110 C 0.7384 0.13168 0.13261 0.0
C111 C 0.74206 0.11831 0.51806 0.0
C112 C 0.88168 0.4884 0.88266 0.0
C113 C 0.86831 0.49206 0.2681 0.0
O114 O 0.86122 0.46511 0.94141 0.0
Zn115 Zn 0.8725 0.49295 0.0693 0.0
O116 O 0.90255 0.51615 0.92227 0.0
Zn117 Zn 0.91035 0.54233 0.076 0.0
O118 O 0.96722 0.53501 0.08189 0.0
O119 O 0.93479 0.47813 0.07773 0.0
O120 O 0.89061 0.52052 0.23435 0.0
O121 O 0.84967 0.47118 0.20022 0.0
O122 O 0.84394 0.54672 0.01308 0.0
O123 O 0.88875 0.5939 0.02722 0.0
C124 C 0.96756 0.4973 0.07852 0.0
C125 C 0.85586 0.58173 0.98912 0.0
C126 C 0.2307 0.11832 0.01807 0.0
C127 C 0.23436 0.13169 0.63262 0.0
O128 O 0.25158 0.09968 0.95019 0.0
Zn129 Zn 0.2298 0.12251 0.81926 0.0
O130 O 0.20224 0.14062 0.98432 0.0
Zn131 Zn 0.18042 0.16036 0.82597 0.0
O132 O 0.12886 0.13876 0.77719 0.0
O133 O 0.17603 0.09395 0.76303 0.0
O134 O 0.20661 0.15256 0.67223 0.0
O135 O 0.25764 0.11123 0.69138 0.0
O136 O 0.24462 0.1848 0.8277 0.0
O137 O 0.18775 0.21723 0.83185 0.0
C138 C 0.14102 0.10587 0.73907 0.0
C139 C 0.22546 0.21757 0.82849 0.0
C140 C 0.60444 0.48069 0.76811 0.0
C141 C 0.59107 0.48435 0.38266 0.0
O142 O 0.62308 0.50157 0.70022 0.0
Zn143 Zn 0.60025 0.47979 0.5693 0.0
O144 O 0.58213 0.45223 0.73436 0.0
Zn145 Zn 0.5624 0.43042 0.57601 0.0
O146 O 0.58399 0.37885 0.52723 0.0
O147 O 0.6288 0.42602 0.51308 0.0
O148 O 0.5702 0.4566 0.42227 0.0
O149 O 0.61153 0.50763 0.44141 0.0
O150 O 0.53795 0.49462 0.57774 0.0
O151 O 0.50553 0.43774 0.5819 0.0
C152 C 0.61689 0.39101 0.48912 0.0
C153 C 0.50519 0.47545 0.57854 0.0
C154 C 0.2384 0.84108 0.13262 0.0
C155 C 0.24206 0.85445 0.51807 0.0
O156 O 0.21512 0.86154 0.19138 0.0
Zn157 Zn 0.24296 0.85025 0.31926 0.0
O158 O 0.26615 0.82021 0.17223 0.0
Zn159 Zn 0.29233 0.8124 0.32596 0.0
O160 O 0.28501 0.75553 0.33185 0.0
O161 O 0.22813 0.78796 0.3277 0.0
O162 O 0.27052 0.83214 0.48431 0.0
O163 O 0.22118 0.87308 0.45019 0.0
O164 O 0.29673 0.87881 0.26304 0.0
O165 O 0.3439 0.834 0.27718 0.0
C166 C 0.24729 0.7552 0.3285 0.0
C167 C 0.33174 0.86689 0.23908 0.0
C168 C 0.88167 0.48436 0.76903 0.0
C169 C 0.86831 0.4807 0.38358 0.0
O170 O 0.86122 0.50764 0.71027 0.0
Zn171 Zn 0.8725 0.4798 0.58238 0.0
O172 O 0.90255 0.4566 0.72941 0.0
Zn173 Zn 0.91035 0.43043 0.57567 0.0
O174 O 0.96722 0.43775 0.56978 0.0
O175 O 0.93479 0.49463 0.57394 0.0
O176 O 0.89061 0.45224 0.41732 0.0
O177 O 0.84967 0.50158 0.45146 0.0
O178 O 0.84395 0.42603 0.63859 0.0
O179 O 0.88875 0.37885 0.62444 0.0
C180 C 0.96756 0.47546 0.57315 0.0
C181 C 0.85586 0.39102 0.66254 0.0
C182 C 0.2384 0.13168 0.51899 0.0
C183 C 0.24206 0.11832 0.13354 0.0
O184 O 0.21512 0.11123 0.46024 0.0
Zn185 Zn 0.24296 0.12251 0.33235 0.0
O186 O 0.26616 0.15255 0.47937 0.0
Zn187 Zn 0.29233 0.16036 0.32563 0.0
O188 O 0.28501 0.21723 0.31975 0.0
O189 O 0.22813 0.1848 0.32391 0.0
O190 O 0.27052 0.14062 0.16728 0.0
O191 O 0.22118 0.09968 0.20143 0.0
O192 O 0.29673 0.09395 0.38855 0.0
O193 O 0.34391 0.13876 0.37439 0.0
C194 C 0.2473 0.21757 0.32312 0.0
C195 C 0.33174 0.10586 0.4125 0.0
C196 C 0.60444 0.49205 0.88358 0.0
C197 C 0.59107 0.48839 0.26903 0.0
O198 O 0.62308 0.47117 0.95146 0.0
Zn199 Zn 0.60025 0.49295 0.08239 0.0
O200 O 0.58214 0.52051 0.91733 0.0
Zn201 Zn 0.5624 0.54233 0.07567 0.0
O202 O 0.584 0.5939 0.12444 0.0
O203 O 0.62881 0.54672 0.1386 0.0
O204 O 0.5702 0.51615 0.22941 0.0
O205 O 0.61153 0.46511 0.21027 0.0
O206 O 0.53795 0.47813 0.07395 0.0
O207 O 0.50553 0.53501 0.06979 0.0
C208 C 0.6169 0.58173 0.16255 0.0
C209 C 0.50519 0.49729 0.07316 0.0
C210 C 0.22546 0.7552 0.82312 0.0
C211 C 0.14102 0.8669 0.9125 0.0
O212 O 0.18775 0.75554 0.81975 0.0
Zn213 Zn 0.18043 0.81241 0.82563 0.0
O214 O 0.24463 0.78796 0.82391 0.0
Zn215 Zn 0.22981 0.85026 0.83235 0.0
O216 O 0.25764 0.86154 0.96024 0.0
O217 O 0.2066 0.82021 0.97937 0.0
O218 O 0.17604 0.87881 0.88855 0.0
O219 O 0.12886 0.83401 0.8744 0.0
O220 O 0.20224 0.83215 0.66729 0.0
O221 O 0.25159 0.87308 0.70142 0.0
C222 C 0.23436 0.84108 0.01899 0.0
C223 C 0.23071 0.85445 0.63354 0.0
C224 C 0.5052 0.97546 0.57309 0.0
C225 C 0.6169 0.89102 0.66252 0.0
O226 O 0.53796 -0.00538 0.57389 0.0
Zn227 Zn 0.60025 0.9798 0.58233 0.0
O228 O 0.50554 0.93774 0.56974 0.0
Zn229 Zn 0.56241 0.93042 0.57562 0.0
O230 O 0.57021 0.9566 0.72936 0.0
O231 O 0.61154 0.00764 0.71021 0.0
O232 O 0.584 0.87885 0.62441 0.0
O233 O 0.62881 0.92602 0.63855 0.0
O234 O 0.62308 0.00157 0.4514 0.0
O235 O 0.58214 0.95223 0.41727 0.0
C236 C 0.59108 0.98435 0.76897 0.0
C237 C 0.60445 0.98069 0.38352 0.0
C238 C 0.24729 0.2552 0.82312 0.0
C239 C 0.33173 0.3669 0.91255 0.0
O240 O 0.22813 0.28796 0.82391 0.0
Zn241 Zn 0.24296 0.35026 0.83236 0.0
O242 O 0.28501 0.25554 0.81976 0.0
Zn243 Zn 0.29233 0.31241 0.82564 0.0
O244 O 0.26615 0.32021 0.97938 0.0
O245 O 0.21511 0.36154 0.96024 0.0
O246 O 0.3439 0.334 0.87443 0.0
O247 O 0.29672 0.37881 0.88859 0.0
O248 O 0.22118 0.37309 0.70143 0.0
O249 O 0.27052 0.33215 0.6673 0.0
C250 C 0.2384 0.34108 0.019 0.0
C251 C 0.24206 0.35445 0.63355 0.0
C252 C 0.86832 -0.00794 0.88351 0.0
C253 C 0.88168 -0.0116 0.26896 0.0
O254 O 0.89062 0.02052 0.91726 0.0
Zn255 Zn 0.91036 0.04234 0.07561 0.0
O256 O 0.84968 0.97118 0.9514 0.0
Zn257 Zn 0.87251 -0.00704 0.08232 0.0
O258 O 0.84395 0.04673 0.13854 0.0
O259 O 0.88876 0.09391 0.12439 0.0
O260 O 0.86123 0.96512 0.21021 0.0
O261 O 0.90255 0.01616 0.22935 0.0
O262 O 0.96723 0.03502 0.06972 0.0
O263 O 0.9348 0.97814 0.07388 0.0
C264 C 0.85586 0.08174 0.1625 0.0
C265 C 0.96756 -0.0027 0.07309 0.0
C266 C 0.23069 0.61832 0.13356 0.0
C267 C 0.23435 0.63168 0.519 0.0
O268 O 0.20223 0.64062 0.16731 0.0
Zn269 Zn 0.18042 0.66036 0.32566 0.0
O270 O 0.25157 0.59968 0.20144 0.0
Zn271 Zn 0.2298 0.62251 0.33236 0.0
O272 O 0.17603 0.59395 0.38859 0.0
O273 O 0.12885 0.63876 0.37444 0.0
O274 O 0.25764 0.61123 0.46025 0.0
O275 O 0.2066 0.65255 0.47939 0.0
O276 O 0.18774 0.71723 0.31977 0.0
O277 O 0.24462 0.6848 0.32392 0.0
C278 C 0.14102 0.60587 0.41254 0.0
C279 C 0.22546 0.71756 0.32313 0.0
C280 C 0.5052 -0.00271 0.07848 0.0
C281 C 0.6169 0.08173 0.98907 0.0
O282 O 0.53796 0.97813 0.07768 0.0
Zn283 Zn 0.60025 -0.00705 0.06924 0.0
O284 O 0.50554 0.035 0.08184 0.0
Zn285 Zn 0.56241 0.04233 0.07596 0.0
O286 O 0.57021 0.01615 0.92222 0.0
O287 O 0.61153 0.96511 0.94135 0.0
O288 O 0.584 0.0939 0.02718 0.0
O289 O 0.62881 0.04672 0.01302 0.0
O290 O 0.62308 0.97117 0.20016 0.0
O291 O 0.58214 0.02051 0.2343 0.0
C292 C 0.59108 -0.01161 0.8826 0.0
C293 C 0.60445 -0.00795 0.26804 0.0
C294 C 0.23436 0.34108 0.13263 0.0
C295 C 0.2307 0.35445 0.51807 0.0
O296 O 0.2066 0.32021 0.17225 0.0
Zn297 Zn 0.18043 0.31241 0.32599 0.0
O298 O 0.25764 0.36154 0.19138 0.0
Zn299 Zn 0.2298 0.35026 0.31927 0.0
O300 O 0.24463 0.28796 0.32771 0.0
O301 O 0.18775 0.25554 0.33187 0.0
O302 O 0.25158 0.37309 0.45019 0.0
O303 O 0.20224 0.33215 0.48433 0.0
O304 O 0.12885 0.33401 0.27722 0.0
O305 O 0.17603 0.37881 0.26306 0.0
C306 C 0.22546 0.2552 0.3285 0.0
C307 C 0.14102 0.3669 0.2391 0.0
C308 C 0.86832 0.9807 0.76804 0.0
C309 C 0.88168 0.98436 0.38259 0.0
O310 O 0.89062 0.95224 0.73429 0.0
Zn311 Zn 0.91036 0.93043 0.57595 0.0
O312 O 0.84968 0.00158 0.70016 0.0
Zn313 Zn 0.87251 0.9798 0.56923 0.0
O314 O 0.84395 0.92603 0.51302 0.0
O315 O 0.88876 0.87886 0.52718 0.0
O316 O 0.86123 0.00764 0.44135 0.0
O317 O 0.90255 0.95661 0.42221 0.0
O318 O 0.96723 0.93775 0.58183 0.0
O319 O 0.9348 -0.00537 0.57767 0.0
C320 C 0.85586 0.89102 0.48907 0.0
C321 C 0.96756 0.97547 0.57846 0.0
C322 C 0.33173 0.60586 0.73912 0.0
C323 C 0.24729 0.71756 0.8285 0.0
O324 O 0.29672 0.59395 0.76307 0.0
Zn325 Zn 0.24295 0.62251 0.81928 0.0
O326 O 0.3439 0.63876 0.77722 0.0
Zn327 Zn 0.29233 0.66035 0.82599 0.0
O328 O 0.27051 0.64062 0.98433 0.0
O329 O 0.22117 0.59968 0.9502 0.0
O330 O 0.28501 0.71722 0.83187 0.0
O331 O 0.22813 0.6848 0.82771 0.0
O332 O 0.21511 0.61123 0.69139 0.0
O333 O 0.26615 0.65255 0.67225 0.0
C334 C 0.24205 0.61832 0.01808 0.0
C335 C 0.2384 0.63168 0.63263 0.0
C336 C 0.35586 0.08173 0.48906 0.0
C337 C 0.46756 -0.00271 0.57847 0.0
O338 O 0.38876 0.0939 0.52717 0.0
Zn339 Zn 0.41036 0.04233 0.57595 0.0
O340 O 0.34395 0.04672 0.51302 0.0
Zn341 Zn 0.37251 -0.00705 0.56924 0.0
O342 O 0.34968 0.97118 0.70017 0.0
O343 O 0.39062 0.02052 0.73429 0.0
O344 O 0.4348 0.97813 0.57768 0.0
O345 O 0.46723 0.03501 0.58183 0.0
O346 O 0.40255 0.01615 0.42221 0.0
O347 O 0.36123 0.96511 0.44136 0.0
C348 C 0.36832 -0.00794 0.76805 0.0
C349 C 0.38168 -0.0116 0.3826 0.0
C350 C 0.7307 0.61831 0.51809 0.0
C351 C 0.73436 0.63168 0.13263 0.0
O352 O 0.75158 0.59967 0.4502 0.0
Zn353 Zn 0.7298 0.6225 0.31928 0.0
O354 O 0.70224 0.64061 0.48434 0.0
Zn355 Zn 0.68042 0.66035 0.32599 0.0
O356 O 0.62885 0.63875 0.27722 0.0
O357 O 0.67603 0.59394 0.26307 0.0
O358 O 0.7066 0.65255 0.17225 0.0
O359 O 0.75764 0.61122 0.19138 0.0
O360 O 0.74463 0.68479 0.32771 0.0
O361 O 0.68775 0.71722 0.33188 0.0
C362 C 0.64102 0.60586 0.23911 0.0
C363 C 0.72546 0.71756 0.32851 0.0
C364 C 0.1169 0.89103 0.98907 0.0
C365 C 0.0052 0.97547 0.07847 0.0
O366 O 0.084 0.87886 0.02718 0.0
Zn367 Zn 0.06241 0.93043 0.07596 0.0
O368 O 0.12881 0.92604 0.01302 0.0
Zn369 Zn 0.10025 0.97981 0.06924 0.0
O370 O 0.12308 0.00159 0.20016 0.0
O371 O 0.08214 0.95225 0.2343 0.0
O372 O 0.03796 -0.00537 0.07768 0.0
O373 O 0.00554 0.93775 0.08184 0.0
O374 O 0.07021 0.95661 0.92221 0.0
O375 O 0.11154 0.00765 0.94135 0.0
C376 C 0.10445 0.9807 0.26805 0.0
C377 C 0.09108 0.98436 0.8826 0.0
C378 C 0.74205 0.35444 0.01808 0.0
C379 C 0.7384 0.34107 0.63263 0.0
O380 O 0.72117 0.37307 0.9502 0.0
Zn381 Zn 0.74295 0.35025 0.81927 0.0
O382 O 0.77051 0.33214 0.98433 0.0
Zn383 Zn 0.79233 0.3124 0.82598 0.0
O384 O 0.8439 0.334 0.77721 0.0
O385 O 0.79672 0.3788 0.76306 0.0
O386 O 0.76615 0.3202 0.67224 0.0
O387 O 0.71511 0.36153 0.69138 0.0
O388 O 0.72813 0.28795 0.82771 0.0
O389 O 0.78501 0.25553 0.83187 0.0
C390 C 0.83173 0.36689 0.7391 0.0
C391 C 0.74729 0.25519 0.8285 0.0
C392 C 0.38168 0.98435 0.26897 0.0
C393 C 0.36832 0.9807 0.88352 0.0
O394 O 0.36123 0.00764 0.21022 0.0
Zn395 Zn 0.37251 0.9798 0.08233 0.0
O396 O 0.40255 0.9566 0.22935 0.0
Zn397 Zn 0.41035 0.93042 0.07561 0.0
O398 O 0.46722 0.93774 0.06973 0.0
O399 O 0.4348 -0.00538 0.07389 0.0
O400 O 0.39062 0.95224 0.91727 0.0
O401 O 0.34968 0.00158 0.95141 0.0
O402 O 0.34395 0.92603 0.13855 0.0
O403 O 0.38876 0.87885 0.12439 0.0
C404 C 0.46756 0.97546 0.07309 0.0
C405 C 0.35586 0.89102 0.1625 0.0
C406 C 0.7384 0.63168 0.019 0.0
C407 C 0.74206 0.61831 0.63356 0.0
O408 O 0.71511 0.61122 0.96025 0.0
Zn409 Zn 0.74295 0.6225 0.83236 0.0
O410 O 0.76615 0.65255 0.97939 0.0
Zn411 Zn 0.79233 0.66035 0.82565 0.0
O412 O 0.78501 0.71722 0.81976 0.0
O413 O 0.72813 0.68479 0.82392 0.0
O414 O 0.77052 0.64061 0.6673 0.0
O415 O 0.72118 0.59967 0.70144 0.0
O416 O 0.79672 0.59394 0.88859 0.0
O417 O 0.8439 0.63875 0.87443 0.0
C418 C 0.74729 0.71756 0.82312 0.0
C419 C 0.83173 0.60586 0.91254 0.0
C420 C 0.09108 -0.01159 0.76897 0.0
C421 C 0.10445 -0.00794 0.38352 0.0
O422 O 0.11154 0.96512 0.71021 0.0
Zn423 Zn 0.10026 -0.00704 0.58233 0.0
O424 O 0.07021 0.01616 0.72935 0.0
Zn425 Zn 0.06241 0.04234 0.57561 0.0
O426 O 0.00554 0.03502 0.56973 0.0
O427 O 0.03796 0.97814 0.57388 0.0
O428 O 0.08215 0.02052 0.41727 0.0
O429 O 0.12309 0.97119 0.4514 0.0
O430 O 0.12881 0.04673 0.63854 0.0
O431 O 0.084 0.09391 0.62439 0.0
C432 C 0.0052 -0.0027 0.57309 0.0
C433 C 0.1169 0.08174 0.6625 0.0
C434 C 0.64102 0.36689 0.41255 0.0
C435 C 0.72546 0.25519 0.32312 0.0
O436 O 0.62885 0.33399 0.37444 0.0
Zn437 Zn 0.68042 0.3124 0.32565 0.0
O438 O 0.67602 0.3788 0.38859 0.0
Zn439 Zn 0.7298 0.35025 0.33236 0.0
O440 O 0.75157 0.37308 0.20143 0.0
O441 O 0.70223 0.33214 0.16731 0.0
O442 O 0.74462 0.28796 0.32391 0.0
O443 O 0.68774 0.25553 0.31977 0.0
O444 O 0.7066 0.3202 0.47939 0.0
O445 O 0.75764 0.36153 0.46024 0.0
C446 C 0.73069 0.35444 0.13355 0.0
C447 C 0.73435 0.34107 0.519 0.0
loop_
_geom_bond_atom_site_label_1
_geom_bond_atom_site_label_2
_geom_bond_distance
_geom_bond_site_symmetry_2
_ccdc_geom_bond_type
C0 O2 1.247 . S
C0 O4 1.258 . S
C1 O8 1.247 . S
C1 O9 1.258 . S
O2 C0 1.247 . S
O2 Zn3 2.028 . S
Zn3 O2 2.028 . S
Zn3 O7 2.035 1_554 S
Zn3 O9 2.035 . S
Zn3 O10 2.028 . S
O4 C0 1.258 . S
O4 Zn5 2.035 . S
Zn5 O4 2.035 . S
Zn5 O6 2.028 1_554 S
Zn5 O8 2.028 . S
Zn5 O11 2.035 . S
O6 Zn5 2.028 1_556 S
O6 C12 1.247 . S
O7 Zn3 2.035 1_556 S
O7 C12 1.258 . S
O8 C1 1.247 . S
O8 Zn5 2.028 . S
O9 C1 1.258 . S
O9 Zn3 2.035 . S
O10 Zn3 2.028 . S
O10 C13 1.247 . S
O11 Zn5 2.035 . S
O11 C13 1.258 . S
C12 O6 1.247 . S
C12 O7 1.258 . S
C13 O10 1.247 . S
C13 O11 1.258 . S
C14 O16 1.247 . S
C14 O18 1.258 . S
C15 O22 1.247 . S
C15 O23 1.258 . S
O16 C14 1.247 . S
O16 Zn17 2.028 . S
Zn17 O16 2.028 . S
Zn17 O21 2.035 . S
Zn17 O23 2.035 . S
Zn17 O24 2.028 . S
O18 C14 1.258 . S
O18 Zn19 2.035 . S
Zn19 O18 2.035 . S
Zn19 O20 2.028 . S
Zn19 O22 2.028 . S
Zn19 O25 2.035 . S
O20 Zn19 2.028 . S
O20 C26 1.247 . S
O21 Zn17 2.035 . S
O21 C26 1.258 . S
O22 C15 1.247 . S
O22 Zn19 2.028 . S
O23 C15 1.258 . S
O23 Zn17 2.035 . S
O24 Zn17 2.028 . S
O24 C27 1.247 . S
O25 Zn19 2.035 . S
O25 C27 1.258 . S
C26 O20 1.247 . S
C26 O21 1.258 . S
C27 O24 1.247 . S
C27 O25 1.258 . S
C28 O30 1.247 . S
C28 O32 1.258 . S
C29 O36 1.247 . S
C29 O37 1.258 . S
O30 C28 1.247 . S
O30 Zn31 2.028 . S
Zn31 O30 2.028 . S
Zn31 O35 2.035 . S
Zn31 O37 2.035 . S
Zn31 O38 2.028 . S
O32 C28 1.258 . S
O32 Zn33 2.035 . S
Zn33 O32 2.035 . S
Zn33 O34 2.028 . S
Zn33 O36 2.028 . S
Zn33 O39 2.035 . S
O34 Zn33 2.028 . S
O34 C40 1.247 . S
O35 Zn31 2.035 . S
O35 C40 1.258 . S
O36 C29 1.247 . S
O36 Zn33 2.028 . S
O37 C29 1.258 . S
O37 Zn31 2.035 . S
O38 Zn31 2.028 . S
O38 C41 1.247 . S
O39 Zn33 2.035 . S
O39 C41 1.258 . S
C40 O34 1.247 . S
C40 O35 1.258 . S
C41 O38 1.247 . S
C41 O39 1.258 . S
C42 O44 1.247 1_554 S
C42 O46 1.258 1_554 S
C43 O50 1.247 . S
C43 O51 1.258 . S
O44 C42 1.247 1_556 S
O44 Zn45 2.028 . S
Zn45 O44 2.028 . S
Zn45 O49 2.035 . S
Zn45 O51 2.035 . S
Zn45 O52 2.028 . S
O46 C42 1.258 1_556 S
O46 Zn47 2.035 . S
Zn47 O46 2.035 . S
Zn47 O48 2.028 . S
Zn47 O50 2.028 . S
Zn47 O53 2.035 . S
O48 Zn47 2.028 . S
O48 C54 1.247 . S
O49 Zn45 2.035 . S
O49 C54 1.258 . S
O50 C43 1.247 . S
O50 Zn47 2.028 . S
O51 C43 1.258 . S
O51 Zn45 2.035 . S
O52 Zn45 2.028 . S
O52 C55 1.247 . S
O53 Zn47 2.035 . S
O53 C55 1.258 . S
C54 O48 1.247 . S
C54 O49 1.258 . S
C55 O52 1.247 . S
C55 O53 1.258 . S
C56 O58 1.247 . S
C56 O60 1.258 . S
C57 O64 1.247 . S
C57 O65 1.258 . S
O58 C56 1.247 . S
O58 Zn59 2.028 . S
Zn59 O58 2.028 . S
Zn59 O63 2.035 . S
Zn59 O65 2.035 . S
Zn59 O66 2.028 . S
O60 C56 1.258 . S
O60 Zn61 2.035 . S
Zn61 O60 2.035 . S
Zn61 O62 2.028 . S
Zn61 O64 2.028 . S
Zn61 O67 2.035 . S
O62 Zn61 2.028 . S
O62 C68 1.247 . S
O63 Zn59 2.035 . S
O63 C68 1.258 . S
O64 C57 1.247 . S
O64 Zn61 2.028 . S
O65 C57 1.258 . S
O65 Zn59 2.035 . S
O66 Zn59 2.028 . S
O66 C69 1.247 . S
O67 Zn61 2.035 . S
O67 C69 1.258 . S
C68 O62 1.247 . S
C68 O63 1.258 . S
C69 O66 1.247 . S
C69 O67 1.258 . S
C70 O72 1.247 . S
C70 O74 1.258 . S
C71 O78 1.247 . S
C71 O79 1.258 . S
O72 C70 1.247 . S
O72 Zn73 2.028 . S
Zn73 O72 2.028 . S
Zn73 O77 2.035 . S
Zn73 O79 2.035 . S
Zn73 O80 2.028 . S
O74 C70 1.258 . S
O74 Zn75 2.035 . S
Zn75 O74 2.035 . S
Zn75 O76 2.028 . S
Zn75 O78 2.028 . S
Zn75 O81 2.035 . S
O76 Zn75 2.028 . S
O76 C82 1.247 . S
O77 Zn73 2.035 . S
O77 C82 1.258 . S
O78 C71 1.247 . S
O78 Zn75 2.028 . S
O79 C71 1.258 . S
O79 Zn73 2.035 . S
O80 Zn73 2.028 . S
O80 C83 1.247 . S
O81 Zn75 2.035 . S
O81 C83 1.258 . S
C82 O76 1.247 . S
C82 O77 1.258 . S
C83 O80 1.247 . S
C83 O81 1.258 . S
C84 O86 1.247 . S
C84 O88 1.258 . S
C85 O92 1.247 . S
C85 O93 1.258 . S
O86 C84 1.247 . S
O86 Zn87 2.028 . S
Zn87 O86 2.028 . S
Zn87 O91 2.035 . S
Zn87 O93 2.035 . S
Zn87 O94 2.028 1_554 S
O88 C84 1.258 . S
O88 Zn89 2.035 . S
Zn89 O88 2.035 . S
Zn89 O90 2.028 . S
Zn89 O92 2.028 . S
Zn89 O95 2.035 1_554 S
O90 Zn89 2.028 . S
O90 C96 1.247 . S
O91 Zn87 2.035 . S
O91 C96 1.258 . S
O92 C85 1.247 . S
O92 Zn89 2.028 . S
O93 C85 1.258 . S
O93 Zn87 2.035 . S
O94 Zn87 2.028 1_556 S
O94 C97 1.247 . S
O95 Zn89 2.035 1_556 S
O95 C97 1.258 . S
C96 O90 1.247 . S
C96 O91 1.258 . S
C97 O94 1.247 . S
C97 O95 1.258 . S
C98 O100 1.247 . S
C98 O102 1.258 . S
C99 O106 1.247 . S
C99 O107 1.258 . S
O100 C98 1.247 . S
O100 Zn101 2.028 . S
Zn101 O100 2.028 . S
Zn101 O105 2.035 . S
Zn101 O107 2.035 . S
Zn101 O108 2.028 . S
O102 C98 1.258 . S
O102 Zn103 2.035 . S
Zn103 O102 2.035 . S
Zn103 O104 2.028 . S
Zn103 O106 2.028 . S
Zn103 O109 2.035 . S
O104 Zn103 2.028 . S
O104 C110 1.247 . S
O105 Zn101 2.035 . S
O105 C110 1.258 . S
O106 C99 1.247 . S
O106 Zn103 2.028 . S
O107 C99 1.258 . S
O107 Zn101 2.035 . S
O108 Zn101 2.028 . S
O108 C111 1.247 . S
O109 Zn103 2.035 . S
O109 C111 1.258 . S
C110 O104 1.247 . S
C110 O105 1.258 . S
C111 O108 1.247 . S
C111 O109 1.258 . S
C112 O114 1.247 . S
C112 O116 1.258 . S
C113 O120 1.247 . S
C113 O121 1.258 . S
O114 C112 1.247 . S
O114 Zn115 2.028 1_556 S
Zn115 O114 2.028 1_554 S
Zn115 O119 2.035 . S
Zn115 O121 2.035 . S
Zn115 O122 2.028 . S
O116 C112 1.258 . S
O116 Zn117 2.035 1_556 S
Zn117 O116 2.035 1_554 S
Zn117 O118 2.028 . S
Zn117 O120 2.028 . S
Zn117 O123 2.035 . S
O118 Zn117 2.028 . S
O118 C124 1.247 . S
O119 Zn115 2.035 . S
O119 C124 1.258 . S
O120 C113 1.247 . S
O120 Zn117 2.028 . S
O121 C113 1.258 . S
O121 Zn115 2.035 . S
O122 Zn115 2.028 . S
O122 C125 1.247 . S
O123 Zn117 2.035 . S
O123 C125 1.258 . S
C124 O118 1.247 . S
C124 O119 1.258 . S
C125 O122 1.247 . S
C125 O123 1.258 . S
C126 O128 1.247 . S
C126 O130 1.258 . S
C127 O134 1.247 . S
C127 O135 1.258 . S
O128 C126 1.247 . S
O128 Zn129 2.028 . S
Zn129 O128 2.028 . S
Zn129 O133 2.035 . S
Zn129 O135 2.035 . S
Zn129 O136 2.028 . S
O130 C126 1.258 . S
O130 Zn131 2.035 . S
Zn131 O130 2.035 . S
Zn131 O132 2.028 . S
Zn131 O134 2.028 . S
Zn131 O137 2.035 . S
O132 Zn131 2.028 . S
O132 C138 1.247 . S
O133 Zn129 2.035 . S
O133 C138 1.258 . S
O134 C127 1.247 . S
O134 Zn131 2.028 . S
O135 C127 1.258 . S
O135 Zn129 2.035 . S
O136 Zn129 2.028 . S
O136 C139 1.247 . S
O137 Zn131 2.035 . S
O137 C139 1.258 . S
C138 O132 1.247 . S
C138 O133 1.258 . S
C139 O136 1.247 . S
C139 O137 1.258 . S
C140 O142 1.247 . S
C140 O144 1.258 . S
C141 O148 1.247 . S
C141 O149 1.258 . S
O142 C140 1.247 . S
O142 Zn143 2.028 . S
Zn143 O142 2.028 . S
Zn143 O147 2.035 . S
Zn143 O149 2.035 . S
Zn143 O150 2.028 . S
O144 C140 1.258 . S
O144 Zn145 2.035 . S
Zn145 O144 2.035 . S
Zn145 O146 2.028 . S
Zn145 O148 2.028 . S
Zn145 O151 2.035 . S
O146 Zn145 2.028 . S
O146 C152 1.247 . S
O147 Zn143 2.035 . S
O147 C152 1.258 . S
O148 C141 1.247 . S
O148 Zn145 2.028 . S
O149 C141 1.258 . S
O149 Zn143 2.035 . S
O150 Zn143 2.028 . S
O150 C153 1.247 . S
O151 Zn145 2.035 . S
O151 C153 1.258 . S
C152 O146 1.247 . S
C152 O147 1.258 . S
C153 O150 1.247 . S
C153 O151 1.258 . S
C154 O156 1.247 . S
C154 O158 1.258 . S
C155 O162 1.247 . S
C155 O163 1.258 . S
O156 C154 1.247 . S
O156 Zn157 2.028 . S
Zn157 O156 2.028 . S
Zn157 O161 2.035 . S
Zn157 O163 2.035 . S
Zn157 O164 2.028 . S
O158 C154 1.258 . S
O158 Zn159 2.035 . S
Zn159 O158 2.035 . S
Zn159 O160 2.028 . S
Zn159 O162 2.028 . S
Zn159 O165 2.035 . S
O160 Zn159 2.028 . S
O160 C166 1.247 . S
O161 Zn157 2.035 . S
O161 C166 1.258 . S
O162 C155 1.247 . S
O162 Zn159 2.028 . S
O163 C155 1.258 . S
O163 Zn157 2.035 . S
O164 Zn157 2.028 . S
O164 C167 1.247 . S
O165 Zn159 2.035 . S
O165 C167 1.258 . S
C166 O160 1.247 . S
C166 O161 1.258 . S
C167 O164 1.247 . S
C167 O165 1.258 . S
C168 O170 1.247 . S
C168 O172 1.258 . S
C169 O176 1.247 . S
C169 O177 1.258 . S
O170 C168 1.247 . S
O170 Zn171 2.028 . S
Zn171 O170 2.028 . S
Zn171 O175 2.035 . S
Zn171 O177 2.035 . S
Zn171 O178 2.028 . S
O172 C168 1.258 . S
O172 Zn173 2.035 . S
Zn173 O172 2.035 . S
Zn173 O174 2.028 . S
Zn173 O176 2.028 . S
Zn173 O179 2.035 . S
O174 Zn173 2.028 . S
O174 C180 1.247 . S
O175 Zn171 2.035 . S
O175 C180 1.258 . S
O176 C169 1.247 . S
O176 Zn173 2.028 . S
O177 C169 1.258 . S
O177 Zn171 2.035 . S
O178 Zn171 2.028 . S
O178 C181 1.247 . S
O179 Zn173 2.035 . S
O179 C181 1.258 . S
C180 O174 1.247 . S
C180 O175 1.258 . S
C181 O178 1.247 . S
C181 O179 1.258 . S
C182 O184 1.247 . S
C182 O186 1.258 . S
C183 O190 1.247 . S
C183 O191 1.258 . S
O184 C182 1.247 . S
O184 Zn185 2.028 . S
Zn185 O184 2.028 . S
Zn185 O189 2.035 . S
Zn185 O191 2.035 . S
Zn185 O192 2.028 . S
O186 C182 1.258 . S
O186 Zn187 2.035 . S
Zn187 O186 2.035 . S
Zn187 O188 2.028 . S
Zn187 O190 2.028 . S
Zn187 O193 2.035 . S
O188 Zn187 2.028 . S
O188 C194 1.247 . S
O189 Zn185 2.035 . S
O189 C194 1.258 . S
O190 C183 1.247 . S
O190 Zn187 2.028 . S
O191 C183 1.258 . S
O191 Zn185 2.035 . S
O192 Zn185 2.028 . S
O192 C195 1.247 . S
O193 Zn187 2.035 . S
O193 C195 1.258 . S
C194 O188 1.247 . S
C194 O189 1.258 . S
C195 O192 1.247 . S
C195 O193 1.258 . S
C196 O198 1.247 . S
C196 O200 1.258 . S
C197 O204 1.247 . S
C197 O205 1.258 . S
O198 C196 1.247 . S
O198 Zn199 2.028 1_556 S
Zn199 O198 2.028 1_554 S
Zn199 O203 2.035 . S
Zn199 O205 2.035 . S
Zn199 O206 2.028 . S
O200 C196 1.258 . S
O200 Zn201 2.035 1_556 S
Zn201 O200 2.035 1_554 S
Zn201 O202 2.028 . S
Zn201 O204 2.028 . S
Zn201 O207 2.035 . S
O202 Zn201 2.028 . S
O202 C208 1.247 . S
O203 Zn199 2.035 . S
O203 C208 1.258 . S
O204 C197 1.247 . S
O204 Zn201 2.028 . S
O205 C197 1.258 . S
O205 Zn199 2.035 . S
O206 Zn199 2.028 . S
O206 C209 1.247 . S
O207 Zn201 2.035 . S
O207 C209 1.258 . S
C208 O202 1.247 . S
C208 O203 1.258 . S
C209 O206 1.247 . S
C209 O207 1.258 . S
C210 O212 1.247 . S
C210 O214 1.258 . S
C211 O218 1.247 . S
C211 O219 1.258 . S
O212 C210 1.247 . S
O212 Zn213 2.028 . S
Zn213 O212 2.028 . S
Zn213 O217 2.035 . S
Zn213 O219 2.035 . S
Zn213 O220 2.028 . S
O214 C210 1.258 . S
O214 Zn215 2.035 . S
Zn215 O214 2.035 . S
Zn215 O216 2.028 . S
Zn215 O218 2.028 . S
Zn215 O221 2.035 . S
O216 Zn215 2.028 . S
O216 C222 1.247 1_556 S
O217 Zn213 2.035 . S
O217 C222 1.258 1_556 S
O218 C211 1.247 . S
O218 Zn215 2.028 . S
O219 C211 1.258 . S
O219 Zn213 2.035 . S
O220 Zn213 2.028 . S
O220 C223 1.247 . S
O221 Zn215 2.035 . S
O221 C223 1.258 . S
C222 O216 1.247 1_554 S
C222 O217 1.258 1_554 S
C223 O220 1.247 . S
C223 O221 1.258 . S
C224 O226 1.247 . S
C224 O228 1.258 1_545 S
C225 O232 1.247 . S
C225 O233 1.258 . S
O226 C224 1.247 . S
O226 Zn227 2.028 . S
Zn227 O226 2.028 . S
Zn227 O231 2.035 . S
Zn227 O233 2.035 1_545 S
Zn227 O234 2.028 . S
O228 C224 1.258 1_565 S
O228 Zn229 2.035 . S
Zn229 O228 2.035 . S
Zn229 O230 2.028 . S
Zn229 O232 2.028 . S
Zn229 O235 2.035 . S
O230 Zn229 2.028 . S
O230 C236 1.247 . S
O231 Zn227 2.035 . S
O231 C236 1.258 1_545 S
O232 C225 1.247 . S
O232 Zn229 2.028 . S
O233 C225 1.258 . S
O233 Zn227 2.035 1_565 S
O234 Zn227 2.028 . S
O234 C237 1.247 1_545 S
O235 Zn229 2.035 . S
O235 C237 1.258 . S
C236 O230 1.247 . S
C236 O231 1.258 1_565 S
C237 O234 1.247 1_565 S
C237 O235 1.258 . S
C238 O240 1.247 . S
C238 O242 1.258 . S
C239 O246 1.247 . S
C239 O247 1.258 . S
O240 C238 1.247 . S
O240 Zn241 2.028 . S
Zn241 O240 2.028 . S
Zn241 O245 2.035 . S
Zn241 O247 2.035 . S
Zn241 O248 2.028 . S
O242 C238 1.258 . S
O242 Zn243 2.035 . S
Zn243 O242 2.035 . S
Zn243 O244 2.028 . S
Zn243 O246 2.028 . S
Zn243 O249 2.035 . S
O244 Zn243 2.028 . S
O244 C250 1.247 1_556 S
O245 Zn241 2.035 . S
O245 C250 1.258 1_556 S
O246 C239 1.247 . S
O246 Zn243 2.028 . S
O247 C239 1.258 . S
O247 Zn241 2.035 . S
O248 Zn241 2.028 . S
O248 C251 1.247 . S
O249 Zn243 2.035 . S
O249 C251 1.258 . S
C250 O244 1.247 1_554 S
C250 O245 1.258 1_554 S
C251 O248 1.247 . S
C251 O249 1.258 . S
C252 O254 1.247 . S
C252 O256 1.258 1_545 S
C253 O260 1.247 1_545 S
C253 O261 1.258 . S
O254 C252 1.247 . S
O254 Zn255 2.028 1_556 S
Zn255 O254 2.028 1_554 S
Zn255 O259 2.035 . S
Zn255 O261 2.035 . S
Zn255 O262 2.028 . S
O256 C252 1.258 1_565 S
O256 Zn257 2.035 1_556 S
Zn257 O256 2.035 1_554 S
Zn257 O258 2.028 1_565 S
Zn257 O260 2.028 . S
Zn257 O263 2.035 . S
O258 Zn257 2.028 1_545 S
O258 C264 1.247 . S
O259 Zn255 2.035 . S
O259 C264 1.258 . S
O260 C253 1.247 1_565 S
O260 Zn257 2.028 . S
O261 C253 1.258 . S
O261 Zn255 2.035 . S
O262 Zn255 2.028 . S
O262 C265 1.247 1_545 S
O263 Zn257 2.035 . S
O263 C265 1.258 . S
C264 O258 1.247 . S
C264 O259 1.258 . S
C265 O262 1.247 1_565 S
C265 O263 1.258 . S
C266 O268 1.247 . S
C266 O270 1.258 . S
C267 O274 1.247 . S
C267 O275 1.258 . S
O268 C266 1.247 . S
O268 Zn269 2.028 . S
Zn269 O268 2.028 . S
Zn269 O273 2.035 . S
Zn269 O275 2.035 . S
Zn269 O276 2.028 . S
O270 C266 1.258 . S
O270 Zn271 2.035 . S
Zn271 O270 2.035 . S
Zn271 O272 2.028 . S
Zn271 O274 2.028 . S
Zn271 O277 2.035 . S
O272 Zn271 2.028 . S
O272 C278 1.247 . S
O273 Zn269 2.035 . S
O273 C278 1.258 . S
O274 C267 1.247 . S
O274 Zn271 2.028 . S
O275 C267 1.258 . S
O275 Zn269 2.035 . S
O276 Zn269 2.028 . S
O276 C279 1.247 . S
O277 Zn271 2.035 . S
O277 C279 1.258 . S
C278 O272 1.247 . S
C278 O273 1.258 . S
C279 O276 1.247 . S
C279 O277 1.258 . S
C280 O282 1.247 . S
C280 O284 1.258 1_565 S
C281 O288 1.247 . S
C281 O289 1.258 . S
O282 C280 1.247 . S
O282 Zn283 2.028 . S
Zn283 O282 2.028 . S
Zn283 O287 2.035 1_554 S
Zn283 O289 2.035 1_565 S
Zn283 O290 2.028 . S
O284 C280 1.258 1_545 S
O284 Zn285 2.035 . S
Zn285 O284 2.035 . S
Zn285 O286 2.028 1_554 S
Zn285 O288 2.028 . S
Zn285 O291 2.035 . S
O286 Zn285 2.028 1_556 S
O286 C292 1.247 . S
O287 Zn283 2.035 1_556 S
O287 C292 1.258 1_565 S
O288 C281 1.247 . S
O288 Zn285 2.028 . S
O289 C281 1.258 . S
O289 Zn283 2.035 1_545 S
O290 Zn283 2.028 . S
O290 C293 1.247 1_565 S
O291 Zn285 2.035 . S
O291 C293 1.258 . S
C292 O286 1.247 . S
C292 O287 1.258 1_545 S
C293 O290 1.247 1_545 S
C293 O291 1.258 . S
C294 O296 1.247 . S
C294 O298 1.258 . S
C295 O302 1.247 . S
C295 O303 1.258 . S
O296 C294 1.247 . S
O296 Zn297 2.028 . S
Zn297 O296 2.028 . S
Zn297 O301 2.035 . S
Zn297 O303 2.035 . S
Zn297 O304 2.028 . S
O298 C294 1.258 . S
O298 Zn299 2.035 . S
Zn299 O298 2.035 . S
Zn299 O300 2.028 . S
Zn299 O302 2.028 . S
Zn299 O305 2.035 . S
O300 Zn299 2.028 . S
O300 C306 1.247 . S
O301 Zn297 2.035 . S
O301 C306 1.258 . S
O302 C295 1.247 . S
O302 Zn299 2.028 . S
O303 C295 1.258 . S
O303 Zn297 2.035 . S
O304 Zn297 2.028 . S
O304 C307 1.247 . S
O305 Zn299 2.035 . S
O305 C307 1.258 . S
C306 O300 1.247 . S
C306 O301 1.258 . S
C307 O304 1.247 . S
C307 O305 1.258 . S
C308 O310 1.247 . S
C308 O312 1.258 1_565 S
C309 O316 1.247 1_565 S
C309 O317 1.258 . S
O310 C308 1.247 . S
O310 Zn311 2.028 . S
Zn311 O310 2.028 . S
Zn311 O315 2.035 . S
Zn311 O317 2.035 . S
Zn311 O318 2.028 . S
O312 C308 1.258 1_545 S
O312 Zn313 2.035 . S
Zn313 O312 2.035 . S
Zn313 O314 2.028 1_545 S
Zn313 O316 2.028 . S
Zn313 O319 2.035 . S
O314 Zn313 2.028 1_565 S
O314 C320 1.247 . S
O315 Zn311 2.035 . S
O315 C320 1.258 . S
O316 C309 1.247 1_545 S
O316 Zn313 2.028 . S
O317 C309 1.258 . S
O317 Zn311 2.035 . S
O318 Zn311 2.028 . S
O318 C321 1.247 1_565 S
O319 Zn313 2.035 . S
O319 C321 1.258 . S
C320 O314 1.247 . S
C320 O315 1.258 . S
C321 O318 1.247 1_545 S
C321 O319 1.258 . S
C322 O324 1.247 . S
C322 O326 1.258 . S
C323 O330 1.247 . S
C323 O331 1.258 . S
O324 C322 1.247 . S
O324 Zn325 2.028 . S
Zn325 O324 2.028 . S
Zn325 O329 2.035 . S
Zn325 O331 2.035 . S
Zn325 O332 2.028 . S
O326 C322 1.258 . S
O326 Zn327 2.035 . S
Zn327 O326 2.035 . S
Zn327 O328 2.028 . S
Zn327 O330 2.028 . S
Zn327 O333 2.035 . S
O328 Zn327 2.028 . S
O328 C334 1.247 . S
O329 Zn325 2.035 . S
O329 C334 1.258 . S
O330 C323 1.247 . S
O330 Zn327 2.028 . S
O331 C323 1.258 . S
O331 Zn325 2.035 . S
O332 Zn325 2.028 . S
O332 C335 1.247 . S
O333 Zn327 2.035 . S
O333 C335 1.258 . S
C334 O328 1.247 . S
C334 O329 1.258 . S
C335 O332 1.247 . S
C335 O333 1.258 . S
C336 O338 1.247 . S
C336 O340 1.258 . S
C337 O344 1.247 . S
C337 O345 1.258 1_565 S
O338 C336 1.247 . S
O338 Zn339 2.028 . S
Zn339 O338 2.028 . S
Zn339 O343 2.035 . S
Zn339 O345 2.035 . S
Zn339 O346 2.028 . S
O340 C336 1.258 . S
O340 Zn341 2.035 1_545 S
Zn341 O340 2.035 1_565 S
Zn341 O342 2.028 . S
Zn341 O344 2.028 . S
Zn341 O347 2.035 . S
O342 Zn341 2.028 . S
O342 C348 1.247 1_565 S
O343 Zn339 2.035 . S
O343 C348 1.258 . S
O344 C337 1.247 . S
O344 Zn341 2.028 . S
O345 C337 1.258 1_545 S
O345 Zn339 2.035 . S
O346 Zn339 2.028 . S
O346 C349 1.247 . S
O347 Zn341 2.035 . S
O347 C349 1.258 1_565 S
C348 O342 1.247 1_545 S
C348 O343 1.258 . S
C349 O346 1.247 . S
C349 O347 1.258 1_545 S
C350 O352 1.247 . S
C350 O354 1.258 . S
C351 O358 1.247 . S
C351 O359 1.258 . S
O352 C350 1.247 . S
O352 Zn353 2.028 . S
Zn353 O352 2.028 . S
Zn353 O357 2.035 . S
Zn353 O359 2.035 . S
Zn353 O360 2.028 . S
O354 C350 1.258 . S
O354 Zn355 2.035 . S
Zn355 O354 2.035 . S
Zn355 O356 2.028 . S
Zn355 O358 2.028 . S
Zn355 O361 2.035 . S
O356 Zn355 2.028 . S
O356 C362 1.247 . S
O357 Zn353 2.035 . S
O357 C362 1.258 . S
O358 C351 1.247 . S
O358 Zn355 2.028 . S
O359 C351 1.258 . S
O359 Zn353 2.035 . S
O360 Zn353 2.028 . S
O360 C363 1.247 . S
O361 Zn355 2.035 . S
O361 C363 1.258 . S
C362 O356 1.247 . S
C362 O357 1.258 . S
C363 O360 1.247 . S
C363 O361 1.258 . S
C364 O366 1.247 . S
C364 O368 1.258 . S
C365 O372 1.247 . S
C365 O373 1.258 1_545 S
O366 C364 1.247 . S
O366 Zn367 2.028 . S
Zn367 O366 2.028 . S
Zn367 O371 2.035 . S
Zn367 O373 2.035 . S
Zn367 O374 2.028 1_554 S
O368 C364 1.258 . S
O368 Zn369 2.035 1_565 S
Zn369 O368 2.035 1_545 S
Zn369 O370 2.028 . S
Zn369 O372 2.028 . S
Zn369 O375 2.035 1_554 S
O370 Zn369 2.028 . S
O370 C376 1.247 1_545 S
O371 Zn367 2.035 . S
O371 C376 1.258 . S
O372 C365 1.247 . S
O372 Zn369 2.028 . S
O373 C365 1.258 1_565 S
O373 Zn367 2.035 . S
O374 Zn367 2.028 1_556 S
O374 C377 1.247 . S
O375 Zn369 2.035 1_556 S
O375 C377 1.258 1_545 S
C376 O370 1.247 1_565 S
C376 O371 1.258 . S
C377 O374 1.247 . S
C377 O375 1.258 1_565 S
C378 O380 1.247 . S
C378 O382 1.258 . S
C379 O386 1.247 . S
C379 O387 1.258 . S
O380 C378 1.247 . S
O380 Zn381 2.028 . S
Zn381 O380 2.028 . S
Zn381 O385 2.035 . S
Zn381 O387 2.035 . S
Zn381 O388 2.028 . S
O382 C378 1.258 . S
O382 Zn383 2.035 . S
Zn383 O382 2.035 . S
Zn383 O384 2.028 . S
Zn383 O386 2.028 . S
Zn383 O389 2.035 . S
O384 Zn383 2.028 . S
O384 C390 1.247 . S
O385 Zn381 2.035 . S
O385 C390 1.258 . S
O386 C379 1.247 . S
O386 Zn383 2.028 . S
O387 C379 1.258 . S
O387 Zn381 2.035 . S
O388 Zn381 2.028 . S
O388 C391 1.247 . S
O389 Zn383 2.035 . S
O389 C391 1.258 . S
C390 O384 1.247 . S
C390 O385 1.258 . S
C391 O388 1.247 . S
C391 O389 1.258 . S
C392 O394 1.247 1_565 S
C392 O396 1.258 . S
C393 O400 1.247 . S
C393 O401 1.258 1_565 S
O394 C392 1.247 1_545 S
O394 Zn395 2.028 . S
Zn395 O394 2.028 . S
Zn395 O399 2.035 . S
Zn395 O401 2.035 1_554 S
Zn395 O402 2.028 1_545 S
O396 C392 1.258 . S
O396 Zn397 2.035 . S
Zn397 O396 2.035 . S
Zn397 O398 2.028 . S
Zn397 O400 2.028 1_554 S
Zn397 O403 2.035 . S
O398 Zn397 2.028 . S
O398 C404 1.247 1_565 S
O399 Zn395 2.035 . S
O399 C404 1.258 . S
O400 C393 1.247 . S
O400 Zn397 2.028 1_556 S
O401 C393 1.258 1_545 S
O401 Zn395 2.035 1_556 S
O402 Zn395 2.028 1_565 S
O402 C405 1.247 . S
O403 Zn397 2.035 . S
O403 C405 1.258 . S
C404 O398 1.247 1_545 S
C404 O399 1.258 . S
C405 O402 1.247 . S
C405 O403 1.258 . S
C406 O408 1.247 1_554 S
C406 O410 1.258 1_554 S
C407 O414 1.247 . S
C407 O415 1.258 . S
O408 C406 1.247 1_556 S
O408 Zn409 2.028 . S
Zn409 O408 2.028 . S
Zn409 O413 2.035 . S
Zn409 O415 2.035 . S
Zn409 O416 2.028 . S
O410 C406 1.258 1_556 S
O410 Zn411 2.035 . S
Zn411 O410 2.035 . S
Zn411 O412 2.028 . S
Zn411 O414 2.028 . S
Zn411 O417 2.035 . S
O412 Zn411 2.028 . S
O412 C418 1.247 . S
O413 Zn409 2.035 . S
O413 C418 1.258 . S
O414 C407 1.247 . S
O414 Zn411 2.028 . S
O415 C407 1.258 . S
O415 Zn409 2.035 . S
O416 Zn409 2.028 . S
O416 C419 1.247 . S
O417 Zn411 2.035 . S
O417 C419 1.258 . S
C418 O412 1.247 . S
C418 O413 1.258 . S
C419 O416 1.247 . S
C419 O417 1.258 . S
C420 O422 1.247 1_545 S
C420 O424 1.258 . S
C421 O428 1.247 . S
C421 O429 1.258 1_545 S
O422 C420 1.247 1_565 S
O422 Zn423 2.028 . S
Zn423 O422 2.028 . S
Zn423 O427 2.035 . S
Zn423 O429 2.035 . S
Zn423 O430 2.028 1_565 S
O424 C420 1.258 . S
O424 Zn425 2.035 . S
Zn425 O424 2.035 . S
Zn425 O426 2.028 . S
Zn425 O428 2.028 . S
Zn425 O431 2.035 . S
O426 Zn425 2.028 . S
O426 C432 1.247 1_545 S
O427 Zn423 2.035 . S
O427 C432 1.258 . S
O428 C421 1.247 . S
O428 Zn425 2.028 . S
O429 C421 1.258 1_565 S
O429 Zn423 2.035 . S
O430 Zn423 2.028 1_545 S
O430 C433 1.247 . S
O431 Zn425 2.035 . S
O431 C433 1.258 . S
C432 O426 1.247 1_565 S
C432 O427 1.258 . S
C433 O430 1.247 . S
C433 O431 1.258 . S
C434 O436 1.247 . S
C434 O438 1.258 . S
C435 O442 1.247 . S
C435 O443 1.258 . S
O436 C434 1.247 . S
O436 Zn437 2.028 . S
Zn437 O436 2.028 . S
Zn437 O441 2.035 . S
Zn437 O443 2.035 . S
Zn437 O444 2.028 . S
O438 C434 1.258 . S
O438 Zn439 2.035 . S
Zn439 O438 2.035 . S
Zn439 O440 2.028 . S
Zn439 O442 2.028 . S
Zn439 O445 2.035 . S
O440 Zn439 2.028 . S
O440 C446 1.247 . S
O441 Zn437 2.035 . S
O441 C446 1.258 . S
O442 C435 1.247 . S
O442 Zn439 2.028 . S
O443 C435 1.258 . S
O443 Zn437 2.035 . S
O444 Zn437 2.028 . S
O444 C447 1.247 . S
O445 Zn439 2.035 . S
O445 C447 1.258 . S
C446 O440 1.247 . S
C446 O441 1.258 . S
C447 O444 1.247 . S
C447 O445 1.258 . S
C124 C1 2.623 1_655 S
C14 C363 2.640 . S
C40 C153 2.640 . S
C54 C391 2.640 . S
C68 C180 2.632 1_455 S
C418 C83 2.623 . S
C209 C85 2.632 . S
C435 C98 2.640 . S
C238 C139 2.640 . S
C166 C279 2.623 . S
C194 C306 2.632 . S
C323 C210 2.623 . S
C337 C224 2.640 1_565 S
C265 C365 2.632 1_665 S
C280 C404 2.632 1_565 S
C432 C321 2.623 1_465 S
C12 C57 1.982 . S
C70 C27 1.982 1_556 S
C96 C29 1.982 . S
C43 C111 1.978 . S
C113 C169 1.986 . S
C126 C183 1.982 1_556 S
C196 C140 1.978 . S
C223 C155 1.986 . S
C293 C237 1.978 1_545 S
C295 C251 1.978 . S
C252 C308 1.986 1_545 S
C334 C266 1.986 1_556 S
C393 C348 1.982 1_565 S
C350 C407 1.982 . S
C421 C376 1.982 1_545 S
C446 C378 1.978 1_554 S
C56 C13 0.712 . S
C71 C26 0.712 . S
C28 C97 0.711 . S
C110 C42 0.715 . S
C168 C112 0.708 . S
C127 C182 0.712 . S
C197 C141 0.715 . S
C222 C154 0.708 . S
C236 C292 0.715 1_565 S
C294 C250 0.715 . S
C309 C253 0.708 1_565 S
C335 C267 0.708 . S
C392 C349 0.712 1_565 S
C351 C406 0.711 . S
C377 C420 0.712 1_565 S
C379 C447 0.715 . S
C0 C307 2.407 . S
C320 C15 2.407 . S
C41 C322 2.407 . S
C55 C281 2.405 1_556 S
C278 C69 2.407 . S
C225 C82 2.407 . S
C239 C84 2.407 1_556 S
C99 C264 2.407 . S
C125 C419 2.410 1_554 S
C433 C138 2.407 . S
C434 C152 2.405 . S
C405 C167 2.410 . S
C390 C181 2.407 . S
C336 C195 2.407 . S
C208 C362 2.404 . S
C211 C364 2.407 1_556 S
