# Generated by pormake.
# Topology wkx, (5)-cn, num edge types: 1
# Building blocks:
#     Node 0, Type 0, BuildingBlock: BEQFEK_clean_sbu_0, # of connection points: 5
#     Node 1, Type 0, BuildingBlock: BEQFEK_clean_sbu_0, # of connection points: 5
#     Node 2, Type 0, BuildingBlock: BEQFEK_clean_sbu_0, # of connection points: 5
#     Node 3, Type 0, BuildingBlock: BEQFEK_clean_sbu_0, # of connection points: 5
#     Node 4, Type 0, BuildingBlock: BEQFEK_clean_sbu_0, # of connection points: 5
#     Node 5, Type 0, BuildingBlock: BEQFEK_clean_sbu_0, # of connection points: 5
#     Node 6, Type 0, BuildingBlock: BEQFEK_clean_sbu_0, # of connection points: 5
#     Node 7, Type 0, BuildingBlock: BEQFEK_clean_sbu_0, # of connection points: 5
#     Node 8, Type 0, BuildingBlock: BEQFEK_clean_sbu_0, # of connection points: 5
#     Node 9, Type 0, BuildingBlock: BEQFEK_clean_sbu_0, # of connection points: 5
#     Node 10, Type 0, BuildingBlock: BEQFEK_clean_sbu_0, # of connection points: 5
#     Node 11, Type 0, BuildingBlock: BEQFEK_clean_sbu_0, # of connection points: 5
#     Edge 12, Type (0, 0), BuildingBlock: TEMPAE_clean_linker_10, # of connection points: 2
#     Edge 13, Type (0, 0), BuildingBlock: TEMPAE_clean_linker_10, # of connection points: 2
#     Edge 14, Type (0, 0), BuildingBlock: TEMPAE_clean_linker_10, # of connection points: 2
#     Edge 15, Type (0, 0), BuildingBlock: TEMPAE_clean_linker_10, # of connection points: 2
#     Edge 16, Type (0, 0), BuildingBlock: TEMPAE_clean_linker_10, # of connection points: 2
#     Edge 17, Type (0, 0), BuildingBlock: TEMPAE_clean_linker_10, # of connection points: 2
#     Edge 18, Type (0, 0), BuildingBlock: TEMPAE_clean_linker_10, # of connection points: 2
#     Edge 19, Type (0, 0), BuildingBlock: TEMPAE_clean_linker_10, # of connection points: 2
#     Edge 20, Type (0, 0), BuildingBlock: TEMPAE_clean_linker_10, # of connection points: 2
#     Edge 21, Type (0, 0), BuildingBlock: TEMPAE_clean_linker_10, # of connection points: 2
#     Edge 22, Type (0, 0), BuildingBlock: TEMPAE_clean_linker_10, # of connection points: 2
#     Edge 23, Type (0, 0), BuildingBlock: TEMPAE_clean_linker_10, # of connection points: 2
#     Edge 24, Type (0, 0), BuildingBlock: TEMPAE_clean_linker_10, # of connection points: 2
#     Edge 25, Type (0, 0), BuildingBlock: TEMPAE_clean_linker_10, # of connection points: 2
#     Edge 26, Type (0, 0), BuildingBlock: TEMPAE_clean_linker_10, # of connection points: 2
#     Edge 27, Type (0, 0), BuildingBlock: TEMPAE_clean_linker_10, # of connection points: 2
#     Edge 28, Type (0, 0), BuildingBlock: TEMPAE_clean_linker_10, # of connection points: 2
#     Edge 29, Type (0, 0), BuildingBlock: TEMPAE_clean_linker_10, # of connection points: 2
#     Edge 30, Type (0, 0), BuildingBlock: TEMPAE_clean_linker_10, # of connection points: 2
#     Edge 31, Type (0, 0), BuildingBlock: TEMPAE_clean_linker_10, # of connection points: 2
#     Edge 32, Type (0, 0), BuildingBlock: TEMPAE_clean_linker_10, # of connection points: 2
#     Edge 33, Type (0, 0), BuildingBlock: TEMPAE_clean_linker_10, # of connection points: 2
#     Edge 34, Type (0, 0), BuildingBlock: TEMPAE_clean_linker_10, # of connection points: 2
#     Edge 35, Type (0, 0), BuildingBlock: TEMPAE_clean_linker_10, # of connection points: 2
#     Edge 36, Type (0, 0), BuildingBlock: TEMPAE_clean_linker_10, # of connection points: 2
#     Edge 37, Type (0, 0), BuildingBlock: TEMPAE_clean_linker_10, # of connection points: 2
#     Edge 38, Type (0, 0), BuildingBlock: TEMPAE_clean_linker_10, # of connection points: 2
#     Edge 39, Type (0, 0), BuildingBlock: TEMPAE_clean_linker_10, # of connection points: 2
#     Edge 40, Type (0, 0), BuildingBlock: TEMPAE_clean_linker_10, # of connection points: 2
#     Edge 41, Type (0, 0), BuildingBlock: TEMPAE_clean_linker_10, # of connection points: 2
# Relax obj value: 0.426
# Max RMSD: 0.258
# Mean RMSD: 0.258
data_MOF--net-wkx--node1-BEQFEK_clean_sbu_0--edge1-TEMPAE_clean_linker_10
_symmetry_space_group_name_H-M    P1
_symmetry_Int_Tables_number       1
_symmetry_cell_setting            triclinic
loop_
_symmetry_equiv_pos_as_xyz
'x, y, z'
_cell_length_a     35.722349
_cell_length_b     35.711109
_cell_length_c     77.390238
_cell_angle_alpha  89.968756
_cell_angle_beta   90.007173
_cell_angle_gamma 119.99182
loop_
_atom_site_label
_atom_site_type_symbol
_atom_site_fract_x
_atom_site_fract_y
_atom_site_fract_z
_atom_type_partial_charge
Co0 Co 0.21836 0.15709 0.43915 0.0
Co1 Co 0.31771 0.20194 0.44403 0.0
C2 C 0.26524 0.23815 0.45949 0.0
O3 O 0.23144 0.2097 0.45194 0.0
O4 O 0.30099 0.23866 0.45803 0.0
C5 C 0.13679 0.14332 0.42509 0.0
O6 O 0.15878 0.17938 0.41631 0.0
C7 C 0.40619 0.27236 0.44015 0.0
C8 C 0.44368 0.23845 0.44086 0.0
C9 C 0.44763 0.27877 0.43864 0.0
N10 N 0.37898 0.2302 0.44309 0.0
N11 N 0.40158 0.21013 0.44376 0.0
C12 C 0.39174 0.30447 0.43682 0.0
H13 H 0.3575 0.28773 0.43255 0.0
H14 H 0.41241 0.3283 0.42688 0.0
H15 H 0.39442 0.32215 0.44896 0.0
C16 C 0.24134 0.1466 0.40373 0.0
N17 N 0.25208 0.16638 0.41924 0.0
N18 N 0.29437 0.18786 0.42088 0.0
C19 C 0.31202 0.18417 0.40597 0.0
C20 C 0.27905 0.1573 0.39461 0.0
C21 C 0.19651 0.11116 0.39945 0.0
H22 H 0.17894 0.0946 0.4114 0.0
H23 H 0.17873 0.12531 0.39297 0.0
H24 H 0.19691 0.08664 0.39079 0.0
O25 O 0.22637 0.11754 0.45431 0.0
O26 O 0.29751 0.14742 0.45739 0.0
H27 H 0.37199 0.18567 0.40994 0.0
H28 H 0.36706 0.20528 0.38899 0.0
C29 C 0.35961 0.20439 0.40295 0.0
H30 H 0.37636 0.23793 0.40792 0.0
H31 H 0.38807 0.17688 0.44555 0.0
O32 O 0.15637 0.12911 0.43432 0.0
C33 C 0.25916 0.11689 0.46038 0.0
Co34 Co 0.06796 0.22303 0.60441 0.0
Co35 Co 0.11697 0.32273 0.61018 0.0
C36 C 0.02833 0.26454 0.62506 0.0
O37 O 0.02566 0.23187 0.6174 0.0
O38 O 0.062 0.30178 0.62375 0.0
C39 C 0.00227 0.13211 0.60167 0.0
O40 O 0.97523 0.14238 0.60878 0.0
C41 C 0.13294 0.41115 0.60667 0.0
C42 C 0.20424 0.44929 0.60819 0.0
C43 C 0.16782 0.45285 0.60551 0.0
N44 N 0.14813 0.38418 0.6098 0.0
N45 N 0.1907 0.40721 0.61097 0.0
C46 C 0.08657 0.39635 0.60281 0.0
H47 H 0.06928 0.36178 0.59895 0.0
H48 H 0.08395 0.41632 0.5924 0.0
H49 H 0.07099 0.39996 0.6146 0.0
C50 C 0.10032 0.24937 0.56924 0.0
N51 N 0.09099 0.25871 0.58494 0.0
N52 N 0.10998 0.30085 0.58688 0.0
C53 C 0.13067 0.3198 0.572 0.0
C54 C 0.12573 0.28785 0.5603 0.0
C55 C 0.09264 0.20527 0.56464 0.0
H56 H 0.09963 0.19079 0.57598 0.0
H57 H 0.05815 0.1842 0.56113 0.0
H58 H 0.11331 0.20595 0.55384 0.0
O59 O 0.116 0.2337 0.61972 0.0
O60 O 0.15301 0.30482 0.62355 0.0
H61 H 0.18742 0.38087 0.57653 0.0
H62 H 0.16353 0.37591 0.55543 0.0
C63 C 0.15654 0.36766 0.56932 0.0
H64 H 0.13835 0.38296 0.5743 0.0
H65 H 0.21061 0.39399 0.61298 0.0
O66 O 0.04074 0.1615 0.59832 0.0
C67 C 0.14775 0.26728 0.6262 0.0
Co68 Co 0.85151 0.06036 0.76983 0.0
Co69 Co 0.79738 0.10562 0.77576 0.0
C70 C 0.76952 0.01864 0.79084 0.0
O71 O 0.80204 0.0198 0.78371 0.0
O72 O 0.76208 0.04976 0.78887 0.0
C73 C 0.8675 0.99686 0.75336 0.0
O74 O 0.83278 0.9857 0.74403 0.0
C75 C 0.72593 0.12423 0.77253 0.0
C76 C 0.76141 0.19554 0.77435 0.0
C77 C 0.72072 0.16027 0.77146 0.0
N78 N 0.76794 0.13787 0.77542 0.0
N79 N 0.78881 0.18046 0.77675 0.0
C80 C 0.69184 0.07759 0.77102 0.0
H81 H 0.69971 0.05737 0.7794 0.0
H82 H 0.6905 0.06679 0.75748 0.0
H83 H 0.65967 0.07261 0.77475 0.0
C84 C 0.85643 0.09289 0.7347 0.0
N85 N 0.83748 0.08224 0.75035 0.0
N86 N 0.81238 0.0991 0.75232 0.0
C87 C 0.81284 0.11923 0.73742 0.0
C88 C 0.8412 0.11643 0.72575 0.0
C89 C 0.8952 0.08907 0.73012 0.0
H90 H 0.91216 0.08818 0.74196 0.0
H91 H 0.88462 0.05879 0.72274 0.0
H92 H 0.91843 0.11674 0.7221 0.0
O93 O 0.89038 0.10925 0.78422 0.0
O94 O 0.85218 0.14174 0.78917 0.0
H95 H 0.80459 0.17388 0.74147 0.0
H96 H 0.78543 0.14789 0.72073 0.0
C97 C 0.78809 0.14233 0.73467 0.0
H98 H 0.75511 0.12281 0.74002 0.0
H99 H 0.82204 0.19936 0.77878 0.0
O100 O 0.88081 0.02803 0.76398 0.0
C101 C 0.88647 0.13945 0.7911 0.0
Co102 Co 0.7706 0.83973 0.93565 0.0
Co103 Co 0.67261 0.78955 0.94448 0.0
C104 C 0.73435 0.76072 0.95744 0.0
O105 O 0.76522 0.7915 0.94928 0.0
O106 O 0.69615 0.75512 0.95666 0.0
C107 C 0.85964 0.86383 0.92897 0.0
O108 O 0.84926 0.82495 0.93436 0.0
C109 C 0.58524 0.71685 0.94053 0.0
C110 C 0.54512 0.7461 0.94691 0.0
C111 C 0.54294 0.70825 0.94129 0.0
N112 N 0.61131 0.75793 0.94546 0.0
N113 N 0.58716 0.77512 0.94949 0.0
C114 C 0.60108 0.68826 0.9335 0.0
H115 H 0.63554 0.70772 0.92964 0.0
H116 H 0.58115 0.66951 0.92229 0.0
H117 H 0.59814 0.66503 0.94367 0.0
C118 C 0.73908 0.83924 0.9011 0.0
N119 N 0.73169 0.82304 0.9172 0.0
N120 N 0.69025 0.80485 0.92074 0.0
C121 C 0.66998 0.81006 0.90694 0.0
C122 C 0.70043 0.83251 0.89406 0.0
C123 C 0.78333 0.86571 0.89352 0.0
H124 H 0.80276 0.85 0.89625 0.0
H125 H 0.78182 0.86944 0.87933 0.0
H126 H 0.79969 0.89817 0.89962 0.0
O127 O 0.76138 0.87849 0.95094 0.0
O128 O 0.6918 0.84324 0.95794 0.0
H129 H 0.6203 0.81835 0.91854 0.0
H130 H 0.61567 0.81201 0.89533 0.0
C131 C 0.62442 0.8013 0.90736 0.0
H132 H 0.60213 0.76614 0.9091 0.0
H133 H 0.59947 0.80716 0.95336 0.0
O134 O 0.83074 0.87454 0.92795 0.0
C135 C 0.72931 0.87647 0.95896 0.0
Co136 Co 0.92854 0.77409 0.1048 0.0
Co137 Co 0.87262 0.67575 0.11202 0.0
C138 C 0.96412 0.73254 0.12633 0.0
O139 O 0.97071 0.76513 0.11745 0.0
O140 O 0.92793 0.69732 0.1258 0.0
C141 C 0.99516 0.86248 0.09618 0.0
O142 O 0.02352 0.84934 0.09544 0.0
C143 C 0.85694 0.58922 0.10484 0.0
C144 C 0.79035 0.5476 0.11439 0.0
C145 C 0.82412 0.54622 0.1061 0.0
N146 N 0.84276 0.61431 0.11175 0.0
N147 N 0.80304 0.58933 0.11753 0.0
C148 C 0.90163 0.60706 0.09774 0.0
H149 H 0.92344 0.63973 0.10306 0.0
H150 H 0.90074 0.61023 0.0835 0.0
H151 H 0.91463 0.58537 0.10082 0.0
C152 C 0.89805 0.74714 0.06949 0.0
N153 N 0.90474 0.73763 0.0856 0.0
N154 N 0.87853 0.69636 0.08868 0.0
C155 C 0.85307 0.67843 0.07468 0.0
C156 C 0.86437 0.71013 0.062 0.0
C157 C 0.92102 0.79191 0.06214 0.0
H158 H 0.95572 0.8081 0.06569 0.0
H159 H 0.91801 0.7914 0.04786 0.0
H160 H 0.90716 0.81093 0.06775 0.0
O161 O 0.8808 0.76496 0.12058 0.0
O162 O 0.83767 0.6946 0.1249 0.0
H163 H 0.79046 0.6306 0.06448 0.0
H164 H 0.82313 0.60967 0.07328 0.0
C165 C 0.81344 0.63452 0.0749 0.0
H166 H 0.7968 0.62903 0.08752 0.0
H167 H 0.78438 0.60079 0.12337 0.0
O168 O 0.95551 0.83552 0.09886 0.0
C169 C 0.84713 0.73359 0.1273 0.0
Co170 Co 0.15093 0.93379 0.27154 0.0
Co171 Co 0.19736 0.88066 0.27637 0.0
C172 C 0.2302 0.96722 0.29321 0.0
O173 O 0.2018 0.97227 0.28544 0.0
O174 O 0.2321 0.93278 0.29137 0.0
C175 C 0.13781 0.00032 0.25592 0.0
O176 O 0.17157 0.01029 0.24614 0.0
C177 C 0.26818 0.86258 0.27327 0.0
C178 C 0.23366 0.79115 0.27257 0.0
C179 C 0.27433 0.82747 0.27133 0.0
N180 N 0.22579 0.84773 0.27551 0.0
N181 N 0.20536 0.805 0.27537 0.0
C182 C 0.30104 0.90934 0.27098 0.0
H183 H 0.28515 0.92789 0.267 0.0
H184 H 0.32556 0.91338 0.26122 0.0
H185 H 0.31781 0.92245 0.28346 0.0
C186 C 0.14324 0.90212 0.23599 0.0
N187 N 0.16271 0.91142 0.25157 0.0
N188 N 0.18557 0.892 0.25317 0.0
C189 C 0.18335 0.87169 0.23813 0.0
C190 C 0.15585 0.87677 0.22675 0.0
C191 C 0.10588 0.90865 0.23183 0.0
H192 H 0.09002 0.91051 0.24383 0.0
H193 H 0.11779 0.93927 0.22452 0.0
H194 H 0.0813 0.88176 0.22387 0.0
O195 O 0.11003 0.88455 0.2857 0.0
O196 O 0.14121 0.84439 0.28844 0.0
H197 H 0.18684 0.81408 0.24146 0.0
H198 H 0.20771 0.84099 0.22101 0.0
C199 C 0.20533 0.84599 0.23503 0.0
H200 H 0.23837 0.86322 0.24051 0.0
H201 H 0.17192 0.78536 0.27648 0.0
O202 O 0.12405 0.96884 0.26642 0.0
C203 C 0.10965 0.85076 0.29124 0.0
Co204 Co 0.85382 0.77962 0.40144 0.0
Co205 Co 0.79607 0.68045 0.3963 0.0
C206 C 0.76957 0.74153 0.38199 0.0
O207 O 0.80368 0.7725 0.38846 0.0
O208 O 0.76071 0.70246 0.38405 0.0
C209 C 0.87617 0.86838 0.40792 0.0
O210 O 0.83477 0.85524 0.40652 0.0
C211 C 0.72276 0.59233 0.40037 0.0
C212 C 0.75566 0.55389 0.39909 0.0
C213 C 0.71581 0.55061 0.40178 0.0
N214 N 0.76489 0.61905 0.39709 0.0
N215 N 0.78424 0.5958 0.39608 0.0
C216 C 0.69135 0.60743 0.40409 0.0
H217 H 0.70873 0.64189 0.4081 0.0
H218 H 0.66827 0.58734 0.41435 0.0
H219 H 0.67271 0.60436 0.39218 0.0
C220 C 0.85852 0.75377 0.43679 0.0
N221 N 0.83983 0.74468 0.4211 0.0
N222 N 0.81416 0.70274 0.4195 0.0
C223 C 0.81435 0.68378 0.43463 0.0
C224 C 0.84282 0.71547 0.44612 0.0
C225 C 0.89672 0.79693 0.44117 0.0
H226 H 0.91697 0.81136 0.42953 0.0
H227 H 0.88513 0.81888 0.44567 0.0
H228 H 0.91732 0.7945 0.45131 0.0
O229 O 0.88917 0.76625 0.38647 0.0
O230 O 0.84832 0.69583 0.38169 0.0
H231 H 0.80468 0.62018 0.43112 0.0
H232 H 0.78669 0.62866 0.45185 0.0
C233 C 0.78896 0.63612 0.43784 0.0
H234 H 0.75584 0.62291 0.43266 0.0
H235 H 0.81731 0.60881 0.394 0.0
O236 O 0.88916 0.84122 0.40688 0.0
C237 C 0.88322 0.7316 0.37941 0.0
Co238 Co 0.0591 0.84423 0.56968 0.0
Co239 Co 0.11356 0.79929 0.56441 0.0
C240 C 0.02481 0.76307 0.54916 0.0
O241 O 0.01952 0.79148 0.55682 0.0
O242 O 0.06001 0.76249 0.55056 0.0
C243 C 0.99421 0.8578 0.58652 0.0
O244 O 0.98597 0.82475 0.59648 0.0
C245 C 0.1328 0.72945 0.56789 0.0
C246 C 0.20418 0.76413 0.56683 0.0
C247 C 0.16821 0.72358 0.56916 0.0
N248 N 0.14714 0.77153 0.565 0.0
N249 N 0.18979 0.79204 0.56411 0.0
C250 C 0.08649 0.69689 0.5714 0.0
H251 H 0.06866 0.71324 0.57574 0.0
H252 H 0.08397 0.67333 0.58135 0.0
H253 H 0.07138 0.67896 0.55932 0.0
C254 C 0.09574 0.85646 0.60462 0.0
N255 N 0.08482 0.83542 0.58937 0.0
N256 N 0.10486 0.81319 0.58764 0.0
C257 C 0.12727 0.81741 0.6023 0.0
C258 C 0.12287 0.84557 0.61354 0.0
C259 C 0.0887 0.89358 0.60864 0.0
H260 H 0.0852 0.90822 0.59657 0.0
H261 H 0.05882 0.88173 0.61643 0.0
H262 H 0.11613 0.91913 0.61607 0.0
O263 O 0.10604 0.88421 0.55433 0.0
O264 O 0.14713 0.8541 0.55117 0.0
H265 H 0.18505 0.81483 0.59798 0.0
H266 H 0.16119 0.7959 0.61907 0.0
C267 C 0.15417 0.7966 0.60514 0.0
H268 H 0.13678 0.76296 0.60027 0.0
H269 H 0.20912 0.82533 0.56229 0.0
O270 O 0.02408 0.87094 0.5753 0.0
C271 C 0.13939 0.88472 0.5482 0.0
Co272 Co 0.23342 0.07579 0.73486 0.0
Co273 Co 0.33145 0.13191 0.72728 0.0
C274 C 0.27429 0.04108 0.71244 0.0
O275 O 0.24196 0.03438 0.72149 0.0
O276 O 0.30965 0.07713 0.71306 0.0
C277 C 0.14369 0.0094 0.73903 0.0
O278 O 0.1545 0.98239 0.73229 0.0
C279 C 0.4168 0.1465 0.7351 0.0
C280 C 0.46017 0.21141 0.7243 0.0
C281 C 0.4601 0.178 0.73351 0.0
N282 N 0.39275 0.161 0.72749 0.0
N283 N 0.41873 0.19974 0.72099 0.0
C284 C 0.39782 0.10258 0.74311 0.0
H285 H 0.39389 0.1052 0.75721 0.0
H286 H 0.41921 0.08873 0.74104 0.0
H287 H 0.36537 0.08061 0.73763 0.0
C288 C 0.26099 0.10421 0.77012 0.0
N289 N 0.27042 0.09832 0.75389 0.0
N290 N 0.31149 0.12511 0.75075 0.0
C291 C 0.32934 0.15027 0.76484 0.0
C292 C 0.29777 0.13808 0.77762 0.0
C293 C 0.21632 0.08062 0.77754 0.0
H294 H 0.20011 0.04615 0.7736 0.0
H295 H 0.21708 0.08274 0.79186 0.0
H296 H 0.19717 0.09481 0.77236 0.0
O297 O 0.24214 0.12457 0.7197 0.0
O298 O 0.3124 0.16756 0.71502 0.0
H299 H 0.37875 0.20661 0.75197 0.0
H300 H 0.37586 0.21339 0.77496 0.0
C301 C 0.37288 0.19037 0.76471 0.0
H302 H 0.39806 0.18131 0.76679 0.0
H303 H 0.40818 0.21838 0.71448 0.0
O304 O 0.17254 0.04845 0.74174 0.0
C305 C 0.27339 0.15848 0.71303 0.0
Co306 Co 0.14867 0.21048 0.90187 0.0
Co307 Co 0.19955 0.3099 0.89647 0.0
C308 C 0.2325 0.25424 0.88216 0.0
O309 O 0.20032 0.22187 0.889 0.0
O310 O 0.23773 0.29205 0.88391 0.0
C311 C 0.13359 0.13091 0.91808 0.0
O312 O 0.1671 0.1546 0.92799 0.0
C313 C 0.26977 0.39921 0.89995 0.0
C314 C 0.23449 0.43539 0.89942 0.0
C315 C 0.27518 0.44026 0.90153 0.0
N316 N 0.22773 0.37126 0.89709 0.0
N317 N 0.2069 0.39314 0.89649 0.0
C318 C 0.30276 0.38587 0.90319 0.0
H319 H 0.28688 0.35195 0.90784 0.0
H320 H 0.32704 0.40752 0.91279 0.0
H321 H 0.31974 0.38805 0.8909 0.0
C322 C 0.13916 0.23596 0.93688 0.0
N323 N 0.15936 0.24536 0.92147 0.0
N324 N 0.18336 0.28751 0.91974 0.0
C325 C 0.18095 0.30628 0.93457 0.0
C326 C 0.15236 0.27427 0.94592 0.0
C327 C 0.10124 0.19245 0.94108 0.0
H328 H 0.08563 0.17452 0.92908 0.0
H329 H 0.11248 0.17357 0.94867 0.0
H330 H 0.07669 0.19547 0.94879 0.0
O331 O 0.11019 0.21922 0.88668 0.0
O332 O 0.14567 0.29022 0.88236 0.0
H333 H 0.18712 0.36843 0.93084 0.0
H334 H 0.20625 0.36162 0.95158 0.0
C335 C 0.20432 0.35404 0.93759 0.0
H336 H 0.23757 0.36872 0.93239 0.0
H337 H 0.17356 0.37897 0.89482 0.0
O338 O 0.12055 0.14869 0.9073 0.0
C339 C 0.11281 0.25287 0.87986 0.0
Co340 Co 0.92923 0.1536 0.06825 0.0
Co341 Co 0.87233 0.19506 0.06139 0.0
C342 C 0.96358 0.23076 0.04673 0.0
O343 O 0.97071 0.20509 0.05558 0.0
O344 O 0.92716 0.22926 0.04739 0.0
C345 C 0.99692 0.13423 0.07803 0.0
O346 O 0.02303 0.17559 0.08093 0.0
C347 C 0.85633 0.26557 0.06874 0.0
C348 C 0.78958 0.24045 0.05936 0.0
C349 C 0.82346 0.27569 0.06755 0.0
N350 N 0.8421 0.22626 0.06185 0.0
N351 N 0.80228 0.21142 0.05618 0.0
C352 C 0.90114 0.29258 0.0757 0.0
H353 H 0.92291 0.28175 0.07031 0.0
H354 H 0.90051 0.28865 0.08994 0.0
H355 H 0.91401 0.32723 0.07258 0.0
C356 C 0.89896 0.14941 0.10374 0.0
N357 N 0.90534 0.16563 0.08763 0.0
N358 N 0.87889 0.18047 0.08469 0.0
C359 C 0.85361 0.17277 0.09876 0.0
C360 C 0.86528 0.15253 0.11137 0.0
C361 C 0.92234 0.12794 0.111 0.0
H362 H 0.90927 0.09542 0.10513 0.0
H363 H 0.95712 0.14721 0.10768 0.0
H364 H 0.91891 0.12472 0.12526 0.0
O365 O 0.88134 0.11454 0.05257 0.0
O366 O 0.83754 0.14114 0.04857 0.0
H367 H 0.797 0.16556 0.08612 0.0
H368 H 0.79105 0.15762 0.10915 0.0
C369 C 0.81382 0.17678 0.09869 0.0
H370 H 0.82334 0.21127 0.10033 0.0
H371 H 0.78359 0.18128 0.05037 0.0
O372 O 0.95781 0.12043 0.07382 0.0
C373 C 0.84733 0.11188 0.04602 0.0
Co374 Co 0.77516 0.93133 0.23832 0.0
Co375 Co 0.67687 0.8832 0.22998 0.0
C376 C 0.73829 0.97377 0.21675 0.0
O377 O 0.76944 0.97414 0.22479 0.0
O378 O 0.70016 0.94109 0.21771 0.0
C379 C 0.8649 0.99577 0.24428 0.0
O380 O 0.85494 0.02444 0.2387 0.0
C381 C 0.58941 0.86813 0.23459 0.0
C382 C 0.54938 0.79902 0.22778 0.0
C383 C 0.54714 0.83435 0.2338 0.0
N384 N 0.61551 0.85346 0.2293 0.0
N385 N 0.59141 0.81228 0.22503 0.0
C386 C 0.60521 0.91231 0.24186 0.0
H387 H 0.63973 0.92729 0.24564 0.0
H388 H 0.58538 0.91073 0.25318 0.0
H389 H 0.6021 0.93288 0.23187 0.0
C390 C 0.74469 0.90034 0.273 0.0
N391 N 0.73677 0.90914 0.25698 0.0
N392 N 0.6953 0.88552 0.25358 0.0
C393 C 0.67556 0.85964 0.26735 0.0
C394 C 0.7064 0.86785 0.28011 0.0
C395 C 0.78916 0.91926 0.28048 0.0
H396 H 0.80794 0.95433 0.27753 0.0
H397 H 0.78795 0.9146 0.2947 0.0
H398 H 0.80602 0.90353 0.27449 0.0
O399 O 0.76538 0.88322 0.22295 0.0
O400 O 0.69557 0.84864 0.21636 0.0
H401 H 0.62615 0.80225 0.25532 0.0
H402 H 0.62222 0.80174 0.27858 0.0
C403 C 0.63028 0.82229 0.26688 0.0
H404 H 0.60744 0.83468 0.26581 0.0
H405 H 0.60375 0.79282 0.22084 0.0
O406 O 0.83555 0.9564 0.24569 0.0
C407 C 0.73308 0.85304 0.21509 0.0
C408 C 0.06581 0.08966 0.43698 0.0
C409 C 0.08978 0.11612 0.42317 0.0
C410 C 0.0239 0.05526 0.43446 0.0
C411 C 0.00606 0.04694 0.41764 0.0
C412 C 0.02797 0.07693 0.40417 0.0
C413 C 0.06992 0.11151 0.40711 0.0
C414 C 0.00123 0.02468 0.44929 0.0
C415 C 0.00941 0.06966 0.38618 0.0
C416 C 0.9523 0.92808 0.4076 0.0
C417 C 0.90841 0.91472 0.40962 0.0
C418 C 0.98401 0.97143 0.40939 0.0
C419 C 0.97164 0.00239 0.41344 0.0
C420 C 0.92733 0.98953 0.41495 0.0
C421 C 0.89607 0.94562 0.41302 0.0
C422 C 0.03096 0.98373 0.40751 0.0
C423 C 0.91294 0.0216 0.41925 0.0
H424 H 0.08098 0.094 0.44953 0.0
H425 H 0.08838 0.13236 0.39647 0.0
H426 H 0.96628 0.01405 0.44936 0.0
H427 H 0.00438 0.99546 0.44779 0.0
H428 H 0.01533 0.03973 0.46197 0.0
H429 H 0.02473 0.1 0.37848 0.0
H430 H 0.01526 0.0456 0.37947 0.0
H431 H 0.97397 0.05663 0.38657 0.0
H432 H 0.96212 0.90453 0.40472 0.0
H433 H 0.86213 0.93547 0.41449 0.0
H434 H 0.0479 0.99585 0.42003 0.0
H435 H 0.04727 0.0101 0.39789 0.0
H436 H 0.03482 0.95607 0.40336 0.0
H437 H 0.91651 0.02812 0.43334 0.0
H438 H 0.87852 0.00905 0.41577 0.0
H439 H 0.93312 0.05282 0.4125 0.0
C440 C 0.96433 0.90259 0.57578 0.0
C441 C 0.97435 0.88444 0.5898 0.0
C442 C 0.95676 0.93707 0.5782 0.0
C443 C 0.96078 0.95443 0.59497 0.0
C444 C 0.96626 0.93311 0.60938 0.0
C445 C 0.97265 0.89786 0.60661 0.0
C446 C 0.94978 0.95806 0.56254 0.0
C447 C 0.97094 0.9507 0.62746 0.0
C448 C 0.02275 0.07637 0.59579 0.0
C449 C 0.99031 0.08641 0.59938 0.0
C450 C 0.01334 0.03353 0.59461 0.0
C451 C 0.97017 -0.00037 0.59675 0.0
C452 C 0.93699 0.00933 0.60009 0.0
C453 C 0.94753 0.05279 0.60152 0.0
C454 C 0.04987 0.02465 0.59112 0.0
C455 C 0.89057 0.97392 0.60214 0.0
H456 H 0.96518 0.89166 0.56279 0.0
H457 H 0.98049 0.8837 0.61743 0.0
H458 H 0.92633 0.96902 0.56536 0.0
H459 H 0.98086 0.98691 0.55885 0.0
H460 H 0.9379 0.93568 0.55132 0.0
H461 H 0.9657 0.92599 0.63736 0.0
H462 H 0.0041 0.97857 0.62911 0.0
H463 H 0.94791 0.96241 0.6298 0.0
H464 H 0.05593 0.10209 0.59421 0.0
H465 H 0.92234 0.06041 0.60429 0.0
H466 H 0.04432 0.00727 0.57867 0.0
H467 H 0.05111 0.00364 0.60141 0.0
H468 H 0.08184 0.05474 0.5905 0.0
H469 H 0.87985 0.95324 0.59043 0.0
H470 H 0.86846 0.98692 0.60432 0.0
H471 H 0.88763 0.95285 0.6132 0.0
C472 C 0.91322 0.9687 0.76463 0.0
C473 C 0.89463 0.97746 0.75041 0.0
C474 C 0.948 0.96155 0.76246 0.0
C475 C 0.96521 0.96472 0.74571 0.0
C476 C 0.94346 0.96885 0.73114 0.0
C477 C 0.90792 0.97486 0.73369 0.0
C478 C 0.96948 0.95603 0.77829 0.0
C479 C 0.96088 0.97254 0.71308 0.0
C480 C 0.08701 0.02869 0.7446 0.0
C481 C 0.09784 0.99663 0.74145 0.0
C482 C 0.04394 0.01849 0.74574 0.0
C483 C 0.01065 0.9749 0.74402 0.0
C484 C 0.02117 0.94209 0.74117 0.0
C485 C 0.06483 0.95343 0.73976 0.0
C486 C 0.03418 0.05462 0.74871 0.0
C487 C 0.98641 0.89527 0.73958 0.0
H488 H 0.90234 0.97024 0.77756 0.0
H489 H 0.89338 0.98171 0.72272 0.0
H490 H 0.98098 0.93286 0.77582 0.0
H491 H -0.00199 0.98761 0.78171 0.0
H492 H 0.94722 0.94455 0.78955 0.0
H493 H 0.93594 0.96624 0.70316 0.0
H494 H 0.9884 0.00578 0.7111 0.0
H495 H 0.97305 0.94974 0.7111 0.0
H496 H 0.11226 0.06219 0.74584 0.0
H497 H 0.07308 0.92853 0.73733 0.0
H498 H 0.01685 0.04955 0.76115 0.0
H499 H 0.01282 0.05471 0.73831 0.0
H500 H 0.06388 0.08694 0.74905 0.0
H501 H 0.96546 0.88512 0.75121 0.0
H502 H 4e-05 0.87352 0.73799 0.0
H503 H 0.96547 0.89107 0.72831 0.0
C504 C 0.91553 0.93966 0.92251 0.0
C505 C 0.90528 0.89717 0.92623 0.0
C506 C 0.95842 0.97306 0.92163 0.0
C507 C 0.99214 0.96371 0.92424 0.0
C508 C 0.98225 0.92067 0.92735 0.0
C509 C 0.93875 0.88781 0.92845 0.0
C510 C 0.96752 0.01859 0.91823 0.0
C511 C 0.01743 0.90951 0.92987 0.0
C512 C 0.09164 0.05748 0.90595 0.0
C513 C 0.10727 0.08412 0.92052 0.0
C514 C 0.05726 0.01506 0.90736 0.0
C515 C 0.03739 -0.00017 0.92363 0.0
C516 C 0.05622 0.02508 0.93865 0.0
C517 C 0.09146 0.06714 0.93691 0.0
C518 C 0.03905 0.98864 0.89113 0.0
C519 C 0.03593 0.00997 0.95623 0.0
H520 H 0.88992 0.94721 0.9207 0.0
H521 H 0.93103 0.855 0.93132 0.0
H522 H 0.98692 0.04023 0.92895 0.0
H523 H 0.98665 0.03127 0.90619 0.0
H524 H 0.93747 0.02035 0.91688 0.0
H525 H 0.00458 0.87404 0.92962 0.0
H526 H 0.04257 0.9249 0.91972 0.0
H527 H 0.03341 0.92216 0.94251 0.0
H528 H 0.10447 0.07078 0.89329 0.0
H529 H 0.10371 0.08801 0.94813 0.0
H530 H 0.01063 0.9909 0.88679 0.0
H531 H 0.02807 0.95404 0.89354 0.0
H532 H 0.06319 0.00051 0.8805 0.0
H533 H 0.00688 0.01358 0.95717 0.0
H534 H 0.05854 0.02914 0.96677 0.0
H535 H 0.02534 0.97533 0.9582 0.0
C536 C 0.98336 0.92341 0.10303 0.0
C537 C 0.0086 0.90866 0.09491 0.0
C538 C 0.99215 0.96583 0.10082 0.0
C539 C 0.02675 0.99414 0.08998 0.0
C540 C 0.05418 0.98037 0.08264 0.0
C541 C 0.04487 0.93758 0.08527 0.0
C542 C 0.9624 0.97931 0.10913 0.0
C543 C 0.09147 0.00974 0.0711 0.0
C544 C 0.99355 0.0668 0.06829 0.0
C545 C 0.01215 0.10294 0.07916 0.0
C546 C 0.00186 0.03287 0.07059 0.0
C547 C 0.02889 0.03483 0.08435 0.0
C548 C 0.05067 0.07286 0.09448 0.0
C549 C 0.04219 0.10683 0.09168 0.0
C550 C 0.97851 0.99326 0.05928 0.0
C551 C 0.07997 0.07622 0.10916 0.0
H552 H 0.95587 0.90135 0.11084 0.0
H553 H 0.06465 0.92624 0.07912 0.0
H554 H 0.98139 0.01089 0.11574 0.0
H555 H 0.94257 0.98321 0.09902 0.0
H556 H 0.94022 0.95517 0.11869 0.0
H557 H 0.11478 0.99797 0.06953 0.0
H558 H 0.07893 0.01108 0.05813 0.0
H559 H 0.10883 0.04316 0.07628 0.0
H560 H 0.97104 0.0643 0.05832 0.0
H561 H 0.05685 0.13504 0.09999 0.0
H562 H 0.95238 0.96656 0.06684 0.0
H563 H 0.00092 0.98219 0.05488 0.0
H564 H 0.96378 -0.00065 0.04775 0.0
H565 H 0.06 0.05804 0.12045 0.0
H566 H 0.1015 0.11034 0.11314 0.0
H567 H 0.10009 0.06178 0.10556 0.0
C568 C 0.09507 0.03099 0.26801 0.0
C569 C 0.11175 0.02109 0.25347 0.0
C570 C 0.06085 0.03925 0.26642 0.0
C571 C 0.04222 0.03597 0.24997 0.0
C572 C 0.06213 0.03066 0.23505 0.0
C573 C 0.09717 0.02359 0.23699 0.0
C574 C 0.04145 0.04616 0.28259 0.0
C575 C 0.04317 0.02688 0.21728 0.0
C576 C 0.9203 0.97477 0.25008 0.0
C577 C 0.91045 0.00749 0.24683 0.0
C578 C 0.96308 0.9839 0.25101 0.0
C579 C 0.99708 0.02707 0.24896 0.0
C580 C 0.98757 0.06061 0.24621 0.0
C581 C 0.94418 0.05035 0.24503 0.0
C582 C 0.97176 0.94704 0.25398 0.0
C583 C 0.02307 0.10703 0.24426 0.0
H584 H 0.10691 0.02948 0.28075 0.0
H585 H 0.11021 0.01581 0.22578 0.0
H586 H 0.03074 0.07005 0.28033 0.0
H587 H 0.01267 0.01517 0.28642 0.0
H588 H 0.06476 0.05747 0.29351 0.0
H589 H 0.06672 0.03153 0.20695 0.0
H590 H 0.01445 0.99418 0.21577 0.0
H591 H 0.03236 0.05082 0.21548 0.0
H592 H 0.89449 0.94156 0.2515 0.0
H593 H 0.93675 0.0758 0.24252 0.0
H594 H 0.99005 0.95228 0.26617 0.0
H595 H 0.99183 0.9457 0.24332 0.0
H596 H 0.94155 0.9152 0.25479 0.0
H597 H 0.0468 0.11622 0.25494 0.0
H598 H 0.01032 0.12973 0.24412 0.0
H599 H 0.04076 0.1109 0.23201 0.0
C600 C 0.63621 0.50009 0.39987 0.0
C601 C 0.6762 0.5112 0.40725 0.0
C602 C 0.59859 0.4622 0.40489 0.0
C603 C 0.60118 0.43541 0.41778 0.0
C604 C 0.64154 0.44683 0.42537 0.0
C605 C 0.67871 0.48437 0.41984 0.0
C606 C 0.55623 0.45053 0.39625 0.0
C607 C 0.64545 0.41952 0.43938 0.0
C608 C 0.49821 0.35805 0.44161 0.0
C609 C 0.48721 0.31873 0.43361 0.0
C610 C 0.53546 0.39634 0.43667 0.0
C611 C 0.56175 0.39516 0.42323 0.0
C612 C 0.55066 0.35541 0.41511 0.0
C613 C 0.51372 0.31751 0.42057 0.0
C614 C 0.54685 0.43795 0.44589 0.0
C615 C 0.57753 0.35301 0.40055 0.0
H616 H 0.63451 0.52057 0.38992 0.0
H617 H 0.70973 0.4932 0.42559 0.0
H618 H 0.54269 0.41843 0.38996 0.0
H619 H 0.53241 0.44802 0.40605 0.0
H620 H 0.55981 0.47466 0.38636 0.0
H621 H 0.67903 0.4337 0.44433 0.0
H622 H 0.62382 0.41584 0.45034 0.0
H623 H 0.63502 0.38665 0.43437 0.0
H624 H 0.47795 0.35872 0.45189 0.0
H625 H 0.50496 0.287 0.41435 0.0
H626 H 0.54794 0.46202 0.43653 0.0
H627 H 0.57949 0.45188 0.45173 0.0
H628 H 0.52332 0.4332 0.45624 0.0
H629 H 0.57985 0.37489 0.3899 0.0
H630 H 0.56382 0.31974 0.39532 0.0
H631 H 0.61089 0.36409 0.40512 0.0
C632 C 0.19693 0.51949 0.58766 0.0
C633 C 0.16771 0.49246 0.60024 0.0
C634 C 0.19701 0.55696 0.58219 0.0
C635 C 0.16788 0.56808 0.58983 0.0
C636 C 0.13874 0.54116 0.60275 0.0
C637 C 0.13874 0.50335 0.6077 0.0
C638 C 0.22798 0.58441 0.56815 0.0
C639 C 0.10789 0.55252 0.61145 0.0
C640 C 0.19677 0.6856 0.58705 0.0
C641 C 0.16861 0.68394 0.57411 0.0
C642 C 0.19652 0.64798 0.59246 0.0
C643 C 0.16816 0.60809 0.58437 0.0
C644 C 0.14028 0.60648 0.57102 0.0
C645 C 0.14058 0.64447 0.56615 0.0
C646 C 0.22616 0.65083 0.60694 0.0
C647 C 0.11035 0.56471 0.56184 0.0
H648 H 0.21917 0.51083 0.58185 0.0
H649 H 0.11666 0.48272 0.61763 0.0
H650 H 0.20979 0.58771 0.55719 0.0
H651 H 0.2501 0.61741 0.57312 0.0
H652 H 0.2477 0.57057 0.56322 0.0
H653 H 0.08774 0.52845 0.62143 0.0
H654 H 0.12626 0.58476 0.61765 0.0
H655 H 0.0862 0.55455 0.60171 0.0
H656 H 0.21828 0.71621 0.59325 0.0
H657 H 0.11929 0.64346 0.55595 0.0
H658 H 0.24861 0.64 0.60233 0.0
H659 H 0.20693 0.62897 0.61765 0.0
H660 H 0.24554 0.68419 0.61211 0.0
H661 H 0.1293 0.55104 0.556 0.0
H662 H 0.09135 0.56916 0.55149 0.0
H663 H 0.08757 0.54058 0.57122 0.0
C664 C 0.49773 0.15613 0.75528 0.0
C665 C 0.49891 0.17743 0.73989 0.0
C666 C 0.53388 0.15393 0.76091 0.0
C667 C 0.57261 0.17483 0.75123 0.0
C668 C 0.57472 0.19822 0.73614 0.0
C669 C 0.53775 0.19908 0.73061 0.0
C670 C 0.53038 0.12857 0.77705 0.0
C671 C 0.61579 0.22173 0.72568 0.0
C672 C 0.67646 0.19638 0.77328 0.0
C673 C 0.68195 0.16288 0.76668 0.0
C674 C 0.64113 0.20089 0.76831 0.0
C675 C 0.61043 0.17092 0.75656 0.0
C676 C 0.61586 0.13714 0.7498 0.0
C677 C 0.65197 0.13401 0.7547 0.0
C678 C 0.63688 0.2379 0.7755 0.0
C679 C 0.58367 0.10444 0.73729 0.0
H680 H 0.46875 0.14138 0.76307 0.0
H681 H 0.53907 0.21617 0.71884 0.0
H682 H 0.53692 0.10208 0.77388 0.0
H683 H 0.555 0.14976 0.78663 0.0
H684 H 0.49793 0.11429 0.78314 0.0
H685 H 0.61286 0.2407 0.71491 0.0
H686 H 0.64305 0.24398 0.7341 0.0
H687 H 0.62412 0.19814 0.72018 0.0
H688 H 0.69993 0.21921 0.78234 0.0
H689 H 0.65709 0.10953 0.74877 0.0
H690 H 0.60598 0.22525 0.78265 0.0
H691 H 0.63614 0.25814 0.76477 0.0
H692 H 0.66387 0.25873 0.78434 0.0
H693 H 0.55078 0.08856 0.74301 0.0
H694 H 0.59168 0.07908 0.73379 0.0
H695 H 0.58265 0.12093 0.7253 0.0
C696 C 0.35364 0.49375 0.8984 0.0
C697 C 0.31436 0.48008 0.90692 0.0
C698 C 0.3912 0.53138 0.90364 0.0
C699 C 0.3894 0.55502 0.918 0.0
C700 C 0.3497 0.54104 0.92669 0.0
C701 C 0.31245 0.504 0.92086 0.0
C702 C 0.43271 0.54596 0.89378 0.0
C703 C 0.34673 0.5648 0.94229 0.0
C704 C 0.49456 0.6283 0.94136 0.0
C705 C 0.50375 0.66906 0.93545 0.0
C706 C 0.45713 0.59083 0.93591 0.0
C707 C 0.42903 0.59438 0.92396 0.0
C708 C 0.43857 0.63558 0.91782 0.0
C709 C 0.47557 0.67256 0.92387 0.0
C710 C 0.44738 0.54755 0.9431 0.0
C711 C 0.40994 0.64056 0.90476 0.0
H712 H 0.35479 0.47529 0.8875 0.0
H713 H 0.28196 0.49303 0.92749 0.0
H714 H 0.44538 0.57948 0.88902 0.0
H715 H 0.45759 0.5463 0.90245 0.0
H716 H 0.4283 0.52469 0.88258 0.0
H717 H 0.3136 0.54904 0.94783 0.0
H718 H 0.36945 0.56641 0.95244 0.0
H719 H 0.35634 0.59853 0.93876 0.0
H720 H 0.51623 0.62586 0.95051 0.0
H721 H 0.48303 0.70424 0.91925 0.0
H722 H 0.44575 0.526 0.93246 0.0
H723 H 0.41533 0.53168 0.94954 0.0
H724 H 0.47209 0.5505 0.95256 0.0
H725 H 0.40663 0.6212 0.89306 0.0
H726 H 0.42278 0.67478 0.90085 0.0
H727 H 0.37707 0.62804 0.91019 0.0
C728 C 0.8478 0.33958 0.08744 0.0
C729 C 0.82263 0.31485 0.07345 0.0
C730 C 0.84777 0.37717 0.09262 0.0
C731 C 0.82036 0.38929 0.08414 0.0
C732 C 0.79334 0.36348 0.07053 0.0
C733 C 0.79511 0.32682 0.06525 0.0
C734 C 0.87737 0.40414 0.10709 0.0
C735 C 0.76264 0.37461 0.06154 0.0
C736 C 0.79552 0.4667 0.10836 0.0
C737 C 0.82315 0.50618 0.10017 0.0
C738 C 0.79352 0.4282 0.10304 0.0
C739 C 0.82043 0.42931 0.0894 0.0
C740 C 0.84795 0.46882 0.08093 0.0
C741 C 0.84821 0.50654 0.08615 0.0
C742 C 0.76271 0.38638 0.11202 0.0
C743 C 0.87745 0.47136 0.06643 0.0
H744 H 0.86715 0.32951 0.09462 0.0
H745 H 0.775 0.30759 0.05459 0.0
H746 H 0.89876 0.43778 0.10256 0.0
H747 H 0.85808 0.40561 0.11802 0.0
H748 H 0.89786 0.39109 0.11194 0.0
H749 H 0.7421 0.34987 0.05185 0.0
H750 H 0.74134 0.37776 0.07116 0.0
H751 H 0.78112 0.40625 0.0549 0.0
H752 H 0.77549 0.46587 0.11904 0.0
H753 H 0.86764 0.53595 0.07898 0.0
H754 H 0.78109 0.37312 0.11866 0.0
H755 H 0.74137 0.36197 0.1024 0.0
H756 H 0.74221 0.39065 0.12172 0.0
H757 H 0.89879 0.45902 0.07094 0.0
H758 H 0.898 0.50489 0.06157 0.0
H759 H 0.85808 0.45061 0.05551 0.0
C760 C 0.31439 0.80357 0.25231 0.0
C761 C 0.31441 0.82799 0.26644 0.0
C762 C 0.35257 0.80502 0.24694 0.0
C763 C 0.39127 0.83054 0.25628 0.0
C764 C 0.39114 0.85451 0.27084 0.0
C765 C 0.35269 0.85336 0.27563 0.0
C766 C 0.35165 0.77982 0.23112 0.0
C767 C 0.43151 0.88114 0.28138 0.0
C768 C 0.47913 0.80134 0.25087 0.0
C769 C 0.50777 0.83396 0.2397 0.0
C770 C 0.44153 0.80043 0.25671 0.0
C771 C 0.43187 0.83216 0.25078 0.0
C772 C 0.46058 0.86492 0.23931 0.0
C773 C 0.49857 0.86572 0.23407 0.0
C774 C 0.41224 0.76562 0.26925 0.0
C775 C 0.45078 0.89861 0.23236 0.0
H776 H 0.28469 0.78422 0.24517 0.0
H777 H 0.35238 0.87183 0.28668 0.0
H778 H 0.37512 0.80202 0.22141 0.0
H779 H 0.36154 0.75588 0.2346 0.0
H780 H 0.31911 0.76242 0.22508 0.0
H781 H 0.42561 0.89677 0.29265 0.0
H782 H 0.44429 0.86037 0.28613 0.0
H783 H 0.45696 0.90667 0.27319 0.0
H784 H 0.48657 0.77695 0.25526 0.0
H785 H 0.52057 0.89055 0.22523 0.0
H786 H 0.38004 0.74505 0.26331 0.0
H787 H 0.40732 0.78053 0.28098 0.0
H788 H 0.42548 0.74463 0.27323 0.0
H789 H 0.4195 0.88259 0.22534 0.0
H790 H 0.4763 0.92165 0.22344 0.0
H791 H 0.44746 0.91714 0.24316 0.0
C792 C 0.23863 0.9817 0.32451 0.0
C793 C 0.25261 0.99675 0.30772 0.0
C794 C 0.24855 0.01063 0.33833 0.0
C795 C 0.27459 0.0557 0.33539 0.0
C796 C 0.29182 0.07074 0.31866 0.0
C797 C 0.27955 0.04113 0.30489 0.0
C798 C 0.22808 0.99309 0.35574 0.0
C799 C 0.3214 0.11823 0.31512 0.0
C800 C 0.25314 0.12828 0.36481 0.0
C801 C 0.28226 0.13647 0.37838 0.0
C802 C 0.25081 0.10271 0.35061 0.0
C803 C 0.27998 0.08678 0.34941 0.0
C804 C 0.31166 0.09769 0.36242 0.0
C805 C 0.31163 0.1213 0.37696 0.0
C806 C 0.21554 0.0908 0.33738 0.0
C807 C 0.34463 0.08311 0.36131 0.0
H808 H 0.2168 0.94743 0.32657 0.0
H809 H 0.28976 0.05278 0.29183 0.0
H810 H 0.2531 0.00465 0.36597 0.0
H811 H 0.20566 0.00511 0.35897 0.0
H812 H 0.2097 0.95718 0.35602 0.0
H813 H 0.33856 0.12369 0.30259 0.0
H814 H 0.30228 0.13491 0.31468 0.0
H815 H 0.34568 0.13334 0.32559 0.0
H816 H 0.23076 0.14036 0.36569 0.0
H817 H 0.33365 0.12639 0.38747 0.0
H818 H 0.19438 0.05512 0.33696 0.0
H819 H 0.22976 0.1014 0.32433 0.0
H820 H 0.19522 0.10552 0.34026 0.0
H821 H 0.32899 0.0481 0.36428 0.0
H822 H 0.37164 0.10082 0.37057 0.0
H823 H 0.3581 0.08795 0.34805 0.0
C824 C 0.25992 0.24872 0.49061 0.0
C825 C 0.25892 0.2619 0.47367 0.0
C826 C 0.24131 0.25972 0.50423 0.0
C827 C 0.22292 0.28618 0.50093 0.0
C828 C 0.22547 0.30284 0.48406 0.0
C829 C 0.24224 0.28936 0.47048 0.0
C830 C 0.23796 0.2398 0.5218 0.0
C831 C 0.20845 0.33298 0.48014 0.0
C832 C 0.12857 0.26471 0.53003 0.0
C833 C 0.14953 0.29287 0.54385 0.0
C834 C 0.15188 0.263 0.51574 0.0
C835 C 0.19702 0.29205 0.51471 0.0
C836 C 0.21765 0.32337 0.52784 0.0
C837 C 0.19395 0.32261 0.54249 0.0
C838 C 0.12861 0.2281 0.50236 0.0
C839 C 0.26516 0.35644 0.52684 0.0
H840 H 0.27184 0.22655 0.49295 0.0
H841 H 0.24092 0.29901 0.45732 0.0
H842 H 0.25201 0.26524 0.53186 0.0
H843 H 0.20341 0.21818 0.52513 0.0
H844 H 0.2547 0.22067 0.52231 0.0
H845 H 0.22177 0.35069 0.46782 0.0
H846 H 0.17275 0.31416 0.47898 0.0
H847 H 0.21654 0.3568 0.49072 0.0
H848 H 0.09413 0.24218 0.53089 0.0
H849 H 0.21076 0.34417 0.55315 0.0
H850 H 0.14274 0.2066 0.50198 0.0
H851 H 0.13279 0.24263 0.48935 0.0
H852 H 0.09347 0.20805 0.50507 0.0
H853 H 0.28453 0.3411 0.53031 0.0
H854 H 0.27396 0.38383 0.53585 0.0
H855 H 0.27427 0.36934 0.51351 0.0
C856 C 0.86977 0.18382 0.70743 0.0
C857 C 0.85914 0.14046 0.70923 0.0
C858 C 0.89197 0.20809 0.69276 0.0
C859 C 0.90617 0.18941 0.68007 0.0
C860 C 0.89436 0.14528 0.68157 0.0
C861 C 0.86991 0.12113 0.69583 0.0
C862 C 0.9018 0.25426 0.69125 0.0
C863 C 0.90987 0.12421 0.6687 0.0
C864 C 0.9526 0.23478 0.63568 0.0
C865 C 0.99705 0.25577 0.63905 0.0
C866 C 0.92234 0.21637 0.64919 0.0
C867 C 0.93702 0.21665 0.66625 0.0
C868 C 0.98202 0.23932 0.66972 0.0
C869 C 0.0114 0.25941 0.65613 0.0
C870 C 0.87477 0.19469 0.64504 0.0
C871 C -0.00064 0.23913 0.68751 0.0
H872 H 0.86248 0.19956 0.71777 0.0
H873 H 0.86111 0.08745 0.69696 0.0
H874 H 0.9359 0.27654 0.69493 0.0
H875 H 0.89748 0.26184 0.67774 0.0
H876 H 0.88077 0.26074 0.69985 0.0
H877 H 0.89824 0.08975 0.67184 0.0
H878 H 0.89868 0.12595 0.65553 0.0
H879 H 0.94574 0.1418 0.66844 0.0
H880 H 0.94154 0.23147 0.62242 0.0
H881 H 0.04583 0.2747 0.65864 0.0
H882 H 0.85699 0.20108 0.65531 0.0
H883 H 0.86118 0.15921 0.64427 0.0
H884 H 0.86894 0.2059 0.63246 0.0
H885 H 0.98539 0.25144 0.69723 0.0
H886 H 0.03516 0.25911 0.68814 0.0
H887 H 0.98976 0.20546 0.69122 0.0
C888 C 0.7109 0.98171 0.81341 0.0
C889 C 0.74474 0.98341 0.80357 0.0
C890 C 0.69327 0.95301 0.82752 0.0
C891 C 0.71073 0.92639 0.83214 0.0
C892 C 0.74293 0.92613 0.82158 0.0
C893 C 0.75893 0.954 0.80735 0.0
C894 C 0.65771 0.95302 0.83802 0.0
C895 C 0.76315 0.89895 0.82608 0.0
C896 C 0.72316 0.90183 0.87864 0.0
C897 C 0.69657 0.85681 0.87924 0.0
C898 C 0.7259 0.92531 0.86371 0.0
C899 C 0.70046 0.90337 0.84911 0.0
C900 C 0.67051 0.85839 0.85022 0.0
C901 C 0.66922 0.83547 0.86526 0.0
C902 C 0.75857 0.97307 0.86318 0.0
C903 C 0.64165 0.83408 0.8352 0.0
H904 H 0.69931 0.00388 0.81054 0.0
H905 H 0.7847 0.95447 0.79979 0.0
H906 H 0.6337 0.91976 0.8422 0.0
H907 H 0.67169 0.97284 0.8498 0.0
H908 H 0.6408 0.96685 0.83062 0.0
H909 H 0.78623 0.90074 0.81605 0.0
H910 H 0.78078 0.91016 0.83853 0.0
H911 H 0.73785 0.86463 0.82776 0.0
H912 H 0.74343 0.91854 0.88966 0.0
H913 H 0.6482 0.8007 0.86581 0.0
H914 H 0.74314 0.99163 0.8587 0.0
H915 H 0.78455 0.97901 0.85383 0.0
H916 H 0.77361 0.98576 0.87599 0.0
H917 H 0.6284 0.85313 0.82909 0.0
H918 H 0.61442 0.80217 0.83924 0.0
H919 H 0.66072 0.82854 0.82526 0.0
C920 C 0.71676 0.71103 0.98315 0.0
C921 C 0.74583 0.73688 0.97023 0.0
C922 C 0.73115 0.6976 0.9976 0.0
C923 C 0.77569 0.71116 0.99932 0.0
C924 C 0.80431 0.73414 0.98563 0.0
C925 C 0.78891 0.74603 0.9712 0.0
C926 C 0.69921 0.67152 0.01157 0.0
C927 C 0.85214 0.74992 0.98691 0.0
C928 C 0.82777 0.7401 0.04368 0.0
C929 C 0.83904 0.70817 0.04639 0.0
C930 C 0.80619 0.74069 0.02864 0.0
C931 C 0.79385 0.70745 0.01621 0.0
C932 C 0.80275 0.67355 0.01935 0.0
C933 C 0.82584 0.67466 0.0343 0.0
C934 C 0.79807 0.7779 0.02579 0.0
C935 C 0.78885 0.63673 0.00674 0.0
H936 H 0.68335 0.70335 0.98251 0.0
H937 H 0.81167 0.76534 0.96121 0.0
H938 H 0.7058 0.64635 0.0167 0.0
H939 H 0.70232 0.69311 0.02244 0.0
H940 H 0.66539 0.6557 0.00677 0.0
H941 H 0.86938 0.76413 0.97458 0.0
H942 H 0.86662 0.77499 0.99713 0.0
H943 H 0.85772 0.72313 0.99063 0.0
H944 H 0.83628 0.76512 0.05329 0.0
H945 H 0.83407 0.64963 0.03642 0.0
H946 H 0.76307 0.76559 0.02388 0.0
H947 H 0.81498 0.79578 0.01391 0.0
H948 H 0.80942 0.80098 0.03679 0.0
H949 H 0.75492 0.62443 1.00262 0.0
H950 H 0.79165 0.6096 0.01236 0.0
H951 H 0.80937 0.64833 0.99501 0.0
C952 C 0.03912 0.75949 0.13728 0.0
C953 C 0.99472 0.74035 0.14052 0.0
C954 C 0.06933 0.77723 0.15083 0.0
C955 C 0.05478 0.77813 0.16778 0.0
C956 C 0.00978 0.75729 0.17116 0.0
C957 C 0.98032 0.73783 0.15753 0.0
C958 C 0.11682 0.79696 0.14681 0.0
C959 C 0.99269 0.75879 0.18885 0.0
C960 C 0.12254 0.80861 0.2088 0.0
C961 C 0.13574 0.85268 0.21044 0.0
C962 C 0.09901 0.78465 0.1943 0.0
C963 C 0.08611 0.8045 0.18162 0.0
C964 C 0.1002 0.8492 0.183 0.0
C965 C 0.12583 0.8729 0.19711 0.0
C966 C 0.08656 0.73766 0.19295 0.0
C967 C 0.08614 0.87154 0.17012 0.0
H968 H 0.05026 0.7619 0.12407 0.0
H969 H 0.946 0.72399 0.15996 0.0
H970 H 0.13211 0.83267 0.14636 0.0
H971 H 0.13337 0.78878 0.15703 0.0
H972 H 0.12219 0.78577 0.13414 0.0
H973 H 0.95683 0.74 0.18944 0.0
H974 H 0.00572 0.74591 0.19874 0.0
H975 H 0.00355 0.79287 0.19234 0.0
H976 H 0.12897 0.79216 0.21913 0.0
H977 H 0.13644 0.90704 0.19814 0.0
H978 H 0.09065 0.72952 0.1795 0.0
H979 H 0.05204 0.71693 0.19646 0.0
H980 H 0.10616 0.72962 0.20172 0.0
H981 H 0.09663 0.86886 0.15693 0.0
H982 H 0.09948 0.90633 0.17316 0.0
H983 H 0.05033 0.85554 0.16997 0.0
C984 C 0.94989 0.71488 0.53808 0.0
C985 C 0.99447 0.73907 0.53504 0.0
C986 C 0.92028 0.70142 0.52427 0.0
C987 C 0.93567 0.71491 0.50721 0.0
C988 C 0.98083 0.73783 0.5041 0.0
C989 C 0.00962 0.74872 0.51803 0.0
C990 C 0.87257 0.67484 0.52808 0.0
C991 C -0.00111 0.75438 0.48629 0.0
C992 C 0.87062 0.67783 0.4655 0.0
C993 C 0.85967 0.71015 0.46304 0.0
C994 C 0.89218 0.67672 0.48056 0.0
C995 C 0.90529 0.7101 0.49298 0.0
C996 C 0.89288 0.74183 0.49083 0.0
C997 C 0.86909 0.74057 0.47619 0.0
C998 C 0.90255 0.64089 0.48275 0.0
C999 C 0.90719 0.77889 0.50339 0.0
H1000 H 0.93816 0.7078 0.55127 0.0
H1001 H 0.04412 0.76833 0.51574 0.0
H1002 H 0.85821 0.69611 0.52825 0.0
H1003 H 0.85572 0.64999 0.51793 0.0
H1004 H 0.86645 0.65855 0.54084 0.0
H1005 H 0.03475 0.77072 0.48597 0.0
H1006 H 0.98579 0.72747 0.47685 0.0
H1007 H 0.98892 0.77776 0.48196 0.0
H1008 H 0.86407 0.65441 0.45539 0.0
H1009 H 0.85996 0.7651 0.47452 0.0
H1010 H 0.89832 0.63001 0.49641 0.0
H1011 H 0.93672 0.65282 0.47915 0.0
H1012 H 0.88178 0.61268 0.47442 0.0
H1013 H 0.89541 0.76644 0.51657 0.0
H1014 H 0.89526 0.80118 0.49974 0.0
H1015 H 0.94304 0.79766 0.50395 0.0
C1016 C 0.12939 0.87766 0.64296 0.0
C1017 C 0.14858 0.86738 0.62935 0.0
C1018 C 0.15422 0.90413 0.6567 0.0
C1019 C 0.19914 0.91885 0.65741 0.0
C1020 C 0.21814 0.90594 0.64437 0.0
C1021 C 0.19296 0.88145 0.63027 0.0
C1022 C 0.13271 0.91815 0.66997 0.0
C1023 C 0.2654 0.91918 0.64499 0.0
C1024 C 0.26682 0.02499 0.6812 0.0
C1025 C 0.26598 0.01069 0.69812 0.0
C1026 C 0.24649 0.99542 0.66767 0.0
C1027 C 0.22642 0.95043 0.67102 0.0
C1028 C 0.22897 0.93604 0.68783 0.0
C1029 C 0.24761 0.96632 0.70131 0.0
C1030 C 0.24325 0.01232 0.65016 0.0
C1031 C 0.20999 0.88859 0.6918 0.0
H1032 H 0.09507 0.86644 0.64248 0.0
H1033 H 0.20859 0.87481 0.6197 0.0
H1034 H 0.13659 0.90797 0.68307 0.0
H1035 H 0.14843 0.95395 0.67006 0.0
H1036 H 0.09766 0.90446 0.66741 0.0
H1037 H 0.27322 0.9001 0.63585 0.0
H1038 H 0.28538 0.95385 0.64155 0.0
H1039 H 0.27474 0.91504 0.65823 0.0
H1040 H 0.28001 0.05927 0.67884 0.0
H1041 H 0.24642 0.95525 0.71445 0.0
H1042 H 0.20886 0.0014 0.64727 0.0
H1043 H 0.25513 -0.0008 0.63992 0.0
H1044 H 0.26194 0.04819 0.6495 0.0
H1045 H 0.1743 0.87291 0.69259 0.0
H1046 H 0.22207 0.88339 0.70429 0.0
H1047 H 0.21782 0.87227 0.68138 0.0
C1048 C 0.28654 0.27663 0.85779 0.0
C1049 C 0.25905 0.24541 0.86976 0.0
C1050 C 0.30284 0.26489 0.84346 0.0
C1051 C 0.29061 0.22089 0.8409 0.0
C1052 C 0.26612 0.19015 0.85377 0.0
C1053 C 0.25123 0.20289 0.86811 0.0
C1054 C 0.33045 0.29904 0.83042 0.0
C1055 C 0.25188 0.14282 0.85161 0.0
C1056 C 0.26671 0.1739 0.79568 0.0
C1057 C 0.29903 0.16308 0.79322 0.0
C1058 C 0.2646 0.19405 0.81089 0.0
C1059 C 0.29666 0.20536 0.82377 0.0
C1060 C 0.33127 0.19742 0.82082 0.0
C1061 C 0.33174 0.17581 0.80564 0.0
C1062 C 0.22679 0.20136 0.81346 0.0
C1063 C 0.36696 0.21039 0.8339 0.0
H1064 H 0.29325 0.30966 0.85901 0.0
H1065 H 0.2307 0.17853 0.87742 0.0
H1066 H 0.35655 0.29364 0.82549 0.0
H1067 H 0.31022 0.29735 0.81924 0.0
H1068 H 0.34518 0.33205 0.83601 0.0
H1069 H 0.23639 0.12378 0.86347 0.0
H1070 H 0.22829 0.12918 0.84083 0.0
H1071 H 0.27974 0.13868 0.84824 0.0
H1072 H 0.24241 0.16587 0.7858 0.0
H1073 H 0.35717 0.1681 0.80366 0.0
H1074 H 0.2385 0.23599 0.81608 0.0
H1075 H 0.20764 0.1827 0.82485 0.0
H1076 H 0.20505 0.19137 0.80205 0.0
H1077 H 0.3773 0.24308 0.83912 0.0
H1078 H 0.39548 0.21026 0.82825 0.0
H1079 H 0.35501 0.1874 0.84489 0.0
C1080 C 0.03841 0.2784 0.03555 0.0
C1081 C 0.99388 0.25378 0.03247 0.0
C1082 C 0.06824 0.29061 0.02187 0.0
C1083 C 0.05315 0.27559 0.00492 0.0
C1084 C 0.00804 0.25233 1.0017 0.0
C1085 C 0.97899 0.24257 0.01547 0.0
C1086 C 0.1159 0.31746 0.02574 0.0
C1087 C 0.99034 0.23422 0.98402 0.0
C1088 C 0.12083 0.31099 0.96381 0.0
C1089 C 0.13269 0.27911 0.96219 0.0
C1090 C 0.0977 0.31227 0.9783 0.0
C1091 C 0.0839 0.27945 0.99101 0.0
C1092 C 0.09667 0.24783 0.98965 0.0
C1093 C 0.12192 0.24888 0.97555 0.0
C1094 C 0.0867 0.34784 0.97964 0.0
C1095 C 0.08167 0.21136 1.00255 0.0
H1096 H 0.04994 0.28667 0.04873 0.0
H1097 H 0.94456 0.22261 0.01316 0.0
H1098 H 0.13043 0.29635 0.0261 0.0
H1099 H 0.13272 0.34205 0.0155 0.0
H1100 H 0.12187 0.33411 0.03841 0.0
H1101 H 0.95453 0.21834 0.98351 0.0
H1102 H 0.00409 0.26017 0.97415 0.0
H1103 H -0.0001 0.21006 0.98045 0.0
H1104 H 0.12805 0.33405 0.95347 0.0
H1105 H 0.13163 0.22466 0.97457 0.0
H1106 H 0.09091 0.36001 0.99311 0.0
H1107 H 0.05239 0.33509 0.97603 0.0
H1108 H 0.1071 0.37535 0.97093 0.0
H1109 H 0.09282 0.22445 0.01571 0.0
H1110 H 0.09374 0.18888 0.99944 0.0
H1111 H 0.0458 0.19264 1.00285 0.0
C1112 C 0.79233 0.0428 0.20265 0.0
C1113 C 0.74934 0.00876 0.20383 0.0
C1114 C 0.80732 0.0697 0.18809 0.0
C1115 C 0.77837 0.06357 0.17448 0.0
C1116 C 0.73392 0.03245 0.17638 0.0
C1117 C 0.71995 0.00503 0.19096 0.0
C1118 C 0.85507 0.10193 0.18662 0.0
C1119 C 0.70163 0.02606 0.16249 0.0
C1120 C 0.82726 0.14963 0.13921 0.0
C1121 C 0.8404 0.12929 0.12709 0.0
C1122 C 0.8046 0.12782 0.15426 0.0
C1123 C 0.79609 0.08519 0.1575 0.0
C1124 C 0.80836 0.06425 0.14505 0.0
C1125 C 0.8295 0.08623 0.1299 0.0
C1126 C 0.79073 0.15077 0.16686 0.0
C1127 C 0.80066 0.0191 0.148 0.0
H1128 H 0.81534 0.04663 0.2126 0.0
H1129 H 0.68661 0.9792 0.19175 0.0
H1130 H 0.86943 0.09128 0.17638 0.0
H1131 H 0.86037 0.13416 0.18284 0.0
H1132 H 0.87262 0.1053 0.1989 0.0
H1133 H 0.66791 0.00798 0.1674 0.0
H1134 H 0.7079 0.05762 0.15726 0.0
H1135 H 0.70468 0.00742 0.15166 0.0
H1136 H 0.83521 0.18278 0.13701 0.0
H1137 H 0.83797 0.06968 0.1203 0.0
H1138 H 0.8115 0.16002 0.17853 0.0
H1139 H 0.75692 0.12903 0.17111 0.0
H1140 H 0.79318 0.18051 0.16119 0.0
H1141 H 0.81789 0.0185 0.15984 0.0
H1142 H 0.81191 0.00732 0.13699 0.0
H1143 H 0.76574 0.99625 0.15004 0.0
C1144 C 0.75671 0.79665 0.3676 0.0
C1145 C 0.74439 0.7529 0.36984 0.0
C1146 C 0.74174 0.8104 0.35361 0.0
C1147 C 0.71255 0.7796 0.34169 0.0
C1148 C 0.69637 0.73496 0.34485 0.0
C1149 C 0.71285 0.72209 0.3588 0.0
C1150 C 0.76036 0.85836 0.35076 0.0
C1151 C 0.66384 0.70094 0.33288 0.0
C1152 C 0.67322 0.83083 0.30835 0.0
C1153 C 0.70301 0.83987 0.29497 0.0
C1154 C 0.67342 0.80798 0.32319 0.0
C1155 C 0.7049 0.79504 0.32481 0.0
C1156 C 0.73343 0.8022 0.31088 0.0
C1157 C 0.73154 0.82375 0.29606 0.0
C1158 C 0.64129 0.79948 0.33742 0.0
C1159 C 0.76791 0.78957 0.31201 0.0
H1160 H 0.78049 0.82084 0.37617 0.0
H1161 H 0.70268 0.68818 0.36047 0.0
H1162 H 0.78099 0.86851 0.33902 0.0
H1163 H 0.73418 0.86592 0.34859 0.0
H1164 H 0.78028 0.8779 0.36185 0.0
H1165 H 0.64711 0.6686 0.33913 0.0
H1166 H 0.63934 0.70946 0.32864 0.0
H1167 H 0.68058 0.6988 0.32118 0.0
H1168 H 0.65072 0.84276 0.30744 0.0
H1169 H 0.75358 0.82933 0.28547 0.0
H1170 H 0.65737 0.82313 0.348 0.0
H1171 H 0.62885 0.76665 0.34292 0.0
H1172 H 0.61356 0.8026 0.33274 0.0
H1173 H 0.79092 0.80809 0.32253 0.0
H1174 H 0.78641 0.7959 0.29978 0.0
H1175 H 0.75321 0.75477 0.3152 0.0
C1176 C 0.28122 0.08614 0.48487 0.0
C1177 C 0.25161 0.08072 0.47186 0.0
C1178 C 0.27058 0.05412 0.49754 0.0
C1179 C 0.22967 0.01592 0.49697 0.0
C1180 C 0.2012 0.00902 0.48306 0.0
C1181 C 0.21243 0.0416 0.47074 0.0
C1182 C 0.30181 0.06254 0.51214 0.0
C1183 C 0.15751 0.96845 0.48181 0.0
C1184 C 0.19499 0.91625 0.52468 0.0
C1185 C 0.16825 0.92086 0.53674 0.0
C1186 C 0.21767 0.94832 0.51218 0.0
C1187 C 0.21364 0.98579 0.5119 0.0
C1188 C 0.18917 0.99189 0.52483 0.0
C1189 C 0.16664 0.95928 0.53703 0.0
C1190 C 0.24357 0.94078 0.49863 0.0
C1191 C 0.18449 0.03167 0.52515 0.0
H1192 H 0.31161 0.11633 0.48575 0.0
H1193 H 0.18975 0.03698 0.46052 0.0
H1194 H 0.29005 0.07094 0.52397 0.0
H1195 H 0.30387 0.03322 0.51506 0.0
H1196 H 0.33471 0.08964 0.50915 0.0
H1197 H 0.14142 0.96596 0.46924 0.0
H1198 H 0.16071 0.93933 0.4835 0.0
H1199 H 0.13625 0.9683 0.4923 0.0
H1200 H 0.1965 0.88668 0.52444 0.0
H1201 H 0.14663 0.96338 0.54652 0.0
H1202 H 0.27503 0.97058 0.49638 0.0
H1203 H 0.22559 0.9321 0.48623 0.0
H1204 H 0.24961 0.91418 0.50231 0.0
H1205 H 0.21661 0.06136 0.52416 0.0
H1206 H 0.16831 0.03362 0.5371 0.0
H1207 H 0.16508 0.03118 0.51387 0.0
C1208 C 0.17956 0.22349 0.63667 0.0
C1209 C 0.17734 0.2615 0.63776 0.0
C1210 C 0.20216 0.21389 0.64898 0.0
C1211 C 0.22275 0.24285 0.66285 0.0
C1212 C 0.223 0.28261 0.66344 0.0
C1213 C 0.20036 0.29161 0.6508 0.0
C1214 C 0.20161 0.17139 0.64773 0.0
C1215 C 0.24471 0.31429 0.67801 0.0
C1216 C 0.22223 0.18181 0.70267 0.0
C1217 C 0.26338 0.18604 0.70195 0.0
C1218 C 0.20975 0.20289 0.69071 0.0
C1219 C 0.23903 0.22856 0.67761 0.0
C1220 C 0.28159 0.23531 0.67749 0.0
C1221 C 0.29337 0.21403 0.68974 0.0
C1222 C 0.1642 0.1953 0.69143 0.0
C1223 C 0.3137 0.26255 0.66374 0.0
H1224 H 0.16238 0.20044 0.62644 0.0
H1225 H 0.19878 0.32109 0.65166 0.0
H1226 H 0.23477 0.17657 0.64916 0.0
H1227 H 0.18173 0.14973 0.65838 0.0
H1228 H 0.18803 0.15467 0.63526 0.0
H1229 H 0.24822 0.34637 0.67512 0.0
H1230 H 0.2251 0.30147 0.68994 0.0
H1231 H 0.27712 0.31858 0.68073 0.0
H1232 H 0.19913 0.16079 0.71227 0.0
H1233 H 0.32531 0.21759 0.68916 0.0
H1234 H 0.14544 0.17503 0.68029 0.0
H1235 H 0.16441 0.22639 0.69046 0.0
H1236 H 0.14722 0.17868 0.70351 0.0
H1237 H 0.3047 0.2446 0.65133 0.0
H1238 H 0.34713 0.27054 0.6671 0.0
H1239 H 0.31323 0.29305 0.66166 0.0
C1240 C 0.96258 0.1738 0.80124 0.0
C1241 C 0.92189 0.17056 0.80235 0.0
C1242 C 0.99454 0.19666 0.81361 0.0
C1243 C 0.98562 0.21683 0.82747 0.0
C1244 C 0.94613 0.21713 0.8278 0.0
C1245 C 0.91455 0.19388 0.81518 0.0
C1246 C 0.0364 0.19588 0.81263 0.0
C1247 C 0.93585 0.23909 0.84217 0.0
C1248 C 0.03872 0.20759 0.868 0.0
C1249 C 0.07751 0.24731 0.86822 0.0
C1250 C 0.00708 0.19859 0.8555 0.0
C1251 C 0.01423 0.23017 0.84288 0.0
C1252 C 0.0517 0.2716 0.84382 0.0
C1253 C 0.08308 0.27972 0.8565 0.0
C1254 C 0.96745 0.15402 0.85508 0.0
C1255 C 0.06002 0.30637 0.8308 0.0
H1256 H 0.96886 0.15669 0.79111 0.0
H1257 H 0.88332 0.19192 0.816 0.0
H1258 H 0.06443 0.22877 0.81459 0.0
H1259 H 0.03712 0.17492 0.82307 0.0
H1260 H 0.04034 0.1833 0.80004 0.0
H1261 H 0.90893 0.24473 0.83861 0.0
H1262 H 0.92612 0.21834 0.85386 0.0
H1263 H 0.96463 0.27047 0.84558 0.0
H1264 H 0.03369 0.18264 0.87723 0.0
H1265 H 0.11277 0.31067 0.8567 0.0
H1266 H 0.96871 0.13633 0.84351 0.0
H1267 H 0.93773 0.15638 0.85411 0.0
H1268 H 0.96489 0.13467 0.86673 0.0
H1269 H 0.07202 0.29975 0.81861 0.0
H1270 H 0.08468 0.33889 0.83549 0.0
H1271 H 0.02985 0.30672 0.82775 0.0
C1272 C 0.82585 0.03887 0.03437 0.0
C1273 C 0.82024 0.07501 0.03456 0.0
C1274 C 0.80426 0.0057 0.02231 0.0
C1275 C 0.77661 0.00889 0.01003 0.0
C1276 C 0.76897 0.04411 0.01071 0.0
C1277 C 0.79082 0.07679 0.02304 0.0
C1278 C 0.8129 0.96836 0.02214 0.0
C1279 C 0.7397 0.04854 0.99783 0.0
C1280 C 0.77463 0.95281 0.96849 0.0
C1281 C 0.7371 0.91251 0.97054 0.0
C1282 C 0.78625 0.98561 0.98073 0.0
C1283 C 0.75989 0.97776 0.99547 0.0
C1284 C 0.72052 0.93817 0.99707 0.0
C1285 C 0.70943 0.90595 0.9845 0.0
C1286 C 0.82821 0.02766 0.97842 0.0
C1287 C 0.69159 0.92872 0.0126 0.0
H1288 H 0.84806 0.03696 0.04339 0.0
H1289 H 0.78624 0.10459 0.02315 0.0
H1290 H 0.78202 0.93714 0.02191 0.0
H1291 H 0.83106 0.96994 0.01027 0.0
H1292 H 0.83198 0.96866 0.03352 0.0
H1293 H 0.73228 0.07415 1.0016 0.0
H1294 H 0.7556 0.05689 0.98498 0.0
H1295 H 0.70892 0.01752 0.99642 0.0
H1296 H 0.79579 0.95829 0.95757 0.0
H1297 H 0.6803 0.87488 0.98611 0.0
H1298 H 0.85194 0.02994 0.98822 0.0
H1299 H 0.82314 0.05557 0.98042 0.0
H1300 H 0.84244 0.03044 0.96539 0.0
H1301 H 0.7069 0.92309 0.02403 0.0
H1302 H 0.65931 0.89964 0.01063 0.0
H1303 H 0.68724 0.95668 0.0156 0.0
C1304 C 0.7918 0.71264 0.15074 0.0
C1305 C 0.82018 0.74338 0.13883 0.0
C1306 C 0.77049 0.72378 0.16321 0.0
C1307 C 0.77763 0.76648 0.16362 0.0
C1308 C 0.80406 0.79675 0.15094 0.0
C1309 C 0.82513 0.78488 0.13874 0.0
C1310 C 0.74249 0.69067 0.17653 0.0
C1311 C 0.81209 0.84251 0.15081 0.0
C1312 C 0.71178 0.80263 0.18985 0.0
C1313 C 0.74048 0.82468 0.20342 0.0
C1314 C 0.72215 0.7811 0.1772 0.0
C1315 C 0.76188 0.78146 0.17832 0.0
C1316 C 0.78941 0.80101 0.19268 0.0
C1317 C 0.77845 0.82254 0.20501 0.0
C1318 C 0.692 0.76051 0.16209 0.0
C1319 C 0.83181 0.80158 0.19447 0.0
H1320 H 0.78774 0.68046 0.15084 0.0
H1321 H 0.84651 0.80861 0.12941 0.0
H1322 H 0.75946 0.69903 0.18915 0.0
H1323 H 0.71169 0.6907 0.17831 0.0
H1324 H 0.73504 0.65753 0.17292 0.0
H1325 H 0.83005 0.86071 0.13913 0.0
H1326 H 0.78103 0.84244 0.15141 0.0
H1327 H 0.83117 0.85999 0.16239 0.0
H1328 H 0.6823 0.80407 0.18859 0.0
H1329 H 0.80043 0.83895 0.21563 0.0
H1330 H 0.68778 0.72819 0.15923 0.0
H1331 H 0.70615 0.78085 0.15042 0.0
H1332 H 0.65973 0.75703 0.16446 0.0
H1333 H 0.82694 0.76862 0.19267 0.0
H1334 H 0.84714 0.81397 0.20727 0.0
H1335 H 0.85453 0.82254 0.18429 0.0
C1336 C 0.90673 0.70684 0.35337 0.0
C1337 C 0.91702 0.73467 0.36756 0.0
C1338 C 0.93726 0.71579 0.34021 0.0
C1339 C 0.97864 0.75327 0.34142 0.0
C1340 C 0.99026 0.77892 0.35655 0.0
C1341 C 0.9593 0.7693 0.36941 0.0
C1342 C 0.92401 0.68717 0.32444 0.0
C1343 C 0.03419 0.81892 0.3585 0.0
C1344 C 0.07472 0.78787 0.31174 0.0
C1345 C 0.07264 0.81988 0.30194 0.0
C1346 C 0.04223 0.76291 0.32379 0.0
C1347 C 0.0072 0.77041 0.32607 0.0
C1348 C 0.00331 0.80022 0.31522 0.0
C1349 C 0.03602 0.82451 0.3033 0.0
C1350 C 0.04702 0.73078 0.33487 0.0
C1351 C 0.96629 0.80903 0.31711 0.0
H1352 H 0.87414 0.67982 0.35196 0.0
H1353 H 0.96764 0.79036 0.38056 0.0
H1354 H 0.91533 0.70253 0.31391 0.0
H1355 H 0.951 0.68292 0.31974 0.0
H1356 H 0.89555 0.65486 0.3271 0.0
H1357 H 0.03968 0.83243 0.37179 0.0
H1358 H 0.06017 0.81166 0.35535 0.0
H1359 H 0.03702 0.84413 0.34934 0.0
H1360 H 0.10265 0.78368 0.31062 0.0
H1361 H 0.03366 0.84851 0.29553 0.0
H1362 H 0.01532 0.70108 0.33691 0.0
H1363 H 0.05971 0.74527 0.34774 0.0
H1364 H 0.06979 0.7217 0.32905 0.0
H1365 H 0.93495 0.7783 0.31725 0.0
H1366 H 0.96564 0.82973 0.30653 0.0
H1367 H 0.96933 0.82562 0.32959 0.0
loop_
_geom_bond_atom_site_label_1
_geom_bond_atom_site_label_2
_geom_bond_distance
_geom_bond_site_symmetry_2
_ccdc_geom_bond_type
Co0 O3 1.970 . S
Co0 N17 1.989 . S
Co0 O25 1.967 . S
Co0 O32 1.920 . S
Co1 O4 1.966 . S
Co1 N10 2.022 . S
Co1 N18 1.993 . S
Co1 O26 1.941 . S
C2 O3 1.258 . S
C2 O4 1.263 . S
O3 Co0 1.970 . S
O3 C2 1.258 . S
O4 Co1 1.966 . S
O4 C2 1.263 . S
C5 O6 1.235 . S
C5 O32 1.289 . S
O6 C5 1.235 . S
C7 C9 1.400 . S
C7 N10 1.351 . S
C7 C12 1.501 . S
C8 C9 1.387 . S
C8 N11 1.341 . S
C9 C7 1.400 . S
C9 C8 1.387 . S
N10 Co1 2.022 . S
N10 C7 1.351 . S
N10 N11 1.365 . S
N11 C8 1.341 . S
N11 N10 1.365 . S
N11 H31 0.862 . S
C12 C7 1.501 . S
C12 H13 0.961 . S
C12 H14 0.961 . S
C12 H15 0.960 . S
H13 C12 0.961 . S
H14 C12 0.961 . S
H15 C12 0.960 . S
C16 N17 1.342 . S
C16 C20 1.401 . S
C16 C21 1.499 . S
N17 Co0 1.989 . S
N17 C16 1.342 . S
N17 N18 1.388 . S
N18 Co1 1.993 . S
N18 N17 1.388 . S
N18 C19 1.346 . S
C19 N18 1.346 . S
C19 C20 1.396 . S
C19 C29 1.510 . S
C20 C16 1.401 . S
C20 C19 1.396 . S
C21 C16 1.499 . S
C21 H22 0.959 . S
C21 H23 0.960 . S
C21 H24 0.961 . S
H22 C21 0.959 . S
H23 C21 0.960 . S
H24 C21 0.961 . S
O25 Co0 1.967 . S
O25 C33 1.258 . S
O26 Co1 1.941 . S
O26 C33 1.266 . S
H27 C29 0.959 . S
H28 C29 0.961 . S
C29 C19 1.510 . S
C29 H27 0.959 . S
C29 H28 0.961 . S
C29 H30 0.960 . S
H30 C29 0.960 . S
H31 N11 0.862 . S
O32 Co0 1.920 . S
O32 C5 1.289 . S
C33 O25 1.258 . S
C33 O26 1.266 . S
Co34 O37 1.970 . S
Co34 N51 1.989 . S
Co34 O59 1.967 . S
Co34 O66 1.920 . S
Co35 O38 1.966 . S
Co35 N44 2.022 . S
Co35 N52 1.993 . S
Co35 O60 1.941 . S
C36 O37 1.258 . S
C36 O38 1.263 . S
O37 Co34 1.970 . S
O37 C36 1.258 . S
O38 Co35 1.966 . S
O38 C36 1.263 . S
C39 O40 1.235 . S
C39 O66 1.289 . S
O40 C39 1.235 . S
C41 C43 1.400 . S
C41 N44 1.351 . S
C41 C46 1.501 . S
C42 C43 1.387 . S
C42 N45 1.341 . S
C43 C41 1.400 . S
C43 C42 1.387 . S
N44 Co35 2.022 . S
N44 C41 1.351 . S
N44 N45 1.365 . S
N45 C42 1.341 . S
N45 N44 1.365 . S
N45 H65 0.862 . S
C46 C41 1.501 . S
C46 H47 0.961 . S
C46 H48 0.961 . S
C46 H49 0.960 . S
H47 C46 0.961 . S
H48 C46 0.961 . S
H49 C46 0.960 . S
C50 N51 1.342 . S
C50 C54 1.401 . S
C50 C55 1.499 . S
N51 Co34 1.989 . S
N51 C50 1.342 . S
N51 N52 1.388 . S
N52 Co35 1.993 . S
N52 N51 1.388 . S
N52 C53 1.346 . S
C53 N52 1.346 . S
C53 C54 1.396 . S
C53 C63 1.510 . S
C54 C50 1.401 . S
C54 C53 1.396 . S
C55 C50 1.499 . S
C55 H56 0.959 . S
C55 H57 0.960 . S
C55 H58 0.961 . S
H56 C55 0.959 . S
H57 C55 0.960 . S
H58 C55 0.961 . S
O59 Co34 1.967 . S
O59 C67 1.258 . S
O60 Co35 1.941 . S
O60 C67 1.266 . S
H61 C63 0.959 . S
H62 C63 0.961 . S
C63 C53 1.510 . S
C63 H61 0.959 . S
C63 H62 0.961 . S
C63 H64 0.960 . S
H64 C63 0.960 . S
H65 N45 0.862 . S
O66 Co34 1.920 . S
O66 C39 1.289 . S
C67 O59 1.258 . S
C67 O60 1.266 . S
Co68 O71 1.970 . S
Co68 N85 1.989 . S
Co68 O93 1.967 . S
Co68 O100 1.920 . S
Co69 O72 1.966 . S
Co69 N78 2.022 . S
Co69 N86 1.993 . S
Co69 O94 1.941 . S
C70 O71 1.258 . S
C70 O72 1.263 . S
O71 Co68 1.970 . S
O71 C70 1.258 . S
O72 Co69 1.966 . S
O72 C70 1.263 . S
C73 O74 1.235 . S
C73 O100 1.289 . S
O74 C73 1.235 . S
C75 C77 1.400 . S
C75 N78 1.351 . S
C75 C80 1.501 . S
C76 C77 1.387 . S
C76 N79 1.341 . S
C77 C75 1.400 . S
C77 C76 1.387 . S
N78 Co69 2.022 . S
N78 C75 1.351 . S
N78 N79 1.365 . S
N79 C76 1.341 . S
N79 N78 1.365 . S
N79 H99 0.862 . S
C80 C75 1.501 . S
C80 H81 0.961 . S
C80 H82 0.961 . S
C80 H83 0.960 . S
H81 C80 0.961 . S
H82 C80 0.961 . S
H83 C80 0.960 . S
C84 N85 1.342 . S
C84 C88 1.401 . S
C84 C89 1.499 . S
N85 Co68 1.989 . S
N85 C84 1.342 . S
N85 N86 1.388 . S
N86 Co69 1.993 . S
N86 N85 1.388 . S
N86 C87 1.346 . S
C87 N86 1.346 . S
C87 C88 1.396 . S
C87 C97 1.510 . S
C88 C84 1.401 . S
C88 C87 1.396 . S
C89 C84 1.499 . S
C89 H90 0.959 . S
C89 H91 0.960 . S
C89 H92 0.961 . S
H90 C89 0.959 . S
H91 C89 0.960 . S
H92 C89 0.961 . S
O93 Co68 1.967 . S
O93 C101 1.258 . S
O94 Co69 1.941 . S
O94 C101 1.266 . S
H95 C97 0.959 . S
H96 C97 0.961 . S
C97 C87 1.510 . S
C97 H95 0.959 . S
C97 H96 0.961 . S
C97 H98 0.960 . S
H98 C97 0.960 . S
H99 N79 0.862 . S
O100 Co68 1.920 . S
O100 C73 1.289 . S
C101 O93 1.258 . S
C101 O94 1.266 . S
Co102 O105 1.970 . S
Co102 N119 1.989 . S
Co102 O127 1.967 . S
Co102 O134 1.920 . S
Co103 O106 1.966 . S
Co103 N112 2.022 . S
Co103 N120 1.993 . S
Co103 O128 1.941 . S
C104 O105 1.258 . S
C104 O106 1.263 . S
O105 Co102 1.970 . S
O105 C104 1.258 . S
O106 Co103 1.966 . S
O106 C104 1.263 . S
C107 O108 1.235 . S
C107 O134 1.289 . S
O108 C107 1.235 . S
C109 C111 1.400 . S
C109 N112 1.351 . S
C109 C114 1.501 . S
C110 C111 1.387 . S
C110 N113 1.341 . S
C111 C109 1.400 . S
C111 C110 1.387 . S
N112 Co103 2.022 . S
N112 C109 1.351 . S
N112 N113 1.365 . S
N113 C110 1.341 . S
N113 N112 1.365 . S
N113 H133 0.862 . S
C114 C109 1.501 . S
C114 H115 0.961 . S
C114 H116 0.961 . S
C114 H117 0.960 . S
H115 C114 0.961 . S
H116 C114 0.961 . S
H117 C114 0.960 . S
C118 N119 1.342 . S
C118 C122 1.401 . S
C118 C123 1.499 . S
N119 Co102 1.989 . S
N119 C118 1.342 . S
N119 N120 1.388 . S
N120 Co103 1.993 . S
N120 N119 1.388 . S
N120 C121 1.346 . S
C121 N120 1.346 . S
C121 C122 1.396 . S
C121 C131 1.510 . S
C122 C118 1.401 . S
C122 C121 1.396 . S
C123 C118 1.499 . S
C123 H124 0.959 . S
C123 H125 0.960 . S
C123 H126 0.961 . S
H124 C123 0.959 . S
H125 C123 0.960 . S
H126 C123 0.961 . S
O127 Co102 1.967 . S
O127 C135 1.258 . S
O128 Co103 1.941 . S
O128 C135 1.266 . S
H129 C131 0.959 . S
H130 C131 0.961 . S
C131 C121 1.510 . S
C131 H129 0.959 . S
C131 H130 0.961 . S
C131 H132 0.960 . S
H132 C131 0.960 . S
H133 N113 0.862 . S
O134 Co102 1.920 . S
O134 C107 1.289 . S
C135 O127 1.258 . S
C135 O128 1.266 . S
Co136 O139 1.970 . S
Co136 N153 1.989 . S
Co136 O161 1.967 . S
Co136 O168 1.920 . S
Co137 O140 1.966 . S
Co137 N146 2.022 . S
Co137 N154 1.993 . S
Co137 O162 1.941 . S
C138 O139 1.258 . S
C138 O140 1.263 . S
O139 Co136 1.970 . S
O139 C138 1.258 . S
O140 Co137 1.966 . S
O140 C138 1.263 . S
C141 O142 1.235 . S
C141 O168 1.289 . S
O142 C141 1.235 . S
C143 C145 1.400 . S
C143 N146 1.351 . S
C143 C148 1.501 . S
C144 C145 1.387 . S
C144 N147 1.341 . S
C145 C143 1.400 . S
C145 C144 1.387 . S
N146 Co137 2.022 . S
N146 C143 1.351 . S
N146 N147 1.365 . S
N147 C144 1.341 . S
N147 N146 1.365 . S
N147 H167 0.862 . S
C148 C143 1.501 . S
C148 H149 0.961 . S
C148 H150 0.961 . S
C148 H151 0.960 . S
H149 C148 0.961 . S
H150 C148 0.961 . S
H151 C148 0.960 . S
C152 N153 1.342 . S
C152 C156 1.401 . S
C152 C157 1.499 . S
N153 Co136 1.989 . S
N153 C152 1.342 . S
N153 N154 1.388 . S
N154 Co137 1.993 . S
N154 N153 1.388 . S
N154 C155 1.346 . S
C155 N154 1.346 . S
C155 C156 1.396 . S
C155 C165 1.510 . S
C156 C152 1.401 . S
C156 C155 1.396 . S
C157 C152 1.499 . S
C157 H158 0.959 . S
C157 H159 0.960 . S
C157 H160 0.961 . S
H158 C157 0.959 . S
H159 C157 0.960 . S
H160 C157 0.961 . S
O161 Co136 1.967 . S
O161 C169 1.258 . S
O162 Co137 1.941 . S
O162 C169 1.266 . S
H163 C165 0.959 . S
H164 C165 0.961 . S
C165 C155 1.510 . S
C165 H163 0.959 . S
C165 H164 0.961 . S
C165 H166 0.960 . S
H166 C165 0.960 . S
H167 N147 0.862 . S
O168 Co136 1.920 . S
O168 C141 1.289 . S
C169 O161 1.258 . S
C169 O162 1.266 . S
Co170 O173 1.970 . S
Co170 N187 1.989 . S
Co170 O195 1.967 . S
Co170 O202 1.920 . S
Co171 O174 1.966 . S
Co171 N180 2.022 . S
Co171 N188 1.993 . S
Co171 O196 1.941 . S
C172 O173 1.258 . S
C172 O174 1.263 . S
O173 Co170 1.970 . S
O173 C172 1.258 . S
O174 Co171 1.966 . S
O174 C172 1.263 . S
C175 O176 1.235 . S
C175 O202 1.289 . S
O176 C175 1.235 . S
C177 C179 1.400 . S
C177 N180 1.351 . S
C177 C182 1.501 . S
C178 C179 1.387 . S
C178 N181 1.341 . S
C179 C177 1.400 . S
C179 C178 1.387 . S
N180 Co171 2.022 . S
N180 C177 1.351 . S
N180 N181 1.365 . S
N181 C178 1.341 . S
N181 N180 1.365 . S
N181 H201 0.862 . S
C182 C177 1.501 . S
C182 H183 0.961 . S
C182 H184 0.961 . S
C182 H185 0.960 . S
H183 C182 0.961 . S
H184 C182 0.961 . S
H185 C182 0.960 . S
C186 N187 1.342 . S
C186 C190 1.401 . S
C186 C191 1.499 . S
N187 Co170 1.989 . S
N187 C186 1.342 . S
N187 N188 1.388 . S
N188 Co171 1.993 . S
N188 N187 1.388 . S
N188 C189 1.346 . S
C189 N188 1.346 . S
C189 C190 1.396 . S
C189 C199 1.510 . S
C190 C186 1.401 . S
C190 C189 1.396 . S
C191 C186 1.499 . S
C191 H192 0.959 . S
C191 H193 0.960 . S
C191 H194 0.961 . S
H192 C191 0.959 . S
H193 C191 0.960 . S
H194 C191 0.961 . S
O195 Co170 1.967 . S
O195 C203 1.258 . S
O196 Co171 1.941 . S
O196 C203 1.266 . S
H197 C199 0.959 . S
H198 C199 0.961 . S
C199 C189 1.510 . S
C199 H197 0.959 . S
C199 H198 0.961 . S
C199 H200 0.960 . S
H200 C199 0.960 . S
H201 N181 0.862 . S
O202 Co170 1.920 . S
O202 C175 1.289 . S
C203 O195 1.258 . S
C203 O196 1.266 . S
Co204 O207 1.970 . S
Co204 N221 1.989 . S
Co204 O229 1.967 . S
Co204 O236 1.920 . S
Co205 O208 1.966 . S
Co205 N214 2.022 . S
Co205 N222 1.993 . S
Co205 O230 1.941 . S
C206 O207 1.258 . S
C206 O208 1.263 . S
O207 Co204 1.970 . S
O207 C206 1.258 . S
O208 Co205 1.966 . S
O208 C206 1.263 . S
C209 O210 1.235 . S
C209 O236 1.289 . S
O210 C209 1.235 . S
C211 C213 1.400 . S
C211 N214 1.351 . S
C211 C216 1.501 . S
C212 C213 1.387 . S
C212 N215 1.341 . S
C213 C211 1.400 . S
C213 C212 1.387 . S
N214 Co205 2.022 . S
N214 C211 1.351 . S
N214 N215 1.365 . S
N215 C212 1.341 . S
N215 N214 1.365 . S
N215 H235 0.862 . S
C216 C211 1.501 . S
C216 H217 0.961 . S
C216 H218 0.961 . S
C216 H219 0.960 . S
H217 C216 0.961 . S
H218 C216 0.961 . S
H219 C216 0.960 . S
C220 N221 1.342 . S
C220 C224 1.401 . S
C220 C225 1.499 . S
N221 Co204 1.989 . S
N221 C220 1.342 . S
N221 N222 1.388 . S
N222 Co205 1.993 . S
N222 N221 1.388 . S
N222 C223 1.346 . S
C223 N222 1.346 . S
C223 C224 1.396 . S
C223 C233 1.510 . S
C224 C220 1.401 . S
C224 C223 1.396 . S
C225 C220 1.499 . S
C225 H226 0.959 . S
C225 H227 0.960 . S
C225 H228 0.961 . S
H226 C225 0.959 . S
H227 C225 0.960 . S
H228 C225 0.961 . S
O229 Co204 1.967 . S
O229 C237 1.258 . S
O230 Co205 1.941 . S
O230 C237 1.266 . S
H231 C233 0.959 . S
H232 C233 0.961 . S
C233 C223 1.510 . S
C233 H231 0.959 . S
C233 H232 0.961 . S
C233 H234 0.960 . S
H234 C233 0.960 . S
H235 N215 0.862 . S
O236 Co204 1.920 . S
O236 C209 1.289 . S
C237 O229 1.258 . S
C237 O230 1.266 . S
Co238 O241 1.970 . S
Co238 N255 1.989 . S
Co238 O263 1.967 . S
Co238 O270 1.920 . S
Co239 O242 1.966 . S
Co239 N248 2.022 . S
Co239 N256 1.993 . S
Co239 O264 1.941 . S
C240 O241 1.258 . S
C240 O242 1.263 . S
O241 Co238 1.970 . S
O241 C240 1.258 . S
O242 Co239 1.966 . S
O242 C240 1.263 . S
C243 O244 1.235 . S
C243 O270 1.289 . S
O244 C243 1.235 . S
C245 C247 1.400 . S
C245 N248 1.351 . S
C245 C250 1.501 . S
C246 C247 1.387 . S
C246 N249 1.341 . S
C247 C245 1.400 . S
C247 C246 1.387 . S
N248 Co239 2.022 . S
N248 C245 1.351 . S
N248 N249 1.365 . S
N249 C246 1.341 . S
N249 N248 1.365 . S
N249 H269 0.862 . S
C250 C245 1.501 . S
C250 H251 0.961 . S
C250 H252 0.961 . S
C250 H253 0.960 . S
H251 C250 0.961 . S
H252 C250 0.961 . S
H253 C250 0.960 . S
C254 N255 1.342 . S
C254 C258 1.401 . S
C254 C259 1.499 . S
N255 Co238 1.989 . S
N255 C254 1.342 . S
N255 N256 1.388 . S
N256 Co239 1.993 . S
N256 N255 1.388 . S
N256 C257 1.346 . S
C257 N256 1.346 . S
C257 C258 1.396 . S
C257 C267 1.510 . S
C258 C254 1.401 . S
C258 C257 1.396 . S
C259 C254 1.499 . S
C259 H260 0.959 . S
C259 H261 0.960 . S
C259 H262 0.961 . S
H260 C259 0.959 . S
H261 C259 0.960 . S
H262 C259 0.961 . S
O263 Co238 1.967 . S
O263 C271 1.258 . S
O264 Co239 1.941 . S
O264 C271 1.266 . S
H265 C267 0.959 . S
H266 C267 0.961 . S
C267 C257 1.510 . S
C267 H265 0.959 . S
C267 H266 0.961 . S
C267 H268 0.960 . S
H268 C267 0.960 . S
H269 N249 0.862 . S
O270 Co238 1.920 . S
O270 C243 1.289 . S
C271 O263 1.258 . S
C271 O264 1.266 . S
Co272 O275 1.970 . S
Co272 N289 1.989 . S
Co272 O297 1.967 . S
Co272 O304 1.920 . S
Co273 O276 1.966 . S
Co273 N282 2.022 . S
Co273 N290 1.993 . S
Co273 O298 1.941 . S
C274 O275 1.258 . S
C274 O276 1.263 . S
O275 Co272 1.970 . S
O275 C274 1.258 . S
O276 Co273 1.966 . S
O276 C274 1.263 . S
C277 O278 1.235 . S
C277 O304 1.289 . S
O278 C277 1.235 . S
C279 C281 1.400 . S
C279 N282 1.351 . S
C279 C284 1.501 . S
C280 C281 1.387 . S
C280 N283 1.341 . S
C281 C279 1.400 . S
C281 C280 1.387 . S
N282 Co273 2.022 . S
N282 C279 1.351 . S
N282 N283 1.365 . S
N283 C280 1.341 . S
N283 N282 1.365 . S
N283 H303 0.862 . S
C284 C279 1.501 . S
C284 H285 0.961 . S
C284 H286 0.961 . S
C284 H287 0.960 . S
H285 C284 0.961 . S
H286 C284 0.961 . S
H287 C284 0.960 . S
C288 N289 1.342 . S
C288 C292 1.401 . S
C288 C293 1.499 . S
N289 Co272 1.989 . S
N289 C288 1.342 . S
N289 N290 1.388 . S
N290 Co273 1.993 . S
N290 N289 1.388 . S
N290 C291 1.346 . S
C291 N290 1.346 . S
C291 C292 1.396 . S
C291 C301 1.510 . S
C292 C288 1.401 . S
C292 C291 1.396 . S
C293 C288 1.499 . S
C293 H294 0.959 . S
C293 H295 0.960 . S
C293 H296 0.961 . S
H294 C293 0.959 . S
H295 C293 0.960 . S
H296 C293 0.961 . S
O297 Co272 1.967 . S
O297 C305 1.258 . S
O298 Co273 1.941 . S
O298 C305 1.266 . S
H299 C301 0.959 . S
H300 C301 0.961 . S
C301 C291 1.510 . S
C301 H299 0.959 . S
C301 H300 0.961 . S
C301 H302 0.960 . S
H302 C301 0.960 . S
H303 N283 0.862 . S
O304 Co272 1.920 . S
O304 C277 1.289 . S
C305 O297 1.258 . S
C305 O298 1.266 . S
Co306 O309 1.970 . S
Co306 N323 1.989 . S
Co306 O331 1.967 . S
Co306 O338 1.920 . S
Co307 O310 1.966 . S
Co307 N316 2.022 . S
Co307 N324 1.993 . S
Co307 O332 1.941 . S
C308 O309 1.258 . S
C308 O310 1.263 . S
O309 Co306 1.970 . S
O309 C308 1.258 . S
O310 Co307 1.966 . S
O310 C308 1.263 . S
C311 O312 1.235 . S
C311 O338 1.289 . S
O312 C311 1.235 . S
C313 C315 1.400 . S
C313 N316 1.351 . S
C313 C318 1.501 . S
C314 C315 1.387 . S
C314 N317 1.341 . S
C315 C313 1.400 . S
C315 C314 1.387 . S
N316 Co307 2.022 . S
N316 C313 1.351 . S
N316 N317 1.365 . S
N317 C314 1.341 . S
N317 N316 1.365 . S
N317 H337 0.862 . S
C318 C313 1.501 . S
C318 H319 0.961 . S
C318 H320 0.961 . S
C318 H321 0.960 . S
H319 C318 0.961 . S
H320 C318 0.961 . S
H321 C318 0.960 . S
C322 N323 1.342 . S
C322 C326 1.401 . S
C322 C327 1.499 . S
N323 Co306 1.989 . S
N323 C322 1.342 . S
N323 N324 1.388 . S
N324 Co307 1.993 . S
N324 N323 1.388 . S
N324 C325 1.346 . S
C325 N324 1.346 . S
C325 C326 1.396 . S
C325 C335 1.510 . S
C326 C322 1.401 . S
C326 C325 1.396 . S
C327 C322 1.499 . S
C327 H328 0.959 . S
C327 H329 0.960 . S
C327 H330 0.961 . S
H328 C327 0.959 . S
H329 C327 0.960 . S
H330 C327 0.961 . S
O331 Co306 1.967 . S
O331 C339 1.258 . S
O332 Co307 1.941 . S
O332 C339 1.266 . S
H333 C335 0.959 . S
H334 C335 0.961 . S
C335 C325 1.510 . S
C335 H333 0.959 . S
C335 H334 0.961 . S
C335 H336 0.960 . S
H336 C335 0.960 . S
H337 N317 0.862 . S
O338 Co306 1.920 . S
O338 C311 1.289 . S
C339 O331 1.258 . S
C339 O332 1.266 . S
Co340 O343 1.970 . S
Co340 N357 1.989 . S
Co340 O365 1.967 . S
Co340 O372 1.920 . S
Co341 O344 1.966 . S
Co341 N350 2.022 . S
Co341 N358 1.993 . S
Co341 O366 1.941 . S
C342 O343 1.258 . S
C342 O344 1.263 . S
O343 Co340 1.970 . S
O343 C342 1.258 . S
O344 Co341 1.966 . S
O344 C342 1.263 . S
C345 O346 1.235 . S
C345 O372 1.289 . S
O346 C345 1.235 . S
C347 C349 1.400 . S
C347 N350 1.351 . S
C347 C352 1.501 . S
C348 C349 1.387 . S
C348 N351 1.341 . S
C349 C347 1.400 . S
C349 C348 1.387 . S
N350 Co341 2.022 . S
N350 C347 1.351 . S
N350 N351 1.365 . S
N351 C348 1.341 . S
N351 N350 1.365 . S
N351 H371 0.862 . S
C352 C347 1.501 . S
C352 H353 0.961 . S
C352 H354 0.961 . S
C352 H355 0.960 . S
H353 C352 0.961 . S
H354 C352 0.961 . S
H355 C352 0.960 . S
C356 N357 1.342 . S
C356 C360 1.401 . S
C356 C361 1.499 . S
N357 Co340 1.989 . S
N357 C356 1.342 . S
N357 N358 1.388 . S
N358 Co341 1.993 . S
N358 N357 1.388 . S
N358 C359 1.346 . S
C359 N358 1.346 . S
C359 C360 1.396 . S
C359 C369 1.510 . S
C360 C356 1.401 . S
C360 C359 1.396 . S
C361 C356 1.499 . S
C361 H362 0.959 . S
C361 H363 0.960 . S
C361 H364 0.961 . S
H362 C361 0.959 . S
H363 C361 0.960 . S
H364 C361 0.961 . S
O365 Co340 1.967 . S
O365 C373 1.258 . S
O366 Co341 1.941 . S
O366 C373 1.266 . S
H367 C369 0.959 . S
H368 C369 0.961 . S
C369 C359 1.510 . S
C369 H367 0.959 . S
C369 H368 0.961 . S
C369 H370 0.960 . S
H370 C369 0.960 . S
H371 N351 0.862 . S
O372 Co340 1.920 . S
O372 C345 1.289 . S
C373 O365 1.258 . S
C373 O366 1.266 . S
Co374 O377 1.970 . S
Co374 N391 1.989 . S
Co374 O399 1.967 . S
Co374 O406 1.920 . S
Co375 O378 1.966 . S
Co375 N384 2.022 . S
Co375 N392 1.993 . S
Co375 O400 1.941 . S
C376 O377 1.258 . S
C376 O378 1.263 . S
O377 Co374 1.970 . S
O377 C376 1.258 . S
O378 Co375 1.966 . S
O378 C376 1.263 . S
C379 O380 1.235 . S
C379 O406 1.289 . S
O380 C379 1.235 . S
C381 C383 1.400 . S
C381 N384 1.351 . S
C381 C386 1.501 . S
C382 C383 1.387 . S
C382 N385 1.341 . S
C383 C381 1.400 . S
C383 C382 1.387 . S
N384 Co375 2.022 . S
N384 C381 1.351 . S
N384 N385 1.365 . S
N385 C382 1.341 . S
N385 N384 1.365 . S
N385 H405 0.862 . S
C386 C381 1.501 . S
C386 H387 0.961 . S
C386 H388 0.961 . S
C386 H389 0.960 . S
H387 C386 0.961 . S
H388 C386 0.961 . S
H389 C386 0.960 . S
C390 N391 1.342 . S
C390 C394 1.401 . S
C390 C395 1.499 . S
N391 Co374 1.989 . S
N391 C390 1.342 . S
N391 N392 1.388 . S
N392 Co375 1.993 . S
N392 N391 1.388 . S
N392 C393 1.346 . S
C393 N392 1.346 . S
C393 C394 1.396 . S
C393 C403 1.510 . S
C394 C390 1.401 . S
C394 C393 1.396 . S
C395 C390 1.499 . S
C395 H396 0.959 . S
C395 H397 0.960 . S
C395 H398 0.961 . S
H396 C395 0.959 . S
H397 C395 0.960 . S
H398 C395 0.961 . S
O399 Co374 1.967 . S
O399 C407 1.258 . S
O400 Co375 1.941 . S
O400 C407 1.266 . S
H401 C403 0.959 . S
H402 C403 0.961 . S
C403 C393 1.510 . S
C403 H401 0.959 . S
C403 H402 0.961 . S
C403 H404 0.960 . S
H404 C403 0.960 . S
H405 N385 0.862 . S
O406 Co374 1.920 . S
O406 C379 1.289 . S
C407 O399 1.258 . S
C407 O400 1.266 . S
C408 C409 1.391 . S
C408 C410 1.394 1_545 S
C408 H424 0.931 . S
C409 C408 1.391 . S
C409 C413 1.376 . S
C410 C408 1.394 1_565 S
C410 C411 1.369 . S
C410 C414 1.531 . S
C411 C410 1.369 . S
C411 C412 1.410 1_565 S
C411 C419 1.503 . S
C412 C411 1.410 1_545 S
C412 C413 1.392 . S
C412 C415 1.511 . S
C413 C409 1.376 . S
C413 C412 1.392 . S
C413 H425 0.929 . S
C414 C410 1.531 . S
C414 H426 0.960 . S
C414 H427 0.962 . S
C414 H428 0.960 . S
C415 C412 1.511 . S
C415 H429 0.961 . S
C415 H430 0.961 1_545 S
C415 H431 0.961 . S
C416 C417 1.370 . S
C416 C418 1.363 1_655 S
C416 H432 0.931 . S
C417 C416 1.370 . S
C417 C421 1.408 . S
C418 C416 1.363 1_455 S
C418 C419 1.370 . S
C418 C422 1.524 . S
C419 C411 1.503 . S
C419 C418 1.370 . S
C419 C420 1.403 1_455 S
C420 C419 1.403 1_655 S
C420 C421 1.404 . S
C420 C423 1.539 . S
C421 C417 1.408 . S
C421 C420 1.404 . S
C421 H433 0.930 . S
C422 C418 1.524 . S
C422 H434 0.956 . S
C422 H435 0.961 . S
C422 H436 0.961 . S
C423 C420 1.539 . S
C423 H437 0.958 . S
C423 H438 0.961 . S
C423 H439 0.960 . S
H424 C408 0.931 . S
H425 C413 0.929 . S
H426 C414 0.960 . S
H427 C414 0.962 . S
H428 C414 0.960 . S
H429 C415 0.961 . S
H430 C415 0.961 1_565 S
H431 C415 0.961 . S
H432 C416 0.931 . S
H433 C421 0.930 . S
H434 C422 0.956 . S
H435 C422 0.961 . S
H436 C422 0.961 . S
H437 C423 0.958 . S
H438 C423 0.961 . S
H439 C423 0.960 . S
C440 C441 1.391 . S
C440 C442 1.394 . S
C440 H456 0.931 . S
C441 C440 1.391 . S
C441 C445 1.376 . S
C442 C440 1.394 . S
C442 C443 1.369 1_565 S
C442 C446 1.531 1_565 S
C443 C442 1.369 1_545 S
C443 C444 1.410 1_545 S
C443 C451 1.503 . S
C444 C443 1.410 1_565 S
C444 C445 1.392 . S
C444 C447 1.511 1_565 S
C445 C441 1.376 . S
C445 C444 1.392 . S
C445 H457 0.929 . S
C446 C442 1.531 1_545 S
C446 H458 0.960 . S
C446 H459 0.962 . S
C446 H460 0.960 1_545 S
C447 C444 1.511 1_545 S
C447 H461 0.960 . S
C447 H462 0.961 . S
C447 H463 0.961 1_545 S
C448 C449 1.370 . S
C448 C450 1.363 . S
C448 H464 0.931 . S
C449 C448 1.370 . S
C449 C453 1.408 . S
C450 C448 1.363 . S
C450 C451 1.370 . S
C450 C454 1.524 . S
C451 C443 1.503 . S
C451 C450 1.370 . S
C451 C452 1.403 . S
C452 C451 1.403 . S
C452 C453 1.404 . S
C452 C455 1.539 1_455 S
C453 C449 1.408 . S
C453 C452 1.404 . S
C453 H465 0.930 . S
C454 C450 1.524 . S
C454 H466 0.956 . S
C454 H467 0.961 . S
C454 H468 0.961 . S
C455 C452 1.539 1_655 S
C455 H469 0.958 . S
C455 H470 0.961 . S
C455 H471 0.960 1_545 S
H456 C440 0.931 . S
H457 C445 0.929 . S
H458 C446 0.960 . S
H459 C446 0.962 . S
H460 C446 0.960 1_565 S
H461 C447 0.960 . S
H462 C447 0.961 . S
H463 C447 0.961 1_565 S
H464 C448 0.931 . S
H465 C453 0.930 . S
H466 C454 0.956 . S
H467 C454 0.961 . S
H468 C454 0.961 . S
H469 C455 0.958 . S
H470 C455 0.961 . S
H471 C455 0.960 1_565 S
C472 C473 1.391 . S
C472 C474 1.394 . S
C472 H488 0.931 . S
C473 C472 1.391 . S
C473 C477 1.376 . S
C474 C472 1.394 . S
C474 C475 1.369 1_655 S
C474 C478 1.531 1_655 S
C475 C474 1.369 1_455 S
C475 C476 1.410 1_455 S
C475 C483 1.503 . S
C476 C475 1.410 1_655 S
C476 C477 1.392 . S
C476 C479 1.511 1_655 S
C477 C473 1.376 . S
C477 C476 1.392 . S
C477 H489 0.929 . S
C478 C474 1.531 1_455 S
C478 H490 0.960 . S
C478 H491 0.962 . S
C478 H492 0.960 1_455 S
C479 C476 1.511 1_455 S
C479 H493 0.961 1_455 S
C479 H494 0.961 . S
C479 H495 0.961 1_455 S
C480 C481 1.370 . S
C480 C482 1.363 . S
C480 H496 0.931 . S
C481 C480 1.370 . S
C481 C485 1.408 . S
C482 C480 1.363 . S
C482 C483 1.370 . S
C482 C486 1.524 . S
C483 C475 1.503 . S
C483 C482 1.370 . S
C483 C484 1.403 . S
C484 C483 1.403 . S
C484 C485 1.404 . S
C484 C487 1.539 1_545 S
C485 C481 1.408 . S
C485 C484 1.404 . S
C485 H497 0.930 . S
C486 C482 1.524 . S
C486 H498 0.956 . S
C486 H499 0.961 . S
C486 H500 0.961 . S
C487 C484 1.539 1_565 S
C487 H501 0.958 . S
C487 H502 0.961 . S
C487 H503 0.960 1_455 S
H488 C472 0.931 . S
H489 C477 0.929 . S
H490 C478 0.960 . S
H491 C478 0.962 . S
H492 C478 0.960 1_655 S
H493 C479 0.961 1_655 S
H494 C479 0.961 . S
H495 C479 0.961 1_655 S
H496 C480 0.931 . S
H497 C485 0.930 . S
H498 C486 0.956 . S
H499 C486 0.961 . S
H500 C486 0.961 . S
H501 C487 0.958 . S
H502 C487 0.961 . S
H503 C487 0.960 1_655 S
C504 C505 1.391 . S
C504 C506 1.394 1_565 S
C504 H520 0.931 . S
C505 C504 1.391 . S
C505 C509 1.376 . S
C506 C504 1.394 1_545 S
C506 C507 1.369 . S
C506 C510 1.531 . S
C507 C506 1.369 . S
C507 C508 1.410 1_545 S
C507 C515 1.503 . S
C508 C507 1.410 1_565 S
C508 C509 1.392 . S
C508 C511 1.511 . S
C509 C505 1.376 . S
C509 C508 1.392 . S
C509 H521 0.929 . S
C510 C506 1.531 . S
C510 H522 0.960 . S
C510 H523 0.962 . S
C510 H524 0.960 . S
C511 C508 1.511 . S
C511 H525 0.961 . S
C511 H526 0.961 1_665 S
C511 H527 0.961 . S
C512 C513 1.370 . S
C512 C514 1.363 . S
C512 H528 0.931 . S
C513 C512 1.370 . S
C513 C517 1.408 . S
C514 C512 1.363 . S
C514 C515 1.370 1_455 S
C514 C518 1.524 1_455 S
C515 C507 1.503 . S
C515 C514 1.370 1_655 S
C515 C516 1.403 . S
C516 C515 1.403 . S
C516 C517 1.404 1_655 S
C516 C519 1.539 . S
C517 C513 1.408 . S
C517 C516 1.404 1_455 S
C517 H529 0.930 . S
C518 C514 1.524 1_655 S
C518 H530 0.956 . S
C518 H531 0.961 . S
C518 H532 0.961 1_655 S
C519 C516 1.539 . S
C519 H533 0.958 . S
C519 H534 0.961 . S
C519 H535 0.960 . S
H520 C504 0.931 . S
H521 C509 0.929 . S
H522 C510 0.960 . S
H523 C510 0.962 . S
H524 C510 0.960 . S
H525 C511 0.961 . S
H526 C511 0.961 1_445 S
H527 C511 0.961 . S
H528 C512 0.931 . S
H529 C517 0.930 . S
H530 C518 0.956 . S
H531 C518 0.961 . S
H532 C518 0.961 1_455 S
H533 C519 0.958 . S
H534 C519 0.961 . S
H535 C519 0.960 . S
C536 C537 1.391 . S
C536 C538 1.394 . S
C536 H552 0.931 . S
C537 C536 1.391 . S
C537 C541 1.376 . S
C538 C536 1.394 . S
C538 C539 1.369 . S
C538 C542 1.531 . S
C539 C538 1.369 . S
C539 C540 1.410 . S
C539 C547 1.503 . S
C540 C539 1.410 . S
C540 C541 1.392 . S
C540 C543 1.511 . S
C541 C537 1.376 . S
C541 C540 1.392 . S
C541 H553 0.929 . S
C542 C538 1.531 . S
C542 H554 0.960 . S
C542 H555 0.962 . S
C542 H556 0.960 . S
C543 C540 1.511 . S
C543 H557 0.961 1_655 S
C543 H558 0.961 . S
C543 H559 0.961 1_655 S
C544 C545 1.370 . S
C544 C546 1.363 1_545 S
C544 H560 0.931 . S
C545 C544 1.370 . S
C545 C549 1.408 . S
C546 C544 1.363 1_565 S
C546 C547 1.370 . S
C546 C550 1.524 . S
C547 C539 1.503 . S
C547 C546 1.370 . S
C547 C548 1.403 1_565 S
C548 C547 1.403 1_545 S
C548 C549 1.404 . S
C548 C551 1.539 . S
C549 C545 1.408 . S
C549 C548 1.404 . S
C549 H561 0.930 . S
C550 C546 1.524 . S
C550 H562 0.956 . S
C550 H563 0.961 . S
C550 H564 0.961 . S
C551 C548 1.539 . S
C551 H565 0.958 . S
C551 H566 0.961 1_655 S
C551 H567 0.960 . S
H552 C536 0.931 . S
H553 C541 0.929 . S
H554 C542 0.960 . S
H555 C542 0.962 . S
H556 C542 0.960 . S
H557 C543 0.961 1_455 S
H558 C543 0.961 . S
H559 C543 0.961 1_455 S
H560 C544 0.931 . S
H561 C549 0.930 . S
H562 C550 0.956 . S
H563 C550 0.961 . S
H564 C550 0.961 . S
H565 C551 0.958 . S
H566 C551 0.961 1_455 S
H567 C551 0.960 . S
C568 C569 1.391 . S
C568 C570 1.394 . S
C568 H584 0.931 . S
C569 C568 1.391 . S
C569 C573 1.376 . S
C570 C568 1.394 . S
C570 C571 1.369 1_455 S
C570 C574 1.531 1_455 S
C571 C570 1.369 1_655 S
C571 C572 1.410 1_655 S
C571 C579 1.503 . S
C572 C571 1.410 1_455 S
C572 C573 1.392 . S
C572 C575 1.520 . S
C573 C569 1.376 . S
C573 C572 1.392 . S
C573 H585 0.929 . S
C574 C570 1.531 1_655 S
C574 H586 0.960 . S
C574 H587 0.962 . S
C574 H588 0.960 . S
C575 C572 1.520 . S
C575 H589 0.975 . S
C575 H590 0.941 1_455 S
C575 H591 0.958 . S
C576 C577 1.370 . S
C576 C578 1.363 . S
C576 H592 0.931 . S
C577 C576 1.370 . S
C577 C581 1.408 . S
C578 C576 1.363 . S
C578 C579 1.370 . S
C578 C582 1.524 . S
C579 C571 1.503 . S
C579 C578 1.370 . S
C579 C580 1.403 . S
C580 C579 1.403 . S
C580 C581 1.404 . S
C580 C583 1.539 1_565 S
C581 C577 1.408 . S
C581 C580 1.404 . S
C581 H593 0.930 . S
C582 C578 1.524 . S
C582 H594 0.956 . S
C582 H595 0.961 . S
C582 H596 0.961 . S
C583 C580 1.539 1_545 S
C583 H597 0.958 . S
C583 H598 0.961 . S
C583 H599 0.960 1_655 S
H584 C568 0.931 . S
H585 C573 0.929 . S
H586 C574 0.960 . S
H587 C574 0.962 . S
H588 C574 0.960 . S
H589 C575 0.975 . S
H590 C575 0.941 1_655 S
H591 C575 0.958 . S
H592 C576 0.931 . S
H593 C581 0.930 . S
H594 C582 0.956 . S
H595 C582 0.961 . S
H596 C582 0.961 . S
H597 C583 0.958 . S
H598 C583 0.961 . S
H599 C583 0.960 1_455 S
C600 C601 1.391 . S
C600 C602 1.394 . S
C600 H616 0.931 . S
C601 C600 1.391 . S
C601 C605 1.376 . S
C602 C600 1.394 . S
C602 C603 1.369 . S
C602 C606 1.531 . S
C603 C602 1.369 . S
C603 C604 1.410 . S
C603 C611 1.503 . S
C604 C603 1.410 . S
C604 C605 1.392 . S
C604 C607 1.511 . S
C605 C601 1.376 . S
C605 C604 1.392 . S
C605 H617 0.929 . S
C606 C602 1.531 . S
C606 H618 0.960 . S
C606 H619 0.962 . S
C606 H620 0.960 . S
C607 C604 1.511 . S
C607 H621 0.961 . S
C607 H622 0.961 . S
C607 H623 0.961 . S
C608 C609 1.370 . S
C608 C610 1.363 . S
C608 H624 0.931 . S
C609 C608 1.370 . S
C609 C613 1.408 . S
C610 C608 1.363 . S
C610 C611 1.370 . S
C610 C614 1.524 . S
C611 C603 1.503 . S
C611 C610 1.370 . S
C611 C612 1.403 . S
C612 C611 1.403 . S
C612 C613 1.404 . S
C612 C615 1.539 . S
C613 C609 1.408 . S
C613 C612 1.404 . S
C613 H625 0.930 . S
C614 C610 1.524 . S
C614 H626 0.956 . S
C614 H627 0.961 . S
C614 H628 0.961 . S
C615 C612 1.539 . S
C615 H629 0.958 . S
C615 H630 0.961 . S
C615 H631 0.960 . S
H616 C600 0.931 . S
H617 C605 0.929 . S
H618 C606 0.960 . S
H619 C606 0.962 . S
H620 C606 0.960 . S
H621 C607 0.961 . S
H622 C607 0.961 . S
H623 C607 0.961 . S
H624 C608 0.931 . S
H625 C613 0.930 . S
H626 C614 0.956 . S
H627 C614 0.961 . S
H628 C614 0.961 . S
H629 C615 0.958 . S
H630 C615 0.961 . S
H631 C615 0.960 . S
C632 C633 1.391 . S
C632 C634 1.394 . S
C632 H648 0.931 . S
C633 C632 1.391 . S
C633 C637 1.376 . S
C634 C632 1.394 . S
C634 C635 1.369 . S
C634 C638 1.531 . S
C635 C634 1.369 . S
C635 C636 1.410 . S
C635 C643 1.503 . S
C636 C635 1.410 . S
C636 C637 1.392 . S
C636 C639 1.511 . S
C637 C633 1.376 . S
C637 C636 1.392 . S
C637 H649 0.929 . S
C638 C634 1.531 . S
C638 H650 0.960 . S
C638 H651 0.962 . S
C638 H652 0.960 . S
C639 C636 1.511 . S
C639 H653 0.961 . S
C639 H654 0.961 . S
C639 H655 0.961 . S
C640 C641 1.370 . S
C640 C642 1.363 . S
C640 H656 0.931 . S
C641 C640 1.370 . S
C641 C645 1.408 . S
C642 C640 1.363 . S
C642 C643 1.370 . S
C642 C646 1.524 . S
C643 C635 1.503 . S
C643 C642 1.370 . S
C643 C644 1.403 . S
C644 C643 1.403 . S
C644 C645 1.404 . S
C644 C647 1.539 . S
C645 C641 1.408 . S
C645 C644 1.404 . S
C645 H657 0.930 . S
C646 C642 1.524 . S
C646 H658 0.956 . S
C646 H659 0.961 . S
C646 H660 0.961 . S
C647 C644 1.539 . S
C647 H661 0.958 . S
C647 H662 0.961 . S
C647 H663 0.960 . S
H648 C632 0.931 . S
H649 C637 0.929 . S
H650 C638 0.960 . S
H651 C638 0.962 . S
H652 C638 0.960 . S
H653 C639 0.961 . S
H654 C639 0.961 . S
H655 C639 0.961 . S
H656 C640 0.931 . S
H657 C645 0.930 . S
H658 C646 0.956 . S
H659 C646 0.961 . S
H660 C646 0.961 . S
H661 C647 0.958 . S
H662 C647 0.961 . S
H663 C647 0.960 . S
C664 C665 1.391 . S
C664 C666 1.394 . S
C664 H680 0.931 . S
C665 C664 1.391 . S
C665 C669 1.376 . S
C666 C664 1.394 . S
C666 C667 1.369 . S
C666 C670 1.531 . S
C667 C666 1.369 . S
C667 C668 1.410 . S
C667 C675 1.503 . S
C668 C667 1.410 . S
C668 C669 1.392 . S
C668 C671 1.511 . S
C669 C665 1.376 . S
C669 C668 1.392 . S
C669 H681 0.929 . S
C670 C666 1.531 . S
C670 H682 0.960 . S
C670 H683 0.962 . S
C670 H684 0.960 . S
C671 C668 1.511 . S
C671 H685 0.961 . S
C671 H686 0.961 . S
C671 H687 0.961 . S
C672 C673 1.370 . S
C672 C674 1.363 . S
C672 H688 0.931 . S
C673 C672 1.370 . S
C673 C677 1.408 . S
C674 C672 1.363 . S
C674 C675 1.370 . S
C674 C678 1.524 . S
C675 C667 1.503 . S
C675 C674 1.370 . S
C675 C676 1.403 . S
C676 C675 1.403 . S
C676 C677 1.404 . S
C676 C679 1.539 . S
C677 C673 1.408 . S
C677 C676 1.404 . S
C677 H689 0.930 . S
C678 C674 1.524 . S
C678 H690 0.956 . S
C678 H691 0.961 . S
C678 H692 0.961 . S
C679 C676 1.539 . S
C679 H693 0.958 . S
C679 H694 0.961 . S
C679 H695 0.960 . S
H680 C664 0.931 . S
H681 C669 0.929 . S
H682 C670 0.960 . S
H683 C670 0.962 . S
H684 C670 0.960 . S
H685 C671 0.961 . S
H686 C671 0.961 . S
H687 C671 0.961 . S
H688 C672 0.931 . S
H689 C677 0.930 . S
H690 C678 0.956 . S
H691 C678 0.961 . S
H692 C678 0.961 . S
H693 C679 0.958 . S
H694 C679 0.961 . S
H695 C679 0.960 . S
C696 C697 1.391 . S
C696 C698 1.394 . S
C696 H712 0.931 . S
C697 C696 1.391 . S
C697 C701 1.376 . S
C698 C696 1.394 . S
C698 C699 1.369 . S
C698 C702 1.531 . S
C699 C698 1.369 . S
C699 C700 1.410 . S
C699 C707 1.503 . S
C700 C699 1.410 . S
C700 C701 1.392 . S
C700 C703 1.511 . S
C701 C697 1.376 . S
C701 C700 1.392 . S
C701 H713 0.929 . S
C702 C698 1.531 . S
C702 H714 0.960 . S
C702 H715 0.962 . S
C702 H716 0.960 . S
C703 C700 1.511 . S
C703 H717 0.961 . S
C703 H718 0.961 . S
C703 H719 0.961 . S
C704 C705 1.370 . S
C704 C706 1.363 . S
C704 H720 0.931 . S
C705 C704 1.370 . S
C705 C709 1.408 . S
C706 C704 1.363 . S
C706 C707 1.370 . S
C706 C710 1.524 . S
C707 C699 1.503 . S
C707 C706 1.370 . S
C707 C708 1.403 . S
C708 C707 1.403 . S
C708 C709 1.404 . S
C708 C711 1.539 . S
C709 C705 1.408 . S
C709 C708 1.404 . S
C709 H721 0.930 . S
C710 C706 1.524 . S
C710 H722 0.956 . S
C710 H723 0.961 . S
C710 H724 0.961 . S
C711 C708 1.539 . S
C711 H725 0.958 . S
C711 H726 0.961 . S
C711 H727 0.960 . S
H712 C696 0.931 . S
H713 C701 0.929 . S
H714 C702 0.960 . S
H715 C702 0.962 . S
H716 C702 0.960 . S
H717 C703 0.961 . S
H718 C703 0.961 . S
H719 C703 0.961 . S
H720 C704 0.931 . S
H721 C709 0.930 . S
H722 C710 0.956 . S
H723 C710 0.961 . S
H724 C710 0.961 . S
H725 C711 0.958 . S
H726 C711 0.961 . S
H727 C711 0.960 . S
C728 C729 1.391 . S
C728 C730 1.394 . S
C728 H744 0.931 . S
C729 C728 1.391 . S
C729 C733 1.376 . S
C730 C728 1.394 . S
C730 C731 1.369 . S
C730 C734 1.531 . S
C731 C730 1.369 . S
C731 C732 1.410 . S
C731 C739 1.503 . S
C732 C731 1.410 . S
C732 C733 1.392 . S
C732 C735 1.511 . S
C733 C729 1.376 . S
C733 C732 1.392 . S
C733 H745 0.929 . S
C734 C730 1.531 . S
C734 H746 0.960 . S
C734 H747 0.962 . S
C734 H748 0.960 . S
C735 C732 1.511 . S
C735 H749 0.961 . S
C735 H750 0.961 . S
C735 H751 0.961 . S
C736 C737 1.370 . S
C736 C738 1.363 . S
C736 H752 0.931 . S
C737 C736 1.370 . S
C737 C741 1.408 . S
C738 C736 1.363 . S
C738 C739 1.370 . S
C738 C742 1.524 . S
C739 C731 1.503 . S
C739 C738 1.370 . S
C739 C740 1.403 . S
C740 C739 1.403 . S
C740 C741 1.404 . S
C740 C743 1.539 . S
C741 C737 1.408 . S
C741 C740 1.404 . S
C741 H753 0.930 . S
C742 C738 1.524 . S
C742 H754 0.956 . S
C742 H755 0.961 . S
C742 H756 0.961 . S
C743 C740 1.539 . S
C743 H757 0.958 . S
C743 H758 0.961 . S
C743 H759 0.960 . S
H744 C728 0.931 . S
H745 C733 0.929 . S
H746 C734 0.960 . S
H747 C734 0.962 . S
H748 C734 0.960 . S
H749 C735 0.961 . S
H750 C735 0.961 . S
H751 C735 0.961 . S
H752 C736 0.931 . S
H753 C741 0.930 . S
H754 C742 0.956 . S
H755 C742 0.961 . S
H756 C742 0.961 . S
H757 C743 0.958 . S
H758 C743 0.961 . S
H759 C743 0.960 . S
C760 C761 1.391 . S
C760 C762 1.394 . S
C760 H776 0.931 . S
C761 C760 1.391 . S
C761 C765 1.376 . S
C762 C760 1.394 . S
C762 C763 1.369 . S
C762 C766 1.531 . S
C763 C762 1.369 . S
C763 C764 1.410 . S
C763 C771 1.503 . S
C764 C763 1.410 . S
C764 C765 1.392 . S
C764 C767 1.511 . S
C765 C761 1.376 . S
C765 C764 1.392 . S
C765 H777 0.929 . S
C766 C762 1.531 . S
C766 H778 0.960 . S
C766 H779 0.962 . S
C766 H780 0.960 . S
C767 C764 1.511 . S
C767 H781 0.961 . S
C767 H782 0.961 . S
C767 H783 0.961 . S
C768 C769 1.370 . S
C768 C770 1.363 . S
C768 H784 0.931 . S
C769 C768 1.370 . S
C769 C773 1.408 . S
C770 C768 1.363 . S
C770 C771 1.370 . S
C770 C774 1.524 . S
C771 C763 1.503 . S
C771 C770 1.370 . S
C771 C772 1.403 . S
C772 C771 1.403 . S
C772 C773 1.404 . S
C772 C775 1.539 . S
C773 C769 1.408 . S
C773 C772 1.404 . S
C773 H785 0.930 . S
C774 C770 1.524 . S
C774 H786 0.956 . S
C774 H787 0.961 . S
C774 H788 0.961 . S
C775 C772 1.539 . S
C775 H789 0.958 . S
C775 H790 0.961 . S
C775 H791 0.960 . S
H776 C760 0.931 . S
H777 C765 0.929 . S
H778 C766 0.960 . S
H779 C766 0.962 . S
H780 C766 0.960 . S
H781 C767 0.961 . S
H782 C767 0.961 . S
H783 C767 0.961 . S
H784 C768 0.931 . S
H785 C773 0.930 . S
H786 C774 0.956 . S
H787 C774 0.961 . S
H788 C774 0.961 . S
H789 C775 0.958 . S
H790 C775 0.961 . S
H791 C775 0.960 . S
C792 C793 1.391 . S
C792 C794 1.392 1_565 S
C792 H808 0.931 . S
C793 C792 1.391 . S
C793 C797 1.376 1_565 S
C794 C792 1.392 1_545 S
C794 C795 1.373 . S
C794 C798 1.529 1_545 S
C795 C794 1.373 . S
C795 C796 1.410 . S
C795 C803 1.503 . S
C796 C795 1.410 . S
C796 C797 1.392 . S
C796 C799 1.511 . S
C797 C793 1.376 1_545 S
C797 C796 1.392 . S
C797 H809 0.929 . S
C798 C794 1.529 1_565 S
C798 H810 0.960 1_565 S
C798 H811 0.962 . S
C798 H812 0.960 . S
C799 C796 1.511 . S
C799 H813 0.961 . S
C799 H814 0.961 . S
C799 H815 0.961 . S
C800 C801 1.370 . S
C800 C802 1.363 . S
C800 H816 0.931 . S
C801 C800 1.370 . S
C801 C805 1.408 . S
C802 C800 1.363 . S
C802 C803 1.370 . S
C802 C806 1.524 . S
C803 C795 1.503 . S
C803 C802 1.370 . S
C803 C804 1.403 . S
C804 C803 1.403 . S
C804 C805 1.404 . S
C804 C807 1.539 . S
C805 C801 1.408 . S
C805 C804 1.404 . S
C805 H817 0.930 . S
C806 C802 1.524 . S
C806 H818 0.956 1_545 S
C806 H819 0.961 . S
C806 H820 0.961 . S
C807 C804 1.539 . S
C807 H821 0.958 . S
C807 H822 0.961 . S
C807 H823 0.960 . S
H808 C792 0.931 . S
H809 C797 0.929 . S
H810 C798 0.960 1_545 S
H811 C798 0.962 . S
H812 C798 0.960 . S
H813 C799 0.961 . S
H814 C799 0.961 . S
H815 C799 0.961 . S
H816 C800 0.931 . S
H817 C805 0.930 . S
H818 C806 0.956 1_565 S
H819 C806 0.961 . S
H820 C806 0.961 . S
H821 C807 0.958 . S
H822 C807 0.961 . S
H823 C807 0.960 . S
C824 C825 1.391 . S
C824 C826 1.394 . S
C824 H840 0.931 . S
C825 C824 1.391 . S
C825 C829 1.376 . S
C826 C824 1.394 . S
C826 C827 1.369 . S
C826 C830 1.531 . S
C827 C826 1.369 . S
C827 C828 1.410 . S
C827 C835 1.503 . S
C828 C827 1.410 . S
C828 C829 1.392 . S
C828 C831 1.511 . S
C829 C825 1.376 . S
C829 C828 1.392 . S
C829 H841 0.929 . S
C830 C826 1.531 . S
C830 H842 0.960 . S
C830 H843 0.962 . S
C830 H844 0.960 . S
C831 C828 1.511 . S
C831 H845 0.961 . S
C831 H846 0.961 . S
C831 H847 0.961 . S
C832 C833 1.370 . S
C832 C834 1.363 . S
C832 H848 0.931 . S
C833 C832 1.370 . S
C833 C837 1.408 . S
C834 C832 1.363 . S
C834 C835 1.370 . S
C834 C838 1.524 . S
C835 C827 1.503 . S
C835 C834 1.370 . S
C835 C836 1.403 . S
C836 C835 1.403 . S
C836 C837 1.404 . S
C836 C839 1.539 . S
C837 C833 1.408 . S
C837 C836 1.404 . S
C837 H849 0.930 . S
C838 C834 1.524 . S
C838 H850 0.956 . S
C838 H851 0.961 . S
C838 H852 0.961 . S
C839 C836 1.539 . S
C839 H853 0.958 . S
C839 H854 0.961 . S
C839 H855 0.960 . S
H840 C824 0.931 . S
H841 C829 0.929 . S
H842 C830 0.960 . S
H843 C830 0.962 . S
H844 C830 0.960 . S
H845 C831 0.961 . S
H846 C831 0.961 . S
H847 C831 0.961 . S
H848 C832 0.931 . S
H849 C837 0.930 . S
H850 C838 0.956 . S
H851 C838 0.961 . S
H852 C838 0.961 . S
H853 C839 0.958 . S
H854 C839 0.961 . S
H855 C839 0.960 . S
C856 C857 1.391 . S
C856 C858 1.394 . S
C856 H872 0.931 . S
C857 C856 1.391 . S
C857 C861 1.376 . S
C858 C856 1.394 . S
C858 C859 1.369 . S
C858 C862 1.531 . S
C859 C858 1.369 . S
C859 C860 1.410 . S
C859 C867 1.503 . S
C860 C859 1.410 . S
C860 C861 1.392 . S
C860 C863 1.511 . S
C861 C857 1.376 . S
C861 C860 1.392 . S
C861 H873 0.929 . S
C862 C858 1.531 . S
C862 H874 0.960 . S
C862 H875 0.962 . S
C862 H876 0.960 . S
C863 C860 1.511 . S
C863 H877 0.961 . S
C863 H878 0.961 . S
C863 H879 0.961 . S
C864 C865 1.370 1_655 S
C864 C866 1.363 . S
C864 H880 0.931 . S
C865 C864 1.370 1_455 S
C865 C869 1.408 . S
C866 C864 1.363 . S
C866 C867 1.370 . S
C866 C870 1.524 . S
C867 C859 1.503 . S
C867 C866 1.370 . S
C867 C868 1.403 1_655 S
C868 C867 1.403 1_455 S
C868 C869 1.404 . S
C868 C871 1.539 . S
C869 C865 1.408 . S
C869 C868 1.404 . S
C869 H881 0.930 . S
C870 C866 1.524 . S
C870 H882 0.956 . S
C870 H883 0.961 . S
C870 H884 0.961 . S
C871 C868 1.539 . S
C871 H885 0.958 . S
C871 H886 0.961 . S
C871 H887 0.960 . S
H872 C856 0.931 . S
H873 C861 0.929 . S
H874 C862 0.960 . S
H875 C862 0.962 . S
H876 C862 0.960 . S
H877 C863 0.961 . S
H878 C863 0.961 . S
H879 C863 0.961 . S
H880 C864 0.931 . S
H881 C869 0.930 . S
H882 C870 0.956 . S
H883 C870 0.961 . S
H884 C870 0.961 . S
H885 C871 0.958 . S
H886 C871 0.961 . S
H887 C871 0.960 . S
C888 C889 1.391 1_565 S
C888 C890 1.394 . S
C888 H904 0.931 . S
C889 C888 1.391 1_545 S
C889 C893 1.376 . S
C890 C888 1.394 . S
C890 C891 1.369 . S
C890 C894 1.531 . S
C891 C890 1.369 . S
C891 C892 1.410 . S
C891 C899 1.503 . S
C892 C891 1.410 . S
C892 C893 1.392 1_565 S
C892 C895 1.511 1_565 S
C893 C889 1.376 . S
C893 C892 1.392 1_545 S
C893 H905 0.929 . S
C894 C890 1.531 . S
C894 H906 0.960 . S
C894 H907 0.962 . S
C894 H908 0.960 . S
C895 C892 1.511 1_545 S
C895 H909 0.961 . S
C895 H910 0.961 1_545 S
C895 H911 0.961 1_545 S
C896 C897 1.370 . S
C896 C898 1.363 . S
C896 H912 0.931 . S
C897 C896 1.370 . S
C897 C901 1.408 . S
C898 C896 1.363 . S
C898 C899 1.370 . S
C898 C902 1.524 . S
C899 C891 1.503 . S
C899 C898 1.370 . S
C899 C900 1.403 . S
C900 C899 1.403 . S
C900 C901 1.404 . S
C900 C903 1.539 . S
C901 C897 1.408 . S
C901 C900 1.404 . S
C901 H913 0.930 . S
C902 C898 1.524 . S
C902 H914 0.956 . S
C902 H915 0.961 1_565 S
C902 H916 0.961 . S
C903 C900 1.539 . S
C903 H917 0.958 . S
C903 H918 0.961 . S
C903 H919 0.960 . S
H904 C888 0.931 . S
H905 C893 0.929 . S
H906 C894 0.960 . S
H907 C894 0.962 . S
H908 C894 0.960 . S
H909 C895 0.961 . S
H910 C895 0.961 1_565 S
H911 C895 0.961 1_565 S
H912 C896 0.931 . S
H913 C901 0.930 . S
H914 C902 0.956 . S
H915 C902 0.961 1_545 S
H916 C902 0.961 . S
H917 C903 0.958 . S
H918 C903 0.961 . S
H919 C903 0.960 . S
C920 C921 1.391 . S
C920 C922 1.394 . S
C920 H936 0.931 . S
C921 C920 1.391 . S
C921 C925 1.376 . S
C922 C920 1.394 . S
C922 C923 1.369 . S
C922 C926 1.531 . S
C923 C922 1.369 . S
C923 C924 1.410 . S
C923 C931 1.503 1_556 S
C924 C923 1.410 . S
C924 C925 1.392 . S
C924 C927 1.511 . S
C925 C921 1.376 . S
C925 C924 1.392 . S
C925 H937 0.929 . S
C926 C922 1.531 . S
C926 H938 0.960 1_556 S
C926 H939 0.962 1_556 S
C926 H940 0.960 . S
C927 C924 1.511 . S
C927 H941 0.961 . S
C927 H942 0.961 . S
C927 H943 0.961 . S
C928 C929 1.370 . S
C928 C930 1.363 . S
C928 H944 0.931 . S
C929 C928 1.370 . S
C929 C933 1.408 . S
C930 C928 1.363 . S
C930 C931 1.370 . S
C930 C934 1.524 . S
C931 C923 1.503 1_554 S
C931 C930 1.370 . S
C931 C932 1.403 . S
C932 C931 1.403 . S
C932 C933 1.404 . S
C932 C935 1.539 1_554 S
C933 C929 1.408 . S
C933 C932 1.404 . S
C933 H945 0.930 . S
C934 C930 1.524 . S
C934 H946 0.956 . S
C934 H947 0.961 . S
C934 H948 0.961 . S
C935 C932 1.539 1_556 S
C935 H949 0.958 . S
C935 H950 0.961 . S
C935 H951 0.960 . S
H936 C920 0.931 . S
H937 C925 0.929 . S
H938 C926 0.960 1_554 S
H939 C926 0.962 1_554 S
H940 C926 0.960 . S
H941 C927 0.961 . S
H942 C927 0.961 . S
H943 C927 0.961 . S
H944 C928 0.931 . S
H945 C933 0.930 . S
H946 C934 0.956 . S
H947 C934 0.961 . S
H948 C934 0.961 . S
H949 C935 0.958 . S
H950 C935 0.961 . S
H951 C935 0.960 . S
C952 C953 1.391 1_455 S
C952 C954 1.394 . S
C952 H968 0.931 . S
C953 C952 1.391 1_655 S
C953 C957 1.376 . S
C954 C952 1.394 . S
C954 C955 1.369 . S
C954 C958 1.531 . S
C955 C954 1.369 . S
C955 C956 1.400 1_455 S
C955 C963 1.503 . S
C956 C955 1.400 1_655 S
C956 C957 1.397 . S
C956 C959 1.516 . S
C957 C953 1.376 . S
C957 C956 1.397 . S
C957 H969 0.929 . S
C958 C954 1.531 . S
C958 H970 0.960 . S
C958 H971 0.962 . S
C958 H972 0.960 . S
C959 C956 1.516 . S
C959 H973 0.961 . S
C959 H974 0.974 . S
C959 H975 0.961 1_655 S
C960 C961 1.370 . S
C960 C962 1.363 . S
C960 H976 0.931 . S
C961 C960 1.370 . S
C961 C965 1.408 . S
C962 C960 1.363 . S
C962 C963 1.370 . S
C962 C966 1.524 . S
C963 C955 1.503 . S
C963 C962 1.370 . S
C963 C964 1.403 . S
C964 C963 1.403 . S
C964 C965 1.404 . S
C964 C967 1.539 . S
C965 C961 1.408 . S
C965 C964 1.404 . S
C965 H977 0.930 . S
C966 C962 1.524 . S
C966 H978 0.956 . S
C966 H979 0.961 1_455 S
C966 H980 0.961 . S
C967 C964 1.539 . S
C967 H981 0.958 . S
C967 H982 0.961 . S
C967 H983 0.960 . S
H968 C952 0.931 . S
H969 C957 0.929 . S
H970 C958 0.960 . S
H971 C958 0.962 . S
H972 C958 0.960 . S
H973 C959 0.961 . S
H974 C959 0.974 . S
H975 C959 0.961 1_455 S
H976 C960 0.931 . S
H977 C965 0.930 . S
H978 C966 0.956 . S
H979 C966 0.961 1_655 S
H980 C966 0.961 . S
H981 C967 0.958 . S
H982 C967 0.961 . S
H983 C967 0.960 . S
C984 C985 1.391 1_655 S
C984 C986 1.394 . S
C984 H1000 0.931 . S
C985 C984 1.391 1_455 S
C985 C989 1.376 . S
C986 C984 1.394 . S
C986 C987 1.369 . S
C986 C990 1.531 . S
C987 C986 1.369 . S
C987 C988 1.410 1_655 S
C987 C995 1.503 . S
C988 C987 1.410 1_455 S
C988 C989 1.392 . S
C988 C991 1.511 . S
C989 C985 1.376 . S
C989 C988 1.392 . S
C989 H1001 0.929 . S
C990 C986 1.531 . S
C990 H1002 0.960 . S
C990 H1003 0.962 . S
C990 H1004 0.960 . S
C991 C988 1.511 . S
C991 H1005 0.961 . S
C991 H1006 0.961 . S
C991 H1007 0.961 . S
C992 C993 1.370 . S
C992 C994 1.363 . S
C992 H1008 0.931 . S
C993 C992 1.370 . S
C993 C997 1.408 . S
C994 C992 1.363 . S
C994 C995 1.370 . S
C994 C998 1.524 . S
C995 C987 1.503 . S
C995 C994 1.370 . S
C995 C996 1.403 . S
C996 C995 1.403 . S
C996 C997 1.404 . S
C996 C999 1.539 . S
C997 C993 1.408 . S
C997 C996 1.404 . S
C997 H1009 0.930 . S
C998 C994 1.524 . S
C998 H1010 0.956 . S
C998 H1011 0.961 . S
C998 H1012 0.961 . S
C999 C996 1.539 . S
C999 H1013 0.958 . S
C999 H1014 0.961 . S
C999 H1015 0.960 1_655 S
H1000 C984 0.931 . S
H1001 C989 0.929 . S
H1002 C990 0.960 . S
H1003 C990 0.962 . S
H1004 C990 0.960 . S
H1005 C991 0.961 . S
H1006 C991 0.961 . S
H1007 C991 0.961 . S
H1008 C992 0.931 . S
H1009 C997 0.930 . S
H1010 C998 0.956 . S
H1011 C998 0.961 . S
H1012 C998 0.961 . S
H1013 C999 0.958 . S
H1014 C999 0.961 . S
H1015 C999 0.960 1_455 S
C1016 C1017 1.391 . S
C1016 C1018 1.394 . S
C1016 H1032 0.931 . S
C1017 C1016 1.391 . S
C1017 C1021 1.376 . S
C1018 C1016 1.394 . S
C1018 C1019 1.369 . S
C1018 C1022 1.531 . S
C1019 C1018 1.369 . S
C1019 C1020 1.410 . S
C1019 C1027 1.503 . S
C1020 C1019 1.410 . S
C1020 C1021 1.392 . S
C1020 C1023 1.511 . S
C1021 C1017 1.376 . S
C1021 C1020 1.392 . S
C1021 H1033 0.929 . S
C1022 C1018 1.531 . S
C1022 H1034 0.960 . S
C1022 H1035 0.962 . S
C1022 H1036 0.960 . S
C1023 C1020 1.511 . S
C1023 H1037 0.961 . S
C1023 H1038 0.961 . S
C1023 H1039 0.961 . S
C1024 C1025 1.370 . S
C1024 C1026 1.363 . S
C1024 H1040 0.931 . S
C1025 C1024 1.370 . S
C1025 C1029 1.408 1_545 S
C1026 C1024 1.363 . S
C1026 C1027 1.370 1_545 S
C1026 C1030 1.524 . S
C1027 C1019 1.503 . S
C1027 C1026 1.370 1_565 S
C1027 C1028 1.403 . S
C1028 C1027 1.403 . S
C1028 C1029 1.404 . S
C1028 C1031 1.539 . S
C1029 C1025 1.408 1_565 S
C1029 C1028 1.404 . S
C1029 H1041 0.930 . S
C1030 C1026 1.524 . S
C1030 H1042 0.956 . S
C1030 H1043 0.961 . S
C1030 H1044 0.961 . S
C1031 C1028 1.539 . S
C1031 H1045 0.958 . S
C1031 H1046 0.961 . S
C1031 H1047 0.960 . S
H1032 C1016 0.931 . S
H1033 C1021 0.929 . S
H1034 C1022 0.960 . S
H1035 C1022 0.962 . S
H1036 C1022 0.960 . S
H1037 C1023 0.961 . S
H1038 C1023 0.961 . S
H1039 C1023 0.961 . S
H1040 C1024 0.931 . S
H1041 C1029 0.930 . S
H1042 C1030 0.956 . S
H1043 C1030 0.961 . S
H1044 C1030 0.961 . S
H1045 C1031 0.958 . S
H1046 C1031 0.961 . S
H1047 C1031 0.960 . S
C1048 C1049 1.391 . S
C1048 C1050 1.394 . S
C1048 H1064 0.931 . S
C1049 C1048 1.391 . S
C1049 C1053 1.376 . S
C1050 C1048 1.394 . S
C1050 C1051 1.369 . S
C1050 C1054 1.531 . S
C1051 C1050 1.369 . S
C1051 C1052 1.410 . S
C1051 C1059 1.503 . S
C1052 C1051 1.410 . S
C1052 C1053 1.392 . S
C1052 C1055 1.511 . S
C1053 C1049 1.376 . S
C1053 C1052 1.392 . S
C1053 H1065 0.929 . S
C1054 C1050 1.531 . S
C1054 H1066 0.960 . S
C1054 H1067 0.962 . S
C1054 H1068 0.960 . S
C1055 C1052 1.511 . S
C1055 H1069 0.961 . S
C1055 H1070 0.961 . S
C1055 H1071 0.961 . S
C1056 C1057 1.370 . S
C1056 C1058 1.363 . S
C1056 H1072 0.931 . S
C1057 C1056 1.370 . S
C1057 C1061 1.408 . S
C1058 C1056 1.363 . S
C1058 C1059 1.370 . S
C1058 C1062 1.524 . S
C1059 C1051 1.503 . S
C1059 C1058 1.370 . S
C1059 C1060 1.403 . S
C1060 C1059 1.403 . S
C1060 C1061 1.404 . S
C1060 C1063 1.539 . S
C1061 C1057 1.408 . S
C1061 C1060 1.404 . S
C1061 H1073 0.930 . S
C1062 C1058 1.524 . S
C1062 H1074 0.956 . S
C1062 H1075 0.961 . S
C1062 H1076 0.961 . S
C1063 C1060 1.539 . S
C1063 H1077 0.958 . S
C1063 H1078 0.961 . S
C1063 H1079 0.960 . S
H1064 C1048 0.931 . S
H1065 C1053 0.929 . S
H1066 C1054 0.960 . S
H1067 C1054 0.962 . S
H1068 C1054 0.960 . S
H1069 C1055 0.961 . S
H1070 C1055 0.961 . S
H1071 C1055 0.961 . S
H1072 C1056 0.931 . S
H1073 C1061 0.930 . S
H1074 C1062 0.956 . S
H1075 C1062 0.961 . S
H1076 C1062 0.961 . S
H1077 C1063 0.958 . S
H1078 C1063 0.961 . S
H1079 C1063 0.960 . S
C1080 C1081 1.391 1_455 S
C1080 C1082 1.394 . S
C1080 H1096 0.931 . S
C1081 C1080 1.391 1_655 S
C1081 C1085 1.376 . S
C1082 C1080 1.394 . S
C1082 C1083 1.369 . S
C1082 C1086 1.531 . S
C1083 C1082 1.369 . S
C1083 C1084 1.410 1_455 S
C1083 C1091 1.503 1_554 S
C1084 C1083 1.410 1_655 S
C1084 C1085 1.392 . S
C1084 C1087 1.511 1_554 S
C1085 C1081 1.376 . S
C1085 C1084 1.392 . S
C1085 H1097 0.929 . S
C1086 C1082 1.531 . S
C1086 H1098 0.960 . S
C1086 H1099 0.962 . S
C1086 H1100 0.960 . S
C1087 C1084 1.511 1_556 S
C1087 H1101 0.965 . S
C1087 H1102 0.961 1_655 S
C1087 H1103 0.961 . S
C1088 C1089 1.370 . S
C1088 C1090 1.363 . S
C1088 H1104 0.931 . S
C1089 C1088 1.370 . S
C1089 C1093 1.408 . S
C1090 C1088 1.363 . S
C1090 C1091 1.370 . S
C1090 C1094 1.524 1_556 S
C1091 C1083 1.503 1_556 S
C1091 C1090 1.370 . S
C1091 C1092 1.403 . S
C1092 C1091 1.403 . S
C1092 C1093 1.404 . S
C1092 C1095 1.539 . S
C1093 C1089 1.408 . S
C1093 C1092 1.404 . S
C1093 H1105 0.930 . S
C1094 C1090 1.524 1_554 S
C1094 H1106 0.956 . S
C1094 H1107 0.961 . S
C1094 H1108 0.961 . S
C1095 C1092 1.539 . S
C1095 H1109 0.958 . S
C1095 H1110 0.968 . S
C1095 H1111 0.960 1_455 S
H1096 C1080 0.931 . S
H1097 C1085 0.929 . S
H1098 C1086 0.960 . S
H1099 C1086 0.962 . S
H1100 C1086 0.960 . S
H1101 C1087 0.965 . S
H1102 C1087 0.961 1_455 S
H1103 C1087 0.961 . S
H1104 C1088 0.931 . S
H1105 C1093 0.930 . S
H1106 C1094 0.956 . S
H1107 C1094 0.961 . S
H1108 C1094 0.961 . S
H1109 C1095 0.958 . S
H1110 C1095 0.968 . S
H1111 C1095 0.960 1_655 S
C1112 C1113 1.391 . S
C1112 C1114 1.394 . S
C1112 H1128 0.931 . S
C1113 C1112 1.391 . S
C1113 C1117 1.376 1_565 S
C1114 C1112 1.394 . S
C1114 C1115 1.369 1_565 S
C1114 C1118 1.531 . S
C1115 C1114 1.369 1_545 S
C1115 C1116 1.410 . S
C1115 C1123 1.503 . S
C1116 C1115 1.410 . S
C1116 C1117 1.392 . S
C1116 C1119 1.511 . S
C1117 C1113 1.376 1_545 S
C1117 C1116 1.392 . S
C1117 H1129 0.929 . S
C1118 C1114 1.531 . S
C1118 H1130 0.960 . S
C1118 H1131 0.962 1_565 S
C1118 H1132 0.960 . S
C1119 C1116 1.511 . S
C1119 H1133 0.961 . S
C1119 H1134 0.961 . S
C1119 H1135 0.961 . S
C1120 C1121 1.370 . S
C1120 C1122 1.363 . S
C1120 H1136 0.931 . S
C1121 C1120 1.370 . S
C1121 C1125 1.408 . S
C1122 C1120 1.363 . S
C1122 C1123 1.370 . S
C1122 C1126 1.524 . S
C1123 C1115 1.503 . S
C1123 C1122 1.370 . S
C1123 C1124 1.403 . S
C1124 C1123 1.403 . S
C1124 C1125 1.404 . S
C1124 C1127 1.539 1_545 S
C1125 C1121 1.408 . S
C1125 C1124 1.404 . S
C1125 H1137 0.930 . S
C1126 C1122 1.524 . S
C1126 H1138 0.956 . S
C1126 H1139 0.961 . S
C1126 H1140 0.961 . S
C1127 C1124 1.539 1_565 S
C1127 H1141 0.958 . S
C1127 H1142 0.961 1_565 S
C1127 H1143 0.960 . S
H1128 C1112 0.931 . S
H1129 C1117 0.929 . S
H1130 C1118 0.960 . S
H1131 C1118 0.962 1_545 S
H1132 C1118 0.960 . S
H1133 C1119 0.961 . S
H1134 C1119 0.961 . S
H1135 C1119 0.961 . S
H1136 C1120 0.931 . S
H1137 C1125 0.930 . S
H1138 C1126 0.956 . S
H1139 C1126 0.961 . S
H1140 C1126 0.961 . S
H1141 C1127 0.958 . S
H1142 C1127 0.961 1_545 S
H1143 C1127 0.960 . S
C1144 C1145 1.391 . S
C1144 C1146 1.394 . S
C1144 H1160 0.931 . S
C1145 C1144 1.391 . S
C1145 C1149 1.376 . S
C1146 C1144 1.394 . S
C1146 C1147 1.369 . S
C1146 C1150 1.531 . S
C1147 C1146 1.369 . S
C1147 C1148 1.410 . S
C1147 C1155 1.503 . S
C1148 C1147 1.410 . S
C1148 C1149 1.392 . S
C1148 C1151 1.511 . S
C1149 C1145 1.376 . S
C1149 C1148 1.392 . S
C1149 H1161 0.929 . S
C1150 C1146 1.531 . S
C1150 H1162 0.960 . S
C1150 H1163 0.962 . S
C1150 H1164 0.960 . S
C1151 C1148 1.511 . S
C1151 H1165 0.961 . S
C1151 H1166 0.961 . S
C1151 H1167 0.961 . S
C1152 C1153 1.370 . S
C1152 C1154 1.363 . S
C1152 H1168 0.931 . S
C1153 C1152 1.370 . S
C1153 C1157 1.408 . S
C1154 C1152 1.363 . S
C1154 C1155 1.370 . S
C1154 C1158 1.524 . S
C1155 C1147 1.503 . S
C1155 C1154 1.370 . S
C1155 C1156 1.403 . S
C1156 C1155 1.403 . S
C1156 C1157 1.404 . S
C1156 C1159 1.539 . S
C1157 C1153 1.408 . S
C1157 C1156 1.404 . S
C1157 H1169 0.930 . S
C1158 C1154 1.524 . S
C1158 H1170 0.956 . S
C1158 H1171 0.961 . S
C1158 H1172 0.961 . S
C1159 C1156 1.539 . S
C1159 H1173 0.958 . S
C1159 H1174 0.961 . S
C1159 H1175 0.960 . S
H1160 C1144 0.931 . S
H1161 C1149 0.929 . S
H1162 C1150 0.960 . S
H1163 C1150 0.962 . S
H1164 C1150 0.960 . S
H1165 C1151 0.961 . S
H1166 C1151 0.961 . S
H1167 C1151 0.961 . S
H1168 C1152 0.931 . S
H1169 C1157 0.930 . S
H1170 C1158 0.956 . S
H1171 C1158 0.961 . S
H1172 C1158 0.961 . S
H1173 C1159 0.958 . S
H1174 C1159 0.961 . S
H1175 C1159 0.960 . S
C1176 C1177 1.391 . S
C1176 C1178 1.394 . S
C1176 H1192 0.931 . S
C1177 C1176 1.391 . S
C1177 C1181 1.376 . S
C1178 C1176 1.394 . S
C1178 C1179 1.369 . S
C1178 C1182 1.531 . S
C1179 C1178 1.369 . S
C1179 C1180 1.410 . S
C1179 C1187 1.503 1_545 S
C1180 C1179 1.410 . S
C1180 C1181 1.392 . S
C1180 C1183 1.511 1_545 S
C1181 C1177 1.376 . S
C1181 C1180 1.392 . S
C1181 H1193 0.929 . S
C1182 C1178 1.531 . S
C1182 H1194 0.960 . S
C1182 H1195 0.962 . S
C1182 H1196 0.960 . S
C1183 C1180 1.511 1_565 S
C1183 H1197 0.961 . S
C1183 H1198 0.961 . S
C1183 H1199 0.961 . S
C1184 C1185 1.370 . S
C1184 C1186 1.363 . S
C1184 H1200 0.931 . S
C1185 C1184 1.370 . S
C1185 C1189 1.408 . S
C1186 C1184 1.363 . S
C1186 C1187 1.370 . S
C1186 C1190 1.524 . S
C1187 C1179 1.503 1_565 S
C1187 C1186 1.370 . S
C1187 C1188 1.403 . S
C1188 C1187 1.403 . S
C1188 C1189 1.404 . S
C1188 C1191 1.539 1_565 S
C1189 C1185 1.408 . S
C1189 C1188 1.404 . S
C1189 H1201 0.930 . S
C1190 C1186 1.524 . S
C1190 H1202 0.956 . S
C1190 H1203 0.961 . S
C1190 H1204 0.961 . S
C1191 C1188 1.539 1_545 S
C1191 H1205 0.958 . S
C1191 H1206 0.961 . S
C1191 H1207 0.960 . S
H1192 C1176 0.931 . S
H1193 C1181 0.929 . S
H1194 C1182 0.960 . S
H1195 C1182 0.962 . S
H1196 C1182 0.960 . S
H1197 C1183 0.961 . S
H1198 C1183 0.961 . S
H1199 C1183 0.961 . S
H1200 C1184 0.931 . S
H1201 C1189 0.930 . S
H1202 C1190 0.956 . S
H1203 C1190 0.961 . S
H1204 C1190 0.961 . S
H1205 C1191 0.958 . S
H1206 C1191 0.961 . S
H1207 C1191 0.960 . S
C1208 C1209 1.391 . S
C1208 C1210 1.394 . S
C1208 H1224 0.931 . S
C1209 C1208 1.391 . S
C1209 C1213 1.376 . S
C1210 C1208 1.394 . S
C1210 C1211 1.369 . S
C1210 C1214 1.531 . S
C1211 C1210 1.369 . S
C1211 C1212 1.410 . S
C1211 C1219 1.503 . S
C1212 C1211 1.410 . S
C1212 C1213 1.392 . S
C1212 C1215 1.511 . S
C1213 C1209 1.376 . S
C1213 C1212 1.392 . S
C1213 H1225 0.929 . S
C1214 C1210 1.531 . S
C1214 H1226 0.960 . S
C1214 H1227 0.962 . S
C1214 H1228 0.960 . S
C1215 C1212 1.511 . S
C1215 H1229 0.961 . S
C1215 H1230 0.961 . S
C1215 H1231 0.961 . S
C1216 C1217 1.370 . S
C1216 C1218 1.363 . S
C1216 H1232 0.931 . S
C1217 C1216 1.370 . S
C1217 C1221 1.408 . S
C1218 C1216 1.363 . S
C1218 C1219 1.370 . S
C1218 C1222 1.524 . S
C1219 C1211 1.503 . S
C1219 C1218 1.370 . S
C1219 C1220 1.403 . S
C1220 C1219 1.403 . S
C1220 C1221 1.404 . S
C1220 C1223 1.539 . S
C1221 C1217 1.408 . S
C1221 C1220 1.404 . S
C1221 H1233 0.930 . S
C1222 C1218 1.524 . S
C1222 H1234 0.956 . S
C1222 H1235 0.961 . S
C1222 H1236 0.961 . S
C1223 C1220 1.539 . S
C1223 H1237 0.958 . S
C1223 H1238 0.961 . S
C1223 H1239 0.960 . S
H1224 C1208 0.931 . S
H1225 C1213 0.929 . S
H1226 C1214 0.960 . S
H1227 C1214 0.962 . S
H1228 C1214 0.960 . S
H1229 C1215 0.961 . S
H1230 C1215 0.961 . S
H1231 C1215 0.961 . S
H1232 C1216 0.931 . S
H1233 C1221 0.930 . S
H1234 C1222 0.956 . S
H1235 C1222 0.961 . S
H1236 C1222 0.961 . S
H1237 C1223 0.958 . S
H1238 C1223 0.961 . S
H1239 C1223 0.960 . S
C1240 C1241 1.391 . S
C1240 C1242 1.394 . S
C1240 H1256 0.931 . S
C1241 C1240 1.391 . S
C1241 C1245 1.376 . S
C1242 C1240 1.394 . S
C1242 C1243 1.369 . S
C1242 C1246 1.531 1_655 S
C1243 C1242 1.369 . S
C1243 C1244 1.410 . S
C1243 C1251 1.503 1_655 S
C1244 C1243 1.410 . S
C1244 C1245 1.392 . S
C1244 C1247 1.511 . S
C1245 C1241 1.376 . S
C1245 C1244 1.392 . S
C1245 H1257 0.929 . S
C1246 C1242 1.531 1_455 S
C1246 H1258 0.960 . S
C1246 H1259 0.962 . S
C1246 H1260 0.960 . S
C1247 C1244 1.511 . S
C1247 H1261 0.961 . S
C1247 H1262 0.961 . S
C1247 H1263 0.961 . S
C1248 C1249 1.370 . S
C1248 C1250 1.363 . S
C1248 H1264 0.931 . S
C1249 C1248 1.370 . S
C1249 C1253 1.408 . S
C1250 C1248 1.363 . S
C1250 C1251 1.370 . S
C1250 C1254 1.524 . S
C1251 C1243 1.503 1_455 S
C1251 C1250 1.370 . S
C1251 C1252 1.403 . S
C1252 C1251 1.403 . S
C1252 C1253 1.404 . S
C1252 C1255 1.539 . S
C1253 C1249 1.408 . S
C1253 C1252 1.404 . S
C1253 H1265 0.930 . S
C1254 C1250 1.524 . S
C1254 H1266 0.956 . S
C1254 H1267 0.961 1_455 S
C1254 H1268 0.961 . S
C1255 C1252 1.539 . S
C1255 H1269 0.958 . S
C1255 H1270 0.961 . S
C1255 H1271 0.968 . S
H1256 C1240 0.931 . S
H1257 C1245 0.929 . S
H1258 C1246 0.960 . S
H1259 C1246 0.962 . S
H1260 C1246 0.960 . S
H1261 C1247 0.961 . S
H1262 C1247 0.961 . S
H1263 C1247 0.961 . S
H1264 C1248 0.931 . S
H1265 C1253 0.930 . S
H1266 C1254 0.956 . S
H1267 C1254 0.961 1_655 S
H1268 C1254 0.961 . S
H1269 C1255 0.958 . S
H1270 C1255 0.961 . S
H1271 C1255 0.968 . S
C1272 C1273 1.391 . S
C1272 C1274 1.394 . S
C1272 H1288 0.931 . S
C1273 C1272 1.391 . S
C1273 C1277 1.376 . S
C1274 C1272 1.394 . S
C1274 C1275 1.369 . S
C1274 C1278 1.531 . S
C1275 C1274 1.369 . S
C1275 C1276 1.410 . S
C1275 C1283 1.503 1_544 S
C1276 C1275 1.410 . S
C1276 C1277 1.392 . S
C1276 C1279 1.511 1_545 S
C1277 C1273 1.376 . S
C1277 C1276 1.392 . S
C1277 H1289 0.929 . S
C1278 C1274 1.531 . S
C1278 H1290 0.960 1_545 S
C1278 H1291 0.962 1_554 S
C1278 H1292 0.960 . S
C1279 C1276 1.511 1_565 S
C1279 H1293 0.961 1_565 S
C1279 H1294 0.961 . S
C1279 H1295 0.961 . S
C1280 C1281 1.370 . S
C1280 C1282 1.363 . S
C1280 H1296 0.931 . S
C1281 C1280 1.370 . S
C1281 C1285 1.408 . S
C1282 C1280 1.363 . S
C1282 C1283 1.370 . S
C1282 C1286 1.524 1_565 S
C1283 C1275 1.503 1_566 S
C1283 C1282 1.370 . S
C1283 C1284 1.403 . S
C1284 C1283 1.403 . S
C1284 C1285 1.404 . S
C1284 C1287 1.539 1_556 S
C1285 C1281 1.408 . S
C1285 C1284 1.404 . S
C1285 H1297 0.930 . S
C1286 C1282 1.524 1_545 S
C1286 H1298 0.956 . S
C1286 H1299 0.961 . S
C1286 H1300 0.961 . S
C1287 C1284 1.539 1_554 S
C1287 H1301 0.958 . S
C1287 H1302 0.961 . S
C1287 H1303 0.960 . S
H1288 C1272 0.931 . S
H1289 C1277 0.929 . S
H1290 C1278 0.960 1_565 S
H1291 C1278 0.962 1_556 S
H1292 C1278 0.960 . S
H1293 C1279 0.961 1_545 S
H1294 C1279 0.961 . S
H1295 C1279 0.961 . S
H1296 C1280 0.931 . S
H1297 C1285 0.930 . S
H1298 C1286 0.956 . S
H1299 C1286 0.961 . S
H1300 C1286 0.961 . S
H1301 C1287 0.958 . S
H1302 C1287 0.961 . S
H1303 C1287 0.960 . S
C1304 C1305 1.391 . S
C1304 C1306 1.394 . S
C1304 H1320 0.931 . S
C1305 C1304 1.391 . S
C1305 C1309 1.376 . S
C1306 C1304 1.394 . S
C1306 C1307 1.369 . S
C1306 C1310 1.531 . S
C1307 C1306 1.369 . S
C1307 C1308 1.410 . S
C1307 C1315 1.503 . S
C1308 C1307 1.410 . S
C1308 C1309 1.392 . S
C1308 C1311 1.511 . S
C1309 C1305 1.376 . S
C1309 C1308 1.392 . S
C1309 H1321 0.929 . S
C1310 C1306 1.531 . S
C1310 H1322 0.960 . S
C1310 H1323 0.962 . S
C1310 H1324 0.960 . S
C1311 C1308 1.511 . S
C1311 H1325 0.961 . S
C1311 H1326 0.961 . S
C1311 H1327 0.961 . S
C1312 C1313 1.370 . S
C1312 C1314 1.363 . S
C1312 H1328 0.931 . S
C1313 C1312 1.370 . S
C1313 C1317 1.408 . S
C1314 C1312 1.363 . S
C1314 C1315 1.370 . S
C1314 C1318 1.524 . S
C1315 C1307 1.503 . S
C1315 C1314 1.370 . S
C1315 C1316 1.403 . S
C1316 C1315 1.403 . S
C1316 C1317 1.404 . S
C1316 C1319 1.539 . S
C1317 C1313 1.408 . S
C1317 C1316 1.404 . S
C1317 H1329 0.930 . S
C1318 C1314 1.524 . S
C1318 H1330 0.956 . S
C1318 H1331 0.961 . S
C1318 H1332 0.961 . S
C1319 C1316 1.539 . S
C1319 H1333 0.958 . S
C1319 H1334 0.961 . S
C1319 H1335 0.960 . S
H1320 C1304 0.931 . S
H1321 C1309 0.929 . S
H1322 C1310 0.960 . S
H1323 C1310 0.962 . S
H1324 C1310 0.960 . S
H1325 C1311 0.961 . S
H1326 C1311 0.961 . S
H1327 C1311 0.961 . S
H1328 C1312 0.931 . S
H1329 C1317 0.930 . S
H1330 C1318 0.956 . S
H1331 C1318 0.961 . S
H1332 C1318 0.961 . S
H1333 C1319 0.958 . S
H1334 C1319 0.961 . S
H1335 C1319 0.960 . S
C1336 C1337 1.391 . S
C1336 C1338 1.394 . S
C1336 H1352 0.931 . S
C1337 C1336 1.391 . S
C1337 C1341 1.376 . S
C1338 C1336 1.394 . S
C1338 C1339 1.369 . S
C1338 C1342 1.531 . S
C1339 C1338 1.369 . S
C1339 C1340 1.410 . S
C1339 C1347 1.503 1_655 S
C1340 C1339 1.410 . S
C1340 C1341 1.392 . S
C1340 C1343 1.511 1_655 S
C1341 C1337 1.376 . S
C1341 C1340 1.392 . S
C1341 H1353 0.929 . S
C1342 C1338 1.531 . S
C1342 H1354 0.960 . S
C1342 H1355 0.962 . S
C1342 H1356 0.960 . S
C1343 C1340 1.511 1_455 S
C1343 H1357 0.961 . S
C1343 H1358 0.961 . S
C1343 H1359 0.961 . S
C1344 C1345 1.370 . S
C1344 C1346 1.363 . S
C1344 H1360 0.931 . S
C1345 C1344 1.370 . S
C1345 C1349 1.408 . S
C1346 C1344 1.363 . S
C1346 C1347 1.370 . S
C1346 C1350 1.524 . S
C1347 C1339 1.503 1_455 S
C1347 C1346 1.370 . S
C1347 C1348 1.403 . S
C1348 C1347 1.403 . S
C1348 C1349 1.404 . S
C1348 C1351 1.539 . S
C1349 C1345 1.408 . S
C1349 C1348 1.404 . S
C1349 H1361 0.930 . S
C1350 C1346 1.524 . S
C1350 H1362 0.956 1_455 S
C1350 H1363 0.961 . S
C1350 H1364 0.961 . S
C1351 C1348 1.539 . S
C1351 H1365 0.958 1_455 S
C1351 H1366 0.961 . S
C1351 H1367 0.960 . S
H1352 C1336 0.931 . S
H1353 C1341 0.929 . S
H1354 C1342 0.960 . S
H1355 C1342 0.962 . S
H1356 C1342 0.960 . S
H1357 C1343 0.961 . S
H1358 C1343 0.961 . S
H1359 C1343 0.961 . S
H1360 C1344 0.931 . S
H1361 C1349 0.930 . S
H1362 C1350 0.956 1_655 S
H1363 C1350 0.961 . S
H1364 C1350 0.961 . S
H1365 C1351 0.958 1_655 S
H1366 C1351 0.961 . S
H1367 C1351 0.960 . S
C409 C5 0.224 . S
C417 C209 0.101 . S
C441 C243 0.173 . S
C449 C39 0.144 . S
C473 C73 0.180 . S
C481 C277 0.140 . S
C505 C107 0.216 . S
C513 C311 0.067 . S
C537 C141 0.223 . S
C545 C345 0.103 . S
C569 C175 0.188 . S
C577 C379 0.136 . S
C601 C213 1.230 . S
C609 C9 1.254 . S
C633 C43 1.283 . S
C641 C247 1.265 . S
C665 C281 1.273 . S
C673 C77 1.271 . S
C697 C315 1.226 . S
C705 C111 1.251 . S
C729 C349 1.249 . S
C737 C145 1.263 . S
C761 C179 1.284 . S
C769 C383 1.265 . S
C793 C172 1.524 . S
C801 C20 1.487 . S
C825 C2 1.524 . S
C833 C54 1.487 . S
C857 C88 1.450 . S
C865 C36 1.500 . S
C889 C70 1.511 . S
C897 C122 1.473 . S
C921 C104 1.524 . S
C929 C156 1.486 . S
C953 C138 1.508 . S
C961 C190 1.471 . S
C985 C240 1.485 . S
C993 C224 1.460 . S
C1017 C258 1.495 . S
C1025 C274 1.516 . S
C1049 C308 1.523 . S
C1057 C292 1.483 . S
C1081 C342 1.484 . S
C1089 C326 1.461 . S
C1113 C376 1.494 . S
C1121 C360 1.472 . S
C1145 C206 1.488 . S
C1153 C394 1.467 . S
C1177 C33 1.384 . S
C1185 C271 1.393 . S
C1209 C67 1.395 . S
C1217 C305 1.406 . S
C1241 C101 1.425 . S
C1249 C339 1.414 . S
C1273 C373 1.390 . S
C1281 C135 1.404 . S
C1305 C169 1.389 . S
C1313 C407 1.395 . S
C1337 C237 1.373 . S
C1345 C203 1.393 . S
