# Generated by pormake.
# Topology atn, (4)-cn, num edge types: 1
# Building blocks:
#     Node 0, Type 0, BuildingBlock: TATPOV_clean_sbu_0, # of connection points: 4
#     Node 1, Type 0, BuildingBlock: TATPOV_clean_sbu_0, # of connection points: 4
#     Node 2, Type 0, BuildingBlock: TATPOV_clean_sbu_0, # of connection points: 4
#     Node 3, Type 0, BuildingBlock: TATPOV_clean_sbu_0, # of connection points: 4
#     Node 4, Type 0, BuildingBlock: TATPOV_clean_sbu_0, # of connection points: 4
#     Node 5, Type 0, BuildingBlock: TATPOV_clean_sbu_0, # of connection points: 4
#     Node 6, Type 0, BuildingBlock: TATPOV_clean_sbu_0, # of connection points: 4
#     Node 7, Type 0, BuildingBlock: TATPOV_clean_sbu_0, # of connection points: 4
#     Node 8, Type 0, BuildingBlock: TATPOV_clean_sbu_0, # of connection points: 4
#     Node 9, Type 0, BuildingBlock: TATPOV_clean_sbu_0, # of connection points: 4
#     Node 10, Type 0, BuildingBlock: TATPOV_clean_sbu_0, # of connection points: 4
#     Node 11, Type 0, BuildingBlock: TATPOV_clean_sbu_0, # of connection points: 4
#     Node 12, Type 0, BuildingBlock: TATPOV_clean_sbu_0, # of connection points: 4
#     Node 13, Type 0, BuildingBlock: TATPOV_clean_sbu_0, # of connection points: 4
#     Node 14, Type 0, BuildingBlock: TATPOV_clean_sbu_0, # of connection points: 4
#     Node 15, Type 0, BuildingBlock: TATPOV_clean_sbu_0, # of connection points: 4
#     Edge 16, Type (0, 0), BuildingBlock: MIFKUJ_clean_linker_0, # of connection points: 2
#     Edge 17, Type (0, 0), BuildingBlock: MIFKUJ_clean_linker_0, # of connection points: 2
#     Edge 18, Type (0, 0), BuildingBlock: MIFKUJ_clean_linker_0, # of connection points: 2
#     Edge 19, Type (0, 0), BuildingBlock: MIFKUJ_clean_linker_0, # of connection points: 2
#     Edge 20, Type (0, 0), BuildingBlock: MIFKUJ_clean_linker_0, # of connection points: 2
#     Edge 21, Type (0, 0), BuildingBlock: MIFKUJ_clean_linker_0, # of connection points: 2
#     Edge 22, Type (0, 0), BuildingBlock: MIFKUJ_clean_linker_0, # of connection points: 2
#     Edge 23, Type (0, 0), BuildingBlock: MIFKUJ_clean_linker_0, # of connection points: 2
#     Edge 24, Type (0, 0), BuildingBlock: MIFKUJ_clean_linker_0, # of connection points: 2
#     Edge 25, Type (0, 0), BuildingBlock: MIFKUJ_clean_linker_0, # of connection points: 2
#     Edge 26, Type (0, 0), BuildingBlock: MIFKUJ_clean_linker_0, # of connection points: 2
#     Edge 27, Type (0, 0), BuildingBlock: MIFKUJ_clean_linker_0, # of connection points: 2
#     Edge 28, Type (0, 0), BuildingBlock: MIFKUJ_clean_linker_0, # of connection points: 2
#     Edge 29, Type (0, 0), BuildingBlock: MIFKUJ_clean_linker_0, # of connection points: 2
#     Edge 30, Type (0, 0), BuildingBlock: MIFKUJ_clean_linker_0, # of connection points: 2
#     Edge 31, Type (0, 0), BuildingBlock: MIFKUJ_clean_linker_0, # of connection points: 2
#     Edge 32, Type (0, 0), BuildingBlock: MIFKUJ_clean_linker_0, # of connection points: 2
#     Edge 33, Type (0, 0), BuildingBlock: MIFKUJ_clean_linker_0, # of connection points: 2
#     Edge 34, Type (0, 0), BuildingBlock: MIFKUJ_clean_linker_0, # of connection points: 2
#     Edge 35, Type (0, 0), BuildingBlock: MIFKUJ_clean_linker_0, # of connection points: 2
#     Edge 36, Type (0, 0), BuildingBlock: MIFKUJ_clean_linker_0, # of connection points: 2
#     Edge 37, Type (0, 0), BuildingBlock: MIFKUJ_clean_linker_0, # of connection points: 2
#     Edge 38, Type (0, 0), BuildingBlock: MIFKUJ_clean_linker_0, # of connection points: 2
#     Edge 39, Type (0, 0), BuildingBlock: MIFKUJ_clean_linker_0, # of connection points: 2
#     Edge 40, Type (0, 0), BuildingBlock: MIFKUJ_clean_linker_0, # of connection points: 2
#     Edge 41, Type (0, 0), BuildingBlock: MIFKUJ_clean_linker_0, # of connection points: 2
#     Edge 42, Type (0, 0), BuildingBlock: MIFKUJ_clean_linker_0, # of connection points: 2
#     Edge 43, Type (0, 0), BuildingBlock: MIFKUJ_clean_linker_0, # of connection points: 2
#     Edge 44, Type (0, 0), BuildingBlock: MIFKUJ_clean_linker_0, # of connection points: 2
#     Edge 45, Type (0, 0), BuildingBlock: MIFKUJ_clean_linker_0, # of connection points: 2
#     Edge 46, Type (0, 0), BuildingBlock: MIFKUJ_clean_linker_0, # of connection points: 2
#     Edge 47, Type (0, 0), BuildingBlock: MIFKUJ_clean_linker_0, # of connection points: 2
# Relax obj value: 0.076
# Max RMSD: 0.103
# Mean RMSD: 0.103
data_MOF--net-atn--node1-TATPOV_clean_sbu_0--edge1-MIFKUJ_clean_linker_0
_symmetry_space_group_name_H-M    P1
_symmetry_Int_Tables_number       1
_symmetry_cell_setting            triclinic
loop_
_symmetry_equiv_pos_as_xyz
'x, y, z'
_cell_length_a     79.371467
_cell_length_b     79.416933
_cell_length_c     33.760902
_cell_angle_alpha  89.99078
_cell_angle_beta   89.982064
_cell_angle_gamma 89.992213
loop_
_atom_site_label
_atom_site_type_symbol
_atom_site_fract_x
_atom_site_fract_y
_atom_site_fract_z
_atom_type_partial_charge
Zn0 Zn 0.19734 0.34098 0.99573 0.0
Zn1 Zn 0.20713 0.37298 0.00181 0.0
O2 O 0.19278 0.37281 0.9508 0.0
O3 O 0.18607 0.34604 0.94429 0.0
O4 O 0.21361 0.39733 0.00788 0.0
O5 O 0.18321 0.34322 0.04428 0.0
O6 O 0.19317 0.3689 0.05243 0.0
C7 C 0.18527 0.36107 0.93204 0.0
C8 C 0.23337 0.34468 -0.00064 0.0
O9 O 0.22988 0.36035 -0.00091 0.0
O10 O 0.22164 0.33387 -0.00089 0.0
C11 C 0.21902 0.40618 0.97921 0.0
O12 O 0.22098 0.39914 0.94429 0.0
C13 C 0.18392 0.35674 0.06397 0.0
Zn14 Zn 0.65744 0.19655 0.00112 0.0
Zn15 Zn 0.62529 0.20341 0.0015 0.0
O16 O 0.62935 0.19528 0.94428 0.0
O17 O 0.65708 0.1946 0.94182 0.0
O18 O 0.60041 0.2081 0.00291 0.0
O19 O 0.65371 0.17588 0.0344 0.0
O20 O 0.62776 0.1848 0.04376 0.0
C21 C 0.64295 0.1933 0.92478 0.0
C22 C 0.65103 0.23013 0.02618 0.0
O23 O 0.63615 0.22642 0.01493 0.0
O24 O 0.66241 0.21896 0.02639 0.0
C25 C 0.5934 0.21851 0.97953 0.0
O26 O 0.6027 0.22668 0.95368 0.0
C27 C 0.63956 0.1744 0.05128 0.0
Zn28 Zn 0.81663 0.65187 0.99373 0.0
Zn29 Zn 0.80352 0.62072 0.99137 0.0
O30 O 0.81429 0.62348 0.93604 0.0
O31 O 0.82453 0.64928 0.93793 0.0
O32 O 0.79476 0.59686 0.99225 0.0
O33 O 0.83273 0.64511 0.03612 0.0
O34 O 0.82044 0.62022 0.038 0.0
C35 C 0.8222 0.63558 0.91963 0.0
C36 C 0.78058 0.65111 0.00603 0.0
O37 O 0.7824 0.63539 -0.00024 0.0
O38 O 0.79331 0.66073 0.00636 0.0
C39 C 0.79107 0.58826 0.96169 0.0
O40 O 0.79234 0.59521 0.9265 0.0
C41 C 0.83149 0.63051 0.05075 0.0
Zn42 Zn 0.34731 0.79986 0.01301 0.0
Zn43 Zn 0.37837 0.7912 0.01006 0.0
O44 O 0.37481 0.8019 0.95464 0.0
O45 O 0.34714 0.80385 0.95469 0.0
O46 O 0.40302 0.78521 0.01203 0.0
O47 O 0.35173 0.81924 0.04935 0.0
O48 O 0.37693 0.80814 0.05649 0.0
C49 C 0.36106 0.80521 0.93673 0.0
C50 C 0.35099 0.76529 0.02983 0.0
O51 O 0.36597 0.76838 0.01815 0.0
O52 O 0.3406 0.77724 0.03404 0.0
C53 C 0.41156 0.77882 0.98394 0.0
O54 O 0.40408 0.77529 0.95024 0.0
C55 C 0.36592 0.81906 0.06628 0.0
Zn56 Zn 0.18902 0.6493 -0.00305 0.0
Zn57 Zn 0.2013 0.61787 0.00088 0.0
O58 O 0.18917 0.62059 0.05459 0.0
O59 O 0.17956 0.6466 0.05132 0.0
O60 O 0.20973 0.59392 0.0002 0.0
O61 O 0.17399 0.64307 0.95208 0.0
O62 O 0.18549 0.6178 0.95221 0.0
C63 C 0.18107 0.63284 0.06985 0.0
C64 C 0.22527 0.64784 0.99077 0.0
O65 O 0.22289 0.63213 0.99619 0.0
O66 O 0.21279 0.65775 0.98853 0.0
C67 C 0.21211 0.58474 0.03054 0.0
O68 O 0.20949 0.59106 0.06597 0.0
C69 C 0.17513 0.62841 0.93785 0.0
Zn70 Zn 0.34927 0.19217 0.98368 0.0
Zn71 Zn 0.38126 0.20107 0.99366 0.0
O72 O 0.37521 0.18962 0.04655 0.0
O73 O 0.34814 0.18425 0.03979 0.0
O74 O 0.40567 0.20727 0.0003 0.0
O75 O 0.3561 0.17517 0.94324 0.0
O76 O 0.38219 0.18463 0.9463 0.0
C77 C 0.36145 0.1838 0.0604 0.0
C78 C 0.35443 0.22762 0.97358 0.0
O79 O 0.36936 0.22387 0.98432 0.0
O80 O 0.34355 0.21612 0.96904 0.0
C81 C 0.41299 0.21649 0.9748 0.0
O82 O 0.40425 0.22237 0.94477 0.0
C83 C 0.37123 0.17473 0.93159 0.0
Zn84 Zn 0.80935 0.3463 0.03684 0.0
Zn85 Zn 0.79881 0.37726 0.01949 0.0
O86 O 0.81134 0.38038 0.07268 0.0
O87 O 0.81947 0.35458 0.08717 0.0
O88 O 0.79185 0.40092 0.00529 0.0
O89 O 0.82424 0.34585 0.9895 0.0
O90 O 0.81447 0.37083 0.97281 0.0
C91 C 0.819 0.37011 0.0954 0.0
C92 C 0.77338 0.34839 0.02705 0.0
O93 O 0.77636 0.36403 0.02217 0.0
O94 O 0.78538 0.33822 0.03325 0.0
C95 C 0.78612 0.41107 0.0311 0.0
O96 O 0.78413 0.40583 0.06772 0.0
C97 C 0.82399 0.35822 0.96595 0.0
Zn98 Zn 0.65397 0.80774 0.98708 0.0
Zn99 Zn 0.62346 0.79391 7e-05 0.0
O100 O 0.62696 0.80874 0.0495 0.0
O101 O 0.65169 0.82044 0.03791 0.0
O102 O 0.59995 0.78433 0.00475 0.0
O103 O 0.64576 0.81924 0.9385 0.0
O104 O 0.62095 0.80759 0.94839 0.0
C105 C 0.63874 0.81879 0.05942 0.0
C106 C 0.65474 0.77144 0.99081 0.0
O107 O 0.63901 0.77305 -0.00234 0.0
O108 O 0.66378 0.78433 0.98475 0.0
C109 C 0.5901 0.78615 0.03416 0.0
O110 O 0.59551 0.79402 0.06592 0.0
C111 C 0.63058 0.81717 0.92831 0.0
Zn112 Zn 0.69351 0.84096 0.51295 0.0
Zn113 Zn 0.6994 0.87373 0.51648 0.0
O114 O 0.68946 0.87097 0.46064 0.0
O115 O 0.6863 0.84346 0.45655 0.0
O116 O 0.70321 0.89869 0.52107 0.0
O117 O 0.67539 0.84262 0.55346 0.0
O118 O 0.68178 0.86945 0.56053 0.0
C119 C 0.68497 0.85795 0.44127 0.0
C120 C 0.72814 0.84829 0.52827 0.0
O121 O 0.72318 0.86341 0.52323 0.0
O122 O 0.71762 0.83631 0.52741 0.0
C123 C 0.71233 0.90684 0.49679 0.0
O124 O 0.71987 0.89871 0.46789 0.0
C125 C 0.67291 0.85668 0.56999 0.0
Zn126 Zn 0.15952 0.70327 0.52519 0.0
Zn127 Zn 0.12665 0.70871 0.51471 0.0
O128 O 0.13279 0.69568 0.46397 0.0
O129 O 0.15999 0.69145 0.4728 0.0
O130 O 0.10153 0.7122 0.51211 0.0
O131 O 0.15545 0.68907 0.57279 0.0
O132 O 0.12836 0.69389 0.56481 0.0
C133 C 0.14677 0.6895 0.45234 0.0
C134 C 0.15118 0.7384 0.52454 0.0
O135 O 0.13639 0.73289 0.51757 0.0
O136 O 0.16322 0.7282 0.52988 0.0
C137 C 0.09299 0.71515 0.48107 0.0
O138 O 0.10073 0.71648 0.44681 0.0
C139 C 0.14036 0.68681 0.58355 0.0
Zn140 Zn 0.30599 0.15651 0.52102 0.0
Zn141 Zn 0.29494 0.12467 0.51365 0.0
O142 O 0.30717 0.1287 0.4606 0.0
O143 O 0.3165 0.15472 0.46735 0.0
O144 O 0.28742 0.10039 0.51231 0.0
O145 O 0.32047 0.15027 0.56679 0.0
O146 O 0.31112 0.12426 0.56162 0.0
C147 C 0.3154 0.14128 0.4474 0.0
C148 C 0.26991 0.1536 0.52736 0.0
O149 O 0.2728 0.13805 0.52086 0.0
O150 O 0.28199 0.16398 0.52921 0.0
C151 C 0.28698 0.09108 0.4817 0.0
O152 O 0.29103 0.09747 0.44709 0.0
C153 C 0.3205 0.13514 0.57845 0.0
Zn154 Zn 0.84106 0.309 0.50738 0.0
Zn155 Zn 0.8728 0.299 0.50255 0.0
O156 O 0.87161 0.31812 0.46119 0.0
O157 O 0.8462 0.32843 0.47146 0.0
O158 O 0.8972 0.29205 0.50249 0.0
O159 O 0.84285 0.3125 0.56569 0.0
O160 O 0.86995 0.30711 0.56011 0.0
C161 C 0.86034 0.32917 0.45424 0.0
C162 C 0.8441 0.27459 0.48246 0.0
O163 O 0.85975 0.27721 0.48852 0.0
O164 O 0.83365 0.28651 0.48652 0.0
C165 C 0.90629 0.29099 0.4716 0.0
O166 O 0.89954 0.29408 0.43682 0.0
C167 C 0.85735 0.31156 0.58103 0.0
Zn168 Zn 0.6977 0.15179 0.45955 0.0
Zn169 Zn 0.70558 0.12069 0.47691 0.0
O170 O 0.69424 0.12907 0.52843 0.0
O171 O 0.69147 0.15617 0.51617 0.0
O172 O 0.71142 0.09635 0.48707 0.0
O173 O 0.67991 0.14434 0.42145 0.0
O174 O 0.68954 0.11858 0.42894 0.0
C175 C 0.69009 0.14383 0.53965 0.0
C176 C 0.73267 0.14562 0.44923 0.0
O177 O 0.72876 0.13168 0.46557 0.0
O178 O 0.7213 0.15617 0.44063 0.0
C179 C 0.70271 0.0869 0.50956 0.0
O180 O 0.68972 0.09327 0.52844 0.0
C181 C 0.67968 0.12896 0.41184 0.0
Zn182 Zn 0.84562 0.70482 0.46044 0.0
Zn183 Zn 0.87833 0.70959 0.47503 0.0
O184 O 0.87107 0.69624 0.52436 0.0
O185 O 0.84383 0.6934 0.51342 0.0
O186 O 0.90339 0.7132 0.47988 0.0
O187 O 0.8505 0.69021 0.41399 0.0
O188 O 0.87744 0.69516 0.42409 0.0
C189 C 0.85665 0.69076 0.53488 0.0
C190 C 0.85441 0.73964 0.46309 0.0
O191 O 0.86873 0.73381 0.47324 0.0
O192 O 0.84246 0.7298 0.45418 0.0
C193 C 0.91222 0.71226 0.51121 0.0
O194 O 0.90484 0.70895 0.54516 0.0
C195 C 0.86574 0.68803 0.40442 0.0
Zn196 Zn 0.30072 0.84571 0.48881 0.0
Zn197 Zn 0.29482 0.87839 0.49325 0.0
O198 O 0.30592 0.87361 0.54734 0.0
O199 O 0.30746 0.8459 0.54609 0.0
O200 O 0.29063 0.90336 0.49293 0.0
O201 O 0.31823 0.84917 0.44671 0.0
O202 O 0.31093 0.87588 0.44584 0.0
C203 C 0.3095 0.8597 0.56417 0.0
C204 C 0.26596 0.85347 0.47738 0.0
O205 O 0.27095 0.86825 0.48633 0.0
O206 O 0.27654 0.84161 0.47414 0.0
C207 C 0.28444 0.91158 0.52174 0.0
O208 O 0.28037 0.90359 0.55445 0.0
C209 C 0.31968 0.86377 0.43209 0.0
Zn210 Zn 0.15058 0.3076 0.5233 0.0
Zn211 Zn 0.11889 0.29723 0.51534 0.0
O212 O 0.11755 0.31354 0.5631 0.0
O213 O 0.14322 0.32417 0.56408 0.0
O214 O 0.09472 0.29057 0.50624 0.0
O215 O 0.1514 0.3157 0.46744 0.0
O216 O 0.12462 0.30885 0.46251 0.0
C217 C 0.12827 0.32393 0.57697 0.0
C218 C 0.14668 0.27185 0.53495 0.0
O219 O 0.13143 0.27479 0.52525 0.0
O220 O 0.15711 0.28386 0.53779 0.0
C221 C 0.08465 0.28655 0.53395 0.0
O222 O 0.09024 0.28604 0.57056 0.0
C223 C 0.13787 0.31537 0.44772 0.0
H224 H 0.21347 0.56026 0.08758 0.0
H225 H 0.21822 0.53013 0.07799 0.0
H226 H 0.22554 0.53838 0.95283 0.0
H227 H 0.22046 0.56844 0.96203 0.0
H228 H 0.20432 0.51354 0.96427 0.0
H229 H 0.25864 0.52791 0.01505 0.0
H230 H 0.27896 0.54035 0.06186 0.0
H231 H 0.26062 0.5081 0.1544 0.0
H232 H 0.24002 0.49561 0.10827 0.0
H233 H 0.22776 0.4294 0.92289 0.0
H234 H 0.23013 0.45991 0.93107 0.0
H235 H 0.21885 0.45488 0.05549 0.0
H236 H 0.21661 0.42438 0.04772 0.0
H237 H 0.2438 0.47815 0.04203 0.0
H238 H 0.18827 0.46547 0.99213 0.0
H239 H 0.16792 0.45305 0.9453 0.0
H240 H 0.18891 0.48249 0.85069 0.0
H241 H 0.20955 0.49491 0.8969 0.0
C242 C 0.21628 0.5557 0.05808 0.0
C243 C 0.21651 0.56675 0.02555 0.0
C244 C 0.21908 0.53846 0.05266 0.0
C245 C 0.22236 0.53199 0.01471 0.0
C246 C 0.22301 0.54308 0.98237 0.0
C247 C 0.22013 0.56027 0.98772 0.0
C248 C 0.22399 0.51356 0.00828 0.0
C249 C 0.21319 0.50587 0.98077 0.0
C250 C 0.23528 0.50347 0.03044 0.0
C251 C 0.24768 0.51093 0.05826 0.0
C252 C 0.25885 0.52356 0.04546 0.0
C253 C 0.27043 0.5306 0.07186 0.0
C254 C 0.27106 0.52505 0.1111 0.0
C255 C 0.26011 0.5124 0.124 0.0
C256 C 0.24849 0.50532 0.09773 0.0
C257 C 0.22595 0.43475 0.95208 0.0
C258 C 0.22184 0.42447 0.98458 0.0
C259 C 0.22728 0.4522 0.95668 0.0
C260 C 0.22446 0.45967 0.9938 0.0
C261 C 0.22105 0.44937 0.02659 0.0
C262 C 0.2197 0.43194 0.02203 0.0
C263 C 0.22415 0.47824 -0.00189 0.0
C264 C 0.2351 0.48591 0.02529 0.0
C265 C 0.21302 0.48836 0.97563 0.0
C266 C 0.20057 0.48098 0.94787 0.0
C267 C 0.18863 0.46919 0.96128 0.0
C268 C 0.17703 0.46217 0.93486 0.0
C269 C 0.17716 0.46694 0.89502 0.0
C270 C 0.18885 0.47878 0.88155 0.0
C271 C 0.20049 0.48583 0.90783 0.0
H272 H 0.16817 0.46149 0.87462 0.0
H273 H 0.28004 0.53052 0.1315 0.0
H274 H 0.4352 0.20377 0.02901 0.0
H275 H 0.4657 0.20747 0.03068 0.0
H276 H 0.4629 0.24015 0.92878 0.0
H277 H 0.43236 0.23622 0.92639 0.0
H278 H 0.48701 0.21762 0.91923 0.0
H279 H 0.47148 0.25578 0.02203 0.0
H280 H 0.4572 0.26508 0.0831 0.0
H281 H 0.48408 0.22779 0.15007 0.0
H282 H 0.49836 0.2181 0.08929 0.0
H283 H 0.57407 0.23858 0.93167 0.0
H284 H 0.54337 0.24142 0.93196 0.0
H285 H 0.5402 0.20654 0.02961 0.0
H286 H 0.57083 0.20376 0.02986 0.0
H287 H 0.51914 0.23314 0.03986 0.0
H288 H 0.53261 0.19361 0.93571 0.0
H289 H 0.54678 0.18429 0.87448 0.0
H290 H 0.52354 0.2247 0.80999 0.0
H291 H 0.5094 0.23439 0.871 0.0
C292 C 0.44103 0.21187 0.00714 0.0
C293 C 0.43134 0.21968 0.97752 0.0
C294 C 0.45849 0.21405 0.00827 0.0
C295 C 0.46659 0.22424 0.9801 0.0
C296 C 0.45692 0.23225 0.95084 0.0
C297 C 0.43945 0.23001 0.94957 0.0
C298 C 0.48524 0.22576 0.97999 0.0
C299 C 0.49401 0.22134 0.94541 0.0
C300 C 0.49441 0.2303 0.01434 0.0
C301 C 0.48589 0.23613 0.05101 0.0
C302 C 0.47425 0.24948 0.04972 0.0
C303 C 0.46618 0.25483 0.0843 0.0
C304 C 0.46971 0.24701 0.12042 0.0
C305 C 0.48135 0.23383 0.12206 0.0
C306 C 0.48946 0.22842 0.08756 0.0
C307 C 0.56685 0.23158 0.95335 0.0
C308 C 0.5749 0.22086 0.98058 0.0
C309 C 0.54931 0.23319 0.9534 0.0
C310 C 0.5395 0.22405 0.98054 0.0
C311 C 0.54753 0.2137 0.00841 0.0
C312 C 0.56504 0.21208 0.00838 0.0
C313 C 0.52083 0.22482 0.97929 0.0
C314 C 0.51208 0.22963 0.01361 0.0
C315 C 0.51167 0.22068 0.94469 0.0
C316 C 0.52011 0.21483 0.90799 0.0
C317 C 0.53063 0.20058 0.90853 0.0
C318 C 0.53863 0.19522 0.87386 0.0
C319 C 0.5361 0.20393 0.83839 0.0
C320 C 0.52552 0.21799 0.8375 0.0
C321 C 0.5175 0.22341 0.8721 0.0
H322 H 0.54231 0.19976 0.81158 0.0
H323 H 0.46344 0.25117 0.14716 0.0
H324 H 0.77825 0.43701 0.08101 0.0
H325 H 0.77546 0.4668 0.06447 0.0
H326 H 0.78389 0.45535 0.94111 0.0
H327 H 0.78712 0.42555 0.95758 0.0
H328 H 0.8029 0.48057 0.96243 0.0
H329 H 0.74459 0.46767 0.9765 0.0
H330 H 0.71909 0.45634 0.00858 0.0
H331 H 0.72587 0.49025 0.10632 0.0
H332 H 0.75156 0.50164 0.07509 0.0
H333 H 0.78751 0.56486 0.90271 0.0
H334 H 0.78304 0.53454 0.91021 0.0
H335 H 0.78059 0.54043 0.03706 0.0
H336 H 0.78501 0.57073 0.02991 0.0
H337 H 0.75669 0.51786 0.00833 0.0
H338 H 0.8165 0.52849 0.99604 0.0
H339 H 0.84187 0.53977 0.96328 0.0
H340 H 0.83158 0.5097 0.86039 0.0
H341 H 0.806 0.49841 0.89238 0.0
C342 C 0.77932 0.44079 0.05028 0.0
C343 C 0.78296 0.4289 0.02063 0.0
C344 C 0.77763 0.45784 0.04083 0.0
C345 C 0.7793 0.46332 0.00146 0.0
C346 C 0.78255 0.45142 0.97168 0.0
C347 C 0.78436 0.43438 0.98115 0.0
C348 C 0.7788 0.48158 0.99183 0.0
C349 C 0.7926 0.48863 0.97177 0.0
C350 C 0.76555 0.49221 0.00467 0.0
C351 C 0.75009 0.48541 0.02357 0.0
C352 C 0.74072 0.47263 0.00498 0.0
C353 C 0.72622 0.46621 0.02299 0.0
C354 C 0.72089 0.47254 0.0595 0.0
C355 C 0.73003 0.48534 0.07804 0.0
C356 C 0.74455 0.4918 0.06017 0.0
C357 C 0.78583 0.55975 0.93219 0.0
C358 C 0.78678 0.5702 0.96575 0.0
C359 C 0.78331 0.54241 0.9364 0.0
C360 C 0.78166 0.53523 0.97422 0.0
C361 C 0.78184 0.54572 0.00763 0.0
C362 C 0.78445 0.56303 0.00347 0.0
C363 C 0.7808 0.51671 0.97926 0.0
C364 C 0.76681 0.50967 -0.00144 0.0
C365 C 0.79383 0.50604 0.96557 0.0
C366 C 0.80924 0.51276 0.94641 0.0
C367 C 0.81957 0.52439 0.9663 0.0
C368 C 0.834 0.53077 0.9479 0.0
C369 C 0.83831 0.5255 0.90973 0.0
C370 C 0.82821 0.5138 0.88993 0.0
C371 C 0.81375 0.5074 0.90818 0.0
H372 H 0.84949 0.53045 0.89553 0.0
H373 H 0.70965 0.46756 0.07339 0.0
H374 H 0.57465 0.77062 0.9716 0.0
H375 H 0.54455 0.76542 0.96278 0.0
H376 H 0.53474 0.78557 0.07915 0.0
H377 H 0.56487 0.79063 0.08848 0.0
H378 H 0.51511 0.75808 0.06349 0.0
H379 H 0.53019 0.81008 -0.00172 0.0
H380 H 0.54654 0.82763 0.95187 0.0
H381 H 0.52985 0.79712 0.85449 0.0
H382 H 0.51357 0.77924 0.90045 0.0
H383 H 0.43055 0.78499 0.0498 0.0
H384 H 0.46096 0.78222 0.05716 0.0
H385 H 0.46474 0.76391 0.9372 0.0
H386 H 0.43421 0.7669 0.92931 0.0
H387 H 0.48771 0.78774 0.95127 0.0
H388 H 0.47029 0.7373 0.01594 0.0
H389 H 0.45397 0.71982 0.06253 0.0
H390 H 0.47484 0.7471 0.16072 0.0
H391 H 0.49111 0.76492 0.11469 0.0
C392 C 0.56613 0.77376 0.99556 0.0
C393 C 0.57216 0.78122 0.03061 0.0
C394 C 0.54892 0.77082 0.99039 0.0
C395 C 0.53738 0.77536 0.02004 0.0
C396 C 0.54343 0.78202 0.05583 0.0
C397 C 0.56066 0.78494 0.06107 0.0
C398 C 0.51898 0.77413 0.01292 0.0
C399 C 0.50907 0.76465 0.03915 0.0
C400 C 0.51119 0.78237 0.98055 0.0
C401 C 0.52082 0.79322 0.95284 0.0
C402 C 0.5301 0.80704 0.96701 0.0
C403 C 0.53934 0.81706 0.94078 0.0
C404 C 0.53928 0.81346 0.90027 0.0
C405 C 0.52992 0.79987 0.88588 0.0
C406 C 0.52067 0.7898 0.912 0.0
C407 C 0.43779 0.78025 0.025 0.0
C408 C 0.42992 0.77618 0.98891 0.0
C409 C 0.4552 0.77857 0.02937 0.0
C410 C 0.46513 0.77267 -0.0021 0.0
C411 C 0.45732 0.76844 0.96192 0.0
C412 C 0.43986 0.77013 0.95749 0.0
C413 C 0.48374 0.7718 0.00208 0.0
C414 C 0.49371 0.78096 0.97534 0.0
C415 C 0.49156 0.76326 0.03399 0.0
C416 C 0.48183 0.75254 0.06181 0.0
C417 C 0.4713 0.73966 0.04745 0.0
C418 C 0.46208 0.72967 0.07376 0.0
C419 C 0.46334 0.73237 0.11455 0.0
C420 C 0.47387 0.74504 0.12911 0.0
C421 C 0.48311 0.75507 0.10292 0.0
H422 H 0.45619 0.72462 0.13487 0.0
H423 H 0.54645 0.82123 0.88001 0.0
H424 H 0.72502 0.06879 0.46483 0.0
H425 H 0.72926 0.0383 0.4649 0.0
H426 H 0.6929 0.03315 0.55907 0.0
H427 H 0.68854 0.06366 0.55921 0.0
H428 H 0.72161 0.01284 0.56937 0.0
H429 H 0.68058 0.02573 0.46845 0.0
H430 H 0.67001 0.0404 0.40907 0.0
H431 H 0.71084 0.02019 0.34046 0.0
H432 H 0.7218 0.00559 0.39964 0.0
H433 H 0.69779 0.92732 0.55215 0.0
H434 H 0.6991 0.95796 0.55601 0.0
H435 H 0.73154 0.95907 0.45349 0.0
H436 H 0.73008 0.92834 0.44901 0.0
H437 H 0.70694 0.98167 0.44674 0.0
H438 H 0.74709 0.96716 0.54604 0.0
H439 H 0.75801 0.95262 0.60522 0.0
H440 H 0.71969 0.97577 0.67662 0.0
H441 H 0.70838 0.99027 0.61773 0.0
C442 C 0.71804 0.06121 0.48584 0.0
C443 C 0.70634 0.06864 0.51183 0.0
C444 C 0.72045 0.04378 0.48576 0.0
C445 C 0.71127 0.03348 0.51172 0.0
C446 C 0.70009 0.0409 0.53878 0.0
C447 C 0.69757 0.05832 0.53869 0.0
C448 C 0.7127 0.01491 0.50937 0.0
C449 C 0.71827 0.00598 0.54273 0.0
C450 C 0.70875 0.00605 0.47422 0.0
C451 C 0.70212 0.01473 0.43856 0.0
C452 C 0.68739 0.02453 0.44078 0.0
C453 C 0.68131 0.03282 0.40715 0.0
C454 C 0.68978 0.03127 0.37104 0.0
C455 C 0.70431 0.0214 0.36847 0.0
C456 C 0.71046 0.01311 0.40204 0.0
C457 C 0.7053 0.93404 0.53053 0.0
C458 C 0.71383 0.92537 0.50023 0.0
C459 C 0.70611 0.95158 0.53293 0.0
C460 C 0.71557 0.96081 0.5053 0.0
C461 C 0.7242 0.95219 0.47518 0.0
C462 C 0.72338 0.93463 0.47271 0.0
C463 C 0.71578 0.97949 0.50688 0.0
C464 C 0.71046 0.98848 0.47334 0.0
C465 C 0.72003 0.98838 0.54184 0.0
C466 C 0.7268 0.97969 0.57737 0.0
C467 C 0.74091 0.96905 0.57429 0.0
C468 C 0.74718 0.96083 0.6078 0.0
C469 C 0.73953 0.96324 0.64464 0.0
C470 C 0.7256 0.9739 0.64805 0.0
C471 C 0.71926 0.98214 0.61462 0.0
H472 H 0.74441 0.95687 0.67055 0.0
H473 H 0.68505 0.03769 0.34504 0.0
H474 H 0.93108 0.71921 0.44551 0.0
H475 H 0.96168 0.72108 0.44055 0.0
H476 H 0.96611 0.71125 0.56577 0.0
H477 H 0.93538 0.70956 0.57117 0.0
H478 H 0.9874 0.73619 0.54194 0.0
H479 H 0.97328 0.68021 0.49955 0.0
H480 H 0.95825 0.65891 0.45988 0.0
H481 H 0.97881 0.67994 0.35312 0.0
H482 H 0.99379 0.70153 0.39214 0.0
H483 H 0.07338 0.7124 0.54726 0.0
H484 H 0.04274 0.7135 0.55157 0.0
H485 H 0.0397 0.72202 0.42557 0.0
H486 H 0.07046 0.72067 0.42085 0.0
H487 H 0.01762 0.69844 0.4488 0.0
H488 H 0.03246 0.75398 0.49138 0.0
H489 H 0.04746 0.77526 0.53114 0.0
H490 H 0.02566 0.75513 0.63749 0.0
H491 H 0.01069 0.73357 0.59841 0.0
C492 C 0.93852 0.7175 0.4721 0.0
C493 C 0.93077 0.71412 0.50874 0.0
C494 C 0.95604 0.71852 0.46915 0.0
C495 C 0.96619 0.71607 0.50267 0.0
C496 C 0.9585 0.71314 0.5395 0.0
C497 C 0.94094 0.71213 0.54251 0.0
C498 C 0.98482 0.71629 0.49907 0.0
C499 C 0.99404 0.7278 0.52195 0.0
C500 C 0.99344 0.70562 0.47225 0.0
C501 C 0.98452 0.69259 0.44874 0.0
C502 C 0.97449 0.68038 0.46759 0.0
C503 C 0.966 0.66824 0.44523 0.0
C504 C 0.96754 0.6681 0.404 0.0
C505 C 0.97761 0.68008 0.38506 0.0
C506 C 0.98612 0.69226 0.40728 0.0
C507 C 0.06623 0.7146 0.52043 0.0
C508 C 0.07439 0.71647 0.48368 0.0
C509 C 0.04869 0.71531 0.523 0.0
C510 C 0.03892 0.71804 0.48898 0.0
C511 C 0.047 0.71994 0.45223 0.0
C512 C 0.06458 0.71921 0.4496 0.0
C513 C 0.02024 0.71834 0.49169 0.0
C514 C 0.011 0.70689 0.46867 0.0
C515 C 0.01162 0.72907 0.51839 0.0
C516 C 0.02057 0.74206 0.54198 0.0
C517 C 0.03096 0.754 0.52327 0.0
C518 C 0.03944 0.76613 0.54568 0.0
C519 C 0.03755 0.76652 0.58682 0.0
C520 C 0.02713 0.7548 0.60562 0.0
C521 C 0.01863 0.74263 0.58335 0.0
H522 H 0.04412 0.77592 0.60412 0.0
H523 H 0.96095 0.65869 0.38674 0.0
H524 H 0.28877 0.06672 0.42448 0.0
H525 H 0.2851 0.0364 0.43288 0.0
H526 H 0.27314 0.04387 0.55631 0.0
H527 H 0.27711 0.07418 0.54836 0.0
H528 H 0.29569 0.01979 0.54854 0.0
H529 H 0.24272 0.03229 0.48851 0.0
H530 H 0.22337 0.04421 0.43874 0.0
H531 H 0.24593 0.01347 0.34854 0.0
H532 H 0.26558 0.00153 0.39767 0.0
H533 H 0.2742 0.93367 0.5793 0.0
H534 H 0.27159 0.96431 0.57389 0.0
H535 H 0.2871 0.96183 0.45158 0.0
H536 H 0.28963 0.93128 0.45657 0.0
H537 H 0.26061 0.98343 0.46214 0.0
H538 H 0.31489 0.9728 0.52174 0.0
H539 H 0.33417 0.9609 0.57172 0.0
H540 H 0.3086 0.98836 0.66334 0.0
H541 H 0.28901 0.00025 0.61393 0.0
C542 C 0.28517 0.06195 0.45332 0.0
C543 C 0.28329 0.07288 0.48577 0.0
C544 C 0.283 0.04459 0.45804 0.0
C545 C 0.27872 0.03785 0.49518 0.0
C546 C 0.27646 0.04878 0.5274 0.0
C547 C 0.2787 0.06612 0.52276 0.0
C548 C 0.2776 0.01934 0.50093 0.0
C549 C 0.28776 0.01189 0.53012 0.0
C550 C 0.26753 0.00897 0.4764 0.0
C551 C 0.25572 0.01612 0.44674 0.0
C552 C 0.24365 0.02817 0.458 0.0
C553 C 0.23261 0.03491 0.42991 0.0
C554 C 0.23344 0.02963 0.39049 0.0
C555 C 0.2453 0.01757 0.37909 0.0
C556 C 0.25639 0.01079 0.40705 0.0
C557 C 0.27698 0.93964 0.5512 0.0
C558 C 0.28222 0.93004 0.51845 0.0
C559 C 0.27551 0.95714 0.54819 0.0
C560 C 0.2793 0.96534 0.51241 0.0
C561 C 0.28412 0.95575 0.47944 0.0
C562 C 0.28563 0.93829 0.48244 0.0
C563 C 0.27878 0.98396 0.50948 0.0
C564 C 0.26837 0.9914 0.48079 0.0
C565 C 0.28858 0.99435 0.53452 0.0
C566 C 0.30038 0.98726 0.56421 0.0
C567 C 0.3133 0.97619 0.55259 0.0
C568 C 0.32429 0.96947 0.5808 0.0
C569 C 0.32258 0.97383 0.6207 0.0
C570 C 0.30989 0.98496 0.63244 0.0
C571 C 0.29885 0.9917 0.60434 0.0
H572 H 0.33111 0.96862 0.6425 0.0
H573 H 0.22488 0.03487 0.36879 0.0
H574 H 0.0592 0.2798 0.58639 0.0
H575 H 0.02909 0.27751 0.5722 0.0
H576 H 0.03905 0.28473 0.44772 0.0
H577 H 0.06913 0.28726 0.46168 0.0
H578 H 0.01436 0.3049 0.47218 0.0
H579 H 0.02712 0.24627 0.48374 0.0
H580 H 0.0386 0.2207 0.51513 0.0
H581 H 0.00548 0.22751 0.61442 0.0
H582 H 0.99395 0.25327 0.58388 0.0
H583 H 0.93002 0.29015 0.41264 0.0
H584 H 0.96046 0.28642 0.41993 0.0
H585 H 0.95437 0.28046 0.54611 0.0
H586 H 0.92396 0.28397 0.5391 0.0
H587 H 0.97728 0.25834 0.51692 0.0
H588 H 0.96622 0.31789 0.50786 0.0
H589 H 0.95482 0.34368 0.47722 0.0
H590 H 0.98506 0.33513 0.37367 0.0
H591 H 0.99647 0.30915 0.40351 0.0
C592 C 0.05501 0.28073 0.55594 0.0
C593 C 0.06658 0.28377 0.5252 0.0
C594 C 0.03779 0.27934 0.54785 0.0
C595 C 0.03182 0.28084 0.50884 0.0
C596 C 0.04337 0.28354 0.47803 0.0
C597 C 0.06058 0.28495 0.48608 0.0
C598 C 0.01345 0.28059 0.50047 0.0
C599 C 0.00631 0.29456 0.48131 0.0
C600 C 0.00288 0.2673 0.51321 0.0
C601 C 0.00977 0.25179 0.53166 0.0
C602 C 0.02237 0.2424 0.51242 0.0
C603 C 0.02888 0.22785 0.53003 0.0
C604 C 0.0228 0.2225 0.56679 0.0
C605 C 0.01018 0.23167 0.58596 0.0
C606 C 0.00364 0.24624 0.56849 0.0
C607 C 0.93513 0.2879 0.4419 0.0
C608 C 0.92456 0.2875 0.47532 0.0
C609 C 0.95254 0.28582 0.44602 0.0
C610 C 0.9597 0.28338 0.48364 0.0
C611 C 0.94912 0.28235 0.51683 0.0
C612 C 0.93173 0.28443 0.51275 0.0
C613 C 0.97825 0.28266 0.48878 0.0
C614 C 0.9854 0.26857 0.50744 0.0
C615 C 0.98886 0.29585 0.47565 0.0
C616 C 0.98205 0.31149 0.45772 0.0
C617 C 0.97033 0.32144 0.47842 0.0
C618 C 0.96388 0.3361 0.46123 0.0
C619 C 0.96917 0.34101 0.42347 0.0
C620 C 0.98095 0.3313 0.40288 0.0
C621 C 0.98742 0.31661 0.41992 0.0
H622 H 0.96417 0.35237 0.41021 0.0
H623 H 0.02785 0.21124 0.58037 0.0
H624 H 0.24463 0.31435 0.02469 0.0
H625 H 0.27314 0.30324 0.02159 0.0
H626 H 0.29076 0.35007 0.97187 0.0
H627 H 0.26193 0.36148 0.97526 0.0
H628 H 0.30081 0.32184 0.92877 0.0
H629 H 0.30512 0.34075 0.05995 0.0
H630 H 0.29624 0.34626 0.1287 0.0
H631 H 0.29305 0.29311 0.15076 0.0
H632 H 0.30166 0.28725 0.08199 0.0
H633 H 0.3691 0.25579 0.0057 0.0
H634 H 0.35716 0.28432 0.00749 0.0
H635 H 0.31578 0.26777 0.93441 0.0
H636 H 0.32752 0.2395 0.93254 0.0
H637 H 0.32753 0.29154 0.04092 0.0
H638 H 0.30007 0.29824 0.8802 0.0
H639 H 0.3096 0.29342 0.81167 0.0
H640 H 0.36116 0.29747 0.84887 0.0
H641 H 0.35197 0.30259 0.91755 0.0
C642 C 0.25456 0.3224 0.01346 0.0
C643 C 0.25103 0.33876 2e-05 0.0
C644 C 0.2709 0.31607 0.01201 0.0
C645 C 0.2841 0.32589 -0.00311 0.0
C646 C 0.28075 0.34236 0.98392 0.0
C647 C 0.26432 0.34884 0.98592 0.0
C648 C 0.3009 0.31802 0.99187 0.0
C649 C 0.3069 0.31544 0.95328 0.0
C650 C 0.30918 0.3102 0.02408 0.0
C651 C 0.30406 0.31357 0.06569 0.0
C652 C 0.30245 0.33023 0.07938 0.0
C653 C 0.29746 0.33341 0.11838 0.0
C654 C 0.29409 0.32004 0.14408 0.0
C655 C 0.2957 0.30346 0.13083 0.0
C656 C 0.30068 0.3002 0.09185 0.0
C657 C 0.35769 0.25839 0.98919 0.0
C658 C 0.34915 0.24538 0.96927 0.0
C659 C 0.35089 0.27467 0.9903 0.0
C660 C 0.33565 0.27823 0.97085 0.0
C661 C 0.32769 0.26545 0.94907 0.0
C662 C 0.33435 0.24922 0.94831 0.0
C663 C 0.32656 0.29432 0.97749 0.0
C664 C 0.32195 0.29841 0.01644 0.0
C665 C 0.31972 0.30367 0.94563 0.0
C666 C 0.3253 0.30079 0.90415 0.0
C667 C 0.31344 0.29825 0.87377 0.0
C668 C 0.31879 0.29542 0.83487 0.0
C669 C 0.33597 0.29512 0.82592 0.0
C670 C 0.34785 0.29767 0.85585 0.0
C671 C 0.34258 0.30051 0.89479 0.0
H672 H 0.34008 0.29292 0.79579 0.0
H673 H 0.29022 0.32254 0.17426 0.0
H674 H 0.74332 0.36482 0.04076 0.0
H675 H 0.7149 0.35226 0.04063 0.0
H676 H 0.73626 0.30439 0.00718 0.0
H677 H 0.76434 0.31661 0.00784 0.0
H678 H 0.70683 0.31281 0.96446 0.0
H679 H 0.72903 0.31155 0.10113 0.0
H680 H 0.73896 0.32558 0.16201 0.0
H681 H 0.69237 0.35288 0.16994 0.0
H682 H 0.68226 0.33912 0.10878 0.0
H683 H 0.67616 0.24052 0.07467 0.0
H684 H 0.68853 0.26855 0.07784 0.0
H685 H 0.64965 0.28749 0.00046 0.0
H686 H 0.63707 0.25925 -0.00265 0.0
H687 H 0.68024 0.3019 0.09502 0.0
H688 H 0.67133 0.31062 0.93052 0.0
H689 H 0.66336 0.29452 0.87078 0.0
H690 H 0.68576 0.24995 0.92003 0.0
H691 H 0.69401 0.26586 0.97975 0.0
C692 C 0.74186 0.35167 0.03302 0.0
C693 C 0.75604 0.34165 0.02462 0.0
C694 C 0.72567 0.34454 0.03295 0.0
C695 C 0.72352 0.32742 0.02376 0.0
C696 C 0.73763 0.31764 0.01408 0.0
C697 C 0.7537 0.32463 0.01478 0.0
C698 C 0.70695 0.31894 0.0266 0.0
C699 C 0.70067 0.31083 0.99279 0.0
C700 C 0.69894 0.31633 0.06351 0.0
C701 C 0.705 0.3245 0.10021 0.0
C702 C 0.72098 0.32065 0.11571 0.0
C703 C 0.72662 0.32853 0.15028 0.0
C704 C 0.71633 0.34016 0.16975 0.0
C705 C 0.70034 0.3439 0.15476 0.0
C706 C 0.69465 0.33607 0.12017 0.0
C707 C 0.66994 0.25075 0.05924 0.0
C708 C 0.65581 0.24768 0.0353 0.0
C709 C 0.67695 0.26681 0.06133 0.0
C710 C 0.67011 0.28007 0.03908 0.0
C711 C 0.65513 0.2774 0.01779 0.0
C712 C 0.64796 0.26128 0.01606 0.0
C713 C 0.68049 0.29537 0.03307 0.0
C714 C 0.6857 0.30466 0.06627 0.0
C715 C 0.68767 0.29896 0.99563 0.0
C716 C 0.68308 0.28936 0.95965 0.0
C717 C 0.67457 0.29739 0.92847 0.0
C718 C 0.67001 0.28831 0.89466 0.0
C719 C 0.674 0.27121 0.89168 0.0
C720 C 0.68263 0.26318 0.92242 0.0
C721 C 0.68725 0.27222 0.95623 0.0
H722 H 0.67043 0.26419 0.86551 0.0
H723 H 0.72071 0.34624 0.19652 0.0
H724 H 0.77275 0.68157 0.038 0.0
H725 H 0.74533 0.69534 0.03975 0.0
H726 H 0.72248 0.65161 0.98639 0.0
H727 H 0.75006 0.6376 0.98469 0.0
H728 H 0.71465 0.68084 0.94724 0.0
H729 H 0.71173 0.66088 0.07878 0.0
H730 H 0.72172 0.65469 0.14636 0.0
H731 H 0.72778 0.70754 0.16892 0.0
H732 H 0.71806 0.71406 0.10129 0.0
H733 H 0.64355 0.74219 0.02556 0.0
H734 H 0.65874 0.71524 0.02988 0.0
H735 H 0.69928 0.7361 0.96038 0.0
H736 H 0.6844 0.76286 0.95625 0.0
H737 H 0.69055 0.71046 0.06364 0.0
H738 H 0.71516 0.70621 0.90115 0.0
H739 H 0.70474 0.71208 0.83377 0.0
H740 H 0.65374 0.70591 0.87364 0.0
H741 H 0.66384 0.69974 0.94114 0.0
C742 C 0.76187 0.67475 0.02714 0.0
C743 C 0.76359 0.65852 0.01103 0.0
C744 C 0.74617 0.6826 0.02842 0.0
C745 C 0.73184 0.67445 0.01348 0.0
C746 C 0.73338 0.65807 -0.00173 0.0
C747 C 0.74912 0.65008 -0.00259 0.0
C748 C 0.71575 0.68388 0.01056 0.0
C749 C 0.70919 0.68712 0.97273 0.0
C750 C 0.7084 0.69175 0.04397 0.0
C751 C 0.7142 0.68795 0.08484 0.0
C752 C 0.71529 0.67118 0.09805 0.0
C753 C 0.72089 0.66762 0.1364 0.0
C754 C 0.72539 0.68071 0.16191 0.0
C755 C 0.72427 0.69741 0.14914 0.0
C756 C 0.71868 0.70105 0.11081 0.0
C757 C 0.65559 0.74091 0.01077 0.0
C758 C 0.66282 0.75465 0.9907 0.0
C759 C 0.66425 0.72555 0.01336 0.0
C760 C 0.68006 0.72365 0.99517 0.0
C761 C 0.68701 0.73722 0.97419 0.0
C762 C 0.67852 0.75255 0.97207 0.0
C763 C 0.69013 0.70808 0.00014 0.0
C764 C 0.69564 0.70378 0.03829 0.0
C765 C 0.69644 0.69913 0.96707 0.0
C766 C 0.69028 0.70257 0.92631 0.0
C767 C 0.70173 0.70598 0.89552 0.0
C768 C 0.69587 0.70939 0.85729 0.0
C769 C 0.67859 0.70939 0.84944 0.0
C770 C 0.66712 0.70595 0.87978 0.0
C771 C 0.67291 0.70251 0.91804 0.0
H772 H 0.67408 0.71206 0.81984 0.0
H773 H 0.72973 0.67792 0.19158 0.0
H774 H 0.25491 0.63279 0.01363 0.0
H775 H 0.2827 0.64617 0.01914 0.0
H776 H 0.26218 0.6922 0.97142 0.0
H777 H 0.23461 0.67901 0.96567 0.0
H778 H 0.29351 0.68635 0.94285 0.0
H779 H 0.26445 0.68617 0.07036 0.0
H780 H 0.25101 0.67223 0.12754 0.0
H781 H 0.29683 0.6453 0.1514 0.0
H782 H 0.31045 0.65896 0.09399 0.0
H783 H 0.32406 0.7549 0.07279 0.0
H784 H 0.3096 0.72799 0.06788 0.0
H785 H 0.34898 0.70915 0.9917 0.0
H786 H 0.36354 0.73637 0.99619 0.0
H787 H 0.31412 0.69488 0.08015 0.0
H788 H 0.32883 0.6883 0.91588 0.0
H789 H 0.33947 0.70519 0.85975 0.0
H790 H 0.31836 0.7499 0.91132 0.0
H791 H 0.30744 0.73323 0.96743 0.0
C792 C 0.25642 0.64566 0.00365 0.0
C793 C 0.24252 0.6549 0.98957 0.0
C794 C 0.27229 0.65329 0.00692 0.0
C795 C 0.27447 0.67022 0.99596 0.0
C796 C 0.26081 0.67911 0.97995 0.0
C797 C 0.24501 0.67158 0.97692 0.0
C798 C 0.29038 0.67938 0.00407 0.0
C799 C 0.29827 0.68791 0.97276 0.0
C800 C 0.29653 0.68152 0.0431 0.0
C801 C 0.28838 0.6734 0.07765 0.0
C802 C 0.2716 0.67718 0.08764 0.0
C803 C 0.26396 0.66935 0.1201 0.0
C804 C 0.27304 0.65784 0.143 0.0
C805 C 0.2898 0.65418 0.13356 0.0
C806 C 0.29748 0.66196 0.10108 0.0
C807 C 0.32989 0.74491 0.05574 0.0
C808 C 0.34478 0.74784 0.03431 0.0
C809 C 0.32165 0.72946 0.05318 0.0
C810 C 0.32806 0.71663 0.02894 0.0
C811 C 0.34373 0.71896 0.01029 0.0
C812 C 0.35207 0.73448 0.01299 0.0
C813 C 0.31695 0.70219 0.01904 0.0
C814 C 0.30991 0.69271 0.05 0.0
C815 C 0.31128 0.69947 0.9798 0.0
C816 C 0.31754 0.70957 0.94599 0.0
C817 C 0.32645 0.70173 0.91513 0.0
C818 C 0.33251 0.71126 0.88335 0.0
C819 C 0.32965 0.72862 0.88205 0.0
C820 C 0.32062 0.73647 0.91242 0.0
C821 C 0.3145 0.72699 0.94421 0.0
H822 H 0.33438 0.73597 0.85746 0.0
H823 H 0.26712 0.65178 0.16813 0.0
H824 H 0.84432 0.76004 0.40347 0.0
H825 H 0.83055 0.78741 0.41077 0.0
H826 H 0.84029 0.78603 0.53662 0.0
H827 H 0.85508 0.75927 0.52857 0.0
H828 H 0.80312 0.78892 0.44476 0.0
H829 H 0.83278 0.82255 0.58262 0.0
H830 H 0.86099 0.8296 0.60821 0.0
H831 H 0.88138 0.82664 0.49062 0.0
H832 H 0.85326 0.81983 0.46418 0.0
H833 H 0.74213 0.82048 0.56124 0.0
H834 H 0.77054 0.80985 0.55017 0.0
H835 H 0.78357 0.85548 0.48819 0.0
H836 H 0.75497 0.86639 0.49951 0.0
H837 H 0.81176 0.83688 0.53673 0.0
H838 H 0.77204 0.83083 0.42947 0.0
H839 H 0.74383 0.82491 0.40221 0.0
H840 H 0.74562 0.77491 0.45046 0.0
H841 H 0.77373 0.78066 0.47863 0.0
C842 C 0.8442 0.76606 0.43228 0.0
C843 C 0.85076 0.75772 0.46544 0.0
C844 C 0.83626 0.78164 0.43655 0.0
C845 C 0.8342 0.78884 0.47431 0.0
C846 C 0.84193 0.78104 0.50704 0.0
C847 C 0.85034 0.76567 0.50251 0.0
C848 C 0.82134 0.80226 0.48051 0.0
C849 C 0.80528 0.79959 0.46418 0.0
C850 C 0.82393 0.81631 0.50578 0.0
C851 C 0.84088 0.82058 0.52143 0.0
C852 C 0.84325 0.82351 0.56215 0.0
C853 C 0.85924 0.82744 0.57683 0.0
C854 C 0.87298 0.82853 0.55107 0.0
C855 C 0.87074 0.82574 0.51056 0.0
C856 C 0.85478 0.82181 0.49572 0.0
C857 C 0.75117 0.82851 0.54635 0.0
C858 C 0.74626 0.84413 0.53061 0.0
C859 C 0.76743 0.82246 0.54027 0.0
C860 C 0.77903 0.83182 0.51802 0.0
C861 C 0.77477 0.84814 0.5056 0.0
C862 C 0.75843 0.85431 0.51197 0.0
C863 C 0.79391 0.82305 0.5016 0.0
C864 C 0.81007 0.82649 0.5163 0.0
C865 C 0.79165 0.80988 0.47402 0.0
C866 C 0.77492 0.80622 0.45636 0.0
C867 C 0.76636 0.81861 0.43447 0.0
C868 C 0.7504 0.81529 0.41885 0.0
C869 C 0.74292 0.79955 0.42465 0.0
C870 C 0.75142 0.78709 0.446 0.0
C871 C 0.76738 0.79037 0.46177 0.0
H872 H 0.73056 0.797 0.41255 0.0
H873 H 0.88535 0.83157 0.5625 0.0
H874 H 0.25216 0.82602 0.44234 0.0
H875 H 0.22317 0.81659 0.44586 0.0
H876 H 0.20935 0.86219 0.50737 0.0
H877 H 0.23879 0.87168 0.50445 0.0
H878 H 0.19871 0.83634 0.54709 0.0
H879 H 0.19076 0.85286 0.41656 0.0
H880 H 0.19701 0.85779 0.346 0.0
H881 H 0.19942 0.80447 0.32584 0.0
H882 H 0.19346 0.79918 0.39636 0.0
H883 H 0.1334 0.764 0.48879 0.0
H884 H 0.14263 0.79338 0.48064 0.0
H885 H 0.18676 0.78286 0.5511 0.0
H886 H 0.17765 0.75394 0.55947 0.0
H887 H 0.16996 0.80305 0.44282 0.0
H888 H 0.20128 0.81468 0.59871 0.0
H889 H 0.1935 0.81116 0.66887 0.0
H890 H 0.14107 0.81157 0.63771 0.0
H891 H 0.14848 0.81537 0.56739 0.0
C892 C 0.24294 0.83425 0.45592 0.0
C893 C 0.24782 0.84951 0.4735 0.0
C894 C 0.22625 0.82891 0.45751 0.0
C895 C 0.21395 0.83874 0.47651 0.0
C896 C 0.21859 0.85444 0.49234 0.0
C897 C 0.2354 0.85986 0.49059 0.0
C898 C 0.19718 0.83115 0.48458 0.0
C899 C 0.19218 0.82932 0.52423 0.0
C900 C 0.18807 0.82264 0.45459 0.0
C901 C 0.1916 0.82564 0.4119 0.0
C902 C 0.19269 0.84217 0.39715 0.0
C903 C 0.19618 0.84503 0.35713 0.0
C904 C 0.19859 0.83145 0.33145 0.0
C905 C 0.1975 0.81498 0.34575 0.0
C906 C 0.19401 0.81204 0.38576 0.0
C907 C 0.14483 0.76815 0.50335 0.0
C908 C 0.15489 0.75665 0.5245 0.0
C909 C 0.1501 0.7849 0.49862 0.0
C910 C 0.1653 0.79041 0.5156 0.0
C911 C 0.17481 0.77909 0.5384 0.0
C912 C 0.16966 0.76245 0.54283 0.0
C913 C 0.17277 0.80702 0.50556 0.0
C914 C 0.17599 0.81057 0.46554 0.0
C915 C 0.17996 0.8174 0.53514 0.0
C916 C 0.17546 0.81534 0.57763 0.0
C917 C 0.18808 0.8142 0.60678 0.0
C918 C 0.18373 0.8121 0.64662 0.0
C919 C 0.16681 0.81114 0.65774 0.0
C920 C 0.15418 0.81229 0.62905 0.0
C921 C 0.15845 0.8144 0.58918 0.0
H922 H 0.16347 0.8095 0.68859 0.0
H923 H 0.20131 0.83369 0.30048 0.0
H924 H 0.24022 0.13975 0.50058 0.0
H925 H 0.21183 0.15211 0.5058 0.0
H926 H 0.23229 0.19377 0.57216 0.0
H927 H 0.2604 0.18175 0.56667 0.0
H928 H 0.20157 0.18131 0.60312 0.0
H929 H 0.22728 0.19762 0.47545 0.0
H930 H 0.23883 0.19087 0.40947 0.0
H931 H 0.1927 0.16589 0.37837 0.0
H932 H 0.18097 0.17235 0.44442 0.0
H933 H 0.1736 0.26219 0.57862 0.0
H934 H 0.18639 0.23443 0.58212 0.0
H935 H 0.14688 0.21427 0.5083 0.0
H936 H 0.13384 0.24235 0.50476 0.0
H937 H 0.17834 0.20658 0.48032 0.0
H938 H 0.14992 0.1995 0.60098 0.0
H939 H 0.13837 0.20697 0.66643 0.0
H940 H 0.18844 0.21402 0.71157 0.0
H941 H 0.20031 0.20685 0.64626 0.0
C942 C 0.23856 0.15143 0.51667 0.0
C943 C 0.25253 0.15987 0.53294 0.0
C944 C 0.22239 0.15846 0.51961 0.0
C945 C 0.22 0.17384 0.53939 0.0
C946 C 0.23384 0.18184 0.55697 0.0
C947 C 0.24993 0.17502 0.55354 0.0
C948 C 0.20354 0.18263 0.53966 0.0
C949 C 0.19631 0.18672 0.57633 0.0
C950 C 0.1963 0.18908 0.50453 0.0
C951 C 0.20336 0.18525 0.46496 0.0
C952 C 0.21967 0.19057 0.45463 0.0
C953 C 0.22623 0.18682 0.41723 0.0
C954 C 0.21653 0.1779 0.3898 0.0
C955 C 0.20022 0.17276 0.39969 0.0
C956 C 0.19361 0.17645 0.43709 0.0
C957 C 0.16743 0.25181 0.56368 0.0
C958 C 0.15277 0.25446 0.54125 0.0
C959 C 0.17469 0.23589 0.56596 0.0
C960 C 0.16751 0.22221 0.54579 0.0
C961 C 0.15254 0.22463 0.52433 0.0
C962 C 0.1451 0.24064 0.52243 0.0
C963 C 0.17697 0.2061 0.5441 0.0
C964 C 0.18296 0.20063 0.50715 0.0
C965 C 0.18301 0.19832 0.57903 0.0
C966 C 0.17601 0.20263 0.61859 0.0
C967 C 0.15848 0.20274 0.62478 0.0
C968 C 0.15187 0.20691 0.66189 0.0
C969 C 0.16266 0.21096 0.69314 0.0
C970 C 0.18009 0.21084 0.68735 0.0
C971 C 0.18677 0.20668 0.65029 0.0
H972 H 0.15752 0.2142 0.72184 0.0
H973 H 0.22163 0.17502 0.36084 0.0
H974 H 0.86178 0.2447 0.47674 0.0
H975 H 0.84984 0.21627 0.46862 0.0
H976 H 0.80002 0.23764 0.46078 0.0
H977 H 0.81161 0.26573 0.46834 0.0
H978 H 0.80378 0.21178 0.51883 0.0
H979 H 0.8174 0.22485 0.38036 0.0
H980 H 0.83728 0.23121 0.3262 0.0
H981 H 0.86386 0.18515 0.34931 0.0
H982 H 0.84424 0.17863 0.40397 0.0
H983 H 0.74536 0.16683 0.3938 0.0
H984 H 0.77251 0.18115 0.39606 0.0
H985 H 0.78717 0.15077 0.49621 0.0
H986 H 0.7599 0.13623 0.49387 0.0
H987 H 0.80788 0.17554 0.39947 0.0
H988 H 0.79955 0.17963 0.56556 0.0
H989 H 0.77801 0.17471 0.61713 0.0
H990 H 0.73902 0.18869 0.5353 0.0
H991 H 0.76035 0.19391 0.48354 0.0
C992 C 0.84831 0.24331 0.47279 0.0
C993 C 0.83764 0.25749 0.47353 0.0
C994 C 0.84154 0.22709 0.46824 0.0
C995 C 0.82406 0.22491 0.46458 0.0
C996 C 0.81354 0.23907 0.464 0.0
C997 C 0.82023 0.25515 0.46822 0.0
C998 C 0.81618 0.20804 0.46275 0.0
C999 C 0.80501 0.20362 0.49319 0.0
C1000 C 0.81779 0.19743 0.42936 0.0
C1001 C 0.82952 0.20138 0.39656 0.0
C1002 C 0.82759 0.21617 0.37414 0.0
C1003 C 0.83878 0.21978 0.34329 0.0
C1004 C 0.85186 0.20862 0.33441 0.0
C1005 C 0.85375 0.1938 0.35628 0.0
C1006 C 0.8426 0.19014 0.38718 0.0
C1007 C 0.75459 0.16279 0.41545 0.0
C1008 C 0.75044 0.15065 0.4441 0.0
C1009 C 0.77017 0.17088 0.41649 0.0
C1010 C 0.78176 0.16716 0.44657 0.0
C1011 C 0.77836 0.15383 0.47277 0.0
C1012 C 0.76279 0.14555 0.47143 0.0
C1013 C 0.79521 0.17956 0.45514 0.0
C1014 C 0.80731 0.18322 0.426 0.0
C1015 C 0.79438 0.18966 0.48961 0.0
C1016 C 0.7815 0.18693 0.52067 0.0
C1017 C 0.78638 0.18168 0.55869 0.0
C1018 C 0.77421 0.17886 0.58792 0.0
C1019 C 0.75715 0.18133 0.57945 0.0
C1020 C 0.75222 0.18673 0.54179 0.0
C1021 C 0.76434 0.18963 0.51252 0.0
H1022 H 0.74775 0.17909 0.60208 0.0
H1023 H 0.86051 0.21144 0.31051 0.0
H1024 H 0.16092 0.33675 0.41598 0.0
H1025 H 0.16142 0.34835 0.34927 0.0
H1026 H 0.11475 0.32299 0.32238 0.0
H1027 H 0.11407 0.31129 0.38966 0.0
H1028 H 0.14061 0.31638 0.26942 0.0
H1029 H 0.11428 0.3645 0.32555 0.0
H1030 H 0.10995 0.38721 0.37426 0.0
H1031 H 0.15857 0.40771 0.34624 0.0
H1032 H 0.16331 0.38498 0.29777 0.0
H1033 H 0.15271 0.34428 0.07663 0.0
H1034 H 0.13781 0.34231 0.13977 0.0
H1035 H 0.17829 0.36922 0.19711 0.0
H1036 H 0.19281 0.37199 0.13329 0.0
H1037 H 0.14908 0.37626 0.23232 0.0
H1038 H 0.17814 0.32568 0.19056 0.0
H1039 H 0.18467 0.30235 0.14481 0.0
H1040 H 0.13316 0.28593 0.14957 0.0
H1041 H 0.12629 0.30931 0.19499 0.0
C1042 C 0.15066 0.33373 0.39606 0.0
C1043 C 0.13753 0.32297 0.40789 0.0
C1044 C 0.15088 0.34053 0.35809 0.0
C1045 C 0.13801 0.33669 0.33118 0.0
C1046 C 0.12469 0.32621 0.343 0.0
C1047 C 0.12436 0.31951 0.38129 0.0
C1048 C 0.13974 0.34208 0.28956 0.0
C1049 C 0.14196 0.3295 0.26099 0.0
C1050 C 0.142 0.35918 0.27911 0.0
C1051 C 0.13918 0.37296 0.3081 0.0
C1052 C 0.1241 0.37378 0.32995 0.0
C1053 C 0.12157 0.38667 0.3575 0.0
C1054 C 0.13398 0.39888 0.36337 0.0
C1055 C 0.14896 0.39824 0.34165 0.0
C1056 C 0.15156 0.38537 0.31407 0.0
C1057 C 0.15822 0.35008 0.10261 0.0
C1058 C 0.174 0.35801 0.10052 0.0
C1059 C 0.14972 0.34896 0.13859 0.0
C1060 C 0.15718 0.35519 0.17327 0.0
C1061 C 0.17236 0.36424 0.17069 0.0
C1062 C 0.18068 0.36576 0.13437 0.0
C1063 C 0.15029 0.35052 0.21248 0.0
C1064 C 0.14723 0.36319 0.24053 0.0
C1065 C 0.14753 0.33345 0.22284 0.0
C1066 C 0.15166 0.31934 0.19574 0.0
C1067 C 0.16819 0.31715 0.18163 0.0
C1068 C 0.17195 0.30392 0.15579 0.0
C1069 C 0.15933 0.2927 0.14419 0.0
C1070 C 0.14292 0.29466 0.15851 0.0
C1071 C 0.13908 0.30789 0.1843 0.0
H1072 H 0.16226 0.28246 0.12418 0.0
H1073 H 0.132 0.40885 0.38473 0.0
H1074 H 0.68348 0.10122 0.36432 0.0
H1075 H 0.67026 0.09691 0.29948 0.0
H1076 H 0.63906 0.14064 0.31854 0.0
H1077 H 0.65206 0.14495 0.38301 0.0
H1078 H 0.62334 0.11656 0.27004 0.0
H1079 H 0.67773 0.14642 0.28284 0.0
H1080 H 0.70763 0.14748 0.30272 0.0
H1081 H 0.71822 0.10453 0.22953 0.0
H1082 H 0.6883 0.10311 0.20966 0.0
H1083 H 0.61943 0.1754 0.11669 0.0
H1084 H 0.62043 0.15632 0.17326 0.0
H1085 H 0.65534 0.1243 0.11031 0.0
H1086 H 0.65504 0.1439 0.05456 0.0
H1087 H 0.6684 0.13211 0.17503 0.0
H1088 H 0.61488 0.1101 0.14407 0.0
H1089 H 0.58499 0.11005 0.12428 0.0
H1090 H 0.57204 0.13771 0.22921 0.0
H1091 H 0.60187 0.13817 0.24939 0.0
C1092 C 0.67339 0.10954 0.35523 0.0
C1093 C 0.6691 0.12368 0.37815 0.0
C1094 C 0.66582 0.10703 0.31827 0.0
C1095 C 0.65389 0.11863 0.30403 0.0
C1096 C 0.64824 0.13157 0.32894 0.0
C1097 C 0.65584 0.13413 0.36562 0.0
C1098 C 0.64999 0.11979 0.26129 0.0
C1099 C 0.63311 0.11977 0.24889 0.0
C1100 C 0.66283 0.12356 0.23366 0.0
C1101 C 0.6808 0.12454 0.24518 0.0
C1102 C 0.68644 0.13716 0.27118 0.0
C1103 C 0.70337 0.13783 0.28243 0.0
C1104 C 0.71481 0.12605 0.26749 0.0
C1105 C 0.70934 0.11361 0.24116 0.0
C1106 C 0.6924 0.11287 0.22991 0.0
C1107 C 0.62696 0.16406 0.11458 0.0
C1108 C 0.63736 0.16124 0.08163 0.0
C1109 C 0.62742 0.15303 0.14682 0.0
C1110 C 0.63793 0.13876 0.14614 0.0
C1111 C 0.6472 0.13524 0.11169 0.0
C1112 C 0.64706 0.14646 0.07989 0.0
C1113 C 0.64154 0.12947 0.18339 0.0
C1114 C 0.65847 0.12813 0.19506 0.0
C1115 C 0.6287 0.12444 0.21005 0.0
C1116 C 0.61067 0.12419 0.1982 0.0
C1117 C 0.60569 0.11627 0.16283 0.0
C1118 C 0.58874 0.11615 0.15155 0.0
C1119 C 0.57663 0.12388 0.17546 0.0
C1120 C 0.58143 0.13171 0.21074 0.0
C1121 C 0.59836 0.13187 0.22216 0.0
H1122 H 0.56352 0.12378 0.16667 0.0
H1123 H 0.72792 0.12658 0.27623 0.0
H1124 H 0.84557 0.66382 0.37382 0.0
H1125 H 0.8507 0.64623 0.31626 0.0
H1126 H 0.89991 0.66852 0.30202 0.0
H1127 H 0.89485 0.6863 0.36047 0.0
H1128 H 0.88005 0.67106 0.23623 0.0
H1129 H 0.89803 0.62699 0.31932 0.0
H1130 H 0.89782 0.60816 0.37736 0.0
H1131 H 0.85001 0.58808 0.34131 0.0
H1132 H 0.84977 0.60696 0.28338 0.0
H1133 H 0.86523 0.6346 0.05551 0.0
H1134 H 0.88189 0.63537 0.11643 0.0
H1135 H 0.83836 0.61922 0.18302 0.0
H1136 H 0.822 0.61748 0.1217 0.0
H1137 H 0.86671 0.61034 0.22116 0.0
H1138 H 0.84436 0.66128 0.1586 0.0
H1139 H 0.84164 0.68145 0.10336 0.0
H1140 H 0.89511 0.68974 0.10477 0.0
H1141 H 0.89814 0.66943 0.15975 0.0
C1142 C 0.85759 0.66487 0.35882 0.0
C1143 C 0.86972 0.67662 0.37125 0.0
C1144 C 0.86061 0.6546 0.32624 0.0
C1145 C 0.87579 0.65588 0.30524 0.0
C1146 C 0.8882 0.66721 0.31822 0.0
C1147 C 0.88526 0.6774 0.35137 0.0
C1148 C 0.87714 0.64736 0.26645 0.0
C1149 C 0.87781 0.65765 0.23282 0.0
C1150 C 0.87383 0.62994 0.26219 0.0
C1151 C 0.8739 0.61843 0.2969 0.0
C1152 C 0.88742 0.61863 0.32384 0.0
C1153 C 0.88738 0.60793 0.35674 0.0
C1154 C 0.87391 0.59693 0.36301 0.0
C1155 C 0.86045 0.59659 0.33637 0.0
C1156 C 0.86042 0.60726 0.30343 0.0
C1157 C 0.85949 0.63051 0.08301 0.0
C1158 C 0.84235 0.62622 0.08436 0.0
C1159 C 0.86899 0.63097 0.11774 0.0
C1160 C 0.86121 0.62788 0.15436 0.0
C1161 C 0.84459 0.62175 0.15509 0.0
C1162 C 0.83522 0.62081 0.12013 0.0
C1163 C 0.86886 0.63423 0.19148 0.0
C1164 C 0.86979 0.62357 0.22455 0.0
C1165 C 0.87332 0.65143 0.19558 0.0
C1166 C 0.8715 0.66371 0.16282 0.0
C1167 C 0.85554 0.66735 0.14695 0.0
C1168 C 0.85394 0.67879 0.11572 0.0
C1169 C 0.8682 0.68683 0.10048 0.0
C1170 C 0.88408 0.68347 0.11653 0.0
C1171 C 0.88575 0.67199 0.1477 0.0
H1172 H 0.86694 0.69569 0.0763 0.0
H1173 H 0.8739 0.58867 0.38851 0.0
H1174 H 0.32083 0.89091 0.38199 0.0
H1175 H 0.33595 0.89268 0.31885 0.0
H1176 H 0.35865 0.84426 0.3412 0.0
H1177 H 0.34373 0.8424 0.40412 0.0
H1178 H 0.38014 0.86642 0.29915 0.0
H1179 H 0.32189 0.84519 0.29608 0.0
H1180 H 0.29138 0.84812 0.30828 0.0
H1181 H 0.29023 0.89275 0.23646 0.0
H1182 H 0.32081 0.89016 0.22428 0.0
H1183 H 0.38339 0.81305 0.13421 0.0
H1184 H 0.38254 0.82999 0.1945 0.0
H1185 H 0.35483 0.86866 0.1324 0.0
H1186 H 0.35482 0.85122 0.07281 0.0
H1187 H 0.33808 0.86026 0.19153 0.0
H1188 H 0.39515 0.87574 0.17791 0.0
H1189 H 0.42554 0.87238 0.16519 0.0
H1190 H 0.42985 0.83963 0.26588 0.0
H1191 H 0.39944 0.84257 0.27892 0.0
C1192 C 0.32936 0.88084 0.37389 0.0
C1193 C 0.33081 0.86634 0.39756 0.0
C1194 C 0.33803 0.88191 0.33792 0.0
C1195 C 0.34827 0.86852 0.3253 0.0
C1196 C 0.35085 0.85474 0.35048 0.0
C1197 C 0.34214 0.85361 0.38624 0.0
C1198 C 0.35387 0.86726 0.28367 0.0
C1199 C 0.37106 0.86518 0.27532 0.0
C1200 C 0.34199 0.86614 0.25265 0.0
C1201 C 0.32362 0.86761 0.2597 0.0
C1202 C 0.31513 0.85568 0.28313 0.0
C1203 C 0.29784 0.85727 0.29001 0.0
C1204 C 0.28888 0.87064 0.27326 0.0
C1205 C 0.29719 0.88242 0.24949 0.0
C1206 C 0.3145 0.8809 0.2426 0.0
C1207 C 0.37755 0.82538 0.13323 0.0
C1208 C 0.36895 0.83077 0.09925 0.0
C1209 C 0.37719 0.83516 0.16763 0.0
C1210 C 0.36863 0.85068 0.16814 0.0
C1211 C 0.36141 0.8567 0.1329 0.0
C1212 C 0.36139 0.84674 0.09889 0.0
C1213 C 0.36452 0.85891 0.20646 0.0
C1214 C 0.34746 0.86216 0.21448 0.0
C1215 C 0.3766 0.86117 0.23689 0.0
C1216 C 0.39495 0.85934 0.2293 0.0
C1217 C 0.40254 0.86773 0.19721 0.0
C1218 C 0.41979 0.86591 0.18996 0.0
C1219 C 0.42962 0.85579 0.21469 0.0
C1220 C 0.42222 0.84748 0.24676 0.0
C1221 C 0.40498 0.84925 0.25415 0.0
H1222 H 0.44297 0.85439 0.20901 0.0
H1223 H 0.27549 0.87185 0.27861 0.0
H1224 H 0.16151 0.66347 0.6145 0.0
H1225 H 0.15693 0.64558 0.67182 0.0
H1226 H 0.10687 0.66595 0.68571 0.0
H1227 H 0.11138 0.68406 0.6276 0.0
H1228 H 0.12623 0.66881 0.75196 0.0
H1229 H 0.11046 0.62459 0.66685 0.0
H1230 H 0.11173 0.60616 0.60822 0.0
H1231 H 0.16009 0.58773 0.64514 0.0
H1232 H 0.15926 0.60623 0.70368 0.0
H1233 H 0.14136 0.63157 0.93195 0.0
H1234 H 0.12506 0.63231 0.87047 0.0
H1235 H 0.16956 0.61824 0.80475 0.0
H1236 H 0.18557 0.61652 0.86661 0.0
H1237 H 0.14182 0.60856 0.76544 0.0
H1238 H 0.16172 0.65992 0.83072 0.0
H1239 H 0.16322 0.67983 0.88674 0.0
H1240 H 0.10948 0.686 0.88337 0.0
H1241 H 0.10768 0.66595 0.8276 0.0
C1242 C 0.14943 0.66406 0.6294 0.0
C1243 C 0.13688 0.67535 0.61692 0.0
C1244 C 0.14674 0.65361 0.66183 0.0
C1245 C 0.13146 0.65424 0.6826 0.0
C1246 C 0.11867 0.66515 0.66967 0.0
C1247 C 0.1213 0.67553 0.63673 0.0
C1248 C 0.13026 0.64544 0.72107 0.0
C1249 C 0.12898 0.65548 0.75501 0.0
C1250 C 0.1342 0.62814 0.72484 0.0
C1251 C 0.13478 0.61684 0.68976 0.0
C1252 C 0.12141 0.61668 0.6624 0.0
C1253 C 0.12205 0.6062 0.62916 0.0
C1254 C 0.13598 0.59577 0.62297 0.0
C1255 C 0.1493 0.59579 0.65002 0.0
C1256 C 0.14873 0.60625 0.68331 0.0
C1257 C 0.14741 0.62794 0.90447 0.0
C1258 C 0.16468 0.6242 0.90354 0.0
C1259 C 0.13813 0.62838 0.86944 0.0
C1260 C 0.14623 0.62585 0.83298 0.0
C1261 C 0.16307 0.62032 0.83255 0.0
C1262 C 0.17224 0.61939 0.8678 0.0
C1263 C 0.13856 0.63215 0.79584 0.0
C1264 C 0.13826 0.62168 0.76239 0.0
C1265 C 0.13346 0.64919 0.79218 0.0
C1266 C 0.13454 0.6613 0.82545 0.0
C1267 C 0.15023 0.66547 0.84211 0.0
C1268 C 0.15113 0.67677 0.87378 0.0
C1269 C 0.13645 0.68413 0.88869 0.0
C1270 C 0.12084 0.68025 0.87187 0.0
C1271 C 0.11986 0.66891 0.84025 0.0
H1272 H 0.13717 0.69288 0.91321 0.0
H1273 H 0.13646 0.58768 0.5972 0.0
H1274 H 0.34782 0.15218 0.60499 0.0
H1275 H 0.36383 0.14702 0.66497 0.0
H1276 H 0.33447 0.1023 0.68767 0.0
H1277 H 0.31817 0.1075 0.62706 0.0
H1278 H 0.33279 0.12432 0.74698 0.0
H1279 H 0.37731 0.09882 0.67745 0.0
H1280 H 0.39798 0.09458 0.62389 0.0
H1281 H 0.42189 0.14141 0.65336 0.0
H1282 H 0.40123 0.1461 0.7067 0.0
H1283 H 0.36479 0.14141 0.93085 0.0
H1284 H 0.36462 0.12315 0.87255 0.0
H1285 H 0.38593 0.1634 0.80273 0.0
H1286 H 0.38692 0.18139 0.8617 0.0
H1287 H 0.3939 0.13254 0.77136 0.0
H1288 H 0.34365 0.16189 0.81904 0.0
H1289 H 0.32214 0.16864 0.86938 0.0
H1290 H 0.30837 0.11643 0.87644 0.0
H1291 H 0.33 0.10936 0.82649 0.0
C1292 C 0.34493 0.14106 0.6223 0.0
C1293 C 0.33153 0.13041 0.61179 0.0
C1294 C 0.3543 0.13797 0.65631 0.0
C1295 C 0.35048 0.12417 0.68061 0.0
C1296 C 0.33772 0.11293 0.66907 0.0
C1297 C 0.32837 0.11596 0.63463 0.0
C1298 C 0.3576 0.1237 0.72109 0.0
C1299 C 0.34622 0.12543 0.75254 0.0
C1300 C 0.37508 0.12554 0.72815 0.0
C1301 C 0.38767 0.1228 0.69617 0.0
C1302 C 0.38691 0.10827 0.6724 0.0
C1303 C 0.39864 0.10578 0.64208 0.0
C1304 C 0.41124 0.11771 0.63524 0.0
C1305 C 0.41215 0.13216 0.65874 0.0
C1306 C 0.40044 0.13472 0.68911 0.0
C1307 C 0.3701 0.14606 0.90337 0.0
C1308 C 0.37564 0.16278 0.90025 0.0
C1309 C 0.37001 0.13564 0.87016 0.0
C1310 C 0.37482 0.14209 0.83317 0.0
C1311 C 0.38211 0.1582 0.83101 0.0
C1312 C 0.38261 0.1685 0.86458 0.0
C1313 C 0.369 0.13382 0.79636 0.0
C1314 C 0.38058 0.13059 0.7659 0.0
C1315 C 0.35162 0.13084 0.78977 0.0
C1316 C 0.33856 0.13508 0.81953 0.0
C1317 C 0.3361 0.15185 0.83154 0.0
C1318 C 0.32389 0.15573 0.85997 0.0
C1319 C 0.31394 0.14296 0.8762 0.0
C1320 C 0.31613 0.12629 0.86393 0.0
C1321 C 0.32836 0.12234 0.8356 0.0
H1322 H 0.30449 0.14599 0.89819 0.0
H1323 H 0.42031 0.11576 0.61173 0.0
H1324 H 0.85262 0.34015 0.95549 0.0
H1325 H 0.86741 0.33485 0.89345 0.0
H1326 H 0.83337 0.36848 0.8327 0.0
H1327 H 0.81881 0.37424 0.89518 0.0
H1328 H 0.85301 0.31918 0.83615 0.0
H1329 H 0.84999 0.38212 0.74685 0.0
H1330 H 0.85398 0.41248 0.75879 0.0
H1331 H 0.88548 0.40153 0.85889 0.0
H1332 H 0.8819 0.3711 0.84725 0.0
H1333 H 0.83308 0.31243 0.63746 0.0
H1334 H 0.83586 0.32146 0.70609 0.0
H1335 H 0.88891 0.3305 0.68837 0.0
H1336 H 0.88629 0.32122 0.6191 0.0
H1337 H 0.86928 0.35779 0.72715 0.0
H1338 H 0.88232 0.29956 0.74072 0.0
H1339 H 0.87879 0.26915 0.72864 0.0
H1340 H 0.8297 0.27073 0.782 0.0
H1341 H 0.83283 0.30121 0.79387 0.0
C1342 C 0.84852 0.34671 0.92905 0.0
C1343 C 0.83441 0.3574 0.9299 0.0
C1344 C 0.85702 0.34371 0.89368 0.0
C1345 C 0.85149 0.35122 0.85843 0.0
C1346 C 0.83804 0.36274 0.85965 0.0
C1347 C 0.82965 0.36594 0.89528 0.0
C1348 C 0.85793 0.34501 0.81996 0.0
C1349 C 0.85686 0.32764 0.8126 0.0
C1350 C 0.86321 0.35599 0.78935 0.0
C1351 C 0.86559 0.3743 0.79626 0.0
C1352 C 0.85786 0.38617 0.77126 0.0
C1353 C 0.86003 0.40341 0.77802 0.0
C1354 C 0.86995 0.40893 0.80962 0.0
C1355 C 0.87776 0.39724 0.83449 0.0
C1356 C 0.87564 0.37999 0.82786 0.0
C1357 C 0.84538 0.31625 0.64811 0.0
C1358 C 0.85948 0.31612 0.62299 0.0
C1359 C 0.84694 0.32138 0.6873 0.0
C1360 C 0.86258 0.32659 0.70206 0.0
C1361 C 0.87675 0.3265 0.67727 0.0
C1362 C 0.87525 0.32111 0.63796 0.0
C1363 C 0.86369 0.33221 0.74353 0.0
C1364 C 0.866 0.3494 0.75129 0.0
C1365 C 0.85972 0.32109 0.77476 0.0
C1366 C 0.8578 0.3027 0.76807 0.0
C1367 C 0.87073 0.29345 0.74967 0.0
C1368 C 0.8688 0.27619 0.74288 0.0
C1369 C 0.85402 0.26802 0.75452 0.0
C1370 C 0.84115 0.27708 0.77303 0.0
C1371 C 0.84301 0.29434 0.77986 0.0
H1372 H 0.85255 0.25466 0.74923 0.0
H1373 H 0.8716 0.42228 0.81481 0.0
H1374 H 0.60315 0.8092 0.88235 0.0
H1375 H 0.59652 0.82088 0.8168 0.0
H1376 H 0.63748 0.85623 0.82888 0.0
H1377 H 0.64404 0.84483 0.89379 0.0
H1378 H 0.61148 0.86936 0.7837 0.0
H1379 H 0.64559 0.81691 0.79406 0.0
H1380 H 0.64878 0.78713 0.8137 0.0
H1381 H 0.605 0.7741 0.74551 0.0
H1382 H 0.6015 0.80387 0.72584 0.0
H1383 H 0.67228 0.87629 0.63646 0.0
H1384 H 0.6521 0.87431 0.69099 0.0
H1385 H 0.62266 0.83857 0.62383 0.0
H1386 H 0.64328 0.8399 0.57032 0.0
H1387 H 0.63013 0.82544 0.68898 0.0
H1388 H 0.60564 0.8775 0.65688 0.0
H1389 H 0.60408 0.90731 0.63696 0.0
H1390 H 0.62953 0.92187 0.74379 0.0
H1391 H 0.6315 0.89214 0.76414 0.0
C1392 C 0.61041 0.81976 0.87136 0.0
C1393 C 0.62441 0.8258 0.89253 0.0
C1394 C 0.60656 0.82647 0.8341 0.0
C1395 C 0.61665 0.83928 0.81789 0.0
C1396 C 0.62952 0.84638 0.84084 0.0
C1397 C 0.63341 0.83966 0.87772 0.0
C1398 C 0.61654 0.843 0.77504 0.0
C1399 C 0.6153 0.85982 0.76255 0.0
C1400 C 0.621 0.83042 0.74739 0.0
C1401 C 0.62318 0.81256 0.7589 0.0
C1402 C 0.63662 0.80768 0.78344 0.0
C1403 C 0.63848 0.79083 0.79456 0.0
C1404 C 0.62707 0.77874 0.78096 0.0
C1405 C 0.6138 0.78348 0.7561 0.0
C1406 C 0.61187 0.80033 0.74498 0.0
C1407 C 0.66129 0.86833 0.63312 0.0
C1408 C 0.65947 0.85799 0.59976 0.0
C1409 C 0.64963 0.86733 0.66406 0.0
C1410 C 0.63576 0.85632 0.66151 0.0
C1411 C 0.63326 0.84709 0.62659 0.0
C1412 C 0.64509 0.84779 0.59617 0.0
C1413 C 0.62597 0.85208 0.69758 0.0
C1414 C 0.62543 0.83507 0.70892 0.0
C1415 C 0.6199 0.86455 0.72392 0.0
C1416 C 0.61872 0.88253 0.71202 0.0
C1417 C 0.61099 0.88704 0.67606 0.0
C1418 C 0.61003 0.90394 0.66469 0.0
C1419 C 0.6167 0.91648 0.68909 0.0
C1420 C 0.62434 0.91214 0.72494 0.0
C1421 C 0.62534 0.89526 0.73646 0.0
H1422 H 0.61594 0.92955 0.68022 0.0
H1423 H 0.62852 0.7657 0.78959 0.0
H1424 H 0.87789 0.68914 0.59884 0.0
H1425 H 0.87339 0.67348 0.66045 0.0
H1426 H 0.82679 0.65363 0.61388 0.0
H1427 H 0.83088 0.66969 0.55322 0.0
H1428 H 0.82148 0.66477 0.68346 0.0
H1429 H 0.86289 0.62863 0.6274 0.0
H1430 H 0.8898 0.62093 0.59573 0.0
H1431 H 0.91694 0.63943 0.69674 0.0
H1432 H 0.8902 0.64747 0.72882 0.0
H1433 H 0.80842 0.6177 0.8584 0.0
H1434 H 0.816 0.62014 0.78803 0.0
H1435 H 0.85742 0.65277 0.81886 0.0
H1436 H 0.84978 0.65062 0.88868 0.0
H1437 H 0.86426 0.63028 0.75351 0.0
H1438 H 0.82251 0.67088 0.80139 0.0
H1439 H 0.79547 0.67834 0.83285 0.0
H1440 H 0.76877 0.65005 0.74449 0.0
H1441 H 0.79572 0.64222 0.71286 0.0
C1442 C 0.86676 0.68135 0.60175 0.0
C1443 C 0.85466 0.68078 0.57144 0.0
C1444 C 0.86426 0.67229 0.63678 0.0
C1445 C 0.84982 0.66223 0.64164 0.0
C1446 C 0.838 0.66133 0.61088 0.0
C1447 C 0.84034 0.67056 0.57625 0.0
C1448 C 0.8463 0.65374 0.67988 0.0
C1449 C 0.83072 0.65689 0.69819 0.0
C1450 C 0.85839 0.64362 0.6995 0.0
C1451 C 0.87453 0.63877 0.68039 0.0
C1452 C 0.8746 0.63118 0.64275 0.0
C1453 C 0.88982 0.62673 0.62474 0.0
C1454 C 0.90507 0.62972 0.64418 0.0
C1455 C 0.90512 0.63713 0.68171 0.0
C1456 C 0.88993 0.64162 0.69985 0.0
C1457 C 0.81939 0.62501 0.85012 0.0
C1458 C 0.82837 0.63419 0.87868 0.0
C1459 C 0.82371 0.62637 0.81007 0.0
C1460 C 0.8372 0.63671 0.79845 0.0
C1461 C 0.84701 0.6447 0.82733 0.0
C1462 C 0.84254 0.64357 0.86711 0.0
C1463 C 0.8396 0.64146 0.75659 0.0
C1464 C 0.85495 0.63777 0.73792 0.0
C1465 C 0.82728 0.65097 0.73633 0.0
C1466 C 0.8111 0.65579 0.75511 0.0
C1467 C 0.81087 0.66614 0.78889 0.0
C1468 C 0.79557 0.67045 0.80671 0.0
C1469 C 0.78041 0.66463 0.79076 0.0
C1470 C 0.78052 0.65452 0.75687 0.0
C1471 C 0.7958 0.65014 0.73899 0.0
H1472 H 0.76857 0.66798 0.80459 0.0
H1473 H 0.91685 0.62627 0.63018 0.0
H1474 H 0.3317 0.88159 0.59908 0.0
H1475 H 0.3451 0.87831 0.6646 0.0
H1476 H 0.31547 0.83365 0.68544 0.0
H1477 H 0.30259 0.83652 0.62015 0.0
H1478 H 0.31785 0.86054 0.75067 0.0
H1479 H 0.35023 0.82525 0.65585 0.0
H1480 H 0.36804 0.82234 0.59633 0.0
H1481 H 0.4035 0.85763 0.64468 0.0
H1482 H 0.38575 0.86089 0.70428 0.0
H1483 H 0.33723 0.79941 0.88165 0.0
H1484 H 0.33323 0.81426 0.8193 0.0
H1485 H 0.37976 0.84124 0.83761 0.0
H1486 H 0.38406 0.82594 0.90035 0.0
H1487 H 0.37385 0.83276 0.75731 0.0
H1488 H 0.34549 0.8614 0.86038 0.0
H1489 H 0.32799 0.86439 0.9203 0.0
H1490 H 0.28544 0.84402 0.85814 0.0
H1491 H 0.30274 0.84064 0.798 0.0
C1492 C 0.32795 0.87124 0.61802 0.0
C1493 C 0.31618 0.85927 0.60477 0.0
C1494 C 0.33562 0.86935 0.65515 0.0
C1495 C 0.33124 0.85573 0.67953 0.0
C1496 C 0.31897 0.84424 0.66692 0.0
C1497 C 0.31166 0.84587 0.62969 0.0
C1498 C 0.33965 0.85266 0.71775 0.0
C1499 C 0.33017 0.85467 0.75237 0.0
C1500 C 0.35594 0.84554 0.71983 0.0
C1501 C 0.36658 0.8435 0.68416 0.0
C1502 C 0.36174 0.83251 0.65357 0.0
C1503 C 0.37184 0.83077 0.61988 0.0
C1504 C 0.38686 0.83984 0.61665 0.0
C1505 C 0.39184 0.85064 0.64717 0.0
C1506 C 0.38177 0.85244 0.6809 0.0
C1507 C 0.34679 0.80825 0.87206 0.0
C1508 C 0.36084 0.8117 0.89591 0.0
C1509 C 0.34446 0.81679 0.83655 0.0
C1510 C 0.35594 0.82919 0.82453 0.0
C1511 C 0.37067 0.83182 0.84671 0.0
C1512 C 0.37314 0.82305 0.88233 0.0
C1513 C 0.35164 0.83986 0.79005 0.0
C1514 C 0.36184 0.83927 0.75616 0.0
C1515 C 0.33604 0.84853 0.78871 0.0
C1516 C 0.32545 0.85075 0.82465 0.0
C1517 C 0.33242 0.85748 0.85952 0.0
C1518 C 0.32253 0.85925 0.89354 0.0
C1519 C 0.30562 0.8544 0.89303 0.0
C1520 C 0.29854 0.8478 0.85847 0.0
C1521 C 0.30838 0.84598 0.82438 0.0
H1522 H 0.29799 0.85577 0.91941 0.0
H1523 H 0.39467 0.83847 0.59055 0.0
H1524 H 0.13381 0.35739 0.57966 0.0
H1525 H 0.1356 0.37449 0.63971 0.0
H1526 H 0.11665 0.33274 0.70835 0.0
H1527 H 0.11412 0.31588 0.64785 0.0
H1528 H 0.10956 0.36306 0.74425 0.0
H1529 H 0.15809 0.33465 0.68538 0.0
H1530 H 0.17798 0.32882 0.6309 0.0
H1531 H 0.19187 0.38106 0.62721 0.0
H1532 H 0.17184 0.38722 0.68134 0.0
H1533 H 0.15996 0.34196 0.90283 0.0
H1534 H 0.14356 0.34658 0.84316 0.0
H1535 H 0.17014 0.39311 0.82195 0.0
H1536 H 0.18673 0.38858 0.88261 0.0
H1537 H 0.17127 0.37101 0.75947 0.0
H1538 H 0.12867 0.39545 0.83768 0.0
H1539 H 0.10963 0.39876 0.89482 0.0
H1540 H 0.08533 0.35205 0.86601 0.0
H1541 H 0.10439 0.34829 0.80905 0.0
C1542 C 0.12929 0.35219 0.60736 0.0
C1543 C 0.12403 0.33534 0.60956 0.0
C1544 C 0.13033 0.36194 0.64159 0.0
C1545 C 0.12672 0.35471 0.67854 0.0
C1546 C 0.11956 0.33853 0.6801 0.0
C1547 C 0.11814 0.32888 0.64562 0.0
C1548 C 0.13366 0.36226 0.71514 0.0
C1549 C 0.12302 0.36495 0.74768 0.0
C1550 C 0.15121 0.36512 0.71918 0.0
C1551 C 0.16333 0.36143 0.68694 0.0
C1552 C 0.16531 0.3449 0.67275 0.0
C1553 C 0.17661 0.34154 0.64197 0.0
C1554 C 0.18614 0.35457 0.62551 0.0
C1555 C 0.18443 0.37099 0.6399 0.0
C1556 C 0.17311 0.37443 0.6706 0.0
C1557 C 0.16225 0.35329 0.88579 0.0
C1558 C 0.1748 0.3648 0.89705 0.0
C1559 C 0.15266 0.35604 0.85196 0.0
C1560 C 0.15545 0.37032 0.82848 0.0
C1561 C 0.16768 0.38212 0.84005 0.0
C1562 C 0.17718 0.37948 0.87447 0.0
C1563 C 0.14727 0.37121 0.78921 0.0
C1564 C 0.15771 0.36994 0.75593 0.0
C1565 C 0.12962 0.36941 0.78485 0.0
C1566 C 0.11801 0.37159 0.81901 0.0
C1567 C 0.11934 0.38582 0.84363 0.0
C1568 C 0.10853 0.38779 0.87599 0.0
C1569 C 0.09628 0.37563 0.88404 0.0
C1570 C 0.09481 0.36148 0.8597 0.0
C1571 C 0.10559 0.35944 0.8273 0.0
H1572 H 0.08793 0.37717 0.90912 0.0
H1573 H 0.19488 0.35195 0.60169 0.0
H1574 H 0.62152 0.17152 0.88766 0.0
H1575 H 0.62411 0.16086 0.8194 0.0
H1576 H 0.66602 0.19433 0.7993 0.0
H1577 H 0.66394 0.20449 0.86754 0.0
H1578 H 0.63734 0.19051 0.73507 0.0
H1579 H 0.67886 0.16093 0.82075 0.0
H1580 H 0.6854 0.14333 0.87897 0.0
H1581 H 0.65129 0.10529 0.83724 0.0
H1582 H 0.64438 0.12283 0.77903 0.0
H1583 H 0.69154 0.17279 0.58177 0.0
H1584 H 0.67844 0.17887 0.64531 0.0
H1585 H 0.65914 0.1281 0.65074 0.0
H1586 H 0.67299 0.1217 0.58739 0.0
H1587 H 0.66903 0.13694 0.72066 0.0
H1588 H 0.63299 0.16223 0.62707 0.0
H1589 H 0.62467 0.17899 0.5688 0.0
H1590 H 0.64434 0.22366 0.62345 0.0
H1591 H 0.65302 0.20715 0.68183 0.0
C1592 C 0.63106 0.17678 0.86832 0.0
C1593 C 0.64258 0.18876 0.88261 0.0
C1594 C 0.63254 0.17067 0.82957 0.0
C1595 C 0.64526 0.17685 0.80464 0.0
C1596 C 0.65612 0.18949 0.81823 0.0
C1597 C 0.65494 0.19524 0.85711 0.0
C1598 C 0.64833 0.1694 0.76534 0.0
C1599 C 0.6442 0.17878 0.73165 0.0
C1600 C 0.65668 0.1538 0.76119 0.0
C1601 C 0.66095 0.14326 0.79592 0.0
C1602 C 0.67264 0.14889 0.82423 0.0
C1603 C 0.67644 0.13891 0.85716 0.0
C1604 C 0.66872 0.12323 0.86188 0.0
C1605 C 0.65722 0.11746 0.8336 0.0
C1606 C 0.65337 0.12741 0.80064 0.0
C1607 C 0.68456 0.16288 0.59654 0.0
C1608 C 0.68314 0.14682 0.57953 0.0
C1609 C 0.67694 0.16641 0.63272 0.0
C1610 C 0.66731 0.15411 0.65221 0.0
C1611 C 0.66633 0.13784 0.63598 0.0
C1612 C 0.67427 0.13419 0.59993 0.0
C1613 C 0.65868 0.15841 0.68989 0.0
C1614 C 0.66175 0.14844 0.72347 0.0
C1615 C 0.64899 0.17334 0.69378 0.0
C1616 C 0.64372 0.18341 0.65881 0.0
C1617 C 0.63563 0.17561 0.62659 0.0
C1618 C 0.63085 0.18507 0.59354 0.0
C1619 C 0.63399 0.20238 0.59241 0.0
C1620 C 0.6419 0.21026 0.62438 0.0
C1621 C 0.64673 0.20086 0.6575 0.0
H1622 H 0.63028 0.20968 0.56679 0.0
H1623 H 0.67167 0.11552 0.88738 0.0
H1624 H 0.84817 0.36107 0.45549 0.0
H1625 H 0.84711 0.38079 0.39995 0.0
H1626 H 0.87651 0.3463 0.32933 0.0
H1627 H 0.87828 0.32692 0.38555 0.0
H1628 H 0.88189 0.37832 0.30563 0.0
H1629 H 0.83295 0.34283 0.33567 0.0
H1630 H 0.81 0.33272 0.37888 0.0
H1631 H 0.79094 0.38315 0.38919 0.0
H1632 H 0.81393 0.39356 0.34637 0.0
H1633 H 0.8464 0.35601 0.12895 0.0
H1634 H 0.85875 0.36249 0.19286 0.0
H1635 H 0.82394 0.40379 0.20746 0.0
H1636 H 0.81144 0.39731 0.14249 0.0
H1637 H 0.82175 0.3809 0.26598 0.0
H1638 H 0.86601 0.41222 0.21086 0.0
H1639 H 0.88839 0.41974 0.16346 0.0
H1640 H 0.91602 0.37529 0.19537 0.0
H1641 H 0.89371 0.36733 0.24252 0.0
C1642 C 0.85484 0.35796 0.42846 0.0
C1643 C 0.863 0.34237 0.42432 0.0
C1644 C 0.85425 0.36924 0.39683 0.0
C1645 C 0.86132 0.36479 0.3602 0.0
C1646 C 0.8709 0.34995 0.3573 0.0
C1647 C 0.87184 0.33884 0.38932 0.0
C1648 C 0.85628 0.37374 0.32357 0.0
C1649 C 0.86876 0.37904 0.2969 0.0
C1650 C 0.83908 0.37524 0.31281 0.0
C1651 C 0.82525 0.36899 0.33836 0.0
C1652 C 0.82391 0.35176 0.34738 0.0
C1653 C 0.8109 0.34598 0.37176 0.0
C1654 C 0.79905 0.3573 0.38689 0.0
C1655 C 0.80016 0.37441 0.37755 0.0
C1656 C 0.81317 0.38026 0.35326 0.0
C1657 C 0.84158 0.3667 0.14534 0.0
C1658 C 0.82779 0.37599 0.13121 0.0
C1659 C 0.84884 0.37057 0.18166 0.0
C1660 C 0.84241 0.38375 0.20479 0.0
C1661 C 0.8292 0.39369 0.1898 0.0
C1662 C 0.82204 0.38994 0.1529 0.0
C1663 C 0.84739 0.38459 0.24697 0.0
C1664 C 0.83487 0.38104 0.27501 0.0
C1665 C 0.86453 0.38445 0.25853 0.0
C1666 C 0.87814 0.38919 0.23037 0.0
C1667 C 0.87681 0.40399 0.20767 0.0
C1668 C 0.8895 0.40834 0.18083 0.0
C1669 C 0.90362 0.39801 0.17643 0.0
C1670 C 0.90509 0.38331 0.19889 0.0
C1671 C 0.89244 0.37889 0.22577 0.0
H1672 H 0.91343 0.40139 0.15561 0.0
H1673 H 0.78898 0.3528 0.40575 0.0
H1674 H 0.65007 0.85049 0.07142 0.0
H1675 H 0.6528 0.86516 0.13467 0.0
H1676 H 0.62888 0.82334 0.19398 0.0
H1677 H 0.62533 0.80901 0.13021 0.0
H1678 H 0.62136 0.85185 0.23085 0.0
H1679 H 0.67245 0.82563 0.18139 0.0
H1680 H 0.6951 0.82084 0.13261 0.0
H1681 H 0.70895 0.87304 0.13889 0.0
H1682 H 0.68623 0.87817 0.18738 0.0
H1683 H 0.66511 0.83505 0.40465 0.0
H1684 H 0.65265 0.8368 0.33903 0.0
H1685 H 0.67469 0.88595 0.32239 0.0
H1686 H 0.68718 0.8844 0.38902 0.0
H1687 H 0.68162 0.86208 0.26192 0.0
H1688 H 0.634 0.88486 0.3276 0.0
H1689 H 0.61233 0.88697 0.37967 0.0
H1690 H 0.5928 0.83856 0.34666 0.0
H1691 H 0.61451 0.83601 0.29478 0.0
C1692 C 0.64507 0.84462 0.09791 0.0
C1693 C 0.63777 0.82852 0.09631 0.0
C1694 C 0.64664 0.853 0.13395 0.0
C1695 C 0.64148 0.84514 0.16912 0.0
C1696 C 0.63303 0.8296 0.16718 0.0
C1697 C 0.63106 0.82138 0.13086 0.0
C1698 C 0.64669 0.852 0.20799 0.0
C1699 C 0.63451 0.85413 0.2377 0.0
C1700 C 0.66384 0.8554 0.21658 0.0
C1701 C 0.67752 0.85232 0.18756 0.0
C1702 C 0.68026 0.8361 0.17214 0.0
C1703 C 0.69311 0.83333 0.14458 0.0
C1704 C 0.70342 0.84664 0.13255 0.0
C1705 C 0.70093 0.86275 0.14815 0.0
C1706 C 0.68807 0.8656 0.17567 0.0
C1707 C 0.66726 0.84631 0.38724 0.0
C1708 C 0.67725 0.85954 0.40178 0.0
C1709 C 0.65996 0.84736 0.34992 0.0
C1710 C 0.66256 0.8616 0.32624 0.0
C1711 C 0.67241 0.87495 0.3406 0.0
C1712 C 0.67956 0.87402 0.37844 0.0
C1713 C 0.65637 0.86138 0.28507 0.0
C1714 C 0.66839 0.86041 0.25482 0.0
C1715 C 0.63915 0.85873 0.27631 0.0
C1716 C 0.62594 0.86023 0.3073 0.0
C1717 C 0.62515 0.87461 0.33158 0.0
C1718 C 0.61285 0.87589 0.36106 0.0
C1719 C 0.6012 0.86291 0.36649 0.0
C1720 C 0.60182 0.84862 0.3424 0.0
C1721 C 0.61411 0.84726 0.31288 0.0
H1722 H 0.59169 0.86392 0.38934 0.0
H1723 H 0.71337 0.84447 0.11122 0.0
H1724 H 0.12614 0.69067 0.38722 0.0
H1725 H 0.12952 0.67484 0.32537 0.0
H1726 H 0.17255 0.64905 0.37483 0.0
H1727 H 0.16968 0.66528 0.43558 0.0
H1728 H 0.1804 0.66 0.30671 0.0
H1729 H 0.13349 0.62901 0.35668 0.0
H1730 H 0.10513 0.62481 0.38479 0.0
H1731 H 0.08297 0.64732 0.28156 0.0
H1732 H 0.11122 0.65188 0.25305 0.0
H1733 H 0.19194 0.61336 0.13172 0.0
H1734 H 0.18315 0.61602 0.20122 0.0
H1735 H 0.14539 0.65233 0.16726 0.0
H1736 H 0.15412 0.64984 0.09829 0.0
H1737 H 0.1352 0.63135 0.23088 0.0
H1738 H 0.18242 0.66661 0.18877 0.0
H1739 H 0.21076 0.67093 0.16048 0.0
H1740 H 0.23216 0.63954 0.25102 0.0
H1741 H 0.20388 0.63485 0.27949 0.0
C1742 C 0.13621 0.68152 0.38485 0.0
C1743 C 0.14777 0.67935 0.4159 0.0
C1744 C 0.13806 0.67238 0.34969 0.0
C1745 C 0.15122 0.66063 0.34556 0.0
C1746 C 0.16236 0.65807 0.37722 0.0
C1747 C 0.16072 0.6674 0.41189 0.0
C1748 C 0.15438 0.65207 0.30724 0.0
C1749 C 0.17057 0.65338 0.29072 0.0
C1750 C 0.14153 0.64366 0.2859 0.0
C1751 C 0.1245 0.64089 0.30286 0.0
C1752 C 0.12258 0.63317 0.34009 0.0
C1753 C 0.10652 0.63071 0.35608 0.0
C1754 C 0.09226 0.63582 0.33501 0.0
C1755 C 0.09403 0.64338 0.29786 0.0
C1756 C 0.11007 0.64588 0.28174 0.0
C1757 C 0.18146 0.62153 0.13905 0.0
C1758 C 0.1739 0.63163 0.10992 0.0
C1759 C 0.17646 0.62303 0.17863 0.0
C1760 C 0.16375 0.6345 0.18921 0.0
C1761 C 0.1552 0.64341 0.15962 0.0
C1762 C 0.16032 0.64209 0.12032 0.0
C1763 C 0.16109 0.63937 0.23092 0.0
C1764 C 0.14503 0.63755 0.24773 0.0
C1765 C 0.17405 0.64726 0.25279 0.0
C1766 C 0.19104 0.65021 0.23594 0.0
C1767 C 0.19316 0.66053 0.20245 0.0
C1768 C 0.20921 0.66306 0.18641 0.0
C1769 C 0.22325 0.65547 0.20387 0.0
C1770 C 0.22127 0.64538 0.23748 0.0
C1771 C 0.20524 0.64278 0.25357 0.0
H1772 H 0.23566 0.65745 0.19144 0.0
H1773 H 0.07984 0.63391 0.34744 0.0
H1774 H 0.30458 0.12702 0.37826 0.0
H1775 H 0.31797 0.12972 0.31312 0.0
H1776 H 0.36009 0.15548 0.36693 0.0
H1777 H 0.34624 0.15369 0.43128 0.0
H1778 H 0.34986 0.17311 0.31054 0.0
H1779 H 0.36315 0.11495 0.32123 0.0
H1780 H 0.35824 0.08474 0.33343 0.0
H1781 H 0.32307 0.08311 0.2369 0.0
H1782 H 0.32758 0.11337 0.22445 0.0
H1783 H 0.3855 0.18472 0.11882 0.0
H1784 H 0.38331 0.17286 0.18577 0.0
H1785 H 0.33393 0.15351 0.15807 0.0
H1786 H 0.33596 0.16519 0.09161 0.0
H1787 H 0.35335 0.13094 0.20254 0.0
H1788 H 0.33704 0.19038 0.20255 0.0
H1789 H 0.34235 0.22058 0.19082 0.0
H1790 H 0.38491 0.21886 0.26922 0.0
H1791 H 0.37995 0.18858 0.28101 0.0
C1792 C 0.31682 0.13299 0.37604 0.0
C1793 C 0.32432 0.14036 0.40938 0.0
C1794 C 0.32455 0.13442 0.33895 0.0
C1795 C 0.34011 0.14277 0.33506 0.0
C1796 C 0.34805 0.14911 0.36905 0.0
C1797 C 0.34014 0.14809 0.40576 0.0
C1798 C 0.34706 0.14682 0.2954 0.0
C1799 C 0.35105 0.16372 0.28735 0.0
C1800 C 0.34838 0.13472 0.26476 0.0
C1801 C 0.34563 0.11649 0.27208 0.0
C1802 C 0.35428 0.10819 0.30277 0.0
C1803 C 0.35158 0.09104 0.30971 0.0
C1804 C 0.34033 0.08202 0.286 0.0
C1805 C 0.33178 0.09012 0.25525 0.0
C1806 C 0.33442 0.10727 0.2482 0.0
C1807 C 0.37426 0.17781 0.12695 0.0
C1808 C 0.36081 0.17609 0.10016 0.0
C1809 C 0.37305 0.17101 0.16506 0.0
C1810 C 0.35843 0.16237 0.17672 0.0
C1811 C 0.34534 0.16006 0.14951 0.0
C1812 C 0.34647 0.16692 0.11167 0.0
C1813 C 0.35587 0.15709 0.2182 0.0
C1814 C 0.35261 0.14007 0.22637 0.0
C1815 C 0.35536 0.169 0.24919 0.0
C1816 C 0.35825 0.1872 0.24227 0.0
C1817 C 0.3476 0.19642 0.21704 0.0
C1818 C 0.35053 0.21355 0.21043 0.0
C1819 C 0.36399 0.22162 0.22916 0.0
C1820 C 0.37451 0.21259 0.25466 0.0
C1821 C 0.37165 0.19545 0.26132 0.0
H1822 H 0.36624 0.23488 0.22401 0.0
H1823 H 0.33826 0.06875 0.29142 0.0
loop_
_geom_bond_atom_site_label_1
_geom_bond_atom_site_label_2
_geom_bond_distance
_geom_bond_site_symmetry_2
_ccdc_geom_bond_type
Zn0 O3 2.031 1_554 S
Zn0 O5 2.049 . S
Zn0 O10 2.067 . S
Zn1 O2 1.962 1_554 S
Zn1 O4 1.986 . S
Zn1 O6 1.996 . S
Zn1 O9 1.943 . S
O2 Zn1 1.962 1_556 S
O2 C7 1.254 . S
O3 Zn0 2.031 1_556 S
O3 C7 1.269 . S
O4 Zn1 1.986 . S
O4 C11 1.262 . S
O5 Zn0 2.049 . S
O5 C13 1.260 . S
O6 Zn1 1.996 . S
O6 C13 1.257 . S
C7 O2 1.254 . S
C7 O3 1.269 . S
C8 O9 1.249 . S
C8 O10 1.270 . S
O9 Zn1 1.943 . S
O9 C8 1.249 . S
O10 Zn0 2.067 . S
O10 C8 1.270 . S
C11 O4 1.262 . S
C11 O12 1.232 1_554 S
O12 C11 1.232 1_556 S
C13 O5 1.260 . S
C13 O6 1.257 . S
Zn14 O17 2.031 1_554 S
Zn14 O19 2.049 . S
Zn14 O24 2.067 . S
Zn15 O16 1.962 1_554 S
Zn15 O18 1.986 . S
Zn15 O20 1.996 . S
Zn15 O23 1.943 . S
O16 Zn15 1.962 1_556 S
O16 C21 1.254 . S
O17 Zn14 2.031 1_556 S
O17 C21 1.269 . S
O18 Zn15 1.986 . S
O18 C25 1.262 . S
O19 Zn14 2.049 . S
O19 C27 1.260 . S
O20 Zn15 1.996 . S
O20 C27 1.257 . S
C21 O16 1.254 . S
C21 O17 1.269 . S
C22 O23 1.249 . S
C22 O24 1.270 . S
O23 Zn15 1.943 . S
O23 C22 1.249 . S
O24 Zn14 2.067 . S
O24 C22 1.270 . S
C25 O18 1.262 . S
C25 O26 1.232 1_554 S
O26 C25 1.232 1_556 S
C27 O19 1.260 . S
C27 O20 1.257 . S
Zn28 O31 2.031 1_554 S
Zn28 O33 2.049 . S
Zn28 O38 2.067 . S
Zn29 O30 1.962 1_554 S
Zn29 O32 1.986 . S
Zn29 O34 1.996 . S
Zn29 O37 1.943 . S
O30 Zn29 1.962 1_556 S
O30 C35 1.254 . S
O31 Zn28 2.031 1_556 S
O31 C35 1.269 . S
O32 Zn29 1.986 . S
O32 C39 1.262 . S
O33 Zn28 2.049 . S
O33 C41 1.260 . S
O34 Zn29 1.996 . S
O34 C41 1.257 . S
C35 O30 1.254 . S
C35 O31 1.269 . S
C36 O37 1.249 . S
C36 O38 1.270 . S
O37 Zn29 1.943 . S
O37 C36 1.249 . S
O38 Zn28 2.067 . S
O38 C36 1.270 . S
C39 O32 1.262 . S
C39 O40 1.232 1_554 S
O40 C39 1.232 1_556 S
C41 O33 1.260 . S
C41 O34 1.257 . S
Zn42 O45 2.031 1_554 S
Zn42 O47 2.049 . S
Zn42 O52 2.067 . S
Zn43 O44 1.962 1_554 S
Zn43 O46 1.986 . S
Zn43 O48 1.996 . S
Zn43 O51 1.943 . S
O44 Zn43 1.962 1_556 S
O44 C49 1.254 . S
O45 Zn42 2.031 1_556 S
O45 C49 1.269 . S
O46 Zn43 1.986 . S
O46 C53 1.262 . S
O47 Zn42 2.049 . S
O47 C55 1.260 . S
O48 Zn43 1.996 . S
O48 C55 1.257 . S
C49 O44 1.254 . S
C49 O45 1.269 . S
C50 O51 1.249 . S
C50 O52 1.270 . S
O51 Zn43 1.943 . S
O51 C50 1.249 . S
O52 Zn42 2.067 . S
O52 C50 1.270 . S
C53 O46 1.262 . S
C53 O54 1.232 1_554 S
O54 C53 1.232 1_556 S
C55 O47 1.260 . S
C55 O48 1.257 . S
Zn56 O59 2.031 1_556 S
Zn56 O61 2.049 . S
Zn56 O66 2.067 . S
Zn57 O58 1.962 . S
Zn57 O60 1.986 1_554 S
Zn57 O62 1.996 1_554 S
Zn57 O65 1.943 . S
O58 Zn57 1.962 . S
O58 C63 1.254 . S
O59 Zn56 2.031 1_554 S
O59 C63 1.269 . S
O60 Zn57 1.986 1_556 S
O60 C67 1.262 1_556 S
O61 Zn56 2.049 . S
O61 C69 1.260 . S
O62 Zn57 1.996 1_556 S
O62 C69 1.257 . S
C63 O58 1.254 . S
C63 O59 1.269 . S
C64 O65 1.248 . S
C64 O66 1.271 1_554 S
O65 Zn57 1.943 . S
O65 C64 1.248 . S
O66 Zn56 2.067 . S
O66 C64 1.271 1_556 S
C67 O60 1.262 1_554 S
C67 O68 1.232 . S
O68 C67 1.232 . S
C69 O61 1.260 . S
C69 O62 1.257 . S
Zn70 O73 2.031 1_556 S
Zn70 O75 2.049 . S
Zn70 O80 2.067 . S
Zn71 O72 1.962 . S
Zn71 O74 1.986 1_554 S
Zn71 O76 1.996 1_554 S
Zn71 O79 1.943 . S
O72 Zn71 1.962 . S
O72 C77 1.254 . S
O73 Zn70 2.031 1_554 S
O73 C77 1.269 . S
O74 Zn71 1.986 1_556 S
O74 C81 1.262 1_556 S
O75 Zn70 2.049 . S
O75 C83 1.260 . S
O76 Zn71 1.996 1_556 S
O76 C83 1.257 . S
C77 O72 1.254 . S
C77 O73 1.269 . S
C78 O79 1.248 . S
C78 O80 1.271 1_554 S
O79 Zn71 1.943 . S
O79 C78 1.248 . S
O80 Zn70 2.067 . S
O80 C78 1.271 1_556 S
C81 O74 1.262 1_554 S
C81 O82 1.232 . S
O82 C81 1.232 . S
C83 O75 1.260 . S
C83 O76 1.257 . S
Zn84 O87 2.031 1_556 S
Zn84 O89 2.049 . S
Zn84 O94 2.067 . S
Zn85 O86 1.962 . S
Zn85 O88 1.986 1_554 S
Zn85 O90 1.996 1_554 S
Zn85 O93 1.943 . S
O86 Zn85 1.962 . S
O86 C91 1.254 . S
O87 Zn84 2.031 1_554 S
O87 C91 1.269 . S
O88 Zn85 1.986 1_556 S
O88 C95 1.262 1_556 S
O89 Zn84 2.049 . S
O89 C97 1.260 . S
O90 Zn85 1.996 1_556 S
O90 C97 1.257 . S
C91 O86 1.254 . S
C91 O87 1.269 . S
C92 O93 1.248 . S
C92 O94 1.271 1_554 S
O93 Zn85 1.943 . S
O93 C92 1.248 . S
O94 Zn84 2.067 . S
O94 C92 1.271 1_556 S
C95 O88 1.262 1_554 S
C95 O96 1.232 . S
O96 C95 1.232 . S
C97 O89 1.260 . S
C97 O90 1.257 . S
Zn98 O101 2.031 1_556 S
Zn98 O103 2.049 . S
Zn98 O108 2.067 . S
Zn99 O100 1.962 . S
Zn99 O102 1.986 1_554 S
Zn99 O104 1.996 1_554 S
Zn99 O107 1.943 . S
O100 Zn99 1.962 . S
O100 C105 1.254 . S
O101 Zn98 2.031 1_554 S
O101 C105 1.269 . S
O102 Zn99 1.986 1_556 S
O102 C109 1.262 1_556 S
O103 Zn98 2.049 . S
O103 C111 1.260 . S
O104 Zn99 1.996 1_556 S
O104 C111 1.257 . S
C105 O100 1.254 . S
C105 O101 1.269 . S
C106 O107 1.248 . S
C106 O108 1.271 1_554 S
O107 Zn99 1.943 . S
O107 C106 1.248 . S
O108 Zn98 2.067 . S
O108 C106 1.271 1_556 S
C109 O102 1.262 1_554 S
C109 O110 1.232 . S
O110 C109 1.232 . S
C111 O103 1.260 . S
C111 O104 1.257 . S
Zn112 O115 2.031 . S
Zn112 O117 2.049 . S
Zn112 O122 2.067 . S
Zn113 O114 1.962 . S
Zn113 O116 1.986 . S
Zn113 O118 1.996 . S
Zn113 O121 1.943 . S
O114 Zn113 1.962 . S
O114 C119 1.254 . S
O115 Zn112 2.031 . S
O115 C119 1.269 . S
O116 Zn113 1.986 . S
O116 C123 1.262 . S
O117 Zn112 2.049 . S
O117 C125 1.260 . S
O118 Zn113 1.996 . S
O118 C125 1.257 . S
C119 O114 1.254 . S
C119 O115 1.269 . S
C120 O121 1.249 . S
C120 O122 1.270 . S
O121 Zn113 1.943 . S
O121 C120 1.249 . S
O122 Zn112 2.067 . S
O122 C120 1.270 . S
C123 O116 1.262 . S
C123 O124 1.232 . S
O124 C123 1.232 . S
C125 O117 1.260 . S
C125 O118 1.257 . S
Zn126 O129 2.031 . S
Zn126 O131 2.049 . S
Zn126 O136 2.067 . S
Zn127 O128 1.962 . S
Zn127 O130 1.986 . S
Zn127 O132 1.996 . S
Zn127 O135 1.943 . S
O128 Zn127 1.962 . S
O128 C133 1.254 . S
O129 Zn126 2.031 . S
O129 C133 1.269 . S
O130 Zn127 1.986 . S
O130 C137 1.262 . S
O131 Zn126 2.049 . S
O131 C139 1.260 . S
O132 Zn127 1.996 . S
O132 C139 1.257 . S
C133 O128 1.254 . S
C133 O129 1.269 . S
C134 O135 1.249 . S
C134 O136 1.270 . S
O135 Zn127 1.943 . S
O135 C134 1.249 . S
O136 Zn126 2.067 . S
O136 C134 1.270 . S
C137 O130 1.262 . S
C137 O138 1.232 . S
O138 C137 1.232 . S
C139 O131 1.260 . S
C139 O132 1.257 . S
Zn140 O143 2.031 . S
Zn140 O145 2.049 . S
Zn140 O150 2.067 . S
Zn141 O142 1.962 . S
Zn141 O144 1.986 . S
Zn141 O146 1.996 . S
Zn141 O149 1.943 . S
O142 Zn141 1.962 . S
O142 C147 1.254 . S
O143 Zn140 2.031 . S
O143 C147 1.269 . S
O144 Zn141 1.986 . S
O144 C151 1.262 . S
O145 Zn140 2.049 . S
O145 C153 1.260 . S
O146 Zn141 1.996 . S
O146 C153 1.257 . S
C147 O142 1.254 . S
C147 O143 1.269 . S
C148 O149 1.249 . S
C148 O150 1.270 . S
O149 Zn141 1.943 . S
O149 C148 1.249 . S
O150 Zn140 2.067 . S
O150 C148 1.270 . S
C151 O144 1.262 . S
C151 O152 1.232 . S
O152 C151 1.232 . S
C153 O145 1.260 . S
C153 O146 1.257 . S
Zn154 O157 2.031 . S
Zn154 O159 2.049 . S
Zn154 O164 2.067 . S
Zn155 O156 1.962 . S
Zn155 O158 1.986 . S
Zn155 O160 1.996 . S
Zn155 O163 1.943 . S
O156 Zn155 1.962 . S
O156 C161 1.254 . S
O157 Zn154 2.031 . S
O157 C161 1.269 . S
O158 Zn155 1.986 . S
O158 C165 1.262 . S
O159 Zn154 2.049 . S
O159 C167 1.260 . S
O160 Zn155 1.996 . S
O160 C167 1.257 . S
C161 O156 1.254 . S
C161 O157 1.269 . S
C162 O163 1.249 . S
C162 O164 1.270 . S
O163 Zn155 1.943 . S
O163 C162 1.249 . S
O164 Zn154 2.067 . S
O164 C162 1.270 . S
C165 O158 1.262 . S
C165 O166 1.232 . S
O166 C165 1.232 . S
C167 O159 1.260 . S
C167 O160 1.257 . S
Zn168 O171 2.031 . S
Zn168 O173 2.049 . S
Zn168 O178 2.067 . S
Zn169 O170 1.962 . S
Zn169 O172 1.986 . S
Zn169 O174 1.996 . S
Zn169 O177 1.943 . S
O170 Zn169 1.962 . S
O170 C175 1.254 . S
O171 Zn168 2.031 . S
O171 C175 1.269 . S
O172 Zn169 1.986 . S
O172 C179 1.262 . S
O173 Zn168 2.049 . S
O173 C181 1.260 . S
O174 Zn169 1.996 . S
O174 C181 1.257 . S
C175 O170 1.254 . S
C175 O171 1.269 . S
C176 O177 1.249 . S
C176 O178 1.270 . S
O177 Zn169 1.943 . S
O177 C176 1.249 . S
O178 Zn168 2.067 . S
O178 C176 1.270 . S
C179 O172 1.262 . S
C179 O180 1.232 . S
O180 C179 1.232 . S
C181 O173 1.260 . S
C181 O174 1.257 . S
Zn182 O185 2.031 . S
Zn182 O187 2.049 . S
Zn182 O192 2.067 . S
Zn183 O184 1.962 . S
Zn183 O186 1.986 . S
Zn183 O188 1.996 . S
Zn183 O191 1.943 . S
O184 Zn183 1.962 . S
O184 C189 1.254 . S
O185 Zn182 2.031 . S
O185 C189 1.269 . S
O186 Zn183 1.986 . S
O186 C193 1.262 . S
O187 Zn182 2.049 . S
O187 C195 1.260 . S
O188 Zn183 1.996 . S
O188 C195 1.257 . S
C189 O184 1.254 . S
C189 O185 1.269 . S
C190 O191 1.249 . S
C190 O192 1.270 . S
O191 Zn183 1.943 . S
O191 C190 1.249 . S
O192 Zn182 2.067 . S
O192 C190 1.270 . S
C193 O186 1.262 . S
C193 O194 1.232 . S
O194 C193 1.232 . S
C195 O187 1.260 . S
C195 O188 1.257 . S
Zn196 O199 2.031 . S
Zn196 O201 2.049 . S
Zn196 O206 2.067 . S
Zn197 O198 1.962 . S
Zn197 O200 1.986 . S
Zn197 O202 1.996 . S
Zn197 O205 1.943 . S
O198 Zn197 1.962 . S
O198 C203 1.254 . S
O199 Zn196 2.031 . S
O199 C203 1.269 . S
O200 Zn197 1.986 . S
O200 C207 1.262 . S
O201 Zn196 2.049 . S
O201 C209 1.260 . S
O202 Zn197 1.996 . S
O202 C209 1.257 . S
C203 O198 1.254 . S
C203 O199 1.269 . S
C204 O205 1.249 . S
C204 O206 1.270 . S
O205 Zn197 1.943 . S
O205 C204 1.249 . S
O206 Zn196 2.067 . S
O206 C204 1.270 . S
C207 O200 1.262 . S
C207 O208 1.232 . S
O208 C207 1.232 . S
C209 O201 1.260 . S
C209 O202 1.257 . S
Zn210 O213 2.031 . S
Zn210 O215 2.049 . S
Zn210 O220 2.067 . S
Zn211 O212 1.962 . S
Zn211 O214 1.986 . S
Zn211 O216 1.996 . S
Zn211 O219 1.943 . S
O212 Zn211 1.962 . S
O212 C217 1.254 . S
O213 Zn210 2.031 . S
O213 C217 1.269 . S
O214 Zn211 1.986 . S
O214 C221 1.262 . S
O215 Zn210 2.049 . S
O215 C223 1.260 . S
O216 Zn211 1.996 . S
O216 C223 1.257 . S
C217 O212 1.254 . S
C217 O213 1.269 . S
C218 O219 1.249 . S
C218 O220 1.270 . S
O219 Zn211 1.943 . S
O219 C218 1.249 . S
O220 Zn210 2.067 . S
O220 C218 1.270 . S
C221 O214 1.262 . S
C221 O222 1.232 . S
O222 C221 1.232 . S
C223 O215 1.260 . S
C223 O216 1.257 . S
H224 C242 0.951 . S
H225 C244 0.951 . S
H226 C246 0.950 . S
H227 C247 0.950 . S
H228 C249 0.950 . S
H229 C252 0.950 1_556 S
H230 C253 0.950 . S
H231 C255 0.950 . S
H232 C256 0.950 . S
H233 C257 0.951 . S
H234 C259 0.951 . S
H235 C261 0.950 . S
H236 C262 0.950 . S
H237 C264 0.950 . S
H238 C267 0.950 1_554 S
H239 C268 0.950 . S
H240 C270 0.950 . S
H241 C271 0.950 . S
C242 H224 0.951 . S
C242 C243 1.366 . S
C242 C244 1.388 . S
C243 C242 1.366 . S
C243 C247 1.385 1_554 S
C244 H225 0.951 . S
C244 C242 1.388 . S
C244 C245 1.366 . S
C245 C244 1.366 . S
C245 C246 1.414 1_554 S
C245 C248 1.499 . S
C246 H226 0.950 . S
C246 C245 1.414 1_556 S
C246 C247 1.374 . S
C247 H227 0.950 . S
C247 C243 1.385 1_556 S
C247 C246 1.374 . S
C248 C245 1.499 . S
C248 C249 1.373 1_554 S
C248 C250 1.389 . S
C249 H228 0.950 . S
C249 C248 1.373 1_556 S
C249 C265 1.377 . S
C250 C248 1.389 . S
C250 C251 1.524 . S
C250 C264 1.377 . S
C251 C250 1.524 . S
C251 C252 1.397 . S
C251 C256 1.363 . S
C252 H229 0.950 1_554 S
C252 C251 1.397 . S
C252 C253 1.334 . S
C253 H230 0.950 . S
C253 C252 1.334 . S
C253 C254 1.287 . S
C254 C253 1.287 . S
C254 C255 1.524 . S
C254 H273 0.913 . S
C255 H231 0.950 . S
C255 C254 1.524 . S
C255 C256 1.415 . S
C256 H232 0.950 . S
C256 C251 1.363 . S
C256 C255 1.415 . S
C257 H233 0.951 . S
C257 C258 1.366 1_556 S
C257 C259 1.388 . S
C258 C257 1.366 1_554 S
C258 C262 1.385 . S
C259 H234 0.951 . S
C259 C257 1.388 . S
C259 C260 1.366 1_556 S
C260 C259 1.366 1_554 S
C260 C261 1.414 . S
C260 C263 1.499 . S
C261 H235 0.950 . S
C261 C260 1.414 . S
C261 C262 1.374 . S
C262 H236 0.950 . S
C262 C258 1.385 . S
C262 C261 1.374 . S
C263 C260 1.499 . S
C263 C264 1.373 . S
C263 C265 1.389 1_554 S
C264 H237 0.950 . S
C264 C250 1.377 . S
C264 C263 1.373 . S
C265 C249 1.377 . S
C265 C263 1.389 1_556 S
C265 C266 1.524 . S
C266 C265 1.524 . S
C266 C267 1.397 . S
C266 C271 1.363 . S
C267 H238 0.950 1_556 S
C267 C266 1.397 . S
C267 C268 1.334 . S
C268 H239 0.950 . S
C268 C267 1.334 . S
C268 C269 1.287 . S
C269 C268 1.287 . S
C269 C270 1.524 . S
C269 H272 0.999 . S
C270 H240 0.950 . S
C270 C269 1.524 . S
C270 C271 1.415 . S
C271 H241 0.950 . S
C271 C266 1.363 . S
C271 C270 1.415 . S
H272 C269 0.999 . S
H273 C254 0.913 . S
H274 C292 0.951 . S
H275 C294 0.951 . S
H276 C296 0.950 . S
H277 C297 0.950 . S
H278 C299 0.950 . S
H279 C302 0.950 . S
H280 C303 0.950 . S
H281 C305 0.950 . S
H282 C306 0.950 . S
H283 C307 0.951 . S
H284 C309 0.951 . S
H285 C311 0.950 . S
H286 C312 0.950 . S
H287 C314 0.950 . S
H288 C317 0.950 . S
H289 C318 0.950 . S
H290 C320 0.950 . S
H291 C321 0.950 . S
C292 H274 0.951 . S
C292 C293 1.366 . S
C292 C294 1.388 . S
C293 C292 1.366 . S
C293 C297 1.385 1_554 S
C294 H275 0.951 . S
C294 C292 1.388 . S
C294 C295 1.366 . S
C295 C294 1.366 . S
C295 C296 1.414 1_554 S
C295 C298 1.499 . S
C296 H276 0.950 . S
C296 C295 1.414 1_556 S
C296 C297 1.374 . S
C297 H277 0.950 . S
C297 C293 1.385 1_556 S
C297 C296 1.374 . S
C298 C295 1.499 . S
C298 C299 1.373 1_554 S
C298 C300 1.389 . S
C299 H278 0.950 . S
C299 C298 1.373 1_556 S
C299 C315 1.377 . S
C300 C298 1.389 . S
C300 C301 1.524 . S
C300 C314 1.377 . S
C301 C300 1.524 . S
C301 C302 1.397 . S
C301 C306 1.363 . S
C302 H279 0.950 . S
C302 C301 1.397 . S
C302 C303 1.334 . S
C303 H280 0.950 . S
C303 C302 1.334 . S
C303 C304 1.287 . S
C304 C303 1.287 . S
C304 C305 1.524 . S
C304 H323 0.913 . S
C305 H281 0.950 . S
C305 C304 1.524 . S
C305 C306 1.415 . S
C306 H282 0.950 . S
C306 C301 1.363 . S
C306 C305 1.415 . S
C307 H283 0.951 . S
C307 C308 1.366 1_556 S
C307 C309 1.388 . S
C308 C307 1.366 1_554 S
C308 C312 1.385 . S
C309 H284 0.951 . S
C309 C307 1.388 . S
C309 C310 1.366 1_556 S
C310 C309 1.366 1_554 S
C310 C311 1.414 . S
C310 C313 1.499 . S
C311 H285 0.950 . S
C311 C310 1.414 . S
C311 C312 1.374 . S
C312 H286 0.950 . S
C312 C308 1.385 . S
C312 C311 1.374 . S
C313 C310 1.499 . S
C313 C314 1.373 . S
C313 C315 1.389 1_554 S
C314 H287 0.950 . S
C314 C300 1.377 . S
C314 C313 1.373 . S
C315 C299 1.377 . S
C315 C313 1.389 1_556 S
C315 C316 1.524 . S
C316 C315 1.524 . S
C316 C317 1.397 . S
C316 C321 1.363 . S
C317 H288 0.950 . S
C317 C316 1.397 . S
C317 C318 1.334 . S
C318 H289 0.950 . S
C318 C317 1.334 . S
C318 C319 1.287 . S
C319 C318 1.287 . S
C319 C320 1.524 . S
C319 H322 0.999 . S
C320 H290 0.950 . S
C320 C319 1.524 . S
C320 C321 1.415 . S
C321 H291 0.950 . S
C321 C316 1.363 . S
C321 C320 1.415 . S
H322 C319 0.999 . S
H323 C304 0.913 . S
H324 C342 0.951 . S
H325 C344 0.951 . S
H326 C346 0.950 . S
H327 C347 0.950 . S
H328 C349 0.950 . S
H329 C352 0.950 . S
H330 C353 0.950 . S
H331 C355 0.950 . S
H332 C356 0.950 . S
H333 C357 0.951 . S
H334 C359 0.951 . S
H335 C361 0.950 . S
H336 C362 0.950 . S
H337 C364 0.950 . S
H338 C367 0.950 . S
H339 C368 0.950 . S
H340 C370 0.950 . S
H341 C371 0.950 . S
C342 H324 0.951 . S
C342 C343 1.366 . S
C342 C344 1.388 . S
C343 C342 1.366 . S
C343 C347 1.385 1_554 S
C344 H325 0.951 . S
C344 C342 1.388 . S
C344 C345 1.383 . S
C345 C344 1.383 . S
C345 C346 1.397 1_554 S
C345 C348 1.499 . S
C346 H326 0.950 . S
C346 C345 1.397 1_556 S
C346 C347 1.374 . S
C347 H327 0.950 . S
C347 C343 1.385 1_556 S
C347 C346 1.374 . S
C348 C345 1.499 . S
C348 C349 1.373 1_554 S
C348 C350 1.390 . S
C349 H328 0.950 . S
C349 C348 1.373 1_556 S
C349 C365 1.377 1_556 S
C350 C348 1.390 . S
C350 C351 1.526 . S
C350 C364 1.377 . S
C351 C350 1.526 . S
C351 C352 1.375 1_554 S
C351 C356 1.381 . S
C352 H329 0.950 . S
C352 C351 1.375 1_556 S
C352 C353 1.334 . S
C353 H330 0.950 . S
C353 C352 1.334 . S
C353 C354 1.287 . S
C354 C353 1.287 . S
C354 C355 1.524 1_556 S
C354 H373 0.913 . S
C355 H331 0.950 . S
C355 C354 1.524 1_554 S
C355 C356 1.415 . S
C356 H332 0.950 . S
C356 C351 1.381 . S
C356 C355 1.415 . S
C357 H333 0.951 . S
C357 C358 1.366 1_556 S
C357 C359 1.388 . S
C358 C357 1.366 1_554 S
C358 C362 1.385 . S
C359 H334 0.951 . S
C359 C357 1.388 . S
C359 C360 1.366 1_556 S
C360 C359 1.366 1_554 S
C360 C361 1.414 . S
C360 C363 1.499 . S
C361 H335 0.950 . S
C361 C360 1.414 . S
C361 C362 1.374 . S
C362 H336 0.950 . S
C362 C358 1.385 . S
C362 C361 1.374 . S
C363 C360 1.499 . S
C363 C364 1.373 . S
C363 C365 1.389 . S
C364 H337 0.950 . S
C364 C350 1.377 . S
C364 C363 1.373 . S
C365 C349 1.377 1_554 S
C365 C363 1.389 . S
C365 C366 1.524 . S
C366 C365 1.524 . S
C366 C367 1.397 . S
C366 C371 1.363 1_554 S
C367 H338 0.950 . S
C367 C366 1.397 . S
C367 C368 1.334 . S
C368 H339 0.950 . S
C368 C367 1.334 . S
C368 C369 1.287 . S
C369 C368 1.287 . S
C369 C370 1.524 1_554 S
C369 H372 0.999 . S
C370 H340 0.950 . S
C370 C369 1.524 1_556 S
C370 C371 1.415 . S
C371 H341 0.950 . S
C371 C366 1.363 1_556 S
C371 C370 1.415 . S
H372 C369 0.999 . S
H373 C354 0.913 . S
H374 C392 0.951 . S
H375 C394 0.951 . S
H376 C396 0.950 . S
H377 C397 0.950 . S
H378 C399 0.950 . S
H379 C402 0.950 . S
H380 C403 0.950 . S
H381 C405 0.950 . S
H382 C406 0.950 . S
H383 C407 0.951 . S
H384 C409 0.951 . S
H385 C411 0.950 . S
H386 C412 0.950 . S
H387 C414 0.950 . S
H388 C417 0.950 . S
H389 C418 0.950 . S
H390 C420 0.950 . S
H391 C421 0.950 . S
C392 H374 0.951 . S
C392 C393 1.366 1_556 S
C392 C394 1.388 . S
C393 C392 1.366 1_554 S
C393 C397 1.385 . S
C394 H375 0.951 . S
C394 C392 1.388 . S
C394 C395 1.366 1_556 S
C395 C394 1.366 1_554 S
C395 C396 1.414 . S
C395 C398 1.499 . S
C396 H376 0.950 . S
C396 C395 1.414 . S
C396 C397 1.374 . S
C397 H377 0.950 . S
C397 C393 1.385 . S
C397 C396 1.374 . S
C398 C395 1.499 . S
C398 C399 1.373 . S
C398 C400 1.389 1_554 S
C399 H378 0.950 . S
C399 C398 1.373 . S
C399 C415 1.377 . S
C400 C398 1.389 1_556 S
C400 C401 1.524 . S
C400 C414 1.377 . S
C401 C400 1.524 . S
C401 C402 1.397 . S
C401 C406 1.363 . S
C402 H379 0.950 . S
C402 C401 1.397 . S
C402 C403 1.334 . S
C403 H380 0.950 . S
C403 C402 1.334 . S
C403 C404 1.287 . S
C404 C403 1.287 . S
C404 C405 1.524 . S
C404 H423 0.913 . S
C405 H381 0.950 . S
C405 C404 1.524 . S
C405 C406 1.415 . S
C406 H382 0.950 . S
C406 C401 1.363 . S
C406 C405 1.415 . S
C407 H383 0.951 . S
C407 C408 1.366 . S
C407 C409 1.388 . S
C408 C407 1.366 . S
C408 C412 1.385 1_554 S
C409 H384 0.951 . S
C409 C407 1.388 . S
C409 C410 1.366 . S
C410 C409 1.366 . S
C410 C411 1.414 1_554 S
C410 C413 1.499 . S
C411 H385 0.950 . S
C411 C410 1.414 1_556 S
C411 C412 1.374 . S
C412 H386 0.950 . S
C412 C408 1.385 1_556 S
C412 C411 1.374 . S
C413 C410 1.499 . S
C413 C414 1.373 1_554 S
C413 C415 1.389 . S
C414 H387 0.950 . S
C414 C400 1.377 . S
C414 C413 1.373 1_556 S
C415 C399 1.377 . S
C415 C413 1.389 . S
C415 C416 1.524 . S
C416 C415 1.524 . S
C416 C417 1.397 . S
C416 C421 1.363 . S
C417 H388 0.950 . S
C417 C416 1.397 . S
C417 C418 1.334 . S
C418 H389 0.950 . S
C418 C417 1.334 . S
C418 C419 1.287 . S
C419 C418 1.287 . S
C419 C420 1.524 . S
C419 H422 0.999 . S
C420 H390 0.950 . S
C420 C419 1.524 . S
C420 C421 1.415 . S
C421 H391 0.950 . S
C421 C416 1.363 . S
C421 C420 1.415 . S
H422 C419 0.999 . S
H423 C404 0.913 . S
H424 C442 0.951 . S
H425 C444 0.951 . S
H426 C446 0.950 . S
H427 C447 0.950 . S
H428 C449 0.950 . S
H429 C452 0.950 . S
H430 C453 0.950 . S
H431 C455 0.950 . S
H432 C456 0.950 . S
H433 C457 0.951 . S
H434 C459 0.951 . S
H435 C461 0.950 . S
H436 C462 0.950 . S
H437 C464 0.950 . S
H438 C467 0.950 . S
H439 C468 0.950 . S
H440 C470 0.950 . S
H441 C471 0.950 . S
C442 H424 0.951 . S
C442 C443 1.366 . S
C442 C444 1.388 . S
C443 C442 1.366 . S
C443 C447 1.385 . S
C444 H425 0.951 . S
C444 C442 1.388 . S
C444 C445 1.366 . S
C445 C444 1.366 . S
C445 C446 1.414 . S
C445 C448 1.499 . S
C446 H426 0.950 . S
C446 C445 1.414 . S
C446 C447 1.374 . S
C447 H427 0.950 . S
C447 C443 1.385 . S
C447 C446 1.374 . S
C448 C445 1.499 . S
C448 C449 1.373 . S
C448 C450 1.389 . S
C449 H428 0.950 . S
C449 C448 1.373 . S
C449 C465 1.377 1_545 S
C450 C448 1.389 . S
C450 C451 1.524 . S
C450 C464 1.377 1_545 S
C451 C450 1.524 . S
C451 C452 1.397 . S
C451 C456 1.363 . S
C452 H429 0.950 . S
C452 C451 1.397 . S
C452 C453 1.334 . S
C453 H430 0.950 . S
C453 C452 1.334 . S
C453 C454 1.287 . S
C454 C453 1.287 . S
C454 C455 1.524 . S
C454 H473 0.913 . S
C455 H431 0.950 . S
C455 C454 1.524 . S
C455 C456 1.415 . S
C456 H432 0.950 . S
C456 C451 1.363 . S
C456 C455 1.415 . S
C457 H433 0.951 . S
C457 C458 1.366 . S
C457 C459 1.388 . S
C458 C457 1.366 . S
C458 C462 1.385 . S
C459 H434 0.951 . S
C459 C457 1.388 . S
C459 C460 1.366 . S
C460 C459 1.366 . S
C460 C461 1.414 . S
C460 C463 1.499 . S
C461 H435 0.950 . S
C461 C460 1.414 . S
C461 C462 1.374 . S
C462 H436 0.950 . S
C462 C458 1.385 . S
C462 C461 1.374 . S
C463 C460 1.499 . S
C463 C464 1.373 . S
C463 C465 1.389 . S
C464 H437 0.950 . S
C464 C450 1.377 1_565 S
C464 C463 1.373 . S
C465 C449 1.377 1_565 S
C465 C463 1.389 . S
C465 C466 1.524 . S
C466 C465 1.524 . S
C466 C467 1.397 . S
C466 C471 1.363 . S
C467 H438 0.950 . S
C467 C466 1.397 . S
C467 C468 1.334 . S
C468 H439 0.950 . S
C468 C467 1.334 . S
C468 C469 1.287 . S
C469 C468 1.287 . S
C469 C470 1.524 . S
C469 H472 0.999 . S
C470 H440 0.950 . S
C470 C469 1.524 . S
C470 C471 1.415 . S
C471 H441 0.950 . S
C471 C466 1.363 . S
C471 C470 1.415 . S
H472 C469 0.999 . S
H473 C454 0.913 . S
H474 C492 0.951 . S
H475 C494 0.951 . S
H476 C496 0.950 . S
H477 C497 0.950 . S
H478 C499 0.950 . S
H479 C502 0.950 . S
H480 C503 0.950 . S
H481 C505 0.950 . S
H482 C506 0.950 . S
H483 C507 0.951 . S
H484 C509 0.951 . S
H485 C511 0.950 . S
H486 C512 0.950 . S
H487 C514 0.950 . S
H488 C517 0.950 . S
H489 C518 0.950 . S
H490 C520 0.950 . S
H491 C521 0.950 . S
C492 H474 0.951 . S
C492 C493 1.366 . S
C492 C494 1.388 . S
C493 C492 1.366 . S
C493 C497 1.385 . S
C494 H475 0.951 . S
C494 C492 1.388 . S
C494 C495 1.366 . S
C495 C494 1.366 . S
C495 C496 1.414 . S
C495 C498 1.499 . S
C496 H476 0.950 . S
C496 C495 1.414 . S
C496 C497 1.374 . S
C497 H477 0.950 . S
C497 C493 1.385 . S
C497 C496 1.374 . S
C498 C495 1.499 . S
C498 C499 1.373 . S
C498 C500 1.389 . S
C499 H478 0.950 . S
C499 C498 1.373 . S
C499 C515 1.377 1_655 S
C500 C498 1.389 . S
C500 C501 1.524 . S
C500 C514 1.377 1_655 S
C501 C500 1.524 . S
C501 C502 1.397 . S
C501 C506 1.363 . S
C502 H479 0.950 . S
C502 C501 1.397 . S
C502 C503 1.334 . S
C503 H480 0.950 . S
C503 C502 1.334 . S
C503 C504 1.287 . S
C504 C503 1.287 . S
C504 C505 1.524 . S
C504 H523 0.913 . S
C505 H481 0.950 . S
C505 C504 1.524 . S
C505 C506 1.415 . S
C506 H482 0.950 . S
C506 C501 1.363 . S
C506 C505 1.415 . S
C507 H483 0.951 . S
C507 C508 1.366 . S
C507 C509 1.388 . S
C508 C507 1.366 . S
C508 C512 1.385 . S
C509 H484 0.951 . S
C509 C507 1.388 . S
C509 C510 1.366 . S
C510 C509 1.366 . S
C510 C511 1.414 . S
C510 C513 1.499 . S
C511 H485 0.950 . S
C511 C510 1.414 . S
C511 C512 1.374 . S
C512 H486 0.950 . S
C512 C508 1.385 . S
C512 C511 1.374 . S
C513 C510 1.499 . S
C513 C514 1.373 . S
C513 C515 1.389 . S
C514 H487 0.950 . S
C514 C500 1.377 1_455 S
C514 C513 1.373 . S
C515 C499 1.377 1_455 S
C515 C513 1.389 . S
C515 C516 1.524 . S
C516 C515 1.524 . S
C516 C517 1.397 . S
C516 C521 1.363 . S
C517 H488 0.950 . S
C517 C516 1.397 . S
C517 C518 1.334 . S
C518 H489 0.950 . S
C518 C517 1.334 . S
C518 C519 1.287 . S
C519 C518 1.287 . S
C519 C520 1.524 . S
C519 H522 0.999 . S
C520 H490 0.950 . S
C520 C519 1.524 . S
C520 C521 1.415 . S
C521 H491 0.950 . S
C521 C516 1.363 . S
C521 C520 1.415 . S
H522 C519 0.999 . S
H523 C504 0.913 . S
H524 C542 0.951 . S
H525 C544 0.951 . S
H526 C546 0.950 . S
H527 C547 0.950 . S
H528 C549 0.950 . S
H529 C552 0.950 . S
H530 C553 0.950 . S
H531 C555 0.950 . S
H532 C556 0.950 . S
H533 C557 0.951 . S
H534 C559 0.951 . S
H535 C561 0.950 . S
H536 C562 0.950 . S
H537 C564 0.950 . S
H538 C567 0.950 . S
H539 C568 0.950 . S
H540 C570 0.950 . S
H541 C571 0.950 . S
C542 H524 0.951 . S
C542 C543 1.366 . S
C542 C544 1.388 . S
C543 C542 1.366 . S
C543 C547 1.385 . S
C544 H525 0.951 . S
C544 C542 1.388 . S
C544 C545 1.366 . S
C545 C544 1.366 . S
C545 C546 1.414 . S
C545 C548 1.499 . S
C546 H526 0.950 . S
C546 C545 1.414 . S
C546 C547 1.374 . S
C547 H527 0.950 . S
C547 C543 1.385 . S
C547 C546 1.374 . S
C548 C545 1.499 . S
C548 C549 1.373 . S
C548 C550 1.389 . S
C549 H528 0.950 . S
C549 C548 1.373 . S
C549 C565 1.377 1_545 S
C550 C548 1.389 . S
C550 C551 1.524 . S
C550 C564 1.377 1_545 S
C551 C550 1.524 . S
C551 C552 1.397 . S
C551 C556 1.363 . S
C552 H529 0.950 . S
C552 C551 1.397 . S
C552 C553 1.334 . S
C553 H530 0.950 . S
C553 C552 1.334 . S
C553 C554 1.287 . S
C554 C553 1.287 . S
C554 C555 1.524 . S
C554 H573 0.913 . S
C555 H531 0.950 . S
C555 C554 1.524 . S
C555 C556 1.415 . S
C556 H532 0.950 . S
C556 C551 1.363 . S
C556 C555 1.415 . S
C557 H533 0.951 . S
C557 C558 1.366 . S
C557 C559 1.388 . S
C558 C557 1.366 . S
C558 C562 1.385 . S
C559 H534 0.951 . S
C559 C557 1.388 . S
C559 C560 1.366 . S
C560 C559 1.366 . S
C560 C561 1.414 . S
C560 C563 1.499 . S
C561 H535 0.950 . S
C561 C560 1.414 . S
C561 C562 1.374 . S
C562 H536 0.950 . S
C562 C558 1.385 . S
C562 C561 1.374 . S
C563 C560 1.499 . S
C563 C564 1.373 . S
C563 C565 1.389 . S
C564 H537 0.950 . S
C564 C550 1.377 1_565 S
C564 C563 1.373 . S
C565 C549 1.377 1_565 S
C565 C563 1.389 . S
C565 C566 1.524 . S
C566 C565 1.524 . S
C566 C567 1.397 . S
C566 C571 1.363 . S
C567 H538 0.950 . S
C567 C566 1.397 . S
C567 C568 1.334 . S
C568 H539 0.950 . S
C568 C567 1.334 . S
C568 C569 1.287 . S
C569 C568 1.287 . S
C569 C570 1.524 . S
C569 H572 0.999 . S
C570 H540 0.950 . S
C570 C569 1.524 . S
C570 C571 1.415 . S
C571 H541 0.950 . S
C571 C566 1.363 . S
C571 C570 1.415 . S
H572 C569 0.999 . S
H573 C554 0.913 . S
H574 C592 0.951 . S
H575 C594 0.951 . S
H576 C596 0.950 . S
H577 C597 0.950 . S
H578 C599 0.950 . S
H579 C602 0.950 . S
H580 C603 0.950 . S
H581 C605 0.950 . S
H582 C606 0.950 . S
H583 C607 0.951 . S
H584 C609 0.951 . S
H585 C611 0.950 . S
H586 C612 0.950 . S
H587 C614 0.950 . S
H588 C617 0.950 . S
H589 C618 0.950 . S
H590 C620 0.950 . S
H591 C621 0.950 . S
C592 H574 0.951 . S
C592 C593 1.366 . S
C592 C594 1.388 . S
C593 C592 1.366 . S
C593 C597 1.385 . S
C594 H575 0.951 . S
C594 C592 1.388 . S
C594 C595 1.366 . S
C595 C594 1.366 . S
C595 C596 1.414 . S
C595 C598 1.499 . S
C596 H576 0.950 . S
C596 C595 1.414 . S
C596 C597 1.374 . S
C597 H577 0.950 . S
C597 C593 1.385 . S
C597 C596 1.374 . S
C598 C595 1.499 . S
C598 C599 1.373 . S
C598 C600 1.389 . S
C599 H578 0.950 . S
C599 C598 1.373 . S
C599 C615 1.377 1_455 S
C600 C598 1.389 . S
C600 C601 1.524 . S
C600 C614 1.377 1_455 S
C601 C600 1.524 . S
C601 C602 1.397 . S
C601 C606 1.363 . S
C602 H579 0.950 . S
C602 C601 1.397 . S
C602 C603 1.334 . S
C603 H580 0.950 . S
C603 C602 1.334 . S
C603 C604 1.287 . S
C604 C603 1.287 . S
C604 C605 1.524 . S
C604 H623 0.913 . S
C605 H581 0.950 . S
C605 C604 1.524 . S
C605 C606 1.415 . S
C606 H582 0.950 . S
C606 C601 1.363 . S
C606 C605 1.415 . S
C607 H583 0.951 . S
C607 C608 1.366 . S
C607 C609 1.388 . S
C608 C607 1.366 . S
C608 C612 1.385 . S
C609 H584 0.951 . S
C609 C607 1.388 . S
C609 C610 1.366 . S
C610 C609 1.366 . S
C610 C611 1.414 . S
C610 C613 1.499 . S
C611 H585 0.950 . S
C611 C610 1.414 . S
C611 C612 1.374 . S
C612 H586 0.950 . S
C612 C608 1.385 . S
C612 C611 1.374 . S
C613 C610 1.499 . S
C613 C614 1.373 . S
C613 C615 1.389 . S
C614 H587 0.950 . S
C614 C600 1.377 1_655 S
C614 C613 1.373 . S
C615 C599 1.377 1_655 S
C615 C613 1.389 . S
C615 C616 1.524 . S
C616 C615 1.524 . S
C616 C617 1.397 . S
C616 C621 1.363 . S
C617 H588 0.950 . S
C617 C616 1.397 . S
C617 C618 1.334 . S
C618 H589 0.950 . S
C618 C617 1.334 . S
C618 C619 1.287 . S
C619 C618 1.287 . S
C619 C620 1.524 . S
C619 H622 0.999 . S
C620 H590 0.950 . S
C620 C619 1.524 . S
C620 C621 1.415 . S
C621 H591 0.950 . S
C621 C616 1.363 . S
C621 C620 1.415 . S
H622 C619 0.999 . S
H623 C604 0.913 . S
H624 C642 0.951 . S
H625 C644 0.951 . S
H626 C646 0.950 . S
H627 C647 0.950 . S
H628 C649 0.950 . S
H629 C652 0.950 . S
H630 C653 0.950 . S
H631 C655 0.950 . S
H632 C656 0.950 . S
H633 C657 0.951 . S
H634 C659 0.951 . S
H635 C661 0.950 . S
H636 C662 0.950 . S
H637 C664 0.950 . S
H638 C667 0.950 . S
H639 C668 0.950 . S
H640 C670 0.950 . S
H641 C671 0.950 . S
C642 H624 0.951 . S
C642 C643 1.366 1_554 S
C642 C644 1.388 . S
C643 C642 1.366 1_556 S
C643 C647 1.384 . S
C644 H625 0.951 . S
C644 C642 1.388 . S
C644 C645 1.366 . S
C645 C644 1.366 . S
C645 C646 1.414 1_554 S
C645 C648 1.499 . S
C646 H626 0.950 . S
C646 C645 1.414 1_556 S
C646 C647 1.374 . S
C647 H627 0.950 . S
C647 C643 1.384 . S
C647 C646 1.374 . S
C648 C645 1.499 . S
C648 C649 1.373 1_554 S
C648 C650 1.389 . S
C649 H628 0.950 . S
C649 C648 1.373 1_556 S
C649 C665 1.377 . S
C650 C648 1.389 . S
C650 C651 1.524 . S
C650 C664 1.377 . S
C651 C650 1.524 . S
C651 C652 1.397 . S
C651 C656 1.363 . S
C652 H629 0.950 . S
C652 C651 1.397 . S
C652 C653 1.334 . S
C653 H630 0.950 . S
C653 C652 1.334 . S
C653 C654 1.287 . S
C654 C653 1.287 . S
C654 C655 1.524 . S
C654 H673 0.913 . S
C655 H631 0.950 . S
C655 C654 1.524 . S
C655 C656 1.415 . S
C656 H632 0.950 . S
C656 C651 1.363 . S
C656 C655 1.415 . S
C657 H633 0.951 . S
C657 C658 1.366 1_556 S
C657 C659 1.388 . S
C658 C657 1.366 1_554 S
C658 C662 1.385 . S
C659 H634 0.951 . S
C659 C657 1.388 . S
C659 C660 1.366 1_556 S
C660 C659 1.366 1_554 S
C660 C661 1.414 . S
C660 C663 1.499 . S
C661 H635 0.950 . S
C661 C660 1.414 . S
C661 C662 1.374 . S
C662 H636 0.950 . S
C662 C658 1.385 . S
C662 C661 1.374 . S
C663 C660 1.499 . S
C663 C664 1.373 . S
C663 C665 1.389 1_554 S
C664 H637 0.950 . S
C664 C650 1.377 . S
C664 C663 1.373 . S
C665 C649 1.377 . S
C665 C663 1.389 1_556 S
C665 C666 1.524 . S
C666 C665 1.524 . S
C666 C667 1.397 . S
C666 C671 1.363 . S
C667 H638 0.950 . S
C667 C666 1.397 . S
C667 C668 1.334 . S
C668 H639 0.950 . S
C668 C667 1.334 . S
C668 C669 1.287 . S
C669 C668 1.287 . S
C669 C670 1.524 . S
C669 H672 0.999 . S
C670 H640 0.950 . S
C670 C669 1.524 . S
C670 C671 1.415 . S
C671 H641 0.950 . S
C671 C666 1.363 . S
C671 C670 1.415 . S
H672 C669 0.999 . S
H673 C654 0.913 . S
H674 C692 0.951 . S
H675 C694 0.951 . S
H676 C696 0.950 . S
H677 C697 0.950 . S
H678 C699 0.950 . S
H679 C702 0.950 . S
H680 C703 0.950 . S
H681 C705 0.950 . S
H682 C706 0.950 . S
H683 C707 0.951 . S
H684 C709 0.951 . S
H685 C711 0.950 . S
H686 C712 0.950 . S
H687 C714 0.950 . S
H688 C717 0.950 . S
H689 C718 0.950 . S
H690 C720 0.950 . S
H691 C721 0.950 . S
C692 H674 0.951 . S
C692 C693 1.366 1_556 S
C692 C694 1.388 . S
C693 C692 1.366 1_554 S
C693 C697 1.385 . S
C694 H675 0.951 . S
C694 C692 1.388 . S
C694 C695 1.366 1_556 S
C695 C694 1.366 1_554 S
C695 C696 1.414 . S
C695 C698 1.499 . S
C696 H676 0.950 . S
C696 C695 1.414 . S
C696 C697 1.374 . S
C697 H677 0.950 . S
C697 C693 1.385 . S
C697 C696 1.374 . S
C698 C695 1.499 . S
C698 C699 1.373 1_554 S
C698 C700 1.389 . S
C699 H678 0.950 . S
C699 C698 1.373 1_556 S
C699 C715 1.377 . S
C700 C698 1.389 . S
C700 C701 1.524 . S
C700 C714 1.377 . S
C701 C700 1.524 . S
C701 C702 1.397 . S
C701 C706 1.363 . S
C702 H679 0.950 . S
C702 C701 1.397 . S
C702 C703 1.334 . S
C703 H680 0.950 . S
C703 C702 1.334 . S
C703 C704 1.287 . S
C704 C703 1.287 . S
C704 C705 1.524 . S
C704 H723 0.913 . S
C705 H681 0.950 . S
C705 C704 1.524 . S
C705 C706 1.415 . S
C706 H682 0.950 . S
C706 C701 1.363 . S
C706 C705 1.415 . S
C707 H683 0.951 . S
C707 C708 1.365 . S
C707 C709 1.388 . S
C708 C707 1.365 . S
C708 C712 1.385 1_554 S
C709 H684 0.951 . S
C709 C707 1.388 . S
C709 C710 1.363 1_554 S
C710 C709 1.363 1_556 S
C710 C711 1.416 . S
C710 C713 1.499 . S
C711 H685 0.950 . S
C711 C710 1.416 . S
C711 C712 1.374 . S
C712 H686 0.950 . S
C712 C708 1.385 1_556 S
C712 C711 1.374 . S
C713 C710 1.499 . S
C713 C714 1.374 1_556 S
C713 C715 1.389 . S
C714 H687 0.950 . S
C714 C700 1.377 . S
C714 C713 1.374 1_554 S
C715 C699 1.377 . S
C715 C713 1.389 . S
C715 C716 1.524 . S
C716 C715 1.524 . S
C716 C717 1.397 . S
C716 C721 1.363 . S
C717 H688 0.950 . S
C717 C716 1.397 . S
C717 C718 1.334 . S
C718 H689 0.950 . S
C718 C717 1.334 . S
C718 C719 1.287 . S
C719 C718 1.287 . S
C719 C720 1.524 . S
C719 H722 0.999 . S
C720 H690 0.950 . S
C720 C719 1.524 . S
C720 C721 1.415 . S
C721 H691 0.950 . S
C721 C716 1.363 . S
C721 C720 1.415 . S
H722 C719 0.999 . S
H723 C704 0.913 . S
H724 C742 0.951 . S
H725 C744 0.951 . S
H726 C746 0.950 . S
H727 C747 0.950 . S
H728 C749 0.950 . S
H729 C752 0.950 . S
H730 C753 0.950 . S
H731 C755 0.950 . S
H732 C756 0.950 . S
H733 C757 0.951 . S
H734 C759 0.951 . S
H735 C761 0.951 1_556 S
H736 C762 0.950 1_556 S
H737 C764 0.950 . S
H738 C767 0.950 . S
H739 C768 0.950 . S
H740 C770 0.950 . S
H741 C771 0.950 . S
C742 H724 0.951 . S
C742 C743 1.366 . S
C742 C744 1.388 . S
C743 C742 1.366 . S
C743 C747 1.385 1_556 S
C744 H725 0.951 . S
C744 C742 1.388 . S
C744 C745 1.366 1_556 S
C745 C744 1.366 1_554 S
C745 C746 1.414 . S
C745 C748 1.499 . S
C746 H726 0.950 . S
C746 C745 1.414 . S
C746 C747 1.374 . S
C747 H727 0.950 . S
C747 C743 1.385 1_554 S
C747 C746 1.374 . S
C748 C745 1.499 . S
C748 C749 1.373 1_554 S
C748 C750 1.389 . S
C749 H728 0.950 . S
C749 C748 1.373 1_556 S
C749 C765 1.377 . S
C750 C748 1.389 . S
C750 C751 1.524 . S
C750 C764 1.377 . S
C751 C750 1.524 . S
C751 C752 1.397 . S
C751 C756 1.363 . S
C752 H729 0.950 . S
C752 C751 1.397 . S
C752 C753 1.334 . S
C753 H730 0.950 . S
C753 C752 1.334 . S
C753 C754 1.287 . S
C754 C753 1.287 . S
C754 C755 1.524 . S
C754 H773 0.913 . S
C755 H731 0.950 . S
C755 C754 1.524 . S
C755 C756 1.415 . S
C756 H732 0.950 . S
C756 C751 1.363 . S
C756 C755 1.415 . S
C757 H733 0.951 . S
C757 C758 1.366 . S
C757 C759 1.388 . S
C758 C757 1.366 . S
C758 C762 1.385 . S
C759 H734 0.951 . S
C759 C757 1.388 . S
C759 C760 1.366 . S
C760 C759 1.366 . S
C760 C761 1.414 . S
C760 C763 1.499 . S
C761 H735 0.951 1_554 S
C761 C760 1.414 . S
C761 C762 1.374 . S
C762 H736 0.950 1_554 S
C762 C758 1.385 . S
C762 C761 1.374 . S
C763 C760 1.499 . S
C763 C764 1.373 . S
C763 C765 1.389 1_554 S
C764 H737 0.950 . S
C764 C750 1.377 . S
C764 C763 1.373 . S
C765 C749 1.377 . S
C765 C763 1.389 1_556 S
C765 C766 1.524 . S
C766 C765 1.524 . S
C766 C767 1.397 . S
C766 C771 1.363 . S
C767 H738 0.950 . S
C767 C766 1.397 . S
C767 C768 1.334 . S
C768 H739 0.950 . S
C768 C767 1.334 . S
C768 C769 1.287 . S
C769 C768 1.287 . S
C769 C770 1.524 . S
C769 H772 0.999 . S
C770 H740 0.950 . S
C770 C769 1.524 . S
C770 C771 1.415 . S
C771 H741 0.950 . S
C771 C766 1.363 . S
C771 C770 1.415 . S
H772 C769 0.999 . S
H773 C754 0.913 . S
H774 C792 0.951 . S
H775 C794 0.951 . S
H776 C796 0.950 . S
H777 C797 0.950 . S
H778 C799 0.950 . S
H779 C802 0.950 . S
H780 C803 0.950 . S
H781 C805 0.950 . S
H782 C806 0.950 . S
H783 C807 0.951 . S
H784 C809 0.951 . S
H785 C811 0.950 . S
H786 C812 0.950 . S
H787 C814 0.950 . S
H788 C817 0.950 . S
H789 C818 0.950 . S
H790 C820 0.950 . S
H791 C821 0.950 . S
C792 H774 0.951 . S
C792 C793 1.366 . S
C792 C794 1.388 . S
C793 C792 1.366 . S
C793 C797 1.385 1_554 S
C794 H775 0.951 . S
C794 C792 1.388 . S
C794 C795 1.366 . S
C795 C794 1.366 . S
C795 C796 1.414 1_554 S
C795 C798 1.499 . S
C796 H776 0.950 . S
C796 C795 1.414 1_556 S
C796 C797 1.374 . S
C797 H777 0.950 . S
C797 C793 1.385 1_556 S
C797 C796 1.374 . S
C798 C795 1.499 . S
C798 C799 1.373 1_554 S
C798 C800 1.389 . S
C799 H778 0.950 . S
C799 C798 1.373 1_556 S
C799 C815 1.377 . S
C800 C798 1.389 . S
C800 C801 1.524 . S
C800 C814 1.377 . S
C801 C800 1.524 . S
C801 C802 1.397 . S
C801 C806 1.363 . S
C802 H779 0.950 . S
C802 C801 1.397 . S
C802 C803 1.334 . S
C803 H780 0.950 . S
C803 C802 1.334 . S
C803 C804 1.287 . S
C804 C803 1.287 . S
C804 C805 1.524 . S
C804 H823 0.913 . S
C805 H781 0.950 . S
C805 C804 1.524 . S
C805 C806 1.415 . S
C806 H782 0.950 . S
C806 C801 1.363 . S
C806 C805 1.415 . S
C807 H783 0.951 . S
C807 C808 1.366 1_556 S
C807 C809 1.388 . S
C808 C807 1.366 1_554 S
C808 C812 1.384 . S
C809 H784 0.951 . S
C809 C807 1.388 . S
C809 C810 1.365 . S
C810 C809 1.365 . S
C810 C811 1.415 1_556 S
C810 C813 1.499 1_556 S
C811 H785 0.950 . S
C811 C810 1.415 1_554 S
C811 C812 1.374 . S
C812 H786 0.950 . S
C812 C808 1.384 . S
C812 C811 1.374 . S
C813 C810 1.499 1_554 S
C813 C814 1.373 . S
C813 C815 1.389 1_554 S
C814 H787 0.950 . S
C814 C800 1.377 . S
C814 C813 1.373 . S
C815 C799 1.377 . S
C815 C813 1.389 1_556 S
C815 C816 1.524 . S
C816 C815 1.524 . S
C816 C817 1.397 . S
C816 C821 1.363 . S
C817 H788 0.950 . S
C817 C816 1.397 . S
C817 C818 1.334 . S
C818 H789 0.950 . S
C818 C817 1.334 . S
C818 C819 1.287 . S
C819 C818 1.287 . S
C819 C820 1.524 . S
C819 H822 0.999 . S
C820 H790 0.950 . S
C820 C819 1.524 . S
C820 C821 1.415 . S
C821 H791 0.950 . S
C821 C816 1.363 . S
C821 C820 1.415 . S
H822 C819 0.999 . S
H823 C804 0.913 . S
H824 C842 0.951 . S
H825 C844 0.951 . S
H826 C846 0.950 . S
H827 C847 0.950 . S
H828 C849 0.950 . S
H829 C852 0.950 . S
H830 C853 0.950 . S
H831 C855 0.950 . S
H832 C856 0.950 . S
H833 C857 0.951 . S
H834 C859 0.951 . S
H835 C861 0.950 . S
H836 C862 0.950 . S
H837 C864 0.950 . S
H838 C867 0.950 . S
H839 C868 0.950 . S
H840 C870 0.950 . S
H841 C871 0.950 . S
C842 H824 0.951 . S
C842 C843 1.366 . S
C842 C844 1.388 . S
C843 C842 1.366 . S
C843 C847 1.385 . S
C844 H825 0.951 . S
C844 C842 1.388 . S
C844 C845 1.366 . S
C845 C844 1.366 . S
C845 C846 1.414 . S
C845 C848 1.499 . S
C846 H826 0.950 . S
C846 C845 1.414 . S
C846 C847 1.374 . S
C847 H827 0.950 . S
C847 C843 1.385 . S
C847 C846 1.374 . S
C848 C845 1.499 . S
C848 C849 1.373 . S
C848 C850 1.389 . S
C849 H828 0.950 . S
C849 C848 1.373 . S
C849 C865 1.377 . S
C850 C848 1.389 . S
C850 C851 1.524 . S
C850 C864 1.377 . S
C851 C850 1.524 . S
C851 C852 1.397 . S
C851 C856 1.363 . S
C852 H829 0.950 . S
C852 C851 1.397 . S
C852 C853 1.334 . S
C853 H830 0.950 . S
C853 C852 1.334 . S
C853 C854 1.287 . S
C854 C853 1.287 . S
C854 C855 1.524 . S
C854 H873 0.913 . S
C855 H831 0.950 . S
C855 C854 1.524 . S
C855 C856 1.415 . S
C856 H832 0.950 . S
C856 C851 1.363 . S
C856 C855 1.415 . S
C857 H833 0.951 . S
C857 C858 1.366 . S
C857 C859 1.388 . S
C858 C857 1.366 . S
C858 C862 1.385 . S
C859 H834 0.951 . S
C859 C857 1.388 . S
C859 C860 1.366 . S
C860 C859 1.366 . S
C860 C861 1.414 . S
C860 C863 1.499 . S
C861 H835 0.950 . S
C861 C860 1.414 . S
C861 C862 1.374 . S
C862 H836 0.950 . S
C862 C858 1.385 . S
C862 C861 1.374 . S
C863 C860 1.499 . S
C863 C864 1.373 . S
C863 C865 1.389 . S
C864 H837 0.950 . S
C864 C850 1.377 . S
C864 C863 1.373 . S
C865 C849 1.377 . S
C865 C863 1.389 . S
C865 C866 1.524 . S
C866 C865 1.524 . S
C866 C867 1.397 . S
C866 C871 1.363 . S
C867 H838 0.950 . S
C867 C866 1.397 . S
C867 C868 1.334 . S
C868 H839 0.950 . S
C868 C867 1.334 . S
C868 C869 1.287 . S
C869 C868 1.287 . S
C869 C870 1.524 . S
C869 H872 0.999 . S
C870 H840 0.950 . S
C870 C869 1.524 . S
C870 C871 1.415 . S
C871 H841 0.950 . S
C871 C866 1.363 . S
C871 C870 1.415 . S
H872 C869 0.999 . S
H873 C854 0.913 . S
H874 C892 0.951 . S
H875 C894 0.951 . S
H876 C896 0.950 . S
H877 C897 0.950 . S
H878 C899 0.950 . S
H879 C902 0.950 . S
H880 C903 0.950 . S
H881 C905 0.950 . S
H882 C906 0.950 . S
H883 C907 0.951 . S
H884 C909 0.951 . S
H885 C911 0.950 . S
H886 C912 0.950 . S
H887 C914 0.950 . S
H888 C917 0.950 . S
H889 C918 0.950 . S
H890 C920 0.950 . S
H891 C921 0.950 . S
C892 H874 0.951 . S
C892 C893 1.366 . S
C892 C894 1.388 . S
C893 C892 1.366 . S
C893 C897 1.385 . S
C894 H875 0.951 . S
C894 C892 1.388 . S
C894 C895 1.366 . S
C895 C894 1.366 . S
C895 C896 1.414 . S
C895 C898 1.499 . S
C896 H876 0.950 . S
C896 C895 1.414 . S
C896 C897 1.374 . S
C897 H877 0.950 . S
C897 C893 1.385 . S
C897 C896 1.374 . S
C898 C895 1.499 . S
C898 C899 1.373 . S
C898 C900 1.389 . S
C899 H878 0.950 . S
C899 C898 1.373 . S
C899 C915 1.377 . S
C900 C898 1.389 . S
C900 C901 1.524 . S
C900 C914 1.377 . S
C901 C900 1.524 . S
C901 C902 1.397 . S
C901 C906 1.363 . S
C902 H879 0.950 . S
C902 C901 1.397 . S
C902 C903 1.334 . S
C903 H880 0.950 . S
C903 C902 1.334 . S
C903 C904 1.287 . S
C904 C903 1.287 . S
C904 C905 1.524 . S
C904 H923 0.913 . S
C905 H881 0.950 . S
C905 C904 1.524 . S
C905 C906 1.415 . S
C906 H882 0.950 . S
C906 C901 1.363 . S
C906 C905 1.415 . S
C907 H883 0.951 . S
C907 C908 1.366 . S
C907 C909 1.388 . S
C908 C907 1.366 . S
C908 C912 1.385 . S
C909 H884 0.951 . S
C909 C907 1.388 . S
C909 C910 1.366 . S
C910 C909 1.366 . S
C910 C911 1.414 . S
C910 C913 1.499 . S
C911 H885 0.950 . S
C911 C910 1.414 . S
C911 C912 1.374 . S
C912 H886 0.950 . S
C912 C908 1.385 . S
C912 C911 1.374 . S
C913 C910 1.499 . S
C913 C914 1.373 . S
C913 C915 1.389 . S
C914 H887 0.950 . S
C914 C900 1.377 . S
C914 C913 1.373 . S
C915 C899 1.377 . S
C915 C913 1.389 . S
C915 C916 1.524 . S
C916 C915 1.524 . S
C916 C917 1.397 . S
C916 C921 1.363 . S
C917 H888 0.950 . S
C917 C916 1.397 . S
C917 C918 1.334 . S
C918 H889 0.950 . S
C918 C917 1.334 . S
C918 C919 1.287 . S
C919 C918 1.287 . S
C919 C920 1.524 . S
C919 H922 0.999 . S
C920 H890 0.950 . S
C920 C919 1.524 . S
C920 C921 1.415 . S
C921 H891 0.950 . S
C921 C916 1.363 . S
C921 C920 1.415 . S
H922 C919 0.999 . S
H923 C904 0.913 . S
H924 C942 0.951 . S
H925 C944 0.951 . S
H926 C946 0.950 . S
H927 C947 0.950 . S
H928 C949 0.950 . S
H929 C952 0.950 . S
H930 C953 0.950 . S
H931 C955 0.950 . S
H932 C956 0.950 . S
H933 C957 0.951 . S
H934 C959 0.951 . S
H935 C961 0.950 . S
H936 C962 0.950 . S
H937 C964 0.950 . S
H938 C967 0.950 . S
H939 C968 0.950 . S
H940 C970 0.950 . S
H941 C971 0.950 . S
C942 H924 0.951 . S
C942 C943 1.366 . S
C942 C944 1.388 . S
C943 C942 1.366 . S
C943 C947 1.385 . S
C944 H925 0.951 . S
C944 C942 1.388 . S
C944 C945 1.366 . S
C945 C944 1.366 . S
C945 C946 1.414 . S
C945 C948 1.499 . S
C946 H926 0.950 . S
C946 C945 1.414 . S
C946 C947 1.374 . S
C947 H927 0.950 . S
C947 C943 1.385 . S
C947 C946 1.374 . S
C948 C945 1.499 . S
C948 C949 1.373 . S
C948 C950 1.389 . S
C949 H928 0.950 . S
C949 C948 1.373 . S
C949 C965 1.377 . S
C950 C948 1.389 . S
C950 C951 1.524 . S
C950 C964 1.377 . S
C951 C950 1.524 . S
C951 C952 1.397 . S
C951 C956 1.363 . S
C952 H929 0.950 . S
C952 C951 1.397 . S
C952 C953 1.334 . S
C953 H930 0.950 . S
C953 C952 1.334 . S
C953 C954 1.287 . S
C954 C953 1.287 . S
C954 C955 1.524 . S
C954 H973 0.913 . S
C955 H931 0.950 . S
C955 C954 1.524 . S
C955 C956 1.415 . S
C956 H932 0.950 . S
C956 C951 1.363 . S
C956 C955 1.415 . S
C957 H933 0.951 . S
C957 C958 1.366 . S
C957 C959 1.388 . S
C958 C957 1.366 . S
C958 C962 1.385 . S
C959 H934 0.951 . S
C959 C957 1.388 . S
C959 C960 1.366 . S
C960 C959 1.366 . S
C960 C961 1.414 . S
C960 C963 1.499 . S
C961 H935 0.950 . S
C961 C960 1.414 . S
C961 C962 1.374 . S
C962 H936 0.950 . S
C962 C958 1.385 . S
C962 C961 1.374 . S
C963 C960 1.499 . S
C963 C964 1.373 . S
C963 C965 1.389 . S
C964 H937 0.950 . S
C964 C950 1.377 . S
C964 C963 1.373 . S
C965 C949 1.377 . S
C965 C963 1.389 . S
C965 C966 1.524 . S
C966 C965 1.524 . S
C966 C967 1.397 . S
C966 C971 1.363 . S
C967 H938 0.950 . S
C967 C966 1.397 . S
C967 C968 1.334 . S
C968 H939 0.950 . S
C968 C967 1.334 . S
C968 C969 1.287 . S
C969 C968 1.287 . S
C969 C970 1.524 . S
C969 H972 0.999 . S
C970 H940 0.950 . S
C970 C969 1.524 . S
C970 C971 1.415 . S
C971 H941 0.950 . S
C971 C966 1.363 . S
C971 C970 1.415 . S
H972 C969 0.999 . S
H973 C954 0.913 . S
H974 C992 0.951 . S
H975 C994 0.951 . S
H976 C996 0.950 . S
H977 C997 0.950 . S
H978 C999 0.950 . S
H979 C1002 0.950 . S
H980 C1003 0.950 . S
H981 C1005 0.950 . S
H982 C1006 0.950 . S
H983 C1007 0.951 . S
H984 C1009 0.951 . S
H985 C1011 0.950 . S
H986 C1012 0.950 . S
H987 C1014 0.950 . S
H988 C1017 0.950 . S
H989 C1018 0.950 . S
H990 C1020 0.950 . S
H991 C1021 0.950 . S
C992 H974 0.951 . S
C992 C993 1.366 . S
C992 C994 1.388 . S
C993 C992 1.366 . S
C993 C997 1.385 . S
C994 H975 0.951 . S
C994 C992 1.388 . S
C994 C995 1.366 . S
C995 C994 1.366 . S
C995 C996 1.414 . S
C995 C998 1.499 . S
C996 H976 0.950 . S
C996 C995 1.414 . S
C996 C997 1.374 . S
C997 H977 0.950 . S
C997 C993 1.385 . S
C997 C996 1.374 . S
C998 C995 1.499 . S
C998 C999 1.373 . S
C998 C1000 1.389 . S
C999 H978 0.950 . S
C999 C998 1.373 . S
C999 C1015 1.377 . S
C1000 C998 1.389 . S
C1000 C1001 1.524 . S
C1000 C1014 1.377 . S
C1001 C1000 1.524 . S
C1001 C1002 1.397 . S
C1001 C1006 1.363 . S
C1002 H979 0.950 . S
C1002 C1001 1.397 . S
C1002 C1003 1.334 . S
C1003 H980 0.950 . S
C1003 C1002 1.334 . S
C1003 C1004 1.287 . S
C1004 C1003 1.287 . S
C1004 C1005 1.524 . S
C1004 H1023 0.913 . S
C1005 H981 0.950 . S
C1005 C1004 1.524 . S
C1005 C1006 1.415 . S
C1006 H982 0.950 . S
C1006 C1001 1.363 . S
C1006 C1005 1.415 . S
C1007 H983 0.951 . S
C1007 C1008 1.366 . S
C1007 C1009 1.388 . S
C1008 C1007 1.366 . S
C1008 C1012 1.385 . S
C1009 H984 0.951 . S
C1009 C1007 1.388 . S
C1009 C1010 1.366 . S
C1010 C1009 1.366 . S
C1010 C1011 1.414 . S
C1010 C1013 1.499 . S
C1011 H985 0.950 . S
C1011 C1010 1.414 . S
C1011 C1012 1.374 . S
C1012 H986 0.950 . S
C1012 C1008 1.385 . S
C1012 C1011 1.374 . S
C1013 C1010 1.499 . S
C1013 C1014 1.373 . S
C1013 C1015 1.389 . S
C1014 H987 0.950 . S
C1014 C1000 1.377 . S
C1014 C1013 1.373 . S
C1015 C999 1.377 . S
C1015 C1013 1.389 . S
C1015 C1016 1.524 . S
C1016 C1015 1.524 . S
C1016 C1017 1.397 . S
C1016 C1021 1.363 . S
C1017 H988 0.950 . S
C1017 C1016 1.397 . S
C1017 C1018 1.334 . S
C1018 H989 0.950 . S
C1018 C1017 1.334 . S
C1018 C1019 1.287 . S
C1019 C1018 1.287 . S
C1019 C1020 1.524 . S
C1019 H1022 0.999 . S
C1020 H990 0.950 . S
C1020 C1019 1.524 . S
C1020 C1021 1.415 . S
C1021 H991 0.950 . S
C1021 C1016 1.363 . S
C1021 C1020 1.415 . S
H1022 C1019 0.999 . S
H1023 C1004 0.913 . S
H1024 C1042 0.951 . S
H1025 C1044 0.951 . S
H1026 C1046 0.950 . S
H1027 C1047 0.950 . S
H1028 C1049 0.950 . S
H1029 C1052 0.950 . S
H1030 C1053 0.950 . S
H1031 C1055 0.950 . S
H1032 C1056 0.950 . S
H1033 C1057 0.951 . S
H1034 C1059 0.951 . S
H1035 C1061 0.950 . S
H1036 C1062 0.950 . S
H1037 C1064 0.950 . S
H1038 C1067 0.950 . S
H1039 C1068 0.950 . S
H1040 C1070 0.950 . S
H1041 C1071 0.950 . S
C1042 H1024 0.951 . S
C1042 C1043 1.366 . S
C1042 C1044 1.388 . S
C1043 C1042 1.366 . S
C1043 C1047 1.385 . S
C1044 H1025 0.951 . S
C1044 C1042 1.388 . S
C1044 C1045 1.366 . S
C1045 C1044 1.366 . S
C1045 C1046 1.414 . S
C1045 C1048 1.499 . S
C1046 H1026 0.950 . S
C1046 C1045 1.414 . S
C1046 C1047 1.374 . S
C1047 H1027 0.950 . S
C1047 C1043 1.385 . S
C1047 C1046 1.374 . S
C1048 C1045 1.499 . S
C1048 C1049 1.373 . S
C1048 C1050 1.389 . S
C1049 H1028 0.950 . S
C1049 C1048 1.373 . S
C1049 C1065 1.377 . S
C1050 C1048 1.389 . S
C1050 C1051 1.524 . S
C1050 C1064 1.377 . S
C1051 C1050 1.524 . S
C1051 C1052 1.397 . S
C1051 C1056 1.363 . S
C1052 H1029 0.950 . S
C1052 C1051 1.397 . S
C1052 C1053 1.334 . S
C1053 H1030 0.950 . S
C1053 C1052 1.334 . S
C1053 C1054 1.287 . S
C1054 C1053 1.287 . S
C1054 C1055 1.524 . S
C1054 H1073 0.913 . S
C1055 H1031 0.950 . S
C1055 C1054 1.524 . S
C1055 C1056 1.415 . S
C1056 H1032 0.950 . S
C1056 C1051 1.363 . S
C1056 C1055 1.415 . S
C1057 H1033 0.951 . S
C1057 C1058 1.366 . S
C1057 C1059 1.388 . S
C1058 C1057 1.366 . S
C1058 C1062 1.385 . S
C1059 H1034 0.951 . S
C1059 C1057 1.388 . S
C1059 C1060 1.366 . S
C1060 C1059 1.366 . S
C1060 C1061 1.414 . S
C1060 C1063 1.499 . S
C1061 H1035 0.950 . S
C1061 C1060 1.414 . S
C1061 C1062 1.374 . S
C1062 H1036 0.950 . S
C1062 C1058 1.385 . S
C1062 C1061 1.374 . S
C1063 C1060 1.499 . S
C1063 C1064 1.373 . S
C1063 C1065 1.389 . S
C1064 H1037 0.950 . S
C1064 C1050 1.377 . S
C1064 C1063 1.373 . S
C1065 C1049 1.377 . S
C1065 C1063 1.389 . S
C1065 C1066 1.524 . S
C1066 C1065 1.524 . S
C1066 C1067 1.397 . S
C1066 C1071 1.363 . S
C1067 H1038 0.950 . S
C1067 C1066 1.397 . S
C1067 C1068 1.334 . S
C1068 H1039 0.950 . S
C1068 C1067 1.334 . S
C1068 C1069 1.287 . S
C1069 C1068 1.287 . S
C1069 C1070 1.524 . S
C1069 H1072 0.999 . S
C1070 H1040 0.950 . S
C1070 C1069 1.524 . S
C1070 C1071 1.415 . S
C1071 H1041 0.950 . S
C1071 C1066 1.363 . S
C1071 C1070 1.415 . S
H1072 C1069 0.999 . S
H1073 C1054 0.913 . S
H1074 C1092 0.951 . S
H1075 C1094 0.951 . S
H1076 C1096 0.950 . S
H1077 C1097 0.950 . S
H1078 C1099 0.950 . S
H1079 C1102 0.950 . S
H1080 C1103 0.950 . S
H1081 C1105 0.950 . S
H1082 C1106 0.950 . S
H1083 C1107 0.951 . S
H1084 C1109 0.951 . S
H1085 C1111 0.950 . S
H1086 C1112 0.950 . S
H1087 C1114 0.950 . S
H1088 C1117 0.950 . S
H1089 C1118 0.950 . S
H1090 C1120 0.950 . S
H1091 C1121 0.950 . S
C1092 H1074 0.951 . S
C1092 C1093 1.366 . S
C1092 C1094 1.388 . S
C1093 C1092 1.366 . S
C1093 C1097 1.385 . S
C1094 H1075 0.951 . S
C1094 C1092 1.388 . S
C1094 C1095 1.366 . S
C1095 C1094 1.366 . S
C1095 C1096 1.414 . S
C1095 C1098 1.499 . S
C1096 H1076 0.950 . S
C1096 C1095 1.414 . S
C1096 C1097 1.374 . S
C1097 H1077 0.950 . S
C1097 C1093 1.385 . S
C1097 C1096 1.374 . S
C1098 C1095 1.499 . S
C1098 C1099 1.373 . S
C1098 C1100 1.389 . S
C1099 H1078 0.950 . S
C1099 C1098 1.373 . S
C1099 C1115 1.377 . S
C1100 C1098 1.389 . S
C1100 C1101 1.524 . S
C1100 C1114 1.377 . S
C1101 C1100 1.524 . S
C1101 C1102 1.397 . S
C1101 C1106 1.363 . S
C1102 H1079 0.950 . S
C1102 C1101 1.397 . S
C1102 C1103 1.334 . S
C1103 H1080 0.950 . S
C1103 C1102 1.334 . S
C1103 C1104 1.287 . S
C1104 C1103 1.287 . S
C1104 C1105 1.524 . S
C1104 H1123 0.913 . S
C1105 H1081 0.950 . S
C1105 C1104 1.524 . S
C1105 C1106 1.415 . S
C1106 H1082 0.950 . S
C1106 C1101 1.363 . S
C1106 C1105 1.415 . S
C1107 H1083 0.951 . S
C1107 C1108 1.366 . S
C1107 C1109 1.388 . S
C1108 C1107 1.366 . S
C1108 C1112 1.385 . S
C1109 H1084 0.951 . S
C1109 C1107 1.388 . S
C1109 C1110 1.366 . S
C1110 C1109 1.366 . S
C1110 C1111 1.414 . S
C1110 C1113 1.499 . S
C1111 H1085 0.950 . S
C1111 C1110 1.414 . S
C1111 C1112 1.374 . S
C1112 H1086 0.950 . S
C1112 C1108 1.385 . S
C1112 C1111 1.374 . S
C1113 C1110 1.499 . S
C1113 C1114 1.373 . S
C1113 C1115 1.389 . S
C1114 H1087 0.950 . S
C1114 C1100 1.377 . S
C1114 C1113 1.373 . S
C1115 C1099 1.377 . S
C1115 C1113 1.389 . S
C1115 C1116 1.524 . S
C1116 C1115 1.524 . S
C1116 C1117 1.397 . S
C1116 C1121 1.363 . S
C1117 H1088 0.950 . S
C1117 C1116 1.397 . S
C1117 C1118 1.334 . S
C1118 H1089 0.950 . S
C1118 C1117 1.334 . S
C1118 C1119 1.287 . S
C1119 C1118 1.287 . S
C1119 C1120 1.524 . S
C1119 H1122 0.999 . S
C1120 H1090 0.950 . S
C1120 C1119 1.524 . S
C1120 C1121 1.415 . S
C1121 H1091 0.950 . S
C1121 C1116 1.363 . S
C1121 C1120 1.415 . S
H1122 C1119 0.999 . S
H1123 C1104 0.913 . S
H1124 C1142 0.951 . S
H1125 C1144 0.951 . S
H1126 C1146 0.950 . S
H1127 C1147 0.950 . S
H1128 C1149 0.950 . S
H1129 C1152 0.950 . S
H1130 C1153 0.950 . S
H1131 C1155 0.950 . S
H1132 C1156 0.950 . S
H1133 C1157 0.951 . S
H1134 C1159 0.951 . S
H1135 C1161 0.950 . S
H1136 C1162 0.950 . S
H1137 C1164 0.950 . S
H1138 C1167 0.950 . S
H1139 C1168 0.950 . S
H1140 C1170 0.950 . S
H1141 C1171 0.950 . S
C1142 H1124 0.951 . S
C1142 C1143 1.366 . S
C1142 C1144 1.388 . S
C1143 C1142 1.366 . S
C1143 C1147 1.385 . S
C1144 H1125 0.951 . S
C1144 C1142 1.388 . S
C1144 C1145 1.366 . S
C1145 C1144 1.366 . S
C1145 C1146 1.414 . S
C1145 C1148 1.499 . S
C1146 H1126 0.950 . S
C1146 C1145 1.414 . S
C1146 C1147 1.374 . S
C1147 H1127 0.950 . S
C1147 C1143 1.385 . S
C1147 C1146 1.374 . S
C1148 C1145 1.499 . S
C1148 C1149 1.373 . S
C1148 C1150 1.389 . S
C1149 H1128 0.950 . S
C1149 C1148 1.373 . S
C1149 C1165 1.377 . S
C1150 C1148 1.389 . S
C1150 C1151 1.524 . S
C1150 C1164 1.377 . S
C1151 C1150 1.524 . S
C1151 C1152 1.397 . S
C1151 C1156 1.363 . S
C1152 H1129 0.950 . S
C1152 C1151 1.397 . S
C1152 C1153 1.334 . S
C1153 H1130 0.950 . S
C1153 C1152 1.334 . S
C1153 C1154 1.287 . S
C1154 C1153 1.287 . S
C1154 C1155 1.524 . S
C1154 H1173 0.913 . S
C1155 H1131 0.950 . S
C1155 C1154 1.524 . S
C1155 C1156 1.415 . S
C1156 H1132 0.950 . S
C1156 C1151 1.363 . S
C1156 C1155 1.415 . S
C1157 H1133 0.951 . S
C1157 C1158 1.366 . S
C1157 C1159 1.388 . S
C1158 C1157 1.366 . S
C1158 C1162 1.385 . S
C1159 H1134 0.951 . S
C1159 C1157 1.388 . S
C1159 C1160 1.366 . S
C1160 C1159 1.366 . S
C1160 C1161 1.414 . S
C1160 C1163 1.499 . S
C1161 H1135 0.950 . S
C1161 C1160 1.414 . S
C1161 C1162 1.374 . S
C1162 H1136 0.950 . S
C1162 C1158 1.385 . S
C1162 C1161 1.374 . S
C1163 C1160 1.499 . S
C1163 C1164 1.373 . S
C1163 C1165 1.389 . S
C1164 H1137 0.950 . S
C1164 C1150 1.377 . S
C1164 C1163 1.373 . S
C1165 C1149 1.377 . S
C1165 C1163 1.389 . S
C1165 C1166 1.524 . S
C1166 C1165 1.524 . S
C1166 C1167 1.397 . S
C1166 C1171 1.363 . S
C1167 H1138 0.950 . S
C1167 C1166 1.397 . S
C1167 C1168 1.334 . S
C1168 H1139 0.950 . S
C1168 C1167 1.334 . S
C1168 C1169 1.287 . S
C1169 C1168 1.287 . S
C1169 C1170 1.524 . S
C1169 H1172 0.999 . S
C1170 H1140 0.950 . S
C1170 C1169 1.524 . S
C1170 C1171 1.415 . S
C1171 H1141 0.950 . S
C1171 C1166 1.363 . S
C1171 C1170 1.415 . S
H1172 C1169 0.999 . S
H1173 C1154 0.913 . S
H1174 C1192 0.951 . S
H1175 C1194 0.951 . S
H1176 C1196 0.950 . S
H1177 C1197 0.950 . S
H1178 C1199 0.950 . S
H1179 C1202 0.950 . S
H1180 C1203 0.950 . S
H1181 C1205 0.950 . S
H1182 C1206 0.950 . S
H1183 C1207 0.951 . S
H1184 C1209 0.951 . S
H1185 C1211 0.950 . S
H1186 C1212 0.950 . S
H1187 C1214 0.950 . S
H1188 C1217 0.950 . S
H1189 C1218 0.950 . S
H1190 C1220 0.950 . S
H1191 C1221 0.950 . S
C1192 H1174 0.951 . S
C1192 C1193 1.366 . S
C1192 C1194 1.388 . S
C1193 C1192 1.366 . S
C1193 C1197 1.385 . S
C1194 H1175 0.951 . S
C1194 C1192 1.388 . S
C1194 C1195 1.366 . S
C1195 C1194 1.366 . S
C1195 C1196 1.414 . S
C1195 C1198 1.499 . S
C1196 H1176 0.950 . S
C1196 C1195 1.414 . S
C1196 C1197 1.374 . S
C1197 H1177 0.950 . S
C1197 C1193 1.385 . S
C1197 C1196 1.374 . S
C1198 C1195 1.499 . S
C1198 C1199 1.373 . S
C1198 C1200 1.389 . S
C1199 H1178 0.950 . S
C1199 C1198 1.373 . S
C1199 C1215 1.377 . S
C1200 C1198 1.389 . S
C1200 C1201 1.524 . S
C1200 C1214 1.377 . S
C1201 C1200 1.524 . S
C1201 C1202 1.397 . S
C1201 C1206 1.363 . S
C1202 H1179 0.950 . S
C1202 C1201 1.397 . S
C1202 C1203 1.334 . S
C1203 H1180 0.950 . S
C1203 C1202 1.334 . S
C1203 C1204 1.287 . S
C1204 C1203 1.287 . S
C1204 C1205 1.524 . S
C1204 H1223 0.913 . S
C1205 H1181 0.950 . S
C1205 C1204 1.524 . S
C1205 C1206 1.415 . S
C1206 H1182 0.950 . S
C1206 C1201 1.363 . S
C1206 C1205 1.415 . S
C1207 H1183 0.951 . S
C1207 C1208 1.366 . S
C1207 C1209 1.388 . S
C1208 C1207 1.366 . S
C1208 C1212 1.385 . S
C1209 H1184 0.951 . S
C1209 C1207 1.388 . S
C1209 C1210 1.366 . S
C1210 C1209 1.366 . S
C1210 C1211 1.414 . S
C1210 C1213 1.499 . S
C1211 H1185 0.950 . S
C1211 C1210 1.414 . S
C1211 C1212 1.374 . S
C1212 H1186 0.950 . S
C1212 C1208 1.385 . S
C1212 C1211 1.374 . S
C1213 C1210 1.499 . S
C1213 C1214 1.373 . S
C1213 C1215 1.389 . S
C1214 H1187 0.950 . S
C1214 C1200 1.377 . S
C1214 C1213 1.373 . S
C1215 C1199 1.377 . S
C1215 C1213 1.389 . S
C1215 C1216 1.524 . S
C1216 C1215 1.524 . S
C1216 C1217 1.397 . S
C1216 C1221 1.363 . S
C1217 H1188 0.950 . S
C1217 C1216 1.397 . S
C1217 C1218 1.334 . S
C1218 H1189 0.950 . S
C1218 C1217 1.334 . S
C1218 C1219 1.287 . S
C1219 C1218 1.287 . S
C1219 C1220 1.524 . S
C1219 H1222 0.999 . S
C1220 H1190 0.950 . S
C1220 C1219 1.524 . S
C1220 C1221 1.415 . S
C1221 H1191 0.950 . S
C1221 C1216 1.363 . S
C1221 C1220 1.415 . S
H1222 C1219 0.999 . S
H1223 C1204 0.913 . S
H1224 C1242 0.951 . S
H1225 C1244 0.951 . S
H1226 C1246 0.950 . S
H1227 C1247 0.950 . S
H1228 C1249 0.950 . S
H1229 C1252 0.950 . S
H1230 C1253 0.950 . S
H1231 C1255 0.950 . S
H1232 C1256 0.950 . S
H1233 C1257 0.951 . S
H1234 C1259 0.951 . S
H1235 C1261 0.950 . S
H1236 C1262 0.950 . S
H1237 C1264 0.950 . S
H1238 C1267 0.950 . S
H1239 C1268 0.950 . S
H1240 C1270 0.950 . S
H1241 C1271 0.950 . S
C1242 H1224 0.951 . S
C1242 C1243 1.366 . S
C1242 C1244 1.388 . S
C1243 C1242 1.366 . S
C1243 C1247 1.385 . S
C1244 H1225 0.951 . S
C1244 C1242 1.388 . S
C1244 C1245 1.366 . S
C1245 C1244 1.366 . S
C1245 C1246 1.414 . S
C1245 C1248 1.499 . S
C1246 H1226 0.950 . S
C1246 C1245 1.414 . S
C1246 C1247 1.374 . S
C1247 H1227 0.950 . S
C1247 C1243 1.385 . S
C1247 C1246 1.374 . S
C1248 C1245 1.499 . S
C1248 C1249 1.373 . S
C1248 C1250 1.389 . S
C1249 H1228 0.950 . S
C1249 C1248 1.373 . S
C1249 C1265 1.377 . S
C1250 C1248 1.389 . S
C1250 C1251 1.524 . S
C1250 C1264 1.377 . S
C1251 C1250 1.524 . S
C1251 C1252 1.397 . S
C1251 C1256 1.363 . S
C1252 H1229 0.950 . S
C1252 C1251 1.397 . S
C1252 C1253 1.334 . S
C1253 H1230 0.950 . S
C1253 C1252 1.334 . S
C1253 C1254 1.287 . S
C1254 C1253 1.287 . S
C1254 C1255 1.524 . S
C1254 H1273 0.913 . S
C1255 H1231 0.950 . S
C1255 C1254 1.524 . S
C1255 C1256 1.415 . S
C1256 H1232 0.950 . S
C1256 C1251 1.363 . S
C1256 C1255 1.415 . S
C1257 H1233 0.951 . S
C1257 C1258 1.366 . S
C1257 C1259 1.388 . S
C1258 C1257 1.366 . S
C1258 C1262 1.385 . S
C1259 H1234 0.951 . S
C1259 C1257 1.388 . S
C1259 C1260 1.366 . S
C1260 C1259 1.366 . S
C1260 C1261 1.414 . S
C1260 C1263 1.499 . S
C1261 H1235 0.950 . S
C1261 C1260 1.414 . S
C1261 C1262 1.374 . S
C1262 H1236 0.950 . S
C1262 C1258 1.385 . S
C1262 C1261 1.374 . S
C1263 C1260 1.499 . S
C1263 C1264 1.373 . S
C1263 C1265 1.389 . S
C1264 H1237 0.950 . S
C1264 C1250 1.377 . S
C1264 C1263 1.373 . S
C1265 C1249 1.377 . S
C1265 C1263 1.389 . S
C1265 C1266 1.524 . S
C1266 C1265 1.524 . S
C1266 C1267 1.397 . S
C1266 C1271 1.363 . S
C1267 H1238 0.950 . S
C1267 C1266 1.397 . S
C1267 C1268 1.334 . S
C1268 H1239 0.950 . S
C1268 C1267 1.334 . S
C1268 C1269 1.287 . S
C1269 C1268 1.287 . S
C1269 C1270 1.524 . S
C1269 H1272 0.999 . S
C1270 H1240 0.950 . S
C1270 C1269 1.524 . S
C1270 C1271 1.415 . S
C1271 H1241 0.950 . S
C1271 C1266 1.363 . S
C1271 C1270 1.415 . S
H1272 C1269 0.999 . S
H1273 C1254 0.913 . S
H1274 C1292 0.951 . S
H1275 C1294 0.951 . S
H1276 C1296 0.950 . S
H1277 C1297 0.950 . S
H1278 C1299 0.950 . S
H1279 C1302 0.950 . S
H1280 C1303 0.950 . S
H1281 C1305 0.950 . S
H1282 C1306 0.950 . S
H1283 C1307 0.951 . S
H1284 C1309 0.951 . S
H1285 C1311 0.950 . S
H1286 C1312 0.950 . S
H1287 C1314 0.950 . S
H1288 C1317 0.950 . S
H1289 C1318 0.950 . S
H1290 C1320 0.950 . S
H1291 C1321 0.950 . S
C1292 H1274 0.951 . S
C1292 C1293 1.366 . S
C1292 C1294 1.388 . S
C1293 C1292 1.366 . S
C1293 C1297 1.385 . S
C1294 H1275 0.951 . S
C1294 C1292 1.388 . S
C1294 C1295 1.366 . S
C1295 C1294 1.366 . S
C1295 C1296 1.414 . S
C1295 C1298 1.499 . S
C1296 H1276 0.950 . S
C1296 C1295 1.414 . S
C1296 C1297 1.374 . S
C1297 H1277 0.950 . S
C1297 C1293 1.385 . S
C1297 C1296 1.374 . S
C1298 C1295 1.499 . S
C1298 C1299 1.373 . S
C1298 C1300 1.389 . S
C1299 H1278 0.950 . S
C1299 C1298 1.373 . S
C1299 C1315 1.377 . S
C1300 C1298 1.389 . S
C1300 C1301 1.524 . S
C1300 C1314 1.377 . S
C1301 C1300 1.524 . S
C1301 C1302 1.397 . S
C1301 C1306 1.363 . S
C1302 H1279 0.950 . S
C1302 C1301 1.397 . S
C1302 C1303 1.334 . S
C1303 H1280 0.950 . S
C1303 C1302 1.334 . S
C1303 C1304 1.287 . S
C1304 C1303 1.287 . S
C1304 C1305 1.524 . S
C1304 H1323 0.913 . S
C1305 H1281 0.950 . S
C1305 C1304 1.524 . S
C1305 C1306 1.415 . S
C1306 H1282 0.950 . S
C1306 C1301 1.363 . S
C1306 C1305 1.415 . S
C1307 H1283 0.951 . S
C1307 C1308 1.366 . S
C1307 C1309 1.388 . S
C1308 C1307 1.366 . S
C1308 C1312 1.385 . S
C1309 H1284 0.951 . S
C1309 C1307 1.388 . S
C1309 C1310 1.366 . S
C1310 C1309 1.366 . S
C1310 C1311 1.414 . S
C1310 C1313 1.499 . S
C1311 H1285 0.950 . S
C1311 C1310 1.414 . S
C1311 C1312 1.374 . S
C1312 H1286 0.950 . S
C1312 C1308 1.385 . S
C1312 C1311 1.374 . S
C1313 C1310 1.499 . S
C1313 C1314 1.373 . S
C1313 C1315 1.389 . S
C1314 H1287 0.950 . S
C1314 C1300 1.377 . S
C1314 C1313 1.373 . S
C1315 C1299 1.377 . S
C1315 C1313 1.389 . S
C1315 C1316 1.524 . S
C1316 C1315 1.524 . S
C1316 C1317 1.397 . S
C1316 C1321 1.363 . S
C1317 H1288 0.950 . S
C1317 C1316 1.397 . S
C1317 C1318 1.334 . S
C1318 H1289 0.950 . S
C1318 C1317 1.334 . S
C1318 C1319 1.287 . S
C1319 C1318 1.287 . S
C1319 C1320 1.524 . S
C1319 H1322 0.999 . S
C1320 H1290 0.950 . S
C1320 C1319 1.524 . S
C1320 C1321 1.415 . S
C1321 H1291 0.950 . S
C1321 C1316 1.363 . S
C1321 C1320 1.415 . S
H1322 C1319 0.999 . S
H1323 C1304 0.913 . S
H1324 C1342 0.951 . S
H1325 C1344 0.951 . S
H1326 C1346 0.950 . S
H1327 C1347 0.950 . S
H1328 C1349 0.950 . S
H1329 C1352 0.950 . S
H1330 C1353 0.950 . S
H1331 C1355 0.950 . S
H1332 C1356 0.950 . S
H1333 C1357 0.951 . S
H1334 C1359 0.951 . S
H1335 C1361 0.950 . S
H1336 C1362 0.950 . S
H1337 C1364 0.950 . S
H1338 C1367 0.950 . S
H1339 C1368 0.950 . S
H1340 C1370 0.950 . S
H1341 C1371 0.950 . S
C1342 H1324 0.951 . S
C1342 C1343 1.366 . S
C1342 C1344 1.388 . S
C1343 C1342 1.366 . S
C1343 C1347 1.385 . S
C1344 H1325 0.951 . S
C1344 C1342 1.388 . S
C1344 C1345 1.366 . S
C1345 C1344 1.366 . S
C1345 C1346 1.414 . S
C1345 C1348 1.499 . S
C1346 H1326 0.950 . S
C1346 C1345 1.414 . S
C1346 C1347 1.374 . S
C1347 H1327 0.950 . S
C1347 C1343 1.385 . S
C1347 C1346 1.374 . S
C1348 C1345 1.499 . S
C1348 C1349 1.373 . S
C1348 C1350 1.389 . S
C1349 H1328 0.950 . S
C1349 C1348 1.373 . S
C1349 C1365 1.377 . S
C1350 C1348 1.389 . S
C1350 C1351 1.524 . S
C1350 C1364 1.377 . S
C1351 C1350 1.524 . S
C1351 C1352 1.397 . S
C1351 C1356 1.363 . S
C1352 H1329 0.950 . S
C1352 C1351 1.397 . S
C1352 C1353 1.334 . S
C1353 H1330 0.950 . S
C1353 C1352 1.334 . S
C1353 C1354 1.287 . S
C1354 C1353 1.287 . S
C1354 C1355 1.524 . S
C1354 H1373 0.913 . S
C1355 H1331 0.950 . S
C1355 C1354 1.524 . S
C1355 C1356 1.415 . S
C1356 H1332 0.950 . S
C1356 C1351 1.363 . S
C1356 C1355 1.415 . S
C1357 H1333 0.951 . S
C1357 C1358 1.366 . S
C1357 C1359 1.388 . S
C1358 C1357 1.366 . S
C1358 C1362 1.385 . S
C1359 H1334 0.951 . S
C1359 C1357 1.388 . S
C1359 C1360 1.366 . S
C1360 C1359 1.366 . S
C1360 C1361 1.414 . S
C1360 C1363 1.499 . S
C1361 H1335 0.950 . S
C1361 C1360 1.414 . S
C1361 C1362 1.374 . S
C1362 H1336 0.950 . S
C1362 C1358 1.385 . S
C1362 C1361 1.374 . S
C1363 C1360 1.499 . S
C1363 C1364 1.373 . S
C1363 C1365 1.389 . S
C1364 H1337 0.950 . S
C1364 C1350 1.377 . S
C1364 C1363 1.373 . S
C1365 C1349 1.377 . S
C1365 C1363 1.389 . S
C1365 C1366 1.524 . S
C1366 C1365 1.524 . S
C1366 C1367 1.397 . S
C1366 C1371 1.363 . S
C1367 H1338 0.950 . S
C1367 C1366 1.397 . S
C1367 C1368 1.334 . S
C1368 H1339 0.950 . S
C1368 C1367 1.334 . S
C1368 C1369 1.287 . S
C1369 C1368 1.287 . S
C1369 C1370 1.524 . S
C1369 H1372 0.999 . S
C1370 H1340 0.950 . S
C1370 C1369 1.524 . S
C1370 C1371 1.415 . S
C1371 H1341 0.950 . S
C1371 C1366 1.363 . S
C1371 C1370 1.415 . S
H1372 C1369 0.999 . S
H1373 C1354 0.913 . S
H1374 C1392 0.951 . S
H1375 C1394 0.951 . S
H1376 C1396 0.950 . S
H1377 C1397 0.950 . S
H1378 C1399 0.950 . S
H1379 C1402 0.950 . S
H1380 C1403 0.950 . S
H1381 C1405 0.950 . S
H1382 C1406 0.950 . S
H1383 C1407 0.951 . S
H1384 C1409 0.951 . S
H1385 C1411 0.950 . S
H1386 C1412 0.950 . S
H1387 C1414 0.950 . S
H1388 C1417 0.950 . S
H1389 C1418 0.950 . S
H1390 C1420 0.950 . S
H1391 C1421 0.950 . S
C1392 H1374 0.951 . S
C1392 C1393 1.366 . S
C1392 C1394 1.388 . S
C1393 C1392 1.366 . S
C1393 C1397 1.385 . S
C1394 H1375 0.951 . S
C1394 C1392 1.388 . S
C1394 C1395 1.366 . S
C1395 C1394 1.366 . S
C1395 C1396 1.414 . S
C1395 C1398 1.499 . S
C1396 H1376 0.950 . S
C1396 C1395 1.414 . S
C1396 C1397 1.374 . S
C1397 H1377 0.950 . S
C1397 C1393 1.385 . S
C1397 C1396 1.374 . S
C1398 C1395 1.499 . S
C1398 C1399 1.373 . S
C1398 C1400 1.389 . S
C1399 H1378 0.950 . S
C1399 C1398 1.373 . S
C1399 C1415 1.377 . S
C1400 C1398 1.389 . S
C1400 C1401 1.524 . S
C1400 C1414 1.377 . S
C1401 C1400 1.524 . S
C1401 C1402 1.397 . S
C1401 C1406 1.363 . S
C1402 H1379 0.950 . S
C1402 C1401 1.397 . S
C1402 C1403 1.334 . S
C1403 H1380 0.950 . S
C1403 C1402 1.334 . S
C1403 C1404 1.287 . S
C1404 C1403 1.287 . S
C1404 C1405 1.524 . S
C1404 H1423 0.913 . S
C1405 H1381 0.950 . S
C1405 C1404 1.524 . S
C1405 C1406 1.415 . S
C1406 H1382 0.950 . S
C1406 C1401 1.363 . S
C1406 C1405 1.415 . S
C1407 H1383 0.951 . S
C1407 C1408 1.366 . S
C1407 C1409 1.388 . S
C1408 C1407 1.366 . S
C1408 C1412 1.385 . S
C1409 H1384 0.951 . S
C1409 C1407 1.388 . S
C1409 C1410 1.366 . S
C1410 C1409 1.366 . S
C1410 C1411 1.414 . S
C1410 C1413 1.499 . S
C1411 H1385 0.950 . S
C1411 C1410 1.414 . S
C1411 C1412 1.374 . S
C1412 H1386 0.950 . S
C1412 C1408 1.385 . S
C1412 C1411 1.374 . S
C1413 C1410 1.499 . S
C1413 C1414 1.373 . S
C1413 C1415 1.389 . S
C1414 H1387 0.950 . S
C1414 C1400 1.377 . S
C1414 C1413 1.373 . S
C1415 C1399 1.377 . S
C1415 C1413 1.389 . S
C1415 C1416 1.524 . S
C1416 C1415 1.524 . S
C1416 C1417 1.397 . S
C1416 C1421 1.363 . S
C1417 H1388 0.950 . S
C1417 C1416 1.397 . S
C1417 C1418 1.334 . S
C1418 H1389 0.950 . S
C1418 C1417 1.334 . S
C1418 C1419 1.287 . S
C1419 C1418 1.287 . S
C1419 C1420 1.524 . S
C1419 H1422 0.999 . S
C1420 H1390 0.950 . S
C1420 C1419 1.524 . S
C1420 C1421 1.415 . S
C1421 H1391 0.950 . S
C1421 C1416 1.363 . S
C1421 C1420 1.415 . S
H1422 C1419 0.999 . S
H1423 C1404 0.913 . S
H1424 C1442 0.951 . S
H1425 C1444 0.951 . S
H1426 C1446 0.950 . S
H1427 C1447 0.950 . S
H1428 C1449 0.950 . S
H1429 C1452 0.950 . S
H1430 C1453 0.950 . S
H1431 C1455 0.950 . S
H1432 C1456 0.950 . S
H1433 C1457 0.951 . S
H1434 C1459 0.951 . S
H1435 C1461 0.950 . S
H1436 C1462 0.950 . S
H1437 C1464 0.950 . S
H1438 C1467 0.950 . S
H1439 C1468 0.950 . S
H1440 C1470 0.950 . S
H1441 C1471 0.950 . S
C1442 H1424 0.951 . S
C1442 C1443 1.366 . S
C1442 C1444 1.388 . S
C1443 C1442 1.366 . S
C1443 C1447 1.385 . S
C1444 H1425 0.951 . S
C1444 C1442 1.388 . S
C1444 C1445 1.366 . S
C1445 C1444 1.366 . S
C1445 C1446 1.414 . S
C1445 C1448 1.499 . S
C1446 H1426 0.950 . S
C1446 C1445 1.414 . S
C1446 C1447 1.374 . S
C1447 H1427 0.950 . S
C1447 C1443 1.385 . S
C1447 C1446 1.374 . S
C1448 C1445 1.499 . S
C1448 C1449 1.373 . S
C1448 C1450 1.389 . S
C1449 H1428 0.950 . S
C1449 C1448 1.373 . S
C1449 C1465 1.377 . S
C1450 C1448 1.389 . S
C1450 C1451 1.524 . S
C1450 C1464 1.377 . S
C1451 C1450 1.524 . S
C1451 C1452 1.397 . S
C1451 C1456 1.363 . S
C1452 H1429 0.950 . S
C1452 C1451 1.397 . S
C1452 C1453 1.334 . S
C1453 H1430 0.950 . S
C1453 C1452 1.334 . S
C1453 C1454 1.287 . S
C1454 C1453 1.287 . S
C1454 C1455 1.524 . S
C1454 H1473 0.913 . S
C1455 H1431 0.950 . S
C1455 C1454 1.524 . S
C1455 C1456 1.415 . S
C1456 H1432 0.950 . S
C1456 C1451 1.363 . S
C1456 C1455 1.415 . S
C1457 H1433 0.951 . S
C1457 C1458 1.366 . S
C1457 C1459 1.388 . S
C1458 C1457 1.366 . S
C1458 C1462 1.385 . S
C1459 H1434 0.951 . S
C1459 C1457 1.388 . S
C1459 C1460 1.366 . S
C1460 C1459 1.366 . S
C1460 C1461 1.414 . S
C1460 C1463 1.499 . S
C1461 H1435 0.950 . S
C1461 C1460 1.414 . S
C1461 C1462 1.374 . S
C1462 H1436 0.950 . S
C1462 C1458 1.385 . S
C1462 C1461 1.374 . S
C1463 C1460 1.499 . S
C1463 C1464 1.373 . S
C1463 C1465 1.389 . S
C1464 H1437 0.950 . S
C1464 C1450 1.377 . S
C1464 C1463 1.373 . S
C1465 C1449 1.377 . S
C1465 C1463 1.389 . S
C1465 C1466 1.524 . S
C1466 C1465 1.524 . S
C1466 C1467 1.397 . S
C1466 C1471 1.363 . S
C1467 H1438 0.950 . S
C1467 C1466 1.397 . S
C1467 C1468 1.334 . S
C1468 H1439 0.950 . S
C1468 C1467 1.334 . S
C1468 C1469 1.287 . S
C1469 C1468 1.287 . S
C1469 C1470 1.524 . S
C1469 H1472 0.999 . S
C1470 H1440 0.950 . S
C1470 C1469 1.524 . S
C1470 C1471 1.415 . S
C1471 H1441 0.950 . S
C1471 C1466 1.363 . S
C1471 C1470 1.415 . S
H1472 C1469 0.999 . S
H1473 C1454 0.913 . S
H1474 C1492 0.951 . S
H1475 C1494 0.951 . S
H1476 C1496 0.950 . S
H1477 C1497 0.950 . S
H1478 C1499 0.950 . S
H1479 C1502 0.950 . S
H1480 C1503 0.950 . S
H1481 C1505 0.950 . S
H1482 C1506 0.950 . S
H1483 C1507 0.951 . S
H1484 C1509 0.951 . S
H1485 C1511 0.950 . S
H1486 C1512 0.950 . S
H1487 C1514 0.950 . S
H1488 C1517 0.950 . S
H1489 C1518 0.950 . S
H1490 C1520 0.950 . S
H1491 C1521 0.950 . S
C1492 H1474 0.951 . S
C1492 C1493 1.366 . S
C1492 C1494 1.388 . S
C1493 C1492 1.366 . S
C1493 C1497 1.385 . S
C1494 H1475 0.951 . S
C1494 C1492 1.388 . S
C1494 C1495 1.366 . S
C1495 C1494 1.366 . S
C1495 C1496 1.414 . S
C1495 C1498 1.499 . S
C1496 H1476 0.950 . S
C1496 C1495 1.414 . S
C1496 C1497 1.374 . S
C1497 H1477 0.950 . S
C1497 C1493 1.385 . S
C1497 C1496 1.374 . S
C1498 C1495 1.499 . S
C1498 C1499 1.373 . S
C1498 C1500 1.389 . S
C1499 H1478 0.950 . S
C1499 C1498 1.373 . S
C1499 C1515 1.377 . S
C1500 C1498 1.389 . S
C1500 C1501 1.524 . S
C1500 C1514 1.377 . S
C1501 C1500 1.524 . S
C1501 C1502 1.397 . S
C1501 C1506 1.363 . S
C1502 H1479 0.950 . S
C1502 C1501 1.397 . S
C1502 C1503 1.334 . S
C1503 H1480 0.950 . S
C1503 C1502 1.334 . S
C1503 C1504 1.287 . S
C1504 C1503 1.287 . S
C1504 C1505 1.524 . S
C1504 H1523 0.913 . S
C1505 H1481 0.950 . S
C1505 C1504 1.524 . S
C1505 C1506 1.415 . S
C1506 H1482 0.950 . S
C1506 C1501 1.363 . S
C1506 C1505 1.415 . S
C1507 H1483 0.951 . S
C1507 C1508 1.366 . S
C1507 C1509 1.388 . S
C1508 C1507 1.366 . S
C1508 C1512 1.385 . S
C1509 H1484 0.951 . S
C1509 C1507 1.388 . S
C1509 C1510 1.366 . S
C1510 C1509 1.366 . S
C1510 C1511 1.414 . S
C1510 C1513 1.499 . S
C1511 H1485 0.950 . S
C1511 C1510 1.414 . S
C1511 C1512 1.374 . S
C1512 H1486 0.950 . S
C1512 C1508 1.385 . S
C1512 C1511 1.374 . S
C1513 C1510 1.499 . S
C1513 C1514 1.373 . S
C1513 C1515 1.389 . S
C1514 H1487 0.950 . S
C1514 C1500 1.377 . S
C1514 C1513 1.373 . S
C1515 C1499 1.377 . S
C1515 C1513 1.389 . S
C1515 C1516 1.524 . S
C1516 C1515 1.524 . S
C1516 C1517 1.397 . S
C1516 C1521 1.363 . S
C1517 H1488 0.950 . S
C1517 C1516 1.397 . S
C1517 C1518 1.334 . S
C1518 H1489 0.950 . S
C1518 C1517 1.334 . S
C1518 C1519 1.287 . S
C1519 C1518 1.287 . S
C1519 C1520 1.524 . S
C1519 H1522 0.999 . S
C1520 H1490 0.950 . S
C1520 C1519 1.524 . S
C1520 C1521 1.415 . S
C1521 H1491 0.950 . S
C1521 C1516 1.363 . S
C1521 C1520 1.415 . S
H1522 C1519 0.999 . S
H1523 C1504 0.913 . S
H1524 C1542 0.951 . S
H1525 C1544 0.951 . S
H1526 C1546 0.950 . S
H1527 C1547 0.950 . S
H1528 C1549 0.950 . S
H1529 C1552 0.950 . S
H1530 C1553 0.950 . S
H1531 C1555 0.950 . S
H1532 C1556 0.950 . S
H1533 C1557 0.951 . S
H1534 C1559 0.951 . S
H1535 C1561 0.950 . S
H1536 C1562 0.950 . S
H1537 C1564 0.950 . S
H1538 C1567 0.950 . S
H1539 C1568 0.950 . S
H1540 C1570 0.950 . S
H1541 C1571 0.950 . S
C1542 H1524 0.951 . S
C1542 C1543 1.366 . S
C1542 C1544 1.388 . S
C1543 C1542 1.366 . S
C1543 C1547 1.385 . S
C1544 H1525 0.951 . S
C1544 C1542 1.388 . S
C1544 C1545 1.366 . S
C1545 C1544 1.366 . S
C1545 C1546 1.414 . S
C1545 C1548 1.499 . S
C1546 H1526 0.950 . S
C1546 C1545 1.414 . S
C1546 C1547 1.374 . S
C1547 H1527 0.950 . S
C1547 C1543 1.385 . S
C1547 C1546 1.374 . S
C1548 C1545 1.499 . S
C1548 C1549 1.373 . S
C1548 C1550 1.389 . S
C1549 H1528 0.950 . S
C1549 C1548 1.373 . S
C1549 C1565 1.377 . S
C1550 C1548 1.389 . S
C1550 C1551 1.524 . S
C1550 C1564 1.377 . S
C1551 C1550 1.524 . S
C1551 C1552 1.397 . S
C1551 C1556 1.363 . S
C1552 H1529 0.950 . S
C1552 C1551 1.397 . S
C1552 C1553 1.334 . S
C1553 H1530 0.950 . S
C1553 C1552 1.334 . S
C1553 C1554 1.287 . S
C1554 C1553 1.287 . S
C1554 C1555 1.524 . S
C1554 H1573 0.913 . S
C1555 H1531 0.950 . S
C1555 C1554 1.524 . S
C1555 C1556 1.415 . S
C1556 H1532 0.950 . S
C1556 C1551 1.363 . S
C1556 C1555 1.415 . S
C1557 H1533 0.951 . S
C1557 C1558 1.366 . S
C1557 C1559 1.388 . S
C1558 C1557 1.366 . S
C1558 C1562 1.385 . S
C1559 H1534 0.951 . S
C1559 C1557 1.388 . S
C1559 C1560 1.366 . S
C1560 C1559 1.366 . S
C1560 C1561 1.414 . S
C1560 C1563 1.499 . S
C1561 H1535 0.950 . S
C1561 C1560 1.414 . S
C1561 C1562 1.374 . S
C1562 H1536 0.950 . S
C1562 C1558 1.385 . S
C1562 C1561 1.374 . S
C1563 C1560 1.499 . S
C1563 C1564 1.373 . S
C1563 C1565 1.389 . S
C1564 H1537 0.950 . S
C1564 C1550 1.377 . S
C1564 C1563 1.373 . S
C1565 C1549 1.377 . S
C1565 C1563 1.389 . S
C1565 C1566 1.524 . S
C1566 C1565 1.524 . S
C1566 C1567 1.397 . S
C1566 C1571 1.363 . S
C1567 H1538 0.950 . S
C1567 C1566 1.397 . S
C1567 C1568 1.334 . S
C1568 H1539 0.950 . S
C1568 C1567 1.334 . S
C1568 C1569 1.287 . S
C1569 C1568 1.287 . S
C1569 C1570 1.524 . S
C1569 H1572 0.999 . S
C1570 H1540 0.950 . S
C1570 C1569 1.524 . S
C1570 C1571 1.415 . S
C1571 H1541 0.950 . S
C1571 C1566 1.363 . S
C1571 C1570 1.415 . S
H1572 C1569 0.999 . S
H1573 C1554 0.913 . S
H1574 C1592 0.951 . S
H1575 C1594 0.951 . S
H1576 C1596 0.950 . S
H1577 C1597 0.950 . S
H1578 C1599 0.950 . S
H1579 C1602 0.950 . S
H1580 C1603 0.950 . S
H1581 C1605 0.950 . S
H1582 C1606 0.950 . S
H1583 C1607 0.951 . S
H1584 C1609 0.951 . S
H1585 C1611 0.950 . S
H1586 C1612 0.950 . S
H1587 C1614 0.950 . S
H1588 C1617 0.950 . S
H1589 C1618 0.950 . S
H1590 C1620 0.950 . S
H1591 C1621 0.950 . S
C1592 H1574 0.951 . S
C1592 C1593 1.366 . S
C1592 C1594 1.388 . S
C1593 C1592 1.366 . S
C1593 C1597 1.385 . S
C1594 H1575 0.951 . S
C1594 C1592 1.388 . S
C1594 C1595 1.366 . S
C1595 C1594 1.366 . S
C1595 C1596 1.414 . S
C1595 C1598 1.499 . S
C1596 H1576 0.950 . S
C1596 C1595 1.414 . S
C1596 C1597 1.374 . S
C1597 H1577 0.950 . S
C1597 C1593 1.385 . S
C1597 C1596 1.374 . S
C1598 C1595 1.499 . S
C1598 C1599 1.373 . S
C1598 C1600 1.389 . S
C1599 H1578 0.950 . S
C1599 C1598 1.373 . S
C1599 C1615 1.377 . S
C1600 C1598 1.389 . S
C1600 C1601 1.524 . S
C1600 C1614 1.377 . S
C1601 C1600 1.524 . S
C1601 C1602 1.397 . S
C1601 C1606 1.363 . S
C1602 H1579 0.950 . S
C1602 C1601 1.397 . S
C1602 C1603 1.334 . S
C1603 H1580 0.950 . S
C1603 C1602 1.334 . S
C1603 C1604 1.287 . S
C1604 C1603 1.287 . S
C1604 C1605 1.524 . S
C1604 H1623 0.913 . S
C1605 H1581 0.950 . S
C1605 C1604 1.524 . S
C1605 C1606 1.415 . S
C1606 H1582 0.950 . S
C1606 C1601 1.363 . S
C1606 C1605 1.415 . S
C1607 H1583 0.951 . S
C1607 C1608 1.366 . S
C1607 C1609 1.388 . S
C1608 C1607 1.366 . S
C1608 C1612 1.385 . S
C1609 H1584 0.951 . S
C1609 C1607 1.388 . S
C1609 C1610 1.366 . S
C1610 C1609 1.366 . S
C1610 C1611 1.414 . S
C1610 C1613 1.499 . S
C1611 H1585 0.950 . S
C1611 C1610 1.414 . S
C1611 C1612 1.374 . S
C1612 H1586 0.950 . S
C1612 C1608 1.385 . S
C1612 C1611 1.374 . S
C1613 C1610 1.499 . S
C1613 C1614 1.373 . S
C1613 C1615 1.389 . S
C1614 H1587 0.950 . S
C1614 C1600 1.377 . S
C1614 C1613 1.373 . S
C1615 C1599 1.377 . S
C1615 C1613 1.389 . S
C1615 C1616 1.524 . S
C1616 C1615 1.524 . S
C1616 C1617 1.397 . S
C1616 C1621 1.363 . S
C1617 H1588 0.950 . S
C1617 C1616 1.397 . S
C1617 C1618 1.334 . S
C1618 H1589 0.950 . S
C1618 C1617 1.334 . S
C1618 C1619 1.287 . S
C1619 C1618 1.287 . S
C1619 C1620 1.524 . S
C1619 H1622 0.999 . S
C1620 H1590 0.950 . S
C1620 C1619 1.524 . S
C1620 C1621 1.415 . S
C1621 H1591 0.950 . S
C1621 C1616 1.363 . S
C1621 C1620 1.415 . S
H1622 C1619 0.999 . S
H1623 C1604 0.913 . S
H1624 C1642 0.951 . S
H1625 C1644 0.951 . S
H1626 C1646 0.950 . S
H1627 C1647 0.950 . S
H1628 C1649 0.950 . S
H1629 C1652 0.950 . S
H1630 C1653 0.950 . S
H1631 C1655 0.950 . S
H1632 C1656 0.950 . S
H1633 C1657 0.951 . S
H1634 C1659 0.951 . S
H1635 C1661 0.950 . S
H1636 C1662 0.950 . S
H1637 C1664 0.950 . S
H1638 C1667 0.950 . S
H1639 C1668 0.950 . S
H1640 C1670 0.950 . S
H1641 C1671 0.950 . S
C1642 H1624 0.951 . S
C1642 C1643 1.366 . S
C1642 C1644 1.388 . S
C1643 C1642 1.366 . S
C1643 C1647 1.385 . S
C1644 H1625 0.951 . S
C1644 C1642 1.388 . S
C1644 C1645 1.366 . S
C1645 C1644 1.366 . S
C1645 C1646 1.414 . S
C1645 C1648 1.499 . S
C1646 H1626 0.950 . S
C1646 C1645 1.414 . S
C1646 C1647 1.374 . S
C1647 H1627 0.950 . S
C1647 C1643 1.385 . S
C1647 C1646 1.374 . S
C1648 C1645 1.499 . S
C1648 C1649 1.373 . S
C1648 C1650 1.389 . S
C1649 H1628 0.950 . S
C1649 C1648 1.373 . S
C1649 C1665 1.377 . S
C1650 C1648 1.389 . S
C1650 C1651 1.524 . S
C1650 C1664 1.377 . S
C1651 C1650 1.524 . S
C1651 C1652 1.397 . S
C1651 C1656 1.363 . S
C1652 H1629 0.950 . S
C1652 C1651 1.397 . S
C1652 C1653 1.334 . S
C1653 H1630 0.950 . S
C1653 C1652 1.334 . S
C1653 C1654 1.287 . S
C1654 C1653 1.287 . S
C1654 C1655 1.524 . S
C1654 H1673 0.913 . S
C1655 H1631 0.950 . S
C1655 C1654 1.524 . S
C1655 C1656 1.415 . S
C1656 H1632 0.950 . S
C1656 C1651 1.363 . S
C1656 C1655 1.415 . S
C1657 H1633 0.951 . S
C1657 C1658 1.366 . S
C1657 C1659 1.388 . S
C1658 C1657 1.366 . S
C1658 C1662 1.385 . S
C1659 H1634 0.951 . S
C1659 C1657 1.388 . S
C1659 C1660 1.366 . S
C1660 C1659 1.366 . S
C1660 C1661 1.414 . S
C1660 C1663 1.499 . S
C1661 H1635 0.950 . S
C1661 C1660 1.414 . S
C1661 C1662 1.374 . S
C1662 H1636 0.950 . S
C1662 C1658 1.385 . S
C1662 C1661 1.374 . S
C1663 C1660 1.499 . S
C1663 C1664 1.373 . S
C1663 C1665 1.389 . S
C1664 H1637 0.950 . S
C1664 C1650 1.377 . S
C1664 C1663 1.373 . S
C1665 C1649 1.377 . S
C1665 C1663 1.389 . S
C1665 C1666 1.524 . S
C1666 C1665 1.524 . S
C1666 C1667 1.397 . S
C1666 C1671 1.363 . S
C1667 H1638 0.950 . S
C1667 C1666 1.397 . S
C1667 C1668 1.334 . S
C1668 H1639 0.950 . S
C1668 C1667 1.334 . S
C1668 C1669 1.287 . S
C1669 C1668 1.287 . S
C1669 C1670 1.524 . S
C1669 H1672 0.999 . S
C1670 H1640 0.950 . S
C1670 C1669 1.524 . S
C1670 C1671 1.415 . S
C1671 H1641 0.950 . S
C1671 C1666 1.363 . S
C1671 C1670 1.415 . S
H1672 C1669 0.999 . S
H1673 C1654 0.913 . S
H1674 C1692 0.951 . S
H1675 C1694 0.951 . S
H1676 C1696 0.950 . S
H1677 C1697 0.950 . S
H1678 C1699 0.950 . S
H1679 C1702 0.950 . S
H1680 C1703 0.950 . S
H1681 C1705 0.950 . S
H1682 C1706 0.950 . S
H1683 C1707 0.951 . S
H1684 C1709 0.951 . S
H1685 C1711 0.950 . S
H1686 C1712 0.950 . S
H1687 C1714 0.950 . S
H1688 C1717 0.950 . S
H1689 C1718 0.950 . S
H1690 C1720 0.950 . S
H1691 C1721 0.950 . S
C1692 H1674 0.951 . S
C1692 C1693 1.366 . S
C1692 C1694 1.388 . S
C1693 C1692 1.366 . S
C1693 C1697 1.385 . S
C1694 H1675 0.951 . S
C1694 C1692 1.388 . S
C1694 C1695 1.366 . S
C1695 C1694 1.366 . S
C1695 C1696 1.414 . S
C1695 C1698 1.499 . S
C1696 H1676 0.950 . S
C1696 C1695 1.414 . S
C1696 C1697 1.374 . S
C1697 H1677 0.950 . S
C1697 C1693 1.385 . S
C1697 C1696 1.374 . S
C1698 C1695 1.499 . S
C1698 C1699 1.373 . S
C1698 C1700 1.389 . S
C1699 H1678 0.950 . S
C1699 C1698 1.373 . S
C1699 C1715 1.377 . S
C1700 C1698 1.389 . S
C1700 C1701 1.524 . S
C1700 C1714 1.377 . S
C1701 C1700 1.524 . S
C1701 C1702 1.397 . S
C1701 C1706 1.363 . S
C1702 H1679 0.950 . S
C1702 C1701 1.397 . S
C1702 C1703 1.334 . S
C1703 H1680 0.950 . S
C1703 C1702 1.334 . S
C1703 C1704 1.287 . S
C1704 C1703 1.287 . S
C1704 C1705 1.524 . S
C1704 H1723 0.913 . S
C1705 H1681 0.950 . S
C1705 C1704 1.524 . S
C1705 C1706 1.415 . S
C1706 H1682 0.950 . S
C1706 C1701 1.363 . S
C1706 C1705 1.415 . S
C1707 H1683 0.951 . S
C1707 C1708 1.366 . S
C1707 C1709 1.388 . S
C1708 C1707 1.366 . S
C1708 C1712 1.385 . S
C1709 H1684 0.951 . S
C1709 C1707 1.388 . S
C1709 C1710 1.366 . S
C1710 C1709 1.366 . S
C1710 C1711 1.414 . S
C1710 C1713 1.499 . S
C1711 H1685 0.950 . S
C1711 C1710 1.414 . S
C1711 C1712 1.374 . S
C1712 H1686 0.950 . S
C1712 C1708 1.385 . S
C1712 C1711 1.374 . S
C1713 C1710 1.499 . S
C1713 C1714 1.373 . S
C1713 C1715 1.389 . S
C1714 H1687 0.950 . S
C1714 C1700 1.377 . S
C1714 C1713 1.373 . S
C1715 C1699 1.377 . S
C1715 C1713 1.389 . S
C1715 C1716 1.524 . S
C1716 C1715 1.524 . S
C1716 C1717 1.397 . S
C1716 C1721 1.363 . S
C1717 H1688 0.950 . S
C1717 C1716 1.397 . S
C1717 C1718 1.334 . S
C1718 H1689 0.950 . S
C1718 C1717 1.334 . S
C1718 C1719 1.287 . S
C1719 C1718 1.287 . S
C1719 C1720 1.524 . S
C1719 H1722 0.999 . S
C1720 H1690 0.950 . S
C1720 C1719 1.524 . S
C1720 C1721 1.415 . S
C1721 H1691 0.950 . S
C1721 C1716 1.363 . S
C1721 C1720 1.415 . S
H1722 C1719 0.999 . S
H1723 C1704 0.913 . S
H1724 C1742 0.951 . S
H1725 C1744 0.951 . S
H1726 C1746 0.950 . S
H1727 C1747 0.950 . S
H1728 C1749 0.950 . S
H1729 C1752 0.950 . S
H1730 C1753 0.950 . S
H1731 C1755 0.950 . S
H1732 C1756 0.950 . S
H1733 C1757 0.951 . S
H1734 C1759 0.951 . S
H1735 C1761 0.950 . S
H1736 C1762 0.950 . S
H1737 C1764 0.950 . S
H1738 C1767 0.950 . S
H1739 C1768 0.950 . S
H1740 C1770 0.950 . S
H1741 C1771 0.950 . S
C1742 H1724 0.951 . S
C1742 C1743 1.366 . S
C1742 C1744 1.388 . S
C1743 C1742 1.366 . S
C1743 C1747 1.385 . S
C1744 H1725 0.951 . S
C1744 C1742 1.388 . S
C1744 C1745 1.366 . S
C1745 C1744 1.366 . S
C1745 C1746 1.414 . S
C1745 C1748 1.499 . S
C1746 H1726 0.950 . S
C1746 C1745 1.414 . S
C1746 C1747 1.374 . S
C1747 H1727 0.950 . S
C1747 C1743 1.385 . S
C1747 C1746 1.374 . S
C1748 C1745 1.499 . S
C1748 C1749 1.373 . S
C1748 C1750 1.389 . S
C1749 H1728 0.950 . S
C1749 C1748 1.373 . S
C1749 C1765 1.377 . S
C1750 C1748 1.389 . S
C1750 C1751 1.524 . S
C1750 C1764 1.377 . S
C1751 C1750 1.524 . S
C1751 C1752 1.397 . S
C1751 C1756 1.363 . S
C1752 H1729 0.950 . S
C1752 C1751 1.397 . S
C1752 C1753 1.334 . S
C1753 H1730 0.950 . S
C1753 C1752 1.334 . S
C1753 C1754 1.287 . S
C1754 C1753 1.287 . S
C1754 C1755 1.524 . S
C1754 H1773 0.913 . S
C1755 H1731 0.950 . S
C1755 C1754 1.524 . S
C1755 C1756 1.415 . S
C1756 H1732 0.950 . S
C1756 C1751 1.363 . S
C1756 C1755 1.415 . S
C1757 H1733 0.951 . S
C1757 C1758 1.366 . S
C1757 C1759 1.388 . S
C1758 C1757 1.366 . S
C1758 C1762 1.385 . S
C1759 H1734 0.951 . S
C1759 C1757 1.388 . S
C1759 C1760 1.366 . S
C1760 C1759 1.366 . S
C1760 C1761 1.414 . S
C1760 C1763 1.499 . S
C1761 H1735 0.950 . S
C1761 C1760 1.414 . S
C1761 C1762 1.374 . S
C1762 H1736 0.950 . S
C1762 C1758 1.385 . S
C1762 C1761 1.374 . S
C1763 C1760 1.499 . S
C1763 C1764 1.373 . S
C1763 C1765 1.389 . S
C1764 H1737 0.950 . S
C1764 C1750 1.377 . S
C1764 C1763 1.373 . S
C1765 C1749 1.377 . S
C1765 C1763 1.389 . S
C1765 C1766 1.524 . S
C1766 C1765 1.524 . S
C1766 C1767 1.397 . S
C1766 C1771 1.363 . S
C1767 H1738 0.950 . S
C1767 C1766 1.397 . S
C1767 C1768 1.334 . S
C1768 H1739 0.950 . S
C1768 C1767 1.334 . S
C1768 C1769 1.287 . S
C1769 C1768 1.287 . S
C1769 C1770 1.524 . S
C1769 H1772 0.999 . S
C1770 H1740 0.950 . S
C1770 C1769 1.524 . S
C1770 C1771 1.415 . S
C1771 H1741 0.950 . S
C1771 C1766 1.363 . S
C1771 C1770 1.415 . S
H1772 C1769 0.999 . S
H1773 C1754 0.913 . S
H1774 C1792 0.951 . S
H1775 C1794 0.951 . S
H1776 C1796 0.950 . S
H1777 C1797 0.950 . S
H1778 C1799 0.950 . S
H1779 C1802 0.950 . S
H1780 C1803 0.950 . S
H1781 C1805 0.950 . S
H1782 C1806 0.950 . S
H1783 C1807 0.951 . S
H1784 C1809 0.951 . S
H1785 C1811 0.950 . S
H1786 C1812 0.950 . S
H1787 C1814 0.950 . S
H1788 C1817 0.950 . S
H1789 C1818 0.950 . S
H1790 C1820 0.950 . S
H1791 C1821 0.950 . S
C1792 H1774 0.951 . S
C1792 C1793 1.366 . S
C1792 C1794 1.388 . S
C1793 C1792 1.366 . S
C1793 C1797 1.385 . S
C1794 H1775 0.951 . S
C1794 C1792 1.388 . S
C1794 C1795 1.366 . S
C1795 C1794 1.366 . S
C1795 C1796 1.414 . S
C1795 C1798 1.499 . S
C1796 H1776 0.950 . S
C1796 C1795 1.414 . S
C1796 C1797 1.374 . S
C1797 H1777 0.950 . S
C1797 C1793 1.385 . S
C1797 C1796 1.374 . S
C1798 C1795 1.499 . S
C1798 C1799 1.373 . S
C1798 C1800 1.389 . S
C1799 H1778 0.950 . S
C1799 C1798 1.373 . S
C1799 C1815 1.377 . S
C1800 C1798 1.389 . S
C1800 C1801 1.524 . S
C1800 C1814 1.377 . S
C1801 C1800 1.524 . S
C1801 C1802 1.397 . S
C1801 C1806 1.363 . S
C1802 H1779 0.950 . S
C1802 C1801 1.397 . S
C1802 C1803 1.334 . S
C1803 H1780 0.950 . S
C1803 C1802 1.334 . S
C1803 C1804 1.287 . S
C1804 C1803 1.287 . S
C1804 C1805 1.524 . S
C1804 H1823 0.913 . S
C1805 H1781 0.950 . S
C1805 C1804 1.524 . S
C1805 C1806 1.415 . S
C1806 H1782 0.950 . S
C1806 C1801 1.363 . S
C1806 C1805 1.415 . S
C1807 H1783 0.951 . S
C1807 C1808 1.366 . S
C1807 C1809 1.388 . S
C1808 C1807 1.366 . S
C1808 C1812 1.385 . S
C1809 H1784 0.951 . S
C1809 C1807 1.388 . S
C1809 C1810 1.366 . S
C1810 C1809 1.366 . S
C1810 C1811 1.414 . S
C1810 C1813 1.499 . S
C1811 H1785 0.950 . S
C1811 C1810 1.414 . S
C1811 C1812 1.374 . S
C1812 H1786 0.950 . S
C1812 C1808 1.385 . S
C1812 C1811 1.374 . S
C1813 C1810 1.499 . S
C1813 C1814 1.373 . S
C1813 C1815 1.389 . S
C1814 H1787 0.950 . S
C1814 C1800 1.377 . S
C1814 C1813 1.373 . S
C1815 C1799 1.377 . S
C1815 C1813 1.389 . S
C1815 C1816 1.524 . S
C1816 C1815 1.524 . S
C1816 C1817 1.397 . S
C1816 C1821 1.363 . S
C1817 H1788 0.950 . S
C1817 C1816 1.397 . S
C1817 C1818 1.334 . S
C1818 H1789 0.950 . S
C1818 C1817 1.334 . S
C1818 C1819 1.287 . S
C1819 C1818 1.287 . S
C1819 C1820 1.524 . S
C1819 H1822 0.999 . S
C1820 H1790 0.950 . S
C1820 C1819 1.524 . S
C1820 C1821 1.415 . S
C1821 H1791 0.950 . S
C1821 C1816 1.363 . S
C1821 C1820 1.415 . S
H1822 C1819 0.999 . S
H1823 C1804 0.913 . S
C243 C67 1.154 . S
C258 C11 1.155 . S
C293 C81 1.155 . S
C308 C25 1.155 . S
C343 C95 1.154 . S
C358 C39 1.155 . S
C393 C109 1.155 . S
C408 C53 1.154 . S
C443 C179 1.155 . S
C458 C123 1.154 . S
C493 C193 1.155 . S
C508 C137 1.154 . S
C543 C151 1.155 . S
C558 C207 1.155 . S
C593 C221 1.154 . S
C608 C165 1.155 . S
C643 C8 1.097 1_556 S
C658 C78 1.097 . S
C693 C92 1.095 . S
C708 C22 1.096 . S
C743 C36 1.098 1_556 S
C758 C106 1.096 . S
C793 C64 1.096 . S
C808 C50 1.096 . S
C843 C190 1.096 . S
C858 C120 1.097 . S
C893 C204 1.097 . S
C908 C134 1.097 . S
C943 C148 1.097 . S
C958 C218 1.096 . S
C993 C162 1.096 . S
C1008 C176 1.097 . S
C1043 C223 1.323 . S
C1058 C13 1.324 . S
C1093 C181 1.324 . S
C1108 C27 1.323 . S
C1143 C195 1.323 . S
C1158 C41 1.324 . S
C1193 C209 1.324 . S
C1208 C55 1.323 . S
C1243 C139 1.324 . S
C1258 C69 1.324 . S
C1293 C153 1.323 . S
C1308 C83 1.324 . S
C1343 C97 1.323 . S
C1358 C167 1.323 . S
C1393 C111 1.324 . S
C1408 C125 1.323 . S
C1443 C189 1.548 . S
C1458 C35 1.548 . S
C1493 C203 1.548 . S
C1508 C49 1.548 . S
C1543 C217 1.548 . S
C1558 C7 1.548 . S
C1593 C21 1.548 . S
C1608 C175 1.548 . S
C1643 C161 1.548 . S
C1658 C91 1.548 . S
C1693 C105 1.548 . S
C1708 C119 1.548 . S
C1743 C133 1.548 . S
C1758 C63 1.548 . S
C1793 C147 1.548 . S
C1808 C77 1.548 . S
