# Generated by pormake.
# Topology sod, (4)-cn, num edge types: 1
# Building blocks:
#     Node 0, Type 0, BuildingBlock: ICAMEG_clean_sbu_1, # of connection points: 4
#     Node 1, Type 0, BuildingBlock: ICAMEG_clean_sbu_1, # of connection points: 4
#     Node 2, Type 0, BuildingBlock: ICAMEG_clean_sbu_1, # of connection points: 4
#     Node 3, Type 0, BuildingBlock: ICAMEG_clean_sbu_1, # of connection points: 4
#     Node 4, Type 0, BuildingBlock: ICAMEG_clean_sbu_1, # of connection points: 4
#     Node 5, Type 0, BuildingBlock: ICAMEG_clean_sbu_1, # of connection points: 4
#     Node 6, Type 0, BuildingBlock: ICAMEG_clean_sbu_1, # of connection points: 4
#     Node 7, Type 0, BuildingBlock: ICAMEG_clean_sbu_1, # of connection points: 4
#     Node 8, Type 0, BuildingBlock: ICAMEG_clean_sbu_1, # of connection points: 4
#     Node 9, Type 0, BuildingBlock: ICAMEG_clean_sbu_1, # of connection points: 4
#     Node 10, Type 0, BuildingBlock: ICAMEG_clean_sbu_1, # of connection points: 4
#     Node 11, Type 0, BuildingBlock: ICAMEG_clean_sbu_1, # of connection points: 4
#     Edge 12, Type (0, 0), BuildingBlock: KIFKEQ_clean_linker_1, # of connection points: 2
#     Edge 13, Type (0, 0), BuildingBlock: KIFKEQ_clean_linker_1, # of connection points: 2
#     Edge 14, Type (0, 0), BuildingBlock: KIFKEQ_clean_linker_1, # of connection points: 2
#     Edge 15, Type (0, 0), BuildingBlock: KIFKEQ_clean_linker_1, # of connection points: 2
#     Edge 16, Type (0, 0), BuildingBlock: KIFKEQ_clean_linker_1, # of connection points: 2
#     Edge 17, Type (0, 0), BuildingBlock: KIFKEQ_clean_linker_1, # of connection points: 2
#     Edge 18, Type (0, 0), BuildingBlock: KIFKEQ_clean_linker_1, # of connection points: 2
#     Edge 19, Type (0, 0), BuildingBlock: KIFKEQ_clean_linker_1, # of connection points: 2
#     Edge 20, Type (0, 0), BuildingBlock: KIFKEQ_clean_linker_1, # of connection points: 2
#     Edge 21, Type (0, 0), BuildingBlock: KIFKEQ_clean_linker_1, # of connection points: 2
#     Edge 22, Type (0, 0), BuildingBlock: KIFKEQ_clean_linker_1, # of connection points: 2
#     Edge 23, Type (0, 0), BuildingBlock: KIFKEQ_clean_linker_1, # of connection points: 2
#     Edge 24, Type (0, 0), BuildingBlock: KIFKEQ_clean_linker_1, # of connection points: 2
#     Edge 25, Type (0, 0), BuildingBlock: KIFKEQ_clean_linker_1, # of connection points: 2
#     Edge 26, Type (0, 0), BuildingBlock: KIFKEQ_clean_linker_1, # of connection points: 2
#     Edge 27, Type (0, 0), BuildingBlock: KIFKEQ_clean_linker_1, # of connection points: 2
#     Edge 28, Type (0, 0), BuildingBlock: KIFKEQ_clean_linker_1, # of connection points: 2
#     Edge 29, Type (0, 0), BuildingBlock: KIFKEQ_clean_linker_1, # of connection points: 2
#     Edge 30, Type (0, 0), BuildingBlock: KIFKEQ_clean_linker_1, # of connection points: 2
#     Edge 31, Type (0, 0), BuildingBlock: KIFKEQ_clean_linker_1, # of connection points: 2
#     Edge 32, Type (0, 0), BuildingBlock: KIFKEQ_clean_linker_1, # of connection points: 2
#     Edge 33, Type (0, 0), BuildingBlock: KIFKEQ_clean_linker_1, # of connection points: 2
#     Edge 34, Type (0, 0), BuildingBlock: KIFKEQ_clean_linker_1, # of connection points: 2
#     Edge 35, Type (0, 0), BuildingBlock: KIFKEQ_clean_linker_1, # of connection points: 2
# Relax obj value: 0.209
# Max RMSD: 0.237
# Mean RMSD: 0.236
data_MOF--net-sod--node1-ICAMEG_clean_sbu_1--edge1-KIFKEQ_clean_linker_1
_symmetry_space_group_name_H-M    P1
_symmetry_Int_Tables_number       1
_symmetry_cell_setting            triclinic
loop_
_symmetry_equiv_pos_as_xyz
'x, y, z'
_cell_length_a     43.136133
_cell_length_b     47.166505
_cell_length_c     45.217242
_cell_angle_alpha  90.047665
_cell_angle_beta   89.99541
_cell_angle_gamma 90.065568
loop_
_atom_site_label
_atom_site_type_symbol
_atom_site_fract_x
_atom_site_fract_y
_atom_site_fract_z
_atom_type_partial_charge
Co0 Co 0.0091 0.22855 0.53176 0.0
Co1 Co 1.00125 0.23269 0.45761 0.0
O2 O 0.00507 0.25199 0.49596 0.0
C3 C 0.97895 0.28366 0.55092 0.0
O4 O 0.97059 0.28956 0.52374 0.0
C5 C 0.03035 0.29005 0.44436 0.0
O6 O 0.03514 0.29514 0.47251 0.0
O7 O 0.04291 0.21518 0.46492 0.0
O8 O 0.02971 0.19729 0.5089 0.0
H9 H 0.01099 0.14807 0.39064 0.0
H10 H 0.03625 0.28687 0.53015 0.0
O11 O 0.99032 0.25939 0.55713 0.0
H12 H 0.12268 0.22409 0.55775 0.0
H13 H 0.03095 0.20869 0.63935 0.0
H14 H 0.99663 0.16788 0.54442 0.0
H15 H 0.07057 0.20449 0.54909 0.0
H16 H 0.02815 0.23834 0.5946 0.0
O17 O 0.02061 0.26576 0.43596 0.0
H18 H 0.01361 0.17376 0.43806 0.0
H19 H 0.98305 0.24924 0.39614 0.0
H20 H 0.99948 0.13735 0.58851 0.0
H21 H 0.08779 0.30736 0.5391 0.0
H22 H 0.01668 0.15773 0.63646 0.0
H23 H 0.13159 0.27592 0.55295 0.0
O24 O 0.96743 0.2117 0.52272 0.0
H25 H 0.92236 0.31162 0.45855 0.0
H26 H 0.94004 0.21046 0.43715 0.0
H27 H 0.88801 0.23066 0.43008 0.0
H28 H 0.87887 0.28165 0.44063 0.0
H29 H 0.97379 0.29053 0.46579 0.0
H30 H 0.9805 0.22449 0.34818 0.0
H31 H 0.99438 0.17347 0.34523 0.0
O32 O 0.98021 0.19932 0.4766 0.0
C33 C 0.04768 0.19828 0.48654 0.0
C34 C 0.00494 0.17032 0.39162 0.0
C35 C 0.98789 0.21321 0.36778 0.0
N36 N 0.99871 0.21306 0.41989 0.0
C37 C 0.00638 0.18499 0.41843 0.0
C38 C 0.9896 0.22719 0.39498 0.0
C39 C 0.99563 0.18458 0.36615 0.0
C40 C 0.05489 0.27301 0.53653 0.0
N41 N 0.05004 0.24451 0.53942 0.0
C42 C 0.08418 0.28475 0.54143 0.0
C43 C 0.10875 0.26711 0.54916 0.0
C44 C 0.10376 0.23805 0.55187 0.0
C45 C 0.07414 0.22708 0.54688 0.0
C46 C 0.02325 0.19959 0.61863 0.0
C47 C 0.00407 0.17698 0.56518 0.0
C48 C 0.02136 0.21636 0.59326 0.0
N49 N 0.01188 0.20502 0.56694 0.0
C50 C 0.00566 0.15955 0.59009 0.0
C51 C 0.0153 0.17099 0.61698 0.0
C52 C 0.96266 0.19715 0.49924 0.0
C53 C 0.92608 0.28941 0.45368 0.0
C54 C 0.93638 0.23267 0.44187 0.0
C55 C 0.9068 0.24399 0.43777 0.0
C56 C 0.90168 0.27259 0.44368 0.0
N57 N 0.96036 0.24933 0.4515 0.0
C58 C 0.95535 0.27734 0.45756 0.0
Co59 Co 0.72707 0.04243 0.50598 0.0
Co60 Co 0.7262 0.97075 0.50728 0.0
O61 O 0.75012 1.00637 0.50664 0.0
C62 C 0.78865 0.05449 0.47625 0.0
O63 O 0.79483 0.02735 0.47403 0.0
C64 C 0.78742 0.95749 0.53702 0.0
O65 O 0.79445 0.98449 0.53902 0.0
O66 O 0.7078 0.98331 0.54582 0.0
O67 O 0.6916 0.0249 0.52829 0.0
H68 H 0.62887 0.91422 0.52347 0.0
H69 H 0.79047 0.03962 0.53257 0.0
O70 O 0.76204 0.06266 0.48508 0.0
H71 H 0.72429 0.08149 0.60982 0.0
H72 H 0.71273 0.14838 0.51226 0.0
H73 H 0.66169 0.0567 0.4926 0.0
H74 H 0.70229 0.06836 0.5615 0.0
H75 H 0.74221 0.10376 0.51542 0.0
O76 O 0.76056 0.9499 0.5283 0.0
H77 H 0.66045 0.95772 0.52051 0.0
H78 H 0.73984 0.90913 0.49797 0.0
H79 H 0.63123 0.10079 0.48957 0.0
H80 H 0.81349 0.05284 0.58032 0.0
H81 H 0.65676 0.14708 0.49941 0.0
H82 H 0.78035 0.0739 0.61949 0.0
O83 O 0.70841 0.03024 0.4674 0.0
H84 H 0.81254 0.95874 0.43312 0.0
H85 H 0.70098 0.94509 0.45176 0.0
H86 H 0.72278 0.93151 0.40352 0.0
H87 H 0.77902 0.93815 0.39393 0.0
H88 H 0.78972 0.97243 0.48078 0.0
H89 H 0.70923 0.86508 0.50106 0.0
H90 H 0.65327 0.86746 0.51373 0.0
O91 O 0.69124 0.9889 0.48485 0.0
C92 C 0.69152 1.00583 0.54831 0.0
C93 C 0.65324 0.9129 0.51794 0.0
C94 C 0.69835 0.88532 0.50541 0.0
N95 N 0.702 0.93602 0.50915 0.0
C96 C 0.67124 0.93748 0.51621 0.0
C97 C 0.71562 0.91034 0.50389 0.0
C98 C 0.66694 0.88667 0.51249 0.0
C99 C 0.77587 0.04904 0.54918 0.0
N100 N 0.74507 0.05341 0.54387 0.0
C101 C 0.78905 0.05638 0.57634 0.0
C102 C 0.77045 0.06816 0.59832 0.0
C103 C 0.73902 0.07242 0.59291 0.0
C104 C 0.72668 0.06487 0.56546 0.0
C105 C 0.70135 0.12836 0.50786 0.0
C106 C 0.67298 0.07673 0.49695 0.0
C107 C 0.71799 0.10302 0.50942 0.0
N108 N 0.70374 0.0776 0.5041 0.0
C109 C 0.65561 0.10164 0.49519 0.0
C110 C 0.66995 0.1276 0.50069 0.0
C111 C 0.69157 1.00803 0.46489 0.0
C112 C 0.78802 0.95561 0.43706 0.0
C113 C 0.72545 0.94819 0.44784 0.0
C114 C 0.73768 0.94038 0.42043 0.0
C115 C 0.76921 0.9441 0.41507 0.0
N116 N 0.74403 0.95939 0.46944 0.0
C117 C 0.77494 0.96323 0.46418 0.0
Co118 Co 1.0002 0.77906 0.47403 0.0
Co119 Co 1.00061 0.77842 0.54876 0.0
O120 O 1.0004 0.75741 0.51117 0.0
C121 C 0.96973 0.72255 0.46001 0.0
O122 O 0.96751 0.71601 0.48811 0.0
C123 C 0.0319 0.72201 0.56117 0.0
O124 O 0.03564 0.71698 0.53287 0.0
O125 O 0.04108 0.79607 0.53665 0.0
O126 O 0.02336 0.81114 0.49302 0.0
H127 H 0.01703 0.86578 0.61057 0.0
H128 H 0.02799 0.72079 0.47582 0.0
O129 O 0.97831 0.74739 0.45227 0.0
H130 H 0.10978 0.78247 0.43539 0.0
H131 H 0.00926 0.79377 0.36391 0.0
H132 H 0.98623 0.83908 0.4597 0.0
H133 H 0.05902 0.80229 0.44899 0.0
H134 H 0.01176 0.76626 0.41015 0.0
O135 O 0.02228 0.74623 0.56987 0.0
H136 H 0.01469 0.83815 0.56435 0.0
H137 H 0.9889 0.76449 0.61236 0.0
H138 H 0.98386 0.86749 0.41405 0.0
H139 H 0.0781 0.70008 0.46203 0.0
H140 H 0.99537 0.84484 0.36568 0.0
H141 H 0.1196 0.73095 0.44167 0.0
O142 O 0.95983 0.79642 0.48651 0.0
H143 H 0.92299 0.69894 0.55887 0.0
H144 H 0.94164 0.80101 0.57412 0.0
H145 H 0.89088 0.78068 0.58712 0.0
H146 H 0.88129 0.72923 0.5797 0.0
H147 H 0.97313 0.72017 0.54575 0.0
H148 H 0.99136 0.7912 0.65916 0.0
H149 H 0.00537 0.84229 0.65845 0.0
O150 O 0.97744 0.81085 0.53046 0.0
C151 C 0.04338 0.81193 0.51378 0.0
C152 C 0.01097 0.84351 0.61119 0.0
C153 C 0.99663 0.80165 0.63846 0.0
N154 N 1.00193 0.79962 0.58562 0.0
C155 C 0.00963 0.82773 0.58507 0.0
C156 C 0.99553 0.78656 0.6119 0.0
C157 C 0.00444 0.83032 0.63804 0.0
C158 C 0.0455 0.73441 0.4666 0.0
N159 N 0.04006 0.76271 0.46284 0.0
C160 C 0.07406 0.72253 0.45898 0.0
C161 C 0.09734 0.73986 0.44762 0.0
C162 C 0.09185 0.76874 0.4441 0.0
C163 C 0.06299 0.77985 0.45191 0.0
C164 C 0.00406 0.80386 0.38483 0.0
C165 C 0.99123 0.82902 0.43877 0.0
C166 C 0.00519 0.78831 0.41108 0.0
N167 N 0.99886 0.80093 0.43763 0.0
C168 C 0.98987 0.84524 0.41298 0.0
C169 C 0.99631 0.83252 0.38585 0.0
C170 C 0.95754 0.812 0.5096 0.0
C171 C 0.92693 0.72136 0.56239 0.0
C172 C 0.93775 0.77861 0.57072 0.0
C173 C 0.9089 0.76721 0.57819 0.0
C174 C 0.90353 0.73836 0.57403 0.0
N175 N 0.96076 0.76178 0.55952 0.0
C176 C 0.95547 0.73352 0.55514 0.0
Co177 Co 0.27596 0.96849 0.51317 0.0
Co178 Co 0.283 0.0391 0.50262 0.0
O179 O 0.25596 1.00542 0.50586 0.0
C180 C 0.21587 0.95446 0.48153 0.0
O181 O 0.20962 0.98134 0.47701 0.0
C182 C 0.22205 0.06083 0.52724 0.0
O183 O 0.21533 0.03621 0.5391 0.0
O184 O 0.29645 0.03224 0.54434 0.0
O185 O 0.31022 0.98727 0.53614 0.0
H186 H 0.38297 0.09174 0.51869 0.0
H187 H 0.21084 0.97985 0.53334 0.0
O188 O 0.24205 0.9471 0.49207 0.0
H189 H 0.2656 0.94458 0.62141 0.0
H190 H 0.28111 0.86409 0.53677 0.0
H191 H 0.3411 0.94908 0.50915 0.0
H192 H 0.29302 0.9494 0.574 0.0
H193 H 0.25503 0.91009 0.53 0.0
O194 O 0.24844 0.06499 0.51536 0.0
H195 H 0.34805 0.05041 0.52024 0.0
H196 H 0.27611 0.09881 0.48091 0.0
H197 H 0.36816 0.90356 0.51608 0.0
H198 H 0.18248 0.97486 0.58006 0.0
H199 H 0.33812 0.86064 0.52996 0.0
H200 H 0.20982 0.95715 0.62469 0.0
O201 O 0.2991 0.97357 0.47503 0.0
H202 H 0.2052 0.0434 0.41987 0.0
H203 H 0.31571 0.05273 0.44591 0.0
H204 H 0.29953 0.05862 0.39406 0.0
H205 H 0.24388 0.05407 0.38072 0.0
H206 H 0.22245 0.03727 0.47138 0.0
H207 H 0.31012 0.14075 0.47924 0.0
H208 H 0.36406 0.13736 0.4981 0.0
O209 O 0.31846 0.01554 0.4879 0.0
C210 C 0.31067 0.00963 0.5521 0.0
C211 C 0.35951 0.0935 0.51041 0.0
C212 C 0.31861 0.12101 0.48833 0.0
N213 N 0.30995 0.07213 0.50076 0.0
C214 C 0.3396 0.07014 0.51121 0.0
C215 C 0.29936 0.09721 0.48951 0.0
C216 C 0.34888 0.11909 0.49888 0.0
C217 C 0.22292 0.97161 0.55226 0.0
N218 N 0.25351 0.96433 0.55042 0.0
C219 C 0.20672 0.96905 0.57887 0.0
C220 C 0.22207 0.95918 0.60391 0.0
C221 C 0.25334 0.95213 0.60208 0.0
C222 C 0.26876 0.95493 0.57508 0.0
C223 C 0.29445 0.88263 0.53067 0.0
C224 C 0.32786 0.93053 0.51524 0.0
C225 C 0.27978 0.90872 0.52663 0.0
N226 N 0.29651 0.9323 0.51912 0.0
C227 C 0.34331 0.9048 0.51911 0.0
C228 C 0.32644 0.88071 0.52688 0.0
C229 C 0.31804 0.99401 0.47091 0.0
C230 C 0.22951 0.04548 0.4254 0.0
C231 C 0.29145 0.05059 0.44034 0.0
C232 C 0.28243 0.05402 0.41091 0.0
C233 C 0.25122 0.05145 0.40344 0.0
N234 N 0.27004 0.04468 0.4618 0.0
C235 C 0.23942 0.04209 0.45459 0.0
Co236 Co 0.49236 0.97418 0.2569 0.0
Co237 Co 0.51566 0.04224 0.26734 0.0
O238 O 0.50455 0.0111 0.24054 0.0
C239 C 0.52358 0.93244 0.2179 0.0
O240 O 0.53691 0.92198 0.24164 0.0
C241 C 0.48711 0.07019 0.21329 0.0
O242 O 0.4764 0.0459 0.20351 0.0
O243 O 0.47387 0.03901 0.28646 0.0
O244 O 0.47532 0.99203 0.29361 0.0
H245 H 0.52139 0.0894 0.36694 0.0
H246 H 0.47086 0.98902 0.19652 0.0
O247 O 0.50811 0.95539 0.21985 0.0
H248 H 0.37546 0.97302 0.25421 0.0
H249 H 0.44546 0.87606 0.25368 0.0
H250 H 0.49954 0.94672 0.31541 0.0
H251 H 0.42673 0.9674 0.27742 0.0
H252 H 0.45986 0.92263 0.23315 0.0
O253 O 0.50006 0.0717 0.23861 0.0
H254 H 0.50928 0.05078 0.33207 0.0
H255 H 0.54439 0.09968 0.26069 0.0
H256 H 0.48553 0.90042 0.33682 0.0
H257 H 0.42003 0.99439 0.17231 0.0
H258 H 0.45832 0.86468 0.30588 0.0
H259 H 0.37184 0.98648 0.20123 0.0
O260 O 0.53399 0.97149 0.27647 0.0
H261 H 0.59064 0.04244 0.18186 0.0
H262 H 0.58027 0.04787 0.29028 0.0
H263 H 0.63217 0.05013 0.26775 0.0
H264 H 0.63764 0.04762 0.21313 0.0
H265 H 0.53926 0.03986 0.20527 0.0
H266 H 0.55651 0.139 0.29474 0.0
H267 H 0.54513 0.13395 0.34833 0.0
O268 O 0.53314 0.01491 0.29674 0.0
C269 C 0.46438 0.0165 0.29937 0.0
C270 C 0.52641 0.09188 0.34363 0.0
C271 C 0.54606 0.11974 0.30311 0.0
N272 N 0.52588 0.073 0.29429 0.0
C273 C 0.51959 0.07007 0.32375 0.0
C274 C 0.53892 0.09747 0.28388 0.0
C275 C 0.53971 0.11688 0.33317 0.0
C276 C 0.45004 0.98534 0.20922 0.0
N277 N 0.45188 0.97795 0.23837 0.0
C278 C 0.42129 0.9885 0.1954 0.0
C279 C 0.39427 0.98408 0.21165 0.0
C280 C 0.39629 0.97656 0.24137 0.0
C281 C 0.42543 0.97357 0.25444 0.0
C282 C 0.45735 0.89144 0.26738 0.0
C283 C 0.48779 0.93129 0.30175 0.0
C284 C 0.46559 0.91786 0.25588 0.0
N285 N 0.48075 0.93739 0.273 0.0
C286 C 0.47986 0.9051 0.31403 0.0
C287 C 0.46458 0.88506 0.29666 0.0
C288 C 0.54427 0.98998 0.29472 0.0
C289 C 0.58855 0.04385 0.20567 0.0
C290 C 0.58235 0.04687 0.26648 0.0
C291 C 0.61186 0.04813 0.25385 0.0
C292 C 0.61491 0.04669 0.22322 0.0
N293 N 0.55649 0.04446 0.24912 0.0
C294 C 0.5594 0.04262 0.21908 0.0
Co295 Co 0.98976 0.54695 0.2495 0.0
Co296 Co 0.01592 0.47899 0.24757 0.0
O297 O 1.00235 0.51224 0.27075 0.0
C298 C 0.01403 0.56841 0.30904 0.0
O299 O 0.02361 0.54323 0.31728 0.0
C300 C 0.98872 0.45371 0.30418 0.0
O301 O 0.97949 0.47844 0.31415 0.0
O302 O 0.97458 0.47846 0.22732 0.0
O303 O 0.97487 0.52434 0.21494 0.0
H304 H 0.02669 0.42268 0.15368 0.0
H305 H 0.96454 0.53418 0.30969 0.0
O306 O 1.00295 0.57224 0.28319 0.0
H307 H 0.87298 0.54783 0.24626 0.0
H308 H 0.94244 0.64413 0.2386 0.0
H309 H 0.99771 0.5668 0.1877 0.0
H310 H 0.92552 0.55228 0.22559 0.0
H311 H 0.95631 0.60042 0.26531 0.0
O312 O 1.00062 0.45151 0.27846 0.0
H313 H 0.01172 0.46389 0.18398 0.0
H314 H 0.04735 0.4239 0.2609 0.0
H315 H 0.98396 0.60996 0.16001 0.0
H316 H 0.9125 0.52995 0.33132 0.0
H317 H 0.95617 0.64907 0.1855 0.0
H318 H 0.86614 0.53676 0.29956 0.0
O319 O 0.03213 0.549 0.23144 0.0
H320 H 0.08875 0.48979 0.33416 0.0
H321 H 0.08129 0.47427 0.22661 0.0
H322 H 0.13267 0.47649 0.25013 0.0
H323 H 0.13671 0.48413 0.30435 0.0
H324 H 0.03795 0.48778 0.30974 0.0
H325 H 0.06235 0.3821 0.23149 0.0
H326 H 0.05215 0.38134 0.17743 0.0
O327 O 0.03304 0.50397 0.21577 0.0
C328 C 0.96431 0.4993 0.21221 0.0
C329 C 0.03121 0.42273 0.17722 0.0
C330 C 0.05118 0.39993 0.22089 0.0
N331 N 0.02843 0.44629 0.22425 0.0
C332 C 0.02278 0.44602 0.19451 0.0
C333 C 0.04243 0.4236 0.23748 0.0
C334 C 0.04548 0.39954 0.19056 0.0
C335 C 0.9447 0.53764 0.29575 0.0
N336 N 0.94835 0.54405 0.2665 0.0
C337 C 0.91516 0.53502 0.30811 0.0
C338 C 0.88916 0.53878 0.29028 0.0
C339 C 0.89298 0.54501 0.2604 0.0
C340 C 0.92287 0.54749 0.24883 0.0
C341 C 0.95468 0.6273 0.22727 0.0
C342 C 0.9857 0.5837 0.19898 0.0
C343 C 0.96282 0.60258 0.24236 0.0
N344 N 0.97817 0.58115 0.2282 0.0
C345 C 0.97793 0.60811 0.18317 0.0
C346 C 0.96235 0.63004 0.19748 0.0
C347 C 0.04347 0.52922 0.21542 0.0
C348 C 0.08731 0.48619 0.31055 0.0
C349 C 0.08272 0.47752 0.25023 0.0
C350 C 0.11195 0.47877 0.26343 0.0
C351 C 0.1142 0.48307 0.29382 0.0
N352 N 0.05634 0.48027 0.26681 0.0
C353 C 0.05847 0.48483 0.29658 0.0
Co354 Co 0.49776 0.05432 0.75713 0.0
Co355 Co 0.51613 0.98452 0.75325 0.0
O356 O 0.50732 0.01842 0.77755 0.0
C357 C 0.52427 0.07342 0.81675 0.0
O358 O 0.52971 0.04746 0.82583 0.0
C359 C 0.48977 0.96109 0.81103 0.0
O360 O 0.48304 0.98644 0.82113 0.0
O361 O 0.4738 0.98796 0.73507 0.0
O362 O 0.4792 0.03351 0.72295 0.0
H363 H 0.51512 0.92894 0.65832 0.0
H364 H 0.47269 0.042 0.81772 0.0
O365 O 0.51483 0.07801 0.79046 0.0
H366 H 0.38173 0.06711 0.75754 0.0
H367 H 0.46149 0.15563 0.74861 0.0
H368 H 0.50574 0.07398 0.69526 0.0
H369 H 0.43384 0.06688 0.73551 0.0
H370 H 0.47133 0.1106 0.77454 0.0
O371 O 0.49994 0.95796 0.78471 0.0
H372 H 0.50633 0.97078 0.68987 0.0
H373 H 0.54292 0.92692 0.76404 0.0
H374 H 0.49592 0.11849 0.66839 0.0
H375 H 0.42119 0.0424 0.8407 0.0
H376 H 0.47367 0.15976 0.69509 0.0
H377 H 0.37508 0.055 0.81061 0.0
O378 O 0.53952 0.05269 0.7378 0.0
H379 H 0.59443 0.9885 0.83601 0.0
H380 H 0.57951 0.9743 0.72897 0.0
H381 H 0.6321 0.97197 0.74988 0.0
H382 H 0.63987 0.97891 0.80383 0.0
H383 H 0.54237 0.99103 0.81419 0.0
H384 H 0.55174 0.88447 0.73337 0.0
H385 H 0.53793 0.88534 0.68005 0.0
O386 O 0.53406 0.0084 0.72087 0.0
C387 C 0.46537 0.00977 0.72032 0.0
C388 C 0.52118 0.92827 0.68154 0.0
C389 C 0.54167 0.9033 0.72366 0.0
N390 N 0.52385 0.95128 0.72888 0.0
C391 C 0.51625 0.95192 0.69954 0.0
C392 C 0.5364 0.92734 0.74098 0.0
C393 C 0.53396 0.90382 0.69374 0.0
C394 C 0.4531 0.04801 0.80448 0.0
N395 N 0.45674 0.05505 0.77538 0.0
C396 C 0.4238 0.04798 0.81762 0.0
C397 C 0.39793 0.05498 0.80072 0.0
C398 C 0.40165 0.06177 0.77097 0.0
C399 C 0.43132 0.06159 0.75861 0.0
C400 C 0.47128 0.13783 0.73674 0.0
C401 C 0.4961 0.09181 0.70707 0.0
C402 C 0.47711 0.11232 0.75136 0.0
N403 N 0.48932 0.08966 0.7365 0.0
C404 C 0.49056 0.11698 0.69172 0.0
C405 C 0.47809 0.14012 0.70671 0.0
C406 C 0.54773 0.03234 0.72086 0.0
C407 C 0.59132 0.98515 0.81252 0.0
C408 C 0.58255 0.97722 0.7525 0.0
C409 C 0.61247 0.9759 0.7642 0.0
C410 C 0.61681 0.97982 0.79445 0.0
N411 N 0.55751 0.98208 0.7704 0.0
C412 C 0.56174 0.98633 0.80002 0.0
Co413 Co 0.99912 0.4628 0.75285 0.0
Co414 Co 0.01789 0.5325 0.75818 0.0
O415 O 0.00922 0.49899 0.7332 0.0
C416 C 0.02641 0.44436 0.69335 0.0
O417 O 0.0316 0.47039 0.68432 0.0
C418 C 0.99264 0.55686 0.70042 0.0
O419 O 0.98587 0.5317 0.68983 0.0
O420 O 0.9753 0.52898 0.7757 0.0
O421 O 0.97985 0.48314 0.78697 0.0
H422 H 0.01564 0.58678 0.8539 0.0
H423 H 0.9752 0.47642 0.69211 0.0
O424 O 0.01688 0.4396 0.71957 0.0
H425 H 0.88315 0.44951 0.74995 0.0
H426 H 0.96293 0.36123 0.75911 0.0
H427 H 0.00551 0.44241 0.81461 0.0
H428 H 0.93478 0.44947 0.77292 0.0
H429 H 0.97335 0.40661 0.73403 0.0
O430 O 1.00243 0.55957 0.72691 0.0
H431 H 0.00713 0.5454 0.82161 0.0
H432 H 0.04529 0.59012 0.74868 0.0
H433 H 0.99506 0.39753 0.84064 0.0
H434 H 0.92421 0.4763 0.66817 0.0
H435 H 0.97364 0.35651 0.81285 0.0
H436 H 0.87754 0.46279 0.69708 0.0
O437 O 0.0405 0.46407 0.77291 0.0
H438 H 0.09749 0.52926 0.67652 0.0
H439 H 0.08094 0.54216 0.78352 0.0
H440 H 0.13388 0.54456 0.76341 0.0
H441 H 0.14247 0.53828 0.70949 0.0
H442 H 0.04507 0.52664 0.69755 0.0
H443 H 0.05386 0.63212 0.78011 0.0
H444 H 0.03912 0.63058 0.83319 0.0
O445 O 0.03505 0.5081 0.79046 0.0
C446 C 0.96637 0.50699 0.78991 0.0
C447 C 0.02212 0.58773 0.8308 0.0
C448 C 0.0435 0.6132 0.78938 0.0
N449 N 0.02546 0.56536 0.78317 0.0
C450 C 0.01735 0.56435 0.81237 0.0
C451 C 0.03838 0.58941 0.77162 0.0
C452 C 0.03527 0.61231 0.81916 0.0
C453 C 0.95539 0.47002 0.70484 0.0
N454 N 0.95847 0.46233 0.73381 0.0
C455 C 0.92636 0.47021 0.69116 0.0
C456 C 0.90018 0.4627 0.70739 0.0
C457 C 0.90332 0.45525 0.73702 0.0
C458 C 0.93272 0.4553 0.74993 0.0
C459 C 0.97233 0.37893 0.77146 0.0
C460 C 0.99619 0.4247 0.80234 0.0
C461 C 0.97847 0.40465 0.75733 0.0
N462 N 0.99019 0.42718 0.77278 0.0
C463 C 0.99031 0.39931 0.81721 0.0
C464 C 0.97831 0.3763 0.80161 0.0
C465 C 0.04859 0.48414 0.79025 0.0
C466 C 0.09402 0.53233 0.70001 0.0
C467 C 0.08434 0.53954 0.75999 0.0
C468 C 0.11445 0.54089 0.74875 0.0
C469 C 0.11926 0.53733 0.71852 0.0
N470 N 0.05956 0.535 0.74167 0.0
C471 C 0.06423 0.53109 0.71206 0.0
Co472 Co 0.2267 0.54508 1.00381 0.0
Co473 Co 0.22785 0.47344 1.00549 0.0
O474 O 0.25075 0.50961 1.00487 0.0
C475 C 0.28817 0.55835 0.97455 0.0
O476 O 0.29497 0.53134 0.9723 0.0
C477 C 0.28913 0.46202 0.03586 0.0
O478 O 0.29494 0.48923 0.03822 0.0
O479 O 0.20869 0.48572 0.04379 0.0
O480 O 0.19151 0.52683 0.02587 0.0
H481 H 0.13206 0.41459 0.02104 0.0
H482 H 0.28992 0.54407 0.03097 0.0
O483 O 0.26131 0.566 0.98315 0.0
H484 H 0.22168 0.58443 0.10745 0.0
H485 H 0.20934 0.65068 0.00948 0.0
H486 H 0.16108 0.55776 0.98975 0.0
H487 H 0.20057 0.57055 0.05901 0.0
H488 H 0.24004 0.60679 0.01306 0.0
O489 O 0.26268 0.45355 0.02686 0.0
H490 H 0.16236 0.45885 0.01815 0.0
H491 H 0.24342 0.41214 0.99667 0.0
H492 H 0.12942 0.6011 0.98629 0.0
H493 H 0.31204 0.55808 0.07885 0.0
H494 H 0.15354 0.648 0.99616 0.0
H495 H 0.27786 0.57838 0.11765 0.0
O496 O 0.20884 0.53228 0.96514 0.0
H497 H 0.31519 0.46297 0.93213 0.0
H498 H 0.2038 0.44715 0.94984 0.0
H499 H 0.2264 0.43384 0.90185 0.0
H500 H 0.28256 0.44157 0.89274 0.0
H501 H 0.29158 0.47638 0.97954 0.0
H502 H 0.2141 0.36737 0.9997 0.0
H503 H 0.15794 0.36841 0.01181 0.0
O504 O 0.19259 0.49065 0.98267 0.0
C505 C 0.19167 0.50782 0.04594 0.0
C506 C 0.15652 0.41386 0.01575 0.0
C507 C 0.20256 0.38735 1.00383 0.0
N508 N 0.20467 0.43813 0.00732 0.0
C509 C 0.1738 0.43886 0.01406 0.0
C510 C 0.21911 0.41278 1.00233 0.0
C511 C 0.17106 0.38795 0.01059 0.0
C512 C 0.27486 0.55315 0.04741 0.0
N513 N 0.24398 0.55667 0.04182 0.0
C514 C 0.28754 0.56095 0.07465 0.0
C515 C 0.26836 0.5723 0.09641 0.0
C516 C 0.23686 0.57569 0.09071 0.0
C517 C 0.22503 0.56772 0.06319 0.0
C518 C 0.19857 0.63038 1.00506 0.0
C519 C 0.17176 0.57806 0.99412 0.0
C520 C 0.2159 0.60545 0.00686 0.0
N521 N 0.20242 0.57969 1.00153 0.0
C522 C 0.15371 0.60255 0.9921 0.0
C523 C 0.16726 0.62886 0.99762 0.0
C524 C 0.19262 0.50969 0.96261 0.0
C525 C 0.29072 0.45936 0.93587 0.0
C526 C 0.22823 0.45071 0.94613 0.0
C527 C 0.24091 0.44305 0.91886 0.0
C528 C 0.2724 0.44739 0.91376 0.0
N529 N 0.24634 0.46235 0.96784 0.0
C530 C 0.27719 0.4668 0.96284 0.0
Co531 Co 0.51014 0.28866 0.97901 0.0
Co532 Co 0.50223 0.28631 0.0534 0.0
O533 O 0.50586 0.26614 0.01545 0.0
C534 C 0.47931 0.23333 0.96107 0.0
O535 O 0.47254 0.2272 0.9886 0.0
C536 C 0.53059 0.22905 0.06813 0.0
O537 O 0.53509 0.22311 0.04012 0.0
O538 O 0.54407 0.30316 0.04589 0.0
O539 O 0.53205 0.31991 1.00102 0.0
H540 H 0.51297 0.37207 0.11867 0.0
H541 H 0.53605 0.22992 0.98253 0.0
O542 O 0.49017 0.25773 0.95446 0.0
H543 H 0.62303 0.29002 0.95006 0.0
H544 H 0.53082 0.30579 0.87066 0.0
H545 H 0.49924 0.34926 0.96515 0.0
H546 H 0.57176 0.31093 0.95968 0.0
H547 H 0.52803 0.27715 0.91614 0.0
O548 O 0.52102 0.25356 0.07583 0.0
H549 H 0.51535 0.34549 0.07179 0.0
H550 H 0.48385 0.27102 0.11519 0.0
H551 H 0.50215 0.37881 0.92031 0.0
H552 H 0.58675 0.20816 0.9729 0.0
H553 H 0.51796 0.35708 0.87259 0.0
H554 H 0.63081 0.23823 0.95652 0.0
O555 O 0.46895 0.30647 0.98791 0.0
H556 H 0.42211 0.20828 0.05398 0.0
H557 H 0.44133 0.30965 0.07315 0.0
H558 H 0.38894 0.2902 0.08045 0.0
H559 H 0.37902 0.2391 0.07102 0.0
H560 H 0.47393 0.22864 0.04651 0.0
H561 H 0.48151 0.2967 0.16263 0.0
H562 H 0.49599 0.34765 0.16456 0.0
O563 O 0.48203 0.31959 0.03368 0.0
C564 C 0.54954 0.31924 0.02375 0.0
C565 C 0.50663 0.34987 0.11813 0.0
C566 C 0.48903 0.30756 0.1428 0.0
N567 N 0.49988 0.30668 0.09071 0.0
C568 C 0.50792 0.33469 0.09162 0.0
C569 C 0.4906 0.29307 0.1159 0.0
C570 C 0.49712 0.33615 0.14387 0.0
C571 C 0.5548 0.2432 0.97512 0.0
N572 N 0.55053 0.27166 0.97127 0.0
C573 C 0.58362 0.23073 0.96982 0.0
C574 C 0.60833 0.2476 0.96066 0.0
C575 C 0.60398 0.27664 0.95701 0.0
C576 C 0.57482 0.28836 0.96252 0.0
C577 C 0.52373 0.31548 0.89128 0.0
C578 C 0.5061 0.3396 0.9445 0.0
C579 C 0.52183 0.29928 0.91706 0.0
N580 N 0.51312 0.31138 0.94326 0.0
C581 C 0.50772 0.35646 0.91916 0.0
C582 C 0.51657 0.34426 0.89239 0.0
C583 C 0.46445 0.32149 0.01109 0.0
C584 C 0.42617 0.23054 0.05834 0.0
C585 C 0.43732 0.28739 0.06891 0.0
C586 C 0.40754 0.2765 0.07314 0.0
C587 C 0.40199 0.24785 0.06785 0.0
N588 N 0.46106 0.27027 0.05973 0.0
C589 C 0.45564 0.2422 0.05431 0.0
Co590 Co 0.78057 0.48073 0.00735 0.0
Co591 Co 0.78131 0.55161 0.99712 0.0
O592 O 0.75713 0.51646 1.0031 0.0
C593 C 0.71775 0.46298 0.98271 0.0
O594 O 0.70975 0.48928 0.97718 0.0
C595 C 0.7221 0.57025 0.02794 0.0
O596 O 0.71604 0.54468 0.03775 0.0
O597 O 0.80135 0.54484 0.03662 0.0
O598 O 0.81695 0.50137 0.0245 0.0
H599 H 0.87994 0.60831 1.00027 0.0
H600 H 0.71856 0.48748 0.03586 0.0
O601 O 0.74506 0.45728 0.9917 0.0
H602 H 0.78895 0.45922 0.11634 0.0
H603 H 0.79716 0.37758 0.03212 0.0
H604 H 0.84514 0.46453 0.99252 0.0
H605 H 0.80846 0.46436 0.06549 0.0
H606 H 0.76734 0.42202 0.02919 0.0
O607 O 0.74783 0.57568 0.01532 0.0
H608 H 0.84769 0.56547 1.00548 0.0
H609 H 0.76805 0.61159 0.97874 0.0
H610 H 0.87597 0.42068 0.99546 0.0
H611 H 0.69801 0.48208 0.08623 0.0
H612 H 0.85197 0.37675 0.01531 0.0
H613 H 0.73329 0.46793 0.12701 0.0
O614 O 0.79717 0.48686 0.9665 0.0
H615 H 0.69166 0.55221 0.92584 0.0
H616 H 0.80379 0.56905 0.93712 0.0
H617 H 0.77951 0.57536 0.88833 0.0
H618 H 0.72297 0.56707 0.88243 0.0
H619 H 0.71695 0.54581 0.97411 0.0
H620 H 0.79931 0.65499 0.97358 0.0
H621 H 0.85577 0.65352 0.98423 0.0
O622 O 0.81517 0.53013 0.97649 0.0
C623 C 0.81802 0.52293 0.04144 0.0
C624 C 0.85536 0.60923 0.99557 0.0
C625 C 0.81011 0.63544 0.98065 0.0
N626 N 0.8059 0.58593 0.99249 0.0
C627 C 0.83695 0.58501 0.99847 0.0
C628 C 0.79244 0.6108 0.9838 0.0
C629 C 0.84179 0.63459 0.98659 0.0
C630 C 0.73404 0.48089 0.05321 0.0
N631 N 0.76462 0.47584 0.04739 0.0
C632 C 0.72227 0.47804 0.08184 0.0
C633 C 0.74208 0.47015 0.10471 0.0
C634 C 0.77329 0.46525 0.09874 0.0
C635 C 0.7842 0.46824 0.06984 0.0
C636 C 0.80783 0.39654 0.02327 0.0
C637 C 0.83447 0.44553 1.00114 0.0
C638 C 0.79095 0.42171 0.02131 0.0
N639 N 0.8043 0.44582 0.01036 0.0
C640 C 0.85207 0.42074 1.00277 0.0
C641 C 0.8386 0.3961 0.01389 0.0
C642 C 0.81392 0.50832 0.95982 0.0
C643 C 0.71629 0.556 0.92813 0.0
C644 C 0.77922 0.56529 0.93482 0.0
C645 C 0.76557 0.56896 0.90708 0.0
C646 C 0.73387 0.5643 0.90379 0.0
N647 N 0.76183 0.55727 0.9587 0.0
C648 C 0.73077 0.55248 0.95551 0.0
Co649 Co 0.50112 0.73676 0.04002 0.0
Co650 Co 0.49828 0.73965 0.9654 0.0
O651 O 0.49901 0.75951 1.00361 0.0
C652 C 0.46997 0.79201 0.0569 0.0
O653 O 0.46707 0.79946 0.0291 0.0
C654 C 0.52662 0.79758 0.95304 0.0
O655 O 0.53015 0.80281 0.98133 0.0
O656 O 0.53989 0.72335 0.97543 0.0
O657 O 0.5247 0.70598 0.0191 0.0
H658 H 0.51542 0.65465 0.90031 0.0
H659 H 0.52723 0.79583 0.0385 0.0
O660 O 0.47895 0.76704 0.06355 0.0
H661 H 0.61206 0.73551 0.07492 0.0
H662 H 0.51358 0.71971 0.14944 0.0
H663 H 0.49106 0.67575 0.05282 0.0
H664 H 0.56142 0.71464 0.06252 0.0
H665 H 0.51311 0.74857 0.10404 0.0
O666 O 0.51779 0.77308 0.94438 0.0
H667 H 0.51408 0.68093 0.94742 0.0
H668 H 0.48316 0.75484 0.90279 0.0
H669 H 0.49165 0.64605 0.09764 0.0
H670 H 0.5772 0.81754 0.05111 0.0
H671 H 0.50295 0.66802 0.14641 0.0
H672 H 0.62023 0.78737 0.06945 0.0
O673 O 0.4609 0.71849 0.0285 0.0
H674 H 0.41705 0.81638 0.96093 0.0
H675 H 0.4392 0.71556 0.94168 0.0
H676 H 0.38708 0.7343 0.93145 0.0
H677 H 0.37571 0.78511 0.94091 0.0
H678 H 0.46861 0.79672 0.97127 0.0
H679 H 0.48457 0.72949 0.85512 0.0
H680 H 0.50065 0.67896 0.85369 0.0
O681 O 0.47728 0.70586 0.98356 0.0
C682 C 0.54382 0.70686 0.99758 0.0
C683 C 0.50845 0.67669 0.90063 0.0
C684 C 0.4912 0.7187 0.87526 0.0
N685 N 0.49882 0.71951 0.92788 0.0
C686 C 0.50766 0.6917 0.92726 0.0
C687 C 0.49069 0.73303 0.9023 0.0
C688 C 0.50017 0.69034 0.87448 0.0
C689 C 0.54538 0.78249 0.04692 0.0
N690 N 0.54083 0.75401 0.05032 0.0
C691 C 0.57387 0.79495 0.05384 0.0
C692 C 0.59801 0.77801 0.06407 0.0
C693 C 0.59344 0.74894 0.06715 0.0
C694 C 0.56462 0.73725 0.06009 0.0
C695 C 0.50858 0.70989 0.12833 0.0
C696 C 0.49605 0.68549 0.07392 0.0
C697 C 0.5081 0.72617 0.10254 0.0
N698 N 0.502 0.7139 0.07575 0.0
C699 C 0.49632 0.66855 0.09925 0.0
C700 C 0.50264 0.68089 0.12661 0.0
C701 C 0.45822 0.70355 1.00501 0.0
C702 C 0.42176 0.79423 0.95654 0.0
C703 C 0.43455 0.7377 0.94595 0.0
C704 C 0.40493 0.74819 0.94005 0.0
C705 C 0.39856 0.77668 0.94536 0.0
N706 N 0.45734 0.75507 0.95674 0.0
C707 C 0.45109 0.78298 0.96221 0.0
H708 H 0.03833 0.34715 0.45497 0.0
H709 H 0.01661 0.28762 0.38537 0.0
H710 H 0.02744 0.38638 0.42138 0.0
H711 H 0.0036 0.3263 0.35274 0.0
H712 H 0.00837 0.40028 0.29055 0.0
H713 H 0.02156 0.36227 0.32387 0.0
H714 H 0.98773 0.41174 0.39766 0.0
H715 H 0.97658 0.451 0.36407 0.0
C716 C 0.03141 0.34237 0.43249 0.0
C717 C 0.02825 0.31408 0.42304 0.0
C718 C 0.02463 0.36492 0.41329 0.0
C719 C 0.01422 0.35979 0.38421 0.0
C720 C 0.0119 0.33143 0.37469 0.0
C721 C 0.01915 0.30902 0.39364 0.0
C722 C 0.00372 0.40324 0.31386 0.0
C723 C 0.99169 0.429 0.32452 0.0
C724 C 0.01105 0.38112 0.33313 0.0
C725 C 0.00591 0.38365 0.36375 0.0
C726 C 0.99272 0.40907 0.37437 0.0
C727 C 0.98583 0.4315 0.35502 0.0
H728 H 0.64571 0.96869 0.45922 0.0
H729 H 0.68935 0.03784 0.41227 0.0
H730 H 0.61281 0.95926 0.41701 0.0
H731 H 0.65533 0.02872 0.3698 0.0
H732 H 0.60699 0.99023 0.28927 0.0
H733 H 0.64416 0.99383 0.3302 0.0
H734 H 0.56947 0.98081 0.39245 0.0
H735 H 0.53285 0.97714 0.35159 0.0
C736 C 0.64822 0.9821 0.43993 0.0
C737 C 0.67028 1.00415 0.43928 0.0
C738 C 0.62916 0.97666 0.41566 0.0
C739 C 0.63136 0.99315 0.38993 0.0
C740 C 0.65332 0.01533 0.38915 0.0
C741 C 0.67255 0.02081 0.4136 0.0
C742 C 0.59893 0.98697 0.3117 0.0
C743 C 0.5673 0.98254 0.31735 0.0
C744 C 0.62003 0.98961 0.33516 0.0
C745 C 0.60982 0.98784 0.36468 0.0
C746 C 0.57831 0.98193 0.37006 0.0
C747 C 0.5573 0.9795 0.34667 0.0
H748 H 0.02712 0.56808 0.36888 0.0
H749 H 0.99084 0.62141 0.29949 0.0
H750 H 0.01481 0.60484 0.40515 0.0
H751 H 0.97611 0.65655 0.33537 0.0
H752 H 0.97849 0.72812 0.40045 0.0
H753 H 0.99197 0.69173 0.36535 0.0
H754 H 0.97605 0.6276 0.43201 0.0
H755 H 0.96517 0.66476 0.46813 0.0
C756 C 0.01653 0.58758 0.36131 0.0
C757 C 0.00986 0.59156 0.33115 0.0
C758 C 0.00896 0.60856 0.38221 0.0
C759 C 0.99413 0.63389 0.37352 0.0
C760 C 0.98796 0.63782 0.34324 0.0
C761 C 0.99613 0.61727 0.32245 0.0
C762 C 0.97785 0.70632 0.40778 0.0
C763 C 0.97116 0.69959 0.43738 0.0
C764 C 0.98531 0.68516 0.38737 0.0
C765 C 0.98539 0.65635 0.39556 0.0
C766 C 0.97707 0.64947 0.42486 0.0
C767 C 0.97024 0.67082 0.44554 0.0
H768 H 0.37564 0.01657 0.47176 0.0
H769 H 0.31139 0.97259 0.41467 0.0
H770 H 0.41037 0.02432 0.43023 0.0
H771 H 0.34662 0.98025 0.37261 0.0
H772 H 0.40256 0.02927 0.30031 0.0
H773 H 0.36675 0.02184 0.34205 0.0
H774 H 0.44399 0.99692 0.39697 0.0
H775 H 0.47925 1.00441 0.35553 0.0
C776 C 0.36923 0.00805 0.45035 0.0
C777 C 0.34094 0.99366 0.44653 0.0
C778 C 0.38913 0.01257 0.42651 0.0
C779 C 0.38121 1.00306 0.39806 0.0
C780 C 0.3532 0.9881 0.39423 0.0
C781 C 0.3333 0.98326 0.41834 0.0
C782 C 0.41176 0.02304 0.32163 0.0
C783 C 0.44363 0.01815 0.32511 0.0
C784 C 0.39131 0.01827 0.3453 0.0
C785 C 0.40253 0.00868 0.3728 0.0
C786 C 0.4346 1.00457 0.37624 0.0
C787 C 0.45483 0.00904 0.35262 0.0
H788 H 0.01032 0.61085 0.71459 0.0
H789 H 0.98216 0.5594 0.64026 0.0
H790 H 0.02338 0.64921 0.68165 0.0
H791 H 0.99292 0.59898 0.60702 0.0
H792 H 0.04146 0.66515 0.5504 0.0
H793 H 0.03149 0.62557 0.5838 0.0
H794 H 0.006 0.68485 0.65263 0.0
H795 H 0.01829 0.72387 0.62025 0.0
C796 C 0.00644 0.60779 0.69117 0.0
C797 C 0.9955 0.58171 0.68021 0.0
C798 C 0.01368 0.63012 0.6721 0.0
C799 C 0.00943 0.62752 0.64134 0.0
C800 C 0.99728 0.60177 0.63041 0.0
C801 C 0.99059 0.57911 0.64956 0.0
C802 C 0.0344 0.66969 0.5729 0.0
C803 C 0.03054 0.69788 0.58245 0.0
C804 C 0.02813 0.64691 0.59199 0.0
C805 C 0.01746 0.65167 0.62107 0.0
C806 C 0.01452 0.67995 0.63071 0.0
C807 C 0.02134 0.70259 0.61187 0.0
H808 H 0.44744 0.0519 0.68308 0.0
H809 H 0.42736 0.96452 0.70489 0.0
H810 H 0.40816 0.0512 0.64536 0.0
H811 H 0.38697 0.96404 0.66656 0.0
H812 H 0.34868 0.96685 0.57041 0.0
H813 H 0.38295 0.96573 0.6128 0.0
H814 H 0.35313 0.04992 0.63732 0.0
H815 H 0.31885 0.05131 0.59424 0.0
C816 C 0.43445 0.03246 0.68011 0.0
C817 C 0.44071 0.0082 0.69732 0.0
C818 C 0.41156 0.03223 0.65843 0.0
C819 C 0.39406 1.00773 0.65304 0.0
C820 C 0.40014 0.9833 0.67011 0.0
C821 C 0.42322 0.98354 0.69209 0.0
C822 C 0.34914 0.98517 0.58484 0.0
C823 C 0.331 0.00932 0.57868 0.0
C824 C 0.36872 0.98435 0.60941 0.0
C825 C 0.37087 1.00767 0.62856 0.0
C826 C 0.35232 0.03166 0.6228 0.0
C827 C 0.33263 0.0325 0.59813 0.0
H828 H 0.96383 0.34022 0.54522 0.0
H829 H 0.00428 0.2804 0.60621 0.0
H830 H 0.97699 0.37892 0.57892 0.0
H831 H 0.01956 0.31863 0.63836 0.0
H832 H 0.01818 0.38835 0.70566 0.0
H833 H 0.00395 0.35083 0.67216 0.0
H834 H 0.01672 0.4075 0.59796 0.0
H835 H 0.02858 0.44612 0.63228 0.0
C836 C 0.9754 0.33524 0.56582 0.0
C837 C 0.98295 0.30702 0.57285 0.0
C838 C 0.98346 0.35754 0.58499 0.0
C839 C 0.99967 0.35223 0.61152 0.0
C840 C 0.00666 0.32389 0.61859 0.0
C841 C 0.99805 0.30171 0.59984 0.0
C842 C 0.01802 0.39297 0.68222 0.0
C843 C 0.0242 0.42051 0.67183 0.0
C844 C 0.01011 0.37116 0.66276 0.0
C845 C 0.00894 0.37581 0.63204 0.0
C846 C 0.01662 0.40308 0.62145 0.0
C847 C 0.02401 0.42519 0.64111 0.0
H848 H 0.61078 0.03248 0.72441 0.0
H849 H 0.53458 0.03841 0.66316 0.0
H850 H 0.6469 0.02629 0.68284 0.0
H851 H 0.57016 0.03234 0.62178 0.0
H852 H 0.64479 0.04425 0.55288 0.0
H853 H 0.61248 0.05481 0.59526 0.0
H854 H 0.65769 0.98855 0.64494 0.0
H855 H 0.69093 0.97816 0.60218 0.0
C856 C 0.60201 0.03354 0.70199 0.0
C857 C 0.57013 0.03685 0.69681 0.0
C858 C 0.62251 0.02945 0.67825 0.0
C859 C 0.61143 0.02871 0.64896 0.0
C860 C 0.57961 0.03318 0.64396 0.0
C861 C 0.55921 0.03696 0.66761 0.0
C862 C 0.64795 0.03175 0.57273 0.0
C863 C 0.67049 0.0102 0.57399 0.0
C864 C 0.62928 0.03785 0.59709 0.0
C865 C 0.63246 0.0226 0.62355 0.0
C866 C 0.65492 1.00094 0.62497 0.0
C867 C 0.67368 0.99472 0.60038 0.0
H868 H 0.46199 0.3671 0.04764 0.0
H869 H 0.41067 0.32532 0.97804 0.0
H870 H 0.42002 0.40047 0.05454 0.0
H871 H 0.36827 0.35951 0.98477 0.0
H872 H 0.28593 0.4041 0.03107 0.0
H873 H 0.32847 0.37107 0.02278 0.0
H874 H 0.39398 0.43992 0.03082 0.0
H875 H 0.35149 0.47301 0.0391 0.0
C876 C 0.4418 0.36517 0.03352 0.0
C877 C 0.4397 0.34338 0.01228 0.0
C878 C 0.41774 0.38452 0.03744 0.0
C879 C 0.39069 0.3827 0.02032 0.0
C880 C 0.3887 0.36129 0.99857 0.0
C881 C 0.41307 0.3419 0.99447 0.0
C882 C 0.3094 0.41224 0.03128 0.0
C883 C 0.31517 0.44134 0.0357 0.0
C884 C 0.33379 0.39328 0.02622 0.0
C885 C 0.36464 0.40285 0.02572 0.0
C886 C 0.37051 0.43177 0.03116 0.0
C887 C 0.3461 0.45077 0.03607 0.0
H888 H 0.35095 0.5494 0.97193 0.0
H889 H 0.28281 0.61609 0.97952 0.0
H890 H 0.3921 0.58382 0.98104 0.0
H891 H 0.32397 0.6504 0.98875 0.0
H892 H 0.40369 0.6975 0.03653 0.0
H893 H 0.36259 0.66231 0.02804 0.0
H894 H 0.41696 0.62475 0.95808 0.0
H895 H 0.45767 0.65919 0.96663 0.0
C896 C 0.34472 0.57144 0.97505 0.0
C897 C 0.31345 0.57984 0.97509 0.0
C898 C 0.36833 0.59118 0.98043 0.0
C899 C 0.36131 0.61983 0.98607 0.0
C900 C 0.33015 0.62841 0.98516 0.0
C901 C 0.30656 0.60872 0.97959 0.0
C902 C 0.40693 0.68151 0.01961 0.0
C903 C 0.43397 0.68127 1.00229 0.0
C904 C 0.38331 0.66152 0.01453 0.0
C905 C 0.38646 0.64074 0.99228 0.0
C906 C 0.41383 0.64021 0.97555 0.0
C907 C 0.43716 0.66017 0.98042 0.0
H908 H 0.6105 0.30768 0.01628 0.0
H909 H 0.54619 0.37627 0.0293 0.0
H910 H 0.65095 0.34137 1.00317 0.0
H911 H 0.58712 0.41058 0.01902 0.0
H912 H 0.6551 0.46653 0.97121 0.0
H913 H 0.61536 0.43143 0.98246 0.0
H914 H 0.68615 0.37453 0.01509 0.0
H915 H 0.72544 0.40822 1.00114 0.0
C916 C 0.6055 0.33016 0.01752 0.0
C917 C 0.57551 0.33948 0.02421 0.0
C918 C 0.62869 0.34966 0.00997 0.0
C919 C 0.62263 0.37909 0.00966 0.0
C920 C 0.59277 0.38826 0.01805 0.0
C921 C 0.56939 0.36866 0.02469 0.0
C922 C 0.66214 0.44627 0.98022 0.0
C923 C 0.6936 0.44051 0.98558 0.0
C924 C 0.63924 0.42619 0.98724 0.0
C925 C 0.6471 0.40001 1.00041 0.0
C926 C 0.67873 0.39408 1.0048 0.0
C927 C 0.70154 0.41377 0.99707 0.0
H928 H 0.71534 0.60926 0.98425 0.0
H929 H 0.67064 0.57808 0.06313 0.0
H930 H 0.67295 0.64152 0.97561 0.0
H931 H 0.62821 0.61166 0.05535 0.0
H932 H 0.54213 0.65325 0.01876 0.0
H933 H 0.58509 0.62086 0.0264 0.0
H934 H 0.64779 0.68281 0.98886 0.0
H935 H 0.60405 0.71457 0.9798 0.0
C936 C 0.69684 0.60988 1.00034 0.0
C937 C 0.69676 0.59136 0.02473 0.0
C938 C 0.6723 0.62852 0.99532 0.0
C939 C 0.64691 0.62956 0.01474 0.0
C940 C 0.647 0.61127 0.0395 0.0
C941 C 0.67147 0.59216 0.04422 0.0
C942 C 0.56508 0.65974 0.01173 0.0
C943 C 0.56973 0.68635 0.99844 0.0
C944 C 0.58988 0.64129 0.01652 0.0
C945 C 0.62026 0.64913 0.00871 0.0
C946 C 0.62478 0.67569 0.99487 0.0
C947 C 0.59973 0.69398 0.98956 0.0
H948 H 0.51328 0.7951 0.89394 0.0
H949 H 0.53565 0.85464 0.96332 0.0
H950 H 0.50144 0.83373 0.86095 0.0
H951 H 0.52613 0.89383 0.92931 0.0
H952 H 0.47832 0.95945 0.87107 0.0
H953 H 0.48823 0.9203 0.90507 0.0
H954 H 0.5195 0.8689 0.83166 0.0
H955 H 0.50727 0.90683 0.79796 0.0
C956 C 0.51622 0.81648 0.9021 0.0
C957 C 0.52512 0.82154 0.93156 0.0
C958 C 0.50967 0.8389 0.8829 0.0
C959 C 0.51259 0.86729 0.89219 0.0
C960 C 0.52283 0.8724 0.92135 0.0
C961 C 0.52882 0.84984 0.94081 0.0
C962 C 0.48674 0.93957 0.86219 0.0
C963 C 0.49212 0.93652 0.83167 0.0
C964 C 0.49293 0.91716 0.88179 0.0
C965 C 0.50505 0.89119 0.87144 0.0
C966 C 0.50978 0.88815 0.84079 0.0
C967 C 0.50303 0.91024 0.82127 0.0
H968 H 0.14607 0.471 0.95786 0.0
H969 H 0.19198 0.53754 0.90886 0.0
H970 H 0.11366 0.46059 0.9155 0.0
H971 H 0.15867 0.52725 0.8661 0.0
H972 H 0.11159 0.48353 0.78656 0.0
H973 H 0.14785 0.48938 0.82808 0.0
H974 H 0.0712 0.48349 0.88928 0.0
H975 H 0.03545 0.47779 0.84794 0.0
C976 C 0.14918 0.48361 0.93807 0.0
C977 C 0.17166 0.50526 0.93689 0.0
C978 C 0.13045 0.47759 0.91373 0.0
C979 C 0.13354 0.49301 0.88737 0.0
C980 C 0.15597 0.51474 0.88601 0.0
C981 C 0.17478 0.52089 0.91059 0.0
C982 C 0.10285 0.48243 0.809 0.0
C983 C 0.07096 0.47933 0.81423 0.0
C984 C 0.12344 0.48633 0.8327 0.0
C985 C 0.11242 0.48703 0.86201 0.0
C986 C 0.08058 0.48269 0.86708 0.0
C987 C 0.06009 0.47913 0.84345 0.0
H988 H 0.52887 0.07201 0.87772 0.0
H989 H 0.51337 0.12914 0.80465 0.0
H990 H 0.5174 0.11042 0.91234 0.0
H991 H 0.49933 0.16632 0.83854 0.0
H992 H 0.50023 0.23719 0.90411 0.0
H993 H 0.5148 0.1993 0.87126 0.0
H994 H 0.47848 0.138 0.93341 0.0
H995 H 0.46635 0.1764 0.96771 0.0
C996 C 0.52317 0.09274 0.869 0.0
C997 C 0.52187 0.09728 0.83828 0.0
C998 C 0.51601 0.11473 0.88888 0.0
C999 C 0.50698 0.14173 0.87854 0.0
C1000 C 0.50656 0.14624 0.84776 0.0
C1001 C 0.51433 0.12458 0.82808 0.0
C1002 C 0.49532 0.21571 0.91096 0.0
C1003 C 0.48239 0.21006 0.93888 0.0
C1004 C 0.50345 0.19371 0.89178 0.0
C1005 C 0.49804 0.16518 0.89939 0.0
C1006 C 0.4838 0.15953 0.92685 0.0
C1007 C 0.47628 0.18165 0.94641 0.0
H1008 H 0.94471 0.46361 0.82376 0.0
H1009 H 0.93202 0.5534 0.80864 0.0
H1010 H 0.90595 0.46449 0.86201 0.0
H1011 H 0.89239 0.55412 0.84768 0.0
H1012 H 0.85763 0.54758 0.94482 0.0
H1013 H 0.89103 0.54855 0.90179 0.0
H1014 H 0.85076 0.4699 0.87135 0.0
H1015 H 0.81705 0.46875 0.91493 0.0
C1016 C 0.9334 0.48363 0.82825 0.0
C1017 C 0.9416 0.50851 0.81279 0.0
C1018 C 0.91086 0.48398 0.85026 0.0
C1019 C 0.89581 0.50925 0.85783 0.0
C1020 C 0.90369 0.53426 0.8424 0.0
C1021 C 0.92631 0.53388 0.82001 0.0
C1022 C 0.85563 0.53044 0.92898 0.0
C1023 C 0.83457 0.50797 0.93349 0.0
C1024 C 0.8747 0.53122 0.90407 0.0
C1025 C 0.8735 0.50945 0.88299 0.0
C1026 C 0.85239 0.48696 0.88732 0.0
C1027 C 0.83311 0.48623 0.9123 0.0
H1028 H 0.51156 0.12245 0.2254 0.0
H1029 H 0.47141 0.07338 0.15436 0.0
H1030 H 0.5252 0.15954 0.19086 0.0
H1031 H 0.48344 0.11153 0.11976 0.0
H1032 H 0.53591 0.17154 0.05899 0.0
H1033 H 0.52477 0.13364 0.09416 0.0
H1034 H 0.50698 0.19621 0.16197 0.0
H1035 H 0.51989 0.23363 0.12754 0.0
C1036 C 0.50518 0.11969 0.20244 0.0
C1037 C 0.4906 0.09466 0.19275 0.0
C1038 C 0.51286 0.14122 0.18251 0.0
C1039 C 0.50571 0.13868 0.15226 0.0
C1040 C 0.49002 0.11408 0.14271 0.0
C1041 C 0.48266 0.09231 0.16267 0.0
C1042 C 0.53026 0.17715 0.08158 0.0
C1043 C 0.52866 0.20576 0.09028 0.0
C1044 C 0.52335 0.15539 0.10169 0.0
C1045 C 0.51448 0.16167 0.13098 0.0
C1046 C 0.51395 0.19029 0.13982 0.0
C1047 C 0.52119 0.21193 0.11988 0.0
H1048 H 0.97921 0.50041 0.15465 0.0
H1049 H 0.9016 0.49255 0.21406 0.0
H1050 H 0.94393 0.50774 0.11331 0.0
H1051 H 0.86575 0.49972 0.17247 0.0
H1052 H 0.81545 0.54823 0.0965 0.0
H1053 H 0.85039 0.53923 0.1385 0.0
H1054 H 0.90567 0.48413 0.08335 0.0
H1055 H 0.87169 0.49351 0.0419 0.0
C1056 C 0.95446 0.49905 0.15855 0.0
C1057 C 0.94303 0.49491 0.18725 0.0
C1058 C 0.9342 0.50359 0.13495 0.0
C1059 C 0.90195 0.50447 0.13955 0.0
C1060 C 0.89045 0.49946 0.16823 0.0
C1061 C 0.91086 0.49471 0.1919 0.0
C1062 C 0.83549 0.53475 0.09334 0.0
C1063 C 0.84092 0.52179 0.06586 0.0
C1064 C 0.85518 0.52919 0.11745 0.0
C1065 C 0.88075 0.51078 0.11434 0.0
C1066 C 0.88644 0.49856 0.08657 0.0
C1067 C 0.86687 0.50398 0.06274 0.0
H1068 H 0.47551 0.84953 0.04956 0.0
H1069 H 0.47132 0.78478 0.11693 0.0
H1070 H 0.49012 0.88441 0.08686 0.0
H1071 H 0.48536 0.81972 0.15428 0.0
H1072 H 0.54551 0.87865 0.20832 0.0
H1073 H 0.53058 0.84592 0.16908 0.0
H1074 H 0.47411 0.91115 0.12933 0.0
H1075 H 0.4897 0.94408 0.16803 0.0
C1076 C 0.47693 0.84284 0.07242 0.0
C1077 C 0.47236 0.81424 0.08015 0.0
C1078 C 0.48547 0.86288 0.09386 0.0
C1079 C 0.48954 0.85485 0.12359 0.0
C1080 C 0.48333 0.82656 0.13151 0.0
C1081 C 0.47489 0.80654 0.1101 0.0
C1082 C 0.53036 0.8862 0.19093 0.0
C1083 C 0.51881 0.91405 0.1915 0.0
C1084 C 0.52143 0.86728 0.1686 0.0
C1085 C 0.50064 0.87566 0.14624 0.0
C1086 C 0.4902 0.9039 0.14606 0.0
C1087 C 0.49919 0.92284 0.16835 0.0
H1088 H 0.19065 0.48012 0.0998 0.0
H1089 H 0.14382 0.54516 0.04958 0.0
H1090 H 0.15614 0.48969 0.14185 0.0
H1091 H 0.11026 0.55492 0.09126 0.0
H1092 H 0.03127 0.53607 0.15759 0.0
H1093 H 0.06795 0.53146 0.11693 0.0
H1094 H 0.14348 0.52708 0.17949 0.0
H1095 H 0.10627 0.53189 0.22033 0.0
C1096 C 0.173 0.49629 0.09765 0.0
C1097 C 0.16999 0.51171 0.07122 0.0
C1098 C 0.15349 0.50204 0.12184 0.0
C1099 C 0.13048 0.52317 0.11995 0.0
C1100 C 0.12749 0.53836 0.09344 0.0
C1101 C 0.14688 0.53272 0.06949 0.0
C1102 C 0.05583 0.53547 0.16256 0.0
C1103 C 0.06609 0.53538 0.19198 0.0
C1104 C 0.07688 0.53245 0.13929 0.0
C1105 C 0.1087 0.52876 0.14492 0.0
C1106 C 0.11911 0.52964 0.17442 0.0
C1107 C 0.09795 0.53295 0.19775 0.0
H1108 H 0.85024 0.96608 0.54034 0.0
H1109 H 0.78157 0.89973 0.53257 0.0
H1110 H 0.89117 0.93133 0.53219 0.0
H1111 H 0.82253 0.86507 0.52428 0.0
H1112 H 0.90303 0.81741 0.47781 0.0
H1113 H 0.86178 0.85252 0.48567 0.0
H1114 H 0.91519 0.89052 0.55609 0.0
H1115 H 0.956 0.8562 0.54821 0.0
C1116 C 0.84383 0.94405 0.53738 0.0
C1117 C 0.81249 0.93583 0.53701 0.0
C1118 C 0.86733 0.92411 0.53256 0.0
C1119 C 0.86012 0.89544 0.52717 0.0
C1120 C 0.82886 0.88706 0.52771 0.0
C1121 C 0.80538 0.90695 0.53273 0.0
C1122 C 0.90599 0.83343 0.49475 0.0
C1123 C 0.93286 0.83387 0.51233 0.0
C1124 C 0.8823 0.85339 0.49944 0.0
C1125 C 0.88518 0.87433 0.52157 0.0
C1126 C 0.91228 0.87495 0.53868 0.0
C1127 C 0.93568 0.85504 0.53419 0.0
H1128 H 0.95948 0.15245 0.46147 0.0
H1129 H 0.90965 0.19217 0.53328 0.0
H1130 H 0.91782 0.11856 0.45505 0.0
H1131 H 0.86754 0.15753 0.52693 0.0
H1132 H 0.78469 0.11232 0.48156 0.0
H1133 H 0.82687 0.14595 0.48927 0.0
H1134 H 0.89329 0.0782 0.47944 0.0
H1135 H 0.85114 0.04446 0.47186 0.0
C1136 C 0.93968 0.15386 0.47613 0.0
C1137 C 0.93792 0.1752 0.4979 0.0
C1138 C 0.9158 0.13421 0.47249 0.0
C1139 C 0.88927 0.1353 0.49038 0.0
C1140 C 0.88757 0.15631 0.51255 0.0
C1141 C 0.91177 0.17598 0.51641 0.0
C1142 C 0.80827 0.10454 0.48087 0.0
C1143 C 0.81439 0.07555 0.47618 0.0
C1144 C 0.83246 0.12385 0.48558 0.0
C1145 C 0.86345 0.11476 0.48538 0.0
C1146 C 0.86967 0.08596 0.47966 0.0
C1147 C 0.84546 0.06661 0.47515 0.0
H1148 H 0.09877 0.81643 0.5445 0.0
H1149 H 0.04456 0.85665 0.47601 0.0
H1150 H 0.14055 0.85092 0.53579 0.0
H1151 H 0.0859 0.89011 0.46706 0.0
H1152 H 0.15325 0.96398 0.47884 0.0
H1153 H 0.11176 0.93019 0.48875 0.0
H1154 H 0.1791 0.86301 0.49732 0.0
H1155 H 0.22065 0.89682 0.48756 0.0
C1156 C 0.09564 0.83265 0.52783 0.0
C1157 C 0.06828 0.83363 0.511 0.0
C1158 C 0.11965 0.85223 0.5226 0.0
C1159 C 0.11662 0.8733 0.50063 0.0
C1160 C 0.08899 0.87449 0.48436 0.0
C1161 C 0.06526 0.85504 0.48945 0.0
C1162 C 0.15923 0.94193 0.48228 0.0
C1163 C 0.19037 0.93322 0.4824 0.0
C1164 C 0.13541 0.92253 0.48815 0.0
C1165 C 0.14208 0.89388 0.49421 0.0
C1166 C 0.17315 0.88499 0.49341 0.0
C1167 C 0.19696 0.90438 0.48748 0.0
H1168 H 0.04385 0.14209 0.49703 0.0
H1169 H 0.1093 0.20862 0.47776 0.0
H1170 H 0.08621 0.1093 0.50664 0.0
H1171 H 0.15211 0.1764 0.48894 0.0
H1172 H 0.22289 0.10494 0.48819 0.0
H1173 H 0.18148 0.13719 0.47559 0.0
H1174 H 0.12332 0.09841 0.54215 0.0
H1175 H 0.16476 0.06499 0.5538 0.0
C1176 C 0.06748 0.1495 0.49441 0.0
C1177 C 0.07339 0.17768 0.48613 0.0
C1178 C 0.09183 0.13087 0.50047 0.0
C1179 C 0.12283 0.14011 0.49914 0.0
C1180 C 0.12868 0.16823 0.4899 0.0
C1181 C 0.10419 0.18675 0.48327 0.0
C1182 C 0.20148 0.10341 0.5005 0.0
C1183 C 0.19736 0.08234 0.52221 0.0
C1184 C 0.17755 0.12209 0.49322 0.0
C1185 C 0.14874 0.12058 0.50765 0.0
C1186 C 0.14486 0.09995 0.52998 0.0
C1187 C 0.16877 0.08092 0.53698 0.0
loop_
_geom_bond_atom_site_label_1
_geom_bond_atom_site_label_2
_geom_bond_distance
_geom_bond_site_symmetry_2
_ccdc_geom_bond_type
Co0 O2 2.143 . S
Co0 O8 2.074 . S
Co0 O11 2.093 1_455 S
Co0 O24 2.097 1_455 S
Co0 N41 2.151 . S
Co0 N49 2.214 . S
Co1 O2 2.160 1_655 S
Co1 O7 2.058 1_655 S
Co1 O17 2.057 1_655 S
Co1 O32 2.037 . S
Co1 N36 2.145 . S
Co1 N57 2.257 . S
O2 Co0 2.143 . S
O2 Co1 2.160 1_455 S
C3 O4 1.278 . S
C3 O11 1.224 . S
O4 C3 1.278 . S
C5 O6 1.245 . S
C5 O17 1.232 . S
O6 C5 1.245 . S
O7 Co1 2.058 1_455 S
O7 C33 1.269 . S
O8 Co0 2.074 . S
O8 C33 1.257 . S
H9 C34 0.930 . S
H10 C40 0.930 . S
O11 Co0 2.093 1_655 S
O11 C3 1.224 . S
H12 C44 0.929 . S
H13 C46 0.930 . S
H14 C47 0.930 . S
H15 C45 0.929 . S
H16 C48 0.928 . S
O17 Co1 2.057 1_455 S
O17 C5 1.232 . S
H18 C37 0.929 . S
H19 C38 0.929 . S
H20 C50 0.931 . S
H21 C42 0.929 . S
H22 C51 0.930 . S
H23 C43 0.931 . S
O24 Co0 2.097 1_655 S
O24 C52 1.214 . S
H25 C53 0.929 . S
H26 C54 0.929 . S
H27 C55 0.930 . S
H28 C56 0.929 . S
H29 C58 0.930 . S
H30 C35 0.930 . S
H31 C39 0.930 . S
O32 Co1 2.037 . S
O32 C52 1.234 . S
C33 O7 1.269 . S
C33 O8 1.257 . S
C34 H9 0.930 . S
C34 C37 1.388 . S
C34 C39 1.418 . S
C35 H30 0.930 . S
C35 C38 1.404 . S
C35 C39 1.353 . S
N36 Co1 2.145 . S
N36 C37 1.397 . S
N36 C38 1.334 . S
C37 H18 0.929 . S
C37 C34 1.388 . S
C37 N36 1.397 . S
C38 H19 0.929 . S
C38 C35 1.404 . S
C38 N36 1.334 . S
C39 H31 0.930 . S
C39 C34 1.418 . S
C39 C35 1.353 . S
C40 H10 0.930 . S
C40 N41 1.330 . S
C40 C42 1.446 . S
N41 Co0 2.151 . S
N41 C40 1.330 . S
N41 C45 1.418 . S
C42 H21 0.929 . S
C42 C40 1.446 . S
C42 C43 1.332 . S
C43 H23 0.931 . S
C43 C42 1.332 . S
C43 C44 1.267 . S
C44 H12 0.929 . S
C44 C43 1.267 . S
C44 C45 1.251 . S
C45 H15 0.929 . S
C45 N41 1.418 . S
C45 C44 1.251 . S
C46 H13 0.930 . S
C46 C48 1.406 . S
C46 C51 1.261 . S
C47 H14 0.930 . S
C47 N49 1.325 . S
C47 C50 1.357 . S
C48 H16 0.928 . S
C48 C46 1.406 . S
C48 N49 1.261 . S
N49 Co0 2.214 . S
N49 C47 1.325 . S
N49 C48 1.261 . S
C50 H20 0.931 . S
C50 C47 1.357 . S
C50 C51 1.312 . S
C51 H22 0.930 . S
C51 C46 1.261 . S
C51 C50 1.312 . S
C52 O24 1.214 . S
C52 O32 1.234 . S
C53 H25 0.929 . S
C53 C56 1.391 . S
C53 C58 1.391 . S
C54 H26 0.929 . S
C54 C55 1.390 . S
C54 N57 1.391 . S
C55 H27 0.930 . S
C55 C54 1.390 . S
C55 C56 1.392 . S
C56 H28 0.929 . S
C56 C53 1.391 . S
C56 C55 1.392 . S
N57 Co1 2.257 . S
N57 C54 1.391 . S
N57 C58 1.388 . S
C58 H29 0.930 . S
C58 C53 1.391 . S
C58 N57 1.388 . S
Co59 O61 2.143 . S
Co59 O67 2.074 . S
Co59 O70 2.093 . S
Co59 O83 2.097 . S
Co59 N100 2.151 . S
Co59 N108 2.214 . S
Co60 O61 2.160 1_565 S
Co60 O66 2.058 . S
Co60 O76 2.057 . S
Co60 O91 2.037 . S
Co60 N95 2.145 . S
Co60 N116 2.257 . S
O61 Co59 2.143 . S
O61 Co60 2.160 1_545 S
C62 O63 1.278 . S
C62 O70 1.224 . S
O63 C62 1.278 . S
C64 O65 1.245 . S
C64 O76 1.232 . S
O65 C64 1.245 . S
O66 Co60 2.058 . S
O66 C92 1.269 . S
O67 Co59 2.074 . S
O67 C92 1.257 1_545 S
H68 C93 0.930 . S
H69 C99 0.930 . S
O70 Co59 2.093 . S
O70 C62 1.224 . S
H71 C103 0.929 . S
H72 C105 0.930 . S
H73 C106 0.930 . S
H74 C104 0.929 . S
H75 C107 0.928 . S
O76 Co60 2.057 . S
O76 C64 1.232 . S
H77 C96 0.929 . S
H78 C97 0.929 . S
H79 C109 0.931 . S
H80 C101 0.929 . S
H81 C110 0.930 . S
H82 C102 0.931 . S
O83 Co59 2.097 . S
O83 C111 1.214 . S
H84 C112 0.929 . S
H85 C113 0.929 . S
H86 C114 0.930 . S
H87 C115 0.929 . S
H88 C117 0.930 . S
H89 C94 0.930 . S
H90 C98 0.930 . S
O91 Co60 2.037 . S
O91 C111 1.234 1_565 S
C92 O66 1.269 . S
C92 O67 1.257 1_565 S
C93 H68 0.930 . S
C93 C96 1.388 . S
C93 C98 1.418 . S
C94 H89 0.930 . S
C94 C97 1.404 . S
C94 C98 1.353 . S
N95 Co60 2.145 . S
N95 C96 1.397 . S
N95 C97 1.334 . S
C96 H77 0.929 . S
C96 C93 1.388 . S
C96 N95 1.397 . S
C97 H78 0.929 . S
C97 C94 1.404 . S
C97 N95 1.334 . S
C98 H90 0.930 . S
C98 C93 1.418 . S
C98 C94 1.353 . S
C99 H69 0.930 . S
C99 N100 1.330 . S
C99 C101 1.446 . S
N100 Co59 2.151 . S
N100 C99 1.330 . S
N100 C104 1.418 . S
C101 H80 0.929 . S
C101 C99 1.446 . S
C101 C102 1.332 . S
C102 H82 0.931 . S
C102 C101 1.332 . S
C102 C103 1.267 . S
C103 H71 0.929 . S
C103 C102 1.267 . S
C103 C104 1.251 . S
C104 H74 0.929 . S
C104 N100 1.418 . S
C104 C103 1.251 . S
C105 H72 0.930 . S
C105 C107 1.406 . S
C105 C110 1.261 . S
C106 H73 0.930 . S
C106 N108 1.325 . S
C106 C109 1.357 . S
C107 H75 0.928 . S
C107 C105 1.406 . S
C107 N108 1.261 . S
N108 Co59 2.214 . S
N108 C106 1.325 . S
N108 C107 1.261 . S
C109 H79 0.931 . S
C109 C106 1.357 . S
C109 C110 1.312 . S
C110 H81 0.930 . S
C110 C105 1.261 . S
C110 C109 1.312 . S
C111 O83 1.214 . S
C111 O91 1.234 1_545 S
C112 H84 0.929 . S
C112 C115 1.391 . S
C112 C117 1.391 . S
C113 H85 0.929 . S
C113 C114 1.390 . S
C113 N116 1.391 . S
C114 H86 0.930 . S
C114 C113 1.390 . S
C114 C115 1.392 . S
C115 H87 0.929 . S
C115 C112 1.391 . S
C115 C114 1.392 . S
N116 Co60 2.257 . S
N116 C113 1.391 . S
N116 C117 1.388 . S
C117 H88 0.930 . S
C117 C112 1.391 . S
C117 N116 1.388 . S
Co118 O120 2.143 . S
Co118 O126 2.074 . S
Co118 O129 2.093 1_455 S
Co118 O142 2.097 1_455 S
Co118 N159 2.151 . S
Co118 N167 2.214 . S
Co119 O120 2.160 1_655 S
Co119 O125 2.058 1_655 S
Co119 O135 2.057 1_655 S
Co119 O150 2.037 . S
Co119 N154 2.145 . S
Co119 N175 2.257 . S
O120 Co118 2.143 . S
O120 Co119 2.160 1_455 S
C121 O122 1.278 . S
C121 O129 1.224 . S
O122 C121 1.278 . S
C123 O124 1.245 . S
C123 O135 1.232 . S
O124 C123 1.245 . S
O125 Co119 2.058 1_455 S
O125 C151 1.269 . S
O126 Co118 2.074 . S
O126 C151 1.257 . S
H127 C152 0.930 . S
H128 C158 0.930 . S
O129 Co118 2.093 1_655 S
O129 C121 1.224 . S
H130 C162 0.929 . S
H131 C164 0.930 . S
H132 C165 0.930 . S
H133 C163 0.929 . S
H134 C166 0.928 . S
O135 Co119 2.057 1_455 S
O135 C123 1.232 . S
H136 C155 0.929 . S
H137 C156 0.929 . S
H138 C168 0.931 . S
H139 C160 0.929 . S
H140 C169 0.930 . S
H141 C161 0.931 . S
O142 Co118 2.097 1_655 S
O142 C170 1.214 . S
H143 C171 0.929 . S
H144 C172 0.929 . S
H145 C173 0.930 . S
H146 C174 0.929 . S
H147 C176 0.930 . S
H148 C153 0.930 . S
H149 C157 0.930 . S
O150 Co119 2.037 . S
O150 C170 1.234 . S
C151 O125 1.269 . S
C151 O126 1.257 . S
C152 H127 0.930 . S
C152 C155 1.388 . S
C152 C157 1.418 . S
C153 H148 0.930 . S
C153 C156 1.404 . S
C153 C157 1.353 . S
N154 Co119 2.145 . S
N154 C155 1.397 . S
N154 C156 1.334 . S
C155 H136 0.929 . S
C155 C152 1.388 . S
C155 N154 1.397 . S
C156 H137 0.929 . S
C156 C153 1.404 . S
C156 N154 1.334 . S
C157 H149 0.930 . S
C157 C152 1.418 . S
C157 C153 1.353 . S
C158 H128 0.930 . S
C158 N159 1.330 . S
C158 C160 1.446 . S
N159 Co118 2.151 . S
N159 C158 1.330 . S
N159 C163 1.418 . S
C160 H139 0.929 . S
C160 C158 1.446 . S
C160 C161 1.332 . S
C161 H141 0.931 . S
C161 C160 1.332 . S
C161 C162 1.267 . S
C162 H130 0.929 . S
C162 C161 1.267 . S
C162 C163 1.251 . S
C163 H133 0.929 . S
C163 N159 1.418 . S
C163 C162 1.251 . S
C164 H131 0.930 . S
C164 C166 1.406 . S
C164 C169 1.261 . S
C165 H132 0.930 . S
C165 N167 1.325 . S
C165 C168 1.357 . S
C166 H134 0.928 . S
C166 C164 1.406 . S
C166 N167 1.261 . S
N167 Co118 2.214 . S
N167 C165 1.325 . S
N167 C166 1.261 . S
C168 H138 0.931 . S
C168 C165 1.357 . S
C168 C169 1.312 . S
C169 H140 0.930 . S
C169 C164 1.261 . S
C169 C168 1.312 . S
C170 O142 1.214 . S
C170 O150 1.234 . S
C171 H143 0.929 . S
C171 C174 1.391 . S
C171 C176 1.391 . S
C172 H144 0.929 . S
C172 C173 1.390 . S
C172 N175 1.391 . S
C173 H145 0.930 . S
C173 C172 1.390 . S
C173 C174 1.392 . S
C174 H146 0.929 . S
C174 C171 1.391 . S
C174 C173 1.392 . S
N175 Co119 2.257 . S
N175 C172 1.391 . S
N175 C176 1.388 . S
C176 H147 0.930 . S
C176 C171 1.391 . S
C176 N175 1.388 . S
Co177 O179 2.161 . S
Co177 O185 2.074 . S
Co177 O188 2.093 . S
Co177 O201 2.097 . S
Co177 N218 2.151 . S
Co177 N226 2.214 . S
Co178 O179 2.141 1_545 S
Co178 O184 2.058 . S
Co178 O194 2.057 . S
Co178 O209 2.037 . S
Co178 N213 2.145 . S
Co178 N234 2.257 . S
O179 Co177 2.161 . S
O179 Co178 2.141 1_565 S
C180 O181 1.278 . S
C180 O188 1.224 . S
O181 C180 1.278 . S
C182 O183 1.245 . S
C182 O194 1.232 . S
O183 C182 1.245 . S
O184 Co178 2.058 . S
O184 C210 1.269 . S
O185 Co177 2.074 . S
O185 C210 1.257 1_565 S
H186 C211 0.930 . S
H187 C217 0.930 . S
O188 Co177 2.093 . S
O188 C180 1.224 . S
H189 C221 0.929 . S
H190 C223 0.930 . S
H191 C224 0.930 . S
H192 C222 0.929 . S
H193 C225 0.928 . S
O194 Co178 2.057 . S
O194 C182 1.232 . S
H195 C214 0.929 . S
H196 C215 0.929 . S
H197 C227 0.931 . S
H198 C219 0.929 . S
H199 C228 0.930 . S
H200 C220 0.931 . S
O201 Co177 2.097 . S
O201 C229 1.214 . S
H202 C230 0.929 . S
H203 C231 0.929 . S
H204 C232 0.930 . S
H205 C233 0.929 . S
H206 C235 0.930 . S
H207 C212 0.930 . S
H208 C216 0.930 . S
O209 Co178 2.037 . S
O209 C229 1.234 1_545 S
C210 O184 1.269 . S
C210 O185 1.257 1_545 S
C211 H186 0.930 . S
C211 C214 1.388 . S
C211 C216 1.418 . S
C212 H207 0.930 . S
C212 C215 1.404 . S
C212 C216 1.353 . S
N213 Co178 2.145 . S
N213 C214 1.397 . S
N213 C215 1.334 . S
C214 H195 0.929 . S
C214 C211 1.388 . S
C214 N213 1.397 . S
C215 H196 0.929 . S
C215 C212 1.404 . S
C215 N213 1.334 . S
C216 H208 0.930 . S
C216 C211 1.418 . S
C216 C212 1.353 . S
C217 H187 0.930 . S
C217 N218 1.330 . S
C217 C219 1.446 . S
N218 Co177 2.151 . S
N218 C217 1.330 . S
N218 C222 1.418 . S
C219 H198 0.929 . S
C219 C217 1.446 . S
C219 C220 1.332 . S
C220 H200 0.931 . S
C220 C219 1.332 . S
C220 C221 1.267 . S
C221 H189 0.929 . S
C221 C220 1.267 . S
C221 C222 1.251 . S
C222 H192 0.929 . S
C222 N218 1.418 . S
C222 C221 1.251 . S
C223 H190 0.930 . S
C223 C225 1.406 . S
C223 C228 1.261 . S
C224 H191 0.930 . S
C224 N226 1.325 . S
C224 C227 1.357 . S
C225 H193 0.928 . S
C225 C223 1.406 . S
C225 N226 1.261 . S
N226 Co177 2.214 . S
N226 C224 1.325 . S
N226 C225 1.261 . S
C227 H197 0.931 . S
C227 C224 1.357 . S
C227 C228 1.312 . S
C228 H199 0.930 . S
C228 C223 1.261 . S
C228 C227 1.312 . S
C229 O201 1.214 . S
C229 O209 1.234 1_565 S
C230 H202 0.929 . S
C230 C233 1.391 . S
C230 C235 1.391 . S
C231 H203 0.929 . S
C231 C232 1.390 . S
C231 N234 1.391 . S
C232 H204 0.930 . S
C232 C231 1.390 . S
C232 C233 1.392 . S
C233 H205 0.929 . S
C233 C230 1.391 . S
C233 C232 1.392 . S
N234 Co178 2.257 . S
N234 C231 1.391 . S
N234 C235 1.388 . S
C235 H206 0.930 . S
C235 C230 1.391 . S
C235 N234 1.388 . S
Co236 O238 2.169 . S
Co236 O244 2.074 . S
Co236 O247 2.093 . S
Co236 O260 2.097 . S
Co236 N277 2.151 . S
Co236 N285 2.214 . S
Co237 O238 2.134 1_545 S
Co237 O243 2.058 . S
Co237 O253 2.057 . S
Co237 O268 2.037 . S
Co237 N272 2.145 . S
Co237 N293 2.257 . S
O238 Co236 2.169 . S
O238 Co237 2.134 1_565 S
C239 O240 1.278 . S
C239 O247 1.224 . S
O240 C239 1.278 . S
C241 O242 1.245 . S
C241 O253 1.232 . S
O242 C241 1.245 . S
O243 Co237 2.058 . S
O243 C269 1.269 . S
O244 Co236 2.074 . S
O244 C269 1.257 1_565 S
H245 C270 0.930 . S
H246 C276 0.930 . S
O247 Co236 2.093 . S
O247 C239 1.224 . S
H248 C280 0.929 . S
H249 C282 0.930 . S
H250 C283 0.930 . S
H251 C281 0.929 . S
H252 C284 0.928 . S
O253 Co237 2.057 . S
O253 C241 1.232 . S
H254 C273 0.929 . S
H255 C274 0.929 . S
H256 C286 0.931 . S
H257 C278 0.929 . S
H258 C287 0.930 . S
H259 C279 0.931 . S
O260 Co236 2.097 . S
O260 C288 1.214 . S
H261 C289 0.929 . S
H262 C290 0.929 . S
H263 C291 0.930 . S
H264 C292 0.929 . S
H265 C294 0.930 . S
H266 C271 0.930 . S
H267 C275 0.930 . S
O268 Co237 2.037 . S
O268 C288 1.234 1_545 S
C269 O243 1.269 . S
C269 O244 1.257 1_545 S
C270 H245 0.930 . S
C270 C273 1.388 . S
C270 C275 1.418 . S
C271 H266 0.930 . S
C271 C274 1.404 . S
C271 C275 1.353 . S
N272 Co237 2.145 . S
N272 C273 1.397 . S
N272 C274 1.334 . S
C273 H254 0.929 . S
C273 C270 1.388 . S
C273 N272 1.397 . S
C274 H255 0.929 . S
C274 C271 1.404 . S
C274 N272 1.334 . S
C275 H267 0.930 . S
C275 C270 1.418 . S
C275 C271 1.353 . S
C276 H246 0.930 . S
C276 N277 1.330 . S
C276 C278 1.446 . S
N277 Co236 2.151 . S
N277 C276 1.330 . S
N277 C281 1.418 . S
C278 H257 0.929 . S
C278 C276 1.446 . S
C278 C279 1.332 . S
C279 H259 0.931 . S
C279 C278 1.332 . S
C279 C280 1.267 . S
C280 H248 0.929 . S
C280 C279 1.267 . S
C280 C281 1.251 . S
C281 H251 0.929 . S
C281 N277 1.418 . S
C281 C280 1.251 . S
C282 H249 0.930 . S
C282 C284 1.406 . S
C282 C287 1.261 . S
C283 H250 0.930 . S
C283 N285 1.325 . S
C283 C286 1.357 . S
C284 H252 0.928 . S
C284 C282 1.406 . S
C284 N285 1.261 . S
N285 Co236 2.214 . S
N285 C283 1.325 . S
N285 C284 1.261 . S
C286 H256 0.931 . S
C286 C283 1.357 . S
C286 C287 1.312 . S
C287 H258 0.930 . S
C287 C282 1.261 . S
C287 C286 1.312 . S
C288 O260 1.214 . S
C288 O268 1.234 1_565 S
C289 H261 0.929 . S
C289 C292 1.391 . S
C289 C294 1.391 . S
C290 H262 0.929 . S
C290 C291 1.390 . S
C290 N293 1.391 . S
C291 H263 0.930 . S
C291 C290 1.390 . S
C291 C292 1.392 . S
C292 H264 0.929 . S
C292 C289 1.391 . S
C292 C291 1.392 . S
N293 Co237 2.257 . S
N293 C290 1.391 . S
N293 C294 1.388 . S
C294 H265 0.930 . S
C294 C289 1.391 . S
C294 N293 1.388 . S
Co295 O297 2.143 . S
Co295 O303 2.074 . S
Co295 O306 2.093 1_655 S
Co295 O319 2.097 1_655 S
Co295 N336 2.151 . S
Co295 N344 2.214 . S
Co296 O297 2.160 1_455 S
Co296 O302 2.058 1_455 S
Co296 O312 2.057 1_455 S
Co296 O327 2.037 . S
Co296 N331 2.145 . S
Co296 N352 2.257 . S
O297 Co295 2.143 . S
O297 Co296 2.160 1_655 S
C298 O299 1.278 . S
C298 O306 1.224 . S
O299 C298 1.278 . S
C300 O301 1.245 . S
C300 O312 1.232 . S
O301 C300 1.245 . S
O302 Co296 2.058 1_655 S
O302 C328 1.269 . S
O303 Co295 2.074 . S
O303 C328 1.257 . S
H304 C329 0.930 . S
H305 C335 0.930 . S
O306 Co295 2.093 1_455 S
O306 C298 1.224 . S
H307 C339 0.929 . S
H308 C341 0.930 . S
H309 C342 0.930 . S
H310 C340 0.929 . S
H311 C343 0.928 . S
O312 Co296 2.057 1_655 S
O312 C300 1.232 . S
H313 C332 0.929 . S
H314 C333 0.929 . S
H315 C345 0.931 . S
H316 C337 0.929 . S
H317 C346 0.930 . S
H318 C338 0.931 . S
O319 Co295 2.097 1_455 S
O319 C347 1.214 . S
H320 C348 0.929 . S
H321 C349 0.929 . S
H322 C350 0.930 . S
H323 C351 0.929 . S
H324 C353 0.930 . S
H325 C330 0.930 . S
H326 C334 0.930 . S
O327 Co296 2.037 . S
O327 C347 1.234 . S
C328 O302 1.269 . S
C328 O303 1.257 . S
C329 H304 0.930 . S
C329 C332 1.388 . S
C329 C334 1.418 . S
C330 H325 0.930 . S
C330 C333 1.404 . S
C330 C334 1.353 . S
N331 Co296 2.145 . S
N331 C332 1.397 . S
N331 C333 1.334 . S
C332 H313 0.929 . S
C332 C329 1.388 . S
C332 N331 1.397 . S
C333 H314 0.929 . S
C333 C330 1.404 . S
C333 N331 1.334 . S
C334 H326 0.930 . S
C334 C329 1.418 . S
C334 C330 1.353 . S
C335 H305 0.930 . S
C335 N336 1.330 . S
C335 C337 1.446 . S
N336 Co295 2.151 . S
N336 C335 1.330 . S
N336 C340 1.418 . S
C337 H316 0.929 . S
C337 C335 1.446 . S
C337 C338 1.332 . S
C338 H318 0.931 . S
C338 C337 1.332 . S
C338 C339 1.267 . S
C339 H307 0.929 . S
C339 C338 1.267 . S
C339 C340 1.251 . S
C340 H310 0.929 . S
C340 N336 1.418 . S
C340 C339 1.251 . S
C341 H308 0.930 . S
C341 C343 1.406 . S
C341 C346 1.261 . S
C342 H309 0.930 . S
C342 N344 1.325 . S
C342 C345 1.357 . S
C343 H311 0.928 . S
C343 C341 1.406 . S
C343 N344 1.261 . S
N344 Co295 2.214 . S
N344 C342 1.325 . S
N344 C343 1.261 . S
C345 H315 0.931 . S
C345 C342 1.357 . S
C345 C346 1.312 . S
C346 H317 0.930 . S
C346 C341 1.261 . S
C346 C345 1.312 . S
C347 O319 1.214 . S
C347 O327 1.234 . S
C348 H320 0.929 . S
C348 C351 1.391 . S
C348 C353 1.391 . S
C349 H321 0.929 . S
C349 C350 1.390 . S
C349 N352 1.391 . S
C350 H322 0.930 . S
C350 C349 1.390 . S
C350 C351 1.392 . S
C351 H323 0.929 . S
C351 C348 1.391 . S
C351 C350 1.392 . S
N352 Co296 2.257 . S
N352 C349 1.391 . S
N352 C353 1.388 . S
C353 H324 0.930 . S
C353 C348 1.391 . S
C353 N352 1.388 . S
Co354 O356 2.143 . S
Co354 O362 2.074 . S
Co354 O365 2.093 . S
Co354 O378 2.097 . S
Co354 N395 2.151 . S
Co354 N403 2.214 . S
Co355 O356 2.160 1_565 S
Co355 O361 2.058 . S
Co355 O371 2.057 . S
Co355 O386 2.037 . S
Co355 N390 2.145 . S
Co355 N411 2.257 . S
O356 Co354 2.143 . S
O356 Co355 2.160 1_545 S
C357 O358 1.278 . S
C357 O365 1.224 . S
O358 C357 1.278 . S
C359 O360 1.245 . S
C359 O371 1.232 . S
O360 C359 1.245 . S
O361 Co355 2.058 . S
O361 C387 1.269 . S
O362 Co354 2.074 . S
O362 C387 1.257 1_545 S
H363 C388 0.930 . S
H364 C394 0.930 . S
O365 Co354 2.093 . S
O365 C357 1.224 . S
H366 C398 0.929 . S
H367 C400 0.930 . S
H368 C401 0.930 . S
H369 C399 0.929 . S
H370 C402 0.928 . S
O371 Co355 2.057 . S
O371 C359 1.232 . S
H372 C391 0.929 . S
H373 C392 0.929 . S
H374 C404 0.931 . S
H375 C396 0.929 . S
H376 C405 0.930 . S
H377 C397 0.931 . S
O378 Co354 2.097 . S
O378 C406 1.214 . S
H379 C407 0.929 . S
H380 C408 0.929 . S
H381 C409 0.930 . S
H382 C410 0.929 . S
H383 C412 0.930 . S
H384 C389 0.930 . S
H385 C393 0.930 . S
O386 Co355 2.037 . S
O386 C406 1.234 1_565 S
C387 O361 1.269 . S
C387 O362 1.257 1_565 S
C388 H363 0.930 . S
C388 C391 1.388 . S
C388 C393 1.418 . S
C389 H384 0.930 . S
C389 C392 1.404 . S
C389 C393 1.353 . S
N390 Co355 2.145 . S
N390 C391 1.397 . S
N390 C392 1.334 . S
C391 H372 0.929 . S
C391 C388 1.388 . S
C391 N390 1.397 . S
C392 H373 0.929 . S
C392 C389 1.404 . S
C392 N390 1.334 . S
C393 H385 0.930 . S
C393 C388 1.418 . S
C393 C389 1.353 . S
C394 H364 0.930 . S
C394 N395 1.330 . S
C394 C396 1.446 . S
N395 Co354 2.151 . S
N395 C394 1.330 . S
N395 C399 1.418 . S
C396 H375 0.929 . S
C396 C394 1.446 . S
C396 C397 1.332 . S
C397 H377 0.931 . S
C397 C396 1.332 . S
C397 C398 1.267 . S
C398 H366 0.929 . S
C398 C397 1.267 . S
C398 C399 1.251 . S
C399 H369 0.929 . S
C399 N395 1.418 . S
C399 C398 1.251 . S
C400 H367 0.930 . S
C400 C402 1.406 . S
C400 C405 1.261 . S
C401 H368 0.930 . S
C401 N403 1.325 . S
C401 C404 1.357 . S
C402 H370 0.928 . S
C402 C400 1.406 . S
C402 N403 1.261 . S
N403 Co354 2.214 . S
N403 C401 1.325 . S
N403 C402 1.261 . S
C404 H374 0.931 . S
C404 C401 1.357 . S
C404 C405 1.312 . S
C405 H376 0.930 . S
C405 C400 1.261 . S
C405 C404 1.312 . S
C406 O378 1.214 . S
C406 O386 1.234 1_545 S
C407 H379 0.929 . S
C407 C410 1.391 . S
C407 C412 1.391 . S
C408 H380 0.929 . S
C408 C409 1.390 . S
C408 N411 1.391 . S
C409 H381 0.930 . S
C409 C408 1.390 . S
C409 C410 1.392 . S
C410 H382 0.929 . S
C410 C407 1.391 . S
C410 C409 1.392 . S
N411 Co355 2.257 . S
N411 C408 1.391 . S
N411 C412 1.388 . S
C412 H383 0.930 . S
C412 C407 1.391 . S
C412 N411 1.388 . S
Co413 O415 2.143 . S
Co413 O421 2.074 . S
Co413 O424 2.093 1_655 S
Co413 O437 2.097 1_655 S
Co413 N454 2.151 . S
Co413 N462 2.214 . S
Co414 O415 2.160 1_455 S
Co414 O420 2.058 1_455 S
Co414 O430 2.046 1_455 S
Co414 O445 2.037 . S
Co414 N449 2.145 . S
Co414 N470 2.257 . S
O415 Co413 2.143 . S
O415 Co414 2.160 1_655 S
C416 O417 1.278 . S
C416 O424 1.224 . S
O417 C416 1.278 . S
C418 O419 1.245 . S
C418 O430 1.254 . S
O419 C418 1.245 . S
O420 Co414 2.058 1_655 S
O420 C446 1.269 . S
O421 Co413 2.074 . S
O421 C446 1.257 . S
H422 C447 0.930 . S
H423 C453 0.930 . S
O424 Co413 2.093 1_455 S
O424 C416 1.224 . S
H425 C457 0.929 . S
H426 C459 0.930 . S
H427 C460 0.930 . S
H428 C458 0.929 . S
H429 C461 0.928 . S
O430 Co414 2.046 1_655 S
O430 C418 1.254 . S
H431 C450 0.929 . S
H432 C451 0.929 . S
H433 C463 0.931 . S
H434 C455 0.929 . S
H435 C464 0.930 . S
H436 C456 0.931 . S
O437 Co413 2.097 1_455 S
O437 C465 1.214 . S
H438 C466 0.929 . S
H439 C467 0.929 . S
H440 C468 0.930 . S
H441 C469 0.929 . S
H442 C471 0.930 . S
H443 C448 0.930 . S
H444 C452 0.930 . S
O445 Co414 2.037 . S
O445 C465 1.234 . S
C446 O420 1.269 . S
C446 O421 1.257 . S
C447 H422 0.930 . S
C447 C450 1.388 . S
C447 C452 1.418 . S
C448 H443 0.930 . S
C448 C451 1.404 . S
C448 C452 1.353 . S
N449 Co414 2.145 . S
N449 C450 1.397 . S
N449 C451 1.334 . S
C450 H431 0.929 . S
C450 C447 1.388 . S
C450 N449 1.397 . S
C451 H432 0.929 . S
C451 C448 1.404 . S
C451 N449 1.334 . S
C452 H444 0.930 . S
C452 C447 1.418 . S
C452 C448 1.353 . S
C453 H423 0.930 . S
C453 N454 1.330 . S
C453 C455 1.446 . S
N454 Co413 2.151 . S
N454 C453 1.330 . S
N454 C458 1.418 . S
C455 H434 0.929 . S
C455 C453 1.446 . S
C455 C456 1.332 . S
C456 H436 0.931 . S
C456 C455 1.332 . S
C456 C457 1.267 . S
C457 H425 0.929 . S
C457 C456 1.267 . S
C457 C458 1.251 . S
C458 H428 0.929 . S
C458 N454 1.418 . S
C458 C457 1.251 . S
C459 H426 0.930 . S
C459 C461 1.406 . S
C459 C464 1.261 . S
C460 H427 0.930 . S
C460 N462 1.325 . S
C460 C463 1.357 . S
C461 H429 0.928 . S
C461 C459 1.406 . S
C461 N462 1.261 . S
N462 Co413 2.214 . S
N462 C460 1.325 . S
N462 C461 1.261 . S
C463 H433 0.931 . S
C463 C460 1.357 . S
C463 C464 1.312 . S
C464 H435 0.930 . S
C464 C459 1.261 . S
C464 C463 1.312 . S
C465 O437 1.214 . S
C465 O445 1.234 . S
C466 H438 0.929 . S
C466 C469 1.391 . S
C466 C471 1.391 . S
C467 H439 0.929 . S
C467 C468 1.390 . S
C467 N470 1.391 . S
C468 H440 0.930 . S
C468 C467 1.390 . S
C468 C469 1.392 . S
C469 H441 0.929 . S
C469 C466 1.391 . S
C469 C468 1.392 . S
N470 Co414 2.257 . S
N470 C467 1.391 . S
N470 C471 1.388 . S
C471 H442 0.930 . S
C471 C466 1.391 . S
C471 N470 1.388 . S
Co472 O474 2.143 . S
Co472 O480 2.074 . S
Co472 O483 2.093 1_554 S
Co472 O496 2.097 1_554 S
Co472 N513 2.151 . S
Co472 N521 2.214 . S
Co473 O474 2.160 1_556 S
Co473 O479 2.058 1_556 S
Co473 O489 2.057 1_556 S
Co473 O504 2.037 . S
Co473 N508 2.145 . S
Co473 N529 2.257 . S
O474 Co472 2.143 . S
O474 Co473 2.160 1_554 S
C475 O476 1.278 . S
C475 O483 1.224 . S
O476 C475 1.278 . S
C477 O478 1.245 . S
C477 O489 1.232 . S
O478 C477 1.245 . S
O479 Co473 2.058 1_554 S
O479 C505 1.269 . S
O480 Co472 2.074 . S
O480 C505 1.257 . S
H481 C506 0.930 . S
H482 C512 0.930 . S
O483 Co472 2.093 1_556 S
O483 C475 1.224 . S
H484 C516 0.929 . S
H485 C518 0.930 . S
H486 C519 0.930 . S
H487 C517 0.929 . S
H488 C520 0.928 . S
O489 Co473 2.057 1_554 S
O489 C477 1.232 . S
H490 C509 0.929 . S
H491 C510 0.929 . S
H492 C522 0.931 . S
H493 C514 0.929 . S
H494 C523 0.930 . S
H495 C515 0.931 . S
O496 Co472 2.097 1_556 S
O496 C524 1.214 . S
H497 C525 0.929 . S
H498 C526 0.929 . S
H499 C527 0.930 . S
H500 C528 0.929 . S
H501 C530 0.930 . S
H502 C507 0.930 . S
H503 C511 0.930 . S
O504 Co473 2.037 . S
O504 C524 1.234 . S
C505 O479 1.269 . S
C505 O480 1.257 . S
C506 H481 0.930 . S
C506 C509 1.388 . S
C506 C511 1.418 . S
C507 H502 0.930 . S
C507 C510 1.404 . S
C507 C511 1.353 . S
N508 Co473 2.145 . S
N508 C509 1.397 . S
N508 C510 1.334 . S
C509 H490 0.929 . S
C509 C506 1.388 . S
C509 N508 1.397 . S
C510 H491 0.929 . S
C510 C507 1.404 . S
C510 N508 1.334 . S
C511 H503 0.930 . S
C511 C506 1.418 . S
C511 C507 1.353 . S
C512 H482 0.930 . S
C512 N513 1.330 . S
C512 C514 1.446 . S
N513 Co472 2.151 . S
N513 C512 1.330 . S
N513 C517 1.418 . S
C514 H493 0.929 . S
C514 C512 1.446 . S
C514 C515 1.332 . S
C515 H495 0.931 . S
C515 C514 1.332 . S
C515 C516 1.267 . S
C516 H484 0.929 . S
C516 C515 1.267 . S
C516 C517 1.251 . S
C517 H487 0.929 . S
C517 N513 1.418 . S
C517 C516 1.251 . S
C518 H485 0.930 . S
C518 C520 1.406 . S
C518 C523 1.261 . S
C519 H486 0.930 . S
C519 N521 1.325 . S
C519 C522 1.357 . S
C520 H488 0.928 . S
C520 C518 1.406 . S
C520 N521 1.261 . S
N521 Co472 2.214 . S
N521 C519 1.325 . S
N521 C520 1.261 . S
C522 H492 0.931 . S
C522 C519 1.357 . S
C522 C523 1.312 . S
C523 H494 0.930 . S
C523 C518 1.261 . S
C523 C522 1.312 . S
C524 O496 1.214 . S
C524 O504 1.234 . S
C525 H497 0.929 . S
C525 C528 1.391 . S
C525 C530 1.391 . S
C526 H498 0.929 . S
C526 C527 1.390 . S
C526 N529 1.391 . S
C527 H499 0.930 . S
C527 C526 1.390 . S
C527 C528 1.392 . S
C528 H500 0.929 . S
C528 C525 1.391 . S
C528 C527 1.392 . S
N529 Co473 2.257 . S
N529 C526 1.391 . S
N529 C530 1.388 . S
C530 H501 0.930 . S
C530 C525 1.391 . S
C530 N529 1.388 . S
Co531 O533 2.173 . S
Co531 O539 2.074 . S
Co531 O542 2.093 . S
Co531 O555 2.097 . S
Co531 N572 2.151 . S
Co531 N580 2.214 . S
Co532 O533 2.130 1_554 S
Co532 O538 2.058 . S
Co532 O548 2.057 . S
Co532 O563 2.037 . S
Co532 N567 2.145 . S
Co532 N588 2.257 . S
O533 Co531 2.173 . S
O533 Co532 2.130 1_556 S
C534 O535 1.278 . S
C534 O542 1.224 . S
O535 C534 1.278 . S
C536 O537 1.245 . S
C536 O548 1.232 . S
O537 C536 1.245 . S
O538 Co532 2.058 . S
O538 C564 1.269 . S
O539 Co531 2.074 . S
O539 C564 1.257 1_556 S
H540 C565 0.930 . S
H541 C571 0.930 . S
O542 Co531 2.093 . S
O542 C534 1.224 . S
H543 C575 0.929 . S
H544 C577 0.930 . S
H545 C578 0.930 . S
H546 C576 0.929 . S
H547 C579 0.928 . S
O548 Co532 2.057 . S
O548 C536 1.232 . S
H549 C568 0.929 . S
H550 C569 0.929 . S
H551 C581 0.931 . S
H552 C573 0.929 . S
H553 C582 0.930 . S
H554 C574 0.931 . S
O555 Co531 2.097 . S
O555 C583 1.214 . S
H556 C584 0.929 . S
H557 C585 0.929 . S
H558 C586 0.930 . S
H559 C587 0.929 . S
H560 C589 0.930 . S
H561 C566 0.930 . S
H562 C570 0.930 . S
O563 Co532 2.037 . S
O563 C583 1.234 1_554 S
C564 O538 1.269 . S
C564 O539 1.257 1_554 S
C565 H540 0.930 . S
C565 C568 1.388 . S
C565 C570 1.418 . S
C566 H561 0.930 . S
C566 C569 1.404 . S
C566 C570 1.353 . S
N567 Co532 2.145 . S
N567 C568 1.397 . S
N567 C569 1.334 . S
C568 H549 0.929 . S
C568 C565 1.388 . S
C568 N567 1.397 . S
C569 H550 0.929 . S
C569 C566 1.404 . S
C569 N567 1.334 . S
C570 H562 0.930 . S
C570 C565 1.418 . S
C570 C566 1.353 . S
C571 H541 0.930 . S
C571 N572 1.330 . S
C571 C573 1.446 . S
N572 Co531 2.151 . S
N572 C571 1.330 . S
N572 C576 1.418 . S
C573 H552 0.929 . S
C573 C571 1.446 . S
C573 C574 1.332 . S
C574 H554 0.931 . S
C574 C573 1.332 . S
C574 C575 1.267 . S
C575 H543 0.929 . S
C575 C574 1.267 . S
C575 C576 1.251 . S
C576 H546 0.929 . S
C576 N572 1.418 . S
C576 C575 1.251 . S
C577 H544 0.930 . S
C577 C579 1.406 . S
C577 C582 1.261 . S
C578 H545 0.930 . S
C578 N580 1.325 . S
C578 C581 1.357 . S
C579 H547 0.928 . S
C579 C577 1.406 . S
C579 N580 1.261 . S
N580 Co531 2.214 . S
N580 C578 1.325 . S
N580 C579 1.261 . S
C581 H551 0.931 . S
C581 C578 1.357 . S
C581 C582 1.312 . S
C582 H553 0.930 . S
C582 C577 1.261 . S
C582 C581 1.312 . S
C583 O555 1.214 . S
C583 O563 1.234 1_556 S
C584 H556 0.929 . S
C584 C587 1.391 . S
C584 C589 1.391 . S
C585 H557 0.929 . S
C585 C586 1.390 . S
C585 N588 1.391 . S
C586 H558 0.930 . S
C586 C585 1.390 . S
C586 C587 1.392 . S
C587 H559 0.929 . S
C587 C584 1.391 . S
C587 C586 1.392 . S
N588 Co532 2.257 . S
N588 C585 1.391 . S
N588 C589 1.388 . S
C589 H560 0.930 . S
C589 C584 1.391 . S
C589 N588 1.388 . S
Co590 O592 2.143 . S
Co590 O598 2.074 . S
Co590 O601 2.093 1_554 S
Co590 O614 2.097 1_554 S
Co590 N631 2.151 . S
Co590 N639 2.214 . S
Co591 O592 2.160 1_556 S
Co591 O597 2.058 1_556 S
Co591 O607 2.057 1_556 S
Co591 O622 2.037 . S
Co591 N626 2.145 . S
Co591 N647 2.257 . S
O592 Co590 2.143 . S
O592 Co591 2.160 1_554 S
C593 O594 1.278 . S
C593 O601 1.224 . S
O594 C593 1.278 . S
C595 O596 1.245 . S
C595 O607 1.232 . S
O596 C595 1.245 . S
O597 Co591 2.058 1_554 S
O597 C623 1.269 . S
O598 Co590 2.074 . S
O598 C623 1.257 . S
H599 C624 0.930 . S
H600 C630 0.930 . S
O601 Co590 2.093 1_556 S
O601 C593 1.224 . S
H602 C634 0.929 . S
H603 C636 0.930 . S
H604 C637 0.930 . S
H605 C635 0.929 . S
H606 C638 0.928 . S
O607 Co591 2.057 1_554 S
O607 C595 1.232 . S
H608 C627 0.929 . S
H609 C628 0.929 . S
H610 C640 0.931 . S
H611 C632 0.929 . S
H612 C641 0.930 . S
H613 C633 0.931 . S
O614 Co590 2.097 1_556 S
O614 C642 1.214 . S
H615 C643 0.929 . S
H616 C644 0.929 . S
H617 C645 0.930 . S
H618 C646 0.929 . S
H619 C648 0.930 . S
H620 C625 0.930 . S
H621 C629 0.930 . S
O622 Co591 2.037 . S
O622 C642 1.234 . S
C623 O597 1.269 . S
C623 O598 1.257 . S
C624 H599 0.930 . S
C624 C627 1.388 . S
C624 C629 1.418 . S
C625 H620 0.930 . S
C625 C628 1.404 . S
C625 C629 1.353 . S
N626 Co591 2.145 . S
N626 C627 1.397 . S
N626 C628 1.334 . S
C627 H608 0.929 . S
C627 C624 1.388 . S
C627 N626 1.397 . S
C628 H609 0.929 . S
C628 C625 1.404 . S
C628 N626 1.334 . S
C629 H621 0.930 . S
C629 C624 1.418 . S
C629 C625 1.353 . S
C630 H600 0.930 . S
C630 N631 1.330 . S
C630 C632 1.446 . S
N631 Co590 2.151 . S
N631 C630 1.330 . S
N631 C635 1.418 . S
C632 H611 0.929 . S
C632 C630 1.446 . S
C632 C633 1.332 . S
C633 H613 0.931 . S
C633 C632 1.332 . S
C633 C634 1.267 . S
C634 H602 0.929 . S
C634 C633 1.267 . S
C634 C635 1.251 . S
C635 H605 0.929 . S
C635 N631 1.418 . S
C635 C634 1.251 . S
C636 H603 0.930 . S
C636 C638 1.406 . S
C636 C641 1.261 . S
C637 H604 0.930 . S
C637 N639 1.325 . S
C637 C640 1.357 . S
C638 H606 0.928 . S
C638 C636 1.406 . S
C638 N639 1.261 . S
N639 Co590 2.214 . S
N639 C637 1.325 . S
N639 C638 1.261 . S
C640 H610 0.931 . S
C640 C637 1.357 . S
C640 C641 1.312 . S
C641 H612 0.930 . S
C641 C636 1.261 . S
C641 C640 1.312 . S
C642 O614 1.214 . S
C642 O622 1.234 . S
C643 H615 0.929 . S
C643 C646 1.391 . S
C643 C648 1.391 . S
C644 H616 0.929 . S
C644 C645 1.390 . S
C644 N647 1.391 . S
C645 H617 0.930 . S
C645 C644 1.390 . S
C645 C646 1.392 . S
C646 H618 0.929 . S
C646 C643 1.391 . S
C646 C645 1.392 . S
N647 Co591 2.257 . S
N647 C644 1.391 . S
N647 C648 1.388 . S
C648 H619 0.930 . S
C648 C643 1.391 . S
C648 N647 1.388 . S
Co649 O651 2.143 . S
Co649 O657 2.074 . S
Co649 O660 2.093 . S
Co649 O673 2.097 . S
Co649 N690 2.151 . S
Co649 N698 2.214 . S
Co650 O651 2.160 1_556 S
Co650 O656 2.058 . S
Co650 O666 2.057 . S
Co650 O681 2.037 . S
Co650 N685 2.145 . S
Co650 N706 2.257 . S
O651 Co649 2.143 . S
O651 Co650 2.160 1_554 S
C652 O653 1.278 . S
C652 O660 1.224 . S
O653 C652 1.278 . S
C654 O655 1.245 . S
C654 O666 1.232 . S
O655 C654 1.245 . S
O656 Co650 2.058 . S
O656 C682 1.269 . S
O657 Co649 2.074 . S
O657 C682 1.257 1_554 S
H658 C683 0.930 . S
H659 C689 0.930 . S
O660 Co649 2.093 . S
O660 C652 1.224 . S
H661 C693 0.929 . S
H662 C695 0.930 . S
H663 C696 0.930 . S
H664 C694 0.929 . S
H665 C697 0.928 . S
O666 Co650 2.057 . S
O666 C654 1.232 . S
H667 C686 0.929 . S
H668 C687 0.929 . S
H669 C699 0.931 . S
H670 C691 0.929 . S
H671 C700 0.930 . S
H672 C692 0.931 . S
O673 Co649 2.097 . S
O673 C701 1.214 . S
H674 C702 0.929 . S
H675 C703 0.929 . S
H676 C704 0.930 . S
H677 C705 0.929 . S
H678 C707 0.930 . S
H679 C684 0.930 . S
H680 C688 0.930 . S
O681 Co650 2.037 . S
O681 C701 1.234 1_556 S
C682 O656 1.269 . S
C682 O657 1.257 1_556 S
C683 H658 0.930 . S
C683 C686 1.388 . S
C683 C688 1.418 . S
C684 H679 0.930 . S
C684 C687 1.404 . S
C684 C688 1.353 . S
N685 Co650 2.145 . S
N685 C686 1.397 . S
N685 C687 1.334 . S
C686 H667 0.929 . S
C686 C683 1.388 . S
C686 N685 1.397 . S
C687 H668 0.929 . S
C687 C684 1.404 . S
C687 N685 1.334 . S
C688 H680 0.930 . S
C688 C683 1.418 . S
C688 C684 1.353 . S
C689 H659 0.930 . S
C689 N690 1.330 . S
C689 C691 1.446 . S
N690 Co649 2.151 . S
N690 C689 1.330 . S
N690 C694 1.418 . S
C691 H670 0.929 . S
C691 C689 1.446 . S
C691 C692 1.332 . S
C692 H672 0.931 . S
C692 C691 1.332 . S
C692 C693 1.267 . S
C693 H661 0.929 . S
C693 C692 1.267 . S
C693 C694 1.251 . S
C694 H664 0.929 . S
C694 N690 1.418 . S
C694 C693 1.251 . S
C695 H662 0.930 . S
C695 C697 1.406 . S
C695 C700 1.261 . S
C696 H663 0.930 . S
C696 N698 1.325 . S
C696 C699 1.357 . S
C697 H665 0.928 . S
C697 C695 1.406 . S
C697 N698 1.261 . S
N698 Co649 2.214 . S
N698 C696 1.325 . S
N698 C697 1.261 . S
C699 H669 0.931 . S
C699 C696 1.357 . S
C699 C700 1.312 . S
C700 H671 0.930 . S
C700 C695 1.261 . S
C700 C699 1.312 . S
C701 O673 1.214 . S
C701 O681 1.234 1_554 S
C702 H674 0.929 . S
C702 C705 1.391 . S
C702 C707 1.391 . S
C703 H675 0.929 . S
C703 C704 1.390 . S
C703 N706 1.391 . S
C704 H676 0.930 . S
C704 C703 1.390 . S
C704 C705 1.392 . S
C705 H677 0.929 . S
C705 C702 1.391 . S
C705 C704 1.392 . S
N706 Co650 2.257 . S
N706 C703 1.391 . S
N706 C707 1.388 . S
C707 H678 0.930 . S
C707 C702 1.391 . S
C707 N706 1.388 . S
H708 C716 0.950 . S
H709 C721 0.950 . S
H710 C718 0.950 . S
H711 C720 0.950 . S
H712 C722 0.950 . S
H713 C724 0.950 . S
H714 C726 0.950 . S
H715 C727 0.950 . S
C716 H708 0.950 . S
C716 C717 1.386 1_655 S
C716 C718 1.391 . S
C717 C716 1.386 1_455 S
C717 C721 1.393 . S
C718 H710 0.950 . S
C718 C716 1.391 . S
C718 C719 1.400 1_655 S
C719 C718 1.400 1_455 S
C719 C720 1.398 . S
C719 C725 1.491 1_455 S
C720 H711 0.950 . S
C720 C719 1.398 . S
C720 C721 1.391 . S
C721 H709 0.950 . S
C721 C717 1.393 . S
C721 C720 1.391 . S
C722 H712 0.950 . S
C722 C723 1.386 1_455 S
C722 C724 1.391 . S
C723 C722 1.386 1_655 S
C723 C727 1.393 . S
C724 H713 0.950 . S
C724 C722 1.391 . S
C724 C725 1.400 1_455 S
C725 C719 1.491 1_655 S
C725 C724 1.400 1_655 S
C725 C726 1.398 . S
C726 H714 0.950 . S
C726 C725 1.398 . S
C726 C727 1.391 . S
C727 H715 0.950 . S
C727 C723 1.393 . S
C727 C726 1.391 . S
H728 C736 0.950 . S
H729 C741 0.937 1_565 S
H730 C738 0.950 . S
H731 C740 0.950 . S
H732 C742 0.950 . S
H733 C744 0.950 . S
H734 C746 0.950 . S
H735 C747 0.955 . S
C736 H728 0.950 . S
C736 C737 1.386 . S
C736 C738 1.391 . S
C737 C736 1.386 . S
C737 C741 1.414 . S
C738 H730 0.950 . S
C738 C736 1.391 . S
C738 C739 1.400 . S
C739 C738 1.400 . S
C739 C740 1.398 1_545 S
C739 C745 1.491 1_545 S
C740 H731 0.950 . S
C740 C739 1.398 1_565 S
C740 C741 1.384 1_565 S
C741 H729 0.937 1_545 S
C741 C737 1.414 . S
C741 C740 1.384 1_545 S
C742 H732 0.950 . S
C742 C743 1.386 . S
C742 C744 1.391 . S
C743 C742 1.386 . S
C743 C747 1.385 1_565 S
C744 H733 0.950 . S
C744 C742 1.391 . S
C744 C745 1.400 . S
C745 C739 1.491 1_565 S
C745 C744 1.400 . S
C745 C746 1.398 1_565 S
C746 H734 0.950 . S
C746 C745 1.398 1_545 S
C746 C747 1.394 . S
C747 H735 0.955 . S
C747 C743 1.385 1_545 S
C747 C746 1.394 . S
H748 C756 0.950 . S
H749 C761 0.950 . S
H750 C758 0.950 . S
H751 C760 0.950 . S
H752 C762 0.950 . S
H753 C764 0.950 . S
H754 C766 0.950 . S
H755 C767 0.950 . S
C756 H748 0.950 . S
C756 C757 1.386 . S
C756 C758 1.391 . S
C757 C756 1.386 . S
C757 C761 1.393 1_455 S
C758 H750 0.950 . S
C758 C756 1.391 . S
C758 C759 1.400 . S
C759 C758 1.400 . S
C759 C760 1.398 1_455 S
C759 C765 1.491 1_455 S
C760 H751 0.950 . S
C760 C759 1.398 1_655 S
C760 C761 1.391 . S
C761 H749 0.950 . S
C761 C757 1.393 1_655 S
C761 C760 1.391 . S
C762 H752 0.950 . S
C762 C763 1.386 . S
C762 C764 1.391 . S
C763 C762 1.386 . S
C763 C767 1.393 1_655 S
C764 H753 0.950 . S
C764 C762 1.391 . S
C764 C765 1.400 . S
C765 C759 1.491 1_655 S
C765 C764 1.400 . S
C765 C766 1.398 1_655 S
C766 H754 0.950 . S
C766 C765 1.398 1_455 S
C766 C767 1.391 . S
C767 H755 0.950 . S
C767 C763 1.393 1_455 S
C767 C766 1.391 . S
H768 C776 0.950 . S
H769 C781 0.949 . S
H770 C778 0.950 . S
H771 C780 0.950 . S
H772 C782 0.950 . S
H773 C784 0.950 . S
H774 C786 0.951 . S
H775 C787 0.950 . S
C776 H768 0.950 . S
C776 C777 1.386 . S
C776 C778 1.391 . S
C777 C776 1.386 . S
C777 C781 1.393 . S
C778 H770 0.950 . S
C778 C776 1.391 . S
C778 C779 1.400 . S
C779 C778 1.400 . S
C779 C780 1.398 1_565 S
C779 C785 1.491 1_565 S
C780 H771 0.950 . S
C780 C779 1.398 1_545 S
C780 C781 1.391 1_545 S
C781 H769 0.949 . S
C781 C777 1.393 . S
C781 C780 1.391 1_565 S
C782 H772 0.950 . S
C782 C783 1.386 . S
C782 C784 1.391 . S
C783 C782 1.386 . S
C783 C787 1.393 . S
C784 H773 0.950 . S
C784 C782 1.391 . S
C784 C785 1.400 . S
C785 C779 1.491 1_545 S
C785 C784 1.400 . S
C785 C786 1.398 1_545 S
C786 H774 0.951 . S
C786 C785 1.398 1_565 S
C786 C787 1.390 1_565 S
C787 H775 0.950 . S
C787 C783 1.393 . S
C787 C786 1.390 1_545 S
H788 C796 0.950 . S
H789 C801 0.950 . S
H790 C798 0.950 . S
H791 C800 0.950 . S
H792 C802 0.950 . S
H793 C804 0.950 . S
H794 C806 0.950 . S
H795 C807 0.950 . S
C796 H788 0.950 . S
C796 C797 1.386 1_455 S
C796 C798 1.391 . S
C797 C796 1.386 1_655 S
C797 C801 1.393 . S
C798 H790 0.950 . S
C798 C796 1.391 . S
C798 C799 1.400 1_455 S
C799 C798 1.400 1_655 S
C799 C800 1.398 . S
C799 C805 1.491 1_655 S
C800 H791 0.950 . S
C800 C799 1.398 . S
C800 C801 1.391 . S
C801 H789 0.950 . S
C801 C797 1.393 . S
C801 C800 1.391 . S
C802 H792 0.950 . S
C802 C803 1.386 1_655 S
C802 C804 1.391 . S
C803 C802 1.386 1_455 S
C803 C807 1.393 . S
C804 H793 0.950 . S
C804 C802 1.391 . S
C804 C805 1.400 1_655 S
C805 C799 1.491 1_455 S
C805 C804 1.400 1_455 S
C805 C806 1.398 . S
C806 H794 0.950 . S
C806 C805 1.398 . S
C806 C807 1.391 . S
C807 H795 0.950 . S
C807 C803 1.393 . S
C807 C806 1.391 . S
H808 C816 0.950 . S
H809 C821 0.950 . S
H810 C818 0.950 . S
H811 C820 0.950 . S
H812 C822 0.950 . S
H813 C824 0.950 . S
H814 C826 0.950 . S
H815 C827 0.950 . S
C816 H808 0.950 . S
C816 C817 1.386 1_545 S
C816 C818 1.391 . S
C817 C816 1.386 1_565 S
C817 C821 1.393 . S
C818 H810 0.950 . S
C818 C816 1.391 . S
C818 C819 1.400 1_545 S
C819 C818 1.400 1_565 S
C819 C820 1.398 . S
C819 C825 1.491 1_565 S
C820 H811 0.950 . S
C820 C819 1.398 . S
C820 C821 1.391 . S
C821 H809 0.950 . S
C821 C817 1.393 . S
C821 C820 1.391 . S
C822 H812 0.950 . S
C822 C823 1.386 1_565 S
C822 C824 1.391 . S
C823 C822 1.386 1_545 S
C823 C827 1.393 . S
C824 H813 0.950 . S
C824 C822 1.391 . S
C824 C825 1.400 1_565 S
C825 C819 1.491 1_545 S
C825 C824 1.400 1_545 S
C825 C826 1.398 . S
C826 H814 0.950 . S
C826 C825 1.398 . S
C826 C827 1.391 . S
C827 H815 0.950 . S
C827 C823 1.393 . S
C827 C826 1.391 . S
H828 C836 0.950 . S
H829 C841 0.957 . S
H830 C838 0.950 . S
H831 C840 0.950 . S
H832 C842 0.950 . S
H833 C844 0.950 . S
H834 C846 0.950 . S
H835 C847 0.950 . S
C836 H828 0.950 . S
C836 C837 1.386 . S
C836 C838 1.391 . S
C837 C836 1.386 . S
C837 C841 1.393 . S
C838 H830 0.950 . S
C838 C836 1.391 . S
C838 C839 1.400 . S
C839 C838 1.400 . S
C839 C840 1.398 1_655 S
C839 C845 1.491 1_655 S
C840 H831 0.950 . S
C840 C839 1.398 1_455 S
C840 C841 1.391 1_455 S
C841 H829 0.957 . S
C841 C837 1.393 . S
C841 C840 1.391 1_655 S
C842 H832 0.950 . S
C842 C843 1.386 . S
C842 C844 1.391 . S
C843 C842 1.386 . S
C843 C847 1.393 . S
C844 H833 0.950 . S
C844 C842 1.391 . S
C844 C845 1.400 . S
C845 C839 1.491 1_455 S
C845 C844 1.400 . S
C845 C846 1.398 1_455 S
C846 H834 0.950 . S
C846 C845 1.398 1_655 S
C846 C847 1.390 1_655 S
C847 H835 0.950 . S
C847 C843 1.393 . S
C847 C846 1.390 1_455 S
H848 C856 0.950 . S
H849 C861 0.950 . S
H850 C858 0.950 . S
H851 C860 0.950 . S
H852 C862 0.950 . S
H853 C864 0.950 . S
H854 C866 0.950 . S
H855 C867 0.950 . S
C856 H848 0.950 . S
C856 C857 1.386 1_565 S
C856 C858 1.391 . S
C857 C856 1.386 1_545 S
C857 C861 1.393 . S
C858 H850 0.950 . S
C858 C856 1.391 . S
C858 C859 1.400 1_565 S
C859 C858 1.400 1_545 S
C859 C860 1.398 . S
C859 C865 1.491 1_545 S
C860 H851 0.950 . S
C860 C859 1.398 . S
C860 C861 1.391 . S
C861 H849 0.950 . S
C861 C857 1.393 . S
C861 C860 1.391 . S
C862 H852 0.950 . S
C862 C863 1.386 1_545 S
C862 C864 1.391 . S
C863 C862 1.386 1_565 S
C863 C867 1.393 . S
C864 H853 0.950 . S
C864 C862 1.391 . S
C864 C865 1.400 1_545 S
C865 C859 1.491 1_565 S
C865 C864 1.400 1_565 S
C865 C866 1.398 . S
C866 H854 0.950 . S
C866 C865 1.398 . S
C866 C867 1.391 . S
C867 H855 0.950 . S
C867 C863 1.393 . S
C867 C866 1.391 . S
H868 C876 0.950 . S
H869 C881 0.950 . S
H870 C878 0.950 . S
H871 C880 0.950 . S
H872 C882 0.950 . S
H873 C884 0.950 . S
H874 C886 0.950 . S
H875 C887 0.950 . S
C876 H868 0.950 . S
C876 C877 1.386 1_554 S
C876 C878 1.391 . S
C877 C876 1.386 1_556 S
C877 C881 1.393 . S
C878 H870 0.950 . S
C878 C876 1.391 . S
C878 C879 1.400 1_554 S
C879 C878 1.400 1_556 S
C879 C880 1.398 . S
C879 C885 1.491 1_556 S
C880 H871 0.950 . S
C880 C879 1.398 . S
C880 C881 1.391 . S
C881 H869 0.950 . S
C881 C877 1.393 . S
C881 C880 1.391 . S
C882 H872 0.950 . S
C882 C883 1.386 1_556 S
C882 C884 1.391 . S
C883 C882 1.386 1_554 S
C883 C887 1.393 . S
C884 H873 0.950 . S
C884 C882 1.391 . S
C884 C885 1.400 1_556 S
C885 C879 1.491 1_554 S
C885 C884 1.400 1_554 S
C885 C886 1.398 . S
C886 H874 0.950 . S
C886 C885 1.398 . S
C886 C887 1.391 . S
C887 H875 0.950 . S
C887 C883 1.393 . S
C887 C886 1.391 . S
H888 C896 0.950 . S
H889 C901 0.950 . S
H890 C898 0.950 1_554 S
H891 C900 0.950 . S
H892 C902 0.950 . S
H893 C904 0.942 1_556 S
H894 C906 0.950 . S
H895 C907 0.950 . S
C896 H888 0.950 . S
C896 C897 1.386 . S
C896 C898 1.391 . S
C897 C896 1.386 . S
C897 C901 1.393 . S
C898 H890 0.950 1_556 S
C898 C896 1.391 . S
C898 C899 1.400 . S
C899 C898 1.400 . S
C899 C900 1.398 . S
C899 C905 1.491 1_556 S
C900 H891 0.950 . S
C900 C899 1.398 . S
C900 C901 1.391 . S
C901 H889 0.950 . S
C901 C897 1.393 . S
C901 C900 1.391 . S
C902 H892 0.950 . S
C902 C903 1.386 . S
C902 C904 1.397 . S
C903 C902 1.386 . S
C903 C907 1.393 . S
C904 H893 0.942 1_554 S
C904 C902 1.397 . S
C904 C905 1.403 . S
C905 C899 1.491 1_554 S
C905 C904 1.403 . S
C905 C906 1.398 . S
C906 H894 0.950 . S
C906 C905 1.398 . S
C906 C907 1.391 . S
C907 H895 0.950 . S
C907 C903 1.393 . S
C907 C906 1.391 . S
H908 C916 0.950 . S
H909 C921 0.950 . S
H910 C918 0.950 . S
H911 C920 0.950 . S
H912 C922 0.950 . S
H913 C924 0.950 . S
H914 C926 0.950 . S
H915 C927 0.950 . S
C916 H908 0.950 . S
C916 C917 1.386 . S
C916 C918 1.391 . S
C917 C916 1.386 . S
C917 C921 1.393 . S
C918 H910 0.950 . S
C918 C916 1.391 . S
C918 C919 1.400 . S
C919 C918 1.400 . S
C919 C920 1.398 1_554 S
C919 C925 1.491 1_554 S
C920 H911 0.950 . S
C920 C919 1.398 1_556 S
C920 C921 1.391 1_556 S
C921 H909 0.950 . S
C921 C917 1.393 . S
C921 C920 1.391 1_554 S
C922 H912 0.950 . S
C922 C923 1.386 . S
C922 C924 1.391 . S
C923 C922 1.386 . S
C923 C927 1.393 . S
C924 H913 0.950 . S
C924 C922 1.391 . S
C924 C925 1.400 . S
C925 C919 1.491 1_556 S
C925 C924 1.400 . S
C925 C926 1.398 1_556 S
C926 H914 0.950 . S
C926 C925 1.398 1_554 S
C926 C927 1.391 1_554 S
C927 H915 0.950 . S
C927 C923 1.393 . S
C927 C926 1.391 1_556 S
H928 C936 0.950 . S
H929 C941 0.950 . S
H930 C938 0.950 . S
H931 C940 0.950 . S
H932 C942 0.950 . S
H933 C944 0.950 . S
H934 C946 0.950 . S
H935 C947 0.950 . S
C936 H928 0.950 . S
C936 C937 1.386 1_556 S
C936 C938 1.391 . S
C937 C936 1.386 1_554 S
C937 C941 1.393 . S
C938 H930 0.950 . S
C938 C936 1.391 . S
C938 C939 1.400 1_556 S
C939 C938 1.400 1_554 S
C939 C940 1.398 . S
C939 C945 1.484 1_554 S
C940 H931 0.950 . S
C940 C939 1.398 . S
C940 C941 1.391 . S
C941 H929 0.950 . S
C941 C937 1.393 . S
C941 C940 1.391 . S
C942 H932 0.950 . S
C942 C943 1.386 1_554 S
C942 C944 1.391 . S
C943 C942 1.386 1_556 S
C943 C947 1.393 . S
C944 H933 0.950 . S
C944 C942 1.391 . S
C944 C945 1.379 1_554 S
C945 C939 1.484 1_556 S
C945 C944 1.379 1_556 S
C945 C946 1.427 . S
C946 H934 0.950 . S
C946 C945 1.427 . S
C946 C947 1.391 . S
C947 H935 0.950 . S
C947 C943 1.393 . S
C947 C946 1.391 . S
H948 C956 0.950 . S
H949 C961 0.950 . S
H950 C958 0.950 . S
H951 C960 0.950 . S
H952 C962 0.950 . S
H953 C964 0.950 . S
H954 C966 0.950 . S
H955 C967 0.950 . S
C956 H948 0.950 . S
C956 C957 1.386 . S
C956 C958 1.391 . S
C957 C956 1.386 . S
C957 C961 1.393 . S
C958 H950 0.950 . S
C958 C956 1.391 . S
C958 C959 1.400 . S
C959 C958 1.400 . S
C959 C960 1.398 . S
C959 C965 1.491 . S
C960 H951 0.950 . S
C960 C959 1.398 . S
C960 C961 1.391 . S
C961 H949 0.950 . S
C961 C957 1.393 . S
C961 C960 1.391 . S
C962 H952 0.950 . S
C962 C963 1.386 . S
C962 C964 1.391 . S
C963 C962 1.386 . S
C963 C967 1.393 . S
C964 H953 0.950 . S
C964 C962 1.391 . S
C964 C965 1.400 . S
C965 C959 1.491 . S
C965 C964 1.400 . S
C965 C966 1.398 . S
C966 H954 0.950 . S
C966 C965 1.398 . S
C966 C967 1.391 . S
C967 H955 0.950 . S
C967 C963 1.393 . S
C967 C966 1.391 . S
H968 C976 0.950 . S
H969 C981 0.950 . S
H970 C978 0.950 . S
H971 C980 0.950 . S
H972 C982 0.950 . S
H973 C984 0.950 . S
H974 C986 0.950 . S
H975 C987 0.950 . S
C976 H968 0.950 . S
C976 C977 1.386 . S
C976 C978 1.391 . S
C977 C976 1.386 . S
C977 C981 1.393 . S
C978 H970 0.950 . S
C978 C976 1.391 . S
C978 C979 1.400 . S
C979 C978 1.400 . S
C979 C980 1.398 . S
C979 C985 1.491 . S
C980 H971 0.950 . S
C980 C979 1.398 . S
C980 C981 1.391 . S
C981 H969 0.950 . S
C981 C977 1.393 . S
C981 C980 1.391 . S
C982 H972 0.950 . S
C982 C983 1.386 . S
C982 C984 1.391 . S
C983 C982 1.386 . S
C983 C987 1.393 . S
C984 H973 0.950 . S
C984 C982 1.391 . S
C984 C985 1.400 . S
C985 C979 1.491 . S
C985 C984 1.400 . S
C985 C986 1.398 . S
C986 H974 0.950 . S
C986 C985 1.398 . S
C986 C987 1.391 . S
C987 H975 0.950 . S
C987 C983 1.393 . S
C987 C986 1.391 . S
H988 C996 0.950 . S
H989 C1001 0.950 . S
H990 C998 0.950 . S
H991 C1000 0.950 . S
H992 C1002 0.950 . S
H993 C1004 0.950 . S
H994 C1006 0.950 . S
H995 C1007 0.950 . S
C996 H988 0.950 . S
C996 C997 1.386 . S
C996 C998 1.391 . S
C997 C996 1.386 . S
C997 C1001 1.393 . S
C998 H990 0.950 . S
C998 C996 1.391 . S
C998 C999 1.400 . S
C999 C998 1.400 . S
C999 C1000 1.398 . S
C999 C1005 1.491 . S
C1000 H991 0.950 . S
C1000 C999 1.398 . S
C1000 C1001 1.391 . S
C1001 H989 0.950 . S
C1001 C997 1.393 . S
C1001 C1000 1.391 . S
C1002 H992 0.950 . S
C1002 C1003 1.386 . S
C1002 C1004 1.391 . S
C1003 C1002 1.386 . S
C1003 C1007 1.393 . S
C1004 H993 0.950 . S
C1004 C1002 1.391 . S
C1004 C1005 1.400 . S
C1005 C999 1.491 . S
C1005 C1004 1.400 . S
C1005 C1006 1.398 . S
C1006 H994 0.950 . S
C1006 C1005 1.398 . S
C1006 C1007 1.391 . S
C1007 H995 0.950 . S
C1007 C1003 1.393 . S
C1007 C1006 1.391 . S
H1008 C1016 0.950 . S
H1009 C1021 0.950 . S
H1010 C1018 0.950 . S
H1011 C1020 0.950 . S
H1012 C1022 0.950 . S
H1013 C1024 0.950 . S
H1014 C1026 0.950 . S
H1015 C1027 0.950 . S
C1016 H1008 0.950 . S
C1016 C1017 1.386 . S
C1016 C1018 1.391 . S
C1017 C1016 1.386 . S
C1017 C1021 1.393 . S
C1018 H1010 0.950 . S
C1018 C1016 1.391 . S
C1018 C1019 1.400 . S
C1019 C1018 1.400 . S
C1019 C1020 1.398 . S
C1019 C1025 1.491 . S
C1020 H1011 0.950 . S
C1020 C1019 1.398 . S
C1020 C1021 1.391 . S
C1021 H1009 0.950 . S
C1021 C1017 1.393 . S
C1021 C1020 1.391 . S
C1022 H1012 0.950 . S
C1022 C1023 1.386 . S
C1022 C1024 1.391 . S
C1023 C1022 1.386 . S
C1023 C1027 1.393 . S
C1024 H1013 0.950 . S
C1024 C1022 1.391 . S
C1024 C1025 1.400 . S
C1025 C1019 1.491 . S
C1025 C1024 1.400 . S
C1025 C1026 1.398 . S
C1026 H1014 0.950 . S
C1026 C1025 1.398 . S
C1026 C1027 1.391 . S
C1027 H1015 0.950 . S
C1027 C1023 1.393 . S
C1027 C1026 1.391 . S
H1028 C1036 0.950 . S
H1029 C1041 0.950 . S
H1030 C1038 0.950 . S
H1031 C1040 0.950 . S
H1032 C1042 0.950 . S
H1033 C1044 0.950 . S
H1034 C1046 0.950 . S
H1035 C1047 0.950 . S
C1036 H1028 0.950 . S
C1036 C1037 1.386 . S
C1036 C1038 1.391 . S
C1037 C1036 1.386 . S
C1037 C1041 1.393 . S
C1038 H1030 0.950 . S
C1038 C1036 1.391 . S
C1038 C1039 1.400 . S
C1039 C1038 1.400 . S
C1039 C1040 1.398 . S
C1039 C1045 1.491 . S
C1040 H1031 0.950 . S
C1040 C1039 1.398 . S
C1040 C1041 1.391 . S
C1041 H1029 0.950 . S
C1041 C1037 1.393 . S
C1041 C1040 1.391 . S
C1042 H1032 0.950 . S
C1042 C1043 1.386 . S
C1042 C1044 1.391 . S
C1043 C1042 1.386 . S
C1043 C1047 1.393 . S
C1044 H1033 0.950 . S
C1044 C1042 1.391 . S
C1044 C1045 1.400 . S
C1045 C1039 1.491 . S
C1045 C1044 1.400 . S
C1045 C1046 1.398 . S
C1046 H1034 0.950 . S
C1046 C1045 1.398 . S
C1046 C1047 1.391 . S
C1047 H1035 0.950 . S
C1047 C1043 1.393 . S
C1047 C1046 1.391 . S
H1048 C1056 0.950 . S
H1049 C1061 0.950 . S
H1050 C1058 0.950 . S
H1051 C1060 0.950 . S
H1052 C1062 0.950 . S
H1053 C1064 0.950 . S
H1054 C1066 0.950 . S
H1055 C1067 0.950 . S
C1056 H1048 0.950 . S
C1056 C1057 1.386 . S
C1056 C1058 1.391 . S
C1057 C1056 1.386 . S
C1057 C1061 1.393 . S
C1058 H1050 0.950 . S
C1058 C1056 1.391 . S
C1058 C1059 1.400 . S
C1059 C1058 1.400 . S
C1059 C1060 1.398 . S
C1059 C1065 1.491 . S
C1060 H1051 0.950 . S
C1060 C1059 1.398 . S
C1060 C1061 1.391 . S
C1061 H1049 0.950 . S
C1061 C1057 1.393 . S
C1061 C1060 1.391 . S
C1062 H1052 0.950 . S
C1062 C1063 1.386 . S
C1062 C1064 1.391 . S
C1063 C1062 1.386 . S
C1063 C1067 1.393 . S
C1064 H1053 0.950 . S
C1064 C1062 1.391 . S
C1064 C1065 1.400 . S
C1065 C1059 1.491 . S
C1065 C1064 1.400 . S
C1065 C1066 1.398 . S
C1066 H1054 0.950 . S
C1066 C1065 1.398 . S
C1066 C1067 1.391 . S
C1067 H1055 0.950 . S
C1067 C1063 1.393 . S
C1067 C1066 1.391 . S
H1068 C1076 0.950 . S
H1069 C1081 0.950 . S
H1070 C1078 0.950 . S
H1071 C1080 0.950 . S
H1072 C1082 0.950 . S
H1073 C1084 0.950 . S
H1074 C1086 0.950 . S
H1075 C1087 0.950 . S
C1076 H1068 0.950 . S
C1076 C1077 1.386 . S
C1076 C1078 1.391 . S
C1077 C1076 1.386 . S
C1077 C1081 1.393 . S
C1078 H1070 0.950 . S
C1078 C1076 1.391 . S
C1078 C1079 1.400 . S
C1079 C1078 1.400 . S
C1079 C1080 1.398 . S
C1079 C1085 1.491 . S
C1080 H1071 0.950 . S
C1080 C1079 1.398 . S
C1080 C1081 1.391 . S
C1081 H1069 0.950 . S
C1081 C1077 1.393 . S
C1081 C1080 1.391 . S
C1082 H1072 0.950 . S
C1082 C1083 1.386 . S
C1082 C1084 1.391 . S
C1083 C1082 1.386 . S
C1083 C1087 1.393 . S
C1084 H1073 0.950 . S
C1084 C1082 1.391 . S
C1084 C1085 1.400 . S
C1085 C1079 1.491 . S
C1085 C1084 1.400 . S
C1085 C1086 1.398 . S
C1086 H1074 0.950 . S
C1086 C1085 1.398 . S
C1086 C1087 1.391 . S
C1087 H1075 0.950 . S
C1087 C1083 1.393 . S
C1087 C1086 1.391 . S
H1088 C1096 0.950 . S
H1089 C1101 0.950 . S
H1090 C1098 0.950 . S
H1091 C1100 0.950 . S
H1092 C1102 0.950 . S
H1093 C1104 0.950 . S
H1094 C1106 0.950 . S
H1095 C1107 0.950 . S
C1096 H1088 0.950 . S
C1096 C1097 1.386 . S
C1096 C1098 1.391 . S
C1097 C1096 1.386 . S
C1097 C1101 1.393 . S
C1098 H1090 0.950 . S
C1098 C1096 1.391 . S
C1098 C1099 1.400 . S
C1099 C1098 1.400 . S
C1099 C1100 1.398 . S
C1099 C1105 1.491 . S
C1100 H1091 0.950 . S
C1100 C1099 1.398 . S
C1100 C1101 1.391 . S
C1101 H1089 0.950 . S
C1101 C1097 1.393 . S
C1101 C1100 1.391 . S
C1102 H1092 0.950 . S
C1102 C1103 1.386 . S
C1102 C1104 1.391 . S
C1103 C1102 1.386 . S
C1103 C1107 1.393 . S
C1104 H1093 0.950 . S
C1104 C1102 1.391 . S
C1104 C1105 1.400 . S
C1105 C1099 1.491 . S
C1105 C1104 1.400 . S
C1105 C1106 1.398 . S
C1106 H1094 0.950 . S
C1106 C1105 1.398 . S
C1106 C1107 1.391 . S
C1107 H1095 0.950 . S
C1107 C1103 1.393 . S
C1107 C1106 1.391 . S
H1108 C1116 0.950 . S
H1109 C1121 0.950 . S
H1110 C1118 0.950 . S
H1111 C1120 0.950 . S
H1112 C1122 0.950 . S
H1113 C1124 0.950 . S
H1114 C1126 0.950 . S
H1115 C1127 0.950 . S
C1116 H1108 0.950 . S
C1116 C1117 1.386 . S
C1116 C1118 1.391 . S
C1117 C1116 1.386 . S
C1117 C1121 1.393 . S
C1118 H1110 0.950 . S
C1118 C1116 1.391 . S
C1118 C1119 1.400 . S
C1119 C1118 1.400 . S
C1119 C1120 1.398 . S
C1119 C1125 1.491 . S
C1120 H1111 0.950 . S
C1120 C1119 1.398 . S
C1120 C1121 1.391 . S
C1121 H1109 0.950 . S
C1121 C1117 1.393 . S
C1121 C1120 1.391 . S
C1122 H1112 0.950 . S
C1122 C1123 1.386 . S
C1122 C1124 1.391 . S
C1123 C1122 1.386 . S
C1123 C1127 1.393 . S
C1124 H1113 0.950 . S
C1124 C1122 1.391 . S
C1124 C1125 1.400 . S
C1125 C1119 1.491 . S
C1125 C1124 1.400 . S
C1125 C1126 1.398 . S
C1126 H1114 0.950 . S
C1126 C1125 1.398 . S
C1126 C1127 1.391 . S
C1127 H1115 0.950 . S
C1127 C1123 1.393 . S
C1127 C1126 1.391 . S
H1128 C1136 0.950 . S
H1129 C1141 0.950 . S
H1130 C1138 0.950 . S
H1131 C1140 0.950 . S
H1132 C1142 0.950 . S
H1133 C1144 0.950 . S
H1134 C1146 0.950 . S
H1135 C1147 0.950 . S
C1136 H1128 0.950 . S
C1136 C1137 1.386 . S
C1136 C1138 1.391 . S
C1137 C1136 1.386 . S
C1137 C1141 1.393 . S
C1138 H1130 0.950 . S
C1138 C1136 1.391 . S
C1138 C1139 1.400 . S
C1139 C1138 1.400 . S
C1139 C1140 1.398 . S
C1139 C1145 1.491 . S
C1140 H1131 0.950 . S
C1140 C1139 1.398 . S
C1140 C1141 1.391 . S
C1141 H1129 0.950 . S
C1141 C1137 1.393 . S
C1141 C1140 1.391 . S
C1142 H1132 0.950 . S
C1142 C1143 1.386 . S
C1142 C1144 1.391 . S
C1143 C1142 1.386 . S
C1143 C1147 1.393 . S
C1144 H1133 0.950 . S
C1144 C1142 1.391 . S
C1144 C1145 1.400 . S
C1145 C1139 1.491 . S
C1145 C1144 1.400 . S
C1145 C1146 1.398 . S
C1146 H1134 0.950 . S
C1146 C1145 1.398 . S
C1146 C1147 1.391 . S
C1147 H1135 0.950 . S
C1147 C1143 1.393 . S
C1147 C1146 1.391 . S
H1148 C1156 0.950 . S
H1149 C1161 0.950 . S
H1150 C1158 0.950 . S
H1151 C1160 0.950 . S
H1152 C1162 0.950 . S
H1153 C1164 0.950 . S
H1154 C1166 0.950 . S
H1155 C1167 0.950 . S
C1156 H1148 0.950 . S
C1156 C1157 1.386 . S
C1156 C1158 1.391 . S
C1157 C1156 1.386 . S
C1157 C1161 1.393 . S
C1158 H1150 0.950 . S
C1158 C1156 1.391 . S
C1158 C1159 1.400 . S
C1159 C1158 1.400 . S
C1159 C1160 1.398 . S
C1159 C1165 1.491 . S
C1160 H1151 0.950 . S
C1160 C1159 1.398 . S
C1160 C1161 1.391 . S
C1161 H1149 0.950 . S
C1161 C1157 1.393 . S
C1161 C1160 1.391 . S
C1162 H1152 0.950 . S
C1162 C1163 1.386 . S
C1162 C1164 1.391 . S
C1163 C1162 1.386 . S
C1163 C1167 1.393 . S
C1164 H1153 0.950 . S
C1164 C1162 1.391 . S
C1164 C1165 1.400 . S
C1165 C1159 1.491 . S
C1165 C1164 1.400 . S
C1165 C1166 1.398 . S
C1166 H1154 0.950 . S
C1166 C1165 1.398 . S
C1166 C1167 1.391 . S
C1167 H1155 0.950 . S
C1167 C1163 1.393 . S
C1167 C1166 1.391 . S
H1168 C1176 0.950 . S
H1169 C1181 0.950 . S
H1170 C1178 0.950 . S
H1171 C1180 0.950 . S
H1172 C1182 0.950 . S
H1173 C1184 0.950 . S
H1174 C1186 0.950 . S
H1175 C1187 0.950 . S
C1176 H1168 0.950 . S
C1176 C1177 1.386 . S
C1176 C1178 1.391 . S
C1177 C1176 1.386 . S
C1177 C1181 1.393 . S
C1178 H1170 0.950 . S
C1178 C1176 1.391 . S
C1178 C1179 1.400 . S
C1179 C1178 1.400 . S
C1179 C1180 1.398 . S
C1179 C1185 1.491 . S
C1180 H1171 0.950 . S
C1180 C1179 1.398 . S
C1180 C1181 1.391 . S
C1181 H1169 0.950 . S
C1181 C1177 1.393 . S
C1181 C1180 1.391 . S
C1182 H1172 0.950 . S
C1182 C1183 1.386 . S
C1182 C1184 1.391 . S
C1183 C1182 1.386 . S
C1183 C1187 1.393 . S
C1184 H1173 0.950 . S
C1184 C1182 1.391 . S
C1184 C1185 1.400 . S
C1185 C1179 1.491 . S
C1185 C1184 1.400 . S
C1185 C1186 1.398 . S
C1186 H1174 0.950 . S
C1186 C1185 1.398 . S
C1186 C1187 1.391 . S
C1187 H1175 0.950 . S
C1187 C1183 1.393 . S
C1187 C1186 1.391 . S
C717 C5 1.601 . S
C723 C300 1.601 . S
C737 C111 1.602 . S
C743 C288 1.604 . S
C757 C298 1.602 . S
C763 C121 1.605 . S
C777 C229 1.604 . S
C783 C269 1.607 . S
C797 C418 1.590 . S
C803 C123 1.592 . S
C817 C387 1.601 . S
C823 C210 1.600 . S
C837 C3 1.603 . S
C843 C416 1.606 . S
C857 C406 1.593 . S
C863 C92 1.593 . S
C877 C583 1.584 . S
C883 C477 1.591 . S
C897 C475 1.598 . S
C903 C701 1.588 . S
C917 C564 1.572 . S
C923 C593 1.587 . S
C937 C595 1.588 . S
C943 C682 1.579 . S
C957 C654 1.592 . S
C963 C359 1.592 . S
C977 C524 1.601 . S
C983 C465 1.603 . S
C997 C357 1.602 . S
C1003 C534 1.605 . S
C1017 C446 1.600 . S
C1023 C642 1.596 . S
C1037 C241 1.590 . S
C1043 C536 1.593 . S
C1057 C328 1.605 . S
C1063 C623 1.605 . S
C1077 C652 1.596 . S
C1083 C239 1.601 . S
C1097 C505 1.592 . S
C1103 C347 1.588 . S
C1117 C64 1.598 . S
C1123 C170 1.591 . S
C1137 C52 1.588 . S
C1143 C62 1.599 . S
C1157 C151 1.573 . S
C1163 C180 1.586 . S
C1177 C33 1.592 . S
C1183 C182 1.599 . S
