# Generated by pormake.
# Topology kag, (6)-cn, num edge types: 1
# Building blocks:
#     Node 0, Type 0, BuildingBlock: GEDQOX_clean_sbu_0, # of connection points: 6
#     Node 1, Type 0, BuildingBlock: GEDQOX_clean_sbu_0, # of connection points: 6
#     Node 2, Type 0, BuildingBlock: GEDQOX_clean_sbu_0, # of connection points: 6
#     Edge 3, Type (0, 0), BuildingBlock: XUDNAN_clean_linker_2, # of connection points: 2
#     Edge 4, Type (0, 0), BuildingBlock: XUDNAN_clean_linker_2, # of connection points: 2
#     Edge 5, Type (0, 0), BuildingBlock: XUDNAN_clean_linker_2, # of connection points: 2
#     Edge 6, Type (0, 0), BuildingBlock: XUDNAN_clean_linker_2, # of connection points: 2
#     Edge 7, Type (0, 0), BuildingBlock: XUDNAN_clean_linker_2, # of connection points: 2
#     Edge 8, Type (0, 0), BuildingBlock: XUDNAN_clean_linker_2, # of connection points: 2
#     Edge 9, Type (0, 0), BuildingBlock: XUDNAN_clean_linker_2, # of connection points: 2
#     Edge 10, Type (0, 0), BuildingBlock: XUDNAN_clean_linker_2, # of connection points: 2
#     Edge 11, Type (0, 0), BuildingBlock: XUDNAN_clean_linker_2, # of connection points: 2
# Relax obj value: 0.077
# Max RMSD: 0.200
# Mean RMSD: 0.113
data_MOF--net-kag--node1-GEDQOX_clean_sbu_0--edge1-XUDNAN_clean_linker_2
_symmetry_space_group_name_H-M    P1
_symmetry_Int_Tables_number       1
_symmetry_cell_setting            triclinic
loop_
_symmetry_equiv_pos_as_xyz
'x, y, z'
_cell_length_a     49.087102
_cell_length_b     41.659075
_cell_length_c     14.509244
_cell_angle_alpha  94.592508
_cell_angle_beta   88.932926
_cell_angle_gamma 141.24108
loop_
_atom_site_label
_atom_site_type_symbol
_atom_site_fract_x
_atom_site_fract_y
_atom_site_fract_z
_atom_type_partial_charge
Nd0 Nd 1.05582 0.58871 0.02577 0.0
Nd1 Nd 0.08303 0.54008 0.9778 0.0
C2 C 1.04226 0.63655 0.08885 0.0
C3 C 1.01218 0.63608 0.07175 0.0
C4 C 0.97458 0.60624 0.12115 0.0
C5 C 0.94725 0.6075 0.10713 0.0
C6 C 0.95695 0.63874 0.04359 0.0
C7 C 0.99469 0.66876 0.99472 0.0
C8 C 1.02198 0.66756 1.00879 0.0
C9 C 1.04493 0.55743 0.84065 0.0
C10 C 0.98045 0.46559 0.99268 0.0
C11 C 0.1031 0.50268 0.89174 0.0
C12 C 0.13323 0.5037 0.9077 0.0
C13 C 0.13873 0.48478 0.8362 0.0
C14 C 0.16821 0.4868 0.84943 0.0
C15 C 0.19277 0.50788 0.93458 0.0
C16 C 0.18685 0.52654 1.00636 0.0
C17 C 0.15738 0.52454 0.99294 0.0
C18 C 0.07867 0.55036 0.16826 0.0
C19 C 0.16094 0.6639 0.03236 0.0
O20 O 1.0268 0.59746 0.12621 0.0
O21 O 0.06921 0.65314 0.02492 0.0
O22 O 1.02017 0.55553 0.88256 0.0
O23 O 0.07629 0.57847 0.89582 0.0
O24 O 0.99263 0.50341 0.04378 0.0
O25 O 1.00849 0.4733 0.94645 0.0
O26 O 0.12119 0.54667 0.87657 0.0
O27 O 0.07109 0.47679 0.94674 0.0
O28 O 0.08992 0.53246 0.13327 0.0
O29 O 0.07246 0.56216 0.10276 0.0
O30 O 0.15095 0.62498 0.9992 0.0
O31 O 0.131 0.65836 0.05261 0.0
H32 H 0.96631 0.58203 0.17103 0.0
H33 H 0.91832 0.58363 0.1455 0.0
H34 H 1.00368 0.69404 0.94661 0.0
H35 H 1.05105 0.69179 0.97076 0.0
H36 H 0.12051 0.46888 0.76974 0.0
H37 H 0.17239 0.47281 0.79228 0.0
H38 H 0.2048 0.54243 0.07313 0.0
H39 H 0.15355 0.53942 0.04888 0.0
Nd40 Nd 0.57191 0.09997 1.00331 0.0
Nd41 Nd 0.57532 1.03306 0.03449 0.0
C42 C 0.58174 0.16722 0.94652 0.0
C43 C 0.57128 0.19178 0.96678 0.0
C44 C 0.56662 0.20749 0.89352 0.0
C45 C 0.56328 0.23777 0.91144 0.0
C46 C 0.56482 0.25308 1.00316 0.0
C47 C 0.56707 0.23484 0.07633 0.0
C48 C 0.5702 0.20435 0.0583 0.0
C49 C 0.56865 0.08601 0.18748 0.0
C50 C 0.66379 0.1485 1.00935 0.0
C51 C 0.57653 0.97613 0.09728 0.0
C52 C 0.56212 0.92911 0.08527 0.0
C53 C 0.56987 0.91701 0.15959 0.0
C54 C 0.56174 0.87643 0.14793 0.0
C55 C 0.54555 0.84704 0.06156 0.0
C56 C 0.53652 0.8583 0.98774 0.0
C57 C 0.54492 0.89921 0.99941 0.0
C58 C 0.56966 1.04079 0.84835 0.0
C59 C 0.47946 0.98183 0.02698 0.0
O60 O 0.60916 0.17953 1.00585 0.0
O61 O 0.55003 0.11858 0.91357 0.0
O62 O 0.54868 0.09075 0.14746 0.0
O63 O 0.59314 0.09327 0.13242 0.0
O64 O 0.63854 0.14327 0.9582 0.0
O65 O 0.64652 0.11418 0.06638 0.0
O66 O 0.54858 0.97262 0.12219 0.0
O67 O 0.60317 1.00991 0.03826 0.0
O68 O 0.59233 1.03805 0.87949 0.0
O69 O 0.54954 1.03587 0.9127 0.0
O70 O 0.50177 0.97653 0.04996 0.0
O71 O 0.49863 1.02458 0.99698 0.0
H72 H 0.56747 0.19821 0.82244 0.0
H73 H 0.56192 0.25151 0.85366 0.0
H74 H 0.56769 0.24541 0.14766 0.0
H75 H 0.57346 0.1923 0.11591 0.0
H76 H 0.58337 0.93991 0.22625 0.0
H77 H 0.5684 0.86827 0.20644 0.0
H78 H 0.52431 0.83659 0.92018 0.0
H79 H 0.53912 0.90836 0.94102 0.0
Nd80 Nd 0.5155 0.50781 0.98873 0.0
Nd81 Nd 0.60991 0.60519 0.0419 0.0
C82 C 0.43573 0.4431 0.9167 0.0
C83 C 0.40871 0.44736 0.92891 0.0
C84 C 0.3824 0.43372 0.85449 0.0
C85 C 0.36151 0.44443 0.86322 0.0
C86 C 0.36683 0.46923 0.94648 0.0
C87 C 0.39228 0.48145 0.02154 0.0
C88 C 0.41315 0.47093 0.0127 0.0
C89 C 0.53491 0.52343 0.17452 0.0
C90 C 0.55514 0.61866 0.02849 0.0
C91 C 0.69168 0.67292 0.10646 0.0
C92 C 0.72238 0.67364 0.09905 0.0
C93 C 0.71588 0.63953 0.14415 0.0
C94 C 0.7425 0.63706 0.12897 0.0
C95 C 0.77618 0.66858 0.06832 0.0
C96 C 0.78362 0.70393 0.02592 0.0
C97 C 0.75713 0.70653 0.04135 0.0
C98 C 0.58777 0.58117 0.85358 0.0
C99 C 0.5686 0.49295 1.01101 0.0
O100 O 0.47025 0.4783 0.87046 0.0
O101 O 0.44408 0.43522 0.99076 0.0
O102 O 0.5061 0.47889 0.12574 0.0
O103 O 0.55122 0.55901 0.12659 0.0
O104 O 0.52568 0.57171 0.98537 0.0
O105 O 0.59092 0.64053 0.07029 0.0
O106 O 0.6583 0.63918 0.15634 0.0
O107 O 0.68104 0.67656 0.02973 0.0
O108 O 0.61489 0.62733 0.89481 0.0
O109 O 0.5743 0.55067 0.9107 0.0
O110 O 0.59819 0.54011 0.05422 0.0
O111 O 0.5345 0.47257 0.96305 0.0
H112 H 0.37916 0.41633 0.7888 0.0
H113 H 0.34252 0.435 0.80374 0.0
H114 H 0.3966 0.49984 0.08704 0.0
H115 H 0.43387 0.48267 0.07082 0.0
H116 H 0.68955 0.61375 0.18944 0.0
H117 H 0.73573 0.60921 0.16231 0.0
H118 H 0.80976 0.72937 0.98005 0.0
H119 H 0.7632 0.7335 1.00626 0.0
H120 H 0.09358 0.56097 0.72591 0.0
H121 H 0.99328 0.54228 0.72202 0.0
H122 H 0.99206 0.53896 0.55262 0.0
H123 H 0.15172 0.63991 0.53813 0.0
H124 H 0.16218 0.60956 0.48764 0.0
H125 H 0.15578 0.61031 0.61018 0.0
H126 H 0.09401 0.51087 0.59662 0.0
H127 H 0.10037 0.5098 0.47407 0.0
H128 H 1.04782 0.47236 0.51465 0.0
H129 H 1.00381 0.54301 0.38654 0.0
H130 H 1.02292 0.5451 0.22728 0.0
H131 H 0.11204 0.555 0.32878 0.0
C132 C 0.07127 0.55589 0.68907 0.0
C133 C 1.04378 0.55233 0.73777 0.0
C134 C 1.0148 0.54532 0.68691 0.0
C135 C 1.01385 0.54346 0.59031 0.0
C136 C 1.04156 0.54776 0.54443 0.0
C137 C 0.06927 0.55296 0.59133 0.0
C138 C 0.09471 0.55542 0.52308 0.0
C139 C 0.14403 0.60687 0.54084 0.0
C140 C 0.08356 0.50937 0.52737 0.0
C141 C 0.0774 0.55172 0.43131 0.0
C142 C 1.04702 0.54776 0.44613 0.0
C143 C 1.02732 0.5457 0.37379 0.0
C144 C 1.03864 0.54735 0.28351 0.0
C145 C 0.069 0.55044 0.26559 0.0
C146 C 0.08853 0.55238 0.34055 0.0
H147 H 0.61277 0.08384 0.3028 0.0
H148 H 0.51445 0.06844 0.29889 0.0
H149 H 0.50465 1.05458 0.46311 0.0
H150 H 0.55971 0.98624 0.46179 0.0
H151 H 0.60973 1.0212 0.52356 0.0
H152 H 0.60972 1.02976 0.40372 0.0
H153 H 0.66978 0.12815 0.44706 0.0
H154 H 0.66992 0.11987 0.56702 0.0
H155 H 0.66083 0.15199 0.53463 0.0
H156 H 0.50475 1.0435 0.6257 0.0
H157 H 0.51474 1.03504 0.78305 0.0
H158 H 0.61286 1.05681 0.69311 0.0
C159 C 0.58925 0.07752 0.33684 0.0
C160 C 0.56454 0.07754 0.28737 0.0
C161 C 0.534 0.06897 0.3346 0.0
C162 C 0.52805 0.06092 0.4283 0.0
C163 C 0.55278 0.06138 0.47521 0.0
C164 C 0.5828 0.06938 0.43187 0.0
C165 C 0.60497 0.06808 0.50093 0.0
C166 C 0.59546 1.02367 0.47068 0.0
C167 C 0.65431 0.12012 0.51311 0.0
C168 C 0.5827 1.05831 0.58909 0.0
C169 C 0.55272 1.05461 0.57159 0.0
C170 C 0.52806 1.04622 0.64043 0.0
C171 C 0.53406 1.04152 0.72992 0.0
C172 C 0.5645 1.04516 0.75092 0.0
C173 C 0.58918 1.0536 0.67919 0.0
H174 H 0.60777 0.6378 0.71384 0.0
H175 H 0.54744 0.49174 0.76456 0.0
H176 H 0.5321 0.46535 0.59713 0.0
H177 H 0.53073 0.5851 0.52637 0.0
H178 H 0.57037 0.63896 0.45896 0.0
H179 H 0.57918 0.64864 0.58331 0.0
H180 H 0.65393 0.68955 0.56712 0.0
H181 H 0.64526 0.6798 0.44263 0.0
H182 H 0.65662 0.65393 0.49945 0.0
H183 H 0.52215 0.45315 0.42897 0.0
H184 H 0.51331 0.45254 0.26318 0.0
H185 H 0.57779 0.60505 0.3117 0.0
C186 C 0.59158 0.60046 0.68923 0.0
C187 C 0.57902 0.56689 0.75221 0.0
C188 C 0.55744 0.5181 0.71779 0.0
C189 C 0.5487 0.50279 0.62268 0.0
C190 C 0.56146 0.53652 0.56244 0.0
C191 C 0.58212 0.58417 0.59361 0.0
C192 C 0.59034 0.61148 0.51249 0.0
C193 C 0.56621 0.62163 0.5208 0.0
C194 C 0.63947 0.66167 0.50501 0.0
C195 C 0.5707 0.57139 0.43146 0.0
C196 C 0.55472 0.52884 0.46285 0.0
C197 C 0.53444 0.48614 0.40334 0.0
C198 C 0.52951 0.48621 0.30909 0.0
C199 C 0.54457 0.52857 0.27443 0.0
C200 C 0.56611 0.57223 0.33629 0.0
H201 H 0.18412 0.4357 0.87442 0.0
H202 H 0.27449 0.58783 0.02386 0.0
H203 H 0.32832 0.59401 0.04423 0.0
H204 H 0.21098 0.39374 1.01045 0.0
H205 H 0.20614 0.35966 0.91265 0.0
H206 H 0.17438 0.36679 0.91129 0.0
H207 H 0.20616 0.40863 0.75729 0.0
H208 H 0.23807 0.4017 0.75825 0.0
H209 H 0.26449 0.46424 0.75126 0.0
H210 H 0.37272 0.58426 0.0465 0.0
H211 H 0.40435 0.55898 0.03193 0.0
H212 H 0.28549 0.41354 0.87928 0.0
C213 C 0.21532 0.47049 0.91093 0.0
C214 C 0.22496 0.51124 0.94777 0.0
C215 C 0.26602 0.55576 0.99622 0.0
C216 C 0.29695 0.5598 1.00762 0.0
C217 C 0.2864 0.51901 0.97015 0.0
C218 C 0.24659 0.47519 0.92285 0.0
C219 C 0.24349 0.43698 0.88908 0.0
C220 C 0.20656 0.3863 0.93355 0.0
C221 C 0.23772 0.42734 0.78265 0.0
C222 C 0.28786 0.46625 0.92453 0.0
C223 C 0.31205 0.51344 0.9712 0.0
C224 C 0.354 0.54731 1.01039 0.0
C225 C 0.37162 0.53247 1.00199 0.0
C226 C 0.34746 0.4842 0.9545 0.0
C227 C 0.30501 0.45086 0.91516 0.0
H228 H 0.73154 0.23573 0.12513 0.0
H229 H 0.70039 0.1543 0.85927 0.0
H230 H 0.7788 0.2251 0.82913 0.0
H231 H 0.81267 0.36061 0.0453 0.0
H232 H 0.84777 0.3939 0.15039 0.0
H233 H 0.78987 0.33504 0.15468 0.0
H234 H 0.80364 0.295 0.23546 0.0
H235 H 0.86162 0.35382 0.2316 0.0
H236 H 0.836 0.2934 0.18159 0.0
H237 H 0.86006 0.3045 0.82788 0.0
H238 H 0.93843 0.39023 0.8495 0.0
H239 H 0.91673 0.42354 0.11172 0.0
C240 C 0.74158 0.23276 0.06138 0.0
C241 C 0.71054 0.1896 0.99491 0.0
C242 C 0.72415 0.18707 0.9111 0.0
C243 C 0.76846 0.22697 0.89359 0.0
C244 C 0.79849 0.26935 0.96018 0.0
C245 C 0.78568 0.2728 0.04206 0.0
C246 C 0.82428 0.32407 0.09916 0.0
C247 C 0.81828 0.35524 0.11316 0.0
C248 C 0.83182 0.31607 0.19248 0.0
C249 C 0.8607 0.34892 0.03646 0.0
C250 C 0.84516 0.31636 0.95732 0.0
C251 C 0.87261 0.33039 0.88947 0.0
C252 C 0.9171 0.37912 0.90251 0.0
C253 C 0.93366 0.41362 0.98208 0.0
C254 C 0.90496 0.39814 0.04986 0.0
H255 H 0.60023 0.85005 0.12325 0.0
H256 H 0.47623 0.75038 0.96991 0.0
H257 H 0.46556 0.68163 0.94677 0.0
H258 H 0.63279 0.81032 0.98342 0.0
H259 H 0.65767 0.81336 0.07959 0.0
H260 H 0.6555 0.85468 0.08521 0.0
H261 H 0.61626 0.81935 0.23766 0.0
H262 H 0.61833 0.77793 0.23257 0.0
H263 H 0.56674 0.75082 0.24019 0.0
H264 H 0.4688 0.62484 0.93794 0.0
H265 H 0.48417 0.5815 0.94574 0.0
H266 H 0.60648 0.71733 0.10612 0.0
C267 C 0.57065 0.81359 0.08549 0.0
C268 C 0.539 0.80555 0.04832 0.0
C269 C 0.50109 0.75759 0.99808 0.0
C270 C 0.49467 0.71827 0.98498 0.0
C271 C 0.52655 0.72758 0.02227 0.0
C272 C 0.56379 0.77397 0.0715 0.0
C273 C 0.59312 0.77402 0.10339 0.0
C274 C 0.63739 0.81556 0.06031 0.0
C275 C 0.59893 0.78093 0.20978 0.0
C276 C 0.56645 0.72027 0.06447 0.0
C277 C 0.52823 0.69434 0.01795 0.0
C278 C 0.49839 0.64453 0.97489 0.0
C279 C 0.50762 0.6203 0.97973 0.0
C280 C 0.54661 0.64587 0.0269 0.0
C281 C 0.57638 0.69664 0.06989 0.0
H282 H 0.91623 0.64034 0.17396 0.0
H283 H 0.93257 0.64133 0.87865 0.0
H284 H 0.88789 0.64838 0.85327 0.0
H285 H 0.80343 0.56375 0.15273 0.0
H286 H 0.81039 0.59916 0.25171 0.0
H287 H 0.84303 0.59322 0.24661 0.0
H288 H 0.91333 0.6927 0.27052 0.0
H289 H 0.88093 0.69897 0.27531 0.0
H290 H 0.92193 0.73123 0.19254 0.0
H291 H 0.84321 0.65774 0.86002 0.0
H292 H 0.79991 0.66652 0.89804 0.0
H293 H 0.81144 0.65825 0.18863 0.0
C294 C 0.90993 0.64131 0.10377 0.0
C295 C 0.92819 0.64052 0.02834 0.0
C296 C 0.91959 0.64267 0.93778 0.0
C297 C 0.89401 0.64637 0.92254 0.0
C298 C 0.87699 0.64766 0.99845 0.0
C299 C 0.88437 0.64493 0.08723 0.0
C300 C 0.8627 0.64778 0.15683 0.0
C301 C 0.82781 0.59801 0.20479 0.0
C302 C 0.89676 0.69551 0.22799 0.0
C303 C 0.8422 0.65281 0.09333 0.0
C304 C 0.8509 0.65269 1.00226 0.0
C305 C 0.83615 0.65782 0.93109 0.0
C306 C 0.81183 0.66315 0.95349 0.0
C307 C 0.80238 0.66329 0.04634 0.0
C308 C 0.81775 0.65784 0.11692 0.0
H309 H 0.23327 0.69122 0.0222 0.0
H310 H 0.19475 0.75588 0.06752 0.0
H311 H 0.27197 0.84343 0.07622 0.0
H312 H 0.33271 0.7892 0.17791 0.0
H313 H 0.36293 0.78962 0.10416 0.0
H314 H 0.30462 0.73169 0.10524 0.0
H315 H 0.2968 0.72805 0.92752 0.0
H316 H 0.355 0.78604 0.92585 0.0
H317 H 0.31923 0.78295 0.87855 0.0
H318 H 0.35219 0.92346 0.06841 0.0
H319 H 0.43141 0.99184 0.05462 0.0
H320 H 0.41973 0.87691 0.02095 0.0
C321 C 0.24104 0.72375 0.03481 0.0
C322 C 0.20771 0.71646 0.04409 0.0
C323 C 0.21948 0.76023 0.06055 0.0
C324 C 0.26333 0.81022 0.06543 0.0
C325 C 0.29521 0.81599 0.05477 0.0
C326 C 0.28478 0.77406 0.04083 0.0
C327 C 0.32551 0.79121 0.03049 0.0
C328 C 0.33181 0.77443 0.10915 0.0
C329 C 0.32403 0.77085 0.93491 0.0
C330 C 0.36039 0.84933 0.03918 0.0
C331 C 0.34201 0.8626 0.05289 0.0
C332 C 0.36702 0.9136 0.05869 0.0
C333 C 0.41201 0.95216 0.05028 0.0
C334 C 0.43182 0.93977 0.03697 0.0
C335 C 0.40559 0.8876 0.03217 0.0
H336 H 0.5214 0.39873 0.91869 0.0
H337 H 0.62711 0.51859 0.12864 0.0
H338 H 0.63522 0.46862 0.15252 0.0
H339 H 0.47419 0.29052 0.03081 0.0
H340 H 0.4613 0.25407 0.92448 0.0
H341 H 0.46286 0.29872 0.92379 0.0
H342 H 0.51923 0.34585 0.79873 0.0
H343 H 0.51765 0.30118 0.79866 0.0
H344 H 0.56895 0.36952 0.81998 0.0
H345 H 0.63197 0.40634 0.15608 0.0
H346 H 0.62094 0.33751 0.13067 0.0
H347 H 0.51819 0.25748 0.91717 0.0
C348 C 0.5462 0.41439 0.96965 0.0
C349 C 0.57358 0.46265 0.02174 0.0
C350 C 0.60582 0.4819 0.08746 0.0
C351 C 0.6106 0.45367 0.10201 0.0
C352 C 0.58301 0.40622 0.05015 0.0
C353 C 0.55168 0.38676 0.98474 0.0
C354 C 0.52717 0.33524 0.93684 0.0
C355 C 0.47849 0.29209 0.9551 0.0
C356 C 0.53366 0.33815 0.83236 0.0
C357 C 0.54982 0.32909 0.98545 0.0
C358 C 0.58161 0.37031 0.05116 0.0
C359 C 0.60708 0.37372 0.10505 0.0
C360 C 0.60033 0.33421 0.0906 0.0
C361 C 0.56852 0.29194 0.02245 0.0
C362 C 0.5428 0.28935 0.96963 0.0
loop_
_geom_bond_atom_site_label_1
_geom_bond_atom_site_label_2
_geom_bond_distance
_geom_bond_site_symmetry_2
_ccdc_geom_bond_type
Nd0 C2 2.836 1_556 S
Nd0 O20 2.500 1_556 S
Nd0 O21 2.492 . S
Nd0 O22 2.487 . S
Nd0 O23 2.682 1_655 S
Nd0 O24 2.410 . S
Nd0 O29 2.414 1_556 S
Nd0 O31 2.425 1_656 S
Nd1 C11 2.836 1_554 S
Nd1 O23 2.414 1_554 S
Nd1 O25 2.425 1_454 S
Nd1 O26 2.500 1_554 S
Nd1 O27 2.492 . S
Nd1 O28 2.487 . S
Nd1 O29 2.682 1_455 S
Nd1 O30 2.410 . S
C2 Nd0 2.836 1_554 S
C2 C3 1.498 . S
C2 O20 1.258 . S
C2 O21 1.239 1_554 S
C3 C2 1.498 . S
C3 C4 1.366 . S
C3 C8 1.407 1_554 S
C4 C3 1.366 . S
C4 C5 1.392 . S
C4 H32 0.930 . S
C5 C4 1.392 . S
C5 C6 1.398 . S
C5 H33 0.929 . S
C6 C5 1.398 . S
C6 C7 1.352 1_554 S
C7 C6 1.352 1_556 S
C7 C8 1.384 . S
C7 H34 0.930 . S
C8 C3 1.407 1_556 S
C8 C7 1.384 . S
C8 H35 0.929 . S
C9 O22 1.204 1_455 S
C9 O23 1.292 . S
C10 O24 1.251 . S
C10 O25 1.270 . S
C11 Nd1 2.836 1_556 S
C11 C12 1.498 . S
C11 O26 1.258 . S
C11 O27 1.239 1_556 S
C12 C11 1.498 . S
C12 C13 1.366 . S
C12 C17 1.407 1_556 S
C13 C12 1.366 . S
C13 C14 1.392 . S
C13 H36 0.930 . S
C14 C13 1.392 . S
C14 C15 1.398 . S
C14 H37 0.929 . S
C15 C14 1.398 . S
C15 C16 1.352 1_556 S
C16 C15 1.352 1_554 S
C16 C17 1.384 . S
C16 H38 0.930 . S
C17 C12 1.407 1_554 S
C17 C16 1.384 . S
C17 H39 0.929 . S
C18 O28 1.241 . S
C18 O29 1.273 1_455 S
C19 O30 1.251 . S
C19 O31 1.270 . S
O20 Nd0 2.500 1_554 S
O20 C2 1.258 . S
O21 Nd0 2.492 . S
O21 C2 1.239 1_556 S
O22 Nd0 2.487 . S
O22 C9 1.204 1_655 S
O23 Nd0 2.682 1_455 S
O23 Nd1 2.414 1_556 S
O23 C9 1.292 . S
O24 Nd0 2.410 . S
O24 C10 1.251 . S
O25 Nd1 2.425 1_656 S
O25 C10 1.270 . S
O26 Nd1 2.500 1_556 S
O26 C11 1.258 . S
O27 Nd1 2.492 . S
O27 C11 1.239 1_554 S
O28 Nd1 2.487 . S
O28 C18 1.241 . S
O29 Nd0 2.414 1_554 S
O29 Nd1 2.682 1_655 S
O29 C18 1.273 1_655 S
O30 Nd1 2.410 . S
O30 C19 1.251 . S
O31 Nd0 2.425 1_454 S
O31 C19 1.270 . S
H32 C4 0.930 . S
H33 C5 0.929 . S
H34 C7 0.930 . S
H35 C8 0.929 . S
H36 C13 0.930 . S
H37 C14 0.929 . S
H38 C16 0.930 . S
H39 C17 0.929 . S
Nd40 C42 2.836 . S
Nd40 O60 2.500 1_554 S
Nd40 O61 2.492 . S
Nd40 O62 2.487 . S
Nd40 O63 2.682 1_545 S
Nd40 O64 2.410 . S
Nd40 O69 2.414 1_554 S
Nd40 O71 2.424 1_545 S
Nd41 C51 2.836 . S
Nd41 O63 2.414 1_556 S
Nd41 O65 2.424 1_565 S
Nd41 O66 2.500 1_556 S
Nd41 O67 2.492 . S
Nd41 O68 2.487 . S
Nd41 O69 2.682 1_565 S
Nd41 O70 2.410 . S
C42 Nd40 2.836 . S
C42 C43 1.498 . S
C42 O60 1.258 1_554 S
C42 O61 1.239 . S
C43 C42 1.498 . S
C43 C44 1.366 1_554 S
C43 C48 1.407 . S
C44 C43 1.366 1_556 S
C44 C45 1.392 . S
C44 H72 0.930 . S
C45 C44 1.392 . S
C45 C46 1.398 1_556 S
C45 H73 0.929 . S
C46 C45 1.398 1_554 S
C46 C47 1.352 . S
C47 C46 1.352 . S
C47 C48 1.384 . S
C47 H74 0.930 . S
C48 C43 1.407 . S
C48 C47 1.384 . S
C48 H75 0.929 . S
C49 O62 1.241 . S
C49 O63 1.273 1_545 S
C50 O64 1.251 . S
C50 O65 1.268 1_554 S
C51 Nd41 2.836 . S
C51 C52 1.498 . S
C51 O66 1.258 1_556 S
C51 O67 1.239 . S
C52 C51 1.498 . S
C52 C53 1.366 1_556 S
C52 C57 1.407 . S
C53 C52 1.366 1_554 S
C53 C54 1.392 . S
C53 H76 0.930 . S
C54 C53 1.392 . S
C54 C55 1.398 1_554 S
C54 H77 0.929 . S
C55 C54 1.398 1_556 S
C55 C56 1.352 . S
C56 C55 1.352 . S
C56 C57 1.384 . S
C56 H78 0.930 . S
C57 C52 1.407 . S
C57 C56 1.384 . S
C57 H79 0.929 . S
C58 O68 1.241 . S
C58 O69 1.273 1_565 S
C59 O70 1.251 . S
C59 O71 1.268 1_556 S
O60 Nd40 2.500 1_556 S
O60 C42 1.258 1_556 S
O61 Nd40 2.492 . S
O61 C42 1.239 . S
O62 Nd40 2.487 . S
O62 C49 1.241 . S
O63 Nd40 2.682 1_565 S
O63 Nd41 2.414 1_554 S
O63 C49 1.273 1_565 S
O64 Nd40 2.410 . S
O64 C50 1.251 . S
O65 Nd41 2.424 1_545 S
O65 C50 1.268 1_556 S
O66 Nd41 2.500 1_554 S
O66 C51 1.258 1_554 S
O67 Nd41 2.492 . S
O67 C51 1.239 . S
O68 Nd41 2.487 . S
O68 C58 1.241 . S
O69 Nd40 2.414 1_556 S
O69 Nd41 2.682 1_545 S
O69 C58 1.273 1_545 S
O70 Nd41 2.410 . S
O70 C59 1.251 . S
O71 Nd40 2.424 1_565 S
O71 C59 1.268 1_554 S
H72 C44 0.930 . S
H73 C45 0.929 . S
H74 C47 0.930 . S
H75 C48 0.929 . S
H76 C53 0.930 . S
H77 C54 0.929 . S
H78 C56 0.930 . S
H79 C57 0.929 . S
Nd80 C82 2.836 1_554 S
Nd80 O100 2.500 1_554 S
Nd80 O101 2.492 . S
Nd80 O102 2.487 . S
Nd80 O103 2.682 . S
Nd80 O104 2.410 . S
Nd80 O109 2.414 1_554 S
Nd80 O111 2.424 1_554 S
Nd81 C91 2.836 1_556 S
Nd81 O103 2.414 1_556 S
Nd81 O105 2.424 1_556 S
Nd81 O106 2.500 1_556 S
Nd81 O107 2.492 . S
Nd81 O108 2.487 . S
Nd81 O109 2.682 . S
Nd81 O110 2.410 . S
C82 Nd80 2.836 1_556 S
C82 C83 1.498 . S
C82 O100 1.258 . S
C82 O101 1.239 1_556 S
C83 C82 1.498 . S
C83 C84 1.366 . S
C83 C88 1.407 1_556 S
C84 C83 1.366 . S
C84 C85 1.392 . S
C84 H112 0.930 . S
C85 C84 1.392 . S
C85 C86 1.398 . S
C85 H113 0.929 . S
C86 C85 1.398 . S
C86 C87 1.352 1_556 S
C87 C86 1.352 1_554 S
C87 C88 1.384 . S
C87 H114 0.930 . S
C88 C83 1.407 1_554 S
C88 C87 1.384 . S
C88 H115 0.929 . S
C89 O102 1.241 . S
C89 O103 1.273 . S
C90 O104 1.251 . S
C90 O105 1.268 . S
C91 Nd81 2.836 1_554 S
C91 C92 1.498 . S
C91 O106 1.258 . S
C91 O107 1.239 1_554 S
C92 C91 1.498 . S
C92 C93 1.366 . S
C92 C97 1.407 1_554 S
C93 C92 1.366 . S
C93 C94 1.392 . S
C93 H116 0.930 . S
C94 C93 1.392 . S
C94 C95 1.398 . S
C94 H117 0.929 . S
C95 C94 1.398 . S
C95 C96 1.352 1_554 S
C96 C95 1.352 1_556 S
C96 C97 1.384 . S
C96 H118 0.930 . S
C97 C92 1.407 1_556 S
C97 C96 1.384 . S
C97 H119 0.929 . S
C98 O108 1.241 . S
C98 O109 1.273 . S
C99 O110 1.251 . S
C99 O111 1.268 . S
O100 Nd80 2.500 1_556 S
O100 C82 1.258 . S
O101 Nd80 2.492 . S
O101 C82 1.239 1_554 S
O102 Nd80 2.487 . S
O102 C89 1.241 . S
O103 Nd80 2.682 . S
O103 Nd81 2.414 1_554 S
O103 C89 1.273 . S
O104 Nd80 2.410 . S
O104 C90 1.251 . S
O105 Nd81 2.424 1_554 S
O105 C90 1.268 . S
O106 Nd81 2.500 1_554 S
O106 C91 1.258 . S
O107 Nd81 2.492 . S
O107 C91 1.239 1_556 S
O108 Nd81 2.487 . S
O108 C98 1.241 . S
O109 Nd80 2.414 1_556 S
O109 Nd81 2.682 . S
O109 C98 1.273 . S
O110 Nd81 2.410 . S
O110 C99 1.251 . S
O111 Nd80 2.424 1_556 S
O111 C99 1.268 . S
H112 C84 0.930 . S
H113 C85 0.929 . S
H114 C87 0.930 . S
H115 C88 0.929 . S
H116 C93 0.930 . S
H117 C94 0.929 . S
H118 C96 0.930 . S
H119 C97 0.929 . S
H120 C132 0.930 . S
H121 C134 0.930 . S
H122 C135 0.930 . S
H123 C139 0.959 . S
H124 C139 0.959 1_655 S
H125 C139 0.961 . S
H126 C140 0.960 . S
H127 C140 0.961 . S
H128 C140 0.959 . S
H129 C143 0.929 . S
H130 C144 0.931 . S
H131 C146 0.930 . S
C132 H120 0.930 . S
C132 C133 1.399 1_655 S
C132 C137 1.399 . S
C133 C132 1.399 1_455 S
C133 C134 1.376 . S
C134 H121 0.930 . S
C134 C133 1.376 . S
C134 C135 1.388 . S
C135 H122 0.930 . S
C135 C134 1.388 . S
C135 C136 1.390 . S
C136 C135 1.390 . S
C136 C137 1.394 1_455 S
C136 C142 1.465 . S
C137 C132 1.399 . S
C137 C136 1.394 1_655 S
C137 C138 1.516 . S
C138 C137 1.516 . S
C138 C139 1.502 1_655 S
C138 C140 1.561 . S
C138 C141 1.526 . S
C139 H123 0.959 . S
C139 H124 0.959 1_455 S
C139 H125 0.961 . S
C139 C138 1.502 1_455 S
C140 H126 0.960 . S
C140 H127 0.961 . S
C140 H128 0.959 . S
C140 C138 1.561 . S
C141 C138 1.526 . S
C141 C142 1.396 1_655 S
C141 C146 1.390 . S
C142 C136 1.465 . S
C142 C141 1.396 1_455 S
C142 C143 1.399 . S
C143 H129 0.929 . S
C143 C142 1.399 . S
C143 C144 1.385 . S
C144 H130 0.931 . S
C144 C143 1.385 . S
C144 C145 1.387 . S
C145 C144 1.387 . S
C145 C146 1.388 1_455 S
C146 H131 0.930 . S
C146 C141 1.390 . S
C146 C145 1.388 1_655 S
H147 C159 0.930 . S
H148 C161 0.930 . S
H149 C162 0.930 . S
H150 C166 0.959 . S
H151 C166 0.959 . S
H152 C166 0.961 . S
H153 C167 0.960 . S
H154 C167 0.961 . S
H155 C167 0.959 . S
H156 C170 0.929 . S
H157 C171 0.931 . S
H158 C173 0.930 . S
C159 H147 0.930 . S
C159 C160 1.399 1_545 S
C159 C164 1.399 . S
C160 C159 1.399 1_565 S
C160 C161 1.376 . S
C161 H148 0.930 . S
C161 C160 1.376 . S
C161 C162 1.388 . S
C162 H149 0.930 . S
C162 C161 1.388 . S
C162 C163 1.390 . S
C163 C162 1.390 . S
C163 C164 1.394 1_565 S
C163 C169 1.465 . S
C164 C159 1.399 . S
C164 C163 1.394 1_545 S
C164 C165 1.516 . S
C165 C164 1.516 . S
C165 C166 1.502 . S
C165 C167 1.561 . S
C165 C168 1.526 . S
C166 H150 0.959 . S
C166 H151 0.959 . S
C166 H152 0.961 . S
C166 C165 1.502 . S
C167 H153 0.960 . S
C167 H154 0.961 . S
C167 H155 0.959 . S
C167 C165 1.561 . S
C168 C165 1.526 . S
C168 C169 1.396 1_545 S
C168 C173 1.390 . S
C169 C163 1.465 . S
C169 C168 1.396 1_565 S
C169 C170 1.399 . S
C170 H156 0.929 . S
C170 C169 1.399 . S
C170 C171 1.385 . S
C171 H157 0.931 . S
C171 C170 1.385 . S
C171 C172 1.389 . S
C172 C171 1.389 . S
C172 C173 1.387 1_565 S
C173 H158 0.930 . S
C173 C168 1.390 . S
C173 C172 1.387 1_545 S
H174 C186 0.930 . S
H175 C188 0.930 . S
H176 C189 0.930 . S
H177 C193 0.959 . S
H178 C193 0.959 . S
H179 C193 0.961 . S
H180 C194 0.960 . S
H181 C194 0.961 . S
H182 C194 0.959 . S
H183 C197 0.929 . S
H184 C198 0.931 . S
H185 C200 0.930 . S
C186 H174 0.930 . S
C186 C187 1.399 . S
C186 C191 1.399 . S
C187 C186 1.399 . S
C187 C188 1.376 . S
C188 H175 0.930 . S
C188 C187 1.376 . S
C188 C189 1.388 . S
C189 H176 0.930 . S
C189 C188 1.388 . S
C189 C190 1.390 . S
C190 C189 1.390 . S
C190 C191 1.394 . S
C190 C196 1.465 . S
C191 C186 1.399 . S
C191 C190 1.394 . S
C191 C192 1.516 . S
C192 C191 1.516 . S
C192 C193 1.502 . S
C192 C194 1.561 . S
C192 C195 1.526 . S
C193 H177 0.959 . S
C193 H178 0.959 . S
C193 H179 0.961 . S
C193 C192 1.502 . S
C194 H180 0.960 . S
C194 H181 0.961 . S
C194 H182 0.959 . S
C194 C192 1.561 . S
C195 C192 1.526 . S
C195 C196 1.396 . S
C195 C200 1.390 . S
C196 C190 1.465 . S
C196 C195 1.396 . S
C196 C197 1.399 . S
C197 H183 0.929 . S
C197 C196 1.399 . S
C197 C198 1.385 . S
C198 H184 0.931 . S
C198 C197 1.385 . S
C198 C199 1.389 . S
C199 C198 1.389 . S
C199 C200 1.387 . S
C200 H185 0.930 . S
C200 C195 1.390 . S
C200 C199 1.387 . S
H201 C213 0.930 . S
H202 C215 0.930 . S
H203 C216 0.930 . S
H204 C220 0.959 . S
H205 C220 0.959 . S
H206 C220 0.961 . S
H207 C221 0.960 . S
H208 C221 0.961 . S
H209 C221 0.959 . S
H210 C224 0.929 . S
H211 C225 0.931 . S
H212 C227 0.930 . S
C213 H201 0.930 . S
C213 C214 1.399 . S
C213 C218 1.399 . S
C214 C213 1.399 . S
C214 C215 1.376 1_556 S
C215 H202 0.930 . S
C215 C214 1.376 1_554 S
C215 C216 1.388 . S
C216 H203 0.930 . S
C216 C215 1.388 . S
C216 C217 1.390 . S
C217 C216 1.390 . S
C217 C218 1.394 1_554 S
C217 C223 1.465 . S
C218 C213 1.399 . S
C218 C217 1.394 1_556 S
C218 C219 1.516 . S
C219 C218 1.516 . S
C219 C220 1.502 . S
C219 C221 1.561 . S
C219 C222 1.526 . S
C220 H204 0.959 . S
C220 H205 0.959 . S
C220 H206 0.961 . S
C220 C219 1.502 . S
C221 H207 0.960 . S
C221 H208 0.961 . S
C221 H209 0.959 . S
C221 C219 1.561 . S
C222 C219 1.526 . S
C222 C223 1.396 1_556 S
C222 C227 1.390 . S
C223 C217 1.465 . S
C223 C222 1.396 1_554 S
C223 C224 1.399 . S
C224 H210 0.929 . S
C224 C223 1.399 . S
C224 C225 1.385 . S
C225 H211 0.931 . S
C225 C224 1.385 . S
C225 C226 1.389 1_554 S
C226 C225 1.389 1_556 S
C226 C227 1.387 . S
C227 H212 0.930 . S
C227 C222 1.390 . S
C227 C226 1.387 . S
H228 C240 0.930 . S
H229 C242 0.930 . S
H230 C243 0.930 . S
H231 C247 0.959 . S
H232 C247 0.959 . S
H233 C247 0.961 . S
H234 C248 0.960 . S
H235 C248 0.961 . S
H236 C248 0.959 . S
H237 C251 0.929 . S
H238 C252 0.931 . S
H239 C254 0.930 . S
C240 H228 0.930 . S
C240 C241 1.399 1_554 S
C240 C245 1.399 . S
C241 C240 1.399 1_556 S
C241 C242 1.376 . S
C242 H229 0.930 . S
C242 C241 1.376 . S
C242 C243 1.388 . S
C243 H230 0.930 . S
C243 C242 1.388 . S
C243 C244 1.390 . S
C244 C243 1.390 . S
C244 C245 1.394 1_556 S
C244 C250 1.465 . S
C245 C240 1.399 . S
C245 C244 1.394 1_554 S
C245 C246 1.516 . S
C246 C245 1.516 . S
C246 C247 1.502 . S
C246 C248 1.561 . S
C246 C249 1.526 . S
C247 H231 0.959 . S
C247 H232 0.959 . S
C247 H233 0.961 . S
C247 C246 1.502 . S
C248 H234 0.960 . S
C248 H235 0.961 . S
C248 H236 0.959 . S
C248 C246 1.561 . S
C249 C246 1.526 . S
C249 C250 1.396 1_554 S
C249 C254 1.390 . S
C250 C244 1.465 . S
C250 C249 1.396 1_556 S
C250 C251 1.399 . S
C251 H237 0.929 . S
C251 C250 1.399 . S
C251 C252 1.385 . S
C252 H238 0.931 . S
C252 C251 1.385 . S
C252 C253 1.389 . S
C253 C252 1.389 . S
C253 C254 1.387 1_556 S
C254 H239 0.930 . S
C254 C249 1.390 . S
C254 C253 1.387 1_554 S
H255 C267 0.930 . S
H256 C269 0.930 . S
H257 C270 0.930 . S
H258 C274 0.959 . S
H259 C274 0.959 . S
H260 C274 0.961 . S
H261 C275 0.960 . S
H262 C275 0.961 . S
H263 C275 0.959 . S
H264 C278 0.929 . S
H265 C279 0.931 . S
H266 C281 0.930 . S
C267 H255 0.930 . S
C267 C268 1.399 1_554 S
C267 C272 1.399 . S
C268 C267 1.399 1_556 S
C268 C269 1.376 . S
C269 H256 0.930 . S
C269 C268 1.376 . S
C269 C270 1.388 . S
C270 H257 0.930 . S
C270 C269 1.388 . S
C270 C271 1.390 . S
C271 C270 1.390 . S
C271 C272 1.394 1_556 S
C271 C277 1.465 . S
C272 C267 1.399 . S
C272 C271 1.394 1_554 S
C272 C273 1.516 . S
C273 C272 1.516 . S
C273 C274 1.502 . S
C273 C275 1.561 . S
C273 C276 1.526 . S
C274 H258 0.959 . S
C274 H259 0.959 . S
C274 H260 0.961 . S
C274 C273 1.502 . S
C275 H261 0.960 . S
C275 H262 0.961 . S
C275 H263 0.959 . S
C275 C273 1.561 . S
C276 C273 1.526 . S
C276 C277 1.396 1_554 S
C276 C281 1.390 . S
C277 C271 1.465 . S
C277 C276 1.396 1_556 S
C277 C278 1.399 . S
C278 H264 0.929 . S
C278 C277 1.399 . S
C278 C279 1.385 . S
C279 H265 0.931 . S
C279 C278 1.385 . S
C279 C280 1.389 . S
C280 C279 1.389 . S
C280 C281 1.387 1_556 S
C281 H266 0.930 . S
C281 C276 1.390 . S
C281 C280 1.387 1_554 S
H282 C294 0.930 . S
H283 C296 0.930 . S
H284 C297 0.930 . S
H285 C301 0.959 . S
H286 C301 0.959 . S
H287 C301 0.961 . S
H288 C302 0.960 . S
H289 C302 0.961 . S
H290 C302 0.959 . S
H291 C305 0.929 . S
H292 C306 0.931 . S
H293 C308 0.930 . S
C294 H282 0.930 . S
C294 C295 1.399 . S
C294 C299 1.399 . S
C295 C294 1.399 . S
C295 C296 1.376 1_554 S
C296 H283 0.930 . S
C296 C295 1.376 1_556 S
C296 C297 1.388 . S
C297 H284 0.930 . S
C297 C296 1.388 . S
C297 C298 1.390 . S
C298 C297 1.390 . S
C298 C299 1.394 1_556 S
C298 C304 1.465 . S
C299 C294 1.399 . S
C299 C298 1.394 1_554 S
C299 C300 1.516 . S
C300 C299 1.516 . S
C300 C301 1.502 . S
C300 C302 1.561 . S
C300 C303 1.526 . S
C301 H285 0.959 . S
C301 H286 0.959 . S
C301 H287 0.961 . S
C301 C300 1.502 . S
C302 H288 0.960 . S
C302 H289 0.961 . S
C302 H290 0.959 . S
C302 C300 1.561 . S
C303 C300 1.526 . S
C303 C304 1.396 1_554 S
C303 C308 1.390 . S
C304 C298 1.465 . S
C304 C303 1.396 1_556 S
C304 C305 1.399 . S
C305 H291 0.929 . S
C305 C304 1.399 . S
C305 C306 1.385 . S
C306 H292 0.931 . S
C306 C305 1.385 . S
C306 C307 1.389 1_556 S
C307 C306 1.389 1_554 S
C307 C308 1.387 . S
C308 H293 0.930 . S
C308 C303 1.390 . S
C308 C307 1.387 . S
H309 C321 0.930 . S
H310 C323 0.930 . S
H311 C324 0.930 . S
H312 C328 0.959 . S
H313 C328 0.959 . S
H314 C328 0.961 . S
H315 C329 0.960 . S
H316 C329 0.961 . S
H317 C329 0.959 . S
H318 C332 0.929 . S
H319 C333 0.931 . S
H320 C335 0.930 . S
C321 H309 0.930 . S
C321 C322 1.399 1_554 S
C321 C326 1.399 . S
C322 C321 1.399 1_556 S
C322 C323 1.376 . S
C323 H310 0.930 . S
C323 C322 1.376 . S
C323 C324 1.388 . S
C324 H311 0.930 . S
C324 C323 1.388 . S
C324 C325 1.390 . S
C325 C324 1.390 . S
C325 C326 1.394 1_556 S
C325 C331 1.465 . S
C326 C321 1.399 . S
C326 C325 1.394 1_554 S
C326 C327 1.516 . S
C327 C326 1.516 . S
C327 C328 1.502 . S
C327 C329 1.561 . S
C327 C330 1.526 . S
C328 H312 0.959 . S
C328 H313 0.959 . S
C328 H314 0.961 . S
C328 C327 1.502 . S
C329 H315 0.960 . S
C329 H316 0.961 . S
C329 H317 0.959 . S
C329 C327 1.561 . S
C330 C327 1.526 . S
C330 C331 1.396 1_554 S
C330 C335 1.390 . S
C331 C325 1.465 . S
C331 C330 1.396 1_556 S
C331 C332 1.399 . S
C332 H318 0.929 . S
C332 C331 1.399 . S
C332 C333 1.385 . S
C333 H319 0.931 . S
C333 C332 1.385 . S
C333 C334 1.389 . S
C334 C333 1.389 . S
C334 C335 1.387 1_556 S
C335 H320 0.930 . S
C335 C330 1.390 . S
C335 C334 1.387 1_554 S
H336 C348 0.930 . S
H337 C350 0.930 . S
H338 C351 0.930 . S
H339 C355 0.959 . S
H340 C355 0.959 . S
H341 C355 0.961 . S
H342 C356 0.960 . S
H343 C356 0.961 . S
H344 C356 0.959 . S
H345 C359 0.929 . S
H346 C360 0.931 . S
H347 C362 0.930 . S
C348 H336 0.930 . S
C348 C349 1.399 1_556 S
C348 C353 1.399 . S
C349 C348 1.399 1_554 S
C349 C350 1.376 . S
C350 H337 0.930 . S
C350 C349 1.376 . S
C350 C351 1.388 . S
C351 H338 0.930 . S
C351 C350 1.388 . S
C351 C352 1.390 . S
C352 C351 1.390 . S
C352 C353 1.394 1_554 S
C352 C358 1.465 . S
C353 C348 1.399 . S
C353 C352 1.394 1_556 S
C353 C354 1.516 . S
C354 C353 1.516 . S
C354 C355 1.502 . S
C354 C356 1.561 . S
C354 C357 1.526 . S
C355 H339 0.959 . S
C355 H340 0.959 . S
C355 H341 0.961 . S
C355 C354 1.502 . S
C356 H342 0.960 . S
C356 H343 0.961 . S
C356 H344 0.959 . S
C356 C354 1.561 . S
C357 C354 1.526 . S
C357 C358 1.396 1_556 S
C357 C362 1.390 . S
C358 C352 1.465 . S
C358 C357 1.396 1_554 S
C358 C359 1.399 . S
C359 H345 0.929 . S
C359 C358 1.399 . S
C359 C360 1.385 . S
C360 H346 0.931 . S
C360 C359 1.385 . S
C360 C361 1.389 . S
C361 C360 1.389 . S
C361 C362 1.387 1_554 S
C362 H347 0.930 . S
C362 C357 1.390 . S
C362 C361 1.387 1_556 S
C133 C9 1.399 . S
C145 C18 1.475 . S
C160 C49 1.436 1_565 S
C172 C58 1.453 . S
C187 C98 1.416 . S
C199 C89 1.445 . S
C214 C15 0.933 . S
C226 C86 0.896 . S
C241 C50 2.573 1_556 S
C253 C10 2.610 . S
C268 C55 2.007 . S
C280 C90 2.061 1_556 S
C295 C6 0.881 . S
C307 C95 0.914 . S
C322 C19 2.624 1_556 S
C334 C59 2.563 . S
C349 C99 2.052 1_554 S
C361 C46 2.003 . S
