# Generated by pormake.
# Topology ict, (4)-cn, num edge types: 1
# Building blocks:
#     Node 0, Type 0, BuildingBlock: AZAVOO_clean_sbu_0, # of connection points: 4
#     Node 1, Type 0, BuildingBlock: AZAVOO_clean_sbu_0, # of connection points: 4
#     Node 2, Type 0, BuildingBlock: AZAVOO_clean_sbu_0, # of connection points: 4
#     Node 3, Type 0, BuildingBlock: AZAVOO_clean_sbu_0, # of connection points: 4
#     Node 4, Type 0, BuildingBlock: AZAVOO_clean_sbu_0, # of connection points: 4
#     Node 5, Type 0, BuildingBlock: AZAVOO_clean_sbu_0, # of connection points: 4
#     Node 6, Type 0, BuildingBlock: AZAVOO_clean_sbu_0, # of connection points: 4
#     Node 7, Type 0, BuildingBlock: AZAVOO_clean_sbu_0, # of connection points: 4
#     Node 8, Type 0, BuildingBlock: AZAVOO_clean_sbu_0, # of connection points: 4
#     Node 9, Type 0, BuildingBlock: AZAVOO_clean_sbu_0, # of connection points: 4
#     Node 10, Type 0, BuildingBlock: AZAVOO_clean_sbu_0, # of connection points: 4
#     Node 11, Type 0, BuildingBlock: AZAVOO_clean_sbu_0, # of connection points: 4
#     Node 12, Type 0, BuildingBlock: AZAVOO_clean_sbu_0, # of connection points: 4
#     Node 13, Type 0, BuildingBlock: AZAVOO_clean_sbu_0, # of connection points: 4
#     Node 14, Type 0, BuildingBlock: AZAVOO_clean_sbu_0, # of connection points: 4
#     Node 15, Type 0, BuildingBlock: AZAVOO_clean_sbu_0, # of connection points: 4
#     Node 16, Type 0, BuildingBlock: AZAVOO_clean_sbu_0, # of connection points: 4
#     Node 17, Type 0, BuildingBlock: AZAVOO_clean_sbu_0, # of connection points: 4
#     Node 18, Type 0, BuildingBlock: AZAVOO_clean_sbu_0, # of connection points: 4
#     Node 19, Type 0, BuildingBlock: AZAVOO_clean_sbu_0, # of connection points: 4
#     Node 20, Type 0, BuildingBlock: AZAVOO_clean_sbu_0, # of connection points: 4
#     Node 21, Type 0, BuildingBlock: AZAVOO_clean_sbu_0, # of connection points: 4
#     Node 22, Type 0, BuildingBlock: AZAVOO_clean_sbu_0, # of connection points: 4
#     Node 23, Type 0, BuildingBlock: AZAVOO_clean_sbu_0, # of connection points: 4
#     Node 24, Type 0, BuildingBlock: AZAVOO_clean_sbu_0, # of connection points: 4
#     Node 25, Type 0, BuildingBlock: AZAVOO_clean_sbu_0, # of connection points: 4
#     Node 26, Type 0, BuildingBlock: AZAVOO_clean_sbu_0, # of connection points: 4
#     Node 27, Type 0, BuildingBlock: AZAVOO_clean_sbu_0, # of connection points: 4
#     Node 28, Type 0, BuildingBlock: AZAVOO_clean_sbu_0, # of connection points: 4
#     Node 29, Type 0, BuildingBlock: AZAVOO_clean_sbu_0, # of connection points: 4
#     Node 30, Type 0, BuildingBlock: AZAVOO_clean_sbu_0, # of connection points: 4
#     Node 31, Type 0, BuildingBlock: AZAVOO_clean_sbu_0, # of connection points: 4
#     Node 32, Type 0, BuildingBlock: AZAVOO_clean_sbu_0, # of connection points: 4
#     Node 33, Type 0, BuildingBlock: AZAVOO_clean_sbu_0, # of connection points: 4
#     Node 34, Type 0, BuildingBlock: AZAVOO_clean_sbu_0, # of connection points: 4
#     Node 35, Type 0, BuildingBlock: AZAVOO_clean_sbu_0, # of connection points: 4
#     Edge 36, Type (0, 0), BuildingBlock: XIVTED_clean_linker_0, # of connection points: 2
#     Edge 37, Type (0, 0), BuildingBlock: XIVTED_clean_linker_0, # of connection points: 2
#     Edge 38, Type (0, 0), BuildingBlock: XIVTED_clean_linker_0, # of connection points: 2
#     Edge 39, Type (0, 0), BuildingBlock: XIVTED_clean_linker_0, # of connection points: 2
#     Edge 40, Type (0, 0), BuildingBlock: XIVTED_clean_linker_0, # of connection points: 2
#     Edge 41, Type (0, 0), BuildingBlock: XIVTED_clean_linker_0, # of connection points: 2
#     Edge 42, Type (0, 0), BuildingBlock: XIVTED_clean_linker_0, # of connection points: 2
#     Edge 43, Type (0, 0), BuildingBlock: XIVTED_clean_linker_0, # of connection points: 2
#     Edge 44, Type (0, 0), BuildingBlock: XIVTED_clean_linker_0, # of connection points: 2
#     Edge 45, Type (0, 0), BuildingBlock: XIVTED_clean_linker_0, # of connection points: 2
#     Edge 46, Type (0, 0), BuildingBlock: XIVTED_clean_linker_0, # of connection points: 2
#     Edge 47, Type (0, 0), BuildingBlock: XIVTED_clean_linker_0, # of connection points: 2
#     Edge 48, Type (0, 0), BuildingBlock: XIVTED_clean_linker_0, # of connection points: 2
#     Edge 49, Type (0, 0), BuildingBlock: XIVTED_clean_linker_0, # of connection points: 2
#     Edge 50, Type (0, 0), BuildingBlock: XIVTED_clean_linker_0, # of connection points: 2
#     Edge 51, Type (0, 0), BuildingBlock: XIVTED_clean_linker_0, # of connection points: 2
#     Edge 52, Type (0, 0), BuildingBlock: XIVTED_clean_linker_0, # of connection points: 2
#     Edge 53, Type (0, 0), BuildingBlock: XIVTED_clean_linker_0, # of connection points: 2
#     Edge 54, Type (0, 0), BuildingBlock: XIVTED_clean_linker_0, # of connection points: 2
#     Edge 55, Type (0, 0), BuildingBlock: XIVTED_clean_linker_0, # of connection points: 2
#     Edge 56, Type (0, 0), BuildingBlock: XIVTED_clean_linker_0, # of connection points: 2
#     Edge 57, Type (0, 0), BuildingBlock: XIVTED_clean_linker_0, # of connection points: 2
#     Edge 58, Type (0, 0), BuildingBlock: XIVTED_clean_linker_0, # of connection points: 2
#     Edge 59, Type (0, 0), BuildingBlock: XIVTED_clean_linker_0, # of connection points: 2
#     Edge 60, Type (0, 0), BuildingBlock: XIVTED_clean_linker_0, # of connection points: 2
#     Edge 61, Type (0, 0), BuildingBlock: XIVTED_clean_linker_0, # of connection points: 2
#     Edge 62, Type (0, 0), BuildingBlock: XIVTED_clean_linker_0, # of connection points: 2
#     Edge 63, Type (0, 0), BuildingBlock: XIVTED_clean_linker_0, # of connection points: 2
#     Edge 64, Type (0, 0), BuildingBlock: XIVTED_clean_linker_0, # of connection points: 2
#     Edge 65, Type (0, 0), BuildingBlock: XIVTED_clean_linker_0, # of connection points: 2
#     Edge 66, Type (0, 0), BuildingBlock: XIVTED_clean_linker_0, # of connection points: 2
#     Edge 67, Type (0, 0), BuildingBlock: XIVTED_clean_linker_0, # of connection points: 2
#     Edge 68, Type (0, 0), BuildingBlock: XIVTED_clean_linker_0, # of connection points: 2
#     Edge 69, Type (0, 0), BuildingBlock: XIVTED_clean_linker_0, # of connection points: 2
#     Edge 70, Type (0, 0), BuildingBlock: XIVTED_clean_linker_0, # of connection points: 2
#     Edge 71, Type (0, 0), BuildingBlock: XIVTED_clean_linker_0, # of connection points: 2
#     Edge 72, Type (0, 0), BuildingBlock: XIVTED_clean_linker_0, # of connection points: 2
#     Edge 73, Type (0, 0), BuildingBlock: XIVTED_clean_linker_0, # of connection points: 2
#     Edge 74, Type (0, 0), BuildingBlock: XIVTED_clean_linker_0, # of connection points: 2
#     Edge 75, Type (0, 0), BuildingBlock: XIVTED_clean_linker_0, # of connection points: 2
#     Edge 76, Type (0, 0), BuildingBlock: XIVTED_clean_linker_0, # of connection points: 2
#     Edge 77, Type (0, 0), BuildingBlock: XIVTED_clean_linker_0, # of connection points: 2
#     Edge 78, Type (0, 0), BuildingBlock: XIVTED_clean_linker_0, # of connection points: 2
#     Edge 79, Type (0, 0), BuildingBlock: XIVTED_clean_linker_0, # of connection points: 2
#     Edge 80, Type (0, 0), BuildingBlock: XIVTED_clean_linker_0, # of connection points: 2
#     Edge 81, Type (0, 0), BuildingBlock: XIVTED_clean_linker_0, # of connection points: 2
#     Edge 82, Type (0, 0), BuildingBlock: XIVTED_clean_linker_0, # of connection points: 2
#     Edge 83, Type (0, 0), BuildingBlock: XIVTED_clean_linker_0, # of connection points: 2
#     Edge 84, Type (0, 0), BuildingBlock: XIVTED_clean_linker_0, # of connection points: 2
#     Edge 85, Type (0, 0), BuildingBlock: XIVTED_clean_linker_0, # of connection points: 2
#     Edge 86, Type (0, 0), BuildingBlock: XIVTED_clean_linker_0, # of connection points: 2
#     Edge 87, Type (0, 0), BuildingBlock: XIVTED_clean_linker_0, # of connection points: 2
#     Edge 88, Type (0, 0), BuildingBlock: XIVTED_clean_linker_0, # of connection points: 2
#     Edge 89, Type (0, 0), BuildingBlock: XIVTED_clean_linker_0, # of connection points: 2
#     Edge 90, Type (0, 0), BuildingBlock: XIVTED_clean_linker_0, # of connection points: 2
#     Edge 91, Type (0, 0), BuildingBlock: XIVTED_clean_linker_0, # of connection points: 2
#     Edge 92, Type (0, 0), BuildingBlock: XIVTED_clean_linker_0, # of connection points: 2
#     Edge 93, Type (0, 0), BuildingBlock: XIVTED_clean_linker_0, # of connection points: 2
#     Edge 94, Type (0, 0), BuildingBlock: XIVTED_clean_linker_0, # of connection points: 2
#     Edge 95, Type (0, 0), BuildingBlock: XIVTED_clean_linker_0, # of connection points: 2
#     Edge 96, Type (0, 0), BuildingBlock: XIVTED_clean_linker_0, # of connection points: 2
#     Edge 97, Type (0, 0), BuildingBlock: XIVTED_clean_linker_0, # of connection points: 2
#     Edge 98, Type (0, 0), BuildingBlock: XIVTED_clean_linker_0, # of connection points: 2
#     Edge 99, Type (0, 0), BuildingBlock: XIVTED_clean_linker_0, # of connection points: 2
#     Edge 100, Type (0, 0), BuildingBlock: XIVTED_clean_linker_0, # of connection points: 2
#     Edge 101, Type (0, 0), BuildingBlock: XIVTED_clean_linker_0, # of connection points: 2
#     Edge 102, Type (0, 0), BuildingBlock: XIVTED_clean_linker_0, # of connection points: 2
#     Edge 103, Type (0, 0), BuildingBlock: XIVTED_clean_linker_0, # of connection points: 2
#     Edge 104, Type (0, 0), BuildingBlock: XIVTED_clean_linker_0, # of connection points: 2
#     Edge 105, Type (0, 0), BuildingBlock: XIVTED_clean_linker_0, # of connection points: 2
#     Edge 106, Type (0, 0), BuildingBlock: XIVTED_clean_linker_0, # of connection points: 2
#     Edge 107, Type (0, 0), BuildingBlock: XIVTED_clean_linker_0, # of connection points: 2
# Relax obj value: 0.146
# Max RMSD: 0.166
# Mean RMSD: 0.156
data_MOF--net-ict--node1-AZAVOO_clean_sbu_0--edge1-XIVTED_clean_linker_0
_symmetry_space_group_name_H-M    P1
_symmetry_Int_Tables_number       1
_symmetry_cell_setting            triclinic
loop_
_symmetry_equiv_pos_as_xyz
'x, y, z'
_cell_length_a     65.676194
_cell_length_b     65.263228
_cell_length_c     35.644362
_cell_angle_alpha  90.582924
_cell_angle_beta   90.012855
_cell_angle_gamma 120.18343
loop_
_atom_site_label
_atom_site_type_symbol
_atom_site_fract_x
_atom_site_fract_y
_atom_site_fract_z
_atom_type_partial_charge
Mg0 Mg 0.23256 0.21714 0.08304 0.0
O1 O 0.2282 0.1805 0.06957 0.0
O2 O 0.19626 0.15398 0.10035 0.0
Mg3 Mg 0.18128 0.17274 0.13518 0.0
C4 C 0.21339 0.15911 0.07818 0.0
C5 C 0.27836 0.25254 0.04341 0.0
O6 O 0.28106 0.2621 0.07698 0.0
O7 O 0.20101 0.20926 0.04546 0.0
O8 O 0.17084 0.18373 0.08093 0.0
O9 O 0.25453 0.22205 0.13426 0.0
O10 O 0.21581 0.20524 0.13436 0.0
C11 C 0.17892 0.19619 0.05144 0.0
C12 C 0.23498 0.21174 0.15273 0.0
O13 O 0.25931 0.23343 0.03576 0.0
Mg14 Mg 0.76836 0.01444 0.03266 0.0
O15 O 0.80727 0.04471 0.03648 0.0
O16 O 0.82573 0.03251 0.07505 0.0
Mg17 Mg 0.79988 0.99565 0.09618 0.0
C18 C 0.82587 0.04804 0.05344 0.0
C19 C 0.74263 0.03247 0.98195 0.0
O20 O 0.72751 0.02207 0.00921 0.0
O21 O 0.77862 0.99237 0.99495 0.0
O22 O 0.79649 0.98098 0.03656 0.0
O23 O 0.75815 0.02754 0.08433 0.0
O24 O 0.7705 0.00183 0.08518 0.0
C25 C 0.78913 0.98099 0.0034 0.0
C26 C 0.76331 0.014 0.10353 0.0
O27 O 0.76202 0.03251 0.98277 0.0
Mg28 Mg 0.99052 0.7934 0.9883 0.0
O29 O 0.99268 0.79323 0.05257 0.0
O30 O 0.9593 0.76219 0.07281 0.0
Mg31 Mg 0.93478 0.74473 0.02261 0.0
C32 C 0.97983 0.7799 0.07891 0.0
C33 C 0.03697 0.83605 0.96343 0.0
O34 O 0.02162 0.83716 0.94114 0.0
O35 O 0.99562 0.76136 0.985 0.0
O36 O 0.9603 0.73229 0.00337 0.0
O37 O 0.97475 0.81666 0.98895 0.0
O38 O 0.95398 0.77753 0.99006 0.0
C39 C 0.98121 0.73955 0.99163 0.0
C40 C 0.95439 0.79747 0.99029 0.0
O41 O 0.02978 0.81913 0.98647 0.0
Mg42 Mg 0.20435 0.2169 0.51152 0.0
O43 O 0.20809 0.21741 0.44745 0.0
O44 O 0.2057 0.24828 0.4263 0.0
Mg45 Mg 0.19677 0.26501 0.47542 0.0
C46 C 0.20889 0.23074 0.42086 0.0
C47 C 0.20806 0.17385 0.53535 0.0
O48 O 0.19013 0.17132 0.55529 0.0
O49 O 0.24098 0.2497 0.51759 0.0
O50 O 0.23406 0.27818 0.49824 0.0
O51 O 0.16534 0.19302 0.50824 0.0
O52 O 0.18313 0.23212 0.50772 0.0
C53 C 0.24784 0.27147 0.51147 0.0
C54 C 0.16384 0.21201 0.50623 0.0
O55 O 0.21878 0.19183 0.5145 0.0
Mg56 Mg 0.75632 0.00139 0.45284 0.0
O57 O 0.76414 0.97032 0.4513 0.0
O58 O 0.7933 0.98089 0.41002 0.0
Mg59 Mg 0.80435 0.01696 0.38531 0.0
C60 C 0.77862 0.96619 0.43339 0.0
C61 C 0.7124 0.96978 0.5027 0.0
O62 O 0.70424 0.96039 0.46941 0.0
O63 O 0.79012 0.02482 0.4869 0.0
O64 O 0.81778 0.03418 0.443 0.0
O65 O 0.73113 0.98633 0.4033 0.0
O66 O 0.76934 0.01089 0.39878 0.0
C67 C 0.81164 0.0357 0.47642 0.0
C68 C 0.74944 0.99797 0.38239 0.0
O69 O 0.73363 0.98663 0.50569 0.0
Mg70 Mg 0.02046 0.80342 0.41667 0.0
O71 O 0.05518 0.83885 0.42385 0.0
O72 O 0.053 0.86479 0.38608 0.0
Mg73 Mg 0.01842 0.8465 0.35317 0.0
C74 C 0.06392 0.85967 0.41051 0.0
C75 C 0.02906 0.76933 0.46407 0.0
O76 O 0.02141 0.75777 0.43204 0.0
O77 O 1.00022 0.81777 0.45048 0.0
O78 O 0.99802 0.84127 0.40737 0.0
O79 O 0.03455 0.79212 0.36776 0.0
O80 O 0.01621 0.81244 0.36253 0.0
C81 C 0.99284 0.83156 0.43955 0.0
C82 C 0.02688 0.80281 0.34659 0.0
O83 O 0.02997 0.78918 0.46806 0.0
Mg84 Mg 0.756 0.78556 0.90792 0.0
O85 O 0.79249 0.79245 0.92767 0.0
O86 O 0.79693 0.80625 0.98672 0.0
Mg87 Mg 0.76551 0.81016 0.00292 0.0
C88 C 0.80422 0.7997 0.95839 0.0
C89 C 0.73518 0.75514 0.83994 0.0
O90 O 0.71874 0.75872 0.85412 0.0
O91 O 0.73821 0.75294 0.94468 0.0
O92 O 0.7437 0.76942 0.00185 0.0
O93 O 0.77185 0.82233 0.88585 0.0
O94 O 0.7581 0.81189 0.94333 0.0
C95 C 0.73563 0.75122 0.9802 0.0
C96 C 0.76802 0.82829 0.91871 0.0
O97 O 0.7547 0.76352 0.85743 0.0
Mg98 Mg 0.25061 0.99054 0.95018 0.0
O99 O 0.24373 0.02065 0.97011 0.0
O100 O 0.22382 0.00651 0.02363 0.0
Mg101 Mg 0.21961 0.97108 0.0393 0.0
C102 C 0.23277 0.02245 0.99858 0.0
C103 C 0.27954 0.99659 0.8858 0.0
O104 O 0.27235 0.97584 0.90114 0.0
O105 O 0.28038 0.00249 0.9924 0.0
O106 O 0.25993 0.98886 0.04539 0.0
O107 O 0.21608 0.97213 0.92073 0.0
O108 O 0.22147 0.96536 0.97941 0.0
C109 C 0.27947 0.99946 0.02778 0.0
C110 C 0.20721 0.96124 0.95182 0.0
O111 O 0.27523 0.01122 0.90282 0.0
Mg112 Mg 0.02295 0.24023 0.96921 0.0
O113 O 0.99031 0.20535 0.98813 0.0
O114 O 0.99918 0.19932 0.04603 0.0
Mg115 Mg 0.03595 0.22857 0.06339 0.0
C116 C 0.98498 0.1932 0.01819 0.0
C117 C 0.01787 0.26428 0.90354 0.0
O118 O 0.03865 0.27831 0.91874 0.0
O119 O 0.01226 0.26132 0.00696 0.0
O120 O 0.0226 0.25521 0.06369 0.0
O121 O 0.04053 0.22096 0.94619 0.0
O122 O 0.04523 0.23522 0.00397 0.0
C123 C 0.01433 0.26497 0.04234 0.0
C124 C 0.05035 0.22425 0.97889 0.0
O125 O 0.00417 0.24472 0.91939 0.0
Mg126 Mg 0.79157 0.77677 0.51097 0.0
O127 O 0.78907 0.80966 0.49338 0.0
O128 O 0.80608 0.81861 0.43692 0.0
Mg129 Mg 0.82119 0.79505 0.4206 0.0
C130 C 0.79536 0.82229 0.46373 0.0
C131 C 0.76132 0.74741 0.57301 0.0
O132 O 0.77165 0.73634 0.55872 0.0
O133 O 0.76344 0.75369 0.46823 0.0
O134 O 0.78353 0.76299 0.41453 0.0
O135 O 0.82613 0.79875 0.54053 0.0
O136 O 0.82221 0.78873 0.48054 0.0
C137 C 0.76466 0.75048 0.43311 0.0
C138 C 0.83588 0.79975 0.50854 0.0
O139 O 0.76466 0.76629 0.55742 0.0
Mg140 Mg 0.2707 0.02162 0.545 0.0
O141 O 0.23474 0.99253 0.51974 0.0
O142 O 0.23294 0.0083 0.4652 0.0
Mg143 Mg 0.26514 0.04406 0.4546 0.0
C144 C 0.22405 0.99163 0.4891 0.0
C145 C 0.29092 0.01319 0.61031 0.0
O146 O 0.30577 0.03364 0.59522 0.0
O147 O 0.2905 0.01031 0.50576 0.0
O148 O 0.28734 0.02568 0.45184 0.0
O149 O 0.25334 0.03941 0.57221 0.0
O150 O 0.26866 0.04795 0.51549 0.0
C151 C 0.29476 0.0142 0.47087 0.0
C152 C 0.25705 0.05127 0.54166 0.0
O153 O 0.27192 0.9995 0.59258 0.0
Mg154 Mg 0.97932 0.23078 0.56465 0.0
O155 O 0.00839 0.22241 0.54774 0.0
O156 O 0.99996 0.20856 0.48861 0.0
Mg157 Mg 0.9658 0.20634 0.46961 0.0
C158 C 0.0131 0.21466 0.51777 0.0
C159 C 0.98655 0.25851 0.6345 0.0
O160 O 0.96596 0.25337 0.6206 0.0
O161 O 0.99627 0.26344 0.52797 0.0
O162 O 0.98634 0.24722 0.47053 0.0
O163 O 0.95718 0.19437 0.58678 0.0
O164 O 0.95522 0.20466 0.52853 0.0
C165 C 0.99653 0.26533 0.49237 0.0
C166 C 0.94804 0.18836 0.55351 0.0
O167 O 0.99916 0.25226 0.61604 0.0
Mg168 Mg 0.89656 0.55265 0.42318 0.0
O169 O 0.89648 0.51757 0.4182 0.0
O170 O 0.86869 0.4913 0.45605 0.0
Mg171 Mg 0.85168 0.50969 0.48688 0.0
C172 C 0.88492 0.4968 0.43188 0.0
C173 C 0.93343 0.58915 0.36967 0.0
O174 O 0.9306 0.60262 0.39431 0.0
O175 O 0.86236 0.53668 0.38833 0.0
O176 O 0.83645 0.51301 0.43104 0.0
O177 O 0.92195 0.56511 0.47171 0.0
O178 O 0.88331 0.54407 0.47739 0.0
C179 C 0.84121 0.52224 0.39847 0.0
C180 C 0.90373 0.55423 0.49311 0.0
O181 O 0.92068 0.56676 0.37221 0.0
Mg182 Mg 0.44071 0.34683 0.39183 0.0
O183 O 0.47877 0.37863 0.39098 0.0
O184 O 0.49944 0.37166 0.43362 0.0
Mg185 Mg 0.47587 0.3361 0.46094 0.0
C186 C 0.49803 0.38462 0.40837 0.0
C187 C 0.41094 0.34874 0.32594 0.0
O188 O 0.3963 0.32818 0.3409 0.0
O189 O 0.45281 0.32436 0.35853 0.0
O190 O 0.47249 0.31831 0.40428 0.0
O191 O 0.4306 0.36249 0.44051 0.0
O192 O 0.4449 0.3386 0.4465 0.0
C193 C 0.46477 0.31516 0.37061 0.0
C194 C 0.4374 0.35129 0.46226 0.0
O195 O 0.43166 0.36075 0.33945 0.0
Mg196 Mg 0.68302 0.14176 0.28658 0.0
O197 O 0.68152 0.14036 0.35147 0.0
O198 O 0.64525 0.11172 0.36681 0.0
Mg199 Mg 0.62519 0.09276 0.31365 0.0
C200 C 0.66585 0.12833 0.37589 0.0
C201 C 0.7293 0.18503 0.26468 0.0
O202 O 0.71376 0.18512 0.24156 0.0
O203 O 0.68864 0.10988 0.28526 0.0
O204 O 0.6527 0.08153 0.30277 0.0
O205 O 0.66622 0.16438 0.2859 0.0
O206 O 0.6464 0.12532 0.28238 0.0
C207 C 0.67393 0.08837 0.29338 0.0
C208 C 0.64613 0.14487 0.28406 0.0
O209 O 0.72238 0.16845 0.28845 0.0
Mg210 Mg 0.87635 0.55523 0.85276 0.0
O211 O 0.8844 0.55982 0.78973 0.0
O212 O 0.88676 0.59374 0.77225 0.0
Mg213 Mg 0.87893 0.61007 0.82305 0.0
C214 C 0.88799 0.57523 0.76488 0.0
C215 C 0.87157 0.50785 0.87386 0.0
O216 O 0.85434 0.50805 0.89229 0.0
O217 O 0.91424 0.58377 0.86704 0.0
O218 O 0.91336 0.61615 0.84939 0.0
O219 O 0.83761 0.5367 0.84117 0.0
O220 O 0.85985 0.57533 0.85009 0.0
C221 C 0.92414 0.6062 0.86319 0.0
C222 C 0.8394 0.55737 0.84291 0.0
O223 O 0.88507 0.52566 0.85408 0.0
Mg224 Mg 0.45262 0.36294 0.81263 0.0
O225 O 0.45774 0.33036 0.80811 0.0
O226 O 0.4859 0.33879 0.7658 0.0
Mg227 Mg 0.49906 0.37597 0.74344 0.0
C228 C 0.47077 0.32468 0.78925 0.0
C229 C 0.41116 0.32655 0.85889 0.0
O230 O 0.40823 0.31602 0.8261 0.0
O231 O 0.48691 0.3838 0.84714 0.0
O232 O 0.51326 0.39181 0.80164 0.0
O233 O 0.42673 0.34974 0.7645 0.0
O234 O 0.46515 0.37257 0.75808 0.0
C235 C 0.50822 0.39362 0.83567 0.0
C236 C 0.44472 0.36049 0.7427 0.0
O237 O 0.42922 0.34695 0.86407 0.0
Mg238 Mg 0.67391 0.12542 0.7242 0.0
O239 O 0.70582 0.16189 0.73838 0.0
O240 O 0.70169 0.18925 0.7077 0.0
Mg241 Mg 0.66746 0.17089 0.67408 0.0
C242 C 0.71312 0.18344 0.72994 0.0
C243 C 0.70428 0.11039 0.77284 0.0
O244 O 0.71933 0.12148 0.74579 0.0
O245 O 0.65042 0.13312 0.76262 0.0
O246 O 0.64705 0.1602 0.72916 0.0
O247 O 0.69129 0.12214 0.67117 0.0
O248 O 0.6685 0.13783 0.67395 0.0
C249 C 0.64237 0.14717 0.75802 0.0
C250 C 0.68135 0.1323 0.65415 0.0
O251 O 0.68429 0.10909 0.772 0.0
Mg252 Mg 0.43727 0.12252 0.26875 0.0
O253 O 0.47588 0.13099 0.27409 0.0
O254 O 0.48788 0.1474 0.33123 0.0
Mg255 Mg 0.45828 0.14927 0.36136 0.0
C256 C 0.49166 0.14036 0.29982 0.0
C257 C 0.41149 0.09733 0.20037 0.0
O258 O 0.39915 0.10537 0.21752 0.0
O259 O 0.42556 0.091 0.30662 0.0
O260 O 0.4365 0.10825 0.36316 0.0
O261 O 0.44812 0.15796 0.24536 0.0
O262 O 0.44416 0.14995 0.3059 0.0
C263 C 0.42642 0.08969 0.34219 0.0
C264 C 0.44978 0.16531 0.27966 0.0
O265 O 0.43004 0.1001 0.21632 0.0
Mg266 Mg 0.93847 0.3528 0.26718 0.0
O267 O 0.92349 0.3712 0.30361 0.0
O268 O 0.90137 0.34723 0.34929 0.0
Mg269 Mg 0.90396 0.31381 0.34389 0.0
C270 C 0.91024 0.3669 0.33211 0.0
C271 C 0.96285 0.39223 0.20542 0.0
O272 O 0.97529 0.41404 0.19324 0.0
O273 O 0.96632 0.36047 0.312 0.0
O274 O 0.94341 0.33645 0.3573 0.0
O275 O 0.90507 0.33523 0.2331 0.0
O276 O 0.91127 0.31965 0.28343 0.0
C277 C 0.96354 0.35207 0.34499 0.0
C278 C 0.89714 0.31829 0.25728 0.0
O279 O 0.9622 0.38844 0.24035 0.0
Mg280 Mg 0.69165 0.5579 0.26636 0.0
O281 O 0.65869 0.52787 0.2956 0.0
O282 O 0.67046 0.52741 0.35437 0.0
Mg283 Mg 0.70923 0.55461 0.36284 0.0
C284 C 0.65453 0.51958 0.32891 0.0
C285 C 0.66694 0.54629 0.18792 0.0
O286 O 0.67273 0.52975 0.18908 0.0
O287 O 0.68725 0.58586 0.29851 0.0
O288 O 0.7001 0.58403 0.35584 0.0
O289 O 0.70487 0.53345 0.24827 0.0
O290 O 0.71334 0.55278 0.30236 0.0
C291 C 0.69223 0.59314 0.33248 0.0
C292 C 0.71535 0.53813 0.28056 0.0
O293 O 0.67053 0.5593 0.21679 0.0
Mg294 Mg 0.45068 0.11884 0.85913 0.0
O295 O 0.45381 0.15417 0.84058 0.0
O296 O 0.46455 0.15768 0.78044 0.0
Mg297 Mg 0.46927 0.12674 0.76169 0.0
C298 C 0.45916 0.16542 0.80962 0.0
C299 C 0.42367 0.09632 0.92652 0.0
O300 O 0.42744 0.08095 0.90824 0.0
O301 O 0.41661 0.09753 0.82658 0.0
O302 O 0.42941 0.10039 0.76775 0.0
O303 O 0.48853 0.13704 0.87678 0.0
O304 O 0.47535 0.12155 0.82048 0.0
C305 C 0.4128 0.09195 0.79186 0.0
C306 C 0.49288 0.13245 0.84328 0.0
O307 O 0.43079 0.11654 0.91211 0.0
Mg308 Mg 0.90797 0.33746 0.90261 0.0
O309 O 0.87363 0.31243 0.86985 0.0
O310 O 0.87633 0.33073 0.81575 0.0
Mg311 Mg 0.9114 0.36485 0.81191 0.0
C312 C 0.86516 0.31343 0.83802 0.0
C313 C 0.91758 0.3128 0.96702 0.0
O314 O 0.93825 0.3235 0.95064 0.0
O315 O 0.92836 0.3246 0.86692 0.0
O316 O 0.92961 0.34263 0.81316 0.0
O317 O 0.89183 0.35778 0.92565 0.0
O318 O 0.91204 0.36683 0.87303 0.0
C319 C 0.93443 0.32924 0.83263 0.0
C320 C 0.89955 0.37099 0.89633 0.0
O321 O 0.89996 0.31094 0.94916 0.0
Mg322 Mg 0.66454 0.59378 0.88928 0.0
O323 O 0.69205 0.58333 0.87222 0.0
O324 O 0.67669 0.55736 0.8244 0.0
Mg325 Mg 0.64006 0.55105 0.8108 0.0
C326 C 0.69339 0.56965 0.84758 0.0
C327 C 0.69652 0.63323 0.9544 0.0
O328 O 0.71257 0.65511 0.96318 0.0
O329 O 0.6731 0.61612 0.83704 0.0
O330 O 0.6568 0.58963 0.79036 0.0
O331 O 0.6467 0.56291 0.92924 0.0
O332 O 0.63806 0.56113 0.86916 0.0
C333 C 0.66828 0.61106 0.80236 0.0
C334 C 0.63492 0.55037 0.90042 0.0
O335 O 0.69259 0.62721 0.91997 0.0
Mg336 Mg 0.56036 0.89049 0.77554 0.0
O337 O 0.55518 0.85373 0.76236 0.0
O338 O 0.52667 0.82759 0.7993 0.0
Mg339 Mg 0.51447 0.84743 0.83808 0.0
C340 C 0.5418 0.83254 0.77337 0.0
C341 C 0.6042 0.92037 0.7254 0.0
O342 O 0.6126 0.92909 0.75892 0.0
O343 O 0.52555 0.88054 0.74495 0.0
O344 O 0.49953 0.85691 0.78756 0.0
O345 O 0.58648 0.8971 0.82206 0.0
O346 O 0.54817 0.88011 0.83022 0.0
C347 C 0.50435 0.86801 0.75656 0.0
C348 C 0.56862 0.88703 0.84434 0.0
O349 O 0.58262 0.90441 0.72214 0.0
Mg350 Mg 0.09871 0.67561 0.71593 0.0
O351 O 0.1373 0.70688 0.71744 0.0
O352 O 0.15587 0.69856 0.76205 0.0
Mg353 Mg 0.13051 0.66352 0.78965 0.0
C354 C 0.15586 0.71207 0.7364 0.0
C355 C 0.09435 0.71027 0.66364 0.0
O356 O 0.10269 0.72259 0.69489 0.0
O357 O 0.11026 0.6516 0.68589 0.0
O358 O 0.12721 0.64425 0.73438 0.0
O359 O 0.0876 0.69218 0.76178 0.0
O360 O 0.1014 0.66808 0.77153 0.0
C361 C 0.12047 0.64112 0.70014 0.0
C362 C 0.09409 0.68147 0.78507 0.0
O363 O 0.09153 0.68951 0.66174 0.0
Mg364 Mg 0.32024 0.45932 0.65455 0.0
O365 O 0.32371 0.45551 0.71796 0.0
O366 O 0.2913 0.42259 0.73609 0.0
Mg367 Mg 0.26654 0.4067 0.68574 0.0
C368 C 0.31149 0.44058 0.74312 0.0
C369 C 0.3634 0.50458 0.63037 0.0
O370 O 0.34598 0.50415 0.61154 0.0
O371 O 0.32742 0.42912 0.6417 0.0
O372 O 0.29329 0.39798 0.65978 0.0
O373 O 0.30224 0.48006 0.66497 0.0
O374 O 0.28361 0.44115 0.65746 0.0
C375 C 0.31393 0.40682 0.64592 0.0
C376 C 0.28258 0.46007 0.66369 0.0
O377 O 0.35894 0.48743 0.65189 0.0
Mg378 Mg 0.555 0.88885 0.20937 0.0
O379 O 0.55756 0.88908 0.1444 0.0
O380 O 0.55616 0.92092 0.12524 0.0
Mg381 Mg 0.55009 0.93908 0.17525 0.0
C382 C 0.55837 0.90289 0.11849 0.0
C383 C 0.55402 0.84201 0.19522 0.0
O384 O 0.53681 0.83989 0.17368 0.0
O385 O 0.59288 0.92005 0.21326 0.0
O386 O 0.5875 0.9496 0.19411 0.0
O387 O 0.51572 0.86695 0.20848 0.0
O388 O 0.53551 0.90603 0.20677 0.0
C389 C 0.60074 0.94189 0.20602 0.0
C390 C 0.51552 0.88662 0.20642 0.0
O391 O 0.56641 0.86127 0.21336 0.0
Mg392 Mg 0.10627 0.67334 0.13347 0.0
O393 O 0.11009 0.64009 0.12794 0.0
O394 O 0.1379 0.64807 0.08523 0.0
Mg395 Mg 0.15186 0.68538 0.06321 0.0
C396 C 0.12283 0.63415 0.10888 0.0
C397 C 0.07111 0.6676 0.19473 0.0
O398 O 0.0756 0.68736 0.17827 0.0
O399 O 0.1408 0.69236 0.16801 0.0
O400 O 0.16648 0.69986 0.12152 0.0
O401 O 0.08094 0.66233 0.0842 0.0
O402 O 0.11945 0.68444 0.07997 0.0
C403 C 0.16195 0.70144 0.15593 0.0
C404 C 0.09932 0.67421 0.06349 0.0
O405 O 0.08227 0.65733 0.18417 0.0
Mg406 Mg 0.3463 0.45443 0.08478 0.0
O407 O 0.37895 0.49154 0.09164 0.0
O408 O 0.37273 0.51657 0.05788 0.0
Mg409 Mg 0.33703 0.49605 0.02864 0.0
C410 C 0.38552 0.51237 0.07985 0.0
C411 C 0.34983 0.41873 0.13749 0.0
O412 O 0.33247 0.4044 0.11505 0.0
O413 O 0.32493 0.46487 0.12321 0.0
O414 O 0.31888 0.48874 0.08588 0.0
O415 O 0.3609 0.44662 0.03312 0.0
O416 O 0.33914 0.46363 0.03263 0.0
C417 C 0.31596 0.47795 0.11687 0.0
C418 C 0.35115 0.4563 0.01427 0.0
O419 O 0.35915 0.44099 0.13327 0.0
Mg420 Mg 0.07509 0.43794 0.62177 0.0
O421 O 0.11312 0.44595 0.63314 0.0
O422 O 0.12343 0.4642 0.68929 0.0
Mg423 Mg 0.09309 0.46734 0.71354 0.0
C424 C 0.12801 0.45588 0.65998 0.0
C425 C 0.0538 0.41268 0.54999 0.0
O426 O 0.04088 0.42157 0.56192 0.0
O427 O 0.06164 0.40723 0.6624 0.0
O428 O 0.07163 0.4265 0.71751 0.0
O429 O 0.08777 0.47302 0.59515 0.0
O430 O 0.08125 0.46664 0.65584 0.0
C431 C 0.062 0.40723 0.6982 0.0
C432 C 0.08853 0.48139 0.62846 0.0
O433 O 0.07026 0.41455 0.57114 0.0
Mg434 Mg 0.56963 0.67304 0.58881 0.0
O435 O 0.56324 0.69967 0.62344 0.0
O436 O 0.54847 0.68144 0.67792 0.0
Mg437 Mg 0.54668 0.6459 0.68009 0.0
C438 C 0.5549 0.69904 0.65618 0.0
C439 C 0.57855 0.70274 0.51741 0.0
O440 O 0.55662 0.69677 0.52439 0.0
O441 O 0.60298 0.68322 0.62255 0.0
O442 O 0.58709 0.66556 0.67694 0.0
O443 O 0.53253 0.65448 0.56756 0.0
O444 O 0.54395 0.64463 0.61908 0.0
C445 C 0.60495 0.67807 0.6563 0.0
C446 C 0.52709 0.64121 0.59681 0.0
O447 O 0.59014 0.69924 0.5426 0.0
Mg448 Mg 0.34931 0.90886 0.64675 0.0
O449 O 0.31598 0.87391 0.66454 0.0
O450 O 0.32321 0.86976 0.72452 0.0
Mg451 Mg 0.35949 0.89903 0.74377 0.0
C452 C 0.30985 0.86265 0.69554 0.0
C453 C 0.34558 0.93392 0.58072 0.0
O454 O 0.36525 0.94866 0.59834 0.0
O455 O 0.3375 0.93026 0.68106 0.0
O456 O 0.34715 0.92648 0.73958 0.0
O457 O 0.36785 0.88999 0.62666 0.0
O458 O 0.36984 0.9031 0.68459 0.0
C459 C 0.33926 0.93543 0.71591 0.0
C460 C 0.3759 0.89231 0.66054 0.0
O461 O 0.33235 0.91359 0.59471 0.0
Mg462 Mg 0.12255 0.44245 0.2172 0.0
O463 O 0.12397 0.47631 0.19441 0.0
O464 O 0.13773 0.47976 0.13604 0.0
Mg465 Mg 0.14545 0.45022 0.12199 0.0
C466 C 0.13007 0.48704 0.16297 0.0
C467 C 0.09359 0.41956 0.28304 0.0
O468 O 0.10013 0.40533 0.26791 0.0
O469 O 0.09015 0.41947 0.18153 0.0
O470 O 0.10562 0.42352 0.12432 0.0
O471 O 0.15996 0.46295 0.2382 0.0
O472 O 0.14917 0.44628 0.18206 0.0
C473 C 0.08801 0.41449 0.14653 0.0
C474 C 0.16578 0.45831 0.20587 0.0
O475 O 0.09982 0.43923 0.26724 0.0
Mg476 Mg 0.59126 0.67263 0.21155 0.0
O477 O 0.55471 0.64813 0.18484 0.0
O478 O 0.55103 0.6672 0.13583 0.0
Mg479 Mg 0.58445 0.70294 0.12998 0.0
C480 C 0.54292 0.64918 0.1571 0.0
C481 C 0.59166 0.63918 0.2787 0.0
O482 O 0.59194 0.62022 0.28991 0.0
O483 O 0.60884 0.66401 0.16352 0.0
O484 O 0.6043 0.68341 0.11588 0.0
O485 O 0.57679 0.69126 0.24709 0.0
O486 O 0.59086 0.70199 0.1901 0.0
C487 C 0.61165 0.67019 0.1292 0.0
C488 C 0.58072 0.7049 0.21872 0.0
O489 O 0.5888 0.64136 0.24398 0.0
Mg490 Mg 0.32242 0.89561 0.24738 0.0
O491 O 0.35495 0.89131 0.23776 0.0
O492 O 0.3503 0.8762 0.17947 0.0
Mg493 Mg 0.31458 0.86724 0.1555 0.0
C494 C 0.36226 0.88441 0.20971 0.0
C495 C 0.32494 0.92702 0.31087 0.0
O496 O 0.3046 0.91996 0.29414 0.0
O497 O 0.33703 0.92604 0.20647 0.0
O498 O 0.32897 0.90741 0.15084 0.0
O499 O 0.3021 0.86023 0.27412 0.0
O500 O 0.3025 0.86637 0.21323 0.0
C501 C 0.33693 0.92636 0.17071 0.0
C502 C 0.29528 0.85165 0.24062 0.0
O503 O 0.33887 0.92087 0.29675 0.0
H504 H 0.40963 0.34393 0.92887 0.0
H505 H 0.28021 0.23605 0.97309 0.0
H506 H 0.37028 0.28391 0.85459 0.0
H507 H 0.32078 0.29362 0.05096 0.0
H508 H 0.31297 0.25372 0.92899 0.0
H509 H 0.3774 0.32594 0.97413 0.0
C510 C 0.3943 0.32693 0.92215 0.0
C511 C 0.39265 0.31546 0.88782 0.0
C512 C 0.31471 0.2625 0.95572 0.0
C513 C 0.35565 0.29485 0.93933 0.0
C514 C 0.29596 0.25244 0.98088 0.0
C515 C 0.29772 0.26335 0.0158 0.0
C516 C 0.33539 0.28368 0.96546 0.0
C517 C 0.31862 0.28456 0.02438 0.0
C518 C 0.37588 0.31669 0.94796 0.0
C519 C 0.37234 0.29346 0.88063 0.0
N520 N 0.33662 0.29403 -0.0006 0.0
N521 N 0.35464 0.28394 0.90606 0.0
H522 H 0.74516 0.10927 0.78254 0.0
H523 H 0.70254 0.03483 0.97243 0.0
H524 H 0.67749 0.08613 0.83343 0.0
H525 H 0.76982 0.05643 0.92122 0.0
H526 H 0.69338 0.05388 0.92193 0.0
H527 H 0.75478 0.0905 0.83317 0.0
C528 C 0.73231 0.10027 0.80435 0.0
C529 C 0.71045 0.09928 0.80364 0.0
C530 C 0.71015 0.05448 0.92167 0.0
C531 C 0.7214 0.07771 0.8618 0.0
C532 C 0.71542 0.04358 0.95055 0.0
C533 C 0.73701 0.04399 0.95113 0.0
C534 C 0.72656 0.06596 0.89298 0.0
C535 C 0.75296 0.05564 0.92194 0.0
C536 C 0.73783 0.08954 0.83327 0.0
C537 C 0.69454 0.08735 0.83274 0.0
N538 N 0.74742 0.06616 0.89408 0.0
N539 N 0.70033 0.07705 0.86056 0.0
H540 H 0.01031 0.7414 0.93515 0.0
H541 H 0.93906 0.6021 0.93254 0.0
H542 H 0.96579 0.69638 0.02327 0.0
H543 H 0.96043 0.64687 0.83547 0.0
H544 H 0.96714 0.63604 0.97078 0.0
H545 H 0.00992 0.70701 0.90611 0.0
C546 C 0.00118 0.72447 0.94914 0.0
C547 C 0.9874 0.72147 0.98093 0.0
C548 C 0.96642 0.63818 0.9408 0.0
C549 C 0.98693 0.6823 0.94802 0.0
C550 C 0.95054 0.61876 0.91891 0.0
C551 C 0.94707 0.62199 0.88113 0.0
C552 C 0.97872 0.66073 0.92453 0.0
C553 C 0.96231 0.64391 0.8648 0.0
C554 C 0.00095 0.70487 0.93253 0.0
C555 C 0.97607 0.69924 0.9981 0.0
N556 N 0.9771 0.66266 0.88679 0.0
N557 N 0.97568 0.68037 0.981 0.0
H558 H 0.33576 0.41048 0.57913 0.0
H559 H 0.27162 0.27062 0.57382 0.0
H560 H 0.30534 0.36462 0.67399 0.0
H561 H 0.27631 0.31504 0.48163 0.0
H562 H 0.30184 0.30578 0.60745 0.0
H563 H 0.3322 0.37678 0.54257 0.0
C564 C 0.32933 0.39358 0.59276 0.0
C565 C 0.32028 0.39007 0.62924 0.0
C566 C 0.29686 0.30767 0.57927 0.0
C567 C 0.31604 0.35167 0.58777 0.0
C568 C 0.27971 0.28761 0.55999 0.0
C569 C 0.27106 0.29012 0.5254 0.0
C570 C 0.30538 0.33019 0.5636 0.0
C571 C 0.28215 0.31251 0.50871 0.0
C572 C 0.32717 0.37434 0.57184 0.0
C573 C 0.31205 0.36784 0.64561 0.0
N574 N 0.29842 0.33179 0.5283 0.0
N575 N 0.30968 0.34933 0.62452 0.0
H576 H 0.65086 0.95446 0.72335 0.0
H577 H 0.66601 0.93491 0.50507 0.0
H578 H 0.59399 0.90407 0.65242 0.0
H579 H 0.72245 0.98641 0.5755 0.0
H580 H 0.63959 0.92299 0.55883 0.0
H581 H 0.6773 0.96621 0.66967 0.0
C582 C 0.64388 0.94589 0.69646 0.0
C583 C 0.6201 0.92822 0.69247 0.0
C584 C 0.65775 0.93687 0.56258 0.0
C585 C 0.65046 0.94159 0.6307 0.0
C586 C 0.67291 0.94368 0.53187 0.0
C587 C 0.69654 0.96174 0.53568 0.0
C588 C 0.66622 0.94817 0.59752 0.0
C589 C 0.70439 0.97242 0.57118 0.0
C590 C 0.65904 0.95261 0.66578 0.0
C591 C 0.61214 0.91779 0.65685 0.0
N592 N 0.68928 0.9655 0.60066 0.0
N593 N 0.62729 0.9246 0.6274 0.0
H594 H 0.02878 0.72726 0.46424 0.0
H595 H 0.09727 0.75348 0.66053 0.0
H596 H 0.05011 0.79041 0.5312 0.0
H597 H 0.07272 0.68849 0.59703 0.0
H598 H 0.08137 0.76781 0.61223 0.0
H599 H 0.04542 0.7131 0.51174 0.0
C600 C 0.03688 0.73813 0.48901 0.0
C601 C 0.03803 0.76009 0.49371 0.0
C602 C 0.0795 0.75044 0.60876 0.0
C603 C 0.05729 0.74398 0.54819 0.0
C604 C 0.08865 0.74224 0.63631 0.0
C605 C 0.08629 0.71968 0.63293 0.0
C606 C 0.06785 0.73602 0.57745 0.0
C607 C 0.07495 0.70598 0.60084 0.0
C608 C 0.04642 0.73003 0.51611 0.0
C609 C 0.04877 0.77337 0.5264 0.0
N610 N 0.06609 0.71434 0.5744 0.0
N611 N 0.05802 0.76513 0.55232 0.0
H612 H 0.6502 0.66732 0.15013 0.0
H613 H 0.69925 0.71145 0.94741 0.0
H614 H 0.60881 0.66328 0.05344 0.0
H615 H 0.73806 0.73757 0.05129 0.0
H616 H 0.6684 0.67738 0.98099 0.0
H617 H 0.68297 0.67519 0.10857 0.0
C618 C 0.64765 0.66708 0.12006 0.0
C619 C 0.62715 0.66552 0.10515 0.0
C620 C 0.68404 0.69022 0.99612 0.0
C621 C 0.66443 0.67471 0.05784 0.0
C622 C 0.70165 0.70963 0.97701 0.0
C623 C 0.72075 0.72773 0.99698 0.0
C624 C 0.68574 0.68901 0.03525 0.0
C625 C 0.72317 0.72435 0.03515 0.0
C626 C 0.6664 0.67169 0.09639 0.0
C627 C 0.62467 0.66514 0.06603 0.0
N628 N 0.70561 0.70562 0.05324 0.0
N629 N 0.64333 0.6703 0.0437 0.0
H630 H 0.34054 0.96677 0.20132 0.0
H631 H 0.31906 0.00106 -0.00014 0.0
H632 H 0.34741 0.93705 0.09659 0.0
H633 H 0.28871 0.00869 0.10267 0.0
H634 H 0.347 0.99504 0.03673 0.0
H635 H 0.33954 0.99836 0.16656 0.0
C636 C 0.34255 0.96725 0.17112 0.0
C637 C 0.34315 0.94875 0.15164 0.0
C638 C 0.33474 0.99885 0.05116 0.0
C639 C 0.34206 0.98479 0.11196 0.0
C640 C 0.31884 0.00238 0.03016 0.0
C641 C 0.30101 0.00447 0.04836 0.0
C642 C 0.33271 0.9975 0.0904 0.0
C643 C 0.30173 0.00634 0.08762 0.0
C644 C 0.34199 0.98531 0.15134 0.0
C645 C 0.34613 0.95054 0.1126 0.0
N646 N 0.31696 0.00227 0.10741 0.0
N647 N 0.34497 0.96794 0.09394 0.0
H648 H 0.07214 0.40579 0.07398 0.0
H649 H 0.00901 0.27311 0.11624 0.0
H650 H 0.05252 0.37848 0.18599 0.0
H651 H 0.01177 0.30017 0.00523 0.0
H652 H 0.01512 0.31031 0.14292 0.0
H653 H 0.04125 0.36797 0.04877 0.0
C654 C 0.06092 0.392 0.09331 0.0
C655 C 0.06539 0.39497 0.13204 0.0
C656 C 0.01377 0.30795 0.11273 0.0
C657 C 0.0304 0.35142 0.10341 0.0
C658 C 0.01033 0.28667 0.09747 0.0
C659 C 0.01076 0.28388 0.05845 0.0
C660 C 0.01828 0.32672 0.08877 0.0
C661 C 0.01192 0.30179 0.0355 0.0
C662 C 0.04321 0.37037 0.07892 0.0
C663 C 0.05 0.37675 0.15586 0.0
N664 N 0.01636 0.32274 0.05099 0.0
N665 N 0.03363 0.35546 0.14111 0.0
H666 H 0.68522 0.60492 0.40294 0.0
H667 H 0.75811 0.73935 0.35795 0.0
H668 H 0.69917 0.63063 0.28949 0.0
H669 H 0.72643 0.71317 0.466 0.0
H670 H 0.73137 0.7005 0.3303 0.0
H671 H 0.69431 0.64415 0.42491 0.0
C672 C 0.68971 0.61874 0.38256 0.0
C673 C 0.69187 0.61468 0.34445 0.0
C674 C 0.72989 0.70339 0.3599 0.0
C675 C 0.70289 0.65981 0.36945 0.0
C676 C 0.7452 0.7256 0.37575 0.0
C677 C 0.74496 0.72939 0.41457 0.0
C678 C 0.71452 0.68474 0.38314 0.0
C679 C 0.72757 0.711 0.43607 0.0
C680 C 0.69488 0.64115 0.39509 0.0
C681 C 0.69748 0.63309 0.31917 0.0
N682 N 0.71343 0.68932 0.42023 0.0
N683 N 0.7034 0.65506 0.33223 0.0
H684 H 0.33098 0.01154 0.50403 0.0
H685 H 0.39373 0.04773 0.30887 0.0
H686 H 0.29762 0.00493 0.39681 0.0
H687 H 0.42546 0.0782 0.41633 0.0
H688 H 0.36138 0.01448 0.34108 0.0
H689 H 0.36621 0.01709 0.47152 0.0
C690 C 0.33071 0.01034 0.47368 0.0
C691 C 0.31181 0.00881 0.45294 0.0
C692 C 0.37584 0.02807 0.35751 0.0
C693 C 0.35186 0.01515 0.41589 0.0
C694 C 0.39435 0.04712 0.33918 0.0
C695 C 0.41179 0.06636 0.36004 0.0
C696 C 0.3748 0.02838 0.39682 0.0
C697 C 0.4119 0.0642 0.39917 0.0
C698 C 0.35084 0.01355 0.45518 0.0
C699 C 0.31222 0.00695 0.41377 0.0
N700 N 0.39332 0.04587 0.41638 0.0
N701 N 0.33218 0.01073 0.39644 0.0
H702 H 0.00366 0.3529 0.32289 0.0
H703 H 0.00396 0.30677 0.52528 0.0
H704 H 0.96943 0.36153 0.41988 0.0
H705 H 0.01314 0.2781 0.42121 0.0
H706 H 0.01137 0.34257 0.49208 0.0
H707 H 0.0272 0.34304 0.3643 0.0
C708 C 0.00195 0.35388 0.353 0.0
C709 C 0.98411 0.35718 0.36815 0.0
C710 C 0.01247 0.32871 0.47683 0.0
C711 C 0.01052 0.3457 0.41526 0.0
C712 C 0.0082 0.30827 0.4957 0.0
C713 C 0.007 0.28909 0.47557 0.0
C714 C 0.01552 0.32983 0.43775 0.0
C715 C 0.01305 0.29216 0.43748 0.0
C716 C 0.01524 0.34807 0.37659 0.0
C717 C 0.98263 0.3584 0.40724 0.0
N718 N 0.01657 0.31192 0.41962 0.0
N719 N 0.99525 0.35207 0.42953 0.0
H720 H 0.04781 0.68739 0.22905 0.0
H721 H 0.95111 0.5672 0.32506 0.0
H722 H 0.0498 0.62234 0.22246 0.0
H723 H 0.96011 0.63595 0.3517 0.0
H724 H 0.98508 0.58622 0.2831 0.0
H725 H 0.01393 0.66811 0.27064 0.0
C726 C 0.04121 0.66907 0.23651 0.0
C727 C 0.05171 0.65648 0.22225 0.0
C728 C 0.97957 0.59711 0.2981 0.0
C729 C 0.01263 0.63416 0.26962 0.0
C730 C 0.96009 0.58625 0.32186 0.0
C731 C 0.95275 0.6 0.34198 0.0
C732 C 0.99166 0.62186 0.29416 0.0
C733 C 0.96516 0.62464 0.33687 0.0
C734 C 0.02183 0.65806 0.26027 0.0
C735 C 0.04234 0.63276 0.23292 0.0
N736 N 0.98395 0.63475 0.31348 0.0
N737 N 0.02324 0.62232 0.25579 0.0
H738 H 0.36923 0.32619 0.28721 0.0
H739 H 0.38944 0.44268 0.18176 0.0
H740 H 0.43344 0.39378 0.2973 0.0
H741 H 0.3315 0.3724 0.1575 0.0
H742 H 0.405 0.42566 0.22654 0.0
H743 H 0.35451 0.34325 0.24141 0.0
C744 C 0.38031 0.3446 0.27966 0.0
C745 C 0.40262 0.35856 0.29619 0.0
C746 C 0.38889 0.41398 0.21139 0.0
C747 C 0.38572 0.37833 0.24388 0.0
C748 C 0.37993 0.4237 0.18594 0.0
C749 C 0.35911 0.40896 0.1658 0.0
C750 C 0.37686 0.38937 0.21698 0.0
C751 C 0.34761 0.38447 0.17231 0.0
C752 C 0.37187 0.35435 0.25348 0.0
C753 C 0.41616 0.38233 0.28523 0.0
N754 N 0.3566 0.37547 0.19734 0.0
N755 N 0.40745 0.39149 0.25994 0.0
H756 H 0.63216 0.97801 0.16294 0.0
H757 H 0.66492 0.05169 0.3389 0.0
H758 H 0.62387 0.94716 0.27209 0.0
H759 H 0.69502 0.08197 0.23205 0.0
H760 H 0.66042 0.01397 0.3179 0.0
H761 H 0.66502 0.01503 0.18697 0.0
C762 C 0.63792 0.97883 0.19169 0.0
C763 C 0.62511 0.9598 0.21583 0.0
C764 C 0.6688 0.029 0.29935 0.0
C765 C 0.66186 0.00238 0.24412 0.0
C766 C 0.67142 0.05057 0.31146 0.0
C767 C 0.67987 0.0697 0.28682 0.0
C768 C 0.67374 0.02635 0.26183 0.0
C769 C 0.68817 0.06748 0.25169 0.0
C770 C 0.65666 0.99999 0.20552 0.0
C771 C 0.63323 0.9616 0.25273 0.0
N772 N 0.68415 0.0459 0.23969 0.0
N773 N 0.65062 0.98285 0.26617 0.0
H774 H 0.33613 0.94913 0.78776 0.0
H775 H 0.39478 0.07798 0.72075 0.0
H776 H 0.3352 0.96743 0.67197 0.0
H777 H 0.37845 0.05887 0.83698 0.0
H778 H 0.36444 0.03804 0.70231 0.0
H779 H 0.34245 0.98791 0.80684 0.0
C780 C 0.33673 0.96109 0.76637 0.0
C781 C 0.33601 0.95534 0.72817 0.0
C782 C 0.36704 0.04271 0.73186 0.0
C783 C 0.34385 0.99999 0.74974 0.0
C784 C 0.38438 0.06559 0.7424 0.0
C785 C 0.38978 0.07152 0.78047 0.0
C786 C 0.3555 0.02556 0.75961 0.0
C787 C 0.37532 0.05491 0.80727 0.0
C788 C 0.34034 0.98327 0.77727 0.0
C789 C 0.33628 0.97132 0.70174 0.0
N790 N 0.35935 0.03243 0.79636 0.0
N791 N 0.34089 0.99319 0.71296 0.0
H792 H 0.03309 0.36251 0.66843 0.0
H793 H 0.93369 0.31337 0.76163 0.0
H794 H 0.0599 0.39969 0.7739 0.0
H795 H 0.97321 0.33159 0.86504 0.0
H796 H 0.96833 0.31974 0.72773 0.0
H797 H 0.00316 0.32829 0.70255 0.0
C798 C 0.03292 0.36341 0.69878 0.0
C799 C 0.04827 0.3845 0.71821 0.0
C800 C 0.96946 0.32137 0.75798 0.0
C801 C 0.0135 0.34579 0.75723 0.0
C802 C 0.9495 0.31771 0.77737 0.0
C803 C 0.95088 0.32266 0.81592 0.0
C804 C 0.9911 0.33088 0.77725 0.0
C805 C 0.97161 0.328 0.83513 0.0
C806 C 0.01566 0.34388 0.71826 0.0
C807 C 0.04778 0.38421 0.75757 0.0
N808 N 0.99123 0.33288 0.81539 0.0
N809 N 0.03028 0.36543 0.77569 0.0
H810 H 0.6678 0.60944 0.72545 0.0
H811 H 0.62413 0.69652 0.72462 0.0
H812 H 0.6802 0.6569 0.81901 0.0
H813 H 0.63723 0.66997 0.62178 0.0
H814 H 0.65378 0.69072 0.7562 0.0
H815 H 0.66582 0.6378 0.68383 0.0
C816 C 0.67062 0.62606 0.73714 0.0
C817 C 0.67328 0.6304 0.77597 0.0
C818 C 0.65082 0.68686 0.72643 0.0
C819 C 0.67066 0.66281 0.72856 0.0
C820 C 0.63394 0.69027 0.70841 0.0
C821 C 0.62802 0.68325 0.67086 0.0
C822 C 0.66096 0.67535 0.70708 0.0
C823 C 0.6412 0.67535 0.65094 0.0
C824 C 0.66963 0.64236 0.71329 0.0
C825 C 0.67747 0.65251 0.78938 0.0
N826 N 0.65652 0.6708 0.66963 0.0
N827 N 0.67533 0.66759 0.76588 0.0
H828 H 0.26066 0.06845 0.97344 0.0
H829 H 0.18249 0.11175 0.08405 0.0
H830 H 0.19731 0.0235 0.03521 0.0
H831 H 0.24949 0.16127 0.03517 0.0
H832 H 0.18648 0.07923 0.05955 0.0
H833 H 0.2557 0.10265 0.98884 0.0
C834 C 0.24563 0.06574 0.98979 0.0
C835 C 0.22953 0.04317 0.00344 0.0
C836 C 0.20038 0.09717 0.05405 0.0
C837 C 0.22376 0.08188 0.021 0.0
C838 C 0.19812 0.11585 0.06815 0.0
C839 C 0.21579 0.13938 0.06205 0.0
C840 C 0.22054 0.10182 0.03368 0.0
C841 C 0.23548 0.1434 0.04076 0.0
C842 C 0.24287 0.08523 0.99872 0.0
C843 C 0.21038 0.04061 0.02455 0.0
N844 N 0.23742 0.12478 0.02749 0.0
N845 N 0.20811 0.05966 0.0327 0.0
H846 H 0.97044 0.15995 0.07295 0.0
H847 H 0.83684 0.08315 0.00133 0.0
H848 H 0.94579 0.17709 0.97228 0.0
H849 H 0.86708 0.06346 0.09186 0.0
H850 H 0.87549 0.11863 0.99127 0.0
H851 H 0.93171 0.12541 0.081 0.0
C852 C 0.95689 0.15645 0.0524 0.0
C853 C 0.96148 0.17156 0.02186 0.0
C854 C 0.87357 0.10649 0.01331 0.0
C855 C 0.91665 0.13171 0.03111 0.0
C856 C 0.85151 0.0863 0.01919 0.0
C857 C 0.84864 0.07021 0.04747 0.0
C858 C 0.89281 0.11066 0.03603 0.0
C859 C 0.86833 0.07521 0.06962 0.0
C860 C 0.93468 0.13662 0.05704 0.0
C861 C 0.94309 0.16592 0.99618 0.0
N862 N 0.88946 0.09491 0.06343 0.0
N863 N 0.92142 0.14647 0.00145 0.0
H864 H 0.83845 0.81027 0.90567 0.0
H865 H 0.91163 0.76691 0.02151 0.0
H866 H 0.82031 0.78842 0.02047 0.0
H867 H 0.94723 0.82984 0.9544 0.0
H868 H 0.87475 0.76756 0.01382 0.0
H869 H 0.87574 0.81044 0.91472 0.0
C870 C 0.84228 0.8054 0.93263 0.0
C871 C 0.82645 0.79946 0.96245 0.0
C872 C 0.89072 0.78123 0.00097 0.0
C873 C 0.86844 0.79913 0.97261 0.0
C874 C 0.91168 0.78087 0.00531 0.0
C875 C 0.93245 0.79843 0.98875 0.0
C876 C 0.89048 0.79881 0.97892 0.0
C877 C 0.9316 0.81614 0.96796 0.0
C878 C 0.8635 0.80562 0.9378 0.0
C879 C 0.8322 0.79332 0.9969 0.0
N880 N 0.91086 0.81571 0.96317 0.0
N881 N 0.85263 0.79307 0.00096 0.0
H882 H 0.12332 0.1796 0.53992 0.0
H883 H 0.04151 0.22448 0.4573 0.0
H884 H 0.1522 0.2418 0.47087 0.0
H885 H 0.03465 0.20307 0.57287 0.0
H886 H 0.07813 0.22324 0.45317 0.0
H887 H 0.08612 0.17995 0.54334 0.0
C888 C 0.1217 0.19311 0.52505 0.0
C889 C 0.1408 0.21073 0.50511 0.0
C890 C 0.06855 0.21879 0.47936 0.0
C891 C 0.0985 0.21104 0.50864 0.0
C892 C 0.04767 0.21938 0.48174 0.0
C893 C 0.03511 0.21386 0.51551 0.0
C894 C 0.07655 0.21198 0.51063 0.0
C895 C 0.04393 0.20755 0.54642 0.0
C896 C 0.10062 0.1934 0.52733 0.0
C897 C 0.13793 0.22801 0.4867 0.0
N898 N 0.06404 0.20651 0.54314 0.0
N899 N 0.11707 0.22763 0.48863 0.0
H900 H 0.80492 0.85093 0.40339 0.0
H901 H 0.75775 0.93304 0.48973 0.0
H902 H 0.77508 0.83929 0.51447 0.0
H903 H 0.79986 0.94801 0.3898 0.0
H904 H 0.76003 0.89679 0.49809 0.0
H905 H 0.79897 0.88436 0.39661 0.0
C906 C 0.79707 0.85535 0.42651 0.0
C907 C 0.79068 0.84223 0.45974 0.0
C908 C 0.7687 0.90808 0.47438 0.0
C909 C 0.78378 0.88107 0.452 0.0
C910 C 0.76735 0.9287 0.46951 0.0
C911 C 0.77872 0.94372 0.4391 0.0
C912 C 0.78128 0.9024 0.44841 0.0
C913 C 0.79094 0.9372 0.41384 0.0
C914 C 0.79368 0.87459 0.42257 0.0
C915 C 0.78038 0.84893 0.48842 0.0
N916 N 0.79185 0.91715 0.41908 0.0
N917 N 0.77731 0.86797 0.48395 0.0
H918 H 0.08877 0.9051 0.38555 0.0
H919 H 0.19881 0.9485 0.52545 0.0
H920 H 0.09271 0.85785 0.46542 0.0
H921 H 0.19493 0.98829 0.4323 0.0
H922 H 0.15942 0.91555 0.50791 0.0
H923 H 0.12708 0.93638 0.40655 0.0
C924 C 0.09768 0.90124 0.40756 0.0
C925 C 0.08742 0.87869 0.4236 0.0
C926 C 0.16734 0.93156 0.49145 0.0
C927 C 0.13176 0.9148 0.44802 0.0
C928 C 0.18976 0.95035 0.50146 0.0
C929 C 0.20032 0.97122 0.4803 0.0
C930 C 0.15548 0.93385 0.46032 0.0
C931 C 0.18775 0.97261 0.44948 0.0
C932 C 0.11968 0.91919 0.41957 0.0
C933 C 0.09997 0.87494 0.45214 0.0
N934 N 0.16614 0.9543 0.44058 0.0
N935 N 0.12153 0.89284 0.46349 0.0
H936 H 0.82539 0.97334 0.98758 0.0
H937 H 0.74333 0.84113 0.96438 0.0
H938 H 0.75241 0.94822 0.96167 0.0
H939 H 0.80328 0.87027 0.89059 0.0
H940 H 0.74942 0.88101 0.97449 0.0
H941 H 0.82138 0.93696 0.95924 0.0
C942 C 0.80878 0.96053 0.97471 0.0
C943 C 0.78921 0.96373 0.97666 0.0
C944 C 0.76118 0.87859 0.95604 0.0
C945 C 0.78433 0.92201 0.9462 0.0
C946 C 0.75793 0.85598 0.95064 0.0
C947 C 0.77292 0.85253 0.92678 0.0
C948 C 0.77995 0.89794 0.93838 0.0
C949 C 0.79139 0.87232 0.90923 0.0
C950 C 0.80651 0.93984 0.95877 0.0
C951 C 0.76795 0.94649 0.96027 0.0
N952 N 0.79468 0.89439 0.91587 0.0
N953 N 0.76585 0.92597 0.9467 0.0
H954 H 0.17246 0.95366 0.90202 0.0
H955 H 0.07235 0.8421 0.01107 0.0
H956 H 0.18401 0.93056 0.00892 0.0
H957 H 0.05859 0.87277 0.91443 0.0
H958 H 0.11357 0.87371 0.00993 0.0
H959 H 0.13075 0.92376 0.90562 0.0
C960 C 0.16618 0.9424 0.92639 0.0
C961 C 0.18171 0.94456 0.9552 0.0
C962 C 0.10151 0.87355 0.98903 0.0
C963 C 0.13405 0.91015 0.95933 0.0
C964 C 0.078 0.85545 0.98955 0.0
C965 C 0.06202 0.85476 0.96273 0.0
C966 C 0.10912 0.891 0.96134 0.0
C967 C 0.0703 0.87258 0.93563 0.0
C968 C 0.14237 0.92533 0.92843 0.0
C969 C 0.17262 0.92953 0.98614 0.0
N970 N 0.0933 0.88993 0.93556 0.0
N971 N 0.14939 0.91283 0.98727 0.0
H972 H 0.135 0.16127 0.02989 0.0
H973 H 0.08723 0.24665 0.02693 0.0
H974 H 0.1835 0.23637 0.02124 0.0
H975 H 0.05611 0.18908 0.94624 0.0
H976 H 0.12013 0.23955 0.03504 0.0
H977 H 0.10338 0.16729 0.00554 0.0
C978 C 0.13911 0.17889 0.02179 0.0
C979 C 0.16184 0.19838 0.02746 0.0
C980 C 0.10608 0.2285 0.01556 0.0
C981 C 0.1258 0.20537 0.00137 0.0
C982 C 0.08718 0.23231 0.01127 0.0
C983 C 0.0689 0.21832 0.98602 0.0
C984 C 0.1064 0.21017 0.99531 0.0
C985 C 0.06989 0.20019 0.96603 0.0
C986 C 0.1211 0.18228 0.00806 0.0
C987 C 0.16626 0.22088 0.01697 0.0
N988 N 0.08824 0.19635 0.97149 0.0
N989 N 0.14822 0.22388 0.00539 0.0
H990 H 0.96749 0.80593 0.501 0.0
H991 H 0.86273 0.82317 0.44816 0.0
H992 H 0.97653 0.86198 0.42722 0.0
H993 H 0.86729 0.80166 0.56036 0.0
H994 H 0.90455 0.83671 0.43948 0.0
H995 H 0.93129 0.80356 0.52483 0.0
C996 C 0.96226 0.81813 0.49049 0.0
C997 C 0.97483 0.8338 0.46143 0.0
C998 C 0.89651 0.8294 0.46625 0.0
C999 C 0.93336 0.83079 0.48792 0.0
C1000 C 0.87266 0.8216 0.4711 0.0
C1001 C 0.86165 0.81127 0.50493 0.0
C1002 C 0.90922 0.82615 0.49502 0.0
C1003 C 0.87527 0.80968 0.5339 0.0
C1004 C 0.94158 0.81671 0.50404 0.0
C1005 C 0.96718 0.84922 0.44901 0.0
N1006 N 0.8983 0.81657 0.52804 0.0
N1007 N 0.94669 0.84695 0.46166 0.0
H1008 H 0.19089 0.1351 0.58039 0.0
H1009 H 0.26736 0.08406 0.48646 0.0
H1010 H 0.24047 0.17046 0.49115 0.0
H1011 H 0.2271 0.05681 0.58789 0.0
H1012 H 0.25488 0.11365 0.48362 0.0
H1013 H 0.20153 0.10427 0.57991 0.0
C1014 C 0.20405 0.13641 0.56072 0.0
C1015 C 0.21487 0.15544 0.53587 0.0
C1016 C 0.24872 0.10111 0.50639 0.0
C1017 C 0.22704 0.12008 0.535 0.0
C1018 C 0.25573 0.08415 0.50791 0.0
C1019 C 0.24831 0.06801 0.53752 0.0
C1020 C 0.2341 0.10179 0.53457 0.0
C1021 C 0.23334 0.06898 0.56465 0.0
C1022 C 0.21012 0.11878 0.56045 0.0
C1023 C 0.23177 0.15616 0.51094 0.0
N1024 N 0.22677 0.0856 0.56255 0.0
N1025 N 0.23732 0.13871 0.5111 0.0
H1026 H 0.9415 0.14664 0.58197 0.0
H1027 H 0.80933 0.07021 0.51601 0.0
H1028 H 0.91025 0.17529 0.50807 0.0
H1029 H 0.856 0.04371 0.48928 0.0
H1030 H 0.84329 0.10714 0.53955 0.0
H1031 H 0.90716 0.1067 0.57114 0.0
C1032 C 0.92746 0.14448 0.56345 0.0
C1033 C 0.92871 0.16412 0.54549 0.0
C1034 C 0.84586 0.09288 0.52954 0.0
C1035 C 0.88938 0.1192 0.53472 0.0
C1036 C 0.82655 0.07177 0.51659 0.0
C1037 C 0.82998 0.05398 0.50085 0.0
C1038 C 0.8685 0.09581 0.52754 0.0
C1039 C 0.85274 0.05708 0.50136 0.0
C1040 C 0.90797 0.12185 0.5575 0.0
C1041 C 0.91005 0.16052 0.52199 0.0
N1042 N 0.87127 0.07773 0.51437 0.0
N1043 N 0.89098 0.1385 0.51762 0.0
H1044 H 0.91551 0.50017 0.37658 0.0
H1045 H 0.8821 0.36443 0.39082 0.0
H1046 H 0.8651 0.45079 0.45522 0.0
H1047 H 0.9285 0.41233 0.3067 0.0
H1048 H 0.87639 0.39613 0.41574 0.0
H1049 H 0.92159 0.46859 0.35211 0.0
C1050 C 0.90579 0.48274 0.38886 0.0
C1051 C 0.88972 0.47817 0.41801 0.0
C1052 C 0.88779 0.39969 0.39178 0.0
C1053 C 0.89655 0.44187 0.38992 0.0
C1054 C 0.89104 0.38157 0.37747 0.0
C1055 C 0.90582 0.38567 0.34657 0.0
C1056 C 0.89943 0.42214 0.3752 0.0
C1057 C 0.91692 0.4083 0.33052 0.0
C1058 C 0.90923 0.46468 0.37476 0.0
C1059 C 0.87763 0.45518 0.4327 0.0
N1060 N 0.91354 0.42567 0.34508 0.0
N1061 N 0.88128 0.43791 0.41848 0.0
H1062 H 0.6138 0.4982 0.28572 0.0
H1063 H 0.53892 0.40796 0.44846 0.0
H1064 H 0.64048 0.49731 0.39613 0.0
H1065 H 0.5073 0.41087 0.34393 0.0
H1066 H 0.57611 0.44141 0.42884 0.0
H1067 H 0.57462 0.46662 0.3052 0.0
C1068 C 0.61148 0.49142 0.31395 0.0
C1069 C 0.63057 0.50044 0.33923 0.0
C1070 C 0.56107 0.4349 0.41015 0.0
C1071 C 0.58589 0.46448 0.36163 0.0
C1072 C 0.53975 0.41574 0.42139 0.0
C1073 C 0.51993 0.40648 0.39776 0.0
C1074 C 0.56284 0.44493 0.37476 0.0
C1075 C 0.52213 0.41748 0.36308 0.0
C1076 C 0.58911 0.47347 0.32507 0.0
C1077 C 0.62644 0.491 0.37551 0.0
N1078 N 0.54329 0.43603 0.35245 0.0
N1079 N 0.60468 0.4736 0.38547 0.0
H1080 H 0.53314 0.17196 0.33369 0.0
H1081 H 0.60262 0.10852 0.26437 0.0
H1082 H 0.50346 0.11414 0.25333 0.0
H1083 H 0.63828 0.18088 0.30499 0.0
H1084 H 0.56535 0.10843 0.26506 0.0
H1085 H 0.57116 0.17398 0.32794 0.0
C1086 C 0.53465 0.15975 0.31468 0.0
C1087 C 0.51507 0.14278 0.29403 0.0
C1088 C 0.58134 0.12435 0.27368 0.0
C1089 C 0.55851 0.14484 0.28774 0.0
C1090 C 0.6026 0.12438 0.27356 0.0
C1091 C 0.62357 0.14473 0.28481 0.0
C1092 C 0.58096 0.14468 0.2857 0.0
C1093 C 0.62252 0.16482 0.29612 0.0
C1094 C 0.55639 0.16098 0.31135 0.0
C1095 C 0.51811 0.12752 0.26966 0.0
N1096 N 0.60152 0.16424 0.29658 0.0
N1097 N 0.53938 0.12872 0.26751 0.0
H1098 H 0.83666 0.59708 0.85732 0.0
H1099 H 0.69932 0.53611 0.81055 0.0
H1100 H 0.79469 0.52422 0.82037 0.0
H1101 H 0.73678 0.59933 0.87922 0.0
H1102 H 0.73518 0.53373 0.8063 0.0
H1103 H 0.80134 0.60059 0.85695 0.0
C1104 C 0.82007 0.58189 0.84867 0.0
C1105 C 0.8186 0.56029 0.83891 0.0
C1106 C 0.73553 0.54811 0.8223 0.0
C1107 C 0.77811 0.56419 0.83868 0.0
C1108 C 0.71509 0.54953 0.82471 0.0
C1109 C 0.71501 0.56795 0.84535 0.0
C1110 C 0.75618 0.56536 0.84028 0.0
C1111 C 0.73598 0.58476 0.86317 0.0
C1112 C 0.79989 0.58387 0.84875 0.0
C1113 C 0.7966 0.54118 0.82818 0.0
N1114 N 0.75575 0.58312 0.8601 0.0
N1115 N 0.77719 0.54357 0.82838 0.0
H1116 H 0.47534 0.19654 0.75159 0.0
H1117 H 0.44518 0.29073 0.84223 0.0
H1118 H 0.44478 0.18716 0.86182 0.0
H1119 H 0.49052 0.30425 0.74673 0.0
H1120 H 0.4416 0.25155 0.84825 0.0
H1121 H 0.47744 0.23465 0.74751 0.0
C1122 C 0.46898 0.20242 0.775 0.0
C1123 C 0.4599 0.18851 0.80717 0.0
C1124 C 0.45234 0.26318 0.82608 0.0
C1125 C 0.46231 0.23256 0.80257 0.0
C1126 C 0.45437 0.28551 0.82255 0.0
C1127 C 0.46821 0.3009 0.79394 0.0
C1128 C 0.46403 0.25613 0.80057 0.0
C1129 C 0.47971 0.29314 0.76931 0.0
C1130 C 0.47028 0.22433 0.77266 0.0
C1131 C 0.45199 0.19729 0.83652 0.0
N1132 N 0.47729 0.27137 0.77314 0.0
N1133 N 0.45334 0.21876 0.8335 0.0
H1134 H 0.73594 0.23072 0.71443 0.0
H1135 H 0.83909 0.26817 0.86604 0.0
H1136 H 0.74079 0.17968 0.78447 0.0
H1137 H 0.83807 0.31434 0.78104 0.0
H1138 H 0.80148 0.23598 0.84113 0.0
H1139 H 0.77194 0.26204 0.74295 0.0
C1140 C 0.74457 0.22605 0.73582 0.0
C1141 C 0.73529 0.20246 0.74694 0.0
C1142 C 0.80955 0.25321 0.8281 0.0
C1143 C 0.77674 0.23848 0.77998 0.0
C1144 C 0.83092 0.27159 0.84239 0.0
C1145 C 0.84183 0.29396 0.82549 0.0
C1146 C 0.79901 0.25738 0.79699 0.0
C1147 C 0.83048 0.29738 0.79484 0.0
C1148 C 0.7652 0.244 0.75213 0.0
C1149 C 0.74735 0.1976 0.77489 0.0
N1150 N 0.80978 0.27933 0.78165 0.0
N1151 N 0.76747 0.21548 0.79051 0.0
H1152 H 0.47112 0.19109 0.34316 0.0
H1153 H 0.44032 0.29057 0.30692 0.0
H1154 H 0.44413 0.19585 0.23525 0.0
H1155 H 0.49646 0.30063 0.38167 0.0
H1156 H 0.44065 0.25614 0.27893 0.0
H1157 H 0.47924 0.23108 0.35847 0.0
C1158 C 0.46704 0.20062 0.32263 0.0
C1159 C 0.45685 0.19017 0.28803 0.0
C1160 C 0.45317 0.26626 0.30097 0.0
C1161 C 0.46579 0.23575 0.30542 0.0
C1162 C 0.45305 0.28593 0.31683 0.0
C1163 C 0.46803 0.29818 0.34721 0.0
C1164 C 0.46816 0.25882 0.31602 0.0
C1165 C 0.4842 0.29139 0.3589 0.0
C1166 C 0.4718 0.22349 0.33123 0.0
C1167 C 0.45208 0.20339 0.26225 0.0
N1168 N 0.48352 0.27193 0.34381 0.0
N1169 N 0.45622 0.2254 0.27169 0.0
H1170 H 0.86057 0.31285 0.21254 0.0
H1171 H 0.76634 0.19069 0.30809 0.0
H1172 H 0.87737 0.27881 0.30069 0.0
H1173 H 0.74907 0.22316 0.218 0.0
H1174 H 0.80723 0.22296 0.30551 0.0
H1175 H 0.81964 0.28016 0.21359 0.0
C1176 C 0.85566 0.29854 0.23211 0.0
C1177 C 0.87237 0.2987 0.25681 0.0
C1178 C 0.79451 0.22302 0.28625 0.0
C1179 C 0.82568 0.26127 0.25816 0.0
C1180 C 0.77114 0.20458 0.28773 0.0
C1181 C 0.75424 0.20421 0.26325 0.0
C1182 C 0.80104 0.24127 0.26014 0.0
C1183 C 0.7615 0.2227 0.23744 0.0
C1184 C 0.83231 0.2799 0.23273 0.0
C1185 C 0.86506 0.27964 0.28149 0.0
N1186 N 0.78433 0.24048 0.23659 0.0
N1187 N 0.8423 0.26177 0.28157 0.0
H1188 H 0.79438 0.49293 0.412 0.0
H1189 H 0.74793 0.53439 0.23831 0.0
H1190 H 0.84182 0.54117 0.32912 0.0
H1191 H 0.71693 0.52034 0.34837 0.0
H1192 H 0.77779 0.52523 0.26148 0.0
H1193 H 0.76134 0.49092 0.37789 0.0
C1194 C 0.79791 0.50285 0.3863 0.0
C1195 C 0.82109 0.51769 0.3739 0.0
C1196 C 0.76415 0.52375 0.28023 0.0
C1197 C 0.78305 0.5152 0.33462 0.0
C1198 C 0.74707 0.52876 0.26704 0.0
C1199 C 0.73017 0.52823 0.29167 0.0
C1200 C 0.76379 0.51764 0.31795 0.0
C1201 C 0.72987 0.52117 0.3287 0.0
C1202 C 0.77896 0.50166 0.36691 0.0
C1203 C 0.82432 0.52976 0.34001 0.0
N1204 N 0.74648 0.51617 0.34076 0.0
N1205 N 0.80549 0.52847 0.32169 0.0
H1206 H 0.63805 0.18397 0.78514 0.0
H1207 H 0.50286 0.10797 0.79181 0.0
H1208 H 0.60443 0.10773 0.78529 0.0
H1209 H 0.53599 0.16518 0.87284 0.0
H1210 H 0.54104 0.11125 0.77993 0.0
H1211 H 0.60216 0.18103 0.81174 0.0
C1212 C 0.62334 0.16667 0.79185 0.0
C1213 C 0.62411 0.14604 0.78322 0.0
C1214 C 0.5399 0.12307 0.80028 0.0
C1215 C 0.58304 0.14262 0.81177 0.0
C1216 C 0.51824 0.12146 0.8067 0.0
C1217 C 0.51635 0.13644 0.83319 0.0
C1218 C 0.55991 0.14018 0.81972 0.0
C1219 C 0.5368 0.15338 0.85211 0.0
C1220 C 0.60294 0.16504 0.80683 0.0
C1221 C 0.60456 0.12403 0.79192 0.0
N1222 N 0.55792 0.15503 0.84466 0.0
N1223 N 0.58453 0.12285 0.80482 0.0
H1224 H 0.84733 0.46846 0.91687 0.0
H1225 H 0.91756 0.40538 0.84265 0.0
H1226 H 0.9032 0.49982 0.83548 0.0
H1227 H 0.86933 0.3802 0.93578 0.0
H1228 H 0.91003 0.43825 0.83541 0.0
H1229 H 0.85291 0.43431 0.92026 0.0
C1230 C 0.86078 0.46818 0.89968 0.0
C1231 C 0.87489 0.4871 0.87596 0.0
C1232 C 0.90103 0.42547 0.85732 0.0
C1233 C 0.88131 0.44791 0.87963 0.0
C1234 C 0.90523 0.40664 0.86136 0.0
C1235 C 0.89407 0.39004 0.8899 0.0
C1236 C 0.8855 0.42765 0.88192 0.0
C1237 C 0.87838 0.39262 0.91347 0.0
C1238 C 0.86396 0.44864 0.90164 0.0
C1239 C 0.892 0.48568 0.85427 0.0
N1240 N 0.8746 0.41109 0.90899 0.0
N1241 N 0.89473 0.46641 0.85663 0.0
H1242 H 0.60005 0.52522 0.95115 0.0
H1243 H 0.55427 0.40589 0.8309 0.0
H1244 H 0.63406 0.51705 0.85346 0.0
H1245 H 0.50725 0.42078 0.89462 0.0
H1246 H 0.58773 0.44166 0.85701 0.0
H1247 H 0.57005 0.48273 0.94661 0.0
C1248 C 0.60145 0.51434 0.92931 0.0
C1249 C 0.61924 0.52453 0.90229 0.0
C1250 C 0.57012 0.43686 0.86591 0.0
C1251 C 0.58555 0.47635 0.89728 0.0
C1252 C 0.551 0.41638 0.85118 0.0
C1253 C 0.52791 0.41061 0.86 0.0
C1254 C 0.5662 0.45184 0.88953 0.0
C1255 C 0.52477 0.42468 0.88685 0.0
C1256 C 0.58435 0.49023 0.92665 0.0
C1257 C 0.62035 0.50988 0.87441 0.0
N1258 N 0.54373 0.44499 0.90013 0.0
N1259 N 0.6037 0.48657 0.87256 0.0
H1260 H 0.57378 0.74427 0.62769 0.0
H1261 H 0.51849 0.78564 0.79192 0.0
H1262 H 0.53049 0.69966 0.71742 0.0
H1263 H 0.56894 0.83467 0.71297 0.0
H1264 H 0.52109 0.75354 0.76151 0.0
H1265 H 0.57049 0.77727 0.65493 0.0
C1266 C 0.56352 0.74136 0.65291 0.0
C1267 C 0.55252 0.71917 0.67037 0.0
C1268 C 0.53164 0.77131 0.75077 0.0
C1269 C 0.5487 0.75668 0.70154 0.0
C1270 C 0.53015 0.78971 0.76818 0.0
C1271 C 0.54356 0.81297 0.75512 0.0
C1272 C 0.5466 0.77605 0.71989 0.0
C1273 C 0.55834 0.81703 0.72412 0.0
C1274 C 0.56172 0.7602 0.6685 0.0
C1275 C 0.53947 0.71644 0.70304 0.0
N1276 N 0.55945 0.79874 0.70753 0.0
N1277 N 0.53796 0.73491 0.71747 0.0
H1278 H 0.19706 0.73029 0.77572 0.0
H1279 H 0.27205 0.84312 0.6458 0.0
H1280 H 0.16604 0.74475 0.68007 0.0
H1281 H 0.29481 0.83134 0.75306 0.0
H1282 H 0.234 0.80639 0.65411 0.0
H1283 H 0.23388 0.76637 0.76398 0.0
C1284 C 0.19794 0.74104 0.75215 0.0
C1285 C 0.17827 0.73436 0.7289 0.0
C1286 C 0.2474 0.81196 0.67572 0.0
C1287 C 0.22089 0.77617 0.71518 0.0
C1288 C 0.26912 0.83286 0.67097 0.0
C1289 C 0.28672 0.84044 0.69879 0.0
C1290 C 0.24341 0.79853 0.70833 0.0
C1291 C 0.28188 0.82642 0.73085 0.0
C1292 C 0.21908 0.76178 0.74547 0.0
C1293 C 0.18071 0.74921 0.6988 0.0
N1294 N 0.26083 0.80627 0.73462 0.0
N1295 N 0.20167 0.76944 0.69274 0.0
H1296 H 0.27414 0.49498 0.68819 0.0
H1297 H 0.14035 0.42815 0.61839 0.0
H1298 H 0.23909 0.42331 0.64447 0.0
H1299 H 0.16814 0.48614 0.69848 0.0
H1300 H 0.17799 0.42876 0.62061 0.0
H1301 H 0.23654 0.49431 0.68649 0.0
C1302 C 0.2585 0.47904 0.67855 0.0
C1303 C 0.25971 0.45915 0.66656 0.0
C1304 C 0.17579 0.44135 0.63762 0.0
C1305 C 0.21682 0.45845 0.66379 0.0
C1306 C 0.15442 0.44114 0.63613 0.0
C1307 C 0.15109 0.45707 0.65836 0.0
C1308 C 0.19403 0.45784 0.66105 0.0
C1309 C 0.16988 0.47343 0.68105 0.0
C1310 C 0.23708 0.47868 0.67752 0.0
C1311 C 0.23891 0.43899 0.65419 0.0
N1312 N 0.19054 0.47344 0.68173 0.0
N1313 N 0.21834 0.43922 0.6528 0.0
H1314 H 0.38318 0.87558 0.26911 0.0
H1315 H 0.50573 0.9176 0.17042 0.0
H1316 H 0.39414 0.89749 0.1536 0.0
H1317 H 0.47469 0.85618 0.2413 0.0
H1318 H 0.46864 0.91821 0.17247 0.0
H1319 H 0.42111 0.87638 0.26852 0.0
C1320 C 0.3937 0.88081 0.24386 0.0
C1321 C 0.38559 0.88636 0.2113 0.0
C1322 C 0.47005 0.90465 0.18754 0.0
C1323 C 0.42873 0.88769 0.21066 0.0
C1324 C 0.49114 0.90431 0.18644 0.0
C1325 C 0.49315 0.88675 0.20558 0.0
C1326 C 0.4512 0.88776 0.20885 0.0
C1327 C 0.4737 0.86985 0.22584 0.0
C1328 C 0.41515 0.88111 0.24347 0.0
C1329 C 0.39975 0.89291 0.17917 0.0
N1330 N 0.45357 0.87091 0.22731 0.0
N1331 N 0.42074 0.89357 0.1797 0.0
H1332 H 0.14085 0.61234 0.06574 0.0
H1333 H 0.11094 0.50728 0.20922 0.0
H1334 H 0.10192 0.60342 0.16773 0.0
H1335 H 0.14428 0.51548 0.10162 0.0
H1336 H 0.1073 0.5422 0.19591 0.0
H1337 H 0.14164 0.57637 0.07933 0.0
C1338 C 0.13233 0.60275 0.09097 0.0
C1339 C 0.12137 0.61104 0.11568 0.0
C1340 C 0.11537 0.53626 0.17529 0.0
C1341 C 0.1224 0.56961 0.13171 0.0
C1342 C 0.11753 0.51639 0.18291 0.0
C1343 C 0.12796 0.50836 0.15656 0.0
C1344 C 0.12377 0.54819 0.14116 0.0
C1345 C 0.13609 0.52086 0.12288 0.0
C1346 C 0.1328 0.58213 0.09876 0.0
C1347 C 0.11053 0.59767 0.14784 0.0
N1348 N 0.13385 0.54006 0.11626 0.0
N1349 N 0.11145 0.57768 0.15508 0.0
H1350 H 0.52081 0.60461 0.18805 0.0
H1351 H 0.40634 0.55851 0.05768 0.0
H1352 H 0.51101 0.64719 0.10597 0.0
H1353 H 0.4173 0.51225 0.13024 0.0
H1354 H 0.44399 0.59155 0.07814 0.0
H1355 H 0.48219 0.57097 0.1705 0.0
C1356 C 0.51054 0.60695 0.16651 0.0
C1357 C 0.51926 0.62878 0.14838 0.0
C1358 C 0.43822 0.57419 0.08963 0.0
C1359 C 0.47516 0.59042 0.12821 0.0
C1360 C 0.41665 0.55525 0.07794 0.0
C1361 C 0.40858 0.53247 0.09216 0.0
C1362 C 0.45196 0.5705 0.11588 0.0
C1363 C 0.42282 0.52947 0.11841 0.0
C1364 C 0.48854 0.58772 0.15644 0.0
C1365 C 0.50516 0.63073 0.12063 0.0
N1366 N 0.44384 0.54828 0.12945 0.0
N1367 N 0.4839 0.61184 0.11144 0.0
H1368 H 0.09566 0.61628 0.63687 0.0
H1369 H 0.11045 0.50833 0.69083 0.0
H1370 H 0.1481 0.62227 0.71629 0.0
H1371 H 0.08682 0.51244 0.57973 0.0
H1372 H 0.12287 0.55004 0.70135 0.0
H1373 H 0.09151 0.57869 0.61398 0.0
C1374 C 0.10673 0.61007 0.64881 0.0
C1375 C 0.1219 0.62221 0.67906 0.0
C1376 C 0.11516 0.54189 0.67451 0.0
C1377 C 0.11682 0.57919 0.65374 0.0
C1378 C 0.10789 0.51802 0.66866 0.0
C1379 C 0.09744 0.50691 0.63452 0.0
C1380 C 0.11146 0.5546 0.64634 0.0
C1381 C 0.09485 0.52043 0.60648 0.0
C1382 C 0.10425 0.58857 0.63589 0.0
C1383 C 0.13579 0.61328 0.69347 0.0
N1384 N 0.10147 0.54353 0.61319 0.0
N1385 N 0.13257 0.59212 0.68122 0.0
H1386 H 0.40322 0.513 0.66861 0.0
H1387 H 0.48731 0.63278 0.55908 0.0
H1388 H 0.37858 0.54277 0.58457 0.0
H1389 H 0.51103 0.60702 0.65059 0.0
H1390 H 0.44723 0.60004 0.56849 0.0
H1391 H 0.44289 0.54725 0.66252 0.0
C1392 C 0.40615 0.52671 0.64886 0.0
C1393 C 0.38756 0.52499 0.627 0.0
C1394 C 0.46117 0.60163 0.58669 0.0
C1395 C 0.43286 0.56421 0.61994 0.0
C1396 C 0.48406 0.62033 0.58134 0.0
C1397 C 0.50253 0.62263 0.60408 0.0
C1398 C 0.45675 0.58498 0.6148 0.0
C1399 C 0.4973 0.60599 0.6325 0.0
C1400 C 0.42878 0.54629 0.64548 0.0
C1401 C 0.39236 0.54333 0.60197 0.0
N1402 N 0.47491 0.58779 0.63692 0.0
N1403 N 0.41454 0.56213 0.59906 0.0
H1404 H 0.40379 0.88396 0.61331 0.0
H1405 H 0.50497 0.888 0.68815 0.0
H1406 H 0.3866 0.88312 0.73031 0.0
H1407 H 0.45855 0.84796 0.77855 0.0
H1408 H 0.47258 0.89109 0.65971 0.0
H1409 H 0.43488 0.87545 0.63096 0.0
C1410 C 0.40639 0.88174 0.64268 0.0
C1411 C 0.39271 0.88443 0.67047 0.0
C1412 C 0.46943 0.8812 0.68533 0.0
C1413 C 0.4283 0.875 0.69075 0.0
C1414 C 0.48795 0.87954 0.70169 0.0
C1415 C 0.4846 0.8678 0.73591 0.0
C1416 C 0.44757 0.87127 0.70363 0.0
C1417 C 0.46211 0.85726 0.75224 0.0
C1418 C 0.42431 0.87719 0.6527 0.0
C1419 C 0.39686 0.88143 0.70803 0.0
N1420 N 0.44465 0.85958 0.73629 0.0
N1421 N 0.41423 0.8768 0.71705 0.0
H1422 H 0.20771 0.49644 0.23041 0.0
H1423 H 0.2842 0.44119 0.15912 0.0
H1424 H 0.17868 0.43198 0.16434 0.0
H1425 H 0.30723 0.51393 0.13231 0.0
H1426 H 0.2487 0.43782 0.18777 0.0
H1427 H 0.24768 0.50325 0.21766 0.0
C1428 C 0.20978 0.48379 0.21333 0.0
C1429 C 0.19002 0.46381 0.19792 0.0
C1430 C 0.26193 0.45468 0.17653 0.0
C1431 C 0.23498 0.47081 0.18509 0.0
C1432 C 0.28223 0.45669 0.16051 0.0
C1433 C 0.2985 0.47781 0.14307 0.0
C1434 C 0.25825 0.47407 0.17583 0.0
C1435 C 0.29493 0.49729 0.14524 0.0
C1436 C 0.23242 0.48762 0.20627 0.0
C1437 C 0.1935 0.44779 0.17624 0.0
N1438 N 0.27503 0.49493 0.16106 0.0
N1439 N 0.21552 0.45152 0.17076 0.0
H1440 H 0.58101 0.8362 0.24825 0.0
H1441 H 0.55844 0.71346 0.1621 0.0
H1442 H 0.53497 0.80116 0.15361 0.0
H1443 H 0.58624 0.73676 0.27376 0.0
H1444 H 0.55117 0.74649 0.1575 0.0
H1445 H 0.58527 0.80131 0.25678 0.0
C1446 C 0.57189 0.82124 0.22918 0.0
C1447 C 0.55767 0.82162 0.20008 0.0
C1448 C 0.55872 0.74436 0.18315 0.0
C1449 C 0.56241 0.78173 0.20977 0.0
C1450 C 0.56301 0.72559 0.18566 0.0
C1451 C 0.57326 0.72269 0.21811 0.0
C1452 C 0.56508 0.76059 0.21313 0.0
C1453 C 0.57827 0.73849 0.24828 0.0
C1454 C 0.57419 0.80128 0.23425 0.0
C1455 C 0.54612 0.80166 0.17639 0.0
N1456 N 0.57442 0.75704 0.2449 0.0
N1457 N 0.54884 0.78261 0.18165 0.0
H1458 H 0.16276 0.72534 0.22077 0.0
H1459 H 0.29086 0.82473 0.17864 0.0
H1460 H 0.20777 0.71409 0.14541 0.0
H1461 H 0.26157 0.82093 0.28834 0.0
H1462 H 0.2599 0.78384 0.16617 0.0
H1463 H 0.19792 0.75942 0.2484 0.0
C1464 C 0.18 0.72956 0.2108 0.0
C1465 C 0.1823 0.71719 0.18019 0.0
C1466 C 0.26045 0.79182 0.19323 0.0
C1467 C 0.22228 0.75625 0.21088 0.0
C1468 C 0.27803 0.81519 0.20021 0.0
C1469 C 0.27864 0.82619 0.23442 0.0
C1470 C 0.24297 0.77961 0.22025 0.0
C1471 C 0.26168 0.81298 0.2616 0.0
C1472 C 0.20004 0.74907 0.22642 0.0
C1473 C 0.20511 0.72347 0.16838 0.0
N1474 N 0.2442 0.79047 0.25367 0.0
N1475 N 0.22415 0.74286 0.18314 0.0
H1476 H 0.20093 0.17789 0.19717 0.0
H1477 H 0.23389 0.26375 0.36819 0.0
H1478 H 0.26778 0.24303 0.20192 0.0
H1479 H 0.19782 0.18838 0.38715 0.0
H1480 H 0.24365 0.25688 0.30479 0.0
H1481 H 0.19688 0.18088 0.2651 0.0
C1482 C 0.21493 0.19258 0.21262 0.0
C1483 C 0.23464 0.21034 0.19398 0.0
C1484 C 0.23376 0.24188 0.32296 0.0
C1485 C 0.22983 0.21414 0.27109 0.0
C1486 C 0.22798 0.24574 0.35892 0.0
C1487 C 0.2149 0.22657 0.38274 0.0
C1488 C 0.22586 0.21863 0.31036 0.0
C1489 C 0.20793 0.20362 0.36955 0.0
C1490 C 0.21263 0.19423 0.25131 0.0
C1491 C 0.25235 0.22894 0.21531 0.0
N1492 N 0.21316 0.20021 0.3339 0.0
N1493 N 0.24928 0.23067 0.25268 0.0
H1494 H 0.7433 0.03255 0.15095 0.0
H1495 H 0.77653 0.98863 0.33619 0.0
H1496 H 0.77617 0.98955 0.1503 0.0
H1497 H 0.72038 0.00464 0.33544 0.0
H1498 H 0.77907 0.99224 0.26803 0.0
H1499 H 0.73729 0.02637 0.21899 0.0
C1500 C 0.74948 0.02206 0.16505 0.0
C1501 C 0.76062 0.01188 0.14484 0.0
C1502 C 0.76601 0.99475 0.28262 0.0
C1503 C 0.75374 0.00472 0.22226 0.0
C1504 C 0.76459 0.99271 0.32149 0.0
C1505 C 0.74823 0.99634 0.3412 0.0
C1506 C 0.75129 0.00099 0.26334 0.0
C1507 C 0.73305 0.00147 0.32096 0.0
C1508 C 0.74586 0.01838 0.20375 0.0
C1509 C 0.76792 0.99814 0.16452 0.0
N1510 N 0.73513 0.00397 0.28301 0.0
N1511 N 0.7645 0.99511 0.20202 0.0
H1512 H 0.03543 0.83802 0.29743 0.0
H1513 H 0.96767 0.74748 0.13448 0.0
H1514 H 0.01922 0.76539 0.30237 0.0
H1515 H 0.01459 0.82141 0.11064 0.0
H1516 H 0.98441 0.75402 0.19764 0.0
H1517 H 0.02723 0.83316 0.22988 0.0
C1518 C 0.03053 0.82118 0.28412 0.0
C1519 C 0.02777 0.802 0.30539 0.0
C1520 C 0.99114 0.76877 0.1785 0.0
C1521 C 0.01786 0.79616 0.22864 0.0
C1522 C 0.98142 0.76513 0.14261 0.0
C1523 C 0.98961 0.78399 0.11739 0.0
C1524 C 0.00884 0.79154 0.18962 0.0
C1525 C 0.00772 0.80641 0.12928 0.0
C1526 C 0.02591 0.81843 0.24562 0.0
C1527 C 0.02163 0.78062 0.28683 0.0
N1528 N 0.01654 0.80965 0.16478 0.0
N1529 N 0.01636 0.77809 0.24957 0.0
H1530 H 0.70157 0.74797 0.78796 0.0
H1531 H 0.76348 0.71698 0.62258 0.0
H1532 H 0.7625 0.74022 0.80425 0.0
H1533 H 0.73369 0.76223 0.60824 0.0
H1534 H 0.751 0.71133 0.68809 0.0
H1535 H 0.70152 0.73878 0.7212 0.0
C1536 C 0.71466 0.74389 0.7777 0.0
C1537 C 0.73243 0.74537 0.80152 0.0
C1538 C 0.74684 0.72211 0.67031 0.0
C1539 C 0.73218 0.73465 0.72552 0.0
C1540 C 0.75387 0.72533 0.63293 0.0
C1541 C 0.75001 0.7405 0.61013 0.0
C1542 C 0.73554 0.73381 0.68477 0.0
C1543 C 0.73735 0.75071 0.62504 0.0
C1544 C 0.71461 0.73872 0.73963 0.0
C1545 C 0.74877 0.73968 0.78672 0.0
N1546 N 0.73072 0.74734 0.66163 0.0
N1547 N 0.74839 0.73477 0.74951 0.0
H1548 H 0.2673 0.97194 0.65038 0.0
H1549 H 0.30003 0.03792 0.84559 0.0
H1550 H 0.3214 0.04556 0.66099 0.0
H1551 H 0.27666 0.96328 0.8361 0.0
H1552 H 0.30709 0.04152 0.77773 0.0
H1553 H 0.26912 0.96803 0.71855 0.0
C1554 C 0.27972 0.98715 0.66694 0.0
C1555 C 0.29403 0.00913 0.65006 0.0
C1556 C 0.30067 0.02443 0.79072 0.0
C1557 C 0.29574 0.00498 0.7277 0.0
C1558 C 0.29666 0.0224 0.82936 0.0
C1559 C 0.2875 0.00025 0.84643 0.0
C1560 C 0.29489 0.00408 0.76908 0.0
C1561 C 0.28358 0.9807 0.8241 0.0
C1562 C 0.28076 0.98493 0.70575 0.0
C1563 C 0.30992 0.02828 0.6728 0.0
N1564 N 0.28687 0.98297 0.78647 0.0
N1565 N 0.31002 0.02589 0.71054 0.0
H1566 H 0.02952 0.27747 0.66961 0.0
H1567 H 0.97494 0.24431 0.8679 0.0
H1568 H 0.95747 0.25945 0.68826 0.0
H1569 H 0.04838 0.29651 0.8538 0.0
H1570 H 0.96772 0.24992 0.80236 0.0
H1571 H 0.03729 0.2855 0.73692 0.0
C1572 C 0.01546 0.27555 0.68777 0.0
C1573 C 0.99274 0.26737 0.67349 0.0
C1574 C 0.98532 0.26044 0.8139 0.0
C1575 C 0.00135 0.27606 0.75027 0.0
C1576 C 0.98945 0.25714 0.85117 0.0
C1577 C 0.01233 0.26968 0.86608 0.0
C1578 C 0.00431 0.27589 0.79129 0.0
C1579 C 0.03049 0.28629 0.84332 0.0
C1580 C 0.0199 0.28022 0.7261 0.0
C1581 C 0.97519 0.26544 0.69817 0.0
N1582 N 0.02619 0.28856 0.8068 0.0
N1583 N 0.97972 0.26922 0.73554 0.0
H1584 H 0.87631 0.51957 0.5427 0.0
H1585 H 0.91181 0.60894 0.71214 0.0
H1586 H 0.93583 0.59053 0.53702 0.0
H1587 H 0.87766 0.53349 0.72975 0.0
H1588 H 0.91978 0.60271 0.64732 0.0
H1589 H 0.87569 0.52391 0.61084 0.0
C1590 C 0.88939 0.53597 0.55587 0.0
C1591 C 0.90594 0.55485 0.53427 0.0
C1592 C 0.91076 0.58755 0.66549 0.0
C1593 C 0.90515 0.56005 0.61196 0.0
C1594 C 0.90604 0.59106 0.70238 0.0
C1595 C 0.89386 0.57167 0.72624 0.0
C1596 C 0.90283 0.56444 0.6521 0.0
C1597 C 0.88704 0.54892 0.71224 0.0
C1598 C 0.88912 0.53839 0.59475 0.0
C1599 C 0.92278 0.57557 0.55276 0.0
N1600 N 0.89131 0.54588 0.67587 0.0
N1601 N 0.92168 0.57782 0.59056 0.0
H1602 H 0.4237 0.37718 0.50673 0.0
H1603 H 0.47111 0.35127 0.69439 0.0
H1604 H 0.44994 0.32846 0.51258 0.0
H1605 H 0.41286 0.36412 0.69805 0.0
H1606 H 0.46867 0.34959 0.626 0.0
H1607 H 0.42398 0.37891 0.57592 0.0
C1608 C 0.42968 0.36704 0.52239 0.0
C1609 C 0.43735 0.3531 0.5037 0.0
C1610 C 0.45639 0.35276 0.64174 0.0
C1611 C 0.43782 0.35512 0.58216 0.0
C1612 C 0.45789 0.35388 0.6807 0.0
C1613 C 0.44226 0.35798 0.70166 0.0
C1614 C 0.43941 0.35621 0.62354 0.0
C1615 C 0.42512 0.36079 0.68263 0.0
C1616 C 0.42972 0.36795 0.56173 0.0
C1617 C 0.44459 0.34005 0.52544 0.0
N1618 N 0.42427 0.3601 0.64442 0.0
N1619 N 0.44485 0.34156 0.56336 0.0
H1620 H 0.65691 0.14731 0.61233 0.0
H1621 H 0.70784 0.14186 0.41207 0.0
H1622 H 0.70947 0.12636 0.60232 0.0
H1623 H 0.63637 0.12537 0.43146 0.0
H1624 H 0.71487 0.14601 0.4805 0.0
H1625 H 0.65614 0.15004 0.54457 0.0
C1626 C 0.66863 0.14364 0.59598 0.0
C1627 C 0.68325 0.13649 0.61319 0.0
C1628 C 0.69776 0.14167 0.46954 0.0
C1629 C 0.6822 0.13946 0.53506 0.0
C1630 C 0.69379 0.13947 0.43068 0.0
C1631 C 0.67147 0.13322 0.41625 0.0
C1632 C 0.67945 0.13818 0.49374 0.0
C1633 C 0.65378 0.13008 0.44145 0.0
C1634 C 0.66802 0.14507 0.55717 0.0
C1635 C 0.69787 0.13182 0.5902 0.0
N1636 N 0.65818 0.13269 0.47888 0.0
N1637 N 0.69692 0.13329 0.55213 0.0
H1638 H 0.429 0.07443 0.15797 0.0
H1639 H 0.40776 0.12031 0.96981 0.0
H1640 H 0.38293 0.10365 0.15224 0.0
H1641 H 0.41965 0.061 0.97154 0.0
H1642 H 0.39839 0.11464 0.03677 0.0
H1643 H 0.42568 0.06876 0.08973 0.0
C1644 C 0.41791 0.07929 0.14244 0.0
C1645 C 0.40652 0.08984 0.16066 0.0
C1646 C 0.40266 0.10263 0.02225 0.0
C1647 C 0.40303 0.08387 0.08292 0.0
C1648 C 0.4081 0.10593 0.98415 0.0
C1649 C 0.41478 0.09131 0.96528 0.0
C1650 C 0.40447 0.08496 0.04162 0.0
C1651 C 0.41476 0.07281 0.9851 0.0
C1652 C 0.41597 0.076 0.10358 0.0
C1653 C 0.3922 0.09565 0.13928 0.0
N1654 N 0.41016 0.07044 0.02241 0.0
N1655 N 0.39126 0.09306 0.10139 0.0
H1656 H 0.96575 0.35228 0.1957 0.0
H1657 H 0.884 0.31243 0.01304 0.0
H1658 H 0.931 0.38852 0.1535 0.0
H1659 H 0.95003 0.31301 0.01574 0.0
H1660 H 0.88981 0.32495 0.07888 0.0
H1661 H 0.94902 0.32375 0.14286 0.0
C1662 C 0.95407 0.35377 0.17587 0.0
C1663 C 0.94977 0.37272 0.17848 0.0
C1664 C 0.90263 0.32162 0.06526 0.0
C1665 C 0.93035 0.34018 0.11927 0.0
C1666 C 0.8993 0.31432 0.02774 0.0
C1667 C 0.91686 0.31221 0.00855 0.0
C1668 C 0.92339 0.32638 0.08385 0.0
C1669 C 0.93626 0.31484 0.02928 0.0
C1670 C 0.94464 0.33761 0.14588 0.0
C1671 C 0.93477 0.37418 0.15212 0.0
N1672 N 0.93922 0.32218 0.06576 0.0
N1673 N 0.92559 0.35812 0.12353 0.0
H1674 H 0.66502 0.52715 0.11827 0.0
H1675 H 0.67736 0.64084 0.01653 0.0
H1676 H 0.65759 0.58201 0.1742 0.0
H1677 H 0.68873 0.58839 0.96169 0.0
H1678 H 0.66229 0.61543 0.07149 0.0
H1679 H 0.66526 0.54469 0.05796 0.0
C1680 C 0.66297 0.54261 0.11789 0.0
C1681 C 0.66178 0.55341 0.15144 0.0
C1682 C 0.66759 0.60918 0.0472 0.0
C1683 C 0.66232 0.57373 0.08247 0.0
C1684 C 0.67615 0.62368 0.01589 0.0
C1685 C 0.6839 0.61643 0.98457 0.0
C1686 C 0.66726 0.58748 0.04742 0.0
C1687 C 0.68233 0.59425 0.98507 0.0
C1688 C 0.6632 0.55268 0.08339 0.0
C1689 C 0.65893 0.57329 0.14911 0.0
N1690 N 0.6744 0.58061 0.01621 0.0
N1691 N 0.65967 0.58301 0.11527 0.0
H1692 H 0.58335 0.93639 0.06672 0.0
H1693 H 0.5392 0.85184 0.8919 0.0
H1694 H 0.54471 0.86061 0.08149 0.0
H1695 H 0.60399 0.91901 0.88969 0.0
H1696 H 0.53982 0.85392 0.96055 0.0
H1697 H 0.58989 0.93035 0.00113 0.0
C1698 C 0.57627 0.91844 0.05611 0.0
C1699 C 0.56326 0.89895 0.07942 0.0
C1700 C 0.55412 0.86797 0.94505 0.0
C1701 C 0.57054 0.89193 0.00421 0.0
C1702 C 0.55372 0.86687 0.90588 0.0
C1703 C 0.57141 0.88545 0.88513 0.0
C1704 C 0.57202 0.88809 0.96347 0.0
C1705 C 0.59003 0.90431 0.90468 0.0
C1706 C 0.58019 0.91503 0.01876 0.0
C1707 C 0.55477 0.8761 0.06436 0.0
N1708 N 0.58959 0.90542 0.94278 0.0
N1709 N 0.55819 0.87318 0.02742 0.0
H1710 H 0.13547 0.70043 0.01619 0.0
H1711 H 0.05764 0.67411 0.83074 0.0
H1712 H 0.05995 0.6544 0.01737 0.0
H1713 H 0.13145 0.69611 0.83149 0.0
H1714 H 0.05783 0.67342 0.89996 0.0
H1715 H 0.13377 0.7051 0.94919 0.0
C1716 C 0.11848 0.691 0.00235 0.0
C1717 C 0.09786 0.67649 0.02245 0.0
C1718 C 0.07398 0.67862 0.88486 0.0
C1719 C 0.09578 0.68237 0.94523 0.0
C1720 C 0.07395 0.67928 0.84559 0.0
C1721 C 0.09458 0.68516 0.82578 0.0
C1722 C 0.0949 0.68423 0.90398 0.0
C1723 C 0.11519 0.69134 0.84591 0.0
C1724 C 0.11754 0.69387 0.96397 0.0
C1725 C 0.07631 0.66547 0.00286 0.0
N1726 N 0.11483 0.69071 0.8839 0.0
N1727 N 0.07581 0.6686 0.96516 0.0
H1728 H 0.3526 0.49062 0.96902 0.0
H1729 H 0.30308 0.40633 0.7939 0.0
H1730 H 0.35084 0.4237 0.96573 0.0
H1731 H 0.34164 0.48219 0.77983 0.0
H1732 H 0.31777 0.41186 0.85844 0.0
H1733 H 0.34673 0.48807 0.90088 0.0
C1734 C 0.35123 0.47553 0.95389 0.0
C1735 C 0.35196 0.45722 0.97297 0.0
C1736 C 0.32318 0.42727 0.8411 0.0
C1737 C 0.34485 0.454 0.89541 0.0
C1738 C 0.31467 0.42416 0.80442 0.0
C1739 C 0.32105 0.44385 0.78163 0.0
C1740 C 0.3377 0.45026 0.85543 0.0
C1741 C 0.33631 0.46654 0.79653 0.0
C1742 C 0.34801 0.47414 0.91504 0.0
C1743 C 0.35042 0.4382 0.95198 0.0
N1744 N 0.34384 0.46918 0.83277 0.0
N1745 N 0.34644 0.43682 0.91435 0.0
H1746 H 0.07478 0.3902 0.51575 0.0
H1747 H 0.07108 0.44018 0.3183 0.0
H1748 H 0.03051 0.42007 0.49311 0.0
H1749 H 0.08901 0.38543 0.33137 0.0
H1750 H 0.05515 0.43241 0.38205 0.0
H1751 H 0.07896 0.38668 0.4481 0.0
C1752 C 0.06565 0.39566 0.49658 0.0
C1753 C 0.05268 0.40588 0.51006 0.0
C1754 C 0.0623 0.4219 0.37072 0.0
C1755 C 0.05782 0.40245 0.43291 0.0
C1756 C 0.07148 0.42642 0.33445 0.0
C1757 C 0.08165 0.41367 0.31974 0.0
C1758 C 0.06383 0.40492 0.3926 0.0
C1759 C 0.0815 0.39584 0.34171 0.0
C1760 C 0.06804 0.39366 0.458 0.0
C1761 C 0.04096 0.41239 0.48397 0.0
N1762 N 0.07314 0.39228 0.37728 0.0
N1763 N 0.04423 0.41105 0.44663 0.0
H1764 H 0.56175 0.65568 0.2921 0.0
H1765 H 0.62044 0.70882 0.4907 0.0
H1766 H 0.62654 0.66137 0.33058 0.0
H1767 H 0.55438 0.70129 0.45377 0.0
H1768 H 0.62778 0.70069 0.42669 0.0
H1769 H 0.5632 0.68059 0.34517 0.0
C1770 C 0.57672 0.66296 0.31107 0.0
C1771 C 0.59434 0.65709 0.30666 0.0
C1772 C 0.61187 0.70125 0.43241 0.0
C1773 C 0.59568 0.68457 0.36829 0.0
C1774 C 0.60772 0.70604 0.469 0.0
C1775 C 0.58644 0.7051 0.47791 0.0
C1776 C 0.59457 0.69534 0.4046 0.0
C1777 C 0.57082 0.70173 0.44842 0.0
C1778 C 0.57744 0.67692 0.34159 0.0
C1779 C 0.61276 0.66582 0.33294 0.0
N1780 N 0.57495 0.69648 0.41326 0.0
N1781 N 0.61288 0.67898 0.36282 0.0
H1782 H 0.36668 0.95052 0.34973 0.0
H1783 H 0.30427 0.91217 0.54051 0.0
H1784 H 0.29251 0.92644 0.35925 0.0
H1785 H 0.37665 0.96871 0.5346 0.0
H1786 H 0.29914 0.91836 0.47435 0.0
H1787 H 0.3713 0.95956 0.41709 0.0
C1788 C 0.35148 0.94755 0.36586 0.0
C1789 C 0.32911 0.93725 0.34911 0.0
C1790 C 0.31601 0.92972 0.48779 0.0
C1791 C 0.33414 0.947 0.42597 0.0
C1792 C 0.31896 0.92609 0.52544 0.0
C1793 C 0.341 0.93966 0.54283 0.0
C1794 C 0.33539 0.94659 0.46729 0.0
C1795 C 0.35941 0.95766 0.52215 0.0
C1796 C 0.35412 0.95278 0.40423 0.0
C1797 C 0.31003 0.93406 0.37116 0.0
N1798 N 0.35635 0.96026 0.48519 0.0
N1799 N 0.31285 0.93833 0.40869 0.0
loop_
_geom_bond_atom_site_label_1
_geom_bond_atom_site_label_2
_geom_bond_distance
_geom_bond_site_symmetry_2
_ccdc_geom_bond_type
Mg0 O1 2.028 . S
Mg0 O7 1.986 . S
Mg0 O9 2.114 . S
Mg0 O10 2.251 . S
Mg0 O13 2.010 . S
O1 Mg0 2.028 . S
O1 C4 1.250 . S
O2 Mg3 2.028 . S
O2 C4 1.248 . S
Mg3 O2 2.028 . S
Mg3 O8 2.032 . S
Mg3 O10 2.079 . S
C4 O1 1.250 . S
C4 O2 1.248 . S
C5 O6 1.264 . S
C5 O13 1.249 . S
O6 C5 1.264 . S
O7 Mg0 1.986 . S
O7 C11 1.246 . S
O8 Mg3 2.032 . S
O8 C11 1.259 . S
O9 Mg0 2.114 . S
O9 C12 1.252 . S
O10 Mg0 2.251 . S
O10 Mg3 2.079 . S
O10 C12 1.273 . S
C11 O7 1.246 . S
C11 O8 1.259 . S
C12 O9 1.252 . S
C12 O10 1.273 . S
O13 Mg0 2.010 . S
O13 C5 1.249 . S
Mg14 O15 2.028 . S
Mg14 O21 1.986 1_545 S
Mg14 O23 2.114 . S
Mg14 O24 2.251 . S
Mg14 O27 2.010 . S
O15 Mg14 2.028 . S
O15 C18 1.250 . S
O16 Mg17 2.028 . S
O16 C18 1.248 . S
Mg17 O16 2.028 . S
Mg17 O22 2.032 1_545 S
Mg17 O24 2.079 . S
C18 O15 1.250 . S
C18 O16 1.248 . S
C19 O20 1.264 . S
C19 O27 1.252 . S
O20 C19 1.264 . S
O21 Mg14 1.986 1_565 S
O21 C25 1.246 . S
O22 Mg17 2.032 1_565 S
O22 C25 1.259 . S
O23 Mg14 2.114 . S
O23 C26 1.252 . S
O24 Mg14 2.251 . S
O24 Mg17 2.079 . S
O24 C26 1.273 . S
C25 O21 1.246 . S
C25 O22 1.259 . S
C26 O23 1.252 . S
C26 O24 1.273 . S
O27 Mg14 2.010 . S
O27 C19 1.252 . S
Mg28 O29 2.028 . S
Mg28 O35 1.986 . S
Mg28 O37 2.114 . S
Mg28 O38 2.251 . S
Mg28 O41 2.010 1_655 S
O29 Mg28 2.028 . S
O29 C32 1.250 . S
O30 Mg31 2.028 . S
O30 C32 1.248 . S
Mg31 O30 2.028 . S
Mg31 O36 2.032 . S
Mg31 O38 2.079 . S
C32 O29 1.250 . S
C32 O30 1.248 . S
C33 O34 1.264 . S
C33 O41 1.249 1_556 S
O34 C33 1.264 . S
O35 Mg28 1.986 . S
O35 C39 1.246 . S
O36 Mg31 2.032 . S
O36 C39 1.259 . S
O37 Mg28 2.114 . S
O37 C40 1.252 . S
O38 Mg28 2.251 . S
O38 Mg31 2.079 . S
O38 C40 1.273 . S
C39 O35 1.246 . S
C39 O36 1.259 . S
C40 O37 1.252 . S
C40 O38 1.273 . S
O41 Mg28 2.010 1_455 S
O41 C33 1.249 1_554 S
Mg42 O43 2.028 . S
Mg42 O49 1.986 . S
Mg42 O51 2.114 . S
Mg42 O52 2.251 . S
Mg42 O55 2.010 . S
O43 Mg42 2.028 . S
O43 C46 1.250 . S
O44 Mg45 2.028 . S
O44 C46 1.248 . S
Mg45 O44 2.028 . S
Mg45 O50 2.032 . S
Mg45 O52 2.079 . S
C46 O43 1.250 . S
C46 O44 1.248 . S
C47 O48 1.264 . S
C47 O55 1.249 . S
O48 C47 1.264 . S
O49 Mg42 1.986 . S
O49 C53 1.246 . S
O50 Mg45 2.032 . S
O50 C53 1.259 . S
O51 Mg42 2.114 . S
O51 C54 1.252 . S
O52 Mg42 2.251 . S
O52 Mg45 2.079 . S
O52 C54 1.273 . S
C53 O49 1.246 . S
C53 O50 1.259 . S
C54 O51 1.252 . S
C54 O52 1.273 . S
O55 Mg42 2.010 . S
O55 C47 1.249 . S
Mg56 O57 2.028 . S
Mg56 O63 1.986 1_565 S
Mg56 O65 2.114 . S
Mg56 O66 2.251 1_565 S
Mg56 O69 2.010 . S
O57 Mg56 2.028 . S
O57 C60 1.250 . S
O58 Mg59 2.028 1_565 S
O58 C60 1.248 . S
Mg59 O58 2.028 1_545 S
Mg59 O64 2.032 . S
Mg59 O66 2.079 . S
C60 O57 1.250 . S
C60 O58 1.248 . S
C61 O62 1.264 . S
C61 O69 1.249 . S
O62 C61 1.264 . S
O63 Mg56 1.986 1_545 S
O63 C67 1.246 . S
O64 Mg59 2.032 . S
O64 C67 1.259 . S
O65 Mg56 2.114 . S
O65 C68 1.252 . S
O66 Mg56 2.251 1_545 S
O66 Mg59 2.079 . S
O66 C68 1.273 1_545 S
C67 O63 1.246 . S
C67 O64 1.259 . S
C68 O65 1.252 . S
C68 O66 1.273 1_565 S
O69 Mg56 2.010 . S
O69 C61 1.249 . S
Mg70 O71 2.028 . S
Mg70 O77 1.986 1_455 S
Mg70 O79 2.114 . S
Mg70 O80 2.251 . S
Mg70 O83 2.010 . S
O71 Mg70 2.028 . S
O71 C74 1.250 . S
O72 Mg73 2.028 . S
O72 C74 1.248 . S
Mg73 O72 2.028 . S
Mg73 O78 2.032 1_455 S
Mg73 O80 2.079 . S
C74 O71 1.250 . S
C74 O72 1.248 . S
C75 O76 1.264 . S
C75 O83 1.249 . S
O76 C75 1.264 . S
O77 Mg70 1.986 1_655 S
O77 C81 1.246 . S
O78 Mg73 2.032 1_655 S
O78 C81 1.259 . S
O79 Mg70 2.114 . S
O79 C82 1.252 . S
O80 Mg70 2.251 . S
O80 Mg73 2.079 . S
O80 C82 1.273 . S
C81 O77 1.246 . S
C81 O78 1.259 . S
C82 O79 1.252 . S
C82 O80 1.273 . S
O83 Mg70 2.010 . S
O83 C75 1.249 . S
Mg84 O85 2.028 . S
Mg84 O91 1.986 . S
Mg84 O93 2.114 . S
Mg84 O94 2.231 1_556 S
Mg84 O97 2.010 . S
O85 Mg84 2.028 . S
O85 C88 1.250 . S
O86 Mg87 2.028 . S
O86 C88 1.248 1_554 S
Mg87 O86 2.028 . S
Mg87 O92 2.032 . S
Mg87 O94 2.100 . S
C88 O85 1.250 . S
C88 O86 1.248 1_556 S
C89 O90 1.264 . S
C89 O97 1.249 . S
O90 C89 1.264 . S
O91 Mg84 1.986 . S
O91 C95 1.246 1_556 S
O92 Mg87 2.032 . S
O92 C95 1.259 . S
O93 Mg84 2.114 . S
O93 C96 1.252 . S
O94 Mg84 2.231 1_554 S
O94 Mg87 2.100 . S
O94 C96 1.255 1_554 S
C95 O91 1.246 1_554 S
C95 O92 1.259 . S
C96 O93 1.252 . S
C96 O94 1.255 1_556 S
O97 Mg84 2.010 . S
O97 C89 1.249 . S
Mg98 O99 2.028 1_565 S
Mg98 O105 1.986 . S
Mg98 O107 2.114 . S
Mg98 O108 2.251 1_556 S
Mg98 O111 2.010 . S
O99 Mg98 2.028 1_545 S
O99 C102 1.250 . S
O100 Mg101 2.028 1_545 S
O100 C102 1.248 1_554 S
Mg101 O100 2.028 1_565 S
Mg101 O106 2.032 . S
Mg101 O108 2.079 . S
C102 O99 1.250 . S
C102 O100 1.248 1_556 S
C103 O104 1.264 . S
C103 O111 1.249 . S
O104 C103 1.264 . S
O105 Mg98 1.986 . S
O105 C109 1.246 1_556 S
O106 Mg101 2.032 . S
O106 C109 1.259 . S
O107 Mg98 2.114 . S
O107 C110 1.252 . S
O108 Mg98 2.251 1_554 S
O108 Mg101 2.079 . S
O108 C110 1.273 1_554 S
C109 O105 1.246 1_554 S
C109 O106 1.259 . S
C110 O107 1.252 . S
C110 O108 1.273 1_556 S
O111 Mg98 2.010 . S
O111 C103 1.249 . S
Mg112 O113 2.028 1_455 S
Mg112 O119 1.986 . S
Mg112 O121 2.114 . S
Mg112 O122 2.251 1_556 S
Mg112 O125 2.010 . S
O113 Mg112 2.028 1_655 S
O113 C116 1.250 . S
O114 Mg115 2.028 1_655 S
O114 C116 1.248 1_554 S
Mg115 O114 2.028 1_455 S
Mg115 O120 2.032 . S
Mg115 O122 2.079 . S
C116 O113 1.250 . S
C116 O114 1.248 1_556 S
C117 O118 1.264 . S
C117 O125 1.249 . S
O118 C117 1.264 . S
O119 Mg112 1.986 . S
O119 C123 1.246 1_556 S
O120 Mg115 2.032 . S
O120 C123 1.259 . S
O121 Mg112 2.114 . S
O121 C124 1.252 . S
O122 Mg112 2.251 1_554 S
O122 Mg115 2.079 . S
O122 C124 1.273 1_554 S
C123 O119 1.246 1_554 S
C123 O120 1.259 . S
C124 O121 1.252 . S
C124 O122 1.273 1_556 S
O125 Mg112 2.010 . S
O125 C117 1.249 . S
Mg126 O127 2.028 . S
Mg126 O133 1.986 . S
Mg126 O135 2.114 . S
Mg126 O136 2.251 . S
Mg126 O139 2.010 . S
O127 Mg126 2.028 . S
O127 C130 1.250 . S
O128 Mg129 2.028 . S
O128 C130 1.248 . S
Mg129 O128 2.028 . S
Mg129 O134 2.032 . S
Mg129 O136 2.079 . S
C130 O127 1.250 . S
C130 O128 1.248 . S
C131 O132 1.264 . S
C131 O139 1.249 . S
O132 C131 1.264 . S
O133 Mg126 1.986 . S
O133 C137 1.246 . S
O134 Mg129 2.032 . S
O134 C137 1.259 . S
O135 Mg126 2.114 . S
O135 C138 1.252 . S
O136 Mg126 2.251 . S
O136 Mg129 2.079 . S
O136 C138 1.273 . S
C137 O133 1.246 . S
C137 O134 1.259 . S
C138 O135 1.252 . S
C138 O136 1.273 . S
O139 Mg126 2.010 . S
O139 C131 1.249 . S
Mg140 O141 2.028 1_545 S
Mg140 O147 1.986 . S
Mg140 O149 2.114 . S
Mg140 O150 2.251 . S
Mg140 O153 2.010 . S
O141 Mg140 2.028 1_565 S
O141 C144 1.250 . S
O142 Mg143 2.028 1_565 S
O142 C144 1.248 . S
Mg143 O142 2.028 1_545 S
Mg143 O148 2.032 . S
Mg143 O150 2.079 . S
C144 O141 1.250 . S
C144 O142 1.248 . S
C145 O146 1.264 . S
C145 O153 1.249 . S
O146 C145 1.264 . S
O147 Mg140 1.986 . S
O147 C151 1.246 . S
O148 Mg143 2.032 . S
O148 C151 1.259 . S
O149 Mg140 2.114 . S
O149 C152 1.252 . S
O150 Mg140 2.251 . S
O150 Mg143 2.079 . S
O150 C152 1.273 . S
C151 O147 1.246 . S
C151 O148 1.259 . S
C152 O149 1.252 . S
C152 O150 1.273 . S
O153 Mg140 2.010 . S
O153 C145 1.249 . S
Mg154 O155 2.028 1_655 S
Mg154 O161 1.986 . S
Mg154 O163 2.114 . S
Mg154 O164 2.251 . S
Mg154 O167 2.010 . S
O155 Mg154 2.028 1_455 S
O155 C158 1.250 . S
O156 Mg157 2.028 1_455 S
O156 C158 1.248 . S
Mg157 O156 2.028 1_655 S
Mg157 O162 2.032 . S
Mg157 O164 2.079 . S
C158 O155 1.250 . S
C158 O156 1.248 . S
C159 O160 1.264 . S
C159 O167 1.249 . S
O160 C159 1.264 . S
O161 Mg154 1.986 . S
O161 C165 1.246 . S
O162 Mg157 2.032 . S
O162 C165 1.259 . S
O163 Mg154 2.114 . S
O163 C166 1.252 . S
O164 Mg154 2.251 . S
O164 Mg157 2.079 . S
O164 C166 1.273 . S
C165 O161 1.246 . S
C165 O162 1.259 . S
C166 O163 1.252 . S
C166 O164 1.273 . S
O167 Mg154 2.010 . S
O167 C159 1.249 . S
Mg168 O169 2.028 . S
Mg168 O175 1.986 . S
Mg168 O177 2.114 . S
Mg168 O178 2.251 . S
Mg168 O181 2.010 . S
O169 Mg168 2.028 . S
O169 C172 1.250 . S
O170 Mg171 2.028 . S
O170 C172 1.248 . S
Mg171 O170 2.028 . S
Mg171 O176 2.032 . S
Mg171 O178 2.079 . S
C172 O169 1.250 . S
C172 O170 1.248 . S
C173 O174 1.264 . S
C173 O181 1.249 . S
O174 C173 1.264 . S
O175 Mg168 1.986 . S
O175 C179 1.246 . S
O176 Mg171 2.032 . S
O176 C179 1.259 . S
O177 Mg168 2.114 . S
O177 C180 1.252 . S
O178 Mg168 2.251 . S
O178 Mg171 2.079 . S
O178 C180 1.273 . S
C179 O175 1.246 . S
C179 O176 1.259 . S
C180 O177 1.252 . S
C180 O178 1.273 . S
O181 Mg168 2.010 . S
O181 C173 1.249 . S
Mg182 O183 2.028 . S
Mg182 O189 1.986 . S
Mg182 O191 2.114 . S
Mg182 O192 2.251 . S
Mg182 O195 2.010 . S
O183 Mg182 2.028 . S
O183 C186 1.250 . S
O184 Mg185 2.028 . S
O184 C186 1.248 . S
Mg185 O184 2.028 . S
Mg185 O190 2.032 . S
Mg185 O192 2.079 . S
C186 O183 1.250 . S
C186 O184 1.248 . S
C187 O188 1.264 . S
C187 O195 1.249 . S
O188 C187 1.264 . S
O189 Mg182 1.986 . S
O189 C193 1.246 . S
O190 Mg185 2.032 . S
O190 C193 1.259 . S
O191 Mg182 2.114 . S
O191 C194 1.252 . S
O192 Mg182 2.251 . S
O192 Mg185 2.079 . S
O192 C194 1.273 . S
C193 O189 1.246 . S
C193 O190 1.259 . S
C194 O191 1.252 . S
C194 O192 1.273 . S
O195 Mg182 2.010 . S
O195 C187 1.249 . S
Mg196 O197 2.028 . S
Mg196 O203 1.986 . S
Mg196 O205 2.114 . S
Mg196 O206 2.251 . S
Mg196 O209 2.010 . S
O197 Mg196 2.028 . S
O197 C200 1.250 . S
O198 Mg199 2.028 . S
O198 C200 1.248 . S
Mg199 O198 2.028 . S
Mg199 O204 2.032 . S
Mg199 O206 2.079 . S
C200 O197 1.250 . S
C200 O198 1.248 . S
C201 O202 1.264 . S
C201 O209 1.249 . S
O202 C201 1.264 . S
O203 Mg196 1.986 . S
O203 C207 1.246 . S
O204 Mg199 2.032 . S
O204 C207 1.259 . S
O205 Mg196 2.114 . S
O205 C208 1.252 . S
O206 Mg196 2.251 . S
O206 Mg199 2.079 . S
O206 C208 1.273 . S
C207 O203 1.246 . S
C207 O204 1.259 . S
C208 O205 1.252 . S
C208 O206 1.273 . S
O209 Mg196 2.010 . S
O209 C201 1.249 . S
Mg210 O211 2.028 . S
Mg210 O217 1.986 . S
Mg210 O219 2.114 . S
Mg210 O220 2.251 . S
Mg210 O223 2.010 . S
O211 Mg210 2.028 . S
O211 C214 1.250 . S
O212 Mg213 2.028 . S
O212 C214 1.248 . S
Mg213 O212 2.028 . S
Mg213 O218 2.032 . S
Mg213 O220 2.079 . S
C214 O211 1.250 . S
C214 O212 1.248 . S
C215 O216 1.264 . S
C215 O223 1.249 . S
O216 C215 1.264 . S
O217 Mg210 1.986 . S
O217 C221 1.246 . S
O218 Mg213 2.032 . S
O218 C221 1.259 . S
O219 Mg210 2.114 . S
O219 C222 1.252 . S
O220 Mg210 2.251 . S
O220 Mg213 2.079 . S
O220 C222 1.273 . S
C221 O217 1.246 . S
C221 O218 1.259 . S
C222 O219 1.252 . S
C222 O220 1.273 . S
O223 Mg210 2.010 . S
O223 C215 1.249 . S
Mg224 O225 2.028 . S
Mg224 O231 1.986 . S
Mg224 O233 2.114 . S
Mg224 O234 2.251 . S
Mg224 O237 2.010 . S
O225 Mg224 2.028 . S
O225 C228 1.250 . S
O226 Mg227 2.028 . S
O226 C228 1.248 . S
Mg227 O226 2.028 . S
Mg227 O232 2.032 . S
Mg227 O234 2.079 . S
C228 O225 1.250 . S
C228 O226 1.248 . S
C229 O230 1.264 . S
C229 O237 1.249 . S
O230 C229 1.264 . S
O231 Mg224 1.986 . S
O231 C235 1.246 . S
O232 Mg227 2.032 . S
O232 C235 1.259 . S
O233 Mg224 2.114 . S
O233 C236 1.252 . S
O234 Mg224 2.251 . S
O234 Mg227 2.079 . S
O234 C236 1.273 . S
C235 O231 1.246 . S
C235 O232 1.259 . S
C236 O233 1.252 . S
C236 O234 1.273 . S
O237 Mg224 2.010 . S
O237 C229 1.249 . S
Mg238 O239 2.028 . S
Mg238 O245 1.986 . S
Mg238 O247 2.114 . S
Mg238 O248 2.251 . S
Mg238 O251 2.010 . S
O239 Mg238 2.028 . S
O239 C242 1.250 . S
O240 Mg241 2.028 . S
O240 C242 1.248 . S
Mg241 O240 2.028 . S
Mg241 O246 2.032 . S
Mg241 O248 2.079 . S
C242 O239 1.250 . S
C242 O240 1.248 . S
C243 O244 1.264 . S
C243 O251 1.249 . S
O244 C243 1.264 . S
O245 Mg238 1.986 . S
O245 C249 1.246 . S
O246 Mg241 2.032 . S
O246 C249 1.259 . S
O247 Mg238 2.114 . S
O247 C250 1.252 . S
O248 Mg238 2.251 . S
O248 Mg241 2.079 . S
O248 C250 1.273 . S
C249 O245 1.246 . S
C249 O246 1.259 . S
C250 O247 1.252 . S
C250 O248 1.273 . S
O251 Mg238 2.010 . S
O251 C243 1.249 . S
Mg252 O253 2.028 . S
Mg252 O259 1.986 . S
Mg252 O261 2.114 . S
Mg252 O262 2.251 . S
Mg252 O265 2.010 . S
O253 Mg252 2.028 . S
O253 C256 1.250 . S
O254 Mg255 2.028 . S
O254 C256 1.248 . S
Mg255 O254 2.028 . S
Mg255 O260 2.032 . S
Mg255 O262 2.079 . S
C256 O253 1.250 . S
C256 O254 1.248 . S
C257 O258 1.264 . S
C257 O265 1.249 . S
O258 C257 1.264 . S
O259 Mg252 1.986 . S
O259 C263 1.246 . S
O260 Mg255 2.032 . S
O260 C263 1.259 . S
O261 Mg252 2.114 . S
O261 C264 1.252 . S
O262 Mg252 2.251 . S
O262 Mg255 2.079 . S
O262 C264 1.273 . S
C263 O259 1.246 . S
C263 O260 1.259 . S
C264 O261 1.252 . S
C264 O262 1.273 . S
O265 Mg252 2.010 . S
O265 C257 1.249 . S
Mg266 O267 2.028 . S
Mg266 O273 1.986 . S
Mg266 O275 2.114 . S
Mg266 O276 2.251 . S
Mg266 O279 2.010 . S
O267 Mg266 2.028 . S
O267 C270 1.250 . S
O268 Mg269 2.028 . S
O268 C270 1.248 . S
Mg269 O268 2.028 . S
Mg269 O274 2.032 . S
Mg269 O276 2.079 . S
C270 O267 1.250 . S
C270 O268 1.248 . S
C271 O272 1.264 . S
C271 O279 1.249 . S
O272 C271 1.264 . S
O273 Mg266 1.986 . S
O273 C277 1.246 . S
O274 Mg269 2.032 . S
O274 C277 1.259 . S
O275 Mg266 2.114 . S
O275 C278 1.252 . S
O276 Mg266 2.251 . S
O276 Mg269 2.079 . S
O276 C278 1.273 . S
C277 O273 1.246 . S
C277 O274 1.259 . S
C278 O275 1.252 . S
C278 O276 1.273 . S
O279 Mg266 2.010 . S
O279 C271 1.249 . S
Mg280 O281 2.028 . S
Mg280 O287 1.986 . S
Mg280 O289 2.114 . S
Mg280 O290 2.251 . S
Mg280 O293 2.010 . S
O281 Mg280 2.028 . S
O281 C284 1.250 . S
O282 Mg283 2.028 . S
O282 C284 1.248 . S
Mg283 O282 2.028 . S
Mg283 O288 2.032 . S
Mg283 O290 2.079 . S
C284 O281 1.250 . S
C284 O282 1.248 . S
C285 O286 1.264 . S
C285 O293 1.249 . S
O286 C285 1.264 . S
O287 Mg280 1.986 . S
O287 C291 1.246 . S
O288 Mg283 2.032 . S
O288 C291 1.259 . S
O289 Mg280 2.114 . S
O289 C292 1.252 . S
O290 Mg280 2.251 . S
O290 Mg283 2.079 . S
O290 C292 1.273 . S
C291 O287 1.246 . S
C291 O288 1.259 . S
C292 O289 1.252 . S
C292 O290 1.273 . S
O293 Mg280 2.010 . S
O293 C285 1.249 . S
Mg294 O295 2.028 . S
Mg294 O301 1.986 . S
Mg294 O303 2.114 . S
Mg294 O304 2.251 . S
Mg294 O307 2.010 . S
O295 Mg294 2.028 . S
O295 C298 1.250 . S
O296 Mg297 2.028 . S
O296 C298 1.248 . S
Mg297 O296 2.028 . S
Mg297 O302 2.032 . S
Mg297 O304 2.079 . S
C298 O295 1.250 . S
C298 O296 1.248 . S
C299 O300 1.264 . S
C299 O307 1.249 . S
O300 C299 1.264 . S
O301 Mg294 1.986 . S
O301 C305 1.246 . S
O302 Mg297 2.032 . S
O302 C305 1.259 . S
O303 Mg294 2.114 . S
O303 C306 1.252 . S
O304 Mg294 2.251 . S
O304 Mg297 2.079 . S
O304 C306 1.273 . S
C305 O301 1.246 . S
C305 O302 1.259 . S
C306 O303 1.252 . S
C306 O304 1.273 . S
O307 Mg294 2.010 . S
O307 C299 1.249 . S
Mg308 O309 2.028 . S
Mg308 O315 1.986 . S
Mg308 O317 2.114 . S
Mg308 O318 2.251 . S
Mg308 O321 2.010 . S
O309 Mg308 2.028 . S
O309 C312 1.250 . S
O310 Mg311 2.028 . S
O310 C312 1.248 . S
Mg311 O310 2.028 . S
Mg311 O316 2.032 . S
Mg311 O318 2.079 . S
C312 O309 1.250 . S
C312 O310 1.248 . S
C313 O314 1.264 . S
C313 O321 1.249 . S
O314 C313 1.264 . S
O315 Mg308 1.986 . S
O315 C319 1.246 . S
O316 Mg311 2.032 . S
O316 C319 1.259 . S
O317 Mg308 2.114 . S
O317 C320 1.252 . S
O318 Mg308 2.251 . S
O318 Mg311 2.079 . S
O318 C320 1.273 . S
C319 O315 1.246 . S
C319 O316 1.259 . S
C320 O317 1.252 . S
C320 O318 1.273 . S
O321 Mg308 2.010 . S
O321 C313 1.249 . S
Mg322 O323 2.028 . S
Mg322 O329 1.986 . S
Mg322 O331 2.114 . S
Mg322 O332 2.251 . S
Mg322 O335 2.010 . S
O323 Mg322 2.028 . S
O323 C326 1.250 . S
O324 Mg325 2.028 . S
O324 C326 1.248 . S
Mg325 O324 2.028 . S
Mg325 O330 2.032 . S
Mg325 O332 2.079 . S
C326 O323 1.250 . S
C326 O324 1.248 . S
C327 O328 1.264 . S
C327 O335 1.249 . S
O328 C327 1.264 . S
O329 Mg322 1.986 . S
O329 C333 1.246 . S
O330 Mg325 2.032 . S
O330 C333 1.259 . S
O331 Mg322 2.114 . S
O331 C334 1.252 . S
O332 Mg322 2.251 . S
O332 Mg325 2.079 . S
O332 C334 1.273 . S
C333 O329 1.246 . S
C333 O330 1.259 . S
C334 O331 1.252 . S
C334 O332 1.273 . S
O335 Mg322 2.010 . S
O335 C327 1.249 . S
Mg336 O337 2.028 . S
Mg336 O343 1.986 . S
Mg336 O345 2.114 . S
Mg336 O346 2.251 . S
Mg336 O349 2.010 . S
O337 Mg336 2.028 . S
O337 C340 1.250 . S
O338 Mg339 2.028 . S
O338 C340 1.248 . S
Mg339 O338 2.028 . S
Mg339 O344 2.032 . S
Mg339 O346 2.079 . S
C340 O337 1.250 . S
C340 O338 1.248 . S
C341 O342 1.264 . S
C341 O349 1.249 . S
O342 C341 1.264 . S
O343 Mg336 1.986 . S
O343 C347 1.246 . S
O344 Mg339 2.032 . S
O344 C347 1.259 . S
O345 Mg336 2.114 . S
O345 C348 1.252 . S
O346 Mg336 2.251 . S
O346 Mg339 2.079 . S
O346 C348 1.273 . S
C347 O343 1.246 . S
C347 O344 1.259 . S
C348 O345 1.252 . S
C348 O346 1.273 . S
O349 Mg336 2.010 . S
O349 C341 1.249 . S
Mg350 O351 2.028 . S
Mg350 O357 1.986 . S
Mg350 O359 2.114 . S
Mg350 O360 2.251 . S
Mg350 O363 2.010 . S
O351 Mg350 2.028 . S
O351 C354 1.250 . S
O352 Mg353 2.028 . S
O352 C354 1.248 . S
Mg353 O352 2.028 . S
Mg353 O358 2.032 . S
Mg353 O360 2.079 . S
C354 O351 1.250 . S
C354 O352 1.248 . S
C355 O356 1.264 . S
C355 O363 1.249 . S
O356 C355 1.264 . S
O357 Mg350 1.986 . S
O357 C361 1.246 . S
O358 Mg353 2.032 . S
O358 C361 1.259 . S
O359 Mg350 2.114 . S
O359 C362 1.252 . S
O360 Mg350 2.251 . S
O360 Mg353 2.079 . S
O360 C362 1.273 . S
C361 O357 1.246 . S
C361 O358 1.259 . S
C362 O359 1.252 . S
C362 O360 1.273 . S
O363 Mg350 2.010 . S
O363 C355 1.249 . S
Mg364 O365 2.028 . S
Mg364 O371 1.986 . S
Mg364 O373 2.114 . S
Mg364 O374 2.251 . S
Mg364 O377 2.010 . S
O365 Mg364 2.028 . S
O365 C368 1.250 . S
O366 Mg367 2.028 . S
O366 C368 1.248 . S
Mg367 O366 2.028 . S
Mg367 O372 2.032 . S
Mg367 O374 2.079 . S
C368 O365 1.250 . S
C368 O366 1.248 . S
C369 O370 1.264 . S
C369 O377 1.249 . S
O370 C369 1.264 . S
O371 Mg364 1.986 . S
O371 C375 1.246 . S
O372 Mg367 2.032 . S
O372 C375 1.259 . S
O373 Mg364 2.114 . S
O373 C376 1.252 . S
O374 Mg364 2.251 . S
O374 Mg367 2.079 . S
O374 C376 1.273 . S
C375 O371 1.246 . S
C375 O372 1.259 . S
C376 O373 1.252 . S
C376 O374 1.273 . S
O377 Mg364 2.010 . S
O377 C369 1.249 . S
Mg378 O379 2.028 . S
Mg378 O385 1.986 . S
Mg378 O387 2.114 . S
Mg378 O388 2.251 . S
Mg378 O391 2.010 . S
O379 Mg378 2.028 . S
O379 C382 1.250 . S
O380 Mg381 2.028 . S
O380 C382 1.248 . S
Mg381 O380 2.028 . S
Mg381 O386 2.032 . S
Mg381 O388 2.079 . S
C382 O379 1.250 . S
C382 O380 1.248 . S
C383 O384 1.264 . S
C383 O391 1.249 . S
O384 C383 1.264 . S
O385 Mg378 1.986 . S
O385 C389 1.246 . S
O386 Mg381 2.032 . S
O386 C389 1.259 . S
O387 Mg378 2.114 . S
O387 C390 1.252 . S
O388 Mg378 2.251 . S
O388 Mg381 2.079 . S
O388 C390 1.273 . S
C389 O385 1.246 . S
C389 O386 1.259 . S
C390 O387 1.252 . S
C390 O388 1.273 . S
O391 Mg378 2.010 . S
O391 C383 1.249 . S
Mg392 O393 2.028 . S
Mg392 O399 1.986 . S
Mg392 O401 2.114 . S
Mg392 O402 2.251 . S
Mg392 O405 2.010 . S
O393 Mg392 2.028 . S
O393 C396 1.250 . S
O394 Mg395 2.028 . S
O394 C396 1.248 . S
Mg395 O394 2.028 . S
Mg395 O400 2.032 . S
Mg395 O402 2.079 . S
C396 O393 1.250 . S
C396 O394 1.248 . S
C397 O398 1.264 . S
C397 O405 1.249 . S
O398 C397 1.264 . S
O399 Mg392 1.986 . S
O399 C403 1.246 . S
O400 Mg395 2.032 . S
O400 C403 1.259 . S
O401 Mg392 2.114 . S
O401 C404 1.252 . S
O402 Mg392 2.251 . S
O402 Mg395 2.079 . S
O402 C404 1.273 . S
C403 O399 1.246 . S
C403 O400 1.259 . S
C404 O401 1.252 . S
C404 O402 1.273 . S
O405 Mg392 2.010 . S
O405 C397 1.249 . S
Mg406 O407 2.028 . S
Mg406 O413 1.986 . S
Mg406 O415 2.114 . S
Mg406 O416 2.251 . S
Mg406 O419 2.010 . S
O407 Mg406 2.028 . S
O407 C410 1.250 . S
O408 Mg409 2.028 . S
O408 C410 1.248 . S
Mg409 O408 2.028 . S
Mg409 O414 2.032 . S
Mg409 O416 2.079 . S
C410 O407 1.250 . S
C410 O408 1.248 . S
C411 O412 1.264 . S
C411 O419 1.249 . S
O412 C411 1.264 . S
O413 Mg406 1.986 . S
O413 C417 1.246 . S
O414 Mg409 2.032 . S
O414 C417 1.259 . S
O415 Mg406 2.114 . S
O415 C418 1.252 . S
O416 Mg406 2.251 . S
O416 Mg409 2.079 . S
O416 C418 1.273 . S
C417 O413 1.246 . S
C417 O414 1.259 . S
C418 O415 1.252 . S
C418 O416 1.273 . S
O419 Mg406 2.010 . S
O419 C411 1.249 . S
Mg420 O421 2.028 . S
Mg420 O427 1.986 . S
Mg420 O429 2.114 . S
Mg420 O430 2.251 . S
Mg420 O433 2.010 . S
O421 Mg420 2.028 . S
O421 C424 1.250 . S
O422 Mg423 2.028 . S
O422 C424 1.248 . S
Mg423 O422 2.028 . S
Mg423 O428 2.032 . S
Mg423 O430 2.079 . S
C424 O421 1.250 . S
C424 O422 1.248 . S
C425 O426 1.264 . S
C425 O433 1.249 . S
O426 C425 1.264 . S
O427 Mg420 1.986 . S
O427 C431 1.246 . S
O428 Mg423 2.032 . S
O428 C431 1.259 . S
O429 Mg420 2.114 . S
O429 C432 1.252 . S
O430 Mg420 2.251 . S
O430 Mg423 2.079 . S
O430 C432 1.273 . S
C431 O427 1.246 . S
C431 O428 1.259 . S
C432 O429 1.252 . S
C432 O430 1.273 . S
O433 Mg420 2.010 . S
O433 C425 1.249 . S
Mg434 O435 2.028 . S
Mg434 O441 1.986 . S
Mg434 O443 2.114 . S
Mg434 O444 2.251 . S
Mg434 O447 2.010 . S
O435 Mg434 2.028 . S
O435 C438 1.250 . S
O436 Mg437 2.028 . S
O436 C438 1.248 . S
Mg437 O436 2.028 . S
Mg437 O442 2.032 . S
Mg437 O444 2.079 . S
C438 O435 1.250 . S
C438 O436 1.248 . S
C439 O440 1.264 . S
C439 O447 1.249 . S
O440 C439 1.264 . S
O441 Mg434 1.986 . S
O441 C445 1.246 . S
O442 Mg437 2.032 . S
O442 C445 1.259 . S
O443 Mg434 2.114 . S
O443 C446 1.252 . S
O444 Mg434 2.251 . S
O444 Mg437 2.079 . S
O444 C446 1.273 . S
C445 O441 1.246 . S
C445 O442 1.259 . S
C446 O443 1.252 . S
C446 O444 1.273 . S
O447 Mg434 2.010 . S
O447 C439 1.249 . S
Mg448 O449 2.028 . S
Mg448 O455 1.986 . S
Mg448 O457 2.114 . S
Mg448 O458 2.251 . S
Mg448 O461 2.010 . S
O449 Mg448 2.028 . S
O449 C452 1.250 . S
O450 Mg451 2.028 . S
O450 C452 1.248 . S
Mg451 O450 2.028 . S
Mg451 O456 2.032 . S
Mg451 O458 2.079 . S
C452 O449 1.250 . S
C452 O450 1.248 . S
C453 O454 1.264 . S
C453 O461 1.249 . S
O454 C453 1.264 . S
O455 Mg448 1.986 . S
O455 C459 1.246 . S
O456 Mg451 2.032 . S
O456 C459 1.259 . S
O457 Mg448 2.114 . S
O457 C460 1.252 . S
O458 Mg448 2.251 . S
O458 Mg451 2.079 . S
O458 C460 1.273 . S
C459 O455 1.246 . S
C459 O456 1.259 . S
C460 O457 1.252 . S
C460 O458 1.273 . S
O461 Mg448 2.010 . S
O461 C453 1.249 . S
Mg462 O463 2.028 . S
Mg462 O469 1.986 . S
Mg462 O471 2.114 . S
Mg462 O472 2.251 . S
Mg462 O475 2.010 . S
O463 Mg462 2.028 . S
O463 C466 1.250 . S
O464 Mg465 2.028 . S
O464 C466 1.248 . S
Mg465 O464 2.028 . S
Mg465 O470 2.032 . S
Mg465 O472 2.079 . S
C466 O463 1.250 . S
C466 O464 1.248 . S
C467 O468 1.264 . S
C467 O475 1.249 . S
O468 C467 1.264 . S
O469 Mg462 1.986 . S
O469 C473 1.246 . S
O470 Mg465 2.032 . S
O470 C473 1.259 . S
O471 Mg462 2.114 . S
O471 C474 1.252 . S
O472 Mg462 2.251 . S
O472 Mg465 2.079 . S
O472 C474 1.273 . S
C473 O469 1.246 . S
C473 O470 1.259 . S
C474 O471 1.252 . S
C474 O472 1.273 . S
O475 Mg462 2.010 . S
O475 C467 1.249 . S
Mg476 O477 2.028 . S
Mg476 O483 1.986 . S
Mg476 O485 2.114 . S
Mg476 O486 2.251 . S
Mg476 O489 2.010 . S
O477 Mg476 2.028 . S
O477 C480 1.250 . S
O478 Mg479 2.028 . S
O478 C480 1.248 . S
Mg479 O478 2.028 . S
Mg479 O484 2.032 . S
Mg479 O486 2.079 . S
C480 O477 1.250 . S
C480 O478 1.248 . S
C481 O482 1.264 . S
C481 O489 1.249 . S
O482 C481 1.264 . S
O483 Mg476 1.986 . S
O483 C487 1.246 . S
O484 Mg479 2.032 . S
O484 C487 1.259 . S
O485 Mg476 2.114 . S
O485 C488 1.252 . S
O486 Mg476 2.251 . S
O486 Mg479 2.079 . S
O486 C488 1.273 . S
C487 O483 1.246 . S
C487 O484 1.259 . S
C488 O485 1.252 . S
C488 O486 1.273 . S
O489 Mg476 2.010 . S
O489 C481 1.249 . S
Mg490 O491 2.028 . S
Mg490 O497 1.986 . S
Mg490 O499 2.114 . S
Mg490 O500 2.251 . S
Mg490 O503 2.010 . S
O491 Mg490 2.028 . S
O491 C494 1.250 . S
O492 Mg493 2.028 . S
O492 C494 1.248 . S
Mg493 O492 2.028 . S
Mg493 O498 2.032 . S
Mg493 O500 2.079 . S
C494 O491 1.250 . S
C494 O492 1.248 . S
C495 O496 1.264 . S
C495 O503 1.249 . S
O496 C495 1.264 . S
O497 Mg490 1.986 . S
O497 C501 1.246 . S
O498 Mg493 2.032 . S
O498 C501 1.259 . S
O499 Mg490 2.114 . S
O499 C502 1.252 . S
O500 Mg490 2.251 . S
O500 Mg493 2.079 . S
O500 C502 1.273 . S
C501 O497 1.246 . S
C501 O498 1.259 . S
C502 O499 1.252 . S
C502 O500 1.273 . S
O503 Mg490 2.010 . S
O503 C495 1.249 . S
H504 C510 0.930 . S
H505 C514 0.930 . S
H506 C519 0.929 . S
H507 C517 0.929 1_554 S
H508 C512 0.929 . S
H509 C518 0.929 . S
C510 H504 0.930 . S
C510 C511 1.367 . S
C510 C518 1.378 . S
C511 C510 1.367 . S
C511 C519 1.433 . S
C512 H508 0.929 . S
C512 C514 1.378 . S
C512 C516 1.350 . S
C513 C516 1.463 . S
C513 C518 1.350 . S
C513 N521 1.427 . S
C514 H505 0.930 . S
C514 C512 1.378 . S
C514 C515 1.367 . S
C515 C514 1.367 . S
C515 C517 1.433 . S
C516 C512 1.350 . S
C516 C513 1.463 . S
C516 N520 1.427 . S
C517 H507 0.929 1_556 S
C517 C515 1.433 . S
C517 N520 1.384 . S
C518 H509 0.929 . S
C518 C510 1.378 . S
C518 C513 1.350 . S
C519 H506 0.929 . S
C519 C511 1.433 . S
C519 N521 1.384 . S
N520 C516 1.427 . S
N520 C517 1.384 . S
N521 C513 1.427 . S
N521 C519 1.384 . S
H522 C528 0.930 . S
H523 C532 0.930 . S
H524 C537 0.929 . S
H525 C535 0.929 . S
H526 C530 0.929 . S
H527 C536 0.929 . S
C528 H522 0.930 . S
C528 C529 1.367 . S
C528 C536 1.378 . S
C529 C528 1.367 . S
C529 C537 1.433 . S
C530 H526 0.929 . S
C530 C532 1.378 . S
C530 C534 1.350 . S
C531 C534 1.463 . S
C531 C536 1.350 . S
C531 N539 1.427 . S
C532 H523 0.930 . S
C532 C530 1.378 . S
C532 C533 1.367 . S
C533 C532 1.367 . S
C533 C535 1.433 . S
C534 C530 1.350 . S
C534 C531 1.463 . S
C534 N538 1.427 . S
C535 H525 0.929 . S
C535 C533 1.433 . S
C535 N538 1.384 . S
C536 H527 0.929 . S
C536 C528 1.378 . S
C536 C531 1.350 . S
C537 H524 0.929 . S
C537 C529 1.433 . S
C537 N539 1.384 . S
N538 C534 1.427 . S
N538 C535 1.384 . S
N539 C531 1.427 . S
N539 C537 1.384 . S
H540 C546 0.930 1_455 S
H541 C550 0.930 . S
H542 C555 0.929 . S
H543 C553 0.929 . S
H544 C548 0.929 . S
H545 C554 0.929 . S
C546 H540 0.930 1_655 S
C546 C547 1.367 . S
C546 C554 1.378 . S
C547 C546 1.367 . S
C547 C555 1.433 . S
C548 H544 0.929 . S
C548 C550 1.378 . S
C548 C552 1.350 . S
C549 C552 1.463 . S
C549 C554 1.350 . S
C549 N557 1.427 . S
C550 H541 0.930 . S
C550 C548 1.378 . S
C550 C551 1.367 . S
C551 C550 1.367 . S
C551 C553 1.433 . S
C552 C548 1.350 . S
C552 C549 1.463 . S
C552 N556 1.427 . S
C553 H543 0.929 . S
C553 C551 1.433 . S
C553 N556 1.384 . S
C554 H545 0.929 . S
C554 C546 1.378 . S
C554 C549 1.350 . S
C555 H542 0.929 . S
C555 C547 1.433 . S
C555 N557 1.384 . S
N556 C552 1.427 . S
N556 C553 1.384 . S
N557 C549 1.427 . S
N557 C555 1.384 . S
H558 C564 0.930 . S
H559 C568 0.930 . S
H560 C573 0.929 . S
H561 C571 0.929 . S
H562 C566 0.929 . S
H563 C572 0.929 . S
C564 H558 0.930 . S
C564 C565 1.367 . S
C564 C572 1.378 . S
C565 C564 1.367 . S
C565 C573 1.433 . S
C566 H562 0.929 . S
C566 C568 1.378 . S
C566 C570 1.350 . S
C567 C570 1.463 . S
C567 C572 1.350 . S
C567 N575 1.427 . S
C568 H559 0.930 . S
C568 C566 1.378 . S
C568 C569 1.367 . S
C569 C568 1.367 . S
C569 C571 1.433 . S
C570 C566 1.350 . S
C570 C567 1.463 . S
C570 N574 1.427 . S
C571 H561 0.929 . S
C571 C569 1.433 . S
C571 N574 1.384 . S
C572 H563 0.929 . S
C572 C564 1.378 . S
C572 C567 1.350 . S
C573 H560 0.929 . S
C573 C565 1.433 . S
C573 N575 1.384 . S
N574 C570 1.427 . S
N574 C571 1.384 . S
N575 C567 1.427 . S
N575 C573 1.384 . S
H576 C582 0.930 . S
H577 C586 0.930 . S
H578 C591 0.929 . S
H579 C589 0.929 . S
H580 C584 0.929 . S
H581 C590 0.929 . S
C582 H576 0.930 . S
C582 C583 1.367 . S
C582 C590 1.378 . S
C583 C582 1.367 . S
C583 C591 1.433 . S
C584 H580 0.929 . S
C584 C586 1.378 . S
C584 C588 1.350 . S
C585 C588 1.463 . S
C585 C590 1.350 . S
C585 N593 1.427 . S
C586 H577 0.930 . S
C586 C584 1.378 . S
C586 C587 1.367 . S
C587 C586 1.367 . S
C587 C589 1.433 . S
C588 C584 1.350 . S
C588 C585 1.463 . S
C588 N592 1.427 . S
C589 H579 0.929 . S
C589 C587 1.433 . S
C589 N592 1.384 . S
C590 H581 0.929 . S
C590 C582 1.378 . S
C590 C585 1.350 . S
C591 H578 0.929 . S
C591 C583 1.433 . S
C591 N593 1.384 . S
N592 C588 1.427 . S
N592 C589 1.384 . S
N593 C585 1.427 . S
N593 C591 1.384 . S
H594 C600 0.930 . S
H595 C604 0.930 . S
H596 C609 0.929 . S
H597 C607 0.929 . S
H598 C602 0.929 . S
H599 C608 0.929 . S
C600 H594 0.930 . S
C600 C601 1.367 . S
C600 C608 1.378 . S
C601 C600 1.367 . S
C601 C609 1.433 . S
C602 H598 0.929 . S
C602 C604 1.378 . S
C602 C606 1.350 . S
C603 C606 1.463 . S
C603 C608 1.350 . S
C603 N611 1.427 . S
C604 H595 0.930 . S
C604 C602 1.378 . S
C604 C605 1.367 . S
C605 C604 1.367 . S
C605 C607 1.433 . S
C606 C602 1.350 . S
C606 C603 1.463 . S
C606 N610 1.427 . S
C607 H597 0.929 . S
C607 C605 1.433 . S
C607 N610 1.384 . S
C608 H599 0.929 . S
C608 C600 1.378 . S
C608 C603 1.350 . S
C609 H596 0.929 . S
C609 C601 1.433 . S
C609 N611 1.384 . S
N610 C606 1.427 . S
N610 C607 1.384 . S
N611 C603 1.427 . S
N611 C609 1.384 . S
H612 C618 0.930 . S
H613 C622 0.930 1_556 S
H614 C627 0.929 . S
H615 C625 0.929 . S
H616 C620 0.929 . S
H617 C626 0.929 . S
C618 H612 0.930 . S
C618 C619 1.367 . S
C618 C626 1.378 . S
C619 C618 1.367 . S
C619 C627 1.433 . S
C620 H616 0.929 . S
C620 C622 1.378 . S
C620 C624 1.350 . S
C621 C624 1.463 . S
C621 C626 1.350 . S
C621 N629 1.427 . S
C622 H613 0.930 1_554 S
C622 C620 1.378 . S
C622 C623 1.367 . S
C623 C622 1.367 . S
C623 C625 1.433 . S
C624 C620 1.350 . S
C624 C621 1.463 . S
C624 N628 1.427 . S
C625 H615 0.929 . S
C625 C623 1.433 . S
C625 N628 1.384 . S
C626 H617 0.929 . S
C626 C618 1.378 . S
C626 C621 1.350 . S
C627 H614 0.929 . S
C627 C619 1.433 . S
C627 N629 1.384 . S
N628 C624 1.427 . S
N628 C625 1.384 . S
N629 C621 1.427 . S
N629 C627 1.384 . S
H630 C636 0.930 . S
H631 C640 0.930 1_556 S
H632 C645 0.929 . S
H633 C643 0.929 1_545 S
H634 C638 0.929 . S
H635 C644 0.929 . S
C636 H630 0.930 . S
C636 C637 1.367 . S
C636 C644 1.378 . S
C637 C636 1.367 . S
C637 C645 1.433 . S
C638 H634 0.929 . S
C638 C640 1.378 . S
C638 C642 1.350 . S
C639 C642 1.463 . S
C639 C644 1.350 . S
C639 N647 1.427 . S
C640 H631 0.930 1_554 S
C640 C638 1.378 . S
C640 C641 1.367 . S
C641 C640 1.367 . S
C641 C643 1.433 . S
C642 C638 1.350 . S
C642 C639 1.463 . S
C642 N646 1.427 . S
C643 H633 0.929 1_565 S
C643 C641 1.433 . S
C643 N646 1.384 . S
C644 H635 0.929 . S
C644 C636 1.378 . S
C644 C639 1.350 . S
C645 H632 0.929 . S
C645 C637 1.433 . S
C645 N647 1.384 . S
N646 C642 1.427 . S
N646 C643 1.384 . S
N647 C639 1.427 . S
N647 C645 1.384 . S
H648 C654 0.930 . S
H649 C658 0.930 . S
H650 C663 0.929 . S
H651 C661 0.929 1_556 S
H652 C656 0.929 . S
H653 C662 0.929 . S
C654 H648 0.930 . S
C654 C655 1.367 . S
C654 C662 1.378 . S
C655 C654 1.367 . S
C655 C663 1.433 . S
C656 H652 0.929 . S
C656 C658 1.378 . S
C656 C660 1.350 . S
C657 C660 1.463 . S
C657 C662 1.350 . S
C657 N665 1.427 . S
C658 H649 0.930 . S
C658 C656 1.378 . S
C658 C659 1.367 . S
C659 C658 1.367 . S
C659 C661 1.433 . S
C660 C656 1.350 . S
C660 C657 1.463 . S
C660 N664 1.427 . S
C661 H651 0.929 1_554 S
C661 C659 1.433 . S
C661 N664 1.384 . S
C662 H653 0.929 . S
C662 C654 1.378 . S
C662 C657 1.350 . S
C663 H650 0.929 . S
C663 C655 1.433 . S
C663 N665 1.384 . S
N664 C660 1.427 . S
N664 C661 1.384 . S
N665 C657 1.427 . S
N665 C663 1.384 . S
H666 C672 0.930 . S
H667 C676 0.930 . S
H668 C681 0.929 . S
H669 C679 0.929 . S
H670 C674 0.929 . S
H671 C680 0.929 . S
C672 H666 0.930 . S
C672 C673 1.367 . S
C672 C680 1.378 . S
C673 C672 1.367 . S
C673 C681 1.433 . S
C674 H670 0.929 . S
C674 C676 1.378 . S
C674 C678 1.350 . S
C675 C678 1.463 . S
C675 C680 1.350 . S
C675 N683 1.427 . S
C676 H667 0.930 . S
C676 C674 1.378 . S
C676 C677 1.367 . S
C677 C676 1.367 . S
C677 C679 1.433 . S
C678 C674 1.350 . S
C678 C675 1.463 . S
C678 N682 1.427 . S
C679 H669 0.929 . S
C679 C677 1.433 . S
C679 N682 1.384 . S
C680 H671 0.929 . S
C680 C672 1.378 . S
C680 C675 1.350 . S
C681 H668 0.929 . S
C681 C673 1.433 . S
C681 N683 1.384 . S
N682 C678 1.427 . S
N682 C679 1.384 . S
N683 C675 1.427 . S
N683 C681 1.384 . S
H684 C690 0.930 . S
H685 C694 0.930 . S
H686 C699 0.929 . S
H687 C697 0.929 . S
H688 C692 0.929 . S
H689 C698 0.929 . S
C690 H684 0.930 . S
C690 C691 1.367 . S
C690 C698 1.378 . S
C691 C690 1.367 . S
C691 C699 1.433 . S
C692 H688 0.929 . S
C692 C694 1.378 . S
C692 C696 1.350 . S
C693 C696 1.463 . S
C693 C698 1.350 . S
C693 N701 1.427 . S
C694 H685 0.930 . S
C694 C692 1.378 . S
C694 C695 1.367 . S
C695 C694 1.367 . S
C695 C697 1.433 . S
C696 C692 1.350 . S
C696 C693 1.463 . S
C696 N700 1.427 . S
C697 H687 0.929 . S
C697 C695 1.433 . S
C697 N700 1.384 . S
C698 H689 0.929 . S
C698 C690 1.378 . S
C698 C693 1.350 . S
C699 H686 0.929 . S
C699 C691 1.433 . S
C699 N701 1.384 . S
N700 C696 1.427 . S
N700 C697 1.384 . S
N701 C693 1.427 . S
N701 C699 1.384 . S
H702 C708 0.930 . S
H703 C712 0.930 . S
H704 C717 0.929 . S
H705 C715 0.929 . S
H706 C710 0.929 . S
H707 C716 0.929 . S
C708 H702 0.930 . S
C708 C709 1.367 . S
C708 C716 1.378 . S
C709 C708 1.367 . S
C709 C717 1.433 . S
C710 H706 0.929 . S
C710 C712 1.378 . S
C710 C714 1.350 . S
C711 C714 1.463 . S
C711 C716 1.350 . S
C711 N719 1.427 . S
C712 H703 0.930 . S
C712 C710 1.378 . S
C712 C713 1.367 . S
C713 C712 1.367 . S
C713 C715 1.433 . S
C714 C710 1.350 . S
C714 C711 1.463 . S
C714 N718 1.427 . S
C715 H705 0.929 . S
C715 C713 1.433 . S
C715 N718 1.384 . S
C716 H707 0.929 . S
C716 C708 1.378 . S
C716 C711 1.350 . S
C717 H704 0.929 . S
C717 C709 1.433 . S
C717 N719 1.384 . S
N718 C714 1.427 . S
N718 C715 1.384 . S
N719 C711 1.427 . S
N719 C717 1.384 . S
H720 C726 0.930 . S
H721 C730 0.930 . S
H722 C735 0.929 . S
H723 C733 0.929 . S
H724 C728 0.929 . S
H725 C734 0.929 . S
C726 H720 0.930 . S
C726 C727 1.367 . S
C726 C734 1.378 . S
C727 C726 1.367 . S
C727 C735 1.433 . S
C728 H724 0.929 . S
C728 C730 1.378 . S
C728 C732 1.350 . S
C729 C732 1.463 1_455 S
C729 C734 1.350 . S
C729 N737 1.427 . S
C730 H721 0.930 . S
C730 C728 1.378 . S
C730 C731 1.367 . S
C731 C730 1.367 . S
C731 C733 1.433 . S
C732 C728 1.350 . S
C732 C729 1.463 1_655 S
C732 N736 1.427 . S
C733 H723 0.929 . S
C733 C731 1.433 . S
C733 N736 1.384 . S
C734 H725 0.929 . S
C734 C726 1.378 . S
C734 C729 1.350 . S
C735 H722 0.929 . S
C735 C727 1.433 . S
C735 N737 1.384 . S
N736 C732 1.427 . S
N736 C733 1.384 . S
N737 C729 1.427 . S
N737 C735 1.384 . S
H738 C744 0.930 . S
H739 C748 0.930 . S
H740 C753 0.929 . S
H741 C751 0.929 . S
H742 C746 0.929 . S
H743 C752 0.929 . S
C744 H738 0.930 . S
C744 C745 1.367 . S
C744 C752 1.378 . S
C745 C744 1.367 . S
C745 C753 1.433 . S
C746 H742 0.929 . S
C746 C748 1.378 . S
C746 C750 1.350 . S
C747 C750 1.463 . S
C747 C752 1.350 . S
C747 N755 1.427 . S
C748 H739 0.930 . S
C748 C746 1.378 . S
C748 C749 1.367 . S
C749 C748 1.367 . S
C749 C751 1.433 . S
C750 C746 1.350 . S
C750 C747 1.463 . S
C750 N754 1.427 . S
C751 H741 0.929 . S
C751 C749 1.433 . S
C751 N754 1.384 . S
C752 H743 0.929 . S
C752 C744 1.378 . S
C752 C747 1.350 . S
C753 H740 0.929 . S
C753 C745 1.433 . S
C753 N755 1.384 . S
N754 C750 1.427 . S
N754 C751 1.384 . S
N755 C747 1.427 . S
N755 C753 1.384 . S
H756 C762 0.930 . S
H757 C766 0.930 . S
H758 C771 0.929 . S
H759 C769 0.929 . S
H760 C764 0.929 . S
H761 C770 0.962 . S
C762 H756 0.930 . S
C762 C763 1.367 . S
C762 C770 1.356 1_565 S
C763 C762 1.367 . S
C763 C771 1.433 . S
C764 H760 0.929 . S
C764 C766 1.378 . S
C764 C768 1.350 . S
C765 C768 1.433 1_565 S
C765 C770 1.324 1_565 S
C765 N773 1.476 . S
C766 H757 0.930 . S
C766 C764 1.378 . S
C766 C767 1.367 . S
C767 C766 1.367 . S
C767 C769 1.433 . S
C768 C764 1.350 . S
C768 C765 1.433 1_545 S
C768 N772 1.427 . S
C769 H759 0.929 . S
C769 C767 1.433 . S
C769 N772 1.384 . S
C770 H761 0.962 . S
C770 C762 1.356 1_545 S
C770 C765 1.324 1_545 S
C771 H758 0.929 . S
C771 C763 1.433 . S
C771 N773 1.384 . S
N772 C768 1.427 . S
N772 C769 1.384 . S
N773 C765 1.476 . S
N773 C771 1.384 . S
H774 C780 0.930 . S
H775 C784 0.930 . S
H776 C789 0.929 . S
H777 C787 0.929 . S
H778 C782 0.929 . S
H779 C788 0.929 . S
C780 H774 0.930 . S
C780 C781 1.367 . S
C780 C788 1.378 . S
C781 C780 1.367 . S
C781 C789 1.433 . S
C782 H778 0.929 . S
C782 C784 1.378 . S
C782 C786 1.350 . S
C783 C786 1.463 1_565 S
C783 C788 1.350 . S
C783 N791 1.427 . S
C784 H775 0.930 . S
C784 C782 1.378 . S
C784 C785 1.367 . S
C785 C784 1.367 . S
C785 C787 1.433 . S
C786 C782 1.350 . S
C786 C783 1.463 1_545 S
C786 N790 1.427 . S
C787 H777 0.929 . S
C787 C785 1.433 . S
C787 N790 1.384 . S
C788 H779 0.929 . S
C788 C780 1.378 . S
C788 C783 1.350 . S
C789 H776 0.929 . S
C789 C781 1.433 . S
C789 N791 1.384 . S
N790 C786 1.427 . S
N790 C787 1.384 . S
N791 C783 1.427 . S
N791 C789 1.384 . S
H792 C798 0.930 . S
H793 C802 0.930 . S
H794 C807 0.929 . S
H795 C805 0.929 . S
H796 C800 0.941 . S
H797 C806 0.929 . S
C798 H792 0.930 . S
C798 C799 1.367 . S
C798 C806 1.378 . S
C799 C798 1.367 . S
C799 C807 1.433 . S
C800 H796 0.941 . S
C800 C802 1.378 . S
C800 C804 1.350 . S
C801 C804 1.463 1_455 S
C801 C806 1.350 . S
C801 N809 1.427 . S
C802 H793 0.930 . S
C802 C800 1.378 . S
C802 C803 1.367 . S
C803 C802 1.367 . S
C803 C805 1.433 . S
C804 C800 1.350 . S
C804 C801 1.463 1_655 S
C804 N808 1.427 . S
C805 H795 0.929 . S
C805 C803 1.433 . S
C805 N808 1.384 . S
C806 H797 0.929 . S
C806 C798 1.378 . S
C806 C801 1.350 . S
C807 H794 0.929 . S
C807 C799 1.433 . S
C807 N809 1.384 . S
N808 C804 1.427 . S
N808 C805 1.384 . S
N809 C801 1.427 . S
N809 C807 1.384 . S
H810 C816 0.930 . S
H811 C820 0.930 . S
H812 C825 0.929 . S
H813 C823 0.929 . S
H814 C818 0.929 . S
H815 C824 0.929 . S
C816 H810 0.930 . S
C816 C817 1.367 . S
C816 C824 1.378 . S
C817 C816 1.367 . S
C817 C825 1.433 . S
C818 H814 0.929 . S
C818 C820 1.378 . S
C818 C822 1.350 . S
C819 C822 1.463 . S
C819 C824 1.350 . S
C819 N827 1.427 . S
C820 H811 0.930 . S
C820 C818 1.378 . S
C820 C821 1.367 . S
C821 C820 1.367 . S
C821 C823 1.433 . S
C822 C818 1.350 . S
C822 C819 1.463 . S
C822 N826 1.427 . S
C823 H813 0.929 . S
C823 C821 1.433 . S
C823 N826 1.384 . S
C824 H815 0.929 . S
C824 C816 1.378 . S
C824 C819 1.350 . S
C825 H812 0.929 . S
C825 C817 1.433 . S
C825 N827 1.384 . S
N826 C822 1.427 . S
N826 C823 1.384 . S
N827 C819 1.427 . S
N827 C825 1.384 . S
H828 C834 0.930 . S
H829 C838 0.934 . S
H830 C843 0.929 . S
H831 C841 0.929 . S
H832 C836 0.929 1_556 S
H833 C842 0.929 . S
C834 H828 0.930 . S
C834 C835 1.353 1_554 S
C834 C842 1.378 . S
C835 C834 1.353 1_556 S
C835 C843 1.443 . S
C836 H832 0.929 1_554 S
C836 C838 1.378 . S
C836 C840 1.350 . S
C837 C840 1.463 . S
C837 C842 1.350 . S
C837 N845 1.427 1_554 S
C838 H829 0.934 . S
C838 C836 1.378 . S
C838 C839 1.367 . S
C839 C838 1.367 . S
C839 C841 1.433 . S
C840 C836 1.350 . S
C840 C837 1.463 . S
C840 N844 1.427 . S
C841 H831 0.929 . S
C841 C839 1.433 . S
C841 N844 1.384 . S
C842 H833 0.929 . S
C842 C834 1.378 . S
C842 C837 1.350 . S
C843 H830 0.929 . S
C843 C835 1.443 . S
C843 N845 1.384 . S
N844 C840 1.427 . S
N844 C841 1.384 . S
N845 C837 1.427 1_556 S
N845 C843 1.384 . S
H846 C852 0.930 . S
H847 C856 0.931 . S
H848 C861 0.929 . S
H849 C859 0.929 . S
H850 C854 0.929 1_556 S
H851 C860 0.929 . S
C852 H846 0.930 . S
C852 C853 1.353 1_554 S
C852 C860 1.378 . S
C853 C852 1.353 1_556 S
C853 C861 1.444 . S
C854 H850 0.929 1_554 S
C854 C856 1.378 . S
C854 C858 1.350 . S
C855 C858 1.463 . S
C855 C860 1.350 . S
C855 N863 1.427 1_554 S
C856 H847 0.931 . S
C856 C854 1.378 . S
C856 C857 1.367 . S
C857 C856 1.367 . S
C857 C859 1.433 . S
C858 C854 1.350 . S
C858 C855 1.463 . S
C858 N862 1.427 . S
C859 H849 0.929 . S
C859 C857 1.433 . S
C859 N862 1.384 . S
C860 H851 0.929 . S
C860 C852 1.378 . S
C860 C855 1.350 . S
C861 H848 0.929 . S
C861 C853 1.444 . S
C861 N863 1.384 . S
N862 C858 1.427 . S
N862 C859 1.384 . S
N863 C855 1.427 1_556 S
N863 C861 1.384 . S
H864 C870 0.930 . S
H865 C874 0.930 . S
H866 C879 0.929 . S
H867 C877 0.929 . S
H868 C872 0.929 . S
H869 C878 0.929 . S
C870 H864 0.930 . S
C870 C871 1.367 . S
C870 C878 1.378 . S
C871 C870 1.367 . S
C871 C879 1.433 1_556 S
C872 H868 0.929 . S
C872 C874 1.378 . S
C872 C876 1.350 . S
C873 C876 1.463 . S
C873 C878 1.350 1_554 S
C873 N881 1.427 . S
C874 H865 0.930 . S
C874 C872 1.378 . S
C874 C875 1.367 . S
C875 C874 1.367 . S
C875 C877 1.433 1_554 S
C876 C872 1.350 . S
C876 C873 1.463 . S
C876 N880 1.427 1_554 S
C877 H867 0.929 . S
C877 C875 1.433 1_556 S
C877 N880 1.384 . S
C878 H869 0.929 . S
C878 C870 1.378 . S
C878 C873 1.350 1_556 S
C879 H866 0.929 . S
C879 C871 1.433 1_554 S
C879 N881 1.384 . S
N880 C876 1.427 1_556 S
N880 C877 1.384 . S
N881 C873 1.427 . S
N881 C879 1.384 . S
H882 C888 0.930 . S
H883 C892 0.930 . S
H884 C897 0.929 . S
H885 C895 0.929 . S
H886 C890 0.929 . S
H887 C896 0.929 . S
C888 H882 0.930 . S
C888 C889 1.367 . S
C888 C896 1.378 . S
C889 C888 1.367 . S
C889 C897 1.433 . S
C890 H886 0.929 . S
C890 C892 1.378 . S
C890 C894 1.350 . S
C891 C894 1.463 . S
C891 C896 1.350 . S
C891 N899 1.427 . S
C892 H883 0.930 . S
C892 C890 1.378 . S
C892 C893 1.367 . S
C893 C892 1.367 . S
C893 C895 1.433 . S
C894 C890 1.350 . S
C894 C891 1.463 . S
C894 N898 1.427 . S
C895 H885 0.929 . S
C895 C893 1.433 . S
C895 N898 1.384 . S
C896 H887 0.929 . S
C896 C888 1.378 . S
C896 C891 1.350 . S
C897 H884 0.929 . S
C897 C889 1.433 . S
C897 N899 1.384 . S
N898 C894 1.427 . S
N898 C895 1.384 . S
N899 C891 1.427 . S
N899 C897 1.384 . S
H900 C906 0.930 . S
H901 C910 0.930 . S
H902 C915 0.929 . S
H903 C913 0.929 . S
H904 C908 0.929 . S
H905 C914 0.929 . S
C906 H900 0.930 . S
C906 C907 1.367 . S
C906 C914 1.378 . S
C907 C906 1.367 . S
C907 C915 1.433 . S
C908 H904 0.929 . S
C908 C910 1.378 . S
C908 C912 1.350 . S
C909 C912 1.463 . S
C909 C914 1.350 . S
C909 N917 1.427 . S
C910 H901 0.930 . S
C910 C908 1.378 . S
C910 C911 1.367 . S
C911 C910 1.367 . S
C911 C913 1.433 . S
C912 C908 1.350 . S
C912 C909 1.463 . S
C912 N916 1.427 . S
C913 H903 0.929 . S
C913 C911 1.433 . S
C913 N916 1.384 . S
C914 H905 0.929 . S
C914 C906 1.378 . S
C914 C909 1.350 . S
C915 H902 0.929 . S
C915 C907 1.433 . S
C915 N917 1.384 . S
N916 C912 1.427 . S
N916 C913 1.384 . S
N917 C909 1.427 . S
N917 C915 1.384 . S
H918 C924 0.930 . S
H919 C928 0.930 . S
H920 C933 0.929 . S
H921 C931 0.929 . S
H922 C926 0.929 . S
H923 C932 0.929 . S
C924 H918 0.930 . S
C924 C925 1.367 . S
C924 C932 1.378 . S
C925 C924 1.367 . S
C925 C933 1.433 . S
C926 H922 0.929 . S
C926 C928 1.378 . S
C926 C930 1.350 . S
C927 C930 1.463 . S
C927 C932 1.350 . S
C927 N935 1.427 . S
C928 H919 0.930 . S
C928 C926 1.378 . S
C928 C929 1.367 . S
C929 C928 1.367 . S
C929 C931 1.433 . S
C930 C926 1.350 . S
C930 C927 1.463 . S
C930 N934 1.427 . S
C931 H921 0.929 . S
C931 C929 1.433 . S
C931 N934 1.384 . S
C932 H923 0.929 . S
C932 C924 1.378 . S
C932 C927 1.350 . S
C933 H920 0.929 . S
C933 C925 1.433 . S
C933 N935 1.384 . S
N934 C930 1.427 . S
N934 C931 1.384 . S
N935 C927 1.427 . S
N935 C933 1.384 . S
H936 C942 0.930 . S
H937 C946 0.930 . S
H938 C951 0.929 . S
H939 C949 0.929 . S
H940 C944 0.929 . S
H941 C950 0.929 . S
C942 H936 0.930 . S
C942 C943 1.367 1_556 S
C942 C950 1.378 . S
C943 C942 1.367 1_554 S
C943 C951 1.433 . S
C944 H940 0.929 . S
C944 C946 1.378 . S
C944 C948 1.350 1_554 S
C945 C948 1.465 . S
C945 C950 1.369 . S
C945 N953 1.405 1_556 S
C946 H937 0.930 . S
C946 C944 1.378 . S
C946 C947 1.367 1_554 S
C947 C946 1.367 1_556 S
C947 C949 1.433 . S
C948 C944 1.350 1_556 S
C948 C945 1.465 . S
C948 N952 1.427 . S
C949 H939 0.929 . S
C949 C947 1.433 . S
C949 N952 1.384 . S
C950 H941 0.929 . S
C950 C942 1.378 . S
C950 C945 1.369 . S
C951 H938 0.929 . S
C951 C943 1.433 . S
C951 N953 1.384 . S
N952 C948 1.427 . S
N952 C949 1.384 . S
N953 C945 1.405 1_554 S
N953 C951 1.384 . S
H954 C960 0.930 . S
H955 C964 0.930 . S
H956 C969 0.929 . S
H957 C967 0.929 . S
H958 C962 0.929 . S
H959 C968 0.929 . S
C960 H954 0.930 . S
C960 C961 1.367 . S
C960 C968 1.378 . S
C961 C960 1.367 . S
C961 C969 1.433 1_556 S
C962 H958 0.929 . S
C962 C964 1.378 . S
C962 C966 1.350 . S
C963 C966 1.463 1_556 S
C963 C968 1.350 . S
C963 N971 1.427 1_556 S
C964 H955 0.930 . S
C964 C962 1.378 . S
C964 C965 1.367 . S
C965 C964 1.367 . S
C965 C967 1.433 1_554 S
C966 C962 1.350 . S
C966 C963 1.463 1_554 S
C966 N970 1.427 1_554 S
C967 H957 0.929 . S
C967 C965 1.433 1_556 S
C967 N970 1.384 . S
C968 H959 0.929 . S
C968 C960 1.378 . S
C968 C963 1.350 . S
C969 H956 0.929 . S
C969 C961 1.433 1_554 S
C969 N971 1.384 . S
N970 C966 1.427 1_556 S
N970 C967 1.384 . S
N971 C963 1.427 1_554 S
N971 C969 1.384 . S
H972 C978 0.930 . S
H973 C982 0.930 . S
H974 C987 0.929 . S
H975 C985 0.929 . S
H976 C980 0.929 . S
H977 C986 0.929 . S
C978 H972 0.930 . S
C978 C979 1.367 . S
C978 C986 1.378 . S
C979 C978 1.367 . S
C979 C987 1.433 . S
C980 H976 0.929 . S
C980 C982 1.378 . S
C980 C984 1.350 1_556 S
C981 C984 1.463 . S
C981 C986 1.350 . S
C981 N989 1.427 . S
C982 H973 0.930 . S
C982 C980 1.378 . S
C982 C983 1.367 . S
C983 C982 1.367 . S
C983 C985 1.433 1_556 S
C984 C980 1.350 1_554 S
C984 C981 1.463 . S
C984 N988 1.427 . S
C985 H975 0.929 . S
C985 C983 1.433 1_554 S
C985 N988 1.384 . S
C986 H977 0.929 . S
C986 C978 1.378 . S
C986 C981 1.350 . S
C987 H974 0.929 . S
C987 C979 1.433 . S
C987 N989 1.384 . S
N988 C984 1.427 . S
N988 C985 1.384 . S
N989 C981 1.427 . S
N989 C987 1.384 . S
H990 C996 0.930 . S
H991 C1000 0.930 . S
H992 C1005 0.929 . S
H993 C1003 0.929 . S
H994 C998 0.929 . S
H995 C1004 0.929 . S
C996 H990 0.930 . S
C996 C997 1.367 . S
C996 C1004 1.378 . S
C997 C996 1.367 . S
C997 C1005 1.433 . S
C998 H994 0.929 . S
C998 C1000 1.378 . S
C998 C1002 1.350 . S
C999 C1002 1.463 . S
C999 C1004 1.350 . S
C999 N1007 1.427 . S
C1000 H991 0.930 . S
C1000 C998 1.378 . S
C1000 C1001 1.367 . S
C1001 C1000 1.367 . S
C1001 C1003 1.433 . S
C1002 C998 1.350 . S
C1002 C999 1.463 . S
C1002 N1006 1.427 . S
C1003 H993 0.929 . S
C1003 C1001 1.433 . S
C1003 N1006 1.384 . S
C1004 H995 0.929 . S
C1004 C996 1.378 . S
C1004 C999 1.350 . S
C1005 H992 0.929 . S
C1005 C997 1.433 . S
C1005 N1007 1.384 . S
N1006 C1002 1.427 . S
N1006 C1003 1.384 . S
N1007 C999 1.427 . S
N1007 C1005 1.384 . S
H1008 C1014 0.930 . S
H1009 C1018 0.930 . S
H1010 C1023 0.929 . S
H1011 C1021 0.929 . S
H1012 C1016 0.929 . S
H1013 C1022 0.929 . S
C1014 H1008 0.930 . S
C1014 C1015 1.367 . S
C1014 C1022 1.378 . S
C1015 C1014 1.367 . S
C1015 C1023 1.433 . S
C1016 H1012 0.929 . S
C1016 C1018 1.378 . S
C1016 C1020 1.350 . S
C1017 C1020 1.463 . S
C1017 C1022 1.350 . S
C1017 N1025 1.427 . S
C1018 H1009 0.930 . S
C1018 C1016 1.378 . S
C1018 C1019 1.367 . S
C1019 C1018 1.367 . S
C1019 C1021 1.433 . S
C1020 C1016 1.350 . S
C1020 C1017 1.463 . S
C1020 N1024 1.427 . S
C1021 H1011 0.929 . S
C1021 C1019 1.433 . S
C1021 N1024 1.384 . S
C1022 H1013 0.929 . S
C1022 C1014 1.378 . S
C1022 C1017 1.350 . S
C1023 H1010 0.929 . S
C1023 C1015 1.433 . S
C1023 N1025 1.384 . S
N1024 C1020 1.427 . S
N1024 C1021 1.384 . S
N1025 C1017 1.427 . S
N1025 C1023 1.384 . S
H1026 C1032 0.930 . S
H1027 C1036 0.930 . S
H1028 C1041 0.929 . S
H1029 C1039 0.929 . S
H1030 C1034 0.929 . S
H1031 C1040 0.929 . S
C1032 H1026 0.930 . S
C1032 C1033 1.367 . S
C1032 C1040 1.378 . S
C1033 C1032 1.367 . S
C1033 C1041 1.433 . S
C1034 H1030 0.929 . S
C1034 C1036 1.378 . S
C1034 C1038 1.350 . S
C1035 C1038 1.463 . S
C1035 C1040 1.350 . S
C1035 N1043 1.427 . S
C1036 H1027 0.930 . S
C1036 C1034 1.378 . S
C1036 C1037 1.367 . S
C1037 C1036 1.367 . S
C1037 C1039 1.433 . S
C1038 C1034 1.350 . S
C1038 C1035 1.463 . S
C1038 N1042 1.427 . S
C1039 H1029 0.929 . S
C1039 C1037 1.433 . S
C1039 N1042 1.384 . S
C1040 H1031 0.929 . S
C1040 C1032 1.378 . S
C1040 C1035 1.350 . S
C1041 H1028 0.929 . S
C1041 C1033 1.433 . S
C1041 N1043 1.384 . S
N1042 C1038 1.427 . S
N1042 C1039 1.384 . S
N1043 C1035 1.427 . S
N1043 C1041 1.384 . S
H1044 C1050 0.930 . S
H1045 C1054 0.930 . S
H1046 C1059 0.929 . S
H1047 C1057 0.929 . S
H1048 C1052 0.929 . S
H1049 C1058 0.929 . S
C1050 H1044 0.930 . S
C1050 C1051 1.367 . S
C1050 C1058 1.378 . S
C1051 C1050 1.367 . S
C1051 C1059 1.433 . S
C1052 H1048 0.929 . S
C1052 C1054 1.378 . S
C1052 C1056 1.350 . S
C1053 C1056 1.463 . S
C1053 C1058 1.350 . S
C1053 N1061 1.427 . S
C1054 H1045 0.930 . S
C1054 C1052 1.378 . S
C1054 C1055 1.367 . S
C1055 C1054 1.367 . S
C1055 C1057 1.433 . S
C1056 C1052 1.350 . S
C1056 C1053 1.463 . S
C1056 N1060 1.427 . S
C1057 H1047 0.929 . S
C1057 C1055 1.433 . S
C1057 N1060 1.384 . S
C1058 H1049 0.929 . S
C1058 C1050 1.378 . S
C1058 C1053 1.350 . S
C1059 H1046 0.929 . S
C1059 C1051 1.433 . S
C1059 N1061 1.384 . S
N1060 C1056 1.427 . S
N1060 C1057 1.384 . S
N1061 C1053 1.427 . S
N1061 C1059 1.384 . S
H1062 C1068 0.930 . S
H1063 C1072 0.930 . S
H1064 C1077 0.929 . S
H1065 C1075 0.929 . S
H1066 C1070 0.929 . S
H1067 C1076 0.929 . S
C1068 H1062 0.930 . S
C1068 C1069 1.367 . S
C1068 C1076 1.378 . S
C1069 C1068 1.367 . S
C1069 C1077 1.433 . S
C1070 H1066 0.929 . S
C1070 C1072 1.378 . S
C1070 C1074 1.350 . S
C1071 C1074 1.463 . S
C1071 C1076 1.350 . S
C1071 N1079 1.427 . S
C1072 H1063 0.930 . S
C1072 C1070 1.378 . S
C1072 C1073 1.367 . S
C1073 C1072 1.367 . S
C1073 C1075 1.433 . S
C1074 C1070 1.350 . S
C1074 C1071 1.463 . S
C1074 N1078 1.427 . S
C1075 H1065 0.929 . S
C1075 C1073 1.433 . S
C1075 N1078 1.384 . S
C1076 H1067 0.929 . S
C1076 C1068 1.378 . S
C1076 C1071 1.350 . S
C1077 H1064 0.929 . S
C1077 C1069 1.433 . S
C1077 N1079 1.384 . S
N1078 C1074 1.427 . S
N1078 C1075 1.384 . S
N1079 C1071 1.427 . S
N1079 C1077 1.384 . S
H1080 C1086 0.930 . S
H1081 C1090 0.930 . S
H1082 C1095 0.929 . S
H1083 C1093 0.929 . S
H1084 C1088 0.929 . S
H1085 C1094 0.929 . S
C1086 H1080 0.930 . S
C1086 C1087 1.367 . S
C1086 C1094 1.378 . S
C1087 C1086 1.367 . S
C1087 C1095 1.433 . S
C1088 H1084 0.929 . S
C1088 C1090 1.378 . S
C1088 C1092 1.350 . S
C1089 C1092 1.463 . S
C1089 C1094 1.350 . S
C1089 N1097 1.427 . S
C1090 H1081 0.930 . S
C1090 C1088 1.378 . S
C1090 C1091 1.367 . S
C1091 C1090 1.367 . S
C1091 C1093 1.433 . S
C1092 C1088 1.350 . S
C1092 C1089 1.463 . S
C1092 N1096 1.427 . S
C1093 H1083 0.929 . S
C1093 C1091 1.433 . S
C1093 N1096 1.384 . S
C1094 H1085 0.929 . S
C1094 C1086 1.378 . S
C1094 C1089 1.350 . S
C1095 H1082 0.929 . S
C1095 C1087 1.433 . S
C1095 N1097 1.384 . S
N1096 C1092 1.427 . S
N1096 C1093 1.384 . S
N1097 C1089 1.427 . S
N1097 C1095 1.384 . S
H1098 C1104 0.930 . S
H1099 C1108 0.930 . S
H1100 C1113 0.929 . S
H1101 C1111 0.929 . S
H1102 C1106 0.929 . S
H1103 C1112 0.929 . S
C1104 H1098 0.930 . S
C1104 C1105 1.367 . S
C1104 C1112 1.378 . S
C1105 C1104 1.367 . S
C1105 C1113 1.433 . S
C1106 H1102 0.929 . S
C1106 C1108 1.378 . S
C1106 C1110 1.350 . S
C1107 C1110 1.463 . S
C1107 C1112 1.350 . S
C1107 N1115 1.427 . S
C1108 H1099 0.930 . S
C1108 C1106 1.378 . S
C1108 C1109 1.367 . S
C1109 C1108 1.367 . S
C1109 C1111 1.433 . S
C1110 C1106 1.350 . S
C1110 C1107 1.463 . S
C1110 N1114 1.427 . S
C1111 H1101 0.929 . S
C1111 C1109 1.433 . S
C1111 N1114 1.384 . S
C1112 H1103 0.929 . S
C1112 C1104 1.378 . S
C1112 C1107 1.350 . S
C1113 H1100 0.929 . S
C1113 C1105 1.433 . S
C1113 N1115 1.384 . S
N1114 C1110 1.427 . S
N1114 C1111 1.384 . S
N1115 C1107 1.427 . S
N1115 C1113 1.384 . S
H1116 C1122 0.930 . S
H1117 C1126 0.930 . S
H1118 C1131 0.929 . S
H1119 C1129 0.929 . S
H1120 C1124 0.929 . S
H1121 C1130 0.929 . S
C1122 H1116 0.930 . S
C1122 C1123 1.367 . S
C1122 C1130 1.378 . S
C1123 C1122 1.367 . S
C1123 C1131 1.433 . S
C1124 H1120 0.929 . S
C1124 C1126 1.378 . S
C1124 C1128 1.350 . S
C1125 C1128 1.463 . S
C1125 C1130 1.350 . S
C1125 N1133 1.427 . S
C1126 H1117 0.930 . S
C1126 C1124 1.378 . S
C1126 C1127 1.367 . S
C1127 C1126 1.367 . S
C1127 C1129 1.433 . S
C1128 C1124 1.350 . S
C1128 C1125 1.463 . S
C1128 N1132 1.427 . S
C1129 H1119 0.929 . S
C1129 C1127 1.433 . S
C1129 N1132 1.384 . S
C1130 H1121 0.929 . S
C1130 C1122 1.378 . S
C1130 C1125 1.350 . S
C1131 H1118 0.929 . S
C1131 C1123 1.433 . S
C1131 N1133 1.384 . S
N1132 C1128 1.427 . S
N1132 C1129 1.384 . S
N1133 C1125 1.427 . S
N1133 C1131 1.384 . S
H1134 C1140 0.930 . S
H1135 C1144 0.930 . S
H1136 C1149 0.929 . S
H1137 C1147 0.929 . S
H1138 C1142 0.929 . S
H1139 C1148 0.929 . S
C1140 H1134 0.930 . S
C1140 C1141 1.367 . S
C1140 C1148 1.378 . S
C1141 C1140 1.367 . S
C1141 C1149 1.433 . S
C1142 H1138 0.929 . S
C1142 C1144 1.378 . S
C1142 C1146 1.350 . S
C1143 C1146 1.463 . S
C1143 C1148 1.350 . S
C1143 N1151 1.427 . S
C1144 H1135 0.930 . S
C1144 C1142 1.378 . S
C1144 C1145 1.367 . S
C1145 C1144 1.367 . S
C1145 C1147 1.433 . S
C1146 C1142 1.350 . S
C1146 C1143 1.463 . S
C1146 N1150 1.427 . S
C1147 H1137 0.929 . S
C1147 C1145 1.433 . S
C1147 N1150 1.384 . S
C1148 H1139 0.929 . S
C1148 C1140 1.378 . S
C1148 C1143 1.350 . S
C1149 H1136 0.929 . S
C1149 C1141 1.433 . S
C1149 N1151 1.384 . S
N1150 C1146 1.427 . S
N1150 C1147 1.384 . S
N1151 C1143 1.427 . S
N1151 C1149 1.384 . S
H1152 C1158 0.930 . S
H1153 C1162 0.930 . S
H1154 C1167 0.929 . S
H1155 C1165 0.929 . S
H1156 C1160 0.929 . S
H1157 C1166 0.929 . S
C1158 H1152 0.930 . S
C1158 C1159 1.367 . S
C1158 C1166 1.378 . S
C1159 C1158 1.367 . S
C1159 C1167 1.433 . S
C1160 H1156 0.929 . S
C1160 C1162 1.378 . S
C1160 C1164 1.350 . S
C1161 C1164 1.463 . S
C1161 C1166 1.350 . S
C1161 N1169 1.427 . S
C1162 H1153 0.930 . S
C1162 C1160 1.378 . S
C1162 C1163 1.367 . S
C1163 C1162 1.367 . S
C1163 C1165 1.433 . S
C1164 C1160 1.350 . S
C1164 C1161 1.463 . S
C1164 N1168 1.427 . S
C1165 H1155 0.929 . S
C1165 C1163 1.433 . S
C1165 N1168 1.384 . S
C1166 H1157 0.929 . S
C1166 C1158 1.378 . S
C1166 C1161 1.350 . S
C1167 H1154 0.929 . S
C1167 C1159 1.433 . S
C1167 N1169 1.384 . S
N1168 C1164 1.427 . S
N1168 C1165 1.384 . S
N1169 C1161 1.427 . S
N1169 C1167 1.384 . S
H1170 C1176 0.930 . S
H1171 C1180 0.930 . S
H1172 C1185 0.929 . S
H1173 C1183 0.929 . S
H1174 C1178 0.929 . S
H1175 C1184 0.929 . S
C1176 H1170 0.930 . S
C1176 C1177 1.367 . S
C1176 C1184 1.378 . S
C1177 C1176 1.367 . S
C1177 C1185 1.433 . S
C1178 H1174 0.929 . S
C1178 C1180 1.378 . S
C1178 C1182 1.350 . S
C1179 C1182 1.463 . S
C1179 C1184 1.350 . S
C1179 N1187 1.427 . S
C1180 H1171 0.930 . S
C1180 C1178 1.378 . S
C1180 C1181 1.367 . S
C1181 C1180 1.367 . S
C1181 C1183 1.433 . S
C1182 C1178 1.350 . S
C1182 C1179 1.463 . S
C1182 N1186 1.427 . S
C1183 H1173 0.929 . S
C1183 C1181 1.433 . S
C1183 N1186 1.384 . S
C1184 H1175 0.929 . S
C1184 C1176 1.378 . S
C1184 C1179 1.350 . S
C1185 H1172 0.929 . S
C1185 C1177 1.433 . S
C1185 N1187 1.384 . S
N1186 C1182 1.427 . S
N1186 C1183 1.384 . S
N1187 C1179 1.427 . S
N1187 C1185 1.384 . S
H1188 C1194 0.930 . S
H1189 C1198 0.930 . S
H1190 C1203 0.929 . S
H1191 C1201 0.929 . S
H1192 C1196 0.929 . S
H1193 C1202 0.929 . S
C1194 H1188 0.930 . S
C1194 C1195 1.367 . S
C1194 C1202 1.378 . S
C1195 C1194 1.367 . S
C1195 C1203 1.433 . S
C1196 H1192 0.929 . S
C1196 C1198 1.378 . S
C1196 C1200 1.350 . S
C1197 C1200 1.463 . S
C1197 C1202 1.350 . S
C1197 N1205 1.427 . S
C1198 H1189 0.930 . S
C1198 C1196 1.378 . S
C1198 C1199 1.367 . S
C1199 C1198 1.367 . S
C1199 C1201 1.433 . S
C1200 C1196 1.350 . S
C1200 C1197 1.463 . S
C1200 N1204 1.427 . S
C1201 H1191 0.929 . S
C1201 C1199 1.433 . S
C1201 N1204 1.384 . S
C1202 H1193 0.929 . S
C1202 C1194 1.378 . S
C1202 C1197 1.350 . S
C1203 H1190 0.929 . S
C1203 C1195 1.433 . S
C1203 N1205 1.384 . S
N1204 C1200 1.427 . S
N1204 C1201 1.384 . S
N1205 C1197 1.427 . S
N1205 C1203 1.384 . S
H1206 C1212 0.930 . S
H1207 C1216 0.930 . S
H1208 C1221 0.929 . S
H1209 C1219 0.929 . S
H1210 C1214 0.929 . S
H1211 C1220 0.929 . S
C1212 H1206 0.930 . S
C1212 C1213 1.367 . S
C1212 C1220 1.378 . S
C1213 C1212 1.367 . S
C1213 C1221 1.433 . S
C1214 H1210 0.929 . S
C1214 C1216 1.378 . S
C1214 C1218 1.350 . S
C1215 C1218 1.463 . S
C1215 C1220 1.350 . S
C1215 N1223 1.427 . S
C1216 H1207 0.930 . S
C1216 C1214 1.378 . S
C1216 C1217 1.367 . S
C1217 C1216 1.367 . S
C1217 C1219 1.433 . S
C1218 C1214 1.350 . S
C1218 C1215 1.463 . S
C1218 N1222 1.427 . S
C1219 H1209 0.929 . S
C1219 C1217 1.433 . S
C1219 N1222 1.384 . S
C1220 H1211 0.929 . S
C1220 C1212 1.378 . S
C1220 C1215 1.350 . S
C1221 H1208 0.929 . S
C1221 C1213 1.433 . S
C1221 N1223 1.384 . S
N1222 C1218 1.427 . S
N1222 C1219 1.384 . S
N1223 C1215 1.427 . S
N1223 C1221 1.384 . S
H1224 C1230 0.930 . S
H1225 C1234 0.930 . S
H1226 C1239 0.929 . S
H1227 C1237 0.929 . S
H1228 C1232 0.929 . S
H1229 C1238 0.929 . S
C1230 H1224 0.930 . S
C1230 C1231 1.367 . S
C1230 C1238 1.378 . S
C1231 C1230 1.367 . S
C1231 C1239 1.433 . S
C1232 H1228 0.929 . S
C1232 C1234 1.378 . S
C1232 C1236 1.350 . S
C1233 C1236 1.463 . S
C1233 C1238 1.350 . S
C1233 N1241 1.427 . S
C1234 H1225 0.930 . S
C1234 C1232 1.378 . S
C1234 C1235 1.367 . S
C1235 C1234 1.367 . S
C1235 C1237 1.433 . S
C1236 C1232 1.350 . S
C1236 C1233 1.463 . S
C1236 N1240 1.427 . S
C1237 H1227 0.929 . S
C1237 C1235 1.433 . S
C1237 N1240 1.384 . S
C1238 H1229 0.929 . S
C1238 C1230 1.378 . S
C1238 C1233 1.350 . S
C1239 H1226 0.929 . S
C1239 C1231 1.433 . S
C1239 N1241 1.384 . S
N1240 C1236 1.427 . S
N1240 C1237 1.384 . S
N1241 C1233 1.427 . S
N1241 C1239 1.384 . S
H1242 C1248 0.930 . S
H1243 C1252 0.930 . S
H1244 C1257 0.929 . S
H1245 C1255 0.929 . S
H1246 C1250 0.929 . S
H1247 C1256 0.929 . S
C1248 H1242 0.930 . S
C1248 C1249 1.367 . S
C1248 C1256 1.378 . S
C1249 C1248 1.367 . S
C1249 C1257 1.433 . S
C1250 H1246 0.929 . S
C1250 C1252 1.378 . S
C1250 C1254 1.350 . S
C1251 C1254 1.463 . S
C1251 C1256 1.350 . S
C1251 N1259 1.427 . S
C1252 H1243 0.930 . S
C1252 C1250 1.378 . S
C1252 C1253 1.367 . S
C1253 C1252 1.367 . S
C1253 C1255 1.433 . S
C1254 C1250 1.350 . S
C1254 C1251 1.463 . S
C1254 N1258 1.427 . S
C1255 H1245 0.929 . S
C1255 C1253 1.433 . S
C1255 N1258 1.384 . S
C1256 H1247 0.929 . S
C1256 C1248 1.378 . S
C1256 C1251 1.350 . S
C1257 H1244 0.929 . S
C1257 C1249 1.433 . S
C1257 N1259 1.384 . S
N1258 C1254 1.427 . S
N1258 C1255 1.384 . S
N1259 C1251 1.427 . S
N1259 C1257 1.384 . S
H1260 C1266 0.930 . S
H1261 C1270 0.930 . S
H1262 C1275 0.929 . S
H1263 C1273 0.929 . S
H1264 C1268 0.929 . S
H1265 C1274 0.929 . S
C1266 H1260 0.930 . S
C1266 C1267 1.367 . S
C1266 C1274 1.378 . S
C1267 C1266 1.367 . S
C1267 C1275 1.433 . S
C1268 H1264 0.929 . S
C1268 C1270 1.378 . S
C1268 C1272 1.350 . S
C1269 C1272 1.463 . S
C1269 C1274 1.350 . S
C1269 N1277 1.427 . S
C1270 H1261 0.930 . S
C1270 C1268 1.378 . S
C1270 C1271 1.367 . S
C1271 C1270 1.367 . S
C1271 C1273 1.433 . S
C1272 C1268 1.350 . S
C1272 C1269 1.463 . S
C1272 N1276 1.427 . S
C1273 H1263 0.929 . S
C1273 C1271 1.433 . S
C1273 N1276 1.384 . S
C1274 H1265 0.929 . S
C1274 C1266 1.378 . S
C1274 C1269 1.350 . S
C1275 H1262 0.929 . S
C1275 C1267 1.433 . S
C1275 N1277 1.384 . S
N1276 C1272 1.427 . S
N1276 C1273 1.384 . S
N1277 C1269 1.427 . S
N1277 C1275 1.384 . S
H1278 C1284 0.930 . S
H1279 C1288 0.930 . S
H1280 C1293 0.929 . S
H1281 C1291 0.929 . S
H1282 C1286 0.929 . S
H1283 C1292 0.929 . S
C1284 H1278 0.930 . S
C1284 C1285 1.367 . S
C1284 C1292 1.378 . S
C1285 C1284 1.367 . S
C1285 C1293 1.433 . S
C1286 H1282 0.929 . S
C1286 C1288 1.378 . S
C1286 C1290 1.350 . S
C1287 C1290 1.463 . S
C1287 C1292 1.350 . S
C1287 N1295 1.427 . S
C1288 H1279 0.930 . S
C1288 C1286 1.378 . S
C1288 C1289 1.367 . S
C1289 C1288 1.367 . S
C1289 C1291 1.433 . S
C1290 C1286 1.350 . S
C1290 C1287 1.463 . S
C1290 N1294 1.427 . S
C1291 H1281 0.929 . S
C1291 C1289 1.433 . S
C1291 N1294 1.384 . S
C1292 H1283 0.929 . S
C1292 C1284 1.378 . S
C1292 C1287 1.350 . S
C1293 H1280 0.929 . S
C1293 C1285 1.433 . S
C1293 N1295 1.384 . S
N1294 C1290 1.427 . S
N1294 C1291 1.384 . S
N1295 C1287 1.427 . S
N1295 C1293 1.384 . S
H1296 C1302 0.930 . S
H1297 C1306 0.930 . S
H1298 C1311 0.929 . S
H1299 C1309 0.929 . S
H1300 C1304 0.929 . S
H1301 C1310 0.929 . S
C1302 H1296 0.930 . S
C1302 C1303 1.367 . S
C1302 C1310 1.378 . S
C1303 C1302 1.367 . S
C1303 C1311 1.433 . S
C1304 H1300 0.929 . S
C1304 C1306 1.378 . S
C1304 C1308 1.350 . S
C1305 C1308 1.463 . S
C1305 C1310 1.350 . S
C1305 N1313 1.427 . S
C1306 H1297 0.930 . S
C1306 C1304 1.378 . S
C1306 C1307 1.367 . S
C1307 C1306 1.367 . S
C1307 C1309 1.433 . S
C1308 C1304 1.350 . S
C1308 C1305 1.463 . S
C1308 N1312 1.427 . S
C1309 H1299 0.929 . S
C1309 C1307 1.433 . S
C1309 N1312 1.384 . S
C1310 H1301 0.929 . S
C1310 C1302 1.378 . S
C1310 C1305 1.350 . S
C1311 H1298 0.929 . S
C1311 C1303 1.433 . S
C1311 N1313 1.384 . S
N1312 C1308 1.427 . S
N1312 C1309 1.384 . S
N1313 C1305 1.427 . S
N1313 C1311 1.384 . S
H1314 C1320 0.930 . S
H1315 C1324 0.930 . S
H1316 C1329 0.929 . S
H1317 C1327 0.929 . S
H1318 C1322 0.929 . S
H1319 C1328 0.929 . S
C1320 H1314 0.930 . S
C1320 C1321 1.367 . S
C1320 C1328 1.378 . S
C1321 C1320 1.367 . S
C1321 C1329 1.433 . S
C1322 H1318 0.929 . S
C1322 C1324 1.378 . S
C1322 C1326 1.350 . S
C1323 C1326 1.463 . S
C1323 C1328 1.350 . S
C1323 N1331 1.427 . S
C1324 H1315 0.930 . S
C1324 C1322 1.378 . S
C1324 C1325 1.367 . S
C1325 C1324 1.367 . S
C1325 C1327 1.433 . S
C1326 C1322 1.350 . S
C1326 C1323 1.463 . S
C1326 N1330 1.427 . S
C1327 H1317 0.929 . S
C1327 C1325 1.433 . S
C1327 N1330 1.384 . S
C1328 H1319 0.929 . S
C1328 C1320 1.378 . S
C1328 C1323 1.350 . S
C1329 H1316 0.929 . S
C1329 C1321 1.433 . S
C1329 N1331 1.384 . S
N1330 C1326 1.427 . S
N1330 C1327 1.384 . S
N1331 C1323 1.427 . S
N1331 C1329 1.384 . S
H1332 C1338 0.930 . S
H1333 C1342 0.930 . S
H1334 C1347 0.929 . S
H1335 C1345 0.929 . S
H1336 C1340 0.929 . S
H1337 C1346 0.929 . S
C1338 H1332 0.930 . S
C1338 C1339 1.367 . S
C1338 C1346 1.378 . S
C1339 C1338 1.367 . S
C1339 C1347 1.433 . S
C1340 H1336 0.929 . S
C1340 C1342 1.378 . S
C1340 C1344 1.350 . S
C1341 C1344 1.463 . S
C1341 C1346 1.350 . S
C1341 N1349 1.427 . S
C1342 H1333 0.930 . S
C1342 C1340 1.378 . S
C1342 C1343 1.367 . S
C1343 C1342 1.367 . S
C1343 C1345 1.433 . S
C1344 C1340 1.350 . S
C1344 C1341 1.463 . S
C1344 N1348 1.427 . S
C1345 H1335 0.929 . S
C1345 C1343 1.433 . S
C1345 N1348 1.384 . S
C1346 H1337 0.929 . S
C1346 C1338 1.378 . S
C1346 C1341 1.350 . S
C1347 H1334 0.929 . S
C1347 C1339 1.433 . S
C1347 N1349 1.384 . S
N1348 C1344 1.427 . S
N1348 C1345 1.384 . S
N1349 C1341 1.427 . S
N1349 C1347 1.384 . S
H1350 C1356 0.930 . S
H1351 C1360 0.930 . S
H1352 C1365 0.929 . S
H1353 C1363 0.929 . S
H1354 C1358 0.929 . S
H1355 C1364 0.929 . S
C1356 H1350 0.930 . S
C1356 C1357 1.367 . S
C1356 C1364 1.378 . S
C1357 C1356 1.367 . S
C1357 C1365 1.433 . S
C1358 H1354 0.929 . S
C1358 C1360 1.378 . S
C1358 C1362 1.350 . S
C1359 C1362 1.463 . S
C1359 C1364 1.350 . S
C1359 N1367 1.427 . S
C1360 H1351 0.930 . S
C1360 C1358 1.378 . S
C1360 C1361 1.367 . S
C1361 C1360 1.367 . S
C1361 C1363 1.433 . S
C1362 C1358 1.350 . S
C1362 C1359 1.463 . S
C1362 N1366 1.427 . S
C1363 H1353 0.929 . S
C1363 C1361 1.433 . S
C1363 N1366 1.384 . S
C1364 H1355 0.929 . S
C1364 C1356 1.378 . S
C1364 C1359 1.350 . S
C1365 H1352 0.929 . S
C1365 C1357 1.433 . S
C1365 N1367 1.384 . S
N1366 C1362 1.427 . S
N1366 C1363 1.384 . S
N1367 C1359 1.427 . S
N1367 C1365 1.384 . S
H1368 C1374 0.930 . S
H1369 C1378 0.930 . S
H1370 C1383 0.929 . S
H1371 C1381 0.929 . S
H1372 C1376 0.929 . S
H1373 C1382 0.929 . S
C1374 H1368 0.930 . S
C1374 C1375 1.367 . S
C1374 C1382 1.378 . S
C1375 C1374 1.367 . S
C1375 C1383 1.433 . S
C1376 H1372 0.929 . S
C1376 C1378 1.378 . S
C1376 C1380 1.350 . S
C1377 C1380 1.463 . S
C1377 C1382 1.350 . S
C1377 N1385 1.427 . S
C1378 H1369 0.930 . S
C1378 C1376 1.378 . S
C1378 C1379 1.367 . S
C1379 C1378 1.367 . S
C1379 C1381 1.433 . S
C1380 C1376 1.350 . S
C1380 C1377 1.463 . S
C1380 N1384 1.427 . S
C1381 H1371 0.929 . S
C1381 C1379 1.433 . S
C1381 N1384 1.384 . S
C1382 H1373 0.929 . S
C1382 C1374 1.378 . S
C1382 C1377 1.350 . S
C1383 H1370 0.929 . S
C1383 C1375 1.433 . S
C1383 N1385 1.384 . S
N1384 C1380 1.427 . S
N1384 C1381 1.384 . S
N1385 C1377 1.427 . S
N1385 C1383 1.384 . S
H1386 C1392 0.930 . S
H1387 C1396 0.930 . S
H1388 C1401 0.929 . S
H1389 C1399 0.929 . S
H1390 C1394 0.929 . S
H1391 C1400 0.929 . S
C1392 H1386 0.930 . S
C1392 C1393 1.367 . S
C1392 C1400 1.378 . S
C1393 C1392 1.367 . S
C1393 C1401 1.433 . S
C1394 H1390 0.929 . S
C1394 C1396 1.378 . S
C1394 C1398 1.350 . S
C1395 C1398 1.463 . S
C1395 C1400 1.350 . S
C1395 N1403 1.427 . S
C1396 H1387 0.930 . S
C1396 C1394 1.378 . S
C1396 C1397 1.367 . S
C1397 C1396 1.367 . S
C1397 C1399 1.433 . S
C1398 C1394 1.350 . S
C1398 C1395 1.463 . S
C1398 N1402 1.427 . S
C1399 H1389 0.929 . S
C1399 C1397 1.433 . S
C1399 N1402 1.384 . S
C1400 H1391 0.929 . S
C1400 C1392 1.378 . S
C1400 C1395 1.350 . S
C1401 H1388 0.929 . S
C1401 C1393 1.433 . S
C1401 N1403 1.384 . S
N1402 C1398 1.427 . S
N1402 C1399 1.384 . S
N1403 C1395 1.427 . S
N1403 C1401 1.384 . S
H1404 C1410 0.930 . S
H1405 C1414 0.930 . S
H1406 C1419 0.929 . S
H1407 C1417 0.929 . S
H1408 C1412 0.929 . S
H1409 C1418 0.929 . S
C1410 H1404 0.930 . S
C1410 C1411 1.367 . S
C1410 C1418 1.378 . S
C1411 C1410 1.367 . S
C1411 C1419 1.433 . S
C1412 H1408 0.929 . S
C1412 C1414 1.378 . S
C1412 C1416 1.350 . S
C1413 C1416 1.463 . S
C1413 C1418 1.350 . S
C1413 N1421 1.427 . S
C1414 H1405 0.930 . S
C1414 C1412 1.378 . S
C1414 C1415 1.367 . S
C1415 C1414 1.367 . S
C1415 C1417 1.433 . S
C1416 C1412 1.350 . S
C1416 C1413 1.463 . S
C1416 N1420 1.427 . S
C1417 H1407 0.929 . S
C1417 C1415 1.433 . S
C1417 N1420 1.384 . S
C1418 H1409 0.929 . S
C1418 C1410 1.378 . S
C1418 C1413 1.350 . S
C1419 H1406 0.929 . S
C1419 C1411 1.433 . S
C1419 N1421 1.384 . S
N1420 C1416 1.427 . S
N1420 C1417 1.384 . S
N1421 C1413 1.427 . S
N1421 C1419 1.384 . S
H1422 C1428 0.930 . S
H1423 C1432 0.930 . S
H1424 C1437 0.929 . S
H1425 C1435 0.929 . S
H1426 C1430 0.929 . S
H1427 C1436 0.929 . S
C1428 H1422 0.930 . S
C1428 C1429 1.367 . S
C1428 C1436 1.378 . S
C1429 C1428 1.367 . S
C1429 C1437 1.433 . S
C1430 H1426 0.929 . S
C1430 C1432 1.378 . S
C1430 C1434 1.350 . S
C1431 C1434 1.463 . S
C1431 C1436 1.350 . S
C1431 N1439 1.427 . S
C1432 H1423 0.930 . S
C1432 C1430 1.378 . S
C1432 C1433 1.367 . S
C1433 C1432 1.367 . S
C1433 C1435 1.433 . S
C1434 C1430 1.350 . S
C1434 C1431 1.463 . S
C1434 N1438 1.427 . S
C1435 H1425 0.929 . S
C1435 C1433 1.433 . S
C1435 N1438 1.384 . S
C1436 H1427 0.929 . S
C1436 C1428 1.378 . S
C1436 C1431 1.350 . S
C1437 H1424 0.929 . S
C1437 C1429 1.433 . S
C1437 N1439 1.384 . S
N1438 C1434 1.427 . S
N1438 C1435 1.384 . S
N1439 C1431 1.427 . S
N1439 C1437 1.384 . S
H1440 C1446 0.930 . S
H1441 C1450 0.930 . S
H1442 C1455 0.929 . S
H1443 C1453 0.929 . S
H1444 C1448 0.929 . S
H1445 C1454 0.929 . S
C1446 H1440 0.930 . S
C1446 C1447 1.367 . S
C1446 C1454 1.378 . S
C1447 C1446 1.367 . S
C1447 C1455 1.433 . S
C1448 H1444 0.929 . S
C1448 C1450 1.378 . S
C1448 C1452 1.350 . S
C1449 C1452 1.463 . S
C1449 C1454 1.350 . S
C1449 N1457 1.427 . S
C1450 H1441 0.930 . S
C1450 C1448 1.378 . S
C1450 C1451 1.367 . S
C1451 C1450 1.367 . S
C1451 C1453 1.433 . S
C1452 C1448 1.350 . S
C1452 C1449 1.463 . S
C1452 N1456 1.427 . S
C1453 H1443 0.929 . S
C1453 C1451 1.433 . S
C1453 N1456 1.384 . S
C1454 H1445 0.929 . S
C1454 C1446 1.378 . S
C1454 C1449 1.350 . S
C1455 H1442 0.929 . S
C1455 C1447 1.433 . S
C1455 N1457 1.384 . S
N1456 C1452 1.427 . S
N1456 C1453 1.384 . S
N1457 C1449 1.427 . S
N1457 C1455 1.384 . S
H1458 C1464 0.930 . S
H1459 C1468 0.930 . S
H1460 C1473 0.929 . S
H1461 C1471 0.929 . S
H1462 C1466 0.929 . S
H1463 C1472 0.929 . S
C1464 H1458 0.930 . S
C1464 C1465 1.367 . S
C1464 C1472 1.378 . S
C1465 C1464 1.367 . S
C1465 C1473 1.433 . S
C1466 H1462 0.929 . S
C1466 C1468 1.378 . S
C1466 C1470 1.350 . S
C1467 C1470 1.463 . S
C1467 C1472 1.350 . S
C1467 N1475 1.427 . S
C1468 H1459 0.930 . S
C1468 C1466 1.378 . S
C1468 C1469 1.367 . S
C1469 C1468 1.367 . S
C1469 C1471 1.433 . S
C1470 C1466 1.350 . S
C1470 C1467 1.463 . S
C1470 N1474 1.427 . S
C1471 H1461 0.929 . S
C1471 C1469 1.433 . S
C1471 N1474 1.384 . S
C1472 H1463 0.929 . S
C1472 C1464 1.378 . S
C1472 C1467 1.350 . S
C1473 H1460 0.929 . S
C1473 C1465 1.433 . S
C1473 N1475 1.384 . S
N1474 C1470 1.427 . S
N1474 C1471 1.384 . S
N1475 C1467 1.427 . S
N1475 C1473 1.384 . S
H1476 C1482 0.930 . S
H1477 C1486 0.930 . S
H1478 C1491 0.929 . S
H1479 C1489 0.929 . S
H1480 C1484 0.929 . S
H1481 C1490 0.929 . S
C1482 H1476 0.930 . S
C1482 C1483 1.367 . S
C1482 C1490 1.378 . S
C1483 C1482 1.367 . S
C1483 C1491 1.433 . S
C1484 H1480 0.929 . S
C1484 C1486 1.378 . S
C1484 C1488 1.350 . S
C1485 C1488 1.463 . S
C1485 C1490 1.350 . S
C1485 N1493 1.427 . S
C1486 H1477 0.930 . S
C1486 C1484 1.378 . S
C1486 C1487 1.367 . S
C1487 C1486 1.367 . S
C1487 C1489 1.433 . S
C1488 C1484 1.350 . S
C1488 C1485 1.463 . S
C1488 N1492 1.427 . S
C1489 H1479 0.929 . S
C1489 C1487 1.433 . S
C1489 N1492 1.384 . S
C1490 H1481 0.929 . S
C1490 C1482 1.378 . S
C1490 C1485 1.350 . S
C1491 H1478 0.929 . S
C1491 C1483 1.433 . S
C1491 N1493 1.384 . S
N1492 C1488 1.427 . S
N1492 C1489 1.384 . S
N1493 C1485 1.427 . S
N1493 C1491 1.384 . S
H1494 C1500 0.930 . S
H1495 C1504 0.930 . S
H1496 C1509 0.929 1_565 S
H1497 C1507 0.929 . S
H1498 C1502 0.929 . S
H1499 C1508 0.929 . S
C1500 H1494 0.930 . S
C1500 C1501 1.367 . S
C1500 C1508 1.378 . S
C1501 C1500 1.367 . S
C1501 C1509 1.433 . S
C1502 H1498 0.929 . S
C1502 C1504 1.378 . S
C1502 C1506 1.350 1_565 S
C1503 C1506 1.463 . S
C1503 C1508 1.350 . S
C1503 N1511 1.427 1_545 S
C1504 H1495 0.930 . S
C1504 C1502 1.378 . S
C1504 C1505 1.367 . S
C1505 C1504 1.367 . S
C1505 C1507 1.433 1_565 S
C1506 C1502 1.350 1_545 S
C1506 C1503 1.463 . S
C1506 N1510 1.427 . S
C1507 H1497 0.929 . S
C1507 C1505 1.433 1_545 S
C1507 N1510 1.384 . S
C1508 H1499 0.929 . S
C1508 C1500 1.378 . S
C1508 C1503 1.350 . S
C1509 H1496 0.929 1_545 S
C1509 C1501 1.433 . S
C1509 N1511 1.384 1_545 S
N1510 C1506 1.427 . S
N1510 C1507 1.384 . S
N1511 C1503 1.427 1_565 S
N1511 C1509 1.384 1_565 S
H1512 C1518 0.930 . S
H1513 C1522 0.930 . S
H1514 C1527 0.931 1_655 S
H1515 C1525 0.929 . S
H1516 C1520 0.929 . S
H1517 C1526 0.929 . S
C1518 H1512 0.930 . S
C1518 C1519 1.367 . S
C1518 C1526 1.378 . S
C1519 C1518 1.367 . S
C1519 C1527 1.430 . S
C1520 H1516 0.929 . S
C1520 C1522 1.378 . S
C1520 C1524 1.350 1_655 S
C1521 C1524 1.463 . S
C1521 C1526 1.350 . S
C1521 N1529 1.427 1_455 S
C1522 H1513 0.930 . S
C1522 C1520 1.378 . S
C1522 C1523 1.367 . S
C1523 C1522 1.367 . S
C1523 C1525 1.433 1_655 S
C1524 C1520 1.350 1_455 S
C1524 C1521 1.463 . S
C1524 N1528 1.427 . S
C1525 H1515 0.929 . S
C1525 C1523 1.433 1_455 S
C1525 N1528 1.384 . S
C1526 H1517 0.929 . S
C1526 C1518 1.378 . S
C1526 C1521 1.350 . S
C1527 H1514 0.931 1_455 S
C1527 C1519 1.430 . S
C1527 N1529 1.385 1_455 S
N1528 C1524 1.427 . S
N1528 C1525 1.384 . S
N1529 C1521 1.427 1_655 S
N1529 C1527 1.385 1_655 S
H1530 C1536 0.930 . S
H1531 C1540 0.930 . S
H1532 C1545 0.929 . S
H1533 C1543 0.929 . S
H1534 C1538 0.929 . S
H1535 C1544 0.929 . S
C1536 H1530 0.930 . S
C1536 C1537 1.367 . S
C1536 C1544 1.378 . S
C1537 C1536 1.367 . S
C1537 C1545 1.433 . S
C1538 H1534 0.929 . S
C1538 C1540 1.378 . S
C1538 C1542 1.350 . S
C1539 C1542 1.463 . S
C1539 C1544 1.350 . S
C1539 N1547 1.427 . S
C1540 H1531 0.930 . S
C1540 C1538 1.378 . S
C1540 C1541 1.367 . S
C1541 C1540 1.367 . S
C1541 C1543 1.433 . S
C1542 C1538 1.350 . S
C1542 C1539 1.463 . S
C1542 N1546 1.427 . S
C1543 H1533 0.929 . S
C1543 C1541 1.433 . S
C1543 N1546 1.384 . S
C1544 H1535 0.929 . S
C1544 C1536 1.378 . S
C1544 C1539 1.350 . S
C1545 H1532 0.929 . S
C1545 C1537 1.433 . S
C1545 N1547 1.384 . S
N1546 C1542 1.427 . S
N1546 C1543 1.384 . S
N1547 C1539 1.427 . S
N1547 C1545 1.384 . S
H1548 C1554 0.930 . S
H1549 C1558 0.930 . S
H1550 C1563 0.929 . S
H1551 C1561 0.929 . S
H1552 C1556 0.929 . S
H1553 C1562 0.929 . S
C1554 H1548 0.930 . S
C1554 C1555 1.367 1_565 S
C1554 C1562 1.378 . S
C1555 C1554 1.367 1_545 S
C1555 C1563 1.433 . S
C1556 H1552 0.929 . S
C1556 C1558 1.378 . S
C1556 C1560 1.350 . S
C1557 C1560 1.463 . S
C1557 C1562 1.350 1_545 S
C1557 N1565 1.427 . S
C1558 H1549 0.930 . S
C1558 C1556 1.378 . S
C1558 C1559 1.367 . S
C1559 C1558 1.367 . S
C1559 C1561 1.433 1_545 S
C1560 C1556 1.350 . S
C1560 C1557 1.463 . S
C1560 N1564 1.427 1_545 S
C1561 H1551 0.929 . S
C1561 C1559 1.433 1_565 S
C1561 N1564 1.384 . S
C1562 H1553 0.929 . S
C1562 C1554 1.378 . S
C1562 C1557 1.350 1_565 S
C1563 H1550 0.929 . S
C1563 C1555 1.433 . S
C1563 N1565 1.384 . S
N1564 C1560 1.427 1_565 S
N1564 C1561 1.384 . S
N1565 C1557 1.427 . S
N1565 C1563 1.384 . S
H1566 C1572 0.930 . S
H1567 C1576 0.930 1_655 S
H1568 C1581 0.929 . S
H1569 C1579 0.929 . S
H1570 C1574 0.914 1_655 S
H1571 C1580 0.929 . S
C1572 H1566 0.930 . S
C1572 C1573 1.404 . S
C1572 C1580 1.378 . S
C1573 C1572 1.404 . S
C1573 C1581 1.401 1_455 S
C1574 H1570 0.914 1_455 S
C1574 C1576 1.380 . S
C1574 C1578 1.364 . S
C1575 C1578 1.463 . S
C1575 C1580 1.350 . S
C1575 N1583 1.427 1_455 S
C1576 H1567 0.930 1_455 S
C1576 C1574 1.380 . S
C1576 C1577 1.367 . S
C1577 C1576 1.367 . S
C1577 C1579 1.433 . S
C1578 C1574 1.364 . S
C1578 C1575 1.463 . S
C1578 N1582 1.427 . S
C1579 H1569 0.929 . S
C1579 C1577 1.433 . S
C1579 N1582 1.384 . S
C1580 H1571 0.929 . S
C1580 C1572 1.378 . S
C1580 C1575 1.350 . S
C1581 H1568 0.929 . S
C1581 C1573 1.401 1_655 S
C1581 N1583 1.384 . S
N1582 C1578 1.427 . S
N1582 C1579 1.384 . S
N1583 C1575 1.427 1_655 S
N1583 C1581 1.384 . S
H1584 C1590 0.930 . S
H1585 C1594 0.930 . S
H1586 C1599 0.929 . S
H1587 C1597 0.929 . S
H1588 C1592 0.929 . S
H1589 C1598 0.929 . S
C1590 H1584 0.930 . S
C1590 C1591 1.367 . S
C1590 C1598 1.378 . S
C1591 C1590 1.367 . S
C1591 C1599 1.433 . S
C1592 H1588 0.929 . S
C1592 C1594 1.378 . S
C1592 C1596 1.350 . S
C1593 C1596 1.463 . S
C1593 C1598 1.350 . S
C1593 N1601 1.427 . S
C1594 H1585 0.930 . S
C1594 C1592 1.378 . S
C1594 C1595 1.367 . S
C1595 C1594 1.367 . S
C1595 C1597 1.433 . S
C1596 C1592 1.350 . S
C1596 C1593 1.463 . S
C1596 N1600 1.427 . S
C1597 H1587 0.929 . S
C1597 C1595 1.433 . S
C1597 N1600 1.384 . S
C1598 H1589 0.929 . S
C1598 C1590 1.378 . S
C1598 C1593 1.350 . S
C1599 H1586 0.929 . S
C1599 C1591 1.433 . S
C1599 N1601 1.384 . S
N1600 C1596 1.427 . S
N1600 C1597 1.384 . S
N1601 C1593 1.427 . S
N1601 C1599 1.384 . S
H1602 C1608 0.930 . S
H1603 C1612 0.930 . S
H1604 C1617 0.929 . S
H1605 C1615 0.929 . S
H1606 C1610 0.929 . S
H1607 C1616 0.929 . S
C1608 H1602 0.930 . S
C1608 C1609 1.367 . S
C1608 C1616 1.378 . S
C1609 C1608 1.367 . S
C1609 C1617 1.433 . S
C1610 H1606 0.929 . S
C1610 C1612 1.378 . S
C1610 C1614 1.350 . S
C1611 C1614 1.463 . S
C1611 C1616 1.350 . S
C1611 N1619 1.427 . S
C1612 H1603 0.930 . S
C1612 C1610 1.378 . S
C1612 C1613 1.367 . S
C1613 C1612 1.367 . S
C1613 C1615 1.433 . S
C1614 C1610 1.350 . S
C1614 C1611 1.463 . S
C1614 N1618 1.427 . S
C1615 H1605 0.929 . S
C1615 C1613 1.433 . S
C1615 N1618 1.384 . S
C1616 H1607 0.929 . S
C1616 C1608 1.378 . S
C1616 C1611 1.350 . S
C1617 H1604 0.929 . S
C1617 C1609 1.433 . S
C1617 N1619 1.384 . S
N1618 C1614 1.427 . S
N1618 C1615 1.384 . S
N1619 C1611 1.427 . S
N1619 C1617 1.384 . S
H1620 C1626 0.930 . S
H1621 C1630 0.930 . S
H1622 C1635 0.929 . S
H1623 C1633 0.929 . S
H1624 C1628 0.929 . S
H1625 C1634 0.929 . S
C1626 H1620 0.930 . S
C1626 C1627 1.367 . S
C1626 C1634 1.378 . S
C1627 C1626 1.367 . S
C1627 C1635 1.433 . S
C1628 H1624 0.929 . S
C1628 C1630 1.378 . S
C1628 C1632 1.350 . S
C1629 C1632 1.463 . S
C1629 C1634 1.350 . S
C1629 N1637 1.427 . S
C1630 H1621 0.930 . S
C1630 C1628 1.378 . S
C1630 C1631 1.367 . S
C1631 C1630 1.367 . S
C1631 C1633 1.433 . S
C1632 C1628 1.350 . S
C1632 C1629 1.463 . S
C1632 N1636 1.427 . S
C1633 H1623 0.929 . S
C1633 C1631 1.433 . S
C1633 N1636 1.384 . S
C1634 H1625 0.929 . S
C1634 C1626 1.378 . S
C1634 C1629 1.350 . S
C1635 H1622 0.929 . S
C1635 C1627 1.433 . S
C1635 N1637 1.384 . S
N1636 C1632 1.427 . S
N1636 C1633 1.384 . S
N1637 C1629 1.427 . S
N1637 C1635 1.384 . S
H1638 C1644 0.930 . S
H1639 C1648 0.947 . S
H1640 C1653 0.929 . S
H1641 C1651 0.929 1_556 S
H1642 C1646 0.929 . S
H1643 C1652 0.929 . S
C1644 H1638 0.930 . S
C1644 C1645 1.367 . S
C1644 C1652 1.378 . S
C1645 C1644 1.367 . S
C1645 C1653 1.433 . S
C1646 H1642 0.929 . S
C1646 C1648 1.347 1_554 S
C1646 C1650 1.350 . S
C1647 C1650 1.463 . S
C1647 C1652 1.350 . S
C1647 N1655 1.427 . S
C1648 H1639 0.947 . S
C1648 C1646 1.347 1_556 S
C1648 C1649 1.381 . S
C1649 C1648 1.381 . S
C1649 C1651 1.433 1_556 S
C1650 C1646 1.350 . S
C1650 C1647 1.463 . S
C1650 N1654 1.427 . S
C1651 H1641 0.929 1_554 S
C1651 C1649 1.433 1_554 S
C1651 N1654 1.384 . S
C1652 H1643 0.929 . S
C1652 C1644 1.378 . S
C1652 C1647 1.350 . S
C1653 H1640 0.929 . S
C1653 C1645 1.433 . S
C1653 N1655 1.384 . S
N1654 C1650 1.427 . S
N1654 C1651 1.384 . S
N1655 C1647 1.427 . S
N1655 C1653 1.384 . S
H1656 C1662 0.930 . S
H1657 C1666 0.930 1_556 S
H1658 C1671 0.929 . S
H1659 C1669 0.929 1_556 S
H1660 C1664 0.929 . S
H1661 C1670 0.929 . S
C1662 H1656 0.930 . S
C1662 C1663 1.367 . S
C1662 C1670 1.378 . S
C1663 C1662 1.367 . S
C1663 C1671 1.433 . S
C1664 H1660 0.929 . S
C1664 C1666 1.378 . S
C1664 C1668 1.350 . S
C1665 C1668 1.463 . S
C1665 C1670 1.350 . S
C1665 N1673 1.427 . S
C1666 H1657 0.930 1_554 S
C1666 C1664 1.378 . S
C1666 C1667 1.367 1_554 S
C1667 C1666 1.367 1_556 S
C1667 C1669 1.433 1_556 S
C1668 C1664 1.350 . S
C1668 C1665 1.463 . S
C1668 N1672 1.427 . S
C1669 H1659 0.929 1_554 S
C1669 C1667 1.433 1_554 S
C1669 N1672 1.384 . S
C1670 H1661 0.929 . S
C1670 C1662 1.378 . S
C1670 C1665 1.350 . S
C1671 H1658 0.929 . S
C1671 C1663 1.433 . S
C1671 N1673 1.384 . S
N1672 C1668 1.427 . S
N1672 C1669 1.384 . S
N1673 C1665 1.427 . S
N1673 C1671 1.384 . S
H1674 C1680 0.930 . S
H1675 C1684 0.930 1_556 S
H1676 C1689 0.929 . S
H1677 C1687 0.929 1_556 S
H1678 C1682 0.929 . S
H1679 C1688 0.929 . S
C1680 H1674 0.930 . S
C1680 C1681 1.367 . S
C1680 C1688 1.378 . S
C1681 C1680 1.367 . S
C1681 C1689 1.433 . S
C1682 H1678 0.929 . S
C1682 C1684 1.378 . S
C1682 C1686 1.350 . S
C1683 C1686 1.463 . S
C1683 C1688 1.350 . S
C1683 N1691 1.427 . S
C1684 H1675 0.930 1_554 S
C1684 C1682 1.378 . S
C1684 C1685 1.367 1_554 S
C1685 C1684 1.367 1_556 S
C1685 C1687 1.433 1_556 S
C1686 C1682 1.350 . S
C1686 C1683 1.463 . S
C1686 N1690 1.427 . S
C1687 H1677 0.929 1_554 S
C1687 C1685 1.433 1_554 S
C1687 N1690 1.384 . S
C1688 H1679 0.929 . S
C1688 C1680 1.378 . S
C1688 C1683 1.350 . S
C1689 H1676 0.929 . S
C1689 C1681 1.433 . S
C1689 N1691 1.384 . S
N1690 C1686 1.427 . S
N1690 C1687 1.384 . S
N1691 C1683 1.427 . S
N1691 C1689 1.384 . S
H1692 C1698 0.930 . S
H1693 C1702 0.930 . S
H1694 C1707 0.929 . S
H1695 C1705 0.929 . S
H1696 C1700 0.929 . S
H1697 C1706 0.929 . S
C1698 H1692 0.930 . S
C1698 C1699 1.367 . S
C1698 C1706 1.378 1_554 S
C1699 C1698 1.367 . S
C1699 C1707 1.433 . S
C1700 H1696 0.929 . S
C1700 C1702 1.378 . S
C1700 C1704 1.350 . S
C1701 C1704 1.463 . S
C1701 C1706 1.350 . S
C1701 N1709 1.427 . S
C1702 H1693 0.930 . S
C1702 C1700 1.378 . S
C1702 C1703 1.367 . S
C1703 C1702 1.367 . S
C1703 C1705 1.433 . S
C1704 C1700 1.350 . S
C1704 C1701 1.463 . S
C1704 N1708 1.427 . S
C1705 H1695 0.929 . S
C1705 C1703 1.433 . S
C1705 N1708 1.384 . S
C1706 H1697 0.929 . S
C1706 C1698 1.378 1_556 S
C1706 C1701 1.350 . S
C1707 H1694 0.929 . S
C1707 C1699 1.433 . S
C1707 N1709 1.384 1_554 S
N1708 C1704 1.427 . S
N1708 C1705 1.384 . S
N1709 C1701 1.427 . S
N1709 C1707 1.384 1_556 S
H1710 C1716 0.921 1_554 S
H1711 C1720 0.930 . S
H1712 C1725 0.929 . S
H1713 C1723 0.929 . S
H1714 C1718 0.929 . S
H1715 C1724 0.929 . S
C1716 H1710 0.921 1_556 S
C1716 C1717 1.362 1_556 S
C1716 C1724 1.392 . S
C1717 C1716 1.362 1_554 S
C1717 C1725 1.433 1_554 S
C1718 H1714 0.929 . S
C1718 C1720 1.378 . S
C1718 C1722 1.350 . S
C1719 C1722 1.463 . S
C1719 C1724 1.350 . S
C1719 N1727 1.427 . S
C1720 H1711 0.930 . S
C1720 C1718 1.378 . S
C1720 C1721 1.367 . S
C1721 C1720 1.367 . S
C1721 C1723 1.433 . S
C1722 C1718 1.350 . S
C1722 C1719 1.463 . S
C1722 N1726 1.427 . S
C1723 H1713 0.929 . S
C1723 C1721 1.433 . S
C1723 N1726 1.384 . S
C1724 H1715 0.929 . S
C1724 C1716 1.392 . S
C1724 C1719 1.350 . S
C1725 H1712 0.929 . S
C1725 C1717 1.433 1_556 S
C1725 N1727 1.384 . S
N1726 C1722 1.427 . S
N1726 C1723 1.384 . S
N1727 C1719 1.427 . S
N1727 C1725 1.384 . S
H1728 C1734 0.930 . S
H1729 C1738 0.930 . S
H1730 C1743 0.930 1_554 S
H1731 C1741 0.929 . S
H1732 C1736 0.929 . S
H1733 C1742 0.929 . S
C1734 H1728 0.930 . S
C1734 C1735 1.367 . S
C1734 C1742 1.378 . S
C1735 C1734 1.367 . S
C1735 C1743 1.433 . S
C1736 H1732 0.929 . S
C1736 C1738 1.378 . S
C1736 C1740 1.350 . S
C1737 C1740 1.463 . S
C1737 C1742 1.350 . S
C1737 N1745 1.427 . S
C1738 H1729 0.930 . S
C1738 C1736 1.378 . S
C1738 C1739 1.367 . S
C1739 C1738 1.367 . S
C1739 C1741 1.433 . S
C1740 C1736 1.350 . S
C1740 C1737 1.463 . S
C1740 N1744 1.427 . S
C1741 H1731 0.929 . S
C1741 C1739 1.433 . S
C1741 N1744 1.384 . S
C1742 H1733 0.929 . S
C1742 C1734 1.378 . S
C1742 C1737 1.350 . S
C1743 H1730 0.930 1_556 S
C1743 C1735 1.433 . S
C1743 N1745 1.384 . S
N1744 C1740 1.427 . S
N1744 C1741 1.384 . S
N1745 C1737 1.427 . S
N1745 C1743 1.384 . S
H1746 C1752 0.930 . S
H1747 C1756 0.930 . S
H1748 C1761 0.929 . S
H1749 C1759 0.929 . S
H1750 C1754 0.929 . S
H1751 C1760 0.929 . S
C1752 H1746 0.930 . S
C1752 C1753 1.367 . S
C1752 C1760 1.378 . S
C1753 C1752 1.367 . S
C1753 C1761 1.433 . S
C1754 H1750 0.929 . S
C1754 C1756 1.378 . S
C1754 C1758 1.350 . S
C1755 C1758 1.463 . S
C1755 C1760 1.350 . S
C1755 N1763 1.427 . S
C1756 H1747 0.930 . S
C1756 C1754 1.378 . S
C1756 C1757 1.367 . S
C1757 C1756 1.367 . S
C1757 C1759 1.433 . S
C1758 C1754 1.350 . S
C1758 C1755 1.463 . S
C1758 N1762 1.427 . S
C1759 H1749 0.929 . S
C1759 C1757 1.433 . S
C1759 N1762 1.384 . S
C1760 H1751 0.929 . S
C1760 C1752 1.378 . S
C1760 C1755 1.350 . S
C1761 H1748 0.929 . S
C1761 C1753 1.433 . S
C1761 N1763 1.384 . S
N1762 C1758 1.427 . S
N1762 C1759 1.384 . S
N1763 C1755 1.427 . S
N1763 C1761 1.384 . S
H1764 C1770 0.930 . S
H1765 C1774 0.930 . S
H1766 C1779 0.929 . S
H1767 C1777 0.929 . S
H1768 C1772 0.929 . S
H1769 C1778 0.929 . S
C1770 H1764 0.930 . S
C1770 C1771 1.367 . S
C1770 C1778 1.378 . S
C1771 C1770 1.367 . S
C1771 C1779 1.433 . S
C1772 H1768 0.929 . S
C1772 C1774 1.378 . S
C1772 C1776 1.350 . S
C1773 C1776 1.463 . S
C1773 C1778 1.350 . S
C1773 N1781 1.427 . S
C1774 H1765 0.930 . S
C1774 C1772 1.378 . S
C1774 C1775 1.367 . S
C1775 C1774 1.367 . S
C1775 C1777 1.433 . S
C1776 C1772 1.350 . S
C1776 C1773 1.463 . S
C1776 N1780 1.427 . S
C1777 H1767 0.929 . S
C1777 C1775 1.433 . S
C1777 N1780 1.384 . S
C1778 H1769 0.929 . S
C1778 C1770 1.378 . S
C1778 C1773 1.350 . S
C1779 H1766 0.929 . S
C1779 C1771 1.433 . S
C1779 N1781 1.384 . S
N1780 C1776 1.427 . S
N1780 C1777 1.384 . S
N1781 C1773 1.427 . S
N1781 C1779 1.384 . S
H1782 C1788 0.930 . S
H1783 C1792 0.930 . S
H1784 C1797 0.929 . S
H1785 C1795 0.929 . S
H1786 C1790 0.929 . S
H1787 C1796 0.929 . S
C1788 H1782 0.930 . S
C1788 C1789 1.367 . S
C1788 C1796 1.378 . S
C1789 C1788 1.367 . S
C1789 C1797 1.433 . S
C1790 H1786 0.929 . S
C1790 C1792 1.378 . S
C1790 C1794 1.350 . S
C1791 C1794 1.463 . S
C1791 C1796 1.350 . S
C1791 N1799 1.427 . S
C1792 H1783 0.930 . S
C1792 C1790 1.378 . S
C1792 C1793 1.367 . S
C1793 C1792 1.367 . S
C1793 C1795 1.433 . S
C1794 C1790 1.350 . S
C1794 C1791 1.463 . S
C1794 N1798 1.427 . S
C1795 H1785 0.929 . S
C1795 C1793 1.433 . S
C1795 N1798 1.384 . S
C1796 H1787 0.929 . S
C1796 C1788 1.378 . S
C1796 C1791 1.350 . S
C1797 H1784 0.929 . S
C1797 C1789 1.433 . S
C1797 N1799 1.384 . S
N1798 C1794 1.427 . S
N1798 C1795 1.384 . S
N1799 C1791 1.427 . S
N1799 C1797 1.384 . S
C511 C229 1.327 . S
C515 C5 1.347 1_556 S
C529 C243 1.346 . S
C533 C19 1.317 1_556 S
C547 C39 1.455 1_556 S
C551 C221 1.442 . S
C565 C375 1.452 . S
C569 C53 1.444 . S
C583 C341 1.327 . S
C587 C61 1.341 . S
C601 C75 1.334 . S
C605 C355 1.331 . S
C619 C487 1.223 . S
C623 C95 1.235 . S
C637 C501 1.235 . S
C641 C109 1.226 . S
C655 C473 1.215 . S
C659 C123 1.220 . S
C673 C291 1.216 . S
C677 C137 1.219 . S
C691 C151 1.226 . S
C695 C263 1.235 . S
C709 C277 1.230 . S
C713 C165 1.233 . S
C727 C397 1.320 . S
C731 C173 1.350 . S
C745 C187 1.322 . S
C749 C411 1.350 . S
C763 C389 1.443 . S
C767 C207 1.452 . S
C781 C459 1.216 . S
C785 C305 1.227 . S
C799 C431 1.223 . S
C803 C319 1.231 . S
C817 C333 1.218 . S
C821 C445 1.223 . S
C835 C102 1.461 . S
C839 C4 1.478 . S
C853 C116 1.427 . S
C857 C18 1.440 . S
C871 C88 1.355 . S
C875 C40 1.368 . S
C889 C54 1.369 . S
C893 C158 1.352 . S
C907 C130 1.429 . S
C911 C60 1.436 . S
C925 C74 1.474 . S
C929 C144 1.464 . S
C943 C25 1.133 . S
C947 C96 1.157 . S
C961 C110 1.131 . S
C965 C33 1.022 1_554 S
C979 C11 1.234 . S
C983 C124 1.264 . S
C997 C81 1.248 . S
C1001 C138 1.273 . S
C1015 C47 0.996 . S
C1019 C152 1.139 . S
C1033 C166 1.160 . S
C1037 C67 1.132 . S
C1051 C172 1.481 . S
C1055 C270 1.455 . S
C1069 C284 1.433 . S
C1073 C186 1.434 . S
C1087 C256 1.346 . S
C1091 C208 1.364 . S
C1105 C222 1.364 . S
C1109 C326 1.347 . S
C1123 C298 1.425 . S
C1127 C228 1.439 . S
C1141 C242 1.474 . S
C1145 C312 1.465 . S
C1159 C264 1.161 . S
C1163 C193 1.138 . S
C1177 C278 1.140 . S
C1181 C201 1.003 . S
C1195 C179 1.234 . S
C1199 C292 1.266 . S
C1213 C249 1.248 . S
C1217 C306 1.271 . S
C1231 C215 0.990 . S
C1235 C320 1.135 . S
C1249 C334 1.152 . S
C1253 C235 1.120 . S
C1267 C438 1.464 . S
C1271 C340 1.474 . S
C1285 C354 1.434 . S
C1289 C452 1.432 . S
C1303 C376 1.369 . S
C1307 C424 1.353 . S
C1321 C494 1.351 . S
C1325 C390 1.366 . S
C1339 C396 1.434 . S
C1343 C466 1.431 . S
C1357 C480 1.459 . S
C1361 C410 1.478 . S
C1375 C361 1.136 . S
C1379 C432 1.161 . S
C1393 C369 1.025 . S
C1397 C446 1.137 . S
C1411 C460 1.272 . S
C1415 C347 1.245 . S
C1429 C474 1.271 . S
C1433 C417 1.243 . S
C1447 C383 0.995 . S
C1451 C488 1.139 . S
C1465 C403 1.138 . S
C1469 C502 1.160 . S
C1483 C12 1.421 . S
C1487 C46 1.412 . S
C1501 C26 1.339 . S
C1505 C68 1.337 . S
C1519 C82 1.422 . S
C1523 C32 1.410 . S
C1537 C89 1.028 . S
C1541 C131 1.030 . S
C1555 C145 1.103 . S
C1559 C103 1.109 1_545 S
C1573 C159 1.005 1_455 S
C1577 C117 1.027 . S
C1591 C180 1.423 . S
C1595 C214 1.409 . S
C1609 C194 1.339 . S
C1613 C236 1.337 . S
C1627 C250 1.418 . S
C1631 C200 1.417 . S
C1645 C257 1.044 . S
C1649 C299 1.028 . S
C1663 C271 1.083 . S
C1667 C313 1.078 . S
C1681 C285 1.008 . S
C1685 C327 1.022 . S
C1699 C382 1.415 . S
C1703 C348 1.419 . S
C1717 C404 1.332 . S
C1721 C362 1.334 . S
C1735 C418 1.423 1_556 S
C1739 C368 1.409 . S
C1753 C425 1.048 . S
C1757 C467 1.033 . S
C1771 C481 1.107 . S
C1775 C439 1.112 . S
C1789 C495 1.037 . S
C1793 C453 1.021 . S
