# Generated by pormake.
# Topology wiv, (6)-cn, num edge types: 1
# Building blocks:
#     Node 0, Type 0, BuildingBlock: FUNLAD_clean_sbu_0, # of connection points: 6
#     Node 1, Type 0, BuildingBlock: FUNLAD_clean_sbu_0, # of connection points: 6
#     Node 2, Type 0, BuildingBlock: FUNLAD_clean_sbu_0, # of connection points: 6
#     Node 3, Type 0, BuildingBlock: FUNLAD_clean_sbu_0, # of connection points: 6
#     Node 4, Type 0, BuildingBlock: FUNLAD_clean_sbu_0, # of connection points: 6
#     Node 5, Type 0, BuildingBlock: FUNLAD_clean_sbu_0, # of connection points: 6
#     Node 6, Type 0, BuildingBlock: FUNLAD_clean_sbu_0, # of connection points: 6
#     Node 7, Type 0, BuildingBlock: FUNLAD_clean_sbu_0, # of connection points: 6
#     Node 8, Type 0, BuildingBlock: FUNLAD_clean_sbu_0, # of connection points: 6
#     Node 9, Type 0, BuildingBlock: FUNLAD_clean_sbu_0, # of connection points: 6
#     Node 10, Type 0, BuildingBlock: FUNLAD_clean_sbu_0, # of connection points: 6
#     Node 11, Type 0, BuildingBlock: FUNLAD_clean_sbu_0, # of connection points: 6
#     Node 12, Type 0, BuildingBlock: FUNLAD_clean_sbu_0, # of connection points: 6
#     Node 13, Type 0, BuildingBlock: FUNLAD_clean_sbu_0, # of connection points: 6
#     Node 14, Type 0, BuildingBlock: FUNLAD_clean_sbu_0, # of connection points: 6
#     Node 15, Type 0, BuildingBlock: FUNLAD_clean_sbu_0, # of connection points: 6
#     Edge 16, Type (0, 0), BuildingBlock: EZIPEK_clean_linker_0, # of connection points: 2
#     Edge 17, Type (0, 0), BuildingBlock: EZIPEK_clean_linker_0, # of connection points: 2
#     Edge 18, Type (0, 0), BuildingBlock: EZIPEK_clean_linker_0, # of connection points: 2
#     Edge 19, Type (0, 0), BuildingBlock: EZIPEK_clean_linker_0, # of connection points: 2
#     Edge 20, Type (0, 0), BuildingBlock: EZIPEK_clean_linker_0, # of connection points: 2
#     Edge 21, Type (0, 0), BuildingBlock: EZIPEK_clean_linker_0, # of connection points: 2
#     Edge 22, Type (0, 0), BuildingBlock: EZIPEK_clean_linker_0, # of connection points: 2
#     Edge 23, Type (0, 0), BuildingBlock: EZIPEK_clean_linker_0, # of connection points: 2
#     Edge 24, Type (0, 0), BuildingBlock: EZIPEK_clean_linker_0, # of connection points: 2
#     Edge 25, Type (0, 0), BuildingBlock: EZIPEK_clean_linker_0, # of connection points: 2
#     Edge 26, Type (0, 0), BuildingBlock: EZIPEK_clean_linker_0, # of connection points: 2
#     Edge 27, Type (0, 0), BuildingBlock: EZIPEK_clean_linker_0, # of connection points: 2
#     Edge 28, Type (0, 0), BuildingBlock: EZIPEK_clean_linker_0, # of connection points: 2
#     Edge 29, Type (0, 0), BuildingBlock: EZIPEK_clean_linker_0, # of connection points: 2
#     Edge 30, Type (0, 0), BuildingBlock: EZIPEK_clean_linker_0, # of connection points: 2
#     Edge 31, Type (0, 0), BuildingBlock: EZIPEK_clean_linker_0, # of connection points: 2
#     Edge 32, Type (0, 0), BuildingBlock: EZIPEK_clean_linker_0, # of connection points: 2
#     Edge 33, Type (0, 0), BuildingBlock: EZIPEK_clean_linker_0, # of connection points: 2
#     Edge 34, Type (0, 0), BuildingBlock: EZIPEK_clean_linker_0, # of connection points: 2
#     Edge 35, Type (0, 0), BuildingBlock: EZIPEK_clean_linker_0, # of connection points: 2
#     Edge 36, Type (0, 0), BuildingBlock: EZIPEK_clean_linker_0, # of connection points: 2
#     Edge 37, Type (0, 0), BuildingBlock: EZIPEK_clean_linker_0, # of connection points: 2
#     Edge 38, Type (0, 0), BuildingBlock: EZIPEK_clean_linker_0, # of connection points: 2
#     Edge 39, Type (0, 0), BuildingBlock: EZIPEK_clean_linker_0, # of connection points: 2
#     Edge 40, Type (0, 0), BuildingBlock: EZIPEK_clean_linker_0, # of connection points: 2
#     Edge 41, Type (0, 0), BuildingBlock: EZIPEK_clean_linker_0, # of connection points: 2
#     Edge 42, Type (0, 0), BuildingBlock: EZIPEK_clean_linker_0, # of connection points: 2
#     Edge 43, Type (0, 0), BuildingBlock: EZIPEK_clean_linker_0, # of connection points: 2
#     Edge 44, Type (0, 0), BuildingBlock: EZIPEK_clean_linker_0, # of connection points: 2
#     Edge 45, Type (0, 0), BuildingBlock: EZIPEK_clean_linker_0, # of connection points: 2
#     Edge 46, Type (0, 0), BuildingBlock: EZIPEK_clean_linker_0, # of connection points: 2
#     Edge 47, Type (0, 0), BuildingBlock: EZIPEK_clean_linker_0, # of connection points: 2
#     Edge 48, Type (0, 0), BuildingBlock: EZIPEK_clean_linker_0, # of connection points: 2
#     Edge 49, Type (0, 0), BuildingBlock: EZIPEK_clean_linker_0, # of connection points: 2
#     Edge 50, Type (0, 0), BuildingBlock: EZIPEK_clean_linker_0, # of connection points: 2
#     Edge 51, Type (0, 0), BuildingBlock: EZIPEK_clean_linker_0, # of connection points: 2
#     Edge 52, Type (0, 0), BuildingBlock: EZIPEK_clean_linker_0, # of connection points: 2
#     Edge 53, Type (0, 0), BuildingBlock: EZIPEK_clean_linker_0, # of connection points: 2
#     Edge 54, Type (0, 0), BuildingBlock: EZIPEK_clean_linker_0, # of connection points: 2
#     Edge 55, Type (0, 0), BuildingBlock: EZIPEK_clean_linker_0, # of connection points: 2
#     Edge 56, Type (0, 0), BuildingBlock: EZIPEK_clean_linker_0, # of connection points: 2
#     Edge 57, Type (0, 0), BuildingBlock: EZIPEK_clean_linker_0, # of connection points: 2
#     Edge 58, Type (0, 0), BuildingBlock: EZIPEK_clean_linker_0, # of connection points: 2
#     Edge 59, Type (0, 0), BuildingBlock: EZIPEK_clean_linker_0, # of connection points: 2
#     Edge 60, Type (0, 0), BuildingBlock: EZIPEK_clean_linker_0, # of connection points: 2
#     Edge 61, Type (0, 0), BuildingBlock: EZIPEK_clean_linker_0, # of connection points: 2
#     Edge 62, Type (0, 0), BuildingBlock: EZIPEK_clean_linker_0, # of connection points: 2
#     Edge 63, Type (0, 0), BuildingBlock: EZIPEK_clean_linker_0, # of connection points: 2
# Relax obj value: 0.151
# Max RMSD: 0.148
# Mean RMSD: 0.148
data_MOF--net-wiv--node1-FUNLAD_clean_sbu_0--edge1-EZIPEK_clean_linker_0
_symmetry_space_group_name_H-M    P1
_symmetry_Int_Tables_number       1
_symmetry_cell_setting            triclinic
loop_
_symmetry_equiv_pos_as_xyz
'x, y, z'
_cell_length_a     55.180631
_cell_length_b     55.140485
_cell_length_c     10.411172
_cell_angle_alpha  89.853002
_cell_angle_beta   89.975738
_cell_angle_gamma 89.926646
loop_
_atom_site_label
_atom_site_type_symbol
_atom_site_fract_x
_atom_site_fract_y
_atom_site_fract_z
_atom_type_partial_charge
C0 C 0.37512 0.10796 0.80753 0.0
N1 N 0.35068 0.16558 0.03681 0.0
C2 C 0.36875 0.18017 -0.00748 0.0
C3 C 0.36647 0.2054 -0.00115 0.0
C4 C 0.34531 0.21565 0.05018 0.0
C5 C 0.32652 0.20027 0.09005 0.0
C6 C 0.32965 0.17514 0.0832 0.0
Zn7 Zn 0.35643 0.12876 0.04942 0.0
C8 C 0.31312 0.10022 0.96247 0.0
N9 N 0.36988 0.05176 0.07952 0.0
C10 C 0.39067 0.04119 0.03722 0.0
C11 C 0.35366 0.03875 0.14934 0.0
C12 C 0.35783 1.0143 0.17778 0.0
C13 C 0.3782 1.00186 0.12714 0.0
C14 C 0.39531 0.01655 0.06164 0.0
Zn15 Zn 0.36373 0.08877 0.05814 0.0
O16 O 0.36851 0.12743 0.86263 0.0
C17 C 0.40692 0.11809 0.13948 0.0
O18 O 0.37539 0.08829 0.87093 0.0
H19 H 0.33767 0.04755 0.18718 0.0
H20 H 0.38531 0.17225 0.95591 0.0
H21 H 0.40402 0.052 -0.01292 0.0
O22 O 0.3923 0.13531 0.11553 0.0
O23 O 0.40012 0.09624 0.12343 0.0
H24 H 0.31557 0.16326 0.1187 0.0
O25 O 0.35205 0.09042 0.24559 0.0
O26 O 0.34468 0.12928 0.23663 0.0
O27 O 0.32702 0.08238 -0.01083 0.0
O28 O 0.32059 0.12174 -0.01842 0.0
C29 C 0.34539 0.10978 0.30075 0.0
H30 H 0.38127 0.2168 0.96694 0.0
H31 H 0.30995 0.20766 0.12988 0.0
H32 H 0.34517 1.00627 0.24344 0.0
H33 H 0.4127 1.00947 0.03191 0.0
C34 C 0.10373 0.68467 0.66542 0.0
N35 N 0.04985 0.65677 0.89793 0.0
C36 C 0.03454 0.67312 0.84233 0.0
C37 C 1.01084 0.66647 0.80982 0.0
C38 C 1.00286 0.64274 0.83409 0.0
C39 C 0.01862 0.62652 0.89609 0.0
C40 C 0.04214 0.63396 0.92765 0.0
Zn41 Zn 0.08634 0.66521 0.91227 0.0
C42 C 0.11794 0.62393 0.82386 0.0
N43 N 0.16271 0.68224 0.91647 0.0
C44 C 0.17227 0.69859 0.83214 0.0
C45 C 0.17745 0.66878 -0.0062 0.0
C46 C 0.20262 0.67119 -0.01347 0.0
C47 C 0.2129 0.68656 0.89365 0.0
C48 C 0.19736 0.70056 0.81669 0.0
Zn49 Zn 0.12582 0.67492 0.91312 0.0
O50 O 0.08538 0.67685 0.72533 0.0
C51 C 0.09601 0.71658 0.00444 0.0
O52 O 0.12366 0.68643 0.72488 0.0
H53 H 0.16986 0.65545 0.05821 0.0
H54 H 0.04102 0.69105 0.81795 0.0
H55 H 0.16052 0.70962 0.77322 0.0
O56 O 0.07862 0.70188 -0.01846 0.0
O57 O 0.11768 0.71009 -0.01911 0.0
H58 H 0.05456 0.62116 0.97107 0.0
O59 O 0.12626 0.66288 0.10142 0.0
O60 O 0.08771 0.65354 0.09892 0.0
O61 O 0.13395 0.63989 0.84578 0.0
O62 O 0.09576 0.62901 0.84519 0.0
C63 C 0.1076 0.65496 0.15939 0.0
H64 H 0.99914 0.67942 0.76188 0.0
H65 H 1.01302 0.60807 0.91611 0.0
H66 H 0.21401 0.66016 0.04816 0.0
H67 H 0.20456 0.71269 0.74414 0.0
C68 C 0.656 0.92396 0.82762 0.0
N69 N 0.68252 0.8692 0.06981 0.0
C70 C 0.66663 0.85393 0.01208 0.0
C71 C 0.67136 0.82902 0.00611 0.0
C72 C 0.69321 0.81918 0.05542 0.0
C73 C 0.70792 0.83547 0.12598 0.0
C74 C 0.70267 0.86033 0.12845 0.0
Zn75 Zn 0.67497 0.90597 0.07534 0.0
C76 C 0.71734 0.93578 -0.01723 0.0
N77 N 0.65832 0.98253 0.0848 0.0
C78 C 0.63601 0.99054 0.04762 0.0
C79 C 0.67413 0.9977 0.14498 0.0
C80 C 0.66737 0.02154 0.17455 0.0
C81 C 0.64414 0.02988 0.14179 0.0
C82 C 0.62852 1.01426 0.07533 0.0
Zn83 Zn 0.66663 0.94587 0.07236 0.0
O84 O 0.66331 0.9053 0.88793 0.0
C85 C 0.62433 0.91545 0.16027 0.0
O86 O 0.65505 0.94416 0.88569 0.0
H87 H 0.69169 0.99103 0.17477 0.0
H88 H 0.65004 0.86103 0.97138 0.0
H89 H 0.62361 0.97823 0.00081 0.0
O90 O 0.63931 0.89831 0.14147 0.0
O91 O 0.63074 0.93724 0.1389 0.0
H92 H 0.71462 0.87253 0.17925 0.0
O93 O 0.67833 0.9466 0.25943 0.0
O94 O 0.6863 0.90781 0.26258 0.0
O95 O 0.70282 0.95339 0.00308 0.0
O96 O 0.71062 0.91421 0.00824 0.0
C97 C 0.6854 0.92799 0.32045 0.0
H98 H 0.6575 0.81768 0.96439 0.0
H99 H 0.7231 0.82977 0.18307 0.0
H100 H 0.67984 0.03312 0.22608 0.0
H101 H 0.61046 0.02013 0.04883 0.0
C102 C 0.92592 0.34465 0.64321 0.0
N103 N 0.98039 0.3708 0.87987 0.0
C104 C 0.99391 0.35384 0.8184 0.0
C105 C 0.01849 0.35769 0.7936 0.0
C106 C 0.03053 0.37865 0.83925 0.0
C107 C 1.01543 0.3964 0.89707 0.0
C108 C 0.99064 0.39201 0.91802 0.0
Zn109 Zn 0.94336 0.36408 0.89126 0.0
C110 C 0.91328 0.40541 0.80076 0.0
N111 N 0.86715 0.34794 0.88942 0.0
C112 C 0.85442 0.35507 0.78372 0.0
C113 C 0.8557 0.33812 -0.00681 0.0
C114 C 0.83044 0.33552 -0.00639 0.0
C115 C 0.817 0.34319 0.88644 0.0
C116 C 0.82925 0.35283 0.78025 0.0
Zn117 Zn 0.90399 0.35409 0.88889 0.0
O118 O 0.94398 0.35305 0.70325 0.0
C119 C 0.93266 0.3124 -0.01751 0.0
O120 O 0.90613 0.34183 0.70297 0.0
H121 H 0.86611 0.33265 0.07642 0.0
H122 H 0.98541 0.33745 0.78389 0.0
H123 H 0.86374 0.36293 0.70233 0.0
O124 O 0.95 0.32713 0.95968 0.0
O125 O 0.91097 0.31885 0.95987 0.0
H126 H 0.97948 0.40585 0.96182 0.0
O127 O 0.90281 0.36676 0.07523 0.0
O128 O 0.94159 0.37531 0.07826 0.0
O129 O 0.8973 0.38925 0.81883 0.0
O130 O 0.93537 0.40056 0.82596 0.0
C131 C 0.92128 0.37437 0.13563 0.0
H132 H 0.0269 0.34421 0.73449 0.0
H133 H 0.02238 0.41403 0.92319 0.0
H134 H 0.82143 0.32802 0.07717 0.0
H135 H 0.81936 0.35894 0.69627 0.0
C136 C 0.37422 0.42431 0.38956 0.0
N137 N 0.34926 0.37012 0.14184 0.0
C138 C 0.36714 0.35524 0.18617 0.0
C139 C 0.36505 0.33011 0.17467 0.0
C140 C 0.34431 0.32015 0.11792 0.0
C141 C 0.32572 0.33575 0.07701 0.0
C142 C 0.32865 0.36087 0.08933 0.0
Zn143 Zn 0.35549 0.40691 0.14163 0.0
C144 C 0.31259 0.43538 0.23648 0.0
N145 N 0.37092 0.48351 0.1354 0.0
C146 C 0.39338 0.49136 0.17037 0.0
C147 C 0.35489 0.49884 0.07752 0.0
C148 C 0.3616 0.52269 0.0476 0.0
C149 C 0.38506 0.53079 0.07681 0.0
C150 C 0.40087 0.51501 0.14146 0.0
Zn151 Zn 0.36323 0.44676 0.14496 0.0
O152 O 0.36735 0.4056 0.32891 0.0
C153 C 0.40604 0.41741 0.05462 0.0
O154 O 0.37481 0.44459 0.33159 0.0
H155 H 0.33724 0.49226 0.04916 0.0
H156 H 0.38338 0.3629 0.22747 0.0
H157 H 0.40595 0.47892 0.21555 0.0
O158 O 0.39121 0.4002 0.07315 0.0
O159 O 0.39944 0.43909 0.07728 0.0
H160 H 0.31471 0.37298 0.05405 0.0
O161 O 0.35154 0.44801 0.95767 0.0
O162 O 0.34386 0.4092 0.95495 0.0
O163 O 0.32669 0.45331 0.21542 0.0
O164 O 0.31978 0.41399 0.21068 0.0
C165 C 0.34462 0.4294 0.89678 0.0
H166 H 0.37967 0.31854 0.20764 0.0
H167 H 0.30945 0.32859 0.03323 0.0
H168 H 0.34895 0.53442 -0.00243 0.0
H169 H 0.41911 0.52068 0.16534 0.0
C170 C 0.42543 0.6874 0.06298 0.0
N171 N 0.48161 0.66155 0.83678 0.0
C172 C 0.49628 0.67706 0.90223 0.0
C173 C 0.52012 0.67043 0.93234 0.0
C174 C 0.52895 0.64772 0.8939 0.0
C175 C 0.51385 0.63244 0.82238 0.0
C176 C 0.49008 0.63971 0.79504 0.0
Zn177 Zn 0.44503 0.66924 0.81939 0.0
C178 C 0.41471 0.62638 0.90031 0.0
N179 N 0.36804 0.68347 0.8025 0.0
C180 C 0.35779 0.69947 0.88616 0.0
C181 C 0.35393 0.67019 0.72161 0.0
C182 C 0.32868 0.67227 0.72535 0.0
C183 C 0.31769 0.68714 0.81801 0.0
C184 C 0.33262 0.70108 0.89805 0.0
Zn185 Zn 0.40506 0.67687 0.81174 0.0
O186 O 0.44471 0.68119 0.00573 0.0
C187 C 0.43438 0.71994 0.72634 0.0
O188 O 0.40572 0.68757 0.001 0.0
H189 H 0.36208 0.6573 0.65678 0.0
H190 H 0.48925 0.69427 0.93519 0.0
H191 H 0.36905 0.71052 0.94714 0.0
O192 O 0.45211 0.70564 0.74897 0.0
O193 O 0.41281 0.71281 0.7479 0.0
H194 H 0.47813 0.62751 0.74434 0.0
O195 O 0.406 0.66554 0.6237 0.0
O196 O 0.44476 0.65722 0.63307 0.0
O197 O 0.39762 0.64098 0.87354 0.0
O198 O 0.43661 0.63318 0.8872 0.0
C199 C 0.42521 0.65802 0.56949 0.0
H200 H 0.53137 0.68261 -0.01216 0.0
H201 H 0.52015 0.61477 0.79164 0.0
H202 H 0.31778 0.66138 0.66111 0.0
H203 H 0.32487 0.71289 0.97027 0.0
C204 C 0.65699 0.61128 0.39342 0.0
N205 N 0.68322 0.66546 0.14522 0.0
C206 C 0.66662 0.68135 0.1935 0.0
C207 C 0.67001 0.70641 0.18011 0.0
C208 C 0.6906 0.71513 0.11603 0.0
C209 C 0.70777 0.69845 0.07056 0.0
C210 C 0.70374 0.67358 0.0865 0.0
Zn211 Zn 0.67588 0.62867 0.14586 0.0
C212 C 0.71831 0.59909 0.23826 0.0
N213 N 0.65921 0.55201 0.13827 0.0
C214 C 0.6371 0.54403 0.17865 0.0
C215 C 0.67463 0.53685 0.07487 0.0
C216 C 0.6676 0.51313 0.04471 0.0
C217 C 0.64457 0.50483 0.08088 0.0
C218 C 0.62941 0.52036 0.15112 0.0
Zn219 Zn 0.66754 0.58876 0.14855 0.0
O220 O 0.66423 0.62997 0.33308 0.0
C221 C 0.62522 0.61911 0.06124 0.0
O222 O 0.65613 0.59105 0.33547 0.0
H223 H 0.69205 0.54347 0.04269 0.0
H224 H 0.65036 0.67459 0.2391 0.0
H225 H 0.62496 0.55633 0.22767 0.0
O226 O 0.64026 0.63615 0.07962 0.0
O227 O 0.63156 0.59728 0.08259 0.0
H228 H 0.71669 0.66073 0.04843 0.0
O229 O 0.67906 0.58756 0.96125 0.0
O230 O 0.68719 0.62627 0.95862 0.0
O231 O 0.70389 0.58143 0.21752 0.0
O232 O 0.71149 0.62065 0.21325 0.0
C233 C 0.6862 0.60614 0.90045 0.0
H234 H 0.65639 0.71884 0.21591 0.0
H235 H 0.72383 0.70462 0.02037 0.0
H236 H 0.67973 0.50159 -0.00963 0.0
H237 H 0.61151 0.51451 0.18032 0.0
C238 C 0.6033 0.34758 0.06489 0.0
N239 N 0.54928 0.37433 0.8256 0.0
C240 C 0.53417 0.35887 0.88915 0.0
C241 C 0.51037 0.36581 0.91831 0.0
C242 C 0.50199 0.38878 0.88088 0.0
C243 C 0.51748 0.40396 0.81039 0.0
C244 C 0.54121 0.39636 0.78393 0.0
Zn245 Zn 0.586 0.36633 0.81627 0.0
C246 C 0.61575 0.40897 0.90547 0.0
N247 N 0.66248 0.35133 0.81995 0.0
C248 C 0.67136 0.33104 0.87839 0.0
C249 C 0.67766 0.36832 0.76942 0.0
C250 C 0.70276 0.36555 0.77935 0.0
C251 C 0.71231 0.34516 0.8421 0.0
C252 C 0.69639 0.3276 0.89085 0.0
Zn253 Zn 0.62579 0.35818 0.81985 0.0
O254 O 0.58474 0.35469 0.00385 0.0
C255 C 0.59696 0.31547 0.72599 0.0
O256 O 0.62346 0.34667 0.00686 0.0
H257 H 0.6703 0.38439 0.72424 0.0
H258 H 0.54088 0.34151 0.92223 0.0
H259 H 0.65901 0.31779 0.91833 0.0
O260 O 0.57915 0.32977 0.74655 0.0
O261 O 0.61838 0.32247 0.75185 0.0
H262 H 0.55349 0.40852 0.73477 0.0
O263 O 0.62711 0.36994 0.63231 0.0
O264 O 0.58822 0.37785 0.6294 0.0
O265 O 0.63285 0.39395 0.88716 0.0
O266 O 0.59401 0.40255 0.88307 0.0
C267 C 0.60846 0.37704 0.57153 0.0
H268 H 0.49885 0.35369 0.97291 0.0
H269 H 0.51155 0.42182 0.78033 0.0
H270 H 0.71462 0.37944 0.74107 0.0
H271 H 0.70325 0.31169 0.94015 0.0
C272 C 0.87567 0.60583 0.31861 0.0
N273 N 0.85129 0.66321 0.55237 0.0
C274 C 0.86488 0.67747 0.47326 0.0
C275 C 0.86247 0.70272 0.4764 0.0
C276 C 0.84691 0.7135 0.56665 0.0
C277 C 0.83278 0.69839 0.64512 0.0
C278 C 0.83474 0.67326 0.63368 0.0
Zn279 Zn 0.85724 0.62617 0.56091 0.0
C280 C 0.81357 0.59823 0.47479 0.0
N281 N 0.87016 0.54917 0.58427 0.0
C282 C 0.89125 0.53912 0.54275 0.0
C283 C 0.85369 0.53556 0.64885 0.0
C284 C 0.85792 0.51097 0.67261 0.0
C285 C 0.87872 0.49914 0.62278 0.0
C286 C 0.89602 0.51441 0.56281 0.0
Zn287 Zn 0.86396 0.58607 0.56864 0.0
O288 O 0.86858 0.62521 0.37279 0.0
C289 C 0.90742 0.61505 0.65004 0.0
O290 O 0.87609 0.58624 0.38245 0.0
H291 H 0.83744 0.54397 0.68614 0.0
H292 H 0.87808 0.6694 0.4098 0.0
H293 H 0.90474 0.55041 0.49673 0.0
O294 O 0.89329 0.63253 0.62289 0.0
O295 O 0.90011 0.5933 0.63683 0.0
H296 H 0.82338 0.66186 0.69267 0.0
O297 O 0.85191 0.58653 0.7555 0.0
O298 O 0.84648 0.62566 0.75009 0.0
O299 O 0.82741 0.58014 0.49739 0.0
O300 O 0.8212 0.61958 0.49712 0.0
C301 C 0.84615 0.60596 0.81247 0.0
H302 H 0.87351 0.71378 0.4133 0.0
H303 H 0.82044 0.70598 0.71534 0.0
H304 H 0.84495 0.50233 0.73428 0.0
H305 H 0.91363 0.50772 0.53433 0.0
C306 C 0.60573 0.18782 0.14981 0.0
N307 N 0.54951 0.16198 0.3784 0.0
C308 C 0.53453 0.17792 0.31723 0.0
C309 C 0.51077 0.17123 0.28536 0.0
C310 C 0.5024 0.14787 0.31587 0.0
C311 C 0.51787 0.13213 0.38321 0.0
C312 C 0.54141 0.13961 0.41403 0.0
Zn313 Zn 0.58628 0.16952 0.3946 0.0
C314 C 0.61594 0.1263 0.31075 0.0
N315 N 0.66309 0.18281 0.4055 0.0
C316 C 0.67258 0.20289 0.34798 0.0
C317 C 0.67775 0.16546 0.45716 0.0
C318 C 0.70294 0.16755 0.44846 0.0
C319 C 0.71311 0.18765 0.38592 0.0
C320 C 0.69771 0.20567 0.33688 0.0
Zn321 Zn 0.62628 0.17668 0.39908 0.0
O322 O 0.58653 0.18139 0.20742 0.0
C323 C 0.59754 0.22008 0.48823 0.0
O324 O 0.62547 0.18819 0.21162 0.0
H325 H 0.66991 0.14955 0.5016 0.0
H326 H 0.5413 0.19551 0.28837 0.0
H327 H 0.66066 0.21643 0.30699 0.0
O328 O 0.57959 0.20615 0.46453 0.0
O329 O 0.61898 0.21256 0.46649 0.0
H330 H 0.55356 0.12709 0.46177 0.0
O331 O 0.62605 0.16475 0.5864 0.0
O332 O 0.587 0.15768 0.58163 0.0
O333 O 0.63323 0.14082 0.33343 0.0
O334 O 0.5942 0.13327 0.328 0.0
C335 C 0.60684 0.15792 0.64319 0.0
H336 H 0.49932 0.18383 0.2333 0.0
H337 H 0.51202 0.11398 0.40822 0.0
H338 H 0.71439 0.15331 0.48697 0.0
H339 H 0.70505 0.22136 0.28774 0.0
C340 C 0.15574 0.42389 0.32394 0.0
N341 N 0.18255 0.36659 0.54982 0.0
C342 C 0.16632 0.35199 0.48992 0.0
C343 C 0.17074 0.32711 0.4782 0.0
C344 C 0.19263 0.31669 0.52361 0.0
C345 C 0.20775 0.33225 0.5961 0.0
C346 C 0.20279 0.35708 0.60445 0.0
Zn347 Zn 0.17568 0.40321 0.56669 0.0
C348 C 0.21769 0.43295 0.47779 0.0
N349 N 0.15947 0.4797 0.59629 0.0
C350 C 0.13859 0.49013 0.55419 0.0
C351 C 0.17561 0.49282 0.66568 0.0
C352 C 0.17131 0.51724 0.6934 0.0
C353 C 0.15094 0.5296 0.64199 0.0
C354 C 0.13383 0.51477 0.57772 0.0
Zn355 Zn 0.16643 0.44283 0.57345 0.0
O356 O 0.1632 0.40473 0.37949 0.0
C357 C 0.1248 0.41173 0.65877 0.0
O358 O 0.1547 0.44353 0.38675 0.0
H359 H 0.19169 0.48414 0.70333 0.0
H360 H 0.14968 0.35959 0.45238 0.0
H361 H 0.12529 0.47923 0.50444 0.0
O362 O 0.14055 0.39552 0.63494 0.0
O363 O 0.13012 0.43395 0.63928 0.0
H364 H 0.21503 0.36872 0.65691 0.0
O365 O 0.17811 0.44109 0.76103 0.0
O366 O 0.18762 0.40268 0.75372 0.0
O367 O 0.20315 0.45032 0.50378 0.0
O368 O 0.21099 0.41122 0.498 0.0
C369 C 0.18568 0.42211 0.81719 0.0
H370 H 0.15654 0.31627 0.436 0.0
H371 H 0.22302 0.32591 0.65072 0.0
H372 H 0.18389 0.52536 0.75897 0.0
H373 H 0.1164 0.52175 0.54805 0.0
C374 C 0.42643 0.84762 0.15536 0.0
N375 N 0.48032 0.87532 0.38857 0.0
C376 C 0.49534 0.8593 0.32864 0.0
C377 C 0.51921 0.86575 0.29889 0.0
C378 C 0.52776 0.88882 0.33199 0.0
C379 C 0.51233 0.90468 0.3983 0.0
C380 C 0.4885 0.89755 0.4255 0.0
Zn381 Zn 0.44381 0.86705 0.40238 0.0
C382 C 0.41222 0.90815 0.31341 0.0
N383 N 0.36746 0.84975 0.40659 0.0
C384 C 0.35762 0.83376 0.32168 0.0
C385 C 0.35295 0.86303 0.48567 0.0
C386 C 0.32776 0.86076 0.48014 0.0
C387 C 0.31718 0.84575 0.38711 0.0
C388 C 0.33247 0.83195 0.30797 0.0
Zn389 Zn 0.40441 0.85697 0.40242 0.0
O390 O 0.44476 0.85534 0.21563 0.0
C391 C 0.43436 0.81547 0.49335 0.0
O392 O 0.40644 0.84586 0.21437 0.0
H393 H 0.36072 0.87616 0.55015 0.0
H394 H 0.48853 0.84178 0.29941 0.0
H395 H 0.36917 0.82291 0.26099 0.0
O396 O 0.45157 0.83051 0.47311 0.0
O397 O 0.41265 0.82162 0.46816 0.0
H398 H 0.47628 0.91011 0.47209 0.0
O399 O 0.40407 0.86869 0.59113 0.0
O400 O 0.4424 0.87886 0.58836 0.0
O401 O 0.3963 0.89213 0.33635 0.0
O402 O 0.43446 0.90318 0.33395 0.0
C403 C 0.42252 0.87709 0.64874 0.0
H404 H 0.53069 0.85312 0.24751 0.0
H405 H 0.51842 0.92264 0.4249 0.0
H406 H 0.31659 0.87165 0.54329 0.0
H407 H 0.32503 0.82011 0.23511 0.0
C408 C 0.87437 0.92454 0.90075 0.0
N409 N 0.84696 0.86842 0.66627 0.0
C410 C 0.86049 0.85404 0.74517 0.0
C411 C 0.85873 0.82881 0.73824 0.0
C412 C 0.84398 0.81815 0.64417 0.0
C413 C 0.82971 0.83333 0.56653 0.0
C414 C 0.83097 0.85846 0.58185 0.0
Zn415 Zn 0.85401 0.9053 0.65794 0.0
C416 C 0.81241 0.93535 0.7465 0.0
N417 N 0.87207 0.98117 0.63365 0.0
C418 C 0.89418 0.98921 0.67339 0.0
C419 C 0.85659 0.99617 0.56939 0.0
C420 C 0.86351 0.01989 0.53836 0.0
C421 C 0.88648 0.02828 0.57466 0.0
C422 C 0.90174 1.01286 0.64511 0.0
Zn423 Zn 0.8637 0.94475 0.65136 0.0
O424 O 0.86607 0.9057 0.8463 0.0
C425 C 0.90477 0.91299 0.56542 0.0
O426 O 0.87581 0.94413 0.8374 0.0
H427 H 0.83917 0.98947 0.538 0.0
H428 H 0.87346 0.86197 0.81018 0.0
H429 H 0.90633 0.977 0.72319 0.0
O430 O 0.88895 0.89706 0.59184 0.0
O431 O 0.8997 0.9353 0.58274 0.0
H432 H 0.81977 0.86991 0.52224 0.0
O433 O 0.8518 0.94491 0.46451 0.0
O434 O 0.84274 0.90647 0.4694 0.0
O435 O 0.82722 0.95263 0.72298 0.0
O436 O 0.81879 0.91358 0.72452 0.0
C437 C 0.84445 0.9261 0.40698 0.0
H438 H 0.86988 0.81769 0.80064 0.0
H439 H 0.818 0.82583 0.49327 0.0
H440 H 0.85134 0.03138 0.48378 0.0
H441 H 0.9196 0.01883 0.67424 0.0
C442 C 0.92782 0.18535 0.5604 0.0
N443 N 0.98113 0.15893 0.31731 0.0
C444 C 0.99627 0.1745 0.37926 0.0
C445 C 0.0202 0.16777 0.40652 0.0
C446 C 0.02867 0.14489 0.36884 0.0
C447 C 1.01314 0.1296 0.2998 0.0
C448 C 0.98927 0.13699 0.27518 0.0
Zn449 Zn 0.94439 0.16675 0.31172 0.0
C450 C 0.91506 0.12421 0.40126 0.0
N451 N 0.86783 0.18162 0.32126 0.0
C452 C 0.85554 0.17433 0.42816 0.0
C453 C 0.85598 0.19203 0.22034 0.0
C454 C 0.83076 0.19505 0.22407 0.0
C455 C 0.81777 0.18723 0.33247 0.0
C456 C 0.83043 0.17699 0.43576 0.0
Zn457 Zn 0.90461 0.17501 0.31603 0.0
O458 O 0.94622 0.17794 0.49927 0.0
C459 C 0.93323 0.21756 0.22146 0.0
O460 O 0.9077 0.18679 0.50233 0.0
H461 H 0.86603 0.19765 0.13619 0.0
H462 H 0.9895 0.19178 0.41275 0.0
H463 H 0.86518 0.16604 0.50733 0.0
O464 O 0.95098 0.20324 0.24293 0.0
O465 O 0.91172 0.21065 0.24613 0.0
H466 H 0.97695 0.12475 0.22726 0.0
O467 O 0.90251 0.16302 0.12935 0.0
O468 O 0.94152 0.15556 0.12473 0.0
O469 O 0.89795 0.13926 0.38399 0.0
O470 O 0.93676 0.13058 0.37788 0.0
C471 C 0.92115 0.1561 0.06792 0.0
H472 H 0.03175 0.17997 0.4601 0.0
H473 H 0.01914 0.11179 0.26967 0.0
H474 H 0.82144 0.20301 0.1427 0.0
H475 H 0.8209 0.17075 0.52062 0.0
C476 C 0.1568 0.11012 0.87378 0.0
N477 N 0.18278 0.16354 0.62113 0.0
C478 C 0.1664 0.17962 0.66955 0.0
C479 C 0.16979 0.2046 0.65325 0.0
C480 C 0.19012 0.213 0.58572 0.0
C481 C 0.20707 0.19613 0.54006 0.0
C482 C 0.20309 0.17137 0.55942 0.0
Zn483 Zn 0.17544 0.12689 0.62546 0.0
C484 C 0.21818 0.09789 0.7205 0.0
N485 N 0.15907 0.0503 0.62275 0.0
C486 C 0.1365 0.04295 0.6593 0.0
C487 C 0.17463 0.03458 0.56443 0.0
C488 C 0.16736 1.01084 0.53616 0.0
C489 C 0.14384 1.00323 0.5678 0.0
C490 C 0.12848 0.0194 0.63236 0.0
Zn491 Zn 0.16757 0.08699 0.62962 0.0
O492 O 0.1639 0.12878 0.81283 0.0
C493 C 0.12498 0.11699 0.53967 0.0
O494 O 0.156 0.08985 0.81625 0.0
H495 H 0.19236 0.04076 0.53465 0.0
H496 H 0.15028 0.17306 0.71748 0.0
H497 H 0.12428 0.05569 0.70451 0.0
O498 O 0.1398 0.13419 0.55867 0.0
O499 O 0.13157 0.09525 0.56154 0.0
H500 H 0.2159 0.15835 0.52156 0.0
O501 O 0.17923 0.08507 0.44253 0.0
O502 O 0.18666 0.1239 0.43824 0.0
O503 O 0.204 0.07998 0.70069 0.0
O504 O 0.21108 0.11926 0.69341 0.0
C505 C 0.18602 0.10367 0.38086 0.0
H506 H 0.15635 0.2172 0.68935 0.0
H507 H 0.22293 0.20207 0.48738 0.0
H508 H 0.17965 0.99878 0.4862 0.0
H509 H 0.11023 1.01407 0.65825 0.0
C510 C 0.10387 0.84576 0.56652 0.0
N511 N 0.04765 0.86995 0.3368 0.0
C512 C 0.03422 0.85266 0.39632 0.0
C513 C 1.00964 0.85639 0.42184 0.0
C514 C 0.99767 0.87778 0.38041 0.0
C515 C 1.01268 0.89576 0.32416 0.0
C516 C 0.03739 0.89138 0.30159 0.0
Zn517 Zn 0.0846 0.86367 0.32133 0.0
C518 C 0.11404 0.90703 0.40104 0.0
N519 N 0.16176 0.85015 0.30941 0.0
C520 C 0.1721 0.83408 0.39274 0.0
C521 C 0.17581 0.86362 0.22867 0.0
C522 C 0.20105 0.86147 0.23114 0.0
C523 C 0.21214 0.84631 0.32248 0.0
C524 C 0.19729 0.83235 0.4033 0.0
Zn525 Zn 0.12461 0.85615 0.3164 0.0
O526 O 0.08478 0.85191 0.50762 0.0
C527 C 0.09625 0.81255 0.23257 0.0
O528 O 0.12377 0.84564 0.50608 0.0
H529 H 0.16759 0.87664 0.16459 0.0
H530 H 0.04278 0.83605 0.42827 0.0
H531 H 0.16089 0.82296 0.45401 0.0
O532 O 0.07844 0.82685 0.25271 0.0
O533 O 0.11773 0.81989 0.25414 0.0
H534 H 0.04849 0.9054 0.25882 0.0
O535 O 0.12384 0.86727 0.12842 0.0
O536 O 0.08505 0.87563 0.1346 0.0
O537 O 0.13121 0.8924 0.37599 0.0
O538 O 0.09217 0.9 0.38815 0.0
C539 C 0.10482 0.87487 0.07262 0.0
H540 H 1.0012 0.84242 0.47748 0.0
H541 H 1.00568 0.91353 0.30017 0.0
H542 H 0.21188 0.87243 0.16656 0.0
H543 H 0.20512 0.82037 0.47473 0.0
C544 C 0.38392 0.94361 0.3198 0.0
C545 C 0.40408 0.93209 0.26119 0.0
C546 C 0.40133 0.96179 0.08364 0.0
C547 C 0.38334 0.97489 0.15332 0.0
N548 N 0.34674 0.96288 0.26242 0.0
N549 N 0.43119 0.92927 0.07914 0.0
C550 C 0.37132 0.96193 0.25224 0.0
C551 C 0.41264 0.94092 0.14053 0.0
N552 N 0.37638 0.93701 0.43979 0.0
N553 N 0.40467 0.967 0.95656 0.0
H554 H 0.43846 0.91286 0.11056 0.0
H555 H 0.4402 0.93644 -0.00017 0.0
H556 H 0.39367 0.97948 0.90844 0.0
H557 H 0.41577 0.95705 0.8954 0.0
H558 H 0.3624 0.94614 0.48699 0.0
H559 H 0.38558 0.9243 0.49608 0.0
H560 H 0.33708 0.95228 0.32797 0.0
H561 H 0.33616 0.97049 0.18956 0.0
C562 C 0.9508 0.62636 0.60791 0.0
C563 C 0.93229 0.62029 0.69695 0.0
C564 C 0.9596 0.62981 0.87637 0.0
C565 C 0.97859 0.63452 0.78748 0.0
N566 N 0.99372 0.63275 0.57017 0.0
N567 N 0.91988 0.61226 0.9148 0.0
C568 C 0.97458 0.63153 0.6535 0.0
C569 C 0.93699 0.62073 0.83096 0.0
N570 N 0.94553 0.62758 0.47968 0.0
N571 N 0.96284 0.63501 0.00355 0.0
H572 H 0.90297 0.60599 0.88507 0.0
H573 H 0.9231 0.60961 0.01235 0.0
H574 H 0.97907 0.64174 0.04023 0.0
H575 H 0.94893 0.63455 0.07112 0.0
H576 H 0.95733 0.63471 0.41132 0.0
H577 H 0.92865 0.62287 0.44214 0.0
H578 H 0.99251 0.62825 0.47334 0.0
H579 H 1.01144 0.63622 0.59973 0.0
C580 C 0.63398 0.0737 0.09339 0.0
C581 C 0.63575 0.05442 0.18374 0.0
C582 C 0.62431 0.08234 0.35778 0.0
C583 C 0.62137 0.10126 0.26645 0.0
N584 N 0.61917 0.11427 0.04591 0.0
N585 N 0.62838 0.03911 0.39744 0.0
C586 C 0.62492 0.0967 0.13366 0.0
C587 C 0.6297 0.05839 0.31482 0.0
N588 N 0.64183 0.07027 0.97018 0.0
N589 N 0.62256 0.08741 0.48599 0.0
H590 H 0.63219 0.02134 0.36975 0.0
H591 H 0.6216 0.04033 0.49052 0.0
H592 H 0.61784 0.1045 0.52081 0.0
H593 H 0.62733 0.0752 0.55812 0.0
H594 H 0.64357 0.08424 0.90333 0.0
H595 H 0.64842 0.05368 0.93712 0.0
H596 H 0.61883 0.11133 0.9472 0.0
H597 H 0.61271 0.13133 0.07242 0.0
C598 C 0.07047 0.40173 0.8851 0.0
C599 C 0.05757 0.38361 0.81552 0.0
C600 C 0.08901 0.38403 0.65059 0.0
C601 C 0.1007 0.40393 0.71003 0.0
N602 N 0.10372 0.43076 0.89269 0.0
N603 N 0.07003 0.34687 0.70916 0.0
C604 C 0.09176 0.41259 0.83017 0.0
C605 C 0.07069 0.37149 0.71779 0.0
N606 N 0.06442 0.40576 0.01048 0.0
N607 N 0.09552 0.37659 0.53049 0.0
H608 H 0.06289 0.33636 0.78362 0.0
H609 H 0.08064 0.33722 0.6438 0.0
H610 H 0.10819 0.38582 0.4743 0.0
H611 H 0.08634 0.36267 0.48325 0.0
H612 H 0.07388 0.41717 0.07193 0.0
H613 H 0.05148 0.39518 0.0576 0.0
H614 H 0.09671 0.43988 0.97181 0.0
H615 H 0.1204 0.43755 0.86275 0.0
C616 C 0.39741 0.55938 0.8989 0.0
C617 C 0.39357 0.55516 0.03221 0.0
C618 C 0.40756 0.59655 0.07926 0.0
C619 C 0.40883 0.60149 0.94558 0.0
N620 N 0.40259 0.58875 0.72688 0.0
N621 N 0.39196 0.57055 0.24865 0.0
C622 C 0.40306 0.58321 0.855 0.0
C623 C 0.39795 0.57395 0.12244 0.0
N624 N 0.39659 0.5404 0.8147 0.0
N625 N 0.41578 0.6134 0.1649 0.0
H626 H 0.38478 0.55434 0.28363 0.0
H627 H 0.39222 0.58434 0.31679 0.0
H628 H 0.42249 0.63026 0.13662 0.0
H629 H 0.41781 0.60997 0.26269 0.0
H630 H 0.4017 0.54177 0.7187 0.0
H631 H 0.39283 0.52263 0.84299 0.0
H632 H 0.3957 0.57714 0.65715 0.0
H633 H 0.40763 0.60567 0.69068 0.0
C634 C 0.5804 0.62269 0.10116 0.0
C635 C 0.60035 0.62492 0.0158 0.0
C636 C 0.57369 0.64275 0.85149 0.0
C637 C 0.55354 0.63943 0.9345 0.0
N638 N 0.53672 0.6229 0.12973 0.0
N639 N 0.61567 0.63301 0.8033 0.0
C640 C 0.55662 0.62837 0.05685 0.0
C641 C 0.5969 0.63383 0.88901 0.0
N642 N 0.58434 0.61613 0.22625 0.0
N643 N 0.57072 0.65499 0.73819 0.0
H644 H 0.63284 0.62654 0.82757 0.0
H645 H 0.61381 0.63678 0.70579 0.0
H646 H 0.5539 0.66123 0.70629 0.0
H647 H 0.58505 0.66045 0.67989 0.0
H648 H 0.57109 0.61689 0.2973 0.0
H649 H 0.60141 0.61154 0.2619 0.0
H650 H 0.53743 0.61242 0.21295 0.0
H651 H 0.51909 0.62731 0.10206 0.0
C652 C 0.63873 0.45998 0.12083 0.0
C653 C 0.63591 0.4804 0.03881 0.0
C654 C 0.61954 0.45403 0.86911 0.0
C655 C 0.62137 0.43379 0.9532 0.0
N656 N 0.62862 0.4179 0.16543 0.0
N657 N 0.62026 0.49783 0.84306 0.0
C658 C 0.62983 0.4369 0.08099 0.0
C659 C 0.62526 0.47769 0.91533 0.0
N660 N 0.65051 0.46255 0.23547 0.0
N661 N 0.61332 0.45048 0.74338 0.0
H662 H 0.62471 0.51536 0.87216 0.0
H663 H 0.61012 0.49746 0.75882 0.0
H664 H 0.60868 0.43353 0.70652 0.0
H665 H 0.61439 0.4639 0.67316 0.0
H666 H 0.65567 0.44802 0.29336 0.0
H667 H 0.65666 0.47925 0.26915 0.0
H668 H 0.63203 0.41948 0.26335 0.0
H669 H 0.62218 0.40082 0.13948 0.0
C670 C 0.43411 0.40338 0.87957 0.0
C671 C 0.43089 0.41194 0.00702 0.0
C672 C 0.47471 0.40823 0.04529 0.0
C673 C 0.47754 0.39743 0.92234 0.0
N674 N 0.45995 0.38259 0.72606 0.0
N675 N 0.44735 0.42024 0.21668 0.0
C676 C 0.45723 0.39449 0.84023 0.0
C677 C 0.45102 0.41393 0.09117 0.0
N678 N 0.41517 0.40446 0.79503 0.0
N679 N 0.49476 0.41339 0.11738 0.0
H680 H 0.43037 0.42487 0.25336 0.0
H681 H 0.46072 0.41927 0.28697 0.0
H682 H 0.51233 0.40895 0.08857 0.0
H683 H 0.49427 0.42365 0.20112 0.0
H684 H 0.41683 0.40094 0.69726 0.0
H685 H 0.39807 0.41092 0.82066 0.0
H686 H 0.4455 0.37735 0.66821 0.0
H687 H 0.47669 0.37643 0.69276 0.0
C688 C 0.88462 0.44039 0.80832 0.0
C689 C 0.90523 0.4295 0.75089 0.0
C690 C 0.90269 0.45975 0.57629 0.0
C691 C 0.88409 0.47215 0.64503 0.0
N692 N 0.84727 0.45895 0.74787 0.0
N693 N 0.93322 0.42784 0.57235 0.0
C694 C 0.87191 0.4586 0.74092 0.0
C695 C 0.91416 0.4389 0.63232 0.0
N696 N 0.87675 0.43326 0.92684 0.0
N697 N 0.90661 0.46567 0.45055 0.0
H698 H 0.94079 0.41157 0.60396 0.0
H699 H 0.94237 0.43537 0.49446 0.0
H700 H 0.89565 0.47822 0.40266 0.0
H701 H 0.91827 0.45629 0.38979 0.0
H702 H 0.86236 0.44192 0.97309 0.0
H703 H 0.88602 0.4206 -0.01689 0.0
H704 H 0.83757 0.4479 0.8111 0.0
H705 H 0.83687 0.46665 0.67454 0.0
C706 C 0.45919 0.13498 0.36121 0.0
C707 C 0.47805 0.13939 0.27106 0.0
C708 C 0.45014 0.12969 0.09399 0.0
C709 C 0.43183 0.12383 0.18459 0.0
N710 N 0.41988 0.11684 0.404 0.0
N711 N 0.49294 0.13627 0.05367 0.0
C712 C 0.43669 0.12519 0.3182 0.0
C713 C 0.47392 0.13544 0.13784 0.0
N714 N 0.46239 0.14115 0.48717 0.0
N715 N 0.44469 0.13017 0.96588 0.0
H716 H 0.51067 0.14007 0.08191 0.0
H717 H 0.49164 0.13109 0.95783 0.0
H718 H 0.4278 0.12509 0.92977 0.0
H719 H 0.45631 0.13712 0.89611 0.0
H720 H 0.44853 0.14087 0.55505 0.0
H721 H 0.47848 0.14855 0.52201 0.0
H722 H 0.42327 0.11486 0.50183 0.0
H723 H 0.40311 0.10994 0.3758 0.0
C724 C 0.14626 0.58842 0.82935 0.0
C725 C 0.12589 0.59989 0.77228 0.0
C726 C 0.1277 0.56968 0.59752 0.0
C727 C 0.1459 0.55664 0.66632 0.0
N728 N 0.18307 0.56881 0.76891 0.0
N729 N 0.09804 0.60238 0.59327 0.0
C730 C 0.15845 0.56986 0.76199 0.0
C731 C 0.11676 0.59078 0.65366 0.0
N732 N 0.15435 0.59522 0.94778 0.0
N733 N 0.12387 0.56424 0.47126 0.0
H734 H 0.09108 0.61898 0.62338 0.0
H735 H 0.08861 0.59501 0.51609 0.0
H736 H 0.13469 0.55169 0.42286 0.0
H737 H 0.11257 0.57412 0.41054 0.0
H738 H 0.16851 0.58613 -0.00615 0.0
H739 H 0.14543 0.60803 0.00434 0.0
H740 H 0.19308 0.5796 0.83169 0.0
H741 H 0.19327 0.56075 0.69603 0.0
C742 C 0.57949 0.91205 0.12105 0.0
C743 C 0.59944 0.9099 0.20642 0.0
C744 C 0.57254 0.89352 0.37385 0.0
C745 C 0.55241 0.89676 0.29062 0.0
N746 N 0.5358 0.91235 0.09278 0.0
N747 N 0.61474 0.90261 0.41973 0.0
C748 C 0.55564 0.90703 0.16647 0.0
C749 C 0.5959 0.90174 0.33454 0.0
N750 N 0.5835 0.91792 -0.00494 0.0
N751 N 0.5694 0.88204 0.4892 0.0
H752 H 0.63203 0.90849 0.39407 0.0
H753 H 0.61286 0.89943 0.51781 0.0
H754 H 0.55248 0.87643 0.52259 0.0
H755 H 0.58365 0.8766 0.54813 0.0
H756 H 0.57022 0.91707 0.92424 0.0
H757 H 0.60063 0.922 0.95863 0.0
H758 H 0.53661 0.92229 0.00778 0.0
H759 H 0.51811 0.90836 0.12122 0.0
C760 C 0.89151 0.07309 0.61426 0.0
C761 C 0.89498 0.05274 0.53303 0.0
C762 C 0.91192 0.07923 0.36513 0.0
C763 C 0.90946 0.0994 0.44864 0.0
N764 N 0.90097 0.11524 0.65939 0.0
N765 N 0.91177 0.03545 0.33996 0.0
C766 C 0.90038 0.09624 0.57525 0.0
C767 C 0.90622 0.05553 0.41107 0.0
N768 N 0.87917 0.07036 0.72732 0.0
N769 N 0.91864 0.08287 0.24005 0.0
H770 H 0.90728 0.01788 0.36863 0.0
H771 H 0.92236 0.03594 0.25725 0.0
H772 H 0.92319 0.09987 0.20316 0.0
H773 H 0.91804 0.06944 0.17008 0.0
H774 H 0.87357 0.08483 0.78417 0.0
H775 H 0.87304 0.05359 0.76056 0.0
H776 H 0.89703 0.11363 0.75681 0.0
H777 H 0.90742 0.13237 0.63409 0.0
C778 C 0.09671 0.13115 0.36562 0.0
C779 C 0.1001 0.12247 0.49293 0.0
C780 C 0.05627 0.12553 0.53216 0.0
C781 C 0.05322 0.13642 0.40932 0.0
N782 N 0.07047 0.1517 0.21263 0.0
N783 N 0.08388 0.1137 0.70292 0.0
C784 C 0.07344 0.13975 0.32677 0.0
C785 C 0.08005 0.12011 0.57751 0.0
N786 N 0.11563 0.13046 0.28076 0.0
N787 N 0.03633 0.12003 0.60466 0.0
H788 H 0.10094 0.1093 0.73931 0.0
H789 H 0.07053 0.1144 0.77349 0.0
H790 H 0.01869 0.12426 0.57627 0.0
H791 H 0.03701 0.10968 0.68833 0.0
H792 H 0.11389 0.13408 0.18304 0.0
H793 H 0.13285 0.12425 0.30606 0.0
H794 H 0.0848 0.1572 0.15444 0.0
H795 H 0.05362 0.15762 0.17964 0.0
C796 C 0.13185 0.93488 0.56776 0.0
C797 C 0.11986 0.93194 0.44784 0.0
C798 C 0.12374 0.97577 0.40615 0.0
C799 C 0.13498 0.97875 0.52797 0.0
N800 N 0.14658 0.96221 0.73308 0.0
N801 N 0.10178 0.94964 0.25874 0.0
C802 C 0.13813 0.95858 0.61113 0.0
C803 C 0.11489 0.95246 0.36917 0.0
N804 N 0.13759 0.9149 0.63963 0.0
N805 N 0.1223 0.99513 0.32403 0.0
H806 H 0.09625 0.9328 0.22438 0.0
H807 H 0.09506 0.96403 0.20449 0.0
H808 H 0.1279 1.01255 0.34899 0.0
H809 H 0.11698 0.99384 0.22845 0.0
H810 H 0.1493 0.91534 0.71782 0.0
H811 H 0.13165 0.89748 0.61713 0.0
H812 H 0.14672 0.94889 0.80405 0.0
H813 H 0.15194 0.97917 0.76684 0.0
C814 C 0.95811 0.87174 0.50833 0.0
C815 C 0.97077 0.88298 0.4059 0.0
C816 C 0.93699 0.91248 0.39031 0.0
C817 C 0.92859 0.90471 0.51334 0.0
N818 N 0.93422 0.87844 0.69765 0.0
N819 N 0.96378 0.90457 0.20878 0.0
C820 C 0.94032 0.88503 0.57539 0.0
C821 C 0.95789 0.901 0.33488 0.0
N822 N 0.95849 0.8472 0.52231 0.0
N823 N 0.9249 0.93043 0.3259 0.0
H824 H 0.97663 0.89376 0.1625 0.0
H825 H 0.95441 0.91598 0.14646 0.0
H826 H 0.90854 0.93775 0.35737 0.0
H827 H 0.93143 0.93884 0.24336 0.0
H828 H 0.94828 0.83819 0.59199 0.0
H829 H 0.96454 0.83607 0.44792 0.0
H830 H 0.94347 0.86473 0.74679 0.0
H831 H 0.92181 0.88813 0.75318 0.0
C832 C 0.342 0.25782 0.95804 0.0
C833 C 0.34339 0.24242 0.06726 0.0
C834 C 0.34077 0.27796 0.2082 0.0
C835 C 0.34255 0.29341 0.09941 0.0
N836 N 0.34865 0.29804 0.8709 0.0
N837 N 0.34812 0.23799 0.29681 0.0
C838 C 0.34409 0.28336 0.97409 0.0
C839 C 0.34377 0.25252 0.1927 0.0
N840 N 0.33813 0.24807 0.83924 0.0
N841 N 0.33566 0.28757 0.32608 0.0
H842 H 0.35085 0.21932 0.28987 0.0
H843 H 0.35123 0.24472 0.38873 0.0
H844 H 0.33309 0.30611 0.34079 0.0
H845 H 0.33169 0.27703 0.40652 0.0
H846 H 0.33445 0.25849 0.75795 0.0
H847 H 0.33633 0.22947 0.82402 0.0
H848 H 0.35261 0.29145 0.77961 0.0
H849 H 0.35058 0.3168 0.87834 0.0
C850 C 0.27752 0.70932 0.8357 0.0
C851 C 0.29076 0.68719 0.8356 0.0
C852 C 0.2525 0.66494 0.85133 0.0
C853 C 0.23974 0.68696 0.87272 0.0
N854 N 0.24196 0.73 0.91569 0.0
N855 N 0.29049 0.64409 0.88146 0.0
C856 C 0.25277 0.70918 0.87368 0.0
C857 C 0.27817 0.66499 0.85451 0.0
N858 N 0.28817 0.73033 0.79515 0.0
N859 N 0.24031 0.64409 0.82276 0.0
H860 H 0.30923 0.64351 0.89414 0.0
H861 H 0.28175 0.62799 0.90635 0.0
H862 H 0.22156 0.64348 0.8105 0.0
H863 H 0.24914 0.62814 0.79625 0.0
H864 H 0.27853 0.74645 0.78324 0.0
H865 H 0.30584 0.73099 0.75983 0.0
H866 H 0.25147 0.74614 0.92849 0.0
H867 H 0.2243 0.73047 0.95124 0.0
C868 C 0.68533 0.77735 0.9554 0.0
C869 C 0.6985 0.79197 0.04323 0.0
C870 C 0.71092 0.75525 0.1589 0.0
C871 C 0.69366 0.74154 0.08916 0.0
N872 N 0.6652 0.73915 0.91336 0.0
N873 N 0.73801 0.78912 0.14035 0.0
C874 C 0.6812 0.75243 -0.01565 0.0
C875 C 0.71547 0.77966 0.12257 0.0
N876 N 0.67972 0.78649 0.83711 0.0
N877 N 0.72305 0.74513 0.25996 0.0
H878 H 0.74413 0.80363 0.08459 0.0
H879 H 0.7517 0.78 0.18991 0.0
H880 H 0.72044 0.72721 0.28929 0.0
H881 H 0.73425 0.75528 0.31999 0.0
H882 H 0.67217 0.7762 0.76358 0.0
H883 H 0.68563 0.80363 0.80798 0.0
H884 H 0.65354 0.74689 0.84605 0.0
H885 H 0.66253 0.7206 0.9271 0.0
C886 C 0.77821 0.32473 0.8062 0.0
C887 C 0.79003 0.34198 0.88536 0.0
C888 C 0.75056 0.35806 0.95304 0.0
C889 C 0.73896 0.34295 0.86166 0.0
N890 N 0.74167 0.31356 0.69116 0.0
N891 N 0.78784 0.37718 0.0222 0.0
C892 C 0.75275 0.32659 0.78591 0.0
C893 C 0.77631 0.35914 0.9563 0.0
N894 N 0.7913 0.30629 0.75247 0.0
N895 N 0.73693 0.371 0.03862 0.0
H896 H 0.80665 0.37861 0.02759 0.0
H897 H 0.77882 0.39186 0.0631 0.0
H898 H 0.71803 0.37063 0.03927 0.0
H899 H 0.7443 0.38033 0.11616 0.0
H900 H 0.78346 0.29173 0.7045 0.0
H901 H 0.80995 0.3044 0.76563 0.0
H902 H 0.75108 0.30341 0.62322 0.0
H903 H 0.72305 0.31429 0.67416 0.0
C904 C 0.82359 0.75301 0.58069 0.0
C905 C 0.84609 0.74044 0.58306 0.0
C906 C 0.86703 0.77935 0.6025 0.0
C907 C 0.84454 0.79136 0.62237 0.0
N908 N 0.80144 0.78766 0.66055 0.0
N909 N 0.88892 0.74195 0.63353 0.0
C910 C 0.82276 0.77764 0.62014 0.0
C911 C 0.86778 0.75367 0.60473 0.0
N912 N 0.80315 0.74184 0.53662 0.0
N913 N 0.88757 0.79226 0.57627 0.0
H914 H 0.89005 0.72321 0.64568 0.0
H915 H 0.90461 0.75116 0.66037 0.0
H916 H 0.88762 0.81104 0.56454 0.0
H917 H 0.90388 0.78397 0.55101 0.0
H918 H 0.78682 0.75103 0.52313 0.0
H919 H 0.80324 0.72426 0.49992 0.0
H920 H 0.78557 0.7776 0.67076 0.0
H921 H 0.80026 0.80519 0.69743 0.0
C922 C 0.77653 0.1722 0.26665 0.0
C923 C 0.79082 0.18886 0.33754 0.0
C924 C 0.75415 0.20477 0.44171 0.0
C925 C 0.7398 0.189 0.36568 0.0
N926 N 0.7367 0.16143 0.18703 0.0
N927 N 0.79323 0.22402 0.47392 0.0
C928 C 0.75083 0.17384 0.27233 0.0
C929 C 0.77959 0.20609 0.41951 0.0
N930 N 0.7875 0.1541 0.19826 0.0
N931 N 0.74358 0.21781 0.53824 0.0
H932 H 0.81188 0.2255 0.45948 0.0
H933 H 0.78585 0.23858 0.52399 0.0
H934 H 0.725 0.21748 0.55646 0.0
H935 H 0.75337 0.22753 0.60628 0.0
H936 H 0.77807 0.13974 0.1571 0.0
H937 H 0.80626 0.15228 0.19104 0.0
H938 H 0.74365 0.15217 0.10813 0.0
H939 H 0.7178 0.16217 0.18817 0.0
C940 C 0.18329 0.27502 0.42486 0.0
C941 C 0.19764 0.28955 0.50758 0.0
C942 C 0.21154 0.25285 0.61795 0.0
C943 C 0.19315 0.23927 0.55602 0.0
N944 N 0.16252 0.2369 0.39057 0.0
N945 N 0.23845 0.2866 0.58796 0.0
C946 C 0.1794 0.25015 0.45572 0.0
C947 C 0.2157 0.27717 0.57932 0.0
N948 N 0.17642 0.28408 0.3083 0.0
N949 N 0.22498 0.24278 0.71437 0.0
H950 H 0.2436 0.30157 0.53271 0.0
H951 H 0.25285 0.27734 0.63058 0.0
H952 H 0.22256 0.22498 0.746 0.0
H953 H 0.23715 0.25291 0.76894 0.0
H954 H 0.16789 0.27379 0.23784 0.0
H955 H 0.18226 0.30109 0.27658 0.0
H956 H 0.15006 0.24468 0.32751 0.0
H957 H 0.16006 0.21834 0.40481 0.0
C958 C 0.27707 0.82348 0.36961 0.0
C959 C 0.29028 0.84559 0.36837 0.0
C960 C 0.25199 0.86796 0.35589 0.0
C961 C 0.23912 0.84594 0.33748 0.0
N962 N 0.24113 0.80289 0.29456 0.0
N963 N 0.28992 0.8886 0.32078 0.0
C964 C 0.25215 0.82369 0.3348 0.0
C965 C 0.27765 0.86779 0.34965 0.0
N966 N 0.28786 0.80244 0.40895 0.0
N967 N 0.23997 0.8889 0.38516 0.0
H968 H 0.30862 0.88907 0.30637 0.0
H969 H 0.28113 0.90471 0.29615 0.0
H970 H 0.2213 0.88962 0.39992 0.0
H971 H 0.24895 0.90485 0.40978 0.0
H972 H 0.27827 0.78635 0.42205 0.0
H973 H 0.30568 0.80169 0.44205 0.0
H974 H 0.25055 0.78671 0.28054 0.0
H975 H 0.22329 0.80248 0.26156 0.0
C976 C 0.24558 0.08729 0.90814 0.0
C977 C 0.24286 0.09449 0.77751 0.0
C978 C 0.28637 0.10402 0.76676 0.0
C979 C 0.28927 0.09642 0.8967 0.0
N980 N 0.2727 0.07698 0.08452 0.0
N981 N 0.26128 0.10456 0.57493 0.0
C982 C 0.26921 0.08664 0.9649 0.0
C983 C 0.26349 0.10133 0.70473 0.0
N984 N 0.22544 0.08245 -0.01975 0.0
N985 N 0.30544 0.11429 0.70292 0.0
H986 H 0.24485 0.10248 0.52654 0.0
H987 H 0.27595 0.10703 0.5134 0.0
H988 H 0.32288 0.11509 0.74084 0.0
H989 H 0.30373 0.12326 0.61527 0.0
H990 H 0.22579 0.07996 0.07933 0.0
H991 H 0.20796 0.08249 0.94236 0.0
H992 H 0.25952 0.06723 0.1341 0.0
H993 H 0.28943 0.0772 0.13106 0.0
C994 C 0.09807 0.76198 -0.01752 0.0
C995 C 0.09168 0.74141 0.0576 0.0
C996 C 0.086 0.76781 0.24676 0.0
C997 C 0.09251 0.78829 0.17141 0.0
N998 N 0.10017 0.80581 0.96357 0.0
N999 N 0.0761 0.7248 0.25543 0.0
C1000 C 0.09717 0.7856 0.038 0.0
C1001 C 0.08436 0.7444 0.18781 0.0
N1002 N 0.10549 0.75881 0.85818 0.0
N1003 N 0.08246 0.77062 0.37589 0.0
H1004 H 0.07564 0.70733 0.21759 0.0
H1005 H 0.06821 0.72594 0.34594 0.0
H1006 H 0.08288 0.78753 0.42069 0.0
H1007 H 0.08038 0.7563 0.44016 0.0
H1008 H 0.11365 0.7723 0.8031 0.0
H1009 H 0.10444 0.74219 0.81087 0.0
H1010 H 0.10108 0.80544 0.86389 0.0
H1011 H 0.09978 0.82332 0.00095 0.0
C1012 C 0.76264 0.93384 0.00239 0.0
C1013 C 0.74202 0.9399 0.92777 0.0
C1014 C 0.76862 0.94897 0.74307 0.0
C1015 C 0.78875 0.93974 0.81259 0.0
N1016 N 0.80505 0.92245 0.00728 0.0
N1017 N 0.72479 0.95175 0.72426 0.0
C1018 C 0.78579 0.93207 0.94228 0.0
C1019 C 0.74487 0.94744 0.79776 0.0
N1020 N 0.76014 0.93041 0.1319 0.0
N1021 N 0.7722 0.95895 0.62427 0.0
H1022 H 0.70721 0.95108 0.76077 0.0
H1023 H 0.72537 0.95444 0.62536 0.0
H1024 H 0.78919 0.95962 0.5804 0.0
H1025 H 0.75883 0.96819 0.57336 0.0
H1026 H 0.7747 0.92843 0.19463 0.0
H1027 H 0.74348 0.93177 0.17886 0.0
H1028 H 0.80345 0.91338 0.09466 0.0
H1029 H 0.8226 0.92236 0.97038 0.0
C1030 C 0.93796 0.28632 0.1789 0.0
C1031 C 0.93717 0.28825 0.0429 0.0
C1032 C 0.93965 0.24382 0.02618 0.0
C1033 C 0.93713 0.24185 0.1617 0.0
N1034 N 0.93269 0.26093 0.36813 0.0
N1035 N 0.93609 0.26914 0.83543 0.0
C1036 C 0.93612 0.26305 0.23848 0.0
C1037 C 0.9379 0.26706 0.96598 0.0
N1038 N 0.94075 0.30676 0.25108 0.0
N1039 N 0.94386 0.22345 0.95509 0.0
H1040 H 0.93588 0.28587 0.78825 0.0
H1041 H 0.93346 0.25447 0.7743 0.0
H1042 H 0.94471 0.20616 -0.00452 0.0
H1043 H 0.94851 0.22386 0.85824 0.0
H1044 H 0.94417 0.30643 0.34933 0.0
H1045 H 0.94185 0.32405 0.21067 0.0
H1046 H 0.92874 0.27554 0.42784 0.0
H1047 H 0.93243 0.24424 0.41553 0.0
C1048 C 0.28503 0.44639 0.42269 0.0
C1049 C 0.28787 0.43884 0.29284 0.0
C1050 C 0.24434 0.42952 0.28173 0.0
C1051 C 0.24135 0.43734 0.41105 0.0
N1052 N 0.25773 0.45719 0.59737 0.0
N1053 N 0.26961 0.42854 0.09053 0.0
C1054 C 0.26134 0.44724 0.47879 0.0
C1055 C 0.26729 0.432 0.22003 0.0
N1056 N 0.30511 0.45134 0.49482 0.0
N1057 N 0.22531 0.41916 0.21836 0.0
H1058 H 0.28609 0.43045 0.04237 0.0
H1059 H 0.25497 0.42605 0.02889 0.0
H1060 H 0.20784 0.41851 0.25602 0.0
H1061 H 0.22707 0.41002 0.13151 0.0
H1062 H 0.30466 0.45409 0.59362 0.0
H1063 H 0.32263 0.45115 0.45736 0.0
H1064 H 0.27089 0.46697 0.64662 0.0
H1065 H 0.2409 0.45724 0.64297 0.0
C1066 C 0.43122 0.74698 0.53158 0.0
C1067 C 0.43824 0.74392 0.66213 0.0
C1068 C 0.44586 0.78781 0.67833 0.0
C1069 C 0.43897 0.79077 0.54751 0.0
N1070 N 0.43053 0.77282 0.34212 0.0
N1071 N 0.4565 0.76033 0.85295 0.0
C1072 C 0.43331 0.77019 0.47196 0.0
C1073 C 0.44711 0.764 0.73298 0.0
N1074 N 0.42196 0.72776 0.46517 0.0
N1075 N 0.44983 0.80784 0.75242 0.0
H1076 H 0.45688 0.74333 0.89714 0.0
H1077 H 0.46552 0.77365 0.9049 0.0
H1078 H 0.44948 0.82544 0.71571 0.0
H1079 H 0.45195 0.8072 0.85167 0.0
H1080 H 0.41346 0.72941 0.37635 0.0
H1081 H 0.42153 0.71019 0.50213 0.0
H1082 H 0.42883 0.75832 0.27893 0.0
H1083 H 0.4322 0.78954 0.29566 0.0
C1084 C 0.76364 0.60124 0.21981 0.0
C1085 C 0.74296 0.59506 0.29381 0.0
C1086 C 0.7694 0.58591 0.47899 0.0
C1087 C 0.78962 0.59505 0.40983 0.0
N1088 N 0.80609 0.61247 0.21574 0.0
N1089 N 0.72556 0.58327 0.49701 0.0
C1090 C 0.78675 0.60291 0.28036 0.0
C1091 C 0.7457 0.58752 0.42387 0.0
N1092 N 0.76122 0.60482 0.09037 0.0
N1093 N 0.77284 0.57588 0.59783 0.0
H1094 H 0.70801 0.584 0.46021 0.0
H1095 H 0.72605 0.5806 0.59594 0.0
H1096 H 0.78972 0.57528 0.64275 0.0
H1097 H 0.75942 0.56659 0.64805 0.0
H1098 H 0.77582 0.60687 0.0279 0.0
H1099 H 0.7446 0.60353 0.04307 0.0
H1100 H 0.80458 0.62157 0.1284 0.0
H1101 H 0.82361 0.61251 0.25281 0.0
C1102 C 0.60198 0.247 0.68256 0.0
C1103 C 0.59406 0.24405 0.55339 0.0
C1104 C 0.58577 0.28796 0.54014 0.0
C1105 C 0.59331 0.29074 0.67006 0.0
N1106 N 0.6035 0.27241 0.87286 0.0
N1107 N 0.57456 0.26075 0.36614 0.0
C1108 C 0.59992 0.27007 0.74346 0.0
C1109 C 0.58455 0.26423 0.48478 0.0
N1110 N 0.61197 0.22779 0.74667 0.0
N1111 N 0.58115 0.30809 0.4673 0.0
H1112 H 0.57428 0.24389 0.3209 0.0
H1113 H 0.56502 0.27407 0.31635 0.0
H1114 H 0.58162 0.32564 0.50421 0.0
H1115 H 0.57843 0.30764 0.36845 0.0
H1116 H 0.6212 0.22946 0.83335 0.0
H1117 H 0.61226 0.21026 0.7097 0.0
H1118 H 0.60582 0.25778 0.93502 0.0
H1119 H 0.60191 0.28897 0.9205 0.0
C1120 C 0.3493 0.08795 0.50538 0.0
C1121 C 0.3466 0.11048 0.4421 0.0
C1122 C 0.37184 0.12996 0.60286 0.0
C1123 C 0.37448 0.10741 0.66601 0.0
N1124 N 0.37502 0.06395 0.64333 0.0
N1125 N 0.34645 0.15401 0.46323 0.0
C1126 C 0.366 0.08598 0.60712 0.0
C1127 C 0.35529 0.13195 0.5002 0.0
N1128 N 0.33554 0.06867 0.46825 0.0
N1129 N 0.38549 0.14925 0.64111 0.0
H1130 H 0.33187 0.15562 0.39994 0.0
H1131 H 0.35113 0.17018 0.50845 0.0
H1132 H 0.39853 0.14749 0.7133 0.0
H1133 H 0.38573 0.16579 0.59242 0.0
H1134 H 0.33547 0.05213 0.51699 0.0
H1135 H 0.32229 0.07042 0.39712 0.0
H1136 H 0.37049 0.04782 0.59728 0.0
H1137 H 0.38954 0.06241 0.70712 0.0
C1138 C 0.12633 0.6807 0.46213 0.0
C1139 C 0.10368 0.68331 0.52387 0.0
C1140 C 0.08468 0.65774 0.36265 0.0
C1141 C 0.10737 0.6553 0.3011 0.0
N1142 N 0.15062 0.6549 0.32627 0.0
N1143 N 0.06026 0.68262 0.50293 0.0
C1144 C 0.12855 0.6637 0.36231 0.0
C1145 C 0.08243 0.67439 0.46448 0.0
N1146 N 0.14524 0.69533 0.49471 0.0
N1147 N 0.06576 0.64333 0.32736 0.0
H1148 H 0.05855 0.69644 0.5708 0.0
H1149 H 0.04415 0.67795 0.45698 0.0
H1150 H 0.06794 0.62939 0.26058 0.0
H1151 H 0.04919 0.64318 0.37547 0.0
H1152 H 0.16182 0.69508 0.44671 0.0
H1153 H 0.14297 0.70982 0.55798 0.0
H1154 H 0.16666 0.65931 0.37357 0.0
H1155 H 0.15211 0.64094 0.25902 0.0
C1156 C 0.6743 0.94919 0.52037 0.0
C1157 C 0.68425 0.92828 0.462 0.0
C1158 C 0.6664 0.90279 0.62702 0.0
C1159 C 0.65665 0.92369 0.68601 0.0
N1160 N 0.64238 0.96455 0.65659 0.0
N1161 N 0.69842 0.88738 0.49192 0.0
C1162 C 0.65776 0.94629 0.62227 0.0
C1163 C 0.68302 0.90567 0.5256 0.0
N1164 N 0.68161 0.97169 0.48191 0.0
N1165 N 0.65893 0.88031 0.6651 0.0
H1166 H 0.71225 0.89006 0.42485 0.0
H1167 H 0.69932 0.87094 0.54137 0.0
H1168 H 0.64504 0.87811 0.73231 0.0
H1169 H 0.66429 0.86442 0.61909 0.0
H1170 H 0.67609 0.9876 0.52731 0.0
H1171 H 0.69558 0.97398 0.41529 0.0
H1172 H 0.64131 0.98096 0.60699 0.0
H1173 H 0.62872 0.96186 0.72461 0.0
C1174 C 0.89998 0.36442 0.33711 0.0
C1175 C 0.92075 0.37429 0.27737 0.0
C1176 C 0.94646 0.35711 0.44314 0.0
C1177 C 0.92577 0.34672 0.50182 0.0
N1178 N 0.88499 0.3322 0.4726 0.0
N1179 N 0.96119 0.38937 0.30679 0.0
C1180 C 0.90305 0.34788 0.43924 0.0
C1181 C 0.94325 0.37367 0.34144 0.0
N1182 N 0.87745 0.37147 0.29801 0.0
N1183 N 0.9691 0.35006 0.48052 0.0
H1184 H 0.95827 0.40289 0.238 0.0
H1185 H 0.9775 0.3908 0.35667 0.0
H1186 H 0.97167 0.33601 0.54659 0.0
H1187 H 0.98485 0.35589 0.43466 0.0
H1188 H 0.8616 0.36604 0.3443 0.0
H1189 H 0.87509 0.38507 0.22903 0.0
H1190 H 0.86855 0.33124 0.42368 0.0
H1191 H 0.88789 0.31809 0.53793 0.0
C1192 C 0.37296 0.44665 0.59435 0.0
C1193 C 0.37334 0.42402 0.53124 0.0
C1194 C 0.34636 0.40698 0.69225 0.0
C1195 C 0.34587 0.42965 0.75516 0.0
N1196 N 0.34989 0.47294 0.7334 0.0
N1197 N 0.36962 0.38074 0.55377 0.0
C1198 C 0.35651 0.45017 0.6961 0.0
C1199 C 0.36286 0.40349 0.59074 0.0
N1200 N 0.3889 0.46436 0.55929 0.0
N1201 N 0.33044 0.38922 0.72702 0.0
H1202 H 0.38352 0.37798 0.48727 0.0
H1203 H 0.36372 0.36507 0.60038 0.0
H1204 H 0.31681 0.39237 0.79465 0.0
H1205 H 0.32897 0.37282 0.67817 0.0
H1206 H 0.39053 0.48073 0.60841 0.0
H1207 H 0.4024 0.46121 0.49093 0.0
H1208 H 0.35596 0.48861 0.68744 0.0
H1209 H 0.33592 0.47577 0.79943 0.0
C1210 C 0.44734 0.68149 0.26657 0.0
C1211 C 0.42502 0.68605 0.20436 0.0
C1212 C 0.40378 0.66214 0.36475 0.0
C1213 C 0.42598 0.65798 0.42814 0.0
N1214 N 0.46923 0.6541 0.40584 0.0
N1215 N 0.38178 0.68989 0.22891 0.0
C1216 C 0.448 0.66472 0.36882 0.0
C1217 C 0.40304 0.67907 0.26352 0.0
N1218 N 0.46762 0.69376 0.22926 0.0
N1219 N 0.38361 0.64971 0.40196 0.0
H1220 H 0.38146 0.70478 0.1669 0.0
H1221 H 0.36537 0.68644 0.27503 0.0
H1222 H 0.38448 0.63634 0.47313 0.0
H1223 H 0.36715 0.65081 0.35321 0.0
H1224 H 0.48414 0.6924 0.27726 0.0
H1225 H 0.46688 0.70734 0.1592 0.0
H1226 H 0.48567 0.65725 0.35948 0.0
H1227 H 0.46958 0.63974 0.47136 0.0
C1228 C 0.67462 0.58542 0.70003 0.0
C1229 C 0.68502 0.60602 0.75892 0.0
C1230 C 0.66774 0.6321 0.59452 0.0
C1231 C 0.65757 0.61149 0.53504 0.0
N1232 N 0.64239 0.57098 0.56347 0.0
N1233 N 0.70001 0.64663 0.73037 0.0
C1234 C 0.65815 0.58883 0.59834 0.0
C1235 C 0.68427 0.62873 0.69595 0.0
N1236 N 0.68148 0.5627 0.73757 0.0
N1237 N 0.66075 0.65478 0.5571 0.0
H1238 H 0.71373 0.64357 0.79758 0.0
H1239 H 0.70127 0.6631 0.68148 0.0
H1240 H 0.64692 0.65739 0.48998 0.0
H1241 H 0.66641 0.6705 0.60366 0.0
H1242 H 0.67561 0.54699 0.6917 0.0
H1243 H 0.69545 0.56001 0.80376 0.0
H1244 H 0.64094 0.55456 0.61271 0.0
H1245 H 0.62885 0.57405 0.4952 0.0
C1246 C 0.5861 0.37589 0.36668 0.0
C1247 C 0.60873 0.37623 0.4299 0.0
C1248 C 0.62573 0.34919 0.26948 0.0
C1249 C 0.60307 0.34875 0.20646 0.0
N1250 N 0.55982 0.35283 0.22797 0.0
N1251 N 0.65196 0.3724 0.40774 0.0
C1252 C 0.58257 0.35943 0.26526 0.0
C1253 C 0.62924 0.3657 0.37069 0.0
N1254 N 0.5684 0.39189 0.40129 0.0
N1255 N 0.64346 0.33321 0.23512 0.0
H1256 H 0.65472 0.3863 0.47413 0.0
H1257 H 0.66762 0.36647 0.36134 0.0
H1258 H 0.6403 0.31956 0.16778 0.0
H1259 H 0.65987 0.3317 0.28409 0.0
H1260 H 0.55204 0.39354 0.35204 0.0
H1261 H 0.57157 0.40541 0.46933 0.0
H1262 H 0.54417 0.35891 0.27379 0.0
H1263 H 0.55702 0.33885 0.16213 0.0
C1264 C 0.85489 0.62832 0.01223 0.0
C1265 C 0.84748 0.60643 0.95386 0.0
C1266 C 0.86833 0.58312 0.11871 0.0
C1267 C 0.87553 0.60505 0.17724 0.0
N1268 N 0.88453 0.6473 0.14995 0.0
N1269 N 0.83889 0.564 -0.01963 0.0
C1270 C 0.87176 0.62731 0.11336 0.0
C1271 C 0.85157 0.58406 0.01678 0.0
N1272 N 0.84449 0.64978 -0.02297 0.0
N1273 N 0.87853 0.56168 0.15602 0.0
H1274 H 0.82533 0.56499 0.9105 0.0
H1275 H 0.83989 0.54748 0.02896 0.0
H1276 H 0.89294 0.56106 0.22094 0.0
H1277 H 0.87501 0.54526 0.11036 0.0
H1278 H 0.84823 0.66616 0.02265 0.0
H1279 H 0.82965 0.65037 0.91503 0.0
H1280 H 0.88373 0.66377 0.10079 0.0
H1281 H 0.89786 0.64623 0.22103 0.0
C1282 C 0.58423 0.16394 0.84509 0.0
C1283 C 0.60647 0.15834 0.78482 0.0
C1284 C 0.6285 0.18048 0.94901 0.0
C1285 C 0.6062 0.18641 0.00834 0.0
N1286 N 0.56327 0.19219 -0.01705 0.0
N1287 N 0.64933 0.15233 0.80959 0.0
C1288 C 0.58412 0.18082 0.94638 0.0
C1289 C 0.62854 0.16371 0.8471 0.0
N1290 N 0.56356 0.15218 0.80972 0.0
N1291 N 0.64927 0.19207 -0.0155 0.0
H1292 H 0.64914 0.13885 0.7392 0.0
H1293 H 0.66576 0.15423 0.85783 0.0
H1294 H 0.64903 0.20665 0.04826 0.0
H1295 H 0.6658 0.18952 0.93805 0.0
H1296 H 0.54706 0.15447 0.85703 0.0
H1297 H 0.56388 0.13783 0.74447 0.0
H1298 H 0.54684 0.18999 0.93504 0.0
H1299 H 0.56335 0.20592 0.05192 0.0
C1300 C 0.16429 0.44588 0.12231 0.0
C1301 C 0.15612 0.42439 0.18231 0.0
C1302 C 0.17552 0.39997 0.01725 0.0
C1303 C 0.1841 0.42149 0.95851 0.0
N1304 N 0.19447 0.46352 -0.01777 0.0
N1305 N 0.14563 0.38241 0.15991 0.0
C1306 C 0.18102 0.44405 0.02053 0.0
C1307 C 0.15895 0.40185 0.11994 0.0
N1308 N 0.15499 0.46781 0.15762 0.0
N1309 N 0.18462 0.37797 -0.01845 0.0
H1310 H 0.13272 0.38406 0.2329 0.0
H1311 H 0.14554 0.36582 0.11226 0.0
H1312 H 0.19934 0.37644 0.91918 0.0
H1313 H 0.18005 0.36179 0.02735 0.0
H1314 H 0.15928 0.48397 0.11075 0.0
H1315 H 0.14048 0.4692 0.22154 0.0
H1316 H 0.19429 0.4801 0.03 0.0
H1317 H 0.20774 0.46191 0.91106 0.0
C1318 C 0.44773 0.85844 0.95479 0.0
C1319 C 0.42657 0.84915 0.01389 0.0
C1320 C 0.40154 0.86843 0.85163 0.0
C1321 C 0.42264 0.87707 0.79039 0.0
N1322 N 0.46401 0.88973 0.81682 0.0
N1323 N 0.38521 0.83653 -0.0157 0.0
C1324 C 0.44529 0.87505 0.85248 0.0
C1325 C 0.40393 0.85144 0.95176 0.0
N1326 N 0.47 0.85046 -0.00675 0.0
N1327 N 0.37939 0.87696 0.81508 0.0
H1328 H 0.38764 0.82206 0.04791 0.0
H1329 H 0.36866 0.83657 0.93604 0.0
H1330 H 0.3778 0.89091 0.7475 0.0
H1331 H 0.36337 0.87233 0.86222 0.0
H1332 H 0.48604 0.85541 0.9474 0.0
H1333 H 0.47187 0.83655 0.06082 0.0
H1334 H 0.48053 0.89017 0.86528 0.0
H1335 H 0.46167 0.90356 0.7492 0.0
C1336 C 0.85267 0.90324 0.20745 0.0
C1337 C 0.84646 0.92556 0.26568 0.0
C1338 C 0.86898 0.94751 0.10161 0.0
C1339 C 0.87465 0.92521 0.04231 0.0
N1340 N 0.88108 0.8825 0.06894 0.0
N1341 N 0.84085 0.96856 0.24005 0.0
C1342 C 0.8696 0.90323 0.10621 0.0
C1343 C 0.85215 0.94766 0.20345 0.0
N1344 N 0.84096 0.88245 0.24194 0.0
N1345 N 0.88061 0.96821 0.06471 0.0
H1346 H 0.82717 0.96851 0.30946 0.0
H1347 H 0.84305 0.985 0.19193 0.0
H1348 H 0.89493 0.96785 -0.00089 0.0
H1349 H 0.8783 0.98477 0.11113 0.0
H1350 H 0.84383 0.86587 0.19647 0.0
H1351 H 0.82591 0.88275 0.30255 0.0
H1352 H 0.87933 0.86607 0.11783 0.0
H1353 H 0.89436 0.88276 -0.00264 0.0
C1354 C 0.90083 0.1683 0.8668 0.0
C1355 C 0.92076 0.15671 0.92624 0.0
C1356 C 0.94777 0.17198 0.76077 0.0
C1357 C 0.92789 0.18382 0.70192 0.0
N1358 N 0.88836 0.20146 0.73017 0.0
N1359 N 0.96017 0.13891 0.89847 0.0
C1360 C 0.90522 0.18457 0.76496 0.0
C1361 C 0.94334 0.15575 0.86267 0.0
N1362 N 0.87777 0.1628 0.90397 0.0
N1363 N 0.97087 0.1774 0.72386 0.0
H1364 H 0.95633 0.12579 0.96813 0.0
H1365 H 0.97642 0.13629 0.84923 0.0
H1366 H 0.97449 0.19134 0.6586 0.0
H1367 H 0.98615 0.17041 0.76975 0.0
H1368 H 0.86246 0.16957 0.85743 0.0
H1369 H 0.87425 0.14904 0.97052 0.0
H1370 H 0.87206 0.20387 0.77923 0.0
H1371 H 0.89222 0.21489 0.66224 0.0
C1372 C 0.15709 0.08763 0.0787 0.0
C1373 C 0.15757 0.11031 0.01544 0.0
C1374 C 0.18514 0.12619 0.17619 0.0
C1375 C 0.18478 0.10349 0.2393 0.0
N1376 N 0.17918 0.06039 0.21775 0.0
N1377 N 0.16281 0.15339 0.03807 0.0
C1378 C 0.17338 0.08342 0.18052 0.0
C1379 C 0.16877 0.13039 0.07484 0.0
N1380 N 0.14056 0.07053 0.04337 0.0
N1381 N 0.20167 0.14333 0.21102 0.0
H1382 H 0.14897 0.15672 0.97187 0.0
H1383 H 0.16928 0.16879 0.08465 0.0
H1384 H 0.2151 0.13965 0.27903 0.0
H1385 H 0.20377 0.15971 0.16209 0.0
H1386 H 0.1383 0.05419 0.09253 0.0
H1387 H 0.12728 0.07421 0.97451 0.0
H1388 H 0.17252 0.04499 0.17193 0.0
H1389 H 0.1931 0.05698 0.2833 0.0
C1390 C 0.12616 0.8522 0.76886 0.0
C1391 C 0.10388 0.84719 0.70775 0.0
C1392 C 0.08221 0.87025 0.87014 0.0
C1393 C 0.10452 0.8751 0.93118 0.0
N1394 N 0.14752 0.8799 0.9077 0.0
N1395 N 0.06074 0.84272 0.73081 0.0
C1396 C 0.1265 0.86912 0.86961 0.0
C1397 C 0.08181 0.85353 0.76814 0.0
N1398 N 0.14654 0.8397 0.73558 0.0
N1399 N 0.06178 0.88239 0.90632 0.0
H1400 H 0.06062 0.82884 0.66268 0.0
H1401 H 0.04427 0.84541 0.77775 0.0
H1402 H 0.06238 0.89652 0.97287 0.0
H1403 H 0.04525 0.88062 0.85888 0.0
H1404 H 0.16304 0.84169 0.78313 0.0
H1405 H 0.14583 0.82504 0.67251 0.0
H1406 H 0.16401 0.87728 0.86088 0.0
H1407 H 0.14747 0.89365 0.97658 0.0
loop_
_geom_bond_atom_site_label_1
_geom_bond_atom_site_label_2
_geom_bond_distance
_geom_bond_site_symmetry_2
_ccdc_geom_bond_type
C0 O16 1.251 . S
C0 O18 1.254 . S
N1 C2 1.333 . S
N1 C6 1.307 . S
N1 Zn7 2.020 . S
C2 N1 1.333 . S
C2 C3 1.379 . S
C2 H20 0.952 1_554 S
C3 C2 1.379 . S
C3 C4 1.390 . S
C3 H30 0.949 1_554 S
C4 C3 1.390 . S
C4 C5 1.357 . S
C5 C4 1.357 . S
C5 C6 1.370 . S
C5 H31 0.950 . S
C6 N1 1.307 . S
C6 C5 1.370 . S
C6 H24 0.948 . S
Zn7 N1 2.020 . S
Zn7 O16 2.039 1_554 S
Zn7 O22 2.034 . S
Zn7 O26 2.025 . S
Zn7 O28 2.024 . S
C8 O27 1.246 . S
C8 O28 1.249 . S
N9 C10 1.307 . S
N9 C11 1.333 . S
N9 Zn15 2.020 . S
C10 N9 1.307 . S
C10 C14 1.370 1_545 S
C10 H21 0.948 1_554 S
C11 N9 1.333 . S
C11 C12 1.379 1_545 S
C11 H19 0.952 . S
C12 C11 1.379 1_565 S
C12 C13 1.390 . S
C12 H32 0.949 . S
C13 C12 1.390 . S
C13 C14 1.357 . S
C14 C10 1.370 1_565 S
C14 C13 1.357 . S
C14 H33 0.950 . S
Zn15 N9 2.020 . S
Zn15 O18 2.025 1_554 S
Zn15 O23 2.024 . S
Zn15 O25 2.039 . S
Zn15 O27 2.034 . S
O16 C0 1.251 . S
O16 Zn7 2.039 1_556 S
C17 O22 1.246 . S
C17 O23 1.249 . S
O18 C0 1.254 . S
O18 Zn15 2.025 1_556 S
H19 C11 0.952 . S
H20 C2 0.952 1_556 S
H21 C10 0.948 1_556 S
O22 Zn7 2.034 . S
O22 C17 1.246 . S
O23 Zn15 2.024 . S
O23 C17 1.249 . S
H24 C6 0.948 . S
O25 Zn15 2.039 . S
O25 C29 1.251 . S
O26 Zn7 2.025 . S
O26 C29 1.254 . S
O27 C8 1.246 . S
O27 Zn15 2.034 . S
O28 Zn7 2.024 . S
O28 C8 1.249 . S
C29 O25 1.251 . S
C29 O26 1.254 . S
H30 C3 0.949 1_556 S
H31 C5 0.950 . S
H32 C12 0.949 . S
H33 C14 0.950 . S
C34 O50 1.251 . S
C34 O52 1.254 . S
N35 C36 1.333 . S
N35 C40 1.307 . S
N35 Zn41 2.020 . S
C36 N35 1.333 . S
C36 C37 1.379 1_455 S
C36 H54 0.952 . S
C37 C36 1.379 1_655 S
C37 C38 1.390 . S
C37 H64 0.949 . S
C38 C37 1.390 . S
C38 C39 1.357 . S
C39 C38 1.357 . S
C39 C40 1.370 1_655 S
C39 H65 0.950 . S
C40 N35 1.307 . S
C40 C39 1.370 1_455 S
C40 H58 0.948 1_556 S
Zn41 N35 2.020 . S
Zn41 O50 2.039 . S
Zn41 O56 2.034 . S
Zn41 O60 2.025 1_556 S
Zn41 O62 2.024 . S
C42 O61 1.246 . S
C42 O62 1.249 . S
N43 C44 1.307 . S
N43 C45 1.333 . S
N43 Zn49 2.020 . S
C44 N43 1.307 . S
C44 C48 1.370 . S
C44 H55 0.948 . S
C45 N43 1.333 . S
C45 C46 1.379 . S
C45 H53 0.952 1_556 S
C46 C45 1.379 . S
C46 C47 1.390 . S
C46 H66 0.949 1_556 S
C47 C46 1.390 . S
C47 C48 1.357 . S
C48 C44 1.370 . S
C48 C47 1.357 . S
C48 H67 0.950 . S
Zn49 N43 2.020 . S
Zn49 O52 2.025 . S
Zn49 O57 2.024 . S
Zn49 O59 2.039 1_556 S
Zn49 O61 2.034 . S
O50 C34 1.251 . S
O50 Zn41 2.039 . S
C51 O56 1.246 . S
C51 O57 1.249 . S
O52 C34 1.254 . S
O52 Zn49 2.025 . S
H53 C45 0.952 1_554 S
H54 C36 0.952 . S
H55 C44 0.948 . S
O56 Zn41 2.034 . S
O56 C51 1.246 . S
O57 Zn49 2.024 . S
O57 C51 1.249 . S
H58 C40 0.948 1_554 S
O59 Zn49 2.039 1_554 S
O59 C63 1.251 . S
O60 Zn41 2.025 1_554 S
O60 C63 1.254 . S
O61 C42 1.246 . S
O61 Zn49 2.034 . S
O62 Zn41 2.024 . S
O62 C42 1.249 . S
C63 O59 1.251 . S
C63 O60 1.254 . S
H64 C37 0.949 . S
H65 C39 0.950 . S
H66 C46 0.949 1_554 S
H67 C48 0.950 . S
C68 O84 1.251 . S
C68 O86 1.254 . S
N69 C70 1.333 . S
N69 C74 1.307 . S
N69 Zn75 2.020 . S
C70 N69 1.333 . S
C70 C71 1.379 . S
C70 H88 0.952 1_554 S
C71 C70 1.379 . S
C71 C72 1.390 . S
C71 H98 0.949 1_554 S
C72 C71 1.390 . S
C72 C73 1.357 . S
C73 C72 1.357 . S
C73 C74 1.370 . S
C73 H99 0.950 . S
C74 N69 1.307 . S
C74 C73 1.370 . S
C74 H92 0.948 . S
Zn75 N69 2.020 . S
Zn75 O84 2.039 1_554 S
Zn75 O90 2.034 . S
Zn75 O94 2.025 . S
Zn75 O96 2.024 . S
C76 O95 1.246 . S
C76 O96 1.249 . S
N77 C78 1.307 . S
N77 C79 1.333 . S
N77 Zn83 2.020 . S
C78 N77 1.307 . S
C78 C82 1.370 1_565 S
C78 H89 0.948 1_554 S
C79 N77 1.333 . S
C79 C80 1.379 1_565 S
C79 H87 0.952 . S
C80 C79 1.379 1_545 S
C80 C81 1.390 . S
C80 H100 0.949 . S
C81 C80 1.390 . S
C81 C82 1.357 . S
C82 C78 1.370 1_545 S
C82 C81 1.357 . S
C82 H101 0.950 . S
Zn83 N77 2.020 . S
Zn83 O86 2.025 1_554 S
Zn83 O91 2.024 . S
Zn83 O93 2.039 . S
Zn83 O95 2.034 . S
O84 C68 1.251 . S
O84 Zn75 2.039 1_556 S
C85 O90 1.246 . S
C85 O91 1.249 . S
O86 C68 1.254 . S
O86 Zn83 2.025 1_556 S
H87 C79 0.952 . S
H88 C70 0.952 1_556 S
H89 C78 0.948 1_556 S
O90 Zn75 2.034 . S
O90 C85 1.246 . S
O91 Zn83 2.024 . S
O91 C85 1.249 . S
H92 C74 0.948 . S
O93 Zn83 2.039 . S
O93 C97 1.251 . S
O94 Zn75 2.025 . S
O94 C97 1.254 . S
O95 C76 1.246 . S
O95 Zn83 2.034 . S
O96 Zn75 2.024 . S
O96 C76 1.249 . S
C97 O93 1.251 . S
C97 O94 1.254 . S
H98 C71 0.949 1_556 S
H99 C73 0.950 . S
H100 C80 0.949 . S
H101 C82 0.950 . S
C102 O118 1.251 . S
C102 O120 1.254 . S
N103 C104 1.333 . S
N103 C108 1.307 . S
N103 Zn109 2.020 . S
C104 N103 1.333 . S
C104 C105 1.379 1_655 S
C104 H122 0.952 . S
C105 C104 1.379 1_455 S
C105 C106 1.390 . S
C105 H132 0.949 . S
C106 C105 1.390 . S
C106 C107 1.357 . S
C107 C106 1.357 . S
C107 C108 1.370 1_455 S
C107 H133 0.950 . S
C108 N103 1.307 . S
C108 C107 1.370 1_655 S
C108 H126 0.948 1_556 S
Zn109 N103 2.020 . S
Zn109 O118 2.039 . S
Zn109 O124 2.034 . S
Zn109 O128 2.025 1_556 S
Zn109 O130 2.024 . S
C110 O129 1.246 . S
C110 O130 1.249 . S
N111 C112 1.307 . S
N111 C113 1.333 . S
N111 Zn117 2.020 . S
C112 N111 1.307 . S
C112 C116 1.370 . S
C112 H123 0.948 . S
C113 N111 1.333 . S
C113 C114 1.379 . S
C113 H121 0.952 1_556 S
C114 C113 1.379 . S
C114 C115 1.390 . S
C114 H134 0.949 1_556 S
C115 C114 1.390 . S
C115 C116 1.357 . S
C116 C112 1.370 . S
C116 C115 1.357 . S
C116 H135 0.950 . S
Zn117 N111 2.020 . S
Zn117 O120 2.025 . S
Zn117 O125 2.024 . S
Zn117 O127 2.039 1_556 S
Zn117 O129 2.034 . S
O118 C102 1.251 . S
O118 Zn109 2.039 . S
C119 O124 1.246 . S
C119 O125 1.249 . S
O120 C102 1.254 . S
O120 Zn117 2.025 . S
H121 C113 0.952 1_554 S
H122 C104 0.952 . S
H123 C112 0.948 . S
O124 Zn109 2.034 . S
O124 C119 1.246 . S
O125 Zn117 2.024 . S
O125 C119 1.249 . S
H126 C108 0.948 1_554 S
O127 Zn117 2.039 1_554 S
O127 C131 1.251 . S
O128 Zn109 2.025 1_554 S
O128 C131 1.254 . S
O129 C110 1.246 . S
O129 Zn117 2.034 . S
O130 Zn109 2.024 . S
O130 C110 1.249 . S
C131 O127 1.251 . S
C131 O128 1.254 . S
H132 C105 0.949 . S
H133 C107 0.950 . S
H134 C114 0.949 1_554 S
H135 C116 0.950 . S
C136 O152 1.251 . S
C136 O154 1.254 . S
N137 C138 1.333 . S
N137 C142 1.307 . S
N137 Zn143 2.020 . S
C138 N137 1.333 . S
C138 C139 1.379 . S
C138 H156 0.952 . S
C139 C138 1.379 . S
C139 C140 1.390 . S
C139 H166 0.949 . S
C140 C139 1.390 . S
C140 C141 1.357 . S
C141 C140 1.357 . S
C141 C142 1.370 . S
C141 H167 0.950 1_554 S
C142 N137 1.307 . S
C142 C141 1.370 . S
C142 H160 0.948 1_554 S
Zn143 N137 2.020 . S
Zn143 O152 2.039 . S
Zn143 O158 2.034 . S
Zn143 O162 2.025 1_554 S
Zn143 O164 2.024 . S
C144 O163 1.246 . S
C144 O164 1.249 . S
N145 C146 1.307 . S
N145 C147 1.333 . S
N145 Zn151 2.020 . S
C146 N145 1.307 . S
C146 C150 1.370 . S
C146 H157 0.948 . S
C147 N145 1.333 . S
C147 C148 1.379 1_554 S
C147 H155 0.952 1_554 S
C148 C147 1.379 1_556 S
C148 C149 1.390 1_556 S
C148 H168 0.949 . S
C149 C148 1.390 1_554 S
C149 C150 1.357 . S
C150 C146 1.370 . S
C150 C149 1.357 . S
C150 H169 0.950 . S
Zn151 N145 2.020 . S
Zn151 O154 2.025 . S
Zn151 O159 2.024 . S
Zn151 O161 2.039 1_554 S
Zn151 O163 2.034 . S
O152 C136 1.251 . S
O152 Zn143 2.039 . S
C153 O158 1.246 . S
C153 O159 1.249 . S
O154 C136 1.254 . S
O154 Zn151 2.025 . S
H155 C147 0.952 1_556 S
H156 C138 0.952 . S
H157 C146 0.948 . S
O158 Zn143 2.034 . S
O158 C153 1.246 . S
O159 Zn151 2.024 . S
O159 C153 1.249 . S
H160 C142 0.948 1_556 S
O161 Zn151 2.039 1_556 S
O161 C165 1.251 . S
O162 Zn143 2.025 1_556 S
O162 C165 1.254 . S
O163 C144 1.246 . S
O163 Zn151 2.034 . S
O164 Zn143 2.024 . S
O164 C144 1.249 . S
C165 O161 1.251 . S
C165 O162 1.254 . S
H166 C139 0.949 . S
H167 C141 0.950 1_556 S
H168 C148 0.949 . S
H169 C150 0.950 . S
C170 O186 1.251 . S
C170 O188 1.254 . S
N171 C172 1.333 . S
N171 C176 1.307 . S
N171 Zn177 2.020 . S
C172 N171 1.333 . S
C172 C173 1.379 1_556 S
C172 H190 0.952 1_556 S
C173 C172 1.379 1_554 S
C173 C174 1.390 1_554 S
C173 H200 0.949 . S
C174 C173 1.390 1_556 S
C174 C175 1.357 . S
C175 C174 1.357 . S
C175 C176 1.370 . S
C175 H201 0.950 . S
C176 N171 1.307 . S
C176 C175 1.370 . S
C176 H194 0.948 . S
Zn177 N171 2.020 . S
Zn177 O186 2.039 1_556 S
Zn177 O192 2.034 . S
Zn177 O196 2.025 . S
Zn177 O198 2.024 . S
C178 O197 1.246 . S
C178 O198 1.249 . S
N179 C180 1.307 . S
N179 C181 1.333 . S
N179 Zn185 2.020 . S
C180 N179 1.307 . S
C180 C184 1.370 . S
C180 H191 0.948 1_556 S
C181 N179 1.333 . S
C181 C182 1.379 . S
C181 H189 0.952 . S
C182 C181 1.379 . S
C182 C183 1.390 . S
C182 H202 0.949 . S
C183 C182 1.390 . S
C183 C184 1.357 . S
C184 C180 1.370 . S
C184 C183 1.357 . S
C184 H203 0.950 1_556 S
Zn185 N179 2.020 . S
Zn185 O188 2.025 1_556 S
Zn185 O193 2.024 . S
Zn185 O195 2.039 . S
Zn185 O197 2.034 . S
O186 C170 1.251 . S
O186 Zn177 2.039 1_554 S
C187 O192 1.246 . S
C187 O193 1.249 . S
O188 C170 1.254 . S
O188 Zn185 2.025 1_554 S
H189 C181 0.952 . S
H190 C172 0.952 1_554 S
H191 C180 0.948 1_554 S
O192 Zn177 2.034 . S
O192 C187 1.246 . S
O193 Zn185 2.024 . S
O193 C187 1.249 . S
H194 C176 0.948 . S
O195 Zn185 2.039 . S
O195 C199 1.251 . S
O196 Zn177 2.025 . S
O196 C199 1.254 . S
O197 C178 1.246 . S
O197 Zn185 2.034 . S
O198 Zn177 2.024 . S
O198 C178 1.249 . S
C199 O195 1.251 . S
C199 O196 1.254 . S
H200 C173 0.949 . S
H201 C175 0.950 . S
H202 C182 0.949 . S
H203 C184 0.950 1_554 S
C204 O220 1.251 . S
C204 O222 1.254 . S
N205 C206 1.333 . S
N205 C210 1.307 . S
N205 Zn211 2.020 . S
C206 N205 1.333 . S
C206 C207 1.379 . S
C206 H224 0.952 . S
C207 C206 1.379 . S
C207 C208 1.390 . S
C207 H234 0.949 . S
C208 C207 1.390 . S
C208 C209 1.357 . S
C209 C208 1.357 . S
C209 C210 1.370 . S
C209 H235 0.950 1_554 S
C210 N205 1.307 . S
C210 C209 1.370 . S
C210 H228 0.948 1_554 S
Zn211 N205 2.020 . S
Zn211 O220 2.039 . S
Zn211 O226 2.034 . S
Zn211 O230 2.025 1_554 S
Zn211 O232 2.024 . S
C212 O231 1.246 . S
C212 O232 1.249 . S
N213 C214 1.307 . S
N213 C215 1.333 . S
N213 Zn219 2.020 . S
C214 N213 1.307 . S
C214 C218 1.370 . S
C214 H225 0.948 . S
C215 N213 1.333 . S
C215 C216 1.379 1_554 S
C215 H223 0.952 1_554 S
C216 C215 1.379 1_556 S
C216 C217 1.390 1_556 S
C216 H236 0.949 . S
C217 C216 1.390 1_554 S
C217 C218 1.357 . S
C218 C214 1.370 . S
C218 C217 1.357 . S
C218 H237 0.950 . S
Zn219 N213 2.020 . S
Zn219 O222 2.025 . S
Zn219 O227 2.024 . S
Zn219 O229 2.039 1_554 S
Zn219 O231 2.034 . S
O220 C204 1.251 . S
O220 Zn211 2.039 . S
C221 O226 1.246 . S
C221 O227 1.249 . S
O222 C204 1.254 . S
O222 Zn219 2.025 . S
H223 C215 0.952 1_556 S
H224 C206 0.952 . S
H225 C214 0.948 . S
O226 Zn211 2.034 . S
O226 C221 1.246 . S
O227 Zn219 2.024 . S
O227 C221 1.249 . S
H228 C210 0.948 1_556 S
O229 Zn219 2.039 1_556 S
O229 C233 1.251 . S
O230 Zn211 2.025 1_556 S
O230 C233 1.254 . S
O231 C212 1.246 . S
O231 Zn219 2.034 . S
O232 Zn211 2.024 . S
O232 C212 1.249 . S
C233 O229 1.251 . S
C233 O230 1.254 . S
H234 C207 0.949 . S
H235 C209 0.950 1_556 S
H236 C216 0.949 . S
H237 C218 0.950 . S
C238 O254 1.251 . S
C238 O256 1.254 . S
N239 C240 1.333 . S
N239 C244 1.307 . S
N239 Zn245 2.020 . S
C240 N239 1.333 . S
C240 C241 1.379 1_556 S
C240 H258 0.952 1_556 S
C241 C240 1.379 1_554 S
C241 C242 1.390 1_554 S
C241 H268 0.949 . S
C242 C241 1.390 1_556 S
C242 C243 1.357 . S
C243 C242 1.357 . S
C243 C244 1.370 . S
C243 H269 0.950 . S
C244 N239 1.307 . S
C244 C243 1.370 . S
C244 H262 0.948 . S
Zn245 N239 2.020 . S
Zn245 O254 2.039 1_556 S
Zn245 O260 2.034 . S
Zn245 O264 2.025 . S
Zn245 O266 2.024 . S
C246 O265 1.246 . S
C246 O266 1.249 . S
N247 C248 1.307 . S
N247 C249 1.333 . S
N247 Zn253 2.020 . S
C248 N247 1.307 . S
C248 C252 1.370 . S
C248 H259 0.948 1_556 S
C249 N247 1.333 . S
C249 C250 1.379 . S
C249 H257 0.952 . S
C250 C249 1.379 . S
C250 C251 1.390 . S
C250 H270 0.949 . S
C251 C250 1.390 . S
C251 C252 1.357 . S
C252 C248 1.370 . S
C252 C251 1.357 . S
C252 H271 0.950 1_556 S
Zn253 N247 2.020 . S
Zn253 O256 2.025 1_556 S
Zn253 O261 2.024 . S
Zn253 O263 2.039 . S
Zn253 O265 2.034 . S
O254 C238 1.251 . S
O254 Zn245 2.039 1_554 S
C255 O260 1.246 . S
C255 O261 1.249 . S
O256 C238 1.254 . S
O256 Zn253 2.025 1_554 S
H257 C249 0.952 . S
H258 C240 0.952 1_554 S
H259 C248 0.948 1_554 S
O260 Zn245 2.034 . S
O260 C255 1.246 . S
O261 Zn253 2.024 . S
O261 C255 1.249 . S
H262 C244 0.948 . S
O263 Zn253 2.039 . S
O263 C267 1.251 . S
O264 Zn245 2.025 . S
O264 C267 1.254 . S
O265 C246 1.246 . S
O265 Zn253 2.034 . S
O266 Zn245 2.024 . S
O266 C246 1.249 . S
C267 O263 1.251 . S
C267 O264 1.254 . S
H268 C241 0.949 . S
H269 C243 0.950 . S
H270 C250 0.949 . S
H271 C252 0.950 1_554 S
C272 O288 1.251 . S
C272 O290 1.254 . S
N273 C274 1.333 . S
N273 C278 1.307 . S
N273 Zn279 2.020 . S
C274 N273 1.333 . S
C274 C275 1.379 . S
C274 H292 0.952 . S
C275 C274 1.379 . S
C275 C276 1.390 . S
C275 H302 0.949 . S
C276 C275 1.390 . S
C276 C277 1.357 . S
C277 C276 1.357 . S
C277 C278 1.370 . S
C277 H303 0.950 . S
C278 N273 1.307 . S
C278 C277 1.370 . S
C278 H296 0.948 . S
Zn279 N273 2.020 . S
Zn279 O288 2.039 . S
Zn279 O294 2.034 . S
Zn279 O298 2.025 . S
Zn279 O300 2.024 . S
C280 O299 1.246 . S
C280 O300 1.249 . S
N281 C282 1.307 . S
N281 C283 1.333 . S
N281 Zn287 2.020 . S
C282 N281 1.307 . S
C282 C286 1.370 . S
C282 H293 0.948 . S
C283 N281 1.333 . S
C283 C284 1.379 . S
C283 H291 0.952 . S
C284 C283 1.379 . S
C284 C285 1.390 . S
C284 H304 0.949 . S
C285 C284 1.390 . S
C285 C286 1.357 . S
C286 C282 1.370 . S
C286 C285 1.357 . S
C286 H305 0.950 . S
Zn287 N281 2.020 . S
Zn287 O290 2.025 . S
Zn287 O295 2.024 . S
Zn287 O297 2.039 . S
Zn287 O299 2.034 . S
O288 C272 1.251 . S
O288 Zn279 2.039 . S
C289 O294 1.246 . S
C289 O295 1.249 . S
O290 C272 1.254 . S
O290 Zn287 2.025 . S
H291 C283 0.952 . S
H292 C274 0.952 . S
H293 C282 0.948 . S
O294 Zn279 2.034 . S
O294 C289 1.246 . S
O295 Zn287 2.024 . S
O295 C289 1.249 . S
H296 C278 0.948 . S
O297 Zn287 2.039 . S
O297 C301 1.251 . S
O298 Zn279 2.025 . S
O298 C301 1.254 . S
O299 C280 1.246 . S
O299 Zn287 2.034 . S
O300 Zn279 2.024 . S
O300 C280 1.249 . S
C301 O297 1.251 . S
C301 O298 1.254 . S
H302 C275 0.949 . S
H303 C277 0.950 . S
H304 C284 0.949 . S
H305 C286 0.950 . S
C306 O322 1.251 . S
C306 O324 1.254 . S
N307 C308 1.333 . S
N307 C312 1.307 . S
N307 Zn313 2.020 . S
C308 N307 1.333 . S
C308 C309 1.379 . S
C308 H326 0.952 . S
C309 C308 1.379 . S
C309 C310 1.390 . S
C309 H336 0.949 . S
C310 C309 1.390 . S
C310 C311 1.357 . S
C311 C310 1.357 . S
C311 C312 1.370 . S
C311 H337 0.950 . S
C312 N307 1.307 . S
C312 C311 1.370 . S
C312 H330 0.948 . S
Zn313 N307 2.020 . S
Zn313 O322 2.039 . S
Zn313 O328 2.034 . S
Zn313 O332 2.025 . S
Zn313 O334 2.024 . S
C314 O333 1.246 . S
C314 O334 1.249 . S
N315 C316 1.307 . S
N315 C317 1.333 . S
N315 Zn321 2.020 . S
C316 N315 1.307 . S
C316 C320 1.370 . S
C316 H327 0.948 . S
C317 N315 1.333 . S
C317 C318 1.379 . S
C317 H325 0.952 . S
C318 C317 1.379 . S
C318 C319 1.390 . S
C318 H338 0.949 . S
C319 C318 1.390 . S
C319 C320 1.357 . S
C320 C316 1.370 . S
C320 C319 1.357 . S
C320 H339 0.950 . S
Zn321 N315 2.020 . S
Zn321 O324 2.025 . S
Zn321 O329 2.024 . S
Zn321 O331 2.039 . S
Zn321 O333 2.034 . S
O322 C306 1.251 . S
O322 Zn313 2.039 . S
C323 O328 1.246 . S
C323 O329 1.249 . S
O324 C306 1.254 . S
O324 Zn321 2.025 . S
H325 C317 0.952 . S
H326 C308 0.952 . S
H327 C316 0.948 . S
O328 Zn313 2.034 . S
O328 C323 1.246 . S
O329 Zn321 2.024 . S
O329 C323 1.249 . S
H330 C312 0.948 . S
O331 Zn321 2.039 . S
O331 C335 1.251 . S
O332 Zn313 2.025 . S
O332 C335 1.254 . S
O333 C314 1.246 . S
O333 Zn321 2.034 . S
O334 Zn313 2.024 . S
O334 C314 1.249 . S
C335 O331 1.251 . S
C335 O332 1.254 . S
H336 C309 0.949 . S
H337 C311 0.950 . S
H338 C318 0.949 . S
H339 C320 0.950 . S
C340 O356 1.251 . S
C340 O358 1.254 . S
N341 C342 1.333 . S
N341 C346 1.307 . S
N341 Zn347 2.020 . S
C342 N341 1.333 . S
C342 C343 1.379 . S
C342 H360 0.952 . S
C343 C342 1.379 . S
C343 C344 1.390 . S
C343 H370 0.949 . S
C344 C343 1.390 . S
C344 C345 1.357 . S
C345 C344 1.357 . S
C345 C346 1.370 . S
C345 H371 0.950 . S
C346 N341 1.307 . S
C346 C345 1.370 . S
C346 H364 0.948 . S
Zn347 N341 2.020 . S
Zn347 O356 2.039 . S
Zn347 O362 2.034 . S
Zn347 O366 2.025 . S
Zn347 O368 2.024 . S
C348 O367 1.246 . S
C348 O368 1.249 . S
N349 C350 1.307 . S
N349 C351 1.333 . S
N349 Zn355 2.020 . S
C350 N349 1.307 . S
C350 C354 1.370 . S
C350 H361 0.948 . S
C351 N349 1.333 . S
C351 C352 1.379 . S
C351 H359 0.952 . S
C352 C351 1.379 . S
C352 C353 1.390 . S
C352 H372 0.949 . S
C353 C352 1.390 . S
C353 C354 1.357 . S
C354 C350 1.370 . S
C354 C353 1.357 . S
C354 H373 0.950 . S
Zn355 N349 2.020 . S
Zn355 O358 2.025 . S
Zn355 O363 2.024 . S
Zn355 O365 2.039 . S
Zn355 O367 2.034 . S
O356 C340 1.251 . S
O356 Zn347 2.039 . S
C357 O362 1.246 . S
C357 O363 1.249 . S
O358 C340 1.254 . S
O358 Zn355 2.025 . S
H359 C351 0.952 . S
H360 C342 0.952 . S
H361 C350 0.948 . S
O362 Zn347 2.034 . S
O362 C357 1.246 . S
O363 Zn355 2.024 . S
O363 C357 1.249 . S
H364 C346 0.948 . S
O365 Zn355 2.039 . S
O365 C369 1.251 . S
O366 Zn347 2.025 . S
O366 C369 1.254 . S
O367 C348 1.246 . S
O367 Zn355 2.034 . S
O368 Zn347 2.024 . S
O368 C348 1.249 . S
C369 O365 1.251 . S
C369 O366 1.254 . S
H370 C343 0.949 . S
H371 C345 0.950 . S
H372 C352 0.949 . S
H373 C354 0.950 . S
C374 O390 1.251 . S
C374 O392 1.254 . S
N375 C376 1.333 . S
N375 C380 1.307 . S
N375 Zn381 2.020 . S
C376 N375 1.333 . S
C376 C377 1.379 . S
C376 H394 0.952 . S
C377 C376 1.379 . S
C377 C378 1.390 . S
C377 H404 0.949 . S
C378 C377 1.390 . S
C378 C379 1.357 . S
C379 C378 1.357 . S
C379 C380 1.370 . S
C379 H405 0.950 . S
C380 N375 1.307 . S
C380 C379 1.370 . S
C380 H398 0.948 . S
Zn381 N375 2.020 . S
Zn381 O390 2.039 . S
Zn381 O396 2.034 . S
Zn381 O400 2.025 . S
Zn381 O402 2.024 . S
C382 O401 1.246 . S
C382 O402 1.249 . S
N383 C384 1.307 . S
N383 C385 1.333 . S
N383 Zn389 2.020 . S
C384 N383 1.307 . S
C384 C388 1.370 . S
C384 H395 0.948 . S
C385 N383 1.333 . S
C385 C386 1.379 . S
C385 H393 0.952 . S
C386 C385 1.379 . S
C386 C387 1.390 . S
C386 H406 0.949 . S
C387 C386 1.390 . S
C387 C388 1.357 . S
C388 C384 1.370 . S
C388 C387 1.357 . S
C388 H407 0.950 . S
Zn389 N383 2.020 . S
Zn389 O392 2.025 . S
Zn389 O397 2.024 . S
Zn389 O399 2.039 . S
Zn389 O401 2.034 . S
O390 C374 1.251 . S
O390 Zn381 2.039 . S
C391 O396 1.246 . S
C391 O397 1.249 . S
O392 C374 1.254 . S
O392 Zn389 2.025 . S
H393 C385 0.952 . S
H394 C376 0.952 . S
H395 C384 0.948 . S
O396 Zn381 2.034 . S
O396 C391 1.246 . S
O397 Zn389 2.024 . S
O397 C391 1.249 . S
H398 C380 0.948 . S
O399 Zn389 2.039 . S
O399 C403 1.251 . S
O400 Zn381 2.025 . S
O400 C403 1.254 . S
O401 C382 1.246 . S
O401 Zn389 2.034 . S
O402 Zn381 2.024 . S
O402 C382 1.249 . S
C403 O399 1.251 . S
C403 O400 1.254 . S
H404 C377 0.949 . S
H405 C379 0.950 . S
H406 C386 0.949 . S
H407 C388 0.950 . S
C408 O424 1.251 . S
C408 O426 1.254 . S
N409 C410 1.333 . S
N409 C414 1.307 . S
N409 Zn415 2.020 . S
C410 N409 1.333 . S
C410 C411 1.379 . S
C410 H428 0.952 . S
C411 C410 1.379 . S
C411 C412 1.390 . S
C411 H438 0.949 . S
C412 C411 1.390 . S
C412 C413 1.357 . S
C413 C412 1.357 . S
C413 C414 1.370 . S
C413 H439 0.950 . S
C414 N409 1.307 . S
C414 C413 1.370 . S
C414 H432 0.948 . S
Zn415 N409 2.020 . S
Zn415 O424 2.039 . S
Zn415 O430 2.034 . S
Zn415 O434 2.025 . S
Zn415 O436 2.024 . S
C416 O435 1.246 . S
C416 O436 1.249 . S
N417 C418 1.307 . S
N417 C419 1.333 . S
N417 Zn423 2.020 . S
C418 N417 1.307 . S
C418 C422 1.370 1_565 S
C418 H429 0.948 . S
C419 N417 1.333 . S
C419 C420 1.379 1_565 S
C419 H427 0.952 . S
C420 C419 1.379 1_545 S
C420 C421 1.390 . S
C420 H440 0.949 . S
C421 C420 1.390 . S
C421 C422 1.357 . S
C422 C418 1.370 1_545 S
C422 C421 1.357 . S
C422 H441 0.950 . S
Zn423 N417 2.020 . S
Zn423 O426 2.025 . S
Zn423 O431 2.024 . S
Zn423 O433 2.039 . S
Zn423 O435 2.034 . S
O424 C408 1.251 . S
O424 Zn415 2.039 . S
C425 O430 1.246 . S
C425 O431 1.249 . S
O426 C408 1.254 . S
O426 Zn423 2.025 . S
H427 C419 0.952 . S
H428 C410 0.952 . S
H429 C418 0.948 . S
O430 Zn415 2.034 . S
O430 C425 1.246 . S
O431 Zn423 2.024 . S
O431 C425 1.249 . S
H432 C414 0.948 . S
O433 Zn423 2.039 . S
O433 C437 1.251 . S
O434 Zn415 2.025 . S
O434 C437 1.254 . S
O435 C416 1.246 . S
O435 Zn423 2.034 . S
O436 Zn415 2.024 . S
O436 C416 1.249 . S
C437 O433 1.251 . S
C437 O434 1.254 . S
H438 C411 0.949 . S
H439 C413 0.950 . S
H440 C420 0.949 . S
H441 C422 0.950 . S
C442 O458 1.251 . S
C442 O460 1.254 . S
N443 C444 1.333 . S
N443 C448 1.307 . S
N443 Zn449 2.020 . S
C444 N443 1.333 . S
C444 C445 1.379 1_655 S
C444 H462 0.952 . S
C445 C444 1.379 1_455 S
C445 C446 1.390 . S
C445 H472 0.949 . S
C446 C445 1.390 . S
C446 C447 1.357 . S
C447 C446 1.357 . S
C447 C448 1.370 1_455 S
C447 H473 0.950 . S
C448 N443 1.307 . S
C448 C447 1.370 1_655 S
C448 H466 0.948 . S
Zn449 N443 2.020 . S
Zn449 O458 2.039 . S
Zn449 O464 2.034 . S
Zn449 O468 2.025 . S
Zn449 O470 2.024 . S
C450 O469 1.246 . S
C450 O470 1.249 . S
N451 C452 1.307 . S
N451 C453 1.333 . S
N451 Zn457 2.020 . S
C452 N451 1.307 . S
C452 C456 1.370 . S
C452 H463 0.948 . S
C453 N451 1.333 . S
C453 C454 1.379 . S
C453 H461 0.952 . S
C454 C453 1.379 . S
C454 C455 1.390 . S
C454 H474 0.949 . S
C455 C454 1.390 . S
C455 C456 1.357 . S
C456 C452 1.370 . S
C456 C455 1.357 . S
C456 H475 0.950 . S
Zn457 N451 2.020 . S
Zn457 O460 2.025 . S
Zn457 O465 2.024 . S
Zn457 O467 2.039 . S
Zn457 O469 2.034 . S
O458 C442 1.251 . S
O458 Zn449 2.039 . S
C459 O464 1.246 . S
C459 O465 1.249 . S
O460 C442 1.254 . S
O460 Zn457 2.025 . S
H461 C453 0.952 . S
H462 C444 0.952 . S
H463 C452 0.948 . S
O464 Zn449 2.034 . S
O464 C459 1.246 . S
O465 Zn457 2.024 . S
O465 C459 1.249 . S
H466 C448 0.948 . S
O467 Zn457 2.039 . S
O467 C471 1.251 . S
O468 Zn449 2.025 . S
O468 C471 1.254 . S
O469 C450 1.246 . S
O469 Zn457 2.034 . S
O470 Zn449 2.024 . S
O470 C450 1.249 . S
C471 O467 1.251 . S
C471 O468 1.254 . S
H472 C445 0.949 . S
H473 C447 0.950 . S
H474 C454 0.949 . S
H475 C456 0.950 . S
C476 O492 1.251 . S
C476 O494 1.254 . S
N477 C478 1.333 . S
N477 C482 1.307 . S
N477 Zn483 2.020 . S
C478 N477 1.333 . S
C478 C479 1.379 . S
C478 H496 0.952 . S
C479 C478 1.379 . S
C479 C480 1.390 . S
C479 H506 0.949 . S
C480 C479 1.390 . S
C480 C481 1.357 . S
C481 C480 1.357 . S
C481 C482 1.370 . S
C481 H507 0.950 . S
C482 N477 1.307 . S
C482 C481 1.370 . S
C482 H500 0.948 . S
Zn483 N477 2.020 . S
Zn483 O492 2.039 . S
Zn483 O498 2.034 . S
Zn483 O502 2.025 . S
Zn483 O504 2.024 . S
C484 O503 1.246 . S
C484 O504 1.249 . S
N485 C486 1.307 . S
N485 C487 1.333 . S
N485 Zn491 2.020 . S
C486 N485 1.307 . S
C486 C490 1.370 1_545 S
C486 H497 0.948 . S
C487 N485 1.333 . S
C487 C488 1.379 1_545 S
C487 H495 0.952 . S
C488 C487 1.379 1_565 S
C488 C489 1.390 . S
C488 H508 0.949 . S
C489 C488 1.390 . S
C489 C490 1.357 . S
C490 C486 1.370 1_565 S
C490 C489 1.357 . S
C490 H509 0.950 . S
Zn491 N485 2.020 . S
Zn491 O494 2.025 . S
Zn491 O499 2.024 . S
Zn491 O501 2.039 . S
Zn491 O503 2.034 . S
O492 C476 1.251 . S
O492 Zn483 2.039 . S
C493 O498 1.246 . S
C493 O499 1.249 . S
O494 C476 1.254 . S
O494 Zn491 2.025 . S
H495 C487 0.952 . S
H496 C478 0.952 . S
H497 C486 0.948 . S
O498 Zn483 2.034 . S
O498 C493 1.246 . S
O499 Zn491 2.024 . S
O499 C493 1.249 . S
H500 C482 0.948 . S
O501 Zn491 2.039 . S
O501 C505 1.251 . S
O502 Zn483 2.025 . S
O502 C505 1.254 . S
O503 C484 1.246 . S
O503 Zn491 2.034 . S
O504 Zn483 2.024 . S
O504 C484 1.249 . S
C505 O501 1.251 . S
C505 O502 1.254 . S
H506 C479 0.949 . S
H507 C481 0.950 . S
H508 C488 0.949 . S
H509 C490 0.950 . S
C510 O526 1.251 . S
C510 O528 1.254 . S
N511 C512 1.333 . S
N511 C516 1.307 . S
N511 Zn517 2.020 . S
C512 N511 1.333 . S
C512 C513 1.379 1_455 S
C512 H530 0.952 . S
C513 C512 1.379 1_655 S
C513 C514 1.390 . S
C513 H540 0.949 . S
C514 C513 1.390 . S
C514 C515 1.357 . S
C515 C514 1.357 . S
C515 C516 1.370 1_655 S
C515 H541 0.950 . S
C516 N511 1.307 . S
C516 C515 1.370 1_455 S
C516 H534 0.948 . S
Zn517 N511 2.020 . S
Zn517 O526 2.039 . S
Zn517 O532 2.034 . S
Zn517 O536 2.025 . S
Zn517 O538 2.024 . S
C518 O537 1.246 . S
C518 O538 1.249 . S
N519 C520 1.307 . S
N519 C521 1.333 . S
N519 Zn525 2.020 . S
C520 N519 1.307 . S
C520 C524 1.370 . S
C520 H531 0.948 . S
C521 N519 1.333 . S
C521 C522 1.379 . S
C521 H529 0.952 . S
C522 C521 1.379 . S
C522 C523 1.390 . S
C522 H542 0.949 . S
C523 C522 1.390 . S
C523 C524 1.357 . S
C524 C520 1.370 . S
C524 C523 1.357 . S
C524 H543 0.950 . S
Zn525 N519 2.020 . S
Zn525 O528 2.025 . S
Zn525 O533 2.024 . S
Zn525 O535 2.039 . S
Zn525 O537 2.034 . S
O526 C510 1.251 . S
O526 Zn517 2.039 . S
C527 O532 1.246 . S
C527 O533 1.249 . S
O528 C510 1.254 . S
O528 Zn525 2.025 . S
H529 C521 0.952 . S
H530 C512 0.952 . S
H531 C520 0.948 . S
O532 Zn517 2.034 . S
O532 C527 1.246 . S
O533 Zn525 2.024 . S
O533 C527 1.249 . S
H534 C516 0.948 . S
O535 Zn525 2.039 . S
O535 C539 1.251 . S
O536 Zn517 2.025 . S
O536 C539 1.254 . S
O537 C518 1.246 . S
O537 Zn525 2.034 . S
O538 Zn517 2.024 . S
O538 C518 1.249 . S
C539 O535 1.251 . S
C539 O536 1.254 . S
H540 C513 0.949 . S
H541 C515 0.950 . S
H542 C522 0.949 . S
H543 C524 0.950 . S
C544 C545 1.363 . S
C544 C550 1.379 . S
C544 N552 1.356 . S
C545 C544 1.363 . S
C545 C551 1.363 . S
C546 C547 1.363 . S
C546 C551 1.379 . S
C546 N553 1.356 . S
C547 C546 1.363 . S
C547 C550 1.363 . S
N548 C550 1.356 . S
N548 H560 0.984 . S
N548 H561 0.985 . S
N549 C551 1.356 . S
N549 H554 0.984 . S
N549 H555 0.985 . S
C550 C544 1.379 . S
C550 C547 1.363 . S
C550 N548 1.356 . S
C551 C545 1.363 . S
C551 C546 1.379 . S
C551 N549 1.356 . S
N552 C544 1.356 . S
N552 H558 0.984 . S
N552 H559 0.984 . S
N553 C546 1.356 . S
N553 H556 0.984 . S
N553 H557 0.985 1_554 S
H554 N549 0.984 . S
H555 N549 0.985 . S
H556 N553 0.984 . S
H557 N553 0.985 1_556 S
H558 N552 0.984 . S
H559 N552 0.984 . S
H560 N548 0.984 . S
H561 N548 0.985 . S
C562 C563 1.363 . S
C562 C568 1.379 . S
C562 N570 1.356 . S
C563 C562 1.363 . S
C563 C569 1.363 . S
C564 C565 1.363 . S
C564 C569 1.379 . S
C564 N571 1.356 . S
C565 C564 1.363 . S
C565 C568 1.363 . S
N566 C568 1.356 . S
N566 H578 0.984 . S
N566 H579 0.985 . S
N567 C569 1.356 . S
N567 H572 0.984 . S
N567 H573 0.985 . S
C568 C562 1.379 . S
C568 C565 1.363 . S
C568 N566 1.356 . S
C569 C563 1.363 . S
C569 C564 1.379 . S
C569 N567 1.356 . S
N570 C562 1.356 . S
N570 H576 0.984 . S
N570 H577 0.984 . S
N571 C564 1.356 . S
N571 H574 0.984 . S
N571 H575 0.985 1_556 S
H572 N567 0.984 . S
H573 N567 0.985 . S
H574 N571 0.984 . S
H575 N571 0.985 1_554 S
H576 N570 0.984 . S
H577 N570 0.984 . S
H578 N566 0.984 . S
H579 N566 0.985 . S
C580 C581 1.363 . S
C580 C586 1.379 . S
C580 N588 1.356 . S
C581 C580 1.363 . S
C581 C587 1.363 . S
C582 C583 1.363 . S
C582 C587 1.379 . S
C582 N589 1.356 . S
C583 C582 1.363 . S
C583 C586 1.363 . S
N584 C586 1.356 . S
N584 H596 0.984 . S
N584 H597 0.985 . S
N585 C587 1.356 . S
N585 H590 0.984 . S
N585 H591 0.985 . S
C586 C580 1.379 . S
C586 C583 1.363 . S
C586 N584 1.356 . S
C587 C581 1.363 . S
C587 C582 1.379 . S
C587 N585 1.356 . S
N588 C580 1.356 . S
N588 H594 0.984 1_554 S
N588 H595 0.984 . S
N589 C582 1.356 . S
N589 H592 0.984 . S
N589 H593 0.985 . S
H590 N585 0.984 . S
H591 N585 0.985 . S
H592 N589 0.984 . S
H593 N589 0.985 . S
H594 N588 0.984 1_556 S
H595 N588 0.984 . S
H596 N584 0.984 . S
H597 N584 0.985 . S
C598 C599 1.363 . S
C598 C604 1.379 . S
C598 N606 1.356 . S
C599 C598 1.363 . S
C599 C605 1.363 . S
C600 C601 1.363 . S
C600 C605 1.379 . S
C600 N607 1.356 . S
C601 C600 1.363 . S
C601 C604 1.363 . S
N602 C604 1.356 . S
N602 H614 0.984 . S
N602 H615 0.985 . S
N603 C605 1.356 . S
N603 H608 0.984 . S
N603 H609 0.985 . S
C604 C598 1.379 . S
C604 C601 1.363 . S
C604 N602 1.356 . S
C605 C599 1.363 . S
C605 C600 1.379 . S
C605 N603 1.356 . S
N606 C598 1.356 . S
N606 H612 0.984 1_556 S
N606 H613 0.984 . S
N607 C600 1.356 . S
N607 H610 0.984 . S
N607 H611 0.985 . S
H608 N603 0.984 . S
H609 N603 0.985 . S
H610 N607 0.984 . S
H611 N607 0.985 . S
H612 N606 0.984 1_554 S
H613 N606 0.984 . S
H614 N602 0.984 . S
H615 N602 0.985 . S
C616 C617 1.363 1_556 S
C616 C622 1.379 . S
C616 N624 1.356 . S
C617 C616 1.363 1_554 S
C617 C623 1.363 . S
C618 C619 1.363 1_554 S
C618 C623 1.379 . S
C618 N625 1.356 . S
C619 C618 1.363 1_556 S
C619 C622 1.363 . S
N620 C622 1.356 . S
N620 H632 0.984 . S
N620 H633 0.985 . S
N621 C623 1.356 . S
N621 H626 0.984 . S
N621 H627 0.985 . S
C622 C616 1.379 . S
C622 C619 1.363 . S
C622 N620 1.356 . S
C623 C617 1.363 . S
C623 C618 1.379 . S
C623 N621 1.356 . S
N624 C616 1.356 . S
N624 H630 0.984 . S
N624 H631 0.984 . S
N625 C618 1.356 . S
N625 H628 0.984 . S
N625 H629 0.985 . S
H626 N621 0.984 . S
H627 N621 0.985 . S
H628 N625 0.984 . S
H629 N625 0.985 . S
H630 N624 0.984 . S
H631 N624 0.984 . S
H632 N620 0.984 . S
H633 N620 0.985 . S
C634 C635 1.363 . S
C634 C640 1.379 . S
C634 N642 1.356 . S
C635 C634 1.363 . S
C635 C641 1.363 1_554 S
C636 C637 1.363 . S
C636 C641 1.379 . S
C636 N643 1.356 . S
C637 C636 1.363 . S
C637 C640 1.363 1_556 S
N638 C640 1.356 . S
N638 H650 0.984 . S
N638 H651 0.985 . S
N639 C641 1.356 . S
N639 H644 0.984 . S
N639 H645 0.985 . S
C640 C634 1.379 . S
C640 C637 1.363 1_554 S
C640 N638 1.356 . S
C641 C635 1.363 1_556 S
C641 C636 1.379 . S
C641 N639 1.356 . S
N642 C634 1.356 . S
N642 H648 0.984 . S
N642 H649 0.984 . S
N643 C636 1.356 . S
N643 H646 0.984 . S
N643 H647 0.985 . S
H644 N639 0.984 . S
H645 N639 0.985 . S
H646 N643 0.984 . S
H647 N643 0.985 . S
H648 N642 0.984 . S
H649 N642 0.984 . S
H650 N638 0.984 . S
H651 N638 0.985 . S
C652 C653 1.363 . S
C652 C658 1.379 . S
C652 N660 1.356 . S
C653 C652 1.363 . S
C653 C659 1.363 1_554 S
C654 C655 1.363 . S
C654 C659 1.379 . S
C654 N661 1.356 . S
C655 C654 1.363 . S
C655 C658 1.363 1_556 S
N656 C658 1.356 . S
N656 H668 0.984 . S
N656 H669 0.985 . S
N657 C659 1.356 . S
N657 H662 0.984 . S
N657 H663 0.985 . S
C658 C652 1.379 . S
C658 C655 1.363 1_554 S
C658 N656 1.356 . S
C659 C653 1.363 1_556 S
C659 C654 1.379 . S
C659 N657 1.356 . S
N660 C652 1.356 . S
N660 H666 0.984 . S
N660 H667 0.984 . S
N661 C654 1.356 . S
N661 H664 0.984 . S
N661 H665 0.985 . S
H662 N657 0.984 . S
H663 N657 0.985 . S
H664 N661 0.984 . S
H665 N661 0.985 . S
H666 N660 0.984 . S
H667 N660 0.984 . S
H668 N656 0.984 . S
H669 N656 0.985 . S
C670 C671 1.363 1_556 S
C670 C676 1.379 . S
C670 N678 1.356 . S
C671 C670 1.363 1_554 S
C671 C677 1.363 . S
C672 C673 1.363 1_554 S
C672 C677 1.379 . S
C672 N679 1.356 . S
C673 C672 1.363 1_556 S
C673 C676 1.363 . S
N674 C676 1.356 . S
N674 H686 0.984 . S
N674 H687 0.985 . S
N675 C677 1.356 . S
N675 H680 0.984 . S
N675 H681 0.985 . S
C676 C670 1.379 . S
C676 C673 1.363 . S
C676 N674 1.356 . S
C677 C671 1.363 . S
C677 C672 1.379 . S
C677 N675 1.356 . S
N678 C670 1.356 . S
N678 H684 0.984 . S
N678 H685 0.984 . S
N679 C672 1.356 . S
N679 H682 0.984 . S
N679 H683 0.985 . S
H680 N675 0.984 . S
H681 N675 0.985 . S
H682 N679 0.984 . S
H683 N679 0.985 . S
H684 N678 0.984 . S
H685 N678 0.984 . S
H686 N674 0.984 . S
H687 N674 0.985 . S
C688 C689 1.363 . S
C688 C694 1.379 . S
C688 N696 1.356 . S
C689 C688 1.363 . S
C689 C695 1.363 . S
C690 C691 1.363 . S
C690 C695 1.379 . S
C690 N697 1.356 . S
C691 C690 1.363 . S
C691 C694 1.363 . S
N692 C694 1.356 . S
N692 H704 0.984 . S
N692 H705 0.985 . S
N693 C695 1.356 . S
N693 H698 0.984 . S
N693 H699 0.985 . S
C694 C688 1.379 . S
C694 C691 1.363 . S
C694 N692 1.356 . S
C695 C689 1.363 . S
C695 C690 1.379 . S
C695 N693 1.356 . S
N696 C688 1.356 . S
N696 H702 0.984 1_556 S
N696 H703 0.984 . S
N697 C690 1.356 . S
N697 H700 0.984 . S
N697 H701 0.985 . S
H698 N693 0.984 . S
H699 N693 0.985 . S
H700 N697 0.984 . S
H701 N697 0.985 . S
H702 N696 0.984 1_554 S
H703 N696 0.984 . S
H704 N692 0.984 . S
H705 N692 0.985 . S
C706 C707 1.363 . S
C706 C712 1.379 . S
C706 N714 1.356 . S
C707 C706 1.363 . S
C707 C713 1.363 . S
C708 C709 1.363 . S
C708 C713 1.379 . S
C708 N715 1.356 . S
C709 C708 1.363 . S
C709 C712 1.363 . S
N710 C712 1.356 . S
N710 H722 0.984 . S
N710 H723 0.985 . S
N711 C713 1.356 . S
N711 H716 0.984 . S
N711 H717 0.985 . S
C712 C706 1.379 . S
C712 C709 1.363 . S
C712 N710 1.356 . S
C713 C707 1.363 . S
C713 C708 1.379 . S
C713 N711 1.356 . S
N714 C706 1.356 . S
N714 H720 0.984 . S
N714 H721 0.984 . S
N715 C708 1.356 . S
N715 H718 0.984 . S
N715 H719 0.985 1_554 S
H716 N711 0.984 . S
H717 N711 0.985 . S
H718 N715 0.984 . S
H719 N715 0.985 1_556 S
H720 N714 0.984 . S
H721 N714 0.984 . S
H722 N710 0.984 . S
H723 N710 0.985 . S
C724 C725 1.363 . S
C724 C730 1.379 . S
C724 N732 1.356 . S
C725 C724 1.363 . S
C725 C731 1.363 . S
C726 C727 1.363 . S
C726 C731 1.379 . S
C726 N733 1.356 . S
C727 C726 1.363 . S
C727 C730 1.363 . S
N728 C730 1.356 . S
N728 H740 0.984 . S
N728 H741 0.985 . S
N729 C731 1.356 . S
N729 H734 0.984 . S
N729 H735 0.985 . S
C730 C724 1.379 . S
C730 C727 1.363 . S
C730 N728 1.356 . S
C731 C725 1.363 . S
C731 C726 1.379 . S
C731 N729 1.356 . S
N732 C724 1.356 . S
N732 H738 0.984 1_556 S
N732 H739 0.984 . S
N733 C726 1.356 . S
N733 H736 0.984 . S
N733 H737 0.985 . S
H734 N729 0.984 . S
H735 N729 0.985 . S
H736 N733 0.984 . S
H737 N733 0.985 . S
H738 N732 0.984 1_554 S
H739 N732 0.984 . S
H740 N728 0.984 . S
H741 N728 0.985 . S
C742 C743 1.363 . S
C742 C748 1.379 . S
C742 N750 1.356 . S
C743 C742 1.363 . S
C743 C749 1.363 . S
C744 C745 1.363 . S
C744 C749 1.379 . S
C744 N751 1.356 . S
C745 C744 1.363 . S
C745 C748 1.363 . S
N746 C748 1.356 . S
N746 H758 0.984 . S
N746 H759 0.985 . S
N747 C749 1.356 . S
N747 H752 0.984 . S
N747 H753 0.985 . S
C748 C742 1.379 . S
C748 C745 1.363 . S
C748 N746 1.356 . S
C749 C743 1.363 . S
C749 C744 1.379 . S
C749 N747 1.356 . S
N750 C742 1.356 . S
N750 H756 0.984 . S
N750 H757 0.984 . S
N751 C744 1.356 . S
N751 H754 0.984 . S
N751 H755 0.985 . S
H752 N747 0.984 . S
H753 N747 0.985 . S
H754 N751 0.984 . S
H755 N751 0.985 . S
H756 N750 0.984 . S
H757 N750 0.984 . S
H758 N746 0.984 . S
H759 N746 0.985 . S
C760 C761 1.363 . S
C760 C766 1.379 . S
C760 N768 1.356 . S
C761 C760 1.363 . S
C761 C767 1.363 . S
C762 C763 1.363 . S
C762 C767 1.379 . S
C762 N769 1.356 . S
C763 C762 1.363 . S
C763 C766 1.363 . S
N764 C766 1.356 . S
N764 H776 0.984 . S
N764 H777 0.985 . S
N765 C767 1.356 . S
N765 H770 0.984 . S
N765 H771 0.985 . S
C766 C760 1.379 . S
C766 C763 1.363 . S
C766 N764 1.356 . S
C767 C761 1.363 . S
C767 C762 1.379 . S
C767 N765 1.356 . S
N768 C760 1.356 . S
N768 H774 0.984 . S
N768 H775 0.984 . S
N769 C762 1.356 . S
N769 H772 0.984 . S
N769 H773 0.985 . S
H770 N765 0.984 . S
H771 N765 0.985 . S
H772 N769 0.984 . S
H773 N769 0.985 . S
H774 N768 0.984 . S
H775 N768 0.984 . S
H776 N764 0.984 . S
H777 N764 0.985 . S
C778 C779 1.363 . S
C778 C784 1.379 . S
C778 N786 1.356 . S
C779 C778 1.363 . S
C779 C785 1.363 . S
C780 C781 1.363 . S
C780 C785 1.379 . S
C780 N787 1.356 . S
C781 C780 1.363 . S
C781 C784 1.363 . S
N782 C784 1.356 . S
N782 H794 0.984 . S
N782 H795 0.985 . S
N783 C785 1.356 . S
N783 H788 0.984 . S
N783 H789 0.985 . S
C784 C778 1.379 . S
C784 C781 1.363 . S
C784 N782 1.356 . S
C785 C779 1.363 . S
C785 C780 1.379 . S
C785 N783 1.356 . S
N786 C778 1.356 . S
N786 H792 0.984 . S
N786 H793 0.984 . S
N787 C780 1.356 . S
N787 H790 0.984 . S
N787 H791 0.985 . S
H788 N783 0.984 . S
H789 N783 0.985 . S
H790 N787 0.984 . S
H791 N787 0.985 . S
H792 N786 0.984 . S
H793 N786 0.984 . S
H794 N782 0.984 . S
H795 N782 0.985 . S
C796 C797 1.363 . S
C796 C802 1.379 . S
C796 N804 1.356 . S
C797 C796 1.363 . S
C797 C803 1.363 . S
C798 C799 1.363 . S
C798 C803 1.379 . S
C798 N805 1.356 . S
C799 C798 1.363 . S
C799 C802 1.363 . S
N800 C802 1.356 . S
N800 H812 0.984 . S
N800 H813 0.985 . S
N801 C803 1.356 . S
N801 H806 0.984 . S
N801 H807 0.985 . S
C802 C796 1.379 . S
C802 C799 1.363 . S
C802 N800 1.356 . S
C803 C797 1.363 . S
C803 C798 1.379 . S
C803 N801 1.356 . S
N804 C796 1.356 . S
N804 H810 0.984 . S
N804 H811 0.984 . S
N805 C798 1.356 . S
N805 H808 0.984 . S
N805 H809 0.985 . S
H806 N801 0.984 . S
H807 N801 0.985 . S
H808 N805 0.984 . S
H809 N805 0.985 . S
H810 N804 0.984 . S
H811 N804 0.984 . S
H812 N800 0.984 . S
H813 N800 0.985 . S
C814 C815 1.363 . S
C814 C820 1.379 . S
C814 N822 1.356 . S
C815 C814 1.363 . S
C815 C821 1.363 . S
C816 C817 1.363 . S
C816 C821 1.379 . S
C816 N823 1.356 . S
C817 C816 1.363 . S
C817 C820 1.363 . S
N818 C820 1.356 . S
N818 H830 0.984 . S
N818 H831 0.985 . S
N819 C821 1.356 . S
N819 H824 0.984 . S
N819 H825 0.985 . S
C820 C814 1.379 . S
C820 C817 1.363 . S
C820 N818 1.356 . S
C821 C815 1.363 . S
C821 C816 1.379 . S
C821 N819 1.356 . S
N822 C814 1.356 . S
N822 H828 0.984 . S
N822 H829 0.984 . S
N823 C816 1.356 . S
N823 H826 0.984 . S
N823 H827 0.985 . S
H824 N819 0.984 . S
H825 N819 0.985 . S
H826 N823 0.984 . S
H827 N823 0.985 . S
H828 N822 0.984 . S
H829 N822 0.984 . S
H830 N818 0.984 . S
H831 N818 0.985 . S
C832 C833 1.363 . S
C832 C838 1.379 . S
C832 N840 1.356 1_554 S
C833 C832 1.363 . S
C833 C839 1.363 . S
C834 C835 1.363 . S
C834 C839 1.379 . S
C834 N841 1.356 . S
C835 C834 1.363 . S
C835 C838 1.363 . S
N836 C838 1.356 1_556 S
N836 H848 0.984 . S
N836 H849 0.985 1_556 S
N837 C839 1.356 . S
N837 H842 0.984 . S
N837 H843 0.985 . S
C838 C832 1.379 . S
C838 C835 1.363 . S
C838 N836 1.356 1_554 S
C839 C833 1.363 . S
C839 C834 1.379 . S
C839 N837 1.356 . S
N840 C832 1.356 1_556 S
N840 H846 0.984 . S
N840 H847 0.984 . S
N841 C834 1.356 . S
N841 H844 0.984 . S
N841 H845 0.985 . S
H842 N837 0.984 . S
H843 N837 0.985 . S
H844 N841 0.984 . S
H845 N841 0.985 . S
H846 N840 0.984 . S
H847 N840 0.984 . S
H848 N836 0.984 . S
H849 N836 0.985 1_554 S
C850 C851 1.363 . S
C850 C856 1.379 . S
C850 N858 1.356 . S
C851 C850 1.363 . S
C851 C857 1.363 . S
C852 C853 1.363 . S
C852 C857 1.379 . S
C852 N859 1.356 . S
C853 C852 1.363 . S
C853 C856 1.363 . S
N854 C856 1.356 1_554 S
N854 H866 0.984 . S
N854 H867 0.985 . S
N855 C857 1.356 . S
N855 H860 0.984 . S
N855 H861 0.985 . S
C856 C850 1.379 . S
C856 C853 1.363 . S
C856 N854 1.356 1_556 S
C857 C851 1.363 . S
C857 C852 1.379 . S
C857 N855 1.356 . S
N858 C850 1.356 . S
N858 H864 0.984 1_556 S
N858 H865 0.984 . S
N859 C852 1.356 . S
N859 H862 0.984 . S
N859 H863 0.985 . S
H860 N855 0.984 . S
H861 N855 0.985 . S
H862 N859 0.984 . S
H863 N859 0.985 . S
H864 N858 0.984 1_554 S
H865 N858 0.984 . S
H866 N854 0.984 . S
H867 N854 0.985 . S
C868 C869 1.363 . S
C868 C874 1.379 . S
C868 N876 1.356 1_554 S
C869 C868 1.363 . S
C869 C875 1.363 . S
C870 C871 1.363 . S
C870 C875 1.379 . S
C870 N877 1.356 . S
C871 C870 1.363 . S
C871 C874 1.363 . S
N872 C874 1.356 1_556 S
N872 H884 0.984 . S
N872 H885 0.985 1_556 S
N873 C875 1.356 . S
N873 H878 0.984 . S
N873 H879 0.985 . S
C874 C868 1.379 . S
C874 C871 1.363 . S
C874 N872 1.356 1_554 S
C875 C869 1.363 . S
C875 C870 1.379 . S
C875 N873 1.356 . S
N876 C868 1.356 1_556 S
N876 H882 0.984 . S
N876 H883 0.984 . S
N877 C870 1.356 . S
N877 H880 0.984 . S
N877 H881 0.985 . S
H878 N873 0.984 . S
H879 N873 0.985 . S
H880 N877 0.984 . S
H881 N877 0.985 . S
H882 N876 0.984 . S
H883 N876 0.984 . S
H884 N872 0.984 . S
H885 N872 0.985 1_554 S
C886 C887 1.363 . S
C886 C892 1.379 . S
C886 N894 1.356 . S
C887 C886 1.363 . S
C887 C893 1.363 . S
C888 C889 1.363 . S
C888 C893 1.379 . S
C888 N895 1.356 . S
C889 C888 1.363 . S
C889 C892 1.363 . S
N890 C892 1.356 . S
N890 H902 0.984 . S
N890 H903 0.985 . S
N891 C893 1.356 1_554 S
N891 H896 0.984 . S
N891 H897 0.985 . S
C892 C886 1.379 . S
C892 C889 1.363 . S
C892 N890 1.356 . S
C893 C887 1.363 . S
C893 C888 1.379 . S
C893 N891 1.356 1_556 S
N894 C886 1.356 . S
N894 H900 0.984 . S
N894 H901 0.984 . S
N895 C888 1.356 . S
N895 H898 0.984 . S
N895 H899 0.985 1_556 S
H896 N891 0.984 . S
H897 N891 0.985 . S
H898 N895 0.984 . S
H899 N895 0.985 1_554 S
H900 N894 0.984 . S
H901 N894 0.984 . S
H902 N890 0.984 . S
H903 N890 0.985 . S
C904 C905 1.363 . S
C904 C910 1.379 . S
C904 N912 1.356 . S
C905 C904 1.363 . S
C905 C911 1.363 . S
C906 C907 1.363 . S
C906 C911 1.379 . S
C906 N913 1.356 . S
C907 C906 1.363 . S
C907 C910 1.363 . S
N908 C910 1.356 . S
N908 H920 0.984 . S
N908 H921 0.985 . S
N909 C911 1.356 . S
N909 H914 0.984 . S
N909 H915 0.985 . S
C910 C904 1.379 . S
C910 C907 1.363 . S
C910 N908 1.356 . S
C911 C905 1.363 . S
C911 C906 1.379 . S
C911 N909 1.356 . S
N912 C904 1.356 . S
N912 H918 0.984 . S
N912 H919 0.984 . S
N913 C906 1.356 . S
N913 H916 0.984 . S
N913 H917 0.985 . S
H914 N909 0.984 . S
H915 N909 0.985 . S
H916 N913 0.984 . S
H917 N913 0.985 . S
H918 N912 0.984 . S
H919 N912 0.984 . S
H920 N908 0.984 . S
H921 N908 0.985 . S
C922 C923 1.363 . S
C922 C928 1.379 . S
C922 N930 1.356 . S
C923 C922 1.363 . S
C923 C929 1.363 . S
C924 C925 1.363 . S
C924 C929 1.379 . S
C924 N931 1.356 . S
C925 C924 1.363 . S
C925 C928 1.363 . S
N926 C928 1.356 . S
N926 H938 0.984 . S
N926 H939 0.985 . S
N927 C929 1.356 . S
N927 H932 0.984 . S
N927 H933 0.985 . S
C928 C922 1.379 . S
C928 C925 1.363 . S
C928 N926 1.356 . S
C929 C923 1.363 . S
C929 C924 1.379 . S
C929 N927 1.356 . S
N930 C922 1.356 . S
N930 H936 0.984 . S
N930 H937 0.984 . S
N931 C924 1.356 . S
N931 H934 0.984 . S
N931 H935 0.985 . S
H932 N927 0.984 . S
H933 N927 0.985 . S
H934 N931 0.984 . S
H935 N931 0.985 . S
H936 N930 0.984 . S
H937 N930 0.984 . S
H938 N926 0.984 . S
H939 N926 0.985 . S
C940 C941 1.363 . S
C940 C946 1.379 . S
C940 N948 1.356 . S
C941 C940 1.363 . S
C941 C947 1.363 . S
C942 C943 1.363 . S
C942 C947 1.379 . S
C942 N949 1.356 . S
C943 C942 1.363 . S
C943 C946 1.363 . S
N944 C946 1.356 . S
N944 H956 0.984 . S
N944 H957 0.985 . S
N945 C947 1.356 . S
N945 H950 0.984 . S
N945 H951 0.985 . S
C946 C940 1.379 . S
C946 C943 1.363 . S
C946 N944 1.356 . S
C947 C941 1.363 . S
C947 C942 1.379 . S
C947 N945 1.356 . S
N948 C940 1.356 . S
N948 H954 0.984 . S
N948 H955 0.984 . S
N949 C942 1.356 . S
N949 H952 0.984 . S
N949 H953 0.985 . S
H950 N945 0.984 . S
H951 N945 0.985 . S
H952 N949 0.984 . S
H953 N949 0.985 . S
H954 N948 0.984 . S
H955 N948 0.984 . S
H956 N944 0.984 . S
H957 N944 0.985 . S
C958 C959 1.363 . S
C958 C964 1.379 . S
C958 N966 1.356 . S
C959 C958 1.363 . S
C959 C965 1.363 . S
C960 C961 1.363 . S
C960 C965 1.379 . S
C960 N967 1.356 . S
C961 C960 1.363 . S
C961 C964 1.363 . S
N962 C964 1.356 . S
N962 H974 0.984 . S
N962 H975 0.985 . S
N963 C965 1.356 . S
N963 H968 0.984 . S
N963 H969 0.985 . S
C964 C958 1.379 . S
C964 C961 1.363 . S
C964 N962 1.356 . S
C965 C959 1.363 . S
C965 C960 1.379 . S
C965 N963 1.356 . S
N966 C958 1.356 . S
N966 H972 0.984 . S
N966 H973 0.984 . S
N967 C960 1.356 . S
N967 H970 0.984 . S
N967 H971 0.985 . S
H968 N963 0.984 . S
H969 N963 0.985 . S
H970 N967 0.984 . S
H971 N967 0.985 . S
H972 N966 0.984 . S
H973 N966 0.984 . S
H974 N962 0.984 . S
H975 N962 0.985 . S
C976 C977 1.363 . S
C976 C982 1.379 . S
C976 N984 1.356 . S
C977 C976 1.363 . S
C977 C983 1.363 . S
C978 C979 1.363 . S
C978 C983 1.379 . S
C978 N985 1.356 . S
C979 C978 1.363 . S
C979 C982 1.363 . S
N980 C982 1.356 1_554 S
N980 H992 0.984 . S
N980 H993 0.985 . S
N981 C983 1.356 . S
N981 H986 0.984 . S
N981 H987 0.985 . S
C982 C976 1.379 . S
C982 C979 1.363 . S
C982 N980 1.356 1_556 S
C983 C977 1.363 . S
C983 C978 1.379 . S
C983 N981 1.356 . S
N984 C976 1.356 . S
N984 H990 0.984 . S
N984 H991 0.984 . S
N985 C978 1.356 . S
N985 H988 0.984 . S
N985 H989 0.985 . S
H986 N981 0.984 . S
H987 N981 0.985 . S
H988 N985 0.984 . S
H989 N985 0.985 . S
H990 N984 0.984 . S
H991 N984 0.984 . S
H992 N980 0.984 . S
H993 N980 0.985 . S
C994 C995 1.363 . S
C994 C1000 1.379 . S
C994 N1002 1.356 1_554 S
C995 C994 1.363 . S
C995 C1001 1.363 . S
C996 C997 1.363 . S
C996 C1001 1.379 . S
C996 N1003 1.356 . S
C997 C996 1.363 . S
C997 C1000 1.363 . S
N998 C1000 1.356 . S
N998 H1010 0.984 . S
N998 H1011 0.985 . S
N999 C1001 1.356 . S
N999 H1004 0.984 . S
N999 H1005 0.985 . S
C1000 C994 1.379 . S
C1000 C997 1.363 . S
C1000 N998 1.356 . S
C1001 C995 1.363 . S
C1001 C996 1.379 . S
C1001 N999 1.356 . S
N1002 C994 1.356 1_556 S
N1002 H1008 0.984 . S
N1002 H1009 0.984 . S
N1003 C996 1.356 . S
N1003 H1006 0.984 . S
N1003 H1007 0.985 . S
H1004 N999 0.984 . S
H1005 N999 0.985 . S
H1006 N1003 0.984 . S
H1007 N1003 0.985 . S
H1008 N1002 0.984 . S
H1009 N1002 0.984 . S
H1010 N998 0.984 . S
H1011 N998 0.985 . S
C1012 C1013 1.363 . S
C1012 C1018 1.379 . S
C1012 N1020 1.356 1_556 S
C1013 C1012 1.363 . S
C1013 C1019 1.363 . S
C1014 C1015 1.363 . S
C1014 C1019 1.379 . S
C1014 N1021 1.356 . S
C1015 C1014 1.363 . S
C1015 C1018 1.363 . S
N1016 C1018 1.356 . S
N1016 H1028 0.984 . S
N1016 H1029 0.985 . S
N1017 C1019 1.356 . S
N1017 H1022 0.984 . S
N1017 H1023 0.985 . S
C1018 C1012 1.379 . S
C1018 C1015 1.363 . S
C1018 N1016 1.356 . S
C1019 C1013 1.363 . S
C1019 C1014 1.379 . S
C1019 N1017 1.356 . S
N1020 C1012 1.356 1_554 S
N1020 H1026 0.984 . S
N1020 H1027 0.984 . S
N1021 C1014 1.356 . S
N1021 H1024 0.984 . S
N1021 H1025 0.985 . S
H1022 N1017 0.984 . S
H1023 N1017 0.985 . S
H1024 N1021 0.984 . S
H1025 N1021 0.985 . S
H1026 N1020 0.984 . S
H1027 N1020 0.984 . S
H1028 N1016 0.984 . S
H1029 N1016 0.985 . S
C1030 C1031 1.363 . S
C1030 C1036 1.379 . S
C1030 N1038 1.356 . S
C1031 C1030 1.363 . S
C1031 C1037 1.363 1_554 S
C1032 C1033 1.363 . S
C1032 C1037 1.379 1_554 S
C1032 N1039 1.356 . S
C1033 C1032 1.363 . S
C1033 C1036 1.363 . S
N1034 C1036 1.356 . S
N1034 H1046 0.984 . S
N1034 H1047 0.985 . S
N1035 C1037 1.356 . S
N1035 H1040 0.984 . S
N1035 H1041 0.985 . S
C1036 C1030 1.379 . S
C1036 C1033 1.363 . S
C1036 N1034 1.356 . S
C1037 C1031 1.363 1_556 S
C1037 C1032 1.379 1_556 S
C1037 N1035 1.356 . S
N1038 C1030 1.356 . S
N1038 H1044 0.984 . S
N1038 H1045 0.984 . S
N1039 C1032 1.356 . S
N1039 H1042 0.984 . S
N1039 H1043 0.985 1_554 S
H1040 N1035 0.984 . S
H1041 N1035 0.985 . S
H1042 N1039 0.984 . S
H1043 N1039 0.985 1_556 S
H1044 N1038 0.984 . S
H1045 N1038 0.984 . S
H1046 N1034 0.984 . S
H1047 N1034 0.985 . S
C1048 C1049 1.363 . S
C1048 C1054 1.379 . S
C1048 N1056 1.356 . S
C1049 C1048 1.363 . S
C1049 C1055 1.363 . S
C1050 C1051 1.363 . S
C1050 C1055 1.379 . S
C1050 N1057 1.356 . S
C1051 C1050 1.363 . S
C1051 C1054 1.363 . S
N1052 C1054 1.356 . S
N1052 H1064 0.984 . S
N1052 H1065 0.985 . S
N1053 C1055 1.356 . S
N1053 H1058 0.984 . S
N1053 H1059 0.985 . S
C1054 C1048 1.379 . S
C1054 C1051 1.363 . S
C1054 N1052 1.356 . S
C1055 C1049 1.363 . S
C1055 C1050 1.379 . S
C1055 N1053 1.356 . S
N1056 C1048 1.356 . S
N1056 H1062 0.984 . S
N1056 H1063 0.984 . S
N1057 C1050 1.356 . S
N1057 H1060 0.984 . S
N1057 H1061 0.985 . S
H1058 N1053 0.984 . S
H1059 N1053 0.985 . S
H1060 N1057 0.984 . S
H1061 N1057 0.985 . S
H1062 N1056 0.984 . S
H1063 N1056 0.984 . S
H1064 N1052 0.984 . S
H1065 N1052 0.985 . S
C1066 C1067 1.363 . S
C1066 C1072 1.379 . S
C1066 N1074 1.356 . S
C1067 C1066 1.363 . S
C1067 C1073 1.363 . S
C1068 C1069 1.363 . S
C1068 C1073 1.379 . S
C1068 N1075 1.356 . S
C1069 C1068 1.363 . S
C1069 C1072 1.363 . S
N1070 C1072 1.356 . S
N1070 H1082 0.984 . S
N1070 H1083 0.985 . S
N1071 C1073 1.356 . S
N1071 H1076 0.984 . S
N1071 H1077 0.985 . S
C1072 C1066 1.379 . S
C1072 C1069 1.363 . S
C1072 N1070 1.356 . S
C1073 C1067 1.363 . S
C1073 C1068 1.379 . S
C1073 N1071 1.356 . S
N1074 C1066 1.356 . S
N1074 H1080 0.984 . S
N1074 H1081 0.984 . S
N1075 C1068 1.356 . S
N1075 H1078 0.984 . S
N1075 H1079 0.985 . S
H1076 N1071 0.984 . S
H1077 N1071 0.985 . S
H1078 N1075 0.984 . S
H1079 N1075 0.985 . S
H1080 N1074 0.984 . S
H1081 N1074 0.984 . S
H1082 N1070 0.984 . S
H1083 N1070 0.985 . S
C1084 C1085 1.363 . S
C1084 C1090 1.379 . S
C1084 N1092 1.356 . S
C1085 C1084 1.363 . S
C1085 C1091 1.363 . S
C1086 C1087 1.363 . S
C1086 C1091 1.379 . S
C1086 N1093 1.356 . S
C1087 C1086 1.363 . S
C1087 C1090 1.363 . S
N1088 C1090 1.356 . S
N1088 H1100 0.984 . S
N1088 H1101 0.985 . S
N1089 C1091 1.356 . S
N1089 H1094 0.984 . S
N1089 H1095 0.985 . S
C1090 C1084 1.379 . S
C1090 C1087 1.363 . S
C1090 N1088 1.356 . S
C1091 C1085 1.363 . S
C1091 C1086 1.379 . S
C1091 N1089 1.356 . S
N1092 C1084 1.356 . S
N1092 H1098 0.984 . S
N1092 H1099 0.984 . S
N1093 C1086 1.356 . S
N1093 H1096 0.984 . S
N1093 H1097 0.985 . S
H1094 N1089 0.984 . S
H1095 N1089 0.985 . S
H1096 N1093 0.984 . S
H1097 N1093 0.985 . S
H1098 N1092 0.984 . S
H1099 N1092 0.984 . S
H1100 N1088 0.984 . S
H1101 N1088 0.985 . S
C1102 C1103 1.363 . S
C1102 C1108 1.379 . S
C1102 N1110 1.356 . S
C1103 C1102 1.363 . S
C1103 C1109 1.363 . S
C1104 C1105 1.363 . S
C1104 C1109 1.379 . S
C1104 N1111 1.356 . S
C1105 C1104 1.363 . S
C1105 C1108 1.363 . S
N1106 C1108 1.356 . S
N1106 H1118 0.984 . S
N1106 H1119 0.985 . S
N1107 C1109 1.356 . S
N1107 H1112 0.984 . S
N1107 H1113 0.985 . S
C1108 C1102 1.379 . S
C1108 C1105 1.363 . S
C1108 N1106 1.356 . S
C1109 C1103 1.363 . S
C1109 C1104 1.379 . S
C1109 N1107 1.356 . S
N1110 C1102 1.356 . S
N1110 H1116 0.984 . S
N1110 H1117 0.984 . S
N1111 C1104 1.356 . S
N1111 H1114 0.984 . S
N1111 H1115 0.985 . S
H1112 N1107 0.984 . S
H1113 N1107 0.985 . S
H1114 N1111 0.984 . S
H1115 N1111 0.985 . S
H1116 N1110 0.984 . S
H1117 N1110 0.984 . S
H1118 N1106 0.984 . S
H1119 N1106 0.985 . S
C1120 C1121 1.363 . S
C1120 C1126 1.379 . S
C1120 N1128 1.356 . S
C1121 C1120 1.363 . S
C1121 C1127 1.363 . S
C1122 C1123 1.363 . S
C1122 C1127 1.379 . S
C1122 N1129 1.356 . S
C1123 C1122 1.363 . S
C1123 C1126 1.363 . S
N1124 C1126 1.356 . S
N1124 H1136 0.984 . S
N1124 H1137 0.985 . S
N1125 C1127 1.356 . S
N1125 H1130 0.984 . S
N1125 H1131 0.985 . S
C1126 C1120 1.379 . S
C1126 C1123 1.363 . S
C1126 N1124 1.356 . S
C1127 C1121 1.363 . S
C1127 C1122 1.379 . S
C1127 N1125 1.356 . S
N1128 C1120 1.356 . S
N1128 H1134 0.984 . S
N1128 H1135 0.984 . S
N1129 C1122 1.356 . S
N1129 H1132 0.984 . S
N1129 H1133 0.985 . S
H1130 N1125 0.984 . S
H1131 N1125 0.985 . S
H1132 N1129 0.984 . S
H1133 N1129 0.985 . S
H1134 N1128 0.984 . S
H1135 N1128 0.984 . S
H1136 N1124 0.984 . S
H1137 N1124 0.985 . S
C1138 C1139 1.363 . S
C1138 C1144 1.379 . S
C1138 N1146 1.356 . S
C1139 C1138 1.363 . S
C1139 C1145 1.363 . S
C1140 C1141 1.363 . S
C1140 C1145 1.379 . S
C1140 N1147 1.356 . S
C1141 C1140 1.363 . S
C1141 C1144 1.363 . S
N1142 C1144 1.356 . S
N1142 H1154 0.984 . S
N1142 H1155 0.985 . S
N1143 C1145 1.356 . S
N1143 H1148 0.984 . S
N1143 H1149 0.985 . S
C1144 C1138 1.379 . S
C1144 C1141 1.363 . S
C1144 N1142 1.356 . S
C1145 C1139 1.363 . S
C1145 C1140 1.379 . S
C1145 N1143 1.356 . S
N1146 C1138 1.356 . S
N1146 H1152 0.984 . S
N1146 H1153 0.984 . S
N1147 C1140 1.356 . S
N1147 H1150 0.984 . S
N1147 H1151 0.985 . S
H1148 N1143 0.984 . S
H1149 N1143 0.985 . S
H1150 N1147 0.984 . S
H1151 N1147 0.985 . S
H1152 N1146 0.984 . S
H1153 N1146 0.984 . S
H1154 N1142 0.984 . S
H1155 N1142 0.985 . S
C1156 C1157 1.363 . S
C1156 C1162 1.379 . S
C1156 N1164 1.356 . S
C1157 C1156 1.363 . S
C1157 C1163 1.363 . S
C1158 C1159 1.363 . S
C1158 C1163 1.379 . S
C1158 N1165 1.356 . S
C1159 C1158 1.363 . S
C1159 C1162 1.363 . S
N1160 C1162 1.356 . S
N1160 H1172 0.984 . S
N1160 H1173 0.985 . S
N1161 C1163 1.356 . S
N1161 H1166 0.984 . S
N1161 H1167 0.985 . S
C1162 C1156 1.379 . S
C1162 C1159 1.363 . S
C1162 N1160 1.356 . S
C1163 C1157 1.363 . S
C1163 C1158 1.379 . S
C1163 N1161 1.356 . S
N1164 C1156 1.356 . S
N1164 H1170 0.984 . S
N1164 H1171 0.984 . S
N1165 C1158 1.356 . S
N1165 H1168 0.984 . S
N1165 H1169 0.985 . S
H1166 N1161 0.984 . S
H1167 N1161 0.985 . S
H1168 N1165 0.984 . S
H1169 N1165 0.985 . S
H1170 N1164 0.984 . S
H1171 N1164 0.984 . S
H1172 N1160 0.984 . S
H1173 N1160 0.985 . S
C1174 C1175 1.363 . S
C1174 C1180 1.379 . S
C1174 N1182 1.356 . S
C1175 C1174 1.363 . S
C1175 C1181 1.363 . S
C1176 C1177 1.363 . S
C1176 C1181 1.379 . S
C1176 N1183 1.356 . S
C1177 C1176 1.363 . S
C1177 C1180 1.363 . S
N1178 C1180 1.356 . S
N1178 H1190 0.984 . S
N1178 H1191 0.985 . S
N1179 C1181 1.356 . S
N1179 H1184 0.984 . S
N1179 H1185 0.985 . S
C1180 C1174 1.379 . S
C1180 C1177 1.363 . S
C1180 N1178 1.356 . S
C1181 C1175 1.363 . S
C1181 C1176 1.379 . S
C1181 N1179 1.356 . S
N1182 C1174 1.356 . S
N1182 H1188 0.984 . S
N1182 H1189 0.984 . S
N1183 C1176 1.356 . S
N1183 H1186 0.984 . S
N1183 H1187 0.985 . S
H1184 N1179 0.984 . S
H1185 N1179 0.985 . S
H1186 N1183 0.984 . S
H1187 N1183 0.985 . S
H1188 N1182 0.984 . S
H1189 N1182 0.984 . S
H1190 N1178 0.984 . S
H1191 N1178 0.985 . S
C1192 C1193 1.363 . S
C1192 C1198 1.379 . S
C1192 N1200 1.356 . S
C1193 C1192 1.363 . S
C1193 C1199 1.363 . S
C1194 C1195 1.363 . S
C1194 C1199 1.379 . S
C1194 N1201 1.356 . S
C1195 C1194 1.363 . S
C1195 C1198 1.363 . S
N1196 C1198 1.356 . S
N1196 H1208 0.984 . S
N1196 H1209 0.985 . S
N1197 C1199 1.356 . S
N1197 H1202 0.984 . S
N1197 H1203 0.985 . S
C1198 C1192 1.379 . S
C1198 C1195 1.363 . S
C1198 N1196 1.356 . S
C1199 C1193 1.363 . S
C1199 C1194 1.379 . S
C1199 N1197 1.356 . S
N1200 C1192 1.356 . S
N1200 H1206 0.984 . S
N1200 H1207 0.984 . S
N1201 C1194 1.356 . S
N1201 H1204 0.984 . S
N1201 H1205 0.985 . S
H1202 N1197 0.984 . S
H1203 N1197 0.985 . S
H1204 N1201 0.984 . S
H1205 N1201 0.985 . S
H1206 N1200 0.984 . S
H1207 N1200 0.984 . S
H1208 N1196 0.984 . S
H1209 N1196 0.985 . S
C1210 C1211 1.363 . S
C1210 C1216 1.379 . S
C1210 N1218 1.356 . S
C1211 C1210 1.363 . S
C1211 C1217 1.363 . S
C1212 C1213 1.363 . S
C1212 C1217 1.379 . S
C1212 N1219 1.356 . S
C1213 C1212 1.363 . S
C1213 C1216 1.363 . S
N1214 C1216 1.356 . S
N1214 H1226 0.984 . S
N1214 H1227 0.985 . S
N1215 C1217 1.356 . S
N1215 H1220 0.984 . S
N1215 H1221 0.985 . S
C1216 C1210 1.379 . S
C1216 C1213 1.363 . S
C1216 N1214 1.356 . S
C1217 C1211 1.363 . S
C1217 C1212 1.379 . S
C1217 N1215 1.356 . S
N1218 C1210 1.356 . S
N1218 H1224 0.984 . S
N1218 H1225 0.984 . S
N1219 C1212 1.356 . S
N1219 H1222 0.984 . S
N1219 H1223 0.985 . S
H1220 N1215 0.984 . S
H1221 N1215 0.985 . S
H1222 N1219 0.984 . S
H1223 N1219 0.985 . S
H1224 N1218 0.984 . S
H1225 N1218 0.984 . S
H1226 N1214 0.984 . S
H1227 N1214 0.985 . S
C1228 C1229 1.363 . S
C1228 C1234 1.379 . S
C1228 N1236 1.356 . S
C1229 C1228 1.363 . S
C1229 C1235 1.363 . S
C1230 C1231 1.363 . S
C1230 C1235 1.379 . S
C1230 N1237 1.356 . S
C1231 C1230 1.363 . S
C1231 C1234 1.363 . S
N1232 C1234 1.356 . S
N1232 H1244 0.984 . S
N1232 H1245 0.985 . S
N1233 C1235 1.356 . S
N1233 H1238 0.984 . S
N1233 H1239 0.985 . S
C1234 C1228 1.379 . S
C1234 C1231 1.363 . S
C1234 N1232 1.356 . S
C1235 C1229 1.363 . S
C1235 C1230 1.379 . S
C1235 N1233 1.356 . S
N1236 C1228 1.356 . S
N1236 H1242 0.984 . S
N1236 H1243 0.984 . S
N1237 C1230 1.356 . S
N1237 H1240 0.984 . S
N1237 H1241 0.985 . S
H1238 N1233 0.984 . S
H1239 N1233 0.985 . S
H1240 N1237 0.984 . S
H1241 N1237 0.985 . S
H1242 N1236 0.984 . S
H1243 N1236 0.984 . S
H1244 N1232 0.984 . S
H1245 N1232 0.985 . S
C1246 C1247 1.363 . S
C1246 C1252 1.379 . S
C1246 N1254 1.356 . S
C1247 C1246 1.363 . S
C1247 C1253 1.363 . S
C1248 C1249 1.363 . S
C1248 C1253 1.379 . S
C1248 N1255 1.356 . S
C1249 C1248 1.363 . S
C1249 C1252 1.363 . S
N1250 C1252 1.356 . S
N1250 H1262 0.984 . S
N1250 H1263 0.985 . S
N1251 C1253 1.356 . S
N1251 H1256 0.984 . S
N1251 H1257 0.985 . S
C1252 C1246 1.379 . S
C1252 C1249 1.363 . S
C1252 N1250 1.356 . S
C1253 C1247 1.363 . S
C1253 C1248 1.379 . S
C1253 N1251 1.356 . S
N1254 C1246 1.356 . S
N1254 H1260 0.984 . S
N1254 H1261 0.984 . S
N1255 C1248 1.356 . S
N1255 H1258 0.984 . S
N1255 H1259 0.985 . S
H1256 N1251 0.984 . S
H1257 N1251 0.985 . S
H1258 N1255 0.984 . S
H1259 N1255 0.985 . S
H1260 N1254 0.984 . S
H1261 N1254 0.984 . S
H1262 N1250 0.984 . S
H1263 N1250 0.985 . S
C1264 C1265 1.363 1_554 S
C1264 C1270 1.379 . S
C1264 N1272 1.356 1_554 S
C1265 C1264 1.363 1_556 S
C1265 C1271 1.363 1_556 S
C1266 C1267 1.363 . S
C1266 C1271 1.379 . S
C1266 N1273 1.356 . S
C1267 C1266 1.363 . S
C1267 C1270 1.363 . S
N1268 C1270 1.356 . S
N1268 H1280 0.984 . S
N1268 H1281 0.985 . S
N1269 C1271 1.356 1_556 S
N1269 H1274 0.984 . S
N1269 H1275 0.985 1_556 S
C1270 C1264 1.379 . S
C1270 C1267 1.363 . S
C1270 N1268 1.356 . S
C1271 C1265 1.363 1_554 S
C1271 C1266 1.379 . S
C1271 N1269 1.356 1_554 S
N1272 C1264 1.356 1_556 S
N1272 H1278 0.984 . S
N1272 H1279 0.984 . S
N1273 C1266 1.356 . S
N1273 H1276 0.984 . S
N1273 H1277 0.985 . S
H1274 N1269 0.984 . S
H1275 N1269 0.985 1_554 S
H1276 N1273 0.984 . S
H1277 N1273 0.985 . S
H1278 N1272 0.984 . S
H1279 N1272 0.984 . S
H1280 N1268 0.984 . S
H1281 N1268 0.985 . S
C1282 C1283 1.363 . S
C1282 C1288 1.379 . S
C1282 N1290 1.356 . S
C1283 C1282 1.363 . S
C1283 C1289 1.363 . S
C1284 C1285 1.363 1_556 S
C1284 C1289 1.379 . S
C1284 N1291 1.356 1_556 S
C1285 C1284 1.363 1_554 S
C1285 C1288 1.363 1_554 S
N1286 C1288 1.356 1_554 S
N1286 H1298 0.984 . S
N1286 H1299 0.985 . S
N1287 C1289 1.356 . S
N1287 H1292 0.984 . S
N1287 H1293 0.985 . S
C1288 C1282 1.379 . S
C1288 C1285 1.363 1_556 S
C1288 N1286 1.356 1_556 S
C1289 C1283 1.363 . S
C1289 C1284 1.379 . S
C1289 N1287 1.356 . S
N1290 C1282 1.356 . S
N1290 H1296 0.984 . S
N1290 H1297 0.984 . S
N1291 C1284 1.356 1_554 S
N1291 H1294 0.984 . S
N1291 H1295 0.985 1_554 S
H1292 N1287 0.984 . S
H1293 N1287 0.985 . S
H1294 N1291 0.984 . S
H1295 N1291 0.985 1_556 S
H1296 N1290 0.984 . S
H1297 N1290 0.984 . S
H1298 N1286 0.984 . S
H1299 N1286 0.985 . S
C1300 C1301 1.363 . S
C1300 C1306 1.379 . S
C1300 N1308 1.356 . S
C1301 C1300 1.363 . S
C1301 C1307 1.363 . S
C1302 C1303 1.363 1_554 S
C1302 C1307 1.379 . S
C1302 N1309 1.356 1_554 S
C1303 C1302 1.363 1_556 S
C1303 C1306 1.363 1_556 S
N1304 C1306 1.356 1_556 S
N1304 H1316 0.984 . S
N1304 H1317 0.985 . S
N1305 C1307 1.356 . S
N1305 H1310 0.984 . S
N1305 H1311 0.985 . S
C1306 C1300 1.379 . S
C1306 C1303 1.363 1_554 S
C1306 N1304 1.356 1_554 S
C1307 C1301 1.363 . S
C1307 C1302 1.379 . S
C1307 N1305 1.356 . S
N1308 C1300 1.356 . S
N1308 H1314 0.984 . S
N1308 H1315 0.984 . S
N1309 C1302 1.356 1_556 S
N1309 H1312 0.984 . S
N1309 H1313 0.985 1_556 S
H1310 N1305 0.984 . S
H1311 N1305 0.985 . S
H1312 N1309 0.984 . S
H1313 N1309 0.985 1_554 S
H1314 N1308 0.984 . S
H1315 N1308 0.984 . S
H1316 N1304 0.984 . S
H1317 N1304 0.985 . S
C1318 C1319 1.363 1_556 S
C1318 C1324 1.379 . S
C1318 N1326 1.356 1_556 S
C1319 C1318 1.363 1_554 S
C1319 C1325 1.363 1_554 S
C1320 C1321 1.363 . S
C1320 C1325 1.379 . S
C1320 N1327 1.356 . S
C1321 C1320 1.363 . S
C1321 C1324 1.363 . S
N1322 C1324 1.356 . S
N1322 H1334 0.984 . S
N1322 H1335 0.985 . S
N1323 C1325 1.356 1_554 S
N1323 H1328 0.984 . S
N1323 H1329 0.985 . S
C1324 C1318 1.379 . S
C1324 C1321 1.363 . S
C1324 N1322 1.356 . S
C1325 C1319 1.363 1_556 S
C1325 C1320 1.379 . S
C1325 N1323 1.356 1_556 S
N1326 C1318 1.356 1_554 S
N1326 H1332 0.984 1_554 S
N1326 H1333 0.984 . S
N1327 C1320 1.356 . S
N1327 H1330 0.984 . S
N1327 H1331 0.985 . S
H1328 N1323 0.984 . S
H1329 N1323 0.985 . S
H1330 N1327 0.984 . S
H1331 N1327 0.985 . S
H1332 N1326 0.984 1_556 S
H1333 N1326 0.984 . S
H1334 N1322 0.984 . S
H1335 N1322 0.985 . S
C1336 C1337 1.363 . S
C1336 C1342 1.379 . S
C1336 N1344 1.356 . S
C1337 C1336 1.363 . S
C1337 C1343 1.363 . S
C1338 C1339 1.363 1_554 S
C1338 C1343 1.379 . S
C1338 N1345 1.356 1_554 S
C1339 C1338 1.363 1_556 S
C1339 C1342 1.363 1_556 S
N1340 C1342 1.356 1_556 S
N1340 H1352 0.984 1_556 S
N1340 H1353 0.985 . S
N1341 C1343 1.356 . S
N1341 H1346 0.984 . S
N1341 H1347 0.985 . S
C1342 C1336 1.379 . S
C1342 C1339 1.363 1_554 S
C1342 N1340 1.356 1_554 S
C1343 C1337 1.363 . S
C1343 C1338 1.379 . S
C1343 N1341 1.356 . S
N1344 C1336 1.356 . S
N1344 H1350 0.984 . S
N1344 H1351 0.984 . S
N1345 C1338 1.356 1_556 S
N1345 H1348 0.984 . S
N1345 H1349 0.985 . S
H1346 N1341 0.984 . S
H1347 N1341 0.985 . S
H1348 N1345 0.984 . S
H1349 N1345 0.985 . S
H1350 N1344 0.984 . S
H1351 N1344 0.984 . S
H1352 N1340 0.984 1_554 S
H1353 N1340 0.985 . S
C1354 C1355 1.363 1_556 S
C1354 C1360 1.379 . S
C1354 N1362 1.356 1_556 S
C1355 C1354 1.363 1_554 S
C1355 C1361 1.363 1_554 S
C1356 C1357 1.363 . S
C1356 C1361 1.379 . S
C1356 N1363 1.356 . S
C1357 C1356 1.363 . S
C1357 C1360 1.363 . S
N1358 C1360 1.356 . S
N1358 H1370 0.984 . S
N1358 H1371 0.985 . S
N1359 C1361 1.356 1_554 S
N1359 H1364 0.984 . S
N1359 H1365 0.985 1_554 S
C1360 C1354 1.379 . S
C1360 C1357 1.363 . S
C1360 N1358 1.356 . S
C1361 C1355 1.363 1_556 S
C1361 C1356 1.379 . S
C1361 N1359 1.356 1_556 S
N1362 C1354 1.356 1_554 S
N1362 H1368 0.984 . S
N1362 H1369 0.984 . S
N1363 C1356 1.356 . S
N1363 H1366 0.984 . S
N1363 H1367 0.985 . S
H1364 N1359 0.984 . S
H1365 N1359 0.985 1_556 S
H1366 N1363 0.984 . S
H1367 N1363 0.985 . S
H1368 N1362 0.984 . S
H1369 N1362 0.984 . S
H1370 N1358 0.984 . S
H1371 N1358 0.985 . S
C1372 C1373 1.363 1_554 S
C1372 C1378 1.379 . S
C1372 N1380 1.356 1_554 S
C1373 C1372 1.363 1_556 S
C1373 C1379 1.363 1_556 S
C1374 C1375 1.363 . S
C1374 C1379 1.379 . S
C1374 N1381 1.356 . S
C1375 C1374 1.363 . S
C1375 C1378 1.363 . S
N1376 C1378 1.356 . S
N1376 H1388 0.984 . S
N1376 H1389 0.985 . S
N1377 C1379 1.356 1_556 S
N1377 H1382 0.984 . S
N1377 H1383 0.985 . S
C1378 C1372 1.379 . S
C1378 C1375 1.363 . S
C1378 N1376 1.356 . S
C1379 C1373 1.363 1_554 S
C1379 C1374 1.379 . S
C1379 N1377 1.356 1_554 S
N1380 C1372 1.356 1_556 S
N1380 H1386 0.984 1_556 S
N1380 H1387 0.984 . S
N1381 C1374 1.356 . S
N1381 H1384 0.984 . S
N1381 H1385 0.985 . S
H1382 N1377 0.984 . S
H1383 N1377 0.985 . S
H1384 N1381 0.984 . S
H1385 N1381 0.985 . S
H1386 N1380 0.984 1_554 S
H1387 N1380 0.984 . S
H1388 N1376 0.984 . S
H1389 N1376 0.985 . S
C1390 C1391 1.363 . S
C1390 C1396 1.379 . S
C1390 N1398 1.356 . S
C1391 C1390 1.363 . S
C1391 C1397 1.363 . S
C1392 C1393 1.363 1_556 S
C1392 C1397 1.379 . S
C1392 N1399 1.356 1_556 S
C1393 C1392 1.363 1_554 S
C1393 C1396 1.363 1_554 S
N1394 C1396 1.356 1_554 S
N1394 H1406 0.984 1_554 S
N1394 H1407 0.985 . S
N1395 C1397 1.356 . S
N1395 H1400 0.984 . S
N1395 H1401 0.985 . S
C1396 C1390 1.379 . S
C1396 C1393 1.363 1_556 S
C1396 N1394 1.356 1_556 S
C1397 C1391 1.363 . S
C1397 C1392 1.379 . S
C1397 N1395 1.356 . S
N1398 C1390 1.356 . S
N1398 H1404 0.984 . S
N1398 H1405 0.984 . S
N1399 C1392 1.356 1_554 S
N1399 H1402 0.984 . S
N1399 H1403 0.985 . S
H1400 N1395 0.984 . S
H1401 N1395 0.985 . S
H1402 N1399 0.984 . S
H1403 N1399 0.985 . S
H1404 N1398 0.984 . S
H1405 N1398 0.984 . S
H1406 N1394 0.984 1_556 S
H1407 N1394 0.985 . S
C545 C382 1.698 . S
C547 C13 1.683 . S
C563 C289 1.698 . S
C565 C38 1.683 . S
C581 C81 1.683 . S
C583 C314 1.698 . S
C599 C106 1.683 . S
C601 C357 1.698 . S
C617 C149 1.683 . S
C619 C178 1.698 . S
C635 C221 1.698 . S
C637 C174 1.683 . S
C653 C217 1.683 . S
C655 C246 1.698 . S
C671 C153 1.698 . S
C673 C242 1.683 . S
C689 C110 1.698 . S
C691 C285 1.683 . S
C707 C310 1.683 . S
C709 C17 1.698 . S
C725 C42 1.698 . S
C727 C353 1.683 . S
C743 C85 1.698 . S
C745 C378 1.683 . S
C761 C421 1.683 . S
C763 C450 1.698 . S
C779 C493 1.698 . S
C781 C446 1.683 . S
C797 C518 1.698 . S
C799 C489 1.683 . S
C815 C514 1.683 . S
C817 C425 1.698 . S
C833 C4 1.281 . S
C835 C140 1.281 . S
C851 C183 1.281 . S
C853 C47 1.281 . S
C869 C72 1.281 . S
C871 C208 1.281 . S
C887 C115 1.281 . S
C889 C251 1.281 . S
C905 C276 1.281 . S
C907 C412 1.281 . S
C923 C455 1.281 . S
C925 C319 1.281 . S
C941 C344 1.281 . S
C943 C480 1.281 . S
C959 C387 1.281 . S
C961 C523 1.281 . S
C977 C484 2.229 . S
C979 C8 2.229 1_556 S
C995 C51 2.229 1_554 S
C997 C527 2.229 . S
C1013 C76 2.229 1_556 S
C1015 C416 2.229 . S
C1031 C119 2.229 1_554 S
C1033 C459 2.229 . S
C1049 C144 2.229 . S
C1051 C348 2.229 . S
C1067 C187 2.229 . S
C1069 C391 2.229 . S
C1085 C212 2.229 . S
C1087 C280 2.229 . S
C1103 C323 2.229 . S
C1105 C255 2.229 . S
C1121 C29 1.023 . S
C1123 C0 1.023 . S
C1139 C34 1.023 . S
C1141 C63 1.023 . S
C1157 C97 1.023 . S
C1159 C68 1.023 . S
C1175 C131 1.023 . S
C1177 C102 1.023 . S
C1193 C136 1.023 . S
C1195 C165 1.023 . S
C1211 C170 1.023 . S
C1213 C199 1.023 . S
C1229 C233 1.023 . S
C1231 C204 1.023 . S
C1247 C267 1.023 . S
C1249 C238 1.023 . S
C1265 C301 1.023 . S
C1267 C272 1.023 . S
C1283 C335 1.023 . S
C1285 C306 1.023 . S
C1301 C340 1.023 . S
C1303 C369 1.023 . S
C1319 C374 1.023 . S
C1321 C403 1.023 . S
C1337 C437 1.023 . S
C1339 C408 1.023 . S
C1355 C471 1.023 . S
C1357 C442 1.023 . S
C1373 C476 1.023 . S
C1375 C505 1.023 . S
C1391 C510 1.023 . S
C1393 C539 1.023 . S
