# Generated by pormake.
# Topology zfy, (5)-cn, num edge types: 1
# Building blocks:
#     Node 0, Type 0, BuildingBlock: XOMCOT_clean_sbu_1, # of connection points: 5
#     Node 1, Type 0, BuildingBlock: XOMCOT_clean_sbu_1, # of connection points: 5
#     Node 2, Type 0, BuildingBlock: XOMCOT_clean_sbu_1, # of connection points: 5
#     Node 3, Type 0, BuildingBlock: XOMCOT_clean_sbu_1, # of connection points: 5
#     Node 4, Type 0, BuildingBlock: XOMCOT_clean_sbu_1, # of connection points: 5
#     Node 5, Type 0, BuildingBlock: XOMCOT_clean_sbu_1, # of connection points: 5
#     Node 6, Type 0, BuildingBlock: XOMCOT_clean_sbu_1, # of connection points: 5
#     Node 7, Type 0, BuildingBlock: XOMCOT_clean_sbu_1, # of connection points: 5
#     Node 8, Type 0, BuildingBlock: XOMCOT_clean_sbu_1, # of connection points: 5
#     Node 9, Type 0, BuildingBlock: XOMCOT_clean_sbu_1, # of connection points: 5
#     Node 10, Type 0, BuildingBlock: XOMCOT_clean_sbu_1, # of connection points: 5
#     Node 11, Type 0, BuildingBlock: XOMCOT_clean_sbu_1, # of connection points: 5
#     Node 12, Type 0, BuildingBlock: XOMCOT_clean_sbu_1, # of connection points: 5
#     Node 13, Type 0, BuildingBlock: XOMCOT_clean_sbu_1, # of connection points: 5
#     Node 14, Type 0, BuildingBlock: XOMCOT_clean_sbu_1, # of connection points: 5
#     Node 15, Type 0, BuildingBlock: XOMCOT_clean_sbu_1, # of connection points: 5
#     Edge 16, Type (0, 0), BuildingBlock: KIFKEQ_clean_linker_1, # of connection points: 2
#     Edge 17, Type (0, 0), BuildingBlock: KIFKEQ_clean_linker_1, # of connection points: 2
#     Edge 18, Type (0, 0), BuildingBlock: KIFKEQ_clean_linker_1, # of connection points: 2
#     Edge 19, Type (0, 0), BuildingBlock: KIFKEQ_clean_linker_1, # of connection points: 2
#     Edge 20, Type (0, 0), BuildingBlock: KIFKEQ_clean_linker_1, # of connection points: 2
#     Edge 21, Type (0, 0), BuildingBlock: KIFKEQ_clean_linker_1, # of connection points: 2
#     Edge 22, Type (0, 0), BuildingBlock: KIFKEQ_clean_linker_1, # of connection points: 2
#     Edge 23, Type (0, 0), BuildingBlock: KIFKEQ_clean_linker_1, # of connection points: 2
#     Edge 24, Type (0, 0), BuildingBlock: KIFKEQ_clean_linker_1, # of connection points: 2
#     Edge 25, Type (0, 0), BuildingBlock: KIFKEQ_clean_linker_1, # of connection points: 2
#     Edge 26, Type (0, 0), BuildingBlock: KIFKEQ_clean_linker_1, # of connection points: 2
#     Edge 27, Type (0, 0), BuildingBlock: KIFKEQ_clean_linker_1, # of connection points: 2
#     Edge 28, Type (0, 0), BuildingBlock: KIFKEQ_clean_linker_1, # of connection points: 2
#     Edge 29, Type (0, 0), BuildingBlock: KIFKEQ_clean_linker_1, # of connection points: 2
#     Edge 30, Type (0, 0), BuildingBlock: KIFKEQ_clean_linker_1, # of connection points: 2
#     Edge 31, Type (0, 0), BuildingBlock: KIFKEQ_clean_linker_1, # of connection points: 2
#     Edge 32, Type (0, 0), BuildingBlock: KIFKEQ_clean_linker_1, # of connection points: 2
#     Edge 33, Type (0, 0), BuildingBlock: KIFKEQ_clean_linker_1, # of connection points: 2
#     Edge 34, Type (0, 0), BuildingBlock: KIFKEQ_clean_linker_1, # of connection points: 2
#     Edge 35, Type (0, 0), BuildingBlock: KIFKEQ_clean_linker_1, # of connection points: 2
#     Edge 36, Type (0, 0), BuildingBlock: KIFKEQ_clean_linker_1, # of connection points: 2
#     Edge 37, Type (0, 0), BuildingBlock: KIFKEQ_clean_linker_1, # of connection points: 2
#     Edge 38, Type (0, 0), BuildingBlock: KIFKEQ_clean_linker_1, # of connection points: 2
#     Edge 39, Type (0, 0), BuildingBlock: KIFKEQ_clean_linker_1, # of connection points: 2
#     Edge 40, Type (0, 0), BuildingBlock: KIFKEQ_clean_linker_1, # of connection points: 2
#     Edge 41, Type (0, 0), BuildingBlock: KIFKEQ_clean_linker_1, # of connection points: 2
#     Edge 42, Type (0, 0), BuildingBlock: KIFKEQ_clean_linker_1, # of connection points: 2
#     Edge 43, Type (0, 0), BuildingBlock: KIFKEQ_clean_linker_1, # of connection points: 2
#     Edge 44, Type (0, 0), BuildingBlock: KIFKEQ_clean_linker_1, # of connection points: 2
#     Edge 45, Type (0, 0), BuildingBlock: KIFKEQ_clean_linker_1, # of connection points: 2
#     Edge 46, Type (0, 0), BuildingBlock: KIFKEQ_clean_linker_1, # of connection points: 2
#     Edge 47, Type (0, 0), BuildingBlock: KIFKEQ_clean_linker_1, # of connection points: 2
#     Edge 48, Type (0, 0), BuildingBlock: KIFKEQ_clean_linker_1, # of connection points: 2
#     Edge 49, Type (0, 0), BuildingBlock: KIFKEQ_clean_linker_1, # of connection points: 2
#     Edge 50, Type (0, 0), BuildingBlock: KIFKEQ_clean_linker_1, # of connection points: 2
#     Edge 51, Type (0, 0), BuildingBlock: KIFKEQ_clean_linker_1, # of connection points: 2
#     Edge 52, Type (0, 0), BuildingBlock: KIFKEQ_clean_linker_1, # of connection points: 2
#     Edge 53, Type (0, 0), BuildingBlock: KIFKEQ_clean_linker_1, # of connection points: 2
#     Edge 54, Type (0, 0), BuildingBlock: KIFKEQ_clean_linker_1, # of connection points: 2
#     Edge 55, Type (0, 0), BuildingBlock: KIFKEQ_clean_linker_1, # of connection points: 2
# Relax obj value: 0.139
# Max RMSD: 0.187
# Mean RMSD: 0.187
data_MOF--net-zfy--node1-XOMCOT_clean_sbu_1--edge1-KIFKEQ_clean_linker_1
_symmetry_space_group_name_H-M    P1
_symmetry_Int_Tables_number       1
_symmetry_cell_setting            triclinic
loop_
_symmetry_equiv_pos_as_xyz
'x, y, z'
_cell_length_a     51.106877
_cell_length_b     51.037127
_cell_length_c     31.54232
_cell_angle_alpha  90.676286
_cell_angle_beta   89.952763
_cell_angle_gamma 90.104416
loop_
_atom_site_label
_atom_site_type_symbol
_atom_site_fract_x
_atom_site_fract_y
_atom_site_fract_z
_atom_type_partial_charge
C0 C 0.2834 0.26477 0.05971 0.0
C1 C 0.2741 0.27381 0.09806 0.0
N2 N 0.28225 0.25752 0.12864 0.0
N3 N 0.29738 0.24278 0.06559 0.0
C4 C 0.29648 0.23884 0.10809 0.0
H5 H 0.27991 0.2735 1.02916 0.0
Co6 Co 0.31155 0.22411 1.01944 0.0
C7 C 0.33025 0.17347 0.05259 0.0
O8 O 0.32085 0.16231 1.01805 0.0
N9 N 0.32617 0.20607 0.97153 0.0
C10 C 0.33374 0.18907 0.90726 0.0
C11 C 0.31525 0.2001 0.93359 0.0
C12 C 0.35157 0.1988 0.96683 0.0
N13 N 0.35668 0.18823 0.92813 0.0
O14 O 0.34244 0.24605 1.02106 0.0
H15 H 0.2953 0.20382 0.92458 0.0
H16 H 0.36612 0.20159 0.99137 0.0
O17 O 0.32762 0.19828 0.05813 0.0
C18 C 0.34041 0.26223 0.99057 0.0
O19 O 0.31897 0.26165 0.96761 0.0
N20 N 0.27962 0.20541 1.01465 0.0
C21 C 0.23072 0.18415 0.99299 0.0
C22 C 0.24548 0.17373 1.02647 0.0
C23 C 0.26966 0.18512 0.0376 0.0
C24 C 0.26439 0.21718 0.98508 0.0
C25 C 0.24032 0.20666 0.97311 0.0
H26 H 0.28007 0.17756 0.06452 0.0
H27 H 0.27161 0.23443 0.96923 0.0
H28 H 0.30544 0.2223 0.12353 0.0
H29 H 0.26233 0.29118 0.10303 0.0
H30 H 0.33037 0.18197 0.87527 0.0
H31 H 0.23838 0.15705 0.04403 0.0
H32 H 0.22985 0.21568 0.9473 0.0
C33 C 0.52305 0.53654 0.30352 0.0
C34 C 0.51423 0.52692 0.34135 0.0
N35 N 0.52868 0.53753 0.37285 0.0
N36 N 0.54307 0.55325 0.31059 0.0
C37 C 0.54603 0.55361 0.35338 0.0
H38 H 0.51573 0.53111 0.2725 0.0
Co39 Co 0.56128 0.56786 0.26483 0.0
C40 C 0.61174 0.58711 0.29836 0.0
O41 O 0.62317 0.57785 0.26402 0.0
N42 N 0.5788 0.58268 0.21699 0.0
C43 C 0.59715 0.58841 0.15362 0.0
C44 C 0.58738 0.57042 0.18136 0.0
C45 C 0.58364 0.60847 0.20949 0.0
N46 N 0.59469 0.61247 0.17097 0.0
O47 O 0.53975 0.59867 0.26831 0.0
H48 H 0.58667 0.54974 0.17476 0.0
H49 H 0.57871 0.62404 0.23163 0.0
O50 O 0.58705 0.58411 0.30346 0.0
C51 C 0.51941 0.59534 0.24553 0.0
O52 O 0.51664 0.57305 0.22475 0.0
N53 N 0.58005 0.53599 0.25964 0.0
C54 C 0.60226 0.48699 0.24138 0.0
C55 C 0.61161 0.50256 0.27523 0.0
C56 C 0.59977 0.52673 0.28457 0.0
C57 C 0.56896 0.51985 0.22996 0.0
C58 C 0.58008 0.49568 0.21952 0.0
H59 H 0.6064 0.53763 0.312 0.0
H60 H 0.55198 0.52646 0.21265 0.0
H61 H 0.56111 0.56463 0.3698 0.0
H62 H 0.49842 0.51303 0.34535 0.0
H63 H 0.60567 0.5839 0.12298 0.0
H64 H 0.62778 0.49606 0.29458 0.0
H65 H 0.57178 0.4844 0.19354 0.0
C66 C 0.25878 0.78775 0.55928 0.0
C67 C 0.26794 0.77685 0.59602 0.0
N68 N 0.24935 0.77925 0.62613 0.0
N69 N 0.23456 0.79744 0.56594 0.0
C70 C 0.22897 0.79093 0.6065 0.0
H71 H 0.26967 0.78938 0.53008 0.0
Co72 Co 0.21505 0.81767 0.52712 0.0
C73 C 0.21025 0.85063 0.6084 0.0
O74 O 0.23309 0.84412 0.62419 0.0
N75 N 0.19561 0.83801 0.48882 0.0
C76 C 0.18106 0.87351 0.45608 0.0
C77 C 0.19783 0.86434 0.48625 0.0
C78 C 0.17668 0.8317 0.46026 0.0
N79 N 0.16773 0.85306 0.4398 0.0
O80 O 0.1851 0.79502 0.53496 0.0
H81 H 0.21042 0.87641 0.50584 0.0
H82 H 0.1695 0.81202 0.45468 0.0
O83 O 0.20289 0.8414 0.57243 0.0
C84 C 0.18946 0.77359 0.51487 0.0
O85 O 0.21214 0.77062 0.49577 0.0
N86 N 0.24524 0.83766 0.51444 0.0
C87 C 0.29106 0.8592 0.48039 0.0
C88 C 0.28018 0.8693 0.51812 0.0
C89 C 0.25716 0.85833 0.53459 0.0
C90 C 0.25521 0.82815 0.4773 0.0
C91 C 0.27796 0.8385 0.4598 0.0
H92 H 0.24891 0.86712 0.56258 0.0
H93 H 0.24535 0.8121 0.46122 0.0
H94 H 0.21073 0.79596 0.62198 0.0
H95 H 0.28746 0.76926 0.60076 0.0
H96 H 0.17814 0.89381 0.44772 0.0
H97 H 0.2894 0.88547 0.53493 0.0
H98 H 0.28496 0.8305 0.42995 0.0
C99 C 0.99634 0.50585 0.80993 0.0
C100 C 1.00737 0.51616 0.84616 0.0
N101 N 1.00278 0.49969 0.87843 0.0
N102 N 0.98436 0.483 0.81879 0.0
C103 C 0.98987 0.47915 0.86039 0.0
H104 H 0.99657 0.51498 0.77922 0.0
Co105 Co 0.96329 0.46388 0.77937 0.0
C106 C 0.93115 0.45699 0.86034 0.0
O107 O 0.93666 0.48031 0.87607 0.0
N108 N 0.94218 0.44468 0.74001 0.0
C109 C 0.90645 0.43015 0.70663 0.0
C110 C 0.91601 0.44764 0.73603 0.0
C111 C 0.94785 0.4245 0.71298 0.0
N112 N 0.92641 0.4155 0.69213 0.0
O113 O 0.98741 0.43457 0.78259 0.0
H114 H 0.90408 0.46084 0.75463 0.0
H115 H 0.96711 0.41608 0.70913 0.0
O116 O 0.94074 0.44974 0.82455 0.0
C117 C 1.00505 0.44011 0.75522 0.0
O118 O 1.00326 0.46273 0.73599 0.0
N119 N 0.94232 0.4941 0.77061 0.0
C120 C 0.92062 0.54112 0.74217 0.0
C121 C 0.9097 0.52802 0.77687 0.0
C122 C 0.92085 0.50444 0.79069 0.0
C123 C 0.95218 0.5061 0.7357 0.0
C124 C 0.94194 0.52959 0.72129 0.0
H125 H 0.91133 0.49435 0.81607 0.0
H126 H 0.9685 0.4974 0.71898 0.0
H127 H 0.98327 0.46222 0.8777 0.0
H128 H 0.01743 0.53478 0.84849 0.0
H129 H 0.88607 0.42742 0.69828 0.0
H130 H 0.89276 0.53591 0.79321 0.0
H131 H 0.95049 0.53845 0.69347 0.0
C132 C 0.75477 0.77465 1.00052 0.0
C133 C 0.76362 0.76563 0.96198 0.0
N134 N 0.74943 0.77686 0.93113 0.0
N135 N 0.73505 0.79168 0.99464 0.0
C136 C 0.73221 0.79273 0.95188 0.0
H137 H 0.7623 0.7691 1.03114 0.0
Co138 Co 0.71771 0.80736 0.04098 0.0
C139 C 0.69956 0.859 1.00999 0.0
O140 O 0.70756 0.86949 0.046 0.0
N141 N 0.69991 0.8219 0.08874 0.0
C142 C 0.6868 0.83009 0.1551 0.0
C143 C 0.7067 0.82047 0.1301 0.0
C144 C 0.67525 0.83175 0.08988 0.0
N145 N 0.66703 0.83727 0.12975 0.0
O146 O 0.68798 0.78476 0.03249 0.0
H147 H 0.7244 0.81197 0.14224 0.0
H148 H 0.66314 0.834 0.06204 0.0
O149 O 0.70256 0.83434 1.00339 0.0
C150 C 0.6918 0.76332 0.05198 0.0
O151 O 0.71453 0.75951 0.07024 0.0
N152 N 0.74838 0.82729 0.05248 0.0
C153 C 0.79523 0.85041 0.08065 0.0
C154 C 0.78216 0.8599 0.04469 0.0
C155 C 0.75907 0.8476 1.03042 0.0
C156 C 0.76218 0.81645 0.08471 0.0
C157 C 0.78507 0.82797 0.10001 0.0
H158 H 0.75016 0.85432 1.00154 0.0
H159 H 0.75535 0.79846 0.0987 0.0
H160 H 0.71761 0.80456 0.93636 0.0
H161 H 0.77966 0.7521 0.95719 0.0
H162 H 0.68683 0.83152 0.18936 0.0
H163 H 0.78987 0.8764 1.02737 0.0
H164 H 0.79438 0.81943 0.12736 0.0
C165 C 0.51682 0.48435 0.74806 0.0
C166 C 0.52525 0.49463 0.71052 0.0
N167 N 0.50641 0.49114 0.68108 0.0
N168 N 0.4928 0.47395 0.74296 0.0
C169 C 0.48683 0.47842 0.70171 0.0
H170 H 0.52758 0.48473 0.77751 0.0
Co171 Co 0.47517 0.45909 0.7891 0.0
C172 C 0.42581 0.43539 0.75607 0.0
O173 O 0.41394 0.44124 0.79189 0.0
N174 N 0.45873 0.44417 0.83746 0.0
C175 C 0.44419 0.43824 0.9032 0.0
C176 C 0.45392 0.45609 0.87507 0.0
C177 C 0.4524 0.41868 0.84429 0.0
N178 N 0.44298 0.41455 0.88393 0.0
O179 O 0.49765 0.42888 0.78579 0.0
H180 H 0.45788 0.47634 0.8827 0.0
H181 H 0.45449 0.40358 0.82021 0.0
O182 O 0.44969 0.44215 0.75025 0.0
C183 C 0.51613 0.43181 0.81261 0.0
O184 O 0.51628 0.45298 0.83673 0.0
N185 N 0.45542 0.49015 0.79474 0.0
C186 C 0.43174 0.53748 0.81818 0.0
C187 C 0.42024 0.52098 0.78742 0.0
C188 C 0.43265 0.49749 0.77557 0.0
C189 C 0.46806 0.50726 0.82114 0.0
C190 C 0.45645 0.53075 0.83384 0.0
H191 H 0.42374 0.4855 0.75125 0.0
H192 H 0.48688 0.50194 0.83411 0.0
H193 H 0.46835 0.47294 0.68744 0.0
H194 H 0.54409 0.50376 0.70553 0.0
H195 H 0.43899 0.44256 0.93576 0.0
H196 H 0.40151 0.52577 0.7735 0.0
H197 H 0.4666 0.54334 0.85632 0.0
C198 C 0.79097 0.26517 0.49909 0.0
C199 C 0.78148 0.27182 0.45996 0.0
N200 N 0.7809 0.25016 0.43495 0.0
N201 N 0.79667 0.23947 0.49919 0.0
C202 C 0.79031 0.23074 0.45975 0.0
H203 H 0.79367 0.27832 0.52586 0.0
Co204 Co 0.81 0.22295 0.54698 0.0
C205 C 0.82907 0.17091 0.51718 0.0
O206 O 0.82026 0.16057 0.5524 0.0
N207 N 0.82388 0.2071 0.59644 0.0
C208 C 0.83115 0.19491 0.66297 0.0
C209 C 0.81297 0.20459 0.63522 0.0
C210 C 0.84898 0.1993 0.60202 0.0
N211 N 0.85392 0.19152 0.64212 0.0
O212 O 0.84149 0.24401 0.54344 0.0
H213 H 0.79344 0.21042 0.64401 0.0
H214 H 0.86336 0.1995 0.57685 0.0
O215 O 0.82587 0.19543 0.51064 0.0
C216 C 0.84177 0.26131 0.57306 0.0
O217 O 0.82173 0.26268 0.59909 0.0
N218 N 0.77788 0.20489 0.55306 0.0
C219 C 0.73187 0.18209 0.58272 0.0
C220 C 0.74565 0.17052 0.54885 0.0
C221 C 0.76856 0.18258 0.53382 0.0
C222 C 0.76254 0.21811 0.58136 0.0
C223 C 0.73984 0.20681 0.59746 0.0
H224 H 0.7789 0.17354 0.50772 0.0
H225 H 0.76913 0.23679 0.59399 0.0
H226 H 0.7923 0.21051 0.4497 0.0
H227 H 0.77589 0.29136 0.45075 0.0
H228 H 0.82792 0.19154 0.69636 0.0
H229 H 0.73954 0.15181 0.53562 0.0
H230 H 0.72924 0.21679 0.62263 0.0
C231 C 0.03482 0.53119 0.25779 0.0
C232 C 0.02329 0.52152 0.2214 0.0
N233 N 0.02554 0.53958 0.19076 0.0
N234 N 0.04476 0.55519 0.25034 0.0
C235 C 0.03773 0.5602 0.20981 0.0
H236 H 0.03706 0.52067 0.2871 0.0
Co237 Co 0.06676 0.57473 0.28719 0.0
C238 C 0.09834 0.57799 0.2039 0.0
O239 O 0.08969 0.55631 0.18591 0.0
N240 N 0.08937 0.59454 0.32343 0.0
C241 C 0.12747 0.60897 0.34881 0.0
C242 C 0.11546 0.59031 0.32423 0.0
C243 C 0.08613 0.61638 0.34811 0.0
N244 N 0.10917 0.62563 0.3636 0.0
O245 O 0.04483 0.60503 0.27926 0.0
H246 H 0.12557 0.57524 0.30638 0.0
H247 H 0.06763 0.62618 0.35289 0.0
O248 O 0.09009 0.585 0.24062 0.0
C249 C 0.02763 0.60395 0.30865 0.0
O250 O 0.02876 0.58444 0.33539 0.0
N251 N 0.08577 0.54399 0.29999 0.0
C252 C 0.10601 0.49767 0.33367 0.0
C253 C 0.11347 0.50606 0.29312 0.0
C254 C 0.10308 0.52931 0.27675 0.0
C255 C 0.07874 0.53629 0.3396 0.0
C256 C 0.08861 0.5134 0.35704 0.0
H257 H 0.10926 0.53523 0.24585 0.0
H258 H 0.0651 0.54805 0.35779 0.0
H259 H 0.04289 0.57812 0.19381 0.0
H260 H 0.01551 0.50193 0.2172 0.0
H261 H 0.14831 0.61054 0.35444 0.0
H262 H 0.12691 0.49461 0.27393 0.0
H263 H 0.08272 0.50825 0.38886 0.0
C264 C 0.80202 0.76559 0.55447 0.0
C265 C 0.79332 0.7748 0.59299 0.0
N266 N 0.7949 0.75533 0.62135 0.0
N267 N 0.80919 0.74032 0.55791 0.0
C268 C 0.80446 0.73447 0.59913 0.0
H269 H 0.80297 0.77667 0.52552 0.0
Co270 Co 0.8229 0.72158 0.51112 0.0
C271 C 0.85296 0.67569 0.54687 0.0
O272 O 0.85521 0.66418 0.50967 0.0
N273 N 0.83684 0.70408 0.46233 0.0
C274 C 0.84085 0.68579 0.39816 0.0
C275 C 0.82349 0.69457 0.42857 0.0
C276 C 0.86233 0.70176 0.45068 0.0
N277 N 0.86541 0.6902 0.41213 0.0
O278 O 0.85277 0.7447 0.51115 0.0
H279 H 0.80243 0.69453 0.42557 0.0
H280 H 0.87837 0.70783 0.4709 0.0
O281 O 0.84044 0.69733 0.55089 0.0
C282 C 0.85082 0.7606 0.48037 0.0
O283 O 0.83 0.75911 0.456 0.0
N284 N 0.79216 0.70098 0.50845 0.0
C285 C 0.74559 0.67609 0.48307 0.0
C286 C 0.76729 0.6615 0.49685 0.0
C287 C 0.79027 0.67431 0.50985 0.0
C288 C 0.77093 0.71547 0.49732 0.0
C289 C 0.74742 0.70354 0.48551 0.0
H290 H 0.80684 0.66252 0.51804 0.0
H291 H 0.7726 0.73653 0.49538 0.0
H292 H 0.80832 0.7155 0.6127 0.0
H293 H 0.78605 0.79435 0.59939 0.0
H294 H 0.83563 0.67728 0.36775 0.0
H295 H 0.76728 0.64031 0.49536 0.0
H296 H 0.73119 0.71594 0.47678 0.0
C297 C 1.01458 0.03745 0.80742 0.0
C298 C 1.00558 0.02806 0.84532 0.0
N299 N 0.02034 0.03827 0.87688 0.0
N300 N 0.03505 0.05352 0.81453 0.0
C301 C 0.03821 0.05366 0.85718 0.0
H302 H 1.00682 0.0327 0.77638 0.0
Co303 Co 0.0525 0.06961 0.76986 0.0
C304 C 0.09878 0.09784 0.80578 0.0
O305 O 0.11178 0.09325 0.77056 0.0
N306 N 0.06911 0.08585 0.72289 0.0
C307 C 0.08807 0.09391 0.66077 0.0
C308 C 0.07932 0.07472 0.68749 0.0
C309 C 0.07145 0.11196 0.71618 0.0
N310 N 0.08315 0.11744 0.67878 0.0
O311 O 0.02727 0.09751 0.77099 0.0
H312 H 0.08052 0.05401 0.68082 0.0
H313 H 0.06478 0.12666 0.73866 0.0
O314 O 0.07549 0.08887 0.81035 0.0
C315 C 1.01139 0.09381 0.74028 0.0
O316 O 1.01432 0.07272 0.71642 0.0
N317 N 0.07491 0.04055 0.76601 0.0
C318 C 0.10322 0.99599 0.74274 0.0
C319 C 0.11256 1.01301 0.77466 0.0
C320 C 0.09785 0.03515 0.78636 0.0
C321 C 0.06441 0.02272 0.73841 0.0
C322 C 0.07832 1.00054 0.72589 0.0
H323 H 0.10518 0.04779 0.81122 0.0
H324 H 0.04564 0.02663 0.72404 0.0
H325 H 0.05314 0.06494 0.87343 0.0
H326 H 0.98961 1.01433 0.84902 0.0
H327 H 0.09788 0.0906 0.63078 0.0
H328 H 0.1314 1.00976 0.78938 0.0
H329 H 0.06991 0.98743 0.70231 0.0
C330 C 0.75324 0.27653 0.0601 0.0
C331 C 0.76166 0.26403 0.09591 0.0
N332 N 0.74175 0.26306 0.12396 0.0
N333 N 0.72815 0.28401 0.06527 0.0
C334 C 0.72138 0.27448 0.10372 0.0
H335 H 0.76518 0.28079 0.03278 0.0
Co336 Co 0.70877 0.3051 1.02751 0.0
C337 C 0.70005 0.3337 0.11207 0.0
O338 O 0.72242 0.32645 0.12868 0.0
N339 N 0.68936 0.3262 0.9901 0.0
C340 C 0.67371 0.36232 0.96048 0.0
C341 C 0.68997 0.3527 0.99102 0.0
C342 C 0.67188 0.32023 0.95903 0.0
N343 N 0.66233 0.34195 0.94046 0.0
O344 O 0.6801 0.28035 1.02971 0.0
H345 H 0.70105 0.36451 1.01325 0.0
H346 H 0.66608 0.30052 0.95024 0.0
O347 O 0.69392 0.32625 0.07444 0.0
C348 C 0.68583 0.26256 1.00238 0.0
O349 O 0.70854 0.26434 0.98302 0.0
N350 N 0.73813 0.3274 1.01984 0.0
C351 C 0.78252 0.35454 0.99179 0.0
C352 C 0.76992 0.36178 1.02978 0.0
C353 C 0.7477 0.34799 0.04328 0.0
C354 C 0.74994 0.32048 0.98261 0.0
C355 C 0.77211 0.33359 0.96814 0.0
H356 H 0.73808 0.35469 0.07159 0.0
H357 H 0.74196 0.30448 0.96388 0.0
H358 H 0.70219 0.27731 0.11749 0.0
H359 H 0.78152 0.25767 0.10155 0.0
H360 H 0.66976 0.38277 0.95436 0.0
H361 H 0.77715 0.37795 0.04898 0.0
H362 H 0.7807 0.32762 0.93816 0.0
C363 C 0.51413 0.99209 0.30232 0.0
C364 C 0.52281 1.00098 0.34109 0.0
N365 N 0.50388 0.99699 0.3702 0.0
N366 N 0.48983 0.98226 0.30633 0.0
C367 C 0.484 0.98552 0.34809 0.0
H368 H 0.52495 0.99264 0.27287 0.0
Co369 Co 0.47179 0.96833 0.25938 0.0
C370 C 0.42457 0.94053 0.29172 0.0
O371 O 0.41202 0.94573 0.25651 0.0
N372 N 0.4545 0.95412 0.21039 0.0
C373 C 0.43447 0.94949 0.14804 0.0
C374 C 0.44384 0.96711 0.17759 0.0
C375 C 0.45165 0.92843 0.19926 0.0
N376 N 0.43936 0.92502 0.1615 0.0
O377 O 0.4957 0.93906 0.25769 0.0
H378 H 0.44274 0.98809 0.17471 0.0
H379 H 0.45844 0.91253 0.21875 0.0
O380 O 0.44787 0.94917 0.29761 0.0
C381 C 0.51141 0.94119 0.2264 0.0
O382 O 0.50943 0.96177 0.20196 0.0
N383 N 0.45073 0.99869 0.25848 0.0
C384 C 0.42379 0.04454 0.23791 0.0
C385 C 0.41299 0.02637 0.26626 0.0
C386 C 0.42698 1.00371 0.27674 0.0
C387 C 0.46255 0.01733 0.23448 0.0
C388 C 0.44939 0.04019 0.22339 0.0
H389 H 0.41834 0.99032 0.29884 0.0
H390 H 0.48175 1.0135 0.22135 0.0
H391 H 0.46547 0.97984 0.36181 0.0
H392 H 0.54192 1.0093 0.34725 0.0
H393 H 0.42436 0.95454 0.11917 0.0
H394 H 0.39369 0.02939 0.27962 0.0
H395 H 0.45871 0.05351 0.20156 0.0
C396 C 0.23268 0.26912 0.50811 0.0
C397 C 0.24194 0.25998 0.46991 0.0
N398 N 0.23872 0.27868 0.44045 0.0
N399 N 0.22326 0.2935 0.50352 0.0
C400 C 0.22726 0.29893 0.46194 0.0
H401 H 0.23284 0.25854 0.53758 0.0
Co402 Co 0.20905 0.31214 0.54986 0.0
C403 C 0.18648 0.36123 0.51717 0.0
O404 O 0.1942 0.37323 0.55205 0.0
N405 N 0.19432 0.33006 0.59805 0.0
C406 C 0.18745 0.34901 0.66114 0.0
C407 C 0.20604 0.33914 0.63371 0.0
C408 C 0.16845 0.33444 0.60519 0.0
N409 N 0.16367 0.34604 0.64329 0.0
O410 O 0.17896 0.28923 0.54939 0.0
H411 H 0.22673 0.33863 0.64015 0.0
H412 H 0.15338 0.32896 0.58271 0.0
O413 O 0.19184 0.33695 0.51107 0.0
C414 C 0.18233 0.27334 0.57991 0.0
O415 O 0.20411 0.27527 0.6019 0.0
N416 N 0.2402 0.3318 0.55342 0.0
C417 C 0.28911 0.35359 0.57306 0.0
C418 C 0.27299 0.36488 0.54205 0.0
C419 C 0.24871 0.35334 0.53201 0.0
C420 C 0.25646 0.31959 0.58099 0.0
C421 C 0.28062 0.3303 0.59185 0.0
H422 H 0.23712 0.36173 0.5071 0.0
H423 H 0.25002 0.30183 0.5962 0.0
H424 H 0.2221 0.31746 0.44796 0.0
H425 H 0.25014 0.24071 0.46464 0.0
H426 H 0.19136 0.358 0.69172 0.0
H427 H 0.27909 0.38236 0.52559 0.0
H428 H 0.29205 0.32075 0.61606 0.0
C429 C 1.01007 1.00099 0.25706 0.0
C430 C 0.01735 1.01096 0.21868 0.0
N431 N 1.00174 1.0006 0.18837 0.0
N432 N 0.99001 0.98417 0.25158 0.0
C433 C 0.98529 0.98426 0.20927 0.0
H434 H 0.01881 1.00587 0.28732 0.0
Co435 Co 0.97514 0.96747 0.29818 0.0
C436 C 0.92655 0.94067 0.26778 0.0
O437 O 0.91513 0.94598 0.3042 0.0
N438 N 0.9616 0.95081 0.34688 0.0
C439 C 0.95031 0.94203 0.41339 0.0
C440 C 0.95813 0.96124 0.38601 0.0
C441 C 0.95664 0.92491 0.35194 0.0
N442 N 0.94915 0.91908 0.39195 0.0
O443 O 0.99977 0.93912 0.29227 0.0
H444 H 0.96177 0.98132 0.39509 0.0
H445 H 0.95818 0.91074 0.32631 0.0
O446 O 0.94991 0.94876 0.26073 0.0
C447 C 0.01979 0.94357 0.31539 0.0
O448 O 0.02078 0.96561 0.33729 0.0
N449 N 0.95292 0.99675 0.30622 0.0
C450 C 0.92501 0.04146 0.33133 0.0
C451 C 0.91518 0.02449 0.29971 0.0
C452 C 0.92977 1.00254 0.28679 0.0
C453 C 0.96379 1.01438 0.33383 0.0
C454 C 0.95009 0.03658 0.34732 0.0
H455 H 0.92228 0.99052 0.26128 0.0
H456 H 0.98292 1.01052 0.34697 0.0
H457 H 0.96991 0.97294 0.19424 0.0
H458 H 0.03324 0.0246 0.21365 0.0
H459 H 0.94634 0.94488 0.44681 0.0
H460 H 0.89636 0.02812 0.28515 0.0
H461 H 0.9587 0.04917 0.37143 0.0
C462 C 0.28125 0.75019 1.0055 0.0
C463 C 0.27021 0.76105 0.97013 0.0
N464 N 0.28708 0.75847 0.93746 0.0
N465 N 0.30498 0.74037 0.99559 0.0
C466 C 0.30846 0.7469 0.95442 0.0
H467 H 0.27211 0.74911 0.0363 0.0
Co468 Co 0.32638 0.72069 0.03254 0.0
C469 C 0.33196 0.68898 0.9499 0.0
O470 O 0.30812 0.69368 0.93639 0.0
N471 N 0.34762 0.70117 0.06909 0.0
C472 C 0.36658 0.66653 0.09811 0.0
C473 C 0.34909 0.67473 0.06825 0.0
C474 C 0.36492 0.70865 0.09955 0.0
N475 N 0.37651 0.6878 0.11768 0.0
O476 O 0.35451 0.74559 1.02511 0.0
H477 H 0.33861 0.66202 0.04654 0.0
H478 H 0.36909 0.72883 0.10803 0.0
O479 O 0.33972 0.69863 0.98542 0.0
C480 C 0.34961 0.76654 0.04624 0.0
O481 O 0.32727 0.76832 0.06667 0.0
N482 N 0.29789 0.69814 0.04487 0.0
C483 C 0.25395 0.67197 0.07685 0.0
C484 C 0.26704 0.66254 0.0406 0.0
C485 C 0.2891 0.67575 1.02531 0.0
C486 C 0.28597 0.70694 0.08097 0.0
C487 C 0.26397 0.69437 0.09731 0.0
H488 H 0.29924 0.66717 0.99885 0.0
H489 H 0.29359 0.72418 0.09704 0.0
H490 H 0.32585 0.74186 0.9366 0.0
H491 H 0.2509 0.76961 0.96868 0.0
H492 H 0.37225 0.64649 0.10421 0.0
H493 H 0.26027 0.64514 1.02397 0.0
H494 H 0.2551 0.70201 0.12608 0.0
C495 C 0.51994 0.02602 0.75419 0.0
C496 C 0.51232 0.01689 0.71499 0.0
N497 N 0.52581 0.02989 0.6851 0.0
N498 N 0.53831 0.04474 0.74967 0.0
C499 C 0.54141 0.04685 0.70703 0.0
H500 H 0.51255 0.01936 0.78432 0.0
Co501 Co 0.55353 0.06117 0.79736 0.0
C502 C 0.6008 0.08959 0.76725 0.0
O503 O 0.61285 0.08368 0.80263 0.0
N504 N 0.56775 0.0778 0.84679 0.0
C505 C 0.58244 0.08621 0.91208 0.0
C506 C 0.57393 0.06702 0.8844 0.0
C507 C 0.57191 0.10384 0.85324 0.0
N508 N 0.58134 0.10946 0.89245 0.0
O509 O 0.52756 0.08858 0.79556 0.0
H510 H 0.57234 0.04655 0.89198 0.0
H511 H 0.56834 0.11839 0.82924 0.0
O512 O 0.57752 0.08121 0.76024 0.0
C513 C 0.51007 0.08266 0.82281 0.0
O514 O 0.51234 0.06012 0.84222 0.0
N515 N 0.57672 0.03239 0.80234 0.0
C516 C 0.60544 0.98807 0.82551 0.0
C517 C 0.61515 1.00549 0.79501 0.0
C518 C 0.60014 0.02725 0.783 0.0
C519 C 0.56616 1.01442 0.82904 0.0
C520 C 0.5802 0.9924 0.84143 0.0
H521 H 0.60759 0.03975 0.75848 0.0
H522 H 0.54705 0.01796 0.84265 0.0
H523 H 0.55507 0.0602 0.69236 0.0
H524 H 0.49763 1.00201 0.709 0.0
H525 H 0.58957 0.08309 0.94392 0.0
H526 H 0.63416 1.00238 0.78067 0.0
H527 H 0.57171 0.97956 0.86483 0.0
H528 H 0.49538 0.13042 0.78886 0.0
H529 H 0.47661 0.07603 0.88839 0.0
H530 H 0.46009 0.15945 0.81427 0.0
H531 H 0.44199 0.10447 0.91312 0.0
H532 H 0.39666 0.16865 0.97477 0.0
H533 H 0.43579 0.14667 0.94843 0.0
H534 H 0.41107 0.15993 0.81964 0.0
H535 H 0.37231 0.18277 0.84596 0.0
C536 C 0.48382 0.12466 0.816 0.0
C537 C 0.48885 0.10084 0.83642 0.0
C538 C 0.46361 0.14123 0.83053 0.0
C539 C 0.44837 0.13442 0.86608 0.0
C540 C 0.45359 0.11065 0.88626 0.0
C541 C 0.47341 0.09415 0.87166 0.0
C542 C 0.39974 0.16738 0.94086 0.0
C543 C 0.38103 0.17725 0.9126 0.0
C544 C 0.42211 0.15454 0.92569 0.0
C545 C 0.42644 0.15121 0.88185 0.0
C546 C 0.40842 0.16218 0.85355 0.0
C547 C 0.38598 0.17499 0.86873 0.0
H548 H 0.60831 0.65853 0.21018 0.0
H549 H 0.59902 0.62205 0.08684 0.0
H550 H 0.62672 0.69753 0.1764 0.0
H551 H 0.61786 0.66043 0.05366 0.0
H552 H 0.69267 0.71222 1.02979 0.0
H553 H 0.66451 0.67752 0.05683 0.0
H554 H 0.61763 0.7353 0.12281 0.0
H555 H 0.64579 0.77025 0.09462 0.0
C556 C 0.60978 0.65891 0.17597 0.0
C557 C 0.60267 0.6368 0.15145 0.0
C558 C 0.6203 0.68127 0.1566 0.0
C559 C 0.62403 0.68192 0.11236 0.0
C560 C 0.61565 0.66039 0.08782 0.0
C561 C 0.60499 0.63826 0.10702 0.0
C562 C 0.67574 0.71754 0.04872 0.0
C563 C 0.67096 0.74386 0.05926 0.0
C564 C 0.6597 0.69769 0.06446 0.0
C565 C 0.63886 0.70364 0.09209 0.0
C566 C 0.63356 0.73012 0.10168 0.0
C567 C 0.64938 0.75011 0.08507 0.0
H568 H 0.11721 0.8387 0.45019 0.0
H569 H 0.17094 0.87445 0.36304 0.0
H570 H 0.08016 0.8556 0.40914 0.0
H571 H 0.13434 0.89063 0.32113 0.0
H572 H 0.01744 0.88971 0.32081 0.0
H573 H 0.0534 0.86047 0.34194 0.0
H574 H 0.10629 0.92662 0.34345 0.0
H575 H 0.07085 0.95524 0.32279 0.0
C576 C 0.121 0.84912 0.42111 0.0
C577 C 0.14679 0.85541 0.40968 0.0
C578 C 0.09985 0.85886 0.39761 0.0
C579 C 0.10429 0.87493 0.36228 0.0
C580 C 0.13021 0.87879 0.34862 0.0
C581 C 0.15118 0.86935 0.37229 0.0
C582 C 0.03698 0.89767 0.32455 0.0
C583 C 0.04147 0.92468 0.32001 0.0
C584 C 0.05747 0.88104 0.33702 0.0
C585 C 0.0828 0.89114 0.34423 0.0
C586 C 0.08725 0.91797 0.33752 0.0
C587 C 0.06687 0.93448 0.32585 0.0
H588 H 0.95019 0.36829 0.69978 0.0
H589 H 0.89554 0.41121 0.62338 0.0
H590 H 0.93777 0.3276 0.66264 0.0
H591 H 0.88296 0.37089 0.5865 0.0
H592 H 0.86506 0.29611 0.51914 0.0
H593 H 0.89373 0.33275 0.54029 0.0
H594 H 0.89617 0.30304 0.66791 0.0
H595 H 0.86768 0.26691 0.6467 0.0
C596 C 0.93614 0.36913 0.67417 0.0
C597 C 0.92363 0.39283 0.66471 0.0
C598 C 0.92886 0.34584 0.6531 0.0
C599 C 0.90919 0.34591 0.62177 0.0
C600 C 0.89831 0.37005 0.61011 0.0
C601 C 0.90535 0.39316 0.63146 0.0
C602 C 0.87261 0.297 0.55121 0.0
C603 C 0.86429 0.27876 0.58132 0.0
C604 C 0.88879 0.31806 0.56348 0.0
C605 C 0.89713 0.32097 0.60592 0.0
C606 C 0.89042 0.30137 0.63494 0.0
C607 C 0.87401 0.28067 0.62285 0.0
H608 H 0.63908 0.87371 0.08815 0.0
H609 H 0.63971 0.82731 0.20146 0.0
H610 H 0.5997 0.89591 0.1127 0.0
H611 H 0.59961 0.84866 0.22567 0.0
H612 H 0.54613 0.91534 0.27739 0.0
H613 H 0.58276 0.88788 0.25379 0.0
H614 H 0.55518 0.89299 0.1245 0.0
H615 H 0.51986 0.92147 0.1481 0.0
C616 C 0.63043 0.8679 0.11796 0.0
C617 C 0.64253 0.84884 0.14287 0.0
C618 C 0.60772 0.88055 0.13213 0.0
C619 C 0.59618 0.87415 0.17134 0.0
C620 C 0.60804 0.85455 0.19575 0.0
C621 C 0.631 0.84218 0.1818 0.0
C622 C 0.5478 0.91012 0.24411 0.0
C623 C 0.53038 0.9206 0.2145 0.0
C624 C 0.56877 0.89437 0.23043 0.0
C625 C 0.57241 0.88849 0.18693 0.0
C626 C 0.55373 0.8977 0.15797 0.0
C627 C 0.53324 0.9138 0.17152 0.0
H628 H 0.37502 0.29039 0.0407 0.0
H629 H 0.35322 0.27498 0.91067 0.0
H630 H 0.40461 0.32544 1.01697 0.0
H631 H 0.38238 0.30951 0.8871 0.0
H632 H 0.44729 0.36461 0.85191 0.0
H633 H 0.42777 0.32491 0.88028 0.0
H634 H 0.39639 0.36937 0.98571 0.0
H635 H 0.41534 0.40896 0.95758 0.0
C636 C 0.37703 0.29408 1.00711 0.0
C637 C 0.36172 0.28013 0.97757 0.0
C638 C 0.39376 0.31424 0.99349 0.0
C639 C 0.39578 0.3204 0.95007 0.0
C640 C 0.38157 0.30524 0.92064 0.0
C641 C 0.36468 0.28553 0.93423 0.0
C642 C 0.4363 0.36609 0.88113 0.0
C643 C 0.43293 0.39044 0.90194 0.0
C644 C 0.42517 0.34319 0.89754 0.0
C645 C 0.41052 0.3439 0.93537 0.0
C646 C 0.40791 0.36796 0.95693 0.0
C647 C 0.41882 0.39086 0.94044 0.0
H648 H 0.99355 0.10296 0.66149 0.0
H649 H 0.98361 0.12783 0.79179 0.0
H650 H 0.95729 0.13057 0.64037 0.0
H651 H 0.94669 0.1557 0.77046 0.0
H652 H 0.86064 0.16385 0.71467 0.0
H653 H 0.90103 0.14521 0.74137 0.0
H654 H 0.94323 0.1774 0.63548 0.0
H655 H 0.90298 0.1967 0.60901 0.0
C656 C 0.98371 0.11459 0.68563 0.0
C657 C 0.99125 0.11311 0.72836 0.0
C658 C 0.96305 0.13059 0.67342 0.0
C659 C 0.94911 0.1453 0.70371 0.0
C660 C 0.95705 0.14445 0.74646 0.0
C661 C 0.9782 0.12868 0.75864 0.0
C662 C 0.8785 0.16751 0.69734 0.0
C663 C 0.87824 0.18167 0.65924 0.0
C664 C 0.90174 0.15681 0.71285 0.0
C665 C 0.92529 0.15978 0.69051 0.0
C666 C 0.92529 0.17457 0.65319 0.0
C667 C 0.90211 0.18548 0.63784 0.0
H668 H 0.07919 0.6489 0.42526 0.0
H669 H 0.15145 0.65667 0.35554 0.0
H670 H 0.09237 0.68621 0.47137 0.0
H671 H 0.16453 0.69291 0.4014 0.0
H672 H 0.19711 0.72197 0.52381 0.0
H673 H 0.1715 0.68687 0.49106 0.0
H674 H 0.11253 0.7426 0.45494 0.0
H675 H 0.13829 0.77811 0.4885 0.0
C676 C 0.0976 0.65875 0.41941 0.0
C677 C 0.11455 0.64944 0.38736 0.0
C678 C 0.10512 0.67999 0.44575 0.0
C679 C 0.12963 0.69208 0.44021 0.0
C680 C 0.14572 0.68367 0.40673 0.0
C681 C 0.13826 0.66278 0.38062 0.0
C682 C 0.17813 0.72661 0.51058 0.0
C683 C 0.16968 0.75272 0.50871 0.0
C684 C 0.16352 0.70653 0.49172 0.0
C685 C 0.14018 0.71208 0.47026 0.0
C686 C 0.13036 0.73782 0.47166 0.0
C687 C 0.14504 0.75808 0.49097 0.0
H688 H 0.91428 0.70982 0.4273 0.0
H689 H 0.87228 0.65384 0.34909 0.0
H690 H 0.95542 0.69473 0.39655 0.0
H691 H 0.91334 0.63911 0.31813 0.0
H692 H 0.99122 0.62412 0.2538 0.0
H693 H 0.9523 0.64978 0.274 0.0
H694 H 0.98032 0.65408 0.40308 0.0
H695 H 0.01863 0.62865 0.38287 0.0
C696 C 0.91368 0.69437 0.40356 0.0
C697 C 0.88972 0.6829 0.39129 0.0
C698 C 0.93734 0.6858 0.3857 0.0
C699 C 0.93777 0.66563 0.35489 0.0
C700 C 0.91379 0.65493 0.3413 0.0
C701 C 0.89013 0.66339 0.35929 0.0
C702 C 0.98936 0.6314 0.28606 0.0
C703 C 1.00797 0.62463 0.31672 0.0
C704 C 0.96697 0.64578 0.29781 0.0
C705 C 0.96306 0.6539 0.34029 0.0
C706 C 0.9827 0.64848 0.37008 0.0
C707 C 1.0047 0.63386 0.3585 0.0
H708 H 0.09427 0.13009 0.59705 0.0
H709 H 0.08973 0.16279 0.72386 0.0
H710 H 0.1136 0.17069 0.57209 0.0
H711 H 0.10765 0.20378 0.69836 0.0
H712 H 0.17991 0.24945 0.65555 0.0
H713 H 0.15119 0.2147 0.67776 0.0
H714 H 0.11044 0.21789 0.55794 0.0
H715 H 0.14012 0.25307 0.53499 0.0
C716 C 0.09706 0.14597 0.61959 0.0
C717 C 0.09093 0.14276 0.6628 0.0
C718 C 0.10779 0.16948 0.60504 0.0
C719 C 0.11254 0.19043 0.63328 0.0
C720 C 0.10473 0.18786 0.67585 0.0
C721 C 0.09418 0.16433 0.69046 0.0
C722 C 0.16476 0.24299 0.6338 0.0
C723 C 0.1625 0.25388 0.59325 0.0
C724 C 0.148 0.22315 0.64686 0.0
C725 C 0.12835 0.21349 0.61982 0.0
C726 C 0.12549 0.22481 0.57948 0.0
C727 C 0.14235 0.24501 0.56639 0.0
H728 H 0.56674 0.44405 0.82236 0.0
H729 H 0.51444 0.37778 0.81453 0.0
H730 H 0.60231 0.4156 0.84278 0.0
H731 H 0.55058 0.34863 0.83533 0.0
H732 H 0.61208 0.32607 0.9461 0.0
H733 H 0.57584 0.34275 0.90309 0.0
H734 H 0.63157 0.38087 0.82114 0.0
H735 H 0.66733 0.36497 0.86525 0.0
C736 C 0.56307 0.42317 0.82406 0.0
C737 C 0.53792 0.41309 0.81679 0.0
C738 C 0.58354 0.40675 0.83553 0.0
C739 C 0.57942 0.37972 0.84056 0.0
C740 C 0.55438 0.36936 0.83172 0.0
C741 C 0.5338 0.38593 0.81948 0.0
C742 C 0.61642 0.33714 0.91787 0.0
C743 C 0.64232 0.34437 0.90883 0.0
C744 C 0.59574 0.34673 0.89323 0.0
C745 C 0.60078 0.36359 0.85911 0.0
C746 C 0.62696 0.36839 0.84767 0.0
C747 C 0.64746 0.35914 0.87258 0.0
H748 H 0.43433 0.87641 0.19624 0.0
H749 H 0.42719 0.91786 0.07811 0.0
H750 H 0.4176 0.83673 0.16153 0.0
H751 H 0.40984 0.87853 0.04421 0.0
H752 H 0.34059 0.81755 0.03164 0.0
H753 H 0.36667 0.85493 0.05576 0.0
H754 H 0.42612 0.80229 0.10121 0.0
H755 H 0.39999 0.76466 0.07585 0.0
C756 C 0.42961 0.87711 0.16286 0.0
C757 C 0.43179 0.90073 0.14039 0.0
C758 C 0.42004 0.85427 0.14292 0.0
C759 C 0.41221 0.85453 0.10017 0.0
C760 C 0.41538 0.87777 0.07731 0.0
C761 C 0.42519 0.90044 0.097 0.0
C762 C 0.35966 0.81402 0.04541 0.0
C763 C 0.3685 0.7883 0.05122 0.0
C764 C 0.37457 0.83541 0.0594 0.0
C765 C 0.39843 0.8316 0.08059 0.0
C766 C 0.40778 0.80583 0.08512 0.0
C767 C 0.39303 0.78433 0.07014 0.0
H768 H 0.11832 0.35499 0.60048 0.0
H769 H 0.15176 0.35632 0.72626 0.0
H770 H 0.07763 0.37233 0.62897 0.0
H771 H 0.11134 0.37491 0.75439 0.0
H772 H 0.02724 0.39733 0.79606 0.0
H773 H 0.06391 0.37013 0.76992 0.0
H774 H 0.06567 0.41481 0.6545 0.0
H775 H 0.02965 0.44107 0.67976 0.0
C776 C 0.11705 0.3587 0.63424 0.0
C777 C 0.13873 0.3545 0.66075 0.0
C778 C 0.09366 0.36891 0.65063 0.0
C779 C 0.09121 0.37543 0.694 0.0
C780 C 0.1124 0.37008 0.72091 0.0
C781 C 0.13581 0.35976 0.70453 0.0
C782 C 0.03535 0.40097 0.76494 0.0
C783 C 0.0256 0.42152 0.74024 0.0
C784 C 0.05642 0.38555 0.75003 0.0
C785 C 0.06777 0.39016 0.7099 0.0
C786 C 0.05733 0.41025 0.68512 0.0
C787 C 0.0367 0.4256 0.69999 0.0
H788 H 0.95656 0.87053 0.35663 0.0
H789 H 0.92144 0.91027 0.46431 0.0
H790 H 0.93811 0.82924 0.3807 0.0
H791 H 0.90361 0.86903 0.48841 0.0
H792 H 0.8842 0.78727 0.53419 0.0
H793 H 0.91329 0.82381 0.51533 0.0
H794 H 0.89222 0.81347 0.3836 0.0
H795 H 0.86346 0.77746 0.40234 0.0
C796 C 0.9451 0.87061 0.38545 0.0
C797 C 0.94036 0.89408 0.40805 0.0
C798 C 0.93464 0.84683 0.39939 0.0
C799 C 0.91937 0.84586 0.43646 0.0
C800 C 0.91561 0.86902 0.46009 0.0
C801 C 0.92586 0.8928 0.44603 0.0
C802 C 0.8863 0.79256 0.5012 0.0
C803 C 0.87143 0.77977 0.46978 0.0
C804 C 0.90278 0.81351 0.49041 0.0
C805 C 0.90498 0.82158 0.44796 0.0
C806 C 0.8912 0.80765 0.41648 0.0
C807 C 0.87454 0.78713 0.42729 0.0
H808 H 0.52494 0.64873 0.23676 0.0
H809 H 0.46762 0.58676 0.24253 0.0
H810 H 0.49038 0.67963 0.2158 0.0
H811 H 0.43352 0.61704 0.22215 0.0
H812 H 0.42721 0.69995 0.10603 0.0
H813 H 0.46344 0.68341 0.14907 0.0
H814 H 0.40783 0.65545 0.24138 0.0
H815 H 0.37194 0.67131 0.19738 0.0
C816 C 0.50488 0.64196 0.23478 0.0
C817 C 0.49885 0.61543 0.24123 0.0
C818 C 0.48516 0.65953 0.2225 0.0
C819 C 0.45913 0.65087 0.21743 0.0
C820 C 0.45316 0.6246 0.2264 0.0
C821 C 0.47277 0.60713 0.23784 0.0
C822 C 0.42299 0.69136 0.13652 0.0
C823 C 0.39697 0.68694 0.14873 0.0
C824 C 0.44366 0.68181 0.16116 0.0
C825 C 0.43851 0.66767 0.19834 0.0
C826 C 0.41247 0.66585 0.21259 0.0
C827 C 0.39192 0.67515 0.18778 0.0
H828 H 0.59982 0.1505 0.84715 0.0
H829 H 0.58515 0.12501 0.97505 0.0
H830 H 0.62121 0.18981 0.8748 0.0
H831 H 0.60727 0.16409 1.00272 0.0
H832 H 0.63742 0.24857 0.03582 0.0
H833 H 0.608 0.21367 1.00946 0.0
H834 H 0.66349 0.19495 0.91043 0.0
H835 H 0.69232 0.22907 0.93611 0.0
C836 C 0.60075 0.15342 0.88114 0.0
C837 C 0.59103 0.13429 0.90876 0.0
C838 C 0.61324 0.1759 0.89707 0.0
C839 C 0.6163 0.17996 0.94104 0.0
C840 C 0.60523 0.16164 0.96873 0.0
C841 C 0.59281 0.13906 0.95279 0.0
C842 C 0.6432 0.23696 1.00843 0.0
C843 C 0.66728 0.24167 0.98825 0.0
C844 C 0.6264 0.21699 0.99334 0.0
C845 C 0.63324 0.2017 0.95745 0.0
C846 C 0.65727 0.20661 0.93752 0.0
C847 C 0.67399 0.22615 0.95269 0.0
H848 H 0.23817 0.2775 0.16404 0.0
H849 H 0.31265 0.24323 0.19518 0.0
H850 H 0.22834 0.28335 0.23897 0.0
H851 H 0.30335 0.24981 0.27056 0.0
H852 H 0.26891 0.241 0.40205 0.0
H853 H 0.27883 0.23576 0.32788 0.0
H854 H 0.23711 0.30721 0.30113 0.0
H855 H 0.22559 0.31166 0.37577 0.0
C856 C 0.25261 0.27143 0.18698 0.0
C857 C 0.27626 0.25993 0.17346 0.0
C858 C 0.24703 0.27494 0.23018 0.0
C859 C 0.26503 0.26729 0.26144 0.0
C860 C 0.2887 0.25565 0.24781 0.0
C861 C 0.29414 0.25186 0.20446 0.0
C862 C 0.26143 0.2556 0.38078 0.0
C863 C 0.24596 0.27666 0.3958 0.0
C864 C 0.26758 0.25273 0.33772 0.0
C865 C 0.25887 0.27097 0.30784 0.0
C866 C 0.24388 0.29239 0.32278 0.0
C867 C 0.23746 0.29515 0.36601 0.0
H868 H 0.5389 0.52789 0.64748 0.0
H869 H 0.47698 0.47375 0.61398 0.0
H870 H 0.54444 0.53895 0.57388 0.0
H871 H 0.48136 0.48629 0.53992 0.0
H872 H 0.51533 0.49096 0.40659 0.0
H873 H 0.50867 0.48083 0.48089 0.0
H874 H 0.5285 0.56073 0.515 0.0
H875 H 0.53603 0.57043 0.44018 0.0
C876 C 0.52633 0.51828 0.62456 0.0
C877 C 0.50778 0.4994 0.63717 0.0
C878 C 0.52926 0.52506 0.58198 0.0
C879 C 0.51352 0.51352 0.55035 0.0
C880 C 0.4943 0.49528 0.56304 0.0
C881 C 0.49152 0.48828 0.60579 0.0
C882 C 0.51823 0.50638 0.42997 0.0
C883 C 0.52614 0.53155 0.4174 0.0
C884 C 0.51421 0.50062 0.47275 0.0
C885 C 0.51771 0.51994 0.50446 0.0
C886 C 0.52588 0.54514 0.49182 0.0
C887 C 0.53022 0.55081 0.44888 0.0
H888 H 0.22434 0.80376 0.69176 0.0
H889 H 0.28286 0.7452 0.66318 0.0
H890 H 0.23359 0.79953 0.76709 0.0
H891 H 0.29221 0.74111 0.73857 0.0
H892 H 0.32203 0.7619 0.87209 0.0
H893 H 0.31215 0.76632 0.7969 0.0
H894 H 0.22965 0.76932 0.8258 0.0
H895 H 0.23927 0.76471 0.90044 0.0
C896 C 0.23887 0.78965 0.70143 0.0
C897 C 0.25286 0.77486 0.67107 0.0
C898 C 0.24428 0.78731 0.74478 0.0
C899 C 0.26385 0.77016 0.75901 0.0
C900 C 0.27741 0.75493 0.72877 0.0
C901 C 0.27195 0.7572 0.68546 0.0
C902 C 0.30177 0.76346 0.86259 0.0
C903 C 0.28156 0.76296 0.89297 0.0
C904 C 0.29609 0.76593 0.8193 0.0
C905 C 0.27006 0.7681 0.80516 0.0
C906 C 0.24993 0.76806 0.83548 0.0
C907 C 0.25556 0.76547 0.87863 0.0
H908 H 1.00411 0.46486 0.94363 0.0
H909 H 1.00994 0.54743 0.91629 0.0
H910 H 1.00893 0.47488 1.01918 0.0
H911 H 1.0147 0.55727 0.99107 0.0
H912 H 0.0493 0.56382 0.12439 0.0
H913 H 0.04432 0.55368 0.04936 0.0
H914 H 0.98631 0.49504 0.07893 0.0
H915 H 0.99136 0.50515 0.15424 0.0
C916 C 1.0064 0.4851 0.95349 0.0
C917 C 1.00684 0.5052 0.92327 0.0
C918 C 1.00908 0.49089 0.99697 0.0
C919 C 1.01228 0.51694 1.01149 0.0
C920 C 1.0128 0.53695 0.98127 0.0
C921 C 1.01011 0.5312 0.938 0.0
C922 C 0.03516 0.54905 0.1151 0.0
C923 C 0.02077 0.53534 0.14582 0.0
C924 C 0.03235 0.54314 0.07181 0.0
C925 C 1.01501 0.52338 0.0578 0.0
C926 C 1.00024 0.51001 0.08842 0.0
C927 C 1.00305 0.51592 0.13174 0.0
H928 H 0.79633 0.79894 0.67119 0.0
H929 H 0.77776 0.71646 0.67313 0.0
H930 H 0.78307 0.80338 0.74479 0.0
H931 H 0.76408 0.7209 0.74728 0.0
H932 H 0.76975 0.73382 0.89184 0.0
H933 H 0.78006 0.72816 0.81722 0.0
H934 H 0.74642 0.8039 0.7915 0.0
H935 H 0.73715 0.81007 0.86702 0.0
C936 C 0.78912 0.78173 0.68718 0.0
C937 C 0.78796 0.75734 0.66588 0.0
C938 C 0.78137 0.78432 0.72958 0.0
C939 C 0.77214 0.76262 0.75225 0.0
C940 C 0.77126 0.73808 0.73113 0.0
C941 C 0.77914 0.73546 0.68855 0.0
C942 C 0.76464 0.74941 0.87046 0.0
C943 C 0.75296 0.77264 0.88588 0.0
C944 C 0.77028 0.74597 0.8273 0.0
C945 C 0.76433 0.7656 0.79797 0.0
C946 C 0.75177 0.78849 0.81312 0.0
C947 C 0.74614 0.79195 0.85646 0.0
H948 H 0.77987 0.23407 0.16163 0.0
H949 H 0.70839 0.27622 0.18868 0.0
H950 H 0.78735 0.22887 0.23683 0.0
H951 H 0.7149 0.26929 0.26383 0.0
H952 H 0.75174 0.28598 0.39241 0.0
H953 H 0.74063 0.28591 0.31821 0.0
H954 H 0.77736 0.21024 0.30215 0.0
H955 H 0.7902 0.21115 0.37652 0.0
C956 C 0.76551 0.24202 0.1834 0.0
C957 C 0.74378 0.25615 0.16843 0.0
C958 C 0.76965 0.23866 0.2269 0.0
C959 C 0.752 0.24898 0.25699 0.0
C960 C 0.7294 0.26165 0.24194 0.0
C961 C 0.72542 0.26531 0.19842 0.0
C962 C 0.7578 0.26935 0.37334 0.0
C963 C 0.77239 0.24877 0.391 0.0
C964 C 0.75092 0.2691 0.33044 0.0
C965 C 0.75799 0.24808 0.30358 0.0
C966 C 0.77186 0.22704 0.32143 0.0
C967 C 0.77902 0.22741 0.36445 0.0
H968 H 0.02247 0.04387 0.15165 0.0
H969 H 0.98374 0.97053 0.12239 0.0
H970 H 0.02719 0.05252 0.07663 0.0
H971 H 0.98814 0.97957 0.0467 0.0
H972 H 0.97702 0.02001 0.91743 0.0
H973 H 0.97223 1.01033 0.99221 0.0
H974 H 0.05164 0.03582 1.01457 0.0
H975 H 0.05673 0.04517 0.93933 0.0
C976 C 1.01512 0.0294 0.12934 0.0
C977 C 1.003 1.00624 0.14347 0.0
C978 C 0.01784 0.03445 0.08611 0.0
C979 C 1.00832 0.01665 0.05555 0.0
C980 C 0.9956 0.99378 0.06944 0.0
C981 C 0.99302 0.9886 0.11288 0.0
C982 C 0.99367 0.0233 0.93794 0.0
C983 C 0.01738 0.03329 0.92182 0.0
C984 C 0.99085 0.01772 0.98102 0.0
C985 C 1.01154 0.02218 1.00945 0.0
C986 C 0.03519 0.03238 0.9936 0.0
C987 C 0.0381 0.03782 0.95037 0.0
H988 H 0.53707 0.03159 0.40906 0.0
H989 H 0.47442 0.9771 0.43476 0.0
H990 H 0.54261 0.0396 0.48429 0.0
H991 H 0.47901 0.98631 0.51044 0.0
H992 H 0.51314 0.98476 0.64388 0.0
H993 H 0.50676 0.97793 0.56828 0.0
H994 H 0.52606 0.05915 0.54658 0.0
H995 H 0.53298 0.06572 0.62272 0.0
C996 C 0.52435 0.02127 0.4306 0.0
C997 C 0.50552 1.00327 0.41525 0.0
C998 C 0.52732 0.02623 0.47413 0.0
C999 C 0.51142 1.01356 0.50402 0.0
C1000 C 0.49203 0.99613 0.48868 0.0
C1001 C 0.48915 0.99104 0.44501 0.0
C1002 C 0.51592 1.00124 0.62308 0.0
C1003 C 0.52344 0.02587 0.63964 0.0
C1004 C 0.5121 0.99735 0.57949 0.0
C1005 C 0.51555 0.01799 0.55081 0.0
C1006 C 0.52343 0.04262 0.56734 0.0
C1007 C 0.52744 0.04646 0.61111 0.0
H1008 H 0.10127 0.0858 0.89041 0.0
H1009 H 0.12783 0.14157 0.79806 0.0
H1010 H 0.12984 0.1066 0.94416 0.0
H1011 H 0.15549 0.16267 0.85151 0.0
H1012 H 0.18599 0.20788 0.96429 0.0
H1013 H 0.15012 0.18762 0.92488 0.0
H1014 H 0.18298 0.11123 0.9468 0.0
H1015 H 0.21965 0.13147 0.98496 0.0
C1016 C 0.11267 0.10288 0.882 0.0
C1017 C 0.11233 0.11222 0.84026 0.0
C1018 C 0.12911 0.11462 0.91254 0.0
C1019 C 0.14481 0.13628 0.90199 0.0
C1020 C 0.14346 0.14618 0.86068 0.0
C1021 C 0.12767 0.1341 0.83008 0.0
C1022 C 0.18562 0.18674 0.961 0.0
C1023 C 0.20617 0.17141 0.97704 0.0
C1024 C 0.16491 0.17516 0.93866 0.0
C1025 C 0.1639 0.1479 0.93245 0.0
C1026 C 0.18321 0.1323 0.95132 0.0
C1027 C 0.2042 0.14394 0.97326 0.0
H1028 H 0.58038 0.44083 0.21222 0.0
H1029 H 0.65501 0.47725 0.23931 0.0
H1030 H 0.60283 0.40243 0.18344 0.0
H1031 H 0.67736 0.43864 0.21125 0.0
H1032 H 0.7094 0.3565 0.1895 0.0
H1033 H 0.68507 0.39174 0.22416 0.0
H1034 H 0.62999 0.39178 0.12044 0.0
H1035 H 0.65424 0.35635 0.08571 0.0
C1036 C 0.60156 0.4407 0.21212 0.0
C1037 C 0.61583 0.46235 0.22788 0.0
C1038 C 0.61442 0.41863 0.19563 0.0
C1039 C 0.64189 0.4175 0.19479 0.0
C1040 C 0.65617 0.43873 0.21181 0.0
C1041 C 0.64332 0.46088 0.22806 0.0
C1042 C 0.69199 0.36383 0.17415 0.0
C1043 C 0.68387 0.35361 0.13466 0.0
C1044 C 0.67812 0.38417 0.19398 0.0
C1045 C 0.65567 0.39471 0.175 0.0
C1046 C 0.64707 0.38396 0.13613 0.0
C1047 C 0.66104 0.3637 0.11613 0.0
H1048 H 0.30655 0.91093 0.4773 0.0
H1049 H 0.33079 0.83286 0.4402 0.0
H1050 H 0.34343 0.92921 0.43785 0.0
H1051 H 0.36694 0.85128 0.39982 0.0
H1052 H 0.39142 0.90004 0.28002 0.0
H1053 H 0.36305 0.87951 0.3322 0.0
H1054 H 0.3957 0.92919 0.4305 0.0
H1055 H 0.42481 0.94951 0.37787 0.0
C1056 C 0.31996 0.89762 0.46153 0.0
C1057 C 0.31533 0.8704 0.46134 0.0
C1058 C 0.3411 0.90813 0.43894 0.0
C1059 C 0.35787 0.89166 0.41548 0.0
C1060 C 0.35411 0.86444 0.41721 0.0
C1061 C 0.33325 0.85394 0.4401 0.0
C1062 C 0.39289 0.90626 0.31291 0.0
C1063 C 0.41031 0.92627 0.32501 0.0
C1064 C 0.37672 0.89446 0.34279 0.0
C1065 C 0.37717 0.90276 0.38538 0.0
C1066 C 0.39498 0.92247 0.39783 0.0
C1067 C 0.41172 0.93391 0.36789 0.0
H1068 H 0.89778 0.6482 0.54913 0.0
H1069 H 0.83221 0.6714 0.62714 0.0
H1070 H 0.91357 0.62004 0.60516 0.0
H1071 H 0.84798 0.64258 0.68382 0.0
H1072 H 0.86911 0.554 0.72835 0.0
H1073 H 0.85269 0.59169 0.6889 0.0
H1074 H 0.93134 0.62204 0.6795 0.0
H1075 H 0.94766 0.58467 0.71889 0.0
C1076 C 0.88697 0.64757 0.57868 0.0
C1077 C 0.86384 0.66201 0.58388 0.0
C1078 C 0.89607 0.63151 0.61088 0.0
C1079 C 0.88205 0.62912 0.64897 0.0
C1080 C 0.85916 0.64406 0.65476 0.0
C1081 C 0.85027 0.66067 0.62258 0.0
C1082 C 0.88275 0.56913 0.7189 0.0
C1083 C 0.90974 0.56612 0.72599 0.0
C1084 C 0.87335 0.59072 0.69637 0.0
C1085 C 0.8908 0.6096 0.68058 0.0
C1086 C 0.91748 0.60758 0.69066 0.0
C1087 C 0.92682 0.58614 0.71312 0.0
H1088 H 0.83838 0.82769 0.11702 0.0
H1089 H 0.80615 0.90331 0.08578 0.0
H1090 H 0.87284 0.8492 0.15788 0.0
H1091 H 0.84168 0.92473 0.12521 0.0
H1092 H 0.9257 0.94841 0.18157 0.0
H1093 H 0.89661 0.9268 0.12946 0.0
H1094 H 0.86446 0.87895 0.22866 0.0
H1095 H 0.89266 0.9009 0.28051 0.0
C1096 C 0.83869 0.84889 0.11843 0.0
C1097 C 0.81893 0.86368 0.09882 0.0
C1098 C 0.85865 0.86118 0.14157 0.0
C1099 C 0.85979 0.88858 0.14492 0.0
C1100 C 0.8413 0.90354 0.1229 0.0
C1101 C 0.82098 0.89122 0.10024 0.0
C1102 C 0.91261 0.93306 0.19196 0.0
C1103 C 0.91141 0.92627 0.235 0.0
C1104 C 0.8959 0.92087 0.1623 0.0
C1105 C 0.87837 0.9012 0.17511 0.0
C1106 C 0.87789 0.89393 0.21789 0.0
C1107 C 0.89398 0.90652 0.24754 0.0
H1108 H 0.4035 0.5744 0.77475 0.0
H1109 H 0.42845 0.5536 0.90066 0.0
H1110 H 0.38103 0.61286 0.80396 0.0
H1111 H 0.40582 0.59152 0.92987 0.0
H1112 H 0.38166 0.67284 0.96923 0.0
H1113 H 0.40686 0.63802 0.93501 0.0
H1114 H 0.34387 0.62493 0.84587 0.0
H1115 H 0.31912 0.66026 0.87913 0.0
C1116 C 0.40408 0.57796 0.80865 0.0
C1117 C 0.41793 0.56101 0.8353 0.0
C1118 C 0.39119 0.6 0.82545 0.0
C1119 C 0.3917 0.60548 0.86934 0.0
C1120 C 0.40547 0.58838 0.89586 0.0
C1121 C 0.41842 0.56652 0.87909 0.0
C1122 C 0.37331 0.66274 0.94202 0.0
C1123 C 0.34829 0.66931 0.92711 0.0
C1124 C 0.38768 0.6426 0.92255 0.0
C1125 C 0.37734 0.62839 0.88784 0.0
C1126 C 0.35264 0.63554 0.87218 0.0
C1127 C 0.33834 0.65577 0.8915 0.0
H1128 H 0.68569 0.16087 0.55238 0.0
H1129 H 0.73181 0.17077 0.66581 0.0
H1130 H 0.65088 0.14 0.59406 0.0
H1131 H 0.69827 0.14903 0.70687 0.0
H1132 H 0.62838 0.1335 0.78303 0.0
H1133 H 0.65748 0.1567 0.73552 0.0
H1134 H 0.63683 0.10297 0.6338 0.0
H1135 H 0.60614 0.0808 0.68151 0.0
C1136 C 0.68843 0.1583 0.58612 0.0
C1137 C 0.71119 0.16775 0.60608 0.0
C1138 C 0.66858 0.1463 0.61004 0.0
C1139 C 0.67134 0.14325 0.65422 0.0
C1140 C 0.69477 0.15183 0.67339 0.0
C1141 C 0.71422 0.16411 0.64979 0.0
C1142 C 0.62971 0.12699 0.75027 0.0
C1143 C 0.61515 0.10537 0.73592 0.0
C1144 C 0.64668 0.14005 0.72303 0.0
C1145 C 0.65028 0.13131 0.68091 0.0
C1146 C 0.63465 0.11034 0.66592 0.0
C1147 C 0.61706 0.0976 0.69317 0.0
H1148 H 0.15588 0.47731 0.32832 0.0
H1149 H 0.07949 0.46196 0.38151 0.0
H1150 H 0.17363 0.44006 0.36722 0.0
H1151 H 0.09745 0.42546 0.42105 0.0
H1152 H 0.15156 0.39956 0.53294 0.0
H1153 H 0.13085 0.42876 0.48258 0.0
H1154 H 0.16922 0.38816 0.37911 0.0
H1155 H 0.18975 0.35824 0.43008 0.0
C1156 C 0.14276 0.46576 0.34757 0.0
C1157 C 0.11634 0.47303 0.35241 0.0
C1158 C 0.15295 0.44442 0.36982 0.0
C1159 C 0.13696 0.43008 0.39749 0.0
C1160 C 0.11029 0.4364 0.40038 0.0
C1161 C 0.10008 0.45746 0.37794 0.0
C1162 C 0.15532 0.39661 0.4994 0.0
C1163 C 0.17221 0.37666 0.48536 0.0
C1164 C 0.14338 0.41326 0.47057 0.0
C1165 C 0.14841 0.41072 0.42695 0.0
C1166 C 0.16506 0.39053 0.41261 0.0
C1167 C 0.17662 0.37336 0.44163 0.0
H1168 H 0.60006 0.62785 0.35251 0.0
H1169 H 0.66071 0.57232 0.32033 0.0
H1170 H 0.62986 0.64941 0.40345 0.0
H1171 H 0.68994 0.59318 0.37199 0.0
H1172 H 0.72477 0.62681 0.49822 0.0
H1173 H 0.69013 0.60427 0.45874 0.0
H1174 H 0.67769 0.67326 0.38408 0.0
H1175 H 0.71332 0.6953 0.42061 0.0
C1176 C 0.61953 0.61999 0.35696 0.0
C1177 C 0.6282 0.5986 0.33234 0.0
C1178 C 0.63652 0.63229 0.38595 0.0
C1179 C 0.66209 0.62282 0.39166 0.0
C1180 C 0.67025 0.6007 0.36843 0.0
C1181 C 0.6536 0.58891 0.33871 0.0
C1182 C 0.71488 0.63727 0.47329 0.0
C1183 C 0.72228 0.66305 0.46289 0.0
C1184 C 0.69482 0.62437 0.45103 0.0
C1185 C 0.68118 0.63715 0.41868 0.0
C1186 C 0.68764 0.66314 0.4094 0.0
C1187 C 0.70808 0.67582 0.43079 0.0
H1188 H 0.11062 0.98349 0.6597 0.0
H1189 H 0.13284 0.95992 0.78562 0.0
H1190 H 0.13602 0.94776 0.62937 0.0
H1191 H 0.15811 0.92352 0.75519 0.0
H1192 H 0.22231 0.87875 0.68027 0.0
H1193 H 0.19669 0.91336 0.7142 0.0
H1194 H 0.1353 0.90134 0.62183 0.0
H1195 H 0.16125 0.8674 0.58712 0.0
C1196 C 0.12074 0.97043 0.68096 0.0
C1197 C 0.11949 0.97435 0.72509 0.0
C1198 C 0.13526 0.94984 0.66355 0.0
C1199 C 0.14887 0.93247 0.68978 0.0
C1200 C 0.148 0.93662 0.73401 0.0
C1201 C 0.13353 0.95743 0.75149 0.0
C1202 C 0.20329 0.88343 0.66728 0.0
C1203 C 0.19393 0.87043 0.63073 0.0
C1204 C 0.18852 0.90319 0.68694 0.0
C1205 C 0.16399 0.91035 0.67062 0.0
C1206 C 0.15434 0.89676 0.63478 0.0
C1207 C 0.16916 0.87714 0.615 0.0
H1208 H 0.79135 0.4076 0.99306 0.0
H1209 H 0.8266 0.33429 0.95433 0.0
H1210 H 0.82834 0.43133 0.96318 0.0
H1211 H 0.86363 0.35799 0.92455 0.0
H1212 H 0.90857 0.41122 0.83182 0.0
H1213 H 0.87373 0.38616 0.86553 0.0
H1214 H 0.87442 0.44018 0.97201 0.0
H1215 H 0.90883 0.46545 0.93805 0.0
C1216 C 0.80716 0.39651 0.97875 0.0
C1217 C 0.80589 0.36902 0.97598 0.0
C1218 C 0.82841 0.41012 0.96155 0.0
C1219 C 0.84898 0.39661 0.94123 0.0
C1220 C 0.84794 0.36908 0.93924 0.0
C1221 C 0.8267 0.35548 0.95639 0.0
C1222 C 0.90145 0.41762 0.86259 0.0
C1223 C 0.91147 0.44043 0.8821 0.0
C1224 C 0.88151 0.40319 0.88202 0.0
C1225 C 0.87111 0.4112 0.92146 0.0
C1226 C 0.8816 0.43367 0.94134 0.0
C1227 C 0.90149 0.44809 0.92193 0.0
H1228 H 0.37208 0.04384 0.21539 0.0
H1229 H 0.43956 0.0949 0.2197 0.0
H1230 H 0.34788 0.07699 0.17694 0.0
H1231 H 0.41552 0.12776 0.17974 0.0
H1232 H 0.35706 0.18814 0.12532 0.0
H1233 H 0.37794 0.1591 0.17689 0.0
H1234 H 0.35196 0.09175 0.10414 0.0
H1235 H 0.33125 0.12028 0.0535 0.0
C1236 C 0.38164 0.06232 0.20893 0.0
C1237 C 0.40792 0.06649 0.22039 0.0
C1238 C 0.36782 0.08125 0.18637 0.0
C1239 C 0.37987 0.1049 0.17459 0.0
C1240 C 0.40561 0.1098 0.18828 0.0
C1241 C 0.41948 0.09081 0.21084 0.0
C1242 C 0.35573 0.16713 0.12061 0.0
C1243 C 0.3425 0.1566 0.08518 0.0
C1244 C 0.36775 0.1505 0.15004 0.0
C1245 C 0.36646 0.12306 0.14487 0.0
C1246 C 0.35297 0.11272 0.10967 0.0
C1247 C 0.34124 0.1292 0.0803 0.0
H1248 H 0.2996 0.40618 0.58439 0.0
H1249 H 0.33504 0.32975 0.596 0.0
H1250 H 0.33706 0.4258 0.62142 0.0
H1251 H 0.37157 0.34937 0.63471 0.0
H1252 H 0.39207 0.3953 0.76596 0.0
H1253 H 0.36294 0.37566 0.71298 0.0
H1254 H 0.3943 0.42702 0.61784 0.0
H1255 H 0.42443 0.44619 0.67096 0.0
C1256 C 0.31557 0.39362 0.59379 0.0
C1257 C 0.31393 0.36626 0.5879 0.0
C1258 C 0.33698 0.40489 0.61508 0.0
C1259 C 0.35699 0.38901 0.63114 0.0
C1260 C 0.35626 0.36198 0.62284 0.0
C1261 C 0.33517 0.35077 0.60101 0.0
C1262 C 0.39307 0.40209 0.73357 0.0
C1263 C 0.41053 0.42212 0.72241 0.0
C1264 C 0.37646 0.39086 0.70332 0.0
C1265 C 0.37644 0.39987 0.66146 0.0
C1266 C 0.39406 0.41976 0.64996 0.0
C1267 C 0.41132 0.43055 0.68015 0.0
H1268 H 0.85599 0.18469 0.44496 0.0
H1269 H 0.83012 0.11763 0.51617 0.0
H1270 H 0.87741 0.1552 0.39365 0.0
H1271 H 0.85134 0.08853 0.46548 0.0
H1272 H 0.87307 0.04027 0.35198 0.0
H1273 H 0.8481 0.07323 0.39127 0.0
H1274 H 0.91559 0.12423 0.3933 0.0
H1275 H 0.94044 0.09147 0.35308 0.0
C1276 C 0.85474 0.16373 0.44956 0.0
C1277 C 0.84142 0.15355 0.48479 0.0
C1278 C 0.86706 0.14685 0.42027 0.0
C1279 C 0.86596 0.11949 0.42534 0.0
C1280 C 0.85225 0.10945 0.46019 0.0
C1281 C 0.84024 0.12621 0.48953 0.0
C1282 C 0.88242 0.05875 0.35986 0.0
C1283 C 0.90884 0.06309 0.34968 0.0
C1284 C 0.86818 0.07755 0.38278 0.0
C1285 C 0.87995 0.10123 0.39591 0.0
C1286 C 0.90591 0.10624 0.38362 0.0
C1287 C 0.92022 0.08735 0.36089 0.0
H1288 H 0.12249 0.56726 0.12822 0.0
H1289 H 0.12304 0.62231 0.23342 0.0
H1290 H 0.15928 0.59028 0.09637 0.0
H1291 H 0.16003 0.64515 0.20165 0.0
H1292 H 0.20976 0.69423 0.11092 0.0
H1293 H 0.17161 0.67224 0.14044 0.0
H1294 H 0.20612 0.59712 0.11032 0.0
H1295 H 0.24444 0.61906 0.08122 0.0
C1296 C 0.13038 0.58432 0.14453 0.0
C1297 C 0.11979 0.59289 0.18345 0.0
C1298 C 0.1516 0.59741 0.12635 0.0
C1299 C 0.16269 0.61948 0.14652 0.0
C1300 C 0.1518 0.62836 0.18506 0.0
C1301 C 0.13063 0.6152 0.20335 0.0
C1302 C 0.20935 0.67301 0.11088 0.0
C1303 C 0.23029 0.65845 0.09375 0.0
C1304 C 0.18744 0.66041 0.12778 0.0
C1305 C 0.1858 0.63292 0.12781 0.0
C1306 C 0.20658 0.61834 0.11027 0.0
C1307 C 0.22856 0.63094 0.09351 0.0
H1308 H 0.59058 0.93765 0.84379 0.0
H1309 H 0.65718 0.98978 0.84792 0.0
H1310 H 0.61517 0.9051 0.88348 0.0
H1311 H 0.68195 0.95699 0.88674 0.0
H1312 H 0.69876 0.9123 1.01019 0.0
H1313 H 0.67831 0.94129 0.95966 0.0
H1314 H 0.65311 0.87445 0.88501 0.0
H1315 H 0.67372 0.84507 0.9362 0.0
C1316 C 0.61061 0.94201 0.8526 0.0
C1317 C 0.62178 0.9665 0.84304 0.0
C1318 C 0.62479 0.92323 0.87506 0.0
C1319 C 0.65045 0.92851 0.88878 0.0
C1320 C 0.66209 0.95242 0.87721 0.0
C1321 C 0.64798 0.97114 0.85452 0.0
C1322 C 0.68901 0.90364 0.98294 0.0
C1323 C 0.68782 0.87627 0.97744 0.0
C1324 C 0.67745 0.92037 0.95367 0.0
C1325 C 0.66415 0.91028 0.91807 0.0
C1326 C 0.6631 0.88287 0.9122 0.0
C1327 C 0.67498 0.86604 0.94143 0.0
loop_
_geom_bond_atom_site_label_1
_geom_bond_atom_site_label_2
_geom_bond_distance
_geom_bond_site_symmetry_2
_ccdc_geom_bond_type
C0 C1 1.351 . S
C0 N3 1.368 . S
C0 H5 0.931 . S
C1 C0 1.351 . S
C1 N2 1.373 . S
C1 H29 0.930 . S
N2 C1 1.373 . S
N2 C4 1.340 . S
N3 C0 1.368 . S
N3 C4 1.321 . S
N3 Co6 2.135 . S
C4 N2 1.340 . S
C4 N3 1.321 . S
C4 H28 0.930 . S
H5 C0 0.931 . S
Co6 N3 2.135 . S
Co6 N9 2.121 1_554 S
Co6 O14 2.055 . S
Co6 O17 2.039 . S
Co6 N20 2.140 1_554 S
C7 O8 1.227 . S
C7 O17 1.265 . S
O8 C7 1.227 . S
N9 Co6 2.121 1_556 S
N9 C11 1.375 . S
N9 C12 1.313 . S
C10 C11 1.338 . S
C10 N13 1.377 . S
C10 H30 0.930 . S
C11 N9 1.375 . S
C11 C10 1.338 . S
C11 H15 0.931 . S
C12 N9 1.313 . S
C12 N13 1.344 . S
C12 H16 0.930 . S
N13 C10 1.377 . S
N13 C12 1.344 . S
O14 Co6 2.055 . S
O14 C18 1.253 1_554 S
H15 C11 0.931 . S
H16 C12 0.930 . S
O17 Co6 2.039 . S
O17 C7 1.265 . S
C18 O14 1.253 1_556 S
C18 O19 1.227 . S
O19 C18 1.227 . S
N20 Co6 2.140 1_556 S
N20 C23 1.346 1_556 S
N20 C24 1.345 . S
C21 C22 1.366 1_556 S
C21 C25 1.391 . S
C22 C21 1.366 1_554 S
C22 C23 1.378 . S
C22 H31 0.942 . S
C23 N20 1.346 1_554 S
C23 C22 1.378 . S
C23 H26 0.928 . S
C24 N20 1.345 . S
C24 C25 1.371 . S
C24 H27 0.931 . S
C25 C21 1.391 . S
C25 C24 1.371 . S
C25 H32 0.930 . S
H26 C23 0.928 . S
H27 C24 0.931 . S
H28 C4 0.930 . S
H29 C1 0.930 . S
H30 C10 0.930 . S
H31 C22 0.942 . S
H32 C25 0.930 . S
C33 C34 1.351 . S
C33 N36 1.368 . S
C33 H38 0.931 . S
C34 C33 1.351 . S
C34 N35 1.373 . S
C34 H62 0.930 . S
N35 C34 1.373 . S
N35 C37 1.340 . S
N36 C33 1.368 . S
N36 C37 1.321 . S
N36 Co39 2.135 . S
C37 N35 1.340 . S
C37 N36 1.321 . S
C37 H61 0.930 . S
H38 C33 0.931 . S
Co39 N36 2.135 . S
Co39 N42 2.121 . S
Co39 O47 2.055 . S
Co39 O50 2.039 . S
Co39 N53 2.140 . S
C40 O41 1.227 . S
C40 O50 1.265 . S
O41 C40 1.227 . S
N42 Co39 2.121 . S
N42 C44 1.375 . S
N42 C45 1.313 . S
C43 C44 1.338 . S
C43 N46 1.377 . S
C43 H63 0.930 . S
C44 N42 1.375 . S
C44 C43 1.338 . S
C44 H48 0.931 . S
C45 N42 1.313 . S
C45 N46 1.344 . S
C45 H49 0.930 . S
N46 C43 1.377 . S
N46 C45 1.344 . S
O47 Co39 2.055 . S
O47 C51 1.253 . S
H48 C44 0.931 . S
H49 C45 0.930 . S
O50 Co39 2.039 . S
O50 C40 1.265 . S
C51 O47 1.253 . S
C51 O52 1.227 . S
O52 C51 1.227 . S
N53 Co39 2.140 . S
N53 C56 1.346 . S
N53 C57 1.345 . S
C54 C55 1.387 . S
C54 C58 1.391 . S
C55 C54 1.387 . S
C55 C56 1.369 . S
C55 H64 0.929 . S
C56 N53 1.346 . S
C56 C55 1.369 . S
C56 H59 0.928 . S
C57 N53 1.345 . S
C57 C58 1.371 . S
C57 H60 0.931 . S
C58 C54 1.391 . S
C58 C57 1.371 . S
C58 H65 0.930 . S
H59 C56 0.928 . S
H60 C57 0.931 . S
H61 C37 0.930 . S
H62 C34 0.930 . S
H63 C43 0.930 . S
H64 C55 0.929 . S
H65 C58 0.930 . S
C66 C67 1.351 . S
C66 N69 1.368 . S
C66 H71 0.931 . S
C67 C66 1.351 . S
C67 N68 1.373 . S
C67 H95 0.930 . S
N68 C67 1.373 . S
N68 C70 1.340 . S
N69 C66 1.368 . S
N69 C70 1.321 . S
N69 Co72 2.135 . S
C70 N68 1.340 . S
C70 N69 1.321 . S
C70 H94 0.930 . S
H71 C66 0.931 . S
Co72 N69 2.135 . S
Co72 N75 2.121 . S
Co72 O80 2.055 . S
Co72 O83 2.039 . S
Co72 N86 2.140 . S
C73 O74 1.227 . S
C73 O83 1.265 . S
O74 C73 1.227 . S
N75 Co72 2.121 . S
N75 C77 1.375 . S
N75 C78 1.313 . S
C76 C77 1.338 . S
C76 N79 1.377 . S
C76 H96 0.930 . S
C77 N75 1.375 . S
C77 C76 1.338 . S
C77 H81 0.931 . S
C78 N75 1.313 . S
C78 N79 1.344 . S
C78 H82 0.930 . S
N79 C76 1.377 . S
N79 C78 1.344 . S
O80 Co72 2.055 . S
O80 C84 1.253 . S
H81 C77 0.931 . S
H82 C78 0.930 . S
O83 Co72 2.039 . S
O83 C73 1.265 . S
C84 O80 1.253 . S
C84 O85 1.227 . S
O85 C84 1.227 . S
N86 Co72 2.140 . S
N86 C89 1.346 . S
N86 C90 1.345 . S
C87 C88 1.387 . S
C87 C91 1.391 . S
C88 C87 1.387 . S
C88 C89 1.369 . S
C88 H97 0.929 . S
C89 N86 1.346 . S
C89 C88 1.369 . S
C89 H92 0.928 . S
C90 N86 1.345 . S
C90 C91 1.371 . S
C90 H93 0.931 . S
C91 C87 1.391 . S
C91 C90 1.371 . S
C91 H98 0.930 . S
H92 C89 0.928 . S
H93 C90 0.931 . S
H94 C70 0.930 . S
H95 C67 0.930 . S
H96 C76 0.930 . S
H97 C88 0.929 . S
H98 C91 0.930 . S
C99 C100 1.351 . S
C99 N102 1.368 . S
C99 H104 0.931 . S
C100 C99 1.351 . S
C100 N101 1.373 . S
C100 H128 0.930 1_655 S
N101 C100 1.373 . S
N101 C103 1.340 . S
N102 C99 1.368 . S
N102 C103 1.321 . S
N102 Co105 2.135 . S
C103 N101 1.340 . S
C103 N102 1.321 . S
C103 H127 0.930 . S
H104 C99 0.931 . S
Co105 N102 2.135 . S
Co105 N108 2.121 . S
Co105 O113 2.055 . S
Co105 O116 2.039 . S
Co105 N119 2.140 . S
C106 O107 1.227 . S
C106 O116 1.265 . S
O107 C106 1.227 . S
N108 Co105 2.121 . S
N108 C110 1.375 . S
N108 C111 1.313 . S
C109 C110 1.338 . S
C109 N112 1.377 . S
C109 H129 0.930 . S
C110 N108 1.375 . S
C110 C109 1.338 . S
C110 H114 0.931 . S
C111 N108 1.313 . S
C111 N112 1.344 . S
C111 H115 0.930 . S
N112 C109 1.377 . S
N112 C111 1.344 . S
O113 Co105 2.055 . S
O113 C117 1.253 . S
H114 C110 0.931 . S
H115 C111 0.930 . S
O116 Co105 2.039 . S
O116 C106 1.265 . S
C117 O113 1.253 . S
C117 O118 1.227 . S
O118 C117 1.227 . S
N119 Co105 2.140 . S
N119 C122 1.346 . S
N119 C123 1.345 . S
C120 C121 1.387 . S
C120 C124 1.391 . S
C121 C120 1.387 . S
C121 C122 1.369 . S
C121 H130 0.929 . S
C122 N119 1.346 . S
C122 C121 1.369 . S
C122 H125 0.928 . S
C123 N119 1.345 . S
C123 C124 1.371 . S
C123 H126 0.931 . S
C124 C120 1.391 . S
C124 C123 1.371 . S
C124 H131 0.930 . S
H125 C122 0.928 . S
H126 C123 0.931 . S
H127 C103 0.930 . S
H128 C100 0.930 1_455 S
H129 C109 0.930 . S
H130 C121 0.929 . S
H131 C124 0.930 . S
C132 C133 1.351 . S
C132 N135 1.368 . S
C132 H137 0.931 . S
C133 C132 1.351 . S
C133 N134 1.373 . S
C133 H161 0.930 . S
N134 C133 1.373 . S
N134 C136 1.340 . S
N135 C132 1.368 . S
N135 C136 1.321 . S
N135 Co138 2.135 . S
C136 N134 1.340 . S
C136 N135 1.321 . S
C136 H160 0.930 . S
H137 C132 0.931 . S
Co138 N135 2.135 . S
Co138 N141 2.121 1_556 S
Co138 O146 2.055 . S
Co138 O149 2.039 . S
Co138 N152 2.140 1_556 S
C139 O140 1.227 . S
C139 O149 1.265 . S
O140 C139 1.227 . S
N141 Co138 2.121 1_554 S
N141 C143 1.375 . S
N141 C144 1.313 . S
C142 C143 1.338 . S
C142 N145 1.377 . S
C142 H162 0.930 . S
C143 N141 1.375 . S
C143 C142 1.338 . S
C143 H147 0.931 . S
C144 N141 1.313 . S
C144 N145 1.344 . S
C144 H148 0.930 . S
N145 C142 1.377 . S
N145 C144 1.344 . S
O146 Co138 2.055 . S
O146 C150 1.253 1_556 S
H147 C143 0.931 . S
H148 C144 0.930 . S
O149 Co138 2.039 . S
O149 C139 1.265 . S
C150 O146 1.253 1_554 S
C150 O151 1.227 . S
O151 C150 1.227 . S
N152 Co138 2.140 1_554 S
N152 C155 1.346 1_554 S
N152 C156 1.345 . S
C153 C154 1.366 1_554 S
C153 C157 1.391 . S
C154 C153 1.366 1_556 S
C154 C155 1.378 . S
C154 H163 0.942 . S
C155 N152 1.346 1_556 S
C155 C154 1.378 . S
C155 H158 0.928 . S
C156 N152 1.345 . S
C156 C157 1.371 . S
C156 H159 0.931 . S
C157 C153 1.391 . S
C157 C156 1.371 . S
C157 H164 0.930 . S
H158 C155 0.928 . S
H159 C156 0.931 . S
H160 C136 0.930 . S
H161 C133 0.930 . S
H162 C142 0.930 . S
H163 C154 0.942 . S
H164 C157 0.930 . S
C165 C166 1.351 . S
C165 N168 1.368 . S
C165 H170 0.931 . S
C166 C165 1.351 . S
C166 N167 1.373 . S
C166 H194 0.930 . S
N167 C166 1.373 . S
N167 C169 1.340 . S
N168 C165 1.368 . S
N168 C169 1.321 . S
N168 Co171 2.135 . S
C169 N167 1.340 . S
C169 N168 1.321 . S
C169 H193 0.930 . S
H170 C165 0.931 . S
Co171 N168 2.135 . S
Co171 N174 2.121 . S
Co171 O179 2.055 . S
Co171 O182 2.039 . S
Co171 N185 2.140 . S
C172 O173 1.227 . S
C172 O182 1.265 . S
O173 C172 1.227 . S
N174 Co171 2.121 . S
N174 C176 1.375 . S
N174 C177 1.313 . S
C175 C176 1.338 . S
C175 N178 1.377 . S
C175 H195 0.930 . S
C176 N174 1.375 . S
C176 C175 1.338 . S
C176 H180 0.931 . S
C177 N174 1.313 . S
C177 N178 1.344 . S
C177 H181 0.930 . S
N178 C175 1.377 . S
N178 C177 1.344 . S
O179 Co171 2.055 . S
O179 C183 1.253 . S
H180 C176 0.931 . S
H181 C177 0.930 . S
O182 Co171 2.039 . S
O182 C172 1.265 . S
C183 O179 1.253 . S
C183 O184 1.227 . S
O184 C183 1.227 . S
N185 Co171 2.140 . S
N185 C188 1.346 . S
N185 C189 1.345 . S
C186 C187 1.387 . S
C186 C190 1.391 . S
C187 C186 1.387 . S
C187 C188 1.369 . S
C187 H196 0.929 . S
C188 N185 1.346 . S
C188 C187 1.369 . S
C188 H191 0.928 . S
C189 N185 1.345 . S
C189 C190 1.371 . S
C189 H192 0.931 . S
C190 C186 1.391 . S
C190 C189 1.371 . S
C190 H197 0.930 . S
H191 C188 0.928 . S
H192 C189 0.931 . S
H193 C169 0.930 . S
H194 C166 0.930 . S
H195 C175 0.930 . S
H196 C187 0.929 . S
H197 C190 0.930 . S
C198 C199 1.351 . S
C198 N201 1.368 . S
C198 H203 0.931 . S
C199 C198 1.351 . S
C199 N200 1.373 . S
C199 H227 0.930 . S
N200 C199 1.373 . S
N200 C202 1.340 . S
N201 C198 1.368 . S
N201 C202 1.321 . S
N201 Co204 2.135 . S
C202 N200 1.340 . S
C202 N201 1.321 . S
C202 H226 0.930 . S
H203 C198 0.931 . S
Co204 N201 2.135 . S
Co204 N207 2.121 . S
Co204 O212 2.055 . S
Co204 O215 2.039 . S
Co204 N218 2.140 . S
C205 O206 1.227 . S
C205 O215 1.265 . S
O206 C205 1.227 . S
N207 Co204 2.121 . S
N207 C209 1.375 . S
N207 C210 1.313 . S
C208 C209 1.338 . S
C208 N211 1.377 . S
C208 H228 0.930 . S
C209 N207 1.375 . S
C209 C208 1.338 . S
C209 H213 0.931 . S
C210 N207 1.313 . S
C210 N211 1.344 . S
C210 H214 0.930 . S
N211 C208 1.377 . S
N211 C210 1.344 . S
O212 Co204 2.055 . S
O212 C216 1.253 . S
H213 C209 0.931 . S
H214 C210 0.930 . S
O215 Co204 2.039 . S
O215 C205 1.265 . S
C216 O212 1.253 . S
C216 O217 1.227 . S
O217 C216 1.227 . S
N218 Co204 2.140 . S
N218 C221 1.346 . S
N218 C222 1.345 . S
C219 C220 1.387 . S
C219 C223 1.391 . S
C220 C219 1.387 . S
C220 C221 1.369 . S
C220 H229 0.929 . S
C221 N218 1.346 . S
C221 C220 1.369 . S
C221 H224 0.928 . S
C222 N218 1.345 . S
C222 C223 1.371 . S
C222 H225 0.931 . S
C223 C219 1.391 . S
C223 C222 1.371 . S
C223 H230 0.930 . S
H224 C221 0.928 . S
H225 C222 0.931 . S
H226 C202 0.930 . S
H227 C199 0.930 . S
H228 C208 0.930 . S
H229 C220 0.929 . S
H230 C223 0.930 . S
C231 C232 1.351 . S
C231 N234 1.368 . S
C231 H236 0.931 . S
C232 C231 1.351 . S
C232 N233 1.373 . S
C232 H260 0.930 1_455 S
N233 C232 1.373 . S
N233 C235 1.340 . S
N234 C231 1.368 . S
N234 C235 1.321 . S
N234 Co237 2.135 . S
C235 N233 1.340 . S
C235 N234 1.321 . S
C235 H259 0.930 . S
H236 C231 0.931 . S
Co237 N234 2.135 . S
Co237 N240 2.121 . S
Co237 O245 2.055 . S
Co237 O248 2.039 . S
Co237 N251 2.140 . S
C238 O239 1.227 . S
C238 O248 1.265 . S
O239 C238 1.227 . S
N240 Co237 2.121 . S
N240 C242 1.375 . S
N240 C243 1.313 . S
C241 C242 1.338 . S
C241 N244 1.377 . S
C241 H261 0.930 . S
C242 N240 1.375 . S
C242 C241 1.338 . S
C242 H246 0.931 . S
C243 N240 1.313 . S
C243 N244 1.344 . S
C243 H247 0.930 . S
N244 C241 1.377 . S
N244 C243 1.344 . S
O245 Co237 2.055 . S
O245 C249 1.253 . S
H246 C242 0.931 . S
H247 C243 0.930 . S
O248 Co237 2.039 . S
O248 C238 1.265 . S
C249 O245 1.253 . S
C249 O250 1.227 . S
O250 C249 1.227 . S
N251 Co237 2.140 . S
N251 C254 1.346 . S
N251 C255 1.345 . S
C252 C253 1.387 . S
C252 C256 1.391 . S
C253 C252 1.387 . S
C253 C254 1.369 . S
C253 H262 0.929 . S
C254 N251 1.346 . S
C254 C253 1.369 . S
C254 H257 0.928 . S
C255 N251 1.345 . S
C255 C256 1.371 . S
C255 H258 0.931 . S
C256 C252 1.391 . S
C256 C255 1.371 . S
C256 H263 0.930 . S
H257 C254 0.928 . S
H258 C255 0.931 . S
H259 C235 0.930 . S
H260 C232 0.930 1_655 S
H261 C241 0.930 . S
H262 C253 0.929 . S
H263 C256 0.930 . S
C264 C265 1.351 . S
C264 N267 1.368 . S
C264 H269 0.931 . S
C265 C264 1.351 . S
C265 N266 1.373 . S
C265 H293 0.930 . S
N266 C265 1.373 . S
N266 C268 1.340 . S
N267 C264 1.368 . S
N267 C268 1.321 . S
N267 Co270 2.135 . S
C268 N266 1.340 . S
C268 N267 1.321 . S
C268 H292 0.930 . S
H269 C264 0.931 . S
Co270 N267 2.135 . S
Co270 N273 2.121 . S
Co270 O278 2.055 . S
Co270 O281 2.039 . S
Co270 N284 2.140 . S
C271 O272 1.227 . S
C271 O281 1.265 . S
O272 C271 1.227 . S
N273 Co270 2.121 . S
N273 C275 1.375 . S
N273 C276 1.313 . S
C274 C275 1.338 . S
C274 N277 1.377 . S
C274 H294 0.930 . S
C275 N273 1.375 . S
C275 C274 1.338 . S
C275 H279 0.931 . S
C276 N273 1.313 . S
C276 N277 1.344 . S
C276 H280 0.930 . S
N277 C274 1.377 . S
N277 C276 1.344 . S
O278 Co270 2.055 . S
O278 C282 1.253 . S
H279 C275 0.931 . S
H280 C276 0.930 . S
O281 Co270 2.039 . S
O281 C271 1.265 . S
C282 O278 1.253 . S
C282 O283 1.227 . S
O283 C282 1.227 . S
N284 Co270 2.140 . S
N284 C287 1.346 . S
N284 C288 1.345 . S
C285 C286 1.387 . S
C285 C289 1.391 . S
C286 C285 1.387 . S
C286 C287 1.369 . S
C286 H295 0.929 . S
C287 N284 1.346 . S
C287 C286 1.369 . S
C287 H290 0.928 . S
C288 N284 1.345 . S
C288 C289 1.371 . S
C288 H291 0.931 . S
C289 C285 1.391 . S
C289 C288 1.371 . S
C289 H296 0.930 . S
H290 C287 0.928 . S
H291 C288 0.931 . S
H292 C268 0.930 . S
H293 C265 0.930 . S
H294 C274 0.930 . S
H295 C286 0.929 . S
H296 C289 0.930 . S
C297 C298 1.351 . S
C297 N300 1.368 . S
C297 H302 0.931 . S
C298 C297 1.351 . S
C298 N299 1.373 . S
C298 H326 0.930 1_455 S
N299 C298 1.373 . S
N299 C301 1.340 . S
N300 C297 1.368 . S
N300 C301 1.321 . S
N300 Co303 2.135 . S
C301 N299 1.340 . S
C301 N300 1.321 . S
C301 H325 0.930 . S
H302 C297 0.931 . S
Co303 N300 2.135 . S
Co303 N306 2.121 . S
Co303 O311 2.055 . S
Co303 O314 2.039 . S
Co303 N317 2.140 . S
C304 O305 1.227 . S
C304 O314 1.265 . S
O305 C304 1.227 . S
N306 Co303 2.121 . S
N306 C308 1.375 . S
N306 C309 1.313 . S
C307 C308 1.338 . S
C307 N310 1.377 . S
C307 H327 0.930 . S
C308 N306 1.375 . S
C308 C307 1.338 . S
C308 H312 0.931 . S
C309 N306 1.313 . S
C309 N310 1.344 . S
C309 H313 0.930 . S
N310 C307 1.377 . S
N310 C309 1.344 . S
O311 Co303 2.055 . S
O311 C315 1.253 . S
H312 C308 0.931 . S
H313 C309 0.930 . S
O314 Co303 2.039 . S
O314 C304 1.265 . S
C315 O311 1.253 . S
C315 O316 1.227 . S
O316 C315 1.227 . S
N317 Co303 2.140 . S
N317 C320 1.346 . S
N317 C321 1.345 . S
C318 C319 1.387 . S
C318 C322 1.391 . S
C319 C318 1.387 . S
C319 C320 1.369 . S
C319 H328 0.929 1_545 S
C320 N317 1.346 . S
C320 C319 1.369 . S
C320 H323 0.928 . S
C321 N317 1.345 . S
C321 C322 1.371 . S
C321 H324 0.931 . S
C322 C318 1.391 . S
C322 C321 1.371 . S
C322 H329 0.930 . S
H323 C320 0.928 . S
H324 C321 0.931 . S
H325 C301 0.930 . S
H326 C298 0.930 1_655 S
H327 C307 0.930 . S
H328 C319 0.929 1_565 S
H329 C322 0.930 . S
C330 C331 1.351 . S
C330 N333 1.368 . S
C330 H335 0.931 . S
C331 C330 1.351 . S
C331 N332 1.373 . S
C331 H359 0.930 . S
N332 C331 1.373 . S
N332 C334 1.340 . S
N333 C330 1.368 . S
N333 C334 1.321 . S
N333 Co336 2.135 . S
C334 N332 1.340 . S
C334 N333 1.321 . S
C334 H358 0.930 . S
H335 C330 0.931 . S
Co336 N333 2.135 . S
Co336 N339 2.121 1_554 S
Co336 O344 2.055 . S
Co336 O347 2.039 . S
Co336 N350 2.140 1_554 S
C337 O338 1.227 . S
C337 O347 1.265 . S
O338 C337 1.227 . S
N339 Co336 2.121 1_556 S
N339 C341 1.375 . S
N339 C342 1.313 . S
C340 C341 1.338 . S
C340 N343 1.377 . S
C340 H360 0.930 . S
C341 N339 1.375 . S
C341 C340 1.338 . S
C341 H345 0.931 . S
C342 N339 1.313 . S
C342 N343 1.344 . S
C342 H346 0.930 . S
N343 C340 1.377 . S
N343 C342 1.344 . S
O344 Co336 2.055 . S
O344 C348 1.253 1_554 S
H345 C341 0.931 . S
H346 C342 0.930 . S
O347 Co336 2.039 . S
O347 C337 1.265 . S
C348 O344 1.253 1_556 S
C348 O349 1.227 . S
O349 C348 1.227 . S
N350 Co336 2.140 1_556 S
N350 C353 1.346 1_556 S
N350 C354 1.345 . S
C351 C352 1.366 1_556 S
C351 C355 1.391 . S
C352 C351 1.366 1_554 S
C352 C353 1.378 . S
C352 H361 0.942 . S
C353 N350 1.346 1_554 S
C353 C352 1.378 . S
C353 H356 0.928 . S
C354 N350 1.345 . S
C354 C355 1.371 . S
C354 H357 0.931 . S
C355 C351 1.391 . S
C355 C354 1.371 . S
C355 H362 0.930 . S
H356 C353 0.928 . S
H357 C354 0.931 . S
H358 C334 0.930 . S
H359 C331 0.930 . S
H360 C340 0.930 . S
H361 C352 0.942 . S
H362 C355 0.930 . S
C363 C364 1.351 . S
C363 N366 1.368 . S
C363 H368 0.931 . S
C364 C363 1.351 . S
C364 N365 1.373 . S
C364 H392 0.930 . S
N365 C364 1.373 . S
N365 C367 1.340 . S
N366 C363 1.368 . S
N366 C367 1.321 . S
N366 Co369 2.135 . S
C367 N365 1.340 . S
C367 N366 1.321 . S
C367 H391 0.930 . S
H368 C363 0.931 . S
Co369 N366 2.135 . S
Co369 N372 2.121 . S
Co369 O377 2.055 . S
Co369 O380 2.039 . S
Co369 N383 2.140 . S
C370 O371 1.227 . S
C370 O380 1.265 . S
O371 C370 1.227 . S
N372 Co369 2.121 . S
N372 C374 1.375 . S
N372 C375 1.313 . S
C373 C374 1.338 . S
C373 N376 1.377 . S
C373 H393 0.930 . S
C374 N372 1.375 . S
C374 C373 1.338 . S
C374 H378 0.931 . S
C375 N372 1.313 . S
C375 N376 1.344 . S
C375 H379 0.930 . S
N376 C373 1.377 . S
N376 C375 1.344 . S
O377 Co369 2.055 . S
O377 C381 1.253 . S
H378 C374 0.931 . S
H379 C375 0.930 . S
O380 Co369 2.039 . S
O380 C370 1.265 . S
C381 O377 1.253 . S
C381 O382 1.227 . S
O382 C381 1.227 . S
N383 Co369 2.140 . S
N383 C386 1.346 . S
N383 C387 1.345 . S
C384 C385 1.387 . S
C384 C388 1.391 . S
C385 C384 1.387 . S
C385 C386 1.369 . S
C385 H394 0.929 1_565 S
C386 N383 1.346 . S
C386 C385 1.369 . S
C386 H389 0.928 . S
C387 N383 1.345 . S
C387 C388 1.371 . S
C387 H390 0.931 . S
C388 C384 1.391 . S
C388 C387 1.371 . S
C388 H395 0.930 . S
H389 C386 0.928 . S
H390 C387 0.931 . S
H391 C367 0.930 . S
H392 C364 0.930 . S
H393 C373 0.930 . S
H394 C385 0.929 1_545 S
H395 C388 0.930 . S
C396 C397 1.351 . S
C396 N399 1.368 . S
C396 H401 0.931 . S
C397 C396 1.351 . S
C397 N398 1.373 . S
C397 H425 0.930 . S
N398 C397 1.373 . S
N398 C400 1.340 . S
N399 C396 1.368 . S
N399 C400 1.321 . S
N399 Co402 2.135 . S
C400 N398 1.340 . S
C400 N399 1.321 . S
C400 H424 0.930 . S
H401 C396 0.931 . S
Co402 N399 2.135 . S
Co402 N405 2.121 . S
Co402 O410 2.055 . S
Co402 O413 2.039 . S
Co402 N416 2.140 . S
C403 O404 1.227 . S
C403 O413 1.265 . S
O404 C403 1.227 . S
N405 Co402 2.121 . S
N405 C407 1.375 . S
N405 C408 1.313 . S
C406 C407 1.338 . S
C406 N409 1.377 . S
C406 H426 0.930 . S
C407 N405 1.375 . S
C407 C406 1.338 . S
C407 H411 0.931 . S
C408 N405 1.313 . S
C408 N409 1.344 . S
C408 H412 0.930 . S
N409 C406 1.377 . S
N409 C408 1.344 . S
O410 Co402 2.055 . S
O410 C414 1.253 . S
H411 C407 0.931 . S
H412 C408 0.930 . S
O413 Co402 2.039 . S
O413 C403 1.265 . S
C414 O410 1.253 . S
C414 O415 1.227 . S
O415 C414 1.227 . S
N416 Co402 2.140 . S
N416 C419 1.346 . S
N416 C420 1.345 . S
C417 C418 1.387 . S
C417 C421 1.391 . S
C418 C417 1.387 . S
C418 C419 1.369 . S
C418 H427 0.929 . S
C419 N416 1.346 . S
C419 C418 1.369 . S
C419 H422 0.928 . S
C420 N416 1.345 . S
C420 C421 1.371 . S
C420 H423 0.931 . S
C421 C417 1.391 . S
C421 C420 1.371 . S
C421 H428 0.930 . S
H422 C419 0.928 . S
H423 C420 0.931 . S
H424 C400 0.930 . S
H425 C397 0.930 . S
H426 C406 0.930 . S
H427 C418 0.929 . S
H428 C421 0.930 . S
C429 C430 1.351 . S
C429 N432 1.368 . S
C429 H434 0.931 . S
C430 C429 1.351 . S
C430 N431 1.373 . S
C430 H458 0.930 1_655 S
N431 C430 1.373 . S
N431 C433 1.340 . S
N432 C429 1.368 . S
N432 C433 1.321 . S
N432 Co435 2.135 . S
C433 N431 1.340 . S
C433 N432 1.321 . S
C433 H457 0.930 . S
H434 C429 0.931 . S
Co435 N432 2.135 . S
Co435 N438 2.121 . S
Co435 O443 2.055 . S
Co435 O446 2.039 . S
Co435 N449 2.140 . S
C436 O437 1.227 . S
C436 O446 1.265 . S
O437 C436 1.227 . S
N438 Co435 2.121 . S
N438 C440 1.375 . S
N438 C441 1.313 . S
C439 C440 1.338 . S
C439 N442 1.377 . S
C439 H459 0.930 . S
C440 N438 1.375 . S
C440 C439 1.338 . S
C440 H444 0.931 . S
C441 N438 1.313 . S
C441 N442 1.344 . S
C441 H445 0.930 . S
N442 C439 1.377 . S
N442 C441 1.344 . S
O443 Co435 2.055 . S
O443 C447 1.253 . S
H444 C440 0.931 . S
H445 C441 0.930 . S
O446 Co435 2.039 . S
O446 C436 1.265 . S
C447 O443 1.253 . S
C447 O448 1.227 . S
O448 C447 1.227 . S
N449 Co435 2.140 . S
N449 C452 1.346 . S
N449 C453 1.345 . S
C450 C451 1.387 . S
C450 C454 1.391 . S
C451 C450 1.387 . S
C451 C452 1.369 . S
C451 H460 0.929 1_565 S
C452 N449 1.346 . S
C452 C451 1.369 . S
C452 H455 0.928 . S
C453 N449 1.345 . S
C453 C454 1.371 . S
C453 H456 0.931 . S
C454 C450 1.391 . S
C454 C453 1.371 . S
C454 H461 0.930 . S
H455 C452 0.928 . S
H456 C453 0.931 . S
H457 C433 0.930 . S
H458 C430 0.930 1_455 S
H459 C439 0.930 . S
H460 C451 0.929 1_545 S
H461 C454 0.930 . S
C462 C463 1.351 . S
C462 N465 1.368 . S
C462 H467 0.931 . S
C463 C462 1.351 . S
C463 N464 1.373 . S
C463 H491 0.930 . S
N464 C463 1.373 . S
N464 C466 1.340 . S
N465 C462 1.368 . S
N465 C466 1.321 . S
N465 Co468 2.135 . S
C466 N464 1.340 . S
C466 N465 1.321 . S
C466 H490 0.930 . S
H467 C462 0.931 . S
Co468 N465 2.135 . S
Co468 N471 2.121 1_556 S
Co468 O476 2.055 . S
Co468 O479 2.039 . S
Co468 N482 2.140 1_556 S
C469 O470 1.227 . S
C469 O479 1.265 . S
O470 C469 1.227 . S
N471 Co468 2.121 1_554 S
N471 C473 1.375 . S
N471 C474 1.313 . S
C472 C473 1.338 . S
C472 N475 1.377 . S
C472 H492 0.930 . S
C473 N471 1.375 . S
C473 C472 1.338 . S
C473 H477 0.931 . S
C474 N471 1.313 . S
C474 N475 1.344 . S
C474 H478 0.930 . S
N475 C472 1.377 . S
N475 C474 1.344 . S
O476 Co468 2.055 . S
O476 C480 1.253 1_556 S
H477 C473 0.931 . S
H478 C474 0.930 . S
O479 Co468 2.039 . S
O479 C469 1.265 . S
C480 O476 1.253 1_554 S
C480 O481 1.227 . S
O481 C480 1.227 . S
N482 Co468 2.140 1_554 S
N482 C485 1.346 1_554 S
N482 C486 1.345 . S
C483 C484 1.366 1_554 S
C483 C487 1.391 . S
C484 C483 1.366 1_556 S
C484 C485 1.378 . S
C484 H493 0.942 . S
C485 N482 1.346 1_556 S
C485 C484 1.378 . S
C485 H488 0.928 . S
C486 N482 1.345 . S
C486 C487 1.371 . S
C486 H489 0.931 . S
C487 C483 1.391 . S
C487 C486 1.371 . S
C487 H494 0.930 . S
H488 C485 0.928 . S
H489 C486 0.931 . S
H490 C466 0.930 . S
H491 C463 0.930 . S
H492 C472 0.930 . S
H493 C484 0.942 . S
H494 C487 0.930 . S
C495 C496 1.351 . S
C495 N498 1.368 . S
C495 H500 0.931 . S
C496 C495 1.351 . S
C496 N497 1.373 . S
C496 H524 0.930 . S
N497 C496 1.373 . S
N497 C499 1.340 . S
N498 C495 1.368 . S
N498 C499 1.321 . S
N498 Co501 2.135 . S
C499 N497 1.340 . S
C499 N498 1.321 . S
C499 H523 0.930 . S
H500 C495 0.931 . S
Co501 N498 2.135 . S
Co501 N504 2.121 . S
Co501 O509 2.055 . S
Co501 O512 2.039 . S
Co501 N515 2.140 . S
C502 O503 1.227 . S
C502 O512 1.265 . S
O503 C502 1.227 . S
N504 Co501 2.121 . S
N504 C506 1.375 . S
N504 C507 1.313 . S
C505 C506 1.338 . S
C505 N508 1.377 . S
C505 H525 0.930 . S
C506 N504 1.375 . S
C506 C505 1.338 . S
C506 H510 0.931 . S
C507 N504 1.313 . S
C507 N508 1.344 . S
C507 H511 0.930 . S
N508 C505 1.377 . S
N508 C507 1.344 . S
O509 Co501 2.055 . S
O509 C513 1.253 . S
H510 C506 0.931 . S
H511 C507 0.930 . S
O512 Co501 2.039 . S
O512 C502 1.265 . S
C513 O509 1.253 . S
C513 O514 1.227 . S
O514 C513 1.227 . S
N515 Co501 2.140 . S
N515 C518 1.346 . S
N515 C519 1.345 . S
C516 C517 1.387 . S
C516 C520 1.391 . S
C517 C516 1.387 . S
C517 C518 1.369 . S
C517 H526 0.929 1_545 S
C518 N515 1.346 . S
C518 C517 1.369 . S
C518 H521 0.928 . S
C519 N515 1.345 . S
C519 C520 1.371 . S
C519 H522 0.931 . S
C520 C516 1.391 . S
C520 C519 1.371 . S
C520 H527 0.930 . S
H521 C518 0.928 . S
H522 C519 0.931 . S
H523 C499 0.930 . S
H524 C496 0.930 . S
H525 C505 0.930 . S
H526 C517 0.929 1_565 S
H527 C520 0.930 . S
H528 C536 0.950 . S
H529 C541 0.950 . S
H530 C538 0.950 . S
H531 C540 0.950 . S
H532 C542 0.950 . S
H533 C544 0.950 . S
H534 C546 0.950 . S
H535 C547 0.950 . S
C536 H528 0.950 . S
C536 C537 1.386 . S
C536 C538 1.391 . S
C537 C536 1.386 . S
C537 C541 1.393 . S
C538 H530 0.950 . S
C538 C536 1.391 . S
C538 C539 1.400 . S
C539 C538 1.400 . S
C539 C540 1.398 . S
C539 C545 1.491 . S
C540 H531 0.950 . S
C540 C539 1.398 . S
C540 C541 1.391 . S
C541 H529 0.950 . S
C541 C537 1.393 . S
C541 C540 1.391 . S
C542 H532 0.950 . S
C542 C543 1.386 . S
C542 C544 1.391 . S
C543 C542 1.386 . S
C543 C547 1.393 . S
C544 H533 0.950 . S
C544 C542 1.391 . S
C544 C545 1.400 . S
C545 C539 1.491 . S
C545 C544 1.400 . S
C545 C546 1.398 . S
C546 H534 0.950 . S
C546 C545 1.398 . S
C546 C547 1.391 . S
C547 H535 0.950 . S
C547 C543 1.393 . S
C547 C546 1.391 . S
H548 C556 0.950 . S
H549 C561 0.950 . S
H550 C558 0.950 . S
H551 C560 0.950 . S
H552 C562 0.950 1_556 S
H553 C564 0.950 . S
H554 C566 0.950 . S
H555 C567 0.950 . S
C556 H548 0.950 . S
C556 C557 1.386 . S
C556 C558 1.391 . S
C557 C556 1.386 . S
C557 C561 1.393 . S
C558 H550 0.950 . S
C558 C556 1.391 . S
C558 C559 1.400 . S
C559 C558 1.400 . S
C559 C560 1.398 . S
C559 C565 1.491 . S
C560 H551 0.950 . S
C560 C559 1.398 . S
C560 C561 1.391 . S
C561 H549 0.950 . S
C561 C557 1.393 . S
C561 C560 1.391 . S
C562 H552 0.950 1_554 S
C562 C563 1.386 . S
C562 C564 1.391 . S
C563 C562 1.386 . S
C563 C567 1.393 . S
C564 H553 0.950 . S
C564 C562 1.391 . S
C564 C565 1.400 . S
C565 C559 1.491 . S
C565 C564 1.400 . S
C565 C566 1.398 . S
C566 H554 0.950 . S
C566 C565 1.398 . S
C566 C567 1.391 . S
C567 H555 0.950 . S
C567 C563 1.393 . S
C567 C566 1.391 . S
H568 C576 0.950 . S
H569 C581 0.950 . S
H570 C578 0.950 . S
H571 C580 0.950 . S
H572 C582 0.950 . S
H573 C584 0.950 . S
H574 C586 0.950 . S
H575 C587 0.950 . S
C576 H568 0.950 . S
C576 C577 1.386 . S
C576 C578 1.391 . S
C577 C576 1.386 . S
C577 C581 1.393 . S
C578 H570 0.950 . S
C578 C576 1.391 . S
C578 C579 1.400 . S
C579 C578 1.400 . S
C579 C580 1.398 . S
C579 C585 1.491 . S
C580 H571 0.950 . S
C580 C579 1.398 . S
C580 C581 1.391 . S
C581 H569 0.950 . S
C581 C577 1.393 . S
C581 C580 1.391 . S
C582 H572 0.950 . S
C582 C583 1.386 . S
C582 C584 1.391 . S
C583 C582 1.386 . S
C583 C587 1.393 . S
C584 H573 0.950 . S
C584 C582 1.391 . S
C584 C585 1.400 . S
C585 C579 1.491 . S
C585 C584 1.400 . S
C585 C586 1.398 . S
C586 H574 0.950 . S
C586 C585 1.398 . S
C586 C587 1.391 . S
C587 H575 0.950 . S
C587 C583 1.393 . S
C587 C586 1.391 . S
H588 C596 0.950 . S
H589 C601 0.950 . S
H590 C598 0.950 . S
H591 C600 0.950 . S
H592 C602 0.950 . S
H593 C604 0.950 . S
H594 C606 0.950 . S
H595 C607 0.950 . S
C596 H588 0.950 . S
C596 C597 1.386 . S
C596 C598 1.391 . S
C597 C596 1.386 . S
C597 C601 1.393 . S
C598 H590 0.950 . S
C598 C596 1.391 . S
C598 C599 1.400 . S
C599 C598 1.400 . S
C599 C600 1.398 . S
C599 C605 1.491 . S
C600 H591 0.950 . S
C600 C599 1.398 . S
C600 C601 1.391 . S
C601 H589 0.950 . S
C601 C597 1.393 . S
C601 C600 1.391 . S
C602 H592 0.950 . S
C602 C603 1.386 . S
C602 C604 1.391 . S
C603 C602 1.386 . S
C603 C607 1.393 . S
C604 H593 0.950 . S
C604 C602 1.391 . S
C604 C605 1.400 . S
C605 C599 1.491 . S
C605 C604 1.400 . S
C605 C606 1.398 . S
C606 H594 0.950 . S
C606 C605 1.398 . S
C606 C607 1.391 . S
C607 H595 0.950 . S
C607 C603 1.393 . S
C607 C606 1.391 . S
H608 C616 0.950 . S
H609 C621 0.950 . S
H610 C618 0.950 . S
H611 C620 0.950 . S
H612 C622 0.950 . S
H613 C624 0.950 . S
H614 C626 0.950 . S
H615 C627 0.950 . S
C616 H608 0.950 . S
C616 C617 1.386 . S
C616 C618 1.391 . S
C617 C616 1.386 . S
C617 C621 1.393 . S
C618 H610 0.950 . S
C618 C616 1.391 . S
C618 C619 1.400 . S
C619 C618 1.400 . S
C619 C620 1.398 . S
C619 C625 1.491 . S
C620 H611 0.950 . S
C620 C619 1.398 . S
C620 C621 1.391 . S
C621 H609 0.950 . S
C621 C617 1.393 . S
C621 C620 1.391 . S
C622 H612 0.950 . S
C622 C623 1.386 . S
C622 C624 1.391 . S
C623 C622 1.386 . S
C623 C627 1.393 . S
C624 H613 0.950 . S
C624 C622 1.391 . S
C624 C625 1.400 . S
C625 C619 1.491 . S
C625 C624 1.400 . S
C625 C626 1.398 . S
C626 H614 0.950 . S
C626 C625 1.398 . S
C626 C627 1.391 . S
C627 H615 0.950 . S
C627 C623 1.393 . S
C627 C626 1.391 . S
H628 C636 0.950 . S
H629 C641 0.966 . S
H630 C638 0.950 . S
H631 C640 0.950 . S
H632 C642 0.950 . S
H633 C644 0.950 . S
H634 C646 0.950 . S
H635 C647 0.950 . S
C636 H628 0.950 . S
C636 C637 1.386 . S
C636 C638 1.391 . S
C637 C636 1.386 . S
C637 C641 1.393 . S
C638 H630 0.950 . S
C638 C636 1.391 . S
C638 C639 1.400 . S
C639 C638 1.400 . S
C639 C640 1.398 . S
C639 C645 1.491 . S
C640 H631 0.950 . S
C640 C639 1.398 . S
C640 C641 1.391 . S
C641 H629 0.966 . S
C641 C637 1.393 . S
C641 C640 1.391 . S
C642 H632 0.950 . S
C642 C643 1.386 . S
C642 C644 1.391 . S
C643 C642 1.386 . S
C643 C647 1.393 . S
C644 H633 0.950 . S
C644 C642 1.391 . S
C644 C645 1.400 . S
C645 C639 1.491 . S
C645 C644 1.400 . S
C645 C646 1.398 . S
C646 H634 0.950 . S
C646 C645 1.398 . S
C646 C647 1.391 . S
C647 H635 0.950 . S
C647 C643 1.393 . S
C647 C646 1.391 . S
H648 C656 0.950 1_455 S
H649 C661 0.950 . S
H650 C658 0.950 . S
H651 C660 0.950 . S
H652 C662 0.950 . S
H653 C664 0.950 . S
H654 C666 0.950 . S
H655 C667 0.950 . S
C656 H648 0.950 1_655 S
C656 C657 1.386 . S
C656 C658 1.391 . S
C657 C656 1.386 . S
C657 C661 1.393 . S
C658 H650 0.950 . S
C658 C656 1.391 . S
C658 C659 1.400 . S
C659 C658 1.400 . S
C659 C660 1.398 . S
C659 C665 1.491 . S
C660 H651 0.950 . S
C660 C659 1.398 . S
C660 C661 1.391 . S
C661 H649 0.950 . S
C661 C657 1.393 . S
C661 C660 1.391 . S
C662 H652 0.950 . S
C662 C663 1.386 . S
C662 C664 1.391 . S
C663 C662 1.386 . S
C663 C667 1.393 . S
C664 H653 0.950 . S
C664 C662 1.391 . S
C664 C665 1.400 . S
C665 C659 1.491 . S
C665 C664 1.400 . S
C665 C666 1.398 . S
C666 H654 0.950 . S
C666 C665 1.398 . S
C666 C667 1.391 . S
C667 H655 0.950 . S
C667 C663 1.393 . S
C667 C666 1.391 . S
H668 C676 0.950 . S
H669 C681 0.950 . S
H670 C678 0.950 . S
H671 C680 0.950 . S
H672 C682 0.950 . S
H673 C684 0.950 . S
H674 C686 0.950 . S
H675 C687 0.950 . S
C676 H668 0.950 . S
C676 C677 1.386 . S
C676 C678 1.391 . S
C677 C676 1.386 . S
C677 C681 1.393 . S
C678 H670 0.950 . S
C678 C676 1.391 . S
C678 C679 1.400 . S
C679 C678 1.400 . S
C679 C680 1.398 . S
C679 C685 1.491 . S
C680 H671 0.950 . S
C680 C679 1.398 . S
C680 C681 1.391 . S
C681 H669 0.950 . S
C681 C677 1.393 . S
C681 C680 1.391 . S
C682 H672 0.950 . S
C682 C683 1.386 . S
C682 C684 1.391 . S
C683 C682 1.386 . S
C683 C687 1.393 . S
C684 H673 0.950 . S
C684 C682 1.391 . S
C684 C685 1.400 . S
C685 C679 1.491 . S
C685 C684 1.400 . S
C685 C686 1.398 . S
C686 H674 0.950 . S
C686 C685 1.398 . S
C686 C687 1.391 . S
C687 H675 0.950 . S
C687 C683 1.393 . S
C687 C686 1.391 . S
H688 C696 0.950 . S
H689 C701 0.950 . S
H690 C698 0.950 . S
H691 C700 0.950 . S
H692 C702 0.957 . S
H693 C704 0.950 . S
H694 C706 0.950 . S
H695 C707 0.950 . S
C696 H688 0.950 . S
C696 C697 1.386 . S
C696 C698 1.391 . S
C697 C696 1.386 . S
C697 C701 1.393 . S
C698 H690 0.950 . S
C698 C696 1.391 . S
C698 C699 1.400 . S
C699 C698 1.400 . S
C699 C700 1.398 . S
C699 C705 1.491 . S
C700 H691 0.950 . S
C700 C699 1.398 . S
C700 C701 1.391 . S
C701 H689 0.950 . S
C701 C697 1.393 . S
C701 C700 1.391 . S
C702 H692 0.957 . S
C702 C703 1.386 . S
C702 C704 1.391 . S
C703 C702 1.386 . S
C703 C707 1.393 . S
C704 H693 0.950 . S
C704 C702 1.391 . S
C704 C705 1.400 . S
C705 C699 1.491 . S
C705 C704 1.400 . S
C705 C706 1.398 . S
C706 H694 0.950 . S
C706 C705 1.398 . S
C706 C707 1.391 . S
C707 H695 0.950 . S
C707 C703 1.393 . S
C707 C706 1.391 . S
H708 C716 0.950 . S
H709 C721 0.950 . S
H710 C718 0.950 . S
H711 C720 0.950 . S
H712 C722 0.950 . S
H713 C724 0.950 . S
H714 C726 0.950 . S
H715 C727 0.950 . S
C716 H708 0.950 . S
C716 C717 1.386 . S
C716 C718 1.391 . S
C717 C716 1.386 . S
C717 C721 1.393 . S
C718 H710 0.950 . S
C718 C716 1.391 . S
C718 C719 1.400 . S
C719 C718 1.400 . S
C719 C720 1.398 . S
C719 C725 1.491 . S
C720 H711 0.950 . S
C720 C719 1.398 . S
C720 C721 1.391 . S
C721 H709 0.950 . S
C721 C717 1.393 . S
C721 C720 1.391 . S
C722 H712 0.950 . S
C722 C723 1.386 . S
C722 C724 1.391 . S
C723 C722 1.386 . S
C723 C727 1.393 . S
C724 H713 0.950 . S
C724 C722 1.391 . S
C724 C725 1.400 . S
C725 C719 1.491 . S
C725 C724 1.400 . S
C725 C726 1.398 . S
C726 H714 0.950 . S
C726 C725 1.398 . S
C726 C727 1.391 . S
C727 H715 0.950 . S
C727 C723 1.393 . S
C727 C726 1.391 . S
H728 C736 0.950 . S
H729 C741 0.950 . S
H730 C738 0.950 . S
H731 C740 0.950 . S
H732 C742 0.950 . S
H733 C744 0.950 . S
H734 C746 0.950 . S
H735 C747 0.950 . S
C736 H728 0.950 . S
C736 C737 1.386 . S
C736 C738 1.391 . S
C737 C736 1.386 . S
C737 C741 1.393 . S
C738 H730 0.950 . S
C738 C736 1.391 . S
C738 C739 1.400 . S
C739 C738 1.400 . S
C739 C740 1.398 . S
C739 C745 1.491 . S
C740 H731 0.950 . S
C740 C739 1.398 . S
C740 C741 1.391 . S
C741 H729 0.950 . S
C741 C737 1.393 . S
C741 C740 1.391 . S
C742 H732 0.950 . S
C742 C743 1.386 . S
C742 C744 1.391 . S
C743 C742 1.386 . S
C743 C747 1.393 . S
C744 H733 0.950 . S
C744 C742 1.391 . S
C744 C745 1.400 . S
C745 C739 1.491 . S
C745 C744 1.400 . S
C745 C746 1.398 . S
C746 H734 0.950 . S
C746 C745 1.398 . S
C746 C747 1.391 . S
C747 H735 0.950 . S
C747 C743 1.393 . S
C747 C746 1.391 . S
H748 C756 0.950 . S
H749 C761 0.950 . S
H750 C758 0.950 . S
H751 C760 0.950 . S
H752 C762 0.950 . S
H753 C764 0.950 . S
H754 C766 0.950 . S
H755 C767 0.950 . S
C756 H748 0.950 . S
C756 C757 1.386 . S
C756 C758 1.391 . S
C757 C756 1.386 . S
C757 C761 1.393 . S
C758 H750 0.950 . S
C758 C756 1.391 . S
C758 C759 1.400 . S
C759 C758 1.400 . S
C759 C760 1.398 . S
C759 C765 1.491 . S
C760 H751 0.950 . S
C760 C759 1.398 . S
C760 C761 1.391 . S
C761 H749 0.950 . S
C761 C757 1.393 . S
C761 C760 1.391 . S
C762 H752 0.950 . S
C762 C763 1.386 . S
C762 C764 1.391 . S
C763 C762 1.386 . S
C763 C767 1.393 . S
C764 H753 0.950 . S
C764 C762 1.391 . S
C764 C765 1.400 . S
C765 C759 1.491 . S
C765 C764 1.400 . S
C765 C766 1.398 . S
C766 H754 0.950 . S
C766 C765 1.398 . S
C766 C767 1.391 . S
C767 H755 0.950 . S
C767 C763 1.393 . S
C767 C766 1.391 . S
H768 C776 0.950 . S
H769 C781 0.950 . S
H770 C778 0.950 . S
H771 C780 0.950 . S
H772 C782 0.950 . S
H773 C784 0.950 . S
H774 C786 0.950 . S
H775 C787 0.950 . S
C776 H768 0.950 . S
C776 C777 1.386 . S
C776 C778 1.391 . S
C777 C776 1.386 . S
C777 C781 1.393 . S
C778 H770 0.950 . S
C778 C776 1.391 . S
C778 C779 1.400 . S
C779 C778 1.400 . S
C779 C780 1.398 . S
C779 C785 1.491 . S
C780 H771 0.950 . S
C780 C779 1.398 . S
C780 C781 1.391 . S
C781 H769 0.950 . S
C781 C777 1.393 . S
C781 C780 1.391 . S
C782 H772 0.950 . S
C782 C783 1.386 . S
C782 C784 1.391 . S
C783 C782 1.386 . S
C783 C787 1.393 1_455 S
C784 H773 0.950 . S
C784 C782 1.391 . S
C784 C785 1.400 . S
C785 C779 1.491 . S
C785 C784 1.400 . S
C785 C786 1.398 . S
C786 H774 0.950 . S
C786 C785 1.398 . S
C786 C787 1.391 1_455 S
C787 H775 0.950 . S
C787 C783 1.393 1_655 S
C787 C786 1.391 1_655 S
H788 C796 0.950 . S
H789 C801 0.950 . S
H790 C798 0.950 . S
H791 C800 0.950 . S
H792 C802 0.950 . S
H793 C804 0.950 . S
H794 C806 0.950 . S
H795 C807 0.950 . S
C796 H788 0.950 . S
C796 C797 1.386 . S
C796 C798 1.391 . S
C797 C796 1.386 . S
C797 C801 1.393 . S
C798 H790 0.950 . S
C798 C796 1.391 . S
C798 C799 1.400 . S
C799 C798 1.400 . S
C799 C800 1.398 . S
C799 C805 1.491 . S
C800 H791 0.950 . S
C800 C799 1.398 . S
C800 C801 1.391 . S
C801 H789 0.950 . S
C801 C797 1.393 . S
C801 C800 1.391 . S
C802 H792 0.950 . S
C802 C803 1.386 . S
C802 C804 1.391 . S
C803 C802 1.386 . S
C803 C807 1.393 . S
C804 H793 0.950 . S
C804 C802 1.391 . S
C804 C805 1.400 . S
C805 C799 1.491 . S
C805 C804 1.400 . S
C805 C806 1.398 . S
C806 H794 0.950 . S
C806 C805 1.398 . S
C806 C807 1.391 . S
C807 H795 0.950 . S
C807 C803 1.393 . S
C807 C806 1.391 . S
H808 C816 0.950 . S
H809 C821 0.950 . S
H810 C818 0.950 . S
H811 C820 0.950 . S
H812 C822 0.950 . S
H813 C824 0.950 . S
H814 C826 0.950 . S
H815 C827 0.950 . S
C816 H808 0.950 . S
C816 C817 1.386 . S
C816 C818 1.391 . S
C817 C816 1.386 . S
C817 C821 1.393 . S
C818 H810 0.950 . S
C818 C816 1.391 . S
C818 C819 1.400 . S
C819 C818 1.400 . S
C819 C820 1.398 . S
C819 C825 1.491 . S
C820 H811 0.950 . S
C820 C819 1.398 . S
C820 C821 1.391 . S
C821 H809 0.950 . S
C821 C817 1.393 . S
C821 C820 1.391 . S
C822 H812 0.950 . S
C822 C823 1.386 . S
C822 C824 1.391 . S
C823 C822 1.386 . S
C823 C827 1.393 . S
C824 H813 0.950 . S
C824 C822 1.391 . S
C824 C825 1.400 . S
C825 C819 1.491 . S
C825 C824 1.400 . S
C825 C826 1.398 . S
C826 H814 0.950 . S
C826 C825 1.398 . S
C826 C827 1.391 . S
C827 H815 0.950 . S
C827 C823 1.393 . S
C827 C826 1.391 . S
H828 C836 0.950 . S
H829 C841 0.950 . S
H830 C838 0.950 . S
H831 C840 0.950 . S
H832 C842 0.950 1_554 S
H833 C844 0.950 . S
H834 C846 0.950 . S
H835 C847 0.950 . S
C836 H828 0.950 . S
C836 C837 1.386 . S
C836 C838 1.391 . S
C837 C836 1.386 . S
C837 C841 1.393 . S
C838 H830 0.950 . S
C838 C836 1.391 . S
C838 C839 1.400 . S
C839 C838 1.400 . S
C839 C840 1.398 . S
C839 C845 1.491 . S
C840 H831 0.950 . S
C840 C839 1.398 . S
C840 C841 1.391 . S
C841 H829 0.950 . S
C841 C837 1.393 . S
C841 C840 1.391 . S
C842 H832 0.950 1_556 S
C842 C843 1.386 . S
C842 C844 1.391 . S
C843 C842 1.386 . S
C843 C847 1.393 . S
C844 H833 0.950 . S
C844 C842 1.391 . S
C844 C845 1.400 . S
C845 C839 1.491 . S
C845 C844 1.400 . S
C845 C846 1.398 . S
C846 H834 0.950 . S
C846 C845 1.398 . S
C846 C847 1.391 . S
C847 H835 0.950 . S
C847 C843 1.393 . S
C847 C846 1.391 . S
H848 C856 0.950 . S
H849 C861 0.950 . S
H850 C858 0.950 . S
H851 C860 0.950 . S
H852 C862 0.950 . S
H853 C864 0.950 . S
H854 C866 0.950 . S
H855 C867 0.950 . S
C856 H848 0.950 . S
C856 C857 1.386 . S
C856 C858 1.391 . S
C857 C856 1.386 . S
C857 C861 1.393 . S
C858 H850 0.950 . S
C858 C856 1.391 . S
C858 C859 1.400 . S
C859 C858 1.400 . S
C859 C860 1.398 . S
C859 C865 1.491 . S
C860 H851 0.950 . S
C860 C859 1.398 . S
C860 C861 1.391 . S
C861 H849 0.950 . S
C861 C857 1.393 . S
C861 C860 1.391 . S
C862 H852 0.950 . S
C862 C863 1.386 . S
C862 C864 1.391 . S
C863 C862 1.386 . S
C863 C867 1.393 . S
C864 H853 0.950 . S
C864 C862 1.391 . S
C864 C865 1.400 . S
C865 C859 1.491 . S
C865 C864 1.400 . S
C865 C866 1.398 . S
C866 H854 0.950 . S
C866 C865 1.398 . S
C866 C867 1.391 . S
C867 H855 0.950 . S
C867 C863 1.393 . S
C867 C866 1.391 . S
H868 C876 0.950 . S
H869 C881 0.950 . S
H870 C878 0.950 . S
H871 C880 0.950 . S
H872 C882 0.950 . S
H873 C884 0.950 . S
H874 C886 0.950 . S
H875 C887 0.950 . S
C876 H868 0.950 . S
C876 C877 1.386 . S
C876 C878 1.391 . S
C877 C876 1.386 . S
C877 C881 1.393 . S
C878 H870 0.950 . S
C878 C876 1.391 . S
C878 C879 1.400 . S
C879 C878 1.400 . S
C879 C880 1.398 . S
C879 C885 1.491 . S
C880 H871 0.950 . S
C880 C879 1.398 . S
C880 C881 1.391 . S
C881 H869 0.950 . S
C881 C877 1.393 . S
C881 C880 1.391 . S
C882 H872 0.950 . S
C882 C883 1.386 . S
C882 C884 1.391 . S
C883 C882 1.386 . S
C883 C887 1.393 . S
C884 H873 0.950 . S
C884 C882 1.391 . S
C884 C885 1.400 . S
C885 C879 1.491 . S
C885 C884 1.400 . S
C885 C886 1.398 . S
C886 H874 0.950 . S
C886 C885 1.398 . S
C886 C887 1.391 . S
C887 H875 0.950 . S
C887 C883 1.393 . S
C887 C886 1.391 . S
H888 C896 0.950 . S
H889 C901 0.950 . S
H890 C898 0.950 . S
H891 C900 0.950 . S
H892 C902 0.950 . S
H893 C904 0.950 . S
H894 C906 0.950 . S
H895 C907 0.950 . S
C896 H888 0.950 . S
C896 C897 1.386 . S
C896 C898 1.391 . S
C897 C896 1.386 . S
C897 C901 1.393 . S
C898 H890 0.950 . S
C898 C896 1.391 . S
C898 C899 1.400 . S
C899 C898 1.400 . S
C899 C900 1.398 . S
C899 C905 1.491 . S
C900 H891 0.950 . S
C900 C899 1.398 . S
C900 C901 1.391 . S
C901 H889 0.950 . S
C901 C897 1.393 . S
C901 C900 1.391 . S
C902 H892 0.950 . S
C902 C903 1.386 . S
C902 C904 1.391 . S
C903 C902 1.386 . S
C903 C907 1.393 . S
C904 H893 0.950 . S
C904 C902 1.391 . S
C904 C905 1.400 . S
C905 C899 1.491 . S
C905 C904 1.400 . S
C905 C906 1.398 . S
C906 H894 0.950 . S
C906 C905 1.398 . S
C906 C907 1.391 . S
C907 H895 0.950 . S
C907 C903 1.393 . S
C907 C906 1.391 . S
H908 C916 0.950 . S
H909 C921 0.950 . S
H910 C918 0.950 . S
H911 C920 0.950 1_455 S
H912 C922 0.950 . S
H913 C924 0.950 . S
H914 C926 0.950 1_655 S
H915 C927 0.950 . S
C916 H908 0.950 . S
C916 C917 1.386 . S
C916 C918 1.391 . S
C917 C916 1.386 . S
C917 C921 1.393 . S
C918 H910 0.950 . S
C918 C916 1.391 . S
C918 C919 1.400 . S
C919 C918 1.400 . S
C919 C920 1.398 . S
C919 C925 1.491 1_656 S
C920 H911 0.950 1_655 S
C920 C919 1.398 . S
C920 C921 1.391 . S
C921 H909 0.950 . S
C921 C917 1.393 . S
C921 C920 1.391 . S
C922 H912 0.950 . S
C922 C923 1.386 . S
C922 C924 1.391 . S
C923 C922 1.386 . S
C923 C927 1.393 . S
C924 H913 0.950 . S
C924 C922 1.391 . S
C924 C925 1.400 . S
C925 C919 1.491 1_454 S
C925 C924 1.400 . S
C925 C926 1.398 . S
C926 H914 0.950 1_455 S
C926 C925 1.398 . S
C926 C927 1.391 . S
C927 H915 0.950 . S
C927 C923 1.393 . S
C927 C926 1.391 . S
H928 C936 0.950 . S
H929 C941 0.950 . S
H930 C938 0.950 . S
H931 C940 0.950 . S
H932 C942 0.950 . S
H933 C944 0.950 . S
H934 C946 0.950 . S
H935 C947 0.950 . S
C936 H928 0.950 . S
C936 C937 1.386 . S
C936 C938 1.391 . S
C937 C936 1.386 . S
C937 C941 1.393 . S
C938 H930 0.950 . S
C938 C936 1.391 . S
C938 C939 1.400 . S
C939 C938 1.400 . S
C939 C940 1.398 . S
C939 C945 1.491 . S
C940 H931 0.950 . S
C940 C939 1.398 . S
C940 C941 1.391 . S
C941 H929 0.950 . S
C941 C937 1.393 . S
C941 C940 1.391 . S
C942 H932 0.950 . S
C942 C943 1.386 . S
C942 C944 1.391 . S
C943 C942 1.386 . S
C943 C947 1.393 . S
C944 H933 0.950 . S
C944 C942 1.391 . S
C944 C945 1.400 . S
C945 C939 1.491 . S
C945 C944 1.400 . S
C945 C946 1.398 . S
C946 H934 0.950 . S
C946 C945 1.398 . S
C946 C947 1.391 . S
C947 H935 0.950 . S
C947 C943 1.393 . S
C947 C946 1.391 . S
H948 C956 0.950 . S
H949 C961 0.950 . S
H950 C958 0.950 . S
H951 C960 0.950 . S
H952 C962 0.950 . S
H953 C964 0.950 . S
H954 C966 0.950 . S
H955 C967 0.950 . S
C956 H948 0.950 . S
C956 C957 1.386 . S
C956 C958 1.391 . S
C957 C956 1.386 . S
C957 C961 1.393 . S
C958 H950 0.950 . S
C958 C956 1.391 . S
C958 C959 1.400 . S
C959 C958 1.400 . S
C959 C960 1.398 . S
C959 C965 1.491 . S
C960 H951 0.950 . S
C960 C959 1.398 . S
C960 C961 1.391 . S
C961 H949 0.950 . S
C961 C957 1.393 . S
C961 C960 1.391 . S
C962 H952 0.950 . S
C962 C963 1.386 . S
C962 C964 1.391 . S
C963 C962 1.386 . S
C963 C967 1.393 . S
C964 H953 0.950 . S
C964 C962 1.391 . S
C964 C965 1.400 . S
C965 C959 1.491 . S
C965 C964 1.400 . S
C965 C966 1.398 . S
C966 H954 0.950 . S
C966 C965 1.398 . S
C966 C967 1.391 . S
C967 H955 0.950 . S
C967 C963 1.393 . S
C967 C966 1.391 . S
H968 C976 0.934 1_455 S
H969 C981 0.950 . S
H970 C978 0.950 1_545 S
H971 C980 0.950 1_556 S
H972 C982 0.934 1_655 S
H973 C984 0.950 1_565 S
H974 C986 0.950 1_554 S
H975 C987 0.950 . S
C976 H968 0.934 1_655 S
C976 C977 1.413 . S
C976 C978 1.381 1_655 S
C977 C976 1.413 . S
C977 C981 1.393 . S
C978 H970 0.950 1_565 S
C978 C976 1.381 1_455 S
C978 C979 1.400 1_455 S
C979 C978 1.400 1_655 S
C979 C980 1.398 . S
C979 C985 1.491 1_664 S
C980 H971 0.950 1_554 S
C980 C979 1.398 . S
C980 C981 1.391 . S
C981 H969 0.950 . S
C981 C977 1.393 . S
C981 C980 1.391 . S
C982 H972 0.934 1_455 S
C982 C983 1.413 . S
C982 C984 1.381 1_455 S
C983 C982 1.413 . S
C983 C987 1.393 . S
C984 H973 0.950 1_545 S
C984 C982 1.381 1_655 S
C984 C985 1.400 1_655 S
C985 C979 1.491 1_446 S
C985 C984 1.400 1_455 S
C985 C986 1.398 . S
C986 H974 0.950 1_556 S
C986 C985 1.398 . S
C986 C987 1.391 . S
C987 H975 0.950 . S
C987 C983 1.393 . S
C987 C986 1.391 . S
H988 C996 0.950 . S
H989 C1001 0.950 . S
H990 C998 0.950 . S
H991 C1000 0.950 . S
H992 C1002 0.950 . S
H993 C1004 0.950 . S
H994 C1006 0.950 . S
H995 C1007 0.950 . S
C996 H988 0.950 . S
C996 C997 1.386 1_545 S
C996 C998 1.391 . S
C997 C996 1.386 1_565 S
C997 C1001 1.393 . S
C998 H990 0.950 . S
C998 C996 1.391 . S
C998 C999 1.400 1_545 S
C999 C998 1.400 1_565 S
C999 C1000 1.398 . S
C999 C1005 1.491 1_565 S
C1000 H991 0.950 . S
C1000 C999 1.398 . S
C1000 C1001 1.391 . S
C1001 H989 0.950 . S
C1001 C997 1.393 . S
C1001 C1000 1.391 . S
C1002 H992 0.950 . S
C1002 C1003 1.386 1_565 S
C1002 C1004 1.391 . S
C1003 C1002 1.386 1_545 S
C1003 C1007 1.393 . S
C1004 H993 0.950 . S
C1004 C1002 1.391 . S
C1004 C1005 1.400 1_565 S
C1005 C999 1.491 1_545 S
C1005 C1004 1.400 1_545 S
C1005 C1006 1.398 . S
C1006 H994 0.950 . S
C1006 C1005 1.398 . S
C1006 C1007 1.391 . S
C1007 H995 0.950 . S
C1007 C1003 1.393 . S
C1007 C1006 1.391 . S
H1008 C1016 0.950 . S
H1009 C1021 0.950 . S
H1010 C1018 0.950 . S
H1011 C1020 0.950 . S
H1012 C1022 0.950 . S
H1013 C1024 0.950 . S
H1014 C1026 0.950 . S
H1015 C1027 0.950 . S
C1016 H1008 0.950 . S
C1016 C1017 1.386 . S
C1016 C1018 1.391 . S
C1017 C1016 1.386 . S
C1017 C1021 1.393 . S
C1018 H1010 0.950 . S
C1018 C1016 1.391 . S
C1018 C1019 1.400 . S
C1019 C1018 1.400 . S
C1019 C1020 1.398 . S
C1019 C1025 1.491 . S
C1020 H1011 0.950 . S
C1020 C1019 1.398 . S
C1020 C1021 1.391 . S
C1021 H1009 0.950 . S
C1021 C1017 1.393 . S
C1021 C1020 1.391 . S
C1022 H1012 0.950 . S
C1022 C1023 1.386 . S
C1022 C1024 1.391 . S
C1023 C1022 1.386 . S
C1023 C1027 1.393 . S
C1024 H1013 0.950 . S
C1024 C1022 1.391 . S
C1024 C1025 1.400 . S
C1025 C1019 1.491 . S
C1025 C1024 1.400 . S
C1025 C1026 1.398 . S
C1026 H1014 0.950 . S
C1026 C1025 1.398 . S
C1026 C1027 1.391 . S
C1027 H1015 0.950 . S
C1027 C1023 1.393 . S
C1027 C1026 1.391 . S
H1028 C1036 0.950 . S
H1029 C1041 0.950 . S
H1030 C1038 0.950 . S
H1031 C1040 0.950 . S
H1032 C1042 0.950 . S
H1033 C1044 0.950 . S
H1034 C1046 0.950 . S
H1035 C1047 0.950 . S
C1036 H1028 0.950 . S
C1036 C1037 1.386 . S
C1036 C1038 1.391 . S
C1037 C1036 1.386 . S
C1037 C1041 1.393 . S
C1038 H1030 0.950 . S
C1038 C1036 1.391 . S
C1038 C1039 1.400 . S
C1039 C1038 1.400 . S
C1039 C1040 1.398 . S
C1039 C1045 1.491 . S
C1040 H1031 0.950 . S
C1040 C1039 1.398 . S
C1040 C1041 1.391 . S
C1041 H1029 0.950 . S
C1041 C1037 1.393 . S
C1041 C1040 1.391 . S
C1042 H1032 0.950 . S
C1042 C1043 1.386 . S
C1042 C1044 1.391 . S
C1043 C1042 1.386 . S
C1043 C1047 1.393 . S
C1044 H1033 0.950 . S
C1044 C1042 1.391 . S
C1044 C1045 1.400 . S
C1045 C1039 1.491 . S
C1045 C1044 1.400 . S
C1045 C1046 1.398 . S
C1046 H1034 0.950 . S
C1046 C1045 1.398 . S
C1046 C1047 1.391 . S
C1047 H1035 0.950 . S
C1047 C1043 1.393 . S
C1047 C1046 1.391 . S
H1048 C1056 0.950 . S
H1049 C1061 0.950 . S
H1050 C1058 0.950 . S
H1051 C1060 0.950 . S
H1052 C1062 0.950 . S
H1053 C1064 0.950 . S
H1054 C1066 0.950 . S
H1055 C1067 0.950 . S
C1056 H1048 0.950 . S
C1056 C1057 1.386 . S
C1056 C1058 1.391 . S
C1057 C1056 1.386 . S
C1057 C1061 1.393 . S
C1058 H1050 0.950 . S
C1058 C1056 1.391 . S
C1058 C1059 1.400 . S
C1059 C1058 1.400 . S
C1059 C1060 1.398 . S
C1059 C1065 1.491 . S
C1060 H1051 0.950 . S
C1060 C1059 1.398 . S
C1060 C1061 1.391 . S
C1061 H1049 0.950 . S
C1061 C1057 1.393 . S
C1061 C1060 1.391 . S
C1062 H1052 0.950 . S
C1062 C1063 1.386 . S
C1062 C1064 1.391 . S
C1063 C1062 1.386 . S
C1063 C1067 1.393 . S
C1064 H1053 0.950 . S
C1064 C1062 1.391 . S
C1064 C1065 1.400 . S
C1065 C1059 1.491 . S
C1065 C1064 1.400 . S
C1065 C1066 1.398 . S
C1066 H1054 0.950 . S
C1066 C1065 1.398 . S
C1066 C1067 1.391 . S
C1067 H1055 0.950 . S
C1067 C1063 1.393 . S
C1067 C1066 1.391 . S
H1068 C1076 0.950 . S
H1069 C1081 0.950 . S
H1070 C1078 0.950 . S
H1071 C1080 0.950 . S
H1072 C1082 0.950 . S
H1073 C1084 0.950 . S
H1074 C1086 0.950 . S
H1075 C1087 0.950 . S
C1076 H1068 0.950 . S
C1076 C1077 1.386 . S
C1076 C1078 1.391 . S
C1077 C1076 1.386 . S
C1077 C1081 1.393 . S
C1078 H1070 0.950 . S
C1078 C1076 1.391 . S
C1078 C1079 1.400 . S
C1079 C1078 1.400 . S
C1079 C1080 1.398 . S
C1079 C1085 1.491 . S
C1080 H1071 0.950 . S
C1080 C1079 1.398 . S
C1080 C1081 1.391 . S
C1081 H1069 0.950 . S
C1081 C1077 1.393 . S
C1081 C1080 1.391 . S
C1082 H1072 0.950 . S
C1082 C1083 1.386 . S
C1082 C1084 1.391 . S
C1083 C1082 1.386 . S
C1083 C1087 1.393 . S
C1084 H1073 0.950 . S
C1084 C1082 1.391 . S
C1084 C1085 1.400 . S
C1085 C1079 1.491 . S
C1085 C1084 1.400 . S
C1085 C1086 1.398 . S
C1086 H1074 0.950 . S
C1086 C1085 1.398 . S
C1086 C1087 1.391 . S
C1087 H1075 0.950 . S
C1087 C1083 1.393 . S
C1087 C1086 1.391 . S
H1088 C1096 0.950 . S
H1089 C1101 0.950 . S
H1090 C1098 0.950 . S
H1091 C1100 0.950 . S
H1092 C1102 0.950 . S
H1093 C1104 0.950 . S
H1094 C1106 0.950 . S
H1095 C1107 0.950 . S
C1096 H1088 0.950 . S
C1096 C1097 1.386 . S
C1096 C1098 1.391 . S
C1097 C1096 1.386 . S
C1097 C1101 1.393 . S
C1098 H1090 0.950 . S
C1098 C1096 1.391 . S
C1098 C1099 1.400 . S
C1099 C1098 1.400 . S
C1099 C1100 1.398 . S
C1099 C1105 1.491 . S
C1100 H1091 0.950 . S
C1100 C1099 1.398 . S
C1100 C1101 1.391 . S
C1101 H1089 0.950 . S
C1101 C1097 1.393 . S
C1101 C1100 1.391 . S
C1102 H1092 0.950 . S
C1102 C1103 1.386 . S
C1102 C1104 1.391 . S
C1103 C1102 1.386 . S
C1103 C1107 1.393 . S
C1104 H1093 0.950 . S
C1104 C1102 1.391 . S
C1104 C1105 1.400 . S
C1105 C1099 1.491 . S
C1105 C1104 1.400 . S
C1105 C1106 1.398 . S
C1106 H1094 0.950 . S
C1106 C1105 1.398 . S
C1106 C1107 1.391 . S
C1107 H1095 0.950 . S
C1107 C1103 1.393 . S
C1107 C1106 1.391 . S
H1108 C1116 0.950 . S
H1109 C1121 0.950 . S
H1110 C1118 0.950 . S
H1111 C1120 0.950 . S
H1112 C1122 0.950 . S
H1113 C1124 0.950 . S
H1114 C1126 0.950 . S
H1115 C1127 0.950 . S
C1116 H1108 0.950 . S
C1116 C1117 1.386 . S
C1116 C1118 1.391 . S
C1117 C1116 1.386 . S
C1117 C1121 1.393 . S
C1118 H1110 0.950 . S
C1118 C1116 1.391 . S
C1118 C1119 1.400 . S
C1119 C1118 1.400 . S
C1119 C1120 1.398 . S
C1119 C1125 1.491 . S
C1120 H1111 0.950 . S
C1120 C1119 1.398 . S
C1120 C1121 1.391 . S
C1121 H1109 0.950 . S
C1121 C1117 1.393 . S
C1121 C1120 1.391 . S
C1122 H1112 0.950 . S
C1122 C1123 1.386 . S
C1122 C1124 1.391 . S
C1123 C1122 1.386 . S
C1123 C1127 1.393 . S
C1124 H1113 0.950 . S
C1124 C1122 1.391 . S
C1124 C1125 1.400 . S
C1125 C1119 1.491 . S
C1125 C1124 1.400 . S
C1125 C1126 1.398 . S
C1126 H1114 0.950 . S
C1126 C1125 1.398 . S
C1126 C1127 1.391 . S
C1127 H1115 0.950 . S
C1127 C1123 1.393 . S
C1127 C1126 1.391 . S
H1128 C1136 0.950 . S
H1129 C1141 0.950 . S
H1130 C1138 0.950 . S
H1131 C1140 0.950 . S
H1132 C1142 0.950 . S
H1133 C1144 0.950 . S
H1134 C1146 0.950 . S
H1135 C1147 0.950 . S
C1136 H1128 0.950 . S
C1136 C1137 1.386 . S
C1136 C1138 1.391 . S
C1137 C1136 1.386 . S
C1137 C1141 1.393 . S
C1138 H1130 0.950 . S
C1138 C1136 1.391 . S
C1138 C1139 1.400 . S
C1139 C1138 1.400 . S
C1139 C1140 1.398 . S
C1139 C1145 1.491 . S
C1140 H1131 0.950 . S
C1140 C1139 1.398 . S
C1140 C1141 1.391 . S
C1141 H1129 0.950 . S
C1141 C1137 1.393 . S
C1141 C1140 1.391 . S
C1142 H1132 0.950 . S
C1142 C1143 1.386 . S
C1142 C1144 1.391 . S
C1143 C1142 1.386 . S
C1143 C1147 1.393 . S
C1144 H1133 0.950 . S
C1144 C1142 1.391 . S
C1144 C1145 1.400 . S
C1145 C1139 1.491 . S
C1145 C1144 1.400 . S
C1145 C1146 1.398 . S
C1146 H1134 0.950 . S
C1146 C1145 1.398 . S
C1146 C1147 1.391 . S
C1147 H1135 0.950 . S
C1147 C1143 1.393 . S
C1147 C1146 1.391 . S
H1148 C1156 0.950 . S
H1149 C1161 0.950 . S
H1150 C1158 0.950 . S
H1151 C1160 0.950 . S
H1152 C1162 0.950 . S
H1153 C1164 0.950 . S
H1154 C1166 0.950 . S
H1155 C1167 0.950 . S
C1156 H1148 0.950 . S
C1156 C1157 1.386 . S
C1156 C1158 1.391 . S
C1157 C1156 1.386 . S
C1157 C1161 1.393 . S
C1158 H1150 0.950 . S
C1158 C1156 1.391 . S
C1158 C1159 1.400 . S
C1159 C1158 1.400 . S
C1159 C1160 1.398 . S
C1159 C1165 1.491 . S
C1160 H1151 0.950 . S
C1160 C1159 1.398 . S
C1160 C1161 1.391 . S
C1161 H1149 0.950 . S
C1161 C1157 1.393 . S
C1161 C1160 1.391 . S
C1162 H1152 0.950 . S
C1162 C1163 1.386 . S
C1162 C1164 1.391 . S
C1163 C1162 1.386 . S
C1163 C1167 1.393 . S
C1164 H1153 0.950 . S
C1164 C1162 1.391 . S
C1164 C1165 1.400 . S
C1165 C1159 1.491 . S
C1165 C1164 1.400 . S
C1165 C1166 1.398 . S
C1166 H1154 0.950 . S
C1166 C1165 1.398 . S
C1166 C1167 1.391 . S
C1167 H1155 0.950 . S
C1167 C1163 1.393 . S
C1167 C1166 1.391 . S
H1168 C1176 0.950 . S
H1169 C1181 0.950 . S
H1170 C1178 0.950 . S
H1171 C1180 0.950 . S
H1172 C1182 0.950 . S
H1173 C1184 0.950 . S
H1174 C1186 0.950 . S
H1175 C1187 0.950 . S
C1176 H1168 0.950 . S
C1176 C1177 1.386 . S
C1176 C1178 1.391 . S
C1177 C1176 1.386 . S
C1177 C1181 1.393 . S
C1178 H1170 0.950 . S
C1178 C1176 1.391 . S
C1178 C1179 1.400 . S
C1179 C1178 1.400 . S
C1179 C1180 1.398 . S
C1179 C1185 1.491 . S
C1180 H1171 0.950 . S
C1180 C1179 1.398 . S
C1180 C1181 1.391 . S
C1181 H1169 0.950 . S
C1181 C1177 1.393 . S
C1181 C1180 1.391 . S
C1182 H1172 0.950 . S
C1182 C1183 1.386 . S
C1182 C1184 1.391 . S
C1183 C1182 1.386 . S
C1183 C1187 1.393 . S
C1184 H1173 0.950 . S
C1184 C1182 1.391 . S
C1184 C1185 1.400 . S
C1185 C1179 1.491 . S
C1185 C1184 1.400 . S
C1185 C1186 1.398 . S
C1186 H1174 0.950 . S
C1186 C1185 1.398 . S
C1186 C1187 1.391 . S
C1187 H1175 0.950 . S
C1187 C1183 1.393 . S
C1187 C1186 1.391 . S
H1188 C1196 0.950 . S
H1189 C1201 0.950 . S
H1190 C1198 0.950 . S
H1191 C1200 0.950 . S
H1192 C1202 0.950 . S
H1193 C1204 0.950 . S
H1194 C1206 0.950 . S
H1195 C1207 0.950 . S
C1196 H1188 0.950 . S
C1196 C1197 1.386 . S
C1196 C1198 1.391 . S
C1197 C1196 1.386 . S
C1197 C1201 1.393 . S
C1198 H1190 0.950 . S
C1198 C1196 1.391 . S
C1198 C1199 1.400 . S
C1199 C1198 1.400 . S
C1199 C1200 1.398 . S
C1199 C1205 1.491 . S
C1200 H1191 0.950 . S
C1200 C1199 1.398 . S
C1200 C1201 1.391 . S
C1201 H1189 0.950 . S
C1201 C1197 1.393 . S
C1201 C1200 1.391 . S
C1202 H1192 0.950 . S
C1202 C1203 1.386 . S
C1202 C1204 1.391 . S
C1203 C1202 1.386 . S
C1203 C1207 1.393 . S
C1204 H1193 0.950 . S
C1204 C1202 1.391 . S
C1204 C1205 1.400 . S
C1205 C1199 1.491 . S
C1205 C1204 1.400 . S
C1205 C1206 1.398 . S
C1206 H1194 0.950 . S
C1206 C1205 1.398 . S
C1206 C1207 1.391 . S
C1207 H1195 0.950 . S
C1207 C1203 1.393 . S
C1207 C1206 1.391 . S
H1208 C1216 0.950 . S
H1209 C1221 0.950 . S
H1210 C1218 0.950 . S
H1211 C1220 0.950 . S
H1212 C1222 0.950 . S
H1213 C1224 0.950 . S
H1214 C1226 0.950 . S
H1215 C1227 0.950 . S
C1216 H1208 0.950 . S
C1216 C1217 1.386 . S
C1216 C1218 1.391 . S
C1217 C1216 1.386 . S
C1217 C1221 1.393 . S
C1218 H1210 0.950 . S
C1218 C1216 1.391 . S
C1218 C1219 1.400 . S
C1219 C1218 1.400 . S
C1219 C1220 1.398 . S
C1219 C1225 1.491 . S
C1220 H1211 0.950 . S
C1220 C1219 1.398 . S
C1220 C1221 1.391 . S
C1221 H1209 0.950 . S
C1221 C1217 1.393 . S
C1221 C1220 1.391 . S
C1222 H1212 0.950 . S
C1222 C1223 1.386 . S
C1222 C1224 1.391 . S
C1223 C1222 1.386 . S
C1223 C1227 1.393 . S
C1224 H1213 0.950 . S
C1224 C1222 1.391 . S
C1224 C1225 1.400 . S
C1225 C1219 1.491 . S
C1225 C1224 1.400 . S
C1225 C1226 1.398 . S
C1226 H1214 0.950 . S
C1226 C1225 1.398 . S
C1226 C1227 1.391 . S
C1227 H1215 0.950 . S
C1227 C1223 1.393 . S
C1227 C1226 1.391 . S
H1228 C1236 0.950 . S
H1229 C1241 0.950 . S
H1230 C1238 0.950 . S
H1231 C1240 0.950 . S
H1232 C1242 0.950 . S
H1233 C1244 0.950 . S
H1234 C1246 0.950 . S
H1235 C1247 0.950 . S
C1236 H1228 0.950 . S
C1236 C1237 1.386 . S
C1236 C1238 1.391 . S
C1237 C1236 1.386 . S
C1237 C1241 1.393 . S
C1238 H1230 0.950 . S
C1238 C1236 1.391 . S
C1238 C1239 1.400 . S
C1239 C1238 1.400 . S
C1239 C1240 1.398 . S
C1239 C1245 1.491 . S
C1240 H1231 0.950 . S
C1240 C1239 1.398 . S
C1240 C1241 1.391 . S
C1241 H1229 0.950 . S
C1241 C1237 1.393 . S
C1241 C1240 1.391 . S
C1242 H1232 0.950 . S
C1242 C1243 1.386 . S
C1242 C1244 1.391 . S
C1243 C1242 1.386 . S
C1243 C1247 1.393 . S
C1244 H1233 0.950 . S
C1244 C1242 1.391 . S
C1244 C1245 1.400 . S
C1245 C1239 1.491 . S
C1245 C1244 1.400 . S
C1245 C1246 1.398 . S
C1246 H1234 0.950 . S
C1246 C1245 1.398 . S
C1246 C1247 1.391 . S
C1247 H1235 0.950 . S
C1247 C1243 1.393 . S
C1247 C1246 1.391 . S
H1248 C1256 0.950 . S
H1249 C1261 0.950 . S
H1250 C1258 0.950 . S
H1251 C1260 0.950 . S
H1252 C1262 0.950 . S
H1253 C1264 0.950 . S
H1254 C1266 0.950 . S
H1255 C1267 0.950 . S
C1256 H1248 0.950 . S
C1256 C1257 1.386 . S
C1256 C1258 1.391 . S
C1257 C1256 1.386 . S
C1257 C1261 1.393 . S
C1258 H1250 0.950 . S
C1258 C1256 1.391 . S
C1258 C1259 1.400 . S
C1259 C1258 1.400 . S
C1259 C1260 1.398 . S
C1259 C1265 1.491 . S
C1260 H1251 0.950 . S
C1260 C1259 1.398 . S
C1260 C1261 1.391 . S
C1261 H1249 0.950 . S
C1261 C1257 1.393 . S
C1261 C1260 1.391 . S
C1262 H1252 0.950 . S
C1262 C1263 1.386 . S
C1262 C1264 1.391 . S
C1263 C1262 1.386 . S
C1263 C1267 1.393 . S
C1264 H1253 0.950 . S
C1264 C1262 1.391 . S
C1264 C1265 1.400 . S
C1265 C1259 1.491 . S
C1265 C1264 1.400 . S
C1265 C1266 1.398 . S
C1266 H1254 0.950 . S
C1266 C1265 1.398 . S
C1266 C1267 1.391 . S
C1267 H1255 0.950 . S
C1267 C1263 1.393 . S
C1267 C1266 1.391 . S
H1268 C1276 0.950 . S
H1269 C1281 0.950 . S
H1270 C1278 0.950 . S
H1271 C1280 0.950 . S
H1272 C1282 0.950 . S
H1273 C1284 0.950 . S
H1274 C1286 0.950 . S
H1275 C1287 0.950 . S
C1276 H1268 0.950 . S
C1276 C1277 1.386 . S
C1276 C1278 1.391 . S
C1277 C1276 1.386 . S
C1277 C1281 1.393 . S
C1278 H1270 0.950 . S
C1278 C1276 1.391 . S
C1278 C1279 1.400 . S
C1279 C1278 1.400 . S
C1279 C1280 1.398 . S
C1279 C1285 1.491 . S
C1280 H1271 0.950 . S
C1280 C1279 1.398 . S
C1280 C1281 1.391 . S
C1281 H1269 0.950 . S
C1281 C1277 1.393 . S
C1281 C1280 1.391 . S
C1282 H1272 0.950 . S
C1282 C1283 1.386 . S
C1282 C1284 1.391 . S
C1283 C1282 1.386 . S
C1283 C1287 1.393 . S
C1284 H1273 0.950 . S
C1284 C1282 1.391 . S
C1284 C1285 1.400 . S
C1285 C1279 1.491 . S
C1285 C1284 1.400 . S
C1285 C1286 1.398 . S
C1286 H1274 0.950 . S
C1286 C1285 1.398 . S
C1286 C1287 1.391 . S
C1287 H1275 0.950 . S
C1287 C1283 1.393 . S
C1287 C1286 1.391 . S
H1288 C1296 0.950 . S
H1289 C1301 0.950 . S
H1290 C1298 0.950 . S
H1291 C1300 0.950 . S
H1292 C1302 0.950 . S
H1293 C1304 0.950 . S
H1294 C1306 0.950 . S
H1295 C1307 0.950 . S
C1296 H1288 0.950 . S
C1296 C1297 1.386 . S
C1296 C1298 1.391 . S
C1297 C1296 1.386 . S
C1297 C1301 1.393 . S
C1298 H1290 0.950 . S
C1298 C1296 1.391 . S
C1298 C1299 1.400 . S
C1299 C1298 1.400 . S
C1299 C1300 1.398 . S
C1299 C1305 1.491 . S
C1300 H1291 0.950 . S
C1300 C1299 1.398 . S
C1300 C1301 1.391 . S
C1301 H1289 0.950 . S
C1301 C1297 1.393 . S
C1301 C1300 1.391 . S
C1302 H1292 0.950 . S
C1302 C1303 1.386 . S
C1302 C1304 1.391 . S
C1303 C1302 1.386 . S
C1303 C1307 1.393 . S
C1304 H1293 0.950 . S
C1304 C1302 1.391 . S
C1304 C1305 1.400 . S
C1305 C1299 1.491 . S
C1305 C1304 1.400 . S
C1305 C1306 1.398 . S
C1306 H1294 0.950 . S
C1306 C1305 1.398 . S
C1306 C1307 1.391 . S
C1307 H1295 0.950 . S
C1307 C1303 1.393 . S
C1307 C1306 1.391 . S
H1308 C1316 0.950 . S
H1309 C1321 0.950 . S
H1310 C1318 0.950 . S
H1311 C1320 0.950 . S
H1312 C1322 0.950 . S
H1313 C1324 0.950 . S
H1314 C1326 0.950 . S
H1315 C1327 0.950 . S
C1316 H1308 0.950 . S
C1316 C1317 1.386 . S
C1316 C1318 1.391 . S
C1317 C1316 1.386 . S
C1317 C1321 1.393 . S
C1318 H1310 0.950 . S
C1318 C1316 1.391 . S
C1318 C1319 1.400 . S
C1319 C1318 1.400 . S
C1319 C1320 1.398 . S
C1319 C1325 1.491 . S
C1320 H1311 0.950 . S
C1320 C1319 1.398 . S
C1320 C1321 1.391 . S
C1321 H1309 0.950 . S
C1321 C1317 1.393 . S
C1321 C1320 1.391 . S
C1322 H1312 0.950 . S
C1322 C1323 1.386 . S
C1322 C1324 1.391 . S
C1323 C1322 1.386 . S
C1323 C1327 1.393 . S
C1324 H1313 0.950 . S
C1324 C1322 1.391 . S
C1324 C1325 1.400 . S
C1325 C1319 1.491 . S
C1325 C1324 1.400 . S
C1325 C1326 1.398 . S
C1326 H1314 0.950 . S
C1326 C1325 1.398 . S
C1326 C1327 1.391 . S
C1327 H1315 0.950 . S
C1327 C1323 1.393 . S
C1327 C1326 1.391 . S
C537 C513 1.441 . S
C543 N13 1.418 . S
C557 N46 1.411 . S
C563 C150 1.445 . S
C577 N79 1.422 . S
C583 C447 1.439 1_455 S
C597 N112 1.403 . S
C603 C216 1.454 . S
C617 N145 1.426 . S
C623 C381 1.438 . S
C637 C18 1.452 . S
C643 N178 1.408 . S
C657 C315 1.446 1_655 S
C663 N211 1.418 . S
C677 N244 1.417 . S
C683 C84 1.442 . S
C697 N277 1.411 . S
C703 C249 1.451 1_655 S
C717 N310 1.425 . S
C723 C414 1.441 . S
C737 C183 1.438 . S
C743 N343 1.427 . S
C757 N376 1.403 . S
C763 C480 1.454 . S
C777 N409 1.427 . S
C783 C117 1.440 1_455 S
C797 N442 1.426 . S
C803 C282 1.440 . S
C817 C51 1.441 . S
C823 N475 1.418 . S
C837 N508 1.423 . S
C843 C348 1.443 . S
C857 N2 1.635 . S
C863 N398 1.635 . S
C877 N167 1.615 . S
C883 N35 1.615 . S
C897 N68 1.619 . S
C903 N464 1.619 . S
C917 N101 1.614 . S
C923 N233 1.614 . S
C937 N266 1.627 . S
C943 N134 1.627 . S
C957 N332 1.632 . S
C963 N200 1.632 . S
C977 N431 1.616 . S
C983 N299 1.616 . S
C997 N365 1.632 . S
C1003 N497 1.632 . S
C1017 C304 1.293 . S
C1023 C21 1.321 . S
C1037 C54 1.321 . S
C1043 C337 1.307 . S
C1057 C87 1.321 . S
C1063 C370 1.293 . S
C1077 C271 1.311 . S
C1083 C120 1.320 . S
C1097 C153 1.321 . S
C1103 C436 1.295 . S
C1117 C186 1.320 . S
C1123 C469 1.301 . S
C1137 C219 1.319 . S
C1143 C502 1.309 . S
C1157 C252 1.319 . S
C1163 C403 1.311 . S
C1177 C40 1.308 . S
C1183 C285 1.319 . S
C1197 C318 1.320 1_565 S
C1203 C73 1.299 . S
C1217 C351 1.320 . S
C1223 C106 1.295 . S
C1237 C384 1.321 1_545 S
C1243 C7 1.293 . S
C1257 C417 1.320 . S
C1263 C172 1.312 . S
C1277 C205 1.293 . S
C1283 C450 1.321 1_545 S
C1297 C238 1.311 . S
C1303 C483 1.319 . S
C1317 C516 1.320 1_565 S
C1323 C139 1.302 . S
