# Generated by pormake.
# Topology wgu, (5)-cn, num edge types: 1
# Building blocks:
#     Node 0, Type 0, BuildingBlock: XOMCOT_clean_sbu_0, # of connection points: 5
#     Node 1, Type 0, BuildingBlock: XOMCOT_clean_sbu_0, # of connection points: 5
#     Node 2, Type 0, BuildingBlock: XOMCOT_clean_sbu_0, # of connection points: 5
#     Node 3, Type 0, BuildingBlock: XOMCOT_clean_sbu_0, # of connection points: 5
#     Node 4, Type 0, BuildingBlock: XOMCOT_clean_sbu_0, # of connection points: 5
#     Node 5, Type 0, BuildingBlock: XOMCOT_clean_sbu_0, # of connection points: 5
#     Node 6, Type 0, BuildingBlock: XOMCOT_clean_sbu_0, # of connection points: 5
#     Node 7, Type 0, BuildingBlock: XOMCOT_clean_sbu_0, # of connection points: 5
#     Edge 8, Type (0, 0), BuildingBlock: TEMPAE_clean_linker_10, # of connection points: 2
#     Edge 9, Type (0, 0), BuildingBlock: TEMPAE_clean_linker_10, # of connection points: 2
#     Edge 10, Type (0, 0), BuildingBlock: TEMPAE_clean_linker_10, # of connection points: 2
#     Edge 11, Type (0, 0), BuildingBlock: TEMPAE_clean_linker_10, # of connection points: 2
#     Edge 12, Type (0, 0), BuildingBlock: TEMPAE_clean_linker_10, # of connection points: 2
#     Edge 13, Type (0, 0), BuildingBlock: TEMPAE_clean_linker_10, # of connection points: 2
#     Edge 14, Type (0, 0), BuildingBlock: TEMPAE_clean_linker_10, # of connection points: 2
#     Edge 15, Type (0, 0), BuildingBlock: TEMPAE_clean_linker_10, # of connection points: 2
#     Edge 16, Type (0, 0), BuildingBlock: TEMPAE_clean_linker_10, # of connection points: 2
#     Edge 17, Type (0, 0), BuildingBlock: TEMPAE_clean_linker_10, # of connection points: 2
#     Edge 18, Type (0, 0), BuildingBlock: TEMPAE_clean_linker_10, # of connection points: 2
#     Edge 19, Type (0, 0), BuildingBlock: TEMPAE_clean_linker_10, # of connection points: 2
#     Edge 20, Type (0, 0), BuildingBlock: TEMPAE_clean_linker_10, # of connection points: 2
#     Edge 21, Type (0, 0), BuildingBlock: TEMPAE_clean_linker_10, # of connection points: 2
#     Edge 22, Type (0, 0), BuildingBlock: TEMPAE_clean_linker_10, # of connection points: 2
#     Edge 23, Type (0, 0), BuildingBlock: TEMPAE_clean_linker_10, # of connection points: 2
#     Edge 24, Type (0, 0), BuildingBlock: TEMPAE_clean_linker_10, # of connection points: 2
#     Edge 25, Type (0, 0), BuildingBlock: TEMPAE_clean_linker_10, # of connection points: 2
#     Edge 26, Type (0, 0), BuildingBlock: TEMPAE_clean_linker_10, # of connection points: 2
#     Edge 27, Type (0, 0), BuildingBlock: TEMPAE_clean_linker_10, # of connection points: 2
# Relax obj value: 0.157
# Max RMSD: 0.151
# Mean RMSD: 0.151
data_MOF--net-wgu--node1-XOMCOT_clean_sbu_0--edge1-TEMPAE_clean_linker_10
_symmetry_space_group_name_H-M    P1
_symmetry_Int_Tables_number       1
_symmetry_cell_setting            triclinic
loop_
_symmetry_equiv_pos_as_xyz
'x, y, z'
_cell_length_a     33.089991
_cell_length_b     33.095114
_cell_length_c     29.841133
_cell_angle_alpha  89.993441
_cell_angle_beta   89.983968
_cell_angle_gamma 89.989007
loop_
_atom_site_label
_atom_site_type_symbol
_atom_site_fract_x
_atom_site_fract_y
_atom_site_fract_z
_atom_type_partial_charge
Co0 Co 0.30526 0.38118 0.09971 0.0
C1 C 0.32536 0.30061 0.0674 0.0
C2 C 0.36763 0.31887 0.11776 0.0
C3 C 0.37418 0.27861 0.10782 0.0
N4 N 0.33738 0.33279 0.09166 0.0
N5 N 0.34736 0.26727 0.07613 0.0
H6 H 0.29846 0.30048 0.04693 0.0
H7 H 0.38243 0.33612 0.14379 0.0
C8 C 0.38814 0.41194 0.06937 0.0
O9 O 0.39875 0.37559 0.05636 0.0
N10 N 0.27103 0.42839 0.10814 0.0
C11 C 0.23396 0.42876 0.12698 0.0
C12 C 0.21823 0.46694 0.12416 0.0
C13 C 0.2771 0.4667 0.09381 0.0
N14 N 0.24528 0.49103 0.10343 0.0
C15 C 0.24664 0.36616 0.03233 0.0
C16 C 0.29807 0.36528 0.95942 0.0
C17 C 0.25876 0.35015 0.95438 0.0
C18 C 0.2325 0.35213 0.99109 0.0
C19 C 0.3112 0.37868 1.00151 0.0
N20 N 0.28612 0.37717 0.03789 0.0
H21 H 0.22633 0.36565 0.06062 0.0
H22 H 0.34205 0.38796 1.00472 0.0
H23 H 0.21834 0.40293 0.14071 0.0
H24 H 0.30392 0.47642 0.07618 0.0
O25 O 0.26533 0.34671 0.12788 0.0
O26 O 0.31431 0.37885 0.16398 0.0
O27 O 0.35232 0.41871 0.0841 0.0
C28 C 0.28329 0.35473 0.16554 0.0
H29 H 0.39579 0.25892 0.12405 0.0
H30 H 0.18829 0.47563 0.13506 0.0
H31 H 0.31925 0.36461 0.93174 0.0
H32 H 0.20159 0.34162 0.98837 0.0
Co33 Co 0.63574 0.31607 0.54139 0.0
C34 C 0.71837 0.32204 0.50822 0.0
C35 C 0.70372 0.37309 0.54925 0.0
C36 C 0.74462 0.37363 0.54069 0.0
N37 N 0.6871 0.34118 0.52801 0.0
N38 N 0.75376 0.34119 0.51533 0.0
H39 H 0.71584 0.29269 0.49248 0.0
H40 H 0.68779 0.39271 0.57226 0.0
C41 C 0.61104 0.40146 0.50995 0.0
O42 O 0.64721 0.40936 0.4942 0.0
N43 N 0.58459 0.28995 0.55585 0.0
C44 C 0.56982 0.28222 0.5972 0.0
C45 C 0.53291 0.26363 0.59327 0.0
C46 C 0.55579 0.27641 0.52736 0.0
N47 N 0.52424 0.25982 0.54941 0.0
C48 C 0.63667 0.25373 0.47544 0.0
C49 C 0.6435 0.3027 0.40086 0.0
C50 C 0.64883 0.26086 0.39563 0.0
C51 C 0.64399 0.23626 0.43356 0.0
C52 C 0.63591 0.31895 0.44338 0.0
N53 N 0.63368 0.29468 0.48031 0.0
H54 H 0.63472 0.23431 0.50447 0.0
H55 H 0.63421 0.35115 0.44645 0.0
H56 H 0.58446 0.28938 0.62853 0.0
H57 H 0.55733 0.27912 0.49129 0.0
O58 O 0.66521 0.272 0.5689 0.0
O59 O 0.64533 0.32713 0.6046 0.0
O60 O 0.60283 0.36654 0.52627 0.0
C61 C 0.66416 0.29253 0.60598 0.0
H62 H 0.76645 0.39394 0.5556 0.0
H63 H 0.51414 0.25315 0.62062 0.0
H64 H 0.64728 0.32309 0.37279 0.0
H65 H 0.64688 0.20374 0.43122 0.0
Co66 Co 0.69607 0.64707 0.09685 0.0
C67 C 0.68995 0.7288 0.06057 0.0
C68 C 0.64215 0.71757 0.10735 0.0
C69 C 0.64195 0.75807 0.09649 0.0
N70 N 0.67177 0.69905 0.084 0.0
N71 N 0.67236 0.76507 0.06742 0.0
H72 H 0.71724 0.72442 0.04123 0.0
H73 H 0.62369 0.70315 0.13263 0.0
C74 C 0.60933 0.6246 0.06878 0.0
O75 O 0.60154 0.66129 0.05455 0.0
N76 N 0.72153 0.5955 0.11038 0.0
C77 C 0.74157 0.58468 0.14793 0.0
C78 C 0.75578 0.54598 0.14298 0.0
C79 C 0.72359 0.56279 0.08332 0.0
N80 N 0.74458 0.53217 0.10235 0.0
C81 C 0.7562 0.6426 0.02854 0.0
C82 C 0.70551 0.65456 0.95618 0.0
C83 C 0.74742 0.65617 0.94929 0.0
C84 C 0.77285 0.64871 0.98596 0.0
C85 C 0.6901 0.64804 0.99924 0.0
N86 N 0.71535 0.6435 0.03509 0.0
H87 H 0.77625 0.63907 0.05686 0.0
H88 H 0.65799 0.64924 1.00372 0.0
H89 H 0.7463 0.60331 0.17711 0.0
H90 H 0.71007 0.56156 0.05034 0.0
O91 O 0.74151 0.67598 0.12214 0.0
O92 O 0.68725 0.65704 0.16027 0.0
O93 O 0.64449 0.6154 0.08371 0.0
C94 C 0.72191 0.67579 0.15993 0.0
H95 H 0.62288 0.78102 0.11137 0.0
H96 H 0.774 0.52974 0.16712 0.0
H97 H 0.68471 0.65958 0.92871 0.0
H98 H 0.8054 0.64979 0.98233 0.0
Co99 Co 0.37074 0.70501 0.55865 0.0
C100 C 0.28783 0.67575 0.54276 0.0
C101 C 0.32193 0.63358 0.58167 0.0
C102 C 0.28196 0.62143 0.58146 0.0
N103 N 0.32553 0.66774 0.55724 0.0
N104 N 0.26081 0.64812 0.55674 0.0
H105 H 0.27897 0.70312 0.52616 0.0
H106 H 0.34611 0.62008 0.60094 0.0
C107 C 0.40397 0.6287 0.51795 0.0
O108 O 0.37058 0.62577 0.49435 0.0
N109 N 0.41489 0.74281 0.56115 0.0
C110 C 0.41116 0.78305 0.55577 0.0
C111 C 0.44841 0.80056 0.56097 0.0
C112 C 0.45443 0.73618 0.5693 0.0
N113 N 0.47554 0.77116 0.5695 0.0
C114 C 0.33193 0.74781 0.48751 0.0
C115 C 0.38376 0.72744 0.4188 0.0
C116 C 0.35117 0.75344 0.40959 0.0
C117 C 0.32508 0.76318 0.44486 0.0
C118 C 0.38925 0.71212 0.46239 0.0
N119 N 0.36244 0.72104 0.49594 0.0
H120 H 0.31261 0.75851 0.51398 0.0
H121 H 0.41596 0.6945 0.46915 0.0
H122 H 0.38322 0.79864 0.54836 0.0
H123 H 0.46742 0.70665 0.57524 0.0
O124 O 0.33639 0.74484 0.58678 0.0
O125 O 0.37219 0.6993 0.62367 0.0
O126 O 0.40958 0.65948 0.54322 0.0
C127 C 0.34708 0.72958 0.62496 0.0
H128 H 0.26918 0.59626 0.59979 0.0
H129 H 0.45523 0.8324 0.55755 0.0
H130 H 0.40558 0.72007 0.39302 0.0
H131 H 0.29944 0.78301 0.4399 0.0
Co132 Co 0.81169 0.14746 0.95229 0.0
C133 C 0.81846 0.22927 0.98805 0.0
C134 C 0.86649 0.21736 0.94178 0.0
C135 C 0.86713 0.25788 0.95259 0.0
N136 N 0.83647 0.19924 0.96491 0.0
N137 N 0.83656 0.26527 0.98132 0.0
H138 H 0.79092 0.22532 1.00709 0.0
H139 H 0.885 0.20265 0.91673 0.0
C140 C 0.89783 0.12426 0.98199 0.0
O141 O 0.90578 0.16114 0.99546 0.0
N142 N 0.78566 0.09614 0.93904 0.0
C143 C 0.76371 0.08607 0.90258 0.0
C144 C 0.74971 0.04731 0.90752 0.0
C145 C 0.7848 0.06301 0.96552 0.0
N146 N 0.7629 0.03273 0.94709 0.0
C147 C 0.75086 0.14434 0.01995 0.0
C148 C 0.80103 0.15617 0.09277 0.0
C149 C 0.75909 0.15865 0.09915 0.0
C150 C 0.73389 0.15121 0.06226 0.0
C151 C 0.81674 0.149 0.04997 0.0
N152 N 0.79178 0.14457 0.01386 0.0
H153 H 0.73102 0.14086 0.99144 0.0
H154 H 0.8489 0.14964 0.04589 0.0
H155 H 0.7574 0.10528 0.87424 0.0
H156 H 0.79978 0.06125 0.99769 0.0
O157 O 0.7669 0.17682 0.92617 0.0
O158 O 0.82114 0.1568 0.88877 0.0
O159 O 0.8628 0.1152 0.96654 0.0
C160 C 0.78674 0.17608 0.88856 0.0
H161 H 0.8866 0.2806 0.93792 0.0
H162 H 0.73024 0.03157 0.88421 0.0
H163 H 0.82167 0.16105 0.12041 0.0
H164 H 0.70134 0.15289 0.06546 0.0
Co165 Co 0.87819 0.8086 0.5068 0.0
C166 C 0.79714 0.82463 0.54076 0.0
C167 C 0.81613 0.87137 0.49576 0.0
C168 C 0.77558 0.87629 0.50438 0.0
N169 N 0.82982 0.83934 0.51926 0.0
N170 N 0.76363 0.84655 0.53233 0.0
H171 H 0.79694 0.79587 0.55803 0.0
H172 H 0.83376 0.88826 0.47164 0.0
C173 C 0.90977 0.89096 0.53863 0.0
O174 O 0.87383 0.90119 0.55329 0.0
N175 N 0.92594 0.77646 0.49329 0.0
C176 C 0.93349 0.75527 0.45545 0.0
C177 C 0.96786 0.73281 0.46126 0.0
C178 C 0.95675 0.76712 0.52125 0.0
N179 N 0.98227 0.74002 0.50262 0.0
C180 C 0.87306 0.74669 0.5728 0.0
C181 C 0.86783 0.79586 0.64735 0.0
C182 C 0.86048 0.75432 0.65247 0.0
C183 C 0.86449 0.72954 0.61456 0.0
C184 C 0.87661 0.81175 0.60496 0.0
N185 N 0.87795 0.78744 0.56801 0.0
H186 H 0.8743 0.72725 0.54373 0.0
H187 H 0.87997 0.8438 0.60203 0.0
H188 H 0.91535 0.75512 0.42545 0.0
H189 H 0.95962 0.77864 0.55505 0.0
O190 O 0.84388 0.768 0.47983 0.0
O191 O 0.87043 0.81987 0.44333 0.0
O192 O 0.91597 0.85566 0.52208 0.0
C193 C 0.84722 0.788 0.44253 0.0
H194 H 0.75599 0.89849 0.489 0.0
H195 H 0.98135 0.71266 0.43689 0.0
H196 H 0.8648 0.81639 0.6754 0.0
H197 H 0.86005 0.69719 0.61682 0.0
Co198 Co 0.20586 0.88572 0.96713 0.0
C199 C 0.19488 0.80507 1.00483 0.0
C200 C 0.14648 0.81947 0.95996 0.0
C201 C 0.14315 0.77947 0.97222 0.0
N202 N 0.17843 0.83573 0.98133 0.0
N203 N 0.17394 0.77028 1.0002 0.0
H204 H 0.22368 0.80745 0.02169 0.0
H205 H 0.12807 0.83508 0.93551 0.0
C206 C 0.12131 0.91375 0.99702 0.0
O207 O 0.11285 0.87845 0.0147 0.0
N208 N 0.23452 0.93528 0.95251 0.0
C209 C 0.25535 0.94419 0.91483 0.0
C210 C 0.27316 0.98141 0.91975 0.0
C211 C 0.23953 0.96771 0.97948 0.0
N212 N 0.26337 0.99608 0.96042 0.0
C213 C 0.26727 0.88322 0.0333 0.0
C214 C 0.21786 0.87914 0.10765 0.0
C215 C 0.25901 0.86949 0.1126 0.0
C216 C 0.28399 0.87322 0.07481 0.0
C217 C 0.20223 0.88841 0.06527 0.0
N218 N 0.22659 0.88854 0.02834 0.0
H219 H 0.28686 0.8841 1.00436 0.0
H220 H 0.17035 0.89327 0.06236 0.0
H221 H 0.25812 0.92524 0.88559 0.0
H222 H 0.22701 0.96995 1.0129 0.0
O223 O 0.24898 0.85363 0.94187 0.0
O224 O 0.19576 0.87533 0.90387 0.0
O225 O 0.1563 0.92068 0.98014 0.0
C226 C 0.22925 0.85454 0.90431 0.0
H227 H 0.12065 0.7586 0.95983 0.0
H228 H 0.29185 0.99656 0.89517 0.0
H229 H 0.19745 0.87822 0.13599 0.0
H230 H 0.3159 0.8662 0.07642 0.0
Co231 Co 0.14908 0.19574 0.50747 0.0
C232 C 0.23401 0.17626 0.48795 0.0
C233 C 0.19871 0.1225 0.4829 0.0
C234 C 0.23843 0.11324 0.47233 0.0
N235 N 0.19624 0.16199 0.49447 0.0
N236 N 0.26012 0.14749 0.47507 0.0
H237 H 0.24271 0.20753 0.49138 0.0
H238 H 0.17356 0.10189 0.48039 0.0
C239 C 0.11887 0.11562 0.5427 0.0
O240 O 0.1513 0.11328 0.56798 0.0
N241 N 0.10336 0.23031 0.51905 0.0
C242 C 0.10515 0.26567 0.54135 0.0
C243 C 0.06688 0.28139 0.54441 0.0
C244 C 0.06416 0.22526 0.5079 0.0
N245 N 0.04125 0.25606 0.52341 0.0
C246 C 0.20002 0.21584 0.58225 0.0
C247 C 0.14341 0.20309 0.64875 0.0
C248 C 0.18109 0.21944 0.66046 0.0
C249 C 0.20967 0.22522 0.62651 0.0
C250 C 0.13515 0.1935 0.60387 0.0
N251 N 0.16345 0.19962 0.57106 0.0
H252 H 0.22131 0.22433 0.55691 0.0
H253 H 0.10523 0.18299 0.59521 0.0
H254 H 0.13245 0.27883 0.5549 0.0
H255 H 0.0526 0.19948 0.48963 0.0
O256 O 0.17834 0.24231 0.4858 0.0
O257 O 0.14093 0.202 0.44346 0.0
O258 O 0.11366 0.1463 0.51718 0.0
C259 C 0.16514 0.23296 0.44611 0.0
H260 H 0.25014 0.08413 0.4621 0.0
H261 H 0.05848 0.3095 0.56049 0.0
H262 H 0.12019 0.19861 0.67385 0.0
H263 H 0.23858 0.23917 0.63362 0.0
C264 C 0.2521 0.05574 1.00854 0.0
C265 C 0.27706 0.0336 0.97962 0.0
C266 C 0.26454 0.09333 0.02558 0.0
C267 C 0.30302 0.10881 0.01377 0.0
C268 C 0.32874 0.08604 0.98553 0.0
C269 C 0.31537 0.04882 0.96869 0.0
C270 C 0.23613 0.11692 0.05529 0.0
C271 C 0.37015 0.10126 0.97257 0.0
C272 C 0.31919 0.22226 0.01814 0.0
C273 C 0.33894 0.2272 0.05944 0.0
C274 C 0.30726 0.18399 1.003 0.0
C275 C 0.31583 0.14954 0.02944 0.0
C276 C 0.33676 0.15405 0.07054 0.0
C277 C 0.34797 0.19285 0.08512 0.0
C278 C 0.28496 0.18055 0.95897 0.0
C279 C 0.34674 0.11795 0.09943 0.0
H280 H 0.22238 0.04419 0.01678 0.0
H281 H 0.33505 0.03144 0.94701 0.0
H282 H 0.25117 0.12442 0.08744 0.0
H283 H 0.22807 0.1459 0.03885 0.0
H284 H 0.20786 0.10004 0.06261 0.0
H285 H 0.38714 0.07904 0.95196 0.0
H286 H 0.36727 0.12975 0.95324 0.0
H287 H 0.38806 0.10817 1.00305 0.0
H288 H 0.31275 0.24848 0.99764 0.0
H289 H 0.36279 0.1963 0.11722 0.0
H290 H 0.25484 0.16669 0.96452 0.0
H291 H 0.3018 0.1605 0.93576 0.0
H292 H 0.28063 0.21034 0.94245 0.0
H293 H 0.31845 0.10281 0.11023 0.0
H294 H 0.3643 0.12641 0.12973 0.0
H295 H 0.36443 0.09558 0.07987 0.0
C296 C 0.97888 0.25565 0.47818 0.0
C297 C 0.99837 0.26168 0.51929 0.0
C298 C 0.93789 0.26586 0.47279 0.0
C299 C 0.91602 0.28168 0.50968 0.0
C300 C 0.93527 0.28593 0.55178 0.0
C301 C 0.97629 0.27625 0.5559 0.0
C302 C 0.91849 0.26132 0.42732 0.0
C303 C 0.91287 0.30179 0.59225 0.0
C304 C 0.82569 0.35132 0.49779 0.0
C305 C 0.79366 0.32525 0.50788 0.0
C306 C 0.86555 0.33695 0.49547 0.0
C307 C 0.87355 0.29566 0.50436 0.0
C308 C 0.84109 0.26889 0.5129 0.0
C309 C 0.80148 0.28399 0.51429 0.0
C310 C 0.89926 0.36636 0.48555 0.0
C311 C 0.84837 0.22484 0.52332 0.0
H312 H 0.99619 0.24467 0.44986 0.0
H313 H 0.99143 0.28043 0.58776 0.0
H314 H 0.89006 0.24373 0.43002 0.0
H315 H 0.91043 0.29159 0.41403 0.0
H316 H 0.93877 0.24613 0.4029 0.0
H317 H 0.93153 0.30068 0.62317 0.0
H318 H 0.90362 0.33357 0.58635 0.0
H319 H 0.88494 0.28396 0.59791 0.0
H320 H 0.81952 0.38313 0.49259 0.0
H321 H 0.77684 0.26386 0.5228 0.0
H322 H 0.91943 0.35409 0.45913 0.0
H323 H 0.91784 0.37084 0.51609 0.0
H324 H 0.88768 0.39624 0.47448 0.0
H325 H 0.86881 0.21115 0.49808 0.0
H326 H 0.81981 0.20721 0.52429 0.0
H327 H 0.86342 0.22215 0.55642 0.0
C328 C 0.75202 0.98804 1.01258 0.0
C329 C 0.75328 0.99373 0.966 0.0
C330 C 0.74005 0.95085 0.03109 0.0
C331 C 0.72888 0.91868 1.00232 0.0
C332 C 0.73091 0.92397 0.95534 0.0
C333 C 0.74326 0.96128 0.93781 0.0
C334 C 0.7386 0.94619 0.08139 0.0
C335 C 0.71942 0.89039 0.9235 0.0
C336 C 0.72793 0.81031 0.04418 0.0
C337 C 0.68659 0.80381 0.05192 0.0
C338 C 0.74222 0.84779 0.02895 0.0
C339 C 0.7145 0.87957 0.02109 0.0
C340 C 0.67279 0.87339 0.02932 0.0
C341 C 0.65937 0.83561 0.04478 0.0
C342 C 0.78696 0.85328 0.02093 0.0
C343 C 0.64226 0.90644 0.02098 0.0
H344 H 0.75934 0.01296 0.03464 0.0
H345 H 0.74494 0.96505 0.90183 0.0
H346 H 0.70707 0.94042 0.09226 0.0
H347 H 0.75695 0.91977 0.09188 0.0
H348 H 0.74996 0.97345 0.09909 0.0
H349 H 0.72296 0.8993 0.88782 0.0
H350 H 0.73839 0.86335 0.92986 0.0
H351 H 0.68752 0.88145 0.92922 0.0
H352 H 0.74929 0.78621 0.05056 0.0
H353 H 0.62742 0.83066 0.05048 0.0
H354 H 0.79833 0.87939 0.04052 0.0
H355 H 0.79251 0.86 0.98503 0.0
H356 H 0.80468 0.82604 0.03028 0.0
H357 H 0.65046 0.93388 0.04028 0.0
H358 H 0.61112 0.89723 0.03043 0.0
H359 H 0.64243 0.91483 0.98497 0.0
C360 C 0.04558 0.74488 0.5456 0.0
C361 C 0.01754 0.72163 0.52184 0.0
C362 C 0.08343 0.72878 0.55729 0.0
C363 C 0.09294 0.68839 0.54534 0.0
C364 C 0.06327 0.66387 0.5248 0.0
C365 C 0.02603 0.68091 0.51299 0.0
C366 C 0.11432 0.75593 0.57912 0.0
C367 C 0.07186 0.6205 0.51228 0.0
C368 C 0.20188 0.66959 0.51321 0.0
C369 C 0.21773 0.65231 0.55227 0.0
C370 C 0.1612 0.68074 0.51044 0.0
C371 C 0.13545 0.67403 0.54759 0.0
C372 C 0.15069 0.65462 0.58638 0.0
C373 C 0.19183 0.64401 0.58832 0.0
C374 C 0.1462 0.70109 0.46825 0.0
C375 C 0.12398 0.64654 0.62638 0.0
H376 H 0.03891 0.77635 0.55237 0.0
H377 H 1.0039 0.66277 0.49534 0.0
H378 H 0.12901 0.74032 0.60769 0.0
H379 H 0.13831 0.76343 0.55448 0.0
H380 H 0.10071 0.78458 0.59135 0.0
H381 H 0.04386 0.60387 0.50324 0.0
H382 H 0.09263 0.61974 0.4831 0.0
H383 H 0.087 0.60447 0.54028 0.0
H384 H 0.22184 0.67552 0.48518 0.0
H385 H 0.20411 0.63102 0.61873 0.0
H386 H 0.13518 0.73193 0.47624 0.0
H387 H 0.1204 0.68397 0.45404 0.0
H388 H 0.17009 0.70353 0.44222 0.0
H389 H 0.11565 0.67559 0.64246 0.0
H390 H 0.13916 0.62718 0.65172 0.0
H391 H 0.09551 0.63167 0.61575 0.0
C392 C 0.76355 0.46047 0.11103 0.0
C393 C 0.75509 0.49354 0.08311 0.0
C394 C 0.77644 0.42341 0.09332 0.0
C395 C 0.78065 0.41903 0.04639 0.0
C396 C 0.77127 0.45191 0.01783 0.0
C397 C 0.75869 0.48882 0.03654 0.0
C398 C 0.786 0.38904 0.12493 0.0
C399 C 0.77509 0.44826 0.96758 0.0
C400 C 0.85015 0.33521 1.00563 0.0
C401 C 0.82258 0.30415 0.99656 0.0
C402 C 0.8369 0.373 0.02125 0.0
C403 C 0.79503 0.37998 0.02747 0.0
C404 C 0.76699 0.34899 0.01746 0.0
C405 C 0.78111 0.31143 1.00229 0.0
C406 C 0.86776 0.40517 0.032 0.0
C407 C 0.72209 0.35536 0.02317 0.0
H408 H 0.76013 0.46352 0.14694 0.0
H409 H 0.75264 0.51425 0.01471 0.0
H410 H 0.76673 0.36255 0.11707 0.0
H411 H 0.8179 0.37948 0.12054 0.0
H412 H 0.78125 0.3974 0.1606 0.0
H413 H 0.76533 0.47617 0.94995 0.0
H414 H 0.80694 0.44183 0.95845 0.0
H415 H 0.7566 0.42257 0.95533 0.0
H416 H 0.88218 0.32958 1.00141 0.0
H417 H 0.75958 0.28786 0.99439 0.0
H418 H 0.86623 0.41283 0.06817 0.0
H419 H 0.86098 0.43318 1.01301 0.0
H420 H 0.89905 0.39542 0.02394 0.0
H421 H 0.71507 0.3614 0.0589 0.0
H422 H 0.7042 0.32878 1.01206 0.0
H423 H 0.7122 0.38218 1.00373 0.0
C424 C 0.53329 0.81225 0.59384 0.0
C425 C 0.51841 0.7768 0.57417 0.0
C426 C 0.57454 0.82161 0.59249 0.0
C427 C 0.60151 0.79491 0.57069 0.0
C428 C 0.58706 0.75776 0.55334 0.0
C429 C 0.54556 0.74907 0.55543 0.0
C430 C 0.58878 0.86129 0.61186 0.0
C431 C 0.61494 0.72847 0.52991 0.0
C432 C 0.69122 0.84359 0.51326 0.0
C433 C 0.72279 0.83502 0.5431 0.0
C434 C 0.65175 0.83042 0.52185 0.0
C435 C 0.64355 0.80816 0.56133 0.0
C436 C 0.67516 0.79958 0.59181 0.0
C437 C 0.71445 0.81312 0.5823 0.0
C438 C 0.61886 0.84011 0.48841 0.0
C439 C 0.66747 0.77612 0.63436 0.0
H440 H 0.51236 0.83333 0.60911 0.0
H441 H 0.53407 0.72172 0.54009 0.0
H442 H 0.61592 0.85665 0.63306 0.0
H443 H 0.59748 0.88198 0.58423 0.0
H444 H 0.56503 0.87626 0.63229 0.0
H445 H 0.60012 0.69891 0.5235 0.0
H446 H 0.62455 0.74147 0.49733 0.0
H447 H 0.64261 0.72332 0.5501 0.0
H448 H 0.6975 0.85972 0.48248 0.0
H449 H 0.73873 0.80664 0.60556 0.0
H450 H 0.59472 0.85808 0.50481 0.0
H451 H 0.60483 0.81176 0.47609 0.0
H452 H 0.63036 0.85739 0.45914 0.0
H453 H 0.64518 0.79239 0.65547 0.0
H454 H 0.69549 0.7714 0.65419 0.0
H455 H 0.65425 0.7462 0.62624 0.0
C456 C 0.20944 0.55597 0.11357 0.0
C457 C 0.23935 0.53307 0.09177 0.0
C458 C 0.20025 0.59544 0.09998 0.0
C459 C 0.22222 0.61315 0.06443 0.0
C460 C 0.2539 0.59122 0.04374 0.0
C461 C 0.26187 0.55133 0.05737 0.0
C462 C 0.16598 0.61764 0.12269 0.0
C463 C 0.27861 0.60949 1.00635 0.0
C464 C 0.16982 0.69549 0.9975 0.0
C465 C 0.1855 0.73085 0.01688 0.0
C466 C 0.18164 0.65711 1.01259 0.0
C467 C 0.21043 0.65377 0.04746 0.0
C468 C 0.22661 0.68913 0.06711 0.0
C469 C 0.21362 0.72715 0.052 0.0
C470 C 0.16309 0.62007 0.99134 0.0
C471 C 0.25767 0.68682 0.10412 0.0
H472 H 0.19259 0.54293 0.14105 0.0
H473 H 0.28499 0.53422 0.04014 0.0
H474 H 0.17671 0.64702 0.13601 0.0
H475 H 0.14187 0.62425 0.09791 0.0
H476 H 0.15258 0.60002 0.15067 0.0
H477 H 0.30455 0.59004 0.99668 0.0
H478 H 0.25924 0.61411 0.97646 0.0
H479 H 0.29029 0.63956 0.01651 0.0
H480 H 0.14853 0.69755 0.97012 0.0
H481 H 0.22551 0.75396 0.06799 0.0
H482 H 0.14766 0.60165 0.01729 0.0
H483 H 0.18706 0.60094 0.97633 0.0
H484 H 0.14082 0.62782 0.96484 0.0
H485 H 0.24463 0.67139 0.13377 0.0
H486 H 0.26854 0.71715 0.1146 0.0
H487 H 0.28398 0.66864 0.09292 0.0
C488 C 0.33058 0.12987 0.49213 0.0
C489 C 0.30269 0.15382 0.46901 0.0
C490 C 0.37063 0.14305 0.49795 0.0
C491 C 0.38268 0.1809 0.48008 0.0
C492 C 0.35572 0.20271 0.45233 0.0
C493 C 0.31599 0.18892 0.44727 0.0
C494 C 0.39867 0.1185 0.52707 0.0
C495 C 0.36707 0.2429 0.432 0.0
C496 C 0.4517 0.24428 0.55297 0.0
C497 C 0.48881 0.24105 0.5307 0.0
C498 C 0.41712 0.22484 0.53666 0.0
C499 C 0.41973 0.20114 0.49723 0.0
C500 C 0.45708 0.1979 0.47432 0.0
C501 C 0.49121 0.21816 0.49122 0.0
C502 C 0.37771 0.22983 0.56167 0.0
C503 C 0.46094 0.17294 0.43224 0.0
H504 H 0.32016 0.1028 0.50898 0.0
H505 H 0.29434 0.20716 0.42896 0.0
H506 H 0.4296 0.11787 0.51272 0.0
H507 H 0.40065 0.13266 0.56071 0.0
H508 H 0.3878 0.08697 0.53124 0.0
H509 H 0.34849 0.24954 0.40189 0.0
H510 H 0.36159 0.26714 0.45698 0.0
H511 H 0.39942 0.24393 0.42241 0.0
H512 H 0.44969 0.2624 0.58311 0.0
H513 H 0.52 0.21533 0.47421 0.0
H514 H 0.36619 0.19989 0.57244 0.0
H515 H 0.35464 0.2434 0.53926 0.0
H516 H 0.38087 0.24933 0.59177 0.0
H517 H 0.45226 0.14118 0.43926 0.0
H518 H 0.49215 0.17333 0.41851 0.0
H519 H 0.43993 0.18446 0.40624 0.0
C520 C 0.57882 0.55888 0.09442 0.0
C521 C 0.57678 0.59351 0.06734 0.0
C522 C 0.54729 0.53027 0.09481 0.0
C523 C 0.51317 0.53583 0.0667 0.0
C524 C 0.51129 0.57038 0.03874 0.0
C525 C 0.54281 0.59894 0.03976 0.0
C526 C 0.55032 0.49425 0.12567 0.0
C527 C 0.47607 0.57706 1.00744 0.0
C528 C 0.4521 0.44145 0.03834 0.0
C529 C 0.41841 0.44517 0.06667 0.0
C530 C 0.48253 0.47111 0.03727 0.0
C531 C 0.47986 0.5051 0.06597 0.0
C532 C 0.44569 0.5093 0.09432 0.0
C533 C 0.41517 0.47955 0.09396 0.0
C534 C 0.51779 0.46584 1.00566 0.0
C535 C 0.44187 0.54468 0.12594 0.0
H536 H 0.60476 0.55452 0.11607 0.0
H537 H 0.541 0.62544 0.01851 0.0
H538 H 0.52367 0.49329 0.14823 0.0
H539 H 0.5502 0.46593 0.10581 0.0
H540 H 0.57816 0.49492 0.14645 0.0
H541 H 0.47941 0.60509 0.98729 0.0
H542 H 0.47314 0.55101 0.98425 0.0
H543 H 0.44754 0.579 0.02685 0.0
H544 H 0.45478 0.41517 0.01686 0.0
H545 H 0.38941 0.48258 0.11616 0.0
H546 H 0.5462 0.46263 0.02506 0.0
H547 H 0.52106 0.49299 0.98415 0.0
H548 H 0.51433 0.4389 0.98379 0.0
H549 H 0.46773 0.5448 0.14963 0.0
H550 H 0.41333 0.54381 0.14553 0.0
H551 H 0.44301 0.57347 0.10696 0.0
C552 C 0.54379 0.43005 0.53418 0.0
C553 C 0.57961 0.43386 0.50926 0.0
C554 C 0.5151 0.46154 0.53569 0.0
C555 C 0.52198 0.49766 0.51126 0.0
C556 C 0.55772 0.50137 0.48542 0.0
C557 C 0.58609 0.46966 0.48495 0.0
C558 C 0.47765 0.45637 0.56401 0.0
C559 C 0.56611 0.53899 0.45835 0.0
C560 C 0.43142 0.56489 0.4836 0.0
C561 C 0.43491 0.59592 0.5155 0.0
C562 C 0.45956 0.533 0.48169 0.0
C563 C 0.49192 0.53161 0.51275 0.0
C564 C 0.49568 0.56288 0.54499 0.0
C565 C 0.46735 0.59469 0.54581 0.0
C566 C 0.45464 0.50073 0.44636 0.0
C567 C 0.52948 0.56253 0.57896 0.0
H568 H 0.53849 0.4027 0.55329 0.0
H569 H 0.61351 0.47301 0.46543 0.0
H570 H 0.4764 0.48043 0.58987 0.0
H571 H 0.45025 0.45957 0.5429 0.0
H572 H 0.47666 0.42651 0.58098 0.0
H573 H 0.59476 0.53682 0.43908 0.0
H574 H 0.54096 0.54457 0.43455 0.0
H575 H 0.56792 0.5656 0.48087 0.0
H576 H 0.40661 0.56548 0.45991 0.0
H577 H 0.47033 0.61832 0.57074 0.0
H578 H 0.45075 0.47079 0.46252 0.0
H579 H 0.48226 0.49905 0.42536 0.0
H580 H 0.42826 0.50643 0.42421 0.0
H581 H 0.52813 0.53435 0.59905 0.0
H582 H 0.52805 0.58879 0.60209 0.0
H583 H 0.55912 0.56289 0.5616 0.0
C584 C 0.09193 0.97845 0.96664 0.0
C585 C 0.0895 0.9457 0.99642 0.0
C586 C 0.06069 1.00734 0.96393 0.0
C587 C 0.02645 1.00398 0.99231 0.0
C588 C 0.02429 0.97146 0.02312 0.0
C589 C 0.05554 0.94261 0.02449 0.0
C590 C 0.06404 0.04113 0.93016 0.0
C591 C 0.9889 0.96712 0.05471 0.0
C592 C 0.96374 0.09906 1.0131 0.0
C593 C 0.92995 0.09278 0.98546 0.0
C594 C 0.99499 0.07031 0.01601 0.0
C595 C 0.99301 0.03454 0.99001 0.0
C596 C 0.95898 0.02799 0.96202 0.0
C597 C 0.92773 0.05693 0.96043 0.0
C598 C 0.03014 0.0782 0.04707 0.0
C599 C 0.95584 0.99062 0.93325 0.0
H600 H 0.11785 0.98101 0.94459 0.0
H601 H 0.05339 0.91759 0.0478 0.0
H602 H 0.03782 0.04024 0.907 0.0
H603 H 0.06328 0.07077 0.94749 0.0
H604 H 0.09227 0.03926 0.91011 0.0
H605 H 0.99228 0.94084 0.07758 0.0
H606 H 0.98561 0.9949 0.0752 0.0
H607 H 0.96055 0.9634 0.03533 0.0
H608 H 0.96571 0.12648 0.03284 0.0
H609 H 0.90191 0.05184 0.93881 0.0
H610 H 0.05867 0.07955 0.02761 0.0
H611 H 0.03315 0.05301 0.07139 0.0
H612 H 0.02668 0.10691 0.06596 0.0
H613 H 0.98227 0.9888 0.91043 0.0
H614 H 0.9278 0.99023 0.9128 0.0
H615 H 0.95636 0.96321 0.95463 0.0
C616 C 0.97906 0.91644 0.51693 0.0
C617 C 0.94294 0.92143 0.54101 0.0
C618 C 0.00899 0.94682 0.5167 0.0
C619 C 1.00292 0.9829 0.54149 0.0
C620 C 0.96697 0.98758 0.56671 0.0
C621 C 0.9375 0.95701 0.566 0.0
C622 C 0.04674 0.94068 0.48916 0.0
C623 C 0.95934 0.02521 0.59409 0.0
C624 C 0.09262 0.04972 0.57305 0.0
C625 C 0.08936 0.08154 0.5421 0.0
C626 C 0.06512 0.01725 0.57287 0.0
C627 C 0.03364 0.01619 0.5407 0.0
C628 C 0.03045 0.04798 0.50904 0.0
C629 C 0.05813 0.08029 0.51026 0.0
C630 C 0.06939 0.98434 0.60759 0.0
C631 C 0.99755 0.04803 0.474 0.0
H632 H 0.98356 0.88921 0.49738 0.0
H633 H 0.90989 0.96123 0.58498 0.0
H634 H 0.04872 0.96441 0.46297 0.0
H635 H 0.07391 0.94369 0.51067 0.0
H636 H 0.04745 0.91061 0.47263 0.0
H637 H 0.93054 0.02361 0.61314 0.0
H638 H 0.98447 0.03003 0.61811 0.0
H639 H 0.95826 0.05199 0.57177 0.0
H640 H 0.11653 0.0503 0.59785 0.0
H641 H 0.05537 0.10454 0.48603 0.0
H642 H 0.07225 0.95449 0.59098 0.0
H643 H 0.04188 0.98326 0.62882 0.0
H644 H 0.09607 0.98899 0.62959 0.0
H645 H 0.99862 0.01958 0.45436 0.0
H646 H 1.00019 0.07397 0.45056 0.0
H647 H 0.96752 0.04939 0.49049 0.0
C648 C 0.24706 0.36342 0.23779 0.0
C649 C 0.26785 0.33834 0.20794 0.0
C650 C 0.22916 0.34752 0.27671 0.0
C651 C 0.23321 0.30577 0.2864 0.0
C652 C 0.25511 0.28058 0.25658 0.0
C653 C 0.27159 0.29711 0.21723 0.0
C654 C 0.2053 0.37521 0.30698 0.0
C655 C 0.26113 0.23621 0.26625 0.0
C656 C 0.21918 0.2719 0.4072 0.0
C657 C 0.18101 0.25353 0.40576 0.0
C658 C 0.23655 0.28887 0.36862 0.0
C659 C 0.21476 0.28846 0.3278 0.0
C660 C 0.17569 0.27089 0.32644 0.0
C661 C 0.15953 0.25304 0.36532 0.0
C662 C 0.27866 0.30628 0.37132 0.0
C663 C 0.15108 0.27076 0.28387 0.0
H664 H 0.24385 0.39527 0.22999 0.0
H665 H 0.28762 0.27787 0.19376 0.0
H666 H 0.17389 0.36386 0.31037 0.0
H667 H 0.21877 0.37549 0.34101 0.0
H668 H 0.20428 0.40671 0.29417 0.0
H669 H 0.28031 0.22118 0.24063 0.0
H670 H 0.27546 0.23229 0.29959 0.0
H671 H 0.23146 0.22064 0.26738 0.0
H672 H 0.23617 0.27185 0.43826 0.0
H673 H 0.13001 0.23887 0.36415 0.0
H674 H 0.27852 0.33833 0.36049 0.0
H675 H 0.29899 0.28963 0.3482 0.0
H676 H 0.29138 0.3046 0.40572 0.0
H677 H 0.14812 0.302 0.27073 0.0
H678 H 0.12035 0.25804 0.28901 0.0
H679 H 0.1667 0.25265 0.25783 0.0
C680 C 0.79484 0.2045 0.8111 0.0
C681 C 0.7698 0.19445 0.84732 0.0
C682 C 0.77881 0.2221 0.77199 0.0
C683 C 0.7366 0.22886 0.76862 0.0
C684 C 0.71122 0.21854 0.8051 0.0
C685 C 0.72818 0.20193 0.84415 0.0
C686 C 0.80702 0.23347 0.73428 0.0
C687 C 0.66601 0.22432 0.8026 0.0
C688 C 0.69358 0.30267 0.68265 0.0
C689 C 0.68278 0.27665 0.64758 0.0
C690 C 0.71195 0.28769 0.72185 0.0
C691 C 0.71871 0.24559 0.72652 0.0
C692 C 0.70748 0.21922 0.69126 0.0
C693 C 0.69015 0.23512 0.65206 0.0
C694 C 0.72427 0.31692 0.75818 0.0
C695 C 0.71323 0.17409 0.6952 0.0
H696 H 0.82708 0.19907 0.81355 0.0
H697 H 0.70864 0.19401 0.87195 0.0
H698 H 0.79962 0.21565 0.70389 0.0
H699 H 0.80305 0.26584 0.72559 0.0
H700 H 0.83922 0.22814 0.74298 0.0
H701 H 0.65046 0.21458 0.83378 0.0
H702 H 0.65879 0.25657 0.79643 0.0
H703 H 0.65359 0.20678 0.77406 0.0
H704 H 0.68826 0.33484 0.67916 0.0
H705 H 0.68167 0.21484 0.62513 0.0
H706 H 0.75691 0.31331 0.76577 0.0
H707 H 0.70742 0.31025 0.78945 0.0
H708 H 0.71853 0.34885 0.74865 0.0
H709 H 0.74566 0.16696 0.70028 0.0
H710 H 0.70243 0.15767 0.66503 0.0
H711 H 0.69663 0.16257 0.72488 0.0
C712 C 0.81796 0.73231 0.39657 0.0
C713 C 0.82784 0.77331 0.4009 0.0
C714 C 0.80037 0.71728 0.35714 0.0
C715 C 0.7914 0.7441 0.32151 0.0
C716 C 0.80062 0.78574 0.32605 0.0
C717 C 0.81928 0.79977 0.36549 0.0
C718 C 0.79204 0.67254 0.35333 0.0
C719 C 0.79066 0.81545 0.2893 0.0
C720 C 0.78119 0.69968 0.2044 0.0
C721 C 0.7393 0.69421 0.20081 0.0
C722 C 0.7985 0.71602 0.24337 0.0
C723 C 0.77322 0.72821 0.27924 0.0
C724 C 0.73077 0.72367 0.2753 0.0
C725 C 0.71435 0.7062 0.23636 0.0
C726 C 0.84392 0.71934 0.24658 0.0
C727 C 0.70271 0.73714 0.3123 0.0
H728 H 0.82481 0.71168 0.42376 0.0
H729 H 0.82663 0.83154 0.3689 0.0
H730 H 0.75933 0.66731 0.34768 0.0
H731 H 0.80839 0.65991 0.32403 0.0
H732 H 0.8014 0.65566 0.38379 0.0
H733 H 0.79806 0.84705 0.29882 0.0
H734 H 0.80766 0.80768 0.25845 0.0
H735 H 0.75801 0.8137 0.281 0.0
H736 H 0.80061 0.69024 0.17707 0.0
H737 H 0.68192 0.70234 0.23352 0.0
H738 H 0.85497 0.70124 0.2754 0.0
H739 H 0.85282 0.75116 0.25272 0.0
H740 H 0.85931 0.7086 0.2157 0.0
H741 H 0.70835 0.71902 0.34294 0.0
H742 H 0.67039 0.73391 0.30291 0.0
H743 H 0.70866 0.76921 0.3209 0.0
C744 C 0.28766 0.82934 0.85981 0.0
C745 C 0.24581 0.8348 0.86386 0.0
C746 C 0.30447 0.8112 0.82162 0.0
C747 C 0.27871 0.79705 0.78717 0.0
C748 C 0.23627 0.80165 0.79158 0.0
C749 C 0.22034 0.82108 0.82963 0.0
C750 C 0.34988 0.80806 0.8177 0.0
C751 C 0.20776 0.78607 0.75609 0.0
C752 C 0.32102 0.78751 0.6693 0.0
C753 C 0.33104 0.74642 0.66717 0.0
C754 C 0.3044 0.80438 0.70829 0.0
C755 C 0.2964 0.77926 0.74565 0.0
C756 C 0.30613 0.73756 0.74353 0.0
C757 C 0.32397 0.72172 0.70446 0.0
C758 C 0.29571 0.84917 0.70957 0.0
C759 C 0.29711 0.70962 0.78224 0.0
H760 H 0.30745 0.84019 0.88615 0.0
H761 H 0.18794 0.82494 0.83296 0.0
H762 H 0.35898 0.77604 0.81346 0.0
H763 H 0.36031 0.82468 0.78754 0.0
H764 H 0.36566 0.82053 0.8475 0.0
H765 H 0.17556 0.78951 0.76595 0.0
H766 H 0.21272 0.80263 0.72424 0.0
H767 H 0.21388 0.75365 0.7494 0.0
H768 H 0.32667 0.80668 0.6405 0.0
H769 H 0.33129 0.68983 0.70257 0.0
H770 H 0.31194 0.8633 0.73809 0.0
H771 H 0.26295 0.85438 0.71494 0.0
H772 H 0.30491 0.8647 0.67817 0.0
H773 H 0.31401 0.71943 0.81242 0.0
H774 H 0.30526 0.67776 0.77474 0.0
H775 H 0.26446 0.71102 0.79061 0.0
C776 C 0.79813 0.64865 0.88679 0.0
C777 C 0.76441 0.66845 0.90501 0.0
C778 C 0.81503 0.66107 0.84574 0.0
C779 C 0.7981 0.69438 0.82251 0.0
C780 C 0.7641 0.7145 0.8408 0.0
C781 C 0.74764 0.70124 0.88165 0.0
C782 C 0.85101 0.63856 0.8272 0.0
C783 C 0.74531 0.75036 0.81743 0.0
C784 C 0.86148 0.7521 0.73703 0.0
C785 C 0.84627 0.73743 0.69622 0.0
C786 C 0.84653 0.73798 0.77832 0.0
C787 C 0.81574 0.70823 0.77901 0.0
C788 C 0.80079 0.69274 0.73801 0.0
C789 C 0.81605 0.7076 0.69725 0.0
C790 C 0.86321 0.75542 0.82125 0.0
C791 C 0.76799 0.66103 0.73716 0.0
H792 H 0.81111 0.62317 0.9045 0.0
H793 H 0.72206 0.7172 0.89587 0.0
H794 H 0.84374 0.62638 0.79351 0.0
H795 H 0.87692 0.65952 0.82313 0.0
H796 H 0.86047 0.61315 0.84915 0.0
H797 H 0.719 0.76271 0.83607 0.0
H798 H 0.76809 0.77469 0.81346 0.0
H799 H 0.73521 0.7416 0.78335 0.0
H800 H 0.88513 0.77475 0.73675 0.0
H801 H 0.80344 0.69653 0.66608 0.0
H802 H 0.87518 0.73088 0.84282 0.0
H803 H 0.83868 0.77059 0.84022 0.0
H804 H 0.88773 0.77766 0.81508 0.0
H805 H 0.77706 0.6346 0.75771 0.0
H806 H 0.76117 0.6505 0.70264 0.0
H807 H 0.7399 0.67346 0.75208 0.0
C808 C 0.32944 0.81115 0.36048 0.0
C809 C 0.34419 0.77145 0.36428 0.0
C810 C 0.31773 0.82725 0.319 0.0
C811 C 0.32194 0.80364 0.27976 0.0
C812 C 0.33899 0.76442 0.28281 0.0
C813 C 0.34965 0.74866 0.32506 0.0
C814 C 0.29934 0.86902 0.31748 0.0
C815 C 0.34486 0.73866 0.24158 0.0
C816 C 0.25124 0.82801 0.18288 0.0
C817 C 0.27523 0.8532 0.15584 0.0
C818 C 0.26617 0.81153 0.22298 0.0
C819 C 0.3065 0.81947 0.23613 0.0
C820 C 0.33121 0.84415 0.20873 0.0
C821 C 0.31518 0.8611 0.16932 0.0
C822 C 0.23855 0.78589 0.25155 0.0
C823 C 0.37459 0.85281 0.22115 0.0
H824 H 0.32626 0.82961 0.39026 0.0
H825 H 0.36095 0.718 0.32748 0.0
H826 H 0.31634 0.8885 0.29385 0.0
H827 H 0.2678 0.8671 0.305 0.0
H828 H 0.29901 0.88384 0.35087 0.0
H829 H 0.36205 0.71059 0.24892 0.0
H830 H 0.31502 0.73013 0.22755 0.0
H831 H 0.36114 0.75597 0.21534 0.0
H832 H 0.22076 0.82063 0.17251 0.0
H833 H 0.33402 0.88081 0.14925 0.0
H834 H 0.23561 0.79947 0.28541 0.0
H835 H 0.25164 0.75529 0.2559 0.0
H836 H 0.20789 0.78278 0.23679 0.0
H837 H 0.37569 0.87037 0.25278 0.0
H838 H 0.39068 0.87013 0.19472 0.0
H839 H 0.39104 0.82408 0.22711 0.0
C840 C 0.16183 0.25755 0.73007 0.0
C841 C 0.18996 0.23378 0.70676 0.0
C842 C 0.17175 0.27541 0.77141 0.0
C843 C 0.21063 0.26915 0.79007 0.0
C844 C 0.23858 0.24392 0.7675 0.0
C845 C 0.22797 0.22668 0.72611 0.0
C846 C 0.1411 0.30213 0.79435 0.0
C847 C 0.28015 0.23601 0.78646 0.0
C848 C 0.25324 0.34788 0.87041 0.0
C849 C 0.24594 0.32995 0.91218 0.0
C850 C 0.24155 0.32858 0.83047 0.0
C851 C 0.22263 0.29016 0.83231 0.0
C852 C 0.21559 0.27177 0.87444 0.0
C853 C 0.22712 0.29197 0.91382 0.0
C854 C 0.24947 0.3493 0.78626 0.0
C855 C 0.19625 0.23057 0.87793 0.0
H856 H 0.13261 0.26359 0.71509 0.0
H857 H 0.2497 0.20803 0.70846 0.0
H858 H 0.13609 0.29175 0.82926 0.0
H859 H 0.15278 0.33352 0.79613 0.0
H860 H 0.11161 0.30249 0.77657 0.0
H861 H 0.29743 0.21379 0.76617 0.0
H862 H 0.29752 0.26466 0.78775 0.0
H863 H 0.27776 0.22453 0.82129 0.0
H864 H 0.2677 0.37724 0.86903 0.0
H865 H 0.22212 0.27765 0.94603 0.0
H866 H 0.22068 0.35331 0.76773 0.0
H867 H 0.26945 0.33023 0.76518 0.0
H868 H 0.2639 0.37936 0.79057 0.0
H869 H 0.16605 0.23095 0.86181 0.0
H870 H 0.19275 0.22051 0.91324 0.0
H871 H 0.21488 0.20797 0.85982 0.0
C872 C 0.75948 0.20408 0.1665 0.0
C873 C 0.74195 0.17173 0.1431 0.0
C874 C 0.74316 0.21791 0.20718 0.0
C875 C 0.70844 0.19889 0.22525 0.0
C876 C 0.69061 0.16614 0.20189 0.0
C877 C 0.70745 0.15307 0.16104 0.0
C878 C 0.76297 0.25313 0.2307 0.0
C879 C 0.65378 0.14485 0.22014 0.0
C880 C 0.691 0.2123 0.35057 0.0
C881 C 0.66205 0.24337 0.35177 0.0
C882 C 0.70558 0.19695 0.30972 0.0
C883 C 0.6912 0.21314 0.26881 0.0
C884 C 0.66156 0.24405 0.26966 0.0
C885 C 0.64731 0.25871 0.31104 0.0
C886 C 0.73718 0.16403 0.31041 0.0
C887 C 0.64544 0.26219 0.22682 0.0
H888 H 0.78564 0.21922 0.1525 0.0
H889 H 0.69384 0.12794 0.14333 0.0
H890 H 0.74092 0.27813 0.23475 0.0
H891 H 0.77277 0.24394 0.26476 0.0
H892 H 0.78966 0.26475 0.21215 0.0
H893 H 0.64342 0.12 0.19791 0.0
H894 H 0.66056 0.13211 0.2537 0.0
H895 H 0.62867 0.16672 0.2244 0.0
H896 H 0.70325 0.20066 0.38167 0.0
H897 H 0.62463 0.28233 0.31146 0.0
H898 H 0.76572 0.17547 0.29557 0.0
H899 H 0.72716 0.13804 0.28973 0.0
H900 H 0.7436 0.1531 0.34489 0.0
H901 H 0.67042 0.27678 0.20802 0.0
H902 H 0.62154 0.28508 0.2331 0.0
H903 H 0.63284 0.23813 0.20505 0.0
loop_
_geom_bond_atom_site_label_1
_geom_bond_atom_site_label_2
_geom_bond_distance
_geom_bond_site_symmetry_2
_ccdc_geom_bond_type
Co0 N4 2.148 . S
Co0 N10 2.128 . S
Co0 N20 2.194 1_554 S
Co0 O25 2.351 . S
Co0 O26 2.155 . S
Co0 O27 2.096 . S
C1 N4 1.301 . S
C1 N5 1.328 . S
C1 H6 0.930 . S
C2 C3 1.333 . S
C2 N4 1.317 . S
C2 H7 0.930 . S
C3 C2 1.333 . S
C3 N5 1.350 . S
C3 H29 0.931 . S
N4 Co0 2.148 . S
N4 C1 1.301 . S
N4 C2 1.317 . S
N5 C1 1.328 . S
N5 C3 1.350 . S
H6 C1 0.930 . S
H7 C2 0.930 . S
C8 O9 1.224 1_554 S
C8 O27 1.247 . S
O9 C8 1.224 1_556 S
N10 Co0 2.128 . S
N10 C11 1.355 . S
N10 C13 1.311 . S
C11 N10 1.355 . S
C11 C12 1.363 . S
C11 H23 0.929 . S
C12 C11 1.363 . S
C12 N14 1.375 . S
C12 H30 0.931 . S
C13 N10 1.311 . S
C13 N14 1.347 . S
C13 H24 0.929 . S
N14 C12 1.375 . S
N14 C13 1.347 . S
C15 C18 1.365 . S
C15 N20 1.328 . S
C15 H21 0.928 1_556 S
C16 C17 1.362 . S
C16 C19 1.378 . S
C16 H31 0.929 . S
C17 C16 1.362 . S
C17 C18 1.366 . S
C18 C15 1.365 . S
C18 C17 1.366 . S
C18 H32 0.930 . S
C19 C16 1.378 . S
C19 N20 1.315 . S
C19 H22 0.930 . S
N20 Co0 2.194 1_556 S
N20 C15 1.328 . S
N20 C19 1.315 . S
H21 C15 0.928 1_554 S
H22 C19 0.930 . S
H23 C11 0.929 . S
H24 C13 0.929 . S
O25 Co0 2.351 . S
O25 C28 1.244 . S
O26 Co0 2.155 . S
O26 C28 1.240 . S
O27 Co0 2.096 . S
O27 C8 1.247 . S
C28 O25 1.244 . S
C28 O26 1.240 . S
H29 C3 0.931 . S
H30 C12 0.931 . S
H31 C16 0.929 . S
H32 C18 0.930 . S
Co33 N37 2.148 . S
Co33 N43 2.128 . S
Co33 N53 2.194 . S
Co33 O58 2.351 . S
Co33 O59 2.155 . S
Co33 O60 2.096 . S
C34 N37 1.301 . S
C34 N38 1.328 . S
C34 H39 0.930 . S
C35 C36 1.333 . S
C35 N37 1.317 . S
C35 H40 0.930 . S
C36 C35 1.333 . S
C36 N38 1.350 . S
C36 H62 0.931 . S
N37 Co33 2.148 . S
N37 C34 1.301 . S
N37 C35 1.317 . S
N38 C34 1.328 . S
N38 C36 1.350 . S
H39 C34 0.930 . S
H40 C35 0.930 . S
C41 O42 1.224 . S
C41 O60 1.247 . S
O42 C41 1.224 . S
N43 Co33 2.128 . S
N43 C44 1.355 . S
N43 C46 1.311 . S
C44 N43 1.355 . S
C44 C45 1.363 . S
C44 H56 0.929 . S
C45 C44 1.363 . S
C45 N47 1.375 . S
C45 H63 0.931 . S
C46 N43 1.311 . S
C46 N47 1.347 . S
C46 H57 0.929 . S
N47 C45 1.375 . S
N47 C46 1.347 . S
C48 C51 1.365 . S
C48 N53 1.328 . S
C48 H54 0.929 . S
C49 C50 1.362 . S
C49 C52 1.378 . S
C49 H64 0.929 . S
C50 C49 1.362 . S
C50 C51 1.366 . S
C51 C48 1.365 . S
C51 C50 1.366 . S
C51 H65 0.930 . S
C52 C49 1.378 . S
C52 N53 1.315 . S
C52 H55 0.930 . S
N53 Co33 2.194 . S
N53 C48 1.328 . S
N53 C52 1.315 . S
H54 C48 0.929 . S
H55 C52 0.930 . S
H56 C44 0.929 . S
H57 C46 0.929 . S
O58 Co33 2.351 . S
O58 C61 1.244 . S
O59 Co33 2.155 . S
O59 C61 1.240 . S
O60 Co33 2.096 . S
O60 C41 1.247 . S
C61 O58 1.244 . S
C61 O59 1.240 . S
H62 C36 0.931 . S
H63 C45 0.931 . S
H64 C49 0.929 . S
H65 C51 0.930 . S
Co66 N70 2.148 . S
Co66 N76 2.128 . S
Co66 N86 2.194 1_554 S
Co66 O91 2.351 . S
Co66 O92 2.155 . S
Co66 O93 2.096 . S
C67 N70 1.301 . S
C67 N71 1.328 . S
C67 H72 0.930 . S
C68 C69 1.333 . S
C68 N70 1.317 . S
C68 H73 0.930 . S
C69 C68 1.333 . S
C69 N71 1.350 . S
C69 H95 0.931 . S
N70 Co66 2.148 . S
N70 C67 1.301 . S
N70 C68 1.317 . S
N71 C67 1.328 . S
N71 C69 1.350 . S
H72 C67 0.930 . S
H73 C68 0.930 . S
C74 O75 1.224 1_554 S
C74 O93 1.247 . S
O75 C74 1.224 1_556 S
N76 Co66 2.128 . S
N76 C77 1.355 . S
N76 C79 1.311 . S
C77 N76 1.355 . S
C77 C78 1.363 . S
C77 H89 0.929 . S
C78 C77 1.363 . S
C78 N80 1.375 . S
C78 H96 0.931 . S
C79 N76 1.311 . S
C79 N80 1.347 . S
C79 H90 0.929 . S
N80 C78 1.375 . S
N80 C79 1.347 . S
C81 C84 1.365 . S
C81 N86 1.328 . S
C81 H87 0.928 1_556 S
C82 C83 1.362 . S
C82 C85 1.378 . S
C82 H97 0.929 . S
C83 C82 1.362 . S
C83 C84 1.366 . S
C84 C81 1.365 . S
C84 C83 1.366 . S
C84 H98 0.930 . S
C85 C82 1.378 . S
C85 N86 1.315 . S
C85 H88 0.930 . S
N86 Co66 2.194 1_556 S
N86 C81 1.328 . S
N86 C85 1.315 . S
H87 C81 0.928 1_554 S
H88 C85 0.930 . S
H89 C77 0.929 . S
H90 C79 0.929 . S
O91 Co66 2.351 . S
O91 C94 1.244 . S
O92 Co66 2.155 . S
O92 C94 1.240 . S
O93 Co66 2.096 . S
O93 C74 1.247 . S
C94 O91 1.244 . S
C94 O92 1.240 . S
H95 C69 0.931 . S
H96 C78 0.931 . S
H97 C82 0.929 . S
H98 C84 0.930 . S
Co99 N103 2.148 . S
Co99 N109 2.128 . S
Co99 N119 2.194 . S
Co99 O124 2.351 . S
Co99 O125 2.155 . S
Co99 O126 2.096 . S
C100 N103 1.301 . S
C100 N104 1.328 . S
C100 H105 0.930 . S
C101 C102 1.333 . S
C101 N103 1.317 . S
C101 H106 0.930 . S
C102 C101 1.333 . S
C102 N104 1.350 . S
C102 H128 0.931 . S
N103 Co99 2.148 . S
N103 C100 1.301 . S
N103 C101 1.317 . S
N104 C100 1.328 . S
N104 C102 1.350 . S
H105 C100 0.930 . S
H106 C101 0.930 . S
C107 O108 1.224 . S
C107 O126 1.247 . S
O108 C107 1.224 . S
N109 Co99 2.128 . S
N109 C110 1.355 . S
N109 C112 1.311 . S
C110 N109 1.355 . S
C110 C111 1.363 . S
C110 H122 0.929 . S
C111 C110 1.363 . S
C111 N113 1.375 . S
C111 H129 0.931 . S
C112 N109 1.311 . S
C112 N113 1.347 . S
C112 H123 0.929 . S
N113 C111 1.375 . S
N113 C112 1.347 . S
C114 C117 1.365 . S
C114 N119 1.328 . S
C114 H120 0.929 . S
C115 C116 1.362 . S
C115 C118 1.378 . S
C115 H130 0.929 . S
C116 C115 1.362 . S
C116 C117 1.366 . S
C117 C114 1.365 . S
C117 C116 1.366 . S
C117 H131 0.930 . S
C118 C115 1.378 . S
C118 N119 1.315 . S
C118 H121 0.930 . S
N119 Co99 2.194 . S
N119 C114 1.328 . S
N119 C118 1.315 . S
H120 C114 0.929 . S
H121 C118 0.930 . S
H122 C110 0.929 . S
H123 C112 0.929 . S
O124 Co99 2.351 . S
O124 C127 1.244 . S
O125 Co99 2.155 . S
O125 C127 1.240 . S
O126 Co99 2.096 . S
O126 C107 1.247 . S
C127 O124 1.244 . S
C127 O125 1.240 . S
H128 C102 0.931 . S
H129 C111 0.931 . S
H130 C115 0.929 . S
H131 C117 0.930 . S
Co132 N136 2.148 . S
Co132 N142 2.128 . S
Co132 N152 2.194 1_556 S
Co132 O157 2.351 . S
Co132 O158 2.155 . S
Co132 O159 2.096 . S
C133 N136 1.301 . S
C133 N137 1.328 . S
C133 H138 0.930 . S
C134 C135 1.333 . S
C134 N136 1.317 . S
C134 H139 0.930 . S
C135 C134 1.333 . S
C135 N137 1.350 . S
C135 H161 0.931 . S
N136 Co132 2.148 . S
N136 C133 1.301 . S
N136 C134 1.317 . S
N137 C133 1.328 . S
N137 C135 1.350 . S
H138 C133 0.930 . S
H139 C134 0.930 . S
C140 O141 1.224 . S
C140 O159 1.247 1_554 S
O141 C140 1.224 . S
N142 Co132 2.128 . S
N142 C143 1.355 1_556 S
N142 C145 1.311 1_545 S
C143 N142 1.355 1_554 S
C143 C144 1.363 1_545 S
C143 H155 0.929 . S
C144 C143 1.363 1_565 S
C144 N146 1.370 1_554 S
C144 H162 0.931 . S
C145 N142 1.311 1_565 S
C145 N146 1.352 . S
C145 H156 0.929 . S
N146 C144 1.370 1_556 S
N146 C145 1.352 . S
C147 C150 1.365 . S
C147 N152 1.328 . S
C147 H153 0.929 . S
C148 C149 1.362 . S
C148 C151 1.378 . S
C148 H163 0.929 . S
C149 C148 1.362 . S
C149 C150 1.366 . S
C150 C147 1.365 . S
C150 C149 1.366 . S
C150 H164 0.930 . S
C151 C148 1.378 . S
C151 N152 1.315 . S
C151 H154 0.930 . S
N152 Co132 2.194 1_554 S
N152 C147 1.328 . S
N152 C151 1.315 . S
H153 C147 0.929 . S
H154 C151 0.930 . S
H155 C143 0.929 . S
H156 C145 0.929 . S
O157 Co132 2.351 . S
O157 C160 1.244 . S
O158 Co132 2.155 . S
O158 C160 1.240 . S
O159 Co132 2.096 . S
O159 C140 1.247 1_556 S
C160 O157 1.244 . S
C160 O158 1.240 . S
H161 C135 0.931 . S
H162 C144 0.931 . S
H163 C148 0.929 . S
H164 C150 0.930 . S
Co165 N169 2.148 . S
Co165 N175 2.128 . S
Co165 N185 2.194 . S
Co165 O190 2.351 . S
Co165 O191 2.155 . S
Co165 O192 2.096 . S
C166 N169 1.301 . S
C166 N170 1.328 . S
C166 H171 0.930 . S
C167 C168 1.333 . S
C167 N169 1.317 . S
C167 H172 0.930 . S
C168 C167 1.333 . S
C168 N170 1.350 . S
C168 H194 0.931 . S
N169 Co165 2.148 . S
N169 C166 1.301 . S
N169 C167 1.317 . S
N170 C166 1.328 . S
N170 C168 1.350 . S
H171 C166 0.930 . S
H172 C167 0.930 . S
C173 O174 1.224 . S
C173 O192 1.247 . S
O174 C173 1.224 . S
N175 Co165 2.128 . S
N175 C176 1.355 . S
N175 C178 1.311 1_655 S
C176 N175 1.355 . S
C176 C177 1.363 1_655 S
C176 H188 0.929 . S
C177 C176 1.363 1_455 S
C177 N179 1.375 . S
C177 H195 0.931 . S
C178 N175 1.311 1_455 S
C178 N179 1.347 . S
C178 H189 0.929 . S
N179 C177 1.375 . S
N179 C178 1.347 . S
C180 C183 1.365 . S
C180 N185 1.328 . S
C180 H186 0.929 . S
C181 C182 1.362 . S
C181 C184 1.378 . S
C181 H196 0.929 . S
C182 C181 1.362 . S
C182 C183 1.366 . S
C183 C180 1.365 . S
C183 C182 1.366 . S
C183 H197 0.930 . S
C184 C181 1.378 . S
C184 N185 1.315 . S
C184 H187 0.930 . S
N185 Co165 2.194 . S
N185 C180 1.328 . S
N185 C184 1.315 . S
H186 C180 0.929 . S
H187 C184 0.930 . S
H188 C176 0.929 . S
H189 C178 0.929 . S
O190 Co165 2.351 . S
O190 C193 1.244 . S
O191 Co165 2.155 . S
O191 C193 1.240 . S
O192 Co165 2.096 . S
O192 C173 1.247 . S
C193 O190 1.244 . S
C193 O191 1.240 . S
H194 C168 0.931 . S
H195 C177 0.931 . S
H196 C181 0.929 . S
H197 C183 0.930 . S
Co198 N202 2.148 . S
Co198 N208 2.128 . S
Co198 N218 2.194 1_556 S
Co198 O223 2.351 . S
Co198 O224 2.155 . S
Co198 O225 2.096 . S
C199 N202 1.301 . S
C199 N203 1.328 . S
C199 H204 0.930 . S
C200 C201 1.333 . S
C200 N202 1.317 . S
C200 H205 0.930 . S
C201 C200 1.333 . S
C201 N203 1.350 . S
C201 H227 0.931 . S
N202 Co198 2.148 . S
N202 C199 1.301 . S
N202 C200 1.317 . S
N203 C199 1.328 . S
N203 C201 1.350 . S
H204 C199 0.930 . S
H205 C200 0.930 . S
C206 O207 1.224 . S
C206 O225 1.247 1_554 S
O207 C206 1.224 . S
N208 Co198 2.128 . S
N208 C209 1.355 1_556 S
N208 C211 1.311 1_565 S
C209 N208 1.355 1_554 S
C209 C210 1.363 1_565 S
C209 H221 0.929 . S
C210 C209 1.363 1_545 S
C210 N212 1.370 1_554 S
C210 H228 0.931 . S
C211 N208 1.311 1_545 S
C211 N212 1.352 . S
C211 H222 0.929 . S
N212 C210 1.370 1_556 S
N212 C211 1.352 . S
C213 C216 1.365 . S
C213 N218 1.328 . S
C213 H219 0.929 . S
C214 C215 1.362 . S
C214 C217 1.378 . S
C214 H229 0.929 . S
C215 C214 1.362 . S
C215 C216 1.366 . S
C216 C213 1.365 . S
C216 C215 1.366 . S
C216 H230 0.930 . S
C217 C214 1.378 . S
C217 N218 1.315 . S
C217 H220 0.930 . S
N218 Co198 2.194 1_554 S
N218 C213 1.328 . S
N218 C217 1.315 . S
H219 C213 0.929 . S
H220 C217 0.930 . S
H221 C209 0.929 . S
H222 C211 0.929 . S
O223 Co198 2.351 . S
O223 C226 1.244 . S
O224 Co198 2.155 . S
O224 C226 1.240 . S
O225 Co198 2.096 . S
O225 C206 1.247 1_556 S
C226 O223 1.244 . S
C226 O224 1.240 . S
H227 C201 0.931 . S
H228 C210 0.931 . S
H229 C214 0.929 . S
H230 C216 0.930 . S
Co231 N235 2.148 . S
Co231 N241 2.128 . S
Co231 N251 2.194 . S
Co231 O256 2.351 . S
Co231 O257 2.155 . S
Co231 O258 2.096 . S
C232 N235 1.301 . S
C232 N236 1.328 . S
C232 H237 0.930 . S
C233 C234 1.333 . S
C233 N235 1.317 . S
C233 H238 0.930 . S
C234 C233 1.333 . S
C234 N236 1.350 . S
C234 H260 0.931 . S
N235 Co231 2.148 . S
N235 C232 1.301 . S
N235 C233 1.317 . S
N236 C232 1.328 . S
N236 C234 1.350 . S
H237 C232 0.930 . S
H238 C233 0.930 . S
C239 O240 1.224 . S
C239 O258 1.247 . S
O240 C239 1.224 . S
N241 Co231 2.128 . S
N241 C242 1.355 . S
N241 C244 1.311 1_455 S
C242 N241 1.355 . S
C242 C243 1.363 1_455 S
C242 H254 0.929 . S
C243 C242 1.363 1_655 S
C243 N245 1.375 . S
C243 H261 0.931 . S
C244 N241 1.311 1_655 S
C244 N245 1.347 . S
C244 H255 0.929 . S
N245 C243 1.375 . S
N245 C244 1.347 . S
C246 C249 1.365 . S
C246 N251 1.328 . S
C246 H252 0.929 . S
C247 C248 1.362 . S
C247 C250 1.378 . S
C247 H262 0.929 . S
C248 C247 1.362 . S
C248 C249 1.366 . S
C249 C246 1.365 . S
C249 C248 1.366 . S
C249 H263 0.930 . S
C250 C247 1.378 . S
C250 N251 1.315 . S
C250 H253 0.930 . S
N251 Co231 2.194 . S
N251 C246 1.328 . S
N251 C250 1.315 . S
H252 C246 0.929 . S
H253 C250 0.930 . S
H254 C242 0.929 . S
H255 C244 0.929 . S
O256 Co231 2.351 . S
O256 C259 1.244 . S
O257 Co231 2.155 . S
O257 C259 1.240 . S
O258 Co231 2.096 . S
O258 C239 1.247 . S
C259 O256 1.244 . S
C259 O257 1.240 . S
H260 C234 0.931 . S
H261 C243 0.931 . S
H262 C247 0.929 . S
H263 C249 0.930 . S
C264 C265 1.391 . S
C264 C266 1.394 . S
C264 H280 0.931 . S
C265 C264 1.391 . S
C265 C269 1.376 . S
C266 C264 1.394 . S
C266 C267 1.369 . S
C266 C270 1.531 . S
C267 C266 1.369 . S
C267 C268 1.410 . S
C267 C275 1.503 . S
C268 C267 1.410 . S
C268 C269 1.392 . S
C268 C271 1.511 . S
C269 C265 1.376 . S
C269 C268 1.392 . S
C269 H281 0.929 1_554 S
C270 C266 1.531 . S
C270 H282 0.960 . S
C270 H283 0.962 . S
C270 H284 0.960 . S
C271 C268 1.511 . S
C271 H285 0.961 1_554 S
C271 H286 0.961 . S
C271 H287 0.961 . S
C272 C273 1.370 . S
C272 C274 1.363 1_554 S
C272 H288 0.931 1_554 S
C273 C272 1.370 . S
C273 C277 1.408 . S
C274 C272 1.363 1_556 S
C274 C275 1.370 1_556 S
C274 C278 1.524 . S
C275 C267 1.503 . S
C275 C274 1.370 1_554 S
C275 C276 1.403 . S
C276 C275 1.403 . S
C276 C277 1.404 . S
C276 C279 1.539 . S
C277 C273 1.408 . S
C277 C276 1.404 . S
C277 H289 0.930 . S
C278 C274 1.524 . S
C278 H290 0.956 . S
C278 H291 0.961 . S
C278 H292 0.961 . S
C279 C276 1.539 . S
C279 H293 0.958 . S
C279 H294 0.961 . S
C279 H295 0.960 . S
H280 C264 0.931 . S
H281 C269 0.929 1_556 S
H282 C270 0.960 . S
H283 C270 0.962 . S
H284 C270 0.960 . S
H285 C271 0.961 1_556 S
H286 C271 0.961 . S
H287 C271 0.961 . S
H288 C272 0.931 1_556 S
H289 C277 0.930 . S
H290 C278 0.956 . S
H291 C278 0.961 . S
H292 C278 0.961 . S
H293 C279 0.958 . S
H294 C279 0.961 . S
H295 C279 0.960 . S
C296 C297 1.391 . S
C296 C298 1.394 . S
C296 H312 0.931 . S
C297 C296 1.391 . S
C297 C301 1.376 . S
C298 C296 1.394 . S
C298 C299 1.369 . S
C298 C302 1.531 . S
C299 C298 1.369 . S
C299 C300 1.410 . S
C299 C307 1.503 . S
C300 C299 1.410 . S
C300 C301 1.392 . S
C300 C303 1.511 . S
C301 C297 1.376 . S
C301 C300 1.392 . S
C301 H313 0.929 . S
C302 C298 1.531 . S
C302 H314 0.960 . S
C302 H315 0.962 . S
C302 H316 0.960 . S
C303 C300 1.511 . S
C303 H317 0.961 . S
C303 H318 0.961 . S
C303 H319 0.961 . S
C304 C305 1.370 . S
C304 C306 1.363 . S
C304 H320 0.931 . S
C305 C304 1.370 . S
C305 C309 1.408 . S
C306 C304 1.363 . S
C306 C307 1.370 . S
C306 C310 1.524 . S
C307 C299 1.503 . S
C307 C306 1.370 . S
C307 C308 1.403 . S
C308 C307 1.403 . S
C308 C309 1.404 . S
C308 C311 1.539 . S
C309 C305 1.408 . S
C309 C308 1.404 . S
C309 H321 0.930 . S
C310 C306 1.524 . S
C310 H322 0.956 . S
C310 H323 0.961 . S
C310 H324 0.961 . S
C311 C308 1.539 . S
C311 H325 0.958 . S
C311 H326 0.961 . S
C311 H327 0.960 . S
H312 C296 0.931 . S
H313 C301 0.929 . S
H314 C302 0.960 . S
H315 C302 0.962 . S
H316 C302 0.960 . S
H317 C303 0.961 . S
H318 C303 0.961 . S
H319 C303 0.961 . S
H320 C304 0.931 . S
H321 C309 0.930 . S
H322 C310 0.956 . S
H323 C310 0.961 . S
H324 C310 0.961 . S
H325 C311 0.958 . S
H326 C311 0.961 . S
H327 C311 0.960 . S
C328 C329 1.391 . S
C328 C330 1.394 . S
C328 H344 0.931 . S
C329 C328 1.391 . S
C329 C333 1.376 1_554 S
C330 C328 1.394 . S
C330 C331 1.369 . S
C330 C334 1.531 . S
C331 C330 1.369 . S
C331 C332 1.410 1_554 S
C331 C339 1.503 . S
C332 C331 1.410 1_556 S
C332 C333 1.392 . S
C332 C335 1.511 . S
C333 C329 1.376 1_556 S
C333 C332 1.392 . S
C333 H345 0.929 . S
C334 C330 1.531 . S
C334 H346 0.960 . S
C334 H347 0.962 . S
C334 H348 0.960 . S
C335 C332 1.511 . S
C335 H349 0.961 . S
C335 H350 0.961 . S
C335 H351 0.961 . S
C336 C337 1.370 . S
C336 C338 1.363 . S
C336 H352 0.931 1_554 S
C337 C336 1.370 . S
C337 C341 1.408 . S
C338 C336 1.363 . S
C338 C339 1.370 . S
C338 C342 1.524 1_554 S
C339 C331 1.503 . S
C339 C338 1.370 . S
C339 C340 1.403 . S
C340 C339 1.403 . S
C340 C341 1.404 . S
C340 C343 1.539 . S
C341 C337 1.408 . S
C341 C340 1.404 . S
C341 H353 0.930 . S
C342 C338 1.524 1_556 S
C342 H354 0.956 . S
C342 H355 0.961 . S
C342 H356 0.961 . S
C343 C340 1.539 . S
C343 H357 0.958 . S
C343 H358 0.961 . S
C343 H359 0.960 . S
H344 C328 0.931 . S
H345 C333 0.929 . S
H346 C334 0.960 . S
H347 C334 0.962 . S
H348 C334 0.960 . S
H349 C335 0.961 . S
H350 C335 0.961 . S
H351 C335 0.961 . S
H352 C336 0.931 1_556 S
H353 C341 0.930 . S
H354 C342 0.956 . S
H355 C342 0.961 . S
H356 C342 0.961 . S
H357 C343 0.958 . S
H358 C343 0.961 . S
H359 C343 0.960 . S
C360 C361 1.391 . S
C360 C362 1.394 . S
C360 H376 0.931 . S
C361 C360 1.391 . S
C361 C365 1.376 . S
C362 C360 1.394 . S
C362 C363 1.369 . S
C362 C366 1.531 . S
C363 C362 1.369 . S
C363 C364 1.410 . S
C363 C371 1.503 . S
C364 C363 1.410 . S
C364 C365 1.392 . S
C364 C367 1.511 . S
C365 C361 1.376 . S
C365 C364 1.392 . S
C365 H377 0.929 . S
C366 C362 1.531 . S
C366 H378 0.960 . S
C366 H379 0.962 . S
C366 H380 0.960 . S
C367 C364 1.511 . S
C367 H381 0.961 . S
C367 H382 0.961 . S
C367 H383 0.961 . S
C368 C369 1.370 . S
C368 C370 1.363 . S
C368 H384 0.931 . S
C369 C368 1.370 . S
C369 C373 1.408 . S
C370 C368 1.363 . S
C370 C371 1.370 . S
C370 C374 1.524 . S
C371 C363 1.503 . S
C371 C370 1.370 . S
C371 C372 1.403 . S
C372 C371 1.403 . S
C372 C373 1.404 . S
C372 C375 1.539 . S
C373 C369 1.408 . S
C373 C372 1.404 . S
C373 H385 0.930 . S
C374 C370 1.524 . S
C374 H386 0.956 . S
C374 H387 0.961 . S
C374 H388 0.961 . S
C375 C372 1.539 . S
C375 H389 0.958 . S
C375 H390 0.961 . S
C375 H391 0.960 . S
H376 C360 0.931 . S
H377 C365 0.929 . S
H378 C366 0.960 . S
H379 C366 0.962 . S
H380 C366 0.960 . S
H381 C367 0.961 . S
H382 C367 0.961 . S
H383 C367 0.961 . S
H384 C368 0.931 . S
H385 C373 0.930 . S
H386 C374 0.956 . S
H387 C374 0.961 . S
H388 C374 0.961 . S
H389 C375 0.958 . S
H390 C375 0.961 . S
H391 C375 0.960 . S
C392 C393 1.391 . S
C392 C394 1.394 . S
C392 H408 0.931 . S
C393 C392 1.391 . S
C393 C397 1.376 1_554 S
C394 C392 1.394 . S
C394 C395 1.369 . S
C394 C398 1.531 . S
C395 C394 1.369 . S
C395 C396 1.410 1_554 S
C395 C403 1.503 . S
C396 C395 1.410 1_556 S
C396 C397 1.392 . S
C396 C399 1.511 . S
C397 C393 1.376 1_556 S
C397 C396 1.392 . S
C397 H409 0.929 . S
C398 C394 1.531 . S
C398 H410 0.960 . S
C398 H411 0.962 . S
C398 H412 0.960 . S
C399 C396 1.511 . S
C399 H413 0.961 . S
C399 H414 0.961 . S
C399 H415 0.961 . S
C400 C401 1.370 . S
C400 C402 1.359 1_556 S
C400 H416 0.931 . S
C401 C400 1.370 . S
C401 C405 1.408 . S
C402 C400 1.359 1_554 S
C402 C403 1.373 . S
C402 C406 1.527 . S
C403 C395 1.503 . S
C403 C402 1.373 . S
C403 C404 1.404 . S
C404 C403 1.404 . S
C404 C405 1.400 1_554 S
C404 C407 1.540 . S
C405 C401 1.408 . S
C405 C404 1.400 1_556 S
C405 H417 0.930 . S
C406 C402 1.527 . S
C406 H418 0.956 . S
C406 H419 0.961 1_554 S
C406 H420 0.961 1_554 S
C407 C404 1.540 . S
C407 H421 0.958 . S
C407 H422 0.961 1_554 S
C407 H423 0.960 1_554 S
H408 C392 0.931 . S
H409 C397 0.929 . S
H410 C398 0.960 . S
H411 C398 0.962 . S
H412 C398 0.960 . S
H413 C399 0.961 . S
H414 C399 0.961 . S
H415 C399 0.961 . S
H416 C400 0.931 . S
H417 C405 0.930 . S
H418 C406 0.956 . S
H419 C406 0.961 1_556 S
H420 C406 0.961 1_556 S
H421 C407 0.958 . S
H422 C407 0.961 1_556 S
H423 C407 0.960 1_556 S
C424 C425 1.391 . S
C424 C426 1.394 . S
C424 H440 0.931 . S
C425 C424 1.391 . S
C425 C429 1.376 . S
C426 C424 1.394 . S
C426 C427 1.369 . S
C426 C430 1.531 . S
C427 C426 1.369 . S
C427 C428 1.410 . S
C427 C435 1.503 . S
C428 C427 1.410 . S
C428 C429 1.392 . S
C428 C431 1.511 . S
C429 C425 1.376 . S
C429 C428 1.392 . S
C429 H441 0.929 . S
C430 C426 1.531 . S
C430 H442 0.960 . S
C430 H443 0.962 . S
C430 H444 0.960 . S
C431 C428 1.511 . S
C431 H445 0.961 . S
C431 H446 0.961 . S
C431 H447 0.961 . S
C432 C433 1.370 . S
C432 C434 1.363 . S
C432 H448 0.931 . S
C433 C432 1.370 . S
C433 C437 1.408 . S
C434 C432 1.363 . S
C434 C435 1.370 . S
C434 C438 1.524 . S
C435 C427 1.503 . S
C435 C434 1.370 . S
C435 C436 1.403 . S
C436 C435 1.403 . S
C436 C437 1.404 . S
C436 C439 1.539 . S
C437 C433 1.408 . S
C437 C436 1.404 . S
C437 H449 0.930 . S
C438 C434 1.524 . S
C438 H450 0.956 . S
C438 H451 0.961 . S
C438 H452 0.961 . S
C439 C436 1.539 . S
C439 H453 0.958 . S
C439 H454 0.961 . S
C439 H455 0.960 . S
H440 C424 0.931 . S
H441 C429 0.929 . S
H442 C430 0.960 . S
H443 C430 0.962 . S
H444 C430 0.960 . S
H445 C431 0.961 . S
H446 C431 0.961 . S
H447 C431 0.961 . S
H448 C432 0.931 . S
H449 C437 0.930 . S
H450 C438 0.956 . S
H451 C438 0.961 . S
H452 C438 0.961 . S
H453 C439 0.958 . S
H454 C439 0.961 . S
H455 C439 0.960 . S
C456 C457 1.391 . S
C456 C458 1.394 . S
C456 H472 0.931 . S
C457 C456 1.391 . S
C457 C461 1.376 . S
C458 C456 1.394 . S
C458 C459 1.369 . S
C458 C462 1.531 . S
C459 C458 1.369 . S
C459 C460 1.410 . S
C459 C467 1.503 . S
C460 C459 1.410 . S
C460 C461 1.392 . S
C460 C463 1.511 1_554 S
C461 C457 1.376 . S
C461 C460 1.392 . S
C461 H473 0.929 . S
C462 C458 1.531 . S
C462 H474 0.960 . S
C462 H475 0.962 . S
C462 H476 0.960 . S
C463 C460 1.511 1_556 S
C463 H477 0.961 . S
C463 H478 0.961 . S
C463 H479 0.961 1_556 S
C464 C465 1.370 . S
C464 C466 1.363 . S
C464 H480 0.931 . S
C465 C464 1.370 . S
C465 C469 1.408 1_556 S
C466 C464 1.363 . S
C466 C467 1.370 1_556 S
C466 C470 1.524 . S
C467 C459 1.503 . S
C467 C466 1.370 1_554 S
C467 C468 1.403 . S
C468 C467 1.403 . S
C468 C469 1.404 . S
C468 C471 1.539 . S
C469 C465 1.408 1_554 S
C469 C468 1.404 . S
C469 H481 0.930 . S
C470 C466 1.524 . S
C470 H482 0.956 . S
C470 H483 0.961 . S
C470 H484 0.961 . S
C471 C468 1.539 . S
C471 H485 0.958 . S
C471 H486 0.961 . S
C471 H487 0.960 . S
H472 C456 0.931 . S
H473 C461 0.929 . S
H474 C462 0.960 . S
H475 C462 0.962 . S
H476 C462 0.960 . S
H477 C463 0.961 . S
H478 C463 0.961 . S
H479 C463 0.961 1_554 S
H480 C464 0.931 . S
H481 C469 0.930 . S
H482 C470 0.956 . S
H483 C470 0.961 . S
H484 C470 0.961 . S
H485 C471 0.958 . S
H486 C471 0.961 . S
H487 C471 0.960 . S
C488 C489 1.391 . S
C488 C490 1.394 . S
C488 H504 0.931 . S
C489 C488 1.391 . S
C489 C493 1.376 . S
C490 C488 1.394 . S
C490 C491 1.369 . S
C490 C494 1.531 . S
C491 C490 1.369 . S
C491 C492 1.410 . S
C491 C499 1.503 . S
C492 C491 1.410 . S
C492 C493 1.392 . S
C492 C495 1.511 . S
C493 C489 1.376 . S
C493 C492 1.392 . S
C493 H505 0.929 . S
C494 C490 1.531 . S
C494 H506 0.960 . S
C494 H507 0.962 . S
C494 H508 0.960 . S
C495 C492 1.511 . S
C495 H509 0.961 . S
C495 H510 0.961 . S
C495 H511 0.961 . S
C496 C497 1.370 . S
C496 C498 1.363 . S
C496 H512 0.931 . S
C497 C496 1.370 . S
C497 C501 1.408 . S
C498 C496 1.363 . S
C498 C499 1.370 . S
C498 C502 1.524 . S
C499 C491 1.503 . S
C499 C498 1.370 . S
C499 C500 1.403 . S
C500 C499 1.403 . S
C500 C501 1.404 . S
C500 C503 1.539 . S
C501 C497 1.408 . S
C501 C500 1.404 . S
C501 H513 0.930 . S
C502 C498 1.524 . S
C502 H514 0.956 . S
C502 H515 0.961 . S
C502 H516 0.961 . S
C503 C500 1.539 . S
C503 H517 0.958 . S
C503 H518 0.961 . S
C503 H519 0.960 . S
H504 C488 0.931 . S
H505 C493 0.929 . S
H506 C494 0.960 . S
H507 C494 0.962 . S
H508 C494 0.960 . S
H509 C495 0.961 . S
H510 C495 0.961 . S
H511 C495 0.961 . S
H512 C496 0.931 . S
H513 C501 0.930 . S
H514 C502 0.956 . S
H515 C502 0.961 . S
H516 C502 0.961 . S
H517 C503 0.958 . S
H518 C503 0.961 . S
H519 C503 0.960 . S
C520 C521 1.391 . S
C520 C522 1.394 . S
C520 H536 0.931 . S
C521 C520 1.391 . S
C521 C525 1.376 1_554 S
C522 C520 1.394 . S
C522 C523 1.369 . S
C522 C526 1.531 . S
C523 C522 1.369 . S
C523 C524 1.410 1_554 S
C523 C531 1.503 . S
C524 C523 1.410 1_556 S
C524 C525 1.392 . S
C524 C527 1.511 . S
C525 C521 1.376 1_556 S
C525 C524 1.392 . S
C525 H537 0.929 . S
C526 C522 1.531 . S
C526 H538 0.960 . S
C526 H539 0.962 . S
C526 H540 0.960 . S
C527 C524 1.511 . S
C527 H541 0.961 . S
C527 H542 0.961 . S
C527 H543 0.961 . S
C528 C529 1.370 . S
C528 C530 1.363 . S
C528 H544 0.931 . S
C529 C528 1.370 . S
C529 C533 1.408 . S
C530 C528 1.363 . S
C530 C531 1.370 . S
C530 C534 1.524 . S
C531 C523 1.503 . S
C531 C530 1.370 . S
C531 C532 1.403 . S
C532 C531 1.403 . S
C532 C533 1.404 . S
C532 C535 1.539 . S
C533 C529 1.408 . S
C533 C532 1.404 . S
C533 H545 0.930 . S
C534 C530 1.524 . S
C534 H546 0.956 . S
C534 H547 0.961 . S
C534 H548 0.961 . S
C535 C532 1.539 . S
C535 H549 0.958 . S
C535 H550 0.961 . S
C535 H551 0.960 . S
H536 C520 0.931 . S
H537 C525 0.929 . S
H538 C526 0.960 . S
H539 C526 0.962 . S
H540 C526 0.960 . S
H541 C527 0.961 . S
H542 C527 0.961 . S
H543 C527 0.961 . S
H544 C528 0.931 . S
H545 C533 0.930 . S
H546 C534 0.956 . S
H547 C534 0.961 . S
H548 C534 0.961 . S
H549 C535 0.958 . S
H550 C535 0.961 . S
H551 C535 0.960 . S
C552 C553 1.391 . S
C552 C554 1.394 . S
C552 H568 0.931 . S
C553 C552 1.391 . S
C553 C557 1.376 . S
C554 C552 1.394 . S
C554 C555 1.369 . S
C554 C558 1.531 . S
C555 C554 1.369 . S
C555 C556 1.410 . S
C555 C563 1.503 . S
C556 C555 1.410 . S
C556 C557 1.392 . S
C556 C559 1.511 . S
C557 C553 1.376 . S
C557 C556 1.392 . S
C557 H569 0.929 . S
C558 C554 1.531 . S
C558 H570 0.960 . S
C558 H571 0.962 . S
C558 H572 0.960 . S
C559 C556 1.511 . S
C559 H573 0.961 . S
C559 H574 0.961 . S
C559 H575 0.961 . S
C560 C561 1.370 . S
C560 C562 1.363 . S
C560 H576 0.931 . S
C561 C560 1.370 . S
C561 C565 1.408 . S
C562 C560 1.363 . S
C562 C563 1.370 . S
C562 C566 1.524 . S
C563 C555 1.503 . S
C563 C562 1.370 . S
C563 C564 1.403 . S
C564 C563 1.403 . S
C564 C565 1.404 . S
C564 C567 1.539 . S
C565 C561 1.408 . S
C565 C564 1.404 . S
C565 H577 0.930 . S
C566 C562 1.524 . S
C566 H578 0.956 . S
C566 H579 0.961 . S
C566 H580 0.961 . S
C567 C564 1.539 . S
C567 H581 0.958 . S
C567 H582 0.961 . S
C567 H583 0.960 . S
H568 C552 0.931 . S
H569 C557 0.929 . S
H570 C558 0.960 . S
H571 C558 0.962 . S
H572 C558 0.960 . S
H573 C559 0.961 . S
H574 C559 0.961 . S
H575 C559 0.961 . S
H576 C560 0.931 . S
H577 C565 0.930 . S
H578 C566 0.956 . S
H579 C566 0.961 . S
H580 C566 0.961 . S
H581 C567 0.958 . S
H582 C567 0.961 . S
H583 C567 0.960 . S
C584 C585 1.384 1_546 S
C584 C586 1.394 . S
C584 H600 0.931 . S
C585 C584 1.384 1_564 S
C585 C589 1.382 . S
C586 C584 1.394 . S
C586 C587 1.369 1_545 S
C586 C590 1.531 . S
C587 C586 1.369 1_565 S
C587 C588 1.410 1_556 S
C587 C595 1.503 1_465 S
C588 C587 1.410 1_554 S
C588 C589 1.392 . S
C588 C591 1.511 1_455 S
C589 C585 1.382 . S
C589 C588 1.392 . S
C589 H601 0.929 . S
C590 C586 1.531 . S
C590 H602 0.960 . S
C590 H603 0.962 . S
C590 H604 0.960 . S
C591 C588 1.511 1_655 S
C591 H605 0.961 1_655 S
C591 H606 0.961 . S
C591 H607 0.961 . S
C592 C593 1.370 . S
C592 C594 1.363 . S
C592 H608 0.931 . S
C593 C592 1.370 . S
C593 C597 1.408 1_554 S
C594 C592 1.363 . S
C594 C595 1.370 1_554 S
C594 C598 1.524 . S
C595 C587 1.503 1_645 S
C595 C594 1.370 1_556 S
C595 C596 1.403 1_545 S
C596 C595 1.403 1_565 S
C596 C597 1.404 1_565 S
C596 C599 1.539 . S
C597 C593 1.408 1_556 S
C597 C596 1.404 1_545 S
C597 H609 0.933 . S
C598 C594 1.524 . S
C598 H610 0.956 1_655 S
C598 H611 0.961 1_655 S
C598 H612 0.961 . S
C599 C596 1.539 . S
C599 H613 0.958 . S
C599 H614 0.961 . S
C599 H615 0.960 . S
H600 C584 0.931 . S
H601 C589 0.929 . S
H602 C590 0.960 . S
H603 C590 0.962 . S
H604 C590 0.960 . S
H605 C591 0.961 1_455 S
H606 C591 0.961 . S
H607 C591 0.961 . S
H608 C592 0.931 . S
H609 C597 0.933 . S
H610 C598 0.956 1_455 S
H611 C598 0.961 1_455 S
H612 C598 0.961 . S
H613 C599 0.958 . S
H614 C599 0.961 . S
H615 C599 0.960 . S
C616 C617 1.401 . S
C616 C618 1.390 1_655 S
C616 H632 0.924 1_655 S
C617 C616 1.401 . S
C617 C621 1.376 . S
C618 C616 1.390 1_455 S
C618 C619 1.369 1_455 S
C618 C622 1.531 . S
C619 C618 1.369 1_655 S
C619 C620 1.410 . S
C619 C627 1.503 1_665 S
C620 C619 1.410 . S
C620 C621 1.392 . S
C620 C623 1.507 1_565 S
C621 C617 1.376 . S
C621 C620 1.392 . S
C621 H633 0.929 . S
C622 C618 1.531 . S
C622 H634 0.960 . S
C622 H635 0.962 . S
C622 H636 0.960 . S
C623 C620 1.507 1_545 S
C623 H637 0.958 1_545 S
C623 H638 0.965 . S
C623 H639 0.962 . S
C624 C625 1.370 . S
C624 C626 1.363 . S
C624 H640 0.931 . S
C625 C624 1.370 . S
C625 C629 1.408 . S
C626 C624 1.363 . S
C626 C627 1.370 . S
C626 C630 1.524 . S
C627 C619 1.503 1_445 S
C627 C626 1.370 . S
C627 C628 1.403 1_455 S
C628 C627 1.403 1_655 S
C628 C629 1.404 1_655 S
C628 C631 1.539 . S
C629 C625 1.408 . S
C629 C628 1.404 1_455 S
C629 H641 0.930 1_455 S
C630 C626 1.524 . S
C630 H642 0.956 1_545 S
C630 H643 0.961 1_545 S
C630 H644 0.961 . S
C631 C628 1.539 . S
C631 H645 0.958 . S
C631 H646 0.961 . S
C631 H647 0.960 . S
H632 C616 0.924 1_455 S
H633 C621 0.929 . S
H634 C622 0.960 . S
H635 C622 0.962 . S
H636 C622 0.960 . S
H637 C623 0.958 1_565 S
H638 C623 0.965 . S
H639 C623 0.962 . S
H640 C624 0.931 . S
H641 C629 0.930 1_655 S
H642 C630 0.956 1_565 S
H643 C630 0.961 1_565 S
H644 C630 0.961 . S
H645 C631 0.958 . S
H646 C631 0.961 . S
H647 C631 0.960 . S
C648 C649 1.391 . S
C648 C650 1.394 . S
C648 H664 0.931 . S
C649 C648 1.391 . S
C649 C653 1.376 . S
C650 C648 1.394 . S
C650 C651 1.369 . S
C650 C654 1.531 . S
C651 C650 1.369 . S
C651 C652 1.410 . S
C651 C659 1.503 . S
C652 C651 1.410 . S
C652 C653 1.392 . S
C652 C655 1.511 . S
C653 C649 1.376 . S
C653 C652 1.392 . S
C653 H665 0.929 . S
C654 C650 1.531 . S
C654 H666 0.960 . S
C654 H667 0.962 . S
C654 H668 0.960 . S
C655 C652 1.511 . S
C655 H669 0.961 . S
C655 H670 0.961 . S
C655 H671 0.961 . S
C656 C657 1.370 . S
C656 C658 1.363 . S
C656 H672 0.931 . S
C657 C656 1.370 . S
C657 C661 1.408 . S
C658 C656 1.363 . S
C658 C659 1.370 . S
C658 C662 1.524 . S
C659 C651 1.503 . S
C659 C658 1.370 . S
C659 C660 1.403 . S
C660 C659 1.403 . S
C660 C661 1.404 . S
C660 C663 1.539 . S
C661 C657 1.408 . S
C661 C660 1.404 . S
C661 H673 0.930 . S
C662 C658 1.524 . S
C662 H674 0.956 . S
C662 H675 0.961 . S
C662 H676 0.961 . S
C663 C660 1.539 . S
C663 H677 0.958 . S
C663 H678 0.961 . S
C663 H679 0.960 . S
H664 C648 0.931 . S
H665 C653 0.929 . S
H666 C654 0.960 . S
H667 C654 0.962 . S
H668 C654 0.960 . S
H669 C655 0.961 . S
H670 C655 0.961 . S
H671 C655 0.961 . S
H672 C656 0.931 . S
H673 C661 0.930 . S
H674 C662 0.956 . S
H675 C662 0.961 . S
H676 C662 0.961 . S
H677 C663 0.958 . S
H678 C663 0.961 . S
H679 C663 0.960 . S
C680 C681 1.391 . S
C680 C682 1.394 . S
C680 H696 0.931 . S
C681 C680 1.391 . S
C681 C685 1.376 . S
C682 C680 1.394 . S
C682 C683 1.369 . S
C682 C686 1.531 . S
C683 C682 1.369 . S
C683 C684 1.410 . S
C683 C691 1.503 . S
C684 C683 1.410 . S
C684 C685 1.392 . S
C684 C687 1.511 . S
C685 C681 1.376 . S
C685 C684 1.392 . S
C685 H697 0.929 . S
C686 C682 1.531 . S
C686 H698 0.960 . S
C686 H699 0.962 . S
C686 H700 0.960 . S
C687 C684 1.511 . S
C687 H701 0.961 . S
C687 H702 0.961 . S
C687 H703 0.961 . S
C688 C689 1.370 . S
C688 C690 1.363 . S
C688 H704 0.931 . S
C689 C688 1.370 . S
C689 C693 1.408 . S
C690 C688 1.363 . S
C690 C691 1.370 . S
C690 C694 1.524 . S
C691 C683 1.503 . S
C691 C690 1.370 . S
C691 C692 1.403 . S
C692 C691 1.403 . S
C692 C693 1.404 . S
C692 C695 1.539 . S
C693 C689 1.408 . S
C693 C692 1.404 . S
C693 H705 0.930 . S
C694 C690 1.524 . S
C694 H706 0.956 . S
C694 H707 0.961 . S
C694 H708 0.961 . S
C695 C692 1.539 . S
C695 H709 0.958 . S
C695 H710 0.961 . S
C695 H711 0.960 . S
H696 C680 0.931 . S
H697 C685 0.929 . S
H698 C686 0.960 . S
H699 C686 0.962 . S
H700 C686 0.960 . S
H701 C687 0.961 . S
H702 C687 0.961 . S
H703 C687 0.961 . S
H704 C688 0.931 . S
H705 C693 0.930 . S
H706 C694 0.956 . S
H707 C694 0.961 . S
H708 C694 0.961 . S
H709 C695 0.958 . S
H710 C695 0.961 . S
H711 C695 0.960 . S
C712 C713 1.391 . S
C712 C714 1.394 . S
C712 H728 0.931 . S
C713 C712 1.391 . S
C713 C717 1.376 . S
C714 C712 1.394 . S
C714 C715 1.369 . S
C714 C718 1.531 . S
C715 C714 1.369 . S
C715 C716 1.410 . S
C715 C723 1.503 . S
C716 C715 1.410 . S
C716 C717 1.392 . S
C716 C719 1.511 . S
C717 C713 1.376 . S
C717 C716 1.392 . S
C717 H729 0.929 . S
C718 C714 1.531 . S
C718 H730 0.960 . S
C718 H731 0.962 . S
C718 H732 0.960 . S
C719 C716 1.511 . S
C719 H733 0.961 . S
C719 H734 0.961 . S
C719 H735 0.961 . S
C720 C721 1.370 . S
C720 C722 1.363 . S
C720 H736 0.931 . S
C721 C720 1.370 . S
C721 C725 1.408 . S
C722 C720 1.363 . S
C722 C723 1.370 . S
C722 C726 1.524 . S
C723 C715 1.503 . S
C723 C722 1.370 . S
C723 C724 1.403 . S
C724 C723 1.403 . S
C724 C725 1.404 . S
C724 C727 1.539 . S
C725 C721 1.408 . S
C725 C724 1.404 . S
C725 H737 0.930 . S
C726 C722 1.524 . S
C726 H738 0.956 . S
C726 H739 0.961 . S
C726 H740 0.961 . S
C727 C724 1.539 . S
C727 H741 0.958 . S
C727 H742 0.961 . S
C727 H743 0.960 . S
H728 C712 0.931 . S
H729 C717 0.929 . S
H730 C718 0.960 . S
H731 C718 0.962 . S
H732 C718 0.960 . S
H733 C719 0.961 . S
H734 C719 0.961 . S
H735 C719 0.961 . S
H736 C720 0.931 . S
H737 C725 0.930 . S
H738 C726 0.956 . S
H739 C726 0.961 . S
H740 C726 0.961 . S
H741 C727 0.958 . S
H742 C727 0.961 . S
H743 C727 0.960 . S
C744 C745 1.391 . S
C744 C746 1.394 . S
C744 H760 0.931 . S
C745 C744 1.391 . S
C745 C749 1.376 . S
C746 C744 1.394 . S
C746 C747 1.369 . S
C746 C750 1.531 . S
C747 C746 1.369 . S
C747 C748 1.410 . S
C747 C755 1.503 . S
C748 C747 1.410 . S
C748 C749 1.392 . S
C748 C751 1.511 . S
C749 C745 1.376 . S
C749 C748 1.392 . S
C749 H761 0.929 . S
C750 C746 1.531 . S
C750 H762 0.960 . S
C750 H763 0.962 . S
C750 H764 0.960 . S
C751 C748 1.511 . S
C751 H765 0.961 . S
C751 H766 0.961 . S
C751 H767 0.961 . S
C752 C753 1.370 . S
C752 C754 1.363 . S
C752 H768 0.931 . S
C753 C752 1.370 . S
C753 C757 1.408 . S
C754 C752 1.363 . S
C754 C755 1.370 . S
C754 C758 1.524 . S
C755 C747 1.503 . S
C755 C754 1.370 . S
C755 C756 1.403 . S
C756 C755 1.403 . S
C756 C757 1.404 . S
C756 C759 1.539 . S
C757 C753 1.408 . S
C757 C756 1.404 . S
C757 H769 0.930 . S
C758 C754 1.524 . S
C758 H770 0.956 . S
C758 H771 0.961 . S
C758 H772 0.961 . S
C759 C756 1.539 . S
C759 H773 0.958 . S
C759 H774 0.961 . S
C759 H775 0.960 . S
H760 C744 0.931 . S
H761 C749 0.929 . S
H762 C750 0.960 . S
H763 C750 0.962 . S
H764 C750 0.960 . S
H765 C751 0.961 . S
H766 C751 0.961 . S
H767 C751 0.961 . S
H768 C752 0.931 . S
H769 C757 0.930 . S
H770 C758 0.956 . S
H771 C758 0.961 . S
H772 C758 0.961 . S
H773 C759 0.958 . S
H774 C759 0.961 . S
H775 C759 0.960 . S
C776 C777 1.391 . S
C776 C778 1.394 . S
C776 H792 0.931 . S
C777 C776 1.391 . S
C777 C781 1.376 . S
C778 C776 1.394 . S
C778 C779 1.369 . S
C778 C782 1.531 . S
C779 C778 1.369 . S
C779 C780 1.410 . S
C779 C787 1.503 . S
C780 C779 1.410 . S
C780 C781 1.392 . S
C780 C783 1.511 . S
C781 C777 1.376 . S
C781 C780 1.392 . S
C781 H793 0.929 . S
C782 C778 1.531 . S
C782 H794 0.960 . S
C782 H795 0.962 . S
C782 H796 0.960 . S
C783 C780 1.511 . S
C783 H797 0.961 . S
C783 H798 0.961 . S
C783 H799 0.961 . S
C784 C785 1.370 . S
C784 C786 1.363 . S
C784 H800 0.931 . S
C785 C784 1.370 . S
C785 C789 1.408 . S
C786 C784 1.363 . S
C786 C787 1.370 . S
C786 C790 1.524 . S
C787 C779 1.503 . S
C787 C786 1.370 . S
C787 C788 1.403 . S
C788 C787 1.403 . S
C788 C789 1.404 . S
C788 C791 1.539 . S
C789 C785 1.408 . S
C789 C788 1.404 . S
C789 H801 0.930 . S
C790 C786 1.524 . S
C790 H802 0.956 . S
C790 H803 0.961 . S
C790 H804 0.961 . S
C791 C788 1.539 . S
C791 H805 0.958 . S
C791 H806 0.961 . S
C791 H807 0.960 . S
H792 C776 0.931 . S
H793 C781 0.929 . S
H794 C782 0.960 . S
H795 C782 0.962 . S
H796 C782 0.960 . S
H797 C783 0.961 . S
H798 C783 0.961 . S
H799 C783 0.961 . S
H800 C784 0.931 . S
H801 C789 0.930 . S
H802 C790 0.956 . S
H803 C790 0.961 . S
H804 C790 0.961 . S
H805 C791 0.958 . S
H806 C791 0.961 . S
H807 C791 0.960 . S
C808 C809 1.391 . S
C808 C810 1.394 . S
C808 H824 0.931 . S
C809 C808 1.391 . S
C809 C813 1.376 . S
C810 C808 1.394 . S
C810 C811 1.369 . S
C810 C814 1.531 . S
C811 C810 1.369 . S
C811 C812 1.410 . S
C811 C819 1.503 . S
C812 C811 1.410 . S
C812 C813 1.392 . S
C812 C815 1.511 . S
C813 C809 1.376 . S
C813 C812 1.392 . S
C813 H825 0.929 . S
C814 C810 1.531 . S
C814 H826 0.960 . S
C814 H827 0.962 . S
C814 H828 0.960 . S
C815 C812 1.511 . S
C815 H829 0.961 . S
C815 H830 0.961 . S
C815 H831 0.961 . S
C816 C817 1.370 . S
C816 C818 1.363 . S
C816 H832 0.931 . S
C817 C816 1.370 . S
C817 C821 1.408 . S
C818 C816 1.363 . S
C818 C819 1.370 . S
C818 C822 1.524 . S
C819 C811 1.503 . S
C819 C818 1.370 . S
C819 C820 1.403 . S
C820 C819 1.403 . S
C820 C821 1.404 . S
C820 C823 1.539 . S
C821 C817 1.408 . S
C821 C820 1.404 . S
C821 H833 0.930 . S
C822 C818 1.524 . S
C822 H834 0.956 . S
C822 H835 0.961 . S
C822 H836 0.961 . S
C823 C820 1.539 . S
C823 H837 0.958 . S
C823 H838 0.961 . S
C823 H839 0.960 . S
H824 C808 0.931 . S
H825 C813 0.929 . S
H826 C814 0.960 . S
H827 C814 0.962 . S
H828 C814 0.960 . S
H829 C815 0.961 . S
H830 C815 0.961 . S
H831 C815 0.961 . S
H832 C816 0.931 . S
H833 C821 0.930 . S
H834 C822 0.956 . S
H835 C822 0.961 . S
H836 C822 0.961 . S
H837 C823 0.958 . S
H838 C823 0.961 . S
H839 C823 0.960 . S
C840 C841 1.391 . S
C840 C842 1.394 . S
C840 H856 0.931 . S
C841 C840 1.391 . S
C841 C845 1.376 . S
C842 C840 1.394 . S
C842 C843 1.369 . S
C842 C846 1.531 . S
C843 C842 1.369 . S
C843 C844 1.410 . S
C843 C851 1.503 . S
C844 C843 1.410 . S
C844 C845 1.392 . S
C844 C847 1.511 . S
C845 C841 1.376 . S
C845 C844 1.392 . S
C845 H857 0.929 . S
C846 C842 1.531 . S
C846 H858 0.960 . S
C846 H859 0.962 . S
C846 H860 0.960 . S
C847 C844 1.511 . S
C847 H861 0.961 . S
C847 H862 0.961 . S
C847 H863 0.961 . S
C848 C849 1.370 . S
C848 C850 1.363 . S
C848 H864 0.931 . S
C849 C848 1.370 . S
C849 C853 1.408 . S
C850 C848 1.363 . S
C850 C851 1.370 . S
C850 C854 1.524 . S
C851 C843 1.503 . S
C851 C850 1.370 . S
C851 C852 1.403 . S
C852 C851 1.403 . S
C852 C853 1.404 . S
C852 C855 1.539 . S
C853 C849 1.408 . S
C853 C852 1.404 . S
C853 H865 0.930 . S
C854 C850 1.524 . S
C854 H866 0.956 . S
C854 H867 0.961 . S
C854 H868 0.961 . S
C855 C852 1.539 . S
C855 H869 0.958 . S
C855 H870 0.961 . S
C855 H871 0.960 . S
H856 C840 0.931 . S
H857 C845 0.929 . S
H858 C846 0.960 . S
H859 C846 0.962 . S
H860 C846 0.960 . S
H861 C847 0.961 . S
H862 C847 0.961 . S
H863 C847 0.961 . S
H864 C848 0.931 . S
H865 C853 0.930 . S
H866 C854 0.956 . S
H867 C854 0.961 . S
H868 C854 0.961 . S
H869 C855 0.958 . S
H870 C855 0.961 . S
H871 C855 0.960 . S
C872 C873 1.391 . S
C872 C874 1.394 . S
C872 H888 0.931 . S
C873 C872 1.391 . S
C873 C877 1.376 . S
C874 C872 1.394 . S
C874 C875 1.369 . S
C874 C878 1.531 . S
C875 C874 1.369 . S
C875 C876 1.410 . S
C875 C883 1.503 . S
C876 C875 1.410 . S
C876 C877 1.392 . S
C876 C879 1.511 . S
C877 C873 1.376 . S
C877 C876 1.392 . S
C877 H889 0.929 . S
C878 C874 1.531 . S
C878 H890 0.960 . S
C878 H891 0.962 . S
C878 H892 0.960 . S
C879 C876 1.511 . S
C879 H893 0.961 . S
C879 H894 0.961 . S
C879 H895 0.961 . S
C880 C881 1.370 . S
C880 C882 1.363 . S
C880 H896 0.931 . S
C881 C880 1.370 . S
C881 C885 1.408 . S
C882 C880 1.363 . S
C882 C883 1.370 . S
C882 C886 1.524 . S
C883 C875 1.503 . S
C883 C882 1.370 . S
C883 C884 1.403 . S
C884 C883 1.403 . S
C884 C885 1.404 . S
C884 C887 1.539 . S
C885 C881 1.408 . S
C885 C884 1.404 . S
C885 H897 0.930 . S
C886 C882 1.524 . S
C886 H898 0.956 . S
C886 H899 0.961 . S
C886 H900 0.961 . S
C887 C884 1.539 . S
C887 H901 0.958 . S
C887 H902 0.961 . S
C887 H903 0.960 . S
H888 C872 0.931 . S
H889 C877 0.929 . S
H890 C878 0.960 . S
H891 C878 0.962 . S
H892 C878 0.960 . S
H893 C879 0.961 . S
H894 C879 0.961 . S
H895 C879 0.961 . S
H896 C880 0.931 . S
H897 C885 0.930 . S
H898 C886 0.956 . S
H899 C886 0.961 . S
H900 C886 0.961 . S
H901 C887 0.958 . S
H902 C887 0.961 . S
H903 C887 0.960 . S
C265 N212 0.756 1_554 S
C273 N5 0.791 . S
C297 N245 0.815 . S
C305 N38 0.800 . S
C329 N146 0.741 1_554 S
C337 N71 0.783 . S
C361 N179 0.758 . S
C369 N104 0.791 . S
C393 N80 0.823 . S
C401 N137 0.798 . S
C425 N113 0.821 . S
C433 N170 0.785 . S
C457 N14 0.815 . S
C465 N203 0.781 . S
C489 N236 0.788 . S
C497 N47 0.769 . S
C521 C74 2.535 . S
C529 C8 2.539 . S
C553 C41 2.536 . S
C561 C107 2.540 . S
C585 C206 2.537 . S
C593 C140 2.540 . S
C617 C173 2.536 . S
C625 C239 2.540 . S
C649 C28 1.967 . S
C657 C259 1.963 . S
C681 C160 1.951 . S
C689 C61 1.964 . S
C713 C193 1.953 . S
C721 C94 1.958 . S
C745 C226 1.949 . S
C753 C127 1.960 . S
C777 C83 1.101 . S
C785 C182 1.097 . S
C809 C116 1.133 . S
C817 C215 1.116 . S
C841 C248 1.084 . S
C849 C17 1.095 . S
C873 C149 1.090 . S
C881 C50 1.112 . S
