# Generated by pormake.
# Topology uos, (4)-cn, num edge types: 1
# Building blocks:
#     Node 0, Type 0, BuildingBlock: NAHDIM_clean_sbu_0, # of connection points: 4
#     Node 1, Type 0, BuildingBlock: NAHDIM_clean_sbu_0, # of connection points: 4
#     Node 2, Type 0, BuildingBlock: NAHDIM_clean_sbu_0, # of connection points: 4
#     Node 3, Type 0, BuildingBlock: NAHDIM_clean_sbu_0, # of connection points: 4
#     Node 4, Type 0, BuildingBlock: NAHDIM_clean_sbu_0, # of connection points: 4
#     Node 5, Type 0, BuildingBlock: NAHDIM_clean_sbu_0, # of connection points: 4
#     Node 6, Type 0, BuildingBlock: NAHDIM_clean_sbu_0, # of connection points: 4
#     Node 7, Type 0, BuildingBlock: NAHDIM_clean_sbu_0, # of connection points: 4
#     Node 8, Type 0, BuildingBlock: NAHDIM_clean_sbu_0, # of connection points: 4
#     Node 9, Type 0, BuildingBlock: NAHDIM_clean_sbu_0, # of connection points: 4
#     Node 10, Type 0, BuildingBlock: NAHDIM_clean_sbu_0, # of connection points: 4
#     Node 11, Type 0, BuildingBlock: NAHDIM_clean_sbu_0, # of connection points: 4
#     Node 12, Type 0, BuildingBlock: NAHDIM_clean_sbu_0, # of connection points: 4
#     Node 13, Type 0, BuildingBlock: NAHDIM_clean_sbu_0, # of connection points: 4
#     Node 14, Type 0, BuildingBlock: NAHDIM_clean_sbu_0, # of connection points: 4
#     Node 15, Type 0, BuildingBlock: NAHDIM_clean_sbu_0, # of connection points: 4
#     Node 16, Type 0, BuildingBlock: NAHDIM_clean_sbu_0, # of connection points: 4
#     Node 17, Type 0, BuildingBlock: NAHDIM_clean_sbu_0, # of connection points: 4
#     Node 18, Type 0, BuildingBlock: NAHDIM_clean_sbu_0, # of connection points: 4
#     Node 19, Type 0, BuildingBlock: NAHDIM_clean_sbu_0, # of connection points: 4
#     Node 20, Type 0, BuildingBlock: NAHDIM_clean_sbu_0, # of connection points: 4
#     Node 21, Type 0, BuildingBlock: NAHDIM_clean_sbu_0, # of connection points: 4
#     Node 22, Type 0, BuildingBlock: NAHDIM_clean_sbu_0, # of connection points: 4
#     Node 23, Type 0, BuildingBlock: NAHDIM_clean_sbu_0, # of connection points: 4
#     Node 24, Type 0, BuildingBlock: NAHDIM_clean_sbu_0, # of connection points: 4
#     Node 25, Type 0, BuildingBlock: NAHDIM_clean_sbu_0, # of connection points: 4
#     Node 26, Type 0, BuildingBlock: NAHDIM_clean_sbu_0, # of connection points: 4
#     Node 27, Type 0, BuildingBlock: NAHDIM_clean_sbu_0, # of connection points: 4
#     Node 28, Type 0, BuildingBlock: NAHDIM_clean_sbu_0, # of connection points: 4
#     Node 29, Type 0, BuildingBlock: NAHDIM_clean_sbu_0, # of connection points: 4
#     Node 30, Type 0, BuildingBlock: NAHDIM_clean_sbu_0, # of connection points: 4
#     Node 31, Type 0, BuildingBlock: NAHDIM_clean_sbu_0, # of connection points: 4
#     Edge 32, Type (0, 0), BuildingBlock: EZIPEK_clean_linker_0, # of connection points: 2
#     Edge 33, Type (0, 0), BuildingBlock: EZIPEK_clean_linker_0, # of connection points: 2
#     Edge 34, Type (0, 0), BuildingBlock: EZIPEK_clean_linker_0, # of connection points: 2
#     Edge 35, Type (0, 0), BuildingBlock: EZIPEK_clean_linker_0, # of connection points: 2
#     Edge 36, Type (0, 0), BuildingBlock: EZIPEK_clean_linker_0, # of connection points: 2
#     Edge 37, Type (0, 0), BuildingBlock: EZIPEK_clean_linker_0, # of connection points: 2
#     Edge 38, Type (0, 0), BuildingBlock: EZIPEK_clean_linker_0, # of connection points: 2
#     Edge 39, Type (0, 0), BuildingBlock: EZIPEK_clean_linker_0, # of connection points: 2
#     Edge 40, Type (0, 0), BuildingBlock: EZIPEK_clean_linker_0, # of connection points: 2
#     Edge 41, Type (0, 0), BuildingBlock: EZIPEK_clean_linker_0, # of connection points: 2
#     Edge 42, Type (0, 0), BuildingBlock: EZIPEK_clean_linker_0, # of connection points: 2
#     Edge 43, Type (0, 0), BuildingBlock: EZIPEK_clean_linker_0, # of connection points: 2
#     Edge 44, Type (0, 0), BuildingBlock: EZIPEK_clean_linker_0, # of connection points: 2
#     Edge 45, Type (0, 0), BuildingBlock: EZIPEK_clean_linker_0, # of connection points: 2
#     Edge 46, Type (0, 0), BuildingBlock: EZIPEK_clean_linker_0, # of connection points: 2
#     Edge 47, Type (0, 0), BuildingBlock: EZIPEK_clean_linker_0, # of connection points: 2
#     Edge 48, Type (0, 0), BuildingBlock: EZIPEK_clean_linker_0, # of connection points: 2
#     Edge 49, Type (0, 0), BuildingBlock: EZIPEK_clean_linker_0, # of connection points: 2
#     Edge 50, Type (0, 0), BuildingBlock: EZIPEK_clean_linker_0, # of connection points: 2
#     Edge 51, Type (0, 0), BuildingBlock: EZIPEK_clean_linker_0, # of connection points: 2
#     Edge 52, Type (0, 0), BuildingBlock: EZIPEK_clean_linker_0, # of connection points: 2
#     Edge 53, Type (0, 0), BuildingBlock: EZIPEK_clean_linker_0, # of connection points: 2
#     Edge 54, Type (0, 0), BuildingBlock: EZIPEK_clean_linker_0, # of connection points: 2
#     Edge 55, Type (0, 0), BuildingBlock: EZIPEK_clean_linker_0, # of connection points: 2
#     Edge 56, Type (0, 0), BuildingBlock: EZIPEK_clean_linker_0, # of connection points: 2
#     Edge 57, Type (0, 0), BuildingBlock: EZIPEK_clean_linker_0, # of connection points: 2
#     Edge 58, Type (0, 0), BuildingBlock: EZIPEK_clean_linker_0, # of connection points: 2
#     Edge 59, Type (0, 0), BuildingBlock: EZIPEK_clean_linker_0, # of connection points: 2
#     Edge 60, Type (0, 0), BuildingBlock: EZIPEK_clean_linker_0, # of connection points: 2
#     Edge 61, Type (0, 0), BuildingBlock: EZIPEK_clean_linker_0, # of connection points: 2
#     Edge 62, Type (0, 0), BuildingBlock: EZIPEK_clean_linker_0, # of connection points: 2
#     Edge 63, Type (0, 0), BuildingBlock: EZIPEK_clean_linker_0, # of connection points: 2
#     Edge 64, Type (0, 0), BuildingBlock: EZIPEK_clean_linker_0, # of connection points: 2
#     Edge 65, Type (0, 0), BuildingBlock: EZIPEK_clean_linker_0, # of connection points: 2
#     Edge 66, Type (0, 0), BuildingBlock: EZIPEK_clean_linker_0, # of connection points: 2
#     Edge 67, Type (0, 0), BuildingBlock: EZIPEK_clean_linker_0, # of connection points: 2
#     Edge 68, Type (0, 0), BuildingBlock: EZIPEK_clean_linker_0, # of connection points: 2
#     Edge 69, Type (0, 0), BuildingBlock: EZIPEK_clean_linker_0, # of connection points: 2
#     Edge 70, Type (0, 0), BuildingBlock: EZIPEK_clean_linker_0, # of connection points: 2
#     Edge 71, Type (0, 0), BuildingBlock: EZIPEK_clean_linker_0, # of connection points: 2
#     Edge 72, Type (0, 0), BuildingBlock: EZIPEK_clean_linker_0, # of connection points: 2
#     Edge 73, Type (0, 0), BuildingBlock: EZIPEK_clean_linker_0, # of connection points: 2
#     Edge 74, Type (0, 0), BuildingBlock: EZIPEK_clean_linker_0, # of connection points: 2
#     Edge 75, Type (0, 0), BuildingBlock: EZIPEK_clean_linker_0, # of connection points: 2
#     Edge 76, Type (0, 0), BuildingBlock: EZIPEK_clean_linker_0, # of connection points: 2
#     Edge 77, Type (0, 0), BuildingBlock: EZIPEK_clean_linker_0, # of connection points: 2
#     Edge 78, Type (0, 0), BuildingBlock: EZIPEK_clean_linker_0, # of connection points: 2
#     Edge 79, Type (0, 0), BuildingBlock: EZIPEK_clean_linker_0, # of connection points: 2
#     Edge 80, Type (0, 0), BuildingBlock: EZIPEK_clean_linker_0, # of connection points: 2
#     Edge 81, Type (0, 0), BuildingBlock: EZIPEK_clean_linker_0, # of connection points: 2
#     Edge 82, Type (0, 0), BuildingBlock: EZIPEK_clean_linker_0, # of connection points: 2
#     Edge 83, Type (0, 0), BuildingBlock: EZIPEK_clean_linker_0, # of connection points: 2
#     Edge 84, Type (0, 0), BuildingBlock: EZIPEK_clean_linker_0, # of connection points: 2
#     Edge 85, Type (0, 0), BuildingBlock: EZIPEK_clean_linker_0, # of connection points: 2
#     Edge 86, Type (0, 0), BuildingBlock: EZIPEK_clean_linker_0, # of connection points: 2
#     Edge 87, Type (0, 0), BuildingBlock: EZIPEK_clean_linker_0, # of connection points: 2
#     Edge 88, Type (0, 0), BuildingBlock: EZIPEK_clean_linker_0, # of connection points: 2
#     Edge 89, Type (0, 0), BuildingBlock: EZIPEK_clean_linker_0, # of connection points: 2
#     Edge 90, Type (0, 0), BuildingBlock: EZIPEK_clean_linker_0, # of connection points: 2
#     Edge 91, Type (0, 0), BuildingBlock: EZIPEK_clean_linker_0, # of connection points: 2
#     Edge 92, Type (0, 0), BuildingBlock: EZIPEK_clean_linker_0, # of connection points: 2
#     Edge 93, Type (0, 0), BuildingBlock: EZIPEK_clean_linker_0, # of connection points: 2
#     Edge 94, Type (0, 0), BuildingBlock: EZIPEK_clean_linker_0, # of connection points: 2
#     Edge 95, Type (0, 0), BuildingBlock: EZIPEK_clean_linker_0, # of connection points: 2
# Relax obj value: 0.049
# Max RMSD: 0.082
# Mean RMSD: 0.082
data_MOF--net-uos--node1-NAHDIM_clean_sbu_0--edge1-EZIPEK_clean_linker_0
_symmetry_space_group_name_H-M    P1
_symmetry_Int_Tables_number       1
_symmetry_cell_setting            triclinic
loop_
_symmetry_equiv_pos_as_xyz
'x, y, z'
_cell_length_a     62.317695
_cell_length_b     62.3328
_cell_length_c     17.564951
_cell_angle_alpha  90.010566
_cell_angle_beta   89.993623
_cell_angle_gamma 90.026922
loop_
_atom_site_label
_atom_site_type_symbol
_atom_site_fract_x
_atom_site_fract_y
_atom_site_fract_z
_atom_type_partial_charge
C0 C 0.13393 0.13879 0.02516 0.0
O1 O 0.12085 0.14923 0.07057 0.0
O2 O 0.1536 0.18782 0.11623 0.0
Zn3 Zn 0.16279 0.15709 0.12751 0.0
O4 O 0.14892 0.14368 0.2181 0.0
C5 C 0.20103 0.16971 0.1978 0.0
O6 O 0.187 0.18171 0.23385 0.0
O7 O 0.15405 0.13994 0.03602 0.0
C8 C 0.15453 0.12472 0.23516 0.0
O9 O 0.16895 0.11475 0.19366 0.0
C10 C 0.13834 0.19605 0.15418 0.0
O11 O 0.12689 0.18407 0.20037 0.0
O12 O 0.1946 0.15701 0.14589 0.0
C13 C 0.11265 0.88856 0.31077 0.0
O14 O 0.11159 0.87694 0.37297 0.0
O15 O 0.05398 0.90633 0.38091 0.0
Zn16 Zn 0.08462 0.91508 0.39777 0.0
O17 O 0.0964 0.90066 0.4904 0.0
C18 C 0.06992 0.95621 0.44779 0.0
O19 O 0.05203 0.94547 0.45847 0.0
O20 O 0.10247 0.90622 0.3071 0.0
C21 C 0.08707 0.90029 0.55455 0.0
O22 O 0.06807 0.90908 0.56277 0.0
C23 C 0.0475 0.88704 0.38314 0.0
O24 O 0.06118 0.87138 0.3949 0.0
O25 O 0.08606 0.94683 0.41855 0.0
C26 C 0.34984 0.86018 0.53802 0.0
O27 O 0.36389 0.85218 0.58596 0.0
O28 O 0.33089 0.81115 0.63508 0.0
Zn29 Zn 0.32241 0.84224 0.64817 0.0
O30 O 0.3401 0.855 0.73224 0.0
C31 C 0.27849 0.83026 0.69011 0.0
O32 O 0.28553 0.81059 0.68191 0.0
O33 O 0.32992 0.85817 0.55198 0.0
C34 C 0.33266 0.85757 0.79888 0.0
O35 O 0.31304 0.85138 0.81504 0.0
C36 C 0.33199 0.79879 0.69245 0.0
O37 O 0.32778 0.80648 0.76045 0.0
O38 O 0.29091 0.84598 0.67618 0.0
C39 C 0.39142 0.10851 0.72496 0.0
O40 O 0.40222 0.12226 0.76677 0.0
O41 O 0.43791 0.0878 0.82215 0.0
Zn42 Zn 0.40639 0.08311 0.84251 0.0
O43 O 0.39566 0.10415 0.92013 0.0
C44 C 0.41466 0.03943 0.89632 0.0
O45 O 0.43427 0.04299 0.87237 0.0
O46 O 0.39033 0.08902 0.74578 0.0
C47 C 0.39434 0.0987 0.98958 0.0
O48 O 0.40119 0.07976 0.01132 0.0
C49 C 0.4514 0.08801 0.87623 0.0
O50 O 0.4445 0.08663 0.94667 0.0
O51 O 0.4002 0.05345 0.88528 0.0
C52 C 0.15778 0.85442 0.05021 0.0
O53 O 0.17876 0.85333 0.04408 0.0
O54 O 0.15238 0.80143 0.90892 0.0
Zn55 Zn 0.1553 0.83344 0.90008 0.0
O56 O 0.13554 0.84445 0.81924 0.0
C57 C 0.19199 0.83521 0.80507 0.0
O58 O 0.17777 0.82791 0.7565 0.0
O59 O 0.14591 0.8471 -0.0024 0.0
C60 C 0.13873 0.86302 0.79201 0.0
O61 O 0.15492 0.87454 0.81703 0.0
C62 C 0.14606 0.79044 0.85233 0.0
O63 O 0.14081 0.80009 0.78858 0.0
O64 O 0.18616 0.83984 0.87252 0.0
C65 C 0.38776 0.89675 0.26803 0.0
O66 O 0.39665 0.88243 0.22312 0.0
O67 O 0.43431 0.91689 0.15797 0.0
Zn68 Zn 0.40235 0.92246 0.14815 0.0
O69 O 0.38826 0.90219 0.07335 0.0
C70 C 0.40956 0.96128 0.06393 0.0
O71 O 0.42524 0.94968 0.03606 0.0
O72 O 0.38823 0.91644 0.24911 0.0
C73 C 0.38546 0.90649 0.00343 0.0
O74 O 0.39269 0.92453 0.97501 0.0
C75 C 0.44551 0.90996 0.10271 0.0
O76 O 0.43604 0.90481 0.0385 0.0
O77 O 0.39733 0.9534 0.11477 0.0
C78 C 0.35759 0.14767 0.45417 0.0
O79 O 0.37257 0.15485 0.40814 0.0
O80 O 0.33963 0.19839 0.3618 0.0
Zn81 Zn 0.33217 0.1675 0.34244 0.0
O82 O 0.35106 0.15491 0.26095 0.0
C83 C 0.29101 0.17868 0.2733 0.0
O84 O 0.30145 0.19555 0.24836 0.0
O85 O 0.33799 0.15097 0.43824 0.0
C86 C 0.34366 0.14932 0.19668 0.0
O87 O 0.32335 0.15246 0.18094 0.0
C88 C 0.34435 0.21117 0.30808 0.0
O89 O 0.34597 0.2038 0.23826 0.0
O90 O 0.30068 0.16481 0.31395 0.0
C91 C 0.09509 0.08987 0.78301 0.0
O92 O 0.07641 0.0806 0.79366 0.0
O93 O 0.05585 0.09048 0.63217 0.0
Zn94 Zn 0.08669 0.08184 0.62388 0.0
O95 O 0.10032 0.09596 0.53361 0.0
C96 C 0.07592 0.04438 0.54795 0.0
O97 O 0.0655 0.05899 0.50876 0.0
O98 O 0.10278 0.09139 0.7164 0.0
C99 C 0.11526 0.08614 0.49893 0.0
O100 O 0.12162 0.06727 0.52335 0.0
C101 C 0.04829 0.10756 0.60357 0.0
O102 O 0.06107 0.12126 0.56937 0.0
O103 O 0.0869 0.05003 0.60563 0.0
C104 C 0.86341 0.85989 0.97158 0.0
O105 O 0.87586 0.8499 0.92275 0.0
O106 O 0.83903 0.80997 0.89058 0.0
Zn107 Zn 0.83302 0.84149 0.87413 0.0
O108 O 0.84998 0.85143 0.78447 0.0
C109 C 0.7883 0.83226 0.83635 0.0
O110 O 0.79391 0.8123 0.84849 0.0
O111 O 0.84315 0.85857 0.9644 0.0
C112 C 0.84558 0.86988 0.75848 0.0
O113 O 0.83052 0.88149 0.79064 0.0
C114 C 0.83856 0.79774 0.83277 0.0
O115 O 0.8351 0.80618 0.76534 0.0
O116 O 0.80179 0.84724 0.84722 0.0
C117 C 0.89806 0.10617 0.71857 0.0
O118 O 0.90263 0.12042 0.66596 0.0
O119 O 0.94875 0.08696 0.61343 0.0
Zn120 Zn 0.91737 0.07941 0.60844 0.0
O121 O 0.9026 0.09624 0.52706 0.0
C122 C 0.92816 0.03884 0.54178 0.0
O123 O 0.94528 0.0496 0.52063 0.0
O124 O 0.90297 0.0866 0.70781 0.0
C125 C 0.90875 0.09644 0.45824 0.0
O126 O 0.92589 0.08568 0.43773 0.0
C127 C 0.95618 0.10531 0.59637 0.0
O128 O 0.94319 0.12081 0.57551 0.0
O129 O 0.9139 0.04809 0.58187 0.0
C130 C 0.63472 0.13727 0.45457 0.0
O131 O 0.62137 0.1451 0.40394 0.0
O132 O 0.65959 0.18899 0.36938 0.0
Zn133 Zn 0.66401 0.1571 0.35462 0.0
O134 O 0.64634 0.14584 0.26846 0.0
C135 C 0.7046 0.16392 0.28447 0.0
O136 O 0.69444 0.18083 0.25843 0.0
O137 O 0.65473 0.14075 0.44784 0.0
C138 C 0.64398 0.1545 0.20369 0.0
O139 O 0.65354 0.17271 0.18782 0.0
C140 C 0.64179 0.19841 0.35802 0.0
O141 O 0.62498 0.18737 0.33586 0.0
O142 O 0.69496 0.15109 0.3291 0.0
C143 C 0.59718 0.88784 0.24884 0.0
O144 O 0.5869 0.87344 0.20835 0.0
O145 O 0.5506 0.90843 0.14172 0.0
Zn146 Zn 0.58219 0.91438 0.12905 0.0
O147 O 0.59516 0.89718 0.04386 0.0
C148 C 0.58566 0.95139 0.03379 0.0
O149 O 0.58339 0.93686 0.98035 0.0
O150 O 0.59761 0.90723 0.22655 0.0
C151 C 0.5892 0.87889 0.02017 0.0
O152 O 0.57281 0.8691 0.05171 0.0
C153 C 0.53796 0.90871 0.08501 0.0
O154 O 0.54561 0.91184 0.01633 0.0
O155 O 0.58585 0.94575 0.10337 0.0
C156 C 0.85916 0.14133 0.98902 0.0
O157 O 0.87235 0.15256 0.03169 0.0
O158 O 0.83755 0.1854 0.09599 0.0
Zn159 Zn 0.83289 0.15357 0.10906 0.0
O160 O 0.85404 0.141 0.18331 0.0
C161 C 0.79291 0.16004 0.19022 0.0
O162 O 0.8038 0.17576 0.2214 0.0
O163 O 0.83969 0.13929 0.00946 0.0
C164 C 0.85146 0.14029 0.25482 0.0
O165 O 0.83417 0.14839 0.28589 0.0
C166 C 0.84333 0.19768 0.14999 0.0
O167 O 0.84759 0.18953 0.21718 0.0
O168 O 0.80194 0.14795 0.14135 0.0
C169 C 0.59498 0.08831 0.69446 0.0
O170 O 0.57452 0.08358 0.68805 0.0
O171 O 0.55726 0.08757 0.84009 0.0
Zn172 Zn 0.58831 0.07874 0.85365 0.0
O173 O 0.60285 0.09617 0.93462 0.0
C174 C 0.58888 0.04065 0.94664 0.0
O175 O 0.58643 0.0547 0.00156 0.0
O176 O 0.60428 0.08631 0.75827 0.0
C177 C 0.59386 0.10519 0.99094 0.0
O178 O 0.57311 0.10314 0.00153 0.0
C179 C 0.5425 0.08114 0.88437 0.0
O180 O 0.54713 0.06848 0.94161 0.0
O181 O 0.5904 0.04702 0.87802 0.0
C182 C 0.63525 0.85457 0.52338 0.0
O183 O 0.62153 0.84502 0.56893 0.0
O184 O 0.66268 0.80715 0.61133 0.0
Zn185 Zn 0.66361 0.83887 0.63526 0.0
O186 O 0.6419 0.84621 0.71732 0.0
C187 C 0.70354 0.83471 0.71387 0.0
O188 O 0.69373 0.81765 0.74046 0.0
O189 O 0.65509 0.85459 0.53996 0.0
C190 C 0.64644 0.84913 0.78708 0.0
O191 O 0.66627 0.847 0.81064 0.0
C192 C 0.65437 0.79378 0.65726 0.0
O193 O 0.6455 0.80067 0.72048 0.0
O194 O 0.69391 0.84688 0.66693 0.0
C195 C 0.90392 0.90715 0.21567 0.0
O196 O 0.91618 0.92393 0.20322 0.0
O197 O 0.94864 0.90411 0.36874 0.0
Zn198 Zn 0.9173 0.91101 0.37467 0.0
O199 O 0.90471 0.89654 0.46597 0.0
C200 C 0.92477 0.95029 0.44542 0.0
O201 O 0.93651 0.93715 0.48642 0.0
O202 O 0.90201 0.8997 0.28256 0.0
C203 C 0.88778 0.90453 0.49438 0.0
O204 O 0.879 0.92149 0.46288 0.0
C205 C 0.9558 0.88507 0.36627 0.0
O206 O 0.94245 0.86876 0.36476 0.0
O207 O 0.91424 0.94291 0.38922 0.0
C208 C 0.6366 0.63866 0.52404 0.0
O209 O 0.62377 0.65051 0.56585 0.0
O210 O 0.66123 0.68866 0.5998 0.0
Zn211 Zn 0.66542 0.65726 0.62532 0.0
O212 O 0.64586 0.64753 0.70954 0.0
C213 C 0.70614 0.66489 0.69712 0.0
O214 O 0.69634 0.68233 0.72019 0.0
O215 O 0.65671 0.63921 0.53595 0.0
C216 C 0.64913 0.64916 0.78054 0.0
O217 O 0.66649 0.65857 0.80628 0.0
C218 C 0.65553 0.70196 0.65072 0.0
O219 O 0.65104 0.69509 0.71944 0.0
O220 O 0.69637 0.6516 0.65453 0.0
C221 C 0.60512 0.38654 0.77943 0.0
O222 O 0.59345 0.3731 0.81952 0.0
O223 O 0.55875 0.40807 0.87748 0.0
Zn224 Zn 0.59033 0.4122 0.89639 0.0
O225 O 0.60113 0.39165 0.97497 0.0
C226 C 0.5865 0.45824 0.90364 0.0
O227 O 0.57568 0.45577 0.84006 0.0
O228 O 0.60658 0.40596 0.80073 0.0
C229 C 0.60252 0.39703 0.04444 0.0
O230 O 0.5957 0.41595 0.06662 0.0
C231 C 0.54584 0.40463 0.93203 0.0
O232 O 0.55308 0.40327 0.00199 0.0
O233 O 0.59522 0.44212 0.93493 0.0
C234 C 0.85437 0.35207 -0.00138 0.0
O235 O 0.86915 0.34314 0.0415 0.0
O236 O 0.83753 0.30293 0.09324 0.0
Zn237 Zn 0.8299 0.33383 0.11376 0.0
O238 O 0.84968 0.34615 0.19276 0.0
C239 C 0.78718 0.32114 0.165 0.0
O240 O 0.79357 0.30179 0.14668 0.0
O241 O 0.83477 0.35056 0.01778 0.0
C242 C 0.84361 0.34851 0.26122 0.0
O243 O 0.82446 0.34204 0.28219 0.0
C244 C 0.83959 0.28976 0.14781 0.0
O245 O 0.83778 0.29668 0.21813 0.0
O246 O 0.79939 0.33711 0.15284 0.0
C247 C 0.9008 0.60585 0.21344 0.0
O248 O 0.91045 0.62027 0.25589 0.0
O249 O 0.94812 0.58463 0.31642 0.0
Zn250 Zn 0.91627 0.58075 0.33247 0.0
O251 O 0.90585 0.60313 0.40591 0.0
C252 C 0.92304 0.53802 0.39533 0.0
O253 O 0.94333 0.54248 0.38391 0.0
O254 O 0.90096 0.5863 0.2339 0.0
C255 C 0.90118 0.5986 0.47433 0.0
O256 O 0.90403 0.57904 0.50006 0.0
C257 C 0.96017 0.58706 0.37408 0.0
O258 O 0.95163 0.58723 0.44241 0.0
O259 O 0.90874 0.55144 0.37567 0.0
C260 C 0.64132 0.34872 0.51 0.0
O261 O 0.6268 0.34496 0.45753 0.0
O262 O 0.66046 0.29867 0.39642 0.0
Zn263 Zn 0.66689 0.3303 0.39567 0.0
O264 O 0.6483 0.34534 0.3197 0.0
C265 C 0.70591 0.32098 0.31859 0.0
O266 O 0.6949 0.30389 0.29907 0.0
O267 O 0.66075 0.34354 0.49783 0.0
C268 C 0.64936 0.34204 0.24859 0.0
O269 O 0.6627 0.32772 0.22121 0.0
C270 C 0.64186 0.29042 0.39254 0.0
O271 O 0.62483 0.30276 0.3892 0.0
O272 O 0.69766 0.33476 0.3632 0.0
C273 C 0.88986 0.39025 0.72884 0.0
O274 O 0.89912 0.37611 0.68418 0.0
O275 O 0.93781 0.41078 0.6341 0.0
Zn276 Zn 0.90637 0.41647 0.61463 0.0
O277 O 0.89435 0.39649 0.53505 0.0
C278 C 0.91539 0.45649 0.53935 0.0
O279 O 0.93238 0.44584 0.51695 0.0
O280 O 0.89049 0.41001 0.71125 0.0
C281 C 0.89418 0.40049 0.46425 0.0
O282 O 0.90271 0.41829 0.43835 0.0
C283 C 0.95073 0.40517 0.58184 0.0
O284 O 0.94344 0.40155 0.51292 0.0
O285 O 0.90177 0.44753 0.58294 0.0
C286 C 0.86389 0.64252 0.94346 0.0
O287 O 0.87833 0.65115 0.8984 0.0
O288 O 0.8444 0.69152 0.84788 0.0
Zn289 Zn 0.83814 0.66007 0.82981 0.0
O290 O 0.85747 0.64798 0.74992 0.0
C291 C 0.7918 0.66547 0.81558 0.0
O292 O 0.79406 0.67969 0.87014 0.0
O293 O 0.84413 0.64397 0.92632 0.0
C294 C 0.858 0.65512 0.68235 0.0
O295 O 0.84661 0.67202 0.66368 0.0
C296 C 0.83585 0.70628 0.80839 0.0
O297 O 0.82285 0.70136 0.75239 0.0
O298 O 0.80796 0.65494 0.79255 0.0
C299 C 0.59755 0.58546 0.2938 0.0
O300 O 0.5791 0.57577 0.3047 0.0
O301 O 0.55825 0.58479 0.14066 0.0
Zn302 Zn 0.58989 0.57919 0.13088 0.0
O303 O 0.60294 0.59814 0.05205 0.0
C304 C 0.58129 0.54077 0.05105 0.0
O305 O 0.5647 0.55226 0.02977 0.0
O306 O 0.60501 0.58743 0.227 0.0
C307 C 0.59569 0.60107 0.98547 0.0
O308 O 0.57788 0.59165 0.96371 0.0
C309 C 0.54994 0.60331 0.13491 0.0
O310 O 0.56215 0.62016 0.12334 0.0
O311 O 0.59477 0.54856 0.09788 0.0
C312 C 0.35427 0.3641 0.46406 0.0
O313 O 0.36823 0.3551 0.41796 0.0
O314 O 0.33951 0.31624 0.37075 0.0
Zn315 Zn 0.32827 0.34627 0.35305 0.0
O316 O 0.34386 0.36046 0.26689 0.0
C317 C 0.28577 0.32853 0.32605 0.0
O318 O 0.29441 0.31079 0.35181 0.0
O319 O 0.3344 0.36315 0.448 0.0
C320 C 0.33775 0.35816 0.19836 0.0
O321 O 0.32132 0.3457 0.18293 0.0
C322 C 0.34168 0.30267 0.31747 0.0
O323 O 0.33791 0.3086 0.24708 0.0
O324 O 0.29671 0.34575 0.325 0.0
C325 C 0.40298 0.60628 0.27511 0.0
O326 O 0.41094 0.61984 0.22537 0.0
O327 O 0.44953 0.58421 0.17114 0.0
Zn328 Zn 0.41793 0.57807 0.16342 0.0
O329 O 0.40556 0.59563 0.07843 0.0
C330 C 0.42698 0.53875 0.09056 0.0
O331 O 0.44354 0.55017 0.06806 0.0
O332 O 0.40361 0.58629 0.26127 0.0
C333 C 0.39204 0.58764 0.03242 0.0
O334 O 0.38528 0.56787 0.04168 0.0
C335 C 0.45768 0.60106 0.14253 0.0
O336 O 0.4453 0.61535 0.10955 0.0
O337 O 0.41358 0.54699 0.13661 0.0
C338 C 0.14937 0.64033 0.97317 0.0
O339 O 0.13578 0.6437 0.91737 0.0
O340 O 0.17022 0.68954 0.86321 0.0
Zn341 Zn 0.1772 0.65799 0.86318 0.0
O342 O 0.16208 0.64157 0.77972 0.0
C343 C 0.2147 0.66467 0.78097 0.0
O344 O 0.20039 0.67462 0.73924 0.0
O345 O 0.16905 0.64507 0.96413 0.0
C346 C 0.15525 0.64962 0.71789 0.0
O347 O 0.15702 0.67026 0.7052 0.0
C348 C 0.1518 0.69798 0.85569 0.0
O349 O 0.13481 0.68577 0.84689 0.0
O350 O 0.20889 0.65573 0.84268 0.0
C351 C 0.09972 0.38575 0.7413 0.0
O352 O 0.08832 0.37295 0.69771 0.0
O353 O 0.0556 0.41052 0.63871 0.0
Zn354 Zn 0.08774 0.41307 0.62378 0.0
O355 O 0.09929 0.39183 0.5477 0.0
C356 C 0.08332 0.45356 0.5454 0.0
O357 O 0.06602 0.44413 0.51892 0.0
O358 O 0.10199 0.4053 0.72241 0.0
C359 C 0.09834 0.39435 0.47617 0.0
O360 O 0.08856 0.41109 0.4475 0.0
C361 C 0.04299 0.40325 0.58804 0.0
O362 O 0.05085 0.39596 0.52377 0.0
O363 O 0.09551 0.44339 0.59097 0.0
C364 C 0.37253 0.64508 0.5526 0.0
O365 O 0.38753 0.65303 0.59696 0.0
O366 O 0.35229 0.69487 0.65181 0.0
Zn367 Zn 0.34674 0.66342 0.66702 0.0
O368 O 0.36436 0.65161 0.75215 0.0
C369 C 0.30044 0.66625 0.65815 0.0
O370 O 0.30401 0.6751 0.59156 0.0
O371 O 0.35296 0.64727 0.57095 0.0
C372 C 0.35906 0.63276 0.77198 0.0
O373 O 0.34364 0.62278 0.73526 0.0
C374 C 0.34454 0.70757 0.70116 0.0
O375 O 0.33524 0.69968 0.76214 0.0
O376 O 0.31602 0.6597 0.69827 0.0
C377 C 0.11147 0.60683 0.24849 0.0
O378 O 0.09941 0.6202 0.28739 0.0
O379 O 0.0649 0.58372 0.34297 0.0
Zn380 Zn 0.09632 0.57948 0.36357 0.0
O381 O 0.10582 0.59816 0.44949 0.0
C382 C 0.0909 0.54191 0.45108 0.0
O383 O 0.079 0.55531 0.49029 0.0
O384 O 0.1131 0.58748 0.2704 0.0
C385 C 0.12384 0.59425 0.47999 0.0
O386 O 0.13559 0.57827 0.45473 0.0
C387 C 0.05224 0.59085 0.3937 0.0
O388 O 0.05989 0.59688 0.46001 0.0
O389 O 0.10088 0.54862 0.39262 0.0
C390 C 0.13445 0.34555 0.0099 0.0
O391 O 0.12009 0.34037 0.06146 0.0
O392 O 0.15502 0.2962 0.12007 0.0
Zn393 Zn 0.16122 0.32785 0.12271 0.0
O394 O 0.1431 0.34246 0.20136 0.0
C395 C 0.2014 0.3193 0.19519 0.0
O396 O 0.19113 0.30197 0.21703 0.0
O397 O 0.15414 0.34145 0.02197 0.0
C398 C 0.1449 0.33902 0.27224 0.0
O399 O 0.15859 0.32468 0.29734 0.0
C400 C 0.13711 0.2882 0.13956 0.0
O401 O 0.12135 0.30072 0.16144 0.0
O402 O 0.1922 0.33271 0.15149 0.0
C403 C 0.39409 0.39627 0.7367 0.0
O404 O 0.40138 0.38095 0.78105 0.0
O405 O 0.44362 0.41403 0.8457 0.0
Zn406 Zn 0.41193 0.42015 0.85578 0.0
O407 O 0.39806 0.40077 0.93269 0.0
C408 C 0.41798 0.45438 0.95759 0.0
O409 O 0.42717 0.43862 0.99497 0.0
O410 O 0.39682 0.41573 0.75596 0.0
C411 C 0.38146 0.40753 0.96706 0.0
O412 O 0.37396 0.42671 0.95132 0.0
C413 C 0.45376 0.40405 0.8975 0.0
O414 O 0.44319 0.39554 0.95466 0.0
O415 O 0.40931 0.45055 0.89346 0.0
C416 C 0.25267 0.17322 0.31267 0.0
C417 C 0.26804 0.17591 0.25383 0.0
C418 C 0.23917 0.17659 0.15895 0.0
C419 C 0.22412 0.17149 0.21676 0.0
N420 N 0.217 0.16139 0.34716 0.0
N421 N 0.2763 0.17635 0.11931 0.0
C422 C 0.23099 0.16878 0.29326 0.0
C423 C 0.26141 0.17652 0.17645 0.0
N424 N 0.25848 0.17603 0.3871 0.0
N425 N 0.23224 0.18263 0.08826 0.0
H426 H 0.29277 0.1763 0.12911 0.0
H427 H 0.27232 0.17427 0.06218 0.0
H428 H 0.21606 0.18356 0.07347 0.0
H429 H 0.24241 0.18882 0.04663 0.0
H430 H 0.24745 0.17657 0.43164 0.0
H431 H 0.27403 0.17999 0.40392 0.0
H432 H 0.22177 0.15672 0.40154 0.0
H433 H 0.20094 0.1581 0.33575 0.0
C434 C 0.07796 0.99496 0.42163 0.0
C435 C 0.07159 0.97877 0.47366 0.0
C436 C 0.06666 0.00591 0.57334 0.0
C437 C 0.07504 0.0217 0.5235 0.0
N438 N 0.09232 0.03073 0.40463 0.0
N439 N 0.06363 0.96819 0.60311 0.0
C440 C 0.08173 0.01609 0.44882 0.0
C441 C 0.06697 0.98405 0.5507 0.0
N442 N 0.07944 0.99044 0.34563 0.0
N443 N 0.05751 0.01184 0.64091 0.0
H444 H 0.06368 0.95194 0.58939 0.0
H445 H 0.06275 0.97102 0.66147 0.0
H446 H 0.05671 0.02772 0.65939 0.0
H447 H 0.04894 0.00129 0.67541 0.0
H448 H 0.08172 0.00214 0.3041 0.0
H449 H 0.0763 0.97528 0.32305 0.0
H450 H 0.09964 0.02683 0.35315 0.0
H451 H 0.09556 0.04634 0.4225 0.0
C452 C 0.22061 0.84871 0.71733 0.0
C453 C 0.21479 0.8363 0.78186 0.0
C454 C 0.25196 0.82416 0.79467 0.0
C455 C 0.25698 0.83387 0.72377 0.0
N456 N 0.24553 0.85363 0.61283 0.0
N457 N 0.22419 0.80941 0.87526 0.0
C458 C 0.24122 0.84588 0.68401 0.0
C459 C 0.23029 0.82339 0.81927 0.0
N460 N 0.20654 0.86348 0.68879 0.0
N461 N 0.26797 0.81613 0.83959 0.0
H462 H 0.20842 0.80791 0.89431 0.0
H463 H 0.23444 0.79788 0.89801 0.0
H464 H 0.28414 0.81681 0.82446 0.0
H465 H 0.26545 0.81087 0.89517 0.0
H466 H 0.2106 0.8745 0.64662 0.0
H467 H 0.1914 0.86611 0.7124 0.0
H468 H 0.2339 0.86038 0.57767 0.0
H469 H 0.26035 0.85175 0.58611 0.0
C470 C 0.42266 0.01879 0.01508 0.0
C471 C 0.41044 0.02095 0.9472 0.0
C472 C 0.39179 0.9873 0.97623 0.0
C473 C 0.40677 0.98337 0.03521 0.0
N474 N 0.43608 0.99517 0.11384 0.0
N475 N 0.38371 0.00708 0.86082 0.0
C476 C 0.42198 -0.00083 0.05595 0.0
C477 C 0.39479 0.00533 0.9277 0.0
N478 N 0.43434 0.03577 0.04182 0.0
N479 N 0.37476 0.97376 0.9668 0.0
H480 H 0.38555 0.01998 0.82362 0.0
H481 H 0.37386 0.99502 0.83932 0.0
H482 H 0.37204 0.96077 0.00288 0.0
H483 H 0.36224 0.97661 0.92889 0.0
H484 H 0.44192 0.03591 0.09462 0.0
H485 H 0.43475 0.05059 0.01455 0.0
H486 H 0.44949 0.00462 0.12505 0.0
H487 H 0.4347 0.98179 0.1492 0.0
C488 C 0.75154 0.84905 0.83427 0.0
C489 C 0.76764 0.83666 0.79791 0.0
C490 C 0.74242 0.82642 0.69733 0.0
C491 C 0.72621 0.83838 0.73457 0.0
N492 N 0.71651 0.86588 0.82424 0.0
N493 N 0.78044 0.81918 0.68413 0.0
C494 C 0.73119 0.85134 0.79844 0.0
C495 C 0.7637 0.82707 0.72596 0.0
N496 N 0.75529 0.85764 0.90462 0.0
N497 N 0.73732 0.814 0.63576 0.0
H498 H 0.79633 0.82007 0.7025 0.0
H499 H 0.77891 0.81378 0.62831 0.0
H500 H 0.72221 0.8143 0.61018 0.0
H501 H 0.74772 0.80273 0.61223 0.0
H502 H 0.74341 0.86475 0.93781 0.0
H503 H 0.77004 0.85642 0.93228 0.0
H504 H 0.71974 0.87707 0.86673 0.0
H505 H 0.70178 0.86821 0.79737 0.0
C506 C 0.92864 0.98957 0.41461 0.0
C507 C 0.92334 0.97319 0.46743 0.0
C508 C 0.92141 -0.00019 0.56992 0.0
C509 C 0.92527 0.01636 0.51618 0.0
N510 N 0.92663 0.02738 0.38445 0.0
N511 N 0.90884 0.96352 0.59014 0.0
C512 C 0.9271 0.01136 0.43755 0.0
C513 C 0.91793 0.97856 0.54358 0.0
N514 N 0.93617 0.98442 0.34384 0.0
N515 N 0.92212 0.00406 0.64623 0.0
H516 H 0.90522 0.94803 0.57178 0.0
H517 H 0.90274 0.9671 0.64389 0.0
H518 H 0.92523 0.01926 0.66834 0.0
H519 H 0.92169 0.99209 0.68761 0.0
H520 H 0.94249 0.99574 0.3064 0.0
H521 H 0.93799 0.96867 0.32495 0.0
H522 H 0.92581 0.02448 0.3261 0.0
H523 H 0.92468 0.04349 0.39876 0.0
C524 C 0.73182 0.15921 0.18098 0.0
C525 C 0.72696 0.15979 0.25993 0.0
C526 C 0.76485 0.15388 0.28942 0.0
C527 C 0.7701 0.15712 0.2117 0.0
N528 N 0.75862 0.16523 0.08352 0.0
N529 N 0.73931 0.1604 0.39037 0.0
C530 C 0.75359 0.1602 0.15715 0.0
C531 C 0.74355 0.15764 0.31463 0.0
N532 N 0.71567 0.15718 0.12883 0.0
N533 N 0.78016 0.14673 0.33887 0.0
H534 H 0.72404 0.16371 0.41154 0.0
H535 H 0.75128 0.16138 0.43163 0.0
H536 H 0.79567 0.14301 0.32132 0.0
H537 H 0.77683 0.14217 0.3947 0.0
H538 H 0.7184 0.15459 0.07104 0.0
H539 H 0.69956 0.15582 0.14432 0.0
H540 H 0.74723 0.17011 0.04374 0.0
H541 H 0.77433 0.1662 0.0635 0.0
C542 C 0.57032 0.005 0.94721 0.0
C543 C 0.58867 0.01751 0.96522 0.0
C544 C 0.60564 0.98626 0.02518 0.0
C545 C 0.5866 0.97431 0.01252 0.0
N546 N 0.54947 0.97305 0.97419 0.0
N547 N 0.62301 0.0211 0.02734 0.0
C548 C 0.56859 0.98385 0.97664 0.0
C549 C 0.60609 0.00845 0.00624 0.0
N550 N 0.55453 0.01332 0.90199 0.0
N551 N 0.62358 0.97617 0.05222 0.0
H552 H 0.62465 0.03702 0.01002 0.0
H553 H 0.63487 0.01622 0.0653 0.0
H554 H 0.62383 0.95995 0.06691 0.0
H555 H 0.63864 0.98334 0.05478 0.0
H556 H 0.54201 0.00422 0.8796 0.0
H557 H 0.55472 0.02902 0.88186 0.0
H558 H 0.53511 0.97997 0.9565 0.0
H559 H 0.54743 0.95769 0.99655 0.0
C560 C 0.73292 0.65096 0.7903 0.0
C561 C 0.72861 0.66128 0.72014 0.0
C562 C 0.76682 0.66926 0.70422 0.0
C563 C 0.77053 0.66213 0.77998 0.0
N564 N 0.75746 0.64617 0.89615 0.0
N565 N 0.74076 0.68093 0.61031 0.0
C566 C 0.75367 0.65288 0.82326 0.0
C567 C 0.74541 0.67043 0.67664 0.0
N568 N 0.71726 0.639 0.8244 0.0
N569 N 0.78368 0.67483 0.65852 0.0
H570 H 0.72541 0.68121 0.58662 0.0
H571 H 0.75178 0.69038 0.58093 0.0
H572 H 0.79958 0.6745 0.67657 0.0
H573 H 0.78216 0.67798 0.60058 0.0
H574 H 0.71978 0.62952 0.87234 0.0
H575 H 0.70214 0.63687 0.80012 0.0
H576 H 0.74537 0.64172 0.93391 0.0
H577 H 0.77274 0.646 0.92043 0.0
C578 C 0.59484 0.49758 0.90586 0.0
C579 C 0.5865 0.47922 0.94316 0.0
C580 C 0.57873 0.5008 0.05674 0.0
C581 C 0.58473 0.51949 0.01619 0.0
N582 N 0.59645 0.53639 0.8998 0.0
N583 N 0.56697 0.46387 0.04896 0.0
C584 C 0.59222 0.51809 0.94001 0.0
C585 C 0.57765 0.48089 0.01758 0.0
N586 N 0.60593 0.49533 0.83916 0.0
N587 N 0.57393 0.50211 0.13255 0.0
H588 H 0.56503 0.4492 0.02133 0.0
H589 H 0.5582 0.46487 0.0993 0.0
H590 H 0.5739 0.51656 0.16251 0.0
H591 H 0.57173 0.48871 0.16709 0.0
H592 H 0.61433 0.50779 0.81326 0.0
H593 H 0.60838 0.48051 0.81299 0.0
H594 H 0.59949 0.53656 0.84151 0.0
H595 H 0.59555 0.55167 0.92373 0.0
C596 C 0.7306 0.33759 0.22313 0.0
C597 C 0.72764 0.32399 0.28704 0.0
C598 C 0.76517 0.31272 0.27994 0.0
C599 C 0.76721 0.32374 0.20956 0.0
N600 N 0.75172 0.34562 0.1106 0.0
N601 N 0.74137 0.29781 0.37537 0.0
C602 C 0.74999 0.33619 0.18062 0.0
C603 C 0.74476 0.31139 0.31543 0.0
N604 N 0.71482 0.35171 0.20289 0.0
N605 N 0.78294 0.30416 0.31412 0.0
H606 H 0.72697 0.29732 0.40566 0.0
H607 H 0.75236 0.28619 0.39247 0.0
H608 H 0.79827 0.30526 0.29072 0.0
H609 H 0.7829 0.29782 0.36895 0.0
H610 H 0.71678 0.36356 0.16172 0.0
H611 H 0.70025 0.35276 0.23176 0.0
H612 H 0.73892 0.35283 0.08239 0.0
H613 H 0.76563 0.34493 0.07774 0.0
C614 C 0.90011 0.48337 0.44911 0.0
C615 C 0.91279 0.47893 0.51412 0.0
C616 C 0.92675 0.5156 0.51225 0.0
C617 C 0.91732 0.51862 0.43946 0.0
N618 N 0.89562 0.50519 0.336 0.0
N619 N 0.93801 0.49043 0.60958 0.0
C620 C 0.9038 0.50262 0.40764 0.0
C621 C 0.92592 0.49502 0.54674 0.0
N622 N 0.88466 0.46912 0.42703 0.0
N623 N 0.93598 0.53257 0.54918 0.0
H624 H 0.93657 0.47602 0.63937 0.0
H625 H 0.95005 0.50045 0.6302 0.0
H626 H 0.93636 0.54802 0.52639 0.0
H627 H 0.94138 0.53189 0.60522 0.0
H628 H 0.87359 0.47221 0.38401 0.0
H629 H 0.88154 0.45507 0.45717 0.0
H630 H 0.88773 0.49306 0.30637 0.0
H631 H 0.89806 0.51896 0.30351 0.0
C632 C 0.24712 0.33982 0.31841 0.0
C633 C 0.26448 0.32769 0.28889 0.0
C634 C 0.24054 0.31059 0.1961 0.0
C635 C 0.22336 0.32329 0.22363 0.0
N636 N 0.21054 0.35233 0.30225 0.0
N637 N 0.279 0.30534 0.18919 0.0
C638 C 0.22677 0.33876 0.28176 0.0
C639 C 0.26156 0.31412 0.22476 0.0
N640 N 0.24979 0.35144 0.38381 0.0
N641 N 0.23674 0.29495 0.14313 0.0
H642 H 0.29472 0.30795 0.20732 0.0
H643 H 0.27816 0.29717 0.13759 0.0
H644 H 0.22183 0.29273 0.11724 0.0
H645 H 0.24798 0.28335 0.12807 0.0
H646 H 0.23723 0.35867 0.41324 0.0
H647 H 0.26443 0.35257 0.4123 0.0
H648 H 0.21263 0.36549 0.33796 0.0
H649 H 0.19515 0.35138 0.27929 0.0
C650 C 0.42459 0.51488 0.97616 0.0
C651 C 0.42297 0.51739 0.05629 0.0
C652 C 0.41303 0.47953 0.06756 0.0
C653 C 0.41842 0.47634 0.98981 0.0
N654 N 0.43383 0.49074 0.87398 0.0
N655 N 0.41904 0.50097 0.18025 0.0
C656 C 0.42537 0.49394 0.94486 0.0
C657 C 0.41801 0.49943 0.10273 0.0
N658 N 0.4246 0.53242 0.92945 0.0
N659 N 0.40257 0.46384 0.10728 0.0
H660 H 0.42341 0.515 0.20858 0.0
H661 H 0.41768 0.48772 0.21611 0.0
H662 H 0.39777 0.44939 0.08262 0.0
H663 H 0.39655 0.46616 0.16203 0.0
H664 H 0.42383 0.53122 0.87032 0.0
H665 H 0.42278 0.54805 0.94959 0.0
H666 H 0.44103 0.50299 0.84266 0.0
H667 H 0.43584 0.47562 0.84978 0.0
C668 C 0.26926 0.68508 0.71734 0.0
C669 C 0.27858 0.66576 0.69037 0.0
C670 C 0.24731 0.6452 0.73379 0.0
C671 C 0.23736 0.66471 0.75611 0.0
N672 N 0.23797 0.70329 0.76802 0.0
N673 N 0.27653 0.62781 0.66591 0.0
C674 C 0.24811 0.68468 0.74755 0.0
C675 C 0.26771 0.64586 0.69734 0.0
N676 N 0.28099 0.70365 0.71662 0.0
N677 N 0.23715 0.62608 0.74678 0.0
H678 H 0.29146 0.62775 0.63903 0.0
H679 H 0.26865 0.61315 0.66156 0.0
H680 H 0.22163 0.62495 0.76849 0.0
H681 H 0.24439 0.61117 0.74006 0.0
H682 H 0.27628 0.71778 0.74331 0.0
H683 H 0.29628 0.70473 0.69295 0.0
H684 H 0.24348 0.71853 0.75385 0.0
H685 H 0.22341 0.70359 0.79729 0.0
C686 C 0.09205 0.49224 0.57556 0.0
C687 C 0.08831 0.47582 0.52104 0.0
C688 C 0.08623 0.50282 0.41998 0.0
C689 C 0.09162 0.51902 0.47338 0.0
N690 N 0.10517 0.52829 0.5978 0.0
N691 N 0.08831 0.46519 0.3888 0.0
C692 C 0.09628 0.51345 0.54994 0.0
C693 C 0.08742 0.48103 0.44241 0.0
N694 N 0.09031 0.48803 0.65167 0.0
N695 N 0.07873 0.50811 0.34928 0.0
H696 H 0.0902 0.44909 0.40292 0.0
H697 H 0.08973 0.46828 0.3307 0.0
H698 H 0.07669 0.52387 0.33089 0.0
H699 H 0.07243 0.49682 0.31164 0.0
H700 H 0.09062 0.5 0.69308 0.0
H701 H 0.0865 0.47295 0.6734 0.0
H702 H 0.11074 0.5245 0.65209 0.0
H703 H 0.10908 0.5438 0.58032 0.0
C704 C 0.12593 0.10336 0.96365 0.0
C705 C 0.12507 0.12612 0.9615 0.0
C706 C 0.10312 0.12483 0.84602 0.0
C707 C 0.10518 0.10216 0.84525 0.0
N708 N 0.12064 0.06978 0.89604 0.0
N709 N 0.11621 0.15876 0.895 0.0
C710 C 0.11718 0.09138 0.90208 0.0
C711 C 0.11458 0.13694 0.90108 0.0
N712 N 0.13435 0.09322 0.02588 0.0
N713 N 0.08964 0.13473 0.79556 0.0
H714 H 0.12463 0.16815 0.93407 0.0
H715 H 0.1109 0.1674 0.84792 0.0
H716 H 0.0811 0.12645 0.75376 0.0
H717 H 0.08553 0.15089 0.79882 0.0
H718 H 0.13321 0.07677 0.03505 0.0
H719 H 0.14124 0.10144 0.07142 0.0
H720 H 0.1312 0.06132 0.93076 0.0
H721 H 0.11405 0.06048 0.85251 0.0
C722 C 0.1324 0.85012 0.15905 0.0
C723 C 0.14755 0.86302 0.11986 0.0
C724 C 0.14139 0.8922 0.21091 0.0
C725 C 0.12441 0.88019 0.2439 0.0
N726 N 0.10074 0.84952 0.23842 0.0
N727 N 0.16405 0.89766 0.10052 0.0
C728 C 0.11908 0.85962 0.21503 0.0
C729 C 0.15148 0.88443 0.14369 0.0
N730 N 0.1312 0.82859 0.14464 0.0
N731 N 0.1484 0.91061 0.24511 0.0
H732 H 0.17154 0.8927 0.05045 0.0
H733 H 0.16553 0.91406 0.11076 0.0
H734 H 0.14158 0.91672 0.29481 0.0
H735 H 0.16219 0.91876 0.22813 0.0
H736 H 0.12191 0.81809 0.17698 0.0
H737 H 0.14121 0.82083 0.10581 0.0
H738 H 0.09499 0.83551 0.21328 0.0
H739 H 0.09003 0.85628 0.27723 0.0
C740 C 0.38277 0.89663 0.41031 0.0
C741 C 0.3762 0.88955 0.33717 0.0
C742 C 0.35165 0.86355 0.39544 0.0
C743 C 0.35746 0.87132 0.46854 0.0
N744 N 0.37444 0.89864 0.54493 0.0
N745 N 0.35053 0.87046 0.25981 0.0
C746 C 0.37177 0.88893 0.47577 0.0
C747 C 0.35942 0.87429 0.32967 0.0
N748 N 0.40017 0.90983 0.41771 0.0
N749 N 0.33972 0.84524 0.38847 0.0
H750 H 0.35548 0.8784 0.21055 0.0
H751 H 0.33684 0.86112 0.252 0.0
H752 H 0.33397 0.8366 0.43499 0.0
H753 H 0.33714 0.83753 0.33665 0.0
H754 H 0.40717 0.91349 0.46996 0.0
H755 H 0.40877 0.91575 0.37133 0.0
H756 H 0.383 0.91285 0.55227 0.0
H757 H 0.36631 0.89369 0.59381 0.0
C758 C 0.38643 0.1084 0.58298 0.0
C759 C 0.38031 0.11616 0.65576 0.0
C760 C 0.35827 0.14407 0.59657 0.0
C761 C 0.36377 0.13586 0.52379 0.0
N762 N 0.37854 0.1072 0.44792 0.0
N763 N 0.35636 0.1375 0.73236 0.0
C764 C 0.37644 0.11705 0.51708 0.0
C765 C 0.36492 0.13279 0.66266 0.0
N766 N 0.40255 0.09365 0.57639 0.0
N767 N 0.34777 0.16325 0.60287 0.0
H768 H 0.36064 0.12928 0.78183 0.0
H769 H 0.34352 0.14799 0.73993 0.0
H770 H 0.34283 0.17225 0.55604 0.0
H771 H 0.34557 0.17118 0.65449 0.0
H772 H 0.40938 0.08933 0.52449 0.0
H773 H 0.41035 0.08692 0.62314 0.0
H774 H 0.38579 0.09228 0.44081 0.0
H775 H 0.37114 0.11292 0.39865 0.0
C776 C 0.8695 0.89453 0.04182 0.0
C777 C 0.87315 0.87213 0.03497 0.0
C778 C 0.89922 0.87368 0.13905 0.0
C779 C 0.89385 0.89552 0.15144 0.0
N780 N 0.87152 0.92605 0.12244 0.0
N781 N 0.88827 0.83955 0.08623 0.0
C782 C 0.87836 0.90581 0.10488 0.0
C783 C 0.88713 0.86146 0.08616 0.0
N784 N 0.85835 0.90521 0.98655 0.0
N785 N 0.91647 0.86482 0.1755 0.0
H786 H 0.87927 0.82994 0.04952 0.0
H787 H 0.89647 0.83083 0.12763 0.0
H788 H 0.9262 0.87344 0.2129 0.0
H789 H 0.92246 0.84964 0.16271 0.0
H790 H 0.85724 0.92187 0.98418 0.0
H791 H 0.85175 0.89759 0.93917 0.0
H792 H 0.85857 0.93344 0.09566 0.0
H793 H 0.8776 0.93482 0.16818 0.0
C794 C 0.85858 0.13476 0.84767 0.0
C795 C 0.86747 0.13036 0.92035 0.0
C796 C 0.89644 0.10967 0.86102 0.0
C797 C 0.88687 0.11305 0.78875 0.0
N798 N 0.8561 0.12416 0.7153 0.0
N799 N 0.89141 0.10912 -0.00233 0.0
C800 C 0.86707 0.12418 0.78269 0.0
C801 C 0.88536 0.11641 0.92747 0.0
N802 N 0.84282 0.14985 0.83994 0.0
N803 N 0.91657 0.10108 0.86625 0.0
H804 H 0.88331 0.11324 0.04756 0.0
H805 H 0.90299 0.09728 0.00556 0.0
H806 H 0.92547 0.09626 0.81901 0.0
H807 H 0.92523 0.10053 0.91693 0.0
H808 H 0.8375 0.15543 0.78733 0.0
H809 H 0.83631 0.15822 0.88584 0.0
H810 H 0.84059 0.13019 0.70959 0.0
H811 H 0.86158 0.11615 0.6669 0.0
C812 C 0.60168 0.12307 0.62819 0.0
C813 C 0.60575 0.10071 0.63398 0.0
C814 C 0.62956 0.10234 0.52312 0.0
C815 C 0.62616 0.12483 0.51934 0.0
N816 N 0.61263 0.15735 0.57561 0.0
N817 N 0.62587 0.06948 0.59631 0.0
C818 C 0.61321 0.13542 0.57396 0.0
C819 C 0.62047 0.09047 0.58437 0.0
N820 N 0.58661 0.13245 0.67407 0.0
N821 N 0.64063 0.09221 0.46632 0.0
H822 H 0.61892 0.06015 0.63905 0.0
H823 H 0.63823 0.06172 0.56753 0.0
H824 H 0.64771 0.10038 0.42099 0.0
H825 H 0.64159 0.0756 0.46099 0.0
H826 H 0.58102 0.14804 0.66646 0.0
H827 H 0.57858 0.12425 0.71728 0.0
H828 H 0.6053 0.16619 0.61864 0.0
H829 H 0.62119 0.16687 0.53738 0.0
C830 C 0.61277 0.88211 0.45749 0.0
C831 C 0.62743 0.86476 0.4526 0.0
C832 C 0.62536 0.8659 0.31336 0.0
C833 C 0.60859 0.8812 0.31879 0.0
N834 N 0.5845 0.90235 0.3959 0.0
N835 N 0.64594 0.83824 0.37689 0.0
C836 C 0.6019 0.88908 0.3908 0.0
C837 C 0.63343 0.85623 0.38076 0.0
N838 N 0.60963 0.89222 0.52569 0.0
N839 N 0.63393 0.86101 0.2438 0.0
H840 H 0.65216 0.83059 0.42484 0.0
H841 H 0.64874 0.82985 0.32659 0.0
H842 H 0.6286 0.86802 0.19328 0.0
H843 H 0.64761 0.85163 0.23679 0.0
H844 H 0.60086 0.90634 0.53149 0.0
H845 H 0.61747 0.88761 0.57558 0.0
H846 H 0.57735 0.9066 0.44733 0.0
H847 H 0.57605 0.90782 0.34849 0.0
C848 C 0.61632 0.63441 0.40263 0.0
C849 C 0.62741 0.62479 0.46418 0.0
C850 C 0.61951 0.589 0.41296 0.0
C851 C 0.60706 0.59867 0.35488 0.0
N852 N 0.59017 0.63014 0.30192 0.0
N853 N 0.63694 0.59311 0.5356 0.0
C854 C 0.60448 0.62127 0.35184 0.0
C855 C 0.62837 0.6021 0.47143 0.0
N856 N 0.61776 0.65607 0.39116 0.0
N857 N 0.62325 0.5674 0.41114 0.0
H858 H 0.64359 0.60216 0.57965 0.0
H859 H 0.63599 0.57681 0.54808 0.0
H860 H 0.61649 0.55731 0.37022 0.0
H861 H 0.63415 0.5597 0.44676 0.0
H862 H 0.61197 0.66373 0.34264 0.0
H863 H 0.6265 0.66623 0.42677 0.0
H864 H 0.58584 0.64627 0.3027 0.0
H865 H 0.58108 0.62103 0.26403 0.0
C866 C 0.63058 0.36069 0.71899 0.0
C867 C 0.61679 0.37869 0.71165 0.0
C868 C 0.62421 0.3799 0.57497 0.0
C869 C 0.63491 0.35989 0.58062 0.0
N870 N 0.64627 0.32976 0.65713 0.0
N871 N 0.59824 0.40402 0.6309 0.0
C872 C 0.63778 0.34994 0.65248 0.0
C873 C 0.61314 0.38811 0.63928 0.0
N874 N 0.63723 0.35421 0.78949 0.0
N875 N 0.62502 0.39129 0.50851 0.0
H876 H 0.58939 0.41027 0.67611 0.0
H877 H 0.59325 0.40972 0.57804 0.0
H878 H 0.63343 0.38598 0.46071 0.0
H879 H 0.61929 0.40693 0.50339 0.0
H880 H 0.64892 0.3425 0.79785 0.0
H881 H 0.63274 0.36208 0.83944 0.0
H882 H 0.64642 0.32082 0.70722 0.0
H883 H 0.65154 0.32116 0.60978 0.0
C884 C 0.88581 0.38949 0.87109 0.0
C885 C 0.87861 0.38288 0.79814 0.0
C886 C 0.85421 0.35683 0.85662 0.0
C887 C 0.86088 0.36395 0.92959 0.0
N888 N 0.87872 0.39052 0.0067 0.0
N889 N 0.85235 0.36443 0.72147 0.0
C890 C 0.87534 0.38141 0.93691 0.0
C891 C 0.86164 0.36784 0.79094 0.0
N892 N 0.90337 0.40251 0.87781 0.0
N893 N 0.84177 0.33886 0.84964 0.0
H894 H 0.85719 0.3725 0.67234 0.0
H895 H 0.83853 0.35527 0.71393 0.0
H896 H 0.83605 0.3302 0.89618 0.0
H897 H 0.83853 0.33151 0.79764 0.0
H898 H 0.91082 0.40579 0.9296 0.0
H899 H 0.91166 0.40869 0.83115 0.0
H900 H 0.88742 0.40462 0.01452 0.0
H901 H 0.87102 0.3852 0.05598 0.0
C902 C 0.89595 0.6057 0.0715 0.0
C903 C 0.88918 0.61278 0.14438 0.0
C904 C 0.86463 0.63863 0.08575 0.0
C905 C 0.87089 0.63109 0.01285 0.0
N906 N 0.88826 0.60407 0.93635 0.0
N907 N 0.86344 0.63179 0.22149 0.0
C908 C 0.88524 0.61354 0.00576 0.0
C909 C 0.87234 0.62794 0.15166 0.0
N910 N 0.9133 0.59242 0.06471 0.0
N911 N 0.85234 0.65671 0.09233 0.0
H912 H 0.86851 0.62397 0.27086 0.0
H913 H 0.8497 0.64104 0.22935 0.0
H914 H 0.84647 0.66519 0.04562 0.0
H915 H 0.8494 0.66434 0.14405 0.0
H916 H 0.9205 0.58878 0.01278 0.0
H917 H 0.92163 0.58631 0.11139 0.0
H918 H 0.89686 0.5899 0.92885 0.0
H919 H 0.88039 0.6092 0.88718 0.0
C920 C 0.35525 0.36727 0.60683 0.0
C921 C 0.362 0.37472 0.5343 0.0
C922 C 0.38932 0.39738 0.59447 0.0
C923 C 0.38199 0.39059 0.66704 0.0
N924 N 0.35441 0.37378 0.74276 0.0
N925 N 0.38145 0.40075 0.45988 0.0
C926 C 0.3638 0.37701 0.67333 0.0
C927 C 0.37779 0.39103 0.52842 0.0
N928 N 0.3417 0.35009 0.6126 0.0
N929 N 0.40793 0.40887 0.58805 0.0
H930 H 0.37297 0.39676 0.41064 0.0
H931 H 0.39126 0.41417 0.45351 0.0
H932 H 0.41705 0.41366 0.6348 0.0
H933 H 0.41531 0.41211 0.53608 0.0
H934 H 0.33829 0.34249 0.66402 0.0
H935 H 0.33529 0.34216 0.56559 0.0
H936 H 0.33986 0.36577 0.74971 0.0
H937 H 0.36 0.381 0.79254 0.0
C938 C 0.39281 0.61603 0.48584 0.0
C939 C 0.37857 0.63374 0.48183 0.0
C940 C 0.37689 0.62989 0.34325 0.0
C941 C 0.3936 0.61448 0.34669 0.0
N942 N 0.4199 0.59514 0.42097 0.0
N943 N 0.35926 0.65964 0.40573 0.0
C944 C 0.40216 0.60801 0.41792 0.0
C945 C 0.37104 0.64118 0.4103 0.0
N946 N 0.3969 0.60646 0.55432 0.0
N947 N 0.36624 0.63335 0.27632 0.0
H948 H 0.35495 0.66871 0.45317 0.0
H949 H 0.35541 0.66701 0.35431 0.0
H950 H 0.36979 0.62501 0.22636 0.0
H951 H 0.35253 0.64282 0.27226 0.0
H952 H 0.40554 0.59224 0.55965 0.0
H953 H 0.38969 0.61145 0.60488 0.0
H954 H 0.42815 0.59193 0.47127 0.0
H955 H 0.42762 0.58924 0.37264 0.0
C956 C 0.13039 0.61097 0.0429 0.0
C957 C 0.14159 0.63077 0.04518 0.0
C958 C 0.13643 0.63245 0.1833 0.0
C959 C 0.12267 0.61433 0.17909 0.0
N960 N 0.10363 0.58839 0.1022 0.0
N961 N 0.15255 0.66221 0.11573 0.0
C962 C 0.11894 0.60402 0.10825 0.0
C963 C 0.14404 0.64199 0.11497 0.0
N964 N 0.13113 0.59852 0.97886 0.0
N965 N 0.14273 0.6402 0.2526 0.0
H966 H 0.15796 0.67001 0.06686 0.0
H967 H 0.15247 0.67201 0.16377 0.0
H968 H 0.13777 0.63344 0.30398 0.0
H969 H 0.15449 0.65194 0.25907 0.0
H970 H 0.12506 0.58296 0.97666 0.0
H971 H 0.13976 0.60286 0.93034 0.0
H972 H 0.09864 0.58205 0.05024 0.0
H973 H 0.09437 0.58317 0.14802 0.0
C974 C 0.12447 0.35916 0.80163 0.0
C975 C 0.11047 0.37697 0.80964 0.0
C976 C 0.11631 0.37668 0.94745 0.0
C977 C 0.1276 0.35701 0.94031 0.0
N978 N 0.14014 0.32787 0.86138 0.0
N979 N 0.09069 0.40113 0.8911 0.0
C980 C 0.13123 0.34784 0.86756 0.0
C981 C 0.10585 0.38546 0.88276 0.0
N982 N 0.13182 0.35343 0.73115 0.0
N983 N 0.11609 0.38727 0.01561 0.0
H984 H 0.0824 0.40784 0.8454 0.0
H985 H 0.08496 0.40616 0.94388 0.0
H986 H 0.12398 0.38156 0.06391 0.0
H987 H 0.10997 0.4027 0.02225 0.0
H988 H 0.14372 0.34194 0.72264 0.0
H989 H 0.12765 0.36169 0.68165 0.0
H990 H 0.1409 0.31942 0.81029 0.0
H991 H 0.14511 0.3189 0.90826 0.0
C992 C 0.13034 0.2525 0.07889 0.0
C993 C 0.13497 0.26469 0.14504 0.0
C994 C 0.14081 0.2318 0.21846 0.0
C995 C 0.13545 0.21956 0.15297 0.0
N996 N 0.12142 0.21768 0.0254 0.0
N997 N 0.14114 0.26655 0.28037 0.0
C998 C 0.12912 0.22976 0.08439 0.0
C999 C 0.13898 0.2545 0.21577 0.0
N1000 N 0.12762 0.26267 0.01059 0.0
N1001 N 0.14893 0.22186 0.28166 0.0
H1002 H 0.14099 0.28327 0.28001 0.0
H1003 H 0.14152 0.26006 0.33496 0.0
H1004 H 0.15058 0.20528 0.28633 0.0
H1005 H 0.15562 0.23006 0.32752 0.0
H1006 H 0.12667 0.25469 0.95865 0.0
H1007 H 0.12755 0.27935 0.00518 0.0
H1008 H 0.11461 0.22416 0.97645 0.0
H1009 H 0.12018 0.201 0.02808 0.0
C1010 C 0.99139 0.88762 0.30131 0.0
C1011 C 0.97924 0.88161 0.36621 0.0
C1012 C 0.01221 0.87637 0.44 0.0
C1013 C 0.02433 0.88261 0.37529 0.0
N1014 N 0.02638 0.88944 0.24065 0.0
N1015 N 0.97757 0.86625 0.49209 0.0
C1016 C 0.01416 0.88677 0.30466 0.0
C1017 C 0.98952 0.8745 0.43371 0.0
N1018 N 0.9811 0.89458 0.23711 0.0
N1019 N 0.02224 0.87353 0.50855 0.0
H1020 H 0.96087 0.86552 0.49095 0.0
H1021 H 0.98419 0.85866 0.53936 0.0
H1022 H 0.03884 0.87443 0.5153 0.0
H1023 H 0.01414 0.87162 0.55992 0.0
H1024 H 0.98889 0.90169 0.19118 0.0
H1025 H 0.96445 0.8941 0.23097 0.0
H1026 H 0.02007 0.89057 0.18596 0.0
H1027 H 0.04311 0.88869 0.24145 0.0
C1028 C 0.32626 0.76222 0.63349 0.0
C1029 C 0.33785 0.77583 0.68385 0.0
C1030 C 0.35601 0.74457 0.73896 0.0
C1031 C 0.3445 0.73104 0.68858 0.0
N1032 N 0.323 0.72723 0.5749 0.0
N1033 N 0.36821 0.78063 0.76713 0.0
C1034 C 0.33116 0.73997 0.63126 0.0
C1035 C 0.35409 0.76718 0.73147 0.0
N1036 N 0.30959 0.77011 0.59133 0.0
N1037 N 0.36864 0.7358 0.79445 0.0
H1038 H 0.3679 0.79723 0.75959 0.0
H1039 H 0.38158 0.77532 0.79725 0.0
H1040 H 0.37166 0.71937 0.79827 0.0
H1041 H 0.37526 0.74468 0.83886 0.0
H1042 H 0.2987 0.76039 0.56245 0.0
H1043 H 0.30548 0.78625 0.58911 0.0
H1044 H 0.31528 0.73327 0.52687 0.0
H1045 H 0.32556 0.71077 0.5721 0.0
C1046 C 0.48707 0.10535 0.89877 0.0
C1047 C 0.47482 0.08922 0.86143 0.0
C1048 C 0.5078 0.07034 0.82523 0.0
C1049 C 0.51981 0.08565 0.86679 0.0
N1050 N 0.52233 0.12027 0.92626 0.0
N1051 N 0.4737 0.05987 0.77088 0.0
C1052 C 0.50987 0.10405 0.89808 0.0
C1053 C 0.48522 0.0729 0.81838 0.0
N1054 N 0.47679 0.12173 0.93557 0.0
N1055 N 0.51796 0.05287 0.79478 0.0
H1056 H 0.45717 0.06072 0.76426 0.0
H1057 H 0.48069 0.0493 0.73229 0.0
H1058 H 0.53462 0.05135 0.79359 0.0
H1059 H 0.50999 0.03945 0.77373 0.0
H1060 H 0.48436 0.13253 0.97185 0.0
H1061 H 0.46029 0.12429 0.931 0.0
H1062 H 0.51638 0.13495 0.94482 0.0
H1063 H 0.53906 0.1197 0.92545 0.0
C1064 C 0.13365 0.75486 0.9025 0.0
C1065 C 0.14749 0.76684 0.85459 0.0
C1066 C 0.16227 0.73372 0.80184 0.0
C1067 C 0.14983 0.72165 0.85441 0.0
N1068 N 0.12672 0.72087 0.96478 0.0
N1069 N 0.17832 0.76798 0.77156 0.0
C1070 C 0.13627 0.73224 0.90746 0.0
C1071 C 0.16277 0.75636 0.8079 0.0
N1072 N 0.11766 0.76503 0.94173 0.0
N1073 N 0.17293 0.72365 0.74399 0.0
H1074 H 0.1795 0.78463 0.7756 0.0
H1075 H 0.19132 0.76097 0.74374 0.0
H1076 H 0.17255 0.70713 0.73599 0.0
H1077 H 0.18034 0.73184 0.69946 0.0
H1078 H 0.1056 0.7569 0.97094 0.0
H1079 H 0.11544 0.78161 0.94009 0.0
H1080 H 0.11853 0.72805 0.00974 0.0
H1081 H 0.12862 0.70436 0.97153 0.0
C1082 C 0.48132 0.92777 0.12578 0.0
C1083 C 0.46928 0.90902 0.10794 0.0
C1084 C 0.5025 0.88987 0.07622 0.0
C1085 C 0.5145 0.90829 0.09696 0.0
N1086 N 0.51601 0.9436 0.15309 0.0
N1087 N 0.46854 0.87097 0.0835 0.0
C1088 C 0.50411 0.9268 0.126 0.0
C1089 C 0.47993 0.88968 0.08811 0.0
N1090 N 0.47114 0.94692 0.13754 0.0
N1091 N 0.51264 0.87266 0.04405 0.0
H1092 H 0.45209 0.87014 0.09414 0.0
H1093 H 0.47562 0.85597 0.07662 0.0
H1094 H 0.52925 0.87185 0.03754 0.0
H1095 H 0.50454 0.85982 0.01934 0.0
H1096 H 0.47907 0.9616 0.14016 0.0
H1097 H 0.45457 0.94858 0.13908 0.0
H1098 H 0.50947 0.95629 0.18391 0.0
H1099 H 0.5327 0.94426 0.14964 0.0
C1100 C 0.36345 0.24633 0.29157 0.0
C1101 C 0.346 0.23455 0.32251 0.0
C1102 C 0.33192 0.2676 0.37877 0.0
C1103 C 0.34633 0.27974 0.33344 0.0
N1104 N 0.37695 0.28088 0.24977 0.0
N1105 N 0.3114 0.23495 0.38594 0.0
C1106 C 0.36253 0.26913 0.29098 0.0
C1107 C 0.32976 0.24535 0.36445 0.0
N1108 N 0.38114 0.23574 0.26494 0.0
N1109 N 0.32024 0.27705 0.43538 0.0
H1110 H 0.30822 0.21892 0.37381 0.0
H1111 H 0.29816 0.24291 0.40869 0.0
H1112 H 0.32187 0.29305 0.45092 0.0
H1113 H 0.31095 0.26828 0.47369 0.0
H1114 H 0.39514 0.24347 0.24783 0.0
H1115 H 0.38263 0.21908 0.26712 0.0
H1116 H 0.38735 0.27419 0.20991 0.0
H1117 H 0.37795 0.29756 0.25379 0.0
C1118 C 0.99122 0.10818 0.52787 0.0
C1119 C 0.97962 0.10878 0.59732 0.0
C1120 C 0.01313 0.11328 0.66864 0.0
C1121 C 0.02478 0.11021 0.60017 0.0
N1122 N 0.02542 0.10241 0.46554 0.0
N1123 N 0.97891 0.11093 0.7343 0.0
C1124 C 0.01399 0.10734 0.52975 0.0
C1125 C 0.99041 0.11116 0.66794 0.0
N1126 N 0.98045 0.1082 0.46009 0.0
N1127 N 0.02386 0.11868 0.73383 0.0
H1128 H 0.96218 0.11051 0.73567 0.0
H1129 H 0.98587 0.11004 0.78806 0.0
H1130 H 0.0405 0.12041 0.73585 0.0
H1131 H 0.01631 0.12314 0.78423 0.0
H1132 H 0.98788 0.11037 0.40756 0.0
H1133 H 0.96379 0.10755 0.45648 0.0
H1134 H 0.01841 0.09749 0.41468 0.0
H1135 H 0.04213 0.10165 0.46414 0.0
C1136 C 0.85321 0.74124 0.77566 0.0
C1137 C 0.84013 0.72907 0.82544 0.0
C1138 C 0.82846 0.7618 0.89053 0.0
C1139 C 0.84132 0.77413 0.83963 0.0
N1140 N 0.87095 0.77517 0.75146 0.0
N1141 N 0.8201 0.72671 0.94248 0.0
C1142 C 0.85527 0.76367 0.78761 0.0
C1143 C 0.82945 0.73902 0.88724 0.0
N1144 N 0.86335 0.7314 0.7161 0.0
N1145 N 0.81422 0.77159 0.93846 0.0
H1146 H 0.82005 0.71 0.94096 0.0
H1147 H 0.81416 0.73296 0.99327 0.0
H1148 H 0.81311 0.78809 0.94552 0.0
H1149 H 0.80238 0.76332 0.96828 0.0
H1150 H 0.87091 0.73975 0.67232 0.0
H1151 H 0.86324 0.7148 0.70834 0.0
H1152 H 0.88284 0.7682 0.71797 0.0
H1153 H 0.87345 0.79148 0.7616 0.0
C1154 C 0.62957 0.23137 0.42778 0.0
C1155 C 0.64044 0.22203 0.36492 0.0
C1156 C 0.64834 0.25776 0.31412 0.0
C1157 C 0.63986 0.26702 0.38138 0.0
N1158 N 0.6239 0.2631 0.50552 0.0
N1159 N 0.66174 0.22603 0.25094 0.0
C1160 C 0.63066 0.25397 0.43892 0.0
C1161 C 0.6503 0.23515 0.30888 0.0
N1162 N 0.61823 0.21862 0.47674 0.0
N1163 N 0.65367 0.27061 0.25389 0.0
H1164 H 0.66252 0.20954 0.24236 0.0
H1165 H 0.67157 0.23471 0.21422 0.0
H1166 H 0.65188 0.28724 0.25503 0.0
H1167 H 0.65783 0.26478 0.20036 0.0
H1168 H 0.60809 0.22458 0.51882 0.0
H1169 H 0.61776 0.20196 0.472 0.0
H1170 H 0.6193 0.25432 0.55321 0.0
H1171 H 0.62424 0.27962 0.51514 0.0
C1172 C 0.82643 0.25445 0.09694 0.0
C1173 C 0.84277 0.26652 0.13357 0.0
C1174 C 0.86199 0.23317 0.1625 0.0
C1175 C 0.84371 0.22125 0.13926 0.0
N1176 N 0.80679 0.22111 0.09609 0.0
N1177 N 0.87646 0.26761 0.20101 0.0
C1178 C 0.82553 0.23197 0.10877 0.0
C1179 C 0.86069 0.25592 0.16626 0.0
N1180 N 0.8117 0.26422 0.05097 0.0
N1181 N 0.88079 0.22278 0.1783 0.0
H1182 H 0.87704 0.28434 0.19902 0.0
H1183 H 0.88845 0.26078 0.23442 0.0
H1184 H 0.88251 0.20619 0.17355 0.0
H1185 H 0.89522 0.23069 0.18869 0.0
H1186 H 0.80086 0.25568 0.01745 0.0
H1187 H 0.81179 0.28054 0.03895 0.0
H1188 H 0.79242 0.22876 0.08258 0.0
H1189 H 0.8048 0.20481 0.10678 0.0
C1190 C 0.67416 0.73671 0.62254 0.0
C1191 C 0.65478 0.72526 0.63512 0.0
C1192 C 0.63484 0.75913 0.6397 0.0
C1193 C 0.65456 0.77048 0.64044 0.0
N1194 N 0.69334 0.77022 0.63685 0.0
N1195 N 0.61649 0.72506 0.65451 0.0
C1196 C 0.67432 0.75938 0.63151 0.0
C1197 C 0.63503 0.73635 0.6429 0.0
N1198 N 0.6925 0.72598 0.60309 0.0
N1199 N 0.61596 0.77018 0.63355 0.0
H1200 H 0.61576 0.70836 0.65124 0.0
H1201 H 0.60205 0.73213 0.67054 0.0
H1202 H 0.61535 0.78686 0.62902 0.0
H1203 H 0.60111 0.76287 0.62557 0.0
H1204 H 0.70643 0.73362 0.58477 0.0
H1205 H 0.6934 0.70936 0.59865 0.0
H1206 H 0.7082 0.76271 0.64138 0.0
H1207 H 0.69435 0.78679 0.64228 0.0
C1208 C 0.51152 0.42399 0.90647 0.0
C1209 C 0.52249 0.40434 0.91792 0.0
C1210 C 0.48882 0.38446 0.90256 0.0
C1211 C 0.47753 0.4042 0.89895 0.0
N1212 N 0.4777 0.44294 0.90835 0.0
N1213 N 0.52193 0.36595 0.934 0.0
C1214 C 0.48876 0.42405 0.90292 0.0
C1215 C 0.51123 0.38457 0.91803 0.0
N1216 N 0.52286 0.44268 0.8995 0.0
N1217 N 0.47822 0.36566 0.88841 0.0
H1218 H 0.5385 0.36533 0.94239 0.0
H1219 H 0.51429 0.35136 0.94375 0.0
H1220 H 0.46188 0.36506 0.87552 0.0
H1221 H 0.48584 0.3509 0.88265 0.0
H1222 H 0.51611 0.45706 0.8812 0.0
H1223 H 0.53941 0.44358 0.90708 0.0
H1224 H 0.48486 0.45759 0.92133 0.0
H1225 H 0.46107 0.44397 0.90605 0.0
C1226 C 0.99383 0.60841 0.39253 0.0
C1227 C 0.9837 0.58944 0.36583 0.0
C1228 C 0.01846 0.57146 0.35734 0.0
C1229 C 0.02878 0.59069 0.3806 0.0
N1230 N 0.02685 0.62882 0.40284 0.0
N1231 N 0.98698 0.55533 0.30123 0.0
C1232 C 0.01662 0.6096 0.39318 0.0
C1233 C 0.9962 0.5718 0.34075 0.0
N1234 N 0.98168 0.62526 0.41745 0.0
N1235 N 0.02949 0.55248 0.35611 0.0
H1236 H 0.97083 0.55504 0.28638 0.0
H1237 H 0.99586 0.54314 0.27563 0.0
H1238 H 0.04556 0.55111 0.37164 0.0
H1239 H 0.0221 0.53767 0.34772 0.0
H1240 H 0.98802 0.63835 0.44663 0.0
H1241 H 0.96501 0.6257 0.41198 0.0
H1242 H 0.01888 0.64349 0.40489 0.0
H1243 H 0.04351 0.63038 0.40147 0.0
C1244 C 0.9856 0.42289 0.61702 0.0
C1245 C 0.97412 0.40404 0.59649 0.0
C1246 C 0.00789 0.38386 0.59105 0.0
C1247 C 0.01943 0.40332 0.59987 0.0
N1248 N 0.01946 0.44183 0.61672 0.0
N1249 N 0.97393 0.36642 0.56423 0.0
C1250 C 0.00838 0.42291 0.61305 0.0
C1251 C 0.98517 0.38445 0.58379 0.0
N1252 N 0.97484 0.44093 0.63955 0.0
N1253 N 0.01868 0.36475 0.59248 0.0
H1254 H 0.95721 0.3657 0.56478 0.0
H1255 H 0.9811 0.35242 0.54431 0.0
H1256 H 0.03526 0.36377 0.59997 0.0
H1257 H 0.01115 0.34985 0.59362 0.0
H1258 H 0.98232 0.45408 0.66473 0.0
H1259 H 0.95823 0.44239 0.63881 0.0
H1260 H 0.01219 0.45685 0.61447 0.0
H1261 H 0.03611 0.4428 0.61698 0.0
C1262 C 0.4921 0.60399 0.06993 0.0
C1263 C 0.48122 0.60363 0.14092 0.0
C1264 C 0.51559 0.60417 0.20869 0.0
C1265 C 0.52637 0.60547 0.13772 0.0
N1266 N 0.52518 0.61088 0.00186 0.0
N1267 N 0.48196 0.60743 0.27746 0.0
C1268 C 0.51469 0.60687 0.06869 0.0
C1269 C 0.49279 0.60488 0.21033 0.0
N1270 N 0.48106 0.60022 0.00393 0.0
N1271 N 0.52717 0.60195 0.27433 0.0
H1272 H 0.46526 0.60822 0.28056 0.0
H1273 H 0.48944 0.61058 0.32924 0.0
H1274 H 0.54389 0.60264 0.27564 0.0
H1275 H 0.52034 0.59829 0.32683 0.0
H1276 H 0.48846 0.59781 0.95147 0.0
H1277 H 0.46456 0.59752 0.00219 0.0
H1278 H 0.51735 0.61446 0.95106 0.0
H1279 H 0.54178 0.61246 -0.00157 0.0
C1280 C 0.12282 0.10812 0.29871 0.0
C1281 C 0.1448 0.11395 0.30139 0.0
C1282 C 0.14773 0.10041 0.432 0.0
C1283 C 0.1254 0.09578 0.43102 0.0
N1284 N 0.09116 0.09601 0.36639 0.0
N1285 N 0.17822 0.11708 0.36938 0.0
C1286 C 0.11277 0.09993 0.36526 0.0
C1287 C 0.15734 0.11027 0.36747 0.0
N1288 N 0.11189 0.10948 0.23128 0.0
N1289 N 0.15971 0.0955 0.49496 0.0
H1290 H 0.18604 0.12353 0.32222 0.0
H1291 H 0.18765 0.11741 0.41821 0.0
H1292 H 0.15303 0.09033 0.54618 0.0
H1293 H 0.17639 0.09576 0.49626 0.0
H1294 H 0.09655 0.10336 0.22262 0.0
H1295 H 0.11878 0.11534 0.18134 0.0
H1296 H 0.08057 0.1013 0.32462 0.0
H1297 H 0.0834 0.08823 0.41108 0.0
C1298 C 0.10459 0.86843 0.61343 0.0
C1299 C 0.09809 0.89012 0.61954 0.0
C1300 C 0.11464 0.89234 0.74551 0.0
C1301 C 0.12401 0.87186 0.73392 0.0
N1302 N 0.13053 0.84166 0.65044 0.0
N1303 N 0.09992 0.92402 0.68595 0.0
C1304 C 0.11959 0.86012 0.66638 0.0
C1305 C 0.10378 0.90245 0.68433 0.0
N1306 N 0.09609 0.85562 0.55789 0.0
N1307 N 0.11548 0.90187 0.81556 0.0
H1308 H 0.09262 0.9322 0.64126 0.0
H1309 H 0.10584 0.93411 0.72836 0.0
H1310 H 0.12262 0.89464 0.86272 0.0
H1311 H 0.1071 0.91585 0.8288 0.0
H1312 H 0.09865 0.83912 0.55539 0.0
H1313 H 0.08469 0.8611 0.51904 0.0
H1314 H 0.12958 0.83382 0.59816 0.0
H1315 H 0.14217 0.83526 0.68627 0.0
C1316 C 0.37839 0.87256 0.93115 0.0
C1317 C 0.37128 0.8929 0.95687 0.0
C1318 C 0.33882 0.88999 0.87934 0.0
C1319 C 0.34544 0.86926 0.85594 0.0
N1320 N 0.36919 0.83899 0.8693 0.0
N1321 N 0.34279 0.91877 0.97081 0.0
C1322 C 0.36458 0.85998 0.88472 0.0
C1323 C 0.35089 0.90096 0.93556 0.0
N1324 N 0.39858 0.86561 0.94899 0.0
N1325 N 0.3216 0.89964 0.84533 0.0
H1326 H 0.35104 0.927 0.01348 0.0
H1327 H 0.32711 0.92415 0.96332 0.0
H1328 H 0.31231 0.89221 0.80355 0.0
H1329 H 0.31757 0.91568 0.85376 0.0
H1330 H 0.40567 0.85211 0.92483 0.0
H1331 H 0.40889 0.87416 0.98459 0.0
H1332 H 0.38174 0.8306 0.89465 0.0
H1333 H 0.35931 0.82935 0.83577 0.0
C1334 C 0.38935 0.13216 0.06642 0.0
C1335 C 0.38163 0.11186 0.04251 0.0
C1336 C 0.35051 0.1153 0.1262 0.0
C1337 C 0.35703 0.13648 0.14449 0.0
N1338 N 0.38105 0.16637 0.12521 0.0
N1339 N 0.35292 0.08587 0.03705 0.0
C1340 C 0.37608 0.14529 0.11295 0.0
C1341 C 0.36166 0.1039 0.06885 0.0
N1342 N 0.40956 0.13859 0.04641 0.0
N1343 N 0.33428 0.10566 0.166 0.0
H1344 H 0.36042 0.07712 0.99399 0.0
H1345 H 0.33731 0.08075 0.04812 0.0
H1346 H 0.32606 0.11318 0.21029 0.0
H1347 H 0.33043 0.08948 0.16043 0.0
H1348 H 0.41701 0.15215 0.06873 0.0
H1349 H 0.41961 0.12941 0.01177 0.0
H1350 H 0.39345 0.17433 0.09729 0.0
H1351 H 0.3717 0.17646 0.15894 0.0
C1352 C 0.88787 0.89579 0.63346 0.0
C1353 C 0.8776 0.89454 0.5614 0.0
C1354 C 0.8474 0.875 0.61803 0.0
C1355 C 0.8568 0.87797 0.69071 0.0
N1356 N 0.88451 0.89271 0.77074 0.0
N1357 N 0.84739 0.88408 0.48375 0.0
C1358 C 0.8767 0.88869 0.69933 0.0
C1359 C 0.85727 0.88447 0.55331 0.0
N1360 N 0.9083 0.90367 0.63883 0.0
N1361 N 0.82936 0.86262 0.61089 0.0
H1362 H 0.85477 0.88937 0.43386 0.0
H1363 H 0.83152 0.87945 0.47557 0.0
H1364 H 0.8215 0.85576 0.65737 0.0
H1365 H 0.82293 0.85784 0.55893 0.0
H1366 H 0.91757 0.90278 0.688 0.0
H1367 H 0.91672 0.90989 0.59257 0.0
H1368 H 0.89762 0.90258 0.7817 0.0
H1369 H 0.87697 0.88732 0.8202 0.0
C1370 C 0.88726 0.13748 0.31818 0.0
C1371 C 0.86688 0.12842 0.30219 0.0
C1372 C 0.87459 0.09773 0.38463 0.0
C1373 C 0.89504 0.10673 0.40052 0.0
N1374 N 0.92238 0.1332 0.37595 0.0
N1375 N 0.84238 0.09852 0.30704 0.0
C1376 C 0.9019 0.12596 0.36485 0.0
C1377 C 0.86086 0.10814 0.33182 0.0
N1378 N 0.89219 0.15749 0.29133 0.0
N1379 N 0.86826 0.07931 0.42064 0.0
H1380 H 0.83192 0.10569 0.26826 0.0
H1381 H 0.83808 0.08281 0.31996 0.0
H1382 H 0.87849 0.07018 0.45466 0.0
H1383 H 0.85263 0.07345 0.4197 0.0
H1384 H 0.90569 0.16617 0.30767 0.0
H1385 H 0.88208 0.16612 0.25538 0.0
H1386 H 0.92927 0.14573 0.34538 0.0
H1387 H 0.93311 0.12583 0.41308 0.0
C1388 C 0.63896 0.12213 0.12305 0.0
C1389 C 0.63194 0.14286 0.14462 0.0
C1390 C 0.60148 0.13999 0.05737 0.0
C1391 C 0.60691 0.11818 0.0439 0.0
N1392 N 0.62896 0.08739 0.07382 0.0
N1393 N 0.6052 0.17082 0.1403 0.0
C1394 C 0.6252 0.10894 0.07918 0.0
C1395 C 0.61287 0.15168 0.1138 0.0
N1396 N 0.65907 0.11528 0.14256 0.0
N1397 N 0.58611 0.1498 0.01412 0.0
H1398 H 0.6132 0.17999 0.18107 0.0
H1399 H 0.5901 0.1768 0.12627 0.0
H1400 H 0.57777 0.14198 0.97075 0.0
H1401 H 0.58308 0.16622 0.01616 0.0
H1402 H 0.66587 0.1012 0.12157 0.0
H1403 H 0.66984 0.1247 0.17341 0.0
H1404 H 0.64068 0.0795 0.10545 0.0
H1405 H 0.61909 0.07698 0.0435 0.0
C1406 C 0.61702 0.8738 0.83051 0.0
C1407 C 0.62952 0.85505 0.84221 0.0
C1408 C 0.614 0.85063 0.96948 0.0
C1409 C 0.60102 0.86893 0.95655 0.0
N1410 N 0.58582 0.89434 0.86856 0.0
N1411 N 0.63594 0.82265 0.91387 0.0
C1412 C 0.60114 0.87935 0.88491 0.0
C1413 C 0.62678 0.84252 0.90902 0.0
N1414 N 0.62113 0.88705 0.77018 0.0
N1415 N 0.61496 0.84161 0.04034 0.0
H1416 H 0.64508 0.81601 0.87007 0.0
H1417 H 0.63275 0.81192 0.95791 0.0
H1418 H 0.60563 0.84687 0.08593 0.0
H1419 H 0.62612 0.82992 0.05542 0.0
H1420 H 0.6141 0.9021 0.76387 0.0
H1421 H 0.633 0.88402 0.72981 0.0
H1422 H 0.5838 0.90103 0.8147 0.0
H1423 H 0.57368 0.89838 0.90686 0.0
C1424 C 0.60263 0.63423 0.90941 0.0
C1425 C 0.60878 0.61315 0.93049 0.0
C1426 C 0.64062 0.61537 0.84928 0.0
C1427 C 0.63534 0.637 0.83286 0.0
N1428 N 0.61293 0.66803 0.85105 0.0
N1429 N 0.63439 0.58408 0.92793 0.0
C1430 C 0.61673 0.64673 0.86378 0.0
C1431 C 0.62801 0.60383 0.90254 0.0
N1432 N 0.58329 0.64222 0.9329 0.0
N1433 N 0.65737 0.60572 0.81224 0.0
H1434 H 0.62512 0.57456 0.96397 0.0
H1435 H 0.64947 0.57757 0.91725 0.0
H1436 H 0.6674 0.61382 0.77436 0.0
H1437 H 0.66049 0.58933 0.81459 0.0
H1438 H 0.57673 0.65651 0.91308 0.0
H1439 H 0.57305 0.63388 0.96927 0.0
H1440 H 0.60093 0.67677 0.87815 0.0
H1441 H 0.62276 0.67749 0.81666 0.0
C1442 C 0.64405 0.37754 0.18614 0.0
C1443 C 0.63726 0.35602 0.19656 0.0
C1444 C 0.60642 0.36204 0.11294 0.0
C1445 C 0.61417 0.38302 0.09789 0.0
N1446 N 0.64252 0.40933 0.10738 0.0
N1447 N 0.61372 0.32666 0.16455 0.0
C1448 C 0.63352 0.39047 0.13131 0.0
C1449 C 0.61899 0.34789 0.15809 0.0
N1450 N 0.66054 0.38567 0.22871 0.0
N1451 N 0.58667 0.35598 0.08661 0.0
H1452 H 0.62199 0.31606 0.1999 0.0
H1453 H 0.60208 0.3192 0.13132 0.0
H1454 H 0.57695 0.366 0.0539 0.0
H1455 H 0.5791 0.34175 0.10211 0.0
H1456 H 0.66439 0.40192 0.23045 0.0
H1457 H 0.66952 0.37648 0.26667 0.0
H1458 H 0.65781 0.41437 0.12328 0.0
H1459 H 0.63566 0.4191 0.06581 0.0
C1460 C 0.86097 0.39433 0.38864 0.0
C1461 C 0.88133 0.38689 0.41305 0.0
C1462 C 0.87617 0.3533 0.34294 0.0
C1463 C 0.85665 0.36156 0.3136 0.0
N1464 N 0.83216 0.39119 0.29697 0.0
N1465 N 0.90965 0.36062 0.40878 0.0
C1466 C 0.84948 0.38242 0.33332 0.0
C1467 C 0.88932 0.3667 0.38904 0.0
N1468 N 0.85227 0.41239 0.42038 0.0
N1469 N 0.88176 0.33248 0.3285 0.0
H1470 H 0.9195 0.36987 0.44385 0.0
H1471 H 0.91735 0.3472 0.38653 0.0
H1472 H 0.87258 0.32233 0.29426 0.0
H1473 H 0.8946 0.32473 0.35456 0.0
H1474 H 0.83651 0.41727 0.4111 0.0
H1475 H 0.86014 0.42151 0.4616 0.0
H1476 H 0.82769 0.40721 0.30264 0.0
H1477 H 0.8233 0.38303 0.25573 0.0
C1478 C 0.85786 0.63285 0.56381 0.0
C1479 C 0.86954 0.64275 0.62368 0.0
C1480 C 0.90222 0.62389 0.58476 0.0
C1481 C 0.89076 0.61477 0.52301 0.0
N1482 N 0.85889 0.61325 0.44487 0.0
N1483 N 0.90334 0.65123 0.68309 0.0
C1484 C 0.86901 0.62027 0.50935 0.0
C1485 C 0.89191 0.63929 0.63183 0.0
N1486 N 0.83594 0.63416 0.56198 0.0
N1487 N 0.92286 0.61762 0.59896 0.0
H1488 H 0.89626 0.66286 0.71766 0.0
H1489 H 0.92 0.65103 0.68683 0.0
H1490 H 0.9313 0.6072 0.56344 0.0
H1491 H 0.93124 0.6217 0.64815 0.0
H1492 H 0.8264 0.62518 0.52519 0.0
H1493 H 0.82695 0.64278 0.60159 0.0
H1494 H 0.844 0.61896 0.4272 0.0
H1495 H 0.86596 0.60285 0.40573 0.0
C1496 C 0.37169 0.36976 0.13359 0.0
C1497 C 0.34893 0.36983 0.13662 0.0
C1498 C 0.34791 0.39115 0.01983 0.0
C1499 C 0.37047 0.39394 0.02404 0.0
N1500 N 0.4033 0.38945 0.0958 0.0
N1501 N 0.31544 0.3848 0.09114 0.0
C1502 C 0.38229 0.38418 0.08379 0.0
C1503 C 0.33699 0.38162 0.08197 0.0
N1504 N 0.38321 0.35548 0.17616 0.0
N1505 N 0.33694 0.39692 0.95566 0.0
H1506 H 0.30687 0.37923 0.13809 0.0
H1507 H 0.30657 0.39504 0.0564 0.0
H1508 H 0.34445 0.40314 0.9074 0.0
H1509 H 0.32078 0.39329 0.94735 0.0
H1510 H 0.39975 0.35356 0.17044 0.0
H1511 H 0.37604 0.34391 0.21069 0.0
H1512 H 0.41192 0.38425 0.14319 0.0
H1513 H 0.41144 0.40085 0.06341 0.0
C1514 C 0.39823 0.60563 0.90706 0.0
C1515 C 0.38411 0.60047 0.96787 0.0
C1516 C 0.35479 0.61969 0.90505 0.0
C1517 C 0.36827 0.62298 0.84103 0.0
N1518 N 0.40222 0.61852 0.77739 0.0
N1519 N 0.3489 0.60136 0.02496 0.0
C1520 C 0.38993 0.61604 0.84132 0.0
C1521 C 0.36235 0.60715 0.9669 0.0
N1522 N 0.41952 0.60045 0.91208 0.0
N1523 N 0.33509 0.62937 0.90783 0.0
H1524 H 0.35415 0.59351 0.07396 0.0
H1525 H 0.33232 0.6033 0.02316 0.0
H1526 H 0.32917 0.63898 0.864 0.0
H1527 H 0.32532 0.62949 0.95586 0.0
H1528 H 0.43115 0.60594 0.87434 0.0
H1529 H 0.42594 0.59147 0.95666 0.0
H1530 H 0.41725 0.61157 0.76996 0.0
H1531 H 0.39689 0.62668 0.7292 0.0
C1532 C 0.12728 0.6247 0.66688 0.0
C1533 C 0.14717 0.63539 0.65735 0.0
C1534 C 0.15088 0.62036 0.52933 0.0
C1535 C 0.13193 0.60823 0.54132 0.0
N1536 N 0.10384 0.59596 0.62531 0.0
N1537 N 0.17996 0.64042 0.58635 0.0
C1538 C 0.12056 0.60961 0.61116 0.0
C1539 C 0.15956 0.63242 0.59044 0.0
N1540 N 0.11452 0.62948 0.7279 0.0
N1541 N 0.16012 0.62107 0.45873 0.0
H1542 H 0.18699 0.64924 0.63015 0.0
H1543 H 0.19061 0.6367 0.54261 0.0
H1544 H 0.15423 0.61252 0.41217 0.0
H1545 H 0.17248 0.63159 0.44449 0.0
H1546 H 0.09884 0.62395 0.73377 0.0
H1547 H 0.11896 0.64047 0.76983 0.0
H1548 H 0.09642 0.59459 0.67821 0.0
H1549 H 0.09852 0.58462 0.586 0.0
C1550 C 0.13898 0.37491 0.33158 0.0
C1551 C 0.13331 0.35289 0.32632 0.0
C1552 C 0.10415 0.35815 0.41808 0.0
C1553 C 0.11049 0.3799 0.42581 0.0
N1554 N 0.13618 0.40811 0.40264 0.0
N1555 N 0.11246 0.32266 0.36964 0.0
C1556 C 0.12848 0.38809 0.38585 0.0
C1557 C 0.11654 0.34421 0.3715 0.0
N1558 N 0.15435 0.38328 0.28453 0.0
N1559 N 0.08577 0.35112 0.45265 0.0
H1560 H 0.12029 0.31217 0.33276 0.0
H1561 H 0.10223 0.3149 0.40752 0.0
H1562 H 0.07641 0.36085 0.4877 0.0
H1563 H 0.07889 0.33617 0.44272 0.0
H1564 H 0.15714 0.39966 0.27849 0.0
H1565 H 0.16361 0.374 0.24772 0.0
H1566 H 0.15065 0.41409 0.38195 0.0
H1567 H 0.12912 0.4182 0.44285 0.0
loop_
_geom_bond_atom_site_label_1
_geom_bond_atom_site_label_2
_geom_bond_distance
_geom_bond_site_symmetry_2
_ccdc_geom_bond_type
C0 O1 1.160 . S
C0 O7 1.185 . S
O1 C0 1.160 . S
O2 Zn3 1.899 . S
O2 C10 1.284 . S
Zn3 O2 1.899 . S
Zn3 O4 2.032 . S
Zn3 O7 2.086 . S
Zn3 O12 1.977 . S
O4 Zn3 2.032 . S
O4 C8 1.278 . S
C5 O6 1.203 . S
C5 O12 1.267 . S
O6 C5 1.203 . S
O7 C0 1.185 . S
O7 Zn3 2.086 . S
C8 O4 1.278 . S
C8 O9 1.211 . S
O9 C8 1.211 . S
C10 O2 1.284 . S
C10 O11 1.273 . S
O11 C10 1.273 . S
O12 Zn3 1.977 . S
O12 C5 1.267 . S
C13 O14 1.160 . S
C13 O20 1.185 . S
O14 C13 1.160 . S
O15 Zn16 1.899 . S
O15 C23 1.284 . S
Zn16 O15 1.899 . S
Zn16 O17 2.032 . S
Zn16 O20 2.086 . S
Zn16 O25 1.977 . S
O17 Zn16 2.032 . S
O17 C21 1.278 . S
C18 O19 1.203 . S
C18 O25 1.267 . S
O19 C18 1.203 . S
O20 C13 1.185 . S
O20 Zn16 2.086 . S
C21 O17 1.278 . S
C21 O22 1.211 . S
O22 C21 1.211 . S
C23 O15 1.284 . S
C23 O24 1.273 . S
O24 C23 1.273 . S
O25 Zn16 1.977 . S
O25 C18 1.267 . S
C26 O27 1.160 . S
C26 O33 1.185 . S
O27 C26 1.160 . S
O28 Zn29 1.899 . S
O28 C36 1.284 . S
Zn29 O28 1.899 . S
Zn29 O30 2.032 . S
Zn29 O33 2.086 . S
Zn29 O38 1.977 . S
O30 Zn29 2.032 . S
O30 C34 1.278 . S
C31 O32 1.203 . S
C31 O38 1.267 . S
O32 C31 1.203 . S
O33 C26 1.185 . S
O33 Zn29 2.086 . S
C34 O30 1.278 . S
C34 O35 1.211 . S
O35 C34 1.211 . S
C36 O28 1.284 . S
C36 O37 1.273 . S
O37 C36 1.273 . S
O38 Zn29 1.977 . S
O38 C31 1.267 . S
C39 O40 1.160 . S
C39 O46 1.185 . S
O40 C39 1.160 . S
O41 Zn42 1.899 . S
O41 C49 1.284 . S
Zn42 O41 1.899 . S
Zn42 O43 2.032 . S
Zn42 O46 2.086 . S
Zn42 O51 1.977 . S
O43 Zn42 2.032 . S
O43 C47 1.278 1_556 S
C44 O45 1.203 . S
C44 O51 1.267 . S
O45 C44 1.203 . S
O46 C39 1.185 . S
O46 Zn42 2.086 . S
C47 O43 1.278 1_554 S
C47 O48 1.211 . S
O48 C47 1.211 . S
C49 O41 1.284 . S
C49 O50 1.273 . S
O50 C49 1.273 . S
O51 Zn42 1.977 . S
O51 C44 1.267 . S
C52 O53 1.160 . S
C52 O59 1.185 . S
O53 C52 1.160 . S
O54 Zn55 1.899 . S
O54 C62 1.284 . S
Zn55 O54 1.899 . S
Zn55 O56 2.032 . S
Zn55 O59 2.086 . S
Zn55 O64 1.977 . S
O56 Zn55 2.032 . S
O56 C60 1.278 . S
C57 O58 1.203 . S
C57 O64 1.267 . S
O58 C57 1.203 . S
O59 C52 1.185 . S
O59 Zn55 2.086 . S
C60 O56 1.278 . S
C60 O61 1.211 . S
O61 C60 1.211 . S
C62 O54 1.284 . S
C62 O63 1.273 . S
O63 C62 1.273 . S
O64 Zn55 1.977 . S
O64 C57 1.267 . S
C65 O66 1.160 . S
C65 O72 1.185 . S
O66 C65 1.160 . S
O67 Zn68 1.899 . S
O67 C75 1.284 . S
Zn68 O67 1.899 . S
Zn68 O69 2.032 . S
Zn68 O72 2.086 . S
Zn68 O77 1.977 . S
O69 Zn68 2.032 . S
O69 C73 1.278 1_554 S
C70 O71 1.203 . S
C70 O77 1.267 . S
O71 C70 1.203 . S
O72 C65 1.185 . S
O72 Zn68 2.086 . S
C73 O69 1.278 1_556 S
C73 O74 1.211 . S
O74 C73 1.211 . S
C75 O67 1.284 . S
C75 O76 1.273 . S
O76 C75 1.273 . S
O77 Zn68 1.977 . S
O77 C70 1.267 . S
C78 O79 1.160 . S
C78 O85 1.185 . S
O79 C78 1.160 . S
O80 Zn81 1.899 . S
O80 C88 1.284 . S
Zn81 O80 1.899 . S
Zn81 O82 2.032 . S
Zn81 O85 2.086 . S
Zn81 O90 1.977 . S
O82 Zn81 2.032 . S
O82 C86 1.278 . S
C83 O84 1.203 . S
C83 O90 1.267 . S
O84 C83 1.203 . S
O85 C78 1.185 . S
O85 Zn81 2.086 . S
C86 O82 1.278 . S
C86 O87 1.211 . S
O87 C86 1.211 . S
C88 O80 1.284 . S
C88 O89 1.273 . S
O89 C88 1.273 . S
O90 Zn81 1.977 . S
O90 C83 1.267 . S
C91 O92 1.160 . S
C91 O98 1.185 . S
O92 C91 1.160 . S
O93 Zn94 1.899 . S
O93 C101 1.284 . S
Zn94 O93 1.899 . S
Zn94 O95 2.032 . S
Zn94 O98 2.086 . S
Zn94 O103 1.977 . S
O95 Zn94 2.032 . S
O95 C99 1.278 . S
C96 O97 1.203 . S
C96 O103 1.267 . S
O97 C96 1.203 . S
O98 C91 1.185 . S
O98 Zn94 2.086 . S
C99 O95 1.278 . S
C99 O100 1.211 . S
O100 C99 1.211 . S
C101 O93 1.284 . S
C101 O102 1.273 . S
O102 C101 1.273 . S
O103 Zn94 1.977 . S
O103 C96 1.267 . S
C104 O105 1.160 . S
C104 O111 1.185 . S
O105 C104 1.160 . S
O106 Zn107 1.899 . S
O106 C114 1.284 . S
Zn107 O106 1.899 . S
Zn107 O108 2.032 . S
Zn107 O111 2.086 . S
Zn107 O116 1.977 . S
O108 Zn107 2.032 . S
O108 C112 1.278 . S
C109 O110 1.203 . S
C109 O116 1.267 . S
O110 C109 1.203 . S
O111 C104 1.185 . S
O111 Zn107 2.086 . S
C112 O108 1.278 . S
C112 O113 1.211 . S
O113 C112 1.211 . S
C114 O106 1.284 . S
C114 O115 1.273 . S
O115 C114 1.273 . S
O116 Zn107 1.977 . S
O116 C109 1.267 . S
C117 O118 1.160 . S
C117 O124 1.185 . S
O118 C117 1.160 . S
O119 Zn120 1.899 . S
O119 C127 1.284 . S
Zn120 O119 1.899 . S
Zn120 O121 2.032 . S
Zn120 O124 2.086 . S
Zn120 O129 1.977 . S
O121 Zn120 2.032 . S
O121 C125 1.278 . S
C122 O123 1.203 . S
C122 O129 1.267 . S
O123 C122 1.203 . S
O124 C117 1.185 . S
O124 Zn120 2.086 . S
C125 O121 1.278 . S
C125 O126 1.211 . S
O126 C125 1.211 . S
C127 O119 1.284 . S
C127 O128 1.273 . S
O128 C127 1.273 . S
O129 Zn120 1.977 . S
O129 C122 1.267 . S
C130 O131 1.160 . S
C130 O137 1.185 . S
O131 C130 1.160 . S
O132 Zn133 1.899 . S
O132 C140 1.284 . S
Zn133 O132 1.899 . S
Zn133 O134 2.032 . S
Zn133 O137 2.086 . S
Zn133 O142 1.977 . S
O134 Zn133 2.032 . S
O134 C138 1.278 . S
C135 O136 1.203 . S
C135 O142 1.267 . S
O136 C135 1.203 . S
O137 C130 1.185 . S
O137 Zn133 2.086 . S
C138 O134 1.278 . S
C138 O139 1.211 . S
O139 C138 1.211 . S
C140 O132 1.284 . S
C140 O141 1.273 . S
O141 C140 1.273 . S
O142 Zn133 1.977 . S
O142 C135 1.267 . S
C143 O144 1.160 . S
C143 O150 1.185 . S
O144 C143 1.160 . S
O145 Zn146 1.899 . S
O145 C153 1.284 . S
Zn146 O145 1.899 . S
Zn146 O147 2.032 . S
Zn146 O150 2.086 . S
Zn146 O155 1.977 . S
O147 Zn146 2.032 . S
O147 C151 1.278 1_554 S
C148 O149 1.203 . S
C148 O155 1.267 . S
O149 C148 1.203 . S
O150 C143 1.185 . S
O150 Zn146 2.086 . S
C151 O147 1.278 1_556 S
C151 O152 1.211 . S
O152 C151 1.211 . S
C153 O145 1.284 . S
C153 O154 1.273 . S
O154 C153 1.273 . S
O155 Zn146 1.977 . S
O155 C148 1.267 . S
C156 O157 1.160 . S
C156 O163 1.185 . S
O157 C156 1.160 . S
O158 Zn159 1.899 . S
O158 C166 1.284 . S
Zn159 O158 1.899 . S
Zn159 O160 2.032 . S
Zn159 O163 2.086 . S
Zn159 O168 1.977 . S
O160 Zn159 2.032 . S
O160 C164 1.278 . S
C161 O162 1.203 . S
C161 O168 1.267 . S
O162 C161 1.203 . S
O163 C156 1.185 . S
O163 Zn159 2.086 . S
C164 O160 1.278 . S
C164 O165 1.211 . S
O165 C164 1.211 . S
C166 O158 1.284 . S
C166 O167 1.273 . S
O167 C166 1.273 . S
O168 Zn159 1.977 . S
O168 C161 1.267 . S
C169 O170 1.160 . S
C169 O176 1.185 . S
O170 C169 1.160 . S
O171 Zn172 1.899 . S
O171 C179 1.284 . S
Zn172 O171 1.899 . S
Zn172 O173 2.032 . S
Zn172 O176 2.086 . S
Zn172 O181 1.977 . S
O173 Zn172 2.032 . S
O173 C177 1.278 1_556 S
C174 O175 1.203 . S
C174 O181 1.267 . S
O175 C174 1.203 . S
O176 C169 1.185 . S
O176 Zn172 2.086 . S
C177 O173 1.278 1_554 S
C177 O178 1.211 . S
O178 C177 1.211 . S
C179 O171 1.284 . S
C179 O180 1.273 . S
O180 C179 1.273 . S
O181 Zn172 1.977 . S
O181 C174 1.267 . S
C182 O183 1.160 . S
C182 O189 1.185 . S
O183 C182 1.160 . S
O184 Zn185 1.899 . S
O184 C192 1.284 . S
Zn185 O184 1.899 . S
Zn185 O186 2.032 . S
Zn185 O189 2.086 . S
Zn185 O194 1.977 . S
O186 Zn185 2.032 . S
O186 C190 1.278 . S
C187 O188 1.203 . S
C187 O194 1.267 . S
O188 C187 1.203 . S
O189 C182 1.185 . S
O189 Zn185 2.086 . S
C190 O186 1.278 . S
C190 O191 1.211 . S
O191 C190 1.211 . S
C192 O184 1.284 . S
C192 O193 1.273 . S
O193 C192 1.273 . S
O194 Zn185 1.977 . S
O194 C187 1.267 . S
C195 O196 1.160 . S
C195 O202 1.185 . S
O196 C195 1.160 . S
O197 Zn198 1.899 . S
O197 C205 1.284 . S
Zn198 O197 1.899 . S
Zn198 O199 2.032 . S
Zn198 O202 2.086 . S
Zn198 O207 1.977 . S
O199 Zn198 2.032 . S
O199 C203 1.278 . S
C200 O201 1.203 . S
C200 O207 1.267 . S
O201 C200 1.203 . S
O202 C195 1.185 . S
O202 Zn198 2.086 . S
C203 O199 1.278 . S
C203 O204 1.211 . S
O204 C203 1.211 . S
C205 O197 1.284 . S
C205 O206 1.273 . S
O206 C205 1.273 . S
O207 Zn198 1.977 . S
O207 C200 1.267 . S
C208 O209 1.160 . S
C208 O215 1.185 . S
O209 C208 1.160 . S
O210 Zn211 1.899 . S
O210 C218 1.284 . S
Zn211 O210 1.899 . S
Zn211 O212 2.032 . S
Zn211 O215 2.086 . S
Zn211 O220 1.977 . S
O212 Zn211 2.032 . S
O212 C216 1.278 . S
C213 O214 1.203 . S
C213 O220 1.267 . S
O214 C213 1.203 . S
O215 C208 1.185 . S
O215 Zn211 2.086 . S
C216 O212 1.278 . S
C216 O217 1.211 . S
O217 C216 1.211 . S
C218 O210 1.284 . S
C218 O219 1.273 . S
O219 C218 1.273 . S
O220 Zn211 1.977 . S
O220 C213 1.267 . S
C221 O222 1.160 . S
C221 O228 1.185 . S
O222 C221 1.160 . S
O223 Zn224 1.899 . S
O223 C231 1.284 . S
Zn224 O223 1.899 . S
Zn224 O225 2.032 . S
Zn224 O228 2.086 . S
Zn224 O233 1.977 . S
O225 Zn224 2.032 . S
O225 C229 1.278 1_556 S
C226 O227 1.203 . S
C226 O233 1.267 . S
O227 C226 1.203 . S
O228 C221 1.185 . S
O228 Zn224 2.086 . S
C229 O225 1.278 1_554 S
C229 O230 1.211 . S
O230 C229 1.211 . S
C231 O223 1.284 . S
C231 O232 1.273 . S
O232 C231 1.273 . S
O233 Zn224 1.977 . S
O233 C226 1.267 . S
C234 O235 1.160 . S
C234 O241 1.185 . S
O235 C234 1.160 . S
O236 Zn237 1.899 . S
O236 C244 1.284 . S
Zn237 O236 1.899 . S
Zn237 O238 2.032 . S
Zn237 O241 2.086 . S
Zn237 O246 1.977 . S
O238 Zn237 2.032 . S
O238 C242 1.278 . S
C239 O240 1.203 . S
C239 O246 1.267 . S
O240 C239 1.203 . S
O241 C234 1.185 . S
O241 Zn237 2.086 . S
C242 O238 1.278 . S
C242 O243 1.211 . S
O243 C242 1.211 . S
C244 O236 1.284 . S
C244 O245 1.273 . S
O245 C244 1.273 . S
O246 Zn237 1.977 . S
O246 C239 1.267 . S
C247 O248 1.160 . S
C247 O254 1.185 . S
O248 C247 1.160 . S
O249 Zn250 1.899 . S
O249 C257 1.284 . S
Zn250 O249 1.899 . S
Zn250 O251 2.032 . S
Zn250 O254 2.086 . S
Zn250 O259 1.977 . S
O251 Zn250 2.032 . S
O251 C255 1.278 . S
C252 O253 1.203 . S
C252 O259 1.267 . S
O253 C252 1.203 . S
O254 C247 1.185 . S
O254 Zn250 2.086 . S
C255 O251 1.278 . S
C255 O256 1.211 . S
O256 C255 1.211 . S
C257 O249 1.284 . S
C257 O258 1.273 . S
O258 C257 1.273 . S
O259 Zn250 1.977 . S
O259 C252 1.267 . S
C260 O261 1.160 . S
C260 O267 1.185 . S
O261 C260 1.160 . S
O262 Zn263 1.899 . S
O262 C270 1.284 . S
Zn263 O262 1.899 . S
Zn263 O264 2.032 . S
Zn263 O267 2.086 . S
Zn263 O272 1.977 . S
O264 Zn263 2.032 . S
O264 C268 1.278 . S
C265 O266 1.203 . S
C265 O272 1.267 . S
O266 C265 1.203 . S
O267 C260 1.185 . S
O267 Zn263 2.086 . S
C268 O264 1.278 . S
C268 O269 1.211 . S
O269 C268 1.211 . S
C270 O262 1.284 . S
C270 O271 1.273 . S
O271 C270 1.273 . S
O272 Zn263 1.977 . S
O272 C265 1.267 . S
C273 O274 1.160 . S
C273 O280 1.185 . S
O274 C273 1.160 . S
O275 Zn276 1.899 . S
O275 C283 1.284 . S
Zn276 O275 1.899 . S
Zn276 O277 2.032 . S
Zn276 O280 2.086 . S
Zn276 O285 1.977 . S
O277 Zn276 2.032 . S
O277 C281 1.278 . S
C278 O279 1.203 . S
C278 O285 1.267 . S
O279 C278 1.203 . S
O280 C273 1.185 . S
O280 Zn276 2.086 . S
C281 O277 1.278 . S
C281 O282 1.211 . S
O282 C281 1.211 . S
C283 O275 1.284 . S
C283 O284 1.273 . S
O284 C283 1.273 . S
O285 Zn276 1.977 . S
O285 C278 1.267 . S
C286 O287 1.160 . S
C286 O293 1.185 . S
O287 C286 1.160 . S
O288 Zn289 1.899 . S
O288 C296 1.284 . S
Zn289 O288 1.899 . S
Zn289 O290 2.032 . S
Zn289 O293 2.086 . S
Zn289 O298 1.977 . S
O290 Zn289 2.032 . S
O290 C294 1.278 . S
C291 O292 1.203 . S
C291 O298 1.267 . S
O292 C291 1.203 . S
O293 C286 1.185 . S
O293 Zn289 2.086 . S
C294 O290 1.278 . S
C294 O295 1.211 . S
O295 C294 1.211 . S
C296 O288 1.284 . S
C296 O297 1.273 . S
O297 C296 1.273 . S
O298 Zn289 1.977 . S
O298 C291 1.267 . S
C299 O300 1.160 . S
C299 O306 1.185 . S
O300 C299 1.160 . S
O301 Zn302 1.899 . S
O301 C309 1.284 . S
Zn302 O301 1.899 . S
Zn302 O303 2.032 . S
Zn302 O306 2.086 . S
Zn302 O311 1.977 . S
O303 Zn302 2.032 . S
O303 C307 1.278 1_554 S
C304 O305 1.203 . S
C304 O311 1.267 . S
O305 C304 1.203 . S
O306 C299 1.185 . S
O306 Zn302 2.086 . S
C307 O303 1.278 1_556 S
C307 O308 1.211 . S
O308 C307 1.211 . S
C309 O301 1.284 . S
C309 O310 1.273 . S
O310 C309 1.273 . S
O311 Zn302 1.977 . S
O311 C304 1.267 . S
C312 O313 1.160 . S
C312 O319 1.185 . S
O313 C312 1.160 . S
O314 Zn315 1.899 . S
O314 C322 1.284 . S
Zn315 O314 1.899 . S
Zn315 O316 2.032 . S
Zn315 O319 2.086 . S
Zn315 O324 1.977 . S
O316 Zn315 2.032 . S
O316 C320 1.278 . S
C317 O318 1.203 . S
C317 O324 1.267 . S
O318 C317 1.203 . S
O319 C312 1.185 . S
O319 Zn315 2.086 . S
C320 O316 1.278 . S
C320 O321 1.211 . S
O321 C320 1.211 . S
C322 O314 1.284 . S
C322 O323 1.273 . S
O323 C322 1.273 . S
O324 Zn315 1.977 . S
O324 C317 1.267 . S
C325 O326 1.160 . S
C325 O332 1.185 . S
O326 C325 1.160 . S
O327 Zn328 1.899 . S
O327 C335 1.284 . S
Zn328 O327 1.899 . S
Zn328 O329 2.032 . S
Zn328 O332 2.086 . S
Zn328 O337 1.977 . S
O329 Zn328 2.032 . S
O329 C333 1.278 1_554 S
C330 O331 1.203 . S
C330 O337 1.267 . S
O331 C330 1.203 . S
O332 C325 1.185 . S
O332 Zn328 2.086 . S
C333 O329 1.278 1_556 S
C333 O334 1.211 . S
O334 C333 1.211 . S
C335 O327 1.284 . S
C335 O336 1.273 . S
O336 C335 1.273 . S
O337 Zn328 1.977 . S
O337 C330 1.267 . S
C338 O339 1.160 . S
C338 O345 1.185 . S
O339 C338 1.160 . S
O340 Zn341 1.899 . S
O340 C348 1.284 . S
Zn341 O340 1.899 . S
Zn341 O342 2.032 . S
Zn341 O345 2.086 . S
Zn341 O350 1.977 . S
O342 Zn341 2.032 . S
O342 C346 1.278 . S
C343 O344 1.203 . S
C343 O350 1.267 . S
O344 C343 1.203 . S
O345 C338 1.185 . S
O345 Zn341 2.086 . S
C346 O342 1.278 . S
C346 O347 1.211 . S
O347 C346 1.211 . S
C348 O340 1.284 . S
C348 O349 1.273 . S
O349 C348 1.273 . S
O350 Zn341 1.977 . S
O350 C343 1.267 . S
C351 O352 1.160 . S
C351 O358 1.185 . S
O352 C351 1.160 . S
O353 Zn354 1.899 . S
O353 C361 1.284 . S
Zn354 O353 1.899 . S
Zn354 O355 2.032 . S
Zn354 O358 2.086 . S
Zn354 O363 1.977 . S
O355 Zn354 2.032 . S
O355 C359 1.278 . S
C356 O357 1.203 . S
C356 O363 1.267 . S
O357 C356 1.203 . S
O358 C351 1.185 . S
O358 Zn354 2.086 . S
C359 O355 1.278 . S
C359 O360 1.211 . S
O360 C359 1.211 . S
C361 O353 1.284 . S
C361 O362 1.273 . S
O362 C361 1.273 . S
O363 Zn354 1.977 . S
O363 C356 1.267 . S
C364 O365 1.160 . S
C364 O371 1.185 . S
O365 C364 1.160 . S
O366 Zn367 1.899 . S
O366 C374 1.284 . S
Zn367 O366 1.899 . S
Zn367 O368 2.032 . S
Zn367 O371 2.086 . S
Zn367 O376 1.977 . S
O368 Zn367 2.032 . S
O368 C372 1.278 . S
C369 O370 1.203 . S
C369 O376 1.267 . S
O370 C369 1.203 . S
O371 C364 1.185 . S
O371 Zn367 2.086 . S
C372 O368 1.278 . S
C372 O373 1.211 . S
O373 C372 1.211 . S
C374 O366 1.284 . S
C374 O375 1.273 . S
O375 C374 1.273 . S
O376 Zn367 1.977 . S
O376 C369 1.267 . S
C377 O378 1.160 . S
C377 O384 1.185 . S
O378 C377 1.160 . S
O379 Zn380 1.899 . S
O379 C387 1.284 . S
Zn380 O379 1.899 . S
Zn380 O381 2.032 . S
Zn380 O384 2.086 . S
Zn380 O389 1.977 . S
O381 Zn380 2.032 . S
O381 C385 1.278 . S
C382 O383 1.203 . S
C382 O389 1.267 . S
O383 C382 1.203 . S
O384 C377 1.185 . S
O384 Zn380 2.086 . S
C385 O381 1.278 . S
C385 O386 1.211 . S
O386 C385 1.211 . S
C387 O379 1.284 . S
C387 O388 1.273 . S
O388 C387 1.273 . S
O389 Zn380 1.977 . S
O389 C382 1.267 . S
C390 O391 1.160 . S
C390 O397 1.185 . S
O391 C390 1.160 . S
O392 Zn393 1.899 . S
O392 C400 1.284 . S
Zn393 O392 1.899 . S
Zn393 O394 2.032 . S
Zn393 O397 2.086 . S
Zn393 O402 1.977 . S
O394 Zn393 2.032 . S
O394 C398 1.278 . S
C395 O396 1.203 . S
C395 O402 1.267 . S
O396 C395 1.203 . S
O397 C390 1.185 . S
O397 Zn393 2.086 . S
C398 O394 1.278 . S
C398 O399 1.211 . S
O399 C398 1.211 . S
C400 O392 1.284 . S
C400 O401 1.273 . S
O401 C400 1.273 . S
O402 Zn393 1.977 . S
O402 C395 1.267 . S
C403 O404 1.160 . S
C403 O410 1.185 . S
O404 C403 1.160 . S
O405 Zn406 1.899 . S
O405 C413 1.284 . S
Zn406 O405 1.899 . S
Zn406 O407 2.032 . S
Zn406 O410 2.086 . S
Zn406 O415 1.977 . S
O407 Zn406 2.032 . S
O407 C411 1.278 1_556 S
C408 O409 1.203 . S
C408 O415 1.267 . S
O409 C408 1.203 . S
O410 C403 1.185 . S
O410 Zn406 2.086 . S
C411 O407 1.278 1_554 S
C411 O412 1.211 . S
O412 C411 1.211 . S
C413 O405 1.284 . S
C413 O414 1.273 . S
O414 C413 1.273 . S
O415 Zn406 1.977 . S
O415 C408 1.267 . S
C416 C417 1.363 . S
C416 C422 1.379 . S
C416 N424 1.356 . S
C417 C416 1.363 . S
C417 C423 1.363 . S
C418 C419 1.363 . S
C418 C423 1.379 . S
C418 N425 1.356 . S
C419 C418 1.363 . S
C419 C422 1.363 . S
N420 C422 1.356 . S
N420 H432 0.984 . S
N420 H433 0.985 . S
N421 C423 1.356 . S
N421 H426 0.984 . S
N421 H427 0.985 . S
C422 C416 1.379 . S
C422 C419 1.363 . S
C422 N420 1.356 . S
C423 C417 1.363 . S
C423 C418 1.379 . S
C423 N421 1.356 . S
N424 C416 1.356 . S
N424 H430 0.984 . S
N424 H431 0.984 . S
N425 C418 1.356 . S
N425 H428 0.984 . S
N425 H429 0.985 . S
H426 N421 0.984 . S
H427 N421 0.985 . S
H428 N425 0.984 . S
H429 N425 0.985 . S
H430 N424 0.984 . S
H431 N424 0.984 . S
H432 N420 0.984 . S
H433 N420 0.985 . S
C434 C435 1.363 . S
C434 C440 1.379 1_565 S
C434 N442 1.356 . S
C435 C434 1.363 . S
C435 C441 1.363 . S
C436 C437 1.363 . S
C436 C441 1.379 1_545 S
C436 N443 1.356 . S
C437 C436 1.363 . S
C437 C440 1.363 . S
N438 C440 1.356 . S
N438 H450 0.984 . S
N438 H451 0.985 . S
N439 C441 1.356 . S
N439 H444 0.984 . S
N439 H445 0.985 . S
C440 C434 1.379 1_545 S
C440 C437 1.363 . S
C440 N438 1.356 . S
C441 C435 1.363 . S
C441 C436 1.379 1_565 S
C441 N439 1.356 . S
N442 C434 1.356 . S
N442 H448 0.984 . S
N442 H449 0.984 . S
N443 C436 1.356 . S
N443 H446 0.984 . S
N443 H447 0.985 . S
H444 N439 0.984 . S
H445 N439 0.985 . S
H446 N443 0.984 . S
H447 N443 0.985 . S
H448 N442 0.984 . S
H449 N442 0.984 . S
H450 N438 0.984 . S
H451 N438 0.985 . S
C452 C453 1.363 . S
C452 C458 1.379 . S
C452 N460 1.356 . S
C453 C452 1.363 . S
C453 C459 1.363 . S
C454 C455 1.363 . S
C454 C459 1.379 . S
C454 N461 1.356 . S
C455 C454 1.363 . S
C455 C458 1.363 . S
N456 C458 1.356 . S
N456 H468 0.984 . S
N456 H469 0.985 . S
N457 C459 1.356 . S
N457 H462 0.984 . S
N457 H463 0.985 . S
C458 C452 1.379 . S
C458 C455 1.363 . S
C458 N456 1.356 . S
C459 C453 1.363 . S
C459 C454 1.379 . S
C459 N457 1.356 . S
N460 C452 1.356 . S
N460 H466 0.984 . S
N460 H467 0.984 . S
N461 C454 1.356 . S
N461 H464 0.984 . S
N461 H465 0.985 . S
H462 N457 0.984 . S
H463 N457 0.985 . S
H464 N461 0.984 . S
H465 N461 0.985 . S
H466 N460 0.984 . S
H467 N460 0.984 . S
H468 N456 0.984 . S
H469 N456 0.985 . S
C470 C471 1.363 1_554 S
C470 C476 1.379 1_545 S
C470 N478 1.356 . S
C471 C470 1.363 1_556 S
C471 C477 1.363 . S
C472 C473 1.363 1_556 S
C472 C477 1.379 1_565 S
C472 N479 1.356 . S
C473 C472 1.363 1_554 S
C473 C476 1.363 . S
N474 C476 1.356 . S
N474 H486 0.984 . S
N474 H487 0.985 . S
N475 C477 1.356 . S
N475 H480 0.984 . S
N475 H481 0.985 . S
C476 C470 1.379 1_565 S
C476 C473 1.363 . S
C476 N474 1.356 . S
C477 C471 1.363 . S
C477 C472 1.379 1_545 S
C477 N475 1.356 . S
N478 C470 1.356 . S
N478 H484 0.984 . S
N478 H485 0.984 . S
N479 C472 1.356 . S
N479 H482 0.984 . S
N479 H483 0.985 . S
H480 N475 0.984 . S
H481 N475 0.985 . S
H482 N479 0.984 . S
H483 N479 0.985 . S
H484 N478 0.984 . S
H485 N478 0.984 . S
H486 N474 0.984 . S
H487 N474 0.985 . S
C488 C489 1.363 . S
C488 C494 1.379 . S
C488 N496 1.356 . S
C489 C488 1.363 . S
C489 C495 1.363 . S
C490 C491 1.363 . S
C490 C495 1.379 . S
C490 N497 1.356 . S
C491 C490 1.363 . S
C491 C494 1.363 . S
N492 C494 1.356 . S
N492 H504 0.984 . S
N492 H505 0.985 . S
N493 C495 1.356 . S
N493 H498 0.984 . S
N493 H499 0.985 . S
C494 C488 1.379 . S
C494 C491 1.363 . S
C494 N492 1.356 . S
C495 C489 1.363 . S
C495 C490 1.379 . S
C495 N493 1.356 . S
N496 C488 1.356 . S
N496 H502 0.984 . S
N496 H503 0.984 . S
N497 C490 1.356 . S
N497 H500 0.984 . S
N497 H501 0.985 . S
H498 N493 0.984 . S
H499 N493 0.985 . S
H500 N497 0.984 . S
H501 N497 0.985 . S
H502 N496 0.984 . S
H503 N496 0.984 . S
H504 N492 0.984 . S
H505 N492 0.985 . S
C506 C507 1.363 . S
C506 C512 1.379 1_565 S
C506 N514 1.356 . S
C507 C506 1.363 . S
C507 C513 1.363 . S
C508 C509 1.363 . S
C508 C513 1.379 1_545 S
C508 N515 1.356 . S
C509 C508 1.363 . S
C509 C512 1.363 . S
N510 C512 1.356 . S
N510 H522 0.984 . S
N510 H523 0.985 . S
N511 C513 1.356 . S
N511 H516 0.984 . S
N511 H517 0.985 . S
C512 C506 1.379 1_545 S
C512 C509 1.363 . S
C512 N510 1.356 . S
C513 C507 1.363 . S
C513 C508 1.379 1_565 S
C513 N511 1.356 . S
N514 C506 1.356 . S
N514 H520 0.984 . S
N514 H521 0.984 . S
N515 C508 1.356 . S
N515 H518 0.984 . S
N515 H519 0.985 . S
H516 N511 0.984 . S
H517 N511 0.985 . S
H518 N515 0.984 . S
H519 N515 0.985 . S
H520 N514 0.984 . S
H521 N514 0.984 . S
H522 N510 0.984 . S
H523 N510 0.985 . S
C524 C525 1.363 . S
C524 C530 1.379 . S
C524 N532 1.356 . S
C525 C524 1.363 . S
C525 C531 1.363 . S
C526 C527 1.363 . S
C526 C531 1.379 . S
C526 N533 1.356 . S
C527 C526 1.363 . S
C527 C530 1.363 . S
N528 C530 1.356 . S
N528 H540 0.984 . S
N528 H541 0.985 . S
N529 C531 1.356 . S
N529 H534 0.984 . S
N529 H535 0.985 . S
C530 C524 1.379 . S
C530 C527 1.363 . S
C530 N528 1.356 . S
C531 C525 1.363 . S
C531 C526 1.379 . S
C531 N529 1.356 . S
N532 C524 1.356 . S
N532 H538 0.984 . S
N532 H539 0.984 . S
N533 C526 1.356 . S
N533 H536 0.984 . S
N533 H537 0.985 . S
H534 N529 0.984 . S
H535 N529 0.985 . S
H536 N533 0.984 . S
H537 N533 0.985 . S
H538 N532 0.984 . S
H539 N532 0.984 . S
H540 N528 0.984 . S
H541 N528 0.985 . S
C542 C543 1.363 . S
C542 C548 1.379 1_546 S
C542 N550 1.356 . S
C543 C542 1.363 . S
C543 C549 1.363 . S
C544 C545 1.363 . S
C544 C549 1.379 1_564 S
C544 N551 1.356 . S
C545 C544 1.363 . S
C545 C548 1.363 . S
N546 C548 1.356 . S
N546 H558 0.984 . S
N546 H559 0.985 . S
N547 C549 1.356 . S
N547 H552 0.984 . S
N547 H553 0.985 . S
C548 C542 1.379 1_564 S
C548 C545 1.363 . S
C548 N546 1.356 . S
C549 C543 1.363 . S
C549 C544 1.379 1_546 S
C549 N547 1.356 . S
N550 C542 1.356 . S
N550 H556 0.984 . S
N550 H557 0.984 . S
N551 C544 1.356 . S
N551 H554 0.984 . S
N551 H555 0.985 . S
H552 N547 0.984 . S
H553 N547 0.985 . S
H554 N551 0.984 . S
H555 N551 0.985 . S
H556 N550 0.984 . S
H557 N550 0.984 . S
H558 N546 0.984 . S
H559 N546 0.985 . S
C560 C561 1.363 . S
C560 C566 1.379 . S
C560 N568 1.356 . S
C561 C560 1.363 . S
C561 C567 1.363 . S
C562 C563 1.363 . S
C562 C567 1.379 . S
C562 N569 1.356 . S
C563 C562 1.363 . S
C563 C566 1.363 . S
N564 C566 1.356 . S
N564 H576 0.984 . S
N564 H577 0.985 . S
N565 C567 1.356 . S
N565 H570 0.984 . S
N565 H571 0.985 . S
C566 C560 1.379 . S
C566 C563 1.363 . S
C566 N564 1.356 . S
C567 C561 1.363 . S
C567 C562 1.379 . S
C567 N565 1.356 . S
N568 C560 1.356 . S
N568 H574 0.984 . S
N568 H575 0.984 . S
N569 C562 1.356 . S
N569 H572 0.984 . S
N569 H573 0.985 . S
H570 N565 0.984 . S
H571 N565 0.985 . S
H572 N569 0.984 . S
H573 N569 0.985 . S
H574 N568 0.984 . S
H575 N568 0.984 . S
H576 N564 0.984 . S
H577 N564 0.985 . S
C578 C579 1.363 . S
C578 C584 1.379 . S
C578 N586 1.356 . S
C579 C578 1.363 . S
C579 C585 1.363 1_556 S
C580 C581 1.363 . S
C580 C585 1.379 . S
C580 N587 1.356 . S
C581 C580 1.363 . S
C581 C584 1.363 1_554 S
N582 C584 1.356 . S
N582 H594 0.984 . S
N582 H595 0.985 . S
N583 C585 1.356 . S
N583 H588 0.984 . S
N583 H589 0.985 . S
C584 C578 1.379 . S
C584 C581 1.363 1_556 S
C584 N582 1.356 . S
C585 C579 1.363 1_554 S
C585 C580 1.379 . S
C585 N583 1.356 . S
N586 C578 1.356 . S
N586 H592 0.984 . S
N586 H593 0.984 . S
N587 C580 1.356 . S
N587 H590 0.984 . S
N587 H591 0.985 . S
H588 N583 0.984 . S
H589 N583 0.985 . S
H590 N587 0.984 . S
H591 N587 0.985 . S
H592 N586 0.984 . S
H593 N586 0.984 . S
H594 N582 0.984 . S
H595 N582 0.985 . S
C596 C597 1.363 . S
C596 C602 1.379 . S
C596 N604 1.356 . S
C597 C596 1.363 . S
C597 C603 1.363 . S
C598 C599 1.363 . S
C598 C603 1.379 . S
C598 N605 1.356 . S
C599 C598 1.363 . S
C599 C602 1.363 . S
N600 C602 1.356 . S
N600 H612 0.984 . S
N600 H613 0.985 . S
N601 C603 1.356 . S
N601 H606 0.984 . S
N601 H607 0.985 . S
C602 C596 1.379 . S
C602 C599 1.363 . S
C602 N600 1.356 . S
C603 C597 1.363 . S
C603 C598 1.379 . S
C603 N601 1.356 . S
N604 C596 1.356 . S
N604 H610 0.984 . S
N604 H611 0.984 . S
N605 C598 1.356 . S
N605 H608 0.984 . S
N605 H609 0.985 . S
H606 N601 0.984 . S
H607 N601 0.985 . S
H608 N605 0.984 . S
H609 N605 0.985 . S
H610 N604 0.984 . S
H611 N604 0.984 . S
H612 N600 0.984 . S
H613 N600 0.985 . S
C614 C615 1.363 . S
C614 C620 1.379 . S
C614 N622 1.356 . S
C615 C614 1.363 . S
C615 C621 1.363 . S
C616 C617 1.363 . S
C616 C621 1.379 . S
C616 N623 1.356 . S
C617 C616 1.363 . S
C617 C620 1.363 . S
N618 C620 1.356 . S
N618 H630 0.984 . S
N618 H631 0.985 . S
N619 C621 1.356 . S
N619 H624 0.984 . S
N619 H625 0.985 . S
C620 C614 1.379 . S
C620 C617 1.363 . S
C620 N618 1.356 . S
C621 C615 1.363 . S
C621 C616 1.379 . S
C621 N619 1.356 . S
N622 C614 1.356 . S
N622 H628 0.984 . S
N622 H629 0.984 . S
N623 C616 1.356 . S
N623 H626 0.984 . S
N623 H627 0.985 . S
H624 N619 0.984 . S
H625 N619 0.985 . S
H626 N623 0.984 . S
H627 N623 0.985 . S
H628 N622 0.984 . S
H629 N622 0.984 . S
H630 N618 0.984 . S
H631 N618 0.985 . S
C632 C633 1.363 . S
C632 C638 1.379 . S
C632 N640 1.356 . S
C633 C632 1.363 . S
C633 C639 1.363 . S
C634 C635 1.363 . S
C634 C639 1.379 . S
C634 N641 1.356 . S
C635 C634 1.363 . S
C635 C638 1.363 . S
N636 C638 1.356 . S
N636 H648 0.984 . S
N636 H649 0.985 . S
N637 C639 1.356 . S
N637 H642 0.984 . S
N637 H643 0.985 . S
C638 C632 1.379 . S
C638 C635 1.363 . S
C638 N636 1.356 . S
C639 C633 1.363 . S
C639 C634 1.379 . S
C639 N637 1.356 . S
N640 C632 1.356 . S
N640 H646 0.984 . S
N640 H647 0.984 . S
N641 C634 1.356 . S
N641 H644 0.984 . S
N641 H645 0.985 . S
H642 N637 0.984 . S
H643 N637 0.985 . S
H644 N641 0.984 . S
H645 N641 0.985 . S
H646 N640 0.984 . S
H647 N640 0.984 . S
H648 N636 0.984 . S
H649 N636 0.985 . S
C650 C651 1.363 1_556 S
C650 C656 1.379 . S
C650 N658 1.356 . S
C651 C650 1.363 1_554 S
C651 C657 1.363 . S
C652 C653 1.363 1_554 S
C652 C657 1.379 . S
C652 N659 1.356 . S
C653 C652 1.363 1_556 S
C653 C656 1.363 . S
N654 C656 1.356 . S
N654 H666 0.984 . S
N654 H667 0.985 . S
N655 C657 1.356 . S
N655 H660 0.984 . S
N655 H661 0.985 . S
C656 C650 1.379 . S
C656 C653 1.363 . S
C656 N654 1.356 . S
C657 C651 1.363 . S
C657 C652 1.379 . S
C657 N655 1.356 . S
N658 C650 1.356 . S
N658 H664 0.984 . S
N658 H665 0.984 . S
N659 C652 1.356 . S
N659 H662 0.984 . S
N659 H663 0.985 . S
H660 N655 0.984 . S
H661 N655 0.985 . S
H662 N659 0.984 . S
H663 N659 0.985 . S
H664 N658 0.984 . S
H665 N658 0.984 . S
H666 N654 0.984 . S
H667 N654 0.985 . S
C668 C669 1.363 . S
C668 C674 1.379 . S
C668 N676 1.356 . S
C669 C668 1.363 . S
C669 C675 1.363 . S
C670 C671 1.363 . S
C670 C675 1.379 . S
C670 N677 1.356 . S
C671 C670 1.363 . S
C671 C674 1.363 . S
N672 C674 1.356 . S
N672 H684 0.984 . S
N672 H685 0.985 . S
N673 C675 1.356 . S
N673 H678 0.984 . S
N673 H679 0.985 . S
C674 C668 1.379 . S
C674 C671 1.363 . S
C674 N672 1.356 . S
C675 C669 1.363 . S
C675 C670 1.379 . S
C675 N673 1.356 . S
N676 C668 1.356 . S
N676 H682 0.984 . S
N676 H683 0.984 . S
N677 C670 1.356 . S
N677 H680 0.984 . S
N677 H681 0.985 . S
H678 N673 0.984 . S
H679 N673 0.985 . S
H680 N677 0.984 . S
H681 N677 0.985 . S
H682 N676 0.984 . S
H683 N676 0.984 . S
H684 N672 0.984 . S
H685 N672 0.985 . S
C686 C687 1.363 . S
C686 C692 1.379 . S
C686 N694 1.356 . S
C687 C686 1.363 . S
C687 C693 1.363 . S
C688 C689 1.363 . S
C688 C693 1.379 . S
C688 N695 1.356 . S
C689 C688 1.363 . S
C689 C692 1.363 . S
N690 C692 1.356 . S
N690 H702 0.984 . S
N690 H703 0.985 . S
N691 C693 1.356 . S
N691 H696 0.984 . S
N691 H697 0.985 . S
C692 C686 1.379 . S
C692 C689 1.363 . S
C692 N690 1.356 . S
C693 C687 1.363 . S
C693 C688 1.379 . S
C693 N691 1.356 . S
N694 C686 1.356 . S
N694 H700 0.984 . S
N694 H701 0.984 . S
N695 C688 1.356 . S
N695 H698 0.984 . S
N695 H699 0.985 . S
H696 N691 0.984 . S
H697 N691 0.985 . S
H698 N695 0.984 . S
H699 N695 0.985 . S
H700 N694 0.984 . S
H701 N694 0.984 . S
H702 N690 0.984 . S
H703 N690 0.985 . S
C704 C705 1.363 . S
C704 C710 1.379 . S
C704 N712 1.356 . S
C705 C704 1.363 . S
C705 C711 1.363 . S
C706 C707 1.363 . S
C706 C711 1.379 . S
C706 N713 1.356 . S
C707 C706 1.363 . S
C707 C710 1.363 . S
N708 C710 1.356 . S
N708 H720 0.984 . S
N708 H721 0.985 . S
N709 C711 1.356 . S
N709 H714 0.984 . S
N709 H715 0.985 . S
C710 C704 1.379 . S
C710 C707 1.363 . S
C710 N708 1.356 . S
C711 C705 1.363 . S
C711 C706 1.379 . S
C711 N709 1.356 . S
N712 C704 1.356 . S
N712 H718 0.984 . S
N712 H719 0.978 1_556 S
N713 C706 1.356 . S
N713 H716 0.984 . S
N713 H717 0.985 . S
H714 N709 0.984 . S
H715 N709 0.985 . S
H716 N713 0.984 . S
H717 N713 0.985 . S
H718 N712 0.984 . S
H719 N712 0.978 1_554 S
H720 N708 0.984 . S
H721 N708 0.985 . S
C722 C723 1.363 . S
C722 C728 1.379 . S
C722 N730 1.356 . S
C723 C722 1.363 . S
C723 C729 1.363 . S
C724 C725 1.363 . S
C724 C729 1.379 . S
C724 N731 1.356 . S
C725 C724 1.363 . S
C725 C728 1.363 . S
N726 C728 1.356 . S
N726 H738 0.984 . S
N726 H739 0.985 . S
N727 C729 1.356 . S
N727 H732 0.984 . S
N727 H733 0.985 . S
C728 C722 1.379 . S
C728 C725 1.363 . S
C728 N726 1.356 . S
C729 C723 1.363 . S
C729 C724 1.379 . S
C729 N727 1.356 . S
N730 C722 1.356 . S
N730 H736 0.984 . S
N730 H737 0.984 . S
N731 C724 1.356 . S
N731 H734 0.984 . S
N731 H735 0.985 . S
H732 N727 0.984 . S
H733 N727 0.985 . S
H734 N731 0.984 . S
H735 N731 0.985 . S
H736 N730 0.984 . S
H737 N730 0.984 . S
H738 N726 0.984 . S
H739 N726 0.985 . S
C740 C741 1.363 . S
C740 C746 1.379 . S
C740 N748 1.356 . S
C741 C740 1.363 . S
C741 C747 1.363 . S
C742 C743 1.363 . S
C742 C747 1.379 . S
C742 N749 1.356 . S
C743 C742 1.363 . S
C743 C746 1.363 . S
N744 C746 1.356 . S
N744 H756 0.984 . S
N744 H757 0.985 . S
N745 C747 1.356 . S
N745 H750 0.984 . S
N745 H751 0.985 . S
C746 C740 1.379 . S
C746 C743 1.363 . S
C746 N744 1.356 . S
C747 C741 1.363 . S
C747 C742 1.379 . S
C747 N745 1.356 . S
N748 C740 1.356 . S
N748 H754 0.984 . S
N748 H755 0.984 . S
N749 C742 1.356 . S
N749 H752 0.984 . S
N749 H753 0.985 . S
H750 N745 0.984 . S
H751 N745 0.985 . S
H752 N749 0.984 . S
H753 N749 0.985 . S
H754 N748 0.984 . S
H755 N748 0.984 . S
H756 N744 0.984 . S
H757 N744 0.985 . S
C758 C759 1.363 . S
C758 C764 1.379 . S
C758 N766 1.356 . S
C759 C758 1.363 . S
C759 C765 1.363 . S
C760 C761 1.363 . S
C760 C765 1.379 . S
C760 N767 1.356 . S
C761 C760 1.363 . S
C761 C764 1.363 . S
N762 C764 1.356 . S
N762 H774 0.984 . S
N762 H775 0.985 . S
N763 C765 1.356 . S
N763 H768 0.984 . S
N763 H769 0.985 . S
C764 C758 1.379 . S
C764 C761 1.363 . S
C764 N762 1.356 . S
C765 C759 1.363 . S
C765 C760 1.379 . S
C765 N763 1.356 . S
N766 C758 1.356 . S
N766 H772 0.984 . S
N766 H773 0.984 . S
N767 C760 1.356 . S
N767 H770 0.984 . S
N767 H771 0.985 . S
H768 N763 0.984 . S
H769 N763 0.985 . S
H770 N767 0.984 . S
H771 N767 0.985 . S
H772 N766 0.984 . S
H773 N766 0.984 . S
H774 N762 0.984 . S
H775 N762 0.985 . S
C776 C777 1.363 . S
C776 C782 1.379 . S
C776 N784 1.356 . S
C777 C776 1.363 . S
C777 C783 1.363 . S
C778 C779 1.363 . S
C778 C783 1.379 . S
C778 N785 1.356 . S
C779 C778 1.363 . S
C779 C782 1.363 . S
N780 C782 1.356 . S
N780 H792 0.984 . S
N780 H793 0.985 . S
N781 C783 1.356 . S
N781 H786 0.984 . S
N781 H787 0.985 . S
C782 C776 1.379 . S
C782 C779 1.363 . S
C782 N780 1.356 . S
C783 C777 1.363 . S
C783 C778 1.379 . S
C783 N781 1.356 . S
N784 C776 1.356 . S
N784 H790 0.984 . S
N784 H791 0.984 1_554 S
N785 C778 1.356 . S
N785 H788 0.984 . S
N785 H789 0.985 . S
H786 N781 0.984 . S
H787 N781 0.985 . S
H788 N785 0.984 . S
H789 N785 0.985 . S
H790 N784 0.984 . S
H791 N784 0.984 1_556 S
H792 N780 0.984 . S
H793 N780 0.985 . S
C794 C795 1.363 . S
C794 C800 1.379 . S
C794 N802 1.356 . S
C795 C794 1.363 . S
C795 C801 1.363 . S
C796 C797 1.363 . S
C796 C801 1.379 . S
C796 N803 1.356 . S
C797 C796 1.363 . S
C797 C800 1.363 . S
N798 C800 1.356 . S
N798 H810 0.984 . S
N798 H811 0.985 . S
N799 C801 1.356 . S
N799 H804 0.984 1_556 S
N799 H805 0.985 1_556 S
C800 C794 1.379 . S
C800 C797 1.363 . S
C800 N798 1.356 . S
C801 C795 1.363 . S
C801 C796 1.379 . S
C801 N799 1.356 . S
N802 C794 1.356 . S
N802 H808 0.984 . S
N802 H809 0.984 . S
N803 C796 1.356 . S
N803 H806 0.984 . S
N803 H807 0.985 . S
H804 N799 0.984 1_554 S
H805 N799 0.985 1_554 S
H806 N803 0.984 . S
H807 N803 0.985 . S
H808 N802 0.984 . S
H809 N802 0.984 . S
H810 N798 0.984 . S
H811 N798 0.985 . S
C812 C813 1.363 . S
C812 C818 1.379 . S
C812 N820 1.356 . S
C813 C812 1.363 . S
C813 C819 1.363 . S
C814 C815 1.363 . S
C814 C819 1.379 . S
C814 N821 1.356 . S
C815 C814 1.363 . S
C815 C818 1.363 . S
N816 C818 1.356 . S
N816 H828 0.984 . S
N816 H829 0.985 . S
N817 C819 1.356 . S
N817 H822 0.984 . S
N817 H823 0.985 . S
C818 C812 1.379 . S
C818 C815 1.363 . S
C818 N816 1.356 . S
C819 C813 1.363 . S
C819 C814 1.379 . S
C819 N817 1.356 . S
N820 C812 1.356 . S
N820 H826 0.984 . S
N820 H827 0.984 . S
N821 C814 1.356 . S
N821 H824 0.984 . S
N821 H825 0.985 . S
H822 N817 0.984 . S
H823 N817 0.985 . S
H824 N821 0.984 . S
H825 N821 0.985 . S
H826 N820 0.984 . S
H827 N820 0.984 . S
H828 N816 0.984 . S
H829 N816 0.985 . S
C830 C831 1.363 . S
C830 C836 1.379 . S
C830 N838 1.356 . S
C831 C830 1.363 . S
C831 C837 1.363 . S
C832 C833 1.363 . S
C832 C837 1.379 . S
C832 N839 1.356 . S
C833 C832 1.363 . S
C833 C836 1.363 . S
N834 C836 1.356 . S
N834 H846 0.984 . S
N834 H847 0.985 . S
N835 C837 1.356 . S
N835 H840 0.984 . S
N835 H841 0.985 . S
C836 C830 1.379 . S
C836 C833 1.363 . S
C836 N834 1.356 . S
C837 C831 1.363 . S
C837 C832 1.379 . S
C837 N835 1.356 . S
N838 C830 1.356 . S
N838 H844 0.984 . S
N838 H845 0.984 . S
N839 C832 1.356 . S
N839 H842 0.984 . S
N839 H843 0.985 . S
H840 N835 0.984 . S
H841 N835 0.985 . S
H842 N839 0.984 . S
H843 N839 0.985 . S
H844 N838 0.984 . S
H845 N838 0.984 . S
H846 N834 0.984 . S
H847 N834 0.985 . S
C848 C849 1.363 . S
C848 C854 1.379 . S
C848 N856 1.356 . S
C849 C848 1.363 . S
C849 C855 1.363 . S
C850 C851 1.363 . S
C850 C855 1.379 . S
C850 N857 1.356 . S
C851 C850 1.363 . S
C851 C854 1.363 . S
N852 C854 1.356 . S
N852 H864 0.984 . S
N852 H865 0.985 . S
N853 C855 1.356 . S
N853 H858 0.984 . S
N853 H859 0.985 . S
C854 C848 1.379 . S
C854 C851 1.363 . S
C854 N852 1.356 . S
C855 C849 1.363 . S
C855 C850 1.379 . S
C855 N853 1.356 . S
N856 C848 1.356 . S
N856 H862 0.984 . S
N856 H863 0.984 . S
N857 C850 1.356 . S
N857 H860 0.984 . S
N857 H861 0.985 . S
H858 N853 0.984 . S
H859 N853 0.985 . S
H860 N857 0.984 . S
H861 N857 0.985 . S
H862 N856 0.984 . S
H863 N856 0.984 . S
H864 N852 0.984 . S
H865 N852 0.985 . S
C866 C867 1.363 . S
C866 C872 1.379 . S
C866 N874 1.356 . S
C867 C866 1.363 . S
C867 C873 1.363 . S
C868 C869 1.363 . S
C868 C873 1.379 . S
C868 N875 1.356 . S
C869 C868 1.363 . S
C869 C872 1.363 . S
N870 C872 1.356 . S
N870 H882 0.984 . S
N870 H883 0.985 . S
N871 C873 1.356 . S
N871 H876 0.984 . S
N871 H877 0.985 . S
C872 C866 1.379 . S
C872 C869 1.363 . S
C872 N870 1.356 . S
C873 C867 1.363 . S
C873 C868 1.379 . S
C873 N871 1.356 . S
N874 C866 1.356 . S
N874 H880 0.984 . S
N874 H881 0.984 . S
N875 C868 1.356 . S
N875 H878 0.984 . S
N875 H879 0.985 . S
H876 N871 0.984 . S
H877 N871 0.985 . S
H878 N875 0.984 . S
H879 N875 0.985 . S
H880 N874 0.984 . S
H881 N874 0.984 . S
H882 N870 0.984 . S
H883 N870 0.985 . S
C884 C885 1.363 . S
C884 C890 1.379 . S
C884 N892 1.356 . S
C885 C884 1.363 . S
C885 C891 1.363 . S
C886 C887 1.363 . S
C886 C891 1.379 . S
C886 N893 1.356 . S
C887 C886 1.363 . S
C887 C890 1.363 . S
N888 C890 1.356 1_554 S
N888 H900 0.984 . S
N888 H901 0.985 . S
N889 C891 1.356 . S
N889 H894 0.984 . S
N889 H895 0.985 . S
C890 C884 1.379 . S
C890 C887 1.363 . S
C890 N888 1.356 1_556 S
C891 C885 1.363 . S
C891 C886 1.379 . S
C891 N889 1.356 . S
N892 C884 1.356 . S
N892 H898 0.984 . S
N892 H899 0.984 . S
N893 C886 1.356 . S
N893 H896 0.984 . S
N893 H897 0.985 . S
H894 N889 0.984 . S
H895 N889 0.985 . S
H896 N893 0.984 . S
H897 N893 0.985 . S
H898 N892 0.984 . S
H899 N892 0.984 . S
H900 N888 0.984 . S
H901 N888 0.985 . S
C902 C903 1.363 . S
C902 C908 1.379 . S
C902 N910 1.356 . S
C903 C902 1.363 . S
C903 C909 1.363 . S
C904 C905 1.363 . S
C904 C909 1.379 . S
C904 N911 1.356 . S
C905 C904 1.363 . S
C905 C908 1.363 . S
N906 C908 1.356 1_556 S
N906 H918 0.984 . S
N906 H919 0.985 . S
N907 C909 1.356 . S
N907 H912 0.984 . S
N907 H913 0.985 . S
C908 C902 1.379 . S
C908 C905 1.363 . S
C908 N906 1.356 1_554 S
C909 C903 1.363 . S
C909 C904 1.379 . S
C909 N907 1.356 . S
N910 C902 1.356 . S
N910 H916 0.984 . S
N910 H917 0.984 . S
N911 C904 1.356 . S
N911 H914 0.984 . S
N911 H915 0.985 . S
H912 N907 0.984 . S
H913 N907 0.985 . S
H914 N911 0.984 . S
H915 N911 0.985 . S
H916 N910 0.984 . S
H917 N910 0.984 . S
H918 N906 0.984 . S
H919 N906 0.985 . S
C920 C921 1.363 . S
C920 C926 1.379 . S
C920 N928 1.356 . S
C921 C920 1.363 . S
C921 C927 1.363 . S
C922 C923 1.363 . S
C922 C927 1.379 . S
C922 N929 1.356 . S
C923 C922 1.363 . S
C923 C926 1.363 . S
N924 C926 1.356 . S
N924 H936 0.984 . S
N924 H937 0.985 . S
N925 C927 1.356 . S
N925 H930 0.984 . S
N925 H931 0.985 . S
C926 C920 1.379 . S
C926 C923 1.363 . S
C926 N924 1.356 . S
C927 C921 1.363 . S
C927 C922 1.379 . S
C927 N925 1.356 . S
N928 C920 1.356 . S
N928 H934 0.984 . S
N928 H935 0.984 . S
N929 C922 1.356 . S
N929 H932 0.984 . S
N929 H933 0.985 . S
H930 N925 0.984 . S
H931 N925 0.985 . S
H932 N929 0.984 . S
H933 N929 0.985 . S
H934 N928 0.984 . S
H935 N928 0.984 . S
H936 N924 0.984 . S
H937 N924 0.985 . S
C938 C939 1.363 . S
C938 C944 1.379 . S
C938 N946 1.356 . S
C939 C938 1.363 . S
C939 C945 1.363 . S
C940 C941 1.363 . S
C940 C945 1.379 . S
C940 N947 1.356 . S
C941 C940 1.363 . S
C941 C944 1.363 . S
N942 C944 1.356 . S
N942 H954 0.984 . S
N942 H955 0.985 . S
N943 C945 1.356 . S
N943 H948 0.984 . S
N943 H949 0.985 . S
C944 C938 1.379 . S
C944 C941 1.363 . S
C944 N942 1.356 . S
C945 C939 1.363 . S
C945 C940 1.379 . S
C945 N943 1.356 . S
N946 C938 1.356 . S
N946 H952 0.984 . S
N946 H953 0.984 . S
N947 C940 1.356 . S
N947 H950 0.984 . S
N947 H951 0.985 . S
H948 N943 0.984 . S
H949 N943 0.985 . S
H950 N947 0.984 . S
H951 N947 0.985 . S
H952 N946 0.984 . S
H953 N946 0.984 . S
H954 N942 0.984 . S
H955 N942 0.985 . S
C956 C957 1.363 . S
C956 C962 1.379 . S
C956 N964 1.356 1_554 S
C957 C956 1.363 . S
C957 C963 1.363 . S
C958 C959 1.363 . S
C958 C963 1.379 . S
C958 N965 1.356 . S
C959 C958 1.363 . S
C959 C962 1.363 . S
N960 C962 1.356 . S
N960 H972 0.984 . S
N960 H973 0.985 . S
N961 C963 1.356 . S
N961 H966 0.984 . S
N961 H967 0.985 . S
C962 C956 1.379 . S
C962 C959 1.363 . S
C962 N960 1.356 . S
C963 C957 1.363 . S
C963 C958 1.379 . S
C963 N961 1.356 . S
N964 C956 1.356 1_556 S
N964 H970 0.984 . S
N964 H971 0.984 . S
N965 C958 1.356 . S
N965 H968 0.984 . S
N965 H969 0.985 . S
H966 N961 0.984 . S
H967 N961 0.985 . S
H968 N965 0.984 . S
H969 N965 0.985 . S
H970 N964 0.984 . S
H971 N964 0.984 . S
H972 N960 0.984 . S
H973 N960 0.985 . S
C974 C975 1.363 . S
C974 C980 1.379 . S
C974 N982 1.356 . S
C975 C974 1.363 . S
C975 C981 1.363 . S
C976 C977 1.363 . S
C976 C981 1.379 . S
C976 N983 1.356 1_556 S
C977 C976 1.363 . S
C977 C980 1.363 . S
N978 C980 1.356 . S
N978 H990 0.984 . S
N978 H991 0.985 . S
N979 C981 1.356 . S
N979 H984 0.984 . S
N979 H985 0.985 . S
C980 C974 1.379 . S
C980 C977 1.363 . S
C980 N978 1.356 . S
C981 C975 1.363 . S
C981 C976 1.379 . S
C981 N979 1.356 . S
N982 C974 1.356 . S
N982 H988 0.984 . S
N982 H989 0.984 . S
N983 C976 1.356 1_554 S
N983 H986 0.984 . S
N983 H987 0.985 . S
H984 N979 0.984 . S
H985 N979 0.985 . S
H986 N983 0.984 . S
H987 N983 0.985 . S
H988 N982 0.984 . S
H989 N982 0.984 . S
H990 N978 0.984 . S
H991 N978 0.985 . S
C992 C993 1.363 . S
C992 C998 1.379 . S
C992 N1000 1.356 . S
C993 C992 1.363 . S
C993 C999 1.363 . S
C994 C995 1.363 . S
C994 C999 1.379 . S
C994 N1001 1.356 . S
C995 C994 1.363 . S
C995 C998 1.363 . S
N996 C998 1.356 . S
N996 H1008 0.984 . S
N996 H1009 0.985 . S
N997 C999 1.356 . S
N997 H1002 0.984 . S
N997 H1003 0.985 . S
C998 C992 1.379 . S
C998 C995 1.363 . S
C998 N996 1.356 . S
C999 C993 1.363 . S
C999 C994 1.379 . S
C999 N997 1.356 . S
N1000 C992 1.356 . S
N1000 H1006 0.984 . S
N1000 H1007 0.984 . S
N1001 C994 1.356 . S
N1001 H1004 0.984 . S
N1001 H1005 0.985 . S
H1002 N997 0.984 . S
H1003 N997 0.985 . S
H1004 N1001 0.984 . S
H1005 N1001 0.985 . S
H1006 N1000 0.984 . S
H1007 N1000 0.984 . S
H1008 N996 0.984 . S
H1009 N996 0.985 . S
C1010 C1011 1.363 . S
C1010 C1016 1.379 1_655 S
C1010 N1018 1.356 . S
C1011 C1010 1.363 . S
C1011 C1017 1.363 . S
C1012 C1013 1.363 . S
C1012 C1017 1.379 1_455 S
C1012 N1019 1.356 . S
C1013 C1012 1.363 . S
C1013 C1016 1.363 . S
N1014 C1016 1.356 . S
N1014 H1026 0.984 . S
N1014 H1027 0.985 . S
N1015 C1017 1.356 . S
N1015 H1020 0.984 . S
N1015 H1021 0.985 . S
C1016 C1010 1.379 1_455 S
C1016 C1013 1.363 . S
C1016 N1014 1.356 . S
C1017 C1011 1.363 . S
C1017 C1012 1.379 1_655 S
C1017 N1015 1.356 . S
N1018 C1010 1.356 . S
N1018 H1024 0.984 . S
N1018 H1025 0.984 . S
N1019 C1012 1.356 . S
N1019 H1022 0.984 . S
N1019 H1023 0.985 . S
H1020 N1015 0.984 . S
H1021 N1015 0.985 . S
H1022 N1019 0.984 . S
H1023 N1019 0.985 . S
H1024 N1018 0.984 . S
H1025 N1018 0.984 . S
H1026 N1014 0.984 . S
H1027 N1014 0.985 . S
C1028 C1029 1.363 . S
C1028 C1034 1.379 . S
C1028 N1036 1.356 . S
C1029 C1028 1.363 . S
C1029 C1035 1.363 . S
C1030 C1031 1.363 . S
C1030 C1035 1.379 . S
C1030 N1037 1.356 . S
C1031 C1030 1.363 . S
C1031 C1034 1.363 . S
N1032 C1034 1.356 . S
N1032 H1044 0.984 . S
N1032 H1045 0.985 . S
N1033 C1035 1.356 . S
N1033 H1038 0.984 . S
N1033 H1039 0.985 . S
C1034 C1028 1.379 . S
C1034 C1031 1.363 . S
C1034 N1032 1.356 . S
C1035 C1029 1.363 . S
C1035 C1030 1.379 . S
C1035 N1033 1.356 . S
N1036 C1028 1.356 . S
N1036 H1042 0.984 . S
N1036 H1043 0.984 . S
N1037 C1030 1.356 . S
N1037 H1040 0.984 . S
N1037 H1041 0.985 . S
H1038 N1033 0.984 . S
H1039 N1033 0.985 . S
H1040 N1037 0.984 . S
H1041 N1037 0.985 . S
H1042 N1036 0.984 . S
H1043 N1036 0.984 . S
H1044 N1032 0.984 . S
H1045 N1032 0.985 . S
C1046 C1047 1.363 . S
C1046 C1052 1.379 . S
C1046 N1054 1.356 . S
C1047 C1046 1.363 . S
C1047 C1053 1.363 . S
C1048 C1049 1.363 . S
C1048 C1053 1.379 . S
C1048 N1055 1.356 . S
C1049 C1048 1.363 . S
C1049 C1052 1.363 . S
N1050 C1052 1.356 . S
N1050 H1062 0.984 1_556 S
N1050 H1063 0.985 . S
N1051 C1053 1.356 . S
N1051 H1056 0.984 . S
N1051 H1057 0.985 . S
C1052 C1046 1.379 . S
C1052 C1049 1.363 . S
C1052 N1050 1.356 . S
C1053 C1047 1.363 . S
C1053 C1048 1.379 . S
C1053 N1051 1.356 . S
N1054 C1046 1.356 . S
N1054 H1060 0.984 1_556 S
N1054 H1061 0.984 . S
N1055 C1048 1.356 . S
N1055 H1058 0.984 . S
N1055 H1059 0.985 . S
H1056 N1051 0.984 . S
H1057 N1051 0.985 . S
H1058 N1055 0.984 . S
H1059 N1055 0.985 . S
H1060 N1054 0.984 1_554 S
H1061 N1054 0.984 . S
H1062 N1050 0.984 1_554 S
H1063 N1050 0.985 . S
C1064 C1065 1.363 . S
C1064 C1070 1.379 . S
C1064 N1072 1.356 . S
C1065 C1064 1.363 . S
C1065 C1071 1.363 . S
C1066 C1067 1.363 . S
C1066 C1071 1.379 . S
C1066 N1073 1.356 . S
C1067 C1066 1.363 . S
C1067 C1070 1.363 . S
N1068 C1070 1.356 . S
N1068 H1080 0.984 . S
N1068 H1081 0.985 . S
N1069 C1071 1.356 . S
N1069 H1074 0.984 . S
N1069 H1075 0.985 . S
C1070 C1064 1.379 . S
C1070 C1067 1.363 . S
C1070 N1068 1.356 . S
C1071 C1065 1.363 . S
C1071 C1066 1.379 . S
C1071 N1069 1.356 . S
N1072 C1064 1.356 . S
N1072 H1078 0.984 . S
N1072 H1079 0.984 . S
N1073 C1066 1.356 . S
N1073 H1076 0.984 . S
N1073 H1077 0.985 . S
H1074 N1069 0.984 . S
H1075 N1069 0.985 . S
H1076 N1073 0.984 . S
H1077 N1073 0.985 . S
H1078 N1072 0.984 . S
H1079 N1072 0.984 . S
H1080 N1068 0.984 . S
H1081 N1068 0.985 . S
C1082 C1083 1.363 . S
C1082 C1088 1.379 . S
C1082 N1090 1.356 . S
C1083 C1082 1.363 . S
C1083 C1089 1.363 . S
C1084 C1085 1.363 . S
C1084 C1089 1.379 . S
C1084 N1091 1.356 . S
C1085 C1084 1.363 . S
C1085 C1088 1.363 . S
N1086 C1088 1.356 . S
N1086 H1098 0.984 . S
N1086 H1099 0.985 . S
N1087 C1089 1.356 . S
N1087 H1092 0.984 . S
N1087 H1093 0.985 1_554 S
C1088 C1082 1.379 . S
C1088 C1085 1.363 . S
C1088 N1086 1.356 . S
C1089 C1083 1.363 . S
C1089 C1084 1.379 . S
C1089 N1087 1.356 . S
N1090 C1082 1.356 . S
N1090 H1096 0.984 . S
N1090 H1097 0.984 . S
N1091 C1084 1.356 . S
N1091 H1094 0.984 . S
N1091 H1095 0.985 1_554 S
H1092 N1087 0.984 . S
H1093 N1087 0.985 1_556 S
H1094 N1091 0.984 . S
H1095 N1091 0.985 1_556 S
H1096 N1090 0.984 . S
H1097 N1090 0.984 . S
H1098 N1086 0.984 . S
H1099 N1086 0.985 . S
C1100 C1101 1.363 . S
C1100 C1106 1.379 . S
C1100 N1108 1.356 . S
C1101 C1100 1.363 . S
C1101 C1107 1.363 . S
C1102 C1103 1.363 . S
C1102 C1107 1.379 . S
C1102 N1109 1.356 . S
C1103 C1102 1.363 . S
C1103 C1106 1.363 . S
N1104 C1106 1.356 . S
N1104 H1116 0.984 . S
N1104 H1117 0.985 . S
N1105 C1107 1.356 . S
N1105 H1110 0.984 . S
N1105 H1111 0.985 . S
C1106 C1100 1.379 . S
C1106 C1103 1.363 . S
C1106 N1104 1.356 . S
C1107 C1101 1.363 . S
C1107 C1102 1.379 . S
C1107 N1105 1.356 . S
N1108 C1100 1.356 . S
N1108 H1114 0.984 . S
N1108 H1115 0.984 . S
N1109 C1102 1.356 . S
N1109 H1112 0.984 . S
N1109 H1113 0.985 . S
H1110 N1105 0.984 . S
H1111 N1105 0.985 . S
H1112 N1109 0.984 . S
H1113 N1109 0.985 . S
H1114 N1108 0.984 . S
H1115 N1108 0.984 . S
H1116 N1104 0.984 . S
H1117 N1104 0.985 . S
C1118 C1119 1.363 . S
C1118 C1124 1.379 1_655 S
C1118 N1126 1.356 . S
C1119 C1118 1.363 . S
C1119 C1125 1.363 . S
C1120 C1121 1.363 . S
C1120 C1125 1.379 1_455 S
C1120 N1127 1.356 . S
C1121 C1120 1.363 . S
C1121 C1124 1.363 . S
N1122 C1124 1.356 . S
N1122 H1134 0.984 . S
N1122 H1135 0.985 . S
N1123 C1125 1.356 . S
N1123 H1128 0.984 . S
N1123 H1129 0.985 . S
C1124 C1118 1.379 1_455 S
C1124 C1121 1.363 . S
C1124 N1122 1.356 . S
C1125 C1119 1.363 . S
C1125 C1120 1.379 1_655 S
C1125 N1123 1.356 . S
N1126 C1118 1.356 . S
N1126 H1132 0.984 . S
N1126 H1133 0.984 . S
N1127 C1120 1.356 . S
N1127 H1130 0.984 . S
N1127 H1131 0.985 . S
H1128 N1123 0.984 . S
H1129 N1123 0.985 . S
H1130 N1127 0.984 . S
H1131 N1127 0.985 . S
H1132 N1126 0.984 . S
H1133 N1126 0.984 . S
H1134 N1122 0.984 . S
H1135 N1122 0.985 . S
C1136 C1137 1.363 . S
C1136 C1142 1.379 . S
C1136 N1144 1.356 . S
C1137 C1136 1.363 . S
C1137 C1143 1.363 . S
C1138 C1139 1.363 . S
C1138 C1143 1.379 . S
C1138 N1145 1.356 . S
C1139 C1138 1.363 . S
C1139 C1142 1.363 . S
N1140 C1142 1.356 . S
N1140 H1152 0.984 . S
N1140 H1153 0.985 . S
N1141 C1143 1.356 . S
N1141 H1146 0.984 . S
N1141 H1147 0.985 . S
C1142 C1136 1.379 . S
C1142 C1139 1.363 . S
C1142 N1140 1.356 . S
C1143 C1137 1.363 . S
C1143 C1138 1.379 . S
C1143 N1141 1.356 . S
N1144 C1136 1.356 . S
N1144 H1150 0.984 . S
N1144 H1151 0.984 . S
N1145 C1138 1.356 . S
N1145 H1148 0.984 . S
N1145 H1149 0.985 . S
H1146 N1141 0.984 . S
H1147 N1141 0.985 . S
H1148 N1145 0.984 . S
H1149 N1145 0.985 . S
H1150 N1144 0.984 . S
H1151 N1144 0.984 . S
H1152 N1140 0.984 . S
H1153 N1140 0.985 . S
C1154 C1155 1.363 . S
C1154 C1160 1.379 . S
C1154 N1162 1.356 . S
C1155 C1154 1.363 . S
C1155 C1161 1.363 . S
C1156 C1157 1.363 . S
C1156 C1161 1.379 . S
C1156 N1163 1.356 . S
C1157 C1156 1.363 . S
C1157 C1160 1.363 . S
N1158 C1160 1.356 . S
N1158 H1170 0.984 . S
N1158 H1171 0.985 . S
N1159 C1161 1.356 . S
N1159 H1164 0.984 . S
N1159 H1165 0.985 . S
C1160 C1154 1.379 . S
C1160 C1157 1.363 . S
C1160 N1158 1.356 . S
C1161 C1155 1.363 . S
C1161 C1156 1.379 . S
C1161 N1159 1.356 . S
N1162 C1154 1.356 . S
N1162 H1168 0.984 . S
N1162 H1169 0.984 . S
N1163 C1156 1.356 . S
N1163 H1166 0.984 . S
N1163 H1167 0.985 . S
H1164 N1159 0.984 . S
H1165 N1159 0.985 . S
H1166 N1163 0.984 . S
H1167 N1163 0.985 . S
H1168 N1162 0.984 . S
H1169 N1162 0.984 . S
H1170 N1158 0.984 . S
H1171 N1158 0.985 . S
C1172 C1173 1.363 . S
C1172 C1178 1.379 . S
C1172 N1180 1.356 . S
C1173 C1172 1.363 . S
C1173 C1179 1.363 . S
C1174 C1175 1.363 . S
C1174 C1179 1.379 . S
C1174 N1181 1.356 . S
C1175 C1174 1.363 . S
C1175 C1178 1.363 . S
N1176 C1178 1.356 . S
N1176 H1188 0.984 . S
N1176 H1189 0.985 . S
N1177 C1179 1.356 . S
N1177 H1182 0.984 . S
N1177 H1183 0.985 . S
C1178 C1172 1.379 . S
C1178 C1175 1.363 . S
C1178 N1176 1.356 . S
C1179 C1173 1.363 . S
C1179 C1174 1.379 . S
C1179 N1177 1.356 . S
N1180 C1172 1.356 . S
N1180 H1186 0.984 . S
N1180 H1187 0.984 . S
N1181 C1174 1.356 . S
N1181 H1184 0.984 . S
N1181 H1185 0.985 . S
H1182 N1177 0.984 . S
H1183 N1177 0.985 . S
H1184 N1181 0.984 . S
H1185 N1181 0.985 . S
H1186 N1180 0.984 . S
H1187 N1180 0.984 . S
H1188 N1176 0.984 . S
H1189 N1176 0.985 . S
C1190 C1191 1.363 . S
C1190 C1196 1.379 . S
C1190 N1198 1.356 . S
C1191 C1190 1.363 . S
C1191 C1197 1.363 . S
C1192 C1193 1.363 . S
C1192 C1197 1.379 . S
C1192 N1199 1.356 . S
C1193 C1192 1.363 . S
C1193 C1196 1.363 . S
N1194 C1196 1.356 . S
N1194 H1206 0.984 . S
N1194 H1207 0.985 . S
N1195 C1197 1.356 . S
N1195 H1200 0.984 . S
N1195 H1201 0.985 . S
C1196 C1190 1.379 . S
C1196 C1193 1.363 . S
C1196 N1194 1.356 . S
C1197 C1191 1.363 . S
C1197 C1192 1.379 . S
C1197 N1195 1.356 . S
N1198 C1190 1.356 . S
N1198 H1204 0.984 . S
N1198 H1205 0.984 . S
N1199 C1192 1.356 . S
N1199 H1202 0.984 . S
N1199 H1203 0.985 . S
H1200 N1195 0.984 . S
H1201 N1195 0.985 . S
H1202 N1199 0.984 . S
H1203 N1199 0.985 . S
H1204 N1198 0.984 . S
H1205 N1198 0.984 . S
H1206 N1194 0.984 . S
H1207 N1194 0.985 . S
C1208 C1209 1.363 . S
C1208 C1214 1.379 . S
C1208 N1216 1.356 . S
C1209 C1208 1.363 . S
C1209 C1215 1.363 . S
C1210 C1211 1.363 . S
C1210 C1215 1.379 . S
C1210 N1217 1.356 . S
C1211 C1210 1.363 . S
C1211 C1214 1.363 . S
N1212 C1214 1.356 . S
N1212 H1224 0.984 . S
N1212 H1225 0.985 . S
N1213 C1215 1.356 . S
N1213 H1218 0.984 . S
N1213 H1219 0.985 1_556 S
C1214 C1208 1.379 . S
C1214 C1211 1.363 . S
C1214 N1212 1.356 . S
C1215 C1209 1.363 . S
C1215 C1210 1.379 . S
C1215 N1213 1.356 . S
N1216 C1208 1.356 . S
N1216 H1222 0.984 . S
N1216 H1223 0.984 . S
N1217 C1210 1.356 . S
N1217 H1220 0.984 . S
N1217 H1221 0.985 1_556 S
H1218 N1213 0.984 . S
H1219 N1213 0.985 1_554 S
H1220 N1217 0.984 . S
H1221 N1217 0.985 1_554 S
H1222 N1216 0.984 . S
H1223 N1216 0.984 . S
H1224 N1212 0.984 . S
H1225 N1212 0.985 . S
C1226 C1227 1.363 . S
C1226 C1232 1.379 1_655 S
C1226 N1234 1.356 . S
C1227 C1226 1.363 . S
C1227 C1233 1.363 . S
C1228 C1229 1.363 . S
C1228 C1233 1.379 1_455 S
C1228 N1235 1.356 . S
C1229 C1228 1.363 . S
C1229 C1232 1.363 . S
N1230 C1232 1.356 . S
N1230 H1242 0.984 . S
N1230 H1243 0.985 . S
N1231 C1233 1.356 . S
N1231 H1236 0.984 . S
N1231 H1237 0.985 . S
C1232 C1226 1.379 1_455 S
C1232 C1229 1.363 . S
C1232 N1230 1.356 . S
C1233 C1227 1.363 . S
C1233 C1228 1.379 1_655 S
C1233 N1231 1.356 . S
N1234 C1226 1.356 . S
N1234 H1240 0.984 . S
N1234 H1241 0.984 . S
N1235 C1228 1.356 . S
N1235 H1238 0.984 . S
N1235 H1239 0.985 . S
H1236 N1231 0.984 . S
H1237 N1231 0.985 . S
H1238 N1235 0.984 . S
H1239 N1235 0.985 . S
H1240 N1234 0.984 . S
H1241 N1234 0.984 . S
H1242 N1230 0.984 . S
H1243 N1230 0.985 . S
C1244 C1245 1.363 . S
C1244 C1250 1.379 1_655 S
C1244 N1252 1.356 . S
C1245 C1244 1.363 . S
C1245 C1251 1.363 . S
C1246 C1247 1.363 . S
C1246 C1251 1.379 1_455 S
C1246 N1253 1.356 . S
C1247 C1246 1.363 . S
C1247 C1250 1.363 . S
N1248 C1250 1.356 . S
N1248 H1260 0.984 . S
N1248 H1261 0.985 . S
N1249 C1251 1.356 . S
N1249 H1254 0.984 . S
N1249 H1255 0.985 . S
C1250 C1244 1.379 1_455 S
C1250 C1247 1.363 . S
C1250 N1248 1.356 . S
C1251 C1245 1.363 . S
C1251 C1246 1.379 1_655 S
C1251 N1249 1.356 . S
N1252 C1244 1.356 . S
N1252 H1258 0.984 . S
N1252 H1259 0.984 . S
N1253 C1246 1.356 . S
N1253 H1256 0.984 . S
N1253 H1257 0.985 . S
H1254 N1249 0.984 . S
H1255 N1249 0.985 . S
H1256 N1253 0.984 . S
H1257 N1253 0.985 . S
H1258 N1252 0.984 . S
H1259 N1252 0.984 . S
H1260 N1248 0.984 . S
H1261 N1248 0.985 . S
C1262 C1263 1.363 . S
C1262 C1268 1.379 . S
C1262 N1270 1.356 1_554 S
C1263 C1262 1.363 . S
C1263 C1269 1.363 . S
C1264 C1265 1.363 . S
C1264 C1269 1.379 . S
C1264 N1271 1.356 . S
C1265 C1264 1.363 . S
C1265 C1268 1.363 . S
N1266 C1268 1.356 1_556 S
N1266 H1278 0.984 . S
N1266 H1279 0.985 1_556 S
N1267 C1269 1.356 . S
N1267 H1272 0.984 . S
N1267 H1273 0.985 . S
C1268 C1262 1.379 . S
C1268 C1265 1.363 . S
C1268 N1266 1.356 1_554 S
C1269 C1263 1.363 . S
C1269 C1264 1.379 . S
C1269 N1267 1.356 . S
N1270 C1262 1.356 1_556 S
N1270 H1276 0.984 . S
N1270 H1277 0.984 1_556 S
N1271 C1264 1.356 . S
N1271 H1274 0.984 . S
N1271 H1275 0.985 . S
H1272 N1267 0.984 . S
H1273 N1267 0.985 . S
H1274 N1271 0.984 . S
H1275 N1271 0.985 . S
H1276 N1270 0.984 . S
H1277 N1270 0.984 1_554 S
H1278 N1266 0.984 . S
H1279 N1266 0.985 1_554 S
C1280 C1281 1.363 . S
C1280 C1286 1.379 . S
C1280 N1288 1.356 . S
C1281 C1280 1.363 . S
C1281 C1287 1.363 . S
C1282 C1283 1.363 . S
C1282 C1287 1.379 . S
C1282 N1289 1.356 . S
C1283 C1282 1.363 . S
C1283 C1286 1.363 . S
N1284 C1286 1.356 . S
N1284 H1296 0.984 . S
N1284 H1297 0.985 . S
N1285 C1287 1.356 . S
N1285 H1290 0.984 . S
N1285 H1291 0.985 . S
C1286 C1280 1.379 . S
C1286 C1283 1.363 . S
C1286 N1284 1.356 . S
C1287 C1281 1.363 . S
C1287 C1282 1.379 . S
C1287 N1285 1.356 . S
N1288 C1280 1.356 . S
N1288 H1294 0.984 . S
N1288 H1295 0.984 . S
N1289 C1282 1.356 . S
N1289 H1292 0.984 . S
N1289 H1293 0.985 . S
H1290 N1285 0.984 . S
H1291 N1285 0.985 . S
H1292 N1289 0.984 . S
H1293 N1289 0.985 . S
H1294 N1288 0.984 . S
H1295 N1288 0.984 . S
H1296 N1284 0.984 . S
H1297 N1284 0.985 . S
C1298 C1299 1.363 . S
C1298 C1304 1.379 . S
C1298 N1306 1.356 . S
C1299 C1298 1.363 . S
C1299 C1305 1.363 . S
C1300 C1301 1.363 . S
C1300 C1305 1.379 . S
C1300 N1307 1.356 . S
C1301 C1300 1.363 . S
C1301 C1304 1.363 . S
N1302 C1304 1.356 . S
N1302 H1314 0.984 . S
N1302 H1315 0.985 . S
N1303 C1305 1.356 . S
N1303 H1308 0.984 . S
N1303 H1309 0.985 . S
C1304 C1298 1.379 . S
C1304 C1301 1.363 . S
C1304 N1302 1.356 . S
C1305 C1299 1.363 . S
C1305 C1300 1.379 . S
C1305 N1303 1.356 . S
N1306 C1298 1.356 . S
N1306 H1312 0.984 . S
N1306 H1313 0.984 . S
N1307 C1300 1.356 . S
N1307 H1310 0.984 . S
N1307 H1311 0.985 . S
H1308 N1303 0.984 . S
H1309 N1303 0.985 . S
H1310 N1307 0.984 . S
H1311 N1307 0.985 . S
H1312 N1306 0.984 . S
H1313 N1306 0.984 . S
H1314 N1302 0.984 . S
H1315 N1302 0.985 . S
C1316 C1317 1.363 . S
C1316 C1322 1.379 . S
C1316 N1324 1.356 . S
C1317 C1316 1.363 . S
C1317 C1323 1.363 . S
C1318 C1319 1.363 . S
C1318 C1323 1.379 . S
C1318 N1325 1.356 . S
C1319 C1318 1.363 . S
C1319 C1322 1.363 . S
N1320 C1322 1.356 . S
N1320 H1332 0.984 . S
N1320 H1333 0.985 . S
N1321 C1323 1.356 . S
N1321 H1326 0.984 . S
N1321 H1327 0.985 . S
C1322 C1316 1.379 . S
C1322 C1319 1.363 . S
C1322 N1320 1.356 . S
C1323 C1317 1.363 . S
C1323 C1318 1.379 . S
C1323 N1321 1.356 . S
N1324 C1316 1.356 . S
N1324 H1330 0.984 . S
N1324 H1331 0.973 1_556 S
N1325 C1318 1.356 . S
N1325 H1328 0.984 . S
N1325 H1329 0.985 . S
H1326 N1321 0.984 . S
H1327 N1321 0.985 . S
H1328 N1325 0.984 . S
H1329 N1325 0.985 . S
H1330 N1324 0.984 . S
H1331 N1324 0.973 1_554 S
H1332 N1320 0.984 . S
H1333 N1320 0.985 . S
C1334 C1335 1.363 . S
C1334 C1340 1.379 . S
C1334 N1342 1.356 . S
C1335 C1334 1.363 . S
C1335 C1341 1.363 . S
C1336 C1337 1.363 . S
C1336 C1341 1.379 . S
C1336 N1343 1.356 . S
C1337 C1336 1.363 . S
C1337 C1340 1.363 . S
N1338 C1340 1.356 . S
N1338 H1350 0.984 . S
N1338 H1351 0.985 . S
N1339 C1341 1.356 . S
N1339 H1344 0.984 . S
N1339 H1345 0.985 . S
C1340 C1334 1.379 . S
C1340 C1337 1.363 . S
C1340 N1338 1.356 . S
C1341 C1335 1.363 . S
C1341 C1336 1.379 . S
C1341 N1339 1.356 . S
N1342 C1334 1.356 . S
N1342 H1348 0.984 . S
N1342 H1349 0.984 1_554 S
N1343 C1336 1.356 . S
N1343 H1346 0.984 . S
N1343 H1347 0.985 . S
H1344 N1339 0.984 . S
H1345 N1339 0.985 . S
H1346 N1343 0.984 . S
H1347 N1343 0.985 . S
H1348 N1342 0.984 . S
H1349 N1342 0.984 1_556 S
H1350 N1338 0.984 . S
H1351 N1338 0.985 . S
C1352 C1353 1.363 . S
C1352 C1358 1.379 . S
C1352 N1360 1.356 . S
C1353 C1352 1.363 . S
C1353 C1359 1.363 . S
C1354 C1355 1.363 . S
C1354 C1359 1.379 . S
C1354 N1361 1.356 . S
C1355 C1354 1.363 . S
C1355 C1358 1.363 . S
N1356 C1358 1.356 . S
N1356 H1368 0.984 . S
N1356 H1369 0.985 . S
N1357 C1359 1.356 . S
N1357 H1362 0.984 . S
N1357 H1363 0.985 . S
C1358 C1352 1.379 . S
C1358 C1355 1.363 . S
C1358 N1356 1.356 . S
C1359 C1353 1.363 . S
C1359 C1354 1.379 . S
C1359 N1357 1.356 . S
N1360 C1352 1.356 . S
N1360 H1366 0.984 . S
N1360 H1367 0.984 . S
N1361 C1354 1.356 . S
N1361 H1364 0.984 . S
N1361 H1365 0.985 . S
H1362 N1357 0.984 . S
H1363 N1357 0.985 . S
H1364 N1361 0.984 . S
H1365 N1361 0.985 . S
H1366 N1360 0.984 . S
H1367 N1360 0.984 . S
H1368 N1356 0.984 . S
H1369 N1356 0.985 . S
C1370 C1371 1.363 . S
C1370 C1376 1.379 . S
C1370 N1378 1.356 . S
C1371 C1370 1.363 . S
C1371 C1377 1.363 . S
C1372 C1373 1.363 . S
C1372 C1377 1.379 . S
C1372 N1379 1.356 . S
C1373 C1372 1.363 . S
C1373 C1376 1.363 . S
N1374 C1376 1.356 . S
N1374 H1386 0.984 . S
N1374 H1387 0.985 . S
N1375 C1377 1.356 . S
N1375 H1380 0.984 . S
N1375 H1381 0.985 . S
C1376 C1370 1.379 . S
C1376 C1373 1.363 . S
C1376 N1374 1.356 . S
C1377 C1371 1.363 . S
C1377 C1372 1.379 . S
C1377 N1375 1.356 . S
N1378 C1370 1.356 . S
N1378 H1384 0.984 . S
N1378 H1385 0.984 . S
N1379 C1372 1.356 . S
N1379 H1382 0.984 . S
N1379 H1383 0.985 . S
H1380 N1375 0.984 . S
H1381 N1375 0.985 . S
H1382 N1379 0.984 . S
H1383 N1379 0.985 . S
H1384 N1378 0.984 . S
H1385 N1378 0.984 . S
H1386 N1374 0.984 . S
H1387 N1374 0.985 . S
C1388 C1389 1.363 . S
C1388 C1394 1.379 . S
C1388 N1396 1.356 . S
C1389 C1388 1.363 . S
C1389 C1395 1.363 . S
C1390 C1391 1.363 . S
C1390 C1395 1.379 . S
C1390 N1397 1.356 . S
C1391 C1390 1.363 . S
C1391 C1394 1.363 . S
N1392 C1394 1.356 . S
N1392 H1404 0.984 . S
N1392 H1405 0.985 . S
N1393 C1395 1.356 . S
N1393 H1398 0.984 . S
N1393 H1399 0.985 . S
C1394 C1388 1.379 . S
C1394 C1391 1.363 . S
C1394 N1392 1.356 . S
C1395 C1389 1.363 . S
C1395 C1390 1.379 . S
C1395 N1393 1.356 . S
N1396 C1388 1.356 . S
N1396 H1402 0.984 . S
N1396 H1403 0.984 . S
N1397 C1390 1.356 . S
N1397 H1400 0.984 . S
N1397 H1401 0.985 . S
H1398 N1393 0.984 . S
H1399 N1393 0.985 . S
H1400 N1397 0.984 . S
H1401 N1397 0.985 . S
H1402 N1396 0.984 . S
H1403 N1396 0.984 . S
H1404 N1392 0.984 . S
H1405 N1392 0.985 . S
C1406 C1407 1.363 . S
C1406 C1412 1.379 . S
C1406 N1414 1.356 . S
C1407 C1406 1.363 . S
C1407 C1413 1.363 . S
C1408 C1409 1.363 . S
C1408 C1413 1.379 . S
C1408 N1415 1.356 . S
C1409 C1408 1.363 . S
C1409 C1412 1.363 . S
N1410 C1412 1.356 . S
N1410 H1422 0.984 . S
N1410 H1423 0.985 . S
N1411 C1413 1.356 . S
N1411 H1416 0.984 . S
N1411 H1417 0.985 . S
C1412 C1406 1.379 . S
C1412 C1409 1.363 . S
C1412 N1410 1.356 . S
C1413 C1407 1.363 . S
C1413 C1408 1.379 . S
C1413 N1411 1.356 . S
N1414 C1406 1.356 . S
N1414 H1420 0.984 . S
N1414 H1421 0.984 . S
N1415 C1408 1.356 . S
N1415 H1418 0.984 1_556 S
N1415 H1419 0.985 1_556 S
H1416 N1411 0.984 . S
H1417 N1411 0.985 . S
H1418 N1415 0.984 1_554 S
H1419 N1415 0.985 1_554 S
H1420 N1414 0.984 . S
H1421 N1414 0.984 . S
H1422 N1410 0.984 . S
H1423 N1410 0.985 . S
C1424 C1425 1.363 . S
C1424 C1430 1.379 . S
C1424 N1432 1.356 . S
C1425 C1424 1.363 . S
C1425 C1431 1.363 . S
C1426 C1427 1.363 . S
C1426 C1431 1.379 . S
C1426 N1433 1.356 . S
C1427 C1426 1.363 . S
C1427 C1430 1.363 . S
N1428 C1430 1.356 . S
N1428 H1440 0.984 . S
N1428 H1441 0.985 . S
N1429 C1431 1.356 . S
N1429 H1434 0.984 . S
N1429 H1435 0.985 . S
C1430 C1424 1.379 . S
C1430 C1427 1.363 . S
C1430 N1428 1.356 . S
C1431 C1425 1.363 . S
C1431 C1426 1.379 . S
C1431 N1429 1.356 . S
N1432 C1424 1.356 . S
N1432 H1438 0.984 . S
N1432 H1439 0.984 1_556 S
N1433 C1426 1.356 . S
N1433 H1436 0.984 . S
N1433 H1437 0.985 . S
H1434 N1429 0.984 . S
H1435 N1429 0.985 . S
H1436 N1433 0.984 . S
H1437 N1433 0.985 . S
H1438 N1432 0.984 . S
H1439 N1432 0.984 1_554 S
H1440 N1428 0.984 . S
H1441 N1428 0.985 . S
C1442 C1443 1.363 . S
C1442 C1448 1.379 . S
C1442 N1450 1.356 . S
C1443 C1442 1.363 . S
C1443 C1449 1.363 . S
C1444 C1445 1.363 . S
C1444 C1449 1.379 . S
C1444 N1451 1.356 1_554 S
C1445 C1444 1.363 . S
C1445 C1448 1.363 . S
N1446 C1448 1.356 . S
N1446 H1458 0.984 . S
N1446 H1459 0.985 . S
N1447 C1449 1.356 . S
N1447 H1452 0.984 . S
N1447 H1453 0.985 . S
C1448 C1442 1.379 . S
C1448 C1445 1.363 . S
C1448 N1446 1.356 . S
C1449 C1443 1.363 . S
C1449 C1444 1.379 . S
C1449 N1447 1.356 . S
N1450 C1442 1.356 . S
N1450 H1456 0.984 . S
N1450 H1457 0.984 . S
N1451 C1444 1.356 1_556 S
N1451 H1454 0.984 . S
N1451 H1455 0.985 . S
H1452 N1447 0.984 . S
H1453 N1447 0.985 . S
H1454 N1451 0.984 . S
H1455 N1451 0.985 . S
H1456 N1450 0.984 . S
H1457 N1450 0.984 . S
H1458 N1446 0.984 . S
H1459 N1446 0.985 . S
C1460 C1461 1.363 . S
C1460 C1466 1.379 . S
C1460 N1468 1.356 . S
C1461 C1460 1.363 . S
C1461 C1467 1.363 . S
C1462 C1463 1.363 . S
C1462 C1467 1.379 . S
C1462 N1469 1.356 . S
C1463 C1462 1.363 . S
C1463 C1466 1.363 . S
N1464 C1466 1.356 . S
N1464 H1476 0.984 . S
N1464 H1477 0.985 . S
N1465 C1467 1.356 . S
N1465 H1470 0.984 . S
N1465 H1471 0.985 . S
C1466 C1460 1.379 . S
C1466 C1463 1.363 . S
C1466 N1464 1.356 . S
C1467 C1461 1.363 . S
C1467 C1462 1.379 . S
C1467 N1465 1.356 . S
N1468 C1460 1.356 . S
N1468 H1474 0.984 . S
N1468 H1475 0.984 . S
N1469 C1462 1.356 . S
N1469 H1472 0.984 . S
N1469 H1473 0.985 . S
H1470 N1465 0.984 . S
H1471 N1465 0.985 . S
H1472 N1469 0.984 . S
H1473 N1469 0.985 . S
H1474 N1468 0.984 . S
H1475 N1468 0.984 . S
H1476 N1464 0.984 . S
H1477 N1464 0.985 . S
C1478 C1479 1.363 . S
C1478 C1484 1.379 . S
C1478 N1486 1.356 . S
C1479 C1478 1.363 . S
C1479 C1485 1.363 . S
C1480 C1481 1.363 . S
C1480 C1485 1.379 . S
C1480 N1487 1.356 . S
C1481 C1480 1.363 . S
C1481 C1484 1.363 . S
N1482 C1484 1.356 . S
N1482 H1494 0.984 . S
N1482 H1495 0.985 . S
N1483 C1485 1.356 . S
N1483 H1488 0.984 . S
N1483 H1489 0.985 . S
C1484 C1478 1.379 . S
C1484 C1481 1.363 . S
C1484 N1482 1.356 . S
C1485 C1479 1.363 . S
C1485 C1480 1.379 . S
C1485 N1483 1.356 . S
N1486 C1478 1.356 . S
N1486 H1492 0.984 . S
N1486 H1493 0.984 . S
N1487 C1480 1.356 . S
N1487 H1490 0.984 . S
N1487 H1491 0.985 . S
H1488 N1483 0.984 . S
H1489 N1483 0.985 . S
H1490 N1487 0.984 . S
H1491 N1487 0.985 . S
H1492 N1486 0.984 . S
H1493 N1486 0.984 . S
H1494 N1482 0.984 . S
H1495 N1482 0.985 . S
C1496 C1497 1.363 . S
C1496 C1502 1.379 . S
C1496 N1504 1.356 . S
C1497 C1496 1.363 . S
C1497 C1503 1.363 . S
C1498 C1499 1.363 . S
C1498 C1503 1.379 . S
C1498 N1505 1.356 . S
C1499 C1498 1.363 . S
C1499 C1502 1.363 . S
N1500 C1502 1.356 . S
N1500 H1512 0.984 . S
N1500 H1513 0.985 . S
N1501 C1503 1.356 . S
N1501 H1506 0.984 . S
N1501 H1507 0.985 . S
C1502 C1496 1.379 . S
C1502 C1499 1.363 . S
C1502 N1500 1.356 . S
C1503 C1497 1.363 . S
C1503 C1498 1.379 . S
C1503 N1501 1.356 . S
N1504 C1496 1.356 . S
N1504 H1510 0.984 . S
N1504 H1511 0.984 . S
N1505 C1498 1.356 . S
N1505 H1508 0.984 . S
N1505 H1509 0.985 . S
H1506 N1501 0.984 . S
H1507 N1501 0.985 . S
H1508 N1505 0.984 . S
H1509 N1505 0.985 . S
H1510 N1504 0.984 . S
H1511 N1504 0.984 . S
H1512 N1500 0.984 . S
H1513 N1500 0.985 . S
C1514 C1515 1.363 . S
C1514 C1520 1.379 . S
C1514 N1522 1.356 . S
C1515 C1514 1.363 . S
C1515 C1521 1.363 . S
C1516 C1517 1.363 . S
C1516 C1521 1.379 . S
C1516 N1523 1.356 . S
C1517 C1516 1.363 . S
C1517 C1520 1.363 . S
N1518 C1520 1.356 . S
N1518 H1530 0.984 . S
N1518 H1531 0.985 . S
N1519 C1521 1.356 1_554 S
N1519 H1524 0.984 . S
N1519 H1525 0.985 . S
C1520 C1514 1.379 . S
C1520 C1517 1.363 . S
C1520 N1518 1.356 . S
C1521 C1515 1.363 . S
C1521 C1516 1.379 . S
C1521 N1519 1.356 1_556 S
N1522 C1514 1.356 . S
N1522 H1528 0.984 . S
N1522 H1529 0.984 . S
N1523 C1516 1.356 . S
N1523 H1526 0.984 . S
N1523 H1527 0.985 . S
H1524 N1519 0.984 . S
H1525 N1519 0.985 . S
H1526 N1523 0.984 . S
H1527 N1523 0.985 . S
H1528 N1522 0.984 . S
H1529 N1522 0.984 . S
H1530 N1518 0.984 . S
H1531 N1518 0.985 . S
C1532 C1533 1.363 . S
C1532 C1538 1.379 . S
C1532 N1540 1.356 . S
C1533 C1532 1.363 . S
C1533 C1539 1.363 . S
C1534 C1535 1.363 . S
C1534 C1539 1.379 . S
C1534 N1541 1.356 . S
C1535 C1534 1.363 . S
C1535 C1538 1.363 . S
N1536 C1538 1.356 . S
N1536 H1548 0.984 . S
N1536 H1549 0.985 . S
N1537 C1539 1.356 . S
N1537 H1542 0.984 . S
N1537 H1543 0.985 . S
C1538 C1532 1.379 . S
C1538 C1535 1.363 . S
C1538 N1536 1.356 . S
C1539 C1533 1.363 . S
C1539 C1534 1.379 . S
C1539 N1537 1.356 . S
N1540 C1532 1.356 . S
N1540 H1546 0.984 . S
N1540 H1547 0.984 . S
N1541 C1534 1.356 . S
N1541 H1544 0.984 . S
N1541 H1545 0.985 . S
H1542 N1537 0.984 . S
H1543 N1537 0.985 . S
H1544 N1541 0.984 . S
H1545 N1541 0.985 . S
H1546 N1540 0.984 . S
H1547 N1540 0.984 . S
H1548 N1536 0.984 . S
H1549 N1536 0.985 . S
C1550 C1551 1.363 . S
C1550 C1556 1.379 . S
C1550 N1558 1.356 . S
C1551 C1550 1.363 . S
C1551 C1557 1.363 . S
C1552 C1553 1.363 . S
C1552 C1557 1.379 . S
C1552 N1559 1.356 . S
C1553 C1552 1.363 . S
C1553 C1556 1.363 . S
N1554 C1556 1.356 . S
N1554 H1566 0.984 . S
N1554 H1567 0.985 . S
N1555 C1557 1.356 . S
N1555 H1560 0.984 . S
N1555 H1561 0.985 . S
C1556 C1550 1.379 . S
C1556 C1553 1.363 . S
C1556 N1554 1.356 . S
C1557 C1551 1.363 . S
C1557 C1552 1.379 . S
C1557 N1555 1.356 . S
N1558 C1550 1.356 . S
N1558 H1564 0.984 . S
N1558 H1565 0.984 . S
N1559 C1552 1.356 . S
N1559 H1562 0.984 . S
N1559 H1563 0.985 . S
H1560 N1555 0.984 . S
H1561 N1555 0.985 . S
H1562 N1559 0.984 . S
H1563 N1559 0.985 . S
H1564 N1558 0.984 . S
H1565 N1558 0.984 . S
H1566 N1554 0.984 . S
H1567 N1554 0.985 . S
C417 C83 1.454 . S
C419 C5 1.454 . S
C435 C18 1.454 . S
C437 C96 1.454 . S
C453 C57 1.454 . S
C455 C31 1.454 . S
C471 C44 1.454 . S
C473 C70 1.454 . S
C489 C109 1.454 . S
C491 C187 1.454 . S
C507 C200 1.454 . S
C509 C122 1.454 . S
C525 C135 1.454 . S
C527 C161 1.454 . S
C543 C174 1.454 . S
C545 C148 1.454 . S
C561 C213 1.454 . S
C563 C291 1.454 . S
C579 C226 1.454 . S
C581 C304 1.454 . S
C597 C265 1.454 . S
C599 C239 1.454 . S
C615 C278 1.454 . S
C617 C252 1.454 . S
C633 C317 1.454 . S
C635 C395 1.454 . S
C651 C330 1.454 . S
C653 C408 1.454 . S
C669 C369 1.454 . S
C671 C343 1.454 . S
C687 C356 1.454 . S
C689 C382 1.454 . S
C705 C0 1.500 1_556 S
C707 C91 1.500 . S
C723 C52 1.500 1_554 S
C725 C13 1.500 . S
C741 C65 1.500 . S
C743 C26 1.500 . S
C759 C39 1.500 . S
C761 C78 1.500 . S
C777 C104 1.500 1_554 S
C779 C195 1.500 . S
C795 C156 1.500 1_556 S
C797 C117 1.500 . S
C813 C169 1.500 . S
C815 C130 1.500 . S
C831 C182 1.500 . S
C833 C143 1.500 . S
C849 C208 1.500 . S
C851 C299 1.500 . S
C867 C221 1.500 . S
C869 C260 1.500 . S
C885 C273 1.500 . S
C887 C234 1.500 1_556 S
C903 C247 1.500 . S
C905 C286 1.500 1_554 S
C921 C312 1.500 . S
C923 C403 1.500 . S
C939 C364 1.500 . S
C941 C325 1.500 . S
C957 C338 1.500 1_554 S
C959 C377 1.500 . S
C975 C351 1.500 . S
C977 C390 1.500 1_556 S
C993 C400 1.455 . S
C995 C10 1.455 . S
C1011 C205 1.455 . S
C1013 C23 1.455 . S
C1029 C36 1.455 . S
C1031 C374 1.455 . S
C1047 C49 1.455 . S
C1049 C179 1.455 . S
C1065 C62 1.455 . S
C1067 C348 1.455 . S
C1083 C75 1.455 . S
C1085 C153 1.455 . S
C1101 C88 1.455 . S
C1103 C322 1.455 . S
C1119 C127 1.455 . S
C1121 C101 1.455 . S
C1137 C296 1.455 . S
C1139 C114 1.455 . S
C1155 C140 1.455 . S
C1157 C270 1.455 . S
C1173 C244 1.455 . S
C1175 C166 1.455 . S
C1191 C218 1.455 . S
C1193 C192 1.455 . S
C1209 C231 1.455 . S
C1211 C413 1.455 . S
C1227 C257 1.455 . S
C1229 C387 1.455 . S
C1245 C283 1.455 . S
C1247 C361 1.455 . S
C1263 C335 1.455 . S
C1265 C309 1.455 . S
C1281 C8 1.142 . S
C1283 C99 1.142 . S
C1299 C21 1.142 . S
C1301 C60 1.142 . S
C1317 C73 1.142 . S
C1319 C34 1.142 . S
C1335 C47 1.142 . S
C1337 C86 1.142 . S
C1353 C203 1.142 . S
C1355 C112 1.142 . S
C1371 C164 1.142 . S
C1373 C125 1.142 . S
C1389 C138 1.142 . S
C1391 C177 1.142 . S
C1407 C190 1.142 . S
C1409 C151 1.142 . S
C1425 C307 1.142 . S
C1427 C216 1.142 . S
C1443 C268 1.142 . S
C1445 C229 1.142 . S
C1461 C281 1.142 . S
C1463 C242 1.142 . S
C1479 C294 1.142 . S
C1481 C255 1.142 . S
C1497 C320 1.142 . S
C1499 C411 1.142 . S
C1515 C333 1.142 . S
C1517 C372 1.142 . S
C1533 C346 1.142 . S
C1535 C385 1.142 . S
C1551 C398 1.142 . S
C1553 C359 1.142 . S
