# Generated by pormake.
# Topology vcc, (6)-cn, num edge types: 1
# Building blocks:
#     Node 0, Type 0, BuildingBlock: MIFKUJ_clean_sbu_0, # of connection points: 6
#     Node 1, Type 0, BuildingBlock: MIFKUJ_clean_sbu_0, # of connection points: 6
#     Node 2, Type 0, BuildingBlock: MIFKUJ_clean_sbu_0, # of connection points: 6
#     Node 3, Type 0, BuildingBlock: MIFKUJ_clean_sbu_0, # of connection points: 6
#     Node 4, Type 0, BuildingBlock: MIFKUJ_clean_sbu_0, # of connection points: 6
#     Node 5, Type 0, BuildingBlock: MIFKUJ_clean_sbu_0, # of connection points: 6
#     Node 6, Type 0, BuildingBlock: MIFKUJ_clean_sbu_0, # of connection points: 6
#     Node 7, Type 0, BuildingBlock: MIFKUJ_clean_sbu_0, # of connection points: 6
#     Node 8, Type 0, BuildingBlock: MIFKUJ_clean_sbu_0, # of connection points: 6
#     Node 9, Type 0, BuildingBlock: MIFKUJ_clean_sbu_0, # of connection points: 6
#     Node 10, Type 0, BuildingBlock: MIFKUJ_clean_sbu_0, # of connection points: 6
#     Node 11, Type 0, BuildingBlock: MIFKUJ_clean_sbu_0, # of connection points: 6
#     Node 12, Type 0, BuildingBlock: MIFKUJ_clean_sbu_0, # of connection points: 6
#     Node 13, Type 0, BuildingBlock: MIFKUJ_clean_sbu_0, # of connection points: 6
#     Node 14, Type 0, BuildingBlock: MIFKUJ_clean_sbu_0, # of connection points: 6
#     Node 15, Type 0, BuildingBlock: MIFKUJ_clean_sbu_0, # of connection points: 6
#     Node 16, Type 0, BuildingBlock: MIFKUJ_clean_sbu_0, # of connection points: 6
#     Node 17, Type 0, BuildingBlock: MIFKUJ_clean_sbu_0, # of connection points: 6
#     Node 18, Type 0, BuildingBlock: MIFKUJ_clean_sbu_0, # of connection points: 6
#     Node 19, Type 0, BuildingBlock: MIFKUJ_clean_sbu_0, # of connection points: 6
#     Node 20, Type 0, BuildingBlock: MIFKUJ_clean_sbu_0, # of connection points: 6
#     Node 21, Type 0, BuildingBlock: MIFKUJ_clean_sbu_0, # of connection points: 6
#     Node 22, Type 0, BuildingBlock: MIFKUJ_clean_sbu_0, # of connection points: 6
#     Node 23, Type 0, BuildingBlock: MIFKUJ_clean_sbu_0, # of connection points: 6
#     Node 24, Type 0, BuildingBlock: MIFKUJ_clean_sbu_0, # of connection points: 6
#     Node 25, Type 0, BuildingBlock: MIFKUJ_clean_sbu_0, # of connection points: 6
#     Node 26, Type 0, BuildingBlock: MIFKUJ_clean_sbu_0, # of connection points: 6
#     Node 27, Type 0, BuildingBlock: MIFKUJ_clean_sbu_0, # of connection points: 6
#     Node 28, Type 0, BuildingBlock: MIFKUJ_clean_sbu_0, # of connection points: 6
#     Node 29, Type 0, BuildingBlock: MIFKUJ_clean_sbu_0, # of connection points: 6
#     Node 30, Type 0, BuildingBlock: MIFKUJ_clean_sbu_0, # of connection points: 6
#     Node 31, Type 0, BuildingBlock: MIFKUJ_clean_sbu_0, # of connection points: 6
#     Edge 32, Type (0, 0), BuildingBlock: XIVTED_clean_linker_0, # of connection points: 2
#     Edge 33, Type (0, 0), BuildingBlock: XIVTED_clean_linker_0, # of connection points: 2
#     Edge 34, Type (0, 0), BuildingBlock: XIVTED_clean_linker_0, # of connection points: 2
#     Edge 35, Type (0, 0), BuildingBlock: XIVTED_clean_linker_0, # of connection points: 2
#     Edge 36, Type (0, 0), BuildingBlock: XIVTED_clean_linker_0, # of connection points: 2
#     Edge 37, Type (0, 0), BuildingBlock: XIVTED_clean_linker_0, # of connection points: 2
#     Edge 38, Type (0, 0), BuildingBlock: XIVTED_clean_linker_0, # of connection points: 2
#     Edge 39, Type (0, 0), BuildingBlock: XIVTED_clean_linker_0, # of connection points: 2
#     Edge 40, Type (0, 0), BuildingBlock: XIVTED_clean_linker_0, # of connection points: 2
#     Edge 41, Type (0, 0), BuildingBlock: XIVTED_clean_linker_0, # of connection points: 2
#     Edge 42, Type (0, 0), BuildingBlock: XIVTED_clean_linker_0, # of connection points: 2
#     Edge 43, Type (0, 0), BuildingBlock: XIVTED_clean_linker_0, # of connection points: 2
#     Edge 44, Type (0, 0), BuildingBlock: XIVTED_clean_linker_0, # of connection points: 2
#     Edge 45, Type (0, 0), BuildingBlock: XIVTED_clean_linker_0, # of connection points: 2
#     Edge 46, Type (0, 0), BuildingBlock: XIVTED_clean_linker_0, # of connection points: 2
#     Edge 47, Type (0, 0), BuildingBlock: XIVTED_clean_linker_0, # of connection points: 2
#     Edge 48, Type (0, 0), BuildingBlock: XIVTED_clean_linker_0, # of connection points: 2
#     Edge 49, Type (0, 0), BuildingBlock: XIVTED_clean_linker_0, # of connection points: 2
#     Edge 50, Type (0, 0), BuildingBlock: XIVTED_clean_linker_0, # of connection points: 2
#     Edge 51, Type (0, 0), BuildingBlock: XIVTED_clean_linker_0, # of connection points: 2
#     Edge 52, Type (0, 0), BuildingBlock: XIVTED_clean_linker_0, # of connection points: 2
#     Edge 53, Type (0, 0), BuildingBlock: XIVTED_clean_linker_0, # of connection points: 2
#     Edge 54, Type (0, 0), BuildingBlock: XIVTED_clean_linker_0, # of connection points: 2
#     Edge 55, Type (0, 0), BuildingBlock: XIVTED_clean_linker_0, # of connection points: 2
#     Edge 56, Type (0, 0), BuildingBlock: XIVTED_clean_linker_0, # of connection points: 2
#     Edge 57, Type (0, 0), BuildingBlock: XIVTED_clean_linker_0, # of connection points: 2
#     Edge 58, Type (0, 0), BuildingBlock: XIVTED_clean_linker_0, # of connection points: 2
#     Edge 59, Type (0, 0), BuildingBlock: XIVTED_clean_linker_0, # of connection points: 2
#     Edge 60, Type (0, 0), BuildingBlock: XIVTED_clean_linker_0, # of connection points: 2
#     Edge 61, Type (0, 0), BuildingBlock: XIVTED_clean_linker_0, # of connection points: 2
#     Edge 62, Type (0, 0), BuildingBlock: XIVTED_clean_linker_0, # of connection points: 2
#     Edge 63, Type (0, 0), BuildingBlock: XIVTED_clean_linker_0, # of connection points: 2
#     Edge 64, Type (0, 0), BuildingBlock: XIVTED_clean_linker_0, # of connection points: 2
#     Edge 65, Type (0, 0), BuildingBlock: XIVTED_clean_linker_0, # of connection points: 2
#     Edge 66, Type (0, 0), BuildingBlock: XIVTED_clean_linker_0, # of connection points: 2
#     Edge 67, Type (0, 0), BuildingBlock: XIVTED_clean_linker_0, # of connection points: 2
#     Edge 68, Type (0, 0), BuildingBlock: XIVTED_clean_linker_0, # of connection points: 2
#     Edge 69, Type (0, 0), BuildingBlock: XIVTED_clean_linker_0, # of connection points: 2
#     Edge 70, Type (0, 0), BuildingBlock: XIVTED_clean_linker_0, # of connection points: 2
#     Edge 71, Type (0, 0), BuildingBlock: XIVTED_clean_linker_0, # of connection points: 2
#     Edge 72, Type (0, 0), BuildingBlock: XIVTED_clean_linker_0, # of connection points: 2
#     Edge 73, Type (0, 0), BuildingBlock: XIVTED_clean_linker_0, # of connection points: 2
#     Edge 74, Type (0, 0), BuildingBlock: XIVTED_clean_linker_0, # of connection points: 2
#     Edge 75, Type (0, 0), BuildingBlock: XIVTED_clean_linker_0, # of connection points: 2
#     Edge 76, Type (0, 0), BuildingBlock: XIVTED_clean_linker_0, # of connection points: 2
#     Edge 77, Type (0, 0), BuildingBlock: XIVTED_clean_linker_0, # of connection points: 2
#     Edge 78, Type (0, 0), BuildingBlock: XIVTED_clean_linker_0, # of connection points: 2
#     Edge 79, Type (0, 0), BuildingBlock: XIVTED_clean_linker_0, # of connection points: 2
#     Edge 80, Type (0, 0), BuildingBlock: XIVTED_clean_linker_0, # of connection points: 2
#     Edge 81, Type (0, 0), BuildingBlock: XIVTED_clean_linker_0, # of connection points: 2
#     Edge 82, Type (0, 0), BuildingBlock: XIVTED_clean_linker_0, # of connection points: 2
#     Edge 83, Type (0, 0), BuildingBlock: XIVTED_clean_linker_0, # of connection points: 2
#     Edge 84, Type (0, 0), BuildingBlock: XIVTED_clean_linker_0, # of connection points: 2
#     Edge 85, Type (0, 0), BuildingBlock: XIVTED_clean_linker_0, # of connection points: 2
#     Edge 86, Type (0, 0), BuildingBlock: XIVTED_clean_linker_0, # of connection points: 2
#     Edge 87, Type (0, 0), BuildingBlock: XIVTED_clean_linker_0, # of connection points: 2
#     Edge 88, Type (0, 0), BuildingBlock: XIVTED_clean_linker_0, # of connection points: 2
#     Edge 89, Type (0, 0), BuildingBlock: XIVTED_clean_linker_0, # of connection points: 2
#     Edge 90, Type (0, 0), BuildingBlock: XIVTED_clean_linker_0, # of connection points: 2
#     Edge 91, Type (0, 0), BuildingBlock: XIVTED_clean_linker_0, # of connection points: 2
#     Edge 92, Type (0, 0), BuildingBlock: XIVTED_clean_linker_0, # of connection points: 2
#     Edge 93, Type (0, 0), BuildingBlock: XIVTED_clean_linker_0, # of connection points: 2
#     Edge 94, Type (0, 0), BuildingBlock: XIVTED_clean_linker_0, # of connection points: 2
#     Edge 95, Type (0, 0), BuildingBlock: XIVTED_clean_linker_0, # of connection points: 2
#     Edge 96, Type (0, 0), BuildingBlock: XIVTED_clean_linker_0, # of connection points: 2
#     Edge 97, Type (0, 0), BuildingBlock: XIVTED_clean_linker_0, # of connection points: 2
#     Edge 98, Type (0, 0), BuildingBlock: XIVTED_clean_linker_0, # of connection points: 2
#     Edge 99, Type (0, 0), BuildingBlock: XIVTED_clean_linker_0, # of connection points: 2
#     Edge 100, Type (0, 0), BuildingBlock: XIVTED_clean_linker_0, # of connection points: 2
#     Edge 101, Type (0, 0), BuildingBlock: XIVTED_clean_linker_0, # of connection points: 2
#     Edge 102, Type (0, 0), BuildingBlock: XIVTED_clean_linker_0, # of connection points: 2
#     Edge 103, Type (0, 0), BuildingBlock: XIVTED_clean_linker_0, # of connection points: 2
#     Edge 104, Type (0, 0), BuildingBlock: XIVTED_clean_linker_0, # of connection points: 2
#     Edge 105, Type (0, 0), BuildingBlock: XIVTED_clean_linker_0, # of connection points: 2
#     Edge 106, Type (0, 0), BuildingBlock: XIVTED_clean_linker_0, # of connection points: 2
#     Edge 107, Type (0, 0), BuildingBlock: XIVTED_clean_linker_0, # of connection points: 2
#     Edge 108, Type (0, 0), BuildingBlock: XIVTED_clean_linker_0, # of connection points: 2
#     Edge 109, Type (0, 0), BuildingBlock: XIVTED_clean_linker_0, # of connection points: 2
#     Edge 110, Type (0, 0), BuildingBlock: XIVTED_clean_linker_0, # of connection points: 2
#     Edge 111, Type (0, 0), BuildingBlock: XIVTED_clean_linker_0, # of connection points: 2
#     Edge 112, Type (0, 0), BuildingBlock: XIVTED_clean_linker_0, # of connection points: 2
#     Edge 113, Type (0, 0), BuildingBlock: XIVTED_clean_linker_0, # of connection points: 2
#     Edge 114, Type (0, 0), BuildingBlock: XIVTED_clean_linker_0, # of connection points: 2
#     Edge 115, Type (0, 0), BuildingBlock: XIVTED_clean_linker_0, # of connection points: 2
#     Edge 116, Type (0, 0), BuildingBlock: XIVTED_clean_linker_0, # of connection points: 2
#     Edge 117, Type (0, 0), BuildingBlock: XIVTED_clean_linker_0, # of connection points: 2
#     Edge 118, Type (0, 0), BuildingBlock: XIVTED_clean_linker_0, # of connection points: 2
#     Edge 119, Type (0, 0), BuildingBlock: XIVTED_clean_linker_0, # of connection points: 2
#     Edge 120, Type (0, 0), BuildingBlock: XIVTED_clean_linker_0, # of connection points: 2
#     Edge 121, Type (0, 0), BuildingBlock: XIVTED_clean_linker_0, # of connection points: 2
#     Edge 122, Type (0, 0), BuildingBlock: XIVTED_clean_linker_0, # of connection points: 2
#     Edge 123, Type (0, 0), BuildingBlock: XIVTED_clean_linker_0, # of connection points: 2
#     Edge 124, Type (0, 0), BuildingBlock: XIVTED_clean_linker_0, # of connection points: 2
#     Edge 125, Type (0, 0), BuildingBlock: XIVTED_clean_linker_0, # of connection points: 2
#     Edge 126, Type (0, 0), BuildingBlock: XIVTED_clean_linker_0, # of connection points: 2
#     Edge 127, Type (0, 0), BuildingBlock: XIVTED_clean_linker_0, # of connection points: 2
# Relax obj value: 0.069
# Max RMSD: 0.137
# Mean RMSD: 0.137
data_MOF--net-vcc--node1-MIFKUJ_clean_sbu_0--edge1-XIVTED_clean_linker_0
_symmetry_space_group_name_H-M    P1
_symmetry_Int_Tables_number       1
_symmetry_cell_setting            triclinic
loop_
_symmetry_equiv_pos_as_xyz
'x, y, z'
_cell_length_a     49.036233
_cell_length_b     53.983434
_cell_length_c     46.601559
_cell_angle_alpha  89.949897
_cell_angle_beta   89.803286
_cell_angle_gamma 89.987621
loop_
_atom_site_label
_atom_site_type_symbol
_atom_site_fract_x
_atom_site_fract_y
_atom_site_fract_z
_atom_type_partial_charge
Zn0 Zn 0.32775 0.99527 0.10189 0.0
Zn1 Zn 0.35302 0.00575 0.04343 0.0
C2 C 0.37096 0.97716 0.13601 0.0
O3 O 0.35423 0.95814 0.13625 0.0
C4 C 0.30173 0.02011 0.02059 0.0
O5 O 0.31565 0.04064 0.01677 0.0
O6 O 0.30203 0.98899 0.13459 0.0
O7 O 0.31884 0.02946 0.08699 0.0
O8 O 0.35938 0.03552 0.0681 0.0
C9 C 0.30447 0.00339 0.15599 0.0
O10 O 0.32194 0.02181 0.15446 0.0
O11 O 0.3647 -0.00385 0.12125 0.0
C12 C 0.36668 0.99162 0.98844 0.0
O13 O 0.3538 0.97221 0.99879 0.0
O14 O 0.37052 0.01018 0.00472 0.0
O15 O 0.36751 0.97411 0.05944 0.0
O16 O 0.32687 0.96514 0.07623 0.0
O17 O 0.313 0.00205 0.03346 0.0
C18 C 0.33877 0.04376 0.08156 0.0
C19 C 0.34999 0.95808 0.06697 0.0
Zn20 Zn 0.94584 0.24998 0.10083 0.0
Zn21 Zn 0.92807 0.23893 0.03349 0.0
C22 C 0.89818 0.2643 0.12976 0.0
O23 O 0.91327 0.28434 0.13163 0.0
C24 C 0.97812 0.22355 0.01101 0.0
O25 O 0.96334 0.20329 0.00951 0.0
O26 O 0.96787 0.25475 0.13689 0.0
O27 O 0.95828 0.21794 0.08284 0.0
O28 O 0.92128 0.20962 0.05836 0.0
C29 C 0.9647 0.23801 0.15585 0.0
O30 O 0.94919 0.21886 0.1499 0.0
O31 O 0.90742 0.24575 0.11603 0.0
C32 C 0.91331 0.25219 0.97829 0.0
O33 O 0.92537 0.27225 0.98791 0.0
O34 O 0.91056 0.23377 0.99506 0.0
O35 O 0.91201 0.26989 0.04945 0.0
O36 O 0.94592 0.28165 0.07733 0.0
O37 O 0.96797 0.24252 0.0232 0.0
C38 C 0.93947 0.20292 0.076 0.0
C39 C 0.92432 0.28662 0.06342 0.0
Zn40 Zn 0.33593 0.24159 0.13827 0.0
Zn41 Zn 0.32821 0.23946 0.22961 0.0
C42 C 0.37496 0.25225 0.09699 0.0
O43 O 0.35646 0.26965 0.09381 0.0
C44 C 0.28476 0.23279 0.26961 0.0
O45 O 0.30438 0.22094 0.28297 0.0
O46 O 0.30446 0.23801 0.11095 0.0
O47 O 0.33286 0.22461 0.17487 0.0
O48 O 0.33274 0.20398 0.21414 0.0
C49 C 0.30705 0.22282 0.09026 0.0
O50 O 0.32848 0.20822 0.08952 0.0
O51 O 0.37127 0.23595 0.11639 0.0
C52 C 0.34864 0.26236 0.28013 0.0
O53 O 0.33219 0.27995 0.27122 0.0
O54 O 0.35213 0.24335 0.26445 0.0
O55 O 0.33549 0.26865 0.20063 0.0
O56 O 0.33794 0.27578 0.15332 0.0
O57 O 0.28953 0.2422 0.24503 0.0
C58 C 0.33337 0.20389 0.18705 0.0
C59 C 0.33907 0.28336 0.17926 0.0
Zn60 Zn 0.9264 0.99123 0.15126 0.0
Zn61 Zn 0.89904 0.00179 0.20857 0.0
C62 C 0.88368 0.97442 0.11619 0.0
O63 O 0.90087 0.95575 0.11574 0.0
C64 C 0.94557 0.00904 0.24353 0.0
O65 O 0.92848 0.02495 0.25504 0.0
O66 O 0.95227 0.98557 0.11856 0.0
O67 O 0.93719 0.0241 0.16821 0.0
O68 O 0.89668 0.03303 0.18556 0.0
C69 C 0.95035 0.00121 0.09827 0.0
O70 O 0.93339 0.01991 0.1011 0.0
O71 O 0.88948 0.99332 0.13134 0.0
C72 C 0.87821 0.98583 0.26113 0.0
O73 O 0.88948 0.96559 0.25089 0.0
O74 O 0.87796 0.00521 0.24559 0.0
O75 O 0.88498 0.97121 0.18948 0.0
O76 O 0.92626 0.96064 0.17603 0.0
O77 O 0.93818 -0.00324 0.22159 0.0
C78 C 0.9189 0.03997 0.17405 0.0
C79 C 0.90223 0.95451 0.18331 0.0
Zn80 Zn 0.66646 0.97883 0.96816 0.0
Zn81 Zn 0.68764 0.988 0.90352 0.0
C82 C 0.71634 0.96446 0.99296 0.0
O83 O 0.70143 0.94446 0.99658 0.0
C84 C 0.6436 0.00543 0.87087 0.0
O85 O 0.66083 0.02406 0.87014 0.0
O86 O 0.64832 0.97557 0.0067 0.0
O87 O 0.65163 0.00968 0.95066 0.0
O88 O 0.68924 0.01923 0.92728 0.0
C89 C 0.65107 0.99483 0.02209 0.0
O90 O 0.66349 0.01423 0.01111 0.0
O91 O 0.70639 0.98246 0.97878 0.0
C92 C 0.70939 0.97577 0.84975 0.0
O93 O 0.693 0.95695 0.85456 0.0
O94 O 0.712 0.99222 0.86908 0.0
O95 O 0.69801 0.95535 0.92159 0.0
O96 O 0.65962 0.94859 0.94466 0.0
O97 O 0.64981 0.98633 0.88554 0.0
C98 C 0.66696 0.02575 0.93905 0.0
C99 C 0.67893 0.94078 0.92895 0.0
Zn100 Zn 0.08618 0.76398 0.96645 0.0
Zn101 Zn 0.06295 0.75274 0.90521 0.0
C102 C 0.03741 0.78371 0.99017 0.0
O103 O 0.05355 0.80308 0.99187 0.0
C104 C 0.1069 0.73262 0.87399 0.0
O105 O 0.0895 0.71412 0.8739 0.0
O106 O 0.10449 0.76868 0.00456 0.0
O107 O 0.09786 0.7303 0.95311 0.0
O108 O 0.05975 0.72217 0.93028 0.0
C109 C 0.09933 0.75078 0.02149 0.0
O110 O 0.08466 0.73214 0.01206 0.0
O111 O 0.04617 0.76424 0.97778 0.0
C112 C 0.04229 0.7639 0.85073 0.0
O113 O 0.05969 0.78211 0.85456 0.0
O114 O 0.03875 0.74827 0.87084 0.0
O115 O 0.0548 0.78706 0.92049 0.0
O116 O 0.0951 0.79225 0.9399 0.0
O117 O 0.10072 0.75228 0.88759 0.0
C118 C 0.08099 0.71468 0.94327 0.0
C119 C 0.07523 0.8008 0.92561 0.0
Zn120 Zn 0.67497 0.74842 0.77604 0.0
Zn121 Zn 0.66332 0.74686 0.86669 0.0
C122 C 0.72028 0.76276 0.74307 0.0
O123 O 0.70275 0.78065 0.73801 0.0
C124 C 0.62545 0.7346 0.90854 0.0
O125 O 0.64486 0.71799 0.91126 0.0
O126 O 0.65194 0.74512 0.74086 0.0
O127 O 0.6665 0.7192 0.80475 0.0
O128 O 0.66276 0.71264 0.8521 0.0
C129 C 0.65655 0.72675 0.72455 0.0
O130 O 0.67388 0.70966 0.73289 0.0
O131 O 0.7136 0.74569 0.76059 0.0
C132 C 0.69302 0.7687 0.91203 0.0
O133 O 0.67078 0.78225 0.91329 0.0
O134 O 0.69529 0.7525 0.89241 0.0
O135 O 0.66595 0.76334 0.83002 0.0
O136 O 0.67011 0.78399 0.79105 0.0
O137 O 0.62809 0.75124 0.88932 0.0
C138 C 0.66227 0.70477 0.82627 0.0
C139 C 0.66736 0.78404 0.81795 0.0
Zn140 Zn 0.07553 -0.00117 0.77973 0.0
Zn141 Zn 0.08741 0.00043 0.87024 0.0
C142 C 0.02995 0.98457 0.74833 0.0
O143 O 0.0477 0.96684 0.74335 0.0
C144 C 0.12685 0.01093 0.91049 0.0
O145 O 0.10855 0.02852 0.91369 0.0
O146 O 0.09731 0.00211 0.74341 0.0
O147 O 0.08607 0.028 0.80765 0.0
O148 O 0.09041 0.03451 0.85491 0.0
C149 C 0.093 0.02112 0.72797 0.0
O150 O 0.07689 0.03864 0.73779 0.0
O151 O 0.0365 0.00189 0.76552 0.0
C152 C 0.05819 0.98087 0.9174 0.0
O153 O 0.07927 0.96584 0.9172 0.0
O154 O 0.0561 -0.00291 0.89773 0.0
O155 O 0.08334 0.98296 0.83426 0.0
O156 O 0.08036 0.96307 0.79472 0.0
O157 O 0.12273 0.99433 0.8916 0.0
C158 C 0.09133 0.04226 0.82902 0.0
C159 C 0.08241 0.96243 0.8217 0.0
Zn160 Zn 0.32477 0.50201 0.6058 0.0
Zn161 Zn 0.3543 0.50885 0.54822 0.0
C162 C 0.36402 0.48386 0.6443 0.0
O163 O 0.34595 0.46589 0.64426 0.0
C164 C 0.3076 0.5144 0.51253 0.0
O165 O 0.32522 0.5283 0.49863 0.0
O166 O 0.29635 0.49743 0.63652 0.0
O167 O 0.31835 0.53598 0.58817 0.0
O168 O 0.35914 0.54068 0.56908 0.0
C169 C 0.2971 0.5125 0.65745 0.0
O170 O 0.31457 0.53095 0.65661 0.0
O171 O 0.36004 0.50264 0.62832 0.0
C172 C 0.37576 0.48894 0.49738 0.0
O173 O 0.36497 0.46919 0.50934 0.0
O174 O 0.37529 0.50934 0.511 0.0
O175 O 0.36764 0.47938 0.56957 0.0
O176 O 0.32571 0.47046 0.58214 0.0
O177 O 0.3147 0.50442 0.53611 0.0
C178 C 0.33825 0.54987 0.58116 0.0
C179 C 0.34976 0.46339 0.57605 0.0
Zn180 Zn 0.94199 0.74898 0.59996 0.0
Zn181 Zn 0.92307 0.73574 0.53399 0.0
C182 C 0.89419 0.76437 0.62861 0.0
O183 O 0.90906 0.78461 0.62934 0.0
C184 C 0.97321 0.72094 0.51032 0.0
O185 O 0.95919 0.70021 0.50964 0.0
O186 O 0.96461 0.75524 0.63516 0.0
O187 O 0.95454 0.71635 0.58366 0.0
O188 O 0.91732 0.70712 0.56006 0.0
C189 C 0.96153 0.7395 0.65523 0.0
O190 O 0.94543 0.72041 0.65096 0.0
O191 O 0.90361 0.74537 0.61586 0.0
C192 C 0.90596 0.74745 0.47932 0.0
O193 O 0.91858 0.76767 0.48766 0.0
O194 O 0.90415 0.72935 0.49666 0.0
O195 O 0.90703 0.76698 0.54923 0.0
O196 O 0.94222 0.77954 0.57471 0.0
O197 O 0.9626 0.7398 0.5223 0.0
C198 C 0.93578 0.70103 0.57767 0.0
C199 C 0.92019 0.78419 0.56145 0.0
Zn200 Zn 0.32199 0.74901 0.63885 0.0
Zn201 Zn 0.32407 0.74179 0.72659 0.0
C202 C 0.36293 0.75764 0.59964 0.0
O203 O 0.3459 0.77629 0.59685 0.0
C204 C 0.27477 0.72315 0.75087 0.0
O205 O 0.2906 0.70377 0.75454 0.0
O206 O 0.29148 0.74891 0.61002 0.0
O207 O 0.31526 0.73048 0.67396 0.0
O208 O 0.33315 0.70885 0.70763 0.0
C209 C 0.29396 0.73369 0.58936 0.0
O210 O 0.31445 0.71802 0.58948 0.0
O211 O 0.3574 0.7409 0.61803 0.0
C212 C 0.33219 0.75454 0.78513 0.0
O213 O 0.30926 0.76643 0.78047 0.0
O214 O 0.34386 0.74335 0.76444 0.0
O215 O 0.33274 0.7734 0.70243 0.0
O216 O 0.32845 0.78245 0.65553 0.0
O217 O 0.28404 0.74175 0.73722 0.0
C218 C 0.32636 0.71053 0.68162 0.0
C219 C 0.33471 0.78846 0.6812 0.0
Zn220 Zn 0.91802 0.4939 0.65546 0.0
Zn221 Zn 0.88754 0.50216 0.7116 0.0
C222 C 0.87761 0.48575 0.6123 0.0
O223 O 0.89673 0.47068 0.60305 0.0
C224 C 0.93341 0.50748 0.74815 0.0
O225 O 0.91646 0.52311 0.76036 0.0
O226 O 0.94566 0.48892 0.62394 0.0
O227 O 0.9284 0.5256 0.67523 0.0
O228 O 0.88666 0.53389 0.6894 0.0
C229 C 0.94712 0.50545 0.60455 0.0
O230 O 0.93204 0.52547 0.60704 0.0
O231 O 0.88158 0.49807 0.6352 0.0
C232 C 0.86483 0.48589 0.76348 0.0
O233 O 0.87517 0.46531 0.75306 0.0
O234 O 0.8657 0.50541 0.7482 0.0
O235 O 0.87404 0.47196 0.69126 0.0
O236 O 0.91581 0.46239 0.67825 0.0
O237 O 0.92612 0.49621 0.72548 0.0
C238 C 0.90961 0.54125 0.68001 0.0
C239 C 0.89184 0.45571 0.68517 0.0
Zn240 Zn 0.65801 0.48203 0.46555 0.0
Zn241 Zn 0.68815 0.49036 0.40738 0.0
C242 C 0.70224 0.47558 0.50438 0.0
O243 O 0.68361 0.46172 0.51678 0.0
C244 C 0.647 0.50694 0.37052 0.0
O245 O 0.66463 0.52524 0.36939 0.0
O246 O 0.63463 0.47941 0.50097 0.0
O247 O 0.64565 0.51239 0.44525 0.0
O248 O 0.68668 0.52243 0.43021 0.0
C249 C 0.63186 0.49928 0.51532 0.0
O250 O 0.64189 0.51999 0.5049 0.0
O251 O 0.69682 0.48594 0.48051 0.0
C252 C 0.71348 0.47704 0.35589 0.0
O253 O 0.69665 0.45844 0.36014 0.0
O254 O 0.71502 0.49391 0.37487 0.0
O255 O 0.69591 0.45723 0.42622 0.0
O256 O 0.65421 0.45151 0.44207 0.0
O257 O 0.65207 0.48846 0.38661 0.0
C258 C 0.6626 0.52876 0.43736 0.0
C259 C 0.67558 0.44304 0.43027 0.0
Zn260 Zn 0.08194 0.25717 0.47113 0.0
Zn261 Zn 0.06047 0.24697 0.40844 0.0
C262 C 0.03183 0.27076 0.49654 0.0
O263 O 0.04639 0.291 0.49972 0.0
C264 C 0.10463 0.23626 0.37084 0.0
O265 O 0.0864 0.2204 0.36152 0.0
O266 O 0.09974 0.26172 0.50951 0.0
O267 O 0.09802 0.22628 0.45451 0.0
O268 O 0.06088 0.21478 0.43174 0.0
C269 C 0.09652 0.24319 0.52602 0.0
O270 O 0.08405 0.22345 0.51608 0.0
O271 O 0.04198 0.25289 0.48223 0.0
C272 C 0.03835 0.26008 0.355 0.0
O273 O 0.05344 0.27952 0.36094 0.0
O274 O 0.03669 0.2427 0.3734 0.0
O275 O 0.04957 0.28042 0.42525 0.0
O276 O 0.0884 0.28731 0.44699 0.0
O277 O 0.09871 0.25013 0.39205 0.0
C278 C 0.0836 0.20938 0.44334 0.0
C279 C 0.06888 0.29509 0.43167 0.0
Zn280 Zn 0.67981 0.25003 0.2772 0.0
Zn281 Zn 0.67363 0.24637 0.36791 0.0
C282 C 0.725 0.26401 0.24497 0.0
O283 O 0.70767 0.28224 0.24093 0.0
C284 C 0.63433 0.23736 0.40901 0.0
O285 O 0.65193 0.21918 0.41194 0.0
O286 O 0.65694 0.24852 0.24158 0.0
O287 O 0.66945 0.22035 0.3047 0.0
O288 O 0.66809 0.2128 0.35206 0.0
C289 C 0.66026 0.22981 0.22542 0.0
O290 O 0.67592 0.2116 0.23423 0.0
O291 O 0.71825 0.24642 0.26176 0.0
C292 C 0.70384 0.26339 0.41536 0.0
O293 O 0.68348 0.27921 0.41563 0.0
O294 O 0.70541 0.24773 0.39504 0.0
O295 O 0.6775 0.26377 0.33191 0.0
O296 O 0.67676 0.28536 0.29348 0.0
O297 O 0.63893 0.25379 0.38999 0.0
C298 C 0.66492 0.20582 0.32608 0.0
C299 C 0.67719 0.28481 0.32052 0.0
Zn300 Zn 0.07549 0.49348 0.28496 0.0
Zn301 Zn 0.08554 0.49616 0.37622 0.0
C302 C 0.03153 0.47999 0.25133 0.0
O303 O 0.04937 0.4621 0.24762 0.0
C304 C 0.12446 0.49691 0.42147 0.0
O305 O 0.10479 0.5099 0.43333 0.0
O306 O 0.0991 0.49521 0.24945 0.0
O307 O 0.08612 0.52274 0.31294 0.0
O308 O 0.09061 0.52991 0.36008 0.0
C309 C 0.09655 0.51445 0.23392 0.0
O310 O 0.08119 0.53271 0.24323 0.0
O311 O 0.03735 0.49747 0.2686 0.0
C312 C 0.05315 0.47826 0.4231 0.0
O313 O 0.0717 0.46069 0.42274 0.0
O314 O 0.05394 0.49504 0.40395 0.0
O315 O 0.08037 0.47805 0.3407 0.0
O316 O 0.07732 0.45789 0.30131 0.0
O317 O 0.12092 0.48796 0.39648 0.0
C318 C 0.09156 0.53729 0.33401 0.0
C319 C 0.07831 0.45745 0.32838 0.0
Zn320 Zn 0.81176 0.98893 0.59983 0.0
Zn321 Zn 0.82682 -0.00086 0.52733 0.0
C322 C 0.85866 0.97748 0.63095 0.0
O323 O 0.84431 0.95695 0.63227 0.0
C324 C 0.77672 0.01591 0.5063 0.0
O325 O 0.79201 0.03585 0.50458 0.0
O326 O 0.78747 0.98534 0.63453 0.0
O327 O 0.79858 0.01723 0.57598 0.0
O328 O 0.83464 0.02872 0.55186 0.0
C329 C 0.79041 0.00159 0.65403 0.0
O330 O 0.80731 0.02008 0.64952 0.0
O331 O 0.84928 -0.00436 0.6166 0.0
C332 C 0.83888 0.98458 0.47213 0.0
O333 O 0.8263 0.9653 0.4832 0.0
O334 O 0.84341 0.00323 0.48808 0.0
O335 O 0.84195 0.96735 0.54329 0.0
O336 O 0.81449 0.95632 0.57914 0.0
O337 O 0.78657 -0.0034 0.51804 0.0
C338 C 0.81675 0.03331 0.57081 0.0
C339 C 0.83316 0.95128 0.56103 0.0
Zn340 Zn 0.43307 0.24727 0.60596 0.0
Zn341 Zn 0.40864 0.24016 0.54381 0.0
C342 C 0.39209 0.25396 0.64943 0.0
O343 O 0.41197 0.26688 0.66082 0.0
C344 C 0.45932 0.22735 0.51969 0.0
O345 O 0.44494 0.20721 0.5151 0.0
O346 O 0.46023 0.25024 0.63809 0.0
O347 O 0.44343 0.21589 0.5853 0.0
O348 O 0.40357 0.20845 0.56599 0.0
C349 C 0.4618 0.23206 0.6554 0.0
O350 O 0.44696 0.21225 0.65055 0.0
O351 O 0.39586 0.24348 0.62524 0.0
C352 C 0.39342 0.25741 0.48974 0.0
O353 O 0.40464 0.2771 0.5013 0.0
O354 O 0.39114 0.23783 0.50479 0.0
O355 O 0.39345 0.27036 0.56294 0.0
O356 O 0.43206 0.2796 0.58437 0.0
O357 O 0.44847 0.24509 0.53358 0.0
C358 C 0.42456 0.20076 0.57914 0.0
C359 C 0.40923 0.28628 0.57407 0.0
Zn360 Zn 0.82162 0.23985 0.65531 0.0
Zn361 Zn 0.84387 0.22926 0.71742 0.0
C362 C 0.86613 0.25886 0.62367 0.0
O363 O 0.84893 0.27753 0.62358 0.0
C364 C 0.79458 0.21377 0.7433 0.0
O365 O 0.80979 0.19386 0.74596 0.0
O366 O 0.79774 0.24577 0.6211 0.0
O367 O 0.81114 0.20646 0.67088 0.0
O368 O 0.84962 0.19884 0.69335 0.0
C369 C 0.80156 0.23156 0.59972 0.0
O370 O 0.8191 0.21327 0.60203 0.0
O371 O 0.85981 0.2394 0.63768 0.0
C372 C 0.86004 0.24455 0.77121 0.0
O373 O 0.84672 0.26378 0.76111 0.0
O374 O 0.863 0.22562 0.75529 0.0
O375 O 0.85759 0.26105 0.70055 0.0
O376 O 0.81806 0.2695 0.681 0.0
O377 O 0.80414 0.23225 0.7296 0.0
C378 C 0.82946 0.19132 0.67873 0.0
C379 C 0.84031 0.27682 0.69188 0.0
Zn380 Zn 0.44251 0.99252 0.65537 0.0
Zn381 Zn 0.42563 0.00299 0.72373 0.0
C382 C 0.39771 0.9863 0.61702 0.0
O383 O 0.41498 0.97002 0.60656 0.0
C384 C 0.47628 0.0163 0.74733 0.0
O385 O 0.46204 0.03677 0.7503 0.0
O386 O 0.46653 0.98838 0.62047 0.0
O387 O 0.45611 0.02316 0.67543 0.0
O388 O 0.41935 0.03305 0.69954 0.0
C389 C 0.46562 0.00588 0.60219 0.0
O390 O 0.45069 0.02548 0.60793 0.0
O391 O 0.40435 -0.00145 0.6393 0.0
C392 C 0.41093 0.98886 0.77854 0.0
O393 O 0.42228 0.9688 0.76791 0.0
O394 O 0.40851 0.00781 0.76254 0.0
O395 O 0.40873 0.9722 0.70767 0.0
O396 O 0.4411 0.96022 0.67755 0.0
O397 O 0.46565 -0.00174 0.73382 0.0
C398 C 0.43799 0.03898 0.68193 0.0
C399 C 0.42044 0.95537 0.69314 0.0
Zn400 Zn 0.17512 0.99487 0.47409 0.0
Zn401 Zn 0.16647 -0.0018 0.38314 0.0
C402 C 0.21761 0.99262 0.51661 0.0
O403 O 0.19749 0.98272 0.5313 0.0
C404 C 0.12782 -0.00212 0.3374 0.0
O405 O 0.14769 0.01005 0.32474 0.0
O406 O 0.14952 -0.00211 0.50764 0.0
O407 O 0.16605 0.02326 0.44479 0.0
O408 O 0.16245 0.03263 0.39826 0.0
C409 C 0.14833 0.01833 0.5211 0.0
O410 O 0.16145 0.03761 0.51076 0.0
O411 O 0.21346 -0.00069 0.49072 0.0
C412 C 0.19854 0.97825 0.33733 0.0
O413 O 0.17921 0.96141 0.33783 0.0
O414 O 0.19817 0.99547 0.35591 0.0
O415 O 0.17092 0.9798 0.41884 0.0
O416 O 0.1727 0.95924 0.45818 0.0
O417 O 0.13113 0.99012 0.36295 0.0
C418 C 0.1611 0.03885 0.42467 0.0
C419 C 0.17163 0.95903 0.43108 0.0
Zn420 Zn 0.58834 0.74848 0.46358 0.0
Zn421 Zn 0.5647 0.73914 0.40189 0.0
C422 C 0.53766 0.76115 0.48739 0.0
O423 O 0.55206 0.78138 0.4914 0.0
C424 C 0.60676 0.72434 0.36515 0.0
O425 O 0.58995 0.7054 0.36452 0.0
O426 O 0.60578 0.75161 0.50234 0.0
O427 O 0.60495 0.71863 0.44541 0.0
O428 O 0.56672 0.70728 0.42481 0.0
C429 C 0.604 0.73199 0.51735 0.0
O430 O 0.59288 0.71217 0.50596 0.0
O431 O 0.54846 0.74323 0.47376 0.0
C432 C 0.53861 0.75175 0.35089 0.0
O433 O 0.55444 0.77103 0.35515 0.0
O434 O 0.53829 0.73451 0.36951 0.0
O435 O 0.5542 0.77164 0.42032 0.0
O436 O 0.59345 0.7796 0.44074 0.0
O437 O 0.601 0.74262 0.38131 0.0
C438 C 0.59004 0.7018 0.43486 0.0
C439 C 0.57299 0.7869 0.42645 0.0
Zn440 Zn 0.15783 0.76017 0.2858 0.0
Zn441 Zn 0.17967 0.74919 0.34661 0.0
C442 C 0.2085 0.77446 0.26134 0.0
O443 O 0.194 0.79466 0.25751 0.0
C444 C 0.13607 0.73164 0.37982 0.0
O445 O 0.15314 0.71288 0.38006 0.0
O446 O 0.14091 0.76547 0.24709 0.0
O447 O 0.14281 0.72771 0.2999 0.0
O448 O 0.1808 0.71819 0.32211 0.0
C449 C 0.14482 0.74709 0.23053 0.0
O450 O 0.1574 0.72745 0.24062 0.0
O451 O 0.19802 0.75663 0.27545 0.0
C452 C 0.20107 0.7588 0.40092 0.0
O453 O 0.18435 0.77761 0.39767 0.0
O454 O 0.20394 0.74346 0.38044 0.0
O455 O 0.19038 0.78298 0.33131 0.0
O456 O 0.15088 0.78998 0.31107 0.0
O457 O 0.14217 0.75073 0.36507 0.0
C458 C 0.15886 0.71145 0.30992 0.0
C459 C 0.17107 0.79778 0.32543 0.0
Zn460 Zn 0.58557 0.9872 0.28575 0.0
Zn461 Zn 0.56483 -0.00121 0.35006 0.0
C462 C 0.53604 0.97034 0.26243 0.0
O463 O 0.55119 0.95031 0.26073 0.0
C464 C 0.61 0.01431 0.38199 0.0
O465 O 0.59385 0.03372 0.38318 0.0
O466 O 0.60373 0.98138 0.24762 0.0
O467 O 0.59934 0.02008 0.29922 0.0
O468 O 0.56403 0.03007 0.32627 0.0
C469 C 0.6 -0.00078 0.23024 0.0
O470 O 0.58661 0.01886 0.23917 0.0
O471 O 0.54573 0.9894 0.27476 0.0
C472 C 0.54372 0.98689 0.40414 0.0
O473 O 0.5595 0.96775 0.39881 0.0
O474 O 0.54128 0.00361 0.38507 0.0
O475 O 0.55327 0.9663 0.33279 0.0
O476 O 0.59243 0.95833 0.312 0.0
O477 O 0.60267 -0.00425 0.36708 0.0
C478 C 0.58465 0.03639 0.31134 0.0
C479 C 0.57245 0.95124 0.32729 0.0
Zn480 Zn 0.81331 0.48806 0.1035 0.0
Zn481 Zn 0.82449 0.49898 0.03205 0.0
C482 C 0.86211 0.47503 0.131 0.0
O483 O 0.84807 0.45433 0.13237 0.0
C484 C 0.77291 0.51385 0.01426 0.0
O485 O 0.78715 0.53444 0.01298 0.0
O486 O 0.79173 0.48258 0.13989 0.0
O487 O 0.79881 0.51913 0.08534 0.0
O488 O 0.83189 0.52916 0.05564 0.0
C489 C 0.7963 0.49776 0.16019 0.0
O490 O 0.81345 0.51608 0.15577 0.0
O491 O 0.85189 0.49345 0.1178 0.0
C492 C 0.83345 0.48489 0.97598 0.0
O493 O 0.822 0.46536 0.98782 0.0
O494 O 0.83859 0.50356 0.9917 0.0
O495 O 0.84281 0.46847 0.04713 0.0
O496 O 0.81318 0.45655 0.0802 0.0
O497 O 0.78402 0.49464 0.02494 0.0
C498 C 0.81584 0.53493 0.07599 0.0
C499 C 0.83322 0.45192 0.06369 0.0
Zn500 Zn 0.4222 0.74202 0.10847 0.0
Zn501 Zn 0.40169 0.73187 0.04655 0.0
C502 C 0.37794 0.76087 0.14026 0.0
O503 O 0.39528 0.77944 0.14045 0.0
C504 C 0.45459 0.71798 0.0259 0.0
O505 O 0.44143 0.69712 0.02162 0.0
O506 O 0.44644 0.74682 0.14261 0.0
O507 O 0.43252 0.70855 0.09263 0.0
O508 O 0.39434 0.7011 0.06967 0.0
C509 C 0.44418 0.7304 0.16206 0.0
O510 O 0.42766 0.7116 0.15783 0.0
O511 O 0.38421 0.74138 0.12634 0.0
C512 C 0.3955 0.74276 0.98814 0.0
O513 O 0.41478 0.75837 0.99548 0.0
O514 O 0.38518 0.7286 0.00714 0.0
O515 O 0.38636 0.76324 0.06249 0.0
O516 O 0.42505 0.77244 0.08346 0.0
O517 O 0.44235 0.73568 0.03855 0.0
C518 C 0.41432 0.69344 0.08444 0.0
C519 C 0.40297 0.77933 0.07174 0.0
Zn520 Zn 0.82667 0.75564 0.14316 0.0
Zn521 Zn 0.82569 0.73439 0.22146 0.0
C522 C 0.86968 0.78362 0.11425 0.0
O523 O 0.85022 0.79986 0.10969 0.0
C524 C 0.77326 0.72134 0.23958 0.0
O525 O 0.7858 0.69984 0.23873 0.0
O526 O 0.80194 0.76233 0.11003 0.0
O527 O 0.82768 0.71929 0.14991 0.0
O528 O 0.82942 0.70488 0.19476 0.0
C529 C 0.80894 0.75252 0.08635 0.0
O530 O 0.83072 0.73835 0.08555 0.0
O531 O 0.86467 0.76472 0.12971 0.0
C532 C 0.83815 0.7451 0.27702 0.0
O533 O 0.82575 0.76496 0.26724 0.0
O534 O 0.84153 0.72678 0.26022 0.0
O535 O 0.84518 0.7656 0.20947 0.0
O536 O 0.81435 0.77431 0.17745 0.0
O537 O 0.78587 0.74044 0.23063 0.0
C538 C 0.82918 0.70149 0.16769 0.0
C539 C 0.83457 0.78094 0.19227 0.0
Zn540 Zn 0.43768 0.4951 0.14947 0.0
Zn541 Zn 0.4273 0.49895 0.23114 0.0
C542 C 0.39646 0.48907 0.11085 0.0
O543 O 0.41266 0.46986 0.10765 0.0
C544 C 0.47746 0.5177 0.2519 0.0
O545 O 0.46205 0.53742 0.2552 0.0
O546 O 0.4663 0.49248 0.11832 0.0
O547 O 0.44865 0.51723 0.1811 0.0
O548 O 0.41649 0.52977 0.20964 0.0
C549 C 0.46534 0.50912 0.09899 0.0
O550 O 0.44808 0.52753 0.10205 0.0
O551 O 0.40275 0.5054 0.12939 0.0
C552 C 0.41624 0.48218 0.28688 0.0
O553 O 0.43081 0.46367 0.27683 0.0
O554 O 0.41033 0.50004 0.27026 0.0
O555 O 0.41682 0.46631 0.21228 0.0
O556 O 0.42819 0.46191 0.16598 0.0
O557 O 0.46749 0.49872 0.23972 0.0
C558 C 0.43095 0.53333 0.1875 0.0
C559 C 0.41855 0.45335 0.18943 0.0
Zn560 Zn 0.17228 0.49933 0.97405 0.0
Zn561 Zn 0.1552 0.49948 0.88393 0.0
C562 C 0.22068 0.48933 1.00208 0.0
O563 O 0.20555 0.46971 0.00717 0.0
C564 C 0.11651 0.49636 0.83868 0.0
O565 O 0.13571 0.50905 0.82557 0.0
O566 O 0.15138 0.49995 0.01142 0.0
O567 O 0.15721 0.52697 0.9464 0.0
O568 O 0.14832 0.53297 0.89979 0.0
C569 C 0.15349 0.51915 0.02704 0.0
O570 O 0.16693 0.53839 0.01706 0.0
O571 O 0.21106 0.50651 0.98637 0.0
C572 C 0.18958 0.48282 0.83754 0.0
O573 O 0.17324 0.46359 0.8387 0.0
O574 O 0.1866 0.50014 0.85578 0.0
O575 O 0.16288 0.48175 0.91932 0.0
O576 O 0.17196 0.46342 0.9589 0.0
O577 O 0.12028 0.48932 0.86442 0.0
C578 C 0.14889 0.54074 0.92568 0.0
C579 C 0.16739 0.46174 0.93231 0.0
Zn580 Zn 0.60011 0.24772 0.96175 0.0
Zn581 Zn 0.58022 0.23771 0.89767 0.0
C582 C 0.54785 0.26038 0.98227 0.0
O583 O 0.56117 0.28128 0.98575 0.0
C584 C 0.62501 0.22169 0.86473 0.0
O585 O 0.60868 0.2024 0.86402 0.0
O586 O 0.61594 0.25101 1.00137 0.0
O587 O 0.6173 0.21777 0.9444 0.0
O588 O 0.57988 0.20675 0.92195 0.0
C589 C 0.61317 0.23154 0.01649 0.0
O590 O 0.6022 0.21181 0.00474 0.0
O591 O 0.55994 0.24232 0.97017 0.0
C592 C 0.55691 0.24912 0.84456 0.0
O593 O 0.57266 0.26845 0.84884 0.0
O594 O 0.55563 0.23244 0.8638 0.0
O595 O 0.56872 0.27034 0.91486 0.0
O596 O 0.60597 0.27875 0.93904 0.0
O597 O 0.61783 0.24051 0.87937 0.0
C598 C 0.60246 0.20105 0.93349 0.0
C599 C 0.58664 0.28577 0.92294 0.0
Zn600 Zn 0.16674 0.26234 0.78704 0.0
Zn601 Zn 0.18742 0.24919 0.85125 0.0
C602 C 0.21428 0.27064 0.75334 0.0
O603 O 0.1974 0.28678 0.74202 0.0
C604 C 0.14253 0.23124 0.88256 0.0
O605 O 0.15904 0.21206 0.88263 0.0
O606 O 0.14686 0.26686 0.74954 0.0
O607 O 0.1516 0.23041 0.80255 0.0
O608 O 0.18912 0.2196 0.82487 0.0
C609 C 0.14854 0.24786 0.7335 0.0
O610 O 0.16126 0.22813 0.74315 0.0
O611 O 0.20658 0.25817 0.77514 0.0
C612 C 0.20724 0.25538 0.9073 0.0
O613 O 0.18966 0.2737 0.90566 0.0
O614 O 0.21115 0.24184 0.88534 0.0
O615 O 0.19839 0.28316 0.83739 0.0
O616 O 0.16185 0.29235 0.81228 0.0
O617 O 0.14952 0.25052 0.86864 0.0
C618 C 0.16718 0.21364 0.81221 0.0
C619 C 0.18041 0.29876 0.82974 0.0
Zn620 Zn 0.58443 0.48605 0.78228 0.0
Zn621 Zn 0.56752 0.4958 0.84914 0.0
C622 C 0.53222 0.47074 0.76451 0.0
O623 O 0.54637 0.45038 0.76032 0.0
C624 C 0.61128 0.51116 0.88303 0.0
O625 O 0.59467 0.53025 0.88402 0.0
O626 O 0.59815 0.48131 0.74205 0.0
O627 O 0.59996 0.51808 0.79553 0.0
O628 O 0.56688 0.52739 0.82591 0.0
C629 C 0.59149 0.49912 0.72564 0.0
O630 O 0.57844 0.51816 0.73666 0.0
O631 O 0.54376 0.48908 0.7765 0.0
C632 C 0.54591 0.48412 0.90323 0.0
O633 O 0.56215 0.46514 0.89872 0.0
O634 O 0.54324 0.50029 0.88357 0.0
O635 O 0.55662 0.46354 0.83099 0.0
O636 O 0.59416 0.45683 0.80659 0.0
O637 O 0.60495 0.49282 0.86725 0.0
C638 C 0.58654 0.53399 0.80976 0.0
C639 C 0.57599 0.4492 0.82388 0.0
H640 H 0.43629 0.81932 0.08016 0.0
H641 H 0.3159 0.91824 0.07272 0.0
H642 H 0.35305 0.79945 0.06086 0.0
H643 H 0.40064 0.93777 0.06129 0.0
H644 H 0.32888 0.87446 0.07364 0.0
H645 H 0.4233 0.86309 0.07862 0.0
C646 C 0.41531 0.82417 0.07559 0.0
C647 C 0.39573 0.80578 0.07054 0.0
C648 C 0.34457 0.88837 0.07081 0.0
C649 C 0.38075 0.8556 0.06898 0.0
C650 C 0.3372 0.91331 0.07036 0.0
C651 C 0.35722 0.93161 0.06684 0.0
C652 C 0.37217 0.88178 0.06814 0.0
C653 C 0.38453 0.92423 0.06388 0.0
C654 C 0.40794 0.8491 0.07463 0.0
C655 C 0.36883 0.81306 0.06471 0.0
N656 N 0.39123 0.89987 0.06476 0.0
N657 N 0.36209 0.83743 0.06423 0.0
H658 H 0.88567 0.44134 0.04865 0.0
H659 H 0.87022 0.29657 0.06227 0.0
H660 H 0.81258 0.40771 0.08284 0.0
H661 H 0.94864 0.33199 0.07083 0.0
H662 H 0.84817 0.33703 0.06489 0.0
H663 H 0.90872 0.40126 0.05155 0.0
C664 C 0.87443 0.42549 0.05664 0.0
C665 C 0.84708 0.42774 0.06527 0.0
C666 C 0.87018 0.33595 0.06634 0.0
C667 C 0.87333 0.382 0.06854 0.0
C668 C 0.8828 0.31293 0.06463 0.0
C669 C 0.9113 0.31107 0.06603 0.0
C670 C 0.8862 0.35731 0.06886 0.0
C671 C 0.92662 0.33274 0.06958 0.0
C672 C 0.88769 0.40273 0.05852 0.0
C673 C 0.83363 0.40671 0.07587 0.0
N674 N 0.91386 0.35512 0.07049 0.0
N675 N 0.84682 0.3846 0.07691 0.0
H676 H 0.40821 0.42426 0.14296 0.0
H677 H 0.35703 0.30586 0.22889 0.0
H678 H 0.40221 0.42488 0.2355 0.0
H679 H 0.33881 0.3205 0.13987 0.0
H680 H 0.37566 0.34795 0.23305 0.0
H681 H 0.38649 0.3839 0.14235 0.0
C682 C 0.40251 0.41585 0.16322 0.0
C683 C 0.40706 0.42804 0.18934 0.0
C684 C 0.36724 0.34193 0.21277 0.0
C685 C 0.38186 0.38166 0.18871 0.0
C686 C 0.35646 0.31801 0.21043 0.0
C687 C 0.34652 0.30956 0.18396 0.0
C688 C 0.36826 0.35722 0.18839 0.0
C689 C 0.34654 0.32603 0.16063 0.0
C690 C 0.38987 0.39283 0.16283 0.0
C691 C 0.39903 0.41615 0.21487 0.0
N692 N 0.3575 0.34891 0.16334 0.0
N693 N 0.38686 0.39351 0.21395 0.0
H694 H 0.88441 0.79761 0.21047 0.0
H695 H 0.85087 0.93742 0.17491 0.0
H696 H 0.81273 0.82007 0.16356 0.0
H697 H 0.93362 0.91276 0.1881 0.0
H698 H 0.83594 0.89439 0.17372 0.0
H699 H 0.90271 0.83961 0.20515 0.0
C700 C 0.87262 0.81133 0.19893 0.0
C701 C 0.84692 0.80547 0.18765 0.0
C702 C 0.8574 0.89835 0.17671 0.0
C703 C 0.86755 0.85331 0.18175 0.0
C704 C 0.86589 0.92289 0.17762 0.0
C705 C 0.89346 0.92854 0.18187 0.0
C706 C 0.87653 0.87934 0.18061 0.0
C707 C 0.91216 0.90906 0.18483 0.0
C708 C 0.88311 0.8352 0.1958 0.0
C709 C 0.83256 0.82384 0.17272 0.0
N710 N 0.90329 0.88521 0.18449 0.0
N711 N 0.84295 0.84703 0.17048 0.0
H712 H 0.61506 0.04264 0.94562 0.0
H713 H 0.65451 0.18486 0.94142 0.0
H714 H 0.69715 0.06741 0.9279 0.0
H715 H 0.57293 0.15883 0.92422 0.0
H716 H 0.67063 0.14206 0.94118 0.0
H717 H 0.59928 0.08539 0.9426 0.0
C718 C 0.6298 0.05711 0.94119 0.0
C719 C 0.6575 0.05155 0.93718 0.0
C720 C 0.64924 0.14575 0.93734 0.0
C721 C 0.63954 0.10042 0.93376 0.0
C722 C 0.63997 0.17012 0.93764 0.0
C723 C 0.6123 0.17532 0.933 0.0
C724 C 0.63061 0.12647 0.93281 0.0
C725 C 0.59442 0.15557 0.92792 0.0
C726 C 0.62072 0.08146 0.93928 0.0
C727 C 0.67563 0.07096 0.93117 0.0
N728 N 0.60386 0.13193 0.92821 0.0
N729 N 0.66635 0.09465 0.92987 0.0
H730 H 0.05771 0.67684 0.91284 0.0
H731 H 0.15772 0.57131 0.97229 0.0
H732 H 0.11986 0.69173 0.97591 0.0
H733 H 0.11438 0.5671 0.89196 0.0
H734 H 0.13878 0.61308 0.97972 0.0
H735 H 0.07255 0.63364 0.91125 0.0
C736 C 0.07426 0.67097 0.9266 0.0
C737 C 0.08773 0.68798 0.94431 0.0
C738 C 0.13345 0.60288 0.96054 0.0
C739 C 0.10487 0.63857 0.94256 0.0
C740 C 0.14418 0.57908 0.95634 0.0
C741 C 0.13783 0.56578 0.93138 0.0
C742 C 0.11593 0.61313 0.93984 0.0
C743 C 0.12017 0.57675 0.91137 0.0
C744 C 0.08283 0.64634 0.92557 0.0
C745 C 0.10909 0.67929 0.96169 0.0
N746 N 0.10984 0.59968 0.91606 0.0
N747 N 0.11708 0.65519 0.96032 0.0
H748 H 0.65973 0.67816 0.77567 0.0
H749 H 0.57343 0.57023 0.84816 0.0
H750 H 0.64427 0.67239 0.8668 0.0
H751 H 0.62042 0.55686 0.77114 0.0
H752 H 0.5925 0.61188 0.85052 0.0
H753 H 0.6401 0.63657 0.76947 0.0
C754 C 0.65249 0.66816 0.79432 0.0
C755 C 0.65361 0.67886 0.82175 0.0
C756 C 0.59854 0.59983 0.83304 0.0
C757 C 0.63072 0.63193 0.81472 0.0
C758 C 0.58753 0.57614 0.83157 0.0
C759 C 0.5956 0.56 0.8096 0.0
C760 C 0.61745 0.60757 0.8122 0.0
C761 C 0.61392 0.56868 0.78863 0.0
C762 C 0.64126 0.64453 0.79076 0.0
C763 C 0.64388 0.66503 0.84521 0.0
N764 N 0.62432 0.59196 0.79044 0.0
N765 N 0.63263 0.64245 0.84109 0.0
H766 H 0.18693 0.17486 0.84368 0.0
H767 H 0.08652 0.07207 0.78092 0.0
H768 H 0.12677 0.19299 0.77956 0.0
H769 H 0.12058 0.07014 0.86625 0.0
H770 H 0.10647 0.1136 0.77423 0.0
H771 H 0.16889 0.13273 0.84567 0.0
C772 C 0.17012 0.16992 0.8298 0.0
C773 C 0.15817 0.18752 0.81164 0.0
C774 C 0.10941 0.10395 0.79437 0.0
C775 C 0.13749 0.13933 0.81377 0.0
C776 C 0.09809 0.08033 0.79818 0.0
C777 C 0.10172 0.06766 0.82421 0.0
C778 C 0.12489 0.11456 0.81652 0.0
C779 C 0.11694 0.07924 0.8459 0.0
C780 C 0.15974 0.14592 0.83106 0.0
C781 C 0.1364 0.18003 0.79409 0.0
N782 N 0.12806 0.10188 0.84149 0.0
N783 N 0.1267 0.15646 0.7956 0.0
H784 H 0.43989 0.32661 0.58899 0.0
H785 H 0.31626 0.42268 0.57806 0.0
H786 H 0.35874 0.30535 0.56303 0.0
H787 H 0.40104 0.44428 0.57741 0.0
H788 H 0.33044 0.3791 0.57902 0.0
H789 H 0.42487 0.36974 0.59126 0.0
C790 C 0.41892 0.331 0.5838 0.0
C791 C 0.40058 0.3124 0.57564 0.0
C792 C 0.34588 0.39344 0.57868 0.0
C793 C 0.38325 0.36158 0.57839 0.0
C794 C 0.33781 0.41825 0.57822 0.0
C795 C 0.35751 0.43705 0.57744 0.0
C796 C 0.37379 0.38755 0.57873 0.0
C797 C 0.38516 0.43035 0.57772 0.0
C798 C 0.41038 0.3556 0.58506 0.0
C799 C 0.37362 0.31914 0.56921 0.0
N800 N 0.39248 0.40615 0.57838 0.0
N801 N 0.36573 0.3432 0.57078 0.0
H802 H 0.88375 0.93901 0.54131 0.0
H803 H 0.86625 0.79498 0.56215 0.0
H804 H 0.81263 0.90792 0.58267 0.0
H805 H 0.94566 0.82931 0.56488 0.0
H806 H 0.84514 0.83592 0.56369 0.0
H807 H 0.90583 0.89844 0.54352 0.0
C808 C 0.87272 0.92361 0.5507 0.0
C809 C 0.84624 0.92673 0.56166 0.0
C810 C 0.86717 0.83448 0.56406 0.0
C811 C 0.87136 0.88048 0.56414 0.0
C812 C 0.87924 0.8112 0.56297 0.0
C813 C 0.90773 0.8089 0.56312 0.0
C814 C 0.88372 0.85561 0.56468 0.0
C815 C 0.92362 0.83041 0.56467 0.0
C816 C 0.88543 0.90058 0.55216 0.0
C817 C 0.83303 0.90626 0.57392 0.0
N818 N 0.91137 0.85301 0.56502 0.0
N819 N 0.84565 0.88387 0.57458 0.0
H820 H 0.44644 0.9105 0.68976 0.0
H821 H 0.31677 0.83149 0.65752 0.0
H822 H 0.3667 0.94397 0.69557 0.0
H823 H 0.37746 0.80195 0.71493 0.0
H824 H 0.33774 0.87259 0.66211 0.0
H825 H 0.42469 0.86931 0.68962 0.0
C826 C 0.42442 0.90913 0.69092 0.0
C827 C 0.40826 0.93049 0.69277 0.0
C828 C 0.34627 0.85709 0.67383 0.0
C829 C 0.38358 0.88403 0.69207 0.0
C830 C 0.33437 0.83377 0.67125 0.0
C831 C 0.34536 0.81353 0.68607 0.0
C832 C 0.36979 0.85989 0.69052 0.0
C833 C 0.36828 0.81727 0.70347 0.0
C834 C 0.41212 0.88578 0.69104 0.0
C835 C 0.37983 0.92787 0.69433 0.0
N836 N 0.38009 0.84002 0.70488 0.0
N837 N 0.36833 0.90503 0.69356 0.0
H838 H 0.80649 0.31606 0.68136 0.0
H839 H 0.92617 0.41583 0.683 0.0
H840 H 0.88992 0.29786 0.70207 0.0
H841 H 0.84101 0.43552 0.68983 0.0
H842 H 0.91347 0.37208 0.68518 0.0
H843 H 0.81901 0.35988 0.67984 0.0
C844 C 0.82741 0.32129 0.68566 0.0
C845 C 0.8472 0.30334 0.69188 0.0
C846 C 0.8976 0.38601 0.68627 0.0
C847 C 0.86163 0.35324 0.68994 0.0
C848 C 0.90481 0.41094 0.68491 0.0
C849 C 0.8846 0.42928 0.68627 0.0
C850 C 0.86999 0.37944 0.68867 0.0
C851 C 0.85725 0.42195 0.68881 0.0
C852 C 0.83451 0.34626 0.68484 0.0
C853 C 0.87399 0.31111 0.69729 0.0
N854 N 0.85072 0.39756 0.68982 0.0
N855 N 0.88047 0.33551 0.69604 0.0
H856 H 0.69324 0.57134 0.4334 0.0
H857 H 0.5625 0.65949 0.42003 0.0
H858 H 0.6102 0.54477 0.43433 0.0
H859 H 0.64193 0.68603 0.44535 0.0
H860 H 0.5809 0.61738 0.41794 0.0
H861 H 0.67589 0.61397 0.43046 0.0
C862 C 0.67143 0.57447 0.43286 0.0
C863 C 0.65314 0.55457 0.43445 0.0
C864 C 0.59427 0.63247 0.42393 0.0
C865 C 0.63325 0.60294 0.43085 0.0
C866 C 0.58378 0.65647 0.42511 0.0
C867 C 0.60062 0.67624 0.43314 0.0
C868 C 0.62183 0.62828 0.43054 0.0
C869 C 0.62812 0.67129 0.43934 0.0
C870 C 0.66155 0.59873 0.43126 0.0
C871 C 0.62505 0.5596 0.43356 0.0
N872 N 0.63788 0.6478 0.4379 0.0
N873 N 0.61598 0.58326 0.43182 0.0
H874 H 0.12429 0.05362 0.46549 0.0
H875 H 0.13614 0.19718 0.43258 0.0
H876 H 0.17643 0.08148 0.39815 0.0
H877 H 0.0575 0.16451 0.4497 0.0
H878 H 0.15618 0.15568 0.43035 0.0
H879 H 0.10464 0.09541 0.471 0.0
C880 C 0.13201 0.06865 0.45237 0.0
C881 C 0.15211 0.06426 0.43147 0.0
C882 C 0.13456 0.15762 0.43465 0.0
C883 C 0.12989 0.11166 0.43764 0.0
C884 C 0.12312 0.18122 0.43597 0.0
C885 C 0.09513 0.18418 0.44125 0.0
C886 C 0.11806 0.13682 0.4394 0.0
C887 C 0.07913 0.16291 0.44535 0.0
C888 C 0.12058 0.0923 0.45526 0.0
C889 C 0.16103 0.08419 0.41455 0.0
N890 N 0.09089 0.14002 0.44463 0.0
N891 N 0.15 0.10707 0.41813 0.0
H892 H 0.66493 0.17739 0.27676 0.0
H893 H 0.56817 0.07428 0.34622 0.0
H894 H 0.63722 0.1779 0.36484 0.0
H895 H 0.62116 0.058 0.27446 0.0
H896 H 0.58658 0.11628 0.3476 0.0
H897 H 0.64308 0.13668 0.27049 0.0
C898 C 0.65434 0.16898 0.2947 0.0
C899 C 0.65311 0.18097 0.32139 0.0
C900 C 0.59405 0.10353 0.33144 0.0
C901 C 0.62778 0.13502 0.31424 0.0
C902 C 0.58343 0.07962 0.33053 0.0
C903 C 0.59335 0.06256 0.3104 0.0
C904 C 0.61451 0.11054 0.31189 0.0
C905 C 0.61317 0.07053 0.29056 0.0
C906 C 0.64192 0.14583 0.29113 0.0
C907 C 0.63904 0.16928 0.34395 0.0
N908 N 0.62319 0.09398 0.29184 0.0
N909 N 0.62685 0.14707 0.33981 0.0
H910 H 0.11881 0.68912 0.27814 0.0
H911 H 0.12214 0.56544 0.36983 0.0
H912 H 0.17998 0.67365 0.34208 0.0
H913 H 0.08453 0.56717 0.28623 0.0
H914 H 0.13985 0.60687 0.36171 0.0
H915 H 0.10304 0.64608 0.28183 0.0
C916 C 0.12904 0.67665 0.29281 0.0
C917 C 0.15067 0.68504 0.30997 0.0
C918 C 0.12782 0.59822 0.34505 0.0
C919 C 0.13249 0.63602 0.31447 0.0
C920 C 0.11746 0.57458 0.34974 0.0
C921 C 0.1017 0.56276 0.32868 0.0
C922 C 0.12215 0.61052 0.31925 0.0
C923 C 0.09666 0.57554 0.30297 0.0
C924 C 0.12006 0.65211 0.29481 0.0
C925 C 0.16325 0.66805 0.32846 0.0
N926 N 0.10668 0.59888 0.29904 0.0
N927 N 0.15378 0.64446 0.33045 0.0
H928 H 0.26869 0.96565 0.16776 0.0
H929 H 0.2392 0.01207 0.32794 0.0
H930 H 0.30634 0.03 0.20575 0.0
H931 H 0.20082 0.94788 0.29039 0.0
H932 H 0.2663 0.01717 0.28435 0.0
H933 H 0.24517 0.95761 0.21317 0.0
C934 C 0.27195 0.97813 0.18561 0.0
C935 C 0.28941 -0.0014 0.18292 0.0
C936 C 0.25209 0.00186 0.2857 0.0
C937 C 0.26274 0.9894 0.23497 0.0
C938 C 0.23667 -0.00112 0.31065 0.0
C939 C 0.21754 0.97963 0.31273 0.0
C940 C 0.24831 0.98554 0.2626 0.0
C941 C 0.21523 0.96306 0.28967 0.0
C942 C 0.2586 0.97347 0.21156 0.0
C943 C 0.29299 0.01406 0.2068 0.0
N944 N 0.23027 0.96651 0.26546 0.0
N945 N 0.27975 0.00916 0.23179 0.0
H946 H 0.0394 0.29361 0.31106 0.0
H947 H 0.9619 0.20511 0.20035 0.0
H948 H 0.00978 0.22068 0.33299 0.0
H949 H 0.99368 0.27715 0.17785 0.0
H950 H 0.97896 0.2106 0.24905 0.0
H951 H 0.02188 0.28826 0.26255 0.0
C952 C 0.02906 0.2765 0.30575 0.0
C953 C 0.02608 0.25755 0.32617 0.0
C954 C 0.98227 0.2252 0.23347 0.0
C955 C 0.00609 0.25124 0.27044 0.0
C956 C 0.97258 0.22207 0.2056 0.0
C957 C 0.97636 0.24072 0.18494 0.0
C958 C 0.99583 0.24717 0.24085 0.0
C959 C 0.99035 0.26227 0.19304 0.0
C960 C 0.01913 0.27344 0.27796 0.0
C961 C 0.01251 0.2358 0.31797 0.0
N962 N 0.99952 0.26492 0.22038 0.0
N963 N 0.00308 0.23322 0.29072 0.0
H964 H 0.20157 0.27985 0.95825 0.0
H965 H 0.30793 0.19408 0.04196 0.0
H966 H 0.24342 0.21798 0.91928 0.0
H967 H 0.26526 0.25555 0.08078 0.0
H968 H 0.28222 0.20071 0.99784 0.0
H969 H 0.22313 0.26993 0.0039 0.0
C970 C 0.21535 0.26419 0.95925 0.0
C971 C 0.2208 0.24979 0.93484 0.0
C972 C 0.27832 0.21262 0.01608 0.0
C973 C 0.24548 0.23824 0.98721 0.0
C974 C 0.29292 0.2088 0.04134 0.0
C975 C 0.28891 0.22442 0.06505 0.0
C976 C 0.25961 0.23227 0.01445 0.0
C977 C 0.26911 0.24312 0.06301 0.0
C978 C 0.22759 0.25848 0.9854 0.0
C979 C 0.23873 0.22966 0.93752 0.0
N980 N 0.25538 0.24664 0.03807 0.0
N981 N 0.25048 0.22451 0.96323 0.0
H982 H 0.94832 0.03002 0.05016 0.0
H983 H 0.05753 0.94935 0.96336 0.0
H984 H 0.98636 0.9642 0.08433 0.0
H985 H 0.01652 0.01333 0.92835 0.0
H986 H 0.03012 0.9532 0.00695 0.0
H987 H 0.97226 0.02341 0.0049 0.0
C988 C 0.96177 0.01419 0.04818 0.0
C989 C 0.96543 -0.00232 0.07111 0.0
C990 C 0.02698 0.96629 0.98966 0.0
C991 C 0.99283 0.98993 0.01921 0.0
C992 C 0.04257 0.96407 0.96471 0.0
C993 C 0.03946 0.98117 0.94226 0.0
C994 C 0.00821 0.98582 0.99222 0.0
C995 C 0.01968 -0.00021 0.94516 0.0
C996 C 0.97537 0.01038 0.02226 0.0
C997 C 0.98302 0.97744 0.06724 0.0
N998 N 0.00496 0.00173 0.96979 0.0
N999 N 0.99612 0.97416 0.04178 0.0
H1000 H 0.70686 0.94434 0.8039 0.0
H1001 H 0.7929 0.03303 0.69986 0.0
H1002 H 0.74107 0.01431 0.8305 0.0
H1003 H 0.75825 0.96329 0.67308 0.0
H1004 H 0.77373 0.02666 0.74766 0.0
H1005 H 0.72583 0.95081 0.75602 0.0
C1006 C 0.71849 0.96102 0.79973 0.0
C1007 C 0.72236 0.97883 0.82128 0.0
C1008 C 0.77024 0.01277 0.73133 0.0
C1009 C 0.74401 0.98642 0.76633 0.0
C1010 C 0.78113 0.01642 0.70397 0.0
C1011 C 0.77722 -0.00136 0.68241 0.0
C1012 C 0.75534 0.99116 0.73727 0.0
C1013 C 0.76177 0.9775 0.68902 0.0
C1014 C 0.72926 0.96473 0.77233 0.0
C1015 C 0.7376 8e-05 0.81458 0.0
N1016 N 0.75146 0.97431 0.71589 0.0
N1017 N 0.74781 0.0033 0.78768 0.0
H1018 H 0.0083 0.7264 0.83354 0.0
H1019 H 0.99404 0.77795 0.67287 0.0
H1020 H 0.04618 0.79388 0.80361 0.0
H1021 H 0.95772 0.70965 0.70244 0.0
H1022 H 0.01308 0.78432 0.72074 0.0
H1023 H 0.98875 0.72041 0.78586 0.0
C1024 C 0.01238 0.74003 0.817 0.0
C1025 C 0.02893 0.76066 0.82258 0.0
C1026 C 0.00098 0.76792 0.71673 0.0
C1027 C 0.00677 0.75384 0.76789 0.0
C1028 C 0.99016 0.76425 0.68938 0.0
C1029 C 0.97426 0.74324 0.68362 0.0
C1030 C 0.99583 0.75048 0.7385 0.0
C1031 C 0.96985 0.72613 0.70588 0.0
C1032 C 0.00128 0.73657 0.78974 0.0
C1033 C 0.03357 0.77769 0.80029 0.0
N1034 N 0.98053 0.73014 0.73231 0.0
N1035 N 0.02261 0.77387 0.77394 0.0
H1036 H 0.74105 0.74318 0.91642 0.0
H1037 H 0.76464 0.78289 0.07952 0.0
H1038 H 0.69095 0.79669 0.96088 0.0
H1039 H 0.81773 0.73319 0.03297 0.0
H1040 H 0.73874 0.78991 0.03556 0.0
H1041 H 0.7712 0.74148 0.95791 0.0
C1042 C 0.73654 0.75477 0.93479 0.0
C1043 C 0.71328 0.76989 0.93532 0.0
C1044 C 0.75613 0.77755 0.03494 0.0
C1045 C 0.74755 0.76785 0.983 0.0
C1046 C 0.77086 0.77347 0.06005 0.0
C1047 C 0.79325 0.75728 0.05995 0.0
C1048 C 0.76377 0.76528 0.00959 0.0
C1049 C 0.80052 0.74572 0.03408 0.0
C1050 C 0.75375 0.75376 0.95851 0.0
C1051 C 0.70855 0.78463 0.95963 0.0
N1052 N 0.78573 0.74984 0.00998 0.0
N1053 N 0.72539 0.78305 0.98263 0.0
H1054 H 0.22438 0.52146 0.82655 0.0
H1055 H 0.26279 0.47358 0.66889 0.0
H1056 H 0.19632 0.45203 0.79145 0.0
H1057 H 0.29439 0.54099 0.70585 0.0
H1058 H 0.23808 0.46545 0.71355 0.0
H1059 H 0.25083 0.52858 0.78281 0.0
C1060 C 0.22397 0.5076 0.80977 0.0
C1061 C 0.208 0.48616 0.81264 0.0
C1062 C 0.2504 0.48203 0.71187 0.0
C1063 C 0.23801 0.49434 0.76235 0.0
C1064 C 0.26441 0.48675 0.68632 0.0
C1065 C 0.28067 0.50802 0.6836 0.0
C1066 C 0.2526 0.49873 0.73487 0.0
C1067 C 0.28209 0.52437 0.70696 0.0
C1068 C 0.23901 0.51172 0.78474 0.0
C1069 C 0.20827 0.46885 0.79017 0.0
N1070 N 0.26826 0.51937 0.7316 0.0
N1071 N 0.22289 0.47339 0.76591 0.0
H1072 H 0.2346 0.72043 0.41619 0.0
H1073 H 0.25555 0.76908 0.57691 0.0
H1074 H 0.19765 0.78721 0.44931 0.0
H1075 H 0.29365 0.70325 0.54273 0.0
H1076 H 0.23173 0.77468 0.53133 0.0
H1077 H 0.25491 0.71295 0.46317 0.0
C1078 C 0.23084 0.73358 0.43331 0.0
C1079 C 0.21447 0.75452 0.4288 0.0
C1080 C 0.24517 0.75892 0.5339 0.0
C1081 C 0.23748 0.74598 0.48269 0.0
C1082 C 0.25866 0.75565 0.55996 0.0
C1083 C 0.27676 0.73577 0.56355 0.0
C1084 C 0.24986 0.7422 0.51131 0.0
C1085 C 0.28004 0.71895 0.54085 0.0
C1086 C 0.24236 0.72925 0.46017 0.0
C1087 C 0.21019 0.77086 0.4518 0.0
N1088 N 0.26686 0.72263 0.51565 0.0
N1089 N 0.22164 0.76624 0.47776 0.0
H1090 H 0.01621 0.51522 0.43393 0.0
H1091 H 0.97891 0.46525 0.59114 0.0
H1092 H 0.04823 0.4473 0.46939 0.0
H1093 H 0.95119 0.53532 0.55729 0.0
H1094 H 0.00292 0.45742 0.546 0.0
H1095 H 0.98983 0.52147 0.47785 0.0
C1096 C 0.01749 0.50148 0.45082 0.0
C1097 C 0.0346 0.48077 0.44802 0.0
C1098 C 0.99161 0.47452 0.54847 0.0
C1099 C 0.00464 0.48796 0.49853 0.0
C1100 C 0.97797 0.47905 0.57428 0.0
C1101 C 0.96306 0.50101 0.57805 0.0
C1102 C 0.99028 0.49205 0.52621 0.0
C1103 C 0.96249 0.51817 0.5554 0.0
C1104 C 0.00251 0.50513 0.47598 0.0
C1105 C 0.03541 0.46359 0.47064 0.0
N1106 N 0.97586 0.5133 0.53046 0.0
N1107 N 0.02077 0.46764 0.495 0.0
H1108 H 0.76305 0.46002 0.17867 0.0
H1109 H 0.7472 0.5146 0.33781 0.0
H1110 H 0.80141 0.52761 0.20717 0.0
H1111 H 0.71222 0.44517 0.31042 0.0
H1112 H 0.76774 0.51949 0.29023 0.0
H1113 H 0.74409 0.45433 0.22684 0.0
C1114 C 0.76742 0.4737 0.19501 0.0
C1115 C 0.78383 0.49433 0.18886 0.0
C1116 C 0.75567 0.50313 0.29469 0.0
C1117 C 0.76231 0.48788 0.24407 0.0
C1118 C 0.744 0.5003 0.32188 0.0
C1119 C 0.72791 0.47948 0.3281 0.0
C1120 C 0.75114 0.48505 0.27353 0.0
C1121 C 0.72443 0.46156 0.30659 0.0
C1122 C 0.75666 0.4704 0.22254 0.0
C1123 C 0.78887 0.51142 0.21092 0.0
N1124 N 0.73584 0.46481 0.28026 0.0
N1125 N 0.77816 0.50781 0.23751 0.0
H1126 H 0.70526 0.2936 0.46231 0.0
H1127 H 0.80624 0.20527 0.54983 0.0
H1128 H 0.74283 0.22821 0.42638 0.0
H1129 H 0.76667 0.26948 0.58624 0.0
H1130 H 0.78516 0.21459 0.50369 0.0
H1131 H 0.73036 0.28679 0.50671 0.0
C1132 C 0.71902 0.27794 0.46363 0.0
C1133 C 0.72177 0.26133 0.44066 0.0
C1134 C 0.78109 0.22665 0.52176 0.0
C1135 C 0.75038 0.25328 0.49161 0.0
C1136 C 0.79305 0.2213 0.54816 0.0
C1137 C 0.78812 0.23656 0.57199 0.0
C1138 C 0.76406 0.24743 0.51912 0.0
C1139 C 0.77095 0.25713 0.56849 0.0
C1140 C 0.73328 0.27402 0.48906 0.0
C1141 C 0.74001 0.24144 0.44357 0.0
N1142 N 0.75952 0.26195 0.54256 0.0
N1143 N 0.75346 0.23786 0.46869 0.0
H1144 H 0.52581 0.20992 0.82639 0.0
H1145 H 0.49284 0.27118 0.6737 0.0
H1146 H 0.55514 0.28181 0.79983 0.0
H1147 H 0.46637 0.19793 0.69852 0.0
H1148 H 0.51608 0.27526 0.71973 0.0
H1149 H 0.50356 0.20525 0.77981 0.0
C1150 C 0.52749 0.22476 0.81082 0.0
C1151 C 0.54236 0.24629 0.81703 0.0
C1152 C 0.50528 0.25825 0.71507 0.0
C1153 C 0.51707 0.24102 0.76365 0.0
C1154 C 0.49206 0.25589 0.68875 0.0
C1155 C 0.47759 0.23419 0.68225 0.0
C1156 C 0.50398 0.23882 0.73511 0.0
C1157 C 0.47725 0.215 0.70261 0.0
C1158 C 0.51485 0.22205 0.7842 0.0
C1159 C 0.5439 0.26488 0.796 0.0
N1160 N 0.49016 0.2178 0.72815 0.0
N1161 N 0.53143 0.26181 0.77028 0.0
H1162 H 0.49514 0.96659 0.58133 0.0
H1163 H 0.51364 0.02598 0.42471 0.0
H1164 H 0.46532 0.03907 0.55787 0.0
H1165 H 0.54524 0.95434 0.449 0.0
H1166 H 0.49521 0.03093 0.47322 0.0
H1167 H 0.51379 0.96183 0.53294 0.0
C1168 C 0.49265 0.98156 0.56607 0.0
C1169 C 0.47861 0.00325 0.57367 0.0
C1170 C 0.50613 0.01411 0.4679 0.0
C1171 C 0.49972 -0.00216 0.51815 0.0
C1172 C 0.51657 0.01124 0.44018 0.0
C1173 C 0.53102 0.98972 0.43278 0.0
C1174 C 0.51016 0.99533 0.48837 0.0
C1175 C 0.53426 0.97126 0.45374 0.0
C1176 C 0.50323 0.9788 0.5384 0.0
C1177 C 0.47596 0.02201 0.55297 0.0
N1178 N 0.52396 0.9745 0.48056 0.0
N1179 N 0.48634 0.01885 0.52616 0.0
H1180 H 0.44395 0.69824 0.20738 0.0
H1181 H 0.53624 0.78495 0.30673 0.0
H1182 H 0.47664 0.7687 0.18 0.0
H1183 H 0.50659 0.71308 0.333 0.0
H1184 H 0.51335 0.77982 0.26075 0.0
H1185 H 0.46605 0.70363 0.25378 0.0
C1186 C 0.45586 0.71483 0.21108 0.0
C1187 C 0.45846 0.73306 0.18975 0.0
C1188 C 0.51178 0.76519 0.27658 0.0
C1189 C 0.48371 0.73939 0.24295 0.0
C1190 C 0.52479 0.76812 0.3029 0.0
C1191 C 0.52337 0.74938 0.32374 0.0
C1192 C 0.4972 0.74335 0.271 0.0
C1193 C 0.50823 0.728 0.31755 0.0
C1194 C 0.46844 0.7179 0.23762 0.0
C1195 C 0.47413 0.75415 0.19579 0.0
N1196 N 0.49578 0.72554 0.2917 0.0
N1197 N 0.48612 0.75675 0.22185 0.0
H1198 H 0.49752 0.47022 0.08151 0.0
H1199 H 0.51506 0.52334 0.92186 0.0
H1200 H 0.46637 0.54104 0.05359 0.0
H1201 H 0.54865 0.45348 0.94988 0.0
H1202 H 0.4971 0.53008 0.97018 0.0
H1203 H 0.51747 0.46408 0.03383 0.0
C1204 C 0.49512 0.48458 0.06548 0.0
C1205 C 0.48015 0.50613 0.07153 0.0
C1206 C 0.50837 0.51326 0.96576 0.0
C1207 C 0.50262 0.49911 0.01687 0.0
C1208 C 0.51852 0.50934 0.93812 0.0
C1209 C 0.53336 0.4878 0.9318 0.0
C1210 C 0.51306 0.49549 0.98726 0.0
C1211 C 0.53731 0.47036 0.95377 0.0
C1212 C 0.50639 0.48102 0.03822 0.0
C1213 C 0.47763 0.52409 0.04988 0.0
N1214 N 0.52725 0.4746 0.98052 0.0
N1215 N 0.48861 0.52011 0.02351 0.0
H1216 H 0.38224 0.03161 0.95562 0.0
H1217 H 0.40539 0.94974 0.81485 0.0
H1218 H 0.36883 0.95265 0.95162 0.0
H1219 H 0.39925 0.02948 0.81197 0.0
H1220 H 0.39541 0.95083 0.86603 0.0
H1221 H 0.39249 0.03158 0.904 0.0
C1222 C 0.38166 0.01427 0.94395 0.0
C1223 C 0.37468 0.99209 0.95789 0.0
C1224 C 0.39611 0.96811 0.85424 0.0
C1225 C 0.38623 0.99195 0.89912 0.0
C1226 C 0.40181 0.96751 0.82499 0.0
C1227 C 0.40311 0.98955 0.80913 0.0
C1228 C 0.3919 0.99096 0.86792 0.0
C1229 C 0.39828 0.01204 0.8234 0.0
C1230 C 0.38733 0.0143 0.91452 0.0
C1231 C 0.37404 0.97019 0.94175 0.0
N1232 N 0.39303 0.01219 0.8521 0.0
N1233 N 0.37977 0.97068 0.91328 0.0
H1234 H 0.90881 0.29033 0.94041 0.0
H1235 H 0.87629 0.20519 0.80455 0.0
H1236 H 0.89892 0.21107 0.94706 0.0
H1237 H 0.86527 0.28452 0.80618 0.0
H1238 H 0.88922 0.20648 0.8554 0.0
H1239 H 0.897 0.28805 0.88977 0.0
C1240 C 0.90405 0.27243 0.93122 0.0
C1241 C 0.90477 0.25086 0.94799 0.0
C1242 C 0.884 0.22356 0.84453 0.0
C1243 C 0.89145 0.24808 0.88984 0.0
C1244 C 0.87681 0.22287 0.81553 0.0
C1245 C 0.86968 0.24479 0.80117 0.0
C1246 C 0.88432 0.24636 0.85906 0.0
C1247 C 0.87051 0.26716 0.81642 0.0
C1248 C 0.8973 0.27114 0.90228 0.0
C1249 C 0.89843 0.22817 0.93491 0.0
N1250 N 0.87772 0.26736 0.84448 0.0
N1251 N 0.89214 0.22734 0.90651 0.0
H1252 H 0.35035 0.30149 0.31723 0.0
H1253 H 0.38256 0.21788 0.45449 0.0
H1254 H 0.3683 0.22336 0.31159 0.0
H1255 H 0.38788 0.29769 0.45489 0.0
H1256 H 0.37345 0.21919 0.40281 0.0
H1257 H 0.36125 0.3003 0.36837 0.0
C1258 C 0.35687 0.28414 0.32668 0.0
C1259 C 0.35845 0.26251 0.3101 0.0
C1260 C 0.37661 0.2364 0.41426 0.0
C1261 C 0.37045 0.26091 0.36873 0.0
C1262 C 0.38158 0.23567 0.44378 0.0
C1263 C 0.38596 0.25771 0.45902 0.0
C1264 C 0.37571 0.25934 0.4 0.0
C1265 C 0.38468 0.28024 0.44399 0.0
C1266 C 0.36303 0.28346 0.35589 0.0
C1267 C 0.36695 0.24052 0.32351 0.0
N1268 N 0.37961 0.28047 0.41536 0.0
N1269 N 0.37239 0.24023 0.35211 0.0
H1270 H 0.86843 0.02667 0.29481 0.0
H1271 H 0.83818 0.94565 0.43515 0.0
H1272 H 0.86903 0.94673 0.29673 0.0
H1273 H 0.85385 0.02428 0.4385 0.0
H1274 H 0.84597 0.94644 0.38356 0.0
H1275 H 0.85883 0.02695 0.34652 0.0
C1276 C 0.8662 0.0092 0.30602 0.0
C1277 C 0.86955 0.98663 0.29148 0.0
C1278 C 0.84782 0.96354 0.39553 0.0
C1279 C 0.85883 0.98683 0.35045 0.0
C1280 C 0.84339 0.96311 0.42503 0.0
C1281 C 0.84543 0.98494 0.44117 0.0
C1282 C 0.85415 0.98601 0.38188 0.0
C1283 C 0.85224 0.007 0.42687 0.0
C1284 C 0.86095 0.00938 0.33553 0.0
C1285 C 0.8667 0.96456 0.30708 0.0
N1286 N 0.85626 0.007 0.39795 0.0
N1287 N 0.86154 0.96522 0.33568 0.0
H1288 H 0.64549 0.03511 0.05657 0.0
H1289 H 0.61647 0.95814 0.1999 0.0
H1290 H 0.63728 0.95549 0.05674 0.0
H1291 H 0.60329 0.0369 0.19168 0.0
H1292 H 0.62841 0.95643 0.14871 0.0
H1293 H 0.6338 0.03576 0.10738 0.0
C1294 C 0.64111 0.01774 0.06729 0.0
C1295 C 0.64231 0.99521 0.05241 0.0
C1296 C 0.62291 0.97405 0.15821 0.0
C1297 C 0.62915 -0.0042 0.11076 0.0
C1298 C 0.61629 0.97507 0.1874 0.0
C1299 C 0.60888 -0.0023 0.20002 0.0
C1300 C 0.62239 -0.00414 0.14175 0.0
C1301 C 0.60879 0.01904 0.18283 0.0
C1302 C 0.63442 0.01813 0.09633 0.0
C1303 C 0.63641 0.97328 0.06741 0.0
N1304 N 0.61548 0.0176 0.15464 0.0
N1305 N 0.63023 0.97409 0.09589 0.0
H1306 H 0.1163 0.79054 0.05371 0.0
H1307 H 0.1409 0.70831 0.19373 0.0
H1308 H 0.10146 0.71181 0.0582 0.0
H1309 H 0.13197 0.78779 0.19772 0.0
H1310 H 0.13107 0.7097 0.14261 0.0
H1311 H 0.12721 0.79034 0.10516 0.0
C1312 C 0.11558 0.77322 0.06545 0.0
C1313 C 0.10794 0.75116 0.05175 0.0
C1314 C 0.13112 0.72686 0.15464 0.0
C1315 C 0.12025 0.75083 0.11022 0.0
C1316 C 0.13676 0.72608 0.18384 0.0
C1317 C 0.13717 0.74797 0.19999 0.0
C1318 C 0.12614 0.74972 0.1413 0.0
C1319 C 0.13164 0.77047 0.18604 0.0
C1320 C 0.12159 0.77316 0.09477 0.0
C1321 C 0.10712 0.72926 0.06793 0.0
N1322 N 0.12648 0.7708 0.15737 0.0
N1323 N 0.11324 0.72966 0.09626 0.0
H1324 H 0.65608 0.68806 0.68683 0.0
H1325 H 0.61491 0.77149 0.55247 0.0
H1326 H 0.63383 0.76515 0.6946 0.0
H1327 H 0.61161 0.69159 0.55148 0.0
H1328 H 0.62608 0.77003 0.60367 0.0
H1329 H 0.64313 0.68929 0.63623 0.0
C1330 C 0.64824 0.70518 0.67795 0.0
C1331 C 0.64602 0.72652 0.69492 0.0
C1332 C 0.62289 0.75284 0.59219 0.0
C1333 C 0.63163 0.72818 0.63701 0.0
C1334 C 0.61674 0.75366 0.56297 0.0
C1335 C 0.61235 0.73163 0.54774 0.0
C1336 C 0.625 0.72983 0.60611 0.0
C1337 C 0.61476 0.70903 0.56242 0.0
C1338 C 0.64089 0.70588 0.64908 0.0
C1339 C 0.63575 0.74822 0.68231 0.0
N1340 N 0.62101 0.7087 0.59077 0.0
N1341 N 0.62917 0.74856 0.65402 0.0
H1342 H 0.09339 0.06077 0.69135 0.0
H1343 H 0.13243 0.97923 0.55454 0.0
H1344 H 0.11364 0.98304 0.69589 0.0
H1345 H 0.1392 0.05898 0.55498 0.0
H1346 H 0.11928 0.98035 0.60507 0.0
H1347 H 0.10528 0.06058 0.64025 0.0
C1348 C 0.10052 0.04372 0.68166 0.0
C1349 C 0.10258 0.02189 0.6979 0.0
C1350 C 0.12353 -0.00239 0.59407 0.0
C1351 C 0.11569 0.02147 0.63948 0.0
C1352 C 0.13081 -0.00298 0.56514 0.0
C1353 C 0.13702 0.01906 0.55052 0.0
C1354 C 0.12217 0.02041 0.60846 0.0
C1355 C 0.13469 0.04155 0.56546 0.0
C1356 C 0.10725 0.04363 0.65252 0.0
C1357 C 0.11189 0.00032 0.68424 0.0
N1358 N 0.12747 0.04165 0.59365 0.0
N1359 N 0.1179 0.00061 0.65577 0.0
H1360 H 0.38699 0.44789 0.46546 0.0
H1361 H 0.39655 0.52175 0.31738 0.0
H1362 H 0.38388 0.52768 0.46024 0.0
H1363 H 0.42076 0.44527 0.32669 0.0
H1364 H 0.38829 0.52376 0.36913 0.0
H1365 H 0.39685 0.44616 0.41412 0.0
C1366 C 0.38862 0.46506 0.45354 0.0
C1367 C 0.38463 0.48796 0.46712 0.0
C1368 C 0.39541 0.50655 0.35982 0.0
C1369 C 0.3955 0.4861 0.40828 0.0
C1370 C 0.39993 0.50533 0.33027 0.0
C1371 C 0.40934 0.48329 0.31772 0.0
C1372 C 0.40009 0.48553 0.37687 0.0
C1373 C 0.41355 0.46264 0.33547 0.0
C1374 C 0.39423 0.46406 0.42423 0.0
C1375 C 0.38698 0.50963 0.45064 0.0
N1376 N 0.40883 0.46425 0.36414 0.0
N1377 N 0.39204 0.50816 0.42199 0.0
H1378 H 0.88908 0.70609 0.4499 0.0
H1379 H 0.84188 0.78413 0.31343 0.0
H1380 H 0.89796 0.78536 0.44191 0.0
H1381 H 0.85649 0.70535 0.30874 0.0
H1382 H 0.85749 0.78399 0.36283 0.0
H1383 H 0.8723 0.70456 0.4003 0.0
C1384 C 0.88737 0.72315 0.43779 0.0
C1385 C 0.8949 0.7459 0.44999 0.0
C1386 C 0.85737 0.76671 0.35104 0.0
C1387 C 0.87578 0.74427 0.39364 0.0
C1388 C 0.84837 0.76675 0.32281 0.0
C1389 C 0.84795 0.74471 0.30691 0.0
C1390 C 0.86583 0.74444 0.36371 0.0
C1391 C 0.85665 0.72277 0.32023 0.0
C1392 C 0.87795 0.72223 0.40951 0.0
C1393 C 0.89246 0.76742 0.43335 0.0
N1394 N 0.86518 0.72315 0.34801 0.0
N1395 N 0.88303 0.76607 0.4061 0.0
H1396 H 0.38442 0.74477 0.80259 0.0
H1397 H 0.34569 0.72836 0.96755 0.0
H1398 H 0.30306 0.758 0.83472 0.0
H1399 H 0.4245 0.75546 0.94057 0.0
H1400 H 0.33041 0.73001 0.9174 0.0
H1401 H 0.40033 0.73995 0.85224 0.0
C1402 C 0.36996 0.74665 0.82008 0.0
C1403 C 0.34248 0.75202 0.81466 0.0
C1404 C 0.35107 0.73548 0.92257 0.0
C1405 C 0.3603 0.74598 0.87103 0.0
C1406 C 0.3598 0.73442 0.95104 0.0
C1407 C 0.38628 0.74198 0.95811 0.0
C1408 C 0.36917 0.7436 0.90112 0.0
C1409 C 0.40381 0.74973 0.93599 0.0
C1410 C 0.37902 0.74392 0.84829 0.0
C1411 C 0.3245 0.75418 0.83802 0.0
N1412 N 0.39498 0.75026 0.90842 0.0
N1413 N 0.33369 0.75098 0.86522 0.0
H1414 H 0.85753 0.52693 0.79754 0.0
H1415 H 0.82977 0.44622 0.9388 0.0
H1416 H 0.85416 0.44705 0.79906 0.0
H1417 H 0.8473 0.52455 0.94165 0.0
H1418 H 0.83502 0.44708 0.8869 0.0
H1419 H 0.84936 0.52737 0.84951 0.0
C1420 C 0.85468 0.50952 0.80872 0.0
C1421 C 0.85656 0.4869 0.79397 0.0
C1422 C 0.83781 0.4641 0.8988 0.0
C1423 C 0.8475 0.48728 0.85329 0.0
C1424 C 0.83484 0.46363 0.92851 0.0
C1425 C 0.83819 0.48534 0.94464 0.0
C1426 C 0.84403 0.48649 0.88491 0.0
C1427 C 0.84471 0.50735 0.93005 0.0
C1428 C 0.85025 0.50978 0.83838 0.0
C1429 C 0.85297 0.4649 0.80956 0.0
N1430 N 0.84735 0.50738 0.90095 0.0
N1431 N 0.84868 0.46565 0.83832 0.0
H1432 H 0.61016 0.45994 0.69348 0.0
H1433 H 0.6161 0.53836 0.54832 0.0
H1434 H 0.58448 0.53623 0.68676 0.0
H1435 H 0.6253 0.45885 0.55034 0.0
H1436 H 0.60498 0.53782 0.59935 0.0
H1437 H 0.61725 0.45909 0.64139 0.0
C1438 C 0.60611 0.47651 0.68108 0.0
C1439 C 0.59681 0.49821 0.69447 0.0
C1440 C 0.60918 0.52045 0.58862 0.0
C1441 C 0.60473 0.49734 0.63506 0.0
C1442 C 0.61549 0.52074 0.55946 0.0
C1443 C 0.62168 0.49863 0.54512 0.0
C1444 C 0.60939 0.4979 0.60366 0.0
C1445 C 0.62055 0.47632 0.56059 0.0
C1446 C 0.61 0.47597 0.65137 0.0
C1447 C 0.5917 0.5191 0.67737 0.0
N1448 N 0.6148 0.47654 0.58915 0.0
N1449 N 0.59582 0.51816 0.64861 0.0
H1450 H 0.13483 0.28809 0.70027 0.0
H1451 H 0.09902 0.20477 0.5637 0.0
H1452 H 0.14031 0.2083 0.69864 0.0
H1453 H 0.1122 0.28367 0.55771 0.0
H1454 H 0.11019 0.20642 0.61451 0.0
H1455 H 0.12204 0.28758 0.64935 0.0
C1456 C 0.13308 0.27049 0.68929 0.0
C1457 C 0.13867 0.2482 0.70364 0.0
C1458 C 0.11076 0.22339 0.60211 0.0
C1459 C 0.12424 0.24749 0.64568 0.0
C1460 C 0.10437 0.22246 0.57307 0.0
C1461 C 0.10476 0.24411 0.55643 0.0
C1462 C 0.11738 0.24618 0.6148 0.0
C1463 C 0.11183 0.26652 0.56975 0.0
C1464 C 0.12598 0.27022 0.66024 0.0
C1465 C 0.13631 0.22593 0.68839 0.0
N1466 N 0.11778 0.26701 0.59825 0.0
N1467 N 0.12927 0.22615 0.66029 0.0
H1468 H 0.61813 0.1912 0.05123 0.0
H1469 H 0.6404 0.26924 0.19481 0.0
H1470 H 0.62401 0.27098 0.05189 0.0
H1471 H 0.65777 0.19108 0.18789 0.0
H1472 H 0.62852 0.26993 0.14382 0.0
H1473 H 0.62763 0.19065 0.10257 0.0
C1474 C 0.62151 0.20863 0.06217 0.0
C1475 C 0.62036 0.23118 0.04724 0.0
C1476 C 0.63482 0.25263 0.15354 0.0
C1477 C 0.63096 0.23067 0.10615 0.0
C1478 C 0.64139 0.25217 0.18267 0.0
C1479 C 0.65014 0.23006 0.1956 0.0
C1480 C 0.63675 0.23079 0.13733 0.0
C1481 C 0.65122 0.20854 0.17878 0.0
C1482 C 0.62694 0.20828 0.09149 0.0
C1483 C 0.6249 0.25318 0.06254 0.0
N1484 N 0.64462 0.20944 0.15052 0.0
N1485 N 0.62987 0.25238 0.09124 0.0
H1486 H 0.14767 0.5586 0.06326 0.0
H1487 H 0.11588 0.47573 0.20162 0.0
H1488 H 0.13811 0.47919 0.05967 0.0
H1489 H 0.10139 0.55455 0.19848 0.0
H1490 H 0.12945 0.47682 0.151 0.0
H1491 H 0.13513 0.55762 0.11408 0.0
C1492 C 0.14278 0.54097 0.07312 0.0
C1493 C 0.14386 0.51895 0.05717 0.0
C1494 C 0.12339 0.49387 0.16145 0.0
C1495 C 0.12991 0.51766 0.11545 0.0
C1496 C 0.11586 0.49331 0.1904 0.0
C1497 C 0.10747 0.51509 0.20429 0.0
C1498 C 0.1228 0.51642 0.14639 0.0
C1499 C 0.10764 0.5373 0.1886 0.0
C1500 C 0.13565 0.54042 0.10213 0.0
C1501 C 0.13736 0.49663 0.07109 0.0
N1502 N 0.11519 0.5374 0.16052 0.0
N1503 N 0.13083 0.49653 0.09949 0.0
H1504 H 0.302 0.19148 0.14188 0.0
H1505 H 0.38279 0.06965 0.10065 0.0
H1506 H 0.36735 0.1644 0.19491 0.0
H1507 H 0.29541 0.07418 0.09137 0.0
H1508 H 0.38222 0.10955 0.12592 0.0
H1509 H 0.30399 0.1531 0.11372 0.0
C1510 C 0.31694 0.17749 0.1473 0.0
C1511 C 0.33468 0.18093 0.17041 0.0
C1512 C 0.36327 0.10181 0.11811 0.0
C1513 C 0.33719 0.13748 0.13852 0.0
C1514 C 0.36358 0.07926 0.10353 0.0
C1515 C 0.33909 0.06876 0.09398 0.0
C1516 C 0.3384 0.11408 0.12243 0.0
C1517 C 0.31469 0.08172 0.09852 0.0
C1518 C 0.31793 0.15565 0.13145 0.0
C1519 C 0.35336 0.16222 0.17717 0.0
N1520 N 0.31495 0.10386 0.11232 0.0
N1521 N 0.35434 0.14126 0.16105 0.0
H1522 H 0.96663 0.06325 0.16082 0.0
H1523 H 0.89406 0.17405 0.08044 0.0
H1524 H 0.87957 0.07484 0.16437 0.0
H1525 H 0.97815 0.17833 0.10722 0.0
H1526 H 0.88898 0.13576 0.10781 0.0
H1527 H 0.97198 0.10408 0.13878 0.0
C1528 C 0.94867 0.07452 0.15723 0.0
C1529 C 0.92259 0.06567 0.16426 0.0
C1530 C 0.90851 0.14513 0.10776 0.0
C1531 C 0.92856 0.11204 0.1387 0.0
C1532 C 0.91152 0.16684 0.09194 0.0
C1533 C 0.93663 0.17927 0.09145 0.0
C1534 C 0.93088 0.13559 0.12283 0.0
C1535 C 0.95846 0.16925 0.10699 0.0
C1536 C 0.95176 0.09779 0.1447 0.0
C1537 C 0.90003 0.08101 0.15929 0.0
N1538 N 0.95515 0.14784 0.12193 0.0
N1539 N 0.9035 0.10337 0.14642 0.0
H1540 H 0.63196 0.82286 0.81646 0.0
H1541 H 0.72114 0.9115 0.91182 0.0
H1542 H 0.70534 0.79654 0.85695 0.0
H1543 H 0.63325 0.91473 0.9152 0.0
H1544 H 0.71801 0.87229 0.8855 0.0
H1545 H 0.63418 0.86059 0.84608 0.0
C1546 C 0.64851 0.82517 0.83157 0.0
C1547 C 0.66842 0.80684 0.83468 0.0
C1548 C 0.69947 0.88153 0.89228 0.0
C1549 C 0.67132 0.84945 0.86784 0.0
C1550 C 0.70123 0.90381 0.90721 0.0
C1551 C 0.67741 0.91616 0.91573 0.0
C1552 C 0.67374 0.87204 0.8852 0.0
C1553 C 0.65207 0.90557 0.90921 0.0
C1554 C 0.64968 0.84645 0.84849 0.0
C1555 C 0.68953 0.81037 0.85436 0.0
N1556 N 0.65086 0.88421 0.89392 0.0
N1557 N 0.69062 0.83145 0.87012 0.0
H1558 H 0.03321 0.83249 0.91496 0.0
H1559 H 0.11491 0.92206 0.81267 0.0
H1560 H 0.12044 0.82515 0.90616 0.0
H1561 H 0.05003 0.94971 0.86634 0.0
H1562 H 0.11421 0.88293 0.83997 0.0
H1563 H 0.03572 0.87275 0.89054 0.0
C1564 C 0.05287 0.83945 0.90799 0.0
C1565 C 0.07668 0.82567 0.91268 0.0
C1566 C 0.1003 0.89769 0.84583 0.0
C1567 C 0.07955 0.87108 0.88423 0.0
C1568 C 0.10062 0.91983 0.83026 0.0
C1569 C 0.08276 0.93903 0.83772 0.0
C1570 C 0.08138 0.89463 0.86825 0.0
C1571 C 0.06445 0.93539 0.86047 0.0
C1572 C 0.05429 0.86234 0.89416 0.0
C1573 C 0.10167 0.8354 0.90319 0.0
N1574 N 0.064 0.91348 0.8748 0.0
N1575 N 0.10244 0.85743 0.88902 0.0
H1576 H 0.29272 0.69595 0.63923 0.0
H1577 H 0.38211 0.57968 0.59145 0.0
H1578 H 0.36957 0.67841 0.67903 0.0
H1579 H 0.29409 0.57943 0.5913 0.0
H1580 H 0.38131 0.6216 0.61172 0.0
H1581 H 0.29698 0.65882 0.60936 0.0
C1582 C 0.31082 0.68455 0.64112 0.0
C1583 C 0.33098 0.69022 0.66128 0.0
C1584 C 0.36224 0.6124 0.60688 0.0
C1585 C 0.3358 0.64783 0.62763 0.0
C1586 C 0.36265 0.58861 0.5952 0.0
C1587 C 0.3381 0.57608 0.5899 0.0
C1588 C 0.33715 0.62381 0.61269 0.0
C1589 C 0.31345 0.58841 0.59531 0.0
C1590 C 0.31309 0.66333 0.62432 0.0
C1591 C 0.35368 0.6746 0.66357 0.0
N1592 N 0.31359 0.61164 0.60643 0.0
N1593 N 0.35553 0.65402 0.64687 0.0
H1594 H 0.97436 0.67798 0.61062 0.0
H1595 H 0.87042 0.57615 0.66988 0.0
H1596 H 0.89041 0.6724 0.58366 0.0
H1597 H 0.95758 0.56473 0.66806 0.0
H1598 H 0.8771 0.61667 0.64741 0.0
H1599 H 0.96809 0.64068 0.63999 0.0
C1600 C 0.95468 0.66887 0.61082 0.0
C1601 C 0.93294 0.6781 0.59449 0.0
C1602 C 0.89474 0.60533 0.65219 0.0
C1603 C 0.92556 0.63601 0.62829 0.0
C1604 C 0.89097 0.58233 0.66518 0.0
C1605 C 0.91346 0.56701 0.67051 0.0
C1606 C 0.92118 0.61308 0.64483 0.0
C1607 C 0.93966 0.5759 0.66398 0.0
C1608 C 0.95112 0.6477 0.62759 0.0
C1609 C 0.9078 0.66574 0.59565 0.0
N1610 N 0.94282 0.59836 0.65132 0.0
N1611 N 0.90477 0.64535 0.61235 0.0
H1612 H 0.71046 0.29632 0.36456 0.0
H1613 H 0.63134 0.41763 0.41101 0.0
H1614 H 0.6431 0.32446 0.31516 0.0
H1615 H 0.7189 0.41277 0.41846 0.0
H1616 H 0.63133 0.37835 0.38475 0.0
H1617 H 0.70995 0.33438 0.39345 0.0
C1618 C 0.69539 0.31047 0.36011 0.0
C1619 C 0.67661 0.3074 0.33785 0.0
C1620 C 0.65047 0.38587 0.39234 0.0
C1621 C 0.67583 0.35049 0.3705 0.0
C1622 C 0.65051 0.4081 0.40749 0.0
C1623 C 0.67519 0.41836 0.41691 0.0
C1624 C 0.67518 0.37361 0.38719 0.0
C1625 C 0.69947 0.40543 0.41149 0.0
C1626 C 0.69526 0.33214 0.37634 0.0
C1627 C 0.65783 0.32631 0.33228 0.0
N1628 N 0.69887 0.38357 0.39708 0.0
N1629 N 0.65771 0.34707 0.34875 0.0
H1630 H 0.11462 0.32023 0.41574 0.0
H1631 H 0.04332 0.44555 0.37137 0.0
H1632 H 0.02687 0.32585 0.41632 0.0
H1633 H 0.1102 0.41639 0.32163 0.0
H1634 H 0.0406 0.40603 0.39765 0.0
H1635 H 0.11714 0.36014 0.39064 0.0
C1636 C 0.0959 0.33002 0.4109 0.0
C1637 C 0.07048 0.31982 0.41816 0.0
C1638 C 0.05589 0.40838 0.38103 0.0
C1639 C 0.07331 0.36543 0.3899 0.0
C1640 C 0.0576 0.43086 0.36628 0.0
C1641 C 0.07717 0.43411 0.34463 0.0
C1642 C 0.07433 0.38933 0.37446 0.0
C1643 C 0.09491 0.4145 0.3383 0.0
C1644 C 0.09738 0.35263 0.39643 0.0
C1645 C 0.04684 0.33312 0.41106 0.0
N1646 N 0.0933 0.39296 0.35342 0.0
N1647 N 0.04882 0.35542 0.39753 0.0
H1648 H 0.77681 0.05378 0.6037 0.0
H1649 H 0.87173 0.159 0.67028 0.0
H1650 H 0.86154 0.06243 0.5803 0.0
H1651 H 0.7843 0.16563 0.663 0.0
H1652 H 0.86925 0.11847 0.64658 0.0
H1653 H 0.78039 0.0902 0.63452 0.0
C1654 C 0.79618 0.06336 0.60509 0.0
C1655 C 0.81886 0.05529 0.58927 0.0
C1656 C 0.85065 0.12877 0.65048 0.0
C1657 C 0.82312 0.09668 0.62461 0.0
C1658 C 0.85201 0.15172 0.66414 0.0
C1659 C 0.82819 0.16566 0.66832 0.0
C1660 C 0.82527 0.11969 0.64144 0.0
C1661 C 0.80316 0.15553 0.65988 0.0
C1662 C 0.79819 0.08409 0.62266 0.0
C1663 C 0.8435 0.06827 0.59192 0.0
N1664 N 0.80235 0.13315 0.64676 0.0
N1665 N 0.845 0.08839 0.60933 0.0
H1666 H 0.38272 0.1682 0.58898 0.0
H1667 H 0.47878 0.06197 0.65207 0.0
H1668 H 0.47018 0.17549 0.59488 0.0
H1669 H 0.39382 0.06929 0.67511 0.0
H1670 H 0.47541 0.10017 0.62398 0.0
H1671 H 0.3859 0.12781 0.61289 0.0
C1672 C 0.4026 0.16113 0.59491 0.0
C1673 C 0.42621 0.1752 0.59011 0.0
C1674 C 0.45755 0.09341 0.63526 0.0
C1675 C 0.42996 0.1293 0.6174 0.0
C1676 C 0.45945 0.07167 0.65129 0.0
C1677 C 0.43659 0.06259 0.66607 0.0
C1678 C 0.43251 0.10595 0.63371 0.0
C1679 C 0.41201 0.07581 0.66426 0.0
C1680 C 0.40437 0.13824 0.60874 0.0
C1681 C 0.45145 0.16528 0.59838 0.0
N1682 N 0.41058 0.09679 0.64823 0.0
N1683 N 0.45267 0.14293 0.61165 0.0
H1684 H 0.21495 0.82687 0.3379 0.0
H1685 H 0.13514 0.92114 0.4366 0.0
H1686 H 0.12712 0.82526 0.34264 0.0
H1687 H 0.20612 0.9442 0.3889 0.0
H1688 H 0.13415 0.88244 0.40863 0.0
H1689 H 0.21463 0.86705 0.36252 0.0
C1690 C 0.19561 0.83508 0.34396 0.0
C1691 C 0.17101 0.82286 0.3381 0.0
C1692 C 0.14981 0.89607 0.40422 0.0
C1693 C 0.17058 0.86829 0.36687 0.0
C1694 C 0.15046 0.91798 0.4202 0.0
C1695 C 0.17056 0.93579 0.41467 0.0
C1696 C 0.16994 0.89176 0.38328 0.0
C1697 C 0.19009 0.93095 0.39339 0.0
C1698 C 0.19545 0.85795 0.35794 0.0
C1699 C 0.1465 0.83423 0.3465 0.0
N1700 N 0.18948 0.90925 0.3786 0.0
N1701 N 0.14691 0.85618 0.36084 0.0
H1702 H 0.52874 0.81152 0.40538 0.0
H1703 H 0.61582 0.92006 0.33499 0.0
H1704 H 0.61533 0.81932 0.41918 0.0
H1705 H 0.52947 0.92678 0.35161 0.0
H1706 H 0.6159 0.8805 0.36075 0.0
H1707 H 0.52842 0.85174 0.3812 0.0
C1708 C 0.54764 0.8218 0.40352 0.0
C1709 C 0.5721 0.81212 0.41432 0.0
C1710 C 0.59697 0.89067 0.35872 0.0
C1711 C 0.57192 0.85783 0.3863 0.0
C1712 C 0.59685 0.91311 0.34384 0.0
C1713 C 0.57259 0.92666 0.34114 0.0
C1714 C 0.57258 0.8816 0.37056 0.0
C1715 C 0.54863 0.91691 0.35323 0.0
C1716 C 0.54743 0.84472 0.38974 0.0
C1717 C 0.596 0.82619 0.41131 0.0
N1718 N 0.5492 0.8949 0.36732 0.0
N1719 N 0.59537 0.84826 0.3973 0.0
H1720 H 0.78799 0.55158 0.1232 0.0
H1721 H 0.84839 0.68763 0.11544 0.0
H1722 H 0.84866 0.5738 0.06087 0.0
H1723 H 0.8121 0.65813 0.19277 0.0
H1724 H 0.84621 0.64666 0.09377 0.0
H1725 H 0.79356 0.59135 0.14746 0.0
C1726 C 0.80249 0.5648 0.11461 0.0
C1727 C 0.81799 0.55932 0.09002 0.0
C1728 C 0.83893 0.64906 0.11556 0.0
C1729 C 0.82423 0.60483 0.11756 0.0
C1730 C 0.84011 0.67244 0.12793 0.0
C1731 C 0.83029 0.67624 0.15589 0.0
C1732 C 0.82745 0.62937 0.13106 0.0
C1733 C 0.81995 0.65591 0.17118 0.0
C1734 C 0.80572 0.58743 0.12855 0.0
C1735 C 0.83631 0.57722 0.07975 0.0
N1736 N 0.81849 0.63331 0.15841 0.0
N1737 N 0.83883 0.59924 0.09351 0.0
H1738 H 0.38416 0.56067 0.18046 0.0
H1739 H 0.46021 0.66736 0.09619 0.0
H1740 H 0.46759 0.55458 0.15164 0.0
H1741 H 0.37254 0.66085 0.09456 0.0
H1742 H 0.4631 0.6262 0.11753 0.0
H1743 H 0.37883 0.59779 0.15042 0.0
C1744 C 0.40124 0.56707 0.16766 0.0
C1745 C 0.42634 0.55464 0.16843 0.0
C1746 C 0.44322 0.63359 0.11219 0.0
C1747 C 0.42052 0.5969 0.13451 0.0
C1748 C 0.44157 0.65709 0.10008 0.0
C1749 C 0.4161 0.66746 0.09376 0.0
C1750 C 0.41919 0.62057 0.11863 0.0
C1751 C 0.39257 0.65339 0.09908 0.0
C1752 C 0.39816 0.58809 0.15044 0.0
C1753 C 0.44785 0.56358 0.1515 0.0
N1754 N 0.39463 0.63072 0.11168 0.0
N1755 N 0.44454 0.5843 0.13544 0.0
H1756 H 0.14098 0.44859 0.88317 0.0
H1757 H 0.21298 0.31593 0.87293 0.0
H1758 H 0.1958 0.42021 0.94732 0.0
H1759 H 0.1463 0.33793 0.81824 0.0
H1760 H 0.20958 0.35548 0.89791 0.0
H1761 H 0.1448 0.40946 0.85696 0.0
C1762 C 0.15394 0.43415 0.89162 0.0
C1763 C 0.16837 0.43774 0.91716 0.0
C1764 C 0.19572 0.3517 0.88041 0.0
C1765 C 0.17275 0.39285 0.88755 0.0
C1766 C 0.19773 0.32914 0.866 0.0
C1767 C 0.17984 0.32352 0.84344 0.0
C1768 C 0.17581 0.36894 0.87215 0.0
C1769 C 0.16048 0.34142 0.83552 0.0
C1770 C 0.156 0.41177 0.87677 0.0
C1771 C 0.18436 0.4182 0.92763 0.0
N1772 N 0.15898 0.36333 0.84986 0.0
N1773 N 0.18626 0.39664 0.91269 0.0
H1774 H 0.62802 0.31978 0.92146 0.0
H1775 H 0.62136 0.41989 0.82728 0.0
H1776 H 0.54365 0.30942 0.89808 0.0
H1777 H 0.53684 0.42367 0.85322 0.0
H1778 H 0.62582 0.3808 0.85343 0.0
H1779 H 0.62731 0.36034 0.89793 0.0
C1780 C 0.60933 0.32611 0.91153 0.0
C1781 C 0.58592 0.31118 0.91147 0.0
C1782 C 0.60642 0.39037 0.85369 0.0
C1783 C 0.58515 0.3571 0.88414 0.0
C1784 C 0.60375 0.41247 0.83845 0.0
C1785 C 0.57871 0.42501 0.83817 0.0
C1786 C 0.5838 0.38075 0.8685 0.0
C1787 C 0.55654 0.41462 0.85301 0.0
C1788 C 0.60905 0.34907 0.89779 0.0
C1789 C 0.56222 0.32026 0.89836 0.0
N1790 N 0.55956 0.39296 0.86742 0.0
N1791 N 0.56242 0.3427 0.88526 0.0
H1792 H 0.27438 0.97732 0.00688 0.0
H1793 H 0.1452 0.04877 0.94366 0.0
H1794 H 0.26726 0.05696 0.004 0.0
H1795 H 0.16534 0.97416 0.91792 0.0
H1796 H 0.18644 0.05012 0.97254 0.0
H1797 H 0.23093 0.97399 0.98103 0.0
C1798 C 0.26352 0.99408 1.00114 0.0
C1799 C 0.27444 0.01748 0.00754 0.0
C1800 C 0.18187 0.03343 0.96061 0.0
C1801 C 0.22494 0.01376 0.97812 0.0
C1802 C 0.15826 0.03259 0.94414 0.0
C1803 C 0.15184 0.01134 0.92821 0.0
C1804 C 0.1992 0.01278 0.96152 0.0
C1805 C 0.16962 0.99097 0.92972 0.0
C1806 C 0.23888 0.99215 0.98622 0.0
C1807 C 0.25966 0.03856 0.9994 0.0
N1808 N 0.19252 0.99216 0.94617 0.0
N1809 N 0.23568 0.0362 0.98518 0.0
H1810 H 0.1096 0.27029 0.89823 0.0
H1811 H 0.00857 0.18516 0.99069 0.0
H1812 H 0.11926 0.19133 0.90877 0.0
H1813 H 0.00658 0.26503 0.99408 0.0
H1814 H 0.04846 0.18735 0.95947 0.0
H1815 H 0.0705 0.26903 0.93125 0.0
C1816 C 0.10338 0.25268 0.90729 0.0
C1817 C 0.11771 0.23088 0.90072 0.0
C1818 C 0.03948 0.20444 0.96717 0.0
C1819 C 0.07323 0.22934 0.93858 0.0
C1820 C 0.0167 0.20319 0.98508 0.0
C1821 C 0.00421 0.22494 0.99503 0.0
C1822 C 0.04979 0.22762 0.9588 0.0
C1823 C 0.01567 0.24779 0.98703 0.0
C1824 C 0.08121 0.25201 0.92628 0.0
C1825 C 0.10888 0.20862 0.91325 0.0
N1826 N 0.0377 0.24855 0.96917 0.0
N1827 N 0.08725 0.20843 0.9315 0.0
H1828 H 0.23491 0.24081 0.24464 0.0
H1829 H 0.15328 0.25279 0.3925 0.0
H1830 H 0.27379 0.2315 0.32688 0.0
H1831 H 0.11624 0.22425 0.31546 0.0
H1832 H 0.19746 0.25406 0.36739 0.0
H1833 H 0.19058 0.24377 0.26921 0.0
C1834 C 0.23412 0.23957 0.26783 0.0
C1835 C 0.25795 0.23568 0.28376 0.0
C1836 C 0.17957 0.24762 0.35604 0.0
C1837 C 0.20767 0.23944 0.31185 0.0
C1838 C 0.15443 0.24698 0.37028 0.0
C1839 C 0.13121 0.23823 0.35606 0.0
C1840 C 0.18125 0.23999 0.32727 0.0
C1841 C 0.13375 0.23088 0.32728 0.0
C1842 C 0.20889 0.24117 0.28179 0.0
C1843 C 0.25584 0.2342 0.31377 0.0
N1844 N 0.15831 0.23202 0.31377 0.0
N1845 N 0.23114 0.23618 0.32688 0.0
H1846 H 0.95894 0.01711 0.29924 0.0
H1847 H 0.11757 0.00033 0.2799 0.0
H1848 H 0.9927 0.991 0.21916 0.0
H1849 H 0.07771 0.9898 0.3617 0.0
H1850 H 0.07289 3e-05 0.25647 0.0
H1851 H 0.00318 0.01086 0.32201 0.0
C1852 C 0.97571 0.01008 0.28643 0.0
C1853 C 0.97224 0.00469 0.25723 0.0
C1854 C 0.074 -0.00249 0.27949 0.0
C1855 C 0.02295 -0.00234 0.28315 0.0
C1856 C 0.09942 -0.00224 0.29289 0.0
C1857 C 0.10129 0.99521 0.3228 0.0
C1858 C 0.05029 0.99526 0.29622 0.0
C1859 C 0.07718 0.99181 0.33859 0.0
C1860 C 0.00088 0.00635 0.2995 0.0
C1861 C 0.99458 0.99538 0.24173 0.0
N1862 N 0.05263 0.9923 0.32515 0.0
N1863 N 0.01916 0.99244 0.25482 0.0
H1864 H 0.86092 0.9336 0.09195 0.0
H1865 H 0.74544 0.00678 0.00523 0.0
H1866 H 0.84986 0.01263 0.09949 0.0
H1867 H 0.7467 0.92744 0.01652 0.0
H1868 H 0.78635 0.00992 0.03533 0.0
H1869 H 0.82141 0.93164 0.06053 0.0
C1870 C 0.85013 0.95059 0.08702 0.0
C1871 C 0.85874 0.97333 0.09839 0.0
C1872 C 0.77769 0.99185 0.03107 0.0
C1873 C 0.81337 0.97122 0.06205 0.0
C1874 C 0.7545 0.99001 0.01371 0.0
C1875 C 0.74262 0.9668 0.00835 0.0
C1876 C 0.7892 0.97029 0.04287 0.0
C1877 C 0.75507 0.94573 0.02013 0.0
C1878 C 0.82751 0.94944 0.06906 0.0
C1879 C 0.84384 0.9947 0.09131 0.0
N1880 N 0.77762 0.94798 0.03677 0.0
N1881 N 0.82193 0.99315 0.07345 0.0
H1882 H 0.0067 0.74371 0.00682 0.0
H1883 H 0.89077 0.82333 0.08488 0.0
H1884 H 0.0088 0.82356 0.01039 0.0
H1885 H 0.90678 0.7466 0.10479 0.0
H1886 H 0.93097 0.82361 0.05342 0.0
H1887 H 0.96615 0.74409 0.03768 0.0
C1888 C 0.99843 0.76133 0.01377 0.0
C1889 C 0.01118 0.78364 0.00603 0.0
C1890 C 0.92574 0.80678 0.06483 0.0
C1891 C 0.9649 0.78419 0.04147 0.0
C1892 C 0.90285 0.80662 0.08283 0.0
C1893 C 0.89542 0.78494 0.09756 0.0
C1894 C 0.94104 0.78499 0.06116 0.0
C1895 C 0.91181 0.76379 0.09402 0.0
C1896 C 0.97544 0.76152 0.03159 0.0
C1897 C 0.99969 0.80592 0.0159 0.0
N1898 N 0.93367 0.76429 0.07601 0.0
N1899 N 0.97719 0.80564 0.03306 0.0
H1900 H 0.86325 0.8036 0.64547 0.0
H1901 H 0.75633 0.72394 0.73681 0.0
H1902 H 0.8652 0.7237 0.64716 0.0
H1903 H 0.74377 0.80031 0.71278 0.0
H1904 H 0.79842 0.72357 0.70798 0.0
H1905 H 0.82127 0.80282 0.67364 0.0
C1906 C 0.85477 0.78586 0.65171 0.0
C1907 C 0.86775 0.76369 0.64397 0.0
C1908 C 0.7864 0.74037 0.70908 0.0
C1909 C 0.8197 0.76264 0.67658 0.0
C1910 C 0.7625 0.74064 0.72566 0.0
C1911 C 0.74651 0.76219 0.72722 0.0
C1912 C 0.79446 0.76188 0.6943 0.0
C1913 C 0.75538 0.78326 0.71217 0.0
C1914 C 0.83076 0.78542 0.66778 0.0
C1915 C 0.85576 0.74123 0.65256 0.0
N1916 N 0.77873 0.78258 0.69647 0.0
N1917 N 0.83247 0.74127 0.66862 0.0
H1918 H 0.88912 0.93949 0.65161 0.0
H1919 H 0.99396 0.02326 0.73984 0.0
H1920 H 0.88671 0.01933 0.64783 0.0
H1921 H 0.00648 0.94592 0.7205 0.0
H1922 H 0.95223 0.02251 0.71058 0.0
H1923 H 0.93001 0.94183 0.68088 0.0
C1924 C 0.89726 0.95757 0.65688 0.0
C1925 C 0.88448 0.97925 0.6472 0.0
C1926 C 0.96417 0.00575 0.71285 0.0
C1927 C 0.93142 0.98209 0.68114 0.0
C1928 C 0.98783 0.00611 0.72969 0.0
C1929 C 0.00372 0.98461 0.73263 0.0
C1930 C 0.95627 0.98366 0.69924 0.0
C1931 C 0.99496 0.96296 0.7188 0.0
C1932 C 0.92068 0.9589 0.67361 0.0
C1933 C 0.89605 0.00216 0.65469 0.0
N1934 N 0.97188 0.96305 0.70284 0.0
N1935 N 0.91882 0.00301 0.67141 0.0
H1936 H 0.29386 0.51795 0.45622 0.0
H1937 H 0.13513 0.50262 0.47855 0.0
H1938 H 0.2603 0.49903 0.53911 0.0
H1939 H 0.17447 0.48733 0.39752 0.0
H1940 H 0.17995 0.50402 0.50158 0.0
H1941 H 0.24948 0.51008 0.43451 0.0
C1942 C 0.2771 0.51218 0.46989 0.0
C1943 C 0.28071 0.50929 0.49956 0.0
C1944 C 0.17871 0.50007 0.47884 0.0
C1945 C 0.22978 0.50036 0.47478 0.0
C1946 C 0.15319 0.49933 0.46566 0.0
C1947 C 0.15111 0.49497 0.43605 0.0
C1948 C 0.20233 0.49696 0.46216 0.0
C1949 C 0.17514 0.49072 0.4204 0.0
C1950 C 0.25184 0.50751 0.45742 0.0
C1951 C 0.25835 0.50151 0.51616 0.0
N1952 N 0.1998 0.49219 0.43357 0.0
N1953 N 0.23369 0.49758 0.50358 0.0
H1954 H 0.10197 0.77004 0.39515 0.0
H1955 H 0.00465 0.6832 0.48996 0.0
H1956 H 0.11449 0.69157 0.40716 0.0
H1957 H 1.00002 0.763 0.49235 0.0
H1958 H 0.04415 0.68619 0.45827 0.0
H1959 H 0.06319 0.76811 0.42859 0.0
C1960 C 0.09646 0.7524 0.40463 0.0
C1961 C 0.11149 0.73093 0.39834 0.0
C1962 C 0.03466 0.70309 0.46584 0.0
C1963 C 0.06737 0.72863 0.43664 0.0
C1964 C 0.0121 0.70139 0.48401 0.0
C1965 C 0.99899 0.72288 0.49384 0.0
C1966 C 0.04414 0.72647 0.45707 0.0
C1967 C 0.0096 0.74595 0.4854 0.0
C1968 C 0.07446 0.75135 0.42385 0.0
C1969 C 0.10356 0.70861 0.4114 0.0
N1970 N 0.03144 0.74715 0.4673 0.0
N1971 N 0.08209 0.70805 0.42984 0.0
H1972 H 0.2438 0.76446 0.76171 0.0
H1973 H 0.13014 0.69117 0.85117 0.0
H1974 H 0.24615 0.6855 0.77609 0.0
H1975 H 0.14073 0.77039 0.85665 0.0
H1976 H 0.17005 0.68881 0.81982 0.0
H1977 H 0.20291 0.76701 0.79188 0.0
C1978 C 0.23553 0.74762 0.7709 0.0
C1979 C 0.24843 0.72471 0.76637 0.0
C1980 C 0.16372 0.70671 0.82795 0.0
C1981 C 0.20179 0.72756 0.80105 0.0
C1982 C 0.14093 0.70808 0.84586 0.0
C1983 C 0.13211 0.73102 0.85658 0.0
C1984 C 0.17768 0.72847 0.82037 0.0
C1985 C 0.14692 0.75231 0.849 0.0
C1986 C 0.21233 0.74913 0.78831 0.0
C1987 C 0.23693 0.70354 0.77904 0.0
N1988 N 0.1689 0.75054 0.8312 0.0
N1989 N 0.21428 0.70548 0.79578 0.0
H1990 H 0.1054 0.4981 0.78137 0.0
H1991 H 0.94724 0.51392 0.80404 0.0
H1992 H 0.06712 0.48705 0.86392 0.0
H1993 H 0.98004 0.48971 0.72273 0.0
H1994 H 0.9917 0.50695 0.82606 0.0
H1995 H 0.06037 0.49723 0.75881 0.0
C1996 C 0.08753 0.49524 0.7947 0.0
C1997 C 0.08992 0.49282 0.82457 0.0
C1998 C 0.98913 0.50298 0.80345 0.0
C1999 C 0.03853 0.49221 0.799 0.0
C2000 C 0.96384 0.50713 0.79082 0.0
C2001 C 0.96007 0.50253 0.76149 0.0
C2002 C 0.01098 0.49467 0.78652 0.0
C2003 C 0.98217 0.49349 0.74542 0.0
C2004 C 0.0619 0.49467 0.78181 0.0
C2005 C 0.06617 0.48901 0.84083 0.0
N2006 N 0.00687 0.49015 0.75808 0.0
N2007 N 0.04139 0.48921 0.82787 0.0
H2008 H 0.752 0.48804 0.48104 0.0
H2009 H 0.82723 0.4996 0.63236 0.0
H2010 H 0.7117 0.47328 0.56171 0.0
H2011 H 0.86946 0.47655 0.55552 0.0
H2012 H 0.78425 0.49982 0.6054 0.0
H2013 H 0.79523 0.49343 0.50704 0.0
C2014 C 0.75223 0.48611 0.50418 0.0
C2015 C 0.72837 0.47996 0.51925 0.0
C2016 C 0.80301 0.49489 0.59447 0.0
C2017 C 0.77729 0.48653 0.54896 0.0
C2018 C 0.82748 0.49486 0.60978 0.0
C2019 C 0.85182 0.48784 0.59618 0.0
C2020 C 0.80305 0.48835 0.56529 0.0
C2021 C 0.85105 0.48181 0.56688 0.0
C2022 C 0.77682 0.48912 0.51894 0.0
C2023 C 0.72972 0.4777 0.54923 0.0
N2024 N 0.82706 0.48225 0.55236 0.0
N2025 N 0.75373 0.48107 0.56312 0.0
H2026 H 0.00353 0.22805 0.50974 0.0
H2027 H 0.8892 0.3001 0.60036 0.0
H2028 H 0.00129 0.30736 0.52085 0.0
H2029 H 0.89985 0.22089 0.6057 0.0
H2030 H 0.92834 0.3025 0.56818 0.0
H2031 H 0.96326 0.22444 0.54105 0.0
C2032 C 0.99439 0.24471 0.51843 0.0
C2033 C 0.00582 0.26806 0.51264 0.0
C2034 C 0.92226 0.28456 0.57642 0.0
C2035 C 0.95997 0.26403 0.5486 0.0
C2036 C 0.89986 0.28317 0.59486 0.0
C2037 C 0.89121 0.26025 0.60582 0.0
C2038 C 0.93616 0.26285 0.56851 0.0
C2039 C 0.90592 0.23897 0.5979 0.0
C2040 C 0.97156 0.24261 0.53649 0.0
C2041 C 0.99327 0.28898 0.52474 0.0
N2042 N 0.92761 0.24075 0.57959 0.0
N2043 N 0.97111 0.28646 0.54207 0.0
H2044 H 0.74886 0.3026 0.21707 0.0
H2045 H 0.86846 0.22316 0.14525 0.0
H2046 H 0.76011 0.22492 0.23558 0.0
H2047 H 0.86804 0.30301 0.14954 0.0
H2048 H 0.82625 0.2224 0.17386 0.0
H2049 H 0.7903 0.30209 0.18816 0.0
C2050 C 0.76012 0.28541 0.21514 0.0
C2051 C 0.75103 0.26377 0.22884 0.0
C2052 C 0.83544 0.24004 0.16846 0.0
C2053 C 0.79854 0.26302 0.1954 0.0
C2054 C 0.85937 0.2405 0.15199 0.0
C2055 C 0.87178 0.26319 0.14509 0.0
C2056 C 0.82374 0.26244 0.17769 0.0
C2057 C 0.85927 0.2851 0.1545 0.0
C2058 C 0.78382 0.28515 0.19861 0.0
C2059 C 0.7665 0.24205 0.22553 0.0
N2060 N 0.83596 0.28417 0.17024 0.0
N2061 N 0.78947 0.24218 0.20898 0.0
H2062 H 0.88918 0.5172 0.14815 0.0
H2063 H 0.00979 0.44108 0.22249 0.0
H2064 H 0.89392 0.43741 0.1505 0.0
H2065 H 0.99539 0.51829 0.24111 0.0
H2066 H 0.96946 0.44065 0.19232 0.0
H2067 H 0.93039 0.51927 0.17802 0.0
C2068 C 0.89903 0.50016 0.15468 0.0
C2069 C 0.88811 0.47708 0.14685 0.0
C2070 C 0.97497 0.45771 0.20304 0.0
C2071 C 0.935 0.47933 0.18097 0.0
C2072 C 0.99807 0.45799 0.22031 0.0
C2073 C 0.00598 0.47976 0.23444 0.0
C2074 C 0.95962 0.47943 0.19948 0.0
C2075 C 0.9899 0.50107 0.23076 0.0
C2076 C 0.92238 0.50135 0.17189 0.0
C2077 C 0.90154 0.45559 0.15611 0.0
N2078 N 0.96751 0.50042 0.21348 0.0
N2079 N 0.92422 0.45725 0.17259 0.0
H2080 H 0.74652 0.05522 0.48826 0.0
H2081 H 0.64262 0.97434 0.39514 0.0
H2082 H 0.7472 0.97529 0.48883 0.0
H2083 H 0.63401 0.0529 0.40979 0.0
H2084 H 0.68222 0.97402 0.42727 0.0
H2085 H 0.70596 0.05443 0.45821 0.0
C2086 C 0.73796 0.03746 0.48228 0.0
C2087 C 0.75028 0.01529 0.49109 0.0
C2088 C 0.67162 0.99129 0.42341 0.0
C2089 C 0.70391 0.01423 0.45617 0.0
C2090 C 0.64916 0.99153 0.40492 0.0
C2091 C 0.63499 0.01369 0.39974 0.0
C2092 C 0.68007 0.01342 0.43657 0.0
C2093 C 0.64424 0.03537 0.41317 0.0
C2094 C 0.7148 0.03702 0.46504 0.0
C2095 C 0.73826 0.99283 0.48266 0.0
N2096 N 0.66616 0.03468 0.43087 0.0
N2097 N 0.71585 0.99286 0.46544 0.0
H2098 H 0.49346 0.19008 0.50404 0.0
H2099 H 0.59652 0.27484 0.41565 0.0
H2100 H 0.48722 0.26979 0.50535 0.0
H2101 H 0.61535 0.20048 0.44342 0.0
H2102 H 0.55485 0.2736 0.4452 0.0
H2103 H 0.53687 0.19358 0.47868 0.0
C2104 C 0.50136 0.20835 0.49915 0.0
C2105 C 0.48676 0.22967 0.50682 0.0
C2106 C 0.56827 0.25767 0.44488 0.0
C2107 C 0.53632 0.23384 0.47733 0.0
C2108 C 0.59194 0.25832 0.42796 0.0
C2109 C 0.60939 0.23771 0.42699 0.0
C2110 C 0.56193 0.23614 0.46052 0.0
C2111 C 0.60255 0.21682 0.44346 0.0
C2112 C 0.52617 0.21035 0.4847 0.0
C2113 C 0.49797 0.2529 0.49997 0.0
N2114 N 0.57931 0.21651 0.45932 0.0
N2115 N 0.52199 0.25439 0.48529 0.0
H2116 H 0.76476 0.17557 0.76513 0.0
H2117 H 0.65825 0.26097 0.85006 0.0
H2118 H 0.76468 0.25524 0.75754 0.0
H2119 H 0.64948 0.18195 0.83955 0.0
H2120 H 0.69887 0.25972 0.819 0.0
H2121 H 0.7237 0.17797 0.7946 0.0
C2122 C 0.75598 0.1936 0.7695 0.0
C2123 C 0.76819 0.21523 0.75881 0.0
C2124 C 0.688 0.24269 0.82353 0.0
C2125 C 0.72117 0.21817 0.79303 0.0
C2126 C 0.66494 0.24337 0.84139 0.0
C2127 C 0.65043 0.22153 0.84741 0.0
C2128 C 0.69671 0.21999 0.8119 0.0
C2129 C 0.65993 0.19927 0.83545 0.0
C2130 C 0.7325 0.19497 0.78638 0.0
C2131 C 0.75584 0.23808 0.7652 0.0
N2132 N 0.68242 0.19908 0.81839 0.0
N2133 N 0.7331 0.23898 0.7821 0.0
H2134 H 0.50426 0.97356 0.76095 0.0
H2135 H 0.62072 0.04631 0.84677 0.0
H2136 H 0.50766 0.05305 0.76982 0.0
H2137 H 0.60941 0.96732 0.85455 0.0
H2138 H 0.58121 0.04839 0.8154 0.0
H2139 H 0.54501 0.97015 0.79131 0.0
C2140 C 0.51375 0.99029 0.76895 0.0
C2141 C 0.50251 0.01364 0.76282 0.0
C2142 C 0.58723 0.03057 0.82398 0.0
C2143 C 0.5489 0.00985 0.79767 0.0
C2144 C 0.60985 0.02936 0.84195 0.0
C2145 C 0.61842 0.0066 0.85336 0.0
C2146 C 0.57301 0.00883 0.817 0.0
C2147 C 0.60342 0.98528 0.84635 0.0
C2148 C 0.53686 0.98831 0.78646 0.0
C2149 C 0.51552 0.03466 0.774 0.0
N2150 N 0.5815 0.98688 0.82849 0.0
N2151 N 0.53793 0.03226 0.79083 0.0
H2152 H 0.26808 -0.00357 0.49094 0.0
H2153 H 0.35038 0.00639 0.63878 0.0
H2154 H 0.22859 0.99497 0.5738 0.0
H2155 H 0.38529 0.97583 0.56142 0.0
H2156 H 0.30658 0.01093 0.61374 0.0
H2157 H 0.31255 -0.00235 0.51513 0.0
C2158 C 0.26876 -0.00336 0.51417 0.0
C2159 C 0.24464 0.99537 0.53038 0.0
C2160 C 0.32393 0.00335 0.60228 0.0
C2161 C 0.29523 -0.00298 0.5581 0.0
C2162 C 0.34888 0.00082 0.61652 0.0
C2163 C 0.3714 0.99049 0.60225 0.0
C2164 C 0.32169 -0.00405 0.57345 0.0
C2165 C 0.36836 0.98361 0.57336 0.0
C2166 C 0.29408 -0.00278 0.52794 0.0
C2167 C 0.24669 -0.00435 0.56046 0.0
N2168 N 0.34401 0.9865 0.55991 0.0
N2169 N 0.27151 -0.00353 0.57334 0.0
H2170 H 0.38326 0.79471 0.56649 0.0
H2171 H 0.50924 0.71889 0.50185 0.0
H2172 H 0.39955 0.7192 0.59179 0.0
H2173 H 0.50425 0.79866 0.50398 0.0
H2174 H 0.46581 0.71671 0.52843 0.0
H2175 H 0.4243 0.79441 0.53716 0.0
C2176 C 0.39545 0.77798 0.56585 0.0
C2177 C 0.38797 0.75696 0.58178 0.0
C2178 C 0.47424 0.73463 0.5229 0.0
C2179 C 0.43524 0.75652 0.5479 0.0
C2180 C 0.49885 0.7359 0.50757 0.0
C2181 C 0.51035 0.75901 0.50074 0.0
C2182 C 0.46095 0.75663 0.53098 0.0
C2183 C 0.4962 0.78046 0.50889 0.0
C2184 C 0.41898 0.77786 0.54909 0.0
C2185 C 0.40467 0.73586 0.58 0.0
N2186 N 0.47229 0.77874 0.52349 0.0
N2187 N 0.42757 0.73614 0.56328 0.0
H2188 H 0.35498 0.80239 0.16298 0.0
H2189 H 0.23724 0.73169 0.24998 0.0
H2190 H 0.34329 0.72332 0.15734 0.0
H2191 H 0.23967 0.81085 0.23733 0.0
H2192 H 0.27852 0.72771 0.2203 0.0
H2193 H 0.31486 0.80528 0.19377 0.0
C2194 C 0.34391 0.78559 0.16815 0.0
C2195 C 0.35253 0.76257 0.1575 0.0
C2196 C 0.27004 0.74594 0.22416 0.0
C2197 C 0.30648 0.76574 0.19316 0.0
C2198 C 0.24662 0.74825 0.24129 0.0
C2199 C 0.23496 0.77165 0.24616 0.0
C2200 C 0.28201 0.76721 0.21209 0.0
C2201 C 0.24787 0.79243 0.23412 0.0
C2202 C 0.32095 0.78727 0.18577 0.0
C2203 C 0.33728 0.74147 0.16494 0.0
N2204 N 0.27062 0.78971 0.21771 0.0
N2205 N 0.31505 0.74353 0.18245 0.0
H2206 H 0.50614 0.93164 0.24206 0.0
H2207 H 0.4043 0.01607 0.15069 0.0
H2208 H 0.50684 0.01149 0.24623 0.0
H2209 H 0.39342 0.93748 0.16341 0.0
H2210 H 0.4435 0.01492 0.18327 0.0
H2211 H 0.46585 0.93355 0.21158 0.0
C2212 C 0.49766 0.9496 0.23676 0.0
C2213 C 0.50988 0.97143 0.24672 0.0
C2214 C 0.43249 -0.00205 0.17891 0.0
C2215 C 0.46389 0.97379 0.21137 0.0
C2216 C 0.41025 -0.00143 0.16018 0.0
C2217 C 0.39557 0.97683 0.15431 0.0
C2218 C 0.44023 0.97541 0.19161 0.0
C2219 C 0.40407 0.9547 0.16735 0.0
C2220 C 0.47465 0.95068 0.21931 0.0
C2221 C 0.49798 0.99418 0.23915 0.0
N2222 N 0.42583 0.95456 0.18529 0.0
N2223 N 0.47576 0.99479 0.22171 0.0
H2224 H 0.64475 0.47164 0.89594 0.0
H2225 H 0.73976 0.55214 0.99957 0.0
H2226 H 0.63234 0.54921 0.91419 0.0
H2227 H 0.74671 0.47268 0.99299 0.0
H2228 H 0.70017 0.55091 0.9682 0.0
H2229 H 0.68268 0.47121 0.93028 0.0
C2230 C 0.6501 0.48859 0.90699 0.0
C2231 C 0.63537 0.51051 0.90212 0.0
C2232 C 0.71013 0.53366 0.97376 0.0
C2233 C 0.67848 0.5101 0.94152 0.0
C2234 C 0.73272 0.53435 0.99179 0.0
C2235 C 0.74657 0.51248 0.99893 0.0
C2236 C 0.70136 0.51094 0.96238 0.0
C2237 C 0.73651 0.48997 0.98818 0.0
C2238 C 0.67161 0.48829 0.92672 0.0
C2239 C 0.64306 0.53187 0.91721 0.0
N2240 N 0.71465 0.48979 0.97019 0.0
N2241 N 0.66403 0.53112 0.93613 0.0
H2242 H 0.61028 0.69613 0.94274 0.0
H2243 H 0.47922 0.76187 0.01093 0.0
H2244 H 0.58504 0.76953 0.91736 0.0
H2245 H 0.49105 0.68269 0.0091 0.0
H2246 H 0.52161 0.76703 0.98327 0.0
H2247 H 0.57022 0.69302 0.97352 0.0
C2248 C 0.59634 0.71167 0.94368 0.0
C2249 C 0.60101 0.73311 0.9273 0.0
C2250 C 0.51496 0.74858 0.98913 0.0
C2251 C 0.55497 0.72965 0.96286 0.0
C2252 C 0.49094 0.74561 0.00511 0.0
C2253 C 0.48161 0.72179 0.01232 0.0
C2254 C 0.52992 0.72759 0.98073 0.0
C2255 C 0.49743 0.70138 0.00394 0.0
C2256 C 0.5734 0.70983 0.96126 0.0
C2257 C 0.58214 0.75261 0.92947 0.0
N2258 N 0.52078 0.70475 0.98866 0.0
N2259 N 0.55993 0.75045 0.94701 0.0
H2260 H 0.62679 0.68597 0.33365 0.0
H2261 H 0.74801 0.76322 0.26048 0.0
H2262 H 0.64195 0.76289 0.35318 0.0
H2263 H 0.73846 0.68397 0.25377 0.0
H2264 H 0.70682 0.76483 0.29057 0.0
H2265 H 0.66565 0.68617 0.30109 0.0
C2266 C 0.63833 0.70295 0.33113 0.0
C2267 C 0.6311 0.72444 0.34625 0.0
C2268 C 0.71369 0.74714 0.28233 0.0
C2269 C 0.67579 0.72483 0.30865 0.0
C2270 C 0.73705 0.74623 0.26497 0.0
C2271 C 0.74672 0.7234 0.25465 0.0
C2272 C 0.69986 0.7251 0.28918 0.0
C2273 C 0.73185 0.70196 0.26135 0.0
C2274 C 0.66057 0.70304 0.31247 0.0
C2275 C 0.64689 0.74586 0.34206 0.0
N2276 N 0.70927 0.70333 0.2782 0.0
N2277 N 0.6685 0.74554 0.32359 0.0
H2278 H 0.50802 0.55601 0.27247 0.0
H2279 H 0.61195 0.46902 0.35713 0.0
H2280 H 0.50756 0.47635 0.26458 0.0
H2281 H 0.62561 0.54712 0.34328 0.0
H2282 H 0.57167 0.47136 0.32616 0.0
H2283 H 0.54979 0.55321 0.30074 0.0
C2284 C 0.51686 0.53794 0.27646 0.0
C2285 C 0.5043 0.51639 0.26614 0.0
C2286 C 0.58356 0.48794 0.32987 0.0
C2287 C 0.55184 0.51301 0.29891 0.0
C2288 C 0.60642 0.48665 0.34767 0.0
C2289 C 0.62214 0.5079 0.35275 0.0
C2290 C 0.57624 0.5107 0.31741 0.0
C2291 C 0.61415 0.53025 0.33985 0.0
C2292 C 0.54068 0.53635 0.29262 0.0
C2293 C 0.51664 0.49346 0.27199 0.0
N2294 N 0.59171 0.53108 0.32289 0.0
N2295 N 0.5396 0.49234 0.28823 0.0
H2296 H 0.37458 0.45282 0.07802 0.0
H2297 H 0.25072 0.5312 0.01444 0.0
H2298 H 0.36112 0.52865 0.10388 0.0
H2299 H 0.25218 0.45147 0.02077 0.0
H2300 H 0.2945 0.53273 0.04034 0.0
H2301 H 0.33318 0.45428 0.04975 0.0
C2302 C 0.36294 0.46987 0.07771 0.0
C2303 C 0.3713 0.49062 0.09351 0.0
C2304 C 0.28516 0.51497 0.0359 0.0
C2305 C 0.32357 0.49239 0.06087 0.0
C2306 C 0.26038 0.51407 0.02099 0.0
C2307 C 0.24785 0.49116 0.0155 0.0
C2308 C 0.29754 0.49279 0.04479 0.0
C2309 C 0.26103 0.46953 0.02465 0.0
C2310 C 0.3392 0.47065 0.06157 0.0
C2311 C 0.35528 0.51218 0.09217 0.0
N2312 N 0.28512 0.47088 0.03871 0.0
N2313 N 0.3321 0.51255 0.07604 0.0
H2314 H 0.39162 0.28886 0.06084 0.0
H2315 H 0.52204 0.21747 0.99901 0.0
H2316 H 0.4141 0.21586 0.09036 0.0
H2317 H 0.51176 0.2968 0.99594 0.0
H2318 H 0.47886 0.21419 0.02578 0.0
H2319 H 0.43203 0.28962 0.03041 0.0
C2320 C 0.40503 0.27291 0.0609 0.0
C2321 C 0.39951 0.2523 0.07836 0.0
C2322 C 0.48604 0.23226 0.01903 0.0
C2323 C 0.44595 0.25305 0.04322 0.0
C2324 C 0.5105 0.23413 0.00357 0.0
C2325 C 0.52049 0.25747 0.9953 0.0
C2326 C 0.47134 0.25384 0.0258 0.0
C2327 C 0.50489 0.27847 1.00201 0.0
C2328 C 0.42816 0.2734 0.0435 0.0
C2329 C 0.41768 0.23219 0.0774 0.0
N2330 N 0.48114 0.27615 0.01682 0.0
N2331 N 0.44013 0.23304 0.06007 0.0
H2332 H 0.34123 0.24672 0.62649 0.0
H2333 H 0.26147 0.2515 0.77635 0.0
H2334 H 0.38278 0.25814 0.70685 0.0
H2335 H 0.22671 0.278 0.69713 0.0
H2336 H 0.30495 0.24438 0.75102 0.0
H2337 H 0.2974 0.2483 0.65221 0.0
C2338 C 0.34113 0.24923 0.64955 0.0
C2339 C 0.36559 0.25251 0.66456 0.0
C2340 C 0.28769 0.25168 0.73928 0.0
C2341 C 0.3158 0.25405 0.694 0.0
C2342 C 0.26296 0.2557 0.75367 0.0
C2343 C 0.24061 0.26562 0.73888 0.0
C2344 C 0.28975 0.25704 0.70981 0.0
C2345 C 0.24356 0.27066 0.70945 0.0
C2346 C 0.31618 0.25025 0.66416 0.0
C2347 C 0.36433 0.25579 0.69444 0.0
N2348 N 0.26761 0.26622 0.69586 0.0
N2349 N 0.33986 0.25644 0.70821 0.0
H2350 H 0.50437 0.51356 0.75225 0.0
H2351 H 0.38257 0.44315 0.67278 0.0
H2352 H 0.49875 0.43401 0.74533 0.0
H2353 H 0.40019 0.52062 0.6591 0.0
H2354 H 0.42172 0.44037 0.70474 0.0
H2355 H 0.46242 0.51735 0.72408 0.0
C2356 C 0.49409 0.49689 0.74521 0.0
C2357 C 0.5051 0.47342 0.75108 0.0
C2358 C 0.41706 0.45799 0.69476 0.0
C2359 C 0.45732 0.47765 0.71874 0.0
C2360 C 0.39467 0.45962 0.67651 0.0
C2361 C 0.38814 0.48215 0.66317 0.0
C2362 C 0.43297 0.4791 0.7 0.0
C2363 C 0.40461 0.50284 0.66881 0.0
C2364 C 0.4703 0.49909 0.72893 0.0
C2365 C 0.49105 0.45247 0.74121 0.0
N2366 N 0.42626 0.50085 0.68688 0.0
N2367 N 0.46795 0.45508 0.7255 0.0
loop_
_geom_bond_atom_site_label_1
_geom_bond_atom_site_label_2
_geom_bond_distance
_geom_bond_site_symmetry_2
_ccdc_geom_bond_type
Zn0 O6 1.969 . S
Zn0 O7 1.965 1_565 S
Zn0 O11 2.024 1_565 S
Zn0 O16 1.969 . S
Zn1 O8 1.969 . S
Zn1 O14 1.969 . S
Zn1 O15 1.965 1_545 S
Zn1 O17 2.024 1_545 S
C2 O3 1.229 . S
C2 O11 1.058 1_565 S
O3 C2 1.229 . S
C4 O5 1.229 1_554 S
C4 O17 1.058 1_545 S
O5 C4 1.229 1_556 S
O6 Zn0 1.969 . S
O6 C9 1.267 1_565 S
O7 Zn0 1.965 1_545 S
O7 C18 1.260 . S
O8 Zn1 1.969 . S
O8 C18 1.258 . S
C9 O6 1.267 1_545 S
C9 O10 1.228 . S
O10 C9 1.228 . S
O11 Zn0 2.024 1_545 S
O11 C2 1.058 1_545 S
C12 O13 1.200 1_545 S
C12 O14 1.290 1_556 S
O13 C12 1.200 1_565 S
O14 Zn1 1.969 . S
O14 C12 1.290 1_554 S
O15 Zn1 1.965 1_565 S
O15 C19 1.260 . S
O16 Zn0 1.969 . S
O16 C19 1.258 . S
O17 Zn1 2.024 1_565 S
O17 C4 1.058 1_565 S
C18 O7 1.260 . S
C18 O8 1.258 . S
C19 O15 1.260 . S
C19 O16 1.258 . S
Zn20 O26 1.969 . S
Zn20 O27 1.965 . S
Zn20 O31 2.024 . S
Zn20 O36 1.969 . S
Zn21 O28 1.969 . S
Zn21 O34 1.969 . S
Zn21 O35 1.965 . S
Zn21 O37 2.024 . S
C22 O23 1.229 . S
C22 O31 1.058 . S
O23 C22 1.229 . S
C24 O25 1.229 1_554 S
C24 O37 1.058 . S
O25 C24 1.229 1_556 S
O26 Zn20 1.969 . S
O26 C29 1.267 . S
O27 Zn20 1.965 . S
O27 C38 1.260 . S
O28 Zn21 1.969 . S
O28 C38 1.258 . S
C29 O26 1.267 . S
C29 O30 1.228 . S
O30 C29 1.228 . S
O31 Zn20 2.024 . S
O31 C22 1.058 . S
C32 O33 1.228 . S
C32 O34 1.267 1_556 S
O33 C32 1.228 . S
O34 Zn21 1.969 . S
O34 C32 1.267 1_554 S
O35 Zn21 1.965 . S
O35 C39 1.260 . S
O36 Zn20 1.969 . S
O36 C39 1.258 . S
O37 Zn21 2.024 . S
O37 C24 1.058 . S
C38 O27 1.260 . S
C38 O28 1.258 . S
C39 O35 1.260 . S
C39 O36 1.258 . S
Zn40 O46 1.969 . S
Zn40 O47 1.965 . S
Zn40 O51 2.024 . S
Zn40 O56 1.969 . S
Zn41 O48 1.969 . S
Zn41 O54 1.969 . S
Zn41 O55 1.965 . S
Zn41 O57 2.024 . S
C42 O43 1.229 . S
C42 O51 1.058 . S
O43 C42 1.229 . S
C44 O45 1.229 . S
C44 O57 1.058 . S
O45 C44 1.229 . S
O46 Zn40 1.969 . S
O46 C49 1.267 . S
O47 Zn40 1.965 . S
O47 C58 1.260 . S
O48 Zn41 1.969 . S
O48 C58 1.258 . S
C49 O46 1.267 . S
C49 O50 1.228 . S
O50 C49 1.228 . S
O51 Zn40 2.024 . S
O51 C42 1.058 . S
C52 O53 1.228 . S
C52 O54 1.267 . S
O53 C52 1.228 . S
O54 Zn41 1.969 . S
O54 C52 1.267 . S
O55 Zn41 1.965 . S
O55 C59 1.260 . S
O56 Zn40 1.969 . S
O56 C59 1.258 . S
O57 Zn41 2.024 . S
O57 C44 1.058 . S
C58 O47 1.260 . S
C58 O48 1.258 . S
C59 O55 1.260 . S
C59 O56 1.258 . S
Zn60 O66 1.969 . S
Zn60 O67 1.965 1_565 S
Zn60 O71 2.024 1_565 S
Zn60 O76 1.969 . S
Zn61 O68 1.969 . S
Zn61 O74 1.969 . S
Zn61 O75 1.965 1_545 S
Zn61 O77 2.024 1_545 S
C62 O63 1.229 . S
C62 O71 1.058 1_565 S
O63 C62 1.229 . S
C64 O65 1.229 . S
C64 O77 1.058 1_545 S
O65 C64 1.229 . S
O66 Zn60 1.969 . S
O66 C69 1.267 1_565 S
O67 Zn60 1.965 1_545 S
O67 C78 1.260 . S
O68 Zn61 1.969 . S
O68 C78 1.258 . S
C69 O66 1.267 1_545 S
C69 O70 1.228 . S
O70 C69 1.228 . S
O71 Zn60 2.024 1_545 S
O71 C62 1.058 1_545 S
C72 O73 1.200 1_545 S
C72 O74 1.290 . S
O73 C72 1.200 1_565 S
O74 Zn61 1.969 . S
O74 C72 1.290 . S
O75 Zn61 1.965 1_565 S
O75 C79 1.260 . S
O76 Zn60 1.969 . S
O76 C79 1.258 . S
O77 Zn61 2.024 1_565 S
O77 C64 1.058 1_565 S
C78 O67 1.260 . S
C78 O68 1.258 . S
C79 O75 1.260 . S
C79 O76 1.258 . S
Zn80 O86 1.969 . S
Zn80 O87 1.965 1_565 S
Zn80 O91 2.024 1_565 S
Zn80 O96 1.969 . S
Zn81 O88 1.969 . S
Zn81 O94 1.969 . S
Zn81 O95 1.965 1_545 S
Zn81 O97 2.024 1_545 S
C82 O83 1.229 1_556 S
C82 O91 1.058 1_565 S
O83 C82 1.229 1_554 S
C84 O85 1.229 . S
C84 O97 1.058 1_545 S
O85 C84 1.229 . S
O86 Zn80 1.969 . S
O86 C89 1.290 1_556 S
O87 Zn80 1.965 1_545 S
O87 C98 1.260 . S
O88 Zn81 1.969 . S
O88 C98 1.258 . S
C89 O86 1.290 1_554 S
C89 O90 1.200 1_565 S
O90 C89 1.200 1_545 S
O91 Zn80 2.024 1_545 S
O91 C82 1.058 1_545 S
C92 O93 1.228 . S
C92 O94 1.267 1_565 S
O93 C92 1.228 . S
O94 Zn81 1.969 . S
O94 C92 1.267 1_545 S
O95 Zn81 1.965 1_565 S
O95 C99 1.260 . S
O96 Zn80 1.969 . S
O96 C99 1.258 . S
O97 Zn81 2.024 1_565 S
O97 C84 1.058 1_565 S
C98 O87 1.260 . S
C98 O88 1.258 . S
C99 O95 1.260 . S
C99 O96 1.258 . S
Zn100 O106 1.969 . S
Zn100 O107 1.965 . S
Zn100 O111 2.024 . S
Zn100 O116 1.969 . S
Zn101 O108 1.969 . S
Zn101 O114 1.969 . S
Zn101 O115 1.965 . S
Zn101 O117 2.024 . S
C102 O103 1.229 1_556 S
C102 O111 1.058 . S
O103 C102 1.229 1_554 S
C104 O105 1.229 . S
C104 O117 1.058 . S
O105 C104 1.229 . S
O106 Zn100 1.969 . S
O106 C109 1.267 1_556 S
O107 Zn100 1.965 . S
O107 C118 1.260 . S
O108 Zn101 1.969 . S
O108 C118 1.258 . S
C109 O106 1.267 1_554 S
C109 O110 1.228 . S
O110 C109 1.228 . S
O111 Zn100 2.024 . S
O111 C102 1.058 . S
C112 O113 1.228 . S
C112 O114 1.267 . S
O113 C112 1.228 . S
O114 Zn101 1.969 . S
O114 C112 1.267 . S
O115 Zn101 1.965 . S
O115 C119 1.260 . S
O116 Zn100 1.969 . S
O116 C119 1.258 . S
O117 Zn101 2.024 . S
O117 C104 1.058 . S
C118 O107 1.260 . S
C118 O108 1.258 . S
C119 O115 1.260 . S
C119 O116 1.258 . S
Zn120 O126 1.969 . S
Zn120 O127 1.965 . S
Zn120 O131 2.024 . S
Zn120 O136 1.969 . S
Zn121 O128 1.969 . S
Zn121 O134 1.969 . S
Zn121 O135 1.965 . S
Zn121 O137 2.024 . S
C122 O123 1.229 . S
C122 O131 1.058 . S
O123 C122 1.229 . S
C124 O125 1.229 . S
C124 O137 1.058 . S
O125 C124 1.229 . S
O126 Zn120 1.969 . S
O126 C129 1.267 . S
O127 Zn120 1.965 . S
O127 C138 1.260 . S
O128 Zn121 1.969 . S
O128 C138 1.258 . S
C129 O126 1.267 . S
C129 O130 1.228 . S
O130 C129 1.228 . S
O131 Zn120 2.024 . S
O131 C122 1.058 . S
C132 O133 1.228 . S
C132 O134 1.267 . S
O133 C132 1.228 . S
O134 Zn121 1.969 . S
O134 C132 1.267 . S
O135 Zn121 1.965 . S
O135 C139 1.260 . S
O136 Zn120 1.969 . S
O136 C139 1.258 . S
O137 Zn121 2.024 . S
O137 C124 1.058 . S
C138 O127 1.260 . S
C138 O128 1.258 . S
C139 O135 1.260 . S
C139 O136 1.258 . S
Zn140 O146 1.969 . S
Zn140 O147 1.965 1_565 S
Zn140 O151 2.024 1_565 S
Zn140 O156 1.969 . S
Zn141 O148 1.969 . S
Zn141 O154 1.969 . S
Zn141 O155 1.965 1_545 S
Zn141 O157 2.024 1_545 S
C142 O143 1.229 . S
C142 O151 1.058 1_565 S
O143 C142 1.229 . S
C144 O145 1.229 . S
C144 O157 1.058 1_545 S
O145 C144 1.229 . S
O146 Zn140 1.969 . S
O146 C149 1.290 . S
O147 Zn140 1.965 1_545 S
O147 C158 1.260 . S
O148 Zn141 1.969 . S
O148 C158 1.258 . S
C149 O146 1.290 . S
C149 O150 1.200 1_565 S
O150 C149 1.200 1_545 S
O151 Zn140 2.024 1_545 S
O151 C142 1.058 1_545 S
C152 O153 1.228 . S
C152 O154 1.267 1_565 S
O153 C152 1.228 . S
O154 Zn141 1.969 . S
O154 C152 1.267 1_545 S
O155 Zn141 1.965 1_565 S
O155 C159 1.260 . S
O156 Zn140 1.969 . S
O156 C159 1.258 . S
O157 Zn141 2.024 1_565 S
O157 C144 1.058 1_565 S
C158 O147 1.260 . S
C158 O148 1.258 . S
C159 O155 1.260 . S
C159 O156 1.258 . S
Zn160 O166 1.969 . S
Zn160 O167 1.965 . S
Zn160 O171 2.024 . S
Zn160 O176 1.969 . S
Zn161 O168 1.969 . S
Zn161 O174 1.969 . S
Zn161 O175 1.965 . S
Zn161 O177 2.024 . S
C162 O163 1.229 . S
C162 O171 1.058 . S
O163 C162 1.229 . S
C164 O165 1.229 . S
C164 O177 1.058 . S
O165 C164 1.229 . S
O166 Zn160 1.969 . S
O166 C169 1.267 . S
O167 Zn160 1.965 . S
O167 C178 1.260 . S
O168 Zn161 1.969 . S
O168 C178 1.258 . S
C169 O166 1.267 . S
C169 O170 1.228 . S
O170 C169 1.228 . S
O171 Zn160 2.024 . S
O171 C162 1.058 . S
C172 O173 1.228 . S
C172 O174 1.267 . S
O173 C172 1.228 . S
O174 Zn161 1.969 . S
O174 C172 1.267 . S
O175 Zn161 1.965 . S
O175 C179 1.260 . S
O176 Zn160 1.969 . S
O176 C179 1.258 . S
O177 Zn161 2.024 . S
O177 C164 1.058 . S
C178 O167 1.260 . S
C178 O168 1.258 . S
C179 O175 1.260 . S
C179 O176 1.258 . S
Zn180 O186 1.969 . S
Zn180 O187 1.965 . S
Zn180 O191 2.024 . S
Zn180 O196 1.969 . S
Zn181 O188 1.969 . S
Zn181 O194 1.969 . S
Zn181 O195 1.965 . S
Zn181 O197 2.024 . S
C182 O183 1.229 . S
C182 O191 1.058 . S
O183 C182 1.229 . S
C184 O185 1.229 . S
C184 O197 1.058 . S
O185 C184 1.229 . S
O186 Zn180 1.969 . S
O186 C189 1.267 . S
O187 Zn180 1.965 . S
O187 C198 1.260 . S
O188 Zn181 1.969 . S
O188 C198 1.258 . S
C189 O186 1.267 . S
C189 O190 1.228 . S
O190 C189 1.228 . S
O191 Zn180 2.024 . S
O191 C182 1.058 . S
C192 O193 1.228 . S
C192 O194 1.267 . S
O193 C192 1.228 . S
O194 Zn181 1.969 . S
O194 C192 1.267 . S
O195 Zn181 1.965 . S
O195 C199 1.260 . S
O196 Zn180 1.969 . S
O196 C199 1.258 . S
O197 Zn181 2.024 . S
O197 C184 1.058 . S
C198 O187 1.260 . S
C198 O188 1.258 . S
C199 O195 1.260 . S
C199 O196 1.258 . S
Zn200 O206 1.969 . S
Zn200 O207 1.965 . S
Zn200 O211 2.024 . S
Zn200 O216 1.969 . S
Zn201 O208 1.969 . S
Zn201 O214 1.969 . S
Zn201 O215 1.965 . S
Zn201 O217 2.024 . S
C202 O203 1.229 . S
C202 O211 1.058 . S
O203 C202 1.229 . S
C204 O205 1.229 . S
C204 O217 1.058 . S
O205 C204 1.229 . S
O206 Zn200 1.969 . S
O206 C209 1.267 . S
O207 Zn200 1.965 . S
O207 C218 1.260 . S
O208 Zn201 1.969 . S
O208 C218 1.258 . S
C209 O206 1.267 . S
C209 O210 1.228 . S
O210 C209 1.228 . S
O211 Zn200 2.024 . S
O211 C202 1.058 . S
C212 O213 1.228 . S
C212 O214 1.267 . S
O213 C212 1.228 . S
O214 Zn201 1.969 . S
O214 C212 1.267 . S
O215 Zn201 1.965 . S
O215 C219 1.260 . S
O216 Zn200 1.969 . S
O216 C219 1.258 . S
O217 Zn201 2.024 . S
O217 C204 1.058 . S
C218 O207 1.260 . S
C218 O208 1.258 . S
C219 O215 1.260 . S
C219 O216 1.258 . S
Zn220 O226 1.969 . S
Zn220 O227 1.965 . S
Zn220 O231 2.024 . S
Zn220 O236 1.969 . S
Zn221 O228 1.969 . S
Zn221 O234 1.969 . S
Zn221 O235 1.965 . S
Zn221 O237 2.024 . S
C222 O223 1.229 . S
C222 O231 1.058 . S
O223 C222 1.229 . S
C224 O225 1.229 . S
C224 O237 1.058 . S
O225 C224 1.229 . S
O226 Zn220 1.969 . S
O226 C229 1.267 . S
O227 Zn220 1.965 . S
O227 C238 1.260 . S
O228 Zn221 1.969 . S
O228 C238 1.258 . S
C229 O226 1.267 . S
C229 O230 1.228 . S
O230 C229 1.228 . S
O231 Zn220 2.024 . S
O231 C222 1.058 . S
C232 O233 1.228 . S
C232 O234 1.267 . S
O233 C232 1.228 . S
O234 Zn221 1.969 . S
O234 C232 1.267 . S
O235 Zn221 1.965 . S
O235 C239 1.260 . S
O236 Zn220 1.969 . S
O236 C239 1.258 . S
O237 Zn221 2.024 . S
O237 C224 1.058 . S
C238 O227 1.260 . S
C238 O228 1.258 . S
C239 O235 1.260 . S
C239 O236 1.258 . S
Zn240 O246 1.969 . S
Zn240 O247 1.965 . S
Zn240 O251 2.024 . S
Zn240 O256 1.969 . S
Zn241 O248 1.969 . S
Zn241 O254 1.969 . S
Zn241 O255 1.965 . S
Zn241 O257 2.024 . S
C242 O243 1.229 . S
C242 O251 1.058 . S
O243 C242 1.229 . S
C244 O245 1.229 . S
C244 O257 1.058 . S
O245 C244 1.229 . S
O246 Zn240 1.969 . S
O246 C249 1.267 . S
O247 Zn240 1.965 . S
O247 C258 1.260 . S
O248 Zn241 1.969 . S
O248 C258 1.258 . S
C249 O246 1.267 . S
C249 O250 1.228 . S
O250 C249 1.228 . S
O251 Zn240 2.024 . S
O251 C242 1.058 . S
C252 O253 1.228 . S
C252 O254 1.267 . S
O253 C252 1.228 . S
O254 Zn241 1.969 . S
O254 C252 1.267 . S
O255 Zn241 1.965 . S
O255 C259 1.260 . S
O256 Zn240 1.969 . S
O256 C259 1.258 . S
O257 Zn241 2.024 . S
O257 C244 1.058 . S
C258 O247 1.260 . S
C258 O248 1.258 . S
C259 O255 1.260 . S
C259 O256 1.258 . S
Zn260 O266 1.969 . S
Zn260 O267 1.965 . S
Zn260 O271 2.024 . S
Zn260 O276 1.969 . S
Zn261 O268 1.969 . S
Zn261 O274 1.969 . S
Zn261 O275 1.965 . S
Zn261 O277 2.024 . S
C262 O263 1.229 . S
C262 O271 1.058 . S
O263 C262 1.229 . S
C264 O265 1.229 . S
C264 O277 1.058 . S
O265 C264 1.229 . S
O266 Zn260 1.969 . S
O266 C269 1.267 . S
O267 Zn260 1.965 . S
O267 C278 1.260 . S
O268 Zn261 1.969 . S
O268 C278 1.258 . S
C269 O266 1.267 . S
C269 O270 1.228 . S
O270 C269 1.228 . S
O271 Zn260 2.024 . S
O271 C262 1.058 . S
C272 O273 1.228 . S
C272 O274 1.267 . S
O273 C272 1.228 . S
O274 Zn261 1.969 . S
O274 C272 1.267 . S
O275 Zn261 1.965 . S
O275 C279 1.260 . S
O276 Zn260 1.969 . S
O276 C279 1.258 . S
O277 Zn261 2.024 . S
O277 C264 1.058 . S
C278 O267 1.260 . S
C278 O268 1.258 . S
C279 O275 1.260 . S
C279 O276 1.258 . S
Zn280 O286 1.969 . S
Zn280 O287 1.965 . S
Zn280 O291 2.024 . S
Zn280 O296 1.969 . S
Zn281 O288 1.969 . S
Zn281 O294 1.969 . S
Zn281 O295 1.965 . S
Zn281 O297 2.024 . S
C282 O283 1.229 . S
C282 O291 1.058 . S
O283 C282 1.229 . S
C284 O285 1.229 . S
C284 O297 1.058 . S
O285 C284 1.229 . S
O286 Zn280 1.969 . S
O286 C289 1.267 . S
O287 Zn280 1.965 . S
O287 C298 1.260 . S
O288 Zn281 1.969 . S
O288 C298 1.258 . S
C289 O286 1.267 . S
C289 O290 1.228 . S
O290 C289 1.228 . S
O291 Zn280 2.024 . S
O291 C282 1.058 . S
C292 O293 1.228 . S
C292 O294 1.267 . S
O293 C292 1.228 . S
O294 Zn281 1.969 . S
O294 C292 1.267 . S
O295 Zn281 1.965 . S
O295 C299 1.260 . S
O296 Zn280 1.969 . S
O296 C299 1.258 . S
O297 Zn281 2.024 . S
O297 C284 1.058 . S
C298 O287 1.260 . S
C298 O288 1.258 . S
C299 O295 1.260 . S
C299 O296 1.258 . S
Zn300 O306 1.969 . S
Zn300 O307 1.965 . S
Zn300 O311 2.024 . S
Zn300 O316 1.969 . S
Zn301 O308 1.969 . S
Zn301 O314 1.969 . S
Zn301 O315 1.965 . S
Zn301 O317 2.024 . S
C302 O303 1.229 . S
C302 O311 1.058 . S
O303 C302 1.229 . S
C304 O305 1.229 . S
C304 O317 1.058 . S
O305 C304 1.229 . S
O306 Zn300 1.969 . S
O306 C309 1.267 . S
O307 Zn300 1.965 . S
O307 C318 1.260 . S
O308 Zn301 1.969 . S
O308 C318 1.258 . S
C309 O306 1.267 . S
C309 O310 1.228 . S
O310 C309 1.228 . S
O311 Zn300 2.024 . S
O311 C302 1.058 . S
C312 O313 1.228 . S
C312 O314 1.267 . S
O313 C312 1.228 . S
O314 Zn301 1.969 . S
O314 C312 1.267 . S
O315 Zn301 1.965 . S
O315 C319 1.260 . S
O316 Zn300 1.969 . S
O316 C319 1.258 . S
O317 Zn301 2.024 . S
O317 C304 1.058 . S
C318 O307 1.260 . S
C318 O308 1.258 . S
C319 O315 1.260 . S
C319 O316 1.258 . S
Zn320 O326 1.969 . S
Zn320 O327 1.965 1_565 S
Zn320 O331 2.024 1_565 S
Zn320 O336 1.969 . S
Zn321 O328 1.969 . S
Zn321 O334 1.969 . S
Zn321 O335 1.965 1_545 S
Zn321 O337 2.024 1_545 S
C322 O323 1.229 . S
C322 O331 1.058 1_565 S
O323 C322 1.229 . S
C324 O325 1.229 . S
C324 O337 1.058 1_545 S
O325 C324 1.229 . S
O326 Zn320 1.969 . S
O326 C329 1.267 1_565 S
O327 Zn320 1.965 1_545 S
O327 C338 1.260 . S
O328 Zn321 1.969 . S
O328 C338 1.258 . S
C329 O326 1.267 1_545 S
C329 O330 1.228 . S
O330 C329 1.228 . S
O331 Zn320 2.024 1_545 S
O331 C322 1.058 1_545 S
C332 O333 1.199 1_545 S
C332 O334 1.290 . S
O333 C332 1.199 1_565 S
O334 Zn321 1.969 . S
O334 C332 1.290 . S
O335 Zn321 1.965 1_565 S
O335 C339 1.260 . S
O336 Zn320 1.969 . S
O336 C339 1.258 . S
O337 Zn321 2.024 1_565 S
O337 C324 1.058 1_565 S
C338 O327 1.260 . S
C338 O328 1.258 . S
C339 O335 1.260 . S
C339 O336 1.258 . S
Zn340 O346 1.969 . S
Zn340 O347 1.965 . S
Zn340 O351 2.024 . S
Zn340 O356 1.969 . S
Zn341 O348 1.969 . S
Zn341 O354 1.969 . S
Zn341 O355 1.965 . S
Zn341 O357 2.024 . S
C342 O343 1.229 . S
C342 O351 1.058 . S
O343 C342 1.229 . S
C344 O345 1.229 . S
C344 O357 1.058 . S
O345 C344 1.229 . S
O346 Zn340 1.969 . S
O346 C349 1.267 . S
O347 Zn340 1.965 . S
O347 C358 1.260 . S
O348 Zn341 1.969 . S
O348 C358 1.258 . S
C349 O346 1.267 . S
C349 O350 1.228 . S
O350 C349 1.228 . S
O351 Zn340 2.024 . S
O351 C342 1.058 . S
C352 O353 1.228 . S
C352 O354 1.267 . S
O353 C352 1.228 . S
O354 Zn341 1.969 . S
O354 C352 1.267 . S
O355 Zn341 1.965 . S
O355 C359 1.260 . S
O356 Zn340 1.969 . S
O356 C359 1.258 . S
O357 Zn341 2.024 . S
O357 C344 1.058 . S
C358 O347 1.260 . S
C358 O348 1.258 . S
C359 O355 1.260 . S
C359 O356 1.258 . S
Zn360 O366 1.969 . S
Zn360 O367 1.965 . S
Zn360 O371 2.024 . S
Zn360 O376 1.969 . S
Zn361 O368 1.969 . S
Zn361 O374 1.969 . S
Zn361 O375 1.965 . S
Zn361 O377 2.024 . S
C362 O363 1.229 . S
C362 O371 1.058 . S
O363 C362 1.229 . S
C364 O365 1.229 . S
C364 O377 1.058 . S
O365 C364 1.229 . S
O366 Zn360 1.969 . S
O366 C369 1.267 . S
O367 Zn360 1.965 . S
O367 C378 1.260 . S
O368 Zn361 1.969 . S
O368 C378 1.258 . S
C369 O366 1.267 . S
C369 O370 1.228 . S
O370 C369 1.228 . S
O371 Zn360 2.024 . S
O371 C362 1.058 . S
C372 O373 1.228 . S
C372 O374 1.267 . S
O373 C372 1.228 . S
O374 Zn361 1.969 . S
O374 C372 1.267 . S
O375 Zn361 1.965 . S
O375 C379 1.260 . S
O376 Zn360 1.969 . S
O376 C379 1.258 . S
O377 Zn361 2.024 . S
O377 C364 1.058 . S
C378 O367 1.260 . S
C378 O368 1.258 . S
C379 O375 1.260 . S
C379 O376 1.258 . S
Zn380 O386 1.969 . S
Zn380 O387 1.965 1_565 S
Zn380 O391 2.024 1_565 S
Zn380 O396 1.969 . S
Zn381 O388 1.969 . S
Zn381 O394 1.969 . S
Zn381 O395 1.965 1_545 S
Zn381 O397 2.024 1_545 S
C382 O383 1.229 . S
C382 O391 1.058 1_565 S
O383 C382 1.229 . S
C384 O385 1.229 . S
C384 O397 1.058 1_545 S
O385 C384 1.229 . S
O386 Zn380 1.969 . S
O386 C389 1.267 1_565 S
O387 Zn380 1.965 1_545 S
O387 C398 1.260 . S
O388 Zn381 1.969 . S
O388 C398 1.258 . S
C389 O386 1.267 1_545 S
C389 O390 1.228 . S
O390 C389 1.228 . S
O391 Zn380 2.024 1_545 S
O391 C382 1.058 1_545 S
C392 O393 1.200 1_545 S
C392 O394 1.290 . S
O393 C392 1.200 1_565 S
O394 Zn381 1.969 . S
O394 C392 1.290 . S
O395 Zn381 1.965 1_565 S
O395 C399 1.260 . S
O396 Zn380 1.969 . S
O396 C399 1.258 . S
O397 Zn381 2.024 1_565 S
O397 C384 1.058 1_565 S
C398 O387 1.260 . S
C398 O388 1.258 . S
C399 O395 1.260 . S
C399 O396 1.258 . S
Zn400 O406 1.969 . S
Zn400 O407 1.965 1_565 S
Zn400 O411 2.024 1_565 S
Zn400 O416 1.969 . S
Zn401 O408 1.969 . S
Zn401 O414 1.969 . S
Zn401 O415 1.965 1_545 S
Zn401 O417 2.024 1_545 S
C402 O403 1.229 . S
C402 O411 1.058 1_565 S
O403 C402 1.229 . S
C404 O405 1.229 . S
C404 O417 1.058 1_545 S
O405 C404 1.229 . S
O406 Zn400 1.969 . S
O406 C409 1.290 . S
O407 Zn400 1.965 1_545 S
O407 C418 1.260 . S
O408 Zn401 1.969 . S
O408 C418 1.258 . S
C409 O406 1.290 . S
C409 O410 1.199 1_565 S
O410 C409 1.199 1_545 S
O411 Zn400 2.024 1_545 S
O411 C402 1.058 1_545 S
C412 O413 1.228 . S
C412 O414 1.267 1_565 S
O413 C412 1.228 . S
O414 Zn401 1.969 . S
O414 C412 1.267 1_545 S
O415 Zn401 1.965 1_565 S
O415 C419 1.260 . S
O416 Zn400 1.969 . S
O416 C419 1.258 . S
O417 Zn401 2.024 1_565 S
O417 C404 1.058 1_565 S
C418 O407 1.260 . S
C418 O408 1.258 . S
C419 O415 1.260 . S
C419 O416 1.258 . S
Zn420 O426 1.969 . S
Zn420 O427 1.965 . S
Zn420 O431 2.024 . S
Zn420 O436 1.969 . S
Zn421 O428 1.969 . S
Zn421 O434 1.969 . S
Zn421 O435 1.965 . S
Zn421 O437 2.024 . S
C422 O423 1.229 . S
C422 O431 1.058 . S
O423 C422 1.229 . S
C424 O425 1.229 . S
C424 O437 1.058 . S
O425 C424 1.229 . S
O426 Zn420 1.969 . S
O426 C429 1.267 . S
O427 Zn420 1.965 . S
O427 C438 1.260 . S
O428 Zn421 1.969 . S
O428 C438 1.258 . S
C429 O426 1.267 . S
C429 O430 1.228 . S
O430 C429 1.228 . S
O431 Zn420 2.024 . S
O431 C422 1.058 . S
C432 O433 1.228 . S
C432 O434 1.267 . S
O433 C432 1.228 . S
O434 Zn421 1.969 . S
O434 C432 1.267 . S
O435 Zn421 1.965 . S
O435 C439 1.260 . S
O436 Zn420 1.969 . S
O436 C439 1.258 . S
O437 Zn421 2.024 . S
O437 C424 1.058 . S
C438 O427 1.260 . S
C438 O428 1.258 . S
C439 O435 1.260 . S
C439 O436 1.258 . S
Zn440 O446 1.969 . S
Zn440 O447 1.965 . S
Zn440 O451 2.024 . S
Zn440 O456 1.969 . S
Zn441 O448 1.969 . S
Zn441 O454 1.969 . S
Zn441 O455 1.965 . S
Zn441 O457 2.024 . S
C442 O443 1.229 . S
C442 O451 1.058 . S
O443 C442 1.229 . S
C444 O445 1.229 . S
C444 O457 1.058 . S
O445 C444 1.229 . S
O446 Zn440 1.969 . S
O446 C449 1.267 . S
O447 Zn440 1.965 . S
O447 C458 1.260 . S
O448 Zn441 1.969 . S
O448 C458 1.258 . S
C449 O446 1.267 . S
C449 O450 1.228 . S
O450 C449 1.228 . S
O451 Zn440 2.024 . S
O451 C442 1.058 . S
C452 O453 1.228 . S
C452 O454 1.267 . S
O453 C452 1.228 . S
O454 Zn441 1.969 . S
O454 C452 1.267 . S
O455 Zn441 1.965 . S
O455 C459 1.260 . S
O456 Zn440 1.969 . S
O456 C459 1.258 . S
O457 Zn441 2.024 . S
O457 C444 1.058 . S
C458 O447 1.260 . S
C458 O448 1.258 . S
C459 O455 1.260 . S
C459 O456 1.258 . S
Zn460 O466 1.969 . S
Zn460 O467 1.965 1_565 S
Zn460 O471 2.024 1_565 S
Zn460 O476 1.969 . S
Zn461 O468 1.969 . S
Zn461 O474 1.969 . S
Zn461 O475 1.965 1_545 S
Zn461 O477 2.024 1_545 S
C462 O463 1.229 . S
C462 O471 1.058 1_565 S
O463 C462 1.229 . S
C464 O465 1.229 . S
C464 O477 1.058 1_545 S
O465 C464 1.229 . S
O466 Zn460 1.969 . S
O466 C469 1.290 . S
O467 Zn460 1.965 1_545 S
O467 C478 1.260 . S
O468 Zn461 1.969 . S
O468 C478 1.258 . S
C469 O466 1.290 . S
C469 O470 1.200 1_565 S
O470 C469 1.200 1_545 S
O471 Zn460 2.024 1_545 S
O471 C462 1.058 1_545 S
C472 O473 1.228 . S
C472 O474 1.267 1_565 S
O473 C472 1.228 . S
O474 Zn461 1.969 . S
O474 C472 1.267 1_545 S
O475 Zn461 1.965 1_565 S
O475 C479 1.260 . S
O476 Zn460 1.969 . S
O476 C479 1.258 . S
O477 Zn461 2.024 1_565 S
O477 C464 1.058 1_565 S
C478 O467 1.260 . S
C478 O468 1.258 . S
C479 O475 1.260 . S
C479 O476 1.258 . S
Zn480 O486 1.969 . S
Zn480 O487 1.965 . S
Zn480 O491 2.024 . S
Zn480 O496 1.969 . S
Zn481 O488 1.969 . S
Zn481 O494 1.969 . S
Zn481 O495 1.965 . S
Zn481 O497 2.024 . S
C482 O483 1.229 . S
C482 O491 1.058 . S
O483 C482 1.229 . S
C484 O485 1.229 1_554 S
C484 O497 1.058 . S
O485 C484 1.229 1_556 S
O486 Zn480 1.969 . S
O486 C489 1.267 . S
O487 Zn480 1.965 . S
O487 C498 1.260 . S
O488 Zn481 1.969 . S
O488 C498 1.258 . S
C489 O486 1.267 . S
C489 O490 1.228 . S
O490 C489 1.228 . S
O491 Zn480 2.024 . S
O491 C482 1.058 . S
C492 O493 1.228 . S
C492 O494 1.267 1_556 S
O493 C492 1.228 . S
O494 Zn481 1.969 . S
O494 C492 1.267 1_554 S
O495 Zn481 1.965 . S
O495 C499 1.260 . S
O496 Zn480 1.969 . S
O496 C499 1.258 . S
O497 Zn481 2.024 . S
O497 C484 1.058 . S
C498 O487 1.260 . S
C498 O488 1.258 . S
C499 O495 1.260 . S
C499 O496 1.258 . S
Zn500 O506 1.969 . S
Zn500 O507 1.965 . S
Zn500 O511 2.024 . S
Zn500 O516 1.969 . S
Zn501 O508 1.969 . S
Zn501 O514 1.969 . S
Zn501 O515 1.965 . S
Zn501 O517 2.024 . S
C502 O503 1.229 . S
C502 O511 1.058 . S
O503 C502 1.229 . S
C504 O505 1.229 1_554 S
C504 O517 1.058 . S
O505 C504 1.229 1_556 S
O506 Zn500 1.969 . S
O506 C509 1.267 . S
O507 Zn500 1.965 . S
O507 C518 1.260 . S
O508 Zn501 1.969 . S
O508 C518 1.258 . S
C509 O506 1.267 . S
C509 O510 1.228 . S
O510 C509 1.228 . S
O511 Zn500 2.024 . S
O511 C502 1.058 . S
C512 O513 1.228 . S
C512 O514 1.267 1_556 S
O513 C512 1.228 . S
O514 Zn501 1.969 . S
O514 C512 1.267 1_554 S
O515 Zn501 1.965 . S
O515 C519 1.260 . S
O516 Zn500 1.969 . S
O516 C519 1.258 . S
O517 Zn501 2.024 . S
O517 C504 1.058 . S
C518 O507 1.260 . S
C518 O508 1.258 . S
C519 O515 1.260 . S
C519 O516 1.258 . S
Zn520 O526 1.969 . S
Zn520 O527 1.965 . S
Zn520 O531 2.024 . S
Zn520 O536 1.969 . S
Zn521 O528 1.969 . S
Zn521 O534 1.969 . S
Zn521 O535 1.965 . S
Zn521 O537 2.024 . S
C522 O523 1.229 . S
C522 O531 1.058 . S
O523 C522 1.229 . S
C524 O525 1.229 . S
C524 O537 1.058 . S
O525 C524 1.229 . S
O526 Zn520 1.969 . S
O526 C529 1.267 . S
O527 Zn520 1.965 . S
O527 C538 1.260 . S
O528 Zn521 1.969 . S
O528 C538 1.258 . S
C529 O526 1.267 . S
C529 O530 1.228 . S
O530 C529 1.228 . S
O531 Zn520 2.024 . S
O531 C522 1.058 . S
C532 O533 1.228 . S
C532 O534 1.267 . S
O533 C532 1.228 . S
O534 Zn521 1.969 . S
O534 C532 1.267 . S
O535 Zn521 1.965 . S
O535 C539 1.260 . S
O536 Zn520 1.969 . S
O536 C539 1.258 . S
O537 Zn521 2.024 . S
O537 C524 1.058 . S
C538 O527 1.260 . S
C538 O528 1.258 . S
C539 O535 1.260 . S
C539 O536 1.258 . S
Zn540 O546 1.969 . S
Zn540 O547 1.965 . S
Zn540 O551 2.024 . S
Zn540 O556 1.969 . S
Zn541 O548 1.969 . S
Zn541 O554 1.969 . S
Zn541 O555 1.965 . S
Zn541 O557 2.024 . S
C542 O543 1.229 . S
C542 O551 1.058 . S
O543 C542 1.229 . S
C544 O545 1.229 . S
C544 O557 1.058 . S
O545 C544 1.229 . S
O546 Zn540 1.969 . S
O546 C549 1.267 . S
O547 Zn540 1.965 . S
O547 C558 1.260 . S
O548 Zn541 1.969 . S
O548 C558 1.258 . S
C549 O546 1.267 . S
C549 O550 1.228 . S
O550 C549 1.228 . S
O551 Zn540 2.024 . S
O551 C542 1.058 . S
C552 O553 1.228 . S
C552 O554 1.267 . S
O553 C552 1.228 . S
O554 Zn541 1.969 . S
O554 C552 1.267 . S
O555 Zn541 1.965 . S
O555 C559 1.260 . S
O556 Zn540 1.969 . S
O556 C559 1.258 . S
O557 Zn541 2.024 . S
O557 C544 1.058 . S
C558 O547 1.260 . S
C558 O548 1.258 . S
C559 O555 1.260 . S
C559 O556 1.258 . S
Zn560 O566 1.969 . S
Zn560 O567 1.965 . S
Zn560 O571 2.024 . S
Zn560 O576 1.969 . S
Zn561 O568 1.969 . S
Zn561 O574 1.969 . S
Zn561 O575 1.965 . S
Zn561 O577 2.024 . S
C562 O563 1.229 1_556 S
C562 O571 1.058 . S
O563 C562 1.229 1_554 S
C564 O565 1.229 . S
C564 O577 1.058 . S
O565 C564 1.229 . S
O566 Zn560 1.969 . S
O566 C569 1.267 1_556 S
O567 Zn560 1.965 . S
O567 C578 1.260 . S
O568 Zn561 1.969 . S
O568 C578 1.258 . S
C569 O566 1.267 1_554 S
C569 O570 1.228 . S
O570 C569 1.228 . S
O571 Zn560 2.024 . S
O571 C562 1.058 . S
C572 O573 1.228 . S
C572 O574 1.267 . S
O573 C572 1.228 . S
O574 Zn561 1.969 . S
O574 C572 1.267 . S
O575 Zn561 1.965 . S
O575 C579 1.260 . S
O576 Zn560 1.969 . S
O576 C579 1.258 . S
O577 Zn561 2.024 . S
O577 C564 1.058 . S
C578 O567 1.260 . S
C578 O568 1.258 . S
C579 O575 1.260 . S
C579 O576 1.258 . S
Zn580 O586 1.969 . S
Zn580 O587 1.965 . S
Zn580 O591 2.024 . S
Zn580 O596 1.969 . S
Zn581 O588 1.969 . S
Zn581 O594 1.969 . S
Zn581 O595 1.965 . S
Zn581 O597 2.024 . S
C582 O583 1.229 1_556 S
C582 O591 1.058 . S
O583 C582 1.229 1_554 S
C584 O585 1.229 . S
C584 O597 1.058 . S
O585 C584 1.229 . S
O586 Zn580 1.969 . S
O586 C589 1.267 1_556 S
O587 Zn580 1.965 . S
O587 C598 1.260 . S
O588 Zn581 1.969 . S
O588 C598 1.258 . S
C589 O586 1.267 1_554 S
C589 O590 1.228 . S
O590 C589 1.228 . S
O591 Zn580 2.024 . S
O591 C582 1.058 . S
C592 O593 1.228 . S
C592 O594 1.267 . S
O593 C592 1.228 . S
O594 Zn581 1.969 . S
O594 C592 1.267 . S
O595 Zn581 1.965 . S
O595 C599 1.260 . S
O596 Zn580 1.969 . S
O596 C599 1.258 . S
O597 Zn581 2.024 . S
O597 C584 1.058 . S
C598 O587 1.260 . S
C598 O588 1.258 . S
C599 O595 1.260 . S
C599 O596 1.258 . S
Zn600 O606 1.969 . S
Zn600 O607 1.965 . S
Zn600 O611 2.024 . S
Zn600 O616 1.969 . S
Zn601 O608 1.969 . S
Zn601 O614 1.969 . S
Zn601 O615 1.965 . S
Zn601 O617 2.024 . S
C602 O603 1.229 . S
C602 O611 1.058 . S
O603 C602 1.229 . S
C604 O605 1.229 . S
C604 O617 1.058 . S
O605 C604 1.229 . S
O606 Zn600 1.969 . S
O606 C609 1.267 . S
O607 Zn600 1.965 . S
O607 C618 1.260 . S
O608 Zn601 1.969 . S
O608 C618 1.258 . S
C609 O606 1.267 . S
C609 O610 1.228 . S
O610 C609 1.228 . S
O611 Zn600 2.024 . S
O611 C602 1.058 . S
C612 O613 1.228 . S
C612 O614 1.267 . S
O613 C612 1.228 . S
O614 Zn601 1.969 . S
O614 C612 1.267 . S
O615 Zn601 1.965 . S
O615 C619 1.260 . S
O616 Zn600 1.969 . S
O616 C619 1.258 . S
O617 Zn601 2.024 . S
O617 C604 1.058 . S
C618 O607 1.260 . S
C618 O608 1.258 . S
C619 O615 1.260 . S
C619 O616 1.258 . S
Zn620 O626 1.969 . S
Zn620 O627 1.965 . S
Zn620 O631 2.024 . S
Zn620 O636 1.969 . S
Zn621 O628 1.969 . S
Zn621 O634 1.969 . S
Zn621 O635 1.965 . S
Zn621 O637 2.024 . S
C622 O623 1.229 . S
C622 O631 1.058 . S
O623 C622 1.229 . S
C624 O625 1.229 . S
C624 O637 1.058 . S
O625 C624 1.229 . S
O626 Zn620 1.969 . S
O626 C629 1.267 . S
O627 Zn620 1.965 . S
O627 C638 1.260 . S
O628 Zn621 1.969 . S
O628 C638 1.258 . S
C629 O626 1.267 . S
C629 O630 1.228 . S
O630 C629 1.228 . S
O631 Zn620 2.024 . S
O631 C622 1.058 . S
C632 O633 1.228 . S
C632 O634 1.267 . S
O633 C632 1.228 . S
O634 Zn621 1.969 . S
O634 C632 1.267 . S
O635 Zn621 1.965 . S
O635 C639 1.260 . S
O636 Zn620 1.969 . S
O636 C639 1.258 . S
O637 Zn621 2.024 . S
O637 C624 1.058 . S
C638 O627 1.260 . S
C638 O628 1.258 . S
C639 O635 1.260 . S
C639 O636 1.258 . S
H640 C646 0.930 . S
H641 C650 0.930 . S
H642 C655 0.929 . S
H643 C653 0.929 . S
H644 C648 0.929 . S
H645 C654 0.929 . S
C646 H640 0.930 . S
C646 C647 1.367 . S
C646 C654 1.378 . S
C647 C646 1.367 . S
C647 C655 1.433 . S
C648 H644 0.929 . S
C648 C650 1.378 . S
C648 C652 1.350 . S
C649 C652 1.463 . S
C649 C654 1.350 . S
C649 N657 1.427 . S
C650 H641 0.930 . S
C650 C648 1.378 . S
C650 C651 1.367 . S
C651 C650 1.367 . S
C651 C653 1.433 . S
C652 C648 1.350 . S
C652 C649 1.463 . S
C652 N656 1.427 . S
C653 H643 0.929 . S
C653 C651 1.433 . S
C653 N656 1.384 . S
C654 H645 0.929 . S
C654 C646 1.378 . S
C654 C649 1.350 . S
C655 H642 0.929 . S
C655 C647 1.433 . S
C655 N657 1.384 . S
N656 C652 1.427 . S
N656 C653 1.384 . S
N657 C649 1.427 . S
N657 C655 1.384 . S
H658 C664 0.930 . S
H659 C668 0.930 . S
H660 C673 0.929 . S
H661 C671 0.929 . S
H662 C666 0.929 . S
H663 C672 0.929 . S
C664 H658 0.930 . S
C664 C665 1.367 . S
C664 C672 1.378 . S
C665 C664 1.367 . S
C665 C673 1.433 . S
C666 H662 0.929 . S
C666 C668 1.378 . S
C666 C670 1.350 . S
C667 C670 1.463 . S
C667 C672 1.350 . S
C667 N675 1.427 . S
C668 H659 0.930 . S
C668 C666 1.378 . S
C668 C669 1.367 . S
C669 C668 1.367 . S
C669 C671 1.433 . S
C670 C666 1.350 . S
C670 C667 1.463 . S
C670 N674 1.427 . S
C671 H661 0.929 . S
C671 C669 1.433 . S
C671 N674 1.384 . S
C672 H663 0.929 . S
C672 C664 1.378 . S
C672 C667 1.350 . S
C673 H660 0.929 . S
C673 C665 1.433 . S
C673 N675 1.384 . S
N674 C670 1.427 . S
N674 C671 1.384 . S
N675 C667 1.427 . S
N675 C673 1.384 . S
H676 C682 0.930 . S
H677 C686 0.930 . S
H678 C691 0.929 . S
H679 C689 0.929 . S
H680 C684 0.929 . S
H681 C690 0.929 . S
C682 H676 0.930 . S
C682 C683 1.367 . S
C682 C690 1.378 . S
C683 C682 1.367 . S
C683 C691 1.433 . S
C684 H680 0.929 . S
C684 C686 1.378 . S
C684 C688 1.350 . S
C685 C688 1.463 . S
C685 C690 1.350 . S
C685 N693 1.427 . S
C686 H677 0.930 . S
C686 C684 1.378 . S
C686 C687 1.367 . S
C687 C686 1.367 . S
C687 C689 1.433 . S
C688 C684 1.350 . S
C688 C685 1.463 . S
C688 N692 1.427 . S
C689 H679 0.929 . S
C689 C687 1.433 . S
C689 N692 1.384 . S
C690 H681 0.929 . S
C690 C682 1.378 . S
C690 C685 1.350 . S
C691 H678 0.929 . S
C691 C683 1.433 . S
C691 N693 1.384 . S
N692 C688 1.427 . S
N692 C689 1.384 . S
N693 C685 1.427 . S
N693 C691 1.384 . S
H694 C700 0.930 . S
H695 C704 0.930 . S
H696 C709 0.929 . S
H697 C707 0.929 . S
H698 C702 0.929 . S
H699 C708 0.929 . S
C700 H694 0.930 . S
C700 C701 1.367 . S
C700 C708 1.378 . S
C701 C700 1.367 . S
C701 C709 1.433 . S
C702 H698 0.929 . S
C702 C704 1.378 . S
C702 C706 1.350 . S
C703 C706 1.463 . S
C703 C708 1.350 . S
C703 N711 1.427 . S
C704 H695 0.930 . S
C704 C702 1.378 . S
C704 C705 1.367 . S
C705 C704 1.367 . S
C705 C707 1.433 . S
C706 C702 1.350 . S
C706 C703 1.463 . S
C706 N710 1.427 . S
C707 H697 0.929 . S
C707 C705 1.433 . S
C707 N710 1.384 . S
C708 H699 0.929 . S
C708 C700 1.378 . S
C708 C703 1.350 . S
C709 H696 0.929 . S
C709 C701 1.433 . S
C709 N711 1.384 . S
N710 C706 1.427 . S
N710 C707 1.384 . S
N711 C703 1.427 . S
N711 C709 1.384 . S
H712 C718 0.930 . S
H713 C722 0.930 . S
H714 C727 0.929 . S
H715 C725 0.929 . S
H716 C720 0.929 . S
H717 C726 0.929 . S
C718 H712 0.930 . S
C718 C719 1.367 . S
C718 C726 1.378 . S
C719 C718 1.367 . S
C719 C727 1.433 . S
C720 H716 0.929 . S
C720 C722 1.378 . S
C720 C724 1.350 . S
C721 C724 1.463 . S
C721 C726 1.350 . S
C721 N729 1.427 . S
C722 H713 0.930 . S
C722 C720 1.378 . S
C722 C723 1.367 . S
C723 C722 1.367 . S
C723 C725 1.433 . S
C724 C720 1.350 . S
C724 C721 1.463 . S
C724 N728 1.427 . S
C725 H715 0.929 . S
C725 C723 1.433 . S
C725 N728 1.384 . S
C726 H717 0.929 . S
C726 C718 1.378 . S
C726 C721 1.350 . S
C727 H714 0.929 . S
C727 C719 1.433 . S
C727 N729 1.384 . S
N728 C724 1.427 . S
N728 C725 1.384 . S
N729 C721 1.427 . S
N729 C727 1.384 . S
H730 C736 0.930 . S
H731 C740 0.930 . S
H732 C745 0.929 . S
H733 C743 0.929 . S
H734 C738 0.929 . S
H735 C744 0.929 . S
C736 H730 0.930 . S
C736 C737 1.367 . S
C736 C744 1.378 . S
C737 C736 1.367 . S
C737 C745 1.433 . S
C738 H734 0.929 . S
C738 C740 1.378 . S
C738 C742 1.350 . S
C739 C742 1.463 . S
C739 C744 1.350 . S
C739 N747 1.427 . S
C740 H731 0.930 . S
C740 C738 1.378 . S
C740 C741 1.367 . S
C741 C740 1.367 . S
C741 C743 1.433 . S
C742 C738 1.350 . S
C742 C739 1.463 . S
C742 N746 1.427 . S
C743 H733 0.929 . S
C743 C741 1.433 . S
C743 N746 1.384 . S
C744 H735 0.929 . S
C744 C736 1.378 . S
C744 C739 1.350 . S
C745 H732 0.929 . S
C745 C737 1.433 . S
C745 N747 1.384 . S
N746 C742 1.427 . S
N746 C743 1.384 . S
N747 C739 1.427 . S
N747 C745 1.384 . S
H748 C754 0.930 . S
H749 C758 0.930 . S
H750 C763 0.929 . S
H751 C761 0.929 . S
H752 C756 0.929 . S
H753 C762 0.929 . S
C754 H748 0.930 . S
C754 C755 1.367 . S
C754 C762 1.378 . S
C755 C754 1.367 . S
C755 C763 1.433 . S
C756 H752 0.929 . S
C756 C758 1.378 . S
C756 C760 1.350 . S
C757 C760 1.463 . S
C757 C762 1.350 . S
C757 N765 1.427 . S
C758 H749 0.930 . S
C758 C756 1.378 . S
C758 C759 1.367 . S
C759 C758 1.367 . S
C759 C761 1.433 . S
C760 C756 1.350 . S
C760 C757 1.463 . S
C760 N764 1.427 . S
C761 H751 0.929 . S
C761 C759 1.433 . S
C761 N764 1.384 . S
C762 H753 0.929 . S
C762 C754 1.378 . S
C762 C757 1.350 . S
C763 H750 0.929 . S
C763 C755 1.433 . S
C763 N765 1.384 . S
N764 C760 1.427 . S
N764 C761 1.384 . S
N765 C757 1.427 . S
N765 C763 1.384 . S
H766 C772 0.930 . S
H767 C776 0.930 . S
H768 C781 0.929 . S
H769 C779 0.929 . S
H770 C774 0.929 . S
H771 C780 0.929 . S
C772 H766 0.930 . S
C772 C773 1.367 . S
C772 C780 1.378 . S
C773 C772 1.367 . S
C773 C781 1.433 . S
C774 H770 0.929 . S
C774 C776 1.378 . S
C774 C778 1.350 . S
C775 C778 1.463 . S
C775 C780 1.350 . S
C775 N783 1.427 . S
C776 H767 0.930 . S
C776 C774 1.378 . S
C776 C777 1.367 . S
C777 C776 1.367 . S
C777 C779 1.433 . S
C778 C774 1.350 . S
C778 C775 1.463 . S
C778 N782 1.427 . S
C779 H769 0.929 . S
C779 C777 1.433 . S
C779 N782 1.384 . S
C780 H771 0.929 . S
C780 C772 1.378 . S
C780 C775 1.350 . S
C781 H768 0.929 . S
C781 C773 1.433 . S
C781 N783 1.384 . S
N782 C778 1.427 . S
N782 C779 1.384 . S
N783 C775 1.427 . S
N783 C781 1.384 . S
H784 C790 0.930 . S
H785 C794 0.930 . S
H786 C799 0.929 . S
H787 C797 0.929 . S
H788 C792 0.929 . S
H789 C798 0.929 . S
C790 H784 0.930 . S
C790 C791 1.367 . S
C790 C798 1.378 . S
C791 C790 1.367 . S
C791 C799 1.433 . S
C792 H788 0.929 . S
C792 C794 1.378 . S
C792 C796 1.350 . S
C793 C796 1.463 . S
C793 C798 1.350 . S
C793 N801 1.427 . S
C794 H785 0.930 . S
C794 C792 1.378 . S
C794 C795 1.367 . S
C795 C794 1.367 . S
C795 C797 1.433 . S
C796 C792 1.350 . S
C796 C793 1.463 . S
C796 N800 1.427 . S
C797 H787 0.929 . S
C797 C795 1.433 . S
C797 N800 1.384 . S
C798 H789 0.929 . S
C798 C790 1.378 . S
C798 C793 1.350 . S
C799 H786 0.929 . S
C799 C791 1.433 . S
C799 N801 1.384 . S
N800 C796 1.427 . S
N800 C797 1.384 . S
N801 C793 1.427 . S
N801 C799 1.384 . S
H802 C808 0.930 . S
H803 C812 0.930 . S
H804 C817 0.929 . S
H805 C815 0.929 . S
H806 C810 0.929 . S
H807 C816 0.929 . S
C808 H802 0.930 . S
C808 C809 1.367 . S
C808 C816 1.378 . S
C809 C808 1.367 . S
C809 C817 1.433 . S
C810 H806 0.929 . S
C810 C812 1.378 . S
C810 C814 1.350 . S
C811 C814 1.463 . S
C811 C816 1.350 . S
C811 N819 1.427 . S
C812 H803 0.930 . S
C812 C810 1.378 . S
C812 C813 1.367 . S
C813 C812 1.367 . S
C813 C815 1.433 . S
C814 C810 1.350 . S
C814 C811 1.463 . S
C814 N818 1.427 . S
C815 H805 0.929 . S
C815 C813 1.433 . S
C815 N818 1.384 . S
C816 H807 0.929 . S
C816 C808 1.378 . S
C816 C811 1.350 . S
C817 H804 0.929 . S
C817 C809 1.433 . S
C817 N819 1.384 . S
N818 C814 1.427 . S
N818 C815 1.384 . S
N819 C811 1.427 . S
N819 C817 1.384 . S
H820 C826 0.930 . S
H821 C830 0.930 . S
H822 C835 0.929 . S
H823 C833 0.929 . S
H824 C828 0.929 . S
H825 C834 0.929 . S
C826 H820 0.930 . S
C826 C827 1.367 . S
C826 C834 1.378 . S
C827 C826 1.367 . S
C827 C835 1.433 . S
C828 H824 0.929 . S
C828 C830 1.378 . S
C828 C832 1.350 . S
C829 C832 1.463 . S
C829 C834 1.350 . S
C829 N837 1.427 . S
C830 H821 0.930 . S
C830 C828 1.378 . S
C830 C831 1.367 . S
C831 C830 1.367 . S
C831 C833 1.433 . S
C832 C828 1.350 . S
C832 C829 1.463 . S
C832 N836 1.427 . S
C833 H823 0.929 . S
C833 C831 1.433 . S
C833 N836 1.384 . S
C834 H825 0.929 . S
C834 C826 1.378 . S
C834 C829 1.350 . S
C835 H822 0.929 . S
C835 C827 1.433 . S
C835 N837 1.384 . S
N836 C832 1.427 . S
N836 C833 1.384 . S
N837 C829 1.427 . S
N837 C835 1.384 . S
H838 C844 0.930 . S
H839 C848 0.930 . S
H840 C853 0.929 . S
H841 C851 0.929 . S
H842 C846 0.929 . S
H843 C852 0.929 . S
C844 H838 0.930 . S
C844 C845 1.367 . S
C844 C852 1.378 . S
C845 C844 1.367 . S
C845 C853 1.433 . S
C846 H842 0.929 . S
C846 C848 1.378 . S
C846 C850 1.350 . S
C847 C850 1.463 . S
C847 C852 1.350 . S
C847 N855 1.427 . S
C848 H839 0.930 . S
C848 C846 1.378 . S
C848 C849 1.367 . S
C849 C848 1.367 . S
C849 C851 1.433 . S
C850 C846 1.350 . S
C850 C847 1.463 . S
C850 N854 1.427 . S
C851 H841 0.929 . S
C851 C849 1.433 . S
C851 N854 1.384 . S
C852 H843 0.929 . S
C852 C844 1.378 . S
C852 C847 1.350 . S
C853 H840 0.929 . S
C853 C845 1.433 . S
C853 N855 1.384 . S
N854 C850 1.427 . S
N854 C851 1.384 . S
N855 C847 1.427 . S
N855 C853 1.384 . S
H856 C862 0.930 . S
H857 C866 0.930 . S
H858 C871 0.929 . S
H859 C869 0.929 . S
H860 C864 0.929 . S
H861 C870 0.929 . S
C862 H856 0.930 . S
C862 C863 1.367 . S
C862 C870 1.378 . S
C863 C862 1.367 . S
C863 C871 1.433 . S
C864 H860 0.929 . S
C864 C866 1.378 . S
C864 C868 1.350 . S
C865 C868 1.463 . S
C865 C870 1.350 . S
C865 N873 1.427 . S
C866 H857 0.930 . S
C866 C864 1.378 . S
C866 C867 1.367 . S
C867 C866 1.367 . S
C867 C869 1.433 . S
C868 C864 1.350 . S
C868 C865 1.463 . S
C868 N872 1.427 . S
C869 H859 0.929 . S
C869 C867 1.433 . S
C869 N872 1.384 . S
C870 H861 0.929 . S
C870 C862 1.378 . S
C870 C865 1.350 . S
C871 H858 0.929 . S
C871 C863 1.433 . S
C871 N873 1.384 . S
N872 C868 1.427 . S
N872 C869 1.384 . S
N873 C865 1.427 . S
N873 C871 1.384 . S
H874 C880 0.930 . S
H875 C884 0.930 . S
H876 C889 0.929 . S
H877 C887 0.929 . S
H878 C882 0.929 . S
H879 C888 0.929 . S
C880 H874 0.930 . S
C880 C881 1.367 . S
C880 C888 1.378 . S
C881 C880 1.367 . S
C881 C889 1.433 . S
C882 H878 0.929 . S
C882 C884 1.378 . S
C882 C886 1.350 . S
C883 C886 1.463 . S
C883 C888 1.350 . S
C883 N891 1.427 . S
C884 H875 0.930 . S
C884 C882 1.378 . S
C884 C885 1.367 . S
C885 C884 1.367 . S
C885 C887 1.433 . S
C886 C882 1.350 . S
C886 C883 1.463 . S
C886 N890 1.427 . S
C887 H877 0.929 . S
C887 C885 1.433 . S
C887 N890 1.384 . S
C888 H879 0.929 . S
C888 C880 1.378 . S
C888 C883 1.350 . S
C889 H876 0.929 . S
C889 C881 1.433 . S
C889 N891 1.384 . S
N890 C886 1.427 . S
N890 C887 1.384 . S
N891 C883 1.427 . S
N891 C889 1.384 . S
H892 C898 0.930 . S
H893 C902 0.930 . S
H894 C907 0.929 . S
H895 C905 0.929 . S
H896 C900 0.929 . S
H897 C906 0.929 . S
C898 H892 0.930 . S
C898 C899 1.367 . S
C898 C906 1.378 . S
C899 C898 1.367 . S
C899 C907 1.433 . S
C900 H896 0.929 . S
C900 C902 1.378 . S
C900 C904 1.350 . S
C901 C904 1.463 . S
C901 C906 1.350 . S
C901 N909 1.427 . S
C902 H893 0.930 . S
C902 C900 1.378 . S
C902 C903 1.367 . S
C903 C902 1.367 . S
C903 C905 1.433 . S
C904 C900 1.350 . S
C904 C901 1.463 . S
C904 N908 1.427 . S
C905 H895 0.929 . S
C905 C903 1.433 . S
C905 N908 1.384 . S
C906 H897 0.929 . S
C906 C898 1.378 . S
C906 C901 1.350 . S
C907 H894 0.929 . S
C907 C899 1.433 . S
C907 N909 1.384 . S
N908 C904 1.427 . S
N908 C905 1.384 . S
N909 C901 1.427 . S
N909 C907 1.384 . S
H910 C916 0.930 . S
H911 C920 0.930 . S
H912 C925 0.929 . S
H913 C923 0.929 . S
H914 C918 0.929 . S
H915 C924 0.929 . S
C916 H910 0.930 . S
C916 C917 1.367 . S
C916 C924 1.378 . S
C917 C916 1.367 . S
C917 C925 1.433 . S
C918 H914 0.929 . S
C918 C920 1.378 . S
C918 C922 1.350 . S
C919 C922 1.463 . S
C919 C924 1.350 . S
C919 N927 1.427 . S
C920 H911 0.930 . S
C920 C918 1.378 . S
C920 C921 1.367 . S
C921 C920 1.367 . S
C921 C923 1.433 . S
C922 C918 1.350 . S
C922 C919 1.463 . S
C922 N926 1.427 . S
C923 H913 0.929 . S
C923 C921 1.433 . S
C923 N926 1.384 . S
C924 H915 0.929 . S
C924 C916 1.378 . S
C924 C919 1.350 . S
C925 H912 0.929 . S
C925 C917 1.433 . S
C925 N927 1.384 . S
N926 C922 1.427 . S
N926 C923 1.384 . S
N927 C919 1.427 . S
N927 C925 1.384 . S
H928 C934 0.930 . S
H929 C938 0.930 . S
H930 C943 0.929 . S
H931 C941 0.929 . S
H932 C936 0.929 . S
H933 C942 0.929 . S
C934 H928 0.930 . S
C934 C935 1.367 . S
C934 C942 1.378 . S
C935 C934 1.367 . S
C935 C943 1.433 1_565 S
C936 H932 0.929 . S
C936 C938 1.378 . S
C936 C940 1.379 . S
C937 C940 1.460 1_565 S
C937 C942 1.379 . S
C937 N945 1.399 1_565 S
C938 H929 0.930 . S
C938 C936 1.378 . S
C938 C939 1.367 . S
C939 C938 1.367 . S
C939 C941 1.433 1_545 S
C940 C936 1.379 . S
C940 C937 1.460 1_545 S
C940 N944 1.399 1_545 S
C941 H931 0.929 . S
C941 C939 1.433 1_565 S
C941 N944 1.384 . S
C942 H933 0.929 . S
C942 C934 1.378 . S
C942 C937 1.379 . S
C943 H930 0.929 . S
C943 C935 1.433 1_545 S
C943 N945 1.384 . S
N944 C940 1.399 1_565 S
N944 C941 1.384 . S
N945 C937 1.399 1_545 S
N945 C943 1.384 . S
H946 C952 0.930 . S
H947 C956 0.930 . S
H948 C961 0.929 . S
H949 C959 0.929 . S
H950 C954 0.929 . S
H951 C960 0.929 . S
C952 H946 0.930 . S
C952 C953 1.367 . S
C952 C960 1.378 . S
C953 C952 1.367 . S
C953 C961 1.433 . S
C954 H950 0.929 . S
C954 C956 1.378 . S
C954 C958 1.350 . S
C955 C958 1.463 1_455 S
C955 C960 1.350 . S
C955 N963 1.430 . S
C956 H947 0.930 . S
C956 C954 1.378 . S
C956 C957 1.367 . S
C957 C956 1.367 . S
C957 C959 1.433 . S
C958 C954 1.350 . S
C958 C955 1.463 1_655 S
C958 N962 1.430 . S
C959 H949 0.929 . S
C959 C957 1.433 . S
C959 N962 1.389 . S
C960 H951 0.929 . S
C960 C952 1.378 . S
C960 C955 1.350 . S
C961 H948 0.929 . S
C961 C953 1.433 . S
C961 N963 1.389 . S
N962 C958 1.430 . S
N962 C959 1.389 . S
N963 C955 1.430 . S
N963 C961 1.389 . S
H964 C970 0.930 . S
H965 C974 0.930 . S
H966 C979 0.929 . S
H967 C977 0.929 . S
H968 C972 0.929 . S
H969 C978 0.929 . S
C970 H964 0.930 . S
C970 C971 1.367 . S
C970 C978 1.378 . S
C971 C970 1.367 . S
C971 C979 1.433 . S
C972 H968 0.929 . S
C972 C974 1.378 . S
C972 C976 1.350 . S
C973 C976 1.463 1_556 S
C973 C978 1.350 . S
C973 N981 1.427 . S
C974 H965 0.930 . S
C974 C972 1.378 . S
C974 C975 1.367 . S
C975 C974 1.367 . S
C975 C977 1.433 . S
C976 C972 1.350 . S
C976 C973 1.463 1_554 S
C976 N980 1.427 . S
C977 H967 0.929 . S
C977 C975 1.433 . S
C977 N980 1.384 . S
C978 H969 0.929 . S
C978 C970 1.378 . S
C978 C973 1.350 . S
C979 H966 0.929 . S
C979 C971 1.433 . S
C979 N981 1.384 . S
N980 C976 1.427 . S
N980 C977 1.384 . S
N981 C973 1.427 . S
N981 C979 1.384 . S
H982 C988 0.930 . S
H983 C992 0.930 . S
H984 C997 0.929 . S
H985 C995 0.929 . S
H986 C990 0.929 1_554 S
H987 C996 0.929 1_556 S
C988 H982 0.930 . S
C988 C989 1.367 . S
C988 C996 1.378 . S
C989 C988 1.367 . S
C989 C997 1.433 1_565 S
C990 H986 0.929 1_556 S
C990 C992 1.378 . S
C990 C994 1.359 . S
C991 C994 1.462 1_664 S
C991 C996 1.359 . S
C991 N999 1.419 1_665 S
C992 H983 0.930 . S
C992 C990 1.378 . S
C992 C993 1.367 . S
C993 C992 1.367 . S
C993 C995 1.433 1_545 S
C994 C990 1.359 . S
C994 C991 1.462 1_446 S
C994 N998 1.419 1_445 S
C995 H985 0.929 . S
C995 C993 1.433 1_565 S
C995 N998 1.384 1_455 S
C996 H987 0.929 1_554 S
C996 C988 1.378 . S
C996 C991 1.359 . S
C997 H984 0.929 . S
C997 C989 1.433 1_545 S
C997 N999 1.384 1_655 S
N998 C994 1.419 1_665 S
N998 C995 1.384 1_655 S
N999 C991 1.419 1_445 S
N999 C997 1.384 1_455 S
H1000 C1006 0.930 . S
H1001 C1010 0.930 . S
H1002 C1015 0.929 . S
H1003 C1013 0.929 . S
H1004 C1008 0.929 . S
H1005 C1014 0.929 . S
C1006 H1000 0.930 . S
C1006 C1007 1.356 1_565 S
C1006 C1014 1.378 . S
C1007 C1006 1.356 1_545 S
C1007 C1015 1.444 . S
C1008 H1004 0.929 . S
C1008 C1010 1.378 . S
C1008 C1012 1.355 . S
C1009 C1012 1.462 1_565 S
C1009 C1014 1.355 . S
C1009 N1017 1.423 1_565 S
C1010 H1001 0.930 . S
C1010 C1008 1.378 . S
C1010 C1011 1.357 1_545 S
C1011 C1010 1.357 1_565 S
C1011 C1013 1.444 . S
C1012 C1008 1.355 . S
C1012 C1009 1.462 1_545 S
C1012 N1016 1.422 1_545 S
C1013 H1003 0.929 . S
C1013 C1011 1.444 . S
C1013 N1016 1.384 . S
C1014 H1005 0.929 . S
C1014 C1006 1.378 . S
C1014 C1009 1.355 . S
C1015 H1002 0.929 . S
C1015 C1007 1.444 . S
C1015 N1017 1.384 . S
N1016 C1012 1.422 1_565 S
N1016 C1013 1.384 . S
N1017 C1009 1.423 1_545 S
N1017 C1015 1.384 . S
H1018 C1024 0.930 . S
H1019 C1028 0.930 . S
H1020 C1033 0.929 . S
H1021 C1031 0.929 . S
H1022 C1026 0.929 . S
H1023 C1032 0.929 . S
C1024 H1018 0.930 . S
C1024 C1025 1.367 . S
C1024 C1032 1.378 1_455 S
C1025 C1024 1.367 . S
C1025 C1033 1.433 . S
C1026 H1022 0.929 . S
C1026 C1028 1.378 1_455 S
C1026 C1030 1.350 1_455 S
C1027 C1030 1.463 1_455 S
C1027 C1032 1.350 1_455 S
C1027 N1035 1.427 . S
C1028 H1019 0.930 . S
C1028 C1026 1.378 1_655 S
C1028 C1029 1.367 . S
C1029 C1028 1.367 . S
C1029 C1031 1.433 . S
C1030 C1026 1.350 1_655 S
C1030 C1027 1.463 1_655 S
C1030 N1034 1.427 . S
C1031 H1021 0.929 . S
C1031 C1029 1.433 . S
C1031 N1034 1.384 . S
C1032 H1023 0.929 . S
C1032 C1024 1.378 1_655 S
C1032 C1027 1.350 1_655 S
C1033 H1020 0.929 . S
C1033 C1025 1.433 . S
C1033 N1035 1.384 . S
N1034 C1030 1.427 . S
N1034 C1031 1.384 . S
N1035 C1027 1.427 . S
N1035 C1033 1.384 . S
H1036 C1042 0.930 . S
H1037 C1046 0.930 . S
H1038 C1051 0.929 . S
H1039 C1049 0.929 . S
H1040 C1044 0.929 . S
H1041 C1050 0.929 . S
C1042 H1036 0.930 . S
C1042 C1043 1.367 . S
C1042 C1050 1.378 . S
C1043 C1042 1.367 . S
C1043 C1051 1.433 . S
C1044 H1040 0.929 . S
C1044 C1046 1.378 . S
C1044 C1048 1.350 . S
C1045 C1048 1.463 1_556 S
C1045 C1050 1.350 . S
C1045 N1053 1.427 . S
C1046 H1037 0.930 . S
C1046 C1044 1.378 . S
C1046 C1047 1.367 . S
C1047 C1046 1.367 . S
C1047 C1049 1.433 . S
C1048 C1044 1.350 . S
C1048 C1045 1.463 1_554 S
C1048 N1052 1.427 . S
C1049 H1039 0.929 . S
C1049 C1047 1.433 . S
C1049 N1052 1.384 . S
C1050 H1041 0.929 . S
C1050 C1042 1.378 . S
C1050 C1045 1.350 . S
C1051 H1038 0.929 . S
C1051 C1043 1.433 . S
C1051 N1053 1.384 . S
N1052 C1048 1.427 . S
N1052 C1049 1.384 . S
N1053 C1045 1.427 . S
N1053 C1051 1.384 . S
H1054 C1060 0.930 . S
H1055 C1064 0.930 . S
H1056 C1069 0.929 . S
H1057 C1067 0.929 . S
H1058 C1062 0.929 . S
H1059 C1068 0.929 . S
C1060 H1054 0.930 . S
C1060 C1061 1.367 . S
C1060 C1068 1.378 . S
C1061 C1060 1.367 . S
C1061 C1069 1.433 . S
C1062 H1058 0.929 . S
C1062 C1064 1.378 . S
C1062 C1066 1.350 . S
C1063 C1066 1.463 . S
C1063 C1068 1.350 . S
C1063 N1071 1.427 . S
C1064 H1055 0.930 . S
C1064 C1062 1.378 . S
C1064 C1065 1.367 . S
C1065 C1064 1.367 . S
C1065 C1067 1.433 . S
C1066 C1062 1.350 . S
C1066 C1063 1.463 . S
C1066 N1070 1.427 . S
C1067 H1057 0.929 . S
C1067 C1065 1.433 . S
C1067 N1070 1.384 . S
C1068 H1059 0.929 . S
C1068 C1060 1.378 . S
C1068 C1063 1.350 . S
C1069 H1056 0.929 . S
C1069 C1061 1.433 . S
C1069 N1071 1.384 . S
N1070 C1066 1.427 . S
N1070 C1067 1.384 . S
N1071 C1063 1.427 . S
N1071 C1069 1.384 . S
H1072 C1078 0.930 . S
H1073 C1082 0.930 . S
H1074 C1087 0.929 . S
H1075 C1085 0.929 . S
H1076 C1080 0.929 . S
H1077 C1086 0.929 . S
C1078 H1072 0.930 . S
C1078 C1079 1.367 . S
C1078 C1086 1.378 . S
C1079 C1078 1.367 . S
C1079 C1087 1.433 . S
C1080 H1076 0.929 . S
C1080 C1082 1.378 . S
C1080 C1084 1.350 . S
C1081 C1084 1.463 . S
C1081 C1086 1.350 . S
C1081 N1089 1.427 . S
C1082 H1073 0.930 . S
C1082 C1080 1.378 . S
C1082 C1083 1.367 . S
C1083 C1082 1.367 . S
C1083 C1085 1.433 . S
C1084 C1080 1.350 . S
C1084 C1081 1.463 . S
C1084 N1088 1.427 . S
C1085 H1075 0.929 . S
C1085 C1083 1.433 . S
C1085 N1088 1.384 . S
C1086 H1077 0.929 . S
C1086 C1078 1.378 . S
C1086 C1081 1.350 . S
C1087 H1074 0.929 . S
C1087 C1079 1.433 . S
C1087 N1089 1.384 . S
N1088 C1084 1.427 . S
N1088 C1085 1.384 . S
N1089 C1081 1.427 . S
N1089 C1087 1.384 . S
H1090 C1096 0.930 . S
H1091 C1100 0.930 . S
H1092 C1105 0.929 . S
H1093 C1103 0.929 . S
H1094 C1098 0.929 . S
H1095 C1104 0.929 . S
C1096 H1090 0.930 . S
C1096 C1097 1.367 . S
C1096 C1104 1.378 . S
C1097 C1096 1.367 . S
C1097 C1105 1.433 . S
C1098 H1094 0.929 . S
C1098 C1100 1.378 . S
C1098 C1102 1.350 . S
C1099 C1102 1.463 1_455 S
C1099 C1104 1.350 . S
C1099 N1107 1.427 . S
C1100 H1091 0.930 . S
C1100 C1098 1.378 . S
C1100 C1101 1.367 . S
C1101 C1100 1.367 . S
C1101 C1103 1.433 . S
C1102 C1098 1.350 . S
C1102 C1099 1.463 1_655 S
C1102 N1106 1.427 . S
C1103 H1093 0.929 . S
C1103 C1101 1.433 . S
C1103 N1106 1.384 . S
C1104 H1095 0.929 . S
C1104 C1096 1.378 . S
C1104 C1099 1.350 . S
C1105 H1092 0.929 . S
C1105 C1097 1.433 . S
C1105 N1107 1.384 . S
N1106 C1102 1.427 . S
N1106 C1103 1.384 . S
N1107 C1099 1.427 . S
N1107 C1105 1.384 . S
H1108 C1114 0.930 . S
H1109 C1118 0.930 . S
H1110 C1123 0.929 . S
H1111 C1121 0.929 . S
H1112 C1116 0.929 . S
H1113 C1122 0.929 . S
C1114 H1108 0.930 . S
C1114 C1115 1.367 . S
C1114 C1122 1.378 . S
C1115 C1114 1.367 . S
C1115 C1123 1.433 . S
C1116 H1112 0.929 . S
C1116 C1118 1.378 . S
C1116 C1120 1.350 . S
C1117 C1120 1.463 . S
C1117 C1122 1.350 . S
C1117 N1125 1.427 . S
C1118 H1109 0.930 . S
C1118 C1116 1.378 . S
C1118 C1119 1.367 . S
C1119 C1118 1.367 . S
C1119 C1121 1.433 . S
C1120 C1116 1.350 . S
C1120 C1117 1.463 . S
C1120 N1124 1.427 . S
C1121 H1111 0.929 . S
C1121 C1119 1.433 . S
C1121 N1124 1.384 . S
C1122 H1113 0.929 . S
C1122 C1114 1.378 . S
C1122 C1117 1.350 . S
C1123 H1110 0.929 . S
C1123 C1115 1.433 . S
C1123 N1125 1.384 . S
N1124 C1120 1.427 . S
N1124 C1121 1.384 . S
N1125 C1117 1.427 . S
N1125 C1123 1.384 . S
H1126 C1132 0.930 . S
H1127 C1136 0.930 . S
H1128 C1141 0.929 . S
H1129 C1139 0.929 . S
H1130 C1134 0.929 . S
H1131 C1140 0.929 . S
C1132 H1126 0.930 . S
C1132 C1133 1.367 . S
C1132 C1140 1.378 . S
C1133 C1132 1.367 . S
C1133 C1141 1.433 . S
C1134 H1130 0.929 . S
C1134 C1136 1.378 . S
C1134 C1138 1.350 . S
C1135 C1138 1.463 . S
C1135 C1140 1.350 . S
C1135 N1143 1.427 . S
C1136 H1127 0.930 . S
C1136 C1134 1.378 . S
C1136 C1137 1.367 . S
C1137 C1136 1.367 . S
C1137 C1139 1.433 . S
C1138 C1134 1.350 . S
C1138 C1135 1.463 . S
C1138 N1142 1.427 . S
C1139 H1129 0.929 . S
C1139 C1137 1.433 . S
C1139 N1142 1.384 . S
C1140 H1131 0.929 . S
C1140 C1132 1.378 . S
C1140 C1135 1.350 . S
C1141 H1128 0.929 . S
C1141 C1133 1.433 . S
C1141 N1143 1.384 . S
N1142 C1138 1.427 . S
N1142 C1139 1.384 . S
N1143 C1135 1.427 . S
N1143 C1141 1.384 . S
H1144 C1150 0.930 . S
H1145 C1154 0.930 . S
H1146 C1159 0.929 . S
H1147 C1157 0.929 . S
H1148 C1152 0.929 . S
H1149 C1158 0.929 . S
C1150 H1144 0.930 . S
C1150 C1151 1.367 . S
C1150 C1158 1.378 . S
C1151 C1150 1.367 . S
C1151 C1159 1.433 . S
C1152 H1148 0.929 . S
C1152 C1154 1.378 . S
C1152 C1156 1.350 . S
C1153 C1156 1.463 . S
C1153 C1158 1.350 . S
C1153 N1161 1.427 . S
C1154 H1145 0.930 . S
C1154 C1152 1.378 . S
C1154 C1155 1.367 . S
C1155 C1154 1.367 . S
C1155 C1157 1.433 . S
C1156 C1152 1.350 . S
C1156 C1153 1.463 . S
C1156 N1160 1.427 . S
C1157 H1147 0.929 . S
C1157 C1155 1.433 . S
C1157 N1160 1.384 . S
C1158 H1149 0.929 . S
C1158 C1150 1.378 . S
C1158 C1153 1.350 . S
C1159 H1146 0.929 . S
C1159 C1151 1.433 . S
C1159 N1161 1.384 . S
N1160 C1156 1.427 . S
N1160 C1157 1.384 . S
N1161 C1153 1.427 . S
N1161 C1159 1.384 . S
H1162 C1168 0.930 1_545 S
H1163 C1172 0.930 1_565 S
H1164 C1177 0.929 . S
H1165 C1175 0.929 . S
H1166 C1170 0.928 . S
H1167 C1176 0.928 . S
C1168 H1162 0.930 1_565 S
C1168 C1169 1.366 . S
C1168 C1176 1.378 1_565 S
C1169 C1168 1.366 . S
C1169 C1177 1.434 . S
C1170 H1166 0.928 . S
C1170 C1172 1.378 1_565 S
C1170 C1174 1.350 1_565 S
C1171 C1174 1.462 1_565 S
C1171 C1176 1.350 1_565 S
C1171 N1179 1.427 . S
C1172 H1163 0.930 1_545 S
C1172 C1170 1.378 1_545 S
C1172 C1173 1.366 . S
C1173 C1172 1.366 . S
C1173 C1175 1.434 . S
C1174 C1170 1.350 1_545 S
C1174 C1171 1.462 1_545 S
C1174 N1178 1.427 . S
C1175 H1165 0.929 . S
C1175 C1173 1.434 . S
C1175 N1178 1.385 . S
C1176 H1167 0.928 . S
C1176 C1168 1.378 1_545 S
C1176 C1171 1.350 1_545 S
C1177 H1164 0.929 . S
C1177 C1169 1.434 . S
C1177 N1179 1.385 . S
N1178 C1174 1.427 . S
N1178 C1175 1.385 . S
N1179 C1171 1.427 . S
N1179 C1177 1.385 . S
H1180 C1186 0.930 . S
H1181 C1190 0.930 . S
H1182 C1195 0.929 . S
H1183 C1193 0.929 . S
H1184 C1188 0.929 . S
H1185 C1194 0.929 . S
C1186 H1180 0.930 . S
C1186 C1187 1.367 . S
C1186 C1194 1.378 . S
C1187 C1186 1.367 . S
C1187 C1195 1.433 . S
C1188 H1184 0.929 . S
C1188 C1190 1.378 . S
C1188 C1192 1.350 . S
C1189 C1192 1.463 . S
C1189 C1194 1.350 . S
C1189 N1197 1.427 . S
C1190 H1181 0.930 . S
C1190 C1188 1.378 . S
C1190 C1191 1.367 . S
C1191 C1190 1.367 . S
C1191 C1193 1.433 . S
C1192 C1188 1.350 . S
C1192 C1189 1.463 . S
C1192 N1196 1.427 . S
C1193 H1183 0.929 . S
C1193 C1191 1.433 . S
C1193 N1196 1.384 . S
C1194 H1185 0.929 . S
C1194 C1186 1.378 . S
C1194 C1189 1.350 . S
C1195 H1182 0.929 . S
C1195 C1187 1.433 . S
C1195 N1197 1.384 . S
N1196 C1192 1.427 . S
N1196 C1193 1.384 . S
N1197 C1189 1.427 . S
N1197 C1195 1.384 . S
H1198 C1204 0.930 . S
H1199 C1208 0.930 . S
H1200 C1213 0.929 . S
H1201 C1211 0.929 . S
H1202 C1206 0.929 . S
H1203 C1212 0.929 . S
C1204 H1198 0.930 . S
C1204 C1205 1.367 . S
C1204 C1212 1.378 . S
C1205 C1204 1.367 . S
C1205 C1213 1.433 . S
C1206 H1202 0.929 . S
C1206 C1208 1.378 . S
C1206 C1210 1.350 . S
C1207 C1210 1.463 1_554 S
C1207 C1212 1.350 . S
C1207 N1215 1.427 . S
C1208 H1199 0.930 . S
C1208 C1206 1.378 . S
C1208 C1209 1.367 . S
C1209 C1208 1.367 . S
C1209 C1211 1.433 . S
C1210 C1206 1.350 . S
C1210 C1207 1.463 1_556 S
C1210 N1214 1.427 . S
C1211 H1201 0.929 . S
C1211 C1209 1.433 . S
C1211 N1214 1.384 . S
C1212 H1203 0.929 . S
C1212 C1204 1.378 . S
C1212 C1207 1.350 . S
C1213 H1200 0.929 . S
C1213 C1205 1.433 . S
C1213 N1215 1.384 . S
N1214 C1210 1.427 . S
N1214 C1211 1.384 . S
N1215 C1207 1.427 . S
N1215 C1213 1.384 . S
H1216 C1222 0.930 . S
H1217 C1226 0.930 . S
H1218 C1231 0.929 . S
H1219 C1229 0.929 . S
H1220 C1224 0.929 . S
H1221 C1230 0.929 . S
C1222 H1216 0.930 . S
C1222 C1223 1.367 . S
C1222 C1230 1.378 . S
C1223 C1222 1.367 . S
C1223 C1231 1.433 1_545 S
C1224 H1220 0.929 . S
C1224 C1226 1.378 . S
C1224 C1228 1.350 1_565 S
C1225 C1228 1.463 . S
C1225 C1230 1.350 . S
C1225 N1233 1.427 1_545 S
C1226 H1217 0.930 . S
C1226 C1224 1.378 . S
C1226 C1227 1.367 1_565 S
C1227 C1226 1.367 1_545 S
C1227 C1229 1.433 . S
C1228 C1224 1.350 1_545 S
C1228 C1225 1.463 . S
C1228 N1232 1.427 . S
C1229 H1219 0.929 . S
C1229 C1227 1.433 . S
C1229 N1232 1.384 . S
C1230 H1221 0.929 . S
C1230 C1222 1.378 . S
C1230 C1225 1.350 . S
C1231 H1218 0.929 . S
C1231 C1223 1.433 1_565 S
C1231 N1233 1.384 . S
N1232 C1228 1.427 . S
N1232 C1229 1.384 . S
N1233 C1225 1.427 1_565 S
N1233 C1231 1.384 . S
H1234 C1240 0.930 . S
H1235 C1244 0.930 . S
H1236 C1249 0.929 . S
H1237 C1247 0.929 . S
H1238 C1242 0.929 . S
H1239 C1248 0.929 . S
C1240 H1234 0.930 . S
C1240 C1241 1.367 . S
C1240 C1248 1.378 . S
C1241 C1240 1.367 . S
C1241 C1249 1.433 . S
C1242 H1238 0.929 . S
C1242 C1244 1.378 . S
C1242 C1246 1.350 . S
C1243 C1246 1.463 . S
C1243 C1248 1.350 . S
C1243 N1251 1.427 . S
C1244 H1235 0.930 . S
C1244 C1242 1.378 . S
C1244 C1245 1.367 . S
C1245 C1244 1.367 . S
C1245 C1247 1.433 . S
C1246 C1242 1.350 . S
C1246 C1243 1.463 . S
C1246 N1250 1.427 . S
C1247 H1237 0.929 . S
C1247 C1245 1.433 . S
C1247 N1250 1.384 . S
C1248 H1239 0.929 . S
C1248 C1240 1.378 . S
C1248 C1243 1.350 . S
C1249 H1236 0.929 . S
C1249 C1241 1.433 . S
C1249 N1251 1.384 . S
N1250 C1246 1.427 . S
N1250 C1247 1.384 . S
N1251 C1243 1.427 . S
N1251 C1249 1.384 . S
H1252 C1258 0.930 . S
H1253 C1262 0.930 . S
H1254 C1267 0.929 . S
H1255 C1265 0.929 . S
H1256 C1260 0.929 . S
H1257 C1266 0.929 . S
C1258 H1252 0.930 . S
C1258 C1259 1.367 . S
C1258 C1266 1.378 . S
C1259 C1258 1.367 . S
C1259 C1267 1.433 . S
C1260 H1256 0.929 . S
C1260 C1262 1.378 . S
C1260 C1264 1.350 . S
C1261 C1264 1.463 . S
C1261 C1266 1.350 . S
C1261 N1269 1.427 . S
C1262 H1253 0.930 . S
C1262 C1260 1.378 . S
C1262 C1263 1.367 . S
C1263 C1262 1.367 . S
C1263 C1265 1.433 . S
C1264 C1260 1.350 . S
C1264 C1261 1.463 . S
C1264 N1268 1.427 . S
C1265 H1255 0.929 . S
C1265 C1263 1.433 . S
C1265 N1268 1.384 . S
C1266 H1257 0.929 . S
C1266 C1258 1.378 . S
C1266 C1261 1.350 . S
C1267 H1254 0.929 . S
C1267 C1259 1.433 . S
C1267 N1269 1.384 . S
N1268 C1264 1.427 . S
N1268 C1265 1.384 . S
N1269 C1261 1.427 . S
N1269 C1267 1.384 . S
H1270 C1276 0.930 . S
H1271 C1280 0.930 . S
H1272 C1285 0.929 . S
H1273 C1283 0.929 . S
H1274 C1278 0.929 . S
H1275 C1284 0.929 . S
C1276 H1270 0.930 . S
C1276 C1277 1.367 . S
C1276 C1284 1.378 . S
C1277 C1276 1.367 . S
C1277 C1285 1.433 1_545 S
C1278 H1274 0.929 . S
C1278 C1280 1.378 . S
C1278 C1282 1.350 1_565 S
C1279 C1282 1.463 . S
C1279 C1284 1.350 . S
C1279 N1287 1.427 1_545 S
C1280 H1271 0.930 . S
C1280 C1278 1.378 . S
C1280 C1281 1.367 1_565 S
C1281 C1280 1.367 1_545 S
C1281 C1283 1.433 . S
C1282 C1278 1.350 1_545 S
C1282 C1279 1.463 . S
C1282 N1286 1.427 . S
C1283 H1273 0.929 . S
C1283 C1281 1.433 . S
C1283 N1286 1.384 . S
C1284 H1275 0.929 . S
C1284 C1276 1.378 . S
C1284 C1279 1.350 . S
C1285 H1272 0.929 . S
C1285 C1277 1.433 1_565 S
C1285 N1287 1.384 . S
N1286 C1282 1.427 . S
N1286 C1283 1.384 . S
N1287 C1279 1.427 1_565 S
N1287 C1285 1.384 . S
H1288 C1294 0.930 . S
H1289 C1298 0.930 . S
H1290 C1303 0.929 . S
H1291 C1301 0.929 . S
H1292 C1296 0.929 . S
H1293 C1302 0.929 . S
C1294 H1288 0.930 . S
C1294 C1295 1.367 1_545 S
C1294 C1302 1.378 . S
C1295 C1294 1.367 1_565 S
C1295 C1303 1.433 . S
C1296 H1292 0.929 . S
C1296 C1298 1.378 . S
C1296 C1300 1.350 . S
C1297 C1300 1.463 . S
C1297 C1302 1.350 1_565 S
C1297 N1305 1.427 . S
C1298 H1289 0.930 . S
C1298 C1296 1.378 . S
C1298 C1299 1.367 . S
C1299 C1298 1.367 . S
C1299 C1301 1.433 1_565 S
C1300 C1296 1.350 . S
C1300 C1297 1.463 . S
C1300 N1304 1.427 1_565 S
C1301 H1291 0.929 . S
C1301 C1299 1.433 1_545 S
C1301 N1304 1.384 . S
C1302 H1293 0.929 . S
C1302 C1294 1.378 . S
C1302 C1297 1.350 1_545 S
C1303 H1290 0.929 . S
C1303 C1295 1.433 . S
C1303 N1305 1.384 . S
N1304 C1300 1.427 1_545 S
N1304 C1301 1.384 . S
N1305 C1297 1.427 . S
N1305 C1303 1.384 . S
H1306 C1312 0.930 . S
H1307 C1316 0.930 . S
H1308 C1321 0.929 . S
H1309 C1319 0.929 . S
H1310 C1314 0.929 . S
H1311 C1320 0.929 . S
C1312 H1306 0.930 . S
C1312 C1313 1.367 . S
C1312 C1320 1.378 . S
C1313 C1312 1.367 . S
C1313 C1321 1.433 . S
C1314 H1310 0.929 . S
C1314 C1316 1.378 . S
C1314 C1318 1.350 . S
C1315 C1318 1.463 . S
C1315 C1320 1.350 . S
C1315 N1323 1.427 . S
C1316 H1307 0.930 . S
C1316 C1314 1.378 . S
C1316 C1317 1.367 . S
C1317 C1316 1.367 . S
C1317 C1319 1.433 . S
C1318 C1314 1.350 . S
C1318 C1315 1.463 . S
C1318 N1322 1.427 . S
C1319 H1309 0.929 . S
C1319 C1317 1.433 . S
C1319 N1322 1.384 . S
C1320 H1311 0.929 . S
C1320 C1312 1.378 . S
C1320 C1315 1.350 . S
C1321 H1308 0.929 . S
C1321 C1313 1.433 . S
C1321 N1323 1.384 . S
N1322 C1318 1.427 . S
N1322 C1319 1.384 . S
N1323 C1315 1.427 . S
N1323 C1321 1.384 . S
H1324 C1330 0.930 . S
H1325 C1334 0.930 . S
H1326 C1339 0.929 . S
H1327 C1337 0.929 . S
H1328 C1332 0.929 . S
H1329 C1338 0.929 . S
C1330 H1324 0.930 . S
C1330 C1331 1.367 . S
C1330 C1338 1.378 . S
C1331 C1330 1.367 . S
C1331 C1339 1.433 . S
C1332 H1328 0.929 . S
C1332 C1334 1.378 . S
C1332 C1336 1.350 . S
C1333 C1336 1.463 . S
C1333 C1338 1.350 . S
C1333 N1341 1.427 . S
C1334 H1325 0.930 . S
C1334 C1332 1.378 . S
C1334 C1335 1.367 . S
C1335 C1334 1.367 . S
C1335 C1337 1.433 . S
C1336 C1332 1.350 . S
C1336 C1333 1.463 . S
C1336 N1340 1.427 . S
C1337 H1327 0.929 . S
C1337 C1335 1.433 . S
C1337 N1340 1.384 . S
C1338 H1329 0.929 . S
C1338 C1330 1.378 . S
C1338 C1333 1.350 . S
C1339 H1326 0.929 . S
C1339 C1331 1.433 . S
C1339 N1341 1.384 . S
N1340 C1336 1.427 . S
N1340 C1337 1.384 . S
N1341 C1333 1.427 . S
N1341 C1339 1.384 . S
H1342 C1348 0.930 . S
H1343 C1352 0.930 . S
H1344 C1357 0.929 . S
H1345 C1355 0.929 . S
H1346 C1350 0.929 . S
H1347 C1356 0.929 . S
C1348 H1342 0.930 . S
C1348 C1349 1.367 1_545 S
C1348 C1356 1.378 . S
C1349 C1348 1.367 1_565 S
C1349 C1357 1.433 . S
C1350 H1346 0.929 . S
C1350 C1352 1.378 . S
C1350 C1354 1.350 . S
C1351 C1354 1.463 . S
C1351 C1356 1.350 1_565 S
C1351 N1359 1.427 . S
C1352 H1343 0.930 . S
C1352 C1350 1.378 . S
C1352 C1353 1.367 . S
C1353 C1352 1.367 . S
C1353 C1355 1.433 1_565 S
C1354 C1350 1.350 . S
C1354 C1351 1.463 . S
C1354 N1358 1.427 1_565 S
C1355 H1345 0.929 . S
C1355 C1353 1.433 1_545 S
C1355 N1358 1.384 . S
C1356 H1347 0.929 . S
C1356 C1348 1.378 . S
C1356 C1351 1.350 1_545 S
C1357 H1344 0.929 . S
C1357 C1349 1.433 . S
C1357 N1359 1.384 . S
N1358 C1354 1.427 1_545 S
N1358 C1355 1.384 . S
N1359 C1351 1.427 . S
N1359 C1357 1.384 . S
H1360 C1366 0.930 . S
H1361 C1370 0.930 . S
H1362 C1375 0.929 . S
H1363 C1373 0.929 . S
H1364 C1368 0.929 . S
H1365 C1374 0.929 . S
C1366 H1360 0.930 . S
C1366 C1367 1.367 . S
C1366 C1374 1.378 . S
C1367 C1366 1.367 . S
C1367 C1375 1.433 . S
C1368 H1364 0.929 . S
C1368 C1370 1.378 . S
C1368 C1372 1.350 . S
C1369 C1372 1.463 . S
C1369 C1374 1.350 . S
C1369 N1377 1.427 . S
C1370 H1361 0.930 . S
C1370 C1368 1.378 . S
C1370 C1371 1.367 . S
C1371 C1370 1.367 . S
C1371 C1373 1.433 . S
C1372 C1368 1.350 . S
C1372 C1369 1.463 . S
C1372 N1376 1.427 . S
C1373 H1363 0.929 . S
C1373 C1371 1.433 . S
C1373 N1376 1.384 . S
C1374 H1365 0.929 . S
C1374 C1366 1.378 . S
C1374 C1369 1.350 . S
C1375 H1362 0.929 . S
C1375 C1367 1.433 . S
C1375 N1377 1.384 . S
N1376 C1372 1.427 . S
N1376 C1373 1.384 . S
N1377 C1369 1.427 . S
N1377 C1375 1.384 . S
H1378 C1384 0.930 . S
H1379 C1388 0.930 . S
H1380 C1393 0.929 . S
H1381 C1391 0.929 . S
H1382 C1386 0.929 . S
H1383 C1392 0.929 . S
C1384 H1378 0.930 . S
C1384 C1385 1.367 . S
C1384 C1392 1.378 . S
C1385 C1384 1.367 . S
C1385 C1393 1.433 . S
C1386 H1382 0.929 . S
C1386 C1388 1.378 . S
C1386 C1390 1.350 . S
C1387 C1390 1.463 . S
C1387 C1392 1.350 . S
C1387 N1395 1.427 . S
C1388 H1379 0.930 . S
C1388 C1386 1.378 . S
C1388 C1389 1.367 . S
C1389 C1388 1.367 . S
C1389 C1391 1.433 . S
C1390 C1386 1.350 . S
C1390 C1387 1.463 . S
C1390 N1394 1.427 . S
C1391 H1381 0.929 . S
C1391 C1389 1.433 . S
C1391 N1394 1.384 . S
C1392 H1383 0.929 . S
C1392 C1384 1.378 . S
C1392 C1387 1.350 . S
C1393 H1380 0.929 . S
C1393 C1385 1.433 . S
C1393 N1395 1.384 . S
N1394 C1390 1.427 . S
N1394 C1391 1.384 . S
N1395 C1387 1.427 . S
N1395 C1393 1.384 . S
H1396 C1402 0.930 . S
H1397 C1406 0.930 . S
H1398 C1411 0.929 . S
H1399 C1409 0.929 . S
H1400 C1404 0.929 . S
H1401 C1410 0.929 . S
C1402 H1396 0.930 . S
C1402 C1403 1.367 . S
C1402 C1410 1.378 . S
C1403 C1402 1.367 . S
C1403 C1411 1.433 . S
C1404 H1400 0.929 . S
C1404 C1406 1.378 . S
C1404 C1408 1.350 . S
C1405 C1408 1.463 . S
C1405 C1410 1.350 . S
C1405 N1413 1.427 . S
C1406 H1397 0.930 . S
C1406 C1404 1.378 . S
C1406 C1407 1.367 . S
C1407 C1406 1.367 . S
C1407 C1409 1.433 . S
C1408 C1404 1.350 . S
C1408 C1405 1.463 . S
C1408 N1412 1.427 . S
C1409 H1399 0.929 . S
C1409 C1407 1.433 . S
C1409 N1412 1.384 . S
C1410 H1401 0.929 . S
C1410 C1402 1.378 . S
C1410 C1405 1.350 . S
C1411 H1398 0.929 . S
C1411 C1403 1.433 . S
C1411 N1413 1.384 . S
N1412 C1408 1.427 . S
N1412 C1409 1.384 . S
N1413 C1405 1.427 . S
N1413 C1411 1.384 . S
H1414 C1420 0.930 . S
H1415 C1424 0.930 . S
H1416 C1429 0.929 . S
H1417 C1427 0.929 . S
H1418 C1422 0.929 . S
H1419 C1428 0.929 . S
C1420 H1414 0.930 . S
C1420 C1421 1.367 . S
C1420 C1428 1.378 . S
C1421 C1420 1.367 . S
C1421 C1429 1.433 . S
C1422 H1418 0.929 . S
C1422 C1424 1.378 . S
C1422 C1426 1.350 . S
C1423 C1426 1.463 . S
C1423 C1428 1.350 . S
C1423 N1431 1.427 . S
C1424 H1415 0.930 . S
C1424 C1422 1.378 . S
C1424 C1425 1.367 . S
C1425 C1424 1.367 . S
C1425 C1427 1.433 . S
C1426 C1422 1.350 . S
C1426 C1423 1.463 . S
C1426 N1430 1.427 . S
C1427 H1417 0.929 . S
C1427 C1425 1.433 . S
C1427 N1430 1.384 . S
C1428 H1419 0.929 . S
C1428 C1420 1.378 . S
C1428 C1423 1.350 . S
C1429 H1416 0.929 . S
C1429 C1421 1.433 . S
C1429 N1431 1.384 . S
N1430 C1426 1.427 . S
N1430 C1427 1.384 . S
N1431 C1423 1.427 . S
N1431 C1429 1.384 . S
H1432 C1438 0.930 . S
H1433 C1442 0.930 . S
H1434 C1447 0.929 . S
H1435 C1445 0.929 . S
H1436 C1440 0.929 . S
H1437 C1446 0.929 . S
C1438 H1432 0.930 . S
C1438 C1439 1.367 . S
C1438 C1446 1.378 . S
C1439 C1438 1.367 . S
C1439 C1447 1.433 . S
C1440 H1436 0.929 . S
C1440 C1442 1.378 . S
C1440 C1444 1.350 . S
C1441 C1444 1.463 . S
C1441 C1446 1.350 . S
C1441 N1449 1.427 . S
C1442 H1433 0.930 . S
C1442 C1440 1.378 . S
C1442 C1443 1.367 . S
C1443 C1442 1.367 . S
C1443 C1445 1.433 . S
C1444 C1440 1.350 . S
C1444 C1441 1.463 . S
C1444 N1448 1.427 . S
C1445 H1435 0.929 . S
C1445 C1443 1.433 . S
C1445 N1448 1.384 . S
C1446 H1437 0.929 . S
C1446 C1438 1.378 . S
C1446 C1441 1.350 . S
C1447 H1434 0.929 . S
C1447 C1439 1.433 . S
C1447 N1449 1.384 . S
N1448 C1444 1.427 . S
N1448 C1445 1.384 . S
N1449 C1441 1.427 . S
N1449 C1447 1.384 . S
H1450 C1456 0.930 . S
H1451 C1460 0.930 . S
H1452 C1465 0.929 . S
H1453 C1463 0.929 . S
H1454 C1458 0.929 . S
H1455 C1464 0.929 . S
C1456 H1450 0.930 . S
C1456 C1457 1.367 . S
C1456 C1464 1.378 . S
C1457 C1456 1.367 . S
C1457 C1465 1.433 . S
C1458 H1454 0.929 . S
C1458 C1460 1.378 . S
C1458 C1462 1.350 . S
C1459 C1462 1.463 . S
C1459 C1464 1.350 . S
C1459 N1467 1.427 . S
C1460 H1451 0.930 . S
C1460 C1458 1.378 . S
C1460 C1461 1.367 . S
C1461 C1460 1.367 . S
C1461 C1463 1.433 . S
C1462 C1458 1.350 . S
C1462 C1459 1.463 . S
C1462 N1466 1.427 . S
C1463 H1453 0.929 . S
C1463 C1461 1.433 . S
C1463 N1466 1.384 . S
C1464 H1455 0.929 . S
C1464 C1456 1.378 . S
C1464 C1459 1.350 . S
C1465 H1452 0.929 . S
C1465 C1457 1.433 . S
C1465 N1467 1.384 . S
N1466 C1462 1.427 . S
N1466 C1463 1.384 . S
N1467 C1459 1.427 . S
N1467 C1465 1.384 . S
H1468 C1474 0.930 . S
H1469 C1478 0.930 . S
H1470 C1483 0.929 . S
H1471 C1481 0.929 . S
H1472 C1476 0.929 . S
H1473 C1482 0.929 . S
C1474 H1468 0.930 . S
C1474 C1475 1.367 . S
C1474 C1482 1.378 . S
C1475 C1474 1.367 . S
C1475 C1483 1.433 . S
C1476 H1472 0.929 . S
C1476 C1478 1.378 . S
C1476 C1480 1.350 . S
C1477 C1480 1.463 . S
C1477 C1482 1.350 . S
C1477 N1485 1.427 . S
C1478 H1469 0.930 . S
C1478 C1476 1.378 . S
C1478 C1479 1.367 . S
C1479 C1478 1.367 . S
C1479 C1481 1.433 . S
C1480 C1476 1.350 . S
C1480 C1477 1.463 . S
C1480 N1484 1.427 . S
C1481 H1471 0.929 . S
C1481 C1479 1.433 . S
C1481 N1484 1.384 . S
C1482 H1473 0.929 . S
C1482 C1474 1.378 . S
C1482 C1477 1.350 . S
C1483 H1470 0.929 . S
C1483 C1475 1.433 . S
C1483 N1485 1.384 . S
N1484 C1480 1.427 . S
N1484 C1481 1.384 . S
N1485 C1477 1.427 . S
N1485 C1483 1.384 . S
H1486 C1492 0.930 . S
H1487 C1496 0.930 . S
H1488 C1501 0.929 . S
H1489 C1499 0.929 . S
H1490 C1494 0.929 . S
H1491 C1500 0.929 . S
C1492 H1486 0.930 . S
C1492 C1493 1.367 . S
C1492 C1500 1.378 . S
C1493 C1492 1.367 . S
C1493 C1501 1.433 . S
C1494 H1490 0.929 . S
C1494 C1496 1.378 . S
C1494 C1498 1.350 . S
C1495 C1498 1.463 . S
C1495 C1500 1.350 . S
C1495 N1503 1.427 . S
C1496 H1487 0.930 . S
C1496 C1494 1.378 . S
C1496 C1497 1.367 . S
C1497 C1496 1.367 . S
C1497 C1499 1.433 . S
C1498 C1494 1.350 . S
C1498 C1495 1.463 . S
C1498 N1502 1.427 . S
C1499 H1489 0.929 . S
C1499 C1497 1.433 . S
C1499 N1502 1.384 . S
C1500 H1491 0.929 . S
C1500 C1492 1.378 . S
C1500 C1495 1.350 . S
C1501 H1488 0.929 . S
C1501 C1493 1.433 . S
C1501 N1503 1.384 . S
N1502 C1498 1.427 . S
N1502 C1499 1.384 . S
N1503 C1495 1.427 . S
N1503 C1501 1.384 . S
H1504 C1510 0.930 . S
H1505 C1514 0.930 . S
H1506 C1519 0.929 . S
H1507 C1517 0.929 . S
H1508 C1512 0.929 . S
H1509 C1518 0.929 . S
C1510 H1504 0.930 . S
C1510 C1511 1.367 . S
C1510 C1518 1.378 . S
C1511 C1510 1.367 . S
C1511 C1519 1.433 . S
C1512 H1508 0.929 . S
C1512 C1514 1.378 . S
C1512 C1516 1.350 . S
C1513 C1516 1.463 . S
C1513 C1518 1.350 . S
C1513 N1521 1.427 . S
C1514 H1505 0.930 . S
C1514 C1512 1.378 . S
C1514 C1515 1.367 . S
C1515 C1514 1.367 . S
C1515 C1517 1.433 . S
C1516 C1512 1.350 . S
C1516 C1513 1.463 . S
C1516 N1520 1.427 . S
C1517 H1507 0.929 . S
C1517 C1515 1.433 . S
C1517 N1520 1.384 . S
C1518 H1509 0.929 . S
C1518 C1510 1.378 . S
C1518 C1513 1.350 . S
C1519 H1506 0.929 . S
C1519 C1511 1.433 . S
C1519 N1521 1.384 . S
N1520 C1516 1.427 . S
N1520 C1517 1.384 . S
N1521 C1513 1.427 . S
N1521 C1519 1.384 . S
H1522 C1528 0.930 . S
H1523 C1532 0.930 . S
H1524 C1537 0.929 . S
H1525 C1535 0.929 . S
H1526 C1530 0.929 . S
H1527 C1536 0.929 . S
C1528 H1522 0.930 . S
C1528 C1529 1.367 . S
C1528 C1536 1.378 . S
C1529 C1528 1.367 . S
C1529 C1537 1.433 . S
C1530 H1526 0.929 . S
C1530 C1532 1.378 . S
C1530 C1534 1.350 . S
C1531 C1534 1.463 . S
C1531 C1536 1.350 . S
C1531 N1539 1.427 . S
C1532 H1523 0.930 . S
C1532 C1530 1.378 . S
C1532 C1533 1.367 . S
C1533 C1532 1.367 . S
C1533 C1535 1.433 . S
C1534 C1530 1.350 . S
C1534 C1531 1.463 . S
C1534 N1538 1.427 . S
C1535 H1525 0.929 . S
C1535 C1533 1.433 . S
C1535 N1538 1.384 . S
C1536 H1527 0.929 . S
C1536 C1528 1.378 . S
C1536 C1531 1.350 . S
C1537 H1524 0.929 . S
C1537 C1529 1.433 . S
C1537 N1539 1.384 . S
N1538 C1534 1.427 . S
N1538 C1535 1.384 . S
N1539 C1531 1.427 . S
N1539 C1537 1.384 . S
H1540 C1546 0.930 . S
H1541 C1550 0.930 . S
H1542 C1555 0.929 . S
H1543 C1553 0.929 . S
H1544 C1548 0.929 . S
H1545 C1554 0.929 . S
C1546 H1540 0.930 . S
C1546 C1547 1.367 . S
C1546 C1554 1.378 . S
C1547 C1546 1.367 . S
C1547 C1555 1.433 . S
C1548 H1544 0.929 . S
C1548 C1550 1.378 . S
C1548 C1552 1.350 . S
C1549 C1552 1.463 . S
C1549 C1554 1.350 . S
C1549 N1557 1.427 . S
C1550 H1541 0.930 . S
C1550 C1548 1.378 . S
C1550 C1551 1.367 . S
C1551 C1550 1.367 . S
C1551 C1553 1.433 . S
C1552 C1548 1.350 . S
C1552 C1549 1.463 . S
C1552 N1556 1.427 . S
C1553 H1543 0.929 . S
C1553 C1551 1.433 . S
C1553 N1556 1.384 . S
C1554 H1545 0.929 . S
C1554 C1546 1.378 . S
C1554 C1549 1.350 . S
C1555 H1542 0.929 . S
C1555 C1547 1.433 . S
C1555 N1557 1.384 . S
N1556 C1552 1.427 . S
N1556 C1553 1.384 . S
N1557 C1549 1.427 . S
N1557 C1555 1.384 . S
H1558 C1564 0.930 . S
H1559 C1568 0.930 . S
H1560 C1573 0.929 . S
H1561 C1571 0.929 . S
H1562 C1566 0.929 . S
H1563 C1572 0.929 . S
C1564 H1558 0.930 . S
C1564 C1565 1.367 . S
C1564 C1572 1.378 . S
C1565 C1564 1.367 . S
C1565 C1573 1.433 . S
C1566 H1562 0.929 . S
C1566 C1568 1.378 . S
C1566 C1570 1.350 . S
C1567 C1570 1.463 . S
C1567 C1572 1.350 . S
C1567 N1575 1.427 . S
C1568 H1559 0.930 . S
C1568 C1566 1.378 . S
C1568 C1569 1.367 . S
C1569 C1568 1.367 . S
C1569 C1571 1.433 . S
C1570 C1566 1.350 . S
C1570 C1567 1.463 . S
C1570 N1574 1.427 . S
C1571 H1561 0.929 . S
C1571 C1569 1.433 . S
C1571 N1574 1.384 . S
C1572 H1563 0.929 . S
C1572 C1564 1.378 . S
C1572 C1567 1.350 . S
C1573 H1560 0.929 . S
C1573 C1565 1.433 . S
C1573 N1575 1.384 . S
N1574 C1570 1.427 . S
N1574 C1571 1.384 . S
N1575 C1567 1.427 . S
N1575 C1573 1.384 . S
H1576 C1582 0.930 . S
H1577 C1586 0.930 . S
H1578 C1591 0.929 . S
H1579 C1589 0.929 . S
H1580 C1584 0.929 . S
H1581 C1590 0.929 . S
C1582 H1576 0.930 . S
C1582 C1583 1.367 . S
C1582 C1590 1.378 . S
C1583 C1582 1.367 . S
C1583 C1591 1.433 . S
C1584 H1580 0.929 . S
C1584 C1586 1.378 . S
C1584 C1588 1.350 . S
C1585 C1588 1.463 . S
C1585 C1590 1.350 . S
C1585 N1593 1.427 . S
C1586 H1577 0.930 . S
C1586 C1584 1.378 . S
C1586 C1587 1.367 . S
C1587 C1586 1.367 . S
C1587 C1589 1.433 . S
C1588 C1584 1.350 . S
C1588 C1585 1.463 . S
C1588 N1592 1.427 . S
C1589 H1579 0.929 . S
C1589 C1587 1.433 . S
C1589 N1592 1.384 . S
C1590 H1581 0.929 . S
C1590 C1582 1.378 . S
C1590 C1585 1.350 . S
C1591 H1578 0.929 . S
C1591 C1583 1.433 . S
C1591 N1593 1.384 . S
N1592 C1588 1.427 . S
N1592 C1589 1.384 . S
N1593 C1585 1.427 . S
N1593 C1591 1.384 . S
H1594 C1600 0.930 . S
H1595 C1604 0.930 . S
H1596 C1609 0.929 . S
H1597 C1607 0.929 . S
H1598 C1602 0.929 . S
H1599 C1608 0.929 . S
C1600 H1594 0.930 . S
C1600 C1601 1.367 . S
C1600 C1608 1.378 . S
C1601 C1600 1.367 . S
C1601 C1609 1.433 . S
C1602 H1598 0.929 . S
C1602 C1604 1.378 . S
C1602 C1606 1.350 . S
C1603 C1606 1.463 . S
C1603 C1608 1.350 . S
C1603 N1611 1.427 . S
C1604 H1595 0.930 . S
C1604 C1602 1.378 . S
C1604 C1605 1.367 . S
C1605 C1604 1.367 . S
C1605 C1607 1.433 . S
C1606 C1602 1.350 . S
C1606 C1603 1.463 . S
C1606 N1610 1.427 . S
C1607 H1597 0.929 . S
C1607 C1605 1.433 . S
C1607 N1610 1.384 . S
C1608 H1599 0.929 . S
C1608 C1600 1.378 . S
C1608 C1603 1.350 . S
C1609 H1596 0.929 . S
C1609 C1601 1.433 . S
C1609 N1611 1.384 . S
N1610 C1606 1.427 . S
N1610 C1607 1.384 . S
N1611 C1603 1.427 . S
N1611 C1609 1.384 . S
H1612 C1618 0.930 . S
H1613 C1622 0.930 . S
H1614 C1627 0.929 . S
H1615 C1625 0.929 . S
H1616 C1620 0.929 . S
H1617 C1626 0.929 . S
C1618 H1612 0.930 . S
C1618 C1619 1.367 . S
C1618 C1626 1.378 . S
C1619 C1618 1.367 . S
C1619 C1627 1.433 . S
C1620 H1616 0.929 . S
C1620 C1622 1.378 . S
C1620 C1624 1.350 . S
C1621 C1624 1.463 . S
C1621 C1626 1.350 . S
C1621 N1629 1.427 . S
C1622 H1613 0.930 . S
C1622 C1620 1.378 . S
C1622 C1623 1.367 . S
C1623 C1622 1.367 . S
C1623 C1625 1.433 . S
C1624 C1620 1.350 . S
C1624 C1621 1.463 . S
C1624 N1628 1.427 . S
C1625 H1615 0.929 . S
C1625 C1623 1.433 . S
C1625 N1628 1.384 . S
C1626 H1617 0.929 . S
C1626 C1618 1.378 . S
C1626 C1621 1.350 . S
C1627 H1614 0.929 . S
C1627 C1619 1.433 . S
C1627 N1629 1.384 . S
N1628 C1624 1.427 . S
N1628 C1625 1.384 . S
N1629 C1621 1.427 . S
N1629 C1627 1.384 . S
H1630 C1636 0.930 . S
H1631 C1640 0.930 . S
H1632 C1645 0.929 . S
H1633 C1643 0.929 . S
H1634 C1638 0.929 . S
H1635 C1644 0.929 . S
C1636 H1630 0.930 . S
C1636 C1637 1.367 . S
C1636 C1644 1.378 . S
C1637 C1636 1.367 . S
C1637 C1645 1.433 . S
C1638 H1634 0.929 . S
C1638 C1640 1.378 . S
C1638 C1642 1.350 . S
C1639 C1642 1.463 . S
C1639 C1644 1.350 . S
C1639 N1647 1.427 . S
C1640 H1631 0.930 . S
C1640 C1638 1.378 . S
C1640 C1641 1.367 . S
C1641 C1640 1.367 . S
C1641 C1643 1.433 . S
C1642 C1638 1.350 . S
C1642 C1639 1.463 . S
C1642 N1646 1.427 . S
C1643 H1633 0.929 . S
C1643 C1641 1.433 . S
C1643 N1646 1.384 . S
C1644 H1635 0.929 . S
C1644 C1636 1.378 . S
C1644 C1639 1.350 . S
C1645 H1632 0.929 . S
C1645 C1637 1.433 . S
C1645 N1647 1.384 . S
N1646 C1642 1.427 . S
N1646 C1643 1.384 . S
N1647 C1639 1.427 . S
N1647 C1645 1.384 . S
H1648 C1654 0.930 . S
H1649 C1658 0.930 . S
H1650 C1663 0.929 . S
H1651 C1661 0.929 . S
H1652 C1656 0.929 . S
H1653 C1662 0.929 . S
C1654 H1648 0.930 . S
C1654 C1655 1.367 . S
C1654 C1662 1.378 . S
C1655 C1654 1.367 . S
C1655 C1663 1.433 . S
C1656 H1652 0.929 . S
C1656 C1658 1.378 . S
C1656 C1660 1.350 . S
C1657 C1660 1.463 . S
C1657 C1662 1.350 . S
C1657 N1665 1.427 . S
C1658 H1649 0.930 . S
C1658 C1656 1.378 . S
C1658 C1659 1.367 . S
C1659 C1658 1.367 . S
C1659 C1661 1.433 . S
C1660 C1656 1.350 . S
C1660 C1657 1.463 . S
C1660 N1664 1.427 . S
C1661 H1651 0.929 . S
C1661 C1659 1.433 . S
C1661 N1664 1.384 . S
C1662 H1653 0.929 . S
C1662 C1654 1.378 . S
C1662 C1657 1.350 . S
C1663 H1650 0.929 . S
C1663 C1655 1.433 . S
C1663 N1665 1.384 . S
N1664 C1660 1.427 . S
N1664 C1661 1.384 . S
N1665 C1657 1.427 . S
N1665 C1663 1.384 . S
H1666 C1672 0.930 . S
H1667 C1676 0.930 . S
H1668 C1681 0.929 . S
H1669 C1679 0.929 . S
H1670 C1674 0.929 . S
H1671 C1680 0.929 . S
C1672 H1666 0.930 . S
C1672 C1673 1.367 . S
C1672 C1680 1.378 . S
C1673 C1672 1.367 . S
C1673 C1681 1.433 . S
C1674 H1670 0.929 . S
C1674 C1676 1.378 . S
C1674 C1678 1.350 . S
C1675 C1678 1.463 . S
C1675 C1680 1.350 . S
C1675 N1683 1.427 . S
C1676 H1667 0.930 . S
C1676 C1674 1.378 . S
C1676 C1677 1.367 . S
C1677 C1676 1.367 . S
C1677 C1679 1.433 . S
C1678 C1674 1.350 . S
C1678 C1675 1.463 . S
C1678 N1682 1.427 . S
C1679 H1669 0.929 . S
C1679 C1677 1.433 . S
C1679 N1682 1.384 . S
C1680 H1671 0.929 . S
C1680 C1672 1.378 . S
C1680 C1675 1.350 . S
C1681 H1668 0.929 . S
C1681 C1673 1.433 . S
C1681 N1683 1.384 . S
N1682 C1678 1.427 . S
N1682 C1679 1.384 . S
N1683 C1675 1.427 . S
N1683 C1681 1.384 . S
H1684 C1690 0.930 . S
H1685 C1694 0.930 . S
H1686 C1699 0.929 . S
H1687 C1697 0.929 . S
H1688 C1692 0.929 . S
H1689 C1698 0.929 . S
C1690 H1684 0.930 . S
C1690 C1691 1.367 . S
C1690 C1698 1.378 . S
C1691 C1690 1.367 . S
C1691 C1699 1.433 . S
C1692 H1688 0.929 . S
C1692 C1694 1.378 . S
C1692 C1696 1.350 . S
C1693 C1696 1.463 . S
C1693 C1698 1.350 . S
C1693 N1701 1.427 . S
C1694 H1685 0.930 . S
C1694 C1692 1.378 . S
C1694 C1695 1.367 . S
C1695 C1694 1.367 . S
C1695 C1697 1.433 . S
C1696 C1692 1.350 . S
C1696 C1693 1.463 . S
C1696 N1700 1.427 . S
C1697 H1687 0.929 . S
C1697 C1695 1.433 . S
C1697 N1700 1.384 . S
C1698 H1689 0.929 . S
C1698 C1690 1.378 . S
C1698 C1693 1.350 . S
C1699 H1686 0.929 . S
C1699 C1691 1.433 . S
C1699 N1701 1.384 . S
N1700 C1696 1.427 . S
N1700 C1697 1.384 . S
N1701 C1693 1.427 . S
N1701 C1699 1.384 . S
H1702 C1708 0.930 . S
H1703 C1712 0.930 . S
H1704 C1717 0.929 . S
H1705 C1715 0.929 . S
H1706 C1710 0.929 . S
H1707 C1716 0.929 . S
C1708 H1702 0.930 . S
C1708 C1709 1.367 . S
C1708 C1716 1.378 . S
C1709 C1708 1.367 . S
C1709 C1717 1.433 . S
C1710 H1706 0.929 . S
C1710 C1712 1.378 . S
C1710 C1714 1.350 . S
C1711 C1714 1.463 . S
C1711 C1716 1.350 . S
C1711 N1719 1.427 . S
C1712 H1703 0.930 . S
C1712 C1710 1.378 . S
C1712 C1713 1.367 . S
C1713 C1712 1.367 . S
C1713 C1715 1.433 . S
C1714 C1710 1.350 . S
C1714 C1711 1.463 . S
C1714 N1718 1.427 . S
C1715 H1705 0.929 . S
C1715 C1713 1.433 . S
C1715 N1718 1.384 . S
C1716 H1707 0.929 . S
C1716 C1708 1.378 . S
C1716 C1711 1.350 . S
C1717 H1704 0.929 . S
C1717 C1709 1.433 . S
C1717 N1719 1.384 . S
N1718 C1714 1.427 . S
N1718 C1715 1.384 . S
N1719 C1711 1.427 . S
N1719 C1717 1.384 . S
H1720 C1726 0.930 . S
H1721 C1730 0.930 . S
H1722 C1735 0.929 . S
H1723 C1733 0.929 . S
H1724 C1728 0.929 . S
H1725 C1734 0.929 . S
C1726 H1720 0.930 . S
C1726 C1727 1.367 . S
C1726 C1734 1.378 . S
C1727 C1726 1.367 . S
C1727 C1735 1.433 . S
C1728 H1724 0.929 . S
C1728 C1730 1.378 . S
C1728 C1732 1.350 . S
C1729 C1732 1.463 . S
C1729 C1734 1.350 . S
C1729 N1737 1.427 . S
C1730 H1721 0.930 . S
C1730 C1728 1.378 . S
C1730 C1731 1.367 . S
C1731 C1730 1.367 . S
C1731 C1733 1.433 . S
C1732 C1728 1.350 . S
C1732 C1729 1.463 . S
C1732 N1736 1.427 . S
C1733 H1723 0.929 . S
C1733 C1731 1.433 . S
C1733 N1736 1.384 . S
C1734 H1725 0.929 . S
C1734 C1726 1.378 . S
C1734 C1729 1.350 . S
C1735 H1722 0.929 . S
C1735 C1727 1.433 . S
C1735 N1737 1.384 . S
N1736 C1732 1.427 . S
N1736 C1733 1.384 . S
N1737 C1729 1.427 . S
N1737 C1735 1.384 . S
H1738 C1744 0.930 . S
H1739 C1748 0.930 . S
H1740 C1753 0.929 . S
H1741 C1751 0.929 . S
H1742 C1746 0.929 . S
H1743 C1752 0.929 . S
C1744 H1738 0.930 . S
C1744 C1745 1.367 . S
C1744 C1752 1.378 . S
C1745 C1744 1.367 . S
C1745 C1753 1.433 . S
C1746 H1742 0.929 . S
C1746 C1748 1.378 . S
C1746 C1750 1.350 . S
C1747 C1750 1.463 . S
C1747 C1752 1.350 . S
C1747 N1755 1.427 . S
C1748 H1739 0.930 . S
C1748 C1746 1.378 . S
C1748 C1749 1.367 . S
C1749 C1748 1.367 . S
C1749 C1751 1.433 . S
C1750 C1746 1.350 . S
C1750 C1747 1.463 . S
C1750 N1754 1.427 . S
C1751 H1741 0.929 . S
C1751 C1749 1.433 . S
C1751 N1754 1.384 . S
C1752 H1743 0.929 . S
C1752 C1744 1.378 . S
C1752 C1747 1.350 . S
C1753 H1740 0.929 . S
C1753 C1745 1.433 . S
C1753 N1755 1.384 . S
N1754 C1750 1.427 . S
N1754 C1751 1.384 . S
N1755 C1747 1.427 . S
N1755 C1753 1.384 . S
H1756 C1762 0.930 . S
H1757 C1766 0.930 . S
H1758 C1771 0.929 . S
H1759 C1769 0.929 . S
H1760 C1764 0.929 . S
H1761 C1770 0.929 . S
C1762 H1756 0.930 . S
C1762 C1763 1.367 . S
C1762 C1770 1.378 . S
C1763 C1762 1.367 . S
C1763 C1771 1.433 . S
C1764 H1760 0.929 . S
C1764 C1766 1.378 . S
C1764 C1768 1.350 . S
C1765 C1768 1.463 . S
C1765 C1770 1.350 . S
C1765 N1773 1.427 . S
C1766 H1757 0.930 . S
C1766 C1764 1.378 . S
C1766 C1767 1.367 . S
C1767 C1766 1.367 . S
C1767 C1769 1.433 . S
C1768 C1764 1.350 . S
C1768 C1765 1.463 . S
C1768 N1772 1.427 . S
C1769 H1759 0.929 . S
C1769 C1767 1.433 . S
C1769 N1772 1.384 . S
C1770 H1761 0.929 . S
C1770 C1762 1.378 . S
C1770 C1765 1.350 . S
C1771 H1758 0.929 . S
C1771 C1763 1.433 . S
C1771 N1773 1.384 . S
N1772 C1768 1.427 . S
N1772 C1769 1.384 . S
N1773 C1765 1.427 . S
N1773 C1771 1.384 . S
H1774 C1780 0.930 . S
H1775 C1784 0.930 . S
H1776 C1789 0.929 . S
H1777 C1787 0.929 . S
H1778 C1782 0.929 . S
H1779 C1788 0.929 . S
C1780 H1774 0.930 . S
C1780 C1781 1.367 . S
C1780 C1788 1.378 . S
C1781 C1780 1.367 . S
C1781 C1789 1.433 . S
C1782 H1778 0.929 . S
C1782 C1784 1.378 . S
C1782 C1786 1.350 . S
C1783 C1786 1.463 . S
C1783 C1788 1.350 . S
C1783 N1791 1.427 . S
C1784 H1775 0.930 . S
C1784 C1782 1.378 . S
C1784 C1785 1.367 . S
C1785 C1784 1.367 . S
C1785 C1787 1.433 . S
C1786 C1782 1.350 . S
C1786 C1783 1.463 . S
C1786 N1790 1.427 . S
C1787 H1777 0.929 . S
C1787 C1785 1.433 . S
C1787 N1790 1.384 . S
C1788 H1779 0.929 . S
C1788 C1780 1.378 . S
C1788 C1783 1.350 . S
C1789 H1776 0.929 . S
C1789 C1781 1.433 . S
C1789 N1791 1.384 . S
N1790 C1786 1.427 . S
N1790 C1787 1.384 . S
N1791 C1783 1.427 . S
N1791 C1789 1.384 . S
H1792 C1798 0.930 1_554 S
H1793 C1802 0.930 . S
H1794 C1807 0.929 . S
H1795 C1805 0.929 . S
H1796 C1800 0.929 . S
H1797 C1806 0.929 . S
C1798 H1792 0.930 1_556 S
C1798 C1799 1.346 1_565 S
C1798 C1806 1.378 . S
C1799 C1798 1.346 1_545 S
C1799 C1807 1.481 . S
C1800 H1796 0.929 . S
C1800 C1802 1.378 . S
C1800 C1804 1.356 . S
C1801 C1804 1.462 1_565 S
C1801 C1806 1.368 . S
C1801 N1809 1.409 1_565 S
C1802 H1793 0.930 . S
C1802 C1800 1.378 . S
C1802 C1803 1.333 1_545 S
C1803 C1802 1.333 1_565 S
C1803 C1805 1.467 . S
C1804 C1800 1.356 . S
C1804 C1801 1.462 1_545 S
C1804 N1808 1.421 1_545 S
C1805 H1795 0.929 . S
C1805 C1803 1.467 . S
C1805 N1808 1.384 . S
C1806 H1797 0.929 . S
C1806 C1798 1.378 . S
C1806 C1801 1.368 . S
C1807 H1794 0.929 . S
C1807 C1799 1.481 . S
C1807 N1809 1.384 . S
N1808 C1804 1.421 1_565 S
N1808 C1805 1.384 . S
N1809 C1801 1.409 1_545 S
N1809 C1807 1.384 . S
H1810 C1816 0.930 . S
H1811 C1820 0.929 . S
H1812 C1825 0.929 . S
H1813 C1823 0.929 1_655 S
H1814 C1818 0.929 . S
H1815 C1824 0.929 . S
C1816 H1810 0.930 . S
C1816 C1817 1.367 . S
C1816 C1824 1.378 . S
C1817 C1816 1.367 . S
C1817 C1825 1.433 . S
C1818 H1814 0.929 . S
C1818 C1820 1.378 . S
C1818 C1822 1.350 . S
C1819 C1822 1.463 . S
C1819 C1824 1.350 . S
C1819 N1827 1.427 . S
C1820 H1811 0.929 . S
C1820 C1818 1.378 . S
C1820 C1821 1.367 1_455 S
C1821 C1820 1.367 1_655 S
C1821 C1823 1.433 1_655 S
C1822 C1818 1.350 . S
C1822 C1819 1.463 . S
C1822 N1826 1.427 . S
C1823 H1813 0.929 1_455 S
C1823 C1821 1.433 1_455 S
C1823 N1826 1.384 . S
C1824 H1815 0.929 . S
C1824 C1816 1.378 . S
C1824 C1819 1.350 . S
C1825 H1812 0.929 . S
C1825 C1817 1.433 . S
C1825 N1827 1.384 . S
N1826 C1822 1.427 . S
N1826 C1823 1.384 . S
N1827 C1819 1.427 . S
N1827 C1825 1.384 . S
H1828 C1834 0.930 . S
H1829 C1838 0.930 . S
H1830 C1843 0.929 . S
H1831 C1841 0.929 . S
H1832 C1836 0.929 . S
H1833 C1842 0.929 . S
C1834 H1828 0.930 . S
C1834 C1835 1.367 . S
C1834 C1842 1.378 . S
C1835 C1834 1.367 . S
C1835 C1843 1.433 . S
C1836 H1832 0.929 . S
C1836 C1838 1.378 . S
C1836 C1840 1.350 . S
C1837 C1840 1.463 . S
C1837 C1842 1.350 . S
C1837 N1845 1.427 . S
C1838 H1829 0.930 . S
C1838 C1836 1.378 . S
C1838 C1839 1.367 . S
C1839 C1838 1.367 . S
C1839 C1841 1.433 . S
C1840 C1836 1.350 . S
C1840 C1837 1.463 . S
C1840 N1844 1.427 . S
C1841 H1831 0.929 . S
C1841 C1839 1.433 . S
C1841 N1844 1.384 . S
C1842 H1833 0.929 . S
C1842 C1834 1.378 . S
C1842 C1837 1.350 . S
C1843 H1830 0.929 . S
C1843 C1835 1.433 . S
C1843 N1845 1.384 . S
N1844 C1840 1.427 . S
N1844 C1841 1.384 . S
N1845 C1837 1.427 . S
N1845 C1843 1.384 . S
H1846 C1852 0.930 . S
H1847 C1856 0.930 . S
H1848 C1861 0.929 . S
H1849 C1859 0.929 . S
H1850 C1854 0.929 . S
H1851 C1860 0.929 . S
C1852 H1846 0.930 . S
C1852 C1853 1.367 . S
C1852 C1860 1.378 1_655 S
C1853 C1852 1.367 . S
C1853 C1861 1.433 1_645 S
C1854 H1850 0.929 . S
C1854 C1856 1.378 . S
C1854 C1858 1.358 . S
C1855 C1858 1.462 1_545 S
C1855 C1860 1.353 . S
C1855 N1863 1.424 1_545 S
C1856 H1847 0.930 . S
C1856 C1854 1.378 . S
C1856 C1857 1.367 . S
C1857 C1856 1.367 . S
C1857 C1859 1.433 1_565 S
C1858 C1854 1.358 . S
C1858 C1855 1.462 1_565 S
C1858 N1862 1.420 1_565 S
C1859 H1849 0.929 . S
C1859 C1857 1.433 1_545 S
C1859 N1862 1.384 . S
C1860 H1851 0.929 . S
C1860 C1852 1.378 1_455 S
C1860 C1855 1.353 . S
C1861 H1848 0.929 . S
C1861 C1853 1.433 1_465 S
C1861 N1863 1.384 . S
N1862 C1858 1.420 1_545 S
N1862 C1859 1.384 . S
N1863 C1855 1.424 1_565 S
N1863 C1861 1.384 . S
H1864 C1870 0.930 . S
H1865 C1874 0.930 . S
H1866 C1879 0.929 . S
H1867 C1877 0.929 1_556 S
H1868 C1872 0.929 . S
H1869 C1878 0.929 . S
C1870 H1864 0.930 . S
C1870 C1871 1.331 1_565 S
C1870 C1878 1.378 . S
C1871 C1870 1.331 1_545 S
C1871 C1879 1.469 . S
C1872 H1868 0.929 . S
C1872 C1874 1.378 . S
C1872 C1876 1.374 . S
C1873 C1876 1.462 1_565 S
C1873 C1878 1.361 . S
C1873 N1881 1.416 1_565 S
C1874 H1865 0.930 . S
C1874 C1872 1.378 . S
C1874 C1875 1.345 1_545 S
C1875 C1874 1.345 1_565 S
C1875 C1877 1.455 . S
C1876 C1872 1.374 . S
C1876 C1873 1.462 1_545 S
C1876 N1880 1.402 1_545 S
C1877 H1867 0.929 1_554 S
C1877 C1875 1.455 . S
C1877 N1880 1.384 . S
C1878 H1869 0.929 . S
C1878 C1870 1.378 . S
C1878 C1873 1.361 . S
C1879 H1866 0.929 . S
C1879 C1871 1.469 . S
C1879 N1881 1.384 . S
N1880 C1876 1.402 1_565 S
N1880 C1877 1.384 . S
N1881 C1873 1.416 1_545 S
N1881 C1879 1.384 . S
H1882 C1888 0.930 . S
H1883 C1892 0.930 . S
H1884 C1897 0.929 1_556 S
H1885 C1895 0.929 . S
H1886 C1890 0.929 . S
H1887 C1896 0.929 . S
C1888 H1882 0.930 . S
C1888 C1889 1.367 . S
C1888 C1896 1.378 1_455 S
C1889 C1888 1.367 . S
C1889 C1897 1.433 1_455 S
C1890 H1886 0.929 . S
C1890 C1892 1.378 . S
C1890 C1894 1.350 . S
C1891 C1894 1.463 . S
C1891 C1896 1.350 . S
C1891 N1899 1.427 . S
C1892 H1883 0.930 . S
C1892 C1890 1.378 . S
C1892 C1893 1.367 . S
C1893 C1892 1.367 . S
C1893 C1895 1.433 . S
C1894 C1890 1.350 . S
C1894 C1891 1.463 . S
C1894 N1898 1.427 . S
C1895 H1885 0.929 . S
C1895 C1893 1.433 . S
C1895 N1898 1.384 . S
C1896 H1887 0.929 . S
C1896 C1888 1.378 1_655 S
C1896 C1891 1.350 . S
C1897 H1884 0.929 1_554 S
C1897 C1889 1.433 1_655 S
C1897 N1899 1.384 . S
N1898 C1894 1.427 . S
N1898 C1895 1.384 . S
N1899 C1891 1.427 . S
N1899 C1897 1.384 . S
H1900 C1906 0.930 . S
H1901 C1910 0.930 . S
H1902 C1915 0.929 . S
H1903 C1913 0.929 . S
H1904 C1908 0.929 . S
H1905 C1914 0.929 . S
C1906 H1900 0.930 . S
C1906 C1907 1.367 . S
C1906 C1914 1.378 . S
C1907 C1906 1.367 . S
C1907 C1915 1.433 . S
C1908 H1904 0.929 . S
C1908 C1910 1.378 . S
C1908 C1912 1.350 . S
C1909 C1912 1.463 . S
C1909 C1914 1.350 . S
C1909 N1917 1.427 . S
C1910 H1901 0.930 . S
C1910 C1908 1.378 . S
C1910 C1911 1.367 . S
C1911 C1910 1.367 . S
C1911 C1913 1.433 . S
C1912 C1908 1.350 . S
C1912 C1909 1.463 . S
C1912 N1916 1.427 . S
C1913 H1903 0.929 . S
C1913 C1911 1.433 . S
C1913 N1916 1.384 . S
C1914 H1905 0.929 . S
C1914 C1906 1.378 . S
C1914 C1909 1.350 . S
C1915 H1902 0.929 . S
C1915 C1907 1.433 . S
C1915 N1917 1.384 . S
N1916 C1912 1.427 . S
N1916 C1913 1.384 . S
N1917 C1909 1.427 . S
N1917 C1915 1.384 . S
H1918 C1924 0.930 . S
H1919 C1928 0.930 . S
H1920 C1933 0.929 . S
H1921 C1931 0.929 . S
H1922 C1926 0.929 . S
H1923 C1932 0.929 . S
C1924 H1918 0.930 . S
C1924 C1925 1.367 1_565 S
C1924 C1932 1.378 . S
C1925 C1924 1.367 1_545 S
C1925 C1933 1.433 . S
C1926 H1922 0.929 . S
C1926 C1928 1.378 . S
C1926 C1930 1.357 . S
C1927 C1930 1.462 1_565 S
C1927 C1932 1.349 . S
C1927 N1935 1.428 1_565 S
C1928 H1919 0.930 . S
C1928 C1926 1.378 . S
C1928 C1929 1.348 1_645 S
C1929 C1928 1.348 1_465 S
C1929 C1931 1.453 . S
C1930 C1926 1.357 . S
C1930 C1927 1.462 1_545 S
C1930 N1934 1.420 1_545 S
C1931 H1921 0.929 . S
C1931 C1929 1.453 . S
C1931 N1934 1.384 1_455 S
C1932 H1923 0.929 . S
C1932 C1924 1.378 . S
C1932 C1927 1.349 . S
C1933 H1920 0.929 . S
C1933 C1925 1.433 . S
C1933 N1935 1.384 . S
N1934 C1930 1.420 1_565 S
N1934 C1931 1.384 1_655 S
N1935 C1927 1.428 1_545 S
N1935 C1933 1.384 . S
H1936 C1942 0.930 . S
H1937 C1946 0.930 . S
H1938 C1951 0.929 . S
H1939 C1949 0.929 . S
H1940 C1944 0.929 . S
H1941 C1950 0.929 . S
C1942 H1936 0.930 . S
C1942 C1943 1.367 . S
C1942 C1950 1.378 . S
C1943 C1942 1.367 . S
C1943 C1951 1.433 . S
C1944 H1940 0.929 . S
C1944 C1946 1.378 . S
C1944 C1948 1.350 . S
C1945 C1948 1.463 . S
C1945 C1950 1.350 . S
C1945 N1953 1.427 . S
C1946 H1937 0.930 . S
C1946 C1944 1.378 . S
C1946 C1947 1.367 . S
C1947 C1946 1.367 . S
C1947 C1949 1.433 . S
C1948 C1944 1.350 . S
C1948 C1945 1.463 . S
C1948 N1952 1.427 . S
C1949 H1939 0.929 . S
C1949 C1947 1.433 . S
C1949 N1952 1.384 . S
C1950 H1941 0.929 . S
C1950 C1942 1.378 . S
C1950 C1945 1.350 . S
C1951 H1938 0.929 . S
C1951 C1943 1.433 . S
C1951 N1953 1.384 . S
N1952 C1948 1.427 . S
N1952 C1949 1.384 . S
N1953 C1945 1.427 . S
N1953 C1951 1.384 . S
H1954 C1960 0.930 . S
H1955 C1964 0.930 1_655 S
H1956 C1969 0.929 . S
H1957 C1967 0.929 1_655 S
H1958 C1962 0.929 . S
H1959 C1968 0.929 . S
C1960 H1954 0.930 . S
C1960 C1961 1.367 . S
C1960 C1968 1.378 . S
C1961 C1960 1.367 . S
C1961 C1969 1.433 . S
C1962 H1958 0.929 . S
C1962 C1964 1.378 . S
C1962 C1966 1.350 . S
C1963 C1966 1.463 . S
C1963 C1968 1.350 . S
C1963 N1971 1.427 . S
C1964 H1955 0.930 1_455 S
C1964 C1962 1.378 . S
C1964 C1965 1.367 1_455 S
C1965 C1964 1.367 1_655 S
C1965 C1967 1.433 1_655 S
C1966 C1962 1.350 . S
C1966 C1963 1.463 . S
C1966 N1970 1.427 . S
C1967 H1957 0.929 1_455 S
C1967 C1965 1.433 1_455 S
C1967 N1970 1.384 . S
C1968 H1959 0.929 . S
C1968 C1960 1.378 . S
C1968 C1963 1.350 . S
C1969 H1956 0.929 . S
C1969 C1961 1.433 . S
C1969 N1971 1.384 . S
N1970 C1966 1.427 . S
N1970 C1967 1.384 . S
N1971 C1963 1.427 . S
N1971 C1969 1.384 . S
H1972 C1978 0.930 . S
H1973 C1982 0.930 . S
H1974 C1987 0.929 . S
H1975 C1985 0.929 . S
H1976 C1980 0.929 . S
H1977 C1986 0.929 . S
C1978 H1972 0.930 . S
C1978 C1979 1.367 . S
C1978 C1986 1.378 . S
C1979 C1978 1.367 . S
C1979 C1987 1.433 . S
C1980 H1976 0.929 . S
C1980 C1982 1.378 . S
C1980 C1984 1.350 . S
C1981 C1984 1.463 . S
C1981 C1986 1.350 . S
C1981 N1989 1.427 . S
C1982 H1973 0.930 . S
C1982 C1980 1.378 . S
C1982 C1983 1.367 . S
C1983 C1982 1.367 . S
C1983 C1985 1.433 . S
C1984 C1980 1.350 . S
C1984 C1981 1.463 . S
C1984 N1988 1.427 . S
C1985 H1975 0.929 . S
C1985 C1983 1.433 . S
C1985 N1988 1.384 . S
C1986 H1977 0.929 . S
C1986 C1978 1.378 . S
C1986 C1981 1.350 . S
C1987 H1974 0.929 . S
C1987 C1979 1.433 . S
C1987 N1989 1.384 . S
N1988 C1984 1.427 . S
N1988 C1985 1.384 . S
N1989 C1981 1.427 . S
N1989 C1987 1.384 . S
H1990 C1996 0.930 . S
H1991 C2000 0.930 . S
H1992 C2005 0.929 . S
H1993 C2003 0.929 . S
H1994 C1998 0.929 . S
H1995 C2004 0.929 . S
C1996 H1990 0.930 . S
C1996 C1997 1.367 . S
C1996 C2004 1.378 . S
C1997 C1996 1.367 . S
C1997 C2005 1.433 . S
C1998 H1994 0.929 . S
C1998 C2000 1.378 1_455 S
C1998 C2002 1.350 . S
C1999 C2002 1.463 . S
C1999 C2004 1.350 . S
C1999 N2007 1.427 . S
C2000 H1991 0.930 . S
C2000 C1998 1.378 1_655 S
C2000 C2001 1.367 . S
C2001 C2000 1.367 . S
C2001 C2003 1.433 1_655 S
C2002 C1998 1.350 . S
C2002 C1999 1.463 . S
C2002 N2006 1.427 . S
C2003 H1993 0.929 . S
C2003 C2001 1.433 1_455 S
C2003 N2006 1.384 . S
C2004 H1995 0.929 . S
C2004 C1996 1.378 . S
C2004 C1999 1.350 . S
C2005 H1992 0.929 . S
C2005 C1997 1.433 . S
C2005 N2007 1.384 . S
N2006 C2002 1.427 . S
N2006 C2003 1.384 . S
N2007 C1999 1.427 . S
N2007 C2005 1.384 . S
H2008 C2014 0.930 . S
H2009 C2018 0.930 . S
H2010 C2023 0.929 . S
H2011 C2021 0.929 . S
H2012 C2016 0.929 . S
H2013 C2022 0.929 . S
C2014 H2008 0.930 . S
C2014 C2015 1.367 . S
C2014 C2022 1.378 . S
C2015 C2014 1.367 . S
C2015 C2023 1.433 . S
C2016 H2012 0.929 . S
C2016 C2018 1.378 . S
C2016 C2020 1.350 . S
C2017 C2020 1.463 . S
C2017 C2022 1.350 . S
C2017 N2025 1.427 . S
C2018 H2009 0.930 . S
C2018 C2016 1.378 . S
C2018 C2019 1.367 . S
C2019 C2018 1.367 . S
C2019 C2021 1.433 . S
C2020 C2016 1.350 . S
C2020 C2017 1.463 . S
C2020 N2024 1.427 . S
C2021 H2011 0.929 . S
C2021 C2019 1.433 . S
C2021 N2024 1.384 . S
C2022 H2013 0.929 . S
C2022 C2014 1.378 . S
C2022 C2017 1.350 . S
C2023 H2010 0.929 . S
C2023 C2015 1.433 . S
C2023 N2025 1.384 . S
N2024 C2020 1.427 . S
N2024 C2021 1.384 . S
N2025 C2017 1.427 . S
N2025 C2023 1.384 . S
H2026 C2032 0.930 . S
H2027 C2036 0.930 . S
H2028 C2041 0.929 . S
H2029 C2039 0.929 . S
H2030 C2034 0.929 . S
H2031 C2040 0.929 . S
C2032 H2026 0.930 . S
C2032 C2033 1.367 1_655 S
C2032 C2040 1.378 . S
C2033 C2032 1.367 1_455 S
C2033 C2041 1.433 . S
C2034 H2030 0.929 . S
C2034 C2036 1.378 . S
C2034 C2038 1.350 . S
C2035 C2038 1.463 . S
C2035 C2040 1.350 . S
C2035 N2043 1.427 . S
C2036 H2027 0.930 . S
C2036 C2034 1.378 . S
C2036 C2037 1.367 . S
C2037 C2036 1.367 . S
C2037 C2039 1.433 . S
C2038 C2034 1.350 . S
C2038 C2035 1.463 . S
C2038 N2042 1.427 . S
C2039 H2029 0.929 . S
C2039 C2037 1.433 . S
C2039 N2042 1.384 . S
C2040 H2031 0.929 . S
C2040 C2032 1.378 . S
C2040 C2035 1.350 . S
C2041 H2028 0.929 . S
C2041 C2033 1.433 . S
C2041 N2043 1.384 1_455 S
N2042 C2038 1.427 . S
N2042 C2039 1.384 . S
N2043 C2035 1.427 . S
N2043 C2041 1.384 1_655 S
H2044 C2050 0.930 . S
H2045 C2054 0.930 . S
H2046 C2059 0.929 . S
H2047 C2057 0.929 . S
H2048 C2052 0.929 . S
H2049 C2058 0.929 . S
C2050 H2044 0.930 . S
C2050 C2051 1.367 . S
C2050 C2058 1.378 . S
C2051 C2050 1.367 . S
C2051 C2059 1.433 . S
C2052 H2048 0.929 . S
C2052 C2054 1.378 . S
C2052 C2056 1.350 . S
C2053 C2056 1.463 . S
C2053 C2058 1.350 . S
C2053 N2061 1.427 . S
C2054 H2045 0.930 . S
C2054 C2052 1.378 . S
C2054 C2055 1.367 . S
C2055 C2054 1.367 . S
C2055 C2057 1.433 . S
C2056 C2052 1.350 . S
C2056 C2053 1.463 . S
C2056 N2060 1.427 . S
C2057 H2047 0.929 . S
C2057 C2055 1.433 . S
C2057 N2060 1.384 . S
C2058 H2049 0.929 . S
C2058 C2050 1.378 . S
C2058 C2053 1.350 . S
C2059 H2046 0.929 . S
C2059 C2051 1.433 . S
C2059 N2061 1.384 . S
N2060 C2056 1.427 . S
N2060 C2057 1.384 . S
N2061 C2053 1.427 . S
N2061 C2059 1.384 . S
H2062 C2068 0.930 . S
H2063 C2072 0.927 1_455 S
H2064 C2077 0.929 . S
H2065 C2075 0.929 . S
H2066 C2070 0.929 . S
H2067 C2076 0.929 . S
C2068 H2062 0.930 . S
C2068 C2069 1.367 . S
C2068 C2076 1.378 . S
C2069 C2068 1.367 . S
C2069 C2077 1.433 . S
C2070 H2066 0.929 . S
C2070 C2072 1.383 . S
C2070 C2074 1.350 . S
C2071 C2074 1.463 . S
C2071 C2076 1.350 . S
C2071 N2079 1.427 . S
C2072 H2063 0.927 1_655 S
C2072 C2070 1.383 . S
C2072 C2073 1.365 1_655 S
C2073 C2072 1.365 1_455 S
C2073 C2075 1.433 1_455 S
C2074 C2070 1.350 . S
C2074 C2071 1.463 . S
C2074 N2078 1.427 . S
C2075 H2065 0.929 . S
C2075 C2073 1.433 1_655 S
C2075 N2078 1.384 . S
C2076 H2067 0.929 . S
C2076 C2068 1.378 . S
C2076 C2071 1.350 . S
C2077 H2064 0.929 . S
C2077 C2069 1.433 . S
C2077 N2079 1.384 . S
N2078 C2074 1.427 . S
N2078 C2075 1.384 . S
N2079 C2071 1.427 . S
N2079 C2077 1.384 . S
H2080 C2086 0.930 . S
H2081 C2090 0.930 . S
H2082 C2095 0.929 . S
H2083 C2093 0.929 . S
H2084 C2088 0.929 . S
H2085 C2094 0.929 . S
C2086 H2080 0.930 . S
C2086 C2087 1.367 . S
C2086 C2094 1.378 . S
C2087 C2086 1.367 . S
C2087 C2095 1.433 1_545 S
C2088 H2084 0.929 . S
C2088 C2090 1.378 . S
C2088 C2092 1.379 . S
C2089 C2092 1.460 1_545 S
C2089 C2094 1.369 . S
C2089 N2097 1.409 1_545 S
C2090 H2081 0.930 . S
C2090 C2088 1.378 . S
C2090 C2091 1.367 . S
C2091 C2090 1.367 . S
C2091 C2093 1.433 1_565 S
C2092 C2088 1.379 . S
C2092 C2089 1.460 1_565 S
C2092 N2096 1.399 1_565 S
C2093 H2083 0.929 . S
C2093 C2091 1.433 1_545 S
C2093 N2096 1.384 . S
C2094 H2085 0.929 . S
C2094 C2086 1.378 . S
C2094 C2089 1.369 . S
C2095 H2082 0.929 . S
C2095 C2087 1.433 1_565 S
C2095 N2097 1.384 . S
N2096 C2092 1.399 1_545 S
N2096 C2093 1.384 . S
N2097 C2089 1.409 1_565 S
N2097 C2095 1.384 . S
H2098 C2104 0.930 . S
H2099 C2108 0.930 . S
H2100 C2113 0.929 . S
H2101 C2111 0.929 . S
H2102 C2106 0.929 . S
H2103 C2112 0.929 . S
C2104 H2098 0.930 . S
C2104 C2105 1.367 . S
C2104 C2112 1.378 . S
C2105 C2104 1.367 . S
C2105 C2113 1.433 . S
C2106 H2102 0.929 . S
C2106 C2108 1.378 . S
C2106 C2110 1.350 . S
C2107 C2110 1.463 . S
C2107 C2112 1.350 . S
C2107 N2115 1.427 . S
C2108 H2099 0.930 . S
C2108 C2106 1.378 . S
C2108 C2109 1.367 . S
C2109 C2108 1.367 . S
C2109 C2111 1.433 . S
C2110 C2106 1.350 . S
C2110 C2107 1.463 . S
C2110 N2114 1.427 . S
C2111 H2101 0.929 . S
C2111 C2109 1.433 . S
C2111 N2114 1.384 . S
C2112 H2103 0.929 . S
C2112 C2104 1.378 . S
C2112 C2107 1.350 . S
C2113 H2100 0.929 . S
C2113 C2105 1.433 . S
C2113 N2115 1.384 . S
N2114 C2110 1.427 . S
N2114 C2111 1.384 . S
N2115 C2107 1.427 . S
N2115 C2113 1.384 . S
H2116 C2122 0.930 . S
H2117 C2126 0.930 . S
H2118 C2131 0.929 . S
H2119 C2129 0.929 . S
H2120 C2124 0.929 . S
H2121 C2130 0.929 . S
C2122 H2116 0.930 . S
C2122 C2123 1.367 . S
C2122 C2130 1.378 . S
C2123 C2122 1.367 . S
C2123 C2131 1.433 . S
C2124 H2120 0.929 . S
C2124 C2126 1.378 . S
C2124 C2128 1.350 . S
C2125 C2128 1.463 . S
C2125 C2130 1.350 . S
C2125 N2133 1.427 . S
C2126 H2117 0.930 . S
C2126 C2124 1.378 . S
C2126 C2127 1.367 . S
C2127 C2126 1.367 . S
C2127 C2129 1.433 . S
C2128 C2124 1.350 . S
C2128 C2125 1.463 . S
C2128 N2132 1.427 . S
C2129 H2119 0.929 . S
C2129 C2127 1.433 . S
C2129 N2132 1.384 . S
C2130 H2121 0.929 . S
C2130 C2122 1.378 . S
C2130 C2125 1.350 . S
C2131 H2118 0.929 . S
C2131 C2123 1.433 . S
C2131 N2133 1.384 . S
N2132 C2128 1.427 . S
N2132 C2129 1.384 . S
N2133 C2125 1.427 . S
N2133 C2131 1.384 . S
H2134 C2140 0.930 . S
H2135 C2144 0.930 . S
H2136 C2149 0.929 . S
H2137 C2147 0.929 . S
H2138 C2142 0.929 . S
H2139 C2148 0.929 . S
C2140 H2134 0.930 . S
C2140 C2141 1.345 1_565 S
C2140 C2148 1.378 . S
C2141 C2140 1.345 1_545 S
C2141 C2149 1.455 . S
C2142 H2138 0.929 . S
C2142 C2144 1.378 . S
C2142 C2146 1.356 . S
C2143 C2146 1.462 1_565 S
C2143 C2148 1.368 . S
C2143 N2151 1.408 1_565 S
C2144 H2135 0.930 . S
C2144 C2142 1.378 . S
C2144 C2145 1.333 1_545 S
C2145 C2144 1.333 1_565 S
C2145 C2147 1.467 . S
C2146 C2142 1.356 . S
C2146 C2143 1.462 1_545 S
C2146 N2150 1.421 1_545 S
C2147 H2137 0.929 . S
C2147 C2145 1.467 . S
C2147 N2150 1.384 . S
C2148 H2139 0.929 . S
C2148 C2140 1.378 . S
C2148 C2143 1.368 . S
C2149 H2136 0.929 . S
C2149 C2141 1.455 . S
C2149 N2151 1.384 . S
N2150 C2146 1.421 1_565 S
N2150 C2147 1.384 . S
N2151 C2143 1.408 1_545 S
N2151 C2149 1.384 . S
H2152 C2158 0.930 . S
H2153 C2162 0.930 . S
H2154 C2167 0.929 . S
H2155 C2165 0.929 . S
H2156 C2160 0.929 . S
H2157 C2166 0.929 . S
C2158 H2152 0.930 . S
C2158 C2159 1.355 1_545 S
C2158 C2166 1.378 . S
C2159 C2158 1.355 1_565 S
C2159 C2167 1.446 . S
C2160 H2156 0.929 . S
C2160 C2162 1.378 . S
C2160 C2164 1.349 1_565 S
C2161 C2164 1.463 . S
C2161 C2166 1.350 . S
C2161 N2169 1.427 1_545 S
C2162 H2153 0.930 . S
C2162 C2160 1.378 . S
C2162 C2163 1.367 1_565 S
C2163 C2162 1.367 1_545 S
C2163 C2165 1.433 . S
C2164 C2160 1.349 1_545 S
C2164 C2161 1.463 . S
C2164 N2168 1.428 . S
C2165 H2155 0.929 . S
C2165 C2163 1.433 . S
C2165 N2168 1.384 . S
C2166 H2157 0.929 . S
C2166 C2158 1.378 . S
C2166 C2161 1.350 . S
C2167 H2154 0.929 . S
C2167 C2159 1.446 . S
C2167 N2169 1.384 . S
N2168 C2164 1.428 . S
N2168 C2165 1.384 . S
N2169 C2161 1.427 1_565 S
N2169 C2167 1.384 . S
H2170 C2176 0.930 . S
H2171 C2180 0.930 . S
H2172 C2185 0.929 . S
H2173 C2183 0.929 . S
H2174 C2178 0.929 . S
H2175 C2184 0.929 . S
C2176 H2170 0.930 . S
C2176 C2177 1.367 . S
C2176 C2184 1.378 . S
C2177 C2176 1.367 . S
C2177 C2185 1.433 . S
C2178 H2174 0.929 . S
C2178 C2180 1.378 . S
C2178 C2182 1.350 . S
C2179 C2182 1.463 . S
C2179 C2184 1.350 . S
C2179 N2187 1.427 . S
C2180 H2171 0.930 . S
C2180 C2178 1.378 . S
C2180 C2181 1.367 . S
C2181 C2180 1.367 . S
C2181 C2183 1.433 . S
C2182 C2178 1.350 . S
C2182 C2179 1.463 . S
C2182 N2186 1.427 . S
C2183 H2173 0.929 . S
C2183 C2181 1.433 . S
C2183 N2186 1.384 . S
C2184 H2175 0.929 . S
C2184 C2176 1.378 . S
C2184 C2179 1.350 . S
C2185 H2172 0.929 . S
C2185 C2177 1.433 . S
C2185 N2187 1.384 . S
N2186 C2182 1.427 . S
N2186 C2183 1.384 . S
N2187 C2179 1.427 . S
N2187 C2185 1.384 . S
H2188 C2194 0.930 . S
H2189 C2198 0.930 . S
H2190 C2203 0.929 . S
H2191 C2201 0.929 . S
H2192 C2196 0.929 . S
H2193 C2202 0.929 . S
C2194 H2188 0.930 . S
C2194 C2195 1.367 . S
C2194 C2202 1.378 . S
C2195 C2194 1.367 . S
C2195 C2203 1.433 . S
C2196 H2192 0.929 . S
C2196 C2198 1.378 . S
C2196 C2200 1.350 . S
C2197 C2200 1.463 . S
C2197 C2202 1.350 . S
C2197 N2205 1.427 . S
C2198 H2189 0.930 . S
C2198 C2196 1.378 . S
C2198 C2199 1.367 . S
C2199 C2198 1.367 . S
C2199 C2201 1.433 . S
C2200 C2196 1.350 . S
C2200 C2197 1.463 . S
C2200 N2204 1.427 . S
C2201 H2191 0.929 . S
C2201 C2199 1.433 . S
C2201 N2204 1.384 . S
C2202 H2193 0.929 . S
C2202 C2194 1.378 . S
C2202 C2197 1.350 . S
C2203 H2190 0.929 . S
C2203 C2195 1.433 . S
C2203 N2205 1.384 . S
N2204 C2200 1.427 . S
N2204 C2201 1.384 . S
N2205 C2197 1.427 . S
N2205 C2203 1.384 . S
H2206 C2212 0.930 . S
H2207 C2216 0.930 . S
H2208 C2221 0.929 . S
H2209 C2219 0.929 . S
H2210 C2214 0.929 . S
H2211 C2220 0.929 . S
C2212 H2206 0.930 . S
C2212 C2213 1.367 . S
C2212 C2220 1.378 . S
C2213 C2212 1.367 . S
C2213 C2221 1.433 1_565 S
C2214 H2210 0.929 . S
C2214 C2216 1.378 . S
C2214 C2218 1.377 . S
C2215 C2218 1.460 1_565 S
C2215 C2220 1.367 . S
C2215 N2223 1.411 1_565 S
C2216 H2207 0.930 . S
C2216 C2214 1.378 . S
C2216 C2217 1.367 . S
C2217 C2216 1.367 . S
C2217 C2219 1.433 1_545 S
C2218 C2214 1.377 . S
C2218 C2215 1.460 1_545 S
C2218 N2222 1.402 1_545 S
C2219 H2209 0.929 . S
C2219 C2217 1.433 1_565 S
C2219 N2222 1.384 . S
C2220 H2211 0.929 . S
C2220 C2212 1.378 . S
C2220 C2215 1.367 . S
C2221 H2208 0.929 . S
C2221 C2213 1.433 1_545 S
C2221 N2223 1.384 . S
N2222 C2218 1.402 1_565 S
N2222 C2219 1.384 . S
N2223 C2215 1.411 1_545 S
N2223 C2221 1.384 . S
H2224 C2230 0.930 . S
H2225 C2234 0.930 . S
H2226 C2239 0.929 . S
H2227 C2237 0.929 . S
H2228 C2232 0.929 . S
H2229 C2238 0.929 . S
C2230 H2224 0.930 . S
C2230 C2231 1.367 . S
C2230 C2238 1.378 . S
C2231 C2230 1.367 . S
C2231 C2239 1.433 . S
C2232 H2228 0.929 . S
C2232 C2234 1.378 1_556 S
C2232 C2236 1.350 . S
C2233 C2236 1.463 . S
C2233 C2238 1.350 . S
C2233 N2241 1.427 . S
C2234 H2225 0.930 . S
C2234 C2232 1.378 1_554 S
C2234 C2235 1.360 1_554 S
C2235 C2234 1.360 1_556 S
C2235 C2237 1.462 . S
C2236 C2232 1.350 . S
C2236 C2233 1.463 . S
C2236 N2240 1.427 . S
C2237 H2227 0.929 . S
C2237 C2235 1.462 . S
C2237 N2240 1.384 . S
C2238 H2229 0.929 . S
C2238 C2230 1.378 . S
C2238 C2233 1.350 . S
C2239 H2226 0.929 . S
C2239 C2231 1.433 . S
C2239 N2241 1.384 . S
N2240 C2236 1.427 . S
N2240 C2237 1.384 . S
N2241 C2233 1.427 . S
N2241 C2239 1.384 . S
H2242 C2248 0.930 . S
H2243 C2252 0.930 . S
H2244 C2257 0.929 . S
H2245 C2255 0.922 1_554 S
H2246 C2250 0.929 . S
H2247 C2256 0.929 . S
C2248 H2242 0.930 . S
C2248 C2249 1.367 . S
C2248 C2256 1.378 . S
C2249 C2248 1.367 . S
C2249 C2257 1.433 . S
C2250 H2246 0.929 . S
C2250 C2252 1.378 . S
C2250 C2254 1.350 . S
C2251 C2254 1.463 . S
C2251 C2256 1.350 . S
C2251 N2259 1.427 . S
C2252 H2243 0.930 . S
C2252 C2250 1.378 . S
C2252 C2253 1.367 . S
C2253 C2252 1.367 . S
C2253 C2255 1.434 . S
C2254 C2250 1.350 . S
C2254 C2251 1.463 . S
C2254 N2258 1.427 . S
C2255 H2245 0.922 1_556 S
C2255 C2253 1.434 . S
C2255 N2258 1.391 . S
C2256 H2247 0.929 . S
C2256 C2248 1.378 . S
C2256 C2251 1.350 . S
C2257 H2244 0.929 . S
C2257 C2249 1.433 . S
C2257 N2259 1.384 . S
N2258 C2254 1.427 . S
N2258 C2255 1.391 . S
N2259 C2251 1.427 . S
N2259 C2257 1.384 . S
H2260 C2266 0.930 . S
H2261 C2270 0.930 . S
H2262 C2275 0.929 . S
H2263 C2273 0.929 . S
H2264 C2268 0.929 . S
H2265 C2274 0.929 . S
C2266 H2260 0.930 . S
C2266 C2267 1.367 . S
C2266 C2274 1.378 . S
C2267 C2266 1.367 . S
C2267 C2275 1.433 . S
C2268 H2264 0.929 . S
C2268 C2270 1.378 . S
C2268 C2272 1.350 . S
C2269 C2272 1.463 . S
C2269 C2274 1.350 . S
C2269 N2277 1.427 . S
C2270 H2261 0.930 . S
C2270 C2268 1.378 . S
C2270 C2271 1.367 . S
C2271 C2270 1.367 . S
C2271 C2273 1.433 . S
C2272 C2268 1.350 . S
C2272 C2269 1.463 . S
C2272 N2276 1.427 . S
C2273 H2263 0.929 . S
C2273 C2271 1.433 . S
C2273 N2276 1.384 . S
C2274 H2265 0.929 . S
C2274 C2266 1.378 . S
C2274 C2269 1.350 . S
C2275 H2262 0.929 . S
C2275 C2267 1.433 . S
C2275 N2277 1.384 . S
N2276 C2272 1.427 . S
N2276 C2273 1.384 . S
N2277 C2269 1.427 . S
N2277 C2275 1.384 . S
H2278 C2284 0.930 . S
H2279 C2288 0.930 . S
H2280 C2293 0.929 . S
H2281 C2291 0.929 . S
H2282 C2286 0.929 . S
H2283 C2292 0.929 . S
C2284 H2278 0.930 . S
C2284 C2285 1.367 . S
C2284 C2292 1.378 . S
C2285 C2284 1.367 . S
C2285 C2293 1.433 . S
C2286 H2282 0.929 . S
C2286 C2288 1.378 . S
C2286 C2290 1.350 . S
C2287 C2290 1.463 . S
C2287 C2292 1.350 . S
C2287 N2295 1.427 . S
C2288 H2279 0.930 . S
C2288 C2286 1.378 . S
C2288 C2289 1.367 . S
C2289 C2288 1.367 . S
C2289 C2291 1.433 . S
C2290 C2286 1.350 . S
C2290 C2287 1.463 . S
C2290 N2294 1.427 . S
C2291 H2281 0.929 . S
C2291 C2289 1.433 . S
C2291 N2294 1.384 . S
C2292 H2283 0.929 . S
C2292 C2284 1.378 . S
C2292 C2287 1.350 . S
C2293 H2280 0.929 . S
C2293 C2285 1.433 . S
C2293 N2295 1.384 . S
N2294 C2290 1.427 . S
N2294 C2291 1.384 . S
N2295 C2287 1.427 . S
N2295 C2293 1.384 . S
H2296 C2302 0.930 . S
H2297 C2306 0.930 . S
H2298 C2311 0.929 . S
H2299 C2309 0.929 . S
H2300 C2304 0.929 . S
H2301 C2310 0.929 . S
C2302 H2296 0.930 . S
C2302 C2303 1.367 . S
C2302 C2310 1.378 . S
C2303 C2302 1.367 . S
C2303 C2311 1.433 . S
C2304 H2300 0.929 . S
C2304 C2306 1.378 1_554 S
C2304 C2308 1.350 . S
C2305 C2308 1.463 . S
C2305 C2310 1.350 . S
C2305 N2313 1.427 . S
C2306 H2297 0.930 . S
C2306 C2304 1.378 1_556 S
C2306 C2307 1.361 1_556 S
C2307 C2306 1.361 1_554 S
C2307 C2309 1.462 . S
C2308 C2304 1.350 . S
C2308 C2305 1.463 . S
C2308 N2312 1.427 . S
C2309 H2299 0.929 . S
C2309 C2307 1.462 . S
C2309 N2312 1.384 . S
C2310 H2301 0.929 . S
C2310 C2302 1.378 . S
C2310 C2305 1.350 . S
C2311 H2298 0.929 . S
C2311 C2303 1.433 . S
C2311 N2313 1.384 . S
N2312 C2308 1.427 . S
N2312 C2309 1.384 . S
N2313 C2305 1.427 . S
N2313 C2311 1.384 . S
H2314 C2320 0.930 . S
H2315 C2324 0.930 . S
H2316 C2329 0.929 . S
H2317 C2327 0.916 1_556 S
H2318 C2322 0.929 . S
H2319 C2328 0.929 . S
C2320 H2314 0.930 . S
C2320 C2321 1.367 . S
C2320 C2328 1.378 . S
C2321 C2320 1.367 . S
C2321 C2329 1.433 . S
C2322 H2318 0.929 . S
C2322 C2324 1.378 . S
C2322 C2326 1.350 . S
C2323 C2326 1.463 . S
C2323 C2328 1.350 . S
C2323 N2331 1.427 . S
C2324 H2315 0.930 . S
C2324 C2322 1.378 . S
C2324 C2325 1.367 . S
C2325 C2324 1.367 . S
C2325 C2327 1.433 . S
C2326 C2322 1.350 . S
C2326 C2323 1.463 . S
C2326 N2330 1.427 . S
C2327 H2317 0.916 1_554 S
C2327 C2325 1.433 . S
C2327 N2330 1.384 . S
C2328 H2319 0.929 . S
C2328 C2320 1.378 . S
C2328 C2323 1.350 . S
C2329 H2316 0.929 . S
C2329 C2321 1.433 . S
C2329 N2331 1.384 . S
N2330 C2326 1.427 . S
N2330 C2327 1.384 . S
N2331 C2323 1.427 . S
N2331 C2329 1.384 . S
H2332 C2338 0.930 . S
H2333 C2342 0.930 . S
H2334 C2347 0.929 . S
H2335 C2345 0.929 . S
H2336 C2340 0.929 . S
H2337 C2346 0.929 . S
C2338 H2332 0.930 . S
C2338 C2339 1.367 . S
C2338 C2346 1.378 . S
C2339 C2338 1.367 . S
C2339 C2347 1.433 . S
C2340 H2336 0.929 . S
C2340 C2342 1.378 . S
C2340 C2344 1.350 . S
C2341 C2344 1.463 . S
C2341 C2346 1.350 . S
C2341 N2349 1.427 . S
C2342 H2333 0.930 . S
C2342 C2340 1.378 . S
C2342 C2343 1.367 . S
C2343 C2342 1.367 . S
C2343 C2345 1.433 . S
C2344 C2340 1.350 . S
C2344 C2341 1.463 . S
C2344 N2348 1.427 . S
C2345 H2335 0.929 . S
C2345 C2343 1.433 . S
C2345 N2348 1.384 . S
C2346 H2337 0.929 . S
C2346 C2338 1.378 . S
C2346 C2341 1.350 . S
C2347 H2334 0.929 . S
C2347 C2339 1.433 . S
C2347 N2349 1.384 . S
N2348 C2344 1.427 . S
N2348 C2345 1.384 . S
N2349 C2341 1.427 . S
N2349 C2347 1.384 . S
H2350 C2356 0.930 . S
H2351 C2360 0.930 . S
H2352 C2365 0.929 . S
H2353 C2363 0.929 . S
H2354 C2358 0.929 . S
H2355 C2364 0.929 . S
C2356 H2350 0.930 . S
C2356 C2357 1.367 . S
C2356 C2364 1.378 . S
C2357 C2356 1.367 . S
C2357 C2365 1.433 . S
C2358 H2354 0.929 . S
C2358 C2360 1.378 . S
C2358 C2362 1.350 . S
C2359 C2362 1.463 . S
C2359 C2364 1.350 . S
C2359 N2367 1.427 . S
C2360 H2351 0.930 . S
C2360 C2358 1.378 . S
C2360 C2361 1.367 . S
C2361 C2360 1.367 . S
C2361 C2363 1.433 . S
C2362 C2358 1.350 . S
C2362 C2359 1.463 . S
C2362 N2366 1.427 . S
C2363 H2353 0.929 . S
C2363 C2361 1.433 . S
C2363 N2366 1.384 . S
C2364 H2355 0.929 . S
C2364 C2356 1.378 . S
C2364 C2359 1.350 . S
C2365 H2352 0.929 . S
C2365 C2357 1.433 . S
C2365 N2367 1.384 . S
N2366 C2362 1.427 . S
N2366 C2363 1.384 . S
N2367 C2359 1.427 . S
N2367 C2365 1.384 . S
C647 C519 1.688 . S
C651 C19 1.691 . S
C665 C499 1.677 . S
C669 C39 1.680 . S
C683 C559 1.681 . S
C687 C59 1.690 . S
C701 C539 1.683 . S
C705 C79 1.677 . S
C719 C98 1.676 . S
C723 C598 1.683 . S
C737 C118 1.684 . S
C741 C578 1.691 . S
C755 C138 1.689 . S
C759 C638 1.680 . S
C773 C618 1.683 . S
C777 C158 1.691 . S
C791 C359 1.685 . S
C795 C179 1.691 . S
C809 C339 1.681 . S
C813 C199 1.676 . S
C827 C399 1.687 . S
C831 C219 1.691 . S
C845 C379 1.691 . S
C849 C239 1.687 . S
C863 C258 1.691 . S
C867 C438 1.685 . S
C881 C418 1.677 . S
C885 C278 1.678 . S
C899 C298 1.684 . S
C903 C478 1.677 . S
C917 C458 1.684 . S
C921 C318 1.677 . S
C935 C9 1.355 1_565 S
C939 C412 1.355 1_545 S
C953 C272 1.349 . S
C957 C29 1.349 . S
C971 C612 1.349 . S
C975 C49 1.349 . S
C989 C69 1.353 1_565 S
C993 C152 1.353 1_545 S
C1007 C92 1.347 1_545 S
C1011 C329 1.348 1_565 S
C1025 C112 1.358 . S
C1029 C189 1.358 . S
C1043 C132 1.358 . S
C1047 C529 1.358 . S
C1061 C572 1.358 . S
C1065 C169 1.358 . S
C1079 C452 1.356 . S
C1083 C209 1.356 . S
C1097 C312 1.357 . S
C1101 C229 1.357 . S
C1115 C489 1.355 . S
C1119 C252 1.355 . S
C1133 C292 1.352 . S
C1137 C369 1.352 . S
C1151 C592 1.358 . S
C1155 C349 1.358 . S
C1169 C389 1.353 1_565 S
C1173 C472 1.353 1_545 S
C1187 C509 1.350 . S
C1191 C432 1.350 . S
C1205 C549 1.357 . S
C1209 C632 1.357 . S
C1223 C12 1.709 . S
C1227 C392 1.704 . S
C1241 C32 1.692 . S
C1245 C372 1.696 . S
C1259 C52 1.692 . S
C1263 C352 1.695 . S
C1277 C72 1.710 . S
C1281 C332 1.705 . S
C1295 C89 1.706 . S
C1299 C469 1.710 . S
C1313 C109 1.698 . S
C1317 C449 1.693 . S
C1331 C129 1.700 . S
C1335 C429 1.705 . S
C1349 C149 1.706 . S
C1353 C409 1.710 . S
C1367 C172 1.692 . S
C1371 C552 1.696 . S
C1385 C192 1.706 . S
C1389 C532 1.703 . S
C1403 C212 1.707 . S
C1407 C512 1.707 . S
C1421 C232 1.702 . S
C1425 C492 1.697 . S
C1439 C629 1.697 . S
C1443 C249 1.693 . S
C1457 C609 1.696 . S
C1461 C269 1.692 . S
C1475 C589 1.698 . S
C1479 C289 1.703 . S
C1493 C569 1.693 . S
C1497 C309 1.698 . S
C1511 C58 1.693 . S
C1515 C18 1.694 . S
C1529 C78 1.693 . S
C1533 C38 1.694 . S
C1547 C139 1.695 . S
C1551 C99 1.693 . S
C1565 C119 1.691 . S
C1569 C159 1.693 . S
C1583 C218 1.694 . S
C1587 C178 1.694 . S
C1601 C198 1.693 . S
C1605 C238 1.694 . S
C1619 C299 1.692 . S
C1623 C259 1.694 . S
C1637 C279 1.694 . S
C1641 C319 1.693 . S
C1655 C338 1.693 . S
C1659 C378 1.694 . S
C1673 C358 1.694 . S
C1677 C398 1.691 . S
C1691 C459 1.691 . S
C1695 C419 1.693 . S
C1709 C439 1.691 . S
C1713 C479 1.693 . S
C1727 C498 1.692 . S
C1731 C538 1.691 . S
C1745 C558 1.694 . S
C1749 C518 1.694 . S
C1763 C579 1.693 . S
C1767 C619 1.691 . S
C1781 C599 1.694 . S
C1785 C639 1.694 . S
C1799 C4 1.132 1_556 S
C1803 C144 1.127 1_565 S
C1817 C604 1.134 . S
C1821 C24 1.128 1_556 S
C1835 C44 1.140 . S
C1839 C264 1.141 . S
C1853 C64 1.120 . S
C1857 C404 1.120 1_565 S
C1871 C62 1.119 1_545 S
C1875 C82 1.137 1_554 S
C1889 C102 1.130 1_554 S
C1893 C522 1.121 . S
C1907 C182 1.124 . S
C1911 C122 1.134 . S
C1925 C322 1.135 1_545 S
C1929 C142 1.148 . S
C1943 C164 1.121 . S
C1947 C304 1.118 . S
C1961 C444 1.133 . S
C1965 C184 1.128 . S
C1979 C204 1.141 . S
C1983 C104 1.134 . S
C1997 C564 1.118 . S
C2001 C224 1.121 . S
C2015 C242 1.140 . S
C2019 C222 1.141 . S
C2033 C262 1.140 . S
C2037 C362 1.131 . S
C2051 C282 1.125 . S
C2055 C22 1.130 . S
C2069 C482 1.130 . S
C2073 C302 1.125 . S
C2087 C324 1.121 . S
C2091 C464 1.124 1_565 S
C2105 C344 1.121 . S
C2109 C284 1.124 . S
C2123 C364 1.122 . S
C2127 C584 1.126 . S
C2141 C384 1.134 . S
C2145 C84 1.116 1_565 S
C2159 C402 1.150 . S
C2163 C382 1.138 1_545 S
C2177 C202 1.123 . S
C2181 C422 1.133 . S
C2195 C502 1.129 . S
C2199 C442 1.138 . S
C2213 C462 1.137 . S
C2217 C2 1.140 1_545 S
C2231 C624 1.141 . S
C2235 C484 1.129 1_556 S
C2249 C124 1.120 . S
C2253 C504 1.128 1_556 S
C2267 C424 1.128 . S
C2271 C524 1.138 . S
C2285 C544 1.129 . S
C2289 C244 1.134 . S
C2303 C542 1.136 . S
C2307 C562 1.132 1_554 S
C2321 C42 1.123 . S
C2325 C582 1.133 1_554 S
C2339 C342 1.138 . S
C2343 C602 1.143 . S
C2357 C622 1.129 . S
C2361 C162 1.120 . S
