# Generated by pormake.
# Topology whd, (6)-cn, num edge types: 1
# Building blocks:
#     Node 0, Type 0, BuildingBlock: OJICUG_clean_sbu_0, # of connection points: 6
#     Node 1, Type 0, BuildingBlock: OJICUG_clean_sbu_0, # of connection points: 6
#     Node 2, Type 0, BuildingBlock: OJICUG_clean_sbu_0, # of connection points: 6
#     Node 3, Type 0, BuildingBlock: OJICUG_clean_sbu_0, # of connection points: 6
#     Node 4, Type 0, BuildingBlock: OJICUG_clean_sbu_0, # of connection points: 6
#     Node 5, Type 0, BuildingBlock: OJICUG_clean_sbu_0, # of connection points: 6
#     Node 6, Type 0, BuildingBlock: OJICUG_clean_sbu_0, # of connection points: 6
#     Node 7, Type 0, BuildingBlock: OJICUG_clean_sbu_0, # of connection points: 6
#     Node 8, Type 0, BuildingBlock: OJICUG_clean_sbu_0, # of connection points: 6
#     Node 9, Type 0, BuildingBlock: OJICUG_clean_sbu_0, # of connection points: 6
#     Node 10, Type 0, BuildingBlock: OJICUG_clean_sbu_0, # of connection points: 6
#     Node 11, Type 0, BuildingBlock: OJICUG_clean_sbu_0, # of connection points: 6
#     Node 12, Type 0, BuildingBlock: OJICUG_clean_sbu_0, # of connection points: 6
#     Node 13, Type 0, BuildingBlock: OJICUG_clean_sbu_0, # of connection points: 6
#     Node 14, Type 0, BuildingBlock: OJICUG_clean_sbu_0, # of connection points: 6
#     Node 15, Type 0, BuildingBlock: OJICUG_clean_sbu_0, # of connection points: 6
#     Edge 16, Type (0, 0), BuildingBlock: UVAHIK_clean_linker_0, # of connection points: 2
#     Edge 17, Type (0, 0), BuildingBlock: UVAHIK_clean_linker_0, # of connection points: 2
#     Edge 18, Type (0, 0), BuildingBlock: UVAHIK_clean_linker_0, # of connection points: 2
#     Edge 19, Type (0, 0), BuildingBlock: UVAHIK_clean_linker_0, # of connection points: 2
#     Edge 20, Type (0, 0), BuildingBlock: UVAHIK_clean_linker_0, # of connection points: 2
#     Edge 21, Type (0, 0), BuildingBlock: UVAHIK_clean_linker_0, # of connection points: 2
#     Edge 22, Type (0, 0), BuildingBlock: UVAHIK_clean_linker_0, # of connection points: 2
#     Edge 23, Type (0, 0), BuildingBlock: UVAHIK_clean_linker_0, # of connection points: 2
#     Edge 24, Type (0, 0), BuildingBlock: UVAHIK_clean_linker_0, # of connection points: 2
#     Edge 25, Type (0, 0), BuildingBlock: UVAHIK_clean_linker_0, # of connection points: 2
#     Edge 26, Type (0, 0), BuildingBlock: UVAHIK_clean_linker_0, # of connection points: 2
#     Edge 27, Type (0, 0), BuildingBlock: UVAHIK_clean_linker_0, # of connection points: 2
#     Edge 28, Type (0, 0), BuildingBlock: UVAHIK_clean_linker_0, # of connection points: 2
#     Edge 29, Type (0, 0), BuildingBlock: UVAHIK_clean_linker_0, # of connection points: 2
#     Edge 30, Type (0, 0), BuildingBlock: UVAHIK_clean_linker_0, # of connection points: 2
#     Edge 31, Type (0, 0), BuildingBlock: UVAHIK_clean_linker_0, # of connection points: 2
#     Edge 32, Type (0, 0), BuildingBlock: UVAHIK_clean_linker_0, # of connection points: 2
#     Edge 33, Type (0, 0), BuildingBlock: UVAHIK_clean_linker_0, # of connection points: 2
#     Edge 34, Type (0, 0), BuildingBlock: UVAHIK_clean_linker_0, # of connection points: 2
#     Edge 35, Type (0, 0), BuildingBlock: UVAHIK_clean_linker_0, # of connection points: 2
#     Edge 36, Type (0, 0), BuildingBlock: UVAHIK_clean_linker_0, # of connection points: 2
#     Edge 37, Type (0, 0), BuildingBlock: UVAHIK_clean_linker_0, # of connection points: 2
#     Edge 38, Type (0, 0), BuildingBlock: UVAHIK_clean_linker_0, # of connection points: 2
#     Edge 39, Type (0, 0), BuildingBlock: UVAHIK_clean_linker_0, # of connection points: 2
#     Edge 40, Type (0, 0), BuildingBlock: UVAHIK_clean_linker_0, # of connection points: 2
#     Edge 41, Type (0, 0), BuildingBlock: UVAHIK_clean_linker_0, # of connection points: 2
#     Edge 42, Type (0, 0), BuildingBlock: UVAHIK_clean_linker_0, # of connection points: 2
#     Edge 43, Type (0, 0), BuildingBlock: UVAHIK_clean_linker_0, # of connection points: 2
#     Edge 44, Type (0, 0), BuildingBlock: UVAHIK_clean_linker_0, # of connection points: 2
#     Edge 45, Type (0, 0), BuildingBlock: UVAHIK_clean_linker_0, # of connection points: 2
#     Edge 46, Type (0, 0), BuildingBlock: UVAHIK_clean_linker_0, # of connection points: 2
#     Edge 47, Type (0, 0), BuildingBlock: UVAHIK_clean_linker_0, # of connection points: 2
#     Edge 48, Type (0, 0), BuildingBlock: UVAHIK_clean_linker_0, # of connection points: 2
#     Edge 49, Type (0, 0), BuildingBlock: UVAHIK_clean_linker_0, # of connection points: 2
#     Edge 50, Type (0, 0), BuildingBlock: UVAHIK_clean_linker_0, # of connection points: 2
#     Edge 51, Type (0, 0), BuildingBlock: UVAHIK_clean_linker_0, # of connection points: 2
#     Edge 52, Type (0, 0), BuildingBlock: UVAHIK_clean_linker_0, # of connection points: 2
#     Edge 53, Type (0, 0), BuildingBlock: UVAHIK_clean_linker_0, # of connection points: 2
#     Edge 54, Type (0, 0), BuildingBlock: UVAHIK_clean_linker_0, # of connection points: 2
#     Edge 55, Type (0, 0), BuildingBlock: UVAHIK_clean_linker_0, # of connection points: 2
#     Edge 56, Type (0, 0), BuildingBlock: UVAHIK_clean_linker_0, # of connection points: 2
#     Edge 57, Type (0, 0), BuildingBlock: UVAHIK_clean_linker_0, # of connection points: 2
#     Edge 58, Type (0, 0), BuildingBlock: UVAHIK_clean_linker_0, # of connection points: 2
#     Edge 59, Type (0, 0), BuildingBlock: UVAHIK_clean_linker_0, # of connection points: 2
#     Edge 60, Type (0, 0), BuildingBlock: UVAHIK_clean_linker_0, # of connection points: 2
#     Edge 61, Type (0, 0), BuildingBlock: UVAHIK_clean_linker_0, # of connection points: 2
#     Edge 62, Type (0, 0), BuildingBlock: UVAHIK_clean_linker_0, # of connection points: 2
#     Edge 63, Type (0, 0), BuildingBlock: UVAHIK_clean_linker_0, # of connection points: 2
# Relax obj value: 0.256
# Max RMSD: 0.229
# Mean RMSD: 0.229
data_MOF--net-whd--node1-OJICUG_clean_sbu_0--edge1-UVAHIK_clean_linker_0
_symmetry_space_group_name_H-M    P1
_symmetry_Int_Tables_number       1
_symmetry_cell_setting            triclinic
loop_
_symmetry_equiv_pos_as_xyz
'x, y, z'
_cell_length_a     65.64548
_cell_length_b     65.643191
_cell_length_c     38.84414
_cell_angle_alpha  89.985984
_cell_angle_beta   90.004713
_cell_angle_gamma 90.005914
loop_
_atom_site_label
_atom_site_type_symbol
_atom_site_fract_x
_atom_site_fract_y
_atom_site_fract_z
_atom_type_partial_charge
Sc0 Sc 0.16798 0.36335 0.34637 0.0
Sc1 Sc 0.19705 0.40319 0.31075 0.0
Sc2 Sc 0.1599 0.41358 0.37436 0.0
O3 O 0.17496 0.39342 0.34383 0.0
C4 C 0.12421 0.38398 0.34932 0.0
C5 C 0.17467 0.36973 0.26555 0.0
C6 C 0.16391 0.43847 0.30414 0.0
C7 C 0.21617 0.36261 0.34143 0.0
C8 C 0.16434 0.37585 0.42534 0.0
C9 C 0.20584 0.42942 0.37784 0.0
O10 O 0.13605 0.36926 0.3422 0.0
O11 O 0.18499 0.38601 0.26831 0.0
O12 O 0.15546 0.43481 0.33291 0.0
O13 O 0.1994 0.35512 0.35166 0.0
O14 O 0.16248 0.39484 0.41982 0.0
O15 O 0.21157 0.42133 0.3498 0.0
O16 O 0.16615 0.3629 0.40134 0.0
O17 O 0.21755 0.37913 0.32462 0.0
O18 O 0.18782 0.42822 0.38962 0.0
O19 O 0.16829 0.35973 0.29138 0.0
O20 O 0.13046 0.40083 0.36164 0.0
O21 O 0.1791 0.42846 0.29305 0.0
Sc22 Sc 0.35902 0.81901 0.64425 0.0
Sc23 Sc 0.4024 0.79392 0.67713 0.0
Sc24 Sc 0.40745 0.83125 0.6124 0.0
O25 O 0.38963 0.81476 0.6447 0.0
C26 C 0.36877 0.82192 0.56473 0.0
C27 C 0.36289 0.77071 0.65177 0.0
C28 C 0.42697 0.78703 0.60733 0.0
C29 C 0.36817 0.81441 0.72417 0.0
C30 C 0.37583 0.86459 0.63701 0.0
C31 C 0.43465 0.82975 0.68075 0.0
O32 O 0.357 0.81723 0.58937 0.0
O33 O 0.38096 0.77082 0.66328 0.0
O34 O 0.42234 0.80425 0.59457 0.0
O35 O 0.35784 0.82137 0.69918 0.0
O36 O 0.39365 0.85955 0.62746 0.0
O37 O 0.42533 0.81481 0.69421 0.0
O38 O 0.36174 0.8517 0.6426 0.0
O39 O 0.38411 0.80366 0.72022 0.0
O40 O 0.4304 0.83663 0.65102 0.0
O41 O 0.35297 0.78686 0.64516 0.0
O42 O 0.38693 0.82804 0.56939 0.0
O43 O 0.42205 0.78162 0.63764 0.0
Sc44 Sc 0.81686 0.63 0.33889 0.0
Sc45 Sc 0.78935 0.5874 0.30885 0.0
Sc46 Sc 0.83207 0.58084 0.36295 0.0
O47 O 0.81285 0.59938 0.33674 0.0
C48 C 0.86234 0.6142 0.33177 0.0
C49 C 0.80434 0.6231 0.26006 0.0
C50 C 0.82491 0.55559 0.29395 0.0
C51 C 0.76901 0.62555 0.34568 0.0
C52 C 0.8281 0.61755 0.41579 0.0
C53 C 0.78837 0.56094 0.37721 0.0
O54 O 0.84869 0.62767 0.3272 0.0
O55 O 0.79662 0.60553 0.26442 0.0
O56 O 0.83547 0.56051 0.32003 0.0
O57 O 0.78564 0.63456 0.35236 0.0
O58 O 0.83111 0.59886 0.40918 0.0
O59 O 0.77975 0.56825 0.35068 0.0
O60 O 0.82338 0.63048 0.3929 0.0
O61 O 0.76786 0.60942 0.32777 0.0
O62 O 0.80712 0.56371 0.38409 0.0
O63 O 0.81116 0.63381 0.28476 0.0
O64 O 0.85873 0.59672 0.34463 0.0
O65 O 0.80778 0.5636 0.28708 0.0
Sc66 Sc 0.6277 0.1728 0.65847 0.0
Sc67 Sc 0.58416 0.19883 0.68853 0.0
Sc68 Sc 0.57952 0.16043 0.62555 0.0
O69 O 0.59713 0.17731 0.6576 0.0
C70 C 0.61899 0.16651 0.57884 0.0
C71 C 0.62339 0.22121 0.65921 0.0
C72 C 0.55988 0.20426 0.61805 0.0
C73 C 0.61867 0.18107 0.73778 0.0
C74 C 0.61015 0.12747 0.65626 0.0
C75 C 0.55195 0.16323 0.69355 0.0
O76 O 0.63068 0.17078 0.60375 0.0
O77 O 0.60566 0.22138 0.67231 0.0
O78 O 0.56498 0.18716 0.60545 0.0
O79 O 0.62917 0.17375 0.71339 0.0
O80 O 0.59309 0.13238 0.64301 0.0
O81 O 0.56139 0.17813 0.70695 0.0
O82 O 0.62412 0.14035 0.66277 0.0
O83 O 0.60222 0.19082 0.73292 0.0
O84 O 0.55623 0.15616 0.66396 0.0
O85 O 0.6334 0.20493 0.65364 0.0
O86 O 0.60025 0.16241 0.58278 0.0
O87 O 0.56435 0.20992 0.64838 0.0
Sc88 Sc 0.15853 0.57387 0.6187 0.0
Sc89 Sc 0.19544 0.58211 0.6829 0.0
Sc90 Sc 0.16882 0.62357 0.64668 0.0
O91 O 0.17425 0.59321 0.64949 0.0
C92 C 0.1655 0.61171 0.56797 0.0
C93 C 0.20323 0.55588 0.61498 0.0
C94 C 0.21731 0.62141 0.65353 0.0
C95 C 0.16091 0.5489 0.68943 0.0
C96 C 0.12404 0.60438 0.64237 0.0
C97 C 0.17426 0.61722 0.72731 0.0
O98 O 0.16008 0.5935 0.57422 0.0
O99 O 0.20805 0.56126 0.64537 0.0
O100 O 0.20082 0.63073 0.64661 0.0
O101 O 0.15455 0.55152 0.65884 0.0
O102 O 0.13622 0.61932 0.64601 0.0
O103 O 0.1856 0.60161 0.72442 0.0
O104 O 0.12985 0.58658 0.63405 0.0
O105 O 0.17503 0.55954 0.7026 0.0
O106 O 0.16664 0.62641 0.70159 0.0
O107 O 0.18619 0.56009 0.6012 0.0
O108 O 0.17021 0.62422 0.59155 0.0
O109 O 0.21781 0.60364 0.66635 0.0
Sc110 Sc 0.57688 0.82696 0.35782 0.0
Sc111 Sc 0.58672 0.78403 0.3058 0.0
Sc112 Sc 0.62723 0.81333 0.33807 0.0
O113 O 0.59691 0.80816 0.33384 0.0
C114 C 0.61033 0.85822 0.32943 0.0
C115 C 0.55413 0.81854 0.28732 0.0
C116 C 0.62271 0.80025 0.25894 0.0
C117 C 0.55738 0.78278 0.37015 0.0
C118 C 0.61176 0.82382 0.41411 0.0
C119 C 0.6248 0.76544 0.34529 0.0
O120 O 0.59301 0.85411 0.34237 0.0
O121 O 0.56234 0.80121 0.28277 0.0
O122 O 0.6328 0.80728 0.28426 0.0
O123 O 0.55847 0.80186 0.37572 0.0
O124 O 0.62556 0.82013 0.39208 0.0
O125 O 0.60938 0.76362 0.32584 0.0
O126 O 0.59311 0.8259 0.40602 0.0
O127 O 0.56743 0.77375 0.3468 0.0
O128 O 0.63272 0.78247 0.35291 0.0
O129 O 0.55861 0.83013 0.31237 0.0
O130 O 0.62406 0.84485 0.32474 0.0
O131 O 0.60526 0.79213 0.26235 0.0
Sc132 Sc 0.82893 0.41167 0.62698 0.0
Sc133 Sc 0.78841 0.40475 0.68545 0.0
Sc134 Sc 0.81508 0.36226 0.65221 0.0
O135 O 0.81086 0.3929 0.655 0.0
C136 C 0.82264 0.37487 0.57449 0.0
C137 C 0.78488 0.43146 0.61747 0.0
C138 C 0.76672 0.36624 0.65206 0.0
C139 C 0.82412 0.43667 0.69707 0.0
C140 C 0.86079 0.37877 0.65382 0.0
C141 C 0.80602 0.36894 0.73205 0.0
O142 O 0.82696 0.39328 0.5813 0.0
O143 O 0.77755 0.42479 0.64556 0.0
O144 O 0.78309 0.35674 0.6452 0.0
O145 O 0.83325 0.43245 0.66914 0.0
O146 O 0.84757 0.36484 0.6581 0.0
O147 O 0.79664 0.38576 0.72856 0.0
O148 O 0.85635 0.39656 0.64322 0.0
O149 O 0.80778 0.42796 0.70646 0.0
O150 O 0.81314 0.35889 0.70688 0.0
O151 O 0.80306 0.42805 0.60781 0.0
O152 O 0.81795 0.36193 0.59737 0.0
O153 O 0.7664 0.38328 0.66743 0.0
Sc154 Sc 0.41045 0.15351 0.37459 0.0
Sc155 Sc 0.40339 0.19039 0.30983 0.0
Sc156 Sc 0.36204 0.16081 0.33841 0.0
O157 O 0.39198 0.1682 0.34093 0.0
C158 C 0.38287 0.11717 0.34824 0.0
C159 C 0.43826 0.15728 0.30695 0.0
C160 C 0.37225 0.16741 0.25981 0.0
C161 C 0.42662 0.19885 0.3805 0.0
C162 C 0.36956 0.15899 0.41863 0.0
C163 C 0.36151 0.2094 0.33272 0.0
O164 O 0.39989 0.1239 0.35887 0.0
O165 O 0.42761 0.1711 0.29281 0.0
O166 O 0.36287 0.15816 0.28368 0.0
O167 O 0.42246 0.18166 0.39372 0.0
O168 O 0.35819 0.16239 0.39287 0.0
O169 O 0.38015 0.21139 0.32483 0.0
O170 O 0.38844 0.15488 0.41596 0.0
O171 O 0.42217 0.20353 0.34968 0.0
O172 O 0.3528 0.1922 0.33595 0.0
O173 O 0.43465 0.15047 0.33705 0.0
O174 O 0.36784 0.12865 0.3412 0.0
O175 O 0.38621 0.18041 0.26548 0.0
Sc176 Sc 0.67017 0.85916 0.83812 0.0
Sc177 Sc 0.69554 0.9029 0.8076 0.0
Sc178 Sc 0.65667 0.90751 0.8697 0.0
O179 O 0.67411 0.88986 0.83845 0.0
C180 C 0.6245 0.87605 0.8394 0.0
C181 C 0.67749 0.86847 0.75842 0.0
C182 C 0.65968 0.93499 0.80178 0.0
C183 C 0.71845 0.86366 0.836 0.0
C184 C 0.66384 0.8686 0.9177 0.0
C185 C 0.70055 0.92739 0.878 0.0
O186 O 0.63765 0.86218 0.83385 0.0
O187 O 0.68674 0.88521 0.76341 0.0
O188 O 0.65201 0.93058 0.83089 0.0
O189 O 0.70229 0.8537 0.84255 0.0
O190 O 0.65881 0.88706 0.91289 0.0
O191 O 0.70671 0.9223 0.84819 0.0
O192 O 0.66868 0.85679 0.89319 0.0
O193 O 0.71834 0.88133 0.8227 0.0
O194 O 0.68307 0.92275 0.88971 0.0
O195 O 0.67098 0.85742 0.78289 0.0
O196 O 0.62901 0.89335 0.85208 0.0
O197 O 0.67506 0.92585 0.78949 0.0
Sc198 Sc 0.86424 0.32094 0.15129 0.0
Sc199 Sc 0.90722 0.29542 0.1845 0.0
Sc200 Sc 0.91306 0.33336 0.12097 0.0
O201 O 0.89483 0.31661 0.1523 0.0
C202 C 0.87463 0.32563 0.07214 0.0
C203 C 0.86838 0.27249 0.15548 0.0
C204 C 0.93276 0.28931 0.11546 0.0
C205 C 0.87209 0.31438 0.23119 0.0
C206 C 0.88134 0.36647 0.14704 0.0
C207 C 0.93883 0.33164 0.19088 0.0
O208 O 0.86259 0.32125 0.09651 0.0
O209 O 0.88611 0.27253 0.16848 0.0
O210 O 0.92821 0.30659 0.1029 0.0
O211 O 0.86207 0.32155 0.20608 0.0
O212 O 0.89894 0.36147 0.13632 0.0
O213 O 0.9294 0.31648 0.20343 0.0
O214 O 0.86723 0.35361 0.15279 0.0
O215 O 0.88836 0.30414 0.22747 0.0
O216 O 0.93541 0.33855 0.16085 0.0
O217 O 0.85846 0.28869 0.14897 0.0
O218 O 0.89313 0.33056 0.07697 0.0
O219 O 0.92757 0.28371 0.14552 0.0
Sc220 Sc 0.31357 0.12505 0.83637 0.0
Sc221 Sc 0.28355 0.08444 0.80478 0.0
Sc222 Sc 0.32626 0.07488 0.85779 0.0
O223 O 0.30784 0.09476 0.83282 0.0
C224 C 0.35809 0.10694 0.82733 0.0
C225 C 0.29989 0.12041 0.75778 0.0
C226 C 0.31769 0.05162 0.78716 0.0
C227 C 0.26552 0.12293 0.84416 0.0
C228 C 0.32449 0.11072 0.91246 0.0
C229 C 0.28181 0.0567 0.87157 0.0
O230 O 0.34509 0.12113 0.82353 0.0
O231 O 0.2909 0.10341 0.76136 0.0
O232 O 0.32835 0.05538 0.81368 0.0
O233 O 0.28266 0.1311 0.85044 0.0
O234 O 0.32646 0.09204 0.90482 0.0
O235 O 0.27341 0.06459 0.84533 0.0
O236 O 0.32038 0.12429 0.89032 0.0
O237 O 0.2634 0.10696 0.82606 0.0
O238 O 0.30062 0.05875 0.87853 0.0
O239 O 0.30791 0.13001 0.78268 0.0
O240 O 0.35364 0.08962 0.84 0.0
O241 O 0.3009 0.06048 0.78075 0.0
Sc242 Sc 0.13004 0.67468 0.15012 0.0
Sc243 Sc 0.0896 0.70374 0.18282 0.0
Sc244 Sc 0.07979 0.66194 0.12876 0.0
O245 O 0.09977 0.68006 0.15395 0.0
C246 C 0.11482 0.66538 0.07341 0.0
C247 C 0.12806 0.72253 0.14467 0.0
C248 C 0.06054 0.70647 0.11874 0.0
C249 C 0.12492 0.68659 0.22965 0.0
C250 C 0.11292 0.63 0.15646 0.0
C251 C 0.0567 0.66903 0.19895 0.0
O252 O 0.12863 0.66758 0.09604 0.0
O253 O 0.11299 0.72407 0.16499 0.0
O254 O 0.06109 0.68738 0.11299 0.0
O255 O 0.13551 0.68061 0.20415 0.0
O256 O 0.09607 0.63438 0.14202 0.0
O257 O 0.06453 0.68652 0.20376 0.0
O258 O 0.12641 0.64327 0.16339 0.0
O259 O 0.10729 0.69428 0.22627 0.0
O260 O 0.06174 0.65751 0.17412 0.0
O261 O 0.13558 0.70559 0.13544 0.0
O262 O 0.09597 0.66466 0.0808 0.0
O263 O 0.07114 0.71518 0.14171 0.0
Sc264 Sc 0.6638 0.07952 0.12652 0.0
Sc265 Sc 0.70244 0.08487 0.189 0.0
Sc266 Sc 0.67584 0.12799 0.15857 0.0
O267 O 0.68067 0.09746 0.15808 0.0
C268 C 0.66935 0.11884 0.07914 0.0
C269 C 0.70793 0.0605 0.11868 0.0
C270 C 0.72427 0.1245 0.15982 0.0
C271 C 0.66732 0.05203 0.1945 0.0
C272 C 0.63067 0.10998 0.15708 0.0
C273 C 0.68416 0.11917 0.23798 0.0
O274 O 0.6654 0.10009 0.08344 0.0
O275 O 0.71382 0.06538 0.1487 0.0
O276 O 0.70785 0.13414 0.1537 0.0
O277 O 0.65988 0.05633 0.16518 0.0
O278 O 0.64346 0.12412 0.16308 0.0
O279 O 0.694 0.10275 0.23329 0.0
O280 O 0.63567 0.09287 0.14414 0.0
O281 O 0.68228 0.06159 0.20747 0.0
O282 O 0.67686 0.12963 0.21349 0.0
O283 O 0.69059 0.06506 0.10642 0.0
O284 O 0.67367 0.13071 0.10379 0.0
O285 O 0.72469 0.10682 0.1731 0.0
Sc286 Sc 0.07339 0.32746 0.86595 0.0
Sc287 Sc 0.0851 0.2869 0.80964 0.0
Sc288 Sc 0.12417 0.31657 0.84571 0.0
O289 O 0.09416 0.31034 0.84038 0.0
C290 C 0.10572 0.36084 0.84072 0.0
C291 C 0.05167 0.32107 0.79392 0.0
C292 C 0.12085 0.30587 0.76556 0.0
C293 C 0.05535 0.28227 0.87294 0.0
C294 C 0.10801 0.32436 0.92221 0.0
C295 C 0.12354 0.26854 0.84874 0.0
O296 O 0.0887 0.35576 0.85389 0.0
O297 O 0.06013 0.30402 0.78782 0.0
O298 O 0.13043 0.31213 0.79193 0.0
O299 O 0.05563 0.30115 0.88039 0.0
O300 O 0.12194 0.32241 0.89982 0.0
O301 O 0.10852 0.2668 0.82832 0.0
O302 O 0.0892 0.32496 0.91451 0.0
O303 O 0.06599 0.27441 0.84915 0.0
O304 O 0.13059 0.28558 0.85849 0.0
O305 O 0.05569 0.33181 0.82024 0.0
O306 O 0.11977 0.34809 0.83432 0.0
O307 O 0.1036 0.29716 0.76734 0.0
Sc308 Sc 0.33097 0.90961 0.12698 0.0
Sc309 Sc 0.28864 0.90248 0.18173 0.0
Sc310 Sc 0.31474 0.86017 0.14706 0.0
O311 O 0.31154 0.89077 0.1521 0.0
C312 C 0.32559 0.87483 0.07108 0.0
C313 C 0.28785 0.93136 0.11624 0.0
C314 C 0.26698 0.86637 0.14129 0.0
C315 C 0.32555 0.93229 0.19897 0.0
C316 C 0.36063 0.87454 0.15439 0.0
C317 C 0.30248 0.86453 0.22647 0.0
O318 O 0.32894 0.89324 0.07918 0.0
O319 O 0.2794 0.92357 0.1425 0.0
O320 O 0.28331 0.85703 0.13379 0.0
O321 O 0.33542 0.92821 0.17173 0.0
O322 O 0.3467 0.86129 0.15845 0.0
O323 O 0.29526 0.88242 0.22389 0.0
O324 O 0.35731 0.89239 0.14287 0.0
O325 O 0.30826 0.92459 0.20579 0.0
O326 O 0.30915 0.85459 0.20079 0.0
O327 O 0.30635 0.92812 0.10822 0.0
O328 O 0.32096 0.86128 0.09298 0.0
O329 O 0.26634 0.88197 0.1606 0.0
Sc330 Sc 0.913 0.65877 0.871 0.0
Sc331 Sc 0.90701 0.6983 0.81023 0.0
Sc332 Sc 0.86418 0.67126 0.84099 0.0
O333 O 0.89474 0.67608 0.84066 0.0
C334 C 0.88174 0.62586 0.84313 0.0
C335 C 0.93973 0.66306 0.80253 0.0
C336 C 0.873 0.679 0.76144 0.0
C337 C 0.93181 0.70321 0.88013 0.0
C338 C 0.87445 0.66549 0.92013 0.0
C339 C 0.86713 0.71978 0.83857 0.0
O340 O 0.8993 0.63086 0.85397 0.0
O341 O 0.93066 0.67881 0.79145 0.0
O342 O 0.86262 0.67145 0.7859 0.0
O343 O 0.928 0.68529 0.89078 0.0
O344 O 0.86239 0.67034 0.89597 0.0
O345 O 0.88493 0.72031 0.82595 0.0
O346 O 0.8929 0.6605 0.91488 0.0
O347 O 0.92614 0.70982 0.85091 0.0
O348 O 0.85763 0.70328 0.8445 0.0
O349 O 0.93533 0.65456 0.83097 0.0
O350 O 0.86749 0.63865 0.8382 0.0
O351 O 0.88909 0.68941 0.76618 0.0
C352 C 0.14143 0.46895 0.29647 0.0
C353 C 0.15603 0.45547 0.283 0.0
C354 C 0.13498 0.48576 0.27738 0.0
C355 C 0.11772 0.51623 0.22671 0.0
H356 H 0.16074 0.54691 0.18206 0.0
C357 C 0.10292 0.59309 0.15829 0.0
C358 C 0.11705 0.60857 0.1659 0.0
C359 C 0.10682 0.57294 0.16788 0.0
C360 C 0.14856 0.5385 0.1944 0.0
H361 H 0.17455 0.44854 0.23817 0.0
H362 H 0.16307 0.47775 0.20476 0.0
H363 H 0.16844 0.51402 0.20777 0.0
H364 H 0.14639 0.61493 0.18947 0.0
H365 H 0.15297 0.58001 0.20651 0.0
H366 H 0.09809 0.54127 0.21482 0.0
C367 C 0.15694 0.47552 0.23036 0.0
C368 C 0.1529 0.51954 0.20875 0.0
C369 C 0.16347 0.45876 0.24951 0.0
C370 C 0.13519 0.60342 0.18304 0.0
C371 C 0.13906 0.58334 0.19261 0.0
C372 C 0.11338 0.53526 0.21242 0.0
C373 C 0.1429 0.4894 0.24434 0.0
C374 C 0.13764 0.50838 0.2257 0.0
C375 C 0.12492 0.5679 0.18521 0.0
C376 C 0.12888 0.54678 0.19682 0.0
H377 H 0.13536 0.46688 0.32216 0.0
H378 H 0.12436 0.49631 0.28909 0.0
H379 H 0.10557 0.50785 0.23919 0.0
H380 H 0.08882 0.59651 0.14504 0.0
H381 H 0.09572 0.56132 0.16164 0.0
C382 C 0.45578 0.83297 0.73413 0.0
C383 C 0.45178 0.83892 0.69999 0.0
C384 C 0.47299 0.84018 0.75129 0.0
C385 C 0.52436 0.85695 0.73224 0.0
H386 H 0.52625 0.87131 0.82909 0.0
C387 C 0.59859 0.85497 0.80858 0.0
C388 C 0.6033 0.87236 0.82817 0.0
C389 C 0.57919 0.85244 0.79472 0.0
C390 C 0.52588 0.86747 0.80198 0.0
H391 H 0.46221 0.85796 0.65779 0.0
H392 H 0.49233 0.87044 0.68783 0.0
H393 H 0.49327 0.86577 0.80103 0.0
H394 H 0.59098 0.90026 0.84986 0.0
H395 H 0.55691 0.89563 0.82572 0.0
H396 H 0.55688 0.85831 0.73319 0.0
C397 C 0.48218 0.86006 0.70109 0.0
C398 C 0.50708 0.86422 0.78601 0.0
C399 C 0.4649 0.85295 0.68396 0.0
C400 C 0.58788 0.88673 0.83479 0.0
C401 C 0.56838 0.88409 0.82109 0.0
C402 C 0.54309 0.86002 0.74823 0.0
C403 C 0.4866 0.8534 0.73463 0.0
C404 C 0.50619 0.85872 0.75107 0.0
C405 C 0.56404 0.86714 0.80032 0.0
C406 C 0.54403 0.86502 0.78333 0.0
H407 H 0.4459 0.82232 0.74736 0.0
H408 H 0.47612 0.83468 0.77705 0.0
H409 H 0.52414 0.85251 0.70538 0.0
H410 H 0.61004 0.84355 0.80302 0.0
H411 H 0.5761 0.83907 0.77924 0.0
C412 C 0.85709 0.39524 0.15695 0.0
C413 C 0.87723 0.38816 0.15419 0.0
C414 C 0.8532 0.41548 0.16571 0.0
C415 C 0.87467 0.45644 0.21549 0.0
H416 H 0.834 0.49006 0.17058 0.0
C417 C 0.8535 0.53459 0.27066 0.0
C418 C 0.83264 0.53931 0.27129 0.0
C419 C 0.86064 0.51828 0.25107 0.0
C420 C 0.84529 0.48081 0.18356 0.0
H421 H 0.90908 0.39685 0.15766 0.0
H422 H 0.90218 0.43217 0.17367 0.0
H423 H 0.84318 0.45714 0.1457 0.0
H424 H 0.80295 0.53102 0.25121 0.0
H425 H 0.81522 0.50209 0.21815 0.0
H426 H 0.8761 0.47931 0.25436 0.0
C427 C 0.88948 0.42202 0.1688 0.0
C428 C 0.8506 0.46205 0.16919 0.0
C429 C 0.8934 0.40185 0.15956 0.0
C430 C 0.81913 0.52779 0.25114 0.0
C431 C 0.82622 0.51127 0.23197 0.0
C432 C 0.86918 0.47503 0.23012 0.0
C433 C 0.86936 0.42892 0.1723 0.0
C434 C 0.86513 0.44961 0.18531 0.0
C435 C 0.84702 0.50611 0.23213 0.0
C436 C 0.8542 0.48732 0.21462 0.0
H437 H 0.84432 0.3851 0.15276 0.0
H438 H 0.83754 0.42042 0.16857 0.0
H439 H 0.88573 0.44698 0.22863 0.0
H440 H 0.86432 0.54342 0.28555 0.0
H441 H 0.87681 0.51504 0.25117 0.0
C442 C 0.39479 0.09656 0.82342 0.0
C443 C 0.37937 0.11094 0.81695 0.0
C444 C 0.41494 0.10066 0.81417 0.0
C445 C 0.44938 0.14327 0.79302 0.0
H446 H 0.48153 0.10187 0.74702 0.0
C447 C 0.52182 0.13994 0.69668 0.0
C448 C 0.53471 0.15418 0.71267 0.0
C449 C 0.5046 0.13265 0.71369 0.0
C450 C 0.47273 0.11357 0.75986 0.0
H451 H 0.37303 0.14077 0.79519 0.0
H452 H 0.40801 0.14771 0.77871 0.0
H453 H 0.44747 0.09351 0.76789 0.0
H454 H 0.54024 0.17103 0.75988 0.0
H455 H 0.51029 0.15806 0.78968 0.0
H456 H 0.47412 0.16361 0.78363 0.0
C457 C 0.40461 0.13346 0.79156 0.0
C458 C 0.45333 0.10873 0.7721 0.0
C459 C 0.38452 0.1294 0.80081 0.0
C460 C 0.53049 0.16027 0.74663 0.0
C461 C 0.51331 0.15289 0.76369 0.0
C462 C 0.46871 0.14812 0.78074 0.0
C463 C 0.42005 0.11919 0.7983 0.0
C464 C 0.44131 0.12367 0.78817 0.0
C465 C 0.49995 0.13934 0.74713 0.0
C466 C 0.48045 0.13343 0.76346 0.0
H467 H 0.39137 0.0822 0.83587 0.0
H468 H 0.42656 0.08943 0.81985 0.0
H469 H 0.44058 0.155 0.80581 0.0
H470 H 0.52463 0.13489 0.67056 0.0
H471 H 0.49449 0.12241 0.70005 0.0
C472 C 0.13896 0.51791 0.69538 0.0
C473 C 0.15169 0.5326 0.71052 0.0
C474 C 0.13124 0.50185 0.71498 0.0
C475 C 0.11055 0.47295 0.76465 0.0
H476 H 0.15017 0.44664 0.82388 0.0
C477 C 0.09391 0.39711 0.83541 0.0
C478 C 0.1094 0.38244 0.83195 0.0
C479 C 0.09743 0.41734 0.82583 0.0
C480 C 0.13891 0.45386 0.80753 0.0
H481 H 0.16538 0.54258 0.75856 0.0
H482 H 0.15168 0.5147 0.79276 0.0
H483 H 0.15864 0.47886 0.79659 0.0
H484 H 0.1408 0.37764 0.81618 0.0
H485 H 0.14675 0.41264 0.79928 0.0
H486 H 0.09129 0.44724 0.77418 0.0
C487 C 0.14804 0.51536 0.76558 0.0
C488 C 0.14366 0.47244 0.7922 0.0
C489 C 0.15587 0.53134 0.74596 0.0
C490 C 0.12851 0.38849 0.81925 0.0
C491 C 0.13201 0.40864 0.80981 0.0
C492 C 0.10582 0.45429 0.77995 0.0
C493 C 0.13597 0.50023 0.75016 0.0
C494 C 0.12974 0.48195 0.7699 0.0
C495 C 0.1165 0.42326 0.81283 0.0
C496 C 0.12019 0.44431 0.80076 0.0
H497 H 0.13541 0.51845 0.66817 0.0
H498 H 0.12222 0.49029 0.7022 0.0
H499 H 0.0994 0.48007 0.74799 0.0
H500 H 0.07901 0.39296 0.84511 0.0
H501 H 0.08524 0.42835 0.82855 0.0
C502 C 0.53052 0.84509 0.26403 0.0
C503 C 0.53751 0.82484 0.26404 0.0
C504 C 0.51312 0.85045 0.24549 0.0
C505 C 0.46538 0.82823 0.22035 0.0
H506 H 0.45814 0.87686 0.165 0.0
C507 C 0.38751 0.84816 0.16265 0.0
C508 C 0.38174 0.86875 0.16282 0.0
C509 C 0.40747 0.84257 0.17043 0.0
C510 C 0.45988 0.86333 0.18069 0.0
H511 H 0.53241 0.7946 0.24307 0.0
H512 H 0.50182 0.80399 0.21114 0.0
H513 H 0.49214 0.86771 0.18557 0.0
H514 H 0.39225 0.89966 0.17126 0.0
H515 H 0.42692 0.88987 0.18631 0.0
H516 H 0.43322 0.82423 0.21723 0.0
C517 C 0.50985 0.81563 0.22551 0.0
C518 C 0.47934 0.85806 0.1922 0.0
C519 C 0.52739 0.81031 0.24369 0.0
C520 C 0.39632 0.88367 0.17078 0.0
C521 C 0.41623 0.87805 0.17913 0.0
C522 C 0.44594 0.83363 0.2093 0.0
C523 C 0.50232 0.83562 0.22697 0.0
C524 C 0.48219 0.84051 0.21226 0.0
C525 C 0.42202 0.85741 0.17917 0.0
C526 C 0.44291 0.85131 0.18951 0.0
H527 H 0.5381 0.85667 0.27922 0.0
H528 H 0.50753 0.86594 0.24712 0.0
H529 H 0.46716 0.81482 0.23634 0.0
H530 H 0.37666 0.83634 0.1561 0.0
H531 H 0.41148 0.82658 0.16949 0.0
C532 C 0.85783 0.59678 0.83355 0.0
C533 C 0.87787 0.60425 0.83501 0.0
C534 C 0.85412 0.57659 0.82432 0.0
C535 C 0.87456 0.53671 0.77129 0.0
H536 H 0.83723 0.50134 0.82044 0.0
C537 C 0.85314 0.45844 0.71657 0.0
C538 C 0.8325 0.45301 0.71892 0.0
C539 C 0.86073 0.47481 0.73557 0.0
C540 C 0.84756 0.51108 0.80626 0.0
H541 H 0.90976 0.59639 0.82845 0.0
H542 H 0.90315 0.56114 0.81148 0.0
H543 H 0.84642 0.53435 0.84494 0.0
H544 H 0.80371 0.46009 0.74354 0.0
H545 H 0.81668 0.48912 0.7755 0.0
H546 H 0.87491 0.51425 0.73166 0.0
C547 C 0.8904 0.57093 0.81784 0.0
C548 C 0.85288 0.52989 0.82041 0.0
C549 C 0.89415 0.59104 0.82763 0.0
C550 C 0.81972 0.46388 0.74133 0.0
C551 C 0.82722 0.48046 0.75986 0.0
C552 C 0.869 0.51808 0.75687 0.0
C553 C 0.87036 0.56361 0.81588 0.0
C554 C 0.86621 0.54294 0.8028 0.0
C555 C 0.84776 0.48632 0.75684 0.0
C556 C 0.85519 0.50515 0.77392 0.0
H557 H 0.84499 0.60658 0.83929 0.0
H558 H 0.83852 0.5713 0.82265 0.0
H559 H 0.88469 0.54666 0.75706 0.0
H560 H 0.86341 0.45013 0.69987 0.0
H561 H 0.87673 0.47859 0.73319 0.0
C562 C 0.60314 0.13241 0.18024 0.0
C563 C 0.60916 0.11347 0.16679 0.0
C564 C 0.58318 0.13553 0.19116 0.0
C565 C 0.53836 0.10822 0.22276 0.0
H566 H 0.51201 0.16028 0.20715 0.0
C567 C 0.47081 0.13735 0.30402 0.0
C568 C 0.45583 0.14914 0.28756 0.0
C569 C 0.48805 0.1309 0.28598 0.0
C570 C 0.51899 0.14554 0.21135 0.0
H571 H 0.59874 0.08303 0.15373 0.0
H572 H 0.56373 0.08861 0.17272 0.0
H573 H 0.54464 0.15322 0.18008 0.0
H574 H 0.44667 0.16244 0.23873 0.0
H575 H 0.47654 0.15096 0.20731 0.0
H576 H 0.51263 0.10057 0.2541 0.0
C577 C 0.5746 0.10094 0.17502 0.0
C578 C 0.5378 0.14159 0.19615 0.0
C579 C 0.59462 0.09781 0.16398 0.0
C580 C 0.45807 0.15365 0.25237 0.0
C581 C 0.47521 0.14711 0.23433 0.0
C582 C 0.51948 0.11216 0.23798 0.0
C583 C 0.56874 0.11981 0.1889 0.0
C584 C 0.54786 0.12306 0.2022 0.0
C585 C 0.49058 0.13602 0.25109 0.0
C586 C 0.50976 0.13099 0.23284 0.0
H587 H 0.6139 0.14482 0.18286 0.0
H588 H 0.5792 0.15014 0.20224 0.0
H589 H 0.54582 0.09384 0.22807 0.0
H590 H 0.46953 0.13359 0.33109 0.0
H591 H 0.49973 0.12255 0.29972 0.0
C592 C 0.63762 0.96603 0.79724 0.0
C593 C 0.65085 0.95195 0.78169 0.0
C594 C 0.63084 0.98306 0.77898 0.0
C595 C 0.61265 0.01456 0.73063 0.0
H596 H 0.65475 0.04218 0.67837 0.0
C597 C 0.59858 0.09108 0.66051 0.0
C598 C 0.61379 0.1059 0.66545 0.0
C599 C 0.60188 0.07091 0.6706 0.0
C600 C 0.64283 0.03464 0.69286 0.0
H601 H 0.66626 0.94396 0.7341 0.0
H602 H 0.65416 0.97345 0.70218 0.0
H603 H 0.66192 0.00919 0.70405 0.0
H604 H 0.64448 0.11101 0.68454 0.0
H605 H 0.65007 0.07605 0.70234 0.0
H606 H 0.59391 0.04059 0.72071 0.0
C607 C 0.64946 0.97163 0.72873 0.0
C608 C 0.64684 0.01561 0.70722 0.0
C609 C 0.65635 0.95471 0.74702 0.0
C610 C 0.63244 0.10003 0.68023 0.0
C611 C 0.63571 0.07992 0.69024 0.0
C612 C 0.60865 0.03366 0.71628 0.0
C613 C 0.63704 0.98625 0.74475 0.0
C614 C 0.63192 0.0055 0.72677 0.0
C615 C 0.62045 0.06517 0.6857 0.0
C616 C 0.62385 0.04406 0.69784 0.0
H617 H 0.63309 0.96433 0.8239 0.0
H618 H 0.62146 -0.00585 0.79218 0.0
H619 H 0.60078 0.00703 0.74522 0.0
H620 H 0.58404 0.09506 0.64917 0.0
H621 H 0.5899 0.05981 0.66655 0.0
C622 C 0.09485 0.36207 0.33238 0.0
C623 C 0.1023 0.38138 0.34166 0.0
C624 C 0.07464 0.35957 0.32258 0.0
C625 C 0.02925 0.35597 0.31707 0.0
H626 H 0.00825 0.39335 0.2484 0.0
C627 C 0.95418 0.33902 0.2483 0.0
C628 C 0.95447 0.34156 0.21239 0.0
C629 C 0.96952 0.34738 0.26869 0.0
C630 C 0.0139 0.38279 0.26758 0.0
H631 H 0.09413 0.41314 0.34884 0.0
H632 H 0.05853 0.40867 0.33167 0.0
H633 H 0.04048 0.40085 0.27709 0.0
H634 H 0.97062 0.3555 0.16978 0.0
H635 H -0.00211 0.36944 0.20521 0.0
H636 H 0.00356 0.33721 0.30615 0.0
C637 C 0.06853 0.39554 0.33186 0.0
C638 C 0.03221 0.38722 0.28434 0.0
C639 C 0.08886 0.39806 0.34184 0.0
C640 C 0.97002 0.35326 0.19739 0.0
C641 C 0.98555 0.3614 0.21777 0.0
C642 C 0.01107 0.35148 0.30023 0.0
C643 C 0.0613 0.37628 0.32183 0.0
C644 C 0.04036 0.37352 0.30848 0.0
C645 C 0.98567 0.35822 0.2536 0.0
C646 C 0.00345 0.36456 0.27462 0.0
H647 H 0.10474 0.34886 0.33201 0.0
H648 H 0.06965 0.3446 0.31443 0.0
H649 H 0.03501 0.34527 0.33596 0.0
H650 H 0.94216 0.33041 0.2607 0.0
H651 H 0.9689 0.34501 0.29627 0.0
C652 C 0.38732 0.90036 0.64803 0.0
C653 C 0.37139 0.88634 0.64315 0.0
C654 C 0.38306 0.92053 0.65686 0.0
C655 C 0.34311 0.95975 0.65853 0.0
H656 H 0.36939 0.97727 0.74284 0.0
C657 C 0.31146 0.02437 0.74341 0.0
C658 C 0.32514 0.03589 0.76321 0.0
C659 C 0.31851 0.00819 0.72333 0.0
C660 C 0.36223 0.97293 0.71882 0.0
H661 H 0.33852 0.88272 0.64185 0.0
H662 H 0.33116 0.91799 0.65705 0.0
H663 H 0.37951 0.94537 0.71628 0.0
H664 H 0.357 0.04058 0.77567 0.0
H665 H 0.36939 0.01292 0.73968 0.0
H666 H 0.32572 0.98727 0.66113 0.0
C667 C 0.34689 0.91333 0.65411 0.0
C668 C 0.36802 0.95459 0.70369 0.0
C669 C 0.35113 0.89312 0.64571 0.0
C670 C 0.34607 0.03168 0.76114 0.0
C671 C 0.35315 0.01578 0.74062 0.0
C672 C 0.33748 0.97828 0.67343 0.0
C673 C 0.36282 0.92709 0.66046 0.0
C674 C 0.35825 0.94765 0.6738 0.0
C675 C 0.33942 0.00346 0.72222 0.0
C676 C 0.3467 0.9849 0.70416 0.0
H677 H 0.40309 0.89562 0.64621 0.0
H678 H 0.39559 0.93092 0.6615 0.0
H679 H 0.33547 0.95475 0.63529 0.0
H680 H 0.29523 0.02729 0.7446 0.0
H681 H 0.30746 -0.00109 0.70986 0.0
C682 C 0.03307 0.64213 0.22109 0.0
C683 C 0.03985 0.66246 0.22154 0.0
C684 C 0.01548 0.63653 0.23892 0.0
C685 C 0.96724 0.65825 0.26239 0.0
H686 H 0.95978 0.61008 0.31881 0.0
C687 C 0.88962 0.63988 0.32175 0.0
C688 C 0.88348 0.61941 0.32258 0.0
C689 C 0.90957 0.64501 0.31323 0.0
C690 C 0.96158 0.62346 0.30277 0.0
H691 H 0.03418 0.69257 0.24263 0.0
H692 H 0.00329 0.68275 0.27329 0.0
H693 H 0.99388 0.61907 0.29838 0.0
H694 H 0.89337 0.5882 0.31523 0.0
H695 H 0.9281 0.59718 0.29885 0.0
H696 H 0.93508 0.66229 0.2651 0.0
C697 C 0.01162 0.67124 0.2591 0.0
C698 C 0.98109 0.62864 0.29134 0.0
C699 C 0.02932 0.67681 0.24164 0.0
C700 C 0.89773 0.60411 0.31489 0.0
C701 C 0.91766 0.60927 0.30577 0.0
C702 C 0.94776 0.65293 0.27333 0.0
C703 C 0.00429 0.65119 0.25715 0.0
C704 C 0.98403 0.64609 0.27109 0.0
C705 C 0.92378 0.62981 0.30468 0.0
C706 C 0.94467 0.63548 0.29367 0.0
H707 H 0.04096 0.63069 0.20608 0.0
H708 H 0.01005 0.62099 0.23696 0.0
H709 H 0.96909 0.67156 0.24618 0.0
H710 H 0.87905 0.65199 0.32812 0.0
H711 H 0.91386 0.66094 0.31347 0.0
C712 C 0.64414 0.02183 0.19823 0.0
C713 C 0.65864 0.03463 0.21375 0.0
C714 C 0.63709 0.00453 0.21534 0.0
C715 C 0.65314 0.96831 0.28171 0.0
H716 H 0.59809 0.9478 0.27105 0.0
C717 C 0.60081 0.89521 0.32638 0.0
C718 C 0.61483 0.87951 0.31953 0.0
C719 C 0.60523 0.91529 0.31712 0.0
C720 C 0.61345 0.95344 0.27467 0.0
H721 H 0.67631 0.03984 0.2602 0.0
H722 H 0.66376 0.00977 0.29018 0.0
H723 H 0.60663 0.98169 0.24968 0.0
H724 H 0.64442 0.87266 0.29732 0.0
H725 H 0.6519 0.90752 0.28081 0.0
H726 H 0.65997 0.94014 0.30674 0.0
C727 C 0.65818 0.01292 0.26448 0.0
C728 C 0.61839 0.97275 0.26211 0.0
C729 C 0.66532 0.03018 0.24732 0.0
C730 C 0.63331 0.88435 0.30319 0.0
C731 C 0.63768 0.90438 0.29392 0.0
C732 C 0.64819 0.94906 0.29432 0.0
C733 C 0.64428 -0.0003 0.24841 0.0
C734 C 0.63839 0.98022 0.26492 0.0
C735 C 0.62373 0.92008 0.30084 0.0
C736 C 0.62841 0.94125 0.2903 0.0
H737 H 0.63865 0.02479 0.17242 0.0
H738 H 0.62658 -0.00547 0.20205 0.0
H739 H 0.66873 0.97352 0.28401 0.0
H740 H 0.58645 0.89203 0.33902 0.0
H741 H 0.59424 0.9271 0.32301 0.0
C742 C 0.8888 0.35377 0.66481 0.0
C743 C 0.88229 0.37409 0.66173 0.0
C744 C 0.90899 0.34934 0.67313 0.0
C745 C 0.9518 0.3702 0.71977 0.0
H746 H 0.98323 0.32828 0.67363 0.0
C747 C 0.0312 0.3493 0.76853 0.0
C748 C 0.0356 0.32841 0.77052 0.0
C749 C 0.01455 0.35617 0.74954 0.0
C750 C 0.97461 0.33992 0.68693 0.0
H751 H 0.89192 0.40569 0.66455 0.0
H752 H 0.92716 0.39786 0.6797 0.0
H753 H 0.9497 0.33771 0.65139 0.0
H754 H 0.02661 0.29836 0.75309 0.0
H755 H -0.00297 0.31022 0.72099 0.0
H756 H 0.97596 0.37184 0.7563 0.0
C757 C 0.91659 0.38543 0.67546 0.0
C758 C 0.95548 0.34535 0.67411 0.0
C759 C 0.89646 0.38988 0.66671 0.0
C760 C 0.02358 0.31457 0.75191 0.0
C761 C 0.00669 0.32141 0.73336 0.0
C762 C 0.97076 0.36461 0.73283 0.0
C763 C 0.92299 0.36513 0.67894 0.0
C764 C 0.94385 0.36039 0.69065 0.0
C765 C 0.00169 0.34225 0.73265 0.0
C766 C 0.98233 0.34926 0.7168 0.0
H767 H 0.87828 0.34126 0.66094 0.0
H768 H 0.91352 0.33356 0.67602 0.0
H769 H 0.94299 0.38164 0.73327 0.0
H770 H 0.04043 0.36034 0.7822 0.0
H771 H 0.01148 0.37237 0.74878 0.0
C772 C 0.36071 0.08651 0.34286 0.0
C773 C 0.38033 0.09506 0.34309 0.0
C774 C 0.35797 0.06593 0.33546 0.0
C775 C 0.3801 0.02645 0.28381 0.0
H776 H 0.34094 0.99161 0.32992 0.0
C777 C 0.35556 0.9509 0.22292 0.0
C778 C 0.3345 0.94706 0.22328 0.0
C779 C 0.36389 0.96594 0.24402 0.0
C780 C 0.35187 0.00117 0.31669 0.0
H781 H 0.41254 0.08865 0.33693 0.0
H782 H 0.40764 0.05257 0.32311 0.0
H783 H 0.35078 0.02399 0.35611 0.0
H784 H 0.30577 0.95539 0.24689 0.0
H785 H 0.32013 0.98217 0.28271 0.0
H786 H 0.38033 0.00452 0.24333 0.0
C787 C 0.39446 0.06188 0.32897 0.0
C788 C 0.35758 0.0196 0.3318 0.0
C789 C 0.39724 0.08246 0.33691 0.0
C790 C 0.32205 0.95801 0.24608 0.0
C791 C 0.33035 0.97326 0.26683 0.0
C792 C 0.37424 0.00816 0.26849 0.0
C793 C 0.37477 0.05354 0.32774 0.0
C794 C 0.37135 0.03261 0.31505 0.0
C795 C 0.35132 0.97767 0.26557 0.0
C796 C 0.35964 -0.00445 0.28431 0.0
H797 H 0.34739 0.09581 0.34782 0.0
H798 H 0.34261 0.05993 0.33428 0.0
H799 H 0.39056 0.03634 0.27015 0.0
H800 H 0.36559 0.94244 0.20603 0.0
H801 H 0.38016 0.96862 0.24295 0.0
C802 C 0.09405 0.62736 0.65001 0.0
C803 C 0.10231 0.60763 0.6503 0.0
C804 C 0.07405 0.63067 0.66076 0.0
C805 C 0.03785 0.61114 0.72142 0.0
H806 H -0.0009 0.64607 0.6746 0.0
C807 C 0.96222 0.63395 0.78562 0.0
C808 C 0.95621 0.65433 0.78137 0.0
C809 C 0.97796 0.62585 0.76571 0.0
C810 C 0.00981 0.63641 0.68814 0.0
H811 H 0.09596 0.57579 0.66104 0.0
H812 H 0.06108 0.58174 0.68058 0.0
H813 H 0.03065 0.63635 0.64565 0.0
H814 H 0.96191 0.6822 0.75292 0.0
H815 H 0.98984 0.6684 0.71931 0.0
H816 H 0.01783 0.61207 0.76465 0.0
C817 C 0.07009 0.59454 0.67174 0.0
C818 C 0.02776 0.63076 0.67143 0.0
C819 C 0.08998 0.59117 0.66045 0.0
C820 C 0.96612 0.66639 0.75665 0.0
C821 C 0.98204 0.6584 0.73714 0.0
C822 C 0.02006 0.61702 0.73834 0.0
C823 C 0.06209 0.61435 0.67246 0.0
C824 C 0.04205 0.61836 0.68818 0.0
C825 C 0.98822 0.63805 0.7415 0.0
C826 C 0.00601 0.63005 0.72215 0.0
H827 H 0.10316 0.64032 0.64216 0.0
H828 H 0.06824 0.64612 0.66138 0.0
H829 H 0.04879 0.60174 0.73499 0.0
H830 H 0.95466 0.62421 0.80417 0.0
H831 H 0.9821 0.61003 0.76935 0.0
C832 C 0.21818 0.54713 0.55831 0.0
C833 C 0.21807 0.54447 0.59412 0.0
C834 C 0.23039 0.53494 0.53757 0.0
C835 C 0.24592 0.48319 0.53544 0.0
H836 H 0.26409 0.49999 0.44479 0.0
C837 C 0.23325 0.43077 0.42174 0.0
C838 C 0.22073 0.44086 0.39799 0.0
C839 C 0.24479 0.44198 0.44533 0.0
C840 C 0.25947 0.49495 0.47018 0.0
H841 H 0.23158 0.52798 0.63672 0.0
H842 H 0.25258 0.5059 0.6 0.0
H843 H 0.26363 0.52464 0.49184 0.0
H844 H 0.21113 0.47007 0.37822 0.0
H845 H 0.23113 0.48977 0.41927 0.0
H846 H 0.23988 0.4541 0.51321 0.0
C847 C 0.24337 0.51766 0.58817 0.0
C848 C 0.25925 0.50903 0.4971 0.0
C849 C 0.23134 0.53021 0.60909 0.0
C850 C 0.22083 0.46212 0.39636 0.0
C851 C 0.23245 0.47332 0.41967 0.0
C852 C 0.24614 0.46912 0.50854 0.0
C853 C 0.24257 0.51958 0.55213 0.0
C854 C 0.25095 0.50365 0.52919 0.0
C855 C 0.24395 0.46339 0.44526 0.0
C856 C 0.25142 0.47533 0.47507 0.0
H857 H 0.20831 0.55824 0.54617 0.0
H858 H 0.22914 0.53662 0.50991 0.0
H859 H 0.23947 0.47857 0.5599 0.0
H860 H 0.23323 0.41429 0.42326 0.0
H861 H 0.25351 0.43394 0.46473 0.0
C862 C 0.45135 0.75791 0.59901 0.0
C863 C 0.43813 0.77264 0.58517 0.0
C864 C 0.46336 0.74591 0.57715 0.0
C865 C 0.47178 0.73366 0.48419 0.0
H866 H 0.52813 0.7464 0.50473 0.0
C867 C 0.52491 0.77862 0.40191 0.0
C868 C 0.54378 0.7706 0.39199 0.0
C869 C 0.51233 0.76772 0.42407 0.0
C870 C 0.5126 0.74197 0.49892 0.0
H871 H 0.42572 0.78514 0.53794 0.0
H872 H 0.44651 0.76461 0.50018 0.0
H873 H 0.50308 0.7464 0.55095 0.0
H874 H 0.56437 0.74492 0.39682 0.0
H875 H 0.54252 0.72619 0.43759 0.0
H876 H 0.481 0.73208 0.43137 0.0
C877 C 0.44774 0.76208 0.52766 0.0
C878 C 0.49821 0.74194 0.5254 0.0
C879 C 0.43604 0.77416 0.54935 0.0
C880 C 0.54977 0.75131 0.4041 0.0
C881 C 0.53736 0.74061 0.42718 0.0
C882 C 0.4861 0.734 0.4577 0.0
C883 C 0.46199 0.74825 0.54122 0.0
C884 C 0.47743 0.73945 0.51772 0.0
C885 C 0.5186 0.74884 0.43729 0.0
C886 C 0.50629 0.73957 0.46469 0.0
H887 H 0.4531 0.75635 0.62661 0.0
H888 H 0.47424 0.7354 0.58827 0.0
H889 H 0.45591 0.73121 0.47773 0.0
H890 H 0.51996 0.79341 0.39275 0.0
H891 H 0.49801 0.77444 0.43208 0.0
C892 C 0.77571 0.44273 0.55854 0.0
C893 C 0.77157 0.44299 0.59396 0.0
C894 C 0.7643 0.45456 0.53601 0.0
C895 C 0.74123 0.50351 0.53582 0.0
H896 H 0.73824 0.49004 0.43875 0.0
C897 C 0.78278 0.54771 0.43645 0.0
C898 C 0.77585 0.54972 0.40245 0.0
C899 C 0.77126 0.53718 0.46065 0.0
C900 C 0.73827 0.49418 0.46575 0.0
H901 H 0.75143 0.45478 0.63345 0.0
H902 H 0.73174 0.47626 0.59378 0.0
H903 H 0.73585 0.46306 0.48155 0.0
H904 H 0.75104 0.54287 0.36737 0.0
H905 H 0.73109 0.52371 0.40984 0.0
H906 H 0.74521 0.53444 0.5199 0.0
C907 C 0.74373 0.46666 0.5836 0.0
C908 C 0.73703 0.4787 0.49027 0.0
C909 C 0.75504 0.45449 0.60624 0.0
C910 C 0.75683 0.54142 0.39337 0.0
C911 C 0.74536 0.53059 0.41763 0.0
C912 C 0.74233 0.519 0.51131 0.0
C913 C 0.74858 0.46712 0.54835 0.0
C914 C 0.74038 0.48307 0.52525 0.0
C915 C 0.75258 0.52826 0.45145 0.0
C916 C 0.74268 0.5142 0.47607 0.0
H917 H 0.78812 0.43372 0.54824 0.0
H918 H 0.76873 0.45482 0.50915 0.0
H919 H 0.74364 0.50741 0.5626 0.0
H920 H 0.79721 0.55416 0.44445 0.0
H921 H 0.77751 0.53526 0.48627 0.0
C922 C 0.43548 0.21325 0.43775 0.0
C923 C 0.43783 0.21361 0.40185 0.0
C924 C 0.44819 0.22487 0.45868 0.0
C925 C 0.50039 0.23759 0.45908 0.0
H926 H 0.48736 0.25914 0.54933 0.0
C927 C 0.55714 0.22617 0.56638 0.0
C928 C 0.54821 0.21809 0.59613 0.0
C929 C 0.54525 0.23668 0.54247 0.0
C930 C 0.49132 0.25323 0.52419 0.0
H931 H 0.45414 0.22755 0.35942 0.0
H932 H 0.47701 0.24741 0.39634 0.0
H933 H 0.46111 0.25802 0.50481 0.0
H934 H 0.52051 0.21539 0.62579 0.0
H935 H 0.49933 0.23253 0.58329 0.0
H936 H 0.52973 0.23063 0.47885 0.0
C937 C 0.46513 0.23833 0.40812 0.0
C938 C 0.47634 0.2528 0.49864 0.0
C939 C 0.45211 0.22694 0.38707 0.0
C940 C 0.52759 0.22161 0.60287 0.0
C941 C 0.51555 0.23164 0.57858 0.0
C942 C 0.51524 0.23769 0.48469 0.0
C943 C 0.4637 0.23683 0.44413 0.0
C944 C 0.48047 0.24391 0.46652 0.0
C945 C 0.52408 0.23861 0.54738 0.0
C946 C 0.51054 0.24437 0.51821 0.0
H947 H 0.42438 0.20331 0.44975 0.0
H948 H 0.44689 0.22321 0.48634 0.0
H949 H 0.50398 0.23053 0.43461 0.0
H950 H 0.57316 0.22372 0.56108 0.0
H951 H 0.55248 0.24231 0.5193 0.0
C952 C 0.73036 0.05766 0.06768 0.0
C953 C 0.72166 0.04869 0.09688 0.0
C954 C 0.74054 0.04565 0.04355 0.0
C955 C 0.75486 0.99131 0.02375 0.0
H956 H 0.73248 0.00558 0.9346 0.0
C957 C 0.71278 0.93752 0.9361 0.0
C958 C 0.71423 0.93935 0.9002 0.0
C959 C 0.72422 0.95011 0.95748 0.0
C960 C 0.73943 0.00153 0.95897 0.0
H961 H 0.71754 0.02075 0.12542 0.0
H962 H 0.7342 -0.00056 0.08264 0.0
H963 H 0.73384 0.03102 0.9794 0.0
H964 H 0.72961 0.9549 0.85835 0.0
H965 H 0.74909 0.97769 0.89605 0.0
H966 H 0.75821 0.96105 0.00377 0.0
C967 C 0.73403 0.01574 0.0785 0.0
C968 C 0.74027 0.01618 0.98486 0.0
C969 C 0.72427 0.02786 0.10296 0.0
C970 C 0.72816 0.95327 0.886 0.0
C971 C 0.73934 0.96621 0.90746 0.0
C972 C 0.75367 0.97654 -0.00205 0.0
C973 C 0.74156 0.02436 0.04776 0.0
C974 C 0.74683 0.01093 0.01823 0.0
C975 C 0.7371 0.96502 0.94336 0.0
C976 C 0.74487 0.98131 0.96601 0.0
H977 H 0.72856 0.07383 0.06288 0.0
H978 H 0.74659 0.0529 0.02069 0.0
H979 H 0.76065 0.98691 0.04878 0.0
H980 H 0.70236 0.9267 0.94769 0.0
H981 H 0.72196 0.94908 0.98505 0.0
C982 C 0.94105 0.2763 0.05727 0.0
C983 C 0.9436 0.27483 0.09302 0.0
C984 C 0.95182 0.26358 0.03527 0.0
C985 C 0.00094 0.24118 0.0296 0.0
H986 H 0.98006 0.22988 0.93819 0.0
C987 C 0.04998 0.25103 0.90837 0.0
C988 C 0.04221 0.26891 0.89342 0.0
C989 C 0.03812 0.23988 0.93167 0.0
C990 C 0.98618 0.23222 0.96379 0.0
H991 H 0.9586 0.25819 0.13403 0.0
H992 H 0.97828 0.2362 0.09502 0.0
H993 H 0.95671 0.23079 0.98704 0.0
H994 H 0.01587 0.28851 0.88875 0.0
H995 H -0.00511 0.26873 0.92838 0.0
H996 H 0.03013 0.24444 0.00571 0.0
C997 C 0.96765 0.2471 0.08427 0.0
C998 C 0.97285 0.23285 0.9917 0.0
C999 C 0.95651 0.25971 0.10649 0.0
C1000 C 0.02211 0.27479 0.90013 0.0
C1001 C 0.01011 0.26336 0.92246 0.0
C1002 C 0.01433 0.2403 0.0017 0.0
C1003 C 0.9656 0.24916 0.0484 0.0
C1004 C 0.97987 0.2392 0.02418 0.0
C1005 C 0.01817 0.24617 0.93914 0.0
C1006 C 0.0067 0.23753 0.96827 0.0
H1007 H 0.93094 0.28758 0.04615 0.0
H1008 H 0.95017 0.26591 0.00779 0.0
H1009 H 0.00682 0.246 0.05435 0.0
H1010 H 0.06555 0.24635 0.90355 0.0
H1011 H 0.04468 0.22685 0.94469 0.0
C1012 C 0.25123 0.03548 0.88658 0.0
C1013 C 0.26902 0.04581 0.89665 0.0
C1014 C 0.24002 0.02431 0.91078 0.0
C1015 C 0.23572 0.01408 0.00491 0.0
H1016 H 0.2406 0.95748 0.97798 0.0
C1017 C 0.25659 0.95195 0.1027 0.0
C1018 C 0.27519 0.94329 0.09222 0.0
C1019 C 0.24465 0.9629 0.07925 0.0
C1020 C 0.23857 0.97318 0.98586 0.0
H1021 H 0.28809 0.05405 0.94007 0.0
H1022 H 0.26881 0.03472 0.98187 0.0
H1023 H 0.23858 0.98368 0.93385 0.0
H1024 H 0.29538 0.93848 0.04871 0.0
H1025 H 0.2748 0.95752 0.00824 0.0
H1026 H 0.23828 0.00372 0.05689 0.0
C1027 C 0.26335 0.03513 0.95556 0.0
C1028 C 0.23724 0.9882 0.96057 0.0
C1029 C 0.27467 0.04589 0.93145 0.0
C1030 C 0.28129 0.94521 0.05776 0.0
C1031 C 0.26927 0.95579 0.03437 0.0
C1032 C 0.23714 -0.00094 0.03021 0.0
C1033 C 0.24621 0.02379 0.94541 0.0
C1034 C 0.2377 0.00884 0.96997 0.0
C1035 C 0.25093 0.9649 0.04486 0.0
C1036 C 0.24041 0.9787 0.02067 0.0
H1037 H 0.24647 0.03537 0.85988 0.0
H1038 H 0.22696 0.01556 0.90229 0.0
H1039 H 0.23562 0.02992 0.01274 0.0
H1040 H 0.25145 0.95058 0.1291 0.0
H1041 H 0.23068 0.96999 0.08801 0.0
C1042 C 0.94107 0.71396 0.93926 0.0
C1043 C 0.94263 0.71708 0.90366 0.0
C1044 C 0.95209 0.72599 0.96202 0.0
C1045 C 0.00076 0.74952 0.9666 0.0
H1046 H 0.98241 0.75611 0.06082 0.0
C1047 C 0.05302 0.73799 0.08496 0.0
C1048 C 0.04673 0.719 0.09793 0.0
C1049 C 0.04028 0.749 0.06285 0.0
C1050 C 0.98779 0.7551 0.0345 0.0
H1051 H 0.95607 0.73594 0.86384 0.0
H1052 H 0.97613 0.75675 0.90405 0.0
H1053 H 0.95761 0.75655 0.01402 0.0
H1054 H 0.0221 0.6971 0.09993 0.0
H1055 H -0.00038 0.71659 0.0623 0.0
H1056 H 0.03075 0.74624 0.98756 0.0
C1057 C 0.9661 0.74508 0.91415 0.0
C1058 C 0.97364 0.75524 0.00776 0.0
C1059 C 0.95473 0.73315 0.89124 0.0
C1060 C 0.02727 0.71165 0.09003 0.0
C1061 C 0.01438 0.72288 0.06888 0.0
C1062 C 0.01496 0.74965 0.99336 0.0
C1063 C 0.96512 0.74136 0.94975 0.0
C1064 C 0.97983 0.75059 0.97402 0.0
C1065 C 0.02091 0.74143 0.05463 0.0
C1066 C 0.0083 0.75076 0.02761 0.0
H1067 H 0.93161 0.70189 0.94962 0.0
H1068 H 0.95127 0.7224 0.9892 0.0
H1069 H 0.00601 0.74599 0.94084 0.0
H1070 H 0.06806 0.74386 0.09075 0.0
H1071 H 0.04565 0.76312 0.05163 0.0
C1072 C 0.15148 0.35032 0.22646 0.0
C1073 C 0.16873 0.36275 0.23084 0.0
C1074 C 0.14479 0.34508 0.19353 0.0
C1075 C 0.1493 0.36186 0.10273 0.0
H1076 H 0.12425 0.30955 0.08337 0.0
C1077 C 0.13439 0.33319 0.96584 0.0
C1078 C 0.11433 0.32707 0.95843 0.0
C1079 C 0.14045 0.33678 -0.00037 0.0
C1080 C 0.13107 0.32426 0.08862 0.0
H1081 H 0.19301 0.37868 0.20427 0.0
H1082 H 0.18186 0.36886 0.14685 0.0
H1083 H 0.13705 0.31673 0.14123 0.0
H1084 H 0.08504 0.31939 0.98081 0.0
H1085 H 0.09593 0.32534 0.04046 0.0
H1086 H 0.1439 0.36903 0.04977 0.0
C1087 C 0.17304 0.36374 0.16876 0.0
C1088 C 0.13836 0.32842 0.12169 0.0
C1089 C 0.17955 0.36925 0.20168 0.0
C1090 C 0.10057 0.32417 0.98573 0.0
C1091 C 0.10678 0.32747 0.01976 0.0
C1092 C 0.14231 0.35756 0.06965 0.0
C1093 C 0.15536 0.35191 0.16424 0.0
C1094 C 0.14764 0.34727 0.12912 0.0
C1095 C 0.1267 0.33408 0.02683 0.0
C1096 C 0.13321 0.33872 0.06231 0.0
H1097 H 0.14271 0.34521 0.24845 0.0
H1098 H 0.13096 0.3362 0.1911 0.0
H1099 H 0.15584 0.37672 0.10763 0.0
H1100 H 0.14538 0.33563 0.94545 0.0
H1101 H 0.15593 0.34172 0.00453 0.0
C1102 C 0.32574 0.8829 0.00814 0.0
C1103 C 0.32777 0.86862 0.03482 0.0
C1104 C 0.32827 0.87693 0.9739 0.0
C1105 C 0.33138 0.83087 0.91797 0.0
H1106 H 0.35871 0.86809 0.85568 0.0
C1107 C 0.36768 0.80791 0.78767 0.0
C1108 C 0.36176 0.81984 0.75935 0.0
C1109 C 0.36205 0.81356 0.82099 0.0
C1110 C 0.35094 0.85763 0.87282 0.0
H1111 H 0.33415 0.83698 0.04675 0.0
H1112 H 0.33942 0.82676 0.9874 0.0
H1113 H 0.35168 0.87873 0.91458 0.0
H1114 H 0.34536 0.84703 0.74366 0.0
H1115 H 0.33597 0.85709 0.80202 0.0
H1116 H 0.33154 0.8095 0.87623 0.0
C1117 C 0.33519 0.8424 0.99257 0.0
C1118 C 0.34678 0.86374 0.90647 0.0
C1119 C 0.3323 0.84829 0.02667 0.0
C1120 C 0.35005 0.83747 0.76496 0.0
C1121 C 0.34476 0.84329 0.79828 0.0
C1122 C 0.33589 0.82465 0.88448 0.0
C1123 C 0.33325 0.85664 0.96573 0.0
C1124 C 0.33698 0.85041 0.92952 0.0
C1125 C 0.35076 0.83142 0.8265 0.0
C1126 C 0.34571 0.83799 0.86172 0.0
H1127 H 0.32205 0.89865 0.0137 0.0
H1128 H 0.32627 0.88824 0.95388 0.0
H1129 H 0.32345 0.82034 0.93474 0.0
H1130 H 0.37666 0.79422 0.78407 0.0
H1131 H 0.3669 0.80425 0.84252 0.0
C1132 C 0.846 0.67042 0.9623 0.0
C1133 C 0.86634 0.66489 0.95568 0.0
C1134 C 0.83789 0.66862 0.99535 0.0
C1135 C 0.85202 0.66316 0.08687 0.0
H1136 H 0.79873 0.63806 0.09519 0.0
C1137 C 0.80335 0.61819 0.19607 0.0
C1138 C 0.80709 0.63084 0.22457 0.0
C1139 C 0.80844 0.62462 0.16289 0.0
C1140 C 0.81362 0.64508 0.09326 0.0
H1141 H 0.89424 0.65367 0.97896 0.0
H1142 H 0.87998 0.65035 0.03655 0.0
H1143 H 0.81273 0.64502 0.03822 0.0
H1144 H 0.81795 0.6607 0.24025 0.0
H1145 H 0.82656 0.67193 0.18236 0.0
H1146 H 0.85327 0.66251 0.14183 0.0
C1147 C 0.87039 0.65626 0.01618 0.0
C1148 C 0.82155 0.64926 0.06067 0.0
C1149 C 0.87852 0.65806 0.98311 0.0
C1150 C 0.81505 0.65046 0.21894 0.0
C1151 C 0.8201 0.65688 0.18579 0.0
C1152 C 0.84408 0.65899 0.11944 0.0
C1153 C 0.84991 0.66128 0.02254 0.0
C1154 C 0.84095 0.6581 0.05714 0.0
C1155 C 0.81731 0.64385 0.15753 0.0
C1156 C 0.8249 0.64969 0.12298 0.0
H1157 H 0.8362 0.6759 0.94187 0.0
H1158 H 0.82215 0.67289 -0.00041 0.0
H1159 H 0.86691 0.67018 0.08497 0.0
H1160 H 0.79724 0.60299 0.19944 0.0
H1161 H 0.80625 0.61415 0.14166 0.0
C1162 C 0.66949 0.11503 0.01506 0.0
C1163 C 0.66765 0.12753 0.04424 0.0
C1164 C 0.66651 0.12311 0.98219 0.0
C1165 C 0.63747 0.16113 0.9377 0.0
H1166 H 0.67565 0.15361 0.86265 0.0
C1167 C 0.61959 0.18995 0.80057 0.0
C1168 C 0.62572 0.17733 0.77328 0.0
C1169 C 0.62632 0.18604 0.83409 0.0
C1170 C 0.66469 0.15564 0.8832 0.0
H1171 H 0.66153 0.1583 0.06195 0.0
H1172 H 0.65579 0.17223 0.00441 0.0
H1173 H 0.68471 0.14217 0.92042 0.0
H1174 H 0.6434 0.15058 0.7597 0.0
H1175 H 0.65434 0.14329 0.81794 0.0
H1176 H 0.61694 0.17354 0.90058 0.0
C1177 C 0.65976 0.15628 0.00711 0.0
C1178 C 0.66999 0.1492 0.91625 0.0
C1179 C 0.66314 0.14832 0.03991 0.0
C1180 C 0.63861 0.16075 0.78013 0.0
C1181 C 0.64503 0.15665 0.81359 0.0
C1182 C 0.632 0.16722 0.90454 0.0
C1183 C 0.66127 0.1437 0.97806 0.0
C1184 C 0.65633 0.15173 0.94363 0.0
C1185 C 0.63902 0.16925 0.84103 0.0
C1186 C 0.64544 0.16431 0.87677 0.0
H1187 H 0.67303 0.09899 0.01764 0.0
H1188 H 0.66763 0.11313 0.96006 0.0
H1189 H 0.62664 0.16305 0.9585 0.0
H1190 H 0.60977 0.20292 0.79597 0.0
H1191 H 0.62161 0.19625 0.85449 0.0
C1192 C 0.15161 0.63673 0.76723 0.0
C1193 C 0.169 0.62457 0.76217 0.0
C1194 C 0.14594 0.6428 0.80029 0.0
C1195 C 0.16512 0.6518 0.88697 0.0
H1196 H 0.1099 0.64002 0.9164 0.0
C1197 C 0.14109 0.65691 0.02913 0.0
C1198 C 0.12111 0.66293 0.0371 0.0
C1199 C 0.14694 0.65371 0.99503 0.0
C1200 C 0.12526 0.64381 0.90849 0.0
H1201 H 0.19436 0.60972 0.78774 0.0
H1202 H 0.18458 0.62073 0.84557 0.0
H1203 H 0.1203 0.63209 0.85771 0.0
H1204 H 0.09174 0.67096 0.01547 0.0
H1205 H 0.10211 0.66608 0.95579 0.0
H1206 H 0.17008 0.66389 0.93734 0.0
C1207 C 0.17534 0.6254 0.82385 0.0
C1208 C 0.13122 0.63915 0.8749 0.0
C1209 C 0.18086 0.61903 0.79081 0.0
C1210 C 0.1072 0.66613 0.01016 0.0
C1211 C 0.11313 0.66321 0.97596 0.0
C1212 C 0.15909 0.65676 0.92042 0.0
C1213 C 0.1577 0.63713 0.82888 0.0
C1214 C 0.15124 0.64291 0.86399 0.0
C1215 C 0.13303 0.65675 0.96798 0.0
C1216 C 0.13914 0.6526 0.93176 0.0
H1217 H 0.14209 0.64118 0.74572 0.0
H1218 H 0.13233 0.65195 0.80354 0.0
H1219 H 0.18059 0.65505 0.87898 0.0
H1220 H 0.15214 0.65415 0.04932 0.0
H1221 H 0.16226 0.64836 0.99004 0.0
C1222 C 0.65024 0.812 0.21873 0.0
C1223 C 0.631 0.80304 0.22377 0.0
C1224 C 0.65704 0.81676 0.18562 0.0
C1225 C 0.64681 0.80798 0.09269 0.0
H1226 H 0.66989 0.86202 0.08236 0.0
C1227 C 0.66954 0.84016 0.95983 0.0
C1228 C 0.66354 0.86036 0.95322 0.0
C1229 C 0.66838 0.83213 0.99309 0.0
C1230 C 0.66344 0.8469 0.08481 0.0
H1231 H 0.60423 0.79126 0.19763 0.0
H1232 H 0.61595 0.79983 0.14012 0.0
H1233 H 0.66259 0.84894 0.13968 0.0
H1234 H 0.65199 0.88807 0.97669 0.0
H1235 H 0.64969 0.87398 0.03443 0.0
H1236 H 0.64678 0.80634 0.0377 0.0
C1237 C 0.6259 0.80296 0.16171 0.0
C1238 C 0.6595 0.83929 0.11769 0.0
C1239 C 0.61913 0.79815 0.19479 0.0
C1240 C 0.65676 0.87246 0.98079 0.0
C1241 C 0.65557 0.86441 0.014 0.0
C1242 C 0.65071 0.81561 0.05978 0.0
C1243 C 0.64475 0.81271 0.15679 0.0
C1244 C 0.65082 0.81987 0.122 0.0
C1245 C 0.66119 0.84411 0.02048 0.0
C1246 C 0.65874 0.83531 0.05545 0.0
H1247 H 0.65987 0.81584 0.24042 0.0
H1248 H 0.67178 0.82395 0.18264 0.0
H1249 H 0.64035 0.79286 0.09515 0.0
H1250 H 0.67499 0.83043 0.93927 0.0
H1251 H 0.67309 0.81652 -0.00267 0.0
C1252 C 0.82709 0.34865 0.77278 0.0
C1253 C 0.81014 0.36125 0.76699 0.0
C1254 C 0.83214 0.3425 0.80599 0.0
C1255 C 0.8238 0.3571 0.89682 0.0
H1256 H 0.85177 0.30602 0.9141 0.0
C1257 C 0.84511 0.32905 0.03232 0.0
C1258 C 0.86618 0.3263 0.03701 0.0
C1259 C 0.83703 0.3313 -0.0006 0.0
C1260 C 0.84397 0.3203 0.90948 0.0
H1261 H 0.78464 0.37656 0.79115 0.0
H1262 H 0.79291 0.36506 0.84922 0.0
H1263 H 0.83839 0.31317 0.85668 0.0
H1264 H 0.89518 0.32288 0.01091 0.0
H1265 H 0.88081 0.32636 0.9529 0.0
H1266 H 0.82902 0.36386 0.95001 0.0
C1267 C 0.80274 0.36051 0.82821 0.0
C1268 C 0.83639 0.32449 0.87666 0.0
C1269 C 0.79791 0.36701 0.79496 0.0
C1270 C 0.87892 0.32509 0.00802 0.0
C1271 C 0.87073 0.32696 0.97496 0.0
C1272 C 0.83101 0.3527 0.92973 0.0
C1273 C 0.82015 0.34848 0.83421 0.0
C1274 C 0.82652 0.34311 0.86977 0.0
C1275 C 0.8498 0.33045 0.97056 0.0
C1276 C 0.84139 0.33443 0.93613 0.0
H1277 H 0.83695 0.34414 0.75175 0.0
H1278 H 0.84589 0.33363 0.80955 0.0
H1279 H 0.81668 0.37174 0.89244 0.0
H1280 H 0.83489 0.33013 0.05414 0.0
H1281 H 0.82083 0.33393 -0.00355 0.0
C1282 C 0.33286 0.13739 0.95602 0.0
C1283 C 0.32782 0.11708 0.94841 0.0
C1284 C 0.33712 0.14325 0.98975 0.0
C1285 C 0.35226 0.12159 0.07386 0.0
H1286 H 0.33681 0.17496 0.10794 0.0
C1287 C 0.35673 0.14405 0.21656 0.0
C1288 C 0.36689 0.16239 0.22393 0.0
C1289 C 0.3519 0.13893 0.18274 0.0
C1290 C 0.34132 0.16008 0.09857 0.0
H1291 H 0.32253 0.08714 0.97028 0.0
H1292 H 0.32927 0.0975 0.02938 0.0
H1293 H 0.32745 0.16498 0.04948 0.0
H1294 H 0.37969 0.18989 0.20173 0.0
H1295 H 0.37085 0.181 0.14235 0.0
H1296 H 0.36563 0.11658 0.1234 0.0
C1297 C 0.33058 0.10878 0.00915 0.0
C1298 C 0.33603 0.15436 0.06513 0.0
C1299 C 0.3266 0.10285 0.97532 0.0
C1300 C 0.37192 0.17563 0.1968 0.0
C1301 C 0.36679 0.17062 0.16293 0.0
C1302 C 0.35728 0.12722 0.10739 0.0
C1303 C 0.33616 0.12898 0.0167 0.0
C1304 C 0.34146 0.13504 0.05238 0.0
C1305 C 0.35688 0.15216 0.15569 0.0
C1306 C 0.35186 0.14649 0.11998 0.0
H1307 H 0.33406 0.14867 0.93577 0.0
H1308 H 0.34166 0.15885 0.99452 0.0
H1309 H 0.35709 0.10679 0.06467 0.0
H1310 H 0.35272 0.13347 0.23688 0.0
H1311 H 0.34411 0.12468 0.17774 0.0
C1312 C 0.60452 0.83488 0.47474 0.0
C1313 C 0.61791 0.82628 0.45053 0.0
C1314 C 0.6109 0.83827 0.50859 0.0
C1315 C 0.64917 0.82301 0.57294 0.0
H1316 H 0.63823 0.87609 0.61272 0.0
C1317 C 0.66421 0.84303 0.71583 0.0
C1318 C 0.67286 0.86222 0.72264 0.0
C1319 C 0.65815 0.83783 0.68251 0.0
C1320 C 0.6415 0.86125 0.60185 0.0
H1321 H 0.64828 0.81385 0.44325 0.0
H1322 H 0.6593 0.81975 0.50222 0.0
H1323 H 0.62561 0.86813 0.55517 0.0
H1324 H 0.68244 0.89077 0.69945 0.0
H1325 H 0.67187 0.88163 0.64134 0.0
H1326 H 0.66522 0.81621 0.61957 0.0
C1327 C 0.6439 0.82386 0.49503 0.0
C1328 C 0.63406 0.85661 0.56912 0.0
C1329 C 0.6376 0.82062 0.46117 0.0
C1330 C 0.67583 0.87587 0.69517 0.0
C1331 C 0.66963 0.87071 0.66191 0.0
C1332 C 0.65647 0.8276 0.60582 0.0
C1333 C 0.63071 0.83295 0.51896 0.0
C1334 C 0.63791 0.83749 0.55427 0.0
C1335 C 0.66049 0.85176 0.65535 0.0
C1336 C 0.65281 0.84681 0.6205 0.0
H1337 H 0.58925 0.83938 0.46742 0.0
H1338 H 0.60035 0.84511 0.52665 0.0
H1339 H 0.65225 0.80811 0.56217 0.0
H1340 H 0.66173 0.83213 0.73635 0.0
H1341 H 0.65104 0.82316 0.67821 0.0
C1342 C 0.82877 0.34741 0.53148 0.0
C1343 C 0.82426 0.36789 0.5386 0.0
C1344 C 0.83207 0.34104 0.49772 0.0
C1345 C 0.84591 0.36184 0.41239 0.0
H1346 H 0.8324 0.30726 0.38151 0.0
C1347 C 0.85231 0.33616 0.27159 0.0
C1348 C 0.86487 0.31911 0.26619 0.0
C1349 C 0.84618 0.34145 0.30469 0.0
C1350 C 0.83629 0.3225 0.38999 0.0
H1351 H 0.81858 0.39755 0.51606 0.0
H1352 H 0.82346 0.38628 0.45688 0.0
H1353 H 0.82246 0.31819 0.43925 0.0
H1354 H 0.88041 0.29392 0.29104 0.0
H1355 H 0.8692 0.30305 0.34926 0.0
H1356 H 0.8592 0.36622 0.36263 0.0
C1357 C 0.82523 0.37527 0.47742 0.0
C1358 C 0.83069 0.32877 0.423 0.0
C1359 C 0.8223 0.38172 0.51127 0.0
C1360 C 0.87079 0.30717 0.2945 0.0
C1361 C 0.86433 0.31229 0.32766 0.0
C1362 C 0.85115 0.35568 0.37924 0.0
C1363 C 0.83059 0.35494 0.4703 0.0
C1364 C 0.83557 0.34848 0.43468 0.0
C1365 C 0.85222 0.32963 0.33293 0.0
C1366 C 0.84648 0.33596 0.36792 0.0
H1367 H 0.83052 0.33644 0.55211 0.0
H1368 H 0.83648 0.32536 0.49334 0.0
H1369 H 0.85036 0.37694 0.42069 0.0
H1370 H 0.84758 0.34573 0.25031 0.0
H1371 H 0.83677 0.35485 0.30829 0.0
C1372 C 0.2902 0.12245 0.6955 0.0
C1373 C 0.30273 0.12869 0.72281 0.0
C1374 C 0.29427 0.12895 0.66195 0.0
C1375 C 0.32663 0.165 0.61095 0.0
H1376 H 0.32091 0.12353 0.54053 0.0
C1377 C 0.37178 0.16177 0.48283 0.0
C1378 C 0.36004 0.15891 0.45299 0.0
C1379 C 0.36266 0.16079 0.51528 0.0
C1380 C 0.32238 0.1353 0.55992 0.0
H1381 H 0.32905 0.14697 0.73661 0.0
H1382 H 0.33664 0.15752 0.67833 0.0
H1383 H 0.30815 0.11693 0.59824 0.0
H1384 H 0.32955 0.153 0.43365 0.0
H1385 H 0.31384 0.15073 0.49042 0.0
H1386 H 0.34205 0.18277 0.57261 0.0
C1387 C 0.32328 0.1482 0.68261 0.0
C1388 C 0.31494 0.13163 0.59294 0.0
C1389 C 0.319 0.14201 0.71613 0.0
C1390 C 0.339 0.15533 0.45617 0.0
C1391 C 0.32999 0.15398 0.48856 0.0
C1392 C 0.33444 0.16848 0.57805 0.0
C1393 C 0.31118 0.14149 0.65499 0.0
C1394 C 0.31719 0.14632 0.61903 0.0
C1395 C 0.34178 0.15656 0.51831 0.0
C1396 C 0.33253 0.15357 0.55246 0.0
H1397 H 0.27743 0.11234 0.69997 0.0
H1398 H 0.28435 0.12385 0.64141 0.0
H1399 H 0.32826 0.17684 0.63015 0.0
H1400 H 0.388 0.16466 0.48111 0.0
H1401 H 0.37202 0.16269 0.53803 0.0
C1402 C 0.15648 0.60709 0.50578 0.0
C1403 C 0.16528 0.61902 0.53191 0.0
C1404 C 0.15451 0.61476 0.47244 0.0
C1405 C 0.17263 0.65408 0.4122 0.0
H1406 H 0.11867 0.6485 0.37262 0.0
C1407 C 0.15143 0.67296 0.27027 0.0
C1408 C 0.13258 0.68269 0.26493 0.0
C1409 C 0.15723 0.66672 0.30326 0.0
C1410 C 0.13378 0.65029 0.38343 0.0
H1411 H 0.17986 0.648 0.54295 0.0
H1412 H 0.1764 0.66132 0.48463 0.0
H1413 H 0.1259 0.63349 0.42865 0.0
H1414 H 0.10567 0.69459 0.29056 0.0
H1415 H 0.11583 0.68367 0.34786 0.0
H1416 H 0.18041 0.67098 0.36675 0.0
C1417 C 0.17103 0.64605 0.49007 0.0
C1418 C 0.13798 0.64149 0.41529 0.0
C1419 C 0.17288 0.63845 0.52352 0.0
C1420 C 0.12021 0.687 0.29358 0.0
C1421 C 0.12596 0.68066 0.32644 0.0
C1422 C 0.16847 0.66275 0.38005 0.0
C1423 C 0.16142 0.63445 0.46442 0.0
C1424 C 0.15742 0.64332 0.43004 0.0
C1425 C 0.14425 0.66999 0.33146 0.0
C1426 C 0.14894 0.66103 0.36552 0.0
H1427 H 0.15056 0.59203 0.51125 0.0
H1428 H 0.14728 0.6054 0.45299 0.0
H1429 H 0.18777 0.65565 0.423 0.0
H1430 H 0.16138 0.66947 0.24883 0.0
H1431 H 0.1714 0.65848 0.30644 0.0
C1432 C 0.61555 0.16707 0.51472 0.0
C1433 C 0.62789 0.16513 0.54409 0.0
C1434 C 0.62388 0.1645 0.48194 0.0
C1435 C 0.66254 0.13636 0.43752 0.0
H1436 H 0.65527 0.17522 0.36336 0.0
C1437 C 0.69271 0.12002 0.30087 0.0
C1438 C 0.68021 0.12616 0.27343 0.0
C1439 C 0.68851 0.12651 0.33439 0.0
C1440 C 0.65724 0.16409 0.38366 0.0
H1441 H 0.65862 0.15925 0.56223 0.0
H1442 H 0.67299 0.15422 0.50484 0.0
H1443 H 0.64321 0.18357 0.42108 0.0
H1444 H 0.65341 0.14368 0.25954 0.0
H1445 H 0.6456 0.15422 0.3178 0.0
H1446 H 0.6755 0.11635 0.40017 0.0
C1447 C 0.65698 0.15795 0.50733 0.0
C1448 C 0.65044 0.16897 0.41668 0.0
C1449 C 0.64876 0.16091 0.54005 0.0
C1450 C 0.66348 0.13888 0.28011 0.0
C1451 C 0.65909 0.14507 0.31357 0.0
C1452 C 0.66899 0.1313 0.40439 0.0
C1453 C 0.64457 0.15957 0.4781 0.0
C1454 C 0.65289 0.15506 0.44373 0.0
C1455 C 0.67152 0.13898 0.34119 0.0
C1456 C 0.66619 0.145 0.37694 0.0
H1457 H 0.59945 0.1704 0.51709 0.0
H1458 H 0.61404 0.1657 0.45964 0.0
H1459 H 0.6644 0.12535 0.45806 0.0
H1460 H 0.7058 0.11032 0.2964 0.0
H1461 H 0.6986 0.12177 0.35494 0.0
C1462 C 0.12249 0.30059 0.70164 0.0
C1463 C 0.12943 0.31067 0.73133 0.0
C1464 C 0.1293 0.30664 0.6691 0.0
C1465 C 0.14522 0.35155 0.62354 0.0
H1466 H 0.1667 0.31485 0.55434 0.0
C1467 C 0.16792 0.3809 0.48907 0.0
C1468 C 0.16341 0.36818 0.46104 0.0
C1469 C 0.16635 0.37353 0.52275 0.0
C1470 C 0.16049 0.32529 0.5732 0.0
H1471 H 0.14928 0.3347 0.7502 0.0
H1472 H 0.16073 0.34544 0.69334 0.0
H1473 H 0.15875 0.30192 0.61172 0.0
H1474 H 0.15364 0.33784 0.44625 0.0
H1475 H 0.15004 0.32533 0.50459 0.0
H1476 H 0.14585 0.37471 0.58502 0.0
C1477 C 0.15019 0.33279 0.69538 0.0
C1478 C 0.15607 0.31785 0.60605 0.0
C1479 C 0.1437 0.32654 0.72787 0.0
C1480 C 0.15743 0.34797 0.46731 0.0
C1481 C 0.15551 0.34074 0.50087 0.0
C1482 C 0.14926 0.35892 0.59055 0.0
C1483 C 0.14284 0.32307 0.66575 0.0
C1484 C 0.14833 0.33092 0.63139 0.0
C1485 C 0.15987 0.35342 0.52909 0.0
C1486 C 0.15681 0.34585 0.56483 0.0
H1487 H 0.11154 0.28829 0.7035 0.0
H1488 H 0.12337 0.299 0.64649 0.0
H1489 H 0.13905 0.36186 0.64267 0.0
H1490 H 0.17275 0.39649 0.48498 0.0
H1491 H 0.17021 0.38364 0.54379 0.0
C1492 C 0.3407 0.81412 0.52307 0.0
C1493 C 0.36071 0.82088 0.52923 0.0
C1494 C 0.33259 0.81447 0.48986 0.0
C1495 C 0.34658 0.81905 0.3979 0.0
H1496 H 0.29297 0.8433 0.3888 0.0
C1497 C 0.29999 0.86684 0.29067 0.0
C1498 C 0.30449 0.85537 0.26109 0.0
C1499 C 0.30414 0.85906 0.32334 0.0
C1500 C 0.30792 0.83645 0.39095 0.0
H1501 H 0.38812 0.83262 0.50503 0.0
H1502 H 0.37388 0.8335 0.44728 0.0
H1503 H 0.30655 0.83609 0.44592 0.0
H1504 H 0.31571 0.82617 0.24279 0.0
H1505 H 0.32274 0.81257 0.29988 0.0
H1506 H 0.34843 0.82038 0.34305 0.0
C1507 C 0.36453 0.82771 0.46808 0.0
C1508 C 0.31562 0.83212 0.42363 0.0
C1509 C 0.37265 0.82735 0.50125 0.0
C1510 C 0.31225 0.83552 0.265 0.0
C1511 C 0.31636 0.82773 0.2977 0.0
C1512 C 0.3389 0.82339 0.36524 0.0
C1513 C 0.34432 0.82156 0.46212 0.0
C1514 C 0.33522 0.82381 0.42745 0.0
C1515 C 0.31281 0.83961 0.32715 0.0
C1516 C 0.31969 0.83257 0.36146 0.0
H1517 H 0.33112 0.80886 0.54396 0.0
H1518 H 0.31706 0.8094 0.48596 0.0
H1519 H 0.36163 0.8124 0.40005 0.0
H1520 H 0.29398 0.88216 0.28865 0.0
H1521 H 0.30143 0.86868 0.34552 0.0
C1522 C 0.85449 0.65732 0.71905 0.0
C1523 C 0.86649 0.67456 0.72588 0.0
C1524 C 0.84915 0.65233 0.68537 0.0
C1525 C 0.86442 0.66209 0.59504 0.0
H1526 H 0.81306 0.63525 0.57532 0.0
C1527 C 0.83564 0.64537 0.45762 0.0
C1528 C 0.83084 0.62482 0.4514 0.0
C1529 C 0.83907 0.65222 0.49109 0.0
C1530 C 0.82746 0.6427 0.58061 0.0
H1531 H 0.88178 0.7005 0.70296 0.0
H1532 H 0.87176 0.6923 0.64413 0.0
H1533 H 0.82027 0.64685 0.63375 0.0
H1534 H 0.8253 0.59547 0.4753 0.0
H1535 H 0.83087 0.60768 0.53415 0.0
H1536 H 0.87125 0.65832 0.54149 0.0
C1537 C 0.867 0.68222 0.66469 0.0
C1538 C 0.83167 0.64926 0.61403 0.0
C1539 C 0.87265 0.68702 0.6984 0.0
C1540 C 0.82908 0.61135 0.47936 0.0
C1541 C 0.83214 0.61833 0.51294 0.0
C1542 C 0.86003 0.65585 0.56153 0.0
C1543 C 0.85538 0.66467 0.65772 0.0
C1544 C 0.85033 0.65882 0.62177 0.0
C1545 C 0.83738 0.63875 0.51895 0.0
C1546 C 0.84162 0.64592 0.55417 0.0
H1547 H 0.84969 0.64728 0.73966 0.0
H1548 H 0.84058 0.63848 0.68103 0.0
H1549 H 0.87909 0.66902 0.60007 0.0
H1550 H 0.83717 0.65608 0.43657 0.0
H1551 H 0.843 0.66806 0.49523 0.0
C1552 C 0.32818 0.2269 0.33988 0.0
C1553 C 0.34952 0.22783 0.33997 0.0
C1554 C 0.31674 0.24403 0.34816 0.0
C1555 C 0.31917 0.29973 0.35186 0.0
H1556 H 0.26701 0.29146 0.39644 0.0
C1557 C 0.23689 0.34182 0.38168 0.0
C1558 C 0.23496 0.35171 0.34988 0.0
C1559 C 0.2543 0.33052 0.38909 0.0
C1560 C 0.2817 0.29435 0.38478 0.0
H1561 H 0.37569 0.24733 0.34903 0.0
H1562 H 0.35558 0.2773 0.36412 0.0
H1563 H 0.29129 0.26386 0.39453 0.0
H1564 H 0.24979 0.35853 0.30146 0.0
H1565 H 0.27958 0.33767 0.31316 0.0
H1566 H 0.30965 0.33036 0.34253 0.0
C1567 C 0.34774 0.26338 0.35712 0.0
C1568 C 0.29551 0.27832 0.38315 0.0
C1569 C 0.35923 0.24625 0.34844 0.0
C1570 C 0.25098 0.3509 0.32612 0.0
C1571 C 0.26816 0.33915 0.3331 0.0
C1572 C 0.30548 0.31593 0.35407 0.0
C1573 C 0.32638 0.26239 0.35721 0.0
C1574 C 0.31389 0.28053 0.36512 0.0
C1575 C 0.26981 0.32841 0.36436 0.0
C1576 C 0.28618 0.31311 0.36904 0.0
H1577 H 0.32027 0.21297 0.33318 0.0
H1578 H 0.3003 0.24291 0.34698 0.0
H1579 H 0.3333 0.30195 0.33798 0.0
H1580 H 0.22485 0.3427 0.40072 0.0
H1581 H 0.2553 0.32294 0.41379 0.0
C1582 C 0.2371 0.64992 0.6273 0.0
C1583 C 0.23682 0.63154 0.64578 0.0
C1584 C 0.25545 0.65975 0.62061 0.0
C1585 C 0.30501 0.66662 0.65855 0.0
H1586 H 0.31399 0.69856 0.57591 0.0
C1587 C 0.36232 0.73263 0.65577 0.0
C1588 C 0.35315 0.7509 0.64484 0.0
C1589 C 0.35284 0.71397 0.64958 0.0
C1590 C 0.31181 0.68954 0.59898 0.0
H1591 H 0.2557 0.60866 0.67067 0.0
H1592 H 0.28781 0.62611 0.65926 0.0
H1593 H 0.288 0.67193 0.57601 0.0
H1594 H 0.32728 0.76382 0.61766 0.0
H1595 H 0.31067 0.73138 0.6074 0.0
H1596 H 0.32788 0.68504 0.68221 0.0
C1597 C 0.27375 0.63281 0.65002 0.0
C1598 C 0.29699 0.67436 0.59904 0.0
C1599 C 0.25537 0.6229 0.65658 0.0
C1600 C 0.33466 0.75007 0.62671 0.0
C1601 C 0.32529 0.73145 0.62038 0.0
C1602 C 0.31983 0.68181 0.65849 0.0
C1603 C 0.27391 0.65144 0.63234 0.0
C1604 C 0.29278 0.6635 0.62935 0.0
C1605 C 0.33415 0.71325 0.6321 0.0
C1606 C 0.32261 0.69406 0.62924 0.0
H1607 H 0.22311 0.6569 0.61835 0.0
H1608 H 0.2551 0.6743 0.60745 0.0
H1609 H 0.30201 0.65853 0.68232 0.0
H1610 H 0.37664 0.73275 0.66961 0.0
H1611 H 0.35995 0.70012 0.65886 0.0
C1612 C 0.64391 0.74817 0.39221 0.0
C1613 C 0.63361 0.74699 0.36061 0.0
C1614 C 0.65343 0.73103 0.40585 0.0
C1615 C 0.68766 0.70123 0.40593 0.0
H1616 H 0.67392 0.64511 0.38519 0.0
C1617 C 0.73149 0.63147 0.34402 0.0
C1618 C 0.75026 0.63383 0.36075 0.0
C1619 C 0.7141 0.64084 0.35723 0.0
C1620 C 0.6779 0.66069 0.39147 0.0
H1621 H 0.62384 0.7268 0.31967 0.0
H1622 H 0.64146 0.69708 0.3424 0.0
H1623 H 0.64717 0.67103 0.3853 0.0
H1624 H 0.76534 0.64574 0.40617 0.0
H1625 H 0.7349 0.66168 0.42969 0.0
H1626 H 0.71841 0.69147 0.40978 0.0
C1627 C 0.64176 0.71105 0.35723 0.0
C1628 C 0.66262 0.67549 0.39154 0.0
C1629 C 0.63191 0.72813 0.3439 0.0
C1630 C 0.75111 0.64425 0.39225 0.0
C1631 C 0.73368 0.65325 0.4058 0.0
C1632 C 0.70285 0.68652 0.40586 0.0
C1633 C 0.6532 0.71251 0.38776 0.0
C1634 C 0.66759 0.69607 0.39702 0.0
C1635 C 0.71519 0.65241 0.38767 0.0
C1636 C 0.69832 0.66629 0.39689 0.0
H1637 H 0.64492 0.76245 0.40612 0.0
H1638 H 0.66177 0.73251 0.42978 0.0
H1639 H 0.69213 0.71694 0.40989 0.0
H1640 H 0.73045 0.62328 0.31987 0.0
H1641 H 0.70015 0.64008 0.34239 0.0
C1642 C 0.72868 0.36735 0.64837 0.0
C1643 C 0.74714 0.35729 0.64124 0.0
C1644 C 0.71013 0.35844 0.63953 0.0
C1645 C 0.68695 0.31552 0.59113 0.0
H1646 H 0.65384 0.30951 0.67318 0.0
C1647 C 0.65094 0.24118 0.63058 0.0
C1648 C 0.6324 0.2408 0.64858 0.0
C1649 C 0.65949 0.25963 0.62052 0.0
C1650 C 0.66246 0.31143 0.64961 0.0
H1651 H 0.7606 0.33057 0.61742 0.0
H1652 H 0.7283 0.31484 0.60283 0.0
H1653 H 0.67966 0.33589 0.67104 0.0
H1654 H 0.60786 0.2595 0.66891 0.0
H1655 H 0.62309 0.29182 0.65167 0.0
H1656 H 0.67064 0.28999 0.57082 0.0
C1657 C 0.72815 0.32975 0.61478 0.0
C1658 C 0.67728 0.32658 0.64837 0.0
C1659 C 0.74668 0.33862 0.62363 0.0
C1660 C 0.62229 0.25927 0.65541 0.0
C1661 C 0.63092 0.27777 0.64542 0.0
C1662 C 0.67212 0.30035 0.59238 0.0
C1663 C 0.7097 0.33935 0.62333 0.0
C1664 C 0.69044 0.32794 0.61996 0.0
C1665 C 0.64972 0.2781 0.62826 0.0
C1666 C 0.66062 0.29745 0.62247 0.0
H1667 H 0.72849 0.38191 0.66148 0.0
H1668 H 0.69611 0.36618 0.64626 0.0
H1669 H 0.69664 0.31658 0.56863 0.0
H1670 H 0.65904 0.22725 0.62459 0.0
H1671 H 0.67422 0.25944 0.60795 0.0
C1672 C 0.7566 0.86406 0.83566 0.0
C1673 C 0.73824 0.85449 0.84504 0.0
C1674 C 0.77527 0.85503 0.84351 0.0
C1675 C 0.7991 0.8139 0.89504 0.0
H1676 H 0.8319 0.8053 0.81332 0.0
C1677 C 0.83862 0.73943 0.86513 0.0
C1678 C 0.85722 0.73927 0.8473 0.0
C1679 C 0.82899 0.75779 0.8726 0.0
C1680 C 0.82332 0.80796 0.83671 0.0
H1681 H 0.72512 0.82841 0.87139 0.0
H1682 H 0.75757 0.81254 0.88441 0.0
H1683 H 0.80537 0.83107 0.81276 0.0
H1684 H 0.88076 0.75832 0.82462 0.0
H1685 H 0.86366 0.79042 0.83736 0.0
H1686 H 0.81623 0.78976 0.91812 0.0
C1687 C 0.75758 0.82715 0.87142 0.0
C1688 C 0.80811 0.82274 0.83639 0.0
C1689 C 0.73895 0.8361 0.86348 0.0
C1690 C 0.86632 0.7579 0.83811 0.0
C1691 C 0.85661 0.77629 0.84547 0.0
C1692 C 0.81431 0.79909 0.89534 0.0
C1693 C 0.77589 0.83635 0.86105 0.0
C1694 C 0.79518 0.82506 0.86491 0.0
C1695 C 0.83773 0.77636 0.86234 0.0
C1696 C 0.8258 0.7953 0.86554 0.0
H1697 H 0.75659 0.87835 0.8217 0.0
H1698 H 0.78919 0.86243 0.8353 0.0
H1699 H 0.78957 0.81572 0.9176 0.0
H1700 H 0.83129 0.72537 0.87288 0.0
H1701 H 0.81424 0.75737 0.8851 0.0
C1702 C 0.74396 0.15247 0.1318 0.0
C1703 C 0.74379 0.13411 0.15034 0.0
C1704 C 0.76232 0.16185 0.12352 0.0
C1705 C 0.81278 0.16762 0.15805 0.0
H1706 H 0.81973 0.20081 0.07626 0.0
C1707 C 0.8688 0.23436 0.15616 0.0
C1708 C 0.85909 0.25268 0.1469 0.0
C1709 C 0.85971 0.21566 0.14884 0.0
C1710 C 0.81814 0.19143 0.09905 0.0
H1711 H 0.76283 0.11071 0.17344 0.0
H1712 H 0.79497 0.12739 0.15928 0.0
H1713 H 0.79388 0.17404 0.07695 0.0
H1714 H 0.8327 0.26567 0.1213 0.0
H1715 H 0.81672 0.23311 0.10918 0.0
H1716 H 0.83606 0.18581 0.181 0.0
C1717 C 0.78082 0.13444 0.15124 0.0
C1718 C 0.8034 0.17616 0.09945 0.0
C1719 C 0.76242 0.12497 0.15942 0.0
C1720 C 0.8405 0.25187 0.12909 0.0
C1721 C 0.83148 0.23319 0.12168 0.0
C1722 C 0.82753 0.18287 0.15765 0.0
C1723 C 0.7809 0.15311 0.13365 0.0
C1724 C 0.79987 0.1649 0.12961 0.0
C1725 C 0.84083 0.21494 0.13197 0.0
C1726 C 0.82955 0.1956 0.1288 0.0
H1727 H 0.7299 0.15982 0.1241 0.0
H1728 H 0.76189 0.17644 0.1105 0.0
H1729 H 0.81034 0.15923 0.18171 0.0
H1730 H 0.88324 0.23444 0.16963 0.0
H1731 H 0.86723 0.20178 0.15697 0.0
C1732 C 0.14405 0.25073 0.89345 0.0
C1733 C 0.13293 0.24993 0.86259 0.0
C1734 C 0.15391 0.23343 0.90579 0.0
C1735 C 0.18769 0.20299 0.90306 0.0
H1736 H 0.17184 0.14709 0.8851 0.0
C1737 C 0.22828 0.13039 0.84327 0.0
C1738 C 0.2473 0.13224 0.85939 0.0
C1739 C 0.21145 0.14079 0.85631 0.0
C1740 C 0.17642 0.16261 0.89054 0.0
H1741 H 0.12225 0.23021 0.82162 0.0
H1742 H 0.1403 0.2002 0.84223 0.0
H1743 H 0.14593 0.17386 0.88548 0.0
H1744 H 0.26333 0.14447 0.90364 0.0
H1745 H 0.23384 0.16225 0.92687 0.0
H1746 H 0.21818 0.19229 0.9058 0.0
C1747 C 0.14101 0.21403 0.85739 0.0
C1748 C 0.16162 0.17789 0.89077 0.0
C1749 C 0.1309 0.23128 0.84529 0.0
C1750 C 0.24891 0.1433 0.89019 0.0
C1751 C 0.23203 0.15338 0.90356 0.0
C1752 C 0.20241 0.1878 0.90276 0.0
C1753 C 0.15311 0.21511 0.88721 0.0
C1754 C 0.16731 0.19834 0.89547 0.0
C1755 C 0.21334 0.15294 0.88597 0.0
C1756 C 0.19708 0.1676 0.89491 0.0
H1757 H 0.14541 0.2648 0.90784 0.0
H1758 H 0.16284 0.23461 0.92916 0.0
H1759 H 0.19266 0.2186 0.90635 0.0
H1760 H 0.22663 0.12177 0.81965 0.0
H1761 H 0.19734 0.14031 0.84188 0.0
C1762 C 0.13473 0.75989 0.14741 0.0
C1763 C 0.13665 0.74128 0.12999 0.0
C1764 C 0.14369 0.77744 0.13406 0.0
C1765 C 0.16161 0.81427 0.09911 0.0
H1766 H 0.21754 0.80175 0.07542 0.0
C1767 C 0.24836 0.84961 0.09348 0.0
C1768 C 0.24796 0.85889 0.12601 0.0
C1769 C 0.23087 0.84057 0.08019 0.0
C1770 C 0.20187 0.80576 0.08086 0.0
H1771 H 0.14768 0.72667 0.08349 0.0
H1772 H 0.163 0.75742 0.05982 0.0
H1773 H 0.19282 0.77479 0.07694 0.0
H1774 H 0.22882 0.86768 0.16892 0.0
H1775 H 0.19847 0.8508 0.14675 0.0
H1776 H 0.17134 0.84519 0.10547 0.0
C1777 C 0.15514 0.75836 0.08428 0.0
C1778 C 0.18758 0.79017 0.08175 0.0
C1779 C 0.1465 0.74075 0.09793 0.0
C1780 C 0.2295 0.86036 0.14394 0.0
C1781 C 0.21207 0.85094 0.13097 0.0
C1782 C 0.17599 0.82995 0.09829 0.0
C1783 C 0.15445 0.77674 0.10278 0.0
C1784 C 0.16757 0.79405 0.09267 0.0
C1785 C 0.21283 0.84021 0.09962 0.0
C1786 C 0.19648 0.82559 0.09092 0.0
H1787 H 0.12702 0.76073 0.17203 0.0
H1788 H 0.14312 0.79125 0.14927 0.0
H1789 H 0.14615 0.81777 0.10683 0.0
H1790 H 0.26234 0.84885 0.0787 0.0
H1791 H 0.23179 0.83284 0.05561 0.0
loop_
_geom_bond_atom_site_label_1
_geom_bond_atom_site_label_2
_geom_bond_distance
_geom_bond_site_symmetry_2
_ccdc_geom_bond_type
Sc0 O3 2.025 . S
Sc0 O10 2.105 . S
Sc0 O13 2.105 . S
Sc0 O16 2.105 . S
Sc0 O19 2.105 . S
Sc1 O3 2.025 . S
Sc1 O11 2.105 . S
Sc1 O15 2.105 . S
Sc1 O17 2.105 . S
Sc1 O21 2.105 . S
Sc2 O3 2.025 . S
Sc2 O12 2.105 . S
Sc2 O14 2.105 . S
Sc2 O18 2.105 . S
Sc2 O20 2.105 . S
O3 Sc0 2.025 . S
O3 Sc1 2.025 . S
O3 Sc2 2.025 . S
C4 O10 1.268 . S
C4 O20 1.268 . S
C5 O11 1.268 . S
C5 O19 1.268 . S
C6 O12 1.268 . S
C6 O21 1.268 . S
C7 O13 1.268 . S
C7 O17 1.268 . S
C8 O14 1.268 . S
C8 O16 1.268 . S
C9 O15 1.268 . S
C9 O18 1.268 . S
O10 Sc0 2.105 . S
O10 C4 1.268 . S
O11 Sc1 2.105 . S
O11 C5 1.268 . S
O12 Sc2 2.105 . S
O12 C6 1.268 . S
O13 Sc0 2.105 . S
O13 C7 1.268 . S
O14 Sc2 2.105 . S
O14 C8 1.268 . S
O15 Sc1 2.105 . S
O15 C9 1.268 . S
O16 Sc0 2.105 . S
O16 C8 1.268 . S
O17 Sc1 2.105 . S
O17 C7 1.268 . S
O18 Sc2 2.105 . S
O18 C9 1.268 . S
O19 Sc0 2.105 . S
O19 C5 1.268 . S
O20 Sc2 2.105 . S
O20 C4 1.268 . S
O21 Sc1 2.105 . S
O21 C6 1.268 . S
Sc22 O25 2.025 . S
Sc22 O32 2.105 . S
Sc22 O35 2.105 . S
Sc22 O38 2.105 . S
Sc22 O41 2.105 . S
Sc23 O25 2.025 . S
Sc23 O33 2.105 . S
Sc23 O37 2.105 . S
Sc23 O39 2.105 . S
Sc23 O43 2.105 . S
Sc24 O25 2.025 . S
Sc24 O34 2.105 . S
Sc24 O36 2.105 . S
Sc24 O40 2.105 . S
Sc24 O42 2.105 . S
O25 Sc22 2.025 . S
O25 Sc23 2.025 . S
O25 Sc24 2.025 . S
C26 O32 1.268 . S
C26 O42 1.268 . S
C27 O33 1.268 . S
C27 O41 1.268 . S
C28 O34 1.268 . S
C28 O43 1.268 . S
C29 O35 1.268 . S
C29 O39 1.268 . S
C30 O36 1.268 . S
C30 O38 1.268 . S
C31 O37 1.268 . S
C31 O40 1.268 . S
O32 Sc22 2.105 . S
O32 C26 1.268 . S
O33 Sc23 2.105 . S
O33 C27 1.268 . S
O34 Sc24 2.105 . S
O34 C28 1.268 . S
O35 Sc22 2.105 . S
O35 C29 1.268 . S
O36 Sc24 2.105 . S
O36 C30 1.268 . S
O37 Sc23 2.105 . S
O37 C31 1.268 . S
O38 Sc22 2.105 . S
O38 C30 1.268 . S
O39 Sc23 2.105 . S
O39 C29 1.268 . S
O40 Sc24 2.105 . S
O40 C31 1.268 . S
O41 Sc22 2.105 . S
O41 C27 1.268 . S
O42 Sc24 2.105 . S
O42 C26 1.268 . S
O43 Sc23 2.105 . S
O43 C28 1.268 . S
Sc44 O47 2.025 . S
Sc44 O54 2.105 . S
Sc44 O57 2.105 . S
Sc44 O60 2.105 . S
Sc44 O63 2.105 . S
Sc45 O47 2.025 . S
Sc45 O55 2.105 . S
Sc45 O59 2.105 . S
Sc45 O61 2.105 . S
Sc45 O65 2.105 . S
Sc46 O47 2.025 . S
Sc46 O56 2.105 . S
Sc46 O58 2.105 . S
Sc46 O62 2.105 . S
Sc46 O64 2.105 . S
O47 Sc44 2.025 . S
O47 Sc45 2.025 . S
O47 Sc46 2.025 . S
C48 O54 1.268 . S
C48 O64 1.268 . S
C49 O55 1.268 . S
C49 O63 1.268 . S
C50 O56 1.268 . S
C50 O65 1.268 . S
C51 O57 1.268 . S
C51 O61 1.268 . S
C52 O58 1.268 . S
C52 O60 1.268 . S
C53 O59 1.268 . S
C53 O62 1.268 . S
O54 Sc44 2.105 . S
O54 C48 1.268 . S
O55 Sc45 2.105 . S
O55 C49 1.268 . S
O56 Sc46 2.105 . S
O56 C50 1.268 . S
O57 Sc44 2.105 . S
O57 C51 1.268 . S
O58 Sc46 2.105 . S
O58 C52 1.268 . S
O59 Sc45 2.105 . S
O59 C53 1.268 . S
O60 Sc44 2.105 . S
O60 C52 1.268 . S
O61 Sc45 2.105 . S
O61 C51 1.268 . S
O62 Sc46 2.105 . S
O62 C53 1.268 . S
O63 Sc44 2.105 . S
O63 C49 1.268 . S
O64 Sc46 2.105 . S
O64 C48 1.268 . S
O65 Sc45 2.105 . S
O65 C50 1.268 . S
Sc66 O69 2.025 . S
Sc66 O76 2.105 . S
Sc66 O79 2.105 . S
Sc66 O82 2.105 . S
Sc66 O85 2.105 . S
Sc67 O69 2.025 . S
Sc67 O77 2.105 . S
Sc67 O81 2.105 . S
Sc67 O83 2.105 . S
Sc67 O87 2.105 . S
Sc68 O69 2.025 . S
Sc68 O78 2.105 . S
Sc68 O80 2.105 . S
Sc68 O84 2.105 . S
Sc68 O86 2.105 . S
O69 Sc66 2.025 . S
O69 Sc67 2.025 . S
O69 Sc68 2.025 . S
C70 O76 1.268 . S
C70 O86 1.268 . S
C71 O77 1.268 . S
C71 O85 1.268 . S
C72 O78 1.268 . S
C72 O87 1.268 . S
C73 O79 1.268 . S
C73 O83 1.268 . S
C74 O80 1.268 . S
C74 O82 1.268 . S
C75 O81 1.268 . S
C75 O84 1.268 . S
O76 Sc66 2.105 . S
O76 C70 1.268 . S
O77 Sc67 2.105 . S
O77 C71 1.268 . S
O78 Sc68 2.105 . S
O78 C72 1.268 . S
O79 Sc66 2.105 . S
O79 C73 1.268 . S
O80 Sc68 2.105 . S
O80 C74 1.268 . S
O81 Sc67 2.105 . S
O81 C75 1.268 . S
O82 Sc66 2.105 . S
O82 C74 1.268 . S
O83 Sc67 2.105 . S
O83 C73 1.268 . S
O84 Sc68 2.105 . S
O84 C75 1.268 . S
O85 Sc66 2.105 . S
O85 C71 1.268 . S
O86 Sc68 2.105 . S
O86 C70 1.268 . S
O87 Sc67 2.105 . S
O87 C72 1.268 . S
Sc88 O91 2.025 . S
Sc88 O98 2.105 . S
Sc88 O101 2.105 . S
Sc88 O104 2.105 . S
Sc88 O107 2.105 . S
Sc89 O91 2.025 . S
Sc89 O99 2.105 . S
Sc89 O103 2.105 . S
Sc89 O105 2.105 . S
Sc89 O109 2.105 . S
Sc90 O91 2.025 . S
Sc90 O100 2.105 . S
Sc90 O102 2.105 . S
Sc90 O106 2.105 . S
Sc90 O108 2.105 . S
O91 Sc88 2.025 . S
O91 Sc89 2.025 . S
O91 Sc90 2.025 . S
C92 O98 1.268 . S
C92 O108 1.268 . S
C93 O99 1.268 . S
C93 O107 1.268 . S
C94 O100 1.268 . S
C94 O109 1.268 . S
C95 O101 1.268 . S
C95 O105 1.268 . S
C96 O102 1.268 . S
C96 O104 1.268 . S
C97 O103 1.268 . S
C97 O106 1.268 . S
O98 Sc88 2.105 . S
O98 C92 1.268 . S
O99 Sc89 2.105 . S
O99 C93 1.268 . S
O100 Sc90 2.105 . S
O100 C94 1.268 . S
O101 Sc88 2.105 . S
O101 C95 1.268 . S
O102 Sc90 2.105 . S
O102 C96 1.268 . S
O103 Sc89 2.105 . S
O103 C97 1.268 . S
O104 Sc88 2.105 . S
O104 C96 1.268 . S
O105 Sc89 2.105 . S
O105 C95 1.268 . S
O106 Sc90 2.105 . S
O106 C97 1.268 . S
O107 Sc88 2.105 . S
O107 C93 1.268 . S
O108 Sc90 2.105 . S
O108 C92 1.268 . S
O109 Sc89 2.105 . S
O109 C94 1.268 . S
Sc110 O113 2.025 . S
Sc110 O120 2.105 . S
Sc110 O123 2.105 . S
Sc110 O126 2.105 . S
Sc110 O129 2.105 . S
Sc111 O113 2.025 . S
Sc111 O121 2.105 . S
Sc111 O125 2.105 . S
Sc111 O127 2.105 . S
Sc111 O131 2.105 . S
Sc112 O113 2.025 . S
Sc112 O122 2.105 . S
Sc112 O124 2.105 . S
Sc112 O128 2.105 . S
Sc112 O130 2.105 . S
O113 Sc110 2.025 . S
O113 Sc111 2.025 . S
O113 Sc112 2.025 . S
C114 O120 1.268 . S
C114 O130 1.268 . S
C115 O121 1.268 . S
C115 O129 1.268 . S
C116 O122 1.268 . S
C116 O131 1.268 . S
C117 O123 1.268 . S
C117 O127 1.268 . S
C118 O124 1.268 . S
C118 O126 1.268 . S
C119 O125 1.268 . S
C119 O128 1.268 . S
O120 Sc110 2.105 . S
O120 C114 1.268 . S
O121 Sc111 2.105 . S
O121 C115 1.268 . S
O122 Sc112 2.105 . S
O122 C116 1.268 . S
O123 Sc110 2.105 . S
O123 C117 1.268 . S
O124 Sc112 2.105 . S
O124 C118 1.268 . S
O125 Sc111 2.105 . S
O125 C119 1.268 . S
O126 Sc110 2.105 . S
O126 C118 1.268 . S
O127 Sc111 2.105 . S
O127 C117 1.268 . S
O128 Sc112 2.105 . S
O128 C119 1.268 . S
O129 Sc110 2.105 . S
O129 C115 1.268 . S
O130 Sc112 2.105 . S
O130 C114 1.268 . S
O131 Sc111 2.105 . S
O131 C116 1.268 . S
Sc132 O135 2.025 . S
Sc132 O142 2.105 . S
Sc132 O145 2.105 . S
Sc132 O148 2.105 . S
Sc132 O151 2.105 . S
Sc133 O135 2.025 . S
Sc133 O143 2.105 . S
Sc133 O147 2.105 . S
Sc133 O149 2.105 . S
Sc133 O153 2.105 . S
Sc134 O135 2.025 . S
Sc134 O144 2.105 . S
Sc134 O146 2.105 . S
Sc134 O150 2.105 . S
Sc134 O152 2.105 . S
O135 Sc132 2.025 . S
O135 Sc133 2.025 . S
O135 Sc134 2.025 . S
C136 O142 1.268 . S
C136 O152 1.268 . S
C137 O143 1.268 . S
C137 O151 1.268 . S
C138 O144 1.268 . S
C138 O153 1.268 . S
C139 O145 1.268 . S
C139 O149 1.268 . S
C140 O146 1.268 . S
C140 O148 1.268 . S
C141 O147 1.268 . S
C141 O150 1.268 . S
O142 Sc132 2.105 . S
O142 C136 1.268 . S
O143 Sc133 2.105 . S
O143 C137 1.268 . S
O144 Sc134 2.105 . S
O144 C138 1.268 . S
O145 Sc132 2.105 . S
O145 C139 1.268 . S
O146 Sc134 2.105 . S
O146 C140 1.268 . S
O147 Sc133 2.105 . S
O147 C141 1.268 . S
O148 Sc132 2.105 . S
O148 C140 1.268 . S
O149 Sc133 2.105 . S
O149 C139 1.268 . S
O150 Sc134 2.105 . S
O150 C141 1.268 . S
O151 Sc132 2.105 . S
O151 C137 1.268 . S
O152 Sc134 2.105 . S
O152 C136 1.268 . S
O153 Sc133 2.105 . S
O153 C138 1.268 . S
Sc154 O157 2.025 . S
Sc154 O164 2.105 . S
Sc154 O167 2.105 . S
Sc154 O170 2.105 . S
Sc154 O173 2.105 . S
Sc155 O157 2.025 . S
Sc155 O165 2.105 . S
Sc155 O169 2.105 . S
Sc155 O171 2.105 . S
Sc155 O175 2.105 . S
Sc156 O157 2.025 . S
Sc156 O166 2.105 . S
Sc156 O168 2.105 . S
Sc156 O172 2.105 . S
Sc156 O174 2.105 . S
O157 Sc154 2.025 . S
O157 Sc155 2.025 . S
O157 Sc156 2.025 . S
C158 O164 1.268 . S
C158 O174 1.268 . S
C159 O165 1.268 . S
C159 O173 1.268 . S
C160 O166 1.268 . S
C160 O175 1.268 . S
C161 O167 1.268 . S
C161 O171 1.268 . S
C162 O168 1.268 . S
C162 O170 1.268 . S
C163 O169 1.268 . S
C163 O172 1.268 . S
O164 Sc154 2.105 . S
O164 C158 1.268 . S
O165 Sc155 2.105 . S
O165 C159 1.268 . S
O166 Sc156 2.105 . S
O166 C160 1.268 . S
O167 Sc154 2.105 . S
O167 C161 1.268 . S
O168 Sc156 2.105 . S
O168 C162 1.268 . S
O169 Sc155 2.105 . S
O169 C163 1.268 . S
O170 Sc154 2.105 . S
O170 C162 1.268 . S
O171 Sc155 2.105 . S
O171 C161 1.268 . S
O172 Sc156 2.105 . S
O172 C163 1.268 . S
O173 Sc154 2.105 . S
O173 C159 1.268 . S
O174 Sc156 2.105 . S
O174 C158 1.268 . S
O175 Sc155 2.105 . S
O175 C160 1.268 . S
Sc176 O179 2.025 . S
Sc176 O186 2.105 . S
Sc176 O189 2.105 . S
Sc176 O192 2.105 . S
Sc176 O195 2.105 . S
Sc177 O179 2.025 . S
Sc177 O187 2.105 . S
Sc177 O191 2.105 . S
Sc177 O193 2.105 . S
Sc177 O197 2.105 . S
Sc178 O179 2.025 . S
Sc178 O188 2.105 . S
Sc178 O190 2.105 . S
Sc178 O194 2.105 . S
Sc178 O196 2.105 . S
O179 Sc176 2.025 . S
O179 Sc177 2.025 . S
O179 Sc178 2.025 . S
C180 O186 1.268 . S
C180 O196 1.268 . S
C181 O187 1.268 . S
C181 O195 1.268 . S
C182 O188 1.268 . S
C182 O197 1.268 . S
C183 O189 1.268 . S
C183 O193 1.268 . S
C184 O190 1.268 . S
C184 O192 1.268 . S
C185 O191 1.268 . S
C185 O194 1.268 . S
O186 Sc176 2.105 . S
O186 C180 1.268 . S
O187 Sc177 2.105 . S
O187 C181 1.268 . S
O188 Sc178 2.105 . S
O188 C182 1.268 . S
O189 Sc176 2.105 . S
O189 C183 1.268 . S
O190 Sc178 2.105 . S
O190 C184 1.268 . S
O191 Sc177 2.105 . S
O191 C185 1.268 . S
O192 Sc176 2.105 . S
O192 C184 1.268 . S
O193 Sc177 2.105 . S
O193 C183 1.268 . S
O194 Sc178 2.105 . S
O194 C185 1.268 . S
O195 Sc176 2.105 . S
O195 C181 1.268 . S
O196 Sc178 2.105 . S
O196 C180 1.268 . S
O197 Sc177 2.105 . S
O197 C182 1.268 . S
Sc198 O201 2.025 . S
Sc198 O208 2.105 . S
Sc198 O211 2.105 . S
Sc198 O214 2.105 . S
Sc198 O217 2.105 . S
Sc199 O201 2.025 . S
Sc199 O209 2.105 . S
Sc199 O213 2.105 . S
Sc199 O215 2.105 . S
Sc199 O219 2.105 . S
Sc200 O201 2.025 . S
Sc200 O210 2.105 . S
Sc200 O212 2.105 . S
Sc200 O216 2.105 . S
Sc200 O218 2.105 . S
O201 Sc198 2.025 . S
O201 Sc199 2.025 . S
O201 Sc200 2.025 . S
C202 O208 1.268 . S
C202 O218 1.268 . S
C203 O209 1.268 . S
C203 O217 1.268 . S
C204 O210 1.268 . S
C204 O219 1.268 . S
C205 O211 1.268 . S
C205 O215 1.268 . S
C206 O212 1.268 . S
C206 O214 1.268 . S
C207 O213 1.268 . S
C207 O216 1.268 . S
O208 Sc198 2.105 . S
O208 C202 1.268 . S
O209 Sc199 2.105 . S
O209 C203 1.268 . S
O210 Sc200 2.105 . S
O210 C204 1.268 . S
O211 Sc198 2.105 . S
O211 C205 1.268 . S
O212 Sc200 2.105 . S
O212 C206 1.268 . S
O213 Sc199 2.105 . S
O213 C207 1.268 . S
O214 Sc198 2.105 . S
O214 C206 1.268 . S
O215 Sc199 2.105 . S
O215 C205 1.268 . S
O216 Sc200 2.105 . S
O216 C207 1.268 . S
O217 Sc198 2.105 . S
O217 C203 1.268 . S
O218 Sc200 2.105 . S
O218 C202 1.268 . S
O219 Sc199 2.105 . S
O219 C204 1.268 . S
Sc220 O223 2.025 . S
Sc220 O230 2.105 . S
Sc220 O233 2.105 . S
Sc220 O236 2.105 . S
Sc220 O239 2.105 . S
Sc221 O223 2.025 . S
Sc221 O231 2.105 . S
Sc221 O235 2.105 . S
Sc221 O237 2.105 . S
Sc221 O241 2.105 . S
Sc222 O223 2.025 . S
Sc222 O232 2.105 . S
Sc222 O234 2.105 . S
Sc222 O238 2.105 . S
Sc222 O240 2.105 . S
O223 Sc220 2.025 . S
O223 Sc221 2.025 . S
O223 Sc222 2.025 . S
C224 O230 1.268 . S
C224 O240 1.268 . S
C225 O231 1.268 . S
C225 O239 1.268 . S
C226 O232 1.268 . S
C226 O241 1.268 . S
C227 O233 1.268 . S
C227 O237 1.268 . S
C228 O234 1.268 . S
C228 O236 1.268 . S
C229 O235 1.268 . S
C229 O238 1.268 . S
O230 Sc220 2.105 . S
O230 C224 1.268 . S
O231 Sc221 2.105 . S
O231 C225 1.268 . S
O232 Sc222 2.105 . S
O232 C226 1.268 . S
O233 Sc220 2.105 . S
O233 C227 1.268 . S
O234 Sc222 2.105 . S
O234 C228 1.268 . S
O235 Sc221 2.105 . S
O235 C229 1.268 . S
O236 Sc220 2.105 . S
O236 C228 1.268 . S
O237 Sc221 2.105 . S
O237 C227 1.268 . S
O238 Sc222 2.105 . S
O238 C229 1.268 . S
O239 Sc220 2.105 . S
O239 C225 1.268 . S
O240 Sc222 2.105 . S
O240 C224 1.268 . S
O241 Sc221 2.105 . S
O241 C226 1.268 . S
Sc242 O245 2.025 . S
Sc242 O252 2.105 . S
Sc242 O255 2.105 . S
Sc242 O258 2.105 . S
Sc242 O261 2.105 . S
Sc243 O245 2.025 . S
Sc243 O253 2.105 . S
Sc243 O257 2.105 . S
Sc243 O259 2.105 . S
Sc243 O263 2.105 . S
Sc244 O245 2.025 . S
Sc244 O254 2.105 . S
Sc244 O256 2.105 . S
Sc244 O260 2.105 . S
Sc244 O262 2.105 . S
O245 Sc242 2.025 . S
O245 Sc243 2.025 . S
O245 Sc244 2.025 . S
C246 O252 1.268 . S
C246 O262 1.268 . S
C247 O253 1.268 . S
C247 O261 1.268 . S
C248 O254 1.268 . S
C248 O263 1.268 . S
C249 O255 1.268 . S
C249 O259 1.268 . S
C250 O256 1.268 . S
C250 O258 1.268 . S
C251 O257 1.268 . S
C251 O260 1.268 . S
O252 Sc242 2.105 . S
O252 C246 1.268 . S
O253 Sc243 2.105 . S
O253 C247 1.268 . S
O254 Sc244 2.105 . S
O254 C248 1.268 . S
O255 Sc242 2.105 . S
O255 C249 1.268 . S
O256 Sc244 2.105 . S
O256 C250 1.268 . S
O257 Sc243 2.105 . S
O257 C251 1.268 . S
O258 Sc242 2.105 . S
O258 C250 1.268 . S
O259 Sc243 2.105 . S
O259 C249 1.268 . S
O260 Sc244 2.105 . S
O260 C251 1.268 . S
O261 Sc242 2.105 . S
O261 C247 1.268 . S
O262 Sc244 2.105 . S
O262 C246 1.268 . S
O263 Sc243 2.105 . S
O263 C248 1.268 . S
Sc264 O267 2.025 . S
Sc264 O274 2.105 . S
Sc264 O277 2.105 . S
Sc264 O280 2.105 . S
Sc264 O283 2.105 . S
Sc265 O267 2.025 . S
Sc265 O275 2.105 . S
Sc265 O279 2.105 . S
Sc265 O281 2.105 . S
Sc265 O285 2.105 . S
Sc266 O267 2.025 . S
Sc266 O276 2.105 . S
Sc266 O278 2.105 . S
Sc266 O282 2.105 . S
Sc266 O284 2.105 . S
O267 Sc264 2.025 . S
O267 Sc265 2.025 . S
O267 Sc266 2.025 . S
C268 O274 1.268 . S
C268 O284 1.268 . S
C269 O275 1.268 . S
C269 O283 1.268 . S
C270 O276 1.268 . S
C270 O285 1.268 . S
C271 O277 1.268 . S
C271 O281 1.268 . S
C272 O278 1.268 . S
C272 O280 1.268 . S
C273 O279 1.268 . S
C273 O282 1.268 . S
O274 Sc264 2.105 . S
O274 C268 1.268 . S
O275 Sc265 2.105 . S
O275 C269 1.268 . S
O276 Sc266 2.105 . S
O276 C270 1.268 . S
O277 Sc264 2.105 . S
O277 C271 1.268 . S
O278 Sc266 2.105 . S
O278 C272 1.268 . S
O279 Sc265 2.105 . S
O279 C273 1.268 . S
O280 Sc264 2.105 . S
O280 C272 1.268 . S
O281 Sc265 2.105 . S
O281 C271 1.268 . S
O282 Sc266 2.105 . S
O282 C273 1.268 . S
O283 Sc264 2.105 . S
O283 C269 1.268 . S
O284 Sc266 2.105 . S
O284 C268 1.268 . S
O285 Sc265 2.105 . S
O285 C270 1.268 . S
Sc286 O289 2.025 . S
Sc286 O296 2.105 . S
Sc286 O299 2.105 . S
Sc286 O302 2.105 . S
Sc286 O305 2.105 . S
Sc287 O289 2.025 . S
Sc287 O297 2.105 . S
Sc287 O301 2.105 . S
Sc287 O303 2.105 . S
Sc287 O307 2.105 . S
Sc288 O289 2.025 . S
Sc288 O298 2.105 . S
Sc288 O300 2.105 . S
Sc288 O304 2.105 . S
Sc288 O306 2.105 . S
O289 Sc286 2.025 . S
O289 Sc287 2.025 . S
O289 Sc288 2.025 . S
C290 O296 1.268 . S
C290 O306 1.268 . S
C291 O297 1.268 . S
C291 O305 1.268 . S
C292 O298 1.268 . S
C292 O307 1.268 . S
C293 O299 1.268 . S
C293 O303 1.268 . S
C294 O300 1.268 . S
C294 O302 1.268 . S
C295 O301 1.268 . S
C295 O304 1.268 . S
O296 Sc286 2.105 . S
O296 C290 1.268 . S
O297 Sc287 2.105 . S
O297 C291 1.268 . S
O298 Sc288 2.105 . S
O298 C292 1.268 . S
O299 Sc286 2.105 . S
O299 C293 1.268 . S
O300 Sc288 2.105 . S
O300 C294 1.268 . S
O301 Sc287 2.105 . S
O301 C295 1.268 . S
O302 Sc286 2.105 . S
O302 C294 1.268 . S
O303 Sc287 2.105 . S
O303 C293 1.268 . S
O304 Sc288 2.105 . S
O304 C295 1.268 . S
O305 Sc286 2.105 . S
O305 C291 1.268 . S
O306 Sc288 2.105 . S
O306 C290 1.268 . S
O307 Sc287 2.105 . S
O307 C292 1.268 . S
Sc308 O311 2.025 . S
Sc308 O318 2.105 . S
Sc308 O321 2.105 . S
Sc308 O324 2.105 . S
Sc308 O327 2.105 . S
Sc309 O311 2.025 . S
Sc309 O319 2.105 . S
Sc309 O323 2.105 . S
Sc309 O325 2.105 . S
Sc309 O329 2.105 . S
Sc310 O311 2.025 . S
Sc310 O320 2.105 . S
Sc310 O322 2.105 . S
Sc310 O326 2.105 . S
Sc310 O328 2.105 . S
O311 Sc308 2.025 . S
O311 Sc309 2.025 . S
O311 Sc310 2.025 . S
C312 O318 1.268 . S
C312 O328 1.268 . S
C313 O319 1.268 . S
C313 O327 1.268 . S
C314 O320 1.268 . S
C314 O329 1.268 . S
C315 O321 1.268 . S
C315 O325 1.268 . S
C316 O322 1.268 . S
C316 O324 1.268 . S
C317 O323 1.268 . S
C317 O326 1.268 . S
O318 Sc308 2.105 . S
O318 C312 1.268 . S
O319 Sc309 2.105 . S
O319 C313 1.268 . S
O320 Sc310 2.105 . S
O320 C314 1.268 . S
O321 Sc308 2.105 . S
O321 C315 1.268 . S
O322 Sc310 2.105 . S
O322 C316 1.268 . S
O323 Sc309 2.105 . S
O323 C317 1.268 . S
O324 Sc308 2.105 . S
O324 C316 1.268 . S
O325 Sc309 2.105 . S
O325 C315 1.268 . S
O326 Sc310 2.105 . S
O326 C317 1.268 . S
O327 Sc308 2.105 . S
O327 C313 1.268 . S
O328 Sc310 2.105 . S
O328 C312 1.268 . S
O329 Sc309 2.105 . S
O329 C314 1.268 . S
Sc330 O333 2.025 . S
Sc330 O340 2.105 . S
Sc330 O343 2.105 . S
Sc330 O346 2.105 . S
Sc330 O349 2.105 . S
Sc331 O333 2.025 . S
Sc331 O341 2.105 . S
Sc331 O345 2.105 . S
Sc331 O347 2.105 . S
Sc331 O351 2.105 . S
Sc332 O333 2.025 . S
Sc332 O342 2.105 . S
Sc332 O344 2.105 . S
Sc332 O348 2.105 . S
Sc332 O350 2.105 . S
O333 Sc330 2.025 . S
O333 Sc331 2.025 . S
O333 Sc332 2.025 . S
C334 O340 1.268 . S
C334 O350 1.268 . S
C335 O341 1.268 . S
C335 O349 1.268 . S
C336 O342 1.268 . S
C336 O351 1.268 . S
C337 O343 1.268 . S
C337 O347 1.268 . S
C338 O344 1.268 . S
C338 O346 1.268 . S
C339 O345 1.268 . S
C339 O348 1.268 . S
O340 Sc330 2.105 . S
O340 C334 1.268 . S
O341 Sc331 2.105 . S
O341 C335 1.268 . S
O342 Sc332 2.105 . S
O342 C336 1.268 . S
O343 Sc330 2.105 . S
O343 C337 1.268 . S
O344 Sc332 2.105 . S
O344 C338 1.268 . S
O345 Sc331 2.105 . S
O345 C339 1.268 . S
O346 Sc330 2.105 . S
O346 C338 1.268 . S
O347 Sc331 2.105 . S
O347 C337 1.268 . S
O348 Sc332 2.105 . S
O348 C339 1.268 . S
O349 Sc330 2.105 . S
O349 C335 1.268 . S
O350 Sc332 2.105 . S
O350 C334 1.268 . S
O351 Sc331 2.105 . S
O351 C336 1.268 . S
C352 C353 1.349 . S
C352 C354 1.327 . S
C352 H377 0.950 . S
C353 C352 1.349 . S
C353 C369 1.349 . S
C354 C352 1.327 . S
C354 C373 1.429 . S
C354 H378 0.950 . S
C355 C372 1.574 . S
C355 C374 1.368 . S
C355 H379 0.949 . S
H356 C360 0.949 . S
C357 C358 1.349 . S
C357 C359 1.327 . S
C357 H380 0.950 . S
C358 C357 1.349 . S
C358 C370 1.349 . S
C359 C357 1.327 . S
C359 C375 1.429 . S
C359 H381 0.950 . S
C360 H356 0.949 . S
C360 C368 1.574 . S
C360 C376 1.368 . S
H361 C369 0.950 . S
H362 C367 0.950 . S
H363 C368 0.949 . S
H364 C370 0.950 . S
H365 C371 0.950 . S
H366 C372 0.949 . S
C367 H362 0.950 . S
C367 C369 1.327 . S
C367 C373 1.429 . S
C368 C360 1.574 . S
C368 H363 0.949 . S
C368 C374 1.368 . S
C369 C353 1.349 . S
C369 H361 0.950 . S
C369 C367 1.327 . S
C370 C358 1.349 . S
C370 H364 0.950 . S
C370 C371 1.327 . S
C371 H365 0.950 . S
C371 C370 1.327 . S
C371 C375 1.429 . S
C372 C355 1.574 . S
C372 H366 0.949 . S
C372 C376 1.368 . S
C373 C354 1.429 . S
C373 C367 1.429 . S
C373 C374 1.523 . S
C374 C355 1.368 . S
C374 C368 1.368 . S
C374 C373 1.523 . S
C375 C359 1.429 . S
C375 C371 1.429 . S
C375 C376 1.523 . S
C376 C360 1.368 . S
C376 C372 1.368 . S
C376 C375 1.523 . S
H377 C352 0.950 . S
H378 C354 0.950 . S
H379 C355 0.949 . S
H380 C357 0.950 . S
H381 C359 0.950 . S
C382 C383 1.349 . S
C382 C384 1.327 . S
C382 H407 0.950 . S
C383 C382 1.349 . S
C383 C399 1.349 . S
C384 C382 1.327 . S
C384 C403 1.429 . S
C384 H408 0.950 . S
C385 C402 1.574 . S
C385 C404 1.368 . S
C385 H409 0.949 . S
H386 C390 0.949 . S
C387 C388 1.349 . S
C387 C389 1.327 . S
C387 H410 0.950 . S
C388 C387 1.349 . S
C388 C400 1.349 . S
C389 C387 1.327 . S
C389 C405 1.429 . S
C389 H411 0.950 . S
C390 H386 0.949 . S
C390 C398 1.574 . S
C390 C406 1.368 . S
H391 C399 0.950 . S
H392 C397 0.950 . S
H393 C398 0.949 . S
H394 C400 0.950 . S
H395 C401 0.950 . S
H396 C402 0.949 . S
C397 H392 0.950 . S
C397 C399 1.327 . S
C397 C403 1.429 . S
C398 C390 1.574 . S
C398 H393 0.949 . S
C398 C404 1.368 . S
C399 C383 1.349 . S
C399 H391 0.950 . S
C399 C397 1.327 . S
C400 C388 1.349 . S
C400 H394 0.950 . S
C400 C401 1.327 . S
C401 H395 0.950 . S
C401 C400 1.327 . S
C401 C405 1.429 . S
C402 C385 1.574 . S
C402 H396 0.949 . S
C402 C406 1.368 . S
C403 C384 1.429 . S
C403 C397 1.429 . S
C403 C404 1.523 . S
C404 C385 1.368 . S
C404 C398 1.368 . S
C404 C403 1.523 . S
C405 C389 1.429 . S
C405 C401 1.429 . S
C405 C406 1.523 . S
C406 C390 1.368 . S
C406 C402 1.368 . S
C406 C405 1.523 . S
H407 C382 0.950 . S
H408 C384 0.950 . S
H409 C385 0.949 . S
H410 C387 0.950 . S
H411 C389 0.950 . S
C412 C413 1.349 . S
C412 C414 1.327 . S
C412 H437 0.950 . S
C413 C412 1.349 . S
C413 C429 1.349 . S
C414 C412 1.327 . S
C414 C433 1.429 . S
C414 H438 0.950 . S
C415 C432 1.574 . S
C415 C434 1.368 . S
C415 H439 0.949 . S
H416 C420 0.949 . S
C417 C418 1.349 . S
C417 C419 1.327 . S
C417 H440 0.950 . S
C418 C417 1.349 . S
C418 C430 1.349 . S
C419 C417 1.327 . S
C419 C435 1.429 . S
C419 H441 0.950 . S
C420 H416 0.949 . S
C420 C428 1.574 . S
C420 C436 1.368 . S
H421 C429 0.950 . S
H422 C427 0.950 . S
H423 C428 0.949 . S
H424 C430 0.950 . S
H425 C431 0.950 . S
H426 C432 0.949 . S
C427 H422 0.950 . S
C427 C429 1.327 . S
C427 C433 1.429 . S
C428 C420 1.574 . S
C428 H423 0.949 . S
C428 C434 1.368 . S
C429 C413 1.349 . S
C429 H421 0.950 . S
C429 C427 1.327 . S
C430 C418 1.349 . S
C430 H424 0.950 . S
C430 C431 1.327 . S
C431 H425 0.950 . S
C431 C430 1.327 . S
C431 C435 1.429 . S
C432 C415 1.574 . S
C432 H426 0.949 . S
C432 C436 1.368 . S
C433 C414 1.429 . S
C433 C427 1.429 . S
C433 C434 1.523 . S
C434 C415 1.368 . S
C434 C428 1.368 . S
C434 C433 1.523 . S
C435 C419 1.429 . S
C435 C431 1.429 . S
C435 C436 1.523 . S
C436 C420 1.368 . S
C436 C432 1.368 . S
C436 C435 1.523 . S
H437 C412 0.950 . S
H438 C414 0.950 . S
H439 C415 0.949 . S
H440 C417 0.950 . S
H441 C419 0.950 . S
C442 C443 1.349 . S
C442 C444 1.327 . S
C442 H467 0.950 . S
C443 C442 1.349 . S
C443 C459 1.349 . S
C444 C442 1.327 . S
C444 C463 1.429 . S
C444 H468 0.950 . S
C445 C462 1.574 . S
C445 C464 1.368 . S
C445 H469 0.949 . S
H446 C450 0.949 . S
C447 C448 1.349 . S
C447 C449 1.327 . S
C447 H470 0.950 . S
C448 C447 1.349 . S
C448 C460 1.349 . S
C449 C447 1.327 . S
C449 C465 1.429 . S
C449 H471 0.950 . S
C450 H446 0.949 . S
C450 C458 1.574 . S
C450 C466 1.368 . S
H451 C459 0.950 . S
H452 C457 0.950 . S
H453 C458 0.949 . S
H454 C460 0.950 . S
H455 C461 0.950 . S
H456 C462 0.949 . S
C457 H452 0.950 . S
C457 C459 1.327 . S
C457 C463 1.429 . S
C458 C450 1.574 . S
C458 H453 0.949 . S
C458 C464 1.368 . S
C459 C443 1.349 . S
C459 H451 0.950 . S
C459 C457 1.327 . S
C460 C448 1.349 . S
C460 H454 0.950 . S
C460 C461 1.327 . S
C461 H455 0.950 . S
C461 C460 1.327 . S
C461 C465 1.429 . S
C462 C445 1.574 . S
C462 H456 0.949 . S
C462 C466 1.368 . S
C463 C444 1.429 . S
C463 C457 1.429 . S
C463 C464 1.523 . S
C464 C445 1.368 . S
C464 C458 1.368 . S
C464 C463 1.523 . S
C465 C449 1.429 . S
C465 C461 1.429 . S
C465 C466 1.523 . S
C466 C450 1.368 . S
C466 C462 1.368 . S
C466 C465 1.523 . S
H467 C442 0.950 . S
H468 C444 0.950 . S
H469 C445 0.949 . S
H470 C447 0.950 . S
H471 C449 0.950 . S
C472 C473 1.349 . S
C472 C474 1.327 . S
C472 H497 0.950 . S
C473 C472 1.349 . S
C473 C489 1.349 . S
C474 C472 1.327 . S
C474 C493 1.429 . S
C474 H498 0.950 . S
C475 C492 1.574 . S
C475 C494 1.368 . S
C475 H499 0.949 . S
H476 C480 0.949 . S
C477 C478 1.349 . S
C477 C479 1.327 . S
C477 H500 0.950 . S
C478 C477 1.349 . S
C478 C490 1.349 . S
C479 C477 1.327 . S
C479 C495 1.429 . S
C479 H501 0.950 . S
C480 H476 0.949 . S
C480 C488 1.574 . S
C480 C496 1.368 . S
H481 C489 0.950 . S
H482 C487 0.950 . S
H483 C488 0.949 . S
H484 C490 0.950 . S
H485 C491 0.950 . S
H486 C492 0.949 . S
C487 H482 0.950 . S
C487 C489 1.327 . S
C487 C493 1.429 . S
C488 C480 1.574 . S
C488 H483 0.949 . S
C488 C494 1.368 . S
C489 C473 1.349 . S
C489 H481 0.950 . S
C489 C487 1.327 . S
C490 C478 1.349 . S
C490 H484 0.950 . S
C490 C491 1.327 . S
C491 H485 0.950 . S
C491 C490 1.327 . S
C491 C495 1.429 . S
C492 C475 1.574 . S
C492 H486 0.949 . S
C492 C496 1.368 . S
C493 C474 1.429 . S
C493 C487 1.429 . S
C493 C494 1.523 . S
C494 C475 1.368 . S
C494 C488 1.368 . S
C494 C493 1.523 . S
C495 C479 1.429 . S
C495 C491 1.429 . S
C495 C496 1.523 . S
C496 C480 1.368 . S
C496 C492 1.368 . S
C496 C495 1.523 . S
H497 C472 0.950 . S
H498 C474 0.950 . S
H499 C475 0.949 . S
H500 C477 0.950 . S
H501 C479 0.950 . S
C502 C503 1.349 . S
C502 C504 1.327 . S
C502 H527 0.950 . S
C503 C502 1.349 . S
C503 C519 1.349 . S
C504 C502 1.327 . S
C504 C523 1.429 . S
C504 H528 0.950 . S
C505 C522 1.574 . S
C505 C524 1.368 . S
C505 H529 0.949 . S
H506 C510 0.949 . S
C507 C508 1.349 . S
C507 C509 1.327 . S
C507 H530 0.950 . S
C508 C507 1.349 . S
C508 C520 1.349 . S
C509 C507 1.327 . S
C509 C525 1.429 . S
C509 H531 0.950 . S
C510 H506 0.949 . S
C510 C518 1.574 . S
C510 C526 1.368 . S
H511 C519 0.950 . S
H512 C517 0.950 . S
H513 C518 0.949 . S
H514 C520 0.950 . S
H515 C521 0.950 . S
H516 C522 0.949 . S
C517 H512 0.950 . S
C517 C519 1.327 . S
C517 C523 1.429 . S
C518 C510 1.574 . S
C518 H513 0.949 . S
C518 C524 1.368 . S
C519 C503 1.349 . S
C519 H511 0.950 . S
C519 C517 1.327 . S
C520 C508 1.349 . S
C520 H514 0.950 . S
C520 C521 1.327 . S
C521 H515 0.950 . S
C521 C520 1.327 . S
C521 C525 1.429 . S
C522 C505 1.574 . S
C522 H516 0.949 . S
C522 C526 1.368 . S
C523 C504 1.429 . S
C523 C517 1.429 . S
C523 C524 1.523 . S
C524 C505 1.368 . S
C524 C518 1.368 . S
C524 C523 1.523 . S
C525 C509 1.429 . S
C525 C521 1.429 . S
C525 C526 1.523 . S
C526 C510 1.368 . S
C526 C522 1.368 . S
C526 C525 1.523 . S
H527 C502 0.950 . S
H528 C504 0.950 . S
H529 C505 0.949 . S
H530 C507 0.950 . S
H531 C509 0.950 . S
C532 C533 1.349 . S
C532 C534 1.327 . S
C532 H557 0.950 . S
C533 C532 1.349 . S
C533 C549 1.349 . S
C534 C532 1.327 . S
C534 C553 1.429 . S
C534 H558 0.950 . S
C535 C552 1.574 . S
C535 C554 1.368 . S
C535 H559 0.949 . S
H536 C540 0.949 . S
C537 C538 1.349 . S
C537 C539 1.327 . S
C537 H560 0.950 . S
C538 C537 1.349 . S
C538 C550 1.349 . S
C539 C537 1.327 . S
C539 C555 1.429 . S
C539 H561 0.950 . S
C540 H536 0.949 . S
C540 C548 1.574 . S
C540 C556 1.368 . S
H541 C549 0.950 . S
H542 C547 0.950 . S
H543 C548 0.949 . S
H544 C550 0.950 . S
H545 C551 0.950 . S
H546 C552 0.949 . S
C547 H542 0.950 . S
C547 C549 1.327 . S
C547 C553 1.429 . S
C548 C540 1.574 . S
C548 H543 0.949 . S
C548 C554 1.368 . S
C549 C533 1.349 . S
C549 H541 0.950 . S
C549 C547 1.327 . S
C550 C538 1.349 . S
C550 H544 0.950 . S
C550 C551 1.327 . S
C551 H545 0.950 . S
C551 C550 1.327 . S
C551 C555 1.429 . S
C552 C535 1.574 . S
C552 H546 0.949 . S
C552 C556 1.368 . S
C553 C534 1.429 . S
C553 C547 1.429 . S
C553 C554 1.523 . S
C554 C535 1.368 . S
C554 C548 1.368 . S
C554 C553 1.523 . S
C555 C539 1.429 . S
C555 C551 1.429 . S
C555 C556 1.523 . S
C556 C540 1.368 . S
C556 C552 1.368 . S
C556 C555 1.523 . S
H557 C532 0.950 . S
H558 C534 0.950 . S
H559 C535 0.949 . S
H560 C537 0.950 . S
H561 C539 0.950 . S
C562 C563 1.349 . S
C562 C564 1.327 . S
C562 H587 0.950 . S
C563 C562 1.349 . S
C563 C579 1.349 . S
C564 C562 1.327 . S
C564 C583 1.429 . S
C564 H588 0.950 . S
C565 C582 1.574 . S
C565 C584 1.368 . S
C565 H589 0.949 . S
H566 C570 0.949 . S
C567 C568 1.349 . S
C567 C569 1.327 . S
C567 H590 0.950 . S
C568 C567 1.349 . S
C568 C580 1.349 . S
C569 C567 1.327 . S
C569 C585 1.429 . S
C569 H591 0.950 . S
C570 H566 0.949 . S
C570 C578 1.574 . S
C570 C586 1.368 . S
H571 C579 0.950 . S
H572 C577 0.950 . S
H573 C578 0.949 . S
H574 C580 0.950 . S
H575 C581 0.950 . S
H576 C582 0.949 . S
C577 H572 0.950 . S
C577 C579 1.327 . S
C577 C583 1.429 . S
C578 C570 1.574 . S
C578 H573 0.949 . S
C578 C584 1.368 . S
C579 C563 1.349 . S
C579 H571 0.950 . S
C579 C577 1.327 . S
C580 C568 1.349 . S
C580 H574 0.950 . S
C580 C581 1.327 . S
C581 H575 0.950 . S
C581 C580 1.327 . S
C581 C585 1.429 . S
C582 C565 1.574 . S
C582 H576 0.949 . S
C582 C586 1.368 . S
C583 C564 1.429 . S
C583 C577 1.429 . S
C583 C584 1.523 . S
C584 C565 1.368 . S
C584 C578 1.368 . S
C584 C583 1.523 . S
C585 C569 1.429 . S
C585 C581 1.429 . S
C585 C586 1.523 . S
C586 C570 1.368 . S
C586 C582 1.368 . S
C586 C585 1.523 . S
H587 C562 0.950 . S
H588 C564 0.950 . S
H589 C565 0.949 . S
H590 C567 0.950 . S
H591 C569 0.950 . S
C592 C593 1.349 . S
C592 C594 1.327 . S
C592 H617 0.950 . S
C593 C592 1.349 . S
C593 C609 1.349 . S
C594 C592 1.327 . S
C594 C613 1.439 . S
C594 H618 0.950 1_565 S
C595 C612 1.574 . S
C595 C614 1.368 . S
C595 H619 0.949 . S
H596 C600 0.949 . S
C597 C598 1.349 . S
C597 C599 1.327 . S
C597 H620 0.950 . S
C598 C597 1.349 . S
C598 C610 1.349 . S
C599 C597 1.327 . S
C599 C615 1.429 . S
C599 H621 0.950 . S
C600 H596 0.949 . S
C600 C608 1.574 . S
C600 C616 1.368 . S
H601 C609 0.950 . S
H602 C607 0.950 . S
H603 C608 0.949 . S
H604 C610 0.950 . S
H605 C611 0.950 . S
H606 C612 0.949 . S
C607 H602 0.950 . S
C607 C609 1.327 . S
C607 C613 1.469 . S
C608 C600 1.574 . S
C608 H603 0.949 . S
C608 C614 1.368 . S
C609 C593 1.349 . S
C609 H601 0.950 . S
C609 C607 1.327 . S
C610 C598 1.349 . S
C610 H604 0.950 . S
C610 C611 1.327 . S
C611 H605 0.950 . S
C611 C610 1.327 . S
C611 C615 1.429 . S
C612 C595 1.574 . S
C612 H606 0.949 . S
C612 C616 1.368 . S
C613 C594 1.439 . S
C613 C607 1.469 . S
C613 C614 1.477 1_565 S
C614 C595 1.368 . S
C614 C608 1.368 . S
C614 C613 1.477 1_545 S
C615 C599 1.429 . S
C615 C611 1.429 . S
C615 C616 1.523 . S
C616 C600 1.368 . S
C616 C612 1.368 . S
C616 C615 1.523 . S
H617 C592 0.950 . S
H618 C594 0.950 1_545 S
H619 C595 0.949 . S
H620 C597 0.950 . S
H621 C599 0.950 . S
C622 C623 1.349 . S
C622 C624 1.327 . S
C622 H647 0.950 . S
C623 C622 1.349 . S
C623 C639 1.349 . S
C624 C622 1.327 . S
C624 C643 1.429 . S
C624 H648 0.950 . S
C625 C642 1.574 . S
C625 C644 1.368 . S
C625 H649 0.949 . S
H626 C630 0.949 . S
C627 C628 1.349 . S
C627 C629 1.327 . S
C627 H650 0.950 . S
C628 C627 1.349 . S
C628 C640 1.349 . S
C629 C627 1.327 . S
C629 C645 1.461 . S
C629 H651 0.950 . S
C630 H626 0.949 . S
C630 C638 1.574 . S
C630 C646 1.368 . S
H631 C639 0.950 . S
H632 C637 0.950 . S
H633 C638 0.949 . S
H634 C640 0.950 . S
H635 C641 0.959 . S
H636 C642 0.949 . S
C637 H632 0.950 . S
C637 C639 1.327 . S
C637 C643 1.429 . S
C638 C630 1.574 . S
C638 H633 0.949 . S
C638 C644 1.368 . S
C639 C623 1.349 . S
C639 H631 0.950 . S
C639 C637 1.327 . S
C640 C628 1.349 . S
C640 H634 0.950 . S
C640 C641 1.327 . S
C641 H635 0.959 . S
C641 C640 1.327 . S
C641 C645 1.447 . S
C642 C625 1.574 . S
C642 H636 0.949 . S
C642 C646 1.368 . S
C643 C624 1.429 . S
C643 C637 1.429 . S
C643 C644 1.523 . S
C644 C625 1.368 . S
C644 C638 1.368 . S
C644 C643 1.523 . S
C645 C629 1.461 . S
C645 C641 1.447 . S
C645 C646 1.477 1_655 S
C646 C630 1.368 . S
C646 C642 1.368 . S
C646 C645 1.477 1_455 S
H647 C622 0.950 . S
H648 C624 0.950 . S
H649 C625 0.949 . S
H650 C627 0.950 . S
H651 C629 0.950 . S
C652 C653 1.349 . S
C652 C654 1.327 . S
C652 H677 0.950 . S
C653 C652 1.349 . S
C653 C669 1.349 . S
C654 C652 1.327 . S
C654 C673 1.429 . S
C654 H678 0.950 . S
C655 C672 1.574 . S
C655 C674 1.368 . S
C655 H679 0.949 . S
H656 C660 0.949 . S
C657 C658 1.349 . S
C657 C659 1.327 . S
C657 H680 0.950 . S
C658 C657 1.349 . S
C658 C670 1.349 . S
C659 C657 1.327 . S
C659 C675 1.461 . S
C659 H681 0.950 . S
C660 H656 0.949 . S
C660 C668 1.574 . S
C660 C676 1.368 . S
H661 C669 0.950 . S
H662 C667 0.950 . S
H663 C668 0.949 . S
H664 C670 0.950 . S
H665 C671 0.971 . S
H666 C672 0.949 . S
C667 H662 0.950 . S
C667 C669 1.327 . S
C667 C673 1.429 . S
C668 C660 1.574 . S
C668 H663 0.949 . S
C668 C674 1.368 . S
C669 C653 1.349 . S
C669 H661 0.950 . S
C669 C667 1.327 . S
C670 C658 1.349 . S
C670 H664 0.950 . S
C670 C671 1.327 . S
C671 H665 0.971 . S
C671 C670 1.327 . S
C671 C675 1.448 . S
C672 C655 1.574 . S
C672 H666 0.949 . S
C672 C676 1.368 . S
C673 C654 1.429 . S
C673 C667 1.429 . S
C673 C674 1.523 . S
C674 C655 1.368 . S
C674 C668 1.368 . S
C674 C673 1.523 . S
C675 C659 1.461 . S
C675 C671 1.448 . S
C675 C676 1.477 1_545 S
C676 C660 1.368 . S
C676 C672 1.368 . S
C676 C675 1.477 1_565 S
H677 C652 0.950 . S
H678 C654 0.950 . S
H679 C655 0.949 . S
H680 C657 0.950 . S
H681 C659 0.950 . S
C682 C683 1.349 . S
C682 C684 1.327 . S
C682 H707 0.950 . S
C683 C682 1.349 . S
C683 C699 1.349 . S
C684 C682 1.327 . S
C684 C703 1.463 . S
C684 H708 0.950 . S
C685 C702 1.574 . S
C685 C704 1.368 . S
C685 H709 0.949 . S
H686 C690 0.949 . S
C687 C688 1.349 . S
C687 C689 1.327 . S
C687 H710 0.950 . S
C688 C687 1.349 . S
C688 C700 1.349 . S
C689 C687 1.327 . S
C689 C705 1.429 . S
C689 H711 0.950 . S
C690 H686 0.949 . S
C690 C698 1.574 . S
C690 C706 1.368 . S
H691 C699 0.950 . S
H692 C697 0.918 1_655 S
H693 C698 0.949 . S
H694 C700 0.950 . S
H695 C701 0.950 . S
H696 C702 0.949 . S
C697 H692 0.918 1_455 S
C697 C699 1.327 . S
C697 C703 1.446 . S
C698 C690 1.574 . S
C698 H693 0.949 . S
C698 C704 1.368 . S
C699 C683 1.349 . S
C699 H691 0.950 . S
C699 C697 1.327 . S
C700 C688 1.349 . S
C700 H694 0.950 . S
C700 C701 1.327 . S
C701 H695 0.950 . S
C701 C700 1.327 . S
C701 C705 1.429 . S
C702 C685 1.574 . S
C702 H696 0.949 . S
C702 C706 1.368 . S
C703 C684 1.463 . S
C703 C697 1.446 . S
C703 C704 1.477 1_455 S
C704 C685 1.368 . S
C704 C698 1.368 . S
C704 C703 1.477 1_655 S
C705 C689 1.429 . S
C705 C701 1.429 . S
C705 C706 1.523 . S
C706 C690 1.368 . S
C706 C702 1.368 . S
C706 C705 1.523 . S
H707 C682 0.950 . S
H708 C684 0.950 . S
H709 C685 0.949 . S
H710 C687 0.950 . S
H711 C689 0.950 . S
C712 C713 1.349 . S
C712 C714 1.327 . S
C712 H737 0.950 . S
C713 C712 1.349 . S
C713 C729 1.349 . S
C714 C712 1.327 . S
C714 C733 1.447 . S
C714 H738 0.947 1_545 S
C715 C732 1.574 . S
C715 C734 1.368 . S
C715 H739 0.949 . S
H716 C720 0.949 . S
C717 C718 1.349 . S
C717 C719 1.327 . S
C717 H740 0.950 . S
C718 C717 1.349 . S
C718 C730 1.349 . S
C719 C717 1.327 . S
C719 C735 1.429 . S
C719 H741 0.950 . S
C720 H716 0.949 . S
C720 C728 1.574 . S
C720 C736 1.368 . S
H721 C729 0.950 . S
H722 C727 0.950 . S
H723 C728 0.949 . S
H724 C730 0.950 . S
H725 C731 0.950 . S
H726 C732 0.949 . S
C727 H722 0.950 . S
C727 C729 1.327 . S
C727 C733 1.462 . S
C728 C720 1.574 . S
C728 H723 0.949 . S
C728 C734 1.368 . S
C729 C713 1.349 . S
C729 H721 0.950 . S
C729 C727 1.327 . S
C730 C718 1.349 . S
C730 H724 0.950 . S
C730 C731 1.327 . S
C731 H725 0.950 . S
C731 C730 1.327 . S
C731 C735 1.429 . S
C732 C715 1.574 . S
C732 H726 0.949 . S
C732 C736 1.368 . S
C733 C714 1.447 . S
C733 C727 1.462 . S
C733 C734 1.477 1_545 S
C734 C715 1.368 . S
C734 C728 1.368 . S
C734 C733 1.477 1_565 S
C735 C719 1.429 . S
C735 C731 1.429 . S
C735 C736 1.523 . S
C736 C720 1.368 . S
C736 C732 1.368 . S
C736 C735 1.523 . S
H737 C712 0.950 . S
H738 C714 0.947 1_565 S
H739 C715 0.949 . S
H740 C717 0.950 . S
H741 C719 0.950 . S
C742 C743 1.349 . S
C742 C744 1.327 . S
C742 H767 0.950 . S
C743 C742 1.349 . S
C743 C759 1.349 . S
C744 C742 1.327 . S
C744 C763 1.429 . S
C744 H768 0.950 . S
C745 C762 1.574 . S
C745 C764 1.368 . S
C745 H769 0.949 . S
H746 C750 0.949 . S
C747 C748 1.349 . S
C747 C749 1.327 . S
C747 H770 0.950 . S
C748 C747 1.349 . S
C748 C760 1.349 . S
C749 C747 1.327 . S
C749 C765 1.452 . S
C749 H771 0.950 . S
C750 H746 0.949 . S
C750 C758 1.574 . S
C750 C766 1.368 . S
H751 C759 0.950 . S
H752 C757 0.950 . S
H753 C758 0.949 . S
H754 C760 0.950 . S
H755 C761 0.950 . S
H756 C762 0.949 . S
C757 H752 0.950 . S
C757 C759 1.327 . S
C757 C763 1.429 . S
C758 C750 1.574 . S
C758 H753 0.949 . S
C758 C764 1.368 . S
C759 C743 1.349 . S
C759 H751 0.950 . S
C759 C757 1.327 . S
C760 C748 1.349 . S
C760 H754 0.950 . S
C760 C761 1.327 . S
C761 H755 0.950 . S
C761 C760 1.327 . S
C761 C765 1.457 . S
C762 C745 1.574 . S
C762 H756 0.949 . S
C762 C766 1.368 . S
C763 C744 1.429 . S
C763 C757 1.429 . S
C763 C764 1.523 . S
C764 C745 1.368 . S
C764 C758 1.368 . S
C764 C763 1.523 . S
C765 C749 1.452 . S
C765 C761 1.457 . S
C765 C766 1.477 1_455 S
C766 C750 1.368 . S
C766 C762 1.368 . S
C766 C765 1.477 1_655 S
H767 C742 0.950 . S
H768 C744 0.950 . S
H769 C745 0.949 . S
H770 C747 0.950 . S
H771 C749 0.950 . S
C772 C773 1.349 . S
C772 C774 1.327 . S
C772 H797 0.950 . S
C773 C772 1.349 . S
C773 C789 1.349 . S
C774 C772 1.327 . S
C774 C793 1.429 . S
C774 H798 0.950 . S
C775 C792 1.574 . S
C775 C794 1.368 . S
C775 H799 0.949 . S
H776 C780 0.949 . S
C777 C778 1.349 . S
C777 C779 1.327 . S
C777 H800 0.950 . S
C778 C777 1.349 . S
C778 C790 1.349 . S
C779 C777 1.327 . S
C779 C795 1.448 . S
C779 H801 0.973 . S
C780 H776 0.949 . S
C780 C788 1.574 . S
C780 C796 1.368 . S
H781 C789 0.950 . S
H782 C787 0.950 . S
H783 C788 0.949 . S
H784 C790 0.950 . S
H785 C791 0.950 . S
H786 C792 0.949 . S
C787 H782 0.950 . S
C787 C789 1.327 . S
C787 C793 1.429 . S
C788 C780 1.574 . S
C788 H783 0.949 . S
C788 C794 1.368 . S
C789 C773 1.349 . S
C789 H781 0.950 . S
C789 C787 1.327 . S
C790 C778 1.349 . S
C790 H784 0.950 . S
C790 C791 1.327 . S
C791 H785 0.950 . S
C791 C790 1.327 . S
C791 C795 1.461 . S
C792 C775 1.574 . S
C792 H786 0.949 . S
C792 C796 1.368 . S
C793 C774 1.429 . S
C793 C787 1.429 . S
C793 C794 1.523 . S
C794 C775 1.368 . S
C794 C788 1.368 . S
C794 C793 1.523 . S
C795 C779 1.448 . S
C795 C791 1.461 . S
C795 C796 1.477 1_565 S
C796 C780 1.368 . S
C796 C792 1.368 . S
C796 C795 1.477 1_545 S
H797 C772 0.950 . S
H798 C774 0.950 . S
H799 C775 0.949 . S
H800 C777 0.950 . S
H801 C779 0.973 . S
C802 C803 1.349 . S
C802 C804 1.327 . S
C802 H827 0.950 . S
C803 C802 1.349 . S
C803 C819 1.349 . S
C804 C802 1.327 . S
C804 C823 1.429 . S
C804 H828 0.950 . S
C805 C822 1.574 . S
C805 C824 1.368 . S
C805 H829 0.949 . S
H806 C810 0.949 . S
C807 C808 1.349 . S
C807 C809 1.327 . S
C807 H830 0.950 . S
C808 C807 1.349 . S
C808 C820 1.349 . S
C809 C807 1.327 . S
C809 C825 1.446 . S
C809 H831 0.920 1_655 S
C810 H806 0.949 . S
C810 C818 1.574 . S
C810 C826 1.368 . S
H811 C819 0.950 . S
H812 C817 0.950 . S
H813 C818 0.949 . S
H814 C820 0.950 . S
H815 C821 0.950 . S
H816 C822 0.949 . S
C817 H812 0.950 . S
C817 C819 1.327 . S
C817 C823 1.429 . S
C818 C810 1.574 . S
C818 H813 0.949 . S
C818 C824 1.368 . S
C819 C803 1.349 . S
C819 H811 0.950 . S
C819 C817 1.327 . S
C820 C808 1.349 . S
C820 H814 0.950 . S
C820 C821 1.327 . S
C821 H815 0.950 . S
C821 C820 1.327 . S
C821 C825 1.463 . S
C822 C805 1.574 . S
C822 H816 0.949 . S
C822 C826 1.368 . S
C823 C804 1.429 . S
C823 C817 1.429 . S
C823 C824 1.523 . S
C824 C805 1.368 . S
C824 C818 1.368 . S
C824 C823 1.523 . S
C825 C809 1.446 . S
C825 C821 1.463 . S
C825 C826 1.477 1_655 S
C826 C810 1.368 . S
C826 C822 1.368 . S
C826 C825 1.477 1_455 S
H827 C802 0.950 . S
H828 C804 0.950 . S
H829 C805 0.949 . S
H830 C807 0.950 . S
H831 C809 0.920 1_455 S
C832 C833 1.349 . S
C832 C834 1.327 . S
C832 H857 0.950 . S
C833 C832 1.349 . S
C833 C849 1.349 . S
C834 C832 1.327 . S
C834 C853 1.429 . S
C834 H858 0.950 . S
C835 C852 1.574 . S
C835 C854 1.368 . S
C835 H859 0.949 . S
H836 C840 0.949 . S
C837 C838 1.349 . S
C837 C839 1.327 . S
C837 H860 0.950 . S
C838 C837 1.349 . S
C838 C850 1.349 . S
C839 C837 1.327 . S
C839 C855 1.429 . S
C839 H861 0.950 . S
C840 H836 0.949 . S
C840 C848 1.574 . S
C840 C856 1.368 . S
H841 C849 0.950 . S
H842 C847 0.950 . S
H843 C848 0.949 . S
H844 C850 0.950 . S
H845 C851 0.950 . S
H846 C852 0.949 . S
C847 H842 0.950 . S
C847 C849 1.327 . S
C847 C853 1.429 . S
C848 C840 1.574 . S
C848 H843 0.949 . S
C848 C854 1.368 . S
C849 C833 1.349 . S
C849 H841 0.950 . S
C849 C847 1.327 . S
C850 C838 1.349 . S
C850 H844 0.950 . S
C850 C851 1.327 . S
C851 H845 0.950 . S
C851 C850 1.327 . S
C851 C855 1.429 . S
C852 C835 1.574 . S
C852 H846 0.949 . S
C852 C856 1.368 . S
C853 C834 1.429 . S
C853 C847 1.429 . S
C853 C854 1.523 . S
C854 C835 1.368 . S
C854 C848 1.368 . S
C854 C853 1.523 . S
C855 C839 1.429 . S
C855 C851 1.429 . S
C855 C856 1.523 . S
C856 C840 1.368 . S
C856 C852 1.368 . S
C856 C855 1.523 . S
H857 C832 0.950 . S
H858 C834 0.950 . S
H859 C835 0.949 . S
H860 C837 0.950 . S
H861 C839 0.950 . S
C862 C863 1.349 . S
C862 C864 1.327 . S
C862 H887 0.950 . S
C863 C862 1.349 . S
C863 C879 1.349 . S
C864 C862 1.327 . S
C864 C883 1.429 . S
C864 H888 0.950 . S
C865 C882 1.574 . S
C865 C884 1.368 . S
C865 H889 0.949 . S
H866 C870 0.949 . S
C867 C868 1.349 . S
C867 C869 1.327 . S
C867 H890 0.950 . S
C868 C867 1.349 . S
C868 C880 1.349 . S
C869 C867 1.327 . S
C869 C885 1.429 . S
C869 H891 0.950 . S
C870 H866 0.949 . S
C870 C878 1.574 . S
C870 C886 1.368 . S
H871 C879 0.950 . S
H872 C877 0.950 . S
H873 C878 0.949 . S
H874 C880 0.950 . S
H875 C881 0.950 . S
H876 C882 0.949 . S
C877 H872 0.950 . S
C877 C879 1.327 . S
C877 C883 1.429 . S
C878 C870 1.574 . S
C878 H873 0.949 . S
C878 C884 1.368 . S
C879 C863 1.349 . S
C879 H871 0.950 . S
C879 C877 1.327 . S
C880 C868 1.349 . S
C880 H874 0.950 . S
C880 C881 1.327 . S
C881 H875 0.950 . S
C881 C880 1.327 . S
C881 C885 1.429 . S
C882 C865 1.574 . S
C882 H876 0.949 . S
C882 C886 1.368 . S
C883 C864 1.429 . S
C883 C877 1.429 . S
C883 C884 1.523 . S
C884 C865 1.368 . S
C884 C878 1.368 . S
C884 C883 1.523 . S
C885 C869 1.429 . S
C885 C881 1.429 . S
C885 C886 1.523 . S
C886 C870 1.368 . S
C886 C882 1.368 . S
C886 C885 1.523 . S
H887 C862 0.950 . S
H888 C864 0.950 . S
H889 C865 0.949 . S
H890 C867 0.950 . S
H891 C869 0.950 . S
C892 C893 1.349 . S
C892 C894 1.327 . S
C892 H917 0.950 . S
C893 C892 1.349 . S
C893 C909 1.349 . S
C894 C892 1.327 . S
C894 C913 1.429 . S
C894 H918 0.950 . S
C895 C912 1.574 . S
C895 C914 1.368 . S
C895 H919 0.949 . S
H896 C900 0.949 . S
C897 C898 1.349 . S
C897 C899 1.327 . S
C897 H920 0.950 . S
C898 C897 1.349 . S
C898 C910 1.349 . S
C899 C897 1.327 . S
C899 C915 1.429 . S
C899 H921 0.950 . S
C900 H896 0.949 . S
C900 C908 1.574 . S
C900 C916 1.368 . S
H901 C909 0.950 . S
H902 C907 0.950 . S
H903 C908 0.949 . S
H904 C910 0.950 . S
H905 C911 0.950 . S
H906 C912 0.949 . S
C907 H902 0.950 . S
C907 C909 1.327 . S
C907 C913 1.429 . S
C908 C900 1.574 . S
C908 H903 0.949 . S
C908 C914 1.368 . S
C909 C893 1.349 . S
C909 H901 0.950 . S
C909 C907 1.327 . S
C910 C898 1.349 . S
C910 H904 0.950 . S
C910 C911 1.327 . S
C911 H905 0.950 . S
C911 C910 1.327 . S
C911 C915 1.429 . S
C912 C895 1.574 . S
C912 H906 0.949 . S
C912 C916 1.368 . S
C913 C894 1.429 . S
C913 C907 1.429 . S
C913 C914 1.523 . S
C914 C895 1.368 . S
C914 C908 1.368 . S
C914 C913 1.523 . S
C915 C899 1.429 . S
C915 C911 1.429 . S
C915 C916 1.523 . S
C916 C900 1.368 . S
C916 C912 1.368 . S
C916 C915 1.523 . S
H917 C892 0.950 . S
H918 C894 0.950 . S
H919 C895 0.949 . S
H920 C897 0.950 . S
H921 C899 0.950 . S
C922 C923 1.349 . S
C922 C924 1.327 . S
C922 H947 0.950 . S
C923 C922 1.349 . S
C923 C939 1.349 . S
C924 C922 1.327 . S
C924 C943 1.429 . S
C924 H948 0.950 . S
C925 C942 1.574 . S
C925 C944 1.368 . S
C925 H949 0.949 . S
H926 C930 0.949 . S
C927 C928 1.349 . S
C927 C929 1.327 . S
C927 H950 0.950 . S
C928 C927 1.349 . S
C928 C940 1.349 . S
C929 C927 1.327 . S
C929 C945 1.429 . S
C929 H951 0.950 . S
C930 H926 0.949 . S
C930 C938 1.574 . S
C930 C946 1.368 . S
H931 C939 0.950 . S
H932 C937 0.950 . S
H933 C938 0.949 . S
H934 C940 0.950 . S
H935 C941 0.950 . S
H936 C942 0.949 . S
C937 H932 0.950 . S
C937 C939 1.327 . S
C937 C943 1.429 . S
C938 C930 1.574 . S
C938 H933 0.949 . S
C938 C944 1.368 . S
C939 C923 1.349 . S
C939 H931 0.950 . S
C939 C937 1.327 . S
C940 C928 1.349 . S
C940 H934 0.950 . S
C940 C941 1.327 . S
C941 H935 0.950 . S
C941 C940 1.327 . S
C941 C945 1.429 . S
C942 C925 1.574 . S
C942 H936 0.949 . S
C942 C946 1.368 . S
C943 C924 1.429 . S
C943 C937 1.429 . S
C943 C944 1.523 . S
C944 C925 1.368 . S
C944 C938 1.368 . S
C944 C943 1.523 . S
C945 C929 1.429 . S
C945 C941 1.429 . S
C945 C946 1.523 . S
C946 C930 1.368 . S
C946 C942 1.368 . S
C946 C945 1.523 . S
H947 C922 0.950 . S
H948 C924 0.950 . S
H949 C925 0.949 . S
H950 C927 0.950 . S
H951 C929 0.950 . S
C952 C953 1.349 . S
C952 C954 1.327 . S
C952 H977 0.950 . S
C953 C952 1.349 . S
C953 C969 1.349 . S
C954 C952 1.327 . S
C954 C973 1.429 . S
C954 H978 0.950 . S
C955 C972 1.574 . S
C955 C974 1.368 1_565 S
C955 H979 0.949 . S
H956 C960 0.949 . S
C957 C958 1.349 . S
C957 C959 1.327 . S
C957 H980 0.950 . S
C958 C957 1.349 . S
C958 C970 1.349 . S
C959 C957 1.327 . S
C959 C975 1.429 . S
C959 H981 0.950 . S
C960 H956 0.949 . S
C960 C968 1.574 . S
C960 C976 1.368 1_545 S
H961 C969 0.950 . S
H962 C967 0.950 . S
H963 C968 0.949 . S
H964 C970 0.950 . S
H965 C971 0.950 . S
H966 C972 0.949 . S
C967 H962 0.950 . S
C967 C969 1.327 . S
C967 C973 1.429 . S
C968 C960 1.574 . S
C968 H963 0.949 . S
C968 C974 1.368 1_556 S
C969 C953 1.349 . S
C969 H961 0.950 . S
C969 C967 1.327 . S
C970 C958 1.349 . S
C970 H964 0.950 . S
C970 C971 1.327 . S
C971 H965 0.950 . S
C971 C970 1.327 . S
C971 C975 1.429 . S
C972 C955 1.574 . S
C972 H966 0.949 . S
C972 C976 1.368 1_554 S
C973 C954 1.429 . S
C973 C967 1.429 . S
C973 C974 1.523 . S
C974 C955 1.368 1_545 S
C974 C968 1.368 1_554 S
C974 C973 1.523 . S
C975 C959 1.429 . S
C975 C971 1.429 . S
C975 C976 1.523 . S
C976 C960 1.368 1_565 S
C976 C972 1.368 1_556 S
C976 C975 1.523 . S
H977 C952 0.950 . S
H978 C954 0.950 . S
H979 C955 0.949 . S
H980 C957 0.950 . S
H981 C959 0.950 . S
C982 C983 1.349 . S
C982 C984 1.327 . S
C982 H1007 0.950 . S
C983 C982 1.349 . S
C983 C999 1.349 . S
C984 C982 1.327 . S
C984 C1003 1.429 . S
C984 H1008 0.950 . S
C985 C1002 1.568 1_654 S
C985 C1004 1.368 . S
C985 H1009 0.949 . S
H986 C990 0.949 . S
C987 C988 1.349 . S
C987 C989 1.327 . S
C987 H1010 0.950 . S
C988 C987 1.349 . S
C988 C1000 1.349 . S
C989 C987 1.327 . S
C989 C1005 1.429 . S
C989 H1011 0.950 . S
C990 H986 0.949 . S
C990 C998 1.568 1_456 S
C990 C1006 1.368 . S
H991 C999 0.950 . S
H992 C997 0.950 . S
H993 C998 0.949 . S
H994 C1000 0.950 . S
H995 C1001 0.950 . S
H996 C1002 0.949 . S
C997 H992 0.950 . S
C997 C999 1.327 . S
C997 C1003 1.429 . S
C998 C990 1.568 1_654 S
C998 H993 0.949 . S
C998 C1004 1.374 . S
C999 C983 1.349 . S
C999 H991 0.950 . S
C999 C997 1.327 . S
C1000 C988 1.349 . S
C1000 H994 0.950 . S
C1000 C1001 1.327 . S
C1001 H995 0.950 . S
C1001 C1000 1.327 . S
C1001 C1005 1.429 . S
C1002 C985 1.568 1_456 S
C1002 H996 0.949 . S
C1002 C1006 1.374 . S
C1003 C984 1.429 . S
C1003 C997 1.429 . S
C1003 C1004 1.523 . S
C1004 C985 1.368 . S
C1004 C998 1.374 . S
C1004 C1003 1.523 . S
C1005 C989 1.429 . S
C1005 C1001 1.429 . S
C1005 C1006 1.523 . S
C1006 C990 1.368 . S
C1006 C1002 1.374 . S
C1006 C1005 1.523 . S
H1007 C982 0.950 . S
H1008 C984 0.950 . S
H1009 C985 0.949 . S
H1010 C987 0.950 . S
H1011 C989 0.950 . S
C1012 C1013 1.349 . S
C1012 C1014 1.327 . S
C1012 H1037 0.950 . S
C1013 C1012 1.349 . S
C1013 C1029 1.349 . S
C1014 C1012 1.327 . S
C1014 C1033 1.429 . S
C1014 H1038 0.950 . S
C1015 C1032 1.574 . S
C1015 C1034 1.368 1_554 S
C1015 H1039 0.949 . S
H1016 C1020 0.949 . S
C1017 C1018 1.349 . S
C1017 C1019 1.327 . S
C1017 H1040 0.950 . S
C1018 C1017 1.349 . S
C1018 C1030 1.349 . S
C1019 C1017 1.327 . S
C1019 C1035 1.429 . S
C1019 H1041 0.950 . S
C1020 H1016 0.949 . S
C1020 C1028 1.574 . S
C1020 C1036 1.368 1_556 S
H1021 C1029 0.950 . S
H1022 C1027 0.950 . S
H1023 C1028 0.949 . S
H1024 C1030 0.950 . S
H1025 C1031 0.950 . S
H1026 C1032 0.949 . S
C1027 H1022 0.950 . S
C1027 C1029 1.327 . S
C1027 C1033 1.429 . S
C1028 C1020 1.574 . S
C1028 H1023 0.949 . S
C1028 C1034 1.368 1_565 S
C1029 C1013 1.349 . S
C1029 H1021 0.950 . S
C1029 C1027 1.327 . S
C1030 C1018 1.349 . S
C1030 H1024 0.950 . S
C1030 C1031 1.327 . S
C1031 H1025 0.950 . S
C1031 C1030 1.327 . S
C1031 C1035 1.429 . S
C1032 C1015 1.574 . S
C1032 H1026 0.949 . S
C1032 C1036 1.368 1_545 S
C1033 C1014 1.429 . S
C1033 C1027 1.429 . S
C1033 C1034 1.523 . S
C1034 C1015 1.368 1_556 S
C1034 C1028 1.368 1_545 S
C1034 C1033 1.523 . S
C1035 C1019 1.429 . S
C1035 C1031 1.429 . S
C1035 C1036 1.523 . S
C1036 C1020 1.368 1_554 S
C1036 C1032 1.368 1_565 S
C1036 C1035 1.523 . S
H1037 C1012 0.950 . S
H1038 C1014 0.950 . S
H1039 C1015 0.949 . S
H1040 C1017 0.950 . S
H1041 C1019 0.950 . S
C1042 C1043 1.349 . S
C1042 C1044 1.327 . S
C1042 H1067 0.950 . S
C1043 C1042 1.349 . S
C1043 C1059 1.349 . S
C1044 C1042 1.327 . S
C1044 C1063 1.429 . S
C1044 H1068 0.950 . S
C1045 C1062 1.568 1_656 S
C1045 C1064 1.368 . S
C1045 H1069 0.949 . S
H1046 C1050 0.949 . S
C1047 C1048 1.349 . S
C1047 C1049 1.327 . S
C1047 H1070 0.950 . S
C1048 C1047 1.349 . S
C1048 C1060 1.349 . S
C1049 C1047 1.327 . S
C1049 C1065 1.429 . S
C1049 H1071 0.950 . S
C1050 H1046 0.949 . S
C1050 C1058 1.568 1_454 S
C1050 C1066 1.368 . S
H1051 C1059 0.950 . S
H1052 C1057 0.950 . S
H1053 C1058 0.949 . S
H1054 C1060 0.950 . S
H1055 C1061 0.950 . S
H1056 C1062 0.949 . S
C1057 H1052 0.950 . S
C1057 C1059 1.327 . S
C1057 C1063 1.429 . S
C1058 C1050 1.568 1_656 S
C1058 H1053 0.949 . S
C1058 C1064 1.374 . S
C1059 C1043 1.349 . S
C1059 H1051 0.950 . S
C1059 C1057 1.327 . S
C1060 C1048 1.349 . S
C1060 H1054 0.950 . S
C1060 C1061 1.327 . S
C1061 H1055 0.950 . S
C1061 C1060 1.327 . S
C1061 C1065 1.429 . S
C1062 C1045 1.568 1_454 S
C1062 H1056 0.949 . S
C1062 C1066 1.374 . S
C1063 C1044 1.429 . S
C1063 C1057 1.429 . S
C1063 C1064 1.523 . S
C1064 C1045 1.368 . S
C1064 C1058 1.374 . S
C1064 C1063 1.523 . S
C1065 C1049 1.429 . S
C1065 C1061 1.429 . S
C1065 C1066 1.523 . S
C1066 C1050 1.368 . S
C1066 C1062 1.374 . S
C1066 C1065 1.523 . S
H1067 C1042 0.950 . S
H1068 C1044 0.950 . S
H1069 C1045 0.949 . S
H1070 C1047 0.950 . S
H1071 C1049 0.950 . S
C1072 C1073 1.349 . S
C1072 C1074 1.327 . S
C1072 H1097 0.950 . S
C1073 C1072 1.349 . S
C1073 C1089 1.349 . S
C1074 C1072 1.327 . S
C1074 C1093 1.429 . S
C1074 H1098 0.950 . S
C1075 C1092 1.574 . S
C1075 C1094 1.368 . S
C1075 H1099 0.949 . S
H1076 C1080 0.949 . S
C1077 C1078 1.349 . S
C1077 C1079 1.327 . S
C1077 H1100 0.950 . S
C1078 C1077 1.349 . S
C1078 C1090 1.349 . S
C1079 C1077 1.327 . S
C1079 C1095 1.429 1_556 S
C1079 H1101 0.950 . S
C1080 H1076 0.949 . S
C1080 C1088 1.574 . S
C1080 C1096 1.368 . S
H1081 C1089 0.950 . S
H1082 C1087 0.950 . S
H1083 C1088 0.949 . S
H1084 C1090 0.950 . S
H1085 C1091 0.950 . S
H1086 C1092 0.949 . S
C1087 H1082 0.950 . S
C1087 C1089 1.327 . S
C1087 C1093 1.429 . S
C1088 C1080 1.574 . S
C1088 H1083 0.949 . S
C1088 C1094 1.368 . S
C1089 C1073 1.349 . S
C1089 H1081 0.950 . S
C1089 C1087 1.327 . S
C1090 C1078 1.349 . S
C1090 H1084 0.950 . S
C1090 C1091 1.327 1_556 S
C1091 H1085 0.950 . S
C1091 C1090 1.327 1_554 S
C1091 C1095 1.429 . S
C1092 C1075 1.574 . S
C1092 H1086 0.949 . S
C1092 C1096 1.368 . S
C1093 C1074 1.429 . S
C1093 C1087 1.429 . S
C1093 C1094 1.523 . S
C1094 C1075 1.368 . S
C1094 C1088 1.368 . S
C1094 C1093 1.523 . S
C1095 C1079 1.429 1_554 S
C1095 C1091 1.429 . S
C1095 C1096 1.523 . S
C1096 C1080 1.368 . S
C1096 C1092 1.368 . S
C1096 C1095 1.523 . S
H1097 C1072 0.950 . S
H1098 C1074 0.950 . S
H1099 C1075 0.949 . S
H1100 C1077 0.950 . S
H1101 C1079 0.950 . S
C1102 C1103 1.349 . S
C1102 C1104 1.327 . S
C1102 H1127 0.950 . S
C1103 C1102 1.349 . S
C1103 C1119 1.349 . S
C1104 C1102 1.327 . S
C1104 C1123 1.429 1_554 S
C1104 H1128 0.950 1_554 S
C1105 C1122 1.574 . S
C1105 C1124 1.368 . S
C1105 H1129 0.949 . S
H1106 C1110 0.949 . S
C1107 C1108 1.349 . S
C1107 C1109 1.327 . S
C1107 H1130 0.950 . S
C1108 C1107 1.349 . S
C1108 C1120 1.349 . S
C1109 C1107 1.327 . S
C1109 C1125 1.429 . S
C1109 H1131 0.950 . S
C1110 H1106 0.949 . S
C1110 C1118 1.574 . S
C1110 C1126 1.368 . S
H1111 C1119 0.950 . S
H1112 C1117 0.950 . S
H1113 C1118 0.949 . S
H1114 C1120 0.950 . S
H1115 C1121 0.950 . S
H1116 C1122 0.949 . S
C1117 H1112 0.950 . S
C1117 C1119 1.327 . S
C1117 C1123 1.429 1_554 S
C1118 C1110 1.574 . S
C1118 H1113 0.949 . S
C1118 C1124 1.368 . S
C1119 C1103 1.349 . S
C1119 H1111 0.950 . S
C1119 C1117 1.327 . S
C1120 C1108 1.349 . S
C1120 H1114 0.950 . S
C1120 C1121 1.327 . S
C1121 H1115 0.950 . S
C1121 C1120 1.327 . S
C1121 C1125 1.429 . S
C1122 C1105 1.574 . S
C1122 H1116 0.949 . S
C1122 C1126 1.368 . S
C1123 C1104 1.429 1_556 S
C1123 C1117 1.429 1_556 S
C1123 C1124 1.523 . S
C1124 C1105 1.368 . S
C1124 C1118 1.368 . S
C1124 C1123 1.523 . S
C1125 C1109 1.429 . S
C1125 C1121 1.429 . S
C1125 C1126 1.523 . S
C1126 C1110 1.368 . S
C1126 C1122 1.368 . S
C1126 C1125 1.523 . S
H1127 C1102 0.950 . S
H1128 C1104 0.950 1_556 S
H1129 C1105 0.949 . S
H1130 C1107 0.950 . S
H1131 C1109 0.950 . S
C1132 C1133 1.349 . S
C1132 C1134 1.327 . S
C1132 H1157 0.950 . S
C1133 C1132 1.349 . S
C1133 C1149 1.349 . S
C1134 C1132 1.327 . S
C1134 C1153 1.429 1_556 S
C1134 H1158 0.950 1_556 S
C1135 C1152 1.574 . S
C1135 C1154 1.368 . S
C1135 H1159 0.949 . S
H1136 C1140 0.949 . S
C1137 C1138 1.349 . S
C1137 C1139 1.327 . S
C1137 H1160 0.950 . S
C1138 C1137 1.349 . S
C1138 C1150 1.349 . S
C1139 C1137 1.327 . S
C1139 C1155 1.429 . S
C1139 H1161 0.950 . S
C1140 H1136 0.949 . S
C1140 C1148 1.574 . S
C1140 C1156 1.368 . S
H1141 C1149 0.950 . S
H1142 C1147 0.950 . S
H1143 C1148 0.949 . S
H1144 C1150 0.950 . S
H1145 C1151 0.950 . S
H1146 C1152 0.949 . S
C1147 H1142 0.950 . S
C1147 C1149 1.327 . S
C1147 C1153 1.429 1_556 S
C1148 C1140 1.574 . S
C1148 H1143 0.949 . S
C1148 C1154 1.368 . S
C1149 C1133 1.349 . S
C1149 H1141 0.950 . S
C1149 C1147 1.327 . S
C1150 C1138 1.349 . S
C1150 H1144 0.950 . S
C1150 C1151 1.327 . S
C1151 H1145 0.950 . S
C1151 C1150 1.327 . S
C1151 C1155 1.429 . S
C1152 C1135 1.574 . S
C1152 H1146 0.949 . S
C1152 C1156 1.368 . S
C1153 C1134 1.429 1_554 S
C1153 C1147 1.429 1_554 S
C1153 C1154 1.523 . S
C1154 C1135 1.368 . S
C1154 C1148 1.368 . S
C1154 C1153 1.523 . S
C1155 C1139 1.429 . S
C1155 C1151 1.429 . S
C1155 C1156 1.523 . S
C1156 C1140 1.368 . S
C1156 C1152 1.368 . S
C1156 C1155 1.523 . S
H1157 C1132 0.950 . S
H1158 C1134 0.950 1_554 S
H1159 C1135 0.949 . S
H1160 C1137 0.950 . S
H1161 C1139 0.950 . S
C1162 C1163 1.349 . S
C1162 C1164 1.327 1_554 S
C1162 H1187 0.950 . S
C1163 C1162 1.349 . S
C1163 C1179 1.349 . S
C1164 C1162 1.327 1_556 S
C1164 C1183 1.429 . S
C1164 H1188 0.950 . S
C1165 C1182 1.574 . S
C1165 C1184 1.368 . S
C1165 H1189 0.949 . S
H1166 C1170 0.949 . S
C1167 C1168 1.349 . S
C1167 C1169 1.327 . S
C1167 H1190 0.950 . S
C1168 C1167 1.349 . S
C1168 C1180 1.349 . S
C1169 C1167 1.327 . S
C1169 C1185 1.429 . S
C1169 H1191 0.950 . S
C1170 H1166 0.949 . S
C1170 C1178 1.574 . S
C1170 C1186 1.368 . S
H1171 C1179 0.950 . S
H1172 C1177 0.950 . S
H1173 C1178 0.949 . S
H1174 C1180 0.950 . S
H1175 C1181 0.950 . S
H1176 C1182 0.949 . S
C1177 H1172 0.950 . S
C1177 C1179 1.327 . S
C1177 C1183 1.429 1_554 S
C1178 C1170 1.574 . S
C1178 H1173 0.949 . S
C1178 C1184 1.368 . S
C1179 C1163 1.349 . S
C1179 H1171 0.950 . S
C1179 C1177 1.327 . S
C1180 C1168 1.349 . S
C1180 H1174 0.950 . S
C1180 C1181 1.327 . S
C1181 H1175 0.950 . S
C1181 C1180 1.327 . S
C1181 C1185 1.429 . S
C1182 C1165 1.574 . S
C1182 H1176 0.949 . S
C1182 C1186 1.368 . S
C1183 C1164 1.429 . S
C1183 C1177 1.429 1_556 S
C1183 C1184 1.523 . S
C1184 C1165 1.368 . S
C1184 C1178 1.368 . S
C1184 C1183 1.523 . S
C1185 C1169 1.429 . S
C1185 C1181 1.429 . S
C1185 C1186 1.523 . S
C1186 C1170 1.368 . S
C1186 C1182 1.368 . S
C1186 C1185 1.523 . S
H1187 C1162 0.950 . S
H1188 C1164 0.950 . S
H1189 C1165 0.949 . S
H1190 C1167 0.950 . S
H1191 C1169 0.950 . S
C1192 C1193 1.349 . S
C1192 C1194 1.327 . S
C1192 H1217 0.950 . S
C1193 C1192 1.349 . S
C1193 C1209 1.349 . S
C1194 C1192 1.327 . S
C1194 C1213 1.429 . S
C1194 H1218 0.950 . S
C1195 C1212 1.574 . S
C1195 C1214 1.368 . S
C1195 H1219 0.949 . S
H1196 C1200 0.949 . S
C1197 C1198 1.349 . S
C1197 C1199 1.327 . S
C1197 H1220 0.950 . S
C1198 C1197 1.349 . S
C1198 C1210 1.349 . S
C1199 C1197 1.327 . S
C1199 C1215 1.429 1_554 S
C1199 H1221 0.950 . S
C1200 H1196 0.949 . S
C1200 C1208 1.574 . S
C1200 C1216 1.368 . S
H1201 C1209 0.950 . S
H1202 C1207 0.950 . S
H1203 C1208 0.949 . S
H1204 C1210 0.950 . S
H1205 C1211 0.950 1_556 S
H1206 C1212 0.949 . S
C1207 H1202 0.950 . S
C1207 C1209 1.327 . S
C1207 C1213 1.429 . S
C1208 C1200 1.574 . S
C1208 H1203 0.949 . S
C1208 C1214 1.368 . S
C1209 C1193 1.349 . S
C1209 H1201 0.950 . S
C1209 C1207 1.327 . S
C1210 C1198 1.349 . S
C1210 H1204 0.950 . S
C1210 C1211 1.327 . S
C1211 H1205 0.950 1_554 S
C1211 C1210 1.327 . S
C1211 C1215 1.429 1_554 S
C1212 C1195 1.574 . S
C1212 H1206 0.949 . S
C1212 C1216 1.368 . S
C1213 C1194 1.429 . S
C1213 C1207 1.429 . S
C1213 C1214 1.523 . S
C1214 C1195 1.368 . S
C1214 C1208 1.368 . S
C1214 C1213 1.523 . S
C1215 C1199 1.429 1_556 S
C1215 C1211 1.429 1_556 S
C1215 C1216 1.523 . S
C1216 C1200 1.368 . S
C1216 C1212 1.368 . S
C1216 C1215 1.523 . S
H1217 C1192 0.950 . S
H1218 C1194 0.950 . S
H1219 C1195 0.949 . S
H1220 C1197 0.950 . S
H1221 C1199 0.950 . S
C1222 C1223 1.349 . S
C1222 C1224 1.327 . S
C1222 H1247 0.950 . S
C1223 C1222 1.349 . S
C1223 C1239 1.349 . S
C1224 C1222 1.327 . S
C1224 C1243 1.429 . S
C1224 H1248 0.950 . S
C1225 C1242 1.574 . S
C1225 C1244 1.368 . S
C1225 H1249 0.949 . S
H1226 C1230 0.949 . S
C1227 C1228 1.349 . S
C1227 C1229 1.327 . S
C1227 H1250 0.950 . S
C1228 C1227 1.349 . S
C1228 C1240 1.349 . S
C1229 C1227 1.327 . S
C1229 C1245 1.429 1_556 S
C1229 H1251 0.950 . S
C1230 H1226 0.949 . S
C1230 C1238 1.574 . S
C1230 C1246 1.368 . S
H1231 C1239 0.950 . S
H1232 C1237 0.950 . S
H1233 C1238 0.949 . S
H1234 C1240 0.950 . S
H1235 C1241 0.950 . S
H1236 C1242 0.949 . S
C1237 H1232 0.950 . S
C1237 C1239 1.327 . S
C1237 C1243 1.429 . S
C1238 C1230 1.574 . S
C1238 H1233 0.949 . S
C1238 C1244 1.368 . S
C1239 C1223 1.349 . S
C1239 H1231 0.950 . S
C1239 C1237 1.327 . S
C1240 C1228 1.349 . S
C1240 H1234 0.950 . S
C1240 C1241 1.327 1_556 S
C1241 H1235 0.950 . S
C1241 C1240 1.327 1_554 S
C1241 C1245 1.429 . S
C1242 C1225 1.574 . S
C1242 H1236 0.949 . S
C1242 C1246 1.368 . S
C1243 C1224 1.429 . S
C1243 C1237 1.429 . S
C1243 C1244 1.523 . S
C1244 C1225 1.368 . S
C1244 C1238 1.368 . S
C1244 C1243 1.523 . S
C1245 C1229 1.429 1_554 S
C1245 C1241 1.429 . S
C1245 C1246 1.523 . S
C1246 C1230 1.368 . S
C1246 C1242 1.368 . S
C1246 C1245 1.523 . S
H1247 C1222 0.950 . S
H1248 C1224 0.950 . S
H1249 C1225 0.949 . S
H1250 C1227 0.950 . S
H1251 C1229 0.950 . S
C1252 C1253 1.349 . S
C1252 C1254 1.327 . S
C1252 H1277 0.950 . S
C1253 C1252 1.349 . S
C1253 C1269 1.349 . S
C1254 C1252 1.327 . S
C1254 C1273 1.429 . S
C1254 H1278 0.950 . S
C1255 C1272 1.574 . S
C1255 C1274 1.368 . S
C1255 H1279 0.949 . S
H1256 C1260 0.949 . S
C1257 C1258 1.349 . S
C1257 C1259 1.327 . S
C1257 H1280 0.950 . S
C1258 C1257 1.349 . S
C1258 C1270 1.349 . S
C1259 C1257 1.327 . S
C1259 C1275 1.429 1_554 S
C1259 H1281 0.950 . S
C1260 H1256 0.949 . S
C1260 C1268 1.574 . S
C1260 C1276 1.368 . S
H1261 C1269 0.950 . S
H1262 C1267 0.950 . S
H1263 C1268 0.949 . S
H1264 C1270 0.950 . S
H1265 C1271 0.950 . S
H1266 C1272 0.949 . S
C1267 H1262 0.950 . S
C1267 C1269 1.327 . S
C1267 C1273 1.429 . S
C1268 C1260 1.574 . S
C1268 H1263 0.949 . S
C1268 C1274 1.368 . S
C1269 C1253 1.349 . S
C1269 H1261 0.950 . S
C1269 C1267 1.327 . S
C1270 C1258 1.349 . S
C1270 H1264 0.950 . S
C1270 C1271 1.327 1_554 S
C1271 H1265 0.950 . S
C1271 C1270 1.327 1_556 S
C1271 C1275 1.429 . S
C1272 C1255 1.574 . S
C1272 H1266 0.949 . S
C1272 C1276 1.368 . S
C1273 C1254 1.429 . S
C1273 C1267 1.429 . S
C1273 C1274 1.523 . S
C1274 C1255 1.368 . S
C1274 C1268 1.368 . S
C1274 C1273 1.523 . S
C1275 C1259 1.429 1_556 S
C1275 C1271 1.429 . S
C1275 C1276 1.523 . S
C1276 C1260 1.368 . S
C1276 C1272 1.368 . S
C1276 C1275 1.523 . S
H1277 C1252 0.950 . S
H1278 C1254 0.950 . S
H1279 C1255 0.949 . S
H1280 C1257 0.950 . S
H1281 C1259 0.950 . S
C1282 C1283 1.349 . S
C1282 C1284 1.327 . S
C1282 H1307 0.950 . S
C1283 C1282 1.349 . S
C1283 C1299 1.349 . S
C1284 C1282 1.327 . S
C1284 C1303 1.429 1_556 S
C1284 H1308 0.950 . S
C1285 C1302 1.574 . S
C1285 C1304 1.368 . S
C1285 H1309 0.949 . S
H1286 C1290 0.949 . S
C1287 C1288 1.349 . S
C1287 C1289 1.327 . S
C1287 H1310 0.950 . S
C1288 C1287 1.349 . S
C1288 C1300 1.349 . S
C1289 C1287 1.327 . S
C1289 C1305 1.429 . S
C1289 H1311 0.950 . S
C1290 H1286 0.949 . S
C1290 C1298 1.574 . S
C1290 C1306 1.368 . S
H1291 C1299 0.950 . S
H1292 C1297 0.950 1_554 S
H1293 C1298 0.949 . S
H1294 C1300 0.950 . S
H1295 C1301 0.950 . S
H1296 C1302 0.949 . S
C1297 H1292 0.950 1_556 S
C1297 C1299 1.327 . S
C1297 C1303 1.429 1_556 S
C1298 C1290 1.574 . S
C1298 H1293 0.949 . S
C1298 C1304 1.368 . S
C1299 C1283 1.349 . S
C1299 H1291 0.950 . S
C1299 C1297 1.327 . S
C1300 C1288 1.349 . S
C1300 H1294 0.950 . S
C1300 C1301 1.327 . S
C1301 H1295 0.950 . S
C1301 C1300 1.327 . S
C1301 C1305 1.429 . S
C1302 C1285 1.574 . S
C1302 H1296 0.949 . S
C1302 C1306 1.368 . S
C1303 C1284 1.429 1_554 S
C1303 C1297 1.429 1_554 S
C1303 C1304 1.523 . S
C1304 C1285 1.368 . S
C1304 C1298 1.368 . S
C1304 C1303 1.523 . S
C1305 C1289 1.429 . S
C1305 C1301 1.429 . S
C1305 C1306 1.523 . S
C1306 C1290 1.368 . S
C1306 C1302 1.368 . S
C1306 C1305 1.523 . S
H1307 C1282 0.950 . S
H1308 C1284 0.950 . S
H1309 C1285 0.949 . S
H1310 C1287 0.950 . S
H1311 C1289 0.950 . S
C1312 C1313 1.349 . S
C1312 C1314 1.327 . S
C1312 H1337 0.950 . S
C1313 C1312 1.349 . S
C1313 C1329 1.349 . S
C1314 C1312 1.327 . S
C1314 C1333 1.429 . S
C1314 H1338 0.950 . S
C1315 C1332 1.574 . S
C1315 C1334 1.368 . S
C1315 H1339 0.949 . S
H1316 C1320 0.949 . S
C1317 C1318 1.349 . S
C1317 C1319 1.327 . S
C1317 H1340 0.950 . S
C1318 C1317 1.349 . S
C1318 C1330 1.349 . S
C1319 C1317 1.327 . S
C1319 C1335 1.429 . S
C1319 H1341 0.950 . S
C1320 H1316 0.949 . S
C1320 C1328 1.574 . S
C1320 C1336 1.368 . S
H1321 C1329 0.950 . S
H1322 C1327 0.950 . S
H1323 C1328 0.949 . S
H1324 C1330 0.950 . S
H1325 C1331 0.950 . S
H1326 C1332 0.949 . S
C1327 H1322 0.950 . S
C1327 C1329 1.327 . S
C1327 C1333 1.429 . S
C1328 C1320 1.574 . S
C1328 H1323 0.949 . S
C1328 C1334 1.368 . S
C1329 C1313 1.349 . S
C1329 H1321 0.950 . S
C1329 C1327 1.327 . S
C1330 C1318 1.349 . S
C1330 H1324 0.950 . S
C1330 C1331 1.327 . S
C1331 H1325 0.950 . S
C1331 C1330 1.327 . S
C1331 C1335 1.429 . S
C1332 C1315 1.574 . S
C1332 H1326 0.949 . S
C1332 C1336 1.368 . S
C1333 C1314 1.429 . S
C1333 C1327 1.429 . S
C1333 C1334 1.523 . S
C1334 C1315 1.368 . S
C1334 C1328 1.368 . S
C1334 C1333 1.523 . S
C1335 C1319 1.429 . S
C1335 C1331 1.429 . S
C1335 C1336 1.523 . S
C1336 C1320 1.368 . S
C1336 C1332 1.368 . S
C1336 C1335 1.523 . S
H1337 C1312 0.950 . S
H1338 C1314 0.950 . S
H1339 C1315 0.949 . S
H1340 C1317 0.950 . S
H1341 C1319 0.950 . S
C1342 C1343 1.349 . S
C1342 C1344 1.327 . S
C1342 H1367 0.950 . S
C1343 C1342 1.349 . S
C1343 C1359 1.349 . S
C1344 C1342 1.327 . S
C1344 C1363 1.429 . S
C1344 H1368 0.950 . S
C1345 C1362 1.574 . S
C1345 C1364 1.368 . S
C1345 H1369 0.949 . S
H1346 C1350 0.949 . S
C1347 C1348 1.349 . S
C1347 C1349 1.327 . S
C1347 H1370 0.950 . S
C1348 C1347 1.349 . S
C1348 C1360 1.349 . S
C1349 C1347 1.327 . S
C1349 C1365 1.429 . S
C1349 H1371 0.950 . S
C1350 H1346 0.949 . S
C1350 C1358 1.574 . S
C1350 C1366 1.368 . S
H1351 C1359 0.950 . S
H1352 C1357 0.950 . S
H1353 C1358 0.949 . S
H1354 C1360 0.950 . S
H1355 C1361 0.950 . S
H1356 C1362 0.949 . S
C1357 H1352 0.950 . S
C1357 C1359 1.327 . S
C1357 C1363 1.429 . S
C1358 C1350 1.574 . S
C1358 H1353 0.949 . S
C1358 C1364 1.368 . S
C1359 C1343 1.349 . S
C1359 H1351 0.950 . S
C1359 C1357 1.327 . S
C1360 C1348 1.349 . S
C1360 H1354 0.950 . S
C1360 C1361 1.327 . S
C1361 H1355 0.950 . S
C1361 C1360 1.327 . S
C1361 C1365 1.429 . S
C1362 C1345 1.574 . S
C1362 H1356 0.949 . S
C1362 C1366 1.368 . S
C1363 C1344 1.429 . S
C1363 C1357 1.429 . S
C1363 C1364 1.523 . S
C1364 C1345 1.368 . S
C1364 C1358 1.368 . S
C1364 C1363 1.523 . S
C1365 C1349 1.429 . S
C1365 C1361 1.429 . S
C1365 C1366 1.523 . S
C1366 C1350 1.368 . S
C1366 C1362 1.368 . S
C1366 C1365 1.523 . S
H1367 C1342 0.950 . S
H1368 C1344 0.950 . S
H1369 C1345 0.949 . S
H1370 C1347 0.950 . S
H1371 C1349 0.950 . S
C1372 C1373 1.349 . S
C1372 C1374 1.327 . S
C1372 H1397 0.950 . S
C1373 C1372 1.349 . S
C1373 C1389 1.349 . S
C1374 C1372 1.327 . S
C1374 C1393 1.429 . S
C1374 H1398 0.950 . S
C1375 C1392 1.574 . S
C1375 C1394 1.368 . S
C1375 H1399 0.949 . S
H1376 C1380 0.949 . S
C1377 C1378 1.349 . S
C1377 C1379 1.327 . S
C1377 H1400 0.950 . S
C1378 C1377 1.349 . S
C1378 C1390 1.349 . S
C1379 C1377 1.327 . S
C1379 C1395 1.429 . S
C1379 H1401 0.950 . S
C1380 H1376 0.949 . S
C1380 C1388 1.574 . S
C1380 C1396 1.368 . S
H1381 C1389 0.950 . S
H1382 C1387 0.950 . S
H1383 C1388 0.949 . S
H1384 C1390 0.950 . S
H1385 C1391 0.950 . S
H1386 C1392 0.949 . S
C1387 H1382 0.950 . S
C1387 C1389 1.327 . S
C1387 C1393 1.429 . S
C1388 C1380 1.574 . S
C1388 H1383 0.949 . S
C1388 C1394 1.368 . S
C1389 C1373 1.349 . S
C1389 H1381 0.950 . S
C1389 C1387 1.327 . S
C1390 C1378 1.349 . S
C1390 H1384 0.950 . S
C1390 C1391 1.327 . S
C1391 H1385 0.950 . S
C1391 C1390 1.327 . S
C1391 C1395 1.429 . S
C1392 C1375 1.574 . S
C1392 H1386 0.949 . S
C1392 C1396 1.368 . S
C1393 C1374 1.429 . S
C1393 C1387 1.429 . S
C1393 C1394 1.523 . S
C1394 C1375 1.368 . S
C1394 C1388 1.368 . S
C1394 C1393 1.523 . S
C1395 C1379 1.429 . S
C1395 C1391 1.429 . S
C1395 C1396 1.523 . S
C1396 C1380 1.368 . S
C1396 C1392 1.368 . S
C1396 C1395 1.523 . S
H1397 C1372 0.950 . S
H1398 C1374 0.950 . S
H1399 C1375 0.949 . S
H1400 C1377 0.950 . S
H1401 C1379 0.950 . S
C1402 C1403 1.349 . S
C1402 C1404 1.327 . S
C1402 H1427 0.950 . S
C1403 C1402 1.349 . S
C1403 C1419 1.349 . S
C1404 C1402 1.327 . S
C1404 C1423 1.429 . S
C1404 H1428 0.950 . S
C1405 C1422 1.574 . S
C1405 C1424 1.368 . S
C1405 H1429 0.949 . S
H1406 C1410 0.949 . S
C1407 C1408 1.349 . S
C1407 C1409 1.327 . S
C1407 H1430 0.950 . S
C1408 C1407 1.349 . S
C1408 C1420 1.349 . S
C1409 C1407 1.327 . S
C1409 C1425 1.429 . S
C1409 H1431 0.950 . S
C1410 H1406 0.949 . S
C1410 C1418 1.574 . S
C1410 C1426 1.368 . S
H1411 C1419 0.950 . S
H1412 C1417 0.950 . S
H1413 C1418 0.949 . S
H1414 C1420 0.950 . S
H1415 C1421 0.950 . S
H1416 C1422 0.949 . S
C1417 H1412 0.950 . S
C1417 C1419 1.327 . S
C1417 C1423 1.429 . S
C1418 C1410 1.574 . S
C1418 H1413 0.949 . S
C1418 C1424 1.368 . S
C1419 C1403 1.349 . S
C1419 H1411 0.950 . S
C1419 C1417 1.327 . S
C1420 C1408 1.349 . S
C1420 H1414 0.950 . S
C1420 C1421 1.327 . S
C1421 H1415 0.950 . S
C1421 C1420 1.327 . S
C1421 C1425 1.429 . S
C1422 C1405 1.574 . S
C1422 H1416 0.949 . S
C1422 C1426 1.368 . S
C1423 C1404 1.429 . S
C1423 C1417 1.429 . S
C1423 C1424 1.523 . S
C1424 C1405 1.368 . S
C1424 C1418 1.368 . S
C1424 C1423 1.523 . S
C1425 C1409 1.429 . S
C1425 C1421 1.429 . S
C1425 C1426 1.523 . S
C1426 C1410 1.368 . S
C1426 C1422 1.368 . S
C1426 C1425 1.523 . S
H1427 C1402 0.950 . S
H1428 C1404 0.950 . S
H1429 C1405 0.949 . S
H1430 C1407 0.950 . S
H1431 C1409 0.950 . S
C1432 C1433 1.349 . S
C1432 C1434 1.327 . S
C1432 H1457 0.950 . S
C1433 C1432 1.349 . S
C1433 C1449 1.349 . S
C1434 C1432 1.327 . S
C1434 C1453 1.429 . S
C1434 H1458 0.950 . S
C1435 C1452 1.574 . S
C1435 C1454 1.368 . S
C1435 H1459 0.949 . S
H1436 C1440 0.949 . S
C1437 C1438 1.349 . S
C1437 C1439 1.327 . S
C1437 H1460 0.950 . S
C1438 C1437 1.349 . S
C1438 C1450 1.349 . S
C1439 C1437 1.327 . S
C1439 C1455 1.429 . S
C1439 H1461 0.950 . S
C1440 H1436 0.949 . S
C1440 C1448 1.574 . S
C1440 C1456 1.368 . S
H1441 C1449 0.950 . S
H1442 C1447 0.950 . S
H1443 C1448 0.949 . S
H1444 C1450 0.950 . S
H1445 C1451 0.950 . S
H1446 C1452 0.949 . S
C1447 H1442 0.950 . S
C1447 C1449 1.327 . S
C1447 C1453 1.429 . S
C1448 C1440 1.574 . S
C1448 H1443 0.949 . S
C1448 C1454 1.368 . S
C1449 C1433 1.349 . S
C1449 H1441 0.950 . S
C1449 C1447 1.327 . S
C1450 C1438 1.349 . S
C1450 H1444 0.950 . S
C1450 C1451 1.327 . S
C1451 H1445 0.950 . S
C1451 C1450 1.327 . S
C1451 C1455 1.429 . S
C1452 C1435 1.574 . S
C1452 H1446 0.949 . S
C1452 C1456 1.368 . S
C1453 C1434 1.429 . S
C1453 C1447 1.429 . S
C1453 C1454 1.523 . S
C1454 C1435 1.368 . S
C1454 C1448 1.368 . S
C1454 C1453 1.523 . S
C1455 C1439 1.429 . S
C1455 C1451 1.429 . S
C1455 C1456 1.523 . S
C1456 C1440 1.368 . S
C1456 C1452 1.368 . S
C1456 C1455 1.523 . S
H1457 C1432 0.950 . S
H1458 C1434 0.950 . S
H1459 C1435 0.949 . S
H1460 C1437 0.950 . S
H1461 C1439 0.950 . S
C1462 C1463 1.349 . S
C1462 C1464 1.327 . S
C1462 H1487 0.950 . S
C1463 C1462 1.349 . S
C1463 C1479 1.349 . S
C1464 C1462 1.327 . S
C1464 C1483 1.429 . S
C1464 H1488 0.950 . S
C1465 C1482 1.574 . S
C1465 C1484 1.368 . S
C1465 H1489 0.949 . S
H1466 C1470 0.949 . S
C1467 C1468 1.349 . S
C1467 C1469 1.327 . S
C1467 H1490 0.950 . S
C1468 C1467 1.349 . S
C1468 C1480 1.349 . S
C1469 C1467 1.327 . S
C1469 C1485 1.429 . S
C1469 H1491 0.950 . S
C1470 H1466 0.949 . S
C1470 C1478 1.574 . S
C1470 C1486 1.368 . S
H1471 C1479 0.950 . S
H1472 C1477 0.950 . S
H1473 C1478 0.949 . S
H1474 C1480 0.950 . S
H1475 C1481 0.950 . S
H1476 C1482 0.949 . S
C1477 H1472 0.950 . S
C1477 C1479 1.327 . S
C1477 C1483 1.429 . S
C1478 C1470 1.574 . S
C1478 H1473 0.949 . S
C1478 C1484 1.368 . S
C1479 C1463 1.349 . S
C1479 H1471 0.950 . S
C1479 C1477 1.327 . S
C1480 C1468 1.349 . S
C1480 H1474 0.950 . S
C1480 C1481 1.327 . S
C1481 H1475 0.950 . S
C1481 C1480 1.327 . S
C1481 C1485 1.429 . S
C1482 C1465 1.574 . S
C1482 H1476 0.949 . S
C1482 C1486 1.368 . S
C1483 C1464 1.429 . S
C1483 C1477 1.429 . S
C1483 C1484 1.523 . S
C1484 C1465 1.368 . S
C1484 C1478 1.368 . S
C1484 C1483 1.523 . S
C1485 C1469 1.429 . S
C1485 C1481 1.429 . S
C1485 C1486 1.523 . S
C1486 C1470 1.368 . S
C1486 C1482 1.368 . S
C1486 C1485 1.523 . S
H1487 C1462 0.950 . S
H1488 C1464 0.950 . S
H1489 C1465 0.949 . S
H1490 C1467 0.950 . S
H1491 C1469 0.950 . S
C1492 C1493 1.349 . S
C1492 C1494 1.327 . S
C1492 H1517 0.950 . S
C1493 C1492 1.349 . S
C1493 C1509 1.349 . S
C1494 C1492 1.327 . S
C1494 C1513 1.429 . S
C1494 H1518 0.950 . S
C1495 C1512 1.574 . S
C1495 C1514 1.368 . S
C1495 H1519 0.949 . S
H1496 C1500 0.949 . S
C1497 C1498 1.349 . S
C1497 C1499 1.327 . S
C1497 H1520 0.950 . S
C1498 C1497 1.349 . S
C1498 C1510 1.349 . S
C1499 C1497 1.327 . S
C1499 C1515 1.429 . S
C1499 H1521 0.950 . S
C1500 H1496 0.949 . S
C1500 C1508 1.574 . S
C1500 C1516 1.368 . S
H1501 C1509 0.950 . S
H1502 C1507 0.950 . S
H1503 C1508 0.949 . S
H1504 C1510 0.950 . S
H1505 C1511 0.950 . S
H1506 C1512 0.949 . S
C1507 H1502 0.950 . S
C1507 C1509 1.327 . S
C1507 C1513 1.429 . S
C1508 C1500 1.574 . S
C1508 H1503 0.949 . S
C1508 C1514 1.368 . S
C1509 C1493 1.349 . S
C1509 H1501 0.950 . S
C1509 C1507 1.327 . S
C1510 C1498 1.349 . S
C1510 H1504 0.950 . S
C1510 C1511 1.327 . S
C1511 H1505 0.950 . S
C1511 C1510 1.327 . S
C1511 C1515 1.429 . S
C1512 C1495 1.574 . S
C1512 H1506 0.949 . S
C1512 C1516 1.368 . S
C1513 C1494 1.429 . S
C1513 C1507 1.429 . S
C1513 C1514 1.523 . S
C1514 C1495 1.368 . S
C1514 C1508 1.368 . S
C1514 C1513 1.523 . S
C1515 C1499 1.429 . S
C1515 C1511 1.429 . S
C1515 C1516 1.523 . S
C1516 C1500 1.368 . S
C1516 C1512 1.368 . S
C1516 C1515 1.523 . S
H1517 C1492 0.950 . S
H1518 C1494 0.950 . S
H1519 C1495 0.949 . S
H1520 C1497 0.950 . S
H1521 C1499 0.950 . S
C1522 C1523 1.349 . S
C1522 C1524 1.327 . S
C1522 H1547 0.950 . S
C1523 C1522 1.349 . S
C1523 C1539 1.349 . S
C1524 C1522 1.327 . S
C1524 C1543 1.429 . S
C1524 H1548 0.950 . S
C1525 C1542 1.574 . S
C1525 C1544 1.368 . S
C1525 H1549 0.949 . S
H1526 C1530 0.949 . S
C1527 C1528 1.349 . S
C1527 C1529 1.327 . S
C1527 H1550 0.950 . S
C1528 C1527 1.349 . S
C1528 C1540 1.349 . S
C1529 C1527 1.327 . S
C1529 C1545 1.429 . S
C1529 H1551 0.950 . S
C1530 H1526 0.949 . S
C1530 C1538 1.574 . S
C1530 C1546 1.368 . S
H1531 C1539 0.950 . S
H1532 C1537 0.950 . S
H1533 C1538 0.949 . S
H1534 C1540 0.950 . S
H1535 C1541 0.950 . S
H1536 C1542 0.949 . S
C1537 H1532 0.950 . S
C1537 C1539 1.327 . S
C1537 C1543 1.429 . S
C1538 C1530 1.574 . S
C1538 H1533 0.949 . S
C1538 C1544 1.368 . S
C1539 C1523 1.349 . S
C1539 H1531 0.950 . S
C1539 C1537 1.327 . S
C1540 C1528 1.349 . S
C1540 H1534 0.950 . S
C1540 C1541 1.327 . S
C1541 H1535 0.950 . S
C1541 C1540 1.327 . S
C1541 C1545 1.429 . S
C1542 C1525 1.574 . S
C1542 H1536 0.949 . S
C1542 C1546 1.368 . S
C1543 C1524 1.429 . S
C1543 C1537 1.429 . S
C1543 C1544 1.523 . S
C1544 C1525 1.368 . S
C1544 C1538 1.368 . S
C1544 C1543 1.523 . S
C1545 C1529 1.429 . S
C1545 C1541 1.429 . S
C1545 C1546 1.523 . S
C1546 C1530 1.368 . S
C1546 C1542 1.368 . S
C1546 C1545 1.523 . S
H1547 C1522 0.950 . S
H1548 C1524 0.950 . S
H1549 C1525 0.949 . S
H1550 C1527 0.950 . S
H1551 C1529 0.950 . S
C1552 C1553 1.349 . S
C1552 C1554 1.327 . S
C1552 H1577 0.950 . S
C1553 C1552 1.349 . S
C1553 C1569 1.349 . S
C1554 C1552 1.327 . S
C1554 C1573 1.429 . S
C1554 H1578 0.950 . S
C1555 C1572 1.574 . S
C1555 C1574 1.368 . S
C1555 H1579 0.949 . S
H1556 C1560 0.949 . S
C1557 C1558 1.349 . S
C1557 C1559 1.327 . S
C1557 H1580 0.950 . S
C1558 C1557 1.349 . S
C1558 C1570 1.349 . S
C1559 C1557 1.327 . S
C1559 C1575 1.429 . S
C1559 H1581 0.950 . S
C1560 H1556 0.949 . S
C1560 C1568 1.574 . S
C1560 C1576 1.368 . S
H1561 C1569 0.950 . S
H1562 C1567 0.950 . S
H1563 C1568 0.949 . S
H1564 C1570 0.950 . S
H1565 C1571 0.950 . S
H1566 C1572 0.949 . S
C1567 H1562 0.950 . S
C1567 C1569 1.327 . S
C1567 C1573 1.429 . S
C1568 C1560 1.574 . S
C1568 H1563 0.949 . S
C1568 C1574 1.368 . S
C1569 C1553 1.349 . S
C1569 H1561 0.950 . S
C1569 C1567 1.327 . S
C1570 C1558 1.349 . S
C1570 H1564 0.950 . S
C1570 C1571 1.327 . S
C1571 H1565 0.950 . S
C1571 C1570 1.327 . S
C1571 C1575 1.429 . S
C1572 C1555 1.574 . S
C1572 H1566 0.949 . S
C1572 C1576 1.368 . S
C1573 C1554 1.429 . S
C1573 C1567 1.429 . S
C1573 C1574 1.523 . S
C1574 C1555 1.368 . S
C1574 C1568 1.368 . S
C1574 C1573 1.523 . S
C1575 C1559 1.429 . S
C1575 C1571 1.429 . S
C1575 C1576 1.523 . S
C1576 C1560 1.368 . S
C1576 C1572 1.368 . S
C1576 C1575 1.523 . S
H1577 C1552 0.950 . S
H1578 C1554 0.950 . S
H1579 C1555 0.949 . S
H1580 C1557 0.950 . S
H1581 C1559 0.950 . S
C1582 C1583 1.349 . S
C1582 C1584 1.327 . S
C1582 H1607 0.950 . S
C1583 C1582 1.349 . S
C1583 C1599 1.349 . S
C1584 C1582 1.327 . S
C1584 C1603 1.429 . S
C1584 H1608 0.950 . S
C1585 C1602 1.574 . S
C1585 C1604 1.368 . S
C1585 H1609 0.949 . S
H1586 C1590 0.949 . S
C1587 C1588 1.349 . S
C1587 C1589 1.327 . S
C1587 H1610 0.950 . S
C1588 C1587 1.349 . S
C1588 C1600 1.349 . S
C1589 C1587 1.327 . S
C1589 C1605 1.429 . S
C1589 H1611 0.950 . S
C1590 H1586 0.949 . S
C1590 C1598 1.574 . S
C1590 C1606 1.368 . S
H1591 C1599 0.950 . S
H1592 C1597 0.950 . S
H1593 C1598 0.949 . S
H1594 C1600 0.950 . S
H1595 C1601 0.950 . S
H1596 C1602 0.949 . S
C1597 H1592 0.950 . S
C1597 C1599 1.327 . S
C1597 C1603 1.429 . S
C1598 C1590 1.574 . S
C1598 H1593 0.949 . S
C1598 C1604 1.368 . S
C1599 C1583 1.349 . S
C1599 H1591 0.950 . S
C1599 C1597 1.327 . S
C1600 C1588 1.349 . S
C1600 H1594 0.950 . S
C1600 C1601 1.327 . S
C1601 H1595 0.950 . S
C1601 C1600 1.327 . S
C1601 C1605 1.429 . S
C1602 C1585 1.574 . S
C1602 H1596 0.949 . S
C1602 C1606 1.368 . S
C1603 C1584 1.429 . S
C1603 C1597 1.429 . S
C1603 C1604 1.523 . S
C1604 C1585 1.368 . S
C1604 C1598 1.368 . S
C1604 C1603 1.523 . S
C1605 C1589 1.429 . S
C1605 C1601 1.429 . S
C1605 C1606 1.523 . S
C1606 C1590 1.368 . S
C1606 C1602 1.368 . S
C1606 C1605 1.523 . S
H1607 C1582 0.950 . S
H1608 C1584 0.950 . S
H1609 C1585 0.949 . S
H1610 C1587 0.950 . S
H1611 C1589 0.950 . S
C1612 C1613 1.349 . S
C1612 C1614 1.327 . S
C1612 H1637 0.950 . S
C1613 C1612 1.349 . S
C1613 C1629 1.349 . S
C1614 C1612 1.327 . S
C1614 C1633 1.429 . S
C1614 H1638 0.950 . S
C1615 C1632 1.574 . S
C1615 C1634 1.368 . S
C1615 H1639 0.949 . S
H1616 C1620 0.949 . S
C1617 C1618 1.349 . S
C1617 C1619 1.327 . S
C1617 H1640 0.950 . S
C1618 C1617 1.349 . S
C1618 C1630 1.349 . S
C1619 C1617 1.327 . S
C1619 C1635 1.429 . S
C1619 H1641 0.950 . S
C1620 H1616 0.949 . S
C1620 C1628 1.574 . S
C1620 C1636 1.368 . S
H1621 C1629 0.950 . S
H1622 C1627 0.950 . S
H1623 C1628 0.949 . S
H1624 C1630 0.950 . S
H1625 C1631 0.950 . S
H1626 C1632 0.949 . S
C1627 H1622 0.950 . S
C1627 C1629 1.327 . S
C1627 C1633 1.429 . S
C1628 C1620 1.574 . S
C1628 H1623 0.949 . S
C1628 C1634 1.368 . S
C1629 C1613 1.349 . S
C1629 H1621 0.950 . S
C1629 C1627 1.327 . S
C1630 C1618 1.349 . S
C1630 H1624 0.950 . S
C1630 C1631 1.327 . S
C1631 H1625 0.950 . S
C1631 C1630 1.327 . S
C1631 C1635 1.429 . S
C1632 C1615 1.574 . S
C1632 H1626 0.949 . S
C1632 C1636 1.368 . S
C1633 C1614 1.429 . S
C1633 C1627 1.429 . S
C1633 C1634 1.523 . S
C1634 C1615 1.368 . S
C1634 C1628 1.368 . S
C1634 C1633 1.523 . S
C1635 C1619 1.429 . S
C1635 C1631 1.429 . S
C1635 C1636 1.523 . S
C1636 C1620 1.368 . S
C1636 C1632 1.368 . S
C1636 C1635 1.523 . S
H1637 C1612 0.950 . S
H1638 C1614 0.950 . S
H1639 C1615 0.949 . S
H1640 C1617 0.950 . S
H1641 C1619 0.950 . S
C1642 C1643 1.349 . S
C1642 C1644 1.327 . S
C1642 H1667 0.950 . S
C1643 C1642 1.349 . S
C1643 C1659 1.349 . S
C1644 C1642 1.327 . S
C1644 C1663 1.429 . S
C1644 H1668 0.950 . S
C1645 C1662 1.574 . S
C1645 C1664 1.368 . S
C1645 H1669 0.949 . S
H1646 C1650 0.949 . S
C1647 C1648 1.349 . S
C1647 C1649 1.327 . S
C1647 H1670 0.950 . S
C1648 C1647 1.349 . S
C1648 C1660 1.349 . S
C1649 C1647 1.327 . S
C1649 C1665 1.429 . S
C1649 H1671 0.950 . S
C1650 H1646 0.949 . S
C1650 C1658 1.574 . S
C1650 C1666 1.368 . S
H1651 C1659 0.950 . S
H1652 C1657 0.950 . S
H1653 C1658 0.949 . S
H1654 C1660 0.950 . S
H1655 C1661 0.950 . S
H1656 C1662 0.949 . S
C1657 H1652 0.950 . S
C1657 C1659 1.327 . S
C1657 C1663 1.429 . S
C1658 C1650 1.574 . S
C1658 H1653 0.949 . S
C1658 C1664 1.368 . S
C1659 C1643 1.349 . S
C1659 H1651 0.950 . S
C1659 C1657 1.327 . S
C1660 C1648 1.349 . S
C1660 H1654 0.950 . S
C1660 C1661 1.327 . S
C1661 H1655 0.950 . S
C1661 C1660 1.327 . S
C1661 C1665 1.429 . S
C1662 C1645 1.574 . S
C1662 H1656 0.949 . S
C1662 C1666 1.368 . S
C1663 C1644 1.429 . S
C1663 C1657 1.429 . S
C1663 C1664 1.523 . S
C1664 C1645 1.368 . S
C1664 C1658 1.368 . S
C1664 C1663 1.523 . S
C1665 C1649 1.429 . S
C1665 C1661 1.429 . S
C1665 C1666 1.523 . S
C1666 C1650 1.368 . S
C1666 C1662 1.368 . S
C1666 C1665 1.523 . S
H1667 C1642 0.950 . S
H1668 C1644 0.950 . S
H1669 C1645 0.949 . S
H1670 C1647 0.950 . S
H1671 C1649 0.950 . S
C1672 C1673 1.349 . S
C1672 C1674 1.327 . S
C1672 H1697 0.950 . S
C1673 C1672 1.349 . S
C1673 C1689 1.349 . S
C1674 C1672 1.327 . S
C1674 C1693 1.429 . S
C1674 H1698 0.950 . S
C1675 C1692 1.574 . S
C1675 C1694 1.368 . S
C1675 H1699 0.949 . S
H1676 C1680 0.949 . S
C1677 C1678 1.349 . S
C1677 C1679 1.327 . S
C1677 H1700 0.950 . S
C1678 C1677 1.349 . S
C1678 C1690 1.349 . S
C1679 C1677 1.327 . S
C1679 C1695 1.429 . S
C1679 H1701 0.950 . S
C1680 H1676 0.949 . S
C1680 C1688 1.574 . S
C1680 C1696 1.368 . S
H1681 C1689 0.950 . S
H1682 C1687 0.950 . S
H1683 C1688 0.949 . S
H1684 C1690 0.950 . S
H1685 C1691 0.950 . S
H1686 C1692 0.949 . S
C1687 H1682 0.950 . S
C1687 C1689 1.327 . S
C1687 C1693 1.429 . S
C1688 C1680 1.574 . S
C1688 H1683 0.949 . S
C1688 C1694 1.368 . S
C1689 C1673 1.349 . S
C1689 H1681 0.950 . S
C1689 C1687 1.327 . S
C1690 C1678 1.349 . S
C1690 H1684 0.950 . S
C1690 C1691 1.327 . S
C1691 H1685 0.950 . S
C1691 C1690 1.327 . S
C1691 C1695 1.429 . S
C1692 C1675 1.574 . S
C1692 H1686 0.949 . S
C1692 C1696 1.368 . S
C1693 C1674 1.429 . S
C1693 C1687 1.429 . S
C1693 C1694 1.523 . S
C1694 C1675 1.368 . S
C1694 C1688 1.368 . S
C1694 C1693 1.523 . S
C1695 C1679 1.429 . S
C1695 C1691 1.429 . S
C1695 C1696 1.523 . S
C1696 C1680 1.368 . S
C1696 C1692 1.368 . S
C1696 C1695 1.523 . S
H1697 C1672 0.950 . S
H1698 C1674 0.950 . S
H1699 C1675 0.949 . S
H1700 C1677 0.950 . S
H1701 C1679 0.950 . S
C1702 C1703 1.349 . S
C1702 C1704 1.327 . S
C1702 H1727 0.950 . S
C1703 C1702 1.349 . S
C1703 C1719 1.349 . S
C1704 C1702 1.327 . S
C1704 C1723 1.429 . S
C1704 H1728 0.950 . S
C1705 C1722 1.574 . S
C1705 C1724 1.368 . S
C1705 H1729 0.949 . S
H1706 C1710 0.949 . S
C1707 C1708 1.349 . S
C1707 C1709 1.327 . S
C1707 H1730 0.950 . S
C1708 C1707 1.349 . S
C1708 C1720 1.349 . S
C1709 C1707 1.327 . S
C1709 C1725 1.429 . S
C1709 H1731 0.950 . S
C1710 H1706 0.949 . S
C1710 C1718 1.574 . S
C1710 C1726 1.368 . S
H1711 C1719 0.950 . S
H1712 C1717 0.950 . S
H1713 C1718 0.949 . S
H1714 C1720 0.950 . S
H1715 C1721 0.950 . S
H1716 C1722 0.949 . S
C1717 H1712 0.950 . S
C1717 C1719 1.327 . S
C1717 C1723 1.429 . S
C1718 C1710 1.574 . S
C1718 H1713 0.949 . S
C1718 C1724 1.368 . S
C1719 C1703 1.349 . S
C1719 H1711 0.950 . S
C1719 C1717 1.327 . S
C1720 C1708 1.349 . S
C1720 H1714 0.950 . S
C1720 C1721 1.327 . S
C1721 H1715 0.950 . S
C1721 C1720 1.327 . S
C1721 C1725 1.429 . S
C1722 C1705 1.574 . S
C1722 H1716 0.949 . S
C1722 C1726 1.368 . S
C1723 C1704 1.429 . S
C1723 C1717 1.429 . S
C1723 C1724 1.523 . S
C1724 C1705 1.368 . S
C1724 C1718 1.368 . S
C1724 C1723 1.523 . S
C1725 C1709 1.429 . S
C1725 C1721 1.429 . S
C1725 C1726 1.523 . S
C1726 C1710 1.368 . S
C1726 C1722 1.368 . S
C1726 C1725 1.523 . S
H1727 C1702 0.950 . S
H1728 C1704 0.950 . S
H1729 C1705 0.949 . S
H1730 C1707 0.950 . S
H1731 C1709 0.950 . S
C1732 C1733 1.349 . S
C1732 C1734 1.327 . S
C1732 H1757 0.950 . S
C1733 C1732 1.349 . S
C1733 C1749 1.349 . S
C1734 C1732 1.327 . S
C1734 C1753 1.429 . S
C1734 H1758 0.950 . S
C1735 C1752 1.574 . S
C1735 C1754 1.368 . S
C1735 H1759 0.949 . S
H1736 C1740 0.949 . S
C1737 C1738 1.349 . S
C1737 C1739 1.327 . S
C1737 H1760 0.950 . S
C1738 C1737 1.349 . S
C1738 C1750 1.349 . S
C1739 C1737 1.327 . S
C1739 C1755 1.429 . S
C1739 H1761 0.950 . S
C1740 H1736 0.949 . S
C1740 C1748 1.574 . S
C1740 C1756 1.368 . S
H1741 C1749 0.950 . S
H1742 C1747 0.950 . S
H1743 C1748 0.949 . S
H1744 C1750 0.950 . S
H1745 C1751 0.950 . S
H1746 C1752 0.949 . S
C1747 H1742 0.950 . S
C1747 C1749 1.327 . S
C1747 C1753 1.429 . S
C1748 C1740 1.574 . S
C1748 H1743 0.949 . S
C1748 C1754 1.368 . S
C1749 C1733 1.349 . S
C1749 H1741 0.950 . S
C1749 C1747 1.327 . S
C1750 C1738 1.349 . S
C1750 H1744 0.950 . S
C1750 C1751 1.327 . S
C1751 H1745 0.950 . S
C1751 C1750 1.327 . S
C1751 C1755 1.429 . S
C1752 C1735 1.574 . S
C1752 H1746 0.949 . S
C1752 C1756 1.368 . S
C1753 C1734 1.429 . S
C1753 C1747 1.429 . S
C1753 C1754 1.523 . S
C1754 C1735 1.368 . S
C1754 C1748 1.368 . S
C1754 C1753 1.523 . S
C1755 C1739 1.429 . S
C1755 C1751 1.429 . S
C1755 C1756 1.523 . S
C1756 C1740 1.368 . S
C1756 C1752 1.368 . S
C1756 C1755 1.523 . S
H1757 C1732 0.950 . S
H1758 C1734 0.950 . S
H1759 C1735 0.949 . S
H1760 C1737 0.950 . S
H1761 C1739 0.950 . S
C1762 C1763 1.349 . S
C1762 C1764 1.327 . S
C1762 H1787 0.950 . S
C1763 C1762 1.349 . S
C1763 C1779 1.349 . S
C1764 C1762 1.327 . S
C1764 C1783 1.429 . S
C1764 H1788 0.950 . S
C1765 C1782 1.574 . S
C1765 C1784 1.368 . S
C1765 H1789 0.949 . S
H1766 C1770 0.949 . S
C1767 C1768 1.349 . S
C1767 C1769 1.327 . S
C1767 H1790 0.950 . S
C1768 C1767 1.349 . S
C1768 C1780 1.349 . S
C1769 C1767 1.327 . S
C1769 C1785 1.429 . S
C1769 H1791 0.950 . S
C1770 H1766 0.949 . S
C1770 C1778 1.574 . S
C1770 C1786 1.368 . S
H1771 C1779 0.950 . S
H1772 C1777 0.950 . S
H1773 C1778 0.949 . S
H1774 C1780 0.950 . S
H1775 C1781 0.950 . S
H1776 C1782 0.949 . S
C1777 H1772 0.950 . S
C1777 C1779 1.327 . S
C1777 C1783 1.429 . S
C1778 C1770 1.574 . S
C1778 H1773 0.949 . S
C1778 C1784 1.368 . S
C1779 C1763 1.349 . S
C1779 H1771 0.950 . S
C1779 C1777 1.327 . S
C1780 C1768 1.349 . S
C1780 H1774 0.950 . S
C1780 C1781 1.327 . S
C1781 H1775 0.950 . S
C1781 C1780 1.327 . S
C1781 C1785 1.429 . S
C1782 C1765 1.574 . S
C1782 H1776 0.949 . S
C1782 C1786 1.368 . S
C1783 C1764 1.429 . S
C1783 C1777 1.429 . S
C1783 C1784 1.523 . S
C1784 C1765 1.368 . S
C1784 C1778 1.368 . S
C1784 C1783 1.523 . S
C1785 C1769 1.429 . S
C1785 C1781 1.429 . S
C1785 C1786 1.523 . S
C1786 C1770 1.368 . S
C1786 C1782 1.368 . S
C1786 C1785 1.523 . S
H1787 C1762 0.950 . S
H1788 C1764 0.950 . S
H1789 C1765 0.949 . S
H1790 C1767 0.950 . S
H1791 C1769 0.950 . S
C353 C6 1.256 . S
C358 C250 1.274 . S
C383 C31 1.256 . S
C388 C180 1.274 . S
C413 C206 1.274 . S
C418 C50 1.256 . S
C443 C224 1.274 . S
C448 C75 1.256 . S
C473 C95 1.256 . S
C478 C290 1.274 . S
C503 C115 1.256 . S
C508 C316 1.274 . S
C533 C334 1.274 . S
C538 C139 1.256 . S
C563 C272 1.274 . S
C568 C159 1.256 . S
C593 C182 1.256 . S
C598 C74 1.274 . S
C623 C4 1.274 . S
C628 C207 1.256 . S
C653 C30 1.274 . S
C658 C226 1.256 . S
C683 C251 1.256 . S
C688 C48 1.274 . S
C713 C271 1.256 . S
C718 C114 1.274 . S
C743 C140 1.274 . S
C748 C291 1.256 . S
C773 C158 1.274 . S
C778 C315 1.256 . S
C803 C96 1.274 . S
C808 C335 1.256 . S
C833 C93 0.709 . S
C838 C9 0.709 . S
C863 C28 0.709 . S
C868 C117 0.709 . S
C893 C137 0.709 . S
C898 C53 0.709 . S
C923 C161 0.709 . S
C928 C72 0.709 . S
C953 C269 0.709 . S
C958 C185 0.709 . S
C983 C204 0.709 . S
C988 C293 0.709 . S
C1013 C229 0.709 . S
C1018 C313 0.709 . S
C1043 C337 0.709 . S
C1048 C248 0.709 . S
C1073 C5 1.663 . S
C1078 C294 1.646 . S
C1103 C312 1.646 . S
C1108 C29 1.663 . S
C1133 C338 1.646 . S
C1138 C49 1.663 . S
C1163 C268 1.646 . S
C1168 C73 1.663 . S
C1193 C97 1.663 . S
C1198 C246 1.646 . S
C1223 C116 1.663 . S
C1228 C184 1.646 . S
C1253 C141 1.663 . S
C1258 C202 1.646 . S
C1283 C228 1.646 . S
C1288 C160 1.663 . S
C1313 C118 1.646 . S
C1318 C181 1.663 . S
C1343 C136 1.646 . S
C1348 C205 1.663 . S
C1373 C225 1.663 . S
C1378 C162 1.646 . S
C1403 C92 1.646 . S
C1408 C249 1.663 . S
C1433 C70 1.646 . S
C1438 C273 1.663 . S
C1463 C292 1.663 . S
C1468 C8 1.646 . S
C1493 C26 1.646 . S
C1498 C317 1.663 . S
C1523 C336 1.663 . S
C1528 C52 1.646 . S
C1553 C163 1.129 . S
C1558 C7 1.129 . S
C1583 C94 1.129 . S
C1588 C27 1.129 . S
C1613 C119 1.129 . S
C1618 C51 1.129 . S
C1643 C138 1.129 . S
C1648 C71 1.129 . S
C1673 C183 1.129 . S
C1678 C339 1.129 . S
C1703 C270 1.129 . S
C1708 C203 1.129 . S
C1733 C295 1.129 . S
C1738 C227 1.129 . S
C1763 C247 1.129 . S
C1768 C314 1.129 . S
