# Generated by pormake.
# Topology ukk, (4)-cn, num edge types: 1
# Building blocks:
#     Node 0, Type 0, BuildingBlock: CEKHIL_clean_sbu_0, # of connection points: 4
#     Node 1, Type 0, BuildingBlock: CEKHIL_clean_sbu_0, # of connection points: 4
#     Node 2, Type 0, BuildingBlock: CEKHIL_clean_sbu_0, # of connection points: 4
#     Node 3, Type 0, BuildingBlock: CEKHIL_clean_sbu_0, # of connection points: 4
#     Node 4, Type 0, BuildingBlock: CEKHIL_clean_sbu_0, # of connection points: 4
#     Node 5, Type 0, BuildingBlock: CEKHIL_clean_sbu_0, # of connection points: 4
#     Node 6, Type 0, BuildingBlock: CEKHIL_clean_sbu_0, # of connection points: 4
#     Node 7, Type 0, BuildingBlock: CEKHIL_clean_sbu_0, # of connection points: 4
#     Node 8, Type 0, BuildingBlock: CEKHIL_clean_sbu_0, # of connection points: 4
#     Node 9, Type 0, BuildingBlock: CEKHIL_clean_sbu_0, # of connection points: 4
#     Node 10, Type 0, BuildingBlock: CEKHIL_clean_sbu_0, # of connection points: 4
#     Node 11, Type 0, BuildingBlock: CEKHIL_clean_sbu_0, # of connection points: 4
#     Node 12, Type 0, BuildingBlock: CEKHIL_clean_sbu_0, # of connection points: 4
#     Node 13, Type 0, BuildingBlock: CEKHIL_clean_sbu_0, # of connection points: 4
#     Node 14, Type 0, BuildingBlock: CEKHIL_clean_sbu_0, # of connection points: 4
#     Node 15, Type 0, BuildingBlock: CEKHIL_clean_sbu_0, # of connection points: 4
#     Edge 16, Type (0, 0), BuildingBlock: KIFKEQ_clean_linker_1, # of connection points: 2
#     Edge 17, Type (0, 0), BuildingBlock: KIFKEQ_clean_linker_1, # of connection points: 2
#     Edge 18, Type (0, 0), BuildingBlock: KIFKEQ_clean_linker_1, # of connection points: 2
#     Edge 19, Type (0, 0), BuildingBlock: KIFKEQ_clean_linker_1, # of connection points: 2
#     Edge 20, Type (0, 0), BuildingBlock: KIFKEQ_clean_linker_1, # of connection points: 2
#     Edge 21, Type (0, 0), BuildingBlock: KIFKEQ_clean_linker_1, # of connection points: 2
#     Edge 22, Type (0, 0), BuildingBlock: KIFKEQ_clean_linker_1, # of connection points: 2
#     Edge 23, Type (0, 0), BuildingBlock: KIFKEQ_clean_linker_1, # of connection points: 2
#     Edge 24, Type (0, 0), BuildingBlock: KIFKEQ_clean_linker_1, # of connection points: 2
#     Edge 25, Type (0, 0), BuildingBlock: KIFKEQ_clean_linker_1, # of connection points: 2
#     Edge 26, Type (0, 0), BuildingBlock: KIFKEQ_clean_linker_1, # of connection points: 2
#     Edge 27, Type (0, 0), BuildingBlock: KIFKEQ_clean_linker_1, # of connection points: 2
#     Edge 28, Type (0, 0), BuildingBlock: KIFKEQ_clean_linker_1, # of connection points: 2
#     Edge 29, Type (0, 0), BuildingBlock: KIFKEQ_clean_linker_1, # of connection points: 2
#     Edge 30, Type (0, 0), BuildingBlock: KIFKEQ_clean_linker_1, # of connection points: 2
#     Edge 31, Type (0, 0), BuildingBlock: KIFKEQ_clean_linker_1, # of connection points: 2
#     Edge 32, Type (0, 0), BuildingBlock: KIFKEQ_clean_linker_1, # of connection points: 2
#     Edge 33, Type (0, 0), BuildingBlock: KIFKEQ_clean_linker_1, # of connection points: 2
#     Edge 34, Type (0, 0), BuildingBlock: KIFKEQ_clean_linker_1, # of connection points: 2
#     Edge 35, Type (0, 0), BuildingBlock: KIFKEQ_clean_linker_1, # of connection points: 2
#     Edge 36, Type (0, 0), BuildingBlock: KIFKEQ_clean_linker_1, # of connection points: 2
#     Edge 37, Type (0, 0), BuildingBlock: KIFKEQ_clean_linker_1, # of connection points: 2
#     Edge 38, Type (0, 0), BuildingBlock: KIFKEQ_clean_linker_1, # of connection points: 2
#     Edge 39, Type (0, 0), BuildingBlock: KIFKEQ_clean_linker_1, # of connection points: 2
#     Edge 40, Type (0, 0), BuildingBlock: KIFKEQ_clean_linker_1, # of connection points: 2
#     Edge 41, Type (0, 0), BuildingBlock: KIFKEQ_clean_linker_1, # of connection points: 2
#     Edge 42, Type (0, 0), BuildingBlock: KIFKEQ_clean_linker_1, # of connection points: 2
#     Edge 43, Type (0, 0), BuildingBlock: KIFKEQ_clean_linker_1, # of connection points: 2
#     Edge 44, Type (0, 0), BuildingBlock: KIFKEQ_clean_linker_1, # of connection points: 2
#     Edge 45, Type (0, 0), BuildingBlock: KIFKEQ_clean_linker_1, # of connection points: 2
#     Edge 46, Type (0, 0), BuildingBlock: KIFKEQ_clean_linker_1, # of connection points: 2
#     Edge 47, Type (0, 0), BuildingBlock: KIFKEQ_clean_linker_1, # of connection points: 2
# Relax obj value: 0.119
# Max RMSD: 0.294
# Mean RMSD: 0.294
data_MOF--net-ukk--node1-CEKHIL_clean_sbu_0--edge1-KIFKEQ_clean_linker_1
_symmetry_space_group_name_H-M    P1
_symmetry_Int_Tables_number       1
_symmetry_cell_setting            triclinic
loop_
_symmetry_equiv_pos_as_xyz
'x, y, z'
_cell_length_a     54.672389
_cell_length_b     54.670808
_cell_length_c     16.3946
_cell_angle_alpha  90.014796
_cell_angle_beta   90.017877
_cell_angle_gamma 89.99694
loop_
_atom_site_label
_atom_site_type_symbol
_atom_site_fract_x
_atom_site_fract_y
_atom_site_fract_z
_atom_type_partial_charge
Co0 Co 0.3536 0.10889 0.15788 0.0
O1 O 0.31852 0.10998 0.15169 0.0
O2 O 0.34359 0.11265 0.04572 0.0
C3 C 0.35596 0.0763 0.24088 0.0
O4 O 0.39064 0.10795 0.14034 0.0
Co5 Co 0.38006 0.11847 0.3207 0.0
O6 O 0.40829 0.10374 0.26326 0.0
C7 C 0.36212 0.16037 0.22531 0.0
C8 C 0.3213 0.1123 0.07347 0.0
C9 C 0.40938 0.10366 0.18575 0.0
O10 O 0.35454 0.14536 0.17077 0.0
O11 O 0.37241 0.15354 0.29169 0.0
O12 O 0.35281 0.07357 0.16299 0.0
O13 O 0.35519 0.09858 0.26797 0.0
Co14 Co 0.10886 0.64425 0.84081 0.0
O15 O 0.10937 0.67927 0.84824 0.0
O16 O 0.11121 0.65396 0.9538 0.0
C17 C 0.0773 0.64159 0.75369 0.0
O18 O 0.10827 0.60716 0.8566 0.0
Co19 Co 0.121 0.619 0.67779 0.0
O20 O 0.10685 0.58996 0.73214 0.0
C21 C 0.16131 0.6371 0.77989 0.0
C22 C 0.11096 0.67632 0.92657 0.0
C23 C 0.10537 0.58854 0.80945 0.0
O24 O 0.14547 0.6439 0.83291 0.0
O25 O 0.15551 0.62729 0.71163 0.0
O26 O 0.07362 0.64444 0.83124 0.0
O27 O 0.09982 0.64301 0.72936 0.0
Co28 Co 0.64813 0.89089 0.13583 0.0
O29 O 0.68267 0.896 0.12565 0.0
O30 O 0.65783 0.88677 0.02326 0.0
C31 C 0.63978 0.92375 0.21261 0.0
O32 O 0.61134 0.88547 0.12415 0.0
Co33 Co 0.62696 0.87889 0.30534 0.0
O34 O 0.59611 0.88892 0.25123 0.0
C35 C 0.64997 0.83947 0.21166 0.0
C36 C 0.67989 0.89166 0.04845 0.0
C37 C 0.59338 0.88809 0.17413 0.0
O38 O 0.65358 0.855 0.15425 0.0
O39 O 0.64036 0.84536 0.28012 0.0
O40 O 0.64224 0.92566 0.13413 0.0
O41 O 0.64581 0.90279 0.24386 0.0
Co42 Co 0.8898 0.35638 0.87561 0.0
O43 O 0.89428 0.32165 0.88217 0.0
O44 O 0.88459 0.34557 0.98649 0.0
C45 C 0.92329 0.36491 0.80228 0.0
O46 O 0.88483 0.39308 0.89154 0.0
Co47 Co 0.87948 0.37981 0.70802 0.0
O48 O 0.88905 0.40999 0.76712 0.0
C49 C 0.83912 0.35598 0.79462 0.0
C50 C 0.88924 0.32369 0.95916 0.0
C51 C 0.88777 0.41168 0.84447 0.0
O52 O 0.85404 0.3517 0.8533 0.0
O53 O 0.84572 0.36624 0.72795 0.0
O54 O 0.92467 0.36171 0.88062 0.0
O55 O 0.90242 0.35965 0.76896 0.0
Co56 Co 0.35528 0.38727 0.09057 0.0
O57 O 0.32024 0.38812 0.09774 0.0
O58 O 0.34532 0.38516 0.2035 0.0
C59 C 0.35899 0.4187 0.00322 0.0
O60 O 0.39239 0.38691 0.10666 0.0
Co61 Co 0.38019 0.37429 0.92752 0.0
O62 O 0.40944 0.38795 0.98189 0.0
C63 C 0.36167 0.33452 0.03105 0.0
C64 C 0.32301 0.38657 0.17614 0.0
C65 C 0.41096 0.38956 0.05916 0.0
O66 O 0.35466 0.35059 0.08304 0.0
O67 O 0.37178 0.34003 0.96305 0.0
O68 O 0.35618 0.42253 0.08071 0.0
O69 O 0.35687 0.39621 0.9791 0.0
Co70 Co 0.38715 0.64291 0.9138 0.0
O71 O 0.38779 0.67798 0.90612 0.0
O72 O 0.38435 0.65268 0.80096 0.0
C73 C 0.41919 0.63895 0.99839 0.0
O74 O 0.3864 0.60581 0.89823 0.0
Co75 Co 0.37532 0.61822 0.07837 0.0
O76 O 0.38788 0.58864 0.02281 0.0
C77 C 0.3349 0.63725 0.97856 0.0
C78 C 0.38556 0.67504 0.82794 0.0
C79 C 0.3889 0.58714 0.94539 0.0
O80 O 0.35059 0.64377 0.9246 0.0
O81 O 0.34088 0.62728 0.04637 0.0
O82 O 0.42247 0.64172 0.92062 0.0
O83 O 0.39693 0.64134 0.02443 0.0
Co84 Co 0.64568 0.61063 0.08934 0.0
O85 O 0.68022 0.60672 0.10372 0.0
O86 O 0.65363 0.61146 0.20448 0.0
C87 C 0.64074 0.58013 0.99932 0.0
O88 O 0.60851 0.61417 0.09618 0.0
Co89 Co 0.62658 0.62716 0.92134 0.0
O90 O 0.59489 0.61604 0.96676 0.0
C91 C 0.64751 0.66398 0.031 0.0
C92 C 0.67623 0.60848 0.18141 0.0
C93 C 0.59114 0.61375 0.04309 0.0
O94 O 0.64976 0.64712 0.08488 0.0
O95 O 0.63983 0.65972 0.95858 0.0
O96 O 0.64166 0.57566 0.07693 0.0
O97 O 0.64573 0.60236 0.9774 0.0
Co98 Co 0.60904 0.35604 0.89709 0.0
O99 O 0.60617 0.32128 0.88511 0.0
O100 O 0.61022 0.34736 0.78257 0.0
C101 C 0.57835 0.36054 0.98675 0.0
O102 O 0.61155 0.39323 0.88731 0.0
Co103 Co 0.62453 0.377 0.06428 0.0
O104 O 0.6131 0.4081 0.01531 0.0
C105 C 0.66217 0.35622 0.95708 0.0
C106 C 0.60783 0.32483 0.80714 0.0
C107 C 0.61083 0.41107 0.9386 0.0
O108 O 0.64561 0.35314 0.90256 0.0
O109 O 0.65742 0.36419 0.02881 0.0
O110 O 0.5739 0.35898 0.90921 0.0
O111 O 0.60073 0.35653 0.00887 0.0
Co112 Co 0.85271 0.61044 0.65028 0.0
O113 O 0.81819 0.60511 0.63952 0.0
O114 O 0.84323 0.61378 0.53721 0.0
C115 C 0.86068 0.57823 0.73012 0.0
O116 O 0.8895 0.61604 0.63887 0.0
Co117 Co 0.87415 0.62357 0.81803 0.0
O118 O 0.90494 0.61254 0.7654 0.0
C119 C 0.85044 0.66219 0.72238 0.0
C120 C 0.8211 0.6091 0.56217 0.0
C121 C 0.90761 0.61329 0.68826 0.0
O122 O 0.84696 0.64632 0.66599 0.0
O123 O 0.86033 0.65683 0.79093 0.0
O124 O 0.85877 0.5757 0.65165 0.0
O125 O 0.85473 0.59946 0.75936 0.0
Co126 Co 0.60648 0.14519 0.35056 0.0
O127 O 0.60576 0.18028 0.35637 0.0
O128 O 0.60881 0.15557 0.46301 0.0
C129 C 0.57502 0.14102 0.26348 0.0
O130 O 0.60688 0.10817 0.36789 0.0
Co131 Co 0.61963 0.1203 0.18682 0.0
O132 O 0.60812 0.09051 0.24376 0.0
C133 C 0.65913 0.14043 0.28803 0.0
C134 C 0.60756 0.17779 0.43482 0.0
C135 C 0.60575 0.08934 0.3209 0.0
O136 O 0.64311 0.1457 0.34246 0.0
O137 O 0.65349 0.1314 0.21843 0.0
O138 O 0.57116 0.1443 0.3408 0.0
O139 O 0.59749 0.14312 0.23953 0.0
Co140 Co 0.14567 0.39338 0.64089 0.0
O141 O 0.18057 0.39415 0.62981 0.0
O142 O 0.15442 0.39239 0.5266 0.0
C143 C 0.14256 0.42365 0.73295 0.0
O144 O 0.10851 0.39318 0.63042 0.0
Co145 Co 0.12434 0.37758 0.80835 0.0
O146 O 0.09314 0.3879 0.75699 0.0
C147 C 0.14393 0.34019 0.69865 0.0
C148 C 0.17702 0.39317 0.55168 0.0
C149 C 0.09056 0.39223 0.68109 0.0
O150 O 0.14617 0.35666 0.64347 0.0
O151 O 0.13766 0.34496 0.77218 0.0
O152 O 0.14488 0.4286 0.65593 0.0
O153 O 0.14526 0.40092 0.75298 0.0
Co154 Co 0.39108 0.85362 0.36912 0.0
O155 O 0.39333 0.81875 0.38011 0.0
O156 O 0.38477 0.84441 0.481 0.0
C157 C 0.42554 0.85911 0.29749 0.0
O158 O 0.38782 0.89073 0.38028 0.0
Co159 Co 0.3841 0.8768 0.19923 0.0
O160 O 0.39574 0.90656 0.25661 0.0
C161 C 0.34133 0.85641 0.28419 0.0
C162 C 0.38809 0.822 0.45651 0.0
C163 C 0.39282 0.90893 0.33326 0.0
O164 O 0.35534 0.85067 0.34392 0.0
O165 O 0.34912 0.8666 0.2188 0.0
O166 O 0.42617 0.85693 0.37631 0.0
O167 O 0.40458 0.855 0.26317 0.0
Co168 Co 0.85633 0.88894 0.58188 0.0
O169 O 0.822 0.89504 0.59386 0.0
O170 O 0.84782 0.88907 0.69626 0.0
C171 C 0.86411 0.91842 0.49075 0.0
O172 O 0.89302 0.88311 0.5923 0.0
Co173 Co 0.8751 0.87003 0.41613 0.0
O174 O 0.90763 0.87275 0.46842 0.0
C175 C 0.85128 0.83547 0.52649 0.0
C176 C 0.82552 0.89313 0.67184 0.0
C177 C 0.91065 0.8775 0.54381 0.0
O178 O 0.85004 0.85274 0.57926 0.0
O179 O 0.85923 0.83883 0.45394 0.0
O180 O 0.8628 0.92344 0.56796 0.0
O181 O 0.85756 0.89656 0.4694 0.0
Co182 Co 0.88888 0.14196 0.40519 0.0
O183 O 0.88933 0.17694 0.39792 0.0
O184 O 0.88727 0.15187 0.29191 0.0
C185 C 0.91976 0.13856 0.49462 0.0
O186 O 0.889 0.10481 0.39045 0.0
Co187 Co 0.87461 0.11817 0.56923 0.0
O188 O 0.88797 0.08845 0.51642 0.0
C189 C 0.83582 0.13777 0.46435 0.0
C190 C 0.88812 0.1742 0.31949 0.0
C191 C 0.89074 0.08649 0.43954 0.0
O192 O 0.8522 0.14232 0.4104 0.0
O193 O 0.841 0.12938 0.5352 0.0
O194 O 0.9241 0.14136 0.41743 0.0
O195 O 0.89713 0.1407 0.51694 0.0
Co196 Co 0.14321 0.11046 0.61315 0.0
O197 O 0.17801 0.1088 0.62516 0.0
O198 O 0.15182 0.11436 0.72687 0.0
C199 C 0.13843 0.07776 0.53263 0.0
O200 O 0.10607 0.11254 0.62217 0.0
Co201 Co 0.12217 0.12187 0.44243 0.0
O202 O 0.09165 0.10952 0.49392 0.0
C203 C 0.14193 0.16209 0.54026 0.0
C204 C 0.17439 0.11225 0.70246 0.0
C205 C 0.08847 0.10947 0.57097 0.0
O206 O 0.14525 0.14674 0.59828 0.0
O207 O 0.13435 0.15581 0.46935 0.0
O208 O 0.14063 0.07527 0.61102 0.0
O209 O 0.14265 0.09947 0.50408 0.0
Co210 Co 0.11322 0.85594 0.38091 0.0
O211 O 0.11109 0.82102 0.37268 0.0
O212 O 0.11617 0.84623 0.26802 0.0
C213 C 0.08108 0.86124 0.46354 0.0
O214 O 0.11546 0.89296 0.36645 0.0
Co215 Co 0.12522 0.8797 0.5466 0.0
O216 O 0.11241 0.90937 0.49187 0.0
C217 C 0.16529 0.85909 0.44899 0.0
C218 C 0.11388 0.82393 0.29474 0.0
C219 C 0.11224 0.91128 0.4145 0.0
O220 O 0.14963 0.85347 0.39381 0.0
O221 O 0.15938 0.86912 0.51677 0.0
O222 O 0.07807 0.85889 0.38545 0.0
O223 O 0.10301 0.85751 0.49097 0.0
H224 H 0.42398 0.94628 0.30191 0.0
H225 H 0.35739 0.9284 0.42976 0.0
H226 H 0.41482 0.98982 0.31594 0.0
H227 H 0.34781 0.97208 0.44164 0.0
H228 H 0.39154 0.06825 0.35593 0.0
H229 H 0.40257 0.02829 0.41429 0.0
H230 H 0.33895 0.99612 0.30109 0.0
H231 H 0.32873 0.03547 0.24011 0.0
C232 C 0.4079 0.95176 0.33595 0.0
C233 C 0.39134 0.93412 0.36457 0.0
C234 C 0.4027 0.97665 0.34427 0.0
C235 C 0.38056 0.98423 0.37955 0.0
C236 C 0.36505 0.96663 0.41461 0.0
C237 C 0.37056 0.9417 0.40803 0.0
C238 C 0.37963 0.05275 0.34561 0.0
C239 C 0.35942 0.05474 0.29319 0.0
C240 C 0.3859 0.02997 0.37898 0.0
C241 C 0.37152 0.00922 0.36246 0.0
C242 C 0.35015 0.01187 0.31581 0.0
C243 C 0.34437 0.03433 0.28058 0.0
H244 H 0.06522 0.60092 0.66585 0.0
H245 H 0.04147 0.67401 0.72442 0.0
H246 H 0.0243 0.59136 0.61389 0.0
H247 H 0.00085 0.6648 0.67122 0.0
H248 H 0.92824 0.64421 0.57712 0.0
H249 H 0.97228 0.65043 0.55578 0.0
H250 H 0.98758 0.58841 0.71072 0.0
H251 H 0.9439 0.58262 0.73302 0.0
C252 C 0.05161 0.61525 0.66397 0.0
C253 C 0.05638 0.6382 0.69873 0.0
C254 C 0.02818 0.60977 0.63461 0.0
C255 C 0.00937 0.62731 0.63879 0.0
C256 C 0.015 0.651 0.66617 0.0
C257 C 0.03822 0.65629 0.69681 0.0
C258 C 0.94107 0.63143 0.60397 0.0
C259 C 0.93286 0.61308 0.65719 0.0
C260 C 0.9662 0.63502 0.59203 0.0
C261 C 0.98334 0.61996 0.6318 0.0
C262 C 0.97487 0.60016 0.67853 0.0
C263 C 0.94988 0.59692 0.69179 0.0
H264 H 0.64925 0.93865 0.37013 0.0
H265 H 0.60504 0.95431 0.1585 0.0
H266 H 0.63527 0.97704 0.43348 0.0
H267 H 0.59132 0.99204 0.21988 0.0
H268 H 0.56704 0.05866 0.31518 0.0
H269 H 0.56957 0.01411 0.32208 0.0
H270 H 0.64491 0.01974 0.39977 0.0
H271 H 0.64174 0.06425 0.39671 0.0
C272 C 0.63609 0.94998 0.3383 0.0
C273 C 0.62848 0.94385 0.25911 0.0
C274 C 0.62816 0.97194 0.37422 0.0
C275 C 0.61219 0.98772 0.33185 0.0
C276 C 0.60328 0.98034 0.25523 0.0
C277 C 0.6114 0.95878 0.21933 0.0
C278 C 0.58363 0.05028 0.33814 0.0
C279 C 0.60417 0.06467 0.35561 0.0
C280 C 0.58523 0.02479 0.34125 0.0
C281 C 0.60767 0.01332 0.35909 0.0
C282 C 0.62734 0.02787 0.38594 0.0
C283 C 0.62556 0.05341 0.38427 0.0
H284 H 0.06159 0.43189 0.6974 0.0
H285 H 0.06277 0.35789 0.60716 0.0
H286 H 0.0169 0.4313 0.69732 0.0
H287 H 0.01813 0.35674 0.60984 0.0
H288 H 0.93683 0.35722 0.64267 0.0
H289 H 0.97565 0.3698 0.57923 0.0
H290 H 0.99492 0.4086 0.79991 0.0
H291 H 0.95673 0.3962 0.86174 0.0
C292 C 0.05217 0.4159 0.67408 0.0
C293 C 0.06538 0.39497 0.65202 0.0
C294 C 0.02663 0.41543 0.67473 0.0
C295 C 0.01396 0.39377 0.65549 0.0
C296 C 0.02725 0.37375 0.62467 0.0
C297 C 0.05283 0.37436 0.62309 0.0
C298 C 0.94923 0.36893 0.67632 0.0
C299 C 0.9441 0.37543 0.75738 0.0
C300 C 0.9714 0.37607 0.64027 0.0
C301 C 0.98843 0.39019 0.68444 0.0
C302 C 0.98221 0.39806 0.7634 0.0
C303 C 0.96041 0.39068 0.79944 0.0
H304 H 0.40075 0.43002 0.9202 0.0
H305 H 0.3274 0.4549 0.96903 0.0
H306 H 0.41147 0.47061 0.86849 0.0
H307 H 0.3378 0.49527 0.91614 0.0
H308 H 0.36 0.56742 0.82705 0.0
H309 H 0.35386 0.52354 0.8028 0.0
H310 H 0.41398 0.50732 0.96492 0.0
H311 H 0.41967 0.55084 0.99009 0.0
C312 C 0.38663 0.4438 0.91619 0.0
C313 C 0.36324 0.43943 0.94814 0.0
C314 C 0.39277 0.46706 0.88693 0.0
C315 C 0.3755 0.48613 0.88852 0.0
C316 C 0.35143 0.48091 0.91305 0.0
C317 C 0.34546 0.45783 0.94353 0.0
C318 C 0.3725 0.55444 0.85456 0.0
C319 C 0.39021 0.56235 0.91071 0.0
C320 C 0.36892 0.52939 0.84106 0.0
C321 C 0.38335 0.51203 0.8823 0.0
C322 C 0.40273 0.52021 0.93158 0.0
C323 C 0.40595 0.54513 0.94634 0.0
H324 H 0.45144 0.67025 0.0667 0.0
H325 H 0.43501 0.59363 0.03911 0.0
H326 H 0.49307 0.65998 0.109 0.0
H327 H 0.47633 0.58318 0.08272 0.0
H328 H 0.55534 0.58814 0.96878 0.0
H329 H 0.51167 0.59102 0.99235 0.0
H330 H 0.5246 0.63869 0.19813 0.0
H331 H 0.56892 0.63547 0.17455 0.0
C332 C 0.45639 0.65118 0.07399 0.0
C333 C 0.44003 0.63271 0.05079 0.0
C334 C 0.48021 0.64526 0.09821 0.0
C335 C 0.48806 0.62076 0.09834 0.0
C336 C 0.47085 0.60222 0.08269 0.0
C337 C 0.44708 0.60817 0.0585 0.0
C338 C 0.54893 0.59866 0.02055 0.0
C339 C 0.56545 0.61169 0.06955 0.0
C340 C 0.52387 0.60018 0.03453 0.0
C341 C 0.51464 0.61511 0.09715 0.0
C342 C 0.53122 0.62707 0.1494 0.0
C343 C 0.55652 0.62514 0.13621 0.0
H344 H 0.58302 0.447 0.0025 0.0
H345 H 0.63558 0.43252 0.81239 0.0
H346 H 0.5875 0.49067 0.98044 0.0
H347 H 0.64036 0.47672 0.79009 0.0
H348 H 0.67179 0.54712 0.93434 0.0
H349 H 0.66041 0.50655 0.885 0.0
H350 H 0.58417 0.52714 0.89387 0.0
H351 H 0.59576 0.56747 0.94471 0.0
C352 C 0.59496 0.45325 0.95404 0.0
C353 C 0.60907 0.4365 0.90949 0.0
C354 C 0.59745 0.4783 0.9409 0.0
C355 C 0.6144 0.48722 0.88371 0.0
C356 C 0.62722 0.47037 0.83477 0.0
C357 C 0.62439 0.44513 0.8471 0.0
C358 C 0.65272 0.54329 0.92168 0.0
C359 C 0.63464 0.56039 0.94226 0.0
C360 C 0.64615 0.52006 0.89342 0.0
C361 C 0.62134 0.51351 0.88645 0.0
C362 C 0.60341 0.53157 0.89928 0.0
C363 C 0.61002 0.55477 0.92759 0.0
H364 H 0.44614 0.42101 0.0113 0.0
H365 H 0.43186 0.36193 0.17888 0.0
H366 H 0.48987 0.41611 0.03249 0.0
H367 H 0.47598 0.35673 0.20004 0.0
H368 H 0.54353 0.32901 0.03532 0.0
H369 H 0.50377 0.33982 0.09214 0.0
H370 H 0.52746 0.41484 0.11725 0.0
H371 H 0.56726 0.4038 0.05996 0.0
C372 C 0.45243 0.40763 0.05536 0.0
C373 C 0.43578 0.39175 0.09309 0.0
C374 C 0.4775 0.40485 0.06788 0.0
C375 C 0.48642 0.38582 0.1173 0.0
C376 C 0.46962 0.37144 0.16125 0.0
C377 C 0.4444 0.37452 0.14966 0.0
C378 C 0.54055 0.34754 0.05663 0.0
C379 C 0.55838 0.36555 0.04409 0.0
C380 C 0.51782 0.35377 0.08942 0.0
C381 C 0.5124 0.37825 0.10873 0.0
C382 C 0.53109 0.39585 0.10269 0.0
C383 C 0.55393 0.38953 0.07042 0.0
H384 H 0.84928 0.43767 0.90146 0.0
H385 H 0.9268 0.44163 0.85616 0.0
H386 H 0.8471 0.48228 0.90538 0.0
H387 H 0.92503 0.48623 0.86335 0.0
H388 H 0.89663 0.54741 0.6876 0.0
H389 H 0.90745 0.50911 0.75216 0.0
H390 H 0.85715 0.52454 0.94907 0.0
H391 H 0.84629 0.56348 0.88291 0.0
C392 C 0.86605 0.44815 0.89703 0.0
C393 C 0.88818 0.43647 0.87838 0.0
C394 C 0.86486 0.47371 0.89933 0.0
C395 C 0.88582 0.48783 0.8829 0.0
C396 C 0.90849 0.47587 0.87466 0.0
C397 C 0.90958 0.45037 0.87122 0.0
C398 C 0.88834 0.54291 0.74574 0.0
C399 C 0.87043 0.5581 0.77988 0.0
C400 C 0.89472 0.52104 0.78343 0.0
C401 C 0.88311 0.51365 0.85588 0.0
C402 C 0.86632 0.5297 0.89312 0.0
C403 C 0.86019 0.55196 0.85564 0.0
H404 H 0.56734 0.10056 0.16868 0.0
H405 H 0.53576 0.16962 0.23953 0.0
H406 H 0.52792 0.0879 0.11074 0.0
H407 H 0.4968 0.1575 0.17959 0.0
H408 H 0.42839 0.13431 0.07162 0.0
H409 H 0.47206 0.14261 0.0527 0.0
H410 H 0.48968 0.08048 0.20412 0.0
H411 H 0.44621 0.07261 0.22443 0.0
C412 C 0.5523 0.1134 0.1686 0.0
C413 C 0.55443 0.13603 0.20839 0.0
C414 C 0.52977 0.10617 0.1356 0.0
C415 C 0.50934 0.12174 0.14047 0.0
C416 C 0.51228 0.14525 0.17373 0.0
C417 C 0.53453 0.15217 0.20838 0.0
C418 C 0.44163 0.12176 0.09746 0.0
C419 C 0.43406 0.10293 0.14993 0.0
C420 C 0.46659 0.12659 0.08699 0.0
C421 C 0.48421 0.11232 0.12754 0.0
C422 C 0.47654 0.09167 0.17163 0.0
C423 C 0.45166 0.08718 0.18348 0.0
H424 H 0.07542 0.55188 0.76164 0.0
H425 H 0.13346 0.56913 0.93038 0.0
H426 H 0.08252 0.5084 0.78314 0.0
H427 H 0.14096 0.52536 0.95115 0.0
H428 H 0.17197 0.46085 0.77613 0.0
H429 H 0.15909 0.49966 0.8355 0.0
H430 H 0.08653 0.47047 0.87236 0.0
H431 H 0.09974 0.43144 0.81404 0.0
C432 C 0.089 0.54628 0.80608 0.0
C433 C 0.104 0.56373 0.84398 0.0
C434 C 0.09304 0.52137 0.8187 0.0
C435 C 0.11249 0.51348 0.86817 0.0
C436 C 0.1259 0.53098 0.9125 0.0
C437 C 0.12152 0.55599 0.90103 0.0
C438 C 0.15362 0.46241 0.80061 0.0
C439 C 0.13688 0.44323 0.79116 0.0
C440 C 0.14623 0.48459 0.83486 0.0
C441 C 0.12175 0.48814 0.8583 0.0
C442 C 0.10551 0.46821 0.85492 0.0
C443 C 0.11308 0.44584 0.82188 0.0
H444 H 0.43963 0.84895 0.14004 0.0
H445 H 0.46007 0.88945 0.35552 0.0
H446 H 0.47879 0.86024 0.07582 0.0
H447 H 0.49847 0.90079 0.29246 0.0
H448 H 0.56266 0.92649 0.18026 0.0
H449 H 0.51809 0.92387 0.18112 0.0
H450 H 0.52257 0.84777 0.1117 0.0
H451 H 0.56724 0.8508 0.10831 0.0
C452 C 0.45225 0.86066 0.17274 0.0
C453 C 0.4471 0.86811 0.2529 0.0
C454 C 0.47458 0.86707 0.13623 0.0
C455 C 0.49164 0.88153 0.17884 0.0
C456 C 0.48562 0.89 0.25724 0.0
C457 C 0.46372 0.88326 0.29391 0.0
C458 C 0.554 0.90961 0.16099 0.0
C459 C 0.56814 0.88885 0.14419 0.0
C460 C 0.52854 0.90803 0.16207 0.0
C461 C 0.51689 0.88546 0.14834 0.0
C462 C 0.53101 0.86542 0.12224 0.0
C463 C 0.55656 0.86712 0.1202 0.0
H464 H 0.83427 0.94986 0.41234 0.0
H465 H 0.91007 0.9312 0.44774 0.0
H466 H 0.84607 0.99033 0.36404 0.0
H467 H 0.92222 0.97146 0.39695 0.0
H468 H 0.91959 0.05141 0.50341 0.0
H469 H 0.91717 0.00784 0.47762 0.0
H470 H 0.86661 0.02105 0.27965 0.0
H471 H 0.86909 0.06517 0.30654 0.0
C472 C 0.85353 0.95401 0.40519 0.0
C473 C 0.8713 0.93756 0.43302 0.0
C474 C 0.86037 0.97722 0.3775 0.0
C475 C 0.88512 0.98434 0.37795 0.0
C476 C 0.90299 0.96669 0.39706 0.0
C477 C 0.8961 0.94356 0.4253 0.0
C478 C 0.9086 0.04506 0.4526 0.0
C479 C 0.89431 0.06154 0.4076 0.0
C480 C 0.90732 0.02003 0.43722 0.0
C481 C 0.89148 0.01083 0.37695 0.0
C482 C 0.87881 0.02755 0.32699 0.0
C483 C 0.88034 0.05278 0.3419 0.0
H484 H 0.93107 0.09631 0.57434 0.0
H485 H 0.95508 0.17047 0.53531 0.0
H486 H 0.97138 0.0858 0.62903 0.0
H487 H 0.99518 0.16024 0.59093 0.0
H488 H 0.05276 0.07936 0.51694 0.0
H489 H 0.0089 0.08467 0.53625 0.0
H490 H 0.02268 0.14362 0.70557 0.0
H491 H 0.06686 0.1379 0.68708 0.0
C492 C 0.94457 0.11061 0.58119 0.0
C493 C 0.94006 0.13421 0.55127 0.0
C494 C 0.96766 0.10459 0.61208 0.0
C495 C 0.98643 0.12217 0.61397 0.0
C496 C 0.98102 0.14637 0.59133 0.0
C497 C 0.9581 0.15225 0.55933 0.0
C498 C 0.04639 0.09282 0.56062 0.0
C499 C 0.06304 0.10835 0.60008 0.0
C500 C 0.0213 0.09578 0.57214 0.0
C501 C 0.01238 0.11467 0.62209 0.0
C502 C 0.0291 0.12894 0.66672 0.0
C503 C 0.05432 0.12561 0.65642 0.0
H504 H 0.14932 0.93784 0.35119 0.0
H505 H 0.07266 0.94086 0.41109 0.0
H506 H 0.15103 0.98245 0.34895 0.0
H507 H 0.07383 0.98545 0.40495 0.0
H508 H 0.10364 0.04614 0.5783 0.0
H509 H 0.09254 0.00801 0.51348 0.0
H510 H 0.14037 0.0248 0.31099 0.0
H511 H 0.15158 0.06359 0.37772 0.0
C512 C 0.13254 0.94812 0.35916 0.0
C513 C 0.11089 0.93615 0.38158 0.0
C514 C 0.13346 0.97369 0.35781 0.0
C515 C 0.11267 0.98753 0.37872 0.0
C516 C 0.09028 0.97531 0.39036 0.0
C517 C 0.0895 0.9498 0.39318 0.0
C518 C 0.11138 0.04195 0.51905 0.0
C519 C 0.12871 0.05749 0.48344 0.0
C520 C 0.10479 0.02019 0.48115 0.0
C521 C 0.11558 0.01324 0.40684 0.0
C522 C 0.13182 0.02961 0.36838 0.0
C523 C 0.13817 0.05177 0.4062 0.0
H524 H 0.93851 0.91409 0.6077 0.0
H525 H 0.9392 0.83747 0.54563 0.0
H526 H 0.98319 0.91319 0.62466 0.0
H527 H 0.98344 0.83631 0.56395 0.0
H528 H 0.06293 0.83739 0.5964 0.0
H529 H 0.02178 0.84307 0.65382 0.0
H530 H 0.01161 0.90657 0.50081 0.0
H531 H 0.05212 0.90038 0.44249 0.0
C532 C 0.94815 0.89689 0.60119 0.0
C533 C 0.9357 0.87585 0.57532 0.0
C534 C 0.97361 0.89635 0.61069 0.0
C535 C 0.98675 0.87467 0.59565 0.0
C536 C 0.97382 0.85317 0.57715 0.0
C537 C 0.94854 0.85384 0.56612 0.0
C538 C 0.05218 0.85308 0.57785 0.0
C539 C 0.06042 0.86846 0.51521 0.0
C540 C 0.02869 0.8563 0.61036 0.0
C541 C 0.01351 0.87523 0.58161 0.0
C542 C 0.02296 0.89202 0.52494 0.0
C543 C 0.04608 0.88844 0.49124 0.0
H544 H 0.32702 0.3138 0.12861 0.0
H545 H 0.39205 0.29685 0.99001 0.0
H546 H 0.32601 0.27174 0.18029 0.0
H547 H 0.39134 0.25501 0.04393 0.0
H548 H 0.39478 0.19666 0.26033 0.0
H549 H 0.39375 0.23905 0.21082 0.0
H550 H 0.32373 0.22565 0.09811 0.0
H551 H 0.32505 0.18311 0.14503 0.0
C552 C 0.34096 0.30104 0.10875 0.0
C553 C 0.35954 0.30853 0.0549 0.0
C554 C 0.34039 0.27708 0.13847 0.0
C555 C 0.35874 0.2604 0.11655 0.0
C556 C 0.37713 0.26771 0.06202 0.0
C557 C 0.37737 0.29151 0.03065 0.0
C558 C 0.37902 0.20291 0.22613 0.0
C559 C 0.35997 0.18669 0.20662 0.0
C560 C 0.37854 0.22701 0.19731 0.0
C561 C 0.35872 0.23538 0.15045 0.0
C562 C 0.33918 0.21952 0.13412 0.0
C563 C 0.33994 0.19528 0.16104 0.0
H564 H 0.18197 0.67223 0.87527 0.0
H565 H 0.19917 0.60695 0.7382 0.0
H566 H 0.2241 0.67373 0.92614 0.0
H567 H 0.24115 0.60818 0.79141 0.0
H568 H 0.29709 0.60745 0.02271 0.0
H569 H 0.25503 0.60851 0.97038 0.0
H570 H 0.27178 0.6737 0.83339 0.0
H571 H 0.31403 0.67235 0.88341 0.0
C572 C 0.19481 0.65835 0.85551 0.0
C573 C 0.18736 0.63951 0.80251 0.0
C574 C 0.21881 0.65922 0.88474 0.0
C575 C 0.23557 0.64096 0.86302 0.0
C576 C 0.22836 0.62236 0.80907 0.0
C577 C 0.20449 0.6218 0.77822 0.0
C578 C 0.29169 0.6222 0.98247 0.0
C579 C 0.30878 0.63983 0.9572 0.0
C580 C 0.26777 0.62266 0.9521 0.0
C581 C 0.26046 0.64107 0.89764 0.0
C582 C 0.27716 0.65931 0.87517 0.0
C583 C 0.30121 0.65854 0.90393 0.0
H584 H 0.63688 0.79878 0.30013 0.0
H585 H 0.67431 0.82093 0.07987 0.0
H586 H 0.63965 0.75614 0.25691 0.0
H587 H 0.67719 0.77842 0.03747 0.0
H588 H 0.64306 0.70617 0.94093 0.0
H589 H 0.64731 0.74818 0.98895 0.0
H590 H 0.66748 0.72181 0.22795 0.0
H591 H 0.66306 0.67987 0.18064 0.0
C592 C 0.64613 0.79457 0.24342 0.0
C593 C 0.65511 0.81337 0.1932 0.0
C594 C 0.64773 0.77011 0.21863 0.0
C595 C 0.65835 0.76393 0.14313 0.0
C596 C 0.66847 0.78261 0.09511 0.0
C597 C 0.66691 0.807 0.11985 0.0
C598 C 0.64867 0.70929 0.00343 0.0
C599 C 0.65253 0.68955 0.05684 0.0
C600 C 0.65121 0.73339 0.03093 0.0
C601 C 0.6576 0.73833 0.11249 0.0
C602 C 0.6622 0.71863 0.16515 0.0
C603 C 0.65977 0.69456 0.13766 0.0
H604 H 0.70354 0.36078 0.05099 0.0
H605 H 0.67937 0.34193 0.80769 0.0
H606 H 0.74595 0.35722 0.0066 0.0
H607 H 0.72174 0.33823 0.76397 0.0
H608 H 0.79935 0.37 0.70301 0.0
H609 H 0.75629 0.36682 0.74113 0.0
H610 H 0.77643 0.32717 0.95878 0.0
H611 H 0.81932 0.33041 0.92147 0.0
C612 C 0.70721 0.35559 0.98842 0.0
C613 C 0.68797 0.35179 0.933 0.0
C614 C 0.73154 0.35345 0.96302 0.0
C615 C 0.73718 0.34754 0.88162 0.0
C616 C 0.71798 0.3431 0.82677 0.0
C617 C 0.69368 0.34511 0.85219 0.0
C618 C 0.79458 0.36021 0.75818 0.0
C619 C 0.81287 0.35073 0.80953 0.0
C620 C 0.76989 0.35838 0.78003 0.0
C621 C 0.76301 0.34705 0.85362 0.0
C622 C 0.78119 0.33644 0.90259 0.0
C623 C 0.80579 0.33821 0.88078 0.0
H624 H 0.86361 0.70377 0.80616 0.0
H625 H 0.82442 0.6792 0.59213 0.0
H626 H 0.85964 0.74601 0.75949 0.0
H627 H 0.82038 0.72127 0.54629 0.0
H628 H 0.83525 0.82125 0.67735 0.0
H629 H 0.8308 0.77978 0.72914 0.0
H630 H 0.85 0.75109 0.49223 0.0
H631 H 0.85433 0.79257 0.43981 0.0
C632 C 0.85372 0.70737 0.7502 0.0
C633 C 0.84462 0.68802 0.70254 0.0
C634 C 0.85141 0.73158 0.72344 0.0
C635 C 0.83997 0.73692 0.64858 0.0
C636 C 0.8297 0.7177 0.60338 0.0
C637 C 0.83194 0.69358 0.63006 0.0
C638 C 0.83824 0.80614 0.63575 0.0
C639 C 0.84536 0.81032 0.55432 0.0
C640 C 0.83581 0.78236 0.6658 0.0
C641 C 0.84024 0.76217 0.61508 0.0
C642 C 0.84626 0.76628 0.53275 0.0
C643 C 0.84882 0.79009 0.50271 0.0
H644 H 0.79456 0.12834 0.55491 0.0
H645 H 0.81812 0.15488 0.31913 0.0
H646 H 0.75205 0.13111 0.51038 0.0
H647 H 0.77574 0.15783 0.27547 0.0
H648 H 0.69975 0.12794 0.19835 0.0
H649 H 0.7424 0.12928 0.24201 0.0
H650 H 0.72042 0.16103 0.4718 0.0
H651 H 0.67788 0.15952 0.42901 0.0
C652 C 0.79072 0.135 0.49403 0.0
C653 C 0.80984 0.14125 0.44065 0.0
C654 C 0.76634 0.13667 0.46858 0.0
C655 C 0.76055 0.14456 0.38918 0.0
C656 C 0.77961 0.15134 0.33655 0.0
C657 C 0.80393 0.14976 0.36197 0.0
C658 C 0.704 0.13545 0.2578 0.0
C659 C 0.68529 0.14348 0.31018 0.0
C660 C 0.72847 0.13628 0.28278 0.0
C661 C 0.73475 0.14509 0.36068 0.0
C662 C 0.71614 0.15376 0.412 0.0
C663 C 0.69173 0.15302 0.38706 0.0
H664 H 0.13268 0.32046 0.55166 0.0
H665 H 0.16177 0.30196 0.7884 0.0
H666 H 0.13431 0.2778 0.51132 0.0
H667 H 0.16528 0.25932 0.74646 0.0
H668 H 0.13905 0.18286 0.68985 0.0
H669 H 0.14164 0.22556 0.72562 0.0
H670 H 0.15611 0.24367 0.47318 0.0
H671 H 0.15181 0.20053 0.43667 0.0
C672 C 0.13994 0.30724 0.59452 0.0
C673 C 0.14693 0.31445 0.67341 0.0
C674 C 0.14108 0.28271 0.57114 0.0
C675 C 0.14982 0.26481 0.62546 0.0
C676 C 0.15778 0.27233 0.70346 0.0
C677 C 0.15598 0.29681 0.72758 0.0
C678 C 0.14295 0.1959 0.64182 0.0
C679 C 0.14522 0.18828 0.56028 0.0
C680 C 0.14466 0.22054 0.66257 0.0
C681 C 0.14926 0.23835 0.60269 0.0
C682 C 0.15212 0.23064 0.52104 0.0
C683 C 0.14984 0.20588 0.49994 0.0
H684 H 0.18486 0.82534 0.34536 0.0
H685 H 0.20453 0.88498 0.50568 0.0
H686 H 0.22743 0.82247 0.29945 0.0
H687 H 0.24697 0.88225 0.45804 0.0
H688 H 0.30408 0.88431 0.22354 0.0
H689 H 0.26098 0.88304 0.26525 0.0
H690 H 0.2757 0.82009 0.41572 0.0
H691 H 0.31887 0.82151 0.37583 0.0
C692 C 0.1983 0.83767 0.37129 0.0
C693 C 0.1914 0.85537 0.42926 0.0
C694 C 0.22254 0.83602 0.34483 0.0
C695 C 0.24013 0.8523 0.37488 0.0
C696 C 0.2335 0.86961 0.43405 0.0
C697 C 0.20935 0.87101 0.46165 0.0
C698 C 0.29801 0.86987 0.264 0.0
C699 C 0.31479 0.85301 0.29646 0.0
C700 C 0.27349 0.86929 0.28823 0.0
C701 C 0.26536 0.85157 0.34385 0.0
C702 C 0.28174 0.83392 0.37289 0.0
C703 C 0.30632 0.83474 0.34989 0.0
H704 H 0.22074 0.12536 0.66458 0.0
H705 H 0.17519 0.10333 0.86657 0.0
H706 H 0.25596 0.12747 0.75445 0.0
H707 H 0.2108 0.10391 0.95646 0.0
H708 H 0.27504 0.12598 0.11377 0.0
H709 H 0.23936 0.12792 0.02513 0.0
H710 H 0.28356 0.10279 0.82281 0.0
H711 H 0.31941 0.10233 0.9108 0.0
C712 C 0.21835 0.12076 0.72836 0.0
C713 C 0.19531 0.11407 0.75872 0.0
C714 C 0.23861 0.12177 0.7799 0.0
C715 C 0.23643 0.11559 0.86284 0.0
C716 C 0.21319 0.10915 0.8933 0.0
C717 C 0.19277 0.10865 0.84185 0.0
C718 C 0.27708 0.12103 0.05013 0.0
C719 C 0.29994 0.11402 0.01898 0.0
C720 C 0.25658 0.12195 0.99937 0.0
C721 C 0.25841 0.11542 0.91659 0.0
C722 C 0.28143 0.10844 0.88569 0.0
C723 C 0.30201 0.10801 0.93616 0.0
H724 H 0.12465 0.77706 0.33534 0.0
H725 H 0.10457 0.82269 0.13118 0.0
H726 H 0.12531 0.74141 0.24684 0.0
H727 H 0.10376 0.78681 0.04288 0.0
H728 H 0.12559 0.72227 0.88771 0.0
H729 H 0.12767 0.75784 0.97643 0.0
H730 H 0.10028 0.71421 0.17682 0.0
H731 H 0.09966 0.67833 0.08856 0.0
C732 C 0.12016 0.77939 0.27143 0.0
C733 C 0.11455 0.80259 0.23995 0.0
C734 C 0.12034 0.7589 0.22071 0.0
C735 C 0.11444 0.76107 0.13752 0.0
C736 C 0.10884 0.78442 0.10619 0.0
C737 C 0.10914 0.80501 0.15677 0.0
C738 C 0.12012 0.72032 0.95089 0.0
C739 C 0.11245 0.6976 0.98141 0.0
C740 C 0.12112 0.74076 0.00171 0.0
C741 C 0.114 0.73907 0.08394 0.0
C742 C 0.10634 0.7162 0.11431 0.0
C743 C 0.10582 0.69563 0.06373 0.0
H744 H 0.72623 0.90607 0.08444 0.0
H745 H 0.68156 0.87846 0.88745 0.0
H746 H 0.7615 0.90725 0.99433 0.0
H747 H 0.71715 0.87892 0.79747 0.0
H748 H 0.77891 0.90708 0.63773 0.0
H749 H 0.7438 0.90709 0.72876 0.0
H750 H 0.78963 0.88079 0.92497 0.0
H751 H 0.82499 0.88151 0.83411 0.0
C752 C 0.72398 0.90012 0.02187 0.0
C753 C 0.70111 0.89221 0.99288 0.0
C754 C 0.74426 0.90064 0.97036 0.0
C755 C 0.74219 0.89314 0.88872 0.0
C756 C 0.71929 0.88516 0.85975 0.0
C757 C 0.69892 0.88477 0.9113 0.0
C758 C 0.78153 0.90143 0.70046 0.0
C759 C 0.8047 0.89431 0.7289 0.0
C760 C 0.76134 0.90124 0.75246 0.0
C761 C 0.76383 0.89377 0.834 0.0
C762 C 0.78712 0.88692 0.86272 0.0
C763 C 0.80738 0.88726 0.81071 0.0
H764 H 0.87869 0.17578 0.1553 0.0
H765 H 0.89676 0.22141 0.36188 0.0
H766 H 0.87765 0.21199 0.06792 0.0
H767 H 0.8966 0.25728 0.27473 0.0
H768 H 0.87188 0.3202 0.11518 0.0
H769 H 0.87023 0.2837 0.20069 0.0
H770 H 0.90413 0.24163 0.00807 0.0
H771 H 0.90492 0.27782 0.922 0.0
C772 C 0.88259 0.19351 0.18184 0.0
C773 C 0.88777 0.19577 0.26533 0.0
C774 C 0.8821 0.21425 0.13184 0.0
C775 C 0.88699 0.2376 0.16431 0.0
C776 C 0.89227 0.23971 0.24787 0.0
C777 C 0.89255 0.21907 0.29778 0.0
C778 C 0.87896 0.30313 0.09131 0.0
C779 C 0.88857 0.30187 0.01209 0.0
C780 C 0.87811 0.28222 0.14031 0.0
C781 C 0.88708 0.25968 0.11134 0.0
C782 C 0.89668 0.25853 0.03194 0.0
C783 C 0.89732 0.27935 0.9828 0.0
H784 H 0.22431 0.4043 0.58585 0.0
H785 H 0.1771 0.38031 0.39034 0.0
H786 H 0.25934 0.40254 0.495 0.0
H787 H 0.21241 0.37746 0.2997 0.0
H788 H 0.27641 0.39947 0.13776 0.0
H789 H 0.2411 0.40125 0.22755 0.0
H790 H 0.28566 0.37515 0.42744 0.0
H791 H 0.32129 0.37447 0.33789 0.0
C792 C 0.22146 0.39849 0.52339 0.0
C793 C 0.19797 0.39248 0.49506 0.0
C794 C 0.24161 0.39727 0.4714 0.0
C795 C 0.23883 0.38969 0.38998 0.0
C796 C 0.21523 0.3837 0.36166 0.0
C797 C 0.19499 0.38524 0.41357 0.0
C798 C 0.27865 0.39409 0.20091 0.0
C799 C 0.30162 0.3869 0.23096 0.0
C800 C 0.25834 0.39495 0.25234 0.0
C801 C 0.26043 0.38833 0.3349 0.0
C802 C 0.28342 0.38081 0.3646 0.0
C803 C 0.30384 0.38027 0.31327 0.0
H804 H 0.39509 0.82115 0.62136 0.0
H805 H 0.37631 0.77538 0.41625 0.0
H806 H 0.3942 0.78553 0.71076 0.0
H807 H 0.37374 0.74004 0.50563 0.0
H808 H 0.39692 0.67667 0.66609 0.0
H809 H 0.39716 0.71242 0.57749 0.0
H810 H 0.37038 0.75686 0.77696 0.0
H811 H 0.37177 0.72136 0.8662 0.0
C812 C 0.39038 0.80349 0.59582 0.0
C813 C 0.38595 0.80093 0.51204 0.0
C814 C 0.38969 0.78304 0.64702 0.0
C815 C 0.38399 0.75969 0.61572 0.0
C816 C 0.37884 0.75746 0.53193 0.0
C817 C 0.3801 0.77778 0.48063 0.0
C818 C 0.39108 0.69412 0.69065 0.0
C819 C 0.38445 0.69632 0.7729 0.0
C820 C 0.39103 0.71464 0.63981 0.0
C821 C 0.38379 0.73772 0.6697 0.0
C822 C 0.37662 0.73963 0.7519 0.0
C823 C 0.37722 0.71923 0.80306 0.0
H824 H 0.67614 0.62026 0.34402 0.0
H825 H 0.72301 0.59503 0.14927 0.0
H826 H 0.71125 0.62091 0.43646 0.0
H827 H 0.75774 0.59492 0.24156 0.0
H828 H 0.81972 0.62248 0.40146 0.0
H829 H 0.78423 0.62269 0.31116 0.0
H830 H 0.73931 0.59452 0.50674 0.0
H831 H 0.77455 0.59506 0.59733 0.0
C832 C 0.69387 0.61462 0.32128 0.0
C833 C 0.69685 0.60769 0.23947 0.0
C834 C 0.71397 0.61491 0.37416 0.0
C835 C 0.73738 0.60811 0.34626 0.0
C836 C 0.74013 0.60077 0.26469 0.0
C837 C 0.72015 0.60066 0.21191 0.0
C838 C 0.80226 0.61632 0.42497 0.0
C839 C 0.79993 0.60872 0.50631 0.0
C840 C 0.78193 0.61633 0.37324 0.0
C841 C 0.75889 0.60857 0.40167 0.0
C842 C 0.75666 0.60095 0.48314 0.0
C843 C 0.77692 0.60109 0.5349 0.0
H844 H 0.61929 0.17956 0.59681 0.0
H845 H 0.59702 0.2249 0.39429 0.0
H846 H 0.62019 0.21548 0.68497 0.0
H847 H 0.59691 0.26062 0.48277 0.0
H848 H 0.6212 0.32386 0.64602 0.0
H849 H 0.62219 0.28831 0.55563 0.0
H850 H 0.59357 0.24324 0.75017 0.0
H851 H 0.59356 0.27839 0.84061 0.0
C852 C 0.61442 0.19718 0.57135 0.0
C853 C 0.60805 0.19941 0.48879 0.0
C854 C 0.61479 0.21777 0.62189 0.0
C855 C 0.60851 0.24101 0.59117 0.0
C856 C 0.60222 0.24315 0.50835 0.0
C857 C 0.60211 0.22261 0.45769 0.0
C858 C 0.6151 0.30634 0.66911 0.0
C859 C 0.6074 0.30388 0.75033 0.0
C860 C 0.61557 0.28597 0.61735 0.0
C861 C 0.60809 0.2628 0.64565 0.0
C862 C 0.6 0.26059 0.72667 0.0
C863 C 0.5998 0.28083 0.77843 0.0
loop_
_geom_bond_atom_site_label_1
_geom_bond_atom_site_label_2
_geom_bond_distance
_geom_bond_site_symmetry_2
_ccdc_geom_bond_type
Co0 O1 2.216 . S
Co0 O2 2.091 . S
Co0 O4 2.004 . S
Co0 O10 2.021 . S
Co0 O12 2.137 . S
Co0 O13 2.244 . S
O1 Co0 2.216 . S
O1 C8 1.247 . S
O2 Co0 2.091 . S
O2 C8 1.261 . S
C3 O12 1.247 . S
C3 O13 1.272 . S
O4 Co0 2.004 . S
O4 C9 1.259 . S
Co5 O6 2.061 . S
Co5 O11 2.052 . S
Co5 O13 2.135 . S
O6 Co5 2.061 . S
O6 C9 1.235 . S
C7 O10 1.238 . S
C7 O11 1.241 . S
C8 O1 1.247 . S
C8 O2 1.261 . S
C9 O4 1.259 . S
C9 O6 1.235 . S
O10 Co0 2.021 . S
O10 C7 1.238 . S
O11 Co5 2.052 . S
O11 C7 1.241 . S
O12 Co0 2.137 . S
O12 C3 1.247 . S
O13 Co0 2.244 . S
O13 C3 1.272 . S
O13 Co5 2.135 . S
Co14 O15 2.216 . S
Co14 O16 2.091 . S
Co14 O18 2.004 . S
Co14 O24 2.021 . S
Co14 O26 2.137 . S
Co14 O27 2.244 . S
O15 Co14 2.216 . S
O15 C22 1.247 . S
O16 Co14 2.091 . S
O16 C22 1.261 . S
C17 O26 1.247 . S
C17 O27 1.272 . S
O18 Co14 2.004 . S
O18 C23 1.259 . S
Co19 O20 2.061 . S
Co19 O25 2.052 . S
Co19 O27 2.135 . S
O20 Co19 2.061 . S
O20 C23 1.235 . S
C21 O24 1.238 . S
C21 O25 1.241 . S
C22 O15 1.247 . S
C22 O16 1.261 . S
C23 O18 1.259 . S
C23 O20 1.235 . S
O24 Co14 2.021 . S
O24 C21 1.238 . S
O25 Co19 2.052 . S
O25 C21 1.241 . S
O26 Co14 2.137 . S
O26 C17 1.247 . S
O27 Co14 2.244 . S
O27 C17 1.272 . S
O27 Co19 2.135 . S
Co28 O29 2.216 . S
Co28 O30 2.091 . S
Co28 O32 2.004 . S
Co28 O38 2.021 . S
Co28 O40 2.137 . S
Co28 O41 2.244 . S
O29 Co28 2.216 . S
O29 C36 1.247 . S
O30 Co28 2.091 . S
O30 C36 1.261 . S
C31 O40 1.247 . S
C31 O41 1.272 . S
O32 Co28 2.004 . S
O32 C37 1.259 . S
Co33 O34 2.061 . S
Co33 O39 2.052 . S
Co33 O41 2.135 . S
O34 Co33 2.061 . S
O34 C37 1.235 . S
C35 O38 1.238 . S
C35 O39 1.241 . S
C36 O29 1.247 . S
C36 O30 1.261 . S
C37 O32 1.259 . S
C37 O34 1.235 . S
O38 Co28 2.021 . S
O38 C35 1.238 . S
O39 Co33 2.052 . S
O39 C35 1.241 . S
O40 Co28 2.137 . S
O40 C31 1.247 . S
O41 Co28 2.244 . S
O41 C31 1.272 . S
O41 Co33 2.135 . S
Co42 O43 2.216 . S
Co42 O44 2.091 . S
Co42 O46 2.004 . S
Co42 O52 2.021 . S
Co42 O54 2.137 . S
Co42 O55 2.244 . S
O43 Co42 2.216 . S
O43 C50 1.247 . S
O44 Co42 2.091 . S
O44 C50 1.261 . S
C45 O54 1.247 . S
C45 O55 1.272 . S
O46 Co42 2.004 . S
O46 C51 1.259 . S
Co47 O48 2.061 . S
Co47 O53 2.052 . S
Co47 O55 2.135 . S
O48 Co47 2.061 . S
O48 C51 1.235 . S
C49 O52 1.238 . S
C49 O53 1.241 . S
C50 O43 1.247 . S
C50 O44 1.261 . S
C51 O46 1.259 . S
C51 O48 1.235 . S
O52 Co42 2.021 . S
O52 C49 1.238 . S
O53 Co47 2.052 . S
O53 C49 1.241 . S
O54 Co42 2.137 . S
O54 C45 1.247 . S
O55 Co42 2.244 . S
O55 C45 1.272 . S
O55 Co47 2.135 . S
Co56 O57 2.216 . S
Co56 O58 2.091 . S
Co56 O60 2.004 . S
Co56 O66 2.021 . S
Co56 O68 2.137 . S
Co56 O69 2.244 1_554 S
O57 Co56 2.216 . S
O57 C64 1.247 . S
O58 Co56 2.091 . S
O58 C64 1.261 . S
C59 O68 1.247 . S
C59 O69 1.272 1_554 S
O60 Co56 2.004 . S
O60 C65 1.259 . S
Co61 O62 2.061 1_556 S
Co61 O67 2.052 . S
Co61 O69 2.135 . S
O62 Co61 2.061 1_554 S
O62 C65 1.235 . S
C63 O66 1.238 . S
C63 O67 1.241 1_554 S
C64 O57 1.247 . S
C64 O58 1.261 . S
C65 O60 1.259 . S
C65 O62 1.235 . S
O66 Co56 2.021 . S
O66 C63 1.238 . S
O67 Co61 2.052 . S
O67 C63 1.241 1_556 S
O68 Co56 2.137 . S
O68 C59 1.247 . S
O69 Co56 2.244 1_556 S
O69 C59 1.272 1_556 S
O69 Co61 2.135 . S
Co70 O71 2.216 . S
Co70 O72 2.091 . S
Co70 O74 2.004 . S
Co70 O80 2.021 . S
Co70 O82 2.137 . S
Co70 O83 2.244 1_556 S
O71 Co70 2.216 . S
O71 C78 1.247 . S
O72 Co70 2.091 . S
O72 C78 1.261 . S
C73 O82 1.247 . S
C73 O83 1.272 1_556 S
O74 Co70 2.004 . S
O74 C79 1.259 . S
Co75 O76 2.061 1_554 S
Co75 O81 2.052 . S
Co75 O83 2.135 . S
O76 Co75 2.061 1_556 S
O76 C79 1.235 . S
C77 O80 1.238 . S
C77 O81 1.241 1_556 S
C78 O71 1.247 . S
C78 O72 1.261 . S
C79 O74 1.259 . S
C79 O76 1.235 . S
O80 Co70 2.021 . S
O80 C77 1.238 . S
O81 Co75 2.052 . S
O81 C77 1.241 1_554 S
O82 Co70 2.137 . S
O82 C73 1.247 . S
O83 Co70 2.244 1_554 S
O83 C73 1.272 1_554 S
O83 Co75 2.135 . S
Co84 O85 2.216 . S
Co84 O86 2.091 . S
Co84 O88 2.004 . S
Co84 O94 2.021 . S
Co84 O96 2.137 . S
Co84 O97 2.244 1_554 S
O85 Co84 2.216 . S
O85 C92 1.247 . S
O86 Co84 2.091 . S
O86 C92 1.261 . S
C87 O96 1.247 . S
C87 O97 1.272 1_554 S
O88 Co84 2.004 . S
O88 C93 1.259 . S
Co89 O90 2.061 1_556 S
Co89 O95 2.052 . S
Co89 O97 2.135 . S
O90 Co89 2.061 1_554 S
O90 C93 1.235 . S
C91 O94 1.238 . S
C91 O95 1.241 1_554 S
C92 O85 1.247 . S
C92 O86 1.261 . S
C93 O88 1.259 . S
C93 O90 1.235 . S
O94 Co84 2.021 . S
O94 C91 1.238 . S
O95 Co89 2.052 . S
O95 C91 1.241 1_556 S
O96 Co84 2.137 . S
O96 C87 1.247 . S
O97 Co84 2.244 1_556 S
O97 C87 1.272 1_556 S
O97 Co89 2.135 . S
Co98 O99 2.216 . S
Co98 O100 2.091 . S
Co98 O102 2.004 . S
Co98 O108 2.021 . S
Co98 O110 2.137 . S
Co98 O111 2.244 1_556 S
O99 Co98 2.216 . S
O99 C106 1.247 . S
O100 Co98 2.091 . S
O100 C106 1.261 . S
C101 O110 1.247 . S
C101 O111 1.272 1_556 S
O102 Co98 2.004 . S
O102 C107 1.259 . S
Co103 O104 2.061 1_554 S
Co103 O109 2.052 . S
Co103 O111 2.135 . S
O104 Co103 2.061 1_556 S
O104 C107 1.235 . S
C105 O108 1.238 . S
C105 O109 1.241 1_556 S
C106 O99 1.247 . S
C106 O100 1.261 . S
C107 O102 1.259 . S
C107 O104 1.235 . S
O108 Co98 2.021 . S
O108 C105 1.238 . S
O109 Co103 2.052 . S
O109 C105 1.241 1_554 S
O110 Co98 2.137 . S
O110 C101 1.247 . S
O111 Co98 2.244 1_554 S
O111 C101 1.272 1_554 S
O111 Co103 2.135 . S
Co112 O113 2.216 . S
Co112 O114 2.091 . S
Co112 O116 2.004 . S
Co112 O122 2.021 . S
Co112 O124 2.137 . S
Co112 O125 2.244 . S
O113 Co112 2.216 . S
O113 C120 1.247 . S
O114 Co112 2.091 . S
O114 C120 1.261 . S
C115 O124 1.247 . S
C115 O125 1.272 . S
O116 Co112 2.004 . S
O116 C121 1.259 . S
Co117 O118 2.061 . S
Co117 O123 2.052 . S
Co117 O125 2.135 . S
O118 Co117 2.061 . S
O118 C121 1.235 . S
C119 O122 1.238 . S
C119 O123 1.241 . S
C120 O113 1.247 . S
C120 O114 1.261 . S
C121 O116 1.259 . S
C121 O118 1.235 . S
O122 Co112 2.021 . S
O122 C119 1.238 . S
O123 Co117 2.052 . S
O123 C119 1.241 . S
O124 Co112 2.137 . S
O124 C115 1.247 . S
O125 Co112 2.244 . S
O125 C115 1.272 . S
O125 Co117 2.135 . S
Co126 O127 2.216 . S
Co126 O128 2.091 . S
Co126 O130 2.004 . S
Co126 O136 2.021 . S
Co126 O138 2.137 . S
Co126 O139 2.244 . S
O127 Co126 2.216 . S
O127 C134 1.247 . S
O128 Co126 2.091 . S
O128 C134 1.261 . S
C129 O138 1.247 . S
C129 O139 1.272 . S
O130 Co126 2.004 . S
O130 C135 1.259 . S
Co131 O132 2.061 . S
Co131 O137 2.052 . S
Co131 O139 2.135 . S
O132 Co131 2.061 . S
O132 C135 1.235 . S
C133 O136 1.238 . S
C133 O137 1.241 . S
C134 O127 1.247 . S
C134 O128 1.261 . S
C135 O130 1.259 . S
C135 O132 1.235 . S
O136 Co126 2.021 . S
O136 C133 1.238 . S
O137 Co131 2.052 . S
O137 C133 1.241 . S
O138 Co126 2.137 . S
O138 C129 1.247 . S
O139 Co126 2.244 . S
O139 C129 1.272 . S
O139 Co131 2.135 . S
Co140 O141 2.216 . S
Co140 O142 2.091 . S
Co140 O144 2.004 . S
Co140 O150 2.021 . S
Co140 O152 2.137 . S
Co140 O153 2.244 . S
O141 Co140 2.216 . S
O141 C148 1.247 . S
O142 Co140 2.091 . S
O142 C148 1.261 . S
C143 O152 1.247 . S
C143 O153 1.272 . S
O144 Co140 2.004 . S
O144 C149 1.259 . S
Co145 O146 2.061 . S
Co145 O151 2.052 . S
Co145 O153 2.135 . S
O146 Co145 2.061 . S
O146 C149 1.235 . S
C147 O150 1.238 . S
C147 O151 1.241 . S
C148 O141 1.247 . S
C148 O142 1.261 . S
C149 O144 1.259 . S
C149 O146 1.235 . S
O150 Co140 2.021 . S
O150 C147 1.238 . S
O151 Co145 2.052 . S
O151 C147 1.241 . S
O152 Co140 2.137 . S
O152 C143 1.247 . S
O153 Co140 2.244 . S
O153 C143 1.272 . S
O153 Co145 2.135 . S
Co154 O155 2.216 . S
Co154 O156 2.091 . S
Co154 O158 2.004 . S
Co154 O164 2.021 . S
Co154 O166 2.137 . S
Co154 O167 2.244 . S
O155 Co154 2.216 . S
O155 C162 1.247 . S
O156 Co154 2.091 . S
O156 C162 1.261 . S
C157 O166 1.247 . S
C157 O167 1.272 . S
O158 Co154 2.004 . S
O158 C163 1.259 . S
Co159 O160 2.061 . S
Co159 O165 2.052 . S
Co159 O167 2.135 . S
O160 Co159 2.061 . S
O160 C163 1.235 . S
C161 O164 1.238 . S
C161 O165 1.241 . S
C162 O155 1.247 . S
C162 O156 1.261 . S
C163 O158 1.259 . S
C163 O160 1.235 . S
O164 Co154 2.021 . S
O164 C161 1.238 . S
O165 Co159 2.052 . S
O165 C161 1.241 . S
O166 Co154 2.137 . S
O166 C157 1.247 . S
O167 Co154 2.244 . S
O167 C157 1.272 . S
O167 Co159 2.135 . S
Co168 O169 2.216 . S
Co168 O170 2.091 . S
Co168 O172 2.004 . S
Co168 O178 2.021 . S
Co168 O180 2.137 . S
Co168 O181 2.244 . S
O169 Co168 2.216 . S
O169 C176 1.247 . S
O170 Co168 2.091 . S
O170 C176 1.261 . S
C171 O180 1.247 . S
C171 O181 1.272 . S
O172 Co168 2.004 . S
O172 C177 1.259 . S
Co173 O174 2.061 . S
Co173 O179 2.052 . S
Co173 O181 2.135 . S
O174 Co173 2.061 . S
O174 C177 1.235 . S
C175 O178 1.238 . S
C175 O179 1.241 . S
C176 O169 1.247 . S
C176 O170 1.261 . S
C177 O172 1.259 . S
C177 O174 1.235 . S
O178 Co168 2.021 . S
O178 C175 1.238 . S
O179 Co173 2.052 . S
O179 C175 1.241 . S
O180 Co168 2.137 . S
O180 C171 1.247 . S
O181 Co168 2.244 . S
O181 C171 1.272 . S
O181 Co173 2.135 . S
Co182 O183 2.216 . S
Co182 O184 2.091 . S
Co182 O186 2.004 . S
Co182 O192 2.021 . S
Co182 O194 2.137 . S
Co182 O195 2.244 . S
O183 Co182 2.216 . S
O183 C190 1.247 . S
O184 Co182 2.091 . S
O184 C190 1.261 . S
C185 O194 1.247 . S
C185 O195 1.272 . S
O186 Co182 2.004 . S
O186 C191 1.259 . S
Co187 O188 2.061 . S
Co187 O193 2.052 . S
Co187 O195 2.135 . S
O188 Co187 2.061 . S
O188 C191 1.235 . S
C189 O192 1.238 . S
C189 O193 1.241 . S
C190 O183 1.247 . S
C190 O184 1.261 . S
C191 O186 1.259 . S
C191 O188 1.235 . S
O192 Co182 2.021 . S
O192 C189 1.238 . S
O193 Co187 2.052 . S
O193 C189 1.241 . S
O194 Co182 2.137 . S
O194 C185 1.247 . S
O195 Co182 2.244 . S
O195 C185 1.272 . S
O195 Co187 2.135 . S
Co196 O197 2.216 . S
Co196 O198 2.091 . S
Co196 O200 2.004 . S
Co196 O206 2.021 . S
Co196 O208 2.137 . S
Co196 O209 2.244 . S
O197 Co196 2.216 . S
O197 C204 1.247 . S
O198 Co196 2.091 . S
O198 C204 1.261 . S
C199 O208 1.247 . S
C199 O209 1.272 . S
O200 Co196 2.004 . S
O200 C205 1.259 . S
Co201 O202 2.061 . S
Co201 O207 2.052 . S
Co201 O209 2.135 . S
O202 Co201 2.061 . S
O202 C205 1.235 . S
C203 O206 1.238 . S
C203 O207 1.241 . S
C204 O197 1.247 . S
C204 O198 1.261 . S
C205 O200 1.259 . S
C205 O202 1.235 . S
O206 Co196 2.021 . S
O206 C203 1.238 . S
O207 Co201 2.052 . S
O207 C203 1.241 . S
O208 Co196 2.137 . S
O208 C199 1.247 . S
O209 Co196 2.244 . S
O209 C199 1.272 . S
O209 Co201 2.135 . S
Co210 O211 2.216 . S
Co210 O212 2.091 . S
Co210 O214 2.004 . S
Co210 O220 2.021 . S
Co210 O222 2.137 . S
Co210 O223 2.244 . S
O211 Co210 2.216 . S
O211 C218 1.247 . S
O212 Co210 2.091 . S
O212 C218 1.261 . S
C213 O222 1.247 . S
C213 O223 1.272 . S
O214 Co210 2.004 . S
O214 C219 1.259 . S
Co215 O216 2.061 . S
Co215 O221 2.052 . S
Co215 O223 2.135 . S
O216 Co215 2.061 . S
O216 C219 1.235 . S
C217 O220 1.238 . S
C217 O221 1.241 . S
C218 O211 1.247 . S
C218 O212 1.261 . S
C219 O214 1.259 . S
C219 O216 1.235 . S
O220 Co210 2.021 . S
O220 C217 1.238 . S
O221 Co215 2.052 . S
O221 C217 1.241 . S
O222 Co210 2.137 . S
O222 C213 1.247 . S
O223 Co210 2.244 . S
O223 C213 1.272 . S
O223 Co215 2.135 . S
H224 C232 0.950 . S
H225 C237 0.950 . S
H226 C234 0.950 . S
H227 C236 0.950 . S
H228 C238 0.950 . S
H229 C240 0.950 . S
H230 C242 0.950 . S
H231 C243 0.950 . S
C232 H224 0.950 . S
C232 C233 1.386 . S
C232 C234 1.391 . S
C233 C232 1.386 . S
C233 C237 1.393 . S
C234 H226 0.950 . S
C234 C232 1.391 . S
C234 C235 1.400 . S
C235 C234 1.400 . S
C235 C236 1.398 . S
C235 C241 1.491 1_565 S
C236 H227 0.950 . S
C236 C235 1.398 . S
C236 C237 1.391 . S
C237 H225 0.950 . S
C237 C233 1.393 . S
C237 C236 1.391 . S
C238 H228 0.950 . S
C238 C239 1.386 . S
C238 C240 1.391 . S
C239 C238 1.386 . S
C239 C243 1.393 . S
C240 H229 0.950 . S
C240 C238 1.391 . S
C240 C241 1.400 . S
C241 C235 1.491 1_545 S
C241 C240 1.400 . S
C241 C242 1.398 . S
C242 H230 0.950 . S
C242 C241 1.398 . S
C242 C243 1.391 . S
C243 H231 0.950 . S
C243 C239 1.393 . S
C243 C242 1.391 . S
H244 C252 0.950 . S
H245 C257 0.950 . S
H246 C254 0.950 . S
H247 C256 0.950 . S
H248 C258 0.950 . S
H249 C260 0.950 . S
H250 C262 0.950 . S
H251 C263 0.950 . S
C252 H244 0.950 . S
C252 C253 1.386 . S
C252 C254 1.391 . S
C253 C252 1.386 . S
C253 C257 1.393 . S
C254 H246 0.950 . S
C254 C252 1.391 . S
C254 C255 1.400 . S
C255 C254 1.400 . S
C255 C256 1.398 . S
C255 C261 1.491 1_455 S
C256 H247 0.950 . S
C256 C255 1.398 . S
C256 C257 1.391 . S
C257 H245 0.950 . S
C257 C253 1.393 . S
C257 C256 1.391 . S
C258 H248 0.950 . S
C258 C259 1.386 . S
C258 C260 1.391 . S
C259 C258 1.386 . S
C259 C263 1.393 . S
C260 H249 0.950 . S
C260 C258 1.391 . S
C260 C261 1.400 . S
C261 C255 1.491 1_655 S
C261 C260 1.400 . S
C261 C262 1.398 . S
C262 H250 0.950 . S
C262 C261 1.398 . S
C262 C263 1.391 . S
C263 H251 0.950 . S
C263 C259 1.393 . S
C263 C262 1.391 . S
H264 C272 0.950 . S
H265 C277 0.950 . S
H266 C274 0.950 . S
H267 C276 0.950 . S
H268 C278 0.950 . S
H269 C280 0.950 . S
H270 C282 0.950 . S
H271 C283 0.950 . S
C272 H264 0.950 . S
C272 C273 1.386 . S
C272 C274 1.391 . S
C273 C272 1.386 . S
C273 C277 1.393 . S
C274 H266 0.950 . S
C274 C272 1.391 . S
C274 C275 1.400 . S
C275 C274 1.400 . S
C275 C276 1.398 . S
C275 C281 1.491 1_565 S
C276 H267 0.950 . S
C276 C275 1.398 . S
C276 C277 1.391 . S
C277 H265 0.950 . S
C277 C273 1.393 . S
C277 C276 1.391 . S
C278 H268 0.950 . S
C278 C279 1.386 . S
C278 C280 1.391 . S
C279 C278 1.386 . S
C279 C283 1.393 . S
C280 H269 0.950 . S
C280 C278 1.391 . S
C280 C281 1.400 . S
C281 C275 1.491 1_545 S
C281 C280 1.400 . S
C281 C282 1.398 . S
C282 H270 0.950 . S
C282 C281 1.398 . S
C282 C283 1.391 . S
C283 H271 0.950 . S
C283 C279 1.393 . S
C283 C282 1.391 . S
H284 C292 0.950 . S
H285 C297 0.950 . S
H286 C294 0.950 . S
H287 C296 0.950 . S
H288 C298 0.950 . S
H289 C300 0.950 . S
H290 C302 0.950 . S
H291 C303 0.950 . S
C292 H284 0.950 . S
C292 C293 1.386 . S
C292 C294 1.391 . S
C293 C292 1.386 . S
C293 C297 1.393 . S
C294 H286 0.950 . S
C294 C292 1.391 . S
C294 C295 1.400 . S
C295 C294 1.400 . S
C295 C296 1.398 . S
C295 C301 1.491 1_455 S
C296 H287 0.950 . S
C296 C295 1.398 . S
C296 C297 1.391 . S
C297 H285 0.950 . S
C297 C293 1.393 . S
C297 C296 1.391 . S
C298 H288 0.950 . S
C298 C299 1.386 . S
C298 C300 1.391 . S
C299 C298 1.386 . S
C299 C303 1.393 . S
C300 H289 0.950 . S
C300 C298 1.391 . S
C300 C301 1.400 . S
C301 C295 1.491 1_655 S
C301 C300 1.400 . S
C301 C302 1.398 . S
C302 H290 0.950 . S
C302 C301 1.398 . S
C302 C303 1.391 . S
C303 H291 0.950 . S
C303 C299 1.393 . S
C303 C302 1.391 . S
H304 C312 0.950 . S
H305 C317 0.950 1_554 S
H306 C314 0.950 . S
H307 C316 0.950 . S
H308 C318 0.950 . S
H309 C320 0.950 . S
H310 C322 0.950 . S
H311 C323 0.950 . S
C312 H304 0.950 . S
C312 C313 1.386 . S
C312 C314 1.391 . S
C313 C312 1.386 . S
C313 C317 1.393 . S
C314 H306 0.950 . S
C314 C312 1.391 . S
C314 C315 1.400 . S
C315 C314 1.400 . S
C315 C316 1.398 . S
C315 C321 1.491 . S
C316 H307 0.950 . S
C316 C315 1.398 . S
C316 C317 1.391 . S
C317 H305 0.950 1_556 S
C317 C313 1.393 . S
C317 C316 1.391 . S
C318 H308 0.950 . S
C318 C319 1.386 . S
C318 C320 1.391 . S
C319 C318 1.386 . S
C319 C323 1.393 . S
C320 H309 0.950 . S
C320 C318 1.391 . S
C320 C321 1.400 . S
C321 C315 1.491 . S
C321 C320 1.400 . S
C321 C322 1.398 . S
C322 H310 0.950 . S
C322 C321 1.398 . S
C322 C323 1.391 . S
C323 H311 0.950 . S
C323 C319 1.393 . S
C323 C322 1.391 . S
H324 C332 0.950 . S
H325 C337 0.950 . S
H326 C334 0.950 . S
H327 C336 0.950 . S
H328 C338 0.950 1_556 S
H329 C340 0.950 . S
H330 C342 0.950 . S
H331 C343 0.950 . S
C332 H324 0.950 . S
C332 C333 1.386 . S
C332 C334 1.391 . S
C333 C332 1.386 . S
C333 C337 1.393 1_554 S
C334 H326 0.950 . S
C334 C332 1.391 . S
C334 C335 1.400 . S
C335 C334 1.400 . S
C335 C336 1.398 1_554 S
C335 C341 1.491 . S
C336 H327 0.950 . S
C336 C335 1.398 1_556 S
C336 C337 1.391 . S
C337 H325 0.950 . S
C337 C333 1.393 1_556 S
C337 C336 1.391 . S
C338 H328 0.950 1_554 S
C338 C339 1.386 . S
C338 C340 1.391 1_554 S
C339 C338 1.386 . S
C339 C343 1.393 . S
C340 H329 0.950 . S
C340 C338 1.391 1_556 S
C340 C341 1.400 1_556 S
C341 C335 1.491 . S
C341 C340 1.400 1_554 S
C341 C342 1.398 . S
C342 H330 0.950 . S
C342 C341 1.398 . S
C342 C343 1.391 . S
C343 H331 0.950 . S
C343 C339 1.393 . S
C343 C342 1.391 . S
H344 C352 0.950 . S
H345 C357 0.950 . S
H346 C354 0.950 . S
H347 C356 0.950 . S
H348 C358 0.950 . S
H349 C360 0.950 . S
H350 C362 0.950 . S
H351 C363 0.950 . S
C352 H344 0.950 . S
C352 C353 1.386 . S
C352 C354 1.391 . S
C353 C352 1.386 . S
C353 C357 1.393 . S
C354 H346 0.950 . S
C354 C352 1.391 . S
C354 C355 1.400 . S
C355 C354 1.400 . S
C355 C356 1.398 . S
C355 C361 1.491 . S
C356 H347 0.950 . S
C356 C355 1.398 . S
C356 C357 1.391 . S
C357 H345 0.950 . S
C357 C353 1.393 . S
C357 C356 1.391 . S
C358 H348 0.950 . S
C358 C359 1.386 . S
C358 C360 1.391 . S
C359 C358 1.386 . S
C359 C363 1.393 1_556 S
C360 H349 0.950 . S
C360 C358 1.391 . S
C360 C361 1.400 . S
C361 C355 1.491 . S
C361 C360 1.400 . S
C361 C362 1.398 . S
C362 H350 0.950 . S
C362 C361 1.398 . S
C362 C363 1.391 1_556 S
C363 H351 0.950 . S
C363 C359 1.393 1_554 S
C363 C362 1.391 1_554 S
H364 C372 0.950 . S
H365 C377 0.950 . S
H366 C374 0.950 . S
H367 C376 0.950 1_556 S
H368 C378 0.950 . S
H369 C380 0.950 . S
H370 C382 0.950 . S
H371 C383 0.950 . S
C372 H364 0.950 . S
C372 C373 1.386 . S
C372 C374 1.391 . S
C373 C372 1.386 . S
C373 C377 1.393 . S
C374 H366 0.950 . S
C374 C372 1.391 . S
C374 C375 1.400 . S
C375 C374 1.400 . S
C375 C376 1.398 . S
C375 C381 1.491 . S
C376 H367 0.950 1_554 S
C376 C375 1.398 . S
C376 C377 1.391 . S
C377 H365 0.950 . S
C377 C373 1.393 . S
C377 C376 1.391 . S
C378 H368 0.950 . S
C378 C379 1.386 1_556 S
C378 C380 1.391 . S
C379 C378 1.386 1_554 S
C379 C383 1.393 . S
C380 H369 0.950 . S
C380 C378 1.391 . S
C380 C381 1.400 1_556 S
C381 C375 1.491 . S
C381 C380 1.400 1_554 S
C381 C382 1.398 . S
C382 H370 0.950 . S
C382 C381 1.398 . S
C382 C383 1.391 . S
C383 H371 0.950 . S
C383 C379 1.393 . S
C383 C382 1.391 . S
H384 C392 0.950 . S
H385 C397 0.950 . S
H386 C394 0.950 . S
H387 C396 0.950 . S
H388 C398 0.950 . S
H389 C400 0.950 . S
H390 C402 0.950 . S
H391 C403 0.950 . S
C392 H384 0.950 . S
C392 C393 1.386 . S
C392 C394 1.391 . S
C393 C392 1.386 . S
C393 C397 1.393 . S
C394 H386 0.950 . S
C394 C392 1.391 . S
C394 C395 1.400 . S
C395 C394 1.400 . S
C395 C396 1.398 . S
C395 C401 1.491 . S
C396 H387 0.950 . S
C396 C395 1.398 . S
C396 C397 1.391 . S
C397 H385 0.950 . S
C397 C393 1.393 . S
C397 C396 1.391 . S
C398 H388 0.950 . S
C398 C399 1.386 . S
C398 C400 1.391 . S
C399 C398 1.386 . S
C399 C403 1.393 . S
C400 H389 0.950 . S
C400 C398 1.391 . S
C400 C401 1.400 . S
C401 C395 1.491 . S
C401 C400 1.400 . S
C401 C402 1.398 . S
C402 H390 0.950 . S
C402 C401 1.398 . S
C402 C403 1.391 . S
C403 H391 0.950 . S
C403 C399 1.393 . S
C403 C402 1.391 . S
H404 C412 0.950 . S
H405 C417 0.950 . S
H406 C414 0.950 . S
H407 C416 0.950 . S
H408 C418 0.950 . S
H409 C420 0.950 . S
H410 C422 0.950 . S
H411 C423 0.950 . S
C412 H404 0.950 . S
C412 C413 1.386 . S
C412 C414 1.391 . S
C413 C412 1.386 . S
C413 C417 1.393 . S
C414 H406 0.950 . S
C414 C412 1.391 . S
C414 C415 1.400 . S
C415 C414 1.400 . S
C415 C416 1.398 . S
C415 C421 1.491 . S
C416 H407 0.950 . S
C416 C415 1.398 . S
C416 C417 1.391 . S
C417 H405 0.950 . S
C417 C413 1.393 . S
C417 C416 1.391 . S
C418 H408 0.950 . S
C418 C419 1.386 . S
C418 C420 1.391 . S
C419 C418 1.386 . S
C419 C423 1.393 . S
C420 H409 0.950 . S
C420 C418 1.391 . S
C420 C421 1.400 . S
C421 C415 1.491 . S
C421 C420 1.400 . S
C421 C422 1.398 . S
C422 H410 0.950 . S
C422 C421 1.398 . S
C422 C423 1.391 . S
C423 H411 0.950 . S
C423 C419 1.393 . S
C423 C422 1.391 . S
H424 C432 0.950 . S
H425 C437 0.950 . S
H426 C434 0.950 . S
H427 C436 0.950 . S
H428 C438 0.950 . S
H429 C440 0.950 . S
H430 C442 0.950 . S
H431 C443 0.950 . S
C432 H424 0.950 . S
C432 C433 1.386 . S
C432 C434 1.391 . S
C433 C432 1.386 . S
C433 C437 1.393 . S
C434 H426 0.950 . S
C434 C432 1.391 . S
C434 C435 1.400 . S
C435 C434 1.400 . S
C435 C436 1.398 . S
C435 C441 1.491 . S
C436 H427 0.950 . S
C436 C435 1.398 . S
C436 C437 1.391 . S
C437 H425 0.950 . S
C437 C433 1.393 . S
C437 C436 1.391 . S
C438 H428 0.950 . S
C438 C439 1.386 . S
C438 C440 1.391 . S
C439 C438 1.386 . S
C439 C443 1.393 . S
C440 H429 0.950 . S
C440 C438 1.391 . S
C440 C441 1.400 . S
C441 C435 1.491 . S
C441 C440 1.400 . S
C441 C442 1.398 . S
C442 H430 0.950 . S
C442 C441 1.398 . S
C442 C443 1.391 . S
C443 H431 0.950 . S
C443 C439 1.393 . S
C443 C442 1.391 . S
H444 C452 0.950 . S
H445 C457 0.950 . S
H446 C454 0.950 . S
H447 C456 0.950 . S
H448 C458 0.950 . S
H449 C460 0.950 . S
H450 C462 0.950 . S
H451 C463 0.950 . S
C452 H444 0.950 . S
C452 C453 1.386 . S
C452 C454 1.391 . S
C453 C452 1.386 . S
C453 C457 1.393 . S
C454 H446 0.950 . S
C454 C452 1.391 . S
C454 C455 1.400 . S
C455 C454 1.400 . S
C455 C456 1.398 . S
C455 C461 1.491 . S
C456 H447 0.950 . S
C456 C455 1.398 . S
C456 C457 1.391 . S
C457 H445 0.950 . S
C457 C453 1.393 . S
C457 C456 1.391 . S
C458 H448 0.950 . S
C458 C459 1.386 . S
C458 C460 1.391 . S
C459 C458 1.386 . S
C459 C463 1.393 . S
C460 H449 0.950 . S
C460 C458 1.391 . S
C460 C461 1.400 . S
C461 C455 1.491 . S
C461 C460 1.400 . S
C461 C462 1.398 . S
C462 H450 0.950 . S
C462 C461 1.398 . S
C462 C463 1.391 . S
C463 H451 0.950 . S
C463 C459 1.393 . S
C463 C462 1.391 . S
H464 C472 0.950 . S
H465 C477 0.950 . S
H466 C474 0.950 . S
H467 C476 0.950 . S
H468 C478 0.950 . S
H469 C480 0.950 . S
H470 C482 0.950 . S
H471 C483 0.950 . S
C472 H464 0.950 . S
C472 C473 1.386 . S
C472 C474 1.391 . S
C473 C472 1.386 . S
C473 C477 1.393 . S
C474 H466 0.950 . S
C474 C472 1.391 . S
C474 C475 1.400 . S
C475 C474 1.400 . S
C475 C476 1.398 . S
C475 C481 1.491 1_565 S
C476 H467 0.950 . S
C476 C475 1.398 . S
C476 C477 1.391 . S
C477 H465 0.950 . S
C477 C473 1.393 . S
C477 C476 1.391 . S
C478 H468 0.950 . S
C478 C479 1.386 . S
C478 C480 1.391 . S
C479 C478 1.386 . S
C479 C483 1.393 . S
C480 H469 0.950 . S
C480 C478 1.391 . S
C480 C481 1.400 . S
C481 C475 1.491 1_545 S
C481 C480 1.400 . S
C481 C482 1.398 . S
C482 H470 0.950 . S
C482 C481 1.398 . S
C482 C483 1.391 . S
C483 H471 0.950 . S
C483 C479 1.393 . S
C483 C482 1.391 . S
H484 C492 0.950 . S
H485 C497 0.950 . S
H486 C494 0.950 . S
H487 C496 0.950 . S
H488 C498 0.950 . S
H489 C500 0.950 . S
H490 C502 0.950 . S
H491 C503 0.950 . S
C492 H484 0.950 . S
C492 C493 1.386 . S
C492 C494 1.391 . S
C493 C492 1.386 . S
C493 C497 1.393 . S
C494 H486 0.950 . S
C494 C492 1.391 . S
C494 C495 1.400 . S
C495 C494 1.400 . S
C495 C496 1.398 . S
C495 C501 1.491 1_655 S
C496 H487 0.950 . S
C496 C495 1.398 . S
C496 C497 1.391 . S
C497 H485 0.950 . S
C497 C493 1.393 . S
C497 C496 1.391 . S
C498 H488 0.950 . S
C498 C499 1.386 . S
C498 C500 1.391 . S
C499 C498 1.386 . S
C499 C503 1.393 . S
C500 H489 0.950 . S
C500 C498 1.391 . S
C500 C501 1.400 . S
C501 C495 1.491 1_455 S
C501 C500 1.400 . S
C501 C502 1.398 . S
C502 H490 0.950 . S
C502 C501 1.398 . S
C502 C503 1.391 . S
C503 H491 0.950 . S
C503 C499 1.393 . S
C503 C502 1.391 . S
H504 C512 0.950 . S
H505 C517 0.950 . S
H506 C514 0.950 . S
H507 C516 0.950 . S
H508 C518 0.950 . S
H509 C520 0.950 . S
H510 C522 0.950 . S
H511 C523 0.950 . S
C512 H504 0.950 . S
C512 C513 1.386 . S
C512 C514 1.391 . S
C513 C512 1.386 . S
C513 C517 1.393 . S
C514 H506 0.950 . S
C514 C512 1.391 . S
C514 C515 1.400 . S
C515 C514 1.400 . S
C515 C516 1.398 . S
C515 C521 1.491 1_565 S
C516 H507 0.950 . S
C516 C515 1.398 . S
C516 C517 1.391 . S
C517 H505 0.950 . S
C517 C513 1.393 . S
C517 C516 1.391 . S
C518 H508 0.950 . S
C518 C519 1.386 . S
C518 C520 1.391 . S
C519 C518 1.386 . S
C519 C523 1.393 . S
C520 H509 0.950 . S
C520 C518 1.391 . S
C520 C521 1.400 . S
C521 C515 1.491 1_545 S
C521 C520 1.400 . S
C521 C522 1.398 . S
C522 H510 0.950 . S
C522 C521 1.398 . S
C522 C523 1.391 . S
C523 H511 0.950 . S
C523 C519 1.393 . S
C523 C522 1.391 . S
H524 C532 0.950 . S
H525 C537 0.950 . S
H526 C534 0.950 . S
H527 C536 0.950 . S
H528 C538 0.950 . S
H529 C540 0.950 . S
H530 C542 0.950 . S
H531 C543 0.950 . S
C532 H524 0.950 . S
C532 C533 1.386 . S
C532 C534 1.391 . S
C533 C532 1.386 . S
C533 C537 1.393 . S
C534 H526 0.950 . S
C534 C532 1.391 . S
C534 C535 1.400 . S
C535 C534 1.400 . S
C535 C536 1.398 . S
C535 C541 1.491 1_655 S
C536 H527 0.950 . S
C536 C535 1.398 . S
C536 C537 1.391 . S
C537 H525 0.950 . S
C537 C533 1.393 . S
C537 C536 1.391 . S
C538 H528 0.950 . S
C538 C539 1.386 . S
C538 C540 1.391 . S
C539 C538 1.386 . S
C539 C543 1.393 . S
C540 H529 0.950 . S
C540 C538 1.391 . S
C540 C541 1.400 . S
C541 C535 1.491 1_455 S
C541 C540 1.400 . S
C541 C542 1.398 . S
C542 H530 0.950 . S
C542 C541 1.398 . S
C542 C543 1.391 . S
C543 H531 0.950 . S
C543 C539 1.393 . S
C543 C542 1.391 . S
H544 C552 0.950 . S
H545 C557 0.950 1_556 S
H546 C554 0.950 . S
H547 C556 0.954 . S
H548 C558 0.950 . S
H549 C560 0.950 . S
H550 C562 0.950 . S
H551 C563 0.950 . S
C552 H544 0.950 . S
C552 C553 1.386 . S
C552 C554 1.391 . S
C553 C552 1.386 . S
C553 C557 1.393 . S
C554 H546 0.950 . S
C554 C552 1.391 . S
C554 C555 1.400 . S
C555 C554 1.400 . S
C555 C556 1.398 . S
C555 C561 1.491 . S
C556 H547 0.954 . S
C556 C555 1.398 . S
C556 C557 1.391 . S
C557 H545 0.950 1_554 S
C557 C553 1.393 . S
C557 C556 1.391 . S
C558 H548 0.950 . S
C558 C559 1.386 . S
C558 C560 1.391 . S
C559 C558 1.386 . S
C559 C563 1.393 . S
C560 H549 0.950 . S
C560 C558 1.391 . S
C560 C561 1.400 . S
C561 C555 1.491 . S
C561 C560 1.400 . S
C561 C562 1.398 . S
C562 H550 0.950 . S
C562 C561 1.398 . S
C562 C563 1.391 . S
C563 H551 0.950 . S
C563 C559 1.393 . S
C563 C562 1.391 . S
H564 C572 0.950 . S
H565 C577 0.950 . S
H566 C574 0.950 . S
H567 C576 0.950 . S
H568 C578 0.950 1_554 S
H569 C580 0.950 . S
H570 C582 0.950 . S
H571 C583 0.950 . S
C572 H564 0.950 . S
C572 C573 1.386 . S
C572 C574 1.391 . S
C573 C572 1.386 . S
C573 C577 1.393 . S
C574 H566 0.950 . S
C574 C572 1.391 . S
C574 C575 1.400 . S
C575 C574 1.400 . S
C575 C576 1.398 . S
C575 C581 1.491 . S
C576 H567 0.950 . S
C576 C575 1.398 . S
C576 C577 1.391 . S
C577 H565 0.950 . S
C577 C573 1.393 . S
C577 C576 1.391 . S
C578 H568 0.950 1_556 S
C578 C579 1.386 . S
C578 C580 1.391 . S
C579 C578 1.386 . S
C579 C583 1.393 . S
C580 H569 0.950 . S
C580 C578 1.391 . S
C580 C581 1.400 . S
C581 C575 1.491 . S
C581 C580 1.400 . S
C581 C582 1.398 . S
C582 H570 0.950 . S
C582 C581 1.398 . S
C582 C583 1.391 . S
C583 H571 0.950 . S
C583 C579 1.393 . S
C583 C582 1.391 . S
H584 C592 0.950 . S
H585 C597 0.950 . S
H586 C594 0.950 . S
H587 C596 0.950 . S
H588 C598 0.963 . S
H589 C600 0.950 1_556 S
H590 C602 0.950 . S
H591 C603 0.950 . S
C592 H584 0.950 . S
C592 C593 1.386 . S
C592 C594 1.391 . S
C593 C592 1.386 . S
C593 C597 1.393 . S
C594 H586 0.950 . S
C594 C592 1.391 . S
C594 C595 1.400 . S
C595 C594 1.400 . S
C595 C596 1.398 . S
C595 C601 1.491 . S
C596 H587 0.950 . S
C596 C595 1.398 . S
C596 C597 1.391 . S
C597 H585 0.950 . S
C597 C593 1.393 . S
C597 C596 1.391 . S
C598 H588 0.963 . S
C598 C599 1.377 1_556 S
C598 C600 1.387 1_556 S
C599 C598 1.377 1_554 S
C599 C603 1.393 . S
C600 H589 0.950 1_554 S
C600 C598 1.387 1_554 S
C600 C601 1.400 . S
C601 C595 1.491 . S
C601 C600 1.400 . S
C601 C602 1.398 . S
C602 H590 0.950 . S
C602 C601 1.398 . S
C602 C603 1.391 . S
C603 H591 0.950 . S
C603 C599 1.393 . S
C603 C602 1.391 . S
H604 C612 0.950 1_554 S
H605 C617 0.950 . S
H606 C614 0.950 . S
H607 C616 0.950 . S
H608 C618 0.950 . S
H609 C620 0.950 . S
H610 C622 0.950 . S
H611 C623 0.950 . S
C612 H604 0.950 1_556 S
C612 C613 1.386 . S
C612 C614 1.391 . S
C613 C612 1.386 . S
C613 C617 1.393 . S
C614 H606 0.950 . S
C614 C612 1.391 . S
C614 C615 1.400 . S
C615 C614 1.400 . S
C615 C616 1.398 . S
C615 C621 1.491 . S
C616 H607 0.950 . S
C616 C615 1.398 . S
C616 C617 1.391 . S
C617 H605 0.950 . S
C617 C613 1.393 . S
C617 C616 1.391 . S
C618 H608 0.950 . S
C618 C619 1.386 . S
C618 C620 1.391 . S
C619 C618 1.386 . S
C619 C623 1.393 . S
C620 H609 0.950 . S
C620 C618 1.391 . S
C620 C621 1.400 . S
C621 C615 1.491 . S
C621 C620 1.400 . S
C621 C622 1.398 . S
C622 H610 0.950 . S
C622 C621 1.398 . S
C622 C623 1.391 . S
C623 H611 0.950 . S
C623 C619 1.393 . S
C623 C622 1.391 . S
H624 C632 0.950 . S
H625 C637 0.950 . S
H626 C634 0.950 . S
H627 C636 0.950 . S
H628 C638 0.950 . S
H629 C640 0.950 . S
H630 C642 0.950 . S
H631 C643 0.950 . S
C632 H624 0.950 . S
C632 C633 1.386 . S
C632 C634 1.391 . S
C633 C632 1.386 . S
C633 C637 1.393 . S
C634 H626 0.950 . S
C634 C632 1.391 . S
C634 C635 1.400 . S
C635 C634 1.400 . S
C635 C636 1.398 . S
C635 C641 1.491 . S
C636 H627 0.950 . S
C636 C635 1.398 . S
C636 C637 1.391 . S
C637 H625 0.950 . S
C637 C633 1.393 . S
C637 C636 1.391 . S
C638 H628 0.950 . S
C638 C639 1.386 . S
C638 C640 1.391 . S
C639 C638 1.386 . S
C639 C643 1.393 . S
C640 H629 0.950 . S
C640 C638 1.391 . S
C640 C641 1.400 . S
C641 C635 1.491 . S
C641 C640 1.400 . S
C641 C642 1.398 . S
C642 H630 0.950 . S
C642 C641 1.398 . S
C642 C643 1.391 . S
C643 H631 0.950 . S
C643 C639 1.393 . S
C643 C642 1.391 . S
H644 C652 0.950 . S
H645 C657 0.950 . S
H646 C654 0.950 . S
H647 C656 0.950 . S
H648 C658 0.950 . S
H649 C660 0.950 . S
H650 C662 0.950 . S
H651 C663 0.950 . S
C652 H644 0.950 . S
C652 C653 1.386 . S
C652 C654 1.391 . S
C653 C652 1.386 . S
C653 C657 1.393 . S
C654 H646 0.950 . S
C654 C652 1.391 . S
C654 C655 1.400 . S
C655 C654 1.400 . S
C655 C656 1.398 . S
C655 C661 1.491 . S
C656 H647 0.950 . S
C656 C655 1.398 . S
C656 C657 1.391 . S
C657 H645 0.950 . S
C657 C653 1.393 . S
C657 C656 1.391 . S
C658 H648 0.950 . S
C658 C659 1.386 . S
C658 C660 1.391 . S
C659 C658 1.386 . S
C659 C663 1.393 . S
C660 H649 0.950 . S
C660 C658 1.391 . S
C660 C661 1.400 . S
C661 C655 1.491 . S
C661 C660 1.400 . S
C661 C662 1.398 . S
C662 H650 0.950 . S
C662 C661 1.398 . S
C662 C663 1.391 . S
C663 H651 0.950 . S
C663 C659 1.393 . S
C663 C662 1.391 . S
H664 C672 0.950 . S
H665 C677 0.950 . S
H666 C674 0.950 . S
H667 C676 0.950 . S
H668 C678 0.950 . S
H669 C680 0.950 . S
H670 C682 0.950 . S
H671 C683 0.950 . S
C672 H664 0.950 . S
C672 C673 1.386 . S
C672 C674 1.391 . S
C673 C672 1.386 . S
C673 C677 1.393 . S
C674 H666 0.950 . S
C674 C672 1.391 . S
C674 C675 1.400 . S
C675 C674 1.400 . S
C675 C676 1.398 . S
C675 C681 1.491 . S
C676 H667 0.950 . S
C676 C675 1.398 . S
C676 C677 1.391 . S
C677 H665 0.950 . S
C677 C673 1.393 . S
C677 C676 1.391 . S
C678 H668 0.950 . S
C678 C679 1.386 . S
C678 C680 1.391 . S
C679 C678 1.386 . S
C679 C683 1.393 . S
C680 H669 0.950 . S
C680 C678 1.391 . S
C680 C681 1.400 . S
C681 C675 1.491 . S
C681 C680 1.400 . S
C681 C682 1.398 . S
C682 H670 0.950 . S
C682 C681 1.398 . S
C682 C683 1.391 . S
C683 H671 0.950 . S
C683 C679 1.393 . S
C683 C682 1.391 . S
H684 C692 0.950 . S
H685 C697 0.950 . S
H686 C694 0.950 . S
H687 C696 0.950 . S
H688 C698 0.950 . S
H689 C700 0.950 . S
H690 C702 0.950 . S
H691 C703 0.950 . S
C692 H684 0.950 . S
C692 C693 1.386 . S
C692 C694 1.391 . S
C693 C692 1.386 . S
C693 C697 1.393 . S
C694 H686 0.950 . S
C694 C692 1.391 . S
C694 C695 1.400 . S
C695 C694 1.400 . S
C695 C696 1.398 . S
C695 C701 1.491 . S
C696 H687 0.950 . S
C696 C695 1.398 . S
C696 C697 1.391 . S
C697 H685 0.950 . S
C697 C693 1.393 . S
C697 C696 1.391 . S
C698 H688 0.950 . S
C698 C699 1.386 . S
C698 C700 1.391 . S
C699 C698 1.386 . S
C699 C703 1.393 . S
C700 H689 0.950 . S
C700 C698 1.391 . S
C700 C701 1.400 . S
C701 C695 1.491 . S
C701 C700 1.400 . S
C701 C702 1.398 . S
C702 H690 0.950 . S
C702 C701 1.398 . S
C702 C703 1.391 . S
C703 H691 0.950 . S
C703 C699 1.393 . S
C703 C702 1.391 . S
H704 C712 0.950 . S
H705 C717 0.950 . S
H706 C714 0.950 . S
H707 C716 0.950 . S
H708 C718 0.950 . S
H709 C720 0.950 1_554 S
H710 C722 0.950 . S
H711 C723 0.950 . S
C712 H704 0.950 . S
C712 C713 1.386 . S
C712 C714 1.391 . S
C713 C712 1.386 . S
C713 C717 1.393 . S
C714 H706 0.950 . S
C714 C712 1.391 . S
C714 C715 1.400 . S
C715 C714 1.400 . S
C715 C716 1.398 . S
C715 C721 1.491 . S
C716 H707 0.950 . S
C716 C715 1.398 . S
C716 C717 1.391 . S
C717 H705 0.950 . S
C717 C713 1.393 . S
C717 C716 1.391 . S
C718 H708 0.950 . S
C718 C719 1.386 1_554 S
C718 C720 1.391 1_554 S
C719 C718 1.386 1_556 S
C719 C723 1.393 . S
C720 H709 0.950 1_556 S
C720 C718 1.391 1_556 S
C720 C721 1.400 . S
C721 C715 1.491 . S
C721 C720 1.400 . S
C721 C722 1.398 . S
C722 H710 0.950 . S
C722 C721 1.398 . S
C722 C723 1.391 . S
C723 H711 0.950 . S
C723 C719 1.393 . S
C723 C722 1.391 . S
H724 C732 0.950 . S
H725 C737 0.950 . S
H726 C734 0.950 . S
H727 C736 0.950 . S
H728 C738 0.947 1_556 S
H729 C740 0.950 . S
H730 C742 0.950 . S
H731 C743 0.950 . S
C732 H724 0.950 . S
C732 C733 1.386 . S
C732 C734 1.391 . S
C733 C732 1.386 . S
C733 C737 1.393 . S
C734 H726 0.950 . S
C734 C732 1.391 . S
C734 C735 1.400 . S
C735 C734 1.400 . S
C735 C736 1.398 . S
C735 C741 1.491 . S
C736 H727 0.950 . S
C736 C735 1.398 . S
C736 C737 1.391 . S
C737 H725 0.950 . S
C737 C733 1.393 . S
C737 C736 1.391 . S
C738 H728 0.947 1_554 S
C738 C739 1.386 . S
C738 C740 1.391 . S
C739 C738 1.386 . S
C739 C743 1.393 . S
C740 H729 0.950 . S
C740 C738 1.391 . S
C740 C741 1.400 . S
C741 C735 1.491 . S
C741 C740 1.400 . S
C741 C742 1.398 . S
C742 H730 0.950 . S
C742 C741 1.398 . S
C742 C743 1.391 . S
C743 H731 0.950 . S
C743 C739 1.393 . S
C743 C742 1.391 . S
H744 C752 0.950 . S
H745 C757 0.950 . S
H746 C754 0.950 1_554 S
H747 C756 0.950 . S
H748 C758 0.950 . S
H749 C760 0.950 . S
H750 C762 0.950 . S
H751 C763 0.950 . S
C752 H744 0.950 . S
C752 C753 1.386 1_554 S
C752 C754 1.391 1_554 S
C753 C752 1.386 1_556 S
C753 C757 1.393 . S
C754 H746 0.950 1_556 S
C754 C752 1.391 1_556 S
C754 C755 1.400 . S
C755 C754 1.400 . S
C755 C756 1.398 . S
C755 C761 1.491 . S
C756 H747 0.950 . S
C756 C755 1.398 . S
C756 C757 1.391 . S
C757 H745 0.950 . S
C757 C753 1.393 . S
C757 C756 1.391 . S
C758 H748 0.950 . S
C758 C759 1.386 . S
C758 C760 1.391 . S
C759 C758 1.386 . S
C759 C763 1.393 . S
C760 H749 0.950 . S
C760 C758 1.391 . S
C760 C761 1.400 . S
C761 C755 1.491 . S
C761 C760 1.400 . S
C761 C762 1.398 . S
C762 H750 0.950 . S
C762 C761 1.398 . S
C762 C763 1.391 . S
C763 H751 0.950 . S
C763 C759 1.393 . S
C763 C762 1.391 . S
H764 C772 0.950 . S
H765 C777 0.950 . S
H766 C774 0.950 . S
H767 C776 0.950 . S
H768 C778 0.950 . S
H769 C780 0.950 . S
H770 C782 0.950 . S
H771 C783 0.950 1_556 S
C772 H764 0.950 . S
C772 C773 1.386 . S
C772 C774 1.391 . S
C773 C772 1.386 . S
C773 C777 1.393 . S
C774 H766 0.950 . S
C774 C772 1.391 . S
C774 C775 1.400 . S
C775 C774 1.400 . S
C775 C776 1.398 . S
C775 C781 1.491 . S
C776 H767 0.950 . S
C776 C775 1.398 . S
C776 C777 1.391 . S
C777 H765 0.950 . S
C777 C773 1.393 . S
C777 C776 1.391 . S
C778 H768 0.950 . S
C778 C779 1.386 . S
C778 C780 1.391 . S
C779 C778 1.386 . S
C779 C783 1.393 . S
C780 H769 0.950 . S
C780 C778 1.391 . S
C780 C781 1.400 . S
C781 C775 1.491 . S
C781 C780 1.400 . S
C781 C782 1.398 . S
C782 H770 0.950 . S
C782 C781 1.398 . S
C782 C783 1.391 . S
C783 H771 0.950 1_554 S
C783 C779 1.393 . S
C783 C782 1.391 . S
H784 C792 0.950 . S
H785 C797 0.950 . S
H786 C794 0.950 . S
H787 C796 0.950 . S
H788 C798 0.950 . S
H789 C800 0.950 . S
H790 C802 0.950 . S
H791 C803 0.950 . S
C792 H784 0.950 . S
C792 C793 1.386 . S
C792 C794 1.391 . S
C793 C792 1.386 . S
C793 C797 1.393 . S
C794 H786 0.950 . S
C794 C792 1.391 . S
C794 C795 1.400 . S
C795 C794 1.400 . S
C795 C796 1.398 . S
C795 C801 1.491 . S
C796 H787 0.950 . S
C796 C795 1.398 . S
C796 C797 1.391 . S
C797 H785 0.950 . S
C797 C793 1.393 . S
C797 C796 1.391 . S
C798 H788 0.950 . S
C798 C799 1.386 . S
C798 C800 1.391 . S
C799 C798 1.386 . S
C799 C803 1.393 . S
C800 H789 0.950 . S
C800 C798 1.391 . S
C800 C801 1.400 . S
C801 C795 1.491 . S
C801 C800 1.400 . S
C801 C802 1.398 . S
C802 H790 0.950 . S
C802 C801 1.398 . S
C802 C803 1.391 . S
C803 H791 0.950 . S
C803 C799 1.393 . S
C803 C802 1.391 . S
H804 C812 0.950 . S
H805 C817 0.950 . S
H806 C814 0.950 . S
H807 C816 0.950 . S
H808 C818 0.950 . S
H809 C820 0.950 . S
H810 C822 0.950 . S
H811 C823 0.950 . S
C812 H804 0.950 . S
C812 C813 1.386 . S
C812 C814 1.391 . S
C813 C812 1.386 . S
C813 C817 1.393 . S
C814 H806 0.950 . S
C814 C812 1.391 . S
C814 C815 1.400 . S
C815 C814 1.400 . S
C815 C816 1.398 . S
C815 C821 1.491 . S
C816 H807 0.950 . S
C816 C815 1.398 . S
C816 C817 1.391 . S
C817 H805 0.950 . S
C817 C813 1.393 . S
C817 C816 1.391 . S
C818 H808 0.950 . S
C818 C819 1.386 . S
C818 C820 1.391 . S
C819 C818 1.386 . S
C819 C823 1.393 . S
C820 H809 0.950 . S
C820 C818 1.391 . S
C820 C821 1.400 . S
C821 C815 1.491 . S
C821 C820 1.400 . S
C821 C822 1.398 . S
C822 H810 0.950 . S
C822 C821 1.398 . S
C822 C823 1.391 . S
C823 H811 0.950 . S
C823 C819 1.393 . S
C823 C822 1.391 . S
H824 C832 0.950 . S
H825 C837 0.950 . S
H826 C834 0.950 . S
H827 C836 0.950 . S
H828 C838 0.950 . S
H829 C840 0.950 . S
H830 C842 0.950 . S
H831 C843 0.950 . S
C832 H824 0.950 . S
C832 C833 1.386 . S
C832 C834 1.391 . S
C833 C832 1.386 . S
C833 C837 1.393 . S
C834 H826 0.950 . S
C834 C832 1.391 . S
C834 C835 1.400 . S
C835 C834 1.400 . S
C835 C836 1.398 . S
C835 C841 1.491 . S
C836 H827 0.950 . S
C836 C835 1.398 . S
C836 C837 1.391 . S
C837 H825 0.950 . S
C837 C833 1.393 . S
C837 C836 1.391 . S
C838 H828 0.950 . S
C838 C839 1.386 . S
C838 C840 1.391 . S
C839 C838 1.386 . S
C839 C843 1.393 . S
C840 H829 0.950 . S
C840 C838 1.391 . S
C840 C841 1.400 . S
C841 C835 1.491 . S
C841 C840 1.400 . S
C841 C842 1.398 . S
C842 H830 0.950 . S
C842 C841 1.398 . S
C842 C843 1.391 . S
C843 H831 0.950 . S
C843 C839 1.393 . S
C843 C842 1.391 . S
H844 C852 0.950 . S
H845 C857 0.950 . S
H846 C854 0.950 . S
H847 C856 0.950 . S
H848 C858 0.950 . S
H849 C860 0.950 . S
H850 C862 0.950 . S
H851 C863 0.950 . S
C852 H844 0.950 . S
C852 C853 1.386 . S
C852 C854 1.391 . S
C853 C852 1.386 . S
C853 C857 1.393 . S
C854 H846 0.950 . S
C854 C852 1.391 . S
C854 C855 1.400 . S
C855 C854 1.400 . S
C855 C856 1.398 . S
C855 C861 1.491 . S
C856 H847 0.950 . S
C856 C855 1.398 . S
C856 C857 1.391 . S
C857 H845 0.950 . S
C857 C853 1.393 . S
C857 C856 1.391 . S
C858 H848 0.950 . S
C858 C859 1.386 . S
C858 C860 1.391 . S
C859 C858 1.386 . S
C859 C863 1.393 . S
C860 H849 0.950 . S
C860 C858 1.391 . S
C860 C861 1.400 . S
C861 C855 1.491 . S
C861 C860 1.400 . S
C861 C862 1.398 . S
C862 H850 0.950 . S
C862 C861 1.398 . S
C862 C863 1.391 . S
C863 H851 0.950 . S
C863 C859 1.393 . S
C863 C862 1.391 . S
C233 C163 1.267 . S
C239 C3 1.253 . S
C253 C17 1.250 . S
C259 C121 1.283 . S
C273 C31 1.260 . S
C279 C135 1.281 . S
C293 C149 1.279 . S
C299 C45 1.263 . S
C313 C59 1.276 1_556 S
C319 C79 1.258 . S
C333 C73 1.256 1_554 S
C339 C93 1.264 . S
C353 C107 1.256 . S
C359 C87 1.270 1_556 S
C373 C65 1.275 . S
C379 C101 1.248 1_554 S
C393 C51 1.283 . S
C399 C115 1.251 . S
C413 C129 1.246 . S
C419 C9 1.280 . S
C433 C23 1.256 . S
C439 C143 1.270 . S
C453 C157 1.254 . S
C459 C37 1.266 . S
C473 C171 1.246 . S
C479 C191 1.279 . S
C493 C185 1.252 . S
C499 C205 1.269 . S
C513 C219 1.283 . S
C519 C199 1.255 . S
C533 C177 1.268 . S
C539 C213 1.253 . S
C553 C63 1.247 . S
C559 C7 1.230 . S
C573 C21 1.231 . S
C579 C77 1.222 . S
C593 C35 1.222 . S
C599 C91 1.243 . S
C613 C105 1.236 . S
C619 C49 1.220 . S
C633 C119 1.235 . S
C639 C175 1.221 . S
C653 C189 1.237 . S
C659 C133 1.220 . S
C673 C147 1.237 . S
C679 C203 1.220 . S
C693 C217 1.223 . S
C699 C161 1.228 . S
C713 C204 1.390 . S
C719 C8 1.390 1_556 S
C733 C218 1.397 . S
C739 C22 1.397 1_554 S
C753 C36 1.393 1_556 S
C759 C176 1.394 . S
C773 C190 1.395 . S
C779 C50 1.396 1_554 S
C793 C148 1.397 . S
C799 C64 1.398 . S
C813 C162 1.396 . S
C819 C78 1.397 . S
C833 C92 1.394 . S
C839 C120 1.394 . S
C853 C134 1.391 . S
C859 C106 1.391 . S
