# Generated by pormake.
# Topology pts-e, (5)-cn, num edge types: 1
# Building blocks:
#     Node 0, Type 0, BuildingBlock: XOMCOT_clean_sbu_0, # of connection points: 5
#     Node 1, Type 0, BuildingBlock: XOMCOT_clean_sbu_0, # of connection points: 5
#     Node 2, Type 0, BuildingBlock: XOMCOT_clean_sbu_0, # of connection points: 5
#     Node 3, Type 0, BuildingBlock: XOMCOT_clean_sbu_0, # of connection points: 5
#     Node 4, Type 0, BuildingBlock: XOMCOT_clean_sbu_0, # of connection points: 5
#     Node 5, Type 0, BuildingBlock: XOMCOT_clean_sbu_0, # of connection points: 5
#     Node 6, Type 0, BuildingBlock: XOMCOT_clean_sbu_0, # of connection points: 5
#     Node 7, Type 0, BuildingBlock: XOMCOT_clean_sbu_0, # of connection points: 5
#     Edge 8, Type (0, 0), BuildingBlock: OJICUG_clean_linker_0, # of connection points: 2
#     Edge 9, Type (0, 0), BuildingBlock: OJICUG_clean_linker_0, # of connection points: 2
#     Edge 10, Type (0, 0), BuildingBlock: OJICUG_clean_linker_0, # of connection points: 2
#     Edge 11, Type (0, 0), BuildingBlock: OJICUG_clean_linker_0, # of connection points: 2
#     Edge 12, Type (0, 0), BuildingBlock: OJICUG_clean_linker_0, # of connection points: 2
#     Edge 13, Type (0, 0), BuildingBlock: OJICUG_clean_linker_0, # of connection points: 2
#     Edge 14, Type (0, 0), BuildingBlock: OJICUG_clean_linker_0, # of connection points: 2
#     Edge 15, Type (0, 0), BuildingBlock: OJICUG_clean_linker_0, # of connection points: 2
#     Edge 16, Type (0, 0), BuildingBlock: OJICUG_clean_linker_0, # of connection points: 2
#     Edge 17, Type (0, 0), BuildingBlock: OJICUG_clean_linker_0, # of connection points: 2
#     Edge 18, Type (0, 0), BuildingBlock: OJICUG_clean_linker_0, # of connection points: 2
#     Edge 19, Type (0, 0), BuildingBlock: OJICUG_clean_linker_0, # of connection points: 2
#     Edge 20, Type (0, 0), BuildingBlock: OJICUG_clean_linker_0, # of connection points: 2
#     Edge 21, Type (0, 0), BuildingBlock: OJICUG_clean_linker_0, # of connection points: 2
#     Edge 22, Type (0, 0), BuildingBlock: OJICUG_clean_linker_0, # of connection points: 2
#     Edge 23, Type (0, 0), BuildingBlock: OJICUG_clean_linker_0, # of connection points: 2
#     Edge 24, Type (0, 0), BuildingBlock: OJICUG_clean_linker_0, # of connection points: 2
#     Edge 25, Type (0, 0), BuildingBlock: OJICUG_clean_linker_0, # of connection points: 2
#     Edge 26, Type (0, 0), BuildingBlock: OJICUG_clean_linker_0, # of connection points: 2
#     Edge 27, Type (0, 0), BuildingBlock: OJICUG_clean_linker_0, # of connection points: 2
# Relax obj value: 0.558
# Max RMSD: 0.259
# Mean RMSD: 0.259
data_MOF--net-pts-e--node1-XOMCOT_clean_sbu_0--edge1-OJICUG_clean_linker_0
_symmetry_space_group_name_H-M    P1
_symmetry_Int_Tables_number       1
_symmetry_cell_setting            triclinic
loop_
_symmetry_equiv_pos_as_xyz
'x, y, z'
_cell_length_a     26.619851
_cell_length_b     26.483379
_cell_length_c     34.97711
_cell_angle_alpha  90.410973
_cell_angle_beta   90.003283
_cell_angle_gamma 89.998633
loop_
_atom_site_label
_atom_site_type_symbol
_atom_site_fract_x
_atom_site_fract_y
_atom_site_fract_z
_atom_type_partial_charge
Co0 Co 0.25306 0.98725 0.15692 0.0
C1 C 0.36264 0.98181 0.1465 0.0
C2 C 0.33762 0.91693 0.17694 0.0
C3 C 0.38953 0.91759 0.17698 0.0
N4 N 0.32072 0.95883 0.15938 0.0
N5 N 0.40513 0.95914 0.15828 0.0
H6 H 0.36235 0.01606 0.13008 0.0
H7 H 0.31448 0.88824 0.18979 0.0
C8 C 0.23614 0.9227 0.22802 0.0
O9 O 0.27451 0.94499 0.24472 0.0
N10 N 0.18703 0.01693 0.15352 0.0
C11 C 0.17793 0.06634 0.14772 0.0
C12 C 0.12713 0.07447 0.14962 0.0
C13 C 0.14169 0.99546 0.1587 0.0
N14 N 0.10433 0.02999 0.15663 0.0
C15 C 0.30291 0.07107 0.19169 0.0
C16 C 0.23023 0.08786 0.24638 0.0
C17 C 0.2622 0.12728 0.23581 0.0
C18 C 0.30095 0.11765 0.21014 0.0
C19 C 0.23294 0.04197 0.22679 0.0
N20 N 0.26754 0.0347 0.19835 0.0
H21 H 0.32826 0.06826 0.16814 0.0
H22 H 0.20261 0.01553 0.23084 0.0
H23 H 0.20645 0.09473 0.14308 0.0
H24 H 0.13629 0.95575 0.16447 0.0
O25 O 0.27324 0.02996 0.11504 0.0
O26 O 0.24225 0.95303 0.10795 0.0
O27 O 0.22497 0.93355 0.19327 0.0
C28 C 0.25878 0.99428 0.09202 0.0
H29 H 0.41369 0.89041 0.1908 0.0
H30 H 0.10845 0.11031 0.14549 0.0
H31 H 0.19886 0.09465 0.2655 0.0
H32 H 0.32548 0.14781 0.2008 0.0
Co33 Co 0.04111 0.24815 0.63191 0.0
C34 C 0.02417 0.35724 0.6472 0.0
C35 C 0.09898 0.33581 0.66244 0.0
C36 C 0.09246 0.38631 0.67122 0.0
N37 N 0.05537 0.31701 0.64873 0.0
N38 N 0.04525 0.3995 0.66161 0.0
H39 H 0.98712 0.35659 0.63502 0.0
H40 H 0.13338 0.31461 0.66571 0.0
C41 C 0.10307 0.22877 0.70305 0.0
O42 O 0.07389 0.26118 0.72104 0.0
N43 N 0.02554 0.18012 0.61441 0.0
C44 C 0.98205 0.1667 0.59721 0.0
C45 C 0.97729 0.11515 0.59803 0.0
C46 C 0.04691 0.13614 0.62509 0.0
N47 N 0.01778 0.09607 0.61588 0.0
C48 C 0.9442 0.26377 0.66401 0.0
C49 C 0.94567 0.1774 0.70731 0.0
C50 C 0.89959 0.19909 0.6975 0.0
C51 C 0.89916 0.24442 0.67766 0.0
C52 C 0.98982 0.19785 0.69306 0.0
N53 N 0.98885 0.2395 0.67017 0.0
H54 H 0.94119 0.294 0.64404 0.0
H55 H 0.02341 0.17578 0.69652 0.0
H56 H 0.95349 0.19261 0.58748 0.0
H57 H 0.08054 0.13355 0.64232 0.0
O58 O -0.00123 0.27414 0.59222 0.0
O59 O 0.07989 0.25934 0.58515 0.0
O60 O 0.0962 0.22034 0.66716 0.0
C61 C 0.03728 0.27297 0.56976 0.0
H62 H 0.12052 0.41153 0.68307 0.0
H63 H 0.94527 0.09357 0.58808 0.0
H64 H 0.94738 0.14251 0.72327 0.0
H65 H 0.8641 0.26204 0.66939 0.0
Co66 Co 0.74389 0.04674 0.15357 0.0
C67 C 0.63834 0.03916 0.17094 0.0
C68 C 0.65614 0.11496 0.15444 0.0
C69 C 0.60445 0.1095 0.1553 0.0
N70 N 0.67706 0.07057 0.16413 0.0
N71 N 0.59365 0.06166 0.16561 0.0
H72 H 0.64281 -0.00098 0.17547 0.0
H73 H 0.67674 0.14734 0.14416 0.0
C74 C 0.79406 0.14375 0.176 0.0
O75 O 0.79159 0.15648 0.13983 0.0
N76 N 0.81074 0.02033 0.14263 0.0
C77 C 0.8223 0.98343 0.1172 0.0
C78 C 0.87275 0.97379 0.11879 0.0
C79 C 0.85482 0.03203 0.15971 0.0
N80 N 0.89326 0.00428 0.14549 0.0
C81 C 0.74404 0.95298 0.19083 0.0
C82 C 0.73639 0.99008 0.26467 0.0
C83 C 0.74749 0.93879 0.25865 0.0
C84 C 0.7479 0.91988 0.2211 0.0
C85 C 0.73274 0.02208 0.2333 0.0
N86 N 0.73978 0.0035 0.19724 0.0
H87 H 0.74765 0.93827 0.16212 0.0
H88 H 0.7263 0.06192 0.23806 0.0
H89 H 0.79622 0.96391 0.0987 0.0
H90 H 0.85884 0.05955 0.18244 0.0
O91 O 0.71529 0.00119 0.1164 0.0
O92 O 0.74226 0.07818 0.10337 0.0
O93 O 0.77476 0.10198 0.18668 0.0
C94 C 0.723 0.03573 0.09108 0.0
H95 H 0.57711 0.13749 0.14675 0.0
H96 H 0.89292 0.94714 0.10091 0.0
H97 H 0.73453 0.00594 0.29326 0.0
H98 H 0.75646 0.88076 0.21472 0.0
Co99 Co 0.99526 0.74521 0.67878 0.0
C100 C 0.98356 0.63453 0.69027 0.0
C101 C 0.91915 0.6667 0.66338 0.0
C102 C 0.91529 0.6147 0.66154 0.0
N103 N 0.96269 0.67924 0.68078 0.0
N104 N 0.95626 0.59464 0.67828 0.0
H105 H 0.01953 0.63015 0.70345 0.0
H106 H 0.89371 0.69333 0.65031 0.0
C107 C 0.91979 0.75635 0.74274 0.0
O108 O 0.93115 0.70999 0.75267 0.0
N109 N 0.02822 0.81017 0.67564 0.0
C110 C 0.07819 0.81794 0.67657 0.0
C111 C 0.08768 0.86788 0.66974 0.0
C112 C 0.00792 0.85545 0.6674 0.0
N113 N 0.04359 0.89171 0.66353 0.0
C114 C 0.08111 0.69945 0.7119 0.0
C115 C 0.0857 0.76376 0.77399 0.0
C116 C 0.12942 0.73928 0.76137 0.0
C117 C 0.12566 0.70329 0.73232 0.0
C118 C 0.04144 0.75843 0.753 0.0
N119 N 0.04029 0.72876 0.72087 0.0
H120 H 0.08219 0.67763 0.68577 0.0
H121 H 0.01138 0.78432 0.75944 0.0
H122 H 0.10623 0.78905 0.68046 0.0
H123 H 0.96815 0.86088 0.66274 0.0
O124 O 0.03752 0.72167 0.63735 0.0
O125 O 0.96343 0.75787 0.62965 0.0
O126 O 0.94192 0.77614 0.71392 0.0
C127 C 0.0036 0.73836 0.61412 0.0
H128 H 0.88603 0.59352 0.64713 0.0
H129 H 0.12466 0.88461 0.66863 0.0
H130 H 0.08745 0.79268 0.79603 0.0
H131 H 0.15883 0.68404 0.72169 0.0
Co132 Co 0.25372 0.03525 0.86334 0.0
C133 C 0.36323 0.04088 0.87418 0.0
C134 C 0.3383 0.10574 0.84367 0.0
C135 C 0.39021 0.10516 0.84384 0.0
N136 N 0.32135 0.06381 0.86116 0.0
N137 N 0.40577 0.06362 0.86257 0.0
H138 H 0.36287 0.00661 0.89058 0.0
H139 H 0.3152 0.13439 0.83075 0.0
C140 C 0.23696 0.10007 0.79234 0.0
O141 O 0.27538 0.07791 0.77564 0.0
N142 N 0.18772 0.00546 0.86644 0.0
C143 C 0.17865 0.95596 0.87188 0.0
C144 C 0.12785 0.94784 0.86995 0.0
C145 C 0.14236 0.02698 0.86148 0.0
N146 N 0.10502 0.99241 0.86331 0.0
C147 C 0.30397 0.95173 0.8285 0.0
C148 C 0.23149 0.93487 0.77367 0.0
C149 C 0.26347 0.89547 0.78429 0.0
C150 C 0.30216 0.90517 0.81001 0.0
C151 C 0.23407 0.98074 0.7933 0.0
N152 N 0.26853 0.98802 0.82183 0.0
H153 H 0.32925 0.95454 0.8521 0.0
H154 H 0.2037 0.00713 0.7892 0.0
H155 H 0.20721 0.92754 0.87632 0.0
H156 H 0.13691 0.06678 0.85609 0.0
O157 O 0.27372 0.9924 0.90519 0.0
O158 O 0.24258 0.06928 0.91233 0.0
O159 O 0.22572 0.08906 0.82705 0.0
C160 C 0.25909 0.028 0.92823 0.0
H161 H 0.41441 0.13239 0.83011 0.0
H162 H 0.10919 0.91194 0.87384 0.0
H163 H 0.20018 0.92804 0.7545 0.0
H164 H 0.32672 0.87504 0.81938 0.0
Co165 Co 0.99464 0.27777 0.34219 0.0
C166 C 0.98293 0.38843 0.33071 0.0
C167 C 0.91857 0.35629 0.35769 0.0
C168 C 0.91476 0.40829 0.35956 0.0
N169 N 0.96205 0.34373 0.34021 0.0
N170 N 0.95569 0.42833 0.34277 0.0
H171 H 0.01887 0.39279 0.3175 0.0
H172 H 0.89317 0.32967 0.37081 0.0
C173 C 0.91875 0.26646 0.27851 0.0
O174 O 0.92987 0.31286 0.26854 0.0
N175 N 0.02763 0.21282 0.34531 0.0
C176 C 0.07759 0.20506 0.34429 0.0
C177 C 0.08711 0.15512 0.35109 0.0
C178 C 0.00736 0.16753 0.35357 0.0
N179 N 0.04304 0.13128 0.35737 0.0
C180 C 0.08035 0.32343 0.30882 0.0
C181 C 0.08454 0.25913 0.2467 0.0
C182 C 0.12835 0.28357 0.25918 0.0
C183 C 0.12479 0.31956 0.28825 0.0
C184 C 0.0404 0.26449 0.26784 0.0
N185 N 0.03947 0.29416 0.29997 0.0
H186 H 0.0816 0.34525 0.33495 0.0
H187 H 0.01029 0.23865 0.26148 0.0
H188 H 0.10562 0.23395 0.34035 0.0
H189 H 0.9676 0.1621 0.3583 0.0
O190 O 0.03705 0.30138 0.38351 0.0
O191 O 0.96301 0.26517 0.3914 0.0
O192 O 0.94116 0.24674 0.30723 0.0
C193 C 0.00323 0.28472 0.40682 0.0
H194 H 0.88557 0.42949 0.37404 0.0
H195 H 0.1241 0.13837 0.35212 0.0
H196 H 0.08613 0.23022 0.22464 0.0
H197 H 0.15803 0.33877 0.29878 0.0
Co198 Co 0.7447 0.97525 0.86825 0.0
C199 C 0.63919 0.98363 0.85071 0.0
C200 C 0.65661 0.90752 0.86667 0.0
C201 C 0.60495 0.91319 0.86566 0.0
N202 N 0.67775 0.95196 0.85741 0.0
N203 N 0.59439 0.96121 0.85569 0.0
H204 H 0.64385 0.0238 0.84645 0.0
H205 H 0.67704 0.87491 0.87672 0.0
C206 C 0.79559 0.87868 0.84584 0.0
O207 O 0.79438 0.86656 0.88216 0.0
N208 N 0.81169 0.00107 0.87947 0.0
C209 C 0.82364 0.03692 0.90565 0.0
C210 C 0.87405 0.04668 0.90382 0.0
C211 C 0.8555 0.99016 0.86169 0.0
N212 N 0.89414 0.01735 0.87621 0.0
C213 C 0.74603 0.06916 0.83129 0.0
C214 C 0.73758 0.03259 0.75734 0.0
C215 C 0.74908 0.08376 0.76351 0.0
C216 C 0.75001 0.10241 0.80112 0.0
C217 C 0.73383 0.00042 0.78861 0.0
N218 N 0.74115 0.01874 0.82471 0.0
H219 H 0.75001 0.08363 0.86005 0.0
H220 H 0.727 0.96068 0.78374 0.0
H221 H 0.79785 0.05571 0.9248 0.0
H222 H 0.85915 0.96368 0.83822 0.0
O223 O 0.71623 0.02086 0.90541 0.0
O224 O 0.74247 0.9436 0.91838 0.0
O225 O 0.7753 0.91993 0.83507 0.0
C226 C 0.7234 0.98613 0.93069 0.0
H227 H 0.57745 0.88517 0.87386 0.0
H228 H 0.8945 0.07263 0.92211 0.0
H229 H 0.73541 0.01693 0.7287 0.0
H230 H 0.75897 0.14142 0.8076 0.0
Co231 Co 0.04072 0.77479 0.38892 0.0
C232 C 0.02388 0.66564 0.37384 0.0
C233 C 0.0985 0.68717 0.35818 0.0
C234 C 0.09197 0.63667 0.34944 0.0
N235 N 0.05499 0.70592 0.37212 0.0
N236 N 0.04487 0.62341 0.35932 0.0
H237 H 0.98695 0.66623 0.38623 0.0
H238 H 0.13283 0.70842 0.35471 0.0
C239 C 0.10234 0.79423 0.3176 0.0
O240 O 0.07308 0.76184 0.29967 0.0
N241 N 0.02513 0.84283 0.40639 0.0
C242 C 0.98166 0.85624 0.42362 0.0
C243 C 0.97689 0.90779 0.4228 0.0
C244 C 0.04648 0.88681 0.39569 0.0
N245 N 0.01735 0.92688 0.40493 0.0
C246 C 0.94373 0.75895 0.35703 0.0
C247 C 0.94477 0.84543 0.31385 0.0
C248 C 0.89879 0.82368 0.32385 0.0
C249 C 0.89856 0.77829 0.3436 0.0
C250 C 0.98905 0.82501 0.32789 0.0
N251 N 0.98829 0.78332 0.35076 0.0
H252 H 0.9409 0.72865 0.37695 0.0
H253 H 0.02259 0.84712 0.32433 0.0
H254 H 0.95313 0.83032 0.43337 0.0
H255 H 0.08009 0.88942 0.37845 0.0
O256 O -0.00146 0.74883 0.42871 0.0
O257 O 0.07967 0.76372 0.43562 0.0
O258 O 0.09564 0.80262 0.35351 0.0
C259 C 0.03713 0.75008 0.4511 0.0
H260 H 0.11995 0.61149 0.33743 0.0
H261 H 0.94487 0.92936 0.43278 0.0
H262 H 0.94632 0.88036 0.29793 0.0
H263 H 0.8636 0.76059 0.352 0.0
C264 C 0.25854 0.96168 0.02424 0.0
C265 C 0.25885 0.00242 0.05007 0.0
H266 H 0.25927 0.93803 0.96551 0.0
C267 C 0.259 0.05193 0.03551 0.0
H268 H 0.2584 0.92321 0.03454 0.0
C269 C 0.25847 0.06053 0.99601 0.0
C270 C 0.25901 0.01981 0.97018 0.0
H271 H 0.25888 0.0842 0.05472 0.0
H272 H 0.25828 0.09901 0.98571 0.0
C273 C 0.25922 0.97029 0.98473 0.0
C274 C 0.97182 0.28049 0.474 0.0
C275 C 0.01208 0.28507 0.44855 0.0
H276 H 0.94837 0.27433 0.53205 0.0
C277 C 0.06132 0.28814 0.46328 0.0
H278 H 0.93358 0.27816 0.46351 0.0
C279 C 0.07012 0.28508 0.50276 0.0
C280 C 0.02973 0.28004 0.52817 0.0
H281 H 0.09318 0.29143 0.4442 0.0
H282 H 0.10837 0.28614 0.51329 0.0
C283 C 0.98048 0.27854 0.51332 0.0
C284 C 0.71632 0.06168 0.02259 0.0
C285 C 0.71698 0.02358 0.05009 0.0
H286 H 0.71627 0.07945 0.96312 0.0
C287 C 0.71558 0.97268 0.03804 0.0
H288 H 0.71723 0.1011 0.03107 0.0
C289 C 0.71638 0.96011 0.99917 0.0
C290 C 0.71715 -0.00178 0.97166 0.0
H291 H 0.71607 0.94236 0.05866 0.0
H292 H 0.71734 0.9207 0.99069 0.0
C293 C 0.71569 0.04912 0.98372 0.0
C294 C 0.98051 0.74463 0.50765 0.0
C295 C 0.02971 0.74308 0.49272 0.0
H296 H 0.93377 0.74504 0.55755 0.0
C297 C 0.07018 0.73803 0.51806 0.0
H298 H 0.94834 0.74886 0.48898 0.0
C299 C 0.0615 0.73497 0.55755 0.0
C300 C 0.01231 0.73807 0.57237 0.0
H301 H 0.10839 0.73693 0.50745 0.0
H302 H 0.09343 0.73166 0.57657 0.0
C303 C 0.97197 0.74269 0.547 0.0
C304 C 0.19048 0.24392 0.21503 0.0
C305 C 0.17691 0.25867 0.25212 0.0
H306 H 0.23085 0.19037 0.18096 0.0
C307 C 0.20236 0.23778 0.2836 0.0
H308 H 0.1711 0.2593 0.19048 0.0
C309 C 0.23545 0.19764 0.2783 0.0
C310 C 0.24456 0.17921 0.24144 0.0
H311 H 0.19224 0.2482 0.3126 0.0
H312 H 0.25013 0.1781 0.30302 0.0
C313 C 0.22465 0.20465 0.2097 0.0
C314 C 0.81164 0.09071 0.71169 0.0
C315 C 0.77369 0.1139 0.73351 0.0
H316 H 0.88176 0.10024 0.68317 0.0
C317 C 0.77117 0.16699 0.73484 0.0
H318 H 0.81466 0.05001 0.70954 0.0
C319 C 0.81094 0.19572 0.72086 0.0
C320 C 0.8527 0.17148 0.70465 0.0
H321 H 0.74142 0.18591 0.75048 0.0
H322 H 0.81091 0.23618 0.72564 0.0
C323 C 0.8509 0.11938 0.69738 0.0
C324 C 0.76985 0.85567 0.2874 0.0
C325 C 0.7724 0.90877 0.2886 0.0
H326 H 0.80974 0.78652 0.29639 0.0
C327 C 0.8106 0.93202 0.31013 0.0
H328 H 0.7399 0.8367 0.27203 0.0
C329 C 0.85005 0.90339 0.32419 0.0
C330 C 0.8518 0.85127 0.31697 0.0
H331 H 0.81365 0.97271 0.31221 0.0
H332 H 0.88107 0.92257 0.33817 0.0
C333 C 0.80983 0.82699 0.30111 0.0
C334 C 0.22606 0.81812 0.81054 0.0
C335 C 0.24583 0.84353 0.77873 0.0
H336 H 0.17258 0.76354 0.82995 0.0
C337 C 0.23651 0.82507 0.7419 0.0
H338 H 0.23243 0.83241 0.83925 0.0
C339 C 0.20335 0.78496 0.73672 0.0
C340 C 0.17806 0.76412 0.76828 0.0
H341 H 0.25107 0.84459 0.71713 0.0
H342 H 0.19307 0.77455 0.70775 0.0
C343 C 0.19184 0.77887 0.80533 0.0
C344 C 0.87003 0.8361 0.75752 0.0
C345 C 0.88571 0.78722 0.76784 0.0
H346 H 0.82891 0.90293 0.7735 0.0
C347 C 0.86966 0.76833 0.80337 0.0
H348 H 0.88159 0.85204 0.73048 0.0
C349 C 0.83992 0.79764 0.82815 0.0
C350 C 0.82461 0.84662 0.8181 0.0
H351 H 0.88085 0.73101 0.81252 0.0
H352 H 0.8292 0.78188 0.85545 0.0
C353 C 0.83963 0.86526 0.7822 0.0
C354 C 0.16731 0.85716 0.2329 0.0
C355 C 0.2035 0.88796 0.25077 0.0
H356 H 0.10799 0.80324 0.23964 0.0
C357 C 0.20699 0.88664 0.29101 0.0
H358 H 0.16332 0.85717 0.20208 0.0
C359 C 0.17466 0.85613 0.31275 0.0
C360 C 0.13843 0.82539 0.29485 0.0
H361 H 0.23411 0.91005 0.30592 0.0
H362 H 0.17796 0.85683 0.34361 0.0
C363 C 0.13557 0.82606 0.25457 0.0
C364 C 0.13642 0.19683 0.766 0.0
C365 C 0.1392 0.19758 0.72572 0.0
H366 H 0.16424 0.16561 0.81843 0.0
C367 C 0.17539 0.16685 0.70775 0.0
H368 H 0.10888 0.21965 0.78099 0.0
C369 C 0.20774 0.13628 0.72942 0.0
C370 C 0.20431 0.13488 0.76966 0.0
H371 H 0.17862 0.16621 0.67689 0.0
H372 H 0.23482 0.11288 0.71446 0.0
C373 C 0.16818 0.16567 0.78761 0.0
C374 C 0.83906 0.15708 0.23927 0.0
C375 C 0.82327 0.17585 0.20359 0.0
H376 H 0.88168 0.1703 0.29066 0.0
C377 C 0.83791 0.22508 0.19364 0.0
H378 H 0.82886 0.11924 0.24789 0.0
C379 C 0.86776 0.25448 0.21829 0.0
C380 C 0.88457 0.23547 0.25357 0.0
H381 H 0.82659 0.24097 0.16653 0.0
H382 H 0.87843 0.29199 0.20921 0.0
C383 C 0.86955 0.18635 0.26381 0.0
C384 C 0.03055 0.9743 0.14919 0.0
C385 C 0.051 0.02149 0.15899 0.0
H386 H 0.96409 0.93151 0.13812 0.0
C387 C 0.01827 0.06131 0.16871 0.0
H388 H 0.05455 0.9428 0.14168 0.0
C389 C 0.96631 0.05504 0.16615 0.0
C390 C 0.946 0.00877 0.15389 0.0
H391 H 0.03278 0.09781 0.17735 0.0
H392 H 0.94228 0.08715 0.17198 0.0
C393 C 0.97862 0.96801 0.14674 0.0
C394 C 0.98262 0.01551 0.63879 0.0
C395 C 0.02428 0.04478 0.62812 0.0
H396 H 0.95588 0.9448 0.65928 0.0
C397 C 0.07234 0.02353 0.63006 0.0
H398 H 0.94515 0.03138 0.63841 0.0
C399 C 0.07865 0.97361 0.64167 0.0
C400 C 0.03699 0.94377 0.65219 0.0
H401 H 0.10499 0.04532 0.62187 0.0
H402 H 0.11638 0.95868 0.64177 0.0
C403 C 0.98888 0.96572 0.65086 0.0
C404 C 0.97935 0.05391 0.8748 0.0
C405 C 0.94674 0.01327 0.86723 0.0
H406 H 0.05529 0.07914 0.87976 0.0
C407 C 0.96698 0.9674 0.85408 0.0
H408 H 0.96482 0.09012 0.88413 0.0
C409 C 0.01893 0.96131 0.8511 0.0
C410 C 0.05168 0.00092 0.86125 0.0
H411 H 0.94294 0.93541 0.84792 0.0
H412 H 0.03344 0.92507 0.84183 0.0
C413 C 0.03125 0.04781 0.87189 0.0
C414 C 0.98215 0.00744 0.38204 0.0
C415 C 0.02383 0.97817 0.3927 0.0
H416 H 0.95537 0.07814 0.36159 0.0
C417 C 0.07187 -0.00055 0.39079 0.0
H418 H 0.94469 0.99154 0.38241 0.0
C419 C 0.07816 0.04939 0.37921 0.0
C420 C 0.03648 0.07921 0.36869 0.0
H421 H 0.10453 0.97767 0.39896 0.0
H422 H 0.11588 0.06435 0.37912 0.0
C423 C 0.98838 0.05723 0.37 0.0
C424 C 0.49006 0.96981 0.18644 0.0
C425 C 0.45459 0.9818 0.15809 0.0
H426 H 0.56179 0.98667 0.21136 0.0
C427 C 0.46637 0.02031 0.13193 0.0
H428 H 0.48232 0.94101 0.20739 0.0
C429 C 0.5113 0.04733 0.13496 0.0
C430 C 0.54609 0.03589 0.16371 0.0
H431 H 0.44076 0.03 0.10914 0.0
H432 H 0.51928 0.07655 0.11435 0.0
C433 C 0.53536 0.99639 0.18906 0.0
C434 C 0.01042 0.52603 0.70262 0.0
C435 C 0.97438 0.54323 0.67625 0.0
H436 H 0.06152 0.46721 0.71836 0.0
C437 C 0.96079 0.51128 0.64568 0.0
H438 H 0.02117 0.54914 0.72691 0.0
C439 C 0.98387 0.46414 0.64096 0.0
C440 C 0.02123 0.44793 0.66656 0.0
H441 H 0.93383 0.52343 0.62452 0.0
H442 H 0.9735 0.44103 0.61657 0.0
C443 C 0.0338 0.47918 0.69767 0.0
C444 C 0.46687 0.00235 0.88898 0.0
C445 C 0.45527 0.04104 0.86294 0.0
H446 H 0.51966 0.94598 0.90657 0.0
C447 C 0.49099 0.0533 0.83484 0.0
H448 H 0.44109 0.99244 0.91161 0.0
C449 C 0.53635 0.02678 0.83234 0.0
C450 C 0.54687 0.98706 0.85753 0.0
H451 H 0.48343 0.08226 0.81398 0.0
H452 H 0.56297 0.03669 0.81022 0.0
C453 C 0.51185 0.97538 0.88606 0.0
C454 C 0.96048 0.51162 0.37543 0.0
C455 C 0.97388 0.47972 0.34479 0.0
H456 H 0.9734 0.58182 0.40458 0.0
C457 C 0.00978 0.49693 0.31833 0.0
H458 H 0.93363 0.49945 0.39668 0.0
C459 C 0.03321 0.54376 0.32324 0.0
C460 C 0.02083 0.57497 0.35442 0.0
H461 H 0.02038 0.47384 0.29398 0.0
H462 H 0.06081 0.55574 0.30247 0.0
C463 C 0.98362 0.55874 0.38013 0.0
loop_
_geom_bond_atom_site_label_1
_geom_bond_atom_site_label_2
_geom_bond_distance
_geom_bond_site_symmetry_2
_ccdc_geom_bond_type
Co0 N4 2.147 1_545 S
Co0 N10 2.129 . S
Co0 N20 2.196 . S
Co0 O25 2.352 . S
Co0 O26 2.154 1_545 S
Co0 O27 2.093 1_545 S
C1 N4 1.301 1_545 S
C1 N5 1.336 . S
C1 H6 0.930 . S
C2 C3 1.333 . S
C2 N4 1.317 . S
C2 H7 0.930 . S
C3 C2 1.333 . S
C3 N5 1.332 1_565 S
C3 H29 0.931 . S
N4 Co0 2.147 1_565 S
N4 C1 1.301 1_565 S
N4 C2 1.317 . S
N5 C1 1.336 . S
N5 C3 1.332 1_545 S
H6 C1 0.930 . S
H7 C2 0.930 . S
C8 O9 1.224 . S
C8 O27 1.247 . S
O9 C8 1.224 . S
N10 Co0 2.129 . S
N10 C11 1.355 . S
N10 C13 1.311 1_545 S
C11 N10 1.355 . S
C11 C12 1.363 . S
C11 H23 0.929 . S
C12 C11 1.363 . S
C12 N14 1.375 . S
C12 H30 0.931 . S
C13 N10 1.311 1_565 S
C13 N14 1.347 1_565 S
C13 H24 0.929 . S
N14 C12 1.375 . S
N14 C13 1.347 1_545 S
C15 C18 1.365 . S
C15 N20 1.328 . S
C15 H21 0.929 . S
C16 C17 1.362 . S
C16 C19 1.378 . S
C16 H31 0.929 . S
C17 C16 1.362 . S
C17 C18 1.366 . S
C18 C15 1.365 . S
C18 C17 1.366 . S
C18 H32 0.930 . S
C19 C16 1.378 . S
C19 N20 1.315 . S
C19 H22 0.930 . S
N20 Co0 2.196 . S
N20 C15 1.328 . S
N20 C19 1.315 . S
H21 C15 0.929 . S
H22 C19 0.930 . S
H23 C11 0.929 . S
H24 C13 0.929 . S
O25 Co0 2.352 . S
O25 C28 1.244 . S
O26 Co0 2.154 1_565 S
O26 C28 1.240 1_565 S
O27 Co0 2.093 1_565 S
O27 C8 1.247 . S
C28 O25 1.244 . S
C28 O26 1.240 1_545 S
H29 C3 0.931 . S
H30 C12 0.931 . S
H31 C16 0.929 . S
H32 C18 0.930 . S
Co33 N37 2.148 . S
Co33 N43 2.128 . S
Co33 N53 2.194 1_455 S
Co33 O58 2.351 1_455 S
Co33 O59 2.155 . S
Co33 O60 2.096 . S
C34 N37 1.301 . S
C34 N38 1.328 . S
C34 H39 0.930 1_455 S
C35 C36 1.333 . S
C35 N37 1.317 . S
C35 H40 0.930 . S
C36 C35 1.333 . S
C36 N38 1.350 . S
C36 H62 0.931 . S
N37 Co33 2.148 . S
N37 C34 1.301 . S
N37 C35 1.317 . S
N38 C34 1.328 . S
N38 C36 1.350 . S
H39 C34 0.930 1_655 S
H40 C35 0.930 . S
C41 O42 1.224 . S
C41 O60 1.247 . S
O42 C41 1.224 . S
N43 Co33 2.128 . S
N43 C44 1.355 1_455 S
N43 C46 1.311 . S
C44 N43 1.355 1_655 S
C44 C45 1.363 . S
C44 H56 0.929 . S
C45 C44 1.363 . S
C45 N47 1.375 1_655 S
C45 H63 0.931 . S
C46 N43 1.311 . S
C46 N47 1.347 . S
C46 H57 0.929 . S
N47 C45 1.375 1_455 S
N47 C46 1.347 . S
C48 C51 1.365 . S
C48 N53 1.328 . S
C48 H54 0.929 . S
C49 C50 1.362 . S
C49 C52 1.378 . S
C49 H64 0.929 . S
C50 C49 1.362 . S
C50 C51 1.366 . S
C51 C48 1.365 . S
C51 C50 1.366 . S
C51 H65 0.930 . S
C52 C49 1.378 . S
C52 N53 1.315 . S
C52 H55 0.930 . S
N53 Co33 2.194 1_655 S
N53 C48 1.328 . S
N53 C52 1.315 . S
H54 C48 0.929 . S
H55 C52 0.930 . S
H56 C44 0.929 . S
H57 C46 0.929 . S
O58 Co33 2.351 1_655 S
O58 C61 1.244 1_655 S
O59 Co33 2.155 . S
O59 C61 1.240 . S
O60 Co33 2.096 . S
O60 C41 1.247 . S
C61 O58 1.244 1_455 S
C61 O59 1.240 . S
H62 C36 0.931 . S
H63 C45 0.931 . S
H64 C49 0.929 . S
H65 C51 0.930 . S
Co66 N70 2.148 . S
Co66 N76 2.128 . S
Co66 N86 2.194 1_545 S
Co66 O91 2.351 1_545 S
Co66 O92 2.155 . S
Co66 O93 2.096 . S
C67 N70 1.301 . S
C67 N71 1.328 . S
C67 H72 0.930 1_545 S
C68 C69 1.333 . S
C68 N70 1.317 . S
C68 H73 0.930 . S
C69 C68 1.333 . S
C69 N71 1.350 . S
C69 H95 0.931 . S
N70 Co66 2.148 . S
N70 C67 1.301 . S
N70 C68 1.317 . S
N71 C67 1.328 . S
N71 C69 1.350 . S
H72 C67 0.930 1_565 S
H73 C68 0.930 . S
C74 O75 1.224 . S
C74 O93 1.247 . S
O75 C74 1.224 . S
N76 Co66 2.128 . S
N76 C77 1.355 1_545 S
N76 C79 1.311 . S
C77 N76 1.355 1_565 S
C77 C78 1.363 . S
C77 H89 0.929 . S
C78 C77 1.363 . S
C78 N80 1.375 1_565 S
C78 H96 0.931 . S
C79 N76 1.311 . S
C79 N80 1.347 . S
C79 H90 0.929 . S
N80 C78 1.375 1_545 S
N80 C79 1.347 . S
C81 C84 1.365 . S
C81 N86 1.328 . S
C81 H87 0.929 . S
C82 C83 1.362 . S
C82 C85 1.378 . S
C82 H97 0.929 . S
C83 C82 1.362 . S
C83 C84 1.366 . S
C84 C81 1.365 . S
C84 C83 1.366 . S
C84 H98 0.930 . S
C85 C82 1.378 . S
C85 N86 1.315 . S
C85 H88 0.930 . S
N86 Co66 2.194 1_565 S
N86 C81 1.328 . S
N86 C85 1.315 . S
H87 C81 0.929 . S
H88 C85 0.930 . S
H89 C77 0.929 . S
H90 C79 0.929 . S
O91 Co66 2.351 1_565 S
O91 C94 1.244 1_565 S
O92 Co66 2.155 . S
O92 C94 1.240 . S
O93 Co66 2.096 . S
O93 C74 1.247 . S
C94 O91 1.244 1_545 S
C94 O92 1.240 . S
H95 C69 0.931 . S
H96 C78 0.931 . S
H97 C82 0.929 . S
H98 C84 0.930 . S
Co99 N103 2.147 1_455 S
Co99 N109 2.129 . S
Co99 N119 2.195 . S
Co99 O124 2.352 . S
Co99 O125 2.154 1_455 S
Co99 O126 2.094 1_455 S
C100 N103 1.301 1_455 S
C100 N104 1.336 . S
C100 H105 0.930 . S
C101 C102 1.333 . S
C101 N103 1.317 . S
C101 H106 0.930 . S
C102 C101 1.333 . S
C102 N104 1.333 1_655 S
C102 H128 0.931 . S
N103 Co99 2.147 1_655 S
N103 C100 1.301 1_655 S
N103 C101 1.317 . S
N104 C100 1.336 . S
N104 C102 1.333 1_455 S
H105 C100 0.930 . S
H106 C101 0.930 . S
C107 O108 1.224 . S
C107 O126 1.247 . S
O108 C107 1.224 . S
N109 Co99 2.129 . S
N109 C110 1.355 . S
N109 C112 1.311 1_455 S
C110 N109 1.355 . S
C110 C111 1.363 . S
C110 H122 0.929 . S
C111 C110 1.363 . S
C111 N113 1.375 . S
C111 H129 0.931 . S
C112 N109 1.311 1_655 S
C112 N113 1.347 1_655 S
C112 H123 0.929 . S
N113 C111 1.375 . S
N113 C112 1.347 1_455 S
C114 C117 1.365 . S
C114 N119 1.328 . S
C114 H120 0.929 . S
C115 C116 1.362 . S
C115 C118 1.378 . S
C115 H130 0.929 . S
C116 C115 1.362 . S
C116 C117 1.366 . S
C117 C114 1.365 . S
C117 C116 1.366 . S
C117 H131 0.930 . S
C118 C115 1.378 . S
C118 N119 1.315 . S
C118 H121 0.930 . S
N119 Co99 2.195 . S
N119 C114 1.328 . S
N119 C118 1.315 . S
H120 C114 0.929 . S
H121 C118 0.930 . S
H122 C110 0.929 . S
H123 C112 0.929 . S
O124 Co99 2.352 . S
O124 C127 1.244 . S
O125 Co99 2.154 1_655 S
O125 C127 1.240 1_655 S
O126 Co99 2.094 1_655 S
O126 C107 1.247 . S
C127 O124 1.244 . S
C127 O125 1.240 1_455 S
H128 C102 0.931 . S
H129 C111 0.931 . S
H130 C115 0.929 . S
H131 C117 0.930 . S
Co132 N136 2.148 . S
Co132 N142 2.128 . S
Co132 N152 2.194 1_545 S
Co132 O157 2.351 1_545 S
Co132 O158 2.155 . S
Co132 O159 2.096 . S
C133 N136 1.301 . S
C133 N137 1.328 . S
C133 H138 0.930 1_545 S
C134 C135 1.333 . S
C134 N136 1.317 . S
C134 H139 0.930 . S
C135 C134 1.333 . S
C135 N137 1.350 . S
C135 H161 0.931 . S
N136 Co132 2.148 . S
N136 C133 1.301 . S
N136 C134 1.317 . S
N137 C133 1.328 . S
N137 C135 1.350 . S
H138 C133 0.930 1_565 S
H139 C134 0.930 . S
C140 O141 1.224 . S
C140 O159 1.247 . S
O141 C140 1.224 . S
N142 Co132 2.128 . S
N142 C143 1.355 1_545 S
N142 C145 1.311 . S
C143 N142 1.355 1_565 S
C143 C144 1.363 . S
C143 H155 0.929 . S
C144 C143 1.363 . S
C144 N146 1.375 1_565 S
C144 H162 0.931 . S
C145 N142 1.311 . S
C145 N146 1.347 . S
C145 H156 0.929 . S
N146 C144 1.375 1_545 S
N146 C145 1.347 . S
C147 C150 1.365 . S
C147 N152 1.328 . S
C147 H153 0.929 . S
C148 C149 1.362 . S
C148 C151 1.378 . S
C148 H163 0.929 . S
C149 C148 1.362 . S
C149 C150 1.366 . S
C150 C147 1.365 . S
C150 C149 1.366 . S
C150 H164 0.930 . S
C151 C148 1.378 . S
C151 N152 1.315 . S
C151 H154 0.930 . S
N152 Co132 2.194 1_565 S
N152 C147 1.328 . S
N152 C151 1.315 . S
H153 C147 0.929 . S
H154 C151 0.930 . S
H155 C143 0.929 . S
H156 C145 0.929 . S
O157 Co132 2.351 1_565 S
O157 C160 1.244 1_565 S
O158 Co132 2.155 . S
O158 C160 1.240 . S
O159 Co132 2.096 . S
O159 C140 1.247 . S
C160 O157 1.244 1_545 S
C160 O158 1.240 . S
H161 C135 0.931 . S
H162 C144 0.931 . S
H163 C148 0.929 . S
H164 C150 0.930 . S
Co165 N169 2.147 1_455 S
Co165 N175 2.129 . S
Co165 N185 2.196 . S
Co165 O190 2.352 . S
Co165 O191 2.154 1_455 S
Co165 O192 2.093 1_455 S
C166 N169 1.301 1_455 S
C166 N170 1.336 . S
C166 H171 0.930 . S
C167 C168 1.333 . S
C167 N169 1.317 . S
C167 H172 0.930 . S
C168 C167 1.333 . S
C168 N170 1.332 1_655 S
C168 H194 0.931 . S
N169 Co165 2.147 1_655 S
N169 C166 1.301 1_655 S
N169 C167 1.317 . S
N170 C166 1.336 . S
N170 C168 1.332 1_455 S
H171 C166 0.930 . S
H172 C167 0.930 . S
C173 O174 1.224 . S
C173 O192 1.247 . S
O174 C173 1.224 . S
N175 Co165 2.129 . S
N175 C176 1.355 . S
N175 C178 1.311 1_455 S
C176 N175 1.355 . S
C176 C177 1.363 . S
C176 H188 0.929 . S
C177 C176 1.363 . S
C177 N179 1.375 . S
C177 H195 0.931 . S
C178 N175 1.311 1_655 S
C178 N179 1.347 1_655 S
C178 H189 0.929 . S
N179 C177 1.375 . S
N179 C178 1.347 1_455 S
C180 C183 1.365 . S
C180 N185 1.328 . S
C180 H186 0.929 . S
C181 C182 1.362 . S
C181 C184 1.378 . S
C181 H196 0.929 . S
C182 C181 1.362 . S
C182 C183 1.366 . S
C183 C180 1.365 . S
C183 C182 1.366 . S
C183 H197 0.930 . S
C184 C181 1.378 . S
C184 N185 1.315 . S
C184 H187 0.930 . S
N185 Co165 2.196 . S
N185 C180 1.328 . S
N185 C184 1.315 . S
H186 C180 0.929 . S
H187 C184 0.930 . S
H188 C176 0.929 . S
H189 C178 0.929 . S
O190 Co165 2.352 . S
O190 C193 1.244 . S
O191 Co165 2.154 1_655 S
O191 C193 1.240 1_655 S
O192 Co165 2.093 1_655 S
O192 C173 1.247 . S
C193 O190 1.244 . S
C193 O191 1.240 1_455 S
H194 C168 0.931 . S
H195 C177 0.931 . S
H196 C181 0.929 . S
H197 C183 0.930 . S
Co198 N202 2.147 1_545 S
Co198 N208 2.129 . S
Co198 N218 2.195 . S
Co198 O223 2.352 . S
Co198 O224 2.154 1_545 S
Co198 O225 2.094 1_545 S
C199 N202 1.301 1_545 S
C199 N203 1.336 . S
C199 H204 0.930 . S
C200 C201 1.333 . S
C200 N202 1.317 . S
C200 H205 0.930 . S
C201 C200 1.333 . S
C201 N203 1.333 1_565 S
C201 H227 0.931 . S
N202 Co198 2.147 1_565 S
N202 C199 1.301 1_565 S
N202 C200 1.317 . S
N203 C199 1.336 . S
N203 C201 1.333 1_545 S
H204 C199 0.930 . S
H205 C200 0.930 . S
C206 O207 1.224 . S
C206 O225 1.247 . S
O207 C206 1.224 . S
N208 Co198 2.129 . S
N208 C209 1.355 . S
N208 C211 1.311 1_545 S
C209 N208 1.355 . S
C209 C210 1.363 . S
C209 H221 0.929 . S
C210 C209 1.363 . S
C210 N212 1.375 . S
C210 H228 0.931 . S
C211 N208 1.311 1_565 S
C211 N212 1.347 1_565 S
C211 H222 0.929 . S
N212 C210 1.375 . S
N212 C211 1.347 1_545 S
C213 C216 1.365 . S
C213 N218 1.328 . S
C213 H219 0.929 . S
C214 C215 1.362 . S
C214 C217 1.378 . S
C214 H229 0.929 . S
C215 C214 1.362 . S
C215 C216 1.366 . S
C216 C213 1.365 . S
C216 C215 1.366 . S
C216 H230 0.930 . S
C217 C214 1.378 . S
C217 N218 1.315 . S
C217 H220 0.930 . S
N218 Co198 2.195 . S
N218 C213 1.328 . S
N218 C217 1.315 . S
H219 C213 0.929 . S
H220 C217 0.930 . S
H221 C209 0.929 . S
H222 C211 0.929 . S
O223 Co198 2.352 . S
O223 C226 1.244 . S
O224 Co198 2.154 1_565 S
O224 C226 1.240 1_565 S
O225 Co198 2.094 1_565 S
O225 C206 1.247 . S
C226 O223 1.244 . S
C226 O224 1.240 1_545 S
H227 C201 0.931 . S
H228 C210 0.931 . S
H229 C214 0.929 . S
H230 C216 0.930 . S
Co231 N235 2.148 . S
Co231 N241 2.128 . S
Co231 N251 2.194 1_455 S
Co231 O256 2.351 1_455 S
Co231 O257 2.155 . S
Co231 O258 2.096 . S
C232 N235 1.301 . S
C232 N236 1.328 . S
C232 H237 0.930 1_455 S
C233 C234 1.333 . S
C233 N235 1.317 . S
C233 H238 0.930 . S
C234 C233 1.333 . S
C234 N236 1.350 . S
C234 H260 0.931 . S
N235 Co231 2.148 . S
N235 C232 1.301 . S
N235 C233 1.317 . S
N236 C232 1.328 . S
N236 C234 1.350 . S
H237 C232 0.930 1_655 S
H238 C233 0.930 . S
C239 O240 1.224 . S
C239 O258 1.247 . S
O240 C239 1.224 . S
N241 Co231 2.128 . S
N241 C242 1.355 1_455 S
N241 C244 1.311 . S
C242 N241 1.355 1_655 S
C242 C243 1.363 . S
C242 H254 0.929 . S
C243 C242 1.363 . S
C243 N245 1.375 1_655 S
C243 H261 0.931 . S
C244 N241 1.311 . S
C244 N245 1.347 . S
C244 H255 0.929 . S
N245 C243 1.375 1_455 S
N245 C244 1.347 . S
C246 C249 1.365 . S
C246 N251 1.328 . S
C246 H252 0.929 . S
C247 C248 1.362 . S
C247 C250 1.378 . S
C247 H262 0.929 . S
C248 C247 1.362 . S
C248 C249 1.366 . S
C249 C246 1.365 . S
C249 C248 1.366 . S
C249 H263 0.930 . S
C250 C247 1.378 . S
C250 N251 1.315 . S
C250 H253 0.930 . S
N251 Co231 2.194 1_655 S
N251 C246 1.328 . S
N251 C250 1.315 . S
H252 C246 0.929 . S
H253 C250 0.930 . S
H254 C242 0.929 . S
H255 C244 0.929 . S
O256 Co231 2.351 1_655 S
O256 C259 1.244 1_655 S
O257 Co231 2.155 . S
O257 C259 1.240 . S
O258 Co231 2.096 . S
O258 C239 1.247 . S
C259 O256 1.244 1_455 S
C259 O257 1.240 . S
H260 C234 0.931 . S
H261 C243 0.931 . S
H262 C247 0.929 . S
H263 C249 0.930 . S
C264 C265 1.387 1_565 S
C264 H268 0.950 . S
C264 C273 1.390 1_554 S
C265 C264 1.387 1_545 S
C265 C267 1.387 . S
H266 C273 0.950 . S
C267 C265 1.387 . S
C267 C269 1.390 1_554 S
C267 H271 0.950 . S
H268 C264 0.950 . S
C269 C267 1.390 1_556 S
C269 C270 1.387 . S
C269 H272 0.950 . S
C270 C269 1.387 . S
C270 C273 1.387 1_545 S
H271 C267 0.950 . S
H272 C269 0.950 . S
C273 C264 1.390 1_556 S
C273 H266 0.950 . S
C273 C270 1.387 1_565 S
C274 C275 1.387 . S
C274 H278 0.950 . S
C274 C283 1.390 . S
C275 C274 1.387 . S
C275 C277 1.387 . S
H276 C283 0.950 . S
C277 C275 1.387 . S
C277 C279 1.390 . S
C277 H281 0.950 . S
H278 C274 0.950 . S
C279 C277 1.390 . S
C279 C280 1.387 . S
C279 H282 0.950 . S
C280 C279 1.387 . S
C280 C283 1.387 . S
H281 C277 0.950 . S
H282 C279 0.950 . S
C283 C274 1.390 . S
C283 H276 0.950 . S
C283 C280 1.387 . S
C284 C285 1.387 . S
C284 H288 0.950 . S
C284 C293 1.390 1_554 S
C285 C284 1.387 . S
C285 C287 1.387 . S
H286 C293 0.950 . S
C287 C285 1.387 . S
C287 C289 1.390 1_554 S
C287 H291 0.950 . S
H288 C284 0.950 . S
C289 C287 1.390 1_556 S
C289 C290 1.387 . S
C289 H292 0.950 . S
C290 C289 1.387 . S
C290 C293 1.387 . S
H291 C287 0.950 . S
H292 C289 0.950 . S
C293 C284 1.390 1_556 S
C293 H286 0.950 . S
C293 C290 1.387 . S
C294 C295 1.387 . S
C294 H298 0.950 . S
C294 C303 1.390 . S
C295 C294 1.387 . S
C295 C297 1.387 . S
H296 C303 0.950 . S
C297 C295 1.387 . S
C297 C299 1.390 . S
C297 H301 0.950 . S
H298 C294 0.950 . S
C299 C297 1.390 . S
C299 C300 1.387 . S
C299 H302 0.950 . S
C300 C299 1.387 . S
C300 C303 1.387 . S
H301 C297 0.950 . S
H302 C299 0.950 . S
C303 C294 1.390 . S
C303 H296 0.950 . S
C303 C300 1.387 . S
C304 C305 1.387 . S
C304 H308 0.950 . S
C304 C313 1.390 . S
C305 C304 1.387 . S
C305 C307 1.387 . S
H306 C313 0.950 . S
C307 C305 1.387 . S
C307 C309 1.390 . S
C307 H311 0.950 . S
H308 C304 0.950 . S
C309 C307 1.390 . S
C309 C310 1.387 . S
C309 H312 0.950 . S
C310 C309 1.387 . S
C310 C313 1.387 . S
H311 C307 0.950 . S
H312 C309 0.950 . S
C313 C304 1.390 . S
C313 H306 0.950 . S
C313 C310 1.387 . S
C314 C315 1.387 . S
C314 H318 0.950 . S
C314 C323 1.390 . S
C315 C314 1.387 . S
C315 C317 1.387 . S
H316 C323 0.950 . S
C317 C315 1.387 . S
C317 C319 1.390 . S
C317 H321 0.950 . S
H318 C314 0.950 . S
C319 C317 1.390 . S
C319 C320 1.387 . S
C319 H322 0.950 . S
C320 C319 1.387 . S
C320 C323 1.387 . S
H321 C317 0.950 . S
H322 C319 0.950 . S
C323 C314 1.390 . S
C323 H316 0.950 . S
C323 C320 1.387 . S
C324 C325 1.387 . S
C324 H328 0.950 . S
C324 C333 1.390 . S
C325 C324 1.387 . S
C325 C327 1.387 . S
H326 C333 0.950 . S
C327 C325 1.387 . S
C327 C329 1.390 . S
C327 H331 0.950 . S
H328 C324 0.950 . S
C329 C327 1.390 . S
C329 C330 1.387 . S
C329 H332 0.950 . S
C330 C329 1.387 . S
C330 C333 1.387 . S
H331 C327 0.950 . S
H332 C329 0.950 . S
C333 C324 1.390 . S
C333 H326 0.950 . S
C333 C330 1.387 . S
C334 C335 1.387 . S
C334 H338 0.950 . S
C334 C343 1.390 . S
C335 C334 1.387 . S
C335 C337 1.387 . S
H336 C343 0.950 . S
C337 C335 1.387 . S
C337 C339 1.390 . S
C337 H341 0.950 . S
H338 C334 0.950 . S
C339 C337 1.390 . S
C339 C340 1.387 . S
C339 H342 0.950 . S
C340 C339 1.387 . S
C340 C343 1.387 . S
H341 C337 0.950 . S
H342 C339 0.950 . S
C343 C334 1.390 . S
C343 H336 0.950 . S
C343 C340 1.387 . S
C344 C345 1.387 . S
C344 H348 0.950 . S
C344 C353 1.390 . S
C345 C344 1.387 . S
C345 C347 1.387 . S
H346 C353 0.950 . S
C347 C345 1.387 . S
C347 C349 1.390 . S
C347 H351 0.950 . S
H348 C344 0.950 . S
C349 C347 1.390 . S
C349 C350 1.387 . S
C349 H352 0.950 . S
C350 C349 1.387 . S
C350 C353 1.387 . S
H351 C347 0.950 . S
H352 C349 0.950 . S
C353 C344 1.390 . S
C353 H346 0.950 . S
C353 C350 1.387 . S
C354 C355 1.387 . S
C354 H358 0.950 . S
C354 C363 1.390 . S
C355 C354 1.387 . S
C355 C357 1.387 . S
H356 C363 0.950 . S
C357 C355 1.387 . S
C357 C359 1.390 . S
C357 H361 0.950 . S
H358 C354 0.950 . S
C359 C357 1.390 . S
C359 C360 1.387 . S
C359 H362 0.950 . S
C360 C359 1.387 . S
C360 C363 1.387 . S
H361 C357 0.950 . S
H362 C359 0.950 . S
C363 C354 1.390 . S
C363 H356 0.950 . S
C363 C360 1.387 . S
C364 C365 1.387 . S
C364 H368 0.950 . S
C364 C373 1.390 . S
C365 C364 1.387 . S
C365 C367 1.387 . S
H366 C373 0.950 . S
C367 C365 1.387 . S
C367 C369 1.390 . S
C367 H371 0.950 . S
H368 C364 0.950 . S
C369 C367 1.390 . S
C369 C370 1.387 . S
C369 H372 0.950 . S
C370 C369 1.387 . S
C370 C373 1.387 . S
H371 C367 0.950 . S
H372 C369 0.950 . S
C373 C364 1.390 . S
C373 H366 0.950 . S
C373 C370 1.387 . S
C374 C375 1.387 . S
C374 H378 0.950 . S
C374 C383 1.390 . S
C375 C374 1.387 . S
C375 C377 1.387 . S
H376 C383 0.950 . S
C377 C375 1.387 . S
C377 C379 1.390 . S
C377 H381 0.950 . S
H378 C374 0.950 . S
C379 C377 1.390 . S
C379 C380 1.387 . S
C379 H382 0.950 . S
C380 C379 1.387 . S
C380 C383 1.387 . S
H381 C377 0.950 . S
H382 C379 0.950 . S
C383 C374 1.390 . S
C383 H376 0.950 . S
C383 C380 1.387 . S
C384 C385 1.387 1_545 S
C384 H388 0.951 . S
C384 C393 1.390 1_455 S
C385 C384 1.387 1_565 S
C385 C387 1.387 1_565 S
H386 C393 0.950 . S
C387 C385 1.387 1_545 S
C387 C389 1.390 1_455 S
C387 H391 0.951 . S
H388 C384 0.951 . S
C389 C387 1.390 1_655 S
C389 C390 1.387 . S
C389 H392 0.950 . S
C390 C389 1.387 . S
C390 C393 1.387 . S
H391 C387 0.951 . S
H392 C389 0.950 . S
C393 C384 1.390 1_655 S
C393 H386 0.950 . S
C393 C390 1.387 . S
C394 C395 1.387 . S
C394 H398 0.950 . S
C394 C403 1.390 1_545 S
C395 C394 1.387 . S
C395 C397 1.387 . S
H396 C403 0.948 1_655 S
C397 C395 1.387 . S
C397 C399 1.390 1_545 S
C397 H401 0.950 . S
H398 C394 0.950 . S
C399 C397 1.390 1_565 S
C399 C400 1.387 1_455 S
C399 H402 0.948 1_455 S
C400 C399 1.387 1_655 S
C400 C403 1.387 1_655 S
H401 C397 0.950 . S
H402 C399 0.948 1_655 S
C403 C394 1.390 1_565 S
C403 H396 0.948 1_455 S
C403 C400 1.387 1_455 S
C404 C405 1.387 1_545 S
C404 H408 0.950 . S
C404 C413 1.390 1_655 S
C405 C404 1.387 1_565 S
C405 C407 1.387 1_565 S
H406 C413 0.950 . S
C407 C405 1.387 1_545 S
C407 C409 1.390 1_655 S
C407 H411 0.951 . S
H408 C404 0.950 . S
C409 C407 1.390 1_455 S
C409 C410 1.387 . S
C409 H412 0.950 . S
C410 C409 1.387 . S
C410 C413 1.387 . S
H411 C407 0.951 . S
H412 C409 0.950 . S
C413 C404 1.390 1_455 S
C413 H406 0.950 . S
C413 C410 1.387 . S
C414 C415 1.387 . S
C414 H418 0.950 . S
C414 C423 1.390 1_565 S
C415 C414 1.387 . S
C415 C417 1.387 . S
H416 C423 0.948 1_655 S
C417 C415 1.387 . S
C417 C419 1.390 1_565 S
C417 H421 0.950 . S
H418 C414 0.950 . S
C419 C417 1.390 1_545 S
C419 C420 1.387 1_455 S
C419 H422 0.948 1_455 S
C420 C419 1.387 1_655 S
C420 C423 1.387 1_655 S
H421 C417 0.950 . S
H422 C419 0.948 1_655 S
C423 C414 1.390 1_545 S
C423 H416 0.948 1_455 S
C423 C420 1.387 1_455 S
C424 C425 1.387 . S
C424 H428 0.950 . S
C424 C433 1.390 . S
C425 C424 1.387 . S
C425 C427 1.387 . S
H426 C433 0.950 . S
C427 C425 1.387 . S
C427 C429 1.390 . S
C427 H431 0.950 . S
H428 C424 0.950 . S
C429 C427 1.390 . S
C429 C430 1.387 . S
C429 H432 0.950 . S
C430 C429 1.387 . S
C430 C433 1.387 . S
H431 C427 0.950 . S
H432 C429 0.950 . S
C433 C424 1.390 . S
C433 H426 0.950 . S
C433 C430 1.387 . S
C434 C435 1.387 . S
C434 H438 0.950 . S
C434 C443 1.390 . S
C435 C434 1.387 . S
C435 C437 1.387 . S
H436 C443 0.950 . S
C437 C435 1.387 . S
C437 C439 1.390 . S
C437 H441 0.950 . S
H438 C434 0.950 . S
C439 C437 1.390 . S
C439 C440 1.387 . S
C439 H442 0.950 . S
C440 C439 1.387 . S
C440 C443 1.387 . S
H441 C437 0.950 . S
H442 C439 0.950 . S
C443 C434 1.390 . S
C443 H436 0.950 . S
C443 C440 1.387 . S
C444 C445 1.387 . S
C444 H448 0.950 . S
C444 C453 1.390 . S
C445 C444 1.387 . S
C445 C447 1.387 . S
H446 C453 0.950 . S
C447 C445 1.387 . S
C447 C449 1.390 . S
C447 H451 0.950 . S
H448 C444 0.950 . S
C449 C447 1.390 . S
C449 C450 1.387 . S
C449 H452 0.950 . S
C450 C449 1.387 . S
C450 C453 1.387 . S
H451 C447 0.950 . S
H452 C449 0.950 . S
C453 C444 1.390 . S
C453 H446 0.950 . S
C453 C450 1.387 . S
C454 C455 1.387 . S
C454 H458 0.950 . S
C454 C463 1.390 . S
C455 C454 1.387 . S
C455 C457 1.387 . S
H456 C463 0.950 . S
C457 C455 1.387 . S
C457 C459 1.390 . S
C457 H461 0.950 . S
H458 C454 0.950 . S
C459 C457 1.390 . S
C459 C460 1.387 . S
C459 H462 0.950 . S
C460 C459 1.387 . S
C460 C463 1.387 . S
H461 C457 0.950 . S
H462 C459 0.950 . S
C463 C454 1.390 . S
C463 H456 0.950 . S
C463 C460 1.387 . S
C265 C28 1.662 . S
C270 C160 1.661 . S
C275 C193 1.662 . S
C280 C61 1.662 . S
C285 C94 1.662 . S
C290 C226 1.662 . S
C295 C259 1.662 . S
C300 C127 1.662 . S
C305 C182 0.575 . S
C310 C17 0.579 . S
C315 C215 0.573 . S
C320 C50 0.575 . S
C325 C83 0.577 . S
C330 C248 0.576 . S
C335 C149 0.579 . S
C340 C116 0.572 . S
C345 C107 1.546 . S
C350 C206 1.548 . S
C355 C8 1.546 . S
C360 C239 1.549 . S
C365 C41 1.549 . S
C370 C140 1.546 . S
C375 C74 1.547 . S
C380 C173 1.547 . S
C385 N14 0.892 1_565 S
C390 N80 0.892 . S
C395 N47 0.898 . S
C400 N113 0.898 1_655 S
C405 N212 0.892 1_565 S
C410 N146 0.892 . S
C415 N245 0.898 . S
C420 N179 0.898 1_655 S
C425 N5 1.164 . S
C430 N71 1.159 . S
C435 N104 1.164 . S
C440 N38 1.158 . S
C445 N137 1.156 . S
C450 N203 1.161 . S
C455 N170 1.161 . S
C460 N236 1.156 . S
