# Generated by pormake.
# Topology ukf, (4)-cn, num edge types: 1
# Building blocks:
#     Node 0, Type 0, BuildingBlock: AZAVOO_clean_sbu_0, # of connection points: 4
#     Node 1, Type 0, BuildingBlock: AZAVOO_clean_sbu_0, # of connection points: 4
#     Node 2, Type 0, BuildingBlock: AZAVOO_clean_sbu_0, # of connection points: 4
#     Node 3, Type 0, BuildingBlock: AZAVOO_clean_sbu_0, # of connection points: 4
#     Node 4, Type 0, BuildingBlock: AZAVOO_clean_sbu_0, # of connection points: 4
#     Node 5, Type 0, BuildingBlock: AZAVOO_clean_sbu_0, # of connection points: 4
#     Node 6, Type 0, BuildingBlock: AZAVOO_clean_sbu_0, # of connection points: 4
#     Node 7, Type 0, BuildingBlock: AZAVOO_clean_sbu_0, # of connection points: 4
#     Node 8, Type 0, BuildingBlock: AZAVOO_clean_sbu_0, # of connection points: 4
#     Node 9, Type 0, BuildingBlock: AZAVOO_clean_sbu_0, # of connection points: 4
#     Node 10, Type 0, BuildingBlock: AZAVOO_clean_sbu_0, # of connection points: 4
#     Node 11, Type 0, BuildingBlock: AZAVOO_clean_sbu_0, # of connection points: 4
#     Edge 12, Type (0, 0), BuildingBlock: OJICUG_clean_linker_0, # of connection points: 2
#     Edge 13, Type (0, 0), BuildingBlock: OJICUG_clean_linker_0, # of connection points: 2
#     Edge 14, Type (0, 0), BuildingBlock: OJICUG_clean_linker_0, # of connection points: 2
#     Edge 15, Type (0, 0), BuildingBlock: OJICUG_clean_linker_0, # of connection points: 2
#     Edge 16, Type (0, 0), BuildingBlock: OJICUG_clean_linker_0, # of connection points: 2
#     Edge 17, Type (0, 0), BuildingBlock: OJICUG_clean_linker_0, # of connection points: 2
#     Edge 18, Type (0, 0), BuildingBlock: OJICUG_clean_linker_0, # of connection points: 2
#     Edge 19, Type (0, 0), BuildingBlock: OJICUG_clean_linker_0, # of connection points: 2
#     Edge 20, Type (0, 0), BuildingBlock: OJICUG_clean_linker_0, # of connection points: 2
#     Edge 21, Type (0, 0), BuildingBlock: OJICUG_clean_linker_0, # of connection points: 2
#     Edge 22, Type (0, 0), BuildingBlock: OJICUG_clean_linker_0, # of connection points: 2
#     Edge 23, Type (0, 0), BuildingBlock: OJICUG_clean_linker_0, # of connection points: 2
#     Edge 24, Type (0, 0), BuildingBlock: OJICUG_clean_linker_0, # of connection points: 2
#     Edge 25, Type (0, 0), BuildingBlock: OJICUG_clean_linker_0, # of connection points: 2
#     Edge 26, Type (0, 0), BuildingBlock: OJICUG_clean_linker_0, # of connection points: 2
#     Edge 27, Type (0, 0), BuildingBlock: OJICUG_clean_linker_0, # of connection points: 2
#     Edge 28, Type (0, 0), BuildingBlock: OJICUG_clean_linker_0, # of connection points: 2
#     Edge 29, Type (0, 0), BuildingBlock: OJICUG_clean_linker_0, # of connection points: 2
#     Edge 30, Type (0, 0), BuildingBlock: OJICUG_clean_linker_0, # of connection points: 2
#     Edge 31, Type (0, 0), BuildingBlock: OJICUG_clean_linker_0, # of connection points: 2
#     Edge 32, Type (0, 0), BuildingBlock: OJICUG_clean_linker_0, # of connection points: 2
#     Edge 33, Type (0, 0), BuildingBlock: OJICUG_clean_linker_0, # of connection points: 2
#     Edge 34, Type (0, 0), BuildingBlock: OJICUG_clean_linker_0, # of connection points: 2
#     Edge 35, Type (0, 0), BuildingBlock: OJICUG_clean_linker_0, # of connection points: 2
# Relax obj value: 0.209
# Max RMSD: 0.202
# Mean RMSD: 0.202
data_MOF--net-ukf--node1-AZAVOO_clean_sbu_0--edge1-OJICUG_clean_linker_0
_symmetry_space_group_name_H-M    P1
_symmetry_Int_Tables_number       1
_symmetry_cell_setting            triclinic
loop_
_symmetry_equiv_pos_as_xyz
'x, y, z'
_cell_length_a     24.005545
_cell_length_b     24.048275
_cell_length_c     46.283037
_cell_angle_alpha  89.241904
_cell_angle_beta   90.041313
_cell_angle_gamma 119.80576
loop_
_atom_site_label
_atom_site_type_symbol
_atom_site_fract_x
_atom_site_fract_y
_atom_site_fract_z
_atom_type_partial_charge
Mg0 Mg 0.36161 0.25269 0.04304 0.0
O1 O 0.46412 0.27291 0.03287 0.0
O2 O 0.53165 0.3727 0.04737 0.0
Mg3 Mg 0.47436 0.41274 0.06926 0.0
C4 C 0.52079 0.32072 0.0354 0.0
C5 C 0.26031 0.11422 0.0327 0.0
O6 O 0.22657 0.14199 0.0389 0.0
O7 O 0.37413 0.236 0.09085 0.0
O8 O 0.4448 0.33539 0.10471 0.0
O9 O 0.36273 0.29871 1.00033 0.0
O10 O 0.39327 0.34958 0.04196 0.0
C11 C 0.40937 0.27554 0.11008 0.0
C12 C 0.38879 0.35191 0.01433 0.0
O13 O 0.32115 0.14757 0.03298 0.0
Mg14 Mg 0.12898 0.37934 0.38924 0.0
O15 O 0.2061 0.47832 0.37142 0.0
O16 O 0.17728 0.54954 0.38485 0.0
Mg17 Mg 0.08832 0.49935 0.41375 0.0
C18 C 0.21472 0.53525 0.37133 0.0
C19 C 0.17193 0.29309 0.35842 0.0
O20 O 0.11654 0.27532 0.34592 0.0
O21 O 0.17057 0.4037 0.43482 0.0
O22 O 0.14424 0.47717 0.44787 0.0
O23 O 0.06878 0.36844 0.34994 0.0
O24 O 0.06323 0.41041 0.39141 0.0
C25 C 0.17006 0.44278 0.45314 0.0
C26 C 0.04551 0.39712 0.36507 0.0
O27 O 0.19179 0.33644 0.37741 0.0
Mg28 Mg 0.72985 0.13093 0.728 0.0
O29 O 0.70498 0.20802 0.71332 0.0
O30 O 0.60517 0.17655 0.72863 0.0
Mg31 Mg 0.5705 0.08623 0.75654 0.0
C32 C 0.656 0.21561 0.71473 0.0
C33 C 0.85925 0.18448 0.69382 0.0
O34 O 0.82326 0.13361 0.67836 0.0
O35 O 0.74899 0.16873 0.77404 0.0
O36 O 0.65014 0.14191 0.78947 0.0
O37 O 0.67904 0.07485 0.68842 0.0
O38 O 0.63392 0.06369 0.73144 0.0
C39 C 0.71057 0.1676 0.79343 0.0
C40 C 0.62815 0.04913 0.70463 0.0
O41 O 0.83436 0.19699 0.7152 0.0
Mg42 Mg 0.56009 0.71003 0.0391 0.0
O43 O 0.45782 0.69126 0.02957 0.0
O44 O 0.38932 0.5914 0.04502 0.0
Mg45 Mg 0.44567 0.54987 0.06707 0.0
C46 C 0.40087 0.64381 0.03257 0.0
C47 C 0.66271 0.85003 0.02977 0.0
O48 O 0.69589 0.82232 0.03749 0.0
O49 O 0.54902 0.72548 0.08694 0.0
O50 O 0.47708 0.62631 0.10202 0.0
O51 O 0.55745 0.66392 0.99677 0.0
O52 O 0.52715 0.61299 0.03907 0.0
C53 C 0.5138 0.68591 0.10668 0.0
C54 C 0.53119 0.61068 0.01147 0.0
O55 O 0.60198 0.81608 0.02843 0.0
Mg56 Mg 0.83432 0.55847 0.3898 0.0
O57 O 0.74424 0.47137 0.37201 0.0
O58 O 0.73887 0.38224 0.39045 0.0
Mg59 Mg 0.82779 0.41181 0.41812 0.0
C60 C 0.71648 0.41048 0.37473 0.0
C61 C 0.76823 0.61819 0.35206 0.0
O62 O 0.76601 0.57565 0.33388 0.0
O63 O 0.78987 0.54359 0.43497 0.0
O64 O 0.78992 0.45532 0.45098 0.0
O65 O 0.89086 0.55505 0.35173 0.0
O66 O 0.87674 0.50236 0.39314 0.0
C67 C 0.77867 0.50134 0.45458 0.0
C68 C 0.89785 0.51341 0.36698 0.0
O69 O 0.79454 0.62369 0.37651 0.0
Mg70 Mg 0.25137 0.85581 0.72702 0.0
O71 O 0.25336 0.76597 0.71293 0.0
O72 O 0.33344 0.76284 0.73633 0.0
Mg73 Mg 0.38834 0.85573 0.76205 0.0
C74 C 0.28627 0.73891 0.71882 0.0
C75 C 0.12704 0.78052 0.68878 0.0
O76 O 0.16581 0.76953 0.67293 0.0
O77 O 0.21469 0.81223 0.77216 0.0
O78 O 0.30382 0.82429 0.79337 0.0
O79 O 0.31617 0.90993 0.68927 0.0
O80 O 0.34923 0.90002 0.73267 0.0
C81 C 0.24475 0.80895 0.79432 0.0
C82 C 0.36271 0.91844 0.70615 0.0
O83 O 0.14854 0.81454 0.71122 0.0
Mg84 Mg 0.72519 0.57868 0.63417 0.0
O85 O 0.70193 0.47781 0.64987 0.0
O86 O 0.60072 0.40942 0.63718 0.0
Mg87 Mg 0.56247 0.46373 0.61062 0.0
C88 C 0.65289 0.4215 0.64972 0.0
C89 C 0.85723 0.6647 0.66154 0.0
O90 O 0.82231 0.68696 0.67303 0.0
O91 O 0.7387 0.55639 0.58772 0.0
O92 O 0.63782 0.48548 0.57525 0.0
O93 O 0.67979 0.58824 0.67506 0.0
O94 O 0.62922 0.55039 0.6337 0.0
C95 C 0.69771 0.51891 0.56943 0.0
C96 C 0.62693 0.56179 0.66053 0.0
O97 O 0.83085 0.61802 0.6443 0.0
Mg98 Mg 0.09845 0.72103 0.97341 0.0
O99 O 0.17866 0.69793 0.98294 0.0
O100 O 0.14841 0.60241 0.96345 0.0
Mg101 Mg 0.05175 0.56625 0.94085 0.0
C102 C 0.18808 0.65116 0.97784 0.0
C103 C 0.13064 0.85015 0.99679 0.0
O104 O 0.0676 0.81668 0.99743 0.0
O105 O 0.13365 0.74602 0.92662 0.0
O106 O 0.09795 0.64902 0.9076 0.0
O107 O 0.0487 0.66764 0.01417 0.0
O108 O 0.03295 0.62461 0.9708 0.0
C109 C 0.12587 0.71 0.90515 0.0
C110 C 0.02312 0.61723 0.99823 0.0
O111 O 0.16153 0.82384 0.98739 0.0
Mg112 Mg 0.37833 0.1114 0.28542 0.0
O113 O 0.46687 0.19987 0.30342 0.0
O114 O 0.55481 0.20902 0.28205 0.0
Mg115 Mg 0.52303 0.12444 0.2518 0.0
C116 C 0.5276 0.22867 0.29962 0.0
C117 C 0.32272 0.17579 0.32666 0.0
O118 O 0.37003 0.18189 0.34309 0.0
O119 O 0.38761 0.16162 0.24177 0.0
O120 O 0.47549 0.1662 0.2227 0.0
O121 O 0.3868 0.05138 0.321 0.0
O122 O 0.43553 0.071 0.27844 0.0
C123 C 0.42851 0.17682 0.2213 0.0
C124 C 0.42753 0.04713 0.30416 0.0
O125 O 0.31318 0.14774 0.30256 0.0
Mg126 Mg 0.25965 0.39983 0.63355 0.0
O127 O 0.25716 0.4878 0.65096 0.0
O128 O 0.34345 0.57597 0.63361 0.0
Mg129 Mg 0.40297 0.54493 0.60694 0.0
C130 C 0.29179 0.54862 0.64857 0.0
C131 C 0.13074 0.34123 0.6689 0.0
O132 O 0.16906 0.38371 0.68759 0.0
O133 O 0.23417 0.41628 0.58771 0.0
O134 O 0.32421 0.50362 0.57274 0.0
O135 O 0.31577 0.40136 0.67282 0.0
O136 O 0.35807 0.45411 0.63177 0.0
C137 C 0.26702 0.45844 0.56837 0.0
C138 C 0.36567 0.44265 0.65825 0.0
O139 O 0.15385 0.33574 0.6451 0.0
Mg140 Mg 0.82802 0.25123 0.97467 0.0
O141 O 0.74511 0.27108 0.98421 0.0
O142 O 0.77496 0.36879 0.96611 0.0
Mg143 Mg 0.8707 0.40768 0.94266 0.0
C144 C 0.73529 0.31818 0.98002 0.0
C145 C 0.79569 0.11885 0.99721 0.0
O146 O 0.85869 0.15189 0.99823 0.0
O147 O 0.79743 0.22945 0.92749 0.0
O148 O 0.82317 0.32666 0.90992 0.0
O149 O 0.87521 0.30279 0.01549 0.0
O150 O 0.89161 0.34829 0.97202 0.0
C151 C 0.80006 0.26648 0.90684 0.0
C152 C 0.90057 0.35412 0.99944 0.0
O153 O 0.76561 0.14661 0.98815 0.0
Mg154 Mg 0.57373 0.82089 0.28595 0.0
O155 O 0.47364 0.74372 0.3024 0.0
O156 O 0.40258 0.77077 0.28597 0.0
Mg157 Mg 0.45444 0.85831 0.25613 0.0
C158 C 0.41644 0.73436 0.30094 0.0
C159 C 0.6505 0.77101 0.32275 0.0
O160 O 0.66136 0.82054 0.33841 0.0
O161 O 0.55413 0.77828 0.24079 0.0
O162 O 0.48018 0.80174 0.22441 0.0
O163 O 0.57995 0.88183 0.32387 0.0
O164 O 0.54219 0.88595 0.28071 0.0
C165 C 0.51603 0.77695 0.22117 0.0
C166 C 0.55277 0.9045 0.30697 0.0
O167 O 0.61559 0.75832 0.30043 0.0
C168 C 0.12907 0.94626 0.01556 0.0
C169 C 0.1644 0.91729 1.00655 0.0
H170 H 0.13157 0.03085 0.03091 0.0
C171 C 0.23182 0.95322 1.0068 0.0
H172 H 0.07708 0.91994 0.01566 0.0
C173 C 0.26319 0.01703 0.01565 0.0
C174 C 0.22771 0.04612 0.02435 0.0
H175 H 0.2604 0.9322 1.00004 0.0
H176 H 0.31518 0.04366 0.01542 0.0
C177 C 0.16035 0.00993 0.02433 0.0
C178 C 0.26467 0.27433 0.3666 0.0
C179 C 0.21017 0.26253 0.3506 0.0
H180 H 0.34254 0.25569 0.3718 0.0
C181 C 0.19227 0.22092 0.32704 0.0
H182 H 0.27959 0.30594 0.38495 0.0
C183 C 0.22849 0.19236 0.31941 0.0
C184 C 0.28312 0.20432 0.33534 0.0
H185 H 0.15052 0.21077 0.31426 0.0
H186 H 0.21368 0.16099 0.30098 0.0
C187 C 0.3006 0.24531 0.35913 0.0
C188 C 0.96871 0.27465 0.70584 0.0
C189 C 0.92848 0.22526 0.68715 0.0
H190 H 0.06404 0.34962 0.71485 0.0
C191 C 0.95531 0.21443 0.66236 0.0
H192 H 0.94961 0.28418 0.72516 0.0
C193 C 0.02095 0.25211 0.6564 0.0
C194 C 0.06125 0.30119 0.6752 0.0
H195 H 0.92566 0.17679 0.64752 0.0
H196 H 0.0401 0.24253 0.63711 0.0
C197 C 0.03439 0.31206 0.69997 0.0
C198 C 0.66145 0.94917 0.01293 0.0
C199 C 0.69604 0.91913 0.02204 0.0
H200 H 0.6657 0.03591 0.99792 0.0
C201 C 0.76332 0.95555 0.0233 0.0
H202 H 0.60955 0.92244 0.01174 0.0
C203 C 0.7954 0.02036 0.0154 0.0
C204 C 0.76099 0.05038 1.00605 0.0
H205 H 0.79148 0.93397 0.03023 0.0
H206 H 0.84731 0.0468 0.0165 0.0
C207 C 0.69362 0.01417 1.005 0.0
C208 C 0.71543 0.74271 0.35606 0.0
C209 C 0.68021 0.73163 0.33043 0.0
H210 H 0.7708 0.71566 0.38303 0.0
C211 C 0.67446 0.68313 0.31195 0.0
H212 H 0.72079 0.77969 0.37077 0.0
C213 C 0.70345 0.64671 0.31889 0.0
C214 C 0.73856 0.65768 0.34454 0.0
H215 H 0.64781 0.67343 0.292 0.0
H216 H 0.69802 0.60972 0.30417 0.0
C217 C 0.74414 0.70602 0.36308 0.0
C218 C 0.96612 0.67714 0.65315 0.0
C219 C 0.92633 0.69433 0.66831 0.0
H220 H 0.06088 0.69132 0.64753 0.0
C221 C 0.9533 0.74065 0.68995 0.0
H222 H 0.94683 0.64176 0.63629 0.0
C223 C 0.01849 0.76881 0.69646 0.0
C224 C 0.05832 0.75166 0.68133 0.0
H225 H 0.92399 0.75498 0.70203 0.0
H226 H 0.03761 0.80408 0.71338 0.0
C227 C 0.03152 0.70572 0.65952 0.0
C228 C 0.68159 0.37547 0.99981 0.0
C229 C 0.67926 0.31723 0.99382 0.0
H230 H 0.63415 0.42204 0.01794 0.0
C231 C 0.62444 0.25944 1.00207 0.0
H232 H 0.72338 0.4209 0.99406 0.0
C233 C 0.57257 0.26009 0.01566 0.0
C234 C 0.57542 0.31858 0.02181 0.0
H235 H 0.62141 0.21384 0.9978 0.0
H236 H 0.53054 0.21497 0.02153 0.0
C237 C 0.63061 0.37615 0.01381 0.0
C238 C 0.32126 0.58123 0.3455 0.0
C239 C 0.26724 0.58586 0.35357 0.0
H240 H 0.41149 0.62505 0.32276 0.0
C241 C 0.26264 0.63905 0.34388 0.0
H242 H 0.32611 0.54076 0.35262 0.0
C243 C 0.31057 0.68633 0.32642 0.0
C244 C 0.36497 0.6823 0.31857 0.0
H245 H 0.22142 0.64385 0.34946 0.0
H246 H 0.30535 0.72667 0.31943 0.0
C247 C 0.37008 0.62943 0.32843 0.0
C248 C 0.59788 0.26568 0.69094 0.0
C249 C 0.65628 0.26917 0.6984 0.0
H250 H 0.55114 0.31029 0.66951 0.0
C251 C 0.71409 0.32314 0.68941 0.0
H252 H 0.55245 0.22455 0.69727 0.0
C253 C 0.71334 0.3729 0.67361 0.0
C254 C 0.65476 0.36897 0.66599 0.0
H255 H 0.75986 0.32717 0.69479 0.0
H256 H 0.75856 0.41415 0.66716 0.0
C257 C 0.59712 0.31468 0.67478 0.0
C258 C 0.29854 0.70763 0.99941 0.0
C259 C 0.2438 0.65052 0.99113 0.0
H260 H 0.39183 0.75053 0.01884 0.0
C261 C 0.2412 0.59178 0.99686 0.0
H262 H 0.30178 0.75361 0.99531 0.0
C263 C 0.29176 0.58997 0.01081 0.0
C264 C 0.34674 0.64692 0.01894 0.0
H265 H 0.19945 0.54689 0.99104 0.0
H266 H 0.28808 0.54377 0.01484 0.0
C267 C 0.34995 0.70589 0.01289 0.0
C268 C 0.56109 0.27201 0.3489 0.0
C269 C 0.5688 0.28136 0.31884 0.0
H270 H 0.60333 0.30581 0.39046 0.0
C271 C 0.62126 0.33738 0.3076 0.0
H272 H 0.52128 0.22866 0.35795 0.0
C273 C 0.66677 0.38243 0.32619 0.0
C274 C 0.6616 0.3707 0.35614 0.0
H275 H 0.62818 0.34516 0.28446 0.0
H276 H 0.7083 0.42414 0.31704 0.0
C277 C 0.60789 0.31584 0.36743 0.0
C278 C 0.26639 0.63632 0.65454 0.0
C279 C 0.27744 0.58923 0.66691 0.0
H280 H 0.25804 0.71968 0.66179 0.0
C281 C 0.2844 0.58733 0.69695 0.0
H282 H 0.2617 0.63887 0.63134 0.0
C283 C 0.28447 0.63459 0.71425 0.0
C284 C 0.27557 0.68312 0.7018 0.0
H285 H 0.29391 0.55176 0.70678 0.0
H286 H 0.29355 0.63445 0.73718 0.0
C287 C 0.26423 0.68228 0.67195 0.0
C288 C 0.47049 0.28087 0.15439 0.0
C289 C 0.41222 0.25175 0.13929 0.0
H290 H 0.52114 0.27919 0.1922 0.0
C291 C 0.35787 0.20014 0.15227 0.0
H292 H 0.51316 0.32063 0.14485 0.0
C293 C 0.36204 0.17781 0.17987 0.0
C294 C 0.42105 0.20557 0.19436 0.0
H295 H 0.31233 0.17718 0.1411 0.0
H296 H 0.31995 0.13726 0.18934 0.0
C297 C 0.47509 0.25734 0.18145 0.0
C298 C 0.18531 0.39068 0.49721 0.0
C299 C 0.19681 0.44654 0.48217 0.0
H300 H 0.19666 0.35051 0.537 0.0
C301 C 0.23005 0.50591 0.49591 0.0
H302 H 0.15901 0.34428 0.48715 0.0
C303 C 0.25248 0.50958 0.52406 0.0
C304 C 0.24011 0.45371 0.53931 0.0
H305 H 0.23914 0.54959 0.48478 0.0
H306 H 0.27901 0.55609 0.53402 0.0
C307 C 0.20599 0.39414 0.52576 0.0
C308 C 0.73681 0.2573 0.86284 0.0
C309 C 0.77645 0.23985 0.8781 0.0
H310 H 0.68389 0.24682 0.82401 0.0
C311 C 0.79578 0.19972 0.8651 0.0
H312 H 0.72157 0.28842 0.87249 0.0
C313 C 0.77634 0.17805 0.83697 0.0
C314 C 0.73564 0.19455 0.82196 0.0
H315 H 0.82692 0.18628 0.87644 0.0
H316 H 0.79173 0.14715 0.82722 0.0
C317 C 0.71556 0.23383 0.83519 0.0
C318 C 0.57339 0.75074 0.14942 0.0
C319 C 0.51498 0.70895 0.1361 0.0
H320 H 0.61945 0.80308 0.18768 0.0
C321 C 0.45725 0.68736 0.15145 0.0
H322 H 0.61848 0.76747 0.13803 0.0
C323 C 0.45771 0.70879 0.17939 0.0
C324 C 0.51605 0.75016 0.19281 0.0
H325 H 0.41165 0.655 0.14158 0.0
H326 H 0.41252 0.69308 0.19054 0.0
C327 C 0.57397 0.7704 0.17781 0.0
C328 C 0.76546 0.57021 0.52545 0.0
C329 C 0.71906 0.51494 0.5401 0.0
H330 H 0.81902 0.60948 0.4861 0.0
C331 C 0.69059 0.45588 0.52598 0.0
H332 H 0.78748 0.61639 0.53583 0.0
C333 C 0.70941 0.45177 0.49794 0.0
C334 C 0.75539 0.507 0.48317 0.0
H335 H 0.65454 0.41266 0.53684 0.0
H336 H 0.68795 0.4054 0.48774 0.0
C337 C 0.7828 0.56642 0.49698 0.0
C338 C 0.21333 0.79483 0.87473 0.0
C339 C 0.15297 0.73921 0.87669 0.0
H340 H 0.29021 0.85967 0.84686 0.0
C341 C 0.12093 0.70897 0.85119 0.0
H342 H 0.23914 0.81872 0.89407 0.0
C343 C 0.14935 0.73339 0.82416 0.0
C344 C 0.21109 0.7871 0.82233 0.0
H345 H 0.07424 0.66599 0.85219 0.0
H346 H 0.12433 0.70872 0.80481 0.0
C347 C 0.24258 0.81796 0.84779 0.0
C348 C 0.42985 0.5182 0.99595 0.0
C349 C 0.49696 0.54809 0.99778 0.0
H350 H 0.34111 0.42941 0.99982 0.0
C351 C 0.52684 0.51087 0.99631 0.0
H352 H 0.40601 0.54627 0.99689 0.0
C353 C 0.48969 0.44408 0.9968 0.0
C354 C 0.42272 0.41439 0.99966 0.0
H355 H 0.57854 0.53303 0.99804 0.0
H356 H 0.5136 0.41611 0.99829 0.0
C357 C 0.39272 0.45145 0.99738 0.0
C358 C 0.90077 0.4129 0.36093 0.0
C359 C 0.92903 0.47902 0.35555 0.0
H360 H 0.91678 0.33354 0.36691 0.0
C361 C -0.00742 0.51335 0.34544 0.0
H362 H 0.85156 0.38547 0.36847 0.0
C363 C 0.02984 0.48345 0.34443 0.0
C364 C 0.0033 0.41898 0.35306 0.0
H365 H 0.01535 0.56455 0.34144 0.0
H366 H 0.08079 0.51228 0.3399 0.0
C367 C 0.93774 0.383 0.35968 0.0
C368 C 0.52975 0.03957 0.68278 0.0
C369 C 0.56342 0.00972 0.69331 0.0
H370 H 0.43736 0.03256 0.67819 0.0
C371 C 0.52944 0.94528 0.70208 0.0
H372 H 0.55532 0.0899 0.67666 0.0
C373 C 0.46262 0.91301 0.70323 0.0
C374 C 0.42898 0.94487 0.69574 0.0
H375 H 0.55461 0.92188 0.71077 0.0
H376 H 0.43757 0.86478 0.71213 0.0
C377 C 0.4625 0.00702 0.68384 0.0
C378 C 0.5332 0.5746 0.66808 0.0
C379 C 0.56391 0.53911 0.67371 0.0
H380 H 0.44388 0.57082 0.65954 0.0
C381 C 0.52714 0.47408 0.68162 0.0
H382 H 0.56078 0.62451 0.66142 0.0
C383 C 0.46008 0.44313 0.68037 0.0
C384 C 0.4299 0.47714 0.67089 0.0
H385 H 0.55016 0.44568 0.6854 0.0
H386 H 0.43266 0.39159 0.68345 0.0
C387 C 0.46644 0.54372 0.66666 0.0
C388 C 0.92569 0.51661 0.01255 0.0
C389 C -0.00728 0.5524 0.01061 0.0
H390 H 0.84297 0.42275 0.01243 0.0
C391 C 0.02874 0.52108 0.01255 0.0
H392 H 0.89715 0.53998 0.01069 0.0
C393 C -0.00211 0.45421 0.01273 0.0
C394 C 0.93081 0.41838 0.01157 0.0
H395 H 0.08058 0.54805 0.01105 0.0
H396 H 0.02641 0.43087 0.01091 0.0
C397 C 0.89483 0.44972 0.01336 0.0
C398 C 0.46611 0.91982 0.32738 0.0
C399 C 0.52928 0.94662 0.3169 0.0
H400 H 0.38384 0.93214 0.332 0.0
C401 C 0.56192 0.01063 0.30743 0.0
H402 H 0.43967 0.86984 0.33405 0.0
C403 C 0.53002 0.04568 0.3059 0.0
C404 C 0.46496 0.01704 0.31366 0.0
H405 H 0.61028 0.0317 0.2988 0.0
H406 H 0.55512 0.09382 0.29691 0.0
C407 C 0.43415 0.9552 0.32601 0.0
loop_
_geom_bond_atom_site_label_1
_geom_bond_atom_site_label_2
_geom_bond_distance
_geom_bond_site_symmetry_2
_ccdc_geom_bond_type
Mg0 O1 2.028 . S
Mg0 O7 1.986 . S
Mg0 O9 2.114 . S
Mg0 O10 2.251 . S
Mg0 O13 2.010 . S
O1 Mg0 2.028 . S
O1 C4 1.250 . S
O2 Mg3 2.028 . S
O2 C4 1.248 . S
Mg3 O2 2.028 . S
Mg3 O8 2.032 . S
Mg3 O10 2.079 . S
C4 O1 1.250 . S
C4 O2 1.248 . S
C5 O6 1.264 . S
C5 O13 1.249 . S
O6 C5 1.264 . S
O7 Mg0 1.986 . S
O7 C11 1.246 . S
O8 Mg3 2.032 . S
O8 C11 1.259 . S
O9 Mg0 2.114 . S
O9 C12 1.252 . S
O10 Mg0 2.251 . S
O10 Mg3 2.079 . S
O10 C12 1.273 . S
C11 O7 1.246 . S
C11 O8 1.259 . S
C12 O9 1.252 . S
C12 O10 1.273 . S
O13 Mg0 2.010 . S
O13 C5 1.249 . S
Mg14 O15 2.028 . S
Mg14 O21 1.986 . S
Mg14 O23 2.114 . S
Mg14 O24 2.251 . S
Mg14 O27 2.010 . S
O15 Mg14 2.028 . S
O15 C18 1.250 . S
O16 Mg17 2.028 . S
O16 C18 1.248 . S
Mg17 O16 2.028 . S
Mg17 O22 2.032 . S
Mg17 O24 2.079 . S
C18 O15 1.250 . S
C18 O16 1.248 . S
C19 O20 1.264 . S
C19 O27 1.249 . S
O20 C19 1.264 . S
O21 Mg14 1.986 . S
O21 C25 1.246 . S
O22 Mg17 2.032 . S
O22 C25 1.259 . S
O23 Mg14 2.114 . S
O23 C26 1.252 . S
O24 Mg14 2.251 . S
O24 Mg17 2.079 . S
O24 C26 1.273 . S
C25 O21 1.246 . S
C25 O22 1.259 . S
C26 O23 1.252 . S
C26 O24 1.273 . S
O27 Mg14 2.010 . S
O27 C19 1.249 . S
Mg28 O29 2.028 . S
Mg28 O35 1.986 . S
Mg28 O37 2.114 . S
Mg28 O38 2.251 . S
Mg28 O41 2.010 . S
O29 Mg28 2.028 . S
O29 C32 1.250 . S
O30 Mg31 2.028 . S
O30 C32 1.248 . S
Mg31 O30 2.028 . S
Mg31 O36 2.032 . S
Mg31 O38 2.079 . S
C32 O29 1.250 . S
C32 O30 1.248 . S
C33 O34 1.264 . S
C33 O41 1.249 . S
O34 C33 1.264 . S
O35 Mg28 1.986 . S
O35 C39 1.246 . S
O36 Mg31 2.032 . S
O36 C39 1.259 . S
O37 Mg28 2.114 . S
O37 C40 1.252 . S
O38 Mg28 2.251 . S
O38 Mg31 2.079 . S
O38 C40 1.273 . S
C39 O35 1.246 . S
C39 O36 1.259 . S
C40 O37 1.252 . S
C40 O38 1.273 . S
O41 Mg28 2.010 . S
O41 C33 1.249 . S
Mg42 O43 2.028 . S
Mg42 O49 1.986 . S
Mg42 O51 2.114 . S
Mg42 O52 2.251 . S
Mg42 O55 2.010 . S
O43 Mg42 2.028 . S
O43 C46 1.250 . S
O44 Mg45 2.028 . S
O44 C46 1.248 . S
Mg45 O44 2.028 . S
Mg45 O50 2.032 . S
Mg45 O52 2.079 . S
C46 O43 1.250 . S
C46 O44 1.248 . S
C47 O48 1.264 . S
C47 O55 1.249 . S
O48 C47 1.264 . S
O49 Mg42 1.986 . S
O49 C53 1.246 . S
O50 Mg45 2.032 . S
O50 C53 1.259 . S
O51 Mg42 2.114 . S
O51 C54 1.252 . S
O52 Mg42 2.251 . S
O52 Mg45 2.079 . S
O52 C54 1.273 . S
C53 O49 1.246 . S
C53 O50 1.259 . S
C54 O51 1.252 . S
C54 O52 1.273 . S
O55 Mg42 2.010 . S
O55 C47 1.249 . S
Mg56 O57 2.028 . S
Mg56 O63 1.986 . S
Mg56 O65 2.114 . S
Mg56 O66 2.251 . S
Mg56 O69 2.010 . S
O57 Mg56 2.028 . S
O57 C60 1.250 . S
O58 Mg59 2.028 . S
O58 C60 1.248 . S
Mg59 O58 2.028 . S
Mg59 O64 2.032 . S
Mg59 O66 2.079 . S
C60 O57 1.250 . S
C60 O58 1.248 . S
C61 O62 1.264 . S
C61 O69 1.249 . S
O62 C61 1.264 . S
O63 Mg56 1.986 . S
O63 C67 1.246 . S
O64 Mg59 2.032 . S
O64 C67 1.259 . S
O65 Mg56 2.114 . S
O65 C68 1.252 . S
O66 Mg56 2.251 . S
O66 Mg59 2.079 . S
O66 C68 1.273 . S
C67 O63 1.246 . S
C67 O64 1.259 . S
C68 O65 1.252 . S
C68 O66 1.273 . S
O69 Mg56 2.010 . S
O69 C61 1.249 . S
Mg70 O71 2.028 . S
Mg70 O77 1.986 . S
Mg70 O79 2.114 . S
Mg70 O80 2.251 . S
Mg70 O83 2.010 . S
O71 Mg70 2.028 . S
O71 C74 1.250 . S
O72 Mg73 2.028 . S
O72 C74 1.248 . S
Mg73 O72 2.028 . S
Mg73 O78 2.032 . S
Mg73 O80 2.079 . S
C74 O71 1.250 . S
C74 O72 1.248 . S
C75 O76 1.264 . S
C75 O83 1.249 . S
O76 C75 1.264 . S
O77 Mg70 1.986 . S
O77 C81 1.246 . S
O78 Mg73 2.032 . S
O78 C81 1.259 . S
O79 Mg70 2.114 . S
O79 C82 1.252 . S
O80 Mg70 2.251 . S
O80 Mg73 2.079 . S
O80 C82 1.273 . S
C81 O77 1.246 . S
C81 O78 1.259 . S
C82 O79 1.252 . S
C82 O80 1.273 . S
O83 Mg70 2.010 . S
O83 C75 1.249 . S
Mg84 O85 2.028 . S
Mg84 O91 1.986 . S
Mg84 O93 2.114 . S
Mg84 O94 2.251 . S
Mg84 O97 2.010 . S
O85 Mg84 2.028 . S
O85 C88 1.250 . S
O86 Mg87 2.028 . S
O86 C88 1.248 . S
Mg87 O86 2.028 . S
Mg87 O92 2.032 . S
Mg87 O94 2.079 . S
C88 O85 1.250 . S
C88 O86 1.248 . S
C89 O90 1.264 . S
C89 O97 1.249 . S
O90 C89 1.264 . S
O91 Mg84 1.986 . S
O91 C95 1.246 . S
O92 Mg87 2.032 . S
O92 C95 1.259 . S
O93 Mg84 2.114 . S
O93 C96 1.252 . S
O94 Mg84 2.251 . S
O94 Mg87 2.079 . S
O94 C96 1.273 . S
C95 O91 1.246 . S
C95 O92 1.259 . S
C96 O93 1.252 . S
C96 O94 1.273 . S
O97 Mg84 2.010 . S
O97 C89 1.249 . S
Mg98 O99 2.028 . S
Mg98 O105 1.986 . S
Mg98 O107 2.114 . S
Mg98 O108 2.251 . S
Mg98 O111 2.010 . S
O99 Mg98 2.028 . S
O99 C102 1.250 . S
O100 Mg101 2.028 . S
O100 C102 1.248 . S
Mg101 O100 2.028 . S
Mg101 O106 2.032 . S
Mg101 O108 2.079 . S
C102 O99 1.250 . S
C102 O100 1.248 . S
C103 O104 1.264 . S
C103 O111 1.249 . S
O104 C103 1.264 . S
O105 Mg98 1.986 . S
O105 C109 1.246 . S
O106 Mg101 2.032 . S
O106 C109 1.259 . S
O107 Mg98 2.114 . S
O107 C110 1.252 . S
O108 Mg98 2.251 . S
O108 Mg101 2.079 . S
O108 C110 1.273 . S
C109 O105 1.246 . S
C109 O106 1.259 . S
C110 O107 1.252 . S
C110 O108 1.273 . S
O111 Mg98 2.010 . S
O111 C103 1.249 . S
Mg112 O113 2.028 . S
Mg112 O119 1.986 . S
Mg112 O121 2.114 . S
Mg112 O122 2.251 . S
Mg112 O125 2.010 . S
O113 Mg112 2.028 . S
O113 C116 1.250 . S
O114 Mg115 2.028 . S
O114 C116 1.248 . S
Mg115 O114 2.028 . S
Mg115 O120 2.032 . S
Mg115 O122 2.079 . S
C116 O113 1.250 . S
C116 O114 1.248 . S
C117 O118 1.264 . S
C117 O125 1.249 . S
O118 C117 1.264 . S
O119 Mg112 1.986 . S
O119 C123 1.246 . S
O120 Mg115 2.032 . S
O120 C123 1.259 . S
O121 Mg112 2.114 . S
O121 C124 1.252 . S
O122 Mg112 2.251 . S
O122 Mg115 2.079 . S
O122 C124 1.273 . S
C123 O119 1.246 . S
C123 O120 1.259 . S
C124 O121 1.252 . S
C124 O122 1.273 . S
O125 Mg112 2.010 . S
O125 C117 1.249 . S
Mg126 O127 2.028 . S
Mg126 O133 1.986 . S
Mg126 O135 2.114 . S
Mg126 O136 2.251 . S
Mg126 O139 2.010 . S
O127 Mg126 2.028 . S
O127 C130 1.250 . S
O128 Mg129 2.028 . S
O128 C130 1.248 . S
Mg129 O128 2.028 . S
Mg129 O134 2.032 . S
Mg129 O136 2.079 . S
C130 O127 1.250 . S
C130 O128 1.248 . S
C131 O132 1.264 . S
C131 O139 1.249 . S
O132 C131 1.264 . S
O133 Mg126 1.986 . S
O133 C137 1.246 . S
O134 Mg129 2.032 . S
O134 C137 1.259 . S
O135 Mg126 2.114 . S
O135 C138 1.252 . S
O136 Mg126 2.251 . S
O136 Mg129 2.079 . S
O136 C138 1.273 . S
C137 O133 1.246 . S
C137 O134 1.259 . S
C138 O135 1.252 . S
C138 O136 1.273 . S
O139 Mg126 2.010 . S
O139 C131 1.249 . S
Mg140 O141 2.028 . S
Mg140 O147 1.986 . S
Mg140 O149 2.114 . S
Mg140 O150 2.251 . S
Mg140 O153 2.010 . S
O141 Mg140 2.028 . S
O141 C144 1.250 . S
O142 Mg143 2.028 . S
O142 C144 1.248 . S
Mg143 O142 2.028 . S
Mg143 O148 2.032 . S
Mg143 O150 2.079 . S
C144 O141 1.250 . S
C144 O142 1.248 . S
C145 O146 1.264 . S
C145 O153 1.249 . S
O146 C145 1.264 . S
O147 Mg140 1.986 . S
O147 C151 1.246 . S
O148 Mg143 2.032 . S
O148 C151 1.259 . S
O149 Mg140 2.114 . S
O149 C152 1.252 . S
O150 Mg140 2.251 . S
O150 Mg143 2.079 . S
O150 C152 1.273 . S
C151 O147 1.246 . S
C151 O148 1.259 . S
C152 O149 1.252 . S
C152 O150 1.273 . S
O153 Mg140 2.010 . S
O153 C145 1.249 . S
Mg154 O155 2.028 . S
Mg154 O161 1.986 . S
Mg154 O163 2.114 . S
Mg154 O164 2.251 . S
Mg154 O167 2.010 . S
O155 Mg154 2.028 . S
O155 C158 1.250 . S
O156 Mg157 2.028 . S
O156 C158 1.248 . S
Mg157 O156 2.028 . S
Mg157 O162 2.032 . S
Mg157 O164 2.079 . S
C158 O155 1.250 . S
C158 O156 1.248 . S
C159 O160 1.264 . S
C159 O167 1.249 . S
O160 C159 1.264 . S
O161 Mg154 1.986 . S
O161 C165 1.246 . S
O162 Mg157 2.032 . S
O162 C165 1.259 . S
O163 Mg154 2.114 . S
O163 C166 1.252 . S
O164 Mg154 2.251 . S
O164 Mg157 2.079 . S
O164 C166 1.273 . S
C165 O161 1.246 . S
C165 O162 1.259 . S
C166 O163 1.252 . S
C166 O164 1.273 . S
O167 Mg154 2.010 . S
O167 C159 1.249 . S
C168 C169 1.387 . S
C168 H172 0.950 . S
C168 C177 1.390 1_566 S
C169 C168 1.387 . S
C169 C171 1.387 . S
H170 C177 0.950 . S
C171 C169 1.387 . S
C171 C173 1.390 1_566 S
C171 H175 0.950 . S
H172 C168 0.950 . S
C173 C171 1.390 1_544 S
C173 C174 1.387 . S
C173 H176 0.950 . S
C174 C173 1.387 . S
C174 C177 1.387 . S
H175 C171 0.950 . S
H176 C173 0.950 . S
C177 C168 1.390 1_544 S
C177 H170 0.950 . S
C177 C174 1.387 . S
C178 C179 1.387 . S
C178 H182 0.950 . S
C178 C187 1.390 . S
C179 C178 1.387 . S
C179 C181 1.387 . S
H180 C187 0.950 . S
C181 C179 1.387 . S
C181 C183 1.390 . S
C181 H185 0.950 . S
H182 C178 0.950 . S
C183 C181 1.390 . S
C183 C184 1.387 . S
C183 H186 0.950 . S
C184 C183 1.387 . S
C184 C187 1.387 . S
H185 C181 0.950 . S
H186 C183 0.950 . S
C187 C178 1.390 . S
C187 H180 0.950 . S
C187 C184 1.387 . S
C188 C189 1.387 . S
C188 H192 0.950 . S
C188 C197 1.390 1_655 S
C189 C188 1.387 . S
C189 C191 1.387 . S
H190 C197 0.950 . S
C191 C189 1.387 . S
C191 C193 1.390 1_655 S
C191 H195 0.950 . S
H192 C188 0.950 . S
C193 C191 1.390 1_455 S
C193 C194 1.387 . S
C193 H196 0.950 . S
C194 C193 1.387 . S
C194 C197 1.387 . S
H195 C191 0.950 . S
H196 C193 0.950 . S
C197 C188 1.390 1_455 S
C197 H190 0.950 . S
C197 C194 1.387 . S
C198 C199 1.387 . S
C198 H202 0.950 . S
C198 C207 1.390 1_564 S
C199 C198 1.387 . S
C199 C201 1.387 . S
H200 C207 0.950 . S
C201 C199 1.387 . S
C201 C203 1.390 1_564 S
C201 H205 0.950 . S
H202 C198 0.950 . S
C203 C201 1.390 1_546 S
C203 C204 1.387 . S
C203 H206 0.950 . S
C204 C203 1.387 . S
C204 C207 1.387 . S
H205 C201 0.950 . S
H206 C203 0.950 . S
C207 C198 1.390 1_546 S
C207 H200 0.950 . S
C207 C204 1.387 . S
C208 C209 1.387 . S
C208 H212 0.950 . S
C208 C217 1.390 . S
C209 C208 1.387 . S
C209 C211 1.387 . S
H210 C217 0.950 . S
C211 C209 1.387 . S
C211 C213 1.390 . S
C211 H215 0.950 . S
H212 C208 0.950 . S
C213 C211 1.390 . S
C213 C214 1.387 . S
C213 H216 0.950 . S
C214 C213 1.387 . S
C214 C217 1.387 . S
H215 C211 0.950 . S
H216 C213 0.950 . S
C217 C208 1.390 . S
C217 H210 0.950 . S
C217 C214 1.387 . S
C218 C219 1.387 . S
C218 H222 0.950 . S
C218 C227 1.390 1_655 S
C219 C218 1.387 . S
C219 C221 1.387 . S
H220 C227 0.950 . S
C221 C219 1.387 . S
C221 C223 1.390 1_655 S
C221 H225 0.950 . S
H222 C218 0.950 . S
C223 C221 1.390 1_455 S
C223 C224 1.387 . S
C223 H226 0.950 . S
C224 C223 1.387 . S
C224 C227 1.387 . S
H225 C221 0.950 . S
H226 C223 0.950 . S
C227 C218 1.390 1_455 S
C227 H220 0.950 . S
C227 C224 1.387 . S
C228 C229 1.387 . S
C228 H232 0.950 . S
C228 C237 1.390 1_556 S
C229 C228 1.387 . S
C229 C231 1.387 . S
H230 C237 0.950 . S
C231 C229 1.387 . S
C231 C233 1.390 1_556 S
C231 H235 0.950 . S
H232 C228 0.950 . S
C233 C231 1.390 1_554 S
C233 C234 1.387 . S
C233 H236 0.950 . S
C234 C233 1.387 . S
C234 C237 1.387 . S
H235 C231 0.950 . S
H236 C233 0.950 . S
C237 C228 1.390 1_554 S
C237 H230 0.950 . S
C237 C234 1.387 . S
C238 C239 1.387 . S
C238 H242 0.950 . S
C238 C247 1.390 . S
C239 C238 1.387 . S
C239 C241 1.387 . S
H240 C247 0.950 . S
C241 C239 1.387 . S
C241 C243 1.390 . S
C241 H245 0.950 . S
H242 C238 0.950 . S
C243 C241 1.390 . S
C243 C244 1.387 . S
C243 H246 0.950 . S
C244 C243 1.387 . S
C244 C247 1.387 . S
H245 C241 0.950 . S
H246 C243 0.950 . S
C247 C238 1.390 . S
C247 H240 0.950 . S
C247 C244 1.387 . S
C248 C249 1.387 . S
C248 H252 0.950 . S
C248 C257 1.390 . S
C249 C248 1.387 . S
C249 C251 1.387 . S
H250 C257 0.950 . S
C251 C249 1.387 . S
C251 C253 1.390 . S
C251 H255 0.950 . S
H252 C248 0.950 . S
C253 C251 1.390 . S
C253 C254 1.387 . S
C253 H256 0.950 . S
C254 C253 1.387 . S
C254 C257 1.387 . S
H255 C251 0.950 . S
H256 C253 0.950 . S
C257 C248 1.390 . S
C257 H250 0.950 . S
C257 C254 1.387 . S
C258 C259 1.387 . S
C258 H262 0.950 . S
C258 C267 1.390 1_556 S
C259 C258 1.387 . S
C259 C261 1.387 . S
H260 C267 0.950 . S
C261 C259 1.387 . S
C261 C263 1.390 1_556 S
C261 H265 0.950 . S
H262 C258 0.950 . S
C263 C261 1.390 1_554 S
C263 C264 1.387 . S
C263 H266 0.950 . S
C264 C263 1.387 . S
C264 C267 1.387 . S
H265 C261 0.950 . S
H266 C263 0.950 . S
C267 C258 1.390 1_554 S
C267 H260 0.950 . S
C267 C264 1.387 . S
C268 C269 1.387 . S
C268 H272 0.950 . S
C268 C277 1.390 . S
C269 C268 1.387 . S
C269 C271 1.387 . S
H270 C277 0.950 . S
C271 C269 1.387 . S
C271 C273 1.390 . S
C271 H275 0.950 . S
H272 C268 0.950 . S
C273 C271 1.390 . S
C273 C274 1.387 . S
C273 H276 0.950 . S
C274 C273 1.387 . S
C274 C277 1.387 . S
H275 C271 0.950 . S
H276 C273 0.950 . S
C277 C268 1.390 . S
C277 H270 0.950 . S
C277 C274 1.387 . S
C278 C279 1.387 . S
C278 H282 0.950 . S
C278 C287 1.390 . S
C279 C278 1.387 . S
C279 C281 1.387 . S
H280 C287 0.950 . S
C281 C279 1.387 . S
C281 C283 1.390 . S
C281 H285 0.950 . S
H282 C278 0.950 . S
C283 C281 1.390 . S
C283 C284 1.387 . S
C283 H286 0.950 . S
C284 C283 1.387 . S
C284 C287 1.387 . S
H285 C281 0.950 . S
H286 C283 0.950 . S
C287 C278 1.390 . S
C287 H280 0.950 . S
C287 C284 1.387 . S
C288 C289 1.387 . S
C288 H292 0.950 . S
C288 C297 1.390 . S
C289 C288 1.387 . S
C289 C291 1.387 . S
H290 C297 0.950 . S
C291 C289 1.387 . S
C291 C293 1.390 . S
C291 H295 0.950 . S
H292 C288 0.950 . S
C293 C291 1.390 . S
C293 C294 1.387 . S
C293 H296 0.950 . S
C294 C293 1.387 . S
C294 C297 1.387 . S
H295 C291 0.950 . S
H296 C293 0.950 . S
C297 C288 1.390 . S
C297 H290 0.950 . S
C297 C294 1.387 . S
C298 C299 1.387 . S
C298 H302 0.950 . S
C298 C307 1.390 . S
C299 C298 1.387 . S
C299 C301 1.387 . S
H300 C307 0.950 . S
C301 C299 1.387 . S
C301 C303 1.390 . S
C301 H305 0.950 . S
H302 C298 0.950 . S
C303 C301 1.390 . S
C303 C304 1.387 . S
C303 H306 0.950 . S
C304 C303 1.387 . S
C304 C307 1.387 . S
H305 C301 0.950 . S
H306 C303 0.950 . S
C307 C298 1.390 . S
C307 H300 0.950 . S
C307 C304 1.387 . S
C308 C309 1.387 . S
C308 H312 0.950 . S
C308 C317 1.390 . S
C309 C308 1.387 . S
C309 C311 1.387 . S
H310 C317 0.950 . S
C311 C309 1.387 . S
C311 C313 1.390 . S
C311 H315 0.950 . S
H312 C308 0.950 . S
C313 C311 1.390 . S
C313 C314 1.387 . S
C313 H316 0.950 . S
C314 C313 1.387 . S
C314 C317 1.387 . S
H315 C311 0.950 . S
H316 C313 0.950 . S
C317 C308 1.390 . S
C317 H310 0.950 . S
C317 C314 1.387 . S
C318 C319 1.387 . S
C318 H322 0.950 . S
C318 C327 1.390 . S
C319 C318 1.387 . S
C319 C321 1.387 . S
H320 C327 0.950 . S
C321 C319 1.387 . S
C321 C323 1.390 . S
C321 H325 0.950 . S
H322 C318 0.950 . S
C323 C321 1.390 . S
C323 C324 1.387 . S
C323 H326 0.950 . S
C324 C323 1.387 . S
C324 C327 1.387 . S
H325 C321 0.950 . S
H326 C323 0.950 . S
C327 C318 1.390 . S
C327 H320 0.950 . S
C327 C324 1.387 . S
C328 C329 1.387 . S
C328 H332 0.950 . S
C328 C337 1.390 . S
C329 C328 1.387 . S
C329 C331 1.387 . S
H330 C337 0.950 . S
C331 C329 1.387 . S
C331 C333 1.390 . S
C331 H335 0.950 . S
H332 C328 0.950 . S
C333 C331 1.390 . S
C333 C334 1.387 . S
C333 H336 0.950 . S
C334 C333 1.387 . S
C334 C337 1.387 . S
H335 C331 0.950 . S
H336 C333 0.950 . S
C337 C328 1.390 . S
C337 H330 0.950 . S
C337 C334 1.387 . S
C338 C339 1.387 . S
C338 H342 0.950 . S
C338 C347 1.390 . S
C339 C338 1.387 . S
C339 C341 1.387 . S
H340 C347 0.950 . S
C341 C339 1.387 . S
C341 C343 1.390 . S
C341 H345 0.950 . S
H342 C338 0.950 . S
C343 C341 1.390 . S
C343 C344 1.387 . S
C343 H346 0.950 . S
C344 C343 1.387 . S
C344 C347 1.387 . S
H345 C341 0.950 . S
H346 C343 0.950 . S
C347 C338 1.390 . S
C347 H340 0.950 . S
C347 C344 1.387 . S
C348 C349 1.387 . S
C348 H352 0.950 . S
C348 C357 1.390 . S
C349 C348 1.387 . S
C349 C351 1.387 . S
H350 C357 0.950 . S
C351 C349 1.387 . S
C351 C353 1.390 . S
C351 H355 0.950 1_554 S
H352 C348 0.950 . S
C353 C351 1.390 . S
C353 C354 1.387 . S
C353 H356 0.950 1_554 S
C354 C353 1.387 . S
C354 C357 1.387 . S
H355 C351 0.950 1_556 S
H356 C353 0.950 1_556 S
C357 C348 1.390 . S
C357 H350 0.950 . S
C357 C354 1.387 . S
C358 C359 1.387 . S
C358 H362 0.950 . S
C358 C367 1.390 1_655 S
C359 C358 1.387 . S
C359 C361 1.387 . S
H360 C367 0.950 . S
C361 C359 1.387 . S
C361 C363 1.390 1_655 S
C361 H365 0.950 . S
H362 C358 0.950 . S
C363 C361 1.390 1_455 S
C363 C364 1.387 . S
C363 H366 0.950 . S
C364 C363 1.387 . S
C364 C367 1.387 . S
H365 C361 0.950 . S
H366 C363 0.950 . S
C367 C358 1.390 1_455 S
C367 H360 0.950 . S
C367 C364 1.387 . S
C368 C369 1.387 . S
C368 H372 0.950 . S
C368 C377 1.390 1_545 S
C369 C368 1.387 . S
C369 C371 1.387 . S
H370 C377 0.950 . S
C371 C369 1.387 . S
C371 C373 1.390 1_545 S
C371 H375 0.950 . S
H372 C368 0.950 . S
C373 C371 1.390 1_565 S
C373 C374 1.387 . S
C373 H376 0.950 . S
C374 C373 1.387 . S
C374 C377 1.387 . S
H375 C371 0.950 . S
H376 C373 0.950 . S
C377 C368 1.390 1_565 S
C377 H370 0.950 . S
C377 C374 1.387 . S
C378 C379 1.387 . S
C378 H382 0.950 . S
C378 C387 1.390 . S
C379 C378 1.387 . S
C379 C381 1.387 . S
H380 C387 0.950 . S
C381 C379 1.387 . S
C381 C383 1.390 . S
C381 H385 0.950 . S
H382 C378 0.950 . S
C383 C381 1.390 . S
C383 C384 1.387 . S
C383 H386 0.950 . S
C384 C383 1.387 . S
C384 C387 1.387 . S
H385 C381 0.950 . S
H386 C383 0.950 . S
C387 C378 1.390 . S
C387 H380 0.950 . S
C387 C384 1.387 . S
C388 C389 1.387 . S
C388 H392 0.950 . S
C388 C397 1.390 1_455 S
C389 C388 1.387 . S
C389 C391 1.387 . S
H390 C397 0.950 . S
C391 C389 1.387 . S
C391 C393 1.390 1_455 S
C391 H395 0.950 1_556 S
H392 C388 0.950 . S
C393 C391 1.390 1_655 S
C393 C394 1.387 . S
C393 H396 0.950 1_556 S
C394 C393 1.387 . S
C394 C397 1.387 . S
H395 C391 0.950 1_554 S
H396 C393 0.950 1_554 S
C397 C388 1.390 1_655 S
C397 H390 0.950 . S
C397 C394 1.387 . S
C398 C399 1.387 . S
C398 H402 0.950 . S
C398 C407 1.390 1_565 S
C399 C398 1.387 . S
C399 C401 1.387 . S
H400 C407 0.950 . S
C401 C399 1.387 . S
C401 C403 1.390 1_565 S
C401 H405 0.950 . S
H402 C398 0.950 . S
C403 C401 1.390 1_545 S
C403 C404 1.387 . S
C403 H406 0.950 . S
C404 C403 1.387 . S
C404 C407 1.387 . S
H405 C401 0.950 . S
H406 C403 0.950 . S
C407 C398 1.390 1_545 S
C407 H400 0.950 . S
C407 C404 1.387 . S
C169 C103 1.255 . S
C174 C5 1.255 . S
C179 C19 1.259 . S
C184 C117 1.255 . S
C189 C33 1.260 . S
C194 C131 1.255 . S
C199 C47 1.259 . S
C204 C145 1.259 . S
C209 C159 1.254 . S
C214 C61 1.259 . S
C219 C89 1.259 . S
C224 C75 1.255 . S
C229 C144 1.368 . S
C234 C4 1.368 . S
C239 C18 1.367 . S
C244 C158 1.367 . S
C249 C32 1.368 . S
C254 C88 1.367 . S
C259 C102 1.367 . S
C264 C46 1.367 . S
C269 C116 1.368 . S
C274 C60 1.367 . S
C279 C130 1.367 . S
C284 C74 1.368 . S
C289 C11 1.552 . S
C294 C123 1.553 . S
C299 C25 1.552 . S
C304 C137 1.552 . S
C309 C151 1.552 . S
C314 C39 1.553 . S
C319 C53 1.552 . S
C324 C165 1.552 . S
C329 C95 1.552 . S
C334 C67 1.552 . S
C339 C109 1.553 . S
C344 C81 1.551 . S
C349 C54 1.338 . S
C354 C12 1.338 . S
C359 C68 1.334 . S
C364 C26 1.334 . S
C369 C40 1.335 . S
C374 C82 1.335 . S
C379 C96 1.338 . S
C384 C138 1.338 . S
C389 C110 1.338 . S
C394 C152 1.338 . S
C399 C166 1.334 . S
C404 C124 1.334 . S
