# Generated by pormake.
# Topology wiu, (6)-cn, num edge types: 1
# Building blocks:
#     Node 0, Type 0, BuildingBlock: JUFBIX_clean_sbu_0, # of connection points: 6
#     Node 1, Type 0, BuildingBlock: JUFBIX_clean_sbu_0, # of connection points: 6
#     Node 2, Type 0, BuildingBlock: JUFBIX_clean_sbu_0, # of connection points: 6
#     Node 3, Type 0, BuildingBlock: JUFBIX_clean_sbu_0, # of connection points: 6
#     Node 4, Type 0, BuildingBlock: JUFBIX_clean_sbu_0, # of connection points: 6
#     Node 5, Type 0, BuildingBlock: JUFBIX_clean_sbu_0, # of connection points: 6
#     Node 6, Type 0, BuildingBlock: JUFBIX_clean_sbu_0, # of connection points: 6
#     Node 7, Type 0, BuildingBlock: JUFBIX_clean_sbu_0, # of connection points: 6
#     Node 8, Type 0, BuildingBlock: JUFBIX_clean_sbu_0, # of connection points: 6
#     Node 9, Type 0, BuildingBlock: JUFBIX_clean_sbu_0, # of connection points: 6
#     Node 10, Type 0, BuildingBlock: JUFBIX_clean_sbu_0, # of connection points: 6
#     Node 11, Type 0, BuildingBlock: JUFBIX_clean_sbu_0, # of connection points: 6
#     Node 12, Type 0, BuildingBlock: JUFBIX_clean_sbu_0, # of connection points: 6
#     Node 13, Type 0, BuildingBlock: JUFBIX_clean_sbu_0, # of connection points: 6
#     Node 14, Type 0, BuildingBlock: JUFBIX_clean_sbu_0, # of connection points: 6
#     Node 15, Type 0, BuildingBlock: JUFBIX_clean_sbu_0, # of connection points: 6
#     Edge 16, Type (0, 0), BuildingBlock: AJUNOK_clean_linker_0, # of connection points: 2
#     Edge 17, Type (0, 0), BuildingBlock: AJUNOK_clean_linker_0, # of connection points: 2
#     Edge 18, Type (0, 0), BuildingBlock: AJUNOK_clean_linker_0, # of connection points: 2
#     Edge 19, Type (0, 0), BuildingBlock: AJUNOK_clean_linker_0, # of connection points: 2
#     Edge 20, Type (0, 0), BuildingBlock: AJUNOK_clean_linker_0, # of connection points: 2
#     Edge 21, Type (0, 0), BuildingBlock: AJUNOK_clean_linker_0, # of connection points: 2
#     Edge 22, Type (0, 0), BuildingBlock: AJUNOK_clean_linker_0, # of connection points: 2
#     Edge 23, Type (0, 0), BuildingBlock: AJUNOK_clean_linker_0, # of connection points: 2
#     Edge 24, Type (0, 0), BuildingBlock: AJUNOK_clean_linker_0, # of connection points: 2
#     Edge 25, Type (0, 0), BuildingBlock: AJUNOK_clean_linker_0, # of connection points: 2
#     Edge 26, Type (0, 0), BuildingBlock: AJUNOK_clean_linker_0, # of connection points: 2
#     Edge 27, Type (0, 0), BuildingBlock: AJUNOK_clean_linker_0, # of connection points: 2
#     Edge 28, Type (0, 0), BuildingBlock: AJUNOK_clean_linker_0, # of connection points: 2
#     Edge 29, Type (0, 0), BuildingBlock: AJUNOK_clean_linker_0, # of connection points: 2
#     Edge 30, Type (0, 0), BuildingBlock: AJUNOK_clean_linker_0, # of connection points: 2
#     Edge 31, Type (0, 0), BuildingBlock: AJUNOK_clean_linker_0, # of connection points: 2
#     Edge 32, Type (0, 0), BuildingBlock: AJUNOK_clean_linker_0, # of connection points: 2
#     Edge 33, Type (0, 0), BuildingBlock: AJUNOK_clean_linker_0, # of connection points: 2
#     Edge 34, Type (0, 0), BuildingBlock: AJUNOK_clean_linker_0, # of connection points: 2
#     Edge 35, Type (0, 0), BuildingBlock: AJUNOK_clean_linker_0, # of connection points: 2
#     Edge 36, Type (0, 0), BuildingBlock: AJUNOK_clean_linker_0, # of connection points: 2
#     Edge 37, Type (0, 0), BuildingBlock: AJUNOK_clean_linker_0, # of connection points: 2
#     Edge 38, Type (0, 0), BuildingBlock: AJUNOK_clean_linker_0, # of connection points: 2
#     Edge 39, Type (0, 0), BuildingBlock: AJUNOK_clean_linker_0, # of connection points: 2
#     Edge 40, Type (0, 0), BuildingBlock: AJUNOK_clean_linker_0, # of connection points: 2
#     Edge 41, Type (0, 0), BuildingBlock: AJUNOK_clean_linker_0, # of connection points: 2
#     Edge 42, Type (0, 0), BuildingBlock: AJUNOK_clean_linker_0, # of connection points: 2
#     Edge 43, Type (0, 0), BuildingBlock: AJUNOK_clean_linker_0, # of connection points: 2
#     Edge 44, Type (0, 0), BuildingBlock: AJUNOK_clean_linker_0, # of connection points: 2
#     Edge 45, Type (0, 0), BuildingBlock: AJUNOK_clean_linker_0, # of connection points: 2
#     Edge 46, Type (0, 0), BuildingBlock: AJUNOK_clean_linker_0, # of connection points: 2
#     Edge 47, Type (0, 0), BuildingBlock: AJUNOK_clean_linker_0, # of connection points: 2
#     Edge 48, Type (0, 0), BuildingBlock: AJUNOK_clean_linker_0, # of connection points: 2
#     Edge 49, Type (0, 0), BuildingBlock: AJUNOK_clean_linker_0, # of connection points: 2
#     Edge 50, Type (0, 0), BuildingBlock: AJUNOK_clean_linker_0, # of connection points: 2
#     Edge 51, Type (0, 0), BuildingBlock: AJUNOK_clean_linker_0, # of connection points: 2
#     Edge 52, Type (0, 0), BuildingBlock: AJUNOK_clean_linker_0, # of connection points: 2
#     Edge 53, Type (0, 0), BuildingBlock: AJUNOK_clean_linker_0, # of connection points: 2
#     Edge 54, Type (0, 0), BuildingBlock: AJUNOK_clean_linker_0, # of connection points: 2
#     Edge 55, Type (0, 0), BuildingBlock: AJUNOK_clean_linker_0, # of connection points: 2
#     Edge 56, Type (0, 0), BuildingBlock: AJUNOK_clean_linker_0, # of connection points: 2
#     Edge 57, Type (0, 0), BuildingBlock: AJUNOK_clean_linker_0, # of connection points: 2
#     Edge 58, Type (0, 0), BuildingBlock: AJUNOK_clean_linker_0, # of connection points: 2
#     Edge 59, Type (0, 0), BuildingBlock: AJUNOK_clean_linker_0, # of connection points: 2
#     Edge 60, Type (0, 0), BuildingBlock: AJUNOK_clean_linker_0, # of connection points: 2
#     Edge 61, Type (0, 0), BuildingBlock: AJUNOK_clean_linker_0, # of connection points: 2
#     Edge 62, Type (0, 0), BuildingBlock: AJUNOK_clean_linker_0, # of connection points: 2
#     Edge 63, Type (0, 0), BuildingBlock: AJUNOK_clean_linker_0, # of connection points: 2
# Relax obj value: 0.399
# Max RMSD: 0.267
# Mean RMSD: 0.252
data_MOF--net-wiu--node1-JUFBIX_clean_sbu_0--edge1-AJUNOK_clean_linker_0
_symmetry_space_group_name_H-M    P1
_symmetry_Int_Tables_number       1
_symmetry_cell_setting            triclinic
loop_
_symmetry_equiv_pos_as_xyz
'x, y, z'
_cell_length_a     20.776876
_cell_length_b     21.452365
_cell_length_c     51.309081
_cell_angle_alpha  98.319943
_cell_angle_beta   81.248803
_cell_angle_gamma 97.469855
loop_
_atom_site_label
_atom_site_type_symbol
_atom_site_fract_x
_atom_site_fract_y
_atom_site_fract_z
_atom_type_partial_charge
Co0 Co 0.33335 0.18515 0.08095 0.0
C1 C 0.27513 0.11691 0.12097 0.0
Co2 Co 0.41594 0.18318 0.12046 0.0
C3 C 0.28421 0.2062 0.03403 0.0
C4 C 0.20964 0.197 0.06738 0.0
N5 N 0.27365 0.19112 0.05896 0.0
N6 N 0.22964 0.22255 1.02683 0.0
C7 C 0.18225 0.21575 0.04753 0.0
H8 H 0.33176 0.209 1.02197 0.0
H9 H 0.18522 0.19154 0.08723 0.0
C10 C 0.4375 0.24399 0.07637 0.0
N11 N 0.43832 0.1585 0.14902 0.0
C12 C 0.44206 0.1023 0.15693 0.0
C13 C 0.47433 0.20172 0.16409 0.0
N14 N 0.47985 0.10936 0.1765 0.0
C15 C 0.49989 0.17169 0.18107 0.0
C16 C 0.43275 0.09353 0.06957 0.0
O17 O 0.39794 0.24777 0.06081 0.0
O18 O 0.41186 0.21468 0.09492 0.0
O19 O 0.44261 0.10802 0.09452 0.0
O20 O 0.38458 0.11461 0.06039 0.0
O21 O 0.32808 0.13764 0.1304 0.0
H22 H 0.48326 0.25171 0.16205 0.0
H23 H 0.41812 0.05759 0.1486 0.0
O24 O 0.27096 0.12682 0.09778 0.0
O25 O 0.30378 0.25775 0.10889 0.0
O26 O 0.37462 0.25645 0.13937 0.0
C27 C 0.32796 0.2809 0.13104 0.0
H28 H 0.1318 0.22458 0.04839 0.0
H29 H 0.52832 0.19416 0.19659 0.0
Co30 Co 0.63959 0.59135 0.32219 0.0
C31 C 0.70549 0.56494 0.36305 0.0
Co32 Co 0.64299 0.66787 0.35563 0.0
C33 C 0.6544 0.53545 0.26753 0.0
C34 C 0.62474 0.46515 0.29391 0.0
N35 N 0.64033 0.528 0.29355 0.0
N36 N 0.64788 0.47982 0.25156 0.0
C37 C 0.62961 0.43539 0.26814 0.0
H38 H 0.67033 0.58086 0.26051 0.0
H39 H 0.61067 0.44247 0.31175 0.0
C40 C 0.5737 0.68664 0.31665 0.0
N41 N 0.64239 0.73171 0.38422 0.0
C42 C 0.63288 0.7197 0.40957 0.0
C43 C 0.66781 0.79312 0.38538 0.0
N44 N 0.65547 0.76885 0.42629 0.0
C45 C 0.67706 0.81582 0.41132 0.0
C46 C 0.73689 0.6989 0.31323 0.0
O47 O 0.58576 0.63192 0.30616 0.0
O48 O 0.59304 0.71077 0.33863 0.0
O49 O 0.71944 0.71348 0.33797 0.0
O50 O 0.71543 0.6432 0.30292 0.0
O51 O 0.693 0.62075 0.37295 0.0
H52 H 0.68457 0.81781 0.36827 0.0
H53 H 0.61645 0.67349 0.41538 0.0
O54 O 0.69408 0.54556 0.3393 0.0
O55 O 0.56061 0.54662 0.34111 0.0
O56 O 0.56463 0.62591 0.373 0.0
C57 C 0.53547 0.57374 0.36356 0.0
H58 H 0.6203 0.38494 0.26208 0.0
H59 H 0.70363 0.86062 0.41806 0.0
Co60 Co 0.27708 0.87521 0.60003 0.0
C61 C 0.1679 0.86516 0.5787 0.0
Co62 Co 0.25775 0.97073 0.59125 0.0
C63 C 0.29465 0.78012 0.63434 0.0
C64 C 0.31189 0.7474 0.59275 0.0
N65 N 0.29811 0.79928 0.60994 0.0
N66 N 0.3053 0.71846 0.63282 0.0
C67 C 0.31644 0.69829 0.6066 0.0
H68 H 0.28157 0.80986 0.65281 0.0
H69 H 0.31601 0.74432 0.57136 0.0
C70 C 0.36931 0.98217 0.61427 0.0
N71 N 0.22235 1.03863 0.57843 0.0
C72 C 0.19077 1.02825 0.5562 0.0
C73 C 0.19528 0.08857 0.59294 0.0
N74 N 0.14319 0.06692 0.55692 0.0
C75 C 0.14742 0.1057 0.57999 0.0
C76 C 0.20391 0.94472 0.64149 0.0
O77 O 0.35138 0.92262 0.61339 0.0
O78 O 0.33674 1.01732 0.60388 0.0
O79 O 0.21152 0.98778 0.6262 0.0
O80 O 0.22751 0.89249 0.63349 0.0
O81 O 0.1843 0.92371 0.58047 0.0
H82 H 0.20356 0.10644 0.61312 0.0
H83 H 0.19587 0.98681 0.54157 0.0
O84 O 0.20297 0.82975 0.58667 0.0
O85 O 0.32521 0.85951 0.56591 0.0
O86 O 0.30379 0.95146 0.55713 0.0
C87 C 0.32785 0.89928 0.54959 0.0
H88 H 0.32644 0.65085 0.59794 0.0
H89 H 0.11454 0.141 0.58817 0.0
Co90 Co 0.90861 0.49998 0.8364 0.0
C91 C 0.81525 0.56353 0.87141 0.0
Co92 Co 0.85636 0.44166 0.86645 0.0
C93 C 0.93291 0.56775 0.79011 0.0
C94 C 1.01921 0.56266 0.80745 0.0
N95 N 0.95363 0.54698 0.81064 0.0
N96 N 0.98321 0.59551 0.77433 0.0
C97 C 0.03747 0.59235 0.78516 0.0
H98 H 0.88269 0.55959 0.78601 0.0
H99 H 0.05227 0.55077 0.81988 0.0
C100 C 0.94908 0.38411 0.83176 0.0
N101 N 0.81823 0.39397 0.89364 0.0
C102 C 0.81975 0.41666 0.91952 0.0
C103 C 0.81334 0.33046 0.89296 0.0
N104 N 0.82211 0.37074 0.9347 0.0
C105 C 0.8159 0.31611 0.91811 0.0
C106 C 0.80749 0.40669 0.81809 0.0
O107 O 0.96369 0.43759 0.82368 0.0
O108 O 0.90557 0.37675 0.85146 0.0
O109 O 0.79248 0.40168 0.84297 0.0
O110 O 0.84954 0.45325 0.81164 0.0
O111 O 0.80639 0.51191 0.88186 0.0
H112 H 0.81632 0.29721 0.87496 0.0
H113 H 0.82544 0.46675 0.92637 0.0
O114 O 0.8526 0.56566 0.84935 0.0
O115 O 0.96931 0.54106 0.86073 0.0
O116 O 0.92347 0.47576 0.88845 0.0
C117 C 0.96864 0.51883 0.88242 0.0
H118 H 0.087 0.60848 0.77699 0.0
H119 H 0.81955 0.26949 0.9231 0.0
Co120 Co 0.6849 0.9153 0.94507 0.0
C121 C 0.63185 0.83984 0.98519 0.0
Co122 Co 0.74599 0.90634 0.97528 0.0
C123 C 0.63451 0.92809 0.89717 0.0
C124 C 0.55812 0.91139 0.92919 0.0
N125 N 0.62396 0.91821 0.92285 0.0
N126 N 0.578 0.9282 0.88731 0.0
C127 C 0.52974 0.91693 0.90731 0.0
H128 H 0.68275 0.93667 0.88608 0.0
H129 H 0.53211 0.90346 0.94856 0.0
C130 C 0.80493 0.98209 0.93387 0.0
N131 N 0.80758 0.90093 0.99706 0.0
C132 C 0.79987 0.88741 1.0223 0.0
C133 C 0.87192 0.89826 0.98823 0.0
N134 N 0.85682 0.8756 1.02929 0.0
C135 C 0.90225 0.88315 1.00799 0.0
C136 C 0.75601 0.81152 0.93027 0.0
O137 O 0.7501 0.96926 0.92499 0.0
O138 O 0.80974 0.96358 0.95589 0.0
O139 O 0.77842 0.83334 0.95198 0.0
O140 O 0.71572 0.84228 0.92253 0.0
O141 O 0.68597 0.8507 0.99409 0.0
H142 H 0.8949 0.90352 0.96818 0.0
H143 H 0.75326 0.88496 0.03501 0.0
O144 O 0.62407 0.86188 0.96445 0.0
O145 O 0.64903 0.98616 0.96823 0.0
O146 O 0.70634 0.97618 0.99949 0.0
C147 C 0.65849 0.9994 0.99251 0.0
H148 H 0.4777 0.91288 0.90628 0.0
H149 H 0.95332 0.87572 1.00647 0.0
Co150 Co 0.40189 0.43714 0.70272 0.0
C151 C 0.4859 0.40648 0.73283 0.0
Co152 Co 0.4252 0.50983 0.73568 0.0
C153 C 0.38405 0.39653 0.65007 0.0
C154 C 0.37021 0.31519 0.67069 0.0
N155 N 0.38613 0.37866 0.67387 0.0
N156 N 0.36618 0.34782 0.63221 0.0
C157 C 0.35773 0.29589 0.6448 0.0
H158 H 0.39339 0.44532 0.64605 0.0
H159 H 0.36559 0.28545 0.68635 0.0
C160 C 0.34058 0.5463 0.70477 0.0
N161 N 0.44356 0.56898 0.76429 0.0
C162 C 0.40513 0.58196 0.7876 0.0
C163 C 0.50351 0.59832 0.76834 0.0
N164 N 0.43912 0.61696 0.80597 0.0
C165 C 0.50094 0.6276 0.79403 0.0
C166 C 0.51258 0.52459 0.68925 0.0
O167 O 0.34583 0.4907 0.69277 0.0
O168 O 0.36709 0.563 0.72587 0.0
O169 O 0.49768 0.55066 0.71298 0.0
O170 O 0.47555 0.47655 0.68078 0.0
O171 O 0.48192 0.46127 0.74507 0.0
H172 H 0.54761 0.59438 0.75434 0.0
H173 H 0.35471 0.56178 0.79181 0.0
O174 O 0.45645 0.38679 0.71281 0.0
O175 O 0.33161 0.39377 0.72435 0.0
O176 O 0.35526 0.46165 0.75847 0.0
C177 C 0.32631 0.40798 0.74947 0.0
H178 H 0.34074 0.24848 0.63638 0.0
H179 H 0.54192 0.65112 0.80374 0.0
Co180 Co 0.80632 0.12315 0.46328 0.0
C181 C 0.68751 0.11369 0.44417 0.0
Co182 Co 0.77742 0.21976 0.45981 0.0
C183 C 0.90863 0.05222 0.47492 0.0
C184 C 0.81327 1.0157 0.49147 0.0
N185 N 0.84338 0.05103 0.47245 0.0
N186 N 0.91948 1.02514 0.4961 0.0
C187 C 0.85899 1.00097 0.50604 0.0
H188 H 0.94686 0.08055 0.46379 0.0
H189 H 0.7608 1.00979 0.49734 0.0
C190 C 0.8913 0.22846 0.47872 0.0
N191 N 0.75364 0.29907 0.45364 0.0
C192 C 0.74357 0.32169 0.43118 0.0
C193 C 0.75569 0.35093 0.47193 0.0
N194 N 0.73905 0.38522 0.435 0.0
C195 C 0.74717 0.40316 0.46069 0.0
C196 C 0.73898 0.18446 0.50954 0.0
O197 O 0.87856 0.16946 0.47544 0.0
O198 O 0.85422 0.26309 0.47152 0.0
O199 O 0.73647 0.22958 0.49616 0.0
O200 O 0.76232 0.13436 0.49786 0.0
O201 O 0.70029 0.17406 0.44822 0.0
H202 H 0.76633 0.35153 0.49196 0.0
H203 H 0.74063 0.29258 0.41233 0.0
O204 O 0.72698 0.07791 0.45024 0.0
O205 O 0.85089 0.11487 0.42806 0.0
O206 O 0.81976 0.20756 0.42444 0.0
C207 C 0.84808 0.15888 0.4141 0.0
H208 H 0.8476 0.97968 0.52432 0.0
H209 H 0.74951 0.45139 0.47056 0.0
Co210 Co 0.21213 0.64379 0.1922 0.0
C211 C 0.12382 0.70772 0.22722 0.0
Co212 Co 0.15521 0.59061 0.22318 0.0
C213 C 0.25193 0.67144 0.13961 0.0
C214 C 0.27297 0.75426 0.16666 0.0
N215 N 0.25428 0.69145 0.16562 0.0
N216 N 0.26475 0.71902 0.12435 0.0
C217 C 0.2798 0.77132 0.14132 0.0
H218 H 0.23449 0.62327 0.13241 0.0
H219 H 0.27564 0.78651 0.18481 0.0
C220 C 0.24811 0.52254 0.18798 0.0
N221 N 0.10876 0.5414 0.24766 0.0
C222 C 0.09853 0.55313 0.27436 0.0
C223 C 0.07885 0.48242 0.24177 0.0
N224 N 0.06353 0.50363 0.28535 0.0
C225 C 0.0512 0.45905 0.26488 0.0
C226 C 0.09544 0.57614 0.17664 0.0
O227 O 0.26182 0.57394 0.17758 0.0
O228 O 0.20599 0.52131 0.20873 0.0
O229 O 0.09026 0.55848 0.19951 0.0
O230 O 0.1468 0.611 0.16908 0.0
O231 O 0.10692 0.65664 0.23725 0.0
H232 H 0.07948 0.45691 0.22196 0.0
H233 H 0.1184 0.59614 0.28557 0.0
O234 O 0.16437 0.70937 0.20623 0.0
O235 O 0.27371 0.68207 0.21701 0.0
O236 O 0.21705 0.62913 0.24795 0.0
C237 C 0.25888 0.67595 0.24184 0.0
H238 H 0.29221 0.81899 0.13626 0.0
H239 H 1.02815 0.41128 0.26653 0.0
Co240 Co 0.81416 0.67934 0.58078 0.0
C241 C 0.75724 0.60051 0.62094 0.0
Co242 Co 0.87614 0.67054 0.61081 0.0
C243 C 0.76453 0.69805 0.53286 0.0
C244 C 0.68897 0.68346 0.56542 0.0
N245 N 0.7542 0.68367 0.55802 0.0
N246 N 0.70838 0.7073 0.52447 0.0
C247 C 0.66075 0.69793 0.54486 0.0
H248 H 0.81266 0.7053 0.52152 0.0
H249 H 0.66378 0.67644 0.585 0.0
C250 C 0.92672 0.74969 0.57247 0.0
N251 N 0.93501 0.66859 0.63401 0.0
C252 C 0.92133 0.66265 0.66008 0.0
C253 C 1.00094 0.67291 0.62868 0.0
N254 N 0.97594 0.66299 0.67131 0.0
C255 C 1.02625 0.66929 0.65159 0.0
C256 C 0.90867 0.59229 0.5627 0.0
O257 O 0.87306 0.73729 0.56329 0.0
O258 O 0.93549 0.72746 0.59306 0.0
O259 O 0.9169 0.6038 0.58713 0.0
O260 O 0.85846 0.61235 0.55605 0.0
O261 O 0.81277 0.61295 0.62921 0.0
H262 H 1.0288 0.67759 0.60932 0.0
H263 H 0.87208 0.65606 0.67035 0.0
O264 O 0.7509 0.61953 0.59917 0.0
O265 O 0.77788 0.75011 0.6046 0.0
O266 O 0.84056 0.73966 0.63389 0.0
C267 C 0.7989 0.7698 0.6268 0.0
H268 H 0.60942 0.70269 0.54508 0.0
H269 H 0.07757 0.67044 0.65352 0.0
Co270 Co 0.14736 0.08814 0.82539 0.0
C271 C 0.2223 0.06108 0.86328 0.0
Co272 Co 0.15855 0.16384 0.85829 0.0
C273 C 0.14458 1.03404 0.77143 0.0
C274 C 0.14218 0.96204 0.79647 0.0
N275 N 0.1438 1.02516 0.79694 0.0
N276 N 0.14365 0.97916 0.75487 0.0
C277 C 0.14266 0.93363 0.77059 0.0
H278 H 0.14652 0.08031 0.76511 0.0
H279 H 0.14231 0.9384 0.81371 0.0
C280 C 0.08388 0.18572 0.82168 0.0
N281 N 0.1623 0.2275 0.88615 0.0
C282 C 0.1617 0.21663 0.91123 0.0
C283 C 0.17786 0.29075 0.88651 0.0
N284 N 0.1789 0.26954 0.9271 0.0
C285 C 0.18885 0.31686 0.9119 0.0
C286 C 0.24562 0.19316 0.81453 0.0
O287 O 0.09105 0.1299 0.81119 0.0
O288 O 0.10739 0.20854 0.84287 0.0
O289 O 0.23315 0.20746 0.8395 0.0
O290 O 0.22056 0.13862 0.80456 0.0
O291 O 0.21092 0.11643 0.87403 0.0
H292 H 0.1858 0.31531 0.86911 0.0
H293 H 0.15454 0.1697 0.91734 0.0
O294 O 0.20491 1.04208 0.84042 0.0
O295 O 0.07113 1.04419 0.84573 0.0
O296 O 0.08149 0.1235 0.87731 0.0
C297 C 0.04993 0.07186 0.86864 0.0
H298 H 0.1452 0.88372 0.76391 0.0
H299 H 0.2079 0.36527 0.9181 0.0
Co300 Co 0.81468 0.38237 0.09566 0.0
C301 C 0.7031 0.35047 0.07457 0.0
Co302 Co 0.77244 0.46822 0.0874 0.0
C303 C 0.82337 0.27693 0.12561 0.0
C304 C 0.90228 0.2848 0.09378 0.0
N305 N 0.84877 0.31247 0.10571 0.0
N306 N 0.8586 0.22849 0.12635 0.0
C307 C 0.90819 0.23332 0.10628 0.0
H308 H 0.77885 0.28515 0.13893 0.0
H309 H 0.93483 0.3006 0.0769 0.0
C310 C 0.88842 0.49897 0.10962 0.0
N311 N 0.7274 0.53078 0.07543 0.0
C312 C 0.66338 0.5211 0.07055 0.0
C313 C 0.75454 0.57568 0.05996 0.0
N314 N 0.6507 0.55473 0.05168 0.0
C315 C 0.70818 0.59045 0.04564 0.0
C316 C 0.7306 0.44001 0.13816 0.0
O317 O 0.8854 0.43869 0.10682 0.0
O318 O 0.84358 0.52599 0.10205 0.0
O319 O 0.72181 0.47673 0.12186 0.0
O320 O 0.76873 0.39716 0.13036 0.0
O321 O 0.70755 0.40932 0.07409 0.0
H322 H 0.80635 0.59185 0.05702 0.0
H323 H 0.62798 0.48472 0.07858 0.0
O324 O 0.74511 0.32773 0.08475 0.0
O325 O 0.85816 0.36958 0.05998 0.0
O326 O 0.82287 0.45811 0.05369 0.0
C327 C 0.85322 0.41009 0.04466 0.0
H328 H 0.94631 0.20198 0.10111 0.0
H329 H 0.71761 0.6229 0.03086 0.0
Co330 Co 0.39587 0.99638 0.34315 0.0
C331 C 0.3049 0.06015 0.37903 0.0
Co332 Co 0.34831 0.93848 0.37332 0.0
C333 C 0.45275 1.01725 0.29208 0.0
C334 C 0.45649 0.10483 0.3181 0.0
N335 N 0.43659 1.04231 0.31733 0.0
N336 N 0.48081 0.06126 0.27681 0.0
C337 C 0.48318 0.11681 0.29283 0.0
H338 H 0.44089 0.968 0.28458 0.0
H339 H 0.44938 0.13945 0.33554 0.0
C340 C 0.43974 0.88176 0.33798 0.0
N341 N 0.31133 0.8897 0.39959 0.0
C342 C 0.3137 0.90807 0.42562 0.0
C343 C 0.29997 0.82593 0.39719 0.0
N344 N 0.3086 0.85845 0.43949 0.0
C345 C 0.29894 0.8065 0.42167 0.0
C346 C 0.29652 0.90228 0.32525 0.0
O347 O 0.45132 0.93512 0.32987 0.0
O348 O 0.3981 0.87378 0.35815 0.0
O349 O 0.28354 0.8963 0.35007 0.0
O350 O 0.33578 0.95048 0.31906 0.0
O351 O 0.29708 1.00868 0.3896 0.0
H352 H 0.30041 0.7953 0.37848 0.0
H353 H 0.32518 0.95699 0.43373 0.0
O354 O 0.34023 0.0614 0.35656 0.0
O355 O 0.45804 1.03759 0.36559 0.0
O356 O 0.41719 0.97477 0.39506 0.0
C357 C 0.46079 1.01819 0.38755 0.0
H358 H 0.49823 0.16293 0.2863 0.0
H359 H 0.29801 0.75793 0.42525 0.0
Co360 Co 0.17116 0.41424 0.44297 0.0
C361 C 0.12168 0.35165 0.48714 0.0
Co362 Co 0.2341 0.41845 0.47365 0.0
C363 C 0.10278 0.44813 0.40428 0.0
C364 C 0.07657 0.35084 0.41008 0.0
N365 N 0.11295 0.40417 0.41891 0.0
N366 N 0.063 0.42423 0.38597 0.0
C367 C 0.04615 0.36289 0.38963 0.0
H368 H 0.1272 0.49598 0.40609 0.0
H369 H 0.07552 0.3053 0.41694 0.0
C370 C 0.29055 0.4815 0.42846 0.0
N371 N 0.29222 0.42864 0.49782 0.0
C372 C 0.30146 0.38689 0.51379 0.0
C373 C 0.329 0.48265 0.50563 0.0
N374 N 0.34154 0.41309 0.53159 0.0
C375 C 0.35899 0.47333 0.52659 0.0
C376 C 0.24908 0.31318 0.43413 0.0
O377 O 0.23553 0.46358 0.42015 0.0
O378 O 0.29676 0.47063 0.45162 0.0
O379 O 0.27226 0.34152 0.45499 0.0
O380 O 0.20683 0.33903 0.42522 0.0
O381 O 0.17636 0.36802 0.49507 0.0
H382 H 0.33018 0.5271 0.49784 0.0
H383 H 0.27474 0.3401 0.51402 0.0
O384 O 0.11089 0.36555 0.46507 0.0
O385 O 0.13013 0.48727 0.46121 0.0
O386 O 0.18827 0.4914 0.49348 0.0
C387 C 0.13856 0.50801 0.48512 0.0
H388 H 1.01864 0.32779 0.37703 0.0
H389 H 0.38676 0.50939 0.53873 0.0
Co390 Co 0.92351 0.93491 0.2008 0.0
C391 C 1.00202 0.91305 0.23563 0.0
Co392 Co 0.9385 1.01227 0.233 0.0
C393 C 0.9181 0.88277 0.14766 0.0
C394 C 0.89316 0.80899 0.17247 0.0
N395 N 0.91359 0.87149 0.17296 0.0
N396 N 0.90026 0.83072 0.13135 0.0
C397 C 0.88439 0.78369 0.14672 0.0
H398 H 0.93048 0.92949 0.1415 0.0
H399 H 0.88262 0.78414 0.1898 0.0
C400 C 0.86191 1.041 0.19681 0.0
N401 N 0.95107 0.07578 0.26098 0.0
C402 C 0.9115 0.08746 0.28413 0.0
C403 C 1.00938 0.10895 0.2652 0.0
N404 N 0.94324 0.12548 0.30249 0.0
C405 C 1.00473 0.13912 0.29079 0.0
C406 C 0.03286 1.02445 0.18778 0.0
O407 O 0.87059 0.98464 0.18644 0.0
O408 O 0.88115 0.06053 0.21936 0.0
O409 O 1.01331 0.05299 0.21064 0.0
O410 O 1.00012 0.97279 0.17993 0.0
O411 O 0.9948 0.96889 0.24592 0.0
H412 H 0.0543 0.10686 0.25153 0.0
H413 H 0.86231 0.06422 0.28833 0.0
O414 O 0.9762 0.88863 0.21508 0.0
O415 O 0.84943 0.89326 0.2215 0.0
O416 O 0.86569 0.96414 0.25551 0.0
C417 C 0.83853 0.9095 0.24646 0.0
H418 H 0.86638 0.73528 0.14001 0.0
H419 H 0.04433 0.16541 0.30061 0.0
Co420 Co 0.2991 0.6186 0.9667 0.0
C421 C 0.18133 0.60766 0.94752 0.0
Co422 Co 0.2727 0.71498 0.96207 0.0
C423 C 0.40088 0.54876 0.97859 0.0
C424 C 0.30635 0.51057 0.99518 0.0
N425 N 0.33559 0.54762 0.97666 0.0
N426 N 0.41327 0.51929 0.99887 0.0
C427 C 0.35313 0.49365 1.0087 0.0
H428 H 0.43795 0.57798 0.96748 0.0
H429 H 0.25396 0.50361 1.00115 0.0
C430 C 0.38744 0.7255 0.97968 0.0
N431 N 0.24596 0.79129 0.95427 0.0
C432 C 0.26788 0.82436 0.93324 0.0
C433 C 0.19924 0.82473 0.96882 0.0
N434 N 0.23677 0.87673 0.93424 0.0
C435 C 0.19381 0.87689 0.95675 0.0
C436 C 0.23538 0.68356 1.01266 0.0
O437 O 0.37182 0.66673 0.97835 0.0
O438 O 0.35076 0.76026 0.97219 0.0
O439 O 0.23445 0.72838 0.99888 0.0
O440 O 0.25511 0.63171 1.00113 0.0
O441 O 0.19444 0.66792 0.95161 0.0
H442 H 0.17028 0.81195 0.98701 0.0
H443 H 0.30659 0.81086 0.91763 0.0
O444 O 0.22046 0.57195 0.95381 0.0
O445 O 0.34397 0.60763 0.93186 0.0
O446 O 0.31301 0.69901 0.92658 0.0
C447 C 0.34193 0.65022 0.91718 0.0
H448 H 0.34247 0.46859 1.02597 0.0
H449 H 0.15973 0.91175 0.96378 0.0
Co450 Co 0.70463 0.13882 0.69025 0.0
C451 C 0.61737 0.20307 0.72382 0.0
Co452 Co 0.65165 0.08557 0.7218 0.0
C453 C 0.74073 0.164 0.6369 0.0
C454 C 0.77406 0.24365 0.66337 0.0
N455 N 0.747 0.18289 0.66269 0.0
N456 N 0.7598 0.21072 0.62146 0.0
C457 C 0.78236 0.26082 0.63803 0.0
H458 H 0.71755 0.11781 0.62991 0.0
H459 H 0.78275 0.27482 0.68132 0.0
C460 C 0.74039 1.01543 0.68756 0.0
N461 N 0.60285 1.04262 0.74807 0.0
C462 C 0.62069 1.02182 0.76917 0.0
C463 C 0.53687 1.03019 0.75086 0.0
N464 N 0.56825 0.99743 0.78495 0.0
C465 C 0.5156 1.00185 0.7733 0.0
C466 C 0.58965 0.06533 0.67581 0.0
O467 O 0.75071 0.06568 0.67618 0.0
O468 O 0.70349 1.01622 0.70985 0.0
O469 O 0.58991 0.04635 0.69808 0.0
O470 O 0.63618 0.10579 0.6683 0.0
O471 O 0.6011 0.15139 0.73328 0.0
H472 H 0.50559 1.04331 0.73801 0.0
H473 H 0.67061 1.0272 0.77357 0.0
O474 O 0.65995 0.20683 0.70359 0.0
O475 O 0.76934 0.17759 0.71383 0.0
O476 O 0.7117 0.13044 0.7463 0.0
C477 C 0.75492 0.17513 0.73894 0.0
H478 H 0.80178 0.30713 0.63263 0.0
H479 H 0.46519 0.9871 0.78081 0.0
C480 C 0.53398 0.3105 0.0556 0.0
C481 C 0.50829 0.26467 0.07243 0.0
C482 C 0.60006 0.33507 0.05425 0.0
C483 C 0.64227 0.31252 0.06893 0.0
H484 H 0.50226 0.33011 0.04473 0.0
H485 H 0.61732 0.37417 0.04284 0.0
S486 S 0.60206 0.18715 0.11296 0.0
N487 N 0.53262 0.19647 0.10308 0.0
N488 N 0.65682 0.23655 0.09761 0.0
C489 C 0.61892 0.26229 0.08343 0.0
C490 C 0.55159 0.2402 0.08611 0.0
C491 C 0.46724 0.7139 0.31496 0.0
C492 C 0.53379 0.72168 0.305 0.0
C493 C 0.43485 0.76709 0.3242 0.0
C494 C 0.46838 0.82793 0.32254 0.0
H495 H 0.4438 0.6682 0.32001 0.0
H496 H 0.38551 0.76066 0.33465 0.0
S497 S 0.63401 0.86832 0.28714 0.0
N498 N 0.62551 0.79038 0.28603 0.0
N499 N 0.564 0.89169 0.30272 0.0
C500 C 0.53005 0.83482 0.30725 0.0
C501 C 0.56284 0.78055 0.29809 0.0
C502 C 0.09813 0.77982 0.55543 0.0
C503 C 0.10639 0.84121 0.56889 0.0
C504 C 0.03622 0.75309 0.54997 0.0
C505 C 0.98155 0.78619 0.55932 0.0
H506 H 0.1384 0.75096 0.55086 0.0
H507 H 1.0297 0.70312 0.54245 0.0
S508 S 0.97929 0.95139 0.59099 0.0
N509 N 0.05698 0.93839 0.58701 0.0
N510 N 0.93973 0.88544 0.57786 0.0
C511 C 0.99045 0.85018 0.5691 0.0
C512 C 0.05344 0.87818 0.5742 0.0
C513 C 0.0827 0.28538 0.80545 0.0
C514 C 0.04989 0.22556 0.80971 0.0
C515 C 0.048 0.33784 0.80963 0.0
C516 C 0.98058 0.33022 0.81816 0.0
H517 H 0.13578 0.29298 0.80275 0.0
H518 H 0.07489 0.38463 0.80948 0.0
S519 S 0.8717 0.17988 0.8222 0.0
N520 N 0.94667 0.1586 0.81541 0.0
N521 N 0.88023 0.25777 0.82314 0.0
C522 C 0.9464 0.26923 0.81742 0.0
C523 C 0.98176 0.21603 0.81298 0.0
C524 C 0.56642 0.73992 0.98463 0.0
C525 C 0.57685 0.80153 0.99755 0.0
C526 C 0.50378 0.71491 0.97961 0.0
C527 C 0.4502 0.75011 0.98827 0.0
H528 H 0.60756 0.71523 0.97472 0.0
H529 H 0.49864 0.67057 0.96675 0.0
S530 S 0.4506 0.90387 0.03101 0.0
N531 N 0.52841 0.89061 1.02453 0.0
N532 N 0.40901 0.84205 1.01575 0.0
C533 C 0.4588 0.8073 1.00477 0.0
C534 C 0.52279 0.83288 1.00974 0.0
C535 C 0.52059 0.25284 0.74506 0.0
C536 C 0.58785 0.25865 0.73615 0.0
C537 C 0.48706 0.30564 0.748 0.0
C538 C 0.52105 0.36398 0.74243 0.0
H539 H 0.49288 0.20676 0.74657 0.0
H540 H 0.43395 0.29938 0.75148 0.0
S541 S 0.69943 0.40574 0.72756 0.0
N542 N 0.68947 0.32842 0.72857 0.0
N543 N 0.62513 0.42865 0.73432 0.0
C544 C 0.58918 0.37235 0.73829 0.0
C545 C 0.62333 0.31869 0.73501 0.0
C546 C 0.06503 0.24973 0.49143 0.0
C547 C 0.07101 0.31365 0.50193 0.0
C548 C 1.00475 0.22071 0.48508 0.0
C549 C 0.94961 0.25451 0.49042 0.0
H550 H 0.10833 0.22618 0.48349 0.0
H551 H 1.00332 0.17447 0.47352 0.0
S552 S 0.93659 0.41014 0.53084 0.0
N553 N 1.01557 0.40133 0.52649 0.0
N554 N 0.90021 0.34531 0.51541 0.0
C555 C 0.95289 0.313 0.50631 0.0
C556 C 1.01448 0.34253 0.51254 0.0
C557 C 0.13673 0.82353 0.23405 0.0
C558 C 0.10025 0.76623 0.24011 0.0
C559 C 0.10632 0.87844 0.23752 0.0
C560 C 0.03974 0.87593 0.24719 0.0
H561 H 0.18649 0.82454 0.22387 0.0
H562 H 0.13206 0.91976 0.22909 0.0
S563 S 0.93278 0.74471 0.27604 0.0
N564 N 1.00193 0.71482 0.26374 0.0
N565 N 0.94431 0.81947 0.27034 0.0
C566 C 1.00735 0.82288 0.25841 0.0
C567 C 0.0381 0.76689 0.25483 0.0
C568 C 0.4943 0.06763 1.02238 0.0
C569 C 0.48878 0.06541 0.05009 0.0
C570 C 0.54996 0.04926 1.00439 0.0
C571 C 0.60465 1.02839 1.01284 0.0
H572 H 0.45534 0.08432 1.01435 0.0
H573 H 0.54954 0.05077 0.98341 0.0
S574 S 0.61634 1.01189 0.08309 0.0
N575 N 0.54458 1.0385 0.08472 0.0
N576 N 0.64801 1.00618 0.05144 0.0
C577 C 0.60021 1.02654 0.0405 0.0
C578 C 0.54309 1.0443 0.05881 0.0
C579 C 0.76654 0.74483 0.26848 0.0
C580 C 0.76734 0.75198 0.29631 0.0
C581 C 0.78634 0.79613 0.25309 0.0
C582 C 0.80788 0.85851 0.26437 0.0
H583 H 0.74937 0.69918 0.2584 0.0
H584 H 0.78536 0.78625 0.23185 0.0
S585 S 0.82206 0.90402 0.33617 0.0
N586 N 0.79417 0.82804 0.33417 0.0
N587 N 0.82952 0.92282 0.30569 0.0
C588 C 0.80874 0.86641 0.29217 0.0
C589 C 0.78921 0.81404 0.30784 0.0
C590 C 1.02481 0.07088 0.55242 0.0
C591 C 0.08885 0.05841 0.54071 0.0
C592 C 0.9707 0.05977 0.53784 0.0
C593 C 0.97724 1.03726 0.51038 0.0
H594 H 1.01562 0.08778 0.5734 0.0
H595 H 0.92296 0.06937 0.54827 0.0
S596 S 0.13425 1.00159 0.46903 0.0
N597 N 0.15514 1.02418 0.49908 0.0
N598 N 0.05455 1.00583 0.47177 0.0
C599 C 0.0412 1.02668 0.49807 0.0
C600 C 0.09634 1.03646 0.51312 0.0
C601 C 0.75067 0.29476 0.80418 0.0
C602 C 0.7909 0.35002 0.79707 0.0
C603 C 0.74188 0.23845 0.78589 0.0
C604 C 0.77319 0.23293 0.75918 0.0
H605 H 0.72611 0.29447 0.82436 0.0
H606 H 0.7092 0.19888 0.79283 0.0
S607 S 0.8849 0.36252 0.72976 0.0
N608 N 0.86294 0.39394 0.76064 0.0
N609 N 0.84708 0.28976 0.72699 0.0
C610 C 0.81387 0.28768 0.75183 0.0
C611 C 0.8224 0.34524 0.77039 0.0
C612 C 0.27679 0.29428 0.75592 0.0
C613 C 0.30207 0.3554 0.76707 0.0
C614 C 0.26217 0.24168 0.77069 0.0
C615 C 0.27238 0.24647 0.79757 0.0
H616 H 0.26857 0.28654 0.7353 0.0
H617 H 0.24117 0.19707 0.761 0.0
S618 S 0.34014 0.39448 0.83648 0.0
N619 N 0.33805 0.41596 0.80703 0.0
N620 N 0.31137 0.31873 0.83442 0.0
C621 C 0.29837 0.30716 0.80889 0.0
C622 C 0.31286 0.36077 0.79388 0.0
C623 C 0.25344 0.78556 0.31007 0.0
C624 C 0.28267 0.84595 0.30362 0.0
C625 C 0.24835 0.73091 0.29054 0.0
C626 C 0.27352 0.73236 0.26325 0.0
H627 H 0.23468 0.78002 0.33057 0.0
H628 H 0.22374 0.68699 0.29699 0.0
S629 S 0.35578 0.87735 0.23513 0.0
N630 N 0.33651 0.90223 0.267 0.0
N631 N 0.32972 0.8011 0.23137 0.0
C632 C 0.30348 0.79219 0.25664 0.0
C633 C 0.30733 0.84799 0.27634 0.0
C634 C 0.08207 0.54504 0.53214 0.0
C635 C 0.08209 0.53645 0.50427 0.0
C636 C 1.02598 0.56102 0.55041 0.0
C637 C 0.96568 0.56951 0.54219 0.0
H638 H 0.12543 0.53758 0.5401 0.0
H639 H 1.03027 0.56681 0.57141 0.0
S640 S 0.93853 0.5555 0.4715 0.0
N641 N 1.01497 0.53978 0.46958 0.0
N642 N 0.9117 0.57023 0.50352 0.0
C643 C 0.96542 0.56269 0.51438 0.0
C644 C 1.02252 0.54614 0.49571 0.0
C645 C 0.52879 0.5308 0.05168 0.0
C646 C 0.59196 0.54603 0.03801 0.0
C647 C 0.47161 0.52174 0.03888 0.0
C648 C 0.47387 0.52652 1.01143 0.0
H649 H 0.52324 0.5268 0.07272 0.0
H650 H 0.42497 0.51192 0.05095 0.0
S651 S 0.62777 0.55827 0.96543 0.0
N652 N 0.65307 0.56101 0.9946 0.0
N653 N 0.54724 0.54326 0.97078 0.0
C654 C 0.53709 0.54018 0.99736 0.0
C655 C 0.59532 0.54997 1.01048 0.0
C656 C 0.29698 0.39127 0.1324 0.0
C657 C 0.30647 0.3415 0.1461 0.0
C658 C 0.28134 0.45051 0.14605 0.0
C659 C 0.27285 0.46215 0.17407 0.0
H660 H 0.30283 0.3848 0.11086 0.0
H661 H 0.27397 0.4869 0.13454 0.0
S662 S 0.29131 0.34749 0.21941 0.0
N663 N 0.30703 0.30841 0.18937 0.0
N664 N 0.27481 0.41821 0.21497 0.0
C665 C 0.28169 0.41259 0.188 0.0
C666 C 0.2993 0.35286 0.17407 0.0
C667 C 0.46217 0.56304 0.40701 0.0
C668 C 0.47254 0.54767 0.37909 0.0
C669 C 0.40301 0.54298 0.42248 0.0
C670 C 0.34998 0.50781 0.41089 0.0
H671 H 0.5006 0.59055 0.41718 0.0
H672 H 0.39895 0.55513 0.44387 0.0
S673 S 0.35 0.45644 0.33851 0.0
N674 N 0.42355 0.49535 0.34046 0.0
N675 N 0.31209 0.45897 0.36933 0.0
C676 C 0.35906 0.49294 0.38291 0.0
C677 C 0.42017 0.51233 0.36714 0.0
C678 C 0.28004 0.6144 0.64981 0.0
C679 C 0.30297 0.67939 0.65391 0.0
C680 C 0.28704 0.57276 0.6677 0.0
C681 C 0.31741 0.59393 0.69064 0.0
H682 H 0.25852 0.59495 0.63203 0.0
H683 H 0.27155 0.52281 0.66269 0.0
S684 S 0.37968 0.76095 0.71221 0.0
N685 N 0.35235 0.7639 0.68387 0.0
N686 N 0.36531 0.68604 0.71763 0.0
C687 C 0.3362 0.6597 0.69604 0.0
C688 C 0.32907 0.70225 0.67768 0.0
C689 C 0.05307 0.6021 0.90071 0.0
C690 C 1.02123 0.54014 0.89983 0.0
C691 C 0.10315 0.62286 0.91663 0.0
C692 C 0.12514 0.58245 0.93215 0.0
H693 H 0.03897 0.63515 0.88908 0.0
H694 H 0.12578 0.67121 0.91625 0.0
S695 S 0.05864 0.41463 0.93634 0.0
N696 N 1.01561 0.43783 0.91569 0.0
N697 N 0.11037 0.4766 0.94523 0.0
C698 C 0.09401 0.52002 0.93129 0.0
C699 C 0.04204 0.49907 0.91531 0.0
C700 C 0.78058 0.67374 0.87391 0.0
C701 C 0.79384 0.62417 0.88695 0.0
C702 C 0.76826 0.73379 0.88793 0.0
C703 C 0.77117 0.748 0.91551 0.0
H704 H 0.78002 0.66617 0.85261 0.0
H705 H 0.75756 0.76981 0.87695 0.0
S706 S 0.80546 0.63569 0.95913 0.0
N707 N 0.80898 0.59411 0.92933 0.0
N708 N 0.78807 0.70649 0.95529 0.0
C709 C 0.78465 0.69893 0.92875 0.0
C710 C 0.79537 0.63737 0.91463 0.0
C711 C 0.57953 0.5363 0.6443 0.0
C712 C 0.57528 0.54495 0.67228 0.0
C713 C 0.63873 0.5522 0.62786 0.0
C714 C 0.69726 0.57565 0.63852 0.0
H715 H 0.53635 0.51788 0.63497 0.0
H716 H 0.63842 0.54654 0.60655 0.0
S717 S 0.71392 0.60297 0.71059 0.0
N718 N 0.63593 0.57639 0.70981 0.0
N719 N 0.74668 0.60468 0.67927 0.0
C720 C 0.69399 0.58269 0.6665 0.0
C721 C 0.63336 0.56787 0.68322 0.0
C722 C 0.75918 0.42182 0.38961 0.0
C723 C 0.729 0.4274 0.41637 0.0
C724 C 0.75274 0.46639 0.37235 0.0
C725 C 0.71663 0.51882 0.38123 0.0
H726 H 0.78871 0.3834 0.38212 0.0
H727 H 0.77648 0.46005 0.35201 0.0
S728 S 0.61869 0.54798 0.44801 0.0
N729 N 0.65522 0.48513 0.44956 0.0
N730 N 0.64366 0.56734 0.41789 0.0
C731 C 0.68438 0.52272 0.40762 0.0
C732 C 0.69046 0.47765 0.42493 0.0
C733 C 1.00171 0.55173 0.11608 0.0
C734 C 0.93679 0.53312 0.12686 0.0
C735 C 0.0524 0.56648 0.13228 0.0
C736 C 0.04075 0.56096 0.1598 0.0
H737 H 1.01395 0.55235 0.09482 0.0
H738 H 0.10159 0.58021 0.12297 0.0
S739 S 0.87844 0.51506 0.19769 0.0
N740 N 0.86339 0.51169 0.1668 0.0
N741 N 0.95771 0.53765 0.197 0.0
C742 C 0.9756 0.54346 0.17079 0.0
C743 C 0.92409 0.52988 0.1544 0.0
C744 C 0.7749 0.88334 0.63013 0.0
C745 C 0.78181 0.83109 0.64286 0.0
C746 C 0.76496 0.94326 0.64466 0.0
C747 C 0.76007 0.95357 0.67269 0.0
H748 H 0.77851 0.87829 0.60866 0.0
H749 H 0.75923 0.98144 0.63379 0.0
S750 S 0.77427 0.83228 0.7157 0.0
N751 N 0.7841 0.79413 0.68525 0.0
N752 N 0.76271 0.90539 0.7125 0.0
C753 C 0.76654 0.90154 0.68565 0.0
C754 C 0.77819 0.8409 0.6708 0.0
C755 C 0.87294 0.99915 0.88929 0.0
C756 C 0.86564 1.00948 0.9174 0.0
C757 C 0.93293 1.01719 0.87357 0.0
C758 C 0.98807 0.04735 0.88521 0.0
H759 H 0.83248 0.97535 0.87931 0.0
H760 H 0.93574 1.00839 0.85212 0.0
S761 S 0.99526 0.0861 0.95778 0.0
N762 N 0.91985 0.05199 0.95595 0.0
N763 N 1.03074 0.08681 0.92676 0.0
C764 C 0.98105 0.05855 0.91324 0.0
C765 C 0.92059 1.03942 0.92918 0.0
C766 C 0.84787 0.15278 0.18932 0.0
C767 C 0.84546 0.08727 0.17991 0.0
C768 C 0.84817 0.19867 0.17205 0.0
C769 C 0.84718 0.18116 0.14458 0.0
H770 H 0.85293 0.16916 0.20996 0.0
H771 H 0.85297 0.24841 0.17996 0.0
S772 S 0.83208 1.01702 0.10991 0.0
N773 N 0.83417 1.00807 0.14119 0.0
N774 N 0.83748 0.09424 0.10913 0.0
C775 C 0.84105 0.11619 0.13513 0.0
C776 C 0.8393 0.06939 0.15266 0.0
C777 C 0.59162 1.03019 0.43442 0.0
C778 C 0.62968 0.08799 0.42994 0.0
C779 C 0.53577 1.00867 0.42141 0.0
C780 C 0.51657 1.04344 0.403 0.0
H781 H 0.6045 1.00184 0.44829 0.0
H782 H 0.50821 0.96385 0.42543 0.0
S783 S 0.60094 0.19674 0.38355 0.0
N784 N 0.64423 0.17874 0.40526 0.0
N785 N 0.54117 0.13848 0.38107 0.0
C786 C 0.55468 0.10094 0.39831 0.0
C787 C 0.6106 0.12303 0.41165 0.0
C788 C 0.26524 0.23274 0.39319 0.0
C789 C 0.26573 0.24868 0.42085 0.0
C790 C 0.27541 0.17143 0.38014 0.0
C791 C 0.28434 0.12186 0.39413 0.0
H792 H 0.25757 0.26837 0.38136 0.0
H793 H 0.27669 0.16292 0.35875 0.0
S794 S 0.28691 0.13709 0.4671 0.0
N795 N 0.27475 0.20866 0.46191 0.0
N796 N 0.29211 0.09355 0.43768 0.0
C797 C 0.28346 0.13668 0.42194 0.0
C798 C 0.27471 0.19979 0.43516 0.0
C799 C 0.14797 0.08352 0.18192 0.0
C800 C 0.09427 0.0485 0.17065 0.0
C801 C 0.20716 0.10299 0.16598 0.0
C802 C 0.21515 0.08933 0.13794 0.0
H803 H 0.14464 0.09535 0.2033 0.0
H804 H 0.24639 0.13035 0.17572 0.0
S805 S 0.08941 0.9998 0.09837 0.0
N806 N 0.05382 1.00114 0.12946 0.0
N807 N 0.16314 1.0383 0.09984 0.0
C808 C 0.16171 0.0544 0.12651 0.0
C809 C 0.10205 1.03391 0.14271 0.0
C810 C 0.23812 1.0325 0.90768 0.0
C811 C 0.24055 1.0153 0.87994 0.0
C812 C 0.23972 0.98759 0.92499 0.0
C813 C 0.24493 0.92318 0.91555 0.0
H814 H 0.23123 0.08061 0.91645 0.0
H815 H 0.23493 1.00319 0.94616 0.0
S816 S 0.26053 0.85357 0.8446 0.0
N817 N 0.25395 0.92917 0.84376 0.0
N818 N 0.25775 0.84533 0.87628 0.0
C819 C 0.25186 0.90579 0.88778 0.0
C820 C 0.24947 0.95156 0.87005 0.0
C821 C 0.52911 0.07091 0.63664 0.0
C822 C 0.5335 1.04429 0.65996 0.0
C823 C 0.47505 0.0533 0.62222 0.0
C824 C 0.42339 1.00806 0.63046 0.0
H825 H 0.56778 0.10569 0.62941 0.0
H826 H 0.47461 0.07392 0.60419 0.0
S827 S 0.40784 0.92737 0.69093 0.0
N828 N 0.47877 0.97195 0.69083 0.0
N829 N 0.3783 0.94007 0.66434 0.0
C830 C 0.42657 0.98239 0.654 0.0
C831 C 0.48116 1.00004 0.66853 0.0
C832 C 0.25596 0.21265 0.97849 0.0
C833 C 0.22371 0.24272 1.00202 0.0
C834 C 0.2447 0.22557 0.95387 0.0
C835 C 0.20096 0.26896 0.95203 0.0
H836 H 0.28725 0.17642 0.9791 0.0
H837 H 0.26768 0.1991 0.93605 0.0
S838 S 0.11329 0.36815 1.00759 0.0
N839 N 0.15337 0.32421 1.0221 0.0
N840 N 0.1313 0.34722 0.97528 0.0
C841 C 0.17238 0.30295 0.97525 0.0
C842 C 0.18376 0.28989 1.00046 0.0
C843 C 0.71093 0.40486 0.1833 0.0
C844 C 0.70211 0.44907 0.16667 0.0
C845 C 0.69173 0.41463 0.21078 0.0
C846 C 0.66296 0.46913 0.22296 0.0
H847 H 0.73446 0.36277 0.17521 0.0
H848 H 0.70161 0.38012 0.22268 0.0
S849 S 0.62311 0.59699 0.18846 0.0
N850 N 0.6588 0.54795 0.16441 0.0
N851 N 0.62174 0.56577 0.21616 0.0
C852 C 0.65149 0.51276 0.2066 0.0
C853 C 0.67109 0.50278 0.17846 0.0
C854 C 0.37039 0.92325 0.50413 0.0
C855 C 0.33987 0.87904 0.52094 0.0
C856 C 0.36316 0.91416 0.47719 0.0
C857 C 0.32311 0.86158 0.46628 0.0
H858 H 0.39699 0.96688 0.51217 0.0
H859 H 0.38729 0.95008 0.46516 0.0
S860 S 0.23775 0.72903 0.50188 0.0
N861 N 0.27405 0.77755 0.52461 0.0
N862 N 0.25719 0.76204 0.47421 0.0
C863 C 0.29597 0.81485 0.4826 0.0
C864 C 0.3051 0.82327 0.50991 0.0
C865 C 1.02765 0.61466 0.7023 0.0
C866 C 0.97917 0.65034 0.69781 0.0
C867 C 1.02894 0.59754 0.72744 0.0
C868 C 0.98162 0.61517 0.74894 0.0
H869 H 0.0637 0.59814 0.68611 0.0
H870 H 0.06622 0.56884 0.72993 0.0
S871 S 0.84901 0.71453 0.74858 0.0
N872 N 0.88616 0.70755 0.71762 0.0
N873 N 0.88799 0.67363 0.76487 0.0
C874 C 0.93391 0.65209 0.74501 0.0
C875 C 0.93288 0.67019 0.71944 0.0
C876 C 0.93943 0.86786 0.08837 0.0
C877 C 0.89243 0.8312 0.10411 0.0
C878 C 0.92769 0.88123 0.06383 0.0
C879 C 0.8684 0.8582 0.05404 0.0
H880 H 0.9847 0.88833 0.09567 0.0
H881 H 0.96437 0.91179 0.0529 0.0
S882 S 0.73246 0.75327 0.08618 0.0
N883 N 0.78631 0.768 0.1075 0.0
N884 N 0.76476 0.79132 0.06066 0.0
C885 C 0.82227 0.81839 0.06887 0.0
C886 C 0.83431 0.80497 0.09404 0.0
C887 C 0.34229 0.67128 0.87078 0.0
C888 C 0.36945 0.64231 0.8889 0.0
C889 C 0.36547 0.66295 0.8436 0.0
C890 C 0.41744 0.62682 0.83386 0.0
H891 H 0.30186 0.69948 0.87754 0.0
H892 H 0.34291 0.68484 0.83007 0.0
S893 S 0.50608 0.54191 0.87266 0.0
N894 N 0.45123 0.57612 0.89502 0.0
N895 N 0.49554 0.56173 0.84378 0.0
C896 C 0.44563 0.59828 0.85163 0.0
C897 C 0.42138 0.60571 0.87924 0.0
C898 C 0.7462 0.14714 0.57829 0.0
C899 C 0.75022 0.20677 0.59385 0.0
C900 C 0.73565 0.14033 0.55181 0.0
C901 C 0.73077 0.19305 0.53905 0.0
H902 H 0.75311 0.10492 0.5863 0.0
H903 H 0.73489 0.09314 0.54088 0.0
S904 S 0.73217 0.35974 0.57103 0.0
N905 N 0.742 0.31958 0.59502 0.0
N906 N 0.72663 0.30699 0.5444 0.0
C907 C 0.73228 0.253 0.55442 0.0
C908 C 0.74155 0.25989 0.58188 0.0
C909 C 0.10835 0.49424 0.35212 0.0
C910 C 0.05627 0.45274 0.36298 0.0
C911 C 0.10823 0.5143 0.32748 0.0
C912 C 0.05629 0.49333 0.31268 0.0
H913 H 0.1517 0.50823 0.3618 0.0
H914 H 0.15124 0.54285 0.31919 0.0
S915 S 0.90351 0.39328 0.33403 0.0
N916 N 0.94753 0.39819 0.35863 0.0
N917 N 0.94789 0.43545 0.31183 0.0
C918 C 1.00183 0.45558 0.32404 0.0
C919 C 1.00171 0.43536 0.3493 0.0
C920 C 0.64388 0.78801 0.47505 0.0
C921 C 0.67627 0.76135 0.45088 0.0
C922 C 0.65587 0.77133 0.49918 0.0
C923 C 0.70068 0.72761 0.49974 0.0
H924 H 0.60732 0.81975 0.47515 0.0
H925 H 0.62915 0.7919 0.51751 0.0
S926 S 0.79888 0.64623 0.44139 0.0
N927 N 0.75625 0.69133 0.42867 0.0
N928 N 0.7781 0.65913 0.47393 0.0
C929 C 0.73485 0.70239 0.47563 0.0
C930 C 0.72273 0.71945 0.45119 0.0
C931 C 0.19675 1.01438 0.68459 0.0
C932 C 0.17657 0.95711 0.66964 0.0
C933 C 0.18419 1.02179 0.71239 0.0
C934 C 0.1502 0.97247 0.72621 0.0
H935 H 0.2262 0.05216 0.67489 0.0
H936 H 0.2042 0.06546 0.72307 0.0
S937 S 0.07753 0.81696 0.69543 0.0
N938 N 0.11569 0.85257 0.67002 0.0
N939 N 0.08911 0.86742 0.72227 0.0
C940 C 0.12579 0.91654 0.71122 0.0
C941 C 0.13964 0.90868 0.68293 0.0
C942 C 0.81945 0.32964 0.97761 0.0
C943 C 0.83943 0.37832 0.96142 0.0
C944 C 0.8315 0.33731 1.00415 0.0
C945 C 0.86361 0.39415 1.01556 0.0
H946 H 0.79132 0.28643 0.97018 0.0
H947 H 0.81069 0.30055 1.01638 0.0
S948 S 0.93621 0.53218 0.9812 0.0
N949 N 0.90229 0.48218 0.95826 0.0
N950 N 0.92136 0.49702 1.00839 0.0
C951 C 0.88776 0.44142 0.99932 0.0
C952 C 0.87647 0.43352 0.97221 0.0
C953 C 0.54031 0.06104 0.23204 0.0
C954 C 0.48116 0.0539 0.24892 0.0
C955 C 0.53998 0.06709 0.20537 0.0
C956 C 0.48052 0.06771 0.19552 0.0
H957 H 0.58643 0.06678 0.23998 0.0
H958 H 0.586 0.08017 0.19336 0.0
S959 S 0.31319 1.04027 0.23144 0.0
N960 N 0.36236 1.03924 0.25378 0.0
N961 N 0.3618 0.05017 0.2034 0.0
C962 C 0.42144 0.05167 0.21144 0.0
C963 C 0.42172 0.04601 0.23852 0.0
C964 C 0.31775 0.40689 0.60442 0.0
C965 C 0.35092 0.35518 0.60663 0.0
C966 C 0.31416 0.42472 0.57974 0.0
C967 C 0.34279 0.39092 0.55639 0.0
H968 H 0.29672 0.43535 0.62207 0.0
H969 H 0.28992 0.46596 0.57883 0.0
S970 S 0.42867 0.24806 0.55102 0.0
N971 N 0.40883 0.26762 0.58336 0.0
N972 N 0.40007 0.30047 0.53637 0.0
C973 C 0.37214 0.3366 0.55801 0.0
C974 C 0.37655 0.3187 0.58335 0.0
C975 C 0.92681 0.11736 0.37563 0.0
C976 C 0.87357 0.15228 0.38551 0.0
C977 C 0.95051 0.10995 0.34841 0.0
C978 C 0.92078 0.13611 0.33031 0.0
H979 H 0.95041 0.09595 0.389 0.0
H980 H 0.99142 0.0826 0.3413 0.0
S981 S 0.77989 0.2301 0.34558 0.0
N982 N 0.79183 0.21275 0.37468 0.0
N983 N 0.83641 0.19746 0.32356 0.0
C984 C 0.86775 0.17063 0.33976 0.0
C985 C 0.84415 0.17914 0.36739 0.0
C986 C 0.25623 0.6535 0.08121 0.0
C987 C 0.25435 0.71307 0.09671 0.0
C988 C 0.24348 0.64396 0.05498 0.0
C989 C 0.23089 0.69406 0.04218 0.0
H990 H 0.26908 0.6134 0.0891 0.0
H991 H 0.24704 0.59685 0.04432 0.0
S992 S 0.2155 0.85922 0.07387 0.0
N993 N 0.23266 0.82261 0.09774 0.0
N994 N 0.21387 0.80541 0.0474 0.0
C995 C 0.22724 0.75394 0.05738 0.0
C996 C 0.23831 0.7634 0.08473 0.0
C997 C 0.61802 0.92392 0.83952 0.0
C998 C 0.57186 0.94245 0.86139 0.0
C999 C 0.61619 0.94152 0.81448 0.0
C1000 C 0.56786 0.97776 0.81047 0.0
H1001 H 0.65601 0.89589 0.84184 0.0
H1002 H 0.65268 0.92673 0.7981 0.0
S1003 S 0.43753 1.04088 0.86139 0.0
N1004 N 0.47772 1.00085 0.87754 0.0
N1005 N 0.47393 1.03328 0.83036 0.0
C1006 C 0.52106 0.9962 0.83206 0.0
C1007 C 0.52308 0.9786 0.85757 0.0
loop_
_geom_bond_atom_site_label_1
_geom_bond_atom_site_label_2
_geom_bond_distance
_geom_bond_site_symmetry_2
_ccdc_geom_bond_type
Co0 N5 2.057 . S
Co0 O17 2.021 . S
Co0 O20 2.062 . S
Co0 O24 2.117 . S
Co0 O25 2.020 . S
C1 O21 1.259 . S
C1 O24 1.258 . S
Co2 N11 2.057 . S
Co2 O18 2.117 . S
Co2 O19 2.020 . S
Co2 O21 2.021 . S
Co2 O26 2.062 . S
C3 N5 1.316 . S
C3 N6 1.347 1_554 S
C3 H8 0.931 . S
C4 N5 1.375 . S
C4 C7 1.350 1_554 S
C4 H9 0.930 . S
N5 Co0 2.057 . S
N5 C3 1.316 . S
N5 C4 1.375 . S
N6 C3 1.347 1_556 S
N6 C7 1.373 . S
C7 C4 1.350 1_556 S
C7 N6 1.373 . S
C7 H28 0.931 . S
H8 C3 0.931 . S
H9 C4 0.930 . S
C10 O17 1.259 . S
C10 O18 1.258 . S
N11 Co2 2.057 . S
N11 C12 1.316 . S
N11 C13 1.375 . S
C12 N11 1.316 . S
C12 N14 1.347 . S
C12 H23 0.931 . S
C13 N11 1.375 . S
C13 C15 1.350 . S
C13 H22 0.930 . S
N14 C12 1.347 . S
N14 C15 1.373 . S
C15 C13 1.350 . S
C15 N14 1.373 . S
C15 H29 0.931 . S
C16 O19 1.256 . S
C16 O20 1.255 . S
O17 Co0 2.021 . S
O17 C10 1.259 . S
O18 Co2 2.117 . S
O18 C10 1.258 . S
O19 Co2 2.020 . S
O19 C16 1.256 . S
O20 Co0 2.062 . S
O20 C16 1.255 . S
O21 C1 1.259 . S
O21 Co2 2.021 . S
H22 C13 0.930 . S
H23 C12 0.931 . S
O24 Co0 2.117 . S
O24 C1 1.258 . S
O25 Co0 2.020 . S
O25 C27 1.256 . S
O26 Co2 2.062 . S
O26 C27 1.255 . S
C27 O25 1.256 . S
C27 O26 1.255 . S
H28 C7 0.931 . S
H29 C15 0.931 . S
Co30 N35 2.057 . S
Co30 O47 2.021 . S
Co30 O50 2.062 . S
Co30 O54 2.117 . S
Co30 O55 2.020 . S
C31 O51 1.259 . S
C31 O54 1.258 . S
Co32 N41 2.057 . S
Co32 O48 2.117 . S
Co32 O49 2.020 . S
Co32 O51 2.021 . S
Co32 O56 2.062 . S
C33 N35 1.316 . S
C33 N36 1.347 . S
C33 H38 0.931 . S
C34 N35 1.375 . S
C34 C37 1.350 . S
C34 H39 0.930 . S
N35 Co30 2.057 . S
N35 C33 1.316 . S
N35 C34 1.375 . S
N36 C33 1.347 . S
N36 C37 1.373 . S
C37 C34 1.350 . S
C37 N36 1.373 . S
C37 H58 0.931 . S
H38 C33 0.931 . S
H39 C34 0.930 . S
C40 O47 1.259 . S
C40 O48 1.258 . S
N41 Co32 2.057 . S
N41 C42 1.316 . S
N41 C43 1.375 . S
C42 N41 1.316 . S
C42 N44 1.347 . S
C42 H53 0.931 . S
C43 N41 1.375 . S
C43 C45 1.350 . S
C43 H52 0.930 . S
N44 C42 1.347 . S
N44 C45 1.373 . S
C45 C43 1.350 . S
C45 N44 1.373 . S
C45 H59 0.931 . S
C46 O49 1.256 . S
C46 O50 1.255 . S
O47 Co30 2.021 . S
O47 C40 1.259 . S
O48 Co32 2.117 . S
O48 C40 1.258 . S
O49 Co32 2.020 . S
O49 C46 1.256 . S
O50 Co30 2.062 . S
O50 C46 1.255 . S
O51 C31 1.259 . S
O51 Co32 2.021 . S
H52 C43 0.930 . S
H53 C42 0.931 . S
O54 Co30 2.117 . S
O54 C31 1.258 . S
O55 Co30 2.020 . S
O55 C57 1.256 . S
O56 Co32 2.062 . S
O56 C57 1.255 . S
C57 O55 1.256 . S
C57 O56 1.255 . S
H58 C37 0.931 . S
H59 C45 0.931 . S
Co60 N65 2.057 . S
Co60 O77 2.021 . S
Co60 O80 2.062 . S
Co60 O84 2.117 . S
Co60 O85 2.020 . S
C61 O81 1.259 . S
C61 O84 1.258 . S
Co62 N71 2.057 . S
Co62 O78 2.117 . S
Co62 O79 2.020 . S
Co62 O81 2.021 . S
Co62 O86 2.062 . S
C63 N65 1.316 . S
C63 N66 1.347 . S
C63 H68 0.931 . S
C64 N65 1.375 . S
C64 C67 1.350 . S
C64 H69 0.930 . S
N65 Co60 2.057 . S
N65 C63 1.316 . S
N65 C64 1.375 . S
N66 C63 1.347 . S
N66 C67 1.373 . S
C67 C64 1.350 . S
C67 N66 1.373 . S
C67 H88 0.931 . S
H68 C63 0.931 . S
H69 C64 0.930 . S
C70 O77 1.259 . S
C70 O78 1.258 . S
N71 Co62 2.057 . S
N71 C72 1.316 . S
N71 C73 1.375 1_565 S
C72 N71 1.316 . S
C72 N74 1.347 1_565 S
C72 H83 0.931 . S
C73 N71 1.375 1_545 S
C73 C75 1.350 . S
C73 H82 0.930 . S
N74 C72 1.347 1_545 S
N74 C75 1.373 . S
C75 C73 1.350 . S
C75 N74 1.373 . S
C75 H89 0.931 . S
C76 O79 1.256 . S
C76 O80 1.255 . S
O77 Co60 2.021 . S
O77 C70 1.259 . S
O78 Co62 2.117 . S
O78 C70 1.258 . S
O79 Co62 2.020 . S
O79 C76 1.256 . S
O80 Co60 2.062 . S
O80 C76 1.255 . S
O81 C61 1.259 . S
O81 Co62 2.021 . S
H82 C73 0.930 . S
H83 C72 0.931 . S
O84 Co60 2.117 . S
O84 C61 1.258 . S
O85 Co60 2.020 . S
O85 C87 1.256 . S
O86 Co62 2.062 . S
O86 C87 1.255 . S
C87 O85 1.256 . S
C87 O86 1.255 . S
H88 C67 0.931 . S
H89 C75 0.931 . S
Co90 N95 2.057 . S
Co90 O107 2.021 . S
Co90 O110 2.062 . S
Co90 O114 2.117 . S
Co90 O115 2.020 . S
C91 O111 1.259 . S
C91 O114 1.258 . S
Co92 N101 2.057 . S
Co92 O108 2.117 . S
Co92 O109 2.020 . S
Co92 O111 2.021 . S
Co92 O116 2.062 . S
C93 N95 1.316 . S
C93 N96 1.347 . S
C93 H98 0.931 . S
C94 N95 1.375 . S
C94 C97 1.350 . S
C94 H99 0.930 . S
N95 Co90 2.057 . S
N95 C93 1.316 . S
N95 C94 1.375 . S
N96 C93 1.347 . S
N96 C97 1.373 . S
C97 C94 1.350 . S
C97 N96 1.373 . S
C97 H118 0.931 . S
H98 C93 0.931 . S
H99 C94 0.930 . S
C100 O107 1.259 . S
C100 O108 1.258 . S
N101 Co92 2.057 . S
N101 C102 1.316 . S
N101 C103 1.375 . S
C102 N101 1.316 . S
C102 N104 1.347 . S
C102 H113 0.931 . S
C103 N101 1.375 . S
C103 C105 1.350 . S
C103 H112 0.930 . S
N104 C102 1.347 . S
N104 C105 1.373 . S
C105 C103 1.350 . S
C105 N104 1.373 . S
C105 H119 0.931 . S
C106 O109 1.256 . S
C106 O110 1.255 . S
O107 Co90 2.021 . S
O107 C100 1.259 . S
O108 Co92 2.117 . S
O108 C100 1.258 . S
O109 Co92 2.020 . S
O109 C106 1.256 . S
O110 Co90 2.062 . S
O110 C106 1.255 . S
O111 C91 1.259 . S
O111 Co92 2.021 . S
H112 C103 0.930 . S
H113 C102 0.931 . S
O114 Co90 2.117 . S
O114 C91 1.258 . S
O115 Co90 2.020 . S
O115 C117 1.256 . S
O116 Co92 2.062 . S
O116 C117 1.255 . S
C117 O115 1.256 . S
C117 O116 1.255 . S
H118 C97 0.931 . S
H119 C105 0.931 . S
Co120 N125 2.057 . S
Co120 O137 2.021 . S
Co120 O140 2.062 . S
Co120 O144 2.117 . S
Co120 O145 2.020 . S
C121 O141 1.259 . S
C121 O144 1.258 . S
Co122 N131 2.057 . S
Co122 O138 2.117 . S
Co122 O139 2.020 . S
Co122 O141 2.021 . S
Co122 O146 2.062 . S
C123 N125 1.316 . S
C123 N126 1.347 . S
C123 H128 0.931 . S
C124 N125 1.375 . S
C124 C127 1.350 . S
C124 H129 0.930 . S
N125 Co120 2.057 . S
N125 C123 1.316 . S
N125 C124 1.375 . S
N126 C123 1.347 . S
N126 C127 1.373 . S
C127 C124 1.350 . S
C127 N126 1.373 . S
C127 H148 0.931 . S
H128 C123 0.931 . S
H129 C124 0.930 . S
C130 O137 1.259 . S
C130 O138 1.258 . S
N131 Co122 2.057 . S
N131 C132 1.316 . S
N131 C133 1.375 . S
C132 N131 1.316 . S
C132 N134 1.347 1_556 S
C132 H143 0.931 . S
C133 N131 1.375 . S
C133 C135 1.350 1_556 S
C133 H142 0.930 . S
N134 C132 1.347 1_554 S
N134 C135 1.373 . S
C135 C133 1.350 1_554 S
C135 N134 1.373 . S
C135 H149 0.931 . S
C136 O139 1.256 . S
C136 O140 1.255 . S
O137 Co120 2.021 . S
O137 C130 1.259 . S
O138 Co122 2.117 . S
O138 C130 1.258 . S
O139 Co122 2.020 . S
O139 C136 1.256 . S
O140 Co120 2.062 . S
O140 C136 1.255 . S
O141 C121 1.259 . S
O141 Co122 2.021 . S
H142 C133 0.930 . S
H143 C132 0.931 . S
O144 Co120 2.117 . S
O144 C121 1.258 . S
O145 Co120 2.020 . S
O145 C147 1.256 . S
O146 Co122 2.062 . S
O146 C147 1.255 . S
C147 O145 1.256 . S
C147 O146 1.255 . S
H148 C127 0.931 . S
H149 C135 0.931 . S
Co150 N155 2.057 . S
Co150 O167 2.021 . S
Co150 O170 2.062 . S
Co150 O174 2.117 . S
Co150 O175 2.020 . S
C151 O171 1.259 . S
C151 O174 1.258 . S
Co152 N161 2.057 . S
Co152 O168 2.117 . S
Co152 O169 2.020 . S
Co152 O171 2.021 . S
Co152 O176 2.062 . S
C153 N155 1.316 . S
C153 N156 1.347 . S
C153 H158 0.931 . S
C154 N155 1.375 . S
C154 C157 1.350 . S
C154 H159 0.930 . S
N155 Co150 2.057 . S
N155 C153 1.316 . S
N155 C154 1.375 . S
N156 C153 1.347 . S
N156 C157 1.373 . S
C157 C154 1.350 . S
C157 N156 1.373 . S
C157 H178 0.931 . S
H158 C153 0.931 . S
H159 C154 0.930 . S
C160 O167 1.259 . S
C160 O168 1.258 . S
N161 Co152 2.057 . S
N161 C162 1.316 . S
N161 C163 1.375 . S
C162 N161 1.316 . S
C162 N164 1.347 . S
C162 H173 0.931 . S
C163 N161 1.375 . S
C163 C165 1.350 . S
C163 H172 0.930 . S
N164 C162 1.347 . S
N164 C165 1.373 . S
C165 C163 1.350 . S
C165 N164 1.373 . S
C165 H179 0.931 . S
C166 O169 1.256 . S
C166 O170 1.255 . S
O167 Co150 2.021 . S
O167 C160 1.259 . S
O168 Co152 2.117 . S
O168 C160 1.258 . S
O169 Co152 2.020 . S
O169 C166 1.256 . S
O170 Co150 2.062 . S
O170 C166 1.255 . S
O171 C151 1.259 . S
O171 Co152 2.021 . S
H172 C163 0.930 . S
H173 C162 0.931 . S
O174 Co150 2.117 . S
O174 C151 1.258 . S
O175 Co150 2.020 . S
O175 C177 1.256 . S
O176 Co152 2.062 . S
O176 C177 1.255 . S
C177 O175 1.256 . S
C177 O176 1.255 . S
H178 C157 0.931 . S
H179 C165 0.931 . S
Co180 N185 2.057 . S
Co180 O197 2.021 . S
Co180 O200 2.062 . S
Co180 O204 2.117 . S
Co180 O205 2.020 . S
C181 O201 1.259 . S
C181 O204 1.258 . S
Co182 N191 2.057 . S
Co182 O198 2.117 . S
Co182 O199 2.020 . S
Co182 O201 2.021 . S
Co182 O206 2.062 . S
C183 N185 1.316 . S
C183 N186 1.347 1_545 S
C183 H188 0.931 . S
C184 N185 1.375 1_565 S
C184 C187 1.350 . S
C184 H189 0.930 . S
N185 Co180 2.057 . S
N185 C183 1.316 . S
N185 C184 1.375 1_545 S
N186 C183 1.347 1_565 S
N186 C187 1.373 . S
C187 C184 1.350 . S
C187 N186 1.373 . S
C187 H208 0.931 . S
H188 C183 0.931 . S
H189 C184 0.930 . S
C190 O197 1.259 . S
C190 O198 1.258 . S
N191 Co182 2.057 . S
N191 C192 1.316 . S
N191 C193 1.375 . S
C192 N191 1.316 . S
C192 N194 1.347 . S
C192 H203 0.931 . S
C193 N191 1.375 . S
C193 C195 1.350 . S
C193 H202 0.930 . S
N194 C192 1.347 . S
N194 C195 1.373 . S
C195 C193 1.350 . S
C195 N194 1.373 . S
C195 H209 0.931 . S
C196 O199 1.256 . S
C196 O200 1.255 . S
O197 Co180 2.021 . S
O197 C190 1.259 . S
O198 Co182 2.117 . S
O198 C190 1.258 . S
O199 Co182 2.020 . S
O199 C196 1.256 . S
O200 Co180 2.062 . S
O200 C196 1.255 . S
O201 C181 1.259 . S
O201 Co182 2.021 . S
H202 C193 0.930 . S
H203 C192 0.931 . S
O204 Co180 2.117 . S
O204 C181 1.258 . S
O205 Co180 2.020 . S
O205 C207 1.256 . S
O206 Co182 2.062 . S
O206 C207 1.255 . S
C207 O205 1.256 . S
C207 O206 1.255 . S
H208 C187 0.931 . S
H209 C195 0.931 . S
Co210 N215 2.057 . S
Co210 O227 2.021 . S
Co210 O230 2.062 . S
Co210 O234 2.117 . S
Co210 O235 2.020 . S
C211 O231 1.259 . S
C211 O234 1.258 . S
Co212 N221 2.057 . S
Co212 O228 2.117 . S
Co212 O229 2.020 . S
Co212 O231 2.021 . S
Co212 O236 2.062 . S
C213 N215 1.316 . S
C213 N216 1.347 . S
C213 H218 0.931 . S
C214 N215 1.375 . S
C214 C217 1.350 . S
C214 H219 0.930 . S
N215 Co210 2.057 . S
N215 C213 1.316 . S
N215 C214 1.375 . S
N216 C213 1.347 . S
N216 C217 1.373 . S
C217 C214 1.350 . S
C217 N216 1.373 . S
C217 H238 0.931 . S
H218 C213 0.931 . S
H219 C214 0.930 . S
C220 O227 1.259 . S
C220 O228 1.258 . S
N221 Co212 2.057 . S
N221 C222 1.316 . S
N221 C223 1.375 . S
C222 N221 1.316 . S
C222 N224 1.347 . S
C222 H233 0.931 . S
C223 N221 1.375 . S
C223 C225 1.350 . S
C223 H232 0.930 . S
N224 C222 1.347 . S
N224 C225 1.373 . S
C225 C223 1.350 . S
C225 N224 1.373 . S
C225 H239 0.931 . S
C226 O229 1.256 . S
C226 O230 1.255 . S
O227 Co210 2.021 . S
O227 C220 1.259 . S
O228 Co212 2.117 . S
O228 C220 1.258 . S
O229 Co212 2.020 . S
O229 C226 1.256 . S
O230 Co210 2.062 . S
O230 C226 1.255 . S
O231 C211 1.259 . S
O231 Co212 2.021 . S
H232 C223 0.930 . S
H233 C222 0.931 . S
O234 Co210 2.117 . S
O234 C211 1.258 . S
O235 Co210 2.020 . S
O235 C237 1.256 . S
O236 Co212 2.062 . S
O236 C237 1.255 . S
C237 O235 1.256 . S
C237 O236 1.255 . S
H238 C217 0.931 . S
H239 C225 0.931 . S
Co240 N245 2.057 . S
Co240 O257 2.021 . S
Co240 O260 2.062 . S
Co240 O264 2.117 . S
Co240 O265 2.020 . S
C241 O261 1.259 . S
C241 O264 1.258 . S
Co242 N251 2.057 . S
Co242 O258 2.117 . S
Co242 O259 2.020 . S
Co242 O261 2.021 . S
Co242 O266 2.062 . S
C243 N245 1.316 . S
C243 N246 1.347 . S
C243 H248 0.931 . S
C244 N245 1.375 . S
C244 C247 1.350 . S
C244 H249 0.930 . S
N245 Co240 2.057 . S
N245 C243 1.316 . S
N245 C244 1.375 . S
N246 C243 1.347 . S
N246 C247 1.373 . S
C247 C244 1.350 . S
C247 N246 1.373 . S
C247 H268 0.931 . S
H248 C243 0.931 . S
H249 C244 0.930 . S
C250 O257 1.259 . S
C250 O258 1.258 . S
N251 Co242 2.057 . S
N251 C252 1.316 . S
N251 C253 1.375 . S
C252 N251 1.316 . S
C252 N254 1.347 . S
C252 H263 0.931 . S
C253 N251 1.375 . S
C253 C255 1.350 . S
C253 H262 0.930 . S
N254 C252 1.347 . S
N254 C255 1.373 . S
C255 C253 1.350 . S
C255 N254 1.373 . S
C255 H269 0.931 1_655 S
C256 O259 1.256 . S
C256 O260 1.255 . S
O257 Co240 2.021 . S
O257 C250 1.259 . S
O258 Co242 2.117 . S
O258 C250 1.258 . S
O259 Co242 2.020 . S
O259 C256 1.256 . S
O260 Co240 2.062 . S
O260 C256 1.255 . S
O261 C241 1.259 . S
O261 Co242 2.021 . S
H262 C253 0.930 . S
H263 C252 0.931 . S
O264 Co240 2.117 . S
O264 C241 1.258 . S
O265 Co240 2.020 . S
O265 C267 1.256 . S
O266 Co242 2.062 . S
O266 C267 1.255 . S
C267 O265 1.256 . S
C267 O266 1.255 . S
H268 C247 0.931 . S
H269 C255 0.931 1_455 S
Co270 N275 2.057 . S
Co270 O287 2.021 . S
Co270 O290 2.062 . S
Co270 O294 2.117 . S
Co270 O295 2.020 1_455 S
C271 O291 1.259 . S
C271 O294 1.258 . S
Co272 N281 2.057 . S
Co272 O288 2.117 . S
Co272 O289 2.020 . S
Co272 O291 2.021 . S
Co272 O296 2.062 . S
C273 N275 1.316 . S
C273 N276 1.347 1_545 S
C273 H278 0.931 . S
C274 N275 1.375 1_565 S
C274 C277 1.350 . S
C274 H279 0.930 . S
N275 Co270 2.057 . S
N275 C273 1.316 . S
N275 C274 1.375 1_545 S
N276 C273 1.347 1_565 S
N276 C277 1.373 . S
C277 C274 1.350 . S
C277 N276 1.373 . S
C277 H298 0.931 . S
H278 C273 0.931 . S
H279 C274 0.930 . S
C280 O287 1.259 . S
C280 O288 1.258 . S
N281 Co272 2.057 . S
N281 C282 1.316 . S
N281 C283 1.375 . S
C282 N281 1.316 . S
C282 N284 1.347 . S
C282 H293 0.931 . S
C283 N281 1.375 . S
C283 C285 1.350 . S
C283 H292 0.930 . S
N284 C282 1.347 . S
N284 C285 1.373 . S
C285 C283 1.350 . S
C285 N284 1.373 . S
C285 H299 0.931 . S
C286 O289 1.256 . S
C286 O290 1.255 . S
O287 Co270 2.021 . S
O287 C280 1.259 . S
O288 Co272 2.117 . S
O288 C280 1.258 . S
O289 Co272 2.020 . S
O289 C286 1.256 . S
O290 Co270 2.062 . S
O290 C286 1.255 . S
O291 C271 1.259 . S
O291 Co272 2.021 . S
H292 C283 0.930 . S
H293 C282 0.931 . S
O294 Co270 2.117 . S
O294 C271 1.258 . S
O295 Co270 2.020 1_655 S
O295 C297 1.256 . S
O296 Co272 2.062 . S
O296 C297 1.255 1_455 S
C297 O295 1.256 . S
C297 O296 1.255 1_655 S
H298 C277 0.931 . S
H299 C285 0.931 . S
Co300 N305 2.057 . S
Co300 O317 2.021 . S
Co300 O320 2.062 . S
Co300 O324 2.117 . S
Co300 O325 2.020 . S
C301 O321 1.259 . S
C301 O324 1.258 . S
Co302 N311 2.057 . S
Co302 O318 2.117 . S
Co302 O319 2.020 . S
Co302 O321 2.021 . S
Co302 O326 2.062 . S
C303 N305 1.316 . S
C303 N306 1.347 . S
C303 H308 0.931 . S
C304 N305 1.375 . S
C304 C307 1.350 . S
C304 H309 0.930 . S
N305 Co300 2.057 . S
N305 C303 1.316 . S
N305 C304 1.375 . S
N306 C303 1.347 . S
N306 C307 1.373 . S
C307 C304 1.350 . S
C307 N306 1.373 . S
C307 H328 0.931 . S
H308 C303 0.931 . S
H309 C304 0.930 . S
C310 O317 1.259 . S
C310 O318 1.258 . S
N311 Co302 2.057 . S
N311 C312 1.316 . S
N311 C313 1.375 . S
C312 N311 1.316 . S
C312 N314 1.347 . S
C312 H323 0.931 . S
C313 N311 1.375 . S
C313 C315 1.350 . S
C313 H322 0.930 . S
N314 C312 1.347 . S
N314 C315 1.373 . S
C315 C313 1.350 . S
C315 N314 1.373 . S
C315 H329 0.931 . S
C316 O319 1.256 . S
C316 O320 1.255 . S
O317 Co300 2.021 . S
O317 C310 1.259 . S
O318 Co302 2.117 . S
O318 C310 1.258 . S
O319 Co302 2.020 . S
O319 C316 1.256 . S
O320 Co300 2.062 . S
O320 C316 1.255 . S
O321 C301 1.259 . S
O321 Co302 2.021 . S
H322 C313 0.930 . S
H323 C312 0.931 . S
O324 Co300 2.117 . S
O324 C301 1.258 . S
O325 Co300 2.020 . S
O325 C327 1.256 . S
O326 Co302 2.062 . S
O326 C327 1.255 . S
C327 O325 1.256 . S
C327 O326 1.255 . S
H328 C307 0.931 . S
H329 C315 0.931 . S
Co330 N335 2.057 . S
Co330 O347 2.021 . S
Co330 O350 2.062 . S
Co330 O354 2.117 . S
Co330 O355 2.020 . S
C331 O351 1.259 . S
C331 O354 1.258 . S
Co332 N341 2.057 . S
Co332 O348 2.117 . S
Co332 O349 2.020 . S
Co332 O351 2.021 . S
Co332 O356 2.062 . S
C333 N335 1.316 . S
C333 N336 1.347 . S
C333 H338 0.931 . S
C334 N335 1.375 1_545 S
C334 C337 1.350 . S
C334 H339 0.930 . S
N335 Co330 2.057 . S
N335 C333 1.316 . S
N335 C334 1.375 1_565 S
N336 C333 1.347 . S
N336 C337 1.373 1_565 S
C337 C334 1.350 . S
C337 N336 1.373 1_545 S
C337 H358 0.931 . S
H338 C333 0.931 . S
H339 C334 0.930 . S
C340 O347 1.259 . S
C340 O348 1.258 . S
N341 Co332 2.057 . S
N341 C342 1.316 . S
N341 C343 1.375 . S
C342 N341 1.316 . S
C342 N344 1.347 . S
C342 H353 0.931 . S
C343 N341 1.375 . S
C343 C345 1.350 . S
C343 H352 0.930 . S
N344 C342 1.347 . S
N344 C345 1.373 . S
C345 C343 1.350 . S
C345 N344 1.373 . S
C345 H359 0.931 . S
C346 O349 1.256 . S
C346 O350 1.255 . S
O347 Co330 2.021 . S
O347 C340 1.259 . S
O348 Co332 2.117 . S
O348 C340 1.258 . S
O349 Co332 2.020 . S
O349 C346 1.256 . S
O350 Co330 2.062 . S
O350 C346 1.255 . S
O351 C331 1.259 . S
O351 Co332 2.021 . S
H352 C343 0.930 . S
H353 C342 0.931 . S
O354 Co330 2.117 . S
O354 C331 1.258 . S
O355 Co330 2.020 . S
O355 C357 1.256 . S
O356 Co332 2.062 . S
O356 C357 1.255 . S
C357 O355 1.256 . S
C357 O356 1.255 . S
H358 C337 0.931 . S
H359 C345 0.931 . S
Co360 N365 2.057 . S
Co360 O377 2.021 . S
Co360 O380 2.062 . S
Co360 O384 2.117 . S
Co360 O385 2.020 . S
C361 O381 1.259 . S
C361 O384 1.258 . S
Co362 N371 2.057 . S
Co362 O378 2.117 . S
Co362 O379 2.020 . S
Co362 O381 2.021 . S
Co362 O386 2.062 . S
C363 N365 1.316 . S
C363 N366 1.347 . S
C363 H368 0.931 . S
C364 N365 1.375 . S
C364 C367 1.350 . S
C364 H369 0.930 . S
N365 Co360 2.057 . S
N365 C363 1.316 . S
N365 C364 1.375 . S
N366 C363 1.347 . S
N366 C367 1.373 . S
C367 C364 1.350 . S
C367 N366 1.373 . S
C367 H388 0.931 1_455 S
H368 C363 0.931 . S
H369 C364 0.930 . S
C370 O377 1.259 . S
C370 O378 1.258 . S
N371 Co362 2.057 . S
N371 C372 1.316 . S
N371 C373 1.375 . S
C372 N371 1.316 . S
C372 N374 1.347 . S
C372 H383 0.931 . S
C373 N371 1.375 . S
C373 C375 1.350 . S
C373 H382 0.930 . S
N374 C372 1.347 . S
N374 C375 1.373 . S
C375 C373 1.350 . S
C375 N374 1.373 . S
C375 H389 0.931 . S
C376 O379 1.256 . S
C376 O380 1.255 . S
O377 Co360 2.021 . S
O377 C370 1.259 . S
O378 Co362 2.117 . S
O378 C370 1.258 . S
O379 Co362 2.020 . S
O379 C376 1.256 . S
O380 Co360 2.062 . S
O380 C376 1.255 . S
O381 C361 1.259 . S
O381 Co362 2.021 . S
H382 C373 0.930 . S
H383 C372 0.931 . S
O384 Co360 2.117 . S
O384 C361 1.258 . S
O385 Co360 2.020 . S
O385 C387 1.256 . S
O386 Co362 2.062 . S
O386 C387 1.255 . S
C387 O385 1.256 . S
C387 O386 1.255 . S
H388 C367 0.931 1_655 S
H389 C375 0.931 . S
Co390 N395 2.057 . S
Co390 O407 2.021 . S
Co390 O410 2.062 . S
Co390 O414 2.117 . S
Co390 O415 2.020 . S
C391 O411 1.259 . S
C391 O414 1.258 . S
Co392 N401 2.057 . S
Co392 O408 2.117 . S
Co392 O409 2.020 1_655 S
Co392 O411 2.021 . S
Co392 O416 2.062 . S
C393 N395 1.316 . S
C393 N396 1.347 . S
C393 H398 0.931 . S
C394 N395 1.375 . S
C394 C397 1.350 . S
C394 H399 0.930 . S
N395 Co390 2.057 . S
N395 C393 1.316 . S
N395 C394 1.375 . S
N396 C393 1.347 . S
N396 C397 1.373 . S
C397 C394 1.350 . S
C397 N396 1.373 . S
C397 H418 0.931 . S
H398 C393 0.931 . S
H399 C394 0.930 . S
C400 O407 1.259 . S
C400 O408 1.258 . S
N401 Co392 2.057 . S
N401 C402 1.316 . S
N401 C403 1.375 1_565 S
C402 N401 1.316 . S
C402 N404 1.347 1_565 S
C402 H413 0.931 . S
C403 N401 1.375 1_545 S
C403 C405 1.350 . S
C403 H412 0.930 . S
N404 C402 1.347 1_545 S
N404 C405 1.373 . S
C405 C403 1.350 . S
C405 N404 1.373 . S
C405 H419 0.931 . S
C406 O409 1.256 . S
C406 O410 1.255 1_455 S
O407 Co390 2.021 . S
O407 C400 1.259 . S
O408 Co392 2.117 . S
O408 C400 1.258 . S
O409 Co392 2.020 1_455 S
O409 C406 1.256 . S
O410 Co390 2.062 . S
O410 C406 1.255 1_655 S
O411 C391 1.259 . S
O411 Co392 2.021 . S
H412 C403 0.930 . S
H413 C402 0.931 . S
O414 Co390 2.117 . S
O414 C391 1.258 . S
O415 Co390 2.020 . S
O415 C417 1.256 . S
O416 Co392 2.062 . S
O416 C417 1.255 . S
C417 O415 1.256 . S
C417 O416 1.255 . S
H418 C397 0.931 . S
H419 C405 0.931 . S
Co420 N425 2.057 . S
Co420 O437 2.021 . S
Co420 O440 2.062 . S
Co420 O444 2.117 . S
Co420 O445 2.020 . S
C421 O441 1.259 . S
C421 O444 1.258 . S
Co422 N431 2.057 . S
Co422 O438 2.117 . S
Co422 O439 2.020 . S
Co422 O441 2.021 . S
Co422 O446 2.062 . S
C423 N425 1.316 . S
C423 N426 1.347 . S
C423 H428 0.931 . S
C424 N425 1.375 . S
C424 C427 1.350 . S
C424 H429 0.930 . S
N425 Co420 2.057 . S
N425 C423 1.316 . S
N425 C424 1.375 . S
N426 C423 1.347 . S
N426 C427 1.373 . S
C427 C424 1.350 . S
C427 N426 1.373 . S
C427 H448 0.931 . S
H428 C423 0.931 . S
H429 C424 0.930 . S
C430 O437 1.259 . S
C430 O438 1.258 . S
N431 Co422 2.057 . S
N431 C432 1.316 . S
N431 C433 1.375 . S
C432 N431 1.316 . S
C432 N434 1.347 . S
C432 H443 0.931 . S
C433 N431 1.375 . S
C433 C435 1.350 . S
C433 H442 0.930 . S
N434 C432 1.347 . S
N434 C435 1.373 . S
C435 C433 1.350 . S
C435 N434 1.373 . S
C435 H449 0.931 . S
C436 O439 1.256 . S
C436 O440 1.255 . S
O437 Co420 2.021 . S
O437 C430 1.259 . S
O438 Co422 2.117 . S
O438 C430 1.258 . S
O439 Co422 2.020 . S
O439 C436 1.256 . S
O440 Co420 2.062 . S
O440 C436 1.255 . S
O441 C421 1.259 . S
O441 Co422 2.021 . S
H442 C433 0.930 . S
H443 C432 0.931 . S
O444 Co420 2.117 . S
O444 C421 1.258 . S
O445 Co420 2.020 . S
O445 C447 1.256 . S
O446 Co422 2.062 . S
O446 C447 1.255 . S
C447 O445 1.256 . S
C447 O446 1.255 . S
H448 C427 0.931 . S
H449 C435 0.931 . S
Co450 N455 2.057 . S
Co450 O467 2.021 . S
Co450 O470 2.062 . S
Co450 O474 2.117 . S
Co450 O475 2.020 . S
C451 O471 1.259 . S
C451 O474 1.258 . S
Co452 N461 2.057 . S
Co452 O468 2.117 . S
Co452 O469 2.020 . S
Co452 O471 2.021 . S
Co452 O476 2.062 . S
C453 N455 1.316 . S
C453 N456 1.347 . S
C453 H458 0.931 . S
C454 N455 1.375 . S
C454 C457 1.350 . S
C454 H459 0.930 . S
N455 Co450 2.057 . S
N455 C453 1.316 . S
N455 C454 1.375 . S
N456 C453 1.347 . S
N456 C457 1.373 . S
C457 C454 1.350 . S
C457 N456 1.373 . S
C457 H478 0.931 . S
H458 C453 0.931 . S
H459 C454 0.930 . S
C460 O467 1.259 . S
C460 O468 1.258 . S
N461 Co452 2.057 . S
N461 C462 1.316 . S
N461 C463 1.375 1_545 S
C462 N461 1.316 . S
C462 N464 1.347 . S
C462 H473 0.931 . S
C463 N461 1.375 1_565 S
C463 C465 1.350 . S
C463 H472 0.930 . S
N464 C462 1.347 . S
N464 C465 1.373 1_545 S
C465 C463 1.350 . S
C465 N464 1.373 1_565 S
C465 H479 0.931 . S
C466 O469 1.256 . S
C466 O470 1.255 . S
O467 Co450 2.021 . S
O467 C460 1.259 . S
O468 Co452 2.117 . S
O468 C460 1.258 . S
O469 Co452 2.020 . S
O469 C466 1.256 . S
O470 Co450 2.062 . S
O470 C466 1.255 . S
O471 C451 1.259 . S
O471 Co452 2.021 . S
H472 C463 0.930 . S
H473 C462 0.931 . S
O474 Co450 2.117 . S
O474 C451 1.258 . S
O475 Co450 2.020 . S
O475 C477 1.256 . S
O476 Co452 2.062 . S
O476 C477 1.255 . S
C477 O475 1.256 . S
C477 O476 1.255 . S
H478 C457 0.931 . S
H479 C465 0.931 . S
C480 C481 1.369 . S
C480 C482 1.419 . S
C480 H484 0.930 . S
C481 C480 1.369 . S
C481 C490 1.429 . S
C482 C480 1.419 . S
C482 C483 1.363 . S
C482 H485 0.929 . S
C483 C482 1.363 . S
C483 C489 1.428 . S
H484 C480 0.930 . S
H485 C482 0.929 . S
S486 N487 1.613 . S
S486 N488 1.610 . S
N487 S486 1.613 . S
N487 C490 1.350 . S
N488 S486 1.610 . S
N488 C489 1.351 . S
C489 C483 1.428 . S
C489 N488 1.351 . S
C489 C490 1.434 . S
C490 C481 1.429 . S
C490 N487 1.350 . S
C490 C489 1.434 . S
C491 C492 1.369 . S
C491 C493 1.419 . S
C491 H495 0.930 . S
C492 C491 1.369 . S
C492 C501 1.429 . S
C493 C491 1.419 . S
C493 C494 1.363 . S
C493 H496 0.929 . S
C494 C493 1.363 . S
C494 C500 1.428 . S
H495 C491 0.930 . S
H496 C493 0.929 . S
S497 N498 1.613 . S
S497 N499 1.610 . S
N498 S497 1.613 . S
N498 C501 1.350 . S
N499 S497 1.610 . S
N499 C500 1.351 . S
C500 C494 1.428 . S
C500 N499 1.351 . S
C500 C501 1.434 . S
C501 C492 1.429 . S
C501 N498 1.350 . S
C501 C500 1.434 . S
C502 C503 1.369 . S
C502 C504 1.419 1_455 S
C502 H506 0.930 . S
C503 C502 1.369 . S
C503 C512 1.429 . S
C504 C502 1.419 1_655 S
C504 C505 1.363 . S
C504 H507 0.929 . S
C505 C504 1.363 . S
C505 C511 1.419 1_655 S
H506 C502 0.930 . S
H507 C504 0.929 . S
S508 N509 1.613 . S
S508 N510 1.610 1_455 S
N509 S508 1.613 . S
N509 C512 1.350 . S
N510 S508 1.610 1_655 S
N510 C511 1.346 1_655 S
C511 C505 1.419 1_455 S
C511 N510 1.346 1_455 S
C511 C512 1.450 . S
C512 C503 1.429 . S
C512 N509 1.350 . S
C512 C511 1.450 . S
C513 C514 1.369 . S
C513 C515 1.419 . S
C513 H517 0.930 . S
C514 C513 1.369 . S
C514 C523 1.429 1_455 S
C515 C513 1.419 . S
C515 C516 1.363 1_455 S
C515 H518 0.929 . S
C516 C515 1.363 1_655 S
C516 C522 1.428 . S
H517 C513 0.930 . S
H518 C515 0.929 . S
S519 N520 1.613 . S
S519 N521 1.610 . S
N520 S519 1.613 . S
N520 C523 1.350 . S
N521 S519 1.610 . S
N521 C522 1.351 . S
C522 C516 1.428 . S
C522 N521 1.351 . S
C522 C523 1.434 . S
C523 C514 1.429 1_655 S
C523 N520 1.350 . S
C523 C522 1.434 . S
C524 C525 1.369 . S
C524 C526 1.419 . S
C524 H528 0.930 . S
C525 C524 1.369 . S
C525 C534 1.429 . S
C526 C524 1.419 . S
C526 C527 1.363 . S
C526 H529 0.929 . S
C527 C526 1.363 . S
C527 C533 1.428 . S
H528 C524 0.930 . S
H529 C526 0.929 . S
S530 N531 1.613 . S
S530 N532 1.610 . S
N531 S530 1.613 . S
N531 C534 1.350 . S
N532 S530 1.610 . S
N532 C533 1.351 . S
C533 C527 1.428 . S
C533 N532 1.351 . S
C533 C534 1.434 . S
C534 C525 1.429 . S
C534 N531 1.350 . S
C534 C533 1.434 . S
C535 C536 1.369 . S
C535 C537 1.419 . S
C535 H539 0.930 . S
C536 C535 1.369 . S
C536 C545 1.429 . S
C537 C535 1.419 . S
C537 C538 1.363 . S
C537 H540 0.929 . S
C538 C537 1.363 . S
C538 C544 1.428 . S
H539 C535 0.930 . S
H540 C537 0.929 . S
S541 N542 1.613 . S
S541 N543 1.610 . S
N542 S541 1.613 . S
N542 C545 1.350 . S
N543 S541 1.610 . S
N543 C544 1.351 . S
C544 C538 1.428 . S
C544 N543 1.351 . S
C544 C545 1.434 . S
C545 C536 1.429 . S
C545 N542 1.350 . S
C545 C544 1.434 . S
C546 C547 1.369 1_655 S
C546 C548 1.419 . S
C546 H550 0.926 1_655 S
C547 C546 1.369 1_455 S
C547 C556 1.429 . S
C548 C546 1.419 . S
C548 C549 1.363 . S
C548 H551 0.929 . S
C549 C548 1.363 . S
C549 C555 1.428 . S
H550 C546 0.926 1_455 S
H551 C548 0.929 . S
S552 N553 1.613 . S
S552 N554 1.610 1_455 S
N553 S552 1.613 . S
N553 C556 1.350 . S
N554 S552 1.610 1_655 S
N554 C555 1.351 . S
C555 C549 1.428 . S
C555 N554 1.351 . S
C555 C556 1.434 1_655 S
C556 C547 1.429 . S
C556 N553 1.350 . S
C556 C555 1.434 1_455 S
C557 C558 1.369 . S
C557 C559 1.419 . S
C557 H561 0.930 . S
C558 C557 1.369 . S
C558 C567 1.429 . S
C559 C557 1.419 . S
C559 C560 1.363 1_455 S
C559 H562 0.929 . S
C560 C559 1.363 1_655 S
C560 C566 1.428 . S
H561 C557 0.930 . S
H562 C559 0.929 . S
S563 N564 1.613 . S
S563 N565 1.610 . S
N564 S563 1.613 . S
N564 C567 1.350 1_655 S
N565 S563 1.610 . S
N565 C566 1.351 . S
C566 C560 1.428 . S
C566 N565 1.351 . S
C566 C567 1.434 1_655 S
C567 C558 1.429 . S
C567 N564 1.350 1_455 S
C567 C566 1.434 1_455 S
C568 C569 1.365 1_566 S
C568 C570 1.421 . S
C568 H572 0.931 . S
C569 C568 1.365 1_544 S
C569 C578 1.429 . S
C570 C568 1.421 . S
C570 C571 1.363 . S
C570 H573 0.929 . S
C571 C570 1.363 . S
C571 C577 1.399 1_566 S
H572 C568 0.931 . S
H573 C570 0.929 . S
S574 N575 1.613 . S
S574 N576 1.610 . S
N575 S574 1.613 . S
N575 C578 1.350 . S
N576 S574 1.610 . S
N576 C577 1.360 . S
C577 C571 1.399 1_544 S
C577 N576 1.360 . S
C577 C578 1.459 . S
C578 C569 1.429 . S
C578 N575 1.350 . S
C578 C577 1.459 . S
C579 C580 1.369 . S
C579 C581 1.419 . S
C579 H583 0.930 . S
C580 C579 1.369 . S
C580 C589 1.429 . S
C581 C579 1.419 . S
C581 C582 1.363 . S
C581 H584 0.929 . S
C582 C581 1.363 . S
C582 C588 1.428 . S
H583 C579 0.930 . S
H584 C581 0.929 . S
S585 N586 1.613 . S
S585 N587 1.610 . S
N586 S585 1.613 . S
N586 C589 1.350 . S
N587 S585 1.610 . S
N587 C588 1.351 . S
C588 C582 1.428 . S
C588 N587 1.351 . S
C588 C589 1.434 . S
C589 C580 1.429 . S
C589 N586 1.350 . S
C589 C588 1.434 . S
C590 C591 1.369 1_565 S
C590 C592 1.419 1_455 S
C590 H594 0.930 . S
C591 C590 1.369 1_545 S
C591 C600 1.429 . S
C592 C590 1.419 1_655 S
C592 C593 1.363 . S
C592 H595 0.929 . S
C593 C592 1.363 . S
C593 C599 1.428 1_565 S
H594 C590 0.930 . S
H595 C592 0.929 . S
S596 N597 1.613 . S
S596 N598 1.610 . S
N597 S596 1.613 . S
N597 C600 1.350 . S
N598 S596 1.610 . S
N598 C599 1.351 1_455 S
C599 C593 1.428 1_545 S
C599 N598 1.351 1_655 S
C599 C600 1.434 1_655 S
C600 C591 1.429 . S
C600 N597 1.350 . S
C600 C599 1.434 1_455 S
C601 C602 1.369 . S
C601 C603 1.419 . S
C601 H605 0.930 . S
C602 C601 1.369 . S
C602 C611 1.429 . S
C603 C601 1.419 . S
C603 C604 1.363 . S
C603 H606 0.929 . S
C604 C603 1.363 . S
C604 C610 1.428 . S
H605 C601 0.930 . S
H606 C603 0.929 . S
S607 N608 1.613 . S
S607 N609 1.610 . S
N608 S607 1.613 . S
N608 C611 1.350 . S
N609 S607 1.610 . S
N609 C610 1.351 . S
C610 C604 1.428 . S
C610 N609 1.351 . S
C610 C611 1.434 . S
C611 C602 1.429 . S
C611 N608 1.350 . S
C611 C610 1.434 . S
C612 C613 1.369 . S
C612 C614 1.419 . S
C612 H616 0.930 . S
C613 C612 1.369 . S
C613 C622 1.429 . S
C614 C612 1.419 . S
C614 C615 1.363 . S
C614 H617 0.929 . S
C615 C614 1.363 . S
C615 C621 1.428 . S
H616 C612 0.930 . S
H617 C614 0.929 . S
S618 N619 1.613 . S
S618 N620 1.610 . S
N619 S618 1.613 . S
N619 C622 1.350 . S
N620 S618 1.610 . S
N620 C621 1.351 . S
C621 C615 1.428 . S
C621 N620 1.351 . S
C621 C622 1.434 . S
C622 C613 1.429 . S
C622 N619 1.350 . S
C622 C621 1.434 . S
C623 C624 1.369 . S
C623 C625 1.419 . S
C623 H627 0.930 . S
C624 C623 1.369 . S
C624 C633 1.429 . S
C625 C623 1.419 . S
C625 C626 1.363 . S
C625 H628 0.929 . S
C626 C625 1.363 . S
C626 C632 1.428 . S
H627 C623 0.930 . S
H628 C625 0.929 . S
S629 N630 1.613 . S
S629 N631 1.610 . S
N630 S629 1.613 . S
N630 C633 1.350 . S
N631 S629 1.610 . S
N631 C632 1.351 . S
C632 C626 1.428 . S
C632 N631 1.351 . S
C632 C633 1.434 . S
C633 C624 1.429 . S
C633 N630 1.350 . S
C633 C632 1.434 . S
C634 C635 1.369 . S
C634 C636 1.419 . S
C634 H638 0.930 . S
C635 C634 1.369 . S
C635 C644 1.429 1_455 S
C636 C634 1.419 . S
C636 C637 1.363 1_455 S
C636 H639 0.929 . S
C637 C636 1.363 1_655 S
C637 C643 1.428 . S
H638 C634 0.930 . S
H639 C636 0.929 . S
S640 N641 1.613 . S
S640 N642 1.610 . S
N641 S640 1.613 . S
N641 C644 1.350 . S
N642 S640 1.610 . S
N642 C643 1.351 . S
C643 C637 1.428 . S
C643 N642 1.351 . S
C643 C644 1.434 . S
C644 C635 1.429 1_655 S
C644 N641 1.350 . S
C644 C643 1.434 . S
C645 C646 1.369 . S
C645 C647 1.419 . S
C645 H649 0.930 . S
C646 C645 1.369 . S
C646 C655 1.429 1_554 S
C647 C645 1.419 . S
C647 C648 1.363 1_554 S
C647 H650 0.929 . S
C648 C647 1.363 1_556 S
C648 C654 1.428 . S
H649 C645 0.930 . S
H650 C647 0.929 . S
S651 N652 1.613 . S
S651 N653 1.610 . S
N652 S651 1.613 . S
N652 C655 1.350 . S
N653 S651 1.610 . S
N653 C654 1.351 . S
C654 C648 1.428 . S
C654 N653 1.351 . S
C654 C655 1.434 . S
C655 C646 1.429 1_556 S
C655 N652 1.350 . S
C655 C654 1.434 . S
C656 C657 1.369 . S
C656 C658 1.419 . S
C656 H660 0.930 . S
C657 C656 1.369 . S
C657 C666 1.429 . S
C658 C656 1.419 . S
C658 C659 1.363 . S
C658 H661 0.929 . S
C659 C658 1.363 . S
C659 C665 1.428 . S
H660 C656 0.930 . S
H661 C658 0.929 . S
S662 N663 1.613 . S
S662 N664 1.610 . S
N663 S662 1.613 . S
N663 C666 1.350 . S
N664 S662 1.610 . S
N664 C665 1.351 . S
C665 C659 1.428 . S
C665 N664 1.351 . S
C665 C666 1.434 . S
C666 C657 1.429 . S
C666 N663 1.350 . S
C666 C665 1.434 . S
C667 C668 1.369 . S
C667 C669 1.419 . S
C667 H671 0.930 . S
C668 C667 1.369 . S
C668 C677 1.429 . S
C669 C667 1.419 . S
C669 C670 1.363 . S
C669 H672 0.929 . S
C670 C669 1.363 . S
C670 C676 1.428 . S
H671 C667 0.930 . S
H672 C669 0.929 . S
S673 N674 1.613 . S
S673 N675 1.610 . S
N674 S673 1.613 . S
N674 C677 1.350 . S
N675 S673 1.610 . S
N675 C676 1.351 . S
C676 C670 1.428 . S
C676 N675 1.351 . S
C676 C677 1.434 . S
C677 C668 1.429 . S
C677 N674 1.350 . S
C677 C676 1.434 . S
C678 C679 1.369 . S
C678 C680 1.419 . S
C678 H682 0.930 . S
C679 C678 1.369 . S
C679 C688 1.429 . S
C680 C678 1.419 . S
C680 C681 1.363 . S
C680 H683 0.929 . S
C681 C680 1.363 . S
C681 C687 1.428 . S
H682 C678 0.930 . S
H683 C680 0.929 . S
S684 N685 1.613 . S
S684 N686 1.610 . S
N685 S684 1.613 . S
N685 C688 1.350 . S
N686 S684 1.610 . S
N686 C687 1.351 . S
C687 C681 1.428 . S
C687 N686 1.351 . S
C687 C688 1.434 . S
C688 C679 1.429 . S
C688 N685 1.350 . S
C688 C687 1.434 . S
C689 C690 1.369 . S
C689 C691 1.419 . S
C689 H693 0.930 . S
C690 C689 1.369 . S
C690 C699 1.429 . S
C691 C689 1.419 . S
C691 C692 1.363 . S
C691 H694 0.929 . S
C692 C691 1.363 . S
C692 C698 1.428 . S
H693 C689 0.930 . S
H694 C691 0.929 . S
S695 N696 1.613 . S
S695 N697 1.610 . S
N696 S695 1.613 . S
N696 C699 1.350 . S
N697 S695 1.610 . S
N697 C698 1.351 . S
C698 C692 1.428 . S
C698 N697 1.351 . S
C698 C699 1.434 . S
C699 C690 1.429 . S
C699 N696 1.350 . S
C699 C698 1.434 . S
C700 C701 1.369 . S
C700 C702 1.419 . S
C700 H704 0.930 . S
C701 C700 1.369 . S
C701 C710 1.429 . S
C702 C700 1.419 . S
C702 C703 1.363 . S
C702 H705 0.929 . S
C703 C702 1.363 . S
C703 C709 1.428 . S
H704 C700 0.930 . S
H705 C702 0.929 . S
S706 N707 1.613 . S
S706 N708 1.610 . S
N707 S706 1.613 . S
N707 C710 1.350 . S
N708 S706 1.610 . S
N708 C709 1.351 . S
C709 C703 1.428 . S
C709 N708 1.351 . S
C709 C710 1.434 . S
C710 C701 1.429 . S
C710 N707 1.350 . S
C710 C709 1.434 . S
C711 C712 1.369 . S
C711 C713 1.419 . S
C711 H715 0.930 . S
C712 C711 1.369 . S
C712 C721 1.429 . S
C713 C711 1.419 . S
C713 C714 1.363 . S
C713 H716 0.929 . S
C714 C713 1.363 . S
C714 C720 1.428 . S
H715 C711 0.930 . S
H716 C713 0.929 . S
S717 N718 1.613 . S
S717 N719 1.610 . S
N718 S717 1.613 . S
N718 C721 1.350 . S
N719 S717 1.610 . S
N719 C720 1.351 . S
C720 C714 1.428 . S
C720 N719 1.351 . S
C720 C721 1.434 . S
C721 C712 1.429 . S
C721 N718 1.350 . S
C721 C720 1.434 . S
C722 C723 1.369 . S
C722 C724 1.419 . S
C722 H726 0.930 . S
C723 C722 1.369 . S
C723 C732 1.429 . S
C724 C722 1.419 . S
C724 C725 1.363 . S
C724 H727 0.929 . S
C725 C724 1.363 . S
C725 C731 1.428 . S
H726 C722 0.930 . S
H727 C724 0.929 . S
S728 N729 1.613 . S
S728 N730 1.610 . S
N729 S728 1.613 . S
N729 C732 1.350 . S
N730 S728 1.610 . S
N730 C731 1.351 . S
C731 C725 1.428 . S
C731 N730 1.351 . S
C731 C732 1.434 . S
C732 C723 1.429 . S
C732 N729 1.350 . S
C732 C731 1.434 . S
C733 C734 1.369 . S
C733 C735 1.419 . S
C733 H737 0.930 . S
C734 C733 1.369 . S
C734 C743 1.429 . S
C735 C733 1.419 . S
C735 C736 1.363 . S
C735 H738 0.929 . S
C736 C735 1.363 . S
C736 C742 1.428 . S
H737 C733 0.930 . S
H738 C735 0.929 . S
S739 N740 1.613 . S
S739 N741 1.610 . S
N740 S739 1.613 . S
N740 C743 1.350 . S
N741 S739 1.610 . S
N741 C742 1.351 . S
C742 C736 1.428 . S
C742 N741 1.351 . S
C742 C743 1.434 . S
C743 C734 1.429 . S
C743 N740 1.350 . S
C743 C742 1.434 . S
C744 C745 1.369 . S
C744 C746 1.419 . S
C744 H748 0.930 . S
C745 C744 1.369 . S
C745 C754 1.429 . S
C746 C744 1.419 . S
C746 C747 1.363 . S
C746 H749 0.929 . S
C747 C746 1.363 . S
C747 C753 1.428 . S
H748 C744 0.930 . S
H749 C746 0.929 . S
S750 N751 1.613 . S
S750 N752 1.610 . S
N751 S750 1.613 . S
N751 C754 1.350 . S
N752 S750 1.610 . S
N752 C753 1.351 . S
C753 C747 1.428 . S
C753 N752 1.351 . S
C753 C754 1.434 . S
C754 C745 1.429 . S
C754 N751 1.350 . S
C754 C753 1.434 . S
C755 C756 1.369 . S
C755 C757 1.419 . S
C755 H759 0.930 . S
C756 C755 1.369 . S
C756 C765 1.429 . S
C757 C755 1.419 . S
C757 C758 1.363 . S
C757 H760 0.929 . S
C758 C757 1.363 . S
C758 C764 1.428 1_565 S
H759 C755 0.930 . S
H760 C757 0.929 . S
S761 N762 1.613 . S
S761 N763 1.610 . S
N762 S761 1.613 . S
N762 C765 1.350 1_545 S
N763 S761 1.610 . S
N763 C764 1.351 . S
C764 C758 1.428 1_545 S
C764 N763 1.351 . S
C764 C765 1.434 1_545 S
C765 C756 1.429 . S
C765 N762 1.350 1_565 S
C765 C764 1.434 1_565 S
C766 C767 1.369 . S
C766 C768 1.419 . S
C766 H770 0.930 . S
C767 C766 1.369 . S
C767 C776 1.429 . S
C768 C766 1.419 . S
C768 C769 1.363 . S
C768 H771 0.929 . S
C769 C768 1.363 . S
C769 C775 1.428 . S
H770 C766 0.930 . S
H771 C768 0.929 . S
S772 N773 1.613 . S
S772 N774 1.610 1_565 S
N773 S772 1.613 . S
N773 C776 1.350 1_565 S
N774 S772 1.610 1_545 S
N774 C775 1.351 . S
C775 C769 1.428 . S
C775 N774 1.351 . S
C775 C776 1.434 . S
C776 C767 1.429 . S
C776 N773 1.350 1_545 S
C776 C775 1.434 . S
C777 C778 1.369 . S
C777 C779 1.419 . S
C777 H781 0.930 . S
C778 C777 1.369 . S
C778 C787 1.429 . S
C779 C777 1.419 . S
C779 C780 1.363 . S
C779 H782 0.929 . S
C780 C779 1.363 . S
C780 C786 1.428 1_545 S
H781 C777 0.930 . S
H782 C779 0.929 . S
S783 N784 1.613 . S
S783 N785 1.610 . S
N784 S783 1.613 . S
N784 C787 1.350 1_565 S
N785 S783 1.610 . S
N785 C786 1.351 . S
C786 C780 1.428 1_565 S
C786 N785 1.351 . S
C786 C787 1.434 1_565 S
C787 C778 1.429 . S
C787 N784 1.350 1_545 S
C787 C786 1.434 1_545 S
C788 C789 1.369 . S
C788 C790 1.419 . S
C788 H792 0.930 . S
C789 C788 1.369 . S
C789 C798 1.429 . S
C790 C788 1.419 . S
C790 C791 1.363 . S
C790 H793 0.929 . S
C791 C790 1.363 . S
C791 C797 1.428 . S
H792 C788 0.930 . S
H793 C790 0.929 . S
S794 N795 1.613 . S
S794 N796 1.610 . S
N795 S794 1.613 . S
N795 C798 1.350 . S
N796 S794 1.610 . S
N796 C797 1.351 . S
C797 C791 1.428 . S
C797 N796 1.351 . S
C797 C798 1.434 . S
C798 C789 1.429 . S
C798 N795 1.350 . S
C798 C797 1.434 . S
C799 C800 1.369 . S
C799 C801 1.419 . S
C799 H803 0.930 . S
C800 C799 1.369 . S
C800 C809 1.429 1_545 S
C801 C799 1.419 . S
C801 C802 1.363 . S
C801 H804 0.929 . S
C802 C801 1.363 . S
C802 C808 1.428 . S
H803 C799 0.930 . S
H804 C801 0.929 . S
S805 N806 1.613 . S
S805 N807 1.610 1_565 S
N806 S805 1.613 . S
N806 C809 1.355 . S
N807 S805 1.610 1_545 S
N807 C808 1.351 . S
C808 C802 1.428 . S
C808 N807 1.351 . S
C808 C809 1.428 1_545 S
C809 C800 1.429 1_565 S
C809 N806 1.355 . S
C809 C808 1.428 1_565 S
C810 C811 1.369 . S
C810 C812 1.419 . S
C810 H814 0.930 . S
C811 C810 1.369 . S
C811 C820 1.429 . S
C812 C810 1.419 . S
C812 C813 1.363 . S
C812 H815 0.929 . S
C813 C812 1.363 . S
C813 C819 1.428 . S
H814 C810 0.930 . S
H815 C812 0.929 . S
S816 N817 1.613 . S
S816 N818 1.610 . S
N817 S816 1.613 . S
N817 C820 1.350 . S
N818 S816 1.610 . S
N818 C819 1.351 . S
C819 C813 1.428 . S
C819 N818 1.351 . S
C819 C820 1.434 . S
C820 C811 1.429 . S
C820 N817 1.350 . S
C820 C819 1.434 . S
C821 C822 1.369 1_545 S
C821 C823 1.419 1_545 S
C821 H825 0.930 . S
C822 C821 1.369 1_565 S
C822 C831 1.429 . S
C823 C821 1.419 1_565 S
C823 C824 1.363 . S
C823 H826 0.929 1_565 S
C824 C823 1.363 . S
C824 C830 1.428 . S
H825 C821 0.930 . S
H826 C823 0.929 1_545 S
S827 N828 1.613 . S
S827 N829 1.610 . S
N828 S827 1.613 . S
N828 C831 1.350 . S
N829 S827 1.610 . S
N829 C830 1.351 . S
C830 C824 1.428 . S
C830 N829 1.351 . S
C830 C831 1.434 . S
C831 C822 1.429 . S
C831 N828 1.350 . S
C831 C830 1.434 . S
C832 C833 1.369 . S
C832 C834 1.419 . S
C832 H836 0.930 . S
C833 C832 1.369 . S
C833 C842 1.429 . S
C834 C832 1.419 . S
C834 C835 1.363 . S
C834 H837 0.929 . S
C835 C834 1.363 . S
C835 C841 1.428 . S
H836 C832 0.930 . S
H837 C834 0.929 . S
S838 N839 1.613 . S
S838 N840 1.610 1_554 S
N839 S838 1.613 . S
N839 C842 1.350 1_554 S
N840 S838 1.610 1_556 S
N840 C841 1.351 . S
C841 C835 1.428 . S
C841 N840 1.351 . S
C841 C842 1.434 . S
C842 C833 1.429 . S
C842 N839 1.350 1_556 S
C842 C841 1.434 . S
C843 C844 1.369 . S
C843 C845 1.419 . S
C843 H847 0.930 . S
C844 C843 1.369 . S
C844 C853 1.429 . S
C845 C843 1.419 . S
C845 C846 1.363 . S
C845 H848 0.929 . S
C846 C845 1.363 . S
C846 C852 1.428 . S
H847 C843 0.930 . S
H848 C845 0.929 . S
S849 N850 1.613 . S
S849 N851 1.610 . S
N850 S849 1.613 . S
N850 C853 1.350 . S
N851 S849 1.610 . S
N851 C852 1.351 . S
C852 C846 1.428 . S
C852 N851 1.351 . S
C852 C853 1.434 . S
C853 C844 1.429 . S
C853 N850 1.350 . S
C853 C852 1.434 . S
C854 C855 1.369 . S
C854 C856 1.419 . S
C854 H858 0.930 . S
C855 C854 1.369 . S
C855 C864 1.429 . S
C856 C854 1.419 . S
C856 C857 1.363 . S
C856 H859 0.929 . S
C857 C856 1.363 . S
C857 C863 1.428 . S
H858 C854 0.930 . S
H859 C856 0.929 . S
S860 N861 1.613 . S
S860 N862 1.610 . S
N861 S860 1.613 . S
N861 C864 1.350 . S
N862 S860 1.610 . S
N862 C863 1.351 . S
C863 C857 1.428 . S
C863 N862 1.351 . S
C863 C864 1.434 . S
C864 C855 1.429 . S
C864 N861 1.350 . S
C864 C863 1.434 . S
C865 C866 1.369 . S
C865 C867 1.419 . S
C865 H869 0.930 . S
C866 C865 1.369 . S
C866 C875 1.429 . S
C867 C865 1.419 . S
C867 C868 1.363 . S
C867 H870 0.929 1_655 S
C868 C867 1.363 . S
C868 C874 1.428 . S
H869 C865 0.930 . S
H870 C867 0.929 1_455 S
S871 N872 1.613 . S
S871 N873 1.610 . S
N872 S871 1.613 . S
N872 C875 1.350 . S
N873 S871 1.610 . S
N873 C874 1.351 . S
C874 C868 1.428 . S
C874 N873 1.351 . S
C874 C875 1.434 . S
C875 C866 1.429 . S
C875 N872 1.350 . S
C875 C874 1.434 . S
C876 C877 1.369 . S
C876 C878 1.419 . S
C876 H880 0.930 . S
C877 C876 1.369 . S
C877 C886 1.429 . S
C878 C876 1.419 . S
C878 C879 1.363 . S
C878 H881 0.929 . S
C879 C878 1.363 . S
C879 C885 1.428 . S
H880 C876 0.930 . S
H881 C878 0.929 . S
S882 N883 1.613 . S
S882 N884 1.610 . S
N883 S882 1.613 . S
N883 C886 1.350 . S
N884 S882 1.610 . S
N884 C885 1.351 . S
C885 C879 1.428 . S
C885 N884 1.351 . S
C885 C886 1.434 . S
C886 C877 1.429 . S
C886 N883 1.350 . S
C886 C885 1.434 . S
C887 C888 1.369 . S
C887 C889 1.419 . S
C887 H891 0.930 . S
C888 C887 1.369 . S
C888 C897 1.429 . S
C889 C887 1.419 . S
C889 C890 1.363 . S
C889 H892 0.929 . S
C890 C889 1.363 . S
C890 C896 1.428 . S
H891 C887 0.930 . S
H892 C889 0.929 . S
S893 N894 1.613 . S
S893 N895 1.610 . S
N894 S893 1.613 . S
N894 C897 1.350 . S
N895 S893 1.610 . S
N895 C896 1.351 . S
C896 C890 1.428 . S
C896 N895 1.351 . S
C896 C897 1.434 . S
C897 C888 1.429 . S
C897 N894 1.350 . S
C897 C896 1.434 . S
C898 C899 1.369 . S
C898 C900 1.419 . S
C898 H902 0.930 . S
C899 C898 1.369 . S
C899 C908 1.429 . S
C900 C898 1.419 . S
C900 C901 1.363 . S
C900 H903 0.929 . S
C901 C900 1.363 . S
C901 C907 1.428 . S
H902 C898 0.930 . S
H903 C900 0.929 . S
S904 N905 1.613 . S
S904 N906 1.610 . S
N905 S904 1.613 . S
N905 C908 1.350 . S
N906 S904 1.610 . S
N906 C907 1.351 . S
C907 C901 1.428 . S
C907 N906 1.351 . S
C907 C908 1.434 . S
C908 C899 1.429 . S
C908 N905 1.350 . S
C908 C907 1.434 . S
C909 C910 1.369 . S
C909 C911 1.419 . S
C909 H913 0.930 . S
C910 C909 1.369 . S
C910 C919 1.429 . S
C911 C909 1.419 . S
C911 C912 1.363 . S
C911 H914 0.929 . S
C912 C911 1.363 . S
C912 C918 1.428 . S
H913 C909 0.930 . S
H914 C911 0.929 . S
S915 N916 1.613 . S
S915 N917 1.610 . S
N916 S915 1.613 . S
N916 C919 1.350 1_655 S
N917 S915 1.610 . S
N917 C918 1.351 1_655 S
C918 C912 1.428 . S
C918 N917 1.351 1_455 S
C918 C919 1.434 . S
C919 C910 1.429 . S
C919 N916 1.350 1_455 S
C919 C918 1.434 . S
C920 C921 1.369 . S
C920 C922 1.419 . S
C920 H924 0.930 . S
C921 C920 1.369 . S
C921 C930 1.429 . S
C922 C920 1.419 . S
C922 C923 1.363 . S
C922 H925 0.929 . S
C923 C922 1.363 . S
C923 C929 1.428 . S
H924 C920 0.930 . S
H925 C922 0.929 . S
S926 N927 1.613 . S
S926 N928 1.610 . S
N927 S926 1.613 . S
N927 C930 1.350 . S
N928 S926 1.610 . S
N928 C929 1.351 . S
C929 C923 1.428 . S
C929 N928 1.351 . S
C929 C930 1.434 . S
C930 C921 1.429 . S
C930 N927 1.350 . S
C930 C929 1.434 . S
C931 C932 1.369 . S
C931 C933 1.419 . S
C931 H935 0.930 . S
C932 C931 1.369 . S
C932 C941 1.429 . S
C933 C931 1.419 . S
C933 C934 1.363 . S
C933 H936 0.929 1_565 S
C934 C933 1.363 . S
C934 C940 1.428 . S
H935 C931 0.930 . S
H936 C933 0.929 1_545 S
S937 N938 1.613 . S
S937 N939 1.610 . S
N938 S937 1.613 . S
N938 C941 1.350 . S
N939 S937 1.610 . S
N939 C940 1.351 . S
C940 C934 1.428 . S
C940 N939 1.351 . S
C940 C941 1.434 . S
C941 C932 1.429 . S
C941 N938 1.350 . S
C941 C940 1.434 . S
C942 C943 1.369 . S
C942 C944 1.419 . S
C942 H946 0.930 . S
C943 C942 1.369 . S
C943 C952 1.429 . S
C944 C942 1.419 . S
C944 C945 1.363 1_556 S
C944 H947 0.929 . S
C945 C944 1.363 1_554 S
C945 C951 1.424 1_554 S
H946 C942 0.930 . S
H947 C944 0.929 . S
S948 N949 1.613 . S
S948 N950 1.610 1_556 S
N949 S948 1.613 . S
N949 C952 1.350 . S
N950 S948 1.610 1_554 S
N950 C951 1.346 1_554 S
C951 C945 1.424 1_556 S
C951 N950 1.346 1_556 S
C951 C952 1.444 . S
C952 C943 1.429 . S
C952 N949 1.350 . S
C952 C951 1.444 . S
C953 C954 1.369 . S
C953 C955 1.419 . S
C953 H957 0.930 . S
C954 C953 1.369 . S
C954 C963 1.429 1_545 S
C955 C953 1.419 . S
C955 C956 1.363 . S
C955 H958 0.929 . S
C956 C955 1.363 . S
C956 C962 1.428 . S
H957 C953 0.930 . S
H958 C955 0.929 . S
S959 N960 1.613 . S
S959 N961 1.610 1_565 S
N960 S959 1.613 . S
N960 C963 1.350 . S
N961 S959 1.610 1_545 S
N961 C962 1.351 . S
C962 C956 1.428 . S
C962 N961 1.351 . S
C962 C963 1.434 1_545 S
C963 C954 1.429 1_565 S
C963 N960 1.350 . S
C963 C962 1.434 1_565 S
C964 C965 1.369 . S
C964 C966 1.419 . S
C964 H968 0.930 . S
C965 C964 1.369 . S
C965 C974 1.429 . S
C966 C964 1.419 . S
C966 C967 1.363 . S
C966 H969 0.929 . S
C967 C966 1.363 . S
C967 C973 1.428 . S
H968 C964 0.930 . S
H969 C966 0.929 . S
S970 N971 1.613 . S
S970 N972 1.610 . S
N971 S970 1.613 . S
N971 C974 1.350 . S
N972 S970 1.610 . S
N972 C973 1.351 . S
C973 C967 1.428 . S
C973 N972 1.351 . S
C973 C974 1.434 . S
C974 C965 1.429 . S
C974 N971 1.350 . S
C974 C973 1.434 . S
C975 C976 1.369 . S
C975 C977 1.419 . S
C975 H979 0.930 . S
C976 C975 1.369 . S
C976 C985 1.429 . S
C977 C975 1.419 . S
C977 C978 1.363 . S
C977 H980 0.929 . S
C978 C977 1.363 . S
C978 C984 1.428 . S
H979 C975 0.930 . S
H980 C977 0.929 . S
S981 N982 1.613 . S
S981 N983 1.610 . S
N982 S981 1.613 . S
N982 C985 1.350 . S
N983 S981 1.610 . S
N983 C984 1.351 . S
C984 C978 1.428 . S
C984 N983 1.351 . S
C984 C985 1.434 . S
C985 C976 1.429 . S
C985 N982 1.350 . S
C985 C984 1.434 . S
C986 C987 1.369 . S
C986 C988 1.419 1_554 S
C986 H990 0.930 . S
C987 C986 1.369 . S
C987 C996 1.429 . S
C988 C986 1.419 1_556 S
C988 C989 1.363 . S
C988 H991 0.929 . S
C989 C988 1.363 . S
C989 C995 1.428 1_556 S
H990 C986 0.930 . S
H991 C988 0.929 . S
S992 N993 1.613 . S
S992 N994 1.610 . S
N993 S992 1.613 . S
N993 C996 1.350 . S
N994 S992 1.610 . S
N994 C995 1.351 . S
C995 C989 1.428 1_554 S
C995 N994 1.351 . S
C995 C996 1.434 . S
C996 C987 1.429 . S
C996 N993 1.350 . S
C996 C995 1.434 . S
C997 C998 1.369 . S
C997 C999 1.419 . S
C997 H1001 0.930 . S
C998 C997 1.369 . S
C998 C1007 1.429 . S
C999 C997 1.419 . S
C999 C1000 1.363 . S
C999 H1002 0.929 . S
C1000 C999 1.363 . S
C1000 C1006 1.428 . S
H1001 C997 0.930 . S
H1002 C999 0.929 . S
S1003 N1004 1.613 . S
S1003 N1005 1.610 . S
N1004 S1003 1.613 . S
N1004 C1007 1.350 . S
N1005 S1003 1.610 . S
N1005 C1006 1.351 . S
C1006 C1000 1.428 . S
C1006 N1005 1.351 . S
C1006 C1007 1.434 . S
C1007 C998 1.429 . S
C1007 N1004 1.350 . S
C1007 C1006 1.434 . S
C481 C10 0.492 . S
C483 C301 0.578 . S
C492 C40 0.519 . S
C494 C340 0.522 . S
C503 C61 0.559 . S
C505 C250 0.512 . S
C514 C280 0.528 . S
C516 C100 0.515 . S
C525 C121 0.515 . S
C527 C430 0.571 . S
C536 C451 0.515 . S
C538 C151 0.529 . S
C547 C361 0.485 . S
C549 C190 0.588 . S
C558 C211 0.522 . S
C560 C391 0.526 . S
C569 C16 2.472 . S
C571 C147 2.475 . S
C580 C46 2.172 . S
C582 C417 2.177 . S
C591 N74 1.964 . S
C593 N186 1.958 . S
C602 C106 2.715 . S
C604 C477 2.719 . S
C613 C177 2.177 . S
C615 C286 2.173 . S
C624 C346 2.715 . S
C626 C237 2.719 . S
C635 C387 2.476 . S
C637 C256 2.473 . S
C646 N314 1.963 . S
C648 N426 1.959 . S
C657 C27 1.959 . S
C659 C220 1.961 . S
C668 C57 1.846 . S
C670 C370 1.777 . S
C679 N66 1.360 . S
C681 C160 1.309 . S
C690 C117 1.789 1_455 S
C692 C421 1.748 . S
C701 C91 1.959 . S
C703 C136 1.957 . S
C712 C166 1.845 . S
C714 C241 1.780 . S
C723 N194 1.360 . S
C725 C31 1.305 . S
C734 C310 1.742 . S
C736 C226 1.791 1_655 S
C745 C267 1.958 . S
C747 C460 1.960 1_565 S
C756 C130 1.783 . S
C758 C297 1.844 1_565 S
C767 C400 1.303 1_545 S
C769 N306 1.355 . S
C778 C181 1.745 . S
C780 C357 1.790 1_545 S
C789 C376 1.957 . S
C791 C331 1.959 1_545 S
C800 C406 1.843 1_545 S
C802 C1 1.783 . S
C811 C271 1.314 1_565 S
C813 N434 1.356 . S
C822 C466 1.790 1_565 S
C824 C70 1.745 . S
C833 N6 1.287 . S
C835 N284 1.416 . S
C844 C316 1.678 . S
C846 N36 1.490 . S
C855 C87 1.515 . S
C857 N344 1.513 . S
C866 N254 1.358 . S
C868 N96 1.236 . S
C877 N396 1.411 . S
C879 N134 1.297 . S
C888 C447 1.682 . S
C890 N164 1.489 . S
C899 N456 1.514 . S
C901 C196 1.513 . S
C910 N366 1.354 . S
C912 N224 1.240 . S
C921 N44 1.406 . S
C923 N246 1.301 . S
C932 C76 1.685 . S
C934 N276 1.482 . S
C943 N104 1.518 . S
C945 C327 1.509 . S
C954 N336 1.253 1_545 S
C956 N14 1.346 . S
C965 N156 1.417 . S
C967 N374 1.289 . S
C976 C207 1.683 . S
C978 N404 1.483 . S
C987 N216 1.512 . S
C989 C436 1.514 . S
C998 N126 1.346 . S
C1000 N464 1.248 1_565 S
