# Generated by pormake.
# Topology snz, (6)-cn, num edge types: 1
# Building blocks:
#     Node 0, Type 0, BuildingBlock: UKALOJ_clean_sbu_0, # of connection points: 6
#     Node 1, Type 0, BuildingBlock: UKALOJ_clean_sbu_0, # of connection points: 6
#     Node 2, Type 0, BuildingBlock: UKALOJ_clean_sbu_0, # of connection points: 6
#     Node 3, Type 0, BuildingBlock: UKALOJ_clean_sbu_0, # of connection points: 6
#     Node 4, Type 0, BuildingBlock: UKALOJ_clean_sbu_0, # of connection points: 6
#     Node 5, Type 0, BuildingBlock: UKALOJ_clean_sbu_0, # of connection points: 6
#     Node 6, Type 0, BuildingBlock: UKALOJ_clean_sbu_0, # of connection points: 6
#     Node 7, Type 0, BuildingBlock: UKALOJ_clean_sbu_0, # of connection points: 6
#     Node 8, Type 0, BuildingBlock: UKALOJ_clean_sbu_0, # of connection points: 6
#     Edge 9, Type (0, 0), BuildingBlock: UVAHIK_clean_linker_0, # of connection points: 2
#     Edge 10, Type (0, 0), BuildingBlock: UVAHIK_clean_linker_0, # of connection points: 2
#     Edge 11, Type (0, 0), BuildingBlock: UVAHIK_clean_linker_0, # of connection points: 2
#     Edge 12, Type (0, 0), BuildingBlock: UVAHIK_clean_linker_0, # of connection points: 2
#     Edge 13, Type (0, 0), BuildingBlock: UVAHIK_clean_linker_0, # of connection points: 2
#     Edge 14, Type (0, 0), BuildingBlock: UVAHIK_clean_linker_0, # of connection points: 2
#     Edge 15, Type (0, 0), BuildingBlock: UVAHIK_clean_linker_0, # of connection points: 2
#     Edge 16, Type (0, 0), BuildingBlock: UVAHIK_clean_linker_0, # of connection points: 2
#     Edge 17, Type (0, 0), BuildingBlock: UVAHIK_clean_linker_0, # of connection points: 2
#     Edge 18, Type (0, 0), BuildingBlock: UVAHIK_clean_linker_0, # of connection points: 2
#     Edge 19, Type (0, 0), BuildingBlock: UVAHIK_clean_linker_0, # of connection points: 2
#     Edge 20, Type (0, 0), BuildingBlock: UVAHIK_clean_linker_0, # of connection points: 2
#     Edge 21, Type (0, 0), BuildingBlock: UVAHIK_clean_linker_0, # of connection points: 2
#     Edge 22, Type (0, 0), BuildingBlock: UVAHIK_clean_linker_0, # of connection points: 2
#     Edge 23, Type (0, 0), BuildingBlock: UVAHIK_clean_linker_0, # of connection points: 2
#     Edge 24, Type (0, 0), BuildingBlock: UVAHIK_clean_linker_0, # of connection points: 2
#     Edge 25, Type (0, 0), BuildingBlock: UVAHIK_clean_linker_0, # of connection points: 2
#     Edge 26, Type (0, 0), BuildingBlock: UVAHIK_clean_linker_0, # of connection points: 2
#     Edge 27, Type (0, 0), BuildingBlock: UVAHIK_clean_linker_0, # of connection points: 2
#     Edge 28, Type (0, 0), BuildingBlock: UVAHIK_clean_linker_0, # of connection points: 2
#     Edge 29, Type (0, 0), BuildingBlock: UVAHIK_clean_linker_0, # of connection points: 2
#     Edge 30, Type (0, 0), BuildingBlock: UVAHIK_clean_linker_0, # of connection points: 2
#     Edge 31, Type (0, 0), BuildingBlock: UVAHIK_clean_linker_0, # of connection points: 2
#     Edge 32, Type (0, 0), BuildingBlock: UVAHIK_clean_linker_0, # of connection points: 2
#     Edge 33, Type (0, 0), BuildingBlock: UVAHIK_clean_linker_0, # of connection points: 2
#     Edge 34, Type (0, 0), BuildingBlock: UVAHIK_clean_linker_0, # of connection points: 2
#     Edge 35, Type (0, 0), BuildingBlock: UVAHIK_clean_linker_0, # of connection points: 2
# Relax obj value: 0.412
# Max RMSD: 0.288
# Mean RMSD: 0.254
data_MOF--net-snz--node1-UKALOJ_clean_sbu_0--edge1-UVAHIK_clean_linker_0
_symmetry_space_group_name_H-M    P1
_symmetry_Int_Tables_number       1
_symmetry_cell_setting            triclinic
loop_
_symmetry_equiv_pos_as_xyz
'x, y, z'
_cell_length_a     63.483705
_cell_length_b     68.393861
_cell_length_c     20.039518
_cell_angle_alpha  90.566416
_cell_angle_beta   90.785797
_cell_angle_gamma 120.28142
loop_
_atom_site_label
_atom_site_type_symbol
_atom_site_fract_x
_atom_site_fract_y
_atom_site_fract_z
_atom_type_partial_charge
Zn0 Zn -0.00125 0.48586 0.08587 0.0
O1 O 0.974 0.45464 0.0399 0.0
C2 C 0.03734 0.47369 0.11056 0.0
Zn3 Zn 0.02331 0.49348 1.00073 0.0
C4 C 0.97964 0.44747 0.98855 0.0
O5 O 0.00033 0.45987 0.96305 0.0
C6 C 0.04248 0.5321 0.09629 0.0
O7 O 0.00173 0.50438 0.94852 0.0
O8 O 0.98006 0.50006 0.03783 0.0
N9 N 0.04621 0.50012 0.92344 0.0
C10 C 0.04132 0.49165 0.86074 0.0
C11 C 0.07967 0.5065 0.87753 0.0
N12 N 0.0701 0.5096 0.93364 0.0
N13 N 0.06188 0.49531 0.83127 0.0
C14 C 0.96723 0.45839 0.20116 0.0
C15 C 0.97486 0.48416 0.27321 0.0
N16 N 0.97776 0.47822 0.16899 0.0
N17 N 0.98197 0.4942 0.21373 0.0
N18 N 0.96592 0.46164 0.26715 0.0
H19 H 0.94424 0.43377 0.12757 0.0
H20 H 0.94714 0.42169 0.20324 0.0
H21 H 0.97226 0.43394 0.14599 0.0
C22 C 0.95726 0.4356 0.16781 0.0
C23 C 0.01631 0.47831 0.82922 0.0
H24 H 0.00305 0.4817 0.85427 0.0
H25 H 0.00998 0.45999 0.83196 0.0
H26 H 0.017 0.48248 0.7756 0.0
O27 O 0.04598 0.5266 0.03857 0.0
O28 O 0.02421 0.51793 0.12912 0.0
C29 C 0.98469 0.50572 0.97713 0.0
O30 O 0.01787 0.47163 0.13413 0.0
O31 O 0.04441 0.48282 0.05433 0.0
Zn32 Zn 0.53983 0.52071 0.09594 0.0
O33 O 0.51427 0.51789 0.16968 0.0
C34 C 0.50536 0.47338 0.05623 0.0
Zn35 Zn 0.5139 0.51889 0.01771 0.0
C36 C 0.49472 0.51743 0.15189 0.0
O37 O 0.49032 0.51827 0.09039 0.0
C38 C 0.55857 0.52185 0.96069 0.0
O39 O 0.53097 0.55447 0.01688 0.0
O40 O 0.55546 0.55637 0.09812 0.0
N41 N 0.48937 0.51572 0.94595 0.0
C42 C 0.49306 0.52479 0.88503 0.0
C43 C 0.45583 0.49871 0.88805 0.0
N44 N 0.46608 0.49983 0.94837 0.0
N45 N 0.47234 0.51434 0.84735 0.0
C46 C 0.56174 0.51489 0.22741 0.0
C47 C 0.59911 0.54035 0.22078 0.0
N48 N 0.56475 0.52392 0.1666 0.0
N49 N 0.58811 0.5394 0.1619 0.0
N50 N 0.583 0.52499 0.26284 0.0
H51 H 0.52333 0.48967 0.2156 0.0
H52 H 0.53164 0.50711 0.29062 0.0
H53 H 0.53883 0.48496 0.28306 0.0
C54 C 0.53743 0.4982 0.25528 0.0
C55 C 0.5176 0.54174 0.85874 0.0
H56 H 0.51648 0.55576 0.83493 0.0
H57 H 0.52299 0.53349 0.81998 0.0
H58 H 0.53192 0.54913 0.89812 0.0
O59 O 0.5379 0.51918 0.9441 0.0
O60 O 0.56445 0.5235 0.02215 0.0
C61 C 0.54834 0.56624 0.05802 0.0
O62 O 0.52423 0.48522 0.09274 0.0
O63 O 0.4969 0.48321 0.02053 0.0
Zn64 Zn 0.47891 0.00891 0.99266 0.0
O65 O 0.46123 0.02798 0.98658 0.0
C66 C 0.43454 0.97002 0.05126 0.0
Zn67 Zn 0.45356 0.9843 0.91609 0.0
C68 C 0.44318 0.02152 0.94642 0.0
O69 O 0.43625 0.00381 0.91052 0.0
C70 C 0.48908 0.97149 0.96247 0.0
O71 O 0.47891 0.00502 0.84192 0.0
O72 O 0.50286 0.02913 0.9196 0.0
N73 N 0.42958 0.96266 0.84527 0.0
C74 C 0.43348 0.95611 0.7855 0.0
C75 C 0.39581 0.94574 0.78842 0.0
N76 N 0.40602 0.95575 0.84769 0.0
N77 N 0.41263 0.94561 0.74834 0.0
C78 C 0.49822 0.03588 0.12477 0.0
C79 C 0.53573 0.0456 0.12409 0.0
N80 N 0.50266 0.03031 0.06419 0.0
N81 N 0.52615 0.03688 0.06317 0.0
N82 N 0.51858 0.04518 0.16404 0.0
H83 H 0.45964 0.02397 0.10754 0.0
H84 H 0.4741 0.04475 0.17289 0.0
H85 H 0.46737 0.01634 0.1864 0.0
C86 C 0.47333 0.02976 0.14862 0.0
C87 C 0.45822 0.96239 0.76008 0.0
H88 H 0.46367 0.97574 0.72222 0.0
H89 H 0.45757 0.94749 0.73564 0.0
H90 H 0.47216 0.9684 0.80058 0.0
O91 O 0.47075 0.96486 0.92329 0.0
O92 O 0.49652 0.98957 0.99697 0.0
C93 C 0.49843 0.02319 0.85852 0.0
O94 O 0.45451 0.98783 0.0667 0.0
O95 O 0.42914 0.96443 0.99013 0.0
Zn96 Zn 0.72137 0.8544 0.10343 0.0
O97 O 0.74243 0.88969 0.12231 0.0
C98 C 0.70147 0.84929 0.24107 0.0
Zn99 Zn 0.68706 0.85577 0.10262 0.0
C100 C 0.73161 0.901 0.12704 0.0
O101 O 0.70863 0.89101 0.11781 0.0
C102 C 0.67643 0.80899 0.08261 0.0
O103 O 0.68926 0.85981 0.99626 0.0
O104 O 0.72364 0.85951 0.99806 0.0
N105 N 0.65642 0.85846 0.10849 0.0
C106 C 0.63957 0.85729 0.06433 0.0
C107 C 0.63123 0.86562 0.15935 0.0
N108 N 0.65104 0.86351 0.16746 0.0
N109 N 0.62365 0.86183 0.09505 0.0
C110 C 0.77031 0.85761 0.14732 0.0
C111 C 0.77471 0.83854 0.06992 0.0
N112 N 0.75222 0.85199 0.10171 0.0
N113 N 0.75529 0.84051 0.05308 0.0
N114 N 0.78458 0.84903 0.1291 0.0
H115 H 0.79171 0.88661 0.21085 0.0
H116 H 0.77248 0.86088 0.25443 0.0
H117 H 0.76013 0.87664 0.21393 0.0
C118 C 0.77357 0.871 0.2103 0.0
C119 C 0.63797 0.85059 0.99236 0.0
H120 H 0.65078 0.86568 0.96393 0.0
H121 H 0.61925 0.84402 0.97166 0.0
H122 H 0.64308 0.83737 0.9865 0.0
O123 O 0.66579 0.82042 0.08899 0.0
O124 O 0.69961 0.81904 0.08547 0.0
C125 C 0.70701 0.86061 0.96501 0.0
O126 O 0.71827 0.84871 0.20902 0.0
O127 O 0.68572 0.85185 0.20873 0.0
Zn128 Zn 0.17557 0.84448 0.4357 0.0
O129 O 0.13702 0.8271 0.43864 0.0
C130 C 0.17821 0.82953 0.57421 0.0
Zn131 Zn 0.17571 0.81206 0.43525 0.0
C132 C 0.12551 0.80563 0.44048 0.0
O133 O 0.13738 0.79527 0.43935 0.0
C134 C 0.22579 0.85058 0.42951 0.0
O135 O 0.17336 0.81134 0.32824 0.0
O136 O 0.1736 0.84352 0.32949 0.0
N137 N 0.17305 0.7811 0.43623 0.0
C138 C 0.17912 0.76987 0.39208 0.0
C139 C 0.15774 0.74653 0.46652 0.0
N140 N 0.16 0.76662 0.48278 0.0
N141 N 0.1694 0.74793 0.40944 0.0
C142 C 0.16459 0.88271 0.47072 0.0
C143 C 0.19132 0.91034 0.41521 0.0
N144 N 0.17736 0.87514 0.43678 0.0
N145 N 0.1939 0.89231 0.40223 0.0
N146 N 0.17307 0.90477 0.45808 0.0
H147 H 0.12698 0.85768 0.47372 0.0
H148 H 0.13635 0.87736 0.54153 0.0
H149 H 0.14501 0.85594 0.54057 0.0
C150 C 0.14219 0.86777 0.50961 0.0
C151 C 0.19574 0.78084 0.33482 0.0
H152 H 0.18484 0.7802 0.29042 0.0
H153 H 0.20578 0.77192 0.32262 0.0
H154 H 0.20897 0.79887 0.34673 0.0
O155 O 0.21409 0.82907 0.43138 0.0
O156 O 0.21414 0.8612 0.4316 0.0
C157 C 0.17295 0.82721 0.29661 0.0
O158 O 0.17775 0.84527 0.5422 0.0
O159 O 0.17782 0.81328 0.54172 0.0
Zn160 Zn 0.15382 0.33275 0.47075 0.0
O161 O 0.16257 0.30723 0.48277 0.0
C162 C 0.17041 0.3494 0.61034 0.0
Zn163 Zn 0.19289 0.35982 0.4735 0.0
C164 C 0.18474 0.31299 0.49307 0.0
O165 O 0.2011 0.3338 0.49082 0.0
C166 C 0.16148 0.37938 0.45273 0.0
O167 O 0.19509 0.35638 0.36752 0.0
O168 O 0.15617 0.33086 0.3646 0.0
N169 N 0.22938 0.38343 0.48456 0.0
C170 C 0.24687 0.39782 0.44337 0.0
C171 C 0.26396 0.4006 0.53815 0.0
N172 N 0.24009 0.38534 0.54339 0.0
N173 N 0.26873 0.40881 0.476 0.0
C174 C 0.10249 0.2922 0.50214 0.0
C175 C 0.08065 0.29512 0.42556 0.0
N176 N 0.1176 0.30943 0.46316 0.0
N177 N 0.10401 0.31105 0.41525 0.0
N178 N 0.07929 0.28294 0.47936 0.0
H179 H 0.12975 0.29206 0.56808 0.0
H180 H 0.09989 0.26708 0.57055 0.0
H181 H 0.10503 0.29297 0.60853 0.0
C182 C 0.10993 0.28575 0.56573 0.0
C183 C 0.24277 0.39909 0.37015 0.0
H184 H 0.24143 0.38399 0.34492 0.0
H185 H 0.25781 0.41425 0.34727 0.0
H186 H 0.22541 0.39898 0.36149 0.0
O187 O 0.184 0.38545 0.45625 0.0
O188 O 0.14547 0.35864 0.45913 0.0
C189 C 0.17589 0.34293 0.33381 0.0
O190 O 0.15173 0.335 0.5768 0.0
O191 O 0.18976 0.3625 0.57942 0.0
Zn192 Zn 0.30103 0.17788 0.8983 0.0
O193 O 0.29828 0.17923 0.00462 0.0
C194 C 0.31032 0.14038 0.91005 0.0
Zn195 Zn 0.26586 0.14528 0.89477 0.0
C196 C 0.28064 0.16316 0.03502 0.0
O197 O 0.26406 0.14654 1.00105 0.0
C198 C 0.28587 0.15972 0.75811 0.0
O199 O 0.24548 0.16192 0.88407 0.0
O200 O 0.28045 0.19383 0.88555 0.0
N201 N 0.23527 0.11387 0.89075 0.0
C202 C 0.21698 0.10412 0.84476 0.0
C203 C 0.21598 0.07773 0.90245 0.0
N204 N 0.23436 0.09745 0.92718 0.0
N205 N 0.20486 0.08131 0.85004 0.0
C206 C 0.35 0.22084 0.94246 0.0
C207 C 0.3568 0.24159 0.85765 0.0
N208 N 0.33193 0.20884 0.89733 0.0
N209 N 0.33631 0.22172 0.84452 0.0
N210 N 0.36577 0.24151 0.91886 0.0
H211 H 0.34292 0.21553 0.04635 0.0
H212 H 0.37238 0.22026 0.02335 0.0
H213 H 0.34517 0.19333 0.00423 0.0
C214 C 0.35286 0.2119 0.00777 0.0
C215 C 0.20987 0.11704 0.79849 0.0
H216 H 0.21029 0.13134 0.82571 0.0
H217 H 0.1911 0.10615 0.77794 0.0
H218 H 0.2228 0.12391 0.75689 0.0
O219 O 0.26803 0.14417 0.78891 0.0
O220 O 0.30293 0.17599 0.79177 0.0
C221 C 0.25736 0.18335 0.87934 0.0
O222 O 0.32158 0.16187 0.90989 0.0
O223 O 0.28718 0.12937 0.90412 0.0
Zn224 Zn 0.79096 0.16055 0.66951 0.0
O225 O 0.75323 0.149 0.66787 0.0
C226 C 0.78716 0.14169 0.80721 0.0
Zn227 Zn 0.7848 0.12542 0.66748 0.0
C228 C 0.73861 0.12773 0.66341 0.0
O229 O 0.74702 0.11431 0.66217 0.0
C230 C 0.83717 0.15851 0.67324 0.0
O231 O 0.78543 0.12645 0.56146 0.0
O232 O 0.79077 0.16061 0.56254 0.0
N233 N 0.77711 0.09262 0.66224 0.0
C234 C 0.78604 0.08265 0.62228 0.0
C235 C 0.75529 0.05635 0.67073 0.0
N236 N 0.75818 0.07624 0.69296 0.0
N237 N 0.77275 0.05995 0.62694 0.0
C238 C 0.80433 0.20964 0.71645 0.0
C239 C 0.81701 0.22733 0.62555 0.0
N240 N 0.80003 0.19405 0.66836 0.0
N241 N 0.80769 0.20514 0.61184 0.0
N242 N 0.81534 0.23068 0.69108 0.0
H243 H 0.77858 0.18856 0.78896 0.0
H244 H 0.7955 0.21821 0.81195 0.0
H245 H 0.81034 0.20164 0.81477 0.0
C246 C 0.79669 0.20421 0.78726 0.0
C247 C 0.80602 0.09466 0.57304 0.0
H248 H 0.79865 0.08854 0.52174 0.0
H249 H 0.82051 0.09043 0.58252 0.0
H250 H 0.81437 0.11321 0.57572 0.0
O251 O 0.82262 0.13727 0.67312 0.0
O252 O 0.8286 0.17174 0.67137 0.0
C253 C 0.78815 0.14351 0.52975 0.0
O254 O 0.79086 0.15929 0.77627 0.0
O255 O 0.78378 0.12441 0.77369 0.0
Zn256 Zn 0.82382 0.62821 0.58977 0.0
O257 O 0.827 0.63061 0.69677 0.0
C258 C 0.77169 0.61389 0.59975 0.0
Zn259 Zn 0.81853 0.658 0.59068 0.0
C260 C 0.82516 0.64578 0.72912 0.0
O261 O 0.82179 0.65995 0.69694 0.0
C262 C 0.81713 0.64056 0.45147 0.0
O263 O 0.85655 0.68026 0.58386 0.0
O264 O 0.86162 0.65089 0.58305 0.0
N265 N 0.81311 0.68508 0.59195 0.0
C266 C 0.82407 0.70467 0.55848 0.0
C267 C 0.7978 0.70567 0.62134 0.0
N268 N 0.79687 0.68578 0.63116 0.0
N269 N 0.81495 0.71799 0.57657 0.0
C270 C 0.8286 0.58694 0.63298 0.0
C271 C 0.85081 0.58597 0.55589 0.0
N272 N 0.83119 0.6024 0.58766 0.0
N273 N 0.84476 0.60156 0.53946 0.0
N274 N 0.8411 0.57661 0.61473 0.0
H275 H 0.79715 0.58394 0.68202 0.0
H276 H 0.82325 0.59204 0.73537 0.0
H277 H 0.80543 0.56316 0.70597 0.0
C278 C 0.81258 0.58108 0.69238 0.0
C279 C 0.84272 0.71028 0.50559 0.0
H280 H 0.84286 0.69518 0.48658 0.0
H281 H 0.8611 0.72209 0.52703 0.0
H282 H 0.83926 0.71866 0.46316 0.0
O283 O 0.81481 0.65535 0.48425 0.0
O284 O 0.82085 0.62653 0.48321 0.0
C285 C 0.87063 0.67217 0.58074 0.0
O286 O 0.7858 0.60576 0.59613 0.0
O287 O 0.78066 0.63524 0.59818 0.0
C288 C 0.06857 0.49481 0.71195 0.0
C289 C 0.06293 0.48376 0.77293 0.0
C290 C 0.06114 0.48215 0.65246 0.0
C291 C 0.00663 0.43305 0.60366 0.0
H292 H 0.03357 0.45005 0.42737 0.0
C293 C 0.96185 0.45132 0.38557 0.0
C294 C 0.96765 0.44843 0.32029 0.0
C295 C 0.97035 0.44436 0.43984 0.0
C296 C 0.02571 0.44452 0.47605 0.0
H297 H 0.04792 0.45149 0.82129 0.0
H298 H 0.03448 0.42914 0.71709 0.0
H299 H 0.06097 0.46018 0.52408 0.0
H300 H 0.98552 0.43429 0.26145 0.0
H301 H -0.00054 0.42172 0.35493 0.0
H302 H 0.97142 0.41925 0.55622 0.0
C303 C 0.04474 0.44745 0.71485 0.0
C304 C 0.04146 0.4504 0.53129 0.0
C305 C 0.05246 0.46016 0.77413 0.0
C306 C 0.98008 0.43644 0.31037 0.0
C307 C 0.98841 0.42939 0.36428 0.0
C308 C 0.99088 0.4274 0.54847 0.0
C309 C 0.04771 0.45834 0.65388 0.0
C310 C 0.03205 0.44576 0.59572 0.0
C311 C 0.98487 0.43447 0.42946 0.0
C312 C 0.00035 0.43414 0.48463 0.0
H313 H 0.0764 0.513 0.71063 0.0
H314 H 0.06346 0.49096 0.60608 0.0
H315 H -0.0011 0.42942 0.65297 0.0
H316 H 0.95249 0.46062 0.39467 0.0
H317 H 0.9675 0.44866 0.48977 0.0
C318 C 0.48112 0.53136 0.73717 0.0
C319 C 0.47224 0.51202 0.77632 0.0
C320 C 0.49244 0.53235 0.67709 0.0
C321 C 0.52878 0.50884 0.6162 0.0
H322 H 0.5338 0.54203 0.45607 0.0
C323 C 0.57583 0.50814 0.37345 0.0
C324 C 0.58452 0.5274 0.33403 0.0
C325 C 0.56648 0.50795 0.43624 0.0
C326 C 0.53291 0.53309 0.50124 0.0
H327 H 0.46411 0.47729 0.77895 0.0
H328 H 0.48289 0.47859 0.67261 0.0
H329 H 0.50267 0.53554 0.53679 0.0
H330 H 0.59466 0.56271 0.33299 0.0
H331 H 0.57919 0.56271 0.44357 0.0
H332 H 0.5589 0.5062 0.58009 0.0
C333 C 0.48213 0.49332 0.6894 0.0
C334 C 0.51492 0.52918 0.54694 0.0
C335 C 0.47095 0.49241 0.74948 0.0
C336 C 0.58783 0.54761 0.36253 0.0
C337 C 0.57866 0.5475 0.42529 0.0
C338 C 0.54675 0.5127 0.57035 0.0
C339 C 0.49457 0.51382 0.65545 0.0
C340 C 0.51258 0.5169 0.60463 0.0
C341 C 0.56614 0.52718 0.46006 0.0
C342 C 0.54897 0.52487 0.51247 0.0
H343 H 0.48206 0.54656 0.75711 0.0
H344 H 0.50166 0.54833 0.65153 0.0
H345 H 0.52783 0.49984 0.66129 0.0
H346 H 0.57358 0.49253 0.35244 0.0
H347 H 0.55718 0.4921 0.46244 0.0
C348 C 0.40763 0.9623 0.64683 0.0
C349 C 0.41187 0.94613 0.67695 0.0
C350 C 0.4167 0.97028 0.58387 0.0
C351 C 0.47103 0.98121 0.49853 0.0
H352 H 0.44861 0.00745 0.36458 0.0
C353 C 0.5214 0.02476 0.25949 0.0
C354 C 0.51801 0.04214 0.23477 0.0
C355 C 0.51082 0.01438 0.31907 0.0
C356 C 0.45518 0.0005 0.40242 0.0
H357 H 0.42472 0.92265 0.6613 0.0
H358 H 0.44072 0.93657 0.55041 0.0
H359 H 0.41979 0.98117 0.44449 0.0
H360 H 0.50488 0.06501 0.25764 0.0
H361 H 0.48617 0.04683 0.36254 0.0
H362 H 0.50643 0.00059 0.45653 0.0
C363 C 0.43104 0.94355 0.57622 0.0
C364 C 0.43863 0.98525 0.44745 0.0
C365 C 0.42178 0.93548 0.63919 0.0
C366 C 0.50724 0.05133 0.27544 0.0
C367 C 0.49639 0.04081 0.33483 0.0
C368 C 0.48755 0.9964 0.45339 0.0
C369 C 0.43007 0.96212 0.55029 0.0
C370 C 0.44644 0.97559 0.49629 0.0
C371 C 0.49677 0.02133 0.35466 0.0
C372 C 0.47984 0.00637 0.40544 0.0
H373 H 0.40001 0.97074 0.67519 0.0
H374 H 0.41556 0.98453 0.56512 0.0
H375 H 0.47773 0.97447 0.53669 0.0
H376 H 0.52962 0.01737 0.22887 0.0
H377 H 0.51153 -0.00051 0.33342 0.0
C378 C 0.68303 0.85017 0.35068 0.0
C379 C 0.7012 0.84868 0.31541 0.0
C380 C 0.68374 0.85135 0.42061 0.0
C381 C 0.71155 0.8409 0.57129 0.0
H382 H 0.69368 0.88124 0.65803 0.0
C383 C 0.72628 0.86044 0.85606 0.0
C384 C 0.70758 0.86127 0.89061 0.0
C385 C 0.72595 0.8594 0.7861 0.0
C386 C 0.69851 0.86971 0.63477 0.0
H387 H 0.73419 0.84687 0.32676 0.0
H388 H 0.73556 0.84913 0.44844 0.0
H389 H 0.69188 0.87783 0.53665 0.0
H390 H 0.67402 0.86198 0.87769 0.0
H391 H 0.6734 0.86015 0.75619 0.0
H392 H 0.71823 0.83285 0.66953 0.0
C393 C 0.72057 0.84914 0.4221 0.0
C394 C 0.69743 0.86771 0.56494 0.0
C395 C 0.71984 0.84794 0.3521 0.0
C396 C 0.68879 0.86147 0.85311 0.0
C397 C 0.68849 0.8605 0.78315 0.0
C398 C 0.71266 0.84293 0.64115 0.0
C399 C 0.70266 0.8511 0.45742 0.0
C400 C 0.70387 0.85323 0.53209 0.0
C401 C 0.70694 0.85922 0.74859 0.0
C402 C 0.70611 0.85734 0.67395 0.0
H403 H 0.66836 0.85074 0.32424 0.0
H404 H 0.66937 0.85242 0.44582 0.0
H405 H 0.71632 0.82933 0.54809 0.0
H406 H 0.74108 0.86026 0.88307 0.0
H407 H 0.74067 0.85879 0.76138 0.0
C408 C 0.17732 0.81164 0.68395 0.0
C409 C 0.17843 0.82976 0.64845 0.0
C410 C 0.17673 0.81149 0.75379 0.0
C411 C 0.16302 0.83728 0.89894 0.0
H412 H 0.19768 0.81363 0.99926 0.0
C413 C 0.17461 0.84577 0.18746 0.0
C414 C 0.17244 0.8271 0.2223 0.0
C415 C 0.175 0.84605 0.11758 0.0
C416 C 0.18767 0.82007 0.97202 0.0
H417 H 0.18 0.86206 0.65897 0.0
H418 H 0.17942 0.862 0.78061 0.0
H419 H 0.19954 0.81455 0.87788 0.0
H420 H 0.16823 0.79376 0.21022 0.0
H421 H 0.16901 0.79427 0.08869 0.0
H422 H 0.1513 0.84293 0.99331 0.0
C423 C 0.17859 0.84769 0.75449 0.0
C424 C 0.18872 0.82059 0.90226 0.0
C425 C 0.17911 0.84781 0.68462 0.0
C426 C 0.17031 0.80857 0.18533 0.0
C427 C 0.1708 0.80888 0.11548 0.0
C428 C 0.16204 0.83683 0.96875 0.0
C429 C 0.1773 0.82948 0.79011 0.0
C430 C 0.17638 0.82916 0.86466 0.0
C431 C 0.17329 0.82767 0.08065 0.0
C432 C 0.17431 0.82818 0.00623 0.0
H433 H 0.17662 0.79738 0.65779 0.0
H434 H 0.17538 0.79701 0.77923 0.0
H435 H 0.15293 0.84365 0.8718 0.0
H436 H 0.17633 0.86037 0.21418 0.0
H437 H 0.17716 0.86089 0.09253 0.0
C438 C 0.14928 0.33477 0.71956 0.0
C439 C 0.17028 0.34984 0.68474 0.0
C440 C 0.14975 0.33405 0.78948 0.0
C441 C 0.18532 0.36686 0.94104 0.0
H442 H 0.15121 0.30845 0.02562 0.0
C443 C 0.19697 0.35712 0.22414 0.0
C444 C 0.17595 0.34234 0.25933 0.0
C445 C 0.19642 0.35768 0.1542 0.0
C446 C 0.16064 0.32494 1.00298 0.0
H447 H 0.20821 0.3762 0.69689 0.0
H448 H 0.20907 0.37487 0.81829 0.0
H449 H 0.1496 0.31054 0.90441 0.0
H450 H 0.13787 0.31625 0.24764 0.0
H451 H 0.1369 0.31729 0.12615 0.0
H452 H 0.19639 0.38126 0.03959 0.0
C453 C 0.1921 0.36374 0.79173 0.0
C454 C 0.15969 0.32615 0.93326 0.0
C455 C 0.19163 0.36446 0.72186 0.0
C456 C 0.15448 0.32781 0.22245 0.0
C457 C 0.15394 0.32834 0.15253 0.0
C458 C 0.18629 0.36565 0.01073 0.0
C459 C 0.17123 0.34839 0.82662 0.0
C460 C 0.17201 0.34713 0.90119 0.0
C461 C 0.17483 0.34346 0.11735 0.0
C462 C 0.17398 0.34467 0.0428 0.0
H463 H 0.1325 0.32329 0.6928 0.0
H464 H 0.1332 0.32226 0.81443 0.0
H465 H 0.19474 0.38336 0.91847 0.0
H466 H 0.21383 0.36855 0.25052 0.0
H467 H 0.21299 0.3693 0.12899 0.0
C468 C 0.30407 0.17799 0.64905 0.0
C469 C 0.28607 0.15943 0.68382 0.0
C470 C 0.30339 0.17828 0.57914 0.0
C471 C 0.2771 0.14106 0.42836 0.0
H472 H 0.29166 0.19686 0.34198 0.0
C473 C 0.26226 0.14433 0.14342 0.0
C474 C 0.28003 0.16325 0.10935 0.0
C475 C 0.26253 0.1439 0.21337 0.0
C476 C 0.28781 0.18118 0.36511 0.0
H477 H 0.25346 0.12639 0.67175 0.0
H478 H 0.25223 0.12695 0.55018 0.0
H479 H 0.29362 0.19588 0.46335 0.0
H480 H 0.31165 0.19681 0.12291 0.0
H481 H 0.31241 0.19595 0.24423 0.0
H482 H 0.2714 0.12638 0.33015 0.0
C483 C 0.26699 0.14125 0.57688 0.0
C484 C 0.28894 0.18063 0.4349 0.0
C485 C 0.26763 0.14099 0.64677 0.0
C486 C 0.29778 0.18189 0.14718 0.0
C487 C 0.29808 0.18146 0.21706 0.0
C488 C 0.27601 0.14163 0.35854 0.0
C489 C 0.28474 0.15999 0.54206 0.0
C490 C 0.28363 0.16057 0.46754 0.0
C491 C 0.28058 0.16239 0.25123 0.0
C492 C 0.28137 0.1617 0.32584 0.0
H493 H 0.31856 0.19248 0.67585 0.0
H494 H 0.31757 0.19285 0.5541 0.0
H495 H 0.27321 0.12539 0.4516 0.0
H496 H 0.24825 0.12967 0.11608 0.0
H497 H 0.2485 0.12906 0.23776 0.0
C498 C 0.79039 0.16175 0.4196 0.0
C499 C 0.78819 0.14329 0.45559 0.0
C500 C 0.79031 0.16139 0.34968 0.0
C501 C 0.77258 0.12209 0.20286 0.0
H502 H 0.81543 0.17693 0.1086 0.0
C503 C 0.78577 0.12311 0.9163 0.0
C504 C 0.78693 0.14138 0.88147 0.0
C505 C 0.78591 0.12304 0.98627 0.0
C506 C 0.80317 0.16151 0.1341 0.0
H507 H 0.78427 0.10998 0.44593 0.0
H508 H 0.78455 0.10952 0.32448 0.0
H509 H 0.81579 0.17751 0.23022 0.0
H510 H 0.7884 0.17358 0.89374 0.0
H511 H 0.78877 0.17354 0.01494 0.0
H512 H 0.76006 0.1061 0.10654 0.0
C513 C 0.78594 0.12415 0.35009 0.0
C514 C 0.80335 0.16185 0.20396 0.0
C515 C 0.78595 0.12449 0.41993 0.0
C516 C 0.78796 0.15943 0.91848 0.0
C517 C 0.78819 0.15942 0.98827 0.0
C518 C 0.77246 0.12174 0.13296 0.0
C519 C 0.78808 0.14258 0.31394 0.0
C520 C 0.788 0.14217 0.23936 0.0
C521 C 0.78726 0.14128 0.02316 0.0
C522 C 0.78768 0.14147 0.09765 0.0
H523 H 0.79206 0.17647 0.44541 0.0
H524 H 0.79166 0.17576 0.32364 0.0
H525 H 0.76023 0.10669 0.22827 0.0
H526 H 0.78495 0.10889 0.88955 0.0
H527 H 0.78536 0.10887 0.01149 0.0
C528 C 0.82143 0.62544 0.34063 0.0
C529 C 0.81669 0.64041 0.37717 0.0
C530 C 0.82226 0.62609 0.2708 0.0
C531 C 0.83 0.66359 0.12834 0.0
H532 H 0.80525 0.60808 0.02357 0.0
C533 C 0.81977 0.6606 0.83925 0.0
C534 C 0.8258 0.64634 0.80348 0.0
C535 C 0.81907 0.66025 0.90914 0.0
C536 C 0.8125 0.62377 0.05206 0.0
H537 H 0.80874 0.66764 0.36842 0.0
H538 H 0.80967 0.66846 0.24688 0.0
H539 H 0.80248 0.60638 0.14475 0.0
H540 H 0.83683 0.62124 0.81403 0.0
H541 H 0.83546 0.62051 0.93548 0.0
H542 H 0.83982 0.68094 0.03539 0.0
C543 C 0.81322 0.65646 0.27215 0.0
C544 C 0.81092 0.62281 0.12174 0.0
C545 C 0.81247 0.65586 0.34199 0.0
C546 C 0.83163 0.63211 0.83959 0.0
C547 C 0.83083 0.63168 0.90942 0.0
C548 C 0.83148 0.66454 0.05862 0.0
C549 C 0.81829 0.64169 0.2355 0.0
C550 C 0.8197 0.6427 0.16098 0.0
C551 C 0.82434 0.64561 0.94515 0.0
C552 C 0.8228 0.64465 0.01952 0.0
H553 H 0.82492 0.61341 0.366 0.0
H554 H 0.82656 0.61465 0.24462 0.0
H555 H 0.83736 0.67931 0.15671 0.0
H556 H 0.81514 0.67177 0.81323 0.0
H557 H 0.81382 0.67109 0.93487 0.0
C558 C 0.12961 0.3904 0.4482 0.0
C559 C 0.15349 0.39551 0.43446 0.0
C560 C 0.1203 0.40329 0.4212 0.0
C561 C 0.12557 0.43448 0.27231 0.0
H562 H 0.08357 0.45154 0.36348 0.0
C563 C 0.07615 0.47334 0.13064 0.0
C564 C 0.05226 0.46668 0.14963 0.0
C565 C 0.09066 0.46757 0.16913 0.0
C566 C 0.09505 0.44668 0.3371 0.0
H567 H 0.18678 0.41877 0.38449 0.0
H568 H 0.17028 0.4412 0.33623 0.0
H569 H 0.10596 0.43742 0.42757 0.0
H570 H 0.02487 0.44863 0.22352 0.0
H571 H 0.04968 0.43778 0.28934 0.0
H572 H 0.11389 0.44255 0.18156 0.0
C573 C 0.15887 0.42723 0.36817 0.0
C574 C 0.10802 0.43878 0.37396 0.0
C575 C 0.16835 0.41452 0.39612 0.0
C576 C 0.04316 0.45401 0.20766 0.0
C577 C 0.05754 0.448 0.24577 0.0
C578 C 0.11241 0.44211 0.23535 0.0
C579 C 0.13456 0.42136 0.37916 0.0
C580 C 0.12316 0.43235 0.34179 0.0
C581 C 0.08153 0.45476 0.22713 0.0
C582 C 0.09671 0.44802 0.26712 0.0
H583 H 0.11778 0.37586 0.47774 0.0
H584 H 0.10146 0.39828 0.43013 0.0
H585 H 0.1368 0.42927 0.24609 0.0
H586 H 0.08382 0.48335 0.08656 0.0
H587 H 0.10915 0.4734 0.15373 0.0
C588 C 0.55708 0.60243 0.00483 0.0
C589 C 0.56031 0.59117 0.05882 0.0
C590 C 0.5688 0.62605 0.00504 0.0
C591 C 0.59506 0.67574 0.11579 0.0
H592 H 0.63273 0.70849 0.96288 0.0
C593 C 0.63702 0.77228 0.08856 0.0
C594 C 0.66199 0.78413 0.0741 0.0
C595 C 0.62369 0.74866 0.08407 0.0
C596 C 0.62224 0.69952 0.0058 0.0
H597 H 0.57807 0.59574 0.15567 0.0
H598 H 0.59822 0.63704 0.15639 0.0
H599 H 0.61094 0.66702 0.96109 0.0
H600 H 0.69242 0.78061 0.04181 0.0
H601 H 0.66895 0.73932 0.03291 0.0
H602 H 0.60636 0.70822 0.16054 0.0
C603 C 0.58669 0.62755 0.11393 0.0
C604 C 0.60969 0.67587 0.00463 0.0
C605 C 0.57527 0.60396 0.11332 0.0
C606 C 0.67322 0.77194 0.05345 0.0
C607 C 0.6598 0.74834 0.04802 0.0
C608 C 0.60731 0.69938 0.11657 0.0
C609 C 0.58365 0.63879 0.05966 0.0
C610 C 0.59618 0.6638 0.05987 0.0
C611 C 0.63499 0.7365 0.06405 0.0
C612 C 0.62117 0.71147 0.06182 0.0
H613 H 0.54572 0.59301 0.96204 0.0
H614 H 0.56609 0.63435 0.96278 0.0
H615 H 0.58464 0.66679 0.15882 0.0
H616 H 0.62788 0.78121 0.1047 0.0
H617 H 0.60453 0.73988 0.09625 0.0
C618 C 0.42369 0.96143 0.17167 0.0
C619 C 0.41741 0.95626 0.10358 0.0
C620 C 0.4069 0.94898 0.22073 0.0
C621 C 0.36169 0.93053 0.30679 0.0
H622 H 0.31558 0.8666 0.27736 0.0
C623 C 0.26448 0.88634 0.40544 0.0
C624 C 0.25233 0.86301 0.41769 0.0
C625 C 0.28843 0.89746 0.38325 0.0
C626 C 0.32854 0.88432 0.28748 0.0
H627 H 0.38878 0.93366 0.0337 0.0
H628 H 0.35952 0.91227 0.1187 0.0
H629 H 0.35075 0.88567 0.20644 0.0
H630 H 0.25645 0.83341 0.42153 0.0
H631 H 0.29847 0.85295 0.38402 0.0
H632 H 0.3393 0.92918 0.38758 0.0
C633 C 0.3775 0.92567 0.13452 0.0
C634 C 0.34855 0.89534 0.24607 0.0
C635 C 0.39424 0.93807 0.08565 0.0
C636 C 0.26522 0.85137 0.41186 0.0
C637 C 0.28927 0.86254 0.39002 0.0
C638 C 0.34171 0.91946 0.34852 0.0
C639 C 0.38353 0.93107 0.20261 0.0
C640 C 0.36484 0.91873 0.25364 0.0
C641 C 0.30085 0.88554 0.37318 0.0
C642 C 0.32443 0.8964 0.33784 0.0
H643 H 0.44151 0.97517 0.18715 0.0
H644 H 0.41218 0.95342 0.27276 0.0
H645 H 0.37391 0.94857 0.31404 0.0
H646 H 0.2551 0.89584 0.4096 0.0
H647 H 0.29663 0.91511 0.37017 0.0
C648 C 0.44007 0.05588 0.97159 0.0
C649 C 0.43006 0.0342 0.94221 0.0
C650 C 0.4275 0.06775 0.96795 0.0
C651 C 0.37695 0.06879 0.87512 0.0
H652 H 0.37929 0.10565 0.02653 0.0
C653 C 0.31271 0.1051 0.89958 0.0
C654 C 0.32402 0.1283 0.91592 0.0
C655 C 0.32587 0.09381 0.90313 0.0
C656 C 0.37863 0.09552 0.98378 0.0
H657 H 0.39893 0.00779 0.88674 0.0
H658 H 0.37668 0.0281 0.88223 0.0
H659 H 0.40178 0.08544 0.03202 0.0
H660 H 0.35784 0.15778 0.95005 0.0
H661 H 0.38073 0.13788 0.95725 0.0
H662 H 0.35324 0.07849 0.82779 0.0
C663 C 0.39452 0.03629 0.90646 0.0
C664 C 0.39159 0.08402 0.98669 0.0
C665 C 0.40722 0.02457 0.90939 0.0
C666 C 0.34865 0.1399 0.93694 0.0
C667 C 0.36172 0.12853 0.94138 0.0
C668 C 0.36376 0.08005 0.87261 0.0
C669 C 0.40451 0.05806 0.93556 0.0
C670 C 0.39092 0.0705 0.93237 0.0
C671 C 0.35049 0.10544 0.92399 0.0
C672 C 0.36449 0.09352 0.92688 0.0
H673 H 0.45771 0.0638 0.99697 0.0
H674 H 0.43595 0.08461 0.98996 0.0
H675 H 0.37639 0.05893 0.83182 0.0
H676 H 0.29376 0.09571 0.88316 0.0
H677 H 0.31677 0.07595 0.88999 0.0
C678 C 0.82935 0.27147 0.69683 0.0
C679 C 0.82822 0.25229 0.72532 0.0
C680 C 0.84422 0.29297 0.72575 0.0
C681 C 0.87657 0.32218 0.88202 0.0
H682 H 0.91969 0.3708 0.76655 0.0
C683 C 0.96883 0.41553 0.90697 0.0
C684 C 0.9619 0.4253 0.95786 0.0
C685 C 0.95175 0.39473 0.87754 0.0
C686 C 0.90781 0.35735 0.79936 0.0
H687 H 0.84272 0.24081 0.8046 0.0
H688 H 0.86786 0.27802 0.85629 0.0
H689 H 0.89024 0.33378 0.71791 0.0
H690 H 0.93145 0.42114 0.01643 0.0
H691 H 0.9019 0.38484 0.96605 0.0
H692 H 0.89433 0.34556 0.96353 0.0
C693 C 0.85684 0.27642 0.81256 0.0
C694 C 0.89078 0.33627 0.7715 0.0
C695 C 0.8422 0.25503 0.78334 0.0
C696 C 0.93756 0.4139 0.97845 0.0
C697 C 0.92057 0.3931 0.94942 0.0
C698 C 0.89344 0.34327 0.90979 0.0
C699 C 0.85823 0.29564 0.78369 0.0
C700 C 0.87513 0.31843 0.81265 0.0
C701 C 0.92746 0.38328 0.89874 0.0
C702 C 0.90935 0.36102 0.86881 0.0
H703 H 0.81904 0.2698 0.65152 0.0
H704 H 0.84489 0.30751 0.70257 0.0
H705 H 0.86465 0.30876 0.91488 0.0
H706 H 0.98747 0.42383 0.89019 0.0
H707 H 0.95762 0.38744 0.83897 0.0
C708 C 0.73042 0.60826 0.62265 0.0
C709 C 0.74534 0.5989 0.61122 0.0
C710 C 0.70638 0.59461 0.64244 0.0
C711 C 0.65344 0.562 0.66995 0.0
H712 H 0.64735 0.5211 0.81068 0.0
C713 C 0.56996 0.5223 0.8409 0.0
C714 C 0.57609 0.52404 0.90929 0.0
C715 C 0.58733 0.52611 0.79274 0.0
C716 C 0.6487 0.53239 0.77133 0.0
H717 H 0.74619 0.56759 0.60704 0.0
H718 H 0.70398 0.54366 0.64052 0.0
H719 H 0.68378 0.53832 0.7439 0.0
H720 H 0.60496 0.53035 0.98065 0.0
H721 H 0.63517 0.53736 0.89734 0.0
H722 H 0.61911 0.55732 0.70089 0.0
C723 C 0.71107 0.56166 0.63556 0.0
C724 C 0.66947 0.54205 0.7323 0.0
C725 C 0.73523 0.57536 0.61608 0.0
C726 C 0.59962 0.52888 0.92844 0.0
C727 C 0.61692 0.5327 0.88049 0.0
C728 C 0.63271 0.55245 0.70937 0.0
C729 C 0.69659 0.57123 0.6509 0.0
C730 C 0.67252 0.55764 0.68277 0.0
C731 C 0.61113 0.53168 0.81208 0.0
C732 C 0.63057 0.53823 0.76222 0.0
H733 H 0.7376 0.62632 0.61921 0.0
H734 H 0.69594 0.60267 0.65464 0.0
H735 H 0.65498 0.57357 0.63128 0.0
H736 H 0.5519 0.51838 0.82451 0.0
H737 H 0.5822 0.52497 0.74045 0.0
C738 C 0.8537 0.5675 0.72206 0.0
C739 C 0.84844 0.56326 0.65324 0.0
C740 C 0.86511 0.55764 0.75668 0.0
C741 C 0.90978 0.54102 0.72966 0.0
H742 H 0.8915 0.51315 0.90276 0.0
C743 C 0.96778 0.51043 0.86899 0.0
C744 C 0.96923 0.5123 0.93896 0.0
C745 C 0.95169 0.51488 0.83308 0.0
C746 C 0.89708 0.5212 0.85489 0.0
H747 H 0.8507 0.54504 0.56729 0.0
H748 H 0.87129 0.52819 0.62769 0.0
H749 H 0.86429 0.52268 0.84255 0.0
H750 H 0.95554 0.52094 0.02614 0.0
H751 H 0.92835 0.52977 0.96357 0.0
H752 H 0.94304 0.54073 0.74278 0.0
C753 C 0.86613 0.53888 0.65476 0.0
C754 C 0.88135 0.52643 0.82024 0.0
C755 C 0.85431 0.54843 0.62037 0.0
C756 C 0.95471 0.51923 0.97222 0.0
C757 C 0.93892 0.52406 0.93627 0.0
C758 C 0.9257 0.53615 0.76471 0.0
C759 C 0.87208 0.54379 0.72293 0.0
C760 C 0.88762 0.53647 0.75746 0.0
C761 C 0.93695 0.52168 0.86623 0.0
C762 C 0.91966 0.5263 0.82804 0.0
H763 H 0.85064 0.57962 0.74859 0.0
H764 H 0.86989 0.56202 0.80899 0.0
H765 H 0.91522 0.54913 0.68177 0.0
H766 H 0.97855 0.50486 0.84199 0.0
H767 H 0.95046 0.51249 0.77939 0.0
C768 C 0.47039 0.4354 0.02314 0.0
C769 C 0.49319 0.44843 0.05553 0.0
C770 C 0.45872 0.41183 0.02241 0.0
C771 C 0.46992 0.36477 0.03114 0.0
H772 H 0.40018 0.33003 0.05881 0.0
C773 C 0.38157 0.26726 0.01701 0.0
C774 C 0.38501 0.26115 0.95272 0.0
C775 C 0.39791 0.28865 0.04414 0.0
C776 C 0.41973 0.33938 0.0522 0.0
H777 H 0.52168 0.44697 0.1125 0.0
H778 H 0.50126 0.40557 0.11032 0.0
H779 H 0.42208 0.3708 0.07868 0.0
H780 H 0.40863 0.27195 0.86778 0.0
H781 H 0.43719 0.30945 0.9147 0.0
H782 H 0.46736 0.33333 1.00258 0.0
C783 C 0.4925 0.41373 0.08576 0.0
C784 C 0.4322 0.36276 0.06283 0.0
C785 C 0.50411 0.43737 0.08712 0.0
C786 C 0.40578 0.27628 0.91766 0.0
C787 C 0.42215 0.29766 0.94474 0.0
C788 C 0.45739 0.34132 0.02005 0.0
C789 C 0.46965 0.40076 0.0536 0.0
C790 C 0.45727 0.37575 0.05074 0.0
C791 C 0.41787 0.30436 0.00724 0.0
C792 C 0.43205 0.32847 0.02901 0.0
H793 H 0.46149 0.44339 0.99837 0.0
H794 H 0.44127 0.40225 0.9964 0.0
H795 H 0.48926 0.37442 0.02132 0.0
H796 H 0.36538 0.25622 0.0444 0.0
H797 H 0.39424 0.29331 0.09259 0.0
C798 C 0.69649 0.09666 0.63356 0.0
C799 C 0.71199 0.11845 0.66046 0.0
C800 C 0.67121 0.08724 0.63396 0.0
C801 C 0.6219 0.10063 0.66865 0.0
H802 H 0.5861 0.03736 0.71653 0.0
C803 C 0.53517 0.05872 0.82362 0.0
C804 C 0.51735 0.03609 0.80932 0.0
C805 C 0.55605 0.06967 0.7853 0.0
C806 C 0.59568 0.0549 0.70166 0.0
H807 H 0.71333 0.14773 0.70738 0.0
H808 H 0.66921 0.13096 0.71121 0.0
H809 H 0.62886 0.05471 0.68964 0.0
H810 H 0.50653 0.00771 0.7409 0.0
H811 H 0.54334 0.0268 0.67437 0.0
H812 H 0.58877 0.10092 0.68575 0.0
C813 C 0.67645 0.12131 0.68779 0.0
C814 C 0.62029 0.06492 0.68612 0.0
C815 C 0.70178 0.1309 0.68618 0.0
C816 C 0.51992 0.02516 0.75294 0.0
C817 C 0.54102 0.03603 0.71512 0.0
C818 C 0.59731 0.09064 0.68521 0.0
C819 C 0.6608 0.0992 0.66259 0.0
C820 C 0.63391 0.08805 0.67088 0.0
C821 C 0.55966 0.0581 0.73251 0.0
C822 C 0.58414 0.0678 0.70324 0.0
H823 H 0.70389 0.0868 0.61243 0.0
H824 H 0.65983 0.07042 0.61259 0.0
H825 H 0.63163 0.11834 0.65572 0.0
H826 H 0.53358 0.06758 0.86663 0.0
H827 H 0.57017 0.08662 0.80014 0.0
C828 C 0.49385 0.9385 0.92929 0.0
C829 C 0.50128 0.95803 0.96919 0.0
C830 C 0.5049 0.92541 0.93745 0.0
C831 C 0.53943 0.91285 0.06156 0.0
H832 H 0.55894 0.8904 0.91 0.0
C833 C 0.61021 0.87984 0.01203 0.0
C834 C 0.60526 0.86591 0.0675 0.0
C835 C 0.59431 0.88746 0.99343 0.0
C836 C 0.55353 0.89652 0.95275 0.0
H837 H 0.52644 0.97935 0.04804 0.0
H838 H 0.54575 0.9566 0.06194 0.0
H839 H 0.53837 0.91207 0.89135 0.0
H840 H 0.5795 0.84815 0.14506 0.0
H841 H 0.55137 0.86107 0.11206 0.0
H842 H 0.5552 0.89808 0.12309 0.0
C843 C 0.53117 0.95124 0.02498 0.0
C844 C 0.54162 0.90878 0.94209 0.0
C845 C 0.52021 0.96436 0.0167 0.0
C846 C 0.58358 0.85883 0.10199 0.0
C847 C 0.56764 0.86635 0.08335 0.0
C848 C 0.55122 0.90059 0.0722 0.0
C849 C 0.52351 0.93153 0.98587 0.0
C850 C 0.53481 0.91737 0.99647 0.0
C851 C 0.57324 0.88137 0.03025 0.0
C852 C 0.55868 0.8925 0.01798 0.0
H853 H 0.47934 0.93321 0.89212 0.0
H854 H 0.49854 0.91024 0.90685 0.0
H855 H 0.53409 0.91898 0.10446 0.0
H856 H 0.62715 0.88608 0.98584 0.0
H857 H 0.59933 0.89925 0.95288 0.0
C858 C 0.16343 0.72734 0.3019 0.0
C859 C 0.16631 0.72855 0.37177 0.0
C860 C 0.1556 0.70696 0.26715 0.0
C861 C 0.13953 0.64644 0.28757 0.0
H862 H 0.09307 0.63645 0.14483 0.0
C863 C 0.06124 0.55867 0.19428 0.0
C864 C 0.05966 0.55472 0.12496 0.0
C865 C 0.07768 0.58009 0.22121 0.0
C866 C 0.10619 0.6391 0.18412 0.0
H867 H 0.16397 0.70937 0.45941 0.0
H868 H 0.14897 0.67355 0.39969 0.0
H869 H 0.11663 0.67378 0.19671 0.0
H870 H 0.07396 0.56999 0.02947 0.0
H871 H 0.10209 0.60765 0.07666 0.0
H872 H 0.12754 0.61104 0.277 0.0
C873 C 0.15363 0.68848 0.37104 0.0
C874 C 0.11993 0.66057 0.21365 0.0
C875 C 0.16207 0.70902 0.40555 0.0
C876 C 0.0748 0.57255 0.0831 0.0
C877 C 0.09086 0.59406 0.10994 0.0
C878 C 0.12536 0.6248 0.25884 0.0
C879 C 0.14954 0.68701 0.3015 0.0
C880 C 0.13668 0.66455 0.26622 0.0
C881 C 0.09243 0.59798 0.17917 0.0
C882 C 0.10847 0.62097 0.20725 0.0
H883 H 0.16554 0.74158 0.27392 0.0
H884 H 0.15326 0.70669 0.21348 0.0
H885 H 0.1525 0.64886 0.32699 0.0
H886 H 0.04989 0.54519 0.22771 0.0
H887 H 0.07846 0.58282 0.27475 0.0
C888 C 0.47253 0.50074 0.25728 0.0
C889 C 0.47593 0.51381 0.20055 0.0
C890 C 0.45176 0.49358 0.29582 0.0
C891 C 0.38876 0.48294 0.27562 0.0
H892 H 0.38479 0.46854 0.46328 0.0
C893 C 0.2979 0.44306 0.41591 0.0
C894 C 0.29268 0.42352 0.45098 0.0
C895 C 0.32125 0.45707 0.39126 0.0
C896 C 0.38568 0.47252 0.41083 0.0
H897 H 0.46168 0.53139 0.14299 0.0
H898 H 0.42618 0.51991 0.21181 0.0
H899 H 0.42468 0.489 0.41152 0.0
H900 H 0.30784 0.40397 0.49164 0.0
H901 H 0.34879 0.42854 0.44922 0.0
H902 H 0.34979 0.46641 0.27501 0.0
C903 C 0.43883 0.51428 0.22517 0.0
C904 C 0.4085 0.48415 0.38108 0.0
C905 C 0.45929 0.52105 0.18603 0.0
C906 C 0.31145 0.41883 0.46395 0.0
C907 C 0.33484 0.43293 0.44006 0.0
C908 C 0.36604 0.47158 0.30553 0.0
C909 C 0.43423 0.49966 0.27886 0.0
C910 C 0.41031 0.48922 0.31278 0.0
C911 C 0.3399 0.45203 0.40273 0.0
C912 C 0.36423 0.46593 0.37311 0.0
H913 H 0.48503 0.49481 0.2693 0.0
H914 H 0.44882 0.48222 0.33647 0.0
H915 H 0.38926 0.48601 0.22261 0.0
H916 H 0.28394 0.4475 0.40783 0.0
H917 H 0.32478 0.47189 0.36349 0.0
C918 C 0.80018 0.74254 0.53317 0.0
C919 C 0.81968 0.73914 0.54895 0.0
C920 C 0.8042 0.76164 0.49819 0.0
C921 C 0.8423 0.79651 0.36916 0.0
H922 H 0.80972 0.83087 0.39811 0.0
C923 C 0.81591 0.85975 0.22 0.0
C924 C 0.7999 0.84414 0.17133 0.0
C925 C 0.82641 0.85287 0.26956 0.0
C926 C 0.81941 0.8218 0.39003 0.0
H927 H 0.85903 0.75449 0.5486 0.0
H928 H 0.86594 0.7873 0.48385 0.0
H929 H 0.81169 0.80776 0.48794 0.0
H930 H 0.78515 0.80998 0.13143 0.0
H931 H 0.80437 0.79843 0.2156 0.0
H932 H 0.84816 0.809 0.2694 0.0
C933 C 0.84753 0.77501 0.49789 0.0
C934 C 0.82038 0.80851 0.44112 0.0
C935 C 0.84353 0.7561 0.53397 0.0
C936 C 0.79712 0.8224 0.16853 0.0
C937 C 0.80811 0.81574 0.21677 0.0
C938 C 0.84092 0.80945 0.31768 0.0
C939 C 0.82781 0.77761 0.47821 0.0
C940 C 0.83115 0.7952 0.43033 0.0
C941 C 0.82197 0.8306 0.26925 0.0
C942 C 0.82879 0.82162 0.32711 0.0
H943 H 0.78167 0.72984 0.54483 0.0
H944 H 0.78866 0.76321 0.48329 0.0
H945 H 0.85053 0.78624 0.35946 0.0
H946 H 0.81985 0.87704 0.2212 0.0
H947 H 0.83742 0.86471 0.3091 0.0
C948 C 0.17484 0.04156 0.82155 0.0
C949 C 0.18961 0.06403 0.80138 0.0
C950 C 0.16481 0.02376 0.77457 0.0
C951 C 0.17926 0.0128 0.60484 0.0
H952 H 0.12686 0.95198 0.63958 0.0
C953 C 0.16432 0.93581 0.4477 0.0
C954 C 0.16666 0.92023 0.48757 0.0
C955 C 0.16042 0.95232 0.47698 0.0
C956 C 0.14132 0.96897 0.62887 0.0
H957 H 0.20445 0.08515 0.71444 0.0
H958 H 0.18475 0.05482 0.63334 0.0
H959 H 0.13063 0.9838 0.70606 0.0
H960 H 0.16799 0.91031 0.5891 0.0
H961 H 0.16008 0.93848 0.64019 0.0
H962 H 0.18994 -0.00215 0.52804 0.0
C963 C 0.18169 0.0507 0.68564 0.0
C964 C 0.14366 0.98719 0.66722 0.0
C965 C 0.19246 0.06837 0.73264 0.0
C966 C 0.16498 0.92137 0.55711 0.0
C967 C 0.16061 0.93755 0.58628 0.0
C968 C 0.17656 0.9947 0.56571 0.0
C969 C 0.16894 0.02806 0.70598 0.0
C970 C 0.16325 0.00927 0.65743 0.0
C971 C 0.15867 0.95337 0.54657 0.0
C972 C 0.15812 0.97258 0.57893 0.0
H973 H 0.17246 0.03766 0.87411 0.0
H974 H 0.15532 0.00663 0.79276 0.0
H975 H 0.19492 0.02932 0.59616 0.0
H976 H 0.166 0.93543 0.39406 0.0
H977 H 0.15931 0.96458 0.44554 0.0
C978 C 0.87376 0.15389 0.66201 0.0
C979 C 0.86383 0.16794 0.67266 0.0
C980 C 0.89896 0.16329 0.65579 0.0
C981 C 0.95824 0.21655 0.68366 0.0
H982 H 0.97816 0.19716 0.52609 0.0
C983 C 0.04249 0.27574 0.53722 0.0
C984 C 0.0574 0.26777 0.51289 0.0
C985 C 0.02086 0.26111 0.56883 0.0
C986 C 0.97298 0.20246 0.57107 0.0
H987 H 0.87256 0.20272 0.68792 0.0
H988 H 0.91621 0.21902 0.67648 0.0
H989 H 0.93598 0.17535 0.56192 0.0
H990 H 0.06187 0.23863 0.50154 0.0
H991 H 0.02337 0.21253 0.55628 0.0
H992 H 0.99494 0.24436 0.69053 0.0
C993 C 0.9047 0.20077 0.67359 0.0
C994 C 0.94884 0.18996 0.59169 0.0
C995 C 0.87961 0.19143 0.67951 0.0
C996 C 0.05051 0.24497 0.52057 0.0
C997 C 0.02861 0.23017 0.55153 0.0
C998 C 0.9823 0.22908 0.66285 0.0
C999 C 0.91465 0.18687 0.6606 0.0
C1000 C 0.94102 0.19737 0.64675 0.0
C1001 C 0.0136 0.23815 0.57593 0.0
C1002 C 0.98965 0.22261 0.605 0.0
H1003 H 0.86203 0.13571 0.65662 0.0
H1004 H 0.90613 0.15215 0.64621 0.0
H1005 H 0.95288 0.2224 0.72713 0.0
H1006 H 0.04766 0.29332 0.53147 0.0
H1007 H 0.00945 0.26764 0.58609 0.0
C1008 C 0.25966 0.21918 0.84435 0.0
C1009 C 0.24543 0.19575 0.85449 0.0
C1010 C 0.25071 0.23022 0.80527 0.0
C1011 C 0.19701 0.22794 0.7286 0.0
H1012 H 0.24199 0.26179 0.58858 0.0
C1013 C 0.17262 0.2738 0.52902 0.0
C1014 C 0.19104 0.29622 0.51748 0.0
C1015 C 0.17795 0.25915 0.56381 0.0
C1016 C 0.22928 0.25256 0.62755 0.0
H1017 H 0.20965 0.16608 0.83757 0.0
H1018 H 0.1939 0.18559 0.7695 0.0
H1019 H 0.25293 0.24192 0.66957 0.0
H1020 H 0.22973 0.32039 0.52985 0.0
H1021 H 0.23893 0.29506 0.59089 0.0
H1022 H 0.17367 0.23918 0.68791 0.0
C1023 C 0.21213 0.19521 0.79116 0.0
C1024 C 0.23556 0.2412 0.67392 0.0
C1025 C 0.22117 0.18407 0.83015 0.0
C1026 C 0.21512 0.30323 0.53781 0.0
C1027 C 0.22041 0.28863 0.57271 0.0
C1028 C 0.19081 0.23953 0.68248 0.0
C1029 C 0.22727 0.21814 0.77599 0.0
C1030 C 0.21969 0.22914 0.72555 0.0
C1031 C 0.20178 0.26662 0.58773 0.0
C1032 C 0.20708 0.25229 0.63209 0.0
H1033 H 0.27832 0.22879 0.86306 0.0
H1034 H 0.26252 0.24805 0.79555 0.0
H1035 H 0.18448 0.21871 0.76793 0.0
H1036 H 0.15387 0.26784 0.51382 0.0
H1037 H 0.16328 0.24216 0.57346 0.0
C1038 C 0.73205 0.93624 0.16207 0.0
C1039 C 0.74452 0.92425 0.15551 0.0
C1040 C 0.74119 0.95518 0.20441 0.0
C1041 C 0.77788 0.97593 0.35853 0.0
H1042 H 0.76247 0.02378 0.34131 0.0
C1043 C 0.79223 0.04143 0.56918 0.0
C1044 C 0.77181 0.04385 0.57897 0.0
C1045 C 0.79269 0.02861 0.51499 0.0
C1046 C 0.76691 0.01051 0.34667 0.0
H1047 H 0.77767 0.92413 0.18268 0.0
H1048 H 0.7939 0.95759 0.25574 0.0
H1049 H 0.75924 0.00083 0.2435 0.0
H1050 H 0.73578 0.0346 0.54201 0.0
H1051 H 0.73642 0.01209 0.44719 0.0
H1052 H 0.78524 0.98557 0.46214 0.0
C1053 C 0.77672 0.95196 0.2294 0.0
C1054 C 0.76509 -0.00261 0.29076 0.0
C1055 C 0.76754 0.93293 0.18697 0.0
C1056 C 0.75155 0.03268 0.5355 0.0
C1057 C 0.7521 0.02014 0.481 0.0
C1058 C 0.77997 0.98926 0.41434 0.0
C1059 C 0.76309 0.96265 0.24092 0.0
C1060 C 0.76974 0.97943 0.29648 0.0
C1061 C 0.77286 0.01837 0.46948 0.0
C1062 C 0.77371 0.00615 0.40927 0.0
H1063 H 0.71433 0.93007 0.13821 0.0
H1064 H 0.73009 0.96287 0.2122 0.0
H1065 H 0.78131 0.96207 0.36505 0.0
H1066 H 0.80802 0.05002 0.60236 0.0
H1067 H 0.80886 0.02741 0.50722 0.0
C1068 C 0.91219 0.67777 0.56341 0.0
C1069 C 0.89701 0.68709 0.57012 0.0
C1070 C 0.93669 0.69148 0.54784 0.0
C1071 C 0.9873 0.75059 0.54785 0.0
H1072 H 0.01362 0.72708 0.41649 0.0
C1073 C 0.08514 0.80378 0.44903 0.0
C1074 C 0.09872 0.79272 0.44725 0.0
C1075 C 0.06006 0.79158 0.46006 0.0
C1076 C 0.00657 0.73382 0.45351 0.0
H1077 H 0.89586 0.71825 0.568 0.0
H1078 H 0.93868 0.74219 0.54014 0.0
H1079 H 0.97089 0.70459 0.44619 0.0
H1080 H 0.09648 0.76005 0.45376 0.0
H1081 H 0.05287 0.73886 0.47299 0.0
H1082 H 0.02312 0.77978 0.55538 0.0
C1083 C 0.9316 0.72428 0.54725 0.0
C1084 C 0.98213 0.72093 0.47066 0.0
C1085 C 0.90705 0.71054 0.56291 0.0
C1086 C 0.08658 0.76912 0.4548 0.0
C1087 C 0.06155 0.75694 0.46555 0.0
C1088 C 0.01179 0.76352 0.53061 0.0
C1089 C 0.94657 0.71481 0.53855 0.0
C1090 C 0.9723 0.72903 0.51864 0.0
C1091 C 0.04807 0.76806 0.469 0.0
C1092 C 0.02173 0.75512 0.48387 0.0
H1093 H 0.90507 0.65979 0.56904 0.0
H1094 H 0.94789 0.68376 0.54282 0.0
H1095 H 0.9803 0.7572 0.58536 0.0
H1096 H 0.09386 0.82188 0.44256 0.0
H1097 H 0.05006 0.80055 0.46158 0.0
loop_
_geom_bond_atom_site_label_1
_geom_bond_atom_site_label_2
_geom_bond_distance
_geom_bond_site_symmetry_2
_ccdc_geom_bond_type
Zn0 O1 2.055 1_455 S
Zn0 O8 2.046 1_455 S
Zn0 N16 2.036 . S
Zn0 O28 2.053 . S
Zn0 O30 2.066 . S
O1 Zn0 2.055 1_655 S
O1 C4 1.259 . S
C2 O30 1.256 . S
C2 O31 1.244 . S
Zn3 O5 2.046 . S
Zn3 O7 2.055 . S
Zn3 N9 2.036 . S
Zn3 O27 2.066 . S
Zn3 O31 2.053 1_556 S
C4 O1 1.259 . S
C4 O5 1.254 1_654 S
O5 Zn3 2.046 . S
O5 C4 1.254 1_456 S
C6 O27 1.256 1_554 S
C6 O28 1.244 . S
O7 Zn3 2.055 . S
O7 C29 1.259 1_456 S
O8 Zn0 2.046 1_655 S
O8 C29 1.254 . S
N9 Zn3 2.036 . S
N9 C10 1.298 . S
N9 N12 1.398 . S
C10 N9 1.298 . S
C10 N13 1.367 . S
C10 C23 1.481 . S
C11 N12 1.299 . S
C11 N13 1.379 . S
N12 N9 1.398 . S
N12 C11 1.299 . S
N13 C10 1.367 . S
N13 C11 1.379 . S
C14 N16 1.298 . S
C14 N18 1.367 . S
C14 C22 1.481 1_455 S
C15 N17 1.299 . S
C15 N18 1.379 . S
N16 Zn0 2.036 . S
N16 C14 1.298 . S
N16 N17 1.398 . S
N17 C15 1.299 . S
N17 N16 1.398 . S
N18 C14 1.367 . S
N18 C15 1.379 . S
H19 C22 0.980 . S
H20 C22 0.981 . S
H21 C22 0.981 1_455 S
C22 C14 1.481 1_655 S
C22 H19 0.980 . S
C22 H20 0.981 . S
C22 H21 0.981 1_655 S
C23 C10 1.481 . S
C23 H24 0.980 . S
C23 H25 0.981 . S
C23 H26 0.981 . S
H24 C23 0.980 . S
H25 C23 0.981 . S
H26 C23 0.981 . S
O27 Zn3 2.066 . S
O27 C6 1.256 1_556 S
O28 Zn0 2.053 . S
O28 C6 1.244 . S
C29 O7 1.259 1_654 S
C29 O8 1.254 . S
O30 Zn0 2.066 . S
O30 C2 1.256 . S
O31 C2 1.244 . S
O31 Zn3 2.053 1_554 S
Zn32 O33 2.055 . S
Zn32 O40 2.046 . S
Zn32 N48 2.036 . S
Zn32 O60 2.053 . S
Zn32 O62 2.066 . S
O33 Zn32 2.055 . S
O33 C36 1.259 . S
C34 O62 1.256 . S
C34 O63 1.244 1_554 S
Zn35 O37 2.046 . S
Zn35 O39 2.055 . S
Zn35 N41 2.036 . S
Zn35 O59 2.066 . S
Zn35 O63 2.053 . S
C36 O33 1.259 . S
C36 O37 1.254 1_554 S
O37 Zn35 2.046 . S
O37 C36 1.254 1_556 S
C38 O59 1.256 . S
C38 O60 1.244 1_556 S
O39 Zn35 2.055 . S
O39 C61 1.259 1_556 S
O40 Zn32 2.046 . S
O40 C61 1.254 . S
N41 Zn35 2.036 . S
N41 C42 1.298 . S
N41 N44 1.398 . S
C42 N41 1.298 . S
C42 N45 1.367 . S
C42 C55 1.481 . S
C43 N44 1.299 . S
C43 N45 1.379 . S
N44 N41 1.398 . S
N44 C43 1.299 . S
N45 C42 1.367 . S
N45 C43 1.379 . S
C46 N48 1.298 . S
C46 N50 1.367 . S
C46 C54 1.481 . S
C47 N49 1.299 . S
C47 N50 1.379 . S
N48 Zn32 2.036 . S
N48 C46 1.298 . S
N48 N49 1.398 . S
N49 C47 1.299 . S
N49 N48 1.398 . S
N50 C46 1.367 . S
N50 C47 1.379 . S
H51 C54 0.980 . S
H52 C54 0.981 . S
H53 C54 0.981 . S
C54 C46 1.481 . S
C54 H51 0.980 . S
C54 H52 0.981 . S
C54 H53 0.981 . S
C55 C42 1.481 . S
C55 H56 0.980 . S
C55 H57 0.981 . S
C55 H58 0.981 . S
H56 C55 0.980 . S
H57 C55 0.981 . S
H58 C55 0.981 . S
O59 Zn35 2.066 . S
O59 C38 1.256 . S
O60 Zn32 2.053 . S
O60 C38 1.244 1_554 S
C61 O39 1.259 1_554 S
C61 O40 1.254 . S
O62 Zn32 2.066 . S
O62 C34 1.256 . S
O63 C34 1.244 1_556 S
O63 Zn35 2.053 . S
Zn64 O65 2.055 . S
Zn64 O72 2.046 . S
Zn64 N80 2.036 . S
Zn64 O92 2.053 1_545 S
Zn64 O94 2.066 1_545 S
O65 Zn64 2.055 . S
O65 C68 1.259 1_554 S
C66 O94 1.256 . S
C66 O95 1.244 1_554 S
Zn67 O69 2.046 . S
Zn67 O71 2.055 . S
Zn67 N73 2.036 1_545 S
Zn67 O91 2.066 1_545 S
Zn67 O95 2.053 1_545 S
C68 O65 1.259 1_556 S
C68 O69 1.254 . S
O69 Zn67 2.046 . S
O69 C68 1.254 . S
C70 O91 1.256 1_554 S
C70 O92 1.244 . S
O71 Zn67 2.055 . S
O71 C93 1.259 . S
O72 Zn64 2.046 . S
O72 C93 1.254 1_554 S
N73 Zn67 2.036 1_565 S
N73 C74 1.298 . S
N73 N76 1.398 . S
C74 N73 1.298 . S
C74 N77 1.367 . S
C74 C87 1.481 1_565 S
C75 N76 1.299 . S
C75 N77 1.379 . S
N76 N73 1.398 . S
N76 C75 1.299 . S
N77 C74 1.367 . S
N77 C75 1.379 . S
C78 N80 1.298 . S
C78 N82 1.367 . S
C78 C86 1.481 . S
C79 N81 1.299 . S
C79 N82 1.379 . S
N80 Zn64 2.036 . S
N80 C78 1.298 . S
N80 N81 1.398 . S
N81 C79 1.299 . S
N81 N80 1.398 . S
N82 C78 1.367 . S
N82 C79 1.379 . S
H83 C86 0.980 . S
H84 C86 0.981 . S
H85 C86 0.981 . S
C86 C78 1.481 . S
C86 H83 0.980 . S
C86 H84 0.981 . S
C86 H85 0.981 . S
C87 C74 1.481 1_545 S
C87 H88 0.980 . S
C87 H89 0.981 . S
C87 H90 0.981 1_545 S
H88 C87 0.980 . S
H89 C87 0.981 . S
H90 C87 0.981 1_565 S
O91 Zn67 2.066 1_565 S
O91 C70 1.256 1_556 S
O92 Zn64 2.053 1_565 S
O92 C70 1.244 . S
C93 O71 1.259 . S
C93 O72 1.254 1_556 S
O94 Zn64 2.066 1_565 S
O94 C66 1.256 . S
O95 C66 1.244 1_556 S
O95 Zn67 2.053 1_565 S
Zn96 O97 2.055 . S
Zn96 O104 2.046 . S
Zn96 N112 2.036 . S
Zn96 O124 2.053 . S
Zn96 O126 2.066 . S
O97 Zn96 2.055 . S
O97 C100 1.259 . S
C98 O126 1.256 . S
C98 O127 1.244 . S
Zn99 O101 2.046 . S
Zn99 O103 2.055 . S
Zn99 N105 2.036 . S
Zn99 O123 2.066 . S
Zn99 O127 2.053 . S
C100 O97 1.259 . S
C100 O101 1.254 . S
O101 Zn99 2.046 . S
O101 C100 1.254 . S
C102 O123 1.256 . S
C102 O124 1.244 . S
O103 Zn99 2.055 . S
O103 C125 1.259 . S
O104 Zn96 2.046 . S
O104 C125 1.254 . S
N105 Zn99 2.036 . S
N105 C106 1.298 . S
N105 N108 1.398 . S
C106 N105 1.298 . S
C106 N109 1.367 . S
C106 C119 1.481 . S
C107 N108 1.299 . S
C107 N109 1.379 . S
N108 N105 1.398 . S
N108 C107 1.299 . S
N109 C106 1.367 . S
N109 C107 1.379 . S
C110 N112 1.298 . S
C110 N114 1.367 . S
C110 C118 1.481 . S
C111 N113 1.299 . S
C111 N114 1.379 . S
N112 Zn96 2.036 . S
N112 C110 1.298 . S
N112 N113 1.398 . S
N113 C111 1.299 . S
N113 N112 1.398 . S
N114 C110 1.367 . S
N114 C111 1.379 . S
H115 C118 0.980 . S
H116 C118 0.981 . S
H117 C118 0.981 . S
C118 C110 1.481 . S
C118 H115 0.980 . S
C118 H116 0.981 . S
C118 H117 0.981 . S
C119 C106 1.481 . S
C119 H120 0.980 . S
C119 H121 0.981 . S
C119 H122 0.981 . S
H120 C119 0.980 . S
H121 C119 0.981 . S
H122 C119 0.981 . S
O123 Zn99 2.066 . S
O123 C102 1.256 . S
O124 Zn96 2.053 . S
O124 C102 1.244 . S
C125 O103 1.259 . S
C125 O104 1.254 . S
O126 Zn96 2.066 . S
O126 C98 1.256 . S
O127 C98 1.244 . S
O127 Zn99 2.053 . S
Zn128 O129 2.055 . S
Zn128 O136 2.046 . S
Zn128 N144 2.036 . S
Zn128 O156 2.053 . S
Zn128 O158 2.066 . S
O129 Zn128 2.055 . S
O129 C132 1.259 . S
C130 O158 1.256 . S
C130 O159 1.244 . S
Zn131 O133 2.046 . S
Zn131 O135 2.055 . S
Zn131 N137 2.036 . S
Zn131 O155 2.066 . S
Zn131 O159 2.053 . S
C132 O129 1.259 . S
C132 O133 1.254 . S
O133 Zn131 2.046 . S
O133 C132 1.254 . S
C134 O155 1.256 . S
C134 O156 1.244 . S
O135 Zn131 2.055 . S
O135 C157 1.259 . S
O136 Zn128 2.046 . S
O136 C157 1.254 . S
N137 Zn131 2.036 . S
N137 C138 1.298 . S
N137 N140 1.398 . S
C138 N137 1.298 . S
C138 N141 1.367 . S
C138 C151 1.481 . S
C139 N140 1.299 . S
C139 N141 1.379 . S
N140 N137 1.398 . S
N140 C139 1.299 . S
N141 C138 1.367 . S
N141 C139 1.379 . S
C142 N144 1.298 . S
C142 N146 1.367 . S
C142 C150 1.481 . S
C143 N145 1.299 . S
C143 N146 1.379 . S
N144 Zn128 2.036 . S
N144 C142 1.298 . S
N144 N145 1.398 . S
N145 C143 1.299 . S
N145 N144 1.398 . S
N146 C142 1.367 . S
N146 C143 1.379 . S
H147 C150 0.980 . S
H148 C150 0.981 . S
H149 C150 0.981 . S
C150 C142 1.481 . S
C150 H147 0.980 . S
C150 H148 0.981 . S
C150 H149 0.981 . S
C151 C138 1.481 . S
C151 H152 0.980 . S
C151 H153 0.981 . S
C151 H154 0.981 . S
H152 C151 0.980 . S
H153 C151 0.981 . S
H154 C151 0.981 . S
O155 Zn131 2.066 . S
O155 C134 1.256 . S
O156 Zn128 2.053 . S
O156 C134 1.244 . S
C157 O135 1.259 . S
C157 O136 1.254 . S
O158 Zn128 2.066 . S
O158 C130 1.256 . S
O159 C130 1.244 . S
O159 Zn131 2.053 . S
Zn160 O161 2.055 . S
Zn160 O168 2.046 . S
Zn160 N176 2.036 . S
Zn160 O188 2.053 . S
Zn160 O190 2.066 . S
O161 Zn160 2.055 . S
O161 C164 1.259 . S
C162 O190 1.256 . S
C162 O191 1.244 . S
Zn163 O165 2.046 . S
Zn163 O167 2.055 . S
Zn163 N169 2.036 . S
Zn163 O187 2.066 . S
Zn163 O191 2.053 . S
C164 O161 1.259 . S
C164 O165 1.254 . S
O165 Zn163 2.046 . S
O165 C164 1.254 . S
C166 O187 1.256 . S
C166 O188 1.244 . S
O167 Zn163 2.055 . S
O167 C189 1.259 . S
O168 Zn160 2.046 . S
O168 C189 1.254 . S
N169 Zn163 2.036 . S
N169 C170 1.298 . S
N169 N172 1.398 . S
C170 N169 1.298 . S
C170 N173 1.367 . S
C170 C183 1.481 . S
C171 N172 1.299 . S
C171 N173 1.379 . S
N172 N169 1.398 . S
N172 C171 1.299 . S
N173 C170 1.367 . S
N173 C171 1.379 . S
C174 N176 1.298 . S
C174 N178 1.367 . S
C174 C182 1.481 . S
C175 N177 1.299 . S
C175 N178 1.379 . S
N176 Zn160 2.036 . S
N176 C174 1.298 . S
N176 N177 1.398 . S
N177 C175 1.299 . S
N177 N176 1.398 . S
N178 C174 1.367 . S
N178 C175 1.379 . S
H179 C182 0.980 . S
H180 C182 0.981 . S
H181 C182 0.981 . S
C182 C174 1.481 . S
C182 H179 0.980 . S
C182 H180 0.981 . S
C182 H181 0.981 . S
C183 C170 1.481 . S
C183 H184 0.980 . S
C183 H185 0.981 . S
C183 H186 0.981 . S
H184 C183 0.980 . S
H185 C183 0.981 . S
H186 C183 0.981 . S
O187 Zn163 2.066 . S
O187 C166 1.256 . S
O188 Zn160 2.053 . S
O188 C166 1.244 . S
C189 O167 1.259 . S
C189 O168 1.254 . S
O190 Zn160 2.066 . S
O190 C162 1.256 . S
O191 C162 1.244 . S
O191 Zn163 2.053 . S
Zn192 O193 2.055 . S
Zn192 O200 2.046 . S
Zn192 N208 2.036 . S
Zn192 O220 2.053 . S
Zn192 O222 2.066 . S
O193 Zn192 2.055 . S
O193 C196 1.259 . S
C194 O222 1.256 . S
C194 O223 1.244 . S
Zn195 O197 2.046 . S
Zn195 O199 2.055 . S
Zn195 N201 2.036 . S
Zn195 O219 2.066 . S
Zn195 O223 2.053 . S
C196 O193 1.259 . S
C196 O197 1.254 . S
O197 Zn195 2.046 . S
O197 C196 1.254 . S
C198 O219 1.256 . S
C198 O220 1.244 . S
O199 Zn195 2.055 . S
O199 C221 1.259 . S
O200 Zn192 2.046 . S
O200 C221 1.254 . S
N201 Zn195 2.036 . S
N201 C202 1.298 . S
N201 N204 1.398 . S
C202 N201 1.298 . S
C202 N205 1.367 . S
C202 C215 1.481 . S
C203 N204 1.299 . S
C203 N205 1.379 . S
N204 N201 1.398 . S
N204 C203 1.299 . S
N205 C202 1.367 . S
N205 C203 1.379 . S
C206 N208 1.298 . S
C206 N210 1.367 . S
C206 C214 1.481 . S
C207 N209 1.299 . S
C207 N210 1.379 . S
N208 Zn192 2.036 . S
N208 C206 1.298 . S
N208 N209 1.398 . S
N209 C207 1.299 . S
N209 N208 1.398 . S
N210 C206 1.367 . S
N210 C207 1.379 . S
H211 C214 0.980 . S
H212 C214 0.981 . S
H213 C214 0.981 . S
C214 C206 1.481 . S
C214 H211 0.980 . S
C214 H212 0.981 . S
C214 H213 0.981 . S
C215 C202 1.481 . S
C215 H216 0.980 . S
C215 H217 0.981 . S
C215 H218 0.981 . S
H216 C215 0.980 . S
H217 C215 0.981 . S
H218 C215 0.981 . S
O219 Zn195 2.066 . S
O219 C198 1.256 . S
O220 Zn192 2.053 . S
O220 C198 1.244 . S
C221 O199 1.259 . S
C221 O200 1.254 . S
O222 Zn192 2.066 . S
O222 C194 1.256 . S
O223 C194 1.244 . S
O223 Zn195 2.053 . S
Zn224 O225 2.055 . S
Zn224 O232 2.046 . S
Zn224 N240 2.036 . S
Zn224 O252 2.053 . S
Zn224 O254 2.066 . S
O225 Zn224 2.055 . S
O225 C228 1.259 . S
C226 O254 1.256 . S
C226 O255 1.244 . S
Zn227 O229 2.046 . S
Zn227 O231 2.055 . S
Zn227 N233 2.036 . S
Zn227 O251 2.066 . S
Zn227 O255 2.053 . S
C228 O225 1.259 . S
C228 O229 1.254 . S
O229 Zn227 2.046 . S
O229 C228 1.254 . S
C230 O251 1.256 . S
C230 O252 1.244 . S
O231 Zn227 2.055 . S
O231 C253 1.259 . S
O232 Zn224 2.046 . S
O232 C253 1.254 . S
N233 Zn227 2.036 . S
N233 C234 1.298 . S
N233 N236 1.398 . S
C234 N233 1.298 . S
C234 N237 1.367 . S
C234 C247 1.481 . S
C235 N236 1.299 . S
C235 N237 1.379 . S
N236 N233 1.398 . S
N236 C235 1.299 . S
N237 C234 1.367 . S
N237 C235 1.379 . S
C238 N240 1.298 . S
C238 N242 1.367 . S
C238 C246 1.481 . S
C239 N241 1.299 . S
C239 N242 1.379 . S
N240 Zn224 2.036 . S
N240 C238 1.298 . S
N240 N241 1.398 . S
N241 C239 1.299 . S
N241 N240 1.398 . S
N242 C238 1.367 . S
N242 C239 1.379 . S
H243 C246 0.980 . S
H244 C246 0.981 . S
H245 C246 0.981 . S
C246 C238 1.481 . S
C246 H243 0.980 . S
C246 H244 0.981 . S
C246 H245 0.981 . S
C247 C234 1.481 . S
C247 H248 0.980 . S
C247 H249 0.981 . S
C247 H250 0.981 . S
H248 C247 0.980 . S
H249 C247 0.981 . S
H250 C247 0.981 . S
O251 Zn227 2.066 . S
O251 C230 1.256 . S
O252 Zn224 2.053 . S
O252 C230 1.244 . S
C253 O231 1.259 . S
C253 O232 1.254 . S
O254 Zn224 2.066 . S
O254 C226 1.256 . S
O255 C226 1.244 . S
O255 Zn227 2.053 . S
Zn256 O257 2.055 . S
Zn256 O264 2.046 . S
Zn256 N272 2.036 . S
Zn256 O284 2.053 . S
Zn256 O286 2.066 . S
O257 Zn256 2.055 . S
O257 C260 1.259 . S
C258 O286 1.256 . S
C258 O287 1.244 . S
Zn259 O261 2.046 . S
Zn259 O263 2.055 . S
Zn259 N265 2.036 . S
Zn259 O283 2.066 . S
Zn259 O287 2.053 . S
C260 O257 1.259 . S
C260 O261 1.254 . S
O261 Zn259 2.046 . S
O261 C260 1.254 . S
C262 O283 1.256 . S
C262 O284 1.244 . S
O263 Zn259 2.055 . S
O263 C285 1.259 . S
O264 Zn256 2.046 . S
O264 C285 1.254 . S
N265 Zn259 2.036 . S
N265 C266 1.298 . S
N265 N268 1.398 . S
C266 N265 1.298 . S
C266 N269 1.367 . S
C266 C279 1.481 . S
C267 N268 1.299 . S
C267 N269 1.379 . S
N268 N265 1.398 . S
N268 C267 1.299 . S
N269 C266 1.367 . S
N269 C267 1.379 . S
C270 N272 1.298 . S
C270 N274 1.367 . S
C270 C278 1.481 . S
C271 N273 1.299 . S
C271 N274 1.379 . S
N272 Zn256 2.036 . S
N272 C270 1.298 . S
N272 N273 1.398 . S
N273 C271 1.299 . S
N273 N272 1.398 . S
N274 C270 1.367 . S
N274 C271 1.379 . S
H275 C278 0.980 . S
H276 C278 0.981 . S
H277 C278 0.981 . S
C278 C270 1.481 . S
C278 H275 0.980 . S
C278 H276 0.981 . S
C278 H277 0.981 . S
C279 C266 1.481 . S
C279 H280 0.980 . S
C279 H281 0.981 . S
C279 H282 0.981 . S
H280 C279 0.980 . S
H281 C279 0.981 . S
H282 C279 0.981 . S
O283 Zn259 2.066 . S
O283 C262 1.256 . S
O284 Zn256 2.053 . S
O284 C262 1.244 . S
C285 O263 1.259 . S
C285 O264 1.254 . S
O286 Zn256 2.066 . S
O286 C258 1.256 . S
O287 C258 1.244 . S
O287 Zn259 2.053 . S
C288 C289 1.349 . S
C288 C290 1.327 . S
C288 H313 0.950 . S
C289 C288 1.349 . S
C289 C305 1.349 . S
C290 C288 1.327 . S
C290 C309 1.429 . S
C290 H314 0.950 . S
C291 C308 1.574 . S
C291 C310 1.368 . S
C291 H315 0.949 . S
H292 C296 0.949 . S
C293 C294 1.349 1_655 S
C293 C295 1.327 . S
C293 H316 0.950 . S
C294 C293 1.349 1_455 S
C294 C306 1.349 . S
C295 C293 1.327 . S
C295 C311 1.429 1_655 S
C295 H317 0.950 . S
C296 H292 0.949 . S
C296 C304 1.574 . S
C296 C312 1.368 . S
H297 C305 0.950 . S
H298 C303 0.950 . S
H299 C304 0.949 . S
H300 C306 0.950 . S
H301 C307 0.950 . S
H302 C308 0.937 1_655 S
C303 H298 0.950 . S
C303 C305 1.327 . S
C303 C309 1.429 . S
C304 C296 1.574 . S
C304 H299 0.949 . S
C304 C310 1.368 . S
C305 C289 1.349 . S
C305 H297 0.950 . S
C305 C303 1.327 . S
C306 C294 1.349 . S
C306 H300 0.950 . S
C306 C307 1.327 . S
C307 H301 0.950 . S
C307 C306 1.327 . S
C307 C311 1.429 . S
C308 C291 1.574 . S
C308 H302 0.937 1_455 S
C308 C312 1.368 . S
C309 C290 1.429 . S
C309 C303 1.429 . S
C309 C310 1.523 . S
C310 C291 1.368 . S
C310 C304 1.368 . S
C310 C309 1.523 . S
C311 C295 1.429 1_455 S
C311 C307 1.429 . S
C311 C312 1.523 . S
C312 C296 1.368 . S
C312 C308 1.368 . S
C312 C311 1.523 . S
H313 C288 0.950 . S
H314 C290 0.950 . S
H315 C291 0.949 . S
H316 C293 0.950 . S
H317 C295 0.950 . S
C318 C319 1.349 . S
C318 C320 1.327 . S
C318 H343 0.950 . S
C319 C318 1.349 . S
C319 C335 1.349 . S
C320 C318 1.327 . S
C320 C339 1.429 . S
C320 H344 0.950 . S
C321 C338 1.574 . S
C321 C340 1.368 . S
C321 H345 0.949 . S
H322 C326 0.949 . S
C323 C324 1.349 . S
C323 C325 1.327 . S
C323 H346 0.950 . S
C324 C323 1.349 . S
C324 C336 1.349 . S
C325 C323 1.327 . S
C325 C341 1.429 . S
C325 H347 0.950 . S
C326 H322 0.949 . S
C326 C334 1.574 . S
C326 C342 1.368 . S
H327 C335 0.950 . S
H328 C333 0.950 . S
H329 C334 0.949 . S
H330 C336 0.950 . S
H331 C337 0.950 . S
H332 C338 0.949 . S
C333 H328 0.950 . S
C333 C335 1.327 . S
C333 C339 1.429 . S
C334 C326 1.574 . S
C334 H329 0.949 . S
C334 C340 1.368 . S
C335 C319 1.349 . S
C335 H327 0.950 . S
C335 C333 1.327 . S
C336 C324 1.349 . S
C336 H330 0.950 . S
C336 C337 1.327 . S
C337 H331 0.950 . S
C337 C336 1.327 . S
C337 C341 1.429 . S
C338 C321 1.574 . S
C338 H332 0.949 . S
C338 C342 1.368 . S
C339 C320 1.429 . S
C339 C333 1.429 . S
C339 C340 1.523 . S
C340 C321 1.368 . S
C340 C334 1.368 . S
C340 C339 1.523 . S
C341 C325 1.429 . S
C341 C337 1.429 . S
C341 C342 1.523 . S
C342 C326 1.368 . S
C342 C338 1.368 . S
C342 C341 1.523 . S
H343 C318 0.950 . S
H344 C320 0.950 . S
H345 C321 0.949 . S
H346 C323 0.950 . S
H347 C325 0.950 . S
C348 C349 1.349 . S
C348 C350 1.327 . S
C348 H373 0.950 . S
C349 C348 1.349 . S
C349 C365 1.349 . S
C350 C348 1.327 . S
C350 C369 1.429 . S
C350 H374 0.950 . S
C351 C368 1.574 . S
C351 C370 1.368 1_545 S
C351 H375 0.949 . S
H352 C356 0.949 . S
C353 C354 1.349 . S
C353 C355 1.327 . S
C353 H376 0.950 . S
C354 C353 1.349 . S
C354 C366 1.349 . S
C355 C353 1.327 . S
C355 C371 1.429 . S
C355 H377 0.950 . S
C356 H352 0.949 . S
C356 C364 1.574 . S
C356 C372 1.368 1_565 S
H357 C365 0.950 . S
H358 C363 0.950 1_545 S
H359 C364 0.949 . S
H360 C366 0.950 . S
H361 C367 0.950 1_565 S
H362 C368 0.949 . S
C363 H358 0.950 1_565 S
C363 C365 1.327 . S
C363 C369 1.429 . S
C364 C356 1.574 . S
C364 H359 0.949 . S
C364 C370 1.368 . S
C365 C349 1.349 . S
C365 H357 0.950 . S
C365 C363 1.327 . S
C366 C354 1.349 . S
C366 H360 0.950 . S
C366 C367 1.327 . S
C367 H361 0.950 1_545 S
C367 C366 1.327 . S
C367 C371 1.429 . S
C368 C351 1.574 . S
C368 H362 0.949 . S
C368 C372 1.368 . S
C369 C350 1.429 . S
C369 C363 1.429 . S
C369 C370 1.523 . S
C370 C351 1.368 1_565 S
C370 C364 1.368 . S
C370 C369 1.523 . S
C371 C355 1.429 . S
C371 C367 1.429 . S
C371 C372 1.523 . S
C372 C356 1.368 1_545 S
C372 C368 1.368 . S
C372 C371 1.523 . S
H373 C348 0.950 . S
H374 C350 0.950 . S
H375 C351 0.949 . S
H376 C353 0.950 . S
H377 C355 0.950 . S
C378 C379 1.349 . S
C378 C380 1.327 . S
C378 H403 0.950 . S
C379 C378 1.349 . S
C379 C395 1.349 . S
C380 C378 1.327 . S
C380 C399 1.429 . S
C380 H404 0.950 . S
C381 C398 1.574 . S
C381 C400 1.368 . S
C381 H405 0.949 . S
H382 C386 0.949 . S
C383 C384 1.345 1_556 S
C383 C385 1.327 . S
C383 H406 0.950 . S
C384 C383 1.345 1_554 S
C384 C396 1.345 1_554 S
C385 C383 1.327 . S
C385 C401 1.429 . S
C385 H407 0.950 . S
C386 H382 0.949 . S
C386 C394 1.574 . S
C386 C402 1.368 . S
H387 C395 0.950 . S
H388 C393 0.950 . S
H389 C394 0.949 . S
H390 C396 0.950 . S
H391 C397 0.950 . S
H392 C398 0.949 . S
C393 H388 0.950 . S
C393 C395 1.327 . S
C393 C399 1.429 . S
C394 C386 1.574 . S
C394 H389 0.949 . S
C394 C400 1.368 . S
C395 C379 1.349 . S
C395 H387 0.950 . S
C395 C393 1.327 . S
C396 C384 1.345 1_556 S
C396 H390 0.950 . S
C396 C397 1.327 . S
C397 H391 0.950 . S
C397 C396 1.327 . S
C397 C401 1.429 . S
C398 C381 1.574 . S
C398 H392 0.949 . S
C398 C402 1.368 . S
C399 C380 1.429 . S
C399 C393 1.429 . S
C399 C400 1.523 . S
C400 C381 1.368 . S
C400 C394 1.368 . S
C400 C399 1.523 . S
C401 C385 1.429 . S
C401 C397 1.429 . S
C401 C402 1.523 . S
C402 C386 1.368 . S
C402 C398 1.368 . S
C402 C401 1.523 . S
H403 C378 0.950 . S
H404 C380 0.950 . S
H405 C381 0.949 . S
H406 C383 0.950 . S
H407 C385 0.950 . S
C408 C409 1.349 . S
C408 C410 1.327 . S
C408 H433 0.950 . S
C409 C408 1.349 . S
C409 C425 1.349 . S
C410 C408 1.327 . S
C410 C429 1.429 . S
C410 H434 0.950 . S
C411 C428 1.574 . S
C411 C430 1.368 . S
C411 H435 0.949 . S
H412 C416 0.949 . S
C413 C414 1.349 . S
C413 C415 1.327 1_554 S
C413 H436 0.950 . S
C414 C413 1.349 . S
C414 C426 1.349 . S
C415 C413 1.327 1_556 S
C415 C431 1.429 . S
C415 H437 0.950 . S
C416 H412 0.949 . S
C416 C424 1.574 . S
C416 C432 1.368 . S
H417 C425 0.950 . S
H418 C423 0.950 . S
H419 C424 0.949 . S
H420 C426 0.950 . S
H421 C427 0.950 . S
H422 C428 0.949 . S
C423 H418 0.950 . S
C423 C425 1.327 . S
C423 C429 1.429 . S
C424 C416 1.574 . S
C424 H419 0.949 . S
C424 C430 1.368 . S
C425 C409 1.349 . S
C425 H417 0.950 . S
C425 C423 1.327 . S
C426 C414 1.349 . S
C426 H420 0.950 . S
C426 C427 1.327 1_554 S
C427 H421 0.950 . S
C427 C426 1.327 1_556 S
C427 C431 1.429 . S
C428 C411 1.574 . S
C428 H422 0.949 . S
C428 C432 1.368 . S
C429 C410 1.429 . S
C429 C423 1.429 . S
C429 C430 1.523 . S
C430 C411 1.368 . S
C430 C424 1.368 . S
C430 C429 1.523 . S
C431 C415 1.429 . S
C431 C427 1.429 . S
C431 C432 1.523 . S
C432 C416 1.368 . S
C432 C428 1.368 . S
C432 C431 1.523 . S
H433 C408 0.950 . S
H434 C410 0.950 . S
H435 C411 0.949 . S
H436 C413 0.950 . S
H437 C415 0.950 . S
C438 C439 1.349 . S
C438 C440 1.327 . S
C438 H463 0.950 . S
C439 C438 1.349 . S
C439 C455 1.349 . S
C440 C438 1.327 . S
C440 C459 1.429 . S
C440 H464 0.950 . S
C441 C458 1.574 . S
C441 C460 1.368 . S
C441 H465 0.949 . S
H442 C446 0.949 . S
C443 C444 1.349 . S
C443 C445 1.327 . S
C443 H466 0.950 . S
C444 C443 1.349 . S
C444 C456 1.349 . S
C445 C443 1.327 . S
C445 C461 1.429 1_554 S
C445 H467 0.950 . S
C446 H442 0.949 . S
C446 C454 1.574 . S
C446 C462 1.368 . S
H447 C455 0.950 . S
H448 C453 0.950 . S
H449 C454 0.949 . S
H450 C456 0.950 . S
H451 C457 0.950 1_556 S
H452 C458 0.949 . S
C453 H448 0.950 . S
C453 C455 1.327 . S
C453 C459 1.429 . S
C454 C446 1.574 . S
C454 H449 0.949 . S
C454 C460 1.368 . S
C455 C439 1.349 . S
C455 H447 0.950 . S
C455 C453 1.327 . S
C456 C444 1.349 . S
C456 H450 0.950 . S
C456 C457 1.327 . S
C457 H451 0.950 1_554 S
C457 C456 1.327 . S
C457 C461 1.429 1_554 S
C458 C441 1.574 . S
C458 H452 0.949 . S
C458 C462 1.368 . S
C459 C440 1.429 . S
C459 C453 1.429 . S
C459 C460 1.523 . S
C460 C441 1.368 . S
C460 C454 1.368 . S
C460 C459 1.523 . S
C461 C445 1.429 1_556 S
C461 C457 1.429 1_556 S
C461 C462 1.523 . S
C462 C446 1.368 . S
C462 C458 1.368 . S
C462 C461 1.523 . S
H463 C438 0.950 . S
H464 C440 0.950 . S
H465 C441 0.949 . S
H466 C443 0.950 . S
H467 C445 0.950 . S
C468 C469 1.349 . S
C468 C470 1.327 . S
C468 H493 0.950 . S
C469 C468 1.349 . S
C469 C485 1.349 . S
C470 C468 1.327 . S
C470 C489 1.429 . S
C470 H494 0.950 . S
C471 C488 1.574 . S
C471 C490 1.368 . S
C471 H495 0.949 . S
H472 C476 0.949 . S
C473 C474 1.349 . S
C473 C475 1.327 . S
C473 H496 0.950 . S
C474 C473 1.349 . S
C474 C486 1.349 . S
C475 C473 1.327 . S
C475 C491 1.429 . S
C475 H497 0.950 . S
C476 H472 0.949 . S
C476 C484 1.574 . S
C476 C492 1.368 . S
H477 C485 0.950 . S
H478 C483 0.950 . S
H479 C484 0.949 . S
H480 C486 0.950 . S
H481 C487 0.950 . S
H482 C488 0.949 . S
C483 H478 0.950 . S
C483 C485 1.327 . S
C483 C489 1.429 . S
C484 C476 1.574 . S
C484 H479 0.949 . S
C484 C490 1.368 . S
C485 C469 1.349 . S
C485 H477 0.950 . S
C485 C483 1.327 . S
C486 C474 1.349 . S
C486 H480 0.950 . S
C486 C487 1.327 . S
C487 H481 0.950 . S
C487 C486 1.327 . S
C487 C491 1.429 . S
C488 C471 1.574 . S
C488 H482 0.949 . S
C488 C492 1.368 . S
C489 C470 1.429 . S
C489 C483 1.429 . S
C489 C490 1.523 . S
C490 C471 1.368 . S
C490 C484 1.368 . S
C490 C489 1.523 . S
C491 C475 1.429 . S
C491 C487 1.429 . S
C491 C492 1.523 . S
C492 C476 1.368 . S
C492 C488 1.368 . S
C492 C491 1.523 . S
H493 C468 0.950 . S
H494 C470 0.950 . S
H495 C471 0.949 . S
H496 C473 0.950 . S
H497 C475 0.950 . S
C498 C499 1.349 . S
C498 C500 1.327 . S
C498 H523 0.950 . S
C499 C498 1.349 . S
C499 C515 1.349 . S
C500 C498 1.327 . S
C500 C519 1.429 . S
C500 H524 0.950 . S
C501 C518 1.574 . S
C501 C520 1.368 . S
C501 H525 0.949 . S
H502 C506 0.949 . S
C503 C504 1.349 . S
C503 C505 1.327 1_556 S
C503 H526 0.950 . S
C504 C503 1.349 . S
C504 C516 1.349 . S
C505 C503 1.327 1_554 S
C505 C521 1.429 . S
C505 H527 0.950 . S
C506 H502 0.949 . S
C506 C514 1.574 . S
C506 C522 1.368 . S
H507 C515 0.950 . S
H508 C513 0.950 . S
H509 C514 0.949 . S
H510 C516 0.950 . S
H511 C517 0.950 . S
H512 C518 0.949 . S
C513 H508 0.950 . S
C513 C515 1.327 . S
C513 C519 1.429 . S
C514 C506 1.574 . S
C514 H509 0.949 . S
C514 C520 1.368 . S
C515 C499 1.349 . S
C515 H507 0.950 . S
C515 C513 1.327 . S
C516 C504 1.349 . S
C516 H510 0.950 . S
C516 C517 1.327 1_556 S
C517 H511 0.950 . S
C517 C516 1.327 1_554 S
C517 C521 1.429 . S
C518 C501 1.574 . S
C518 H512 0.949 . S
C518 C522 1.368 . S
C519 C500 1.429 . S
C519 C513 1.429 . S
C519 C520 1.523 . S
C520 C501 1.368 . S
C520 C514 1.368 . S
C520 C519 1.523 . S
C521 C505 1.429 . S
C521 C517 1.429 . S
C521 C522 1.523 . S
C522 C506 1.368 . S
C522 C518 1.368 . S
C522 C521 1.523 . S
H523 C498 0.950 . S
H524 C500 0.950 . S
H525 C501 0.949 . S
H526 C503 0.950 . S
H527 C505 0.950 . S
C528 C529 1.349 . S
C528 C530 1.327 . S
C528 H553 0.950 . S
C529 C528 1.349 . S
C529 C545 1.349 . S
C530 C528 1.327 . S
C530 C549 1.429 . S
C530 H554 0.950 . S
C531 C548 1.574 . S
C531 C550 1.368 . S
C531 H555 0.949 . S
H532 C536 0.949 . S
C533 C534 1.349 . S
C533 C535 1.327 1_556 S
C533 H556 0.950 . S
C534 C533 1.349 . S
C534 C546 1.349 . S
C535 C533 1.327 1_554 S
C535 C551 1.429 . S
C535 H557 0.950 . S
C536 H532 0.949 . S
C536 C544 1.574 . S
C536 C552 1.368 . S
H537 C545 0.950 . S
H538 C543 0.950 . S
H539 C544 0.949 . S
H540 C546 0.950 . S
H541 C547 0.950 . S
H542 C548 0.949 . S
C543 H538 0.950 . S
C543 C545 1.327 . S
C543 C549 1.429 . S
C544 C536 1.574 . S
C544 H539 0.949 . S
C544 C550 1.368 . S
C545 C529 1.349 . S
C545 H537 0.950 . S
C545 C543 1.327 . S
C546 C534 1.349 . S
C546 H540 0.950 . S
C546 C547 1.327 1_556 S
C547 H541 0.950 . S
C547 C546 1.327 1_554 S
C547 C551 1.429 . S
C548 C531 1.574 . S
C548 H542 0.949 . S
C548 C552 1.368 . S
C549 C530 1.429 . S
C549 C543 1.429 . S
C549 C550 1.523 . S
C550 C531 1.368 . S
C550 C544 1.368 . S
C550 C549 1.523 . S
C551 C535 1.429 . S
C551 C547 1.429 . S
C551 C552 1.523 . S
C552 C536 1.368 . S
C552 C548 1.368 . S
C552 C551 1.523 . S
H553 C528 0.950 . S
H554 C530 0.950 . S
H555 C531 0.949 . S
H556 C533 0.950 . S
H557 C535 0.950 . S
C558 C559 1.349 . S
C558 C560 1.327 . S
C558 H583 0.950 . S
C559 C558 1.349 . S
C559 C575 1.349 . S
C560 C558 1.327 . S
C560 C579 1.429 . S
C560 H584 0.950 . S
C561 C578 1.574 . S
C561 C580 1.368 . S
C561 H585 0.949 . S
H562 C566 0.949 . S
C563 C564 1.349 . S
C563 C565 1.327 . S
C563 H586 0.950 . S
C564 C563 1.349 . S
C564 C576 1.349 . S
C565 C563 1.327 . S
C565 C581 1.429 . S
C565 H587 0.950 . S
C566 H562 0.949 . S
C566 C574 1.574 . S
C566 C582 1.368 . S
H567 C575 0.950 . S
H568 C573 0.950 . S
H569 C574 0.949 . S
H570 C576 0.950 . S
H571 C577 0.950 . S
H572 C578 0.949 . S
C573 H568 0.950 . S
C573 C575 1.327 . S
C573 C579 1.429 . S
C574 C566 1.574 . S
C574 H569 0.949 . S
C574 C580 1.368 . S
C575 C559 1.349 . S
C575 H567 0.950 . S
C575 C573 1.327 . S
C576 C564 1.349 . S
C576 H570 0.950 . S
C576 C577 1.327 . S
C577 H571 0.950 . S
C577 C576 1.327 . S
C577 C581 1.429 . S
C578 C561 1.574 . S
C578 H572 0.949 . S
C578 C582 1.368 . S
C579 C560 1.429 . S
C579 C573 1.429 . S
C579 C580 1.523 . S
C580 C561 1.368 . S
C580 C574 1.368 . S
C580 C579 1.523 . S
C581 C565 1.429 . S
C581 C577 1.429 . S
C581 C582 1.523 . S
C582 C566 1.368 . S
C582 C578 1.368 . S
C582 C581 1.523 . S
H583 C558 0.950 . S
H584 C560 0.950 . S
H585 C561 0.949 . S
H586 C563 0.950 . S
H587 C565 0.950 . S
C588 C589 1.349 . S
C588 C590 1.327 . S
C588 H613 0.950 1_554 S
C589 C588 1.349 . S
C589 C605 1.349 . S
C590 C588 1.327 . S
C590 C609 1.429 . S
C590 H614 0.950 1_554 S
C591 C608 1.574 . S
C591 C610 1.368 . S
C591 H615 0.949 . S
H592 C596 0.949 . S
C593 C594 1.349 . S
C593 C595 1.327 . S
C593 H616 0.950 . S
C594 C593 1.349 . S
C594 C606 1.349 . S
C595 C593 1.327 . S
C595 C611 1.429 . S
C595 H617 0.950 . S
C596 H592 0.949 . S
C596 C604 1.574 . S
C596 C612 1.368 . S
H597 C605 0.950 . S
H598 C603 0.950 . S
H599 C604 0.949 . S
H600 C606 0.950 . S
H601 C607 0.950 . S
H602 C608 0.949 . S
C603 H598 0.950 . S
C603 C605 1.327 . S
C603 C609 1.429 . S
C604 C596 1.574 . S
C604 H599 0.949 . S
C604 C610 1.368 . S
C605 C589 1.349 . S
C605 H597 0.950 . S
C605 C603 1.327 . S
C606 C594 1.349 . S
C606 H600 0.950 . S
C606 C607 1.327 . S
C607 H601 0.950 . S
C607 C606 1.327 . S
C607 C611 1.429 . S
C608 C591 1.574 . S
C608 H602 0.949 . S
C608 C612 1.368 . S
C609 C590 1.429 . S
C609 C603 1.429 . S
C609 C610 1.523 . S
C610 C591 1.368 . S
C610 C604 1.368 . S
C610 C609 1.523 . S
C611 C595 1.429 . S
C611 C607 1.429 . S
C611 C612 1.523 . S
C612 C596 1.368 . S
C612 C608 1.368 . S
C612 C611 1.523 . S
H613 C588 0.950 1_556 S
H614 C590 0.950 1_556 S
H615 C591 0.949 . S
H616 C593 0.950 . S
H617 C595 0.950 . S
C618 C619 1.349 . S
C618 C620 1.327 . S
C618 H643 0.950 . S
C619 C618 1.349 . S
C619 C635 1.349 . S
C620 C618 1.327 . S
C620 C639 1.429 . S
C620 H644 0.950 . S
C621 C638 1.574 . S
C621 C640 1.368 . S
C621 H645 0.949 . S
H622 C626 0.949 . S
C623 C624 1.349 . S
C623 C625 1.327 . S
C623 H646 0.950 . S
C624 C623 1.349 . S
C624 C636 1.349 . S
C625 C623 1.327 . S
C625 C641 1.429 . S
C625 H647 0.950 . S
C626 H622 0.949 . S
C626 C634 1.574 . S
C626 C642 1.368 . S
H627 C635 0.950 . S
H628 C633 0.950 . S
H629 C634 0.949 . S
H630 C636 0.950 . S
H631 C637 0.950 . S
H632 C638 0.949 . S
C633 H628 0.950 . S
C633 C635 1.327 . S
C633 C639 1.429 . S
C634 C626 1.574 . S
C634 H629 0.949 . S
C634 C640 1.368 . S
C635 C619 1.349 . S
C635 H627 0.950 . S
C635 C633 1.327 . S
C636 C624 1.349 . S
C636 H630 0.950 . S
C636 C637 1.327 . S
C637 H631 0.950 . S
C637 C636 1.327 . S
C637 C641 1.429 . S
C638 C621 1.574 . S
C638 H632 0.949 . S
C638 C642 1.368 . S
C639 C620 1.429 . S
C639 C633 1.429 . S
C639 C640 1.523 . S
C640 C621 1.368 . S
C640 C634 1.368 . S
C640 C639 1.523 . S
C641 C625 1.429 . S
C641 C637 1.429 . S
C641 C642 1.523 . S
C642 C626 1.368 . S
C642 C638 1.368 . S
C642 C641 1.523 . S
H643 C618 0.950 . S
H644 C620 0.950 . S
H645 C621 0.949 . S
H646 C623 0.950 . S
H647 C625 0.950 . S
C648 C649 1.349 1_554 S
C648 C650 1.327 . S
C648 H673 0.950 . S
C649 C648 1.349 1_556 S
C649 C665 1.349 . S
C650 C648 1.327 . S
C650 C669 1.429 1_554 S
C650 H674 0.950 . S
C651 C668 1.574 . S
C651 C670 1.368 . S
C651 H675 0.949 . S
H652 C656 0.949 . S
C653 C654 1.349 . S
C653 C655 1.327 . S
C653 H676 0.950 . S
C654 C653 1.349 . S
C654 C666 1.349 . S
C655 C653 1.327 . S
C655 C671 1.429 . S
C655 H677 0.950 . S
C656 H652 0.949 . S
C656 C664 1.574 . S
C656 C672 1.368 . S
H657 C665 0.950 . S
H658 C663 0.950 . S
H659 C664 0.949 1_554 S
H660 C666 0.950 . S
H661 C667 0.950 . S
H662 C668 0.949 . S
C663 H658 0.950 . S
C663 C665 1.327 . S
C663 C669 1.429 . S
C664 C656 1.574 . S
C664 H659 0.949 1_556 S
C664 C670 1.368 . S
C665 C649 1.349 . S
C665 H657 0.950 . S
C665 C663 1.327 . S
C666 C654 1.349 . S
C666 H660 0.950 . S
C666 C667 1.327 . S
C667 H661 0.950 . S
C667 C666 1.327 . S
C667 C671 1.429 . S
C668 C651 1.574 . S
C668 H662 0.949 . S
C668 C672 1.368 . S
C669 C650 1.429 1_556 S
C669 C663 1.429 . S
C669 C670 1.523 . S
C670 C651 1.368 . S
C670 C664 1.368 . S
C670 C669 1.523 . S
C671 C655 1.429 . S
C671 C667 1.429 . S
C671 C672 1.523 . S
C672 C656 1.368 . S
C672 C668 1.368 . S
C672 C671 1.523 . S
H673 C648 0.950 . S
H674 C650 0.950 . S
H675 C651 0.949 . S
H676 C653 0.950 . S
H677 C655 0.950 . S
C678 C679 1.349 . S
C678 C680 1.327 . S
C678 H703 0.950 . S
C679 C678 1.349 . S
C679 C695 1.349 . S
C680 C678 1.327 . S
C680 C699 1.429 . S
C680 H704 0.950 . S
C681 C698 1.574 . S
C681 C700 1.368 . S
C681 H705 0.949 . S
H682 C686 0.949 . S
C683 C684 1.349 . S
C683 C685 1.327 . S
C683 H706 0.950 . S
C684 C683 1.349 . S
C684 C696 1.349 1_554 S
C685 C683 1.327 . S
C685 C701 1.429 1_554 S
C685 H707 0.950 . S
C686 H682 0.949 . S
C686 C694 1.574 . S
C686 C702 1.368 . S
H687 C695 0.950 . S
H688 C693 0.950 . S
H689 C694 0.949 . S
H690 C696 0.950 . S
H691 C697 0.950 . S
H692 C698 0.949 1_554 S
C693 H688 0.950 . S
C693 C695 1.327 . S
C693 C699 1.429 . S
C694 C686 1.574 . S
C694 H689 0.949 . S
C694 C700 1.368 . S
C695 C679 1.349 . S
C695 H687 0.950 . S
C695 C693 1.327 . S
C696 C684 1.349 1_556 S
C696 H690 0.950 . S
C696 C697 1.327 . S
C697 H691 0.950 . S
C697 C696 1.327 . S
C697 C701 1.429 . S
C698 C681 1.574 . S
C698 H692 0.949 1_556 S
C698 C702 1.368 . S
C699 C680 1.429 . S
C699 C693 1.429 . S
C699 C700 1.523 . S
C700 C681 1.368 . S
C700 C694 1.368 . S
C700 C699 1.523 . S
C701 C685 1.429 1_556 S
C701 C697 1.429 . S
C701 C702 1.523 . S
C702 C686 1.368 . S
C702 C698 1.368 . S
C702 C701 1.523 . S
H703 C678 0.950 . S
H704 C680 0.950 . S
H705 C681 0.949 . S
H706 C683 0.950 . S
H707 C685 0.950 . S
C708 C709 1.349 . S
C708 C710 1.327 . S
C708 H733 0.950 . S
C709 C708 1.349 . S
C709 C725 1.349 . S
C710 C708 1.327 . S
C710 C729 1.429 . S
C710 H734 0.950 . S
C711 C728 1.574 . S
C711 C730 1.368 . S
C711 H735 0.949 . S
H712 C716 0.949 . S
C713 C714 1.349 . S
C713 C715 1.327 . S
C713 H736 0.950 . S
C714 C713 1.349 . S
C714 C726 1.349 1_556 S
C715 C713 1.327 . S
C715 C731 1.429 . S
C715 H737 0.950 . S
C716 H712 0.949 . S
C716 C724 1.574 . S
C716 C732 1.368 . S
H717 C725 0.950 . S
H718 C723 0.950 . S
H719 C724 0.949 . S
H720 C726 0.950 . S
H721 C727 0.950 1_554 S
H722 C728 0.949 . S
C723 H718 0.950 . S
C723 C725 1.327 . S
C723 C729 1.429 . S
C724 C716 1.574 . S
C724 H719 0.949 . S
C724 C730 1.368 . S
C725 C709 1.349 . S
C725 H717 0.950 . S
C725 C723 1.327 . S
C726 C714 1.349 1_554 S
C726 H720 0.950 . S
C726 C727 1.327 1_554 S
C727 H721 0.950 1_556 S
C727 C726 1.327 1_556 S
C727 C731 1.429 . S
C728 C711 1.574 . S
C728 H722 0.949 . S
C728 C732 1.368 . S
C729 C710 1.429 . S
C729 C723 1.429 . S
C729 C730 1.523 . S
C730 C711 1.368 . S
C730 C724 1.368 . S
C730 C729 1.523 . S
C731 C715 1.429 . S
C731 C727 1.429 . S
C731 C732 1.523 . S
C732 C716 1.368 . S
C732 C728 1.368 . S
C732 C731 1.523 . S
H733 C708 0.950 . S
H734 C710 0.950 . S
H735 C711 0.949 . S
H736 C713 0.950 . S
H737 C715 0.950 . S
C738 C739 1.349 . S
C738 C740 1.327 . S
C738 H763 0.950 . S
C739 C738 1.349 . S
C739 C755 1.349 . S
C740 C738 1.327 . S
C740 C759 1.429 . S
C740 H764 0.950 . S
C741 C758 1.574 . S
C741 C760 1.368 . S
C741 H765 0.949 . S
H742 C746 0.949 1_554 S
C743 C744 1.349 1_556 S
C743 C745 1.327 . S
C743 H766 0.950 . S
C744 C743 1.349 1_554 S
C744 C756 1.349 . S
C745 C743 1.327 . S
C745 C761 1.429 . S
C745 H767 0.950 . S
C746 H742 0.949 1_556 S
C746 C754 1.574 . S
C746 C762 1.368 . S
H747 C755 0.950 . S
H748 C753 0.950 . S
H749 C754 0.949 . S
H750 C756 0.950 . S
H751 C757 0.950 . S
H752 C758 0.949 . S
C753 H748 0.950 . S
C753 C755 1.327 . S
C753 C759 1.429 . S
C754 C746 1.574 . S
C754 H749 0.949 . S
C754 C760 1.368 . S
C755 C739 1.349 . S
C755 H747 0.950 . S
C755 C753 1.327 . S
C756 C744 1.349 . S
C756 H750 0.950 . S
C756 C757 1.327 . S
C757 H751 0.950 . S
C757 C756 1.327 . S
C757 C761 1.429 1_554 S
C758 C741 1.574 . S
C758 H752 0.949 . S
C758 C762 1.368 . S
C759 C740 1.429 . S
C759 C753 1.429 . S
C759 C760 1.523 . S
C760 C741 1.368 . S
C760 C754 1.368 . S
C760 C759 1.523 . S
C761 C745 1.429 . S
C761 C757 1.429 1_556 S
C761 C762 1.523 . S
C762 C746 1.368 . S
C762 C758 1.368 . S
C762 C761 1.523 . S
H763 C738 0.950 . S
H764 C740 0.950 . S
H765 C741 0.949 . S
H766 C743 0.950 . S
H767 C745 0.950 . S
C768 C769 1.349 1_556 S
C768 C770 1.327 . S
C768 H793 0.950 . S
C769 C768 1.349 1_554 S
C769 C785 1.349 . S
C770 C768 1.327 . S
C770 C789 1.429 . S
C770 H794 0.950 . S
C771 C788 1.574 1_554 S
C771 C790 1.368 1_554 S
C771 H795 0.949 . S
H772 C776 0.949 . S
C773 C774 1.349 . S
C773 C775 1.327 . S
C773 H796 0.950 . S
C774 C773 1.349 . S
C774 C786 1.349 . S
C775 C773 1.327 . S
C775 C791 1.429 . S
C775 H797 0.950 . S
C776 H772 0.949 . S
C776 C784 1.574 . S
C776 C792 1.368 . S
H777 C785 0.950 . S
H778 C783 0.950 . S
H779 C784 0.949 . S
H780 C786 0.950 . S
H781 C787 0.950 . S
H782 C788 0.949 1_554 S
C783 H778 0.950 . S
C783 C785 1.327 . S
C783 C789 1.429 1_554 S
C784 C776 1.574 . S
C784 H779 0.949 . S
C784 C790 1.368 . S
C785 C769 1.349 . S
C785 H777 0.950 . S
C785 C783 1.327 . S
C786 C774 1.349 . S
C786 H780 0.950 . S
C786 C787 1.327 . S
C787 H781 0.950 . S
C787 C786 1.327 . S
C787 C791 1.429 . S
C788 C771 1.574 1_556 S
C788 H782 0.949 1_556 S
C788 C792 1.368 . S
C789 C770 1.429 . S
C789 C783 1.429 1_556 S
C789 C790 1.523 . S
C790 C771 1.368 1_556 S
C790 C784 1.368 . S
C790 C789 1.523 . S
C791 C775 1.429 . S
C791 C787 1.429 . S
C791 C792 1.523 . S
C792 C776 1.368 . S
C792 C788 1.368 . S
C792 C791 1.523 . S
H793 C768 0.950 . S
H794 C770 0.950 . S
H795 C771 0.949 . S
H796 C773 0.950 . S
H797 C775 0.950 . S
C798 C799 1.349 . S
C798 C800 1.327 . S
C798 H823 0.950 . S
C799 C798 1.349 . S
C799 C815 1.349 . S
C800 C798 1.327 . S
C800 C819 1.429 . S
C800 H824 0.950 . S
C801 C818 1.574 . S
C801 C820 1.368 . S
C801 H825 0.949 . S
H802 C806 0.949 . S
C803 C804 1.349 . S
C803 C805 1.327 . S
C803 H826 0.950 1_556 S
C804 C803 1.349 . S
C804 C816 1.349 . S
C805 C803 1.327 . S
C805 C821 1.429 . S
C805 H827 0.950 . S
C806 H802 0.949 . S
C806 C814 1.574 . S
C806 C822 1.368 . S
H807 C815 0.950 . S
H808 C813 0.950 . S
H809 C814 0.949 . S
H810 C816 0.950 . S
H811 C817 0.950 . S
H812 C818 0.949 . S
C813 H808 0.950 . S
C813 C815 1.327 . S
C813 C819 1.429 . S
C814 C806 1.574 . S
C814 H809 0.949 . S
C814 C820 1.368 . S
C815 C799 1.349 . S
C815 H807 0.950 . S
C815 C813 1.327 . S
C816 C804 1.349 . S
C816 H810 0.950 . S
C816 C817 1.327 . S
C817 H811 0.950 . S
C817 C816 1.327 . S
C817 C821 1.429 . S
C818 C801 1.574 . S
C818 H812 0.949 . S
C818 C822 1.368 . S
C819 C800 1.429 . S
C819 C813 1.429 . S
C819 C820 1.523 . S
C820 C801 1.368 . S
C820 C814 1.368 . S
C820 C819 1.523 . S
C821 C805 1.429 . S
C821 C817 1.429 . S
C821 C822 1.523 . S
C822 C806 1.368 . S
C822 C818 1.368 . S
C822 C821 1.523 . S
H823 C798 0.950 . S
H824 C800 0.950 . S
H825 C801 0.949 . S
H826 C803 0.950 1_554 S
H827 C805 0.950 . S
C828 C829 1.349 . S
C828 C830 1.327 . S
C828 H853 0.950 . S
C829 C828 1.349 . S
C829 C845 1.349 . S
C830 C828 1.327 . S
C830 C849 1.429 . S
C830 H854 0.950 . S
C831 C848 1.574 . S
C831 C850 1.368 . S
C831 H855 0.949 . S
H832 C836 0.949 . S
C833 C834 1.349 . S
C833 C835 1.327 . S
C833 H856 0.950 . S
C834 C833 1.349 . S
C834 C846 1.349 . S
C835 C833 1.327 . S
C835 C851 1.429 . S
C835 H857 0.950 . S
C836 H832 0.949 . S
C836 C844 1.574 . S
C836 C852 1.368 . S
H837 C845 0.950 . S
H838 C843 0.950 . S
H839 C844 0.949 . S
H840 C846 0.950 . S
H841 C847 0.950 . S
H842 C848 0.949 . S
C843 H838 0.950 . S
C843 C845 1.327 . S
C843 C849 1.429 . S
C844 C836 1.574 . S
C844 H839 0.949 . S
C844 C850 1.368 . S
C845 C829 1.349 . S
C845 H837 0.950 . S
C845 C843 1.327 . S
C846 C834 1.349 . S
C846 H840 0.950 . S
C846 C847 1.327 . S
C847 H841 0.950 . S
C847 C846 1.327 . S
C847 C851 1.429 . S
C848 C831 1.574 . S
C848 H842 0.949 . S
C848 C852 1.368 . S
C849 C830 1.429 . S
C849 C843 1.429 . S
C849 C850 1.523 . S
C850 C831 1.368 . S
C850 C844 1.368 . S
C850 C849 1.523 . S
C851 C835 1.429 . S
C851 C847 1.429 . S
C851 C852 1.523 . S
C852 C836 1.368 . S
C852 C848 1.368 . S
C852 C851 1.523 . S
H853 C828 0.950 . S
H854 C830 0.950 . S
H855 C831 0.949 . S
H856 C833 0.950 . S
H857 C835 0.950 . S
C858 C859 1.349 . S
C858 C860 1.327 . S
C858 H883 0.950 . S
C859 C858 1.349 . S
C859 C875 1.349 . S
C860 C858 1.327 . S
C860 C879 1.429 . S
C860 H884 0.950 . S
C861 C878 1.574 . S
C861 C880 1.368 . S
C861 H885 0.949 . S
H862 C866 0.949 . S
C863 C864 1.349 . S
C863 C865 1.327 . S
C863 H886 0.950 . S
C864 C863 1.349 . S
C864 C876 1.349 . S
C865 C863 1.327 . S
C865 C881 1.429 . S
C865 H887 0.950 . S
C866 H862 0.949 . S
C866 C874 1.574 . S
C866 C882 1.368 . S
H867 C875 0.950 . S
H868 C873 0.950 . S
H869 C874 0.949 . S
H870 C876 0.950 . S
H871 C877 0.950 . S
H872 C878 0.949 . S
C873 H868 0.950 . S
C873 C875 1.327 . S
C873 C879 1.429 . S
C874 C866 1.574 . S
C874 H869 0.949 . S
C874 C880 1.368 . S
C875 C859 1.349 . S
C875 H867 0.950 . S
C875 C873 1.327 . S
C876 C864 1.349 . S
C876 H870 0.950 . S
C876 C877 1.327 . S
C877 H871 0.950 . S
C877 C876 1.327 . S
C877 C881 1.429 . S
C878 C861 1.574 . S
C878 H872 0.949 . S
C878 C882 1.368 . S
C879 C860 1.429 . S
C879 C873 1.429 . S
C879 C880 1.523 . S
C880 C861 1.368 . S
C880 C874 1.368 . S
C880 C879 1.523 . S
C881 C865 1.429 . S
C881 C877 1.429 . S
C881 C882 1.523 . S
C882 C866 1.368 . S
C882 C878 1.368 . S
C882 C881 1.523 . S
H883 C858 0.950 . S
H884 C860 0.950 . S
H885 C861 0.949 . S
H886 C863 0.950 . S
H887 C865 0.950 . S
C888 C889 1.349 . S
C888 C890 1.327 . S
C888 H913 0.950 . S
C889 C888 1.349 . S
C889 C905 1.349 . S
C890 C888 1.327 . S
C890 C909 1.429 . S
C890 H914 0.950 . S
C891 C908 1.574 . S
C891 C910 1.368 . S
C891 H915 0.949 . S
H892 C896 0.949 . S
C893 C894 1.349 . S
C893 C895 1.327 . S
C893 H916 0.950 . S
C894 C893 1.349 . S
C894 C906 1.349 . S
C895 C893 1.327 . S
C895 C911 1.429 . S
C895 H917 0.950 . S
C896 H892 0.949 . S
C896 C904 1.574 . S
C896 C912 1.368 . S
H897 C905 0.950 . S
H898 C903 0.950 . S
H899 C904 0.949 . S
H900 C906 0.950 . S
H901 C907 0.950 . S
H902 C908 0.949 . S
C903 H898 0.950 . S
C903 C905 1.327 . S
C903 C909 1.429 . S
C904 C896 1.574 . S
C904 H899 0.949 . S
C904 C910 1.368 . S
C905 C889 1.349 . S
C905 H897 0.950 . S
C905 C903 1.327 . S
C906 C894 1.349 . S
C906 H900 0.950 . S
C906 C907 1.327 . S
C907 H901 0.950 . S
C907 C906 1.327 . S
C907 C911 1.429 . S
C908 C891 1.574 . S
C908 H902 0.949 . S
C908 C912 1.368 . S
C909 C890 1.429 . S
C909 C903 1.429 . S
C909 C910 1.523 . S
C910 C891 1.368 . S
C910 C904 1.368 . S
C910 C909 1.523 . S
C911 C895 1.429 . S
C911 C907 1.429 . S
C911 C912 1.523 . S
C912 C896 1.368 . S
C912 C908 1.368 . S
C912 C911 1.523 . S
H913 C888 0.950 . S
H914 C890 0.950 . S
H915 C891 0.949 . S
H916 C893 0.950 . S
H917 C895 0.950 . S
C918 C919 1.349 . S
C918 C920 1.327 . S
C918 H943 0.950 . S
C919 C918 1.349 . S
C919 C935 1.349 . S
C920 C918 1.327 . S
C920 C939 1.429 . S
C920 H944 0.950 . S
C921 C938 1.574 . S
C921 C940 1.368 . S
C921 H945 0.949 . S
H922 C926 0.949 . S
C923 C924 1.349 . S
C923 C925 1.327 . S
C923 H946 0.950 . S
C924 C923 1.349 . S
C924 C936 1.349 . S
C925 C923 1.327 . S
C925 C941 1.429 . S
C925 H947 0.950 . S
C926 H922 0.949 . S
C926 C934 1.574 . S
C926 C942 1.368 . S
H927 C935 0.950 . S
H928 C933 0.950 . S
H929 C934 0.949 . S
H930 C936 0.950 . S
H931 C937 0.950 . S
H932 C938 0.949 . S
C933 H928 0.950 . S
C933 C935 1.327 . S
C933 C939 1.429 . S
C934 C926 1.574 . S
C934 H929 0.949 . S
C934 C940 1.368 . S
C935 C919 1.349 . S
C935 H927 0.950 . S
C935 C933 1.327 . S
C936 C924 1.349 . S
C936 H930 0.950 . S
C936 C937 1.327 . S
C937 H931 0.950 . S
C937 C936 1.327 . S
C937 C941 1.429 . S
C938 C921 1.574 . S
C938 H932 0.949 . S
C938 C942 1.368 . S
C939 C920 1.429 . S
C939 C933 1.429 . S
C939 C940 1.523 . S
C940 C921 1.368 . S
C940 C934 1.368 . S
C940 C939 1.523 . S
C941 C925 1.429 . S
C941 C937 1.429 . S
C941 C942 1.523 . S
C942 C926 1.368 . S
C942 C938 1.368 . S
C942 C941 1.523 . S
H943 C918 0.950 . S
H944 C920 0.950 . S
H945 C921 0.949 . S
H946 C923 0.950 . S
H947 C925 0.950 . S
C948 C949 1.349 . S
C948 C950 1.327 . S
C948 H973 0.950 . S
C949 C948 1.349 . S
C949 C965 1.349 . S
C950 C948 1.327 . S
C950 C969 1.429 . S
C950 H974 0.950 . S
C951 C968 1.610 . S
C951 C970 1.368 . S
C951 H975 0.949 . S
H952 C956 0.949 . S
C953 C954 1.349 . S
C953 C955 1.327 . S
C953 H976 0.950 . S
C954 C953 1.349 . S
C954 C966 1.349 . S
C955 C953 1.327 . S
C955 C971 1.429 . S
C955 H977 0.950 . S
C956 H952 0.949 . S
C956 C964 1.574 1_565 S
C956 C972 1.368 . S
H957 C965 0.950 . S
H958 C963 0.950 . S
H959 C964 0.949 . S
H960 C966 0.950 . S
H961 C967 0.950 . S
H962 C968 0.926 1_565 S
C963 H958 0.950 . S
C963 C965 1.327 . S
C963 C969 1.429 . S
C964 C956 1.574 1_545 S
C964 H959 0.949 . S
C964 C970 1.368 . S
C965 C949 1.349 . S
C965 H957 0.950 . S
C965 C963 1.327 . S
C966 C954 1.349 . S
C966 H960 0.950 . S
C966 C967 1.327 . S
C967 H961 0.950 . S
C967 C966 1.327 . S
C967 C971 1.429 . S
C968 C951 1.610 . S
C968 H962 0.926 1_545 S
C968 C972 1.351 1_545 S
C969 C950 1.429 . S
C969 C963 1.429 . S
C969 C970 1.523 . S
C970 C951 1.368 . S
C970 C964 1.368 . S
C970 C969 1.523 . S
C971 C955 1.429 . S
C971 C967 1.429 . S
C971 C972 1.523 . S
C972 C956 1.368 . S
C972 C968 1.351 1_565 S
C972 C971 1.523 . S
H973 C948 0.950 . S
H974 C950 0.950 . S
H975 C951 0.949 . S
H976 C953 0.950 . S
H977 C955 0.950 . S
C978 C979 1.349 . S
C978 C980 1.327 . S
C978 H1003 0.950 . S
C979 C978 1.349 . S
C979 C995 1.349 . S
C980 C978 1.327 . S
C980 C999 1.429 . S
C980 H1004 0.950 . S
C981 C998 1.574 . S
C981 C1000 1.368 . S
C981 H1005 0.949 . S
H982 C986 0.949 . S
C983 C984 1.349 . S
C983 C985 1.327 . S
C983 H1006 0.950 . S
C984 C983 1.349 . S
C984 C996 1.349 . S
C985 C983 1.327 . S
C985 C1001 1.429 . S
C985 H1007 0.950 1_455 S
C986 H982 0.949 . S
C986 C994 1.574 . S
C986 C1002 1.368 . S
H987 C995 0.950 . S
H988 C993 0.950 . S
H989 C994 0.949 . S
H990 C996 0.950 . S
H991 C997 0.950 . S
H992 C998 0.949 . S
C993 H988 0.950 . S
C993 C995 1.327 . S
C993 C999 1.429 . S
C994 C986 1.574 . S
C994 H989 0.949 . S
C994 C1000 1.368 . S
C995 C979 1.349 . S
C995 H987 0.950 . S
C995 C993 1.327 . S
C996 C984 1.349 . S
C996 H990 0.950 . S
C996 C997 1.327 . S
C997 H991 0.950 . S
C997 C996 1.327 . S
C997 C1001 1.429 . S
C998 C981 1.574 . S
C998 H992 0.949 . S
C998 C1002 1.368 . S
C999 C980 1.429 . S
C999 C993 1.429 . S
C999 C1000 1.523 . S
C1000 C981 1.368 . S
C1000 C994 1.368 . S
C1000 C999 1.523 . S
C1001 C985 1.429 . S
C1001 C997 1.429 . S
C1001 C1002 1.523 1_455 S
C1002 C986 1.368 . S
C1002 C998 1.368 . S
C1002 C1001 1.523 1_655 S
H1003 C978 0.950 . S
H1004 C980 0.950 . S
H1005 C981 0.949 . S
H1006 C983 0.950 . S
H1007 C985 0.950 1_655 S
C1008 C1009 1.349 . S
C1008 C1010 1.327 . S
C1008 H1033 0.950 . S
C1009 C1008 1.349 . S
C1009 C1025 1.349 . S
C1010 C1008 1.327 . S
C1010 C1029 1.429 . S
C1010 H1034 0.950 . S
C1011 C1028 1.574 . S
C1011 C1030 1.368 . S
C1011 H1035 0.949 . S
H1012 C1016 0.949 . S
C1013 C1014 1.349 . S
C1013 C1015 1.327 . S
C1013 H1036 0.950 . S
C1014 C1013 1.349 . S
C1014 C1026 1.349 . S
C1015 C1013 1.327 . S
C1015 C1031 1.429 . S
C1015 H1037 0.950 . S
C1016 H1012 0.949 . S
C1016 C1024 1.574 . S
C1016 C1032 1.368 . S
H1017 C1025 0.950 . S
H1018 C1023 0.950 . S
H1019 C1024 0.949 . S
H1020 C1026 0.950 . S
H1021 C1027 0.950 . S
H1022 C1028 0.949 . S
C1023 H1018 0.950 . S
C1023 C1025 1.327 . S
C1023 C1029 1.429 . S
C1024 C1016 1.574 . S
C1024 H1019 0.949 . S
C1024 C1030 1.368 . S
C1025 C1009 1.349 . S
C1025 H1017 0.950 . S
C1025 C1023 1.327 . S
C1026 C1014 1.349 . S
C1026 H1020 0.950 . S
C1026 C1027 1.327 . S
C1027 H1021 0.950 . S
C1027 C1026 1.327 . S
C1027 C1031 1.429 . S
C1028 C1011 1.574 . S
C1028 H1022 0.949 . S
C1028 C1032 1.368 . S
C1029 C1010 1.429 . S
C1029 C1023 1.429 . S
C1029 C1030 1.523 . S
C1030 C1011 1.368 . S
C1030 C1024 1.368 . S
C1030 C1029 1.523 . S
C1031 C1015 1.429 . S
C1031 C1027 1.429 . S
C1031 C1032 1.523 . S
C1032 C1016 1.368 . S
C1032 C1028 1.368 . S
C1032 C1031 1.523 . S
H1033 C1008 0.950 . S
H1034 C1010 0.950 . S
H1035 C1011 0.949 . S
H1036 C1013 0.950 . S
H1037 C1015 0.950 . S
C1038 C1039 1.349 . S
C1038 C1040 1.327 . S
C1038 H1063 0.950 . S
C1039 C1038 1.349 . S
C1039 C1055 1.349 . S
C1040 C1038 1.327 . S
C1040 C1059 1.429 . S
C1040 H1064 0.950 . S
C1041 C1058 1.574 . S
C1041 C1060 1.368 . S
C1041 H1065 0.949 . S
H1042 C1046 0.934 1_545 S
C1043 C1044 1.349 . S
C1043 C1045 1.327 . S
C1043 H1066 0.950 . S
C1044 C1043 1.349 . S
C1044 C1056 1.349 . S
C1045 C1043 1.327 . S
C1045 C1061 1.429 . S
C1045 H1067 0.950 . S
C1046 H1042 0.934 1_565 S
C1046 C1054 1.574 . S
C1046 C1062 1.368 . S
H1047 C1055 0.950 . S
H1048 C1053 0.950 . S
H1049 C1054 0.949 . S
H1050 C1056 0.950 . S
H1051 C1057 0.950 . S
H1052 C1058 0.949 . S
C1053 H1048 0.950 . S
C1053 C1055 1.327 . S
C1053 C1059 1.429 . S
C1054 C1046 1.574 . S
C1054 H1049 0.949 . S
C1054 C1060 1.368 . S
C1055 C1039 1.349 . S
C1055 H1047 0.950 . S
C1055 C1053 1.327 . S
C1056 C1044 1.349 . S
C1056 H1050 0.950 . S
C1056 C1057 1.327 . S
C1057 H1051 0.950 . S
C1057 C1056 1.327 . S
C1057 C1061 1.429 . S
C1058 C1041 1.574 . S
C1058 H1052 0.949 . S
C1058 C1062 1.368 . S
C1059 C1040 1.429 . S
C1059 C1053 1.429 . S
C1059 C1060 1.523 . S
C1060 C1041 1.368 . S
C1060 C1054 1.368 . S
C1060 C1059 1.523 . S
C1061 C1045 1.429 . S
C1061 C1057 1.429 . S
C1061 C1062 1.523 1_545 S
C1062 C1046 1.368 . S
C1062 C1058 1.368 . S
C1062 C1061 1.523 1_565 S
H1063 C1038 0.950 . S
H1064 C1040 0.950 . S
H1065 C1041 0.949 . S
H1066 C1043 0.950 . S
H1067 C1045 0.950 . S
C1068 C1069 1.349 . S
C1068 C1070 1.327 . S
C1068 H1093 0.950 . S
C1069 C1068 1.349 . S
C1069 C1085 1.349 . S
C1070 C1068 1.327 . S
C1070 C1089 1.429 . S
C1070 H1094 0.950 . S
C1071 C1088 1.574 . S
C1071 C1090 1.368 1_455 S
C1071 H1095 0.949 . S
H1072 C1076 0.949 . S
C1073 C1074 1.349 . S
C1073 C1075 1.327 . S
C1073 H1096 0.950 . S
C1074 C1073 1.349 . S
C1074 C1086 1.349 . S
C1075 C1073 1.327 . S
C1075 C1091 1.429 . S
C1075 H1097 0.950 . S
C1076 H1072 0.949 . S
C1076 C1084 1.574 1_455 S
C1076 C1092 1.368 . S
H1077 C1085 0.950 . S
H1078 C1083 0.950 . S
H1079 C1084 0.949 . S
H1080 C1086 0.950 . S
H1081 C1087 0.950 . S
H1082 C1088 0.949 . S
C1083 H1078 0.950 . S
C1083 C1085 1.327 . S
C1083 C1089 1.429 . S
C1084 C1076 1.574 1_655 S
C1084 H1079 0.949 . S
C1084 C1090 1.368 . S
C1085 C1069 1.349 . S
C1085 H1077 0.950 . S
C1085 C1083 1.327 . S
C1086 C1074 1.349 . S
C1086 H1080 0.950 . S
C1086 C1087 1.327 . S
C1087 H1081 0.950 . S
C1087 C1086 1.327 . S
C1087 C1091 1.429 . S
C1088 C1071 1.574 . S
C1088 H1082 0.949 . S
C1088 C1092 1.368 . S
C1089 C1070 1.429 . S
C1089 C1083 1.429 . S
C1089 C1090 1.523 . S
C1090 C1071 1.368 1_655 S
C1090 C1084 1.368 . S
C1090 C1089 1.523 . S
C1091 C1075 1.429 . S
C1091 C1087 1.429 . S
C1091 C1092 1.523 . S
C1092 C1076 1.368 . S
C1092 C1088 1.368 . S
C1092 C1091 1.523 . S
H1093 C1068 0.950 . S
H1094 C1070 0.950 . S
H1095 C1071 0.949 . S
H1096 C1073 0.950 . S
H1097 C1075 0.950 . S
C289 N13 1.053 . S
C294 N18 0.944 . S
C319 N45 0.971 . S
C324 N50 1.077 . S
C349 N77 1.101 . S
C354 N82 1.000 . S
C379 C98 2.026 . S
C384 C125 2.043 . S
C409 C130 2.030 . S
C414 C157 2.040 . S
C439 C162 2.034 . S
C444 C189 2.045 . S
C469 C198 2.015 . S
C474 C196 2.023 1_554 S
C499 C253 2.047 . S
C504 C226 2.037 . S
C529 C262 2.052 . S
C534 C260 2.064 . S
C559 C166 1.487 . S
C564 C2 1.472 . S
C589 C61 1.447 . S
C594 C102 1.429 . S
C619 C66 1.488 . S
C624 C134 1.479 . S
C649 C68 1.637 . S
C654 C194 1.625 . S
C679 N242 0.942 . S
C684 C4 0.983 . S
C709 C258 1.567 . S
C714 C38 1.578 . S
C739 N274 1.087 . S
C744 C29 1.132 . S
C769 C34 1.095 . S
C774 N210 1.047 . S
C799 C228 1.504 . S
C804 C93 1.504 . S
C829 C70 1.175 . S
C834 N109 1.083 . S
C859 N141 1.034 . S
C864 C6 1.066 . S
C889 C36 1.418 . S
C894 N173 1.380 . S
C919 N269 0.397 . S
C924 N114 0.418 . S
C949 N205 0.558 . S
C954 N146 0.549 . S
C979 C230 0.879 . S
C984 N178 0.868 . S
C1009 C221 1.100 . S
C1014 C164 1.097 . S
C1039 C100 0.857 . S
C1044 N237 0.848 . S
C1069 C285 0.753 . S
C1074 C132 0.753 . S
