# Generated by pormake.
# Topology snk, (6)-cn, num edge types: 1
# Building blocks:
#     Node 0, Type 0, BuildingBlock: BETDAH_clean_sbu_0, # of connection points: 6
#     Node 1, Type 0, BuildingBlock: BETDAH_clean_sbu_0, # of connection points: 6
#     Node 2, Type 0, BuildingBlock: BETDAH_clean_sbu_0, # of connection points: 6
#     Node 3, Type 0, BuildingBlock: BETDAH_clean_sbu_0, # of connection points: 6
#     Node 4, Type 0, BuildingBlock: BETDAH_clean_sbu_0, # of connection points: 6
#     Node 5, Type 0, BuildingBlock: BETDAH_clean_sbu_0, # of connection points: 6
#     Node 6, Type 0, BuildingBlock: BETDAH_clean_sbu_0, # of connection points: 6
#     Node 7, Type 0, BuildingBlock: BETDAH_clean_sbu_0, # of connection points: 6
#     Edge 8, Type (0, 0), BuildingBlock: XUDNAN_clean_linker_2, # of connection points: 2
#     Edge 9, Type (0, 0), BuildingBlock: XUDNAN_clean_linker_2, # of connection points: 2
#     Edge 10, Type (0, 0), BuildingBlock: XUDNAN_clean_linker_2, # of connection points: 2
#     Edge 11, Type (0, 0), BuildingBlock: XUDNAN_clean_linker_2, # of connection points: 2
#     Edge 12, Type (0, 0), BuildingBlock: XUDNAN_clean_linker_2, # of connection points: 2
#     Edge 13, Type (0, 0), BuildingBlock: XUDNAN_clean_linker_2, # of connection points: 2
#     Edge 14, Type (0, 0), BuildingBlock: XUDNAN_clean_linker_2, # of connection points: 2
#     Edge 15, Type (0, 0), BuildingBlock: XUDNAN_clean_linker_2, # of connection points: 2
#     Edge 16, Type (0, 0), BuildingBlock: XUDNAN_clean_linker_2, # of connection points: 2
#     Edge 17, Type (0, 0), BuildingBlock: XUDNAN_clean_linker_2, # of connection points: 2
#     Edge 18, Type (0, 0), BuildingBlock: XUDNAN_clean_linker_2, # of connection points: 2
#     Edge 19, Type (0, 0), BuildingBlock: XUDNAN_clean_linker_2, # of connection points: 2
#     Edge 20, Type (0, 0), BuildingBlock: XUDNAN_clean_linker_2, # of connection points: 2
#     Edge 21, Type (0, 0), BuildingBlock: XUDNAN_clean_linker_2, # of connection points: 2
#     Edge 22, Type (0, 0), BuildingBlock: XUDNAN_clean_linker_2, # of connection points: 2
#     Edge 23, Type (0, 0), BuildingBlock: XUDNAN_clean_linker_2, # of connection points: 2
#     Edge 24, Type (0, 0), BuildingBlock: XUDNAN_clean_linker_2, # of connection points: 2
#     Edge 25, Type (0, 0), BuildingBlock: XUDNAN_clean_linker_2, # of connection points: 2
#     Edge 26, Type (0, 0), BuildingBlock: XUDNAN_clean_linker_2, # of connection points: 2
#     Edge 27, Type (0, 0), BuildingBlock: XUDNAN_clean_linker_2, # of connection points: 2
#     Edge 28, Type (0, 0), BuildingBlock: XUDNAN_clean_linker_2, # of connection points: 2
#     Edge 29, Type (0, 0), BuildingBlock: XUDNAN_clean_linker_2, # of connection points: 2
#     Edge 30, Type (0, 0), BuildingBlock: XUDNAN_clean_linker_2, # of connection points: 2
#     Edge 31, Type (0, 0), BuildingBlock: XUDNAN_clean_linker_2, # of connection points: 2
# Relax obj value: 0.087
# Max RMSD: 0.150
# Mean RMSD: 0.124
data_MOF--net-snk--node1-BETDAH_clean_sbu_0--edge1-XUDNAN_clean_linker_2
_symmetry_space_group_name_H-M    P1
_symmetry_Int_Tables_number       1
_symmetry_cell_setting            triclinic
loop_
_symmetry_equiv_pos_as_xyz
'x, y, z'
_cell_length_a     37.411499
_cell_length_b     37.407487
_cell_length_c     25.295209
_cell_angle_alpha  83.187503
_cell_angle_beta   97.143618
_cell_angle_gamma 88.96334
loop_
_atom_site_label
_atom_site_type_symbol
_atom_site_fract_x
_atom_site_fract_y
_atom_site_fract_z
_atom_type_partial_charge
Ho0 Ho 0.98417 0.99593 0.45732 0.0
Ho1 Ho 0.02466 1.00273 0.57017 0.0
C2 C 0.06057 0.03643 0.47013 0.0
C3 C 0.95431 1.00622 0.35835 0.0
C4 C 0.96774 0.00761 0.30578 0.0
C5 C 0.94589 0.02248 0.25896 0.0
C6 C 0.95841 0.02347 0.20881 0.0
C7 C 0.99307 0.0096 0.2046 0.0
C8 C 0.01481 0.99476 0.25193 0.0
C9 C 1.00234 0.99392 0.30194 0.0
C10 C 0.02964 0.94027 0.50102 0.0
C11 C 0.94816 0.96236 0.5574 0.0
C12 C 0.05767 0.99265 0.66746 0.0
C13 C 0.0508 0.99154 0.72381 0.0
C14 C 0.07661 0.97466 0.76435 0.0
C15 C 0.07308 0.97636 0.81836 0.0
C16 C 0.04364 0.99513 0.8331 0.0
C17 C 0.01693 0.0108 0.79233 0.0
C18 C 0.02053 0.0091 0.73807 0.0
C19 C 0.97882 0.0583 0.52647 0.0
O20 O 0.02881 0.03425 0.44126 0.0
O21 O 0.06786 0.01953 0.5194 0.0
O22 O 0.95723 0.9748 0.38758 0.0
O23 O 0.96372 0.03246 0.38649 0.0
O24 O 1.0001 0.93676 0.4698 0.0
O25 O 0.0349 0.97307 0.50385 0.0
O26 O 0.97987 0.96468 0.58646 0.0
O27 O 0.94082 0.97898 0.50786 0.0
O28 O 0.05344 0.02404 0.63824 0.0
O29 O 0.04554 0.96635 0.64118 0.0
O30 O 1.00817 0.06189 0.55811 0.0
O31 O 0.97398 0.02548 0.52364 0.0
H32 H 0.91915 0.03334 0.26118 0.0
H33 H 0.9411 0.03554 0.17346 0.0
H34 H 0.04139 0.9833 0.25038 0.0
H35 H 0.01965 0.98235 0.33766 0.0
H36 H 0.10012 0.96093 0.75422 0.0
H37 H 0.09379 0.9634 0.84866 0.0
H38 H 0.994 0.02557 0.80225 0.0
H39 H 1.00027 0.02234 0.7073 0.0
Ho40 Ho 0.24609 0.74185 0.82691 0.0
Ho41 Ho 0.26333 0.7756 0.71373 0.0
C42 C 0.29198 0.81447 0.81712 0.0
C43 C 0.24305 0.7186 0.92676 0.0
C44 C 0.25962 0.72458 0.98096 0.0
C45 C 0.25475 0.69936 0.02486 0.0
C46 C 0.26524 0.70681 0.07741 0.0
C47 C 0.28082 0.73976 0.08719 0.0
C48 C 0.28706 0.76437 0.04285 0.0
C49 C 0.27652 0.75687 0.99028 0.0
C50 C 0.192 0.77959 0.76199 0.0
C51 C 0.22095 0.7018 0.72586 0.0
C52 C 0.26742 0.8119 0.62114 0.0
C53 C 0.27267 0.80481 0.56639 0.0
C54 C 0.28498 0.83234 0.5313 0.0
C55 C 0.29067 0.82634 0.4794 0.0
C56 C 0.28413 0.79259 0.46134 0.0
C57 C 0.27141 0.76507 0.49657 0.0
C58 C 0.26586 0.77109 0.54872 0.0
C59 C 0.30725 0.72011 0.76327 0.0
O60 O 0.28293 0.78615 0.84849 0.0
O61 O 0.28375 0.81835 0.76429 0.0
O62 O 0.22321 0.74558 0.90001 0.0
O63 O 0.26282 0.70254 0.89658 0.0
O64 O 0.18745 0.75045 0.79317 0.0
O65 O 0.22459 0.78768 0.76775 0.0
O66 O 0.22373 0.73283 0.69555 0.0
O67 O 0.23437 0.69637 0.77734 0.0
O68 O 0.29521 0.80466 0.65812 0.0
O69 O 0.2369 0.80197 0.63792 0.0
O70 O 0.30081 0.72767 0.71157 0.0
O71 O 0.29363 0.74463 0.78481 0.0
H72 H 0.24169 0.67431 1.01855 0.0
H73 H 0.26065 0.68693 0.11042 0.0
H74 H 0.29872 0.79012 0.04866 0.0
H75 H 0.28034 0.77689 0.95704 0.0
H76 H 0.29026 0.85859 0.5441 0.0
H77 H 0.29992 0.84832 0.45319 0.0
H78 H 0.2664 0.73868 0.48419 0.0
H79 H 0.25645 0.7494 0.5753 0.0
Ho80 Ho 0.51914 0.99462 0.06906 0.0
Ho81 Ho 0.48849 0.03066 0.95597 0.0
C82 C 0.45464 0.05475 0.05618 0.0
C83 C 0.54311 0.98039 0.17024 0.0
C84 C 0.5366 0.99321 0.22175 0.0
C85 C 0.55193 0.02486 0.23793 0.0
C86 C 0.54667 0.03582 0.28754 0.0
C87 C 0.52602 0.01542 0.32232 0.0
C88 C 0.51071 0.98379 0.306 0.0
C89 C 0.51605 0.97278 0.2565 0.0
C90 C 0.46615 0.96 1.01434 0.0
C91 C 0.55771 0.97244 0.97269 0.0
C92 C 0.46074 0.04143 0.85602 0.0
C93 C 0.47196 0.04181 0.8017 0.0
C94 C 0.45794 0.01658 0.76833 0.0
C95 C 0.46611 0.01782 0.71561 0.0
C96 C 0.48829 0.04455 0.69483 0.0
C97 C 0.50289 0.06937 0.72863 0.0
C98 C 0.49486 0.06802 0.78145 0.0
C99 C 0.53694 0.06968 1.00922 0.0
O100 O 0.48459 0.04069 0.08482 0.0
O101 O 0.44665 0.0503 1.00473 0.0
O102 O 0.51718 0.96299 0.14601 0.0
O103 O 0.55873 1.00225 0.13652 0.0
O104 O 0.49339 0.94328 0.04463 0.0
O105 O 0.4681 0.9932 1.0164 0.0
O106 O 0.53137 0.99047 0.93944 0.0
O107 O 0.56065 0.97271 0.0252 0.0
O108 O 0.47158 0.06735 0.88407 0.0
O109 O 0.46176 0.01009 0.88536 0.0
O110 O 0.51083 0.08329 0.97352 0.0
O111 O 0.53872 0.03573 1.0105 0.0
H112 H 0.56829 0.04107 0.21255 0.0
H113 H 0.55937 0.06002 0.299 0.0
H114 H 0.49428 0.96762 0.33129 0.0
H115 H 0.50415 0.94809 0.24549 0.0
H116 H 0.44 0.99626 0.78272 0.0
H117 H 0.45407 0.99853 0.6906 0.0
H118 H 0.52045 0.09001 0.71415 0.0
H119 H 0.5062 0.08785 0.80605 0.0
Ho120 Ho 0.2348 0.26422 0.21574 0.0
Ho121 Ho 0.27282 0.24369 0.33048 0.0
C122 C 0.30128 0.20579 0.23645 0.0
C123 C 0.21793 0.28487 0.11432 0.0
C124 C 0.23077 0.27668 0.06433 0.0
C125 C 0.26722 0.26789 0.06252 0.0
C126 C 0.27881 0.26015 1.01455 0.0
C127 C 0.25415 0.26098 0.96757 0.0
C128 C 0.21762 0.2695 0.96988 0.0
C129 C 0.2061 0.27732 1.01781 0.0
C130 C 0.20513 0.21099 0.27551 0.0
C131 C 0.2052 0.3027 0.30867 0.0
C132 C 0.28997 0.21935 0.43063 0.0
C133 C 0.29076 0.22894 0.48568 0.0
C134 C 0.25898 0.23672 0.5071 0.0
C135 C 0.26013 0.24042 0.56167 0.0
C136 C 0.29303 0.23639 0.59579 0.0
C137 C 0.32491 0.23032 0.57359 0.0
C138 C 0.32374 0.22648 0.51919 0.0
C139 C 0.30266 0.29758 0.27211 0.0
O140 O 0.28371 0.23162 0.20233 0.0
O141 O 0.29671 0.20165 0.28785 0.0
O142 O 0.20203 0.2588 0.14047 0.0
O143 O 0.23998 0.30204 0.14595 0.0
O144 O 0.18639 0.23481 0.24114 0.0
O145 O 0.23826 0.21552 0.27423 0.0
O146 O 0.2265 0.28037 0.34437 0.0
O147 O 0.20644 0.30394 0.25641 0.0
O148 O 0.31276 0.23505 0.40086 0.0
O149 O 0.25843 0.21522 0.40362 0.0
O150 O 0.32111 0.27455 0.30801 0.0
O151 O 0.26952 0.29251 0.2723 0.0
H152 H 0.28675 0.26719 0.09806 0.0
H153 H 0.30718 0.25403 1.01415 0.0
H154 H 0.19779 0.26972 0.9348 0.0
H155 H 0.17783 0.28377 1.0186 0.0
H156 H 0.23309 0.23869 0.48225 0.0
H157 H 0.23503 0.24485 0.5775 0.0
H158 H 0.35077 0.22778 0.5985 0.0
H159 H 0.34858 0.2204 0.50364 0.0
Ho160 Ho 0.76224 0.23216 0.30435 0.0
Ho161 Ho 0.78106 0.26949 0.19607 0.0
C162 C 0.81135 0.3037 0.30035 0.0
C163 C 0.76408 0.20024 0.40131 0.0
C164 C 0.77199 0.20794 0.45767 0.0
C165 C 0.80388 0.19388 0.48911 0.0
C166 C 0.8099 0.19741 0.5439 0.0
C167 C 0.78413 0.21505 0.56859 0.0
C168 C 0.75279 0.23018 0.53677 0.0
C169 C 0.74671 0.22657 0.48198 0.0
C170 C 0.71571 0.2851 0.25372 0.0
C171 C 0.72484 0.20346 0.20028 0.0
C172 C 0.78102 0.29896 0.09819 0.0
C173 C 0.78373 0.28588 0.04585 0.0
C174 C 0.75766 0.2971 1.00188 0.0
C175 C 0.75966 0.28481 0.95211 0.0
C176 C 0.78793 0.26113 0.94522 0.0
C177 C 0.81414 0.25017 0.98938 0.0
C178 C 0.81199 0.26224 0.03914 0.0
C179 C 0.82854 0.21741 0.24694 0.0
O180 O 0.80416 0.27288 0.32828 0.0
O181 O 0.79874 0.31147 0.24892 0.0
O182 O 0.73491 0.21536 0.37297 0.0
O183 O 0.79125 0.1995 0.37341 0.0
O184 O 0.70554 0.25676 0.28197 0.0
O185 O 0.74938 0.28486 0.25701 0.0
O186 O 0.73568 0.23306 0.1736 0.0
O187 O 0.73711 0.19314 0.25116 0.0
O188 O 0.80985 0.29487 0.13363 0.0
O189 O 0.75151 0.29154 0.11953 0.0
O190 O 0.83724 0.24548 0.21687 0.0
O191 O 0.79475 0.21683 0.24403 0.0
H192 H 0.82384 0.17938 0.4716 0.0
H193 H 0.83457 0.18589 0.56712 0.0
H194 H 0.73222 0.2436 0.55459 0.0
H195 H 0.72171 0.23753 0.45912 0.0
H196 H 0.73557 0.31524 1.00612 0.0
H197 H 0.73871 0.29346 0.91931 0.0
H198 H 0.83663 0.23246 0.98547 0.0
H199 H 0.83252 0.25304 0.07228 0.0
Ho200 Ho 0.73126 0.76641 0.71657 0.0
Ho201 Ho 0.77402 0.74485 0.82936 0.0
C202 C 0.79668 0.70495 0.73482 0.0
C203 C 0.71084 0.7873 0.61573 0.0
C204 C 0.72223 0.7864 0.5618 0.0
C205 C 0.73028 0.81881 0.53236 0.0
C206 C 0.73676 0.81972 0.479 0.0
C207 C 0.73512 0.78824 0.45353 0.0
C208 C 0.72851 0.75546 0.48366 0.0
C209 C 0.72202 0.75455 0.53722 0.0
C210 C 0.70114 0.71649 0.78124 0.0
C211 C 0.70955 0.8071 0.81317 0.0
C212 C 0.79242 0.72384 0.93063 0.0
C213 C 0.78659 0.73592 0.98245 0.0
C214 C 0.7801 0.71022 0.02492 0.0
C215 C 0.77323 0.72083 0.07398 0.0
C216 C 0.77279 0.75747 0.08172 0.0
C217 C 0.7796 0.78318 0.039 0.0
C218 C 0.7863 0.77253 0.98981 0.0
C219 C 0.80385 0.79508 0.76458 0.0
O220 O 0.77865 0.73103 0.70099 0.0
O221 O 0.79432 0.70169 0.78684 0.0
O222 O 0.70094 0.75725 0.64101 0.0
O223 O 0.72942 0.80706 0.64782 0.0
O224 O 0.68258 0.74066 0.74718 0.0
O225 O 0.73422 0.71881 0.77693 0.0
O226 O 0.73129 0.78352 0.84569 0.0
O227 O 0.70608 0.80787 0.76019 0.0
O228 O 0.81275 0.74338 0.90081 0.0
O229 O 0.76382 0.71294 0.90267 0.0
O230 O 0.82264 0.77121 0.79895 0.0
O231 O 0.77088 0.79241 0.76911 0.0
H232 H 0.73056 0.84378 0.55017 0.0
H233 H 0.74244 0.84531 0.45735 0.0
H234 H 0.72684 0.73075 0.46524 0.0
H235 H 0.71579 0.7291 0.55871 0.0
H236 H 0.77991 0.68185 0.01991 0.0
H237 H 0.76748 0.7003 0.10543 0.0
H238 H 0.77995 0.81159 0.04357 0.0
H239 H 0.79108 0.7929 0.95753 0.0
Ho240 Ho 0.48413 0.5032 0.98754 0.0
Ho241 Ho 0.51935 0.52572 0.09526 0.0
C242 C 0.55526 0.55284 0.9912 0.0
C243 C 0.45578 0.50084 0.88954 0.0
C244 C 0.46941 0.49988 0.83746 0.0
C245 C 0.45271 0.52192 0.7921 0.0
C246 C 0.46548 0.52175 0.74244 0.0
C247 C 0.49517 0.49937 0.73717 0.0
C248 C 0.51177 0.47725 0.78286 0.0
C249 C 0.49916 0.47764 0.83253 0.0
C250 C 0.5356 0.45751 0.04498 0.0
C251 C 0.44758 0.47771 0.09035 0.0
C252 C 0.55011 0.52874 0.19195 0.0
C253 C 0.54413 0.51978 0.24866 0.0
C254 C 0.56636 0.49333 0.28169 0.0
C255 C 0.56421 0.48727 0.33677 0.0
C256 C 0.53994 0.50775 0.36018 0.0
C257 C 0.51681 0.53339 0.32678 0.0
C258 C 0.5189 0.5394 0.27162 0.0
C259 C 0.47223 0.57385 0.03466 0.0
O260 O 0.52579 0.5431 0.9623 0.0
O261 O 0.56166 0.54394 0.04379 0.0
O262 O 0.46259 0.47222 0.92483 0.0
O263 O 0.46019 0.53089 0.91089 0.0
O264 O 0.50777 0.44649 1.01625 0.0
O265 O 0.53546 0.49111 0.03852 0.0
O266 O 0.47815 0.48487 0.11914 0.0
O267 O 0.4408 0.48874 0.03844 0.0
O268 O 0.53057 0.55526 0.16336 0.0
O269 O 0.55519 0.50177 0.16478 0.0
O270 O 0.50119 0.5827 0.06328 0.0
O271 O 0.46891 0.54029 0.04211 0.0
H272 H 0.4299 0.53949 0.79517 0.0
H273 H 0.45239 0.53956 0.70839 0.0
H274 H 0.53436 0.45932 0.78023 0.0
H275 H 0.51268 0.4605 0.867 0.0
H276 H 0.58615 0.47793 0.26512 0.0
H277 H 0.58201 0.4669 0.36118 0.0
H278 H 0.49805 0.54989 0.34354 0.0
H279 H 0.50149 0.56015 0.24737 0.0
Ho280 Ho 0.01938 0.48361 0.57933 0.0
Ho281 Ho 0.9918 0.52852 0.4695 0.0
C282 C 0.95631 0.54871 0.56966 0.0
C283 C 0.04311 0.46685 0.68052 0.0
C284 C 0.03151 0.47002 0.73424 0.0
C285 C 0.02721 0.50362 0.75311 0.0
C286 C 0.0182 0.50565 0.80508 0.0
C287 C 0.01308 0.47417 0.83945 0.0
C288 C 0.01734 0.44068 0.8203 0.0
C289 C 0.02652 0.43866 0.76862 0.0
C290 C 0.96602 0.454 0.51958 0.0
C291 C 0.05007 0.46106 0.47737 0.0
C292 C 0.97189 0.54901 0.36795 0.0
C293 C 0.97567 0.53647 0.31519 0.0
C294 C 0.97467 0.49983 0.30781 0.0
C295 C 0.97722 0.48899 0.25703 0.0
C296 C 0.98079 0.5145 0.21229 0.0
C297 C 0.98244 0.55109 0.22029 0.0
C298 C 0.97988 0.56188 0.27103 0.0
C299 C 0.04577 0.55657 0.53103 0.0
O300 O 0.98081 0.52597 0.59889 0.0
O301 O 0.95264 0.55312 0.51647 0.0
O302 O 0.02577 0.44463 0.65106 0.0
O303 O 0.051 0.49645 0.65191 0.0
O304 O 0.99086 0.43536 0.55241 0.0
O305 O 0.96888 0.48722 0.52363 0.0
O306 O 0.02208 0.48013 0.45024 0.0
O307 O 0.05868 0.4615 0.52977 0.0
O308 O 1.00116 0.55959 0.39462 0.0
O309 O 0.95183 0.53036 0.39926 0.0
O310 O 0.02005 0.57585 0.50102 0.0
O311 O 0.04258 0.52383 0.52466 0.0
H312 H 0.03095 0.52841 0.72791 0.0
H313 H 0.01482 0.53192 0.8181 0.0
H314 H 0.01419 0.41581 0.84568 0.0
H315 H 0.03011 0.41238 0.75568 0.0
H316 H 0.97174 0.47957 0.34119 0.0
H317 H 0.97645 0.46053 0.25291 0.0
H318 H 0.98474 0.5716 0.18701 0.0
H319 H 0.98073 0.59029 0.27562 0.0
H320 H 0.0501 0.09229 0.38927 0.0
H321 H 0.13376 0.03014 0.49789 0.0
H322 H 0.1801 0.06733 0.45844 0.0
H323 H 0.09843 0.10619 0.27422 0.0
H324 H 0.08101 0.1517 0.25454 0.0
H325 H 0.05472 0.11927 0.28992 0.0
H326 H 0.05029 0.16171 0.3629 0.0
H327 H 0.07656 0.19428 0.32777 0.0
H328 H 0.09099 0.17764 0.39711 0.0
H329 H 0.21722 0.11061 0.40567 0.0
H330 H 0.24228 0.15924 0.34773 0.0
H331 H 0.13403 0.19555 0.27786 0.0
C332 C 0.07821 0.08628 0.40441 0.0
C333 C 0.08844 0.05813 0.44627 0.0
C334 C 0.12539 0.05155 0.46576 0.0
C335 C 0.15186 0.07246 0.44353 0.0
C336 C 0.14084 0.10008 0.40236 0.0
C337 C 0.10488 0.10723 0.38333 0.0
C338 C 0.10004 0.13939 0.34035 0.0
C339 C 0.08252 0.12847 0.28657 0.0
C340 C 0.07818 0.17007 0.35811 0.0
C341 C 0.13895 0.14916 0.33793 0.0
C342 C 0.16208 0.12596 0.37369 0.0
C343 C 0.19935 0.12913 0.37792 0.0
C344 C 0.21332 0.1569 0.34501 0.0
C345 C 0.19005 0.18144 0.30904 0.0
C346 C 0.15242 0.17735 0.30538 0.0
H347 H 0.09574 0.94277 0.55998 0.0
H348 H 0.00971 0.87074 0.51956 0.0
H349 H 0.04263 0.82117 0.58075 0.0
H350 H 0.16965 0.87649 0.56891 0.0
H351 H 0.19538 0.8942 0.62446 0.0
H352 H 0.16543 0.92367 0.57639 0.0
H353 H 0.13258 0.94316 0.65341 0.0
H354 H 0.16238 0.91373 0.70165 0.0
H355 H 0.11428 0.90924 0.69826 0.0
H356 H 0.08316 0.78059 0.65005 0.0
H357 H 0.13021 0.75083 0.71949 0.0
H358 H 0.19126 0.84837 0.7116 0.0
C359 C 0.08406 0.91645 0.56373 0.0
C360 C 0.0503 0.9104 0.53517 0.0
C361 C 0.03569 0.87575 0.54099 0.0
C362 C 0.05413 0.8475 0.57568 0.0
C363 C 0.08728 0.85436 0.60365 0.0
C364 C 0.10231 0.88787 0.59769 0.0
C365 C 0.13815 0.88819 0.63279 0.0
C366 C 0.16897 0.8961 0.59858 0.0
C367 C 0.13676 0.91518 0.67396 0.0
C368 C 0.1408 0.84971 0.65975 0.0
C369 C 0.11108 0.8307 0.6426 0.0
C370 C 0.1067 0.79509 0.66346 0.0
C371 C 0.13342 0.77848 0.70294 0.0
C372 C 0.16422 0.79738 0.7205 0.0
C373 C 0.16804 0.83331 0.69837 0.0
H374 H 0.34744 0.80329 0.89883 0.0
H375 H 0.28573 0.88732 0.79086 0.0
H376 H 0.32223 0.9335 0.83286 0.0
H377 H 0.36225 0.8508 1.01597 0.0
H378 H 0.40795 0.83363 0.03492 0.0
H379 H 0.3754 0.8074 0.99908 0.0
H380 H 0.41731 0.80389 0.92549 0.0
H381 H 0.44997 0.8301 0.96106 0.0
H382 H 0.43276 0.84491 0.89202 0.0
H383 H 0.36319 0.97012 0.88909 0.0
H384 H 0.41145 0.99551 0.94711 0.0
H385 H 0.45232 0.88774 1.01126 0.0
C386 C 0.34148 0.83148 0.8845 0.0
C387 C 0.31354 0.842 0.8422 0.0
C388 C 0.30694 0.87892 0.82341 0.0
C389 C 0.32741 0.90523 0.84714 0.0
C390 C 0.35483 0.89401 0.88874 0.0
C391 C 0.36235 0.85802 0.90668 0.0
C392 C 0.39493 0.85318 0.94945 0.0
C393 C 0.3845 0.83519 1.00303 0.0
C394 C 0.42555 0.83175 0.93087 0.0
C395 C 0.40455 0.89214 0.9528 0.0
C396 C 0.38053 0.91516 0.91815 0.0
C397 C 0.38259 0.95238 0.91556 0.0
C398 C 0.41027 0.96652 0.94851 0.0
C399 C 0.43638 0.94362 0.98233 0.0
C400 C 0.4332 0.90588 0.98493 0.0
H401 H 0.4064 0.11385 0.02422 0.0
H402 H 0.44525 0.03334 0.15835 0.0
H403 H 0.40927 0.06249 0.21649 0.0
H404 H 0.40775 0.18836 0.09933 0.0
H405 H 0.36665 0.21026 0.06472 0.0
H406 H 0.39309 0.18189 0.03057 0.0
H407 H 0.33741 0.14405 1.00863 0.0
H408 H 0.31063 0.17176 0.04348 0.0
H409 H 0.31414 0.12373 0.0623 0.0
H410 H 0.37383 0.1011 0.26269 0.0
H411 H 0.33666 0.1468 0.29444 0.0
H412 H 0.31844 0.20405 0.13299 0.0
C413 C 0.4066 0.10209 0.06549 0.0
C414 C 0.42877 0.07134 0.08671 0.0
C415 C 0.42877 0.05701 0.14119 0.0
C416 C 0.40833 0.07331 0.1747 0.0
C417 C 0.38768 0.10403 0.1534 0.0
C418 C 0.38618 0.1183 0.10011 0.0
C419 C 0.36235 0.1525 0.08903 0.0
C420 C 0.38375 0.18518 0.06978 0.0
C421 C 0.32917 0.14771 0.04843 0.0
C422 C 0.35165 0.15527 0.14462 0.0
C423 C 0.36657 0.1268 0.18078 0.0
C424 C 0.36164 0.12343 0.23475 0.0
C425 C 0.34053 0.14969 0.25244 0.0
C426 C 0.32447 0.17911 0.21638 0.0
C427 C 0.33023 0.18189 0.16163 0.0
H428 H 0.95881 0.90379 0.6332 0.0
H429 H 0.87489 0.97277 0.53626 0.0
H430 H 0.82856 0.93759 0.5794 0.0
H431 H 0.91079 0.82122 0.62583 0.0
H432 H 0.92812 0.80256 0.69333 0.0
H433 H 0.95439 0.8337 0.65559 0.0
H434 H 0.95841 0.87475 0.73164 0.0
H435 H 0.93208 0.8438 0.76956 0.0
H436 H 0.91756 0.89047 0.7537 0.0
H437 H 0.79195 0.89706 0.63737 0.0
H438 H 0.76721 0.85064 0.69929 0.0
H439 H 0.8748 0.80475 0.752 0.0
C440 C 0.93066 0.91156 0.62123 0.0
C441 C 0.9203 0.94116 0.58187 0.0
C442 C 0.88328 0.95016 0.56642 0.0
C443 C 0.85686 0.93043 0.59079 0.0
C444 C 0.86801 0.90147 0.62973 0.0
C445 C 0.90401 0.89174 0.64428 0.0
C446 C 0.90886 0.8588 0.68583 0.0
C447 C 0.92658 0.8272 0.66381 0.0
C448 C 0.9305 0.86749 0.73828 0.0
C449 C 0.86994 0.85172 0.69298 0.0
C450 C 0.84682 0.87684 0.66062 0.0
C451 C 0.80973 0.87681 0.66202 0.0
C452 C 0.79588 0.85016 0.69695 0.0
C453 C 0.81896 0.82347 0.72904 0.0
C454 C 0.85648 0.82449 0.72723 0.0
H455 H 0.91495 0.05501 0.46153 0.0
H456 H 0.99791 0.12817 0.51074 0.0
H457 H 0.96703 0.1772 0.44634 0.0
H458 H 0.90414 0.08738 0.32303 0.0
H459 H 0.85597 0.08286 0.31271 0.0
H460 H 0.88308 0.05378 0.36489 0.0
H461 H 0.84481 0.07353 0.43524 0.0
H462 H 0.8173 0.1029 0.38374 0.0
H463 H 0.8395 0.12067 0.44194 0.0
H464 H 0.93016 0.21669 0.37295 0.0
H465 H 0.88734 0.24584 0.29756 0.0
H466 H 0.8264 0.14828 0.29708 0.0
C467 C 0.9263 0.0815 0.4591 0.0
C468 C 0.95874 0.08797 0.49099 0.0
C469 C 0.97297 0.12281 0.48677 0.0
C470 C 0.95568 0.15075 0.45028 0.0
C471 C 0.92403 0.14342 0.4188 0.0
C472 C 0.90922 0.10979 0.42307 0.0
C473 C 0.87538 0.10897 0.38345 0.0
C474 C 0.87994 0.08164 0.34367 0.0
C475 C 0.84228 0.10106 0.41285 0.0
C476 C 0.87372 0.14732 0.35587 0.0
C477 C 0.90218 0.1666 0.37686 0.0
C478 C 0.90759 0.20202 0.35649 0.0
C479 C 0.88328 0.21823 0.31349 0.0
C480 C 0.8537 0.1992 0.29176 0.0
C481 C 0.84871 0.16338 0.31341 0.0
H482 H 0.71271 0.13095 0.19107 0.0
H483 H 0.66473 0.23885 0.15224 0.0
H484 H 0.61011 0.21456 0.10725 0.0
H485 H 0.68065 0.10181 0.06516 0.0
H486 H 0.67178 0.05635 0.09142 0.0
H487 H 0.70605 0.08099 0.12671 0.0
H488 H 0.67468 0.06997 0.21257 0.0
H489 H 0.64013 0.04544 0.17747 0.0
H490 H 0.6279 0.08341 0.20991 0.0
H491 H 0.56273 0.18108 0.06359 0.0
H492 H 0.52454 0.13963 1.01607 0.0
H493 H 0.6017 0.05152 0.07612 0.0
C494 C 0.69038 0.14915 0.17363 0.0
C495 C 0.6927 0.18676 0.17516 0.0
C496 C 0.66341 0.21002 0.15125 0.0
C497 C 0.6322 0.19646 0.12592 0.0
C498 C 0.63073 0.1595 0.12424 0.0
C499 C 0.65892 0.13599 0.14687 0.0
C500 C 0.65077 0.09778 0.13481 0.0
C501 C 0.67899 0.08339 0.1026 0.0
C502 C 0.64823 0.07267 0.18679 0.0
C503 C 0.61408 0.10394 0.10099 0.0
C504 C 0.60308 0.13975 0.0966 0.0
C505 C 0.57091 0.15293 0.06674 0.0
C506 C 0.54946 0.12909 0.03969 0.0
C507 C 0.5602 0.09238 0.04211 0.0
C508 C 0.59277 0.07941 0.07384 0.0
H509 H 0.64393 0.84561 0.78071 0.0
H510 H 0.73605 0.83225 0.90502 0.0
H511 H 0.70852 0.87567 0.95413 0.0
H512 H 0.62662 0.94303 0.78722 0.0
H513 H 0.57829 0.93969 0.77818 0.0
H514 H 0.60602 0.90938 0.74902 0.0
H515 H 0.57698 0.85483 0.79812 0.0
H516 H 0.54923 0.88496 0.82741 0.0
H517 H 0.57782 0.85109 0.86999 0.0
H518 H 0.67147 0.91678 0.99333 0.0
H519 H 0.625 0.95428 0.02239 0.0
H520 H 0.55439 0.94345 0.87559 0.0
C521 C 0.6584 0.85236 0.81781 0.0
C522 C 0.6922 0.83535 0.83896 0.0
C523 C 0.71007 0.84452 0.88807 0.0
C524 C 0.69475 0.86941 0.91629 0.0
C525 C 0.66136 0.8852 0.89518 0.0
C526 C 0.64318 0.87727 0.8472 0.0
C527 C 0.60656 0.89713 0.83594 0.0
C528 C 0.60425 0.9239 0.78453 0.0
C529 C 0.57583 0.8704 0.83269 0.0
C530 C 0.60709 0.91675 0.88553 0.0
C531 C 0.63926 0.90949 0.91863 0.0
C532 C 0.64622 0.92294 0.96767 0.0
C533 C 0.61948 0.94415 0.98392 0.0
C534 C 0.58595 0.95189 0.95141 0.0
C535 C 0.57988 0.93835 0.90106 0.0
H536 H 0.54426 0.60621 0.90656 0.0
H537 H 0.62801 0.54414 1.01487 0.0
H538 H 0.67456 0.5776 0.97 0.0
H539 H 0.58994 0.61605 0.78776 0.0
H540 H 0.57413 0.66201 0.76738 0.0
H541 H 0.54745 0.63134 0.80521 0.0
H542 H 0.54684 0.67521 0.87701 0.0
H543 H 0.57346 0.70607 0.83942 0.0
H544 H 0.58895 0.69 0.90866 0.0
H545 H 0.71172 0.6163 0.91149 0.0
H546 H 0.73736 0.66255 0.85041 0.0
H547 H 0.62966 0.70456 0.78761 0.0
C548 C 0.57243 0.59953 0.92039 0.0
C549 C 0.58275 0.57248 0.96371 0.0
C550 C 0.61973 0.56482 0.98161 0.0
C551 C 0.64628 0.58354 0.95627 0.0
C552 C 0.63529 0.61028 0.91387 0.0
C553 C 0.59928 0.61869 0.89656 0.0
C554 C 0.59476 0.65035 0.8527 0.0
C555 C 0.57543 0.63926 0.80015 0.0
C556 C 0.57483 0.6823 0.87053 0.0
C557 C 0.63389 0.65836 0.84799 0.0
C558 C 0.65678 0.6345 0.88298 0.0
C559 C 0.6941 0.63557 0.88463 0.0
C560 C 0.70843 0.66211 0.85014 0.0
C561 C 0.68556 0.68782 0.8157 0.0
C562 C 0.6478 0.68563 0.81429 0.0
H563 H 0.64329 0.28464 0.21516 0.0
H564 H 0.73601 0.35275 0.22599 0.0
H565 H 0.69939 0.40332 0.17441 0.0
H566 H 0.60927 0.31932 0.0789 0.0
H567 H 0.5624 0.3173 0.08868 0.0
H568 H 0.59507 0.28629 0.12926 0.0
H569 H 0.57498 0.30695 0.21551 0.0
H570 H 0.54216 0.33795 0.17524 0.0
H571 H 0.57527 0.35412 0.22405 0.0
H572 H 0.65439 0.44623 0.12364 0.0
H573 H 0.60248 0.48029 0.07141 0.0
H574 H 0.53764 0.38537 0.08676 0.0
C575 C 0.65559 0.31036 0.20696 0.0
C576 C 0.69238 0.31498 0.22466 0.0
C577 C 0.7079 0.34871 0.21269 0.0
C578 C 0.68731 0.37761 0.18352 0.0
C579 C 0.65131 0.37225 0.16608 0.0
C580 C 0.63542 0.33959 0.1769 0.0
C581 C 0.59637 0.34125 0.15119 0.0
C582 C 0.59044 0.31445 0.10953 0.0
C583 C 0.57068 0.33468 0.19406 0.0
C584 C 0.59301 0.37998 0.12452 0.0
C585 C 0.62512 0.39719 0.13428 0.0
C586 C 0.6291 0.43312 0.11544 0.0
C587 C 0.5994 0.45223 0.08586 0.0
C588 C 0.56617 0.43539 0.07488 0.0
C589 C 0.56291 0.39869 0.09415 0.0
H590 H 0.95772 0.38267 0.50959 0.0
H591 H 0.91101 0.4889 0.44989 0.0
H592 H 0.86712 0.46203 0.38577 0.0
H593 H 0.94781 0.34458 0.38587 0.0
H594 H 0.93546 0.30094 0.41504 0.0
H595 H 0.96388 0.32863 0.45496 0.0
H596 H 0.91911 0.32477 0.52566 0.0
H597 H 0.89061 0.29696 0.48604 0.0
H598 H 0.8724 0.33787 0.50485 0.0
H599 H 0.83057 0.42365 0.32529 0.0
H600 H 0.79957 0.37621 0.27883 0.0
H601 H 0.86611 0.2943 0.3841 0.0
C602 C 0.93821 0.40027 0.48304 0.0
C603 C 0.93833 0.43802 0.48347 0.0
C604 C 0.91208 0.46009 0.44885 0.0
C605 C 0.88691 0.44501 0.41266 0.0
C606 C 0.88787 0.40772 0.41264 0.0
C607 C 0.91244 0.38557 0.44756 0.0
C608 C 0.90693 0.34623 0.44073 0.0
C609 C 0.94052 0.3291 0.42309 0.0
C610 C 0.89664 0.32523 0.49239 0.0
C611 C 0.8756 0.34971 0.39616 0.0
C612 C 0.86532 0.38545 0.38011 0.0
C613 C 0.8381 0.39558 0.33792 0.0
C614 C 0.82077 0.36848 0.31166 0.0
C615 C 0.83031 0.33169 0.32827 0.0
C616 C 0.85798 0.32223 0.3712 0.0
H617 H 0.81687 0.70204 0.63212 0.0
H618 H 0.82964 0.64569 0.79437 0.0
H619 H 0.86944 0.60065 0.76756 0.0
H620 H 0.81749 0.62069 0.56398 0.0
H621 H 0.84319 0.64 0.51258 0.0
H622 H 0.81437 0.66853 0.54294 0.0
H623 H 0.8685 0.70777 0.56891 0.0
H624 H 0.89749 0.67938 0.53867 0.0
H625 H 0.90871 0.68683 0.60781 0.0
H626 H 0.90878 0.5627 0.72741 0.0
H627 H 0.94655 0.5318 0.67387 0.0
H628 H 0.91066 0.60945 0.53442 0.0
C629 C 0.82791 0.6801 0.66179 0.0
C630 C 0.81994 0.67775 0.71555 0.0
C631 C 0.83515 0.64856 0.75308 0.0
C632 C 0.85789 0.62257 0.73828 0.0
C633 C 0.86539 0.62571 0.68559 0.0
C634 C 0.851 0.65349 0.64761 0.0
C635 C 0.8645 0.65002 0.59388 0.0
C636 C 0.833 0.64448 0.55079 0.0
C637 C 0.88609 0.68296 0.57629 0.0
C638 C 0.88881 0.61618 0.60825 0.0
C639 C 0.88861 0.60291 0.66153 0.0
C640 C 0.90912 0.57265 0.68553 0.0
C641 C 0.93067 0.55532 0.65452 0.0
C642 C 0.93179 0.56803 0.59965 0.0
C643 C 0.91026 0.59887 0.57607 0.0
H644 H 0.37374 0.3143 0.27407 0.0
H645 H 0.26587 0.35165 0.20383 0.0
H646 H 0.29125 0.40294 0.15165 0.0
H647 H 0.4084 0.4036 0.2875 0.0
H648 H 0.45256 0.39186 0.27207 0.0
H649 H 0.42598 0.35789 0.30373 0.0
H650 H 0.43169 0.31867 0.22713 0.0
H651 H 0.45836 0.35245 0.19539 0.0
H652 H 0.4181 0.33763 0.15851 0.0
H653 H 0.32842 0.44783 0.1033 0.0
H654 H 0.37485 0.48545 0.06525 0.0
H655 H 0.45846 0.42206 0.17202 0.0
C656 C 0.3555 0.33334 0.24777 0.0
C657 C 0.31788 0.32871 0.24209 0.0
C658 C 0.29481 0.3543 0.20777 0.0
C659 C 0.30897 0.38364 0.17831 0.0
C660 C 0.3462 0.38732 0.18445 0.0
C661 C 0.36917 0.36312 0.21871 0.0
C662 C 0.40814 0.37348 0.21815 0.0
C663 C 0.42474 0.38223 0.27367 0.0
C664 C 0.43037 0.34379 0.19862 0.0
C665 C 0.40351 0.407 0.17762 0.0
C666 C 0.36755 0.41437 0.15852 0.0
C667 C 0.35661 0.44265 0.11848 0.0
C668 C 0.38312 0.4638 0.09707 0.0
C669 C 0.42006 0.45687 0.11627 0.0
C670 C 0.43031 0.42839 0.15753 0.0
H671 H 0.40115 0.57429 0.99463 0.0
H672 H 0.50167 0.62605 0.97127 0.0
H673 H 0.47114 0.66436 0.89144 0.0
H674 H 0.36348 0.57728 0.85407 0.0
H675 H 0.31835 0.58835 0.8662 0.0
H676 H 0.34873 0.56215 0.91792 0.0
H677 H 0.33953 0.60851 0.9841 0.0
H678 H 0.30871 0.63439 0.93287 0.0
H679 H 0.34721 0.65543 0.96474 0.0
H680 H 0.42951 0.69775 0.81564 0.0
H681 H 0.3781 0.72988 0.7567 0.0
H682 H 0.3038 0.66044 0.83445 0.0
C683 C 0.41661 0.59356 0.97229 0.0
C684 C 0.45365 0.59721 0.98835 0.0
C685 C 0.47319 0.623 0.9592 0.0
C686 C 0.45616 0.64462 0.9137 0.0
C687 C 0.41948 0.64052 0.89877 0.0
C688 C 0.39976 0.61613 0.92776 0.0
C689 C 0.36004 0.6196 0.90646 0.0
C690 C 0.34689 0.58477 0.88487 0.0
C691 C 0.33757 0.63012 0.9496 0.0
C692 C 0.36045 0.65001 0.86139 0.0
C693 C 0.39512 0.66108 0.85679 0.0
C694 C 0.40228 0.68922 0.81864 0.0
C695 C 0.37309 0.70714 0.78524 0.0
C696 C 0.33745 0.69711 0.79107 0.0
C697 C 0.33102 0.66807 0.82908 0.0
H698 H 0.16205 0.71174 0.65042 0.0
H699 H 0.23096 0.62854 0.74875 0.0
H700 H 0.19436 0.58173 0.7081 0.0
H701 H 0.07951 0.66596 0.66345 0.0
H702 H 0.05939 0.68217 0.59619 0.0
H703 H 0.09217 0.70858 0.63112 0.0
H704 H 0.13086 0.70967 0.5529 0.0
H705 H 0.09829 0.68318 0.5177 0.0
H706 H 0.14482 0.66779 0.53177 0.0
H707 H 0.15135 0.54437 0.65284 0.0
H708 H 0.1021 0.51936 0.59503 0.0
H709 H 0.05827 0.62739 0.54029 0.0
C710 C 0.16961 0.68365 0.66306 0.0
C711 C 0.19955 0.67359 0.70212 0.0
C712 C 0.20816 0.63665 0.71867 0.0
C713 C 0.18761 0.60999 0.69571 0.0
C714 C 0.1582 0.62084 0.65717 0.0
C715 C 0.14893 0.65682 0.64162 0.0
C716 C 0.11507 0.66152 0.6016 0.0
C717 C 0.08474 0.68068 0.62448 0.0
C718 C 0.12274 0.68173 0.54781 0.0
C719 C 0.10683 0.62252 0.59649 0.0
C720 C 0.13223 0.59944 0.62832 0.0
C721 C 0.13099 0.56219 0.6285 0.0
C722 C 0.10284 0.54821 0.59577 0.0
C723 C 0.07591 0.57138 0.56433 0.0
C724 C 0.07818 0.60899 0.56458 0.0
H725 H 0.19583 0.31481 0.41299 0.0
H726 H 0.15628 0.34861 0.24505 0.0
H727 H 0.11393 0.3916 0.27166 0.0
H728 H 0.10901 0.32144 0.46243 0.0
H729 H 0.12674 0.33889 0.52345 0.0
H730 H 0.15468 0.30998 0.49233 0.0
H731 H 0.20286 0.35865 0.48897 0.0
H732 H 0.17508 0.38778 0.51999 0.0
H733 H 0.19024 0.40346 0.45663 0.0
H734 H 0.07634 0.43067 0.31329 0.0
H735 H 0.04374 0.46512 0.36898 0.0
H736 H 0.10517 0.40855 0.51296 0.0
C737 C 0.17821 0.33125 0.3819 0.0
C738 C 0.17963 0.32819 0.32676 0.0
C739 C 0.15605 0.35027 0.28745 0.0
C740 C 0.13174 0.3749 0.30212 0.0
C741 C 0.1311 0.37737 0.35637 0.0
C742 C 0.15352 0.35631 0.3959 0.0
C743 C 0.14678 0.36502 0.45128 0.0
C744 C 0.13351 0.33185 0.48432 0.0
C745 C 0.18077 0.37959 0.48097 0.0
C746 C 0.11711 0.39422 0.43626 0.0
C747 C 0.10876 0.4006 0.38114 0.0
C748 C 0.08251 0.42593 0.35654 0.0
C749 C 0.06401 0.44537 0.38891 0.0
C750 C 0.07154 0.4396 0.44575 0.0
C751 C 0.09873 0.41367 0.46976 0.0
H752 H 0.98485 0.99029 0.89004 0.0
H753 H 0.09923 0.01117 0.90624 0.0
H754 H 0.09821 0.01829 1.00162 0.0
H755 H 0.9606 0.05416 0.97889 0.0
H756 H 0.92765 0.02566 1.00701 0.0
H757 H 0.93692 0.02287 0.93936 0.0
H758 H 0.95148 0.95445 0.96316 0.0
H759 H 0.94221 0.95703 0.03081 0.0
H760 H 0.98511 0.93897 0.01899 0.0
H761 H 0.08531 0.02298 0.09513 0.0
H762 H 0.06159 0.02355 0.18159 0.0
H763 H 0.95566 0.9984 0.10664 0.0
C764 C 0.0096 0.99665 0.91357 0.0
C765 C 0.0422 0.99991 0.89055 0.0
C766 C 0.07405 0.00793 0.923 0.0
C767 C 0.07371 0.0123 0.9772 0.0
C768 C 0.04129 0.00865 0.99869 0.0
C769 C 0.00979 1.00098 0.96804 0.0
C770 C 0.9788 0.99775 1.00164 0.0
C771 C 0.94925 0.02684 0.98045 0.0
C772 C 0.96351 0.95979 1.00377 0.0
C773 C 0.99793 1.00451 0.05594 0.0
C774 C 0.03391 0.01096 0.05312 0.0
C775 C 0.0572 0.0178 0.0979 0.0
C776 C 0.04348 0.0178 0.14703 0.0
C777 C 1.00677 0.01072 0.1514 0.0
C778 C 0.98375 1.00425 0.10483 0.0
H779 H 0.24252 0.75613 0.38854 0.0
H780 H 0.34128 0.81489 0.40908 0.0
H781 H 0.35196 0.80659 0.31692 0.0
H782 H 0.27566 0.69054 0.30911 0.0
H783 H 0.23338 0.6897 0.26656 0.0
H784 H 0.23394 0.69941 0.33474 0.0
H785 H 0.19797 0.75929 0.30079 0.0
H786 H 0.19729 0.74976 0.23257 0.0
H787 H 0.21512 0.79139 0.25199 0.0
H788 H 0.35138 0.79295 0.22147 0.0
H789 H 0.33929 0.77526 0.13008 0.0
H790 H 0.2407 0.72581 0.17127 0.0
C791 C 0.26664 0.76686 0.37393 0.0
C792 C 0.291 0.78628 0.40622 0.0
C793 C 0.32194 0.80034 0.38505 0.0
C794 C 0.32839 0.79556 0.33279 0.0
C795 C 0.3037 0.77659 0.30195 0.0
C796 C 0.27346 0.76242 0.32172 0.0
C797 C 0.25073 0.74388 0.27977 0.0
C798 C 0.2483 0.70348 0.29868 0.0
C799 C 0.21305 0.76218 0.26544 0.0
C800 C 0.27281 0.75001 0.23329 0.0
C801 C 0.30333 0.76883 0.24696 0.0
C802 C 0.32756 0.77817 0.21036 0.0
C803 C 0.32034 0.76817 0.15837 0.0
C804 C 0.28907 0.74905 0.14319 0.0
C805 C 0.26518 0.73983 0.18159 0.0
H806 H 0.50264 0.98978 0.6355 0.0
H807 H 0.48823 0.10597 0.62405 0.0
H808 H 0.49719 0.11121 0.52845 0.0
H809 H 0.57166 0.98951 0.54691 0.0
H810 H 0.55503 0.95048 0.51748 0.0
H811 H 0.5483 0.95594 0.5854 0.0
H812 H 0.4795 0.95009 0.56097 0.0
H813 H 0.48599 0.94474 0.49295 0.0
H814 H 0.45577 0.97981 0.50595 0.0
H815 H 0.5057 0.10376 0.43313 0.0
H816 H 0.51458 0.08429 0.34572 0.0
H817 H 0.52454 0.97298 0.41918 0.0
C818 C 0.5013 0.01633 0.61287 0.0
C819 C 0.49485 0.04749 0.63751 0.0
C820 C 0.49367 0.08174 0.60645 0.0
C821 C 0.4985 0.08498 0.55197 0.0
C822 C 0.50463 0.05375 0.52894 0.0
C823 C 0.50621 0.02008 0.55843 0.0
C824 C 0.51311 0.99081 0.5239 0.0
C825 C 0.54917 0.97049 0.54467 0.0
C826 C 0.48172 0.96484 0.52076 0.0
C827 C 0.51478 0.01326 0.47029 0.0
C828 C 0.50985 0.0495 0.4741 0.0
C829 C 0.50987 0.07546 0.42978 0.0
C830 C 0.51517 0.06412 0.38028 0.0
C831 C 0.52046 0.02708 0.37528 0.0
C832 C 0.52022 1.00145 0.42123 0.0
H833 H 0.23157 0.29422 0.86568 0.0
H834 H 0.30422 0.20951 0.95328 0.0
H835 H 0.32367 0.19566 0.8681 0.0
H836 H 0.2029 0.2465 0.75425 0.0
H837 H 0.2004 0.28593 0.70533 0.0
H838 H 0.19337 0.29023 0.77346 0.0
H839 H 0.24412 0.33637 0.77986 0.0
H840 H 0.25133 0.33218 0.71173 0.0
H841 H 0.28833 0.32418 0.76505 0.0
H842 H 0.33364 0.18963 0.77326 0.0
H843 H 0.33335 0.19158 0.67548 0.0
H844 H 0.2541 0.28023 0.64958 0.0
C845 C 0.25142 0.27259 0.86705 0.0
C846 C 0.26635 0.25296 0.91635 0.0
C847 C 0.2927 0.22526 0.91623 0.0
C848 C 0.3038 0.21706 0.86798 0.0
C849 C 0.28834 0.23682 0.82019 0.0
C850 C 0.26273 0.26401 0.81933 0.0
C851 C 0.24982 0.2807 0.76248 0.0
C852 C 0.20922 0.27551 0.74805 0.0
C853 C 0.25896 0.32073 0.75432 0.0
C854 C 0.272 0.25845 0.73143 0.0
C855 C 0.29413 0.23339 0.7655 0.0
C856 C 0.31666 0.20935 0.74619 0.0
C857 C 0.31647 0.21086 0.69054 0.0
C858 C 0.29392 0.23627 0.65473 0.0
C859 C 0.27151 0.2604 0.67576 0.0
H860 H 0.77158 0.29811 0.84356 0.0
H861 H 0.80868 0.19331 0.92715 0.0
H862 H 0.81356 0.17107 0.84039 0.0
H863 H 0.71662 0.264 0.73416 0.0
H864 H 0.72697 0.29972 0.6846 0.0
H865 H 0.72734 0.30781 0.75345 0.0
H866 H 0.79296 0.3291 0.75525 0.0
H867 H 0.79285 0.32092 0.68648 0.0
H868 H 0.82715 0.29975 0.73752 0.0
H869 H 0.81436 0.15995 0.74477 0.0
H870 H 0.80865 0.16002 0.64655 0.0
H871 H 0.7697 0.27149 0.62457 0.0
C872 C 0.78044 0.27038 0.84374 0.0
C873 C 0.79004 0.24761 0.8925 0.0
C874 C 0.80187 0.21159 0.89061 0.0
C875 C 0.80453 0.19859 0.84144 0.0
C876 C 0.79507 0.2218 0.79432 0.0
C877 C 0.78306 0.25686 0.79497 0.0
C878 C 0.77401 0.27602 0.73845 0.0
C879 C 0.73385 0.28756 0.727 0.0
C880 C 0.79819 0.30836 0.72888 0.0
C881 C 0.78278 0.24621 0.70597 0.0
C882 C 0.79506 0.21523 0.73903 0.0
C883 C 0.80486 0.18408 0.71845 0.0
C884 C 0.80178 0.18448 0.66257 0.0
C885 C 0.78889 0.2158 0.62775 0.0
C886 C 0.77941 0.24706 0.65003 0.0
H887 H 0.77088 0.74077 0.40065 0.0
H888 H 0.70537 0.83981 0.37363 0.0
H889 H 0.70902 0.8433 0.27659 0.0
H890 H 0.82945 0.7658 0.29987 0.0
H891 H 0.83184 0.7213 0.27966 0.0
H892 H 0.82473 0.72681 0.34741 0.0
H893 H 0.76672 0.69015 0.33697 0.0
H894 H 0.77362 0.68456 0.26918 0.0
H895 H 0.73173 0.70412 0.28233 0.0
H896 H 0.71814 0.83538 0.18217 0.0
H897 H 0.73271 0.81685 0.09682 0.0
H898 H 0.79334 0.72353 0.18452 0.0
C899 C 0.75724 0.76314 0.37432 0.0
C900 C 0.73808 0.79018 0.39502 0.0
C901 C 0.7208 0.81912 0.35905 0.0
C902 C 0.7225 0.82123 0.30373 0.0
C903 C 0.7416 0.79422 0.28471 0.0
C904 C 0.75873 0.76574 0.31883 0.0
C905 C 0.77727 0.74019 0.28778 0.0
C906 C 0.81826 0.73844 0.30469 0.0
C907 C 0.76138 0.70253 0.29447 0.0
C908 C 0.76771 0.7587 0.23094 0.0
C909 C 0.74711 0.7898 0.23012 0.0
C910 C 0.73453 0.81122 0.18231 0.0
C911 C 0.7432 0.80058 0.13398 0.0
C912 C 0.76442 0.76882 0.13361 0.0
C913 C 0.77682 0.74777 0.18307 0.0
H914 H 0.45601 0.50378 0.63663 0.0
H915 H 0.56568 0.49505 0.71804 0.0
H916 H 0.58868 0.49411 0.63101 0.0
H917 H 0.46891 0.44694 0.53522 0.0
H918 H 0.44008 0.47436 0.48291 0.0
H919 H 0.43201 0.47335 0.5518 0.0
H920 H 0.43583 0.54284 0.54433 0.0
H921 H 0.4438 0.54407 0.47538 0.0
H922 H 0.47528 0.56394 0.52243 0.0
H923 H 0.59995 0.49498 0.53528 0.0
H924 H 0.5988 0.49926 0.43708 0.0
H925 H 0.48189 0.50823 0.41753 0.0
C926 C 0.48489 0.50195 0.63625 0.0
C927 C 0.50898 0.49924 0.68445 0.0
C928 C 0.54658 0.49646 0.68193 0.0
C929 C 0.55995 0.49613 0.63262 0.0
C930 C 0.53545 0.49874 0.58604 0.0
C931 C 0.49873 0.50175 0.58735 0.0
C932 C 0.47824 0.50486 0.53131 0.0
C933 C 0.45335 0.47297 0.52496 0.0
C934 C 0.45704 0.54108 0.51757 0.0
C935 C 0.50922 0.50318 0.4983 0.0
C936 C 0.54196 0.49952 0.5307 0.0
C937 C 0.57446 0.49767 0.5095 0.0
C938 C 0.57349 0.49985 0.45363 0.0
C939 C 0.54025 0.50386 0.41946 0.0
C940 C 0.50774 0.50541 0.44242 0.0
H941 H 0.03901 0.51889 0.91483 0.0
H942 H 0.96409 0.43343 0.88979 0.0
H943 H 0.9484 0.43422 0.98149 0.0
H944 H 0.07073 0.48788 0.0533 0.0
H945 H 0.07405 0.53239 0.07368 0.0
H946 H 0.07933 0.52557 1.00572 0.0
H947 H 0.0283 0.57322 0.96998 0.0
H948 H 0.02293 0.58026 0.03783 0.0
H949 H 0.98482 0.56822 0.99328 0.0
H950 H 0.94083 0.44383 0.07645 0.0
H951 H 0.94121 0.4622 0.16692 0.0
H952 H 0.0212 0.54136 0.13207 0.0
C953 C 0.01905 0.50057 0.92841 0.0
C954 C 1.00297 0.47592 0.89474 0.0
C955 C 0.97728 0.45218 0.91471 0.0
C956 C 0.96801 0.45255 0.9668 0.0
C957 C 0.98459 0.47683 0.99899 0.0
C958 C 1.00952 0.50048 0.98061 0.0
C959 C 0.02355 0.52362 0.02379 0.0
C960 C 0.06433 0.51696 0.04008 0.0
C961 C 0.01434 0.56371 1.00509 0.0
C962 C 1.00248 0.5094 0.06911 0.0
C963 C 0.98023 0.48235 0.05391 0.0
C964 C 0.95826 0.46491 0.08881 0.0
C965 C 0.95889 0.4754 0.14047 0.0
C966 C 0.98135 0.50316 0.15731 0.0
C967 C 1.00343 0.52028 0.12069 0.0
loop_
_geom_bond_atom_site_label_1
_geom_bond_atom_site_label_2
_geom_bond_distance
_geom_bond_site_symmetry_2
_ccdc_geom_bond_type
Ho0 C3 2.811 1_655 S
Ho0 O20 2.322 1_665 S
Ho0 O22 2.378 1_655 S
Ho0 O23 2.524 1_565 S
Ho0 O24 2.381 1_655 S
Ho0 O25 2.669 1_655 S
Ho0 O27 2.346 . S
Ho0 O31 2.305 1_565 S
Ho1 C12 2.811 1_455 S
Ho1 O21 2.346 . S
Ho1 O25 2.305 1_545 S
Ho1 O26 2.322 1_445 S
Ho1 O28 2.378 1_455 S
Ho1 O29 2.524 1_545 S
Ho1 O30 2.381 1_455 S
Ho1 O31 2.669 1_455 S
C2 O20 1.259 . S
C2 O21 1.268 . S
C3 Ho0 2.811 1_455 S
C3 C4 1.488 . S
C3 O22 1.215 . S
C3 O23 1.289 1_465 S
C4 C3 1.488 . S
C4 C5 1.348 1_565 S
C4 C9 1.413 . S
C5 C4 1.348 1_545 S
C5 C6 1.442 . S
C5 H32 0.930 1_455 S
C6 C5 1.442 . S
C6 C7 1.396 . S
C6 H33 0.931 . S
C7 C6 1.396 . S
C7 C8 1.307 1_545 S
C8 C7 1.307 1_565 S
C8 C9 1.403 . S
C8 H34 0.934 . S
C9 C4 1.413 . S
C9 C8 1.403 . S
C9 H35 0.930 . S
C10 O24 1.275 . S
C10 O25 1.256 . S
C11 O26 1.259 . S
C11 O27 1.268 . S
C12 Ho1 2.811 1_655 S
C12 C13 1.488 . S
C12 O28 1.215 . S
C12 O29 1.289 1_645 S
C13 C12 1.488 . S
C13 C14 1.348 1_545 S
C13 C18 1.413 . S
C14 C13 1.348 1_565 S
C14 C15 1.442 . S
C14 H36 0.930 1_655 S
C15 C14 1.442 . S
C15 C16 1.390 . S
C15 H37 0.931 . S
C16 C15 1.390 . S
C16 C17 1.313 1_565 S
C17 C16 1.313 1_545 S
C17 C18 1.403 . S
C17 H38 0.934 . S
C18 C13 1.413 . S
C18 C17 1.403 . S
C18 H39 0.930 . S
C19 O30 1.275 . S
C19 O31 1.256 . S
O20 Ho0 2.322 1_445 S
O20 C2 1.259 . S
O21 Ho1 2.346 . S
O21 C2 1.268 . S
O22 Ho0 2.378 1_455 S
O22 C3 1.215 . S
O23 Ho0 2.524 1_545 S
O23 C3 1.289 1_645 S
O24 Ho0 2.381 1_455 S
O24 C10 1.275 . S
O25 Ho0 2.669 1_455 S
O25 Ho1 2.305 1_565 S
O25 C10 1.256 . S
O26 Ho1 2.322 1_665 S
O26 C11 1.259 . S
O27 Ho0 2.346 . S
O27 C11 1.268 . S
O28 Ho1 2.378 1_655 S
O28 C12 1.215 . S
O29 Ho1 2.524 1_565 S
O29 C12 1.289 1_465 S
O30 Ho1 2.381 1_655 S
O30 C19 1.275 . S
O31 Ho0 2.305 1_545 S
O31 Ho1 2.669 1_655 S
O31 C19 1.256 . S
H32 C5 0.930 1_655 S
H33 C6 0.931 . S
H34 C8 0.934 . S
H35 C9 0.930 . S
H36 C14 0.930 1_455 S
H37 C15 0.931 . S
H38 C17 0.934 . S
H39 C18 0.930 . S
Ho40 C43 2.811 . S
Ho40 O60 2.322 . S
Ho40 O62 2.378 . S
Ho40 O63 2.524 . S
Ho40 O64 2.381 . S
Ho40 O65 2.669 . S
Ho40 O67 2.346 . S
Ho40 O71 2.305 . S
Ho41 C52 2.811 . S
Ho41 O61 2.346 . S
Ho41 O65 2.305 . S
Ho41 O66 2.322 . S
Ho41 O68 2.378 . S
Ho41 O69 2.524 . S
Ho41 O70 2.381 . S
Ho41 O71 2.669 . S
C42 O60 1.259 . S
C42 O61 1.268 . S
C43 Ho40 2.811 . S
C43 C44 1.488 . S
C43 O62 1.215 . S
C43 O63 1.289 . S
C44 C43 1.488 . S
C44 C45 1.348 . S
C44 C49 1.413 . S
C45 C44 1.348 . S
C45 C46 1.442 1_556 S
C45 H72 0.930 . S
C46 C45 1.442 1_554 S
C46 C47 1.381 . S
C46 H73 0.931 . S
C47 C46 1.381 . S
C47 C48 1.321 . S
C48 C47 1.321 . S
C48 C49 1.403 1_554 S
C48 H74 0.934 . S
C49 C44 1.413 . S
C49 C48 1.403 1_556 S
C49 H75 0.930 . S
C50 O64 1.275 . S
C50 O65 1.256 . S
C51 O66 1.259 . S
C51 O67 1.268 . S
C52 Ho41 2.811 . S
C52 C53 1.488 . S
C52 O68 1.215 . S
C52 O69 1.289 . S
C53 C52 1.488 . S
C53 C54 1.348 . S
C53 C58 1.413 . S
C54 C53 1.348 . S
C54 C55 1.442 . S
C54 H76 0.930 . S
C55 C54 1.442 . S
C55 C56 1.381 . S
C55 H77 0.931 . S
C56 C55 1.381 . S
C56 C57 1.321 . S
C57 C56 1.321 . S
C57 C58 1.403 . S
C57 H78 0.934 . S
C58 C53 1.413 . S
C58 C57 1.403 . S
C58 H79 0.930 . S
C59 O70 1.275 . S
C59 O71 1.256 . S
O60 Ho40 2.322 . S
O60 C42 1.259 . S
O61 Ho41 2.346 . S
O61 C42 1.268 . S
O62 Ho40 2.378 . S
O62 C43 1.215 . S
O63 Ho40 2.524 . S
O63 C43 1.289 . S
O64 Ho40 2.381 . S
O64 C50 1.275 . S
O65 Ho40 2.669 . S
O65 Ho41 2.305 . S
O65 C50 1.256 . S
O66 Ho41 2.322 . S
O66 C51 1.259 . S
O67 Ho40 2.346 . S
O67 C51 1.268 . S
O68 Ho41 2.378 . S
O68 C52 1.215 . S
O69 Ho41 2.524 . S
O69 C52 1.289 . S
O70 Ho41 2.381 . S
O70 C59 1.275 . S
O71 Ho40 2.305 . S
O71 Ho41 2.669 . S
O71 C59 1.256 . S
H72 C45 0.930 . S
H73 C46 0.931 . S
H74 C48 0.934 . S
H75 C49 0.930 . S
H76 C54 0.930 . S
H77 C55 0.931 . S
H78 C57 0.934 . S
H79 C58 0.930 . S
Ho80 C83 2.811 . S
Ho80 O100 2.322 1_565 S
Ho80 O102 2.378 . S
Ho80 O103 2.524 . S
Ho80 O104 2.381 . S
Ho80 O105 2.669 1_554 S
Ho80 O107 2.346 . S
Ho80 O111 2.305 1_565 S
Ho81 C92 2.811 . S
Ho81 O101 2.346 . S
Ho81 O105 2.305 1_545 S
Ho81 O106 2.322 1_545 S
Ho81 O108 2.378 . S
Ho81 O109 2.524 . S
Ho81 O110 2.381 . S
Ho81 O111 2.669 1_556 S
C82 O100 1.259 . S
C82 O101 1.268 1_554 S
C83 Ho80 2.811 . S
C83 C84 1.488 . S
C83 O102 1.215 . S
C83 O103 1.289 . S
C84 C83 1.488 . S
C84 C85 1.348 1_565 S
C84 C89 1.413 . S
C85 C84 1.348 1_545 S
C85 C86 1.442 . S
C85 H112 0.930 . S
C86 C85 1.442 . S
C86 C87 1.381 1_545 S
C86 H113 0.931 . S
C87 C86 1.381 1_565 S
C87 C88 1.321 . S
C88 C87 1.321 . S
C88 C89 1.403 . S
C88 H114 0.934 . S
C89 C84 1.413 . S
C89 C88 1.403 . S
C89 H115 0.930 . S
C90 O104 1.275 1_556 S
C90 O105 1.256 . S
C91 O106 1.259 . S
C91 O107 1.268 1_556 S
C92 Ho81 2.811 . S
C92 C93 1.488 . S
C92 O108 1.215 . S
C92 O109 1.289 . S
C93 C92 1.488 . S
C93 C94 1.348 1_545 S
C93 C98 1.413 . S
C94 C93 1.348 1_565 S
C94 C95 1.442 . S
C94 H116 0.930 . S
C95 C94 1.442 . S
C95 C96 1.381 1_565 S
C95 H117 0.931 . S
C96 C95 1.381 1_545 S
C96 C97 1.321 . S
C97 C96 1.321 . S
C97 C98 1.403 . S
C97 H118 0.934 . S
C98 C93 1.413 . S
C98 C97 1.403 . S
C98 H119 0.930 . S
C99 O110 1.275 1_554 S
C99 O111 1.256 . S
O100 Ho80 2.322 1_545 S
O100 C82 1.259 . S
O101 Ho81 2.346 . S
O101 C82 1.268 1_556 S
O102 Ho80 2.378 . S
O102 C83 1.215 . S
O103 Ho80 2.524 . S
O103 C83 1.289 . S
O104 Ho80 2.381 . S
O104 C90 1.275 1_554 S
O105 Ho80 2.669 1_556 S
O105 Ho81 2.305 1_565 S
O105 C90 1.256 . S
O106 Ho81 2.322 1_565 S
O106 C91 1.259 . S
O107 Ho80 2.346 . S
O107 C91 1.268 1_554 S
O108 Ho81 2.378 . S
O108 C92 1.215 . S
O109 Ho81 2.524 . S
O109 C92 1.289 . S
O110 Ho81 2.381 . S
O110 C99 1.275 1_556 S
O111 Ho80 2.305 1_545 S
O111 Ho81 2.669 1_554 S
O111 C99 1.256 . S
H112 C85 0.930 . S
H113 C86 0.931 . S
H114 C88 0.934 . S
H115 C89 0.930 . S
H116 C94 0.930 . S
H117 C95 0.931 . S
H118 C97 0.934 . S
H119 C98 0.930 . S
Ho120 C123 2.811 . S
Ho120 O140 2.322 . S
Ho120 O142 2.378 . S
Ho120 O143 2.524 . S
Ho120 O144 2.381 . S
Ho120 O145 2.669 . S
Ho120 O147 2.346 . S
Ho120 O151 2.305 . S
Ho121 C132 2.811 . S
Ho121 O141 2.346 . S
Ho121 O145 2.305 . S
Ho121 O146 2.322 . S
Ho121 O148 2.378 . S
Ho121 O149 2.524 . S
Ho121 O150 2.381 . S
Ho121 O151 2.669 . S
C122 O140 1.259 . S
C122 O141 1.268 . S
C123 Ho120 2.811 . S
C123 C124 1.488 . S
C123 O142 1.215 . S
C123 O143 1.289 . S
C124 C123 1.488 . S
C124 C125 1.348 . S
C124 C129 1.413 . S
C125 C124 1.348 . S
C125 C126 1.442 1_554 S
C125 H152 0.930 . S
C126 C125 1.442 1_556 S
C126 C127 1.381 . S
C126 H153 0.931 . S
C127 C126 1.381 . S
C127 C128 1.321 . S
C128 C127 1.321 . S
C128 C129 1.403 1_556 S
C128 H154 0.934 . S
C129 C124 1.413 . S
C129 C128 1.403 1_554 S
C129 H155 0.930 . S
C130 O144 1.275 . S
C130 O145 1.256 . S
C131 O146 1.259 . S
C131 O147 1.268 . S
C132 Ho121 2.811 . S
C132 C133 1.488 . S
C132 O148 1.215 . S
C132 O149 1.289 . S
C133 C132 1.488 . S
C133 C134 1.348 . S
C133 C138 1.413 . S
C134 C133 1.348 . S
C134 C135 1.442 . S
C134 H156 0.930 . S
C135 C134 1.442 . S
C135 C136 1.381 . S
C135 H157 0.931 . S
C136 C135 1.381 . S
C136 C137 1.321 . S
C137 C136 1.321 . S
C137 C138 1.403 . S
C137 H158 0.934 . S
C138 C133 1.413 . S
C138 C137 1.403 . S
C138 H159 0.930 . S
C139 O150 1.275 . S
C139 O151 1.256 . S
O140 Ho120 2.322 . S
O140 C122 1.259 . S
O141 Ho121 2.346 . S
O141 C122 1.268 . S
O142 Ho120 2.378 . S
O142 C123 1.215 . S
O143 Ho120 2.524 . S
O143 C123 1.289 . S
O144 Ho120 2.381 . S
O144 C130 1.275 . S
O145 Ho120 2.669 . S
O145 Ho121 2.305 . S
O145 C130 1.256 . S
O146 Ho121 2.322 . S
O146 C131 1.259 . S
O147 Ho120 2.346 . S
O147 C131 1.268 . S
O148 Ho121 2.378 . S
O148 C132 1.215 . S
O149 Ho121 2.524 . S
O149 C132 1.289 . S
O150 Ho121 2.381 . S
O150 C139 1.275 . S
O151 Ho120 2.305 . S
O151 Ho121 2.669 . S
O151 C139 1.256 . S
H152 C125 0.930 . S
H153 C126 0.931 . S
H154 C128 0.934 . S
H155 C129 0.930 . S
H156 C134 0.930 . S
H157 C135 0.931 . S
H158 C137 0.934 . S
H159 C138 0.930 . S
Ho160 C163 2.811 . S
Ho160 O180 2.322 . S
Ho160 O182 2.378 . S
Ho160 O183 2.524 . S
Ho160 O184 2.381 . S
Ho160 O185 2.669 . S
Ho160 O187 2.346 . S
Ho160 O191 2.305 . S
Ho161 C172 2.811 . S
Ho161 O181 2.346 . S
Ho161 O185 2.305 . S
Ho161 O186 2.322 . S
Ho161 O188 2.378 . S
Ho161 O189 2.524 . S
Ho161 O190 2.381 . S
Ho161 O191 2.669 . S
C162 O180 1.259 . S
C162 O181 1.268 . S
C163 Ho160 2.811 . S
C163 C164 1.488 . S
C163 O182 1.215 . S
C163 O183 1.289 . S
C164 C163 1.488 . S
C164 C165 1.348 . S
C164 C169 1.413 . S
C165 C164 1.348 . S
C165 C166 1.442 . S
C165 H192 0.930 . S
C166 C165 1.442 . S
C166 C167 1.381 . S
C166 H193 0.931 . S
C167 C166 1.381 . S
C167 C168 1.321 . S
C168 C167 1.321 . S
C168 C169 1.403 . S
C168 H194 0.934 . S
C169 C164 1.413 . S
C169 C168 1.403 . S
C169 H195 0.930 . S
C170 O184 1.275 . S
C170 O185 1.256 . S
C171 O186 1.259 . S
C171 O187 1.268 . S
C172 Ho161 2.811 . S
C172 C173 1.488 . S
C172 O188 1.215 . S
C172 O189 1.289 . S
C173 C172 1.488 . S
C173 C174 1.348 . S
C173 C178 1.413 . S
C174 C173 1.348 . S
C174 C175 1.442 1_554 S
C174 H196 0.930 . S
C175 C174 1.442 1_556 S
C175 C176 1.381 . S
C175 H197 0.931 . S
C176 C175 1.381 . S
C176 C177 1.321 . S
C177 C176 1.321 . S
C177 C178 1.403 1_556 S
C177 H198 0.934 . S
C178 C173 1.413 . S
C178 C177 1.403 1_554 S
C178 H199 0.930 . S
C179 O190 1.275 . S
C179 O191 1.256 . S
O180 Ho160 2.322 . S
O180 C162 1.259 . S
O181 Ho161 2.346 . S
O181 C162 1.268 . S
O182 Ho160 2.378 . S
O182 C163 1.215 . S
O183 Ho160 2.524 . S
O183 C163 1.289 . S
O184 Ho160 2.381 . S
O184 C170 1.275 . S
O185 Ho160 2.669 . S
O185 Ho161 2.305 . S
O185 C170 1.256 . S
O186 Ho161 2.322 . S
O186 C171 1.259 . S
O187 Ho160 2.346 . S
O187 C171 1.268 . S
O188 Ho161 2.378 . S
O188 C172 1.215 . S
O189 Ho161 2.524 . S
O189 C172 1.289 . S
O190 Ho161 2.381 . S
O190 C179 1.275 . S
O191 Ho160 2.305 . S
O191 Ho161 2.669 . S
O191 C179 1.256 . S
H192 C165 0.930 . S
H193 C166 0.931 . S
H194 C168 0.934 . S
H195 C169 0.930 . S
H196 C174 0.930 . S
H197 C175 0.931 . S
H198 C177 0.934 . S
H199 C178 0.930 . S
Ho200 C203 2.811 . S
Ho200 O220 2.322 . S
Ho200 O222 2.378 . S
Ho200 O223 2.524 . S
Ho200 O224 2.381 . S
Ho200 O225 2.669 . S
Ho200 O227 2.346 . S
Ho200 O231 2.305 . S
Ho201 C212 2.811 . S
Ho201 O221 2.346 . S
Ho201 O225 2.305 . S
Ho201 O226 2.322 . S
Ho201 O228 2.378 . S
Ho201 O229 2.524 . S
Ho201 O230 2.381 . S
Ho201 O231 2.669 . S
C202 O220 1.259 . S
C202 O221 1.268 . S
C203 Ho200 2.811 . S
C203 C204 1.488 . S
C203 O222 1.215 . S
C203 O223 1.289 . S
C204 C203 1.488 . S
C204 C205 1.348 . S
C204 C209 1.413 . S
C205 C204 1.348 . S
C205 C206 1.442 . S
C205 H232 0.930 . S
C206 C205 1.442 . S
C206 C207 1.381 . S
C206 H233 0.931 . S
C207 C206 1.381 . S
C207 C208 1.321 . S
C208 C207 1.321 . S
C208 C209 1.403 . S
C208 H234 0.934 . S
C209 C204 1.413 . S
C209 C208 1.403 . S
C209 H235 0.930 . S
C210 O224 1.275 . S
C210 O225 1.256 . S
C211 O226 1.259 . S
C211 O227 1.268 . S
C212 Ho201 2.811 . S
C212 C213 1.488 . S
C212 O228 1.215 . S
C212 O229 1.289 . S
C213 C212 1.488 . S
C213 C214 1.348 . S
C213 C218 1.413 . S
C214 C213 1.348 . S
C214 C215 1.442 1_556 S
C214 H236 0.930 . S
C215 C214 1.442 1_554 S
C215 C216 1.381 . S
C215 H237 0.931 . S
C216 C215 1.381 . S
C216 C217 1.321 . S
C217 C216 1.321 . S
C217 C218 1.403 1_554 S
C217 H238 0.934 . S
C218 C213 1.413 . S
C218 C217 1.403 1_556 S
C218 H239 0.930 . S
C219 O230 1.275 . S
C219 O231 1.256 . S
O220 Ho200 2.322 . S
O220 C202 1.259 . S
O221 Ho201 2.346 . S
O221 C202 1.268 . S
O222 Ho200 2.378 . S
O222 C203 1.215 . S
O223 Ho200 2.524 . S
O223 C203 1.289 . S
O224 Ho200 2.381 . S
O224 C210 1.275 . S
O225 Ho200 2.669 . S
O225 Ho201 2.305 . S
O225 C210 1.256 . S
O226 Ho201 2.322 . S
O226 C211 1.259 . S
O227 Ho200 2.346 . S
O227 C211 1.268 . S
O228 Ho201 2.378 . S
O228 C212 1.215 . S
O229 Ho201 2.524 . S
O229 C212 1.289 . S
O230 Ho201 2.381 . S
O230 C219 1.275 . S
O231 Ho200 2.305 . S
O231 Ho201 2.669 . S
O231 C219 1.256 . S
H232 C205 0.930 . S
H233 C206 0.931 . S
H234 C208 0.934 . S
H235 C209 0.930 . S
H236 C214 0.930 . S
H237 C215 0.931 . S
H238 C217 0.934 . S
H239 C218 0.930 . S
Ho240 C243 2.811 . S
Ho240 O260 2.322 . S
Ho240 O262 2.378 . S
Ho240 O263 2.524 . S
Ho240 O264 2.381 . S
Ho240 O265 2.669 1_556 S
Ho240 O267 2.346 1_556 S
Ho240 O271 2.305 . S
Ho241 C252 2.811 . S
Ho241 O261 2.346 1_554 S
Ho241 O265 2.305 . S
Ho241 O266 2.322 . S
Ho241 O268 2.378 . S
Ho241 O269 2.524 . S
Ho241 O270 2.381 . S
Ho241 O271 2.669 1_554 S
C242 O260 1.259 . S
C242 O261 1.268 . S
C243 Ho240 2.811 . S
C243 C244 1.488 . S
C243 O262 1.215 . S
C243 O263 1.289 . S
C244 C243 1.488 . S
C244 C245 1.348 . S
C244 C249 1.413 . S
C245 C244 1.348 . S
C245 C246 1.442 . S
C245 H272 0.930 . S
C246 C245 1.442 . S
C246 C247 1.381 . S
C246 H273 0.931 . S
C247 C246 1.381 . S
C247 C248 1.321 . S
C248 C247 1.321 . S
C248 C249 1.403 . S
C248 H274 0.934 . S
C249 C244 1.413 . S
C249 C248 1.403 . S
C249 H275 0.930 . S
C250 O264 1.275 1_554 S
C250 O265 1.256 . S
C251 O266 1.259 . S
C251 O267 1.268 . S
C252 Ho241 2.811 . S
C252 C253 1.488 . S
C252 O268 1.215 . S
C252 O269 1.289 . S
C253 C252 1.488 . S
C253 C254 1.348 . S
C253 C258 1.413 . S
C254 C253 1.348 . S
C254 C255 1.442 . S
C254 H276 0.930 . S
C255 C254 1.442 . S
C255 C256 1.381 . S
C255 H277 0.931 . S
C256 C255 1.381 . S
C256 C257 1.321 . S
C257 C256 1.321 . S
C257 C258 1.403 . S
C257 H278 0.934 . S
C258 C253 1.413 . S
C258 C257 1.403 . S
C258 H279 0.930 . S
C259 O270 1.275 1_556 S
C259 O271 1.256 . S
O260 Ho240 2.322 . S
O260 C242 1.259 . S
O261 Ho241 2.346 1_556 S
O261 C242 1.268 . S
O262 Ho240 2.378 . S
O262 C243 1.215 . S
O263 Ho240 2.524 . S
O263 C243 1.289 . S
O264 Ho240 2.381 . S
O264 C250 1.275 1_556 S
O265 Ho240 2.669 1_554 S
O265 Ho241 2.305 . S
O265 C250 1.256 . S
O266 Ho241 2.322 . S
O266 C251 1.259 . S
O267 Ho240 2.346 1_554 S
O267 C251 1.268 . S
O268 Ho241 2.378 . S
O268 C252 1.215 . S
O269 Ho241 2.524 . S
O269 C252 1.289 . S
O270 Ho241 2.381 . S
O270 C259 1.275 1_554 S
O271 Ho240 2.305 . S
O271 Ho241 2.669 1_556 S
O271 C259 1.256 . S
H272 C245 0.930 . S
H273 C246 0.931 . S
H274 C248 0.934 . S
H275 C249 0.930 . S
H276 C254 0.930 . S
H277 C255 0.931 . S
H278 C257 0.934 . S
H279 C258 0.930 . S
Ho280 C283 2.811 1_455 S
Ho280 O300 2.322 1_455 S
Ho280 O302 2.378 1_455 S
Ho280 O303 2.524 . S
Ho280 O304 2.381 1_455 S
Ho280 O305 2.669 1_455 S
Ho280 O307 2.346 . S
Ho280 O311 2.305 . S
Ho281 C292 2.811 1_655 S
Ho281 O301 2.346 . S
Ho281 O305 2.305 . S
Ho281 O306 2.322 1_655 S
Ho281 O308 2.378 1_655 S
Ho281 O309 2.524 . S
Ho281 O310 2.381 1_655 S
Ho281 O311 2.669 1_655 S
C282 O300 1.259 . S
C282 O301 1.268 . S
C283 Ho280 2.811 1_655 S
C283 C284 1.488 . S
C283 O302 1.215 . S
C283 O303 1.289 1_655 S
C284 C283 1.488 . S
C284 C285 1.348 . S
C284 C289 1.413 . S
C285 C284 1.348 . S
C285 C286 1.442 . S
C285 H312 0.930 1_655 S
C286 C285 1.442 . S
C286 C287 1.381 . S
C286 H313 0.931 . S
C287 C286 1.381 . S
C287 C288 1.321 . S
C288 C287 1.321 . S
C288 C289 1.403 . S
C288 H314 0.934 . S
C289 C284 1.413 . S
C289 C288 1.403 . S
C289 H315 0.930 . S
C290 O304 1.275 . S
C290 O305 1.256 . S
C291 O306 1.259 . S
C291 O307 1.268 . S
C292 Ho281 2.811 1_455 S
C292 C293 1.488 . S
C292 O308 1.215 . S
C292 O309 1.289 1_455 S
C293 C292 1.488 . S
C293 C294 1.348 . S
C293 C298 1.413 . S
C294 C293 1.348 . S
C294 C295 1.442 . S
C294 H316 0.930 1_455 S
C295 C294 1.442 . S
C295 C296 1.381 . S
C295 H317 0.931 . S
C296 C295 1.381 . S
C296 C297 1.321 . S
C297 C296 1.321 . S
C297 C298 1.403 . S
C297 H318 0.934 . S
C298 C293 1.413 . S
C298 C297 1.403 . S
C298 H319 0.930 . S
C299 O310 1.275 . S
C299 O311 1.256 . S
O300 Ho280 2.322 1_655 S
O300 C282 1.259 . S
O301 Ho281 2.346 . S
O301 C282 1.268 . S
O302 Ho280 2.378 1_655 S
O302 C283 1.215 . S
O303 Ho280 2.524 . S
O303 C283 1.289 1_455 S
O304 Ho280 2.381 1_655 S
O304 C290 1.275 . S
O305 Ho280 2.669 1_655 S
O305 Ho281 2.305 . S
O305 C290 1.256 . S
O306 Ho281 2.322 1_455 S
O306 C291 1.259 . S
O307 Ho280 2.346 . S
O307 C291 1.268 . S
O308 Ho281 2.378 1_455 S
O308 C292 1.215 . S
O309 Ho281 2.524 . S
O309 C292 1.289 1_655 S
O310 Ho281 2.381 1_455 S
O310 C299 1.275 . S
O311 Ho280 2.305 . S
O311 Ho281 2.669 1_455 S
O311 C299 1.256 . S
H312 C285 0.930 1_455 S
H313 C286 0.931 . S
H314 C288 0.934 . S
H315 C289 0.930 . S
H316 C294 0.930 1_655 S
H317 C295 0.931 . S
H318 C297 0.934 . S
H319 C298 0.930 . S
H320 C332 0.930 . S
H321 C334 0.930 . S
H322 C335 0.930 . S
H323 C339 0.959 . S
H324 C339 0.959 . S
H325 C339 0.961 . S
H326 C340 0.960 . S
H327 C340 0.961 . S
H328 C340 0.959 . S
H329 C343 0.929 . S
H330 C344 0.931 . S
H331 C346 0.930 . S
C332 H320 0.930 . S
C332 C333 1.399 . S
C332 C337 1.399 . S
C333 C332 1.399 . S
C333 C334 1.376 . S
C334 H321 0.930 . S
C334 C333 1.376 . S
C334 C335 1.388 . S
C335 H322 0.930 . S
C335 C334 1.388 . S
C335 C336 1.390 . S
C336 C335 1.390 . S
C336 C337 1.394 . S
C336 C342 1.465 . S
C337 C332 1.399 . S
C337 C336 1.394 . S
C337 C338 1.516 . S
C338 C337 1.516 . S
C338 C339 1.502 . S
C338 C340 1.561 . S
C338 C341 1.526 . S
C339 H323 0.959 . S
C339 H324 0.959 . S
C339 H325 0.961 . S
C339 C338 1.502 . S
C340 H326 0.960 . S
C340 H327 0.961 . S
C340 H328 0.959 . S
C340 C338 1.561 . S
C341 C338 1.526 . S
C341 C342 1.396 . S
C341 C346 1.390 . S
C342 C336 1.465 . S
C342 C341 1.396 . S
C342 C343 1.399 . S
C343 H329 0.929 . S
C343 C342 1.399 . S
C343 C344 1.385 . S
C344 H330 0.931 . S
C344 C343 1.385 . S
C344 C345 1.389 . S
C345 C344 1.389 . S
C345 C346 1.387 . S
C346 H331 0.930 . S
C346 C341 1.390 . S
C346 C345 1.387 . S
H347 C359 0.930 . S
H348 C361 0.930 . S
H349 C362 0.930 . S
H350 C366 0.959 . S
H351 C366 0.959 . S
H352 C366 0.961 . S
H353 C367 0.960 . S
H354 C367 0.961 . S
H355 C367 0.959 . S
H356 C370 0.929 . S
H357 C371 0.931 . S
H358 C373 0.930 . S
C359 H347 0.930 . S
C359 C360 1.399 . S
C359 C364 1.399 . S
C360 C359 1.399 . S
C360 C361 1.376 . S
C361 H348 0.930 . S
C361 C360 1.376 . S
C361 C362 1.388 . S
C362 H349 0.930 . S
C362 C361 1.388 . S
C362 C363 1.390 . S
C363 C362 1.390 . S
C363 C364 1.394 . S
C363 C369 1.465 . S
C364 C359 1.399 . S
C364 C363 1.394 . S
C364 C365 1.516 . S
C365 C364 1.516 . S
C365 C366 1.502 . S
C365 C367 1.561 . S
C365 C368 1.526 . S
C366 H350 0.959 . S
C366 H351 0.959 . S
C366 H352 0.961 . S
C366 C365 1.502 . S
C367 H353 0.960 . S
C367 H354 0.961 . S
C367 H355 0.959 . S
C367 C365 1.561 . S
C368 C365 1.526 . S
C368 C369 1.396 . S
C368 C373 1.390 . S
C369 C363 1.465 . S
C369 C368 1.396 . S
C369 C370 1.399 . S
C370 H356 0.929 . S
C370 C369 1.399 . S
C370 C371 1.385 . S
C371 H357 0.931 . S
C371 C370 1.385 . S
C371 C372 1.389 . S
C372 C371 1.389 . S
C372 C373 1.387 . S
C373 H358 0.930 . S
C373 C368 1.390 . S
C373 C372 1.387 . S
H374 C386 0.930 . S
H375 C388 0.930 . S
H376 C389 0.930 . S
H377 C393 0.959 . S
H378 C393 0.959 . S
H379 C393 0.961 . S
H380 C394 0.960 . S
H381 C394 0.961 . S
H382 C394 0.959 . S
H383 C397 0.929 . S
H384 C398 0.931 1_554 S
H385 C400 0.930 . S
C386 H374 0.930 . S
C386 C387 1.399 . S
C386 C391 1.399 . S
C387 C386 1.399 . S
C387 C388 1.376 . S
C388 H375 0.930 . S
C388 C387 1.376 . S
C388 C389 1.388 . S
C389 H376 0.930 . S
C389 C388 1.388 . S
C389 C390 1.390 . S
C390 C389 1.390 . S
C390 C391 1.394 . S
C390 C396 1.465 . S
C391 C386 1.399 . S
C391 C390 1.394 . S
C391 C392 1.516 . S
C392 C391 1.516 . S
C392 C393 1.502 . S
C392 C394 1.561 . S
C392 C395 1.526 . S
C393 H377 0.959 . S
C393 H378 0.959 . S
C393 H379 0.961 . S
C393 C392 1.502 . S
C394 H380 0.960 . S
C394 H381 0.961 . S
C394 H382 0.959 . S
C394 C392 1.561 . S
C395 C392 1.526 . S
C395 C396 1.396 . S
C395 C400 1.390 . S
C396 C390 1.465 . S
C396 C395 1.396 . S
C396 C397 1.399 . S
C397 H383 0.929 . S
C397 C396 1.399 . S
C397 C398 1.385 . S
C398 H384 0.931 1_556 S
C398 C397 1.385 . S
C398 C399 1.389 . S
C399 C398 1.389 . S
C399 C400 1.387 . S
C400 H385 0.930 . S
C400 C395 1.390 . S
C400 C399 1.387 . S
H401 C413 0.930 . S
H402 C415 0.930 . S
H403 C416 0.930 . S
H404 C420 0.959 . S
H405 C420 0.959 . S
H406 C420 0.961 . S
H407 C421 0.960 . S
H408 C421 0.961 . S
H409 C421 0.959 . S
H410 C424 0.929 . S
H411 C425 0.931 . S
H412 C427 0.930 . S
C413 H401 0.930 . S
C413 C414 1.399 . S
C413 C418 1.399 . S
C414 C413 1.399 . S
C414 C415 1.376 . S
C415 H402 0.930 . S
C415 C414 1.376 . S
C415 C416 1.388 . S
C416 H403 0.930 . S
C416 C415 1.388 . S
C416 C417 1.390 . S
C417 C416 1.390 . S
C417 C418 1.394 . S
C417 C423 1.465 . S
C418 C413 1.399 . S
C418 C417 1.394 . S
C418 C419 1.516 . S
C419 C418 1.516 . S
C419 C420 1.502 . S
C419 C421 1.561 . S
C419 C422 1.526 . S
C420 H404 0.959 . S
C420 H405 0.959 . S
C420 H406 0.961 . S
C420 C419 1.502 . S
C421 H407 0.960 . S
C421 H408 0.961 . S
C421 H409 0.959 . S
C421 C419 1.561 . S
C422 C419 1.526 . S
C422 C423 1.396 . S
C422 C427 1.390 . S
C423 C417 1.465 . S
C423 C422 1.396 . S
C423 C424 1.399 . S
C424 H410 0.929 . S
C424 C423 1.399 . S
C424 C425 1.385 . S
C425 H411 0.931 . S
C425 C424 1.385 . S
C425 C426 1.389 . S
C426 C425 1.389 . S
C426 C427 1.387 . S
C427 H412 0.930 . S
C427 C422 1.390 . S
C427 C426 1.387 . S
H428 C440 0.930 . S
H429 C442 0.930 . S
H430 C443 0.930 . S
H431 C447 0.959 . S
H432 C447 0.959 . S
H433 C447 0.961 . S
H434 C448 0.960 . S
H435 C448 0.961 . S
H436 C448 0.959 . S
H437 C451 0.929 . S
H438 C452 0.931 . S
H439 C454 0.930 . S
C440 H428 0.930 . S
C440 C441 1.399 . S
C440 C445 1.399 . S
C441 C440 1.399 . S
C441 C442 1.376 . S
C442 H429 0.930 . S
C442 C441 1.376 . S
C442 C443 1.388 . S
C443 H430 0.930 . S
C443 C442 1.388 . S
C443 C444 1.390 . S
C444 C443 1.390 . S
C444 C445 1.394 . S
C444 C450 1.465 . S
C445 C440 1.399 . S
C445 C444 1.394 . S
C445 C446 1.516 . S
C446 C445 1.516 . S
C446 C447 1.502 . S
C446 C448 1.561 . S
C446 C449 1.526 . S
C447 H431 0.959 . S
C447 H432 0.959 . S
C447 H433 0.961 . S
C447 C446 1.502 . S
C448 H434 0.960 . S
C448 H435 0.961 . S
C448 H436 0.959 . S
C448 C446 1.561 . S
C449 C446 1.526 . S
C449 C450 1.396 . S
C449 C454 1.390 . S
C450 C444 1.465 . S
C450 C449 1.396 . S
C450 C451 1.399 . S
C451 H437 0.929 . S
C451 C450 1.399 . S
C451 C452 1.385 . S
C452 H438 0.931 . S
C452 C451 1.385 . S
C452 C453 1.389 . S
C453 C452 1.389 . S
C453 C454 1.387 . S
C454 H439 0.930 . S
C454 C449 1.390 . S
C454 C453 1.387 . S
H455 C467 0.930 . S
H456 C469 0.930 . S
H457 C470 0.930 . S
H458 C474 0.959 . S
H459 C474 0.959 . S
H460 C474 0.961 . S
H461 C475 0.960 . S
H462 C475 0.961 . S
H463 C475 0.959 . S
H464 C478 0.929 . S
H465 C479 0.931 . S
H466 C481 0.930 . S
C467 H455 0.930 . S
C467 C468 1.399 . S
C467 C472 1.399 . S
C468 C467 1.399 . S
C468 C469 1.376 . S
C469 H456 0.930 . S
C469 C468 1.376 . S
C469 C470 1.388 . S
C470 H457 0.930 . S
C470 C469 1.388 . S
C470 C471 1.390 . S
C471 C470 1.390 . S
C471 C472 1.394 . S
C471 C477 1.465 . S
C472 C467 1.399 . S
C472 C471 1.394 . S
C472 C473 1.516 . S
C473 C472 1.516 . S
C473 C474 1.502 . S
C473 C475 1.561 . S
C473 C476 1.526 . S
C474 H458 0.959 . S
C474 H459 0.959 . S
C474 H460 0.961 . S
C474 C473 1.502 . S
C475 H461 0.960 . S
C475 H462 0.961 . S
C475 H463 0.959 . S
C475 C473 1.561 . S
C476 C473 1.526 . S
C476 C477 1.396 . S
C476 C481 1.390 . S
C477 C471 1.465 . S
C477 C476 1.396 . S
C477 C478 1.399 . S
C478 H464 0.929 . S
C478 C477 1.399 . S
C478 C479 1.385 . S
C479 H465 0.931 . S
C479 C478 1.385 . S
C479 C480 1.389 . S
C480 C479 1.389 . S
C480 C481 1.387 . S
C481 H466 0.930 . S
C481 C476 1.390 . S
C481 C480 1.387 . S
H482 C494 0.930 . S
H483 C496 0.930 . S
H484 C497 0.930 . S
H485 C501 0.959 . S
H486 C501 0.959 . S
H487 C501 0.961 . S
H488 C502 0.960 . S
H489 C502 0.961 . S
H490 C502 0.959 . S
H491 C505 0.929 . S
H492 C506 0.931 1_556 S
H493 C508 0.930 . S
C494 H482 0.930 . S
C494 C495 1.399 . S
C494 C499 1.399 . S
C495 C494 1.399 . S
C495 C496 1.376 . S
C496 H483 0.930 . S
C496 C495 1.376 . S
C496 C497 1.388 . S
C497 H484 0.930 . S
C497 C496 1.388 . S
C497 C498 1.390 . S
C498 C497 1.390 . S
C498 C499 1.394 . S
C498 C504 1.465 . S
C499 C494 1.399 . S
C499 C498 1.394 . S
C499 C500 1.516 . S
C500 C499 1.516 . S
C500 C501 1.502 . S
C500 C502 1.561 . S
C500 C503 1.526 . S
C501 H485 0.959 . S
C501 H486 0.959 . S
C501 H487 0.961 . S
C501 C500 1.502 . S
C502 H488 0.960 . S
C502 H489 0.961 . S
C502 H490 0.959 . S
C502 C500 1.561 . S
C503 C500 1.526 . S
C503 C504 1.396 . S
C503 C508 1.390 . S
C504 C498 1.465 . S
C504 C503 1.396 . S
C504 C505 1.399 . S
C505 H491 0.929 . S
C505 C504 1.399 . S
C505 C506 1.385 . S
C506 H492 0.931 1_554 S
C506 C505 1.385 . S
C506 C507 1.389 . S
C507 C506 1.389 . S
C507 C508 1.387 . S
C508 H493 0.930 . S
C508 C503 1.390 . S
C508 C507 1.387 . S
H509 C521 0.930 . S
H510 C523 0.930 . S
H511 C524 0.930 . S
H512 C528 0.959 . S
H513 C528 0.959 . S
H514 C528 0.961 . S
H515 C529 0.960 . S
H516 C529 0.961 . S
H517 C529 0.959 . S
H518 C532 0.929 . S
H519 C533 0.931 1_554 S
H520 C535 0.930 . S
C521 H509 0.930 . S
C521 C522 1.399 . S
C521 C526 1.399 . S
C522 C521 1.399 . S
C522 C523 1.376 . S
C523 H510 0.930 . S
C523 C522 1.376 . S
C523 C524 1.388 . S
C524 H511 0.930 . S
C524 C523 1.388 . S
C524 C525 1.390 . S
C525 C524 1.390 . S
C525 C526 1.394 . S
C525 C531 1.465 . S
C526 C521 1.399 . S
C526 C525 1.394 . S
C526 C527 1.516 . S
C527 C526 1.516 . S
C527 C528 1.502 . S
C527 C529 1.561 . S
C527 C530 1.526 . S
C528 H512 0.959 . S
C528 H513 0.959 . S
C528 H514 0.961 . S
C528 C527 1.502 . S
C529 H515 0.960 . S
C529 H516 0.961 . S
C529 H517 0.959 . S
C529 C527 1.561 . S
C530 C527 1.526 . S
C530 C531 1.396 . S
C530 C535 1.390 . S
C531 C525 1.465 . S
C531 C530 1.396 . S
C531 C532 1.399 . S
C532 H518 0.929 . S
C532 C531 1.399 . S
C532 C533 1.385 . S
C533 H519 0.931 1_556 S
C533 C532 1.385 . S
C533 C534 1.389 . S
C534 C533 1.389 . S
C534 C535 1.387 . S
C535 H520 0.930 . S
C535 C530 1.390 . S
C535 C534 1.387 . S
H536 C548 0.930 . S
H537 C550 0.930 . S
H538 C551 0.930 . S
H539 C555 0.959 . S
H540 C555 0.959 . S
H541 C555 0.961 . S
H542 C556 0.960 . S
H543 C556 0.961 . S
H544 C556 0.959 . S
H545 C559 0.929 . S
H546 C560 0.931 . S
H547 C562 0.930 . S
C548 H536 0.930 . S
C548 C549 1.399 . S
C548 C553 1.399 . S
C549 C548 1.399 . S
C549 C550 1.376 . S
C550 H537 0.930 . S
C550 C549 1.376 . S
C550 C551 1.388 . S
C551 H538 0.930 . S
C551 C550 1.388 . S
C551 C552 1.390 . S
C552 C551 1.390 . S
C552 C553 1.394 . S
C552 C558 1.465 . S
C553 C548 1.399 . S
C553 C552 1.394 . S
C553 C554 1.516 . S
C554 C553 1.516 . S
C554 C555 1.502 . S
C554 C556 1.561 . S
C554 C557 1.526 . S
C555 H539 0.959 . S
C555 H540 0.959 . S
C555 H541 0.961 . S
C555 C554 1.502 . S
C556 H542 0.960 . S
C556 H543 0.961 . S
C556 H544 0.959 . S
C556 C554 1.561 . S
C557 C554 1.526 . S
C557 C558 1.396 . S
C557 C562 1.390 . S
C558 C552 1.465 . S
C558 C557 1.396 . S
C558 C559 1.399 . S
C559 H545 0.929 . S
C559 C558 1.399 . S
C559 C560 1.385 . S
C560 H546 0.931 . S
C560 C559 1.385 . S
C560 C561 1.389 . S
C561 C560 1.389 . S
C561 C562 1.387 . S
C562 H547 0.930 . S
C562 C557 1.390 . S
C562 C561 1.387 . S
H563 C575 0.930 . S
H564 C577 0.930 . S
H565 C578 0.930 . S
H566 C582 0.959 . S
H567 C582 0.959 . S
H568 C582 0.961 . S
H569 C583 0.960 . S
H570 C583 0.961 . S
H571 C583 0.959 . S
H572 C586 0.929 . S
H573 C587 0.931 . S
H574 C589 0.930 . S
C575 H563 0.930 . S
C575 C576 1.399 . S
C575 C580 1.399 . S
C576 C575 1.399 . S
C576 C577 1.376 . S
C577 H564 0.930 . S
C577 C576 1.376 . S
C577 C578 1.388 . S
C578 H565 0.930 . S
C578 C577 1.388 . S
C578 C579 1.390 . S
C579 C578 1.390 . S
C579 C580 1.394 . S
C579 C585 1.465 . S
C580 C575 1.399 . S
C580 C579 1.394 . S
C580 C581 1.516 . S
C581 C580 1.516 . S
C581 C582 1.502 . S
C581 C583 1.561 . S
C581 C584 1.526 . S
C582 H566 0.959 . S
C582 H567 0.959 . S
C582 H568 0.961 . S
C582 C581 1.502 . S
C583 H569 0.960 . S
C583 H570 0.961 . S
C583 H571 0.959 . S
C583 C581 1.561 . S
C584 C581 1.526 . S
C584 C585 1.396 . S
C584 C589 1.390 . S
C585 C579 1.465 . S
C585 C584 1.396 . S
C585 C586 1.399 . S
C586 H572 0.929 . S
C586 C585 1.399 . S
C586 C587 1.385 . S
C587 H573 0.931 . S
C587 C586 1.385 . S
C587 C588 1.389 . S
C588 C587 1.389 . S
C588 C589 1.387 . S
C589 H574 0.930 . S
C589 C584 1.390 . S
C589 C588 1.387 . S
H590 C602 0.930 . S
H591 C604 0.930 . S
H592 C605 0.930 . S
H593 C609 0.959 . S
H594 C609 0.959 . S
H595 C609 0.961 . S
H596 C610 0.960 . S
H597 C610 0.961 . S
H598 C610 0.959 . S
H599 C613 0.929 . S
H600 C614 0.931 . S
H601 C616 0.930 . S
C602 H590 0.930 . S
C602 C603 1.399 . S
C602 C607 1.399 . S
C603 C602 1.399 . S
C603 C604 1.376 . S
C604 H591 0.930 . S
C604 C603 1.376 . S
C604 C605 1.388 . S
C605 H592 0.930 . S
C605 C604 1.388 . S
C605 C606 1.390 . S
C606 C605 1.390 . S
C606 C607 1.394 . S
C606 C612 1.465 . S
C607 C602 1.399 . S
C607 C606 1.394 . S
C607 C608 1.516 . S
C608 C607 1.516 . S
C608 C609 1.502 . S
C608 C610 1.561 . S
C608 C611 1.526 . S
C609 H593 0.959 . S
C609 H594 0.959 . S
C609 H595 0.961 . S
C609 C608 1.502 . S
C610 H596 0.960 . S
C610 H597 0.961 . S
C610 H598 0.959 . S
C610 C608 1.561 . S
C611 C608 1.526 . S
C611 C612 1.396 . S
C611 C616 1.390 . S
C612 C606 1.465 . S
C612 C611 1.396 . S
C612 C613 1.399 . S
C613 H599 0.929 . S
C613 C612 1.399 . S
C613 C614 1.385 . S
C614 H600 0.931 . S
C614 C613 1.385 . S
C614 C615 1.389 . S
C615 C614 1.389 . S
C615 C616 1.387 . S
C616 H601 0.930 . S
C616 C611 1.390 . S
C616 C615 1.387 . S
H617 C629 0.930 . S
H618 C631 0.930 . S
H619 C632 0.930 . S
H620 C636 0.959 . S
H621 C636 0.959 . S
H622 C636 0.961 . S
H623 C637 0.960 . S
H624 C637 0.961 . S
H625 C637 0.959 . S
H626 C640 0.929 . S
H627 C641 0.931 . S
H628 C643 0.930 . S
C629 H617 0.930 . S
C629 C630 1.399 . S
C629 C634 1.399 . S
C630 C629 1.399 . S
C630 C631 1.376 . S
C631 H618 0.930 . S
C631 C630 1.376 . S
C631 C632 1.388 . S
C632 H619 0.930 . S
C632 C631 1.388 . S
C632 C633 1.390 . S
C633 C632 1.390 . S
C633 C634 1.394 . S
C633 C639 1.465 . S
C634 C629 1.399 . S
C634 C633 1.394 . S
C634 C635 1.516 . S
C635 C634 1.516 . S
C635 C636 1.502 . S
C635 C637 1.561 . S
C635 C638 1.526 . S
C636 H620 0.959 . S
C636 H621 0.959 . S
C636 H622 0.961 . S
C636 C635 1.502 . S
C637 H623 0.960 . S
C637 H624 0.961 . S
C637 H625 0.959 . S
C637 C635 1.561 . S
C638 C635 1.526 . S
C638 C639 1.396 . S
C638 C643 1.390 . S
C639 C633 1.465 . S
C639 C638 1.396 . S
C639 C640 1.399 . S
C640 H626 0.929 . S
C640 C639 1.399 . S
C640 C641 1.385 . S
C641 H627 0.931 . S
C641 C640 1.385 . S
C641 C642 1.389 . S
C642 C641 1.389 . S
C642 C643 1.387 . S
C643 H628 0.930 . S
C643 C638 1.390 . S
C643 C642 1.387 . S
H644 C656 0.930 . S
H645 C658 0.930 . S
H646 C659 0.930 . S
H647 C663 0.959 . S
H648 C663 0.959 . S
H649 C663 0.961 . S
H650 C664 0.960 . S
H651 C664 0.961 . S
H652 C664 0.959 . S
H653 C667 0.929 . S
H654 C668 0.931 . S
H655 C670 0.930 . S
C656 H644 0.930 . S
C656 C657 1.399 . S
C656 C661 1.399 . S
C657 C656 1.399 . S
C657 C658 1.376 . S
C658 H645 0.930 . S
C658 C657 1.376 . S
C658 C659 1.388 . S
C659 H646 0.930 . S
C659 C658 1.388 . S
C659 C660 1.390 . S
C660 C659 1.390 . S
C660 C661 1.394 . S
C660 C666 1.465 . S
C661 C656 1.399 . S
C661 C660 1.394 . S
C661 C662 1.516 . S
C662 C661 1.516 . S
C662 C663 1.502 . S
C662 C664 1.561 . S
C662 C665 1.526 . S
C663 H647 0.959 . S
C663 H648 0.959 . S
C663 H649 0.961 . S
C663 C662 1.502 . S
C664 H650 0.960 . S
C664 H651 0.961 . S
C664 H652 0.959 . S
C664 C662 1.561 . S
C665 C662 1.526 . S
C665 C666 1.396 . S
C665 C670 1.390 . S
C666 C660 1.465 . S
C666 C665 1.396 . S
C666 C667 1.399 . S
C667 H653 0.929 . S
C667 C666 1.399 . S
C667 C668 1.385 . S
C668 H654 0.931 . S
C668 C667 1.385 . S
C668 C669 1.389 . S
C669 C668 1.389 . S
C669 C670 1.387 . S
C670 H655 0.930 . S
C670 C665 1.390 . S
C670 C669 1.387 . S
H671 C683 0.930 . S
H672 C685 0.930 . S
H673 C686 0.930 . S
H674 C690 0.959 . S
H675 C690 0.959 . S
H676 C690 0.961 . S
H677 C691 0.960 . S
H678 C691 0.961 . S
H679 C691 0.959 . S
H680 C694 0.929 . S
H681 C695 0.931 . S
H682 C697 0.930 . S
C683 H671 0.930 . S
C683 C684 1.399 . S
C683 C688 1.399 . S
C684 C683 1.399 . S
C684 C685 1.376 . S
C685 H672 0.930 . S
C685 C684 1.376 . S
C685 C686 1.388 . S
C686 H673 0.930 . S
C686 C685 1.388 . S
C686 C687 1.390 . S
C687 C686 1.390 . S
C687 C688 1.394 . S
C687 C693 1.465 . S
C688 C683 1.399 . S
C688 C687 1.394 . S
C688 C689 1.516 . S
C689 C688 1.516 . S
C689 C690 1.502 . S
C689 C691 1.561 . S
C689 C692 1.526 . S
C690 H674 0.959 . S
C690 H675 0.959 . S
C690 H676 0.961 . S
C690 C689 1.502 . S
C691 H677 0.960 . S
C691 H678 0.961 . S
C691 H679 0.959 . S
C691 C689 1.561 . S
C692 C689 1.526 . S
C692 C693 1.396 . S
C692 C697 1.390 . S
C693 C687 1.465 . S
C693 C692 1.396 . S
C693 C694 1.399 . S
C694 H680 0.929 . S
C694 C693 1.399 . S
C694 C695 1.385 . S
C695 H681 0.931 . S
C695 C694 1.385 . S
C695 C696 1.389 . S
C696 C695 1.389 . S
C696 C697 1.387 . S
C697 H682 0.930 . S
C697 C692 1.390 . S
C697 C696 1.387 . S
H698 C710 0.930 . S
H699 C712 0.930 . S
H700 C713 0.930 . S
H701 C717 0.959 . S
H702 C717 0.959 . S
H703 C717 0.961 . S
H704 C718 0.960 . S
H705 C718 0.961 . S
H706 C718 0.959 . S
H707 C721 0.929 . S
H708 C722 0.931 . S
H709 C724 0.930 . S
C710 H698 0.930 . S
C710 C711 1.399 . S
C710 C715 1.399 . S
C711 C710 1.399 . S
C711 C712 1.376 . S
C712 H699 0.930 . S
C712 C711 1.376 . S
C712 C713 1.388 . S
C713 H700 0.930 . S
C713 C712 1.388 . S
C713 C714 1.390 . S
C714 C713 1.390 . S
C714 C715 1.394 . S
C714 C720 1.465 . S
C715 C710 1.399 . S
C715 C714 1.394 . S
C715 C716 1.516 . S
C716 C715 1.516 . S
C716 C717 1.502 . S
C716 C718 1.561 . S
C716 C719 1.526 . S
C717 H701 0.959 . S
C717 H702 0.959 . S
C717 H703 0.961 . S
C717 C716 1.502 . S
C718 H704 0.960 . S
C718 H705 0.961 . S
C718 H706 0.959 . S
C718 C716 1.561 . S
C719 C716 1.526 . S
C719 C720 1.396 . S
C719 C724 1.390 . S
C720 C714 1.465 . S
C720 C719 1.396 . S
C720 C721 1.399 . S
C721 H707 0.929 . S
C721 C720 1.399 . S
C721 C722 1.385 . S
C722 H708 0.931 . S
C722 C721 1.385 . S
C722 C723 1.389 . S
C723 C722 1.389 . S
C723 C724 1.387 . S
C724 H709 0.930 . S
C724 C719 1.390 . S
C724 C723 1.387 . S
H725 C737 0.930 . S
H726 C739 0.930 . S
H727 C740 0.930 . S
H728 C744 0.959 . S
H729 C744 0.959 . S
H730 C744 0.961 . S
H731 C745 0.960 . S
H732 C745 0.961 . S
H733 C745 0.959 . S
H734 C748 0.929 . S
H735 C749 0.931 . S
H736 C751 0.930 . S
C737 H725 0.930 . S
C737 C738 1.399 . S
C737 C742 1.399 . S
C738 C737 1.399 . S
C738 C739 1.376 . S
C739 H726 0.930 . S
C739 C738 1.376 . S
C739 C740 1.388 . S
C740 H727 0.930 . S
C740 C739 1.388 . S
C740 C741 1.390 . S
C741 C740 1.390 . S
C741 C742 1.394 . S
C741 C747 1.465 . S
C742 C737 1.399 . S
C742 C741 1.394 . S
C742 C743 1.516 . S
C743 C742 1.516 . S
C743 C744 1.502 . S
C743 C745 1.561 . S
C743 C746 1.526 . S
C744 H728 0.959 . S
C744 H729 0.959 . S
C744 H730 0.961 . S
C744 C743 1.502 . S
C745 H731 0.960 . S
C745 H732 0.961 . S
C745 H733 0.959 . S
C745 C743 1.561 . S
C746 C743 1.526 . S
C746 C747 1.396 . S
C746 C751 1.390 . S
C747 C741 1.465 . S
C747 C746 1.396 . S
C747 C748 1.399 . S
C748 H734 0.929 . S
C748 C747 1.399 . S
C748 C749 1.385 . S
C749 H735 0.931 . S
C749 C748 1.385 . S
C749 C750 1.389 . S
C750 C749 1.389 . S
C750 C751 1.387 . S
C751 H736 0.930 . S
C751 C746 1.390 . S
C751 C750 1.387 . S
H752 C764 0.930 . S
H753 C766 0.930 . S
H754 C767 0.930 . S
H755 C771 0.962 . S
H756 C771 0.940 1_554 S
H757 C771 0.975 . S
H758 C772 0.960 1_556 S
H759 C772 0.961 . S
H760 C772 0.959 . S
H761 C775 0.929 . S
H762 C776 0.931 . S
H763 C778 0.930 . S
C764 H752 0.930 . S
C764 C765 1.399 1_545 S
C764 C769 1.399 . S
C765 C764 1.399 1_565 S
C765 C766 1.376 1_655 S
C766 H753 0.930 . S
C766 C765 1.376 1_455 S
C766 C767 1.388 . S
C767 H754 0.930 . S
C767 C766 1.388 . S
C767 C768 1.390 . S
C768 C767 1.390 . S
C768 C769 1.394 1_465 S
C768 C774 1.465 1_556 S
C769 C764 1.399 . S
C769 C768 1.394 1_645 S
C769 C770 1.516 1_556 S
C770 C769 1.516 1_554 S
C770 C771 1.505 1_554 S
C770 C772 1.561 1_545 S
C770 C773 1.526 . S
C771 H755 0.962 . S
C771 H756 0.940 1_556 S
C771 H757 0.975 . S
C771 C770 1.505 1_556 S
C772 H758 0.960 1_554 S
C772 H759 0.961 . S
C772 H760 0.959 . S
C772 C770 1.561 1_565 S
C773 C770 1.526 . S
C773 C774 1.396 1_645 S
C773 C778 1.390 . S
C774 C768 1.465 1_554 S
C774 C773 1.396 1_465 S
C774 C775 1.399 . S
C775 H761 0.929 . S
C775 C774 1.399 . S
C775 C776 1.385 . S
C776 H762 0.931 . S
C776 C775 1.385 . S
C776 C777 1.389 1_565 S
C777 C776 1.389 1_545 S
C777 C778 1.387 1_455 S
C778 H763 0.930 . S
C778 C773 1.390 . S
C778 C777 1.387 1_655 S
H779 C791 0.930 . S
H780 C793 0.930 . S
H781 C794 0.930 . S
H782 C798 0.959 . S
H783 C798 0.959 . S
H784 C798 0.961 . S
H785 C799 0.960 . S
H786 C799 0.961 . S
H787 C799 0.959 . S
H788 C802 0.929 . S
H789 C803 0.931 . S
H790 C805 0.930 . S
C791 H779 0.930 . S
C791 C792 1.399 . S
C791 C796 1.399 . S
C792 C791 1.399 . S
C792 C793 1.376 . S
C793 H780 0.930 . S
C793 C792 1.376 . S
C793 C794 1.388 . S
C794 H781 0.930 . S
C794 C793 1.388 . S
C794 C795 1.390 . S
C795 C794 1.390 . S
C795 C796 1.394 . S
C795 C801 1.465 . S
C796 C791 1.399 . S
C796 C795 1.394 . S
C796 C797 1.516 . S
C797 C796 1.516 . S
C797 C798 1.502 . S
C797 C799 1.561 . S
C797 C800 1.526 . S
C798 H782 0.959 . S
C798 H783 0.959 . S
C798 H784 0.961 . S
C798 C797 1.502 . S
C799 H785 0.960 . S
C799 H786 0.961 . S
C799 H787 0.959 . S
C799 C797 1.561 . S
C800 C797 1.526 . S
C800 C801 1.396 . S
C800 C805 1.390 . S
C801 C795 1.465 . S
C801 C800 1.396 . S
C801 C802 1.399 . S
C802 H788 0.929 . S
C802 C801 1.399 . S
C802 C803 1.385 . S
C803 H789 0.931 . S
C803 C802 1.385 . S
C803 C804 1.389 . S
C804 C803 1.389 . S
C804 C805 1.387 . S
C805 H790 0.930 . S
C805 C800 1.390 . S
C805 C804 1.387 . S
H806 C818 0.930 . S
H807 C820 0.930 . S
H808 C821 0.930 . S
H809 C825 0.959 . S
H810 C825 0.959 . S
H811 C825 0.961 . S
H812 C826 0.960 . S
H813 C826 0.961 . S
H814 C826 0.959 . S
H815 C829 0.929 . S
H816 C830 0.931 . S
H817 C832 0.930 . S
C818 H806 0.930 . S
C818 C819 1.399 1_565 S
C818 C823 1.399 . S
C819 C818 1.399 1_545 S
C819 C820 1.376 . S
C820 H807 0.930 . S
C820 C819 1.376 . S
C820 C821 1.388 . S
C821 H808 0.930 . S
C821 C820 1.388 . S
C821 C822 1.390 . S
C822 C821 1.390 . S
C822 C823 1.394 1_545 S
C822 C828 1.465 . S
C823 C818 1.399 . S
C823 C822 1.394 1_565 S
C823 C824 1.516 . S
C824 C823 1.516 . S
C824 C825 1.502 . S
C824 C826 1.561 . S
C824 C827 1.526 . S
C825 H809 0.959 . S
C825 H810 0.959 . S
C825 H811 0.961 . S
C825 C824 1.502 . S
C826 H812 0.960 . S
C826 H813 0.961 . S
C826 H814 0.959 . S
C826 C824 1.561 . S
C827 C824 1.526 . S
C827 C828 1.396 1_565 S
C827 C832 1.390 . S
C828 C822 1.465 . S
C828 C827 1.396 1_545 S
C828 C829 1.399 . S
C829 H815 0.929 . S
C829 C828 1.399 . S
C829 C830 1.385 . S
C830 H816 0.931 . S
C830 C829 1.385 . S
C830 C831 1.389 1_545 S
C831 C830 1.389 1_565 S
C831 C832 1.387 . S
C832 H817 0.930 . S
C832 C827 1.390 . S
C832 C831 1.387 . S
H833 C845 0.930 . S
H834 C847 0.930 . S
H835 C848 0.930 . S
H836 C852 0.959 . S
H837 C852 0.959 . S
H838 C852 0.961 . S
H839 C853 0.960 . S
H840 C853 0.961 . S
H841 C853 0.959 . S
H842 C856 0.929 . S
H843 C857 0.931 . S
H844 C859 0.930 . S
C845 H833 0.930 . S
C845 C846 1.399 . S
C845 C850 1.399 . S
C846 C845 1.399 . S
C846 C847 1.376 . S
C847 H834 0.930 . S
C847 C846 1.376 . S
C847 C848 1.388 . S
C848 H835 0.930 . S
C848 C847 1.388 . S
C848 C849 1.390 . S
C849 C848 1.390 . S
C849 C850 1.394 . S
C849 C855 1.465 . S
C850 C845 1.399 . S
C850 C849 1.394 . S
C850 C851 1.516 . S
C851 C850 1.516 . S
C851 C852 1.502 . S
C851 C853 1.561 . S
C851 C854 1.526 . S
C852 H836 0.959 . S
C852 H837 0.959 . S
C852 H838 0.961 . S
C852 C851 1.502 . S
C853 H839 0.960 . S
C853 H840 0.961 . S
C853 H841 0.959 . S
C853 C851 1.561 . S
C854 C851 1.526 . S
C854 C855 1.396 . S
C854 C859 1.390 . S
C855 C849 1.465 . S
C855 C854 1.396 . S
C855 C856 1.399 . S
C856 H842 0.929 . S
C856 C855 1.399 . S
C856 C857 1.385 . S
C857 H843 0.931 . S
C857 C856 1.385 . S
C857 C858 1.389 . S
C858 C857 1.389 . S
C858 C859 1.387 . S
C859 H844 0.930 . S
C859 C854 1.390 . S
C859 C858 1.387 . S
H860 C872 0.930 . S
H861 C874 0.930 . S
H862 C875 0.930 . S
H863 C879 0.959 . S
H864 C879 0.959 . S
H865 C879 0.961 . S
H866 C880 0.960 . S
H867 C880 0.961 . S
H868 C880 0.959 . S
H869 C883 0.929 . S
H870 C884 0.931 . S
H871 C886 0.930 . S
C872 H860 0.930 . S
C872 C873 1.399 . S
C872 C877 1.399 . S
C873 C872 1.399 . S
C873 C874 1.376 . S
C874 H861 0.930 . S
C874 C873 1.376 . S
C874 C875 1.388 . S
C875 H862 0.930 . S
C875 C874 1.388 . S
C875 C876 1.390 . S
C876 C875 1.390 . S
C876 C877 1.394 . S
C876 C882 1.465 . S
C877 C872 1.399 . S
C877 C876 1.394 . S
C877 C878 1.516 . S
C878 C877 1.516 . S
C878 C879 1.502 . S
C878 C880 1.561 . S
C878 C881 1.526 . S
C879 H863 0.959 . S
C879 H864 0.959 . S
C879 H865 0.961 . S
C879 C878 1.502 . S
C880 H866 0.960 . S
C880 H867 0.961 . S
C880 H868 0.959 . S
C880 C878 1.561 . S
C881 C878 1.526 . S
C881 C882 1.396 . S
C881 C886 1.390 . S
C882 C876 1.465 . S
C882 C881 1.396 . S
C882 C883 1.399 . S
C883 H869 0.929 . S
C883 C882 1.399 . S
C883 C884 1.385 . S
C884 H870 0.931 . S
C884 C883 1.385 . S
C884 C885 1.389 . S
C885 C884 1.389 . S
C885 C886 1.387 . S
C886 H871 0.930 . S
C886 C881 1.390 . S
C886 C885 1.387 . S
H887 C899 0.930 . S
H888 C901 0.930 . S
H889 C902 0.930 . S
H890 C906 0.959 . S
H891 C906 0.959 . S
H892 C906 0.961 . S
H893 C907 0.960 . S
H894 C907 0.961 . S
H895 C907 0.959 . S
H896 C910 0.929 . S
H897 C911 0.931 . S
H898 C913 0.930 . S
C899 H887 0.930 . S
C899 C900 1.399 . S
C899 C904 1.399 . S
C900 C899 1.399 . S
C900 C901 1.376 . S
C901 H888 0.930 . S
C901 C900 1.376 . S
C901 C902 1.388 . S
C902 H889 0.930 . S
C902 C901 1.388 . S
C902 C903 1.390 . S
C903 C902 1.390 . S
C903 C904 1.394 . S
C903 C909 1.465 . S
C904 C899 1.399 . S
C904 C903 1.394 . S
C904 C905 1.516 . S
C905 C904 1.516 . S
C905 C906 1.502 . S
C905 C907 1.561 . S
C905 C908 1.526 . S
C906 H890 0.959 . S
C906 H891 0.959 . S
C906 H892 0.961 . S
C906 C905 1.502 . S
C907 H893 0.960 . S
C907 H894 0.961 . S
C907 H895 0.959 . S
C907 C905 1.561 . S
C908 C905 1.526 . S
C908 C909 1.396 . S
C908 C913 1.390 . S
C909 C903 1.465 . S
C909 C908 1.396 . S
C909 C910 1.399 . S
C910 H896 0.929 . S
C910 C909 1.399 . S
C910 C911 1.385 . S
C911 H897 0.931 . S
C911 C910 1.385 . S
C911 C912 1.389 . S
C912 C911 1.389 . S
C912 C913 1.387 . S
C913 H898 0.930 . S
C913 C908 1.390 . S
C913 C912 1.387 . S
H914 C926 0.930 . S
H915 C928 0.930 . S
H916 C929 0.930 . S
H917 C933 0.959 . S
H918 C933 0.959 . S
H919 C933 0.961 . S
H920 C934 0.960 . S
H921 C934 0.961 . S
H922 C934 0.959 . S
H923 C937 0.929 . S
H924 C938 0.931 . S
H925 C940 0.930 . S
C926 H914 0.930 . S
C926 C927 1.399 . S
C926 C931 1.399 . S
C927 C926 1.399 . S
C927 C928 1.376 . S
C928 H915 0.930 . S
C928 C927 1.376 . S
C928 C929 1.388 . S
C929 H916 0.930 . S
C929 C928 1.388 . S
C929 C930 1.390 . S
C930 C929 1.390 . S
C930 C931 1.394 . S
C930 C936 1.465 . S
C931 C926 1.399 . S
C931 C930 1.394 . S
C931 C932 1.516 . S
C932 C931 1.516 . S
C932 C933 1.502 . S
C932 C934 1.561 . S
C932 C935 1.526 . S
C933 H917 0.959 . S
C933 H918 0.959 . S
C933 H919 0.961 . S
C933 C932 1.502 . S
C934 H920 0.960 . S
C934 H921 0.961 . S
C934 H922 0.959 . S
C934 C932 1.561 . S
C935 C932 1.526 . S
C935 C936 1.396 . S
C935 C940 1.390 . S
C936 C930 1.465 . S
C936 C935 1.396 . S
C936 C937 1.399 . S
C937 H923 0.929 . S
C937 C936 1.399 . S
C937 C938 1.385 . S
C938 H924 0.931 . S
C938 C937 1.385 . S
C938 C939 1.389 . S
C939 C938 1.389 . S
C939 C940 1.387 . S
C940 H925 0.930 . S
C940 C935 1.390 . S
C940 C939 1.387 . S
H941 C953 0.930 1_455 S
H942 C955 0.930 . S
H943 C956 0.930 . S
H944 C960 0.959 . S
H945 C960 0.959 . S
H946 C960 0.961 . S
H947 C961 0.960 . S
H948 C961 0.961 . S
H949 C961 0.959 1_655 S
H950 C964 0.929 . S
H951 C965 0.931 . S
H952 C967 0.930 . S
C953 H941 0.930 1_655 S
C953 C954 1.399 . S
C953 C958 1.399 1_655 S
C954 C953 1.399 . S
C954 C955 1.376 . S
C955 H942 0.930 . S
C955 C954 1.376 . S
C955 C956 1.388 . S
C956 H943 0.930 . S
C956 C955 1.388 . S
C956 C957 1.390 . S
C957 C956 1.390 . S
C957 C958 1.394 1_655 S
C957 C963 1.465 1_556 S
C958 C953 1.399 1_455 S
C958 C957 1.394 1_455 S
C958 C959 1.516 . S
C959 C958 1.516 . S
C959 C960 1.502 . S
C959 C961 1.561 . S
C959 C962 1.526 1_556 S
C960 H944 0.959 . S
C960 H945 0.959 . S
C960 H946 0.961 . S
C960 C959 1.502 . S
C961 H947 0.960 . S
C961 H948 0.961 . S
C961 H949 0.959 1_455 S
C961 C959 1.561 . S
C962 C959 1.526 1_554 S
C962 C963 1.396 1_455 S
C962 C967 1.390 . S
C963 C957 1.465 1_554 S
C963 C962 1.396 1_655 S
C963 C964 1.399 . S
C964 H950 0.929 . S
C964 C963 1.399 . S
C964 C965 1.385 . S
C965 H951 0.931 . S
C965 C964 1.385 . S
C965 C966 1.389 1_655 S
C966 C965 1.389 1_455 S
C966 C967 1.387 . S
C967 H952 0.930 . S
C967 C962 1.390 . S
C967 C966 1.387 . S
C333 C2 1.518 . S
C345 C130 1.512 . S
C360 C10 0.847 . S
C372 C50 0.915 . S
C387 C42 1.517 . S
C399 C90 1.519 . S
C414 C82 2.050 . S
C426 C122 2.039 . S
C441 C11 1.530 . S
C453 C219 1.517 . S
C468 C19 0.853 . S
C480 C179 0.859 . S
C495 C171 1.537 . S
C507 C99 1.486 . S
C522 C211 2.057 . S
C534 C91 2.048 . S
C549 C242 1.537 . S
C561 C210 1.495 . S
C576 C170 0.910 . S
C588 C250 0.905 . S
C603 C290 1.510 . S
C615 C162 1.523 . S
C630 C202 2.046 . S
C642 C282 2.056 . S
C657 C139 1.514 . S
C669 C251 1.512 . S
C684 C259 0.876 . S
C696 C59 0.847 . S
C711 C51 1.539 . S
C723 C299 1.489 . S
C738 C131 2.040 . S
C750 C291 2.049 . S
C765 C16 1.420 . S
C777 C7 1.461 . S
C792 C56 1.428 . S
C804 C47 1.459 . S
C819 C96 1.611 . S
C831 C87 1.594 . S
C846 C127 1.592 . S
C858 C136 1.612 . S
C873 C176 1.447 . S
C885 C167 1.425 . S
C900 C207 1.604 . S
C912 C216 1.620 . S
C927 C247 1.469 . S
C939 C256 1.410 . S
C954 C287 1.638 . S
C966 C296 1.575 . S
