# Generated by pormake.
# Topology vbk, (5)-cn, num edge types: 1
# Building blocks:
#     Node 0, Type 0, BuildingBlock: XOMCOT_clean_sbu_0, # of connection points: 5
#     Node 1, Type 0, BuildingBlock: XOMCOT_clean_sbu_0, # of connection points: 5
#     Node 2, Type 0, BuildingBlock: XOMCOT_clean_sbu_0, # of connection points: 5
#     Node 3, Type 0, BuildingBlock: XOMCOT_clean_sbu_0, # of connection points: 5
#     Node 4, Type 0, BuildingBlock: XOMCOT_clean_sbu_0, # of connection points: 5
#     Node 5, Type 0, BuildingBlock: XOMCOT_clean_sbu_0, # of connection points: 5
#     Node 6, Type 0, BuildingBlock: XOMCOT_clean_sbu_0, # of connection points: 5
#     Node 7, Type 0, BuildingBlock: XOMCOT_clean_sbu_0, # of connection points: 5
#     Node 8, Type 0, BuildingBlock: XOMCOT_clean_sbu_0, # of connection points: 5
#     Node 9, Type 0, BuildingBlock: XOMCOT_clean_sbu_0, # of connection points: 5
#     Node 10, Type 0, BuildingBlock: XOMCOT_clean_sbu_0, # of connection points: 5
#     Node 11, Type 0, BuildingBlock: XOMCOT_clean_sbu_0, # of connection points: 5
#     Node 12, Type 0, BuildingBlock: XOMCOT_clean_sbu_0, # of connection points: 5
#     Node 13, Type 0, BuildingBlock: XOMCOT_clean_sbu_0, # of connection points: 5
#     Node 14, Type 0, BuildingBlock: XOMCOT_clean_sbu_0, # of connection points: 5
#     Node 15, Type 0, BuildingBlock: XOMCOT_clean_sbu_0, # of connection points: 5
#     Edge 16, Type (0, 0), BuildingBlock: AJUNOK_clean_linker_0, # of connection points: 2
#     Edge 17, Type (0, 0), BuildingBlock: AJUNOK_clean_linker_0, # of connection points: 2
#     Edge 18, Type (0, 0), BuildingBlock: AJUNOK_clean_linker_0, # of connection points: 2
#     Edge 19, Type (0, 0), BuildingBlock: AJUNOK_clean_linker_0, # of connection points: 2
#     Edge 20, Type (0, 0), BuildingBlock: AJUNOK_clean_linker_0, # of connection points: 2
#     Edge 21, Type (0, 0), BuildingBlock: AJUNOK_clean_linker_0, # of connection points: 2
#     Edge 22, Type (0, 0), BuildingBlock: AJUNOK_clean_linker_0, # of connection points: 2
#     Edge 23, Type (0, 0), BuildingBlock: AJUNOK_clean_linker_0, # of connection points: 2
#     Edge 24, Type (0, 0), BuildingBlock: AJUNOK_clean_linker_0, # of connection points: 2
#     Edge 25, Type (0, 0), BuildingBlock: AJUNOK_clean_linker_0, # of connection points: 2
#     Edge 26, Type (0, 0), BuildingBlock: AJUNOK_clean_linker_0, # of connection points: 2
#     Edge 27, Type (0, 0), BuildingBlock: AJUNOK_clean_linker_0, # of connection points: 2
#     Edge 28, Type (0, 0), BuildingBlock: AJUNOK_clean_linker_0, # of connection points: 2
#     Edge 29, Type (0, 0), BuildingBlock: AJUNOK_clean_linker_0, # of connection points: 2
#     Edge 30, Type (0, 0), BuildingBlock: AJUNOK_clean_linker_0, # of connection points: 2
#     Edge 31, Type (0, 0), BuildingBlock: AJUNOK_clean_linker_0, # of connection points: 2
#     Edge 32, Type (0, 0), BuildingBlock: AJUNOK_clean_linker_0, # of connection points: 2
#     Edge 33, Type (0, 0), BuildingBlock: AJUNOK_clean_linker_0, # of connection points: 2
#     Edge 34, Type (0, 0), BuildingBlock: AJUNOK_clean_linker_0, # of connection points: 2
#     Edge 35, Type (0, 0), BuildingBlock: AJUNOK_clean_linker_0, # of connection points: 2
#     Edge 36, Type (0, 0), BuildingBlock: AJUNOK_clean_linker_0, # of connection points: 2
#     Edge 37, Type (0, 0), BuildingBlock: AJUNOK_clean_linker_0, # of connection points: 2
#     Edge 38, Type (0, 0), BuildingBlock: AJUNOK_clean_linker_0, # of connection points: 2
#     Edge 39, Type (0, 0), BuildingBlock: AJUNOK_clean_linker_0, # of connection points: 2
#     Edge 40, Type (0, 0), BuildingBlock: AJUNOK_clean_linker_0, # of connection points: 2
#     Edge 41, Type (0, 0), BuildingBlock: AJUNOK_clean_linker_0, # of connection points: 2
#     Edge 42, Type (0, 0), BuildingBlock: AJUNOK_clean_linker_0, # of connection points: 2
#     Edge 43, Type (0, 0), BuildingBlock: AJUNOK_clean_linker_0, # of connection points: 2
#     Edge 44, Type (0, 0), BuildingBlock: AJUNOK_clean_linker_0, # of connection points: 2
#     Edge 45, Type (0, 0), BuildingBlock: AJUNOK_clean_linker_0, # of connection points: 2
#     Edge 46, Type (0, 0), BuildingBlock: AJUNOK_clean_linker_0, # of connection points: 2
#     Edge 47, Type (0, 0), BuildingBlock: AJUNOK_clean_linker_0, # of connection points: 2
#     Edge 48, Type (0, 0), BuildingBlock: AJUNOK_clean_linker_0, # of connection points: 2
#     Edge 49, Type (0, 0), BuildingBlock: AJUNOK_clean_linker_0, # of connection points: 2
#     Edge 50, Type (0, 0), BuildingBlock: AJUNOK_clean_linker_0, # of connection points: 2
#     Edge 51, Type (0, 0), BuildingBlock: AJUNOK_clean_linker_0, # of connection points: 2
#     Edge 52, Type (0, 0), BuildingBlock: AJUNOK_clean_linker_0, # of connection points: 2
#     Edge 53, Type (0, 0), BuildingBlock: AJUNOK_clean_linker_0, # of connection points: 2
#     Edge 54, Type (0, 0), BuildingBlock: AJUNOK_clean_linker_0, # of connection points: 2
#     Edge 55, Type (0, 0), BuildingBlock: AJUNOK_clean_linker_0, # of connection points: 2
# Relax obj value: 0.113
# Max RMSD: 0.183
# Mean RMSD: 0.183
data_MOF--net-vbk--node1-XOMCOT_clean_sbu_0--edge1-AJUNOK_clean_linker_0
_symmetry_space_group_name_H-M    P1
_symmetry_Int_Tables_number       1
_symmetry_cell_setting            triclinic
loop_
_symmetry_equiv_pos_as_xyz
'x, y, z'
_cell_length_a     51.746996
_cell_length_b     36.827041
_cell_length_c     19.205063
_cell_angle_alpha  90.206209
_cell_angle_beta   90.263206
_cell_angle_gamma 89.410514
loop_
_atom_site_label
_atom_site_type_symbol
_atom_site_fract_x
_atom_site_fract_y
_atom_site_fract_z
_atom_type_partial_charge
Co0 Co 0.15729 0.13782 0.11239 0.0
C1 C 0.0998 0.12713 0.08411 0.0
C2 C 0.10758 0.15998 0.17403 0.0
C3 C 0.0815 0.15571 0.16899 0.0
N4 N 0.11951 0.14224 0.12111 0.0
N5 N 0.0765 0.13505 0.11308 0.0
H6 H 0.10231 0.11054 0.03799 0.0
H7 H 0.11675 0.1756 0.21444 0.0
C8 C 0.17367 0.18896 0.22567 0.0
O9 O 0.1888 0.20438 0.17988 0.0
N10 N 0.19524 0.13234 0.1093 0.0
C11 C 0.21102 0.12482 0.05508 0.0
C12 C 0.23628 0.12281 0.07858 0.0
C13 C 0.2113 0.13186 0.16542 0.0
N14 N 0.23644 0.12784 0.14812 0.0
C15 C 0.16787 0.18357 0.99766 0.0
C16 C 0.14318 0.24608 0.04234 0.0
C17 C 0.1538 0.24508 0.9752 0.0
C18 C 0.16621 0.21322 0.95346 0.0
C19 C 0.14546 0.21543 0.08576 0.0
N20 N 0.15802 0.18457 0.06347 0.0
H21 H 0.17573 0.15897 0.97631 0.0
H22 H 0.13668 0.21658 0.13647 0.0
H23 H 0.20491 0.11941 1.00232 0.0
H24 H 0.20487 0.13406 0.21863 0.0
O25 O 0.15372 0.10863 1.03016 0.0
O26 O 0.15562 0.08615 0.13637 0.0
O27 O 0.16066 0.16101 0.20803 0.0
C28 C 0.15407 0.08019 0.06922 0.0
H29 H 0.06709 0.16707 0.20377 0.0
H30 H 0.25307 0.1169 0.04699 0.0
H31 H 0.13293 0.27003 0.06064 0.0
H32 H 0.17356 0.21046 0.90093 0.0
Co33 Co 0.4034 0.87057 0.57814 0.0
C34 C 0.46155 0.86338 0.55355 0.0
C35 C 0.44995 0.9163 0.58813 0.0
C36 C 0.47629 0.91579 0.58093 0.0
N37 N 0.44028 0.88344 0.57098 0.0
N38 N 0.4837 0.88248 0.55979 0.0
H39 H 0.46119 0.83513 0.53853 0.0
H40 H 0.43901 0.93928 0.60745 0.0
C41 C 0.42555 0.82548 0.6933 0.0
O42 O 0.4426 0.81275 0.64916 0.0
N43 N 0.36703 0.85979 0.58836 0.0
C44 C 0.35007 0.84797 0.54019 0.0
C45 C 0.3256 0.84884 0.56889 0.0
C46 C 0.35273 0.86788 0.64514 0.0
N47 N 0.32731 0.86171 0.63477 0.0
C48 C 0.41886 0.82565 0.46527 0.0
C49 C 0.40021 0.76084 0.51548 0.0
C50 C 0.40972 0.76211 0.44708 0.0
C51 C 0.41967 0.79492 0.42296 0.0
C52 C 0.39951 0.79253 0.55607 0.0
N53 N 0.40908 0.82433 0.53107 0.0
H54 H 0.42546 0.85109 0.44424 0.0
H55 H 0.39011 0.79196 0.60612 0.0
H56 H 0.35503 0.84012 0.48756 0.0
H57 H 0.3607 0.8797 0.69216 0.0
O58 O 0.39589 0.89819 0.49593 0.0
O59 O 0.39501 0.92032 0.60325 0.0
O60 O 0.40909 0.84944 0.67403 0.0
C61 C 0.3921 0.92587 0.5365 0.0
H62 H 0.48919 0.93767 0.59466 0.0
H63 H 0.30794 0.84078 0.54298 0.0
H64 H 0.39229 0.73608 0.53635 0.0
H65 H 0.42659 0.79753 0.37008 0.0
Co66 Co 0.16889 0.87987 0.8953 0.0
C67 C 0.11506 0.86965 0.95318 0.0
C68 C 0.11655 0.87871 0.84276 0.0
C69 C 0.0914 0.87313 0.86062 0.0
N70 N 0.13159 0.87579 0.90001 0.0
N71 N 0.0904 0.86722 0.92958 0.0
H72 H 0.12086 0.86683 1.00712 0.0
H73 H 0.12339 0.88499 0.79113 0.0
C74 C 0.17784 0.82588 0.78159 0.0
O75 O 0.19518 0.81011 0.82185 0.0
N76 N 0.20654 0.88591 0.8841 0.0
C77 C 0.22391 0.89956 0.92985 0.0
C78 C 0.24796 0.90055 0.89908 0.0
C79 C 0.2203 0.88167 0.82451 0.0
N80 N 0.24563 0.88926 0.83261 0.0
C81 C 0.18984 0.83274 0.99844 0.0
C82 C 0.15497 0.77699 0.98236 0.0
C83 C 0.17117 0.77751 0.04111 0.0
C84 C 0.18961 0.8048 0.04654 0.0
C85 C 0.15633 0.80533 0.93366 0.0
N86 N 0.1731 0.83351 0.94346 0.0
H87 H 0.20205 0.85526 1.00978 0.0
H88 H 0.1427 0.80588 0.89083 0.0
H89 H 0.21955 0.90878 0.98204 0.0
H90 H 0.21212 0.87375 0.77528 0.0
O91 O 0.16893 0.90955 0.97776 0.0
O92 O 0.16411 0.93091 0.87097 0.0
O93 O 0.1667 0.85531 0.80089 0.0
C94 C 0.16511 0.9374 0.93802 0.0
H95 H 0.07483 0.87446 0.82599 0.0
H96 H 0.26571 0.90956 0.92334 0.0
H97 H 0.14032 0.75639 0.97652 0.0
H98 H 0.20258 0.80611 0.09095 0.0
Co99 Co 0.39794 0.12965 0.39597 0.0
C100 C 0.45454 0.12682 0.44197 0.0
C101 C 0.44606 0.09494 0.35148 0.0
C102 C 0.47203 0.09182 0.36551 0.0
N103 N 0.43484 0.11692 0.39917 0.0
N104 N 0.47747 0.11201 0.42219 0.0
H105 H 0.45264 0.14472 0.48595 0.0
H106 H 0.43611 0.08277 0.30775 0.0
C107 C 0.42179 0.17331 0.28234 0.0
O108 O 0.44145 0.17941 0.32408 0.0
N109 N 0.36138 0.14057 0.38843 0.0
C110 C 0.34438 0.14897 0.439 0.0
C111 C 0.31983 0.14993 0.41011 0.0
C112 C 0.34707 0.13644 0.32998 0.0
N113 N 0.32161 0.14219 0.34146 0.0
C114 C 0.40888 0.16919 0.5194 0.0
C115 C 0.39984 0.23854 0.4704 0.0
C116 C 0.40681 0.23352 0.54044 0.0
C117 C 0.4113 0.19844 0.56458 0.0
C118 C 0.39782 0.20812 0.42607 0.0
N119 N 0.40309 0.17394 0.4505 0.0
H120 H 0.41221 0.14245 0.54041 0.0
H121 H 0.3913 0.21205 0.37313 0.0
H122 H 0.34937 0.15299 0.49322 0.0
H123 H 0.35508 0.1276 0.28071 0.0
O124 O 0.39158 0.09806 0.47289 0.0
O125 O 0.39096 0.0807 0.36266 0.0
O126 O 0.40277 0.15468 0.30375 0.0
C127 C 0.38877 0.07207 0.42818 0.0
H128 H 0.48607 0.0771 0.33439 0.0
H129 H 0.302 0.15545 0.43765 0.0
H130 H 0.39545 0.26544 0.45073 0.0
H131 H 0.41619 0.19357 0.61872 0.0
Co132 Co 0.90586 0.87162 0.96714 0.0
C133 C 0.96422 0.86578 0.99156 0.0
C134 C 0.95231 0.91547 0.94306 0.0
C135 C 0.9785 0.91643 0.95305 0.0
N136 N 0.94289 0.88396 0.96799 0.0
N137 N 0.98605 0.88525 0.98332 0.0
H138 H 0.96425 0.83841 1.01146 0.0
H139 H 0.94124 0.93649 0.9173 0.0
C140 C 0.92651 0.83084 0.8433 0.0
O141 O 0.94739 0.82271 0.87909 0.0
N142 N 0.86914 0.86151 0.96312 0.0
C143 C 0.85384 0.84545 1.01011 0.0
C144 C 0.82868 0.8464 0.98531 0.0
C145 C 0.85313 0.87229 0.91118 0.0
N146 N 0.82819 0.86367 0.92321 0.0
C147 C 0.92217 0.82731 0.07953 0.0
C148 C 0.90665 0.76121 1.02656 0.0
C149 C 0.9163 0.76293 0.09509 0.0
C150 C 0.92449 0.7965 0.12073 0.0
C151 C 0.90493 0.79293 0.98635 0.0
N152 N 0.91267 0.82548 1.0132 0.0
H153 H 0.92779 0.85307 0.10161 0.0
H154 H 0.89606 0.7916 0.93537 0.0
H155 H 0.86042 0.83396 0.0589 0.0
H156 H 0.85967 0.88701 0.866 0.0
O157 O 0.90092 0.90051 0.04996 0.0
O158 O 0.89761 0.92108 0.94209 0.0
O159 O 0.90863 0.85004 0.8709 0.0
C160 C 0.89712 0.92787 1.00876 0.0
H161 H 0.99129 0.93766 0.93584 0.0
H162 H 0.81219 0.83463 1.01084 0.0
H163 H 0.89944 0.73594 1.00546 0.0
H164 H 0.93108 0.79952 0.17403 0.0
Co165 Co 0.6627 0.12663 0.468 0.0
C166 C 0.60476 0.12715 0.49134 0.0
C167 C 0.61743 0.17107 0.42781 0.0
C168 C 0.59111 0.17291 0.432 0.0
N169 N 0.62645 0.14286 0.466 0.0
N170 N 0.583 0.14545 0.47191 0.0
H171 H 0.60464 0.10221 0.52088 0.0
H172 H 0.62867 0.18801 0.3942 0.0
C173 C 0.6858 0.17147 0.35498 0.0
O174 O 0.7048 0.17893 0.39825 0.0
N175 N 0.69877 0.10951 0.4653 0.0
C176 C 0.71487 0.09986 0.51769 0.0
C177 C 0.73856 0.0901 0.49026 0.0
C178 C 0.7126 0.10275 0.40679 0.0
N179 N 0.73734 0.09291 0.42025 0.0
C180 C 0.67978 0.16501 0.58834 0.0
C181 C 0.67089 0.23518 0.5439 0.0
C182 C 0.67883 0.22921 0.61266 0.0
C183 C 0.68369 0.19369 0.6342 0.0
C184 C 0.66763 0.20548 0.49882 0.0
N185 N 0.67194 0.17055 0.52109 0.0
H186 H 0.68195 0.13817 0.60914 0.0
H187 H 0.66133 0.21121 0.44672 0.0
H188 H 0.70999 0.09895 0.57211 0.0
H189 H 0.70492 0.10595 0.35478 0.0
O190 O 0.65632 0.0966 0.54727 0.0
O191 O 0.65275 0.07781 0.43843 0.0
O192 O 0.66756 0.15068 0.37437 0.0
C193 C 0.65215 0.07002 0.50483 0.0
H194 H 0.5787 0.19138 0.40313 0.0
H195 H 0.75525 0.08132 0.52007 0.0
H196 H 0.66694 0.26244 0.52542 0.0
H197 H 0.68932 0.1879 0.68748 0.0
Co198 Co 0.8909 0.13203 0.15975 0.0
C199 C 0.94799 0.12142 0.12941 0.0
C200 C 0.93863 0.17236 0.17852 0.0
C201 C 0.96439 0.17223 0.1621 0.0
N202 N 0.9281 0.14073 0.15783 0.0
N203 N 0.97029 0.14039 0.13116 0.0
H204 H 0.94614 0.09495 0.10544 0.0
H205 H 0.92798 0.19486 0.20118 0.0
C206 C 0.87113 0.17259 0.28783 0.0
O207 O 0.84762 0.17309 0.26218 0.0
N208 N 0.85397 0.12258 0.16373 0.0
C209 C 0.83464 0.13438 0.12212 0.0
C210 C 0.81138 0.12465 0.15166 0.0
C211 C 0.84229 0.10415 0.21542 0.0
N212 N 0.81624 0.10635 0.21126 0.0
C213 C 0.89994 0.1756 0.04463 0.0
C214 C 0.86829 0.23458 0.0722 0.0
C215 C 0.8815 0.23252 1.00874 0.0
C216 C 0.8981 0.20324 0.99659 0.0
C217 C 0.87105 0.20606 0.1204 0.0
N218 N 0.88627 0.17643 0.10532 0.0
H219 H 0.91255 0.15304 0.0322 0.0
H220 H 0.86034 0.20784 0.16774 0.0
H221 H 0.83709 0.15046 0.07568 0.0
H222 H 0.8528 0.09192 0.2583 0.0
O223 O 0.89281 0.10076 0.0811 0.0
O224 O 0.89698 0.08188 0.18971 0.0
O225 O 0.88985 0.15824 0.25342 0.0
C226 C 0.89606 0.07393 0.12326 0.0
H227 H 0.97782 0.1941 0.17141 0.0
H228 H 0.79236 0.13271 0.13329 0.0
H229 H 0.85549 0.25728 0.08339 0.0
H230 H 0.90917 0.20117 0.9489 0.0
Co231 Co 0.66504 0.86978 0.67285 0.0
C232 C 0.61156 0.85908 0.6118 0.0
C233 C 0.61263 0.8622 0.72346 0.0
C234 C 0.58757 0.85726 0.70314 0.0
N235 N 0.62791 0.86244 0.66681 0.0
N236 N 0.5868 0.85514 0.63325 0.0
H237 H 0.61748 0.86002 0.55786 0.0
H238 H 0.61904 0.86688 0.77629 0.0
C239 C 0.67578 0.81705 0.78687 0.0
O240 O 0.69315 0.80167 0.74639 0.0
N241 N 0.70238 0.87949 0.68478 0.0
C242 C 0.71821 0.89705 0.64063 0.0
C243 C 0.74226 0.90077 0.67102 0.0
C244 C 0.71703 0.87507 0.74316 0.0
N245 N 0.74155 0.88686 0.73579 0.0
C246 C 0.68966 0.82276 0.57487 0.0
C247 C 0.65493 0.76646 0.58296 0.0
C248 C 0.67249 0.76724 0.52757 0.0
C249 C 0.69092 0.7947 0.52663 0.0
C250 C 0.65489 0.79476 0.63224 0.0
N251 N 0.67142 0.8234 0.62588 0.0
H252 H 0.70211 0.84536 0.56668 0.0
H253 H 0.64041 0.79481 0.67265 0.0
H254 H 0.71281 0.90672 0.58945 0.0
H255 H 0.71004 0.86408 0.79101 0.0
O256 O 0.66373 0.89814 0.58964 0.0
O257 O 0.65794 0.92062 0.69545 0.0
O258 O 0.66405 0.84607 0.76776 0.0
C259 C 0.65859 0.92616 0.62813 0.0
H260 H 0.57088 0.85723 0.73694 0.0
H261 H 0.75889 0.91329 0.64743 0.0
H262 H 0.64029 0.74572 0.5856 0.0
H263 H 0.70507 0.7961 0.48531 0.0
Co264 Co 0.6577 0.6255 0.17032 0.0
C265 C 0.60179 0.63958 0.12934 0.0
C266 C 0.60831 0.63032 0.23836 0.0
C267 C 0.58246 0.6361 0.22819 0.0
N268 N 0.62063 0.63291 0.177 0.0
N269 N 0.57822 0.64233 0.16 0.0
H270 H 0.60515 0.64195 0.07396 0.0
H271 H 0.61746 0.62346 0.28737 0.0
C272 C 0.67347 0.68037 0.27539 0.0
O273 O 0.68917 0.6931 0.22796 0.0
N274 N 0.69534 0.61615 0.17097 0.0
C275 C 0.71035 0.60021 0.12195 0.0
C276 C 0.7353 0.59654 0.14727 0.0
C277 C 0.71133 0.61926 0.22688 0.0
N278 N 0.73594 0.60907 0.21333 0.0
C279 C 0.67582 0.66925 0.06013 0.0
C280 C 0.64874 0.73229 0.09073 0.0
C281 C 0.66463 0.73106 0.03173 0.0
C282 C 0.67816 0.69901 1.01687 0.0
C283 C 0.64714 0.70157 0.13367 0.0
N284 N 0.66118 0.67076 0.11888 0.0
H285 H 0.68497 0.64439 0.04404 0.0
H286 H 0.6346 0.7025 0.17853 0.0
H287 H 0.70369 0.59073 0.07171 0.0
H288 H 0.70518 0.62782 0.27784 0.0
O289 O 0.6532 0.59579 0.08941 0.0
O290 O 0.65276 0.5747 0.19687 0.0
O291 O 0.66072 0.65138 0.26357 0.0
C292 C 0.65076 0.56817 0.12989 0.0
H293 H 0.56769 0.6339 0.26765 0.0
H294 H 0.75138 0.58435 0.11968 0.0
H295 H 0.6376 0.75649 0.10314 0.0
H296 H 0.68975 0.6964 0.97021 0.0
Co297 Co 0.88775 0.37558 0.65923 0.0
C298 C 0.9457 0.37216 0.62492 0.0
C299 C 0.93666 0.37974 0.7327 0.0
C300 C 0.96298 0.37764 0.72653 0.0
N301 N 0.92547 0.3749 0.66969 0.0
N302 N 0.96864 0.37261 0.65904 0.0
H303 H 0.94425 0.3709 0.56905 0.0
H304 H 0.9263 0.38489 0.78055 0.0
C305 C 0.89636 0.3212 0.77035 0.0
O306 O 0.91331 0.30555 0.72898 0.0
N307 N 0.85037 0.37791 0.65654 0.0
C308 C 0.83324 0.37372 0.60414 0.0
C309 C 0.80849 0.37736 0.63131 0.0
C310 C 0.83604 0.3844 0.71375 0.0
N311 N 0.81048 0.38395 0.70041 0.0
C312 C 0.9001 0.32873 0.54571 0.0
C313 C 0.8708 0.27019 0.58508 0.0
C314 C 0.88527 0.26798 0.52355 0.0
C315 C 0.89983 0.29792 0.50389 0.0
C316 C 0.8719 0.30171 0.62612 0.0
N317 N 0.88746 0.32987 0.60784 0.0
H318 H 0.9092 0.35248 0.52544 0.0
H319 H 0.85968 0.30399 0.67137 0.0
H320 H 0.83829 0.36776 0.55069 0.0
H321 H 0.84426 0.38933 0.76481 0.0
O322 O 0.88977 0.40633 0.57971 0.0
O323 O 0.88757 0.4261 0.6887 0.0
O324 O 0.88467 0.35025 0.75184 0.0
C325 C 0.8886 0.43357 0.62226 0.0
H326 H 0.977 0.38076 0.76811 0.0
H327 H 0.79054 0.37416 0.60294 0.0
H328 H 0.85828 0.24822 0.60025 0.0
H329 H 0.90971 0.29844 0.45427 0.0
Co330 Co 0.659 0.36567 0.97082 0.0
C331 C 0.60108 0.36839 0.9923 0.0
C332 C 0.61379 0.32126 0.93617 0.0
C333 C 0.58739 0.32121 0.93802 0.0
N334 N 0.62278 0.35052 0.97085 0.0
N335 N 0.5792 0.3509 0.97272 0.0
H336 H 0.60118 0.39412 1.01951 0.0
H337 H 0.62518 0.30238 0.9061 0.0
C338 C 0.68242 0.32148 0.8558 0.0
O339 O 0.70202 0.31509 0.89795 0.0
N340 N 0.69498 0.38152 0.96578 0.0
C341 C 0.71374 0.38196 1.01475 0.0
C342 C 0.73695 0.38949 0.98318 0.0
C343 C 0.707 0.39107 0.9061 0.0
N344 N 0.73282 0.39445 0.91438 0.0
C345 C 0.67491 0.32726 0.09231 0.0
C346 C 0.67107 0.25697 0.04383 0.0
C347 C 0.67799 0.26301 0.11339 0.0
C348 C 0.68004 0.29863 0.13712 0.0
C349 C 0.66643 0.28672 0.99984 0.0
N350 N 0.66858 0.32173 1.02386 0.0
H351 H 0.67571 0.35405 0.11446 0.0
H352 H 0.6609 0.28088 0.94713 0.0
H353 H 0.71142 0.37603 0.06916 0.0
H354 H 0.69728 0.39196 0.85618 0.0
O355 O 0.65331 0.39642 0.05021 0.0
O356 O 0.64879 0.41493 0.94192 0.0
O357 O 0.66332 0.34096 0.87679 0.0
C358 C 0.64871 0.42299 1.00835 0.0
H359 H 0.57506 0.30214 0.91099 0.0
H360 H 0.75566 0.38952 1.00861 0.0
H361 H 0.66909 0.2296 1.02381 0.0
H362 H 0.68473 0.30444 0.19107 0.0
Co363 Co 0.8967 0.63461 0.46718 0.0
C364 C 0.95423 0.64461 0.46466 0.0
C365 C 0.94375 0.59773 0.5234 0.0
C366 C 0.97004 0.60108 0.52629 0.0
N367 N 0.93354 0.62486 0.48438 0.0
N368 N 0.97677 0.63074 0.49017 0.0
H369 H 0.95283 0.66883 0.43317 0.0
H370 H 0.9332 0.57666 0.54925 0.0
C371 C 0.89167 0.676 0.33125 0.0
O372 O 0.8682 0.68592 0.34881 0.0
N373 N 0.85984 0.6424 0.45101 0.0
C374 C 0.84272 0.66163 0.48932 0.0
C375 C 0.81838 0.65763 0.46026 0.0
C376 C 0.84551 0.62591 0.40104 0.0
N377 N 0.82028 0.63555 0.4042 0.0
C378 C 0.91013 0.6756 0.58443 0.0
C379 C 0.90014 0.74483 0.53622 0.0
C380 C 0.91043 0.74007 0.60329 0.0
C381 C 0.9154 0.70502 0.62707 0.0
C382 C 0.89561 0.71425 0.494 0.0
N383 N 0.90057 0.68003 0.51854 0.0
H384 H 0.91434 0.64886 0.60449 0.0
H385 H 0.88803 0.71852 0.44266 0.0
H386 H 0.84748 0.67736 0.53519 0.0
H387 H 0.85358 0.60782 0.36211 0.0
O388 O 0.8873 0.60564 0.54547 0.0
O389 O 0.89236 0.58423 0.43859 0.0
O390 O 0.906 0.65753 0.37339 0.0
C391 C 0.88669 0.57802 0.50372 0.0
H392 H 0.98324 0.58218 0.55125 0.0
H393 H 0.80073 0.67056 0.47815 0.0
H394 H 0.89581 0.77178 0.51671 0.0
H395 H 0.92298 0.70032 0.67901 0.0
Co396 Co 0.39398 0.36875 0.90123 0.0
C397 C 0.45111 0.37127 0.94245 0.0
C398 C 0.44058 0.40668 0.85868 0.0
C399 C 0.46653 0.41041 0.87164 0.0
N400 N 0.43059 0.38228 0.90311 0.0
N401 N 0.4732 0.38838 0.92473 0.0
H402 H 0.45053 0.35055 0.98176 0.0
H403 H 0.42988 0.42012 0.81756 0.0
C404 C 0.41745 0.3275 0.78007 0.0
O405 O 0.43988 0.32565 0.81212 0.0
N406 N 0.35767 0.35708 0.89427 0.0
C407 C 0.34192 0.34 0.93874 0.0
C408 C 0.3177 0.3376 0.90807 0.0
C409 C 0.34293 0.36504 0.83808 0.0
N410 N 0.31843 0.35319 0.84441 0.0
C411 C 0.40707 0.32936 1.02283 0.0
C412 C 0.40134 0.25966 0.97215 0.0
C413 C 0.40912 0.26488 0.04158 0.0
C414 C 0.41168 0.30019 0.06665 0.0
C415 C 0.39726 0.29008 0.92895 0.0
N416 N 0.40087 0.32447 0.95422 0.0
H417 H 0.40957 0.35618 0.04428 0.0
H418 H 0.3907 0.28588 0.87614 0.0
H419 H 0.34758 0.3298 0.98935 0.0
H420 H 0.35016 0.37991 0.79396 0.0
O421 O 0.3873 0.39993 0.97948 0.0
O422 O 0.38539 0.41776 0.86998 0.0
O423 O 0.39828 0.34372 0.8084 0.0
C424 C 0.38339 0.42603 0.93585 0.0
H425 H 0.47969 0.42665 0.84153 0.0
H426 H 0.30096 0.32484 0.93056 0.0
H427 H 0.39853 0.23255 0.95165 0.0
H428 H 0.41711 0.30529 0.12037 0.0
Co429 Co 0.16168 0.63339 0.39399 0.0
C430 C 0.10519 0.64352 0.43436 0.0
C431 C 0.11209 0.6234 0.33097 0.0
C432 C 0.08602 0.62721 0.33963 0.0
N433 N 0.12427 0.63371 0.38971 0.0
N434 N 0.08145 0.64001 0.40429 0.0
H435 H 0.10862 0.65357 0.48655 0.0
H436 H 0.1217 0.61368 0.2845 0.0
C437 C 0.17234 0.69081 0.29083 0.0
O438 O 0.18792 0.70473 0.33787 0.0
N439 N 0.19962 0.63104 0.39009 0.0
C440 C 0.21703 0.61904 0.43784 0.0
C441 C 0.24117 0.61657 0.40745 0.0
C442 C 0.21349 0.63327 0.33056 0.0
N443 N 0.23876 0.62579 0.33997 0.0
C444 C 0.17591 0.67699 0.50893 0.0
C445 C 0.1476 0.73894 0.47883 0.0
C446 C 0.16351 0.73826 0.53835 0.0
C447 C 0.17734 0.70654 0.55335 0.0
C448 C 0.14683 0.70826 0.43477 0.0
N449 N 0.16179 0.67822 0.44892 0.0
H450 H 0.18571 0.65259 0.52458 0.0
H451 H 0.13441 0.70873 0.38934 0.0
H452 H 0.21259 0.61039 0.49007 0.0
H453 H 0.20522 0.63788 0.27962 0.0
O454 O 0.16131 0.60174 0.47246 0.0
O455 O 0.16165 0.58245 0.36349 0.0
O456 O 0.16097 0.66078 0.30252 0.0
C457 C 0.16178 0.57455 0.42995 0.0
H458 H 0.07142 0.62025 0.30142 0.0
H459 H 0.25894 0.608 0.43268 0.0
H460 H 0.13611 0.7628 0.4664 0.0
H461 H 0.18889 0.70421 0.60041 0.0
Co462 Co 0.39397 0.62967 0.07693 0.0
C463 C 0.4512 0.63884 0.08645 0.0
C464 C 0.44156 0.58578 0.04896 0.0
C465 C 0.46793 0.58847 0.05118 0.0
N466 N 0.43084 0.61737 0.07104 0.0
N467 N 0.47417 0.62179 0.07454 0.0
H468 H 0.44908 0.66659 0.10429 0.0
H469 H 0.43136 0.56195 0.03204 0.0
C470 C 0.38697 0.6757 0.207 0.0
O471 O 0.36479 0.68786 0.18305 0.0
N472 N 0.35714 0.63962 0.08474 0.0
C473 C 0.34063 0.65643 0.04072 0.0
C474 C 0.31606 0.65513 0.06885 0.0
C475 C 0.34225 0.62681 0.13665 0.0
N476 N 0.31718 0.63653 0.1294 0.0
C477 C 0.41419 0.6672 0.96344 0.0
C478 C 0.39443 0.73588 0.98777 0.0
C479 C 0.40845 0.72924 0.92646 0.0
C480 C 0.4191 0.6946 0.91635 0.0
C481 C 0.39085 0.70763 0.03577 0.0
N482 N 0.40036 0.67348 1.02269 0.0
H483 H 0.42127 0.64027 0.95113 0.0
H484 H 0.37934 0.71324 0.08067 0.0
H485 H 0.34596 0.6688 0.99195 0.0
H486 H 0.3502 0.61286 0.18146 0.0
O487 O 0.38622 0.59937 0.99855 0.0
O488 O 0.38698 0.58042 0.10777 0.0
O489 O 0.40134 0.65444 0.17039 0.0
C490 C 0.38286 0.57305 0.04196 0.0
H491 H 0.48152 0.56699 0.03809 0.0
H492 H 0.29875 0.66713 0.04654 0.0
H493 H 0.38539 0.76205 0.9973 0.0
H494 H 0.4305 0.68813 0.8707 0.0
Co495 Co 0.15523 0.37672 0.6085 0.0
C496 C 0.09639 0.37154 0.59586 0.0
C497 C 0.10933 0.42361 0.63026 0.0
C498 C 0.08291 0.42469 0.62589 0.0
N499 N 0.11823 0.39042 0.61075 0.0
N500 N 0.07473 0.392 0.60462 0.0
H501 H 0.096 0.34321 0.58113 0.0
H502 H 0.12095 0.44589 0.64855 0.0
C503 C 0.13698 0.3367 0.73517 0.0
O504 O 0.11665 0.3264 0.69969 0.0
N505 N 0.19193 0.36526 0.60932 0.0
C506 C 0.20636 0.34884 0.56015 0.0
C507 C 0.2313 0.34506 0.58521 0.0
C508 C 0.20836 0.37212 0.66254 0.0
N509 N 0.2327 0.36005 0.64963 0.0
C510 C 0.13683 0.33043 0.50276 0.0
C511 C 0.1627 0.2683 0.54554 0.0
C512 C 0.15303 0.2704 0.47733 0.0
C513 C 0.13887 0.3011 0.45743 0.0
C514 C 0.15976 0.29833 0.59034 0.0
N515 N 0.14798 0.32952 0.5673 0.0
H516 H 0.128 0.35518 0.48362 0.0
H517 H 0.16946 0.2979 0.64031 0.0
H518 H 0.19914 0.33927 0.51049 0.0
H519 H 0.20243 0.38565 0.71001 0.0
O520 O 0.15893 0.40229 0.52189 0.0
O521 O 0.1642 0.42729 0.62554 0.0
O522 O 0.15366 0.35742 0.70722 0.0
C523 C 0.16379 0.43116 0.55787 0.0
H524 H 0.07051 0.44725 0.64072 0.0
H525 H 0.24676 0.33087 0.55861 0.0
H526 H 0.17411 0.24505 0.56205 0.0
H527 H 0.13134 0.30366 0.4049 0.0
C528 C 0.25656 0.11856 0.26456 0.0
C529 C 0.2585 0.13019 0.19489 0.0
C530 C 0.27713 0.12262 0.31203 0.0
C531 C 0.30062 0.13833 0.29189 0.0
H532 H 0.23899 0.10606 0.28262 0.0
H533 H 0.27474 0.11301 0.36479 0.0
S534 S 0.31521 0.17589 0.11761 0.0
N535 N 0.28562 0.15997 0.10964 0.0
N536 N 0.32418 0.16714 0.19848 0.0
C537 C 0.30284 0.15021 0.22264 0.0
C538 C 0.28186 0.14624 0.17431 0.0
C539 C 0.2906 0.87098 0.80368 0.0
C540 C 0.26612 0.88388 0.7822 0.0
C541 C 0.31038 0.86378 0.75537 0.0
C542 C 0.30654 0.86909 0.68343 0.0
H543 H 0.29433 0.86564 0.85822 0.0
H544 H 0.32873 0.85339 0.77441 0.0
S545 S 0.24701 0.90634 0.60066 0.0
N546 N 0.23991 0.90434 0.68426 0.0
N547 N 0.27691 0.89068 0.59383 0.0
C548 C 0.28235 0.88274 0.66137 0.0
C549 C 0.26222 0.89017 0.71057 0.0
C550 C 0.78846 0.87876 0.7597 0.0
C551 C 0.76302 0.883 0.78453 0.0
C552 C 0.80947 0.87321 0.80522 0.0
C553 C 0.80614 0.87086 0.87783 0.0
H554 H 0.7922 0.87899 0.70432 0.0
H555 H 0.82848 0.87021 0.78295 0.0
S556 S 0.74416 0.88572 0.97111 0.0
N557 N 0.73626 0.88876 0.88798 0.0
N558 N 0.77554 0.87727 0.97289 0.0
C559 C 0.78094 0.87632 0.90377 0.0
C560 C 0.7595 0.88253 0.85739 0.0
C561 C 0.75341 0.08367 0.29951 0.0
C562 C 0.75834 0.09176 0.37022 0.0
C563 C 0.7726 0.0873 0.24836 0.0
C564 C 0.7977 0.0987 0.2656 0.0
H565 H 0.73437 0.07516 0.28314 0.0
H566 H 0.76766 0.08169 0.19458 0.0
S567 S 0.82094 0.12349 0.44278 0.0
N568 N 0.79052 0.11209 0.4541 0.0
N569 N 0.82649 0.11781 0.35896 0.0
C570 C 0.80319 0.10574 0.33634 0.0
C571 C 0.78358 0.1025 0.38831 0.0
C572 C 0.75443 0.6119 0.33309 0.0
C573 C 0.75795 0.61261 0.2602 0.0
C574 C 0.77487 0.61889 0.37963 0.0
C575 C 0.79987 0.62635 0.35557 0.0
H576 H 0.73565 0.60615 0.35469 0.0
H577 H 0.77109 0.61849 0.43502 0.0
S578 S 0.81966 0.63258 0.17058 0.0
N579 N 0.78868 0.62249 0.16682 0.0
N580 N 0.82703 0.63448 0.25422 0.0
C581 C 0.80389 0.62647 0.28313 0.0
C582 C 0.783 0.61983 0.23557 0.0
C583 C 0.79401 0.37052 0.81782 0.0
C584 C 0.79031 0.38664 0.75215 0.0
C585 C 0.77541 0.37372 0.87037 0.0
C586 C 0.75222 0.3934 0.86005 0.0
H587 H 0.81138 0.35482 0.82844 0.0
H588 H 0.77909 0.35989 0.91909 0.0
S589 S 0.73375 0.44259 0.69849 0.0
N590 N 0.76208 0.42391 0.68007 0.0
N591 N 0.72713 0.43046 0.77916 0.0
C592 C 0.74832 0.40992 0.79461 0.0
C593 C 0.76731 0.4064 0.74068 0.0
C594 C 0.25094 0.36232 0.76982 0.0
C595 C 0.25473 0.36051 0.69717 0.0
C596 C 0.27169 0.35981 0.81715 0.0
C597 C 0.2974 0.35649 0.79428 0.0
H598 H 0.23171 0.36509 0.79087 0.0
H599 H 0.26752 0.36082 0.8723 0.0
S600 S 0.31861 0.35589 0.60948 0.0
N601 N 0.28682 0.35895 0.60494 0.0
N602 N 0.32562 0.35432 0.69328 0.0
C603 C 0.30168 0.3565 0.72175 0.0
C604 C 0.28047 0.35855 0.67348 0.0
C605 C 0.25861 0.65662 0.23992 0.0
C606 C 0.2585 0.62753 0.28724 0.0
C607 C 0.27748 0.65903 0.18787 0.0
C608 C 0.29689 0.63221 0.18042 0.0
H609 H 0.24422 0.67807 0.2441 0.0
H610 H 0.27719 0.68256 0.15426 0.0
S611 S 0.303 0.54811 0.28595 0.0
N612 N 0.27819 0.5701 0.32049 0.0
N613 N 0.31321 0.57382 0.22161 0.0
C614 C 0.29642 0.60231 0.22617 0.0
C615 C 0.27737 0.60018 0.2798 0.0
C616 C 1.0091 0.15517 0.06386 0.0
C617 C 0.99564 0.13058 0.10599 0.0
C618 C 0.03608 0.15295 0.05673 0.0
C619 C 0.05062 0.12629 0.092 0.0
H620 H 0.9989 0.17812 0.04124 0.0
H621 H 0.04593 0.17466 1.03017 0.0
S622 S 1.0244 0.05301 0.20171 0.0
N623 N 0.99854 0.0764 0.17691 0.0
N624 N 0.04936 0.07272 0.16466 0.0
C625 C 0.03713 0.09952 0.12856 0.0
C626 C 1.0096 0.10155 0.13535 0.0
C627 C 0.55608 0.88588 0.55467 0.0
C628 C 0.56309 0.85523 0.59394 0.0
C629 C 0.53004 0.89298 0.53783 0.0
C630 C 0.51019 0.86959 0.5594 0.0
H631 H 0.57042 0.90613 0.54285 0.0
H632 H 0.52516 0.91827 0.51211 0.0
S633 S 0.51948 0.78292 0.65451 0.0
N634 N 0.54892 0.79923 0.64657 0.0
N635 N 0.5001 0.81235 0.61522 0.0
C636 C 0.51742 0.83704 0.59257 0.0
C637 C 0.54386 0.82997 0.6098 0.0
C638 C 0.03084 0.89916 1.01687 0.0
C639 C 1.01265 0.87408 0.99143 0.0
C640 C 0.05742 0.89424 1.00509 0.0
C641 C 0.06658 0.86425 0.96696 0.0
H642 H 1.02422 0.92422 0.04085 0.0
H643 H 0.07051 0.91586 1.01908 0.0
S644 S 1.02758 0.78845 0.8976 0.0
N645 N 1.00615 0.8161 0.93383 0.0
N646 N 0.05605 0.80717 0.9111 0.0
C647 C 0.04892 0.83727 0.94761 0.0
C648 C 1.02192 0.84208 0.96001 0.0
C649 C 0.54868 0.09974 0.45873 0.0
C650 C 0.55628 0.135 0.47721 0.0
C651 C 0.5226 0.09193 0.44481 0.0
C652 C 0.50315 0.11902 0.44908 0.0
H653 H 0.56316 0.07878 0.45015 0.0
H654 H 0.51776 0.0648 0.42761 0.0
S655 S 0.51302 0.21468 0.50397 0.0
N656 N 0.54221 0.19618 0.50652 0.0
N657 N 0.49346 0.18195 0.47899 0.0
C658 C 0.51039 0.15373 0.47251 0.0
C659 C 0.53688 0.16157 0.48684 0.0
C660 C 0.52104 0.6192 0.04901 0.0
C661 C 0.50026 0.63404 0.08766 0.0
C662 C 0.54685 0.62451 0.06921 0.0
C663 C 0.55288 0.64506 0.12863 0.0
H664 H 0.51732 0.60188 1.00454 0.0
H665 H 0.56202 0.61037 0.04108 0.0
S666 S 0.50634 0.69556 0.24025 0.0
N667 N 0.488 0.67393 0.18347 0.0
N668 N 0.53643 0.68512 0.21934 0.0
C669 C 0.53252 0.66302 0.16355 0.0
C670 C 0.50623 0.65729 0.14357 0.0
C671 C 1.02917 0.40402 0.57369 0.0
C672 C 0.04807 0.38113 0.60402 0.0
C673 C 1.00272 0.39912 0.58659 0.0
C674 C 0.9944 0.37158 0.6313 0.0
H675 H 0.03506 0.42706 0.54292 0.0
H676 H 0.98887 0.41858 0.56593 0.0
S677 S 0.03574 0.30282 0.71918 0.0
N678 N 0.05632 0.32835 0.67635 0.0
N679 N 1.0067 0.31958 0.70159 0.0
C680 C 1.01293 0.34727 0.65845 0.0
C681 C 0.03976 0.35188 0.64448 0.0
C682 C 0.50679 0.34538 0.96699 0.0
C683 C 0.49923 0.38096 0.9493 0.0
C684 C 0.53281 0.33646 0.97973 0.0
C685 C 0.55243 0.36265 0.97537 0.0
H686 H 0.49276 0.32379 0.9671 0.0
H687 H 0.53781 0.30835 0.98993 0.0
S688 S 0.54231 0.46093 0.94191 0.0
N689 N 0.51304 0.44359 0.93751 0.0
N690 N 0.562 0.42651 0.95905 0.0
C691 C 0.54492 0.39885 0.96284 0.0
C692 C 0.51834 0.40802 0.95016 0.0
C693 C 1.00942 0.65342 0.40814 0.0
C694 C 1.00298 0.64131 0.47499 0.0
C695 C 0.03531 0.65578 0.38744 0.0
C696 C 0.05585 0.64588 0.43248 0.0
H697 H 0.9944 0.65873 0.37003 0.0
H698 H 0.03923 0.66364 0.3343 0.0
S699 S 0.04931 0.61982 0.61775 0.0
N700 N 1.01927 0.6256 0.59022 0.0
N701 N 0.06785 0.62841 0.55016 0.0
C702 C 0.04972 0.63704 0.50146 0.0
C703 C 1.02332 0.63503 0.52286 0.0
C704 C 0.16248 0.01282 0.07462 0.0
C705 C 0.15474 0.04348 0.03635 0.0
C706 C 0.16579 0.97883 0.04206 0.0
C707 C 0.16154 0.97405 0.96984 0.0
H708 H 0.16662 0.01519 0.12978 0.0
H709 H 0.17205 0.95617 0.07397 0.0
S710 S 0.13928 0.04518 0.84679 0.0
N711 N 0.14156 0.06637 0.9224 0.0
N712 N 0.148 0.0027 0.86195 0.0
C713 C 0.15326 0.00429 0.93128 0.0
C714 C 0.14978 0.03888 0.96434 0.0
C715 C 0.38621 0.99262 0.55184 0.0
C716 C 0.38741 0.96243 0.50722 0.0
C717 C 0.38534 0.02789 0.52526 0.0
C718 C 0.38575 0.03442 0.45298 0.0
H719 H 0.38688 0.98914 0.60781 0.0
H720 H 0.38531 0.05023 0.56211 0.0
S721 S 0.38564 0.96455 0.31364 0.0
N722 N 0.38646 0.94116 0.3868 0.0
N723 N 0.38511 0.0077 0.33717 0.0
C724 C 0.38545 0.00449 0.40764 0.0
C725 C 0.38623 0.96843 0.4347 0.0
C726 C 0.89377 0.97113 0.10921 0.0
C727 C 0.89576 0.96523 0.03679 0.0
C728 C 0.89448 0.00629 0.13762 0.0
C729 C 0.89736 0.03666 0.09456 0.0
H730 H 0.8917 0.94842 0.14436 0.0
H731 H 0.89244 0.00967 0.19339 0.0
S732 S 0.90472 0.03568 0.90173 0.0
N733 N 0.90129 0.99268 0.92303 0.0
N734 N 0.90325 0.05838 0.97576 0.0
C735 C 0.89975 0.031 1.02207 0.0
C736 C 0.89872 0.99539 0.99332 0.0
C737 C 0.64938 0.02799 0.60625 0.0
C738 C 0.64993 0.03273 0.53327 0.0
C739 C 0.65148 0.9935 0.6366 0.0
C740 C 0.65419 0.96223 0.59531 0.0
H741 H 0.64817 0.05127 0.64075 0.0
H742 H 0.6517 0.99151 0.69286 0.0
S743 S 0.65401 0.95928 0.4014 0.0
N744 N 0.6515 0.0029 0.42053 0.0
N745 N 0.65516 0.93797 0.47684 0.0
C746 C 0.65345 0.96638 0.52206 0.0
C747 C 0.65135 1.00161 0.49123 0.0
C748 C 0.64928 0.50026 0.14027 0.0
C749 C 0.64716 0.53143 0.09891 0.0
C750 C 0.64861 0.46547 0.1103 0.0
C751 C 0.64588 0.46028 0.03761 0.0
H752 H 0.65228 0.50268 0.19595 0.0
H753 H 0.6511 0.44243 0.14467 0.0
S754 S 0.63666 0.53293 0.90681 0.0
N755 N 0.63988 0.55479 0.98148 0.0
N756 N 0.63902 0.48935 0.9259 0.0
C757 C 0.64252 0.49112 0.99599 0.0
C758 C 0.64308 0.52665 1.02643 0.0
C759 C 0.89378 0.47638 0.52349 0.0
C760 C 0.88735 0.47075 0.59391 0.0
C761 C 0.89227 0.5109 0.49346 0.0
C762 C 0.88422 0.5411 0.53266 0.0
H763 H 0.90042 0.454 0.49124 0.0
H764 H 0.89824 0.51403 0.43984 0.0
S765 S 0.86295 0.5404 0.7174 0.0
N766 N 0.87113 0.49783 0.70074 0.0
N767 N 0.86807 0.56284 0.64458 0.0
C768 C 0.8769 0.53568 0.60258 0.0
C769 C 0.87859 0.50049 0.63321 0.0
C770 C 0.38201 0.47053 0.03385 0.0
C771 C 0.3793 0.46347 0.96193 0.0
C772 C 0.38166 0.50603 0.06014 0.0
C773 C 0.37848 0.53582 1.01555 0.0
H774 H 0.38552 0.44858 0.07018 0.0
H775 H 0.38506 0.51012 0.11529 0.0
S776 S 0.3666 0.53178 0.8245 0.0
N777 N 0.3706 0.48897 0.8477 0.0
N778 N 0.36954 0.55579 0.8968 0.0
C779 C 0.37396 0.52904 0.94412 0.0
C780 C 0.37449 0.49284 0.91735 0.0
C781 C 0.16439 0.53311 0.53222 0.0
C782 C 0.16334 0.53724 0.45912 0.0
C783 C 0.16549 0.49886 0.56349 0.0
C784 C 0.16555 0.46706 0.52319 0.0
H785 H 0.1641 0.55661 0.56629 0.0
H786 H 0.16567 0.49739 0.61982 0.0
S787 S 0.16456 0.46251 0.32954 0.0
N788 N 0.16353 0.50641 0.34725 0.0
N789 N 0.1656 0.44176 0.4056 0.0
C790 C 0.16517 0.47063 0.44986 0.0
C791 C 0.16405 0.50573 0.41796 0.0
C792 C 0.1215 0.30915 0.8465 0.0
C793 C 0.14222 0.31946 0.8037 0.0
C794 C 0.12555 0.2876 0.90599 0.0
C795 C 0.15046 0.27515 0.92422 0.0
H796 H 0.10186 0.31662 0.83238 0.0
H797 H 0.10892 0.27865 0.9351 0.0
S798 S 0.21124 0.29515 0.83134 0.0
N799 N 0.18865 0.31637 0.78558 0.0
N800 N 0.19621 0.27634 0.89735 0.0
C801 C 0.17143 0.28684 0.88401 0.0
C802 C 0.16734 0.30884 0.82376 0.0
C803 C 0.42533 0.72298 0.34775 0.0
C804 C 0.4059 0.7318 0.39661 0.0
C805 C 0.41994 0.70165 0.28866 0.0
C806 C 0.3949 0.68866 0.2766 0.0
H807 H 0.44442 0.7345 0.35303 0.0
H808 H 0.43484 0.69775 0.24981 0.0
S809 S 0.3383 0.69888 0.39312 0.0
N810 N 0.36137 0.72216 0.43191 0.0
N811 N 0.35156 0.68154 0.3223 0.0
C812 C 0.37605 0.69433 0.32811 0.0
C813 C 0.38146 0.716 0.38789 0.0
C814 C 0.16559 0.76971 0.16842 0.0
C815 C 0.16731 0.75354 0.10204 0.0
C816 C 0.16628 0.74882 0.22884 0.0
C817 C 0.16816 0.71085 0.22548 0.0
H818 H 0.16465 0.79899 0.17383 0.0
H819 H 0.16591 0.76263 0.27878 0.0
S820 S 0.17082 0.6548 0.065 0.0
N821 N 0.16941 0.69707 0.03636 0.0
N822 N 0.16992 0.65743 0.15091 0.0
C823 C 0.16817 0.69398 0.15969 0.0
C824 C 0.16787 0.71544 0.09764 0.0
C825 C 0.43441 0.30121 0.66819 0.0
C826 C 0.41352 0.30748 0.71362 0.0
C827 C 0.43159 0.27957 0.60819 0.0
C828 C 0.4078 0.26354 0.59162 0.0
H829 H 0.45324 0.3123 0.68003 0.0
H830 H 0.44842 0.27386 0.57646 0.0
S831 S 0.34757 0.26972 0.69434 0.0
N832 N 0.3683 0.29512 0.73775 0.0
N833 N 0.3633 0.25449 0.62541 0.0
C834 C 0.38669 0.27016 0.63552 0.0
C835 C 0.38946 0.29219 0.69636 0.0
C836 C 0.88296 0.6958 0.21012 0.0
C837 C 0.90117 0.6896 0.26363 0.0
C838 C 0.88895 0.71655 0.15168 0.0
C839 C 0.91338 0.73231 0.14463 0.0
H840 H 0.86331 0.68649 0.21545 0.0
H841 H 0.8736 0.72282 0.11494 0.0
S842 S 0.96941 0.71901 0.2636 0.0
N843 N 0.94572 0.6967 0.30113 0.0
N844 N 0.95714 0.73596 0.19091 0.0
C845 C 0.93256 0.7235 0.1944 0.0
C846 C 0.92644 0.70203 0.25397 0.0
C847 C 0.70337 0.26223 0.70434 0.0
C848 C 0.68066 0.25885 0.66465 0.0
C849 C 0.70402 0.28413 0.76396 0.0
C850 C 0.6819 0.3033 0.78669 0.0
H851 H 0.72045 0.2465 0.69089 0.0
H852 H 0.7218 0.28479 0.79389 0.0
S853 S 0.61822 0.30601 0.69674 0.0
N854 N 0.63606 0.27829 0.64868 0.0
N855 N 0.63717 0.31979 0.76079 0.0
C856 C 0.65949 0.30196 0.7448 0.0
C857 C 0.6589 0.27963 0.68375 0.0
C858 C 0.88764 0.29451 0.95883 0.0
C859 C 0.87809 0.25905 0.95198 0.0
C860 C 0.89218 0.31582 0.89953 0.0
C861 C 0.88778 0.30175 0.83242 0.0
H862 H 0.89335 0.30473 1.00951 0.0
H863 H 0.90071 0.34238 0.90594 0.0
S864 S 0.85954 0.21257 0.788 0.0
N865 N 0.8612 0.21292 0.87386 0.0
N866 N 0.87107 0.25201 0.76291 0.0
C867 C 0.87664 0.26743 0.82551 0.0
C868 C 0.87134 0.24635 0.88536 0.0
C869 C 0.67078 0.75968 0.39903 0.0
C870 C 0.66997 0.74347 0.46526 0.0
C871 C 0.67133 0.73879 0.33839 0.0
C872 C 0.67054 0.70077 0.34107 0.0
H873 H 0.6715 0.78895 0.39392 0.0
H874 H 0.6726 0.75262 0.2888 0.0
S875 S 0.66646 0.64472 0.50043 0.0
N876 N 0.66724 0.68695 0.52979 0.0
N877 N 0.66746 0.64743 0.41459 0.0
C878 C 0.66834 0.68401 0.4064 0.0
C879 C 0.66818 0.70543 0.46882 0.0
C880 C 0.69087 0.77183 0.95792 0.0
C881 C 0.66632 0.76122 0.98121 0.0
C882 C 0.69366 0.79181 0.89667 0.0
C883 C 0.67199 0.8024 0.85722 0.0
H884 H 0.70814 0.76249 0.98479 0.0
H885 H 0.71296 0.79769 0.87849 0.0
S886 S 0.60345 0.78454 0.89874 0.0
N887 N 0.61989 0.76498 0.96259 0.0
N888 N 0.62518 0.80338 0.84792 0.0
C889 C 0.64727 0.79456 0.88263 0.0
C890 C 0.64441 0.7738 0.94477 0.0
C891 C 0.85433 0.20599 0.39174 0.0
C892 C 0.87568 0.19178 0.3548 0.0
C893 C 0.85761 0.22832 0.45006 0.0
C894 C 0.88238 0.23755 0.47362 0.0
H895 H 0.83476 0.20109 0.37404 0.0
H896 H 0.84061 0.24029 0.47406 0.0
S897 S 0.94468 0.20356 0.40266 0.0
N898 N 0.92254 0.1854 0.35145 0.0
N899 N 0.92864 0.22778 0.46107 0.0
C900 C 0.90391 0.22164 0.44044 0.0
C901 C 0.90059 0.19865 0.38109 0.0
C902 C 0.70573 0.21098 0.26515 0.0
C903 C 0.68492 0.18924 0.28577 0.0
C904 C 0.70412 0.23261 0.20558 0.0
C905 C 0.6817 0.23324 0.16404 0.0
H906 H 0.72306 0.21264 0.2968 0.0
H907 H 0.72003 0.25046 0.19386 0.0
S908 S 0.62298 0.17826 0.18966 0.0
N909 N 0.64212 0.16694 0.25529 0.0
N910 N 0.63912 0.2082 0.14365 0.0
C911 C 0.66149 0.20976 0.18083 0.0
C912 C 0.66308 0.18761 0.24167 0.0
C913 C 0.93963 0.77593 0.67965 0.0
C914 C 0.91477 0.77048 0.65209 0.0
C915 C 0.94337 0.79724 0.73939 0.0
C916 C 0.92234 0.8136 0.77414 0.0
H917 H 0.95612 0.76194 0.65708 0.0
H918 H 0.96279 0.79952 0.76015 0.0
S919 S 0.8534 0.80808 0.72031 0.0
N920 N 0.86904 0.78387 0.66131 0.0
N921 N 0.87571 0.82394 0.77383 0.0
C922 C 0.89748 0.80984 0.74458 0.0
C923 C 0.89379 0.78824 0.68347 0.0
C924 C 0.39338 0.21457 0.11683 0.0
C925 C 0.41408 0.23471 0.09077 0.0
C926 C 0.39639 0.19326 0.17698 0.0
C927 C 0.42014 0.19159 0.2134 0.0
H928 H 0.37438 0.21718 0.09335 0.0
H929 H 0.37958 0.17955 0.19698 0.0
S930 S 0.48109 0.23563 0.1595 0.0
N931 N 0.4596 0.2489 0.10084 0.0
N932 N 0.46545 0.20889 0.21336 0.0
C933 C 0.4414 0.20969 0.18461 0.0
C934 C 0.4383 0.23123 0.12346 0.0
C935 C 0.19424 0.7997 0.67099 0.0
C936 C 0.17312 0.81084 0.71158 0.0
C937 C 0.19061 0.77949 0.61 0.0
C938 C 0.16574 0.76896 0.58819 0.0
H939 H 0.21379 0.80536 0.68806 0.0
H940 H 0.20753 0.76979 0.58226 0.0
S941 S 0.10399 0.79406 0.67366 0.0
N942 N 0.12641 0.8129 0.72311 0.0
N943 N 0.11956 0.77364 0.6093 0.0
C944 C 0.14434 0.78212 0.62573 0.0
C945 C 0.14805 0.8033 0.68748 0.0
C946 C 0.41329 0.76693 0.7441 0.0
C947 C 0.41979 0.80336 0.75468 0.0
C948 C 0.40828 0.74415 0.80006 0.0
C949 C 0.41064 0.75634 0.86942 0.0
H950 H 0.41212 0.75575 0.69195 0.0
H951 H 0.403 0.71637 0.78858 0.0
S952 S 0.42682 0.85017 0.92443 0.0
N953 N 0.42713 0.85167 0.83842 0.0
N954 N 0.41944 0.80801 0.94514 0.0
C955 C 0.41661 0.79315 0.88079 0.0
C956 C 0.42094 0.8168 0.82303 0.0
C957 C 0.1844 0.2374 0.31221 0.0
C958 C 0.17085 0.20543 0.29622 0.0
C959 C 0.1797 0.25674 0.37377 0.0
C960 C 0.16137 0.24489 0.4221 0.0
H961 H 0.19804 0.24858 0.27565 0.0
H962 H 0.18961 0.28219 0.38216 0.0
S963 S 0.12279 0.16107 0.41049 0.0
N964 N 0.14004 0.16095 0.3383 0.0
N965 N 0.13097 0.19819 0.45347 0.0
C966 C 0.14876 0.21205 0.40939 0.0
C967 C 0.15359 0.19207 0.34661 0.0
loop_
_geom_bond_atom_site_label_1
_geom_bond_atom_site_label_2
_geom_bond_distance
_geom_bond_site_symmetry_2
_ccdc_geom_bond_type
Co0 N4 2.148 . S
Co0 N10 2.128 . S
Co0 N20 2.194 . S
Co0 O25 2.351 . S
Co0 O26 2.155 . S
Co0 O27 2.096 . S
C1 N4 1.301 . S
C1 N5 1.328 . S
C1 H6 0.930 . S
C2 C3 1.333 . S
C2 N4 1.317 . S
C2 H7 0.930 . S
C3 C2 1.333 . S
C3 N5 1.350 . S
C3 H29 0.931 . S
N4 Co0 2.148 . S
N4 C1 1.301 . S
N4 C2 1.317 . S
N5 C1 1.328 . S
N5 C3 1.350 . S
H6 C1 0.930 . S
H7 C2 0.930 . S
C8 O9 1.224 . S
C8 O27 1.247 . S
O9 C8 1.224 . S
N10 Co0 2.128 . S
N10 C11 1.355 . S
N10 C13 1.311 . S
C11 N10 1.355 . S
C11 C12 1.363 . S
C11 H23 0.929 . S
C12 C11 1.363 . S
C12 N14 1.375 . S
C12 H30 0.931 . S
C13 N10 1.311 . S
C13 N14 1.347 . S
C13 H24 0.929 . S
N14 C12 1.375 . S
N14 C13 1.347 . S
C15 C18 1.365 . S
C15 N20 1.328 1_556 S
C15 H21 0.929 . S
C16 C17 1.362 . S
C16 C19 1.378 1_556 S
C16 H31 0.929 . S
C17 C16 1.362 . S
C17 C18 1.366 . S
C18 C15 1.365 . S
C18 C17 1.366 . S
C18 H32 0.930 . S
C19 C16 1.378 1_554 S
C19 N20 1.315 . S
C19 H22 0.930 . S
N20 Co0 2.194 . S
N20 C15 1.328 1_554 S
N20 C19 1.315 . S
H21 C15 0.929 . S
H22 C19 0.930 . S
H23 C11 0.929 . S
H24 C13 0.929 . S
O25 Co0 2.351 . S
O25 C28 1.244 . S
O26 Co0 2.155 . S
O26 C28 1.240 . S
O27 Co0 2.096 . S
O27 C8 1.247 . S
C28 O25 1.244 . S
C28 O26 1.240 . S
H29 C3 0.931 . S
H30 C12 0.931 . S
H31 C16 0.929 . S
H32 C18 0.930 . S
Co33 N37 2.148 . S
Co33 N43 2.128 . S
Co33 N53 2.194 . S
Co33 O58 2.351 . S
Co33 O59 2.155 . S
Co33 O60 2.096 . S
C34 N37 1.301 . S
C34 N38 1.328 . S
C34 H39 0.930 . S
C35 C36 1.333 . S
C35 N37 1.317 . S
C35 H40 0.930 . S
C36 C35 1.333 . S
C36 N38 1.350 . S
C36 H62 0.931 . S
N37 Co33 2.148 . S
N37 C34 1.301 . S
N37 C35 1.317 . S
N38 C34 1.328 . S
N38 C36 1.350 . S
H39 C34 0.930 . S
H40 C35 0.930 . S
C41 O42 1.224 . S
C41 O60 1.247 . S
O42 C41 1.224 . S
N43 Co33 2.128 . S
N43 C44 1.355 . S
N43 C46 1.311 . S
C44 N43 1.355 . S
C44 C45 1.363 . S
C44 H56 0.929 . S
C45 C44 1.363 . S
C45 N47 1.375 . S
C45 H63 0.931 . S
C46 N43 1.311 . S
C46 N47 1.347 . S
C46 H57 0.929 . S
N47 C45 1.375 . S
N47 C46 1.347 . S
C48 C51 1.365 . S
C48 N53 1.328 . S
C48 H54 0.929 . S
C49 C50 1.362 . S
C49 C52 1.378 . S
C49 H64 0.929 . S
C50 C49 1.362 . S
C50 C51 1.366 . S
C51 C48 1.365 . S
C51 C50 1.366 . S
C51 H65 0.930 . S
C52 C49 1.378 . S
C52 N53 1.315 . S
C52 H55 0.930 . S
N53 Co33 2.194 . S
N53 C48 1.328 . S
N53 C52 1.315 . S
H54 C48 0.929 . S
H55 C52 0.930 . S
H56 C44 0.929 . S
H57 C46 0.929 . S
O58 Co33 2.351 . S
O58 C61 1.244 . S
O59 Co33 2.155 . S
O59 C61 1.240 . S
O60 Co33 2.096 . S
O60 C41 1.247 . S
C61 O58 1.244 . S
C61 O59 1.240 . S
H62 C36 0.931 . S
H63 C45 0.931 . S
H64 C49 0.929 . S
H65 C51 0.930 . S
Co66 N70 2.148 . S
Co66 N76 2.128 . S
Co66 N86 2.194 . S
Co66 O91 2.351 . S
Co66 O92 2.155 . S
Co66 O93 2.096 . S
C67 N70 1.301 . S
C67 N71 1.328 . S
C67 H72 0.930 . S
C68 C69 1.333 . S
C68 N70 1.317 . S
C68 H73 0.930 . S
C69 C68 1.333 . S
C69 N71 1.350 . S
C69 H95 0.931 . S
N70 Co66 2.148 . S
N70 C67 1.301 . S
N70 C68 1.317 . S
N71 C67 1.328 . S
N71 C69 1.350 . S
H72 C67 0.930 . S
H73 C68 0.930 . S
C74 O75 1.224 . S
C74 O93 1.247 . S
O75 C74 1.224 . S
N76 Co66 2.128 . S
N76 C77 1.355 . S
N76 C79 1.311 . S
C77 N76 1.355 . S
C77 C78 1.363 . S
C77 H89 0.929 . S
C78 C77 1.363 . S
C78 N80 1.375 . S
C78 H96 0.931 . S
C79 N76 1.311 . S
C79 N80 1.347 . S
C79 H90 0.929 . S
N80 C78 1.375 . S
N80 C79 1.347 . S
C81 C84 1.365 . S
C81 N86 1.328 1_554 S
C81 H87 0.929 . S
C82 C83 1.362 . S
C82 C85 1.378 1_554 S
C82 H97 0.929 . S
C83 C82 1.362 . S
C83 C84 1.366 . S
C84 C81 1.365 . S
C84 C83 1.366 . S
C84 H98 0.930 . S
C85 C82 1.378 1_556 S
C85 N86 1.315 . S
C85 H88 0.930 . S
N86 Co66 2.194 . S
N86 C81 1.328 1_556 S
N86 C85 1.315 . S
H87 C81 0.929 . S
H88 C85 0.930 . S
H89 C77 0.929 . S
H90 C79 0.929 . S
O91 Co66 2.351 . S
O91 C94 1.244 . S
O92 Co66 2.155 . S
O92 C94 1.240 . S
O93 Co66 2.096 . S
O93 C74 1.247 . S
C94 O91 1.244 . S
C94 O92 1.240 . S
H95 C69 0.931 . S
H96 C78 0.931 . S
H97 C82 0.929 . S
H98 C84 0.930 . S
Co99 N103 2.148 . S
Co99 N109 2.128 . S
Co99 N119 2.194 . S
Co99 O124 2.351 . S
Co99 O125 2.155 . S
Co99 O126 2.096 . S
C100 N103 1.301 . S
C100 N104 1.328 . S
C100 H105 0.930 . S
C101 C102 1.333 . S
C101 N103 1.317 . S
C101 H106 0.930 . S
C102 C101 1.333 . S
C102 N104 1.350 . S
C102 H128 0.931 . S
N103 Co99 2.148 . S
N103 C100 1.301 . S
N103 C101 1.317 . S
N104 C100 1.328 . S
N104 C102 1.350 . S
H105 C100 0.930 . S
H106 C101 0.930 . S
C107 O108 1.224 . S
C107 O126 1.247 . S
O108 C107 1.224 . S
N109 Co99 2.128 . S
N109 C110 1.355 . S
N109 C112 1.311 . S
C110 N109 1.355 . S
C110 C111 1.363 . S
C110 H122 0.929 . S
C111 C110 1.363 . S
C111 N113 1.375 . S
C111 H129 0.931 . S
C112 N109 1.311 . S
C112 N113 1.347 . S
C112 H123 0.929 . S
N113 C111 1.375 . S
N113 C112 1.347 . S
C114 C117 1.365 . S
C114 N119 1.328 . S
C114 H120 0.929 . S
C115 C116 1.362 . S
C115 C118 1.378 . S
C115 H130 0.929 . S
C116 C115 1.362 . S
C116 C117 1.366 . S
C117 C114 1.365 . S
C117 C116 1.366 . S
C117 H131 0.930 . S
C118 C115 1.378 . S
C118 N119 1.315 . S
C118 H121 0.930 . S
N119 Co99 2.194 . S
N119 C114 1.328 . S
N119 C118 1.315 . S
H120 C114 0.929 . S
H121 C118 0.930 . S
H122 C110 0.929 . S
H123 C112 0.929 . S
O124 Co99 2.351 . S
O124 C127 1.244 . S
O125 Co99 2.155 . S
O125 C127 1.240 . S
O126 Co99 2.096 . S
O126 C107 1.247 . S
C127 O124 1.244 . S
C127 O125 1.240 . S
H128 C102 0.931 . S
H129 C111 0.931 . S
H130 C115 0.929 . S
H131 C117 0.930 . S
Co132 N136 2.148 . S
Co132 N142 2.128 . S
Co132 N152 2.194 . S
Co132 O157 2.351 . S
Co132 O158 2.155 . S
Co132 O159 2.096 . S
C133 N136 1.301 . S
C133 N137 1.328 . S
C133 H138 0.930 . S
C134 C135 1.333 . S
C134 N136 1.317 . S
C134 H139 0.930 . S
C135 C134 1.333 . S
C135 N137 1.350 . S
C135 H161 0.931 . S
N136 Co132 2.148 . S
N136 C133 1.301 . S
N136 C134 1.317 . S
N137 C133 1.328 . S
N137 C135 1.350 . S
H138 C133 0.930 . S
H139 C134 0.930 . S
C140 O141 1.224 . S
C140 O159 1.247 . S
O141 C140 1.224 . S
N142 Co132 2.128 . S
N142 C143 1.355 . S
N142 C145 1.311 . S
C143 N142 1.355 . S
C143 C144 1.363 . S
C143 H155 0.929 . S
C144 C143 1.363 . S
C144 N146 1.375 . S
C144 H162 0.931 . S
C145 N142 1.311 . S
C145 N146 1.347 . S
C145 H156 0.929 . S
N146 C144 1.375 . S
N146 C145 1.347 . S
C147 C150 1.365 . S
C147 N152 1.328 1_554 S
C147 H153 0.929 . S
C148 C149 1.362 . S
C148 C151 1.378 1_554 S
C148 H163 0.929 . S
C149 C148 1.362 . S
C149 C150 1.366 . S
C150 C147 1.365 . S
C150 C149 1.366 . S
C150 H164 0.930 . S
C151 C148 1.378 1_556 S
C151 N152 1.315 . S
C151 H154 0.930 . S
N152 Co132 2.194 . S
N152 C147 1.328 1_556 S
N152 C151 1.315 . S
H153 C147 0.929 . S
H154 C151 0.930 . S
H155 C143 0.929 . S
H156 C145 0.929 . S
O157 Co132 2.351 . S
O157 C160 1.244 . S
O158 Co132 2.155 . S
O158 C160 1.240 . S
O159 Co132 2.096 . S
O159 C140 1.247 . S
C160 O157 1.244 . S
C160 O158 1.240 . S
H161 C135 0.931 . S
H162 C144 0.931 . S
H163 C148 0.929 . S
H164 C150 0.930 . S
Co165 N169 2.148 . S
Co165 N175 2.128 . S
Co165 N185 2.194 . S
Co165 O190 2.351 . S
Co165 O191 2.155 . S
Co165 O192 2.096 . S
C166 N169 1.301 . S
C166 N170 1.328 . S
C166 H171 0.930 . S
C167 C168 1.333 . S
C167 N169 1.317 . S
C167 H172 0.930 . S
C168 C167 1.333 . S
C168 N170 1.350 . S
C168 H194 0.931 . S
N169 Co165 2.148 . S
N169 C166 1.301 . S
N169 C167 1.317 . S
N170 C166 1.328 . S
N170 C168 1.350 . S
H171 C166 0.930 . S
H172 C167 0.930 . S
C173 O174 1.224 . S
C173 O192 1.247 . S
O174 C173 1.224 . S
N175 Co165 2.128 . S
N175 C176 1.355 . S
N175 C178 1.311 . S
C176 N175 1.355 . S
C176 C177 1.363 . S
C176 H188 0.929 . S
C177 C176 1.363 . S
C177 N179 1.375 . S
C177 H195 0.931 . S
C178 N175 1.311 . S
C178 N179 1.347 . S
C178 H189 0.929 . S
N179 C177 1.375 . S
N179 C178 1.347 . S
C180 C183 1.365 . S
C180 N185 1.328 . S
C180 H186 0.929 . S
C181 C182 1.362 . S
C181 C184 1.378 . S
C181 H196 0.929 . S
C182 C181 1.362 . S
C182 C183 1.366 . S
C183 C180 1.365 . S
C183 C182 1.366 . S
C183 H197 0.930 . S
C184 C181 1.378 . S
C184 N185 1.315 . S
C184 H187 0.930 . S
N185 Co165 2.194 . S
N185 C180 1.328 . S
N185 C184 1.315 . S
H186 C180 0.929 . S
H187 C184 0.930 . S
H188 C176 0.929 . S
H189 C178 0.929 . S
O190 Co165 2.351 . S
O190 C193 1.244 . S
O191 Co165 2.155 . S
O191 C193 1.240 . S
O192 Co165 2.096 . S
O192 C173 1.247 . S
C193 O190 1.244 . S
C193 O191 1.240 . S
H194 C168 0.931 . S
H195 C177 0.931 . S
H196 C181 0.929 . S
H197 C183 0.930 . S
Co198 N202 2.148 . S
Co198 N208 2.128 . S
Co198 N218 2.194 . S
Co198 O223 2.351 . S
Co198 O224 2.155 . S
Co198 O225 2.096 . S
C199 N202 1.301 . S
C199 N203 1.328 . S
C199 H204 0.930 . S
C200 C201 1.333 . S
C200 N202 1.317 . S
C200 H205 0.930 . S
C201 C200 1.333 . S
C201 N203 1.350 . S
C201 H227 0.931 . S
N202 Co198 2.148 . S
N202 C199 1.301 . S
N202 C200 1.317 . S
N203 C199 1.328 . S
N203 C201 1.350 . S
H204 C199 0.930 . S
H205 C200 0.930 . S
C206 O207 1.224 . S
C206 O225 1.247 . S
O207 C206 1.224 . S
N208 Co198 2.128 . S
N208 C209 1.355 . S
N208 C211 1.311 . S
C209 N208 1.355 . S
C209 C210 1.363 . S
C209 H221 0.929 . S
C210 C209 1.363 . S
C210 N212 1.375 . S
C210 H228 0.931 . S
C211 N208 1.311 . S
C211 N212 1.347 . S
C211 H222 0.929 . S
N212 C210 1.375 . S
N212 C211 1.347 . S
C213 C216 1.365 . S
C213 N218 1.328 1_556 S
C213 H219 0.929 . S
C214 C215 1.362 . S
C214 C217 1.378 1_556 S
C214 H229 0.929 . S
C215 C214 1.362 . S
C215 C216 1.366 . S
C216 C213 1.365 . S
C216 C215 1.366 . S
C216 H230 0.930 . S
C217 C214 1.378 1_554 S
C217 N218 1.315 . S
C217 H220 0.930 . S
N218 Co198 2.194 . S
N218 C213 1.328 1_554 S
N218 C217 1.315 . S
H219 C213 0.929 . S
H220 C217 0.930 . S
H221 C209 0.929 . S
H222 C211 0.929 . S
O223 Co198 2.351 . S
O223 C226 1.244 . S
O224 Co198 2.155 . S
O224 C226 1.240 . S
O225 Co198 2.096 . S
O225 C206 1.247 . S
C226 O223 1.244 . S
C226 O224 1.240 . S
H227 C201 0.931 . S
H228 C210 0.931 . S
H229 C214 0.929 . S
H230 C216 0.930 . S
Co231 N235 2.148 . S
Co231 N241 2.128 . S
Co231 N251 2.194 . S
Co231 O256 2.351 . S
Co231 O257 2.155 . S
Co231 O258 2.096 . S
C232 N235 1.301 . S
C232 N236 1.328 . S
C232 H237 0.930 . S
C233 C234 1.333 . S
C233 N235 1.317 . S
C233 H238 0.930 . S
C234 C233 1.333 . S
C234 N236 1.350 . S
C234 H260 0.931 . S
N235 Co231 2.148 . S
N235 C232 1.301 . S
N235 C233 1.317 . S
N236 C232 1.328 . S
N236 C234 1.350 . S
H237 C232 0.930 . S
H238 C233 0.930 . S
C239 O240 1.224 . S
C239 O258 1.247 . S
O240 C239 1.224 . S
N241 Co231 2.128 . S
N241 C242 1.355 . S
N241 C244 1.311 . S
C242 N241 1.355 . S
C242 C243 1.363 . S
C242 H254 0.929 . S
C243 C242 1.363 . S
C243 N245 1.375 . S
C243 H261 0.931 . S
C244 N241 1.311 . S
C244 N245 1.347 . S
C244 H255 0.929 . S
N245 C243 1.375 . S
N245 C244 1.347 . S
C246 C249 1.365 . S
C246 N251 1.328 . S
C246 H252 0.929 . S
C247 C248 1.362 . S
C247 C250 1.378 . S
C247 H262 0.929 . S
C248 C247 1.362 . S
C248 C249 1.366 . S
C249 C246 1.365 . S
C249 C248 1.366 . S
C249 H263 0.930 . S
C250 C247 1.378 . S
C250 N251 1.315 . S
C250 H253 0.930 . S
N251 Co231 2.194 . S
N251 C246 1.328 . S
N251 C250 1.315 . S
H252 C246 0.929 . S
H253 C250 0.930 . S
H254 C242 0.929 . S
H255 C244 0.929 . S
O256 Co231 2.351 . S
O256 C259 1.244 . S
O257 Co231 2.155 . S
O257 C259 1.240 . S
O258 Co231 2.096 . S
O258 C239 1.247 . S
C259 O256 1.244 . S
C259 O257 1.240 . S
H260 C234 0.931 . S
H261 C243 0.931 . S
H262 C247 0.929 . S
H263 C249 0.930 . S
Co264 N268 2.148 . S
Co264 N274 2.128 . S
Co264 N284 2.194 . S
Co264 O289 2.351 . S
Co264 O290 2.155 . S
Co264 O291 2.096 . S
C265 N268 1.301 . S
C265 N269 1.328 . S
C265 H270 0.930 . S
C266 C267 1.333 . S
C266 N268 1.317 . S
C266 H271 0.930 . S
C267 C266 1.333 . S
C267 N269 1.350 . S
C267 H293 0.931 . S
N268 Co264 2.148 . S
N268 C265 1.301 . S
N268 C266 1.317 . S
N269 C265 1.328 . S
N269 C267 1.350 . S
H270 C265 0.930 . S
H271 C266 0.930 . S
C272 O273 1.224 . S
C272 O291 1.247 . S
O273 C272 1.224 . S
N274 Co264 2.128 . S
N274 C275 1.355 . S
N274 C277 1.311 . S
C275 N274 1.355 . S
C275 C276 1.363 . S
C275 H287 0.929 . S
C276 C275 1.363 . S
C276 N278 1.375 . S
C276 H294 0.931 . S
C277 N274 1.311 . S
C277 N278 1.347 . S
C277 H288 0.929 . S
N278 C276 1.375 . S
N278 C277 1.347 . S
C279 C282 1.365 . S
C279 N284 1.328 1_556 S
C279 H285 0.929 . S
C280 C281 1.362 . S
C280 C283 1.378 1_556 S
C280 H295 0.929 . S
C281 C280 1.362 . S
C281 C282 1.366 . S
C282 C279 1.365 . S
C282 C281 1.366 . S
C282 H296 0.930 . S
C283 C280 1.378 1_554 S
C283 N284 1.315 . S
C283 H286 0.930 . S
N284 Co264 2.194 . S
N284 C279 1.328 1_554 S
N284 C283 1.315 . S
H285 C279 0.929 . S
H286 C283 0.930 . S
H287 C275 0.929 . S
H288 C277 0.929 . S
O289 Co264 2.351 . S
O289 C292 1.244 . S
O290 Co264 2.155 . S
O290 C292 1.240 . S
O291 Co264 2.096 . S
O291 C272 1.247 . S
C292 O289 1.244 . S
C292 O290 1.240 . S
H293 C267 0.931 . S
H294 C276 0.931 . S
H295 C280 0.929 . S
H296 C282 0.930 . S
Co297 N301 2.148 . S
Co297 N307 2.128 . S
Co297 N317 2.194 . S
Co297 O322 2.351 . S
Co297 O323 2.155 . S
Co297 O324 2.096 . S
C298 N301 1.301 . S
C298 N302 1.328 . S
C298 H303 0.930 . S
C299 C300 1.333 . S
C299 N301 1.317 . S
C299 H304 0.930 . S
C300 C299 1.333 . S
C300 N302 1.350 . S
C300 H326 0.931 . S
N301 Co297 2.148 . S
N301 C298 1.301 . S
N301 C299 1.317 . S
N302 C298 1.328 . S
N302 C300 1.350 . S
H303 C298 0.930 . S
H304 C299 0.930 . S
C305 O306 1.224 . S
C305 O324 1.247 . S
O306 C305 1.224 . S
N307 Co297 2.128 . S
N307 C308 1.355 . S
N307 C310 1.311 . S
C308 N307 1.355 . S
C308 C309 1.363 . S
C308 H320 0.929 . S
C309 C308 1.363 . S
C309 N311 1.375 . S
C309 H327 0.931 . S
C310 N307 1.311 . S
C310 N311 1.347 . S
C310 H321 0.929 . S
N311 C309 1.375 . S
N311 C310 1.347 . S
C312 C315 1.365 . S
C312 N317 1.328 . S
C312 H318 0.929 . S
C313 C314 1.362 . S
C313 C316 1.378 . S
C313 H328 0.929 . S
C314 C313 1.362 . S
C314 C315 1.366 . S
C315 C312 1.365 . S
C315 C314 1.366 . S
C315 H329 0.930 . S
C316 C313 1.378 . S
C316 N317 1.315 . S
C316 H319 0.930 . S
N317 Co297 2.194 . S
N317 C312 1.328 . S
N317 C316 1.315 . S
H318 C312 0.929 . S
H319 C316 0.930 . S
H320 C308 0.929 . S
H321 C310 0.929 . S
O322 Co297 2.351 . S
O322 C325 1.244 . S
O323 Co297 2.155 . S
O323 C325 1.240 . S
O324 Co297 2.096 . S
O324 C305 1.247 . S
C325 O322 1.244 . S
C325 O323 1.240 . S
H326 C300 0.931 . S
H327 C309 0.931 . S
H328 C313 0.929 . S
H329 C315 0.930 . S
Co330 N334 2.148 . S
Co330 N340 2.128 . S
Co330 N350 2.194 . S
Co330 O355 2.351 . S
Co330 O356 2.155 . S
Co330 O357 2.096 . S
C331 N334 1.301 . S
C331 N335 1.328 . S
C331 H336 0.930 . S
C332 C333 1.333 . S
C332 N334 1.317 . S
C332 H337 0.930 . S
C333 C332 1.333 . S
C333 N335 1.350 . S
C333 H359 0.931 . S
N334 Co330 2.148 . S
N334 C331 1.301 . S
N334 C332 1.317 . S
N335 C331 1.328 . S
N335 C333 1.350 . S
H336 C331 0.930 . S
H337 C332 0.930 . S
C338 O339 1.224 . S
C338 O357 1.247 . S
O339 C338 1.224 . S
N340 Co330 2.128 . S
N340 C341 1.355 . S
N340 C343 1.311 . S
C341 N340 1.355 . S
C341 C342 1.363 . S
C341 H353 0.929 . S
C342 C341 1.363 . S
C342 N344 1.375 . S
C342 H360 0.931 . S
C343 N340 1.311 . S
C343 N344 1.347 . S
C343 H354 0.929 . S
N344 C342 1.375 . S
N344 C343 1.347 . S
C345 C348 1.365 . S
C345 N350 1.328 1_554 S
C345 H351 0.929 . S
C346 C347 1.362 . S
C346 C349 1.378 1_554 S
C346 H361 0.929 . S
C347 C346 1.362 . S
C347 C348 1.366 . S
C348 C345 1.365 . S
C348 C347 1.366 . S
C348 H362 0.930 . S
C349 C346 1.378 1_556 S
C349 N350 1.315 . S
C349 H352 0.930 . S
N350 Co330 2.194 . S
N350 C345 1.328 1_556 S
N350 C349 1.315 . S
H351 C345 0.929 . S
H352 C349 0.930 . S
H353 C341 0.929 . S
H354 C343 0.929 . S
O355 Co330 2.351 . S
O355 C358 1.244 . S
O356 Co330 2.155 . S
O356 C358 1.240 . S
O357 Co330 2.096 . S
O357 C338 1.247 . S
C358 O355 1.244 . S
C358 O356 1.240 . S
H359 C333 0.931 . S
H360 C342 0.931 . S
H361 C346 0.929 . S
H362 C348 0.930 . S
Co363 N367 2.148 . S
Co363 N373 2.128 . S
Co363 N383 2.194 . S
Co363 O388 2.351 . S
Co363 O389 2.155 . S
Co363 O390 2.096 . S
C364 N367 1.301 . S
C364 N368 1.328 . S
C364 H369 0.930 . S
C365 C366 1.333 . S
C365 N367 1.317 . S
C365 H370 0.930 . S
C366 C365 1.333 . S
C366 N368 1.350 . S
C366 H392 0.931 . S
N367 Co363 2.148 . S
N367 C364 1.301 . S
N367 C365 1.317 . S
N368 C364 1.328 . S
N368 C366 1.350 . S
H369 C364 0.930 . S
H370 C365 0.930 . S
C371 O372 1.224 . S
C371 O390 1.247 . S
O372 C371 1.224 . S
N373 Co363 2.128 . S
N373 C374 1.355 . S
N373 C376 1.311 . S
C374 N373 1.355 . S
C374 C375 1.363 . S
C374 H386 0.929 . S
C375 C374 1.363 . S
C375 N377 1.375 . S
C375 H393 0.931 . S
C376 N373 1.311 . S
C376 N377 1.347 . S
C376 H387 0.929 . S
N377 C375 1.375 . S
N377 C376 1.347 . S
C378 C381 1.365 . S
C378 N383 1.328 . S
C378 H384 0.929 . S
C379 C380 1.362 . S
C379 C382 1.378 . S
C379 H394 0.929 . S
C380 C379 1.362 . S
C380 C381 1.366 . S
C381 C378 1.365 . S
C381 C380 1.366 . S
C381 H395 0.930 . S
C382 C379 1.378 . S
C382 N383 1.315 . S
C382 H385 0.930 . S
N383 Co363 2.194 . S
N383 C378 1.328 . S
N383 C382 1.315 . S
H384 C378 0.929 . S
H385 C382 0.930 . S
H386 C374 0.929 . S
H387 C376 0.929 . S
O388 Co363 2.351 . S
O388 C391 1.244 . S
O389 Co363 2.155 . S
O389 C391 1.240 . S
O390 Co363 2.096 . S
O390 C371 1.247 . S
C391 O388 1.244 . S
C391 O389 1.240 . S
H392 C366 0.931 . S
H393 C375 0.931 . S
H394 C379 0.929 . S
H395 C381 0.930 . S
Co396 N400 2.148 . S
Co396 N406 2.128 . S
Co396 N416 2.194 . S
Co396 O421 2.351 . S
Co396 O422 2.155 . S
Co396 O423 2.096 . S
C397 N400 1.301 . S
C397 N401 1.328 . S
C397 H402 0.930 . S
C398 C399 1.333 . S
C398 N400 1.317 . S
C398 H403 0.930 . S
C399 C398 1.333 . S
C399 N401 1.350 . S
C399 H425 0.931 . S
N400 Co396 2.148 . S
N400 C397 1.301 . S
N400 C398 1.317 . S
N401 C397 1.328 . S
N401 C399 1.350 . S
H402 C397 0.930 . S
H403 C398 0.930 . S
C404 O405 1.224 . S
C404 O423 1.247 . S
O405 C404 1.224 . S
N406 Co396 2.128 . S
N406 C407 1.355 . S
N406 C409 1.311 . S
C407 N406 1.355 . S
C407 C408 1.363 . S
C407 H419 0.929 . S
C408 C407 1.363 . S
C408 N410 1.375 . S
C408 H426 0.931 . S
C409 N406 1.311 . S
C409 N410 1.347 . S
C409 H420 0.929 . S
N410 C408 1.375 . S
N410 C409 1.347 . S
C411 C414 1.365 . S
C411 N416 1.328 1_554 S
C411 H417 0.929 . S
C412 C413 1.362 . S
C412 C415 1.378 1_554 S
C412 H427 0.929 . S
C413 C412 1.362 . S
C413 C414 1.366 . S
C414 C411 1.365 . S
C414 C413 1.366 . S
C414 H428 0.930 . S
C415 C412 1.378 1_556 S
C415 N416 1.315 . S
C415 H418 0.930 . S
N416 Co396 2.194 . S
N416 C411 1.328 1_556 S
N416 C415 1.315 . S
H417 C411 0.929 . S
H418 C415 0.930 . S
H419 C407 0.929 . S
H420 C409 0.929 . S
O421 Co396 2.351 . S
O421 C424 1.244 . S
O422 Co396 2.155 . S
O422 C424 1.240 . S
O423 Co396 2.096 . S
O423 C404 1.247 . S
C424 O421 1.244 . S
C424 O422 1.240 . S
H425 C399 0.931 . S
H426 C408 0.931 . S
H427 C412 0.929 . S
H428 C414 0.930 . S
Co429 N433 2.148 . S
Co429 N439 2.128 . S
Co429 N449 2.194 . S
Co429 O454 2.351 . S
Co429 O455 2.155 . S
Co429 O456 2.096 . S
C430 N433 1.301 . S
C430 N434 1.328 . S
C430 H435 0.930 . S
C431 C432 1.333 . S
C431 N433 1.317 . S
C431 H436 0.930 . S
C432 C431 1.333 . S
C432 N434 1.350 . S
C432 H458 0.931 . S
N433 Co429 2.148 . S
N433 C430 1.301 . S
N433 C431 1.317 . S
N434 C430 1.328 . S
N434 C432 1.350 . S
H435 C430 0.930 . S
H436 C431 0.930 . S
C437 O438 1.224 . S
C437 O456 1.247 . S
O438 C437 1.224 . S
N439 Co429 2.128 . S
N439 C440 1.355 . S
N439 C442 1.311 . S
C440 N439 1.355 . S
C440 C441 1.363 . S
C440 H452 0.929 . S
C441 C440 1.363 . S
C441 N443 1.375 . S
C441 H459 0.931 . S
C442 N439 1.311 . S
C442 N443 1.347 . S
C442 H453 0.929 . S
N443 C441 1.375 . S
N443 C442 1.347 . S
C444 C447 1.365 . S
C444 N449 1.328 . S
C444 H450 0.929 . S
C445 C446 1.362 . S
C445 C448 1.378 . S
C445 H460 0.929 . S
C446 C445 1.362 . S
C446 C447 1.366 . S
C447 C444 1.365 . S
C447 C446 1.366 . S
C447 H461 0.930 . S
C448 C445 1.378 . S
C448 N449 1.315 . S
C448 H451 0.930 . S
N449 Co429 2.194 . S
N449 C444 1.328 . S
N449 C448 1.315 . S
H450 C444 0.929 . S
H451 C448 0.930 . S
H452 C440 0.929 . S
H453 C442 0.929 . S
O454 Co429 2.351 . S
O454 C457 1.244 . S
O455 Co429 2.155 . S
O455 C457 1.240 . S
O456 Co429 2.096 . S
O456 C437 1.247 . S
C457 O454 1.244 . S
C457 O455 1.240 . S
H458 C432 0.931 . S
H459 C441 0.931 . S
H460 C445 0.929 . S
H461 C447 0.930 . S
Co462 N466 2.148 . S
Co462 N472 2.128 . S
Co462 N482 2.194 . S
Co462 O487 2.351 . S
Co462 O488 2.155 . S
Co462 O489 2.096 . S
C463 N466 1.301 . S
C463 N467 1.328 . S
C463 H468 0.930 . S
C464 C465 1.333 . S
C464 N466 1.317 . S
C464 H469 0.930 . S
C465 C464 1.333 . S
C465 N467 1.350 . S
C465 H491 0.931 . S
N466 Co462 2.148 . S
N466 C463 1.301 . S
N466 C464 1.317 . S
N467 C463 1.328 . S
N467 C465 1.350 . S
H468 C463 0.930 . S
H469 C464 0.930 . S
C470 O471 1.224 . S
C470 O489 1.247 . S
O471 C470 1.224 . S
N472 Co462 2.128 . S
N472 C473 1.355 . S
N472 C475 1.311 . S
C473 N472 1.355 . S
C473 C474 1.363 . S
C473 H485 0.929 . S
C474 C473 1.363 . S
C474 N476 1.375 . S
C474 H492 0.931 . S
C475 N472 1.311 . S
C475 N476 1.347 . S
C475 H486 0.929 . S
N476 C474 1.375 . S
N476 C475 1.347 . S
C477 C480 1.365 . S
C477 N482 1.328 1_556 S
C477 H483 0.929 . S
C478 C479 1.362 . S
C478 C481 1.378 1_556 S
C478 H493 0.929 . S
C479 C478 1.362 . S
C479 C480 1.366 . S
C480 C477 1.365 . S
C480 C479 1.366 . S
C480 H494 0.930 . S
C481 C478 1.378 1_554 S
C481 N482 1.315 . S
C481 H484 0.930 . S
N482 Co462 2.194 . S
N482 C477 1.328 1_554 S
N482 C481 1.315 . S
H483 C477 0.929 . S
H484 C481 0.930 . S
H485 C473 0.929 . S
H486 C475 0.929 . S
O487 Co462 2.351 . S
O487 C490 1.244 . S
O488 Co462 2.155 . S
O488 C490 1.240 . S
O489 Co462 2.096 . S
O489 C470 1.247 . S
C490 O487 1.244 . S
C490 O488 1.240 . S
H491 C465 0.931 . S
H492 C474 0.931 . S
H493 C478 0.929 . S
H494 C480 0.930 . S
Co495 N499 2.148 . S
Co495 N505 2.128 . S
Co495 N515 2.194 . S
Co495 O520 2.351 . S
Co495 O521 2.155 . S
Co495 O522 2.096 . S
C496 N499 1.301 . S
C496 N500 1.328 . S
C496 H501 0.930 . S
C497 C498 1.333 . S
C497 N499 1.317 . S
C497 H502 0.930 . S
C498 C497 1.333 . S
C498 N500 1.350 . S
C498 H524 0.931 . S
N499 Co495 2.148 . S
N499 C496 1.301 . S
N499 C497 1.317 . S
N500 C496 1.328 . S
N500 C498 1.350 . S
H501 C496 0.930 . S
H502 C497 0.930 . S
C503 O504 1.224 . S
C503 O522 1.247 . S
O504 C503 1.224 . S
N505 Co495 2.128 . S
N505 C506 1.355 . S
N505 C508 1.311 . S
C506 N505 1.355 . S
C506 C507 1.363 . S
C506 H518 0.929 . S
C507 C506 1.363 . S
C507 N509 1.375 . S
C507 H525 0.931 . S
C508 N505 1.311 . S
C508 N509 1.347 . S
C508 H519 0.929 . S
N509 C507 1.375 . S
N509 C508 1.347 . S
C510 C513 1.365 . S
C510 N515 1.328 . S
C510 H516 0.929 . S
C511 C512 1.362 . S
C511 C514 1.378 . S
C511 H526 0.929 . S
C512 C511 1.362 . S
C512 C513 1.366 . S
C513 C510 1.365 . S
C513 C512 1.366 . S
C513 H527 0.930 . S
C514 C511 1.378 . S
C514 N515 1.315 . S
C514 H517 0.930 . S
N515 Co495 2.194 . S
N515 C510 1.328 . S
N515 C514 1.315 . S
H516 C510 0.929 . S
H517 C514 0.930 . S
H518 C506 0.929 . S
H519 C508 0.929 . S
O520 Co495 2.351 . S
O520 C523 1.244 . S
O521 Co495 2.155 . S
O521 C523 1.240 . S
O522 Co495 2.096 . S
O522 C503 1.247 . S
C523 O520 1.244 . S
C523 O521 1.240 . S
H524 C498 0.931 . S
H525 C507 0.931 . S
H526 C511 0.929 . S
H527 C513 0.930 . S
C528 C529 1.369 . S
C528 C530 1.419 . S
C528 H532 0.930 . S
C529 C528 1.369 . S
C529 C538 1.429 . S
C530 C528 1.419 . S
C530 C531 1.363 . S
C530 H533 0.929 . S
C531 C530 1.363 . S
C531 C537 1.428 . S
H532 C528 0.930 . S
H533 C530 0.929 . S
S534 N535 1.613 . S
S534 N536 1.610 . S
N535 S534 1.613 . S
N535 C538 1.350 . S
N536 S534 1.610 . S
N536 C537 1.351 . S
C537 C531 1.428 . S
C537 N536 1.351 . S
C537 C538 1.434 . S
C538 C529 1.429 . S
C538 N535 1.350 . S
C538 C537 1.434 . S
C539 C540 1.369 . S
C539 C541 1.419 . S
C539 H543 0.930 . S
C540 C539 1.369 . S
C540 C549 1.429 . S
C541 C539 1.419 . S
C541 C542 1.363 . S
C541 H544 0.929 . S
C542 C541 1.363 . S
C542 C548 1.428 . S
H543 C539 0.930 . S
H544 C541 0.929 . S
S545 N546 1.613 . S
S545 N547 1.610 . S
N546 S545 1.613 . S
N546 C549 1.350 . S
N547 S545 1.610 . S
N547 C548 1.351 . S
C548 C542 1.428 . S
C548 N547 1.351 . S
C548 C549 1.434 . S
C549 C540 1.429 . S
C549 N546 1.350 . S
C549 C548 1.434 . S
C550 C551 1.369 . S
C550 C552 1.419 . S
C550 H554 0.930 . S
C551 C550 1.369 . S
C551 C560 1.429 . S
C552 C550 1.419 . S
C552 C553 1.363 . S
C552 H555 0.929 . S
C553 C552 1.363 . S
C553 C559 1.428 . S
H554 C550 0.930 . S
H555 C552 0.929 . S
S556 N557 1.613 . S
S556 N558 1.610 . S
N557 S556 1.613 . S
N557 C560 1.350 . S
N558 S556 1.610 . S
N558 C559 1.351 . S
C559 C553 1.428 . S
C559 N558 1.351 . S
C559 C560 1.434 . S
C560 C551 1.429 . S
C560 N557 1.350 . S
C560 C559 1.434 . S
C561 C562 1.369 . S
C561 C563 1.419 . S
C561 H565 0.930 . S
C562 C561 1.369 . S
C562 C571 1.429 . S
C563 C561 1.419 . S
C563 C564 1.363 . S
C563 H566 0.929 . S
C564 C563 1.363 . S
C564 C570 1.428 . S
H565 C561 0.930 . S
H566 C563 0.929 . S
S567 N568 1.613 . S
S567 N569 1.610 . S
N568 S567 1.613 . S
N568 C571 1.350 . S
N569 S567 1.610 . S
N569 C570 1.351 . S
C570 C564 1.428 . S
C570 N569 1.351 . S
C570 C571 1.434 . S
C571 C562 1.429 . S
C571 N568 1.350 . S
C571 C570 1.434 . S
C572 C573 1.369 . S
C572 C574 1.419 . S
C572 H576 0.930 . S
C573 C572 1.369 . S
C573 C582 1.429 . S
C574 C572 1.419 . S
C574 C575 1.363 . S
C574 H577 0.929 . S
C575 C574 1.363 . S
C575 C581 1.428 . S
H576 C572 0.930 . S
H577 C574 0.929 . S
S578 N579 1.613 . S
S578 N580 1.610 . S
N579 S578 1.613 . S
N579 C582 1.350 . S
N580 S578 1.610 . S
N580 C581 1.351 . S
C581 C575 1.428 . S
C581 N580 1.351 . S
C581 C582 1.434 . S
C582 C573 1.429 . S
C582 N579 1.350 . S
C582 C581 1.434 . S
C583 C584 1.369 . S
C583 C585 1.419 . S
C583 H587 0.930 . S
C584 C583 1.369 . S
C584 C593 1.429 . S
C585 C583 1.419 . S
C585 C586 1.363 . S
C585 H588 0.929 . S
C586 C585 1.363 . S
C586 C592 1.428 . S
H587 C583 0.930 . S
H588 C585 0.929 . S
S589 N590 1.613 . S
S589 N591 1.610 . S
N590 S589 1.613 . S
N590 C593 1.350 . S
N591 S589 1.610 . S
N591 C592 1.351 . S
C592 C586 1.428 . S
C592 N591 1.351 . S
C592 C593 1.434 . S
C593 C584 1.429 . S
C593 N590 1.350 . S
C593 C592 1.434 . S
C594 C595 1.369 . S
C594 C596 1.419 . S
C594 H598 0.930 . S
C595 C594 1.369 . S
C595 C604 1.429 . S
C596 C594 1.419 . S
C596 C597 1.363 . S
C596 H599 0.929 . S
C597 C596 1.363 . S
C597 C603 1.428 . S
H598 C594 0.930 . S
H599 C596 0.929 . S
S600 N601 1.613 . S
S600 N602 1.610 . S
N601 S600 1.613 . S
N601 C604 1.350 . S
N602 S600 1.610 . S
N602 C603 1.351 . S
C603 C597 1.428 . S
C603 N602 1.351 . S
C603 C604 1.434 . S
C604 C595 1.429 . S
C604 N601 1.350 . S
C604 C603 1.434 . S
C605 C606 1.369 . S
C605 C607 1.419 . S
C605 H609 0.930 . S
C606 C605 1.369 . S
C606 C615 1.429 . S
C607 C605 1.419 . S
C607 C608 1.363 . S
C607 H610 0.929 . S
C608 C607 1.363 . S
C608 C614 1.428 . S
H609 C605 0.930 . S
H610 C607 0.929 . S
S611 N612 1.613 . S
S611 N613 1.610 . S
N612 S611 1.613 . S
N612 C615 1.350 . S
N613 S611 1.610 . S
N613 C614 1.351 . S
C614 C608 1.428 . S
C614 N613 1.351 . S
C614 C615 1.434 . S
C615 C606 1.429 . S
C615 N612 1.350 . S
C615 C614 1.434 . S
C616 C617 1.369 1_556 S
C616 C618 1.419 1_655 S
C616 H620 0.930 . S
C617 C616 1.369 1_554 S
C617 C626 1.429 . S
C618 C616 1.419 1_455 S
C618 C619 1.363 1_556 S
C618 H621 0.929 . S
C619 C618 1.363 1_554 S
C619 C625 1.428 . S
H620 C616 0.930 . S
H621 C618 0.929 . S
S622 N623 1.617 1_455 S
S622 N624 1.607 . S
N623 S622 1.617 1_655 S
N623 C626 1.350 . S
N624 S622 1.607 . S
N624 C625 1.351 . S
C625 C619 1.428 . S
C625 N624 1.351 . S
C625 C626 1.434 1_455 S
C626 C617 1.429 . S
C626 N623 1.350 . S
C626 C625 1.434 1_655 S
C627 C628 1.369 . S
C627 C629 1.419 . S
C627 H631 0.930 . S
C628 C627 1.369 . S
C628 C637 1.429 . S
C629 C627 1.419 . S
C629 C630 1.363 . S
C629 H632 0.929 . S
C630 C629 1.363 . S
C630 C636 1.428 . S
H631 C627 0.930 . S
H632 C629 0.929 . S
S633 N634 1.613 . S
S633 N635 1.610 . S
N634 S633 1.613 . S
N634 C637 1.350 . S
N635 S633 1.610 . S
N635 C636 1.351 . S
C636 C630 1.428 . S
C636 N635 1.351 . S
C636 C637 1.434 . S
C637 C628 1.429 . S
C637 N634 1.350 . S
C637 C636 1.434 . S
C638 C639 1.369 . S
C638 C640 1.419 1_655 S
C638 H642 0.930 1_556 S
C639 C638 1.369 . S
C639 C648 1.429 . S
C640 C638 1.419 1_455 S
C640 C641 1.363 . S
C640 H643 0.929 1_556 S
C641 C640 1.363 . S
C641 C647 1.428 . S
H642 C638 0.930 1_554 S
H643 C640 0.929 1_554 S
S644 N645 1.617 1_455 S
S644 N646 1.607 . S
N645 S644 1.617 1_655 S
N645 C648 1.350 . S
N646 S644 1.607 . S
N646 C647 1.351 . S
C647 C641 1.428 . S
C647 N646 1.351 . S
C647 C648 1.434 1_455 S
C648 C639 1.429 . S
C648 N645 1.350 . S
C648 C647 1.434 1_655 S
C649 C650 1.369 . S
C649 C651 1.419 . S
C649 H653 0.930 . S
C650 C649 1.369 . S
C650 C659 1.429 . S
C651 C649 1.419 . S
C651 C652 1.363 . S
C651 H654 0.929 . S
C652 C651 1.363 . S
C652 C658 1.428 . S
H653 C649 0.930 . S
H654 C651 0.929 . S
S655 N656 1.613 . S
S655 N657 1.610 . S
N656 S655 1.613 . S
N656 C659 1.350 . S
N657 S655 1.610 . S
N657 C658 1.351 . S
C658 C652 1.428 . S
C658 N657 1.351 . S
C658 C659 1.434 . S
C659 C650 1.429 . S
C659 N656 1.350 . S
C659 C658 1.434 . S
C660 C661 1.369 . S
C660 C662 1.419 . S
C660 H664 0.930 1_554 S
C661 C660 1.369 . S
C661 C670 1.429 . S
C662 C660 1.419 . S
C662 C663 1.363 . S
C662 H665 0.929 1_554 S
C663 C662 1.363 . S
C663 C669 1.428 . S
H664 C660 0.930 1_556 S
H665 C662 0.929 1_556 S
S666 N667 1.613 . S
S666 N668 1.610 . S
N667 S666 1.613 . S
N667 C670 1.350 . S
N668 S666 1.610 . S
N668 C669 1.351 . S
C669 C663 1.428 . S
C669 N668 1.351 . S
C669 C670 1.434 . S
C670 C661 1.429 . S
C670 N667 1.350 . S
C670 C669 1.434 . S
C671 C672 1.369 . S
C671 C673 1.419 1_455 S
C671 H675 0.930 . S
C672 C671 1.369 . S
C672 C681 1.429 . S
C673 C671 1.419 1_655 S
C673 C674 1.363 . S
C673 H676 0.929 . S
C674 C673 1.363 . S
C674 C680 1.428 . S
H675 C671 0.930 . S
H676 C673 0.929 . S
S677 N678 1.617 1_655 S
S677 N679 1.607 . S
N678 S677 1.617 1_455 S
N678 C681 1.350 . S
N679 S677 1.607 . S
N679 C680 1.351 . S
C680 C674 1.428 . S
C680 N679 1.351 . S
C680 C681 1.434 1_655 S
C681 C672 1.429 . S
C681 N678 1.350 . S
C681 C680 1.434 1_455 S
C682 C683 1.369 1_554 S
C682 C684 1.419 . S
C682 H686 0.930 . S
C683 C682 1.369 1_556 S
C683 C692 1.429 . S
C684 C682 1.419 . S
C684 C685 1.363 1_554 S
C684 H687 0.929 . S
C685 C684 1.363 1_556 S
C685 C691 1.428 . S
H686 C682 0.930 . S
H687 C684 0.929 . S
S688 N689 1.613 . S
S688 N690 1.610 . S
N689 S688 1.613 . S
N689 C692 1.350 . S
N690 S688 1.610 . S
N690 C691 1.351 . S
C691 C685 1.428 . S
C691 N690 1.351 . S
C691 C692 1.434 . S
C692 C683 1.429 . S
C692 N689 1.350 . S
C692 C691 1.434 . S
C693 C694 1.369 . S
C693 C695 1.419 1_655 S
C693 H697 0.930 . S
C694 C693 1.369 . S
C694 C703 1.429 . S
C695 C693 1.419 1_455 S
C695 C696 1.363 . S
C695 H698 0.929 . S
C696 C695 1.363 . S
C696 C702 1.428 . S
H697 C693 0.930 . S
H698 C695 0.929 . S
S699 N700 1.617 1_455 S
S699 N701 1.607 . S
N700 S699 1.617 1_655 S
N700 C703 1.350 . S
N701 S699 1.607 . S
N701 C702 1.351 . S
C702 C696 1.428 . S
C702 N701 1.351 . S
C702 C703 1.434 1_455 S
C703 C694 1.429 . S
C703 N700 1.350 . S
C703 C702 1.434 1_655 S
C704 C705 1.345 1_565 S
C704 C706 1.441 . S
C704 H708 0.933 . S
C705 C704 1.345 1_545 S
C705 C714 1.429 1_554 S
C706 C704 1.441 . S
C706 C707 1.363 1_554 S
C706 H709 0.929 . S
C707 C706 1.363 1_556 S
C707 C713 1.428 1_565 S
H708 C704 0.933 . S
H709 C706 0.929 . S
S710 N711 1.613 . S
S710 N712 1.610 . S
N711 S710 1.613 . S
N711 C714 1.350 . S
N712 S710 1.610 . S
N712 C713 1.351 . S
C713 C707 1.428 1_545 S
C713 N712 1.351 . S
C713 C714 1.434 . S
C714 C705 1.429 1_556 S
C714 N711 1.350 . S
C714 C713 1.434 . S
C715 C716 1.369 . S
C715 C717 1.419 1_565 S
C715 H719 0.930 . S
C716 C715 1.369 . S
C716 C725 1.429 . S
C717 C715 1.419 1_545 S
C717 C718 1.363 . S
C717 H720 0.929 . S
C718 C717 1.363 . S
C718 C724 1.428 . S
H719 C715 0.930 . S
H720 C717 0.929 . S
S721 N722 1.613 . S
S721 N723 1.610 1_565 S
N722 S721 1.613 . S
N722 C725 1.350 . S
N723 S721 1.610 1_545 S
N723 C724 1.351 . S
C724 C718 1.428 . S
C724 N723 1.351 . S
C724 C725 1.434 1_545 S
C725 C716 1.429 . S
C725 N722 1.350 . S
C725 C724 1.434 1_565 S
C726 C727 1.369 1_554 S
C726 C728 1.427 . S
C726 H730 0.930 . S
C727 C726 1.369 1_556 S
C727 C736 1.429 1_565 S
C728 C726 1.427 . S
C728 C729 1.354 1_565 S
C728 H731 0.930 . S
C729 C728 1.354 1_545 S
C729 C735 1.428 1_554 S
H730 C726 0.930 . S
H731 C728 0.930 . S
S732 N733 1.613 . S
S732 N734 1.610 . S
N733 S732 1.613 . S
N733 C736 1.350 . S
N734 S732 1.610 . S
N734 C735 1.351 . S
C735 C729 1.428 1_556 S
C735 N734 1.351 . S
C735 C736 1.434 . S
C736 C727 1.429 1_545 S
C736 N733 1.350 . S
C736 C735 1.434 . S
C737 C738 1.369 . S
C737 C739 1.419 1_545 S
C737 H741 0.930 . S
C738 C737 1.369 . S
C738 C747 1.419 1_545 S
C739 C737 1.419 1_565 S
C739 C740 1.363 . S
C739 H742 0.930 . S
C740 C739 1.363 . S
C740 C746 1.428 . S
H741 C737 0.930 . S
H742 C739 0.930 . S
S743 N744 1.613 . S
S743 N745 1.610 . S
N744 S743 1.613 . S
N744 C747 1.351 . S
N745 S743 1.610 . S
N745 C746 1.351 . S
C746 C740 1.428 . S
C746 N745 1.351 . S
C746 C747 1.443 . S
C747 C738 1.419 1_565 S
C747 N744 1.351 . S
C747 C746 1.443 . S
C748 C749 1.369 . S
C748 C750 1.419 . S
C748 H752 0.930 . S
C749 C748 1.369 . S
C749 C758 1.429 1_554 S
C750 C748 1.419 . S
C750 C751 1.363 1_554 S
C750 H753 0.929 . S
C751 C750 1.363 1_556 S
C751 C757 1.428 . S
H752 C748 0.930 . S
H753 C750 0.929 . S
S754 N755 1.613 . S
S754 N756 1.610 . S
N755 S754 1.613 . S
N755 C758 1.350 . S
N756 S754 1.610 . S
N756 C757 1.351 . S
C757 C751 1.428 . S
C757 N756 1.351 . S
C757 C758 1.434 . S
C758 C749 1.429 1_556 S
C758 N755 1.350 . S
C758 C757 1.434 . S
C759 C760 1.369 . S
C759 C761 1.419 . S
C759 H763 0.930 . S
C760 C759 1.369 . S
C760 C769 1.429 . S
C761 C759 1.419 . S
C761 C762 1.363 . S
C761 H764 0.929 . S
C762 C761 1.363 . S
C762 C768 1.428 . S
H763 C759 0.930 . S
H764 C761 0.929 . S
S765 N766 1.613 . S
S765 N767 1.610 . S
N766 S765 1.613 . S
N766 C769 1.350 . S
N767 S765 1.610 . S
N767 C768 1.351 . S
C768 C762 1.428 . S
C768 N767 1.351 . S
C768 C769 1.434 . S
C769 C760 1.429 . S
C769 N766 1.350 . S
C769 C768 1.434 . S
C770 C771 1.369 1_554 S
C770 C772 1.419 . S
C770 H774 0.930 . S
C771 C770 1.369 1_556 S
C771 C780 1.429 . S
C772 C770 1.419 . S
C772 C773 1.363 . S
C772 H775 0.929 . S
C773 C772 1.363 . S
C773 C779 1.428 1_554 S
H774 C770 0.930 . S
H775 C772 0.929 . S
S776 N777 1.613 . S
S776 N778 1.610 . S
N777 S776 1.613 . S
N777 C780 1.350 . S
N778 S776 1.610 . S
N778 C779 1.351 . S
C779 C773 1.428 1_556 S
C779 N778 1.351 . S
C779 C780 1.434 . S
C780 C771 1.429 . S
C780 N777 1.350 . S
C780 C779 1.434 . S
C781 C782 1.369 . S
C781 C783 1.419 . S
C781 H785 0.930 . S
C782 C781 1.369 . S
C782 C791 1.429 . S
C783 C781 1.419 . S
C783 C784 1.363 . S
C783 H786 0.929 . S
C784 C783 1.363 . S
C784 C790 1.428 . S
H785 C781 0.930 . S
H786 C783 0.929 . S
S787 N788 1.613 . S
S787 N789 1.610 . S
N788 S787 1.613 . S
N788 C791 1.350 . S
N789 S787 1.610 . S
N789 C790 1.351 . S
C790 C784 1.428 . S
C790 N789 1.351 . S
C790 C791 1.434 . S
C791 C782 1.429 . S
C791 N788 1.350 . S
C791 C790 1.434 . S
C792 C793 1.369 . S
C792 C794 1.419 . S
C792 H796 0.930 . S
C793 C792 1.369 . S
C793 C802 1.429 . S
C794 C792 1.419 . S
C794 C795 1.363 . S
C794 H797 0.929 . S
C795 C794 1.363 . S
C795 C801 1.428 . S
H796 C792 0.930 . S
H797 C794 0.929 . S
S798 N799 1.613 . S
S798 N800 1.610 . S
N799 S798 1.613 . S
N799 C802 1.350 . S
N800 S798 1.610 . S
N800 C801 1.351 . S
C801 C795 1.428 . S
C801 N800 1.351 . S
C801 C802 1.434 . S
C802 C793 1.429 . S
C802 N799 1.350 . S
C802 C801 1.434 . S
C803 C804 1.369 . S
C803 C805 1.419 . S
C803 H807 0.930 . S
C804 C803 1.369 . S
C804 C813 1.429 . S
C805 C803 1.419 . S
C805 C806 1.363 . S
C805 H808 0.929 . S
C806 C805 1.363 . S
C806 C812 1.428 . S
H807 C803 0.930 . S
H808 C805 0.929 . S
S809 N810 1.613 . S
S809 N811 1.610 . S
N810 S809 1.613 . S
N810 C813 1.350 . S
N811 S809 1.610 . S
N811 C812 1.351 . S
C812 C806 1.428 . S
C812 N811 1.351 . S
C812 C813 1.434 . S
C813 C804 1.429 . S
C813 N810 1.350 . S
C813 C812 1.434 . S
C814 C815 1.369 . S
C814 C816 1.419 . S
C814 H818 0.930 . S
C815 C814 1.369 . S
C815 C824 1.429 . S
C816 C814 1.419 . S
C816 C817 1.363 . S
C816 H819 0.929 . S
C817 C816 1.363 . S
C817 C823 1.428 . S
H818 C814 0.930 . S
H819 C816 0.929 . S
S820 N821 1.613 . S
S820 N822 1.610 . S
N821 S820 1.613 . S
N821 C824 1.350 . S
N822 S820 1.610 . S
N822 C823 1.351 . S
C823 C817 1.428 . S
C823 N822 1.351 . S
C823 C824 1.434 . S
C824 C815 1.429 . S
C824 N821 1.350 . S
C824 C823 1.434 . S
C825 C826 1.369 . S
C825 C827 1.419 . S
C825 H829 0.930 . S
C826 C825 1.369 . S
C826 C835 1.429 . S
C827 C825 1.419 . S
C827 C828 1.363 . S
C827 H830 0.929 . S
C828 C827 1.363 . S
C828 C834 1.428 . S
H829 C825 0.930 . S
H830 C827 0.929 . S
S831 N832 1.613 . S
S831 N833 1.610 . S
N832 S831 1.613 . S
N832 C835 1.350 . S
N833 S831 1.610 . S
N833 C834 1.351 . S
C834 C828 1.428 . S
C834 N833 1.351 . S
C834 C835 1.434 . S
C835 C826 1.429 . S
C835 N832 1.350 . S
C835 C834 1.434 . S
C836 C837 1.369 . S
C836 C838 1.419 . S
C836 H840 0.930 . S
C837 C836 1.369 . S
C837 C846 1.429 . S
C838 C836 1.419 . S
C838 C839 1.363 . S
C838 H841 0.929 . S
C839 C838 1.363 . S
C839 C845 1.428 . S
H840 C836 0.930 . S
H841 C838 0.929 . S
S842 N843 1.613 . S
S842 N844 1.610 . S
N843 S842 1.613 . S
N843 C846 1.350 . S
N844 S842 1.610 . S
N844 C845 1.351 . S
C845 C839 1.428 . S
C845 N844 1.351 . S
C845 C846 1.434 . S
C846 C837 1.429 . S
C846 N843 1.350 . S
C846 C845 1.434 . S
C847 C848 1.369 . S
C847 C849 1.419 . S
C847 H851 0.930 . S
C848 C847 1.369 . S
C848 C857 1.429 . S
C849 C847 1.419 . S
C849 C850 1.363 . S
C849 H852 0.929 . S
C850 C849 1.363 . S
C850 C856 1.428 . S
H851 C847 0.930 . S
H852 C849 0.929 . S
S853 N854 1.613 . S
S853 N855 1.610 . S
N854 S853 1.613 . S
N854 C857 1.350 . S
N855 S853 1.610 . S
N855 C856 1.351 . S
C856 C850 1.428 . S
C856 N855 1.351 . S
C856 C857 1.434 . S
C857 C848 1.429 . S
C857 N854 1.350 . S
C857 C856 1.434 . S
C858 C859 1.369 . S
C858 C860 1.419 . S
C858 H862 0.930 . S
C859 C858 1.369 . S
C859 C868 1.429 . S
C860 C858 1.419 . S
C860 C861 1.363 . S
C860 H863 0.929 . S
C861 C860 1.363 . S
C861 C867 1.428 . S
H862 C858 0.930 . S
H863 C860 0.929 . S
S864 N865 1.613 . S
S864 N866 1.610 . S
N865 S864 1.613 . S
N865 C868 1.350 . S
N866 S864 1.610 . S
N866 C867 1.351 . S
C867 C861 1.428 . S
C867 N866 1.351 . S
C867 C868 1.434 . S
C868 C859 1.429 . S
C868 N865 1.350 . S
C868 C867 1.434 . S
C869 C870 1.369 . S
C869 C871 1.419 . S
C869 H873 0.930 . S
C870 C869 1.369 . S
C870 C879 1.429 . S
C871 C869 1.419 . S
C871 C872 1.363 . S
C871 H874 0.929 . S
C872 C871 1.363 . S
C872 C878 1.428 . S
H873 C869 0.930 . S
H874 C871 0.929 . S
S875 N876 1.613 . S
S875 N877 1.610 . S
N876 S875 1.613 . S
N876 C879 1.350 . S
N877 S875 1.610 . S
N877 C878 1.351 . S
C878 C872 1.428 . S
C878 N877 1.351 . S
C878 C879 1.434 . S
C879 C870 1.429 . S
C879 N876 1.350 . S
C879 C878 1.434 . S
C880 C881 1.369 . S
C880 C882 1.419 . S
C880 H884 0.930 . S
C881 C880 1.369 . S
C881 C890 1.429 . S
C882 C880 1.419 . S
C882 C883 1.363 . S
C882 H885 0.929 . S
C883 C882 1.363 . S
C883 C889 1.428 . S
H884 C880 0.930 . S
H885 C882 0.929 . S
S886 N887 1.613 . S
S886 N888 1.610 . S
N887 S886 1.613 . S
N887 C890 1.350 . S
N888 S886 1.610 . S
N888 C889 1.351 . S
C889 C883 1.428 . S
C889 N888 1.351 . S
C889 C890 1.434 . S
C890 C881 1.429 . S
C890 N887 1.350 . S
C890 C889 1.434 . S
C891 C892 1.369 . S
C891 C893 1.419 . S
C891 H895 0.930 . S
C892 C891 1.369 . S
C892 C901 1.429 . S
C893 C891 1.419 . S
C893 C894 1.363 . S
C893 H896 0.929 . S
C894 C893 1.363 . S
C894 C900 1.428 . S
H895 C891 0.930 . S
H896 C893 0.929 . S
S897 N898 1.613 . S
S897 N899 1.610 . S
N898 S897 1.613 . S
N898 C901 1.350 . S
N899 S897 1.610 . S
N899 C900 1.351 . S
C900 C894 1.428 . S
C900 N899 1.351 . S
C900 C901 1.434 . S
C901 C892 1.429 . S
C901 N898 1.350 . S
C901 C900 1.434 . S
C902 C903 1.369 . S
C902 C904 1.419 . S
C902 H906 0.930 . S
C903 C902 1.369 . S
C903 C912 1.429 . S
C904 C902 1.419 . S
C904 C905 1.363 . S
C904 H907 0.929 . S
C905 C904 1.363 . S
C905 C911 1.428 . S
H906 C902 0.930 . S
H907 C904 0.929 . S
S908 N909 1.613 . S
S908 N910 1.610 . S
N909 S908 1.613 . S
N909 C912 1.350 . S
N910 S908 1.610 . S
N910 C911 1.351 . S
C911 C905 1.428 . S
C911 N910 1.351 . S
C911 C912 1.434 . S
C912 C903 1.429 . S
C912 N909 1.350 . S
C912 C911 1.434 . S
C913 C914 1.369 . S
C913 C915 1.419 . S
C913 H917 0.930 . S
C914 C913 1.369 . S
C914 C923 1.429 . S
C915 C913 1.419 . S
C915 C916 1.363 . S
C915 H918 0.929 . S
C916 C915 1.363 . S
C916 C922 1.428 . S
H917 C913 0.930 . S
H918 C915 0.929 . S
S919 N920 1.613 . S
S919 N921 1.610 . S
N920 S919 1.613 . S
N920 C923 1.350 . S
N921 S919 1.610 . S
N921 C922 1.351 . S
C922 C916 1.428 . S
C922 N921 1.351 . S
C922 C923 1.434 . S
C923 C914 1.429 . S
C923 N920 1.350 . S
C923 C922 1.434 . S
C924 C925 1.369 . S
C924 C926 1.419 . S
C924 H928 0.930 . S
C925 C924 1.369 . S
C925 C934 1.429 . S
C926 C924 1.419 . S
C926 C927 1.363 . S
C926 H929 0.929 . S
C927 C926 1.363 . S
C927 C933 1.428 . S
H928 C924 0.930 . S
H929 C926 0.929 . S
S930 N931 1.613 . S
S930 N932 1.610 . S
N931 S930 1.613 . S
N931 C934 1.350 . S
N932 S930 1.610 . S
N932 C933 1.351 . S
C933 C927 1.428 . S
C933 N932 1.351 . S
C933 C934 1.434 . S
C934 C925 1.429 . S
C934 N931 1.350 . S
C934 C933 1.434 . S
C935 C936 1.369 . S
C935 C937 1.419 . S
C935 H939 0.930 . S
C936 C935 1.369 . S
C936 C945 1.429 . S
C937 C935 1.419 . S
C937 C938 1.363 . S
C937 H940 0.929 . S
C938 C937 1.363 . S
C938 C944 1.428 . S
H939 C935 0.930 . S
H940 C937 0.929 . S
S941 N942 1.613 . S
S941 N943 1.610 . S
N942 S941 1.613 . S
N942 C945 1.350 . S
N943 S941 1.610 . S
N943 C944 1.351 . S
C944 C938 1.428 . S
C944 N943 1.351 . S
C944 C945 1.434 . S
C945 C936 1.429 . S
C945 N942 1.350 . S
C945 C944 1.434 . S
C946 C947 1.369 . S
C946 C948 1.419 . S
C946 H950 0.930 . S
C947 C946 1.369 . S
C947 C956 1.429 . S
C948 C946 1.419 . S
C948 C949 1.363 . S
C948 H951 0.929 . S
C949 C948 1.363 . S
C949 C955 1.428 . S
H950 C946 0.930 . S
H951 C948 0.929 . S
S952 N953 1.613 . S
S952 N954 1.610 . S
N953 S952 1.613 . S
N953 C956 1.350 . S
N954 S952 1.610 . S
N954 C955 1.351 . S
C955 C949 1.428 . S
C955 N954 1.351 . S
C955 C956 1.434 . S
C956 C947 1.429 . S
C956 N953 1.350 . S
C956 C955 1.434 . S
C957 C958 1.369 . S
C957 C959 1.419 . S
C957 H961 0.930 . S
C958 C957 1.369 . S
C958 C967 1.429 . S
C959 C957 1.419 . S
C959 C960 1.363 . S
C959 H962 0.929 . S
C960 C959 1.363 . S
C960 C966 1.428 . S
H961 C957 0.930 . S
H962 C959 0.929 . S
S963 N964 1.613 . S
S963 N965 1.610 . S
N964 S963 1.613 . S
N964 C967 1.350 . S
N965 S963 1.610 . S
N965 C966 1.351 . S
C966 C960 1.428 . S
C966 N965 1.351 . S
C966 C967 1.434 . S
C967 C958 1.429 . S
C967 N964 1.350 . S
C967 C966 1.434 . S
C529 N14 1.904 . S
C531 N113 1.901 . S
C540 N80 1.899 . S
C542 N47 1.902 . S
C551 N245 1.899 . S
C553 N146 1.901 . S
C562 N179 1.904 . S
C564 N212 1.902 . S
C573 N278 1.904 . S
C575 N377 1.900 . S
C584 N311 1.900 . S
C586 N344 1.900 . S
C595 N509 1.904 . S
C597 N410 1.901 . S
C606 N443 1.901 . S
C608 N476 1.900 . S
C617 N203 1.608 . S
C619 N5 1.609 . S
C628 N236 1.610 . S
C630 N38 1.610 . S
C639 N137 1.609 . S
C641 N71 1.610 . S
C650 N170 1.616 . S
C652 N104 1.615 . S
C661 N467 1.610 . S
C663 N269 1.610 . S
C672 N500 1.613 . S
C674 N302 1.613 . S
C683 N401 1.608 . S
C685 N335 1.609 . S
C694 N368 1.617 . S
C696 N434 1.616 . S
C705 C28 1.644 . S
C707 C94 1.648 . S
C716 C61 1.642 . S
C718 C127 1.647 . S
C727 C160 1.649 . S
C729 C226 1.643 . S
C738 C193 1.649 . S
C740 C259 1.643 . S
C749 C292 1.645 . S
C751 C358 1.648 . S
C760 C325 1.644 . S
C762 C391 1.645 . S
C771 C424 1.649 . S
C773 C490 1.643 . S
C782 C457 1.649 . S
C784 C523 1.643 . S
C793 C503 1.179 . S
C795 C17 1.190 . S
C804 C50 1.185 . S
C806 C470 1.186 . S
C815 C83 1.185 . S
C817 C437 1.186 . S
C826 C404 1.179 . S
C828 C116 1.190 . S
C837 C371 1.187 . S
C839 C149 1.184 . S
C848 C182 1.184 . S
C850 C338 1.182 . S
C859 C215 1.189 . S
C861 C305 1.179 . S
C870 C248 1.188 . S
C872 C272 1.185 . S
C881 C281 1.188 . S
C883 C239 1.180 . S
C892 C206 1.185 . S
C894 C314 1.188 . S
C903 C173 1.184 . S
C905 C347 1.184 . S
C914 C380 1.190 . S
C916 C140 1.180 . S
C925 C413 1.182 . S
C927 C107 1.185 . S
C936 C74 1.182 . S
C938 C446 1.185 . S
C947 C41 1.187 . S
C949 C479 1.184 . S
C958 C8 1.183 . S
C960 C512 1.184 . S
