# Generated by pormake.
# Topology noz, (5)-cn, num edge types: 1
# Building blocks:
#     Node 0, Type 0, BuildingBlock: BEQFEK_clean_sbu_0, # of connection points: 5
#     Node 1, Type 0, BuildingBlock: BEQFEK_clean_sbu_0, # of connection points: 5
#     Node 2, Type 0, BuildingBlock: BEQFEK_clean_sbu_0, # of connection points: 5
#     Node 3, Type 0, BuildingBlock: BEQFEK_clean_sbu_0, # of connection points: 5
#     Node 4, Type 0, BuildingBlock: BEQFEK_clean_sbu_0, # of connection points: 5
#     Node 5, Type 0, BuildingBlock: BEQFEK_clean_sbu_0, # of connection points: 5
#     Node 6, Type 0, BuildingBlock: BEQFEK_clean_sbu_0, # of connection points: 5
#     Node 7, Type 0, BuildingBlock: BEQFEK_clean_sbu_0, # of connection points: 5
#     Edge 8, Type (0, 0), BuildingBlock: MIFKUJ_clean_linker_0, # of connection points: 2
#     Edge 9, Type (0, 0), BuildingBlock: MIFKUJ_clean_linker_0, # of connection points: 2
#     Edge 10, Type (0, 0), BuildingBlock: MIFKUJ_clean_linker_0, # of connection points: 2
#     Edge 11, Type (0, 0), BuildingBlock: MIFKUJ_clean_linker_0, # of connection points: 2
#     Edge 12, Type (0, 0), BuildingBlock: MIFKUJ_clean_linker_0, # of connection points: 2
#     Edge 13, Type (0, 0), BuildingBlock: MIFKUJ_clean_linker_0, # of connection points: 2
#     Edge 14, Type (0, 0), BuildingBlock: MIFKUJ_clean_linker_0, # of connection points: 2
#     Edge 15, Type (0, 0), BuildingBlock: MIFKUJ_clean_linker_0, # of connection points: 2
#     Edge 16, Type (0, 0), BuildingBlock: MIFKUJ_clean_linker_0, # of connection points: 2
#     Edge 17, Type (0, 0), BuildingBlock: MIFKUJ_clean_linker_0, # of connection points: 2
#     Edge 18, Type (0, 0), BuildingBlock: MIFKUJ_clean_linker_0, # of connection points: 2
#     Edge 19, Type (0, 0), BuildingBlock: MIFKUJ_clean_linker_0, # of connection points: 2
#     Edge 20, Type (0, 0), BuildingBlock: MIFKUJ_clean_linker_0, # of connection points: 2
#     Edge 21, Type (0, 0), BuildingBlock: MIFKUJ_clean_linker_0, # of connection points: 2
#     Edge 22, Type (0, 0), BuildingBlock: MIFKUJ_clean_linker_0, # of connection points: 2
#     Edge 23, Type (0, 0), BuildingBlock: MIFKUJ_clean_linker_0, # of connection points: 2
#     Edge 24, Type (0, 0), BuildingBlock: MIFKUJ_clean_linker_0, # of connection points: 2
#     Edge 25, Type (0, 0), BuildingBlock: MIFKUJ_clean_linker_0, # of connection points: 2
#     Edge 26, Type (0, 0), BuildingBlock: MIFKUJ_clean_linker_0, # of connection points: 2
#     Edge 27, Type (0, 0), BuildingBlock: MIFKUJ_clean_linker_0, # of connection points: 2
# Relax obj value: 0.085
# Max RMSD: 0.167
# Mean RMSD: 0.118
data_MOF--net-noz--node1-BEQFEK_clean_sbu_0--edge1-MIFKUJ_clean_linker_0
_symmetry_space_group_name_H-M    P1
_symmetry_Int_Tables_number       1
_symmetry_cell_setting            triclinic
loop_
_symmetry_equiv_pos_as_xyz
'x, y, z'
_cell_length_a     30.813691
_cell_length_b     55.271914
_cell_length_c     54.573079
_cell_angle_alpha  88.811549
_cell_angle_beta   94.894543
_cell_angle_gamma 83.51435
loop_
_atom_site_label
_atom_site_type_symbol
_atom_site_fract_x
_atom_site_fract_y
_atom_site_fract_z
_atom_type_partial_charge
Co0 Co 0.09271 0.35853 0.37474 0.0
Co1 Co 0.02128 0.34467 0.40872 0.0
C2 C 0.11189 0.3188 0.41464 0.0
O3 O 0.12327 0.33206 0.39745 0.0
O4 O 0.07263 0.32111 0.42072 0.0
C5 C 0.17326 0.35974 0.35203 0.0
O6 O 0.1907 0.35071 0.37355 0.0
C7 C 0.95673 0.3172 0.43068 0.0
C8 C 0.90985 0.34732 0.44196 0.0
C9 C 0.91735 0.32218 0.44121 0.0
N10 N 0.97156 0.33849 0.42534 0.0
N11 N 0.94367 0.35638 0.43242 0.0
C12 C 0.97817 0.29293 0.42389 0.0
H13 H 0.99948 0.29509 0.40877 0.0
H14 H 0.95313 0.28069 0.4183 0.0
H15 H 0.99889 0.28444 0.44013 0.0
C16 C 0.02322 0.34851 0.33613 0.0
N17 N 0.03894 0.34935 0.3599 0.0
N18 N 0.00861 0.34405 0.37406 0.0
C19 C 0.97222 0.34027 0.35976 0.0
C20 C 0.98032 0.34274 0.33519 0.0
C21 C 0.04931 0.35281 0.31487 0.0
H22 H 0.0823 0.34237 0.31808 0.0
H23 H 0.03309 0.34722 0.2973 0.0
H24 H 0.05365 0.37244 0.31351 0.0
O25 O 0.08223 0.38883 0.39383 0.0
O26 O 0.03356 0.3775 0.41814 0.0
H27 H 0.90143 0.34019 0.35494 0.0
H28 H 0.93029 0.31861 0.37767 0.0
C29 C 0.92905 0.33723 0.36948 0.0
H30 H 0.92259 0.35055 0.38397 0.0
H31 H 0.94711 0.37483 0.43011 0.0
O32 O 0.13187 0.36487 0.3486 0.0
C33 C 0.05743 0.39319 0.41115 0.0
Co34 Co 0.50727 0.64269 0.87428 0.0
Co35 Co 0.58328 0.65648 0.91209 0.0
C36 C 0.49654 0.68574 0.90805 0.0
O37 O 0.48261 0.67154 0.89183 0.0
O38 O 0.53622 0.68286 0.9173 0.0
C39 C 0.423 0.64212 0.84856 0.0
O40 O 0.41028 0.64891 0.86999 0.0
C41 C 0.65023 0.68192 0.94019 0.0
C42 C 0.70088 0.65116 0.95117 0.0
C43 C 0.6913 0.67613 0.95293 0.0
N44 N 0.63631 0.66127 0.93143 0.0
N45 N 0.66668 0.64298 0.93819 0.0
C46 C 0.62602 0.70671 0.9347 0.0
H47 H 0.60613 0.70702 0.91673 0.0
H48 H 0.64908 0.72073 0.93434 0.0
H49 H 0.60351 0.71114 0.9492 0.0
C50 C 0.57641 0.64534 0.84018 0.0
N51 N 0.5618 0.64773 0.86267 0.0
N52 N 0.59344 0.6539 0.87821 0.0
C53 C 0.62919 0.65584 0.86597 0.0
C54 C 0.61969 0.6504 0.84147 0.0
C55 C 0.55025 0.63649 0.81848 0.0
H56 H 0.53343 0.62089 0.82431 0.0
H57 H 0.52472 0.6513 0.81132 0.0
H58 H 0.57114 0.63075 0.80358 0.0
O59 O 0.51407 0.61419 0.8975 0.0
O60 O 0.56435 0.62583 0.92511 0.0
H61 H 0.68881 0.6479 0.88912 0.0
H62 H 0.69286 0.66827 0.86329 0.0
C63 C 0.67137 0.66323 0.87743 0.0
H64 H 0.66445 0.67901 0.88926 0.0
H65 H 0.66424 0.62489 0.9337 0.0
O66 O 0.46381 0.63773 0.84615 0.0
C67 C 0.53775 0.61085 0.91786 0.0
Co68 Co 0.059 0.6573 0.56653 0.0
Co69 Co 0.99314 0.63356 0.59784 0.0
C70 C 0.96349 0.67608 0.56277 0.0
O71 O 1.00231 0.67704 0.55683 0.0
O72 O 0.95524 0.66024 0.5785 0.0
C73 C 0.10315 0.69595 0.54936 0.0
O74 O 0.07033 0.70927 0.55819 0.0
C75 C 0.93044 0.63294 0.63523 0.0
C76 C 0.93411 0.59376 0.64509 0.0
C77 C 0.91423 0.61651 0.65069 0.0
N78 N 0.95851 0.62048 0.62121 0.0
N79 N 0.96025 0.59704 0.62703 0.0
C80 C 0.92264 0.66016 0.63511 0.0
H81 H 0.95099 0.66817 0.62833 0.0
H82 H 0.91704 0.66665 0.65382 0.0
H83 H 0.89309 0.66639 0.62253 0.0
C84 C 0.10696 0.659 0.61573 0.0
N85 N 0.07132 0.65469 0.60114 0.0
N86 N 0.04407 0.64464 0.61444 0.0
C87 C 0.06173 0.64216 0.638 0.0
C88 C 0.10218 0.65119 0.63959 0.0
C89 C 0.14511 0.67003 0.60677 0.0
H90 H 0.15927 0.65861 0.59229 0.0
H91 H 0.1335 0.68834 0.59851 0.0
H92 H 0.17086 0.67203 0.62183 0.0
O93 O 0.05761 0.62447 0.5529 0.0
O94 O 0.01117 0.60738 0.57495 0.0
H95 H 0.03448 0.61097 0.65122 0.0
H96 H 0.06573 0.6257 0.67473 0.0
C97 C 0.04271 0.62883 0.65792 0.0
H98 H 0.0121 0.63954 0.66266 0.0
H99 H 0.98003 0.58334 0.61906 0.0
O100 O 0.10527 0.67288 0.55116 0.0
C101 C 0.03712 0.60646 0.55789 0.0
Co102 Co 0.49727 0.36961 0.11387 0.0
Co103 Co 0.56551 0.35237 0.0764 0.0
C104 C 0.4852 0.32834 0.07846 0.0
O105 O 0.47237 0.343 0.09481 0.0
O106 O 0.52217 0.32915 0.06989 0.0
C107 C 0.45571 0.3582 0.15619 0.0
O108 O 0.47818 0.33693 0.15339 0.0
C109 C 0.63455 0.32506 0.04936 0.0
C110 C 0.66185 0.35587 0.03209 0.0
C111 C 0.66565 0.33071 0.03384 0.0
N112 N 0.61346 0.34604 0.05655 0.0
N113 N 0.63012 0.36432 0.04618 0.0
C114 C 0.62354 0.30022 0.05609 0.0
H115 H 0.59181 0.30131 0.06434 0.0
H116 H 0.64939 0.29123 0.06972 0.0
H117 H 0.62245 0.28884 0.03957 0.0
C118 C 0.57884 0.3612 0.14856 0.0
N119 N 0.55706 0.36033 0.12609 0.0
N120 N 0.58534 0.35278 0.1103 0.0
C121 C 0.62574 0.34852 0.12222 0.0
C122 C 0.62294 0.35364 0.14683 0.0
C123 C 0.55881 0.37129 0.17077 0.0
H124 H 0.53185 0.3859 0.16525 0.0
H125 H 0.54533 0.35649 0.18067 0.0
H126 H 0.58372 0.37864 0.18356 0.0
O127 O 0.49307 0.39963 0.09243 0.0
O128 O 0.53782 0.38504 0.06508 0.0
H129 H 0.67289 0.35384 0.09664 0.0
H130 H 0.69524 0.33578 0.12377 0.0
C131 C 0.66628 0.33979 0.1102 0.0
H132 H 0.66096 0.32299 0.10025 0.0
H133 H 0.61948 0.38266 0.04853 0.0
O134 O 0.4593 0.37574 0.14133 0.0
C135 C 0.51129 0.40204 0.07255 0.0
Co136 Co 0.59621 0.86295 0.37474 0.0
Co137 Co 0.52855 0.84527 0.40931 0.0
C138 C 0.61886 0.821 0.41308 0.0
O139 O 0.62839 0.83557 0.39639 0.0
O140 O 0.58016 0.82202 0.4198 0.0
C141 C 0.64351 0.85312 0.33284 0.0
O142 O 0.62542 0.83276 0.33404 0.0
C143 C 0.46658 0.81962 0.437 0.0
C144 C 0.41261 0.84949 0.43774 0.0
C145 C 0.42474 0.82526 0.44468 0.0
N146 N 0.47796 0.83955 0.42565 0.0
N147 N 0.44566 0.85732 0.42641 0.0
C148 C 0.49612 0.79625 0.4413 0.0
H149 H 0.53067 0.79998 0.44424 0.0
H150 H 0.49273 0.78493 0.42484 0.0
H151 H 0.48787 0.78597 0.45762 0.0
C152 C 0.51997 0.85827 0.33756 0.0
N153 N 0.54078 0.85508 0.36041 0.0
N154 N 0.51498 0.84534 0.37485 0.0
C155 C 0.47815 0.84081 0.36151 0.0
C156 C 0.47942 0.8493 0.33746 0.0
C157 C 0.53617 0.87232 0.31714 0.0
H158 H 0.55897 0.88504 0.32466 0.0
H159 H 0.55382 0.85944 0.30506 0.0
H160 H 0.50839 0.8828 0.30584 0.0
O161 O 0.58709 0.89215 0.39503 0.0
O162 O 0.54072 0.87828 0.4194 0.0
H163 H 0.42006 0.8407 0.38035 0.0
H164 H 0.42487 0.81858 0.35661 0.0
C165 C 0.44331 0.82759 0.37148 0.0
H166 H 0.45837 0.81356 0.3854 0.0
H167 H 0.44598 0.87479 0.41884 0.0
O168 O 0.63533 0.86931 0.34857 0.0
C169 C 0.5631 0.89495 0.4129 0.0
Co170 Co 1.00289 0.14793 0.87731 0.0
Co171 Co 0.08318 0.15704 0.91464 0.0
C172 C 0.99777 0.18816 0.9138 0.0
O173 O 0.98154 0.17672 0.89587 0.0
O174 O 0.03693 0.18247 0.92319 0.0
C175 C 0.91714 0.15075 0.85185 0.0
O176 O 0.90519 0.1585 0.87313 0.0
C177 C 0.15087 0.18151 0.9427 0.0
C178 C 0.20328 0.15107 0.95124 0.0
C179 C 0.19274 0.17579 0.9544 0.0
N180 N 0.13732 0.1611 0.9332 0.0
N181 N 0.16873 0.14296 0.93849 0.0
C182 C 0.12542 0.20619 0.93881 0.0
H183 H 0.1055 0.20731 0.92081 0.0
H184 H 0.14758 0.2207 0.93943 0.0
H185 H 0.10281 0.20917 0.95352 0.0
C186 C 0.07021 0.15074 0.84205 0.0
N187 N 0.05716 0.15231 0.86497 0.0
N188 N 0.09026 0.15705 0.8803 0.0
C189 C 0.12535 0.15896 0.86752 0.0
C190 C 0.11395 0.15488 0.84287 0.0
C191 C 0.04216 0.14329 0.82038 0.0
H192 H 0.02473 0.12781 0.82586 0.0
H193 H 0.01712 0.15874 0.81426 0.0
H194 H 0.06174 0.13788 0.80485 0.0
O195 O 0.00898 0.11851 0.89966 0.0
O196 O 0.06574 0.12544 0.92549 0.0
H197 H 0.18619 0.14865 0.88894 0.0
H198 H 0.18952 0.1706 0.86438 0.0
C199 C 0.16882 0.16491 0.87864 0.0
H200 H 0.16383 0.17987 0.89167 0.0
H201 H 0.16675 0.12507 0.93315 0.0
O202 O 0.95763 0.14466 0.84955 0.0
C203 C 0.03588 0.1123 0.91841 0.0
Co204 Co 0.55518 0.15833 0.56953 0.0
Co205 Co 0.4897 0.13459 0.60105 0.0
C206 C 0.45964 0.17678 0.56542 0.0
O207 O 0.4984 0.17803 0.55947 0.0
O208 O 0.45185 0.16095 0.58128 0.0
C209 C 0.5954 0.18488 0.53392 0.0
O210 O 0.55585 0.18707 0.52244 0.0
C211 C 0.42657 0.13491 0.63807 0.0
C212 C 0.42885 0.09591 0.64839 0.0
C213 C 0.40937 0.11888 0.65352 0.0
N214 N 0.45474 0.12201 0.62446 0.0
N215 N 0.45571 0.09867 0.63056 0.0
C216 C 0.41946 0.16215 0.63752 0.0
H217 H 0.44834 0.16979 0.63093 0.0
H218 H 0.41341 0.169 0.65605 0.0
H219 H 0.39042 0.16844 0.62459 0.0
C220 C 0.60184 0.16179 0.61874 0.0
N221 N 0.56694 0.15645 0.60415 0.0
N222 N 0.54021 0.14611 0.61754 0.0
C223 C 0.55765 0.14428 0.64115 0.0
C224 C 0.59735 0.15416 0.64271 0.0
C225 C 0.63886 0.1738 0.60967 0.0
H226 H 0.62556 0.18956 0.5973 0.0
H227 H 0.66006 0.18023 0.62508 0.0
H228 H 0.65884 0.16065 0.59889 0.0
O229 O 0.5542 0.12521 0.55648 0.0
O230 O 0.50797 0.1081 0.57865 0.0
H231 H 0.53008 0.11319 0.65441 0.0
H232 H 0.56269 0.12739 0.67772 0.0
C233 C 0.53908 0.13088 0.66119 0.0
H234 H 0.50896 0.14175 0.66641 0.0
H235 H 0.47533 0.0847 0.62288 0.0
O236 O 0.60252 0.1732 0.55443 0.0
C237 C 0.53404 0.10712 0.56166 0.0
Co238 Co 0.99939 0.8686 0.1118 0.0
Co239 Co 0.07071 0.84781 0.07738 0.0
C240 C 0.98934 0.82549 0.07739 0.0
O241 O 0.97616 0.84125 0.09271 0.0
O242 O 0.02746 0.82481 0.06986 0.0
C243 C 0.91974 0.87287 0.13537 0.0
O244 O 0.90388 0.86695 0.11349 0.0
C245 C 0.14008 0.82118 0.05002 0.0
C246 C 0.18249 0.85045 0.04581 0.0
C247 C 0.17871 0.82634 0.04059 0.0
N248 N 0.12214 0.8414 0.06035 0.0
N249 N 0.14755 0.8588 0.05759 0.0
C250 C 0.12207 0.79719 0.05092 0.0
H251 H 0.10307 0.7959 0.06718 0.0
H252 H 0.14886 0.7819 0.05163 0.0
H253 H 0.09966 0.79569 0.03413 0.0
C254 C 0.07822 0.8618 0.14827 0.0
N255 N 0.05792 0.85929 0.12571 0.0
N256 N 0.08655 0.84882 0.11156 0.0
C257 C 0.12549 0.84353 0.1248 0.0
C258 C 0.12197 0.85194 0.14848 0.0
C259 C 0.05695 0.87543 0.16832 0.0
H260 H 0.03159 0.88994 0.16033 0.0
H261 H 0.04077 0.86262 0.17944 0.0
H262 H 0.08145 0.88372 0.18057 0.0
O263 O 0.99753 0.89759 0.08924 0.0
O264 O 0.04507 0.88047 0.06462 0.0
H265 H 0.18264 0.84255 0.10503 0.0
H266 H 0.18736 0.82058 0.13032 0.0
C267 C 0.1648 0.82976 0.11515 0.0
H268 H 0.15434 0.81582 0.10231 0.0
H269 H 0.14128 0.87636 0.06409 0.0
O270 O 0.96024 0.8756 0.13882 0.0
C271 C 0.01836 0.89841 0.07009 0.0
H272 H 0.26017 0.34379 0.35118 0.0
H273 H 0.30626 0.3476 0.31752 0.0
H274 H 0.19698 0.38714 0.27349 0.0
H275 H 0.15007 0.38259 0.30694 0.0
H276 H 0.23723 0.35605 0.24621 0.0
H277 H 0.28477 0.41583 0.3 0.0
H278 H 0.31063 0.43334 0.33903 0.0
H279 H 0.42773 0.38276 0.34363 0.0
H280 H 0.4023 0.3647 0.30479 0.0
H281 H 0.38398 0.39178 0.15864 0.0
H282 H 0.33429 0.39569 0.19159 0.0
H283 H 0.41336 0.33654 0.23253 0.0
H284 H 0.46239 0.33207 0.19945 0.0
H285 H 0.38596 0.38233 0.25971 0.0
H286 H 0.33069 0.3212 0.20599 0.0
H287 H 0.3034 0.30669 0.16576 0.0
H288 H 0.1982 0.36508 0.15994 0.0
H289 H 0.22534 0.38015 0.2 0.0
C290 C 0.24592 0.35343 0.33441 0.0
C291 C 0.20146 0.36298 0.3318 0.0
C292 C 0.27245 0.35574 0.31518 0.0
C293 C 0.25541 0.36806 0.29305 0.0
C294 C 0.21097 0.37763 0.29039 0.0
C295 C 0.18422 0.37508 0.30956 0.0
C296 C 0.28374 0.37006 0.27249 0.0
C297 C 0.26939 0.36225 0.24914 0.0
C298 C 0.32593 0.37801 0.27616 0.0
C299 C 0.34143 0.38878 0.29956 0.0
C300 C 0.31588 0.40831 0.30942 0.0
C301 C 0.33049 0.41835 0.3315 0.0
C302 C 0.37075 0.40913 0.34383 0.0
C303 C 0.39653 0.38987 0.33407 0.0
C304 C 0.38206 0.37974 0.31201 0.0
C305 C 0.39085 0.37971 0.17473 0.0
C306 C 0.42692 0.36155 0.17647 0.0
C307 C 0.36246 0.38194 0.19347 0.0
C308 C 0.37025 0.36638 0.2144 0.0
C309 C 0.40691 0.34872 0.21649 0.0
C310 C 0.43472 0.34612 0.19756 0.0
C311 C 0.33956 0.36794 0.23389 0.0
C312 C 0.35354 0.37644 0.25692 0.0
C313 C 0.29677 0.3611 0.22982 0.0
C314 C 0.28037 0.35198 0.20582 0.0
C315 C 0.30202 0.33109 0.19601 0.0
C316 C 0.28652 0.32273 0.17326 0.0
C317 C 0.24918 0.33501 0.16025 0.0
C318 C 0.22718 0.35562 0.17001 0.0
C319 C 0.2426 0.36407 0.19273 0.0
H320 H 0.23722 0.32851 0.14265 0.0
H321 H 0.38201 0.41694 0.36092 0.0
H322 H 0.436 0.62348 0.80324 0.0
H323 H 0.38186 0.62317 0.76777 0.0
H324 H 0.28226 0.65889 0.80989 0.0
H325 H 0.33572 0.65846 0.84559 0.0
H326 H 0.24896 0.62546 0.78395 0.0
H327 H 0.33548 0.68998 0.76637 0.0
H328 H 0.40379 0.70797 0.76073 0.0
H329 H 0.43076 0.65927 0.70221 0.0
H330 H 0.36287 0.64077 0.70772 0.0
H331 H 0.09252 0.66946 0.68502 0.0
H332 H 0.14753 0.66664 0.72058 0.0
H333 H 0.24093 0.62623 0.67782 0.0
H334 H 0.18599 0.62912 0.64232 0.0
H335 H 0.27798 0.66092 0.70353 0.0
H336 H 0.18893 0.59765 0.72043 0.0
H337 H 0.11949 0.5808 0.72582 0.0
H338 H 0.09621 0.62837 0.7857 0.0
H339 H 0.16521 0.6458 0.7804 0.0
C340 C 0.40251 0.63115 0.80497 0.0
C341 C 0.39022 0.64107 0.82722 0.0
C342 C 0.37161 0.63109 0.78463 0.0
C343 C 0.32805 0.64139 0.78598 0.0
C344 C 0.31561 0.65086 0.80834 0.0
C345 C 0.3463 0.65065 0.82875 0.0
C346 C 0.29541 0.6426 0.76412 0.0
C347 C 0.25516 0.63347 0.76646 0.0
C348 C 0.30369 0.6526 0.74108 0.0
C349 C 0.34433 0.66384 0.73762 0.0
C350 C 0.35613 0.683 0.75241 0.0
C351 C 0.39475 0.6933 0.74922 0.0
C352 C 0.42166 0.68472 0.73117 0.0
C353 C 0.40992 0.66587 0.71621 0.0
C354 C 0.37136 0.65549 0.71934 0.0
C355 C 0.12482 0.65997 0.68334 0.0
C356 C 0.13527 0.64961 0.66103 0.0
C357 C 0.15615 0.65831 0.7036 0.0
C358 C 0.19828 0.64605 0.70192 0.0
C359 C 0.20872 0.63582 0.67953 0.0
C360 C 0.17741 0.6375 0.65929 0.0
C361 C 0.23156 0.64393 0.72345 0.0
C362 C 0.27188 0.65286 0.72103 0.0
C363 C 0.22325 0.63388 0.74643 0.0
C364 C 0.18206 0.62318 0.74988 0.0
C365 C 0.16887 0.60463 0.73464 0.0
C366 C 0.12959 0.59496 0.73769 0.0
C367 C 0.1034 0.60354 0.75606 0.0
C368 C 0.11651 0.62176 0.77147 0.0
C369 C 0.15571 0.63153 0.76846 0.0
H370 H 0.073 0.59605 0.75839 0.0
H371 H 0.45155 0.69271 0.72874 0.0
H372 H 0.9203 0.59485 0.69612 0.0
H373 H 0.87005 0.60193 0.72822 0.0
H374 H 0.78857 0.65545 0.68086 0.0
H375 H 0.83955 0.64882 0.64894 0.0
H376 H 0.7942 0.67132 0.7256 0.0
H377 H 0.76147 0.59622 0.69042 0.0
H378 H 0.77736 0.5543 0.67633 0.0
H379 H 0.82577 0.52996 0.74986 0.0
H380 H 0.8107 0.57181 0.76434 0.0
H381 H 0.60717 0.67159 0.79545 0.0
H382 H 0.65687 0.66706 0.76254 0.0
H383 H 0.74982 0.61976 0.81044 0.0
H384 H 0.69999 0.62407 0.84319 0.0
H385 H 0.73596 0.60126 0.76455 0.0
H386 H 0.76783 0.67752 0.79908 0.0
H387 H 0.7494 0.71954 0.81232 0.0
H388 H 0.69876 0.74169 0.73854 0.0
H389 H 0.71633 0.6997 0.72492 0.0
C390 C 0.8917 0.60816 0.69261 0.0
C391 C 0.884 0.62142 0.67013 0.0
C392 C 0.86287 0.61213 0.71091 0.0
C393 C 0.82503 0.62896 0.70687 0.0
C394 C 0.81753 0.64241 0.68447 0.0
C395 C 0.84676 0.63868 0.66626 0.0
C396 C 0.79329 0.63238 0.72596 0.0
C397 C 0.78099 0.65602 0.73383 0.0
C398 C 0.77641 0.61242 0.73704 0.0
C399 C 0.78531 0.5872 0.72842 0.0
C400 C 0.77577 0.58196 0.70355 0.0
C401 C 0.7846 0.55821 0.6955 0.0
C402 C 0.80266 0.53949 0.71218 0.0
C403 C 0.81182 0.54448 0.73696 0.0
C404 C 0.80311 0.56821 0.7451 0.0
C405 C 0.63826 0.66027 0.79886 0.0
C406 C 0.64997 0.64825 0.82179 0.0
C407 C 0.66667 0.65778 0.78016 0.0
C408 C 0.7072 0.64321 0.78411 0.0
C409 C 0.71877 0.63113 0.80702 0.0
C410 C 0.69048 0.63371 0.82573 0.0
C411 C 0.73728 0.64011 0.76426 0.0
C412 C 0.74915 0.61653 0.75623 0.0
C413 C 0.75334 0.66013 0.75288 0.0
C414 C 0.74299 0.68541 0.76103 0.0
C415 C 0.75244 0.69131 0.78572 0.0
C416 C 0.74221 0.71513 0.79329 0.0
C417 C 0.72281 0.73326 0.7763 0.0
C418 C 0.71372 0.72762 0.75169 0.0
C419 C 0.72384 0.70382 0.74403 0.0
H420 H 0.71491 0.75169 0.7822 0.0
H421 H 0.80947 0.52111 0.70591 0.0
H422 H 0.69406 0.37858 0.1477 0.0
H423 H 0.75615 0.37599 0.17917 0.0
H424 H 0.69621 0.32361 0.22097 0.0
H425 H 0.63316 0.3271 0.18987 0.0
H426 H 0.73105 0.35226 0.25118 0.0
H427 H 0.78275 0.30722 0.18406 0.0
H428 H 0.79699 0.29957 0.14096 0.0
H429 H 0.88046 0.35678 0.14197 0.0
H430 H 0.86611 0.36507 0.18498 0.0
H431 H 0.92684 0.30761 0.32479 0.0
H432 H 0.86784 0.30838 0.29154 0.0
H433 H 0.90388 0.37584 0.26278 0.0
H434 H 0.96178 0.37567 0.2966 0.0
H435 H 0.88277 0.33795 0.22615 0.0
H436 H 0.82641 0.38212 0.29503 0.0
H437 H 0.81387 0.38567 0.3389 0.0
H438 H 0.74005 0.32425 0.33473 0.0
H439 H 0.75291 0.32004 0.29092 0.0
C440 C 0.69426 0.36661 0.1637 0.0
C441 C 0.65935 0.35283 0.16638 0.0
C442 C 0.72979 0.365 0.18159 0.0
C443 C 0.73152 0.34913 0.20222 0.0
C444 C 0.69585 0.33587 0.20519 0.0
C445 C 0.65993 0.33782 0.18746 0.0
C446 C 0.77053 0.34636 0.22059 0.0
C447 C 0.76411 0.34882 0.24564 0.0
C448 C 0.81392 0.34199 0.2135 0.0
C449 C 0.82302 0.33692 0.18769 0.0
C450 C 0.8039 0.31829 0.17505 0.0
C451 C 0.81201 0.31383 0.15063 0.0
C452 C 0.83954 0.32772 0.13872 0.0
C453 C 0.8591 0.34606 0.15122 0.0
C454 C 0.85101 0.35064 0.17562 0.0
C455 C 0.92228 0.32252 0.31127 0.0
C456 C 0.94861 0.34167 0.31333 0.0
C457 C 0.88878 0.32287 0.29228 0.0
C458 C 0.88148 0.34222 0.27482 0.0
C459 C 0.90919 0.36071 0.27605 0.0
C460 C 0.9423 0.36055 0.2953 0.0
C461 C 0.84294 0.34404 0.25642 0.0
C462 C 0.84955 0.34137 0.23149 0.0
C463 C 0.79973 0.34768 0.26361 0.0
C464 C 0.791 0.35062 0.28977 0.0
C465 C 0.80778 0.36926 0.30352 0.0
C466 C 0.8006 0.3714 0.32837 0.0
C467 C 0.77628 0.35516 0.33962 0.0
C468 C 0.75894 0.3368 0.32601 0.0
C469 C 0.76616 0.33453 0.30116 0.0
H470 H 0.77078 0.35683 0.35887 0.0
H471 H 0.84578 0.32423 0.11982 0.0
H472 H 0.70637 0.88438 0.33227 0.0
H473 H 0.75538 0.88974 0.30005 0.0
H474 H 0.69282 0.83723 0.25615 0.0
H475 H 0.64547 0.83097 0.2888 0.0
H476 H 0.77439 0.82838 0.25353 0.0
H477 H 0.67549 0.9023 0.24468 0.0
H478 H 0.63612 0.94037 0.25818 0.0
H479 H 0.7587 0.96816 0.27753 0.0
H480 H 0.79884 0.9301 0.26443 0.0
H481 H 0.83866 0.85779 0.13631 0.0
H482 H 0.7942 0.85683 0.1712 0.0
H483 H 0.89181 0.8897 0.21636 0.0
H484 H 0.93719 0.89039 0.18151 0.0
H485 H 0.79771 0.90949 0.21978 0.0
H486 H 0.89491 0.8343 0.22569 0.0
H487 H 0.93048 0.79654 0.20934 0.0
H488 H 0.80465 0.77161 0.19234 0.0
H489 H 0.76828 0.80941 0.20826 0.0
C490 C 0.70305 0.87406 0.31569 0.0
C491 C 0.67213 0.85723 0.31306 0.0
C492 C 0.73093 0.87723 0.29719 0.0
C493 C 0.72758 0.86415 0.27539 0.0
C494 C 0.69632 0.84751 0.27275 0.0
C495 C 0.66914 0.84397 0.29143 0.0
C496 C 0.75717 0.86718 0.25555 0.0
C497 C 0.77894 0.84616 0.24605 0.0
C498 C 0.76421 0.89035 0.24599 0.0
C499 C 0.74016 0.91325 0.25383 0.0
C500 C 0.69405 0.91646 0.25199 0.0
C501 C 0.6716 0.93804 0.25954 0.0
C502 C 0.69489 0.95664 0.26877 0.0
C503 C 0.7407 0.95372 0.27041 0.0
C504 C 0.76332 0.93216 0.26291 0.0
C505 C 0.85063 0.86504 0.15356 0.0
C506 C 0.89158 0.87411 0.15614 0.0
C507 C 0.82516 0.86442 0.1735 0.0
C508 C 0.83984 0.87309 0.19634 0.0
C509 C 0.87995 0.88295 0.19884 0.0
C510 C 0.90585 0.88326 0.17895 0.0
C511 C 0.8139 0.87074 0.21777 0.0
C512 C 0.79306 0.89181 0.2275 0.0
C513 C 0.80703 0.84764 0.22729 0.0
C514 C 0.82887 0.82478 0.21796 0.0
C515 C 0.87481 0.82085 0.21828 0.0
C516 C 0.89512 0.79943 0.20913 0.0
C517 C 0.86984 0.78171 0.19975 0.0
C518 C 0.82419 0.78536 0.19958 0.0
C519 C 0.80372 0.80677 0.20869 0.0
H520 H 0.88562 0.76514 0.19266 0.0
H521 H 0.67745 0.97334 0.27461 0.0
H522 H 0.58433 0.17092 0.68847 0.0
H523 H 0.63849 0.16987 0.72429 0.0
H524 H 0.73803 0.13576 0.68112 0.0
H525 H 0.68368 0.13625 0.64556 0.0
H526 H 0.74289 0.11388 0.7256 0.0
H527 H 0.7337 0.19594 0.69406 0.0
H528 H 0.69685 0.23631 0.67979 0.0
H529 H 0.64922 0.24776 0.75081 0.0
H530 H 0.68529 0.20728 0.76541 0.0
H531 H 0.92978 0.13427 0.80565 0.0
H532 H 0.87495 0.13432 0.77044 0.0
H533 H 0.77484 0.16591 0.81462 0.0
H534 H 0.82938 0.16603 0.84985 0.0
H535 H 0.77027 0.18899 0.76976 0.0
H536 H 0.78064 0.1065 0.80111 0.0
H537 H 0.81856 0.06624 0.81494 0.0
H538 H 0.86553 0.05586 0.74362 0.0
H539 H 0.82836 0.09623 0.72945 0.0
C540 C 0.61779 0.16316 0.68674 0.0
C541 C 0.63002 0.15382 0.6643 0.0
C542 C 0.64873 0.16269 0.70711 0.0
C543 C 0.6925 0.15298 0.70532 0.0
C544 C 0.70454 0.1434 0.68293 0.0
C545 C 0.67361 0.14386 0.66259 0.0
C546 C 0.72571 0.15269 0.7268 0.0
C547 C 0.74927 0.13036 0.73506 0.0
C548 C 0.73348 0.1741 0.73945 0.0
C549 C 0.71182 0.19847 0.73075 0.0
C550 C 0.71507 0.20698 0.70658 0.0
C551 C 0.69437 0.22989 0.69843 0.0
C552 C 0.67061 0.24456 0.71436 0.0
C553 C 0.66758 0.23636 0.73848 0.0
C554 C 0.68817 0.21344 0.74671 0.0
C555 C 0.89606 0.14113 0.80792 0.0
C556 C 0.88395 0.15008 0.8306 0.0
C557 C 0.86473 0.14109 0.78779 0.0
C558 C 0.82071 0.14996 0.78994 0.0
C559 C 0.80859 0.15897 0.81253 0.0
C560 C 0.83983 0.15893 0.83269 0.0
C561 C 0.78737 0.15019 0.76856 0.0
C562 C 0.76383 0.17252 0.76031 0.0
C563 C 0.77978 0.1288 0.75584 0.0
C564 C 0.80208 0.1045 0.7643 0.0
C565 C 0.79936 0.09572 0.78843 0.0
C566 C 0.82066 0.07286 0.79632 0.0
C567 C 0.84454 0.05853 0.78019 0.0
C568 C 0.84707 0.067 0.75611 0.0
C569 C 0.82586 0.08986 0.74813 0.0
H570 H 0.861 0.04083 0.78633 0.0
H571 H 0.65462 0.2623 0.70802 0.0
H572 H 0.19298 0.12756 0.84292 0.0
H573 H 0.24187 0.1241 0.80982 0.0
H574 H 0.14936 0.17372 0.76403 0.0
H575 H 0.10027 0.17719 0.79731 0.0
H576 H 0.18071 0.1353 0.73845 0.0
H577 H 0.24155 0.19297 0.79079 0.0
H578 H 0.26962 0.20929 0.82998 0.0
H579 H 0.37341 0.15019 0.83841 0.0
H580 H 0.34553 0.13327 0.79944 0.0
H581 H 0.33554 0.15187 0.65041 0.0
H582 H 0.28421 0.16027 0.68194 0.0
H583 H 0.3613 0.10621 0.73055 0.0
H584 H 0.41278 0.0978 0.69911 0.0
H585 H 0.33639 0.15032 0.75352 0.0
H586 H 0.27143 0.09178 0.70191 0.0
H587 H 0.24254 0.07607 0.66259 0.0
H588 H 0.14592 0.13862 0.65239 0.0
H589 H 0.17469 0.15489 0.69153 0.0
C590 C 0.18332 0.13788 0.82586 0.0
C591 C 0.14316 0.15281 0.82267 0.0
C592 C 0.21121 0.1359 0.80697 0.0
C593 C 0.19957 0.14893 0.78456 0.0
C594 C 0.15905 0.16356 0.78119 0.0
C595 C 0.13109 0.16554 0.80014 0.0
C596 C 0.22974 0.14701 0.76469 0.0
C597 C 0.21454 0.139 0.74161 0.0
C598 C 0.27406 0.15152 0.76892 0.0
C599 C 0.2912 0.16173 0.79228 0.0
C600 C 0.27017 0.18334 0.80108 0.0
C601 C 0.28606 0.19271 0.82325 0.0
C602 C 0.32321 0.18075 0.8367 0.0
C603 C 0.3446 0.15942 0.82798 0.0
C604 C 0.32879 0.14994 0.80584 0.0
C605 C 0.34186 0.14205 0.66794 0.0
C606 C 0.37845 0.12442 0.67248 0.0
C607 C 0.31234 0.1467 0.68584 0.0
C608 C 0.31899 0.13385 0.70856 0.0
C609 C 0.35568 0.11637 0.71316 0.0
C610 C 0.38489 0.11152 0.69518 0.0
C611 C 0.28747 0.13832 0.72747 0.0
C612 C 0.30245 0.14683 0.75034 0.0
C613 C 0.24291 0.13445 0.723 0.0
C614 C 0.22555 0.12469 0.69949 0.0
C615 C 0.2443 0.1023 0.69117 0.0
C616 C 0.22789 0.09327 0.66894 0.0
C617 C 0.19251 0.10637 0.65496 0.0
C618 C 0.17339 0.12851 0.66322 0.0
C619 C 0.18971 0.13764 0.68543 0.0
H620 H 0.17984 0.09935 0.63776 0.0
H621 H 0.33547 0.18804 0.85386 0.0
H622 H 0.12088 0.84214 0.19794 0.0
H623 H 0.18151 0.84298 0.23017 0.0
H624 H 0.2654 0.86288 0.17563 0.0
H625 H 0.20455 0.86366 0.14373 0.0
H626 H 0.29614 0.81862 0.21321 0.0
H627 H 0.24048 0.90515 0.20358 0.0
H628 H 0.1811 0.93913 0.20266 0.0
H629 H 0.15598 0.91988 0.27634 0.0
H630 H 0.2148 0.88552 0.27753 0.0
H631 H 0.4851 0.84101 0.28832 0.0
H632 H 0.42497 0.84313 0.25575 0.0
H633 H 0.33198 0.86169 0.30918 0.0
H634 H 0.39208 0.86211 0.34101 0.0
H635 H 0.3041 0.88596 0.27154 0.0
H636 H 0.35537 0.80137 0.28423 0.0
H637 H 0.40903 0.76455 0.28757 0.0
H638 H 0.43586 0.77548 0.21246 0.0
H639 H 0.38273 0.81256 0.20877 0.0
C640 C 0.15207 0.84702 0.1929 0.0
C641 C 0.15806 0.85258 0.16825 0.0
C642 C 0.18668 0.84731 0.21126 0.0
C643 C 0.22787 0.8528 0.20515 0.0
C644 C 0.23393 0.85835 0.18061 0.0
C645 C 0.19919 0.8586 0.1624 0.0
C646 C 0.26482 0.8529 0.2243 0.0
C647 C 0.29831 0.83341 0.22587 0.0
C648 C 0.26664 0.87182 0.24118 0.0
C649 C 0.23165 0.89261 0.24053 0.0
C650 C 0.22199 0.90801 0.21949 0.0
C651 C 0.18851 0.92737 0.21893 0.0
C652 C 0.16468 0.93162 0.2394 0.0
C653 C 0.1744 0.91655 0.26049 0.0
C654 C 0.20782 0.89714 0.26111 0.0
C655 C 0.45188 0.84593 0.29299 0.0
C656 C 0.44336 0.85092 0.31736 0.0
C657 C 0.41737 0.84676 0.27443 0.0
C658 C 0.37354 0.85189 0.28 0.0
C659 C 0.36527 0.85746 0.30428 0.0
C660 C 0.39974 0.85729 0.32263 0.0
C661 C 0.33621 0.85154 0.26074 0.0
C662 C 0.30238 0.87102 0.25905 0.0
C663 C 0.33351 0.83218 0.24418 0.0
C664 C 0.36541 0.80988 0.24631 0.0
C665 C 0.37293 0.79601 0.26848 0.0
C666 C 0.40322 0.77508 0.27043 0.0
C667 C 0.42593 0.76772 0.25026 0.0
C668 C 0.4183 0.78123 0.22808 0.0
C669 C 0.38808 0.80219 0.22604 0.0
H670 H 0.44936 0.75151 0.2518 0.0
H671 H 0.13877 0.94662 0.23894 0.0
H672 H 0.08953 0.59809 0.52019 0.0
H673 H 0.09682 0.56236 0.4947 0.0
H674 H 1.00473 0.52909 0.53598 0.0
H675 H 0.9976 0.56467 0.56185 0.0
H676 H 0.07371 0.49671 0.52763 0.0
H677 H 0.9731 0.55577 0.47971 0.0
H678 H 0.9483 0.59573 0.45924 0.0
H679 H 0.05588 0.58671 0.41389 0.0
H680 H 0.08169 0.54682 0.43436 0.0
H681 H 0.00709 0.40783 0.448 0.0
H682 H 0.0085 0.44455 0.47165 0.0
H683 H 0.10757 0.4682 0.42842 0.0
H684 H 0.10637 0.4312 0.40431 0.0
H685 H 0.04128 0.50559 0.43701 0.0
H686 H 0.13859 0.44463 0.48377 0.0
H687 H 0.16057 0.40422 0.50388 0.0
H688 H 0.05664 0.41659 0.55137 0.0
H689 H 0.03359 0.45693 0.53128 0.0
C690 C 0.07088 0.58317 0.52395 0.0
C691 C 0.04277 0.58434 0.54303 0.0
C692 C 0.07499 0.56278 0.50927 0.0
C693 C 0.05089 0.5432 0.51322 0.0
C694 C 0.02357 0.54404 0.53257 0.0
C695 C 0.01946 0.56442 0.54731 0.0
C696 C 0.05385 0.52192 0.49705 0.0
C697 C 0.06623 0.49864 0.50785 0.0
C698 C 0.04515 0.5245 0.47116 0.0
C699 C 0.0296 0.54843 0.45876 0.0
C700 C 0.99168 0.5624 0.46552 0.0
C701 C 0.9774 0.58501 0.45389 0.0
C702 C 1.00057 0.59378 0.43533 0.0
C703 C 0.03801 0.57991 0.4283 0.0
C704 C 0.05246 0.55729 0.4399 0.0
C705 C 0.02918 0.42079 0.44334 0.0
C706 C 0.05693 0.41642 0.42432 0.0
C707 C 0.02998 0.44178 0.45698 0.0
C708 C 0.05862 0.45888 0.45205 0.0
C709 C 0.08539 0.4551 0.43258 0.0
C710 C 0.0847 0.43396 0.41886 0.0
C711 C 0.06065 0.48043 0.46765 0.0
C712 C 0.0492 0.50373 0.45676 0.0
C713 C 0.06998 0.47787 0.49349 0.0
C714 C 0.08416 0.45375 0.50588 0.0
C715 C 0.12024 0.43867 0.49839 0.0
C716 C 0.13292 0.41579 0.50981 0.0
C717 C 0.10997 0.40782 0.52886 0.0
C718 C 0.07438 0.42277 0.5366 0.0
C719 C 0.06152 0.44567 0.52522 0.0
H720 H 0.11981 0.39009 0.53765 0.0
H721 H 0.98947 0.6113 0.42634 0.0
H722 H 0.54737 0.6091 0.96781 0.0
H723 H 0.53554 0.57573 0.99546 0.0
H724 H 0.50567 0.53196 0.93294 0.0
H725 H 0.5147 0.56609 0.90516 0.0
H726 H 0.45304 0.52429 0.96439 0.0
H727 H 0.60885 0.52498 0.97087 0.0
H728 H 0.67877 0.54261 0.97774 0.0
H729 H 0.65018 0.5599 0.05144 0.0
H730 H 0.57979 0.54265 0.04489 0.0
H731 H 0.51213 0.40729 0.02316 0.0
H732 H 0.50807 0.44512 0.99873 0.0
H733 H 0.49068 0.48663 0.06391 0.0
H734 H 0.49373 0.44857 0.08858 0.0
H735 H 0.56315 0.49696 0.03395 0.0
H736 H 0.40814 0.49061 0.02599 0.0
H737 H 0.34277 0.46927 0.01708 0.0
H738 H 0.37651 0.45806 0.94311 0.0
H739 H 0.44247 0.47902 0.95168 0.0
C740 C 0.53849 0.5923 0.95996 0.0
C741 C 0.53238 0.59006 0.93434 0.0
C742 C 0.53191 0.57316 0.97581 0.0
C743 C 0.52066 0.55101 0.96639 0.0
C744 C 0.51439 0.54881 0.94073 0.0
C745 C 0.51977 0.56824 0.92485 0.0
C746 C 0.51516 0.53025 0.98327 0.0
C747 C 0.47742 0.51823 0.97942 0.0
C748 C 0.54646 0.52246 1.00327 0.0
C749 C 0.58885 0.53276 0.0073 0.0
C750 C 0.61734 0.53269 0.98848 0.0
C751 C 0.65707 0.54259 0.99233 0.0
C752 C 0.66885 0.55243 0.01499 0.0
C753 C 0.64098 0.55231 0.03388 0.0
C754 C 0.60118 0.54246 0.03012 0.0
C755 C 0.50671 0.42448 0.03226 0.0
C756 C 0.50329 0.42504 0.05777 0.0
C757 C 0.50431 0.44604 0.01826 0.0
C758 C 0.49905 0.4686 0.02954 0.0
C759 C 0.49461 0.46933 0.05492 0.0
C760 C 0.49613 0.44765 0.06893 0.0
C761 C 0.50142 0.49113 0.01484 0.0
C762 C 0.53867 0.50335 0.01906 0.0
C763 C 0.47034 0.49865 0.99482 0.0
C764 C 0.43044 0.48625 0.98955 0.0
C765 C 0.40182 0.48343 0.00788 0.0
C766 C 0.36461 0.47143 1.00288 0.0
C767 C 0.35553 0.46227 0.97956 0.0
C768 C 0.38359 0.46516 0.96117 0.0
C769 C 0.42085 0.47713 0.96608 0.0
H770 H 0.32673 0.45298 0.97572 0.0
H771 H 0.69962 0.56009 0.01793 0.0
H772 H 0.59238 0.09689 0.52716 0.0
H773 H 0.60051 0.061 0.50193 0.0
H774 H 0.49749 0.03124 0.53733 0.0
H775 H 0.48972 0.06688 0.56308 0.0
H776 H 0.56367 0.99678 0.5321 0.0
H777 H 0.47878 0.05916 0.47971 0.0
H778 H 0.46334 0.09964 0.45891 0.0
H779 H 0.57976 0.08574 0.42104 0.0
H780 H 0.59622 0.04529 0.44189 0.0
H781 H 0.50803 0.90882 0.44789 0.0
H782 H 0.50663 0.94508 0.47248 0.0
H783 H 0.61263 0.96887 0.43491 0.0
H784 H 0.61387 0.93259 0.40973 0.0
H785 H 0.54964 0.00633 0.44103 0.0
H786 H 0.63252 0.94298 0.49224 0.0
H787 H 0.64695 0.90237 0.51282 0.0
H788 H 0.5335 0.91805 0.55284 0.0
H789 H 0.51802 0.95863 0.53223 0.0
C790 C 0.57149 0.0827 0.52968 0.0
C791 C 0.54018 0.08486 0.54707 0.0
C792 C 0.57609 0.06222 0.51514 0.0
C793 C 0.54913 0.04361 0.51745 0.0
C794 C 0.51856 0.04542 0.53518 0.0
C795 C 0.51411 0.06583 0.54986 0.0
C796 C 0.55251 0.02234 0.50126 0.0
C797 C 0.56012 0.99887 0.51219 0.0
C798 C 0.54904 0.02507 0.47527 0.0
C799 C 0.53896 0.04929 0.46254 0.0
C800 C 0.50125 0.0648 0.46708 0.0
C801 C 0.49229 0.08773 0.45526 0.0
C802 C 0.52061 0.09528 0.43871 0.0
C803 C 0.55788 0.07988 0.43389 0.0
C804 C 0.56702 0.05694 0.44568 0.0
C805 C 0.5311 0.92172 0.44475 0.0
C806 C 0.56137 0.91766 0.42694 0.0
C807 C 0.53031 0.94244 0.45893 0.0
C808 C 0.56007 0.95945 0.45587 0.0
C809 C 0.58954 0.95588 0.43766 0.0
C810 C 0.59024 0.93513 0.42331 0.0
C811 C 0.56031 0.98081 0.47189 0.0
C812 C 0.55344 0.00427 0.46094 0.0
C813 C 0.56439 0.97808 0.49788 0.0
C814 C 0.57394 0.95379 0.51055 0.0
C815 C 0.6105 0.93771 0.50532 0.0
C816 C 0.61888 0.9147 0.517 0.0
C817 C 0.59111 0.90762 0.53409 0.0
C818 C 0.55497 0.92356 0.53959 0.0
C819 C 0.54641 0.94658 0.52793 0.0
H820 H 0.59764 0.88979 0.54311 0.0
H821 H 0.51362 0.11304 0.42959 0.0
H822 H 0.98177 0.94487 0.07928 0.0
H823 H 0.97966 0.9815 0.05271 0.0
H824 H 0.04014 0.93805 0.99736 0.0
H825 H 0.04319 0.90184 0.02371 0.0
H826 H 0.08114 0.97607 1.00487 0.0
H827 H 0.93073 0.96127 0.99057 0.0
H828 H 0.85728 0.95462 1.00216 0.0
H829 H 0.84384 0.02488 0.03461 0.0
H830 H 0.9175 0.03183 0.02349 0.0
H831 H 0.98024 0.07751 0.90842 0.0
H832 H 0.97298 0.04115 0.93352 0.0
H833 H 0.0727 0.06099 0.98728 0.0
H834 H 0.08094 0.09683 0.96221 0.0
H835 H 0.94983 0.03438 0.97931 0.0
H836 H 0.1339 0.01104 0.01184 0.0
H837 H 0.20614 0.01557 0.99709 0.0
H838 H 0.14984 0.01716 0.92226 0.0
H839 H 0.07742 0.01232 0.93655 0.0
C840 C 0.99418 0.94316 0.06134 0.0
C841 C 0.01296 0.92048 0.05372 0.0
C842 C 0.99287 0.96407 0.04615 0.0
C843 C 0.0098 0.96253 0.02302 0.0
C844 C 0.02724 0.93976 0.01518 0.0
C845 C 0.02888 0.91903 0.03032 0.0
C846 C 0.01165 0.98458 0.00728 0.0
C847 C 0.05237 0.98881 0.99934 0.0
C848 C 0.9741 0.00107 0.99975 0.0
C849 C 0.92981 0.99696 0.00642 0.0
C850 C 0.91226 0.97522 1.00035 0.0
C851 C 0.87056 0.97141 0.00681 0.0
C852 C 0.84596 0.98929 0.01918 0.0
C853 C 0.86297 0.01104 0.02506 0.0
C854 C 0.90467 0.01493 0.01867 0.0
C855 C 1.00078 0.07406 0.92552 0.0
C856 C 0.03148 0.08999 0.93314 0.0
C857 C 0.99639 0.05335 0.93992 0.0
C858 C 0.0226 0.04822 0.96216 0.0
C859 C 0.05265 0.06433 0.96999 0.0
C860 C 0.05729 0.08487 0.95558 0.0
C861 C 0.01932 0.02581 0.97705 0.0
C862 C 0.9785 0.0216 0.9849 0.0
C863 C 0.05662 0.00897 0.98411 0.0
C864 C 0.10017 0.01155 0.97529 0.0
C865 C 0.13699 0.01225 0.99224 0.0
C866 C 0.17796 0.01489 0.98396 0.0
C867 C 0.18255 0.01673 0.95875 0.0
C868 C 0.14621 0.01583 0.94177 0.0
C869 C 0.10519 0.01316 0.94995 0.0
H870 H 0.21428 0.01879 0.95238 0.0
H871 H 0.81368 0.98631 0.02415 0.0
H872 H 0.10059 0.28583 0.45127 0.0
H873 H 0.15759 0.26051 0.4772 0.0
H874 H 0.25701 0.28847 0.4372 0.0
H875 H 0.20042 0.31329 0.41087 0.0
H876 H 0.27781 0.24166 0.44631 0.0
H877 H 0.2308 0.31035 0.49415 0.0
H878 H 0.17711 0.33844 0.51377 0.0
H879 H 0.14241 0.27894 0.55704 0.0
H880 H 0.19553 0.25044 0.53744 0.0
H881 H 0.46365 0.21223 0.53016 0.0
H882 H 0.40267 0.23562 0.50556 0.0
H883 H 0.31075 0.20083 0.54556 0.0
H884 H 0.37164 0.17751 0.57058 0.0
H885 H 0.28418 0.24938 0.53695 0.0
H886 H 0.33494 0.18106 0.4896 0.0
H887 H 0.39055 0.15401 0.47025 0.0
H888 H 0.41998 0.21421 0.42604 0.0
H889 H 0.36496 0.2417 0.44538 0.0
C890 C 0.13456 0.28643 0.44784 0.0
C891 C 0.14586 0.30176 0.42905 0.0
C892 C 0.16716 0.27204 0.46279 0.0
C893 C 0.2117 0.27291 0.45948 0.0
C894 C 0.22292 0.28753 0.44019 0.0
C895 C 0.19042 0.30176 0.42514 0.0
C896 C 0.24681 0.25904 0.47631 0.0
C897 C 0.27938 0.24356 0.4661 0.0
C898 C 0.24854 0.2611 0.50222 0.0
C899 C 0.21681 0.27823 0.51414 0.0
C900 C 0.2115 0.30324 0.50772 0.0
C901 C 0.18121 0.31923 0.51886 0.0
C902 C 0.15628 0.31047 0.53659 0.0
C903 C 0.1617 0.28569 0.54327 0.0
C904 C 0.19191 0.26961 0.53217 0.0
C905 C 0.43051 0.20967 0.53395 0.0
C906 C 0.42263 0.19277 0.55224 0.0
C907 C 0.39565 0.223 0.51976 0.0
C908 C 0.35215 0.21963 0.5234 0.0
C909 C 0.34406 0.20361 0.54234 0.0
C910 C 0.37895 0.19027 0.5566 0.0
C911 C 0.31527 0.23224 0.50688 0.0
C912 C 0.2824 0.24743 0.51716 0.0
C913 C 0.31341 0.23006 0.48101 0.0
C914 C 0.34607 0.21348 0.46909 0.0
C915 C 0.35345 0.18856 0.47586 0.0
C916 C 0.38485 0.17314 0.46488 0.0
C917 C 0.40885 0.1824 0.44696 0.0
C918 C 0.40139 0.20707 0.43993 0.0
C919 C 0.37007 0.22257 0.45088 0.0
H920 H 0.43316 0.17043 0.4385 0.0
H921 H 0.13284 0.32288 0.54518 0.0
H922 H 0.51274 0.72037 0.94194 0.0
H923 H 0.45869 0.74592 0.96319 0.0
H924 H 0.35401 0.71701 0.91965 0.0
H925 H 0.40754 0.69212 0.89782 0.0
H926 H 0.3314 0.76313 0.92659 0.0
H927 H 0.39122 0.69404 0.97844 0.0
H928 H 0.45006 0.66613 1.00092 0.0
H929 H 0.4901 0.72518 0.04401 0.0
H930 H 0.43184 0.75353 0.02153 0.0
H931 H 0.16319 0.79155 0.00663 0.0
H932 H 0.21736 0.76797 0.98355 0.0
H933 H 0.32068 0.80284 0.02171 0.0
H934 H 0.26691 0.82608 0.04509 0.0
H935 H 0.34345 0.75368 0.01763 0.0
H936 H 0.2808 0.82246 0.96513 0.0
H937 H 0.22014 0.84912 0.94265 0.0
H938 H 0.18289 0.78857 0.90093 0.0
H939 H 0.24301 0.76147 0.92341 0.0
C940 C 0.47822 0.71975 0.9366 0.0
C941 C 0.46454 0.70395 0.91837 0.0
C942 C 0.44734 0.73425 0.94888 0.0
C943 C 0.40227 0.73291 0.94345 0.0
C944 C 0.38857 0.71824 0.92429 0.0
C945 C 0.41935 0.70396 0.91183 0.0
C946 C 0.36938 0.74577 0.95846 0.0
C947 C 0.33384 0.76085 0.94647 0.0
C948 C 0.37266 0.74299 0.98445 0.0
C949 C 0.40746 0.72595 0.99814 0.0
C950 C 0.41276 0.7011 0.9926 0.0
C951 C 0.44598 0.6852 0.00535 0.0
C952 C 0.47388 0.69389 0.02384 0.0
C953 C 0.46851 0.71849 0.02966 0.0
C954 C 0.43538 0.73448 0.01693 0.0
C955 C 0.19753 0.79375 0.01051 0.0
C956 C 0.21092 0.81043 0.02787 0.0
C957 C 0.22838 0.7805 0.99711 0.0
C958 C 0.27298 0.78382 1.00081 0.0
C959 C 0.28645 0.8 0.01858 0.0
C960 C 0.25568 0.81331 0.03185 0.0
C961 C 0.30568 0.77102 0.98575 0.0
C962 C 0.34113 0.75593 0.99775 0.0
C963 C 0.30204 0.77358 0.95978 0.0
C964 C 0.26613 0.7899 0.94612 0.0
C965 C 0.25947 0.8148 0.95129 0.0
C966 C 0.22522 0.82999 0.93853 0.0
C967 C 0.1976 0.82053 0.92042 0.0
C968 C 0.20427 0.79587 0.91499 0.0
C969 C 0.23844 0.78059 0.92772 0.0
H970 H 0.1711 0.83233 0.91056 0.0
H971 H 0.49958 0.68155 0.03368 0.0
H972 H 0.11274 0.7444 0.54717 0.0
H973 H 0.16986 0.76385 0.52878 0.0
H974 H 0.22896 0.69375 0.50758 0.0
H975 H 0.17236 0.67402 0.52653 0.0
H976 H 0.29045 0.72004 0.52524 0.0
H977 H 0.16856 0.73314 0.46511 0.0
H978 H 0.09197 0.74533 0.44874 0.0
H979 H 0.10304 0.819 0.46963 0.0
H980 H 0.17955 0.80718 0.48646 0.0
H981 H 0.41851 0.77619 0.43906 0.0
H982 H 0.36745 0.75183 0.45741 0.0
H983 H 0.31205 0.81516 0.49361 0.0
H984 H 0.36419 0.83941 0.47626 0.0
H985 H 0.25014 0.78964 0.46567 0.0
H986 H 0.37346 0.77426 0.52727 0.0
H987 H 0.45059 0.76075 0.54166 0.0
H988 H 0.43697 0.68933 0.51467 0.0
H989 H 0.35988 0.70253 0.49979 0.0
C990 C 0.13783 0.73309 0.53859 0.0
C991 C 0.13785 0.70768 0.53819 0.0
C992 C 0.1704 0.74425 0.52798 0.0
C993 C 0.20331 0.7303 0.51644 0.0
C994 C 0.20381 0.70488 0.51631 0.0
C995 C 0.17136 0.69366 0.52708 0.0
C996 C 0.23718 0.74236 0.50465 0.0
C997 C 0.28163 0.735 0.51191 0.0
C998 C 0.22572 0.76199 0.48736 0.0
C999 C 0.1797 0.76922 0.47725 0.0
C1000 C 0.15456 0.75191 0.46639 0.0
C1001 C 0.11118 0.75876 0.457 0.0
C1002 C 0.09262 0.78292 0.4582 0.0
C1003 C 0.11745 0.80029 0.46874 0.0
C1004 C 0.16085 0.79353 0.47819 0.0
C1005 C 0.39668 0.78476 0.45164 0.0
C1006 C 0.3963 0.80963 0.45675 0.0
C1007 C 0.3671 0.77086 0.46184 0.0
C1008 C 0.33623 0.78172 0.47694 0.0
C1009 C 0.33572 0.80648 0.48202 0.0
C1010 C 0.36555 0.82028 0.47211 0.0
C1011 C 0.3031 0.76762 0.48667 0.0
C1012 C 0.25882 0.77458 0.4789 0.0
C1013 C 0.31477 0.74742 0.50315 0.0
C1014 C 0.36106 0.73947 0.51216 0.0
C1015 C 0.38703 0.75574 0.52419 0.0
C1016 C 0.43071 0.74812 0.53248 0.0
C1017 C 0.44872 0.72422 0.52901 0.0
C1018 C 0.42301 0.70785 0.51731 0.0
C1019 C 0.37931 0.71539 0.50895 0.0
H1020 H 0.48254 0.71835 0.53546 0.0
H1021 H 0.05902 0.78819 0.45091 0.0
H1022 H 0.28053 0.17554 0.95259 0.0
H1023 H 0.32921 0.20113 0.97494 0.0
H1024 H 0.2191 0.23712 0.00902 0.0
H1025 H 0.17017 0.2119 0.98615 0.0
H1026 H 0.26906 0.26947 0.99642 0.0
H1027 H 0.29546 0.19258 0.0401 0.0
H1028 H 0.31317 0.14802 0.04511 0.0
H1029 H 0.43884 0.15278 0.01804 0.0
H1030 H 0.42164 0.19735 0.01255 0.0
H1031 H 0.40015 0.32481 0.08796 0.0
H1032 H 0.34977 0.29831 0.06852 0.0
H1033 H 0.45214 0.26632 0.02608 0.0
H1034 H 0.50286 0.29263 0.04547 0.0
H1035 H 0.40464 0.232 0.0447 0.0
H1036 H 0.37569 0.30936 1.00019 0.0
H1037 H 0.35719 0.35394 0.99625 0.0
H1038 H 0.23477 0.348 0.02676 0.0
H1039 H 0.25283 0.30339 0.0312 0.0
C1040 C 0.26675 0.18898 0.9648 0.0
C1041 C 0.22155 0.19193 0.96744 0.0
C1042 C 0.29461 0.20351 0.97768 0.0
C1043 C 0.27801 0.22083 0.99401 0.0
C1044 C 0.23272 0.22393 0.99651 0.0
C1045 C 0.20473 0.2096 0.98335 0.0
C1046 C 0.30789 0.23574 0.00838 0.0
C1047 C 0.29832 0.26121 0.00728 0.0
C1048 C 0.34653 0.22507 0.02229 0.0
C1049 C 0.35709 0.19828 0.02572 0.0
C1050 C 0.32675 0.18411 0.03506 0.0
C1051 C 0.33672 0.15885 0.03801 0.0
C1052 C 0.37707 0.14757 0.03184 0.0
C1053 C 0.40759 0.16154 0.02278 0.0
C1054 C 0.39776 0.1868 0.01977 0.0
C1055 C 0.41213 0.31201 0.07465 0.0
C1056 C 0.45554 0.31098 0.06818 0.0
C1057 C 0.38319 0.29695 0.06347 0.0
C1058 C 0.39706 0.28057 0.04562 0.0
C1059 C 0.44073 0.27889 0.03976 0.0
C1060 C 0.46965 0.294 0.05083 0.0
C1061 C 0.36584 0.26561 0.03257 0.0
C1062 C 0.37521 0.24016 0.03393 0.0
C1063 C 0.32685 0.27627 0.01909 0.0
C1064 C 0.31582 0.30307 0.01626 0.0
C1065 C 0.34498 0.31758 0.00624 0.0
C1066 C 0.33454 0.34285 1.00388 0.0
C1067 C 0.29488 0.3538 0.01131 0.0
C1068 C 0.26551 0.3395 0.02105 0.0
C1069 C 0.27581 0.31422 0.02347 0.0
H1070 H 0.28686 0.37337 0.00948 0.0
H1071 H 0.38472 0.12801 0.03414 0.0
H1072 H 0.87499 0.67444 0.56384 0.0
H1073 H 0.81564 0.69903 0.53882 0.0
H1074 H 0.90997 0.73925 0.50688 0.0
H1075 H 0.96946 0.71487 0.53178 0.0
H1076 H 0.83725 0.76906 0.51789 0.0
H1077 H 0.86962 0.69467 0.47568 0.0
H1078 H 0.88065 0.6501 0.47156 0.0
H1079 H 0.74795 0.64524 0.48785 0.0
H1080 H 0.73633 0.68978 0.49241 0.0
H1081 H 0.7077 0.82079 0.41238 0.0
H1082 H 0.76537 0.79574 0.43809 0.0
H1083 H 0.66786 0.75791 0.46999 0.0
H1084 H 0.60994 0.78284 0.44437 0.0
H1085 H 0.74106 0.72682 0.45953 0.0
H1086 H 0.70847 0.80142 0.50112 0.0
H1087 H 0.69758 0.84602 0.50498 0.0
H1088 H 0.8309 0.8505 0.48969 0.0
H1089 H 0.84239 0.80593 0.48537 0.0
C1090 C 0.88312 0.68869 0.5517 0.0
C1091 C 0.92706 0.69253 0.54969 0.0
C1092 C 0.84915 0.70265 0.53733 0.0
C1093 C 0.85846 0.72074 0.52074 0.0
C1094 C 0.90207 0.72533 0.51949 0.0
C1095 C 0.93605 0.71131 0.53372 0.0
C1096 C 0.82298 0.73435 0.50406 0.0
C1097 C 0.81653 0.75985 0.50495 0.0
C1098 C 0.79544 0.72229 0.48748 0.0
C1099 C 0.80226 0.69552 0.48465 0.0
C1100 C 0.8429 0.68408 0.47859 0.0
C1101 C 0.84924 0.65883 0.47614 0.0
C1102 C 0.81506 0.64484 0.47952 0.0
C1103 C 0.77442 0.65609 0.48528 0.0
C1104 C 0.76793 0.68134 0.48779 0.0
C1105 C 0.69848 0.80694 0.42461 0.0
C1106 C 0.6541 0.80397 0.42643 0.0
C1107 C 0.7315 0.79273 0.43939 0.0
C1108 C 0.72083 0.77521 0.45619 0.0
C1109 C 0.67678 0.7714 0.45723 0.0
C1110 C 0.64371 0.78574 0.44261 0.0
C1111 C 0.75546 0.76151 0.47331 0.0
C1112 C 0.76173 0.73601 0.47251 0.0
C1113 C 0.78287 0.77357 0.48996 0.0
C1114 C 0.77615 0.80036 0.49266 0.0
C1115 C 0.73536 0.81193 0.49837 0.0
C1116 C 0.72909 0.8372 0.50068 0.0
C1117 C 0.76349 0.85109 0.49751 0.0
C1118 C 0.80426 0.83972 0.4921 0.0
C1119 C 0.81068 0.81446 0.48974 0.0
H1120 H 0.75858 0.87065 0.49931 0.0
H1121 H 0.82002 0.6253 0.4776 0.0
H1122 H 0.71818 0.29018 0.05268 0.0
H1123 H 0.77455 0.26549 0.03202 0.0
H1124 H 0.74104 0.31032 0.96601 0.0
H1125 H 0.68466 0.33502 0.98656 0.0
H1126 H 0.7545 0.25826 0.95853 0.0
H1127 H 0.82389 0.32246 1.00123 0.0
H1128 H 0.84249 0.34515 0.03839 0.0
H1129 H 0.90776 0.27941 0.07412 0.0
H1130 H 0.88901 0.25626 0.03726 0.0
H1131 H 0.93341 0.22146 0.89196 0.0
H1132 H 0.87842 0.24727 0.91236 0.0
H1133 H 0.93857 0.21898 0.98312 0.0
H1134 H 0.99554 0.19482 0.96276 0.0
H1135 H 0.90989 0.262 0.98911 0.0
H1136 H 0.84409 0.19682 0.94982 0.0
H1137 H 0.82366 0.17092 0.91541 0.0
H1138 H 0.74948 0.2328 0.87701 0.0
H1139 H 0.77003 0.25915 0.91102 0.0
C1140 C 0.72208 0.29435 0.03359 0.0
C1141 C 0.69675 0.31427 0.02107 0.0
C1142 C 0.75453 0.28041 0.02191 0.0
C1143 C 0.76189 0.28618 0.99754 0.0
C1144 C 0.73569 0.30558 0.98479 0.0
C1145 C 0.70369 0.31968 0.99655 0.0
C1146 C 0.79837 0.27286 0.98565 0.0
C1147 C 0.78855 0.25918 0.965 0.0
C1148 C 0.84257 0.27356 0.99467 0.0
C1149 C 0.85472 0.28761 0.01658 0.0
C1150 C 0.84199 0.31282 0.01706 0.0
C1151 C 0.85258 0.32577 0.03806 0.0
C1152 C 0.87619 0.31372 0.05863 0.0
C1153 C 0.88944 0.28872 0.05819 0.0
C1154 C 0.87888 0.27568 0.03724 0.0
C1155 C 0.93528 0.22124 0.91188 0.0
C1156 C 0.96849 0.20619 0.92584 0.0
C1157 C 0.90359 0.23573 0.92354 0.0
C1158 C 0.90328 0.23447 0.94931 0.0
C1159 C 0.93777 0.22023 0.96325 0.0
C1160 C 0.97038 0.20643 0.95162 0.0
C1161 C 0.86637 0.2472 0.9617 0.0
C1162 C 0.87599 0.26085 0.98252 0.0
C1163 C 0.82186 0.24588 0.95322 0.0
C1164 C 0.80893 0.23 0.93288 0.0
C1165 C 0.8236 0.20492 0.93398 0.0
C1166 C 0.81201 0.19016 0.91455 0.0
C1167 C 0.78536 0.20022 0.89402 0.0
C1168 C 0.77016 0.22504 0.89291 0.0
C1169 C 0.78175 0.2399 0.91226 0.0
H1170 H 0.77638 0.18876 0.879 0.0
H1171 H 0.8843 0.32376 0.07489 0.0
H1172 H 0.93702 0.27887 0.46735 0.0
H1173 H 0.88506 0.25293 0.48259 0.0
H1174 H 0.77727 0.30161 0.44735 0.0
H1175 H 0.82901 0.32785 0.43287 0.0
H1176 H 0.76036 0.29188 0.49127 0.0
H1177 H 0.81215 0.24319 0.42552 0.0
H1178 H 0.86751 0.22061 0.40195 0.0
H1179 H 0.91001 0.17298 0.46465 0.0
H1180 H 0.85529 0.1955 0.48872 0.0
H1181 H 0.58777 0.21832 0.49586 0.0
H1182 H 0.64594 0.23906 0.47986 0.0
H1183 H 0.74141 0.19854 0.53202 0.0
H1184 H 0.68327 0.17786 0.54843 0.0
H1185 H 0.76691 0.20252 0.48153 0.0
H1186 H 0.71213 0.25196 0.54644 0.0
H1187 H 0.65431 0.27446 0.56839 0.0
H1188 H 0.61484 0.32084 0.50442 0.0
H1189 H 0.67204 0.29836 0.48195 0.0
C1190 C 0.90227 0.28373 0.46254 0.0
C1191 C 0.88694 0.30522 0.4488 0.0
C1192 C 0.87257 0.26893 0.47124 0.0
C1193 C 0.82716 0.27517 0.46594 0.0
C1194 C 0.81207 0.29643 0.45178 0.0
C1195 C 0.84163 0.31138 0.44347 0.0
C1196 C 0.79502 0.26038 0.47603 0.0
C1197 C 0.76161 0.27239 0.48881 0.0
C1198 C 0.79712 0.23482 0.47345 0.0
C1199 C 0.82994 0.2212 0.459 0.0
C1200 C 0.83353 0.22802 0.43434 0.0
C1201 C 0.86476 0.21521 0.42089 0.0
C1202 C 0.89234 0.19542 0.43182 0.0
C1203 C 0.88867 0.18834 0.45622 0.0
C1204 C 0.85754 0.20111 0.46977 0.0
C1205 C 0.62115 0.21369 0.50385 0.0
C1206 C 0.6309 0.19655 0.5235 0.0
C1207 C 0.65431 0.22555 0.49469 0.0
C1208 C 0.69783 0.22034 0.50485 0.0
C1209 C 0.70797 0.20273 0.52394 0.0
C1210 C 0.67471 0.19106 0.53335 0.0
C1211 C 0.73224 0.2342 0.4962 0.0
C1212 C 0.76598 0.22201 0.48389 0.0
C1213 C 0.73026 0.25965 0.49891 0.0
C1214 C 0.69609 0.27333 0.51245 0.0
C1215 C 0.69088 0.26683 0.53699 0.0
C1216 C 0.65827 0.2796 0.54953 0.0
C1217 C 0.63085 0.29903 0.53778 0.0
C1218 C 0.63607 0.30577 0.51348 0.0
C1219 C 0.6686 0.29303 0.50084 0.0
H1220 H 0.60562 0.3089 0.54753 0.0
H1221 H 0.9165 0.18552 0.42137 0.0
H1222 H 0.66884 0.71521 0.9814 0.0
H1223 H 0.7183 0.7405 1.00365 0.0
H1224 H 0.82929 0.69839 0.97596 0.0
H1225 H 0.77995 0.67284 0.95406 0.0
H1226 H 0.84675 0.7053 0.02256 0.0
H1227 H 0.78828 0.75717 0.95305 0.0
H1228 H 0.73013 0.77952 0.92468 0.0
H1229 H 0.68255 0.82105 0.98448 0.0
H1230 H 0.74007 0.7987 0.01329 0.0
H1231 H 0.00693 0.78723 0.04719 0.0
H1232 H 0.955 0.76159 0.02775 0.0
H1233 H 0.85039 0.8002 0.06409 0.0
H1234 H 0.90197 0.82593 0.08364 0.0
H1235 H 0.8283 0.79551 0.01448 0.0
H1236 H 0.88949 0.744 0.08358 0.0
H1237 H 0.94892 0.72181 0.11122 0.0
H1238 H 0.99306 0.6798 0.05092 0.0
H1239 H 0.93423 0.70199 0.02283 0.0
C1240 C 0.7037 0.71166 0.97969 0.0
C1241 C 0.72049 0.69236 0.9656 0.0
C1242 C 0.732 0.72606 0.9925 0.0
C1243 C 0.7776 0.72161 0.99123 0.0
C1244 C 0.79431 0.70223 0.97724 0.0
C1245 C 0.76609 0.68769 0.96467 0.0
C1246 C 0.80807 0.73676 1.00481 0.0
C1247 C 0.84297 0.72501 0.02052 0.0
C1248 C 0.80269 0.76254 1.00268 0.0
C1249 C 0.76821 0.77608 0.98537 0.0
C1250 C 0.76521 0.77094 0.96018 0.0
C1251 C 0.7324 0.78363 0.94402 0.0
C1252 C 0.70259 0.80165 0.95279 0.0
C1253 C 0.70562 0.80706 0.97773 0.0
C1254 C 0.73834 0.7944 0.99398 0.0
C1255 C 0.97296 0.79016 0.05124 0.0
C1256 C 0.95869 0.80868 0.06701 0.0
C1257 C 0.94333 0.77544 0.04014 0.0
C1258 C 0.89884 0.77895 0.04453 0.0
C1259 C 0.88456 0.79722 0.06043 0.0
C1260 C 0.9142 0.81183 0.07168 0.0
C1261 C 0.86702 0.764 0.03198 0.0
C1262 C 0.83191 0.7758 0.01651 0.0
C1263 C 0.87239 0.73827 0.03418 0.0
C1264 C 0.90769 0.72482 0.05105 0.0
C1265 C 0.91208 0.73017 0.07617 0.0
C1266 C 0.94562 0.71756 0.09193 0.0
C1267 C 0.97482 0.69945 0.08282 0.0
C1268 C 0.97045 0.69386 0.05794 0.0
C1269 C 0.93699 0.70643 0.0421 0.0
H1270 H 1.00076 0.6897 0.09506 0.0
H1271 H 0.67721 0.81145 0.94024 0.0
loop_
_geom_bond_atom_site_label_1
_geom_bond_atom_site_label_2
_geom_bond_distance
_geom_bond_site_symmetry_2
_ccdc_geom_bond_type
Co0 O3 1.970 . S
Co0 N17 1.989 . S
Co0 O25 1.967 . S
Co0 O32 1.920 . S
Co1 O4 1.966 . S
Co1 N10 2.022 1_455 S
Co1 N18 1.993 1_455 S
Co1 O26 1.941 . S
C2 O3 1.258 . S
C2 O4 1.263 . S
O3 Co0 1.970 . S
O3 C2 1.258 . S
O4 Co1 1.966 . S
O4 C2 1.263 . S
C5 O6 1.235 . S
C5 O32 1.289 . S
O6 C5 1.235 . S
C7 C9 1.400 . S
C7 N10 1.351 . S
C7 C12 1.501 . S
C8 C9 1.387 . S
C8 N11 1.341 . S
C9 C7 1.400 . S
C9 C8 1.387 . S
N10 Co1 2.022 1_655 S
N10 C7 1.351 . S
N10 N11 1.365 . S
N11 C8 1.341 . S
N11 N10 1.365 . S
N11 H31 0.862 . S
C12 C7 1.501 . S
C12 H13 0.961 1_655 S
C12 H14 0.961 . S
C12 H15 0.960 . S
H13 C12 0.961 1_455 S
H14 C12 0.961 . S
H15 C12 0.960 . S
C16 N17 1.342 1_655 S
C16 C20 1.401 . S
C16 C21 1.499 1_655 S
N17 Co0 1.989 . S
N17 C16 1.342 1_455 S
N17 N18 1.388 1_455 S
N18 Co1 1.993 1_655 S
N18 N17 1.388 1_655 S
N18 C19 1.346 . S
C19 N18 1.346 . S
C19 C20 1.396 . S
C19 C29 1.510 . S
C20 C16 1.401 . S
C20 C19 1.396 . S
C21 C16 1.499 1_455 S
C21 H22 0.959 . S
C21 H23 0.960 . S
C21 H24 0.961 . S
H22 C21 0.959 . S
H23 C21 0.960 . S
H24 C21 0.961 . S
O25 Co0 1.967 . S
O25 C33 1.258 . S
O26 Co1 1.941 . S
O26 C33 1.266 . S
H27 C29 0.959 . S
H28 C29 0.961 . S
C29 C19 1.510 . S
C29 H27 0.959 . S
C29 H28 0.961 . S
C29 H30 0.960 . S
H30 C29 0.960 . S
H31 N11 0.862 . S
O32 Co0 1.920 . S
O32 C5 1.289 . S
C33 O25 1.258 . S
C33 O26 1.266 . S
Co34 O37 1.970 . S
Co34 N51 1.989 . S
Co34 O59 1.967 . S
Co34 O66 1.920 . S
Co35 O38 1.966 . S
Co35 N44 2.022 . S
Co35 N52 1.993 . S
Co35 O60 1.941 . S
C36 O37 1.258 . S
C36 O38 1.263 . S
O37 Co34 1.970 . S
O37 C36 1.258 . S
O38 Co35 1.966 . S
O38 C36 1.263 . S
C39 O40 1.235 . S
C39 O66 1.289 . S
O40 C39 1.235 . S
C41 C43 1.400 . S
C41 N44 1.351 . S
C41 C46 1.501 . S
C42 C43 1.387 . S
C42 N45 1.341 . S
C43 C41 1.400 . S
C43 C42 1.387 . S
N44 Co35 2.022 . S
N44 C41 1.351 . S
N44 N45 1.365 . S
N45 C42 1.341 . S
N45 N44 1.365 . S
N45 H65 0.862 . S
C46 C41 1.501 . S
C46 H47 0.961 . S
C46 H48 0.961 . S
C46 H49 0.960 . S
H47 C46 0.961 . S
H48 C46 0.961 . S
H49 C46 0.960 . S
C50 N51 1.342 . S
C50 C54 1.401 . S
C50 C55 1.499 . S
N51 Co34 1.989 . S
N51 C50 1.342 . S
N51 N52 1.388 . S
N52 Co35 1.993 . S
N52 N51 1.388 . S
N52 C53 1.346 . S
C53 N52 1.346 . S
C53 C54 1.396 . S
C53 C63 1.510 . S
C54 C50 1.401 . S
C54 C53 1.396 . S
C55 C50 1.499 . S
C55 H56 0.959 . S
C55 H57 0.960 . S
C55 H58 0.961 . S
H56 C55 0.959 . S
H57 C55 0.960 . S
H58 C55 0.961 . S
O59 Co34 1.967 . S
O59 C67 1.258 . S
O60 Co35 1.941 . S
O60 C67 1.266 . S
H61 C63 0.959 . S
H62 C63 0.961 . S
C63 C53 1.510 . S
C63 H61 0.959 . S
C63 H62 0.961 . S
C63 H64 0.960 . S
H64 C63 0.960 . S
H65 N45 0.862 . S
O66 Co34 1.920 . S
O66 C39 1.289 . S
C67 O59 1.258 . S
C67 O60 1.266 . S
Co68 O71 1.970 . S
Co68 N85 1.989 . S
Co68 O93 1.967 . S
Co68 O100 1.920 . S
Co69 O72 1.966 . S
Co69 N78 2.022 . S
Co69 N86 1.993 1_655 S
Co69 O94 1.944 . S
C70 O71 1.258 1_655 S
C70 O72 1.263 . S
O71 Co68 1.970 . S
O71 C70 1.258 1_455 S
O72 Co69 1.966 . S
O72 C70 1.263 . S
C73 O74 1.235 . S
C73 O100 1.289 . S
O74 C73 1.235 . S
C75 C77 1.400 . S
C75 N78 1.351 . S
C75 C80 1.501 . S
C76 C77 1.387 . S
C76 N79 1.341 . S
C77 C75 1.400 . S
C77 C76 1.387 . S
N78 Co69 2.022 . S
N78 C75 1.351 . S
N78 N79 1.365 . S
N79 C76 1.341 . S
N79 N78 1.365 . S
N79 H99 0.862 . S
C80 C75 1.501 . S
C80 H81 0.961 . S
C80 H82 0.961 . S
C80 H83 0.960 . S
H81 C80 0.961 . S
H82 C80 0.961 . S
H83 C80 0.960 . S
C84 N85 1.342 . S
C84 C88 1.401 . S
C84 C89 1.499 . S
N85 Co68 1.989 . S
N85 C84 1.342 . S
N85 N86 1.388 . S
N86 Co69 1.993 1_455 S
N86 N85 1.388 . S
N86 C87 1.346 . S
C87 N86 1.346 . S
C87 C88 1.396 . S
C87 C97 1.510 . S
C88 C84 1.401 . S
C88 C87 1.396 . S
C89 C84 1.499 . S
C89 H90 0.959 . S
C89 H91 0.960 . S
C89 H92 0.961 . S
H90 C89 0.959 . S
H91 C89 0.960 . S
H92 C89 0.961 . S
O93 Co68 1.967 . S
O93 C101 1.258 . S
O94 Co69 1.944 . S
O94 C101 1.252 1_655 S
H95 C97 0.959 . S
H96 C97 0.961 . S
C97 C87 1.510 . S
C97 H95 0.959 . S
C97 H96 0.961 . S
C97 H98 0.960 . S
H98 C97 0.960 . S
H99 N79 0.862 . S
O100 Co68 1.920 . S
O100 C73 1.289 . S
C101 O93 1.258 . S
C101 O94 1.252 1_455 S
Co102 O105 1.970 . S
Co102 N119 1.989 . S
Co102 O127 1.967 . S
Co102 O134 1.920 . S
Co103 O106 1.966 . S
Co103 N112 2.022 . S
Co103 N120 1.993 . S
Co103 O128 1.941 . S
C104 O105 1.258 . S
C104 O106 1.263 . S
O105 Co102 1.970 . S
O105 C104 1.258 . S
O106 Co103 1.966 . S
O106 C104 1.263 . S
C107 O108 1.235 . S
C107 O134 1.289 . S
O108 C107 1.235 . S
C109 C111 1.400 . S
C109 N112 1.351 . S
C109 C114 1.501 . S
C110 C111 1.387 . S
C110 N113 1.341 . S
C111 C109 1.400 . S
C111 C110 1.387 . S
N112 Co103 2.022 . S
N112 C109 1.351 . S
N112 N113 1.365 . S
N113 C110 1.341 . S
N113 N112 1.365 . S
N113 H133 0.862 . S
C114 C109 1.501 . S
C114 H115 0.961 . S
C114 H116 0.961 . S
C114 H117 0.960 . S
H115 C114 0.961 . S
H116 C114 0.961 . S
H117 C114 0.960 . S
C118 N119 1.342 . S
C118 C122 1.401 . S
C118 C123 1.499 . S
N119 Co102 1.989 . S
N119 C118 1.342 . S
N119 N120 1.388 . S
N120 Co103 1.993 . S
N120 N119 1.388 . S
N120 C121 1.346 . S
C121 N120 1.346 . S
C121 C122 1.396 . S
C121 C131 1.510 . S
C122 C118 1.401 . S
C122 C121 1.396 . S
C123 C118 1.499 . S
C123 H124 0.959 . S
C123 H125 0.960 . S
C123 H126 0.961 . S
H124 C123 0.959 . S
H125 C123 0.960 . S
H126 C123 0.961 . S
O127 Co102 1.967 . S
O127 C135 1.258 . S
O128 Co103 1.941 . S
O128 C135 1.266 . S
H129 C131 0.959 . S
H130 C131 0.961 . S
C131 C121 1.510 . S
C131 H129 0.959 . S
C131 H130 0.961 . S
C131 H132 0.960 . S
H132 C131 0.960 . S
H133 N113 0.862 . S
O134 Co102 1.920 . S
O134 C107 1.289 . S
C135 O127 1.258 . S
C135 O128 1.266 . S
Co136 O139 1.970 . S
Co136 N153 1.989 . S
Co136 O161 1.967 . S
Co136 O168 1.920 . S
Co137 O140 1.966 . S
Co137 N146 2.022 . S
Co137 N154 1.993 . S
Co137 O162 1.941 . S
C138 O139 1.258 . S
C138 O140 1.263 . S
O139 Co136 1.970 . S
O139 C138 1.258 . S
O140 Co137 1.966 . S
O140 C138 1.263 . S
C141 O142 1.235 . S
C141 O168 1.289 . S
O142 C141 1.235 . S
C143 C145 1.400 . S
C143 N146 1.351 . S
C143 C148 1.501 . S
C144 C145 1.387 . S
C144 N147 1.341 . S
C145 C143 1.400 . S
C145 C144 1.387 . S
N146 Co137 2.022 . S
N146 C143 1.351 . S
N146 N147 1.365 . S
N147 C144 1.341 . S
N147 N146 1.365 . S
N147 H167 0.862 . S
C148 C143 1.501 . S
C148 H149 0.961 . S
C148 H150 0.961 . S
C148 H151 0.960 . S
H149 C148 0.961 . S
H150 C148 0.961 . S
H151 C148 0.960 . S
C152 N153 1.342 . S
C152 C156 1.401 . S
C152 C157 1.499 . S
N153 Co136 1.989 . S
N153 C152 1.342 . S
N153 N154 1.388 . S
N154 Co137 1.993 . S
N154 N153 1.388 . S
N154 C155 1.346 . S
C155 N154 1.346 . S
C155 C156 1.396 . S
C155 C165 1.510 . S
C156 C152 1.401 . S
C156 C155 1.396 . S
C157 C152 1.499 . S
C157 H158 0.959 . S
C157 H159 0.960 . S
C157 H160 0.961 . S
H158 C157 0.959 . S
H159 C157 0.960 . S
H160 C157 0.961 . S
O161 Co136 1.967 . S
O161 C169 1.258 . S
O162 Co137 1.941 . S
O162 C169 1.266 . S
H163 C165 0.959 . S
H164 C165 0.961 . S
C165 C155 1.510 . S
C165 H163 0.959 . S
C165 H164 0.961 . S
C165 H166 0.960 . S
H166 C165 0.960 . S
H167 N147 0.862 . S
O168 Co136 1.920 . S
O168 C141 1.289 . S
C169 O161 1.258 . S
C169 O162 1.266 . S
Co170 O173 1.970 . S
Co170 N187 1.989 1_655 S
Co170 O195 1.967 1_655 S
Co170 O202 1.920 . S
Co171 O174 1.966 . S
Co171 N180 2.022 . S
Co171 N188 1.993 . S
Co171 O196 1.941 . S
C172 O173 1.258 . S
C172 O174 1.263 1_655 S
O173 Co170 1.970 . S
O173 C172 1.258 . S
O174 Co171 1.966 . S
O174 C172 1.263 1_455 S
C175 O176 1.235 . S
C175 O202 1.289 . S
O176 C175 1.235 . S
C177 C179 1.400 . S
C177 N180 1.351 . S
C177 C182 1.501 . S
C178 C179 1.387 . S
C178 N181 1.341 . S
C179 C177 1.400 . S
C179 C178 1.387 . S
N180 Co171 2.022 . S
N180 C177 1.351 . S
N180 N181 1.365 . S
N181 C178 1.341 . S
N181 N180 1.365 . S
N181 H201 0.862 . S
C182 C177 1.501 . S
C182 H183 0.961 . S
C182 H184 0.961 . S
C182 H185 0.960 . S
H183 C182 0.961 . S
H184 C182 0.961 . S
H185 C182 0.960 . S
C186 N187 1.342 . S
C186 C190 1.401 . S
C186 C191 1.499 . S
N187 Co170 1.989 1_455 S
N187 C186 1.342 . S
N187 N188 1.388 . S
N188 Co171 1.993 . S
N188 N187 1.388 . S
N188 C189 1.346 . S
C189 N188 1.346 . S
C189 C190 1.396 . S
C189 C199 1.510 . S
C190 C186 1.401 . S
C190 C189 1.396 . S
C191 C186 1.499 . S
C191 H192 0.959 . S
C191 H193 0.960 . S
C191 H194 0.961 . S
H192 C191 0.959 . S
H193 C191 0.960 . S
H194 C191 0.961 . S
O195 Co170 1.967 1_455 S
O195 C203 1.258 . S
O196 Co171 1.941 . S
O196 C203 1.266 . S
H197 C199 0.959 . S
H198 C199 0.961 . S
C199 C189 1.510 . S
C199 H197 0.959 . S
C199 H198 0.961 . S
C199 H200 0.960 . S
H200 C199 0.960 . S
H201 N181 0.862 . S
O202 Co170 1.920 . S
O202 C175 1.289 . S
C203 O195 1.258 . S
C203 O196 1.266 . S
Co204 O207 1.970 . S
Co204 N221 1.989 . S
Co204 O229 1.967 . S
Co204 O236 1.920 . S
Co205 O208 1.966 . S
Co205 N214 2.022 . S
Co205 N222 1.993 . S
Co205 O230 1.941 . S
C206 O207 1.258 . S
C206 O208 1.263 . S
O207 Co204 1.970 . S
O207 C206 1.258 . S
O208 Co205 1.966 . S
O208 C206 1.263 . S
C209 O210 1.235 . S
C209 O236 1.289 . S
O210 C209 1.235 . S
C211 C213 1.400 . S
C211 N214 1.351 . S
C211 C216 1.501 . S
C212 C213 1.387 . S
C212 N215 1.341 . S
C213 C211 1.400 . S
C213 C212 1.387 . S
N214 Co205 2.022 . S
N214 C211 1.351 . S
N214 N215 1.365 . S
N215 C212 1.341 . S
N215 N214 1.365 . S
N215 H235 0.862 . S
C216 C211 1.501 . S
C216 H217 0.961 . S
C216 H218 0.961 . S
C216 H219 0.960 . S
H217 C216 0.961 . S
H218 C216 0.961 . S
H219 C216 0.960 . S
C220 N221 1.342 . S
C220 C224 1.401 . S
C220 C225 1.499 . S
N221 Co204 1.989 . S
N221 C220 1.342 . S
N221 N222 1.388 . S
N222 Co205 1.993 . S
N222 N221 1.388 . S
N222 C223 1.346 . S
C223 N222 1.346 . S
C223 C224 1.396 . S
C223 C233 1.510 . S
C224 C220 1.401 . S
C224 C223 1.396 . S
C225 C220 1.499 . S
C225 H226 0.959 . S
C225 H227 0.960 . S
C225 H228 0.961 . S
H226 C225 0.959 . S
H227 C225 0.960 . S
H228 C225 0.961 . S
O229 Co204 1.967 . S
O229 C237 1.258 . S
O230 Co205 1.941 . S
O230 C237 1.266 . S
H231 C233 0.959 . S
H232 C233 0.961 . S
C233 C223 1.510 . S
C233 H231 0.959 . S
C233 H232 0.961 . S
C233 H234 0.960 . S
H234 C233 0.960 . S
H235 N215 0.862 . S
O236 Co204 1.920 . S
O236 C209 1.289 . S
C237 O229 1.258 . S
C237 O230 1.266 . S
Co238 O241 1.970 1_455 S
Co238 N255 1.989 . S
Co238 O263 1.967 . S
Co238 O270 1.920 1_455 S
Co239 O242 1.966 . S
Co239 N248 2.022 . S
Co239 N256 1.993 . S
Co239 O264 1.941 . S
C240 O241 1.258 . S
C240 O242 1.263 1_655 S
O241 Co238 1.970 1_655 S
O241 C240 1.258 . S
O242 Co239 1.966 . S
O242 C240 1.263 1_455 S
C243 O244 1.235 . S
C243 O270 1.289 . S
O244 C243 1.235 . S
C245 C247 1.400 . S
C245 N248 1.351 . S
C245 C250 1.501 . S
C246 C247 1.387 . S
C246 N249 1.341 . S
C247 C245 1.400 . S
C247 C246 1.387 . S
N248 Co239 2.022 . S
N248 C245 1.351 . S
N248 N249 1.365 . S
N249 C246 1.341 . S
N249 N248 1.365 . S
N249 H269 0.862 . S
C250 C245 1.501 . S
C250 H251 0.961 . S
C250 H252 0.961 . S
C250 H253 0.960 . S
H251 C250 0.961 . S
H252 C250 0.961 . S
H253 C250 0.960 . S
C254 N255 1.342 . S
C254 C258 1.401 . S
C254 C259 1.499 . S
N255 Co238 1.989 . S
N255 C254 1.342 . S
N255 N256 1.388 . S
N256 Co239 1.993 . S
N256 N255 1.388 . S
N256 C257 1.346 . S
C257 N256 1.346 . S
C257 C258 1.396 . S
C257 C267 1.510 . S
C258 C254 1.401 . S
C258 C257 1.396 . S
C259 C254 1.499 . S
C259 H260 0.959 . S
C259 H261 0.960 . S
C259 H262 0.961 . S
H260 C259 0.959 . S
H261 C259 0.960 . S
H262 C259 0.961 . S
O263 Co238 1.967 . S
O263 C271 1.258 . S
O264 Co239 1.941 . S
O264 C271 1.266 . S
H265 C267 0.959 . S
H266 C267 0.961 . S
C267 C257 1.510 . S
C267 H265 0.959 . S
C267 H266 0.961 . S
C267 H268 0.960 . S
H268 C267 0.960 . S
H269 N249 0.862 . S
O270 Co238 1.920 1_655 S
O270 C243 1.289 . S
C271 O263 1.258 . S
C271 O264 1.266 . S
H272 C290 0.951 . S
H273 C292 0.951 . S
H274 C294 0.950 . S
H275 C295 0.950 . S
H276 C297 0.950 . S
H277 C300 0.950 . S
H278 C301 0.950 . S
H279 C303 0.950 . S
H280 C304 0.950 . S
H281 C305 0.951 . S
H282 C307 0.951 . S
H283 C309 0.950 . S
H284 C310 0.950 . S
H285 C312 0.950 . S
H286 C315 0.950 . S
H287 C316 0.950 . S
H288 C318 0.950 . S
H289 C319 0.950 . S
C290 H272 0.951 . S
C290 C291 1.366 . S
C290 C292 1.388 . S
C291 C290 1.366 . S
C291 C295 1.385 . S
C292 H273 0.951 . S
C292 C290 1.388 . S
C292 C293 1.366 . S
C293 C292 1.366 . S
C293 C294 1.414 . S
C293 C296 1.499 . S
C294 H274 0.950 . S
C294 C293 1.414 . S
C294 C295 1.374 . S
C295 H275 0.950 . S
C295 C291 1.385 . S
C295 C294 1.374 . S
C296 C293 1.499 . S
C296 C297 1.373 . S
C296 C298 1.389 . S
C297 H276 0.950 . S
C297 C296 1.373 . S
C297 C313 1.377 . S
C298 C296 1.389 . S
C298 C299 1.524 . S
C298 C312 1.377 . S
C299 C298 1.524 . S
C299 C300 1.397 . S
C299 C304 1.363 . S
C300 H277 0.950 . S
C300 C299 1.397 . S
C300 C301 1.334 . S
C301 H278 0.950 . S
C301 C300 1.334 . S
C301 C302 1.287 . S
C302 C301 1.287 . S
C302 C303 1.524 . S
C302 H321 0.913 . S
C303 H279 0.950 . S
C303 C302 1.524 . S
C303 C304 1.415 . S
C304 H280 0.950 . S
C304 C299 1.363 . S
C304 C303 1.415 . S
C305 H281 0.951 . S
C305 C306 1.366 . S
C305 C307 1.388 . S
C306 C305 1.366 . S
C306 C310 1.385 . S
C307 H282 0.951 . S
C307 C305 1.388 . S
C307 C308 1.366 . S
C308 C307 1.366 . S
C308 C309 1.414 . S
C308 C311 1.499 . S
C309 H283 0.950 . S
C309 C308 1.414 . S
C309 C310 1.374 . S
C310 H284 0.950 . S
C310 C306 1.385 . S
C310 C309 1.374 . S
C311 C308 1.499 . S
C311 C312 1.373 . S
C311 C313 1.389 . S
C312 H285 0.950 . S
C312 C298 1.377 . S
C312 C311 1.373 . S
C313 C297 1.377 . S
C313 C311 1.389 . S
C313 C314 1.524 . S
C314 C313 1.524 . S
C314 C315 1.397 . S
C314 C319 1.363 . S
C315 H286 0.950 . S
C315 C314 1.397 . S
C315 C316 1.334 . S
C316 H287 0.950 . S
C316 C315 1.334 . S
C316 C317 1.287 . S
C317 C316 1.287 . S
C317 C318 1.524 . S
C317 H320 0.999 . S
C318 H288 0.950 . S
C318 C317 1.524 . S
C318 C319 1.415 . S
C319 H289 0.950 . S
C319 C314 1.363 . S
C319 C318 1.415 . S
H320 C317 0.999 . S
H321 C302 0.913 . S
H322 C340 0.951 . S
H323 C342 0.951 . S
H324 C344 0.950 . S
H325 C345 0.950 . S
H326 C347 0.950 . S
H327 C350 0.950 . S
H328 C351 0.950 . S
H329 C353 0.950 . S
H330 C354 0.950 . S
H331 C355 0.951 . S
H332 C357 0.951 . S
H333 C359 0.950 . S
H334 C360 0.950 . S
H335 C362 0.950 . S
H336 C365 0.950 . S
H337 C366 0.950 . S
H338 C368 0.950 . S
H339 C369 0.950 . S
C340 H322 0.951 . S
C340 C341 1.366 . S
C340 C342 1.388 . S
C341 C340 1.366 . S
C341 C345 1.385 . S
C342 H323 0.951 . S
C342 C340 1.388 . S
C342 C343 1.366 . S
C343 C342 1.366 . S
C343 C344 1.414 . S
C343 C346 1.499 . S
C344 H324 0.950 . S
C344 C343 1.414 . S
C344 C345 1.374 . S
C345 H325 0.950 . S
C345 C341 1.385 . S
C345 C344 1.374 . S
C346 C343 1.499 . S
C346 C347 1.373 . S
C346 C348 1.389 . S
C347 H326 0.950 . S
C347 C346 1.373 . S
C347 C363 1.377 . S
C348 C346 1.389 . S
C348 C349 1.524 . S
C348 C362 1.377 . S
C349 C348 1.524 . S
C349 C350 1.397 . S
C349 C354 1.363 . S
C350 H327 0.950 . S
C350 C349 1.397 . S
C350 C351 1.334 . S
C351 H328 0.950 . S
C351 C350 1.334 . S
C351 C352 1.287 . S
C352 C351 1.287 . S
C352 C353 1.524 . S
C352 H371 0.913 . S
C353 H329 0.950 . S
C353 C352 1.524 . S
C353 C354 1.415 . S
C354 H330 0.950 . S
C354 C349 1.363 . S
C354 C353 1.415 . S
C355 H331 0.951 . S
C355 C356 1.366 . S
C355 C357 1.388 . S
C356 C355 1.366 . S
C356 C360 1.385 . S
C357 H332 0.951 . S
C357 C355 1.388 . S
C357 C358 1.366 . S
C358 C357 1.366 . S
C358 C359 1.414 . S
C358 C361 1.499 . S
C359 H333 0.950 . S
C359 C358 1.414 . S
C359 C360 1.374 . S
C360 H334 0.950 . S
C360 C356 1.385 . S
C360 C359 1.374 . S
C361 C358 1.499 . S
C361 C362 1.373 . S
C361 C363 1.389 . S
C362 H335 0.950 . S
C362 C348 1.377 . S
C362 C361 1.373 . S
C363 C347 1.377 . S
C363 C361 1.389 . S
C363 C364 1.524 . S
C364 C363 1.524 . S
C364 C365 1.397 . S
C364 C369 1.363 . S
C365 H336 0.950 . S
C365 C364 1.397 . S
C365 C366 1.334 . S
C366 H337 0.950 . S
C366 C365 1.334 . S
C366 C367 1.287 . S
C367 C366 1.287 . S
C367 C368 1.524 . S
C367 H370 0.999 . S
C368 H338 0.950 . S
C368 C367 1.524 . S
C368 C369 1.415 . S
C369 H339 0.950 . S
C369 C364 1.363 . S
C369 C368 1.415 . S
H370 C367 0.999 . S
H371 C352 0.913 . S
H372 C390 0.951 . S
H373 C392 0.951 . S
H374 C394 0.950 . S
H375 C395 0.950 . S
H376 C397 0.950 . S
H377 C400 0.950 . S
H378 C401 0.950 . S
H379 C403 0.950 . S
H380 C404 0.950 . S
H381 C405 0.951 . S
H382 C407 0.951 . S
H383 C409 0.950 . S
H384 C410 0.950 . S
H385 C412 0.950 . S
H386 C415 0.950 . S
H387 C416 0.950 . S
H388 C418 0.950 . S
H389 C419 0.950 . S
C390 H372 0.951 . S
C390 C391 1.366 . S
C390 C392 1.388 . S
C391 C390 1.366 . S
C391 C395 1.385 . S
C392 H373 0.951 . S
C392 C390 1.388 . S
C392 C393 1.366 . S
C393 C392 1.366 . S
C393 C394 1.414 . S
C393 C396 1.499 . S
C394 H374 0.950 . S
C394 C393 1.414 . S
C394 C395 1.374 . S
C395 H375 0.950 . S
C395 C391 1.385 . S
C395 C394 1.374 . S
C396 C393 1.499 . S
C396 C397 1.373 . S
C396 C398 1.389 . S
C397 H376 0.950 . S
C397 C396 1.373 . S
C397 C413 1.377 . S
C398 C396 1.389 . S
C398 C399 1.524 . S
C398 C412 1.377 . S
C399 C398 1.524 . S
C399 C400 1.397 . S
C399 C404 1.363 . S
C400 H377 0.950 . S
C400 C399 1.397 . S
C400 C401 1.334 . S
C401 H378 0.950 . S
C401 C400 1.334 . S
C401 C402 1.287 . S
C402 C401 1.287 . S
C402 C403 1.524 . S
C402 H421 0.913 . S
C403 H379 0.950 . S
C403 C402 1.524 . S
C403 C404 1.415 . S
C404 H380 0.950 . S
C404 C399 1.363 . S
C404 C403 1.415 . S
C405 H381 0.951 . S
C405 C406 1.366 . S
C405 C407 1.388 . S
C406 C405 1.366 . S
C406 C410 1.385 . S
C407 H382 0.951 . S
C407 C405 1.388 . S
C407 C408 1.366 . S
C408 C407 1.366 . S
C408 C409 1.414 . S
C408 C411 1.499 . S
C409 H383 0.950 . S
C409 C408 1.414 . S
C409 C410 1.374 . S
C410 H384 0.950 . S
C410 C406 1.385 . S
C410 C409 1.374 . S
C411 C408 1.499 . S
C411 C412 1.373 . S
C411 C413 1.389 . S
C412 H385 0.950 . S
C412 C398 1.377 . S
C412 C411 1.373 . S
C413 C397 1.377 . S
C413 C411 1.389 . S
C413 C414 1.524 . S
C414 C413 1.524 . S
C414 C415 1.397 . S
C414 C419 1.363 . S
C415 H386 0.950 . S
C415 C414 1.397 . S
C415 C416 1.334 . S
C416 H387 0.950 . S
C416 C415 1.334 . S
C416 C417 1.287 . S
C417 C416 1.287 . S
C417 C418 1.524 . S
C417 H420 0.999 . S
C418 H388 0.950 . S
C418 C417 1.524 . S
C418 C419 1.415 . S
C419 H389 0.950 . S
C419 C414 1.363 . S
C419 C418 1.415 . S
H420 C417 0.999 . S
H421 C402 0.913 . S
H422 C440 0.951 . S
H423 C442 0.951 . S
H424 C444 0.950 . S
H425 C445 0.950 . S
H426 C447 0.950 . S
H427 C450 0.950 . S
H428 C451 0.950 . S
H429 C453 0.950 . S
H430 C454 0.950 . S
H431 C455 0.951 . S
H432 C457 0.951 . S
H433 C459 0.950 . S
H434 C460 0.950 . S
H435 C462 0.950 . S
H436 C465 0.950 . S
H437 C466 0.950 . S
H438 C468 0.950 . S
H439 C469 0.950 . S
C440 H422 0.951 . S
C440 C441 1.366 . S
C440 C442 1.388 . S
C441 C440 1.366 . S
C441 C445 1.385 . S
C442 H423 0.951 . S
C442 C440 1.388 . S
C442 C443 1.366 . S
C443 C442 1.366 . S
C443 C444 1.414 . S
C443 C446 1.499 . S
C444 H424 0.950 . S
C444 C443 1.414 . S
C444 C445 1.374 . S
C445 H425 0.950 . S
C445 C441 1.385 . S
C445 C444 1.374 . S
C446 C443 1.499 . S
C446 C447 1.373 . S
C446 C448 1.389 . S
C447 H426 0.950 . S
C447 C446 1.373 . S
C447 C463 1.377 . S
C448 C446 1.389 . S
C448 C449 1.524 . S
C448 C462 1.377 . S
C449 C448 1.524 . S
C449 C450 1.397 . S
C449 C454 1.363 . S
C450 H427 0.950 . S
C450 C449 1.397 . S
C450 C451 1.334 . S
C451 H428 0.950 . S
C451 C450 1.334 . S
C451 C452 1.287 . S
C452 C451 1.287 . S
C452 C453 1.524 . S
C452 H471 0.913 . S
C453 H429 0.950 . S
C453 C452 1.524 . S
C453 C454 1.415 . S
C454 H430 0.950 . S
C454 C449 1.363 . S
C454 C453 1.415 . S
C455 H431 0.951 . S
C455 C456 1.366 . S
C455 C457 1.388 . S
C456 C455 1.366 . S
C456 C460 1.385 . S
C457 H432 0.951 . S
C457 C455 1.388 . S
C457 C458 1.366 . S
C458 C457 1.366 . S
C458 C459 1.414 . S
C458 C461 1.499 . S
C459 H433 0.950 . S
C459 C458 1.414 . S
C459 C460 1.374 . S
C460 H434 0.950 . S
C460 C456 1.385 . S
C460 C459 1.374 . S
C461 C458 1.499 . S
C461 C462 1.373 . S
C461 C463 1.389 . S
C462 H435 0.950 . S
C462 C448 1.377 . S
C462 C461 1.373 . S
C463 C447 1.377 . S
C463 C461 1.389 . S
C463 C464 1.524 . S
C464 C463 1.524 . S
C464 C465 1.397 . S
C464 C469 1.363 . S
C465 H436 0.950 . S
C465 C464 1.397 . S
C465 C466 1.334 . S
C466 H437 0.950 . S
C466 C465 1.334 . S
C466 C467 1.287 . S
C467 C466 1.287 . S
C467 C468 1.524 . S
C467 H470 0.999 . S
C468 H438 0.950 . S
C468 C467 1.524 . S
C468 C469 1.415 . S
C469 H439 0.950 . S
C469 C464 1.363 . S
C469 C468 1.415 . S
H470 C467 0.999 . S
H471 C452 0.913 . S
H472 C490 0.951 . S
H473 C492 0.951 . S
H474 C494 0.950 . S
H475 C495 0.950 . S
H476 C497 0.950 . S
H477 C500 0.950 . S
H478 C501 0.950 . S
H479 C503 0.950 . S
H480 C504 0.950 . S
H481 C505 0.951 . S
H482 C507 0.951 . S
H483 C509 0.950 . S
H484 C510 0.950 . S
H485 C512 0.950 . S
H486 C515 0.950 . S
H487 C516 0.950 . S
H488 C518 0.950 . S
H489 C519 0.950 . S
C490 H472 0.951 . S
C490 C491 1.366 . S
C490 C492 1.388 . S
C491 C490 1.366 . S
C491 C495 1.385 . S
C492 H473 0.951 . S
C492 C490 1.388 . S
C492 C493 1.366 . S
C493 C492 1.366 . S
C493 C494 1.414 . S
C493 C496 1.499 . S
C494 H474 0.950 . S
C494 C493 1.414 . S
C494 C495 1.374 . S
C495 H475 0.950 . S
C495 C491 1.385 . S
C495 C494 1.374 . S
C496 C493 1.499 . S
C496 C497 1.373 . S
C496 C498 1.389 . S
C497 H476 0.950 . S
C497 C496 1.373 . S
C497 C513 1.377 . S
C498 C496 1.389 . S
C498 C499 1.524 . S
C498 C512 1.377 . S
C499 C498 1.524 . S
C499 C500 1.397 . S
C499 C504 1.363 . S
C500 H477 0.950 . S
C500 C499 1.397 . S
C500 C501 1.334 . S
C501 H478 0.950 . S
C501 C500 1.334 . S
C501 C502 1.287 . S
C502 C501 1.287 . S
C502 C503 1.524 . S
C502 H521 0.913 . S
C503 H479 0.950 . S
C503 C502 1.524 . S
C503 C504 1.415 . S
C504 H480 0.950 . S
C504 C499 1.363 . S
C504 C503 1.415 . S
C505 H481 0.951 . S
C505 C506 1.366 . S
C505 C507 1.388 . S
C506 C505 1.366 . S
C506 C510 1.385 . S
C507 H482 0.951 . S
C507 C505 1.388 . S
C507 C508 1.366 . S
C508 C507 1.366 . S
C508 C509 1.414 . S
C508 C511 1.499 . S
C509 H483 0.950 . S
C509 C508 1.414 . S
C509 C510 1.374 . S
C510 H484 0.950 . S
C510 C506 1.385 . S
C510 C509 1.374 . S
C511 C508 1.499 . S
C511 C512 1.373 . S
C511 C513 1.389 . S
C512 H485 0.950 . S
C512 C498 1.377 . S
C512 C511 1.373 . S
C513 C497 1.377 . S
C513 C511 1.389 . S
C513 C514 1.524 . S
C514 C513 1.524 . S
C514 C515 1.397 . S
C514 C519 1.363 . S
C515 H486 0.950 . S
C515 C514 1.397 . S
C515 C516 1.334 . S
C516 H487 0.950 . S
C516 C515 1.334 . S
C516 C517 1.287 . S
C517 C516 1.287 . S
C517 C518 1.524 . S
C517 H520 0.999 . S
C518 H488 0.950 . S
C518 C517 1.524 . S
C518 C519 1.415 . S
C519 H489 0.950 . S
C519 C514 1.363 . S
C519 C518 1.415 . S
H520 C517 0.999 . S
H521 C502 0.913 . S
H522 C540 0.951 . S
H523 C542 0.951 . S
H524 C544 0.950 . S
H525 C545 0.950 . S
H526 C547 0.950 . S
H527 C550 0.950 . S
H528 C551 0.950 . S
H529 C553 0.950 . S
H530 C554 0.950 . S
H531 C555 0.951 . S
H532 C557 0.951 . S
H533 C559 0.950 . S
H534 C560 0.950 . S
H535 C562 0.950 . S
H536 C565 0.950 . S
H537 C566 0.950 . S
H538 C568 0.950 . S
H539 C569 0.950 . S
C540 H522 0.951 . S
C540 C541 1.366 . S
C540 C542 1.388 . S
C541 C540 1.366 . S
C541 C545 1.385 . S
C542 H523 0.951 . S
C542 C540 1.388 . S
C542 C543 1.366 . S
C543 C542 1.366 . S
C543 C544 1.414 . S
C543 C546 1.499 . S
C544 H524 0.950 . S
C544 C543 1.414 . S
C544 C545 1.374 . S
C545 H525 0.950 . S
C545 C541 1.385 . S
C545 C544 1.374 . S
C546 C543 1.499 . S
C546 C547 1.373 . S
C546 C548 1.389 . S
C547 H526 0.950 . S
C547 C546 1.373 . S
C547 C563 1.377 . S
C548 C546 1.389 . S
C548 C549 1.524 . S
C548 C562 1.377 . S
C549 C548 1.524 . S
C549 C550 1.397 . S
C549 C554 1.363 . S
C550 H527 0.950 . S
C550 C549 1.397 . S
C550 C551 1.334 . S
C551 H528 0.950 . S
C551 C550 1.334 . S
C551 C552 1.287 . S
C552 C551 1.287 . S
C552 C553 1.524 . S
C552 H571 0.913 . S
C553 H529 0.950 . S
C553 C552 1.524 . S
C553 C554 1.415 . S
C554 H530 0.950 . S
C554 C549 1.363 . S
C554 C553 1.415 . S
C555 H531 0.951 . S
C555 C556 1.366 . S
C555 C557 1.388 . S
C556 C555 1.366 . S
C556 C560 1.385 . S
C557 H532 0.951 . S
C557 C555 1.388 . S
C557 C558 1.366 . S
C558 C557 1.366 . S
C558 C559 1.414 . S
C558 C561 1.499 . S
C559 H533 0.950 . S
C559 C558 1.414 . S
C559 C560 1.374 . S
C560 H534 0.950 . S
C560 C556 1.385 . S
C560 C559 1.374 . S
C561 C558 1.499 . S
C561 C562 1.373 . S
C561 C563 1.389 . S
C562 H535 0.950 . S
C562 C548 1.377 . S
C562 C561 1.373 . S
C563 C547 1.377 . S
C563 C561 1.389 . S
C563 C564 1.524 . S
C564 C563 1.524 . S
C564 C565 1.397 . S
C564 C569 1.363 . S
C565 H536 0.950 . S
C565 C564 1.397 . S
C565 C566 1.334 . S
C566 H537 0.950 . S
C566 C565 1.334 . S
C566 C567 1.287 . S
C567 C566 1.287 . S
C567 C568 1.524 . S
C567 H570 0.999 . S
C568 H538 0.950 . S
C568 C567 1.524 . S
C568 C569 1.415 . S
C569 H539 0.950 . S
C569 C564 1.363 . S
C569 C568 1.415 . S
H570 C567 0.999 . S
H571 C552 0.913 . S
H572 C590 0.951 . S
H573 C592 0.951 . S
H574 C594 0.950 . S
H575 C595 0.950 . S
H576 C597 0.950 . S
H577 C600 0.950 . S
H578 C601 0.950 . S
H579 C603 0.950 . S
H580 C604 0.950 . S
H581 C605 0.951 . S
H582 C607 0.951 . S
H583 C609 0.950 . S
H584 C610 0.950 . S
H585 C612 0.950 . S
H586 C615 0.950 . S
H587 C616 0.950 . S
H588 C618 0.950 . S
H589 C619 0.950 . S
C590 H572 0.951 . S
C590 C591 1.366 . S
C590 C592 1.388 . S
C591 C590 1.366 . S
C591 C595 1.385 . S
C592 H573 0.951 . S
C592 C590 1.388 . S
C592 C593 1.366 . S
C593 C592 1.366 . S
C593 C594 1.414 . S
C593 C596 1.499 . S
C594 H574 0.950 . S
C594 C593 1.414 . S
C594 C595 1.374 . S
C595 H575 0.950 . S
C595 C591 1.385 . S
C595 C594 1.374 . S
C596 C593 1.499 . S
C596 C597 1.373 . S
C596 C598 1.389 . S
C597 H576 0.950 . S
C597 C596 1.373 . S
C597 C613 1.377 . S
C598 C596 1.389 . S
C598 C599 1.524 . S
C598 C612 1.377 . S
C599 C598 1.524 . S
C599 C600 1.397 . S
C599 C604 1.363 . S
C600 H577 0.950 . S
C600 C599 1.397 . S
C600 C601 1.334 . S
C601 H578 0.950 . S
C601 C600 1.334 . S
C601 C602 1.287 . S
C602 C601 1.287 . S
C602 C603 1.524 . S
C602 H621 0.913 . S
C603 H579 0.950 . S
C603 C602 1.524 . S
C603 C604 1.415 . S
C604 H580 0.950 . S
C604 C599 1.363 . S
C604 C603 1.415 . S
C605 H581 0.951 . S
C605 C606 1.366 . S
C605 C607 1.388 . S
C606 C605 1.366 . S
C606 C610 1.385 . S
C607 H582 0.951 . S
C607 C605 1.388 . S
C607 C608 1.366 . S
C608 C607 1.366 . S
C608 C609 1.414 . S
C608 C611 1.499 . S
C609 H583 0.950 . S
C609 C608 1.414 . S
C609 C610 1.374 . S
C610 H584 0.950 . S
C610 C606 1.385 . S
C610 C609 1.374 . S
C611 C608 1.499 . S
C611 C612 1.373 . S
C611 C613 1.389 . S
C612 H585 0.950 . S
C612 C598 1.377 . S
C612 C611 1.373 . S
C613 C597 1.377 . S
C613 C611 1.389 . S
C613 C614 1.524 . S
C614 C613 1.524 . S
C614 C615 1.397 . S
C614 C619 1.363 . S
C615 H586 0.950 . S
C615 C614 1.397 . S
C615 C616 1.334 . S
C616 H587 0.950 . S
C616 C615 1.334 . S
C616 C617 1.287 . S
C617 C616 1.287 . S
C617 C618 1.524 . S
C617 H620 0.999 . S
C618 H588 0.950 . S
C618 C617 1.524 . S
C618 C619 1.415 . S
C619 H589 0.950 . S
C619 C614 1.363 . S
C619 C618 1.415 . S
H620 C617 0.999 . S
H621 C602 0.913 . S
H622 C640 0.951 . S
H623 C642 0.951 . S
H624 C644 0.950 . S
H625 C645 0.950 . S
H626 C647 0.950 . S
H627 C650 0.950 . S
H628 C651 0.950 . S
H629 C653 0.950 . S
H630 C654 0.950 . S
H631 C655 0.951 . S
H632 C657 0.951 . S
H633 C659 0.950 . S
H634 C660 0.950 . S
H635 C662 0.950 . S
H636 C665 0.950 . S
H637 C666 0.950 . S
H638 C668 0.950 . S
H639 C669 0.950 . S
C640 H622 0.951 . S
C640 C641 1.366 . S
C640 C642 1.388 . S
C641 C640 1.366 . S
C641 C645 1.385 . S
C642 H623 0.951 . S
C642 C640 1.388 . S
C642 C643 1.366 . S
C643 C642 1.366 . S
C643 C644 1.414 . S
C643 C646 1.499 . S
C644 H624 0.950 . S
C644 C643 1.414 . S
C644 C645 1.374 . S
C645 H625 0.950 . S
C645 C641 1.385 . S
C645 C644 1.374 . S
C646 C643 1.499 . S
C646 C647 1.373 . S
C646 C648 1.389 . S
C647 H626 0.950 . S
C647 C646 1.373 . S
C647 C663 1.377 . S
C648 C646 1.389 . S
C648 C649 1.524 . S
C648 C662 1.377 . S
C649 C648 1.524 . S
C649 C650 1.397 . S
C649 C654 1.363 . S
C650 H627 0.950 . S
C650 C649 1.397 . S
C650 C651 1.334 . S
C651 H628 0.950 . S
C651 C650 1.334 . S
C651 C652 1.287 . S
C652 C651 1.287 . S
C652 C653 1.524 . S
C652 H671 0.913 . S
C653 H629 0.950 . S
C653 C652 1.524 . S
C653 C654 1.415 . S
C654 H630 0.950 . S
C654 C649 1.363 . S
C654 C653 1.415 . S
C655 H631 0.951 . S
C655 C656 1.366 . S
C655 C657 1.388 . S
C656 C655 1.366 . S
C656 C660 1.385 . S
C657 H632 0.951 . S
C657 C655 1.388 . S
C657 C658 1.366 . S
C658 C657 1.366 . S
C658 C659 1.414 . S
C658 C661 1.499 . S
C659 H633 0.950 . S
C659 C658 1.414 . S
C659 C660 1.374 . S
C660 H634 0.950 . S
C660 C656 1.385 . S
C660 C659 1.374 . S
C661 C658 1.499 . S
C661 C662 1.373 . S
C661 C663 1.389 . S
C662 H635 0.950 . S
C662 C648 1.377 . S
C662 C661 1.373 . S
C663 C647 1.377 . S
C663 C661 1.389 . S
C663 C664 1.524 . S
C664 C663 1.524 . S
C664 C665 1.397 . S
C664 C669 1.363 . S
C665 H636 0.950 . S
C665 C664 1.397 . S
C665 C666 1.334 . S
C666 H637 0.950 . S
C666 C665 1.334 . S
C666 C667 1.287 . S
C667 C666 1.287 . S
C667 C668 1.524 . S
C667 H670 0.999 . S
C668 H638 0.950 . S
C668 C667 1.524 . S
C668 C669 1.415 . S
C669 H639 0.950 . S
C669 C664 1.363 . S
C669 C668 1.415 . S
H670 C667 0.999 . S
H671 C652 0.913 . S
H672 C690 0.951 . S
H673 C692 0.951 . S
H674 C694 0.950 . S
H675 C695 0.950 . S
H676 C697 0.950 . S
H677 C700 0.950 . S
H678 C701 0.950 . S
H679 C703 0.950 . S
H680 C704 0.950 . S
H681 C705 0.951 1_655 S
H682 C707 0.951 1_655 S
H683 C709 0.950 . S
H684 C710 0.950 . S
H685 C712 0.950 . S
H686 C715 0.950 . S
H687 C716 0.950 . S
H688 C718 0.950 . S
H689 C719 0.950 1_655 S
C690 H672 0.951 . S
C690 C691 1.366 . S
C690 C692 1.388 . S
C691 C690 1.366 . S
C691 C695 1.385 1_455 S
C692 H673 0.951 . S
C692 C690 1.388 . S
C692 C693 1.366 . S
C693 C692 1.366 . S
C693 C694 1.414 1_455 S
C693 C696 1.499 . S
C694 H674 0.950 . S
C694 C693 1.414 1_655 S
C694 C695 1.374 . S
C695 H675 0.950 . S
C695 C691 1.385 1_655 S
C695 C694 1.374 . S
C696 C693 1.499 . S
C696 C697 1.373 . S
C696 C698 1.389 . S
C697 H676 0.950 . S
C697 C696 1.373 . S
C697 C713 1.377 . S
C698 C696 1.389 . S
C698 C699 1.524 . S
C698 C712 1.377 . S
C699 C698 1.524 . S
C699 C700 1.397 1_455 S
C699 C704 1.363 . S
C700 H677 0.950 . S
C700 C699 1.397 1_655 S
C700 C701 1.334 . S
C701 H678 0.950 . S
C701 C700 1.334 . S
C701 C702 1.270 1_655 S
C702 C701 1.270 1_455 S
C702 C703 1.544 . S
C702 H721 0.912 1_455 S
C703 H679 0.950 . S
C703 C702 1.544 . S
C703 C704 1.415 . S
C704 H680 0.950 . S
C704 C699 1.363 . S
C704 C703 1.415 . S
C705 H681 0.951 1_455 S
C705 C706 1.366 . S
C705 C707 1.388 . S
C706 C705 1.366 . S
C706 C710 1.385 . S
C707 H682 0.951 1_455 S
C707 C705 1.388 . S
C707 C708 1.366 . S
C708 C707 1.366 . S
C708 C709 1.414 . S
C708 C711 1.499 . S
C709 H683 0.950 . S
C709 C708 1.414 . S
C709 C710 1.374 . S
C710 H684 0.950 . S
C710 C706 1.385 . S
C710 C709 1.374 . S
C711 C708 1.499 . S
C711 C712 1.373 . S
C711 C713 1.389 . S
C712 H685 0.950 . S
C712 C698 1.377 . S
C712 C711 1.373 . S
C713 C697 1.377 . S
C713 C711 1.389 . S
C713 C714 1.524 . S
C714 C713 1.524 . S
C714 C715 1.397 . S
C714 C719 1.363 . S
C715 H686 0.950 . S
C715 C714 1.397 . S
C715 C716 1.334 . S
C716 H687 0.950 . S
C716 C715 1.334 . S
C716 C717 1.287 . S
C717 C716 1.287 . S
C717 C718 1.524 . S
C717 H720 0.999 . S
C718 H688 0.950 . S
C718 C717 1.524 . S
C718 C719 1.415 . S
C719 H689 0.950 1_455 S
C719 C714 1.363 . S
C719 C718 1.415 . S
H720 C717 0.999 . S
H721 C702 0.912 1_655 S
H722 C740 0.951 . S
H723 C742 0.951 . S
H724 C744 0.950 . S
H725 C745 0.950 . S
H726 C747 0.950 . S
H727 C750 0.950 . S
H728 C751 0.955 . S
H729 C753 0.950 . S
H730 C754 0.950 . S
H731 C755 0.951 . S
H732 C757 0.951 1_556 S
H733 C759 0.950 . S
H734 C760 0.950 . S
H735 C762 0.950 . S
H736 C765 0.950 1_554 S
H737 C766 0.950 . S
H738 C768 0.950 . S
H739 C769 0.950 . S
C740 H722 0.951 . S
C740 C741 1.366 . S
C740 C742 1.388 . S
C741 C740 1.366 . S
C741 C745 1.385 . S
C742 H723 0.951 . S
C742 C740 1.388 . S
C742 C743 1.366 . S
C743 C742 1.366 . S
C743 C744 1.414 . S
C743 C746 1.499 . S
C744 H724 0.950 . S
C744 C743 1.414 . S
C744 C745 1.374 . S
C745 H725 0.950 . S
C745 C741 1.385 . S
C745 C744 1.374 . S
C746 C743 1.499 . S
C746 C747 1.373 . S
C746 C748 1.389 . S
C747 H726 0.950 . S
C747 C746 1.373 . S
C747 C763 1.377 . S
C748 C746 1.389 . S
C748 C749 1.524 1_556 S
C748 C762 1.377 1_556 S
C749 C748 1.524 1_554 S
C749 C750 1.397 1_554 S
C749 C754 1.363 . S
C750 H727 0.950 . S
C750 C749 1.397 1_556 S
C750 C751 1.336 . S
C751 H728 0.955 . S
C751 C750 1.336 . S
C751 C752 1.280 1_556 S
C752 C751 1.280 1_554 S
C752 C753 1.524 . S
C752 H771 0.913 . S
C753 H729 0.950 . S
C753 C752 1.524 . S
C753 C754 1.415 . S
C754 H730 0.950 . S
C754 C749 1.363 . S
C754 C753 1.415 . S
C755 H731 0.951 . S
C755 C756 1.366 . S
C755 C757 1.388 . S
C756 C755 1.366 . S
C756 C760 1.385 . S
C757 H732 0.951 1_554 S
C757 C755 1.388 . S
C757 C758 1.366 . S
C758 C757 1.366 . S
C758 C759 1.414 . S
C758 C761 1.499 . S
C759 H733 0.950 . S
C759 C758 1.414 . S
C759 C760 1.374 . S
C760 H734 0.950 . S
C760 C756 1.385 . S
C760 C759 1.374 . S
C761 C758 1.499 . S
C761 C762 1.373 . S
C761 C763 1.389 1_554 S
C762 H735 0.950 . S
C762 C748 1.377 1_554 S
C762 C761 1.373 . S
C763 C747 1.377 . S
C763 C761 1.389 1_556 S
C763 C764 1.524 . S
C764 C763 1.524 . S
C764 C765 1.397 . S
C764 C769 1.363 . S
C765 H736 0.950 1_556 S
C765 C764 1.397 . S
C765 C766 1.334 . S
C766 H737 0.950 . S
C766 C765 1.334 . S
C766 C767 1.287 . S
C767 C766 1.287 . S
C767 C768 1.524 . S
C767 H770 0.999 . S
C768 H738 0.950 . S
C768 C767 1.524 . S
C768 C769 1.415 . S
C769 H739 0.950 . S
C769 C764 1.363 . S
C769 C768 1.415 . S
H770 C767 0.999 . S
H771 C752 0.913 . S
H772 C790 0.951 . S
H773 C792 0.951 . S
H774 C794 0.950 . S
H775 C795 0.950 . S
H776 C797 0.950 . S
H777 C800 0.950 . S
H778 C801 0.950 . S
H779 C803 0.950 . S
H780 C804 0.950 . S
H781 C805 0.951 . S
H782 C807 0.951 . S
H783 C809 0.950 . S
H784 C810 0.950 . S
H785 C812 0.952 . S
H786 C815 0.950 . S
H787 C816 0.950 . S
H788 C818 0.950 . S
H789 C819 0.950 . S
C790 H772 0.951 . S
C790 C791 1.366 . S
C790 C792 1.388 . S
C791 C790 1.366 . S
C791 C795 1.385 . S
C792 H773 0.951 . S
C792 C790 1.388 . S
C792 C793 1.366 . S
C793 C792 1.366 . S
C793 C794 1.414 . S
C793 C796 1.499 . S
C794 H774 0.950 . S
C794 C793 1.414 . S
C794 C795 1.374 . S
C795 H775 0.950 . S
C795 C791 1.385 . S
C795 C794 1.374 . S
C796 C793 1.499 . S
C796 C797 1.373 . S
C796 C798 1.389 . S
C797 H776 0.950 . S
C797 C796 1.373 . S
C797 C813 1.377 1_545 S
C798 C796 1.389 . S
C798 C799 1.524 . S
C798 C812 1.340 1_545 S
C799 C798 1.524 . S
C799 C800 1.397 . S
C799 C804 1.363 . S
C800 H777 0.950 . S
C800 C799 1.397 . S
C800 C801 1.334 . S
C801 H778 0.950 . S
C801 C800 1.334 . S
C801 C802 1.287 . S
C802 C801 1.287 . S
C802 C803 1.524 . S
C802 H821 0.913 . S
C803 H779 0.950 . S
C803 C802 1.524 . S
C803 C804 1.415 . S
C804 H780 0.950 . S
C804 C799 1.363 . S
C804 C803 1.415 . S
C805 H781 0.951 . S
C805 C806 1.366 . S
C805 C807 1.388 . S
C806 C805 1.366 . S
C806 C810 1.385 . S
C807 H782 0.951 . S
C807 C805 1.388 . S
C807 C808 1.366 . S
C808 C807 1.366 . S
C808 C809 1.414 . S
C808 C811 1.499 . S
C809 H783 0.950 . S
C809 C808 1.414 . S
C809 C810 1.374 . S
C810 H784 0.950 . S
C810 C806 1.385 . S
C810 C809 1.374 . S
C811 C808 1.499 . S
C811 C812 1.409 . S
C811 C813 1.389 . S
C812 H785 0.952 . S
C812 C798 1.340 1_565 S
C812 C811 1.409 . S
C813 C797 1.377 1_565 S
C813 C811 1.389 . S
C813 C814 1.524 . S
C814 C813 1.524 . S
C814 C815 1.397 . S
C814 C819 1.363 . S
C815 H786 0.950 . S
C815 C814 1.397 . S
C815 C816 1.334 . S
C816 H787 0.950 . S
C816 C815 1.334 . S
C816 C817 1.287 . S
C817 C816 1.287 . S
C817 C818 1.524 . S
C817 H820 0.999 . S
C818 H788 0.950 . S
C818 C817 1.524 . S
C818 C819 1.415 . S
C819 H789 0.950 . S
C819 C814 1.363 . S
C819 C818 1.415 . S
H820 C817 0.999 . S
H821 C802 0.913 . S
H822 C840 0.951 1_655 S
H823 C842 0.951 1_655 S
H824 C844 0.910 1_556 S
H825 C845 0.950 . S
H826 C847 0.956 . S
H827 C850 0.950 . S
H828 C851 0.950 1_556 S
H829 C853 0.950 . S
H830 C854 0.950 . S
H831 C855 0.951 . S
H832 C857 0.951 . S
H833 C859 0.944 1_655 S
H834 C860 0.950 . S
H835 C862 0.950 . S
H836 C865 0.950 . S
H837 C866 0.950 . S
H838 C868 0.969 . S
H839 C869 0.950 . S
C840 H822 0.951 1_455 S
C840 C841 1.366 . S
C840 C842 1.388 . S
C841 C840 1.366 . S
C841 C845 1.385 . S
C842 H823 0.951 1_455 S
C842 C840 1.388 . S
C842 C843 1.366 . S
C843 C842 1.366 . S
C843 C844 1.414 . S
C843 C846 1.499 . S
C844 H824 0.910 1_554 S
C844 C843 1.414 . S
C844 C845 1.374 . S
C845 H825 0.950 . S
C845 C841 1.385 . S
C845 C844 1.374 . S
C846 C843 1.499 . S
C846 C847 1.373 1_554 S
C846 C848 1.389 1_464 S
C847 H826 0.956 . S
C847 C846 1.373 1_556 S
C847 C863 1.377 1_565 S
C848 C846 1.389 1_646 S
C848 C849 1.524 1_546 S
C848 C862 1.377 . S
C849 C848 1.524 1_564 S
C849 C850 1.397 1_554 S
C849 C854 1.363 1_565 S
C850 H827 0.950 . S
C850 C849 1.397 1_556 S
C850 C851 1.334 1_556 S
C851 H828 0.950 1_554 S
C851 C850 1.334 1_554 S
C851 C852 1.287 . S
C852 C851 1.287 . S
C852 C853 1.524 1_565 S
C852 H871 0.913 . S
C853 H829 0.950 . S
C853 C852 1.524 1_545 S
C853 C854 1.415 . S
C854 H830 0.950 . S
C854 C849 1.363 1_545 S
C854 C853 1.415 . S
C855 H831 0.951 . S
C855 C856 1.366 . S
C855 C857 1.388 . S
C856 C855 1.366 . S
C856 C860 1.385 . S
C857 H832 0.951 . S
C857 C855 1.388 . S
C857 C858 1.366 . S
C858 C857 1.366 . S
C858 C859 1.414 . S
C858 C861 1.499 . S
C859 H833 0.944 1_455 S
C859 C858 1.414 . S
C859 C860 1.374 . S
C860 H834 0.950 . S
C860 C856 1.385 . S
C860 C859 1.374 . S
C861 C858 1.499 . S
C861 C862 1.373 1_455 S
C861 C863 1.389 . S
C862 H835 0.950 . S
C862 C848 1.377 . S
C862 C861 1.373 1_655 S
C863 C847 1.377 1_545 S
C863 C861 1.389 . S
C863 C864 1.524 . S
C864 C863 1.524 . S
C864 C865 1.397 . S
C864 C869 1.363 1_545 S
C865 H836 0.950 . S
C865 C864 1.397 . S
C865 C866 1.334 . S
C866 H837 0.950 . S
C866 C865 1.334 . S
C866 C867 1.287 . S
C867 C866 1.287 . S
C867 C868 1.495 1_545 S
C867 H870 0.999 . S
C868 H838 0.969 . S
C868 C867 1.495 1_565 S
C868 C869 1.423 . S
C869 H839 0.950 . S
C869 C864 1.363 1_565 S
C869 C868 1.423 . S
H870 C867 0.999 . S
H871 C852 0.913 . S
H872 C890 0.951 . S
H873 C892 0.951 . S
H874 C894 0.950 . S
H875 C895 0.950 . S
H876 C897 0.950 . S
H877 C900 0.950 . S
H878 C901 0.950 . S
H879 C903 0.950 . S
H880 C904 0.950 . S
H881 C905 0.951 . S
H882 C907 0.951 . S
H883 C909 0.950 . S
H884 C910 0.950 . S
H885 C912 0.950 . S
H886 C915 0.950 . S
H887 C916 0.950 . S
H888 C918 0.950 . S
H889 C919 0.950 . S
C890 H872 0.951 . S
C890 C891 1.366 . S
C890 C892 1.388 . S
C891 C890 1.366 . S
C891 C895 1.385 . S
C892 H873 0.951 . S
C892 C890 1.388 . S
C892 C893 1.366 . S
C893 C892 1.366 . S
C893 C894 1.414 . S
C893 C896 1.499 . S
C894 H874 0.950 . S
C894 C893 1.414 . S
C894 C895 1.374 . S
C895 H875 0.950 . S
C895 C891 1.385 . S
C895 C894 1.374 . S
C896 C893 1.499 . S
C896 C897 1.373 . S
C896 C898 1.389 . S
C897 H876 0.950 . S
C897 C896 1.373 . S
C897 C913 1.377 . S
C898 C896 1.389 . S
C898 C899 1.524 . S
C898 C912 1.377 . S
C899 C898 1.524 . S
C899 C900 1.397 . S
C899 C904 1.363 . S
C900 H877 0.950 . S
C900 C899 1.397 . S
C900 C901 1.334 . S
C901 H878 0.950 . S
C901 C900 1.334 . S
C901 C902 1.287 . S
C902 C901 1.287 . S
C902 C903 1.524 . S
C902 H921 0.913 . S
C903 H879 0.950 . S
C903 C902 1.524 . S
C903 C904 1.415 . S
C904 H880 0.950 . S
C904 C899 1.363 . S
C904 C903 1.415 . S
C905 H881 0.951 . S
C905 C906 1.366 . S
C905 C907 1.388 . S
C906 C905 1.366 . S
C906 C910 1.385 . S
C907 H882 0.951 . S
C907 C905 1.388 . S
C907 C908 1.366 . S
C908 C907 1.366 . S
C908 C909 1.414 . S
C908 C911 1.499 . S
C909 H883 0.950 . S
C909 C908 1.414 . S
C909 C910 1.374 . S
C910 H884 0.950 . S
C910 C906 1.385 . S
C910 C909 1.374 . S
C911 C908 1.499 . S
C911 C912 1.373 . S
C911 C913 1.389 . S
C912 H885 0.950 . S
C912 C898 1.377 . S
C912 C911 1.373 . S
C913 C897 1.377 . S
C913 C911 1.389 . S
C913 C914 1.524 . S
C914 C913 1.524 . S
C914 C915 1.397 . S
C914 C919 1.363 . S
C915 H886 0.950 . S
C915 C914 1.397 . S
C915 C916 1.334 . S
C916 H887 0.950 . S
C916 C915 1.334 . S
C916 C917 1.287 . S
C917 C916 1.287 . S
C917 C918 1.524 . S
C917 H920 0.999 . S
C918 H888 0.950 . S
C918 C917 1.524 . S
C918 C919 1.415 . S
C919 H889 0.950 . S
C919 C914 1.363 . S
C919 C918 1.415 . S
H920 C917 0.999 . S
H921 C902 0.913 . S
H922 C940 0.951 . S
H923 C942 0.951 . S
H924 C944 0.950 . S
H925 C945 0.950 . S
H926 C947 0.950 . S
H927 C950 0.950 1_556 S
H928 C951 0.950 . S
H929 C953 0.950 . S
H930 C954 0.950 . S
H931 C955 0.951 . S
H932 C957 0.951 1_556 S
H933 C959 0.950 . S
H934 C960 0.950 . S
H935 C962 0.965 . S
H936 C965 0.950 . S
H937 C966 0.950 . S
H938 C968 0.950 . S
H939 C969 0.950 . S
C940 H922 0.951 . S
C940 C941 1.366 . S
C940 C942 1.388 . S
C941 C940 1.366 . S
C941 C945 1.385 . S
C942 H923 0.951 . S
C942 C940 1.388 . S
C942 C943 1.366 . S
C943 C942 1.366 . S
C943 C944 1.414 . S
C943 C946 1.499 . S
C944 H924 0.950 . S
C944 C943 1.414 . S
C944 C945 1.374 . S
C945 H925 0.950 . S
C945 C941 1.385 . S
C945 C944 1.374 . S
C946 C943 1.499 . S
C946 C947 1.373 . S
C946 C948 1.389 . S
C947 H926 0.950 . S
C947 C946 1.373 . S
C947 C963 1.377 . S
C948 C946 1.389 . S
C948 C949 1.524 1_556 S
C948 C962 1.368 1_556 S
C949 C948 1.524 1_554 S
C949 C950 1.397 . S
C949 C954 1.363 . S
C950 H927 0.950 1_554 S
C950 C949 1.397 . S
C950 C951 1.334 . S
C951 H928 0.950 . S
C951 C950 1.334 . S
C951 C952 1.287 . S
C952 C951 1.287 . S
C952 C953 1.524 . S
C952 H971 0.913 . S
C953 H929 0.950 . S
C953 C952 1.524 . S
C953 C954 1.415 . S
C954 H930 0.950 . S
C954 C949 1.363 . S
C954 C953 1.415 . S
C955 H931 0.951 . S
C955 C956 1.366 . S
C955 C957 1.388 . S
C956 C955 1.366 . S
C956 C960 1.385 . S
C957 H932 0.951 1_554 S
C957 C955 1.388 . S
C957 C958 1.366 . S
C958 C957 1.366 . S
C958 C959 1.414 . S
C958 C961 1.499 1_554 S
C959 H933 0.950 . S
C959 C958 1.414 . S
C959 C960 1.374 . S
C960 H934 0.950 . S
C960 C956 1.385 . S
C960 C959 1.374 . S
C961 C958 1.499 1_556 S
C961 C962 1.367 1_556 S
C961 C963 1.389 . S
C962 H935 0.965 . S
C962 C948 1.368 1_554 S
C962 C961 1.367 1_554 S
C963 C947 1.377 . S
C963 C961 1.389 . S
C963 C964 1.524 . S
C964 C963 1.524 . S
C964 C965 1.397 . S
C964 C969 1.363 . S
C965 H936 0.950 . S
C965 C964 1.397 . S
C965 C966 1.334 . S
C966 H937 0.950 . S
C966 C965 1.334 . S
C966 C967 1.287 . S
C967 C966 1.287 . S
C967 C968 1.524 . S
C967 H970 0.999 . S
C968 H938 0.950 . S
C968 C967 1.524 . S
C968 C969 1.415 . S
C969 H939 0.950 . S
C969 C964 1.363 . S
C969 C968 1.415 . S
H970 C967 0.999 . S
H971 C952 0.913 . S
H972 C990 0.951 . S
H973 C992 0.951 . S
H974 C994 0.950 . S
H975 C995 0.950 . S
H976 C997 0.950 . S
H977 C1000 0.950 . S
H978 C1001 0.950 . S
H979 C1003 0.950 . S
H980 C1004 0.950 . S
H981 C1005 0.951 . S
H982 C1007 0.951 . S
H983 C1009 0.950 . S
H984 C1010 0.950 . S
H985 C1012 0.950 . S
H986 C1015 0.950 . S
H987 C1016 0.950 . S
H988 C1018 0.950 . S
H989 C1019 0.950 . S
C990 H972 0.951 . S
C990 C991 1.366 . S
C990 C992 1.388 . S
C991 C990 1.366 . S
C991 C995 1.385 . S
C992 H973 0.951 . S
C992 C990 1.388 . S
C992 C993 1.366 . S
C993 C992 1.366 . S
C993 C994 1.414 . S
C993 C996 1.499 . S
C994 H974 0.950 . S
C994 C993 1.414 . S
C994 C995 1.374 . S
C995 H975 0.950 . S
C995 C991 1.385 . S
C995 C994 1.374 . S
C996 C993 1.499 . S
C996 C997 1.373 . S
C996 C998 1.389 . S
C997 H976 0.950 . S
C997 C996 1.373 . S
C997 C1013 1.377 . S
C998 C996 1.389 . S
C998 C999 1.524 . S
C998 C1012 1.377 . S
C999 C998 1.524 . S
C999 C1000 1.397 . S
C999 C1004 1.363 . S
C1000 H977 0.950 . S
C1000 C999 1.397 . S
C1000 C1001 1.334 . S
C1001 H978 0.950 . S
C1001 C1000 1.334 . S
C1001 C1002 1.287 . S
C1002 C1001 1.287 . S
C1002 C1003 1.524 . S
C1002 H1021 0.913 . S
C1003 H979 0.950 . S
C1003 C1002 1.524 . S
C1003 C1004 1.415 . S
C1004 H980 0.950 . S
C1004 C999 1.363 . S
C1004 C1003 1.415 . S
C1005 H981 0.951 . S
C1005 C1006 1.366 . S
C1005 C1007 1.388 . S
C1006 C1005 1.366 . S
C1006 C1010 1.385 . S
C1007 H982 0.951 . S
C1007 C1005 1.388 . S
C1007 C1008 1.366 . S
C1008 C1007 1.366 . S
C1008 C1009 1.414 . S
C1008 C1011 1.499 . S
C1009 H983 0.950 . S
C1009 C1008 1.414 . S
C1009 C1010 1.374 . S
C1010 H984 0.950 . S
C1010 C1006 1.385 . S
C1010 C1009 1.374 . S
C1011 C1008 1.499 . S
C1011 C1012 1.373 . S
C1011 C1013 1.389 . S
C1012 H985 0.950 . S
C1012 C998 1.377 . S
C1012 C1011 1.373 . S
C1013 C997 1.377 . S
C1013 C1011 1.389 . S
C1013 C1014 1.524 . S
C1014 C1013 1.524 . S
C1014 C1015 1.397 . S
C1014 C1019 1.363 . S
C1015 H986 0.950 . S
C1015 C1014 1.397 . S
C1015 C1016 1.334 . S
C1016 H987 0.950 . S
C1016 C1015 1.334 . S
C1016 C1017 1.287 . S
C1017 C1016 1.287 . S
C1017 C1018 1.524 . S
C1017 H1020 0.999 . S
C1018 H988 0.950 . S
C1018 C1017 1.524 . S
C1018 C1019 1.415 . S
C1019 H989 0.950 . S
C1019 C1014 1.363 . S
C1019 C1018 1.415 . S
H1020 C1017 0.999 . S
H1021 C1002 0.913 . S
H1022 C1040 0.951 . S
H1023 C1042 0.951 . S
H1024 C1044 0.950 1_554 S
H1025 C1045 0.950 . S
H1026 C1047 0.950 . S
H1027 C1050 0.950 . S
H1028 C1051 0.950 1_554 S
H1029 C1053 0.950 . S
H1030 C1054 0.950 . S
H1031 C1055 0.951 . S
H1032 C1057 0.951 . S
H1033 C1059 0.950 . S
H1034 C1060 0.950 . S
H1035 C1062 0.950 . S
H1036 C1065 0.950 1_556 S
H1037 C1066 0.950 . S
H1038 C1068 0.950 . S
H1039 C1069 0.950 . S
C1040 H1022 0.951 . S
C1040 C1041 1.366 . S
C1040 C1042 1.388 . S
C1041 C1040 1.366 . S
C1041 C1045 1.385 . S
C1042 H1023 0.951 . S
C1042 C1040 1.388 . S
C1042 C1043 1.366 . S
C1043 C1042 1.366 . S
C1043 C1044 1.414 . S
C1043 C1046 1.499 . S
C1044 H1024 0.950 1_556 S
C1044 C1043 1.414 . S
C1044 C1045 1.374 . S
C1045 H1025 0.950 . S
C1045 C1041 1.385 . S
C1045 C1044 1.374 . S
C1046 C1043 1.499 . S
C1046 C1047 1.373 1_556 S
C1046 C1048 1.389 . S
C1047 H1026 0.950 . S
C1047 C1046 1.373 1_554 S
C1047 C1063 1.377 . S
C1048 C1046 1.389 . S
C1048 C1049 1.524 . S
C1048 C1062 1.377 1_556 S
C1049 C1048 1.524 . S
C1049 C1050 1.397 1_556 S
C1049 C1054 1.363 . S
C1050 H1027 0.950 . S
C1050 C1049 1.397 1_554 S
C1050 C1051 1.334 1_554 S
C1051 H1028 0.950 1_556 S
C1051 C1050 1.334 1_556 S
C1051 C1052 1.287 . S
C1052 C1051 1.287 . S
C1052 C1053 1.524 . S
C1052 H1071 0.913 . S
C1053 H1029 0.950 . S
C1053 C1052 1.524 . S
C1053 C1054 1.415 . S
C1054 H1030 0.950 . S
C1054 C1049 1.363 . S
C1054 C1053 1.415 . S
C1055 H1031 0.951 . S
C1055 C1056 1.366 . S
C1055 C1057 1.388 . S
C1056 C1055 1.366 . S
C1056 C1060 1.385 . S
C1057 H1032 0.951 . S
C1057 C1055 1.388 . S
C1057 C1058 1.366 . S
C1058 C1057 1.366 . S
C1058 C1059 1.414 . S
C1058 C1061 1.499 . S
C1059 H1033 0.950 . S
C1059 C1058 1.414 . S
C1059 C1060 1.374 . S
C1060 H1034 0.950 . S
C1060 C1056 1.385 . S
C1060 C1059 1.374 . S
C1061 C1058 1.499 . S
C1061 C1062 1.373 . S
C1061 C1063 1.389 . S
C1062 H1035 0.950 . S
C1062 C1048 1.377 1_554 S
C1062 C1061 1.373 . S
C1063 C1047 1.377 . S
C1063 C1061 1.389 . S
C1063 C1064 1.524 . S
C1064 C1063 1.524 . S
C1064 C1065 1.397 . S
C1064 C1069 1.363 . S
C1065 H1036 0.950 1_554 S
C1065 C1064 1.397 . S
C1065 C1066 1.334 . S
C1066 H1037 0.950 . S
C1066 C1065 1.334 . S
C1066 C1067 1.287 . S
C1067 C1066 1.287 . S
C1067 C1068 1.524 . S
C1067 H1070 0.999 . S
C1068 H1038 0.950 . S
C1068 C1067 1.524 . S
C1068 C1069 1.415 . S
C1069 H1039 0.950 . S
C1069 C1064 1.363 . S
C1069 C1068 1.415 . S
H1070 C1067 0.999 . S
H1071 C1052 0.913 . S
H1072 C1090 0.951 . S
H1073 C1092 0.951 . S
H1074 C1094 0.950 . S
H1075 C1095 0.950 . S
H1076 C1097 0.950 . S
H1077 C1100 0.950 . S
H1078 C1101 0.950 . S
H1079 C1103 0.950 . S
H1080 C1104 0.950 . S
H1081 C1105 0.951 . S
H1082 C1107 0.951 . S
H1083 C1109 0.950 . S
H1084 C1110 0.950 . S
H1085 C1112 0.950 . S
H1086 C1115 0.950 . S
H1087 C1116 0.950 . S
H1088 C1118 0.950 . S
H1089 C1119 0.950 . S
C1090 H1072 0.951 . S
C1090 C1091 1.366 . S
C1090 C1092 1.388 . S
C1091 C1090 1.366 . S
C1091 C1095 1.385 . S
C1092 H1073 0.951 . S
C1092 C1090 1.388 . S
C1092 C1093 1.366 . S
C1093 C1092 1.366 . S
C1093 C1094 1.414 . S
C1093 C1096 1.499 . S
C1094 H1074 0.950 . S
C1094 C1093 1.414 . S
C1094 C1095 1.374 . S
C1095 H1075 0.950 . S
C1095 C1091 1.385 . S
C1095 C1094 1.374 . S
C1096 C1093 1.499 . S
C1096 C1097 1.373 . S
C1096 C1098 1.389 . S
C1097 H1076 0.950 . S
C1097 C1096 1.373 . S
C1097 C1113 1.377 . S
C1098 C1096 1.389 . S
C1098 C1099 1.524 . S
C1098 C1112 1.377 . S
C1099 C1098 1.524 . S
C1099 C1100 1.397 . S
C1099 C1104 1.363 . S
C1100 H1077 0.950 . S
C1100 C1099 1.397 . S
C1100 C1101 1.334 . S
C1101 H1078 0.950 . S
C1101 C1100 1.334 . S
C1101 C1102 1.287 . S
C1102 C1101 1.287 . S
C1102 C1103 1.524 . S
C1102 H1121 0.913 . S
C1103 H1079 0.950 . S
C1103 C1102 1.524 . S
C1103 C1104 1.415 . S
C1104 H1080 0.950 . S
C1104 C1099 1.363 . S
C1104 C1103 1.415 . S
C1105 H1081 0.951 . S
C1105 C1106 1.366 . S
C1105 C1107 1.388 . S
C1106 C1105 1.366 . S
C1106 C1110 1.385 . S
C1107 H1082 0.951 . S
C1107 C1105 1.388 . S
C1107 C1108 1.366 . S
C1108 C1107 1.366 . S
C1108 C1109 1.414 . S
C1108 C1111 1.499 . S
C1109 H1083 0.950 . S
C1109 C1108 1.414 . S
C1109 C1110 1.374 . S
C1110 H1084 0.950 . S
C1110 C1106 1.385 . S
C1110 C1109 1.374 . S
C1111 C1108 1.499 . S
C1111 C1112 1.373 . S
C1111 C1113 1.389 . S
C1112 H1085 0.950 . S
C1112 C1098 1.377 . S
C1112 C1111 1.373 . S
C1113 C1097 1.377 . S
C1113 C1111 1.389 . S
C1113 C1114 1.524 . S
C1114 C1113 1.524 . S
C1114 C1115 1.397 . S
C1114 C1119 1.363 . S
C1115 H1086 0.950 . S
C1115 C1114 1.397 . S
C1115 C1116 1.334 . S
C1116 H1087 0.950 . S
C1116 C1115 1.334 . S
C1116 C1117 1.287 . S
C1117 C1116 1.287 . S
C1117 C1118 1.524 . S
C1117 H1120 0.999 . S
C1118 H1088 0.950 . S
C1118 C1117 1.524 . S
C1118 C1119 1.415 . S
C1119 H1089 0.950 . S
C1119 C1114 1.363 . S
C1119 C1118 1.415 . S
H1120 C1117 0.999 . S
H1121 C1102 0.913 . S
H1122 C1140 0.951 . S
H1123 C1142 0.951 . S
H1124 C1144 0.950 . S
H1125 C1145 0.950 . S
H1126 C1147 0.950 . S
H1127 C1150 0.950 . S
H1128 C1151 0.950 . S
H1129 C1153 0.950 . S
H1130 C1154 0.950 . S
H1131 C1155 0.951 . S
H1132 C1157 0.951 . S
H1133 C1159 0.950 . S
H1134 C1160 0.950 . S
H1135 C1162 0.950 . S
H1136 C1165 0.950 . S
H1137 C1166 0.950 . S
H1138 C1168 0.950 . S
H1139 C1169 0.950 . S
C1140 H1122 0.951 . S
C1140 C1141 1.366 . S
C1140 C1142 1.388 . S
C1141 C1140 1.366 . S
C1141 C1145 1.385 . S
C1142 H1123 0.951 . S
C1142 C1140 1.388 . S
C1142 C1143 1.366 . S
C1143 C1142 1.366 . S
C1143 C1144 1.414 1_554 S
C1143 C1146 1.499 1_554 S
C1144 H1124 0.950 . S
C1144 C1143 1.414 1_556 S
C1144 C1145 1.374 1_556 S
C1145 H1125 0.950 . S
C1145 C1141 1.385 . S
C1145 C1144 1.374 1_554 S
C1146 C1143 1.499 1_556 S
C1146 C1147 1.373 . S
C1146 C1148 1.389 1_556 S
C1147 H1126 0.950 . S
C1147 C1146 1.373 . S
C1147 C1163 1.377 . S
C1148 C1146 1.389 1_554 S
C1148 C1149 1.524 . S
C1148 C1162 1.377 1_554 S
C1149 C1148 1.524 . S
C1149 C1150 1.397 . S
C1149 C1154 1.363 . S
C1150 H1127 0.950 . S
C1150 C1149 1.397 . S
C1150 C1151 1.334 . S
C1151 H1128 0.950 . S
C1151 C1150 1.334 . S
C1151 C1152 1.287 . S
C1152 C1151 1.287 . S
C1152 C1153 1.524 . S
C1152 H1171 0.913 . S
C1153 H1129 0.950 . S
C1153 C1152 1.524 . S
C1153 C1154 1.415 . S
C1154 H1130 0.950 . S
C1154 C1149 1.363 . S
C1154 C1153 1.415 . S
C1155 H1131 0.951 . S
C1155 C1156 1.366 . S
C1155 C1157 1.388 . S
C1156 C1155 1.366 . S
C1156 C1160 1.385 . S
C1157 H1132 0.951 . S
C1157 C1155 1.388 . S
C1157 C1158 1.366 . S
C1158 C1157 1.366 . S
C1158 C1159 1.414 . S
C1158 C1161 1.499 . S
C1159 H1133 0.950 . S
C1159 C1158 1.414 . S
C1159 C1160 1.374 . S
C1160 H1134 0.950 . S
C1160 C1156 1.385 . S
C1160 C1159 1.374 . S
C1161 C1158 1.499 . S
C1161 C1162 1.373 . S
C1161 C1163 1.389 . S
C1162 H1135 0.950 . S
C1162 C1148 1.377 1_556 S
C1162 C1161 1.373 . S
C1163 C1147 1.377 . S
C1163 C1161 1.389 . S
C1163 C1164 1.524 . S
C1164 C1163 1.524 . S
C1164 C1165 1.397 . S
C1164 C1169 1.363 . S
C1165 H1136 0.950 . S
C1165 C1164 1.397 . S
C1165 C1166 1.334 . S
C1166 H1137 0.950 . S
C1166 C1165 1.334 . S
C1166 C1167 1.287 . S
C1167 C1166 1.287 . S
C1167 C1168 1.524 . S
C1167 H1170 0.999 . S
C1168 H1138 0.950 . S
C1168 C1167 1.524 . S
C1168 C1169 1.415 . S
C1169 H1139 0.950 . S
C1169 C1164 1.363 . S
C1169 C1168 1.415 . S
H1170 C1167 0.999 . S
H1171 C1152 0.913 . S
H1172 C1190 0.951 . S
H1173 C1192 0.951 . S
H1174 C1194 0.950 . S
H1175 C1195 0.950 . S
H1176 C1197 0.950 . S
H1177 C1200 0.950 . S
H1178 C1201 0.950 . S
H1179 C1203 0.950 . S
H1180 C1204 0.950 . S
H1181 C1205 0.951 . S
H1182 C1207 0.951 . S
H1183 C1209 0.950 . S
H1184 C1210 0.950 . S
H1185 C1212 0.950 . S
H1186 C1215 0.950 . S
H1187 C1216 0.950 . S
H1188 C1218 0.950 . S
H1189 C1219 0.950 . S
C1190 H1172 0.951 . S
C1190 C1191 1.366 . S
C1190 C1192 1.388 . S
C1191 C1190 1.366 . S
C1191 C1195 1.385 . S
C1192 H1173 0.951 . S
C1192 C1190 1.388 . S
C1192 C1193 1.366 . S
C1193 C1192 1.366 . S
C1193 C1194 1.414 . S
C1193 C1196 1.499 . S
C1194 H1174 0.950 . S
C1194 C1193 1.414 . S
C1194 C1195 1.374 . S
C1195 H1175 0.950 . S
C1195 C1191 1.385 . S
C1195 C1194 1.374 . S
C1196 C1193 1.499 . S
C1196 C1197 1.373 . S
C1196 C1198 1.389 . S
C1197 H1176 0.950 . S
C1197 C1196 1.373 . S
C1197 C1213 1.377 . S
C1198 C1196 1.389 . S
C1198 C1199 1.524 . S
C1198 C1212 1.377 . S
C1199 C1198 1.524 . S
C1199 C1200 1.397 . S
C1199 C1204 1.363 . S
C1200 H1177 0.950 . S
C1200 C1199 1.397 . S
C1200 C1201 1.334 . S
C1201 H1178 0.950 . S
C1201 C1200 1.334 . S
C1201 C1202 1.287 . S
C1202 C1201 1.287 . S
C1202 C1203 1.524 . S
C1202 H1221 0.913 . S
C1203 H1179 0.950 . S
C1203 C1202 1.524 . S
C1203 C1204 1.415 . S
C1204 H1180 0.950 . S
C1204 C1199 1.363 . S
C1204 C1203 1.415 . S
C1205 H1181 0.951 . S
C1205 C1206 1.366 . S
C1205 C1207 1.388 . S
C1206 C1205 1.366 . S
C1206 C1210 1.385 . S
C1207 H1182 0.951 . S
C1207 C1205 1.388 . S
C1207 C1208 1.366 . S
C1208 C1207 1.366 . S
C1208 C1209 1.414 . S
C1208 C1211 1.499 . S
C1209 H1183 0.950 . S
C1209 C1208 1.414 . S
C1209 C1210 1.374 . S
C1210 H1184 0.950 . S
C1210 C1206 1.385 . S
C1210 C1209 1.374 . S
C1211 C1208 1.499 . S
C1211 C1212 1.373 . S
C1211 C1213 1.389 . S
C1212 H1185 0.950 . S
C1212 C1198 1.377 . S
C1212 C1211 1.373 . S
C1213 C1197 1.377 . S
C1213 C1211 1.389 . S
C1213 C1214 1.524 . S
C1214 C1213 1.524 . S
C1214 C1215 1.397 . S
C1214 C1219 1.363 . S
C1215 H1186 0.950 . S
C1215 C1214 1.397 . S
C1215 C1216 1.334 . S
C1216 H1187 0.950 . S
C1216 C1215 1.334 . S
C1216 C1217 1.287 . S
C1217 C1216 1.287 . S
C1217 C1218 1.524 . S
C1217 H1220 0.999 . S
C1218 H1188 0.950 . S
C1218 C1217 1.524 . S
C1218 C1219 1.415 . S
C1219 H1189 0.950 . S
C1219 C1214 1.363 . S
C1219 C1218 1.415 . S
H1220 C1217 0.999 . S
H1221 C1202 0.913 . S
H1222 C1240 0.951 . S
H1223 C1242 0.951 . S
H1224 C1244 0.950 . S
H1225 C1245 0.950 . S
H1226 C1247 0.950 . S
H1227 C1250 0.950 . S
H1228 C1251 0.950 . S
H1229 C1253 0.950 . S
H1230 C1254 0.950 1_554 S
H1231 C1255 0.951 . S
H1232 C1257 0.951 . S
H1233 C1259 0.950 . S
H1234 C1260 0.950 . S
H1235 C1262 0.950 . S
H1236 C1265 0.950 . S
H1237 C1266 0.950 . S
H1238 C1268 0.950 . S
H1239 C1269 0.950 . S
C1240 H1222 0.951 . S
C1240 C1241 1.366 . S
C1240 C1242 1.388 . S
C1241 C1240 1.366 . S
C1241 C1245 1.385 . S
C1242 H1223 0.951 . S
C1242 C1240 1.388 . S
C1242 C1243 1.366 . S
C1243 C1242 1.366 . S
C1243 C1244 1.414 . S
C1243 C1246 1.499 . S
C1244 H1224 0.950 . S
C1244 C1243 1.414 . S
C1244 C1245 1.374 . S
C1245 H1225 0.950 . S
C1245 C1241 1.385 . S
C1245 C1244 1.374 . S
C1246 C1243 1.499 . S
C1246 C1247 1.373 1_556 S
C1246 C1248 1.389 . S
C1247 H1226 0.950 . S
C1247 C1246 1.373 1_554 S
C1247 C1263 1.377 . S
C1248 C1246 1.389 . S
C1248 C1249 1.524 . S
C1248 C1262 1.377 1_556 S
C1249 C1248 1.524 . S
C1249 C1250 1.397 . S
C1249 C1254 1.363 . S
C1250 H1227 0.950 . S
C1250 C1249 1.397 . S
C1250 C1251 1.334 . S
C1251 H1228 0.950 . S
C1251 C1250 1.334 . S
C1251 C1252 1.287 . S
C1252 C1251 1.287 . S
C1252 C1253 1.524 . S
C1252 H1271 0.913 . S
C1253 H1229 0.950 . S
C1253 C1252 1.524 . S
C1253 C1254 1.415 . S
C1254 H1230 0.950 1_556 S
C1254 C1249 1.363 . S
C1254 C1253 1.415 . S
C1255 H1231 0.951 . S
C1255 C1256 1.366 . S
C1255 C1257 1.388 . S
C1256 C1255 1.366 . S
C1256 C1260 1.385 . S
C1257 H1232 0.951 . S
C1257 C1255 1.388 . S
C1257 C1258 1.366 . S
C1258 C1257 1.366 . S
C1258 C1259 1.414 . S
C1258 C1261 1.499 . S
C1259 H1233 0.950 . S
C1259 C1258 1.414 . S
C1259 C1260 1.374 . S
C1260 H1234 0.950 . S
C1260 C1256 1.385 . S
C1260 C1259 1.374 . S
C1261 C1258 1.499 . S
C1261 C1262 1.373 . S
C1261 C1263 1.389 . S
C1262 H1235 0.950 . S
C1262 C1248 1.377 1_554 S
C1262 C1261 1.373 . S
C1263 C1247 1.377 . S
C1263 C1261 1.389 . S
C1263 C1264 1.524 . S
C1264 C1263 1.524 . S
C1264 C1265 1.397 . S
C1264 C1269 1.363 . S
C1265 H1236 0.950 . S
C1265 C1264 1.397 . S
C1265 C1266 1.334 . S
C1266 H1237 0.950 . S
C1266 C1265 1.334 . S
C1266 C1267 1.287 . S
C1267 C1266 1.287 . S
C1267 C1268 1.524 . S
C1267 H1270 0.999 . S
C1268 H1238 0.950 . S
C1268 C1267 1.524 . S
C1268 C1269 1.415 . S
C1269 H1239 0.950 . S
C1269 C1264 1.363 . S
C1269 C1268 1.415 . S
H1270 C1267 0.999 . S
H1271 C1252 0.913 . S
C291 C5 1.718 . S
C306 C107 1.699 . S
C341 C39 1.499 . S
C356 C88 1.549 . S
C391 C77 1.500 . S
C406 C54 1.522 . S
C441 C122 1.287 . S
C456 C20 1.287 . S
C491 C141 1.718 . S
C506 C243 1.699 . S
C541 C224 1.550 . S
C556 C175 1.499 . S
C591 C190 1.522 . S
C606 C213 1.500 . S
C641 C258 1.287 . S
C656 C156 1.287 . S
C691 C101 1.680 . S
C706 C33 1.665 . S
C741 C67 1.444 . S
C756 C135 1.430 . S
C791 C237 1.680 . S
C806 C169 1.665 . S
C841 C271 1.430 . S
C856 C203 1.444 . S
C891 C2 1.983 . S
C906 C206 1.984 . S
C941 C36 1.133 . S
C956 C247 1.101 . S
C991 C73 1.329 . S
C1006 C145 1.332 . S
C1041 C179 1.581 . S
C1056 C104 1.616 . S
C1091 C70 1.984 . S
C1106 C138 1.983 . S
C1141 C111 1.101 . S
C1156 C172 1.133 . S
C1191 C9 1.332 . S
C1206 C209 1.329 . S
C1241 C43 1.580 . S
C1256 C240 1.616 . S
