# Generated by pormake.
# Topology wjr, (5)-cn, num edge types: 1
# Building blocks:
#     Node 0, Type 0, BuildingBlock: XOMCOT_clean_sbu_1, # of connection points: 5
#     Node 1, Type 0, BuildingBlock: XOMCOT_clean_sbu_1, # of connection points: 5
#     Node 2, Type 0, BuildingBlock: XOMCOT_clean_sbu_1, # of connection points: 5
#     Node 3, Type 0, BuildingBlock: XOMCOT_clean_sbu_1, # of connection points: 5
#     Node 4, Type 0, BuildingBlock: XOMCOT_clean_sbu_1, # of connection points: 5
#     Node 5, Type 0, BuildingBlock: XOMCOT_clean_sbu_1, # of connection points: 5
#     Node 6, Type 0, BuildingBlock: XOMCOT_clean_sbu_1, # of connection points: 5
#     Node 7, Type 0, BuildingBlock: XOMCOT_clean_sbu_1, # of connection points: 5
#     Node 8, Type 0, BuildingBlock: XOMCOT_clean_sbu_1, # of connection points: 5
#     Node 9, Type 0, BuildingBlock: XOMCOT_clean_sbu_1, # of connection points: 5
#     Node 10, Type 0, BuildingBlock: XOMCOT_clean_sbu_1, # of connection points: 5
#     Node 11, Type 0, BuildingBlock: XOMCOT_clean_sbu_1, # of connection points: 5
#     Node 12, Type 0, BuildingBlock: XOMCOT_clean_sbu_1, # of connection points: 5
#     Node 13, Type 0, BuildingBlock: XOMCOT_clean_sbu_1, # of connection points: 5
#     Node 14, Type 0, BuildingBlock: XOMCOT_clean_sbu_1, # of connection points: 5
#     Node 15, Type 0, BuildingBlock: XOMCOT_clean_sbu_1, # of connection points: 5
#     Node 16, Type 0, BuildingBlock: XOMCOT_clean_sbu_1, # of connection points: 5
#     Node 17, Type 0, BuildingBlock: XOMCOT_clean_sbu_1, # of connection points: 5
#     Node 18, Type 0, BuildingBlock: XOMCOT_clean_sbu_1, # of connection points: 5
#     Node 19, Type 0, BuildingBlock: XOMCOT_clean_sbu_1, # of connection points: 5
#     Node 20, Type 0, BuildingBlock: XOMCOT_clean_sbu_1, # of connection points: 5
#     Node 21, Type 0, BuildingBlock: XOMCOT_clean_sbu_1, # of connection points: 5
#     Node 22, Type 0, BuildingBlock: XOMCOT_clean_sbu_1, # of connection points: 5
#     Node 23, Type 0, BuildingBlock: XOMCOT_clean_sbu_1, # of connection points: 5
#     Edge 24, Type (0, 0), BuildingBlock: ZUJKAS_clean_linker_0, # of connection points: 2
#     Edge 25, Type (0, 0), BuildingBlock: ZUJKAS_clean_linker_0, # of connection points: 2
#     Edge 26, Type (0, 0), BuildingBlock: ZUJKAS_clean_linker_0, # of connection points: 2
#     Edge 27, Type (0, 0), BuildingBlock: ZUJKAS_clean_linker_0, # of connection points: 2
#     Edge 28, Type (0, 0), BuildingBlock: ZUJKAS_clean_linker_0, # of connection points: 2
#     Edge 29, Type (0, 0), BuildingBlock: ZUJKAS_clean_linker_0, # of connection points: 2
#     Edge 30, Type (0, 0), BuildingBlock: ZUJKAS_clean_linker_0, # of connection points: 2
#     Edge 31, Type (0, 0), BuildingBlock: ZUJKAS_clean_linker_0, # of connection points: 2
#     Edge 32, Type (0, 0), BuildingBlock: ZUJKAS_clean_linker_0, # of connection points: 2
#     Edge 33, Type (0, 0), BuildingBlock: ZUJKAS_clean_linker_0, # of connection points: 2
#     Edge 34, Type (0, 0), BuildingBlock: ZUJKAS_clean_linker_0, # of connection points: 2
#     Edge 35, Type (0, 0), BuildingBlock: ZUJKAS_clean_linker_0, # of connection points: 2
#     Edge 36, Type (0, 0), BuildingBlock: ZUJKAS_clean_linker_0, # of connection points: 2
#     Edge 37, Type (0, 0), BuildingBlock: ZUJKAS_clean_linker_0, # of connection points: 2
#     Edge 38, Type (0, 0), BuildingBlock: ZUJKAS_clean_linker_0, # of connection points: 2
#     Edge 39, Type (0, 0), BuildingBlock: ZUJKAS_clean_linker_0, # of connection points: 2
#     Edge 40, Type (0, 0), BuildingBlock: ZUJKAS_clean_linker_0, # of connection points: 2
#     Edge 41, Type (0, 0), BuildingBlock: ZUJKAS_clean_linker_0, # of connection points: 2
#     Edge 42, Type (0, 0), BuildingBlock: ZUJKAS_clean_linker_0, # of connection points: 2
#     Edge 43, Type (0, 0), BuildingBlock: ZUJKAS_clean_linker_0, # of connection points: 2
#     Edge 44, Type (0, 0), BuildingBlock: ZUJKAS_clean_linker_0, # of connection points: 2
#     Edge 45, Type (0, 0), BuildingBlock: ZUJKAS_clean_linker_0, # of connection points: 2
#     Edge 46, Type (0, 0), BuildingBlock: ZUJKAS_clean_linker_0, # of connection points: 2
#     Edge 47, Type (0, 0), BuildingBlock: ZUJKAS_clean_linker_0, # of connection points: 2
#     Edge 48, Type (0, 0), BuildingBlock: ZUJKAS_clean_linker_0, # of connection points: 2
#     Edge 49, Type (0, 0), BuildingBlock: ZUJKAS_clean_linker_0, # of connection points: 2
#     Edge 50, Type (0, 0), BuildingBlock: ZUJKAS_clean_linker_0, # of connection points: 2
#     Edge 51, Type (0, 0), BuildingBlock: ZUJKAS_clean_linker_0, # of connection points: 2
#     Edge 52, Type (0, 0), BuildingBlock: ZUJKAS_clean_linker_0, # of connection points: 2
#     Edge 53, Type (0, 0), BuildingBlock: ZUJKAS_clean_linker_0, # of connection points: 2
#     Edge 54, Type (0, 0), BuildingBlock: ZUJKAS_clean_linker_0, # of connection points: 2
#     Edge 55, Type (0, 0), BuildingBlock: ZUJKAS_clean_linker_0, # of connection points: 2
#     Edge 56, Type (0, 0), BuildingBlock: ZUJKAS_clean_linker_0, # of connection points: 2
#     Edge 57, Type (0, 0), BuildingBlock: ZUJKAS_clean_linker_0, # of connection points: 2
#     Edge 58, Type (0, 0), BuildingBlock: ZUJKAS_clean_linker_0, # of connection points: 2
#     Edge 59, Type (0, 0), BuildingBlock: ZUJKAS_clean_linker_0, # of connection points: 2
#     Edge 60, Type (0, 0), BuildingBlock: ZUJKAS_clean_linker_0, # of connection points: 2
#     Edge 61, Type (0, 0), BuildingBlock: ZUJKAS_clean_linker_0, # of connection points: 2
#     Edge 62, Type (0, 0), BuildingBlock: ZUJKAS_clean_linker_0, # of connection points: 2
#     Edge 63, Type (0, 0), BuildingBlock: ZUJKAS_clean_linker_0, # of connection points: 2
#     Edge 64, Type (0, 0), BuildingBlock: ZUJKAS_clean_linker_0, # of connection points: 2
#     Edge 65, Type (0, 0), BuildingBlock: ZUJKAS_clean_linker_0, # of connection points: 2
#     Edge 66, Type (0, 0), BuildingBlock: ZUJKAS_clean_linker_0, # of connection points: 2
#     Edge 67, Type (0, 0), BuildingBlock: ZUJKAS_clean_linker_0, # of connection points: 2
#     Edge 68, Type (0, 0), BuildingBlock: ZUJKAS_clean_linker_0, # of connection points: 2
#     Edge 69, Type (0, 0), BuildingBlock: ZUJKAS_clean_linker_0, # of connection points: 2
#     Edge 70, Type (0, 0), BuildingBlock: ZUJKAS_clean_linker_0, # of connection points: 2
#     Edge 71, Type (0, 0), BuildingBlock: ZUJKAS_clean_linker_0, # of connection points: 2
#     Edge 72, Type (0, 0), BuildingBlock: ZUJKAS_clean_linker_0, # of connection points: 2
#     Edge 73, Type (0, 0), BuildingBlock: ZUJKAS_clean_linker_0, # of connection points: 2
#     Edge 74, Type (0, 0), BuildingBlock: ZUJKAS_clean_linker_0, # of connection points: 2
#     Edge 75, Type (0, 0), BuildingBlock: ZUJKAS_clean_linker_0, # of connection points: 2
#     Edge 76, Type (0, 0), BuildingBlock: ZUJKAS_clean_linker_0, # of connection points: 2
#     Edge 77, Type (0, 0), BuildingBlock: ZUJKAS_clean_linker_0, # of connection points: 2
#     Edge 78, Type (0, 0), BuildingBlock: ZUJKAS_clean_linker_0, # of connection points: 2
#     Edge 79, Type (0, 0), BuildingBlock: ZUJKAS_clean_linker_0, # of connection points: 2
#     Edge 80, Type (0, 0), BuildingBlock: ZUJKAS_clean_linker_0, # of connection points: 2
#     Edge 81, Type (0, 0), BuildingBlock: ZUJKAS_clean_linker_0, # of connection points: 2
#     Edge 82, Type (0, 0), BuildingBlock: ZUJKAS_clean_linker_0, # of connection points: 2
#     Edge 83, Type (0, 0), BuildingBlock: ZUJKAS_clean_linker_0, # of connection points: 2
# Relax obj value: 0.608
# Max RMSD: 0.257
# Mean RMSD: 0.257
data_MOF--net-wjr--node1-XOMCOT_clean_sbu_1--edge1-ZUJKAS_clean_linker_0
_symmetry_space_group_name_H-M    P1
_symmetry_Int_Tables_number       1
_symmetry_cell_setting            triclinic
loop_
_symmetry_equiv_pos_as_xyz
'x, y, z'
_cell_length_a     79.164075
_cell_length_b     79.116514
_cell_length_c     61.13289
_cell_angle_alpha  90.015852
_cell_angle_beta   89.98983
_cell_angle_gamma 120.01317
loop_
_atom_site_label
_atom_site_type_symbol
_atom_site_fract_x
_atom_site_fract_y
_atom_site_fract_z
_atom_type_partial_charge
C0 C 0.47068 0.15886 0.1389 0.0
C1 C 0.47385 0.17636 0.14725 0.0
N2 N 0.47996 0.17791 0.16814 0.0
N3 N 0.4748 0.14932 0.15434 0.0
C4 C 0.48068 0.16141 0.17188 0.0
H5 H 0.46491 0.15305 0.12288 0.0
Co6 Co 0.46923 0.12354 0.15138 0.0
C7 C 0.4907 0.11719 0.18672 0.0
O8 O 0.47525 0.10007 0.19059 0.0
N9 N 0.46343 0.0971 0.14758 0.0
C10 C 0.44815 0.06491 0.14235 0.0
C11 C 0.44583 0.08088 0.14488 0.0
C12 C 0.47627 0.09051 0.14555 0.0
N13 N 0.46731 0.0709 0.14296 0.0
O14 O 0.48736 0.13108 0.12769 0.0
H15 H 0.432 0.08037 0.14418 0.0
H16 H 0.49193 0.09992 0.14653 0.0
O17 O 0.49014 0.12831 0.1719 0.0
C18 C 0.47865 0.12532 0.1094 0.0
O19 O 0.45947 0.11578 0.10917 0.0
N20 N 0.45014 0.11622 0.17351 0.0
C21 C 0.41821 0.09822 0.20134 0.0
C22 C 0.43708 0.10954 0.20986 0.0
C23 C 0.45288 0.11883 0.1956 0.0
C24 C 0.43178 0.10841 0.16518 0.0
C25 C 0.41551 0.0988 0.17876 0.0
H26 H 0.46722 0.12722 0.20258 0.0
H27 H 0.42978 0.10833 0.14767 0.0
H28 H 0.4844 0.15775 0.18747 0.0
H29 H 0.47126 0.18683 0.13872 0.0
H30 H 0.43654 0.05003 0.13987 0.0
H31 H 0.43983 0.11004 0.22727 0.0
H32 H 0.40109 0.0909 0.17157 0.0
C33 C 0.31499 0.46054 0.14458 0.0
C34 C 0.30077 0.46285 0.15468 0.0
N35 N 0.30727 0.47073 0.1746 0.0
N36 N 0.33058 0.46703 0.15789 0.0
C37 C 0.32551 0.47336 0.17602 0.0
H38 H 0.3136 0.45368 0.12889 0.0
Co39 Co 0.35178 0.46326 0.15247 0.0
C40 C 0.3835 0.49137 0.18156 0.0
O41 O 0.38927 0.47871 0.18546 0.0
N42 N 0.37297 0.45896 0.14616 0.0
C43 C 0.38981 0.44399 0.13866 0.0
C44 C 0.37179 0.44142 0.14377 0.0
C45 C 0.3919 0.47197 0.1413 0.0
N46 N 0.40258 0.46324 0.13728 0.0
O47 O 0.35811 0.47889 0.12665 0.0
H48 H 0.35871 0.42743 0.14526 0.0
H49 H 0.39779 0.48761 0.14087 0.0
O50 O 0.36866 0.48667 0.16941 0.0
C51 C 0.35142 0.46868 0.10938 0.0
O52 O 0.34148 0.44957 0.11124 0.0
N53 N 0.34438 0.44666 0.17707 0.0
C54 C 0.33373 0.41793 0.20896 0.0
C55 C 0.34293 0.43772 0.21478 0.0
C56 C 0.34791 0.45186 0.19862 0.0
C57 C 0.333 0.42749 0.17159 0.0
C58 C 0.3279 0.41282 0.18716 0.0
H59 H 0.35459 0.46685 0.20373 0.0
H60 H 0.3287 0.42355 0.15472 0.0
H61 H 0.33453 0.47875 0.19047 0.0
H62 H 0.2865 0.4585 0.14804 0.0
H63 H 0.39326 0.43247 0.13656 0.0
H64 H 0.34672 0.44229 0.23163 0.0
H65 H 0.3204 0.39773 0.1819 0.0
C66 C 0.86141 0.32302 0.15971 0.0
C67 C 0.84751 0.30403 0.16404 0.0
N68 N 0.82975 0.30257 0.16417 0.0
N69 N 0.85276 0.33386 0.15749 0.0
C70 C 0.83344 0.32076 0.15872 0.0
H71 H 0.87703 0.32891 0.16028 0.0
Co72 Co 0.86679 0.3614 0.15876 0.0
C73 C 0.83087 0.3542 0.18766 0.0
O74 O 0.82372 0.33605 0.19406 0.0
N75 N 0.88152 0.38921 0.16004 0.0
C76 C 0.89561 0.41877 0.17518 0.0
C77 C 0.88072 0.39984 0.17688 0.0
C78 C 0.89735 0.40224 0.14833 0.0
N79 N 0.90632 0.42035 0.15739 0.0
O80 O 0.85489 0.36246 0.13209 0.0
H81 H 0.871 0.39398 0.19072 0.0
H82 H 0.90319 0.39819 0.13459 0.0
O83 O 0.84606 0.36243 0.17547 0.0
C84 C 0.86489 0.36274 0.11565 0.0
O85 O 0.88115 0.3625 0.11915 0.0
N86 N 0.87956 0.36031 0.18409 0.0
C87 C 0.9023 0.35781 0.21743 0.0
C88 C 0.88202 0.3492 0.21985 0.0
C89 C 0.87091 0.35065 0.20297 0.0
C90 C 0.89917 0.36841 0.18132 0.0
C91 C 0.91083 0.36777 0.1979 0.0
H92 H 0.8554 0.34319 0.20481 0.0
H93 H 0.90582 0.3752 0.16594 0.0
H94 H 0.82237 0.32482 0.15702 0.0
H95 H 0.85068 0.29276 0.16882 0.0
H96 H 0.89887 0.43029 0.18687 0.0
H97 H 0.87466 0.34094 0.23435 0.0
H98 H 0.92643 0.37501 0.19524 0.0
C99 C 0.55024 0.85799 0.14359 0.0
C100 C 0.54706 0.84105 0.15362 0.0
N101 N 0.53772 0.83911 0.17273 0.0
N102 N 0.54291 0.86675 0.15618 0.0
C103 C 0.53518 0.8548 0.17369 0.0
H104 H 0.55835 0.86408 0.12865 0.0
Co105 Co 0.54734 0.89197 0.1513 0.0
C106 C 0.52031 0.8961 0.18137 0.0
O107 O 0.534 0.91389 0.18656 0.0
N108 N 0.55214 0.91779 0.1457 0.0
C109 C 0.56693 0.94981 0.1394 0.0
C110 C 0.56962 0.93426 0.14356 0.0
C111 C 0.53906 0.92377 0.14165 0.0
N112 N 0.54765 0.94329 0.13839 0.0
O113 O 0.53171 0.88332 0.12543 0.0
H114 H 0.58364 0.93523 0.14465 0.0
H115 H 0.52344 0.91397 0.14129 0.0
O116 O 0.52407 0.88591 0.16813 0.0
C117 C 0.54169 0.88846 0.10787 0.0
O118 O 0.56082 0.89822 0.1094 0.0
N119 N 0.56392 0.90044 0.17597 0.0
C120 C 0.59244 0.91788 0.20814 0.0
C121 C 0.5727 0.90649 0.21387 0.0
C122 C 0.55867 0.89763 0.19754 0.0
C123 C 0.58312 0.9088 0.17046 0.0
C124 C 0.59768 0.91811 0.18619 0.0
H125 H 0.54369 0.88883 0.20249 0.0
H126 H 0.58715 0.90912 0.1535 0.0
H127 H 0.52841 0.85788 0.18728 0.0
H128 H 0.55233 0.83159 0.14787 0.0
H129 H 0.57839 0.96487 0.13778 0.0
H130 H 0.56807 0.90496 0.23078 0.0
H131 H 0.61276 0.92628 0.18097 0.0
C132 C 0.70035 0.54665 0.14457 0.0
C133 C 0.71448 0.54447 0.155 0.0
N134 N 0.70572 0.52911 0.16868 0.0
N135 N 0.68261 0.53269 0.15139 0.0
C136 C 0.68632 0.52211 0.16609 0.0
H137 H 0.70284 0.55826 0.13338 0.0
Co138 Co 0.65981 0.53236 0.14223 0.0
C139 C 0.63486 0.51343 0.18109 0.0
O140 O 0.63317 0.52889 0.18474 0.0
N141 N 0.63708 0.53217 0.13162 0.0
C142 C 0.61964 0.53863 0.10789 0.0
C143 C 0.63766 0.54089 0.11244 0.0
C144 C 0.61809 0.5239 0.13788 0.0
N145 N 0.60728 0.52798 0.12397 0.0
O146 O 0.65448 0.51183 0.12196 0.0
H147 H 0.65057 0.54864 0.10241 0.0
H148 H 0.61199 0.51482 0.1521 0.0
O149 O 0.64452 0.5129 0.16459 0.0
C150 C 0.66447 0.51761 0.10443 0.0
O151 O 0.6778 0.53613 0.10267 0.0
N152 N 0.66597 0.55371 0.16131 0.0
C153 C 0.67131 0.58405 0.189 0.0
C154 C 0.67487 0.56937 0.19647 0.0
C155 C 0.67236 0.55446 0.1823 0.0
C156 C 0.66509 0.56928 0.1531 0.0
C157 C 0.66725 0.58437 0.16673 0.0
H158 H 0.67413 0.54277 0.1888 0.0
H159 H 0.66216 0.56994 0.13603 0.0
H160 H 0.67512 0.51005 0.17535 0.0
H161 H 0.73006 0.55417 0.15354 0.0
H162 H 0.61591 0.54417 0.09361 0.0
H163 H 0.67872 0.5689 0.21337 0.0
H164 H 0.66474 0.59558 0.16 0.0
C165 C 0.14548 0.69317 0.14613 0.0
C166 C 0.16022 0.70981 0.15556 0.0
N167 N 0.17379 0.70586 0.16328 0.0
N168 N 0.14921 0.67835 0.14833 0.0
C169 C 0.16717 0.68701 0.15772 0.0
H170 H 0.13285 0.69224 0.13833 0.0
Co171 Co 0.13278 0.65151 0.14018 0.0
C172 C 0.15044 0.64779 0.18176 0.0
O173 O 0.14718 0.6606 0.19177 0.0
N174 N 0.11689 0.62505 0.13184 0.0
C175 C 0.10843 0.59439 0.12374 0.0
C176 C 0.12378 0.61294 0.12719 0.0
C177 C 0.09718 0.61343 0.13095 0.0
N178 N 0.0916 0.59458 0.12621 0.0
O179 O 0.15178 0.65439 0.11913 0.0
H180 H 0.13905 0.61716 0.12711 0.0
H181 H 0.0871 0.61858 0.13423 0.0
O182 O 0.14527 0.64325 0.16182 0.0
C183 C 0.15157 0.66296 0.10164 0.0
O184 O 0.13942 0.66969 0.10027 0.0
N185 N 0.11323 0.6487 0.15975 0.0
C186 C 0.08295 0.64623 0.18527 0.0
C187 C 0.09224 0.63571 0.19094 0.0
C188 C 0.107 0.63671 0.1776 0.0
C189 C 0.10302 0.65738 0.1529 0.0
C190 C 0.08818 0.6568 0.16568 0.0
H191 H 0.11296 0.62744 0.18143 0.0
H192 H 0.106 0.66429 0.13706 0.0
H193 H 0.17521 0.67954 0.16085 0.0
H194 H 0.16041 0.72351 0.15737 0.0
H195 H 0.10966 0.58158 0.12067 0.0
H196 H 0.08815 0.62674 0.20552 0.0
H197 H 0.08053 0.66411 0.15999 0.0
C198 C 0.85801 0.55014 0.35719 0.0
C199 C 0.84258 0.54979 0.34649 0.0
N200 N 0.83309 0.53301 0.33504 0.0
N201 N 0.85838 0.53367 0.35264 0.0
C202 C 0.84292 0.52342 0.33919 0.0
H203 H 0.86877 0.56199 0.36707 0.0
Co204 Co 0.87827 0.52914 0.36247 0.0
C205 C 0.87788 0.50603 0.32311 0.0
O206 O 0.8954 0.51903 0.31636 0.0
N207 N 0.89826 0.52472 0.37345 0.0
C208 C 0.91842 0.52464 0.39885 0.0
C209 C 0.90328 0.52799 0.39476 0.0
C210 C 0.91078 0.51938 0.3649 0.0
N211 N 0.92323 0.51921 0.38005 0.0
O212 O 0.86036 0.50987 0.38237 0.0
H213 H 0.89667 0.53306 0.40659 0.0
H214 H 0.91099 0.51575 0.34802 0.0
O215 O 0.87081 0.50887 0.34058 0.0
C216 C 0.85578 0.51656 0.39885 0.0
O217 O 0.86315 0.53553 0.40048 0.0
N218 N 0.89601 0.54907 0.34377 0.0
C219 C 0.92284 0.58016 0.31828 0.0
C220 C 0.90456 0.56659 0.30978 0.0
C221 C 0.89127 0.55129 0.32287 0.0
C222 C 0.91311 0.56301 0.3528 0.0
C223 C 0.92688 0.57851 0.34025 0.0
H224 H 0.87734 0.5409 0.31592 0.0
H225 H 0.91625 0.56215 0.36982 0.0
H226 H 0.83925 0.50947 0.33211 0.0
H227 H 0.83921 0.56147 0.34634 0.0
H228 H 0.92572 0.5267 0.4144 0.0
H229 H 0.90066 0.56762 0.29306 0.0
H230 H 0.94077 0.58874 0.34755 0.0
C231 C 0.31509 0.86585 0.34178 0.0
C232 C 0.29868 0.85134 0.33174 0.0
N233 N 0.30221 0.83706 0.32557 0.0
N234 N 0.3293 0.86113 0.3417 0.0
C235 C 0.32057 0.84304 0.3326 0.0
H236 H 0.3164 0.87915 0.34819 0.0
Co237 Co 0.35591 0.87634 0.35087 0.0
C238 C 0.3592 0.86208 0.30661 0.0
O239 O 0.3454 0.86479 0.29836 0.0
N240 N 0.38235 0.89087 0.35984 0.0
C241 C 0.41223 0.8967 0.36783 0.0
C242 C 0.39341 0.88255 0.36332 0.0
C243 C 0.39501 0.91031 0.36226 0.0
N244 N 0.41336 0.91424 0.36711 0.0
O245 O 0.35256 0.85517 0.3691 0.0
H246 H 0.38832 0.86712 0.36181 0.0
H247 H 0.39102 0.92143 0.36009 0.0
O248 O 0.3643 0.86635 0.3266 0.0
C249 C 0.34248 0.85294 0.38622 0.0
O250 O 0.33375 0.86328 0.38824 0.0
N251 N 0.35907 0.89802 0.33501 0.0
C252 C 0.36227 0.93226 0.31808 0.0
C253 C 0.37055 0.92256 0.30704 0.0
C254 C 0.36921 0.9057 0.31607 0.0
C255 C 0.35217 0.90799 0.3466 0.0
C256 C 0.35333 0.92493 0.33835 0.0
H257 H 0.37688 0.89939 0.30809 0.0
H258 H 0.34587 0.90278 0.3626 0.0
H259 H 0.32792 0.83475 0.33029 0.0
H260 H 0.28553 0.85184 0.32826 0.0
H261 H 0.42437 0.89425 0.37042 0.0
H262 H 0.37808 0.92795 0.29162 0.0
H263 H 0.34762 0.93241 0.34803 0.0
C264 C 0.45827 0.31048 0.35699 0.0
C265 C 0.45963 0.29591 0.3464 0.0
N266 N 0.47436 0.30414 0.33183 0.0
N267 N 0.47211 0.32795 0.34934 0.0
C268 C 0.48175 0.32364 0.33398 0.0
H269 H 0.44742 0.30848 0.36904 0.0
Co270 Co 0.4739 0.35142 0.35864 0.0
C271 C 0.48835 0.37349 0.31673 0.0
O272 O 0.47282 0.37531 0.31449 0.0
N273 N 0.47574 0.37491 0.36918 0.0
C274 C 0.47406 0.39437 0.39442 0.0
C275 C 0.47075 0.37593 0.39004 0.0
C276 C 0.48257 0.39331 0.36138 0.0
N277 N 0.48151 0.40538 0.37636 0.0
O278 O 0.49673 0.35765 0.37535 0.0
H279 H 0.46493 0.36384 0.40141 0.0
H280 H 0.48895 0.3982 0.34545 0.0
O281 O 0.49032 0.36499 0.33349 0.0
C282 C 0.49309 0.34799 0.39307 0.0
O283 O 0.47504 0.33427 0.39699 0.0
N284 N 0.45041 0.34441 0.34352 0.0
C285 C 0.41485 0.33405 0.32352 0.0
C286 C 0.42914 0.33191 0.31237 0.0
C287 C 0.44666 0.33677 0.32283 0.0
C288 C 0.43594 0.34485 0.35518 0.0
C289 C 0.41817 0.34003 0.34542 0.0
H290 H 0.45754 0.33513 0.31392 0.0
H291 H 0.43806 0.34903 0.37217 0.0
H292 H 0.49362 0.33452 0.32423 0.0
H293 H 0.44991 0.2804 0.34858 0.0
H294 H 0.47098 0.39919 0.40971 0.0
H295 H 0.42693 0.32686 0.29558 0.0
H296 H 0.40743 0.34164 0.35476 0.0
C297 C 0.14298 0.45247 0.34513 0.0
C298 C 0.15765 0.45022 0.33613 0.0
N299 N 0.17289 0.46801 0.33159 0.0
N300 N 0.14863 0.47164 0.34607 0.0
C301 C 0.16721 0.4807 0.33838 0.0
H302 H 0.129 0.44063 0.35018 0.0
Co303 Co 0.13417 0.48377 0.3552 0.0
C304 C 0.15005 0.50208 0.31171 0.0
O305 O 0.14657 0.48557 0.30266 0.0
N306 N 0.12017 0.49634 0.36414 0.0
C307 C 0.11441 0.52056 0.37179 0.0
C308 C 0.12858 0.51569 0.368 0.0
C309 C 0.10072 0.4898 0.36575 0.0
N310 N 0.09682 0.50428 0.37022 0.0
O311 O 0.15538 0.50092 0.37359 0.0
H312 H 0.14409 0.52588 0.36716 0.0
H313 H 0.08951 0.4748 0.36319 0.0
O314 O 0.14523 0.50243 0.33156 0.0
C315 C 0.15767 0.49277 0.39035 0.0
O316 O 0.14683 0.47373 0.39239 0.0
N317 N 0.11248 0.46601 0.33902 0.0
C318 C 0.0751 0.43834 0.32512 0.0
C319 C 0.08677 0.45516 0.3126 0.0
C320 C 0.10519 0.46911 0.32018 0.0
C321 C 0.10151 0.44966 0.35116 0.0
C322 C 0.08288 0.43565 0.34454 0.0
H323 H 0.11277 0.48277 0.31154 0.0
H324 H 0.10686 0.44813 0.36689 0.0
H325 H 0.17619 0.49639 0.33716 0.0
H326 H 0.15672 0.43642 0.33234 0.0
H327 H 0.11691 0.53516 0.37442 0.0
H328 H 0.08151 0.45799 0.2975 0.0
H329 H 0.07432 0.42343 0.35529 0.0
C330 C 0.70064 0.15195 0.35548 0.0
C331 C 0.71453 0.16678 0.34289 0.0
N332 N 0.70549 0.1726 0.32858 0.0
N333 N 0.68279 0.14831 0.34937 0.0
C334 C 0.6862 0.16125 0.33303 0.0
H335 H 0.70333 0.14357 0.36755 0.0
Co336 Co 0.6596 0.12685 0.36002 0.0
C337 C 0.63599 0.11936 0.31942 0.0
O338 O 0.6338 0.10188 0.31698 0.0
N339 N 0.63633 0.10541 0.37157 0.0
C340 C 0.61726 0.08381 0.39671 0.0
C341 C 0.63574 0.09879 0.39207 0.0
C342 C 0.61765 0.09442 0.36437 0.0
N343 N 0.60581 0.08098 0.37922 0.0
O344 O 0.65477 0.14384 0.37808 0.0
H345 H 0.64814 0.10446 0.40298 0.0
H346 H 0.61238 0.0965 0.34897 0.0
O347 O 0.64502 0.12987 0.33599 0.0
C348 C 0.66507 0.14858 0.39544 0.0
O349 O 0.67804 0.14296 0.3975 0.0
N350 N 0.66551 0.10996 0.3439 0.0
C351 C 0.67472 0.08422 0.32301 0.0
C352 C 0.67645 0.1005 0.31191 0.0
C353 C 0.67222 0.11346 0.3228 0.0
C354 C 0.66548 0.09516 0.35539 0.0
C355 C 0.66972 0.08195 0.34522 0.0
H356 H 0.67358 0.12587 0.31391 0.0
H357 H 0.66219 0.09346 0.37262 0.0
H358 H 0.67475 0.16177 0.32394 0.0
H359 H 0.73003 0.17202 0.34342 0.0
H360 H 0.61273 0.07548 0.41174 0.0
H361 H 0.68077 0.10306 0.29487 0.0
H362 H 0.66849 0.06974 0.35453 0.0
C363 C 0.55173 0.6945 0.35115 0.0
C364 C 0.55439 0.71167 0.34242 0.0
N365 N 0.53704 0.70879 0.33537 0.0
N366 N 0.53282 0.68043 0.34923 0.0
C367 C 0.52416 0.69001 0.34056 0.0
H368 H 0.56317 0.69268 0.35824 0.0
Co369 Co 0.52107 0.6534 0.35695 0.0
C370 C 0.50089 0.65134 0.31493 0.0
O371 O 0.51739 0.66426 0.30575 0.0
N372 N 0.50905 0.62675 0.36478 0.0
C373 C 0.48526 0.59668 0.37252 0.0
C374 C 0.48985 0.61567 0.36918 0.0
C375 C 0.51585 0.61403 0.3656 0.0
N376 N 0.50159 0.59555 0.37018 0.0
O377 O 0.50553 0.65705 0.37834 0.0
H378 H 0.4796 0.62094 0.3692 0.0
H379 H 0.53088 0.61814 0.36247 0.0
O380 O 0.50076 0.64632 0.33484 0.0
C381 C 0.51521 0.66494 0.39567 0.0
O382 O 0.53396 0.67084 0.39581 0.0
N383 N 0.53746 0.64974 0.33754 0.0
C384 C 0.56514 0.6456 0.31347 0.0
C385 C 0.54564 0.63662 0.30652 0.0
C386 C 0.5319 0.63838 0.31915 0.0
C387 C 0.55588 0.65698 0.34548 0.0
C388 C 0.57006 0.65548 0.33354 0.0
H389 H 0.51679 0.63009 0.31437 0.0
H390 H 0.55944 0.66343 0.36158 0.0
H391 H 0.50865 0.68321 0.33759 0.0
H392 H 0.56825 0.72499 0.34055 0.0
H393 H 0.47078 0.58449 0.37547 0.0
H394 H 0.54096 0.62821 0.29154 0.0
H395 H 0.58461 0.66156 0.34028 0.0
C396 C 0.54444 0.85373 0.8519 0.0
C397 C 0.54201 0.83752 0.84088 0.0
N398 N 0.5339 0.83675 0.82124 0.0
N399 N 0.53778 0.86323 0.83949 0.0
C400 C 0.53119 0.85235 0.821 0.0
H401 H 0.55154 0.85874 0.86755 0.0
Co402 Co 0.54174 0.88816 0.84603 0.0
C403 C 0.51855 0.89462 0.81253 0.0
O404 O 0.53291 0.91258 0.80952 0.0
N405 N 0.54604 0.91358 0.85342 0.0
C406 C 0.56085 0.94479 0.86381 0.0
C407 C 0.56313 0.92895 0.86008 0.0
C408 C 0.53329 0.92036 0.85469 0.0
N409 N 0.5421 0.93951 0.86018 0.0
O410 O 0.52382 0.87774 0.86991 0.0
H411 H 0.57652 0.92885 0.86268 0.0
H412 H 0.51788 0.91156 0.8511 0.0
O413 O 0.5204 0.88357 0.82641 0.0
C414 C 0.5331 0.87954 0.88757 0.0
O415 O 0.55221 0.88784 0.8867 0.0
N416 N 0.56076 0.89842 0.82369 0.0
C417 C 0.59243 0.91894 0.79575 0.0
C418 C 0.5736 0.90695 0.78731 0.0
C419 C 0.55796 0.89666 0.80156 0.0
C420 C 0.57925 0.90692 0.83175 0.0
C421 C 0.59528 0.91788 0.81826 0.0
H422 H 0.5437 0.88774 0.79459 0.0
H423 H 0.58151 0.90591 0.84903 0.0
H424 H 0.52553 0.85637 0.8071 0.0
H425 H 0.54648 0.82745 0.84672 0.0
H426 H 0.57215 0.95909 0.86908 0.0
H427 H 0.57078 0.90605 0.7699 0.0
H428 H 0.6095 0.92624 0.82576 0.0
C429 C 0.69648 0.54144 0.85696 0.0
C430 C 0.7104 0.53899 0.84628 0.0
N431 N 0.70318 0.53053 0.82674 0.0
N432 N 0.68043 0.53453 0.84436 0.0
C433 C 0.68488 0.52782 0.8261 0.0
H434 H 0.6983 0.54866 0.87251 0.0
Co435 Co 0.6592 0.53777 0.85113 0.0
C436 C 0.63071 0.5172 0.8159 0.0
O437 O 0.62772 0.53208 0.81432 0.0
N438 N 0.63759 0.5412 0.85889 0.0
C439 C 0.61984 0.55391 0.87137 0.0
C440 C 0.63834 0.55744 0.86709 0.0
C441 C 0.61825 0.52768 0.85954 0.0
N442 N 0.60709 0.53518 0.86648 0.0
O443 O 0.65118 0.51835 0.87349 0.0
H444 H 0.6514 0.57104 0.87052 0.0
H445 H 0.61244 0.51252 0.85518 0.0
O446 O 0.64304 0.51768 0.82978 0.0
C447 C 0.65637 0.52662 0.8921 0.0
O448 O 0.66638 0.54579 0.89274 0.0
N449 N 0.66839 0.55813 0.83034 0.0
C450 C 0.6769 0.59037 0.80453 0.0
C451 C 0.67258 0.57252 0.79484 0.0
C452 C 0.66851 0.55655 0.8081 0.0
C453 C 0.67685 0.57618 0.83957 0.0
C454 C 0.6805 0.59244 0.82716 0.0
H455 H 0.66457 0.54283 0.80033 0.0
H456 H 0.67965 0.57777 0.85696 0.0
H457 H 0.67511 0.52158 0.81234 0.0
H458 H 0.7251 0.54407 0.85203 0.0
H459 H 0.61615 0.5645 0.87744 0.0
H460 H 0.67122 0.57051 0.77729 0.0
H461 H 0.6847 0.60597 0.83563 0.0
C462 C 0.1573 0.68782 0.84841 0.0
C463 C 0.17233 0.7058 0.84212 0.0
N464 N 0.18698 0.70352 0.83441 0.0
N465 N 0.162 0.67391 0.84409 0.0
C466 C 0.18073 0.6843 0.83695 0.0
H467 H 0.14373 0.68529 0.85537 0.0
Co468 Co 0.14572 0.64617 0.84683 0.0
C469 C 0.16911 0.64899 0.80708 0.0
O470 O 0.16642 0.66272 0.79856 0.0
N471 N 0.12993 0.61878 0.85002 0.0
C472 C 0.12182 0.58758 0.8527 0.0
C473 C 0.13701 0.60646 0.85138 0.0
C474 C 0.11025 0.60696 0.85096 0.0
N475 N 0.10492 0.5878 0.85236 0.0
O476 O 0.16164 0.64672 0.87045 0.0
H477 H 0.15235 0.61093 0.85139 0.0
H478 H 0.10003 0.61226 0.85009 0.0
O479 O 0.16184 0.64179 0.82581 0.0
C480 C 0.15292 0.64626 0.88812 0.0
O481 O 0.13624 0.64604 0.88675 0.0
N482 N 0.12877 0.64543 0.82492 0.0
C483 C 0.10064 0.64441 0.79669 0.0
C484 C 0.11158 0.6356 0.79078 0.0
C485 C 0.12513 0.63572 0.80545 0.0
C486 C 0.11719 0.65264 0.83152 0.0
C487 C 0.10337 0.65271 0.81754 0.0
H488 H 0.13213 0.62743 0.80134 0.0
H489 H 0.11798 0.6575 0.84816 0.0
H490 H 0.18963 0.67789 0.83308 0.0
H491 H 0.172 0.71931 0.84213 0.0
H492 H 0.12316 0.57466 0.85404 0.0
H493 H 0.10942 0.62831 0.77518 0.0
H494 H 0.09432 0.65844 0.82341 0.0
C495 C 0.46709 0.15905 0.85821 0.0
C496 C 0.47026 0.1759 0.84805 0.0
N497 N 0.47843 0.17708 0.82833 0.0
N498 N 0.4733 0.14956 0.84514 0.0
C499 C 0.4802 0.16093 0.82706 0.0
H500 H 0.45983 0.15364 0.87372 0.0
Co501 Co 0.46911 0.12447 0.85065 0.0
C502 C 0.49522 0.11985 0.81915 0.0
O503 O 0.48192 0.10169 0.81485 0.0
N504 N 0.4645 0.09885 0.85693 0.0
C505 C 0.44929 0.06711 0.86485 0.0
C506 C 0.44697 0.08288 0.86077 0.0
C507 C 0.47736 0.09239 0.85991 0.0
N508 N 0.46844 0.07297 0.86416 0.0
O509 O 0.48615 0.13399 0.87526 0.0
H510 H 0.43316 0.08247 0.86093 0.0
H511 H 0.49301 0.10178 0.85887 0.0
O512 O 0.49141 0.13 0.83237 0.0
C513 C 0.47711 0.13152 0.89323 0.0
O514 O 0.45797 0.12302 0.89281 0.0
N515 N 0.45116 0.11513 0.82735 0.0
C516 C 0.42029 0.09564 0.79828 0.0
C517 C 0.43958 0.10593 0.79062 0.0
C518 C 0.45483 0.116 0.80542 0.0
C519 C 0.43248 0.10784 0.83448 0.0
C520 C 0.41677 0.09762 0.82033 0.0
H521 H 0.46944 0.12403 0.79906 0.0
H522 H 0.42978 0.10901 0.85161 0.0
H523 H 0.48589 0.15714 0.81299 0.0
H524 H 0.46587 0.18591 0.85429 0.0
H525 H 0.43759 0.05233 0.86766 0.0
H526 H 0.44301 0.10534 0.77359 0.0
H527 H 0.40205 0.09063 0.82678 0.0
C528 C 0.31498 0.4612 0.85725 0.0
C529 C 0.30095 0.4644 0.84802 0.0
N530 N 0.30584 0.4698 0.82699 0.0
N531 N 0.32875 0.46462 0.84219 0.0
C532 C 0.32285 0.46995 0.82396 0.0
H533 H 0.31481 0.45606 0.87368 0.0
Co534 Co 0.3493 0.45965 0.84565 0.0
C535 C 0.37979 0.48671 0.81421 0.0
O536 O 0.38575 0.47423 0.81004 0.0
N537 N 0.37012 0.45436 0.84958 0.0
C538 C 0.38682 0.43874 0.8533 0.0
C539 C 0.36881 0.43667 0.84941 0.0
C540 C 0.38916 0.4669 0.85442 0.0
N541 N 0.39974 0.45779 0.85636 0.0
O542 O 0.35825 0.47634 0.87076 0.0
H543 H 0.35566 0.4229 0.84682 0.0
H544 H 0.39515 0.48247 0.8563 0.0
O545 O 0.36546 0.48205 0.82717 0.0
C546 C 0.35459 0.46662 0.88844 0.0
O547 O 0.34534 0.44746 0.88726 0.0
N548 N 0.33923 0.4419 0.8223 0.0
C549 C 0.3257 0.40982 0.79469 0.0
C550 C 0.3366 0.42882 0.7863 0.0
C551 C 0.34305 0.44478 0.80041 0.0
C552 C 0.3263 0.42377 0.82996 0.0
C553 C 0.3196 0.40743 0.81653 0.0
H554 H 0.35141 0.45919 0.79362 0.0
H555 H 0.32253 0.42186 0.84715 0.0
H556 H 0.33037 0.47292 0.80845 0.0
H557 H 0.28796 0.46249 0.85612 0.0
H558 H 0.39014 0.42703 0.8534 0.0
H559 H 0.34124 0.43133 0.76937 0.0
H560 H 0.31075 0.39302 0.8235 0.0
C561 C 0.86492 0.31271 0.84781 0.0
C562 C 0.85033 0.29674 0.83723 0.0
N563 N 0.83685 0.30116 0.83036 0.0
N564 N 0.86112 0.32757 0.84738 0.0
C565 C 0.84333 0.31958 0.83761 0.0
H566 H 0.87761 0.31322 0.85493 0.0
Co567 Co 0.87758 0.35412 0.85688 0.0
C568 C 0.86225 0.35907 0.81422 0.0
O569 O 0.8653 0.34599 0.80453 0.0
N570 N 0.89346 0.38045 0.86606 0.0
C571 C 0.90149 0.41105 0.87403 0.0
C572 C 0.88635 0.39235 0.87093 0.0
C573 C 0.91315 0.39245 0.86643 0.0
N574 N 0.91845 0.41125 0.87104 0.0
O575 O 0.85765 0.35133 0.87691 0.0
H576 H 0.87103 0.38795 0.8711 0.0
H577 H 0.92344 0.38765 0.86268 0.0
O578 O 0.86678 0.36334 0.83433 0.0
C579 C 0.85325 0.33926 0.8926 0.0
O580 O 0.86092 0.32789 0.89317 0.0
N581 N 0.898 0.35674 0.83901 0.0
C582 C 0.93018 0.35883 0.81797 0.0
C583 C 0.92113 0.36885 0.80962 0.0
C584 C 0.90534 0.36803 0.82073 0.0
C585 C 0.90771 0.34841 0.84829 0.0
C586 C 0.92354 0.34886 0.83783 0.0
H587 H 0.89959 0.37701 0.81494 0.0
H588 H 0.90333 0.34168 0.86422 0.0
H589 H 0.83554 0.3274 0.83508 0.0
H590 H 0.85027 0.28328 0.83385 0.0
H591 H 0.89999 0.42372 0.87702 0.0
H592 H 0.92623 0.37732 0.79471 0.0
H593 H 0.93079 0.34187 0.84551 0.0
C594 C 0.15108 0.45174 0.63946 0.0
C595 C 0.1663 0.45146 0.64982 0.0
N596 N 0.17448 0.46654 0.66397 0.0
N597 N 0.14957 0.46699 0.64674 0.0
C598 C 0.16427 0.47598 0.66148 0.0
H599 H 0.14103 0.44084 0.62814 0.0
Co600 Co 0.1281 0.46969 0.63881 0.0
C601 C 0.12887 0.4953 0.67487 0.0
O602 O 0.11097 0.48265 0.68096 0.0
N603 N 0.10618 0.47182 0.62947 0.0
C604 C 0.08054 0.46439 0.60814 0.0
C605 C 0.09557 0.46095 0.61235 0.0
C606 C 0.09756 0.48249 0.63478 0.0
N607 N 0.08165 0.47796 0.6223 0.0
O608 O 0.14327 0.4876 0.61634 0.0
H609 H 0.09842 0.45077 0.60358 0.0
H610 H 0.10302 0.49382 0.64698 0.0
O611 O 0.13661 0.49159 0.65864 0.0
C612 C 0.1449 0.48003 0.5987 0.0
O613 O 0.13618 0.46093 0.59722 0.0
N614 N 0.11313 0.4511 0.66048 0.0
C615 C 0.09065 0.42201 0.69074 0.0
C616 C 0.10846 0.43815 0.69693 0.0
C617 C 0.11957 0.45239 0.68152 0.0
C618 C 0.09666 0.43467 0.65382 0.0
C619 C 0.08502 0.42012 0.66873 0.0
H620 H 0.13317 0.46469 0.68678 0.0
H621 H 0.09244 0.43262 0.63686 0.0
H622 H 0.16649 0.48827 0.67139 0.0
H623 H 0.17054 0.44052 0.64761 0.0
H624 H 0.06941 0.45705 0.59581 0.0
H625 H 0.11367 0.43992 0.71362 0.0
H626 H 0.07147 0.40779 0.66311 0.0
C627 C 0.69476 0.14658 0.65108 0.0
C628 C 0.71212 0.16257 0.65726 0.0
N629 N 0.70864 0.17688 0.66357 0.0
N630 N 0.68005 0.15033 0.65396 0.0
C631 C 0.6893 0.1694 0.65999 0.0
H632 H 0.69311 0.13275 0.64612 0.0
Co633 Co 0.65264 0.13179 0.65457 0.0
C634 C 0.6563 0.15743 0.69333 0.0
O635 O 0.67193 0.15785 0.70134 0.0
N636 N 0.62544 0.1134 0.65533 0.0
C637 C 0.59502 0.09659 0.66795 0.0
C638 C 0.61292 0.11282 0.67077 0.0
C639 C 0.6145 0.09707 0.64318 0.0
N640 N 0.59591 0.08654 0.65071 0.0
O641 O 0.64871 0.14515 0.63073 0.0
H642 H 0.61649 0.12293 0.68413 0.0
H643 H 0.62026 0.09253 0.62978 0.0
O644 O 0.64856 0.14805 0.67566 0.0
C645 C 0.65111 0.13789 0.61318 0.0
O646 O 0.656 0.12433 0.615 0.0
N647 N 0.65627 0.11708 0.67617 0.0
C648 C 0.66242 0.0914 0.70166 0.0
C649 C 0.65511 0.10265 0.71108 0.0
C650 C 0.65164 0.11505 0.69791 0.0
C651 C 0.66191 0.10516 0.66661 0.0
C652 C 0.66545 0.09254 0.67902 0.0
H653 H 0.64462 0.12233 0.70521 0.0
H654 H 0.66343 0.10529 0.64903 0.0
H655 H 0.68176 0.17737 0.66308 0.0
H656 H 0.72588 0.16288 0.65872 0.0
H657 H 0.58231 0.09228 0.67813 0.0
H658 H 0.65181 0.10167 0.72838 0.0
H659 H 0.66992 0.08329 0.67076 0.0
C660 C 0.55131 0.69231 0.65221 0.0
C661 C 0.55359 0.7104 0.65655 0.0
N662 N 0.53584 0.70846 0.65996 0.0
N663 N 0.53224 0.6788 0.65322 0.0
C664 C 0.52316 0.68919 0.6567 0.0
H665 H 0.56296 0.68902 0.65038 0.0
Co666 Co 0.52232 0.65169 0.65496 0.0
C667 C 0.4959 0.65486 0.69128 0.0
O668 O 0.50574 0.67312 0.69774 0.0
N669 N 0.51235 0.62431 0.65695 0.0
C670 C 0.49948 0.59482 0.6721 0.0
C671 C 0.50448 0.61388 0.67541 0.0
C672 C 0.51251 0.61116 0.64275 0.0
N673 N 0.50457 0.59306 0.65163 0.0
O674 O 0.5047 0.64778 0.63161 0.0
H675 H 0.50312 0.61982 0.69078 0.0
H676 H 0.51856 0.61477 0.62643 0.0
O677 O 0.50264 0.6485 0.67639 0.0
C678 C 0.51315 0.64875 0.61354 0.0
O679 O 0.53115 0.65203 0.61413 0.0
N680 N 0.54083 0.65564 0.67643 0.0
C681 C 0.57268 0.66262 0.70246 0.0
C682 C 0.56 0.66932 0.70887 0.0
C683 C 0.54413 0.66567 0.69559 0.0
C684 C 0.55318 0.64936 0.6698 0.0
C685 C 0.56888 0.65231 0.68269 0.0
H686 H 0.53517 0.67168 0.7003 0.0
H687 H 0.55096 0.64217 0.65415 0.0
H688 H 0.50752 0.68245 0.65815 0.0
H689 H 0.56748 0.72357 0.6589 0.0
H690 H 0.49332 0.58325 0.68416 0.0
H691 H 0.56253 0.67772 0.72371 0.0
H692 H 0.57787 0.64642 0.6771 0.0
C693 C 0.8659 0.55414 0.64909 0.0
C694 C 0.85095 0.55603 0.65789 0.0
N695 N 0.83673 0.53831 0.66437 0.0
N696 N 0.8615 0.53531 0.6503 0.0
C697 C 0.84321 0.52597 0.65884 0.0
H698 H 0.87918 0.56601 0.64253 0.0
Co699 Co 0.87736 0.52438 0.64228 0.0
C700 C 0.86053 0.50478 0.68525 0.0
O701 O 0.86287 0.52075 0.6947 0.0
N702 N 0.8928 0.51307 0.63429 0.0
C703 C 0.90007 0.49013 0.62534 0.0
C704 C 0.88525 0.49408 0.62891 0.0
C705 C 0.91243 0.52029 0.63407 0.0
N706 N 0.91721 0.50658 0.62868 0.0
O707 O 0.85715 0.50669 0.62316 0.0
H708 H 0.86986 0.48347 0.62833 0.0
H709 H 0.92309 0.53522 0.63804 0.0
O710 O 0.86612 0.50527 0.66555 0.0
C711 C 0.85413 0.51401 0.60614 0.0
O712 O 0.86395 0.53305 0.60354 0.0
N713 N 0.89788 0.54265 0.65957 0.0
C714 C 0.93017 0.57326 0.67958 0.0
C715 C 0.91992 0.55507 0.6899 0.0
C716 C 0.9041 0.5397 0.67928 0.0
C717 C 0.90851 0.55993 0.64882 0.0
C718 C 0.92466 0.57555 0.6586 0.0
H719 H 0.89755 0.52545 0.68664 0.0
H720 H 0.9045 0.56146 0.63233 0.0
H721 H 0.83496 0.51037 0.6615 0.0
H722 H 0.85103 0.56963 0.66024 0.0
H723 H 0.89831 0.47599 0.62145 0.0
H724 H 0.92458 0.55258 0.70565 0.0
H725 H 0.93279 0.58922 0.64984 0.0
C726 C 0.31168 0.85709 0.64224 0.0
C727 C 0.29785 0.8422 0.65482 0.0
N728 N 0.30696 0.83613 0.66867 0.0
N729 N 0.32954 0.86044 0.64789 0.0
C730 C 0.3262 0.84737 0.66405 0.0
H731 H 0.30895 0.86553 0.63031 0.0
Co732 Co 0.35264 0.88108 0.63607 0.0
C733 C 0.37894 0.8883 0.67402 0.0
O734 O 0.38291 0.90651 0.67547 0.0
N735 N 0.37576 0.90175 0.6231 0.0
C736 C 0.39371 0.92389 0.59782 0.0
C737 C 0.37527 0.90946 0.60357 0.0
C738 C 0.39505 0.91127 0.62829 0.0
N739 N 0.40623 0.92515 0.61349 0.0
O740 O 0.3553 0.86319 0.61724 0.0
H741 H 0.36214 0.90503 0.59416 0.0
H742 H 0.40116 0.90778 0.6421 0.0
O743 O 0.36783 0.87728 0.65878 0.0
C744 C 0.34447 0.85925 0.60041 0.0
O745 O 0.33297 0.86673 0.59904 0.0
N746 N 0.34885 0.89884 0.65334 0.0
C747 C 0.34366 0.92629 0.67661 0.0
C748 C 0.34168 0.90961 0.68706 0.0
C749 C 0.34397 0.89588 0.67504 0.0
C750 C 0.34881 0.91393 0.64261 0.0
C751 C 0.34665 0.92801 0.65394 0.0
H752 H 0.34258 0.88325 0.68346 0.0
H753 H 0.35049 0.91524 0.62512 0.0
H754 H 0.33764 0.84649 0.67274 0.0
H755 H 0.28232 0.83694 0.65454 0.0
H756 H 0.39746 0.93299 0.5834 0.0
H757 H 0.33872 0.90735 0.70443 0.0
H758 H 0.34796 0.94045 0.64505 0.0
C759 C 0.47013 0.31398 0.63305 0.0
C760 C 0.4733 0.30018 0.64287 0.0
N761 N 0.4807 0.30656 0.66302 0.0
N762 N 0.47554 0.32913 0.64678 0.0
C763 C 0.48206 0.32427 0.66488 0.0
H764 H 0.46342 0.31262 0.61726 0.0
Co765 Co 0.47074 0.34958 0.64113 0.0
C766 C 0.49036 0.37751 0.67735 0.0
O767 O 0.47508 0.37975 0.67967 0.0
N768 N 0.46558 0.37027 0.63438 0.0
C769 C 0.45027 0.38565 0.62225 0.0
C770 C 0.44885 0.36786 0.62559 0.0
C771 C 0.47741 0.39003 0.63487 0.0
N772 N 0.46818 0.39968 0.62831 0.0
O773 O 0.49046 0.35946 0.61904 0.0
H774 H 0.43642 0.35414 0.62095 0.0
H775 H 0.49246 0.39724 0.64018 0.0
O776 O 0.49027 0.36582 0.66285 0.0
C777 C 0.48291 0.35471 0.60007 0.0
O778 O 0.46384 0.34385 0.59854 0.0
N779 N 0.4502 0.33863 0.66177 0.0
C780 C 0.41717 0.32681 0.68751 0.0
C781 C 0.43539 0.33276 0.69722 0.0
C782 C 0.45174 0.33839 0.68401 0.0
C783 C 0.4322 0.32904 0.65241 0.0
C784 C 0.41549 0.32366 0.66482 0.0
H785 H 0.46561 0.34326 0.69185 0.0
H786 H 0.43089 0.32649 0.63498 0.0
H787 H 0.48719 0.33327 0.67937 0.0
H788 H 0.4694 0.28605 0.63609 0.0
H789 H 0.43904 0.38805 0.61539 0.0
H790 H 0.43723 0.334 0.71481 0.0
H791 H 0.40173 0.31834 0.65639 0.0
H792 H 0.4508 0.03308 0.15557 0.0
H793 H 0.46492 0.01191 0.15355 0.0
H794 H 0.51765 0.05916 0.12617 0.0
H795 H 0.50357 0.08057 0.12829 0.0
H796 H 0.47697 0.99986 0.11859 0.0
H797 H 0.53929 0.04112 0.17502 0.0
H798 H 0.51948 0.04611 0.17266 0.0
H799 H 0.53862 0.05535 0.15254 0.0
C800 C 0.46537 0.03901 0.149 0.0
C801 C 0.476 0.05858 0.14202 0.0
C802 C 0.47348 0.02687 0.14795 0.0
C803 C 0.49246 0.03392 0.13995 0.0
C804 C 0.50315 0.05345 0.13288 0.0
H805 H 0.56291 0.97897 0.11928 0.0
H806 H 0.54906 1.00047 0.11894 0.0
C807 C 0.49506 0.06569 0.13404 0.0
C808 C 0.50069 0.0206 0.13864 0.0
H809 H 0.53836 0.0145 0.15609 0.0
C810 C 0.49037 0.00306 0.12684 0.0
C811 C 0.51817 0.0247 0.14944 0.0
C812 C 0.52946 0.04274 0.1633 0.0
C813 C 0.49712 0.98968 0.12535 0.0
C814 C 0.51458 0.99379 0.13612 0.0
C815 C 0.52498 0.01136 0.1478 0.0
C816 C 0.52239 0.98011 0.13547 0.0
C817 C 0.48568 0.97138 0.11194 0.0
C818 C 0.51197 0.96139 0.14479 0.0
C819 C 0.51993 0.94903 0.14514 0.0
C820 C 0.53854 0.95517 0.13627 0.0
C821 C 0.5487 0.9738 0.12655 0.0
C822 C 0.54077 0.98613 0.12626 0.0
H823 H 0.47535 0.97256 0.10061 0.0
H824 H 0.49561 0.96816 0.10224 0.0
H825 H 0.47712 0.95887 0.12307 0.0
H826 H 0.49789 0.95652 0.15232 0.0
H827 H 0.5118 0.93496 0.15307 0.0
H828 H 0.58985 0.54724 0.10735 0.0
H829 H 0.55554 0.53802 0.10997 0.0
H830 H 0.54381 0.48712 0.14744 0.0
H831 H 0.57824 0.49632 0.14494 0.0
H832 H 0.52359 0.50617 0.09501 0.0
H833 H 0.5181 0.50994 0.18504 0.0
H834 H 0.54121 0.51976 0.17108 0.0
H835 H 0.52689 0.494 0.17654 0.0
C836 C 0.58001 0.53403 0.11609 0.0
C837 C 0.58692 0.52253 0.1259 0.0
C838 C 0.56035 0.52882 0.11767 0.0
C839 C 0.54704 0.51201 0.12916 0.0
C840 C 0.55383 0.50043 0.13894 0.0
H841 H 0.4215 0.44819 0.11474 0.0
H842 H 0.45663 0.4612 0.11252 0.0
C843 C 0.57356 0.50569 0.13745 0.0
C844 C 0.52598 0.50633 0.13011 0.0
H845 H 0.48815 0.49528 0.16519 0.0
C846 C 0.51589 0.50389 0.11038 0.0
C847 C 0.51592 0.50365 0.15013 0.0
C848 C 0.52611 0.50716 0.17191 0.0
C849 C 0.49603 0.49842 0.1101 0.0
C850 C 0.48575 0.4949 0.13009 0.0
C851 C 0.49594 0.49782 0.14984 0.0
C852 C 0.46432 0.48749 0.13082 0.0
C853 C 0.48629 0.49666 0.08833 0.0
C854 C 0.45676 0.49777 0.14209 0.0
C855 C 0.43652 0.49023 0.14355 0.0
C856 C 0.42342 0.47213 0.13397 0.0
C857 C 0.4311 0.46207 0.12245 0.0
C858 C 0.45125 0.46961 0.12097 0.0
H859 H 0.49709 0.50546 0.07552 0.0
H860 H 0.47876 0.48118 0.083 0.0
H861 H 0.4753 0.50143 0.08951 0.0
H862 H 0.46653 0.51155 0.14994 0.0
H863 H 0.43114 0.49823 0.15279 0.0
H864 H 0.05902 0.59014 0.14692 0.0
H865 H 0.02702 0.56032 0.14903 0.0
H866 H 0.04777 0.53054 0.10752 0.0
H867 H 0.07956 0.56022 0.10499 0.0
H868 H 0.99961 0.53528 0.11489 0.0
H869 H 0.02934 0.49725 0.16454 0.0
H870 H 0.04224 0.52341 0.16097 0.0
H871 H 0.04202 0.50788 0.13941 0.0
C872 C 0.05673 0.57738 0.13793 0.0
C873 C 0.07209 0.57765 0.12598 0.0
C874 C 0.0384 0.56028 0.13923 0.0
C875 C 0.03505 0.54305 0.12873 0.0
C876 C 0.05008 0.5435 0.11611 0.0
H877 H 0.92225 0.43238 0.11683 0.0
H878 H 0.95349 0.46191 0.10797 0.0
C879 C 0.06833 0.56054 0.11474 0.0
C880 C 0.01618 0.52442 0.13159 0.0
H881 H 0.99637 0.47869 0.15377 0.0
C882 C 0.99889 0.52287 0.12332 0.0
C883 C 0.0152 0.50825 0.14271 0.0
C884 C 0.03312 0.50921 0.1526 0.0
C885 C 0.98073 0.5056 0.12583 0.0
C886 C 0.97979 0.4894 0.13683 0.0
C887 C 0.99708 0.491 0.14511 0.0
C888 C 0.96088 0.47128 0.14162 0.0
C889 C 0.96256 0.50497 0.11724 0.0
C890 C 0.95483 0.46645 0.1634 0.0
C891 C 0.93713 0.44972 0.16843 0.0
C892 C 0.92497 0.43718 0.15182 0.0
C893 C 0.93124 0.44172 0.12997 0.0
C894 C 0.94901 0.45868 0.1249 0.0
H895 H 0.96528 0.51965 0.11235 0.0
H896 H 0.9572 0.49527 0.10272 0.0
H897 H 0.95085 0.49889 0.12979 0.0
H898 H 0.96376 0.47579 0.1766 0.0
H899 H 0.93306 0.44653 0.18546 0.0
H900 H 0.08761 0.52792 0.39307 0.0
H901 H 0.05678 0.52795 0.39267 0.0
H902 H 0.03243 0.47883 0.34857 0.0
H903 H 0.06331 0.47865 0.34903 0.0
H904 H 0.03855 0.5339 0.35883 0.0
H905 H 0.9898 0.46061 0.39413 0.0
H906 H 0.01603 0.47193 0.39485 0.0
H907 H 1.00287 0.46044 0.37021 0.0
C908 C 0.0757 0.51706 0.38332 0.0
C909 C 0.07803 0.50328 0.3711 0.0
C910 C 0.05802 0.51708 0.38313 0.0
C911 C 0.04211 0.5033 0.37076 0.0
C912 C 0.04428 0.48937 0.35865 0.0
H913 H 0.94313 0.5221 0.34239 0.0
H914 H 0.97106 0.51702 0.33822 0.0
C915 C 0.06199 0.48928 0.35892 0.0
C916 C 0.02363 0.50414 0.3701 0.0
H917 H 0.97478 0.47824 0.38164 0.0
C918 C 0.0246 0.52169 0.36375 0.0
C919 C 0.00538 0.48828 0.37666 0.0
C920 C 1.00339 0.4693 0.38454 0.0
C921 C 0.00802 0.52391 0.364 0.0
C922 C 0.98973 0.50801 0.37038 0.0
C923 C 0.98871 0.49039 0.37654 0.0
C924 C 0.97184 0.5098 0.37223 0.0
C925 C 0.01042 0.54354 0.35821 0.0
C926 C 0.96237 0.5067 0.39248 0.0
C927 C 0.94625 0.50935 0.39485 0.0
C928 C 0.93906 0.51516 0.37701 0.0
C929 C 0.94815 0.51761 0.35651 0.0
C930 C 0.96432 0.51492 0.35415 0.0
H931 H 0.02594 0.55532 0.35884 0.0
H932 H 0.00503 0.54297 0.34132 0.0
H933 H 1.00186 0.5474 0.36946 0.0
H934 H 0.96772 0.50259 0.40666 0.0
H935 H 0.93947 0.5069 0.41078 0.0
H936 H 0.44526 0.92226 0.39106 0.0
H937 H 0.47657 0.95255 0.39166 0.0
H938 H 0.45362 0.97932 0.34856 0.0
H939 H 0.42206 0.94877 0.34775 0.0
H940 H 0.50033 0.97054 0.35551 0.0
H941 H 0.48033 0.02053 0.3972 0.0
H942 H 0.46495 0.99431 0.398 0.0
H943 H 0.46573 0.0076 0.37386 0.0
C944 C 0.44678 0.93457 0.38173 0.0
C945 C 0.4311 0.93296 0.36923 0.0
C946 C 0.46473 0.95194 0.38215 0.0
C947 C 0.46753 0.9683 0.37022 0.0
C948 C 0.45178 0.96701 0.35817 0.0
H949 H 0.58599 0.06486 0.34141 0.0
H950 H 0.55203 0.03866 0.33775 0.0
C951 C 0.4337 0.94953 0.35774 0.0
C952 C 0.48727 0.98617 0.36972 0.0
H953 H 0.51289 0.03422 0.38493 0.0
C954 C 0.50305 0.9845 0.36182 0.0
C955 C 0.49088 0.00436 0.37811 0.0
C956 C 0.47465 0.0069 0.38745 0.0
C957 C 0.52227 1.00036 0.36227 0.0
C958 C 0.5259 0.01859 0.37061 0.0
C959 C 0.51011 0.02033 0.37838 0.0
C960 C 0.54612 0.03561 0.37252 0.0
C961 C 0.53863 0.99727 0.35451 0.0
C962 C 0.55399 0.04314 0.3932 0.0
C963 C 0.57338 0.05822 0.39534 0.0
C964 C 0.5854 0.06628 0.37682 0.0
C965 C 0.57724 0.05914 0.35604 0.0
C966 C 0.55783 0.04399 0.35392 0.0
H967 H 0.53396 0.98153 0.35315 0.0
H968 H 0.54352 0.00398 0.33811 0.0
H969 H 0.55129 0.00432 0.3658 0.0
H970 H 0.54526 0.03702 0.40779 0.0
H971 H 0.57897 0.06351 0.41158 0.0
H972 H 0.48245 0.42425 0.33869 0.0
H973 H 0.48958 0.45806 0.335 0.0
H974 H 0.49907 0.46625 0.40456 0.0
H975 H 0.49253 0.43282 0.40828 0.0
H976 H 0.46966 0.47451 0.35333 0.0
H977 H 0.54642 0.51482 0.38116 0.0
H978 H 0.53432 0.48932 0.37373 0.0
H979 H 0.53068 0.49659 0.40041 0.0
C980 C 0.48642 0.43334 0.35315 0.0
C981 C 0.48687 0.42569 0.3738 0.0
C982 C 0.49039 0.45267 0.35103 0.0
C983 C 0.49513 0.46487 0.36946 0.0
C984 C 0.49585 0.45734 0.39001 0.0
H985 H 0.47814 0.56245 0.39275 0.0
H986 H 0.47768 0.53142 0.39103 0.0
C987 C 0.49184 0.43806 0.39215 0.0
C988 C 0.49807 0.485 0.36754 0.0
H989 H 0.5294 0.53285 0.38064 0.0
C990 C 0.48282 0.48727 0.35908 0.0
C991 C 0.51533 0.50179 0.37477 0.0
C992 C 0.5327 0.50058 0.38282 0.0
C993 C 0.48402 0.50563 0.3585 0.0
C994 C 0.50082 0.52222 0.36689 0.0
C995 C 0.51642 0.52013 0.37448 0.0
C996 C 0.50201 0.5416 0.36866 0.0
C997 C 0.46722 0.50707 0.34895 0.0
C998 C 0.51635 0.558 0.35734 0.0
C999 C 0.51666 0.57592 0.35828 0.0
C1000 C 0.50266 0.57779 0.37066 0.0
C1001 C 0.48886 0.56149 0.38265 0.0
C1002 C 0.48856 0.54368 0.38169 0.0
H1003 H 0.45825 0.49466 0.33781 0.0
H1004 H 0.45766 0.50676 0.3624 0.0
H1005 H 0.4725 0.52093 0.33976 0.0
H1006 H 0.52698 0.55681 0.3473 0.0
H1007 H 0.52743 0.58807 0.34876 0.0
H1008 H 0.45276 0.03745 0.8839 0.0
H1009 H 0.46544 0.015 0.88362 0.0
H1010 H 0.51634 0.05731 0.84851 0.0
H1011 H 0.50351 0.07981 0.84813 0.0
H1012 H 0.4757 1.00081 0.8439 0.0
H1013 H 0.53751 0.03963 0.90195 0.0
H1014 H 0.51713 0.04391 0.9011 0.0
H1015 H 0.53557 0.054 0.88031 0.0
C1016 C 0.46663 0.04208 0.87602 0.0
C1017 C 0.47699 0.06052 0.86589 0.0
C1018 C 0.4739 0.02918 0.87598 0.0
C1019 C 0.49185 0.03445 0.8661 0.0
C1020 C 0.50253 0.053 0.85644 0.0
H1021 H 0.56077 0.97797 0.85036 0.0
H1022 H 0.54773 1.00009 0.85162 0.0
C1023 C 0.4952 0.0659 0.85632 0.0
C1024 C 0.49895 0.0202 0.8653 0.0
H1025 H 0.53445 0.01159 0.88462 0.0
C1026 C 0.48853 0.00312 0.85283 0.0
C1027 C 0.51568 0.02325 0.87691 0.0
C1028 C 0.52712 0.0411 0.89098 0.0
C1029 C 0.49462 0.9892 0.85126 0.0
C1030 C 0.51131 0.99214 0.86303 0.0
C1031 C 0.52164 0.00923 0.87561 0.0
C1032 C 0.5188 0.97814 0.86194 0.0
C1033 C 0.48346 0.97184 0.83641 0.0
C1034 C 0.50696 0.95826 0.86735 0.0
C1035 C 0.51441 0.94545 0.86647 0.0
C1036 C 0.53397 0.95232 0.8606 0.0
C1037 C 0.54574 0.97221 0.85529 0.0
C1038 C 0.53827 0.98491 0.85593 0.0
H1039 H 0.47486 0.9746 0.82401 0.0
H1040 H 0.49343 0.968 0.82777 0.0
H1041 H 0.47309 0.95909 0.84633 0.0
H1042 H 0.49204 0.95269 0.87258 0.0
H1043 H 0.50503 0.93028 0.87087 0.0
H1044 H 0.42843 0.49475 0.84633 0.0
H1045 H 0.46372 0.50801 0.84935 0.0
H1046 H 0.45372 0.45321 0.87572 0.0
H1047 H 0.41862 0.44022 0.87367 0.0
H1048 H 0.48227 0.48314 0.89755 0.0
H1049 H 0.49623 0.49563 0.80849 0.0
H1050 H 0.48477 0.50821 0.82009 0.0
H1051 H 0.47194 0.48195 0.81966 0.0
C1052 C 0.43372 0.48561 0.85305 0.0
C1053 C 0.42057 0.4663 0.85953 0.0
C1054 C 0.45395 0.49313 0.85448 0.0
C1055 C 0.46146 0.48147 0.86226 0.0
C1056 C 0.44836 0.46246 0.86944 0.0
H1057 H 0.5806 0.50414 0.8425 0.0
H1058 H 0.5451 0.49009 0.8423 0.0
C1059 C 0.42821 0.45499 0.8681 0.0
C1060 C 0.4829 0.48888 0.86304 0.0
H1061 H 0.52404 0.50744 0.83146 0.0
C1062 C 0.49138 0.48843 0.88308 0.0
C1063 C 0.49481 0.49545 0.84411 0.0
C1064 C 0.48648 0.49518 0.82182 0.0
C1065 C 0.51136 0.49459 0.88476 0.0
C1066 C 0.52341 0.50184 0.866 0.0
C1067 C 0.51489 0.50203 0.84589 0.0
C1068 C 0.5449 0.50965 0.86693 0.0
C1069 C 0.51927 0.49286 0.90659 0.0
C1070 C 0.55669 0.52528 0.88086 0.0
C1071 C 0.57693 0.53317 0.88119 0.0
C1072 C 0.58601 0.52582 0.86738 0.0
C1073 C 0.57416 0.51001 0.85357 0.0
C1074 C 0.55384 0.50207 0.8533 0.0
H1075 H 0.50758 0.48169 0.91713 0.0
H1076 H 0.53085 0.48897 0.90456 0.0
H1077 H 0.52562 0.50707 0.91526 0.0
H1078 H 0.55027 0.53168 0.89122 0.0
H1079 H 0.58546 0.54518 0.89219 0.0
H1080 H 0.95068 0.41612 0.84911 0.0
H1081 H 0.98235 0.44614 0.84612 0.0
H1082 H 0.9618 0.47591 0.88796 0.0
H1083 H 0.93029 0.446 0.89133 0.0
H1084 H 0.98005 0.49677 0.84936 0.0
H1085 H 0.02604 0.47237 0.89202 0.0
H1086 H 0.0112 0.45666 0.87029 0.0
H1087 H 0.99978 0.45948 0.89433 0.0
C1088 C 0.95296 0.42891 0.85802 0.0
C1089 C 0.93776 0.42849 0.87045 0.0
C1090 C 0.97112 0.44614 0.85624 0.0
C1091 C 0.97457 0.46334 0.86691 0.0
C1092 C 0.95953 0.4629 0.87951 0.0
H1093 H 0.07208 0.5849 0.87039 0.0
H1094 H 0.04003 0.55522 0.87387 0.0
C1095 C 0.94144 0.44572 0.88136 0.0
C1096 C 0.99357 0.48196 0.8645 0.0
H1097 H 0.0425 0.50315 0.87458 0.0
C1098 C 0.99371 0.4982 0.85493 0.0
C1099 C 0.01143 0.48388 0.87174 0.0
C1100 C 0.0122 0.46725 0.88285 0.0
C1101 C 0.01119 0.51607 0.85197 0.0
C1102 C 0.02908 0.51803 0.85927 0.0
C1103 C 0.02888 0.50178 0.86895 0.0
C1104 C 0.04826 0.53651 0.85658 0.0
C1105 C 0.01033 0.53248 0.84041 0.0
C1106 C 0.06378 0.53604 0.84601 0.0
C1107 C 0.0821 0.5529 0.84427 0.0
C1108 C 0.08551 0.57081 0.85303 0.0
C1109 C 0.0699 0.57143 0.86325 0.0
C1110 C 0.05153 0.55443 0.86518 0.0
H1111 H 0.99687 0.52699 0.83041 0.0
H1112 H 0.01025 0.54272 0.85276 0.0
H1113 H 0.02317 0.54071 0.82958 0.0
H1114 H 0.06174 0.52252 0.83915 0.0
H1115 H 0.09366 0.5519 0.83602 0.0
H1116 H 0.94842 0.52867 0.65497 0.0
H1117 H 0.97953 0.52861 0.65587 0.0
H1118 H 0.96008 0.48792 0.60214 0.0
H1119 H 0.9291 0.48781 0.60128 0.0
H1120 H 0.98108 0.48924 0.65891 0.0
H1121 H 0.01767 0.53653 0.58696 0.0
H1122 H 0.99956 0.53858 0.60295 0.0
H1123 H 0.99218 0.51867 0.5842 0.0
C1124 C 0.95093 0.51996 0.64316 0.0
C1125 C 0.93626 0.50821 0.62807 0.0
C1126 C 0.96865 0.51984 0.64378 0.0
C1127 C 0.97215 0.50828 0.62904 0.0
C1128 C 0.95774 0.49699 0.61362 0.0
H1129 H 0.05657 0.47678 0.59101 0.0
H1130 H 0.03145 0.48565 0.59478 0.0
C1131 C 0.94001 0.4969 0.61319 0.0
C1132 C 0.99041 0.50719 0.63009 0.0
H1133 H 0.03188 0.51877 0.6014 0.0
C1134 C 0.99237 0.49592 0.64656 0.0
C1135 C 0.00501 0.51575 0.61386 0.0
C1136 C 1.0037 0.52819 0.596 0.0
C1137 C 0.00809 0.49227 0.64667 0.0
C1138 C 0.02261 0.50057 0.63015 0.0
C1139 C 0.02088 0.51238 0.6141 0.0
C1140 C 0.03877 0.49596 0.62811 0.0
C1141 C 0.00837 0.47869 0.6638 0.0
C1142 C 0.05178 0.49912 0.64541 0.0
C1143 C 0.06613 0.49368 0.64343 0.0
C1144 C 0.06798 0.48513 0.624 0.0
C1145 C 0.05545 0.48282 0.60644 0.0
C1146 C 0.04108 0.4881 0.6085 0.0
H1147 H 0.99386 0.46978 0.67163 0.0
H1148 H 0.01289 0.46867 0.65663 0.0
H1149 H 0.01895 0.48742 0.6768 0.0
H1150 H 0.05076 0.50566 0.66054 0.0
H1151 H 0.07543 0.49575 0.65733 0.0
H1152 H 0.58517 0.07372 0.60889 0.0
H1153 H 0.55504 0.04395 0.59756 0.0
H1154 H 0.5406 0.02798 0.66528 0.0
H1155 H 0.57054 0.05719 0.67644 0.0
H1156 H 0.5325 0.99617 0.63921 0.0
H1157 H 0.50124 0.0393 0.60353 0.0
H1158 H 0.52425 0.044 0.59253 0.0
H1159 H 0.52282 0.05028 0.62043 0.0
C1160 C 0.57571 0.0636 0.62124 0.0
C1161 C 0.58008 0.06789 0.64354 0.0
C1162 C 0.5584 0.04673 0.61481 0.0
C1163 C 0.54529 0.03389 0.6306 0.0
C1164 C 0.55031 0.03767 0.65278 0.0
H1165 H 0.42896 0.93773 0.65 0.0
H1166 H 0.46331 0.9629 0.65224 0.0
C1167 C 0.56743 0.05444 0.65915 0.0
C1168 C 0.52589 0.01694 0.62457 0.0
H1169 H 0.4811 0.00524 0.60413 0.0
C1170 C 0.52132 0.99814 0.63133 0.0
C1171 C 0.51123 0.01945 0.61434 0.0
C1172 C 0.51497 0.03933 0.60739 0.0
C1173 C 0.50252 0.98191 0.62848 0.0
C1174 C 0.48768 0.98453 0.61895 0.0
C1175 C 0.49242 0.0032 0.6115 0.0
C1176 C 0.467 0.96835 0.61739 0.0
C1177 C 0.49872 0.96208 0.63572 0.0
C1178 C 0.4574 0.96309 0.5971 0.0
C1179 C 0.43767 0.94864 0.59576 0.0
C1180 C 0.42696 0.93916 0.61471 0.0
C1181 C 0.4367 0.94436 0.635 0.0
C1182 C 0.45643 0.95881 0.63631 0.0
H1183 H 0.51242 0.96143 0.6363 0.0
H1184 H 0.49241 0.95907 0.65243 0.0
H1185 H 0.48825 0.95042 0.62463 0.0
H1186 H 0.46517 0.97024 0.58226 0.0
H1187 H 0.43083 0.94495 0.57982 0.0
H1188 H 0.5055 0.42966 0.62273 0.0
H1189 H 0.51636 0.46474 0.62171 0.0
H1190 H 0.45734 0.45161 0.63382 0.0
H1191 H 0.44653 0.41692 0.63462 0.0
H1192 H 0.4737 0.47745 0.60066 0.0
H1193 H 0.52421 0.50151 0.67189 0.0
H1194 H 0.52933 0.48908 0.65059 0.0
H1195 H 0.50732 0.4761 0.66633 0.0
C1196 C 0.49492 0.43432 0.62536 0.0
C1197 C 0.47511 0.42044 0.62857 0.0
C1198 C 0.50114 0.45438 0.62482 0.0
C1199 C 0.48769 0.46092 0.62782 0.0
C1200 C 0.46801 0.44703 0.63131 0.0
H1201 H 0.47324 0.5572 0.65429 0.0
H1202 H 0.47139 0.52628 0.64464 0.0
C1203 C 0.46181 0.42712 0.63168 0.0
C1204 C 0.49362 0.48205 0.62702 0.0
H1205 H 0.51997 0.52549 0.65406 0.0
C1206 C 0.48401 0.48798 0.61219 0.0
C1207 C 0.50714 0.49591 0.64198 0.0
C1208 C 0.51752 0.49039 0.65874 0.0
C1209 C 0.48693 0.50703 0.61247 0.0
C1210 C 0.49978 0.5206 0.628 0.0
C1211 C 0.51018 0.51507 0.6421 0.0
C1212 C 0.5007 0.53965 0.63166 0.0
C1213 C 0.47582 0.51239 0.59655 0.0
C1214 C 0.51772 0.55751 0.62729 0.0
C1215 C 0.51867 0.57528 0.63252 0.0
C1216 C 0.50276 0.57538 0.64261 0.0
C1217 C 0.48565 0.55749 0.64644 0.0
C1218 C 0.48459 0.53985 0.64094 0.0
H1219 H 0.47038 0.50225 0.58238 0.0
H1220 H 0.46306 0.51165 0.60501 0.0
H1221 H 0.48512 0.52752 0.59044 0.0
H1222 H 0.53035 0.55766 0.62024 0.0
H1223 H 0.53211 0.58887 0.62973 0.0
H1224 H 0.47072 0.26851 0.33683 0.0
H1225 H 0.47517 0.24902 0.30891 0.0
H1226 H 0.49357 0.29628 0.26284 0.0
H1227 H 0.48905 0.31591 0.29083 0.0
H1228 H 0.45479 0.23759 0.27005 0.0
H1229 H 0.53454 0.27938 0.25432 0.0
H1230 H 0.52362 0.28316 0.2784 0.0
H1231 H 0.52243 0.29342 0.25263 0.0
C1232 C 0.47585 0.27484 0.32082 0.0
C1233 C 0.47938 0.29374 0.31605 0.0
C1234 C 0.47847 0.26369 0.30488 0.0
C1235 C 0.4848 0.27117 0.28378 0.0
C1236 C 0.489 0.29029 0.27911 0.0
H1237 H 0.46358 0.20102 0.16703 0.0
H1238 H 0.46599 0.22432 0.19466 0.0
C1239 C 0.4864 0.30152 0.29513 0.0
C1240 C 0.48541 0.25828 0.2664 0.0
H1241 H 0.51543 0.25298 0.23022 0.0
C1242 C 0.46808 0.24097 0.26139 0.0
C1243 C 0.50277 0.26257 0.25521 0.0
C1244 C 0.52196 0.28055 0.26048 0.0
C1245 C 0.46755 0.22797 0.24539 0.0
C1246 C 0.48478 0.23246 0.23382 0.0
C1247 C 0.50221 0.24963 0.23899 0.0
C1248 C 0.48477 0.21945 0.21624 0.0
C1249 C 0.44857 0.20936 0.24118 0.0
C1250 C 0.49501 0.20934 0.21883 0.0
C1251 C 0.49377 0.19598 0.2029 0.0
C1252 C 0.48237 0.1926 0.18396 0.0
C1253 C 0.47265 0.20328 0.18119 0.0
C1254 C 0.47386 0.21654 0.19711 0.0
H1255 H 0.438 0.2059 0.25475 0.0
H1256 H 0.44187 0.21101 0.22597 0.0
H1257 H 0.45106 0.19685 0.23892 0.0
H1258 H 0.50359 0.21142 0.23343 0.0
H1259 H 0.50164 0.18825 0.20549 0.0
H1260 H 0.26802 0.45033 0.1799 0.0
H1261 H 0.24889 0.45449 0.2083 0.0
H1262 H 0.30147 0.50086 0.23699 0.0
H1263 H 0.32092 0.49667 0.20841 0.0
H1264 H 0.27684 0.47586 0.26801 0.0
H1265 H 0.23528 0.49714 0.21301 0.0
H1266 H 0.23326 0.47446 0.20474 0.0
H1267 H 0.25668 0.4965 0.20407 0.0
C1268 C 0.27559 0.46165 0.19198 0.0
C1269 C 0.29605 0.47338 0.19159 0.0
C1270 C 0.26457 0.46402 0.20828 0.0
C1271 C 0.27364 0.47832 0.22453 0.0
C1272 C 0.2941 0.48984 0.22452 0.0
H1273 H 0.19609 0.50047 0.30737 0.0
H1274 H 0.22312 0.50575 0.28363 0.0
C1275 C 0.30521 0.48741 0.2082 0.0
C1276 C 0.2616 0.48066 0.24174 0.0
H1277 H 0.2215 0.48569 0.24868 0.0
C1278 C 0.2649 0.47828 0.26381 0.0
C1279 C 0.24624 0.48423 0.23642 0.0
C1280 C 0.24278 0.48844 0.21329 0.0
C1281 C 0.25268 0.47837 0.28051 0.0
C1282 C 0.23643 0.48045 0.27498 0.0
C1283 C 0.23375 0.48382 0.25302 0.0
C1284 C 0.22147 0.47826 0.29137 0.0
C1285 C 0.25739 0.47626 0.30391 0.0
C1286 C 0.21156 0.46116 0.30392 0.0
C1287 C 0.19625 0.45822 0.31779 0.0
C1288 C 0.19018 0.47215 0.31923 0.0
C1289 C 0.20042 0.48949 0.30701 0.0
C1290 C 0.21584 0.49248 0.29323 0.0
H1291 H 0.27324 0.48178 0.30606 0.0
H1292 H 0.25292 0.48422 0.31533 0.0
H1293 H 0.24952 0.46057 0.30842 0.0
H1294 H 0.21521 0.44972 0.30247 0.0
H1295 H 0.18891 0.44478 0.32704 0.0
H1296 H 0.79606 0.30265 0.17526 0.0
H1297 H 0.77053 0.27991 0.19969 0.0
H1298 H 0.79755 0.24432 0.20209 0.0
H1299 H 0.82273 0.26642 0.17709 0.0
H1300 H 0.75861 0.22196 0.2026 0.0
H1301 H 0.78104 0.28088 0.26435 0.0
H1302 H 0.77324 0.28576 0.23874 0.0
H1303 H 0.79497 0.28392 0.23987 0.0
C1304 C 0.79667 0.28998 0.18069 0.0
C1305 C 0.81231 0.28714 0.17471 0.0
C1306 C 0.78198 0.27696 0.19489 0.0
C1307 C 0.7825 0.26078 0.20353 0.0
C1308 C 0.79699 0.25691 0.19607 0.0
H1309 H 0.74297 0.20228 0.32657 0.0
H1310 H 0.7596 0.2232 0.29537 0.0
C1311 C 0.81159 0.2698 0.18177 0.0
C1312 C 0.76874 0.24842 0.22115 0.0
H1313 H 0.75498 0.24996 0.27384 0.0
C1314 C 0.7577 0.2281 0.21812 0.0
C1315 C 0.76772 0.25635 0.24158 0.0
C1316 C 0.77998 0.27789 0.24649 0.0
C1317 C 0.74599 0.21553 0.23497 0.0
C1318 C 0.7449 0.22349 0.25534 0.0
C1319 C 0.75564 0.24383 0.25821 0.0
C1320 C 0.73411 0.21098 0.27451 0.0
C1321 C 0.73563 0.19378 0.23107 0.0
C1322 C 0.71403 0.19731 0.27354 0.0
C1323 C 0.70445 0.18506 0.29142 0.0
C1324 C 0.71471 0.1863 0.31074 0.0
C1325 C 0.73462 0.20056 0.31189 0.0
C1326 C 0.74417 0.21269 0.29404 0.0
H1327 H 0.74165 0.18995 0.21672 0.0
H1328 H 0.73671 0.18599 0.24563 0.0
H1329 H 0.71996 0.18844 0.22787 0.0
H1330 H 0.70578 0.19599 0.25888 0.0
H1331 H 0.68915 0.17428 0.28982 0.0
H1332 H 0.53293 0.80285 0.16768 0.0
H1333 H 0.52984 0.78009 0.19652 0.0
H1334 H 0.53105 0.82 0.24533 0.0
H1335 H 0.5344 0.84298 0.21663 0.0
H1336 H 0.55688 0.78781 0.22977 0.0
H1337 H 0.48435 0.76746 0.26451 0.0
H1338 H 0.49229 0.77885 0.23802 0.0
H1339 H 0.50097 0.79328 0.26249 0.0
C1340 C 0.53247 0.80681 0.18452 0.0
C1341 C 0.53398 0.82486 0.1897 0.0
C1342 C 0.53061 0.79371 0.20102 0.0
C1343 C 0.53003 0.79822 0.22312 0.0
C1344 C 0.53107 0.816 0.22839 0.0
H1345 H 0.55888 0.74838 0.33399 0.0
H1346 H 0.55636 0.7701 0.30741 0.0
C1347 C 0.53298 0.82915 0.21188 0.0
C1348 C 0.52967 0.78489 0.24059 0.0
H1349 H 0.50339 0.75697 0.2842 0.0
C1350 C 0.54515 0.78105 0.24163 0.0
C1351 C 0.5143 0.77593 0.25599 0.0
C1352 C 0.49693 0.77891 0.25517 0.0
C1353 C 0.54584 0.76874 0.25776 0.0
C1354 C 0.53073 0.76015 0.27349 0.0
C1355 C 0.51506 0.76372 0.27228 0.0
C1356 C 0.53098 0.74723 0.29105 0.0
C1357 C 0.56263 0.7648 0.25767 0.0
C1358 C 0.51709 0.72724 0.29126 0.0
C1359 C 0.51853 0.71471 0.30642 0.0
C1360 C 0.53386 0.72196 0.32179 0.0
C1361 C 0.54712 0.74219 0.3222 0.0
C1362 C 0.54569 0.75467 0.30701 0.0
H1363 H 0.57063 0.76895 0.24187 0.0
H1364 H 0.57304 0.77345 0.27084 0.0
H1365 H 0.5574 0.74913 0.26084 0.0
H1366 H 0.50559 0.72119 0.27912 0.0
H1367 H 0.50815 0.69925 0.3054 0.0
H1368 H 0.74098 0.53192 0.16431 0.0
H1369 H 0.76012 0.52777 0.19293 0.0
H1370 H 0.71246 0.51021 0.23822 0.0
H1371 H 0.69319 0.51443 0.20952 0.0
H1372 H 0.77074 0.54943 0.23117 0.0
H1373 H 0.73025 0.47007 0.24969 0.0
H1374 H 0.7266 0.48006 0.22474 0.0
H1375 H 0.71579 0.48179 0.24986 0.0
C1376 C 0.73446 0.52694 0.18028 0.0
C1377 C 0.7156 0.52365 0.18465 0.0
C1378 C 0.7454 0.52451 0.19662 0.0
C1379 C 0.73775 0.51861 0.21773 0.0
C1380 C 0.71858 0.51446 0.22197 0.0
H1381 H 0.80606 0.54447 0.33642 0.0
H1382 H 0.78206 0.53947 0.30833 0.0
C1383 C 0.70756 0.51687 0.20554 0.0
C1384 C 0.7506 0.51876 0.23563 0.0
H1385 H 0.75632 0.49029 0.2737 0.0
C1386 C 0.76758 0.53647 0.24041 0.0
C1387 C 0.74656 0.50183 0.24761 0.0
C1388 C 0.72891 0.48229 0.24266 0.0
C1389 C 0.7805 0.53779 0.25695 0.0
C1390 C 0.77627 0.52099 0.26926 0.0
C1391 C 0.75945 0.50318 0.26433 0.0
C1392 C 0.78927 0.52197 0.28737 0.0
C1393 C 0.7987 0.55716 0.26102 0.0
C1394 C 0.80088 0.51325 0.28528 0.0
C1395 C 0.81478 0.51619 0.30132 0.0
C1396 C 0.81728 0.5279 0.31976 0.0
C1397 C 0.80487 0.53574 0.32225 0.0
C1398 C 0.79105 0.53282 0.30625 0.0
H1399 H 0.80188 0.56754 0.2473 0.0
H1400 H 0.79675 0.5638 0.27611 0.0
H1401 H 0.8115 0.55517 0.26346 0.0
H1402 H 0.79972 0.50481 0.27082 0.0
H1403 H 0.82411 0.51 0.29876 0.0
H1404 H 0.26294 0.81933 0.32011 0.0
H1405 H 0.24332 0.79508 0.29258 0.0
H1406 H 0.29416 0.79332 0.2706 0.0
H1407 H 0.31411 0.81828 0.29751 0.0
H1408 H 0.27475 0.7964 0.23663 0.0
H1409 H 0.22179 0.73727 0.29008 0.0
H1410 H 0.22238 0.75983 0.29546 0.0
H1411 H 0.24374 0.75787 0.30061 0.0
C1412 C 0.26999 0.81374 0.30955 0.0
C1413 C 0.29019 0.82086 0.31117 0.0
C1414 C 0.25865 0.79965 0.29391 0.0
C1415 C 0.26713 0.79206 0.27964 0.0
C1416 C 0.28721 0.79881 0.28149 0.0
H1417 H 0.19141 0.6943 0.19333 0.0
H1418 H 0.21602 0.71477 0.22025 0.0
C1419 C 0.2986 0.81299 0.29709 0.0
C1420 C 0.25526 0.77808 0.26196 0.0
H1421 H 0.21263 0.73557 0.25232 0.0
C1422 C 0.26128 0.78298 0.24011 0.0
C1423 C 0.23782 0.76036 0.26637 0.0
C1424 C 0.23116 0.75341 0.28942 0.0
C1425 C 0.25002 0.77111 0.22262 0.0
C1426 C 0.23195 0.75405 0.22698 0.0
C1427 C 0.22632 0.74875 0.24886 0.0
C1428 C 0.21834 0.74184 0.20919 0.0
C1429 C 0.25771 0.77697 0.19964 0.0
C1430 C 0.2115 0.75015 0.19375 0.0
C1431 C 0.19761 0.7385 0.17809 0.0
C1432 C 0.18993 0.71814 0.17763 0.0
C1433 C 0.19712 0.7099 0.19285 0.0
C1434 C 0.2111 0.7216 0.20846 0.0
H1435 H 0.27388 0.786 0.19949 0.0
H1436 H 0.25327 0.76401 0.18906 0.0
H1437 H 0.25183 0.78587 0.1925 0.0
H1438 H 0.21646 0.76562 0.19418 0.0
H1439 H 0.19259 0.74544 0.16662 0.0
H1440 H 0.5092 0.82721 0.7864 0.0
H1441 H 0.50541 0.80527 0.75603 0.0
H1442 H 0.54904 0.79482 0.78483 0.0
H1443 H 0.55303 0.81663 0.81489 0.0
H1444 H 0.53274 0.80696 0.72559 0.0
H1445 H 0.50368 0.73964 0.77521 0.0
H1446 H 0.50485 0.76164 0.78532 0.0
H1447 H 0.52617 0.75905 0.78588 0.0
C1448 C 0.51799 0.82025 0.78628 0.0
C1449 C 0.53124 0.82358 0.80338 0.0
C1450 C 0.51577 0.80767 0.76891 0.0
C1451 C 0.52667 0.79808 0.76834 0.0
C1452 C 0.54008 0.80161 0.78517 0.0
H1453 H 0.56105 0.74751 0.66599 0.0
H1454 H 0.5566 0.76928 0.69025 0.0
C1455 C 0.5423 0.81412 0.80247 0.0
C1456 C 0.52447 0.78463 0.75008 0.0
H1457 H 0.51606 0.73861 0.73981 0.0
C1458 C 0.52885 0.79193 0.72863 0.0
C1459 C 0.51907 0.76491 0.75393 0.0
C1460 C 0.51297 0.75577 0.7763 0.0
C1461 C 0.52886 0.78033 0.71114 0.0
C1462 C 0.5247 0.76099 0.71527 0.0
C1463 C 0.51945 0.75346 0.73657 0.0
C1464 C 0.52656 0.74853 0.69818 0.0
C1465 C 0.53333 0.78893 0.68844 0.0
C1466 C 0.51115 0.72952 0.69425 0.0
C1467 C 0.51374 0.71677 0.68059 0.0
C1468 C 0.53194 0.7226 0.67065 0.0
C1469 C 0.54695 0.74211 0.67359 0.0
C1470 C 0.54435 0.75481 0.68733 0.0
H1471 H 0.52956 0.80064 0.68673 0.0
H1472 H 0.5492 0.79553 0.68527 0.0
H1473 H 0.52527 0.77761 0.67581 0.0
H1474 H 0.49723 0.7243 0.70235 0.0
H1475 H 0.50162 0.70211 0.67876 0.0
H1476 H 0.81791 0.55908 0.66607 0.0
H1477 H 0.7928 0.55506 0.69224 0.0
H1478 H 0.79214 0.50444 0.71925 0.0
H1479 H 0.81753 0.50852 0.6934 0.0
H1480 H 0.75345 0.50143 0.71318 0.0
H1481 H 0.80708 0.56758 0.75867 0.0
H1482 H 0.80567 0.5707 0.72972 0.0
H1483 H 0.81439 0.55505 0.73952 0.0
C1484 C 0.81241 0.54703 0.67749 0.0
C1485 C 0.81998 0.53427 0.67769 0.0
C1486 C 0.798 0.54473 0.69242 0.0
C1487 C 0.79079 0.52962 0.7079 0.0
C1488 C 0.79753 0.51623 0.70747 0.0
H1489 H 0.7344 0.52531 0.83105 0.0
H1490 H 0.75454 0.52365 0.80181 0.0
C1491 C 0.812 0.51854 0.69256 0.0
C1492 C 0.77712 0.5285 0.72529 0.0
H1493 H 0.77425 0.55274 0.77014 0.0
C1494 C 0.75796 0.51263 0.72565 0.0
C1495 C 0.78311 0.54301 0.74169 0.0
C1496 C 0.80372 0.56 0.74261 0.0
C1497 C 0.74454 0.51106 0.74181 0.0
C1498 C 0.75045 0.52579 0.75795 0.0
C1499 C 0.76969 0.5415 0.75771 0.0
C1500 C 0.73709 0.52517 0.77551 0.0
C1501 C 0.72427 0.49352 0.74173 0.0
C1502 C 0.72044 0.52643 0.7705 0.0
C1503 C 0.70891 0.52754 0.78726 0.0
C1504 C 0.71386 0.5275 0.80939 0.0
C1505 C 0.73027 0.52569 0.81426 0.0
C1506 C 0.74178 0.52464 0.79754 0.0
H1507 H 0.72339 0.48149 0.73149 0.0
H1508 H 0.71951 0.48799 0.75861 0.0
H1509 H 0.71393 0.49778 0.73498 0.0
H1510 H 0.71671 0.52722 0.75364 0.0
H1511 H 0.69659 0.52919 0.78281 0.0
H1512 H 0.27074 0.80449 0.66865 0.0
H1513 H 0.25374 0.78282 0.69935 0.0
H1514 H 0.30507 0.81423 0.73941 0.0
H1515 H 0.32228 0.83598 0.70853 0.0
H1516 H 0.28657 0.77397 0.74585 0.0
H1517 H 0.23312 0.79952 0.75104 0.0
H1518 H 0.234 0.79055 0.72435 0.0
H1519 H 0.25509 0.81195 0.73489 0.0
C1520 C 0.27844 0.80679 0.68397 0.0
C1521 C 0.2978 0.82214 0.68617 0.0
C1522 C 0.26868 0.79441 0.70155 0.0
C1523 C 0.27793 0.79717 0.7219 0.0
C1524 C 0.29756 0.8119 0.72393 0.0
H1525 H 0.20606 0.74304 0.83804 0.0
H1526 H 0.23053 0.76671 0.81288 0.0
C1527 C 0.30742 0.82428 0.70623 0.0
C1528 C 0.26684 0.78493 0.74104 0.0
H1529 H 0.22538 0.77062 0.77095 0.0
C1530 C 0.27328 0.77335 0.75148 0.0
C1531 C 0.24969 0.78438 0.74874 0.0
C1532 C 0.24266 0.79741 0.73934 0.0
C1533 C 0.26264 0.76071 0.7688 0.0
C1534 C 0.24487 0.75933 0.77562 0.0
C1535 C 0.23886 0.77146 0.76568 0.0
C1536 C 0.23188 0.74505 0.79248 0.0
C1537 C 0.27066 0.7491 0.77969 0.0
C1538 C 0.22462 0.72494 0.78972 0.0
C1539 C 0.21072 0.71139 0.80419 0.0
C1540 C 0.20347 0.71757 0.82162 0.0
C1541 C 0.21119 0.73774 0.82475 0.0
C1542 C 0.22521 0.7513 0.81036 0.0
H1543 H 0.28677 0.75639 0.77789 0.0
H1544 H 0.26699 0.74697 0.79738 0.0
H1545 H 0.26429 0.73455 0.7718 0.0
H1546 H 0.22904 0.71962 0.77579 0.0
H1547 H 0.20491 0.69601 0.80096 0.0
H1548 H 0.48042 0.17302 0.78423 0.0
H1549 H 0.48441 0.19655 0.7559 0.0
H1550 H 0.48781 0.23687 0.80551 0.0
H1551 H 0.48472 0.21387 0.83389 0.0
H1552 H 0.46036 0.21048 0.74693 0.0
H1553 H 0.5331 0.27276 0.7675 0.0
H1554 H 0.52416 0.24872 0.77891 0.0
H1555 H 0.5167 0.26494 0.79034 0.0
C1556 C 0.48248 0.18705 0.7892 0.0
C1557 C 0.48222 0.19144 0.81148 0.0
C1558 C 0.48462 0.20047 0.77292 0.0
C1559 C 0.48667 0.21865 0.7785 0.0
C1560 C 0.4867 0.22317 0.80071 0.0
H1561 H 0.48043 0.31064 0.70734 0.0
H1562 H 0.48299 0.28978 0.73517 0.0
C1563 C 0.48464 0.20983 0.81698 0.0
C1564 C 0.48747 0.23231 0.76115 0.0
H1565 H 0.51363 0.27948 0.74296 0.0
C1566 C 0.47212 0.2255 0.74595 0.0
C1567 C 0.50277 0.25198 0.75986 0.0
C1568 C 0.52021 0.26 0.77489 0.0
C1569 C 0.47143 0.23786 0.72989 0.0
C1570 C 0.48658 0.25756 0.7288 0.0
C1571 C 0.50198 0.2644 0.74388 0.0
C1572 C 0.48661 0.27118 0.71199 0.0
C1573 C 0.45423 0.22986 0.7145 0.0
C1574 C 0.48838 0.26804 0.68973 0.0
C1575 C 0.48709 0.28003 0.67378 0.0
C1576 C 0.48397 0.29547 0.67968 0.0
C1577 C 0.48296 0.29904 0.7021 0.0
C1578 C 0.48432 0.28704 0.71807 0.0
H1579 H 0.4419 0.2158 0.7204 0.0
H1580 H 0.44903 0.24045 0.71238 0.0
H1581 H 0.45877 0.22731 0.69823 0.0
H1582 H 0.49052 0.25612 0.68467 0.0
H1583 H 0.48837 0.27705 0.65678 0.0
H1584 H 0.18142 0.43935 0.68218 0.0
H1585 H 0.20598 0.44441 0.70923 0.0
H1586 H 0.22536 0.50594 0.71075 0.0
H1587 H 0.2005 0.50093 0.68337 0.0
H1588 H 0.24555 0.46653 0.70676 0.0
H1589 H 0.21756 0.49162 0.77551 0.0
H1590 H 0.20341 0.48053 0.75116 0.0
H1591 H 0.22278 0.50551 0.75068 0.0
C1592 C 0.19096 0.45404 0.68801 0.0
C1593 C 0.18903 0.46978 0.68034 0.0
C1594 C 0.205 0.45688 0.70364 0.0
C1595 C 0.21751 0.47552 0.71219 0.0
C1596 C 0.21568 0.49135 0.70469 0.0
H1597 H 0.3188 0.49195 0.79012 0.0
H1598 H 0.29895 0.49578 0.76192 0.0
C1599 C 0.20149 0.48849 0.689 0.0
C1600 C 0.23247 0.478 0.7287 0.0
H1601 H 0.24592 0.48978 0.78218 0.0
C1602 C 0.24575 0.47178 0.72321 0.0
C1603 C 0.23261 0.48466 0.75023 0.0
C1604 C 0.21825 0.49083 0.75741 0.0
C1605 C 0.25878 0.47159 0.7387 0.0
C1606 C 0.25891 0.4782 0.76026 0.0
C1607 C 0.24593 0.48483 0.76564 0.0
C1608 C 0.27133 0.47698 0.77784 0.0
C1609 C 0.27167 0.46343 0.73205 0.0
C1610 C 0.26256 0.46568 0.79656 0.0
C1611 C 0.27387 0.46357 0.81275 0.0
C1612 C 0.2943 0.47274 0.81067 0.0
C1613 C 0.30311 0.48442 0.79211 0.0
C1614 C 0.29177 0.48661 0.77594 0.0
H1615 H 0.26654 0.45478 0.71671 0.0
H1616 H 0.28671 0.47565 0.72922 0.0
H1617 H 0.27223 0.45398 0.74511 0.0
H1618 H 0.24685 0.45808 0.79844 0.0
H1619 H 0.2665 0.4543 0.82662 0.0
H1620 H 0.69828 0.19737 0.69131 0.0
H1621 H 0.7189 0.22162 0.71818 0.0
H1622 H 0.76854 0.21817 0.69511 0.0
H1623 H 0.74823 0.1945 0.66747 0.0
H1624 H 0.73698 0.21613 0.75148 0.0
H1625 H 0.79263 0.27607 0.70098 0.0
H1626 H 0.77046 0.25649 0.68944 0.0
H1627 H 0.79103 0.2532 0.69459 0.0
C1628 C 0.71365 0.20204 0.69138 0.0
C1629 C 0.72138 0.19361 0.67708 0.0
C1630 C 0.72546 0.21591 0.70701 0.0
C1631 C 0.74537 0.22189 0.70875 0.0
C1632 C 0.75333 0.21414 0.69397 0.0
H1633 H 0.81761 0.26188 0.82439 0.0
H1634 H 0.7945 0.24346 0.79538 0.0
C1635 C 0.74156 0.20035 0.67824 0.0
C1636 C 0.75738 0.23491 0.72707 0.0
H1637 H 0.80068 0.27606 0.73888 0.0
C1638 C 0.75081 0.22935 0.74866 0.0
C1639 C 0.77532 0.25237 0.72356 0.0
C1640 C 0.78268 0.26 0.70088 0.0
C1641 C 0.76191 0.2403 0.76673 0.0
C1642 C 0.78039 0.2571 0.76326 0.0
C1643 C 0.78665 0.26307 0.74166 0.0
C1644 C 0.79372 0.2683 0.78172 0.0
C1645 C 0.7536 0.23376 0.78938 0.0
C1646 C 0.80131 0.28854 0.78372 0.0
C1647 C 0.81481 0.29922 0.80022 0.0
C1648 C 0.82116 0.28992 0.81506 0.0
C1649 C 0.81319 0.26958 0.81326 0.0
C1650 C 0.79976 0.25895 0.79675 0.0
H1651 H 0.73741 0.22511 0.78904 0.0
H1652 H 0.75895 0.2243 0.79621 0.0
H1653 H 0.75812 0.2464 0.80052 0.0
H1654 H 0.79701 0.29615 0.77227 0.0
H1655 H 0.82081 0.31486 0.80078 0.0
H1656 H 0.39399 0.06026 0.1912 0.0
H1657 H 0.37551 0.03385 0.21654 0.0
H1658 H 0.38868 0.07538 0.26874 0.0
H1659 H 0.40794 0.10214 0.24325 0.0
H1660 H 0.40026 0.05191 0.27969 0.0
H1661 H 0.32603 0.00545 0.2487 0.0
H1662 H 0.34238 0.0098 0.22645 0.0
H1663 H 0.34132 0.03003 0.23875 0.0
C1664 C 0.39226 0.0639 0.20782 0.0
C1665 C 0.40252 0.08329 0.21526 0.0
C1666 C 0.38154 0.04869 0.22238 0.0
C1667 C 0.38049 0.05253 0.24461 0.0
C1668 C 0.38925 0.07203 0.25167 0.0
H1669 H 0.33462 0.94344 0.31978 0.0
H1670 H 0.33727 0.97374 0.30623 0.0
C1671 C 0.40026 0.08731 0.23712 0.0
C1672 C 0.37387 0.03635 0.26063 0.0
H1673 H 0.34111 0.98779 0.26619 0.0
C1674 C 0.387 0.03806 0.27713 0.0
C1675 C 0.35642 0.0183 0.25779 0.0
C1676 C 0.34069 0.01593 0.24209 0.0
C1677 C 0.38407 0.02185 0.28935 0.0
C1678 C 0.36794 0.0033 0.28442 0.0
C1679 C 0.35382 1.00191 0.26949 0.0
C1680 C 0.36638 0.98512 0.29321 0.0
C1681 C 0.39863 0.02471 0.30695 0.0
C1682 C 0.38173 0.9813 0.29004 0.0
C1683 C 0.38041 0.96418 0.29807 0.0
C1684 C 0.36354 0.95031 0.30908 0.0
C1685 C 0.34798 0.95397 0.31175 0.0
C1686 C 0.3494 0.97122 0.30389 0.0
H1687 H 0.40514 0.03955 0.31418 0.0
H1688 H 0.39183 0.01377 0.32023 0.0
H1689 H 0.41069 0.02326 0.29965 0.0
H1690 H 0.39475 0.99155 0.28126 0.0
H1691 H 0.39275 0.96198 0.29587 0.0
H1692 H 0.36082 0.4222 0.23901 0.0
H1693 H 0.3611 0.39727 0.26177 0.0
H1694 H 0.30421 0.35479 0.23765 0.0
H1695 H 0.30375 0.37998 0.21456 0.0
H1696 H 0.33645 0.37222 0.29421 0.0
H1697 H 0.33871 0.33173 0.22057 0.0
H1698 H 0.34208 0.35596 0.21836 0.0
H1699 H 0.31834 0.33561 0.22407 0.0
C1700 C 0.34808 0.40773 0.23889 0.0
C1701 C 0.33227 0.40311 0.2249 0.0
C1702 C 0.3483 0.39343 0.25189 0.0
C1703 C 0.33277 0.37414 0.25122 0.0
C1704 C 0.31647 0.36954 0.23813 0.0
H1705 H 0.37677 0.31586 0.3376 0.0
H1706 H 0.34972 0.31794 0.32073 0.0
C1707 C 0.31625 0.38393 0.22497 0.0
C1708 C 0.33502 0.35905 0.26301 0.0
H1709 H 0.34976 0.32591 0.25353 0.0
C1710 C 0.33879 0.3616 0.28554 0.0
C1711 C 0.33794 0.34519 0.25155 0.0
C1712 C 0.33415 0.34188 0.22729 0.0
C1713 C 0.34759 0.3524 0.29643 0.0
C1714 C 0.35217 0.33987 0.28449 0.0
C1715 C 0.34629 0.33559 0.26256 0.0
C1716 C 0.3666 0.33475 0.29284 0.0
C1717 C 0.3537 0.35778 0.31998 0.0
C1718 C 0.38463 0.34244 0.28208 0.0
C1719 C 0.39992 0.34107 0.29147 0.0
C1720 C 0.39753 0.33205 0.3119 0.0
C1721 C 0.37907 0.32317 0.32199 0.0
C1722 C 0.36365 0.32436 0.31241 0.0
H1723 H 0.35112 0.36956 0.32592 0.0
H1724 H 0.34526 0.34479 0.33052 0.0
H1725 H 0.36944 0.36269 0.32199 0.0
H1726 H 0.38726 0.35056 0.26697 0.0
H1727 H 0.41398 0.3482 0.28339 0.0
H1728 H 0.04949 0.44681 0.30431 0.0
H1729 H 0.0157 0.42475 0.29523 0.0
H1730 H 0.01872 0.37711 0.32563 0.0
H1731 H 0.0534 0.39867 0.33253 0.0
H1732 H 0.99861 0.36376 0.29218 0.0
H1733 H 0.96921 0.40551 0.33176 0.0
H1734 H 0.98747 0.42193 0.31316 0.0
H1735 H 0.99425 0.41172 0.33569 0.0
C1736 C 0.04325 0.43158 0.30868 0.0
C1737 C 0.05439 0.42464 0.31918 0.0
C1738 C 0.02362 0.41904 0.30403 0.0
C1739 C 0.01435 0.3994 0.31055 0.0
C1740 C 0.02541 0.39228 0.32079 0.0
H1741 H 0.89732 0.35739 0.26212 0.0
H1742 H 0.91993 0.35941 0.29043 0.0
C1743 C 0.04526 0.40473 0.32488 0.0
C1744 C 0.99351 0.38624 0.30509 0.0
H1745 H 0.95156 0.38754 0.29831 0.0
C1746 C 0.98813 0.36868 0.29407 0.0
C1747 C 0.97931 0.39184 0.30854 0.0
C1748 C 0.98287 0.40866 0.32322 0.0
C1749 C 0.96979 0.35799 0.28413 0.0
C1750 C 0.95704 0.3657 0.28412 0.0
C1751 C 0.96148 0.38185 0.29748 0.0
C1752 C 0.94111 0.35958 0.26782 0.0
C1753 C 0.96462 0.33888 0.27324 0.0
C1754 C 0.94498 0.3582 0.24568 0.0
C1755 C 0.93174 0.35626 0.22955 0.0
C1756 C 0.91466 0.35659 0.23499 0.0
C1757 C 0.91029 0.35704 0.25724 0.0
C1758 C 0.92332 0.35835 0.27349 0.0
H1759 H 0.96975 0.33067 0.28336 0.0
H1760 H 0.94866 0.32958 0.27064 0.0
H1761 H 0.97223 0.3418 0.25726 0.0
H1762 H 0.95877 0.35974 0.24059 0.0
H1763 H 0.93537 0.35528 0.2127 0.0
H1764 H 0.58696 0.93904 0.2394 0.0
H1765 H 0.6114 0.96477 0.26208 0.0
H1766 H 0.6556 0.95364 0.23619 0.0
H1767 H 0.63093 0.92749 0.21315 0.0
H1768 H 0.63783 0.96724 0.29358 0.0
H1769 H 0.67522 0.0105 0.219 0.0
H1770 H 0.65164 0.98868 0.21744 0.0
H1771 H 0.67305 0.98691 0.22241 0.0
C1772 C 0.60173 0.94157 0.2389 0.0
C1773 C 0.60698 0.93122 0.22435 0.0
C1774 C 0.61574 0.9564 0.25186 0.0
C1775 C 0.63535 0.9613 0.25061 0.0
C1776 C 0.64058 0.9503 0.2371 0.0
H1777 H 0.69355 0.06466 0.33598 0.0
H1778 H 0.69124 0.03551 0.31885 0.0
C1779 C 0.62648 0.93539 0.22397 0.0
C1780 C 0.65005 0.97911 0.26207 0.0
H1781 H 0.68145 0.02736 0.252 0.0
C1782 C 0.64785 0.98034 0.28468 0.0
C1783 C 0.66312 0.99609 0.25031 0.0
C1784 C 0.66595 0.99566 0.22594 0.0
C1785 C 0.65669 0.99841 0.29546 0.0
C1786 C 0.66847 0.01562 0.2833 0.0
C1787 C 0.67235 0.01412 0.2612 0.0
C1788 C 0.67336 0.03507 0.29183 0.0
C1789 C 0.65173 0.99905 0.31919 0.0
C1790 C 0.66505 0.04509 0.28164 0.0
C1791 C 0.66654 0.06177 0.29118 0.0
C1792 C 0.6763 0.06872 0.31119 0.0
C1793 C 0.68568 0.05941 0.32071 0.0
C1794 C 0.68435 0.04277 0.31098 0.0
H1795 H 0.64034 0.98455 0.32532 0.0
H1796 H 0.66499 0.00392 0.32934 0.0
H1797 H 0.64649 0.00958 0.32155 0.0
H1798 H 0.65646 0.03938 0.26687 0.0
H1799 H 0.65902 0.0685 0.28355 0.0
H1800 H 0.60333 0.67367 0.30702 0.0
H1801 H 0.62821 0.67076 0.28623 0.0
H1802 H 0.58581 0.61146 0.26941 0.0
H1803 H 0.56102 0.61394 0.29064 0.0
H1804 H 0.63973 0.64065 0.29281 0.0
H1805 H 0.61087 0.64035 0.21 0.0
H1806 H 0.60499 0.65005 0.23374 0.0
H1807 H 0.59279 0.62415 0.22918 0.0
C1808 C 0.59932 0.65996 0.29903 0.0
C1809 C 0.58014 0.64405 0.30043 0.0
C1810 C 0.61352 0.65839 0.28708 0.0
C1811 C 0.60872 0.641 0.27615 0.0
C1812 C 0.58966 0.62512 0.27749 0.0
H1813 H 0.65512 0.5752 0.22972 0.0
H1814 H 0.64569 0.59441 0.25219 0.0
C1815 C 0.57549 0.6266 0.28954 0.0
C1816 C 0.62362 0.63903 0.26373 0.0
H1817 H 0.63288 0.628 0.2129 0.0
C1818 C 0.63853 0.63826 0.27527 0.0
C1819 C 0.62217 0.63629 0.24085 0.0
C1820 C 0.60696 0.63792 0.22763 0.0
C1821 C 0.65121 0.63337 0.26463 0.0
C1822 C 0.64872 0.62904 0.24203 0.0
C1823 C 0.63473 0.63126 0.23026 0.0
C1824 C 0.65837 0.61958 0.23081 0.0
C1825 C 0.66673 0.63224 0.27779 0.0
C1826 C 0.66898 0.6275 0.21148 0.0
C1827 C 0.67456 0.61653 0.19856 0.0
C1828 C 0.66934 0.59736 0.20462 0.0
C1829 C 0.65973 0.59 0.22468 0.0
C1830 C 0.65429 0.601 0.23761 0.0
H1831 H 0.67113 0.64209 0.29222 0.0
H1832 H 0.66084 0.61711 0.28388 0.0
H1833 H 0.67984 0.63613 0.2677 0.0
H1834 H 0.67218 0.6418 0.20593 0.0
H1835 H 0.6822 0.62275 0.18337 0.0
H1836 H 0.93136 0.57473 0.27673 0.0
H1837 H 0.95964 0.5968 0.25504 0.0
H1838 H 0.9778 0.6407 0.30539 0.0
H1839 H 0.94925 0.61857 0.32738 0.0
H1840 H 0.97627 0.63561 0.23878 0.0
H1841 H 0.02159 0.62693 0.30289 0.0
H1842 H 0.99539 0.61183 0.30248 0.0
H1843 H 0.00647 0.63686 0.31099 0.0
C1844 C 0.941 0.58927 0.28298 0.0
C1845 C 0.9382 0.59484 0.30388 0.0
C1846 C 0.95719 0.60187 0.27055 0.0
C1847 C 0.97088 0.62024 0.27877 0.0
C1848 C 0.96748 0.62645 0.29894 0.0
H1849 H 0.07704 0.67644 0.19615 0.0
H1850 H 0.05125 0.67516 0.21961 0.0
C1851 C 0.95125 0.61378 0.31148 0.0
C1852 C 0.98969 0.63137 0.26728 0.0
H1853 H 0.03612 0.63918 0.26902 0.0
C1854 C 0.98957 0.63699 0.24553 0.0
C1855 C 0.00692 0.63296 0.27621 0.0
C1856 C 0.00774 0.62677 0.29937 0.0
C1857 C 0.00584 0.6428 0.23195 0.0
C1858 C 0.02251 0.64303 0.24051 0.0
C1859 C 0.02319 0.63893 0.26267 0.0
C1860 C 0.03797 0.64424 0.22611 0.0
C1861 C 0.00462 0.64712 0.20816 0.0
C1862 C 0.03889 0.62727 0.22216 0.0
C1863 C 0.05343 0.6279 0.2088 0.0
C1864 C 0.06737 0.64557 0.19923 0.0
C1865 C 0.06636 0.66258 0.20315 0.0
C1866 C 0.05173 0.66192 0.21656 0.0
H1867 H 0.99033 0.64573 0.20394 0.0
H1868 H 0.01634 0.66218 0.20429 0.0
H1869 H 0.00692 0.63696 0.1977 0.0
H1870 H 0.02826 0.61348 0.22938 0.0
H1871 H 0.05361 0.6145 0.20578 0.0
H1872 H 0.5883 0.93852 0.76121 0.0
H1873 H 0.61329 0.96772 0.74377 0.0
H1874 H 0.65752 0.96501 0.78216 0.0
H1875 H 0.63252 0.93473 0.79914 0.0
H1876 H 0.65496 0.99945 0.78778 0.0
H1877 H 0.65863 0.98492 0.70015 0.0
H1878 H 0.63385 0.9732 0.70955 0.0
H1879 H 0.65035 0.966 0.72075 0.0
C1880 C 0.60333 0.94337 0.76535 0.0
C1881 C 0.6082 0.93417 0.78189 0.0
C1882 C 0.61769 0.96025 0.7553 0.0
C1883 C 0.63725 0.96846 0.76159 0.0
C1884 C 0.64247 0.95881 0.77705 0.0
H1885 H 0.69159 0.08247 0.69784 0.0
H1886 H 0.69288 0.05514 0.7149 0.0
C1887 C 0.62809 0.94162 0.7869 0.0
C1888 C 0.65109 0.98866 0.7547 0.0
H1889 H 0.66273 0.017 0.7091 0.0
C1890 C 0.65736 0.00339 0.7706 0.0
C1891 C 0.65448 0.99379 0.73236 0.0
C1892 C 0.64914 0.9786 0.71475 0.0
C1893 C 0.66472 0.02293 0.76456 0.0
C1894 C 0.66566 0.02767 0.74216 0.0
C1895 C 0.66169 0.0133 0.72632 0.0
C1896 C 0.66723 0.04619 0.73483 0.0
C1897 C 0.67018 0.03811 0.7822 0.0
C1898 C 0.65251 0.05032 0.74064 0.0
C1899 C 0.65153 0.06568 0.73071 0.0
C1900 C 0.66524 0.07718 0.71473 0.0
C1901 C 0.68061 0.07367 0.70984 0.0
C1902 C 0.68149 0.05819 0.71968 0.0
H1903 H 0.67535 0.03407 0.79714 0.0
H1904 H 0.68174 0.05271 0.77654 0.0
H1905 H 0.65713 0.03909 0.78675 0.0
H1906 H 0.64106 0.04093 0.7519 0.0
H1907 H 0.63934 0.06774 0.73463 0.0
H1908 H 0.69504 0.63051 0.81108 0.0
H1909 H 0.68333 0.65197 0.79775 0.0
H1910 H 0.64243 0.60611 0.75552 0.0
H1911 H 0.65265 0.58417 0.7697 0.0
H1912 H 0.67712 0.66564 0.7569 0.0
H1913 H 0.60795 0.61539 0.79851 0.0
H1914 H 0.63011 0.61468 0.80301 0.0
H1915 H 0.61485 0.60248 0.77975 0.0
C1916 C 0.68358 0.62493 0.79891 0.0
C1917 C 0.67443 0.60525 0.7921 0.0
C1918 C 0.67708 0.63735 0.79115 0.0
C1919 C 0.6616 0.63035 0.77623 0.0
C1920 C 0.6541 0.61159 0.76748 0.0
H1921 H 0.60845 0.66885 0.68901 0.0
H1922 H 0.63263 0.66655 0.711 0.0
C1923 C 0.66025 0.59909 0.77547 0.0
C1924 C 0.65165 0.6415 0.7713 0.0
H1925 H 0.60599 0.63539 0.77012 0.0
C1926 C 0.66165 0.65931 0.7601 0.0
C1927 C 0.63168 0.63367 0.77638 0.0
C1928 C 0.62059 0.61562 0.79031 0.0
C1929 C 0.65168 0.66857 0.75208 0.0
C1930 C 0.63116 0.65935 0.75475 0.0
C1931 C 0.62164 0.64246 0.76768 0.0
C1932 C 0.61877 0.66506 0.74208 0.0
C1933 C 0.66325 0.68793 0.74063 0.0
C1934 C 0.60272 0.66502 0.75202 0.0
C1935 C 0.58815 0.6652 0.73927 0.0
C1936 C 0.58951 0.66578 0.7163 0.0
C1937 C 0.60651 0.6677 0.70658 0.0
C1938 C 0.62075 0.66695 0.71927 0.0
H1939 H 0.67776 0.69677 0.74846 0.0
H1940 H 0.66584 0.68539 0.72341 0.0
H1941 H 0.65558 0.69645 0.74081 0.0
H1942 H 0.60082 0.6636 0.7696 0.0
H1943 H 0.57533 0.66369 0.74742 0.0
H1944 H 0.09058 0.67244 0.78951 0.0
H1945 H 0.06184 0.66853 0.76984 0.0
H1946 H 0.04721 0.61017 0.75129 0.0
H1947 H 0.07522 0.61356 0.77153 0.0
H1948 H 0.04796 0.65771 0.72534 0.0
H1949 H 0.99974 0.60376 0.78677 0.0
H1950 H 0.0255 0.61988 0.79136 0.0
H1951 H 0.01714 0.59782 0.77574 0.0
C1952 C 0.08125 0.6588 0.78117 0.0
C1953 C 0.08505 0.64322 0.78229 0.0
C1954 C 0.06497 0.65667 0.76985 0.0
C1955 C 0.05233 0.63896 0.75953 0.0
C1956 C 0.05672 0.62385 0.75948 0.0
H1957 H 0.96715 0.59115 0.66418 0.0
H1958 H 0.99676 0.61309 0.68435 0.0
C1959 C 0.07287 0.6259 0.77086 0.0
C1960 C 0.0338 0.63548 0.74994 0.0
H1961 H 0.98522 0.60285 0.75201 0.0
C1962 C 0.03414 0.64599 0.73132 0.0
C1963 C 0.01581 0.62068 0.75829 0.0
C1964 C 0.01446 0.61004 0.77929 0.0
C1965 C 0.01693 0.64086 0.71971 0.0
C1966 C 0.99921 0.62456 0.72673 0.0
C1967 C 0.99878 0.61522 0.74641 0.0
C1968 C 0.98154 0.61517 0.71283 0.0
C1969 C 0.01803 0.65269 0.69988 0.0
C1970 C 0.96309 0.60899 0.72204 0.0
C1971 C 0.94621 0.59591 0.7108 0.0
C1972 C 0.94757 0.58918 0.69003 0.0
C1973 C 0.96587 0.59638 0.68014 0.0
C1974 C 0.98276 0.6091 0.69157 0.0
H1975 H 0.02935 0.66826 0.70211 0.0
H1976 H 0.0223 0.64717 0.68544 0.0
H1977 H 1.00384 0.65181 0.69644 0.0
H1978 H 0.9618 0.61341 0.73845 0.0
H1979 H 0.93215 0.59051 0.7186 0.0
H1980 H 0.39226 0.05902 0.80984 0.0
H1981 H 0.37185 0.03219 0.78543 0.0
H1982 H 0.39243 0.07144 0.73031 0.0
H1983 H 0.41314 0.09859 0.75478 0.0
H1984 H 0.3433 0.02219 0.75241 0.0
H1985 H 0.41471 0.03506 0.72027 0.0
H1986 H 0.41298 0.04727 0.74432 0.0
H1987 H 0.41003 0.05496 0.71763 0.0
C1988 C 0.39196 0.06217 0.79265 0.0
C1989 C 0.40457 0.08089 0.78419 0.0
C1990 C 0.38027 0.04676 0.77869 0.0
C1991 C 0.38096 0.04978 0.75605 0.0
C1992 C 0.392 0.0688 0.74774 0.0
H1993 H 0.32788 0.94931 0.66594 0.0
H1994 H 0.33406 0.97947 0.68423 0.0
C1995 C 0.40384 0.08425 0.76171 0.0
C1996 C 0.37273 0.03262 0.74139 0.0
H1997 H 0.38674 0.00686 0.70868 0.0
C1998 C 0.35268 0.01895 0.74248 0.0
C1999 C 0.38514 0.02836 0.72877 0.0
C2000 C 0.40693 0.04206 0.72771 0.0
C2001 C 0.34484 1.00083 0.7318 0.0
C2002 C 0.3574 0.99645 0.71981 0.0
C2003 C 0.37723 0.0104 0.71796 0.0
C2004 C 0.35089 0.97692 0.71055 0.0
C2005 C 0.32347 0.98608 0.73426 0.0
C2006 C 0.35807 0.96546 0.71955 0.0
C2007 C 0.35477 0.94841 0.7091 0.0
C2008 C 0.34427 0.94255 0.68937 0.0
C2009 C 0.33623 0.95357 0.68098 0.0
C2010 C 0.33957 0.97069 0.69148 0.0
H2011 H 0.31594 0.99122 0.7455 0.0
H2012 H 0.31628 0.9831 0.71801 0.0
H2013 H 0.32166 0.9721 0.74056 0.0
H2014 H 0.36695 0.97016 0.73421 0.0
H2015 H 0.3614 0.94046 0.71587 0.0
H2016 H 0.33314 0.38179 0.80891 0.0
H2017 H 0.33808 0.3592 0.78664 0.0
H2018 H 0.31892 0.37688 0.72943 0.0
H2019 H 0.31462 0.40028 0.75172 0.0
H2020 H 0.31976 0.32907 0.75844 0.0
H2021 H 0.37502 0.39597 0.71482 0.0
H2022 H 0.36231 0.39724 0.7386 0.0
H2023 H 0.3502 0.3905 0.7125 0.0
C2024 C 0.32937 0.38048 0.79171 0.0
C2025 C 0.32376 0.393 0.78197 0.0
C2026 C 0.33221 0.36751 0.77897 0.0
C2027 C 0.32936 0.36671 0.75627 0.0
C2028 C 0.32172 0.37767 0.74684 0.0
H2029 H 0.37714 0.3038 0.68169 0.0
H2030 H 0.35212 0.31004 0.69682 0.0
C2031 C 0.31922 0.39097 0.75956 0.0
C2032 C 0.33739 0.35686 0.74266 0.0
H2033 H 0.37539 0.36726 0.70839 0.0
C2034 C 0.33168 0.33727 0.74714 0.0
C2035 C 0.35309 0.36768 0.72807 0.0
C2036 C 0.36067 0.38903 0.72327 0.0
C2037 C 0.34201 0.32862 0.73847 0.0
C2038 C 0.35818 0.33979 0.72476 0.0
C2039 C 0.36299 0.35884 0.71904 0.0
C2040 C 0.372 0.33327 0.71824 0.0
C2041 C 0.33642 0.30812 0.74508 0.0
C2042 C 0.39128 0.34392 0.72569 0.0
C2043 C 0.40565 0.34079 0.71677 0.0
C2044 C 0.40106 0.32677 0.70022 0.0
C2045 C 0.38135 0.31501 0.69403 0.0
C2046 C 0.36694 0.31836 0.70284 0.0
H2047 H 0.32466 0.30209 0.75758 0.0
H2048 H 0.33129 0.29849 0.73049 0.0
H2049 H 0.34933 0.3078 0.75169 0.0
H2050 H 0.39545 0.3555 0.7376 0.0
H2051 H 0.42057 0.35041 0.72185 0.0
H2052 H 0.08312 0.43071 0.73132 0.0
H2053 H 0.05723 0.40935 0.75606 0.0
H2054 H 0.04128 0.36071 0.71255 0.0
H2055 H 0.06752 0.38215 0.68754 0.0
H2056 H 0.01166 0.36718 0.71989 0.0
H2057 H 0.0436 0.36627 0.79957 0.0
H2058 H 0.05445 0.39086 0.7898 0.0
H2059 H 0.05773 0.37317 0.7746 0.0
C2060 C 0.07465 0.41533 0.72735 0.0
C2061 C 0.07729 0.40816 0.70737 0.0
C2062 C 0.05987 0.40307 0.74162 0.0
C2063 C 0.04749 0.38337 0.73632 0.0
C2064 C 0.05079 0.37585 0.71702 0.0
H2065 H 0.93751 0.32878 0.8123 0.0
H2066 H 0.96521 0.32971 0.7931 0.0
C2067 C 0.06565 0.38814 0.70267 0.0
C2068 C 0.02919 0.37207 0.74877 0.0
H2069 H 0.01181 0.36514 0.801 0.0
C2070 C 0.01159 0.36603 0.73758 0.0
C2071 C 0.02906 0.37047 0.77182 0.0
C2072 C 0.04725 0.37536 0.78457 0.0
C2073 C 0.99426 0.36042 0.749 0.0
C2074 C 0.99466 0.36093 0.77204 0.0
C2075 C 0.01173 0.36506 0.78325 0.0
C2076 C 0.9784 0.36019 0.78442 0.0
C2077 C 0.97594 0.35544 0.73646 0.0
C2078 C 0.97696 0.37709 0.78589 0.0
C2079 C 0.96135 0.37669 0.79688 0.0
C2080 C 0.94689 0.35931 0.80652 0.0
C2081 C 0.94853 0.34242 0.80518 0.0
C2082 C 0.96424 0.34287 0.79422 0.0
H2083 H 0.9771 0.35237 0.71895 0.0
H2084 H 0.96317 0.34255 0.74381 0.0
H2085 H 0.97325 0.36792 0.73738 0.0
H2086 H 0.98791 0.3906 0.77843 0.0
H2087 H 0.9607 0.39002 0.79798 0.0
H2088 H 0.52829 0.14479 0.1764 0.0
H2089 H 0.55801 0.15126 0.19614 0.0
H2090 H 0.52275 0.10996 0.24591 0.0
H2091 H 0.49324 0.10314 0.22622 0.0
H2092 H 0.57209 0.16296 0.24017 0.0
H2093 H 0.55619 0.08803 0.22095 0.0
H2094 H 0.54398 0.09922 0.20744 0.0
H2095 H 0.53601 0.08827 0.23401 0.0
C2096 C 0.52694 0.13731 0.1917 0.0
C2097 C 0.50852 0.12321 0.19962 0.0
C2098 C 0.54388 0.14102 0.20293 0.0
C2099 C 0.54249 0.13076 0.22218 0.0
C2100 C 0.52408 0.11769 0.2308 0.0
H2101 H 0.61739 0.13993 0.32702 0.0
H2102 H 0.59789 0.14629 0.30073 0.0
C2103 C 0.50725 0.11382 0.21954 0.0
C2104 C 0.56005 0.13246 0.23273 0.0
H2105 H 0.57893 0.10442 0.24986 0.0
C2106 C 0.57385 0.1503 0.24206 0.0
C2107 C 0.56252 0.11603 0.23464 0.0
C2108 C 0.549 0.09687 0.22352 0.0
C2109 C 0.58955 0.15181 0.25438 0.0
C2110 C 0.59107 0.13492 0.2578 0.0
C2111 C 0.57776 0.11738 0.24745 0.0
C2112 C 0.6055 0.13445 0.27288 0.0
C2113 C 0.60424 0.17145 0.26356 0.0
C2114 C 0.61625 0.12566 0.26608 0.0
C2115 C 0.62673 0.12138 0.28121 0.0
C2116 C 0.62703 0.12622 0.30332 0.0
C2117 C 0.61743 0.1362 0.30997 0.0
C2118 C 0.60646 0.14001 0.2949 0.0
H2119 H 0.60539 0.18348 0.25314 0.0
H2120 H 0.59941 0.17317 0.28004 0.0
H2121 H 0.61892 0.17297 0.26503 0.0
H2122 H 0.61578 0.12125 0.2492 0.0
H2123 H 0.63422 0.11383 0.27573 0.0
H2124 H 0.46339 0.62634 0.32796 0.0
H2125 H 0.43705 0.60165 0.30537 0.0
H2126 H 0.47383 0.62375 0.24829 0.0
H2127 H 0.49976 0.64892 0.27045 0.0
H2128 H 0.43611 0.61003 0.23777 0.0
H2129 H 0.44368 0.55609 0.2891 0.0
H2130 H 0.43599 0.57078 0.30364 0.0
H2131 H 0.45996 0.58198 0.29167 0.0
C2132 C 0.46565 0.62622 0.3105 0.0
C2133 C 0.48376 0.6393 0.30104 0.0
C2134 C 0.45064 0.61206 0.29764 0.0
C2135 C 0.45373 0.61048 0.2753 0.0
C2136 C 0.47118 0.6246 0.26554 0.0
H2137 H 0.4202 0.51044 0.19789 0.0
H2138 H 0.43519 0.54006 0.22003 0.0
C2139 C 0.48603 0.63897 0.27827 0.0
C2140 C 0.4401 0.59299 0.26254 0.0
H2141 H 0.42252 0.54394 0.25924 0.0
C2142 C 0.43293 0.59552 0.24252 0.0
C2143 C 0.43623 0.57413 0.2687 0.0
C2144 C 0.44448 0.57052 0.28933 0.0
C2145 C 0.42259 0.5798 0.22811 0.0
C2146 C 0.41896 0.56103 0.23421 0.0
C2147 C 0.42537 0.55838 0.25464 0.0
C2148 C 0.4101 0.54414 0.2191 0.0
C2149 C 0.41658 0.58361 0.20608 0.0
C2150 C 0.39113 0.53679 0.2109 0.0
C2151 C 0.38263 0.51997 0.19791 0.0
C2152 C 0.39287 0.5101 0.19337 0.0
C2153 C 0.41194 0.51768 0.20128 0.0
C2154 C 0.4205 0.53459 0.21393 0.0
H2155 H 0.42429 0.59942 0.20203 0.0
H2156 H 0.41953 0.57573 0.19295 0.0
H2157 H 0.40068 0.5783 0.20622 0.0
H2158 H 0.3827 0.54369 0.21505 0.0
H2159 H 0.36783 0.5143 0.19215 0.0
H2160 H 0.84175 0.47514 0.33277 0.0
H2161 H 0.8221 0.44605 0.31033 0.0
H2162 H 0.86675 0.46861 0.26068 0.0
H2163 H 0.88651 0.4976 0.28285 0.0
H2164 H 0.82263 0.45054 0.24727 0.0
H2165 H 0.8429 0.40558 0.29959 0.0
H2166 H 0.83468 0.42087 0.31201 0.0
H2167 H 0.85799 0.43182 0.29877 0.0
C2168 C 0.84735 0.47394 0.31703 0.0
C2169 C 0.86578 0.48858 0.30966 0.0
C2170 C 0.83607 0.45739 0.30424 0.0
C2171 C 0.84303 0.45535 0.28392 0.0
C2172 C 0.86115 0.47008 0.27631 0.0
H2173 H 0.84056 0.39168 0.17764 0.0
H2174 H 0.83619 0.41398 0.20114 0.0
C2175 C 0.87247 0.48655 0.28908 0.0
C2176 C 0.83238 0.43725 0.27111 0.0
H2177 H 0.82883 0.39283 0.26562 0.0
C2178 C 0.82351 0.43767 0.25143 0.0
C2179 C 0.83337 0.4205 0.27683 0.0
C2180 C 0.84274 0.41948 0.29792 0.0
C2181 C 0.81663 0.42208 0.23658 0.0
C2182 C 0.81928 0.40607 0.24137 0.0
C2183 C 0.82679 0.40509 0.26187 0.0
C2184 C 0.81752 0.39184 0.22449 0.0
C2185 C 0.80713 0.42323 0.21569 0.0
C2186 C 0.80816 0.37184 0.22942 0.0
C2187 C 0.81127 0.35916 0.21638 0.0
C2188 C 0.8238 0.36631 0.19819 0.0
C2189 C 0.83136 0.38587 0.19195 0.0
C2190 C 0.82852 0.39859 0.20517 0.0
H2191 H 0.79875 0.43086 0.21851 0.0
H2192 H 0.8186 0.43185 0.20344 0.0
H2193 H 0.79716 0.40853 0.20883 0.0
H2194 H 0.79957 0.36629 0.24421 0.0
H2195 H 0.80493 0.34408 0.22145 0.0
H2196 H 0.39416 0.86468 0.31556 0.0
H2197 H 0.41617 0.86223 0.28958 0.0
H2198 H 0.37301 0.84578 0.23866 0.0
H2199 H 0.35097 0.84872 0.26451 0.0
H2200 H 0.41538 0.8343 0.26148 0.0
H2201 H 0.41829 0.89679 0.21606 0.0
H2202 H 0.40672 0.88914 0.24242 0.0
H2203 H 0.3947 0.87526 0.21836 0.0
C2204 C 0.38918 0.86023 0.29894 0.0
C2205 C 0.371 0.8573 0.29194 0.0
C2206 C 0.40177 0.85877 0.28412 0.0
C2207 C 0.39635 0.85422 0.26212 0.0
C2208 C 0.3776 0.84973 0.25548 0.0
H2209 H 0.48846 0.85973 0.17506 0.0
H2210 H 0.45613 0.84648 0.19185 0.0
C2211 C 0.36504 0.85139 0.27026 0.0
C2212 C 0.41125 0.85641 0.24603 0.0
H2213 H 0.44021 0.88671 0.20553 0.0
C2214 C 0.42063 0.84549 0.24894 0.0
C2215 C 0.41808 0.87117 0.22984 0.0
C2216 C 0.40908 0.88389 0.22649 0.0
C2217 C 0.43734 0.84964 0.23685 0.0
C2218 C 0.44456 0.86488 0.22129 0.0
C2219 C 0.43452 0.87501 0.21749 0.0
C2220 C 0.46384 0.87239 0.21091 0.0
C2221 C 0.44785 0.83858 0.24175 0.0
C2222 C 0.47868 0.89139 0.21588 0.0
C2223 C 0.497 0.89902 0.20628 0.0
C2224 C 0.50085 0.88778 0.19149 0.0
C2225 C 0.48594 0.86871 0.18646 0.0
C2226 C 0.46752 0.86109 0.19609 0.0
H2227 H 0.44181 0.82907 0.25637 0.0
H2228 H 0.44647 0.82924 0.22754 0.0
H2229 H 0.46362 0.84887 0.24447 0.0
H2230 H 0.47609 0.90033 0.2273 0.0
H2231 H 0.50813 0.91375 0.21047 0.0
H2232 H 0.62004 0.47502 0.16984 0.0
H2233 H 0.5962 0.4465 0.19086 0.0
H2234 H 0.60055 0.48429 0.24407 0.0
H2235 H 0.62386 0.5127 0.22309 0.0
H2236 H 0.59464 0.43077 0.23416 0.0
H2237 H 0.54327 0.45851 0.22363 0.0
H2238 H 0.56557 0.46787 0.20813 0.0
H2239 H 0.56602 0.47622 0.23563 0.0
C2240 C 0.61616 0.47714 0.18619 0.0
C2241 C 0.62346 0.49603 0.19474 0.0
C2242 C 0.60258 0.46088 0.19815 0.0
C2243 C 0.59637 0.46342 0.21877 0.0
C2244 C 0.6049 0.48213 0.22798 0.0
H2245 H 0.52739 0.38825 0.32296 0.0
H2246 H 0.55351 0.40717 0.29676 0.0
C2247 C 0.61819 0.49832 0.21599 0.0
C2248 C 0.5797 0.44701 0.22996 0.0
H2249 H 0.53476 0.43371 0.25043 0.0
C2250 C 0.58141 0.4312 0.23754 0.0
C2251 C 0.56231 0.44743 0.23382 0.0
C2252 C 0.55905 0.46331 0.22468 0.0
C2253 C 0.56642 0.41617 0.24987 0.0
C2254 C 0.5496 0.41736 0.25506 0.0
C2255 C 0.54767 0.43281 0.24662 0.0
C2256 C 0.53405 0.4034 0.26991 0.0
C2257 C 0.56875 0.39923 0.25709 0.0
C2258 C 0.51441 0.39506 0.26365 0.0
C2259 C 0.49954 0.38484 0.27878 0.0
C2260 C 0.50402 0.38247 0.30036 0.0
C2261 C 0.52358 0.38981 0.30636 0.0
C2262 C 0.53851 0.40045 0.29132 0.0
H2263 H 0.57834 0.39691 0.24569 0.0
H2264 H 0.5757 0.40244 0.27348 0.0
H2265 H 0.55445 0.38553 0.25812 0.0
H2266 H 0.51059 0.39714 0.24724 0.0
H2267 H 0.48454 0.37913 0.27371 0.0
H2268 H 0.16408 0.65453 0.22367 0.0
H2269 H 0.17226 0.63397 0.2459 0.0
H2270 H 0.16176 0.59614 0.19054 0.0
H2271 H 0.15376 0.61669 0.16811 0.0
H2272 H 0.14409 0.5954 0.25281 0.0
H2273 H 0.21096 0.60007 0.21784 0.0
H2274 H 0.204 0.61826 0.21265 0.0
H2275 H 0.19247 0.59553 0.19793 0.0
C2276 C 0.16389 0.64206 0.2161 0.0
C2277 C 0.15804 0.63708 0.19423 0.0
C2278 C 0.16866 0.6304 0.22879 0.0
C2279 C 0.16778 0.61367 0.21979 0.0
C2280 C 0.16293 0.60922 0.19766 0.0
H2281 H 0.15219 0.5051 0.26711 0.0
H2282 H 0.15965 0.53398 0.24532 0.0
C2283 C 0.15819 0.6209 0.18493 0.0
C2284 C 0.16891 0.59933 0.23423 0.0
H2285 H 0.19198 0.57311 0.24183 0.0
C2286 C 0.15476 0.59074 0.25066 0.0
C2287 C 0.18269 0.59316 0.23111 0.0
C2288 C 0.19851 0.60235 0.21405 0.0
C2289 C 0.15358 0.57566 0.26367 0.0
C2290 C 0.16725 0.56934 0.26047 0.0
C2291 C 0.18162 0.5781 0.24425 0.0
C2292 C 0.16607 0.553 0.2733 0.0
C2293 C 0.1372 0.56609 0.28012 0.0
C2294 C 0.16798 0.55444 0.29612 0.0
C2295 C 0.16349 0.53797 0.30858 0.0
C2296 C 0.15728 0.51988 0.29837 0.0
C2297 C 0.1568 0.51882 0.27541 0.0
C2298 C 0.16112 0.53529 0.26295 0.0
H2299 H 0.12545 0.56957 0.27694 0.0
H2300 H 0.13069 0.54998 0.27993 0.0
H2301 H 0.14303 0.57141 0.29676 0.0
H2302 H 0.17214 0.56811 0.30432 0.0
H2303 H 0.16431 0.53929 0.32624 0.0
H2304 H 0.48505 0.85891 0.81506 0.0
H2305 H 0.45605 0.84665 0.79162 0.0
H2306 H 0.4836 0.90062 0.75534 0.0
H2307 H 0.51238 0.91294 0.77845 0.0
H2308 H 0.43272 0.86459 0.7856 0.0
H2309 H 0.46404 0.85813 0.70741 0.0
H2310 H 0.47496 0.85881 0.73362 0.0
H2311 H 0.4795 0.8811 0.72055 0.0
C2312 C 0.48493 0.8681 0.802 0.0
C2313 C 0.501 0.8869 0.7986 0.0
C2314 C 0.46841 0.86105 0.78863 0.0
C2315 C 0.4679 0.87259 0.77152 0.0
C2316 C 0.48391 0.89131 0.76814 0.0
H2317 H 0.39886 0.90627 0.71097 0.0
H2318 H 0.41595 0.89579 0.7356 0.0
C2319 C 0.5003 0.8984 0.78151 0.0
C2320 C 0.45028 0.86605 0.75795 0.0
H2321 H 0.43709 0.86455 0.70463 0.0
C2322 C 0.43339 0.86398 0.76791 0.0
C2323 C 0.45104 0.86484 0.73494 0.0
C2324 C 0.4683 0.86562 0.72352 0.0
C2325 C 0.41806 0.8628 0.75528 0.0
C2326 C 0.41989 0.86399 0.73225 0.0
C2327 C 0.43583 0.86393 0.72232 0.0
C2328 C 0.40744 0.86872 0.71852 0.0
C2329 C 0.40051 0.86137 0.76673 0.0
C2330 C 0.39718 0.85708 0.70053 0.0
C2331 C 0.38739 0.86311 0.68625 0.0
C2332 C 0.38807 0.88104 0.68961 0.0
C2333 C 0.3981 0.89243 0.70786 0.0
C2334 C 0.4077 0.88634 0.72213 0.0
H2335 H 0.39787 0.85361 0.78261 0.0
H2336 H 0.40321 0.87629 0.7702 0.0
H2337 H 0.38719 0.85366 0.75647 0.0
H2338 H 0.39704 0.84354 0.69734 0.0
H2339 H 0.37976 0.85402 0.67231 0.0
H2340 H 0.49427 0.4022 0.71043 0.0
H2341 H 0.52252 0.42089 0.73384 0.0
H2342 H 0.55314 0.39582 0.7012 0.0
H2343 H 0.52479 0.37698 0.67739 0.0
H2344 H 0.54261 0.40737 0.7623 0.0
H2345 H 0.58897 0.45625 0.69506 0.0
H2346 H 0.56283 0.44138 0.69234 0.0
H2347 H 0.57777 0.43026 0.69136 0.0
C2348 C 0.50695 0.40056 0.7082 0.0
C2349 C 0.50734 0.38822 0.69193 0.0
C2350 C 0.52305 0.41119 0.72168 0.0
C2351 C 0.53989 0.40978 0.71914 0.0
C2352 C 0.54029 0.3972 0.70324 0.0
H2353 H 0.63187 0.48305 0.81497 0.0
H2354 H 0.61282 0.45469 0.79117 0.0
C2355 C 0.5241 0.38647 0.68971 0.0
C2356 C 0.55712 0.42232 0.73272 0.0
H2357 H 0.60026 0.46534 0.73093 0.0
C2358 C 0.55549 0.4198 0.75549 0.0
C2359 C 0.5738 0.43849 0.72365 0.0
C2360 C 0.57607 0.44194 0.69928 0.0
C2361 C 0.56953 0.43376 0.76956 0.0
C2362 C 0.58561 0.45052 0.7605 0.0
C2363 C 0.58791 0.45238 0.73772 0.0
C2364 C 0.59817 0.46769 0.77416 0.0
C2365 C 0.56635 0.43128 0.79395 0.0
C2366 C 0.59638 0.48437 0.77215 0.0
C2367 C 0.60711 0.50044 0.78562 0.0
C2368 C 0.61993 0.50021 0.80135 0.0
C2369 C 0.62203 0.48362 0.80307 0.0
C2370 C 0.61118 0.46743 0.78954 0.0
H2371 H 0.55225 0.41815 0.79825 0.0
H2372 H 0.57831 0.42987 0.80158 0.0
H2373 H 0.56667 0.44433 0.80113 0.0
H2374 H 0.58635 0.48479 0.76039 0.0
H2375 H 0.60517 0.51299 0.78379 0.0
H2376 H 0.16602 0.52506 0.66664 0.0
H2377 H 0.18335 0.55679 0.68517 0.0
H2378 H 0.13389 0.53956 0.72765 0.0
H2379 H 0.11644 0.50803 0.7093 0.0
H2380 H 0.14936 0.57699 0.70322 0.0
H2381 H 0.20493 0.56879 0.7508 0.0
H2382 H 0.20091 0.56198 0.7223 0.0
H2383 H 0.18246 0.54773 0.74201 0.0
C2384 C 0.15889 0.52801 0.68002 0.0
C2385 C 0.13981 0.51409 0.68646 0.0
C2386 C 0.16885 0.54607 0.6906 0.0
C2387 C 0.15986 0.55036 0.70775 0.0
C2388 C 0.14101 0.53641 0.71441 0.0
H2389 H 0.16726 0.6141 0.81444 0.0
H2390 H 0.17222 0.59438 0.78748 0.0
C2391 C 0.13107 0.51842 0.7039 0.0
C2392 C 0.16936 0.56967 0.71832 0.0
H2393 H 0.20077 0.59546 0.75955 0.0
C2394 C 0.16096 0.58139 0.71516 0.0
C2395 C 0.18447 0.57516 0.73377 0.0
C2396 C 0.1938 0.56283 0.73759 0.0
C2397 C 0.16614 0.59773 0.72833 0.0
C2398 C 0.18048 0.60265 0.74476 0.0
C2399 C 0.18992 0.5917 0.74682 0.0
C2400 C 0.18295 0.61657 0.76228 0.0
C2401 C 0.15497 0.6085 0.72577 0.0
C2402 C 0.18849 0.63599 0.75746 0.0
C2403 C 0.18533 0.64723 0.77278 0.0
C2404 C 0.17689 0.63923 0.79317 0.0
C2405 C 0.17355 0.6206 0.7988 0.0
C2406 C 0.17648 0.60932 0.78342 0.0
H2407 H 0.14242 0.60095 0.71438 0.0
H2408 H 0.14936 0.61009 0.74183 0.0
H2409 H 0.16483 0.62332 0.71918 0.0
H2410 H 0.19391 0.64197 0.74137 0.0
H2411 H 0.18842 0.66173 0.76817 0.0
H2412 H 0.52638 0.15676 0.82448 0.0
H2413 H 0.55821 0.17097 0.80639 0.0
H2414 H 0.53886 0.11743 0.77052 0.0
H2415 H 0.50726 0.10301 0.78871 0.0
H2416 H 0.57495 0.13149 0.79076 0.0
H2417 H 0.57158 0.18938 0.74241 0.0
H2418 H 0.56747 0.18904 0.77138 0.0
H2419 H 0.55021 0.16928 0.75465 0.0
C2420 C 0.5289 0.14804 0.81268 0.0
C2421 C 0.51431 0.12875 0.80801 0.0
C2422 C 0.54704 0.15624 0.80228 0.0
C2423 C 0.55077 0.14531 0.78698 0.0
C2424 C 0.53622 0.1261 0.78227 0.0
H2425 H 0.62293 0.15764 0.68256 0.0
H2426 H 0.60048 0.16004 0.7079 0.0
C2427 C 0.51816 0.11789 0.79268 0.0
C2428 C 0.56998 0.15336 0.7762 0.0
H2429 H 0.59921 0.18597 0.73744 0.0
C2430 C 0.58045 0.14359 0.77933 0.0
C2431 C 0.57698 0.16913 0.76132 0.0
C2432 C 0.56598 0.1798 0.75703 0.0
C2433 C 0.59723 0.14843 0.76712 0.0
C2434 C 0.60402 0.16389 0.75179 0.0
C2435 C 0.59406 0.17429 0.74939 0.0
C2436 C 0.61955 0.16731 0.73596 0.0
C2437 C 0.60672 0.13606 0.76972 0.0
C2438 C 0.6382 0.17181 0.74307 0.0
C2439 C 0.65097 0.17008 0.72867 0.0
C2440 C 0.64528 0.16403 0.70696 0.0
C2441 C 0.62755 0.16184 0.69933 0.0
C2442 C 0.61473 0.16335 0.71376 0.0
H2443 H 0.59753 0.12259 0.77932 0.0
H2444 H 0.60969 0.13176 0.75351 0.0
H2445 H 0.62083 0.14459 0.77842 0.0
H2446 H 0.64236 0.17539 0.76005 0.0
H2447 H 0.66471 0.17226 0.73495 0.0
H2448 H 0.41273 0.50278 0.78928 0.0
H2449 H 0.42838 0.53445 0.77103 0.0
H2450 H 0.38383 0.54566 0.79553 0.0
H2451 H 0.36789 0.51382 0.81384 0.0
H2452 H 0.39285 0.55387 0.74965 0.0
H2453 H 0.45877 0.58813 0.80208 0.0
H2454 H 0.4533 0.56474 0.79152 0.0
H2455 H 0.43654 0.5664 0.81007 0.0
C2456 C 0.40622 0.51195 0.79082 0.0
C2457 C 0.38912 0.50583 0.80309 0.0
C2458 C 0.41525 0.53008 0.78048 0.0
C2459 C 0.40739 0.54245 0.78224 0.0
C2460 C 0.39016 0.53633 0.79416 0.0
H2461 H 0.48358 0.65981 0.73136 0.0
H2462 H 0.45841 0.63441 0.7544 0.0
C2463 C 0.38113 0.51818 0.80462 0.0
C2464 C 0.41718 0.56162 0.77121 0.0
H2465 H 0.46125 0.60334 0.7674 0.0
C2466 C 0.40769 0.56488 0.75372 0.0
C2467 C 0.43635 0.57608 0.77687 0.0
C2468 C 0.44679 0.57379 0.79631 0.0
C2469 C 0.41742 0.58175 0.74079 0.0
C2470 C 0.43716 0.59546 0.74538 0.0
C2471 C 0.44616 0.59276 0.76378 0.0
C2472 C 0.44947 0.61153 0.7302 0.0
C2473 C 0.40663 0.5845 0.72207 0.0
C2474 C 0.45243 0.60719 0.70878 0.0
C2475 C 0.46672 0.62164 0.69558 0.0
C2476 C 0.47853 0.64066 0.70369 0.0
C2477 C 0.47476 0.64528 0.72467 0.0
C2478 C 0.46041 0.63079 0.73786 0.0
H2479 H 0.3907 0.57705 0.72536 0.0
H2480 H 0.41201 0.60021 0.71893 0.0
H2481 H 0.40884 0.57797 0.70704 0.0
H2482 H 0.44445 0.59237 0.70265 0.0
H2483 H 0.4691 0.61768 0.67938 0.0
H2484 H 0.85044 0.46867 0.66979 0.0
H2485 H 0.84293 0.4397 0.69115 0.0
H2486 H 0.84781 0.47106 0.75074 0.0
H2487 H 0.85496 0.50005 0.72947 0.0
H2488 H 0.86968 0.44042 0.71956 0.0
H2489 H 0.80012 0.41791 0.76301 0.0
H2490 H 0.80783 0.43393 0.73953 0.0
H2491 H 0.81776 0.44334 0.76615 0.0
C2492 C 0.84954 0.46931 0.68743 0.0
C2493 C 0.8535 0.48669 0.698 0.0
C2494 C 0.84516 0.45272 0.69958 0.0
C2495 C 0.84465 0.45321 0.72248 0.0
C2496 C 0.84771 0.47026 0.73305 0.0
H2497 H 0.8602 0.39106 0.82707 0.0
H2498 H 0.85281 0.41183 0.80413 0.0
C2499 C 0.85197 0.48686 0.72088 0.0
C2500 C 0.84376 0.43695 0.73525 0.0
H2501 H 0.81965 0.40479 0.77658 0.0
C2502 C 0.85856 0.43241 0.73179 0.0
C2503 C 0.82934 0.42671 0.7513 0.0
C2504 C 0.81275 0.43058 0.75512 0.0
C2505 C 0.8597 0.41829 0.74441 0.0
C2506 C 0.84545 0.40822 0.76067 0.0
C2507 C 0.83046 0.41252 0.76398 0.0
C2508 C 0.84675 0.39403 0.77513 0.0
C2509 C 0.8766 0.41479 0.74082 0.0
C2510 C 0.84515 0.37687 0.7665 0.0
C2511 C 0.84951 0.36506 0.77947 0.0
C2512 C 0.85543 0.37022 0.8013 0.0
C2513 C 0.85582 0.38678 0.81026 0.0
C2514 C 0.85152 0.39861 0.79724 0.0
H2515 H 0.88832 0.42647 0.73076 0.0
H2516 H 0.88295 0.41393 0.75668 0.0
H2517 H 0.87132 0.4007 0.73217 0.0
H2518 H 0.84123 0.37303 0.7495 0.0
H2519 H 0.84879 0.35223 0.77221 0.0
H2520 H 0.4655 0.10374 0.07265 0.0
H2521 H 0.4804 0.11124 0.03662 0.0
H2522 H 0.53055 0.16263 0.06234 0.0
H2523 H 0.51551 0.15503 0.09899 0.0
H2524 H 0.51364 0.17017 0.02673 0.0
H2525 H 0.52479 0.10872 0.00644 0.0
H2526 H 0.50112 0.09962 0.01836 0.0
H2527 H 0.52258 0.11496 0.03435 0.0
C2528 C 0.47988 0.11645 0.0708 0.0
C2529 C 0.48931 0.12888 0.08856 0.0
C2530 C 0.4885 0.1206 0.0502 0.0
C2531 C 0.50675 0.1373 0.04682 0.0
C2532 C 0.51658 0.1495 0.06468 0.0
H2533 H 0.51416 0.13912 0.90327 0.0
H2534 H 0.52942 0.14624 0.93976 0.0
C2535 C 0.508 0.14517 0.08554 0.0
C2536 C 0.51365 0.14301 0.02404 0.0
H2537 H 0.51387 0.12145 0.97583 0.0
C2538 C 0.51446 0.1599 0.01564 0.0
C2539 C 0.51521 0.12992 0.00953 0.0
C2540 C 0.5161 0.11241 0.01772 0.0
C2541 C 0.51413 0.16264 0.993 0.0
C2542 C 0.51269 0.148 0.97857 0.0
C2543 C 0.51457 0.1325 0.9869 0.0
C2544 C 0.50516 0.14629 0.95601 0.0
C2545 C 0.51387 0.18048 0.98479 0.0
C2546 C 0.4865 0.14388 0.95313 0.0
C2547 C 0.47776 0.13963 0.93259 0.0
C2548 C 0.48746 0.13768 0.91438 0.0
C2549 C 0.50641 0.14065 0.91703 0.0
C2550 C 0.51513 0.14472 0.9378 0.0
H2551 H 0.52234 0.19312 0.99583 0.0
H2552 H 0.51996 0.18446 0.968 0.0
H2553 H 0.4986 0.1775 0.98453 0.0
H2554 H 0.47832 0.14452 0.967 0.0
H2555 H 0.46317 0.13747 0.93108 0.0
H2556 H 0.38005 0.50518 0.09614 0.0
H2557 H 0.38645 0.51804 0.05849 0.0
H2558 H 0.33635 0.46497 0.03592 0.0
H2559 H 0.33001 0.45215 0.07301 0.0
H2560 H 0.39388 0.49949 0.02292 0.0
H2561 H 0.33001 0.50764 0.00516 0.0
H2562 H 0.33796 0.50706 0.03275 0.0
H2563 H 0.32281 0.48468 0.01813 0.0
C2564 C 0.37025 0.49647 0.08315 0.0
C2565 C 0.35457 0.47765 0.08747 0.0
C2566 C 0.37391 0.50381 0.06171 0.0
C2567 C 0.36166 0.49259 0.04449 0.0
C2568 C 0.34572 0.47407 0.049 0.0
H2569 H 0.36029 0.45111 0.92511 0.0
H2570 H 0.36712 0.4647 0.96184 0.0
C2571 C 0.34223 0.46668 0.07021 0.0
C2572 C 0.36634 0.49878 0.02135 0.0
H2573 H 0.34349 0.49876 0.97405 0.0
C2574 C 0.38321 0.50003 0.01227 0.0
C2575 C 0.35263 0.49985 0.00745 0.0
C2576 C 0.33494 0.49995 0.01643 0.0
C2577 C 0.38555 0.50003 0.9895 0.0
C2578 C 0.37057 0.49854 0.97562 0.0
C2579 C 0.35486 0.49962 0.98469 0.0
C2580 C 0.36895 0.49197 0.95263 0.0
C2581 C 0.40343 0.5003 0.98053 0.0
C2582 C 0.36758 0.50276 0.93514 0.0
C2583 C 0.3637 0.49498 0.91389 0.0
C2584 C 0.36068 0.47613 0.91005 0.0
C2585 C 0.36245 0.46563 0.92755 0.0
C2586 C 0.36657 0.47346 0.94856 0.0
H2587 H 0.4161 0.50832 0.99165 0.0
H2588 H 0.40052 0.48509 0.97912 0.0
H2589 H 0.4073 0.50716 0.96408 0.0
H2590 H 0.36912 0.51697 0.93803 0.0
H2591 H 0.36232 0.50333 0.90069 0.0
H2592 H 0.82767 0.35041 0.10071 0.0
H2593 H 0.81687 0.34525 0.06225 0.0
H2594 H 0.87648 0.36882 0.04123 0.0
H2595 H 0.88724 0.3737 0.0792 0.0
H2596 H 0.82888 0.37087 0.02259 0.0
H2597 H 0.84642 0.31141 0.01847 0.0
H2598 H 0.84372 0.32122 0.04406 0.0
H2599 H 0.8662 0.33378 0.02895 0.0
C2600 C 0.83845 0.35477 0.08782 0.0
C2601 C 0.85825 0.36217 0.09292 0.0
C2602 C 0.83228 0.35183 0.06592 0.0
C2603 C 0.84587 0.35636 0.04898 0.0
C2604 C 0.86574 0.36495 0.05409 0.0
H2605 H 0.85877 0.37231 0.91272 0.0
H2606 H 0.85097 0.37485 0.95078 0.0
C2607 C 0.87185 0.3677 0.07581 0.0
C2608 C 0.83959 0.35079 0.02601 0.0
H2609 H 0.84392 0.32466 0.98435 0.0
C2610 C 0.83178 0.3605 0.01421 0.0
C2611 C 0.84294 0.33692 0.01526 0.0
C2612 C 0.85009 0.32507 0.02738 0.0
C2613 C 0.82841 0.35758 0.99152 0.0
C2614 C 0.83345 0.34498 0.98041 0.0
C2615 C 0.84011 0.33442 0.99263 0.0
C2616 C 0.83377 0.34361 0.95611 0.0
C2617 C 0.81968 0.36815 0.97977 0.0
C2618 C 0.8264 0.32526 0.94606 0.0
C2619 C 0.83143 0.32383 0.92452 0.0
C2620 C 0.84346 0.34072 0.91241 0.0
C2621 C 0.8492 0.35907 0.92162 0.0
C2622 C 0.84463 0.36052 0.94342 0.0
H2623 H 0.80973 0.37033 0.99073 0.0
H2624 H 0.83154 0.38281 0.97475 0.0
H2625 H 0.81144 0.36009 0.96499 0.0
H2626 H 0.81795 0.31199 0.95541 0.0
H2627 H 0.82689 0.30953 0.91775 0.0
H2628 H 0.55921 0.90467 0.06933 0.0
H2629 H 0.54485 0.89797 0.03298 0.0
H2630 H 0.48886 0.85651 0.06001 0.0
H2631 H 0.50325 0.86328 0.09696 0.0
H2632 H 0.50183 0.84276 0.02316 0.0
H2633 H 0.50677 0.91351 0.00531 0.0
H2634 H 0.52897 0.91667 0.01697 0.0
H2635 H 0.50686 0.90526 0.03288 0.0
C2636 C 0.5438 0.8942 0.06769 0.0
C2637 C 0.53238 0.88448 0.08605 0.0
C2638 C 0.53557 0.89052 0.04687 0.0
C2639 C 0.51573 0.87701 0.04385 0.0
C2640 C 0.50417 0.86718 0.06207 0.0
H2641 H 0.49938 0.87811 0.9017 0.0
H2642 H 0.48705 0.87262 0.93959 0.0
C2643 C 0.5124 0.87104 0.08311 0.0
C2644 C 0.50794 0.87248 0.02125 0.0
H2645 H 0.50944 0.89596 0.97391 0.0
C2646 C 0.50284 0.85416 0.01245 0.0
C2647 C 0.50883 0.88719 0.00736 0.0
C2648 C 0.51296 0.9067 0.01617 0.0
C2649 C 0.50082 0.85095 0.98977 0.0
C2650 C 0.50423 0.86653 0.97565 0.0
C2651 C 0.50706 0.88407 0.98467 0.0
C2652 C 0.50895 0.86643 0.95218 0.0
C2653 C 0.49623 0.83128 0.98103 0.0
C2654 C 0.52518 0.86462 0.94672 0.0
C2655 C 0.53229 0.86796 0.92539 0.0
C2656 C 0.52332 0.87312 0.90897 0.0
C2657 C 0.50645 0.87398 0.91406 0.0
C2658 C 0.49944 0.87088 0.93564 0.0
H2659 H 0.48688 0.81948 0.99268 0.0
H2660 H 0.48875 0.8282 0.96494 0.0
H2661 H 0.51002 0.831 0.97901 0.0
H2662 H 0.53308 0.8617 0.95923 0.0
H2663 H 0.54531 0.86717 0.92192 0.0
H2664 H 0.6296 0.48484 0.09427 0.0
H2665 H 0.61984 0.46944 0.05806 0.0
H2666 H 0.67813 0.50775 0.03414 0.0
H2667 H 0.6879 0.52265 0.06997 0.0
H2668 H 0.61867 0.48884 0.02433 0.0
H2669 H 0.66629 0.46034 1.00028 0.0
H2670 H 0.66338 0.46494 0.02861 0.0
H2671 H 0.68155 0.48409 0.01161 0.0
C2672 C 0.64047 0.48937 0.08146 0.0
C2673 C 0.65947 0.50504 0.08486 0.0
C2674 C 0.63488 0.4806 0.06077 0.0
C2675 C 0.64828 0.48723 0.04332 0.0
C2676 C 0.6676 0.50191 0.04732 0.0
H2677 H 0.65853 0.54129 0.93256 0.0
H2678 H 0.65057 0.52432 0.96732 0.0
C2679 C 0.67314 0.51064 0.06784 0.0
C2680 C 0.64171 0.48204 0.02027 0.0
H2681 H 0.65976 0.47852 0.97083 0.0
C2682 C 0.62714 0.48578 0.0127 0.0
C2683 C 0.65227 0.47754 0.00489 0.0
C2684 C 0.66657 0.47128 0.0119 0.0
C2685 C 0.62483 0.48784 0.9903 0.0
C2686 C 0.63762 0.48648 0.97519 0.0
C2687 C 0.65026 0.48005 0.98247 0.0
C2688 C 0.64109 0.49581 0.95338 0.0
C2689 C 0.60979 0.49308 0.98312 0.0
C2690 C 0.63878 0.48547 0.93387 0.0
C2691 C 0.64337 0.49526 0.91366 0.0
C2692 C 0.6507 0.51553 0.91287 0.0
C2693 C 0.65297 0.52569 0.9325 0.0
C2694 C 0.64824 0.51596 0.95245 0.0
H2695 H 0.597 0.4866 0.99429 0.0
H2696 H 0.6163 0.50917 0.98367 0.0
H2697 H 0.60473 0.48802 0.96617 0.0
H2698 H 0.63351 0.46993 0.9343 0.0
H2699 H 0.64153 0.48708 0.89878 0.0
H2700 H 0.19035 0.65569 0.89965 0.0
H2701 H 0.20252 0.65641 0.93699 0.0
H2702 H 0.14462 0.63577 0.96247 0.0
H2703 H 0.13255 0.63496 0.92584 0.0
H2704 H 0.20147 0.67893 0.97133 0.0
H2705 H 0.16088 0.60167 0.99527 0.0
H2706 H 0.16455 0.60928 0.96694 0.0
H2707 H 0.1445 0.60802 0.98235 0.0
C2708 C 0.18024 0.651 0.91326 0.0
C2709 C 0.16053 0.64536 0.90987 0.0
C2710 C 0.18718 0.6514 0.9345 0.0
C2711 C 0.17438 0.64575 0.95245 0.0
C2712 C 0.15467 0.63968 0.94886 0.0
H2713 H 0.157 0.68371 0.0644 0.0
H2714 H 0.17066 0.68071 0.03009 0.0
C2715 C 0.14783 0.63946 0.92787 0.0
C2716 C 0.18139 0.64814 0.97532 0.0
H2717 H 0.16512 0.62528 0.02438 0.0
C2718 C 0.19411 0.66708 0.98295 0.0
C2719 C 0.17234 0.63266 0.99053 0.0
C2720 C 0.15999 0.61174 0.98327 0.0
C2721 C 0.19585 0.67132 0.00542 0.0
C2722 C 0.18422 0.65631 0.02041 0.0
C2723 C 0.1737 0.63695 0.01293 0.0
C2724 C 0.17954 0.66067 0.04249 0.0
C2725 C 0.20918 0.69206 0.01271 0.0
C2726 C 0.17982 0.65034 0.06106 0.0
C2727 C 0.1717 0.65185 0.08083 0.0
C2728 C 0.16296 0.66354 0.0822 0.0
C2729 C 0.16357 0.67455 0.0639 0.0
C2730 C 0.17166 0.67305 0.04427 0.0
H2731 H 0.2225 0.69911 0.00237 0.0
H2732 H 0.20159 0.70055 0.01072 0.0
H2733 H 0.21358 0.6928 0.03009 0.0
H2734 H 0.1856 0.64052 0.06001 0.0
H2735 H 0.17139 0.64315 0.09466 0.0
H2736 H 0.83956 0.52595 0.43226 0.0
H2737 H 0.82695 0.50841 0.4664 0.0
H2738 H 0.83368 0.46095 0.44196 0.0
H2739 H 0.84692 0.47884 0.40754 0.0
H2740 H 0.79714 0.47192 0.48041 0.0
H2741 H 0.87092 0.48071 0.4939 0.0
H2742 H 0.86651 0.49282 0.47153 0.0
H2743 H 0.8569 0.4669 0.47066 0.0
C2744 C 0.8381 0.51164 0.43393 0.0
C2745 C 0.84463 0.50396 0.41741 0.0
C2746 C 0.83072 0.50154 0.45344 0.0
C2747 C 0.82969 0.48353 0.45689 0.0
C2748 C 0.83467 0.47499 0.43975 0.0
H2749 H 0.84518 0.47661 0.59646 0.0
H2750 H 0.83201 0.45952 0.56168 0.0
C2751 C 0.84214 0.48518 0.42009 0.0
C2752 C 0.82603 0.47563 0.47945 0.0
H2753 H 0.85211 0.47718 0.52452 0.0
C2754 C 0.80889 0.47237 0.49002 0.0
C2755 C 0.84123 0.47594 0.49196 0.0
C2756 C 0.85998 0.47932 0.48158 0.0
C2757 C 0.80752 0.47174 0.51292 0.0
C2758 C 0.82373 0.47458 0.52544 0.0
C2759 C 0.83976 0.47519 0.51485 0.0
C2760 C 0.82657 0.48167 0.54831 0.0
C2761 C 0.78932 0.4695 0.52351 0.0
C2762 C 0.82741 0.49952 0.55252 0.0
C2763 C 0.83514 0.50938 0.57212 0.0
C2764 C 0.84212 0.50155 0.58795 0.0
C2765 C 0.83984 0.48294 0.58455 0.0
C2766 C 0.8323 0.47315 0.56472 0.0
H2767 H 0.77624 0.45995 0.51349 0.0
H2768 H 0.78727 0.46329 0.54023 0.0
H2769 H 0.79042 0.48402 0.52463 0.0
H2770 H 0.82355 0.50664 0.53996 0.0
H2771 H 0.83666 0.52366 0.57436 0.0
H2772 H 0.37253 0.8473 0.39882 0.0
H2773 H 0.37721 0.83753 0.43545 0.0
H2774 H 0.31974 0.82576 0.45396 0.0
H2775 H 0.3151 0.83553 0.4177 0.0
H2776 H 0.37702 0.85901 0.47089 0.0
H2777 H 0.32265 0.78166 0.4847 0.0
H2778 H 0.33019 0.79186 0.4576 0.0
H2779 H 0.3116 0.79419 0.47204 0.0
C2780 C 0.36063 0.84186 0.41045 0.0
C2781 C 0.34346 0.84221 0.40549 0.0
C2782 C 0.36335 0.83636 0.43139 0.0
C2783 C 0.34876 0.83072 0.44741 0.0
C2784 C 0.33105 0.82962 0.44179 0.0
H2785 H 0.31752 0.84113 0.56877 0.0
H2786 H 0.32214 0.8302 0.53329 0.0
C2787 C 0.32845 0.83535 0.42108 0.0
C2788 C 0.35297 0.82951 0.47085 0.0
H2789 H 0.33122 0.80303 0.5168 0.0
C2790 C 0.36749 0.84654 0.48096 0.0
C2791 C 0.34058 0.81322 0.48392 0.0
C2792 C 0.32552 0.79414 0.47394 0.0
C2793 C 0.36849 0.84852 0.50383 0.0
C2794 C 0.35484 0.83283 0.51692 0.0
C2795 C 0.34162 0.8151 0.50681 0.0
C2796 C 0.35137 0.83592 0.54008 0.0
C2797 C 0.3829 0.86803 0.51364 0.0
C2798 C 0.36595 0.84198 0.5562 0.0
C2799 C 0.36335 0.84839 0.5767 0.0
C2800 C 0.34613 0.84877 0.58124 0.0
C2801 C 0.33105 0.84123 0.56568 0.0
C2802 C 0.33363 0.83486 0.54538 0.0
H2803 H 0.3909 0.87932 0.50096 0.0
H2804 H 0.3753 0.87329 0.52458 0.0
H2805 H 0.39375 0.86644 0.52356 0.0
H2806 H 0.37964 0.84258 0.5526 0.0
H2807 H 0.3752 0.85409 0.58841 0.0
H2808 H 0.52471 0.38434 0.40081 0.0
H2809 H 0.54178 0.39585 0.43591 0.0
H2810 H 0.50938 0.33717 0.46135 0.0
H2811 H 0.49301 0.32572 0.42653 0.0
H2812 H 0.52298 0.39593 0.46971 0.0
H2813 H 0.55768 0.35435 0.49484 0.0
H2814 H 0.552 0.3556 0.46646 0.0
H2815 H 0.53432 0.33683 0.48427 0.0
C2816 C 0.52198 0.37381 0.41361 0.0
C2817 C 0.5074 0.35417 0.41107 0.0
C2818 C 0.53169 0.3804 0.4337 0.0
C2819 C 0.52705 0.36741 0.45138 0.0
C2820 C 0.51375 0.34749 0.44799 0.0
H2821 H 0.46947 0.35254 0.55893 0.0
H2822 H 0.48782 0.3624 0.52508 0.0
C2823 C 0.50414 0.34095 0.42805 0.0
C2824 C 0.53216 0.37464 0.47425 0.0
H2825 H 0.53679 0.35787 0.52403 0.0
C2826 C 0.52685 0.3882 0.48151 0.0
C2827 C 0.53777 0.36519 0.48992 0.0
C2828 C 0.54598 0.35237 0.48332 0.0
C2829 C 0.52409 0.39017 0.50381 0.0
C2830 C 0.52631 0.37802 0.5191 0.0
C2831 C 0.5345 0.36677 0.51223 0.0
C2832 C 0.51605 0.37344 0.54042 0.0
C2833 C 0.51713 0.40399 0.51062 0.0
C2834 C 0.52579 0.37595 0.56041 0.0
C2835 C 0.5152 0.37022 0.58009 0.0
C2836 C 0.49474 0.36158 0.57987 0.0
C2837 C 0.48519 0.35912 0.55977 0.0
C2838 C 0.4957 0.36494 0.54034 0.0
H2839 H 0.52326 0.41696 0.49972 0.0
H2840 H 0.501 0.39646 0.50921 0.0
H2841 H 0.52126 0.40894 0.52779 0.0
H2842 H 0.54148 0.38223 0.56076 0.0
H2843 H 0.52292 0.37223 0.59535 0.0
H2844 H 0.16739 0.53003 0.402 0.0
H2845 H 0.17901 0.54492 0.43812 0.0
H2846 H 0.18506 0.49573 0.45738 0.0
H2847 H 0.17369 0.48104 0.42161 0.0
H2848 H 0.15703 0.52653 0.47276 0.0
H2849 H 0.23024 0.53851 0.48974 0.0
H2850 H 0.22134 0.53684 0.46213 0.0
H2851 H 0.21625 0.5151 0.47705 0.0
C2852 C 0.17201 0.52285 0.41367 0.0
C2853 C 0.16948 0.50429 0.40915 0.0
C2854 C 0.17862 0.53136 0.43429 0.0
C2855 C 0.18311 0.52157 0.45044 0.0
C2856 C 0.18219 0.50386 0.44512 0.0
H2857 H 0.15653 0.46842 0.56287 0.0
H2858 H 0.17099 0.48677 0.52952 0.0
C2859 C 0.17546 0.49532 0.4247 0.0
C2860 C 0.18451 0.52709 0.47384 0.0
H2861 H 0.20642 0.52427 0.5206 0.0
C2862 C 0.16826 0.52693 0.48329 0.0
C2863 C 0.19924 0.52787 0.48759 0.0
C2864 C 0.21783 0.52981 0.4785 0.0
C2865 C 0.16501 0.52468 0.50593 0.0
C2866 C 0.1785 0.52277 0.51935 0.0
C2867 C 0.19596 0.52549 0.51022 0.0
C2868 C 0.17258 0.51338 0.54108 0.0
C2869 C 0.14614 0.52215 0.515 0.0
C2870 C 0.16908 0.52243 0.55888 0.0
C2871 C 0.1607 0.51188 0.57812 0.0
C2872 C 0.15565 0.49214 0.57965 0.0
C2873 C 0.16004 0.48352 0.56213 0.0
C2874 C 0.16846 0.49404 0.5431 0.0
H2875 H 0.13691 0.52341 0.50215 0.0
H2876 H 0.13769 0.50763 0.52293 0.0
H2877 H 0.14934 0.53343 0.52763 0.0
H2878 H 0.17226 0.5374 0.55764 0.0
H2879 H 0.15754 0.51892 0.59143 0.0
H2880 H 0.6307 0.14744 0.40622 0.0
H2881 H 0.62204 0.15434 0.44244 0.0
H2882 H 0.68069 0.17402 0.46482 0.0
H2883 H 0.68941 0.16781 0.42894 0.0
H2884 H 0.62077 0.13508 0.47694 0.0
H2885 H 0.67129 0.21157 0.49742 0.0
H2886 H 0.66789 0.20292 0.46952 0.0
H2887 H 0.68561 0.20163 0.48702 0.0
C2888 C 0.6419 0.15402 0.41865 0.0
C2889 C 0.66071 0.15701 0.41478 0.0
C2890 C 0.63693 0.15788 0.43938 0.0
C2891 C 0.65074 0.16495 0.45645 0.0
C2892 C 0.66985 0.16915 0.45196 0.0
H2893 H 0.6537 0.12254 0.57464 0.0
H2894 H 0.64914 0.13109 0.53799 0.0
C2895 C 0.67479 0.16535 0.43139 0.0
C2896 C 0.6448 0.1646 0.47966 0.0
H2897 H 0.66343 0.18796 0.52824 0.0
C2898 C 0.62969 0.14694 0.48804 0.0
C2899 C 0.65596 0.18012 0.49437 0.0
C2900 C 0.67092 0.20017 0.48648 0.0
C2901 C 0.62708 0.14363 0.51065 0.0
C2902 C 0.64017 0.15815 0.52528 0.0
C2903 C 0.65369 0.17661 0.51704 0.0
C2904 C 0.64234 0.1532 0.54817 0.0
C2905 C 0.61103 0.1241 0.51865 0.0
C2906 C 0.64067 0.16325 0.56628 0.0
C2907 C 0.64341 0.15841 0.58763 0.0
C2908 C 0.64811 0.14364 0.59105 0.0
C2909 C 0.65 0.13391 0.57277 0.0
C2910 C 0.64723 0.13867 0.55168 0.0
H2911 H 0.59837 0.11801 0.5073 0.0
H2912 H 0.61654 0.11367 0.51923 0.0
H2913 H 0.606 0.12522 0.53526 0.0
H2914 H 0.63717 0.17472 0.56389 0.0
H2915 H 0.64193 0.16621 0.60137 0.0
H2916 H 0.48153 0.65308 0.60337 0.0
H2917 H 0.46864 0.65258 0.56649 0.0
H2918 H 0.51094 0.6395 0.53884 0.0
H2919 H 0.52364 0.63989 0.57508 0.0
H2920 H 0.48979 0.67716 0.53196 0.0
H2921 H 0.46143 0.60078 0.50712 0.0
H2922 H 0.46559 0.60833 0.53545 0.0
H2923 H 0.48529 0.6104 0.51872 0.0
C2924 C 0.48776 0.64973 0.5894 0.0
C2925 C 0.50362 0.64657 0.59209 0.0
C2926 C 0.48042 0.64948 0.56839 0.0
C2927 C 0.4886 0.64565 0.54994 0.0
C2928 C 0.50406 0.642 0.55282 0.0
H2929 H 0.53235 0.68759 0.43114 0.0
H2930 H 0.51909 0.68318 0.46784 0.0
C2931 C 0.51145 0.64243 0.57359 0.0
C2932 C 0.48276 0.64733 0.52732 0.0
H2933 H 0.47563 0.6251 0.47769 0.0
C2934 C 0.48606 0.66559 0.52014 0.0
C2935 C 0.47737 0.63215 0.51189 0.0
C2936 C 0.472 0.61176 0.51877 0.0
C2937 C 0.48636 0.66967 0.49772 0.0
C2938 C 0.48369 0.65526 0.48218 0.0
C2939 C 0.47808 0.63634 0.4895 0.0
C2940 C 0.49005 0.66025 0.45904 0.0
C2941 C 0.49051 0.68971 0.49093 0.0
C2942 C 0.47818 0.64892 0.4416 0.0
C2943 C 0.48587 0.65136 0.42039 0.0
C2944 C 0.50562 0.66497 0.41644 0.0
C2945 C 0.51709 0.67698 0.43366 0.0
C2946 C 0.50943 0.67461 0.45469 0.0
H2947 H 0.48403 0.69552 0.50278 0.0
H2948 H 0.50651 0.69984 0.49089 0.0
H2949 H 0.4847 0.68958 0.47436 0.0
H2950 H 0.46325 0.63761 0.44459 0.0
H2951 H 0.47672 0.64179 0.40747 0.0
loop_
_geom_bond_atom_site_label_1
_geom_bond_atom_site_label_2
_geom_bond_distance
_geom_bond_site_symmetry_2
_ccdc_geom_bond_type
C0 C1 1.351 . S
C0 N3 1.368 . S
C0 H5 0.931 . S
C1 C0 1.351 . S
C1 N2 1.373 . S
C1 H29 0.930 . S
N2 C1 1.373 . S
N2 C4 1.340 . S
N3 C0 1.368 . S
N3 C4 1.321 . S
N3 Co6 2.135 . S
C4 N2 1.340 . S
C4 N3 1.321 . S
C4 H28 0.930 . S
H5 C0 0.931 . S
Co6 N3 2.135 . S
Co6 N9 2.121 . S
Co6 O14 2.055 . S
Co6 O17 2.039 . S
Co6 N20 2.140 . S
C7 O8 1.227 . S
C7 O17 1.265 . S
O8 C7 1.227 . S
N9 Co6 2.121 . S
N9 C11 1.375 . S
N9 C12 1.313 . S
C10 C11 1.338 . S
C10 N13 1.377 . S
C10 H30 0.930 . S
C11 N9 1.375 . S
C11 C10 1.338 . S
C11 H15 0.931 . S
C12 N9 1.313 . S
C12 N13 1.344 . S
C12 H16 0.930 . S
N13 C10 1.377 . S
N13 C12 1.344 . S
O14 Co6 2.055 . S
O14 C18 1.253 . S
H15 C11 0.931 . S
H16 C12 0.930 . S
O17 Co6 2.039 . S
O17 C7 1.265 . S
C18 O14 1.253 . S
C18 O19 1.227 . S
O19 C18 1.227 . S
N20 Co6 2.140 . S
N20 C23 1.346 . S
N20 C24 1.345 . S
C21 C22 1.387 . S
C21 C25 1.391 . S
C22 C21 1.387 . S
C22 C23 1.369 . S
C22 H31 0.929 . S
C23 N20 1.346 . S
C23 C22 1.369 . S
C23 H26 0.928 . S
C24 N20 1.345 . S
C24 C25 1.371 . S
C24 H27 0.931 . S
C25 C21 1.391 . S
C25 C24 1.371 . S
C25 H32 0.930 . S
H26 C23 0.928 . S
H27 C24 0.931 . S
H28 C4 0.930 . S
H29 C1 0.930 . S
H30 C10 0.930 . S
H31 C22 0.929 . S
H32 C25 0.930 . S
C33 C34 1.351 . S
C33 N36 1.368 . S
C33 H38 0.931 . S
C34 C33 1.351 . S
C34 N35 1.373 . S
C34 H62 0.930 . S
N35 C34 1.373 . S
N35 C37 1.340 . S
N36 C33 1.368 . S
N36 C37 1.321 . S
N36 Co39 2.135 . S
C37 N35 1.340 . S
C37 N36 1.321 . S
C37 H61 0.930 . S
H38 C33 0.931 . S
Co39 N36 2.135 . S
Co39 N42 2.121 . S
Co39 O47 2.055 . S
Co39 O50 2.039 . S
Co39 N53 2.140 . S
C40 O41 1.227 . S
C40 O50 1.265 . S
O41 C40 1.227 . S
N42 Co39 2.121 . S
N42 C44 1.375 . S
N42 C45 1.313 . S
C43 C44 1.338 . S
C43 N46 1.377 . S
C43 H63 0.930 . S
C44 N42 1.375 . S
C44 C43 1.338 . S
C44 H48 0.931 . S
C45 N42 1.313 . S
C45 N46 1.344 . S
C45 H49 0.930 . S
N46 C43 1.377 . S
N46 C45 1.344 . S
O47 Co39 2.055 . S
O47 C51 1.253 . S
H48 C44 0.931 . S
H49 C45 0.930 . S
O50 Co39 2.039 . S
O50 C40 1.265 . S
C51 O47 1.253 . S
C51 O52 1.227 . S
O52 C51 1.227 . S
N53 Co39 2.140 . S
N53 C56 1.346 . S
N53 C57 1.345 . S
C54 C55 1.387 . S
C54 C58 1.391 . S
C55 C54 1.387 . S
C55 C56 1.369 . S
C55 H64 0.929 . S
C56 N53 1.346 . S
C56 C55 1.369 . S
C56 H59 0.928 . S
C57 N53 1.345 . S
C57 C58 1.371 . S
C57 H60 0.931 . S
C58 C54 1.391 . S
C58 C57 1.371 . S
C58 H65 0.930 . S
H59 C56 0.928 . S
H60 C57 0.931 . S
H61 C37 0.930 . S
H62 C34 0.930 . S
H63 C43 0.930 . S
H64 C55 0.929 . S
H65 C58 0.930 . S
C66 C67 1.351 . S
C66 N69 1.368 . S
C66 H71 0.931 . S
C67 C66 1.351 . S
C67 N68 1.373 . S
C67 H95 0.930 . S
N68 C67 1.373 . S
N68 C70 1.340 . S
N69 C66 1.368 . S
N69 C70 1.321 . S
N69 Co72 2.135 . S
C70 N68 1.340 . S
C70 N69 1.321 . S
C70 H94 0.930 . S
H71 C66 0.931 . S
Co72 N69 2.135 . S
Co72 N75 2.121 . S
Co72 O80 2.055 . S
Co72 O83 2.039 . S
Co72 N86 2.140 . S
C73 O74 1.227 . S
C73 O83 1.265 . S
O74 C73 1.227 . S
N75 Co72 2.121 . S
N75 C77 1.375 . S
N75 C78 1.313 . S
C76 C77 1.338 . S
C76 N79 1.377 . S
C76 H96 0.930 . S
C77 N75 1.375 . S
C77 C76 1.338 . S
C77 H81 0.931 . S
C78 N75 1.313 . S
C78 N79 1.344 . S
C78 H82 0.930 . S
N79 C76 1.377 . S
N79 C78 1.344 . S
O80 Co72 2.055 . S
O80 C84 1.253 . S
H81 C77 0.931 . S
H82 C78 0.930 . S
O83 Co72 2.039 . S
O83 C73 1.265 . S
C84 O80 1.253 . S
C84 O85 1.227 . S
O85 C84 1.227 . S
N86 Co72 2.140 . S
N86 C89 1.346 . S
N86 C90 1.345 . S
C87 C88 1.387 . S
C87 C91 1.391 . S
C88 C87 1.387 . S
C88 C89 1.369 . S
C88 H97 0.929 . S
C89 N86 1.346 . S
C89 C88 1.369 . S
C89 H92 0.928 . S
C90 N86 1.345 . S
C90 C91 1.371 . S
C90 H93 0.931 . S
C91 C87 1.391 . S
C91 C90 1.371 . S
C91 H98 0.930 . S
H92 C89 0.928 . S
H93 C90 0.931 . S
H94 C70 0.930 . S
H95 C67 0.930 . S
H96 C76 0.930 . S
H97 C88 0.929 . S
H98 C91 0.930 . S
C99 C100 1.351 . S
C99 N102 1.368 . S
C99 H104 0.931 . S
C100 C99 1.351 . S
C100 N101 1.373 . S
C100 H128 0.930 . S
N101 C100 1.373 . S
N101 C103 1.340 . S
N102 C99 1.368 . S
N102 C103 1.321 . S
N102 Co105 2.135 . S
C103 N101 1.340 . S
C103 N102 1.321 . S
C103 H127 0.930 . S
H104 C99 0.931 . S
Co105 N102 2.135 . S
Co105 N108 2.121 . S
Co105 O113 2.055 . S
Co105 O116 2.039 . S
Co105 N119 2.140 . S
C106 O107 1.227 . S
C106 O116 1.265 . S
O107 C106 1.227 . S
N108 Co105 2.121 . S
N108 C110 1.375 . S
N108 C111 1.313 . S
C109 C110 1.338 . S
C109 N112 1.377 . S
C109 H129 0.930 . S
C110 N108 1.375 . S
C110 C109 1.338 . S
C110 H114 0.931 . S
C111 N108 1.313 . S
C111 N112 1.344 . S
C111 H115 0.930 . S
N112 C109 1.377 . S
N112 C111 1.344 . S
O113 Co105 2.055 . S
O113 C117 1.253 . S
H114 C110 0.931 . S
H115 C111 0.930 . S
O116 Co105 2.039 . S
O116 C106 1.265 . S
C117 O113 1.253 . S
C117 O118 1.227 . S
O118 C117 1.227 . S
N119 Co105 2.140 . S
N119 C122 1.346 . S
N119 C123 1.345 . S
C120 C121 1.387 . S
C120 C124 1.391 . S
C121 C120 1.387 . S
C121 C122 1.369 . S
C121 H130 0.929 . S
C122 N119 1.346 . S
C122 C121 1.369 . S
C122 H125 0.928 . S
C123 N119 1.345 . S
C123 C124 1.371 . S
C123 H126 0.931 . S
C124 C120 1.391 . S
C124 C123 1.371 . S
C124 H131 0.930 . S
H125 C122 0.928 . S
H126 C123 0.931 . S
H127 C103 0.930 . S
H128 C100 0.930 . S
H129 C109 0.930 . S
H130 C121 0.929 . S
H131 C124 0.930 . S
C132 C133 1.351 . S
C132 N135 1.368 . S
C132 H137 0.931 . S
C133 C132 1.351 . S
C133 N134 1.373 . S
C133 H161 0.930 . S
N134 C133 1.373 . S
N134 C136 1.340 . S
N135 C132 1.368 . S
N135 C136 1.321 . S
N135 Co138 2.135 . S
C136 N134 1.340 . S
C136 N135 1.321 . S
C136 H160 0.930 . S
H137 C132 0.931 . S
Co138 N135 2.135 . S
Co138 N141 2.121 . S
Co138 O146 2.055 . S
Co138 O149 2.039 . S
Co138 N152 2.140 . S
C139 O140 1.227 . S
C139 O149 1.265 . S
O140 C139 1.227 . S
N141 Co138 2.121 . S
N141 C143 1.375 . S
N141 C144 1.313 . S
C142 C143 1.338 . S
C142 N145 1.377 . S
C142 H162 0.930 . S
C143 N141 1.375 . S
C143 C142 1.338 . S
C143 H147 0.931 . S
C144 N141 1.313 . S
C144 N145 1.344 . S
C144 H148 0.930 . S
N145 C142 1.377 . S
N145 C144 1.344 . S
O146 Co138 2.055 . S
O146 C150 1.253 . S
H147 C143 0.931 . S
H148 C144 0.930 . S
O149 Co138 2.039 . S
O149 C139 1.265 . S
C150 O146 1.253 . S
C150 O151 1.227 . S
O151 C150 1.227 . S
N152 Co138 2.140 . S
N152 C155 1.346 . S
N152 C156 1.345 . S
C153 C154 1.387 . S
C153 C157 1.391 . S
C154 C153 1.387 . S
C154 C155 1.369 . S
C154 H163 0.929 . S
C155 N152 1.346 . S
C155 C154 1.369 . S
C155 H158 0.928 . S
C156 N152 1.345 . S
C156 C157 1.371 . S
C156 H159 0.931 . S
C157 C153 1.391 . S
C157 C156 1.371 . S
C157 H164 0.930 . S
H158 C155 0.928 . S
H159 C156 0.931 . S
H160 C136 0.930 . S
H161 C133 0.930 . S
H162 C142 0.930 . S
H163 C154 0.929 . S
H164 C157 0.930 . S
C165 C166 1.351 . S
C165 N168 1.368 . S
C165 H170 0.931 . S
C166 C165 1.351 . S
C166 N167 1.373 . S
C166 H194 0.930 . S
N167 C166 1.373 . S
N167 C169 1.340 . S
N168 C165 1.368 . S
N168 C169 1.321 . S
N168 Co171 2.135 . S
C169 N167 1.340 . S
C169 N168 1.321 . S
C169 H193 0.930 . S
H170 C165 0.931 . S
Co171 N168 2.135 . S
Co171 N174 2.121 . S
Co171 O179 2.055 . S
Co171 O182 2.039 . S
Co171 N185 2.140 . S
C172 O173 1.227 . S
C172 O182 1.265 . S
O173 C172 1.227 . S
N174 Co171 2.121 . S
N174 C176 1.375 . S
N174 C177 1.313 . S
C175 C176 1.338 . S
C175 N178 1.377 . S
C175 H195 0.930 . S
C176 N174 1.375 . S
C176 C175 1.338 . S
C176 H180 0.931 . S
C177 N174 1.313 . S
C177 N178 1.344 . S
C177 H181 0.930 . S
N178 C175 1.377 . S
N178 C177 1.344 . S
O179 Co171 2.055 . S
O179 C183 1.253 . S
H180 C176 0.931 . S
H181 C177 0.930 . S
O182 Co171 2.039 . S
O182 C172 1.265 . S
C183 O179 1.253 . S
C183 O184 1.227 . S
O184 C183 1.227 . S
N185 Co171 2.140 . S
N185 C188 1.346 . S
N185 C189 1.345 . S
C186 C187 1.387 . S
C186 C190 1.391 . S
C187 C186 1.387 . S
C187 C188 1.369 . S
C187 H196 0.929 . S
C188 N185 1.346 . S
C188 C187 1.369 . S
C188 H191 0.928 . S
C189 N185 1.345 . S
C189 C190 1.371 . S
C189 H192 0.931 . S
C190 C186 1.391 . S
C190 C189 1.371 . S
C190 H197 0.930 . S
H191 C188 0.928 . S
H192 C189 0.931 . S
H193 C169 0.930 . S
H194 C166 0.930 . S
H195 C175 0.930 . S
H196 C187 0.929 . S
H197 C190 0.930 . S
C198 C199 1.351 . S
C198 N201 1.368 . S
C198 H203 0.931 . S
C199 C198 1.351 . S
C199 N200 1.373 . S
C199 H227 0.930 . S
N200 C199 1.373 . S
N200 C202 1.340 . S
N201 C198 1.368 . S
N201 C202 1.321 . S
N201 Co204 2.135 . S
C202 N200 1.340 . S
C202 N201 1.321 . S
C202 H226 0.930 . S
H203 C198 0.931 . S
Co204 N201 2.135 . S
Co204 N207 2.121 . S
Co204 O212 2.055 . S
Co204 O215 2.039 . S
Co204 N218 2.140 . S
C205 O206 1.227 . S
C205 O215 1.265 . S
O206 C205 1.227 . S
N207 Co204 2.121 . S
N207 C209 1.375 . S
N207 C210 1.313 . S
C208 C209 1.338 . S
C208 N211 1.377 . S
C208 H228 0.930 . S
C209 N207 1.375 . S
C209 C208 1.338 . S
C209 H213 0.931 . S
C210 N207 1.313 . S
C210 N211 1.344 . S
C210 H214 0.930 . S
N211 C208 1.377 . S
N211 C210 1.344 . S
O212 Co204 2.055 . S
O212 C216 1.253 . S
H213 C209 0.931 . S
H214 C210 0.930 . S
O215 Co204 2.039 . S
O215 C205 1.265 . S
C216 O212 1.253 . S
C216 O217 1.227 . S
O217 C216 1.227 . S
N218 Co204 2.140 . S
N218 C221 1.346 . S
N218 C222 1.345 . S
C219 C220 1.387 . S
C219 C223 1.391 . S
C220 C219 1.387 . S
C220 C221 1.369 . S
C220 H229 0.929 . S
C221 N218 1.346 . S
C221 C220 1.369 . S
C221 H224 0.928 . S
C222 N218 1.345 . S
C222 C223 1.371 . S
C222 H225 0.931 . S
C223 C219 1.391 . S
C223 C222 1.371 . S
C223 H230 0.930 . S
H224 C221 0.928 . S
H225 C222 0.931 . S
H226 C202 0.930 . S
H227 C199 0.930 . S
H228 C208 0.930 . S
H229 C220 0.929 . S
H230 C223 0.930 . S
C231 C232 1.351 . S
C231 N234 1.368 . S
C231 H236 0.931 . S
C232 C231 1.351 . S
C232 N233 1.373 . S
C232 H260 0.930 . S
N233 C232 1.373 . S
N233 C235 1.340 . S
N234 C231 1.368 . S
N234 C235 1.321 . S
N234 Co237 2.135 . S
C235 N233 1.340 . S
C235 N234 1.321 . S
C235 H259 0.930 . S
H236 C231 0.931 . S
Co237 N234 2.135 . S
Co237 N240 2.121 . S
Co237 O245 2.055 . S
Co237 O248 2.039 . S
Co237 N251 2.140 . S
C238 O239 1.227 . S
C238 O248 1.265 . S
O239 C238 1.227 . S
N240 Co237 2.121 . S
N240 C242 1.375 . S
N240 C243 1.313 . S
C241 C242 1.338 . S
C241 N244 1.377 . S
C241 H261 0.930 . S
C242 N240 1.375 . S
C242 C241 1.338 . S
C242 H246 0.931 . S
C243 N240 1.313 . S
C243 N244 1.344 . S
C243 H247 0.930 . S
N244 C241 1.377 . S
N244 C243 1.344 . S
O245 Co237 2.055 . S
O245 C249 1.253 . S
H246 C242 0.931 . S
H247 C243 0.930 . S
O248 Co237 2.039 . S
O248 C238 1.265 . S
C249 O245 1.253 . S
C249 O250 1.227 . S
O250 C249 1.227 . S
N251 Co237 2.140 . S
N251 C254 1.346 . S
N251 C255 1.345 . S
C252 C253 1.387 . S
C252 C256 1.391 . S
C253 C252 1.387 . S
C253 C254 1.369 . S
C253 H262 0.929 . S
C254 N251 1.346 . S
C254 C253 1.369 . S
C254 H257 0.928 . S
C255 N251 1.345 . S
C255 C256 1.371 . S
C255 H258 0.931 . S
C256 C252 1.391 . S
C256 C255 1.371 . S
C256 H263 0.930 . S
H257 C254 0.928 . S
H258 C255 0.931 . S
H259 C235 0.930 . S
H260 C232 0.930 . S
H261 C241 0.930 . S
H262 C253 0.929 . S
H263 C256 0.930 . S
C264 C265 1.351 . S
C264 N267 1.368 . S
C264 H269 0.931 . S
C265 C264 1.351 . S
C265 N266 1.373 . S
C265 H293 0.930 . S
N266 C265 1.373 . S
N266 C268 1.340 . S
N267 C264 1.368 . S
N267 C268 1.321 . S
N267 Co270 2.135 . S
C268 N266 1.340 . S
C268 N267 1.321 . S
C268 H292 0.930 . S
H269 C264 0.931 . S
Co270 N267 2.135 . S
Co270 N273 2.121 . S
Co270 O278 2.055 . S
Co270 O281 2.039 . S
Co270 N284 2.140 . S
C271 O272 1.227 . S
C271 O281 1.265 . S
O272 C271 1.227 . S
N273 Co270 2.121 . S
N273 C275 1.375 . S
N273 C276 1.313 . S
C274 C275 1.338 . S
C274 N277 1.377 . S
C274 H294 0.930 . S
C275 N273 1.375 . S
C275 C274 1.338 . S
C275 H279 0.931 . S
C276 N273 1.313 . S
C276 N277 1.344 . S
C276 H280 0.930 . S
N277 C274 1.377 . S
N277 C276 1.344 . S
O278 Co270 2.055 . S
O278 C282 1.253 . S
H279 C275 0.931 . S
H280 C276 0.930 . S
O281 Co270 2.039 . S
O281 C271 1.265 . S
C282 O278 1.253 . S
C282 O283 1.227 . S
O283 C282 1.227 . S
N284 Co270 2.140 . S
N284 C287 1.346 . S
N284 C288 1.345 . S
C285 C286 1.387 . S
C285 C289 1.391 . S
C286 C285 1.387 . S
C286 C287 1.369 . S
C286 H295 0.929 . S
C287 N284 1.346 . S
C287 C286 1.369 . S
C287 H290 0.928 . S
C288 N284 1.345 . S
C288 C289 1.371 . S
C288 H291 0.931 . S
C289 C285 1.391 . S
C289 C288 1.371 . S
C289 H296 0.930 . S
H290 C287 0.928 . S
H291 C288 0.931 . S
H292 C268 0.930 . S
H293 C265 0.930 . S
H294 C274 0.930 . S
H295 C286 0.929 . S
H296 C289 0.930 . S
C297 C298 1.351 . S
C297 N300 1.368 . S
C297 H302 0.931 . S
C298 C297 1.351 . S
C298 N299 1.373 . S
C298 H326 0.930 . S
N299 C298 1.373 . S
N299 C301 1.340 . S
N300 C297 1.368 . S
N300 C301 1.321 . S
N300 Co303 2.135 . S
C301 N299 1.340 . S
C301 N300 1.321 . S
C301 H325 0.930 . S
H302 C297 0.931 . S
Co303 N300 2.135 . S
Co303 N306 2.121 . S
Co303 O311 2.055 . S
Co303 O314 2.039 . S
Co303 N317 2.140 . S
C304 O305 1.227 . S
C304 O314 1.265 . S
O305 C304 1.227 . S
N306 Co303 2.121 . S
N306 C308 1.375 . S
N306 C309 1.313 . S
C307 C308 1.338 . S
C307 N310 1.377 . S
C307 H327 0.930 . S
C308 N306 1.375 . S
C308 C307 1.338 . S
C308 H312 0.931 . S
C309 N306 1.313 . S
C309 N310 1.344 . S
C309 H313 0.930 . S
N310 C307 1.377 . S
N310 C309 1.344 . S
O311 Co303 2.055 . S
O311 C315 1.253 . S
H312 C308 0.931 . S
H313 C309 0.930 . S
O314 Co303 2.039 . S
O314 C304 1.265 . S
C315 O311 1.253 . S
C315 O316 1.227 . S
O316 C315 1.227 . S
N317 Co303 2.140 . S
N317 C320 1.346 . S
N317 C321 1.345 . S
C318 C319 1.387 . S
C318 C322 1.391 . S
C319 C318 1.387 . S
C319 C320 1.369 . S
C319 H328 0.929 . S
C320 N317 1.346 . S
C320 C319 1.369 . S
C320 H323 0.928 . S
C321 N317 1.345 . S
C321 C322 1.371 . S
C321 H324 0.931 . S
C322 C318 1.391 . S
C322 C321 1.371 . S
C322 H329 0.930 . S
H323 C320 0.928 . S
H324 C321 0.931 . S
H325 C301 0.930 . S
H326 C298 0.930 . S
H327 C307 0.930 . S
H328 C319 0.929 . S
H329 C322 0.930 . S
C330 C331 1.351 . S
C330 N333 1.368 . S
C330 H335 0.931 . S
C331 C330 1.351 . S
C331 N332 1.373 . S
C331 H359 0.930 . S
N332 C331 1.373 . S
N332 C334 1.340 . S
N333 C330 1.368 . S
N333 C334 1.321 . S
N333 Co336 2.135 . S
C334 N332 1.340 . S
C334 N333 1.321 . S
C334 H358 0.930 . S
H335 C330 0.931 . S
Co336 N333 2.135 . S
Co336 N339 2.121 . S
Co336 O344 2.055 . S
Co336 O347 2.039 . S
Co336 N350 2.140 . S
C337 O338 1.227 . S
C337 O347 1.265 . S
O338 C337 1.227 . S
N339 Co336 2.121 . S
N339 C341 1.375 . S
N339 C342 1.313 . S
C340 C341 1.338 . S
C340 N343 1.377 . S
C340 H360 0.930 . S
C341 N339 1.375 . S
C341 C340 1.338 . S
C341 H345 0.931 . S
C342 N339 1.313 . S
C342 N343 1.344 . S
C342 H346 0.930 . S
N343 C340 1.377 . S
N343 C342 1.344 . S
O344 Co336 2.055 . S
O344 C348 1.253 . S
H345 C341 0.931 . S
H346 C342 0.930 . S
O347 Co336 2.039 . S
O347 C337 1.265 . S
C348 O344 1.253 . S
C348 O349 1.227 . S
O349 C348 1.227 . S
N350 Co336 2.140 . S
N350 C353 1.346 . S
N350 C354 1.345 . S
C351 C352 1.387 . S
C351 C355 1.391 . S
C352 C351 1.387 . S
C352 C353 1.369 . S
C352 H361 0.929 . S
C353 N350 1.346 . S
C353 C352 1.369 . S
C353 H356 0.928 . S
C354 N350 1.345 . S
C354 C355 1.371 . S
C354 H357 0.931 . S
C355 C351 1.391 . S
C355 C354 1.371 . S
C355 H362 0.930 . S
H356 C353 0.928 . S
H357 C354 0.931 . S
H358 C334 0.930 . S
H359 C331 0.930 . S
H360 C340 0.930 . S
H361 C352 0.929 . S
H362 C355 0.930 . S
C363 C364 1.351 . S
C363 N366 1.368 . S
C363 H368 0.931 . S
C364 C363 1.351 . S
C364 N365 1.373 . S
C364 H392 0.930 . S
N365 C364 1.373 . S
N365 C367 1.340 . S
N366 C363 1.368 . S
N366 C367 1.321 . S
N366 Co369 2.135 . S
C367 N365 1.340 . S
C367 N366 1.321 . S
C367 H391 0.930 . S
H368 C363 0.931 . S
Co369 N366 2.135 . S
Co369 N372 2.121 . S
Co369 O377 2.055 . S
Co369 O380 2.039 . S
Co369 N383 2.140 . S
C370 O371 1.227 . S
C370 O380 1.265 . S
O371 C370 1.227 . S
N372 Co369 2.121 . S
N372 C374 1.375 . S
N372 C375 1.313 . S
C373 C374 1.338 . S
C373 N376 1.377 . S
C373 H393 0.930 . S
C374 N372 1.375 . S
C374 C373 1.338 . S
C374 H378 0.931 . S
C375 N372 1.313 . S
C375 N376 1.344 . S
C375 H379 0.930 . S
N376 C373 1.377 . S
N376 C375 1.344 . S
O377 Co369 2.055 . S
O377 C381 1.253 . S
H378 C374 0.931 . S
H379 C375 0.930 . S
O380 Co369 2.039 . S
O380 C370 1.265 . S
C381 O377 1.253 . S
C381 O382 1.227 . S
O382 C381 1.227 . S
N383 Co369 2.140 . S
N383 C386 1.346 . S
N383 C387 1.345 . S
C384 C385 1.387 . S
C384 C388 1.391 . S
C385 C384 1.387 . S
C385 C386 1.369 . S
C385 H394 0.929 . S
C386 N383 1.346 . S
C386 C385 1.369 . S
C386 H389 0.928 . S
C387 N383 1.345 . S
C387 C388 1.371 . S
C387 H390 0.931 . S
C388 C384 1.391 . S
C388 C387 1.371 . S
C388 H395 0.930 . S
H389 C386 0.928 . S
H390 C387 0.931 . S
H391 C367 0.930 . S
H392 C364 0.930 . S
H393 C373 0.930 . S
H394 C385 0.929 . S
H395 C388 0.930 . S
C396 C397 1.351 . S
C396 N399 1.368 . S
C396 H401 0.931 . S
C397 C396 1.351 . S
C397 N398 1.373 . S
C397 H425 0.930 . S
N398 C397 1.373 . S
N398 C400 1.340 . S
N399 C396 1.368 . S
N399 C400 1.321 . S
N399 Co402 2.135 . S
C400 N398 1.340 . S
C400 N399 1.321 . S
C400 H424 0.930 . S
H401 C396 0.931 . S
Co402 N399 2.135 . S
Co402 N405 2.121 . S
Co402 O410 2.055 . S
Co402 O413 2.039 . S
Co402 N416 2.140 . S
C403 O404 1.227 . S
C403 O413 1.265 . S
O404 C403 1.227 . S
N405 Co402 2.121 . S
N405 C407 1.375 . S
N405 C408 1.313 . S
C406 C407 1.338 . S
C406 N409 1.377 . S
C406 H426 0.930 . S
C407 N405 1.375 . S
C407 C406 1.338 . S
C407 H411 0.931 . S
C408 N405 1.313 . S
C408 N409 1.344 . S
C408 H412 0.930 . S
N409 C406 1.377 . S
N409 C408 1.344 . S
O410 Co402 2.055 . S
O410 C414 1.253 . S
H411 C407 0.931 . S
H412 C408 0.930 . S
O413 Co402 2.039 . S
O413 C403 1.265 . S
C414 O410 1.253 . S
C414 O415 1.227 . S
O415 C414 1.227 . S
N416 Co402 2.140 . S
N416 C419 1.346 . S
N416 C420 1.345 . S
C417 C418 1.387 . S
C417 C421 1.391 . S
C418 C417 1.387 . S
C418 C419 1.369 . S
C418 H427 0.929 . S
C419 N416 1.346 . S
C419 C418 1.369 . S
C419 H422 0.928 . S
C420 N416 1.345 . S
C420 C421 1.371 . S
C420 H423 0.931 . S
C421 C417 1.391 . S
C421 C420 1.371 . S
C421 H428 0.930 . S
H422 C419 0.928 . S
H423 C420 0.931 . S
H424 C400 0.930 . S
H425 C397 0.930 . S
H426 C406 0.930 . S
H427 C418 0.929 . S
H428 C421 0.930 . S
C429 C430 1.351 . S
C429 N432 1.368 . S
C429 H434 0.931 . S
C430 C429 1.351 . S
C430 N431 1.373 . S
C430 H458 0.930 . S
N431 C430 1.373 . S
N431 C433 1.340 . S
N432 C429 1.368 . S
N432 C433 1.321 . S
N432 Co435 2.135 . S
C433 N431 1.340 . S
C433 N432 1.321 . S
C433 H457 0.930 . S
H434 C429 0.931 . S
Co435 N432 2.135 . S
Co435 N438 2.121 . S
Co435 O443 2.055 . S
Co435 O446 2.039 . S
Co435 N449 2.140 . S
C436 O437 1.227 . S
C436 O446 1.265 . S
O437 C436 1.227 . S
N438 Co435 2.121 . S
N438 C440 1.375 . S
N438 C441 1.313 . S
C439 C440 1.338 . S
C439 N442 1.377 . S
C439 H459 0.930 . S
C440 N438 1.375 . S
C440 C439 1.338 . S
C440 H444 0.931 . S
C441 N438 1.313 . S
C441 N442 1.344 . S
C441 H445 0.930 . S
N442 C439 1.377 . S
N442 C441 1.344 . S
O443 Co435 2.055 . S
O443 C447 1.253 . S
H444 C440 0.931 . S
H445 C441 0.930 . S
O446 Co435 2.039 . S
O446 C436 1.265 . S
C447 O443 1.253 . S
C447 O448 1.227 . S
O448 C447 1.227 . S
N449 Co435 2.140 . S
N449 C452 1.346 . S
N449 C453 1.345 . S
C450 C451 1.387 . S
C450 C454 1.391 . S
C451 C450 1.387 . S
C451 C452 1.369 . S
C451 H460 0.929 . S
C452 N449 1.346 . S
C452 C451 1.369 . S
C452 H455 0.928 . S
C453 N449 1.345 . S
C453 C454 1.371 . S
C453 H456 0.931 . S
C454 C450 1.391 . S
C454 C453 1.371 . S
C454 H461 0.930 . S
H455 C452 0.928 . S
H456 C453 0.931 . S
H457 C433 0.930 . S
H458 C430 0.930 . S
H459 C439 0.930 . S
H460 C451 0.929 . S
H461 C454 0.930 . S
C462 C463 1.351 . S
C462 N465 1.368 . S
C462 H467 0.931 . S
C463 C462 1.351 . S
C463 N464 1.373 . S
C463 H491 0.930 . S
N464 C463 1.373 . S
N464 C466 1.340 . S
N465 C462 1.368 . S
N465 C466 1.321 . S
N465 Co468 2.135 . S
C466 N464 1.340 . S
C466 N465 1.321 . S
C466 H490 0.930 . S
H467 C462 0.931 . S
Co468 N465 2.135 . S
Co468 N471 2.121 . S
Co468 O476 2.055 . S
Co468 O479 2.039 . S
Co468 N482 2.140 . S
C469 O470 1.227 . S
C469 O479 1.265 . S
O470 C469 1.227 . S
N471 Co468 2.121 . S
N471 C473 1.375 . S
N471 C474 1.313 . S
C472 C473 1.338 . S
C472 N475 1.377 . S
C472 H492 0.930 . S
C473 N471 1.375 . S
C473 C472 1.338 . S
C473 H477 0.931 . S
C474 N471 1.313 . S
C474 N475 1.344 . S
C474 H478 0.930 . S
N475 C472 1.377 . S
N475 C474 1.344 . S
O476 Co468 2.055 . S
O476 C480 1.253 . S
H477 C473 0.931 . S
H478 C474 0.930 . S
O479 Co468 2.039 . S
O479 C469 1.265 . S
C480 O476 1.253 . S
C480 O481 1.227 . S
O481 C480 1.227 . S
N482 Co468 2.140 . S
N482 C485 1.346 . S
N482 C486 1.345 . S
C483 C484 1.387 . S
C483 C487 1.391 . S
C484 C483 1.387 . S
C484 C485 1.369 . S
C484 H493 0.929 . S
C485 N482 1.346 . S
C485 C484 1.369 . S
C485 H488 0.928 . S
C486 N482 1.345 . S
C486 C487 1.371 . S
C486 H489 0.931 . S
C487 C483 1.391 . S
C487 C486 1.371 . S
C487 H494 0.930 . S
H488 C485 0.928 . S
H489 C486 0.931 . S
H490 C466 0.930 . S
H491 C463 0.930 . S
H492 C472 0.930 . S
H493 C484 0.929 . S
H494 C487 0.930 . S
C495 C496 1.351 . S
C495 N498 1.368 . S
C495 H500 0.931 . S
C496 C495 1.351 . S
C496 N497 1.373 . S
C496 H524 0.930 . S
N497 C496 1.373 . S
N497 C499 1.340 . S
N498 C495 1.368 . S
N498 C499 1.321 . S
N498 Co501 2.135 . S
C499 N497 1.340 . S
C499 N498 1.321 . S
C499 H523 0.930 . S
H500 C495 0.931 . S
Co501 N498 2.135 . S
Co501 N504 2.121 . S
Co501 O509 2.055 . S
Co501 O512 2.039 . S
Co501 N515 2.140 . S
C502 O503 1.227 . S
C502 O512 1.265 . S
O503 C502 1.227 . S
N504 Co501 2.121 . S
N504 C506 1.375 . S
N504 C507 1.313 . S
C505 C506 1.338 . S
C505 N508 1.377 . S
C505 H525 0.930 . S
C506 N504 1.375 . S
C506 C505 1.338 . S
C506 H510 0.931 . S
C507 N504 1.313 . S
C507 N508 1.344 . S
C507 H511 0.930 . S
N508 C505 1.377 . S
N508 C507 1.344 . S
O509 Co501 2.055 . S
O509 C513 1.253 . S
H510 C506 0.931 . S
H511 C507 0.930 . S
O512 Co501 2.039 . S
O512 C502 1.265 . S
C513 O509 1.253 . S
C513 O514 1.227 . S
O514 C513 1.227 . S
N515 Co501 2.140 . S
N515 C518 1.346 . S
N515 C519 1.345 . S
C516 C517 1.387 . S
C516 C520 1.391 . S
C517 C516 1.387 . S
C517 C518 1.369 . S
C517 H526 0.929 . S
C518 N515 1.346 . S
C518 C517 1.369 . S
C518 H521 0.928 . S
C519 N515 1.345 . S
C519 C520 1.371 . S
C519 H522 0.931 . S
C520 C516 1.391 . S
C520 C519 1.371 . S
C520 H527 0.930 . S
H521 C518 0.928 . S
H522 C519 0.931 . S
H523 C499 0.930 . S
H524 C496 0.930 . S
H525 C505 0.930 . S
H526 C517 0.929 . S
H527 C520 0.930 . S
C528 C529 1.351 . S
C528 N531 1.368 . S
C528 H533 0.931 . S
C529 C528 1.351 . S
C529 N530 1.373 . S
C529 H557 0.930 . S
N530 C529 1.373 . S
N530 C532 1.340 . S
N531 C528 1.368 . S
N531 C532 1.321 . S
N531 Co534 2.135 . S
C532 N530 1.340 . S
C532 N531 1.321 . S
C532 H556 0.930 . S
H533 C528 0.931 . S
Co534 N531 2.135 . S
Co534 N537 2.121 . S
Co534 O542 2.055 . S
Co534 O545 2.039 . S
Co534 N548 2.140 . S
C535 O536 1.227 . S
C535 O545 1.265 . S
O536 C535 1.227 . S
N537 Co534 2.121 . S
N537 C539 1.375 . S
N537 C540 1.313 . S
C538 C539 1.338 . S
C538 N541 1.377 . S
C538 H558 0.930 . S
C539 N537 1.375 . S
C539 C538 1.338 . S
C539 H543 0.931 . S
C540 N537 1.313 . S
C540 N541 1.344 . S
C540 H544 0.930 . S
N541 C538 1.377 . S
N541 C540 1.344 . S
O542 Co534 2.055 . S
O542 C546 1.253 . S
H543 C539 0.931 . S
H544 C540 0.930 . S
O545 Co534 2.039 . S
O545 C535 1.265 . S
C546 O542 1.253 . S
C546 O547 1.227 . S
O547 C546 1.227 . S
N548 Co534 2.140 . S
N548 C551 1.346 . S
N548 C552 1.345 . S
C549 C550 1.387 . S
C549 C553 1.391 . S
C550 C549 1.387 . S
C550 C551 1.369 . S
C550 H559 0.929 . S
C551 N548 1.346 . S
C551 C550 1.369 . S
C551 H554 0.928 . S
C552 N548 1.345 . S
C552 C553 1.371 . S
C552 H555 0.931 . S
C553 C549 1.391 . S
C553 C552 1.371 . S
C553 H560 0.930 . S
H554 C551 0.928 . S
H555 C552 0.931 . S
H556 C532 0.930 . S
H557 C529 0.930 . S
H558 C538 0.930 . S
H559 C550 0.929 . S
H560 C553 0.930 . S
C561 C562 1.351 . S
C561 N564 1.368 . S
C561 H566 0.931 . S
C562 C561 1.351 . S
C562 N563 1.373 . S
C562 H590 0.930 . S
N563 C562 1.373 . S
N563 C565 1.340 . S
N564 C561 1.368 . S
N564 C565 1.321 . S
N564 Co567 2.135 . S
C565 N563 1.340 . S
C565 N564 1.321 . S
C565 H589 0.930 . S
H566 C561 0.931 . S
Co567 N564 2.135 . S
Co567 N570 2.121 . S
Co567 O575 2.055 . S
Co567 O578 2.039 . S
Co567 N581 2.140 . S
C568 O569 1.227 . S
C568 O578 1.265 . S
O569 C568 1.227 . S
N570 Co567 2.121 . S
N570 C572 1.375 . S
N570 C573 1.313 . S
C571 C572 1.338 . S
C571 N574 1.377 . S
C571 H591 0.930 . S
C572 N570 1.375 . S
C572 C571 1.338 . S
C572 H576 0.931 . S
C573 N570 1.313 . S
C573 N574 1.344 . S
C573 H577 0.930 . S
N574 C571 1.377 . S
N574 C573 1.344 . S
O575 Co567 2.055 . S
O575 C579 1.253 . S
H576 C572 0.931 . S
H577 C573 0.930 . S
O578 Co567 2.039 . S
O578 C568 1.265 . S
C579 O575 1.253 . S
C579 O580 1.227 . S
O580 C579 1.227 . S
N581 Co567 2.140 . S
N581 C584 1.346 . S
N581 C585 1.345 . S
C582 C583 1.387 . S
C582 C586 1.391 . S
C583 C582 1.387 . S
C583 C584 1.369 . S
C583 H592 0.929 . S
C584 N581 1.346 . S
C584 C583 1.369 . S
C584 H587 0.928 . S
C585 N581 1.345 . S
C585 C586 1.371 . S
C585 H588 0.931 . S
C586 C582 1.391 . S
C586 C585 1.371 . S
C586 H593 0.930 . S
H587 C584 0.928 . S
H588 C585 0.931 . S
H589 C565 0.930 . S
H590 C562 0.930 . S
H591 C571 0.930 . S
H592 C583 0.929 . S
H593 C586 0.930 . S
C594 C595 1.351 . S
C594 N597 1.368 . S
C594 H599 0.931 . S
C595 C594 1.351 . S
C595 N596 1.373 . S
C595 H623 0.930 . S
N596 C595 1.373 . S
N596 C598 1.340 . S
N597 C594 1.368 . S
N597 C598 1.321 . S
N597 Co600 2.135 . S
C598 N596 1.340 . S
C598 N597 1.321 . S
C598 H622 0.930 . S
H599 C594 0.931 . S
Co600 N597 2.135 . S
Co600 N603 2.121 . S
Co600 O608 2.055 . S
Co600 O611 2.039 . S
Co600 N614 2.140 . S
C601 O602 1.227 . S
C601 O611 1.265 . S
O602 C601 1.227 . S
N603 Co600 2.121 . S
N603 C605 1.375 . S
N603 C606 1.313 . S
C604 C605 1.338 . S
C604 N607 1.377 . S
C604 H624 0.930 . S
C605 N603 1.375 . S
C605 C604 1.338 . S
C605 H609 0.931 . S
C606 N603 1.313 . S
C606 N607 1.344 . S
C606 H610 0.930 . S
N607 C604 1.377 . S
N607 C606 1.344 . S
O608 Co600 2.055 . S
O608 C612 1.253 . S
H609 C605 0.931 . S
H610 C606 0.930 . S
O611 Co600 2.039 . S
O611 C601 1.265 . S
C612 O608 1.253 . S
C612 O613 1.227 . S
O613 C612 1.227 . S
N614 Co600 2.140 . S
N614 C617 1.346 . S
N614 C618 1.345 . S
C615 C616 1.387 . S
C615 C619 1.391 . S
C616 C615 1.387 . S
C616 C617 1.369 . S
C616 H625 0.929 . S
C617 N614 1.346 . S
C617 C616 1.369 . S
C617 H620 0.928 . S
C618 N614 1.345 . S
C618 C619 1.371 . S
C618 H621 0.931 . S
C619 C615 1.391 . S
C619 C618 1.371 . S
C619 H626 0.930 . S
H620 C617 0.928 . S
H621 C618 0.931 . S
H622 C598 0.930 . S
H623 C595 0.930 . S
H624 C604 0.930 . S
H625 C616 0.929 . S
H626 C619 0.930 . S
C627 C628 1.351 . S
C627 N630 1.368 . S
C627 H632 0.931 . S
C628 C627 1.351 . S
C628 N629 1.373 . S
C628 H656 0.930 . S
N629 C628 1.373 . S
N629 C631 1.340 . S
N630 C627 1.368 . S
N630 C631 1.321 . S
N630 Co633 2.135 . S
C631 N629 1.340 . S
C631 N630 1.321 . S
C631 H655 0.930 . S
H632 C627 0.931 . S
Co633 N630 2.135 . S
Co633 N636 2.121 . S
Co633 O641 2.055 . S
Co633 O644 2.039 . S
Co633 N647 2.140 . S
C634 O635 1.227 . S
C634 O644 1.265 . S
O635 C634 1.227 . S
N636 Co633 2.121 . S
N636 C638 1.375 . S
N636 C639 1.313 . S
C637 C638 1.338 . S
C637 N640 1.377 . S
C637 H657 0.930 . S
C638 N636 1.375 . S
C638 C637 1.338 . S
C638 H642 0.931 . S
C639 N636 1.313 . S
C639 N640 1.344 . S
C639 H643 0.930 . S
N640 C637 1.377 . S
N640 C639 1.344 . S
O641 Co633 2.055 . S
O641 C645 1.253 . S
H642 C638 0.931 . S
H643 C639 0.930 . S
O644 Co633 2.039 . S
O644 C634 1.265 . S
C645 O641 1.253 . S
C645 O646 1.227 . S
O646 C645 1.227 . S
N647 Co633 2.140 . S
N647 C650 1.346 . S
N647 C651 1.345 . S
C648 C649 1.387 . S
C648 C652 1.391 . S
C649 C648 1.387 . S
C649 C650 1.369 . S
C649 H658 0.929 . S
C650 N647 1.346 . S
C650 C649 1.369 . S
C650 H653 0.928 . S
C651 N647 1.345 . S
C651 C652 1.371 . S
C651 H654 0.931 . S
C652 C648 1.391 . S
C652 C651 1.371 . S
C652 H659 0.930 . S
H653 C650 0.928 . S
H654 C651 0.931 . S
H655 C631 0.930 . S
H656 C628 0.930 . S
H657 C637 0.930 . S
H658 C649 0.929 . S
H659 C652 0.930 . S
C660 C661 1.351 . S
C660 N663 1.368 . S
C660 H665 0.931 . S
C661 C660 1.351 . S
C661 N662 1.373 . S
C661 H689 0.930 . S
N662 C661 1.373 . S
N662 C664 1.340 . S
N663 C660 1.368 . S
N663 C664 1.321 . S
N663 Co666 2.135 . S
C664 N662 1.340 . S
C664 N663 1.321 . S
C664 H688 0.930 . S
H665 C660 0.931 . S
Co666 N663 2.135 . S
Co666 N669 2.121 . S
Co666 O674 2.055 . S
Co666 O677 2.039 . S
Co666 N680 2.140 . S
C667 O668 1.227 . S
C667 O677 1.265 . S
O668 C667 1.227 . S
N669 Co666 2.121 . S
N669 C671 1.375 . S
N669 C672 1.313 . S
C670 C671 1.338 . S
C670 N673 1.377 . S
C670 H690 0.930 . S
C671 N669 1.375 . S
C671 C670 1.338 . S
C671 H675 0.931 . S
C672 N669 1.313 . S
C672 N673 1.344 . S
C672 H676 0.930 . S
N673 C670 1.377 . S
N673 C672 1.344 . S
O674 Co666 2.055 . S
O674 C678 1.253 . S
H675 C671 0.931 . S
H676 C672 0.930 . S
O677 Co666 2.039 . S
O677 C667 1.265 . S
C678 O674 1.253 . S
C678 O679 1.227 . S
O679 C678 1.227 . S
N680 Co666 2.140 . S
N680 C683 1.346 . S
N680 C684 1.345 . S
C681 C682 1.387 . S
C681 C685 1.391 . S
C682 C681 1.387 . S
C682 C683 1.369 . S
C682 H691 0.929 . S
C683 N680 1.346 . S
C683 C682 1.369 . S
C683 H686 0.928 . S
C684 N680 1.345 . S
C684 C685 1.371 . S
C684 H687 0.931 . S
C685 C681 1.391 . S
C685 C684 1.371 . S
C685 H692 0.930 . S
H686 C683 0.928 . S
H687 C684 0.931 . S
H688 C664 0.930 . S
H689 C661 0.930 . S
H690 C670 0.930 . S
H691 C682 0.929 . S
H692 C685 0.930 . S
C693 C694 1.351 . S
C693 N696 1.368 . S
C693 H698 0.931 . S
C694 C693 1.351 . S
C694 N695 1.373 . S
C694 H722 0.930 . S
N695 C694 1.373 . S
N695 C697 1.340 . S
N696 C693 1.368 . S
N696 C697 1.321 . S
N696 Co699 2.135 . S
C697 N695 1.340 . S
C697 N696 1.321 . S
C697 H721 0.930 . S
H698 C693 0.931 . S
Co699 N696 2.135 . S
Co699 N702 2.121 . S
Co699 O707 2.055 . S
Co699 O710 2.039 . S
Co699 N713 2.140 . S
C700 O701 1.227 . S
C700 O710 1.265 . S
O701 C700 1.227 . S
N702 Co699 2.121 . S
N702 C704 1.375 . S
N702 C705 1.313 . S
C703 C704 1.338 . S
C703 N706 1.377 . S
C703 H723 0.930 . S
C704 N702 1.375 . S
C704 C703 1.338 . S
C704 H708 0.931 . S
C705 N702 1.313 . S
C705 N706 1.344 . S
C705 H709 0.930 . S
N706 C703 1.377 . S
N706 C705 1.344 . S
O707 Co699 2.055 . S
O707 C711 1.253 . S
H708 C704 0.931 . S
H709 C705 0.930 . S
O710 Co699 2.039 . S
O710 C700 1.265 . S
C711 O707 1.253 . S
C711 O712 1.227 . S
O712 C711 1.227 . S
N713 Co699 2.140 . S
N713 C716 1.346 . S
N713 C717 1.345 . S
C714 C715 1.387 . S
C714 C718 1.391 . S
C715 C714 1.387 . S
C715 C716 1.369 . S
C715 H724 0.929 . S
C716 N713 1.346 . S
C716 C715 1.369 . S
C716 H719 0.928 . S
C717 N713 1.345 . S
C717 C718 1.371 . S
C717 H720 0.931 . S
C718 C714 1.391 . S
C718 C717 1.371 . S
C718 H725 0.930 . S
H719 C716 0.928 . S
H720 C717 0.931 . S
H721 C697 0.930 . S
H722 C694 0.930 . S
H723 C703 0.930 . S
H724 C715 0.929 . S
H725 C718 0.930 . S
C726 C727 1.351 . S
C726 N729 1.368 . S
C726 H731 0.931 . S
C727 C726 1.351 . S
C727 N728 1.373 . S
C727 H755 0.930 . S
N728 C727 1.373 . S
N728 C730 1.340 . S
N729 C726 1.368 . S
N729 C730 1.321 . S
N729 Co732 2.135 . S
C730 N728 1.340 . S
C730 N729 1.321 . S
C730 H754 0.930 . S
H731 C726 0.931 . S
Co732 N729 2.135 . S
Co732 N735 2.121 . S
Co732 O740 2.055 . S
Co732 O743 2.039 . S
Co732 N746 2.140 . S
C733 O734 1.227 . S
C733 O743 1.265 . S
O734 C733 1.227 . S
N735 Co732 2.121 . S
N735 C737 1.375 . S
N735 C738 1.313 . S
C736 C737 1.338 . S
C736 N739 1.377 . S
C736 H756 0.930 . S
C737 N735 1.375 . S
C737 C736 1.338 . S
C737 H741 0.931 . S
C738 N735 1.313 . S
C738 N739 1.344 . S
C738 H742 0.930 . S
N739 C736 1.377 . S
N739 C738 1.344 . S
O740 Co732 2.055 . S
O740 C744 1.253 . S
H741 C737 0.931 . S
H742 C738 0.930 . S
O743 Co732 2.039 . S
O743 C733 1.265 . S
C744 O740 1.253 . S
C744 O745 1.227 . S
O745 C744 1.227 . S
N746 Co732 2.140 . S
N746 C749 1.346 . S
N746 C750 1.345 . S
C747 C748 1.387 . S
C747 C751 1.391 . S
C748 C747 1.387 . S
C748 C749 1.369 . S
C748 H757 0.929 . S
C749 N746 1.346 . S
C749 C748 1.369 . S
C749 H752 0.928 . S
C750 N746 1.345 . S
C750 C751 1.371 . S
C750 H753 0.931 . S
C751 C747 1.391 . S
C751 C750 1.371 . S
C751 H758 0.930 . S
H752 C749 0.928 . S
H753 C750 0.931 . S
H754 C730 0.930 . S
H755 C727 0.930 . S
H756 C736 0.930 . S
H757 C748 0.929 . S
H758 C751 0.930 . S
C759 C760 1.351 . S
C759 N762 1.368 . S
C759 H764 0.931 . S
C760 C759 1.351 . S
C760 N761 1.373 . S
C760 H788 0.930 . S
N761 C760 1.373 . S
N761 C763 1.340 . S
N762 C759 1.368 . S
N762 C763 1.321 . S
N762 Co765 2.135 . S
C763 N761 1.340 . S
C763 N762 1.321 . S
C763 H787 0.930 . S
H764 C759 0.931 . S
Co765 N762 2.135 . S
Co765 N768 2.121 . S
Co765 O773 2.055 . S
Co765 O776 2.039 . S
Co765 N779 2.140 . S
C766 O767 1.227 . S
C766 O776 1.265 . S
O767 C766 1.227 . S
N768 Co765 2.121 . S
N768 C770 1.375 . S
N768 C771 1.313 . S
C769 C770 1.338 . S
C769 N772 1.377 . S
C769 H789 0.930 . S
C770 N768 1.375 . S
C770 C769 1.338 . S
C770 H774 0.931 . S
C771 N768 1.313 . S
C771 N772 1.344 . S
C771 H775 0.930 . S
N772 C769 1.377 . S
N772 C771 1.344 . S
O773 Co765 2.055 . S
O773 C777 1.253 . S
H774 C770 0.931 . S
H775 C771 0.930 . S
O776 Co765 2.039 . S
O776 C766 1.265 . S
C777 O773 1.253 . S
C777 O778 1.227 . S
O778 C777 1.227 . S
N779 Co765 2.140 . S
N779 C782 1.346 . S
N779 C783 1.345 . S
C780 C781 1.387 . S
C780 C784 1.391 . S
C781 C780 1.387 . S
C781 C782 1.369 . S
C781 H790 0.929 . S
C782 N779 1.346 . S
C782 C781 1.369 . S
C782 H785 0.928 . S
C783 N779 1.345 . S
C783 C784 1.371 . S
C783 H786 0.931 . S
C784 C780 1.391 . S
C784 C783 1.371 . S
C784 H791 0.930 . S
H785 C782 0.928 . S
H786 C783 0.931 . S
H787 C763 0.930 . S
H788 C760 0.930 . S
H789 C769 0.930 . S
H790 C781 0.929 . S
H791 C784 0.930 . S
H792 C800 0.929 . S
H793 C802 0.930 . S
H794 C804 0.930 . S
H795 C807 0.929 . S
H796 C810 0.930 . S
H797 C812 0.960 . S
H798 C812 0.960 . S
H799 C812 0.960 . S
C800 H792 0.929 . S
C800 C801 1.377 . S
C800 C802 1.384 . S
C801 C800 1.377 . S
C801 C807 1.390 . S
C802 H793 0.930 . S
C802 C800 1.384 . S
C802 C803 1.372 . S
C803 C802 1.372 . S
C803 C804 1.400 . S
C803 C808 1.490 . S
C804 H794 0.930 . S
C804 C803 1.400 . S
C804 C807 1.386 . S
H805 C821 0.930 . S
H806 C822 0.931 . S
C807 H795 0.929 . S
C807 C801 1.390 . S
C807 C804 1.386 . S
C808 C803 1.490 . S
C808 C810 1.395 1_545 S
C808 C811 1.403 . S
H809 C815 0.923 . S
C810 H796 0.930 . S
C810 C808 1.395 1_565 S
C810 C813 1.403 . S
C811 C808 1.403 . S
C811 C812 1.524 . S
C811 C815 1.418 . S
C812 H797 0.960 . S
C812 H798 0.960 . S
C812 H799 0.960 . S
C812 C811 1.524 . S
C813 C810 1.403 . S
C813 C814 1.392 . S
C813 C817 1.495 . S
C814 C813 1.392 . S
C814 C815 1.374 1_565 S
C814 C816 1.478 . S
C815 H809 0.923 . S
C815 C811 1.418 . S
C815 C814 1.374 1_545 S
C816 C814 1.478 . S
C816 C818 1.381 . S
C816 C822 1.383 . S
C817 C813 1.495 . S
C817 H823 0.959 . S
C817 H824 0.961 . S
C817 H825 0.960 . S
C818 C816 1.381 . S
C818 C819 1.394 . S
C818 H826 0.930 . S
C819 C818 1.394 . S
C819 C820 1.383 . S
C819 H827 0.929 . S
C820 C819 1.383 . S
C820 C821 1.377 . S
C821 H805 0.930 . S
C821 C820 1.377 . S
C821 C822 1.379 . S
C822 H806 0.931 . S
C822 C816 1.383 . S
C822 C821 1.379 . S
H823 C817 0.959 . S
H824 C817 0.961 . S
H825 C817 0.960 . S
H826 C818 0.930 . S
H827 C819 0.929 . S
H828 C836 0.929 . S
H829 C838 0.930 . S
H830 C840 0.930 . S
H831 C843 0.929 . S
H832 C846 0.930 . S
H833 C848 0.960 . S
H834 C848 0.960 . S
H835 C848 0.960 . S
C836 H828 0.929 . S
C836 C837 1.377 . S
C836 C838 1.384 . S
C837 C836 1.377 . S
C837 C843 1.390 . S
C838 H829 0.930 . S
C838 C836 1.384 . S
C838 C839 1.372 . S
C839 C838 1.372 . S
C839 C840 1.400 . S
C839 C844 1.490 . S
C840 H830 0.930 . S
C840 C839 1.400 . S
C840 C843 1.386 . S
H841 C857 0.930 . S
H842 C858 0.931 . S
C843 H831 0.929 . S
C843 C837 1.390 . S
C843 C840 1.386 . S
C844 C839 1.490 . S
C844 C846 1.395 . S
C844 C847 1.403 . S
H845 C851 0.930 . S
C846 H832 0.930 . S
C846 C844 1.395 . S
C846 C849 1.403 . S
C847 C844 1.403 . S
C847 C848 1.524 . S
C847 C851 1.400 . S
C848 H833 0.960 . S
C848 H834 0.960 . S
C848 H835 0.960 . S
C848 C847 1.524 . S
C849 C846 1.403 . S
C849 C850 1.392 . S
C849 C853 1.495 . S
C850 C849 1.392 . S
C850 C851 1.385 . S
C850 C852 1.478 . S
C851 H845 0.930 . S
C851 C847 1.400 . S
C851 C850 1.385 . S
C852 C850 1.478 . S
C852 C854 1.381 . S
C852 C858 1.383 . S
C853 C849 1.495 . S
C853 H859 0.959 . S
C853 H860 0.961 . S
C853 H861 0.960 . S
C854 C852 1.381 . S
C854 C855 1.394 . S
C854 H862 0.930 . S
C855 C854 1.394 . S
C855 C856 1.383 . S
C855 H863 0.929 . S
C856 C855 1.383 . S
C856 C857 1.377 . S
C857 H841 0.930 . S
C857 C856 1.377 . S
C857 C858 1.379 . S
C858 H842 0.931 . S
C858 C852 1.383 . S
C858 C857 1.379 . S
H859 C853 0.959 . S
H860 C853 0.961 . S
H861 C853 0.960 . S
H862 C854 0.930 . S
H863 C855 0.929 . S
H864 C872 0.929 . S
H865 C874 0.930 . S
H866 C876 0.930 . S
H867 C879 0.929 . S
H868 C882 0.930 . S
H869 C884 0.960 . S
H870 C884 0.960 . S
H871 C884 0.960 . S
C872 H864 0.929 . S
C872 C873 1.377 . S
C872 C874 1.384 . S
C873 C872 1.377 . S
C873 C879 1.390 . S
C874 H865 0.930 . S
C874 C872 1.384 . S
C874 C875 1.372 . S
C875 C874 1.372 . S
C875 C876 1.400 . S
C875 C880 1.490 . S
C876 H866 0.930 . S
C876 C875 1.400 . S
C876 C879 1.386 . S
H877 C893 0.930 . S
H878 C894 0.931 . S
C879 H867 0.929 . S
C879 C873 1.390 . S
C879 C876 1.386 . S
C880 C875 1.490 . S
C880 C882 1.395 1_455 S
C880 C883 1.403 . S
H881 C887 0.915 . S
C882 H868 0.930 . S
C882 C880 1.395 1_655 S
C882 C885 1.403 . S
C883 C880 1.403 . S
C883 C884 1.524 . S
C883 C887 1.385 1_455 S
C884 H869 0.960 . S
C884 H870 0.960 . S
C884 H871 0.960 . S
C884 C883 1.524 . S
C885 C882 1.403 . S
C885 C886 1.392 . S
C885 C889 1.495 . S
C886 C885 1.392 . S
C886 C887 1.416 . S
C886 C888 1.478 . S
C887 H881 0.915 . S
C887 C883 1.385 1_655 S
C887 C886 1.416 . S
C888 C886 1.478 . S
C888 C890 1.381 . S
C888 C894 1.383 . S
C889 C885 1.495 . S
C889 H895 0.959 . S
C889 H896 0.961 . S
C889 H897 0.960 . S
C890 C888 1.381 . S
C890 C891 1.394 . S
C890 H898 0.930 . S
C891 C890 1.394 . S
C891 C892 1.383 . S
C891 H899 0.929 . S
C892 C891 1.383 . S
C892 C893 1.377 . S
C893 H877 0.930 . S
C893 C892 1.377 . S
C893 C894 1.379 . S
C894 H878 0.931 . S
C894 C888 1.383 . S
C894 C893 1.379 . S
H895 C889 0.959 . S
H896 C889 0.961 . S
H897 C889 0.960 . S
H898 C890 0.930 . S
H899 C891 0.929 . S
H900 C908 0.929 . S
H901 C910 0.930 . S
H902 C912 0.930 . S
H903 C915 0.929 . S
H904 C918 0.930 . S
H905 C920 0.960 . S
H906 C920 0.960 . S
H907 C920 0.960 . S
C908 H900 0.929 . S
C908 C909 1.377 . S
C908 C910 1.384 . S
C909 C908 1.377 . S
C909 C915 1.390 . S
C910 H901 0.930 . S
C910 C908 1.384 . S
C910 C911 1.372 . S
C911 C910 1.372 . S
C911 C912 1.400 . S
C911 C916 1.490 . S
C912 H902 0.930 . S
C912 C911 1.400 . S
C912 C915 1.386 . S
H913 C929 0.930 . S
H914 C930 0.931 . S
C915 H903 0.929 . S
C915 C909 1.390 . S
C915 C912 1.386 . S
C916 C911 1.490 . S
C916 C918 1.395 . S
C916 C919 1.403 1_455 S
H917 C923 0.930 . S
C918 H904 0.930 . S
C918 C916 1.395 . S
C918 C921 1.403 . S
C919 C916 1.403 1_655 S
C919 C920 1.524 . S
C919 C923 1.400 . S
C920 H905 0.960 . S
C920 H906 0.960 . S
C920 H907 0.960 . S
C920 C919 1.524 . S
C921 C918 1.403 . S
C921 C922 1.392 1_455 S
C921 C925 1.495 . S
C922 C921 1.392 1_655 S
C922 C923 1.385 . S
C922 C924 1.478 . S
C923 H917 0.930 . S
C923 C919 1.400 . S
C923 C922 1.385 . S
C924 C922 1.478 . S
C924 C926 1.381 . S
C924 C930 1.383 . S
C925 C921 1.495 . S
C925 H931 0.959 . S
C925 H932 0.961 . S
C925 H933 0.960 . S
C926 C924 1.381 . S
C926 C927 1.394 . S
C926 H934 0.930 . S
C927 C926 1.394 . S
C927 C928 1.383 . S
C927 H935 0.929 . S
C928 C927 1.383 . S
C928 C929 1.377 . S
C929 H913 0.930 . S
C929 C928 1.377 . S
C929 C930 1.379 . S
C930 H914 0.931 . S
C930 C924 1.383 . S
C930 C929 1.379 . S
H931 C925 0.959 . S
H932 C925 0.961 . S
H933 C925 0.960 . S
H934 C926 0.930 . S
H935 C927 0.929 . S
H936 C944 0.929 . S
H937 C946 0.930 . S
H938 C948 0.930 . S
H939 C951 0.929 . S
H940 C954 0.930 . S
H941 C956 0.960 . S
H942 C956 0.960 . S
H943 C956 0.960 . S
C944 H936 0.929 . S
C944 C945 1.377 . S
C944 C946 1.384 . S
C945 C944 1.377 . S
C945 C951 1.390 . S
C946 H937 0.930 . S
C946 C944 1.384 . S
C946 C947 1.372 . S
C947 C946 1.372 . S
C947 C948 1.400 . S
C947 C952 1.490 . S
C948 H938 0.930 . S
C948 C947 1.400 . S
C948 C951 1.386 . S
H949 C965 0.930 . S
H950 C966 0.931 . S
C951 H939 0.929 . S
C951 C945 1.390 . S
C951 C948 1.386 . S
C952 C947 1.490 . S
C952 C954 1.395 . S
C952 C955 1.403 1_565 S
H953 C959 0.930 . S
C954 H940 0.930 . S
C954 C952 1.395 . S
C954 C957 1.403 . S
C955 C952 1.403 1_545 S
C955 C956 1.524 . S
C955 C959 1.400 . S
C956 H941 0.960 . S
C956 H942 0.960 . S
C956 H943 0.960 . S
C956 C955 1.524 . S
C957 C954 1.403 . S
C957 C958 1.392 1_565 S
C957 C961 1.495 . S
C958 C957 1.392 1_545 S
C958 C959 1.385 . S
C958 C960 1.478 . S
C959 H953 0.930 . S
C959 C955 1.400 . S
C959 C958 1.385 . S
C960 C958 1.478 . S
C960 C962 1.381 . S
C960 C966 1.383 . S
C961 C957 1.495 . S
C961 H967 0.959 . S
C961 H968 0.961 . S
C961 H969 0.960 . S
C962 C960 1.381 . S
C962 C963 1.394 . S
C962 H970 0.930 . S
C963 C962 1.394 . S
C963 C964 1.383 . S
C963 H971 0.929 . S
C964 C963 1.383 . S
C964 C965 1.377 . S
C965 H949 0.930 . S
C965 C964 1.377 . S
C965 C966 1.379 . S
C966 H950 0.931 . S
C966 C960 1.383 . S
C966 C965 1.379 . S
H967 C961 0.959 . S
H968 C961 0.961 . S
H969 C961 0.960 . S
H970 C962 0.930 . S
H971 C963 0.929 . S
H972 C980 0.929 . S
H973 C982 0.930 . S
H974 C984 0.930 . S
H975 C987 0.929 . S
H976 C990 0.930 . S
H977 C992 0.960 . S
H978 C992 0.960 . S
H979 C992 0.960 . S
C980 H972 0.929 . S
C980 C981 1.377 . S
C980 C982 1.384 . S
C981 C980 1.377 . S
C981 C987 1.390 . S
C982 H973 0.930 . S
C982 C980 1.384 . S
C982 C983 1.372 . S
C983 C982 1.372 . S
C983 C984 1.400 . S
C983 C988 1.490 . S
C984 H974 0.930 . S
C984 C983 1.400 . S
C984 C987 1.386 . S
H985 C1001 0.930 . S
H986 C1002 0.931 . S
C987 H975 0.929 . S
C987 C981 1.390 . S
C987 C984 1.386 . S
C988 C983 1.490 . S
C988 C990 1.395 . S
C988 C991 1.403 . S
H989 C995 0.930 . S
C990 H976 0.930 . S
C990 C988 1.395 . S
C990 C993 1.403 . S
C991 C988 1.403 . S
C991 C992 1.524 . S
C991 C995 1.400 . S
C992 H977 0.960 . S
C992 H978 0.960 . S
C992 H979 0.960 . S
C992 C991 1.524 . S
C993 C990 1.403 . S
C993 C994 1.392 . S
C993 C997 1.495 . S
C994 C993 1.392 . S
C994 C995 1.385 . S
C994 C996 1.478 . S
C995 H989 0.930 . S
C995 C991 1.400 . S
C995 C994 1.385 . S
C996 C994 1.478 . S
C996 C998 1.381 . S
C996 C1002 1.383 . S
C997 C993 1.495 . S
C997 H1003 0.959 . S
C997 H1004 0.961 . S
C997 H1005 0.960 . S
C998 C996 1.381 . S
C998 C999 1.394 . S
C998 H1006 0.930 . S
C999 C998 1.394 . S
C999 C1000 1.383 . S
C999 H1007 0.929 . S
C1000 C999 1.383 . S
C1000 C1001 1.377 . S
C1001 H985 0.930 . S
C1001 C1000 1.377 . S
C1001 C1002 1.379 . S
C1002 H986 0.931 . S
C1002 C996 1.383 . S
C1002 C1001 1.379 . S
H1003 C997 0.959 . S
H1004 C997 0.961 . S
H1005 C997 0.960 . S
H1006 C998 0.930 . S
H1007 C999 0.929 . S
H1008 C1016 0.929 . S
H1009 C1018 0.930 . S
H1010 C1020 0.930 . S
H1011 C1023 0.929 . S
H1012 C1026 0.930 . S
H1013 C1028 0.960 . S
H1014 C1028 0.960 . S
H1015 C1028 0.960 . S
C1016 H1008 0.929 . S
C1016 C1017 1.377 . S
C1016 C1018 1.384 . S
C1017 C1016 1.377 . S
C1017 C1023 1.390 . S
C1018 H1009 0.930 . S
C1018 C1016 1.384 . S
C1018 C1019 1.372 . S
C1019 C1018 1.372 . S
C1019 C1020 1.400 . S
C1019 C1024 1.490 . S
C1020 H1010 0.930 . S
C1020 C1019 1.400 . S
C1020 C1023 1.386 . S
H1021 C1037 0.930 . S
H1022 C1038 0.931 . S
C1023 H1011 0.929 . S
C1023 C1017 1.390 . S
C1023 C1020 1.386 . S
C1024 C1019 1.490 . S
C1024 C1026 1.395 1_545 S
C1024 C1027 1.403 . S
H1025 C1031 0.922 . S
C1026 H1012 0.930 . S
C1026 C1024 1.395 1_565 S
C1026 C1029 1.403 . S
C1027 C1024 1.403 . S
C1027 C1028 1.524 . S
C1027 C1031 1.419 . S
C1028 H1013 0.960 . S
C1028 H1014 0.960 . S
C1028 H1015 0.960 . S
C1028 C1027 1.524 . S
C1029 C1026 1.403 . S
C1029 C1030 1.392 . S
C1029 C1033 1.495 . S
C1030 C1029 1.392 . S
C1030 C1031 1.373 1_565 S
C1030 C1032 1.478 . S
C1031 H1025 0.922 . S
C1031 C1027 1.419 . S
C1031 C1030 1.373 1_545 S
C1032 C1030 1.478 . S
C1032 C1034 1.381 . S
C1032 C1038 1.383 . S
C1033 C1029 1.495 . S
C1033 H1039 0.959 . S
C1033 H1040 0.961 . S
C1033 H1041 0.960 . S
C1034 C1032 1.381 . S
C1034 C1035 1.394 . S
C1034 H1042 0.930 . S
C1035 C1034 1.394 . S
C1035 C1036 1.383 . S
C1035 H1043 0.929 . S
C1036 C1035 1.383 . S
C1036 C1037 1.377 . S
C1037 H1021 0.930 . S
C1037 C1036 1.377 . S
C1037 C1038 1.379 . S
C1038 H1022 0.931 . S
C1038 C1032 1.383 . S
C1038 C1037 1.379 . S
H1039 C1033 0.959 . S
H1040 C1033 0.961 . S
H1041 C1033 0.960 . S
H1042 C1034 0.930 . S
H1043 C1035 0.929 . S
H1044 C1052 0.929 . S
H1045 C1054 0.930 . S
H1046 C1056 0.930 . S
H1047 C1059 0.929 . S
H1048 C1062 0.930 . S
H1049 C1064 0.960 . S
H1050 C1064 0.960 . S
H1051 C1064 0.960 . S
C1052 H1044 0.929 . S
C1052 C1053 1.377 . S
C1052 C1054 1.384 . S
C1053 C1052 1.377 . S
C1053 C1059 1.390 . S
C1054 H1045 0.930 . S
C1054 C1052 1.384 . S
C1054 C1055 1.372 . S
C1055 C1054 1.372 . S
C1055 C1056 1.400 . S
C1055 C1060 1.490 . S
C1056 H1046 0.930 . S
C1056 C1055 1.400 . S
C1056 C1059 1.386 . S
H1057 C1073 0.930 . S
H1058 C1074 0.931 . S
C1059 H1047 0.929 . S
C1059 C1053 1.390 . S
C1059 C1056 1.386 . S
C1060 C1055 1.490 . S
C1060 C1062 1.395 . S
C1060 C1063 1.403 . S
H1061 C1067 0.930 . S
C1062 H1048 0.930 . S
C1062 C1060 1.395 . S
C1062 C1065 1.403 . S
C1063 C1060 1.403 . S
C1063 C1064 1.524 . S
C1063 C1067 1.400 . S
C1064 H1049 0.960 . S
C1064 H1050 0.960 . S
C1064 H1051 0.960 . S
C1064 C1063 1.524 . S
C1065 C1062 1.403 . S
C1065 C1066 1.392 . S
C1065 C1069 1.495 . S
C1066 C1065 1.392 . S
C1066 C1067 1.385 . S
C1066 C1068 1.478 . S
C1067 H1061 0.930 . S
C1067 C1063 1.400 . S
C1067 C1066 1.385 . S
C1068 C1066 1.478 . S
C1068 C1070 1.381 . S
C1068 C1074 1.383 . S
C1069 C1065 1.495 . S
C1069 H1075 0.959 . S
C1069 H1076 0.961 . S
C1069 H1077 0.960 . S
C1070 C1068 1.381 . S
C1070 C1071 1.394 . S
C1070 H1078 0.930 . S
C1071 C1070 1.394 . S
C1071 C1072 1.383 . S
C1071 H1079 0.929 . S
C1072 C1071 1.383 . S
C1072 C1073 1.377 . S
C1073 H1057 0.930 . S
C1073 C1072 1.377 . S
C1073 C1074 1.379 . S
C1074 H1058 0.931 . S
C1074 C1068 1.383 . S
C1074 C1073 1.379 . S
H1075 C1069 0.959 . S
H1076 C1069 0.961 . S
H1077 C1069 0.960 . S
H1078 C1070 0.930 . S
H1079 C1071 0.929 . S
H1080 C1088 0.929 . S
H1081 C1090 0.930 . S
H1082 C1092 0.930 . S
H1083 C1095 0.929 . S
H1084 C1098 0.930 . S
H1085 C1100 0.960 . S
H1086 C1100 0.960 . S
H1087 C1100 0.960 1_655 S
C1088 H1080 0.929 . S
C1088 C1089 1.377 . S
C1088 C1090 1.384 . S
C1089 C1088 1.377 . S
C1089 C1095 1.390 . S
C1090 H1081 0.930 . S
C1090 C1088 1.384 . S
C1090 C1091 1.372 . S
C1091 C1090 1.372 . S
C1091 C1092 1.400 . S
C1091 C1096 1.490 . S
C1092 H1082 0.930 . S
C1092 C1091 1.400 . S
C1092 C1095 1.386 . S
H1093 C1109 0.930 . S
H1094 C1110 0.931 . S
C1095 H1083 0.929 . S
C1095 C1089 1.390 . S
C1095 C1092 1.386 . S
C1096 C1091 1.490 . S
C1096 C1098 1.395 . S
C1096 C1099 1.403 1_655 S
H1097 C1103 0.930 . S
C1098 H1084 0.930 . S
C1098 C1096 1.395 . S
C1098 C1101 1.403 . S
C1099 C1096 1.403 1_455 S
C1099 C1100 1.524 . S
C1099 C1103 1.400 . S
C1100 H1085 0.960 . S
C1100 H1086 0.960 . S
C1100 H1087 0.960 1_455 S
C1100 C1099 1.524 . S
C1101 C1098 1.403 . S
C1101 C1102 1.392 1_655 S
C1101 C1105 1.495 . S
C1102 C1101 1.392 1_455 S
C1102 C1103 1.385 . S
C1102 C1104 1.478 . S
C1103 H1097 0.930 . S
C1103 C1099 1.400 . S
C1103 C1102 1.385 . S
C1104 C1102 1.478 . S
C1104 C1106 1.381 . S
C1104 C1110 1.383 . S
C1105 C1101 1.495 . S
C1105 H1111 0.959 . S
C1105 H1112 0.961 . S
C1105 H1113 0.960 1_655 S
C1106 C1104 1.381 . S
C1106 C1107 1.394 . S
C1106 H1114 0.930 . S
C1107 C1106 1.394 . S
C1107 C1108 1.383 . S
C1107 H1115 0.929 . S
C1108 C1107 1.383 . S
C1108 C1109 1.377 . S
C1109 H1093 0.930 . S
C1109 C1108 1.377 . S
C1109 C1110 1.379 . S
C1110 H1094 0.931 . S
C1110 C1104 1.383 . S
C1110 C1109 1.379 . S
H1111 C1105 0.959 . S
H1112 C1105 0.961 . S
H1113 C1105 0.960 1_455 S
H1114 C1106 0.930 . S
H1115 C1107 0.929 . S
H1116 C1124 0.929 . S
H1117 C1126 0.930 . S
H1118 C1128 0.930 . S
H1119 C1131 0.929 . S
H1120 C1134 0.930 . S
H1121 C1136 0.960 . S
H1122 C1136 0.960 . S
H1123 C1136 0.960 . S
C1124 H1116 0.929 . S
C1124 C1125 1.377 . S
C1124 C1126 1.384 . S
C1125 C1124 1.377 . S
C1125 C1131 1.390 . S
C1126 H1117 0.930 . S
C1126 C1124 1.384 . S
C1126 C1127 1.372 . S
C1127 C1126 1.372 . S
C1127 C1128 1.400 . S
C1127 C1132 1.490 . S
C1128 H1118 0.930 . S
C1128 C1127 1.400 . S
C1128 C1131 1.386 . S
H1129 C1145 0.930 . S
H1130 C1146 0.931 . S
C1131 H1119 0.929 . S
C1131 C1125 1.390 . S
C1131 C1128 1.386 . S
C1132 C1127 1.490 . S
C1132 C1134 1.395 1_655 S
C1132 C1135 1.403 . S
H1133 C1139 0.930 . S
C1134 H1120 0.930 . S
C1134 C1132 1.395 1_455 S
C1134 C1137 1.403 . S
C1135 C1132 1.403 . S
C1135 C1136 1.524 . S
C1135 C1139 1.402 . S
C1136 H1121 0.960 . S
C1136 H1122 0.960 . S
C1136 H1123 0.960 . S
C1136 C1135 1.524 . S
C1137 C1134 1.403 . S
C1137 C1138 1.392 . S
C1137 C1141 1.495 . S
C1138 C1137 1.392 . S
C1138 C1139 1.384 1_455 S
C1138 C1140 1.478 . S
C1139 H1133 0.930 . S
C1139 C1135 1.402 . S
C1139 C1138 1.384 1_655 S
C1140 C1138 1.478 . S
C1140 C1142 1.381 . S
C1140 C1146 1.383 . S
C1141 C1137 1.495 . S
C1141 H1147 0.959 . S
C1141 H1148 0.961 . S
C1141 H1149 0.960 . S
C1142 C1140 1.381 . S
C1142 C1143 1.394 . S
C1142 H1150 0.930 . S
C1143 C1142 1.394 . S
C1143 C1144 1.383 . S
C1143 H1151 0.929 . S
C1144 C1143 1.383 . S
C1144 C1145 1.377 . S
C1145 H1129 0.930 . S
C1145 C1144 1.377 . S
C1145 C1146 1.379 . S
C1146 H1130 0.931 . S
C1146 C1140 1.383 . S
C1146 C1145 1.379 . S
H1147 C1141 0.959 . S
H1148 C1141 0.961 . S
H1149 C1141 0.960 . S
H1150 C1142 0.930 . S
H1151 C1143 0.929 . S
H1152 C1160 0.929 . S
H1153 C1162 0.930 . S
H1154 C1164 0.930 . S
H1155 C1167 0.929 . S
H1156 C1170 0.930 . S
H1157 C1172 0.960 . S
H1158 C1172 0.960 . S
H1159 C1172 0.960 . S
C1160 H1152 0.929 . S
C1160 C1161 1.377 . S
C1160 C1162 1.384 . S
C1161 C1160 1.377 . S
C1161 C1167 1.390 . S
C1162 H1153 0.930 . S
C1162 C1160 1.384 . S
C1162 C1163 1.372 . S
C1163 C1162 1.372 . S
C1163 C1164 1.400 . S
C1163 C1168 1.490 . S
C1164 H1154 0.930 . S
C1164 C1163 1.400 . S
C1164 C1167 1.386 . S
H1165 C1181 0.930 . S
H1166 C1182 0.931 . S
C1167 H1155 0.929 . S
C1167 C1161 1.390 . S
C1167 C1164 1.386 . S
C1168 C1163 1.490 . S
C1168 C1170 1.395 1_545 S
C1168 C1171 1.403 . S
H1169 C1175 0.930 . S
C1170 H1156 0.930 . S
C1170 C1168 1.395 1_565 S
C1170 C1173 1.403 . S
C1171 C1168 1.403 . S
C1171 C1172 1.524 . S
C1171 C1175 1.400 1_545 S
C1172 H1157 0.960 . S
C1172 H1158 0.960 . S
C1172 H1159 0.960 . S
C1172 C1171 1.524 . S
C1173 C1170 1.403 . S
C1173 C1174 1.392 . S
C1173 C1177 1.495 . S
C1174 C1173 1.392 . S
C1174 C1175 1.385 . S
C1174 C1176 1.478 . S
C1175 H1169 0.930 . S
C1175 C1171 1.400 1_565 S
C1175 C1174 1.385 . S
C1176 C1174 1.478 . S
C1176 C1178 1.381 . S
C1176 C1182 1.383 . S
C1177 C1173 1.495 . S
C1177 H1183 0.959 . S
C1177 H1184 0.961 . S
C1177 H1185 0.960 . S
C1178 C1176 1.381 . S
C1178 C1179 1.394 . S
C1178 H1186 0.930 . S
C1179 C1178 1.394 . S
C1179 C1180 1.383 . S
C1179 H1187 0.929 . S
C1180 C1179 1.383 . S
C1180 C1181 1.377 . S
C1181 H1165 0.930 . S
C1181 C1180 1.377 . S
C1181 C1182 1.379 . S
C1182 H1166 0.931 . S
C1182 C1176 1.383 . S
C1182 C1181 1.379 . S
H1183 C1177 0.959 . S
H1184 C1177 0.961 . S
H1185 C1177 0.960 . S
H1186 C1178 0.930 . S
H1187 C1179 0.929 . S
H1188 C1196 0.929 . S
H1189 C1198 0.930 . S
H1190 C1200 0.930 . S
H1191 C1203 0.929 . S
H1192 C1206 0.930 . S
H1193 C1208 0.960 . S
H1194 C1208 0.960 . S
H1195 C1208 0.960 . S
C1196 H1188 0.929 . S
C1196 C1197 1.377 . S
C1196 C1198 1.384 . S
C1197 C1196 1.377 . S
C1197 C1203 1.390 . S
C1198 H1189 0.930 . S
C1198 C1196 1.384 . S
C1198 C1199 1.372 . S
C1199 C1198 1.372 . S
C1199 C1200 1.400 . S
C1199 C1204 1.490 . S
C1200 H1190 0.930 . S
C1200 C1199 1.400 . S
C1200 C1203 1.386 . S
H1201 C1217 0.930 . S
H1202 C1218 0.931 . S
C1203 H1191 0.929 . S
C1203 C1197 1.390 . S
C1203 C1200 1.386 . S
C1204 C1199 1.490 . S
C1204 C1206 1.395 . S
C1204 C1207 1.403 . S
H1205 C1211 0.930 . S
C1206 H1192 0.930 . S
C1206 C1204 1.395 . S
C1206 C1209 1.403 . S
C1207 C1204 1.403 . S
C1207 C1208 1.524 . S
C1207 C1211 1.400 . S
C1208 H1193 0.960 . S
C1208 H1194 0.960 . S
C1208 H1195 0.960 . S
C1208 C1207 1.524 . S
C1209 C1206 1.403 . S
C1209 C1210 1.392 . S
C1209 C1213 1.495 . S
C1210 C1209 1.392 . S
C1210 C1211 1.385 . S
C1210 C1212 1.478 . S
C1211 H1205 0.930 . S
C1211 C1207 1.400 . S
C1211 C1210 1.385 . S
C1212 C1210 1.478 . S
C1212 C1214 1.381 . S
C1212 C1218 1.383 . S
C1213 C1209 1.495 . S
C1213 H1219 0.959 . S
C1213 H1220 0.961 . S
C1213 H1221 0.960 . S
C1214 C1212 1.381 . S
C1214 C1215 1.394 . S
C1214 H1222 0.930 . S
C1215 C1214 1.394 . S
C1215 C1216 1.383 . S
C1215 H1223 0.929 . S
C1216 C1215 1.383 . S
C1216 C1217 1.377 . S
C1217 H1201 0.930 . S
C1217 C1216 1.377 . S
C1217 C1218 1.379 . S
C1218 H1202 0.931 . S
C1218 C1212 1.383 . S
C1218 C1217 1.379 . S
H1219 C1213 0.959 . S
H1220 C1213 0.961 . S
H1221 C1213 0.960 . S
H1222 C1214 0.930 . S
H1223 C1215 0.929 . S
H1224 C1232 0.929 . S
H1225 C1234 0.930 . S
H1226 C1236 0.930 . S
H1227 C1239 0.929 . S
H1228 C1242 0.930 . S
H1229 C1244 0.960 . S
H1230 C1244 0.960 . S
H1231 C1244 0.960 . S
C1232 H1224 0.929 . S
C1232 C1233 1.377 . S
C1232 C1234 1.384 . S
C1233 C1232 1.377 . S
C1233 C1239 1.390 . S
C1234 H1225 0.930 . S
C1234 C1232 1.384 . S
C1234 C1235 1.372 . S
C1235 C1234 1.372 . S
C1235 C1236 1.400 . S
C1235 C1240 1.490 . S
C1236 H1226 0.930 . S
C1236 C1235 1.400 . S
C1236 C1239 1.386 . S
H1237 C1253 0.930 . S
H1238 C1254 0.931 . S
C1239 H1227 0.929 . S
C1239 C1233 1.390 . S
C1239 C1236 1.386 . S
C1240 C1235 1.490 . S
C1240 C1242 1.395 . S
C1240 C1243 1.403 . S
H1241 C1247 0.930 . S
C1242 H1228 0.930 . S
C1242 C1240 1.395 . S
C1242 C1245 1.403 . S
C1243 C1240 1.403 . S
C1243 C1244 1.524 . S
C1243 C1247 1.400 . S
C1244 H1229 0.960 . S
C1244 H1230 0.960 . S
C1244 H1231 0.960 . S
C1244 C1243 1.524 . S
C1245 C1242 1.403 . S
C1245 C1246 1.392 . S
C1245 C1249 1.495 . S
C1246 C1245 1.392 . S
C1246 C1247 1.385 . S
C1246 C1248 1.478 . S
C1247 H1241 0.930 . S
C1247 C1243 1.400 . S
C1247 C1246 1.385 . S
C1248 C1246 1.478 . S
C1248 C1250 1.381 . S
C1248 C1254 1.383 . S
C1249 C1245 1.495 . S
C1249 H1255 0.959 . S
C1249 H1256 0.961 . S
C1249 H1257 0.960 . S
C1250 C1248 1.381 . S
C1250 C1251 1.394 . S
C1250 H1258 0.930 . S
C1251 C1250 1.394 . S
C1251 C1252 1.383 . S
C1251 H1259 0.929 . S
C1252 C1251 1.383 . S
C1252 C1253 1.377 . S
C1253 H1237 0.930 . S
C1253 C1252 1.377 . S
C1253 C1254 1.379 . S
C1254 H1238 0.931 . S
C1254 C1248 1.383 . S
C1254 C1253 1.379 . S
H1255 C1249 0.959 . S
H1256 C1249 0.961 . S
H1257 C1249 0.960 . S
H1258 C1250 0.930 . S
H1259 C1251 0.929 . S
H1260 C1268 0.929 . S
H1261 C1270 0.930 . S
H1262 C1272 0.930 . S
H1263 C1275 0.929 . S
H1264 C1278 0.930 . S
H1265 C1280 0.960 . S
H1266 C1280 0.960 . S
H1267 C1280 0.960 . S
C1268 H1260 0.929 . S
C1268 C1269 1.377 . S
C1268 C1270 1.384 . S
C1269 C1268 1.377 . S
C1269 C1275 1.390 . S
C1270 H1261 0.930 . S
C1270 C1268 1.384 . S
C1270 C1271 1.372 . S
C1271 C1270 1.372 . S
C1271 C1272 1.400 . S
C1271 C1276 1.490 . S
C1272 H1262 0.930 . S
C1272 C1271 1.400 . S
C1272 C1275 1.386 . S
H1273 C1289 0.930 . S
H1274 C1290 0.931 . S
C1275 H1263 0.929 . S
C1275 C1269 1.390 . S
C1275 C1272 1.386 . S
C1276 C1271 1.490 . S
C1276 C1278 1.395 . S
C1276 C1279 1.403 . S
H1277 C1283 0.930 . S
C1278 H1264 0.930 . S
C1278 C1276 1.395 . S
C1278 C1281 1.403 . S
C1279 C1276 1.403 . S
C1279 C1280 1.524 . S
C1279 C1283 1.400 . S
C1280 H1265 0.960 . S
C1280 H1266 0.960 . S
C1280 H1267 0.960 . S
C1280 C1279 1.524 . S
C1281 C1278 1.403 . S
C1281 C1282 1.392 . S
C1281 C1285 1.495 . S
C1282 C1281 1.392 . S
C1282 C1283 1.385 . S
C1282 C1284 1.478 . S
C1283 H1277 0.930 . S
C1283 C1279 1.400 . S
C1283 C1282 1.385 . S
C1284 C1282 1.478 . S
C1284 C1286 1.381 . S
C1284 C1290 1.383 . S
C1285 C1281 1.495 . S
C1285 H1291 0.959 . S
C1285 H1292 0.961 . S
C1285 H1293 0.960 . S
C1286 C1284 1.381 . S
C1286 C1287 1.394 . S
C1286 H1294 0.930 . S
C1287 C1286 1.394 . S
C1287 C1288 1.383 . S
C1287 H1295 0.929 . S
C1288 C1287 1.383 . S
C1288 C1289 1.377 . S
C1289 H1273 0.930 . S
C1289 C1288 1.377 . S
C1289 C1290 1.379 . S
C1290 H1274 0.931 . S
C1290 C1284 1.383 . S
C1290 C1289 1.379 . S
H1291 C1285 0.959 . S
H1292 C1285 0.961 . S
H1293 C1285 0.960 . S
H1294 C1286 0.930 . S
H1295 C1287 0.929 . S
H1296 C1304 0.929 . S
H1297 C1306 0.930 . S
H1298 C1308 0.930 . S
H1299 C1311 0.929 . S
H1300 C1314 0.930 . S
H1301 C1316 0.960 . S
H1302 C1316 0.960 . S
H1303 C1316 0.960 . S
C1304 H1296 0.929 . S
C1304 C1305 1.377 . S
C1304 C1306 1.384 . S
C1305 C1304 1.377 . S
C1305 C1311 1.390 . S
C1306 H1297 0.930 . S
C1306 C1304 1.384 . S
C1306 C1307 1.372 . S
C1307 C1306 1.372 . S
C1307 C1308 1.400 . S
C1307 C1312 1.490 . S
C1308 H1298 0.930 . S
C1308 C1307 1.400 . S
C1308 C1311 1.386 . S
H1309 C1325 0.930 . S
H1310 C1326 0.931 . S
C1311 H1299 0.929 . S
C1311 C1305 1.390 . S
C1311 C1308 1.386 . S
C1312 C1307 1.490 . S
C1312 C1314 1.395 . S
C1312 C1315 1.403 . S
H1313 C1319 0.930 . S
C1314 H1300 0.930 . S
C1314 C1312 1.395 . S
C1314 C1317 1.403 . S
C1315 C1312 1.403 . S
C1315 C1316 1.524 . S
C1315 C1319 1.400 . S
C1316 H1301 0.960 . S
C1316 H1302 0.960 . S
C1316 H1303 0.960 . S
C1316 C1315 1.524 . S
C1317 C1314 1.403 . S
C1317 C1318 1.392 . S
C1317 C1321 1.495 . S
C1318 C1317 1.392 . S
C1318 C1319 1.385 . S
C1318 C1320 1.478 . S
C1319 H1313 0.930 . S
C1319 C1315 1.400 . S
C1319 C1318 1.385 . S
C1320 C1318 1.478 . S
C1320 C1322 1.381 . S
C1320 C1326 1.383 . S
C1321 C1317 1.495 . S
C1321 H1327 0.959 . S
C1321 H1328 0.961 . S
C1321 H1329 0.960 . S
C1322 C1320 1.381 . S
C1322 C1323 1.394 . S
C1322 H1330 0.930 . S
C1323 C1322 1.394 . S
C1323 C1324 1.383 . S
C1323 H1331 0.929 . S
C1324 C1323 1.383 . S
C1324 C1325 1.377 . S
C1325 H1309 0.930 . S
C1325 C1324 1.377 . S
C1325 C1326 1.379 . S
C1326 H1310 0.931 . S
C1326 C1320 1.383 . S
C1326 C1325 1.379 . S
H1327 C1321 0.959 . S
H1328 C1321 0.961 . S
H1329 C1321 0.960 . S
H1330 C1322 0.930 . S
H1331 C1323 0.929 . S
H1332 C1340 0.929 . S
H1333 C1342 0.930 . S
H1334 C1344 0.930 . S
H1335 C1347 0.929 . S
H1336 C1350 0.930 . S
H1337 C1352 0.960 . S
H1338 C1352 0.960 . S
H1339 C1352 0.960 . S
C1340 H1332 0.929 . S
C1340 C1341 1.377 . S
C1340 C1342 1.384 . S
C1341 C1340 1.377 . S
C1341 C1347 1.390 . S
C1342 H1333 0.930 . S
C1342 C1340 1.384 . S
C1342 C1343 1.372 . S
C1343 C1342 1.372 . S
C1343 C1344 1.400 . S
C1343 C1348 1.490 . S
C1344 H1334 0.930 . S
C1344 C1343 1.400 . S
C1344 C1347 1.386 . S
H1345 C1361 0.930 . S
H1346 C1362 0.931 . S
C1347 H1335 0.929 . S
C1347 C1341 1.390 . S
C1347 C1344 1.386 . S
C1348 C1343 1.490 . S
C1348 C1350 1.395 . S
C1348 C1351 1.403 . S
H1349 C1355 0.930 . S
C1350 H1336 0.930 . S
C1350 C1348 1.395 . S
C1350 C1353 1.403 . S
C1351 C1348 1.403 . S
C1351 C1352 1.524 . S
C1351 C1355 1.400 . S
C1352 H1337 0.960 . S
C1352 H1338 0.960 . S
C1352 H1339 0.960 . S
C1352 C1351 1.524 . S
C1353 C1350 1.403 . S
C1353 C1354 1.392 . S
C1353 C1357 1.495 . S
C1354 C1353 1.392 . S
C1354 C1355 1.385 . S
C1354 C1356 1.478 . S
C1355 H1349 0.930 . S
C1355 C1351 1.400 . S
C1355 C1354 1.385 . S
C1356 C1354 1.478 . S
C1356 C1358 1.381 . S
C1356 C1362 1.383 . S
C1357 C1353 1.495 . S
C1357 H1363 0.959 . S
C1357 H1364 0.961 . S
C1357 H1365 0.960 . S
C1358 C1356 1.381 . S
C1358 C1359 1.394 . S
C1358 H1366 0.930 . S
C1359 C1358 1.394 . S
C1359 C1360 1.383 . S
C1359 H1367 0.929 . S
C1360 C1359 1.383 . S
C1360 C1361 1.377 . S
C1361 H1345 0.930 . S
C1361 C1360 1.377 . S
C1361 C1362 1.379 . S
C1362 H1346 0.931 . S
C1362 C1356 1.383 . S
C1362 C1361 1.379 . S
H1363 C1357 0.959 . S
H1364 C1357 0.961 . S
H1365 C1357 0.960 . S
H1366 C1358 0.930 . S
H1367 C1359 0.929 . S
H1368 C1376 0.929 . S
H1369 C1378 0.930 . S
H1370 C1380 0.930 . S
H1371 C1383 0.929 . S
H1372 C1386 0.930 . S
H1373 C1388 0.960 . S
H1374 C1388 0.960 . S
H1375 C1388 0.960 . S
C1376 H1368 0.929 . S
C1376 C1377 1.377 . S
C1376 C1378 1.384 . S
C1377 C1376 1.377 . S
C1377 C1383 1.390 . S
C1378 H1369 0.930 . S
C1378 C1376 1.384 . S
C1378 C1379 1.372 . S
C1379 C1378 1.372 . S
C1379 C1380 1.400 . S
C1379 C1384 1.490 . S
C1380 H1370 0.930 . S
C1380 C1379 1.400 . S
C1380 C1383 1.386 . S
H1381 C1397 0.930 . S
H1382 C1398 0.931 . S
C1383 H1371 0.929 . S
C1383 C1377 1.390 . S
C1383 C1380 1.386 . S
C1384 C1379 1.490 . S
C1384 C1386 1.395 . S
C1384 C1387 1.403 . S
H1385 C1391 0.930 . S
C1386 H1372 0.930 . S
C1386 C1384 1.395 . S
C1386 C1389 1.403 . S
C1387 C1384 1.403 . S
C1387 C1388 1.524 . S
C1387 C1391 1.400 . S
C1388 H1373 0.960 . S
C1388 H1374 0.960 . S
C1388 H1375 0.960 . S
C1388 C1387 1.524 . S
C1389 C1386 1.403 . S
C1389 C1390 1.392 . S
C1389 C1393 1.495 . S
C1390 C1389 1.392 . S
C1390 C1391 1.385 . S
C1390 C1392 1.478 . S
C1391 H1385 0.930 . S
C1391 C1387 1.400 . S
C1391 C1390 1.385 . S
C1392 C1390 1.478 . S
C1392 C1394 1.381 . S
C1392 C1398 1.383 . S
C1393 C1389 1.495 . S
C1393 H1399 0.959 . S
C1393 H1400 0.961 . S
C1393 H1401 0.960 . S
C1394 C1392 1.381 . S
C1394 C1395 1.394 . S
C1394 H1402 0.930 . S
C1395 C1394 1.394 . S
C1395 C1396 1.383 . S
C1395 H1403 0.929 . S
C1396 C1395 1.383 . S
C1396 C1397 1.377 . S
C1397 H1381 0.930 . S
C1397 C1396 1.377 . S
C1397 C1398 1.379 . S
C1398 H1382 0.931 . S
C1398 C1392 1.383 . S
C1398 C1397 1.379 . S
H1399 C1393 0.959 . S
H1400 C1393 0.961 . S
H1401 C1393 0.960 . S
H1402 C1394 0.930 . S
H1403 C1395 0.929 . S
H1404 C1412 0.929 . S
H1405 C1414 0.930 . S
H1406 C1416 0.930 . S
H1407 C1419 0.929 . S
H1408 C1422 0.930 . S
H1409 C1424 0.960 . S
H1410 C1424 0.960 . S
H1411 C1424 0.960 . S
C1412 H1404 0.929 . S
C1412 C1413 1.377 . S
C1412 C1414 1.384 . S
C1413 C1412 1.377 . S
C1413 C1419 1.390 . S
C1414 H1405 0.930 . S
C1414 C1412 1.384 . S
C1414 C1415 1.372 . S
C1415 C1414 1.372 . S
C1415 C1416 1.400 . S
C1415 C1420 1.490 . S
C1416 H1406 0.930 . S
C1416 C1415 1.400 . S
C1416 C1419 1.386 . S
H1417 C1433 0.930 . S
H1418 C1434 0.931 . S
C1419 H1407 0.929 . S
C1419 C1413 1.390 . S
C1419 C1416 1.386 . S
C1420 C1415 1.490 . S
C1420 C1422 1.395 . S
C1420 C1423 1.403 . S
H1421 C1427 0.930 . S
C1422 H1408 0.930 . S
C1422 C1420 1.395 . S
C1422 C1425 1.403 . S
C1423 C1420 1.403 . S
C1423 C1424 1.524 . S
C1423 C1427 1.400 . S
C1424 H1409 0.960 . S
C1424 H1410 0.960 . S
C1424 H1411 0.960 . S
C1424 C1423 1.524 . S
C1425 C1422 1.403 . S
C1425 C1426 1.392 . S
C1425 C1429 1.495 . S
C1426 C1425 1.392 . S
C1426 C1427 1.385 . S
C1426 C1428 1.478 . S
C1427 H1421 0.930 . S
C1427 C1423 1.400 . S
C1427 C1426 1.385 . S
C1428 C1426 1.478 . S
C1428 C1430 1.381 . S
C1428 C1434 1.383 . S
C1429 C1425 1.495 . S
C1429 H1435 0.959 . S
C1429 H1436 0.961 . S
C1429 H1437 0.960 . S
C1430 C1428 1.381 . S
C1430 C1431 1.394 . S
C1430 H1438 0.930 . S
C1431 C1430 1.394 . S
C1431 C1432 1.383 . S
C1431 H1439 0.929 . S
C1432 C1431 1.383 . S
C1432 C1433 1.377 . S
C1433 H1417 0.930 . S
C1433 C1432 1.377 . S
C1433 C1434 1.379 . S
C1434 H1418 0.931 . S
C1434 C1428 1.383 . S
C1434 C1433 1.379 . S
H1435 C1429 0.959 . S
H1436 C1429 0.961 . S
H1437 C1429 0.960 . S
H1438 C1430 0.930 . S
H1439 C1431 0.929 . S
H1440 C1448 0.929 . S
H1441 C1450 0.930 . S
H1442 C1452 0.930 . S
H1443 C1455 0.929 . S
H1444 C1458 0.930 . S
H1445 C1460 0.960 . S
H1446 C1460 0.960 . S
H1447 C1460 0.960 . S
C1448 H1440 0.929 . S
C1448 C1449 1.377 . S
C1448 C1450 1.384 . S
C1449 C1448 1.377 . S
C1449 C1455 1.390 . S
C1450 H1441 0.930 . S
C1450 C1448 1.384 . S
C1450 C1451 1.372 . S
C1451 C1450 1.372 . S
C1451 C1452 1.400 . S
C1451 C1456 1.490 . S
C1452 H1442 0.930 . S
C1452 C1451 1.400 . S
C1452 C1455 1.386 . S
H1453 C1469 0.930 . S
H1454 C1470 0.931 . S
C1455 H1443 0.929 . S
C1455 C1449 1.390 . S
C1455 C1452 1.386 . S
C1456 C1451 1.490 . S
C1456 C1458 1.395 . S
C1456 C1459 1.403 . S
H1457 C1463 0.930 . S
C1458 H1444 0.930 . S
C1458 C1456 1.395 . S
C1458 C1461 1.403 . S
C1459 C1456 1.403 . S
C1459 C1460 1.524 . S
C1459 C1463 1.400 . S
C1460 H1445 0.960 . S
C1460 H1446 0.960 . S
C1460 H1447 0.960 . S
C1460 C1459 1.524 . S
C1461 C1458 1.403 . S
C1461 C1462 1.392 . S
C1461 C1465 1.495 . S
C1462 C1461 1.392 . S
C1462 C1463 1.385 . S
C1462 C1464 1.478 . S
C1463 H1457 0.930 . S
C1463 C1459 1.400 . S
C1463 C1462 1.385 . S
C1464 C1462 1.478 . S
C1464 C1466 1.381 . S
C1464 C1470 1.383 . S
C1465 C1461 1.495 . S
C1465 H1471 0.959 . S
C1465 H1472 0.961 . S
C1465 H1473 0.960 . S
C1466 C1464 1.381 . S
C1466 C1467 1.394 . S
C1466 H1474 0.930 . S
C1467 C1466 1.394 . S
C1467 C1468 1.383 . S
C1467 H1475 0.929 . S
C1468 C1467 1.383 . S
C1468 C1469 1.377 . S
C1469 H1453 0.930 . S
C1469 C1468 1.377 . S
C1469 C1470 1.379 . S
C1470 H1454 0.931 . S
C1470 C1464 1.383 . S
C1470 C1469 1.379 . S
H1471 C1465 0.959 . S
H1472 C1465 0.961 . S
H1473 C1465 0.960 . S
H1474 C1466 0.930 . S
H1475 C1467 0.929 . S
H1476 C1484 0.929 . S
H1477 C1486 0.930 . S
H1478 C1488 0.930 . S
H1479 C1491 0.929 . S
H1480 C1494 0.930 . S
H1481 C1496 0.960 . S
H1482 C1496 0.960 . S
H1483 C1496 0.960 . S
C1484 H1476 0.929 . S
C1484 C1485 1.377 . S
C1484 C1486 1.384 . S
C1485 C1484 1.377 . S
C1485 C1491 1.390 . S
C1486 H1477 0.930 . S
C1486 C1484 1.384 . S
C1486 C1487 1.372 . S
C1487 C1486 1.372 . S
C1487 C1488 1.400 . S
C1487 C1492 1.490 . S
C1488 H1478 0.930 . S
C1488 C1487 1.400 . S
C1488 C1491 1.386 . S
H1489 C1505 0.930 . S
H1490 C1506 0.931 . S
C1491 H1479 0.929 . S
C1491 C1485 1.390 . S
C1491 C1488 1.386 . S
C1492 C1487 1.490 . S
C1492 C1494 1.395 . S
C1492 C1495 1.403 . S
H1493 C1499 0.930 . S
C1494 H1480 0.930 . S
C1494 C1492 1.395 . S
C1494 C1497 1.403 . S
C1495 C1492 1.403 . S
C1495 C1496 1.524 . S
C1495 C1499 1.400 . S
C1496 H1481 0.960 . S
C1496 H1482 0.960 . S
C1496 H1483 0.960 . S
C1496 C1495 1.524 . S
C1497 C1494 1.403 . S
C1497 C1498 1.392 . S
C1497 C1501 1.495 . S
C1498 C1497 1.392 . S
C1498 C1499 1.385 . S
C1498 C1500 1.478 . S
C1499 H1493 0.930 . S
C1499 C1495 1.400 . S
C1499 C1498 1.385 . S
C1500 C1498 1.478 . S
C1500 C1502 1.381 . S
C1500 C1506 1.383 . S
C1501 C1497 1.495 . S
C1501 H1507 0.959 . S
C1501 H1508 0.961 . S
C1501 H1509 0.960 . S
C1502 C1500 1.381 . S
C1502 C1503 1.394 . S
C1502 H1510 0.930 . S
C1503 C1502 1.394 . S
C1503 C1504 1.383 . S
C1503 H1511 0.929 . S
C1504 C1503 1.383 . S
C1504 C1505 1.377 . S
C1505 H1489 0.930 . S
C1505 C1504 1.377 . S
C1505 C1506 1.379 . S
C1506 H1490 0.931 . S
C1506 C1500 1.383 . S
C1506 C1505 1.379 . S
H1507 C1501 0.959 . S
H1508 C1501 0.961 . S
H1509 C1501 0.960 . S
H1510 C1502 0.930 . S
H1511 C1503 0.929 . S
H1512 C1520 0.929 . S
H1513 C1522 0.930 . S
H1514 C1524 0.930 . S
H1515 C1527 0.929 . S
H1516 C1530 0.930 . S
H1517 C1532 0.960 . S
H1518 C1532 0.960 . S
H1519 C1532 0.960 . S
C1520 H1512 0.929 . S
C1520 C1521 1.377 . S
C1520 C1522 1.384 . S
C1521 C1520 1.377 . S
C1521 C1527 1.390 . S
C1522 H1513 0.930 . S
C1522 C1520 1.384 . S
C1522 C1523 1.372 . S
C1523 C1522 1.372 . S
C1523 C1524 1.400 . S
C1523 C1528 1.490 . S
C1524 H1514 0.930 . S
C1524 C1523 1.400 . S
C1524 C1527 1.386 . S
H1525 C1541 0.930 . S
H1526 C1542 0.931 . S
C1527 H1515 0.929 . S
C1527 C1521 1.390 . S
C1527 C1524 1.386 . S
C1528 C1523 1.490 . S
C1528 C1530 1.395 . S
C1528 C1531 1.403 . S
H1529 C1535 0.930 . S
C1530 H1516 0.930 . S
C1530 C1528 1.395 . S
C1530 C1533 1.403 . S
C1531 C1528 1.403 . S
C1531 C1532 1.524 . S
C1531 C1535 1.400 . S
C1532 H1517 0.960 . S
C1532 H1518 0.960 . S
C1532 H1519 0.960 . S
C1532 C1531 1.524 . S
C1533 C1530 1.403 . S
C1533 C1534 1.392 . S
C1533 C1537 1.495 . S
C1534 C1533 1.392 . S
C1534 C1535 1.385 . S
C1534 C1536 1.478 . S
C1535 H1529 0.930 . S
C1535 C1531 1.400 . S
C1535 C1534 1.385 . S
C1536 C1534 1.478 . S
C1536 C1538 1.381 . S
C1536 C1542 1.383 . S
C1537 C1533 1.495 . S
C1537 H1543 0.959 . S
C1537 H1544 0.961 . S
C1537 H1545 0.960 . S
C1538 C1536 1.381 . S
C1538 C1539 1.394 . S
C1538 H1546 0.930 . S
C1539 C1538 1.394 . S
C1539 C1540 1.383 . S
C1539 H1547 0.929 . S
C1540 C1539 1.383 . S
C1540 C1541 1.377 . S
C1541 H1525 0.930 . S
C1541 C1540 1.377 . S
C1541 C1542 1.379 . S
C1542 H1526 0.931 . S
C1542 C1536 1.383 . S
C1542 C1541 1.379 . S
H1543 C1537 0.959 . S
H1544 C1537 0.961 . S
H1545 C1537 0.960 . S
H1546 C1538 0.930 . S
H1547 C1539 0.929 . S
H1548 C1556 0.929 . S
H1549 C1558 0.930 . S
H1550 C1560 0.930 . S
H1551 C1563 0.929 . S
H1552 C1566 0.930 . S
H1553 C1568 0.960 . S
H1554 C1568 0.960 . S
H1555 C1568 0.960 . S
C1556 H1548 0.929 . S
C1556 C1557 1.377 . S
C1556 C1558 1.384 . S
C1557 C1556 1.377 . S
C1557 C1563 1.390 . S
C1558 H1549 0.930 . S
C1558 C1556 1.384 . S
C1558 C1559 1.372 . S
C1559 C1558 1.372 . S
C1559 C1560 1.400 . S
C1559 C1564 1.490 . S
C1560 H1550 0.930 . S
C1560 C1559 1.400 . S
C1560 C1563 1.386 . S
H1561 C1577 0.930 . S
H1562 C1578 0.931 . S
C1563 H1551 0.929 . S
C1563 C1557 1.390 . S
C1563 C1560 1.386 . S
C1564 C1559 1.490 . S
C1564 C1566 1.395 . S
C1564 C1567 1.403 . S
H1565 C1571 0.930 . S
C1566 H1552 0.930 . S
C1566 C1564 1.395 . S
C1566 C1569 1.403 . S
C1567 C1564 1.403 . S
C1567 C1568 1.524 . S
C1567 C1571 1.400 . S
C1568 H1553 0.960 . S
C1568 H1554 0.960 . S
C1568 H1555 0.960 . S
C1568 C1567 1.524 . S
C1569 C1566 1.403 . S
C1569 C1570 1.392 . S
C1569 C1573 1.495 . S
C1570 C1569 1.392 . S
C1570 C1571 1.385 . S
C1570 C1572 1.478 . S
C1571 H1565 0.930 . S
C1571 C1567 1.400 . S
C1571 C1570 1.385 . S
C1572 C1570 1.478 . S
C1572 C1574 1.381 . S
C1572 C1578 1.383 . S
C1573 C1569 1.495 . S
C1573 H1579 0.959 . S
C1573 H1580 0.961 . S
C1573 H1581 0.960 . S
C1574 C1572 1.381 . S
C1574 C1575 1.394 . S
C1574 H1582 0.930 . S
C1575 C1574 1.394 . S
C1575 C1576 1.383 . S
C1575 H1583 0.929 . S
C1576 C1575 1.383 . S
C1576 C1577 1.377 . S
C1577 H1561 0.930 . S
C1577 C1576 1.377 . S
C1577 C1578 1.379 . S
C1578 H1562 0.931 . S
C1578 C1572 1.383 . S
C1578 C1577 1.379 . S
H1579 C1573 0.959 . S
H1580 C1573 0.961 . S
H1581 C1573 0.960 . S
H1582 C1574 0.930 . S
H1583 C1575 0.929 . S
H1584 C1592 0.929 . S
H1585 C1594 0.930 . S
H1586 C1596 0.930 . S
H1587 C1599 0.929 . S
H1588 C1602 0.930 . S
H1589 C1604 0.960 . S
H1590 C1604 0.960 . S
H1591 C1604 0.960 . S
C1592 H1584 0.929 . S
C1592 C1593 1.377 . S
C1592 C1594 1.384 . S
C1593 C1592 1.377 . S
C1593 C1599 1.390 . S
C1594 H1585 0.930 . S
C1594 C1592 1.384 . S
C1594 C1595 1.372 . S
C1595 C1594 1.372 . S
C1595 C1596 1.400 . S
C1595 C1600 1.490 . S
C1596 H1586 0.930 . S
C1596 C1595 1.400 . S
C1596 C1599 1.386 . S
H1597 C1613 0.930 . S
H1598 C1614 0.931 . S
C1599 H1587 0.929 . S
C1599 C1593 1.390 . S
C1599 C1596 1.386 . S
C1600 C1595 1.490 . S
C1600 C1602 1.395 . S
C1600 C1603 1.403 . S
H1601 C1607 0.930 . S
C1602 H1588 0.930 . S
C1602 C1600 1.395 . S
C1602 C1605 1.403 . S
C1603 C1600 1.403 . S
C1603 C1604 1.524 . S
C1603 C1607 1.400 . S
C1604 H1589 0.960 . S
C1604 H1590 0.960 . S
C1604 H1591 0.960 . S
C1604 C1603 1.524 . S
C1605 C1602 1.403 . S
C1605 C1606 1.392 . S
C1605 C1609 1.495 . S
C1606 C1605 1.392 . S
C1606 C1607 1.385 . S
C1606 C1608 1.478 . S
C1607 H1601 0.930 . S
C1607 C1603 1.400 . S
C1607 C1606 1.385 . S
C1608 C1606 1.478 . S
C1608 C1610 1.381 . S
C1608 C1614 1.383 . S
C1609 C1605 1.495 . S
C1609 H1615 0.959 . S
C1609 H1616 0.961 . S
C1609 H1617 0.960 . S
C1610 C1608 1.381 . S
C1610 C1611 1.394 . S
C1610 H1618 0.930 . S
C1611 C1610 1.394 . S
C1611 C1612 1.383 . S
C1611 H1619 0.929 . S
C1612 C1611 1.383 . S
C1612 C1613 1.377 . S
C1613 H1597 0.930 . S
C1613 C1612 1.377 . S
C1613 C1614 1.379 . S
C1614 H1598 0.931 . S
C1614 C1608 1.383 . S
C1614 C1613 1.379 . S
H1615 C1609 0.959 . S
H1616 C1609 0.961 . S
H1617 C1609 0.960 . S
H1618 C1610 0.930 . S
H1619 C1611 0.929 . S
H1620 C1628 0.929 . S
H1621 C1630 0.930 . S
H1622 C1632 0.930 . S
H1623 C1635 0.929 . S
H1624 C1638 0.930 . S
H1625 C1640 0.960 . S
H1626 C1640 0.960 . S
H1627 C1640 0.960 . S
C1628 H1620 0.929 . S
C1628 C1629 1.377 . S
C1628 C1630 1.384 . S
C1629 C1628 1.377 . S
C1629 C1635 1.390 . S
C1630 H1621 0.930 . S
C1630 C1628 1.384 . S
C1630 C1631 1.372 . S
C1631 C1630 1.372 . S
C1631 C1632 1.400 . S
C1631 C1636 1.490 . S
C1632 H1622 0.930 . S
C1632 C1631 1.400 . S
C1632 C1635 1.386 . S
H1633 C1649 0.930 . S
H1634 C1650 0.931 . S
C1635 H1623 0.929 . S
C1635 C1629 1.390 . S
C1635 C1632 1.386 . S
C1636 C1631 1.490 . S
C1636 C1638 1.395 . S
C1636 C1639 1.403 . S
H1637 C1643 0.930 . S
C1638 H1624 0.930 . S
C1638 C1636 1.395 . S
C1638 C1641 1.403 . S
C1639 C1636 1.403 . S
C1639 C1640 1.524 . S
C1639 C1643 1.400 . S
C1640 H1625 0.960 . S
C1640 H1626 0.960 . S
C1640 H1627 0.960 . S
C1640 C1639 1.524 . S
C1641 C1638 1.403 . S
C1641 C1642 1.392 . S
C1641 C1645 1.495 . S
C1642 C1641 1.392 . S
C1642 C1643 1.385 . S
C1642 C1644 1.478 . S
C1643 H1637 0.930 . S
C1643 C1639 1.400 . S
C1643 C1642 1.385 . S
C1644 C1642 1.478 . S
C1644 C1646 1.381 . S
C1644 C1650 1.383 . S
C1645 C1641 1.495 . S
C1645 H1651 0.959 . S
C1645 H1652 0.961 . S
C1645 H1653 0.960 . S
C1646 C1644 1.381 . S
C1646 C1647 1.394 . S
C1646 H1654 0.930 . S
C1647 C1646 1.394 . S
C1647 C1648 1.383 . S
C1647 H1655 0.929 . S
C1648 C1647 1.383 . S
C1648 C1649 1.377 . S
C1649 H1633 0.930 . S
C1649 C1648 1.377 . S
C1649 C1650 1.379 . S
C1650 H1634 0.931 . S
C1650 C1644 1.383 . S
C1650 C1649 1.379 . S
H1651 C1645 0.959 . S
H1652 C1645 0.961 . S
H1653 C1645 0.960 . S
H1654 C1646 0.930 . S
H1655 C1647 0.929 . S
H1656 C1664 0.929 . S
H1657 C1666 0.930 . S
H1658 C1668 0.930 . S
H1659 C1671 0.929 . S
H1660 C1674 0.930 . S
H1661 C1676 0.960 . S
H1662 C1676 0.960 . S
H1663 C1676 0.960 . S
C1664 H1656 0.929 . S
C1664 C1665 1.377 . S
C1664 C1666 1.384 . S
C1665 C1664 1.377 . S
C1665 C1671 1.390 . S
C1666 H1657 0.930 . S
C1666 C1664 1.384 . S
C1666 C1667 1.372 . S
C1667 C1666 1.372 . S
C1667 C1668 1.400 . S
C1667 C1672 1.490 . S
C1668 H1658 0.930 . S
C1668 C1667 1.400 . S
C1668 C1671 1.386 . S
H1669 C1685 0.930 . S
H1670 C1686 0.931 . S
C1671 H1659 0.929 . S
C1671 C1665 1.390 . S
C1671 C1668 1.386 . S
C1672 C1667 1.490 . S
C1672 C1674 1.395 . S
C1672 C1675 1.403 . S
H1673 C1679 0.930 . S
C1674 H1660 0.930 . S
C1674 C1672 1.395 . S
C1674 C1677 1.403 1_545 S
C1675 C1672 1.403 . S
C1675 C1676 1.524 . S
C1675 C1679 1.400 1_545 S
C1676 H1661 0.960 . S
C1676 H1662 0.960 . S
C1676 H1663 0.960 . S
C1676 C1675 1.524 . S
C1677 C1674 1.403 1_565 S
C1677 C1678 1.392 . S
C1677 C1681 1.495 . S
C1678 C1677 1.392 . S
C1678 C1679 1.385 . S
C1678 C1680 1.478 . S
C1679 H1673 0.930 . S
C1679 C1675 1.400 1_565 S
C1679 C1678 1.385 . S
C1680 C1678 1.478 . S
C1680 C1682 1.381 . S
C1680 C1686 1.383 . S
C1681 C1677 1.495 . S
C1681 H1687 0.959 . S
C1681 H1688 0.961 . S
C1681 H1689 0.960 . S
C1682 C1680 1.381 . S
C1682 C1683 1.394 . S
C1682 H1690 0.930 . S
C1683 C1682 1.394 . S
C1683 C1684 1.383 . S
C1683 H1691 0.929 . S
C1684 C1683 1.383 . S
C1684 C1685 1.377 . S
C1685 H1669 0.930 . S
C1685 C1684 1.377 . S
C1685 C1686 1.379 . S
C1686 H1670 0.931 . S
C1686 C1680 1.383 . S
C1686 C1685 1.379 . S
H1687 C1681 0.959 . S
H1688 C1681 0.961 . S
H1689 C1681 0.960 . S
H1690 C1682 0.930 . S
H1691 C1683 0.929 . S
H1692 C1700 0.929 . S
H1693 C1702 0.930 . S
H1694 C1704 0.930 . S
H1695 C1707 0.929 . S
H1696 C1710 0.930 . S
H1697 C1712 0.960 . S
H1698 C1712 0.960 . S
H1699 C1712 0.960 . S
C1700 H1692 0.929 . S
C1700 C1701 1.377 . S
C1700 C1702 1.384 . S
C1701 C1700 1.377 . S
C1701 C1707 1.390 . S
C1702 H1693 0.930 . S
C1702 C1700 1.384 . S
C1702 C1703 1.372 . S
C1703 C1702 1.372 . S
C1703 C1704 1.400 . S
C1703 C1708 1.490 . S
C1704 H1694 0.930 . S
C1704 C1703 1.400 . S
C1704 C1707 1.386 . S
H1705 C1721 0.930 . S
H1706 C1722 0.931 . S
C1707 H1695 0.929 . S
C1707 C1701 1.390 . S
C1707 C1704 1.386 . S
C1708 C1703 1.490 . S
C1708 C1710 1.395 . S
C1708 C1711 1.403 . S
H1709 C1715 0.930 . S
C1710 H1696 0.930 . S
C1710 C1708 1.395 . S
C1710 C1713 1.403 . S
C1711 C1708 1.403 . S
C1711 C1712 1.524 . S
C1711 C1715 1.400 . S
C1712 H1697 0.960 . S
C1712 H1698 0.960 . S
C1712 H1699 0.960 . S
C1712 C1711 1.524 . S
C1713 C1710 1.403 . S
C1713 C1714 1.392 . S
C1713 C1717 1.495 . S
C1714 C1713 1.392 . S
C1714 C1715 1.385 . S
C1714 C1716 1.478 . S
C1715 H1709 0.930 . S
C1715 C1711 1.400 . S
C1715 C1714 1.385 . S
C1716 C1714 1.478 . S
C1716 C1718 1.381 . S
C1716 C1722 1.383 . S
C1717 C1713 1.495 . S
C1717 H1723 0.959 . S
C1717 H1724 0.961 . S
C1717 H1725 0.960 . S
C1718 C1716 1.381 . S
C1718 C1719 1.394 . S
C1718 H1726 0.930 . S
C1719 C1718 1.394 . S
C1719 C1720 1.383 . S
C1719 H1727 0.929 . S
C1720 C1719 1.383 . S
C1720 C1721 1.377 . S
C1721 H1705 0.930 . S
C1721 C1720 1.377 . S
C1721 C1722 1.379 . S
C1722 H1706 0.931 . S
C1722 C1716 1.383 . S
C1722 C1721 1.379 . S
H1723 C1717 0.959 . S
H1724 C1717 0.961 . S
H1725 C1717 0.960 . S
H1726 C1718 0.930 . S
H1727 C1719 0.929 . S
H1728 C1736 0.929 . S
H1729 C1738 0.930 . S
H1730 C1740 0.930 . S
H1731 C1743 0.929 . S
H1732 C1746 0.930 . S
H1733 C1748 0.960 1_655 S
H1734 C1748 0.960 . S
H1735 C1748 0.960 . S
C1736 H1728 0.929 . S
C1736 C1737 1.377 . S
C1736 C1738 1.384 . S
C1737 C1736 1.377 . S
C1737 C1743 1.390 . S
C1738 H1729 0.930 . S
C1738 C1736 1.384 . S
C1738 C1739 1.372 . S
C1739 C1738 1.372 . S
C1739 C1740 1.400 . S
C1739 C1744 1.490 . S
C1740 H1730 0.930 . S
C1740 C1739 1.400 . S
C1740 C1743 1.386 . S
H1741 C1757 0.930 . S
H1742 C1758 0.931 . S
C1743 H1731 0.929 . S
C1743 C1737 1.390 . S
C1743 C1740 1.386 . S
C1744 C1739 1.490 . S
C1744 C1746 1.395 . S
C1744 C1747 1.403 . S
H1745 C1751 0.930 . S
C1746 H1732 0.930 . S
C1746 C1744 1.395 . S
C1746 C1749 1.445 . S
C1747 C1744 1.403 . S
C1747 C1748 1.524 . S
C1747 C1751 1.400 1_455 S
C1748 H1733 0.960 1_455 S
C1748 H1734 0.960 . S
C1748 H1735 0.960 . S
C1748 C1747 1.524 . S
C1749 C1746 1.445 . S
C1749 C1750 1.330 1_455 S
C1749 C1753 1.519 . S
C1750 C1749 1.330 1_655 S
C1750 C1751 1.385 . S
C1750 C1752 1.478 . S
C1751 H1745 0.930 . S
C1751 C1747 1.400 1_655 S
C1751 C1750 1.385 . S
C1752 C1750 1.478 . S
C1752 C1754 1.381 . S
C1752 C1758 1.383 . S
C1753 C1749 1.519 . S
C1753 H1759 0.959 . S
C1753 H1760 0.961 1_455 S
C1753 H1761 0.962 . S
C1754 C1752 1.381 . S
C1754 C1755 1.394 . S
C1754 H1762 0.930 . S
C1755 C1754 1.394 . S
C1755 C1756 1.383 . S
C1755 H1763 0.929 . S
C1756 C1755 1.383 . S
C1756 C1757 1.377 . S
C1757 H1741 0.930 . S
C1757 C1756 1.377 . S
C1757 C1758 1.379 . S
C1758 H1742 0.931 . S
C1758 C1752 1.383 . S
C1758 C1757 1.379 . S
H1759 C1753 0.959 . S
H1760 C1753 0.961 1_655 S
H1761 C1753 0.962 . S
H1762 C1754 0.930 . S
H1763 C1755 0.929 . S
H1764 C1772 0.929 . S
H1765 C1774 0.930 . S
H1766 C1776 0.930 . S
H1767 C1779 0.929 . S
H1768 C1782 0.930 . S
H1769 C1784 0.960 . S
H1770 C1784 0.960 . S
H1771 C1784 0.960 1_565 S
C1772 H1764 0.929 . S
C1772 C1773 1.377 . S
C1772 C1774 1.384 . S
C1773 C1772 1.377 . S
C1773 C1779 1.390 . S
C1774 H1765 0.930 . S
C1774 C1772 1.384 . S
C1774 C1775 1.372 . S
C1775 C1774 1.372 . S
C1775 C1776 1.400 . S
C1775 C1780 1.490 . S
C1776 H1766 0.930 . S
C1776 C1775 1.400 . S
C1776 C1779 1.386 . S
H1777 C1793 0.930 . S
H1778 C1794 0.931 . S
C1779 H1767 0.929 . S
C1779 C1773 1.390 . S
C1779 C1776 1.386 . S
C1780 C1775 1.490 . S
C1780 C1782 1.395 . S
C1780 C1783 1.403 1_565 S
H1781 C1787 0.930 . S
C1782 H1768 0.930 . S
C1782 C1780 1.395 . S
C1782 C1785 1.403 . S
C1783 C1780 1.403 1_545 S
C1783 C1784 1.524 . S
C1783 C1787 1.400 . S
C1784 H1769 0.960 . S
C1784 H1770 0.960 . S
C1784 H1771 0.960 1_545 S
C1784 C1783 1.524 . S
C1785 C1782 1.403 . S
C1785 C1786 1.392 1_565 S
C1785 C1789 1.495 . S
C1786 C1785 1.392 1_545 S
C1786 C1787 1.385 . S
C1786 C1788 1.478 . S
C1787 H1781 0.930 . S
C1787 C1783 1.400 . S
C1787 C1786 1.385 . S
C1788 C1786 1.478 . S
C1788 C1790 1.381 . S
C1788 C1794 1.383 . S
C1789 C1785 1.495 . S
C1789 H1795 0.959 . S
C1789 H1796 0.961 . S
C1789 H1797 0.960 1_565 S
C1790 C1788 1.381 . S
C1790 C1791 1.394 . S
C1790 H1798 0.930 . S
C1791 C1790 1.394 . S
C1791 C1792 1.383 . S
C1791 H1799 0.929 . S
C1792 C1791 1.383 . S
C1792 C1793 1.377 . S
C1793 H1777 0.930 . S
C1793 C1792 1.377 . S
C1793 C1794 1.379 . S
C1794 H1778 0.931 . S
C1794 C1788 1.383 . S
C1794 C1793 1.379 . S
H1795 C1789 0.959 . S
H1796 C1789 0.961 . S
H1797 C1789 0.960 1_545 S
H1798 C1790 0.930 . S
H1799 C1791 0.929 . S
H1800 C1808 0.929 . S
H1801 C1810 0.930 . S
H1802 C1812 0.930 . S
H1803 C1815 0.929 . S
H1804 C1818 0.930 . S
H1805 C1820 0.960 . S
H1806 C1820 0.960 . S
H1807 C1820 0.960 . S
C1808 H1800 0.929 . S
C1808 C1809 1.377 . S
C1808 C1810 1.384 . S
C1809 C1808 1.377 . S
C1809 C1815 1.390 . S
C1810 H1801 0.930 . S
C1810 C1808 1.384 . S
C1810 C1811 1.372 . S
C1811 C1810 1.372 . S
C1811 C1812 1.400 . S
C1811 C1816 1.490 . S
C1812 H1802 0.930 . S
C1812 C1811 1.400 . S
C1812 C1815 1.386 . S
H1813 C1829 0.930 . S
H1814 C1830 0.931 . S
C1815 H1803 0.929 . S
C1815 C1809 1.390 . S
C1815 C1812 1.386 . S
C1816 C1811 1.490 . S
C1816 C1818 1.395 . S
C1816 C1819 1.403 . S
H1817 C1823 0.930 . S
C1818 H1804 0.930 . S
C1818 C1816 1.395 . S
C1818 C1821 1.403 . S
C1819 C1816 1.403 . S
C1819 C1820 1.524 . S
C1819 C1823 1.400 . S
C1820 H1805 0.960 . S
C1820 H1806 0.960 . S
C1820 H1807 0.960 . S
C1820 C1819 1.524 . S
C1821 C1818 1.403 . S
C1821 C1822 1.392 . S
C1821 C1825 1.495 . S
C1822 C1821 1.392 . S
C1822 C1823 1.385 . S
C1822 C1824 1.478 . S
C1823 H1817 0.930 . S
C1823 C1819 1.400 . S
C1823 C1822 1.385 . S
C1824 C1822 1.478 . S
C1824 C1826 1.381 . S
C1824 C1830 1.383 . S
C1825 C1821 1.495 . S
C1825 H1831 0.959 . S
C1825 H1832 0.961 . S
C1825 H1833 0.960 . S
C1826 C1824 1.381 . S
C1826 C1827 1.394 . S
C1826 H1834 0.930 . S
C1827 C1826 1.394 . S
C1827 C1828 1.383 . S
C1827 H1835 0.929 . S
C1828 C1827 1.383 . S
C1828 C1829 1.377 . S
C1829 H1813 0.930 . S
C1829 C1828 1.377 . S
C1829 C1830 1.379 . S
C1830 H1814 0.931 . S
C1830 C1824 1.383 . S
C1830 C1829 1.379 . S
H1831 C1825 0.959 . S
H1832 C1825 0.961 . S
H1833 C1825 0.960 . S
H1834 C1826 0.930 . S
H1835 C1827 0.929 . S
H1836 C1844 0.929 . S
H1837 C1846 0.930 . S
H1838 C1848 0.930 . S
H1839 C1851 0.929 . S
H1840 C1854 0.930 . S
H1841 C1856 0.960 . S
H1842 C1856 0.960 . S
H1843 C1856 0.960 1_655 S
C1844 H1836 0.929 . S
C1844 C1845 1.377 . S
C1844 C1846 1.384 . S
C1845 C1844 1.377 . S
C1845 C1851 1.390 . S
C1846 H1837 0.930 . S
C1846 C1844 1.384 . S
C1846 C1847 1.372 . S
C1847 C1846 1.372 . S
C1847 C1848 1.400 . S
C1847 C1852 1.490 . S
C1848 H1838 0.930 . S
C1848 C1847 1.400 . S
C1848 C1851 1.386 . S
H1849 C1865 0.930 . S
H1850 C1866 0.931 . S
C1851 H1839 0.929 . S
C1851 C1845 1.390 . S
C1851 C1848 1.386 . S
C1852 C1847 1.490 . S
C1852 C1854 1.395 . S
C1852 C1855 1.384 1_655 S
H1853 C1859 0.930 . S
C1854 H1840 0.930 . S
C1854 C1852 1.395 . S
C1854 C1857 1.403 . S
C1855 C1852 1.384 1_455 S
C1855 C1856 1.517 . S
C1855 C1859 1.428 . S
C1856 H1841 0.960 . S
C1856 H1842 0.960 . S
C1856 H1843 0.960 1_455 S
C1856 C1855 1.517 . S
C1857 C1854 1.403 . S
C1857 C1858 1.392 1_655 S
C1857 C1861 1.495 . S
C1858 C1857 1.392 1_455 S
C1858 C1859 1.385 . S
C1858 C1860 1.478 . S
C1859 H1853 0.930 . S
C1859 C1855 1.428 . S
C1859 C1858 1.385 . S
C1860 C1858 1.478 . S
C1860 C1862 1.381 . S
C1860 C1866 1.383 . S
C1861 C1857 1.495 . S
C1861 H1867 0.959 . S
C1861 H1868 0.961 . S
C1861 H1869 0.960 1_655 S
C1862 C1860 1.381 . S
C1862 C1863 1.394 . S
C1862 H1870 0.930 . S
C1863 C1862 1.394 . S
C1863 C1864 1.383 . S
C1863 H1871 0.929 . S
C1864 C1863 1.383 . S
C1864 C1865 1.377 . S
C1865 H1849 0.930 . S
C1865 C1864 1.377 . S
C1865 C1866 1.379 . S
C1866 H1850 0.931 . S
C1866 C1860 1.383 . S
C1866 C1865 1.379 . S
H1867 C1861 0.959 . S
H1868 C1861 0.961 . S
H1869 C1861 0.960 1_455 S
H1870 C1862 0.930 . S
H1871 C1863 0.929 . S
H1872 C1880 0.929 . S
H1873 C1882 0.930 . S
H1874 C1884 0.930 . S
H1875 C1887 0.929 . S
H1876 C1890 0.930 . S
H1877 C1892 0.960 . S
H1878 C1892 0.960 . S
H1879 C1892 0.960 . S
C1880 H1872 0.929 . S
C1880 C1881 1.377 . S
C1880 C1882 1.384 . S
C1881 C1880 1.377 . S
C1881 C1887 1.390 . S
C1882 H1873 0.930 . S
C1882 C1880 1.384 . S
C1882 C1883 1.372 . S
C1883 C1882 1.372 . S
C1883 C1884 1.400 . S
C1883 C1888 1.490 . S
C1884 H1874 0.930 . S
C1884 C1883 1.400 . S
C1884 C1887 1.386 . S
H1885 C1901 0.930 . S
H1886 C1902 0.931 . S
C1887 H1875 0.929 . S
C1887 C1881 1.390 . S
C1887 C1884 1.386 . S
C1888 C1883 1.490 . S
C1888 C1890 1.395 . S
C1888 C1891 1.403 . S
H1889 C1895 0.930 . S
C1890 H1876 0.930 . S
C1890 C1888 1.395 . S
C1890 C1893 1.403 1_565 S
C1891 C1888 1.403 . S
C1891 C1892 1.524 . S
C1891 C1895 1.400 1_565 S
C1892 H1877 0.960 . S
C1892 H1878 0.960 . S
C1892 H1879 0.960 . S
C1892 C1891 1.524 . S
C1893 C1890 1.403 1_545 S
C1893 C1894 1.392 . S
C1893 C1897 1.495 . S
C1894 C1893 1.392 . S
C1894 C1895 1.385 . S
C1894 C1896 1.478 . S
C1895 H1889 0.930 . S
C1895 C1891 1.400 1_545 S
C1895 C1894 1.385 . S
C1896 C1894 1.478 . S
C1896 C1898 1.381 . S
C1896 C1902 1.383 . S
C1897 C1893 1.495 . S
C1897 H1903 0.959 . S
C1897 H1904 0.961 . S
C1897 H1905 0.960 . S
C1898 C1896 1.381 . S
C1898 C1899 1.394 . S
C1898 H1906 0.930 . S
C1899 C1898 1.394 . S
C1899 C1900 1.383 . S
C1899 H1907 0.929 . S
C1900 C1899 1.383 . S
C1900 C1901 1.377 . S
C1901 H1885 0.930 . S
C1901 C1900 1.377 . S
C1901 C1902 1.379 . S
C1902 H1886 0.931 . S
C1902 C1896 1.383 . S
C1902 C1901 1.379 . S
H1903 C1897 0.959 . S
H1904 C1897 0.961 . S
H1905 C1897 0.960 . S
H1906 C1898 0.930 . S
H1907 C1899 0.929 . S
H1908 C1916 0.929 . S
H1909 C1918 0.930 . S
H1910 C1920 0.930 . S
H1911 C1923 0.929 . S
H1912 C1926 0.930 . S
H1913 C1928 0.960 . S
H1914 C1928 0.960 . S
H1915 C1928 0.960 . S
C1916 H1908 0.929 . S
C1916 C1917 1.377 . S
C1916 C1918 1.384 . S
C1917 C1916 1.377 . S
C1917 C1923 1.390 . S
C1918 H1909 0.930 . S
C1918 C1916 1.384 . S
C1918 C1919 1.372 . S
C1919 C1918 1.372 . S
C1919 C1920 1.400 . S
C1919 C1924 1.490 . S
C1920 H1910 0.930 . S
C1920 C1919 1.400 . S
C1920 C1923 1.386 . S
H1921 C1937 0.930 . S
H1922 C1938 0.931 . S
C1923 H1911 0.929 . S
C1923 C1917 1.390 . S
C1923 C1920 1.386 . S
C1924 C1919 1.490 . S
C1924 C1926 1.395 . S
C1924 C1927 1.403 . S
H1925 C1931 0.930 . S
C1926 H1912 0.930 . S
C1926 C1924 1.395 . S
C1926 C1929 1.403 . S
C1927 C1924 1.403 . S
C1927 C1928 1.524 . S
C1927 C1931 1.400 . S
C1928 H1913 0.960 . S
C1928 H1914 0.960 . S
C1928 H1915 0.960 . S
C1928 C1927 1.524 . S
C1929 C1926 1.403 . S
C1929 C1930 1.392 . S
C1929 C1933 1.495 . S
C1930 C1929 1.392 . S
C1930 C1931 1.385 . S
C1930 C1932 1.478 . S
C1931 H1925 0.930 . S
C1931 C1927 1.400 . S
C1931 C1930 1.385 . S
C1932 C1930 1.478 . S
C1932 C1934 1.381 . S
C1932 C1938 1.383 . S
C1933 C1929 1.495 . S
C1933 H1939 0.959 . S
C1933 H1940 0.961 . S
C1933 H1941 0.960 . S
C1934 C1932 1.381 . S
C1934 C1935 1.394 . S
C1934 H1942 0.930 . S
C1935 C1934 1.394 . S
C1935 C1936 1.383 . S
C1935 H1943 0.929 . S
C1936 C1935 1.383 . S
C1936 C1937 1.377 . S
C1937 H1921 0.930 . S
C1937 C1936 1.377 . S
C1937 C1938 1.379 . S
C1938 H1922 0.931 . S
C1938 C1932 1.383 . S
C1938 C1937 1.379 . S
H1939 C1933 0.959 . S
H1940 C1933 0.961 . S
H1941 C1933 0.960 . S
H1942 C1934 0.930 . S
H1943 C1935 0.929 . S
H1944 C1952 0.929 . S
H1945 C1954 0.930 . S
H1946 C1956 0.930 . S
H1947 C1959 0.929 . S
H1948 C1962 0.930 . S
H1949 C1964 0.960 1_655 S
H1950 C1964 0.960 . S
H1951 C1964 0.960 . S
C1952 H1944 0.929 . S
C1952 C1953 1.377 . S
C1952 C1954 1.384 . S
C1953 C1952 1.377 . S
C1953 C1959 1.390 . S
C1954 H1945 0.930 . S
C1954 C1952 1.384 . S
C1954 C1955 1.372 . S
C1955 C1954 1.372 . S
C1955 C1956 1.400 . S
C1955 C1960 1.490 . S
C1956 H1946 0.930 . S
C1956 C1955 1.400 . S
C1956 C1959 1.386 . S
H1957 C1973 0.930 . S
H1958 C1974 0.931 . S
C1959 H1947 0.929 . S
C1959 C1953 1.390 . S
C1959 C1956 1.386 . S
C1960 C1955 1.490 . S
C1960 C1962 1.395 . S
C1960 C1963 1.403 . S
H1961 C1967 0.930 . S
C1962 H1948 0.930 . S
C1962 C1960 1.395 . S
C1962 C1965 1.403 1_455 S
C1963 C1960 1.403 . S
C1963 C1964 1.524 . S
C1963 C1967 1.400 1_455 S
C1964 H1949 0.960 1_455 S
C1964 H1950 0.960 . S
C1964 H1951 0.960 . S
C1964 C1963 1.524 . S
C1965 C1962 1.403 1_655 S
C1965 C1966 1.392 . S
C1965 C1969 1.495 . S
C1966 C1965 1.392 . S
C1966 C1967 1.385 . S
C1966 C1968 1.478 . S
C1967 H1961 0.930 . S
C1967 C1963 1.400 1_655 S
C1967 C1966 1.385 . S
C1968 C1966 1.478 . S
C1968 C1970 1.381 . S
C1968 C1974 1.383 . S
C1969 C1965 1.495 . S
C1969 H1975 0.959 1_655 S
C1969 H1976 0.961 . S
C1969 H1977 0.960 . S
C1970 C1968 1.381 . S
C1970 C1971 1.394 . S
C1970 H1978 0.930 . S
C1971 C1970 1.394 . S
C1971 C1972 1.383 . S
C1971 H1979 0.929 . S
C1972 C1971 1.383 . S
C1972 C1973 1.377 . S
C1973 H1957 0.930 . S
C1973 C1972 1.377 . S
C1973 C1974 1.379 . S
C1974 H1958 0.931 . S
C1974 C1968 1.383 . S
C1974 C1973 1.379 . S
H1975 C1969 0.959 1_455 S
H1976 C1969 0.961 . S
H1977 C1969 0.960 . S
H1978 C1970 0.930 . S
H1979 C1971 0.929 . S
H1980 C1988 0.929 . S
H1981 C1990 0.930 . S
H1982 C1992 0.930 . S
H1983 C1995 0.929 . S
H1984 C1998 0.930 . S
H1985 C2000 0.960 . S
H1986 C2000 0.960 . S
H1987 C2000 0.960 . S
C1988 H1980 0.929 . S
C1988 C1989 1.377 . S
C1988 C1990 1.384 . S
C1989 C1988 1.377 . S
C1989 C1995 1.390 . S
C1990 H1981 0.930 . S
C1990 C1988 1.384 . S
C1990 C1991 1.372 . S
C1991 C1990 1.372 . S
C1991 C1992 1.400 . S
C1991 C1996 1.490 . S
C1992 H1982 0.930 . S
C1992 C1991 1.400 . S
C1992 C1995 1.386 . S
H1993 C2009 0.930 . S
H1994 C2010 0.931 . S
C1995 H1983 0.929 . S
C1995 C1989 1.390 . S
C1995 C1992 1.386 . S
C1996 C1991 1.490 . S
C1996 C1998 1.395 1_545 S
C1996 C1999 1.403 . S
H1997 C2003 0.930 . S
C1998 H1984 0.930 . S
C1998 C1996 1.395 1_565 S
C1998 C2001 1.403 . S
C1999 C1996 1.403 . S
C1999 C2000 1.524 . S
C1999 C2003 1.400 1_545 S
C2000 H1985 0.960 . S
C2000 H1986 0.960 . S
C2000 H1987 0.960 . S
C2000 C1999 1.524 . S
C2001 C1998 1.403 . S
C2001 C2002 1.392 . S
C2001 C2005 1.495 . S
C2002 C2001 1.392 . S
C2002 C2003 1.385 . S
C2002 C2004 1.478 . S
C2003 H1997 0.930 . S
C2003 C1999 1.400 1_565 S
C2003 C2002 1.385 . S
C2004 C2002 1.478 . S
C2004 C2006 1.381 . S
C2004 C2010 1.383 . S
C2005 C2001 1.495 . S
C2005 H2011 0.959 . S
C2005 H2012 0.961 . S
C2005 H2013 0.960 . S
C2006 C2004 1.381 . S
C2006 C2007 1.394 . S
C2006 H2014 0.930 . S
C2007 C2006 1.394 . S
C2007 C2008 1.383 . S
C2007 H2015 0.929 . S
C2008 C2007 1.383 . S
C2008 C2009 1.377 . S
C2009 H1993 0.930 . S
C2009 C2008 1.377 . S
C2009 C2010 1.379 . S
C2010 H1994 0.931 . S
C2010 C2004 1.383 . S
C2010 C2009 1.379 . S
H2011 C2005 0.959 . S
H2012 C2005 0.961 . S
H2013 C2005 0.960 . S
H2014 C2006 0.930 . S
H2015 C2007 0.929 . S
H2016 C2024 0.929 . S
H2017 C2026 0.930 . S
H2018 C2028 0.930 . S
H2019 C2031 0.929 . S
H2020 C2034 0.930 . S
H2021 C2036 0.960 . S
H2022 C2036 0.960 . S
H2023 C2036 0.960 . S
C2024 H2016 0.929 . S
C2024 C2025 1.377 . S
C2024 C2026 1.384 . S
C2025 C2024 1.377 . S
C2025 C2031 1.390 . S
C2026 H2017 0.930 . S
C2026 C2024 1.384 . S
C2026 C2027 1.372 . S
C2027 C2026 1.372 . S
C2027 C2028 1.400 . S
C2027 C2032 1.490 . S
C2028 H2018 0.930 . S
C2028 C2027 1.400 . S
C2028 C2031 1.386 . S
H2029 C2045 0.930 . S
H2030 C2046 0.931 . S
C2031 H2019 0.929 . S
C2031 C2025 1.390 . S
C2031 C2028 1.386 . S
C2032 C2027 1.490 . S
C2032 C2034 1.395 . S
C2032 C2035 1.403 . S
H2033 C2039 0.930 . S
C2034 H2020 0.930 . S
C2034 C2032 1.395 . S
C2034 C2037 1.403 . S
C2035 C2032 1.403 . S
C2035 C2036 1.524 . S
C2035 C2039 1.400 . S
C2036 H2021 0.960 . S
C2036 H2022 0.960 . S
C2036 H2023 0.960 . S
C2036 C2035 1.524 . S
C2037 C2034 1.403 . S
C2037 C2038 1.392 . S
C2037 C2041 1.495 . S
C2038 C2037 1.392 . S
C2038 C2039 1.385 . S
C2038 C2040 1.478 . S
C2039 H2033 0.930 . S
C2039 C2035 1.400 . S
C2039 C2038 1.385 . S
C2040 C2038 1.478 . S
C2040 C2042 1.381 . S
C2040 C2046 1.383 . S
C2041 C2037 1.495 . S
C2041 H2047 0.959 . S
C2041 H2048 0.961 . S
C2041 H2049 0.960 . S
C2042 C2040 1.381 . S
C2042 C2043 1.394 . S
C2042 H2050 0.930 . S
C2043 C2042 1.394 . S
C2043 C2044 1.383 . S
C2043 H2051 0.929 . S
C2044 C2043 1.383 . S
C2044 C2045 1.377 . S
C2045 H2029 0.930 . S
C2045 C2044 1.377 . S
C2045 C2046 1.379 . S
C2046 H2030 0.931 . S
C2046 C2040 1.383 . S
C2046 C2045 1.379 . S
H2047 C2041 0.959 . S
H2048 C2041 0.961 . S
H2049 C2041 0.960 . S
H2050 C2042 0.930 . S
H2051 C2043 0.929 . S
H2052 C2060 0.929 . S
H2053 C2062 0.930 . S
H2054 C2064 0.930 . S
H2055 C2067 0.929 . S
H2056 C2070 0.930 . S
H2057 C2072 0.960 . S
H2058 C2072 0.960 . S
H2059 C2072 0.960 . S
C2060 H2052 0.929 . S
C2060 C2061 1.377 . S
C2060 C2062 1.384 . S
C2061 C2060 1.377 . S
C2061 C2067 1.390 . S
C2062 H2053 0.930 . S
C2062 C2060 1.384 . S
C2062 C2063 1.372 . S
C2063 C2062 1.372 . S
C2063 C2064 1.400 . S
C2063 C2068 1.490 . S
C2064 H2054 0.930 . S
C2064 C2063 1.400 . S
C2064 C2067 1.386 . S
H2065 C2081 0.930 . S
H2066 C2082 0.931 . S
C2067 H2055 0.929 . S
C2067 C2061 1.390 . S
C2067 C2064 1.386 . S
C2068 C2063 1.490 . S
C2068 C2070 1.395 . S
C2068 C2071 1.403 . S
H2069 C2075 0.930 . S
C2070 H2056 0.930 . S
C2070 C2068 1.395 . S
C2070 C2073 1.403 1_455 S
C2071 C2068 1.403 . S
C2071 C2072 1.524 . S
C2071 C2075 1.400 1_455 S
C2072 H2057 0.960 . S
C2072 H2058 0.960 . S
C2072 H2059 0.960 . S
C2072 C2071 1.524 . S
C2073 C2070 1.403 1_655 S
C2073 C2074 1.392 . S
C2073 C2077 1.495 . S
C2074 C2073 1.392 . S
C2074 C2075 1.385 . S
C2074 C2076 1.478 . S
C2075 H2069 0.930 . S
C2075 C2071 1.400 1_655 S
C2075 C2074 1.385 . S
C2076 C2074 1.478 . S
C2076 C2078 1.381 . S
C2076 C2082 1.383 . S
C2077 C2073 1.495 . S
C2077 H2083 0.959 . S
C2077 H2084 0.961 . S
C2077 H2085 0.960 . S
C2078 C2076 1.381 . S
C2078 C2079 1.394 . S
C2078 H2086 0.930 . S
C2079 C2078 1.394 . S
C2079 C2080 1.383 . S
C2079 H2087 0.929 . S
C2080 C2079 1.383 . S
C2080 C2081 1.377 . S
C2081 H2065 0.930 . S
C2081 C2080 1.377 . S
C2081 C2082 1.379 . S
C2082 H2066 0.931 . S
C2082 C2076 1.383 . S
C2082 C2081 1.379 . S
H2083 C2077 0.959 . S
H2084 C2077 0.961 . S
H2085 C2077 0.960 . S
H2086 C2078 0.930 . S
H2087 C2079 0.929 . S
H2088 C2096 0.929 . S
H2089 C2098 0.930 . S
H2090 C2100 0.930 . S
H2091 C2103 0.929 . S
H2092 C2106 0.930 . S
H2093 C2108 0.960 . S
H2094 C2108 0.960 . S
H2095 C2108 0.960 . S
C2096 H2088 0.929 . S
C2096 C2097 1.377 . S
C2096 C2098 1.384 . S
C2097 C2096 1.377 . S
C2097 C2103 1.390 . S
C2098 H2089 0.930 . S
C2098 C2096 1.384 . S
C2098 C2099 1.372 . S
C2099 C2098 1.372 . S
C2099 C2100 1.400 . S
C2099 C2104 1.490 . S
C2100 H2090 0.930 . S
C2100 C2099 1.400 . S
C2100 C2103 1.386 . S
H2101 C2117 0.930 . S
H2102 C2118 0.931 . S
C2103 H2091 0.929 . S
C2103 C2097 1.390 . S
C2103 C2100 1.386 . S
C2104 C2099 1.490 . S
C2104 C2106 1.395 . S
C2104 C2107 1.403 . S
H2105 C2111 0.930 . S
C2106 H2092 0.930 . S
C2106 C2104 1.395 . S
C2106 C2109 1.403 . S
C2107 C2104 1.403 . S
C2107 C2108 1.524 . S
C2107 C2111 1.400 . S
C2108 H2093 0.960 . S
C2108 H2094 0.960 . S
C2108 H2095 0.960 . S
C2108 C2107 1.524 . S
C2109 C2106 1.403 . S
C2109 C2110 1.392 . S
C2109 C2113 1.495 . S
C2110 C2109 1.392 . S
C2110 C2111 1.385 . S
C2110 C2112 1.478 . S
C2111 H2105 0.930 . S
C2111 C2107 1.400 . S
C2111 C2110 1.385 . S
C2112 C2110 1.478 . S
C2112 C2114 1.381 . S
C2112 C2118 1.383 . S
C2113 C2109 1.495 . S
C2113 H2119 0.959 . S
C2113 H2120 0.961 . S
C2113 H2121 0.960 . S
C2114 C2112 1.381 . S
C2114 C2115 1.394 . S
C2114 H2122 0.930 . S
C2115 C2114 1.394 . S
C2115 C2116 1.383 . S
C2115 H2123 0.929 . S
C2116 C2115 1.383 . S
C2116 C2117 1.377 . S
C2117 H2101 0.930 . S
C2117 C2116 1.377 . S
C2117 C2118 1.379 . S
C2118 H2102 0.931 . S
C2118 C2112 1.383 . S
C2118 C2117 1.379 . S
H2119 C2113 0.959 . S
H2120 C2113 0.961 . S
H2121 C2113 0.960 . S
H2122 C2114 0.930 . S
H2123 C2115 0.929 . S
H2124 C2132 0.929 . S
H2125 C2134 0.930 . S
H2126 C2136 0.930 . S
H2127 C2139 0.929 . S
H2128 C2142 0.930 . S
H2129 C2144 0.960 . S
H2130 C2144 0.960 . S
H2131 C2144 0.960 . S
C2132 H2124 0.929 . S
C2132 C2133 1.377 . S
C2132 C2134 1.384 . S
C2133 C2132 1.377 . S
C2133 C2139 1.390 . S
C2134 H2125 0.930 . S
C2134 C2132 1.384 . S
C2134 C2135 1.372 . S
C2135 C2134 1.372 . S
C2135 C2136 1.400 . S
C2135 C2140 1.490 . S
C2136 H2126 0.930 . S
C2136 C2135 1.400 . S
C2136 C2139 1.386 . S
H2137 C2153 0.930 . S
H2138 C2154 0.931 . S
C2139 H2127 0.929 . S
C2139 C2133 1.390 . S
C2139 C2136 1.386 . S
C2140 C2135 1.490 . S
C2140 C2142 1.395 . S
C2140 C2143 1.403 . S
H2141 C2147 0.930 . S
C2142 H2128 0.930 . S
C2142 C2140 1.395 . S
C2142 C2145 1.403 . S
C2143 C2140 1.403 . S
C2143 C2144 1.524 . S
C2143 C2147 1.400 . S
C2144 H2129 0.960 . S
C2144 H2130 0.960 . S
C2144 H2131 0.960 . S
C2144 C2143 1.524 . S
C2145 C2142 1.403 . S
C2145 C2146 1.392 . S
C2145 C2149 1.495 . S
C2146 C2145 1.392 . S
C2146 C2147 1.385 . S
C2146 C2148 1.478 . S
C2147 H2141 0.930 . S
C2147 C2143 1.400 . S
C2147 C2146 1.385 . S
C2148 C2146 1.478 . S
C2148 C2150 1.381 . S
C2148 C2154 1.383 . S
C2149 C2145 1.495 . S
C2149 H2155 0.959 . S
C2149 H2156 0.961 . S
C2149 H2157 0.960 . S
C2150 C2148 1.381 . S
C2150 C2151 1.394 . S
C2150 H2158 0.930 . S
C2151 C2150 1.394 . S
C2151 C2152 1.383 . S
C2151 H2159 0.929 . S
C2152 C2151 1.383 . S
C2152 C2153 1.377 . S
C2153 H2137 0.930 . S
C2153 C2152 1.377 . S
C2153 C2154 1.379 . S
C2154 H2138 0.931 . S
C2154 C2148 1.383 . S
C2154 C2153 1.379 . S
H2155 C2149 0.959 . S
H2156 C2149 0.961 . S
H2157 C2149 0.960 . S
H2158 C2150 0.930 . S
H2159 C2151 0.929 . S
H2160 C2168 0.929 . S
H2161 C2170 0.930 . S
H2162 C2172 0.930 . S
H2163 C2175 0.929 . S
H2164 C2178 0.930 . S
H2165 C2180 0.960 . S
H2166 C2180 0.960 . S
H2167 C2180 0.960 . S
C2168 H2160 0.929 . S
C2168 C2169 1.377 . S
C2168 C2170 1.384 . S
C2169 C2168 1.377 . S
C2169 C2175 1.390 . S
C2170 H2161 0.930 . S
C2170 C2168 1.384 . S
C2170 C2171 1.372 . S
C2171 C2170 1.372 . S
C2171 C2172 1.400 . S
C2171 C2176 1.490 . S
C2172 H2162 0.930 . S
C2172 C2171 1.400 . S
C2172 C2175 1.386 . S
H2173 C2189 0.930 . S
H2174 C2190 0.931 . S
C2175 H2163 0.929 . S
C2175 C2169 1.390 . S
C2175 C2172 1.386 . S
C2176 C2171 1.490 . S
C2176 C2178 1.395 . S
C2176 C2179 1.403 . S
H2177 C2183 0.930 . S
C2178 H2164 0.930 . S
C2178 C2176 1.395 . S
C2178 C2181 1.403 . S
C2179 C2176 1.403 . S
C2179 C2180 1.524 . S
C2179 C2183 1.400 . S
C2180 H2165 0.960 . S
C2180 H2166 0.960 . S
C2180 H2167 0.960 . S
C2180 C2179 1.524 . S
C2181 C2178 1.403 . S
C2181 C2182 1.392 . S
C2181 C2185 1.495 . S
C2182 C2181 1.392 . S
C2182 C2183 1.385 . S
C2182 C2184 1.478 . S
C2183 H2177 0.930 . S
C2183 C2179 1.400 . S
C2183 C2182 1.385 . S
C2184 C2182 1.478 . S
C2184 C2186 1.381 . S
C2184 C2190 1.383 . S
C2185 C2181 1.495 . S
C2185 H2191 0.959 . S
C2185 H2192 0.961 . S
C2185 H2193 0.960 . S
C2186 C2184 1.381 . S
C2186 C2187 1.394 . S
C2186 H2194 0.930 . S
C2187 C2186 1.394 . S
C2187 C2188 1.383 . S
C2187 H2195 0.929 . S
C2188 C2187 1.383 . S
C2188 C2189 1.377 . S
C2189 H2173 0.930 . S
C2189 C2188 1.377 . S
C2189 C2190 1.379 . S
C2190 H2174 0.931 . S
C2190 C2184 1.383 . S
C2190 C2189 1.379 . S
H2191 C2185 0.959 . S
H2192 C2185 0.961 . S
H2193 C2185 0.960 . S
H2194 C2186 0.930 . S
H2195 C2187 0.929 . S
H2196 C2204 0.929 . S
H2197 C2206 0.930 . S
H2198 C2208 0.930 . S
H2199 C2211 0.929 . S
H2200 C2214 0.930 . S
H2201 C2216 0.960 . S
H2202 C2216 0.960 . S
H2203 C2216 0.960 . S
C2204 H2196 0.929 . S
C2204 C2205 1.377 . S
C2204 C2206 1.384 . S
C2205 C2204 1.377 . S
C2205 C2211 1.390 . S
C2206 H2197 0.930 . S
C2206 C2204 1.384 . S
C2206 C2207 1.372 . S
C2207 C2206 1.372 . S
C2207 C2208 1.400 . S
C2207 C2212 1.490 . S
C2208 H2198 0.930 . S
C2208 C2207 1.400 . S
C2208 C2211 1.386 . S
H2209 C2225 0.930 . S
H2210 C2226 0.931 . S
C2211 H2199 0.929 . S
C2211 C2205 1.390 . S
C2211 C2208 1.386 . S
C2212 C2207 1.490 . S
C2212 C2214 1.395 . S
C2212 C2215 1.403 . S
H2213 C2219 0.930 . S
C2214 H2200 0.930 . S
C2214 C2212 1.395 . S
C2214 C2217 1.403 . S
C2215 C2212 1.403 . S
C2215 C2216 1.524 . S
C2215 C2219 1.400 . S
C2216 H2201 0.960 . S
C2216 H2202 0.960 . S
C2216 H2203 0.960 . S
C2216 C2215 1.524 . S
C2217 C2214 1.403 . S
C2217 C2218 1.392 . S
C2217 C2221 1.495 . S
C2218 C2217 1.392 . S
C2218 C2219 1.385 . S
C2218 C2220 1.478 . S
C2219 H2213 0.930 . S
C2219 C2215 1.400 . S
C2219 C2218 1.385 . S
C2220 C2218 1.478 . S
C2220 C2222 1.381 . S
C2220 C2226 1.383 . S
C2221 C2217 1.495 . S
C2221 H2227 0.959 . S
C2221 H2228 0.961 . S
C2221 H2229 0.960 . S
C2222 C2220 1.381 . S
C2222 C2223 1.394 . S
C2222 H2230 0.930 . S
C2223 C2222 1.394 . S
C2223 C2224 1.383 . S
C2223 H2231 0.929 . S
C2224 C2223 1.383 . S
C2224 C2225 1.377 . S
C2225 H2209 0.930 . S
C2225 C2224 1.377 . S
C2225 C2226 1.379 . S
C2226 H2210 0.931 . S
C2226 C2220 1.383 . S
C2226 C2225 1.379 . S
H2227 C2221 0.959 . S
H2228 C2221 0.961 . S
H2229 C2221 0.960 . S
H2230 C2222 0.930 . S
H2231 C2223 0.929 . S
H2232 C2240 0.929 . S
H2233 C2242 0.930 . S
H2234 C2244 0.930 . S
H2235 C2247 0.929 . S
H2236 C2250 0.930 . S
H2237 C2252 0.960 . S
H2238 C2252 0.960 . S
H2239 C2252 0.960 . S
C2240 H2232 0.929 . S
C2240 C2241 1.377 . S
C2240 C2242 1.384 . S
C2241 C2240 1.377 . S
C2241 C2247 1.390 . S
C2242 H2233 0.930 . S
C2242 C2240 1.384 . S
C2242 C2243 1.372 . S
C2243 C2242 1.372 . S
C2243 C2244 1.400 . S
C2243 C2248 1.490 . S
C2244 H2234 0.930 . S
C2244 C2243 1.400 . S
C2244 C2247 1.386 . S
H2245 C2261 0.930 . S
H2246 C2262 0.931 . S
C2247 H2235 0.929 . S
C2247 C2241 1.390 . S
C2247 C2244 1.386 . S
C2248 C2243 1.490 . S
C2248 C2250 1.395 . S
C2248 C2251 1.403 . S
H2249 C2255 0.930 . S
C2250 H2236 0.930 . S
C2250 C2248 1.395 . S
C2250 C2253 1.403 . S
C2251 C2248 1.403 . S
C2251 C2252 1.524 . S
C2251 C2255 1.400 . S
C2252 H2237 0.960 . S
C2252 H2238 0.960 . S
C2252 H2239 0.960 . S
C2252 C2251 1.524 . S
C2253 C2250 1.403 . S
C2253 C2254 1.392 . S
C2253 C2257 1.495 . S
C2254 C2253 1.392 . S
C2254 C2255 1.385 . S
C2254 C2256 1.478 . S
C2255 H2249 0.930 . S
C2255 C2251 1.400 . S
C2255 C2254 1.385 . S
C2256 C2254 1.478 . S
C2256 C2258 1.381 . S
C2256 C2262 1.383 . S
C2257 C2253 1.495 . S
C2257 H2263 0.959 . S
C2257 H2264 0.961 . S
C2257 H2265 0.960 . S
C2258 C2256 1.381 . S
C2258 C2259 1.394 . S
C2258 H2266 0.930 . S
C2259 C2258 1.394 . S
C2259 C2260 1.383 . S
C2259 H2267 0.929 . S
C2260 C2259 1.383 . S
C2260 C2261 1.377 . S
C2261 H2245 0.930 . S
C2261 C2260 1.377 . S
C2261 C2262 1.379 . S
C2262 H2246 0.931 . S
C2262 C2256 1.383 . S
C2262 C2261 1.379 . S
H2263 C2257 0.959 . S
H2264 C2257 0.961 . S
H2265 C2257 0.960 . S
H2266 C2258 0.930 . S
H2267 C2259 0.929 . S
H2268 C2276 0.929 . S
H2269 C2278 0.930 . S
H2270 C2280 0.930 . S
H2271 C2283 0.929 . S
H2272 C2286 0.930 . S
H2273 C2288 0.960 . S
H2274 C2288 0.960 . S
H2275 C2288 0.960 . S
C2276 H2268 0.929 . S
C2276 C2277 1.377 . S
C2276 C2278 1.384 . S
C2277 C2276 1.377 . S
C2277 C2283 1.390 . S
C2278 H2269 0.930 . S
C2278 C2276 1.384 . S
C2278 C2279 1.372 . S
C2279 C2278 1.372 . S
C2279 C2280 1.400 . S
C2279 C2284 1.490 . S
C2280 H2270 0.930 . S
C2280 C2279 1.400 . S
C2280 C2283 1.386 . S
H2281 C2297 0.930 . S
H2282 C2298 0.931 . S
C2283 H2271 0.929 . S
C2283 C2277 1.390 . S
C2283 C2280 1.386 . S
C2284 C2279 1.490 . S
C2284 C2286 1.395 . S
C2284 C2287 1.403 . S
H2285 C2291 0.930 . S
C2286 H2272 0.930 . S
C2286 C2284 1.395 . S
C2286 C2289 1.403 . S
C2287 C2284 1.403 . S
C2287 C2288 1.524 . S
C2287 C2291 1.400 . S
C2288 H2273 0.960 . S
C2288 H2274 0.960 . S
C2288 H2275 0.960 . S
C2288 C2287 1.524 . S
C2289 C2286 1.403 . S
C2289 C2290 1.392 . S
C2289 C2293 1.495 . S
C2290 C2289 1.392 . S
C2290 C2291 1.385 . S
C2290 C2292 1.478 . S
C2291 H2285 0.930 . S
C2291 C2287 1.400 . S
C2291 C2290 1.385 . S
C2292 C2290 1.478 . S
C2292 C2294 1.381 . S
C2292 C2298 1.383 . S
C2293 C2289 1.495 . S
C2293 H2299 0.959 . S
C2293 H2300 0.961 . S
C2293 H2301 0.960 . S
C2294 C2292 1.381 . S
C2294 C2295 1.394 . S
C2294 H2302 0.930 . S
C2295 C2294 1.394 . S
C2295 C2296 1.383 . S
C2295 H2303 0.929 . S
C2296 C2295 1.383 . S
C2296 C2297 1.377 . S
C2297 H2281 0.930 . S
C2297 C2296 1.377 . S
C2297 C2298 1.379 . S
C2298 H2282 0.931 . S
C2298 C2292 1.383 . S
C2298 C2297 1.379 . S
H2299 C2293 0.959 . S
H2300 C2293 0.961 . S
H2301 C2293 0.960 . S
H2302 C2294 0.930 . S
H2303 C2295 0.929 . S
H2304 C2312 0.929 . S
H2305 C2314 0.930 . S
H2306 C2316 0.930 . S
H2307 C2319 0.929 . S
H2308 C2322 0.930 . S
H2309 C2324 0.960 . S
H2310 C2324 0.960 . S
H2311 C2324 0.960 . S
C2312 H2304 0.929 . S
C2312 C2313 1.377 . S
C2312 C2314 1.384 . S
C2313 C2312 1.377 . S
C2313 C2319 1.390 . S
C2314 H2305 0.930 . S
C2314 C2312 1.384 . S
C2314 C2315 1.372 . S
C2315 C2314 1.372 . S
C2315 C2316 1.400 . S
C2315 C2320 1.490 . S
C2316 H2306 0.930 . S
C2316 C2315 1.400 . S
C2316 C2319 1.386 . S
H2317 C2333 0.930 . S
H2318 C2334 0.931 . S
C2319 H2307 0.929 . S
C2319 C2313 1.390 . S
C2319 C2316 1.386 . S
C2320 C2315 1.490 . S
C2320 C2322 1.395 . S
C2320 C2323 1.403 . S
H2321 C2327 0.930 . S
C2322 H2308 0.930 . S
C2322 C2320 1.395 . S
C2322 C2325 1.403 . S
C2323 C2320 1.403 . S
C2323 C2324 1.524 . S
C2323 C2327 1.400 . S
C2324 H2309 0.960 . S
C2324 H2310 0.960 . S
C2324 H2311 0.960 . S
C2324 C2323 1.524 . S
C2325 C2322 1.403 . S
C2325 C2326 1.392 . S
C2325 C2329 1.495 . S
C2326 C2325 1.392 . S
C2326 C2327 1.385 . S
C2326 C2328 1.478 . S
C2327 H2321 0.930 . S
C2327 C2323 1.400 . S
C2327 C2326 1.385 . S
C2328 C2326 1.478 . S
C2328 C2330 1.381 . S
C2328 C2334 1.383 . S
C2329 C2325 1.495 . S
C2329 H2335 0.959 . S
C2329 H2336 0.961 . S
C2329 H2337 0.960 . S
C2330 C2328 1.381 . S
C2330 C2331 1.394 . S
C2330 H2338 0.930 . S
C2331 C2330 1.394 . S
C2331 C2332 1.383 . S
C2331 H2339 0.929 . S
C2332 C2331 1.383 . S
C2332 C2333 1.377 . S
C2333 H2317 0.930 . S
C2333 C2332 1.377 . S
C2333 C2334 1.379 . S
C2334 H2318 0.931 . S
C2334 C2328 1.383 . S
C2334 C2333 1.379 . S
H2335 C2329 0.959 . S
H2336 C2329 0.961 . S
H2337 C2329 0.960 . S
H2338 C2330 0.930 . S
H2339 C2331 0.929 . S
H2340 C2348 0.929 . S
H2341 C2350 0.930 . S
H2342 C2352 0.930 . S
H2343 C2355 0.929 . S
H2344 C2358 0.930 . S
H2345 C2360 0.960 . S
H2346 C2360 0.960 . S
H2347 C2360 0.960 . S
C2348 H2340 0.929 . S
C2348 C2349 1.377 . S
C2348 C2350 1.384 . S
C2349 C2348 1.377 . S
C2349 C2355 1.390 . S
C2350 H2341 0.930 . S
C2350 C2348 1.384 . S
C2350 C2351 1.372 . S
C2351 C2350 1.372 . S
C2351 C2352 1.400 . S
C2351 C2356 1.490 . S
C2352 H2342 0.930 . S
C2352 C2351 1.400 . S
C2352 C2355 1.386 . S
H2353 C2369 0.930 . S
H2354 C2370 0.931 . S
C2355 H2343 0.929 . S
C2355 C2349 1.390 . S
C2355 C2352 1.386 . S
C2356 C2351 1.490 . S
C2356 C2358 1.395 . S
C2356 C2359 1.403 . S
H2357 C2363 0.930 . S
C2358 H2344 0.930 . S
C2358 C2356 1.395 . S
C2358 C2361 1.403 . S
C2359 C2356 1.403 . S
C2359 C2360 1.524 . S
C2359 C2363 1.400 . S
C2360 H2345 0.960 . S
C2360 H2346 0.960 . S
C2360 H2347 0.960 . S
C2360 C2359 1.524 . S
C2361 C2358 1.403 . S
C2361 C2362 1.392 . S
C2361 C2365 1.495 . S
C2362 C2361 1.392 . S
C2362 C2363 1.385 . S
C2362 C2364 1.478 . S
C2363 H2357 0.930 . S
C2363 C2359 1.400 . S
C2363 C2362 1.385 . S
C2364 C2362 1.478 . S
C2364 C2366 1.381 . S
C2364 C2370 1.383 . S
C2365 C2361 1.495 . S
C2365 H2371 0.959 . S
C2365 H2372 0.961 . S
C2365 H2373 0.960 . S
C2366 C2364 1.381 . S
C2366 C2367 1.394 . S
C2366 H2374 0.930 . S
C2367 C2366 1.394 . S
C2367 C2368 1.383 . S
C2367 H2375 0.929 . S
C2368 C2367 1.383 . S
C2368 C2369 1.377 . S
C2369 H2353 0.930 . S
C2369 C2368 1.377 . S
C2369 C2370 1.379 . S
C2370 H2354 0.931 . S
C2370 C2364 1.383 . S
C2370 C2369 1.379 . S
H2371 C2365 0.959 . S
H2372 C2365 0.961 . S
H2373 C2365 0.960 . S
H2374 C2366 0.930 . S
H2375 C2367 0.929 . S
H2376 C2384 0.929 . S
H2377 C2386 0.930 . S
H2378 C2388 0.930 . S
H2379 C2391 0.929 . S
H2380 C2394 0.930 . S
H2381 C2396 0.960 . S
H2382 C2396 0.960 . S
H2383 C2396 0.960 . S
C2384 H2376 0.929 . S
C2384 C2385 1.377 . S
C2384 C2386 1.384 . S
C2385 C2384 1.377 . S
C2385 C2391 1.390 . S
C2386 H2377 0.930 . S
C2386 C2384 1.384 . S
C2386 C2387 1.372 . S
C2387 C2386 1.372 . S
C2387 C2388 1.400 . S
C2387 C2392 1.490 . S
C2388 H2378 0.930 . S
C2388 C2387 1.400 . S
C2388 C2391 1.386 . S
H2389 C2405 0.930 . S
H2390 C2406 0.931 . S
C2391 H2379 0.929 . S
C2391 C2385 1.390 . S
C2391 C2388 1.386 . S
C2392 C2387 1.490 . S
C2392 C2394 1.395 . S
C2392 C2395 1.403 . S
H2393 C2399 0.930 . S
C2394 H2380 0.930 . S
C2394 C2392 1.395 . S
C2394 C2397 1.403 . S
C2395 C2392 1.403 . S
C2395 C2396 1.524 . S
C2395 C2399 1.400 . S
C2396 H2381 0.960 . S
C2396 H2382 0.960 . S
C2396 H2383 0.960 . S
C2396 C2395 1.524 . S
C2397 C2394 1.403 . S
C2397 C2398 1.392 . S
C2397 C2401 1.495 . S
C2398 C2397 1.392 . S
C2398 C2399 1.385 . S
C2398 C2400 1.478 . S
C2399 H2393 0.930 . S
C2399 C2395 1.400 . S
C2399 C2398 1.385 . S
C2400 C2398 1.478 . S
C2400 C2402 1.381 . S
C2400 C2406 1.383 . S
C2401 C2397 1.495 . S
C2401 H2407 0.959 . S
C2401 H2408 0.961 . S
C2401 H2409 0.960 . S
C2402 C2400 1.381 . S
C2402 C2403 1.394 . S
C2402 H2410 0.930 . S
C2403 C2402 1.394 . S
C2403 C2404 1.383 . S
C2403 H2411 0.929 . S
C2404 C2403 1.383 . S
C2404 C2405 1.377 . S
C2405 H2389 0.930 . S
C2405 C2404 1.377 . S
C2405 C2406 1.379 . S
C2406 H2390 0.931 . S
C2406 C2400 1.383 . S
C2406 C2405 1.379 . S
H2407 C2401 0.959 . S
H2408 C2401 0.961 . S
H2409 C2401 0.960 . S
H2410 C2402 0.930 . S
H2411 C2403 0.929 . S
H2412 C2420 0.929 . S
H2413 C2422 0.930 . S
H2414 C2424 0.930 . S
H2415 C2427 0.929 . S
H2416 C2430 0.930 . S
H2417 C2432 0.960 . S
H2418 C2432 0.960 . S
H2419 C2432 0.960 . S
C2420 H2412 0.929 . S
C2420 C2421 1.377 . S
C2420 C2422 1.384 . S
C2421 C2420 1.377 . S
C2421 C2427 1.390 . S
C2422 H2413 0.930 . S
C2422 C2420 1.384 . S
C2422 C2423 1.372 . S
C2423 C2422 1.372 . S
C2423 C2424 1.400 . S
C2423 C2428 1.490 . S
C2424 H2414 0.930 . S
C2424 C2423 1.400 . S
C2424 C2427 1.386 . S
H2425 C2441 0.930 . S
H2426 C2442 0.931 . S
C2427 H2415 0.929 . S
C2427 C2421 1.390 . S
C2427 C2424 1.386 . S
C2428 C2423 1.490 . S
C2428 C2430 1.395 . S
C2428 C2431 1.403 . S
H2429 C2435 0.930 . S
C2430 H2416 0.930 . S
C2430 C2428 1.395 . S
C2430 C2433 1.403 . S
C2431 C2428 1.403 . S
C2431 C2432 1.524 . S
C2431 C2435 1.400 . S
C2432 H2417 0.960 . S
C2432 H2418 0.960 . S
C2432 H2419 0.960 . S
C2432 C2431 1.524 . S
C2433 C2430 1.403 . S
C2433 C2434 1.392 . S
C2433 C2437 1.495 . S
C2434 C2433 1.392 . S
C2434 C2435 1.385 . S
C2434 C2436 1.478 . S
C2435 H2429 0.930 . S
C2435 C2431 1.400 . S
C2435 C2434 1.385 . S
C2436 C2434 1.478 . S
C2436 C2438 1.381 . S
C2436 C2442 1.383 . S
C2437 C2433 1.495 . S
C2437 H2443 0.959 . S
C2437 H2444 0.961 . S
C2437 H2445 0.960 . S
C2438 C2436 1.381 . S
C2438 C2439 1.394 . S
C2438 H2446 0.930 . S
C2439 C2438 1.394 . S
C2439 C2440 1.383 . S
C2439 H2447 0.929 . S
C2440 C2439 1.383 . S
C2440 C2441 1.377 . S
C2441 H2425 0.930 . S
C2441 C2440 1.377 . S
C2441 C2442 1.379 . S
C2442 H2426 0.931 . S
C2442 C2436 1.383 . S
C2442 C2441 1.379 . S
H2443 C2437 0.959 . S
H2444 C2437 0.961 . S
H2445 C2437 0.960 . S
H2446 C2438 0.930 . S
H2447 C2439 0.929 . S
H2448 C2456 0.929 . S
H2449 C2458 0.930 . S
H2450 C2460 0.930 . S
H2451 C2463 0.929 . S
H2452 C2466 0.930 . S
H2453 C2468 0.960 . S
H2454 C2468 0.960 . S
H2455 C2468 0.960 . S
C2456 H2448 0.929 . S
C2456 C2457 1.377 . S
C2456 C2458 1.384 . S
C2457 C2456 1.377 . S
C2457 C2463 1.390 . S
C2458 H2449 0.930 . S
C2458 C2456 1.384 . S
C2458 C2459 1.372 . S
C2459 C2458 1.372 . S
C2459 C2460 1.400 . S
C2459 C2464 1.490 . S
C2460 H2450 0.930 . S
C2460 C2459 1.400 . S
C2460 C2463 1.386 . S
H2461 C2477 0.930 . S
H2462 C2478 0.931 . S
C2463 H2451 0.929 . S
C2463 C2457 1.390 . S
C2463 C2460 1.386 . S
C2464 C2459 1.490 . S
C2464 C2466 1.395 . S
C2464 C2467 1.403 . S
H2465 C2471 0.930 . S
C2466 H2452 0.930 . S
C2466 C2464 1.395 . S
C2466 C2469 1.403 . S
C2467 C2464 1.403 . S
C2467 C2468 1.524 . S
C2467 C2471 1.400 . S
C2468 H2453 0.960 . S
C2468 H2454 0.960 . S
C2468 H2455 0.960 . S
C2468 C2467 1.524 . S
C2469 C2466 1.403 . S
C2469 C2470 1.392 . S
C2469 C2473 1.495 . S
C2470 C2469 1.392 . S
C2470 C2471 1.385 . S
C2470 C2472 1.478 . S
C2471 H2465 0.930 . S
C2471 C2467 1.400 . S
C2471 C2470 1.385 . S
C2472 C2470 1.478 . S
C2472 C2474 1.381 . S
C2472 C2478 1.383 . S
C2473 C2469 1.495 . S
C2473 H2479 0.959 . S
C2473 H2480 0.961 . S
C2473 H2481 0.960 . S
C2474 C2472 1.381 . S
C2474 C2475 1.394 . S
C2474 H2482 0.930 . S
C2475 C2474 1.394 . S
C2475 C2476 1.383 . S
C2475 H2483 0.929 . S
C2476 C2475 1.383 . S
C2476 C2477 1.377 . S
C2477 H2461 0.930 . S
C2477 C2476 1.377 . S
C2477 C2478 1.379 . S
C2478 H2462 0.931 . S
C2478 C2472 1.383 . S
C2478 C2477 1.379 . S
H2479 C2473 0.959 . S
H2480 C2473 0.961 . S
H2481 C2473 0.960 . S
H2482 C2474 0.930 . S
H2483 C2475 0.929 . S
H2484 C2492 0.929 . S
H2485 C2494 0.930 . S
H2486 C2496 0.930 . S
H2487 C2499 0.929 . S
H2488 C2502 0.930 . S
H2489 C2504 0.960 . S
H2490 C2504 0.960 . S
H2491 C2504 0.960 . S
C2492 H2484 0.929 . S
C2492 C2493 1.377 . S
C2492 C2494 1.384 . S
C2493 C2492 1.377 . S
C2493 C2499 1.390 . S
C2494 H2485 0.930 . S
C2494 C2492 1.384 . S
C2494 C2495 1.372 . S
C2495 C2494 1.372 . S
C2495 C2496 1.400 . S
C2495 C2500 1.490 . S
C2496 H2486 0.930 . S
C2496 C2495 1.400 . S
C2496 C2499 1.386 . S
H2497 C2513 0.930 . S
H2498 C2514 0.931 . S
C2499 H2487 0.929 . S
C2499 C2493 1.390 . S
C2499 C2496 1.386 . S
C2500 C2495 1.490 . S
C2500 C2502 1.395 . S
C2500 C2503 1.403 . S
H2501 C2507 0.930 . S
C2502 H2488 0.930 . S
C2502 C2500 1.395 . S
C2502 C2505 1.403 . S
C2503 C2500 1.403 . S
C2503 C2504 1.524 . S
C2503 C2507 1.400 . S
C2504 H2489 0.960 . S
C2504 H2490 0.960 . S
C2504 H2491 0.960 . S
C2504 C2503 1.524 . S
C2505 C2502 1.403 . S
C2505 C2506 1.392 . S
C2505 C2509 1.495 . S
C2506 C2505 1.392 . S
C2506 C2507 1.385 . S
C2506 C2508 1.478 . S
C2507 H2501 0.930 . S
C2507 C2503 1.400 . S
C2507 C2506 1.385 . S
C2508 C2506 1.478 . S
C2508 C2510 1.381 . S
C2508 C2514 1.383 . S
C2509 C2505 1.495 . S
C2509 H2515 0.959 . S
C2509 H2516 0.961 . S
C2509 H2517 0.960 . S
C2510 C2508 1.381 . S
C2510 C2511 1.394 . S
C2510 H2518 0.930 . S
C2511 C2510 1.394 . S
C2511 C2512 1.383 . S
C2511 H2519 0.929 . S
C2512 C2511 1.383 . S
C2512 C2513 1.377 . S
C2513 H2497 0.930 . S
C2513 C2512 1.377 . S
C2513 C2514 1.379 . S
C2514 H2498 0.931 . S
C2514 C2508 1.383 . S
C2514 C2513 1.379 . S
H2515 C2509 0.959 . S
H2516 C2509 0.961 . S
H2517 C2509 0.960 . S
H2518 C2510 0.930 . S
H2519 C2511 0.929 . S
H2520 C2528 0.929 . S
H2521 C2530 0.930 . S
H2522 C2532 0.930 . S
H2523 C2535 0.929 . S
H2524 C2538 0.930 . S
H2525 C2540 0.960 . S
H2526 C2540 0.960 . S
H2527 C2540 0.960 . S
C2528 H2520 0.929 . S
C2528 C2529 1.377 . S
C2528 C2530 1.384 . S
C2529 C2528 1.377 . S
C2529 C2535 1.390 . S
C2530 H2521 0.930 . S
C2530 C2528 1.384 . S
C2530 C2531 1.372 . S
C2531 C2530 1.372 . S
C2531 C2532 1.400 . S
C2531 C2536 1.490 . S
C2532 H2522 0.930 . S
C2532 C2531 1.400 . S
C2532 C2535 1.386 . S
H2533 C2549 0.930 . S
H2534 C2550 0.931 . S
C2535 H2523 0.929 . S
C2535 C2529 1.390 . S
C2535 C2532 1.386 . S
C2536 C2531 1.490 . S
C2536 C2538 1.395 . S
C2536 C2539 1.403 . S
H2537 C2543 0.930 . S
C2538 H2524 0.930 . S
C2538 C2536 1.395 . S
C2538 C2541 1.403 1_554 S
C2539 C2536 1.403 . S
C2539 C2540 1.524 . S
C2539 C2543 1.400 1_554 S
C2540 H2525 0.960 . S
C2540 H2526 0.960 . S
C2540 H2527 0.960 . S
C2540 C2539 1.524 . S
C2541 C2538 1.403 1_556 S
C2541 C2542 1.392 . S
C2541 C2545 1.495 . S
C2542 C2541 1.392 . S
C2542 C2543 1.385 . S
C2542 C2544 1.478 . S
C2543 H2537 0.930 . S
C2543 C2539 1.400 1_556 S
C2543 C2542 1.385 . S
C2544 C2542 1.478 . S
C2544 C2546 1.381 . S
C2544 C2550 1.383 . S
C2545 C2541 1.495 . S
C2545 H2551 0.959 . S
C2545 H2552 0.961 . S
C2545 H2553 0.960 . S
C2546 C2544 1.381 . S
C2546 C2547 1.394 . S
C2546 H2554 0.930 . S
C2547 C2546 1.394 . S
C2547 C2548 1.383 . S
C2547 H2555 0.929 . S
C2548 C2547 1.383 . S
C2548 C2549 1.377 . S
C2549 H2533 0.930 . S
C2549 C2548 1.377 . S
C2549 C2550 1.379 . S
C2550 H2534 0.931 . S
C2550 C2544 1.383 . S
C2550 C2549 1.379 . S
H2551 C2545 0.959 . S
H2552 C2545 0.961 . S
H2553 C2545 0.960 . S
H2554 C2546 0.930 . S
H2555 C2547 0.929 . S
H2556 C2564 0.929 . S
H2557 C2566 0.930 . S
H2558 C2568 0.930 . S
H2559 C2571 0.929 . S
H2560 C2574 0.930 . S
H2561 C2576 0.960 . S
H2562 C2576 0.960 . S
H2563 C2576 0.960 . S
C2564 H2556 0.929 . S
C2564 C2565 1.377 . S
C2564 C2566 1.384 . S
C2565 C2564 1.377 . S
C2565 C2571 1.390 . S
C2566 H2557 0.930 . S
C2566 C2564 1.384 . S
C2566 C2567 1.372 . S
C2567 C2566 1.372 . S
C2567 C2568 1.400 . S
C2567 C2572 1.490 . S
C2568 H2558 0.930 . S
C2568 C2567 1.400 . S
C2568 C2571 1.386 . S
H2569 C2585 0.930 . S
H2570 C2586 0.931 . S
C2571 H2559 0.929 . S
C2571 C2565 1.390 . S
C2571 C2568 1.386 . S
C2572 C2567 1.490 . S
C2572 C2574 1.395 . S
C2572 C2575 1.403 . S
H2573 C2579 0.930 . S
C2574 H2560 0.930 . S
C2574 C2572 1.395 . S
C2574 C2577 1.403 1_554 S
C2575 C2572 1.403 . S
C2575 C2576 1.524 . S
C2575 C2579 1.400 1_554 S
C2576 H2561 0.960 . S
C2576 H2562 0.960 . S
C2576 H2563 0.960 . S
C2576 C2575 1.524 . S
C2577 C2574 1.403 1_556 S
C2577 C2578 1.392 . S
C2577 C2581 1.495 . S
C2578 C2577 1.392 . S
C2578 C2579 1.385 . S
C2578 C2580 1.478 . S
C2579 H2573 0.930 . S
C2579 C2575 1.400 1_556 S
C2579 C2578 1.385 . S
C2580 C2578 1.478 . S
C2580 C2582 1.381 . S
C2580 C2586 1.383 . S
C2581 C2577 1.495 . S
C2581 H2587 0.959 . S
C2581 H2588 0.961 . S
C2581 H2589 0.960 . S
C2582 C2580 1.381 . S
C2582 C2583 1.394 . S
C2582 H2590 0.930 . S
C2583 C2582 1.394 . S
C2583 C2584 1.383 . S
C2583 H2591 0.929 . S
C2584 C2583 1.383 . S
C2584 C2585 1.377 . S
C2585 H2569 0.930 . S
C2585 C2584 1.377 . S
C2585 C2586 1.379 . S
C2586 H2570 0.931 . S
C2586 C2580 1.383 . S
C2586 C2585 1.379 . S
H2587 C2581 0.959 . S
H2588 C2581 0.961 . S
H2589 C2581 0.960 . S
H2590 C2582 0.930 . S
H2591 C2583 0.929 . S
H2592 C2600 0.929 . S
H2593 C2602 0.930 . S
H2594 C2604 0.930 . S
H2595 C2607 0.929 . S
H2596 C2610 0.930 . S
H2597 C2612 0.960 . S
H2598 C2612 0.960 . S
H2599 C2612 0.960 . S
C2600 H2592 0.929 . S
C2600 C2601 1.377 . S
C2600 C2602 1.384 . S
C2601 C2600 1.377 . S
C2601 C2607 1.390 . S
C2602 H2593 0.930 . S
C2602 C2600 1.384 . S
C2602 C2603 1.372 . S
C2603 C2602 1.372 . S
C2603 C2604 1.400 . S
C2603 C2608 1.490 . S
C2604 H2594 0.930 . S
C2604 C2603 1.400 . S
C2604 C2607 1.386 . S
H2605 C2621 0.930 . S
H2606 C2622 0.931 . S
C2607 H2595 0.929 . S
C2607 C2601 1.390 . S
C2607 C2604 1.386 . S
C2608 C2603 1.490 . S
C2608 C2610 1.395 . S
C2608 C2611 1.403 . S
H2609 C2615 0.930 . S
C2610 H2596 0.930 . S
C2610 C2608 1.395 . S
C2610 C2613 1.403 1_554 S
C2611 C2608 1.403 . S
C2611 C2612 1.524 . S
C2611 C2615 1.400 1_554 S
C2612 H2597 0.960 . S
C2612 H2598 0.960 . S
C2612 H2599 0.960 . S
C2612 C2611 1.524 . S
C2613 C2610 1.403 1_556 S
C2613 C2614 1.392 . S
C2613 C2617 1.495 . S
C2614 C2613 1.392 . S
C2614 C2615 1.385 . S
C2614 C2616 1.478 . S
C2615 H2609 0.930 . S
C2615 C2611 1.400 1_556 S
C2615 C2614 1.385 . S
C2616 C2614 1.478 . S
C2616 C2618 1.381 . S
C2616 C2622 1.383 . S
C2617 C2613 1.495 . S
C2617 H2623 0.959 . S
C2617 H2624 0.961 . S
C2617 H2625 0.960 . S
C2618 C2616 1.381 . S
C2618 C2619 1.394 . S
C2618 H2626 0.930 . S
C2619 C2618 1.394 . S
C2619 C2620 1.383 . S
C2619 H2627 0.929 . S
C2620 C2619 1.383 . S
C2620 C2621 1.377 . S
C2621 H2605 0.930 . S
C2621 C2620 1.377 . S
C2621 C2622 1.379 . S
C2622 H2606 0.931 . S
C2622 C2616 1.383 . S
C2622 C2621 1.379 . S
H2623 C2617 0.959 . S
H2624 C2617 0.961 . S
H2625 C2617 0.960 . S
H2626 C2618 0.930 . S
H2627 C2619 0.929 . S
H2628 C2636 0.929 . S
H2629 C2638 0.930 . S
H2630 C2640 0.930 . S
H2631 C2643 0.929 . S
H2632 C2646 0.930 . S
H2633 C2648 0.960 . S
H2634 C2648 0.960 . S
H2635 C2648 0.960 . S
C2636 H2628 0.929 . S
C2636 C2637 1.377 . S
C2636 C2638 1.384 . S
C2637 C2636 1.377 . S
C2637 C2643 1.390 . S
C2638 H2629 0.930 . S
C2638 C2636 1.384 . S
C2638 C2639 1.372 . S
C2639 C2638 1.372 . S
C2639 C2640 1.400 . S
C2639 C2644 1.490 . S
C2640 H2630 0.930 . S
C2640 C2639 1.400 . S
C2640 C2643 1.386 . S
H2641 C2657 0.930 . S
H2642 C2658 0.931 . S
C2643 H2631 0.929 . S
C2643 C2637 1.390 . S
C2643 C2640 1.386 . S
C2644 C2639 1.490 . S
C2644 C2646 1.395 . S
C2644 C2647 1.403 . S
H2645 C2651 0.930 . S
C2646 H2632 0.930 . S
C2646 C2644 1.395 . S
C2646 C2649 1.403 1_554 S
C2647 C2644 1.403 . S
C2647 C2648 1.524 . S
C2647 C2651 1.400 1_554 S
C2648 H2633 0.960 . S
C2648 H2634 0.960 . S
C2648 H2635 0.960 . S
C2648 C2647 1.524 . S
C2649 C2646 1.403 1_556 S
C2649 C2650 1.392 . S
C2649 C2653 1.495 . S
C2650 C2649 1.392 . S
C2650 C2651 1.385 . S
C2650 C2652 1.478 . S
C2651 H2645 0.930 . S
C2651 C2647 1.400 1_556 S
C2651 C2650 1.385 . S
C2652 C2650 1.478 . S
C2652 C2654 1.381 . S
C2652 C2658 1.383 . S
C2653 C2649 1.495 . S
C2653 H2659 0.959 . S
C2653 H2660 0.961 . S
C2653 H2661 0.960 . S
C2654 C2652 1.381 . S
C2654 C2655 1.394 . S
C2654 H2662 0.930 . S
C2655 C2654 1.394 . S
C2655 C2656 1.383 . S
C2655 H2663 0.929 . S
C2656 C2655 1.383 . S
C2656 C2657 1.377 . S
C2657 H2641 0.930 . S
C2657 C2656 1.377 . S
C2657 C2658 1.379 . S
C2658 H2642 0.931 . S
C2658 C2652 1.383 . S
C2658 C2657 1.379 . S
H2659 C2653 0.959 . S
H2660 C2653 0.961 . S
H2661 C2653 0.960 . S
H2662 C2654 0.930 . S
H2663 C2655 0.929 . S
H2664 C2672 0.929 . S
H2665 C2674 0.930 . S
H2666 C2676 0.930 . S
H2667 C2679 0.929 . S
H2668 C2682 0.930 . S
H2669 C2684 0.960 . S
H2670 C2684 0.960 . S
H2671 C2684 0.960 . S
C2672 H2664 0.929 . S
C2672 C2673 1.377 . S
C2672 C2674 1.384 . S
C2673 C2672 1.377 . S
C2673 C2679 1.390 . S
C2674 H2665 0.930 . S
C2674 C2672 1.384 . S
C2674 C2675 1.372 . S
C2675 C2674 1.372 . S
C2675 C2676 1.400 . S
C2675 C2680 1.490 . S
C2676 H2666 0.930 . S
C2676 C2675 1.400 . S
C2676 C2679 1.386 . S
H2677 C2693 0.930 . S
H2678 C2694 0.931 . S
C2679 H2667 0.929 . S
C2679 C2673 1.390 . S
C2679 C2676 1.386 . S
C2680 C2675 1.490 . S
C2680 C2682 1.395 . S
C2680 C2683 1.403 . S
H2681 C2687 0.930 . S
C2682 H2668 0.930 . S
C2682 C2680 1.395 . S
C2682 C2685 1.403 1_554 S
C2683 C2680 1.403 . S
C2683 C2684 1.524 . S
C2683 C2687 1.400 1_554 S
C2684 H2669 0.960 . S
C2684 H2670 0.960 . S
C2684 H2671 0.960 . S
C2684 C2683 1.524 . S
C2685 C2682 1.403 1_556 S
C2685 C2686 1.392 . S
C2685 C2689 1.495 . S
C2686 C2685 1.392 . S
C2686 C2687 1.385 . S
C2686 C2688 1.478 . S
C2687 H2681 0.930 . S
C2687 C2683 1.400 1_556 S
C2687 C2686 1.385 . S
C2688 C2686 1.478 . S
C2688 C2690 1.381 . S
C2688 C2694 1.383 . S
C2689 C2685 1.495 . S
C2689 H2695 0.959 . S
C2689 H2696 0.961 . S
C2689 H2697 0.960 . S
C2690 C2688 1.381 . S
C2690 C2691 1.394 . S
C2690 H2698 0.930 . S
C2691 C2690 1.394 . S
C2691 C2692 1.383 . S
C2691 H2699 0.929 . S
C2692 C2691 1.383 . S
C2692 C2693 1.377 . S
C2693 H2677 0.930 . S
C2693 C2692 1.377 . S
C2693 C2694 1.379 . S
C2694 H2678 0.931 . S
C2694 C2688 1.383 . S
C2694 C2693 1.379 . S
H2695 C2689 0.959 . S
H2696 C2689 0.961 . S
H2697 C2689 0.960 . S
H2698 C2690 0.930 . S
H2699 C2691 0.929 . S
H2700 C2708 0.929 . S
H2701 C2710 0.930 . S
H2702 C2712 0.930 . S
H2703 C2715 0.929 . S
H2704 C2718 0.930 . S
H2705 C2720 0.960 . S
H2706 C2720 0.960 . S
H2707 C2720 0.960 . S
C2708 H2700 0.929 . S
C2708 C2709 1.377 . S
C2708 C2710 1.384 . S
C2709 C2708 1.377 . S
C2709 C2715 1.390 . S
C2710 H2701 0.930 . S
C2710 C2708 1.384 . S
C2710 C2711 1.372 . S
C2711 C2710 1.372 . S
C2711 C2712 1.400 . S
C2711 C2716 1.490 . S
C2712 H2702 0.930 . S
C2712 C2711 1.400 . S
C2712 C2715 1.386 . S
H2713 C2729 0.930 . S
H2714 C2730 0.931 . S
C2715 H2703 0.929 . S
C2715 C2709 1.390 . S
C2715 C2712 1.386 . S
C2716 C2711 1.490 . S
C2716 C2718 1.395 . S
C2716 C2719 1.403 . S
H2717 C2723 0.930 . S
C2718 H2704 0.930 . S
C2718 C2716 1.395 . S
C2718 C2721 1.403 1_556 S
C2719 C2716 1.403 . S
C2719 C2720 1.524 . S
C2719 C2723 1.400 1_556 S
C2720 H2705 0.960 . S
C2720 H2706 0.960 . S
C2720 H2707 0.960 . S
C2720 C2719 1.524 . S
C2721 C2718 1.403 1_554 S
C2721 C2722 1.392 . S
C2721 C2725 1.495 . S
C2722 C2721 1.392 . S
C2722 C2723 1.385 . S
C2722 C2724 1.478 . S
C2723 H2717 0.930 . S
C2723 C2719 1.400 1_554 S
C2723 C2722 1.385 . S
C2724 C2722 1.478 . S
C2724 C2726 1.381 . S
C2724 C2730 1.383 . S
C2725 C2721 1.495 . S
C2725 H2731 0.959 . S
C2725 H2732 0.961 . S
C2725 H2733 0.960 . S
C2726 C2724 1.381 . S
C2726 C2727 1.394 . S
C2726 H2734 0.930 . S
C2727 C2726 1.394 . S
C2727 C2728 1.383 . S
C2727 H2735 0.929 . S
C2728 C2727 1.383 . S
C2728 C2729 1.377 . S
C2729 H2713 0.930 . S
C2729 C2728 1.377 . S
C2729 C2730 1.379 . S
C2730 H2714 0.931 . S
C2730 C2724 1.383 . S
C2730 C2729 1.379 . S
H2731 C2725 0.959 . S
H2732 C2725 0.961 . S
H2733 C2725 0.960 . S
H2734 C2726 0.930 . S
H2735 C2727 0.929 . S
H2736 C2744 0.929 . S
H2737 C2746 0.930 . S
H2738 C2748 0.930 . S
H2739 C2751 0.929 . S
H2740 C2754 0.930 . S
H2741 C2756 0.960 . S
H2742 C2756 0.960 . S
H2743 C2756 0.960 . S
C2744 H2736 0.929 . S
C2744 C2745 1.377 . S
C2744 C2746 1.384 . S
C2745 C2744 1.377 . S
C2745 C2751 1.390 . S
C2746 H2737 0.930 . S
C2746 C2744 1.384 . S
C2746 C2747 1.372 . S
C2747 C2746 1.372 . S
C2747 C2748 1.400 . S
C2747 C2752 1.490 . S
C2748 H2738 0.930 . S
C2748 C2747 1.400 . S
C2748 C2751 1.386 . S
H2749 C2765 0.930 . S
H2750 C2766 0.931 . S
C2751 H2739 0.929 . S
C2751 C2745 1.390 . S
C2751 C2748 1.386 . S
C2752 C2747 1.490 . S
C2752 C2754 1.395 . S
C2752 C2755 1.403 . S
H2753 C2759 0.930 . S
C2754 H2740 0.930 . S
C2754 C2752 1.395 . S
C2754 C2757 1.403 . S
C2755 C2752 1.403 . S
C2755 C2756 1.524 . S
C2755 C2759 1.400 . S
C2756 H2741 0.960 . S
C2756 H2742 0.960 . S
C2756 H2743 0.960 . S
C2756 C2755 1.524 . S
C2757 C2754 1.403 . S
C2757 C2758 1.392 . S
C2757 C2761 1.495 . S
C2758 C2757 1.392 . S
C2758 C2759 1.385 . S
C2758 C2760 1.478 . S
C2759 H2753 0.930 . S
C2759 C2755 1.400 . S
C2759 C2758 1.385 . S
C2760 C2758 1.478 . S
C2760 C2762 1.381 . S
C2760 C2766 1.383 . S
C2761 C2757 1.495 . S
C2761 H2767 0.959 . S
C2761 H2768 0.961 . S
C2761 H2769 0.960 . S
C2762 C2760 1.381 . S
C2762 C2763 1.394 . S
C2762 H2770 0.930 . S
C2763 C2762 1.394 . S
C2763 C2764 1.383 . S
C2763 H2771 0.929 . S
C2764 C2763 1.383 . S
C2764 C2765 1.377 . S
C2765 H2749 0.930 . S
C2765 C2764 1.377 . S
C2765 C2766 1.379 . S
C2766 H2750 0.931 . S
C2766 C2760 1.383 . S
C2766 C2765 1.379 . S
H2767 C2761 0.959 . S
H2768 C2761 0.961 . S
H2769 C2761 0.960 . S
H2770 C2762 0.930 . S
H2771 C2763 0.929 . S
H2772 C2780 0.929 . S
H2773 C2782 0.930 . S
H2774 C2784 0.930 . S
H2775 C2787 0.929 . S
H2776 C2790 0.930 . S
H2777 C2792 0.960 . S
H2778 C2792 0.960 . S
H2779 C2792 0.960 . S
C2780 H2772 0.929 . S
C2780 C2781 1.377 . S
C2780 C2782 1.384 . S
C2781 C2780 1.377 . S
C2781 C2787 1.390 . S
C2782 H2773 0.930 . S
C2782 C2780 1.384 . S
C2782 C2783 1.372 . S
C2783 C2782 1.372 . S
C2783 C2784 1.400 . S
C2783 C2788 1.490 . S
C2784 H2774 0.930 . S
C2784 C2783 1.400 . S
C2784 C2787 1.386 . S
H2785 C2801 0.930 . S
H2786 C2802 0.931 . S
C2787 H2775 0.929 . S
C2787 C2781 1.390 . S
C2787 C2784 1.386 . S
C2788 C2783 1.490 . S
C2788 C2790 1.395 . S
C2788 C2791 1.403 . S
H2789 C2795 0.930 . S
C2790 H2776 0.930 . S
C2790 C2788 1.395 . S
C2790 C2793 1.403 . S
C2791 C2788 1.403 . S
C2791 C2792 1.524 . S
C2791 C2795 1.400 . S
C2792 H2777 0.960 . S
C2792 H2778 0.960 . S
C2792 H2779 0.960 . S
C2792 C2791 1.524 . S
C2793 C2790 1.403 . S
C2793 C2794 1.392 . S
C2793 C2797 1.495 . S
C2794 C2793 1.392 . S
C2794 C2795 1.385 . S
C2794 C2796 1.478 . S
C2795 H2789 0.930 . S
C2795 C2791 1.400 . S
C2795 C2794 1.385 . S
C2796 C2794 1.478 . S
C2796 C2798 1.381 . S
C2796 C2802 1.383 . S
C2797 C2793 1.495 . S
C2797 H2803 0.959 . S
C2797 H2804 0.961 . S
C2797 H2805 0.960 . S
C2798 C2796 1.381 . S
C2798 C2799 1.394 . S
C2798 H2806 0.930 . S
C2799 C2798 1.394 . S
C2799 C2800 1.383 . S
C2799 H2807 0.929 . S
C2800 C2799 1.383 . S
C2800 C2801 1.377 . S
C2801 H2785 0.930 . S
C2801 C2800 1.377 . S
C2801 C2802 1.379 . S
C2802 H2786 0.931 . S
C2802 C2796 1.383 . S
C2802 C2801 1.379 . S
H2803 C2797 0.959 . S
H2804 C2797 0.961 . S
H2805 C2797 0.960 . S
H2806 C2798 0.930 . S
H2807 C2799 0.929 . S
H2808 C2816 0.929 . S
H2809 C2818 0.930 . S
H2810 C2820 0.930 . S
H2811 C2823 0.929 . S
H2812 C2826 0.930 . S
H2813 C2828 0.960 . S
H2814 C2828 0.960 . S
H2815 C2828 0.960 . S
C2816 H2808 0.929 . S
C2816 C2817 1.377 . S
C2816 C2818 1.384 . S
C2817 C2816 1.377 . S
C2817 C2823 1.390 . S
C2818 H2809 0.930 . S
C2818 C2816 1.384 . S
C2818 C2819 1.372 . S
C2819 C2818 1.372 . S
C2819 C2820 1.400 . S
C2819 C2824 1.490 . S
C2820 H2810 0.930 . S
C2820 C2819 1.400 . S
C2820 C2823 1.386 . S
H2821 C2837 0.930 . S
H2822 C2838 0.931 . S
C2823 H2811 0.929 . S
C2823 C2817 1.390 . S
C2823 C2820 1.386 . S
C2824 C2819 1.490 . S
C2824 C2826 1.395 . S
C2824 C2827 1.403 . S
H2825 C2831 0.930 . S
C2826 H2812 0.930 . S
C2826 C2824 1.395 . S
C2826 C2829 1.403 . S
C2827 C2824 1.403 . S
C2827 C2828 1.524 . S
C2827 C2831 1.400 . S
C2828 H2813 0.960 . S
C2828 H2814 0.960 . S
C2828 H2815 0.960 . S
C2828 C2827 1.524 . S
C2829 C2826 1.403 . S
C2829 C2830 1.392 . S
C2829 C2833 1.495 . S
C2830 C2829 1.392 . S
C2830 C2831 1.385 . S
C2830 C2832 1.478 . S
C2831 H2825 0.930 . S
C2831 C2827 1.400 . S
C2831 C2830 1.385 . S
C2832 C2830 1.478 . S
C2832 C2834 1.381 . S
C2832 C2838 1.383 . S
C2833 C2829 1.495 . S
C2833 H2839 0.959 . S
C2833 H2840 0.961 . S
C2833 H2841 0.960 . S
C2834 C2832 1.381 . S
C2834 C2835 1.394 . S
C2834 H2842 0.930 . S
C2835 C2834 1.394 . S
C2835 C2836 1.383 . S
C2835 H2843 0.929 . S
C2836 C2835 1.383 . S
C2836 C2837 1.377 . S
C2837 H2821 0.930 . S
C2837 C2836 1.377 . S
C2837 C2838 1.379 . S
C2838 H2822 0.931 . S
C2838 C2832 1.383 . S
C2838 C2837 1.379 . S
H2839 C2833 0.959 . S
H2840 C2833 0.961 . S
H2841 C2833 0.960 . S
H2842 C2834 0.930 . S
H2843 C2835 0.929 . S
H2844 C2852 0.929 . S
H2845 C2854 0.930 . S
H2846 C2856 0.930 . S
H2847 C2859 0.929 . S
H2848 C2862 0.930 . S
H2849 C2864 0.960 . S
H2850 C2864 0.960 . S
H2851 C2864 0.960 . S
C2852 H2844 0.929 . S
C2852 C2853 1.377 . S
C2852 C2854 1.384 . S
C2853 C2852 1.377 . S
C2853 C2859 1.390 . S
C2854 H2845 0.930 . S
C2854 C2852 1.384 . S
C2854 C2855 1.372 . S
C2855 C2854 1.372 . S
C2855 C2856 1.400 . S
C2855 C2860 1.490 . S
C2856 H2846 0.930 . S
C2856 C2855 1.400 . S
C2856 C2859 1.386 . S
H2857 C2873 0.930 . S
H2858 C2874 0.931 . S
C2859 H2847 0.929 . S
C2859 C2853 1.390 . S
C2859 C2856 1.386 . S
C2860 C2855 1.490 . S
C2860 C2862 1.395 . S
C2860 C2863 1.403 . S
H2861 C2867 0.930 . S
C2862 H2848 0.930 . S
C2862 C2860 1.395 . S
C2862 C2865 1.403 . S
C2863 C2860 1.403 . S
C2863 C2864 1.524 . S
C2863 C2867 1.400 . S
C2864 H2849 0.960 . S
C2864 H2850 0.960 . S
C2864 H2851 0.960 . S
C2864 C2863 1.524 . S
C2865 C2862 1.403 . S
C2865 C2866 1.392 . S
C2865 C2869 1.495 . S
C2866 C2865 1.392 . S
C2866 C2867 1.385 . S
C2866 C2868 1.478 . S
C2867 H2861 0.930 . S
C2867 C2863 1.400 . S
C2867 C2866 1.385 . S
C2868 C2866 1.478 . S
C2868 C2870 1.381 . S
C2868 C2874 1.383 . S
C2869 C2865 1.495 . S
C2869 H2875 0.959 . S
C2869 H2876 0.961 . S
C2869 H2877 0.960 . S
C2870 C2868 1.381 . S
C2870 C2871 1.394 . S
C2870 H2878 0.930 . S
C2871 C2870 1.394 . S
C2871 C2872 1.383 . S
C2871 H2879 0.929 . S
C2872 C2871 1.383 . S
C2872 C2873 1.377 . S
C2873 H2857 0.930 . S
C2873 C2872 1.377 . S
C2873 C2874 1.379 . S
C2874 H2858 0.931 . S
C2874 C2868 1.383 . S
C2874 C2873 1.379 . S
H2875 C2869 0.959 . S
H2876 C2869 0.961 . S
H2877 C2869 0.960 . S
H2878 C2870 0.930 . S
H2879 C2871 0.929 . S
H2880 C2888 0.929 . S
H2881 C2890 0.930 . S
H2882 C2892 0.930 . S
H2883 C2895 0.929 . S
H2884 C2898 0.930 . S
H2885 C2900 0.960 . S
H2886 C2900 0.960 . S
H2887 C2900 0.960 . S
C2888 H2880 0.929 . S
C2888 C2889 1.377 . S
C2888 C2890 1.384 . S
C2889 C2888 1.377 . S
C2889 C2895 1.390 . S
C2890 H2881 0.930 . S
C2890 C2888 1.384 . S
C2890 C2891 1.372 . S
C2891 C2890 1.372 . S
C2891 C2892 1.400 . S
C2891 C2896 1.490 . S
C2892 H2882 0.930 . S
C2892 C2891 1.400 . S
C2892 C2895 1.386 . S
H2893 C2909 0.930 . S
H2894 C2910 0.931 . S
C2895 H2883 0.929 . S
C2895 C2889 1.390 . S
C2895 C2892 1.386 . S
C2896 C2891 1.490 . S
C2896 C2898 1.395 . S
C2896 C2899 1.403 . S
H2897 C2903 0.930 . S
C2898 H2884 0.930 . S
C2898 C2896 1.395 . S
C2898 C2901 1.403 . S
C2899 C2896 1.403 . S
C2899 C2900 1.524 . S
C2899 C2903 1.400 . S
C2900 H2885 0.960 . S
C2900 H2886 0.960 . S
C2900 H2887 0.960 . S
C2900 C2899 1.524 . S
C2901 C2898 1.403 . S
C2901 C2902 1.392 . S
C2901 C2905 1.495 . S
C2902 C2901 1.392 . S
C2902 C2903 1.385 . S
C2902 C2904 1.478 . S
C2903 H2897 0.930 . S
C2903 C2899 1.400 . S
C2903 C2902 1.385 . S
C2904 C2902 1.478 . S
C2904 C2906 1.381 . S
C2904 C2910 1.383 . S
C2905 C2901 1.495 . S
C2905 H2911 0.959 . S
C2905 H2912 0.961 . S
C2905 H2913 0.960 . S
C2906 C2904 1.381 . S
C2906 C2907 1.394 . S
C2906 H2914 0.930 . S
C2907 C2906 1.394 . S
C2907 C2908 1.383 . S
C2907 H2915 0.929 . S
C2908 C2907 1.383 . S
C2908 C2909 1.377 . S
C2909 H2893 0.930 . S
C2909 C2908 1.377 . S
C2909 C2910 1.379 . S
C2910 H2894 0.931 . S
C2910 C2904 1.383 . S
C2910 C2909 1.379 . S
H2911 C2905 0.959 . S
H2912 C2905 0.961 . S
H2913 C2905 0.960 . S
H2914 C2906 0.930 . S
H2915 C2907 0.929 . S
H2916 C2924 0.929 . S
H2917 C2926 0.930 . S
H2918 C2928 0.930 . S
H2919 C2931 0.929 . S
H2920 C2934 0.930 . S
H2921 C2936 0.960 . S
H2922 C2936 0.960 . S
H2923 C2936 0.960 . S
C2924 H2916 0.929 . S
C2924 C2925 1.377 . S
C2924 C2926 1.384 . S
C2925 C2924 1.377 . S
C2925 C2931 1.390 . S
C2926 H2917 0.930 . S
C2926 C2924 1.384 . S
C2926 C2927 1.372 . S
C2927 C2926 1.372 . S
C2927 C2928 1.400 . S
C2927 C2932 1.490 . S
C2928 H2918 0.930 . S
C2928 C2927 1.400 . S
C2928 C2931 1.386 . S
H2929 C2945 0.930 . S
H2930 C2946 0.931 . S
C2931 H2919 0.929 . S
C2931 C2925 1.390 . S
C2931 C2928 1.386 . S
C2932 C2927 1.490 . S
C2932 C2934 1.395 . S
C2932 C2935 1.403 . S
H2933 C2939 0.930 . S
C2934 H2920 0.930 . S
C2934 C2932 1.395 . S
C2934 C2937 1.403 . S
C2935 C2932 1.403 . S
C2935 C2936 1.524 . S
C2935 C2939 1.400 . S
C2936 H2921 0.960 . S
C2936 H2922 0.960 . S
C2936 H2923 0.960 . S
C2936 C2935 1.524 . S
C2937 C2934 1.403 . S
C2937 C2938 1.392 . S
C2937 C2941 1.495 . S
C2938 C2937 1.392 . S
C2938 C2939 1.385 . S
C2938 C2940 1.478 . S
C2939 H2933 0.930 . S
C2939 C2935 1.400 . S
C2939 C2938 1.385 . S
C2940 C2938 1.478 . S
C2940 C2942 1.381 . S
C2940 C2946 1.383 . S
C2941 C2937 1.495 . S
C2941 H2947 0.959 . S
C2941 H2948 0.961 . S
C2941 H2949 0.960 . S
C2942 C2940 1.381 . S
C2942 C2943 1.394 . S
C2942 H2950 0.930 . S
C2943 C2942 1.394 . S
C2943 C2944 1.383 . S
C2943 H2951 0.929 . S
C2944 C2943 1.383 . S
C2944 C2945 1.377 . S
C2945 H2929 0.930 . S
C2945 C2944 1.377 . S
C2945 C2946 1.379 . S
C2946 H2930 0.931 . S
C2946 C2940 1.383 . S
C2946 C2945 1.379 . S
H2947 C2941 0.959 . S
H2948 C2941 0.961 . S
H2949 C2941 0.960 . S
H2950 C2942 0.930 . S
H2951 C2943 0.929 . S
C801 N13 0.672 . S
C820 N112 0.681 . S
C837 N145 0.672 . S
C856 N46 0.696 . S
C873 N178 0.675 . S
C892 N79 0.643 . S
C909 N310 0.705 . S
C928 N211 0.690 . S
C945 N244 0.704 . S
C964 N343 0.674 . S
C981 N277 0.673 . S
C1000 N376 0.662 . S
C1017 N508 0.701 . S
C1036 N409 0.671 . S
C1053 N541 0.672 . S
C1072 N442 0.758 . S
C1089 N574 0.683 . S
C1108 N475 0.669 . S
C1125 N706 0.703 . S
C1144 N607 0.653 . S
C1161 N640 0.693 . S
C1180 N739 0.713 . S
C1197 N772 0.689 . S
C1216 N673 0.731 . S
C1233 N266 1.782 . S
C1252 N2 1.779 . S
C1269 N35 1.781 . S
C1288 N299 1.776 . S
C1305 N68 1.783 . S
C1324 N332 1.783 . S
C1341 N101 1.782 . S
C1360 N365 1.779 . S
C1377 N134 1.782 . S
C1396 N200 1.780 . S
C1413 N233 1.781 . S
C1432 N167 1.773 . S
C1449 N398 1.781 . S
C1468 N662 1.775 . S
C1485 N695 1.781 . S
C1504 N431 1.781 . S
C1521 N728 1.781 . S
C1540 N464 1.780 . S
C1557 N497 1.783 . S
C1576 N761 1.775 . S
C1593 N596 1.782 . S
C1612 N530 1.783 . S
C1629 N629 1.781 . S
C1648 N563 1.780 . S
C1665 C21 0.439 . S
C1684 C252 0.331 . S
C1701 C54 0.406 . S
C1720 C285 0.438 . S
C1737 C318 0.406 . S
C1756 C87 0.505 . S
C1773 C120 0.411 . S
C1792 C351 0.397 . S
C1809 C384 0.425 . S
C1828 C153 0.513 . S
C1845 C219 0.415 . S
C1864 C186 0.376 . S
C1881 C417 0.422 . S
C1900 C648 0.353 . S
C1917 C450 0.412 . S
C1936 C681 0.521 . S
C1953 C483 0.425 . S
C1972 C714 0.510 . S
C1989 C516 0.404 . S
C2008 C747 0.489 . S
C2025 C549 0.404 . S
C2044 C780 0.498 . S
C2061 C615 0.418 . S
C2080 C582 0.369 . S
C2097 C7 0.632 . S
C2116 C337 0.683 . S
C2133 C370 0.638 . S
C2152 C40 0.684 . S
C2169 C205 0.638 . S
C2188 C73 0.683 . S
C2205 C238 0.619 . S
C2224 C106 0.617 . S
C2241 C139 0.625 . S
C2260 C271 0.662 . S
C2277 C172 0.640 . S
C2296 C304 0.626 . S
C2313 C403 0.632 . S
C2332 C733 0.630 . S
C2349 C766 0.626 . S
C2368 C436 0.650 . S
C2385 C601 0.641 . S
C2404 C469 0.582 . S
C2421 C502 0.639 . S
C2440 C634 0.592 . S
C2457 C535 0.619 . S
C2476 C667 0.685 . S
C2493 C700 0.640 . S
C2512 C568 0.586 . S
C2529 C18 1.073 . S
C2548 C513 1.074 . S
C2565 C51 1.080 . S
C2584 C546 1.072 . S
C2601 C84 1.079 . S
C2620 C579 1.077 . S
C2637 C117 1.076 . S
C2656 C414 1.091 . S
C2673 C150 1.074 . S
C2692 C447 1.067 . S
C2709 C480 1.074 . S
C2728 C183 1.092 . S
C2745 C216 1.073 . S
C2764 C711 1.086 . S
C2781 C249 1.080 . S
C2800 C744 1.069 . S
C2817 C282 1.078 . S
C2836 C777 1.056 . S
C2853 C315 1.080 . S
C2872 C612 1.072 . S
C2889 C348 1.075 . S
C2908 C645 1.062 . S
C2925 C678 1.075 . S
C2944 C381 1.092 . S
