# Generated by pormake.
# Topology kag, (6)-cn, num edge types: 1
# Building blocks:
#     Node 0, Type 0, BuildingBlock: INOVEN_clean_sbu_0, # of connection points: 6
#     Node 1, Type 0, BuildingBlock: INOVEN_clean_sbu_0, # of connection points: 6
#     Node 2, Type 0, BuildingBlock: INOVEN_clean_sbu_0, # of connection points: 6
#     Edge 3, Type (0, 0), BuildingBlock: XIVTED_clean_linker_0, # of connection points: 2
#     Edge 4, Type (0, 0), BuildingBlock: XIVTED_clean_linker_0, # of connection points: 2
#     Edge 5, Type (0, 0), BuildingBlock: XIVTED_clean_linker_0, # of connection points: 2
#     Edge 6, Type (0, 0), BuildingBlock: XIVTED_clean_linker_0, # of connection points: 2
#     Edge 7, Type (0, 0), BuildingBlock: XIVTED_clean_linker_0, # of connection points: 2
#     Edge 8, Type (0, 0), BuildingBlock: XIVTED_clean_linker_0, # of connection points: 2
#     Edge 9, Type (0, 0), BuildingBlock: XIVTED_clean_linker_0, # of connection points: 2
#     Edge 10, Type (0, 0), BuildingBlock: XIVTED_clean_linker_0, # of connection points: 2
#     Edge 11, Type (0, 0), BuildingBlock: XIVTED_clean_linker_0, # of connection points: 2
# Relax obj value: 0.073
# Max RMSD: 0.200
# Mean RMSD: 0.106
data_MOF--net-kag--node1-INOVEN_clean_sbu_0--edge1-XIVTED_clean_linker_0
_symmetry_space_group_name_H-M    P1
_symmetry_Int_Tables_number       1
_symmetry_cell_setting            triclinic
loop_
_symmetry_equiv_pos_as_xyz
'x, y, z'
_cell_length_a     31.492164
_cell_length_b     42.493393
_cell_length_c     14.655116
_cell_angle_alpha  96.699804
_cell_angle_beta   92.250843
_cell_angle_gamma 96.650646
loop_
_atom_site_label
_atom_site_type_symbol
_atom_site_fract_x
_atom_site_fract_y
_atom_site_fract_z
_atom_type_partial_charge
Gd0 Gd 1.05277 0.47443 0.01392 0.0
Gd1 Gd 0.06139 0.54417 0.99993 0.0
C2 C 0.96677 0.50979 0.99658 0.0
C3 C 1.03375 0.41756 0.05884 0.0
C4 C 0.99871 0.3908 0.04449 0.0
C5 C 0.99116 0.37145 0.95945 0.0
C6 C 0.97424 0.38312 0.11863 0.0
C7 C 0.93661 0.33645 0.02436 0.0
C8 C 0.94343 0.35633 0.10863 0.0
C9 C 0.96042 0.3446 0.94952 0.0
C10 C 0.05775 0.48917 0.83914 0.0
C11 C 0.14738 0.5088 0.0165 0.0
C12 C 0.08047 0.60128 0.95664 0.0
C13 C 0.1157 0.62794 0.9717 0.0
C14 C 0.11855 0.65021 0.05127 0.0
C15 C 0.14509 0.63265 0.9034 0.0
C16 C 0.17856 0.68185 0.99256 0.0
C17 C 0.17625 0.65925 0.91382 0.0
C18 C 0.1497 0.67679 0.06169 0.0
C19 C 0.05627 0.52917 0.17458 0.0
O20 O 0.9842 0.48563 0.02561 0.0
O21 O 0.99072 0.5338 0.96744 0.0
O22 O 0.05595 0.42365 0.98802 0.0
O23 O 1.02632 0.44341 0.11047 0.0
O24 O 0.07442 0.46561 0.86902 0.0
O25 O 1.03689 0.50253 0.901 0.0
O26 O 0.12991 0.53296 0.98752 0.0
O27 O 0.12348 0.48482 0.04589 0.0
O28 O 0.05845 0.59496 0.02751 0.0
O29 O 0.08749 0.57553 0.90398 0.0
O30 O 1.03932 0.55262 0.14471 0.0
O31 O 0.07737 0.5161 0.11273 0.0
H32 H 1.00964 0.37654 0.90099 0.0
H33 H 0.9795 0.39751 0.18505 0.0
H34 H 0.92523 0.35101 0.16731 0.0
H35 H 0.95641 0.32962 0.88399 0.0
H36 H 0.09611 0.64757 0.10478 0.0
H37 H 0.14354 0.61608 0.84097 0.0
H38 H 0.19829 0.66228 0.85973 0.0
H39 H 0.15017 0.69396 0.12254 0.0
Gd40 Gd 0.60429 0.01323 0.99187 0.0
Gd41 Gd 0.51018 1.00516 0.0161 0.0
C42 C 0.55289 0.07618 0.02622 0.0
C43 C 0.68019 0.03168 0.94267 0.0
C44 C 0.70616 0.06298 0.94419 0.0
C45 C 0.74769 0.06775 0.98543 0.0
C46 C 0.68935 0.08865 0.90913 0.0
C47 C 0.75476 0.12371 0.95995 0.0
C48 C 0.71343 0.11871 0.91691 0.0
C49 C 0.77177 0.0978 0.99331 0.0
C50 C 0.58277 1.00762 0.1665 0.0
C51 C 0.56156 0.94226 0.98273 0.0
C52 C 0.43416 0.98649 0.0641 0.0
C53 C 0.40859 0.95504 0.06315 0.0
C54 C 0.36792 0.94935 0.01773 0.0
C55 C 0.42501 0.93011 0.10297 0.0
C56 C 0.36096 0.89399 0.04895 0.0
C57 C 0.40138 0.8999 0.09607 0.0
C58 C 0.34435 0.91913 0.01052 0.0
C59 C 0.53201 0.01086 0.84158 0.0
O60 O 0.58638 0.06355 0.99261 0.0
O61 O 0.51985 0.05813 0.05284 0.0
O62 O 0.67282 0.02237 0.02309 0.0
O63 O 0.64653 0.02576 0.88527 0.0
O64 O 0.61434 0.995 0.12855 0.0
O65 O 0.56519 0.02366 0.11181 0.0
O66 O 0.5282 0.95495 0.0167 0.0
O67 O 0.59446 0.96024 0.95532 0.0
O68 O 0.44181 0.99549 0.98343 0.0
O69 O 0.4675 0.99298 0.12229 0.0
O70 O 0.50056 0.02364 0.87952 0.0
O71 O 0.54926 0.99466 0.89627 0.0
H72 H 0.76131 0.04829 0.01276 0.0
H73 H 0.65733 0.08569 0.87713 0.0
H74 H 0.69922 0.13822 0.89133 0.0
H75 H 0.80375 0.10073 0.02554 0.0
H76 H 0.3546 0.96822 0.98664 0.0
H77 H 0.45642 0.93373 0.13808 0.0
H78 H 0.41522 0.88096 0.12563 0.0
H79 H 0.31305 0.91545 0.97493 0.0
Gd80 Gd 0.56335 0.54494 0.00787 0.0
Gd81 Gd 0.55075 0.47356 1.00331 0.0
C82 C 0.46675 0.50729 1.00403 0.0
C83 C 0.5626 0.60446 0.98914 0.0
C84 C 0.56158 0.63883 0.98175 0.0
C85 C 0.54786 0.65875 0.05531 0.0
C86 C 0.57455 0.65218 0.90249 0.0
C87 C 0.55992 0.70477 0.97078 0.0
C88 C 0.57387 0.68487 0.89717 0.0
C89 C 0.54699 0.69127 0.04987 0.0
C90 C 0.57274 0.52409 0.17382 0.0
C91 C 0.64735 0.51122 0.00749 0.0
C92 C 0.55149 0.41401 0.02164 0.0
C93 C 0.5525 0.37963 0.02888 0.0
C94 C 0.56662 0.3598 0.95561 0.0
C95 C 0.53915 0.36618 0.10773 0.0
C96 C 0.55418 0.31368 0.03962 0.0
C97 C 0.53984 0.33349 0.11293 0.0
C98 C 0.5675 0.32728 0.96094 0.0
C99 C 0.54134 0.4946 0.83747 0.0
O100 O 0.49147 0.53229 0.98141 0.0
O101 O 0.48312 0.48193 0.02714 0.0
O102 O 0.55482 0.5927 0.06609 0.0
O103 O 0.57075 0.58362 0.92086 0.0
O104 O 0.59671 0.54796 0.14778 0.0
O105 O 0.54441 0.51279 0.11175 0.0
O106 O 0.62261 0.48624 0.03017 0.0
O107 O 0.63099 0.53656 0.98418 0.0
O108 O 0.5595 0.42586 0.94491 0.0
O109 O 0.54311 0.43478 0.08989 0.0
O110 O 0.5173 0.47075 0.86343 0.0
O111 O 0.56974 0.50568 0.89953 0.0
H112 H 0.53779 0.64926 0.11751 0.0
H113 H 0.58531 0.63741 0.84473 0.0
H114 H 0.58373 0.69447 0.83499 0.0
H115 H 0.53671 0.70594 0.10839 0.0
H116 H 0.57699 0.36937 0.89372 0.0
H117 H 0.52808 0.38088 0.16525 0.0
H118 H 0.52967 0.32381 0.17479 0.0
H119 H 0.5781 0.31267 0.90265 0.0
H120 H 1.01862 0.53464 0.76056 0.0
H121 H 0.09574 0.48384 0.25312 0.0
H122 H 0.09641 0.45873 0.69648 0.0
H123 H 1.01735 0.55937 0.31715 0.0
H124 H 0.09636 0.47416 0.41499 0.0
H125 H 1.01802 0.54427 0.5987 0.0
C126 C 1.03558 0.52002 0.71239 0.0
C127 C 0.05749 0.49579 0.74195 0.0
C128 C 0.07901 0.49286 0.39371 0.0
C129 C 0.05698 0.50662 0.55642 0.0
C130 C 0.07865 0.49836 0.30127 0.0
C131 C 0.05656 0.5225 0.27172 0.0
C132 C 0.05711 0.51163 0.45721 0.0
C133 C 1.03488 0.54056 0.33701 0.0
C134 C 1.03523 0.52549 0.61995 0.0
C135 C 0.07902 0.47761 0.67662 0.0
N136 N 1.03573 0.5348 0.42648 0.0
N137 N 0.07819 0.48336 0.58712 0.0
H138 H 0.52362 0.0384 0.26317 0.0
H139 H 0.59095 0.97982 0.74487 0.0
H140 H 0.62221 0.97743 0.29456 0.0
H141 H 0.49288 0.04122 0.71358 0.0
H142 H 0.60311 0.97873 0.5803 0.0
H143 H 0.51149 0.03946 0.42772 0.0
C144 C 0.54263 0.02517 0.30469 0.0
C145 C 0.57401 1.00784 0.2652 0.0
C146 C 0.57895 0.99247 0.60937 0.0
C147 C 0.56048 0.009 0.45375 0.0
C148 C 0.57207 0.99313 0.70337 0.0
C149 C 0.54082 0.0106 0.74288 0.0
C150 C 0.55438 0.00939 0.55434 0.0
C151 C 0.51725 0.0274 0.68589 0.0
C152 C 0.53577 0.02582 0.39868 0.0
C153 C 0.59773 0.99115 0.32222 0.0
N154 N 0.52445 0.02635 0.59467 0.0
N155 N 0.59053 0.99217 0.41345 0.0
H156 H 0.48889 0.46631 0.69117 0.0
H157 H 0.62506 0.55259 0.32014 0.0
H158 H 0.60002 0.53551 0.76296 0.0
H159 H 0.51426 0.48306 0.24843 0.0
H160 H 0.6169 0.54629 0.48251 0.0
H161 H 0.49709 0.47263 0.52884 0.0
C162 C 0.51487 0.48301 0.67268 0.0
C163 C 0.54392 0.50035 0.74037 0.0
C164 C 0.59442 0.53232 0.43135 0.0
C165 C 0.55373 0.50754 0.55477 0.0
C166 C 0.59917 0.53583 0.33864 0.0
C167 C 0.5702 0.51839 0.27096 0.0
C168 C 0.56041 0.51123 0.4566 0.0
C169 C 0.53727 0.49699 0.29857 0.0
C170 C 0.51963 0.48652 0.58 0.0
C171 C 0.57695 0.52167 0.7128 0.0
N172 N 0.53317 0.49409 0.38935 0.0
N173 N 0.58106 0.52459 0.62203 0.0
H174 H 0.19462 0.46301 0.06887 0.0
H175 H 0.42038 0.55461 0.95785 0.0
H176 H 0.20788 0.55441 0.9648 0.0
H177 H 0.40556 0.4615 0.05145 0.0
H178 H 0.34296 0.55543 0.9618 0.0
H179 H 0.272 0.46268 0.06562 0.0
C180 C 0.21376 0.48309 0.04553 0.0
C181 C 0.19455 0.50879 0.01706 0.0
C182 C 0.35664 0.53481 0.98137 0.0
C183 C 0.28354 0.5085 0.01295 0.0
C184 C 0.40092 0.5343 0.97909 0.0
C185 C 0.41968 0.50792 1.00429 0.0
C186 C 0.33078 0.50879 0.00923 0.0
C187 C 0.39266 0.48234 0.03129 0.0
C188 C 0.25804 0.48284 0.04356 0.0
C189 C 0.22118 0.53407 0.98742 0.0
N190 N 0.3497 0.48345 0.03311 0.0
N191 N 0.26425 0.53328 0.9861 0.0
H192 H 0.80363 0.15342 0.11108 0.0
H193 H 0.88089 0.31034 0.8786 0.0
H194 H 0.76263 0.16754 0.83587 0.0
H195 H 0.92401 0.29389 0.15035 0.0
H196 H 0.83492 0.2593 0.86351 0.0
H197 H 0.84562 0.20594 0.12848 0.0
C198 C 0.80364 0.1675 0.05405 0.0
C199 C 0.7798 0.15592 0.9716 0.0
C200 C 0.8543 0.26695 0.9266 0.0
C201 C 0.82754 0.21638 0.99145 0.0
C202 C 0.8807 0.29604 0.93512 0.0
C203 C 0.90649 0.30646 0.01583 0.0
C204 C 0.85372 0.24806 0.99919 0.0
C205 C 0.90436 0.2871 0.08732 0.0
C206 C 0.82743 0.19761 0.06425 0.0
C207 C 0.7803 0.17557 0.90084 0.0
N208 N 0.87862 0.25884 0.07715 0.0
N209 N 0.80393 0.20478 0.91225 0.0
H210 H 0.62375 0.90634 0.91735 0.0
H211 H 0.49756 0.74134 0.02779 0.0
H212 H 0.49916 0.8978 0.03116 0.0
H213 H 0.61966 0.74744 0.90316 0.0
H214 H 0.49764 0.79871 0.02721 0.0
H215 H 0.62291 0.84836 0.90907 0.0
C216 C 0.59619 0.89234 0.94048 0.0
C217 C 0.56152 0.9071 0.97534 0.0
C218 C 0.52441 0.78756 0.9997 0.0
C219 C 0.56039 0.84067 0.96606 0.0
C220 C 0.52448 0.75477 1.00043 0.0
C221 C 0.5588 0.7395 0.96604 0.0
C222 C 0.55899 0.80548 0.96458 0.0
C223 C 0.5924 0.75812 0.92982 0.0
C224 C 0.59573 0.85921 0.93566 0.0
C225 C 0.52668 0.88763 1.00411 0.0
N226 N 0.59177 0.79015 0.93049 0.0
N227 N 0.52708 0.85554 0.99903 0.0
H228 H 0.91958 0.55558 0.9439 0.0
H229 H 0.69369 0.46392 0.05391 0.0
H230 H 0.9062 0.46415 0.0478 0.0
H231 H 0.70858 0.55701 0.96019 0.0
H232 H 0.77112 0.46311 0.05025 0.0
H233 H 0.84218 0.55588 0.9467 0.0
C234 C 0.90041 0.53549 0.9671 0.0
C235 C 0.91959 0.50979 0.99567 0.0
C236 C 0.75745 0.48373 0.03058 0.0
C237 C 0.83058 0.51005 0.99927 0.0
C238 C 0.71317 0.48423 0.03271 0.0
C239 C 0.69442 0.5106 0.00739 0.0
C240 C 0.78333 0.50974 1.00278 0.0
C241 C 0.72146 0.53617 0.98044 0.0
C242 C 0.85612 0.53572 0.96881 0.0
C243 C 0.89292 0.48449 0.02513 0.0
N244 N 0.76443 0.53508 0.97878 0.0
N245 N 0.84985 0.48527 0.0262 0.0
H246 H 0.22666 0.71188 0.14538 0.0
H247 H 0.3168 0.86168 0.89516 0.0
H248 H 0.20019 0.71957 0.85813 0.0
H249 H 0.34952 0.85253 0.17877 0.0
H250 H 0.27518 0.809 0.87993 0.0
H251 H 0.27326 0.7626 0.15863 0.0
C252 C 0.2307 0.72419 0.08506 0.0
C253 C 0.20934 0.71145 1.00056 0.0
C254 C 0.29152 0.81844 0.9455 0.0
C255 C 0.26275 0.7695 0.01518 0.0
C256 C 0.31506 0.84863 0.9544 0.0
C257 C 0.33641 0.86165 0.03857 0.0
C258 C 0.28904 0.8011 0.02146 0.0
C259 C 0.33375 0.84335 0.11247 0.0
C260 C 0.25745 0.75309 0.09258 0.0
C261 C 0.2163 0.72825 0.92441 0.0
N262 N 0.31031 0.81408 0.10233 0.0
N263 N 0.24218 0.75645 0.93368 0.0
H264 H 0.61697 0.27729 0.98418 0.0
H265 H 0.49006 0.11187 0.08935 0.0
H266 H 0.49408 0.27084 0.10546 0.0
H267 H 0.61585 0.12089 0.98127 0.0
H268 H 0.4908 0.16985 0.09811 0.0
H269 H 0.61698 0.21992 0.98462 0.0
C270 C 0.58989 0.26378 0.01078 0.0
C271 C 0.55533 0.27895 0.04427 0.0
C272 C 0.51826 0.1591 0.07266 0.0
C273 C 0.55523 0.21297 0.04554 0.0
C274 C 0.51787 0.12597 0.06758 0.0
C275 C 0.5529 0.11134 0.0341 0.0
C276 C 0.5539 0.17778 0.0439 0.0
C277 C 0.58803 0.13095 0.00708 0.0
C278 C 0.59001 0.23099 0.01143 0.0
C279 C 0.52153 0.26022 0.07952 0.0
N280 N 0.58756 0.16304 0.01235 0.0
N281 N 0.52221 0.22821 0.07877 0.0
loop_
_geom_bond_atom_site_label_1
_geom_bond_atom_site_label_2
_geom_bond_distance
_geom_bond_site_symmetry_2
_ccdc_geom_bond_type
Gd0 C3 2.818 . S
Gd0 O20 2.377 . S
Gd0 O22 2.448 . S
Gd0 O23 2.506 1_556 S
Gd0 O24 2.435 . S
Gd0 O25 2.717 1_655 S
Gd0 O27 2.395 1_655 S
Gd0 O31 2.327 1_556 S
Gd1 C12 2.818 . S
Gd1 O21 2.395 1_455 S
Gd1 O25 2.327 1_554 S
Gd1 O26 2.377 . S
Gd1 O28 2.448 . S
Gd1 O29 2.506 1_554 S
Gd1 O30 2.435 . S
Gd1 O31 2.717 1_455 S
C2 O20 1.242 . S
C2 O21 1.239 1_556 S
C3 Gd0 2.818 . S
C3 C4 1.510 . S
C3 O22 1.249 . S
C3 O23 1.252 1_556 S
C4 C3 1.510 . S
C4 C5 1.404 . S
C4 C6 1.352 1_556 S
C5 C4 1.404 . S
C5 C9 1.389 . S
C5 H32 0.930 . S
C6 C4 1.352 1_554 S
C6 C8 1.374 . S
C6 H33 0.931 . S
C7 C8 1.355 1_556 S
C7 C9 1.368 . S
C8 C6 1.374 . S
C8 C7 1.355 1_554 S
C8 H34 0.931 . S
C9 C5 1.389 . S
C9 C7 1.368 . S
C9 H35 0.931 . S
C10 O24 1.256 1_455 S
C10 O25 1.257 . S
C11 O26 1.245 . S
C11 O27 1.238 1_554 S
C12 Gd1 2.818 . S
C12 C13 1.510 . S
C12 O28 1.249 . S
C12 O29 1.252 1_554 S
C13 C12 1.510 . S
C13 C14 1.404 . S
C13 C15 1.352 1_554 S
C14 C13 1.404 . S
C14 C18 1.389 . S
C14 H36 0.930 . S
C15 C13 1.352 1_556 S
C15 C17 1.374 . S
C15 H37 0.931 . S
C16 C17 1.350 1_554 S
C16 C18 1.375 . S
C17 C15 1.374 . S
C17 C16 1.350 1_556 S
C17 H38 0.931 . S
C18 C14 1.389 . S
C18 C16 1.375 . S
C18 H39 0.931 . S
C19 O30 1.256 . S
C19 O31 1.257 1_455 S
O20 Gd0 2.377 . S
O20 C2 1.242 . S
O21 Gd1 2.395 1_655 S
O21 C2 1.239 1_554 S
O22 Gd0 2.448 . S
O22 C3 1.249 . S
O23 Gd0 2.506 1_554 S
O23 C3 1.252 1_554 S
O24 Gd0 2.435 . S
O24 C10 1.256 1_655 S
O25 Gd0 2.717 1_455 S
O25 Gd1 2.327 1_556 S
O25 C10 1.257 . S
O26 Gd1 2.377 . S
O26 C11 1.245 . S
O27 Gd0 2.395 1_455 S
O27 C11 1.238 1_556 S
O28 Gd1 2.448 . S
O28 C12 1.249 . S
O29 Gd1 2.506 1_556 S
O29 C12 1.252 1_556 S
O30 Gd1 2.435 . S
O30 C19 1.256 . S
O31 Gd0 2.327 1_554 S
O31 Gd1 2.717 1_655 S
O31 C19 1.257 1_655 S
H32 C5 0.930 . S
H33 C6 0.931 . S
H34 C8 0.931 . S
H35 C9 0.931 . S
H36 C14 0.930 . S
H37 C15 0.931 . S
H38 C17 0.931 . S
H39 C18 0.931 . S
Gd40 C43 2.818 . S
Gd40 O60 2.377 . S
Gd40 O62 2.448 . S
Gd40 O63 2.506 1_554 S
Gd40 O64 2.435 . S
Gd40 O65 2.717 1_545 S
Gd40 O67 2.395 1_545 S
Gd40 O71 2.327 1_554 S
Gd41 C52 2.818 . S
Gd41 O61 2.395 1_565 S
Gd41 O65 2.327 1_556 S
Gd41 O66 2.377 . S
Gd41 O68 2.448 . S
Gd41 O69 2.506 1_556 S
Gd41 O70 2.435 . S
Gd41 O71 2.717 1_565 S
C42 O60 1.240 . S
C42 O61 1.240 1_554 S
C43 Gd40 2.818 . S
C43 C44 1.510 1_554 S
C43 O62 1.249 . S
C43 O63 1.252 1_554 S
C44 C43 1.510 1_556 S
C44 C45 1.404 1_556 S
C44 C46 1.352 . S
C45 C44 1.404 1_554 S
C45 C49 1.389 . S
C45 H72 0.930 . S
C46 C44 1.352 . S
C46 C48 1.374 . S
C46 H73 0.931 . S
C47 C48 1.359 . S
C47 C49 1.364 1_556 S
C48 C46 1.374 . S
C48 C47 1.359 . S
C48 H74 0.931 . S
C49 C45 1.389 . S
C49 C47 1.364 1_554 S
C49 H75 0.931 . S
C50 O64 1.256 . S
C50 O65 1.257 1_545 S
C51 O66 1.240 . S
C51 O67 1.240 1_556 S
C52 Gd41 2.818 . S
C52 C53 1.510 1_556 S
C52 O68 1.249 . S
C52 O69 1.252 1_556 S
C53 C52 1.510 1_554 S
C53 C54 1.404 1_554 S
C53 C55 1.352 . S
C54 C53 1.404 1_556 S
C54 C58 1.389 . S
C54 H76 0.930 . S
C55 C53 1.352 . S
C55 C57 1.374 . S
C55 H77 0.931 . S
C56 C57 1.359 . S
C56 C58 1.364 1_554 S
C57 C55 1.374 . S
C57 C56 1.359 . S
C57 H78 0.931 . S
C58 C54 1.389 . S
C58 C56 1.364 1_556 S
C58 H79 0.931 . S
C59 O70 1.256 . S
C59 O71 1.257 1_565 S
O60 Gd40 2.377 . S
O60 C42 1.240 . S
O61 Gd41 2.395 1_545 S
O61 C42 1.240 1_556 S
O62 Gd40 2.448 . S
O62 C43 1.249 . S
O63 Gd40 2.506 1_556 S
O63 C43 1.252 1_556 S
O64 Gd40 2.435 . S
O64 C50 1.256 . S
O65 Gd40 2.717 1_565 S
O65 Gd41 2.327 1_554 S
O65 C50 1.257 1_565 S
O66 Gd41 2.377 . S
O66 C51 1.240 . S
O67 Gd40 2.395 1_565 S
O67 C51 1.240 1_554 S
O68 Gd41 2.448 . S
O68 C52 1.249 . S
O69 Gd41 2.506 1_554 S
O69 C52 1.252 1_554 S
O70 Gd41 2.435 . S
O70 C59 1.256 . S
O71 Gd40 2.327 1_556 S
O71 Gd41 2.717 1_545 S
O71 C59 1.257 1_545 S
H72 C45 0.930 . S
H73 C46 0.931 . S
H74 C48 0.931 . S
H75 C49 0.931 . S
H76 C54 0.930 . S
H77 C55 0.931 . S
H78 C57 0.931 . S
H79 C58 0.931 . S
Gd80 C83 2.818 . S
Gd80 O100 2.377 . S
Gd80 O102 2.448 . S
Gd80 O103 2.506 1_554 S
Gd80 O104 2.435 . S
Gd80 O105 2.717 . S
Gd80 O107 2.395 . S
Gd80 O111 2.327 1_554 S
Gd81 C92 2.818 . S
Gd81 O101 2.395 . S
Gd81 O105 2.327 1_556 S
Gd81 O106 2.377 . S
Gd81 O108 2.448 . S
Gd81 O109 2.506 1_556 S
Gd81 O110 2.435 . S
Gd81 O111 2.717 . S
C82 O100 1.239 1_556 S
C82 O101 1.241 . S
C83 Gd80 2.818 . S
C83 C84 1.510 . S
C83 O102 1.249 . S
C83 O103 1.252 1_554 S
C84 C83 1.510 . S
C84 C85 1.404 . S
C84 C86 1.352 1_554 S
C85 C84 1.404 . S
C85 C89 1.389 . S
C85 H112 0.930 . S
C86 C84 1.352 1_556 S
C86 C88 1.374 . S
C86 H113 0.931 . S
C87 C88 1.359 . S
C87 C89 1.364 1_556 S
C88 C86 1.374 . S
C88 C87 1.359 . S
C88 H114 0.931 . S
C89 C85 1.389 . S
C89 C87 1.364 1_554 S
C89 H115 0.931 . S
C90 O104 1.256 . S
C90 O105 1.257 . S
C91 O106 1.240 1_554 S
C91 O107 1.240 . S
C92 Gd81 2.818 . S
C92 C93 1.510 . S
C92 O108 1.249 . S
C92 O109 1.252 1_556 S
C93 C92 1.510 . S
C93 C94 1.404 . S
C93 C95 1.352 1_556 S
C94 C93 1.404 . S
C94 C98 1.389 . S
C94 H116 0.930 . S
C95 C93 1.352 1_554 S
C95 C97 1.374 . S
C95 H117 0.931 . S
C96 C97 1.359 . S
C96 C98 1.364 1_554 S
C97 C95 1.374 . S
C97 C96 1.359 . S
C97 H118 0.931 . S
C98 C94 1.389 . S
C98 C96 1.364 1_556 S
C98 H119 0.931 . S
C99 O110 1.256 . S
C99 O111 1.257 . S
O100 Gd80 2.377 . S
O100 C82 1.239 1_554 S
O101 Gd81 2.395 . S
O101 C82 1.241 . S
O102 Gd80 2.448 . S
O102 C83 1.249 . S
O103 Gd80 2.506 1_556 S
O103 C83 1.252 1_556 S
O104 Gd80 2.435 . S
O104 C90 1.256 . S
O105 Gd80 2.717 . S
O105 Gd81 2.327 1_554 S
O105 C90 1.257 . S
O106 Gd81 2.377 . S
O106 C91 1.240 1_556 S
O107 Gd80 2.395 . S
O107 C91 1.240 . S
O108 Gd81 2.448 . S
O108 C92 1.249 . S
O109 Gd81 2.506 1_554 S
O109 C92 1.252 1_554 S
O110 Gd81 2.435 . S
O110 C99 1.256 . S
O111 Gd80 2.327 1_556 S
O111 Gd81 2.717 . S
O111 C99 1.257 . S
H112 C85 0.930 . S
H113 C86 0.931 . S
H114 C88 0.931 . S
H115 C89 0.931 . S
H116 C94 0.930 . S
H117 C95 0.931 . S
H118 C97 0.931 . S
H119 C98 0.931 . S
H120 C126 0.930 . S
H121 C130 0.930 . S
H122 C135 0.929 . S
H123 C133 0.929 . S
H124 C128 0.929 . S
H125 C134 0.929 . S
C126 H120 0.930 . S
C126 C127 1.367 . S
C126 C134 1.378 . S
C127 C126 1.367 . S
C127 C135 1.433 1_455 S
C128 H124 0.929 . S
C128 C130 1.378 . S
C128 C132 1.345 1_655 S
C129 C132 1.463 . S
C129 C134 1.350 . S
C129 N137 1.427 1_455 S
C130 H121 0.930 . S
C130 C128 1.378 . S
C130 C131 1.376 . S
C131 C130 1.376 . S
C131 C133 1.425 1_655 S
C132 C128 1.345 1_455 S
C132 C129 1.463 . S
C132 N136 1.432 . S
C133 H123 0.929 . S
C133 C131 1.425 1_455 S
C133 N136 1.384 . S
C134 H125 0.929 . S
C134 C126 1.378 . S
C134 C129 1.350 . S
C135 H122 0.929 . S
C135 C127 1.433 1_655 S
C135 N137 1.384 . S
N136 C132 1.432 . S
N136 C133 1.384 . S
N137 C129 1.427 1_655 S
N137 C135 1.384 . S
H138 C144 0.930 . S
H139 C148 0.930 . S
H140 C153 0.929 . S
H141 C151 0.929 . S
H142 C146 0.929 . S
H143 C152 0.929 . S
C144 H138 0.930 . S
C144 C145 1.367 . S
C144 C152 1.378 . S
C145 C144 1.367 . S
C145 C153 1.433 1_545 S
C146 H142 0.929 . S
C146 C148 1.378 . S
C146 C150 1.365 . S
C147 C150 1.459 1_545 S
C147 C152 1.350 . S
C147 N155 1.427 1_545 S
C148 H139 0.930 . S
C148 C146 1.378 . S
C148 C149 1.385 . S
C149 C148 1.385 . S
C149 C151 1.411 1_565 S
C150 C146 1.365 . S
C150 C147 1.459 1_565 S
C150 N154 1.414 1_565 S
C151 H141 0.929 . S
C151 C149 1.411 1_545 S
C151 N154 1.384 . S
C152 H143 0.929 . S
C152 C144 1.378 . S
C152 C147 1.350 . S
C153 H140 0.929 . S
C153 C145 1.433 1_565 S
C153 N155 1.384 . S
N154 C150 1.414 1_545 S
N154 C151 1.384 . S
N155 C147 1.427 1_565 S
N155 C153 1.384 . S
H156 C162 0.930 . S
H157 C166 0.930 . S
H158 C171 0.929 . S
H159 C169 0.929 . S
H160 C164 0.929 . S
H161 C170 0.929 . S
C162 H156 0.930 . S
C162 C163 1.367 . S
C162 C170 1.378 . S
C163 C162 1.367 . S
C163 C171 1.433 . S
C164 H160 0.929 . S
C164 C166 1.378 . S
C164 C168 1.350 . S
C165 C168 1.463 . S
C165 C170 1.350 . S
C165 N173 1.427 . S
C166 H157 0.930 . S
C166 C164 1.378 . S
C166 C167 1.367 . S
C167 C166 1.367 . S
C167 C169 1.433 . S
C168 C164 1.350 . S
C168 C165 1.463 . S
C168 N172 1.427 . S
C169 H159 0.929 . S
C169 C167 1.433 . S
C169 N172 1.384 . S
C170 H161 0.929 . S
C170 C162 1.378 . S
C170 C165 1.350 . S
C171 H158 0.929 . S
C171 C163 1.433 . S
C171 N173 1.384 . S
N172 C168 1.427 . S
N172 C169 1.384 . S
N173 C165 1.427 . S
N173 C171 1.384 . S
H174 C180 0.930 . S
H175 C184 0.930 . S
H176 C189 0.929 . S
H177 C187 0.929 . S
H178 C182 0.929 . S
H179 C188 0.929 . S
C180 H174 0.930 . S
C180 C181 1.367 1_554 S
C180 C188 1.378 . S
C181 C180 1.367 1_556 S
C181 C189 1.433 . S
C182 H178 0.929 . S
C182 C184 1.378 . S
C182 C186 1.350 . S
C183 C186 1.463 . S
C183 C188 1.350 1_556 S
C183 N191 1.427 . S
C184 H175 0.930 . S
C184 C182 1.378 . S
C184 C185 1.367 . S
C185 C184 1.367 . S
C185 C187 1.433 1_556 S
C186 C182 1.350 . S
C186 C183 1.463 . S
C186 N190 1.427 1_556 S
C187 H177 0.929 . S
C187 C185 1.433 1_554 S
C187 N190 1.384 . S
C188 H179 0.929 . S
C188 C180 1.378 . S
C188 C183 1.350 1_554 S
C189 H176 0.929 . S
C189 C181 1.433 . S
C189 N191 1.384 . S
N190 C186 1.427 1_554 S
N190 C187 1.384 . S
N191 C183 1.427 . S
N191 C189 1.384 . S
H192 C198 0.930 . S
H193 C202 0.930 . S
H194 C207 0.929 . S
H195 C205 0.929 . S
H196 C200 0.929 . S
H197 C206 0.929 . S
C198 H192 0.930 . S
C198 C199 1.367 1_554 S
C198 C206 1.378 . S
C199 C198 1.367 1_556 S
C199 C207 1.433 . S
C200 H196 0.929 . S
C200 C202 1.378 . S
C200 C204 1.350 . S
C201 C204 1.463 . S
C201 C206 1.350 1_556 S
C201 N209 1.427 . S
C202 H193 0.930 . S
C202 C200 1.378 . S
C202 C203 1.367 . S
C203 C202 1.367 . S
C203 C205 1.433 1_556 S
C204 C200 1.350 . S
C204 C201 1.463 . S
C204 N208 1.427 1_556 S
C205 H195 0.929 . S
C205 C203 1.433 1_554 S
C205 N208 1.384 . S
C206 H197 0.929 . S
C206 C198 1.378 . S
C206 C201 1.350 1_554 S
C207 H194 0.929 . S
C207 C199 1.433 . S
C207 N209 1.384 . S
N208 C204 1.427 1_554 S
N208 C205 1.384 . S
N209 C201 1.427 . S
N209 C207 1.384 . S
H210 C216 0.930 . S
H211 C220 0.930 . S
H212 C225 0.929 . S
H213 C223 0.929 . S
H214 C218 0.929 . S
H215 C224 0.929 . S
C216 H210 0.930 . S
C216 C217 1.367 . S
C216 C224 1.378 . S
C217 C216 1.367 . S
C217 C225 1.433 1_556 S
C218 H214 0.929 . S
C218 C220 1.378 . S
C218 C222 1.347 1_554 S
C219 C222 1.463 . S
C219 C224 1.350 . S
C219 N227 1.427 1_556 S
C220 H211 0.930 . S
C220 C218 1.378 . S
C220 C221 1.367 . S
C221 C220 1.367 . S
C221 C223 1.433 1_554 S
C222 C218 1.347 1_556 S
C222 C219 1.463 . S
C222 N226 1.430 . S
C223 H213 0.929 . S
C223 C221 1.433 1_556 S
C223 N226 1.384 . S
C224 H215 0.929 . S
C224 C216 1.378 . S
C224 C219 1.350 . S
C225 H212 0.929 . S
C225 C217 1.433 1_554 S
C225 N227 1.384 . S
N226 C222 1.430 . S
N226 C223 1.384 . S
N227 C219 1.427 1_554 S
N227 C225 1.384 . S
H228 C234 0.930 . S
H229 C238 0.930 . S
H230 C243 0.929 . S
H231 C241 0.929 . S
H232 C236 0.929 . S
H233 C242 0.929 . S
C234 H228 0.930 . S
C234 C235 1.367 . S
C234 C242 1.378 . S
C235 C234 1.367 . S
C235 C243 1.433 1_554 S
C236 H232 0.929 . S
C236 C238 1.378 . S
C236 C240 1.350 1_556 S
C237 C240 1.463 . S
C237 C242 1.350 . S
C237 N245 1.427 1_554 S
C238 H229 0.930 . S
C238 C236 1.378 . S
C238 C239 1.367 1_556 S
C239 C238 1.367 1_554 S
C239 C241 1.433 . S
C240 C236 1.350 1_554 S
C240 C237 1.463 . S
C240 N244 1.427 . S
C241 H231 0.929 . S
C241 C239 1.433 . S
C241 N244 1.384 . S
C242 H233 0.929 . S
C242 C234 1.378 . S
C242 C237 1.350 . S
C243 H230 0.929 . S
C243 C235 1.433 1_556 S
C243 N245 1.384 . S
N244 C240 1.427 . S
N244 C241 1.384 . S
N245 C237 1.427 1_556 S
N245 C243 1.384 . S
H246 C252 0.930 . S
H247 C256 0.930 . S
H248 C261 0.929 . S
H249 C259 0.929 . S
H250 C254 0.929 . S
H251 C260 0.929 . S
C252 H246 0.930 . S
C252 C253 1.367 . S
C252 C260 1.378 . S
C253 C252 1.367 . S
C253 C261 1.433 1_554 S
C254 H250 0.929 . S
C254 C256 1.378 . S
C254 C258 1.350 1_556 S
C255 C258 1.463 . S
C255 C260 1.350 . S
C255 N263 1.427 1_554 S
C256 H247 0.930 . S
C256 C254 1.378 . S
C256 C257 1.367 1_556 S
C257 C256 1.367 1_554 S
C257 C259 1.433 . S
C258 C254 1.350 1_554 S
C258 C255 1.463 . S
C258 N262 1.427 . S
C259 H249 0.929 . S
C259 C257 1.433 . S
C259 N262 1.384 . S
C260 H251 0.929 . S
C260 C252 1.378 . S
C260 C255 1.350 . S
C261 H248 0.929 . S
C261 C253 1.433 1_556 S
C261 N263 1.384 . S
N262 C258 1.427 . S
N262 C259 1.384 . S
N263 C255 1.427 1_556 S
N263 C261 1.384 . S
H264 C270 0.930 . S
H265 C274 0.930 . S
H266 C279 0.929 . S
H267 C277 0.929 . S
H268 C272 0.929 . S
H269 C278 0.929 . S
C270 H264 0.930 . S
C270 C271 1.363 1_556 S
C270 C278 1.378 . S
C271 C270 1.363 1_554 S
C271 C279 1.438 . S
C272 H268 0.929 . S
C272 C274 1.378 . S
C272 C276 1.350 . S
C273 C276 1.463 . S
C273 C278 1.350 1_554 S
C273 N281 1.427 . S
C274 H265 0.930 . S
C274 C272 1.378 . S
C274 C275 1.367 . S
C275 C274 1.367 . S
C275 C277 1.433 1_554 S
C276 C272 1.350 . S
C276 C273 1.463 . S
C276 N280 1.427 1_554 S
C277 H267 0.929 . S
C277 C275 1.433 1_556 S
C277 N280 1.384 . S
C278 H269 0.929 . S
C278 C270 1.378 . S
C278 C273 1.350 1_556 S
C279 H266 0.929 . S
C279 C271 1.438 . S
C279 N281 1.384 . S
N280 C276 1.427 1_556 S
N280 C277 1.384 . S
N281 C273 1.427 . S
N281 C279 1.384 . S
C127 C10 1.467 . S
C131 C19 1.466 1_655 S
C145 C50 1.460 . S
C149 C59 1.464 . S
C163 C99 1.458 . S
C167 C90 1.458 . S
C181 C11 2.618 1_556 S
C185 C82 2.580 . S
C199 C47 0.899 . S
C203 C7 0.898 . S
C217 C51 2.044 . S
C221 C87 1.991 1_554 S
C235 C2 2.621 1_554 S
C239 C91 2.577 . S
C253 C16 0.894 . S
C257 C56 0.896 . S
C271 C96 1.991 . S
C275 C42 2.045 . S
