# Generated by pormake.
# Topology zfn, (5)-cn, num edge types: 1
# Building blocks:
#     Node 0, Type 0, BuildingBlock: XOMCOT_clean_sbu_0, # of connection points: 5
#     Node 1, Type 0, BuildingBlock: XOMCOT_clean_sbu_0, # of connection points: 5
#     Node 2, Type 0, BuildingBlock: XOMCOT_clean_sbu_0, # of connection points: 5
#     Node 3, Type 0, BuildingBlock: XOMCOT_clean_sbu_0, # of connection points: 5
#     Node 4, Type 0, BuildingBlock: XOMCOT_clean_sbu_0, # of connection points: 5
#     Node 5, Type 0, BuildingBlock: XOMCOT_clean_sbu_0, # of connection points: 5
#     Node 6, Type 0, BuildingBlock: XOMCOT_clean_sbu_0, # of connection points: 5
#     Node 7, Type 0, BuildingBlock: XOMCOT_clean_sbu_0, # of connection points: 5
#     Node 8, Type 0, BuildingBlock: XOMCOT_clean_sbu_0, # of connection points: 5
#     Node 9, Type 0, BuildingBlock: XOMCOT_clean_sbu_0, # of connection points: 5
#     Node 10, Type 0, BuildingBlock: XOMCOT_clean_sbu_0, # of connection points: 5
#     Node 11, Type 0, BuildingBlock: XOMCOT_clean_sbu_0, # of connection points: 5
#     Node 12, Type 0, BuildingBlock: XOMCOT_clean_sbu_0, # of connection points: 5
#     Node 13, Type 0, BuildingBlock: XOMCOT_clean_sbu_0, # of connection points: 5
#     Node 14, Type 0, BuildingBlock: XOMCOT_clean_sbu_0, # of connection points: 5
#     Node 15, Type 0, BuildingBlock: XOMCOT_clean_sbu_0, # of connection points: 5
#     Edge 16, Type (0, 0), BuildingBlock: CIFDUS_clean_linker_0, # of connection points: 2
#     Edge 17, Type (0, 0), BuildingBlock: CIFDUS_clean_linker_0, # of connection points: 2
#     Edge 18, Type (0, 0), BuildingBlock: CIFDUS_clean_linker_0, # of connection points: 2
#     Edge 19, Type (0, 0), BuildingBlock: CIFDUS_clean_linker_0, # of connection points: 2
#     Edge 20, Type (0, 0), BuildingBlock: CIFDUS_clean_linker_0, # of connection points: 2
#     Edge 21, Type (0, 0), BuildingBlock: CIFDUS_clean_linker_0, # of connection points: 2
#     Edge 22, Type (0, 0), BuildingBlock: CIFDUS_clean_linker_0, # of connection points: 2
#     Edge 23, Type (0, 0), BuildingBlock: CIFDUS_clean_linker_0, # of connection points: 2
#     Edge 24, Type (0, 0), BuildingBlock: CIFDUS_clean_linker_0, # of connection points: 2
#     Edge 25, Type (0, 0), BuildingBlock: CIFDUS_clean_linker_0, # of connection points: 2
#     Edge 26, Type (0, 0), BuildingBlock: CIFDUS_clean_linker_0, # of connection points: 2
#     Edge 27, Type (0, 0), BuildingBlock: CIFDUS_clean_linker_0, # of connection points: 2
#     Edge 28, Type (0, 0), BuildingBlock: CIFDUS_clean_linker_0, # of connection points: 2
#     Edge 29, Type (0, 0), BuildingBlock: CIFDUS_clean_linker_0, # of connection points: 2
#     Edge 30, Type (0, 0), BuildingBlock: CIFDUS_clean_linker_0, # of connection points: 2
#     Edge 31, Type (0, 0), BuildingBlock: CIFDUS_clean_linker_0, # of connection points: 2
#     Edge 32, Type (0, 0), BuildingBlock: CIFDUS_clean_linker_0, # of connection points: 2
#     Edge 33, Type (0, 0), BuildingBlock: CIFDUS_clean_linker_0, # of connection points: 2
#     Edge 34, Type (0, 0), BuildingBlock: CIFDUS_clean_linker_0, # of connection points: 2
#     Edge 35, Type (0, 0), BuildingBlock: CIFDUS_clean_linker_0, # of connection points: 2
#     Edge 36, Type (0, 0), BuildingBlock: CIFDUS_clean_linker_0, # of connection points: 2
#     Edge 37, Type (0, 0), BuildingBlock: CIFDUS_clean_linker_0, # of connection points: 2
#     Edge 38, Type (0, 0), BuildingBlock: CIFDUS_clean_linker_0, # of connection points: 2
#     Edge 39, Type (0, 0), BuildingBlock: CIFDUS_clean_linker_0, # of connection points: 2
#     Edge 40, Type (0, 0), BuildingBlock: CIFDUS_clean_linker_0, # of connection points: 2
#     Edge 41, Type (0, 0), BuildingBlock: CIFDUS_clean_linker_0, # of connection points: 2
#     Edge 42, Type (0, 0), BuildingBlock: CIFDUS_clean_linker_0, # of connection points: 2
#     Edge 43, Type (0, 0), BuildingBlock: CIFDUS_clean_linker_0, # of connection points: 2
#     Edge 44, Type (0, 0), BuildingBlock: CIFDUS_clean_linker_0, # of connection points: 2
#     Edge 45, Type (0, 0), BuildingBlock: CIFDUS_clean_linker_0, # of connection points: 2
#     Edge 46, Type (0, 0), BuildingBlock: CIFDUS_clean_linker_0, # of connection points: 2
#     Edge 47, Type (0, 0), BuildingBlock: CIFDUS_clean_linker_0, # of connection points: 2
#     Edge 48, Type (0, 0), BuildingBlock: CIFDUS_clean_linker_0, # of connection points: 2
#     Edge 49, Type (0, 0), BuildingBlock: CIFDUS_clean_linker_0, # of connection points: 2
#     Edge 50, Type (0, 0), BuildingBlock: CIFDUS_clean_linker_0, # of connection points: 2
#     Edge 51, Type (0, 0), BuildingBlock: CIFDUS_clean_linker_0, # of connection points: 2
#     Edge 52, Type (0, 0), BuildingBlock: CIFDUS_clean_linker_0, # of connection points: 2
#     Edge 53, Type (0, 0), BuildingBlock: CIFDUS_clean_linker_0, # of connection points: 2
#     Edge 54, Type (0, 0), BuildingBlock: CIFDUS_clean_linker_0, # of connection points: 2
#     Edge 55, Type (0, 0), BuildingBlock: CIFDUS_clean_linker_0, # of connection points: 2
# Relax obj value: 0.132
# Max RMSD: 0.136
# Mean RMSD: 0.136
data_MOF--net-zfn--node1-XOMCOT_clean_sbu_0--edge1-CIFDUS_clean_linker_0
_symmetry_space_group_name_H-M    P1
_symmetry_Int_Tables_number       1
_symmetry_cell_setting            triclinic
loop_
_symmetry_equiv_pos_as_xyz
'x, y, z'
_cell_length_a     66.404355
_cell_length_b     66.548103
_cell_length_c     15.785834
_cell_angle_alpha  90.104292
_cell_angle_beta   90.015513
_cell_angle_gamma 90.001149
loop_
_atom_site_label
_atom_site_type_symbol
_atom_site_fract_x
_atom_site_fract_y
_atom_site_fract_z
_atom_type_partial_charge
Co0 Co 0.03247 0.34294 0.20874 0.0
C1 C 0.03099 0.34635 0.39351 0.0
C2 C 0.0603 0.3541 0.34635 0.0
C3 C 0.06073 0.35479 0.43371 0.0
N4 N 0.04163 0.34882 0.32174 0.0
N5 N 0.04228 0.34987 0.46313 0.0
H6 H 0.01552 0.34127 0.39451 0.0
H7 H 0.07282 0.35672 0.304 0.0
C8 C 0.0464 0.37744 0.10512 0.0
O9 O 0.02795 0.37811 0.07494 0.0
N10 N 0.02366 0.33633 0.09406 0.0
C11 C 0.00589 0.32868 0.06768 0.0
C12 C 0.00638 0.32637 0.98108 0.0
C13 C 0.0351 0.33721 0.02331 0.0
N14 N 0.02471 0.33195 0.95323 0.0
C15 C 0.99114 0.35562 0.226 0.0
C16 C 0.99899 0.39597 0.25045 0.0
C17 C 0.97898 0.38977 0.23923 0.0
C18 C 0.97514 0.36916 0.23059 0.0
C19 C 0.01454 0.38183 0.24565 0.0
N20 N 0.01059 0.3622 0.22568 0.0
H21 H 0.98781 0.33981 0.22378 0.0
H22 H 0.02983 0.38683 0.25567 0.0
H23 H 0.99349 0.32436 0.1075 0.0
H24 H 0.05061 0.34215 0.02272 0.0
O25 O 0.0193 0.31915 0.25007 0.0
O26 O 0.05081 0.32031 0.20385 0.0
O27 O 0.05096 0.36447 0.16179 0.0
C28 C 0.03606 0.30972 0.2349 0.0
H29 H 0.07369 0.35844 0.47239 0.0
H30 H 0.99423 0.32082 0.94175 0.0
H31 H 0.00271 0.41165 0.26018 0.0
H32 H 0.95986 0.3635 0.22732 0.0
Co33 Co 0.15324 0.02913 0.69995 0.0
C34 C 0.15389 0.02858 0.88738 0.0
C35 C 0.14569 0.05739 0.83825 0.0
C36 C 0.14749 0.05902 0.92461 0.0
N37 N 0.14901 0.03812 0.81507 0.0
N38 N 0.15275 0.04089 0.95499 0.0
H39 H 0.15942 0.0134 0.89063 0.0
H40 H 0.14323 0.06972 0.79493 0.0
C41 C 0.11443 0.05103 0.69417 0.0
O42 O 0.10964 0.04043 0.76143 0.0
N43 N 0.15823 0.0209 0.58583 0.0
C44 C 0.16377 0.00251 0.55884 0.0
C45 C 0.1645 0.00277 0.47175 0.0
C46 C 0.15585 0.03212 0.5161 0.0
N47 N 0.15941 0.02138 0.44535 0.0
C48 C 0.13504 0.99231 0.76543 0.0
C49 C 0.10313 0.99226 0.65303 0.0
C50 C 0.10363 0.97767 0.71665 0.0
C51 C 0.12021 0.97736 0.77175 0.0
C52 C 0.11824 0.00671 0.6487 0.0
N53 N 0.13324 0.00755 0.70806 0.0
H54 H 0.14809 0.99125 0.80537 0.0
H55 H 0.11772 0.01742 0.59743 0.0
H56 H 0.16648 0.98974 0.59953 0.0
H57 H 0.1514 0.04776 0.51724 0.0
O58 O 0.1771 0.01476 0.7354 0.0
O59 O 0.17641 0.0467 0.69557 0.0
O60 O 0.13173 0.04865 0.65967 0.0
C61 C 0.18686 0.03148 0.72293 0.0
H62 H 0.14618 0.07267 0.96156 0.0
H63 H 0.16776 0.99007 0.43108 0.0
H64 H 0.09116 0.99247 0.60637 0.0
H65 H 0.12159 0.96586 0.81985 0.0
Co66 Co 0.47422 0.1534 0.16905 0.0
C67 C 0.47113 0.15223 0.35942 0.0
C68 C 0.44484 0.14038 0.29801 0.0
C69 C 0.44186 0.13995 0.38431 0.0
N70 N 0.46319 0.148 0.28188 0.0
N71 N 0.45829 0.14753 0.4237 0.0
H72 H 0.48574 0.1591 0.36829 0.0
H73 H 0.43412 0.13571 0.25032 0.0
C74 C 0.46218 0.11753 0.06849 0.0
O75 O 0.4813 0.11628 0.04744 0.0
N76 N 0.48484 0.15966 0.0544 0.0
C77 C 0.50132 0.17079 0.03668 0.0
C78 C 0.50363 0.17234 0.95032 0.0
C79 C 0.47665 0.15589 0.97652 0.0
N80 N 0.48826 0.16277 0.91183 0.0
C81 C 0.51531 0.13978 0.1876 0.0
C82 C 0.50604 0.10133 0.2405 0.0
C83 C 0.52633 0.10656 0.22963 0.0
C84 C 0.53086 0.12623 0.2043 0.0
C85 C 0.49096 0.11538 0.2231 0.0
N86 N 0.49563 0.13404 0.19257 0.0
H87 H 0.51925 0.15499 0.17246 0.0
H88 H 0.47544 0.11114 0.23318 0.0
H89 H 0.51079 0.17815 0.0828 0.0
H90 H 0.46244 0.14833 0.96676 0.0
O91 O 0.48716 0.17697 0.21378 0.0
O92 O 0.45635 0.17637 0.15956 0.0
O93 O 0.45632 0.13166 0.11799 0.0
C94 C 0.47077 0.18667 0.19529 0.0
H95 H 0.42844 0.13441 0.41529 0.0
H96 H 0.51555 0.18043 0.91838 0.0
H97 H 0.50181 0.08655 0.26295 0.0
H98 H 0.54631 0.13112 0.19655 0.0
Co99 Co 0.33938 0.47279 0.65063 0.0
C100 C 0.34025 0.46967 0.84332 0.0
C101 C 0.34212 0.44122 0.78052 0.0
C102 C 0.34134 0.43796 0.8665 0.0
N103 N 0.342 0.46114 0.76499 0.0
N104 N 0.34009 0.45583 0.90664 0.0
H105 H 0.33776 0.48544 0.85442 0.0
H106 H 0.34214 0.42968 0.73221 0.0
C107 C 0.37389 0.44406 0.62953 0.0
O108 O 0.38102 0.45 0.70308 0.0
N109 N 0.33623 0.48401 0.53696 0.0
C110 C 0.33344 0.50361 0.51964 0.0
C111 C 0.33369 0.50627 0.43316 0.0
C112 C 0.33796 0.47494 0.46002 0.0
N113 N 0.33664 0.4883 0.39515 0.0
C114 C 0.36037 0.50591 0.72756 0.0
C115 C 0.39355 0.505 0.62219 0.0
C116 C 0.39245 0.51985 0.6851 0.0
C117 C 0.37557 0.52019 0.7382 0.0
C118 C 0.37806 0.49092 0.61418 0.0
N119 N 0.36203 0.49098 0.66856 0.0
H120 H 0.34679 0.50763 0.76388 0.0
H121 H 0.37868 0.48049 0.56185 0.0
H122 H 0.33185 0.51529 0.5669 0.0
H123 H 0.34074 0.45904 0.4517 0.0
O124 O 0.318 0.48985 0.69113 0.0
O125 O 0.31381 0.45908 0.63957 0.0
O126 O 0.35744 0.45137 0.60097 0.0
C127 C 0.30583 0.47521 0.67231 0.0
H128 H 0.34136 0.42339 0.89678 0.0
H129 H 0.33193 0.52048 0.4008 0.0
H130 H 0.40611 0.50444 0.57852 0.0
H131 H 0.37367 0.53196 0.78504 0.0
Co132 Co 0.02391 0.15859 0.34302 0.0
C133 C 0.02351 0.1579 0.15843 0.0
C134 C 0.0529 0.15078 0.20658 0.0
C135 C 0.05395 0.15193 0.11952 0.0
N136 N 0.0338 0.15452 0.23028 0.0
N137 N 0.03547 0.15658 0.08968 0.0
H138 H 0.0077 0.16182 0.15703 0.0
H139 H 0.06533 0.14833 0.24959 0.0
C140 C 0.04044 0.12465 0.4434 0.0
O141 O 0.02215 0.12256 0.47398 0.0
N142 N 0.01445 0.16336 0.45769 0.0
C143 C 0.99583 0.16766 0.48686 0.0
C144 C 0.99658 0.16926 0.57371 0.0
C145 C 0.02636 0.16365 0.52683 0.0
N146 N 0.01578 0.16644 0.59864 0.0
C147 C 0.98381 0.14368 0.31785 0.0
C148 C 0.99374 0.10374 0.29555 0.0
C149 C 0.97339 0.10906 0.3037 0.0
C150 C 0.96852 0.12946 0.3109 0.0
C151 C 0.00859 0.1186 0.30261 0.0
N152 N 0.00352 0.13801 0.32182 0.0
H153 H 0.97967 0.15931 0.32013 0.0
H154 H 0.02417 0.11434 0.29478 0.0
H155 H 0.98248 0.16967 0.44924 0.0
H156 H 0.04249 0.16136 0.52468 0.0
O157 O 0.00886 0.18157 0.30551 0.0
O158 O 0.04031 0.18272 0.35228 0.0
O159 O 0.04397 0.1381 0.38736 0.0
C160 C 0.02464 0.19228 0.32309 0.0
H161 H 0.06746 0.15047 0.08165 0.0
H162 H 0.98384 0.17161 0.61532 0.0
H163 H 0.99821 0.08823 0.28661 0.0
H164 H 0.95298 0.1344 0.31183 0.0
Co165 Co 0.33719 0.02277 0.867 0.0
C166 C 0.34029 0.02155 0.67922 0.0
C167 C 0.34505 0.05114 0.72826 0.0
C168 C 0.34557 0.05206 0.64119 0.0
N169 N 0.3424 0.03185 0.75229 0.0
N170 N 0.34264 0.03337 0.61076 0.0
H171 H 0.33543 0.00616 0.675 0.0
H172 H 0.34588 0.06383 0.77098 0.0
C173 C 0.37406 0.04776 0.88457 0.0
O174 O 0.381 0.03765 0.81917 0.0
N175 N 0.33134 0.01429 0.98046 0.0
C176 C 0.32683 0.99551 1.00573 0.0
C177 C 0.32495 0.99553 0.0925 0.0
C178 C 0.33194 0.02554 0.05124 0.0
N179 N 0.32823 0.01441 0.12079 0.0
C180 C 0.35759 0.98706 0.80746 0.0
C181 C 0.38819 0.98764 0.92595 0.0
C182 C 0.38808 0.97252 0.86418 0.0
C183 C 0.37243 0.97222 0.8049 0.0
C184 C 0.37324 0.00243 0.9251 0.0
N185 N 0.35871 0.00267 0.86353 0.0
H186 H 0.34473 0.98531 0.76694 0.0
H187 H 0.37319 0.01349 0.97522 0.0
H188 H 0.32549 0.98265 0.96411 0.0
H189 H 0.33575 0.04134 0.05213 0.0
O190 O 0.31535 0.0063 0.82654 0.0
O191 O 0.31237 0.03821 0.865 0.0
O192 O 0.35636 0.04401 0.91263 0.0
C193 C 0.30381 0.02188 0.83668 0.0
H194 H 0.34757 0.06547 0.60343 0.0
H195 H 0.32166 0.98263 0.13176 0.0
H196 H 0.39971 0.98802 0.97453 0.0
H197 H 0.37125 0.96016 0.75898 0.0
Co198 Co 0.47836 0.33423 0.37638 0.0
C199 C 0.47891 0.33542 0.18947 0.0
C200 C 0.44945 0.34092 0.23881 0.0
C201 C 0.44804 0.33903 0.15224 0.0
N202 N 0.46894 0.33923 0.26216 0.0
N203 N 0.46661 0.3354 0.12161 0.0
H204 H 0.4945 0.33112 0.18632 0.0
H205 H 0.43687 0.34194 0.28208 0.0
C206 C 0.45085 0.36966 0.39952 0.0
O207 O 0.45854 0.37782 0.33106 0.0
N208 N 0.48711 0.32854 0.48966 0.0
C209 C 0.50607 0.32581 0.51741 0.0
C210 C 0.50563 0.32446 0.60451 0.0
C211 C 0.47541 0.32852 0.55904 0.0
N212 N 0.48633 0.32633 0.63038 0.0
C213 C 0.51325 0.35586 0.31635 0.0
C214 C 0.51196 0.38615 0.43608 0.0
C215 C 0.52738 0.38629 0.37561 0.0
C216 C 0.52794 0.37088 0.31526 0.0
C217 C 0.49735 0.37103 0.4339 0.0
N218 N 0.49765 0.35644 0.37263 0.0
H219 H 0.51516 0.34327 0.27461 0.0
H220 H 0.48622 0.37071 0.4837 0.0
H221 H 0.51931 0.32572 0.4775 0.0
H222 H 0.45926 0.33058 0.55728 0.0
O223 O 0.49542 0.31291 0.33499 0.0
O224 O 0.46355 0.30912 0.37383 0.0
O225 O 0.45675 0.35236 0.42441 0.0
C226 C 0.47999 0.30108 0.34408 0.0
H227 H 0.43426 0.33889 0.1156 0.0
H228 H 0.51862 0.32329 0.64564 0.0
H229 H 0.51129 0.39753 0.48517 0.0
H230 H 0.54013 0.36996 0.26985 0.0
Co231 Co 0.156 0.47101 0.81693 0.0
C232 C 0.15487 0.46852 0.62419 0.0
C233 C 0.14518 0.44156 0.68532 0.0
C234 C 0.14545 0.43824 0.59944 0.0
N235 N 0.1504 0.46078 0.70188 0.0
N236 N 0.1516 0.45515 0.56039 0.0
H237 H 0.16189 0.48295 0.61427 0.0
H238 H 0.14221 0.43026 0.73277 0.0
C239 C 0.11652 0.45106 0.83611 0.0
O240 O 0.11115 0.46129 0.76859 0.0
N241 N 0.16236 0.48059 0.93108 0.0
C242 C 0.17023 0.49877 0.94866 0.0
C243 C 0.17082 0.50139 0.03505 0.0
C244 C 0.15838 0.47226 1.00788 0.0
N245 N 0.16327 0.48483 0.07274 0.0
C246 C 0.13773 0.50664 0.74282 0.0
C247 C 0.10978 0.51207 0.87071 0.0
C248 C 0.11007 0.52551 0.803 0.0
C249 C 0.1242 0.52276 0.7383 0.0
C250 C 0.1232 0.49602 0.87186 0.0
N251 N 0.13664 0.49302 0.80728 0.0
H252 H 0.14945 0.50564 0.69621 0.0
H253 H 0.12288 0.48604 0.92571 0.0
H254 H 0.17464 0.50972 0.90164 0.0
H255 H 0.15125 0.45778 0.01613 0.0
O256 O 0.17966 0.48435 0.7744 0.0
O257 O 0.17874 0.45292 0.82122 0.0
O258 O 0.13445 0.45277 0.86509 0.0
C259 C 0.18919 0.46762 0.78903 0.0
H260 H 0.1418 0.42419 0.56847 0.0
H261 H 0.17621 0.51467 0.06763 0.0
H262 H 0.09927 0.514 0.9226 0.0
H263 H 0.12523 0.53335 0.68645 0.0
Co264 Co 0.97303 0.65703 0.8274 0.0
C265 C 0.97401 0.65424 0.64239 0.0
C266 C 0.94393 0.65062 0.68986 0.0
C267 C 0.94333 0.64996 0.60261 0.0
N268 N 0.96317 0.65327 0.71417 0.0
N269 N 0.96228 0.65226 0.57308 0.0
H270 H 0.99007 0.657 0.64115 0.0
H271 H 0.93121 0.64961 0.73241 0.0
C272 C 0.95404 0.6238 0.92688 0.0
O273 O 0.97136 0.62128 0.96571 0.0
N274 N 0.98263 0.66148 0.94233 0.0
C275 C 0.00141 0.66595 0.9692 0.0
C276 C 0.00118 0.66829 0.05566 0.0
C277 C 0.97109 0.66242 1.01266 0.0
N278 N 0.98213 0.66585 0.08295 0.0
C279 C 0.01249 0.6404 0.8015 0.0
C280 C 0.0006 0.60124 0.77235 0.0
C281 C 0.02121 0.60569 0.77536 0.0
C282 C 0.02706 0.62567 0.78807 0.0
C283 C 0.9865 0.61649 0.78689 0.0
N284 N 0.99256 0.63557 0.80706 0.0
H285 H 0.01735 0.65579 0.80506 0.0
H286 H 0.97073 0.6129 0.78067 0.0
H287 H 0.01446 0.66805 0.92991 0.0
H288 H 0.95498 0.65998 1.01267 0.0
O289 O 0.98903 0.67939 0.78987 0.0
O290 O 0.95759 0.6818 0.83584 0.0
O291 O 0.95207 0.63724 0.86958 0.0
C292 C 0.97363 0.69072 0.80663 0.0
H293 H 0.93 0.648 0.56407 0.0
H294 H 0.01404 0.67172 0.09529 0.0
H295 H 0.9954 0.58609 0.7599 0.0
H296 H 0.0428 0.62995 0.7862 0.0
Co297 Co 0.84138 0.97249 0.33768 0.0
C298 C 0.84118 0.97239 0.15318 0.0
C299 C 0.84663 0.94274 0.20143 0.0
C300 C 0.8453 0.9417 0.11431 0.0
N301 N 0.84407 0.962 0.22505 0.0
N302 N 0.84171 0.96037 0.08445 0.0
H303 H 0.83836 0.9884 0.15172 0.0
H304 H 0.84857 0.93026 0.2445 0.0
C305 C 0.87522 0.95515 0.43573 0.0
O306 O 0.87827 0.97358 0.46302 0.0
N307 N 0.83794 0.98259 0.45226 0.0
C308 C 0.83506 0.00146 0.48137 0.0
C309 C 0.83369 0.00091 0.56837 0.0
C310 C 0.83714 0.97083 0.52164 0.0
N311 N 0.83528 0.98163 0.59341 0.0
C312 C 0.85864 0.01147 0.30732 0.0
C313 C 0.89729 -0.00156 0.27296 0.0
C314 C 0.89358 0.01914 0.27818 0.0
C315 C 0.87376 0.02557 0.29245 0.0
C316 C 0.88163 0.98486 0.288 0.0
N317 N 0.86297 0.99147 0.31208 0.0
H318 H 0.84338 0.01672 0.31357 0.0
H319 H 0.88465 0.969 0.28125 0.0
H320 H 0.83382 0.01484 0.44365 0.0
H321 H 0.83831 0.95462 0.51958 0.0
O322 O 0.81884 0.98855 0.30169 0.0
O323 O 0.81651 0.95744 0.35083 0.0
O324 O 0.86124 0.95169 0.38161 0.0
C325 C 0.80749 0.97336 0.32124 0.0
H326 H 0.84604 0.92816 0.07637 0.0
H327 H 0.83225 0.01377 0.60997 0.0
H328 H 0.91221 0.99274 0.2593 0.0
H329 H 0.86992 0.04138 0.29168 0.0
Co330 Co 0.52535 0.84135 0.80863 0.0
C331 C 0.52324 0.84457 0.6235 0.0
C332 C 0.55221 0.85368 0.67018 0.0
C333 C 0.55253 0.85439 0.58301 0.0
N334 N 0.53384 0.84755 0.69509 0.0
N335 N 0.53431 0.84855 0.5538 0.0
H336 H 0.50803 0.83875 0.6227 0.0
H337 H 0.56468 0.85686 0.71218 0.0
C338 C 0.54107 0.87615 0.90832 0.0
O339 O 0.5235 0.87734 0.9463 0.0
N340 N 0.51737 0.83426 0.92368 0.0
C341 C 0.50091 0.82389 0.94875 0.0
C342 C 0.50154 0.82137 0.03512 0.0
C343 C 0.52851 0.83632 0.99482 0.0
N344 N 0.51887 0.82934 0.06388 0.0
C345 C 0.48424 0.85618 0.81145 0.0
C346 C 0.49363 0.89505 0.76438 0.0
C347 C 0.47377 0.89045 0.7865 0.0
C348 C 0.46902 0.87068 0.80881 0.0
C349 C 0.50843 0.8802 0.76977 0.0
N350 N 0.50387 0.86127 0.79756 0.0
H351 H 0.48005 0.84087 0.82307 0.0
H352 H 0.52369 0.88407 0.75254 0.0
H353 H 0.48956 0.81762 0.90759 0.0
H354 H 0.54339 0.84287 0.99655 0.0
O355 O 0.51147 0.81787 0.7666 0.0
O356 O 0.54338 0.81858 0.80846 0.0
O357 O 0.54449 0.86255 0.85286 0.0
C358 C 0.52836 0.80829 0.77772 0.0
H359 H 0.56529 0.85862 0.54434 0.0
H360 H 0.49036 0.81385 0.07358 0.0
H361 H 0.49776 0.9101 0.7449 0.0
H362 H 0.45364 0.86641 0.82275 0.0
Co363 Co 0.65876 0.52391 0.35167 0.0
C364 C 0.65603 0.52249 0.1668 0.0
C365 C 0.64703 0.5514 0.21402 0.0
C366 C 0.64642 0.55179 0.12668 0.0
N367 N 0.65301 0.53299 0.23856 0.0
N368 N 0.65214 0.53358 0.09721 0.0
H369 H 0.66166 0.50723 0.16591 0.0
H370 H 0.64376 0.56376 0.25643 0.0
C371 C 0.62304 0.53631 0.45094 0.0
O372 O 0.62283 0.51765 0.47817 0.0
N373 N 0.66549 0.51536 0.46648 0.0
C374 C 0.67607 0.49907 0.49162 0.0
C375 C 0.67843 0.49967 0.57822 0.0
C376 C 0.66312 0.52637 0.53784 0.0
N377 N 0.67017 0.51684 0.60697 0.0
C378 C 0.64476 0.4824 0.34839 0.0
C379 C 0.60627 0.49125 0.29306 0.0
C380 C 0.61091 0.47146 0.31524 0.0
C381 C 0.63051 0.46698 0.34174 0.0
C382 C 0.62081 0.50624 0.30258 0.0
N383 N 0.63951 0.50195 0.33442 0.0
H384 H 0.65999 0.47843 0.3634 0.0
H385 H 0.61681 0.52149 0.2863 0.0
H386 H 0.68273 0.48796 0.45042 0.0
H387 H 0.6564 0.54116 0.53954 0.0
O388 O 0.68288 0.51106 0.31035 0.0
O389 O 0.68114 0.54251 0.35671 0.0
O390 O 0.63659 0.54187 0.39811 0.0
C391 C 0.69202 0.52801 0.32519 0.0
H392 H 0.64223 0.56454 0.0881 0.0
H393 H 0.68616 0.48866 0.61675 0.0
H394 H 0.59136 0.49521 0.27073 0.0
H395 H 0.63485 0.45167 0.35603 0.0
Co396 Co 0.96904 0.84201 0.69663 0.0
C397 C 0.96923 0.84111 0.88418 0.0
C398 C 0.94048 0.84948 0.83417 0.0
C399 C 0.93876 0.84778 0.9206 0.0
N400 N 0.95976 0.84591 0.81155 0.0
N401 N 0.95686 0.84241 0.95148 0.0
H402 H 0.98446 0.83571 0.88814 0.0
H403 H 0.92824 0.85218 0.79044 0.0
C404 C 0.94795 0.88136 0.69228 0.0
O405 O 0.95818 0.88583 0.7611 0.0
N406 N 0.97755 0.83752 0.5825 0.0
C407 C 0.99591 0.83176 0.55568 0.0
C408 C 0.99574 0.83129 0.4685 0.0
C409 C 0.96644 0.84033 0.51257 0.0
N410 N 0.97721 0.83678 0.44188 0.0
C411 C 0.007 0.85659 0.76353 0.0
C412 C 0.00938 0.89014 0.66136 0.0
C413 C 0.02459 0.88689 0.72134 0.0
C414 C 0.02346 0.8696 0.77171 0.0
C415 C 0.99328 0.87675 0.65527 0.0
N416 N 0.99151 0.86084 0.70954 0.0
H417 H 0.00725 0.84273 0.79835 0.0
H418 H 0.9824 0.87905 0.60538 0.0
H419 H 0.00858 0.82858 0.59657 0.0
H420 H 0.95082 0.84493 0.51354 0.0
O421 O 0.98241 0.81756 0.73027 0.0
O422 O 0.95062 0.81951 0.68805 0.0
O423 O 0.95039 0.86422 0.65688 0.0
C424 C 0.96545 0.80844 0.71528 0.0
H425 H 0.92508 0.84935 0.9573 0.0
H426 H 0.00841 0.82781 0.42797 0.0
H427 H 0.01013 0.90268 0.61785 0.0
H428 H 0.0352 0.86607 0.81692 0.0
Co429 Co 0.65621 0.96647 0.2059 0.0
C430 C 0.65529 0.96359 0.39649 0.0
C431 C 0.64469 0.93679 0.33521 0.0
C432 C 0.64442 0.9338 0.42138 0.0
N433 N 0.6514 0.95546 0.31904 0.0
N434 N 0.65124 0.95054 0.46066 0.0
H435 H 0.6615 0.97847 0.40537 0.0
H436 H 0.64057 0.92583 0.28763 0.0
C437 C 0.62068 0.9518 0.1072 0.0
O438 O 0.61846 0.97001 0.07656 0.0
N439 N 0.66187 0.9771 0.09104 0.0
C440 C 0.67226 0.99404 0.07334 0.0
C441 C 0.67366 0.99645 0.98708 0.0
C442 C 0.65845 0.96875 0.01327 0.0
N443 N 0.66476 0.98068 0.94869 0.0
C444 C 0.64001 0.00692 0.21889 0.0
C445 C 0.60154 0.99514 0.26327 0.0
C446 C 0.60503 0.01541 0.24434 0.0
C447 C 0.62477 0.02137 0.22511 0.0
C448 C 0.61719 0.98126 0.25627 0.0
N449 N 0.63581 0.98698 0.22819 0.0
H450 H 0.65509 0.01188 0.20625 0.0
H451 H 0.61408 0.96569 0.27038 0.0
H452 H 0.67918 0.00383 0.1195 0.0
H453 H 0.6515 0.95426 1.00354 0.0
O454 O 0.67976 0.9801 0.24881 0.0
O455 O 0.67944 0.94924 0.19517 0.0
O456 O 0.63506 0.94772 0.15827 0.0
C457 C 0.68966 0.96384 0.22946 0.0
H458 H 0.63956 0.92016 0.45238 0.0
H459 H 0.68114 0.00872 0.95508 0.0
H460 H 0.58674 0.98996 0.28206 0.0
H461 H 0.62835 0.03694 0.21228 0.0
Co462 Co 0.52336 0.65908 0.62601 0.0
C463 C 0.52578 0.65808 0.81899 0.0
C464 C 0.55438 0.65618 0.75708 0.0
C465 C 0.55759 0.65707 0.84287 0.0
N466 N 0.53442 0.65623 0.74108 0.0
N467 N 0.53965 0.65837 0.8824 0.0
H468 H 0.50995 0.6606 0.82953 0.0
H469 H 0.566 0.65624 0.70912 0.0
C470 C 0.55048 0.62405 0.61385 0.0
O471 O 0.54144 0.61792 0.68325 0.0
N472 N 0.51276 0.6627 0.5117 0.0
C473 C 0.49328 0.66647 0.4939 0.0
C474 C 0.49062 0.6661 0.40756 0.0
C475 C 0.52178 0.66022 0.43519 0.0
N476 N 0.50846 0.66209 0.37029 0.0
C477 C 0.48981 0.63681 0.69672 0.0
C478 C 0.49091 0.60624 0.578 0.0
C479 C 0.47553 0.6062 0.63854 0.0
C480 C 0.47514 0.62168 0.69897 0.0
C481 C 0.50514 0.62158 0.57789 0.0
N482 N 0.50496 0.63636 0.63827 0.0
H483 H 0.48822 0.64943 0.73882 0.0
H484 H 0.51593 0.62188 0.52681 0.0
H485 H 0.48162 0.6687 0.54081 0.0
H486 H 0.5375 0.65634 0.42723 0.0
O487 O 0.50596 0.68024 0.66585 0.0
O488 O 0.53715 0.68463 0.61875 0.0
O489 O 0.54533 0.64081 0.58047 0.0
C490 C 0.52076 0.69246 0.64999 0.0
H491 H 0.57217 0.65714 0.87348 0.0
H492 H 0.47651 0.66841 0.37466 0.0
H493 H 0.49177 0.5947 0.52963 0.0
H494 H 0.46309 0.62263 0.745 0.0
Co495 Co 0.84325 0.52339 0.19991 0.0
C496 C 0.84364 0.52628 0.39045 0.0
C497 C 0.85081 0.55422 0.32985 0.0
C498 C 0.85058 0.55721 0.41606 0.0
N499 N 0.84653 0.53484 0.31325 0.0
N500 N 0.84593 0.53973 0.45485 0.0
H501 H 0.83937 0.51072 0.39902 0.0
H502 H 0.85353 0.56562 0.28253 0.0
C503 C 0.87677 0.54257 0.10119 0.0
O504 O 0.88105 0.52494 0.0683 0.0
N505 N 0.83922 0.51213 0.08484 0.0
C506 C 0.83194 0.49367 0.06661 0.0
C507 C 0.83096 0.49114 0.98034 0.0
C508 C 0.84122 0.521 1.00737 0.0
N509 N 0.83705 0.5082 0.94243 0.0
C510 C 0.86196 0.4849 0.22496 0.0
C511 C 0.90016 0.49898 0.26081 0.0
C512 C 0.8971 0.47817 0.25423 0.0
C513 C 0.87752 0.47122 0.23866 0.0
C514 C 0.88405 0.51216 0.247 0.0
N515 N 0.86553 0.50508 0.2235 0.0
H516 H 0.84696 0.47913 0.21751 0.0
H517 H 0.88659 0.52808 0.25474 0.0
H518 H 0.82678 0.48279 0.11219 0.0
H519 H 0.84577 0.53644 0.99822 0.0
O520 O 0.82149 0.50702 0.24116 0.0
O521 O 0.81791 0.5377 0.18863 0.0
O522 O 0.86224 0.54457 0.15372 0.0
C523 C 0.80958 0.52177 0.22153 0.0
H524 H 0.8536 0.57135 0.44751 0.0
H525 H 0.82569 0.47778 0.94799 0.0
H526 H 0.91489 0.50509 0.27501 0.0
H527 H 0.87415 0.4553 0.23796 0.0
H528 H 0.97316 0.42383 0.33436 0.0
H529 H 0.9473 0.38916 0.13004 0.0
H530 H 0.91991 0.4133 0.11722 0.0
H531 H 0.90357 0.44443 0.16159 0.0
H532 H 0.92885 0.47936 0.36612 0.0
H533 H 0.95648 0.45526 0.37954 0.0
C534 C 0.96159 0.42162 0.28676 0.0
C535 C 0.96225 0.40459 0.23366 0.0
C536 C 0.94586 0.43569 0.27922 0.0
C537 C 0.947 0.4019 0.17283 0.0
C538 C 0.93139 0.41578 0.16495 0.0
C539 C 0.91498 0.44669 0.20986 0.0
C540 C 0.91405 0.46367 0.26296 0.0
C541 C 0.93066 0.4327 0.21776 0.0
C542 C 0.92927 0.46655 0.3238 0.0
C543 C 0.94501 0.45269 0.33187 0.0
H544 H 0.10578 0.93691 0.73928 0.0
H545 H 0.0636 0.98575 0.71069 0.0
H546 H 0.03556 0.96211 0.71237 0.0
H547 H 0.02297 0.92762 0.71723 0.0
H548 H 0.06478 0.87838 0.74253 0.0
H549 H 0.0929 0.90208 0.74873 0.0
C550 C 0.09043 0.94235 0.73447 0.0
C551 C 0.0868 0.96305 0.72417 0.0
C552 C 0.07429 0.92861 0.73488 0.0
C553 C 0.06682 0.96987 0.7174 0.0
C554 C 0.05076 0.95637 0.71861 0.0
C555 C 0.03825 0.92204 0.72367 0.0
C556 C 0.04173 0.90123 0.7289 0.0
C557 C 0.05433 0.93571 0.72615 0.0
C558 C 0.06161 0.89432 0.73905 0.0
C559 C 0.07773 0.90787 0.74208 0.0
H560 H 0.6042 0.05432 0.30101 0.0
H561 H 0.56761 0.00922 0.17831 0.0
H562 H 0.53993 0.03308 0.16616 0.0
H563 H 0.52655 0.06711 0.18436 0.0
H564 H 0.56294 0.11242 0.30646 0.0
H565 H 0.59034 0.08827 0.32308 0.0
C566 C 0.59019 0.04973 0.2714 0.0
C567 C 0.58802 0.02996 0.24087 0.0
C568 C 0.57432 0.06362 0.2638 0.0
C569 C 0.56964 0.02423 0.20361 0.0
C570 C 0.55382 0.03792 0.19601 0.0
C571 C 0.54035 0.07165 0.21574 0.0
C572 C 0.54266 0.0916 0.2438 0.0
C573 C 0.55603 0.05768 0.22537 0.0
C574 C 0.56083 0.09726 0.28308 0.0
C575 C 0.57649 0.08342 0.29304 0.0
H576 H 0.40937 0.54088 0.55667 0.0
H577 H 0.41028 0.53466 0.8285 0.0
H578 H 0.43573 0.56118 0.8389 0.0
H579 H 0.4582 0.58579 0.76984 0.0
H580 H 0.45646 0.59201 0.49777 0.0
H581 H 0.4311 0.56568 0.48839 0.0
C582 C 0.4153 0.54517 0.61813 0.0
C583 C 0.40809 0.53571 0.6916 0.0
C584 C 0.42982 0.56042 0.62359 0.0
C585 C 0.41557 0.54177 0.77098 0.0
C586 C 0.43014 0.55689 0.77694 0.0
C587 C 0.45213 0.58148 0.70865 0.0
C588 C 0.45942 0.59071 0.63461 0.0
C589 C 0.4374 0.56633 0.7036 0.0
C590 C 0.45146 0.58488 0.55568 0.0
C591 C 0.43686 0.56989 0.5502 0.0
H592 H 0.89896 0.05266 0.37257 0.0
H593 H 0.92566 0.01891 0.16783 0.0
H594 H 0.953 0.04348 0.15823 0.0
H595 H 0.969 0.07503 0.2071 0.0
H596 H 0.94164 0.10838 0.41173 0.0
H597 H 0.91467 0.08371 0.4209 0.0
C598 C 0.91061 0.05078 0.32504 0.0
C599 C 0.91017 0.03403 0.2707 0.0
C600 C 0.92614 0.06497 0.31959 0.0
C601 C 0.92569 0.03159 0.2109 0.0
C602 C 0.94128 0.04569 0.20512 0.0
C603 C 0.95719 0.0768 0.25392 0.0
C604 C 0.95726 0.09364 0.30809 0.0
C605 C 0.94166 0.06246 0.25916 0.0
C606 C 0.94176 0.09578 0.36816 0.0
C607 C 0.92638 0.08162 0.37388 0.0
H608 H 0.45008 0.90163 0.91753 0.0
H609 H 0.46281 0.91471 0.65576 0.0
H610 H 0.43708 0.94113 0.65606 0.0
H611 H 0.41106 0.96059 0.73154 0.0
H612 H 0.39984 0.94887 0.9958 0.0
H613 H 0.42493 0.9219 0.99436 0.0
C614 C 0.44708 0.91025 0.86061 0.0
C615 C 0.4581 0.90623 0.78653 0.0
C616 C 0.43265 0.92567 0.86198 0.0
C617 C 0.45443 0.91762 0.71337 0.0
C618 C 0.43975 0.93267 0.71358 0.0
C619 C 0.41414 0.95207 0.78861 0.0
C620 C 0.40364 0.95659 0.86358 0.0
C621 C 0.42879 0.93684 0.78756 0.0
C622 C 0.40786 0.94568 0.93754 0.0
C623 C 0.42211 0.93023 0.93662 0.0
H624 H 0.59836 0.44762 0.44332 0.0
H625 H 0.5882 0.46041 0.17931 0.0
H626 H 0.56161 0.43489 0.174 0.0
H627 H 0.541 0.40916 0.2454 0.0
H628 H 0.54984 0.39786 0.51164 0.0
H629 H 0.57707 0.42262 0.51569 0.0
C630 C 0.59037 0.44466 0.38464 0.0
C631 C 0.59526 0.45565 0.31159 0.0
C632 C 0.57481 0.43035 0.38277 0.0
C633 C 0.58465 0.45203 0.23615 0.0
C634 C 0.56948 0.43748 0.23318 0.0
C635 C 0.54895 0.41214 0.30413 0.0
C636 C 0.54348 0.40173 0.37808 0.0
C637 C 0.56438 0.42659 0.30618 0.0
C638 C 0.5537 0.40583 0.45411 0.0
C639 C 0.56932 0.4199 0.45634 0.0
H640 H 0.0543 0.6001 0.87217 0.0
H641 H 0.02261 0.57549 0.65729 0.0
H642 H 0.04815 0.54912 0.64307 0.0
H643 H 0.07921 0.53256 0.69465 0.0
H644 H 0.10964 0.55649 0.91375 0.0
H645 H 0.08512 0.58388 0.92281 0.0
C646 C 0.0531 0.58907 0.82172 0.0
C647 C 0.03665 0.58974 0.76573 0.0
C648 C 0.06767 0.57391 0.81459 0.0
C649 C 0.03507 0.57516 0.70157 0.0
C650 C 0.04971 0.56016 0.69318 0.0
C651 C 0.0805 0.54397 0.74351 0.0
C652 C 0.09616 0.54277 0.80305 0.0
C653 C 0.06604 0.55934 0.74957 0.0
C654 C 0.09767 0.55731 0.86718 0.0
C655 C 0.08366 0.57288 0.87246 0.0
H656 H 0.04229 0.40166 0.96932 0.0
H657 H 0.0856 0.38273 0.15678 0.0
H658 H 0.11131 0.40395 0.09054 0.0
H659 H 0.12146 0.42767 0.97751 0.0
H660 H 0.07751 0.44556 0.79029 0.0
H661 H 0.05215 0.42489 0.8585 0.0
C662 C 0.05731 0.4022 0.99625 0.0
C663 C 0.06198 0.39067 0.06807 0.0
C664 C 0.07197 0.4142 0.95758 0.0
C665 C 0.0816 0.39149 0.1015 0.0
C666 C 0.09631 0.4036 0.0636 0.0
C667 C 0.10634 0.42701 0.95168 0.0
C668 C 0.10146 0.43816 0.8787 0.0
C669 C 0.09168 0.41497 0.99126 0.0
C670 C 0.08177 0.43715 0.84618 0.0
C671 C 0.06719 0.42534 0.8852 0.0
H672 H 0.11711 0.07378 0.54932 0.0
H673 H 0.07727 0.0591 0.75669 0.0
H674 H 0.05127 0.08041 0.69707 0.0
H675 H 0.0394 0.10273 0.58654 0.0
H676 H 0.07846 0.11856 0.3788 0.0
H677 H 0.10517 0.09732 0.43817 0.0
C678 C 0.10277 0.07533 0.58152 0.0
C679 C 0.0992 0.06476 0.65737 0.0
C680 C 0.08768 0.08774 0.54679 0.0
C681 C 0.0805 0.06695 0.69821 0.0
C682 C 0.06555 0.07915 0.66418 0.0
C683 C 0.05371 0.10151 0.55377 0.0
C684 C 0.05687 0.11207 0.47797 0.0
C685 C 0.06892 0.08949 0.58843 0.0
C686 C 0.07564 0.11054 0.43724 0.0
C687 C 0.09089 0.09839 0.47115 0.0
H688 H 0.42188 0.11217 0.10376 0.0
H689 H 0.46983 0.09151 0.94028 0.0
H690 H 0.44681 0.06877 0.86924 0.0
H691 H 0.41343 0.0545 0.85248 0.0
H692 H 0.36494 0.07365 0.01558 0.0
H693 H 0.38776 0.09716 0.08735 0.0
C694 C 0.42725 0.10267 0.05263 0.0
C695 C 0.44762 0.10361 0.02774 0.0
C696 C 0.41384 0.08935 1.01168 0.0
C697 C 0.45431 0.09113 0.9614 0.0
C698 C 0.44113 0.0781 0.92031 0.0
C699 C 0.40773 0.06383 0.90352 0.0
C700 C 0.38745 0.06235 0.92819 0.0
C701 C 0.42091 0.07707 0.94483 0.0
C702 C 0.38048 0.07451 0.99504 0.0
C703 C 0.39354 0.08795 0.03617 0.0
H704 H 0.40105 0.41589 0.67921 0.0
H705 H 0.37411 0.44231 0.45715 0.0
H706 H 0.39545 0.42168 0.36601 0.0
H707 H 0.42261 0.39669 0.34915 0.0
H708 H 0.44837 0.36912 0.57072 0.0
H709 H 0.42672 0.38945 0.66224 0.0
C710 C 0.39983 0.41705 0.61087 0.0
C711 C 0.38605 0.43063 0.57505 0.0
C712 C 0.41197 0.40491 0.55872 0.0
C713 C 0.38447 0.43186 0.48637 0.0
C714 C 0.39676 0.42013 0.43413 0.0
C715 C 0.42337 0.39513 0.41746 0.0
C716 C 0.43697 0.3814 0.45338 0.0
C717 C 0.41067 0.4067 0.46955 0.0
C718 C 0.43778 0.37938 0.54186 0.0
C719 C 0.42551 0.3911 0.59414 0.0
H720 H 0.88817 0.55578 0.94655 0.0
H721 H 0.8946 0.56773 0.2135 0.0
H722 H 0.91913 0.59431 0.18335 0.0
H723 H 0.94008 0.61289 0.08066 0.0
H724 H 0.93109 0.60341 0.81328 0.0
H725 H 0.90608 0.57725 0.84327 0.0
C726 C 0.89487 0.56438 0.99778 0.0
C727 C 0.88988 0.55981 0.08201 0.0
C728 C 0.90846 0.58 0.97974 0.0
C729 C 0.89831 0.57111 0.14821 0.0
C730 C 0.91235 0.58621 0.13099 0.0
C731 C 0.93245 0.60517 0.02923 0.0
C732 C 0.93744 0.6098 0.94504 0.0
C733 C 0.91774 0.5906 0.04705 0.0
C734 C 0.92738 0.60002 0.87855 0.0
C735 C 0.91318 0.58504 0.89571 0.0
H736 H 0.92469 0.87829 0.54889 0.0
H737 H 0.9411 0.91916 0.75052 0.0
H738 H 0.9201 0.94516 0.68875 0.0
H739 H 0.89757 0.95667 0.57788 0.0
H740 H 0.88005 0.91654 0.37603 0.0
H741 H 0.90095 0.88986 0.43771 0.0
C742 C 0.92361 0.89286 0.57936 0.0
C743 C 0.93455 0.89672 0.65426 0.0
C744 C 0.91137 0.90791 0.54346 0.0
C745 C 0.93293 0.9157 0.6929 0.0
C746 C 0.92091 0.93065 0.6576 0.0
C747 C 0.89835 0.94213 0.54688 0.0
C748 C 0.88743 0.93866 0.472 0.0
C749 C 0.91018 0.92696 0.58284 0.0
C750 C 0.88836 0.9196 0.43368 0.0
C751 C 0.90032 0.90437 0.46889 0.0
H752 H 0.60803 0.94246 0.94965 0.0
H753 H 0.60128 0.92609 0.21205 0.0
H754 H 0.57548 0.90131 0.1739 0.0
H755 H 0.55423 0.88498 0.06549 0.0
H756 H 0.56361 0.89873 0.80188 0.0
H757 H 0.58909 0.92386 0.84016 0.0
C758 C 0.60089 0.93337 0.99812 0.0
C759 C 0.60623 0.93608 0.08337 0.0
C760 C 0.58659 0.91879 0.97535 0.0
C761 C 0.59728 0.92412 0.14599 0.0
C762 C 0.58253 0.91005 0.12423 0.0
C763 C 0.56194 0.89351 0.01677 0.0
C764 C 0.55705 0.89037 0.93132 0.0
C765 C 0.57696 0.90737 0.03919 0.0
C766 C 0.56725 0.90108 0.8681 0.0
C767 C 0.58172 0.91542 0.88997 0.0
H768 H 0.61559 0.57534 0.40286 0.0
H769 H 0.59814 0.52991 0.5839 0.0
H770 H 0.57475 0.55311 0.64971 0.0
H771 H 0.55914 0.58591 0.65721 0.0
H772 H 0.57496 0.63189 0.47677 0.0
H773 H 0.59908 0.60888 0.40962 0.0
C774 C 0.60664 0.57057 0.45665 0.0
C775 C 0.60867 0.55086 0.48816 0.0
C776 C 0.59295 0.58406 0.49453 0.0
C777 C 0.59691 0.5449 0.55781 0.0
C778 C 0.58351 0.55819 0.59588 0.0
C779 C 0.56788 0.59103 0.60336 0.0
C780 C 0.56532 0.61064 0.57243 0.0
C781 C 0.58142 0.57775 0.56489 0.0
C782 C 0.57668 0.61686 0.50203 0.0
C783 C 0.59046 0.60371 0.46362 0.0
H784 H 0.00586 0.28387 0.26759 0.0
H785 H 0.07038 0.28675 0.23919 0.0
H786 H 0.07288 0.25062 0.26792 0.0
H787 H 0.05636 0.21797 0.29941 0.0
H788 H 0.99159 0.21579 0.3201 0.0
H789 H 0.98957 0.25186 0.29665 0.0
C790 C 0.0205 0.27663 0.26793 0.0
C791 C 0.0379 0.28795 0.2516 0.0
C792 C 0.02176 0.25595 0.28325 0.0
C793 C 0.05674 0.27832 0.25148 0.0
C794 C 0.05817 0.25769 0.26806 0.0
C795 C 0.04187 0.22549 0.29925 0.0
C796 C 0.02416 0.21427 0.31157 0.0
C797 C 0.04075 0.24631 0.28391 0.0
C798 C 0.00544 0.22409 0.31036 0.0
C799 C 0.00425 0.24473 0.29704 0.0
H800 H 0.2776 0.05279 0.80781 0.0
H801 H 0.28126 0.98814 0.82105 0.0
H802 H 0.24553 0.9854 0.78755 0.0
H803 H 0.21317 0.00122 0.75416 0.0
H804 H 0.20939 0.06574 0.73452 0.0
H805 H 0.24512 0.06868 0.77032 0.0
C806 C 0.27052 0.03814 0.80362 0.0
C807 C 0.28205 0.02071 0.81722 0.0
C808 C 0.24994 0.03663 0.78282 0.0
C809 C 0.27274 0.0018 0.8107 0.0
C810 C 0.25228 0.0002 0.7916 0.0
C811 C 0.22017 0.01593 0.75764 0.0
C812 C 0.20863 0.03322 0.74186 0.0
C813 C 0.24074 0.01749 0.77739 0.0
C814 C 0.21795 0.05217 0.74612 0.0
C815 C 0.23838 0.05387 0.76684 0.0
H816 H 0.44911 0.27597 0.30069 0.0
H817 H 0.51369 0.27843 0.32951 0.0
H818 H 0.51643 0.24344 0.28484 0.0
H819 H 0.50068 0.21218 0.23811 0.0
H820 H 0.43634 0.20943 0.20261 0.0
H821 H 0.43329 0.24454 0.24841 0.0
C822 C 0.46374 0.26876 0.29762 0.0
C823 C 0.48116 0.2797 0.31907 0.0
C824 C 0.46526 0.24866 0.2701 0.0
C825 C 0.50006 0.27032 0.31348 0.0
C826 C 0.50165 0.25031 0.28788 0.0
C827 C 0.48597 0.21925 0.24019 0.0
C828 C 0.46875 0.2082 0.21735 0.0
C829 C 0.48438 0.23936 0.26598 0.0
C830 C 0.44983 0.21765 0.21963 0.0
C831 C 0.44809 0.23768 0.2462 0.0
H832 H 0.27911 0.44483 0.69841 0.0
H833 H 0.28396 0.50941 0.68708 0.0
H834 H 0.24824 0.51273 0.72098 0.0
H835 H 0.21576 0.49739 0.75578 0.0
H836 H 0.21097 0.43292 0.77529 0.0
H837 H 0.24651 0.42942 0.73681 0.0
C838 C 0.27226 0.4596 0.70278 0.0
C839 C 0.28407 0.47685 0.68975 0.0
C840 C 0.25178 0.46141 0.72432 0.0
C841 C 0.27514 0.49591 0.69688 0.0
C842 C 0.25473 0.49783 0.71627 0.0
C843 C 0.22249 0.48256 0.75152 0.0
C844 C 0.21076 0.46544 0.76811 0.0
C845 C 0.24294 0.4807 0.73052 0.0
C846 C 0.21972 0.44635 0.76309 0.0
C847 C 0.24002 0.44433 0.74082 0.0
H848 H 0.99515 0.78166 0.74544 0.0
H849 H 0.93066 0.78633 0.72005 0.0
H850 H 0.92719 0.75036 0.74967 0.0
H851 H 0.94275 0.71736 0.78228 0.0
H852 H 0.00745 0.7132 0.80073 0.0
H853 H 0.01055 0.74913 0.77496 0.0
C854 C 0.98032 0.77483 0.74638 0.0
C855 C 0.9632 0.78664 0.73071 0.0
C856 C 0.97848 0.75419 0.76254 0.0
C857 C 0.9441 0.77753 0.73164 0.0
C858 C 0.9421 0.75698 0.74883 0.0
C859 C 0.95747 0.7244 0.78109 0.0
C860 C 0.97484 0.71266 0.79358 0.0
C861 C 0.95921 0.74513 0.76447 0.0
C862 C 0.99386 0.72189 0.79098 0.0
C863 C 0.99566 0.74245 0.77629 0.0
H864 H 0.78114 0.94245 0.29651 0.0
H865 H 0.7846 0.00697 0.31856 0.0
H866 H 0.74842 0.0097 0.29426 0.0
H867 H 0.71588 0.99392 0.26389 0.0
H868 H 0.71234 0.92961 0.23311 0.0
H869 H 0.74837 0.9266 0.26319 0.0
C870 C 0.77389 0.95705 0.29656 0.0
C871 C 0.78546 0.97447 0.30965 0.0
C872 C 0.75309 0.95856 0.28045 0.0
C873 C 0.77599 0.99335 0.30843 0.0
C874 C 0.7553 0.99493 0.29456 0.0
C875 C 0.72299 0.97924 0.26398 0.0
C876 C 0.71147 0.96202 0.24655 0.0
C877 C 0.74373 0.97767 0.27998 0.0
C878 C 0.72092 0.94311 0.2461 0.0
C879 C 0.74151 0.94138 0.26352 0.0
H880 H 0.49842 0.78192 0.74218 0.0
H881 H 0.56306 0.78664 0.76117 0.0
H882 H 0.56654 0.75139 0.71943 0.0
H883 H 0.55112 0.71907 0.67844 0.0
H884 H 0.4864 0.71417 0.66686 0.0
H885 H 0.48305 0.74964 0.70422 0.0
C886 C 0.51327 0.77524 0.73711 0.0
C887 C 0.53045 0.78687 0.75455 0.0
C888 C 0.51515 0.75494 0.7141 0.0
C889 C 0.54959 0.77797 0.74834 0.0
C890 C 0.5516 0.75784 0.72422 0.0
C891 C 0.53631 0.72585 0.6835 0.0
C892 C 0.51904 0.71409 0.66943 0.0
C893 C 0.53448 0.74617 0.70689 0.0
C894 C 0.49992 0.72294 0.67742 0.0
C895 C 0.49799 0.7432 0.69881 0.0
H896 H 0.78237 0.55205 0.24585 0.0
H897 H 0.78781 0.48754 0.23138 0.0
H898 H 0.75195 0.48383 0.26055 0.0
H899 H 0.71916 0.49871 0.29259 0.0
H900 H 0.71347 0.56305 0.31523 0.0
H901 H 0.74923 0.56706 0.28101 0.0
C902 C 0.77561 0.53723 0.24856 0.0
C903 C 0.78768 0.5201 0.23619 0.0
C904 C 0.75497 0.53517 0.26737 0.0
C905 C 0.77884 0.50095 0.24093 0.0
C906 C 0.75833 0.49881 0.25758 0.0
C907 C 0.72573 0.51363 0.2899 0.0
C908 C 0.71368 0.53056 0.30617 0.0
C909 C 0.74628 0.51578 0.27139 0.0
C910 C 0.72245 0.54976 0.30317 0.0
C911 C 0.74288 0.55207 0.28338 0.0
H912 H 0.00138 0.34058 0.81904 0.0
H913 H 0.06268 0.32823 0.89235 0.0
H914 H 0.07378 0.33315 0.7461 0.0
H915 H 0.0659 0.34072 0.59719 0.0
H916 H 0.00454 0.35368 0.52557 0.0
H917 H 0.99357 0.34842 0.67115 0.0
C918 C 0.01712 0.33869 0.80286 0.0
C919 C 0.03115 0.33392 0.86646 0.0
C920 C 0.02338 0.34165 0.71892 0.0
C921 C 0.05159 0.332 0.8447 0.0
C922 C 0.05793 0.33477 0.76106 0.0
C923 C 0.05017 0.34262 0.6135 0.0
C924 C 0.03608 0.34752 0.55015 0.0
C925 C 0.04395 0.33968 0.69768 0.0
C926 C 0.01568 0.34962 0.57254 0.0
C927 C 0.00939 0.34671 0.65596 0.0
H928 H 0.13547 0.05665 0.0927 0.0
H929 H 0.1802 0.01389 1.01043 0.0
H930 H 0.18658 0.00425 0.1571 0.0
H931 H 0.17892 0.00761 0.30829 0.0
H932 H 0.13371 0.05001 0.38989 0.0
H933 H 0.1284 0.06058 0.24397 0.0
C934 C 0.14677 0.04541 0.10716 0.0
C935 C 0.15723 0.0359 0.04122 0.0
C936 C 0.15032 0.03995 0.19132 0.0
C937 C 0.17169 0.02116 0.06026 0.0
C938 C 0.17543 0.01573 0.14401 0.0
C939 C 0.16785 0.01908 0.29396 0.0
C940 C 0.15675 0.02799 0.35964 0.0
C941 C 0.16468 0.02489 0.20992 0.0
C942 C 0.14266 0.0431 0.34055 0.0
C943 C 0.1395 0.04906 0.25709 0.0
H944 H 0.45333 0.15769 0.82284 0.0
H945 H 0.51778 0.16135 0.79334 0.0
H946 H 0.51439 0.15739 0.64061 0.0
H947 H 0.49321 0.15252 0.51331 0.0
H948 H 0.42865 0.14965 0.54291 0.0
H949 H 0.43212 0.15332 0.69519 0.0
C950 C 0.46664 0.15752 0.78319 0.0
C951 C 0.48579 0.16 0.82073 0.0
C952 C 0.46462 0.15526 0.69418 0.0
C953 C 0.5028 0.15986 0.76715 0.0
C954 C 0.5009 0.15746 0.67924 0.0
C955 C 0.47986 0.15283 0.55269 0.0
C956 C 0.4607 0.15051 0.5149 0.0
C957 C 0.48188 0.1552 0.64165 0.0
C958 C 0.44368 0.15091 0.56861 0.0
C959 C 0.44561 0.15317 0.65656 0.0
H960 H 0.34986 0.48921 0.99815 0.0
H961 H 0.32534 0.42948 0.02293 0.0
H962 H 0.3229 0.43377 0.17568 0.0
H963 H 0.32734 0.45461 0.3047 0.0
H964 H 0.35142 0.51446 0.27939 0.0
H965 H 0.35416 0.51004 0.12664 0.0
C966 C 0.34382 0.47718 0.03667 0.0
C967 C 0.33796 0.45898 0.9977 0.0
C968 C 0.34232 0.47975 0.12561 0.0
C969 C 0.33035 0.44355 0.04998 0.0
C970 C 0.32883 0.44602 0.13801 0.0
C971 C 0.33332 0.46662 0.26588 0.0
C972 C 0.33898 0.48492 0.30447 0.0
C973 C 0.33483 0.46402 0.1769 0.0
C974 C 0.34657 0.50033 0.25221 0.0
C975 C 0.34825 0.49779 0.16435 0.0
H976 H 0.00052 0.18347 0.73908 0.0
H977 H 0.04696 0.14328 0.65039 0.0
H978 H 0.0576 0.13705 0.79566 0.0
H979 H 0.05266 0.14178 0.9485 0.0
H980 H 0.006 0.18176 0.03699 0.0
H981 H 0.99618 0.1889 0.89152 0.0
C982 C 0.01295 0.17335 0.75164 0.0
C983 C 0.02292 0.16393 0.68399 0.0
C984 C 0.0188 0.16959 0.8354 0.0
C985 C 0.0392 0.15102 0.70112 0.0
C986 C 0.0452 0.14729 0.7843 0.0
C987 C 0.04048 0.15219 0.93588 0.0
C988 C 0.02998 0.16103 1.00357 0.0
C989 C 0.03498 0.15635 0.85196 0.0
C990 C 0.01408 0.17438 0.98621 0.0
C991 C 0.00855 0.17862 0.90296 0.0
H992 H 0.34018 0.99244 0.25383 0.0
H993 H 0.31919 0.0513 0.18205 0.0
H994 H 0.32214 0.06273 0.32891 0.0
H995 H 0.33041 0.05572 0.47788 0.0
H996 H 0.35185 0.99683 0.54774 0.0
H997 H 0.34865 0.98553 0.40148 0.0
C998 C 0.336 0.00768 0.27051 0.0
C999 C 0.32938 0.02097 0.20743 0.0
C1000 C 0.33779 0.01411 0.35463 0.0
C1001 C 0.32446 0.04084 0.22957 0.0
C1002 C 0.32608 0.04735 0.31345 0.0
C1003 C 0.33456 0.0405 0.46092 0.0
C1004 C 0.34124 0.02711 0.52371 0.0
C1005 C 0.33279 0.03412 0.37648 0.0
C1006 C 0.34634 0.00733 0.50086 0.0
C1007 C 0.34462 0.00088 0.41719 0.0
H1008 H 0.50319 0.31072 0.77065 0.0
H1009 H 0.4532 0.34658 0.68353 0.0
H1010 H 0.44226 0.35193 0.8285 0.0
H1011 H 0.44787 0.34801 0.98081 0.0
H1012 H 0.4975 0.31174 0.06866 0.0
H1013 H 0.50779 0.30534 0.92314 0.0
C1014 C 0.48995 0.31974 0.78345 0.0
C1015 C 0.47919 0.32834 0.71606 0.0
C1016 C 0.48375 0.32287 0.86733 0.0
C1017 C 0.46178 0.33966 0.73372 0.0
C1018 C 0.45553 0.34285 0.81689 0.0
C1019 C 0.46078 0.33851 0.96809 0.0
C1020 C 0.47203 0.33066 0.03563 0.0
C1021 C 0.46653 0.33471 0.8842 0.0
C1022 C 0.48884 0.31846 0.01808 0.0
C1023 C 0.49466 0.31462 0.93475 0.0
H1024 H 0.16451 0.45017 0.1636 0.0
H1025 H 0.1547 0.51397 0.18703 0.0
H1026 H 0.1509 0.51067 0.33991 0.0
H1027 H 0.15019 0.48969 0.46885 0.0
H1028 H 0.16051 0.42592 0.44581 0.0
H1029 H 0.16408 0.42919 0.29303 0.0
C1030 C 0.16139 0.46331 0.20211 0.0
C1031 C 0.16005 0.4823 0.16317 0.0
C1032 C 0.15931 0.46134 0.29102 0.0
C1033 C 0.15615 0.49918 0.21476 0.0
C1034 C 0.15389 0.49732 0.30259 0.0
C1035 C 0.15341 0.47654 0.4306 0.0
C1036 C 0.15488 0.45757 0.46982 0.0
C1037 C 0.15555 0.4785 0.34176 0.0
C1038 C 0.1589 0.4407 0.41824 0.0
C1039 C 0.16106 0.44255 0.33031 0.0
H1040 H 0.9403 0.66469 0.43922 0.0
H1041 H 0.99883 0.64223 0.51088 0.0
H1042 H 0.01034 0.64512 0.36484 0.0
H1043 H 0.00372 0.65364 0.21696 0.0
H1044 H 0.94522 0.67565 0.14341 0.0
H1045 H 0.93357 0.67296 0.29 0.0
C1046 C 0.95549 0.66022 0.42275 0.0
C1047 C 0.9687 0.65333 0.48608 0.0
C1048 C 0.96199 0.66183 0.33842 0.0
C1049 C 0.98845 0.64787 0.46373 0.0
C1050 C 0.99502 0.64942 0.38013 0.0
C1051 C 0.98851 0.65812 0.23313 0.0
C1052 C 0.97541 0.66498 0.16953 0.0
C1053 C 0.98195 0.65647 0.31713 0.0
C1054 C 0.95557 0.67024 0.19118 0.0
C1055 C 0.94893 0.66875 0.27496 0.0
H1056 H 0.85599 0.94253 0.94359 0.0
H1057 H 0.81854 0.99131 0.03104 0.0
H1058 H 0.81281 0.00197 0.88553 0.0
H1059 H 0.81881 0.99777 0.73333 0.0
H1060 H 0.85642 0.94915 0.64561 0.0
H1061 H 0.86125 0.93777 0.79086 0.0
C1062 C 0.84642 0.95535 0.9307 0.0
C1063 C 0.8379 0.9662 0.99818 0.0
C1064 C 0.84309 0.96137 0.84672 0.0
C1065 C 0.82566 0.98293 0.98048 0.0
C1066 C 0.82223 0.98896 0.89718 0.0
C1067 C 0.82808 0.98472 0.74612 0.0
C1068 C 0.83716 0.97433 0.67876 0.0
C1069 C 0.831 0.97839 0.82988 0.0
C1070 C 0.84895 0.95725 0.69613 0.0
C1071 C 0.85188 0.95082 0.7793 0.0
H1072 H 0.55868 0.84122 0.42026 0.0
H1073 H 0.49637 0.84913 0.49086 0.0
H1074 H 0.48603 0.84278 0.34513 0.0
H1075 H 0.49467 0.83554 0.19724 0.0
H1076 H 0.55691 0.82883 0.12514 0.0
H1077 H 0.56737 0.8345 0.27186 0.0
C1078 C 0.54286 0.84181 0.4038 0.0
C1079 C 0.52835 0.8456 0.46684 0.0
C1080 C 0.53701 0.83835 0.31961 0.0
C1081 C 0.50787 0.84597 0.44415 0.0
C1082 C 0.50193 0.84243 0.36066 0.0
C1083 C 0.51049 0.83504 0.21396 0.0
C1084 C 0.52499 0.83163 0.15074 0.0
C1085 C 0.51636 0.83854 0.298 0.0
C1086 C 0.54549 0.83151 0.17276 0.0
C1087 C 0.55146 0.83472 0.25656 0.0
H1088 H 0.65937 0.55755 0.96252 0.0
H1089 H 0.6509 0.49562 0.03522 0.0
H1090 H 0.65685 0.4849 0.8898 0.0
H1091 H 0.66399 0.49307 0.74134 0.0
H1092 H 0.67118 0.55492 0.66692 0.0
H1093 H 0.66591 0.56577 0.81342 0.0
C1094 C 0.65859 0.54174 0.94656 0.0
C1095 C 0.65479 0.52744 1.01023 0.0
C1096 C 0.66182 0.53566 0.86241 0.0
C1097 C 0.65412 0.50696 0.98812 0.0
C1098 C 0.65743 0.5008 0.90475 0.0
C1099 C 0.66465 0.50889 0.75754 0.0
C1100 C 0.66808 0.52316 0.69371 0.0
C1101 C 0.66136 0.515 0.8415 0.0
C1102 C 0.66846 0.54367 0.71502 0.0
C1103 C 0.66549 0.54987 0.79871 0.0
H1104 H 0.99059 0.81692 0.30502 0.0
H1105 H 0.94886 0.86277 0.38612 0.0
H1106 H 0.938 0.86781 0.24023 0.0
H1107 H 0.94144 0.8602 0.08895 0.0
H1108 H 0.98355 0.81479 1.00753 0.0
H1109 H 0.99348 0.80877 0.15415 0.0
C1110 C 0.97922 0.82808 0.2906 0.0
C1111 C 0.97057 0.83943 0.35612 0.0
C1112 C 0.97321 0.83106 0.2066 0.0
C1113 C 0.95558 0.85364 0.33688 0.0
C1114 C 0.94944 0.85663 0.25345 0.0
C1115 C 0.9526 0.84884 0.10363 0.0
C1116 C 0.96186 0.83808 0.03788 0.0
C1117 C 0.95825 0.84551 0.18782 0.0
C1118 C 0.97648 0.82352 0.0572 0.0
C1119 C 0.98208 0.82 0.14092 0.0
H1120 H 0.66191 0.94573 0.85906 0.0
H1121 H 0.66113 0.01017 0.83161 0.0
H1122 H 0.6573 0.00675 0.67879 0.0
H1123 H 0.65387 0.98551 0.55093 0.0
H1124 H 0.65554 0.92101 0.57855 0.0
H1125 H 0.659 0.92449 0.73091 0.0
C1126 C 0.6608 0.95902 0.81978 0.0
C1127 C 0.662 0.97818 0.85776 0.0
C1128 C 0.65865 0.95698 0.73083 0.0
C1129 C 0.66064 0.9952 0.80487 0.0
C1130 C 0.65833 0.99328 0.71698 0.0
C1131 C 0.65514 0.9722 0.58995 0.0
C1132 C 0.65415 0.95302 0.55172 0.0
C1133 C 0.65738 0.97425 0.67888 0.0
C1134 C 0.65575 0.93602 0.60478 0.0
C1135 C 0.65789 0.93796 0.69271 0.0
H1136 H 0.50674 0.64786 0.97471 0.0
H1137 H 0.56576 0.67446 0.99646 0.0
H1138 H 0.5619 0.67693 0.1493 0.0
H1139 H 0.54165 0.6719 0.27908 0.0
H1140 H 0.48234 0.64614 0.25732 0.0
H1141 H 0.48637 0.64314 0.10419 0.0
C1142 C 0.51868 0.65436 1.01271 0.0
C1143 C 0.53659 0.66075 0.9731 0.0
C1144 C 0.51634 0.65589 0.10159 0.0
C1145 C 0.55194 0.669 0.02433 0.0
C1146 C 0.54972 0.67053 0.11229 0.0
C1147 C 0.52971 0.66548 0.24082 0.0
C1148 C 0.51169 0.65935 0.28009 0.0
C1149 C 0.53204 0.66395 0.15194 0.0
C1150 C 0.49628 0.65124 0.22906 0.0
C1151 C 0.49858 0.64945 0.1412 0.0
H1152 H 0.84891 0.50491 0.54495 0.0
H1153 H 0.83661 0.56826 0.57211 0.0
H1154 H 0.83357 0.56442 0.72459 0.0
H1155 H 0.8341 0.54309 0.85288 0.0
H1156 H 0.84576 0.47968 0.82552 0.0
H1157 H 0.84904 0.48354 0.67281 0.0
C1158 C 0.84541 0.51786 0.58395 0.0
C1159 C 0.84326 0.53689 0.54573 0.0
C1160 C 0.84348 0.51557 0.67282 0.0
C1161 C 0.83882 0.55346 0.59858 0.0
C1162 C 0.83693 0.55128 0.68649 0.0
C1163 C 0.83746 0.53015 0.81363 0.0
C1164 C 0.83948 0.51109 0.8516 0.0
C1165 C 0.8393 0.53243 0.72469 0.0
C1166 C 0.84373 0.4945 0.79878 0.0
C1167 C 0.84573 0.49669 0.71094 0.0
loop_
_geom_bond_atom_site_label_1
_geom_bond_atom_site_label_2
_geom_bond_distance
_geom_bond_site_symmetry_2
_ccdc_geom_bond_type
Co0 N4 2.148 . S
Co0 N10 2.128 . S
Co0 N20 2.194 . S
Co0 O25 2.351 . S
Co0 O26 2.155 . S
Co0 O27 2.096 . S
C1 N4 1.301 . S
C1 N5 1.328 . S
C1 H6 0.930 . S
C2 C3 1.333 . S
C2 N4 1.317 . S
C2 H7 0.930 . S
C3 C2 1.333 . S
C3 N5 1.350 . S
C3 H29 0.931 . S
N4 Co0 2.148 . S
N4 C1 1.301 . S
N4 C2 1.317 . S
N5 C1 1.328 . S
N5 C3 1.350 . S
H6 C1 0.930 . S
H7 C2 0.930 . S
C8 O9 1.224 . S
C8 O27 1.247 . S
O9 C8 1.224 . S
N10 Co0 2.128 . S
N10 C11 1.355 1_554 S
N10 C13 1.311 1_554 S
C11 N10 1.355 1_556 S
C11 C12 1.363 . S
C11 H23 0.929 1_456 S
C12 C11 1.363 . S
C12 N14 1.375 . S
C12 H30 0.931 1_455 S
C13 N10 1.311 1_556 S
C13 N14 1.347 . S
C13 H24 0.929 . S
N14 C12 1.375 . S
N14 C13 1.347 . S
C15 C18 1.365 . S
C15 N20 1.328 1_655 S
C15 H21 0.929 . S
C16 C17 1.362 . S
C16 C19 1.348 1_655 S
C16 H31 0.929 . S
C17 C16 1.362 . S
C17 C18 1.366 . S
C18 C15 1.365 . S
C18 C17 1.366 . S
C18 H32 0.930 . S
C19 C16 1.348 1_455 S
C19 N20 1.316 . S
C19 H22 0.962 . S
N20 Co0 2.194 . S
N20 C15 1.328 1_455 S
N20 C19 1.316 . S
H21 C15 0.929 . S
H22 C19 0.962 . S
H23 C11 0.929 1_654 S
H24 C13 0.929 . S
O25 Co0 2.351 . S
O25 C28 1.244 . S
O26 Co0 2.155 . S
O26 C28 1.240 . S
O27 Co0 2.096 . S
O27 C8 1.247 . S
C28 O25 1.244 . S
C28 O26 1.240 . S
H29 C3 0.931 . S
H30 C12 0.931 1_655 S
H31 C16 0.929 . S
H32 C18 0.930 . S
Co33 N37 2.148 . S
Co33 N43 2.128 . S
Co33 N53 2.194 . S
Co33 O58 2.351 . S
Co33 O59 2.155 . S
Co33 O60 2.096 . S
C34 N37 1.301 . S
C34 N38 1.328 . S
C34 H39 0.930 . S
C35 C36 1.333 . S
C35 N37 1.317 . S
C35 H40 0.930 . S
C36 C35 1.333 . S
C36 N38 1.350 . S
C36 H62 0.931 . S
N37 Co33 2.148 . S
N37 C34 1.301 . S
N37 C35 1.317 . S
N38 C34 1.328 . S
N38 C36 1.350 . S
H39 C34 0.930 . S
H40 C35 0.930 . S
C41 O42 1.224 . S
C41 O60 1.247 . S
O42 C41 1.224 . S
N43 Co33 2.128 . S
N43 C44 1.355 . S
N43 C46 1.311 . S
C44 N43 1.355 . S
C44 C45 1.363 . S
C44 H56 0.929 1_545 S
C45 C44 1.363 . S
C45 N47 1.375 . S
C45 H63 0.931 1_545 S
C46 N43 1.311 . S
C46 N47 1.347 . S
C46 H57 0.929 . S
N47 C45 1.375 . S
N47 C46 1.347 . S
C48 C51 1.365 . S
C48 N53 1.328 1_565 S
C48 H54 0.929 . S
C49 C50 1.362 . S
C49 C52 1.348 1_565 S
C49 H64 0.929 . S
C50 C49 1.362 . S
C50 C51 1.366 . S
C51 C48 1.365 . S
C51 C50 1.366 . S
C51 H65 0.930 . S
C52 C49 1.348 1_545 S
C52 N53 1.316 . S
C52 H55 0.962 . S
N53 Co33 2.194 . S
N53 C48 1.328 1_545 S
N53 C52 1.316 . S
H54 C48 0.929 . S
H55 C52 0.962 . S
H56 C44 0.929 1_565 S
H57 C46 0.929 . S
O58 Co33 2.351 . S
O58 C61 1.244 . S
O59 Co33 2.155 . S
O59 C61 1.240 . S
O60 Co33 2.096 . S
O60 C41 1.247 . S
C61 O58 1.244 . S
C61 O59 1.240 . S
H62 C36 0.931 . S
H63 C45 0.931 1_565 S
H64 C49 0.929 . S
H65 C51 0.930 . S
Co66 N70 2.148 . S
Co66 N76 2.128 . S
Co66 N86 2.194 . S
Co66 O91 2.351 . S
Co66 O92 2.155 . S
Co66 O93 2.096 . S
C67 N70 1.301 . S
C67 N71 1.328 . S
C67 H72 0.930 . S
C68 C69 1.333 . S
C68 N70 1.317 . S
C68 H73 0.930 . S
C69 C68 1.333 . S
C69 N71 1.350 . S
C69 H95 0.931 . S
N70 Co66 2.148 . S
N70 C67 1.301 . S
N70 C68 1.317 . S
N71 C67 1.328 . S
N71 C69 1.350 . S
H72 C67 0.930 . S
H73 C68 0.930 . S
C74 O75 1.224 . S
C74 O93 1.247 . S
O75 C74 1.224 . S
N76 Co66 2.128 . S
N76 C77 1.355 1_554 S
N76 C79 1.311 1_554 S
C77 N76 1.355 1_556 S
C77 C78 1.363 . S
C77 H89 0.929 1_556 S
C78 C77 1.363 . S
C78 N80 1.375 . S
C78 H96 0.931 . S
C79 N76 1.311 1_556 S
C79 N80 1.347 . S
C79 H90 0.929 . S
N80 C78 1.375 . S
N80 C79 1.347 . S
C81 C84 1.365 . S
C81 N86 1.328 . S
C81 H87 0.929 . S
C82 C83 1.362 . S
C82 C85 1.378 . S
C82 H97 0.929 . S
C83 C82 1.362 . S
C83 C84 1.366 . S
C84 C81 1.365 . S
C84 C83 1.366 . S
C84 H98 0.930 . S
C85 C82 1.378 . S
C85 N86 1.315 . S
C85 H88 0.930 . S
N86 Co66 2.194 . S
N86 C81 1.328 . S
N86 C85 1.315 . S
H87 C81 0.929 . S
H88 C85 0.930 . S
H89 C77 0.929 1_554 S
H90 C79 0.929 . S
O91 Co66 2.351 . S
O91 C94 1.244 . S
O92 Co66 2.155 . S
O92 C94 1.240 . S
O93 Co66 2.096 . S
O93 C74 1.247 . S
C94 O91 1.244 . S
C94 O92 1.240 . S
H95 C69 0.931 . S
H96 C78 0.931 . S
H97 C82 0.929 . S
H98 C84 0.930 . S
Co99 N103 2.148 . S
Co99 N109 2.128 . S
Co99 N119 2.194 . S
Co99 O124 2.351 . S
Co99 O125 2.155 . S
Co99 O126 2.096 . S
C100 N103 1.301 . S
C100 N104 1.328 . S
C100 H105 0.930 . S
C101 C102 1.333 . S
C101 N103 1.317 . S
C101 H106 0.930 . S
C102 C101 1.333 . S
C102 N104 1.350 . S
C102 H128 0.931 . S
N103 Co99 2.148 . S
N103 C100 1.301 . S
N103 C101 1.317 . S
N104 C100 1.328 . S
N104 C102 1.350 . S
H105 C100 0.930 . S
H106 C101 0.930 . S
C107 O108 1.224 . S
C107 O126 1.247 . S
O108 C107 1.224 . S
N109 Co99 2.128 . S
N109 C110 1.355 . S
N109 C112 1.311 . S
C110 N109 1.355 . S
C110 C111 1.363 . S
C110 H122 0.929 . S
C111 C110 1.363 . S
C111 N113 1.375 . S
C111 H129 0.931 . S
C112 N109 1.311 . S
C112 N113 1.347 . S
C112 H123 0.929 . S
N113 C111 1.375 . S
N113 C112 1.347 . S
C114 C117 1.365 . S
C114 N119 1.328 . S
C114 H120 0.929 . S
C115 C116 1.362 . S
C115 C118 1.378 . S
C115 H130 0.929 . S
C116 C115 1.362 . S
C116 C117 1.366 . S
C117 C114 1.365 . S
C117 C116 1.366 . S
C117 H131 0.930 . S
C118 C115 1.378 . S
C118 N119 1.315 . S
C118 H121 0.930 . S
N119 Co99 2.194 . S
N119 C114 1.328 . S
N119 C118 1.315 . S
H120 C114 0.929 . S
H121 C118 0.930 . S
H122 C110 0.929 . S
H123 C112 0.929 . S
O124 Co99 2.351 . S
O124 C127 1.244 . S
O125 Co99 2.155 . S
O125 C127 1.240 . S
O126 Co99 2.096 . S
O126 C107 1.247 . S
C127 O124 1.244 . S
C127 O125 1.240 . S
H128 C102 0.931 . S
H129 C111 0.931 . S
H130 C115 0.929 . S
H131 C117 0.930 . S
Co132 N136 2.148 . S
Co132 N142 2.128 . S
Co132 N152 2.194 . S
Co132 O157 2.351 . S
Co132 O158 2.155 . S
Co132 O159 2.096 . S
C133 N136 1.301 . S
C133 N137 1.328 . S
C133 H138 0.930 . S
C134 C135 1.333 . S
C134 N136 1.317 . S
C134 H139 0.930 . S
C135 C134 1.333 . S
C135 N137 1.350 . S
C135 H161 0.931 . S
N136 Co132 2.148 . S
N136 C133 1.301 . S
N136 C134 1.317 . S
N137 C133 1.328 . S
N137 C135 1.350 . S
H138 C133 0.930 . S
H139 C134 0.930 . S
C140 O141 1.224 . S
C140 O159 1.247 . S
O141 C140 1.224 . S
N142 Co132 2.128 . S
N142 C143 1.355 . S
N142 C145 1.311 . S
C143 N142 1.355 . S
C143 C144 1.363 . S
C143 H155 0.929 1_455 S
C144 C143 1.363 . S
C144 N146 1.375 . S
C144 H162 0.931 1_455 S
C145 N142 1.311 . S
C145 N146 1.347 . S
C145 H156 0.929 . S
N146 C144 1.375 . S
N146 C145 1.347 . S
C147 C150 1.365 . S
C147 N152 1.328 1_655 S
C147 H153 0.929 . S
C148 C149 1.362 . S
C148 C151 1.348 1_655 S
C148 H163 0.929 . S
C149 C148 1.362 . S
C149 C150 1.366 . S
C150 C147 1.365 . S
C150 C149 1.366 . S
C150 H164 0.930 . S
C151 C148 1.348 1_455 S
C151 N152 1.316 . S
C151 H154 0.962 . S
N152 Co132 2.194 . S
N152 C147 1.328 1_455 S
N152 C151 1.316 . S
H153 C147 0.929 . S
H154 C151 0.962 . S
H155 C143 0.929 1_655 S
H156 C145 0.929 . S
O157 Co132 2.351 . S
O157 C160 1.244 . S
O158 Co132 2.155 . S
O158 C160 1.240 . S
O159 Co132 2.096 . S
O159 C140 1.247 . S
C160 O157 1.244 . S
C160 O158 1.240 . S
H161 C135 0.931 . S
H162 C144 0.931 1_655 S
H163 C148 0.929 . S
H164 C150 0.930 . S
Co165 N169 2.148 . S
Co165 N175 2.128 . S
Co165 N185 2.194 . S
Co165 O190 2.351 . S
Co165 O191 2.155 . S
Co165 O192 2.096 . S
C166 N169 1.301 . S
C166 N170 1.328 . S
C166 H171 0.930 . S
C167 C168 1.333 . S
C167 N169 1.317 . S
C167 H172 0.930 . S
C168 C167 1.333 . S
C168 N170 1.350 . S
C168 H194 0.931 . S
N169 Co165 2.148 . S
N169 C166 1.301 . S
N169 C167 1.317 . S
N170 C166 1.328 . S
N170 C168 1.350 . S
H171 C166 0.930 . S
H172 C167 0.930 . S
C173 O174 1.224 . S
C173 O192 1.247 . S
O174 C173 1.224 . S
N175 Co165 2.128 . S
N175 C176 1.355 1_556 S
N175 C178 1.311 1_556 S
C176 N175 1.355 1_554 S
C176 C177 1.363 . S
C176 H188 0.929 1_544 S
C177 C176 1.363 . S
C177 N179 1.375 . S
C177 H195 0.931 1_545 S
C178 N175 1.311 1_554 S
C178 N179 1.347 . S
C178 H189 0.929 . S
N179 C177 1.375 . S
N179 C178 1.347 . S
C180 C183 1.365 . S
C180 N185 1.328 1_565 S
C180 H186 0.929 . S
C181 C182 1.362 . S
C181 C184 1.348 1_565 S
C181 H196 0.929 . S
C182 C181 1.362 . S
C182 C183 1.366 . S
C183 C180 1.365 . S
C183 C182 1.366 . S
C183 H197 0.930 . S
C184 C181 1.348 1_545 S
C184 N185 1.316 . S
C184 H187 0.962 . S
N185 Co165 2.194 . S
N185 C180 1.328 1_545 S
N185 C184 1.316 . S
H186 C180 0.929 . S
H187 C184 0.962 . S
H188 C176 0.929 1_566 S
H189 C178 0.929 . S
O190 Co165 2.351 . S
O190 C193 1.244 . S
O191 Co165 2.155 . S
O191 C193 1.240 . S
O192 Co165 2.096 . S
O192 C173 1.247 . S
C193 O190 1.244 . S
C193 O191 1.240 . S
H194 C168 0.931 . S
H195 C177 0.931 1_565 S
H196 C181 0.929 . S
H197 C183 0.930 . S
Co198 N202 2.148 . S
Co198 N208 2.128 . S
Co198 N218 2.194 . S
Co198 O223 2.351 . S
Co198 O224 2.155 . S
Co198 O225 2.096 . S
C199 N202 1.301 . S
C199 N203 1.328 . S
C199 H204 0.930 . S
C200 C201 1.333 . S
C200 N202 1.317 . S
C200 H205 0.930 . S
C201 C200 1.333 . S
C201 N203 1.350 . S
C201 H227 0.931 . S
N202 Co198 2.148 . S
N202 C199 1.301 . S
N202 C200 1.317 . S
N203 C199 1.328 . S
N203 C201 1.350 . S
H204 C199 0.930 . S
H205 C200 0.930 . S
C206 O207 1.224 . S
C206 O225 1.247 . S
O207 C206 1.224 . S
N208 Co198 2.128 . S
N208 C209 1.355 . S
N208 C211 1.311 . S
C209 N208 1.355 . S
C209 C210 1.363 . S
C209 H221 0.929 . S
C210 C209 1.363 . S
C210 N212 1.375 . S
C210 H228 0.931 . S
C211 N208 1.311 . S
C211 N212 1.347 . S
C211 H222 0.929 . S
N212 C210 1.375 . S
N212 C211 1.347 . S
C213 C216 1.365 . S
C213 N218 1.328 . S
C213 H219 0.929 . S
C214 C215 1.362 . S
C214 C217 1.378 . S
C214 H229 0.929 . S
C215 C214 1.362 . S
C215 C216 1.366 . S
C216 C213 1.365 . S
C216 C215 1.366 . S
C216 H230 0.930 . S
C217 C214 1.378 . S
C217 N218 1.315 . S
C217 H220 0.930 . S
N218 Co198 2.194 . S
N218 C213 1.328 . S
N218 C217 1.315 . S
H219 C213 0.929 . S
H220 C217 0.930 . S
H221 C209 0.929 . S
H222 C211 0.929 . S
O223 Co198 2.351 . S
O223 C226 1.244 . S
O224 Co198 2.155 . S
O224 C226 1.240 . S
O225 Co198 2.096 . S
O225 C206 1.247 . S
C226 O223 1.244 . S
C226 O224 1.240 . S
H227 C201 0.931 . S
H228 C210 0.931 . S
H229 C214 0.929 . S
H230 C216 0.930 . S
Co231 N235 2.148 . S
Co231 N241 2.128 . S
Co231 N251 2.194 . S
Co231 O256 2.351 . S
Co231 O257 2.155 . S
Co231 O258 2.096 . S
C232 N235 1.301 . S
C232 N236 1.328 . S
C232 H237 0.930 . S
C233 C234 1.333 . S
C233 N235 1.317 . S
C233 H238 0.930 . S
C234 C233 1.333 . S
C234 N236 1.350 . S
C234 H260 0.931 . S
N235 Co231 2.148 . S
N235 C232 1.301 . S
N235 C233 1.317 . S
N236 C232 1.328 . S
N236 C234 1.350 . S
H237 C232 0.930 . S
H238 C233 0.930 . S
C239 O240 1.224 . S
C239 O258 1.247 . S
O240 C239 1.224 . S
N241 Co231 2.128 . S
N241 C242 1.355 1_556 S
N241 C244 1.311 1_556 S
C242 N241 1.355 1_554 S
C242 C243 1.363 . S
C242 H254 0.929 1_554 S
C243 C242 1.363 . S
C243 N245 1.375 . S
C243 H261 0.931 . S
C244 N241 1.311 1_554 S
C244 N245 1.347 . S
C244 H255 0.929 . S
N245 C243 1.375 . S
N245 C244 1.347 . S
C246 C249 1.365 . S
C246 N251 1.328 . S
C246 H252 0.929 . S
C247 C248 1.362 . S
C247 C250 1.378 . S
C247 H262 0.929 . S
C248 C247 1.362 . S
C248 C249 1.366 . S
C249 C246 1.365 . S
C249 C248 1.366 . S
C249 H263 0.930 . S
C250 C247 1.378 . S
C250 N251 1.315 . S
C250 H253 0.930 . S
N251 Co231 2.194 . S
N251 C246 1.328 . S
N251 C250 1.315 . S
H252 C246 0.929 . S
H253 C250 0.930 . S
H254 C242 0.929 1_556 S
H255 C244 0.929 . S
O256 Co231 2.351 . S
O256 C259 1.244 . S
O257 Co231 2.155 . S
O257 C259 1.240 . S
O258 Co231 2.096 . S
O258 C239 1.247 . S
C259 O256 1.244 . S
C259 O257 1.240 . S
H260 C234 0.931 . S
H261 C243 0.931 . S
H262 C247 0.929 . S
H263 C249 0.930 . S
Co264 N268 2.148 . S
Co264 N274 2.128 . S
Co264 N284 2.194 . S
Co264 O289 2.351 . S
Co264 O290 2.155 . S
Co264 O291 2.096 . S
C265 N268 1.301 . S
C265 N269 1.328 . S
C265 H270 0.930 . S
C266 C267 1.333 . S
C266 N268 1.317 . S
C266 H271 0.930 . S
C267 C266 1.333 . S
C267 N269 1.350 . S
C267 H293 0.931 . S
N268 Co264 2.148 . S
N268 C265 1.301 . S
N268 C266 1.317 . S
N269 C265 1.328 . S
N269 C267 1.350 . S
H270 C265 0.930 . S
H271 C266 0.930 . S
C272 O273 1.224 . S
C272 O291 1.247 . S
O273 C272 1.224 . S
N274 Co264 2.128 . S
N274 C275 1.355 1_556 S
N274 C277 1.311 1_556 S
C275 N274 1.355 1_554 S
C275 C276 1.363 . S
C275 H287 0.929 1_654 S
C276 C275 1.363 . S
C276 N278 1.375 . S
C276 H294 0.931 1_655 S
C277 N274 1.311 1_554 S
C277 N278 1.347 . S
C277 H288 0.929 . S
N278 C276 1.375 . S
N278 C277 1.347 . S
C279 C282 1.365 . S
C279 N284 1.328 1_455 S
C279 H285 0.929 . S
C280 C281 1.362 . S
C280 C283 1.348 1_455 S
C280 H295 0.929 . S
C281 C280 1.362 . S
C281 C282 1.366 . S
C282 C279 1.365 . S
C282 C281 1.366 . S
C282 H296 0.930 . S
C283 C280 1.348 1_655 S
C283 N284 1.316 . S
C283 H286 0.962 . S
N284 Co264 2.194 . S
N284 C279 1.328 1_655 S
N284 C283 1.316 . S
H285 C279 0.929 . S
H286 C283 0.962 . S
H287 C275 0.929 1_456 S
H288 C277 0.929 . S
O289 Co264 2.351 . S
O289 C292 1.244 . S
O290 Co264 2.155 . S
O290 C292 1.240 . S
O291 Co264 2.096 . S
O291 C272 1.247 . S
C292 O289 1.244 . S
C292 O290 1.240 . S
H293 C267 0.931 . S
H294 C276 0.931 1_455 S
H295 C280 0.929 . S
H296 C282 0.930 . S
Co297 N301 2.148 . S
Co297 N307 2.128 . S
Co297 N317 2.194 . S
Co297 O322 2.351 . S
Co297 O323 2.155 . S
Co297 O324 2.096 . S
C298 N301 1.301 . S
C298 N302 1.328 . S
C298 H303 0.930 . S
C299 C300 1.333 . S
C299 N301 1.317 . S
C299 H304 0.930 . S
C300 C299 1.333 . S
C300 N302 1.350 . S
C300 H326 0.931 . S
N301 Co297 2.148 . S
N301 C298 1.301 . S
N301 C299 1.317 . S
N302 C298 1.328 . S
N302 C300 1.350 . S
H303 C298 0.930 . S
H304 C299 0.930 . S
C305 O306 1.224 . S
C305 O324 1.247 . S
O306 C305 1.224 . S
N307 Co297 2.128 . S
N307 C308 1.355 . S
N307 C310 1.311 . S
C308 N307 1.355 . S
C308 C309 1.363 . S
C308 H320 0.929 1_565 S
C309 C308 1.363 . S
C309 N311 1.375 . S
C309 H327 0.931 1_565 S
C310 N307 1.311 . S
C310 N311 1.347 . S
C310 H321 0.929 . S
N311 C309 1.375 . S
N311 C310 1.347 . S
C312 C315 1.365 . S
C312 N317 1.328 1_545 S
C312 H318 0.929 . S
C313 C314 1.362 . S
C313 C316 1.348 1_545 S
C313 H328 0.929 . S
C314 C313 1.362 . S
C314 C315 1.366 . S
C315 C312 1.365 . S
C315 C314 1.366 . S
C315 H329 0.930 . S
C316 C313 1.348 1_565 S
C316 N317 1.316 . S
C316 H319 0.962 . S
N317 Co297 2.194 . S
N317 C312 1.328 1_565 S
N317 C316 1.316 . S
H318 C312 0.929 . S
H319 C316 0.962 . S
H320 C308 0.929 1_545 S
H321 C310 0.929 . S
O322 Co297 2.351 . S
O322 C325 1.244 . S
O323 Co297 2.155 . S
O323 C325 1.240 . S
O324 Co297 2.096 . S
O324 C305 1.247 . S
C325 O322 1.244 . S
C325 O323 1.240 . S
H326 C300 0.931 . S
H327 C309 0.931 1_545 S
H328 C313 0.929 . S
H329 C315 0.930 . S
Co330 N334 2.148 . S
Co330 N340 2.128 . S
Co330 N350 2.194 . S
Co330 O355 2.351 . S
Co330 O356 2.155 . S
Co330 O357 2.096 . S
C331 N334 1.301 . S
C331 N335 1.328 . S
C331 H336 0.930 . S
C332 C333 1.333 . S
C332 N334 1.317 . S
C332 H337 0.930 . S
C333 C332 1.333 . S
C333 N335 1.350 . S
C333 H359 0.931 . S
N334 Co330 2.148 . S
N334 C331 1.301 . S
N334 C332 1.317 . S
N335 C331 1.328 . S
N335 C333 1.350 . S
H336 C331 0.930 . S
H337 C332 0.930 . S
C338 O339 1.224 . S
C338 O357 1.247 . S
O339 C338 1.224 . S
N340 Co330 2.128 . S
N340 C341 1.355 1_556 S
N340 C343 1.311 1_556 S
C341 N340 1.355 1_554 S
C341 C342 1.363 . S
C341 H353 0.929 1_554 S
C342 C341 1.363 . S
C342 N344 1.375 . S
C342 H360 0.931 . S
C343 N340 1.311 1_554 S
C343 N344 1.347 . S
C343 H354 0.929 . S
N344 C342 1.375 . S
N344 C343 1.347 . S
C345 C348 1.365 . S
C345 N350 1.328 . S
C345 H351 0.929 . S
C346 C347 1.362 . S
C346 C349 1.378 . S
C346 H361 0.929 . S
C347 C346 1.362 . S
C347 C348 1.366 . S
C348 C345 1.365 . S
C348 C347 1.366 . S
C348 H362 0.930 . S
C349 C346 1.378 . S
C349 N350 1.315 . S
C349 H352 0.930 . S
N350 Co330 2.194 . S
N350 C345 1.328 . S
N350 C349 1.315 . S
H351 C345 0.929 . S
H352 C349 0.930 . S
H353 C341 0.929 1_556 S
H354 C343 0.929 . S
O355 Co330 2.351 . S
O355 C358 1.244 . S
O356 Co330 2.155 . S
O356 C358 1.240 . S
O357 Co330 2.096 . S
O357 C338 1.247 . S
C358 O355 1.244 . S
C358 O356 1.240 . S
H359 C333 0.931 . S
H360 C342 0.931 . S
H361 C346 0.929 . S
H362 C348 0.930 . S
Co363 N367 2.148 . S
Co363 N373 2.128 . S
Co363 N383 2.194 . S
Co363 O388 2.351 . S
Co363 O389 2.155 . S
Co363 O390 2.096 . S
C364 N367 1.301 . S
C364 N368 1.328 . S
C364 H369 0.930 . S
C365 C366 1.333 . S
C365 N367 1.317 . S
C365 H370 0.930 . S
C366 C365 1.333 . S
C366 N368 1.350 . S
C366 H392 0.931 . S
N367 Co363 2.148 . S
N367 C364 1.301 . S
N367 C365 1.317 . S
N368 C364 1.328 . S
N368 C366 1.350 . S
H369 C364 0.930 . S
H370 C365 0.930 . S
C371 O372 1.224 . S
C371 O390 1.247 . S
O372 C371 1.224 . S
N373 Co363 2.128 . S
N373 C374 1.355 . S
N373 C376 1.311 . S
C374 N373 1.355 . S
C374 C375 1.363 . S
C374 H386 0.929 . S
C375 C374 1.363 . S
C375 N377 1.375 . S
C375 H393 0.931 . S
C376 N373 1.311 . S
C376 N377 1.347 . S
C376 H387 0.929 . S
N377 C375 1.375 . S
N377 C376 1.347 . S
C378 C381 1.365 . S
C378 N383 1.328 . S
C378 H384 0.929 . S
C379 C380 1.362 . S
C379 C382 1.378 . S
C379 H394 0.929 . S
C380 C379 1.362 . S
C380 C381 1.366 . S
C381 C378 1.365 . S
C381 C380 1.366 . S
C381 H395 0.930 . S
C382 C379 1.378 . S
C382 N383 1.315 . S
C382 H385 0.930 . S
N383 Co363 2.194 . S
N383 C378 1.328 . S
N383 C382 1.315 . S
H384 C378 0.929 . S
H385 C382 0.930 . S
H386 C374 0.929 . S
H387 C376 0.929 . S
O388 Co363 2.351 . S
O388 C391 1.244 . S
O389 Co363 2.155 . S
O389 C391 1.240 . S
O390 Co363 2.096 . S
O390 C371 1.247 . S
C391 O388 1.244 . S
C391 O389 1.240 . S
H392 C366 0.931 . S
H393 C375 0.931 . S
H394 C379 0.929 . S
H395 C381 0.930 . S
Co396 N400 2.148 . S
Co396 N406 2.128 . S
Co396 N416 2.194 . S
Co396 O421 2.351 . S
Co396 O422 2.155 . S
Co396 O423 2.096 . S
C397 N400 1.301 . S
C397 N401 1.328 . S
C397 H402 0.930 . S
C398 C399 1.333 . S
C398 N400 1.317 . S
C398 H403 0.930 . S
C399 C398 1.333 . S
C399 N401 1.350 . S
C399 H425 0.931 . S
N400 Co396 2.148 . S
N400 C397 1.301 . S
N400 C398 1.317 . S
N401 C397 1.328 . S
N401 C399 1.350 . S
H402 C397 0.930 . S
H403 C398 0.930 . S
C404 O405 1.224 . S
C404 O423 1.247 . S
O405 C404 1.224 . S
N406 Co396 2.128 . S
N406 C407 1.355 . S
N406 C409 1.311 . S
C407 N406 1.355 . S
C407 C408 1.363 . S
C407 H419 0.929 1_655 S
C408 C407 1.363 . S
C408 N410 1.375 . S
C408 H426 0.931 1_655 S
C409 N406 1.311 . S
C409 N410 1.347 . S
C409 H420 0.929 . S
N410 C408 1.375 . S
N410 C409 1.347 . S
C411 C414 1.365 . S
C411 N416 1.328 1_455 S
C411 H417 0.929 . S
C412 C413 1.362 . S
C412 C415 1.348 1_455 S
C412 H427 0.929 . S
C413 C412 1.362 . S
C413 C414 1.366 . S
C414 C411 1.365 . S
C414 C413 1.366 . S
C414 H428 0.930 . S
C415 C412 1.348 1_655 S
C415 N416 1.316 . S
C415 H418 0.962 . S
N416 Co396 2.194 . S
N416 C411 1.328 1_655 S
N416 C415 1.316 . S
H417 C411 0.929 . S
H418 C415 0.962 . S
H419 C407 0.929 1_455 S
H420 C409 0.929 . S
O421 Co396 2.351 . S
O421 C424 1.244 . S
O422 Co396 2.155 . S
O422 C424 1.240 . S
O423 Co396 2.096 . S
O423 C404 1.247 . S
C424 O421 1.244 . S
C424 O422 1.240 . S
H425 C399 0.931 . S
H426 C408 0.931 1_455 S
H427 C412 0.929 . S
H428 C414 0.930 . S
Co429 N433 2.148 . S
Co429 N439 2.128 . S
Co429 N449 2.194 . S
Co429 O454 2.351 . S
Co429 O455 2.155 . S
Co429 O456 2.096 . S
C430 N433 1.301 . S
C430 N434 1.328 . S
C430 H435 0.930 . S
C431 C432 1.333 . S
C431 N433 1.317 . S
C431 H436 0.930 . S
C432 C431 1.333 . S
C432 N434 1.350 . S
C432 H458 0.931 . S
N433 Co429 2.148 . S
N433 C430 1.301 . S
N433 C431 1.317 . S
N434 C430 1.328 . S
N434 C432 1.350 . S
H435 C430 0.930 . S
H436 C431 0.930 . S
C437 O438 1.224 . S
C437 O456 1.247 . S
O438 C437 1.224 . S
N439 Co429 2.128 . S
N439 C440 1.355 1_554 S
N439 C442 1.311 1_554 S
C440 N439 1.355 1_556 S
C440 C441 1.363 . S
C440 H452 0.929 1_566 S
C441 C440 1.363 . S
C441 N443 1.375 . S
C441 H459 0.931 1_565 S
C442 N439 1.311 1_556 S
C442 N443 1.347 . S
C442 H453 0.929 . S
N443 C441 1.375 . S
N443 C442 1.347 . S
C444 C447 1.365 . S
C444 N449 1.328 1_545 S
C444 H450 0.929 . S
C445 C446 1.362 . S
C445 C448 1.348 1_545 S
C445 H460 0.929 . S
C446 C445 1.362 . S
C446 C447 1.366 . S
C447 C444 1.365 . S
C447 C446 1.366 . S
C447 H461 0.930 . S
C448 C445 1.348 1_565 S
C448 N449 1.316 . S
C448 H451 0.962 . S
N449 Co429 2.194 . S
N449 C444 1.328 1_565 S
N449 C448 1.316 . S
H450 C444 0.929 . S
H451 C448 0.962 . S
H452 C440 0.929 1_544 S
H453 C442 0.929 . S
O454 Co429 2.351 . S
O454 C457 1.244 . S
O455 Co429 2.155 . S
O455 C457 1.240 . S
O456 Co429 2.096 . S
O456 C437 1.247 . S
C457 O454 1.244 . S
C457 O455 1.240 . S
H458 C432 0.931 . S
H459 C441 0.931 1_545 S
H460 C445 0.929 . S
H461 C447 0.930 . S
Co462 N466 2.148 . S
Co462 N472 2.128 . S
Co462 N482 2.194 . S
Co462 O487 2.351 . S
Co462 O488 2.155 . S
Co462 O489 2.096 . S
C463 N466 1.301 . S
C463 N467 1.328 . S
C463 H468 0.930 . S
C464 C465 1.333 . S
C464 N466 1.317 . S
C464 H469 0.930 . S
C465 C464 1.333 . S
C465 N467 1.350 . S
C465 H491 0.931 . S
N466 Co462 2.148 . S
N466 C463 1.301 . S
N466 C464 1.317 . S
N467 C463 1.328 . S
N467 C465 1.350 . S
H468 C463 0.930 . S
H469 C464 0.930 . S
C470 O471 1.224 . S
C470 O489 1.247 . S
O471 C470 1.224 . S
N472 Co462 2.128 . S
N472 C473 1.355 . S
N472 C475 1.311 . S
C473 N472 1.355 . S
C473 C474 1.363 . S
C473 H485 0.929 . S
C474 C473 1.363 . S
C474 N476 1.375 . S
C474 H492 0.931 . S
C475 N472 1.311 . S
C475 N476 1.347 . S
C475 H486 0.929 . S
N476 C474 1.375 . S
N476 C475 1.347 . S
C477 C480 1.365 . S
C477 N482 1.328 . S
C477 H483 0.929 . S
C478 C479 1.362 . S
C478 C481 1.378 . S
C478 H493 0.929 . S
C479 C478 1.362 . S
C479 C480 1.366 . S
C480 C477 1.365 . S
C480 C479 1.366 . S
C480 H494 0.930 . S
C481 C478 1.378 . S
C481 N482 1.315 . S
C481 H484 0.930 . S
N482 Co462 2.194 . S
N482 C477 1.328 . S
N482 C481 1.315 . S
H483 C477 0.929 . S
H484 C481 0.930 . S
H485 C473 0.929 . S
H486 C475 0.929 . S
O487 Co462 2.351 . S
O487 C490 1.244 . S
O488 Co462 2.155 . S
O488 C490 1.240 . S
O489 Co462 2.096 . S
O489 C470 1.247 . S
C490 O487 1.244 . S
C490 O488 1.240 . S
H491 C465 0.931 . S
H492 C474 0.931 . S
H493 C478 0.929 . S
H494 C480 0.930 . S
Co495 N499 2.148 . S
Co495 N505 2.128 . S
Co495 N515 2.194 . S
Co495 O520 2.351 . S
Co495 O521 2.155 . S
Co495 O522 2.096 . S
C496 N499 1.301 . S
C496 N500 1.328 . S
C496 H501 0.930 . S
C497 C498 1.333 . S
C497 N499 1.317 . S
C497 H502 0.930 . S
C498 C497 1.333 . S
C498 N500 1.350 . S
C498 H524 0.931 . S
N499 Co495 2.148 . S
N499 C496 1.301 . S
N499 C497 1.317 . S
N500 C496 1.328 . S
N500 C498 1.350 . S
H501 C496 0.930 . S
H502 C497 0.930 . S
C503 O504 1.224 . S
C503 O522 1.247 . S
O504 C503 1.224 . S
N505 Co495 2.128 . S
N505 C506 1.355 1_554 S
N505 C508 1.311 1_554 S
C506 N505 1.355 1_556 S
C506 C507 1.363 . S
C506 H518 0.929 1_556 S
C507 C506 1.363 . S
C507 N509 1.375 . S
C507 H525 0.931 . S
C508 N505 1.311 1_556 S
C508 N509 1.347 . S
C508 H519 0.929 . S
N509 C507 1.375 . S
N509 C508 1.347 . S
C510 C513 1.365 . S
C510 N515 1.328 . S
C510 H516 0.929 . S
C511 C512 1.362 . S
C511 C514 1.378 . S
C511 H526 0.929 . S
C512 C511 1.362 . S
C512 C513 1.366 . S
C513 C510 1.365 . S
C513 C512 1.366 . S
C513 H527 0.930 . S
C514 C511 1.378 . S
C514 N515 1.315 . S
C514 H517 0.930 . S
N515 Co495 2.194 . S
N515 C510 1.328 . S
N515 C514 1.315 . S
H516 C510 0.929 . S
H517 C514 0.930 . S
H518 C506 0.929 1_554 S
H519 C508 0.929 . S
O520 Co495 2.351 . S
O520 C523 1.244 . S
O521 Co495 2.155 . S
O521 C523 1.240 . S
O522 Co495 2.096 . S
O522 C503 1.247 . S
C523 O520 1.244 . S
C523 O521 1.240 . S
H524 C498 0.931 . S
H525 C507 0.931 . S
H526 C511 0.929 . S
H527 C513 0.930 . S
H528 C534 0.930 . S
H529 C537 0.930 . S
H530 C538 0.930 . S
H531 C539 0.930 . S
H532 C542 0.930 . S
H533 C543 0.930 . S
C534 H528 0.930 . S
C534 C535 1.355 . S
C534 C536 1.415 . S
C535 C534 1.355 . S
C535 C537 1.419 . S
C536 C534 1.415 . S
C536 C541 1.425 . S
C536 C543 1.409 . S
C537 H529 0.930 . S
C537 C535 1.419 . S
C537 C538 1.362 . S
C538 H530 0.930 . S
C538 C537 1.362 . S
C538 C541 1.409 . S
C539 H531 0.930 . S
C539 C540 1.355 . S
C539 C541 1.415 . S
C540 C539 1.355 . S
C540 C542 1.419 . S
C541 C536 1.425 . S
C541 C538 1.409 . S
C541 C539 1.415 . S
C542 H532 0.930 . S
C542 C540 1.419 . S
C542 C543 1.362 . S
C543 H533 0.930 . S
C543 C536 1.409 . S
C543 C542 1.362 . S
H544 C550 0.930 . S
H545 C553 0.930 . S
H546 C554 0.930 . S
H547 C555 0.930 . S
H548 C558 0.930 . S
H549 C559 0.930 . S
C550 H544 0.930 . S
C550 C551 1.355 . S
C550 C552 1.415 . S
C551 C550 1.355 . S
C551 C553 1.419 . S
C552 C550 1.415 . S
C552 C557 1.425 . S
C552 C559 1.409 . S
C553 H545 0.930 . S
C553 C551 1.419 . S
C553 C554 1.362 . S
C554 H546 0.930 . S
C554 C553 1.362 . S
C554 C557 1.409 . S
C555 H547 0.930 . S
C555 C556 1.355 . S
C555 C557 1.415 . S
C556 C555 1.355 . S
C556 C558 1.419 . S
C557 C552 1.425 . S
C557 C554 1.409 . S
C557 C555 1.415 . S
C558 H548 0.930 . S
C558 C556 1.419 . S
C558 C559 1.362 . S
C559 H549 0.930 . S
C559 C552 1.409 . S
C559 C558 1.362 . S
H560 C566 0.930 . S
H561 C569 0.930 . S
H562 C570 0.930 . S
H563 C571 0.930 . S
H564 C574 0.930 . S
H565 C575 0.930 . S
C566 H560 0.930 . S
C566 C567 1.355 . S
C566 C568 1.415 . S
C567 C566 1.355 . S
C567 C569 1.419 . S
C568 C566 1.415 . S
C568 C573 1.425 . S
C568 C575 1.409 . S
C569 H561 0.930 . S
C569 C567 1.419 . S
C569 C570 1.362 . S
C570 H562 0.930 . S
C570 C569 1.362 . S
C570 C573 1.409 . S
C571 H563 0.930 . S
C571 C572 1.355 . S
C571 C573 1.415 . S
C572 C571 1.355 . S
C572 C574 1.419 . S
C573 C568 1.425 . S
C573 C570 1.409 . S
C573 C571 1.415 . S
C574 H564 0.930 . S
C574 C572 1.419 . S
C574 C575 1.362 . S
C575 H565 0.930 . S
C575 C568 1.409 . S
C575 C574 1.362 . S
H576 C582 0.930 . S
H577 C585 0.930 . S
H578 C586 0.930 . S
H579 C587 0.930 . S
H580 C590 0.930 . S
H581 C591 0.930 . S
C582 H576 0.930 . S
C582 C583 1.355 . S
C582 C584 1.415 . S
C583 C582 1.355 . S
C583 C585 1.419 . S
C584 C582 1.415 . S
C584 C589 1.425 . S
C584 C591 1.409 . S
C585 H577 0.930 . S
C585 C583 1.419 . S
C585 C586 1.362 . S
C586 H578 0.930 . S
C586 C585 1.362 . S
C586 C589 1.409 . S
C587 H579 0.930 . S
C587 C588 1.355 . S
C587 C589 1.415 . S
C588 C587 1.355 . S
C588 C590 1.419 . S
C589 C584 1.425 . S
C589 C586 1.409 . S
C589 C587 1.415 . S
C590 H580 0.930 . S
C590 C588 1.419 . S
C590 C591 1.362 . S
C591 H581 0.930 . S
C591 C584 1.409 . S
C591 C590 1.362 . S
H592 C598 0.930 . S
H593 C601 0.930 . S
H594 C602 0.930 . S
H595 C603 0.930 . S
H596 C606 0.930 . S
H597 C607 0.930 . S
C598 H592 0.930 . S
C598 C599 1.355 . S
C598 C600 1.415 . S
C599 C598 1.355 . S
C599 C601 1.419 . S
C600 C598 1.415 . S
C600 C605 1.425 . S
C600 C607 1.409 . S
C601 H593 0.930 . S
C601 C599 1.419 . S
C601 C602 1.362 . S
C602 H594 0.930 . S
C602 C601 1.362 . S
C602 C605 1.409 . S
C603 H595 0.930 . S
C603 C604 1.355 . S
C603 C605 1.415 . S
C604 C603 1.355 . S
C604 C606 1.419 . S
C605 C600 1.425 . S
C605 C602 1.409 . S
C605 C603 1.415 . S
C606 H596 0.930 . S
C606 C604 1.419 . S
C606 C607 1.362 . S
C607 H597 0.930 . S
C607 C600 1.409 . S
C607 C606 1.362 . S
H608 C614 0.930 . S
H609 C617 0.930 . S
H610 C618 0.930 . S
H611 C619 0.930 . S
H612 C622 0.930 . S
H613 C623 0.930 . S
C614 H608 0.930 . S
C614 C615 1.355 . S
C614 C616 1.415 . S
C615 C614 1.355 . S
C615 C617 1.419 . S
C616 C614 1.415 . S
C616 C621 1.425 . S
C616 C623 1.409 . S
C617 H609 0.930 . S
C617 C615 1.419 . S
C617 C618 1.362 . S
C618 H610 0.930 . S
C618 C617 1.362 . S
C618 C621 1.409 . S
C619 H611 0.930 . S
C619 C620 1.355 . S
C619 C621 1.415 . S
C620 C619 1.355 . S
C620 C622 1.419 . S
C621 C616 1.425 . S
C621 C618 1.409 . S
C621 C619 1.415 . S
C622 H612 0.930 . S
C622 C620 1.419 . S
C622 C623 1.362 . S
C623 H613 0.930 . S
C623 C616 1.409 . S
C623 C622 1.362 . S
H624 C630 0.930 . S
H625 C633 0.930 . S
H626 C634 0.930 . S
H627 C635 0.930 . S
H628 C638 0.930 . S
H629 C639 0.930 . S
C630 H624 0.930 . S
C630 C631 1.355 . S
C630 C632 1.415 . S
C631 C630 1.355 . S
C631 C633 1.419 . S
C632 C630 1.415 . S
C632 C637 1.425 . S
C632 C639 1.409 . S
C633 H625 0.930 . S
C633 C631 1.419 . S
C633 C634 1.362 . S
C634 H626 0.930 . S
C634 C633 1.362 . S
C634 C637 1.409 . S
C635 H627 0.930 . S
C635 C636 1.355 . S
C635 C637 1.415 . S
C636 C635 1.355 . S
C636 C638 1.419 . S
C637 C632 1.425 . S
C637 C634 1.409 . S
C637 C635 1.415 . S
C638 H628 0.930 . S
C638 C636 1.419 . S
C638 C639 1.362 . S
C639 H629 0.930 . S
C639 C632 1.409 . S
C639 C638 1.362 . S
H640 C646 0.930 . S
H641 C649 0.930 . S
H642 C650 0.930 . S
H643 C651 0.930 . S
H644 C654 0.930 . S
H645 C655 0.930 . S
C646 H640 0.930 . S
C646 C647 1.355 . S
C646 C648 1.415 . S
C647 C646 1.355 . S
C647 C649 1.419 . S
C648 C646 1.415 . S
C648 C653 1.425 . S
C648 C655 1.409 . S
C649 H641 0.930 . S
C649 C647 1.419 . S
C649 C650 1.362 . S
C650 H642 0.930 . S
C650 C649 1.362 . S
C650 C653 1.409 . S
C651 H643 0.930 . S
C651 C652 1.355 . S
C651 C653 1.415 . S
C652 C651 1.355 . S
C652 C654 1.419 . S
C653 C648 1.425 . S
C653 C650 1.409 . S
C653 C651 1.415 . S
C654 H644 0.930 . S
C654 C652 1.419 . S
C654 C655 1.362 . S
C655 H645 0.930 . S
C655 C648 1.409 . S
C655 C654 1.362 . S
H656 C662 0.930 . S
H657 C665 0.930 . S
H658 C666 0.930 . S
H659 C667 0.930 . S
H660 C670 0.930 . S
H661 C671 0.930 . S
C662 H656 0.930 . S
C662 C663 1.355 . S
C662 C664 1.415 . S
C663 C662 1.355 . S
C663 C665 1.419 . S
C664 C662 1.415 . S
C664 C669 1.425 1_554 S
C664 C671 1.409 . S
C665 H657 0.930 . S
C665 C663 1.419 . S
C665 C666 1.362 1_554 S
C666 H658 0.930 . S
C666 C665 1.362 1_556 S
C666 C669 1.409 . S
C667 H659 0.930 . S
C667 C668 1.355 . S
C667 C669 1.415 . S
C668 C667 1.355 . S
C668 C670 1.419 . S
C669 C664 1.425 1_556 S
C669 C666 1.409 . S
C669 C667 1.415 . S
C670 H660 0.930 . S
C670 C668 1.419 . S
C670 C671 1.362 1_556 S
C671 H661 0.930 . S
C671 C664 1.409 . S
C671 C670 1.362 1_554 S
H672 C678 0.930 . S
H673 C681 0.930 . S
H674 C682 0.930 . S
H675 C683 0.930 . S
H676 C686 0.930 . S
H677 C687 0.930 . S
C678 H672 0.930 . S
C678 C679 1.355 . S
C678 C680 1.415 . S
C679 C678 1.355 . S
C679 C681 1.419 . S
C680 C678 1.415 . S
C680 C685 1.425 . S
C680 C687 1.409 . S
C681 H673 0.930 . S
C681 C679 1.419 . S
C681 C682 1.362 . S
C682 H674 0.930 . S
C682 C681 1.362 . S
C682 C685 1.409 . S
C683 H675 0.930 . S
C683 C684 1.355 . S
C683 C685 1.415 . S
C684 C683 1.355 . S
C684 C686 1.419 . S
C685 C680 1.425 . S
C685 C682 1.409 . S
C685 C683 1.415 . S
C686 H676 0.930 . S
C686 C684 1.419 . S
C686 C687 1.362 . S
C687 H677 0.930 . S
C687 C680 1.409 . S
C687 C686 1.362 . S
H688 C694 0.930 . S
H689 C697 0.930 1_556 S
H690 C698 0.930 . S
H691 C699 0.930 . S
H692 C702 0.930 1_554 S
H693 C703 0.930 . S
C694 H688 0.930 . S
C694 C695 1.355 . S
C694 C696 1.415 . S
C695 C694 1.355 . S
C695 C697 1.419 . S
C696 C694 1.415 . S
C696 C701 1.425 1_554 S
C696 C703 1.409 . S
C697 H689 0.930 1_554 S
C697 C695 1.419 . S
C697 C698 1.362 1_554 S
C698 H690 0.930 . S
C698 C697 1.362 1_556 S
C698 C701 1.409 . S
C699 H691 0.930 . S
C699 C700 1.355 . S
C699 C701 1.415 . S
C700 C699 1.355 . S
C700 C702 1.419 . S
C701 C696 1.425 1_556 S
C701 C698 1.409 . S
C701 C699 1.415 . S
C702 H692 0.930 1_556 S
C702 C700 1.419 . S
C702 C703 1.362 1_556 S
C703 H693 0.930 . S
C703 C696 1.409 . S
C703 C702 1.362 1_554 S
H704 C710 0.930 . S
H705 C713 0.930 . S
H706 C714 0.930 . S
H707 C715 0.930 . S
H708 C718 0.930 . S
H709 C719 0.930 . S
C710 H704 0.930 . S
C710 C711 1.355 . S
C710 C712 1.415 . S
C711 C710 1.355 . S
C711 C713 1.419 . S
C712 C710 1.415 . S
C712 C717 1.425 . S
C712 C719 1.409 . S
C713 H705 0.930 . S
C713 C711 1.419 . S
C713 C714 1.362 . S
C714 H706 0.930 . S
C714 C713 1.362 . S
C714 C717 1.409 . S
C715 H707 0.930 . S
C715 C716 1.355 . S
C715 C717 1.415 . S
C716 C715 1.355 . S
C716 C718 1.419 . S
C717 C712 1.425 . S
C717 C714 1.409 . S
C717 C715 1.415 . S
C718 H708 0.930 . S
C718 C716 1.419 . S
C718 C719 1.362 . S
C719 H709 0.930 . S
C719 C712 1.409 . S
C719 C718 1.362 . S
H720 C726 0.930 . S
H721 C729 0.930 . S
H722 C730 0.930 . S
H723 C731 0.930 . S
H724 C734 0.930 . S
H725 C735 0.930 . S
C726 H720 0.930 . S
C726 C727 1.355 1_556 S
C726 C728 1.415 . S
C727 C726 1.355 1_554 S
C727 C729 1.419 . S
C728 C726 1.415 . S
C728 C733 1.425 1_556 S
C728 C735 1.409 . S
C729 H721 0.930 . S
C729 C727 1.419 . S
C729 C730 1.362 . S
C730 H722 0.930 . S
C730 C729 1.362 . S
C730 C733 1.409 . S
C731 H723 0.930 . S
C731 C732 1.355 1_554 S
C731 C733 1.415 . S
C732 C731 1.355 1_556 S
C732 C734 1.419 . S
C733 C728 1.425 1_554 S
C733 C730 1.409 . S
C733 C731 1.415 . S
C734 H724 0.930 . S
C734 C732 1.419 . S
C734 C735 1.362 . S
C735 H725 0.930 . S
C735 C728 1.409 . S
C735 C734 1.362 . S
H736 C742 0.930 . S
H737 C745 0.930 . S
H738 C746 0.930 . S
H739 C747 0.930 . S
H740 C750 0.930 . S
H741 C751 0.930 . S
C742 H736 0.930 . S
C742 C743 1.355 . S
C742 C744 1.415 . S
C743 C742 1.355 . S
C743 C745 1.419 . S
C744 C742 1.415 . S
C744 C749 1.425 . S
C744 C751 1.409 . S
C745 H737 0.930 . S
C745 C743 1.419 . S
C745 C746 1.362 . S
C746 H738 0.930 . S
C746 C745 1.362 . S
C746 C749 1.409 . S
C747 H739 0.930 . S
C747 C748 1.355 . S
C747 C749 1.415 . S
C748 C747 1.355 . S
C748 C750 1.419 . S
C749 C744 1.425 . S
C749 C746 1.409 . S
C749 C747 1.415 . S
C750 H740 0.930 . S
C750 C748 1.419 . S
C750 C751 1.362 . S
C751 H741 0.930 . S
C751 C744 1.409 . S
C751 C750 1.362 . S
H752 C758 0.930 . S
H753 C761 0.930 . S
H754 C762 0.930 . S
H755 C763 0.930 . S
H756 C766 0.930 . S
H757 C767 0.930 . S
C758 H752 0.930 . S
C758 C759 1.355 1_556 S
C758 C760 1.415 . S
C759 C758 1.355 1_554 S
C759 C761 1.419 . S
C760 C758 1.415 . S
C760 C765 1.425 1_556 S
C760 C767 1.409 . S
C761 H753 0.930 . S
C761 C759 1.419 . S
C761 C762 1.362 . S
C762 H754 0.930 . S
C762 C761 1.362 . S
C762 C765 1.409 . S
C763 H755 0.930 . S
C763 C764 1.355 1_554 S
C763 C765 1.415 . S
C764 C763 1.355 1_556 S
C764 C766 1.419 . S
C765 C760 1.425 1_554 S
C765 C762 1.409 . S
C765 C763 1.415 . S
C766 H756 0.930 . S
C766 C764 1.419 . S
C766 C767 1.362 . S
C767 H757 0.930 . S
C767 C760 1.409 . S
C767 C766 1.362 . S
H768 C774 0.930 . S
H769 C777 0.930 . S
H770 C778 0.930 . S
H771 C779 0.930 . S
H772 C782 0.930 . S
H773 C783 0.930 . S
C774 H768 0.930 . S
C774 C775 1.355 . S
C774 C776 1.415 . S
C775 C774 1.355 . S
C775 C777 1.419 . S
C776 C774 1.415 . S
C776 C781 1.425 . S
C776 C783 1.409 . S
C777 H769 0.930 . S
C777 C775 1.419 . S
C777 C778 1.362 . S
C778 H770 0.930 . S
C778 C777 1.362 . S
C778 C781 1.409 . S
C779 H771 0.930 . S
C779 C780 1.355 . S
C779 C781 1.415 . S
C780 C779 1.355 . S
C780 C782 1.419 . S
C781 C776 1.425 . S
C781 C778 1.409 . S
C781 C779 1.415 . S
C782 H772 0.930 . S
C782 C780 1.419 . S
C782 C783 1.362 . S
C783 H773 0.930 . S
C783 C776 1.409 . S
C783 C782 1.362 . S
H784 C790 0.930 . S
H785 C793 0.930 . S
H786 C794 0.930 . S
H787 C795 0.930 . S
H788 C798 0.931 . S
H789 C799 0.930 1_655 S
C790 H784 0.930 . S
C790 C791 1.355 . S
C790 C792 1.415 . S
C791 C790 1.355 . S
C791 C793 1.419 . S
C792 C790 1.415 . S
C792 C797 1.425 . S
C792 C799 1.409 . S
C793 H785 0.930 . S
C793 C791 1.419 . S
C793 C794 1.362 . S
C794 H786 0.930 . S
C794 C793 1.362 . S
C794 C797 1.409 . S
C795 H787 0.930 . S
C795 C796 1.355 . S
C795 C797 1.415 . S
C796 C795 1.355 . S
C796 C798 1.419 . S
C797 C792 1.425 . S
C797 C794 1.409 . S
C797 C795 1.415 . S
C798 H788 0.931 . S
C798 C796 1.419 . S
C798 C799 1.362 . S
C799 H789 0.930 1_455 S
C799 C792 1.409 . S
C799 C798 1.362 . S
H800 C806 0.930 . S
H801 C809 0.930 . S
H802 C810 0.930 . S
H803 C811 0.930 . S
H804 C814 0.930 . S
H805 C815 0.930 . S
C806 H800 0.930 . S
C806 C807 1.355 . S
C806 C808 1.415 . S
C807 C806 1.355 . S
C807 C809 1.419 . S
C808 C806 1.415 . S
C808 C813 1.425 . S
C808 C815 1.409 . S
C809 H801 0.930 . S
C809 C807 1.419 . S
C809 C810 1.362 . S
C810 H802 0.930 . S
C810 C809 1.362 . S
C810 C813 1.409 . S
C811 H803 0.930 . S
C811 C812 1.355 . S
C811 C813 1.415 . S
C812 C811 1.355 . S
C812 C814 1.419 . S
C813 C808 1.425 . S
C813 C810 1.409 . S
C813 C811 1.415 . S
C814 H804 0.930 . S
C814 C812 1.419 . S
C814 C815 1.362 . S
C815 H805 0.930 . S
C815 C808 1.409 . S
C815 C814 1.362 . S
H816 C822 0.930 . S
H817 C825 0.930 . S
H818 C826 0.930 . S
H819 C827 0.930 . S
H820 C830 0.930 . S
H821 C831 0.930 . S
C822 H816 0.930 . S
C822 C823 1.355 . S
C822 C824 1.415 . S
C823 C822 1.355 . S
C823 C825 1.419 . S
C824 C822 1.415 . S
C824 C829 1.425 . S
C824 C831 1.409 . S
C825 H817 0.930 . S
C825 C823 1.419 . S
C825 C826 1.362 . S
C826 H818 0.930 . S
C826 C825 1.362 . S
C826 C829 1.409 . S
C827 H819 0.930 . S
C827 C828 1.355 . S
C827 C829 1.415 . S
C828 C827 1.355 . S
C828 C830 1.419 . S
C829 C824 1.425 . S
C829 C826 1.409 . S
C829 C827 1.415 . S
C830 H820 0.930 . S
C830 C828 1.419 . S
C830 C831 1.362 . S
C831 H821 0.930 . S
C831 C824 1.409 . S
C831 C830 1.362 . S
H832 C838 0.930 . S
H833 C841 0.930 . S
H834 C842 0.930 . S
H835 C843 0.930 . S
H836 C846 0.930 . S
H837 C847 0.930 . S
C838 H832 0.930 . S
C838 C839 1.355 . S
C838 C840 1.415 . S
C839 C838 1.355 . S
C839 C841 1.419 . S
C840 C838 1.415 . S
C840 C845 1.425 . S
C840 C847 1.409 . S
C841 H833 0.930 . S
C841 C839 1.419 . S
C841 C842 1.362 . S
C842 H834 0.930 . S
C842 C841 1.362 . S
C842 C845 1.409 . S
C843 H835 0.930 . S
C843 C844 1.355 . S
C843 C845 1.415 . S
C844 C843 1.355 . S
C844 C846 1.419 . S
C845 C840 1.425 . S
C845 C842 1.409 . S
C845 C843 1.415 . S
C846 H836 0.930 . S
C846 C844 1.419 . S
C846 C847 1.362 . S
C847 H837 0.930 . S
C847 C840 1.409 . S
C847 C846 1.362 . S
H848 C854 0.930 1_455 S
H849 C857 0.930 . S
H850 C858 0.930 . S
H851 C859 0.930 . S
H852 C862 0.915 1_455 S
H853 C863 0.930 . S
C854 H848 0.930 1_655 S
C854 C855 1.355 . S
C854 C856 1.415 . S
C855 C854 1.355 . S
C855 C857 1.419 . S
C856 C854 1.415 . S
C856 C861 1.425 . S
C856 C863 1.409 1_655 S
C857 H849 0.930 . S
C857 C855 1.419 . S
C857 C858 1.362 . S
C858 H850 0.930 . S
C858 C857 1.362 . S
C858 C861 1.409 . S
C859 H851 0.930 . S
C859 C860 1.355 . S
C859 C861 1.415 . S
C860 C859 1.355 . S
C860 C862 1.438 . S
C861 C856 1.425 . S
C861 C858 1.409 . S
C861 C859 1.415 . S
C862 H852 0.915 1_655 S
C862 C860 1.438 . S
C862 C863 1.359 1_655 S
C863 H853 0.930 . S
C863 C856 1.409 1_455 S
C863 C862 1.359 1_455 S
H864 C870 0.930 . S
H865 C873 0.930 . S
H866 C874 0.930 . S
H867 C875 0.930 . S
H868 C878 0.930 . S
H869 C879 0.930 . S
C870 H864 0.930 . S
C870 C871 1.355 . S
C870 C872 1.415 . S
C871 C870 1.355 . S
C871 C873 1.419 . S
C872 C870 1.415 . S
C872 C877 1.425 . S
C872 C879 1.409 . S
C873 H865 0.930 . S
C873 C871 1.419 . S
C873 C874 1.362 . S
C874 H866 0.930 . S
C874 C873 1.362 . S
C874 C877 1.409 . S
C875 H867 0.930 . S
C875 C876 1.355 . S
C875 C877 1.415 . S
C876 C875 1.355 . S
C876 C878 1.419 . S
C877 C872 1.425 . S
C877 C874 1.409 . S
C877 C875 1.415 . S
C878 H868 0.930 . S
C878 C876 1.419 . S
C878 C879 1.362 . S
C879 H869 0.930 . S
C879 C872 1.409 . S
C879 C878 1.362 . S
H880 C886 0.930 . S
H881 C889 0.930 . S
H882 C890 0.930 . S
H883 C891 0.930 . S
H884 C894 0.930 . S
H885 C895 0.930 . S
C886 H880 0.930 . S
C886 C887 1.355 . S
C886 C888 1.415 . S
C887 C886 1.355 . S
C887 C889 1.419 . S
C888 C886 1.415 . S
C888 C893 1.425 . S
C888 C895 1.409 . S
C889 H881 0.930 . S
C889 C887 1.419 . S
C889 C890 1.362 . S
C890 H882 0.930 . S
C890 C889 1.362 . S
C890 C893 1.409 . S
C891 H883 0.930 . S
C891 C892 1.355 . S
C891 C893 1.415 . S
C892 C891 1.355 . S
C892 C894 1.419 . S
C893 C888 1.425 . S
C893 C890 1.409 . S
C893 C891 1.415 . S
C894 H884 0.930 . S
C894 C892 1.419 . S
C894 C895 1.362 . S
C895 H885 0.930 . S
C895 C888 1.409 . S
C895 C894 1.362 . S
H896 C902 0.930 . S
H897 C905 0.930 . S
H898 C906 0.930 . S
H899 C907 0.930 . S
H900 C910 0.930 . S
H901 C911 0.930 . S
C902 H896 0.930 . S
C902 C903 1.355 . S
C902 C904 1.415 . S
C903 C902 1.355 . S
C903 C905 1.419 . S
C904 C902 1.415 . S
C904 C909 1.425 . S
C904 C911 1.409 . S
C905 H897 0.930 . S
C905 C903 1.419 . S
C905 C906 1.362 . S
C906 H898 0.930 . S
C906 C905 1.362 . S
C906 C909 1.409 . S
C907 H899 0.930 . S
C907 C908 1.355 . S
C907 C909 1.415 . S
C908 C907 1.355 . S
C908 C910 1.419 . S
C909 C904 1.425 . S
C909 C906 1.409 . S
C909 C907 1.415 . S
C910 H900 0.930 . S
C910 C908 1.419 . S
C910 C911 1.362 . S
C911 H901 0.930 . S
C911 C904 1.409 . S
C911 C910 1.362 . S
H912 C918 0.930 . S
H913 C921 0.930 . S
H914 C922 0.930 . S
H915 C923 0.930 . S
H916 C926 0.930 . S
H917 C927 0.930 . S
C918 H912 0.930 . S
C918 C919 1.355 . S
C918 C920 1.415 . S
C919 C918 1.355 . S
C919 C921 1.419 . S
C920 C918 1.415 . S
C920 C925 1.425 . S
C920 C927 1.409 . S
C921 H913 0.930 . S
C921 C919 1.419 . S
C921 C922 1.362 . S
C922 H914 0.930 . S
C922 C921 1.362 . S
C922 C925 1.409 . S
C923 H915 0.930 . S
C923 C924 1.355 . S
C923 C925 1.415 . S
C924 C923 1.355 . S
C924 C926 1.419 . S
C925 C920 1.425 . S
C925 C922 1.409 . S
C925 C923 1.415 . S
C926 H916 0.930 . S
C926 C924 1.419 . S
C926 C927 1.362 . S
C927 H917 0.930 . S
C927 C920 1.409 . S
C927 C926 1.362 . S
H928 C934 0.930 . S
H929 C937 0.930 1_556 S
H930 C938 0.930 1_565 S
H931 C939 0.930 . S
H932 C942 0.930 . S
H933 C943 0.930 . S
C934 H928 0.930 . S
C934 C935 1.355 1_554 S
C934 C936 1.415 . S
C935 C934 1.355 1_556 S
C935 C937 1.419 1_556 S
C936 C934 1.415 . S
C936 C941 1.425 . S
C936 C943 1.409 . S
C937 H929 0.930 1_554 S
C937 C935 1.419 1_554 S
C937 C938 1.362 . S
C938 H930 0.930 1_545 S
C938 C937 1.362 . S
C938 C941 1.409 . S
C939 H931 0.930 . S
C939 C940 1.355 . S
C939 C941 1.415 . S
C940 C939 1.355 . S
C940 C942 1.419 . S
C941 C936 1.425 . S
C941 C938 1.409 . S
C941 C939 1.415 . S
C942 H932 0.930 . S
C942 C940 1.419 . S
C942 C943 1.362 . S
C943 H933 0.930 . S
C943 C936 1.409 . S
C943 C942 1.362 . S
H944 C950 0.930 . S
H945 C953 0.930 . S
H946 C954 0.930 . S
H947 C955 0.930 . S
H948 C958 0.930 . S
H949 C959 0.930 . S
C950 H944 0.930 . S
C950 C951 1.355 . S
C950 C952 1.415 . S
C951 C950 1.355 . S
C951 C953 1.419 . S
C952 C950 1.415 . S
C952 C957 1.425 . S
C952 C959 1.409 . S
C953 H945 0.930 . S
C953 C951 1.419 . S
C953 C954 1.362 . S
C954 H946 0.930 . S
C954 C953 1.362 . S
C954 C957 1.409 . S
C955 H947 0.930 . S
C955 C956 1.355 . S
C955 C957 1.415 . S
C956 C955 1.355 . S
C956 C958 1.419 . S
C957 C952 1.425 . S
C957 C954 1.409 . S
C957 C955 1.415 . S
C958 H948 0.930 . S
C958 C956 1.419 . S
C958 C959 1.362 . S
C959 H949 0.930 . S
C959 C952 1.409 . S
C959 C958 1.362 . S
H960 C966 0.930 . S
H961 C969 0.930 1_556 S
H962 C970 0.930 . S
H963 C971 0.930 . S
H964 C974 0.930 . S
H965 C975 0.930 . S
C966 H960 0.930 . S
C966 C967 1.355 1_554 S
C966 C968 1.415 . S
C967 C966 1.355 1_556 S
C967 C969 1.419 1_556 S
C968 C966 1.415 . S
C968 C973 1.425 . S
C968 C975 1.409 . S
C969 H961 0.930 1_554 S
C969 C967 1.419 1_554 S
C969 C970 1.362 . S
C970 H962 0.930 . S
C970 C969 1.362 . S
C970 C973 1.409 . S
C971 H963 0.930 . S
C971 C972 1.355 . S
C971 C973 1.415 . S
C972 C971 1.355 . S
C972 C974 1.419 . S
C973 C968 1.425 . S
C973 C970 1.409 . S
C973 C971 1.415 . S
C974 H964 0.930 . S
C974 C972 1.419 . S
C974 C975 1.362 . S
C975 H965 0.930 . S
C975 C968 1.409 . S
C975 C974 1.362 . S
H976 C982 0.930 . S
H977 C985 0.930 . S
H978 C986 0.930 . S
H979 C987 0.930 . S
H980 C990 0.930 1_554 S
H981 C991 0.930 . S
C982 H976 0.930 . S
C982 C983 1.355 . S
C982 C984 1.415 . S
C983 C982 1.355 . S
C983 C985 1.419 . S
C984 C982 1.415 . S
C984 C989 1.425 . S
C984 C991 1.409 . S
C985 H977 0.930 . S
C985 C983 1.419 . S
C985 C986 1.362 . S
C986 H978 0.930 . S
C986 C985 1.362 . S
C986 C989 1.409 . S
C987 H979 0.930 . S
C987 C988 1.355 1_556 S
C987 C989 1.415 . S
C988 C987 1.355 1_554 S
C988 C990 1.419 1_554 S
C989 C984 1.425 . S
C989 C986 1.409 . S
C989 C987 1.415 . S
C990 H980 0.930 1_556 S
C990 C988 1.419 1_556 S
C990 C991 1.362 . S
C991 H981 0.930 . S
C991 C984 1.409 . S
C991 C990 1.362 . S
H992 C998 0.930 . S
H993 C1001 0.930 . S
H994 C1002 0.930 . S
H995 C1003 0.930 . S
H996 C1006 0.930 . S
H997 C1007 0.930 . S
C998 H992 0.930 . S
C998 C999 1.355 . S
C998 C1000 1.415 . S
C999 C998 1.355 . S
C999 C1001 1.419 . S
C1000 C998 1.415 . S
C1000 C1005 1.425 . S
C1000 C1007 1.409 . S
C1001 H993 0.930 . S
C1001 C999 1.419 . S
C1001 C1002 1.362 . S
C1002 H994 0.930 . S
C1002 C1001 1.362 . S
C1002 C1005 1.409 . S
C1003 H995 0.930 . S
C1003 C1004 1.355 . S
C1003 C1005 1.415 . S
C1004 C1003 1.355 . S
C1004 C1006 1.419 . S
C1005 C1000 1.425 . S
C1005 C1002 1.409 . S
C1005 C1003 1.415 . S
C1006 H996 0.930 . S
C1006 C1004 1.419 . S
C1006 C1007 1.362 . S
C1007 H997 0.930 . S
C1007 C1000 1.409 . S
C1007 C1006 1.362 . S
H1008 C1014 0.930 . S
H1009 C1017 0.930 . S
H1010 C1018 0.930 . S
H1011 C1019 0.930 . S
H1012 C1022 0.930 1_554 S
H1013 C1023 0.930 . S
C1014 H1008 0.930 . S
C1014 C1015 1.355 . S
C1014 C1016 1.415 . S
C1015 C1014 1.355 . S
C1015 C1017 1.419 . S
C1016 C1014 1.415 . S
C1016 C1021 1.425 . S
C1016 C1023 1.409 . S
C1017 H1009 0.930 . S
C1017 C1015 1.419 . S
C1017 C1018 1.362 . S
C1018 H1010 0.930 . S
C1018 C1017 1.362 . S
C1018 C1021 1.409 . S
C1019 H1011 0.930 . S
C1019 C1020 1.355 1_556 S
C1019 C1021 1.415 . S
C1020 C1019 1.355 1_554 S
C1020 C1022 1.419 1_554 S
C1021 C1016 1.425 . S
C1021 C1018 1.409 . S
C1021 C1019 1.415 . S
C1022 H1012 0.930 1_556 S
C1022 C1020 1.419 1_556 S
C1022 C1023 1.362 . S
C1023 H1013 0.930 . S
C1023 C1016 1.409 . S
C1023 C1022 1.362 . S
H1024 C1030 0.930 . S
H1025 C1033 0.930 . S
H1026 C1034 0.930 . S
H1027 C1035 0.930 . S
H1028 C1038 0.930 . S
H1029 C1039 0.930 . S
C1030 H1024 0.930 . S
C1030 C1031 1.355 . S
C1030 C1032 1.415 . S
C1031 C1030 1.355 . S
C1031 C1033 1.419 . S
C1032 C1030 1.415 . S
C1032 C1037 1.425 . S
C1032 C1039 1.409 . S
C1033 H1025 0.930 . S
C1033 C1031 1.419 . S
C1033 C1034 1.362 . S
C1034 H1026 0.930 . S
C1034 C1033 1.362 . S
C1034 C1037 1.409 . S
C1035 H1027 0.930 . S
C1035 C1036 1.355 . S
C1035 C1037 1.415 . S
C1036 C1035 1.355 . S
C1036 C1038 1.419 . S
C1037 C1032 1.425 . S
C1037 C1034 1.409 . S
C1037 C1035 1.415 . S
C1038 H1028 0.930 . S
C1038 C1036 1.419 . S
C1038 C1039 1.362 . S
C1039 H1029 0.930 . S
C1039 C1032 1.409 . S
C1039 C1038 1.362 . S
H1040 C1046 0.930 . S
H1041 C1049 0.930 . S
H1042 C1050 0.930 . S
H1043 C1051 0.930 . S
H1044 C1054 0.930 . S
H1045 C1055 0.930 . S
C1046 H1040 0.930 . S
C1046 C1047 1.355 . S
C1046 C1048 1.415 . S
C1047 C1046 1.355 . S
C1047 C1049 1.419 . S
C1048 C1046 1.415 . S
C1048 C1053 1.425 . S
C1048 C1055 1.409 . S
C1049 H1041 0.930 . S
C1049 C1047 1.419 . S
C1049 C1050 1.362 . S
C1050 H1042 0.930 . S
C1050 C1049 1.362 . S
C1050 C1053 1.409 . S
C1051 H1043 0.930 . S
C1051 C1052 1.355 . S
C1051 C1053 1.415 . S
C1052 C1051 1.355 . S
C1052 C1054 1.419 . S
C1053 C1048 1.425 . S
C1053 C1050 1.409 . S
C1053 C1051 1.415 . S
C1054 H1044 0.930 . S
C1054 C1052 1.419 . S
C1054 C1055 1.362 . S
C1055 H1045 0.930 . S
C1055 C1048 1.409 . S
C1055 C1054 1.362 . S
H1056 C1062 0.930 . S
H1057 C1065 0.930 1_554 S
H1058 C1066 0.930 1_545 S
H1059 C1067 0.930 . S
H1060 C1070 0.930 . S
H1061 C1071 0.930 . S
C1062 H1056 0.930 . S
C1062 C1063 1.355 1_556 S
C1062 C1064 1.415 . S
C1063 C1062 1.355 1_554 S
C1063 C1065 1.419 1_554 S
C1064 C1062 1.415 . S
C1064 C1069 1.425 . S
C1064 C1071 1.409 . S
C1065 H1057 0.930 1_556 S
C1065 C1063 1.419 1_556 S
C1065 C1066 1.362 . S
C1066 H1058 0.930 1_565 S
C1066 C1065 1.362 . S
C1066 C1069 1.409 . S
C1067 H1059 0.930 . S
C1067 C1068 1.355 . S
C1067 C1069 1.415 . S
C1068 C1067 1.355 . S
C1068 C1070 1.419 . S
C1069 C1064 1.425 . S
C1069 C1066 1.409 . S
C1069 C1067 1.415 . S
C1070 H1060 0.930 . S
C1070 C1068 1.419 . S
C1070 C1071 1.362 . S
C1071 H1061 0.930 . S
C1071 C1064 1.409 . S
C1071 C1070 1.362 . S
H1072 C1078 0.930 . S
H1073 C1081 0.930 . S
H1074 C1082 0.930 . S
H1075 C1083 0.930 . S
H1076 C1086 0.930 . S
H1077 C1087 0.930 . S
C1078 H1072 0.930 . S
C1078 C1079 1.355 . S
C1078 C1080 1.415 . S
C1079 C1078 1.355 . S
C1079 C1081 1.419 . S
C1080 C1078 1.415 . S
C1080 C1085 1.425 . S
C1080 C1087 1.409 . S
C1081 H1073 0.930 . S
C1081 C1079 1.419 . S
C1081 C1082 1.362 . S
C1082 H1074 0.930 . S
C1082 C1081 1.362 . S
C1082 C1085 1.409 . S
C1083 H1075 0.930 . S
C1083 C1084 1.355 . S
C1083 C1085 1.415 . S
C1084 C1083 1.355 . S
C1084 C1086 1.419 . S
C1085 C1080 1.425 . S
C1085 C1082 1.409 . S
C1085 C1083 1.415 . S
C1086 H1076 0.930 . S
C1086 C1084 1.419 . S
C1086 C1087 1.362 . S
C1087 H1077 0.930 . S
C1087 C1080 1.409 . S
C1087 C1086 1.362 . S
H1088 C1094 0.930 . S
H1089 C1097 0.930 1_554 S
H1090 C1098 0.930 . S
H1091 C1099 0.930 . S
H1092 C1102 0.930 . S
H1093 C1103 0.930 . S
C1094 H1088 0.930 . S
C1094 C1095 1.355 1_556 S
C1094 C1096 1.415 . S
C1095 C1094 1.355 1_554 S
C1095 C1097 1.419 1_554 S
C1096 C1094 1.415 . S
C1096 C1101 1.425 . S
C1096 C1103 1.409 . S
C1097 H1089 0.930 1_556 S
C1097 C1095 1.419 1_556 S
C1097 C1098 1.362 . S
C1098 H1090 0.930 . S
C1098 C1097 1.362 . S
C1098 C1101 1.409 . S
C1099 H1091 0.930 . S
C1099 C1100 1.355 . S
C1099 C1101 1.415 . S
C1100 C1099 1.355 . S
C1100 C1102 1.419 . S
C1101 C1096 1.425 . S
C1101 C1098 1.409 . S
C1101 C1099 1.415 . S
C1102 H1092 0.930 . S
C1102 C1100 1.419 . S
C1102 C1103 1.362 . S
C1103 H1093 0.930 . S
C1103 C1096 1.409 . S
C1103 C1102 1.362 . S
H1104 C1110 0.965 . S
H1105 C1113 0.930 . S
H1106 C1114 0.930 . S
H1107 C1115 0.930 . S
H1108 C1118 0.922 1_456 S
H1109 C1119 0.930 1_455 S
C1110 H1104 0.965 . S
C1110 C1111 1.355 . S
C1110 C1112 1.415 . S
C1111 C1110 1.355 . S
C1111 C1113 1.419 . S
C1112 C1110 1.415 . S
C1112 C1117 1.425 . S
C1112 C1119 1.409 . S
C1113 H1105 0.930 . S
C1113 C1111 1.419 . S
C1113 C1114 1.362 . S
C1114 H1106 0.930 . S
C1114 C1113 1.362 . S
C1114 C1117 1.409 . S
C1115 H1107 0.930 . S
C1115 C1116 1.355 1_554 S
C1115 C1117 1.415 . S
C1116 C1115 1.355 1_556 S
C1116 C1118 1.419 1_556 S
C1117 C1112 1.425 . S
C1117 C1114 1.409 . S
C1117 C1115 1.415 . S
C1118 H1108 0.922 1_654 S
C1118 C1116 1.419 1_554 S
C1118 C1119 1.362 . S
C1119 H1109 0.930 1_655 S
C1119 C1112 1.409 . S
C1119 C1118 1.362 . S
H1120 C1126 0.930 . S
H1121 C1129 0.930 1_545 S
H1122 C1130 0.930 1_545 S
H1123 C1131 0.930 . S
H1124 C1134 0.930 . S
H1125 C1135 0.930 . S
C1126 H1120 0.930 . S
C1126 C1127 1.355 . S
C1126 C1128 1.415 . S
C1127 C1126 1.355 . S
C1127 C1129 1.419 . S
C1128 C1126 1.415 . S
C1128 C1133 1.425 . S
C1128 C1135 1.409 . S
C1129 H1121 0.930 1_565 S
C1129 C1127 1.419 . S
C1129 C1130 1.362 . S
C1130 H1122 0.930 1_565 S
C1130 C1129 1.362 . S
C1130 C1133 1.409 . S
C1131 H1123 0.930 . S
C1131 C1132 1.355 . S
C1131 C1133 1.415 . S
C1132 C1131 1.355 . S
C1132 C1134 1.419 . S
C1133 C1128 1.425 . S
C1133 C1130 1.409 . S
C1133 C1131 1.415 . S
C1134 H1124 0.930 . S
C1134 C1132 1.419 . S
C1134 C1135 1.362 . S
C1135 H1125 0.930 . S
C1135 C1128 1.409 . S
C1135 C1134 1.362 . S
H1136 C1142 0.930 . S
H1137 C1145 0.930 1_556 S
H1138 C1146 0.930 . S
H1139 C1147 0.930 . S
H1140 C1150 0.930 . S
H1141 C1151 0.930 . S
C1142 H1136 0.930 . S
C1142 C1143 1.355 1_554 S
C1142 C1144 1.415 . S
C1143 C1142 1.355 1_556 S
C1143 C1145 1.419 1_556 S
C1144 C1142 1.415 . S
C1144 C1149 1.425 . S
C1144 C1151 1.409 . S
C1145 H1137 0.930 1_554 S
C1145 C1143 1.419 1_554 S
C1145 C1146 1.362 . S
C1146 H1138 0.930 . S
C1146 C1145 1.362 . S
C1146 C1149 1.409 . S
C1147 H1139 0.930 . S
C1147 C1148 1.355 . S
C1147 C1149 1.415 . S
C1148 C1147 1.355 . S
C1148 C1150 1.419 . S
C1149 C1144 1.425 . S
C1149 C1146 1.409 . S
C1149 C1147 1.415 . S
C1150 H1140 0.930 . S
C1150 C1148 1.419 . S
C1150 C1151 1.362 . S
C1151 H1141 0.930 . S
C1151 C1144 1.409 . S
C1151 C1150 1.362 . S
H1152 C1158 0.930 . S
H1153 C1161 0.930 . S
H1154 C1162 0.930 . S
H1155 C1163 0.930 . S
H1156 C1166 0.930 . S
H1157 C1167 0.930 . S
C1158 H1152 0.930 . S
C1158 C1159 1.355 . S
C1158 C1160 1.415 . S
C1159 C1158 1.355 . S
C1159 C1161 1.419 . S
C1160 C1158 1.415 . S
C1160 C1165 1.425 . S
C1160 C1167 1.409 . S
C1161 H1153 0.930 . S
C1161 C1159 1.419 . S
C1161 C1162 1.362 . S
C1162 H1154 0.930 . S
C1162 C1161 1.362 . S
C1162 C1165 1.409 . S
C1163 H1155 0.930 . S
C1163 C1164 1.355 . S
C1163 C1165 1.415 . S
C1164 C1163 1.355 . S
C1164 C1166 1.419 . S
C1165 C1160 1.425 . S
C1165 C1162 1.409 . S
C1165 C1163 1.415 . S
C1166 H1156 0.930 . S
C1166 C1164 1.419 . S
C1166 C1167 1.362 . S
C1167 H1157 0.930 . S
C1167 C1160 1.409 . S
C1167 C1166 1.362 . S
C535 C17 1.542 . S
C540 C512 1.512 . S
C551 C50 1.512 . S
C556 C413 1.542 . S
C567 C446 1.517 . S
C572 C83 1.537 . S
C583 C116 1.515 . S
C588 C479 1.539 . S
C599 C314 1.512 . S
C604 C149 1.542 . S
C615 C347 1.519 . S
C620 C182 1.535 . S
C631 C380 1.539 . S
C636 C215 1.515 . S
C647 C281 1.518 . S
C652 C248 1.536 . S
C663 C8 1.402 . S
C668 C239 1.369 . S
C679 C41 1.368 . S
C684 C140 1.415 . S
C695 C74 1.400 . S
C700 C173 1.370 . S
C711 C107 1.390 . S
C716 C206 1.376 . S
C727 C503 1.391 . S
C732 C272 1.412 . S
C743 C404 1.417 . S
C748 C305 1.380 . S
C759 C437 1.383 . S
C764 C338 1.416 . S
C775 C371 1.409 . S
C780 C470 1.367 . S
C791 C28 1.063 . S
C796 C160 1.068 . S
C807 C193 1.068 . S
C812 C61 1.063 . S
C823 C226 1.089 . S
C828 C94 1.082 . S
C839 C127 1.068 . S
C844 C259 1.063 . S
C855 C424 1.078 . S
C860 C292 1.088 . S
C871 C325 1.089 . S
C876 C457 1.081 . S
C887 C358 1.064 . S
C892 C490 1.071 . S
C903 C523 1.076 . S
C908 C391 1.066 . S
C919 N14 1.375 . S
C924 N5 1.378 . S
C935 N38 1.401 . S
C940 N47 1.398 . S
C951 N80 1.360 . S
C956 N71 1.368 . S
C967 N104 1.374 . S
C972 N113 1.366 . S
C983 N146 1.394 . S
C988 N137 1.399 . S
C999 N179 1.377 . S
C1004 N170 1.379 . S
C1015 N212 1.402 . S
C1020 N203 1.404 . S
C1031 N245 1.374 . S
C1036 N236 1.382 . S
C1047 N269 1.372 . S
C1052 N278 1.367 . S
C1063 N302 1.403 . S
C1068 N311 1.403 . S
C1079 N335 1.384 . S
C1084 N344 1.383 . S
C1095 N368 1.375 . S
C1100 N377 1.372 . S
C1111 N410 1.401 . S
C1116 N401 1.403 . S
C1127 N443 1.362 . S
C1132 N434 1.371 . S
C1143 N467 1.387 . S
C1148 N476 1.380 . S
C1159 N500 1.370 . S
C1164 N509 1.362 . S
