# Generated by pormake.
# Topology wjd, (6)-cn, num edge types: 1
# Building blocks:
#     Node 0, Type 0, BuildingBlock: CUWYAW_clean_sbu_0, # of connection points: 6
#     Node 1, Type 0, BuildingBlock: CUWYAW_clean_sbu_0, # of connection points: 6
#     Node 2, Type 0, BuildingBlock: CUWYAW_clean_sbu_0, # of connection points: 6
#     Node 3, Type 0, BuildingBlock: CUWYAW_clean_sbu_0, # of connection points: 6
#     Node 4, Type 0, BuildingBlock: CUWYAW_clean_sbu_0, # of connection points: 6
#     Node 5, Type 0, BuildingBlock: CUWYAW_clean_sbu_0, # of connection points: 6
#     Node 6, Type 0, BuildingBlock: CUWYAW_clean_sbu_0, # of connection points: 6
#     Node 7, Type 0, BuildingBlock: CUWYAW_clean_sbu_0, # of connection points: 6
#     Node 8, Type 0, BuildingBlock: CUWYAW_clean_sbu_0, # of connection points: 6
#     Node 9, Type 0, BuildingBlock: CUWYAW_clean_sbu_0, # of connection points: 6
#     Node 10, Type 0, BuildingBlock: CUWYAW_clean_sbu_0, # of connection points: 6
#     Node 11, Type 0, BuildingBlock: CUWYAW_clean_sbu_0, # of connection points: 6
#     Edge 12, Type (0, 0), BuildingBlock: KIFKEQ_clean_linker_1, # of connection points: 2
#     Edge 13, Type (0, 0), BuildingBlock: KIFKEQ_clean_linker_1, # of connection points: 2
#     Edge 14, Type (0, 0), BuildingBlock: KIFKEQ_clean_linker_1, # of connection points: 2
#     Edge 15, Type (0, 0), BuildingBlock: KIFKEQ_clean_linker_1, # of connection points: 2
#     Edge 16, Type (0, 0), BuildingBlock: KIFKEQ_clean_linker_1, # of connection points: 2
#     Edge 17, Type (0, 0), BuildingBlock: KIFKEQ_clean_linker_1, # of connection points: 2
#     Edge 18, Type (0, 0), BuildingBlock: KIFKEQ_clean_linker_1, # of connection points: 2
#     Edge 19, Type (0, 0), BuildingBlock: KIFKEQ_clean_linker_1, # of connection points: 2
#     Edge 20, Type (0, 0), BuildingBlock: KIFKEQ_clean_linker_1, # of connection points: 2
#     Edge 21, Type (0, 0), BuildingBlock: KIFKEQ_clean_linker_1, # of connection points: 2
#     Edge 22, Type (0, 0), BuildingBlock: KIFKEQ_clean_linker_1, # of connection points: 2
#     Edge 23, Type (0, 0), BuildingBlock: KIFKEQ_clean_linker_1, # of connection points: 2
#     Edge 24, Type (0, 0), BuildingBlock: KIFKEQ_clean_linker_1, # of connection points: 2
#     Edge 25, Type (0, 0), BuildingBlock: KIFKEQ_clean_linker_1, # of connection points: 2
#     Edge 26, Type (0, 0), BuildingBlock: KIFKEQ_clean_linker_1, # of connection points: 2
#     Edge 27, Type (0, 0), BuildingBlock: KIFKEQ_clean_linker_1, # of connection points: 2
#     Edge 28, Type (0, 0), BuildingBlock: KIFKEQ_clean_linker_1, # of connection points: 2
#     Edge 29, Type (0, 0), BuildingBlock: KIFKEQ_clean_linker_1, # of connection points: 2
#     Edge 30, Type (0, 0), BuildingBlock: KIFKEQ_clean_linker_1, # of connection points: 2
#     Edge 31, Type (0, 0), BuildingBlock: KIFKEQ_clean_linker_1, # of connection points: 2
#     Edge 32, Type (0, 0), BuildingBlock: KIFKEQ_clean_linker_1, # of connection points: 2
#     Edge 33, Type (0, 0), BuildingBlock: KIFKEQ_clean_linker_1, # of connection points: 2
#     Edge 34, Type (0, 0), BuildingBlock: KIFKEQ_clean_linker_1, # of connection points: 2
#     Edge 35, Type (0, 0), BuildingBlock: KIFKEQ_clean_linker_1, # of connection points: 2
#     Edge 36, Type (0, 0), BuildingBlock: KIFKEQ_clean_linker_1, # of connection points: 2
#     Edge 37, Type (0, 0), BuildingBlock: KIFKEQ_clean_linker_1, # of connection points: 2
#     Edge 38, Type (0, 0), BuildingBlock: KIFKEQ_clean_linker_1, # of connection points: 2
#     Edge 39, Type (0, 0), BuildingBlock: KIFKEQ_clean_linker_1, # of connection points: 2
#     Edge 40, Type (0, 0), BuildingBlock: KIFKEQ_clean_linker_1, # of connection points: 2
#     Edge 41, Type (0, 0), BuildingBlock: KIFKEQ_clean_linker_1, # of connection points: 2
#     Edge 42, Type (0, 0), BuildingBlock: KIFKEQ_clean_linker_1, # of connection points: 2
#     Edge 43, Type (0, 0), BuildingBlock: KIFKEQ_clean_linker_1, # of connection points: 2
#     Edge 44, Type (0, 0), BuildingBlock: KIFKEQ_clean_linker_1, # of connection points: 2
#     Edge 45, Type (0, 0), BuildingBlock: KIFKEQ_clean_linker_1, # of connection points: 2
#     Edge 46, Type (0, 0), BuildingBlock: KIFKEQ_clean_linker_1, # of connection points: 2
#     Edge 47, Type (0, 0), BuildingBlock: KIFKEQ_clean_linker_1, # of connection points: 2
# Relax obj value: 0.092
# Max RMSD: 0.206
# Mean RMSD: 0.206
data_MOF--net-wjd--node1-CUWYAW_clean_sbu_0--edge1-KIFKEQ_clean_linker_1
_symmetry_space_group_name_H-M    P1
_symmetry_Int_Tables_number       1
_symmetry_cell_setting            triclinic
loop_
_symmetry_equiv_pos_as_xyz
'x, y, z'
_cell_length_a     40.907217
_cell_length_b     40.914498
_cell_length_c     51.838414
_cell_angle_alpha  90.164343
_cell_angle_beta   89.880448
_cell_angle_gamma 120.00616
loop_
_atom_site_label
_atom_site_type_symbol
_atom_site_fract_x
_atom_site_fract_y
_atom_site_fract_z
_atom_type_partial_charge
C0 C 0.28547 0.02524 0.14667 0.0
Eu1 Eu 0.33147 0.09703 0.15328 0.0
C2 C 0.24486 0.99917 0.15013 0.0
C3 C 0.22102 1.01218 0.15922 0.0
C4 C 0.18175 0.98848 0.15871 0.0
C5 C 0.16581 0.95154 0.14889 0.0
C6 C 0.19001 0.93834 0.14073 0.0
C7 C 0.22915 0.96198 0.14129 0.0
C8 C 0.34467 0.14054 0.19583 0.0
C9 C 0.2936 0.15045 0.14423 0.0
C10 C 0.42976 0.25341 0.12868 0.0
Eu11 Eu 0.38164 0.18225 0.13706 0.0
C12 C 0.46426 0.28786 0.13751 0.0
C13 C 0.49626 0.30405 0.12152 0.0
C14 C 0.52732 0.33933 0.1274 0.0
C15 C 0.5271 0.35946 0.1494 0.0
C16 C 0.49545 0.34277 0.16581 0.0
C17 C 0.46436 0.30736 0.15994 0.0
C18 C 0.352 0.12883 0.09897 0.0
C19 C 0.42171 0.13699 0.15921 0.0
O20 O 0.29367 0.05057 0.12867 0.0
O21 O 0.30608 0.03914 0.16753 0.0
O22 O 0.32446 0.10396 0.19585 0.0
O23 O 0.35648 0.15221 0.1733 0.0
O24 O 0.28846 0.11572 0.14418 0.0
O25 O 0.32744 0.18071 0.1448 0.0
O26 O 0.39882 0.24143 0.14228 0.0
O27 O 0.43329 0.22587 0.11868 0.0
O28 O 0.35328 0.16106 0.09744 0.0
O29 O 0.3664 0.12717 0.11984 0.0
O30 O 0.42273 0.16979 0.15765 0.0
O31 O 0.39027 0.10431 0.15516 0.0
H32 H 0.23273 0.04105 0.16583 0.0
H33 H 0.1639 0.99954 0.165 0.0
H34 H 0.17866 0.90983 0.13349 0.0
H35 H 0.24713 0.95158 0.13403 0.0
H36 H 0.49674 0.29 0.10389 0.0
H37 H 0.55092 0.35147 0.11412 0.0
H38 H 0.49452 0.35726 0.18308 0.0
H39 H 0.44006 0.29582 0.17262 0.0
C40 C 0.85603 0.61436 0.44762 0.0
Eu41 Eu 0.83274 0.661 0.43483 0.0
C42 C 0.85729 0.57997 0.44072 0.0
C43 C 0.85673 0.55659 0.46062 0.0
C44 C 0.86255 0.52637 0.45533 0.0
C45 C 0.86915 0.51883 0.42995 0.0
C46 C 0.86837 0.54153 0.40984 0.0
C47 C 0.8626 0.57192 0.41518 0.0
C48 C 0.81217 0.69709 0.47027 0.0
C49 C 0.74548 0.61754 0.41551 0.0
C50 C 0.77348 0.75668 0.41723 0.0
Eu51 Eu 0.79665 0.708 0.41435 0.0
C52 C 0.78914 0.7969 0.41087 0.0
C53 C 0.76504 0.81185 0.40874 0.0
C54 C 0.77991 0.85072 0.40557 0.0
C55 C 0.81923 0.87543 0.40468 0.0
C56 C 0.84327 0.86017 0.40615 0.0
C57 C 0.82834 0.82126 0.4091 0.0
C58 C 0.8218 0.68606 0.37316 0.0
C59 C 0.88877 0.74596 0.41858 0.0
O60 O 0.87547 0.64432 0.4333 0.0
O61 O 0.82397 0.61066 0.45563 0.0
O62 O 0.84306 0.69573 0.47205 0.0
O63 O 0.79445 0.67943 0.45057 0.0
O64 O 0.77732 0.61665 0.41761 0.0
O65 O 0.74471 0.64961 0.41679 0.0
O66 O 0.79068 0.75004 0.43604 0.0
O67 O 0.7647 0.73286 0.39796 0.0
O68 O 0.80454 0.70534 0.37143 0.0
O69 O 0.82434 0.67877 0.39652 0.0
O70 O 0.85953 0.75164 0.41898 0.0
O71 O 0.88463 0.71208 0.4211 0.0
H72 H 0.85276 0.56233 0.48046 0.0
H73 H 0.86219 0.50906 0.47122 0.0
H74 H 0.87346 0.53659 0.39009 0.0
H75 H 0.86329 0.58967 0.39948 0.0
H76 H 0.73475 0.79359 0.41026 0.0
H77 H 0.76062 0.86159 0.40478 0.0
H78 H 0.87362 0.87834 0.40524 0.0
H79 H 0.84746 0.8103 0.41067 0.0
C80 C 1.01802 0.26874 0.14509 0.0
Eu81 Eu 0.94625 0.24394 0.15078 0.0
C82 C 0.04393 0.2542 0.14935 0.0
C83 C 0.08231 0.27729 0.1438 0.0
C84 C 0.10649 0.26241 0.14399 0.0
C85 C 0.09265 0.22403 0.14959 0.0
C86 C 0.05436 0.2013 0.15622 0.0
C87 C 0.03014 0.21626 0.15602 0.0
C88 C 0.90204 0.21509 0.19308 0.0
C89 C 0.89146 0.15279 0.14416 0.0
C90 C 0.79178 0.18873 0.12319 0.0
Eu91 Eu 0.86219 0.21006 0.13334 0.0
C92 C 0.75671 0.18702 0.13262 0.0
C93 C 0.73998 0.2032 0.11764 0.0
C94 C 0.70453 0.19811 0.12414 0.0
C95 C 0.68476 0.17651 0.14579 0.0
C96 C 0.70194 0.161 0.16116 0.0
C97 C 0.73753 0.16619 0.15466 0.0
C98 C 0.91667 0.23293 0.09592 0.0
C99 C 0.90707 0.29467 0.15664 0.0
O100 O 0.99294 0.25123 0.12696 0.0
O101 O 1.00394 0.27627 0.16554 0.0
O102 O 0.93858 0.2309 0.19336 0.0
O103 O 0.89057 0.21482 0.1704 0.0
O104 O 0.92645 0.18172 0.14251 0.0
O105 O 0.86184 0.15743 0.14439 0.0
O106 O 0.80273 0.16717 0.13439 0.0
O107 O 0.82004 0.2216 0.11635 0.0
O108 O 0.88443 0.20201 0.09429 0.0
O109 O 0.91785 0.24932 0.11659 0.0
O110 O 0.87426 0.26297 0.15476 0.0
O111 O 0.93969 0.29584 0.15256 0.0
H112 H 0.09338 0.30657 0.13851 0.0
H113 H 0.13598 0.28085 0.13928 0.0
H114 H 0.0428 0.17164 0.16051 0.0
H115 H 1.00043 0.19792 0.16014 0.0
H116 H 0.75385 0.21889 0.10034 0.0
H117 H 0.69205 0.21005 0.11163 0.0
H118 H 0.68776 0.14461 0.17814 0.0
H119 H 0.74957 0.15319 0.16658 0.0
C120 C 0.41963 0.24944 0.44923 0.0
Eu121 Eu 0.37392 0.17865 0.43743 0.0
C122 C 0.4511 0.28609 0.44011 0.0
C123 C 0.44631 0.31776 0.44031 0.0
C124 C 0.47634 0.35363 0.43433 0.0
C125 C 0.51213 0.35885 0.42809 0.0
C126 C 0.51665 0.32689 0.42718 0.0
C127 C 0.48649 0.29089 0.43318 0.0
C128 C 0.33923 0.1222 0.47318 0.0
C129 C 0.41902 0.13632 0.41817 0.0
C130 C 0.28135 0.02271 0.4201 0.0
Eu131 Eu 0.32867 0.09487 0.41729 0.0
C132 C 0.24128 0.99757 0.41361 0.0
C133 C 0.21669 1.01199 0.41086 0.0
C134 C 0.17789 0.98757 0.40769 0.0
C135 C 0.16299 0.94828 0.40699 0.0
C136 C 0.18795 0.93407 0.4089 0.0
C137 C 0.22671 0.95851 0.41227 0.0
C138 C 0.35008 0.14165 0.376 0.0
C139 C 0.2891 0.1472 0.41997 0.0
O140 O 0.38656 0.23718 0.43853 0.0
O141 O 0.42653 0.22222 0.45469 0.0
O142 O 0.33998 0.15416 0.47496 0.0
O143 O 0.35696 0.12243 0.45345 0.0
O144 O 0.41897 0.16864 0.42004 0.0
O145 O 0.38757 0.10304 0.4199 0.0
O146 O 0.28743 0.04646 0.43895 0.0
O147 O 0.3051 0.03813 0.40086 0.0
O148 O 0.33159 0.10508 0.37425 0.0
O149 O 0.35669 0.1515 0.39938 0.0
O150 O 0.28417 0.11273 0.4221 0.0
O151 O 0.32276 0.1776 0.42149 0.0
H152 H 0.41938 0.3149 0.44567 0.0
H153 H 0.47155 0.37736 0.43482 0.0
H154 H 0.54385 0.32982 0.42267 0.0
H155 H 0.49114 0.26705 0.43295 0.0
H156 H 0.22735 0.04209 0.41182 0.0
H157 H 0.15951 0.99943 0.406 0.0
H158 H 0.17735 0.90394 0.40872 0.0
H159 H 0.24517 0.94683 0.41455 0.0
C160 C 0.77306 0.75744 0.14181 0.0
Eu161 Eu 0.80003 0.71283 0.14991 0.0
C162 C 0.78605 0.79801 0.14385 0.0
C163 C 0.80773 0.81995 0.16479 0.0
C164 C 0.82184 0.85902 0.16506 0.0
C165 C 0.81474 0.87676 0.14432 0.0
C166 C 0.79331 0.85452 0.12333 0.0
C167 C 0.77906 0.81562 0.12317 0.0
C168 C 0.8304 0.7008 0.19274 0.0
C169 C 0.89156 0.752 0.14066 0.0
C170 C 0.86051 0.61611 0.12646 0.0
Eu171 Eu 0.83643 0.66355 0.13426 0.0
C172 C 0.86044 0.58174 0.13551 0.0
C173 C 0.84453 0.54946 0.11977 0.0
C174 C 0.84873 0.51849 0.12589 0.0
C175 C 0.86917 0.51911 0.14786 0.0
C176 C 0.88425 0.55106 0.16403 0.0
C177 C 0.87995 0.58204 0.15792 0.0
C178 C 0.81173 0.6916 0.09585 0.0
C179 C 0.75106 0.62276 0.15686 0.0
O180 O 0.79057 0.74892 0.12422 0.0
O181 O 0.76667 0.7379 0.16317 0.0
O182 O 0.81361 0.72064 0.19251 0.0
O183 O 0.83076 0.68889 0.17027 0.0
O184 O 0.86162 0.75657 0.14105 0.0
O185 O 0.88869 0.71847 0.1411 0.0
O186 O 0.87875 0.64702 0.14022 0.0
O187 O 0.82967 0.61231 0.11594 0.0
O188 O 0.84314 0.69115 0.09444 0.0
O189 O 0.79586 0.67741 0.11684 0.0
O190 O 0.78309 0.6222 0.15504 0.0
O191 O 0.7492 0.65379 0.15263 0.0
H192 H 0.81403 0.80702 0.18078 0.0
H193 H 0.83796 0.87522 0.18161 0.0
H194 H 0.78793 0.86724 0.10678 0.0
H195 H 0.76305 0.79928 0.10659 0.0
H196 H 0.82993 0.54865 0.10216 0.0
H197 H 0.83716 0.49463 0.1128 0.0
H198 H 0.89974 0.55229 0.18126 0.0
H199 H 0.8928 0.60658 0.17041 0.0
C200 C 0.7876 0.17885 0.44538 0.0
Eu201 Eu 0.85839 0.20345 0.43436 0.0
C202 C 0.75249 0.17902 0.43909 0.0
C203 C 0.72981 0.17888 0.45944 0.0
C204 C 0.69407 0.17408 0.45464 0.0
C205 C 0.68009 0.16922 0.42931 0.0
C206 C 0.70347 0.17081 0.40879 0.0
C207 C 0.73933 0.17554 0.41363 0.0
C208 C 0.91307 0.22382 0.47107 0.0
C209 C 0.90258 0.29134 0.4162 0.0
C210 C 1.01495 0.26613 0.42195 0.0
Eu211 Eu 0.9432 0.24142 0.41608 0.0
C212 C 0.04141 0.25197 0.4179 0.0
C213 C 0.04107 0.23276 0.39529 0.0
C214 C 0.06462 0.21711 0.39309 0.0
C215 C 0.08842 0.21993 0.4136 0.0
C216 C 0.0888 0.23945 0.43605 0.0
C217 C 0.06563 0.25536 0.43813 0.0
C218 C 0.89835 0.21765 0.37383 0.0
C219 C 0.88992 0.14895 0.41874 0.0
O220 O 0.79907 0.1619 0.4293 0.0
O221 O 0.8154 0.20907 0.45598 0.0
O222 O 0.8812 0.19236 0.47194 0.0
O223 O 0.91392 0.24193 0.45144 0.0
O224 O 0.8699 0.2593 0.41779 0.0
O225 O 0.93558 0.2926 0.4182 0.0
O226 O 0.98976 0.24857 0.43999 0.0
O227 O 1.00106 0.27409 0.40163 0.0
O228 O 0.93503 0.2354 0.37283 0.0
O229 O 0.8875 0.21398 0.39702 0.0
O230 O 0.92467 0.17855 0.41951 0.0
O231 O 0.85969 0.15235 0.42115 0.0
H232 H 0.73934 0.18142 0.47922 0.0
H233 H 0.67718 0.17377 0.47086 0.0
H234 H 0.69354 0.16707 0.38906 0.0
H235 H 0.75626 0.17542 0.39758 0.0
H236 H 1.02222 0.22928 0.37955 0.0
H237 H 0.0636 0.20207 0.37561 0.0
H238 H 0.10719 0.24259 0.45203 0.0
H239 H 0.06614 0.26982 0.45581 0.0
C240 C 0.25893 0.41392 0.62112 0.0
Eu241 Eu 0.18863 0.36597 0.63208 0.0
C242 C 0.29311 0.44907 0.62923 0.0
C243 C 0.31033 0.47907 0.61169 0.0
C244 C 0.34519 0.51079 0.61737 0.0
C245 C 0.36377 0.51318 0.6407 0.0
C246 C 0.34603 0.48353 0.65858 0.0
C247 C 0.31102 0.4518 0.65292 0.0
C248 C 0.13281 0.33309 0.59591 0.0
C249 C 0.14454 0.40787 0.65375 0.0
C250 C 0.03356 0.26945 0.64855 0.0
Eu251 Eu 0.10539 0.31734 0.65167 0.0
C252 C 1.00947 0.22921 0.65486 0.0
C253 C 0.97068 0.21422 0.65877 0.0
C254 C 0.94713 0.1754 0.66247 0.0
C255 C 0.962 0.15092 0.66212 0.0
C256 C 1.00106 0.16622 0.65883 0.0
C257 C 1.0246 0.20503 0.65537 0.0
C258 C 0.15158 0.33455 0.69299 0.0
C259 C 0.1586 0.27896 0.64243 0.0
O260 O 0.24815 0.38375 0.63528 0.0
O261 O 0.23059 0.41651 0.61175 0.0
O262 O 0.16513 0.33469 0.59365 0.0
O263 O 0.13223 0.34901 0.61643 0.0
O264 O 0.17733 0.409 0.65131 0.0
O265 O 0.11182 0.37584 0.65169 0.0
O266 O 0.05734 0.27643 0.62955 0.0
O267 O 0.04859 0.29298 0.66798 0.0
O268 O 0.11506 0.31444 0.6942 0.0
O269 O 0.16202 0.34444 0.66996 0.0
O270 O 0.12394 0.27383 0.6439 0.0
O271 O 0.18871 0.31275 0.6407 0.0
H272 H 0.29737 0.47745 0.59317 0.0
H273 H 0.35822 0.53285 0.60302 0.0
H274 H 0.35936 0.48471 0.67685 0.0
H275 H 0.2985 0.42909 0.66685 0.0
H276 H 0.95848 0.2324 0.65833 0.0
H277 H 0.91708 0.16439 0.66471 0.0
H278 H 1.01337 0.14813 0.65874 0.0
H279 H 0.0545 0.21603 0.65247 0.0
C280 C 0.28179 1.01488 0.92771 0.0
Eu281 Eu 0.25637 0.9435 0.91911 0.0
C282 C 0.26931 0.04239 0.92299 0.0
C283 C 0.24008 0.03468 0.90556 0.0
C284 C 0.22634 0.0598 0.90311 0.0
C285 C 0.24147 0.09292 0.91816 0.0
C286 C 0.27078 0.1003 0.93558 0.0
C287 C 0.28452 0.07531 0.93793 0.0
C288 C 0.22988 0.90375 0.87479 0.0
C289 C 0.16468 0.89043 0.92102 0.0
C290 C 0.19425 0.78708 0.94228 0.0
Eu291 Eu 0.21915 0.85861 0.93345 0.0
C292 C 0.1885 0.75059 0.93229 0.0
C293 C 0.15165 0.71959 0.93127 0.0
C294 C 0.14524 0.68349 0.92537 0.0
C295 C 0.17558 0.67738 0.92043 0.0
C296 C 0.21248 0.70871 0.92051 0.0
C297 C 0.21891 0.74494 0.92645 0.0
C298 C 0.24112 0.91034 0.97274 0.0
C299 C 0.30589 0.90263 0.91413 0.0
O300 O 0.26092 0.9882 0.94411 0.0
O301 O 0.29199 1.00237 0.90765 0.0
O302 O 0.24699 0.94031 0.87626 0.0
O303 O 0.22729 0.88957 0.89692 0.0
O304 O 0.19381 0.92464 0.92537 0.0
O305 O 0.16873 0.86054 0.91943 0.0
O306 O 0.17337 0.79999 0.93267 0.0
O307 O 0.22852 0.81389 0.9479 0.0
O308 O 0.20913 0.87905 0.97274 0.0
O309 O 0.25857 0.91216 0.95253 0.0
O310 O 0.27359 0.87017 0.91444 0.0
O311 O 0.30739 0.93537 0.91846 0.0
H312 H 0.22757 1.00903 0.89414 0.0
H313 H 0.20401 0.05334 0.88936 0.0
H314 H 0.28262 0.12504 0.94787 0.0
H315 H 0.30656 0.08131 0.95186 0.0
H316 H 0.12771 0.72308 0.93585 0.0
H317 H 0.11644 0.6602 0.92508 0.0
H318 H 0.23656 0.70504 0.917 0.0
H319 H 0.24769 0.76821 0.92724 0.0
C320 C 0.62494 0.85339 0.62565 0.0
Eu321 Eu 0.67069 0.82755 0.63441 0.0
C322 C 0.58979 0.8527 0.63364 0.0
C323 C 0.56003 0.84041 0.61592 0.0
C324 C 0.52832 0.84362 0.62156 0.0
C325 C 0.52561 0.85939 0.64508 0.0
C326 C 0.55513 0.87105 0.66306 0.0
C327 C 0.5869 0.86775 0.65742 0.0
C328 C 0.70309 0.80692 0.59636 0.0
C329 C 0.62572 0.7393 0.65199 0.0
C330 C 0.7619 0.76131 0.6427 0.0
Eu331 Eu 0.71605 0.78703 0.65054 0.0
C332 C 0.80265 0.77582 0.64568 0.0
C333 C 0.82353 0.80119 0.66549 0.0
C334 C 0.8629 0.81774 0.66617 0.0
C335 C 0.88202 0.80964 0.64682 0.0
C336 C 0.86088 0.78404 0.62715 0.0
C337 C 0.8216 0.76729 0.62662 0.0
C338 C 0.69709 0.81099 0.69381 0.0
C339 C 0.75714 0.87963 0.64938 0.0
O340 O 0.65433 0.86998 0.64092 0.0
O341 O 0.62195 0.82345 0.61415 0.0
O342 O 0.70363 0.83888 0.59628 0.0
O343 O 0.68594 0.78851 0.61598 0.0
O344 O 0.6261 0.77189 0.65111 0.0
O345 O 0.65671 0.73692 0.64896 0.0
O346 O 0.75348 0.77879 0.62515 0.0
O347 O 0.74125 0.75381 0.66366 0.0
O348 O 0.71501 0.7922 0.694 0.0
O349 O 0.68965 0.81536 0.67087 0.0
O350 O 0.76136 0.84955 0.6475 0.0
O351 O 0.72391 0.87729 0.64777 0.0
H352 H 0.56177 0.8293 0.59729 0.0
H353 H 0.50646 0.83485 0.60708 0.0
H354 H 0.55378 0.88291 0.68147 0.0
H355 H 0.60946 0.87772 0.67146 0.0
H356 H 0.80952 0.80882 0.68009 0.0
H357 H 0.87846 0.83755 0.68147 0.0
H358 H 0.87471 0.77683 0.61218 0.0
H359 H 0.80602 0.74822 0.61096 0.0
C360 C 0.035 0.27965 0.92302 0.0
Eu361 Eu 0.10662 0.32694 0.9164 0.0
C362 C 1.00878 0.23877 0.91975 0.0
C363 C 1.0086 0.21922 0.89736 0.0
C364 C 0.98519 0.17992 0.89581 0.0
C365 C 0.96198 0.15948 0.91673 0.0
C366 C 0.96219 0.17928 0.93899 0.0
C367 C 0.98525 0.21846 0.94044 0.0
C368 C 0.15047 0.3464 0.87356 0.0
C369 C 0.16005 0.28852 0.91777 0.0
C370 C 0.2627 0.42036 0.94389 0.0
Eu371 Eu 0.19151 0.37391 0.93372 0.0
C372 C 0.29929 0.45135 0.93427 0.0
C373 C 0.33064 0.44602 0.93395 0.0
C374 C 0.36664 0.47581 0.92799 0.0
C375 C 0.37233 0.51188 0.92228 0.0
C376 C 0.34068 0.51693 0.92175 0.0
C377 C 0.30454 0.48701 0.92776 0.0
C378 C 0.13726 0.34121 0.97121 0.0
C379 C 0.14757 0.41743 0.91484 0.0
O380 O 0.06046 0.2883 0.94098 0.0
O381 O 0.04849 0.30072 0.90232 0.0
O382 O 0.11378 0.32761 0.87308 0.0
O383 O 0.16198 0.35437 0.89657 0.0
O384 O 0.12549 0.28307 0.92111 0.0
O385 O 0.19011 0.32249 0.91792 0.0
O386 O 0.25013 0.38677 0.93388 0.0
O387 O 0.23565 0.42757 0.94936 0.0
O388 O 0.16909 0.3416 0.9721 0.0
O389 O 0.13647 0.35788 0.95128 0.0
O390 O 0.18012 0.41775 0.9161 0.0
O391 O 0.1145 0.3859 0.91757 0.0
H392 H 0.0269 0.23415 0.88126 0.0
H393 H 0.98582 0.16544 0.87845 0.0
H394 H 0.94427 0.1645 0.95528 0.0
H395 H 0.98513 0.23292 0.95796 0.0
H396 H 0.32745 0.41889 0.93902 0.0
H397 H 0.39016 0.47067 0.92818 0.0
H398 H 0.344 0.54436 0.91764 0.0
H399 H 0.28097 0.4921 0.92796 0.0
C400 C 0.18378 0.77539 0.62359 0.0
Eu401 Eu 0.20946 0.8466 0.63434 0.0
C402 C 0.18412 0.7403 0.63002 0.0
C403 C 0.18407 0.71741 0.60981 0.0
C404 C 0.17941 0.68173 0.6148 0.0
C405 C 0.17458 0.66795 0.64019 0.0
C406 C 0.17599 0.69152 0.66055 0.0
C407 C 0.1806 0.7273 0.65552 0.0
C408 C 0.23006 0.90052 0.59663 0.0
C409 C 0.29558 0.88834 0.65549 0.0
C410 C 0.27316 0.99932 0.65553 0.0
Eu411 Eu 0.24284 0.9264 0.65233 0.0
C412 C 0.25698 0.02468 0.65502 0.0
C413 C 0.26491 0.05105 0.67486 0.0
C414 C 0.2502 0.07552 0.67405 0.0
C415 C 0.22757 0.0743 0.65322 0.0
C416 C 0.2192 0.04747 0.63362 0.0
C417 C 0.23353 0.02287 0.63455 0.0
C418 C 0.2036 0.87513 0.68999 0.0
C419 C 0.15434 0.87866 0.64097 0.0
O420 O 0.16774 0.78744 0.63999 0.0
O421 O 0.21349 0.80286 0.61233 0.0
O422 O 0.19837 0.86895 0.59632 0.0
O423 O 0.24808 0.90166 0.61632 0.0
O424 O 0.26544 0.85624 0.64878 0.0
O425 O 0.29483 0.92029 0.65753 0.0
O426 O 0.27051 0.98136 0.63401 0.0
O427 O 0.26617 0.9779 0.67589 0.0
O428 O 0.20283 0.90601 0.68604 0.0
O429 O 0.22541 0.87249 0.67383 0.0
O430 O 0.18466 0.91215 0.63739 0.0
O431 O 0.15759 0.84869 0.64483 0.0
H432 H 0.1866 0.72673 0.58998 0.0
H433 H 0.17926 0.66478 0.59867 0.0
H434 H 0.17222 0.68183 0.68033 0.0
H435 H 0.18037 0.74431 0.6715 0.0
H436 H 0.28277 0.05295 0.69087 0.0
H437 H 0.25734 0.09606 0.68936 0.0
H438 H 0.20146 0.04547 0.61751 0.0
H439 H 0.22638 1.0026 0.61905 0.0
C440 C 0.76867 0.76778 0.92619 0.0
Eu441 Eu 0.72274 0.79348 0.91873 0.0
C442 C 0.80889 0.78062 0.92212 0.0
C443 C 0.83132 0.81105 0.90576 0.0
C444 C 0.87033 0.82509 0.90414 0.0
C445 C 0.88756 0.80907 0.91899 0.0
C446 C 0.86473 0.77857 0.93533 0.0
C447 C 0.82585 0.76453 0.93684 0.0
C448 C 0.70811 0.82104 0.87559 0.0
C449 C 0.76119 0.88509 0.92278 0.0
C450 C 0.62756 0.85431 0.9447 0.0
Eu451 Eu 0.67449 0.82993 0.93509 0.0
C452 C 0.59698 0.86031 0.9348 0.0
C453 C 0.60253 0.89706 0.93487 0.0
C454 C 0.57298 0.90357 0.92879 0.0
C455 C 0.53697 0.87342 0.92258 0.0
C456 C 0.53174 0.83667 0.92163 0.0
C457 C 0.5614 0.83014 0.92776 0.0
C458 C 0.70436 0.80639 0.97319 0.0
C459 C 0.63222 0.74378 0.91418 0.0
O460 O 0.76201 0.78724 0.94337 0.0
O461 O 0.74695 0.75923 0.90574 0.0
O462 O 0.72808 0.8044 0.8759 0.0
O463 O 0.6972 0.82285 0.89815 0.0
O464 O 0.7663 0.85574 0.92568 0.0
O465 O 0.72721 0.88117 0.92211 0.0
O466 O 0.66153 0.87561 0.9354 0.0
O467 O 0.6201 0.81988 0.94968 0.0
O468 O 0.7042 0.83793 0.97442 0.0
O469 O 0.68911 0.79001 0.95261 0.0
O470 O 0.6318 0.77592 0.91547 0.0
O471 O 0.66365 0.74235 0.91775 0.0
H472 H 0.81875 0.82426 0.89457 0.0
H473 H 0.88694 0.84836 0.89121 0.0
H474 H 0.87699 0.766 0.94746 0.0
H475 H 0.8091 0.74157 0.94999 0.0
H476 H 0.62959 0.9208 0.94036 0.0
H477 H 0.57827 0.93228 0.92931 0.0
H478 H 0.50432 0.81273 0.91712 0.0
H479 H 0.55615 0.80144 0.92766 0.0
H480 H 0.09838 0.17393 0.18204 0.0
H481 H 0.14356 0.23671 0.11152 0.0
H482 H 0.14358 0.15123 0.17922 0.0
H483 H 0.18833 0.21417 0.10874 0.0
H484 H 0.29543 0.21644 0.1346 0.0
H485 H 0.24399 0.2294 0.13505 0.0
H486 H 0.16554 0.11263 0.15277 0.0
H487 H 0.21794 0.09932 0.15261 0.0
C488 C 0.11759 0.18249 0.1658 0.0
C489 C 0.11794 0.20777 0.1473 0.0
C490 C 0.14334 0.16937 0.16414 0.0
C491 C 0.16982 0.18131 0.14394 0.0
C492 C 0.16881 0.20508 0.12484 0.0
C493 C 0.14326 0.21815 0.1265 0.0
C494 C 0.26731 0.19327 0.13856 0.0
C495 C 0.26091 0.15676 0.14359 0.0
C496 C 0.23768 0.20074 0.13861 0.0
C497 C 0.20062 0.17202 0.14372 0.0
C498 C 0.19388 0.13536 0.14882 0.0
C499 C 0.22379 0.12771 0.14858 0.0
H500 H 0.12537 0.88474 0.37734 0.0
H501 H 0.10679 0.95233 0.43314 0.0
H502 H 0.05814 0.83855 0.37767 0.0
H503 H 0.03943 0.90579 0.43376 0.0
H504 H 0.91375 0.82248 0.41575 0.0
H505 H 0.97901 0.87396 0.41018 0.0
H506 H 1.01703 0.79268 0.40845 0.0
H507 H 0.95282 0.74193 0.41337 0.0
C508 C 0.10689 0.88975 0.38965 0.0
C509 C 0.12151 0.922 0.4054 0.0
C510 C 0.06833 0.86327 0.38987 0.0
C511 C 0.04337 0.86817 0.40602 0.0
C512 C 0.05773 0.90125 0.42095 0.0
C513 C 0.09638 0.92789 0.42063 0.0
C514 C 0.93607 0.8157 0.41402 0.0
C515 C 0.92785 0.77797 0.41501 0.0
C516 C 0.97348 0.84519 0.41094 0.0
C517 C 1.0033 0.83747 0.40863 0.0
C518 C 0.99484 0.79974 0.40959 0.0
C519 C 0.95779 0.77052 0.41268 0.0
H520 H 0.93945 0.12508 0.13353 0.0
H521 H 0.8266 0.09151 0.15977 0.0
H522 H 0.92335 0.05856 0.13391 0.0
H523 H 0.81112 0.0263 0.16061 0.0
H524 H 0.77771 0.9128 0.1279 0.0
H525 H 0.79981 0.9799 0.1278 0.0
H526 H 0.90502 1.00213 0.16229 0.0
H527 H 0.88344 0.93443 0.16129 0.0
C528 C 0.91145 0.10368 0.13957 0.0
C529 C 0.88412 0.11355 0.14612 0.0
C530 C 0.90227 0.06567 0.13988 0.0
C531 C 0.86569 0.03708 0.1468 0.0
C532 C 0.83918 0.04742 0.15446 0.0
C533 C 0.84819 0.08499 0.15404 0.0
C534 C 0.80579 0.93187 0.13514 0.0
C535 C 0.82875 0.91809 0.1446 0.0
C536 C 0.81832 0.97042 0.13537 0.0
C537 C 0.85405 0.99638 0.1453 0.0
C538 C 0.87741 0.98285 0.15444 0.0
C539 C 0.86484 0.94405 0.15416 0.0
H540 H 0.21409 0.09823 0.43056 0.0
H541 H 0.29024 0.20893 0.3998 0.0
H542 H 0.16157 0.11078 0.42643 0.0
H543 H 0.23825 0.22127 0.39573 0.0
H544 H 0.13332 0.22366 0.37319 0.0
H545 H 0.17824 0.20074 0.37182 0.0
H546 H 0.14465 0.15556 0.44864 0.0
H547 H 0.09945 0.17804 0.44988 0.0
C548 C 0.21954 0.12499 0.42268 0.0
C549 C 0.25636 0.15271 0.41575 0.0
C550 C 0.18956 0.13223 0.42042 0.0
C551 C 0.19579 0.16703 0.41075 0.0
C552 C 0.23239 0.19406 0.40298 0.0
C553 C 0.26228 0.18707 0.40556 0.0
C554 C 0.13508 0.20826 0.38959 0.0
C555 C 0.11313 0.20299 0.41174 0.0
C556 C 0.16094 0.19534 0.38888 0.0
C557 C 0.16513 0.17652 0.41019 0.0
C558 C 0.14192 0.16972 0.43186 0.0
C559 C 0.11634 0.18296 0.43267 0.0
H560 H 0.11004 0.94073 0.1834 0.0
H561 H 0.12744 0.90765 0.10771 0.0
H562 H 0.0421 0.89641 0.17955 0.0
H563 H 0.06001 0.86373 0.1039 0.0
H564 H 0.95502 0.75241 0.12524 0.0
H565 H 1.01946 0.80405 0.12618 0.0
H566 H 0.98154 0.87875 0.15479 0.0
H567 H 0.91592 0.82613 0.15408 0.0
C568 C 0.09932 0.92442 0.16582 0.0
C569 C 0.12422 0.9271 0.14608 0.0
C570 C 0.06043 0.89918 0.16359 0.0
C571 C 0.04577 0.87625 0.14156 0.0
C572 C 0.07051 0.88044 0.12134 0.0
C573 C 0.10919 0.90549 0.12358 0.0
C574 C 0.96013 0.7798 0.13165 0.0
C575 C 0.93025 0.78508 0.13968 0.0
C576 C 0.99721 0.80956 0.13198 0.0
C577 C 1.00565 0.84557 0.14043 0.0
C578 C 0.97585 0.85122 0.14826 0.0
C579 C 0.93835 0.82124 0.14769 0.0
H580 H 0.79577 0.91408 0.3741 0.0
H581 H 0.87808 0.93084 0.43233 0.0
H582 H 0.81706 0.98135 0.37494 0.0
H583 H 0.89915 0.99826 0.43344 0.0
H584 H 0.94221 0.12474 0.41674 0.0
H585 H 0.92924 0.05974 0.41056 0.0
H586 H 0.80992 0.02099 0.40603 0.0
H587 H 0.82255 0.08478 0.41163 0.0
C588 C 0.81848 0.93217 0.38705 0.0
C589 C 0.83489 0.917 0.40335 0.0
C590 C 0.83072 0.97076 0.38755 0.0
C591 C 0.85949 0.9952 0.40453 0.0
C592 C 0.87714 0.98035 0.42 0.0
C593 C 0.86499 0.94167 0.41939 0.0
C594 C 0.91328 0.10229 0.41428 0.0
C595 C 0.88351 0.11016 0.41474 0.0
C596 C 0.90583 0.06506 0.41084 0.0
C597 C 0.86852 0.03513 0.40755 0.0
C598 C 0.83903 0.04328 0.40793 0.0
C599 C 0.84637 0.08009 0.41143 0.0
H600 H 0.19519 0.09625 0.69097 0.0
H601 H 0.22913 0.11454 0.61096 0.0
H602 H 0.17465 0.14309 0.68752 0.0
H603 H 0.20844 0.16086 0.60751 0.0
H604 H 0.21972 0.27676 0.62427 0.0
H605 H 0.23313 0.22536 0.62667 0.0
H606 H 0.12581 0.15538 0.66397 0.0
H607 H 0.11209 0.20736 0.66152 0.0
C608 C 0.19816 0.11018 0.67266 0.0
C609 C 0.21388 0.10177 0.65126 0.0
C610 C 0.18605 0.13667 0.67062 0.0
C611 C 0.18996 0.15566 0.64725 0.0
C612 C 0.20524 0.14684 0.62581 0.0
C613 C 0.21689 0.12015 0.62776 0.0
C614 C 0.19876 0.25041 0.63289 0.0
C615 C 0.1648 0.2462 0.64272 0.0
C616 C 0.20642 0.22085 0.63413 0.0
C617 C 0.18053 0.1863 0.64547 0.0
C618 C 0.14637 0.1818 0.65523 0.0
C619 C 0.1384 0.2114 0.65365 0.0
H620 H 0.13331 0.93092 0.94141 0.0
H621 H 0.10881 0.83576 0.89254 0.0
H622 H 0.06653 0.91368 0.93969 0.0
H623 H 0.04319 0.81939 0.89009 0.0
H624 H 0.92414 0.76856 0.91948 0.0
H625 H 0.99146 0.79185 0.91908 0.0
H626 H 1.0132 0.90638 0.91372 0.0
H627 H 0.94523 0.88298 0.91548 0.0
C628 C 0.11384 0.90682 0.92995 0.0
C629 C 0.12609 0.88428 0.91752 0.0
C630 C 0.07563 0.89694 0.9289 0.0
C631 C 0.04924 0.8646 0.9152 0.0
C632 C 0.06233 0.84371 0.9015 0.0
C633 C 0.10009 0.85325 0.9028 0.0
C634 C 0.94313 0.79875 0.91848 0.0
C635 C 0.92908 0.82382 0.9176 0.0
C636 C 0.9819 0.81215 0.91788 0.0
C637 C 1.00793 0.85106 0.91611 0.0
C638 C 0.99401 0.87628 0.91521 0.0
C639 C 0.95501 0.8628 0.9159 0.0
H640 H 0.7557 0.94371 0.66062 0.0
H641 H 0.83324 0.90228 0.64825 0.0
H642 H 0.80796 1.00683 0.66633 0.0
H643 H 0.88647 0.9666 0.65459 0.0
H644 H 0.96258 0.09575 0.63248 0.0
H645 H 0.9161 0.02838 0.63219 0.0
H646 H 0.85777 0.04514 0.69591 0.0
H647 H 0.90379 0.11246 0.69585 0.0
C648 C 0.78399 0.94794 0.65926 0.0
C649 C 0.79016 0.91775 0.65379 0.0
C650 C 0.8141 0.98432 0.66285 0.0
C651 C 0.85147 0.99183 0.66118 0.0
C652 C 0.85794 0.96172 0.65591 0.0
C653 C 0.82751 0.92491 0.65237 0.0
C654 C 0.94018 0.08487 0.64671 0.0
C655 C 0.93649 0.10945 0.66396 0.0
C656 C 0.91363 0.04624 0.6466 0.0
C657 C 0.88294 0.03143 0.6638 0.0
C658 C 0.8806 0.05577 0.68202 0.0
C659 C 0.90693 0.09433 0.682 0.0
H660 H 0.1181 0.21576 0.93599 0.0
H661 H 0.21686 0.28871 0.89091 0.0
H662 H 0.13554 0.16643 0.93446 0.0
H663 H 0.23345 0.23957 0.88853 0.0
H664 H 0.28206 0.17002 0.91937 0.0
H665 H 0.25892 0.21413 0.91785 0.0
H666 H 0.14479 0.12149 0.90908 0.0
H667 H 0.16795 0.07687 0.912 0.0
C668 C 0.14304 0.22093 0.92533 0.0
C669 C 0.16645 0.25627 0.91395 0.0
C670 C 0.15304 0.1927 0.9244 0.0
C671 C 0.18641 0.19927 0.91183 0.0
C672 C 0.20827 0.23386 0.89909 0.0
C673 C 0.1986 0.26201 0.90031 0.0
C674 C 0.25197 0.15888 0.91736 0.0
C675 C 0.22693 0.11978 0.91592 0.0
C676 C 0.23867 0.1843 0.9161 0.0
C677 C 0.19992 0.17149 0.9131 0.0
C678 C 0.17476 0.13237 0.91154 0.0
C679 C 0.18812 0.10681 0.9129 0.0
H680 H 0.09353 0.82215 0.66477 0.0
H681 H 0.12885 0.9248 0.62173 0.0
H682 H 0.0299 0.81182 0.66739 0.0
H683 H 0.06407 0.91409 0.62431 0.0
H684 H 0.93132 0.84078 0.60645 0.0
H685 H 0.99918 0.86346 0.60623 0.0
H686 H 0.99493 0.84115 0.68788 0.0
H687 H 0.92711 0.81808 0.68806 0.0
C688 C 0.08771 0.84261 0.65584 0.0
C689 C 0.11619 0.87417 0.64282 0.0
C690 C 0.05123 0.83683 0.6576 0.0
C691 C 0.04202 0.86222 0.64619 0.0
C692 C 0.07045 0.89403 0.63325 0.0
C693 C 0.10742 0.90021 0.63183 0.0
C694 C 0.94498 0.84099 0.62438 0.0
C695 C 0.92381 0.82721 0.64722 0.0
C696 C 0.98387 0.85437 0.62429 0.0
C697 C 1.00228 0.85387 0.647 0.0
C698 C 0.9814 0.8416 0.67004 0.0
C699 C 0.94262 0.82857 0.67018 0.0
H700 H 0.91699 0.11725 0.8767 0.0
H701 H 0.95065 0.10728 0.95383 0.0
H702 H 0.87216 0.04946 0.87599 0.0
H703 H 0.90537 0.03956 0.95327 0.0
H704 H 0.83587 0.91179 0.93536 0.0
H705 H 0.88826 0.97713 0.93193 0.0
H706 H 0.81216 1.01051 0.89966 0.0
H707 H 0.76041 0.94607 0.90301 0.0
C708 C 0.9152 0.10052 0.89336 0.0
C709 C 0.93713 0.11773 0.9154 0.0
C710 C 0.88935 0.06172 0.89302 0.0
C711 C 0.88503 0.03917 0.91464 0.0
C712 C 0.90816 0.05608 0.93626 0.0
C713 C 0.93379 0.09494 0.93667 0.0
C714 C 0.83052 0.9331 0.92737 0.0
C715 C 0.79391 0.92375 0.91966 0.0
C716 C 0.86043 0.97048 0.9255 0.0
C717 C 0.85435 0.99898 0.91545 0.0
C718 C 0.81794 0.98924 0.90717 0.0
C719 C 0.78815 0.95224 0.90934 0.0
H720 H 0.4061 0.15084 0.34425 0.0
H721 H 0.32174 0.18321 0.3552 0.0
H722 H 0.41209 0.1689 0.299 0.0
H723 H 0.32766 0.20171 0.30971 0.0
H724 H 0.29296 0.13641 0.22948 0.0
H725 H 0.30354 0.1556 0.27447 0.0
H726 H 0.42405 0.21156 0.26196 0.0
H727 H 0.41297 0.19225 0.21637 0.0
C728 C 0.39032 0.16379 0.33719 0.0
C729 C 0.36378 0.16604 0.35313 0.0
C730 C 0.39369 0.17415 0.31122 0.0
C731 C 0.37 0.18634 0.30055 0.0
C732 C 0.34609 0.19212 0.31726 0.0
C733 C 0.34295 0.18195 0.34335 0.0
C734 C 0.3217 0.1543 0.23609 0.0
C735 C 0.35213 0.16305 0.21955 0.0
C736 C 0.32785 0.16543 0.26193 0.0
C737 C 0.36469 0.18493 0.272 0.0
C738 C 0.39533 0.19642 0.25484 0.0
C739 C 0.38907 0.18574 0.22872 0.0
H740 H 0.77719 0.62987 0.34067 0.0
H741 H 0.89219 0.71781 0.35273 0.0
H742 H 0.79036 0.62707 0.29507 0.0
H743 H 0.90584 0.71513 0.30697 0.0
H744 H 0.87355 0.75161 0.22843 0.0
H745 H 0.88141 0.73923 0.27312 0.0
H746 H 0.82371 0.61954 0.25706 0.0
H747 H 0.81638 0.63246 0.21173 0.0
C748 C 0.80589 0.64708 0.33377 0.0
C749 C 0.83381 0.67369 0.35017 0.0
C750 C 0.81349 0.6456 0.30758 0.0
C751 C 0.84906 0.67126 0.29722 0.0
C752 C 0.87806 0.69521 0.31429 0.0
C753 C 0.87045 0.69647 0.34055 0.0
C754 C 0.864 0.72277 0.23421 0.0
C755 C 0.84459 0.69303 0.21671 0.0
C756 C 0.86857 0.7156 0.25986 0.0
C757 C 0.85304 0.67833 0.26882 0.0
C758 C 0.83593 0.64856 0.25079 0.0
C759 C 0.83202 0.6559 0.22482 0.0
H760 H 0.85214 0.23409 0.21375 0.0
H761 H 0.90371 0.1659 0.22633 0.0
H762 H 0.83263 0.22614 0.25927 0.0
H763 H 0.88431 0.15758 0.27129 0.0
H764 H 0.85554 0.14836 0.35212 0.0
H765 H 0.83798 0.13687 0.30639 0.0
H766 H 0.8754 0.25526 0.29653 0.0
H767 H 0.89257 0.26627 0.342 0.0
C768 C 0.85765 0.21592 0.22596 0.0
C769 C 0.8792 0.20041 0.21667 0.0
C770 C 0.84686 0.21165 0.25205 0.0
C771 C 0.85713 0.19144 0.26906 0.0
C772 C 0.87545 0.17293 0.25885 0.0
C773 C 0.88669 0.17773 0.23304 0.0
C774 C 0.85808 0.17139 0.34038 0.0
C775 C 0.87497 0.20809 0.35048 0.0
C776 C 0.84845 0.16497 0.31415 0.0
C777 C 0.85569 0.19522 0.29765 0.0
C778 C 0.86901 0.23121 0.30858 0.0
C779 C 0.87887 0.23759 0.33468 0.0
H780 H 0.15457 0.28641 0.72659 0.0
H781 H 0.19792 0.40484 0.71284 0.0
H782 H 0.1723 0.29932 0.77178 0.0
H783 H 0.21578 0.41823 0.75849 0.0
H784 H 0.15155 0.39615 0.83938 0.0
H785 H 0.17032 0.40175 0.79428 0.0
H786 H 0.21618 0.32847 0.8081 0.0
H787 H 0.19714 0.32309 0.85356 0.0
C788 C 0.16969 0.31551 0.73307 0.0
C789 C 0.17523 0.34465 0.71628 0.0
C790 C 0.17988 0.323 0.75904 0.0
C791 C 0.19513 0.35981 0.76894 0.0
C792 C 0.20386 0.38952 0.75153 0.0
C793 C 0.19409 0.38199 0.72533 0.0
C794 C 0.16725 0.38272 0.833 0.0
C795 C 0.17328 0.35953 0.84987 0.0
C796 C 0.1781 0.38593 0.80712 0.0
C797 C 0.19453 0.36531 0.79741 0.0
C798 C 0.20341 0.34456 0.81491 0.0
C799 C 0.19289 0.34174 0.84098 0.0
H800 H 0.23225 0.84291 0.85373 0.0
H801 H 0.19228 0.92096 0.84053 0.0
H802 H 0.21684 0.82083 0.80867 0.0
H803 H 0.17705 0.89955 0.79634 0.0
H804 H 0.14328 0.85858 0.71987 0.0
H805 H 0.13905 0.85032 0.76657 0.0
H806 H 0.24484 0.85067 0.76646 0.0
H807 H 0.24797 0.8572 0.71944 0.0
C808 C 0.21904 0.85436 0.84144 0.0
C809 C 0.21332 0.88352 0.85046 0.0
C810 C 0.21055 0.84206 0.81565 0.0
C811 C 0.19563 0.85834 0.79879 0.0
C812 C 0.18782 0.88577 0.80867 0.0
C813 C 0.19676 0.89829 0.83405 0.0
C814 C 0.16481 0.85535 0.72976 0.0
C815 C 0.19606 0.85885 0.71617 0.0
C816 C 0.1626 0.85093 0.75653 0.0
C817 C 0.19213 0.85088 0.77041 0.0
C818 C 0.22156 0.85053 0.75646 0.0
C819 C 0.22341 0.85431 0.72949 0.0
H820 H 0.64472 0.76351 0.72737 0.0
H821 H 0.72502 0.88102 0.71473 0.0
H822 H 0.64028 0.77631 0.77281 0.0
H823 H 0.7209 0.89424 0.76049 0.0
H824 H 0.75898 0.86747 0.84106 0.0
H825 H 0.74737 0.87384 0.79586 0.0
H826 H 0.62721 0.80808 0.8094 0.0
H827 H 0.63927 0.80225 0.85515 0.0
C828 C 0.66002 0.79244 0.73417 0.0
C829 C 0.68486 0.82136 0.71764 0.0
C830 C 0.65752 0.79986 0.76023 0.0
C831 C 0.68048 0.83628 0.77041 0.0
C832 C 0.70297 0.86585 0.75328 0.0
C833 C 0.70509 0.85843 0.72706 0.0
C834 C 0.73008 0.85587 0.8346 0.0
C835 C 0.70002 0.83463 0.8515 0.0
C836 C 0.72335 0.85954 0.80866 0.0
C837 C 0.68633 0.84126 0.79888 0.0
C838 C 0.65605 0.82241 0.81632 0.0
C839 C 0.66287 0.81934 0.84252 0.0
H840 H 0.20072 0.92692 1.00799 0.0
H841 H 0.31373 0.96388 0.98094 0.0
H842 H 0.22601 0.98071 0.03832 0.0
H843 H 0.33879 1.01649 1.01141 0.0
H844 H 0.36726 0.07204 0.0931 0.0
H845 H 0.33849 0.01867 0.0632 0.0
H846 H 0.26725 0.05941 1.03305 0.0
H847 H 0.29693 0.11378 0.06278 0.0
C848 C 0.23088 0.94626 1.00871 0.0
C849 C 0.25528 0.9411 0.99223 0.0
C850 C 0.24529 0.97714 1.02585 0.0
C851 C 0.28438 1.00276 1.02719 0.0
C852 C 0.30861 0.99717 1.01088 0.0
C853 C 0.29422 0.96699 0.99348 0.0
C854 C 0.34559 0.06976 0.08002 0.0
C855 C 0.33453 0.09723 0.08015 0.0
C856 C 0.32908 0.03917 0.06295 0.0
C857 C 0.30054 0.0348 0.04587 0.0
C858 C 0.28901 0.06196 0.04616 0.0
C859 C 0.30618 0.09318 0.06296 0.0
H860 H 0.85198 0.75175 0.50697 0.0
H861 H 0.7405 0.68353 0.47492 0.0
H862 H 0.82711 0.7812 0.53678 0.0
H863 H 0.7158 0.71215 0.50478 0.0
H864 H 0.68232 0.73429 0.58608 0.0
H865 H 0.71049 0.70985 0.55562 0.0
H866 H 0.79174 0.82348 0.53292 0.0
H867 H 0.76272 0.84818 0.56328 0.0
C868 C 0.82226 0.74302 0.50634 0.0
C869 C 0.79818 0.71524 0.48868 0.0
C870 C 0.8081 0.76003 0.52323 0.0
C871 C 0.7695 0.74895 0.52309 0.0
C872 C 0.7456 0.72117 0.50542 0.0
C873 C 0.75979 0.70478 0.48833 0.0
C874 C 0.70603 0.75412 0.57448 0.0
C875 C 0.72015 0.79315 0.57693 0.0
C876 C 0.72218 0.7401 0.55706 0.0
C877 C 0.75334 0.76472 0.54191 0.0
C878 C 0.76785 0.80387 0.54447 0.0
C879 C 0.75109 0.81797 0.56163 0.0
H880 H 0.08388 0.36067 0.97937 0.0
H881 H 0.1192 0.28315 1.0056 0.0
H882 H 0.03068 0.33288 1.00934 0.0
H883 H 0.06483 0.25442 0.03538 0.0
H884 H 0.93167 0.19304 0.05935 0.0
H885 H 0.98624 0.21774 1.02983 0.0
H886 H 0.02766 0.32942 0.06106 0.0
H887 H 0.97411 0.30484 0.09076 0.0
C888 C 0.08026 0.33765 0.99159 0.0
C889 C 0.1059 0.32428 0.99026 0.0
C890 C 0.04974 0.32172 1.00872 0.0
C891 C 0.04351 0.29143 1.02466 0.0
C892 C 0.06885 0.27762 1.02321 0.0
C893 C 0.10007 0.29422 1.00636 0.0
C894 C 0.95247 0.22283 0.05983 0.0
C895 C 0.94853 0.24704 0.07727 0.0
C896 C 0.9838 0.23688 0.04312 0.0
C897 C 1.01123 0.27551 0.04318 0.0
C898 C 1.00698 0.29959 0.06052 0.0
C899 C 0.97627 0.28549 0.07749 0.0
H900 H 0.28287 0.10542 0.50897 0.0
H901 H 0.3548 0.06554 0.47832 0.0
H902 H 0.25346 0.05058 0.5382 0.0
H903 H 0.32627 1.01177 0.50764 0.0
H904 H 0.30235 0.95491 0.5883 0.0
H905 H 0.32656 1.00821 0.55865 0.0
H906 H 0.21315 0.97253 0.53344 0.0
H907 H 0.1887 0.91807 0.563 0.0
C908 C 0.29246 0.08509 0.50856 0.0
C909 C 0.32126 0.08989 0.49143 0.0
C910 C 0.27547 0.05361 0.52511 0.0
C911 C 0.28758 0.02687 0.52521 0.0
C912 C 0.31642 0.0319 0.5081 0.0
C913 C 0.33277 0.06276 0.49132 0.0
C914 C 0.2825 0.95823 0.57636 0.0
C915 C 0.24363 0.93208 0.57783 0.0
C916 C 0.2964 0.98881 0.55939 0.0
C917 C 0.27181 0.99461 0.54371 0.0
C918 C 0.23276 0.96884 0.54538 0.0
C919 C 0.21882 0.93756 0.5621 0.0
H920 H 0.85204 0.74929 0.06142 0.0
H921 H 0.73913 0.67378 0.08873 0.0
H922 H 0.8272 0.77963 1.03261 0.0
H923 H 0.71441 0.70326 0.05971 0.0
H924 H 0.7598 0.84496 1.00971 0.0
H925 H 0.78801 0.81842 0.03904 0.0
H926 H 0.71365 0.70729 1.00837 0.0
H927 H 0.68633 0.73361 0.97892 0.0
C928 C 0.82196 0.73898 0.06106 0.0
C929 C 0.79748 0.70902 0.07718 0.0
C930 C 0.80782 0.75655 0.04482 0.0
C931 C 0.76886 0.74385 0.04397 0.0
C932 C 0.7445 0.7136 0.05989 0.0
C933 C 0.75866 0.69667 0.07644 0.0
C934 C 0.7495 0.81489 1.00937 0.0
C935 C 0.72075 0.79134 0.99211 0.0
C936 C 0.76581 0.79977 1.02596 0.0
C937 C 0.75303 0.76077 1.02595 0.0
C938 C 0.72399 0.73737 1.00889 0.0
C939 C 0.70833 0.75249 0.99206 0.0
H940 H 0.1182 0.27933 0.55865 0.0
H941 H 0.07455 0.34659 0.59196 0.0
H942 H 0.0638 0.25007 0.52903 0.0
H943 H 1.02118 0.31828 0.56214 0.0
H944 H 0.96684 0.29638 0.47969 0.0
H945 H 1.01969 0.32088 0.50988 0.0
H946 H 0.98458 0.20756 0.53485 0.0
H947 H 0.93056 0.18284 0.50487 0.0
C948 C 0.09712 0.28793 0.55956 0.0
C949 C 0.10069 0.31534 0.57754 0.0
C950 C 0.06592 0.27103 0.54279 0.0
C951 C 0.03827 0.28191 0.54333 0.0
C952 C 0.04206 0.3094 0.56125 0.0
C953 C 0.07265 0.32562 0.5783 0.0
C954 C 0.97021 0.27663 0.4917 0.0
C955 C 0.94441 0.2377 0.49004 0.0
C956 C 1.0005 0.29069 0.50896 0.0
C957 C 1.00629 0.26615 0.52467 0.0
C958 C 0.98084 0.22708 0.52285 0.0
C959 C 0.94985 0.21299 0.50589 0.0
H960 H 0.62287 0.11056 0.16201 0.0
H961 H 0.65857 0.22625 0.14266 0.0
H962 H 0.55874 0.09846 0.16952 0.0
H963 H 0.59452 0.21385 0.14909 0.0
H964 H 0.48531 0.19366 0.18116 0.0
H965 H 0.54822 0.20143 0.18146 0.0
H966 H 0.50468 0.09196 0.14565 0.0
H967 H 0.44119 0.08379 0.14597 0.0
C968 C 0.61716 0.13351 0.15956 0.0
C969 C 0.64599 0.16941 0.15169 0.0
C970 C 0.58025 0.12643 0.16359 0.0
C971 C 0.57129 0.15513 0.15996 0.0
C972 C 0.60032 0.19114 0.15247 0.0
C973 C 0.63709 0.19818 0.14844 0.0
C974 C 0.48898 0.17094 0.1737 0.0
C975 C 0.45823 0.13823 0.16331 0.0
C976 C 0.52519 0.17553 0.17369 0.0
C977 C 0.53182 0.1477 0.16309 0.0
C978 C 0.50068 0.11397 0.15405 0.0
C979 C 0.46422 0.10924 0.15424 0.0
H980 H 0.67215 0.60302 0.41937 0.0
H981 H 0.73776 0.54817 0.4068 0.0
H982 H 0.61438 0.54131 0.41975 0.0
H983 H 0.68059 0.48703 0.40774 0.0
H984 H 0.56871 0.38166 0.39193 0.0
H985 H 0.62306 0.44465 0.38574 0.0
H986 H 0.58402 0.4869 0.44798 0.0
H987 H 0.5298 0.42411 0.45412 0.0
C988 C 0.67428 0.57794 0.41643 0.0
C989 C 0.70973 0.58072 0.41317 0.0
C990 C 0.64118 0.5425 0.41686 0.0
C991 C 0.64272 0.50902 0.41391 0.0
C992 C 0.67809 0.51204 0.40978 0.0
C993 C 0.71105 0.5473 0.40942 0.0
C994 C 0.57175 0.40436 0.40434 0.0
C995 C 0.54477 0.39763 0.42355 0.0
C996 C 0.60293 0.44056 0.40077 0.0
C997 C 0.60807 0.47103 0.41637 0.0
C998 C 0.58075 0.46439 0.43529 0.0
C999 C 0.54959 0.42824 0.43884 0.0
H1000 H 0.96066 0.36764 0.14471 0.0
H1001 H 0.85025 0.30104 0.1789 0.0
H1002 H 0.95277 0.42313 0.14564 0.0
H1003 H 0.84275 0.35629 0.18039 0.0
H1004 H 0.8192 0.44346 0.14296 0.0
H1005 H 0.83115 0.39136 0.1484 0.0
H1006 H 0.94603 0.46975 0.17097 0.0
H1007 H 0.9344 0.52223 0.16452 0.0
C1008 C 0.93515 0.36506 0.153 0.0
C1009 C 0.90591 0.32984 0.16142 0.0
C1010 C 0.93059 0.39686 0.15355 0.0
C1011 C 0.89679 0.39406 0.16266 0.0
C1012 C 0.8687 0.35931 0.17261 0.0
C1013 C 0.87314 0.32763 0.1719 0.0
C1014 C 0.84705 0.44966 0.14903 0.0
C1015 C 0.87584 0.4871 0.1532 0.0
C1016 C 0.85382 0.4197 0.15247 0.0
C1017 C 0.88957 0.42626 0.16023 0.0
C1018 C 0.91826 0.46366 0.1648 0.0
C1019 C 0.91145 0.49372 0.16139 0.0
H1020 H 0.43525 0.07894 0.4227 0.0
H1021 H 0.48724 0.19853 0.40768 0.0
H1022 H 0.49757 0.08434 0.42235 0.0
H1023 H 0.54912 0.20391 0.40773 0.0
H1024 H 0.65508 0.19831 0.39144 0.0
H1025 H 0.59111 0.18726 0.38513 0.0
H1026 H 0.55275 0.11223 0.45069 0.0
H1027 H 0.61623 0.12238 0.4565 0.0
C1028 C 0.45984 0.10626 0.41905 0.0
C1029 C 0.45614 0.1383 0.41538 0.0
C1030 C 0.49559 0.10942 0.41902 0.0
C1031 C 0.52843 0.14462 0.41515 0.0
C1032 C 0.52451 0.17631 0.41051 0.0
C1033 C 0.4889 0.17321 0.41067 0.0
C1034 C 0.63288 0.17908 0.40428 0.0
C1035 C 0.64091 0.16153 0.42462 0.0
C1036 C 0.59626 0.17296 0.4008 0.0
C1037 C 0.56674 0.14894 0.41746 0.0
C1038 C 0.57463 0.13061 0.43734 0.0
C1039 C 0.6112 0.13686 0.44089 0.0
H1040 H 0.60271 0.38533 0.14368 0.0
H1041 H 0.52422 0.4217 0.16632 0.0
H1042 H 0.65482 0.44953 0.14869 0.0
H1043 H 0.57673 0.48594 0.17237 0.0
H1044 H 0.67766 0.60262 0.14567 0.0
H1045 H 0.6225 0.53908 0.14685 0.0
H1046 H 0.69077 0.49675 0.18022 0.0
H1047 H 0.74572 0.5597 0.17847 0.0
C1048 C 0.59657 0.40699 0.1499 0.0
C1049 C 0.55919 0.39826 0.15449 0.0
C1050 C 0.62656 0.44383 0.15309 0.0
C1051 C 0.62009 0.47305 0.16104 0.0
C1052 C 0.58275 0.46425 0.16604 0.0
C1053 C 0.55268 0.4273 0.16286 0.0
C1054 C 0.68066 0.57985 0.1537 0.0
C1055 C 0.71619 0.58617 0.16168 0.0
C1056 C 0.64903 0.54338 0.15439 0.0
C1057 C 0.65227 0.51257 0.16321 0.0
C1058 C 0.68738 0.51953 0.17266 0.0
C1059 C 0.71889 0.55577 0.17182 0.0
H1060 H 0.9145 0.50058 0.45781 0.0
H1061 H 0.84319 0.46718 0.39031 0.0
H1062 H 0.92536 0.44781 0.45122 0.0
H1063 H 0.85504 0.41492 0.38322 0.0
H1064 H 0.84173 0.29849 0.40358 0.0
H1065 H 0.83673 0.35516 0.40421 0.0
H1066 H 0.95506 0.42173 0.42338 0.0
H1067 H 0.96001 0.36454 0.42317 0.0
C1068 C 0.90122 0.48203 0.44148 0.0
C1069 C 0.87757 0.48789 0.42477 0.0
C1070 C 0.9079 0.45204 0.4375 0.0
C1071 C 0.89105 0.42701 0.41671 0.0
C1072 C 0.86817 0.43342 0.39958 0.0
C1073 C 0.8616 0.46356 0.40352 0.0
C1074 C 0.86688 0.32521 0.40769 0.0
C1075 C 0.90125 0.32683 0.41354 0.0
C1076 C 0.86403 0.35784 0.40786 0.0
C1077 C 0.89542 0.39307 0.41396 0.0
C1078 C 0.93019 0.39497 0.41891 0.0
C1079 C 0.93312 0.36223 0.4186 0.0
H1080 H 0.2027 0.64341 0.67912 0.0
H1081 H 0.12942 0.60356 0.61262 0.0
H1082 H 0.19189 0.57974 0.6862 0.0
H1083 H 0.11966 0.54037 0.61916 0.0
H1084 H 0.0866 0.42306 0.64731 0.0
H1085 H 0.09114 0.48503 0.64693 0.0
H1086 H 0.20965 0.5377 0.66573 0.0
H1087 H 0.20502 0.47618 0.66656 0.0
C1088 C 0.18411 0.62107 0.66609 0.0
C1089 C 0.16723 0.62883 0.64516 0.0
C1090 C 0.17815 0.58458 0.67002 0.0
C1091 C 0.15497 0.55479 0.65321 0.0
C1092 C 0.13736 0.5624 0.63267 0.0
C1093 C 0.14343 0.59886 0.6287 0.0
C1094 C 0.11344 0.44781 0.65182 0.0
C1095 C 0.14544 0.44452 0.65683 0.0
C1096 C 0.11615 0.48341 0.65137 0.0
C1097 C 0.15086 0.51653 0.6561 0.0
C1098 C 0.18238 0.51295 0.66222 0.0
C1099 C 0.17973 0.47751 0.66253 0.0
H1100 H 0.3795 0.96056 0.91826 0.0
H1101 H 0.31255 0.84091 0.90292 0.0
H1102 H 0.43673 0.95579 0.91736 0.0
H1103 H 0.36924 0.83604 0.9027 0.0
H1104 H 0.4804 0.84127 0.88636 0.0
H1105 H 0.42658 0.85098 0.88086 0.0
H1106 H 0.46647 0.9303 0.94427 0.0
H1107 H 0.5202 0.92081 0.94959 0.0
C1108 C 0.37696 0.93335 0.91444 0.0
C1109 C 0.34129 0.90115 0.91078 0.0
C1110 C 0.40977 0.93052 0.91414 0.0
C1111 C 0.40772 0.89545 0.91014 0.0
C1112 C 0.37213 0.86359 0.90555 0.0
C1113 C 0.33945 0.8664 0.90585 0.0
C1114 C 0.47766 0.86076 0.89912 0.0
C1115 C 0.50472 0.88022 0.91841 0.0
C1116 C 0.44678 0.86638 0.89597 0.0
C1117 C 0.44204 0.89147 0.91211 0.0
C1118 C 0.46945 0.91132 0.93114 0.0
C1119 C 0.50032 0.90579 0.93423 0.0
H1120 H 0.56023 0.73434 0.66872 0.0
H1121 H 0.60665 0.66574 0.64219 0.0
H1122 H 0.49744 0.67917 0.66909 0.0
H1123 H 0.54325 0.6103 0.64207 0.0
H1124 H 0.42504 0.51258 0.66163 0.0
H1125 H 0.48871 0.56606 0.66789 0.0
H1126 H 0.45303 0.64082 0.63634 0.0
H1127 H 0.38936 0.58778 0.63097 0.0
C1128 C 0.5571 0.70741 0.66307 0.0
C1129 C 0.5885 0.70457 0.65515 0.0
C1130 C 0.52097 0.67576 0.66316 0.0
C1131 C 0.51514 0.64039 0.6552 0.0
C1132 C 0.54674 0.6371 0.64843 0.0
C1133 C 0.58309 0.66888 0.64845 0.0
C1134 C 0.43068 0.54055 0.65644 0.0
C1135 C 0.40207 0.54589 0.64579 0.0
C1136 C 0.46729 0.57113 0.65975 0.0
C1137 C 0.47605 0.60777 0.65263 0.0
C1138 C 0.44724 0.6131 0.64236 0.0
C1139 C 0.41077 0.5826 0.63901 0.0
H1140 H 0.12613 0.61329 0.94652 0.0
H1141 H 0.20987 0.65279 0.88596 0.0
H1142 H 0.11703 0.55005 0.94209 0.0
H1143 H 0.20058 0.58929 0.88137 0.0
H1144 H 0.20993 0.48623 0.90604 0.0
H1145 H 0.21444 0.54757 0.90511 0.0
H1146 H 0.09366 0.49457 0.91514 0.0
H1147 H 0.08917 0.43271 0.91672 0.0
C1148 C 0.14216 0.60837 0.93192 0.0
C1149 C 0.16881 0.63827 0.91662 0.0
C1150 C 0.13687 0.57197 0.92934 0.0
C1151 C 0.15806 0.5644 0.91139 0.0
C1152 C 0.18416 0.59414 0.89569 0.0
C1153 C 0.18952 0.6306 0.89832 0.0
C1154 C 0.18415 0.48741 0.90784 0.0
C1155 C 0.14914 0.45433 0.91162 0.0
C1156 C 0.18677 0.52278 0.90712 0.0
C1157 C 0.15446 0.52623 0.91011 0.0
C1158 C 0.11923 0.49306 0.91312 0.0
C1159 C 0.11659 0.45753 0.91383 0.0
H1160 H 0.36907 0.94571 0.64982 0.0
H1161 H 0.30165 0.8284 0.67108 0.0
H1162 H 0.42579 0.93972 0.65017 0.0
H1163 H 0.3579 0.82265 0.6722 0.0
H1164 H 0.45137 0.81029 0.63415 0.0
H1165 H 0.39773 0.81971 0.63985 0.0
H1166 H 0.47047 0.92874 0.67444 0.0
H1167 H 0.52475 0.91989 0.66768 0.0
C1168 C 0.36651 0.91896 0.65518 0.0
C1169 C 0.33086 0.88742 0.66007 0.0
C1170 C 0.39898 0.91547 0.6554 0.0
C1171 C 0.39636 0.88045 0.66071 0.0
C1172 C 0.36092 0.84974 0.66728 0.0
C1173 C 0.32864 0.85312 0.66681 0.0
C1174 C 0.45605 0.83637 0.64288 0.0
C1175 C 0.49248 0.86435 0.65034 0.0
C1176 C 0.42514 0.84161 0.64647 0.0
C1177 C 0.42962 0.87495 0.65776 0.0
C1178 C 0.46598 0.90284 0.66554 0.0
C1179 C 0.49703 0.89756 0.66193 0.0
H1180 H 0.56365 0.73705 0.90375 0.0
H1181 H 0.61685 0.67018 0.91714 0.0
H1182 H 0.50218 0.68024 0.90342 0.0
H1183 H 0.55494 0.61284 0.91613 0.0
H1184 H 0.43679 0.52839 0.94864 0.0
H1185 H 0.4999 0.58237 0.94333 0.0
H1186 H 0.45972 0.62326 0.88124 0.0
H1187 H 0.39632 0.56918 0.88671 0.0
C1188 C 0.56237 0.71016 0.90622 0.0
C1189 C 0.5954 0.70837 0.91065 0.0
C1190 C 0.52693 0.6774 0.90586 0.0
C1191 C 0.52336 0.64179 0.90989 0.0
C1192 C 0.5565 0.63981 0.91336 0.0
C1193 C 0.59209 0.6727 0.91371 0.0
C1194 C 0.44146 0.54855 0.93357 0.0
C1195 C 0.41131 0.54433 0.91812 0.0
C1196 C 0.4778 0.57957 0.93048 0.0
C1197 C 0.48512 0.60733 0.91183 0.0
C1198 C 0.4551 0.60279 0.89606 0.0
C1199 C 0.41869 0.57176 0.8992 0.0
loop_
_geom_bond_atom_site_label_1
_geom_bond_atom_site_label_2
_geom_bond_distance
_geom_bond_site_symmetry_2
_ccdc_geom_bond_type
C0 Eu1 2.835 . S
C0 C2 1.500 1_545 S
C0 O20 1.257 . S
C0 O21 1.260 . S
Eu1 C0 2.835 . S
Eu1 O20 2.473 . S
Eu1 O21 2.480 . S
Eu1 O22 2.430 . S
Eu1 O23 2.670 . S
Eu1 O24 2.394 . S
Eu1 O29 2.355 . S
Eu1 O31 2.374 . S
C2 C0 1.500 1_565 S
C2 C3 1.377 . S
C2 C7 1.377 . S
C3 C2 1.377 . S
C3 C4 1.395 . S
C3 H32 0.931 . S
C4 C3 1.395 . S
C4 C5 1.383 . S
C4 H33 0.931 . S
C5 C4 1.383 . S
C5 C6 1.394 . S
C6 C5 1.394 . S
C6 C7 1.378 . S
C6 H34 0.931 . S
C7 C2 1.377 . S
C7 C6 1.378 . S
C7 H35 0.931 . S
C8 O22 1.259 . S
C8 O23 1.270 . S
C9 O24 1.251 . S
C9 O25 1.251 . S
C10 Eu11 2.835 . S
C10 C12 1.500 . S
C10 O26 1.257 . S
C10 O27 1.260 . S
Eu11 C10 2.835 . S
Eu11 O23 2.355 . S
Eu11 O25 2.374 . S
Eu11 O26 2.473 . S
Eu11 O27 2.480 . S
Eu11 O28 2.430 . S
Eu11 O29 2.670 . S
Eu11 O30 2.394 . S
C12 C10 1.500 . S
C12 C13 1.377 . S
C12 C17 1.377 . S
C13 C12 1.377 . S
C13 C14 1.395 . S
C13 H36 0.931 . S
C14 C13 1.395 . S
C14 C15 1.383 . S
C14 H37 0.931 . S
C15 C14 1.383 . S
C15 C16 1.394 . S
C16 C15 1.394 . S
C16 C17 1.378 . S
C16 H38 0.931 . S
C17 C12 1.377 . S
C17 C16 1.378 . S
C17 H39 0.931 . S
C18 O28 1.259 . S
C18 O29 1.270 . S
C19 O30 1.251 . S
C19 O31 1.251 . S
O20 C0 1.257 . S
O20 Eu1 2.473 . S
O21 C0 1.260 . S
O21 Eu1 2.480 . S
O22 Eu1 2.430 . S
O22 C8 1.259 . S
O23 Eu1 2.670 . S
O23 C8 1.270 . S
O23 Eu11 2.355 . S
O24 Eu1 2.394 . S
O24 C9 1.251 . S
O25 C9 1.251 . S
O25 Eu11 2.374 . S
O26 C10 1.257 . S
O26 Eu11 2.473 . S
O27 C10 1.260 . S
O27 Eu11 2.480 . S
O28 Eu11 2.430 . S
O28 C18 1.259 . S
O29 Eu1 2.355 . S
O29 Eu11 2.670 . S
O29 C18 1.270 . S
O30 Eu11 2.394 . S
O30 C19 1.251 . S
O31 Eu1 2.374 . S
O31 C19 1.251 . S
H32 C3 0.931 . S
H33 C4 0.931 . S
H34 C6 0.931 . S
H35 C7 0.931 . S
H36 C13 0.931 . S
H37 C14 0.931 . S
H38 C16 0.931 . S
H39 C17 0.931 . S
C40 Eu41 2.835 . S
C40 C42 1.500 . S
C40 O60 1.257 . S
C40 O61 1.260 . S
Eu41 C40 2.835 . S
Eu41 O60 2.473 . S
Eu41 O61 2.480 . S
Eu41 O62 2.430 . S
Eu41 O63 2.670 . S
Eu41 O64 2.394 . S
Eu41 O69 2.355 . S
Eu41 O71 2.374 . S
C42 C40 1.500 . S
C42 C43 1.377 . S
C42 C47 1.377 . S
C43 C42 1.377 . S
C43 C44 1.395 . S
C43 H72 0.931 . S
C44 C43 1.395 . S
C44 C45 1.383 . S
C44 H73 0.931 . S
C45 C44 1.383 . S
C45 C46 1.394 . S
C46 C45 1.394 . S
C46 C47 1.378 . S
C46 H74 0.931 . S
C47 C42 1.377 . S
C47 C46 1.378 . S
C47 H75 0.931 . S
C48 O62 1.259 . S
C48 O63 1.270 . S
C49 O64 1.251 . S
C49 O65 1.251 . S
C50 Eu51 2.835 . S
C50 C52 1.500 . S
C50 O66 1.257 . S
C50 O67 1.260 . S
Eu51 C50 2.835 . S
Eu51 O63 2.355 . S
Eu51 O65 2.374 . S
Eu51 O66 2.473 . S
Eu51 O67 2.480 . S
Eu51 O68 2.430 . S
Eu51 O69 2.670 . S
Eu51 O70 2.394 . S
C52 C50 1.500 . S
C52 C53 1.377 . S
C52 C57 1.377 . S
C53 C52 1.377 . S
C53 C54 1.395 . S
C53 H76 0.931 . S
C54 C53 1.395 . S
C54 C55 1.383 . S
C54 H77 0.931 . S
C55 C54 1.383 . S
C55 C56 1.394 . S
C56 C55 1.394 . S
C56 C57 1.378 . S
C56 H78 0.931 . S
C57 C52 1.377 . S
C57 C56 1.378 . S
C57 H79 0.931 . S
C58 O68 1.259 . S
C58 O69 1.270 . S
C59 O70 1.251 . S
C59 O71 1.251 . S
O60 C40 1.257 . S
O60 Eu41 2.473 . S
O61 C40 1.260 . S
O61 Eu41 2.480 . S
O62 Eu41 2.430 . S
O62 C48 1.259 . S
O63 Eu41 2.670 . S
O63 C48 1.270 . S
O63 Eu51 2.355 . S
O64 Eu41 2.394 . S
O64 C49 1.251 . S
O65 C49 1.251 . S
O65 Eu51 2.374 . S
O66 C50 1.257 . S
O66 Eu51 2.473 . S
O67 C50 1.260 . S
O67 Eu51 2.480 . S
O68 Eu51 2.430 . S
O68 C58 1.259 . S
O69 Eu41 2.355 . S
O69 Eu51 2.670 . S
O69 C58 1.270 . S
O70 Eu51 2.394 . S
O70 C59 1.251 . S
O71 Eu41 2.374 . S
O71 C59 1.251 . S
H72 C43 0.931 . S
H73 C44 0.931 . S
H74 C46 0.931 . S
H75 C47 0.931 . S
H76 C53 0.931 . S
H77 C54 0.931 . S
H78 C56 0.931 . S
H79 C57 0.931 . S
C80 Eu81 2.835 . S
C80 C82 1.500 1_655 S
C80 O100 1.257 . S
C80 O101 1.260 . S
Eu81 C80 2.835 . S
Eu81 O100 2.473 . S
Eu81 O101 2.480 . S
Eu81 O102 2.430 . S
Eu81 O103 2.670 . S
Eu81 O104 2.394 . S
Eu81 O109 2.355 . S
Eu81 O111 2.374 . S
C82 C80 1.500 1_455 S
C82 C83 1.377 . S
C82 C87 1.377 . S
C83 C82 1.377 . S
C83 C84 1.395 . S
C83 H112 0.931 . S
C84 C83 1.395 . S
C84 C85 1.383 . S
C84 H113 0.931 . S
C85 C84 1.383 . S
C85 C86 1.394 . S
C86 C85 1.394 . S
C86 C87 1.378 . S
C86 H114 0.931 . S
C87 C82 1.377 . S
C87 C86 1.378 . S
C87 H115 0.931 . S
C88 O102 1.259 . S
C88 O103 1.270 . S
C89 O104 1.251 . S
C89 O105 1.251 . S
C90 Eu91 2.835 . S
C90 C92 1.500 . S
C90 O106 1.257 . S
C90 O107 1.260 . S
Eu91 C90 2.835 . S
Eu91 O103 2.355 . S
Eu91 O105 2.374 . S
Eu91 O106 2.473 . S
Eu91 O107 2.480 . S
Eu91 O108 2.430 . S
Eu91 O109 2.670 . S
Eu91 O110 2.394 . S
C92 C90 1.500 . S
C92 C93 1.377 . S
C92 C97 1.377 . S
C93 C92 1.377 . S
C93 C94 1.395 . S
C93 H116 0.931 . S
C94 C93 1.395 . S
C94 C95 1.383 . S
C94 H117 0.931 . S
C95 C94 1.383 . S
C95 C96 1.394 . S
C96 C95 1.394 . S
C96 C97 1.378 . S
C96 H118 0.931 . S
C97 C92 1.377 . S
C97 C96 1.378 . S
C97 H119 0.931 . S
C98 O108 1.259 . S
C98 O109 1.270 . S
C99 O110 1.251 . S
C99 O111 1.251 . S
O100 C80 1.257 . S
O100 Eu81 2.473 . S
O101 C80 1.260 . S
O101 Eu81 2.480 . S
O102 Eu81 2.430 . S
O102 C88 1.259 . S
O103 Eu81 2.670 . S
O103 C88 1.270 . S
O103 Eu91 2.355 . S
O104 Eu81 2.394 . S
O104 C89 1.251 . S
O105 C89 1.251 . S
O105 Eu91 2.374 . S
O106 C90 1.257 . S
O106 Eu91 2.473 . S
O107 C90 1.260 . S
O107 Eu91 2.480 . S
O108 Eu91 2.430 . S
O108 C98 1.259 . S
O109 Eu81 2.355 . S
O109 Eu91 2.670 . S
O109 C98 1.270 . S
O110 Eu91 2.394 . S
O110 C99 1.251 . S
O111 Eu81 2.374 . S
O111 C99 1.251 . S
H112 C83 0.931 . S
H113 C84 0.931 . S
H114 C86 0.931 . S
H115 C87 0.931 . S
H116 C93 0.931 . S
H117 C94 0.931 . S
H118 C96 0.931 . S
H119 C97 0.931 . S
C120 Eu121 2.835 . S
C120 C122 1.500 . S
C120 O140 1.257 . S
C120 O141 1.260 . S
Eu121 C120 2.835 . S
Eu121 O140 2.473 . S
Eu121 O141 2.480 . S
Eu121 O142 2.430 . S
Eu121 O143 2.670 . S
Eu121 O144 2.394 . S
Eu121 O149 2.355 . S
Eu121 O151 2.374 . S
C122 C120 1.500 . S
C122 C123 1.377 . S
C122 C127 1.377 . S
C123 C122 1.377 . S
C123 C124 1.395 . S
C123 H152 0.931 . S
C124 C123 1.395 . S
C124 C125 1.383 . S
C124 H153 0.931 . S
C125 C124 1.383 . S
C125 C126 1.394 . S
C126 C125 1.394 . S
C126 C127 1.378 . S
C126 H154 0.931 . S
C127 C122 1.377 . S
C127 C126 1.378 . S
C127 H155 0.931 . S
C128 O142 1.259 . S
C128 O143 1.270 . S
C129 O144 1.251 . S
C129 O145 1.251 . S
C130 Eu131 2.835 . S
C130 C132 1.500 1_545 S
C130 O146 1.257 . S
C130 O147 1.260 . S
Eu131 C130 2.835 . S
Eu131 O143 2.355 . S
Eu131 O145 2.374 . S
Eu131 O146 2.473 . S
Eu131 O147 2.480 . S
Eu131 O148 2.430 . S
Eu131 O149 2.670 . S
Eu131 O150 2.394 . S
C132 C130 1.500 1_565 S
C132 C133 1.377 . S
C132 C137 1.377 . S
C133 C132 1.377 . S
C133 C134 1.395 . S
C133 H156 0.931 . S
C134 C133 1.395 . S
C134 C135 1.383 . S
C134 H157 0.931 . S
C135 C134 1.383 . S
C135 C136 1.394 . S
C136 C135 1.394 . S
C136 C137 1.378 . S
C136 H158 0.931 . S
C137 C132 1.377 . S
C137 C136 1.378 . S
C137 H159 0.931 . S
C138 O148 1.259 . S
C138 O149 1.270 . S
C139 O150 1.251 . S
C139 O151 1.251 . S
O140 C120 1.257 . S
O140 Eu121 2.473 . S
O141 C120 1.260 . S
O141 Eu121 2.480 . S
O142 Eu121 2.430 . S
O142 C128 1.259 . S
O143 Eu121 2.670 . S
O143 C128 1.270 . S
O143 Eu131 2.355 . S
O144 Eu121 2.394 . S
O144 C129 1.251 . S
O145 C129 1.251 . S
O145 Eu131 2.374 . S
O146 C130 1.257 . S
O146 Eu131 2.473 . S
O147 C130 1.260 . S
O147 Eu131 2.480 . S
O148 Eu131 2.430 . S
O148 C138 1.259 . S
O149 Eu121 2.355 . S
O149 Eu131 2.670 . S
O149 C138 1.270 . S
O150 Eu131 2.394 . S
O150 C139 1.251 . S
O151 Eu121 2.374 . S
O151 C139 1.251 . S
H152 C123 0.931 . S
H153 C124 0.931 . S
H154 C126 0.931 . S
H155 C127 0.931 . S
H156 C133 0.931 . S
H157 C134 0.931 . S
H158 C136 0.931 . S
H159 C137 0.931 . S
C160 Eu161 2.835 . S
C160 C162 1.500 . S
C160 O180 1.257 . S
C160 O181 1.260 . S
Eu161 C160 2.835 . S
Eu161 O180 2.473 . S
Eu161 O181 2.480 . S
Eu161 O182 2.430 . S
Eu161 O183 2.670 . S
Eu161 O184 2.394 . S
Eu161 O189 2.355 . S
Eu161 O191 2.374 . S
C162 C160 1.500 . S
C162 C163 1.377 . S
C162 C167 1.377 . S
C163 C162 1.377 . S
C163 C164 1.395 . S
C163 H192 0.931 . S
C164 C163 1.395 . S
C164 C165 1.383 . S
C164 H193 0.931 . S
C165 C164 1.383 . S
C165 C166 1.394 . S
C166 C165 1.394 . S
C166 C167 1.378 . S
C166 H194 0.931 . S
C167 C162 1.377 . S
C167 C166 1.378 . S
C167 H195 0.931 . S
C168 O182 1.259 . S
C168 O183 1.270 . S
C169 O184 1.251 . S
C169 O185 1.251 . S
C170 Eu171 2.835 . S
C170 C172 1.500 . S
C170 O186 1.257 . S
C170 O187 1.260 . S
Eu171 C170 2.835 . S
Eu171 O183 2.355 . S
Eu171 O185 2.374 . S
Eu171 O186 2.473 . S
Eu171 O187 2.480 . S
Eu171 O188 2.430 . S
Eu171 O189 2.670 . S
Eu171 O190 2.394 . S
C172 C170 1.500 . S
C172 C173 1.377 . S
C172 C177 1.377 . S
C173 C172 1.377 . S
C173 C174 1.395 . S
C173 H196 0.931 . S
C174 C173 1.395 . S
C174 C175 1.383 . S
C174 H197 0.931 . S
C175 C174 1.383 . S
C175 C176 1.394 . S
C176 C175 1.394 . S
C176 C177 1.378 . S
C176 H198 0.931 . S
C177 C172 1.377 . S
C177 C176 1.378 . S
C177 H199 0.931 . S
C178 O188 1.259 . S
C178 O189 1.270 . S
C179 O190 1.251 . S
C179 O191 1.251 . S
O180 C160 1.257 . S
O180 Eu161 2.473 . S
O181 C160 1.260 . S
O181 Eu161 2.480 . S
O182 Eu161 2.430 . S
O182 C168 1.259 . S
O183 Eu161 2.670 . S
O183 C168 1.270 . S
O183 Eu171 2.355 . S
O184 Eu161 2.394 . S
O184 C169 1.251 . S
O185 C169 1.251 . S
O185 Eu171 2.374 . S
O186 C170 1.257 . S
O186 Eu171 2.473 . S
O187 C170 1.260 . S
O187 Eu171 2.480 . S
O188 Eu171 2.430 . S
O188 C178 1.259 . S
O189 Eu161 2.355 . S
O189 Eu171 2.670 . S
O189 C178 1.270 . S
O190 Eu171 2.394 . S
O190 C179 1.251 . S
O191 Eu161 2.374 . S
O191 C179 1.251 . S
H192 C163 0.931 . S
H193 C164 0.931 . S
H194 C166 0.931 . S
H195 C167 0.931 . S
H196 C173 0.931 . S
H197 C174 0.931 . S
H198 C176 0.931 . S
H199 C177 0.931 . S
C200 Eu201 2.835 . S
C200 C202 1.500 . S
C200 O220 1.257 . S
C200 O221 1.260 . S
Eu201 C200 2.835 . S
Eu201 O220 2.473 . S
Eu201 O221 2.480 . S
Eu201 O222 2.430 . S
Eu201 O223 2.670 . S
Eu201 O224 2.394 . S
Eu201 O229 2.355 . S
Eu201 O231 2.374 . S
C202 C200 1.500 . S
C202 C203 1.377 . S
C202 C207 1.377 . S
C203 C202 1.377 . S
C203 C204 1.395 . S
C203 H232 0.931 . S
C204 C203 1.395 . S
C204 C205 1.383 . S
C204 H233 0.931 . S
C205 C204 1.383 . S
C205 C206 1.394 . S
C206 C205 1.394 . S
C206 C207 1.378 . S
C206 H234 0.931 . S
C207 C202 1.377 . S
C207 C206 1.378 . S
C207 H235 0.931 . S
C208 O222 1.259 . S
C208 O223 1.270 . S
C209 O224 1.251 . S
C209 O225 1.251 . S
C210 Eu211 2.835 . S
C210 C212 1.500 1_655 S
C210 O226 1.257 . S
C210 O227 1.260 . S
Eu211 C210 2.835 . S
Eu211 O223 2.355 . S
Eu211 O225 2.374 . S
Eu211 O226 2.473 . S
Eu211 O227 2.480 . S
Eu211 O228 2.430 . S
Eu211 O229 2.670 . S
Eu211 O230 2.394 . S
C212 C210 1.500 1_455 S
C212 C213 1.377 . S
C212 C217 1.377 . S
C213 C212 1.377 . S
C213 C214 1.395 . S
C213 H236 0.931 . S
C214 C213 1.395 . S
C214 C215 1.383 . S
C214 H237 0.931 . S
C215 C214 1.383 . S
C215 C216 1.394 . S
C216 C215 1.394 . S
C216 C217 1.378 . S
C216 H238 0.931 . S
C217 C212 1.377 . S
C217 C216 1.378 . S
C217 H239 0.931 . S
C218 O228 1.259 . S
C218 O229 1.270 . S
C219 O230 1.251 . S
C219 O231 1.251 . S
O220 C200 1.257 . S
O220 Eu201 2.473 . S
O221 C200 1.260 . S
O221 Eu201 2.480 . S
O222 Eu201 2.430 . S
O222 C208 1.259 . S
O223 Eu201 2.670 . S
O223 C208 1.270 . S
O223 Eu211 2.355 . S
O224 Eu201 2.394 . S
O224 C209 1.251 . S
O225 C209 1.251 . S
O225 Eu211 2.374 . S
O226 C210 1.257 . S
O226 Eu211 2.473 . S
O227 C210 1.260 . S
O227 Eu211 2.480 . S
O228 Eu211 2.430 . S
O228 C218 1.259 . S
O229 Eu201 2.355 . S
O229 Eu211 2.670 . S
O229 C218 1.270 . S
O230 Eu211 2.394 . S
O230 C219 1.251 . S
O231 Eu201 2.374 . S
O231 C219 1.251 . S
H232 C203 0.931 . S
H233 C204 0.931 . S
H234 C206 0.931 . S
H235 C207 0.931 . S
H236 C213 0.931 . S
H237 C214 0.931 . S
H238 C216 0.931 . S
H239 C217 0.931 . S
C240 Eu241 2.835 . S
C240 C242 1.500 . S
C240 O260 1.257 . S
C240 O261 1.260 . S
Eu241 C240 2.835 . S
Eu241 O260 2.473 . S
Eu241 O261 2.480 . S
Eu241 O262 2.430 . S
Eu241 O263 2.670 . S
Eu241 O264 2.394 . S
Eu241 O269 2.355 . S
Eu241 O271 2.374 . S
C242 C240 1.500 . S
C242 C243 1.377 . S
C242 C247 1.377 . S
C243 C242 1.377 . S
C243 C244 1.395 . S
C243 H272 0.931 . S
C244 C243 1.395 . S
C244 C245 1.383 . S
C244 H273 0.931 . S
C245 C244 1.383 . S
C245 C246 1.394 . S
C246 C245 1.394 . S
C246 C247 1.378 . S
C246 H274 0.931 . S
C247 C242 1.377 . S
C247 C246 1.378 . S
C247 H275 0.931 . S
C248 O262 1.259 . S
C248 O263 1.270 . S
C249 O264 1.251 . S
C249 O265 1.251 . S
C250 Eu251 2.835 . S
C250 C252 1.500 1_455 S
C250 O266 1.257 . S
C250 O267 1.260 . S
Eu251 C250 2.835 . S
Eu251 O263 2.355 . S
Eu251 O265 2.374 . S
Eu251 O266 2.473 . S
Eu251 O267 2.480 . S
Eu251 O268 2.430 . S
Eu251 O269 2.670 . S
Eu251 O270 2.394 . S
C252 C250 1.500 1_655 S
C252 C253 1.377 . S
C252 C257 1.377 . S
C253 C252 1.377 . S
C253 C254 1.395 . S
C253 H276 0.931 . S
C254 C253 1.395 . S
C254 C255 1.383 . S
C254 H277 0.931 . S
C255 C254 1.383 . S
C255 C256 1.394 . S
C256 C255 1.394 . S
C256 C257 1.378 . S
C256 H278 0.931 . S
C257 C252 1.377 . S
C257 C256 1.378 . S
C257 H279 0.931 . S
C258 O268 1.259 . S
C258 O269 1.270 . S
C259 O270 1.251 . S
C259 O271 1.251 . S
O260 C240 1.257 . S
O260 Eu241 2.473 . S
O261 C240 1.260 . S
O261 Eu241 2.480 . S
O262 Eu241 2.430 . S
O262 C248 1.259 . S
O263 Eu241 2.670 . S
O263 C248 1.270 . S
O263 Eu251 2.355 . S
O264 Eu241 2.394 . S
O264 C249 1.251 . S
O265 C249 1.251 . S
O265 Eu251 2.374 . S
O266 C250 1.257 . S
O266 Eu251 2.473 . S
O267 C250 1.260 . S
O267 Eu251 2.480 . S
O268 Eu251 2.430 . S
O268 C258 1.259 . S
O269 Eu241 2.355 . S
O269 Eu251 2.670 . S
O269 C258 1.270 . S
O270 Eu251 2.394 . S
O270 C259 1.251 . S
O271 Eu241 2.374 . S
O271 C259 1.251 . S
H272 C243 0.931 . S
H273 C244 0.931 . S
H274 C246 0.931 . S
H275 C247 0.931 . S
H276 C253 0.931 . S
H277 C254 0.931 . S
H278 C256 0.931 . S
H279 C257 0.931 . S
C280 Eu281 2.835 . S
C280 C282 1.500 1_565 S
C280 O300 1.257 . S
C280 O301 1.260 . S
Eu281 C280 2.835 . S
Eu281 O300 2.473 . S
Eu281 O301 2.480 . S
Eu281 O302 2.430 . S
Eu281 O303 2.670 . S
Eu281 O304 2.394 . S
Eu281 O309 2.355 . S
Eu281 O311 2.374 . S
C282 C280 1.500 1_545 S
C282 C283 1.377 . S
C282 C287 1.377 . S
C283 C282 1.377 . S
C283 C284 1.395 . S
C283 H312 0.931 . S
C284 C283 1.395 . S
C284 C285 1.383 . S
C284 H313 0.931 . S
C285 C284 1.383 . S
C285 C286 1.394 . S
C286 C285 1.394 . S
C286 C287 1.378 . S
C286 H314 0.931 . S
C287 C282 1.377 . S
C287 C286 1.378 . S
C287 H315 0.931 . S
C288 O302 1.259 . S
C288 O303 1.270 . S
C289 O304 1.251 . S
C289 O305 1.251 . S
C290 Eu291 2.835 . S
C290 C292 1.500 . S
C290 O306 1.257 . S
C290 O307 1.260 . S
Eu291 C290 2.835 . S
Eu291 O303 2.355 . S
Eu291 O305 2.374 . S
Eu291 O306 2.473 . S
Eu291 O307 2.480 . S
Eu291 O308 2.430 . S
Eu291 O309 2.670 . S
Eu291 O310 2.394 . S
C292 C290 1.500 . S
C292 C293 1.377 . S
C292 C297 1.377 . S
C293 C292 1.377 . S
C293 C294 1.395 . S
C293 H316 0.931 . S
C294 C293 1.395 . S
C294 C295 1.383 . S
C294 H317 0.931 . S
C295 C294 1.383 . S
C295 C296 1.394 . S
C296 C295 1.394 . S
C296 C297 1.378 . S
C296 H318 0.931 . S
C297 C292 1.377 . S
C297 C296 1.378 . S
C297 H319 0.931 . S
C298 O308 1.259 . S
C298 O309 1.270 . S
C299 O310 1.251 . S
C299 O311 1.251 . S
O300 C280 1.257 . S
O300 Eu281 2.473 . S
O301 C280 1.260 . S
O301 Eu281 2.480 . S
O302 Eu281 2.430 . S
O302 C288 1.259 . S
O303 Eu281 2.670 . S
O303 C288 1.270 . S
O303 Eu291 2.355 . S
O304 Eu281 2.394 . S
O304 C289 1.251 . S
O305 C289 1.251 . S
O305 Eu291 2.374 . S
O306 C290 1.257 . S
O306 Eu291 2.473 . S
O307 C290 1.260 . S
O307 Eu291 2.480 . S
O308 Eu291 2.430 . S
O308 C298 1.259 . S
O309 Eu281 2.355 . S
O309 Eu291 2.670 . S
O309 C298 1.270 . S
O310 Eu291 2.394 . S
O310 C299 1.251 . S
O311 Eu281 2.374 . S
O311 C299 1.251 . S
H312 C283 0.931 . S
H313 C284 0.931 . S
H314 C286 0.931 . S
H315 C287 0.931 . S
H316 C293 0.931 . S
H317 C294 0.931 . S
H318 C296 0.931 . S
H319 C297 0.931 . S
C320 Eu321 2.835 . S
C320 C322 1.500 . S
C320 O340 1.257 . S
C320 O341 1.260 . S
Eu321 C320 2.835 . S
Eu321 O340 2.473 . S
Eu321 O341 2.480 . S
Eu321 O342 2.430 . S
Eu321 O343 2.670 . S
Eu321 O344 2.394 . S
Eu321 O349 2.355 . S
Eu321 O351 2.374 . S
C322 C320 1.500 . S
C322 C323 1.377 . S
C322 C327 1.377 . S
C323 C322 1.377 . S
C323 C324 1.395 . S
C323 H352 0.931 . S
C324 C323 1.395 . S
C324 C325 1.383 . S
C324 H353 0.931 . S
C325 C324 1.383 . S
C325 C326 1.394 . S
C326 C325 1.394 . S
C326 C327 1.378 . S
C326 H354 0.931 . S
C327 C322 1.377 . S
C327 C326 1.378 . S
C327 H355 0.931 . S
C328 O342 1.259 . S
C328 O343 1.270 . S
C329 O344 1.251 . S
C329 O345 1.251 . S
C330 Eu331 2.835 . S
C330 C332 1.500 . S
C330 O346 1.257 . S
C330 O347 1.260 . S
Eu331 C330 2.835 . S
Eu331 O343 2.355 . S
Eu331 O345 2.374 . S
Eu331 O346 2.473 . S
Eu331 O347 2.480 . S
Eu331 O348 2.430 . S
Eu331 O349 2.670 . S
Eu331 O350 2.394 . S
C332 C330 1.500 . S
C332 C333 1.377 . S
C332 C337 1.377 . S
C333 C332 1.377 . S
C333 C334 1.395 . S
C333 H356 0.931 . S
C334 C333 1.395 . S
C334 C335 1.383 . S
C334 H357 0.931 . S
C335 C334 1.383 . S
C335 C336 1.394 . S
C336 C335 1.394 . S
C336 C337 1.378 . S
C336 H358 0.931 . S
C337 C332 1.377 . S
C337 C336 1.378 . S
C337 H359 0.931 . S
C338 O348 1.259 . S
C338 O349 1.270 . S
C339 O350 1.251 . S
C339 O351 1.251 . S
O340 C320 1.257 . S
O340 Eu321 2.473 . S
O341 C320 1.260 . S
O341 Eu321 2.480 . S
O342 Eu321 2.430 . S
O342 C328 1.259 . S
O343 Eu321 2.670 . S
O343 C328 1.270 . S
O343 Eu331 2.355 . S
O344 Eu321 2.394 . S
O344 C329 1.251 . S
O345 C329 1.251 . S
O345 Eu331 2.374 . S
O346 C330 1.257 . S
O346 Eu331 2.473 . S
O347 C330 1.260 . S
O347 Eu331 2.480 . S
O348 Eu331 2.430 . S
O348 C338 1.259 . S
O349 Eu321 2.355 . S
O349 Eu331 2.670 . S
O349 C338 1.270 . S
O350 Eu331 2.394 . S
O350 C339 1.251 . S
O351 Eu321 2.374 . S
O351 C339 1.251 . S
H352 C323 0.931 . S
H353 C324 0.931 . S
H354 C326 0.931 . S
H355 C327 0.931 . S
H356 C333 0.931 . S
H357 C334 0.931 . S
H358 C336 0.931 . S
H359 C337 0.931 . S
C360 Eu361 2.835 . S
C360 C362 1.500 1_455 S
C360 O380 1.257 . S
C360 O381 1.260 . S
Eu361 C360 2.835 . S
Eu361 O380 2.473 . S
Eu361 O381 2.480 . S
Eu361 O382 2.430 . S
Eu361 O383 2.670 . S
Eu361 O384 2.394 . S
Eu361 O389 2.355 . S
Eu361 O391 2.374 . S
C362 C360 1.500 1_655 S
C362 C363 1.377 . S
C362 C367 1.377 . S
C363 C362 1.377 . S
C363 C364 1.395 . S
C363 H392 0.931 . S
C364 C363 1.395 . S
C364 C365 1.383 . S
C364 H393 0.931 . S
C365 C364 1.383 . S
C365 C366 1.394 . S
C366 C365 1.394 . S
C366 C367 1.378 . S
C366 H394 0.931 . S
C367 C362 1.377 . S
C367 C366 1.378 . S
C367 H395 0.931 . S
C368 O382 1.259 . S
C368 O383 1.270 . S
C369 O384 1.251 . S
C369 O385 1.251 . S
C370 Eu371 2.835 . S
C370 C372 1.500 . S
C370 O386 1.257 . S
C370 O387 1.260 . S
Eu371 C370 2.835 . S
Eu371 O383 2.355 . S
Eu371 O385 2.374 . S
Eu371 O386 2.473 . S
Eu371 O387 2.480 . S
Eu371 O388 2.430 . S
Eu371 O389 2.670 . S
Eu371 O390 2.394 . S
C372 C370 1.500 . S
C372 C373 1.377 . S
C372 C377 1.377 . S
C373 C372 1.377 . S
C373 C374 1.395 . S
C373 H396 0.931 . S
C374 C373 1.395 . S
C374 C375 1.383 . S
C374 H397 0.931 . S
C375 C374 1.383 . S
C375 C376 1.394 . S
C376 C375 1.394 . S
C376 C377 1.378 . S
C376 H398 0.931 . S
C377 C372 1.377 . S
C377 C376 1.378 . S
C377 H399 0.931 . S
C378 O388 1.259 . S
C378 O389 1.270 . S
C379 O390 1.251 . S
C379 O391 1.251 . S
O380 C360 1.257 . S
O380 Eu361 2.473 . S
O381 C360 1.260 . S
O381 Eu361 2.480 . S
O382 Eu361 2.430 . S
O382 C368 1.259 . S
O383 Eu361 2.670 . S
O383 C368 1.270 . S
O383 Eu371 2.355 . S
O384 Eu361 2.394 . S
O384 C369 1.251 . S
O385 C369 1.251 . S
O385 Eu371 2.374 . S
O386 C370 1.257 . S
O386 Eu371 2.473 . S
O387 C370 1.260 . S
O387 Eu371 2.480 . S
O388 Eu371 2.430 . S
O388 C378 1.259 . S
O389 Eu361 2.355 . S
O389 Eu371 2.670 . S
O389 C378 1.270 . S
O390 Eu371 2.394 . S
O390 C379 1.251 . S
O391 Eu361 2.374 . S
O391 C379 1.251 . S
H392 C363 0.931 . S
H393 C364 0.931 . S
H394 C366 0.931 . S
H395 C367 0.931 . S
H396 C373 0.931 . S
H397 C374 0.931 . S
H398 C376 0.931 . S
H399 C377 0.931 . S
C400 Eu401 2.835 . S
C400 C402 1.500 . S
C400 O420 1.257 . S
C400 O421 1.260 . S
Eu401 C400 2.835 . S
Eu401 O420 2.473 . S
Eu401 O421 2.480 . S
Eu401 O422 2.430 . S
Eu401 O423 2.670 . S
Eu401 O424 2.394 . S
Eu401 O429 2.355 . S
Eu401 O431 2.374 . S
C402 C400 1.500 . S
C402 C403 1.377 . S
C402 C407 1.377 . S
C403 C402 1.377 . S
C403 C404 1.395 . S
C403 H432 0.931 . S
C404 C403 1.395 . S
C404 C405 1.383 . S
C404 H433 0.931 . S
C405 C404 1.383 . S
C405 C406 1.394 . S
C406 C405 1.394 . S
C406 C407 1.378 . S
C406 H434 0.931 . S
C407 C402 1.377 . S
C407 C406 1.378 . S
C407 H435 0.931 . S
C408 O422 1.259 . S
C408 O423 1.270 . S
C409 O424 1.251 . S
C409 O425 1.251 . S
C410 Eu411 2.835 . S
C410 C412 1.500 1_565 S
C410 O426 1.257 . S
C410 O427 1.260 . S
Eu411 C410 2.835 . S
Eu411 O423 2.355 . S
Eu411 O425 2.374 . S
Eu411 O426 2.473 . S
Eu411 O427 2.480 . S
Eu411 O428 2.430 . S
Eu411 O429 2.670 . S
Eu411 O430 2.394 . S
C412 C410 1.500 1_545 S
C412 C413 1.377 . S
C412 C417 1.377 . S
C413 C412 1.377 . S
C413 C414 1.395 . S
C413 H436 0.931 . S
C414 C413 1.395 . S
C414 C415 1.383 . S
C414 H437 0.931 . S
C415 C414 1.383 . S
C415 C416 1.394 . S
C416 C415 1.394 . S
C416 C417 1.378 . S
C416 H438 0.931 . S
C417 C412 1.377 . S
C417 C416 1.378 . S
C417 H439 0.931 . S
C418 O428 1.259 . S
C418 O429 1.270 . S
C419 O430 1.251 . S
C419 O431 1.251 . S
O420 C400 1.257 . S
O420 Eu401 2.473 . S
O421 C400 1.260 . S
O421 Eu401 2.480 . S
O422 Eu401 2.430 . S
O422 C408 1.259 . S
O423 Eu401 2.670 . S
O423 C408 1.270 . S
O423 Eu411 2.355 . S
O424 Eu401 2.394 . S
O424 C409 1.251 . S
O425 C409 1.251 . S
O425 Eu411 2.374 . S
O426 C410 1.257 . S
O426 Eu411 2.473 . S
O427 C410 1.260 . S
O427 Eu411 2.480 . S
O428 Eu411 2.430 . S
O428 C418 1.259 . S
O429 Eu401 2.355 . S
O429 Eu411 2.670 . S
O429 C418 1.270 . S
O430 Eu411 2.394 . S
O430 C419 1.251 . S
O431 Eu401 2.374 . S
O431 C419 1.251 . S
H432 C403 0.931 . S
H433 C404 0.931 . S
H434 C406 0.931 . S
H435 C407 0.931 . S
H436 C413 0.931 . S
H437 C414 0.931 . S
H438 C416 0.931 . S
H439 C417 0.931 . S
C440 Eu441 2.835 . S
C440 C442 1.500 . S
C440 O460 1.257 . S
C440 O461 1.260 . S
Eu441 C440 2.835 . S
Eu441 O460 2.473 . S
Eu441 O461 2.480 . S
Eu441 O462 2.430 . S
Eu441 O463 2.670 . S
Eu441 O464 2.394 . S
Eu441 O469 2.355 . S
Eu441 O471 2.374 . S
C442 C440 1.500 . S
C442 C443 1.377 . S
C442 C447 1.377 . S
C443 C442 1.377 . S
C443 C444 1.395 . S
C443 H472 0.931 . S
C444 C443 1.395 . S
C444 C445 1.383 . S
C444 H473 0.931 . S
C445 C444 1.383 . S
C445 C446 1.394 . S
C446 C445 1.394 . S
C446 C447 1.378 . S
C446 H474 0.931 . S
C447 C442 1.377 . S
C447 C446 1.378 . S
C447 H475 0.931 . S
C448 O462 1.259 . S
C448 O463 1.270 . S
C449 O464 1.251 . S
C449 O465 1.251 . S
C450 Eu451 2.835 . S
C450 C452 1.500 . S
C450 O466 1.257 . S
C450 O467 1.260 . S
Eu451 C450 2.835 . S
Eu451 O463 2.355 . S
Eu451 O465 2.374 . S
Eu451 O466 2.473 . S
Eu451 O467 2.480 . S
Eu451 O468 2.430 . S
Eu451 O469 2.670 . S
Eu451 O470 2.394 . S
C452 C450 1.500 . S
C452 C453 1.377 . S
C452 C457 1.377 . S
C453 C452 1.377 . S
C453 C454 1.395 . S
C453 H476 0.931 . S
C454 C453 1.395 . S
C454 C455 1.383 . S
C454 H477 0.931 . S
C455 C454 1.383 . S
C455 C456 1.394 . S
C456 C455 1.394 . S
C456 C457 1.378 . S
C456 H478 0.931 . S
C457 C452 1.377 . S
C457 C456 1.378 . S
C457 H479 0.931 . S
C458 O468 1.259 . S
C458 O469 1.270 . S
C459 O470 1.251 . S
C459 O471 1.251 . S
O460 C440 1.257 . S
O460 Eu441 2.473 . S
O461 C440 1.260 . S
O461 Eu441 2.480 . S
O462 Eu441 2.430 . S
O462 C448 1.259 . S
O463 Eu441 2.670 . S
O463 C448 1.270 . S
O463 Eu451 2.355 . S
O464 Eu441 2.394 . S
O464 C449 1.251 . S
O465 C449 1.251 . S
O465 Eu451 2.374 . S
O466 C450 1.257 . S
O466 Eu451 2.473 . S
O467 C450 1.260 . S
O467 Eu451 2.480 . S
O468 Eu451 2.430 . S
O468 C458 1.259 . S
O469 Eu441 2.355 . S
O469 Eu451 2.670 . S
O469 C458 1.270 . S
O470 Eu451 2.394 . S
O470 C459 1.251 . S
O471 Eu441 2.374 . S
O471 C459 1.251 . S
H472 C443 0.931 . S
H473 C444 0.931 . S
H474 C446 0.931 . S
H475 C447 0.931 . S
H476 C453 0.931 . S
H477 C454 0.931 . S
H478 C456 0.931 . S
H479 C457 0.931 . S
H480 C488 0.950 . S
H481 C493 0.950 . S
H482 C490 0.950 . S
H483 C492 0.950 . S
H484 C494 0.950 . S
H485 C496 0.950 . S
H486 C498 0.950 . S
H487 C499 0.950 . S
C488 H480 0.950 . S
C488 C489 1.386 . S
C488 C490 1.391 . S
C489 C488 1.386 . S
C489 C493 1.393 . S
C490 H482 0.950 . S
C490 C488 1.391 . S
C490 C491 1.400 . S
C491 C490 1.400 . S
C491 C492 1.398 . S
C491 C497 1.491 . S
C492 H483 0.950 . S
C492 C491 1.398 . S
C492 C493 1.391 . S
C493 H481 0.950 . S
C493 C489 1.393 . S
C493 C492 1.391 . S
C494 H484 0.950 . S
C494 C495 1.386 . S
C494 C496 1.391 . S
C495 C494 1.386 . S
C495 C499 1.393 . S
C496 H485 0.950 . S
C496 C494 1.391 . S
C496 C497 1.400 . S
C497 C491 1.491 . S
C497 C496 1.400 . S
C497 C498 1.398 . S
C498 H486 0.950 . S
C498 C497 1.398 . S
C498 C499 1.391 . S
C499 H487 0.950 . S
C499 C495 1.393 . S
C499 C498 1.391 . S
H500 C508 0.950 . S
H501 C513 0.950 . S
H502 C510 0.950 . S
H503 C512 0.950 . S
H504 C514 0.950 . S
H505 C516 0.950 . S
H506 C518 0.950 . S
H507 C519 0.950 . S
C508 H500 0.950 . S
C508 C509 1.386 . S
C508 C510 1.391 . S
C509 C508 1.386 . S
C509 C513 1.393 . S
C510 H502 0.950 . S
C510 C508 1.391 . S
C510 C511 1.400 . S
C511 C510 1.400 . S
C511 C512 1.398 . S
C511 C517 1.491 1_455 S
C512 H503 0.950 . S
C512 C511 1.398 . S
C512 C513 1.391 . S
C513 H501 0.950 . S
C513 C509 1.393 . S
C513 C512 1.391 . S
C514 H504 0.950 . S
C514 C515 1.386 . S
C514 C516 1.391 . S
C515 C514 1.386 . S
C515 C519 1.393 . S
C516 H505 0.950 . S
C516 C514 1.391 . S
C516 C517 1.400 . S
C517 C511 1.491 1_655 S
C517 C516 1.400 . S
C517 C518 1.398 . S
C518 H506 0.950 . S
C518 C517 1.398 . S
C518 C519 1.391 . S
C519 H507 0.950 . S
C519 C515 1.393 . S
C519 C518 1.391 . S
H520 C528 0.950 . S
H521 C533 0.950 . S
H522 C530 0.950 . S
H523 C532 0.950 . S
H524 C534 0.950 . S
H525 C536 0.950 . S
H526 C538 0.950 . S
H527 C539 0.950 . S
C528 H520 0.950 . S
C528 C529 1.386 . S
C528 C530 1.391 . S
C529 C528 1.386 . S
C529 C533 1.393 . S
C530 H522 0.950 . S
C530 C528 1.391 . S
C530 C531 1.400 . S
C531 C530 1.400 . S
C531 C532 1.398 . S
C531 C537 1.491 1_545 S
C532 H523 0.950 . S
C532 C531 1.398 . S
C532 C533 1.391 . S
C533 H521 0.950 . S
C533 C529 1.393 . S
C533 C532 1.391 . S
C534 H524 0.950 . S
C534 C535 1.386 . S
C534 C536 1.391 . S
C535 C534 1.386 . S
C535 C539 1.393 . S
C536 H525 0.950 . S
C536 C534 1.391 . S
C536 C537 1.400 . S
C537 C531 1.491 1_565 S
C537 C536 1.400 . S
C537 C538 1.398 . S
C538 H526 0.950 . S
C538 C537 1.398 . S
C538 C539 1.391 . S
C539 H527 0.950 . S
C539 C535 1.393 . S
C539 C538 1.391 . S
H540 C548 0.950 . S
H541 C553 0.950 . S
H542 C550 0.950 . S
H543 C552 0.950 . S
H544 C554 0.950 . S
H545 C556 0.950 . S
H546 C558 0.950 . S
H547 C559 0.950 . S
C548 H540 0.950 . S
C548 C549 1.386 . S
C548 C550 1.391 . S
C549 C548 1.386 . S
C549 C553 1.393 . S
C550 H542 0.950 . S
C550 C548 1.391 . S
C550 C551 1.400 . S
C551 C550 1.400 . S
C551 C552 1.398 . S
C551 C557 1.491 . S
C552 H543 0.950 . S
C552 C551 1.398 . S
C552 C553 1.391 . S
C553 H541 0.950 . S
C553 C549 1.393 . S
C553 C552 1.391 . S
C554 H544 0.950 . S
C554 C555 1.386 . S
C554 C556 1.391 . S
C555 C554 1.386 . S
C555 C559 1.393 . S
C556 H545 0.950 . S
C556 C554 1.391 . S
C556 C557 1.400 . S
C557 C551 1.491 . S
C557 C556 1.400 . S
C557 C558 1.398 . S
C558 H546 0.950 . S
C558 C557 1.398 . S
C558 C559 1.391 . S
C559 H547 0.950 . S
C559 C555 1.393 . S
C559 C558 1.391 . S
H560 C568 0.950 . S
H561 C573 0.950 . S
H562 C570 0.950 . S
H563 C572 0.950 . S
H564 C574 0.950 . S
H565 C576 0.950 . S
H566 C578 0.950 . S
H567 C579 0.950 . S
C568 H560 0.950 . S
C568 C569 1.386 . S
C568 C570 1.391 . S
C569 C568 1.386 . S
C569 C573 1.393 . S
C570 H562 0.950 . S
C570 C568 1.391 . S
C570 C571 1.400 . S
C571 C570 1.400 . S
C571 C572 1.398 . S
C571 C577 1.491 1_455 S
C572 H563 0.950 . S
C572 C571 1.398 . S
C572 C573 1.391 . S
C573 H561 0.950 . S
C573 C569 1.393 . S
C573 C572 1.391 . S
C574 H564 0.950 . S
C574 C575 1.386 . S
C574 C576 1.391 . S
C575 C574 1.386 . S
C575 C579 1.393 . S
C576 H565 0.950 . S
C576 C574 1.391 . S
C576 C577 1.400 . S
C577 C571 1.491 1_655 S
C577 C576 1.400 . S
C577 C578 1.398 . S
C578 H566 0.950 . S
C578 C577 1.398 . S
C578 C579 1.391 . S
C579 H567 0.950 . S
C579 C575 1.393 . S
C579 C578 1.391 . S
H580 C588 0.950 . S
H581 C593 0.950 . S
H582 C590 0.950 . S
H583 C592 0.950 . S
H584 C594 0.950 . S
H585 C596 0.950 . S
H586 C598 0.950 . S
H587 C599 0.950 . S
C588 H580 0.950 . S
C588 C589 1.386 . S
C588 C590 1.391 . S
C589 C588 1.386 . S
C589 C593 1.393 . S
C590 H582 0.950 . S
C590 C588 1.391 . S
C590 C591 1.400 . S
C591 C590 1.400 . S
C591 C592 1.398 . S
C591 C597 1.491 1_565 S
C592 H583 0.950 . S
C592 C591 1.398 . S
C592 C593 1.391 . S
C593 H581 0.950 . S
C593 C589 1.393 . S
C593 C592 1.391 . S
C594 H584 0.950 . S
C594 C595 1.386 . S
C594 C596 1.391 . S
C595 C594 1.386 . S
C595 C599 1.393 . S
C596 H585 0.950 . S
C596 C594 1.391 . S
C596 C597 1.400 . S
C597 C591 1.491 1_545 S
C597 C596 1.400 . S
C597 C598 1.398 . S
C598 H586 0.950 . S
C598 C597 1.398 . S
C598 C599 1.391 . S
C599 H587 0.950 . S
C599 C595 1.393 . S
C599 C598 1.391 . S
H600 C608 0.950 . S
H601 C613 0.950 . S
H602 C610 0.950 . S
H603 C612 0.950 . S
H604 C614 0.950 . S
H605 C616 0.950 . S
H606 C618 0.950 . S
H607 C619 0.950 . S
C608 H600 0.950 . S
C608 C609 1.386 . S
C608 C610 1.391 . S
C609 C608 1.386 . S
C609 C613 1.393 . S
C610 H602 0.950 . S
C610 C608 1.391 . S
C610 C611 1.400 . S
C611 C610 1.400 . S
C611 C612 1.398 . S
C611 C617 1.491 . S
C612 H603 0.950 . S
C612 C611 1.398 . S
C612 C613 1.391 . S
C613 H601 0.950 . S
C613 C609 1.393 . S
C613 C612 1.391 . S
C614 H604 0.950 . S
C614 C615 1.386 . S
C614 C616 1.391 . S
C615 C614 1.386 . S
C615 C619 1.393 . S
C616 H605 0.950 . S
C616 C614 1.391 . S
C616 C617 1.400 . S
C617 C611 1.491 . S
C617 C616 1.400 . S
C617 C618 1.398 . S
C618 H606 0.950 . S
C618 C617 1.398 . S
C618 C619 1.391 . S
C619 H607 0.950 . S
C619 C615 1.393 . S
C619 C618 1.391 . S
H620 C628 0.950 . S
H621 C633 0.950 . S
H622 C630 0.950 . S
H623 C632 0.950 . S
H624 C634 0.950 . S
H625 C636 0.950 . S
H626 C638 0.950 . S
H627 C639 0.950 . S
C628 H620 0.950 . S
C628 C629 1.386 . S
C628 C630 1.391 . S
C629 C628 1.386 . S
C629 C633 1.393 . S
C630 H622 0.950 . S
C630 C628 1.391 . S
C630 C631 1.400 . S
C631 C630 1.400 . S
C631 C632 1.398 . S
C631 C637 1.491 1_455 S
C632 H623 0.950 . S
C632 C631 1.398 . S
C632 C633 1.391 . S
C633 H621 0.950 . S
C633 C629 1.393 . S
C633 C632 1.391 . S
C634 H624 0.950 . S
C634 C635 1.386 . S
C634 C636 1.391 . S
C635 C634 1.386 . S
C635 C639 1.393 . S
C636 H625 0.950 . S
C636 C634 1.391 . S
C636 C637 1.400 . S
C637 C631 1.491 1_655 S
C637 C636 1.400 . S
C637 C638 1.398 . S
C638 H626 0.950 . S
C638 C637 1.398 . S
C638 C639 1.391 . S
C639 H627 0.950 . S
C639 C635 1.393 . S
C639 C638 1.391 . S
H640 C648 0.950 . S
H641 C653 0.950 . S
H642 C650 0.950 . S
H643 C652 0.950 . S
H644 C654 0.950 . S
H645 C656 0.950 . S
H646 C658 0.950 . S
H647 C659 0.950 . S
C648 H640 0.950 . S
C648 C649 1.386 . S
C648 C650 1.391 . S
C649 C648 1.386 . S
C649 C653 1.393 . S
C650 H642 0.950 . S
C650 C648 1.391 . S
C650 C651 1.400 . S
C651 C650 1.400 . S
C651 C652 1.398 . S
C651 C657 1.491 1_565 S
C652 H643 0.950 . S
C652 C651 1.398 . S
C652 C653 1.391 . S
C653 H641 0.950 . S
C653 C649 1.393 . S
C653 C652 1.391 . S
C654 H644 0.950 . S
C654 C655 1.386 . S
C654 C656 1.391 . S
C655 C654 1.386 . S
C655 C659 1.393 . S
C656 H645 0.950 . S
C656 C654 1.391 . S
C656 C657 1.400 . S
C657 C651 1.491 1_545 S
C657 C656 1.400 . S
C657 C658 1.398 . S
C658 H646 0.950 . S
C658 C657 1.398 . S
C658 C659 1.391 . S
C659 H647 0.950 . S
C659 C655 1.393 . S
C659 C658 1.391 . S
H660 C668 0.950 . S
H661 C673 0.950 . S
H662 C670 0.950 . S
H663 C672 0.950 . S
H664 C674 0.950 . S
H665 C676 0.950 . S
H666 C678 0.950 . S
H667 C679 0.950 . S
C668 H660 0.950 . S
C668 C669 1.386 . S
C668 C670 1.391 . S
C669 C668 1.386 . S
C669 C673 1.393 . S
C670 H662 0.950 . S
C670 C668 1.391 . S
C670 C671 1.400 . S
C671 C670 1.400 . S
C671 C672 1.398 . S
C671 C677 1.491 . S
C672 H663 0.950 . S
C672 C671 1.398 . S
C672 C673 1.391 . S
C673 H661 0.950 . S
C673 C669 1.393 . S
C673 C672 1.391 . S
C674 H664 0.950 . S
C674 C675 1.386 . S
C674 C676 1.391 . S
C675 C674 1.386 . S
C675 C679 1.393 . S
C676 H665 0.950 . S
C676 C674 1.391 . S
C676 C677 1.400 . S
C677 C671 1.491 . S
C677 C676 1.400 . S
C677 C678 1.398 . S
C678 H666 0.950 . S
C678 C677 1.398 . S
C678 C679 1.391 . S
C679 H667 0.950 . S
C679 C675 1.393 . S
C679 C678 1.391 . S
H680 C688 0.950 . S
H681 C693 0.950 . S
H682 C690 0.950 . S
H683 C692 0.950 . S
H684 C694 0.950 . S
H685 C696 0.950 . S
H686 C698 0.950 . S
H687 C699 0.950 . S
C688 H680 0.950 . S
C688 C689 1.386 . S
C688 C690 1.391 . S
C689 C688 1.386 . S
C689 C693 1.393 . S
C690 H682 0.950 . S
C690 C688 1.391 . S
C690 C691 1.400 . S
C691 C690 1.400 . S
C691 C692 1.398 . S
C691 C697 1.491 1_455 S
C692 H683 0.950 . S
C692 C691 1.398 . S
C692 C693 1.391 . S
C693 H681 0.950 . S
C693 C689 1.393 . S
C693 C692 1.391 . S
C694 H684 0.950 . S
C694 C695 1.386 . S
C694 C696 1.391 . S
C695 C694 1.386 . S
C695 C699 1.393 . S
C696 H685 0.950 . S
C696 C694 1.391 . S
C696 C697 1.400 . S
C697 C691 1.491 1_655 S
C697 C696 1.400 . S
C697 C698 1.398 . S
C698 H686 0.950 . S
C698 C697 1.398 . S
C698 C699 1.391 . S
C699 H687 0.950 . S
C699 C695 1.393 . S
C699 C698 1.391 . S
H700 C708 0.950 . S
H701 C713 0.950 . S
H702 C710 0.950 . S
H703 C712 0.950 . S
H704 C714 0.950 . S
H705 C716 0.950 . S
H706 C718 0.950 . S
H707 C719 0.950 . S
C708 H700 0.950 . S
C708 C709 1.386 . S
C708 C710 1.391 . S
C709 C708 1.386 . S
C709 C713 1.393 . S
C710 H702 0.950 . S
C710 C708 1.391 . S
C710 C711 1.400 . S
C711 C710 1.400 . S
C711 C712 1.398 . S
C711 C717 1.491 1_545 S
C712 H703 0.950 . S
C712 C711 1.398 . S
C712 C713 1.391 . S
C713 H701 0.950 . S
C713 C709 1.393 . S
C713 C712 1.391 . S
C714 H704 0.950 . S
C714 C715 1.386 . S
C714 C716 1.391 . S
C715 C714 1.386 . S
C715 C719 1.393 . S
C716 H705 0.950 . S
C716 C714 1.391 . S
C716 C717 1.400 . S
C717 C711 1.491 1_565 S
C717 C716 1.400 . S
C717 C718 1.398 . S
C718 H706 0.950 . S
C718 C717 1.398 . S
C718 C719 1.391 . S
C719 H707 0.950 . S
C719 C715 1.393 . S
C719 C718 1.391 . S
H720 C728 0.950 . S
H721 C733 0.950 . S
H722 C730 0.950 . S
H723 C732 0.950 . S
H724 C734 0.950 . S
H725 C736 0.950 . S
H726 C738 0.950 . S
H727 C739 0.950 . S
C728 H720 0.950 . S
C728 C729 1.386 . S
C728 C730 1.391 . S
C729 C728 1.386 . S
C729 C733 1.393 . S
C730 H722 0.950 . S
C730 C728 1.391 . S
C730 C731 1.400 . S
C731 C730 1.400 . S
C731 C732 1.398 . S
C731 C737 1.491 . S
C732 H723 0.950 . S
C732 C731 1.398 . S
C732 C733 1.391 . S
C733 H721 0.950 . S
C733 C729 1.393 . S
C733 C732 1.391 . S
C734 H724 0.950 . S
C734 C735 1.386 . S
C734 C736 1.391 . S
C735 C734 1.386 . S
C735 C739 1.393 . S
C736 H725 0.950 . S
C736 C734 1.391 . S
C736 C737 1.400 . S
C737 C731 1.491 . S
C737 C736 1.400 . S
C737 C738 1.398 . S
C738 H726 0.950 . S
C738 C737 1.398 . S
C738 C739 1.391 . S
C739 H727 0.950 . S
C739 C735 1.393 . S
C739 C738 1.391 . S
H740 C748 0.950 . S
H741 C753 0.950 . S
H742 C750 0.950 . S
H743 C752 0.950 . S
H744 C754 0.950 . S
H745 C756 0.950 . S
H746 C758 0.950 . S
H747 C759 0.950 . S
C748 H740 0.950 . S
C748 C749 1.386 . S
C748 C750 1.391 . S
C749 C748 1.386 . S
C749 C753 1.393 . S
C750 H742 0.950 . S
C750 C748 1.391 . S
C750 C751 1.400 . S
C751 C750 1.400 . S
C751 C752 1.398 . S
C751 C757 1.491 . S
C752 H743 0.950 . S
C752 C751 1.398 . S
C752 C753 1.391 . S
C753 H741 0.950 . S
C753 C749 1.393 . S
C753 C752 1.391 . S
C754 H744 0.950 . S
C754 C755 1.386 . S
C754 C756 1.391 . S
C755 C754 1.386 . S
C755 C759 1.393 . S
C756 H745 0.950 . S
C756 C754 1.391 . S
C756 C757 1.400 . S
C757 C751 1.491 . S
C757 C756 1.400 . S
C757 C758 1.398 . S
C758 H746 0.950 . S
C758 C757 1.398 . S
C758 C759 1.391 . S
C759 H747 0.950 . S
C759 C755 1.393 . S
C759 C758 1.391 . S
H760 C768 0.950 . S
H761 C773 0.950 . S
H762 C770 0.950 . S
H763 C772 0.950 . S
H764 C774 0.950 . S
H765 C776 0.950 . S
H766 C778 0.950 . S
H767 C779 0.950 . S
C768 H760 0.950 . S
C768 C769 1.386 . S
C768 C770 1.391 . S
C769 C768 1.386 . S
C769 C773 1.393 . S
C770 H762 0.950 . S
C770 C768 1.391 . S
C770 C771 1.400 . S
C771 C770 1.400 . S
C771 C772 1.398 . S
C771 C777 1.491 . S
C772 H763 0.950 . S
C772 C771 1.398 . S
C772 C773 1.391 . S
C773 H761 0.950 . S
C773 C769 1.393 . S
C773 C772 1.391 . S
C774 H764 0.950 . S
C774 C775 1.386 . S
C774 C776 1.391 . S
C775 C774 1.386 . S
C775 C779 1.393 . S
C776 H765 0.950 . S
C776 C774 1.391 . S
C776 C777 1.400 . S
C777 C771 1.491 . S
C777 C776 1.400 . S
C777 C778 1.398 . S
C778 H766 0.950 . S
C778 C777 1.398 . S
C778 C779 1.391 . S
C779 H767 0.950 . S
C779 C775 1.393 . S
C779 C778 1.391 . S
H780 C788 0.950 . S
H781 C793 0.950 . S
H782 C790 0.950 . S
H783 C792 0.950 . S
H784 C794 0.950 . S
H785 C796 0.950 . S
H786 C798 0.950 . S
H787 C799 0.950 . S
C788 H780 0.950 . S
C788 C789 1.386 . S
C788 C790 1.391 . S
C789 C788 1.386 . S
C789 C793 1.393 . S
C790 H782 0.950 . S
C790 C788 1.391 . S
C790 C791 1.400 . S
C791 C790 1.400 . S
C791 C792 1.398 . S
C791 C797 1.491 . S
C792 H783 0.950 . S
C792 C791 1.398 . S
C792 C793 1.391 . S
C793 H781 0.950 . S
C793 C789 1.393 . S
C793 C792 1.391 . S
C794 H784 0.950 . S
C794 C795 1.386 . S
C794 C796 1.391 . S
C795 C794 1.386 . S
C795 C799 1.393 . S
C796 H785 0.950 . S
C796 C794 1.391 . S
C796 C797 1.400 . S
C797 C791 1.491 . S
C797 C796 1.400 . S
C797 C798 1.398 . S
C798 H786 0.950 . S
C798 C797 1.398 . S
C798 C799 1.391 . S
C799 H787 0.950 . S
C799 C795 1.393 . S
C799 C798 1.391 . S
H800 C808 0.950 . S
H801 C813 0.950 . S
H802 C810 0.950 . S
H803 C812 0.950 . S
H804 C814 0.950 . S
H805 C816 0.950 . S
H806 C818 0.950 . S
H807 C819 0.950 . S
C808 H800 0.950 . S
C808 C809 1.386 . S
C808 C810 1.391 . S
C809 C808 1.386 . S
C809 C813 1.393 . S
C810 H802 0.950 . S
C810 C808 1.391 . S
C810 C811 1.400 . S
C811 C810 1.400 . S
C811 C812 1.398 . S
C811 C817 1.491 . S
C812 H803 0.950 . S
C812 C811 1.398 . S
C812 C813 1.391 . S
C813 H801 0.950 . S
C813 C809 1.393 . S
C813 C812 1.391 . S
C814 H804 0.950 . S
C814 C815 1.386 . S
C814 C816 1.391 . S
C815 C814 1.386 . S
C815 C819 1.393 . S
C816 H805 0.950 . S
C816 C814 1.391 . S
C816 C817 1.400 . S
C817 C811 1.491 . S
C817 C816 1.400 . S
C817 C818 1.398 . S
C818 H806 0.950 . S
C818 C817 1.398 . S
C818 C819 1.391 . S
C819 H807 0.950 . S
C819 C815 1.393 . S
C819 C818 1.391 . S
H820 C828 0.950 . S
H821 C833 0.950 . S
H822 C830 0.950 . S
H823 C832 0.950 . S
H824 C834 0.950 . S
H825 C836 0.950 . S
H826 C838 0.950 . S
H827 C839 0.950 . S
C828 H820 0.950 . S
C828 C829 1.386 . S
C828 C830 1.391 . S
C829 C828 1.386 . S
C829 C833 1.393 . S
C830 H822 0.950 . S
C830 C828 1.391 . S
C830 C831 1.400 . S
C831 C830 1.400 . S
C831 C832 1.398 . S
C831 C837 1.491 . S
C832 H823 0.950 . S
C832 C831 1.398 . S
C832 C833 1.391 . S
C833 H821 0.950 . S
C833 C829 1.393 . S
C833 C832 1.391 . S
C834 H824 0.950 . S
C834 C835 1.386 . S
C834 C836 1.391 . S
C835 C834 1.386 . S
C835 C839 1.393 . S
C836 H825 0.950 . S
C836 C834 1.391 . S
C836 C837 1.400 . S
C837 C831 1.491 . S
C837 C836 1.400 . S
C837 C838 1.398 . S
C838 H826 0.950 . S
C838 C837 1.398 . S
C838 C839 1.391 . S
C839 H827 0.950 . S
C839 C835 1.393 . S
C839 C838 1.391 . S
H840 C848 0.950 . S
H841 C853 0.950 . S
H842 C850 0.950 1_554 S
H843 C852 0.950 . S
H844 C854 0.950 . S
H845 C856 0.950 1_556 S
H846 C858 0.950 . S
H847 C859 0.950 . S
C848 H840 0.950 . S
C848 C849 1.386 . S
C848 C850 1.391 . S
C849 C848 1.386 . S
C849 C853 1.393 . S
C850 H842 0.950 1_556 S
C850 C848 1.391 . S
C850 C851 1.400 . S
C851 C850 1.400 . S
C851 C852 1.398 . S
C851 C857 1.491 1_566 S
C852 H843 0.950 . S
C852 C851 1.398 . S
C852 C853 1.391 . S
C853 H841 0.950 . S
C853 C849 1.393 . S
C853 C852 1.391 . S
C854 H844 0.950 . S
C854 C855 1.386 . S
C854 C856 1.391 . S
C855 C854 1.386 . S
C855 C859 1.393 . S
C856 H845 0.950 1_554 S
C856 C854 1.391 . S
C856 C857 1.400 . S
C857 C851 1.491 1_544 S
C857 C856 1.400 . S
C857 C858 1.398 . S
C858 H846 0.950 . S
C858 C857 1.398 . S
C858 C859 1.391 . S
C859 H847 0.950 . S
C859 C855 1.393 . S
C859 C858 1.391 . S
H860 C868 0.950 . S
H861 C873 0.950 . S
H862 C870 0.950 . S
H863 C872 0.950 . S
H864 C874 0.950 . S
H865 C876 0.950 . S
H866 C878 0.950 . S
H867 C879 0.950 . S
C868 H860 0.950 . S
C868 C869 1.386 . S
C868 C870 1.391 . S
C869 C868 1.386 . S
C869 C873 1.393 . S
C870 H862 0.950 . S
C870 C868 1.391 . S
C870 C871 1.400 . S
C871 C870 1.400 . S
C871 C872 1.398 . S
C871 C877 1.491 . S
C872 H863 0.950 . S
C872 C871 1.398 . S
C872 C873 1.391 . S
C873 H861 0.950 . S
C873 C869 1.393 . S
C873 C872 1.391 . S
C874 H864 0.950 . S
C874 C875 1.386 . S
C874 C876 1.391 . S
C875 C874 1.386 . S
C875 C879 1.393 . S
C876 H865 0.950 . S
C876 C874 1.391 . S
C876 C877 1.400 . S
C877 C871 1.491 . S
C877 C876 1.400 . S
C877 C878 1.398 . S
C878 H866 0.950 . S
C878 C877 1.398 . S
C878 C879 1.391 . S
C879 H867 0.950 . S
C879 C875 1.393 . S
C879 C878 1.391 . S
H880 C888 0.950 . S
H881 C893 0.950 . S
H882 C890 0.950 1_554 S
H883 C892 0.950 . S
H884 C894 0.950 . S
H885 C896 0.950 1_556 S
H886 C898 0.950 . S
H887 C899 0.950 . S
C888 H880 0.950 . S
C888 C889 1.386 . S
C888 C890 1.391 . S
C889 C888 1.386 . S
C889 C893 1.393 . S
C890 H882 0.950 1_556 S
C890 C888 1.391 . S
C890 C891 1.400 . S
C891 C890 1.400 . S
C891 C892 1.398 . S
C891 C897 1.491 1_456 S
C892 H883 0.950 . S
C892 C891 1.398 . S
C892 C893 1.391 . S
C893 H881 0.950 . S
C893 C889 1.393 . S
C893 C892 1.391 . S
C894 H884 0.950 . S
C894 C895 1.386 . S
C894 C896 1.391 . S
C895 C894 1.386 . S
C895 C899 1.393 . S
C896 H885 0.950 1_554 S
C896 C894 1.391 . S
C896 C897 1.400 . S
C897 C891 1.491 1_654 S
C897 C896 1.400 . S
C897 C898 1.398 . S
C898 H886 0.950 . S
C898 C897 1.398 . S
C898 C899 1.391 . S
C899 H887 0.950 . S
C899 C895 1.393 . S
C899 C898 1.391 . S
H900 C908 0.950 . S
H901 C913 0.950 . S
H902 C910 0.950 . S
H903 C912 0.950 . S
H904 C914 0.950 . S
H905 C916 0.950 . S
H906 C918 0.950 . S
H907 C919 0.950 . S
C908 H900 0.950 . S
C908 C909 1.386 . S
C908 C910 1.391 . S
C909 C908 1.386 . S
C909 C913 1.393 . S
C910 H902 0.950 . S
C910 C908 1.391 . S
C910 C911 1.400 . S
C911 C910 1.400 . S
C911 C912 1.398 . S
C911 C917 1.491 1_545 S
C912 H903 0.950 . S
C912 C911 1.398 . S
C912 C913 1.391 . S
C913 H901 0.950 . S
C913 C909 1.393 . S
C913 C912 1.391 . S
C914 H904 0.950 . S
C914 C915 1.386 . S
C914 C916 1.391 . S
C915 C914 1.386 . S
C915 C919 1.393 . S
C916 H905 0.950 . S
C916 C914 1.391 . S
C916 C917 1.400 . S
C917 C911 1.491 1_565 S
C917 C916 1.400 . S
C917 C918 1.398 . S
C918 H906 0.950 . S
C918 C917 1.398 . S
C918 C919 1.391 . S
C919 H907 0.950 . S
C919 C915 1.393 . S
C919 C918 1.391 . S
H920 C928 0.950 . S
H921 C933 0.950 . S
H922 C930 0.980 . S
H923 C932 0.950 . S
H924 C934 0.950 . S
H925 C936 0.980 . S
H926 C938 0.950 . S
H927 C939 0.950 . S
C928 H920 0.950 . S
C928 C929 1.386 . S
C928 C930 1.373 1_554 S
C929 C928 1.386 . S
C929 C933 1.393 . S
C930 H922 0.980 . S
C930 C928 1.373 1_556 S
C930 C931 1.390 1_556 S
C931 C930 1.390 1_554 S
C931 C932 1.398 . S
C931 C937 1.491 1_554 S
C932 H923 0.950 . S
C932 C931 1.398 . S
C932 C933 1.391 . S
C933 H921 0.950 . S
C933 C929 1.393 . S
C933 C932 1.391 . S
C934 H924 0.950 . S
C934 C935 1.386 . S
C934 C936 1.373 1_556 S
C935 C934 1.386 . S
C935 C939 1.393 . S
C936 H925 0.980 . S
C936 C934 1.373 1_554 S
C936 C937 1.390 1_554 S
C937 C931 1.491 1_556 S
C937 C936 1.390 1_556 S
C937 C938 1.398 . S
C938 H926 0.950 . S
C938 C937 1.398 . S
C938 C939 1.391 . S
C939 H927 0.950 . S
C939 C935 1.393 . S
C939 C938 1.391 . S
H940 C948 0.950 . S
H941 C953 0.950 . S
H942 C950 0.950 . S
H943 C952 0.950 . S
H944 C954 0.950 . S
H945 C956 0.950 . S
H946 C958 0.950 . S
H947 C959 0.950 . S
C948 H940 0.950 . S
C948 C949 1.386 . S
C948 C950 1.391 . S
C949 C948 1.386 . S
C949 C953 1.393 . S
C950 H942 0.950 . S
C950 C948 1.391 . S
C950 C951 1.400 . S
C951 C950 1.400 . S
C951 C952 1.398 . S
C951 C957 1.491 1_455 S
C952 H943 0.950 . S
C952 C951 1.398 . S
C952 C953 1.391 . S
C953 H941 0.950 . S
C953 C949 1.393 . S
C953 C952 1.391 . S
C954 H944 0.950 . S
C954 C955 1.386 . S
C954 C956 1.391 . S
C955 C954 1.386 . S
C955 C959 1.393 . S
C956 H945 0.950 . S
C956 C954 1.391 . S
C956 C957 1.400 . S
C957 C951 1.491 1_655 S
C957 C956 1.400 . S
C957 C958 1.398 . S
C958 H946 0.950 . S
C958 C957 1.398 . S
C958 C959 1.391 . S
C959 H947 0.950 . S
C959 C955 1.393 . S
C959 C958 1.391 . S
H960 C968 0.950 . S
H961 C973 0.950 . S
H962 C970 0.950 . S
H963 C972 0.950 . S
H964 C974 0.950 . S
H965 C976 0.950 . S
H966 C978 0.950 . S
H967 C979 0.950 . S
C968 H960 0.950 . S
C968 C969 1.386 . S
C968 C970 1.391 . S
C969 C968 1.386 . S
C969 C973 1.393 . S
C970 H962 0.950 . S
C970 C968 1.391 . S
C970 C971 1.400 . S
C971 C970 1.400 . S
C971 C972 1.398 . S
C971 C977 1.491 . S
C972 H963 0.950 . S
C972 C971 1.398 . S
C972 C973 1.391 . S
C973 H961 0.950 . S
C973 C969 1.393 . S
C973 C972 1.391 . S
C974 H964 0.950 . S
C974 C975 1.386 . S
C974 C976 1.391 . S
C975 C974 1.386 . S
C975 C979 1.393 . S
C976 H965 0.950 . S
C976 C974 1.391 . S
C976 C977 1.400 . S
C977 C971 1.491 . S
C977 C976 1.400 . S
C977 C978 1.398 . S
C978 H966 0.950 . S
C978 C977 1.398 . S
C978 C979 1.391 . S
C979 H967 0.950 . S
C979 C975 1.393 . S
C979 C978 1.391 . S
H980 C988 0.950 . S
H981 C993 0.950 . S
H982 C990 0.950 . S
H983 C992 0.950 . S
H984 C994 0.950 . S
H985 C996 0.950 . S
H986 C998 0.950 . S
H987 C999 0.950 . S
C988 H980 0.950 . S
C988 C989 1.386 . S
C988 C990 1.391 . S
C989 C988 1.386 . S
C989 C993 1.393 . S
C990 H982 0.950 . S
C990 C988 1.391 . S
C990 C991 1.400 . S
C991 C990 1.400 . S
C991 C992 1.398 . S
C991 C997 1.491 . S
C992 H983 0.950 . S
C992 C991 1.398 . S
C992 C993 1.391 . S
C993 H981 0.950 . S
C993 C989 1.393 . S
C993 C992 1.391 . S
C994 H984 0.950 . S
C994 C995 1.386 . S
C994 C996 1.391 . S
C995 C994 1.386 . S
C995 C999 1.393 . S
C996 H985 0.950 . S
C996 C994 1.391 . S
C996 C997 1.400 . S
C997 C991 1.491 . S
C997 C996 1.400 . S
C997 C998 1.398 . S
C998 H986 0.950 . S
C998 C997 1.398 . S
C998 C999 1.391 . S
C999 H987 0.950 . S
C999 C995 1.393 . S
C999 C998 1.391 . S
H1000 C1008 0.950 . S
H1001 C1013 0.950 . S
H1002 C1010 0.950 . S
H1003 C1012 0.950 . S
H1004 C1014 0.950 . S
H1005 C1016 0.950 . S
H1006 C1018 0.950 . S
H1007 C1019 0.950 . S
C1008 H1000 0.950 . S
C1008 C1009 1.386 . S
C1008 C1010 1.391 . S
C1009 C1008 1.386 . S
C1009 C1013 1.393 . S
C1010 H1002 0.950 . S
C1010 C1008 1.391 . S
C1010 C1011 1.400 . S
C1011 C1010 1.400 . S
C1011 C1012 1.398 . S
C1011 C1017 1.491 . S
C1012 H1003 0.950 . S
C1012 C1011 1.398 . S
C1012 C1013 1.391 . S
C1013 H1001 0.950 . S
C1013 C1009 1.393 . S
C1013 C1012 1.391 . S
C1014 H1004 0.950 . S
C1014 C1015 1.386 . S
C1014 C1016 1.391 . S
C1015 C1014 1.386 . S
C1015 C1019 1.393 . S
C1016 H1005 0.950 . S
C1016 C1014 1.391 . S
C1016 C1017 1.400 . S
C1017 C1011 1.491 . S
C1017 C1016 1.400 . S
C1017 C1018 1.398 . S
C1018 H1006 0.950 . S
C1018 C1017 1.398 . S
C1018 C1019 1.391 . S
C1019 H1007 0.950 . S
C1019 C1015 1.393 . S
C1019 C1018 1.391 . S
H1020 C1028 0.950 . S
H1021 C1033 0.950 . S
H1022 C1030 0.950 . S
H1023 C1032 0.950 . S
H1024 C1034 0.950 . S
H1025 C1036 0.950 . S
H1026 C1038 0.950 . S
H1027 C1039 0.950 . S
C1028 H1020 0.950 . S
C1028 C1029 1.386 . S
C1028 C1030 1.391 . S
C1029 C1028 1.386 . S
C1029 C1033 1.393 . S
C1030 H1022 0.950 . S
C1030 C1028 1.391 . S
C1030 C1031 1.400 . S
C1031 C1030 1.400 . S
C1031 C1032 1.398 . S
C1031 C1037 1.491 . S
C1032 H1023 0.950 . S
C1032 C1031 1.398 . S
C1032 C1033 1.391 . S
C1033 H1021 0.950 . S
C1033 C1029 1.393 . S
C1033 C1032 1.391 . S
C1034 H1024 0.950 . S
C1034 C1035 1.386 . S
C1034 C1036 1.391 . S
C1035 C1034 1.386 . S
C1035 C1039 1.393 . S
C1036 H1025 0.950 . S
C1036 C1034 1.391 . S
C1036 C1037 1.400 . S
C1037 C1031 1.491 . S
C1037 C1036 1.400 . S
C1037 C1038 1.398 . S
C1038 H1026 0.950 . S
C1038 C1037 1.398 . S
C1038 C1039 1.391 . S
C1039 H1027 0.950 . S
C1039 C1035 1.393 . S
C1039 C1038 1.391 . S
H1040 C1048 0.950 . S
H1041 C1053 0.950 . S
H1042 C1050 0.950 . S
H1043 C1052 0.950 . S
H1044 C1054 0.950 . S
H1045 C1056 0.950 . S
H1046 C1058 0.950 . S
H1047 C1059 0.950 . S
C1048 H1040 0.950 . S
C1048 C1049 1.386 . S
C1048 C1050 1.391 . S
C1049 C1048 1.386 . S
C1049 C1053 1.393 . S
C1050 H1042 0.950 . S
C1050 C1048 1.391 . S
C1050 C1051 1.400 . S
C1051 C1050 1.400 . S
C1051 C1052 1.398 . S
C1051 C1057 1.491 . S
C1052 H1043 0.950 . S
C1052 C1051 1.398 . S
C1052 C1053 1.391 . S
C1053 H1041 0.950 . S
C1053 C1049 1.393 . S
C1053 C1052 1.391 . S
C1054 H1044 0.950 . S
C1054 C1055 1.386 . S
C1054 C1056 1.391 . S
C1055 C1054 1.386 . S
C1055 C1059 1.393 . S
C1056 H1045 0.950 . S
C1056 C1054 1.391 . S
C1056 C1057 1.400 . S
C1057 C1051 1.491 . S
C1057 C1056 1.400 . S
C1057 C1058 1.398 . S
C1058 H1046 0.950 . S
C1058 C1057 1.398 . S
C1058 C1059 1.391 . S
C1059 H1047 0.950 . S
C1059 C1055 1.393 . S
C1059 C1058 1.391 . S
H1060 C1068 0.950 . S
H1061 C1073 0.950 . S
H1062 C1070 0.950 . S
H1063 C1072 0.950 . S
H1064 C1074 0.950 . S
H1065 C1076 0.950 . S
H1066 C1078 0.950 . S
H1067 C1079 0.950 . S
C1068 H1060 0.950 . S
C1068 C1069 1.386 . S
C1068 C1070 1.391 . S
C1069 C1068 1.386 . S
C1069 C1073 1.393 . S
C1070 H1062 0.950 . S
C1070 C1068 1.391 . S
C1070 C1071 1.400 . S
C1071 C1070 1.400 . S
C1071 C1072 1.398 . S
C1071 C1077 1.491 . S
C1072 H1063 0.950 . S
C1072 C1071 1.398 . S
C1072 C1073 1.391 . S
C1073 H1061 0.950 . S
C1073 C1069 1.393 . S
C1073 C1072 1.391 . S
C1074 H1064 0.950 . S
C1074 C1075 1.386 . S
C1074 C1076 1.391 . S
C1075 C1074 1.386 . S
C1075 C1079 1.393 . S
C1076 H1065 0.950 . S
C1076 C1074 1.391 . S
C1076 C1077 1.400 . S
C1077 C1071 1.491 . S
C1077 C1076 1.400 . S
C1077 C1078 1.398 . S
C1078 H1066 0.950 . S
C1078 C1077 1.398 . S
C1078 C1079 1.391 . S
C1079 H1067 0.950 . S
C1079 C1075 1.393 . S
C1079 C1078 1.391 . S
H1080 C1088 0.950 . S
H1081 C1093 0.950 . S
H1082 C1090 0.950 . S
H1083 C1092 0.950 . S
H1084 C1094 0.950 . S
H1085 C1096 0.950 . S
H1086 C1098 0.950 . S
H1087 C1099 0.950 . S
C1088 H1080 0.950 . S
C1088 C1089 1.386 . S
C1088 C1090 1.391 . S
C1089 C1088 1.386 . S
C1089 C1093 1.393 . S
C1090 H1082 0.950 . S
C1090 C1088 1.391 . S
C1090 C1091 1.400 . S
C1091 C1090 1.400 . S
C1091 C1092 1.398 . S
C1091 C1097 1.491 . S
C1092 H1083 0.950 . S
C1092 C1091 1.398 . S
C1092 C1093 1.391 . S
C1093 H1081 0.950 . S
C1093 C1089 1.393 . S
C1093 C1092 1.391 . S
C1094 H1084 0.950 . S
C1094 C1095 1.386 . S
C1094 C1096 1.391 . S
C1095 C1094 1.386 . S
C1095 C1099 1.393 . S
C1096 H1085 0.950 . S
C1096 C1094 1.391 . S
C1096 C1097 1.400 . S
C1097 C1091 1.491 . S
C1097 C1096 1.400 . S
C1097 C1098 1.398 . S
C1098 H1086 0.950 . S
C1098 C1097 1.398 . S
C1098 C1099 1.391 . S
C1099 H1087 0.950 . S
C1099 C1095 1.393 . S
C1099 C1098 1.391 . S
H1100 C1108 0.950 . S
H1101 C1113 0.950 . S
H1102 C1110 0.950 . S
H1103 C1112 0.950 . S
H1104 C1114 0.950 . S
H1105 C1116 0.950 . S
H1106 C1118 0.950 . S
H1107 C1119 0.950 . S
C1108 H1100 0.950 . S
C1108 C1109 1.386 . S
C1108 C1110 1.391 . S
C1109 C1108 1.386 . S
C1109 C1113 1.393 . S
C1110 H1102 0.950 . S
C1110 C1108 1.391 . S
C1110 C1111 1.400 . S
C1111 C1110 1.400 . S
C1111 C1112 1.398 . S
C1111 C1117 1.491 . S
C1112 H1103 0.950 . S
C1112 C1111 1.398 . S
C1112 C1113 1.391 . S
C1113 H1101 0.950 . S
C1113 C1109 1.393 . S
C1113 C1112 1.391 . S
C1114 H1104 0.950 . S
C1114 C1115 1.386 . S
C1114 C1116 1.391 . S
C1115 C1114 1.386 . S
C1115 C1119 1.393 . S
C1116 H1105 0.950 . S
C1116 C1114 1.391 . S
C1116 C1117 1.400 . S
C1117 C1111 1.491 . S
C1117 C1116 1.400 . S
C1117 C1118 1.398 . S
C1118 H1106 0.950 . S
C1118 C1117 1.398 . S
C1118 C1119 1.391 . S
C1119 H1107 0.950 . S
C1119 C1115 1.393 . S
C1119 C1118 1.391 . S
H1120 C1128 0.950 . S
H1121 C1133 0.950 . S
H1122 C1130 0.950 . S
H1123 C1132 0.950 . S
H1124 C1134 0.950 . S
H1125 C1136 0.950 . S
H1126 C1138 0.950 . S
H1127 C1139 0.950 . S
C1128 H1120 0.950 . S
C1128 C1129 1.386 . S
C1128 C1130 1.391 . S
C1129 C1128 1.386 . S
C1129 C1133 1.393 . S
C1130 H1122 0.950 . S
C1130 C1128 1.391 . S
C1130 C1131 1.400 . S
C1131 C1130 1.400 . S
C1131 C1132 1.398 . S
C1131 C1137 1.491 . S
C1132 H1123 0.950 . S
C1132 C1131 1.398 . S
C1132 C1133 1.391 . S
C1133 H1121 0.950 . S
C1133 C1129 1.393 . S
C1133 C1132 1.391 . S
C1134 H1124 0.950 . S
C1134 C1135 1.386 . S
C1134 C1136 1.391 . S
C1135 C1134 1.386 . S
C1135 C1139 1.393 . S
C1136 H1125 0.950 . S
C1136 C1134 1.391 . S
C1136 C1137 1.400 . S
C1137 C1131 1.491 . S
C1137 C1136 1.400 . S
C1137 C1138 1.398 . S
C1138 H1126 0.950 . S
C1138 C1137 1.398 . S
C1138 C1139 1.391 . S
C1139 H1127 0.950 . S
C1139 C1135 1.393 . S
C1139 C1138 1.391 . S
H1140 C1148 0.950 . S
H1141 C1153 0.950 . S
H1142 C1150 0.950 . S
H1143 C1152 0.950 . S
H1144 C1154 0.950 . S
H1145 C1156 0.950 . S
H1146 C1158 0.950 . S
H1147 C1159 0.950 . S
C1148 H1140 0.950 . S
C1148 C1149 1.386 . S
C1148 C1150 1.391 . S
C1149 C1148 1.386 . S
C1149 C1153 1.393 . S
C1150 H1142 0.950 . S
C1150 C1148 1.391 . S
C1150 C1151 1.400 . S
C1151 C1150 1.400 . S
C1151 C1152 1.398 . S
C1151 C1157 1.491 . S
C1152 H1143 0.950 . S
C1152 C1151 1.398 . S
C1152 C1153 1.391 . S
C1153 H1141 0.950 . S
C1153 C1149 1.393 . S
C1153 C1152 1.391 . S
C1154 H1144 0.950 . S
C1154 C1155 1.386 . S
C1154 C1156 1.391 . S
C1155 C1154 1.386 . S
C1155 C1159 1.393 . S
C1156 H1145 0.950 . S
C1156 C1154 1.391 . S
C1156 C1157 1.400 . S
C1157 C1151 1.491 . S
C1157 C1156 1.400 . S
C1157 C1158 1.398 . S
C1158 H1146 0.950 . S
C1158 C1157 1.398 . S
C1158 C1159 1.391 . S
C1159 H1147 0.950 . S
C1159 C1155 1.393 . S
C1159 C1158 1.391 . S
H1160 C1168 0.950 . S
H1161 C1173 0.950 . S
H1162 C1170 0.950 . S
H1163 C1172 0.950 . S
H1164 C1174 0.950 . S
H1165 C1176 0.950 . S
H1166 C1178 0.950 . S
H1167 C1179 0.950 . S
C1168 H1160 0.950 . S
C1168 C1169 1.386 . S
C1168 C1170 1.391 . S
C1169 C1168 1.386 . S
C1169 C1173 1.393 . S
C1170 H1162 0.950 . S
C1170 C1168 1.391 . S
C1170 C1171 1.400 . S
C1171 C1170 1.400 . S
C1171 C1172 1.398 . S
C1171 C1177 1.491 . S
C1172 H1163 0.950 . S
C1172 C1171 1.398 . S
C1172 C1173 1.391 . S
C1173 H1161 0.950 . S
C1173 C1169 1.393 . S
C1173 C1172 1.391 . S
C1174 H1164 0.950 . S
C1174 C1175 1.386 . S
C1174 C1176 1.391 . S
C1175 C1174 1.386 . S
C1175 C1179 1.393 . S
C1176 H1165 0.950 . S
C1176 C1174 1.391 . S
C1176 C1177 1.400 . S
C1177 C1171 1.491 . S
C1177 C1176 1.400 . S
C1177 C1178 1.398 . S
C1178 H1166 0.950 . S
C1178 C1177 1.398 . S
C1178 C1179 1.391 . S
C1179 H1167 0.950 . S
C1179 C1175 1.393 . S
C1179 C1178 1.391 . S
H1180 C1188 0.950 . S
H1181 C1193 0.950 . S
H1182 C1190 0.950 . S
H1183 C1192 0.950 . S
H1184 C1194 0.950 . S
H1185 C1196 0.950 . S
H1186 C1198 0.950 . S
H1187 C1199 0.950 . S
C1188 H1180 0.950 . S
C1188 C1189 1.386 . S
C1188 C1190 1.391 . S
C1189 C1188 1.386 . S
C1189 C1193 1.393 . S
C1190 H1182 0.950 . S
C1190 C1188 1.391 . S
C1190 C1191 1.400 . S
C1191 C1190 1.400 . S
C1191 C1192 1.398 . S
C1191 C1197 1.491 . S
C1192 H1183 0.950 . S
C1192 C1191 1.398 . S
C1192 C1193 1.391 . S
C1193 H1181 0.950 . S
C1193 C1189 1.393 . S
C1193 C1192 1.391 . S
C1194 H1184 0.950 . S
C1194 C1195 1.386 . S
C1194 C1196 1.391 . S
C1195 C1194 1.386 . S
C1195 C1199 1.393 . S
C1196 H1185 0.950 . S
C1196 C1194 1.391 . S
C1196 C1197 1.400 . S
C1197 C1191 1.491 . S
C1197 C1196 1.400 . S
C1197 C1198 1.398 . S
C1198 H1186 0.950 . S
C1198 C1197 1.398 . S
C1198 C1199 1.391 . S
C1199 H1187 0.950 . S
C1199 C1195 1.393 . S
C1199 C1198 1.391 . S
C489 C85 1.246 . S
C495 C9 1.222 . S
C509 C135 1.237 . S
C515 C59 1.202 . S
C529 C89 1.201 . S
C535 C165 1.237 . S
C549 C139 1.216 . S
C555 C215 1.242 . S
C569 C5 1.238 . S
C575 C169 1.206 . S
C589 C55 1.246 . S
C595 C219 1.224 . S
C609 C415 1.248 . S
C615 C259 1.228 . S
C629 C289 1.200 . S
C635 C445 1.236 . S
C649 C339 1.226 . S
C655 C255 1.247 . S
C669 C369 1.201 . S
C675 C285 1.237 . S
C689 C419 1.207 . S
C695 C335 1.240 . S
C709 C365 1.244 . S
C715 C449 1.220 . S
C729 C138 1.719 . S
C735 C8 1.726 . S
C749 C58 1.708 . S
C755 C168 1.737 . S
C769 C88 1.737 . S
C775 C218 1.707 . S
C789 C258 1.728 . S
C795 C368 1.717 . S
C809 C288 1.727 . S
C815 C418 1.718 . S
C829 C338 1.711 . S
C835 C448 1.734 . S
C849 C298 2.316 . S
C855 C18 2.314 . S
C869 C48 2.312 . S
C875 C328 2.309 . S
C889 C378 2.311 . S
C895 C98 2.309 . S
C909 C128 2.310 . S
C915 C408 2.310 . S
C929 C178 2.315 . S
C935 C458 2.312 . S
C949 C248 2.310 . S
C955 C208 2.310 . S
C969 C95 1.671 . S
C975 C19 1.667 . S
C989 C49 1.675 . S
C995 C125 1.678 . S
C1009 C99 1.668 . S
C1015 C175 1.673 . S
C1029 C129 1.678 . S
C1035 C205 1.677 . S
C1049 C15 1.667 . S
C1055 C179 1.675 . S
C1069 C45 1.677 . S
C1075 C209 1.678 . S
C1089 C405 1.665 . S
C1095 C249 1.666 . S
C1109 C299 1.674 . S
C1115 C455 1.666 . S
C1129 C329 1.666 . S
C1135 C245 1.670 . S
C1149 C295 1.664 . S
C1155 C379 1.670 . S
C1169 C409 1.678 . S
C1175 C325 1.672 . S
C1189 C459 1.673 . S
C1195 C375 1.677 . S
