# Generated by pormake.
# Topology uou, (4)-cn, num edge types: 1
# Building blocks:
#     Node 0, Type 0, BuildingBlock: TATPOV_clean_sbu_0, # of connection points: 4
#     Node 1, Type 0, BuildingBlock: TATPOV_clean_sbu_0, # of connection points: 4
#     Node 2, Type 0, BuildingBlock: TATPOV_clean_sbu_0, # of connection points: 4
#     Node 3, Type 0, BuildingBlock: TATPOV_clean_sbu_0, # of connection points: 4
#     Node 4, Type 0, BuildingBlock: TATPOV_clean_sbu_0, # of connection points: 4
#     Node 5, Type 0, BuildingBlock: TATPOV_clean_sbu_0, # of connection points: 4
#     Node 6, Type 0, BuildingBlock: TATPOV_clean_sbu_0, # of connection points: 4
#     Node 7, Type 0, BuildingBlock: TATPOV_clean_sbu_0, # of connection points: 4
#     Node 8, Type 0, BuildingBlock: TATPOV_clean_sbu_0, # of connection points: 4
#     Node 9, Type 0, BuildingBlock: TATPOV_clean_sbu_0, # of connection points: 4
#     Node 10, Type 0, BuildingBlock: TATPOV_clean_sbu_0, # of connection points: 4
#     Node 11, Type 0, BuildingBlock: TATPOV_clean_sbu_0, # of connection points: 4
#     Node 12, Type 0, BuildingBlock: TATPOV_clean_sbu_0, # of connection points: 4
#     Node 13, Type 0, BuildingBlock: TATPOV_clean_sbu_0, # of connection points: 4
#     Node 14, Type 0, BuildingBlock: TATPOV_clean_sbu_0, # of connection points: 4
#     Node 15, Type 0, BuildingBlock: TATPOV_clean_sbu_0, # of connection points: 4
#     Edge 16, Type (0, 0), BuildingBlock: KIFKEQ_clean_linker_1, # of connection points: 2
#     Edge 17, Type (0, 0), BuildingBlock: KIFKEQ_clean_linker_1, # of connection points: 2
#     Edge 18, Type (0, 0), BuildingBlock: KIFKEQ_clean_linker_1, # of connection points: 2
#     Edge 19, Type (0, 0), BuildingBlock: KIFKEQ_clean_linker_1, # of connection points: 2
#     Edge 20, Type (0, 0), BuildingBlock: KIFKEQ_clean_linker_1, # of connection points: 2
#     Edge 21, Type (0, 0), BuildingBlock: KIFKEQ_clean_linker_1, # of connection points: 2
#     Edge 22, Type (0, 0), BuildingBlock: KIFKEQ_clean_linker_1, # of connection points: 2
#     Edge 23, Type (0, 0), BuildingBlock: KIFKEQ_clean_linker_1, # of connection points: 2
#     Edge 24, Type (0, 0), BuildingBlock: KIFKEQ_clean_linker_1, # of connection points: 2
#     Edge 25, Type (0, 0), BuildingBlock: KIFKEQ_clean_linker_1, # of connection points: 2
#     Edge 26, Type (0, 0), BuildingBlock: KIFKEQ_clean_linker_1, # of connection points: 2
#     Edge 27, Type (0, 0), BuildingBlock: KIFKEQ_clean_linker_1, # of connection points: 2
#     Edge 28, Type (0, 0), BuildingBlock: KIFKEQ_clean_linker_1, # of connection points: 2
#     Edge 29, Type (0, 0), BuildingBlock: KIFKEQ_clean_linker_1, # of connection points: 2
#     Edge 30, Type (0, 0), BuildingBlock: KIFKEQ_clean_linker_1, # of connection points: 2
#     Edge 31, Type (0, 0), BuildingBlock: KIFKEQ_clean_linker_1, # of connection points: 2
#     Edge 32, Type (0, 0), BuildingBlock: KIFKEQ_clean_linker_1, # of connection points: 2
#     Edge 33, Type (0, 0), BuildingBlock: KIFKEQ_clean_linker_1, # of connection points: 2
#     Edge 34, Type (0, 0), BuildingBlock: KIFKEQ_clean_linker_1, # of connection points: 2
#     Edge 35, Type (0, 0), BuildingBlock: KIFKEQ_clean_linker_1, # of connection points: 2
#     Edge 36, Type (0, 0), BuildingBlock: KIFKEQ_clean_linker_1, # of connection points: 2
#     Edge 37, Type (0, 0), BuildingBlock: KIFKEQ_clean_linker_1, # of connection points: 2
#     Edge 38, Type (0, 0), BuildingBlock: KIFKEQ_clean_linker_1, # of connection points: 2
#     Edge 39, Type (0, 0), BuildingBlock: KIFKEQ_clean_linker_1, # of connection points: 2
#     Edge 40, Type (0, 0), BuildingBlock: KIFKEQ_clean_linker_1, # of connection points: 2
#     Edge 41, Type (0, 0), BuildingBlock: KIFKEQ_clean_linker_1, # of connection points: 2
#     Edge 42, Type (0, 0), BuildingBlock: KIFKEQ_clean_linker_1, # of connection points: 2
#     Edge 43, Type (0, 0), BuildingBlock: KIFKEQ_clean_linker_1, # of connection points: 2
#     Edge 44, Type (0, 0), BuildingBlock: KIFKEQ_clean_linker_1, # of connection points: 2
#     Edge 45, Type (0, 0), BuildingBlock: KIFKEQ_clean_linker_1, # of connection points: 2
#     Edge 46, Type (0, 0), BuildingBlock: KIFKEQ_clean_linker_1, # of connection points: 2
#     Edge 47, Type (0, 0), BuildingBlock: KIFKEQ_clean_linker_1, # of connection points: 2
# Relax obj value: 0.085
# Max RMSD: 0.141
# Mean RMSD: 0.141
data_MOF--net-uou--node1-TATPOV_clean_sbu_0--edge1-KIFKEQ_clean_linker_1
_symmetry_space_group_name_H-M    P1
_symmetry_Int_Tables_number       1
_symmetry_cell_setting            triclinic
loop_
_symmetry_equiv_pos_as_xyz
'x, y, z'
_cell_length_a     39.003219
_cell_length_b     36.325754
_cell_length_c     56.80853
_cell_angle_alpha  90.096093
_cell_angle_beta   89.902758
_cell_angle_gamma 90.203431
loop_
_atom_site_label
_atom_site_type_symbol
_atom_site_fract_x
_atom_site_fract_y
_atom_site_fract_z
_atom_type_partial_charge
Zn0 Zn 1.00695 0.04524 0.10297 0.0
Zn1 Zn 0.07614 0.04912 0.10123 0.0
O2 O 0.06376 0.01611 0.12975 0.0
O3 O 1.00765 0.00941 0.12953 0.0
O4 O 0.12867 0.04594 0.10051 0.0
O5 O 1.00498 0.02695 0.06987 0.0
O6 O 0.06135 0.0306 0.06831 0.0
C7 C 0.03649 0.00217 0.13849 0.0
C8 C 0.0342 0.11925 0.10914 0.0
O9 O 0.06334 0.10398 0.10599 0.0
O10 O 1.00706 0.09997 0.10926 0.0
C11 C 0.14171 0.01448 0.09627 0.0
O12 O 0.12094 0.98662 0.09222 0.0
C13 C 0.03267 0.02335 0.05851 0.0
Zn14 Zn 0.53883 0.97551 0.10546 0.0
Zn15 Zn 0.4704 0.9711 0.10851 0.0
O16 O 0.48651 0.00468 0.13605 0.0
O17 O 0.54253 0.00989 0.13261 0.0
O18 O 0.41796 0.97529 0.11032 0.0
O19 O 0.53761 0.99523 0.07297 0.0
O20 O 0.48165 0.98701 0.07424 0.0
C21 C 0.51506 0.01772 0.1433 0.0
C22 C 0.51273 0.90126 0.11376 0.0
O23 O 0.48325 0.91651 0.11409 0.0
O24 O 0.53949 0.92043 0.1103 0.0
C25 C 0.39833 0.96651 0.09329 0.0
O26 O 0.41195 0.9523 0.07417 0.0
C27 C 0.50875 0.99592 0.06294 0.0
Zn28 Zn 0.52388 0.95489 0.339 0.0
Zn29 Zn 0.59151 0.95452 0.341 0.0
O30 O 0.57834 0.99057 0.3141 0.0
O31 O 0.52232 0.99651 0.31633 0.0
O32 O 0.64374 0.96039 0.343 0.0
O33 O 0.51911 0.96417 0.37327 0.0
O34 O 0.57542 0.96781 0.37481 0.0
C35 C 0.55059 0.00543 0.30702 0.0
C36 C 0.5527 0.8842 0.32747 0.0
O37 O 0.58107 0.89968 0.333 0.0
O38 O 0.5252 0.90264 0.32747 0.0
C39 C 0.66297 0.95954 0.32485 0.0
O40 O 0.64903 0.95274 0.30425 0.0
C41 C 0.54623 0.96939 0.38497 0.0
Zn42 Zn 0.05538 0.02691 0.342 0.0
Zn43 Zn 0.98685 0.02956 0.34484 0.0
O44 O 0.99861 0.99839 0.31539 0.0
O45 O 0.05468 0.9922 0.31474 0.0
O46 O 0.93451 0.02461 0.34671 0.0
O47 O 0.05949 0.00851 0.37478 0.0
O48 O 1.0032 0.01094 0.37746 0.0
C49 C 1.02564 0.98538 0.30587 0.0
C50 C 1.02765 0.10066 0.33734 0.0
O51 O 0.99862 0.08483 0.34031 0.0
O52 O 0.0549 0.08179 0.33688 0.0
C53 C 0.91555 0.02945 0.32874 0.0
O54 O 0.9299 0.04006 0.30892 0.0
C55 C 0.03238 0.00453 0.38674 0.0
Zn56 Zn 0.04203 0.95706 0.8392 0.0
Zn57 Zn 0.97455 0.95782 0.83906 0.0
O58 O 0.99146 0.99292 0.8125 0.0
O59 O 0.04736 0.99799 0.81629 0.0
O60 O 0.92238 0.9648 0.83704 0.0
O61 O 0.04372 0.96684 0.87349 0.0
O62 O 0.98746 0.97187 0.87349 0.0
C63 C 1.01997 0.00708 0.80602 0.0
C64 C 1.0131 0.88667 0.82721 0.0
O65 O 0.98465 0.90259 0.83182 0.0
O66 O 0.04088 0.90475 0.82798 0.0
C67 C 0.90103 0.96143 0.85393 0.0
O68 O 0.91217 0.95093 0.87466 0.0
C69 C 1.01606 0.97292 0.88441 0.0
Zn70 Zn 0.50872 0.03153 0.84131 0.0
Zn71 Zn 0.5771 0.03592 0.84524 0.0
O72 O 0.56649 0.00186 0.81674 0.0
O73 O 0.51051 0.9945 0.81546 0.0
O74 O 0.62962 0.03245 0.84868 0.0
O75 O 0.50303 0.01581 0.87448 0.0
O76 O 0.55915 0.01969 0.87808 0.0
C77 C 0.53994 0.98739 0.80735 0.0
C78 C 0.53567 0.10552 0.8351 0.0
O79 O 0.5648 0.09066 0.83902 0.0
O80 O 0.50878 0.08587 0.83449 0.0
C81 C 0.64925 0.02497 0.83135 0.0
O82 O 0.63577 0.02173 0.81027 0.0
C83 C 0.52963 0.01344 0.88704 0.0
Zn84 Zn 0.55738 0.03052 0.60354 0.0
Zn85 Zn 0.48794 0.03408 0.60368 0.0
O86 O 0.5013 0.00141 0.63194 0.0
O87 O 0.55754 0.99667 0.63124 0.0
O88 O 0.43557 0.02957 0.60308 0.0
O89 O 0.55799 0.00993 0.57101 0.0
O90 O 0.50182 0.01615 0.57046 0.0
C91 C 0.52902 0.98874 0.64058 0.0
C92 C 0.52986 0.10466 0.60962 0.0
O93 O 0.50051 0.08894 0.60869 0.0
O94 O 0.55703 0.08579 0.6079 0.0
C95 C 0.41708 0.03255 0.62148 0.0
O96 O 0.43188 0.04115 0.64152 0.0
C97 C 0.52979 0.00759 0.56016 0.0
Zn98 Zn 1.02468 0.96511 0.60773 0.0
Zn99 Zn 0.09319 0.95985 0.60732 0.0
O100 O 0.08033 0.9954 0.63462 0.0
O101 O 1.02458 0.00379 0.6326 0.0
O102 O 0.14555 0.96412 0.60603 0.0
O103 O 1.02275 0.9793 0.57391 0.0
O104 O 0.07894 0.97337 0.57333 0.0
C105 C 0.05307 0.0108 0.6422 0.0
C106 C 0.05078 0.89144 0.61793 0.0
O107 O 0.08037 0.90574 0.61456 0.0
O108 O 1.02409 0.91116 0.61658 0.0
C109 C 0.1644 0.96296 0.6243 0.0
O110 O 0.15 0.95643 0.64481 0.0
C111 C 0.0508 0.98001 0.56275 0.0
Zn112 Zn 0.50699 0.55274 0.10686 0.0
Zn113 Zn 0.57507 0.5537 0.10453 0.0
O114 O 0.56223 0.51807 0.13172 0.0
O115 O 0.50598 0.51338 0.13116 0.0
O116 O 0.62728 0.54772 0.1022 0.0
O117 O 0.50201 0.54002 0.07316 0.0
O118 O 0.5584 0.53927 0.07103 0.0
C119 C 0.53453 0.50403 0.13973 0.0
C120 C 0.5361 0.62464 0.11603 0.0
O121 O 0.56477 0.60878 0.11203 0.0
O122 O 0.50852 0.60616 0.11569 0.0
C123 C 0.64661 0.54833 0.12026 0.0
O124 O 0.63286 0.55528 0.14092 0.0
C125 C 0.5291 0.53571 0.06126 0.0
Zn126 Zn 0.03599 0.46844 0.09816 0.0
Zn127 Zn 0.9679 0.46717 0.09822 0.0
O128 O 0.98296 0.49847 0.12722 0.0
O129 O 0.03918 0.50239 0.12537 0.0
O130 O 0.9157 0.47418 0.09762 0.0
O131 O 0.03917 0.48758 0.06552 0.0
O132 O 0.98279 0.48433 0.06487 0.0
C133 C 1.01135 0.51022 0.13559 0.0
C134 C 1.00677 0.39543 0.10517 0.0
O135 O 0.97785 0.41154 0.103 0.0
O136 O 0.03437 0.41383 0.10397 0.0
C137 C 0.897 0.47126 0.11593 0.0
O138 O 0.91135 0.46133 0.13584 0.0
C139 C 1.01122 0.49119 0.05457 0.0
Zn140 Zn 1.01163 0.44842 0.3439 0.0
Zn141 Zn 0.07829 0.45476 0.34123 0.0
O142 O 0.05846 0.48322 0.3124 0.0
O143 O 1.00254 0.47561 0.31449 0.0
O144 O 0.13004 0.46426 0.33762 0.0
O145 O 1.00938 0.47383 0.37451 0.0
O146 O 0.06579 0.47598 0.37436 0.0
C147 C 0.02849 0.48862 0.30406 0.0
C148 C 0.04385 0.37825 0.34113 0.0
O149 O 0.07125 0.39752 0.33924 0.0
O150 O 1.01516 0.3939 0.3436 0.0
C151 C 0.15197 0.46312 0.35422 0.0
O152 O 0.14168 0.45398 0.37546 0.0
C153 C 0.03718 0.48193 0.38468 0.0
Zn154 Zn 0.54395 0.53583 0.33785 0.0
Zn155 Zn 0.47499 0.54161 0.33942 0.0
O156 O 0.48704 0.50618 0.31184 0.0
O157 O 0.54285 0.49766 0.31274 0.0
O158 O 0.42229 0.53858 0.34215 0.0
O159 O 0.5469 0.52098 0.37143 0.0
O160 O 0.49075 0.52712 0.3729 0.0
C161 C 0.51396 0.49082 0.30366 0.0
C162 C 0.51807 0.60975 0.32847 0.0
O163 O 0.48845 0.59567 0.33215 0.0
O164 O 0.54463 0.5898 0.32941 0.0
C165 C 0.40292 0.52687 0.32566 0.0
O166 O 0.4167 0.51857 0.30523 0.0
C167 C 0.5192 0.52006 0.38298 0.0
Zn168 Zn 0.53933 0.4545 0.84713 0.0
Zn169 Zn 0.47159 0.45539 0.84421 0.0
O170 O 0.48852 0.48563 0.81527 0.0
O171 O 0.5448 0.4825 0.81752 0.0
O172 O 0.41933 0.46223 0.84409 0.0
O173 O 0.54081 0.48055 0.8777 0.0
O174 O 0.48454 0.47556 0.8773 0.0
C175 C 0.51818 0.49331 0.80698 0.0
C176 C 0.5098 0.38189 0.84294 0.0
O177 O 0.48146 0.39918 0.8408 0.0
O178 O 0.53742 0.39945 0.84646 0.0
C179 C 0.39937 0.45338 0.82727 0.0
O180 O 0.41234 0.43747 0.80849 0.0
C181 C 0.51221 0.48485 0.88775 0.0
Zn182 Zn 1.01013 0.53964 0.83325 0.0
Zn183 Zn 0.07782 0.54064 0.8355 0.0
O184 O 0.06397 0.50584 0.80793 0.0
O185 O 1.00797 0.49926 0.80964 0.0
O186 O 0.1304 0.53568 0.83618 0.0
O187 O 1.00588 0.52876 0.86729 0.0
O188 O 0.06222 0.52618 0.86929 0.0
C189 C 0.03636 0.49108 0.80031 0.0
C190 C 0.03853 0.61119 0.82347 0.0
O191 O 0.06693 0.59565 0.82861 0.0
O192 O 1.01106 0.59252 0.82303 0.0
C193 C 0.14322 0.50353 0.83439 0.0
O194 O 0.12229 0.47524 0.83266 0.0
C195 C 0.03283 0.52386 0.87917 0.0
Zn196 Zn 0.04288 0.5449 0.60432 0.0
Zn197 Zn 0.97417 0.54827 0.60232 0.0
O198 O 0.98661 0.51151 0.62894 0.0
O199 O 0.04263 0.50474 0.62806 0.0
O200 O 0.92182 0.54278 0.60035 0.0
O201 O 0.04684 0.53258 0.57029 0.0
O202 O 0.99049 0.53624 0.56844 0.0
C203 C 1.01379 0.49632 0.63671 0.0
C204 C 1.01461 0.61719 0.61549 0.0
O205 O 0.98558 0.6024 0.61091 0.0
O206 O 0.04177 0.59817 0.61454 0.0
C207 C 0.90286 0.54356 0.61864 0.0
O208 O 0.91713 0.55048 0.63912 0.0
C209 C 1.01946 0.53107 0.55847 0.0
Zn210 Zn 0.51433 0.45321 0.60089 0.0
Zn211 Zn 0.58133 0.4573 0.60093 0.0
O212 O 0.56507 0.4881 0.62991 0.0
O213 O 0.50875 0.48565 0.62855 0.0
O214 O 0.6333 0.46663 0.60002 0.0
O215 O 0.50926 0.47298 0.56886 0.0
O216 O 0.56564 0.47509 0.56775 0.0
C217 C 0.53585 0.49684 0.63841 0.0
C218 C 0.54569 0.38233 0.6063 0.0
O219 O 0.57376 0.40063 0.60537 0.0
O220 O 0.51726 0.39885 0.60494 0.0
C221 C 0.65247 0.46411 0.61809 0.0
O222 O 0.63879 0.45342 0.63811 0.0
C223 C 0.53664 0.47964 0.55774 0.0
H224 H 0.36184 0.00311 0.12761 0.0
H225 H 0.34949 0.94655 0.06121 0.0
H226 H 0.30022 0.01571 0.12853 0.0
H227 H 0.28829 0.95938 0.06206 0.0
H228 H 0.17594 0.95198 0.08397 0.0
H229 H 0.23736 0.94091 0.08395 0.0
H230 H 0.25527 0.05209 0.10806 0.0
H231 H 0.1933 0.0632 0.10829 0.0
C232 C 0.34604 0.99329 0.11324 0.0
C233 C 0.36072 0.97364 0.09438 0.0
C234 C 0.31073 0.00078 0.11368 0.0
C235 C 0.28918 0.98853 0.09539 0.0
C236 C 0.30394 0.96885 0.0766 0.0
C237 C 0.33917 0.9616 0.07608 0.0
C238 C 0.19285 0.9742 0.08927 0.0
C239 C 0.17952 0.00856 0.09608 0.0
C240 C 0.22821 0.96786 0.08913 0.0
C241 C 0.25141 0.99561 0.09591 0.0
C242 C 0.23816 0.02998 0.10291 0.0
C243 C 0.20263 0.03643 0.1029 0.0
H244 H 0.69932 0.98387 0.3634 0.0
H245 H 0.71125 0.95538 0.29002 0.0
H246 H 0.75973 0.00172 0.36514 0.0
H247 H 0.77159 0.97213 0.29189 0.0
H248 H 0.86794 0.04139 0.29437 0.0
H249 H 0.80752 0.02472 0.29436 0.0
H250 H 0.8178 0.97999 0.3644 0.0
H251 H 0.87831 0.99772 0.36464 0.0
C252 C 0.71487 0.98105 0.34769 0.0
C253 C 0.70026 0.96832 0.32654 0.0
C254 C 0.74963 0.99117 0.34871 0.0
C255 C 0.77073 0.98874 0.32861 0.0
C256 C 0.75615 0.97523 0.30762 0.0
C257 C 0.72146 0.96529 0.30659 0.0
C258 C 0.85736 0.02817 0.30986 0.0
C259 C 0.87815 0.02085 0.32948 0.0
C260 C 0.82263 0.01829 0.30978 0.0
C261 C 0.8076 0.00054 0.32927 0.0
C262 C 0.82826 0.99385 0.34913 0.0
C263 C 0.86307 0.00392 0.34924 0.0
H264 H 0.87061 0.99259 0.81529 0.0
H265 H 0.84781 0.95203 0.885 0.0
H266 H 0.81077 0.00978 0.81027 0.0
H267 H 0.78769 0.96806 0.87973 0.0
H268 H 0.68749 0.03172 0.87189 0.0
H269 H 0.74815 0.01751 0.87734 0.0
H270 H 0.75547 0.98541 0.80423 0.0
H271 H 0.69548 0.00075 0.79868 0.0
C272 C 0.85278 0.98701 0.82949 0.0
C273 C 0.86416 0.97082 0.85054 0.0
C274 C 0.81829 0.99674 0.82658 0.0
C275 C 0.79405 0.99035 0.84457 0.0
C276 C 0.8055 0.97403 0.8656 0.0
C277 C 0.84005 0.96451 0.86856 0.0
C278 C 0.70214 0.02186 0.85696 0.0
C279 C 0.68649 0.01752 0.83483 0.0
C280 C 0.73695 0.0134 0.86011 0.0
C281 C 0.75702 0.00018 0.84125 0.0
C282 C 0.74125 0.99607 0.81912 0.0
C283 C 0.70661 0.00471 0.81595 0.0
H284 H 0.21241 0.95675 0.65909 0.0
H285 H 0.20111 0.98884 0.58638 0.0
H286 H 0.27285 0.97334 0.65764 0.0
H287 H 0.26149 0.00665 0.58509 0.0
H288 H 0.37956 0.00324 0.58499 0.0
H289 H 0.31917 0.98535 0.5851 0.0
H290 H 0.3094 0.02522 0.6565 0.0
H291 H 0.36984 0.04191 0.6566 0.0
C292 C 0.22279 0.96741 0.64277 0.0
C293 C 0.20176 0.97147 0.62287 0.0
C294 C 0.25752 0.97727 0.64198 0.0
C295 C 0.27227 0.99178 0.62132 0.0
C296 C 0.25131 0.99527 0.60127 0.0
C297 C 0.21655 0.98516 0.60202 0.0
C298 C 0.36447 0.00833 0.60068 0.0
C299 C 0.37971 0.0239 0.62082 0.0
C300 C 0.3297 0.99818 0.60072 0.0
C301 C 0.30918 0.00349 0.62088 0.0
C302 C 0.32438 0.01986 0.64081 0.0
C303 C 0.35911 0.02977 0.64081 0.0
H304 H 0.84942 0.4625 0.1509 0.0
H305 H 0.86046 0.50274 0.07981 0.0
H306 H 0.78958 0.48102 0.15103 0.0
H307 H 0.80062 0.5224 0.08015 0.0
H308 H 0.68214 0.52223 0.08181 0.0
H309 H 0.742 0.50279 0.08003 0.0
H310 H 0.75505 0.53424 0.15286 0.0
H311 H 0.69521 0.55252 0.15478 0.0
C312 C 0.83912 0.47539 0.13527 0.0
C313 C 0.85993 0.48116 0.11536 0.0
C314 C 0.80473 0.48634 0.1354 0.0
C315 C 0.79007 0.50368 0.11569 0.0
C316 C 0.81076 0.50888 0.0956 0.0
C317 C 0.8452 0.49771 0.09543 0.0
C318 C 0.69785 0.52514 0.0974 0.0
C319 C 0.68369 0.53881 0.11847 0.0
C320 C 0.7323 0.5141 0.09637 0.0
C321 C 0.75356 0.51654 0.11636 0.0
C322 C 0.73947 0.53107 0.13723 0.0
C323 C 0.70507 0.5419 0.13829 0.0
H324 H 0.36481 0.54021 0.36564 0.0
H325 H 0.3564 0.49743 0.29491 0.0
H326 H 0.30425 0.52628 0.37239 0.0
H327 H 0.29643 0.48257 0.30181 0.0
H328 H 0.1812 0.48974 0.31361 0.0
H329 H 0.24079 0.50734 0.30691 0.0
H330 H 0.26562 0.47604 0.37819 0.0
H331 H 0.20585 0.45948 0.38507 0.0
C332 C 0.35009 0.52788 0.35151 0.0
C333 C 0.36562 0.52003 0.32972 0.0
C334 C 0.31534 0.51959 0.35543 0.0
C335 C 0.29519 0.50312 0.33769 0.0
C336 C 0.31076 0.4957 0.31583 0.0
C337 C 0.34538 0.50408 0.3119 0.0
C338 C 0.19936 0.48658 0.32787 0.0
C339 C 0.18858 0.4731 0.34988 0.0
C340 C 0.23369 0.49655 0.32399 0.0
C341 C 0.25832 0.49318 0.34198 0.0
C342 C 0.24747 0.47964 0.36399 0.0
C343 C 0.21311 0.46982 0.36789 0.0
H344 H 0.19547 0.55344 0.84256 0.0
H345 H 0.17677 0.43952 0.82467 0.0
H346 H 0.25743 0.54221 0.84104 0.0
H347 H 0.23819 0.42844 0.82324 0.0
H348 H 0.34894 0.43141 0.79681 0.0
H349 H 0.2878 0.44486 0.79858 0.0
H350 H 0.30344 0.50752 0.86231 0.0
H351 H 0.36485 0.49415 0.86053 0.0
C352 C 0.2045 0.52605 0.83832 0.0
C353 C 0.18102 0.49744 0.83371 0.0
C354 C 0.24002 0.51956 0.83757 0.0
C355 C 0.25287 0.48442 0.83191 0.0
C356 C 0.2293 0.45593 0.82734 0.0
C357 C 0.19397 0.4623 0.82831 0.0
C358 C 0.33944 0.44805 0.81123 0.0
C359 C 0.36194 0.46154 0.82857 0.0
C360 C 0.30427 0.45565 0.8123 0.0
C361 C 0.29058 0.47722 0.83062 0.0
C362 C 0.31311 0.49109 0.84784 0.0
C363 C 0.34831 0.48319 0.8469 0.0
H364 H 0.70084 0.45698 0.65255 0.0
H365 H 0.68792 0.49587 0.58135 0.0
H366 H 0.76056 0.47635 0.65176 0.0
H367 H 0.74766 0.51636 0.58076 0.0
H368 H 0.86631 0.51688 0.5808 0.0
H369 H 0.80633 0.49722 0.57995 0.0
H370 H 0.79507 0.52991 0.65271 0.0
H371 H 0.85502 0.54841 0.6537 0.0
C372 C 0.71069 0.46977 0.63671 0.0
C373 C 0.68939 0.47488 0.61704 0.0
C374 C 0.74502 0.48122 0.63631 0.0
C375 C 0.75914 0.49838 0.61628 0.0
C376 C 0.73794 0.503 0.59644 0.0
C377 C 0.70355 0.49136 0.59681 0.0
C378 C 0.85096 0.52004 0.59657 0.0
C379 C 0.86566 0.53409 0.61735 0.0
C380 C 0.81644 0.50886 0.59607 0.0
C381 C 0.79566 0.51156 0.61633 0.0
C382 C 0.81028 0.52653 0.63689 0.0
C383 C 0.84473 0.53748 0.63742 0.0
H384 H 0.97211 0.98548 0.27499 0.0
H385 H 0.07596 0.94669 0.28341 0.0
H386 H 0.97571 0.97405 0.23301 0.0
H387 H 0.07925 0.93404 0.24133 0.0
H388 H 0.08917 0.9986 0.16999 0.0
H389 H 0.08543 0.97831 0.21059 0.0
H390 H 0.98257 0.93801 0.19824 0.0
H391 H 0.98598 0.95951 0.15771 0.0
C392 C 0.99526 0.97315 0.26802 0.0
C393 C 1.02407 0.96796 0.28238 0.0
C394 C 0.99732 0.96638 0.24386 0.0
C395 C 1.02813 0.95394 0.23367 0.0
C396 C 0.05549 0.94457 0.24854 0.0
C397 C 0.05353 0.95166 0.27266 0.0
C398 C 0.06612 0.98451 0.17574 0.0
C399 C 0.03758 0.98152 0.16085 0.0
C400 C 0.06399 0.97259 0.19905 0.0
C401 C 0.03338 0.95712 0.20784 0.0
C402 C 1.00618 0.95062 0.19218 0.0
C403 C 1.0082 0.96285 0.16894 0.0
H404 H 0.56893 0.05776 0.16038 0.0
H405 H 0.46696 0.02019 0.17826 0.0
H406 H 0.57935 0.0733 0.20148 0.0
H407 H 0.47761 0.0347 0.21929 0.0
H408 H 0.49987 0.05151 0.29243 0.0
H409 H 0.49092 0.07315 0.25235 0.0
H410 H 0.59013 0.03029 0.23252 0.0
H411 H 0.5994 0.00974 0.27263 0.0
C412 C 0.5484 0.05371 0.17299 0.0
C413 C 0.51742 0.03685 0.16622 0.0
C414 C 0.55445 0.06251 0.19655 0.0
C415 C 0.52971 0.0544 0.21379 0.0
C416 C 0.4973 0.04146 0.20654 0.0
C417 C 0.49117 0.03291 0.18294 0.0
C418 C 0.52024 0.04785 0.27965 0.0
C419 C 0.54998 0.02808 0.28547 0.0
C420 C 0.51503 0.06013 0.25667 0.0
C421 C 0.53933 0.05257 0.23906 0.0
C422 C 0.57081 0.03668 0.2456 0.0
C423 C 0.57615 0.02469 0.26865 0.0
H424 H 1.0034 0.05658 0.65908 0.0
H425 H 0.10246 0.01114 0.6762 0.0
H426 H 0.99542 0.07467 0.70002 0.0
H427 H 0.09413 0.02811 0.71711 0.0
H428 H 0.07434 0.04798 0.79044 0.0
H429 H 0.0845 0.06785 0.75008 0.0
H430 H 0.98179 0.03353 0.73149 0.0
H431 H 0.97142 0.01474 0.77182 0.0
C432 C 1.02389 0.05136 0.67147 0.0
C433 C 0.05317 0.03155 0.66458 0.0
C434 C 1.01924 0.06161 0.69495 0.0
C435 C 0.04364 0.05194 0.712 0.0
C436 C 0.07473 0.03609 0.70452 0.0
C437 C 0.07952 0.02614 0.68099 0.0
C438 C 0.05356 0.04581 0.77788 0.0
C439 C 1.02237 0.02886 0.78413 0.0
C440 C 0.05946 0.05709 0.75473 0.0
C441 C 0.03435 0.0514 0.73739 0.0
C442 C 1.00179 0.03844 0.74433 0.0
C443 C 0.99581 0.02742 0.76752 0.0
H444 H 0.58116 0.94989 0.66066 0.0
H445 H 0.47638 0.98383 0.67216 0.0
H446 H 0.58542 0.93143 0.70175 0.0
H447 H 0.48093 0.96663 0.71324 0.0
H448 H 0.4916 0.94331 0.78689 0.0
H449 H 0.48909 0.92581 0.74551 0.0
H450 H 0.59078 0.97078 0.73514 0.0
H451 H 0.59365 0.987 0.77649 0.0
C452 C 0.55879 0.95267 0.67184 0.0
C453 C 0.52869 0.96917 0.66335 0.0
C454 C 0.56129 0.94219 0.6954 0.0
C455 C 0.53385 0.94831 0.71096 0.0
C456 C 0.5026 0.96129 0.70182 0.0
C457 C 0.50001 0.97145 0.67821 0.0
C458 C 0.51385 0.94834 0.77589 0.0
C459 C 0.54249 0.96741 0.78476 0.0
C460 C 0.51234 0.93845 0.75216 0.0
C461 C 0.53929 0.9478 0.73684 0.0
C462 C 0.5695 0.96304 0.74637 0.0
C463 C 0.57114 0.97258 0.77015 0.0
H464 H 0.48332 0.45953 0.15605 0.0
H465 H 0.58579 0.49738 0.17209 0.0
H466 H 0.47715 0.43646 0.19608 0.0
H467 H 0.57934 0.47543 0.21217 0.0
H468 H 0.56395 0.44758 0.28452 0.0
H469 H 0.56973 0.4316 0.24305 0.0
H470 H 0.46811 0.47409 0.2301 0.0
H471 H 0.46208 0.48907 0.27146 0.0
C472 C 0.50486 0.46209 0.16797 0.0
C473 C 0.53471 0.48116 0.16118 0.0
C474 C 0.50128 0.44893 0.19091 0.0
C475 C 0.52734 0.45493 0.20752 0.0
C476 C 0.55869 0.4702 0.19988 0.0
C477 C 0.56239 0.48305 0.17686 0.0
C478 C 0.54239 0.45231 0.27293 0.0
C479 C 0.51293 0.4706 0.28109 0.0
C480 C 0.54578 0.44326 0.24915 0.0
C481 C 0.51984 0.45253 0.23312 0.0
C482 C 0.48869 0.46651 0.24189 0.0
C483 C 0.48521 0.47532 0.26569 0.0
H484 H 0.07323 0.53388 0.28023 0.0
H485 H 0.97252 0.48453 0.27602 0.0
H486 H 0.06672 0.55733 0.24023 0.0
H487 H 0.9669 0.50515 0.23603 0.0
H488 H 0.95799 0.53373 0.16345 0.0
H489 H 0.96045 0.54529 0.20568 0.0
H490 H 0.07072 0.53234 0.20364 0.0
H491 H 0.06834 0.524 0.1617 0.0
C492 C 0.04968 0.52823 0.27079 0.0
C493 C 1.02366 0.50688 0.2811 0.0
C494 C 0.04592 0.54149 0.24781 0.0
C495 C 1.0165 0.53271 0.23448 0.0
C496 C 0.98974 0.51321 0.24553 0.0
C497 C 0.99315 0.50083 0.26857 0.0
C498 C 0.98278 0.53466 0.172 0.0
C499 C 1.01283 0.52685 0.15935 0.0
C500 C 0.98425 0.54088 0.19629 0.0
C501 C 1.01565 0.53826 0.20845 0.0
C502 C 0.04595 0.53455 0.19522 0.0
C503 C 0.04456 0.52935 0.17095 0.0
H504 H 0.58677 0.52918 0.6649 0.0
H505 H 0.47805 0.50593 0.66445 0.0
H506 H 0.58288 0.54662 0.70628 0.0
H507 H 0.47455 0.52009 0.70565 0.0
H508 H 0.4701 0.53111 0.78125 0.0
H509 H 0.47538 0.55082 0.74035 0.0
H510 H 0.58021 0.51185 0.73931 0.0
H511 H 0.57558 0.49528 0.78007 0.0
C512 C 0.56201 0.52824 0.67354 0.0
C513 C 0.53297 0.51517 0.66158 0.0
C514 C 0.55974 0.5379 0.69736 0.0
C515 C 0.52863 0.53353 0.70979 0.0
C516 C 0.49903 0.52401 0.69703 0.0
C517 C 0.50113 0.51536 0.67321 0.0
C518 C 0.49445 0.52772 0.77231 0.0
C519 C 0.52214 0.51091 0.78371 0.0
C520 C 0.49751 0.53877 0.7488 0.0
C521 C 0.52797 0.53211 0.73605 0.0
C522 C 0.55637 0.51795 0.74823 0.0
C523 C 0.55358 0.50789 0.77177 0.0
H524 H 0.98453 0.44857 0.78264 0.0
H525 H 0.0875 0.48603 0.76759 0.0
H526 H 0.97757 0.43011 0.74168 0.0
H527 H 0.08028 0.46869 0.72668 0.0
H528 H 0.06357 0.4506 0.65327 0.0
H529 H 0.06956 0.4294 0.69371 0.0
H530 H 0.96872 0.47178 0.70973 0.0
H531 H 0.96242 0.49183 0.66928 0.0
C532 C 1.00603 0.45193 0.77073 0.0
C533 C 0.03622 0.46977 0.77814 0.0
C534 C 1.00197 0.44145 0.74724 0.0
C535 C 1.02793 0.44887 0.73073 0.0
C536 C 0.05966 0.46249 0.73884 0.0
C537 C 0.06381 0.47269 0.76237 0.0
C538 C 0.04223 0.45423 0.66527 0.0
C539 C 1.0129 0.47381 0.65833 0.0
C540 C 0.04572 0.44218 0.68846 0.0
C541 C 1.02009 0.4498 0.70515 0.0
C542 C 0.98905 0.46535 0.6974 0.0
C543 C 0.98543 0.4771 0.67415 0.0
H544 H 0.97859 0.15813 0.12412 0.0
H545 H 0.08243 0.17209 0.099 0.0
H546 H 0.97131 0.22456 0.12514 0.0
H547 H 0.07481 0.2387 0.09928 0.0
H548 H 0.0618 0.35706 0.12094 0.0
H549 H 0.06842 0.29088 0.12402 0.0
H550 H 0.96459 0.27569 0.09926 0.0
H551 H 0.9576 0.34246 0.09692 0.0
C552 C 0.99993 0.17541 0.11882 0.0
C553 C 0.03113 0.15977 0.11144 0.0
C554 C 0.99562 0.21356 0.11923 0.0
C555 C 1.02231 0.23712 0.11213 0.0
C556 C 0.05378 0.22147 0.10518 0.0
C557 C 0.05819 0.18324 0.10495 0.0
C558 C 0.04024 0.33966 0.11626 0.0
C559 C 1.00919 0.35507 0.10853 0.0
C560 C 0.04416 0.30161 0.11788 0.0
C561 C 1.01725 0.27778 0.11163 0.0
C562 C 0.98581 0.29318 0.10445 0.0
C563 C 0.98177 0.33145 0.10302 0.0
H564 H 0.56655 0.85904 0.09997 0.0
H565 H 0.46766 0.85238 0.13401 0.0
H566 H 0.57293 0.7929 0.10309 0.0
H567 H 0.47477 0.78601 0.13842 0.0
H568 H 0.47838 0.66623 0.115 0.0
H569 H 0.47342 0.73236 0.11647 0.0
H570 H 0.58297 0.74176 0.12673 0.0
H571 H 0.58811 0.67483 0.12393 0.0
C572 C 0.54632 0.84343 0.10847 0.0
C573 C 0.51646 0.86095 0.11662 0.0
C574 C 0.55015 0.80538 0.11048 0.0
C575 C 0.52446 0.78376 0.12105 0.0
C576 C 0.49488 0.80151 0.12974 0.0
C577 C 0.49077 0.83962 0.12732 0.0
C578 C 0.50151 0.68225 0.11776 0.0
C579 C 0.53374 0.66511 0.11923 0.0
C580 C 0.49858 0.72044 0.1188 0.0
C581 C 0.52772 0.74279 0.12173 0.0
C582 C 0.55995 0.72559 0.12401 0.0
C583 C 0.56296 0.68717 0.12258 0.0
H584 H 0.47057 0.66484 0.33381 0.0
H585 H 0.576 0.6454 0.31401 0.0
H586 H 0.48042 0.73107 0.33081 0.0
H587 H 0.58557 0.7113 0.31047 0.0
H588 H 0.59961 0.83056 0.33821 0.0
H589 H 0.59107 0.76398 0.33596 0.0
H590 H 0.49188 0.7808 0.30403 0.0
H591 H 0.50004 0.84701 0.3068 0.0
C592 C 0.49566 0.67464 0.32846 0.0
C593 C 0.5225 0.64979 0.32432 0.0
C594 C 0.50133 0.71263 0.32665 0.0
C595 C 0.53392 0.72658 0.32054 0.0
C596 C 0.56038 0.70161 0.31565 0.0
C597 C 0.55476 0.66375 0.31754 0.0
C598 C 0.57626 0.81999 0.33038 0.0
C599 C 0.55042 0.84409 0.3229 0.0
C600 C 0.57132 0.78182 0.32905 0.0
C601 C 0.54053 0.76699 0.32008 0.0
C602 C 0.51551 0.79121 0.31154 0.0
C603 C 0.52035 0.82922 0.31298 0.0
H604 H 0.99723 0.33264 0.36097 0.0
H605 H 0.09095 0.33184 0.3204 0.0
H606 H 0.99399 0.26619 0.35874 0.0
H607 H 0.08706 0.26461 0.31728 0.0
H608 H 0.08606 0.14215 0.33826 0.0
H609 H 0.09131 0.20872 0.33868 0.0
H610 H 0.98127 0.21821 0.33228 0.0
H611 H 0.97591 0.15129 0.33286 0.0
C612 C 1.01713 0.31818 0.35141 0.0
C613 C 0.04427 0.33752 0.34073 0.0
C614 C 1.01506 0.27997 0.34993 0.0
C615 C 0.03985 0.25988 0.33745 0.0
C616 C 0.06755 0.27914 0.32715 0.0
C617 C 0.06985 0.31763 0.3289 0.0
C618 C 0.06291 0.15838 0.33682 0.0
C619 C 0.03046 0.14131 0.33571 0.0
C620 C 0.06601 0.19669 0.3369 0.0
C621 C 0.03677 0.21903 0.33569 0.0
C622 C 1.00436 0.20192 0.33378 0.0
C623 C 1.00123 0.16352 0.33394 0.0
H624 H 0.98418 0.64975 0.8064 0.0
H625 H 0.08739 0.66403 0.8325 0.0
H626 H 0.97734 0.71614 0.80433 0.0
H627 H 0.08024 0.73073 0.83088 0.0
H628 H 0.06708 0.84888 0.80894 0.0
H629 H 0.07357 0.78269 0.80502 0.0
H630 H 0.97058 0.767 0.83138 0.0
H631 H 0.96378 0.83367 0.83484 0.0
C632 C 1.00555 0.66706 0.81158 0.0
C633 C 0.03633 0.65152 0.81974 0.0
C634 C 1.00147 0.70519 0.81054 0.0
C635 C 1.02804 0.72884 0.81766 0.0
C636 C 0.05931 0.71333 0.82505 0.0
C637 C 0.06344 0.67508 0.82602 0.0
C638 C 0.04562 0.83139 0.81371 0.0
C639 C 1.01493 0.8466 0.82238 0.0
C640 C 0.04949 0.79336 0.81159 0.0
C641 C 1.02282 0.76943 0.81815 0.0
C642 C 0.99159 0.78464 0.82598 0.0
C643 C 0.98766 0.82286 0.82802 0.0
H644 H 0.55855 0.33788 0.86162 0.0
H645 H 0.46571 0.33418 0.82038 0.0
H646 H 0.5647 0.27184 0.85775 0.0
H647 H 0.47262 0.26764 0.8155 0.0
H648 H 0.47637 0.14491 0.83439 0.0
H649 H 0.46944 0.21109 0.83535 0.0
H650 H 0.57948 0.22479 0.83143 0.0
H651 H 0.58646 0.15803 0.83161 0.0
C652 C 0.5395 0.32288 0.85154 0.0
C653 C 0.51163 0.34127 0.84127 0.0
C654 C 0.54326 0.28493 0.84909 0.0
C655 C 0.5195 0.26421 0.836 0.0
C656 C 0.49131 0.28257 0.82589 0.0
C657 C 0.48728 0.3207 0.82865 0.0
C658 C 0.49918 0.16195 0.83355 0.0
C659 C 0.53206 0.14605 0.83312 0.0
C660 C 0.49513 0.2001 0.83395 0.0
C661 C 0.52383 0.22355 0.83365 0.0
C662 C 0.55674 0.20765 0.83224 0.0
C663 C 0.56081 0.16935 0.83214 0.0
H664 H 0.58633 0.14688 0.60086 0.0
H665 H 0.48051 0.15428 0.62288 0.0
H666 H 0.59118 0.21349 0.60157 0.0
H667 H 0.48577 0.22115 0.62473 0.0
H668 H 0.49229 0.33711 0.59631 0.0
H669 H 0.48933 0.27087 0.5989 0.0
H670 H 0.59394 0.26823 0.62393 0.0
H671 H 0.59733 0.33537 0.62031 0.0
C672 C 0.56418 0.16274 0.60622 0.0
C673 C 0.53289 0.14524 0.61163 0.0
C674 C 0.56708 0.20107 0.6068 0.0
C675 C 0.53888 0.22296 0.61308 0.0
C676 C 0.50787 0.20531 0.61928 0.0
C677 C 0.50483 0.16693 0.61836 0.0
C678 C 0.51475 0.32255 0.60246 0.0
C679 C 0.54508 0.34163 0.60817 0.0
C680 C 0.51291 0.28437 0.60415 0.0
C681 C 0.5412 0.26394 0.61191 0.0
C682 C 0.57168 0.28297 0.61768 0.0
C683 C 0.57367 0.32145 0.61568 0.0
H684 H 0.99355 0.85549 0.63335 0.0
H685 H 0.09808 0.83658 0.61126 0.0
H686 H 0.98402 0.78948 0.63615 0.0
H687 H 0.08825 0.7703 0.61341 0.0
H688 H 0.06917 0.65305 0.63482 0.0
H689 H 0.07797 0.71904 0.63874 0.0
H690 H 0.97695 0.73814 0.6102 0.0
H691 H 0.96777 0.6718 0.60692 0.0
C692 C 1.0146 0.83722 0.62917 0.0
C693 C 0.04657 0.85135 0.62194 0.0
C694 C 1.00901 0.7993 0.63063 0.0
C695 C 0.03519 0.77445 0.62478 0.0
C696 C 0.06756 0.78859 0.6183 0.0
C697 C 0.07323 0.82663 0.61699 0.0
C698 C 0.04863 0.67129 0.62962 0.0
C699 C 1.01781 0.65715 0.6204 0.0
C700 C 0.05382 0.7092 0.63172 0.0
C701 C 1.02841 0.73403 0.62451 0.0
C702 C 0.99701 0.71986 0.61613 0.0
C703 C 0.99171 0.6818 0.61419 0.0
H704 H 0.07026 0.96083 0.9132 0.0
H705 H 0.96569 -0.00015 0.91358 0.0
H706 H 0.0741 0.97092 0.95523 0.0
H707 H 0.97 0.01145 0.95591 0.0
H708 H 0.9784 0.99365 0.03495 0.0
H709 H 0.97392 0.98082 -0.00697 0.0
H710 H 0.07808 0.01901 -0.01686 0.0
H711 H 0.08293 0.03053 0.02524 0.0
C712 C 0.04812 0.97198 0.92224 0.0
C713 C 1.01767 0.97975 0.91002 0.0
C714 C 0.05043 0.97796 0.94639 0.0
C715 C 1.0225 0.99227 0.95896 0.0
C716 C 0.9919 -2e-05 0.94679 0.0
C717 C 0.98945 0.99358 0.92254 0.0
C718 C 1.00045 -0.00099 0.02384 0.0
C719 C 0.03106 0.01306 0.03339 0.0
C720 C 0.99775 0.99198 -0.00024 0.0
C721 C 1.02551 -0.00088 -0.01534 0.0
C722 C 0.05631 0.01271 -0.0057 0.0
C723 C 0.05912 0.01939 0.01844 0.0
H724 H 0.57988 0.00208 0.91993 0.0
H725 H 0.47007 0.01206 0.91209 0.0
H726 H 0.57277 0.9985 0.96252 0.0
H727 H 0.46313 0.01017 0.95445 0.0
H728 H 0.46134 0.9713 0.03125 0.0
H729 H 0.46608 0.97302 -0.01156 0.0
H730 H 0.55878 0.03805 -0.00562 0.0
H731 H 0.55472 0.03491 0.03704 0.0
C732 C 0.55427 0.00337 0.92727 0.0
C733 C 0.52561 0.00743 0.91262 0.0
C734 C 0.55017 0.00173 0.95169 0.0
C735 C 0.51738 0.00457 0.96196 0.0
C736 C 0.4887 0.00755 0.9472 0.0
C737 C 0.49275 0.00875 0.92284 0.0
C738 C 0.48235 0.98648 0.02334 0.0
C739 C 0.50775 0.00281 0.03741 0.0
C740 C 0.48516 0.98741 -0.00119 0.0
C741 C 0.51318 0.00513 -0.01206 0.0
C742 C 0.53746 0.0232 0.00213 0.0
C743 C 0.5349 0.02182 0.02658 0.0
H744 H 0.58097 0.97391 0.53571 0.0
H745 H 0.4799 0.02047 0.52753 0.0
H746 H 0.58455 0.96405 0.49343 0.0
H747 H 0.48395 0.01192 0.48508 0.0
H748 H 0.48952 0.96067 0.41234 0.0
H749 H 0.48483 0.96722 0.45469 0.0
H750 H 0.59167 -0.00109 0.45819 0.0
H751 H 0.59671 0.99089 0.41566 0.0
C752 C 0.55945 0.98194 0.52486 0.0
C753 C 0.53016 0.99801 0.53492 0.0
C754 C 0.56166 0.97663 0.50059 0.0
C755 C 0.53475 0.98762 0.4858 0.0
C756 C 0.50503 0.00279 0.49597 0.0
C757 C 0.50268 0.00772 0.5203 0.0
C758 C 0.51205 0.96917 0.4221 0.0
C759 C 0.54354 0.97529 0.41063 0.0
C760 C 0.50928 0.97308 0.44642 0.0
C761 C 0.53783 0.98358 0.45988 0.0
C762 C 0.56929 0.99015 0.44839 0.0
C763 C 0.57215 0.98586 0.424 0.0
H764 H 1.00097 0.01308 0.53695 0.0
H765 H 0.09838 0.95775 0.53051 0.0
H766 H 0.99676 0.01669 0.49431 0.0
H767 H 0.0935 0.95967 0.4878 0.0
H768 H 0.09062 0.00418 0.41298 0.0
H769 H 0.09568 -0.00112 0.45526 0.0
H770 H 0.98636 0.98026 0.46062 0.0
H771 H 0.98107 0.98747 0.41807 0.0
C772 C 1.02151 0.0017 0.52637 0.0
C773 C 0.05007 0.98526 0.53703 0.0
C774 C 1.0189 0.00334 0.50191 0.0
C775 C 0.04456 0.98807 0.48753 0.0
C776 C 0.07342 0.97212 0.49827 0.0
C777 C 0.07628 0.97101 0.52277 0.0
C778 C 0.06763 0.99859 0.42309 0.0
C779 C 0.03537 0.99643 0.41214 0.0
C780 C 0.07059 0.99538 0.44743 0.0
C781 C 0.04144 0.98938 0.46147 0.0
C782 C 1.00929 0.98572 0.45041 0.0
C783 C 1.00625 0.98946 0.42601 0.0
H784 H 0.57956 0.51471 0.03043 0.0
H785 H 0.47173 0.54126 0.03439 0.0
H786 H 0.57392 0.50449 -0.01186 0.0
H787 H 0.46642 0.53255 -0.00776 0.0
H788 H 0.46221 0.47373 0.92074 0.0
H789 H 0.46611 0.48612 0.96284 0.0
H790 H 0.56526 0.53724 0.95233 0.0
H791 H 0.56186 0.52356 0.91049 0.0
C792 C 0.55474 0.51849 0.02227 0.0
C793 C 0.52612 0.52862 0.03576 0.0
C794 C 0.55152 0.51295 -0.00198 0.0
C795 C 0.5197 0.51785 -0.01322 0.0
C796 C 0.49115 0.52798 0.00035 0.0
C797 C 0.49428 0.53311 0.02455 0.0
C798 C 0.48456 0.4881 0.92742 0.0
C799 C 0.51181 0.49745 0.91241 0.0
C800 C 0.48685 0.49521 0.95154 0.0
C801 C 0.51625 0.51223 0.96102 0.0
C802 C 0.54269 0.52321 0.94573 0.0
C803 C 0.54058 0.51571 0.92171 0.0
H804 H 0.06348 0.52361 0.03042 0.0
H805 H 0.96206 0.47754 0.0215 0.0
H806 H 0.0685 0.53166 -0.01195 0.0
H807 H 0.96755 0.48412 -0.02101 0.0
H808 H 0.97546 0.53231 0.90578 0.0
H809 H 0.96966 0.52701 0.94804 0.0
H810 H 0.07638 0.49626 0.95322 0.0
H811 H 0.08259 0.50321 0.91065 0.0
C812 C 0.04219 0.51532 0.01937 0.0
C813 C 1.01235 0.49996 0.02925 0.0
C814 C 0.04523 0.51955 -0.00494 0.0
C815 C 1.01865 0.5081 -0.01996 0.0
C816 C 0.98841 0.49361 -0.00998 0.0
C817 C 0.9852 0.48982 0.01439 0.0
C818 C 0.99774 0.52422 0.91585 0.0
C819 C 0.02954 0.51812 0.90482 0.0
C820 C 0.99432 0.52102 0.94016 0.0
C821 C 1.02249 0.51119 0.9541 0.0
C822 C 0.05426 0.50452 0.94305 0.0
C823 C 0.0578 0.50817 0.91865 0.0
H824 H 0.07079 0.49748 0.53425 0.0
H825 H 0.97392 0.55273 0.52492 0.0
H826 H 0.07606 0.48986 0.49185 0.0
H827 H 0.97994 0.54705 0.4824 0.0
H828 H 0.98013 0.4892 0.41163 0.0
H829 H 0.97651 0.50277 0.45305 0.0
H830 H 0.08634 0.51926 0.45547 0.0
H831 H 0.0902 0.50351 0.41366 0.0
C832 C 0.0507 0.50818 0.52306 0.0
C833 C 1.02174 0.52531 0.53284 0.0
C834 C 0.05392 0.50425 0.49872 0.0
C835 C 0.02851 0.51793 0.4836 0.0
C836 C 0.99973 0.53553 0.49348 0.0
C837 C 0.99621 0.53882 0.51785 0.0
C838 C 1.00362 0.49601 0.42083 0.0
C839 C 0.03556 0.495 0.40931 0.0
C840 C 1.00145 0.50413 0.4447 0.0
C841 C 0.0311 0.51209 0.45775 0.0
C842 C 0.06302 0.51259 0.44606 0.0
C843 C 0.06525 0.50391 0.42207 0.0
H844 H 0.58832 0.50157 0.52786 0.0
H845 H 0.47942 0.47922 0.53061 0.0
H846 H 0.58377 0.51321 0.48562 0.0
H847 H 0.4752 0.48903 0.48868 0.0
H848 H 0.47158 0.53878 0.41608 0.0
H849 H 0.47665 0.53311 0.45863 0.0
H850 H 0.57502 0.4801 0.45001 0.0
H851 H 0.57056 0.48736 0.40757 0.0
C852 C 0.56347 0.49925 0.51949 0.0
C853 C 0.53429 0.4895 0.53259 0.0
C854 C 0.56087 0.50558 0.49527 0.0
C855 C 0.52911 0.50188 0.4837 0.0
C856 C 0.49994 0.49278 0.49699 0.0
C857 C 0.50245 0.48692 0.52111 0.0
C858 C 0.49413 0.52568 0.42331 0.0
C859 C 0.52061 0.51344 0.40854 0.0
C860 C 0.49709 0.52241 0.4477 0.0
C861 C 0.52635 0.50627 0.4578 0.0
C862 C 0.55251 0.49341 0.44291 0.0
C863 C 0.54977 0.49717 0.41856 0.0
loop_
_geom_bond_atom_site_label_1
_geom_bond_atom_site_label_2
_geom_bond_distance
_geom_bond_site_symmetry_2
_ccdc_geom_bond_type
Zn0 O3 2.031 1_655 S
Zn0 O5 2.049 . S
Zn0 O10 2.067 1_655 S
Zn1 O2 1.962 . S
Zn1 O4 1.986 . S
Zn1 O6 1.996 . S
Zn1 O9 1.943 . S
O2 Zn1 1.962 . S
O2 C7 1.254 . S
O3 Zn0 2.031 1_455 S
O3 C7 1.269 . S
O4 Zn1 1.986 . S
O4 C11 1.262 . S
O5 Zn0 2.049 . S
O5 C13 1.260 1_655 S
O6 Zn1 1.996 . S
O6 C13 1.257 . S
C7 O2 1.254 . S
C7 O3 1.269 . S
C8 O9 1.249 . S
C8 O10 1.270 . S
O9 Zn1 1.943 . S
O9 C8 1.249 . S
O10 Zn0 2.067 1_455 S
O10 C8 1.270 . S
C11 O4 1.262 . S
C11 O12 1.232 . S
O12 C11 1.232 . S
C13 O5 1.260 1_455 S
C13 O6 1.257 . S
Zn14 O17 2.031 . S
Zn14 O19 2.049 . S
Zn14 O24 2.067 . S
Zn15 O16 1.962 . S
Zn15 O18 1.986 . S
Zn15 O20 1.996 . S
Zn15 O23 1.943 . S
O16 Zn15 1.962 . S
O16 C21 1.254 . S
O17 Zn14 2.031 . S
O17 C21 1.269 . S
O18 Zn15 1.986 . S
O18 C25 1.262 . S
O19 Zn14 2.049 . S
O19 C27 1.260 . S
O20 Zn15 1.996 . S
O20 C27 1.257 . S
C21 O16 1.254 . S
C21 O17 1.269 . S
C22 O23 1.249 . S
C22 O24 1.270 . S
O23 Zn15 1.943 . S
O23 C22 1.249 . S
O24 Zn14 2.067 . S
O24 C22 1.270 . S
C25 O18 1.262 . S
C25 O26 1.232 . S
O26 C25 1.232 . S
C27 O19 1.260 . S
C27 O20 1.257 . S
Zn28 O31 2.031 . S
Zn28 O33 2.049 . S
Zn28 O38 2.067 . S
Zn29 O30 1.962 . S
Zn29 O32 1.986 . S
Zn29 O34 1.996 . S
Zn29 O37 1.943 . S
O30 Zn29 1.962 . S
O30 C35 1.254 . S
O31 Zn28 2.031 . S
O31 C35 1.269 . S
O32 Zn29 1.986 . S
O32 C39 1.262 . S
O33 Zn28 2.049 . S
O33 C41 1.260 . S
O34 Zn29 1.996 . S
O34 C41 1.257 . S
C35 O30 1.254 . S
C35 O31 1.269 . S
C36 O37 1.249 . S
C36 O38 1.270 . S
O37 Zn29 1.943 . S
O37 C36 1.249 . S
O38 Zn28 2.067 . S
O38 C36 1.270 . S
C39 O32 1.262 . S
C39 O40 1.232 . S
O40 C39 1.232 . S
C41 O33 1.260 . S
C41 O34 1.257 . S
Zn42 O45 2.031 1_455 S
Zn42 O47 2.049 . S
Zn42 O52 2.067 1_455 S
Zn43 O44 1.962 . S
Zn43 O46 1.986 . S
Zn43 O48 1.996 . S
Zn43 O51 1.943 . S
O44 Zn43 1.962 . S
O44 C49 1.254 . S
O45 Zn42 2.031 1_655 S
O45 C49 1.269 . S
O46 Zn43 1.986 . S
O46 C53 1.262 . S
O47 Zn42 2.049 . S
O47 C55 1.260 1_455 S
O48 Zn43 1.996 . S
O48 C55 1.257 . S
C49 O44 1.254 . S
C49 O45 1.269 . S
C50 O51 1.249 . S
C50 O52 1.270 . S
O51 Zn43 1.943 . S
O51 C50 1.249 . S
O52 Zn42 2.067 1_655 S
O52 C50 1.270 . S
C53 O46 1.262 . S
C53 O54 1.232 . S
O54 C53 1.232 . S
C55 O47 1.260 1_655 S
C55 O48 1.257 . S
Zn56 O59 2.031 1_455 S
Zn56 O61 2.049 . S
Zn56 O66 2.067 1_455 S
Zn57 O58 1.962 . S
Zn57 O60 1.986 . S
Zn57 O62 1.996 . S
Zn57 O65 1.943 . S
O58 Zn57 1.962 . S
O58 C63 1.254 . S
O59 Zn56 2.031 1_655 S
O59 C63 1.269 . S
O60 Zn57 1.986 . S
O60 C67 1.262 . S
O61 Zn56 2.049 . S
O61 C69 1.260 1_455 S
O62 Zn57 1.996 . S
O62 C69 1.257 . S
C63 O58 1.254 . S
C63 O59 1.269 . S
C64 O65 1.249 . S
C64 O66 1.270 . S
O65 Zn57 1.943 . S
O65 C64 1.249 . S
O66 Zn56 2.067 1_655 S
O66 C64 1.270 . S
C67 O60 1.262 . S
C67 O68 1.232 . S
O68 C67 1.232 . S
C69 O61 1.260 1_655 S
C69 O62 1.257 . S
Zn70 O73 2.031 . S
Zn70 O75 2.049 . S
Zn70 O80 2.067 . S
Zn71 O72 1.962 . S
Zn71 O74 1.986 . S
Zn71 O76 1.996 . S
Zn71 O79 1.943 . S
O72 Zn71 1.962 . S
O72 C77 1.254 . S
O73 Zn70 2.031 . S
O73 C77 1.269 . S
O74 Zn71 1.986 . S
O74 C81 1.262 . S
O75 Zn70 2.049 . S
O75 C83 1.260 . S
O76 Zn71 1.996 . S
O76 C83 1.257 . S
C77 O72 1.254 . S
C77 O73 1.269 . S
C78 O79 1.249 . S
C78 O80 1.270 . S
O79 Zn71 1.943 . S
O79 C78 1.249 . S
O80 Zn70 2.067 . S
O80 C78 1.270 . S
C81 O74 1.262 . S
C81 O82 1.232 . S
O82 C81 1.232 . S
C83 O75 1.260 . S
C83 O76 1.257 . S
Zn84 O87 2.031 . S
Zn84 O89 2.049 . S
Zn84 O94 2.067 . S
Zn85 O86 1.962 . S
Zn85 O88 1.986 . S
Zn85 O90 1.996 . S
Zn85 O93 1.943 . S
O86 Zn85 1.962 . S
O86 C91 1.254 . S
O87 Zn84 2.031 . S
O87 C91 1.269 . S
O88 Zn85 1.986 . S
O88 C95 1.262 . S
O89 Zn84 2.049 . S
O89 C97 1.260 . S
O90 Zn85 1.996 . S
O90 C97 1.257 . S
C91 O86 1.254 . S
C91 O87 1.269 . S
C92 O93 1.249 . S
C92 O94 1.270 . S
O93 Zn85 1.943 . S
O93 C92 1.249 . S
O94 Zn84 2.067 . S
O94 C92 1.270 . S
C95 O88 1.262 . S
C95 O96 1.232 . S
O96 C95 1.232 . S
C97 O89 1.260 . S
C97 O90 1.257 . S
Zn98 O101 2.031 1_655 S
Zn98 O103 2.049 . S
Zn98 O108 2.067 1_655 S
Zn99 O100 1.962 . S
Zn99 O102 1.986 . S
Zn99 O104 1.996 . S
Zn99 O107 1.943 . S
O100 Zn99 1.962 . S
O100 C105 1.254 . S
O101 Zn98 2.031 1_455 S
O101 C105 1.269 . S
O102 Zn99 1.986 . S
O102 C109 1.262 . S
O103 Zn98 2.049 . S
O103 C111 1.260 1_655 S
O104 Zn99 1.996 . S
O104 C111 1.257 . S
C105 O100 1.254 . S
C105 O101 1.269 . S
C106 O107 1.249 . S
C106 O108 1.270 . S
O107 Zn99 1.943 . S
O107 C106 1.249 . S
O108 Zn98 2.067 1_455 S
O108 C106 1.270 . S
C109 O102 1.262 . S
C109 O110 1.232 . S
O110 C109 1.232 . S
C111 O103 1.260 1_455 S
C111 O104 1.257 . S
Zn112 O115 2.031 . S
Zn112 O117 2.049 . S
Zn112 O122 2.067 . S
Zn113 O114 1.962 . S
Zn113 O116 1.986 . S
Zn113 O118 1.996 . S
Zn113 O121 1.943 . S
O114 Zn113 1.962 . S
O114 C119 1.254 . S
O115 Zn112 2.031 . S
O115 C119 1.269 . S
O116 Zn113 1.986 . S
O116 C123 1.262 . S
O117 Zn112 2.049 . S
O117 C125 1.260 . S
O118 Zn113 1.996 . S
O118 C125 1.257 . S
C119 O114 1.254 . S
C119 O115 1.269 . S
C120 O121 1.249 . S
C120 O122 1.270 . S
O121 Zn113 1.943 . S
O121 C120 1.249 . S
O122 Zn112 2.067 . S
O122 C120 1.270 . S
C123 O116 1.262 . S
C123 O124 1.232 . S
O124 C123 1.232 . S
C125 O117 1.260 . S
C125 O118 1.257 . S
Zn126 O129 2.031 1_455 S
Zn126 O131 2.049 . S
Zn126 O136 2.067 1_455 S
Zn127 O128 1.962 . S
Zn127 O130 1.986 . S
Zn127 O132 1.996 . S
Zn127 O135 1.943 . S
O128 Zn127 1.962 . S
O128 C133 1.254 . S
O129 Zn126 2.031 1_655 S
O129 C133 1.269 . S
O130 Zn127 1.986 . S
O130 C137 1.262 . S
O131 Zn126 2.049 . S
O131 C139 1.260 1_455 S
O132 Zn127 1.996 . S
O132 C139 1.257 . S
C133 O128 1.254 . S
C133 O129 1.269 . S
C134 O135 1.249 . S
C134 O136 1.270 . S
O135 Zn127 1.943 . S
O135 C134 1.249 . S
O136 Zn126 2.067 1_655 S
O136 C134 1.270 . S
C137 O130 1.262 . S
C137 O138 1.232 . S
O138 C137 1.232 . S
C139 O131 1.260 1_655 S
C139 O132 1.257 . S
Zn140 O143 2.031 1_655 S
Zn140 O145 2.049 . S
Zn140 O150 2.067 1_655 S
Zn141 O142 1.962 . S
Zn141 O144 1.986 . S
Zn141 O146 1.996 . S
Zn141 O149 1.943 . S
O142 Zn141 1.962 . S
O142 C147 1.254 . S
O143 Zn140 2.031 1_455 S
O143 C147 1.269 . S
O144 Zn141 1.986 . S
O144 C151 1.262 . S
O145 Zn140 2.049 . S
O145 C153 1.260 1_655 S
O146 Zn141 1.996 . S
O146 C153 1.257 . S
C147 O142 1.254 . S
C147 O143 1.269 . S
C148 O149 1.249 . S
C148 O150 1.270 . S
O149 Zn141 1.943 . S
O149 C148 1.249 . S
O150 Zn140 2.067 1_455 S
O150 C148 1.270 . S
C151 O144 1.262 . S
C151 O152 1.232 . S
O152 C151 1.232 . S
C153 O145 1.260 1_455 S
C153 O146 1.257 . S
Zn154 O157 2.031 . S
Zn154 O159 2.049 . S
Zn154 O164 2.067 . S
Zn155 O156 1.962 . S
Zn155 O158 1.986 . S
Zn155 O160 1.996 . S
Zn155 O163 1.943 . S
O156 Zn155 1.962 . S
O156 C161 1.254 . S
O157 Zn154 2.031 . S
O157 C161 1.269 . S
O158 Zn155 1.986 . S
O158 C165 1.262 . S
O159 Zn154 2.049 . S
O159 C167 1.260 . S
O160 Zn155 1.996 . S
O160 C167 1.257 . S
C161 O156 1.254 . S
C161 O157 1.269 . S
C162 O163 1.249 . S
C162 O164 1.270 . S
O163 Zn155 1.943 . S
O163 C162 1.249 . S
O164 Zn154 2.067 . S
O164 C162 1.270 . S
C165 O158 1.262 . S
C165 O166 1.232 . S
O166 C165 1.232 . S
C167 O159 1.260 . S
C167 O160 1.257 . S
Zn168 O171 2.031 . S
Zn168 O173 2.049 . S
Zn168 O178 2.067 . S
Zn169 O170 1.962 . S
Zn169 O172 1.986 . S
Zn169 O174 1.996 . S
Zn169 O177 1.943 . S
O170 Zn169 1.962 . S
O170 C175 1.254 . S
O171 Zn168 2.031 . S
O171 C175 1.269 . S
O172 Zn169 1.986 . S
O172 C179 1.262 . S
O173 Zn168 2.049 . S
O173 C181 1.260 . S
O174 Zn169 1.996 . S
O174 C181 1.257 . S
C175 O170 1.254 . S
C175 O171 1.269 . S
C176 O177 1.249 . S
C176 O178 1.270 . S
O177 Zn169 1.943 . S
O177 C176 1.249 . S
O178 Zn168 2.067 . S
O178 C176 1.270 . S
C179 O172 1.262 . S
C179 O180 1.232 . S
O180 C179 1.232 . S
C181 O173 1.260 . S
C181 O174 1.257 . S
Zn182 O185 2.031 1_655 S
Zn182 O187 2.049 . S
Zn182 O192 2.067 1_655 S
Zn183 O184 1.962 . S
Zn183 O186 1.986 . S
Zn183 O188 1.996 . S
Zn183 O191 1.943 . S
O184 Zn183 1.962 . S
O184 C189 1.254 . S
O185 Zn182 2.031 1_455 S
O185 C189 1.269 . S
O186 Zn183 1.986 . S
O186 C193 1.262 . S
O187 Zn182 2.049 . S
O187 C195 1.260 1_655 S
O188 Zn183 1.996 . S
O188 C195 1.257 . S
C189 O184 1.254 . S
C189 O185 1.269 . S
C190 O191 1.249 . S
C190 O192 1.270 . S
O191 Zn183 1.943 . S
O191 C190 1.249 . S
O192 Zn182 2.067 1_455 S
O192 C190 1.270 . S
C193 O186 1.262 . S
C193 O194 1.232 . S
O194 C193 1.232 . S
C195 O187 1.260 1_455 S
C195 O188 1.257 . S
Zn196 O199 2.031 1_455 S
Zn196 O201 2.049 . S
Zn196 O206 2.067 1_455 S
Zn197 O198 1.962 . S
Zn197 O200 1.986 . S
Zn197 O202 1.996 . S
Zn197 O205 1.943 . S
O198 Zn197 1.962 . S
O198 C203 1.254 . S
O199 Zn196 2.031 1_655 S
O199 C203 1.269 . S
O200 Zn197 1.986 . S
O200 C207 1.262 . S
O201 Zn196 2.049 . S
O201 C209 1.260 1_455 S
O202 Zn197 1.996 . S
O202 C209 1.257 . S
C203 O198 1.254 . S
C203 O199 1.269 . S
C204 O205 1.249 . S
C204 O206 1.270 . S
O205 Zn197 1.943 . S
O205 C204 1.249 . S
O206 Zn196 2.067 1_655 S
O206 C204 1.270 . S
C207 O200 1.262 . S
C207 O208 1.232 . S
O208 C207 1.232 . S
C209 O201 1.260 1_655 S
C209 O202 1.257 . S
Zn210 O213 2.031 . S
Zn210 O215 2.049 . S
Zn210 O220 2.067 . S
Zn211 O212 1.962 . S
Zn211 O214 1.986 . S
Zn211 O216 1.996 . S
Zn211 O219 1.943 . S
O212 Zn211 1.962 . S
O212 C217 1.254 . S
O213 Zn210 2.031 . S
O213 C217 1.269 . S
O214 Zn211 1.986 . S
O214 C221 1.262 . S
O215 Zn210 2.049 . S
O215 C223 1.260 . S
O216 Zn211 1.996 . S
O216 C223 1.257 . S
C217 O212 1.254 . S
C217 O213 1.269 . S
C218 O219 1.249 . S
C218 O220 1.270 . S
O219 Zn211 1.943 . S
O219 C218 1.249 . S
O220 Zn210 2.067 . S
O220 C218 1.270 . S
C221 O214 1.262 . S
C221 O222 1.232 . S
O222 C221 1.232 . S
C223 O215 1.260 . S
C223 O216 1.257 . S
H224 C232 0.950 1_545 S
H225 C237 0.950 . S
H226 C234 0.950 . S
H227 C236 0.950 . S
H228 C238 0.950 1_565 S
H229 C240 0.950 . S
H230 C242 0.950 . S
H231 C243 0.950 . S
C232 H224 0.950 1_565 S
C232 C233 1.386 . S
C232 C234 1.391 1_565 S
C233 C232 1.386 . S
C233 C237 1.393 . S
C234 H226 0.950 . S
C234 C232 1.391 1_545 S
C234 C235 1.400 1_545 S
C235 C234 1.400 1_565 S
C235 C236 1.398 . S
C235 C241 1.491 1_565 S
C236 H227 0.950 . S
C236 C235 1.398 . S
C236 C237 1.391 . S
C237 H225 0.950 . S
C237 C233 1.393 . S
C237 C236 1.391 . S
C238 H228 0.950 1_545 S
C238 C239 1.386 . S
C238 C240 1.391 1_545 S
C239 C238 1.386 . S
C239 C243 1.393 . S
C240 H229 0.950 . S
C240 C238 1.391 1_565 S
C240 C241 1.400 1_565 S
C241 C235 1.491 1_545 S
C241 C240 1.400 1_545 S
C241 C242 1.398 . S
C242 H230 0.950 . S
C242 C241 1.398 . S
C242 C243 1.391 . S
C243 H231 0.950 . S
C243 C239 1.393 . S
C243 C242 1.391 . S
H244 C252 0.950 1_545 S
H245 C257 0.950 . S
H246 C254 0.950 . S
H247 C256 0.950 . S
H248 C258 0.950 1_565 S
H249 C260 0.950 . S
H250 C262 0.950 . S
H251 C263 0.950 . S
C252 H244 0.950 1_565 S
C252 C253 1.386 . S
C252 C254 1.391 1_565 S
C253 C252 1.386 . S
C253 C257 1.393 . S
C254 H246 0.950 . S
C254 C252 1.391 1_545 S
C254 C255 1.400 1_545 S
C255 C254 1.400 1_565 S
C255 C256 1.398 . S
C255 C261 1.491 1_565 S
C256 H247 0.950 . S
C256 C255 1.398 . S
C256 C257 1.391 . S
C257 H245 0.950 . S
C257 C253 1.393 . S
C257 C256 1.391 . S
C258 H248 0.950 1_545 S
C258 C259 1.386 . S
C258 C260 1.391 1_545 S
C259 C258 1.386 . S
C259 C263 1.393 . S
C260 H249 0.950 . S
C260 C258 1.391 1_565 S
C260 C261 1.400 1_565 S
C261 C255 1.491 1_545 S
C261 C260 1.400 1_545 S
C261 C262 1.398 . S
C262 H250 0.950 . S
C262 C261 1.398 . S
C262 C263 1.391 . S
C263 H251 0.950 . S
C263 C259 1.393 . S
C263 C262 1.391 . S
H264 C272 0.950 . S
H265 C277 0.950 . S
H266 C274 0.950 . S
H267 C276 0.950 . S
H268 C278 0.950 . S
H269 C280 0.950 . S
H270 C282 0.950 . S
H271 C283 0.950 . S
C272 H264 0.950 . S
C272 C273 1.386 1_545 S
C272 C274 1.391 . S
C273 C272 1.386 1_565 S
C273 C277 1.393 . S
C274 H266 0.950 . S
C274 C272 1.391 . S
C274 C275 1.400 1_545 S
C275 C274 1.400 1_565 S
C275 C276 1.398 . S
C275 C281 1.491 1_565 S
C276 H267 0.950 . S
C276 C275 1.398 . S
C276 C277 1.391 . S
C277 H265 0.950 . S
C277 C273 1.393 . S
C277 C276 1.391 . S
C278 H268 0.950 . S
C278 C279 1.386 1_565 S
C278 C280 1.391 . S
C279 C278 1.386 1_545 S
C279 C283 1.393 . S
C280 H269 0.950 . S
C280 C278 1.391 . S
C280 C281 1.400 1_565 S
C281 C275 1.491 1_545 S
C281 C280 1.400 1_545 S
C281 C282 1.398 . S
C282 H270 0.950 . S
C282 C281 1.398 . S
C282 C283 1.391 . S
C283 H271 0.950 . S
C283 C279 1.393 . S
C283 C282 1.391 . S
H284 C292 0.950 . S
H285 C297 0.950 . S
H286 C294 0.950 . S
H287 C296 0.950 . S
H288 C298 0.950 . S
H289 C300 0.950 . S
H290 C302 0.950 . S
H291 C303 0.950 . S
C292 H284 0.950 . S
C292 C293 1.386 . S
C292 C294 1.391 . S
C293 C292 1.386 . S
C293 C297 1.393 . S
C294 H286 0.950 . S
C294 C292 1.391 . S
C294 C295 1.400 . S
C295 C294 1.400 . S
C295 C296 1.398 . S
C295 C301 1.491 1_565 S
C296 H287 0.950 . S
C296 C295 1.398 . S
C296 C297 1.391 . S
C297 H285 0.950 . S
C297 C293 1.393 . S
C297 C296 1.391 . S
C298 H288 0.950 . S
C298 C299 1.386 . S
C298 C300 1.391 . S
C299 C298 1.386 . S
C299 C303 1.393 . S
C300 H289 0.950 . S
C300 C298 1.391 . S
C300 C301 1.400 . S
C301 C295 1.491 1_545 S
C301 C300 1.400 . S
C301 C302 1.398 . S
C302 H290 0.950 . S
C302 C301 1.398 . S
C302 C303 1.391 . S
C303 H291 0.950 . S
C303 C299 1.393 . S
C303 C302 1.391 . S
H304 C312 0.950 . S
H305 C317 0.950 . S
H306 C314 0.950 . S
H307 C316 0.950 . S
H308 C318 0.950 . S
H309 C320 0.950 . S
H310 C322 0.950 . S
H311 C323 0.950 . S
C312 H304 0.950 . S
C312 C313 1.386 . S
C312 C314 1.391 . S
C313 C312 1.386 . S
C313 C317 1.393 . S
C314 H306 0.950 . S
C314 C312 1.391 . S
C314 C315 1.400 . S
C315 C314 1.400 . S
C315 C316 1.398 . S
C315 C321 1.491 . S
C316 H307 0.950 . S
C316 C315 1.398 . S
C316 C317 1.391 . S
C317 H305 0.950 . S
C317 C313 1.393 . S
C317 C316 1.391 . S
C318 H308 0.950 . S
C318 C319 1.386 . S
C318 C320 1.391 . S
C319 C318 1.386 . S
C319 C323 1.393 . S
C320 H309 0.950 . S
C320 C318 1.391 . S
C320 C321 1.400 . S
C321 C315 1.491 . S
C321 C320 1.400 . S
C321 C322 1.398 . S
C322 H310 0.950 . S
C322 C321 1.398 . S
C322 C323 1.391 . S
C323 H311 0.950 . S
C323 C319 1.393 . S
C323 C322 1.391 . S
H324 C332 0.950 . S
H325 C337 0.950 . S
H326 C334 0.950 . S
H327 C336 0.950 . S
H328 C338 0.950 . S
H329 C340 0.950 . S
H330 C342 0.950 . S
H331 C343 0.950 . S
C332 H324 0.950 . S
C332 C333 1.386 . S
C332 C334 1.391 . S
C333 C332 1.386 . S
C333 C337 1.393 . S
C334 H326 0.950 . S
C334 C332 1.391 . S
C334 C335 1.400 . S
C335 C334 1.400 . S
C335 C336 1.398 . S
C335 C341 1.491 . S
C336 H327 0.950 . S
C336 C335 1.398 . S
C336 C337 1.391 . S
C337 H325 0.950 . S
C337 C333 1.393 . S
C337 C336 1.391 . S
C338 H328 0.950 . S
C338 C339 1.386 . S
C338 C340 1.391 . S
C339 C338 1.386 . S
C339 C343 1.393 . S
C340 H329 0.950 . S
C340 C338 1.391 . S
C340 C341 1.400 . S
C341 C335 1.491 . S
C341 C340 1.400 . S
C341 C342 1.398 . S
C342 H330 0.950 . S
C342 C341 1.398 . S
C342 C343 1.391 . S
C343 H331 0.950 . S
C343 C339 1.393 . S
C343 C342 1.391 . S
H344 C352 0.950 . S
H345 C357 0.950 . S
H346 C354 0.950 . S
H347 C356 0.950 . S
H348 C358 0.950 . S
H349 C360 0.950 . S
H350 C362 0.950 . S
H351 C363 0.950 . S
C352 H344 0.950 . S
C352 C353 1.386 . S
C352 C354 1.391 . S
C353 C352 1.386 . S
C353 C357 1.393 . S
C354 H346 0.950 . S
C354 C352 1.391 . S
C354 C355 1.400 . S
C355 C354 1.400 . S
C355 C356 1.398 . S
C355 C361 1.491 . S
C356 H347 0.950 . S
C356 C355 1.398 . S
C356 C357 1.391 . S
C357 H345 0.950 . S
C357 C353 1.393 . S
C357 C356 1.391 . S
C358 H348 0.950 . S
C358 C359 1.386 . S
C358 C360 1.391 . S
C359 C358 1.386 . S
C359 C363 1.393 . S
C360 H349 0.950 . S
C360 C358 1.391 . S
C360 C361 1.400 . S
C361 C355 1.491 . S
C361 C360 1.400 . S
C361 C362 1.398 . S
C362 H350 0.950 . S
C362 C361 1.398 . S
C362 C363 1.391 . S
C363 H351 0.950 . S
C363 C359 1.393 . S
C363 C362 1.391 . S
H364 C372 0.950 . S
H365 C377 0.950 . S
H366 C374 0.950 . S
H367 C376 0.950 . S
H368 C378 0.950 . S
H369 C380 0.950 . S
H370 C382 0.950 . S
H371 C383 0.950 . S
C372 H364 0.950 . S
C372 C373 1.386 . S
C372 C374 1.391 . S
C373 C372 1.386 . S
C373 C377 1.393 . S
C374 H366 0.950 . S
C374 C372 1.391 . S
C374 C375 1.400 . S
C375 C374 1.400 . S
C375 C376 1.398 . S
C375 C381 1.491 . S
C376 H367 0.950 . S
C376 C375 1.398 . S
C376 C377 1.391 . S
C377 H365 0.950 . S
C377 C373 1.393 . S
C377 C376 1.391 . S
C378 H368 0.950 . S
C378 C379 1.386 . S
C378 C380 1.391 . S
C379 C378 1.386 . S
C379 C383 1.393 . S
C380 H369 0.950 . S
C380 C378 1.391 . S
C380 C381 1.400 . S
C381 C375 1.491 . S
C381 C380 1.400 . S
C381 C382 1.398 . S
C382 H370 0.950 . S
C382 C381 1.398 . S
C382 C383 1.391 . S
C383 H371 0.950 . S
C383 C379 1.393 . S
C383 C382 1.391 . S
H384 C392 0.950 . S
H385 C397 0.950 . S
H386 C394 0.950 . S
H387 C396 0.950 . S
H388 C398 0.965 . S
H389 C400 0.950 . S
H390 C402 0.950 . S
H391 C403 0.950 . S
C392 H384 0.950 . S
C392 C393 1.386 . S
C392 C394 1.391 . S
C393 C392 1.386 . S
C393 C397 1.393 1_655 S
C394 H386 0.950 . S
C394 C392 1.391 . S
C394 C395 1.400 . S
C395 C394 1.400 . S
C395 C396 1.398 1_655 S
C395 C401 1.491 1_655 S
C396 H387 0.950 . S
C396 C395 1.398 1_455 S
C396 C397 1.391 . S
C397 H385 0.950 . S
C397 C393 1.393 1_455 S
C397 C396 1.391 . S
C398 H388 0.965 . S
C398 C399 1.386 . S
C398 C400 1.391 . S
C399 C398 1.386 . S
C399 C403 1.393 1_455 S
C400 H389 0.950 . S
C400 C398 1.391 . S
C400 C401 1.400 . S
C401 C395 1.491 1_455 S
C401 C400 1.400 . S
C401 C402 1.398 1_455 S
C402 H390 0.950 . S
C402 C401 1.398 1_655 S
C402 C403 1.391 . S
C403 H391 0.950 . S
C403 C399 1.393 1_655 S
C403 C402 1.391 . S
H404 C412 0.950 . S
H405 C417 0.950 . S
H406 C414 0.950 . S
H407 C416 0.950 . S
H408 C418 0.950 . S
H409 C420 0.950 . S
H410 C422 0.950 . S
H411 C423 0.950 . S
C412 H404 0.950 . S
C412 C413 1.386 . S
C412 C414 1.391 . S
C413 C412 1.386 . S
C413 C417 1.393 . S
C414 H406 0.950 . S
C414 C412 1.391 . S
C414 C415 1.400 . S
C415 C414 1.400 . S
C415 C416 1.398 . S
C415 C421 1.491 . S
C416 H407 0.950 . S
C416 C415 1.398 . S
C416 C417 1.391 . S
C417 H405 0.950 . S
C417 C413 1.393 . S
C417 C416 1.391 . S
C418 H408 0.950 . S
C418 C419 1.386 . S
C418 C420 1.391 . S
C419 C418 1.386 . S
C419 C423 1.393 . S
C420 H409 0.950 . S
C420 C418 1.391 . S
C420 C421 1.400 . S
C421 C415 1.491 . S
C421 C420 1.400 . S
C421 C422 1.398 . S
C422 H410 0.950 . S
C422 C421 1.398 . S
C422 C423 1.391 . S
C423 H411 0.950 . S
C423 C419 1.393 . S
C423 C422 1.391 . S
H424 C432 0.950 . S
H425 C437 0.950 . S
H426 C434 0.950 . S
H427 C436 0.950 . S
H428 C438 0.950 . S
H429 C440 0.950 . S
H430 C442 0.950 . S
H431 C443 0.950 . S
C432 H424 0.950 . S
C432 C433 1.386 1_655 S
C432 C434 1.391 . S
C433 C432 1.386 1_455 S
C433 C437 1.393 . S
C434 H426 0.950 . S
C434 C432 1.391 . S
C434 C435 1.400 1_655 S
C435 C434 1.400 1_455 S
C435 C436 1.398 . S
C435 C441 1.491 1_455 S
C436 H427 0.950 . S
C436 C435 1.398 . S
C436 C437 1.391 . S
C437 H425 0.950 . S
C437 C433 1.393 . S
C437 C436 1.391 . S
C438 H428 0.950 . S
C438 C439 1.386 1_455 S
C438 C440 1.391 . S
C439 C438 1.386 1_655 S
C439 C443 1.393 . S
C440 H429 0.950 . S
C440 C438 1.391 . S
C440 C441 1.400 1_455 S
C441 C435 1.491 1_655 S
C441 C440 1.400 1_655 S
C441 C442 1.398 . S
C442 H430 0.950 . S
C442 C441 1.398 . S
C442 C443 1.391 . S
C443 H431 0.950 . S
C443 C439 1.393 . S
C443 C442 1.391 . S
H444 C452 0.950 . S
H445 C457 0.950 . S
H446 C454 0.950 . S
H447 C456 0.950 . S
H448 C458 0.950 . S
H449 C460 0.950 . S
H450 C462 0.950 . S
H451 C463 0.950 . S
C452 H444 0.950 . S
C452 C453 1.386 . S
C452 C454 1.391 . S
C453 C452 1.386 . S
C453 C457 1.393 . S
C454 H446 0.950 . S
C454 C452 1.391 . S
C454 C455 1.400 . S
C455 C454 1.400 . S
C455 C456 1.398 . S
C455 C461 1.491 . S
C456 H447 0.950 . S
C456 C455 1.398 . S
C456 C457 1.391 . S
C457 H445 0.950 . S
C457 C453 1.393 . S
C457 C456 1.391 . S
C458 H448 0.950 . S
C458 C459 1.386 . S
C458 C460 1.391 . S
C459 C458 1.386 . S
C459 C463 1.393 . S
C460 H449 0.950 . S
C460 C458 1.391 . S
C460 C461 1.400 . S
C461 C455 1.491 . S
C461 C460 1.400 . S
C461 C462 1.398 . S
C462 H450 0.950 . S
C462 C461 1.398 . S
C462 C463 1.391 . S
C463 H451 0.950 . S
C463 C459 1.393 . S
C463 C462 1.391 . S
H464 C472 0.950 . S
H465 C477 0.950 . S
H466 C474 0.950 . S
H467 C476 0.950 . S
H468 C478 0.950 . S
H469 C480 0.950 . S
H470 C482 0.950 . S
H471 C483 0.950 . S
C472 H464 0.950 . S
C472 C473 1.386 . S
C472 C474 1.391 . S
C473 C472 1.386 . S
C473 C477 1.393 . S
C474 H466 0.950 . S
C474 C472 1.391 . S
C474 C475 1.400 . S
C475 C474 1.400 . S
C475 C476 1.398 . S
C475 C481 1.491 . S
C476 H467 0.950 . S
C476 C475 1.398 . S
C476 C477 1.391 . S
C477 H465 0.950 . S
C477 C473 1.393 . S
C477 C476 1.391 . S
C478 H468 0.950 . S
C478 C479 1.386 . S
C478 C480 1.391 . S
C479 C478 1.386 . S
C479 C483 1.393 . S
C480 H469 0.950 . S
C480 C478 1.391 . S
C480 C481 1.400 . S
C481 C475 1.491 . S
C481 C480 1.400 . S
C481 C482 1.398 . S
C482 H470 0.950 . S
C482 C481 1.398 . S
C482 C483 1.391 . S
C483 H471 0.950 . S
C483 C479 1.393 . S
C483 C482 1.391 . S
H484 C492 0.950 . S
H485 C497 0.950 . S
H486 C494 0.950 . S
H487 C496 0.950 . S
H488 C498 0.950 . S
H489 C500 0.950 . S
H490 C502 0.950 . S
H491 C503 0.950 . S
C492 H484 0.950 . S
C492 C493 1.386 . S
C492 C494 1.391 . S
C493 C492 1.386 . S
C493 C497 1.393 1_455 S
C494 H486 0.950 . S
C494 C492 1.391 . S
C494 C495 1.400 . S
C495 C494 1.400 . S
C495 C496 1.398 1_455 S
C495 C501 1.491 1_455 S
C496 H487 0.950 . S
C496 C495 1.398 1_655 S
C496 C497 1.391 . S
C497 H485 0.950 . S
C497 C493 1.393 1_655 S
C497 C496 1.391 . S
C498 H488 0.950 . S
C498 C499 1.386 . S
C498 C500 1.391 . S
C499 C498 1.386 . S
C499 C503 1.393 1_655 S
C500 H489 0.950 . S
C500 C498 1.391 . S
C500 C501 1.400 . S
C501 C495 1.491 1_655 S
C501 C500 1.400 . S
C501 C502 1.398 1_655 S
C502 H490 0.950 . S
C502 C501 1.398 1_455 S
C502 C503 1.391 . S
C503 H491 0.950 . S
C503 C499 1.393 1_455 S
C503 C502 1.391 . S
H504 C512 0.950 . S
H505 C517 0.950 . S
H506 C514 0.950 . S
H507 C516 0.950 . S
H508 C518 0.950 . S
H509 C520 0.950 . S
H510 C522 0.950 . S
H511 C523 0.950 . S
C512 H504 0.950 . S
C512 C513 1.386 . S
C512 C514 1.391 . S
C513 C512 1.386 . S
C513 C517 1.393 . S
C514 H506 0.950 . S
C514 C512 1.391 . S
C514 C515 1.400 . S
C515 C514 1.400 . S
C515 C516 1.398 . S
C515 C521 1.491 . S
C516 H507 0.950 . S
C516 C515 1.398 . S
C516 C517 1.391 . S
C517 H505 0.950 . S
C517 C513 1.393 . S
C517 C516 1.391 . S
C518 H508 0.950 . S
C518 C519 1.386 . S
C518 C520 1.391 . S
C519 C518 1.386 . S
C519 C523 1.393 . S
C520 H509 0.950 . S
C520 C518 1.391 . S
C520 C521 1.400 . S
C521 C515 1.491 . S
C521 C520 1.400 . S
C521 C522 1.398 . S
C522 H510 0.950 . S
C522 C521 1.398 . S
C522 C523 1.391 . S
C523 H511 0.950 . S
C523 C519 1.393 . S
C523 C522 1.391 . S
H524 C532 0.950 . S
H525 C537 0.950 . S
H526 C534 0.950 . S
H527 C536 0.950 . S
H528 C538 0.950 . S
H529 C540 0.950 . S
H530 C542 0.950 . S
H531 C543 0.950 . S
C532 H524 0.950 . S
C532 C533 1.386 1_655 S
C532 C534 1.391 . S
C533 C532 1.386 1_455 S
C533 C537 1.393 . S
C534 H526 0.950 . S
C534 C532 1.391 . S
C534 C535 1.400 1_655 S
C535 C534 1.400 1_455 S
C535 C536 1.398 . S
C535 C541 1.491 1_455 S
C536 H527 0.950 . S
C536 C535 1.398 . S
C536 C537 1.391 . S
C537 H525 0.950 . S
C537 C533 1.393 . S
C537 C536 1.391 . S
C538 H528 0.950 . S
C538 C539 1.386 1_455 S
C538 C540 1.391 . S
C539 C538 1.386 1_655 S
C539 C543 1.393 . S
C540 H529 0.950 . S
C540 C538 1.391 . S
C540 C541 1.400 1_455 S
C541 C535 1.491 1_655 S
C541 C540 1.400 1_655 S
C541 C542 1.398 . S
C542 H530 0.950 . S
C542 C541 1.398 . S
C542 C543 1.391 . S
C543 H531 0.950 . S
C543 C539 1.393 . S
C543 C542 1.391 . S
H544 C552 0.950 1_655 S
H545 C557 0.950 . S
H546 C554 0.950 . S
H547 C556 0.950 . S
H548 C558 0.950 1_455 S
H549 C560 0.950 . S
H550 C562 0.950 . S
H551 C563 0.950 . S
C552 H544 0.950 1_455 S
C552 C553 1.386 . S
C552 C554 1.391 1_455 S
C553 C552 1.386 . S
C553 C557 1.393 . S
C554 H546 0.950 . S
C554 C552 1.391 1_655 S
C554 C555 1.400 1_655 S
C555 C554 1.400 1_455 S
C555 C556 1.398 . S
C555 C561 1.491 1_455 S
C556 H547 0.950 . S
C556 C555 1.398 . S
C556 C557 1.391 . S
C557 H545 0.950 . S
C557 C553 1.393 . S
C557 C556 1.391 . S
C558 H548 0.950 1_655 S
C558 C559 1.386 . S
C558 C560 1.391 1_655 S
C559 C558 1.386 . S
C559 C563 1.393 . S
C560 H549 0.950 . S
C560 C558 1.391 1_455 S
C560 C561 1.400 1_455 S
C561 C555 1.491 1_655 S
C561 C560 1.400 1_655 S
C561 C562 1.398 . S
C562 H550 0.950 . S
C562 C561 1.398 . S
C562 C563 1.391 . S
C563 H551 0.950 . S
C563 C559 1.393 . S
C563 C562 1.391 . S
H564 C572 0.950 . S
H565 C577 0.950 . S
H566 C574 0.950 . S
H567 C576 0.950 . S
H568 C578 0.950 . S
H569 C580 0.950 . S
H570 C582 0.950 . S
H571 C583 0.950 . S
C572 H564 0.950 . S
C572 C573 1.386 . S
C572 C574 1.391 . S
C573 C572 1.386 . S
C573 C577 1.393 . S
C574 H566 0.950 . S
C574 C572 1.391 . S
C574 C575 1.400 . S
C575 C574 1.400 . S
C575 C576 1.398 . S
C575 C581 1.491 . S
C576 H567 0.950 . S
C576 C575 1.398 . S
C576 C577 1.391 . S
C577 H565 0.950 . S
C577 C573 1.393 . S
C577 C576 1.391 . S
C578 H568 0.950 . S
C578 C579 1.386 . S
C578 C580 1.391 . S
C579 C578 1.386 . S
C579 C583 1.393 . S
C580 H569 0.950 . S
C580 C578 1.391 . S
C580 C581 1.400 . S
C581 C575 1.491 . S
C581 C580 1.400 . S
C581 C582 1.398 . S
C582 H570 0.950 . S
C582 C581 1.398 . S
C582 C583 1.391 . S
C583 H571 0.950 . S
C583 C579 1.393 . S
C583 C582 1.391 . S
H584 C592 0.950 . S
H585 C597 0.950 . S
H586 C594 0.950 . S
H587 C596 0.950 . S
H588 C598 0.950 . S
H589 C600 0.950 . S
H590 C602 0.950 . S
H591 C603 0.950 . S
C592 H584 0.950 . S
C592 C593 1.386 . S
C592 C594 1.391 . S
C593 C592 1.386 . S
C593 C597 1.393 . S
C594 H586 0.950 . S
C594 C592 1.391 . S
C594 C595 1.400 . S
C595 C594 1.400 . S
C595 C596 1.398 . S
C595 C601 1.491 . S
C596 H587 0.950 . S
C596 C595 1.398 . S
C596 C597 1.391 . S
C597 H585 0.950 . S
C597 C593 1.393 . S
C597 C596 1.391 . S
C598 H588 0.950 . S
C598 C599 1.386 . S
C598 C600 1.391 . S
C599 C598 1.386 . S
C599 C603 1.393 . S
C600 H589 0.950 . S
C600 C598 1.391 . S
C600 C601 1.400 . S
C601 C595 1.491 . S
C601 C600 1.400 . S
C601 C602 1.398 . S
C602 H590 0.950 . S
C602 C601 1.398 . S
C602 C603 1.391 . S
C603 H591 0.950 . S
C603 C599 1.393 . S
C603 C602 1.391 . S
H604 C612 0.950 . S
H605 C617 0.950 . S
H606 C614 0.950 . S
H607 C616 0.950 . S
H608 C618 0.950 . S
H609 C620 0.950 . S
H610 C622 0.950 . S
H611 C623 0.950 . S
C612 H604 0.950 . S
C612 C613 1.386 . S
C612 C614 1.391 1_455 S
C613 C612 1.386 . S
C613 C617 1.393 . S
C614 H606 0.950 . S
C614 C612 1.391 1_655 S
C614 C615 1.400 1_655 S
C615 C614 1.400 1_455 S
C615 C616 1.398 . S
C615 C621 1.491 1_455 S
C616 H607 0.950 . S
C616 C615 1.398 . S
C616 C617 1.391 . S
C617 H605 0.950 . S
C617 C613 1.393 . S
C617 C616 1.391 . S
C618 H608 0.950 . S
C618 C619 1.386 . S
C618 C620 1.391 1_655 S
C619 C618 1.386 . S
C619 C623 1.393 . S
C620 H609 0.950 . S
C620 C618 1.391 1_455 S
C620 C621 1.400 1_455 S
C621 C615 1.491 1_655 S
C621 C620 1.400 1_655 S
C621 C622 1.398 . S
C622 H610 0.950 . S
C622 C621 1.398 . S
C622 C623 1.391 . S
C623 H611 0.950 . S
C623 C619 1.393 . S
C623 C622 1.391 . S
H624 C632 0.950 1_655 S
H625 C637 0.950 . S
H626 C634 0.950 . S
H627 C636 0.950 . S
H628 C638 0.950 1_455 S
H629 C640 0.950 . S
H630 C642 0.950 . S
H631 C643 0.950 . S
C632 H624 0.950 1_455 S
C632 C633 1.386 . S
C632 C634 1.391 1_455 S
C633 C632 1.386 . S
C633 C637 1.393 . S
C634 H626 0.950 . S
C634 C632 1.391 1_655 S
C634 C635 1.400 1_655 S
C635 C634 1.400 1_455 S
C635 C636 1.398 . S
C635 C641 1.491 1_455 S
C636 H627 0.950 . S
C636 C635 1.398 . S
C636 C637 1.391 . S
C637 H625 0.950 . S
C637 C633 1.393 . S
C637 C636 1.391 . S
C638 H628 0.950 1_655 S
C638 C639 1.386 . S
C638 C640 1.391 1_655 S
C639 C638 1.386 . S
C639 C643 1.393 . S
C640 H629 0.950 . S
C640 C638 1.391 1_455 S
C640 C641 1.400 1_455 S
C641 C635 1.491 1_655 S
C641 C640 1.400 1_655 S
C641 C642 1.398 . S
C642 H630 0.950 . S
C642 C641 1.398 . S
C642 C643 1.391 . S
C643 H631 0.950 . S
C643 C639 1.393 . S
C643 C642 1.391 . S
H644 C652 0.950 . S
H645 C657 0.950 . S
H646 C654 0.950 . S
H647 C656 0.950 . S
H648 C658 0.950 . S
H649 C660 0.950 . S
H650 C662 0.950 . S
H651 C663 0.950 . S
C652 H644 0.950 . S
C652 C653 1.386 . S
C652 C654 1.391 . S
C653 C652 1.386 . S
C653 C657 1.393 . S
C654 H646 0.950 . S
C654 C652 1.391 . S
C654 C655 1.400 . S
C655 C654 1.400 . S
C655 C656 1.398 . S
C655 C661 1.491 . S
C656 H647 0.950 . S
C656 C655 1.398 . S
C656 C657 1.391 . S
C657 H645 0.950 . S
C657 C653 1.393 . S
C657 C656 1.391 . S
C658 H648 0.950 . S
C658 C659 1.386 . S
C658 C660 1.391 . S
C659 C658 1.386 . S
C659 C663 1.393 . S
C660 H649 0.950 . S
C660 C658 1.391 . S
C660 C661 1.400 . S
C661 C655 1.491 . S
C661 C660 1.400 . S
C661 C662 1.398 . S
C662 H650 0.950 . S
C662 C661 1.398 . S
C662 C663 1.391 . S
C663 H651 0.950 . S
C663 C659 1.393 . S
C663 C662 1.391 . S
H664 C672 0.950 . S
H665 C677 0.950 . S
H666 C674 0.950 . S
H667 C676 0.950 . S
H668 C678 0.950 . S
H669 C680 0.950 . S
H670 C682 0.950 . S
H671 C683 0.950 . S
C672 H664 0.950 . S
C672 C673 1.386 . S
C672 C674 1.391 . S
C673 C672 1.386 . S
C673 C677 1.393 . S
C674 H666 0.950 . S
C674 C672 1.391 . S
C674 C675 1.400 . S
C675 C674 1.400 . S
C675 C676 1.398 . S
C675 C681 1.491 . S
C676 H667 0.950 . S
C676 C675 1.398 . S
C676 C677 1.391 . S
C677 H665 0.950 . S
C677 C673 1.393 . S
C677 C676 1.391 . S
C678 H668 0.950 . S
C678 C679 1.386 . S
C678 C680 1.391 . S
C679 C678 1.386 . S
C679 C683 1.393 . S
C680 H669 0.950 . S
C680 C678 1.391 . S
C680 C681 1.400 . S
C681 C675 1.491 . S
C681 C680 1.400 . S
C681 C682 1.398 . S
C682 H670 0.950 . S
C682 C681 1.398 . S
C682 C683 1.391 . S
C683 H671 0.950 . S
C683 C679 1.393 . S
C683 C682 1.391 . S
H684 C692 0.950 1_655 S
H685 C697 0.950 . S
H686 C694 0.950 . S
H687 C696 0.950 . S
H688 C698 0.950 1_455 S
H689 C700 0.950 . S
H690 C702 0.950 . S
H691 C703 0.950 . S
C692 H684 0.950 1_455 S
C692 C693 1.386 . S
C692 C694 1.391 1_455 S
C693 C692 1.386 . S
C693 C697 1.393 . S
C694 H686 0.950 . S
C694 C692 1.391 1_655 S
C694 C695 1.400 1_655 S
C695 C694 1.400 1_455 S
C695 C696 1.398 . S
C695 C701 1.491 1_455 S
C696 H687 0.950 . S
C696 C695 1.398 . S
C696 C697 1.391 . S
C697 H685 0.950 . S
C697 C693 1.393 . S
C697 C696 1.391 . S
C698 H688 0.950 1_655 S
C698 C699 1.386 . S
C698 C700 1.391 1_655 S
C699 C698 1.386 . S
C699 C703 1.393 . S
C700 H689 0.950 . S
C700 C698 1.391 1_455 S
C700 C701 1.400 1_455 S
C701 C695 1.491 1_655 S
C701 C700 1.400 1_655 S
C701 C702 1.398 . S
C702 H690 0.950 . S
C702 C701 1.398 . S
C702 C703 1.391 . S
C703 H691 0.950 . S
C703 C699 1.393 . S
C703 C702 1.391 . S
H704 C712 0.950 . S
H705 C717 0.950 . S
H706 C714 0.944 1_455 S
H707 C716 0.950 . S
H708 C718 0.950 . S
H709 C720 0.944 1_655 S
H710 C722 0.950 . S
H711 C723 0.950 . S
C712 H704 0.950 . S
C712 C713 1.386 1_545 S
C712 C714 1.391 . S
C713 C712 1.386 1_565 S
C713 C717 1.393 . S
C714 H706 0.944 1_655 S
C714 C712 1.391 . S
C714 C715 1.400 1_545 S
C715 C714 1.400 1_565 S
C715 C716 1.398 . S
C715 C721 1.491 1_666 S
C716 H707 0.950 . S
C716 C715 1.398 . S
C716 C717 1.391 . S
C717 H705 0.950 . S
C717 C713 1.393 . S
C717 C716 1.391 . S
C718 H708 0.950 . S
C718 C719 1.386 1_565 S
C718 C720 1.391 . S
C719 C718 1.386 1_545 S
C719 C723 1.393 . S
C720 H709 0.944 1_455 S
C720 C718 1.391 . S
C720 C721 1.400 1_565 S
C721 C715 1.491 1_444 S
C721 C720 1.400 1_545 S
C721 C722 1.398 . S
C722 H710 0.950 . S
C722 C721 1.398 . S
C722 C723 1.391 . S
C723 H711 0.950 . S
C723 C719 1.393 . S
C723 C722 1.391 . S
H724 C732 0.950 . S
H725 C737 0.950 . S
H726 C734 0.950 . S
H727 C736 0.950 . S
H728 C738 0.950 . S
H729 C740 0.950 . S
H730 C742 0.950 . S
H731 C743 0.950 . S
C732 H724 0.950 . S
C732 C733 1.386 1_565 S
C732 C734 1.391 . S
C733 C732 1.386 1_545 S
C733 C737 1.393 . S
C734 H726 0.950 . S
C734 C732 1.391 . S
C734 C735 1.400 1_565 S
C735 C734 1.400 1_545 S
C735 C736 1.398 . S
C735 C741 1.491 1_546 S
C736 H727 0.950 . S
C736 C735 1.398 . S
C736 C737 1.391 . S
C737 H725 0.950 . S
C737 C733 1.393 . S
C737 C736 1.391 . S
C738 H728 0.950 . S
C738 C739 1.386 1_545 S
C738 C740 1.391 . S
C739 C738 1.386 1_565 S
C739 C743 1.393 . S
C740 H729 0.950 . S
C740 C738 1.391 . S
C740 C741 1.400 1_545 S
C741 C735 1.491 1_564 S
C741 C740 1.400 1_565 S
C741 C742 1.398 . S
C742 H730 0.950 . S
C742 C741 1.398 . S
C742 C743 1.391 . S
C743 H731 0.950 . S
C743 C739 1.393 . S
C743 C742 1.391 . S
H744 C752 0.950 . S
H745 C757 0.950 . S
H746 C754 0.950 . S
H747 C756 0.950 . S
H748 C758 0.950 . S
H749 C760 0.950 . S
H750 C762 0.950 . S
H751 C763 0.950 . S
C752 H744 0.950 . S
C752 C753 1.386 . S
C752 C754 1.391 . S
C753 C752 1.386 . S
C753 C757 1.393 1_545 S
C754 H746 0.950 . S
C754 C752 1.391 . S
C754 C755 1.400 . S
C755 C754 1.400 . S
C755 C756 1.398 1_545 S
C755 C761 1.491 1_545 S
C756 H747 0.950 . S
C756 C755 1.398 1_565 S
C756 C757 1.391 . S
C757 H745 0.950 . S
C757 C753 1.393 1_565 S
C757 C756 1.391 . S
C758 H748 0.950 . S
C758 C759 1.386 . S
C758 C760 1.391 . S
C759 C758 1.386 . S
C759 C763 1.393 1_565 S
C760 H749 0.950 . S
C760 C758 1.391 . S
C760 C761 1.400 . S
C761 C755 1.491 1_565 S
C761 C760 1.400 . S
C761 C762 1.398 1_565 S
C762 H750 0.950 . S
C762 C761 1.398 1_545 S
C762 C763 1.391 . S
C763 H751 0.950 . S
C763 C759 1.393 1_545 S
C763 C762 1.391 . S
H764 C772 0.950 . S
H765 C777 0.950 . S
H766 C774 0.946 1_655 S
H767 C776 0.950 . S
H768 C778 0.950 . S
H769 C780 0.946 1_455 S
H770 C782 0.950 . S
H771 C783 0.950 . S
C772 H764 0.950 . S
C772 C773 1.386 1_545 S
C772 C774 1.394 . S
C773 C772 1.386 1_565 S
C773 C777 1.393 . S
C774 H766 0.946 1_455 S
C774 C772 1.394 . S
C774 C775 1.402 1_545 S
C775 C774 1.402 1_565 S
C775 C776 1.398 . S
C775 C781 1.491 1_465 S
C776 H767 0.950 . S
C776 C775 1.398 . S
C776 C777 1.391 . S
C777 H765 0.950 . S
C777 C773 1.393 . S
C777 C776 1.391 . S
C778 H768 0.950 . S
C778 C779 1.386 1_565 S
C778 C780 1.394 . S
C779 C778 1.386 1_545 S
C779 C783 1.393 . S
C780 H769 0.946 1_655 S
C780 C778 1.394 . S
C780 C781 1.402 1_565 S
C781 C775 1.491 1_645 S
C781 C780 1.402 1_545 S
C781 C782 1.398 . S
C782 H770 0.950 . S
C782 C781 1.398 . S
C782 C783 1.391 . S
C783 H771 0.950 . S
C783 C779 1.393 . S
C783 C782 1.391 . S
H784 C792 0.950 . S
H785 C797 0.950 . S
H786 C794 0.950 . S
H787 C796 0.950 . S
H788 C798 0.950 . S
H789 C800 0.950 . S
H790 C802 0.950 . S
H791 C803 0.950 . S
C792 H784 0.950 . S
C792 C793 1.386 . S
C792 C794 1.391 . S
C793 C792 1.386 . S
C793 C797 1.393 . S
C794 H786 0.950 . S
C794 C792 1.391 . S
C794 C795 1.400 . S
C795 C794 1.400 . S
C795 C796 1.398 . S
C795 C801 1.491 1_554 S
C796 H787 0.950 . S
C796 C795 1.398 . S
C796 C797 1.391 . S
C797 H785 0.950 . S
C797 C793 1.393 . S
C797 C796 1.391 . S
C798 H788 0.950 . S
C798 C799 1.386 . S
C798 C800 1.391 . S
C799 C798 1.386 . S
C799 C803 1.393 . S
C800 H789 0.950 . S
C800 C798 1.391 . S
C800 C801 1.400 . S
C801 C795 1.491 1_556 S
C801 C800 1.400 . S
C801 C802 1.398 . S
C802 H790 0.950 . S
C802 C801 1.398 . S
C802 C803 1.391 . S
C803 H791 0.950 . S
C803 C799 1.393 . S
C803 C802 1.391 . S
H804 C812 0.950 . S
H805 C817 0.950 . S
H806 C814 0.950 . S
H807 C816 0.950 . S
H808 C818 0.950 . S
H809 C820 0.950 . S
H810 C822 0.950 . S
H811 C823 0.950 . S
C812 H804 0.950 . S
C812 C813 1.386 1_455 S
C812 C814 1.391 . S
C813 C812 1.386 1_655 S
C813 C817 1.393 . S
C814 H806 0.950 . S
C814 C812 1.391 . S
C814 C815 1.400 1_455 S
C815 C814 1.400 1_655 S
C815 C816 1.398 . S
C815 C821 1.491 1_654 S
C816 H807 0.950 . S
C816 C815 1.398 . S
C816 C817 1.391 . S
C817 H805 0.950 . S
C817 C813 1.393 . S
C817 C816 1.391 . S
C818 H808 0.950 . S
C818 C819 1.386 1_655 S
C818 C820 1.391 . S
C819 C818 1.386 1_455 S
C819 C823 1.393 . S
C820 H809 0.950 . S
C820 C818 1.391 . S
C820 C821 1.400 1_655 S
C821 C815 1.491 1_456 S
C821 C820 1.400 1_455 S
C821 C822 1.398 . S
C822 H810 0.950 . S
C822 C821 1.398 . S
C822 C823 1.391 . S
C823 H811 0.950 . S
C823 C819 1.393 . S
C823 C822 1.391 . S
H824 C832 0.950 . S
H825 C837 0.950 . S
H826 C834 0.950 . S
H827 C836 0.950 . S
H828 C838 0.950 . S
H829 C840 0.950 . S
H830 C842 0.950 . S
H831 C843 0.950 . S
C832 H824 0.950 . S
C832 C833 1.386 1_455 S
C832 C834 1.391 . S
C833 C832 1.386 1_655 S
C833 C837 1.393 . S
C834 H826 0.950 . S
C834 C832 1.391 . S
C834 C835 1.400 1_455 S
C835 C834 1.400 1_655 S
C835 C836 1.398 . S
C835 C841 1.491 1_655 S
C836 H827 0.950 . S
C836 C835 1.398 . S
C836 C837 1.391 . S
C837 H825 0.950 . S
C837 C833 1.393 . S
C837 C836 1.391 . S
C838 H828 0.950 . S
C838 C839 1.386 1_655 S
C838 C840 1.391 . S
C839 C838 1.386 1_455 S
C839 C843 1.393 . S
C840 H829 0.950 . S
C840 C838 1.391 . S
C840 C841 1.400 1_655 S
C841 C835 1.491 1_455 S
C841 C840 1.400 1_455 S
C841 C842 1.398 . S
C842 H830 0.950 . S
C842 C841 1.398 . S
C842 C843 1.391 . S
C843 H831 0.950 . S
C843 C839 1.393 . S
C843 C842 1.391 . S
H844 C852 0.950 . S
H845 C857 0.950 . S
H846 C854 0.950 . S
H847 C856 0.950 . S
H848 C858 0.950 . S
H849 C860 0.950 . S
H850 C862 0.950 . S
H851 C863 0.950 . S
C852 H844 0.950 . S
C852 C853 1.386 . S
C852 C854 1.391 . S
C853 C852 1.386 . S
C853 C857 1.393 . S
C854 H846 0.950 . S
C854 C852 1.391 . S
C854 C855 1.400 . S
C855 C854 1.400 . S
C855 C856 1.398 . S
C855 C861 1.491 . S
C856 H847 0.950 . S
C856 C855 1.398 . S
C856 C857 1.391 . S
C857 H845 0.950 . S
C857 C853 1.393 . S
C857 C856 1.391 . S
C858 H848 0.950 . S
C858 C859 1.386 . S
C858 C860 1.391 . S
C859 C858 1.386 . S
C859 C863 1.393 . S
C860 H849 0.950 . S
C860 C858 1.391 . S
C860 C861 1.400 . S
C861 C855 1.491 . S
C861 C860 1.400 . S
C861 C862 1.398 . S
C862 H850 0.950 . S
C862 C861 1.398 . S
C862 C863 1.391 . S
C863 H851 0.950 . S
C863 C859 1.393 . S
C863 C862 1.391 . S
C233 C25 1.494 . S
C239 C11 1.488 . S
C253 C39 1.494 . S
C259 C53 1.489 . S
C273 C67 1.486 . S
C279 C81 1.494 . S
C293 C109 1.493 . S
C299 C95 1.491 . S
C313 C137 1.489 . S
C319 C123 1.483 . S
C333 C165 1.494 . S
C339 C151 1.486 . S
C353 C193 1.489 . S
C359 C179 1.483 . S
C373 C221 1.494 . S
C379 C207 1.489 . S
C393 C49 1.200 . S
C399 C7 1.207 . S
C413 C21 1.209 . S
C419 C35 1.199 . S
C433 C105 1.200 . S
C439 C63 1.211 . S
C453 C91 1.201 . S
C459 C77 1.210 . S
C473 C119 1.210 . S
C479 C161 1.202 . S
C493 C147 1.201 . S
C499 C133 1.210 . S
C513 C217 1.210 . S
C519 C175 1.201 . S
C533 C189 1.201 . S
C539 C203 1.210 . S
C553 C8 1.461 . S
C559 C134 1.451 . S
C573 C22 1.448 . S
C579 C120 1.445 . S
C593 C162 1.448 . S
C599 C36 1.457 . S
C613 C148 1.473 . S
C619 C50 1.467 . S
C633 C190 1.456 . S
C639 C64 1.466 . S
C653 C176 1.467 . S
C659 C78 1.473 . S
C673 C92 1.463 . S
C679 C218 1.471 . S
C693 C106 1.450 . S
C699 C204 1.459 . S
C713 C69 1.153 . S
C719 C13 1.153 . S
C733 C83 1.140 . S
C739 C27 1.140 . S
C753 C97 1.133 . S
C759 C41 1.133 . S
C773 C111 1.154 . S
C779 C55 1.154 . S
C793 C125 1.151 . S
C799 C181 1.151 . S
C813 C139 1.124 . S
C819 C195 1.124 . S
C833 C209 1.139 . S
C839 C153 1.139 . S
C853 C223 1.138 . S
C859 C167 1.138 . S
