# Generated by pormake.
# Topology mok, (4)-cn, num edge types: 1
# Building blocks:
#     Node 0, Type 0, BuildingBlock: KUFVIS_clean_sbu_0, # of connection points: 4
#     Node 1, Type 0, BuildingBlock: KUFVIS_clean_sbu_0, # of connection points: 4
#     Node 2, Type 0, BuildingBlock: KUFVIS_clean_sbu_0, # of connection points: 4
#     Node 3, Type 0, BuildingBlock: KUFVIS_clean_sbu_0, # of connection points: 4
#     Node 4, Type 0, BuildingBlock: KUFVIS_clean_sbu_0, # of connection points: 4
#     Node 5, Type 0, BuildingBlock: KUFVIS_clean_sbu_0, # of connection points: 4
#     Node 6, Type 0, BuildingBlock: KUFVIS_clean_sbu_0, # of connection points: 4
#     Node 7, Type 0, BuildingBlock: KUFVIS_clean_sbu_0, # of connection points: 4
#     Edge 8, Type (0, 0), BuildingBlock: TEMPAE_clean_linker_10, # of connection points: 2
#     Edge 9, Type (0, 0), BuildingBlock: TEMPAE_clean_linker_10, # of connection points: 2
#     Edge 10, Type (0, 0), BuildingBlock: TEMPAE_clean_linker_10, # of connection points: 2
#     Edge 11, Type (0, 0), BuildingBlock: TEMPAE_clean_linker_10, # of connection points: 2
#     Edge 12, Type (0, 0), BuildingBlock: TEMPAE_clean_linker_10, # of connection points: 2
#     Edge 13, Type (0, 0), BuildingBlock: TEMPAE_clean_linker_10, # of connection points: 2
#     Edge 14, Type (0, 0), BuildingBlock: TEMPAE_clean_linker_10, # of connection points: 2
#     Edge 15, Type (0, 0), BuildingBlock: TEMPAE_clean_linker_10, # of connection points: 2
#     Edge 16, Type (0, 0), BuildingBlock: TEMPAE_clean_linker_10, # of connection points: 2
#     Edge 17, Type (0, 0), BuildingBlock: TEMPAE_clean_linker_10, # of connection points: 2
#     Edge 18, Type (0, 0), BuildingBlock: TEMPAE_clean_linker_10, # of connection points: 2
#     Edge 19, Type (0, 0), BuildingBlock: TEMPAE_clean_linker_10, # of connection points: 2
#     Edge 20, Type (0, 0), BuildingBlock: TEMPAE_clean_linker_10, # of connection points: 2
#     Edge 21, Type (0, 0), BuildingBlock: TEMPAE_clean_linker_10, # of connection points: 2
#     Edge 22, Type (0, 0), BuildingBlock: TEMPAE_clean_linker_10, # of connection points: 2
#     Edge 23, Type (0, 0), BuildingBlock: TEMPAE_clean_linker_10, # of connection points: 2
# Relax obj value: 0.032
# Max RMSD: 0.055
# Mean RMSD: 0.055
data_MOF--net-mok--node1-KUFVIS_clean_sbu_0--edge1-TEMPAE_clean_linker_10
_symmetry_space_group_name_H-M    P1
_symmetry_Int_Tables_number       1
_symmetry_cell_setting            triclinic
loop_
_symmetry_equiv_pos_as_xyz
'x, y, z'
_cell_length_a     53.626646
_cell_length_b     16.646951
_cell_length_c     26.875329
_cell_angle_alpha  90.012286
_cell_angle_beta   90.051839
_cell_angle_gamma 89.955391
loop_
_atom_site_label
_atom_site_type_symbol
_atom_site_fract_x
_atom_site_fract_y
_atom_site_fract_z
_atom_type_partial_charge
Mn0 Mn 0.62434 0.30019 0.99246 0.0
Mn1 Mn 0.57313 0.41552 0.97785 0.0
C2 C 0.61329 0.34505 0.9138 0.0
C3 C 0.66718 0.2899 0.00861 0.0
C4 C 0.57097 0.2358 -0.00233 0.0
O5 O 0.61722 0.34096 0.06274 0.0
O6 O 0.5861 0.42798 0.04617 0.0
C7 C 0.59379 0.57933 0.9894 0.0
N8 N 0.58144 0.52386 0.96145 0.0
C9 C 0.56899 0.62434 0.90213 0.0
C10 C 0.58156 0.68264 0.93023 0.0
C11 C 0.59427 0.65982 0.97375 0.0
C12 C 0.5699 0.54469 0.91867 0.0
H13 H 0.60286 0.56248 0.02375 0.0
C14 C 0.60213 0.39667 0.07566 0.0
O15 O 0.65218 0.23016 0.01698 0.0
O16 O 0.65721 0.35573 0.99226 0.0
N17 N 0.55894 0.40983 0.9128 0.0
C18 C 0.54762 0.34638 0.89011 0.0
C19 C 0.53597 0.35773 0.8439 0.0
C20 C 0.53508 0.4348 0.82276 0.0
C21 C 0.54574 0.49985 0.84799 0.0
C22 C 0.55821 0.48415 0.89264 0.0
H23 H 0.54773 0.28743 0.9068 0.0
O24 O 0.62764 0.28279 0.91909 0.0
O25 O 0.60587 0.37898 0.95465 0.0
O26 O 0.5944 0.2222 0.99551 0.0
O27 O 0.56163 0.30601 0.99408 0.0
C28 C 0.544 0.57982 0.83125 0.0
C29 C 0.55525 0.64226 0.85882 0.0
H30 H 0.58152 0.74506 0.91885 0.0
H31 H 0.60396 0.70447 0.99574 0.0
H32 H 0.52736 0.30751 0.82497 0.0
H33 H 0.52575 0.44341 0.78755 0.0
H34 H 0.53412 0.59401 0.79718 0.0
H35 H 0.55381 0.70355 0.84559 0.0
Mn36 Mn 0.39507 0.70047 0.00956 0.0
Mn37 Mn 0.44868 0.59817 0.99067 0.0
C38 C 0.40269 0.64846 0.93059 0.0
C39 C 0.35292 0.70819 0.03181 0.0
C40 C 0.44645 0.77933 0.00178 0.0
O41 O 0.40557 0.66856 0.07971 0.0
O42 O 0.4396 0.59473 0.06208 0.0
C43 C 0.43614 0.43111 0.01902 0.0
N44 N 0.44482 0.48459 0.98483 0.0
C45 C 0.46026 0.37798 0.9328 0.0
C46 C 0.45156 0.32169 0.96749 0.0
C47 C 0.43931 0.34841 0.01065 0.0
C48 C 0.45668 0.45952 0.94328 0.0
H49 H 0.4272 0.45144 0.05275 0.0
C50 C 0.42349 0.62254 0.09269 0.0
O51 O 0.36766 0.76958 0.03587 0.0
O52 O 0.36282 0.64142 0.01657 0.0
N53 N 0.45943 0.5952 0.92324 0.0
C54 C 0.46451 0.65732 0.89196 0.0
C55 C 0.47456 0.64101 0.84489 0.0
C56 C 0.47938 0.56125 0.83089 0.0
C57 C 0.47384 0.49821 0.86369 0.0
C58 C 0.46385 0.51821 0.91 0.0
H59 H 0.46103 0.71868 0.90305 0.0
O60 O 0.38854 0.71081 0.93752 0.0
O61 O 0.41334 0.61924 0.97074 0.0
O62 O 0.42289 0.78578 0.00553 0.0
O63 O 0.45747 0.71235 0.9968 0.0
C64 C 0.47746 0.41639 0.85218 0.0
C65 C 0.47138 0.35643 0.88724 0.0
H66 H 0.45387 0.25787 0.96105 0.0
H67 H 0.43253 0.30536 0.03759 0.0
H68 H 0.47884 0.68972 0.81964 0.0
H69 H 0.48755 0.54967 0.79507 0.0
H70 H 0.48442 0.39846 0.81615 0.0
H71 H 0.47419 0.29382 0.87776 0.0
Mn72 Mn 0.62341 0.70074 0.5118 0.0
Mn73 Mn 0.57207 0.58503 0.52156 0.0
C74 C 0.61212 0.64609 0.5879 0.0
C75 C 0.66633 0.71441 0.49808 0.0
C76 C 0.56978 0.76662 0.51344 0.0
O77 O 0.61713 0.6677 0.44003 0.0
O78 O 0.58335 0.58964 0.45149 0.0
C79 C 0.59282 0.42651 0.49294 0.0
N80 N 0.58061 0.47387 0.52632 0.0
C81 C 0.56908 0.35929 0.57571 0.0
C82 C 0.58153 0.30918 0.54192 0.0
C83 C 0.59368 0.34307 0.50063 0.0
C84 C 0.56944 0.44209 0.5668 0.0
H85 H 0.60153 0.45209 0.46038 0.0
C86 C 0.60026 0.62036 0.42382 0.0
O87 O 0.65115 0.77432 0.49145 0.0
O88 O 0.65653 0.6466 0.51131 0.0
N89 N 0.55953 0.57386 0.5875 0.0
C90 C 0.55083 0.63139 0.61904 0.0
C91 C 0.54033 0.60836 0.66457 0.0
C92 C 0.53784 0.52646 0.67594 0.0
C93 C 0.5465 0.46831 0.64237 0.0
C94 C 0.55826 0.49514 0.59918 0.0
H95 H 0.55258 0.69426 0.61008 0.0
O96 O 0.62583 0.71026 0.58586 0.0
O97 O 0.6051 0.61644 0.54551 0.0
O98 O 0.59325 0.77863 0.50994 0.0
O99 O 0.56029 0.69688 0.51789 0.0
C100 C 0.54435 0.3849 0.65034 0.0
C101 C 0.55596 0.3304 0.61744 0.0
H102 H 0.58182 0.24467 0.54723 0.0
H103 H 0.60328 0.30481 0.4743 0.0
H104 H 0.53394 0.6535 0.6906 0.0
H105 H 0.52962 0.50914 0.71095 0.0
H106 H 0.53451 0.3621 0.68256 0.0
H107 H 0.55486 0.26655 0.6248 0.0
Mn108 Mn 0.39549 0.30763 0.52123 0.0
Mn109 Mn 0.44861 0.41137 0.54267 0.0
C110 C 0.40338 0.35438 0.60159 0.0
C111 C 0.35306 0.29841 0.50072 0.0
C112 C 0.44756 0.23121 0.52791 0.0
O113 O 0.40489 0.34621 0.45208 0.0
O114 O 0.43961 0.41574 0.47095 0.0
C115 C 0.43474 0.57821 0.51593 0.0
N116 N 0.44431 0.52464 0.54912 0.0
C117 C 0.46058 0.63091 0.60045 0.0
C118 C 0.45082 0.68733 0.56692 0.0
C119 C 0.43772 0.66086 0.52465 0.0
C120 C 0.4569 0.54949 0.58993 0.0
H121 H 0.42518 0.55796 0.48285 0.0
C122 C 0.42315 0.3912 0.43992 0.0
O123 O 0.36822 0.23869 0.49391 0.0
O124 O 0.36267 0.36449 0.51767 0.0
N125 N 0.45947 0.41391 0.60997 0.0
C126 C 0.46428 0.3517 0.64138 0.0
C127 C 0.47495 0.36757 0.68794 0.0
C128 C 0.48069 0.44695 0.70123 0.0
C129 C 0.47533 0.51019 0.66839 0.0
C130 C 0.46452 0.49063 0.62274 0.0
H131 H 0.45997 0.29068 0.63085 0.0
O132 O 0.38992 0.29097 0.59328 0.0
O133 O 0.41346 0.38745 0.56208 0.0
O134 O 0.42419 0.2243 0.52043 0.0
O135 O 0.45786 0.29808 0.537 0.0
C136 C 0.47993 0.59176 0.67922 0.0
C137 C 0.47296 0.65203 0.6449 0.0
H138 H 0.45285 0.75105 0.57368 0.0
H139 H 0.43013 0.70409 0.49864 0.0
H140 H 0.47901 0.3188 0.71333 0.0
H141 H 0.48932 0.45817 0.73664 0.0
H142 H 0.4885 0.60905 0.71407 0.0
H143 H 0.4762 0.71448 0.65411 0.0
Mn144 Mn 0.12514 0.80834 0.0108 0.0
Mn145 Mn 0.07229 0.91251 0.98819 0.0
C146 C 0.11823 0.85863 0.93097 0.0
C147 C 0.16727 0.79878 0.0331 0.0
C148 C 0.07329 0.73177 0.00061 0.0
O149 O 0.1147 0.84408 0.07999 0.0
O150 O 0.08023 0.91486 0.06055 0.0
C151 C 0.08548 0.07868 0.01757 0.0
N152 N 0.07677 0.02587 0.98301 0.0
C153 C 0.06272 0.13343 0.93011 0.0
C154 C 0.0716 0.18905 0.96508 0.0
C155 C 0.08314 0.16155 0.00887 0.0
C156 C 0.06561 0.05173 0.9408 0.0
H157 H 0.09391 0.05771 0.05169 0.0
C158 C 0.09632 0.88885 0.09198 0.0
O159 O 0.15216 0.73858 0.03831 0.0
O160 O 0.15774 0.8655 0.01693 0.0
N161 N 0.06278 0.91649 0.92009 0.0
C162 C 0.05882 0.85485 0.88778 0.0
C163 C 0.05014 0.87178 0.83976 0.0
C164 C 0.0455 0.95165 0.82592 0.0
C165 C 0.0498 0.0142 0.85983 0.0
C166 C 0.05872 0.99361 0.9069 0.0
H167 H 0.06252 0.79351 0.89853 0.0
O168 O 0.13172 0.795 0.93867 0.0
O169 O 0.10764 0.88952 0.97058 0.0
O170 O 0.0966 0.72473 0.00874 0.0
O171 O 0.06298 0.79896 0.99222 0.0
C172 C 0.0462 0.0961 0.84856 0.0
C173 C 0.05218 0.15563 0.88402 0.0
H174 H 0.07011 0.25294 0.9583 0.0
H175 H 0.09007 0.20415 0.03597 0.0
H176 H 0.04697 0.82355 0.8135 0.0
H177 H 0.03887 0.9638 0.78902 0.0
H178 H 0.03931 0.11427 0.81245 0.0
H179 H 0.04979 0.2183 0.87442 0.0
Mn180 Mn 0.89721 0.2049 0.99593 0.0
Mn181 Mn 0.94774 0.08576 0.98238 0.0
C182 C 0.90881 0.15876 0.91775 0.0
C183 C 0.85427 0.21981 0.00943 0.0
C184 C 0.95138 0.26598 -0.00125 0.0
O185 O 0.90272 0.16359 0.06631 0.0
O186 O 0.93569 0.08324 0.0518 0.0
C187 C 0.92422 0.92788 0.00222 0.0
N188 N 0.938 0.97662 0.97226 0.0
C189 C 0.94992 0.86544 0.92032 0.0
C190 C 0.93603 0.8138 0.9508 0.0
C191 C 0.92283 0.84539 0.99152 0.0
C192 C 0.94983 0.94744 0.93181 0.0
H193 H 0.91462 0.95161 0.0343 0.0
C194 C 0.91892 0.11224 0.08044 0.0
O195 O 0.86975 0.27786 0.01889 0.0
O196 O 0.86378 0.15317 0.99332 0.0
N197 N 0.9614 0.07987 0.91691 0.0
C198 C 0.97264 0.13849 0.88967 0.0
C199 C 0.98503 0.11792 0.84551 0.0
C200 C 0.98686 0.0369 0.83137 0.0
C201 C 0.97575 0.97743 0.86077 0.0
C202 C 0.96233 1.00212 0.9026 0.0
H203 H 0.97168 0.20051 0.90105 0.0
O204 O 0.89533 0.22309 0.9224 0.0
O205 O 0.91528 0.12357 0.9588 0.0
O206 O 0.92796 0.27956 0.0019 0.0
O207 O 0.96044 0.19604 0.99158 0.0
C208 C 0.97753 0.8946 0.85042 0.0
C209 C 0.96429 0.8387 0.87969 0.0
H210 H 0.93541 0.74987 0.94334 0.0
H211 H 0.91204 0.806 0.0152 0.0
H212 H 0.99352 0.16419 0.8229 0.0
H213 H 0.99683 0.02103 0.79789 0.0
H214 H 0.98842 0.87349 0.81908 0.0
H215 H 0.96522 0.7754 0.87051 0.0
Mn216 Mn 0.12469 0.20098 0.52153 0.0
Mn217 Mn 0.07133 0.09871 0.54254 0.0
C218 C 0.11702 0.15287 0.60181 0.0
C219 C 0.16707 0.20901 0.50052 0.0
C220 C 0.07293 0.27914 0.52863 0.0
O221 O 0.11483 0.16418 0.45207 0.0
O222 O 0.08032 0.09376 0.47089 0.0
C223 C 0.08445 0.93115 0.51612 0.0
N224 N 0.07509 0.98533 0.54916 0.0
C225 C 0.05812 0.88018 0.60035 0.0
C226 C 0.06767 0.82312 0.56702 0.0
C227 C 0.08101 0.8487 0.52489 0.0
C228 C 0.06224 0.96132 0.58979 0.0
H229 H 0.09415 0.95081 0.4831 0.0
C230 C 0.09662 0.11901 0.43981 0.0
O231 O 0.15209 0.26941 0.49439 0.0
O232 O 0.15729 0.14294 0.51704 0.0
N233 N 0.06039 0.09706 0.6097 0.0
C234 C 0.0557 0.15973 0.64082 0.0
C235 C 0.04442 0.14487 0.68688 0.0
C236 C 0.03808 0.06596 0.70006 0.0
C237 C 0.04358 1.00208 0.66773 0.0
C238 C 0.05482 0.02074 0.6224 0.0
H239 H 0.06045 0.22042 0.63035 0.0
O240 O 0.13065 0.21594 0.59366 0.0
O241 O 0.10662 0.12099 0.56218 0.0
O242 O 0.09635 0.28571 0.52187 0.0
O243 O 0.06247 0.21222 0.53665 0.0
C244 C 0.03863 0.92077 0.67863 0.0
C245 C 0.0455 0.85995 0.64463 0.0
H246 H 0.06526 0.75955 0.57378 0.0
H247 H 0.08842 0.80497 0.49901 0.0
H248 H 0.0403 0.19409 0.71188 0.0
H249 H 0.02875 0.05583 0.73491 0.0
H250 H 0.02984 0.90401 0.71329 0.0
H251 H 0.04197 0.79775 0.65396 0.0
Mn252 Mn 0.896 0.8056 0.51512 0.0
Mn253 Mn 0.94681 0.92411 0.52418 0.0
C254 C 0.90718 0.86124 0.59105 0.0
C255 C 0.85316 0.78936 0.50146 0.0
C256 C 0.95012 0.74272 0.51797 0.0
O257 O 0.90185 0.83799 0.44318 0.0
O258 O 0.93591 0.9146 0.45423 0.0
C259 C 0.92463 0.07861 0.49156 0.0
N260 N 0.9372 0.03463 0.52622 0.0
C261 C 0.94737 0.15334 0.57302 0.0
C262 C 0.93455 0.2 0.53788 0.0
C263 C 0.92289 0.16233 0.49726 0.0
C264 C 0.9478 0.07001 0.56616 0.0
H265 H 0.91629 0.05023 0.45949 0.0
C266 C 0.919 0.88378 0.42665 0.0
O267 O 0.86866 0.73023 0.49504 0.0
O268 O 0.86259 0.85777 0.51462 0.0
N269 N 0.95926 0.94076 0.58975 0.0
C270 C 0.96944 0.88653 0.62173 0.0
C271 C 0.97959 0.9135 0.66675 0.0
C272 C 0.98066 0.9962 0.67676 0.0
C273 C 0.97109 0.05112 0.64217 0.0
C274 C 0.95948 0.02023 0.5998 0.0
H275 H 0.96888 0.82309 0.61381 0.0
O276 O 0.89377 0.79644 0.58918 0.0
O277 O 0.91394 0.89126 0.54858 0.0
O278 O 0.92672 0.72981 0.51325 0.0
O279 O 0.95933 0.8128 0.52312 0.0
C280 C 0.97245 0.13515 0.64805 0.0
C281 C 0.96022 0.18624 0.61397 0.0
H282 H 0.93364 0.26474 0.54159 0.0
H283 H 0.91302 0.19789 0.46988 0.0
H284 H 0.98661 0.87064 0.69359 0.0
H285 H 0.98853 0.01669 0.71143 0.0
H286 H 0.98233 0.1611 0.67932 0.0
H287 H 0.96076 0.25062 0.61967 0.0
C288 C 0.81659 0.28702 0.04634 0.0
C289 C 0.82689 0.22962 0.01417 0.0
C290 C 0.79056 0.29698 0.05 0.0
C291 C 0.77455 0.25023 0.01958 0.0
C292 C 0.78494 0.19229 0.98702 0.0
C293 C 0.81092 0.18192 0.98528 0.0
C294 C 0.78021 0.35777 0.08619 0.0
C295 C 0.76867 0.14274 0.95291 0.0
C296 C 0.7051 0.22471 0.04592 0.0
C297 C 0.69458 0.28243 0.01424 0.0
C298 C 0.73115 0.21583 0.04971 0.0
C299 C 0.747 0.26402 0.01989 0.0
C300 C 0.73641 0.32268 0.98807 0.0
C301 C 0.71038 0.33193 0.98621 0.0
C302 C 0.74171 0.1542 0.08514 0.0
C303 C 0.7525 0.37382 0.95459 0.0
H304 H 0.82887 0.32362 0.06899 0.0
H305 H 0.81879 0.13786 0.96006 0.0
H306 H 0.77057 0.40647 0.0656 0.0
H307 H 0.76618 0.32896 0.11071 0.0
H308 H 0.79499 0.38499 0.10976 0.0
H309 H 0.77967 0.10038 0.9297 0.0
H310 H 0.75501 0.10774 0.97498 0.0
H311 H 0.7579 0.18294 0.92791 0.0
H312 H 0.69295 0.1867 0.06791 0.0
H313 H 0.70235 0.37627 0.96135 0.0
H314 H 0.75597 0.18226 0.1095 0.0
H315 H 0.7511 0.10578 0.06386 0.0
H316 H 0.72707 0.1267 0.10887 0.0
H317 H 0.76636 0.40751 0.97698 0.0
H318 H 0.74138 0.41743 0.93249 0.0
H319 H 0.76303 0.33475 0.92856 0.0
C320 C 0.21112 0.83539 0.01212 0.0
C321 C 0.19449 0.78937 0.04044 0.0
C322 C 0.23693 0.82119 0.01406 0.0
C323 C 0.24645 0.76125 0.04638 0.0
C324 C 0.22978 0.7171 0.07677 0.0
C325 C 0.20395 0.73067 0.07276 0.0
C326 C 0.25392 0.86814 0.98 0.0
C327 C 0.2392 0.65461 0.11289 0.0
C328 C 0.3091 0.66876 0.01225 0.0
C329 C 0.32572 0.71623 0.03973 0.0
C330 C 0.28324 0.68206 0.01459 0.0
C331 C 0.2737 0.74258 0.04645 0.0
C332 C 0.29038 0.78798 0.07616 0.0
C333 C 0.31622 0.77526 0.07176 0.0
C334 C 0.26623 0.63376 0.98124 0.0
C335 C 0.28096 0.85116 0.1118 0.0
H336 H 0.20386 0.8802 0.98666 0.0
H337 H 0.19113 0.69519 0.09485 0.0
H338 H 0.26832 0.9001 0.00201 0.0
H339 H 0.26379 0.82633 0.95457 0.0
H340 H 0.24359 0.91288 0.95724 0.0
H341 H 0.22412 0.63103 0.13713 0.0
H342 H 0.24753 0.60362 0.09216 0.0
H343 H 0.25408 0.68043 0.13674 0.0
H344 H 0.31639 0.62364 0.98704 0.0
H345 H 0.32904 0.81182 0.09324 0.0
H346 H 0.25639 0.67458 0.95512 0.0
H347 H 0.2518 0.60284 0.00368 0.0
H348 H 0.27653 0.58804 0.95923 0.0
H349 H 0.27265 0.90176 0.09066 0.0
H350 H 0.29605 0.87521 0.1359 0.0
H351 H 0.26608 0.82587 0.1358 0.0
C352 C 0.81571 0.72091 0.46481 0.0
C353 C 0.82584 0.77904 0.49666 0.0
C354 C 0.78972 0.7107 0.46087 0.0
C355 C 0.77358 0.75777 0.49082 0.0
C356 C 0.78382 0.81627 0.5232 0.0
C357 C 0.80977 0.82707 0.52507 0.0
C358 C 0.77953 0.64942 0.42481 0.0
C359 C 0.76741 0.86598 0.55696 0.0
C360 C 0.70423 0.7818 0.4627 0.0
C361 C 0.69372 0.72351 0.49388 0.0
C362 C 0.73027 0.79154 0.45978 0.0
C363 C 0.74607 0.7438 0.49011 0.0
C364 C 0.73545 0.68493 0.52168 0.0
C365 C 0.70946 0.67464 0.52253 0.0
C366 C 0.74088 0.85325 0.42454 0.0
C367 C 0.75147 0.6345 0.5558 0.0
H368 H 0.8281 0.6841 0.44254 0.0
H369 H 0.81755 0.87164 0.55007 0.0
H370 H 0.76989 0.60089 0.44547 0.0
H371 H 0.76554 0.67788 0.39996 0.0
H372 H 0.7944 0.62202 0.40157 0.0
H373 H 0.77832 0.9085 0.58024 0.0
H374 H 0.75379 0.90081 0.53461 0.0
H375 H 0.7566 0.82589 0.58188 0.0
H376 H 0.6921 0.8193 0.44025 0.0
H377 H 0.70139 0.62996 0.54703 0.0
H378 H 0.75522 0.82521 0.40037 0.0
H379 H 0.75019 0.90167 0.44595 0.0
H380 H 0.72629 0.88074 0.4006 0.0
H381 H 0.7654 0.60033 0.53387 0.0
H382 H 0.74031 0.59134 0.57808 0.0
H383 H 0.76193 0.67407 0.58168 0.0
C384 C 0.21089 0.17028 0.52125 0.0
C385 C 0.19435 0.21749 0.49334 0.0
C386 C 0.23677 0.18354 0.51932 0.0
C387 C 0.24643 0.24388 0.48753 0.0
C388 C 0.22985 0.28924 0.45754 0.0
C389 C 0.20398 0.27645 0.46144 0.0
C390 C 0.25366 0.13517 0.55288 0.0
C391 C 0.23939 0.35232 0.42201 0.0
C392 C 0.30919 0.33542 0.5221 0.0
C393 C 0.32578 0.2892 0.49371 0.0
C394 C 0.28335 0.32174 0.52009 0.0
C395 C 0.27374 0.26204 0.48772 0.0
C396 C 0.29036 0.21759 0.45735 0.0
C397 C 0.31622 0.23075 0.46133 0.0
C398 C 0.26641 0.36912 0.55407 0.0
C399 C 0.28087 0.15524 0.42122 0.0
H400 H 0.20353 0.12519 0.54634 0.0
H401 H 0.19125 0.31285 0.43962 0.0
H402 H 0.26807 0.1038 0.53058 0.0
H403 H 0.26353 0.17596 0.57895 0.0
H404 H 0.24327 0.0898 0.57495 0.0
H405 H 0.22436 0.37687 0.39794 0.0
H406 H 0.24782 0.40259 0.44323 0.0
H407 H 0.25421 0.32669 0.39796 0.0
H408 H 0.31651 0.38011 0.54756 0.0
H409 H 0.32898 0.19512 0.43915 0.0
H410 H 0.25647 0.32757 0.57953 0.0
H411 H 0.25206 0.40124 0.53199 0.0
H412 H 0.27678 0.41375 0.57679 0.0
H413 H 0.27239 0.10457 0.44194 0.0
H414 H 0.29595 0.13113 0.39712 0.0
H415 H 0.2661 0.18139 0.39722 0.0
C416 C 0.59035 0.50124 0.13781 0.0
C417 C 0.60358 0.43062 0.12654 0.0
C418 C 0.59131 0.53551 0.18526 0.0
C419 C 0.60568 0.49806 0.22272 0.0
C420 C 0.61943 0.42757 0.21168 0.0
C421 C 0.61829 0.39474 0.16355 0.0
C422 C 0.57644 0.61089 0.19555 0.0
C423 C 0.63482 0.38587 0.25101 0.0
C424 C 0.61997 0.61968 0.33896 0.0
C425 C 0.60119 0.59309 0.37135 0.0
C426 C 0.62188 0.58872 0.29047 0.0
C427 C 0.6047 0.52969 0.27426 0.0
C428 C 0.58566 0.50301 0.3066 0.0
C429 C 0.58408 0.53521 0.35455 0.0
C430 C 0.64224 0.61907 0.2566 0.0
C431 C 0.56694 0.44026 0.29061 0.0
H432 H 0.57912 0.53025 0.10948 0.0
H433 H 0.62866 0.34049 0.15516 0.0
H434 H 0.56158 0.59779 0.22305 0.0
H435 H 0.58863 0.65777 0.21195 0.0
H436 H 0.56759 0.63558 0.16142 0.0
H437 H 0.64556 0.33437 0.23574 0.0
H438 H 0.64805 0.42888 0.26827 0.0
H439 H 0.62244 0.36346 0.281 0.0
H440 H 0.63333 0.66404 0.35159 0.0
H441 H 0.56953 0.51375 0.37915 0.0
H442 H 0.6339 0.64662 0.22288 0.0
H443 H 0.65404 0.56823 0.24401 0.0
H444 H 0.65433 0.66431 0.27509 0.0
H445 H 0.55599 0.46266 0.25842 0.0
H446 H 0.55377 0.42412 0.32089 0.0
H447 H 0.57674 0.38499 0.27835 0.0
C448 C 0.40857 0.62357 0.18139 0.0
C449 C 0.42483 0.59375 0.14491 0.0
C450 C 0.40853 0.59152 0.22976 0.0
C451 C 0.42494 0.52764 0.24171 0.0
C452 C 0.44162 0.49808 0.20535 0.0
C453 C 0.44149 0.53178 0.15761 0.0
C454 C 0.39074 0.62532 0.26791 0.0
C455 C 0.45931 0.4297 0.21657 0.0
C456 C 0.4407 0.48607 0.37686 0.0
C457 C 0.42448 0.42244 0.38828 0.0
C458 C 0.44089 0.5212 0.32948 0.0
C459 C 0.42472 0.49139 0.29225 0.0
C460 C 0.40865 0.42621 0.30305 0.0
C461 C 0.40861 0.39278 0.35103 0.0
C462 C 0.45819 0.59095 0.31948 0.0
C463 C 0.39142 0.39204 0.26395 0.0
H464 H 0.39566 0.67139 0.17205 0.0
H465 H 0.45411 0.50786 0.12984 0.0
H466 H 0.37764 0.57783 0.2803 0.0
H467 H 0.40121 0.64572 0.30122 0.0
H468 H 0.37973 0.67665 0.25318 0.0
H469 H 0.47109 0.41363 0.18406 0.0
H470 H 0.47169 0.44598 0.24806 0.0
H471 H 0.44859 0.37579 0.228 0.0
H472 H 0.45296 0.50996 0.40531 0.0
H473 H 0.39603 0.34368 0.3594 0.0
H474 H 0.44725 0.64406 0.30733 0.0
H475 H 0.47118 0.57563 0.28882 0.0
H476 H 0.46933 0.6078 0.35275 0.0
H477 H 0.37838 0.43925 0.25076 0.0
H478 H 0.38034 0.34053 0.27809 0.0
H479 H 0.40238 0.37174 0.23128 0.0
C480 C 0.40637 0.52204 0.87873 0.0
C481 C 0.3994 0.60261 0.88311 0.0
C482 C 0.40398 0.48026 0.83338 0.0
C483 C 0.39139 0.51681 0.79278 0.0
C484 C 0.37996 0.59264 0.80057 0.0
C485 C 0.38537 0.63634 0.84406 0.0
C486 C 0.41522 0.39745 0.82923 0.0
C487 C 0.36106 0.6274 0.76482 0.0
C488 C 0.40759 0.47663 0.65668 0.0
C489 C 0.39992 0.39726 0.6501 0.0
C490 C 0.40544 0.51567 0.70291 0.0
C491 C 0.39194 0.47863 0.74206 0.0
C492 C 0.37998 0.40423 0.73227 0.0
C493 C 0.3854 0.36244 0.68799 0.0
C494 C 0.41798 0.59608 0.70953 0.0
C495 C 0.36025 0.3698 0.76615 0.0
H496 H 0.41319 0.49107 0.91097 0.0
H497 H 0.37758 0.6961 0.84808 0.0
H498 H 0.40104 0.35248 0.81903 0.0
H499 H 0.42982 0.39704 0.79995 0.0
H500 H 0.42315 0.37694 0.86492 0.0
H501 H 0.34271 0.63094 0.78381 0.0
H502 H 0.36627 0.68991 0.75483 0.0
H503 H 0.35866 0.59138 0.73044 0.0
H504 H 0.41485 0.5089 0.62543 0.0
H505 H 0.37711 0.30379 0.68227 0.0
H506 H 0.43216 0.59221 0.73959 0.0
H507 H 0.40447 0.6432 0.71975 0.0
H508 H 0.42679 0.61683 0.67483 0.0
H509 H 0.36487 0.30657 0.77562 0.0
H510 H 0.34221 0.36833 0.74585 0.0
H511 H 0.35753 0.40484 0.80082 0.0
C512 C 0.62919 0.45357 0.85927 0.0
C513 C 0.61322 0.38805 0.86616 0.0
C514 C 0.63106 0.49166 0.81275 0.0
C515 C 0.61494 0.46796 0.77342 0.0
C516 C 0.5989 0.40114 0.78097 0.0
C517 C 0.59928 0.35951 0.82627 0.0
C518 C 0.65014 0.55749 0.80673 0.0
C519 C 0.58014 0.37644 0.74259 0.0
C520 C 0.60397 0.63585 0.6786 0.0
C521 C 0.61113 0.59918 0.63427 0.0
C522 C 0.60466 0.59375 0.72377 0.0
C523 C 0.61418 0.51388 0.72532 0.0
C524 C 0.62292 0.47862 0.68035 0.0
C525 C 0.62044 0.52069 0.63527 0.0
C526 C 0.59548 0.63769 0.76907 0.0
C527 C 0.63621 0.39862 0.6787 0.0
H528 H 0.64086 0.47339 0.88989 0.0
H529 H 0.58795 0.30624 0.83114 0.0
H530 H 0.65534 0.56747 0.76726 0.0
H531 H 0.64255 0.6142 0.82225 0.0
H532 H 0.66732 0.54305 0.82809 0.0
H533 H 0.56869 0.42972 0.73361 0.0
H534 H 0.5895 0.3557 0.7083 0.0
H535 H 0.56767 0.32757 0.75565 0.0
H536 H 0.59741 0.69752 0.67786 0.0
H537 H 0.62704 0.4935 0.60103 0.0
H538 H 0.59404 0.59898 0.80226 0.0
H539 H 0.57698 0.66479 0.76107 0.0
H540 H 0.60836 0.68806 0.77754 0.0
H541 H 0.63935 0.37144 0.71582 0.0
H542 H 0.65462 0.40625 0.6604 0.0
H543 H 0.62541 0.35613 0.65522 0.0
C544 C 0.11041 0.88822 0.18119 0.0
C545 C 0.09452 0.91825 0.14405 0.0
C546 C 0.11023 0.92071 0.22944 0.0
C547 C 0.09397 0.98528 0.2407 0.0
C548 C 0.07762 0.015 0.20371 0.0
C549 C 0.07798 0.98086 0.15601 0.0
C550 C 0.12768 0.88663 0.2682 0.0
C551 C 0.0601 0.08405 0.2142 0.0
C552 C 0.07838 0.02644 0.37603 0.0
C553 C 0.095 0.08886 0.38788 0.0
C554 C 0.07783 0.99238 0.32833 0.0
C555 C 0.09409 0.0219 0.29121 0.0
C556 C 0.1105 0.08605 0.30241 0.0
C557 C 0.11087 0.11851 0.35068 0.0
C558 C 0.06016 0.92372 0.31795 0.0
C559 C 0.12788 0.11982 0.26351 0.0
H560 H 0.12322 0.83985 0.17247 0.0
H561 H 0.06567 0.00494 0.12769 0.0
H562 H 0.14086 0.93378 0.2808 0.0
H563 H 0.11694 0.8669 0.30128 0.0
H564 H 0.1386 0.83478 0.25395 0.0
H565 H 0.04849 0.09993 0.18138 0.0
H566 H 0.04756 0.06866 0.24557 0.0
H567 H 0.07094 0.13781 0.22551 0.0
H568 H 0.06608 1.0026 0.40439 0.0
H569 H 0.12374 0.1667 0.35934 0.0
H570 H 0.07087 0.86979 0.30641 0.0
H571 H 0.04752 0.93951 0.28676 0.0
H572 H 0.04866 0.90793 0.35088 0.0
H573 H 0.14092 0.07237 0.25069 0.0
H574 H 0.13896 0.17131 0.27773 0.0
H575 H 0.11706 0.13997 0.23059 0.0
C576 C 0.93665 0.96369 0.35672 0.0
C577 C 0.91835 0.91025 0.37408 0.0
C578 C 0.93524 0.99703 0.30912 0.0
C579 C 0.91521 0.97576 0.27762 0.0
C580 C 0.8969 0.9207 0.29421 0.0
C581 C 0.89864 0.88866 0.34244 0.0
C582 C 0.95518 0.05544 0.29268 0.0
C583 C 0.8755 0.89595 0.26108 0.0
C584 C 0.90356 0.11607 0.16871 0.0
C585 C 0.91739 0.07827 0.13116 0.0
C586 C 0.9021 0.08234 0.21654 0.0
C587 C 0.91436 0.00863 0.22645 0.0
C588 C 0.92771 0.96922 0.18832 0.0
C589 C 0.92929 0.00489 0.14141 0.0
C590 C 0.88804 0.12651 0.25677 0.0
C591 C 0.94082 0.89009 0.19731 0.0
H592 H 0.95199 0.98104 0.3807 0.0
H593 H 0.88436 0.8478 0.35555 0.0
H594 H 0.96525 0.03101 0.25995 0.0
H595 H 0.94653 0.11306 0.2811 0.0
H596 H 0.969 0.06797 0.32249 0.0
H597 H 0.86277 0.85271 0.27964 0.0
H598 H 0.8646 0.94961 0.24983 0.0
H599 H 0.88278 0.86795 0.22655 0.0
H600 H 0.89426 0.17255 0.16099 0.0
H601 H 0.9398 0.97451 0.11257 0.0
H602 H 0.90118 0.14515 0.28654 0.0
H603 H 0.87403 0.08631 0.27409 0.0
H604 H 0.87839 0.18081 0.24237 0.0
H605 H 0.95636 0.89885 0.22402 0.0
H606 H 0.94853 0.86392 0.16254 0.0
H607 H 0.92777 0.84611 0.2141 0.0
C608 C 0.91941 0.87586 0.67972 0.0
C609 C 0.90816 0.90802 0.63743 0.0
C610 C 0.92051 0.92012 0.72405 0.0
C611 C 0.9076 0.99424 0.72804 0.0
C612 C 0.89455 0.02405 0.68589 0.0
C613 C 0.89595 0.9822 0.64051 0.0
C614 C 0.93737 0.8909 0.76481 0.0
C615 C 0.87902 0.09967 0.68783 0.0
C616 C 0.89491 0.04676 0.86372 0.0
C617 C 0.90923 0.11627 0.86993 0.0
C618 C 0.89297 0.00947 0.81697 0.0
C619 C 0.90738 0.03864 0.77655 0.0
C620 C 0.9218 0.10933 0.7833 0.0
C621 C 0.9217 0.14896 0.82933 0.0
C622 C 0.87519 0.93976 0.81111 0.0
C623 C 0.93874 0.14104 0.74358 0.0
H624 H 0.92855 0.81786 0.67724 0.0
H625 H 0.88655 0.0059 0.6079 0.0
H626 H 0.92772 0.88946 0.80115 0.0
H627 H 0.94523 0.83039 0.75712 0.0
H628 H 0.95294 0.9343 0.76771 0.0
H629 H 0.86212 0.09325 0.6642 0.0
H630 H 0.87304 0.11516 0.72615 0.0
H631 H 0.88997 0.15045 0.67251 0.0
H632 H 0.88442 0.02341 0.89502 0.0
H633 H 0.93217 0.20414 0.83414 0.0
H634 H 0.88539 0.88238 0.81611 0.0
H635 H 0.86649 0.93938 0.77362 0.0
H636 H 0.86015 0.94184 0.83949 0.0
H637 H 0.9562 0.10565 0.74512 0.0
H638 H 0.94358 0.2052 0.74963 0.0
H639 H 0.93051 0.13462 0.70611 0.0
C640 C 0.11611 0.98521 0.87915 0.0
C641 C 0.12184 0.90354 0.88325 0.0
C642 C 0.11859 0.02657 0.83369 0.0
C643 C 0.12985 0.98779 0.79236 0.0
C644 C 0.14015 0.91008 0.79964 0.0
C645 C 0.13478 0.86747 0.84359 0.0
C646 C 0.10904 0.11164 0.83031 0.0
C647 C 0.15779 0.87195 0.76273 0.0
C648 C 0.11206 0.03082 0.65714 0.0
C649 C 0.12075 0.10894 0.65003 0.0
C650 C 0.11434 0.9914 0.70326 0.0
C651 C 0.12907 0.02603 0.74157 0.0
C652 C 0.14194 0.09853 0.73099 0.0
C653 C 0.13639 0.14131 0.68708 0.0
C654 C 0.10046 0.91356 0.71078 0.0
C655 C 0.1628 0.12964 0.76347 0.0
H656 H 0.11005 0.01726 0.91168 0.0
H657 H 0.14164 0.8065 0.84739 0.0
H658 H 0.12433 0.15375 0.82198 0.0
H659 H 0.09496 0.11661 0.80014 0.0
H660 H 0.10098 0.13234 0.86584 0.0
H661 H 0.15129 0.81054 0.75309 0.0
H662 H 0.16022 0.90752 0.7282 0.0
H663 H 0.17636 0.86497 0.78053 0.0
H664 H 0.10392 0.99974 0.62636 0.0
H665 H 0.14545 0.19862 0.68091 0.0
H666 H 0.08619 0.92136 0.7403 0.0
H667 H 0.11299 0.86445 0.72221 0.0
H668 H 0.09148 0.89304 0.67616 0.0
H669 H 0.1593 0.19342 0.7734 0.0
H670 H 0.18043 0.12854 0.74185 0.0
H671 H 0.16568 0.09389 0.79781 0.0
C672 C 0.46096 0.91213 0.96864 0.0
C673 C 0.46244 0.85156 0.00467 0.0
C674 C 0.47852 0.97519 0.96767 0.0
C675 C 0.49753 0.9787 0.00443 0.0
C676 C 0.4984 0.91894 0.04193 0.0
C677 C 0.48115 0.85542 0.041 0.0
C678 C 0.47727 0.0364 0.92631 0.0
C679 C 0.51773 0.92154 0.08278 0.0
C680 C 0.55809 0.09325 0.97991 0.0
C681 C 0.55314 0.16776 0.00218 0.0
C682 C 0.54004 0.03169 0.97967 0.0
C683 C 0.51673 0.04406 0.00349 0.0
C684 C 0.51194 0.11855 0.02712 0.0
C685 C 0.53001 0.17964 0.02557 0.0
C686 C 0.54569 0.95403 0.95292 0.0
C687 C 0.4877 0.13386 0.0541 0.0
H688 H 0.44675 0.90824 0.94002 0.0
H689 H 0.48234 0.8082 0.06871 0.0
H690 H 0.47538 0.09773 0.94198 0.0
H691 H 0.49487 0.03507 0.90462 0.0
H692 H 0.46142 0.02531 0.90059 0.0
H693 H 0.51481 0.87376 0.11103 0.0
H694 H 0.53663 0.91414 0.06668 0.0
H695 H 0.51727 0.9808 0.10168 0.0
H696 H 0.57573 0.0841 0.96108 0.0
H697 H 0.52604 0.23707 0.04288 0.0
H698 H 0.53127 0.94258 0.92414 0.0
H699 H 0.5451 0.90306 0.97945 0.0
H700 H 0.56429 0.95478 0.93474 0.0
H701 H 0.47188 0.13076 0.02758 0.0
H702 H 0.48734 0.19355 0.07258 0.0
H703 H 0.48463 0.08673 0.08265 0.0
C704 C 0.53005 0.83018 0.54204 0.0
C705 C 0.55222 0.83592 0.51445 0.0
C706 C 0.51298 0.89402 0.54422 0.0
C707 C 0.51739 0.96436 0.51607 0.0
C708 C 0.53948 0.97013 0.48719 0.0
C709 C 0.55689 0.90646 0.48751 0.0
C710 C 0.49042 0.88658 0.57748 0.0
C711 C 0.54461 0.04325 0.45566 0.0
C712 C 0.46031 0.0971 0.49236 0.0
C713 C 0.46423 0.15987 0.52623 0.0
C714 C 0.47778 0.03411 0.48764 0.0
C715 C 0.49925 0.03264 0.51862 0.0
C716 C 0.50287 0.0949 0.55376 0.0
C717 C 0.48561 0.15815 0.55648 0.0
C718 C 0.47353 0.96991 0.44892 0.0
C719 C 0.52494 0.09483 0.58876 0.0
H720 H 0.52614 0.77598 0.56285 0.0
H721 H 0.57381 0.91102 0.46568 0.0
H722 H 0.48939 0.93866 0.60319 0.0
H723 H 0.47319 0.887 0.55466 0.0
H724 H 0.49078 0.83068 0.59999 0.0
H725 H 0.56156 0.03592 0.43235 0.0
H726 H 0.52844 0.05558 0.43098 0.0
H727 H 0.54714 0.09665 0.4798 0.0
H728 H 0.44406 0.09874 0.46835 0.0
H729 H 0.48886 0.20652 0.58268 0.0
H730 H 0.47121 0.91067 0.46719 0.0
H731 H 0.49003 0.96547 0.42416 0.0
H732 H 0.45676 0.98207 0.4258 0.0
H733 H 0.52638 0.03616 0.60817 0.0
H734 H 0.52366 0.14315 0.61716 0.0
H735 H 0.5424 0.10346 0.56737 0.0
C736 C 0.03589 0.65861 0.96887 0.0
C737 C 0.05676 0.66009 0.00051 0.0
C738 C 0.01882 0.59475 0.96975 0.0
C739 C 0.02209 0.53149 0.00436 0.0
C740 C 0.04302 0.53279 0.03678 0.0
C741 C 0.06033 0.59645 0.03392 0.0
C742 C 0.99738 0.59481 0.93322 0.0
C743 C 0.04684 0.46767 0.07509 0.0
C744 C 0.96415 0.40352 0.02926 0.0
C745 C 0.96934 0.33417 0.00143 0.0
C746 C 0.98152 0.46703 0.03214 0.0
C747 C 1.00415 0.46257 0.00489 0.0
C748 C 1.00922 0.39322 0.97619 0.0
C749 C 0.99215 0.32932 0.97589 0.0
C750 C 0.97569 0.53882 0.0644 0.0
C751 C 0.03245 0.38724 0.94469 0.0
H752 H 0.03293 0.70761 0.94299 0.0
H753 H 0.07617 0.59787 0.059 0.0
H754 H 0.9976 0.53862 0.91099 0.0
H755 H 0.97939 0.59673 0.95348 0.0
H756 H 0.99809 0.64681 0.90733 0.0
H757 H 0.06317 0.47969 0.09945 0.0
H758 H 0.02995 0.46208 0.09868 0.0
H759 H 0.04967 0.40899 0.05638 0.0
H760 H 0.94674 0.40744 0.04959 0.0
H761 H 0.99652 0.27603 0.95453 0.0
H762 H 0.97344 0.59309 0.0409 0.0
H763 H 0.99141 0.55049 0.09032 0.0
H764 H 0.95838 0.53029 0.08644 0.0
H765 H 0.03353 0.43924 0.91895 0.0
H766 H 0.03293 0.33123 0.92232 0.0
H767 H 0.04925 0.38917 0.96872 0.0
C768 C 0.06067 0.41556 0.49551 0.0
C769 C 0.05636 0.35085 0.52774 0.0
C770 C 0.04327 0.47894 0.49145 0.0
C771 C 0.02145 0.4787 0.5214 0.0
C772 C 0.01747 0.41454 0.55499 0.0
C773 C 0.03468 0.3511 0.55708 0.0
C774 C 0.04795 0.54535 0.45443 0.0
C775 C 0.995 0.41257 0.58887 0.0
C776 C 0.98971 0.6789 0.5476 0.0
C777 C 0.9679 0.67397 0.51875 0.0
C778 C 1.007 0.61558 0.54918 0.0
C779 C 1.0032 0.54675 0.51924 0.0
C780 C 0.98148 0.5419 0.48913 0.0
C781 C 0.96384 0.60487 0.48999 0.0
C782 C 0.02911 0.62167 0.58381 0.0
C783 C 0.97698 0.47044 0.45577 0.0
H784 H 0.07716 0.41519 0.47222 0.0
H785 H 0.0311 0.30131 0.58202 0.0
H786 H 0.03182 0.55076 0.42873 0.0
H787 H 0.04983 0.60361 0.4741 0.0
H788 H 0.06509 0.53487 0.43216 0.0
H789 H 0.99604 0.36289 0.6164 0.0
H790 H 0.99322 0.47022 0.60931 0.0
H791 H 0.97781 0.40469 0.56646 0.0
H792 H 0.99314 0.73197 0.56983 0.0
H793 H 0.94722 0.601 0.46715 0.0
H794 H 0.04668 0.62063 0.5621 0.0
H795 H 0.02951 0.56921 0.60928 0.0
H796 H 0.02865 0.67727 0.60659 0.0
H797 H 0.99348 0.46 0.43171 0.0
H798 H 0.9603 0.47856 0.43174 0.0
H799 H 0.97432 0.41565 0.47861 0.0
loop_
_geom_bond_atom_site_label_1
_geom_bond_atom_site_label_2
_geom_bond_distance
_geom_bond_site_symmetry_2
_ccdc_geom_bond_type
Mn0 O5 2.095 . S
Mn0 O15 2.162 . S
Mn0 O16 2.297 . S
Mn0 O24 2.385 1_554 S
Mn0 O25 2.209 1_554 S
Mn0 O26 2.094 . S
Mn1 O6 2.121 . S
Mn1 N8 2.257 1_554 S
Mn1 N17 2.282 1_554 S
Mn1 O25 2.215 1_554 S
Mn1 O27 2.117 . S
C2 O24 1.234 . S
C2 O25 1.283 . S
C3 O15 1.281 . S
C3 O16 1.236 . S
C4 O26 1.240 . S
C4 O27 1.264 . S
O5 Mn0 2.095 . S
O5 C14 1.250 . S
O6 Mn1 2.121 . S
O6 C14 1.258 . S
C7 N8 1.326 1_554 S
C7 C11 1.460 1_554 S
C7 H13 0.929 . S
N8 Mn1 2.257 1_556 S
N8 C7 1.326 1_556 S
N8 C12 1.362 . S
C9 C10 1.258 . S
C9 C12 1.431 . S
C9 C29 1.449 . S
C10 C9 1.258 . S
C10 C11 1.477 . S
C10 H30 0.931 . S
C11 C7 1.460 1_556 S
C11 C10 1.477 . S
C11 H31 0.930 1_556 S
C12 N8 1.362 . S
C12 C9 1.431 . S
C12 C22 1.476 . S
H13 C7 0.929 . S
C14 O5 1.250 . S
C14 O6 1.258 . S
O15 Mn0 2.162 . S
O15 C3 1.281 . S
O16 Mn0 2.297 . S
O16 C3 1.236 . S
N17 Mn1 2.282 1_556 S
N17 C18 1.328 . S
N17 C22 1.318 . S
C18 N17 1.328 . S
C18 C19 1.457 . S
C18 H23 0.929 . S
C19 C18 1.457 . S
C19 C20 1.291 . S
C19 H32 0.931 . S
C20 C19 1.291 . S
C20 C21 1.373 . S
C20 H33 0.929 . S
C21 C20 1.373 . S
C21 C22 1.396 . S
C21 C28 1.403 . S
C22 C12 1.476 . S
C22 N17 1.318 . S
C22 C21 1.396 . S
H23 C18 0.929 . S
O24 Mn0 2.385 1_556 S
O24 C2 1.234 . S
O25 Mn0 2.209 1_556 S
O25 Mn1 2.215 1_556 S
O25 C2 1.283 . S
O26 Mn0 2.094 . S
O26 C4 1.240 . S
O27 Mn1 2.117 . S
O27 C4 1.264 . S
C28 C21 1.403 . S
C28 C29 1.399 . S
C28 H34 0.929 . S
C29 C9 1.449 . S
C29 C28 1.399 . S
C29 H35 0.930 . S
H30 C10 0.931 . S
H31 C11 0.930 1_554 S
H32 C19 0.931 . S
H33 C20 0.929 . S
H34 C28 0.929 . S
H35 C29 0.930 . S
Mn36 O41 2.095 . S
Mn36 O51 2.162 . S
Mn36 O52 2.297 . S
Mn36 O60 2.385 1_554 S
Mn36 O61 2.209 1_554 S
Mn36 O62 2.094 . S
Mn37 O42 2.121 . S
Mn37 N44 2.257 1_554 S
Mn37 N53 2.282 1_554 S
Mn37 O61 2.215 1_554 S
Mn37 O63 2.117 . S
C38 O60 1.234 . S
C38 O61 1.283 . S
C39 O51 1.281 . S
C39 O52 1.236 . S
C40 O62 1.240 . S
C40 O63 1.264 . S
O41 Mn36 2.095 . S
O41 C50 1.250 . S
O42 Mn37 2.121 . S
O42 C50 1.258 . S
C43 N44 1.326 1_554 S
C43 C47 1.460 1_554 S
C43 H49 0.929 . S
N44 Mn37 2.257 1_556 S
N44 C43 1.326 1_556 S
N44 C48 1.362 . S
C45 C46 1.258 . S
C45 C48 1.431 . S
C45 C65 1.449 . S
C46 C45 1.258 . S
C46 C47 1.477 . S
C46 H66 0.931 . S
C47 C43 1.460 1_556 S
C47 C46 1.477 . S
C47 H67 0.930 1_556 S
C48 N44 1.362 . S
C48 C45 1.431 . S
C48 C58 1.476 . S
H49 C43 0.929 . S
C50 O41 1.250 . S
C50 O42 1.258 . S
O51 Mn36 2.162 . S
O51 C39 1.281 . S
O52 Mn36 2.297 . S
O52 C39 1.236 . S
N53 Mn37 2.282 1_556 S
N53 C54 1.328 . S
N53 C58 1.318 . S
C54 N53 1.328 . S
C54 C55 1.457 . S
C54 H59 0.929 . S
C55 C54 1.457 . S
C55 C56 1.291 . S
C55 H68 0.931 . S
C56 C55 1.291 . S
C56 C57 1.373 . S
C56 H69 0.929 . S
C57 C56 1.373 . S
C57 C58 1.396 . S
C57 C64 1.403 . S
C58 C48 1.476 . S
C58 N53 1.318 . S
C58 C57 1.396 . S
H59 C54 0.929 . S
O60 Mn36 2.385 1_556 S
O60 C38 1.234 . S
O61 Mn36 2.209 1_556 S
O61 Mn37 2.215 1_556 S
O61 C38 1.283 . S
O62 Mn36 2.094 . S
O62 C40 1.240 . S
O63 Mn37 2.117 . S
O63 C40 1.264 . S
C64 C57 1.403 . S
C64 C65 1.399 . S
C64 H70 0.929 . S
C65 C45 1.449 . S
C65 C64 1.399 . S
C65 H71 0.930 . S
H66 C46 0.931 . S
H67 C47 0.930 1_554 S
H68 C55 0.931 . S
H69 C56 0.929 . S
H70 C64 0.929 . S
H71 C65 0.930 . S
Mn72 O77 2.095 . S
Mn72 O87 2.162 . S
Mn72 O88 2.297 . S
Mn72 O96 2.385 . S
Mn72 O97 2.209 . S
Mn72 O98 2.094 . S
Mn73 O78 2.121 . S
Mn73 N80 2.257 . S
Mn73 N89 2.282 . S
Mn73 O97 2.215 . S
Mn73 O99 2.117 . S
C74 O96 1.234 . S
C74 O97 1.283 . S
C75 O87 1.281 . S
C75 O88 1.236 . S
C76 O98 1.240 . S
C76 O99 1.264 . S
O77 Mn72 2.095 . S
O77 C86 1.250 . S
O78 Mn73 2.121 . S
O78 C86 1.258 . S
C79 N80 1.326 . S
C79 C83 1.460 . S
C79 H85 0.929 . S
N80 Mn73 2.257 . S
N80 C79 1.326 . S
N80 C84 1.362 . S
C81 C82 1.258 . S
C81 C84 1.431 . S
C81 C101 1.449 . S
C82 C81 1.258 . S
C82 C83 1.477 . S
C82 H102 0.931 . S
C83 C79 1.460 . S
C83 C82 1.477 . S
C83 H103 0.930 . S
C84 N80 1.362 . S
C84 C81 1.431 . S
C84 C94 1.476 . S
H85 C79 0.929 . S
C86 O77 1.250 . S
C86 O78 1.258 . S
O87 Mn72 2.162 . S
O87 C75 1.281 . S
O88 Mn72 2.297 . S
O88 C75 1.236 . S
N89 Mn73 2.282 . S
N89 C90 1.328 . S
N89 C94 1.318 . S
C90 N89 1.328 . S
C90 C91 1.457 . S
C90 H95 0.929 . S
C91 C90 1.457 . S
C91 C92 1.291 . S
C91 H104 0.931 . S
C92 C91 1.291 . S
C92 C93 1.373 . S
C92 H105 0.929 . S
C93 C92 1.373 . S
C93 C94 1.396 . S
C93 C100 1.403 . S
C94 C84 1.476 . S
C94 N89 1.318 . S
C94 C93 1.396 . S
H95 C90 0.929 . S
O96 Mn72 2.385 . S
O96 C74 1.234 . S
O97 Mn72 2.209 . S
O97 Mn73 2.215 . S
O97 C74 1.283 . S
O98 Mn72 2.094 . S
O98 C76 1.240 . S
O99 Mn73 2.117 . S
O99 C76 1.264 . S
C100 C93 1.403 . S
C100 C101 1.399 . S
C100 H106 0.929 . S
C101 C81 1.449 . S
C101 C100 1.399 . S
C101 H107 0.930 . S
H102 C82 0.931 . S
H103 C83 0.930 . S
H104 C91 0.931 . S
H105 C92 0.929 . S
H106 C100 0.929 . S
H107 C101 0.930 . S
Mn108 O113 2.095 . S
Mn108 O123 2.162 . S
Mn108 O124 2.297 . S
Mn108 O132 2.385 . S
Mn108 O133 2.209 . S
Mn108 O134 2.094 . S
Mn109 O114 2.121 . S
Mn109 N116 2.257 . S
Mn109 N125 2.282 . S
Mn109 O133 2.215 . S
Mn109 O135 2.117 . S
C110 O132 1.234 . S
C110 O133 1.283 . S
C111 O123 1.281 . S
C111 O124 1.236 . S
C112 O134 1.240 . S
C112 O135 1.264 . S
O113 Mn108 2.095 . S
O113 C122 1.250 . S
O114 Mn109 2.121 . S
O114 C122 1.258 . S
C115 N116 1.326 . S
C115 C119 1.460 . S
C115 H121 0.929 . S
N116 Mn109 2.257 . S
N116 C115 1.326 . S
N116 C120 1.362 . S
C117 C118 1.258 . S
C117 C120 1.431 . S
C117 C137 1.449 . S
C118 C117 1.258 . S
C118 C119 1.477 . S
C118 H138 0.931 . S
C119 C115 1.460 . S
C119 C118 1.477 . S
C119 H139 0.930 . S
C120 N116 1.362 . S
C120 C117 1.431 . S
C120 C130 1.476 . S
H121 C115 0.929 . S
C122 O113 1.250 . S
C122 O114 1.258 . S
O123 Mn108 2.162 . S
O123 C111 1.281 . S
O124 Mn108 2.297 . S
O124 C111 1.236 . S
N125 Mn109 2.282 . S
N125 C126 1.328 . S
N125 C130 1.318 . S
C126 N125 1.328 . S
C126 C127 1.457 . S
C126 H131 0.929 . S
C127 C126 1.457 . S
C127 C128 1.291 . S
C127 H140 0.931 . S
C128 C127 1.291 . S
C128 C129 1.373 . S
C128 H141 0.929 . S
C129 C128 1.373 . S
C129 C130 1.396 . S
C129 C136 1.403 . S
C130 C120 1.476 . S
C130 N125 1.318 . S
C130 C129 1.396 . S
H131 C126 0.929 . S
O132 Mn108 2.385 . S
O132 C110 1.234 . S
O133 Mn108 2.209 . S
O133 Mn109 2.215 . S
O133 C110 1.283 . S
O134 Mn108 2.094 . S
O134 C112 1.240 . S
O135 Mn109 2.117 . S
O135 C112 1.264 . S
C136 C129 1.403 . S
C136 C137 1.399 . S
C136 H142 0.929 . S
C137 C117 1.449 . S
C137 C136 1.399 . S
C137 H143 0.930 . S
H138 C118 0.931 . S
H139 C119 0.930 . S
H140 C127 0.931 . S
H141 C128 0.929 . S
H142 C136 0.929 . S
H143 C137 0.930 . S
Mn144 O149 2.095 . S
Mn144 O159 2.162 . S
Mn144 O160 2.297 . S
Mn144 O168 2.385 1_554 S
Mn144 O169 2.209 1_554 S
Mn144 O170 2.094 . S
Mn145 O150 2.121 . S
Mn145 N152 2.257 1_564 S
Mn145 N161 2.282 1_554 S
Mn145 O169 2.215 1_554 S
Mn145 O171 2.117 . S
C146 O168 1.234 . S
C146 O169 1.283 . S
C147 O159 1.281 . S
C147 O160 1.236 . S
C148 O170 1.240 . S
C148 O171 1.264 . S
O149 Mn144 2.095 . S
O149 C158 1.250 . S
O150 Mn145 2.121 . S
O150 C158 1.258 . S
C151 N152 1.326 1_554 S
C151 C155 1.460 1_554 S
C151 H157 0.929 . S
N152 Mn145 2.257 1_546 S
N152 C151 1.326 1_556 S
N152 C156 1.362 . S
C153 C154 1.258 . S
C153 C156 1.431 . S
C153 C173 1.449 . S
C154 C153 1.258 . S
C154 C155 1.477 . S
C154 H174 0.931 . S
C155 C151 1.460 1_556 S
C155 C154 1.477 . S
C155 H175 0.930 1_556 S
C156 N152 1.362 . S
C156 C153 1.431 . S
C156 C166 1.476 1_545 S
H157 C151 0.929 . S
C158 O149 1.250 . S
C158 O150 1.258 . S
O159 Mn144 2.162 . S
O159 C147 1.281 . S
O160 Mn144 2.297 . S
O160 C147 1.236 . S
N161 Mn145 2.282 1_556 S
N161 C162 1.328 . S
N161 C166 1.318 . S
C162 N161 1.328 . S
C162 C163 1.457 . S
C162 H167 0.929 . S
C163 C162 1.457 . S
C163 C164 1.291 . S
C163 H176 0.931 . S
C164 C163 1.291 . S
C164 C165 1.373 . S
C164 H177 0.929 . S
C165 C164 1.373 . S
C165 C166 1.396 . S
C165 C172 1.403 1_565 S
C166 C156 1.476 1_565 S
C166 N161 1.318 . S
C166 C165 1.396 . S
H167 C162 0.929 . S
O168 Mn144 2.385 1_556 S
O168 C146 1.234 . S
O169 Mn144 2.209 1_556 S
O169 Mn145 2.215 1_556 S
O169 C146 1.283 . S
O170 Mn144 2.094 . S
O170 C148 1.240 . S
O171 Mn145 2.117 . S
O171 C148 1.264 . S
C172 C165 1.403 1_545 S
C172 C173 1.399 . S
C172 H178 0.929 . S
C173 C153 1.449 . S
C173 C172 1.399 . S
C173 H179 0.930 . S
H174 C154 0.931 . S
H175 C155 0.930 1_554 S
H176 C163 0.931 . S
H177 C164 0.929 . S
H178 C172 0.929 . S
H179 C173 0.930 . S
Mn180 O185 2.095 . S
Mn180 O195 2.162 . S
Mn180 O196 2.297 . S
Mn180 O204 2.385 1_554 S
Mn180 O205 2.209 1_554 S
Mn180 O206 2.094 . S
Mn181 O186 2.121 . S
Mn181 N188 2.257 1_544 S
Mn181 N197 2.282 1_554 S
Mn181 O205 2.215 1_554 S
Mn181 O207 2.117 . S
C182 O204 1.234 . S
C182 O205 1.283 . S
C183 O195 1.281 . S
C183 O196 1.236 . S
C184 O206 1.240 . S
C184 O207 1.264 . S
O185 Mn180 2.095 . S
O185 C194 1.250 . S
O186 Mn181 2.121 . S
O186 C194 1.258 . S
C187 N188 1.326 1_554 S
C187 C191 1.460 1_554 S
C187 H193 0.929 . S
N188 Mn181 2.257 1_566 S
N188 C187 1.326 1_556 S
N188 C192 1.362 . S
C189 C190 1.258 . S
C189 C192 1.431 . S
C189 C209 1.449 . S
C190 C189 1.258 . S
C190 C191 1.477 . S
C190 H210 0.931 . S
C191 C187 1.460 1_556 S
C191 C190 1.477 . S
C191 H211 0.930 1_556 S
C192 N188 1.362 . S
C192 C189 1.431 . S
C192 C202 1.476 1_565 S
H193 C187 0.929 . S
C194 O185 1.250 . S
C194 O186 1.258 . S
O195 Mn180 2.162 . S
O195 C183 1.281 . S
O196 Mn180 2.297 . S
O196 C183 1.236 . S
N197 Mn181 2.282 1_556 S
N197 C198 1.328 . S
N197 C202 1.318 . S
C198 N197 1.328 . S
C198 C199 1.457 . S
C198 H203 0.929 . S
C199 C198 1.457 . S
C199 C200 1.291 . S
C199 H212 0.931 . S
C200 C199 1.291 . S
C200 C201 1.373 . S
C200 H213 0.929 . S
C201 C200 1.373 . S
C201 C202 1.396 . S
C201 C208 1.403 1_545 S
C202 C192 1.476 1_545 S
C202 N197 1.318 . S
C202 C201 1.396 . S
H203 C198 0.929 . S
O204 Mn180 2.385 1_556 S
O204 C182 1.234 . S
O205 Mn180 2.209 1_556 S
O205 Mn181 2.215 1_556 S
O205 C182 1.283 . S
O206 Mn180 2.094 . S
O206 C184 1.240 . S
O207 Mn181 2.117 . S
O207 C184 1.264 . S
C208 C201 1.403 1_565 S
C208 C209 1.399 . S
C208 H214 0.929 . S
C209 C189 1.449 . S
C209 C208 1.399 . S
C209 H215 0.930 . S
H210 C190 0.931 . S
H211 C191 0.930 1_554 S
H212 C199 0.931 . S
H213 C200 0.929 . S
H214 C208 0.929 . S
H215 C209 0.930 . S
Mn216 O221 2.095 . S
Mn216 O231 2.162 . S
Mn216 O232 2.297 . S
Mn216 O240 2.385 . S
Mn216 O241 2.209 . S
Mn216 O242 2.094 . S
Mn217 O222 2.121 . S
Mn217 N224 2.257 1_545 S
Mn217 N233 2.282 . S
Mn217 O241 2.215 . S
Mn217 O243 2.117 . S
C218 O240 1.234 . S
C218 O241 1.283 . S
C219 O231 1.281 . S
C219 O232 1.236 . S
C220 O242 1.240 . S
C220 O243 1.264 . S
O221 Mn216 2.095 . S
O221 C230 1.250 . S
O222 Mn217 2.121 . S
O222 C230 1.258 . S
C223 N224 1.326 . S
C223 C227 1.460 . S
C223 H229 0.929 . S
N224 Mn217 2.257 1_565 S
N224 C223 1.326 . S
N224 C228 1.362 . S
C225 C226 1.258 . S
C225 C228 1.431 . S
C225 C245 1.449 . S
C226 C225 1.258 . S
C226 C227 1.477 . S
C226 H246 0.931 . S
C227 C223 1.460 . S
C227 C226 1.477 . S
C227 H247 0.930 . S
C228 N224 1.362 . S
C228 C225 1.431 . S
C228 C238 1.476 1_565 S
H229 C223 0.929 . S
C230 O221 1.250 . S
C230 O222 1.258 . S
O231 Mn216 2.162 . S
O231 C219 1.281 . S
O232 Mn216 2.297 . S
O232 C219 1.236 . S
N233 Mn217 2.282 . S
N233 C234 1.328 . S
N233 C238 1.318 . S
C234 N233 1.328 . S
C234 C235 1.457 . S
C234 H239 0.929 . S
C235 C234 1.457 . S
C235 C236 1.291 . S
C235 H248 0.931 . S
C236 C235 1.291 . S
C236 C237 1.373 . S
C236 H249 0.929 . S
C237 C236 1.373 . S
C237 C238 1.396 . S
C237 C244 1.403 1_545 S
C238 C228 1.476 1_545 S
C238 N233 1.318 . S
C238 C237 1.396 . S
H239 C234 0.929 . S
O240 Mn216 2.385 . S
O240 C218 1.234 . S
O241 Mn216 2.209 . S
O241 Mn217 2.215 . S
O241 C218 1.283 . S
O242 Mn216 2.094 . S
O242 C220 1.240 . S
O243 Mn217 2.117 . S
O243 C220 1.264 . S
C244 C237 1.403 1_565 S
C244 C245 1.399 . S
C244 H250 0.929 . S
C245 C225 1.449 . S
C245 C244 1.399 . S
C245 H251 0.930 . S
H246 C226 0.931 . S
H247 C227 0.930 . S
H248 C235 0.931 . S
H249 C236 0.929 . S
H250 C244 0.929 . S
H251 C245 0.930 . S
Mn252 O257 2.095 . S
Mn252 O267 2.162 . S
Mn252 O268 2.297 . S
Mn252 O276 2.385 . S
Mn252 O277 2.209 . S
Mn252 O278 2.094 . S
Mn253 O258 2.121 . S
Mn253 N260 2.257 1_565 S
Mn253 N269 2.282 . S
Mn253 O277 2.215 . S
Mn253 O279 2.117 . S
C254 O276 1.234 . S
C254 O277 1.283 . S
C255 O267 1.281 . S
C255 O268 1.236 . S
C256 O278 1.240 . S
C256 O279 1.264 . S
O257 Mn252 2.095 . S
O257 C266 1.250 . S
O258 Mn253 2.121 . S
O258 C266 1.258 . S
C259 N260 1.326 . S
C259 C263 1.460 . S
C259 H265 0.929 . S
N260 Mn253 2.257 1_545 S
N260 C259 1.326 . S
N260 C264 1.362 . S
C261 C262 1.258 . S
C261 C264 1.431 . S
C261 C281 1.449 . S
C262 C261 1.258 . S
C262 C263 1.477 . S
C262 H282 0.931 . S
C263 C259 1.460 . S
C263 C262 1.477 . S
C263 H283 0.930 . S
C264 N260 1.362 . S
C264 C261 1.431 . S
C264 C274 1.476 1_545 S
H265 C259 0.929 . S
C266 O257 1.250 . S
C266 O258 1.258 . S
O267 Mn252 2.162 . S
O267 C255 1.281 . S
O268 Mn252 2.297 . S
O268 C255 1.236 . S
N269 Mn253 2.282 . S
N269 C270 1.328 . S
N269 C274 1.318 . S
C270 N269 1.328 . S
C270 C271 1.457 . S
C270 H275 0.929 . S
C271 C270 1.457 . S
C271 C272 1.291 . S
C271 H284 0.931 . S
C272 C271 1.291 . S
C272 C273 1.373 . S
C272 H285 0.929 . S
C273 C272 1.373 . S
C273 C274 1.396 . S
C273 C280 1.403 1_565 S
C274 C264 1.476 1_565 S
C274 N269 1.318 . S
C274 C273 1.396 . S
H275 C270 0.929 . S
O276 Mn252 2.385 . S
O276 C254 1.234 . S
O277 Mn252 2.209 . S
O277 Mn253 2.215 . S
O277 C254 1.283 . S
O278 Mn252 2.094 . S
O278 C256 1.240 . S
O279 Mn253 2.117 . S
O279 C256 1.264 . S
C280 C273 1.403 1_545 S
C280 C281 1.399 . S
C280 H286 0.929 . S
C281 C261 1.449 . S
C281 C280 1.399 . S
C281 H287 0.930 . S
H282 C262 0.931 . S
H283 C263 0.930 . S
H284 C271 0.931 . S
H285 C272 0.929 . S
H286 C280 0.929 . S
H287 C281 0.930 . S
C288 C289 1.391 . S
C288 C290 1.394 . S
C288 H304 0.931 . S
C289 C288 1.391 . S
C289 C293 1.376 1_554 S
C290 C288 1.394 . S
C290 C291 1.369 1_554 S
C290 C294 1.531 . S
C291 C290 1.369 1_556 S
C291 C292 1.410 . S
C291 C299 1.503 . S
C292 C291 1.410 . S
C292 C293 1.392 . S
C292 C295 1.511 . S
C293 C289 1.376 1_556 S
C293 C292 1.392 . S
C293 H305 0.929 . S
C294 C290 1.531 . S
C294 H306 0.960 . S
C294 H307 0.962 . S
C294 H308 0.960 . S
C295 C292 1.511 . S
C295 H309 0.961 . S
C295 H310 0.961 . S
C295 H311 0.961 . S
C296 C297 1.370 . S
C296 C298 1.363 . S
C296 H312 0.931 . S
C297 C296 1.370 . S
C297 C301 1.408 1_554 S
C298 C296 1.363 . S
C298 C299 1.370 1_554 S
C298 C302 1.524 . S
C299 C291 1.503 . S
C299 C298 1.370 1_556 S
C299 C300 1.403 . S
C300 C299 1.403 . S
C300 C301 1.404 . S
C300 C303 1.539 . S
C301 C297 1.408 1_556 S
C301 C300 1.404 . S
C301 H313 0.930 . S
C302 C298 1.524 . S
C302 H314 0.956 . S
C302 H315 0.961 . S
C302 H316 0.961 . S
C303 C300 1.539 . S
C303 H317 0.958 . S
C303 H318 0.961 . S
C303 H319 0.960 . S
H304 C288 0.931 . S
H305 C293 0.929 . S
H306 C294 0.960 . S
H307 C294 0.962 . S
H308 C294 0.960 . S
H309 C295 0.961 . S
H310 C295 0.961 . S
H311 C295 0.961 . S
H312 C296 0.931 . S
H313 C301 0.930 . S
H314 C302 0.956 . S
H315 C302 0.961 . S
H316 C302 0.961 . S
H317 C303 0.958 . S
H318 C303 0.961 . S
H319 C303 0.960 . S
C320 C321 1.391 1_556 S
C320 C322 1.394 . S
C320 H336 0.931 . S
C321 C320 1.391 1_554 S
C321 C325 1.376 . S
C322 C320 1.394 . S
C322 C323 1.382 . S
C322 C326 1.531 . S
C323 C322 1.382 . S
C323 C324 1.396 1_556 S
C323 C331 1.503 1_556 S
C324 C323 1.396 1_554 S
C324 C325 1.392 . S
C324 C327 1.511 . S
C325 C321 1.376 . S
C325 C324 1.392 . S
C325 H337 0.929 . S
C326 C322 1.531 . S
C326 H338 0.960 . S
C326 H339 0.962 . S
C326 H340 0.960 . S
C327 C324 1.511 . S
C327 H341 0.961 . S
C327 H342 0.961 . S
C327 H343 0.961 . S
C328 C329 1.370 . S
C328 C330 1.363 . S
C328 H344 0.931 . S
C329 C328 1.370 . S
C329 C333 1.408 1_554 S
C330 C328 1.363 . S
C330 C331 1.370 . S
C330 C334 1.524 . S
C331 C323 1.503 1_554 S
C331 C330 1.370 . S
C331 C332 1.403 1_554 S
C332 C331 1.403 1_556 S
C332 C333 1.404 . S
C332 C335 1.539 . S
C333 C329 1.408 1_556 S
C333 C332 1.404 . S
C333 H345 0.930 . S
C334 C330 1.524 . S
C334 H346 0.956 . S
C334 H347 0.961 . S
C334 H348 0.961 . S
C335 C332 1.539 . S
C335 H349 0.958 . S
C335 H350 0.961 . S
C335 H351 0.960 . S
H336 C320 0.931 . S
H337 C325 0.929 . S
H338 C326 0.960 . S
H339 C326 0.962 . S
H340 C326 0.960 . S
H341 C327 0.961 . S
H342 C327 0.961 . S
H343 C327 0.961 . S
H344 C328 0.931 . S
H345 C333 0.930 . S
H346 C334 0.956 . S
H347 C334 0.961 . S
H348 C334 0.961 . S
H349 C335 0.958 . S
H350 C335 0.961 . S
H351 C335 0.960 . S
C352 C353 1.391 . S
C352 C354 1.394 . S
C352 H368 0.931 . S
C353 C352 1.391 . S
C353 C357 1.376 . S
C354 C352 1.394 . S
C354 C355 1.369 . S
C354 C358 1.531 . S
C355 C354 1.369 . S
C355 C356 1.410 . S
C355 C363 1.503 . S
C356 C355 1.410 . S
C356 C357 1.392 . S
C356 C359 1.511 . S
C357 C353 1.376 . S
C357 C356 1.392 . S
C357 H369 0.929 . S
C358 C354 1.531 . S
C358 H370 0.960 . S
C358 H371 0.962 . S
C358 H372 0.960 . S
C359 C356 1.511 . S
C359 H373 0.961 . S
C359 H374 0.961 . S
C359 H375 0.961 . S
C360 C361 1.370 . S
C360 C362 1.363 . S
C360 H376 0.931 . S
C361 C360 1.370 . S
C361 C365 1.408 . S
C362 C360 1.363 . S
C362 C363 1.370 . S
C362 C366 1.524 . S
C363 C355 1.503 . S
C363 C362 1.370 . S
C363 C364 1.403 . S
C364 C363 1.403 . S
C364 C365 1.404 . S
C364 C367 1.539 . S
C365 C361 1.408 . S
C365 C364 1.404 . S
C365 H377 0.930 . S
C366 C362 1.524 . S
C366 H378 0.956 . S
C366 H379 0.961 . S
C366 H380 0.961 . S
C367 C364 1.539 . S
C367 H381 0.958 . S
C367 H382 0.961 . S
C367 H383 0.960 . S
H368 C352 0.931 . S
H369 C357 0.929 . S
H370 C358 0.960 . S
H371 C358 0.962 . S
H372 C358 0.960 . S
H373 C359 0.961 . S
H374 C359 0.961 . S
H375 C359 0.961 . S
H376 C360 0.931 . S
H377 C365 0.930 . S
H378 C366 0.956 . S
H379 C366 0.961 . S
H380 C366 0.961 . S
H381 C367 0.958 . S
H382 C367 0.961 . S
H383 C367 0.960 . S
C384 C385 1.391 . S
C384 C386 1.394 . S
C384 H400 0.931 . S
C385 C384 1.391 . S
C385 C389 1.376 . S
C386 C384 1.394 . S
C386 C387 1.369 . S
C386 C390 1.531 . S
C387 C386 1.369 . S
C387 C388 1.410 . S
C387 C395 1.503 . S
C388 C387 1.410 . S
C388 C389 1.392 . S
C388 C391 1.511 . S
C389 C385 1.376 . S
C389 C388 1.392 . S
C389 H401 0.929 . S
C390 C386 1.531 . S
C390 H402 0.960 . S
C390 H403 0.962 . S
C390 H404 0.960 . S
C391 C388 1.511 . S
C391 H405 0.961 . S
C391 H406 0.961 . S
C391 H407 0.961 . S
C392 C393 1.370 . S
C392 C394 1.363 . S
C392 H408 0.931 . S
C393 C392 1.370 . S
C393 C397 1.408 . S
C394 C392 1.363 . S
C394 C395 1.370 . S
C394 C398 1.524 . S
C395 C387 1.503 . S
C395 C394 1.370 . S
C395 C396 1.403 . S
C396 C395 1.403 . S
C396 C397 1.404 . S
C396 C399 1.539 . S
C397 C393 1.408 . S
C397 C396 1.404 . S
C397 H409 0.930 . S
C398 C394 1.524 . S
C398 H410 0.956 . S
C398 H411 0.961 . S
C398 H412 0.961 . S
C399 C396 1.539 . S
C399 H413 0.958 . S
C399 H414 0.961 . S
C399 H415 0.960 . S
H400 C384 0.931 . S
H401 C389 0.929 . S
H402 C390 0.960 . S
H403 C390 0.962 . S
H404 C390 0.960 . S
H405 C391 0.961 . S
H406 C391 0.961 . S
H407 C391 0.961 . S
H408 C392 0.931 . S
H409 C397 0.930 . S
H410 C398 0.956 . S
H411 C398 0.961 . S
H412 C398 0.961 . S
H413 C399 0.958 . S
H414 C399 0.961 . S
H415 C399 0.960 . S
C416 C417 1.391 . S
C416 C418 1.394 . S
C416 H432 0.931 . S
C417 C416 1.391 . S
C417 C421 1.376 . S
C418 C416 1.394 . S
C418 C419 1.369 . S
C418 C422 1.531 . S
C419 C418 1.369 . S
C419 C420 1.410 . S
C419 C427 1.503 . S
C420 C419 1.410 . S
C420 C421 1.392 . S
C420 C423 1.511 . S
C421 C417 1.376 . S
C421 C420 1.392 . S
C421 H433 0.929 . S
C422 C418 1.531 . S
C422 H434 0.960 . S
C422 H435 0.962 . S
C422 H436 0.960 . S
C423 C420 1.511 . S
C423 H437 0.961 . S
C423 H438 0.961 . S
C423 H439 0.961 . S
C424 C425 1.370 . S
C424 C426 1.363 . S
C424 H440 0.931 . S
C425 C424 1.370 . S
C425 C429 1.408 . S
C426 C424 1.363 . S
C426 C427 1.370 . S
C426 C430 1.524 . S
C427 C419 1.503 . S
C427 C426 1.370 . S
C427 C428 1.403 . S
C428 C427 1.403 . S
C428 C429 1.404 . S
C428 C431 1.539 . S
C429 C425 1.408 . S
C429 C428 1.404 . S
C429 H441 0.930 . S
C430 C426 1.524 . S
C430 H442 0.956 . S
C430 H443 0.961 . S
C430 H444 0.961 . S
C431 C428 1.539 . S
C431 H445 0.958 . S
C431 H446 0.961 . S
C431 H447 0.960 . S
H432 C416 0.931 . S
H433 C421 0.929 . S
H434 C422 0.960 . S
H435 C422 0.962 . S
H436 C422 0.960 . S
H437 C423 0.961 . S
H438 C423 0.961 . S
H439 C423 0.961 . S
H440 C424 0.931 . S
H441 C429 0.930 . S
H442 C430 0.956 . S
H443 C430 0.961 . S
H444 C430 0.961 . S
H445 C431 0.958 . S
H446 C431 0.961 . S
H447 C431 0.960 . S
C448 C449 1.391 . S
C448 C450 1.394 . S
C448 H464 0.931 . S
C449 C448 1.391 . S
C449 C453 1.376 . S
C450 C448 1.394 . S
C450 C451 1.369 . S
C450 C454 1.531 . S
C451 C450 1.369 . S
C451 C452 1.410 . S
C451 C459 1.503 . S
C452 C451 1.410 . S
C452 C453 1.392 . S
C452 C455 1.511 . S
C453 C449 1.376 . S
C453 C452 1.392 . S
C453 H465 0.929 . S
C454 C450 1.531 . S
C454 H466 0.960 . S
C454 H467 0.962 . S
C454 H468 0.960 . S
C455 C452 1.511 . S
C455 H469 0.961 . S
C455 H470 0.961 . S
C455 H471 0.961 . S
C456 C457 1.370 . S
C456 C458 1.363 . S
C456 H472 0.931 . S
C457 C456 1.370 . S
C457 C461 1.408 . S
C458 C456 1.363 . S
C458 C459 1.370 . S
C458 C462 1.524 . S
C459 C451 1.503 . S
C459 C458 1.370 . S
C459 C460 1.403 . S
C460 C459 1.403 . S
C460 C461 1.404 . S
C460 C463 1.539 . S
C461 C457 1.408 . S
C461 C460 1.404 . S
C461 H473 0.930 . S
C462 C458 1.524 . S
C462 H474 0.956 . S
C462 H475 0.961 . S
C462 H476 0.961 . S
C463 C460 1.539 . S
C463 H477 0.958 . S
C463 H478 0.961 . S
C463 H479 0.960 . S
H464 C448 0.931 . S
H465 C453 0.929 . S
H466 C454 0.960 . S
H467 C454 0.962 . S
H468 C454 0.960 . S
H469 C455 0.961 . S
H470 C455 0.961 . S
H471 C455 0.961 . S
H472 C456 0.931 . S
H473 C461 0.930 . S
H474 C462 0.956 . S
H475 C462 0.961 . S
H476 C462 0.961 . S
H477 C463 0.958 . S
H478 C463 0.961 . S
H479 C463 0.960 . S
C480 C481 1.391 . S
C480 C482 1.394 . S
C480 H496 0.931 . S
C481 C480 1.391 . S
C481 C485 1.376 . S
C482 C480 1.394 . S
C482 C483 1.369 . S
C482 C486 1.531 . S
C483 C482 1.369 . S
C483 C484 1.410 . S
C483 C491 1.503 . S
C484 C483 1.410 . S
C484 C485 1.392 . S
C484 C487 1.511 . S
C485 C481 1.376 . S
C485 C484 1.392 . S
C485 H497 0.929 . S
C486 C482 1.531 . S
C486 H498 0.960 . S
C486 H499 0.962 . S
C486 H500 0.960 . S
C487 C484 1.511 . S
C487 H501 0.961 . S
C487 H502 0.961 . S
C487 H503 0.961 . S
C488 C489 1.370 . S
C488 C490 1.363 . S
C488 H504 0.931 . S
C489 C488 1.370 . S
C489 C493 1.408 . S
C490 C488 1.363 . S
C490 C491 1.370 . S
C490 C494 1.524 . S
C491 C483 1.503 . S
C491 C490 1.370 . S
C491 C492 1.403 . S
C492 C491 1.403 . S
C492 C493 1.404 . S
C492 C495 1.539 . S
C493 C489 1.408 . S
C493 C492 1.404 . S
C493 H505 0.930 . S
C494 C490 1.524 . S
C494 H506 0.956 . S
C494 H507 0.961 . S
C494 H508 0.961 . S
C495 C492 1.539 . S
C495 H509 0.958 . S
C495 H510 0.961 . S
C495 H511 0.960 . S
H496 C480 0.931 . S
H497 C485 0.929 . S
H498 C486 0.960 . S
H499 C486 0.962 . S
H500 C486 0.960 . S
H501 C487 0.961 . S
H502 C487 0.961 . S
H503 C487 0.961 . S
H504 C488 0.931 . S
H505 C493 0.930 . S
H506 C494 0.956 . S
H507 C494 0.961 . S
H508 C494 0.961 . S
H509 C495 0.958 . S
H510 C495 0.961 . S
H511 C495 0.960 . S
C512 C513 1.391 . S
C512 C514 1.394 . S
C512 H528 0.931 . S
C513 C512 1.391 . S
C513 C517 1.376 . S
C514 C512 1.394 . S
C514 C515 1.369 . S
C514 C518 1.531 . S
C515 C514 1.369 . S
C515 C516 1.410 . S
C515 C523 1.503 . S
C516 C515 1.410 . S
C516 C517 1.392 . S
C516 C519 1.511 . S
C517 C513 1.376 . S
C517 C516 1.392 . S
C517 H529 0.929 . S
C518 C514 1.531 . S
C518 H530 0.960 . S
C518 H531 0.962 . S
C518 H532 0.960 . S
C519 C516 1.511 . S
C519 H533 0.961 . S
C519 H534 0.961 . S
C519 H535 0.961 . S
C520 C521 1.370 . S
C520 C522 1.363 . S
C520 H536 0.931 . S
C521 C520 1.370 . S
C521 C525 1.408 . S
C522 C520 1.363 . S
C522 C523 1.370 . S
C522 C526 1.524 . S
C523 C515 1.503 . S
C523 C522 1.370 . S
C523 C524 1.403 . S
C524 C523 1.403 . S
C524 C525 1.404 . S
C524 C527 1.539 . S
C525 C521 1.408 . S
C525 C524 1.404 . S
C525 H537 0.930 . S
C526 C522 1.524 . S
C526 H538 0.956 . S
C526 H539 0.961 . S
C526 H540 0.961 . S
C527 C524 1.539 . S
C527 H541 0.958 . S
C527 H542 0.961 . S
C527 H543 0.960 . S
H528 C512 0.931 . S
H529 C517 0.929 . S
H530 C518 0.960 . S
H531 C518 0.962 . S
H532 C518 0.960 . S
H533 C519 0.961 . S
H534 C519 0.961 . S
H535 C519 0.961 . S
H536 C520 0.931 . S
H537 C525 0.930 . S
H538 C526 0.956 . S
H539 C526 0.961 . S
H540 C526 0.961 . S
H541 C527 0.958 . S
H542 C527 0.961 . S
H543 C527 0.960 . S
C544 C545 1.391 . S
C544 C546 1.394 1_565 S
C544 H560 0.931 1_565 S
C545 C544 1.391 . S
C545 C549 1.376 . S
C546 C544 1.394 1_545 S
C546 C547 1.369 1_545 S
C546 C550 1.531 . S
C547 C546 1.369 1_565 S
C547 C548 1.410 . S
C547 C555 1.503 1_565 S
C548 C547 1.410 . S
C548 C549 1.392 . S
C548 C551 1.511 . S
C549 C545 1.376 . S
C549 C548 1.392 . S
C549 H561 0.929 . S
C550 C546 1.531 . S
C550 H562 0.960 . S
C550 H563 0.962 . S
C550 H564 0.960 . S
C551 C548 1.511 . S
C551 H565 0.961 . S
C551 H566 0.961 . S
C551 H567 0.961 . S
C552 C553 1.370 . S
C552 C554 1.363 1_545 S
C552 H568 0.931 1_545 S
C553 C552 1.370 . S
C553 C557 1.408 . S
C554 C552 1.363 1_565 S
C554 C555 1.370 1_565 S
C554 C558 1.524 . S
C555 C547 1.503 1_545 S
C555 C554 1.370 1_545 S
C555 C556 1.403 . S
C556 C555 1.403 . S
C556 C557 1.404 . S
C556 C559 1.539 . S
C557 C553 1.408 . S
C557 C556 1.404 . S
C557 H569 0.930 . S
C558 C554 1.524 . S
C558 H570 0.956 . S
C558 H571 0.961 . S
C558 H572 0.961 . S
C559 C556 1.539 . S
C559 H573 0.958 . S
C559 H574 0.961 . S
C559 H575 0.960 . S
H560 C544 0.931 1_545 S
H561 C549 0.929 . S
H562 C550 0.960 . S
H563 C550 0.962 . S
H564 C550 0.960 . S
H565 C551 0.961 . S
H566 C551 0.961 . S
H567 C551 0.961 . S
H568 C552 0.931 1_565 S
H569 C557 0.930 . S
H570 C558 0.956 . S
H571 C558 0.961 . S
H572 C558 0.961 . S
H573 C559 0.958 . S
H574 C559 0.961 . S
H575 C559 0.960 . S
C576 C577 1.391 . S
C576 C578 1.394 . S
C576 H592 0.931 . S
C577 C576 1.391 . S
C577 C581 1.376 . S
C578 C576 1.394 . S
C578 C579 1.369 . S
C578 C582 1.531 . S
C579 C578 1.369 . S
C579 C580 1.410 . S
C579 C587 1.503 1_565 S
C580 C579 1.410 . S
C580 C581 1.392 . S
C580 C583 1.511 1_565 S
C581 C577 1.376 . S
C581 C580 1.392 . S
C581 H593 0.929 . S
C582 C578 1.531 . S
C582 H594 0.960 . S
C582 H595 0.962 . S
C582 H596 0.960 . S
C583 C580 1.511 1_545 S
C583 H597 0.961 . S
C583 H598 0.961 . S
C583 H599 0.961 . S
C584 C585 1.370 . S
C584 C586 1.363 . S
C584 H600 0.931 . S
C585 C584 1.370 . S
C585 C589 1.408 . S
C586 C584 1.363 . S
C586 C587 1.370 . S
C586 C590 1.524 . S
C587 C579 1.503 1_545 S
C587 C586 1.370 . S
C587 C588 1.403 1_545 S
C588 C587 1.403 1_565 S
C588 C589 1.404 1_565 S
C588 C591 1.539 . S
C589 C585 1.408 . S
C589 C588 1.404 1_545 S
C589 H601 0.930 1_545 S
C590 C586 1.524 . S
C590 H602 0.956 . S
C590 H603 0.961 . S
C590 H604 0.961 . S
C591 C588 1.539 . S
C591 H605 0.958 . S
C591 H606 0.961 . S
C591 H607 0.960 . S
H592 C576 0.931 . S
H593 C581 0.929 . S
H594 C582 0.960 . S
H595 C582 0.962 . S
H596 C582 0.960 . S
H597 C583 0.961 . S
H598 C583 0.961 . S
H599 C583 0.961 . S
H600 C584 0.931 . S
H601 C589 0.930 1_565 S
H602 C590 0.956 . S
H603 C590 0.961 . S
H604 C590 0.961 . S
H605 C591 0.958 . S
H606 C591 0.961 . S
H607 C591 0.960 . S
C608 C609 1.391 . S
C608 C610 1.394 . S
C608 H624 0.931 . S
C609 C608 1.391 . S
C609 C613 1.376 . S
C610 C608 1.394 . S
C610 C611 1.369 . S
C610 C614 1.531 . S
C611 C610 1.369 . S
C611 C612 1.410 1_565 S
C611 C619 1.503 1_565 S
C612 C611 1.410 1_545 S
C612 C613 1.392 1_545 S
C612 C615 1.511 . S
C613 C609 1.376 . S
C613 C612 1.392 1_565 S
C613 H625 0.929 1_565 S
C614 C610 1.531 . S
C614 H626 0.960 . S
C614 H627 0.962 . S
C614 H628 0.960 . S
C615 C612 1.511 . S
C615 H629 0.961 . S
C615 H630 0.961 . S
C615 H631 0.961 . S
C616 C617 1.370 . S
C616 C618 1.363 1_545 S
C616 H632 0.932 . S
C617 C616 1.370 . S
C617 C621 1.408 . S
C618 C616 1.363 1_565 S
C618 C619 1.370 1_565 S
C618 C622 1.524 . S
C619 C611 1.503 1_545 S
C619 C618 1.370 1_545 S
C619 C620 1.403 . S
C620 C619 1.403 . S
C620 C621 1.404 . S
C620 C623 1.539 . S
C621 C617 1.408 . S
C621 C620 1.404 . S
C621 H633 0.930 . S
C622 C618 1.524 . S
C622 H634 0.956 . S
C622 H635 0.961 . S
C622 H636 0.961 . S
C623 C620 1.539 . S
C623 H637 0.958 . S
C623 H638 0.961 . S
C623 H639 0.960 . S
H624 C608 0.931 . S
H625 C613 0.929 1_545 S
H626 C614 0.960 . S
H627 C614 0.962 . S
H628 C614 0.960 . S
H629 C615 0.961 . S
H630 C615 0.961 . S
H631 C615 0.961 . S
H632 C616 0.932 . S
H633 C621 0.930 . S
H634 C622 0.956 . S
H635 C622 0.961 . S
H636 C622 0.961 . S
H637 C623 0.958 . S
H638 C623 0.961 . S
H639 C623 0.960 . S
C640 C641 1.391 . S
C640 C642 1.394 . S
C640 H656 0.931 . S
C641 C640 1.391 . S
C641 C645 1.376 . S
C642 C640 1.394 . S
C642 C643 1.369 . S
C642 C646 1.531 1_565 S
C643 C642 1.369 . S
C643 C644 1.412 . S
C643 C651 1.501 1_565 S
C644 C643 1.412 . S
C644 C645 1.392 . S
C644 C647 1.511 . S
C645 C641 1.376 . S
C645 C644 1.392 . S
C645 H657 0.929 . S
C646 C642 1.531 1_545 S
C646 H658 0.960 . S
C646 H659 0.962 1_545 S
C646 H660 0.960 . S
C647 C644 1.511 . S
C647 H661 0.961 . S
C647 H662 0.961 . S
C647 H663 0.961 1_565 S
C648 C649 1.370 . S
C648 C650 1.363 1_545 S
C648 H664 0.931 1_545 S
C649 C648 1.370 . S
C649 C653 1.408 . S
C650 C648 1.363 1_565 S
C650 C651 1.370 1_565 S
C650 C654 1.524 . S
C651 C643 1.501 1_545 S
C651 C650 1.370 1_545 S
C651 C652 1.403 . S
C652 C651 1.403 . S
C652 C653 1.404 . S
C652 C655 1.539 . S
C653 C649 1.408 . S
C653 C652 1.404 . S
C653 H665 0.930 . S
C654 C650 1.524 . S
C654 H666 0.956 . S
C654 H667 0.961 . S
C654 H668 0.961 . S
C655 C652 1.539 . S
C655 H669 0.958 . S
C655 H670 0.961 . S
C655 H671 0.960 . S
H656 C640 0.931 . S
H657 C645 0.929 . S
H658 C646 0.960 . S
H659 C646 0.962 1_565 S
H660 C646 0.960 . S
H661 C647 0.961 . S
H662 C647 0.961 . S
H663 C647 0.961 1_545 S
H664 C648 0.931 1_565 S
H665 C653 0.930 . S
H666 C654 0.956 . S
H667 C654 0.961 . S
H668 C654 0.961 . S
H669 C655 0.958 . S
H670 C655 0.961 . S
H671 C655 0.960 . S
C672 C673 1.391 1_556 S
C672 C674 1.394 . S
C672 H688 0.931 . S
C673 C672 1.391 1_554 S
C673 C677 1.376 . S
C674 C672 1.394 . S
C674 C675 1.369 1_556 S
C674 C678 1.531 1_565 S
C675 C674 1.369 1_554 S
C675 C676 1.410 . S
C675 C683 1.503 1_565 S
C676 C675 1.410 . S
C676 C677 1.392 . S
C676 C679 1.511 . S
C677 C673 1.376 . S
C677 C676 1.392 . S
C677 H689 0.929 . S
C678 C674 1.531 1_545 S
C678 H690 0.960 . S
C678 H691 0.962 . S
C678 H692 0.960 . S
C679 C676 1.511 . S
C679 H693 0.961 . S
C679 H694 0.961 . S
C679 H695 0.961 . S
C680 C681 1.370 1_556 S
C680 C682 1.363 . S
C680 H696 0.931 . S
C681 C680 1.370 1_554 S
C681 C685 1.408 . S
C682 C680 1.363 . S
C682 C683 1.370 1_556 S
C682 C686 1.524 1_545 S
C683 C675 1.503 1_545 S
C683 C682 1.370 1_554 S
C683 C684 1.403 . S
C684 C683 1.403 . S
C684 C685 1.404 . S
C684 C687 1.539 . S
C685 C681 1.408 . S
C685 C684 1.404 . S
C685 H697 0.930 . S
C686 C682 1.524 1_565 S
C686 H698 0.956 . S
C686 H699 0.961 . S
C686 H700 0.961 . S
C687 C684 1.539 . S
C687 H701 0.958 . S
C687 H702 0.961 . S
C687 H703 0.960 . S
H688 C672 0.931 . S
H689 C677 0.929 . S
H690 C678 0.960 . S
H691 C678 0.962 . S
H692 C678 0.960 . S
H693 C679 0.961 . S
H694 C679 0.961 . S
H695 C679 0.961 . S
H696 C680 0.931 . S
H697 C685 0.930 . S
H698 C686 0.956 . S
H699 C686 0.961 . S
H700 C686 0.961 . S
H701 C687 0.958 . S
H702 C687 0.961 . S
H703 C687 0.960 . S
C704 C705 1.391 . S
C704 C706 1.394 . S
C704 H720 0.931 . S
C705 C704 1.391 . S
C705 C709 1.376 . S
C706 C704 1.394 . S
C706 C707 1.369 . S
C706 C710 1.531 . S
C707 C706 1.369 . S
C707 C708 1.410 . S
C707 C715 1.503 1_565 S
C708 C707 1.410 . S
C708 C709 1.392 . S
C708 C711 1.511 1_565 S
C709 C705 1.376 . S
C709 C708 1.392 . S
C709 H721 0.929 . S
C710 C706 1.531 . S
C710 H722 0.960 . S
C710 H723 0.962 . S
C710 H724 0.960 . S
C711 C708 1.511 1_545 S
C711 H725 0.961 . S
C711 H726 0.961 . S
C711 H727 0.961 . S
C712 C713 1.370 . S
C712 C714 1.363 . S
C712 H728 0.931 . S
C713 C712 1.370 . S
C713 C717 1.408 . S
C714 C712 1.363 . S
C714 C715 1.370 . S
C714 C718 1.524 1_545 S
C715 C707 1.503 1_545 S
C715 C714 1.370 . S
C715 C716 1.403 . S
C716 C715 1.403 . S
C716 C717 1.404 . S
C716 C719 1.539 . S
C717 C713 1.408 . S
C717 C716 1.404 . S
C717 H729 0.930 . S
C718 C714 1.524 1_565 S
C718 H730 0.956 . S
C718 H731 0.961 . S
C718 H732 0.961 . S
C719 C716 1.539 . S
C719 H733 0.958 . S
C719 H734 0.961 . S
C719 H735 0.960 . S
H720 C704 0.931 . S
H721 C709 0.929 . S
H722 C710 0.960 . S
H723 C710 0.962 . S
H724 C710 0.960 . S
H725 C711 0.961 . S
H726 C711 0.961 . S
H727 C711 0.961 . S
H728 C712 0.931 . S
H729 C717 0.930 . S
H730 C718 0.956 . S
H731 C718 0.961 . S
H732 C718 0.961 . S
H733 C719 0.958 . S
H734 C719 0.961 . S
H735 C719 0.960 . S
C736 C737 1.391 1_556 S
C736 C738 1.394 . S
C736 H752 0.931 . S
C737 C736 1.391 1_554 S
C737 C741 1.376 . S
C738 C736 1.394 . S
C738 C739 1.369 . S
C738 C742 1.531 1_455 S
C739 C738 1.369 . S
C739 C740 1.410 1_556 S
C739 C747 1.503 1_456 S
C740 C739 1.410 1_554 S
C740 C741 1.392 . S
C740 C743 1.511 . S
C741 C737 1.376 . S
C741 C740 1.392 . S
C741 H753 0.929 . S
C742 C738 1.531 1_655 S
C742 H754 0.960 . S
C742 H755 0.962 . S
C742 H756 0.960 . S
C743 C740 1.511 . S
C743 H757 0.961 . S
C743 H758 0.961 . S
C743 H759 0.961 . S
C744 C745 1.370 . S
C744 C746 1.363 . S
C744 H760 0.931 . S
C745 C744 1.370 . S
C745 C749 1.408 1_554 S
C746 C744 1.363 . S
C746 C747 1.374 . S
C746 C750 1.524 . S
C747 C739 1.503 1_654 S
C747 C746 1.374 . S
C747 C748 1.400 1_554 S
C748 C747 1.400 1_556 S
C748 C749 1.404 . S
C748 C751 1.539 1_655 S
C749 C745 1.408 1_556 S
C749 C748 1.404 . S
C749 H761 0.930 . S
C750 C746 1.524 . S
C750 H762 0.956 . S
C750 H763 0.999 . S
C750 H764 0.961 . S
C751 C748 1.539 1_455 S
C751 H765 0.958 1_455 S
C751 H766 0.961 . S
C751 H767 0.960 . S
H752 C736 0.931 . S
H753 C741 0.929 . S
H754 C742 0.960 . S
H755 C742 0.962 . S
H756 C742 0.960 . S
H757 C743 0.961 . S
H758 C743 0.961 . S
H759 C743 0.961 . S
H760 C744 0.931 . S
H761 C749 0.930 . S
H762 C750 0.956 . S
H763 C750 0.999 . S
H764 C750 0.961 . S
H765 C751 0.958 1_655 S
H766 C751 0.961 . S
H767 C751 0.960 . S
C768 C769 1.391 . S
C768 C770 1.394 . S
C768 H784 0.931 . S
C769 C768 1.391 . S
C769 C773 1.376 . S
C770 C768 1.394 . S
C770 C771 1.369 . S
C770 C774 1.531 . S
C771 C770 1.369 . S
C771 C772 1.410 . S
C771 C779 1.503 1_455 S
C772 C771 1.410 . S
C772 C773 1.392 . S
C772 C775 1.511 1_455 S
C773 C769 1.376 . S
C773 C772 1.392 . S
C773 H785 0.929 . S
C774 C770 1.531 . S
C774 H786 0.960 . S
C774 H787 0.962 . S
C774 H788 0.960 . S
C775 C772 1.511 1_655 S
C775 H789 0.961 . S
C775 H790 0.961 . S
C775 H791 0.961 . S
C776 C777 1.370 . S
C776 C778 1.363 . S
C776 H792 0.931 . S
C777 C776 1.370 . S
C777 C781 1.408 . S
C778 C776 1.363 . S
C778 C779 1.370 . S
C778 C782 1.524 1_655 S
C779 C771 1.503 1_655 S
C779 C778 1.370 . S
C779 C780 1.403 . S
C780 C779 1.403 . S
C780 C781 1.404 . S
C780 C783 1.539 . S
C781 C777 1.408 . S
C781 C780 1.404 . S
C781 H793 0.930 . S
C782 C778 1.524 1_455 S
C782 H794 0.956 . S
C782 H795 0.961 . S
C782 H796 0.961 . S
C783 C780 1.539 . S
C783 H797 0.958 . S
C783 H798 0.961 . S
C783 H799 0.960 . S
H784 C768 0.931 . S
H785 C773 0.929 . S
H786 C774 0.960 . S
H787 C774 0.962 . S
H788 C774 0.960 . S
H789 C775 0.961 . S
H790 C775 0.961 . S
H791 C775 0.961 . S
H792 C776 0.931 . S
H793 C781 0.930 . S
H794 C782 0.956 . S
H795 C782 0.961 . S
H796 C782 0.961 . S
H797 C783 0.958 . S
H798 C783 0.961 . S
H799 C783 0.960 . S
C289 C183 1.506 . S
C297 C3 1.506 . S
C321 C147 1.501 . S
C329 C39 1.506 . S
C353 C255 1.506 . S
C361 C75 1.507 . S
C385 C219 1.498 . S
C393 C111 1.503 . S
C417 C14 1.384 . S
C425 C86 1.379 . S
C449 C50 1.391 . S
C457 C122 1.382 . S
C481 C38 1.360 . S
C489 C110 1.344 . S
C513 C2 1.332 . S
C521 C74 1.361 . S
C545 C158 1.352 . S
C553 C230 1.366 . S
C577 C266 1.385 . S
C585 C194 1.380 . S
C609 C254 1.369 . S
C617 C182 1.348 . S
C641 C146 1.366 . S
C649 C218 1.343 . S
C673 C40 1.503 . S
C681 C4 1.502 . S
C705 C76 1.498 . S
C713 C112 1.498 . S
C737 C148 1.497 . S
C745 C184 1.499 . S
C769 C220 1.496 . S
C777 C256 1.504 . S
