# Generated by pormake.
# Topology kag, (6)-cn, num edge types: 1
# Building blocks:
#     Node 0, Type 0, BuildingBlock: KUMJIN_clean_sbu_0, # of connection points: 6
#     Node 1, Type 0, BuildingBlock: KUMJIN_clean_sbu_0, # of connection points: 6
#     Node 2, Type 0, BuildingBlock: KUMJIN_clean_sbu_0, # of connection points: 6
#     Edge 3, Type (0, 0), BuildingBlock: ZUJKAS_clean_linker_0, # of connection points: 2
#     Edge 4, Type (0, 0), BuildingBlock: ZUJKAS_clean_linker_0, # of connection points: 2
#     Edge 5, Type (0, 0), BuildingBlock: ZUJKAS_clean_linker_0, # of connection points: 2
#     Edge 6, Type (0, 0), BuildingBlock: ZUJKAS_clean_linker_0, # of connection points: 2
#     Edge 7, Type (0, 0), BuildingBlock: ZUJKAS_clean_linker_0, # of connection points: 2
#     Edge 8, Type (0, 0), BuildingBlock: ZUJKAS_clean_linker_0, # of connection points: 2
#     Edge 9, Type (0, 0), BuildingBlock: ZUJKAS_clean_linker_0, # of connection points: 2
#     Edge 10, Type (0, 0), BuildingBlock: ZUJKAS_clean_linker_0, # of connection points: 2
#     Edge 11, Type (0, 0), BuildingBlock: ZUJKAS_clean_linker_0, # of connection points: 2
# Relax obj value: 0.054
# Max RMSD: 0.170
# Mean RMSD: 0.128
data_MOF--net-kag--node1-KUMJIN_clean_sbu_0--edge1-ZUJKAS_clean_linker_0
_symmetry_space_group_name_H-M    P1
_symmetry_Int_Tables_number       1
_symmetry_cell_setting            triclinic
loop_
_symmetry_equiv_pos_as_xyz
'x, y, z'
_cell_length_a     49.21038
_cell_length_b     38.954399
_cell_length_c     19.952672
_cell_angle_alpha  94.68557
_cell_angle_beta   114.93139
_cell_angle_gamma 100.78661
loop_
_atom_site_label
_atom_site_type_symbol
_atom_site_fract_x
_atom_site_fract_y
_atom_site_fract_z
_atom_type_partial_charge
Eu0 Eu 0.99833 0.48369 0.97799 0.0
C1 C 0.99687 0.63366 0.09686 0.0
C2 C 0.94629 0.6391 0.00976 0.0
C3 C 0.97024 0.67048 0.13891 0.0
C4 C 0.97216 0.62471 0.0258 0.0
C5 C 0.99651 0.65732 0.15369 0.0
C6 C 0.94517 0.66136 0.06711 0.0
C7 C 0.04908 0.65546 0.23356 0.0
N8 N 0.02194 0.62059 0.10937 0.0
C9 C 0.04835 0.63209 0.17542 0.0
C10 C 0.02291 0.66777 0.22302 0.0
Eu11 Eu 0.01849 0.58034 0.00923 0.0
N12 N 0.97409 0.60344 0.97139 0.0
C13 C 0.95189 0.59739 0.89867 0.0
C14 C 0.9227 0.63146 0.93607 0.0
C15 C 0.92571 0.61089 0.88013 0.0
H16 H 0.0685 0.62234 0.18375 0.0
H17 H 0.90784 0.60532 0.82273 0.0
H18 H 0.92535 0.67236 0.05602 0.0
H19 H 0.06978 0.66389 0.28646 0.0
H20 H 0.95379 0.58138 0.85489 0.0
H21 H 0.10937 0.45806 0.15955 0.0
H22 H 0.90245 0.64198 0.92146 0.0
H23 H 0.94712 0.44192 0.80416 0.0
H24 H 0.06351 0.482 0.1301 0.0
H25 H 0.94476 0.40024 0.70014 0.0
H26 H 0.96939 0.6884 0.18208 0.0
H27 H 0.11387 0.42164 0.05894 0.0
H28 H 0.08978 0.39107 0.92423 0.0
H29 H 0.02355 0.68592 0.2681 0.0
H30 H 0.04491 0.37504 0.79947 0.0
N31 N 0.04244 0.46017 0.0134 0.0
C32 C 0.06503 0.46604 0.08562 0.0
C33 C 0.09363 0.43208 0.04562 0.0
C34 C 0.06954 0.42442 0.97258 0.0
C35 C 0.09114 0.45254 0.10259 0.0
C36 C 0.0438 0.43886 0.95812 0.0
H37 H 0.99054 0.37779 0.71583 0.0
N38 N 0.99382 0.4433 0.87668 0.0
C39 C 0.96574 0.40854 0.75246 0.0
C40 C 0.01866 0.42999 0.88775 0.0
C41 C 0.96708 0.43199 0.81135 0.0
C42 C 0.99165 0.39598 0.76151 0.0
C43 C 0.01842 0.40628 0.8301 0.0
O44 O 0.95533 0.44529 0.95313 0.0
O45 O 0.98201 0.53226 0.99322 0.0
O46 O 0.01293 0.56488 0.11055 0.0
O47 O 0.01892 0.50698 0.10407 0.0
O48 O 0.9505 0.4922 0.9071 0.0
O49 O 0.99682 0.44698 0.05419 0.0
O50 O 0.06148 0.61944 0.03681 0.0
O51 O 0.03484 0.53181 0.9942 0.0
O52 O 1.00374 0.49887 0.87636 0.0
O53 O 0.99854 0.55712 0.88329 0.0
O54 O 0.06623 0.57178 0.08062 0.0
O55 O 0.02076 0.61677 0.93312 0.0
C56 C 0.95408 0.52284 0.94393 0.0
C57 C 0.96013 0.39151 -0.00278 0.0
C58 C 0.9245 0.33538 0.98305 0.0
C59 C 0.93312 0.3728 -0.00121 0.0
C60 C 0.94347 0.31703 0.96575 0.0
C61 C 0.97872 0.37269 0.98004 0.0
C62 C 0.97036 0.33562 0.96436 0.0
C63 C 0.01721 0.53606 0.1404 0.0
C64 C 0.96793 0.43057 0.01134 0.0
C65 C 0.04452 0.39299 0.84331 0.0
C66 C 0.07006 0.40212 0.91436 0.0
C67 C 0.06274 0.54119 0.04372 0.0
C68 C 0.05657 0.67274 0.99042 0.0
C69 C 0.08325 0.6918 0.98785 0.0
C70 C 0.09079 0.72922 0.0003 0.0
C71 C 0.07132 0.74722 0.0162 0.0
C72 C 0.03745 0.69121 0.00612 0.0
C73 C 0.04489 0.72828 0.01913 0.0
C74 C 0.99984 0.52782 0.84676 0.0
C75 C 0.04936 0.6337 0.9776 0.0
H76 H 0.91859 0.38746 0.01115 0.0
H77 H 0.93777 0.28827 0.95436 0.0
H78 H 0.99962 0.38657 0.97873 0.0
H79 H 0.98482 0.32123 0.95123 0.0
H80 H 0.09782 0.67743 0.97501 0.0
H81 H 0.07668 0.77597 0.0271 0.0
H82 H 0.0168 0.67705 0.00819 0.0
H83 H 0.03011 0.74239 0.03153 0.0
Eu84 Eu 0.54963 0.03951 0.03754 0.0
C85 C 0.42486 0.05905 0.81231 0.0
C86 C 0.42101 0.11485 0.86633 0.0
C87 C 0.39637 0.09608 0.7307 0.0
C88 C 0.43225 0.08392 0.87478 0.0
C89 C 0.40623 0.06444 0.73964 0.0
C90 C 0.40375 0.12124 0.79394 0.0
C91 C 0.40606 1.00551 0.69068 0.0
N92 N 0.43433 1.02854 0.823 0.0
C93 C 0.42436 1.00131 0.76387 0.0
C94 C 0.39727 0.03739 0.67838 0.0
Eu95 Eu 0.46664 1.02414 0.94818 0.0
N96 N 0.44854 0.07663 0.94391 0.0
C97 C 0.45233 0.09783 0.0068 0.0
C98 C 0.42651 0.1378 0.93086 0.0
C99 C 0.44181 0.12893 0.00133 0.0
H100 H 0.43129 0.97671 0.77303 0.0
H101 H 0.44564 0.14612 0.05153 0.0
H102 H 0.39524 0.14506 0.78635 0.0
H103 H 0.3988 0.9842 0.64383 0.0
H104 H 0.46422 0.09148 0.06171 0.0
H105 H 0.5705 0.91742 0.93413 0.0
H106 H 0.41836 0.16189 0.9268 0.0
H107 H 0.58505 0.08697 0.21262 0.0
H108 H 0.55195 0.97209 0.92397 0.0
H109 H 0.61766 0.07955 0.34178 0.0
H110 H 0.3823 0.10088 0.67527 0.0
H111 H 0.5978 0.90167 0.05887 0.0
H112 H 0.62105 0.91858 0.19933 0.0
H113 H 0.38298 0.04052 0.62165 0.0
H114 H 0.63414 0.96286 0.31038 0.0
N115 N 0.56762 0.98693 0.04176 0.0
C116 C 0.56383 0.96574 0.97888 0.0
C117 C 0.58964 0.92576 0.05481 0.0
C118 C 0.5952 0.94874 0.11935 0.0
C119 C 0.57434 0.93462 0.98434 0.0
C120 C 0.58395 0.97967 0.11091 0.0
H121 H 0.63354 1.02326 0.36396 0.0
N122 N 0.58201 0.03514 0.16267 0.0
C123 C 0.61038 0.05822 0.29494 0.0
C124 C 0.5915 1.00463 0.17335 0.0
C125 C 0.59201 0.06238 0.22178 0.0
C126 C 0.6192 1.02636 0.30725 0.0
C127 C 0.61019 0.99928 0.24601 0.0
O128 O 0.58882 0.08568 0.07396 0.0
O129 O 0.5106 0.06659 0.98463 0.0
O130 O 0.48291 0.03919 0.8616 0.0
O131 O 0.52946 1.02287 0.90976 0.0
O132 O 0.54696 0.094 0.08337 0.0
O133 O 0.57945 0.04515 0.98117 0.0
O134 O 0.42743 0.97803 0.91188 0.0
O135 O 0.50564 0.99709 0.00095 0.0
O136 O 0.5334 1.02442 0.12413 0.0
O137 O 0.48689 0.04084 0.07599 0.0
O138 O 0.4693 0.96961 0.90237 0.0
O139 O 0.43696 1.01848 0.00498 0.0
C140 C 0.5211 0.09609 0.03051 0.0
C141 C 0.63156 0.07616 0.05658 0.0
C142 C 0.68328 0.10598 0.07528 0.0
C143 C 0.65132 0.10394 0.04587 0.0
C144 C 0.69497 0.07968 0.11522 0.0
C145 C 0.64385 0.05037 0.09657 0.0
C146 C 0.67536 0.05217 0.12575 0.0
C147 C 0.50644 1.03107 0.85395 0.0
C148 C 0.59827 0.0744 0.02626 0.0
C149 C 0.62002 0.96763 0.25496 0.0
C150 C 0.61254 0.9424 0.19173 0.0
C151 C 0.49518 0.96756 0.95518 0.0
C152 C 0.38487 0.98735 0.93037 0.0
C153 C 0.36592 0.96184 0.94838 0.0
C154 C 0.33405 0.96004 0.92066 0.0
C155 C 0.32153 0.9839 0.87401 0.0
C156 C 0.37183 1.0109 0.8842 0.0
C157 C 0.34033 1.0091 0.85606 0.0
C158 C 0.50987 0.03257 0.13177 0.0
C159 C 0.41814 0.98921 0.96001 0.0
H160 H 0.64185 0.12403 0.01541 0.0
H161 H 0.71927 0.07999 0.13734 0.0
H162 H 0.62913 1.02877 0.10501 0.0
H163 H 0.68461 1.03203 0.1563 0.0
H164 H 0.37606 0.94385 0.98472 0.0
H165 H 0.29707 0.98284 0.85062 0.0
H166 H 0.38592 1.03068 0.86988 0.0
H167 H 0.33044 1.0273 0.82011 0.0
Eu168 Eu 0.46589 0.51505 0.94878 0.0
C169 C 0.59122 0.61124 0.18195 0.0
C170 C 0.59466 0.66709 0.13736 0.0
C171 C 0.61876 0.6666 0.27144 0.0
C172 C 0.58357 0.62982 0.12321 0.0
C173 C 0.60955 0.62931 0.25665 0.0
C174 C 0.61138 0.68546 0.21184 0.0
C175 C 0.61139 0.57228 0.29551 0.0
N176 N 0.58269 0.57523 0.16543 0.0
C177 C 0.5935 0.55557 0.22045 0.0
C178 C 0.6191 0.60932 0.31385 0.0
Eu179 Eu 0.55093 0.54869 0.0374 0.0
N180 N 0.56796 0.61115 0.05196 0.0
C181 C 0.56517 0.62777 0.99254 0.0
C182 C 0.58998 0.68453 0.07625 0.0
C183 C 0.57574 0.66465 0.00363 0.0
H184 H 0.58742 0.52692 0.20657 0.0
H185 H 0.57283 0.67767 0.95605 0.0
H186 H 0.6197 0.71412 0.22384 0.0
H187 H 0.6192 0.55659 0.33913 0.0
H188 H 0.55415 0.61285 0.93609 0.0
H189 H 0.44354 0.38615 0.03019 0.0
H190 H 0.59817 0.7131 0.08467 0.0
H191 H 0.42978 0.53696 0.77952 0.0
H192 H 0.46255 0.45089 0.05017 0.0
H193 H 0.39783 0.50735 0.64702 0.0
H194 H 0.63257 0.681 0.32851 0.0
H195 H 0.41771 0.35077 0.90149 0.0
H196 H 0.39593 0.34978 0.76231 0.0
H197 H 0.63315 0.62221 0.37197 0.0
H198 H 0.38327 0.38291 0.65766 0.0
N199 N 0.44846 0.45264 0.9342 0.0
C200 C 0.45133 0.43602 0.99367 0.0
C201 C 0.42604 0.37932 0.90991 0.0
C202 C 0.42131 0.39676 0.8488 0.0
C203 C 0.44056 0.39917 0.98258 0.0
C204 C 0.4326 0.434 0.86295 0.0
H205 H 0.38325 0.44173 0.61421 0.0
N206 N 0.43398 0.48859 0.82075 0.0
C207 C 0.40543 0.49163 0.69065 0.0
C208 C 0.42512 0.45259 0.80424 0.0
C209 C 0.42343 0.5083 0.7657 0.0
C210 C 0.39737 0.45458 0.67233 0.0
C211 C 0.40668 0.43456 0.72954 0.0
O212 O 0.42419 0.53562 0.91835 0.0
O213 O 0.50551 0.565 0.00285 0.0
O214 O 0.5346 0.55627 0.12776 0.0
O215 O 0.488 0.51332 0.07422 0.0
O216 O 0.46632 0.56936 0.91313 0.0
O217 O 0.43839 0.50881 0.01214 0.0
O218 O 0.59251 0.52788 0.06763 0.0
O219 O 0.5113 0.49884 0.9834 0.0
O220 O 0.48226 0.50716 0.85857 0.0
O221 O 0.52885 0.55014 0.91184 0.0
O222 O 0.55051 0.49423 0.07254 0.0
O223 O 0.57897 0.55569 0.9754 0.0
C224 C 0.49342 0.58704 0.96221 0.0
C225 C 0.3841 0.50369 0.94407 0.0
C226 C 0.3332 0.49565 0.94628 0.0
C227 C 0.364 0.5162 0.96982 0.0
C228 C 0.32317 0.46317 0.89668 0.0
C229 C 0.37265 0.47128 0.89399 0.0
C230 C 0.34259 0.45129 0.87063 0.0
C231 C 0.51129 0.53528 0.13287 0.0
C232 C 0.41706 0.52336 0.96926 0.0
C233 C 0.39717 0.39729 0.71474 0.0
C234 C 0.40442 0.37842 0.77432 0.0
C235 C 0.52334 0.47665 0.02356 0.0
C236 C 0.63319 0.56067 0.04514 0.0
C237 C 0.65452 0.54765 0.02467 0.0
C238 C 0.68595 0.56752 0.05379 0.0
C239 C 0.69484 0.60054 0.1012 0.0
C240 C 0.64367 0.59352 0.09327 0.0
C241 C 0.67401 0.61327 0.12056 0.0
C242 C 0.50555 0.52812 0.85331 0.0
C243 C 0.60011 0.54082 0.01796 0.0
H244 H 0.37234 0.54119 0.00851 0.0
H245 H 0.29994 0.44691 0.87743 0.0
H246 H 0.38704 0.46124 0.87289 0.0
H247 H 0.33429 0.42626 0.83211 0.0
H248 H 0.64693 0.52221 0.98786 0.0
H249 H 0.71819 0.61693 0.12334 0.0
H250 H 0.62832 0.60407 0.10997 0.0
H251 H 0.6815 0.6387 0.15731 0.0
H252 H 0.01134 0.4775 0.76466 0.0
H253 H 0.0141 0.47942 0.64589 0.0
H254 H 0.99112 0.58097 0.63903 0.0
H255 H 0.98836 0.57936 0.75862 0.0
H256 H 0.97084 0.48352 0.50504 0.0
H257 H 0.07009 0.60173 0.61323 0.0
H258 H 0.05853 0.57788 0.67453 0.0
H259 H 0.03763 0.60877 0.62699 0.0
C260 C 1.00645 0.50012 0.73777 0.0
C261 C 0.99944 0.52821 0.77157 0.0
C262 C 0.00822 0.50123 0.66971 0.0
C263 C 1.00332 0.53057 0.63375 0.0
C264 C 0.99566 0.55835 0.66632 0.0
H265 H 1.00515 0.58595 0.2221 0.0
H266 H 1.00247 0.58388 0.34092 0.0
C267 C 0.99386 0.55726 0.73458 0.0
C268 C 1.00627 0.53186 0.56234 0.0
H269 H 0.04629 0.57997 0.4821 0.0
C270 C 0.98742 0.50455 0.50015 0.0
C271 C 0.02796 0.55923 0.55574 0.0
C272 C 0.04993 0.58841 0.62129 0.0
C273 C 0.9892 0.50424 0.43144 0.0
C274 C 0.01086 0.53163 0.42482 0.0
C275 C 0.02972 0.55892 0.48701 0.0
C276 C 0.01374 0.53299 0.35336 0.0
C277 C 0.96728 0.47503 0.36589 0.0
C278 C 0.02164 0.50539 0.32092 0.0
C279 C 0.02343 0.50658 0.25267 0.0
C280 C 0.01758 0.53555 0.21555 0.0
C281 C 0.01029 0.56342 0.24915 0.0
C282 C 0.00855 0.56222 0.31722 0.0
H283 H 0.94721 0.46152 0.3741 0.0
H284 H 0.95853 0.48561 0.31273 0.0
H285 H 0.97968 0.45484 0.35992 0.0
H286 H 0.02637 0.48284 0.34833 0.0
H287 H 0.02913 0.48464 0.22875 0.0
H288 H 0.47052 0.05678 0.17825 0.0
H289 H 0.46983 0.05657 0.30014 0.0
H290 H 0.5473 1.00857 0.37559 0.0
H291 H 0.5476 1.00772 0.25334 0.0
H292 H 0.50142 0.97632 0.41086 0.0
H293 H 0.52935 0.12248 0.49811 0.0
H294 H 0.49631 0.10554 0.40869 0.0
H295 H 0.53392 0.10214 0.42015 0.0
C296 C 0.4875 0.04626 0.22076 0.0
C297 C 0.50942 0.03274 0.20602 0.0
C298 C 0.48721 0.04641 0.29078 0.0
C299 C 0.50891 0.03321 0.34784 0.0
C300 C 0.53049 1.01922 0.33288 0.0
H301 H 0.54573 1.00674 0.80739 0.0
H302 H 0.5464 1.00691 0.68548 0.0
C303 C 0.53077 1.01899 0.26291 0.0
C304 C 0.50867 0.03315 0.42243 0.0
H305 H 0.51486 0.08723 0.5748 0.0
C306 C 0.5045 1.0006 0.44685 0.0
C307 C 0.51265 0.0648 0.46953 0.0
C308 C 0.5186 0.10077 0.4483 0.0
C309 C 0.50363 0.99875 0.51613 0.0
C310 C 0.50761 1.0304 0.56324 0.0
C311 C 0.51177 0.06295 0.53881 0.0
C312 C 0.50737 1.03035 0.63783 0.0
C313 C 0.49767 0.96278 0.53735 0.0
C314 C 0.48582 0.04441 0.65284 0.0
C315 C 0.48556 0.04467 0.72283 0.0
C316 C 0.50688 1.03087 0.77969 0.0
C317 C 0.52877 1.01729 0.76491 0.0
C318 C 0.52905 1.01712 0.69487 0.0
H319 H 0.48689 0.94108 0.48752 0.0
H320 H 0.51995 0.95799 0.5769 0.0
H321 H 0.48237 0.96142 0.56555 0.0
H322 H 0.46904 0.05509 0.61016 0.0
H323 H 0.46877 0.056 0.73245 0.0
H324 H 0.54316 0.57546 0.81569 0.0
H325 H 0.54335 0.57625 0.69386 0.0
H326 H 0.46885 0.48155 0.59853 0.0
H327 H 0.46842 0.4806 0.72075 0.0
H328 H 0.55407 0.52765 0.60736 0.0
H329 H 0.43589 0.5463 0.44983 0.0
H330 H 0.45489 0.55222 0.55104 0.0
H331 H 0.43728 0.50832 0.49533 0.0
C332 C 0.52664 0.55479 0.76897 0.0
C333 C 0.50543 0.52822 0.77829 0.0
C334 C 0.52684 0.5553 0.69905 0.0
C335 C 0.5058 0.52935 0.63626 0.0
C336 C 0.48483 0.50244 0.64542 0.0
H337 H 0.47364 0.48784 0.17024 0.0
H338 H 0.4734 0.48692 0.292 0.0
C339 C 0.48461 0.50191 0.71555 0.0
C340 C 0.50646 0.53025 0.56207 0.0
H341 H 0.46265 0.53544 0.37863 0.0
C342 C 0.53409 0.52948 0.55743 0.0
C343 C 0.48046 0.53268 0.49665 0.0
C344 C 0.45052 0.53526 0.49827 0.0
C345 C 0.53626 0.5304 0.48934 0.0
C346 C 0.51026 0.53285 0.42393 0.0
C347 C 0.48263 0.5336 0.42856 0.0
C348 C 0.51095 0.53381 0.34978 0.0
C349 C 0.5662 0.52781 0.48772 0.0
C350 C 0.53192 0.56076 0.34074 0.0
C351 C 0.53217 0.56136 0.27066 0.0
C352 C 0.51138 0.53509 0.20784 0.0
C353 C 0.49015 0.50847 0.21703 0.0
C354 C 0.48993 0.50789 0.28691 0.0
H355 H 0.58082 0.51675 0.53613 0.0
H356 H 0.56183 0.51089 0.43492 0.0
H357 H 0.57945 0.55476 0.49073 0.0
H358 H 0.54788 0.58163 0.3877 0.0
H359 H 0.54836 0.58271 0.26556 0.0
H360 H 0.12229 0.55415 0.15134 0.0
H361 H 0.16821 0.54695 0.1379 0.0
H362 H 0.11146 0.50328 0.90279 0.0
H363 H 0.06529 0.50983 0.91666 0.0
H364 H 0.1552 0.46829 0.95833 0.0
H365 H 0.21355 0.6111 0.05306 0.0
H366 H 0.20473 0.59254 0.12295 0.0
H367 H 0.17382 0.59424 0.03403 0.0
C368 C 0.1195 0.54271 0.09681 0.0
C369 C 0.08987 0.53245 0.03532 0.0
C370 C 0.14598 0.53896 0.08888 0.0
C371 C 0.14393 0.52553 0.01872 0.0
C372 C 0.11413 0.51408 0.95758 0.0
H373 H 0.30498 0.55147 0.91611 0.0
H374 H 0.25952 0.55914 0.93293 0.0
C375 C 0.08753 0.51767 0.96562 0.0
C376 C 0.17273 0.52357 0.00944 0.0
H377 H 0.24464 0.57244 0.0439 0.0
C378 C 0.17464 0.49119 0.97692 0.0
C379 C 0.19829 0.55341 0.03186 0.0
C380 C 0.19743 0.58986 0.06164 0.0
C381 C 0.20116 0.48761 0.9681 0.0
C382 C 0.22739 0.51697 0.99424 0.0
C383 C 0.22513 0.5496 0.02486 0.0
C384 C 0.25701 0.51438 0.9896 0.0
C385 C 0.20031 0.45237 0.92879 0.0
C386 C 0.27218 0.48781 0.01861 0.0
C387 C 0.29817 0.48348 0.00898 0.0
C388 C 0.31052 0.50607 0.97161 0.0
C389 C 0.29658 0.534 0.94641 0.0
C390 C 0.27027 0.53814 0.95546 0.0
H391 H 0.17619 0.43713 0.89142 0.0
H392 H 0.21318 0.45593 0.8946 0.0
H393 H 0.21101 0.43619 0.97138 0.0
H394 H 0.26351 0.46974 0.04751 0.0
H395 H 0.30807 0.4615 0.02858 0.0
H396 H 0.67341 0.13411 0.94734 0.0
H397 H 0.71084 0.1771 0.92557 0.0
H398 H 0.7788 0.18529 0.15398 0.0
H399 H 0.74153 0.14309 0.17683 0.0
H400 H 0.75085 0.25128 0.01539 0.0
H401 H 0.81469 0.14846 0.00805 0.0
H402 H 0.77494 0.13741 0.99269 0.0
H403 H 0.80554 0.15322 0.08612 0.0
C404 C 0.69611 0.1456 0.99338 0.0
C405 C 0.70458 0.13478 0.06358 0.0
C406 C 0.71748 0.17005 0.98074 0.0
C407 C 0.74764 0.18397 0.03794 0.0
C408 C 0.75572 0.17449 0.10888 0.0
H409 H 0.9031 0.34866 0.08673 0.0
H410 H 0.85805 0.31355 0.0943 0.0
C411 C 0.73443 0.15021 0.12165 0.0
C412 C 0.77138 0.20671 0.0228 0.0
H413 H 0.83804 0.20724 0.00793 0.0
C414 C 0.76986 0.24171 0.01331 0.0
C415 C 0.79588 0.19393 0.01928 0.0
C416 C 0.79792 0.15612 0.02647 0.0
C417 C 0.79277 0.26461 0.00226 0.0
C418 C 0.81791 0.25217 0.00143 0.0
C419 C 0.81889 0.21685 0.00901 0.0
C420 C 0.84375 0.27521 0.99363 0.0
C421 C 0.78975 0.30178 0.99099 0.0
C422 C 0.85093 0.26518 0.93503 0.0
C423 C 0.87674 0.28509 0.93077 0.0
C424 C 0.89605 0.31541 0.98529 0.0
C425 C 0.88849 0.32576 0.04325 0.0
C426 C 0.86268 0.30576 0.04756 0.0
H427 H 0.76554 0.30396 0.97244 0.0
H428 H 0.80443 0.32045 0.04502 0.0
H429 H 0.79754 0.31022 0.94883 0.0
H430 H 0.83669 0.24167 0.89289 0.0
H431 H 0.88164 0.27664 0.88484 0.0
H432 H 0.48269 0.90999 0.85015 0.0
H433 H 0.48748 0.8493 0.86429 0.0
H434 H 0.5261 0.87959 0.10455 0.0
H435 H 0.52081 0.94073 0.09005 0.0
H436 H 0.53364 0.81822 0.92621 0.0
H437 H 0.46239 0.79171 0.07809 0.0
H438 H 0.46432 0.83054 0.03522 0.0
H439 H 0.49518 0.82911 0.12417 0.0
C440 C 0.4924 0.90398 0.90635 0.0
C441 C 0.50165 0.93109 0.96876 0.0
C442 C 0.49515 0.86881 0.91448 0.0
C443 C 0.5067 0.85845 0.9855 0.0
C444 C 0.51636 0.88566 0.0485 0.0
H445 H 0.51938 0.6386 0.09538 0.0
H446 H 0.52505 0.70362 0.10617 0.0
C447 C 0.51377 0.92118 0.04032 0.0
C448 C 0.50854 0.81957 0.99185 0.0
H449 H 0.48501 0.74597 0.05795 0.0
C450 C 0.52292 0.80269 0.95525 0.0
C451 C 0.495 0.79818 0.02995 0.0
C452 C 0.4781 0.81307 0.0686 0.0
C453 C 0.52415 0.76637 0.95548 0.0
C454 C 0.50982 0.74463 0.99159 0.0
C455 C 0.49605 0.76167 0.02978 0.0
C456 C 0.50765 0.70429 0.98689 0.0
C457 C 0.54166 0.75196 0.91801 0.0
C458 C 0.49582 0.68157 0.91684 0.0
C459 C 0.49282 0.64443 0.91087 0.0
C460 C 0.50168 0.6277 0.97446 0.0
C461 C 0.51326 0.65011 0.04497 0.0
C462 C 0.51615 0.68761 0.05099 0.0
H463 H 0.55971 0.77347 0.91677 0.0
H464 H 0.55293 0.73181 0.94731 0.0
H465 H 0.52541 0.7394 0.859 0.0
H466 H 0.48792 0.6924 0.86562 0.0
H467 H 0.48291 0.62843 0.85528 0.0
H468 H 0.89429 0.50984 0.83708 0.0
H469 H 0.84862 0.51743 0.85162 0.0
H470 H 0.90622 0.56043 0.08679 0.0
H471 H 0.95194 0.5537 0.07166 0.0
H472 H 0.82146 0.48787 0.92696 0.0
H473 H 0.8564 0.63185 0.03977 0.0
H474 H 0.87733 0.61083 0.00028 0.0
H475 H 0.88404 0.60914 0.09579 0.0
C476 C 0.89732 0.52159 0.89166 0.0
C477 C 0.92708 0.53175 0.95273 0.0
C478 C 0.87103 0.52575 0.90012 0.0
C479 C 0.87343 0.54003 0.97017 0.0
C480 C 0.90328 0.55032 0.0314 0.0
H481 H 0.74491 0.56848 0.15452 0.0
H482 H 0.78819 0.56043 0.1304 0.0
C483 C 0.92967 0.54638 0.02277 0.0
C484 C 0.84466 0.54246 0.97934 0.0
H485 H 0.81261 0.59847 0.04882 0.0
C486 C 0.81957 0.51225 0.95309 0.0
C487 C 0.84154 0.57409 0.01319 0.0
C488 C 0.86611 0.60841 0.03818 0.0
C489 C 0.79235 0.51251 0.9614 0.0
C490 C 0.78952 0.54394 -0.00355 0.0
C491 C 0.81446 0.5742 0.02215 0.0
C492 C 0.76164 0.54586 0.0098 0.0
C493 C 0.76716 0.47869 0.93451 0.0
C494 C 0.73149 0.53968 0.95043 0.0
C495 C 0.70629 0.54435 0.96424 0.0
C496 C 0.71056 0.55552 0.03781 0.0
C497 C 0.74052 0.56017 0.09698 0.0
C498 C 0.76552 0.55566 0.08324 0.0
H499 H 0.77555 0.45505 0.92499 0.0
H500 H 0.75766 0.47473 0.97566 0.0
H501 H 0.74805 0.48044 0.88054 0.0
H502 H 0.7276 0.53254 0.89296 0.0
H503 H 0.68384 0.54096 0.91706 0.0
H504 H 0.14906 0.7175 0.05764 0.0
H505 H 0.19495 0.75205 0.05176 0.0
H506 H 0.14147 0.82133 0.92818 0.0
H507 H 0.09553 0.78694 0.93306 0.0
H508 H 0.18507 0.7856 0.87372 0.0
H509 H 0.23694 0.86586 0.1621 0.0
H510 H 0.21933 0.81899 0.14518 0.0
H511 H 0.19558 0.8491 0.10877 0.0
C512 C 0.14702 0.73992 0.02868 0.0
C513 C 0.11865 0.74955 -0.00396 0.0
C514 C 0.17326 0.75968 0.02572 0.0
C515 C 0.1715 0.78922 0.98976 0.0
C516 C 0.14323 0.79864 0.95635 0.0
H517 H 0.2887 0.97058 0.95891 0.0
H518 H 0.25209 0.92632 0.97947 0.0
C519 C 0.11708 0.77909 0.95963 0.0
C520 C 0.19908 0.81074 0.98707 0.0
H521 H 0.26146 0.88087 0.08592 0.0
C522 C 0.20208 0.80613 0.92031 0.0
C523 C 0.22097 0.83752 0.04795 0.0
C524 C 0.21829 0.84347 0.12033 0.0
C525 C 0.22607 0.82838 0.91206 0.0
C526 C 0.24767 0.85575 0.97247 0.0
C527 C 0.245 0.85974 0.03989 0.0
C528 C 0.27141 0.88247 0.96436 0.0
C529 C 0.2273 0.82344 0.83766 0.0
C530 C 0.2949 0.87267 0.95059 0.0
C531 C 0.31583 0.89797 0.93829 0.0
C532 C 0.31361 0.9335 0.93958 0.0
C533 C 0.29071 0.94334 0.9561 0.0
C534 C 0.26989 0.91812 0.96844 0.0
H535 H 0.20575 0.8055 0.79277 0.0
H536 H 0.23114 0.8494 0.81962 0.0
H537 H 0.24688 0.81163 0.84375 0.0
H538 H 0.29678 0.84539 0.94837 0.0
H539 H 0.33314 0.8895 0.92557 0.0
H540 H 0.49683 0.42505 0.89031 0.0
H541 H 0.49099 0.36001 0.87947 0.0
H542 H 0.52866 0.37128 0.12012 0.0
H543 H 0.53385 0.43529 0.13052 0.0
H544 H 0.53112 0.31761 0.9274 0.0
H545 H 0.45678 0.29033 0.06958 0.0
H546 H 0.46351 0.33196 0.03887 0.0
H547 H 0.49113 0.32439 0.12707 0.0
C548 C 0.50304 0.41355 0.94074 0.0
C549 C 0.51485 0.43599 0.01131 0.0
C550 C 0.50005 0.37603 0.93469 0.0
C551 C 0.50866 0.35937 -0.00119 0.0
C552 C 0.52067 0.38211 0.0689 0.0
H553 H 0.53369 0.15369 0.13563 0.0
H554 H 0.52888 0.21438 0.12149 0.0
C555 C 0.52377 0.41927 0.0749 0.0
C556 C 0.50645 0.31903 0.9941 0.0
H557 H 0.48276 0.24552 0.05987 0.0
C558 C 0.52014 0.30193 0.95574 0.0
C559 C 0.49221 0.29734 0.03043 0.0
C560 C 0.4748 0.31181 0.06813 0.0
C561 C 0.52117 0.26542 0.95559 0.0
C562 C 0.50772 0.24408 0.99389 0.0
C563 C 0.49342 0.26101 0.03067 0.0
C564 C 0.50955 0.2052 0.00026 0.0
C565 C 0.53799 0.25049 0.91674 0.0
C566 C 0.49983 0.17797 0.93725 0.0
C567 C 0.50244 0.14245 0.94544 0.0
C568 C 0.51462 0.13256 0.01701 0.0
C569 C 0.52392 0.15968 0.07942 0.0
C570 C 0.52117 0.19485 0.07129 0.0
H571 H 0.55368 0.27183 0.90713 0.0
H572 H 0.55178 0.23301 0.95006 0.0
H573 H 0.52086 0.23445 0.86122 0.0
H574 H 0.49004 0.18402 0.8812 0.0
H575 H 0.49535 0.1229 0.89569 0.0
loop_
_geom_bond_atom_site_label_1
_geom_bond_atom_site_label_2
_geom_bond_distance
_geom_bond_site_symmetry_2
_ccdc_geom_bond_type
Eu0 N31 2.657 1_656 S
Eu0 N38 2.609 . S
Eu0 O44 2.558 . S
Eu0 O45 2.613 . S
Eu0 O47 2.338 1_556 S
Eu0 O48 2.563 . S
Eu0 O49 2.419 1_556 S
Eu0 O51 2.380 1_656 S
Eu0 O52 2.432 . S
Eu0 C64 2.848 . S
C1 C4 1.429 . S
C1 C5 1.411 . S
C1 N8 1.377 1_655 S
C2 C4 1.420 1_556 S
C2 C6 1.423 1_556 S
C2 C14 1.392 . S
C3 C5 1.420 . S
C3 C6 1.351 . S
C3 H26 0.931 . S
C4 C1 1.429 . S
C4 C2 1.420 1_554 S
C4 N12 1.362 1_554 S
C5 C1 1.411 . S
C5 C3 1.420 . S
C5 C10 1.395 1_655 S
C6 C2 1.423 1_554 S
C6 C3 1.351 . S
C6 H18 0.930 1_554 S
C7 C9 1.400 . S
C7 C10 1.386 . S
C7 H19 0.930 . S
N8 C1 1.377 1_455 S
N8 C9 1.321 . S
N8 Eu11 2.609 . S
C9 C7 1.400 . S
C9 N8 1.321 . S
C9 H16 0.930 . S
C10 C5 1.395 1_455 S
C10 C7 1.386 . S
C10 H29 0.930 . S
Eu11 N8 2.609 . S
Eu11 N12 2.657 1_454 S
Eu11 O45 2.381 1_454 S
Eu11 O46 2.432 . S
Eu11 O50 2.558 . S
Eu11 O51 2.612 . S
Eu11 O53 2.339 1_554 S
Eu11 O54 2.563 . S
Eu11 O55 2.419 1_554 S
Eu11 C75 2.848 . S
N12 C4 1.362 1_556 S
N12 Eu11 2.657 1_656 S
N12 C13 1.334 . S
C13 N12 1.334 . S
C13 C15 1.413 . S
C13 H20 0.929 . S
C14 C2 1.392 . S
C14 C15 1.367 . S
C14 H22 0.930 . S
C15 C13 1.413 . S
C15 C14 1.367 . S
C15 H17 0.930 . S
H16 C9 0.930 . S
H17 C15 0.930 . S
H18 C6 0.930 1_556 S
H19 C7 0.930 . S
H20 C13 0.929 . S
H21 C35 0.930 . S
H22 C14 0.930 . S
H23 C41 0.930 . S
H24 C32 0.929 . S
H25 C39 0.930 . S
H26 C3 0.931 . S
H27 C33 0.930 . S
H28 C66 0.930 1_554 S
H29 C10 0.930 . S
H30 C65 0.931 . S
N31 Eu0 2.657 1_454 S
N31 C32 1.334 . S
N31 C36 1.362 1_554 S
C32 H24 0.929 . S
C32 N31 1.334 . S
C32 C35 1.413 . S
C33 H27 0.930 . S
C33 C34 1.392 . S
C33 C35 1.367 . S
C34 C33 1.392 . S
C34 C36 1.420 1_554 S
C34 C66 1.423 1_554 S
C35 H21 0.930 . S
C35 C32 1.413 . S
C35 C33 1.367 . S
C36 N31 1.362 1_556 S
C36 C34 1.420 1_556 S
C36 C40 1.429 . S
H37 C42 0.930 . S
N38 Eu0 2.609 . S
N38 C40 1.377 1_655 S
N38 C41 1.321 . S
C39 H25 0.930 . S
C39 C41 1.400 . S
C39 C42 1.386 . S
C40 C36 1.429 . S
C40 N38 1.377 1_455 S
C40 C43 1.411 . S
C41 H23 0.930 . S
C41 N38 1.321 . S
C41 C39 1.400 . S
C42 H37 0.930 . S
C42 C39 1.386 . S
C42 C43 1.395 1_655 S
C43 C40 1.411 . S
C43 C42 1.395 1_455 S
C43 C65 1.420 . S
O44 Eu0 2.558 . S
O44 C64 1.257 . S
O45 Eu0 2.613 . S
O45 Eu11 2.381 1_656 S
O45 C56 1.275 . S
O46 Eu11 2.432 . S
O46 C63 1.264 . S
O47 Eu0 2.338 1_554 S
O47 C63 1.254 1_655 S
O48 Eu0 2.563 . S
O48 C56 1.235 . S
O49 Eu0 2.419 1_554 S
O49 C64 1.249 1_554 S
O50 Eu11 2.558 . S
O50 C75 1.257 . S
O51 Eu0 2.380 1_454 S
O51 Eu11 2.612 . S
O51 C67 1.276 . S
O52 Eu0 2.432 . S
O52 C74 1.264 . S
O53 Eu11 2.339 1_556 S
O53 C74 1.254 1_455 S
O54 Eu11 2.563 . S
O54 C67 1.235 . S
O55 Eu11 2.419 1_556 S
O55 C75 1.249 1_556 S
C56 O45 1.275 . S
C56 O48 1.235 . S
C57 C59 1.393 . S
C57 C61 1.395 . S
C57 C64 1.492 . S
C58 C59 1.392 . S
C58 C60 1.386 . S
C59 C57 1.393 . S
C59 C58 1.392 . S
C59 H76 0.930 1_556 S
C60 C58 1.386 . S
C60 C62 1.395 . S
C60 H77 0.930 . S
C61 C57 1.395 . S
C61 C62 1.379 . S
C61 H78 0.930 . S
C62 C60 1.395 . S
C62 C61 1.379 . S
C62 H79 0.930 . S
C63 O46 1.264 . S
C63 O47 1.254 1_455 S
C64 Eu0 2.848 . S
C64 O44 1.257 . S
C64 O49 1.249 1_556 S
C64 C57 1.492 . S
C65 H30 0.931 . S
C65 C43 1.420 . S
C65 C66 1.351 . S
C66 H28 0.930 1_556 S
C66 C34 1.423 1_556 S
C66 C65 1.351 . S
C67 O51 1.276 . S
C67 O54 1.235 . S
C68 C69 1.393 . S
C68 C72 1.395 . S
C68 C75 1.492 . S
C69 C68 1.393 . S
C69 C70 1.392 . S
C69 H80 0.930 1_554 S
C70 C69 1.392 . S
C70 C71 1.386 . S
C71 C70 1.386 . S
C71 C73 1.395 . S
C71 H81 0.930 . S
C72 C68 1.395 . S
C72 C73 1.379 . S
C72 H82 0.930 . S
C73 C71 1.395 . S
C73 C72 1.379 . S
C73 H83 0.930 . S
C74 O52 1.264 . S
C74 O53 1.254 1_655 S
C75 Eu11 2.848 . S
C75 O50 1.257 . S
C75 O55 1.249 1_554 S
C75 C68 1.492 . S
H76 C59 0.930 1_554 S
H77 C60 0.930 . S
H78 C61 0.930 . S
H79 C62 0.930 . S
H80 C69 0.930 1_556 S
H81 C71 0.930 . S
H82 C72 0.930 . S
H83 C73 0.930 . S
Eu84 N115 2.657 1_545 S
Eu84 N122 2.609 1_545 S
Eu84 O128 2.558 . S
Eu84 O129 2.612 1_554 S
Eu84 O131 2.339 1_554 S
Eu84 O132 2.563 . S
Eu84 O133 2.419 . S
Eu84 O135 2.380 1_545 S
Eu84 O136 2.432 . S
Eu84 C148 2.848 . S
C85 C88 1.429 . S
C85 C89 1.411 . S
C85 N92 1.377 . S
C86 C88 1.420 . S
C86 C90 1.423 . S
C86 C98 1.392 1_556 S
C87 C89 1.420 . S
C87 C90 1.351 . S
C87 H110 0.931 . S
C88 C85 1.429 . S
C88 C86 1.420 . S
C88 N96 1.362 . S
C89 C85 1.411 . S
C89 C87 1.420 . S
C89 C94 1.395 . S
C90 C86 1.423 . S
C90 C87 1.351 . S
C90 H102 0.930 . S
C91 C93 1.400 . S
C91 C94 1.386 1_565 S
C91 H103 0.930 . S
N92 C85 1.377 . S
N92 C93 1.321 1_545 S
N92 Eu95 2.609 1_545 S
C93 C91 1.400 . S
C93 N92 1.321 1_565 S
C93 H100 0.930 . S
C94 C89 1.395 . S
C94 C91 1.386 1_545 S
C94 H113 0.930 . S
Eu95 N92 2.609 1_565 S
Eu95 N96 2.657 1_565 S
Eu95 O129 2.380 1_565 S
Eu95 O130 2.432 . S
Eu95 O134 2.558 . S
Eu95 O135 2.612 1_556 S
Eu95 O137 2.339 1_556 S
Eu95 O138 2.563 . S
Eu95 O139 2.419 . S
Eu95 C159 2.848 . S
N96 C88 1.362 . S
N96 Eu95 2.657 1_545 S
N96 C97 1.334 1_556 S
C97 N96 1.334 1_554 S
C97 C99 1.413 . S
C97 H104 0.929 . S
C98 C86 1.392 1_554 S
C98 C99 1.367 . S
C98 H106 0.930 . S
C99 C97 1.413 . S
C99 C98 1.367 . S
C99 H101 0.930 . S
H100 C93 0.930 . S
H101 C99 0.930 . S
H102 C90 0.930 . S
H103 C91 0.930 . S
H104 C97 0.929 . S
H105 C119 0.930 . S
H106 C98 0.930 . S
H107 C125 0.930 . S
H108 C116 0.929 . S
H109 C123 0.930 . S
H110 C87 0.931 . S
H111 C117 0.930 . S
H112 C150 0.930 . S
H113 C94 0.930 . S
H114 C149 0.931 . S
N115 Eu84 2.657 1_565 S
N115 C116 1.334 1_554 S
N115 C120 1.362 . S
C116 H108 0.929 . S
C116 N115 1.334 1_556 S
C116 C119 1.413 . S
C117 H111 0.930 . S
C117 C118 1.392 1_556 S
C117 C119 1.367 . S
C118 C117 1.392 1_554 S
C118 C120 1.420 . S
C118 C150 1.423 . S
C119 H105 0.930 . S
C119 C116 1.413 . S
C119 C117 1.367 . S
C120 N115 1.362 . S
C120 C118 1.420 . S
C120 C124 1.429 . S
H121 C126 0.930 . S
N122 Eu84 2.609 1_565 S
N122 C124 1.377 . S
N122 C125 1.321 1_565 S
C123 H109 0.930 . S
C123 C125 1.400 . S
C123 C126 1.386 1_545 S
C124 C120 1.429 . S
C124 N122 1.377 . S
C124 C127 1.411 . S
C125 H107 0.930 . S
C125 N122 1.321 1_545 S
C125 C123 1.400 . S
C126 H121 0.930 . S
C126 C123 1.386 1_565 S
C126 C127 1.395 . S
C127 C124 1.411 . S
C127 C126 1.395 . S
C127 C149 1.420 . S
O128 Eu84 2.558 . S
O128 C148 1.257 . S
O129 Eu84 2.612 1_556 S
O129 Eu95 2.380 1_545 S
O129 C140 1.276 . S
O130 Eu95 2.432 . S
O130 C147 1.259 1_565 S
O131 Eu84 2.339 1_556 S
O131 C147 1.252 . S
O132 Eu84 2.563 . S
O132 C140 1.235 1_554 S
O133 Eu84 2.419 . S
O133 C148 1.249 . S
O134 Eu95 2.558 . S
O134 C159 1.257 . S
O135 Eu84 2.380 1_565 S
O135 Eu95 2.612 1_554 S
O135 C151 1.276 . S
O136 Eu84 2.432 . S
O136 C158 1.262 1_545 S
O137 Eu95 2.339 1_554 S
O137 C158 1.253 . S
O138 Eu95 2.563 . S
O138 C151 1.235 1_556 S
O139 Eu95 2.419 . S
O139 C159 1.249 . S
C140 O129 1.276 . S
C140 O132 1.235 1_556 S
C141 C143 1.393 . S
C141 C145 1.395 . S
C141 C148 1.492 . S
C142 C143 1.392 . S
C142 C144 1.386 . S
C143 C141 1.393 . S
C143 C142 1.392 . S
C143 H160 0.930 1_554 S
C144 C142 1.386 . S
C144 C146 1.395 . S
C144 H161 0.930 . S
C145 C141 1.395 . S
C145 C146 1.379 . S
C145 H162 0.930 . S
C146 C144 1.395 . S
C146 C145 1.379 . S
C146 H163 0.930 . S
C147 O130 1.259 1_545 S
C147 O131 1.252 . S
C148 Eu84 2.848 . S
C148 O128 1.257 . S
C148 O133 1.249 . S
C148 C141 1.492 . S
C149 H114 0.931 . S
C149 C127 1.420 . S
C149 C150 1.351 . S
C150 H112 0.930 . S
C150 C118 1.423 . S
C150 C149 1.351 . S
C151 O135 1.276 . S
C151 O138 1.235 1_554 S
C152 C153 1.393 . S
C152 C156 1.395 . S
C152 C159 1.492 . S
C153 C152 1.393 . S
C153 C154 1.392 . S
C153 H164 0.930 1_556 S
C154 C153 1.392 . S
C154 C155 1.386 . S
C155 C154 1.386 . S
C155 C157 1.395 . S
C155 H165 0.930 . S
C156 C152 1.395 . S
C156 C157 1.379 . S
C156 H166 0.930 . S
C157 C155 1.395 . S
C157 C156 1.379 . S
C157 H167 0.930 . S
C158 O136 1.262 1_565 S
C158 O137 1.253 . S
C159 Eu95 2.848 . S
C159 O134 1.257 . S
C159 O139 1.249 . S
C159 C152 1.492 . S
H160 C143 0.930 1_556 S
H161 C144 0.930 . S
H162 C145 0.930 . S
H163 C146 0.930 . S
H164 C153 0.930 1_554 S
H165 C155 0.930 . S
H166 C156 0.930 . S
H167 C157 0.930 . S
Eu168 N199 2.657 . S
Eu168 N206 2.609 . S
Eu168 O212 2.558 . S
Eu168 O213 2.612 1_556 S
Eu168 O215 2.339 1_556 S
Eu168 O216 2.563 . S
Eu168 O217 2.419 . S
Eu168 O219 2.380 . S
Eu168 O220 2.432 . S
Eu168 C232 2.848 . S
C169 C172 1.429 . S
C169 C173 1.411 . S
C169 N176 1.377 . S
C170 C172 1.420 . S
C170 C174 1.423 . S
C170 C182 1.392 1_554 S
C171 C173 1.420 . S
C171 C174 1.351 . S
C171 H194 0.931 . S
C172 C169 1.429 . S
C172 C170 1.420 . S
C172 N180 1.362 . S
C173 C169 1.411 . S
C173 C171 1.420 . S
C173 C178 1.395 . S
C174 C170 1.423 . S
C174 C171 1.351 . S
C174 H186 0.930 . S
C175 C177 1.400 . S
C175 C178 1.386 . S
C175 H187 0.930 . S
N176 C169 1.377 . S
N176 C177 1.321 . S
N176 Eu179 2.609 . S
C177 C175 1.400 . S
C177 N176 1.321 . S
C177 H184 0.930 . S
C178 C173 1.395 . S
C178 C175 1.386 . S
C178 H197 0.930 . S
Eu179 N176 2.609 . S
Eu179 N180 2.657 . S
Eu179 O213 2.380 . S
Eu179 O214 2.432 . S
Eu179 O218 2.558 . S
Eu179 O219 2.612 1_554 S
Eu179 O221 2.339 1_554 S
Eu179 O222 2.563 . S
Eu179 O223 2.419 . S
Eu179 C243 2.848 . S
N180 C172 1.362 . S
N180 Eu179 2.657 . S
N180 C181 1.334 1_554 S
C181 N180 1.334 1_556 S
C181 C183 1.413 . S
C181 H188 0.929 . S
C182 C170 1.392 1_556 S
C182 C183 1.367 . S
C182 H190 0.930 . S
C183 C181 1.413 . S
C183 C182 1.367 . S
C183 H185 0.930 . S
H184 C177 0.930 . S
H185 C183 0.930 . S
H186 C174 0.930 . S
H187 C175 0.930 . S
H188 C181 0.929 . S
H189 C203 0.930 . S
H190 C182 0.930 . S
H191 C209 0.930 . S
H192 C200 0.929 . S
H193 C207 0.930 . S
H194 C171 0.931 . S
H195 C201 0.930 . S
H196 C234 0.930 . S
H197 C178 0.930 . S
H198 C233 0.931 . S
N199 Eu168 2.657 . S
N199 C200 1.334 1_556 S
N199 C204 1.362 . S
C200 H192 0.929 . S
C200 N199 1.334 1_554 S
C200 C203 1.413 . S
C201 H195 0.930 . S
C201 C202 1.392 1_554 S
C201 C203 1.367 . S
C202 C201 1.392 1_556 S
C202 C204 1.420 . S
C202 C234 1.423 . S
C203 H189 0.930 . S
C203 C200 1.413 . S
C203 C201 1.367 . S
C204 N199 1.362 . S
C204 C202 1.420 . S
C204 C208 1.429 . S
H205 C210 0.930 . S
N206 Eu168 2.609 . S
N206 C208 1.377 . S
N206 C209 1.321 . S
C207 H193 0.930 . S
C207 C209 1.400 . S
C207 C210 1.386 . S
C208 C204 1.429 . S
C208 N206 1.377 . S
C208 C211 1.411 . S
C209 H191 0.930 . S
C209 N206 1.321 . S
C209 C207 1.400 . S
C210 H205 0.930 . S
C210 C207 1.386 . S
C210 C211 1.395 . S
C211 C208 1.411 . S
C211 C210 1.395 . S
C211 C233 1.420 . S
O212 Eu168 2.558 . S
O212 C232 1.257 . S
O213 Eu168 2.612 1_554 S
O213 Eu179 2.380 . S
O213 C224 1.276 . S
O214 Eu179 2.432 . S
O214 C231 1.264 . S
O215 Eu168 2.339 1_554 S
O215 C231 1.254 . S
O216 Eu168 2.563 . S
O216 C224 1.235 1_556 S
O217 Eu168 2.419 . S
O217 C232 1.249 . S
O218 Eu179 2.558 . S
O218 C243 1.257 . S
O219 Eu168 2.380 . S
O219 Eu179 2.612 1_556 S
O219 C235 1.276 . S
O220 Eu168 2.432 . S
O220 C242 1.264 . S
O221 Eu179 2.339 1_556 S
O221 C242 1.254 . S
O222 Eu179 2.563 . S
O222 C235 1.235 1_554 S
O223 Eu179 2.419 . S
O223 C243 1.249 . S
C224 O213 1.276 . S
C224 O216 1.235 1_554 S
C225 C227 1.393 . S
C225 C229 1.395 . S
C225 C232 1.492 . S
C226 C227 1.392 . S
C226 C228 1.386 . S
C227 C225 1.393 . S
C227 C226 1.392 . S
C227 H244 0.930 1_556 S
C228 C226 1.386 . S
C228 C230 1.395 . S
C228 H245 0.930 . S
C229 C225 1.395 . S
C229 C230 1.379 . S
C229 H246 0.930 . S
C230 C228 1.395 . S
C230 C229 1.379 . S
C230 H247 0.930 . S
C231 O214 1.264 . S
C231 O215 1.254 . S
C232 Eu168 2.848 . S
C232 O212 1.257 . S
C232 O217 1.249 . S
C232 C225 1.492 . S
C233 H198 0.931 . S
C233 C211 1.420 . S
C233 C234 1.351 . S
C234 H196 0.930 . S
C234 C202 1.423 . S
C234 C233 1.351 . S
C235 O219 1.276 . S
C235 O222 1.235 1_556 S
C236 C237 1.393 . S
C236 C240 1.395 . S
C236 C243 1.492 . S
C237 C236 1.393 . S
C237 C238 1.392 . S
C237 H248 0.930 1_554 S
C238 C237 1.392 . S
C238 C239 1.386 . S
C239 C238 1.386 . S
C239 C241 1.395 . S
C239 H249 0.930 . S
C240 C236 1.395 . S
C240 C241 1.379 . S
C240 H250 0.930 . S
C241 C239 1.395 . S
C241 C240 1.379 . S
C241 H251 0.930 . S
C242 O220 1.264 . S
C242 O221 1.254 . S
C243 Eu179 2.848 . S
C243 O218 1.257 . S
C243 O223 1.249 . S
C243 C236 1.492 . S
H244 C227 0.930 1_554 S
H245 C228 0.930 . S
H246 C229 0.930 . S
H247 C230 0.930 . S
H248 C237 0.930 1_556 S
H249 C239 0.930 . S
H250 C240 0.930 . S
H251 C241 0.930 . S
H252 C260 0.929 . S
H253 C262 0.932 . S
H254 C264 0.930 . S
H255 C267 0.926 . S
H256 C270 0.930 . S
H257 C272 0.960 . S
H258 C272 0.960 . S
H259 C272 0.960 . S
C260 H252 0.929 . S
C260 C261 1.371 . S
C260 C262 1.380 . S
C261 C260 1.371 . S
C261 C267 1.390 . S
C262 H253 0.932 . S
C262 C260 1.380 . S
C262 C263 1.372 . S
C263 C262 1.372 . S
C263 C264 1.385 . S
C263 C268 1.501 . S
C264 H254 0.930 . S
C264 C263 1.385 . S
C264 C267 1.394 . S
H265 C281 0.930 . S
H266 C282 0.931 . S
C267 H255 0.926 . S
C267 C261 1.390 . S
C267 C264 1.394 . S
C268 C263 1.501 . S
C268 C270 1.391 1_455 S
C268 C271 1.411 . S
H269 C275 0.930 . S
C270 H256 0.930 . S
C270 C268 1.391 1_655 S
C270 C273 1.403 . S
C271 C268 1.411 . S
C271 C272 1.524 . S
C271 C275 1.400 . S
C272 H257 0.960 . S
C272 H258 0.960 . S
C272 H259 0.960 . S
C272 C271 1.524 . S
C273 C270 1.403 . S
C273 C274 1.392 . S
C273 C277 1.495 . S
C274 C273 1.392 . S
C274 C275 1.385 1_655 S
C274 C276 1.478 . S
C275 H269 0.930 . S
C275 C271 1.400 . S
C275 C274 1.385 1_455 S
C276 C274 1.478 . S
C276 C278 1.366 1_655 S
C276 C282 1.383 . S
C277 C273 1.495 . S
C277 H283 0.959 . S
C277 H284 0.961 . S
C277 H285 0.960 . S
C278 C276 1.366 1_455 S
C278 C279 1.408 . S
C278 H286 0.933 . S
C279 C278 1.408 . S
C279 C280 1.383 . S
C279 H287 0.929 . S
C280 C279 1.383 . S
C280 C281 1.377 1_455 S
C281 H265 0.930 . S
C281 C280 1.377 1_655 S
C281 C282 1.379 . S
C282 H266 0.931 . S
C282 C276 1.383 . S
C282 C281 1.379 . S
H283 C277 0.959 . S
H284 C277 0.961 . S
H285 C277 0.960 . S
H286 C278 0.933 . S
H287 C279 0.929 . S
H288 C296 0.929 . S
H289 C298 0.930 . S
H290 C300 0.930 . S
H291 C303 0.929 . S
H292 C306 0.930 . S
H293 C308 0.960 . S
H294 C308 0.960 1_565 S
H295 C308 0.960 . S
C296 H288 0.929 . S
C296 C297 1.377 . S
C296 C298 1.384 . S
C297 C296 1.377 . S
C297 C303 1.390 1_565 S
C298 H289 0.930 . S
C298 C296 1.384 . S
C298 C299 1.372 . S
C299 C298 1.372 . S
C299 C300 1.400 1_565 S
C299 C304 1.490 . S
C300 H290 0.930 . S
C300 C299 1.400 1_545 S
C300 C303 1.386 . S
H301 C317 0.930 . S
H302 C318 0.931 . S
C303 H291 0.929 . S
C303 C297 1.390 1_545 S
C303 C300 1.386 . S
C304 C299 1.490 . S
C304 C306 1.395 . S
C304 C307 1.403 1_565 S
H305 C311 0.930 . S
C306 H292 0.930 . S
C306 C304 1.395 . S
C306 C309 1.403 . S
C307 C304 1.403 1_545 S
C307 C308 1.524 . S
C307 C311 1.400 . S
C308 H293 0.960 . S
C308 H294 0.960 1_545 S
C308 H295 0.960 . S
C308 C307 1.524 . S
C309 C306 1.403 . S
C309 C310 1.392 . S
C309 C313 1.495 . S
C310 C309 1.392 . S
C310 C311 1.385 1_565 S
C310 C312 1.478 1_565 S
C311 H305 0.930 . S
C311 C307 1.400 . S
C311 C310 1.385 1_545 S
C312 C310 1.478 1_545 S
C312 C314 1.381 1_545 S
C312 C318 1.383 . S
C313 C309 1.495 . S
C313 H319 0.959 . S
C313 H320 0.961 . S
C313 H321 0.960 . S
C314 C312 1.381 1_565 S
C314 C315 1.394 . S
C314 H322 0.930 . S
C315 C314 1.394 . S
C315 C316 1.383 1_565 S
C315 H323 0.929 . S
C316 C315 1.383 1_545 S
C316 C317 1.377 . S
C317 H301 0.930 . S
C317 C316 1.377 . S
C317 C318 1.379 . S
C318 H302 0.931 . S
C318 C312 1.383 . S
C318 C317 1.379 . S
H319 C313 0.959 . S
H320 C313 0.961 . S
H321 C313 0.960 . S
H322 C314 0.930 . S
H323 C315 0.929 . S
H324 C332 0.929 . S
H325 C334 0.930 . S
H326 C336 0.930 . S
H327 C339 0.929 . S
H328 C342 0.930 . S
H329 C344 0.960 . S
H330 C344 0.960 . S
H331 C344 0.960 . S
C332 H324 0.929 . S
C332 C333 1.377 . S
C332 C334 1.384 . S
C333 C332 1.377 . S
C333 C339 1.390 . S
C334 H325 0.930 . S
C334 C332 1.384 . S
C334 C335 1.372 . S
C335 C334 1.372 . S
C335 C336 1.400 . S
C335 C340 1.490 . S
C336 H326 0.930 . S
C336 C335 1.400 . S
C336 C339 1.386 . S
H337 C353 0.930 . S
H338 C354 0.931 . S
C339 H327 0.929 . S
C339 C333 1.390 . S
C339 C336 1.386 . S
C340 C335 1.490 . S
C340 C342 1.395 . S
C340 C343 1.403 . S
H341 C347 0.930 . S
C342 H328 0.930 . S
C342 C340 1.395 . S
C342 C345 1.403 . S
C343 C340 1.403 . S
C343 C344 1.524 . S
C343 C347 1.400 . S
C344 H329 0.960 . S
C344 H330 0.960 . S
C344 H331 0.960 . S
C344 C343 1.524 . S
C345 C342 1.403 . S
C345 C346 1.392 . S
C345 C349 1.495 . S
C346 C345 1.392 . S
C346 C347 1.385 . S
C346 C348 1.478 . S
C347 H341 0.930 . S
C347 C343 1.400 . S
C347 C346 1.385 . S
C348 C346 1.478 . S
C348 C350 1.381 . S
C348 C354 1.383 . S
C349 C345 1.495 . S
C349 H355 0.959 . S
C349 H356 0.961 . S
C349 H357 0.960 . S
C350 C348 1.381 . S
C350 C351 1.394 . S
C350 H358 0.930 . S
C351 C350 1.394 . S
C351 C352 1.383 . S
C351 H359 0.929 . S
C352 C351 1.383 . S
C352 C353 1.377 . S
C353 H337 0.930 . S
C353 C352 1.377 . S
C353 C354 1.379 . S
C354 H338 0.931 . S
C354 C348 1.383 . S
C354 C353 1.379 . S
H355 C349 0.959 . S
H356 C349 0.961 . S
H357 C349 0.960 . S
H358 C350 0.930 . S
H359 C351 0.929 . S
H360 C368 0.929 . S
H361 C370 0.930 . S
H362 C372 0.930 1_556 S
H363 C375 0.930 1_556 S
H364 C378 0.930 . S
H365 C380 0.960 . S
H366 C380 0.960 . S
H367 C380 0.960 . S
C368 H360 0.929 . S
C368 C369 1.377 . S
C368 C370 1.384 . S
C369 C368 1.377 . S
C369 C375 1.390 . S
C370 H361 0.930 . S
C370 C368 1.384 . S
C370 C371 1.372 . S
C371 C370 1.372 . S
C371 C372 1.400 . S
C371 C376 1.490 . S
C372 H362 0.930 1_554 S
C372 C371 1.400 . S
C372 C375 1.386 . S
H373 C389 0.930 . S
H374 C390 0.931 . S
C375 H363 0.930 1_554 S
C375 C369 1.390 . S
C375 C372 1.386 . S
C376 C371 1.490 . S
C376 C378 1.395 1_554 S
C376 C379 1.403 . S
H377 C383 0.930 . S
C378 H364 0.930 . S
C378 C376 1.395 1_556 S
C378 C381 1.403 . S
C379 C376 1.403 . S
C379 C380 1.524 . S
C379 C383 1.400 . S
C380 H365 0.960 . S
C380 H366 0.960 . S
C380 H367 0.960 . S
C380 C379 1.524 . S
C381 C378 1.403 . S
C381 C382 1.392 . S
C381 C385 1.495 . S
C382 C381 1.392 . S
C382 C383 1.385 1_556 S
C382 C384 1.478 . S
C383 H377 0.930 . S
C383 C379 1.400 . S
C383 C382 1.385 1_554 S
C384 C382 1.478 . S
C384 C386 1.381 1_556 S
C384 C390 1.383 . S
C385 C381 1.495 . S
C385 H391 0.959 . S
C385 H392 0.961 . S
C385 H393 0.960 . S
C386 C384 1.381 1_554 S
C386 C387 1.394 . S
C386 H394 0.930 . S
C387 C386 1.394 . S
C387 C388 1.383 1_554 S
C387 H395 0.929 . S
C388 C387 1.383 1_556 S
C388 C389 1.377 . S
C389 H373 0.930 . S
C389 C388 1.377 . S
C389 C390 1.379 . S
C390 H374 0.931 . S
C390 C384 1.383 . S
C390 C389 1.379 . S
H391 C385 0.959 . S
H392 C385 0.961 . S
H393 C385 0.960 . S
H394 C386 0.930 . S
H395 C387 0.929 . S
H396 C404 0.929 . S
H397 C406 0.930 . S
H398 C408 0.930 . S
H399 C411 0.929 . S
H400 C414 0.930 . S
H401 C416 0.960 . S
H402 C416 0.960 . S
H403 C416 0.960 . S
C404 H396 0.929 . S
C404 C405 1.377 1_556 S
C404 C406 1.384 . S
C405 C404 1.377 1_554 S
C405 C411 1.390 . S
C406 H397 0.930 . S
C406 C404 1.384 . S
C406 C407 1.372 1_556 S
C407 C406 1.372 1_554 S
C407 C408 1.400 . S
C407 C412 1.490 . S
C408 H398 0.930 . S
C408 C407 1.400 . S
C408 C411 1.386 . S
H409 C425 0.930 . S
H410 C426 0.931 . S
C411 H399 0.929 . S
C411 C405 1.390 . S
C411 C408 1.386 . S
C412 C407 1.490 . S
C412 C414 1.395 1_554 S
C412 C415 1.403 . S
H413 C419 0.930 . S
C414 H400 0.930 . S
C414 C412 1.395 1_556 S
C414 C417 1.403 . S
C415 C412 1.403 . S
C415 C416 1.524 . S
C415 C419 1.400 . S
C416 H401 0.960 . S
C416 H402 0.960 . S
C416 H403 0.960 . S
C416 C415 1.524 . S
C417 C414 1.403 . S
C417 C418 1.392 1_556 S
C417 C421 1.495 . S
C418 C417 1.392 1_554 S
C418 C419 1.385 . S
C418 C420 1.478 . S
C419 H413 0.930 . S
C419 C415 1.400 . S
C419 C418 1.385 . S
C420 C418 1.478 . S
C420 C422 1.381 1_554 S
C420 C426 1.383 . S
C421 C417 1.495 . S
C421 H427 0.959 . S
C421 H428 0.961 . S
C421 H429 0.960 . S
C422 C420 1.381 1_556 S
C422 C423 1.394 . S
C422 H430 0.930 . S
C423 C422 1.394 . S
C423 C424 1.383 1_556 S
C423 H431 0.929 . S
C424 C423 1.383 1_554 S
C424 C425 1.377 . S
C425 H409 0.930 . S
C425 C424 1.377 . S
C425 C426 1.379 . S
C426 H410 0.931 . S
C426 C420 1.383 . S
C426 C425 1.379 . S
H427 C421 0.959 . S
H428 C421 0.961 . S
H429 C421 0.960 . S
H430 C422 0.930 . S
H431 C423 0.929 . S
H432 C440 0.929 . S
H433 C442 0.930 . S
H434 C444 0.930 . S
H435 C447 0.929 . S
H436 C450 0.930 . S
H437 C452 0.960 1_556 S
H438 C452 0.960 1_556 S
H439 C452 0.960 . S
C440 H432 0.929 . S
C440 C441 1.377 1_556 S
C440 C442 1.384 . S
C441 C440 1.377 1_554 S
C441 C447 1.390 . S
C442 H433 0.930 . S
C442 C440 1.384 . S
C442 C443 1.372 1_556 S
C443 C442 1.372 1_554 S
C443 C444 1.400 . S
C443 C448 1.490 . S
C444 H434 0.930 . S
C444 C443 1.400 . S
C444 C447 1.386 . S
H445 C461 0.930 . S
H446 C462 0.931 . S
C447 H435 0.929 . S
C447 C441 1.390 . S
C447 C444 1.386 . S
C448 C443 1.490 . S
C448 C450 1.395 . S
C448 C451 1.403 . S
H449 C455 0.930 . S
C450 H436 0.930 . S
C450 C448 1.395 . S
C450 C453 1.403 . S
C451 C448 1.403 . S
C451 C452 1.524 . S
C451 C455 1.400 . S
C452 H437 0.960 1_554 S
C452 H438 0.960 1_554 S
C452 H439 0.960 . S
C452 C451 1.524 . S
C453 C450 1.403 . S
C453 C454 1.392 . S
C453 C457 1.495 . S
C454 C453 1.392 . S
C454 C455 1.385 . S
C454 C456 1.478 . S
C455 H449 0.930 . S
C455 C451 1.400 . S
C455 C454 1.385 . S
C456 C454 1.478 . S
C456 C458 1.381 1_554 S
C456 C462 1.383 . S
C457 C453 1.495 . S
C457 H463 0.959 . S
C457 H464 0.961 . S
C457 H465 0.960 1_554 S
C458 C456 1.381 1_556 S
C458 C459 1.394 . S
C458 H466 0.930 . S
C459 C458 1.394 . S
C459 C460 1.383 1_556 S
C459 H467 0.929 . S
C460 C459 1.383 1_554 S
C460 C461 1.377 . S
C461 H445 0.930 . S
C461 C460 1.377 . S
C461 C462 1.379 . S
C462 H446 0.931 . S
C462 C456 1.383 . S
C462 C461 1.379 . S
H463 C457 0.959 . S
H464 C457 0.961 . S
H465 C457 0.960 1_556 S
H466 C458 0.930 . S
H467 C459 0.929 . S
H468 C476 0.929 . S
H469 C478 0.930 . S
H470 C480 0.930 . S
H471 C483 0.929 . S
H472 C486 0.930 . S
H473 C488 0.960 . S
H474 C488 0.960 . S
H475 C488 0.960 . S
C476 H468 0.929 . S
C476 C477 1.377 . S
C476 C478 1.384 . S
C477 C476 1.377 . S
C477 C483 1.390 1_556 S
C478 H469 0.930 . S
C478 C476 1.384 . S
C478 C479 1.372 . S
C479 C478 1.372 . S
C479 C480 1.400 1_556 S
C479 C484 1.490 . S
C480 H470 0.930 . S
C480 C479 1.400 1_554 S
C480 C483 1.386 . S
H481 C497 0.930 . S
H482 C498 0.931 . S
C483 H471 0.929 . S
C483 C477 1.390 1_554 S
C483 C480 1.386 . S
C484 C479 1.490 . S
C484 C486 1.395 . S
C484 C487 1.403 1_556 S
H485 C491 0.930 . S
C486 H472 0.930 . S
C486 C484 1.395 . S
C486 C489 1.403 . S
C487 C484 1.403 1_554 S
C487 C488 1.524 . S
C487 C491 1.400 . S
C488 H473 0.960 . S
C488 H474 0.960 . S
C488 H475 0.960 . S
C488 C487 1.524 . S
C489 C486 1.403 . S
C489 C490 1.392 . S
C489 C493 1.495 . S
C490 C489 1.392 . S
C490 C491 1.385 1_556 S
C490 C492 1.478 . S
C491 H485 0.930 . S
C491 C487 1.400 . S
C491 C490 1.385 1_554 S
C492 C490 1.478 . S
C492 C494 1.381 . S
C492 C498 1.383 1_556 S
C493 C489 1.495 . S
C493 H499 0.959 . S
C493 H500 0.961 . S
C493 H501 0.960 . S
C494 C492 1.381 . S
C494 C495 1.394 . S
C494 H502 0.930 . S
C495 C494 1.394 . S
C495 C496 1.383 . S
C495 H503 0.929 . S
C496 C495 1.383 . S
C496 C497 1.377 1_556 S
C497 H481 0.930 . S
C497 C496 1.377 1_554 S
C497 C498 1.379 . S
C498 H482 0.931 . S
C498 C492 1.383 1_554 S
C498 C497 1.379 . S
H499 C493 0.959 . S
H500 C493 0.961 . S
H501 C493 0.960 . S
H502 C494 0.930 . S
H503 C495 0.929 . S
H504 C512 0.929 . S
H505 C514 0.930 . S
H506 C516 0.930 . S
H507 C519 0.929 . S
H508 C522 0.930 . S
H509 C524 0.960 . S
H510 C524 0.960 . S
H511 C524 0.960 . S
C512 H504 0.929 . S
C512 C513 1.377 . S
C512 C514 1.384 . S
C513 C512 1.377 . S
C513 C519 1.390 . S
C514 H505 0.930 . S
C514 C512 1.384 . S
C514 C515 1.372 . S
C515 C514 1.372 . S
C515 C516 1.400 . S
C515 C520 1.490 . S
C516 H506 0.930 . S
C516 C515 1.400 . S
C516 C519 1.386 . S
H517 C533 0.930 . S
H518 C534 0.931 . S
C519 H507 0.929 . S
C519 C513 1.390 . S
C519 C516 1.386 . S
C520 C515 1.490 . S
C520 C522 1.395 . S
C520 C523 1.403 1_556 S
H521 C527 0.930 . S
C522 H508 0.930 . S
C522 C520 1.395 . S
C522 C525 1.403 . S
C523 C520 1.403 1_554 S
C523 C524 1.524 . S
C523 C527 1.400 . S
C524 H509 0.960 . S
C524 H510 0.960 . S
C524 H511 0.960 . S
C524 C523 1.524 . S
C525 C522 1.403 . S
C525 C526 1.392 . S
C525 C529 1.495 . S
C526 C525 1.392 . S
C526 C527 1.385 1_556 S
C526 C528 1.478 . S
C527 H521 0.930 . S
C527 C523 1.400 . S
C527 C526 1.385 1_554 S
C528 C526 1.478 . S
C528 C530 1.381 . S
C528 C534 1.383 . S
C529 C525 1.495 . S
C529 H535 0.959 . S
C529 H536 0.961 . S
C529 H537 0.960 . S
C530 C528 1.381 . S
C530 C531 1.394 . S
C530 H538 0.933 . S
C531 C530 1.394 . S
C531 C532 1.383 . S
C531 H539 0.929 1_556 S
C532 C531 1.383 . S
C532 C533 1.377 . S
C533 H517 0.930 . S
C533 C532 1.377 . S
C533 C534 1.379 . S
C534 H518 0.931 . S
C534 C528 1.383 . S
C534 C533 1.379 . S
H535 C529 0.959 . S
H536 C529 0.961 . S
H537 C529 0.960 . S
H538 C530 0.933 . S
H539 C531 0.929 1_554 S
H540 C548 0.929 . S
H541 C550 0.930 . S
H542 C552 0.930 . S
H543 C555 0.929 . S
H544 C558 0.930 . S
H545 C560 0.955 1_554 S
H546 C560 0.960 . S
H547 C560 0.960 1_554 S
C548 H540 0.929 . S
C548 C549 1.377 . S
C548 C550 1.384 . S
C549 C548 1.377 . S
C549 C555 1.390 1_556 S
C550 H541 0.930 . S
C550 C548 1.384 . S
C550 C551 1.372 . S
C551 C550 1.372 . S
C551 C552 1.400 1_556 S
C551 C556 1.490 . S
C552 H542 0.930 . S
C552 C551 1.400 1_554 S
C552 C555 1.386 . S
H553 C569 0.930 . S
H554 C570 0.931 . S
C555 H543 0.929 . S
C555 C549 1.390 1_554 S
C555 C552 1.386 . S
C556 C551 1.490 . S
C556 C558 1.395 . S
C556 C559 1.403 . S
H557 C563 0.930 . S
C558 H544 0.930 . S
C558 C556 1.395 . S
C558 C561 1.403 . S
C559 C556 1.403 . S
C559 C560 1.524 . S
C559 C563 1.400 . S
C560 H545 0.955 1_556 S
C560 H546 0.960 . S
C560 H547 0.960 1_556 S
C560 C559 1.524 . S
C561 C558 1.403 . S
C561 C562 1.392 . S
C561 C565 1.495 . S
C562 C561 1.392 . S
C562 C563 1.385 . S
C562 C564 1.478 . S
C563 H557 0.930 . S
C563 C559 1.400 . S
C563 C562 1.385 . S
C564 C562 1.478 . S
C564 C566 1.381 . S
C564 C570 1.383 1_556 S
C565 C561 1.495 . S
C565 H571 0.959 . S
C565 H572 0.961 . S
C565 H573 0.960 . S
C566 C564 1.381 . S
C566 C567 1.394 . S
C566 H574 0.930 . S
C567 C566 1.394 . S
C567 C568 1.383 . S
C567 H575 0.929 . S
C568 C567 1.383 . S
C568 C569 1.377 1_556 S
C569 H553 0.930 . S
C569 C568 1.377 1_554 S
C569 C570 1.379 . S
C570 H554 0.931 . S
C570 C564 1.383 1_554 S
C570 C569 1.379 . S
H571 C565 0.959 . S
H572 C565 0.961 . S
H573 C565 0.960 . S
H574 C566 0.930 . S
H575 C567 0.929 . S
C261 C74 1.491 1_455 S
C280 C63 1.497 . S
C297 C158 1.482 . S
C316 C147 1.464 . S
C333 C242 1.484 . S
C352 C231 1.460 . S
C369 C67 1.531 . S
C388 C226 1.385 . S
C405 C142 0.774 . S
C424 C58 0.786 1_554 S
C441 C151 2.292 . S
C460 C224 2.342 . S
C477 C56 1.536 . S
C496 C238 1.471 1_556 S
C513 C70 0.759 1_556 S
C532 C154 0.717 . S
C549 C235 2.339 . S
C568 C140 2.278 . S
