# Generated by pormake.
# Topology wne, (6)-cn, num edge types: 1
# Building blocks:
#     Node 0, Type 0, BuildingBlock: JUFBIX_clean_sbu_0, # of connection points: 6
#     Node 1, Type 0, BuildingBlock: JUFBIX_clean_sbu_0, # of connection points: 6
#     Node 2, Type 0, BuildingBlock: JUFBIX_clean_sbu_0, # of connection points: 6
#     Node 3, Type 0, BuildingBlock: JUFBIX_clean_sbu_0, # of connection points: 6
#     Node 4, Type 0, BuildingBlock: JUFBIX_clean_sbu_0, # of connection points: 6
#     Node 5, Type 0, BuildingBlock: JUFBIX_clean_sbu_0, # of connection points: 6
#     Node 6, Type 0, BuildingBlock: JUFBIX_clean_sbu_0, # of connection points: 6
#     Node 7, Type 0, BuildingBlock: JUFBIX_clean_sbu_0, # of connection points: 6
#     Node 8, Type 0, BuildingBlock: JUFBIX_clean_sbu_0, # of connection points: 6
#     Node 9, Type 0, BuildingBlock: JUFBIX_clean_sbu_0, # of connection points: 6
#     Node 10, Type 0, BuildingBlock: JUFBIX_clean_sbu_0, # of connection points: 6
#     Node 11, Type 0, BuildingBlock: JUFBIX_clean_sbu_0, # of connection points: 6
#     Node 12, Type 0, BuildingBlock: JUFBIX_clean_sbu_0, # of connection points: 6
#     Node 13, Type 0, BuildingBlock: JUFBIX_clean_sbu_0, # of connection points: 6
#     Node 14, Type 0, BuildingBlock: JUFBIX_clean_sbu_0, # of connection points: 6
#     Node 15, Type 0, BuildingBlock: JUFBIX_clean_sbu_0, # of connection points: 6
#     Node 16, Type 0, BuildingBlock: JUFBIX_clean_sbu_0, # of connection points: 6
#     Node 17, Type 0, BuildingBlock: JUFBIX_clean_sbu_0, # of connection points: 6
#     Node 18, Type 0, BuildingBlock: JUFBIX_clean_sbu_0, # of connection points: 6
#     Node 19, Type 0, BuildingBlock: JUFBIX_clean_sbu_0, # of connection points: 6
#     Node 20, Type 0, BuildingBlock: JUFBIX_clean_sbu_0, # of connection points: 6
#     Node 21, Type 0, BuildingBlock: JUFBIX_clean_sbu_0, # of connection points: 6
#     Node 22, Type 0, BuildingBlock: JUFBIX_clean_sbu_0, # of connection points: 6
#     Node 23, Type 0, BuildingBlock: JUFBIX_clean_sbu_0, # of connection points: 6
#     Node 24, Type 0, BuildingBlock: JUFBIX_clean_sbu_0, # of connection points: 6
#     Node 25, Type 0, BuildingBlock: JUFBIX_clean_sbu_0, # of connection points: 6
#     Node 26, Type 0, BuildingBlock: JUFBIX_clean_sbu_0, # of connection points: 6
#     Node 27, Type 0, BuildingBlock: JUFBIX_clean_sbu_0, # of connection points: 6
#     Node 28, Type 0, BuildingBlock: JUFBIX_clean_sbu_0, # of connection points: 6
#     Node 29, Type 0, BuildingBlock: JUFBIX_clean_sbu_0, # of connection points: 6
#     Node 30, Type 0, BuildingBlock: JUFBIX_clean_sbu_0, # of connection points: 6
#     Node 31, Type 0, BuildingBlock: JUFBIX_clean_sbu_0, # of connection points: 6
#     Node 32, Type 0, BuildingBlock: JUFBIX_clean_sbu_0, # of connection points: 6
#     Node 33, Type 0, BuildingBlock: JUFBIX_clean_sbu_0, # of connection points: 6
#     Node 34, Type 0, BuildingBlock: JUFBIX_clean_sbu_0, # of connection points: 6
#     Node 35, Type 0, BuildingBlock: JUFBIX_clean_sbu_0, # of connection points: 6
#     Edge 36, Type (0, 0), None
#     Edge 37, Type (0, 0), None
#     Edge 38, Type (0, 0), None
#     Edge 39, Type (0, 0), None
#     Edge 40, Type (0, 0), None
#     Edge 41, Type (0, 0), None
#     Edge 42, Type (0, 0), None
#     Edge 43, Type (0, 0), None
#     Edge 44, Type (0, 0), None
#     Edge 45, Type (0, 0), None
#     Edge 46, Type (0, 0), None
#     Edge 47, Type (0, 0), None
#     Edge 48, Type (0, 0), None
#     Edge 49, Type (0, 0), None
#     Edge 50, Type (0, 0), None
#     Edge 51, Type (0, 0), None
#     Edge 52, Type (0, 0), None
#     Edge 53, Type (0, 0), None
#     Edge 54, Type (0, 0), None
#     Edge 55, Type (0, 0), None
#     Edge 56, Type (0, 0), None
#     Edge 57, Type (0, 0), None
#     Edge 58, Type (0, 0), None
#     Edge 59, Type (0, 0), None
#     Edge 60, Type (0, 0), None
#     Edge 61, Type (0, 0), None
#     Edge 62, Type (0, 0), None
#     Edge 63, Type (0, 0), None
#     Edge 64, Type (0, 0), None
#     Edge 65, Type (0, 0), None
#     Edge 66, Type (0, 0), None
#     Edge 67, Type (0, 0), None
#     Edge 68, Type (0, 0), None
#     Edge 69, Type (0, 0), None
#     Edge 70, Type (0, 0), None
#     Edge 71, Type (0, 0), None
#     Edge 72, Type (0, 0), None
#     Edge 73, Type (0, 0), None
#     Edge 74, Type (0, 0), None
#     Edge 75, Type (0, 0), None
#     Edge 76, Type (0, 0), None
#     Edge 77, Type (0, 0), None
#     Edge 78, Type (0, 0), None
#     Edge 79, Type (0, 0), None
#     Edge 80, Type (0, 0), None
#     Edge 81, Type (0, 0), None
#     Edge 82, Type (0, 0), None
#     Edge 83, Type (0, 0), None
#     Edge 84, Type (0, 0), None
#     Edge 85, Type (0, 0), None
#     Edge 86, Type (0, 0), None
#     Edge 87, Type (0, 0), None
#     Edge 88, Type (0, 0), None
#     Edge 89, Type (0, 0), None
#     Edge 90, Type (0, 0), None
#     Edge 91, Type (0, 0), None
#     Edge 92, Type (0, 0), None
#     Edge 93, Type (0, 0), None
#     Edge 94, Type (0, 0), None
#     Edge 95, Type (0, 0), None
#     Edge 96, Type (0, 0), None
#     Edge 97, Type (0, 0), None
#     Edge 98, Type (0, 0), None
#     Edge 99, Type (0, 0), None
#     Edge 100, Type (0, 0), None
#     Edge 101, Type (0, 0), None
#     Edge 102, Type (0, 0), None
#     Edge 103, Type (0, 0), None
#     Edge 104, Type (0, 0), None
#     Edge 105, Type (0, 0), None
#     Edge 106, Type (0, 0), None
#     Edge 107, Type (0, 0), None
#     Edge 108, Type (0, 0), None
#     Edge 109, Type (0, 0), None
#     Edge 110, Type (0, 0), None
#     Edge 111, Type (0, 0), None
#     Edge 112, Type (0, 0), None
#     Edge 113, Type (0, 0), None
#     Edge 114, Type (0, 0), None
#     Edge 115, Type (0, 0), None
#     Edge 116, Type (0, 0), None
#     Edge 117, Type (0, 0), None
#     Edge 118, Type (0, 0), None
#     Edge 119, Type (0, 0), None
#     Edge 120, Type (0, 0), None
#     Edge 121, Type (0, 0), None
#     Edge 122, Type (0, 0), None
#     Edge 123, Type (0, 0), None
#     Edge 124, Type (0, 0), None
#     Edge 125, Type (0, 0), None
#     Edge 126, Type (0, 0), None
#     Edge 127, Type (0, 0), None
#     Edge 128, Type (0, 0), None
#     Edge 129, Type (0, 0), None
#     Edge 130, Type (0, 0), None
#     Edge 131, Type (0, 0), None
#     Edge 132, Type (0, 0), None
#     Edge 133, Type (0, 0), None
#     Edge 134, Type (0, 0), None
#     Edge 135, Type (0, 0), None
#     Edge 136, Type (0, 0), None
#     Edge 137, Type (0, 0), None
#     Edge 138, Type (0, 0), None
#     Edge 139, Type (0, 0), None
#     Edge 140, Type (0, 0), None
#     Edge 141, Type (0, 0), None
#     Edge 142, Type (0, 0), None
#     Edge 143, Type (0, 0), None
# Relax obj value: 0.470
# Max RMSD: 0.245
# Mean RMSD: 0.245
data_MOF--net-wne--node1-JUFBIX_clean_sbu_0--edge1-none
_symmetry_space_group_name_H-M    P1
_symmetry_Int_Tables_number       1
_symmetry_cell_setting            triclinic
loop_
_symmetry_equiv_pos_as_xyz
'x, y, z'
_cell_length_a     34.743311
_cell_length_b     34.743264
_cell_length_c     16.732471
_cell_angle_alpha  90.000489
_cell_angle_beta   89.998539
_cell_angle_gamma 120.00027
loop_
_atom_site_label
_atom_site_type_symbol
_atom_site_fract_x
_atom_site_fract_y
_atom_site_fract_z
_atom_type_partial_charge
Co0 Co 0.31356 0.27863 0.10349 0.0
C1 C 0.39682 0.31343 1.01372 0.0
Co2 Co 0.37308 0.2919 0.17187 0.0
C3 C 0.23052 0.28149 0.07389 0.0
C4 C 0.25411 0.26517 0.9683 0.0
N5 N 0.26281 0.27307 1.04701 0.0
N6 N 0.20221 0.27889 1.01515 0.0
C7 C 0.21772 0.26943 0.94857 0.0
H8 H 0.22949 0.29211 0.1343 0.0
H9 H 0.27425 0.25892 0.92687 0.0
C10 C 0.29905 0.26233 0.27297 0.0
N11 N 0.42389 0.30342 0.2278 0.0
C12 C 0.43806 0.27728 0.19782 0.0
C13 C 0.41933 0.29471 0.30641 0.0
N14 N 0.42544 0.24256 0.2456 0.0
C15 C 0.41688 0.25472 0.31695 0.0
C16 C 0.36633 0.36395 0.15525 0.0
O17 O 0.28022 0.26595 0.20928 0.0
O18 O 0.33804 0.26978 0.26535 0.0
O19 O 0.38678 0.34867 0.19438 0.0
O20 O 0.33261 0.33866 0.11441 0.0
O21 O 0.41043 0.31497 0.08313 0.0
H22 H 0.40415 0.30736 0.34613 0.0
H23 H 0.44264 0.27527 0.13453 0.0
O24 O 0.35406 0.2954 1.00345 0.0
O25 O 0.2935 0.21569 0.08857 0.0
O26 O 0.35572 0.23005 0.14594 0.0
C27 C 0.31969 0.20215 0.11148 0.0
H28 H 0.20455 0.26722 0.889 0.0
H29 H 0.40178 0.23329 0.36801 0.0
Co30 Co 0.85605 0.06186 0.10348 0.0
C31 C 0.82125 0.11032 1.01371 0.0
Co32 Co 0.84278 0.10811 0.17186 0.0
C33 C 0.8532 0.97597 0.07389 0.0
C34 C 0.86951 1.01587 0.96829 0.0
N35 N 0.86162 1.01668 1.04701 0.0
N36 N 0.8558 0.95026 1.01515 0.0
C37 C 0.86526 0.97522 0.94856 0.0
H38 H 0.84258 0.96432 0.13429 0.0
H39 H 0.87577 1.04227 0.92686 0.0
C40 C 0.87236 0.06366 0.27297 0.0
N41 N 0.83126 0.1474 0.2278 0.0
C42 C 0.8574 0.18771 0.19782 0.0
C43 C 0.83998 0.15156 0.30641 0.0
N44 N 0.89213 0.20982 0.2456 0.0
C45 C 0.87997 0.1891 0.31695 0.0
C46 C 0.77074 1.02932 0.15525 0.0
O47 O 0.86873 1.04121 0.20927 0.0
O48 O 0.86491 0.0952 0.26534 0.0
O49 O 0.78601 0.06504 0.19438 0.0
O50 O 0.79603 1.02088 0.11441 0.0
O51 O 0.81971 0.12239 0.08313 0.0
H52 H 0.82732 0.12373 0.34613 0.0
H53 H 0.85942 0.19431 0.13453 0.0
O54 O 0.83928 0.08559 1.00345 0.0
O55 O 0.919 0.10475 0.08856 0.0
O56 O 0.90464 0.15261 0.14594 0.0
C57 C 0.93253 0.14447 0.11148 0.0
H58 H 0.86747 0.96426 0.889 0.0
H59 H 0.90139 0.19542 0.36801 0.0
Co60 Co 1.07282 0.82112 0.10349 0.0
C61 C 1.02437 0.73787 1.01372 0.0
Co62 Co 1.02658 0.76161 0.17187 0.0
C63 C 0.15872 0.90416 0.07389 0.0
C64 C 0.11882 0.88058 0.9683 0.0
N65 N 0.118 0.87187 1.04701 0.0
N66 N 0.18442 0.93247 1.01515 0.0
C67 C 0.15947 0.91697 0.94857 0.0
H68 H 0.17036 0.90519 0.1343 0.0
H69 H 0.09242 0.86044 0.92686 0.0
C70 C 1.07103 0.83563 0.27297 0.0
N71 N 0.98728 0.71079 0.2278 0.0
C72 C 0.94698 0.69663 0.19782 0.0
C73 C 0.98313 0.71536 0.30641 0.0
N74 N 0.92486 0.70924 0.2456 0.0
C75 C 0.94559 0.7178 0.31695 0.0
C76 C 0.10537 0.76835 0.15525 0.0
O77 O 0.09348 0.85446 0.20927 0.0
O78 O 1.03949 0.79664 0.26535 0.0
O79 O 1.06964 0.7479 0.19438 0.0
O80 O 0.1138 0.80208 0.11441 0.0
O81 O 1.01229 0.72425 0.08313 0.0
H82 H 1.01095 0.73053 0.34614 0.0
H83 H 0.94038 0.69204 0.13453 0.0
O84 O 1.04909 0.78062 1.00345 0.0
O85 O 1.02994 0.84118 0.08857 0.0
O86 O 0.98208 0.77897 0.14594 0.0
C87 C 0.99022 0.815 0.11148 0.0
H88 H 0.17043 0.93014 0.889 0.0
H89 H 0.93926 0.73291 0.36801 0.0
Co90 Co 0.30557 0.28661 0.5249 0.0
C91 C 0.34039 0.36988 0.61468 0.0
Co92 Co 0.31885 0.34614 0.45653 0.0
C93 C 0.30839 0.20356 0.55451 0.0
C94 C 0.29212 0.22718 0.66011 0.0
N95 N 0.29999 0.23587 0.58139 0.0
N96 N 0.30581 0.17526 0.61326 0.0
C97 C 0.29638 0.19079 0.67985 0.0
H98 H 0.319 0.20252 0.4941 0.0
H99 H 0.28589 0.24733 0.70155 0.0
C100 C 0.28927 0.27212 0.35545 0.0
N101 N 0.33038 0.39696 0.40059 0.0
C102 C 0.30424 0.41112 0.43057 0.0
C103 C 0.32167 0.3924 0.32198 0.0
N104 N 0.26951 0.39851 0.38278 0.0
C105 C 0.28168 0.38995 0.31143 0.0
C106 C 0.39088 0.33936 0.47311 0.0
O107 O 0.29288 0.25326 0.41912 0.0
O108 O 0.29672 0.31111 0.36305 0.0
O109 O 0.37562 0.35983 0.434 0.0
O110 O 0.36559 0.30564 0.51397 0.0
O111 O 0.34193 0.3835 0.54527 0.0
H112 H 0.33434 0.37724 0.28225 0.0
H113 H 0.30222 0.4157 0.49385 0.0
O114 O 0.32235 0.32712 0.62494 0.0
O115 O 0.24263 0.26657 0.53983 0.0
O116 O 0.257 0.32879 0.48247 0.0
C117 C 0.2291 0.29276 0.51692 0.0
H118 H 0.29418 0.17763 0.73942 0.0
H119 H 0.26026 0.37484 0.26037 0.0
Co120 Co 0.84807 1.04589 0.5249 0.0
C121 C 0.76481 0.99744 0.61468 0.0
Co122 Co 0.78855 0.99965 0.45652 0.0
C123 C 0.93112 0.13177 0.5545 0.0
C124 C 0.90751 0.09188 0.6601 0.0
N125 N 0.89882 0.09106 0.58138 0.0
N126 N 0.95942 0.15748 0.61326 0.0
C127 C 0.9439 0.13252 0.67984 0.0
H128 H 0.93216 0.14342 0.4941 0.0
H129 H 0.88735 0.06549 0.70154 0.0
C130 C 0.86256 1.04408 0.35545 0.0
N131 N 0.73772 0.96036 0.40059 0.0
C132 C 0.72356 0.92005 0.43057 0.0
C133 C 0.74229 0.95621 0.32198 0.0
N134 N 0.73618 0.89794 0.38278 0.0
C135 C 0.74474 0.91867 0.31143 0.0
C136 C 0.79533 0.07846 0.47311 0.0
O137 O 0.88142 0.06655 0.41912 0.0
O138 O 0.82358 1.01254 0.36304 0.0
O139 O 0.77486 1.04273 0.434 0.0
O140 O 0.82904 0.08688 0.51396 0.0
O141 O 0.75119 0.98537 0.54526 0.0
H142 H 0.75745 0.98403 0.28225 0.0
H143 H 0.71898 0.91345 0.49385 0.0
O144 O 0.80756 1.02216 0.62494 0.0
O145 O 0.86812 1.00299 0.53982 0.0
O146 O 0.80589 0.95514 0.48247 0.0
C147 C 0.84193 0.96328 0.51692 0.0
H148 H 0.95705 0.14348 0.73942 0.0
H149 H 0.75984 0.91234 0.26037 0.0
Co150 Co 0.0888 0.82911 0.5249 0.0
C151 C 0.13724 0.7943 0.61468 0.0
Co152 Co 0.13504 0.81583 0.45652 0.0
C153 C 1.00292 0.82629 0.55451 0.0
C154 C 1.04281 0.84256 0.66011 0.0
N155 N 1.04363 0.83469 0.58139 0.0
N156 N 0.97721 0.82888 0.61326 0.0
C157 C 1.00216 0.83831 0.67984 0.0
H158 H 0.99127 0.81568 0.4941 0.0
H159 H 1.06919 0.8488 0.70155 0.0
C160 C 0.0906 0.84541 0.35545 0.0
N161 N 0.17433 0.8043 0.40059 0.0
C162 C 0.21464 0.83045 0.43056 0.0
C163 C 0.17848 0.81302 0.32198 0.0
N164 N 0.23674 0.86517 0.38278 0.0
C165 C 0.21602 0.85301 0.31143 0.0
C166 C 1.05622 0.7438 0.47311 0.0
O167 O 1.06814 0.84181 0.41912 0.0
O168 O 0.12214 0.83797 0.36304 0.0
O169 O 0.09196 0.75906 0.434 0.0
O170 O 1.04781 0.7691 0.51397 0.0
O171 O 0.14931 0.79275 0.54526 0.0
H172 H 0.15065 0.80035 0.28225 0.0
H173 H 0.22123 0.83246 0.49385 0.0
O174 O 0.11252 0.81234 0.62494 0.0
O175 O 0.13169 0.89206 0.53982 0.0
O176 O 0.17955 0.87769 0.48247 0.0
C177 C 0.17141 0.90558 0.51692 0.0
H178 H 0.9912 0.8405 0.73942 0.0
H179 H 0.22234 0.87444 0.26037 0.0
Co180 Co 0.78856 0.8159 0.95651 0.0
C181 C 0.86259 0.84543 0.85542 0.0
Co182 Co 0.84807 0.82911 1.02489 0.0
C183 C 0.72367 0.83062 0.93047 0.0
C184 C 0.74237 0.81315 0.8219 0.0
N185 N 0.73777 0.80442 0.90051 0.0
N186 N 0.73636 0.86537 0.8827 0.0
C187 C 0.74493 0.8532 0.81137 0.0
H188 H 0.71905 0.83263 0.99375 0.0
H189 H 0.75749 0.80044 0.78216 0.0
C190 C 0.7648 0.79435 0.11466 0.0
N191 N 0.89879 0.83463 0.08136 0.0
C192 C 0.93105 0.82616 1.05449 0.0
C193 C 0.90752 0.84256 0.16007 0.0
N194 N 0.95931 0.82869 0.11326 0.0
C195 C 0.94388 0.83825 0.17982 0.0
C196 C 0.84203 0.90564 1.0169 0.0
O197 O 0.75119 0.79286 1.04526 0.0
O198 O 0.80756 0.81234 0.12492 0.0
O199 O 0.86816 0.89205 1.03986 0.0
O200 O 0.80599 0.87779 0.98242 0.0
O201 O 0.88141 0.84179 0.91911 0.0
H202 H 0.88742 0.84888 0.20149 0.0
H203 H 0.93208 0.81554 0.99408 0.0
O204 O 0.8236 0.83799 0.86305 0.0
O205 O 0.7748 0.7591 0.93404 0.0
O206 O 0.829 0.76908 1.01392 0.0
C207 C 0.79525 0.7438 0.97311 0.0
H208 H 0.76009 0.87463 0.76033 0.0
H209 H 0.95708 0.8405 0.23937 0.0
Co210 Co 0.31879 0.99959 0.95652 0.0
C211 C 0.28926 1.04409 0.85543 0.0
Co212 Co 0.30558 1.04589 1.02489 0.0
C213 C 0.30406 0.91998 0.93047 0.0
C214 C 0.32153 0.95615 0.8219 0.0
N215 N 0.33026 0.96027 0.90051 0.0
N216 N 0.26932 0.89793 0.88271 0.0
C217 C 0.28149 0.91866 0.81137 0.0
H218 H 0.30206 0.91336 0.99375 0.0
H219 H 0.33425 0.98398 0.78216 0.0
C220 C 0.34033 0.99738 0.11467 0.0
N221 N 0.30005 0.09109 0.08137 0.0
C222 C 0.30852 0.13182 1.05449 0.0
C223 C 0.29213 0.0919 0.16008 0.0
N224 N 0.306 0.15755 0.11326 0.0
C225 C 0.29643 0.13256 0.17982 0.0
C226 C 0.22904 0.96332 1.01691 0.0
O227 O 0.34182 0.98526 1.04526 0.0
O228 O 0.32235 1.02215 0.12492 0.0
O229 O 0.24263 1.00304 1.03987 0.0
O230 O 0.2569 0.95513 0.98242 0.0
O231 O 0.29289 0.06655 0.91912 0.0
H232 H 0.28581 0.06547 0.20149 0.0
H233 H 0.31914 0.14346 0.99409 0.0
O234 O 0.2967 1.01255 0.86306 0.0
O235 O 0.37559 1.04263 0.93404 0.0
O236 O 0.3656 0.08685 1.01393 0.0
C237 C 0.39088 0.07838 0.97312 0.0
H238 H 0.26006 0.91239 0.76034 0.0
H239 H 0.29418 0.14351 0.23938 0.0
Co240 Co 0.13509 0.34613 0.95651 0.0
C241 C 0.09059 0.2721 0.85542 0.0
Co242 Co 0.08879 0.28662 1.02489 0.0
C243 C 0.21471 0.41102 0.93047 0.0
C244 C 0.17854 0.39232 0.82189 0.0
N245 N 0.17441 0.39692 0.90051 0.0
N246 N 0.23676 0.39832 0.8827 0.0
C247 C 0.21602 0.38976 0.81137 0.0
H248 H 0.22132 0.41563 0.99375 0.0
H249 H 0.15071 0.3772 0.78216 0.0
C250 C 0.1373 0.36988 0.11466 0.0
N251 N 1.04359 0.23589 0.08137 0.0
C252 C 1.00286 0.20364 1.05449 0.0
C253 C 1.04279 0.22717 0.16007 0.0
N254 N 0.97713 0.17538 0.11326 0.0
C255 C 1.00212 0.1908 0.17982 0.0
C256 C 0.17136 0.29265 1.0169 0.0
O257 O 0.14942 0.3835 1.04526 0.0
O258 O 0.11253 0.32713 0.12492 0.0
O259 O 0.13164 0.26652 1.03986 0.0
O260 O 0.17955 0.3287 0.98242 0.0
O261 O 1.06813 0.25327 0.91911 0.0
H262 H 1.06921 0.24727 0.20149 0.0
H263 H 0.99122 0.20261 0.99408 0.0
O264 O 0.12213 0.31108 0.86305 0.0
O265 O 0.09205 0.35989 0.93404 0.0
O266 O 1.04784 0.30569 1.01392 0.0
C267 C 1.0563 0.33943 0.97311 0.0
H268 H 0.2223 0.3746 0.76033 0.0
H269 H 0.99117 0.1776 0.23937 0.0
Co270 Co 0.84284 0.7616 0.67187 0.0
C271 C 0.87235 0.83562 0.77294 0.0
Co272 Co 0.85605 0.82112 0.60349 0.0
C273 C 0.85758 0.69672 0.69787 0.0
C274 C 0.84008 0.71539 0.80645 0.0
N275 N 0.83137 0.7108 0.72784 0.0
N276 N 0.89232 0.70941 0.74566 0.0
C277 C 0.88013 0.71796 0.81699 0.0
H278 H 0.8596 0.69212 0.6346 0.0
H279 H 0.82736 0.7305 0.84618 0.0
C280 C 0.82131 0.73787 0.51371 0.0
N281 N 0.86156 0.87185 0.54702 0.0
C282 C 0.85308 0.9041 0.5739 0.0
C283 C 0.86951 0.88059 0.46832 0.0
N284 N 0.85561 0.93236 0.51514 0.0
C285 C 0.8652 0.91696 0.44858 0.0
C286 C 0.93259 0.8151 0.6115 0.0
O287 O 0.81984 0.72426 0.58311 0.0
O288 O 0.83927 0.78062 0.50346 0.0
O289 O 0.91899 0.84122 0.5885 0.0
O290 O 0.90474 0.77906 0.64601 0.0
O291 O 0.86874 0.85448 0.70926 0.0
H292 H 0.87585 0.8605 0.4269 0.0
H293 H 0.84245 0.90511 0.6343 0.0
O294 O 0.86489 0.79663 0.76535 0.0
O295 O 0.78603 0.74781 0.6943 0.0
O296 O 0.79602 0.80204 0.61447 0.0
C297 C 0.77074 0.76827 0.65523 0.0
H298 H 0.90156 0.73312 0.86804 0.0
H299 H 0.86747 0.93017 0.38903 0.0
Co300 Co 0.37308 0.10817 0.67187 0.0
C301 C 0.29907 0.06366 0.77294 0.0
Co302 Co 0.31356 0.06186 0.60349 0.0
C303 C 0.43797 0.18779 0.69788 0.0
C304 C 0.41929 0.15163 0.80646 0.0
N305 N 0.42388 0.1475 0.72784 0.0
N306 N 0.42527 0.20984 0.74566 0.0
C307 C 0.41672 0.1891 0.817 0.0
H308 H 0.44257 0.19441 0.6346 0.0
H309 H 0.40418 0.12379 0.84619 0.0
C310 C 0.39682 0.11038 0.51371 0.0
N311 N 0.26284 1.01665 0.54702 0.0
C312 C 0.23059 0.97591 0.5739 0.0
C313 C 0.2541 1.01585 0.46833 0.0
N314 N 0.20232 0.95018 0.51514 0.0
C315 C 0.21773 0.97518 0.44859 0.0
C316 C 0.31958 0.14442 0.61151 0.0
O317 O 0.41043 0.12251 0.58311 0.0
O318 O 0.35407 0.08559 0.50346 0.0
O319 O 0.29346 0.1047 0.58851 0.0
O320 O 0.35562 0.15261 0.64601 0.0
O321 O 0.28021 1.0412 0.70927 0.0
H322 H 0.27418 1.04228 0.42691 0.0
H323 H 0.22958 0.96427 0.63431 0.0
O324 O 0.33805 0.0952 0.76536 0.0
O325 O 0.38687 0.06515 0.6943 0.0
O326 O 0.33265 1.02091 0.61447 0.0
C327 C 0.36642 1.0294 0.65523 0.0
H328 H 0.40157 0.19538 0.86804 0.0
H329 H 0.20452 0.96424 0.38904 0.0
Co330 Co 1.02652 0.29185 0.67187 0.0
C331 C 1.07102 0.26234 0.77294 0.0
Co332 Co 1.07283 0.27864 0.60349 0.0
C333 C 0.94689 0.27711 0.69788 0.0
C334 C 0.98306 0.2946 0.80646 0.0
N335 N 0.98719 0.30332 0.72784 0.0
N336 N 0.92485 0.24237 0.74566 0.0
C337 C 0.94558 0.25455 0.817 0.0
H338 H 0.94028 0.27509 0.6346 0.0
H339 H 1.01089 0.30732 0.84619 0.0
C340 C 1.02431 0.31338 0.51371 0.0
N341 N 0.11804 0.27312 0.54702 0.0
C342 C 0.15877 0.28161 0.5739 0.0
C343 C 0.11884 0.26518 0.46832 0.0
N344 N 0.1845 0.27907 0.51514 0.0
C345 C 0.15951 0.26949 0.44858 0.0
C346 C 0.99027 0.2021 0.61151 0.0
O347 O 1.01217 0.31485 0.58311 0.0
O348 O 1.0491 0.29541 0.50346 0.0
O349 O 1.02998 0.21569 0.58851 0.0
O350 O 0.98207 0.22994 0.64601 0.0
O351 O 0.09348 0.26594 0.70926 0.0
H352 H 0.09241 0.25884 0.4269 0.0
H353 H 0.17041 0.29224 0.6343 0.0
O354 O 1.03949 0.26979 0.76536 0.0
O355 O 1.06954 0.34866 0.6943 0.0
O356 O 0.11377 0.33867 0.61447 0.0
C357 C 0.10528 0.36395 0.65523 0.0
H358 H 0.93931 0.23312 0.86804 0.0
H359 H 0.17045 0.26722 0.38903 0.0
Co360 Co 0.98023 0.61197 0.43686 0.0
C361 C 1.06349 0.6468 0.34706 0.0
Co362 Co 1.03975 0.62525 0.50522 0.0
C363 C 0.89719 0.61483 0.40729 0.0
C364 C 0.92067 0.59836 0.30174 0.0
N365 N 0.92946 0.60638 0.38041 0.0
N366 N 0.8688 0.6121 0.34861 0.0
C367 C 0.88424 0.60256 0.28205 0.0
H368 H 0.89622 0.62554 0.46765 0.0
H369 H 0.94078 0.59204 0.26032 0.0
C370 C 0.96572 0.59565 0.60633 0.0
N371 N 0.09056 0.63677 0.56116 0.0
C372 C 0.10473 0.61062 0.53117 0.0
C373 C 0.08599 0.62804 0.63977 0.0
N374 N 0.09211 0.57589 0.57894 0.0
C375 C 0.08353 0.58804 0.65029 0.0
C376 C 1.03295 0.69727 0.4887 0.0
O377 O 0.94689 0.59929 0.54265 0.0
O378 O 1.0047 0.60309 0.59869 0.0
O379 O 1.05343 0.68201 0.52778 0.0
O380 O 0.99925 0.67199 0.44779 0.0
O381 O 1.07711 0.64835 0.41648 0.0
H382 H 1.07082 0.64069 0.67951 0.0
H383 H 0.10931 0.60862 0.46788 0.0
O384 O 1.02073 0.62875 0.33681 0.0
O385 O 0.96018 0.54903 0.42194 0.0
O386 O 1.02242 0.5634 0.47924 0.0
C387 C 0.98638 0.53551 0.4448 0.0
H388 H 0.87102 0.60026 0.2225 0.0
H389 H 1.06842 0.56661 0.70134 0.0
Co390 Co 0.52271 0.39519 0.43686 0.0
C391 C 0.48789 0.44362 0.34706 0.0
Co392 Co 0.50944 0.44143 0.50522 0.0
C393 C 0.51986 0.3093 0.40729 0.0
C394 C 0.53633 0.34925 0.30174 0.0
N395 N 0.52831 0.35002 0.3804 0.0
N396 N 0.52259 0.28363 0.34861 0.0
C397 C 0.53212 0.30862 0.28204 0.0
H398 H 0.50915 0.29762 0.46765 0.0
H399 H 0.54264 0.37566 0.26031 0.0
C400 C 0.53903 0.397 0.60633 0.0
N401 N 0.49792 0.48073 0.56116 0.0
C402 C 0.52406 0.52104 0.53117 0.0
C403 C 0.50665 0.48489 0.63977 0.0
N404 N 0.55879 0.54315 0.57894 0.0
C405 C 0.54664 0.52243 0.65029 0.0
C406 C 0.43741 0.36261 0.4887 0.0
O407 O 0.5354 0.37454 0.54264 0.0
O408 O 0.53159 0.42855 0.59869 0.0
O409 O 0.45268 0.39835 0.52779 0.0
O410 O 0.46269 0.35419 0.44779 0.0
O411 O 0.48634 0.4557 0.41648 0.0
H412 H 0.49399 0.45706 0.67951 0.0
H413 H 0.52607 0.52763 0.46788 0.0
O414 O 0.50593 0.4189 0.33681 0.0
O415 O 0.58565 0.43808 0.42194 0.0
O416 O 0.57128 0.48594 0.47923 0.0
C417 C 0.59918 0.4778 0.4448 0.0
H418 H 0.53442 0.29769 0.2225 0.0
H419 H 0.56808 0.52875 0.70134 0.0
Co420 Co 0.7395 0.15446 0.43686 0.0
C421 C 0.69106 0.0712 0.34706 0.0
Co422 Co 0.69325 0.09494 0.50522 0.0
C423 C 0.82539 0.2375 0.40729 0.0
C424 C 0.78544 0.21401 0.30174 0.0
N425 N 0.78467 0.20522 0.38041 0.0
N426 N 0.85105 0.26589 0.34861 0.0
C427 C 0.82607 0.25044 0.28205 0.0
H428 H 0.83707 0.23846 0.46765 0.0
H429 H 0.75902 0.19391 0.26031 0.0
C430 C 0.73768 0.16896 0.60633 0.0
N431 N 0.65395 1.04412 0.56116 0.0
C432 C 0.61365 1.02996 0.53117 0.0
C433 C 0.6498 1.04869 0.63977 0.0
N434 N 0.59154 1.04258 0.57894 0.0
C435 C 0.61226 1.05115 0.65029 0.0
C436 C 0.77207 0.10173 0.4887 0.0
O437 O 0.76015 0.18779 0.54264 0.0
O438 O 0.70614 0.12998 0.59869 0.0
O439 O 0.73633 0.08126 0.52779 0.0
O440 O 0.78049 0.13543 0.44779 0.0
O441 O 0.67899 0.05758 0.41648 0.0
H442 H 0.67762 0.06386 0.67951 0.0
H443 H 0.60706 1.02537 0.46788 0.0
O444 O 0.71578 0.11396 0.33681 0.0
O445 O 0.69661 0.17451 0.42194 0.0
O446 O 0.64874 0.11227 0.47924 0.0
C447 C 0.65688 0.14831 0.4448 0.0
H448 H 0.837 0.26367 0.2225 0.0
H449 H 0.60593 0.06626 0.70134 0.0
Co450 Co 0.97224 0.61994 0.85824 0.0
C451 C 1.00703 0.70322 0.94801 0.0
Co452 Co 0.98549 0.67948 0.7899 0.0
C453 C 0.97514 0.53693 0.88784 0.0
C454 C 0.95879 0.5605 0.99342 0.0
N455 N 0.96672 0.56922 0.91472 0.0
N456 N 0.97251 0.50861 0.94657 0.0
C457 C 0.96303 0.5241 1.01315 0.0
H458 H 0.98578 0.53591 0.82745 0.0
H459 H 0.95251 0.58063 1.03485 0.0
C460 C 0.95595 0.60545 0.68882 0.0
N461 N 0.99693 0.73029 0.73394 0.0
C462 C 0.97067 0.74431 0.76392 0.0
C463 C 0.9882 0.72567 0.65532 0.0
N464 N 0.9359 0.73149 0.71616 0.0
C465 C 0.9481 0.723 0.64479 0.0
C466 C 1.05755 0.67277 0.80645 0.0
O467 O 0.95955 0.58659 0.75248 0.0
O468 O 0.96338 0.64443 0.69642 0.0
O469 O 1.04227 0.69324 0.76737 0.0
O470 O 1.03227 0.63902 0.84724 0.0
O471 O 1.00854 0.71684 0.87861 0.0
H472 H 1.00096 0.71059 0.61562 0.0
H473 H 0.96866 0.74891 0.8272 0.0
O474 O 0.98903 0.66047 0.95826 0.0
O475 O 0.90929 0.59983 0.87322 0.0
O476 O 0.92361 0.66204 0.81591 0.0
C477 C 0.89574 0.626 0.85036 0.0
H478 H 0.96079 0.51091 0.07271 0.0
H479 H 0.92666 0.70779 0.59377 0.0
Co480 Co 0.51474 0.37923 0.85823 0.0
C481 C 0.43146 0.33074 0.94801 0.0
Co482 Co 0.4552 0.33294 0.7899 0.0
C483 C 0.59775 0.46514 0.88784 0.0
C484 C 0.57419 0.42523 0.99342 0.0
N485 N 0.56546 0.42443 0.91472 0.0
N486 N 0.62608 0.49083 0.94657 0.0
C487 C 0.61059 0.46587 1.01315 0.0
H488 H 0.59877 0.4768 0.82744 0.0
H489 H 0.55406 0.39882 1.03484 0.0
C490 C 0.52924 0.37743 0.68881 0.0
N491 N 0.40439 0.29358 0.73394 0.0
C492 C 0.39038 0.2533 0.76392 0.0
C493 C 0.40901 0.28945 0.65532 0.0
N494 N 0.4032 0.23135 0.71616 0.0
C495 C 0.41168 0.25203 0.64479 0.0
C496 C 0.46191 0.41171 0.80645 0.0
O497 O 0.5481 0.3999 0.75248 0.0
O498 O 0.49025 0.34588 0.69641 0.0
O499 O 0.44145 0.37597 0.76736 0.0
O500 O 0.49566 0.42018 0.84724 0.0
O501 O 0.41784 0.31863 0.87861 0.0
H502 H 0.42409 0.31729 0.61561 0.0
H503 H 0.38577 0.24668 0.8272 0.0
O504 O 0.47422 0.3555 0.95826 0.0
O505 O 0.53486 0.3364 0.87321 0.0
O506 O 0.47264 0.2885 0.8159 0.0
C507 C 0.50868 0.29667 0.85035 0.0
H508 H 0.62378 0.47681 0.07271 0.0
H509 H 0.42689 0.2458 0.59377 0.0
Co510 Co 0.75545 0.16244 0.85823 0.0
C511 C 0.80394 0.12765 0.948 0.0
Co512 Co 0.80174 0.1492 0.78989 0.0
C513 C 0.66954 0.15954 0.88784 0.0
C514 C 0.70946 0.17589 0.99342 0.0
N515 N 0.71026 0.16797 0.91472 0.0
N516 N 0.64385 0.16218 0.94657 0.0
C517 C 0.66881 0.17165 1.01315 0.0
H518 H 0.65789 0.14891 0.82744 0.0
H519 H 0.73586 0.18217 1.03485 0.0
C520 C 0.75725 0.17874 0.68881 0.0
N521 N 0.84111 0.13775 0.73393 0.0
C522 C 0.88139 0.16401 0.76391 0.0
C523 C 0.84523 0.14649 0.65532 0.0
N524 N 0.90334 0.19878 0.71615 0.0
C525 C 0.88266 0.18659 0.64478 0.0
C526 C 0.72297 0.07713 0.80644 0.0
O527 O 0.73479 0.17513 0.75248 0.0
O528 O 0.7888 0.17131 0.69641 0.0
O529 O 0.75872 0.09241 0.76736 0.0
O530 O 0.71451 0.10242 0.84724 0.0
O531 O 0.81606 0.12615 0.8786 0.0
H532 H 0.81739 0.13373 0.61561 0.0
H533 H 0.888 0.16602 0.82719 0.0
O534 O 0.77919 0.14566 0.95826 0.0
O535 O 0.79829 0.22539 0.87321 0.0
O536 O 0.84618 0.21107 0.8159 0.0
C537 C 0.83802 0.23895 0.85035 0.0
H538 H 0.65787 0.17389 0.07271 0.0
H539 H 0.88888 0.20803 0.59377 0.0
Co540 Co 0.45522 0.14926 0.28989 0.0
C541 C 0.52926 0.17875 0.18878 0.0
Co542 Co 0.51473 0.16243 0.35822 0.0
C543 C 0.39048 0.16419 0.26383 0.0
C544 C 0.40909 0.14663 0.15524 0.0
N545 N 0.40444 0.13787 0.23386 0.0
N546 N 0.40338 0.19897 0.21608 0.0
C547 C 0.41187 0.18678 0.14472 0.0
H548 H 0.38584 0.16618 0.32709 0.0
H549 H 0.42413 0.13382 0.11552 0.0
C550 C 0.43146 0.12771 0.448 0.0
N551 N 0.56544 0.16791 0.4147 0.0
C552 C 0.59768 0.15941 0.38782 0.0
C553 C 0.5742 0.17589 0.49339 0.0
N554 N 0.62597 0.16199 0.44657 0.0
C555 C 0.61058 0.1716 0.51312 0.0
C556 C 0.50879 0.23901 0.35033 0.0
O557 O 0.41785 0.12626 0.37861 0.0
O558 O 0.47421 0.14565 0.45824 0.0
O559 O 0.5349 0.22539 0.37325 0.0
O560 O 0.47274 0.21118 0.31585 0.0
O561 O 0.54809 0.17512 0.25247 0.0
H562 H 0.55413 0.18225 0.53479 0.0
H563 H 0.59868 0.14877 0.32743 0.0
O564 O 0.49028 0.17132 0.19642 0.0
O565 O 0.44138 0.09244 0.26741 0.0
O566 O 0.49561 0.1024 0.3472 0.0
C567 C 0.46184 0.07714 0.30645 0.0
H568 H 0.42713 0.20822 0.09374 0.0
H569 H 0.6238 0.1739 0.57266 0.0
Co570 Co 0.98542 0.33289 0.28989 0.0
C571 C 0.95594 0.37744 0.18879 0.0
Co572 Co 0.97225 0.37924 0.35823 0.0
C573 C 0.9705 0.25323 0.26382 0.0
C574 C 0.98806 0.2894 0.15524 0.0
N575 N 0.99682 0.2935 0.23386 0.0
N576 N 0.93571 0.23134 0.21608 0.0
C577 C 0.94791 0.25203 0.14472 0.0
H578 H 0.9685 0.24659 0.32709 0.0
H579 H 1.00087 0.31724 0.11552 0.0
C580 C 1.00698 0.33068 0.448 0.0
N581 N 0.96678 0.42446 0.41471 0.0
C582 C 0.97527 0.4652 0.38783 0.0
C583 C 0.9588 0.42525 0.49339 0.0
N584 N 0.9727 0.49091 0.44658 0.0
C585 C 0.96309 0.46591 0.51313 0.0
C586 C 0.89568 0.29672 0.35034 0.0
O587 O 1.00842 0.31851 0.37861 0.0
O588 O 0.98903 0.35549 0.45824 0.0
O589 O 0.9093 0.33645 0.37326 0.0
O590 O 0.92351 0.2885 0.31585 0.0
O591 O 0.95957 0.3999 0.25248 0.0
H592 H 0.95244 0.39881 0.5348 0.0
H593 H 0.98592 0.47685 0.32743 0.0
O594 O 0.96337 0.34589 0.19643 0.0
O595 O 1.04224 0.37587 0.26741 0.0
O596 O 1.03228 0.42015 0.3472 0.0
C597 C 1.05755 0.41163 0.30645 0.0
H598 H 0.92647 0.24585 0.09374 0.0
H599 H 0.96079 0.47684 0.57267 0.0
Co600 Co 0.8018 0.67947 0.28988 0.0
C601 C 0.75724 0.60543 0.18878 0.0
Co602 Co 0.75545 0.61995 0.35822 0.0
C603 C 0.88146 0.74421 0.26382 0.0
C604 C 0.84529 0.72559 0.15524 0.0
N605 N 0.84119 0.73025 0.23385 0.0
N606 N 0.90335 0.73131 0.21608 0.0
C607 C 0.88266 0.72281 0.14472 0.0
H608 H 0.88809 0.74885 0.32709 0.0
H609 H 0.81745 0.71056 0.11552 0.0
C610 C 0.804 0.70323 0.44799 0.0
N611 N 0.71022 0.56925 0.4147 0.0
C612 C 0.66949 0.53701 0.38782 0.0
C613 C 0.70944 0.56049 0.49339 0.0
N614 N 0.64377 0.50872 0.44657 0.0
C615 C 0.66877 0.52411 0.51312 0.0
C616 C 0.83797 0.6259 0.35033 0.0
O617 O 0.81617 0.71684 0.3786 0.0
O618 O 0.7792 0.66047 0.45824 0.0
O619 O 0.79824 0.59979 0.37325 0.0
O620 O 0.84619 0.66195 0.31585 0.0
O621 O 0.73478 0.5866 0.25247 0.0
H622 H 0.73588 0.58056 0.53479 0.0
H623 H 0.65784 0.536 0.32743 0.0
O624 O 0.78879 0.64441 0.19642 0.0
O625 O 0.75881 0.6933 0.2674 0.0
O626 O 0.71454 0.63907 0.3472 0.0
C627 C 0.72305 0.67285 0.30645 0.0
H628 H 0.88884 0.70755 0.09373 0.0
H629 H 0.65784 0.51088 0.57266 0.0
Co630 Co 0.5095 0.09493 1.00522 0.0
C631 C 0.53902 0.16895 0.1063 0.0
Co632 Co 0.52271 0.15446 0.93686 0.0
C633 C 0.52424 1.03005 1.03123 0.0
C634 C 0.50676 1.04873 0.13981 0.0
N635 N 0.49803 1.04413 1.0612 0.0
N636 N 0.55899 1.04275 0.079 0.0
C637 C 0.54681 1.05131 0.15034 0.0
H638 H 0.52625 1.02545 0.96795 0.0
H639 H 0.49403 0.06384 0.17956 0.0
C640 C 0.48794 0.0712 0.84706 0.0
N641 N 0.52825 0.2052 0.88042 0.0
C642 C 0.51974 0.23743 0.9073 0.0
C643 C 0.53632 0.21403 0.80177 0.0
N644 N 0.5224 0.26578 0.8486 0.0
C645 C 0.53207 0.25043 0.78206 0.0
C646 C 0.59923 0.14841 0.94482 0.0
O647 O 0.48647 0.05758 0.91645 0.0
O648 O 0.50592 0.11395 0.83682 0.0
O649 O 0.58565 0.17455 0.92188 0.0
O650 O 0.57138 0.11237 0.9793 0.0
O651 O 0.53541 0.18781 1.04263 0.0
H652 H 0.54272 0.19398 0.76036 0.0
H653 H 0.50901 0.23838 0.96766 0.0
O654 O 0.53158 0.12997 0.0987 0.0
O655 O 0.4527 0.08117 1.02771 0.0
O656 O 0.46268 0.13539 0.94786 0.0
C657 C 0.43742 0.10165 0.98868 0.0
H658 H 0.56824 0.06647 0.20137 0.0
H659 H 0.53443 0.2637 0.72253 0.0
Co660 Co 1.03975 0.4415 1.00522 0.0
C661 C 0.96573 0.39701 0.1063 0.0
Co662 Co 0.98023 0.39518 0.93687 0.0
C663 C 0.10464 0.52112 1.03123 0.0
C664 C 0.08595 0.48496 0.13981 0.0
N665 N 0.09055 0.48083 1.0612 0.0
N666 N 0.09193 0.54317 0.079 0.0
C667 C 0.08337 0.52243 0.15034 0.0
H668 H 0.10924 0.52773 0.96795 0.0
H669 H 1.07085 0.45713 0.17956 0.0
C670 C 1.06349 0.44368 0.84706 0.0
N671 N 0.92949 0.34998 0.88042 0.0
C672 C 0.89726 0.30924 0.9073 0.0
C673 C 0.92066 0.34923 0.80177 0.0
N674 N 0.86891 0.28355 0.8486 0.0
C675 C 0.88426 0.30858 0.78206 0.0
C676 C 0.98627 0.47776 0.94483 0.0
O677 O 1.07711 0.45582 0.91645 0.0
O678 O 1.02073 0.4189 0.83682 0.0
O679 O 0.96014 0.43803 0.92189 0.0
O680 O 1.02232 0.48595 0.9793 0.0
O681 O 0.94688 0.37453 1.04264 0.0
H682 H 0.94071 0.37568 0.76036 0.0
H683 H 0.89631 0.29757 0.96766 0.0
O684 O 1.00472 0.42855 0.09871 0.0
O685 O 1.05352 0.39846 1.02771 0.0
O686 O 0.99929 0.35422 0.94786 0.0
C687 C 1.03304 0.3627 0.98868 0.0
H688 H 1.06822 0.52871 0.20138 0.0
H689 H 0.87099 0.29766 0.72254 0.0
Co690 Co 0.69319 0.62519 1.00522 0.0
C691 C 0.73768 0.59566 0.1063 0.0
Co692 Co 0.7395 0.61198 0.93686 0.0
C693 C 0.61356 0.61045 1.03123 0.0
C694 C 0.64972 0.62793 0.13982 0.0
N695 N 0.65386 0.63666 1.0612 0.0
N696 N 0.59152 0.5757 0.079 0.0
C697 C 0.61225 0.58787 0.15034 0.0
H698 H 0.60695 0.60844 0.96795 0.0
H699 H 0.67755 0.64065 0.17956 0.0
C700 C 0.691 0.64674 0.84706 0.0
N701 N 0.7847 0.60643 0.88042 0.0
C702 C 0.82544 0.61495 0.9073 0.0
C703 C 0.78546 0.59836 0.80177 0.0
N704 N 0.85113 0.61229 0.8486 0.0
C705 C 0.82611 0.60261 0.78206 0.0
C706 C 0.65693 0.53545 0.94482 0.0
O707 O 0.67887 0.64822 0.91646 0.0
O708 O 0.71578 0.62876 0.83682 0.0
O709 O 0.69665 0.54904 0.92188 0.0
O710 O 0.64874 0.5633 0.9793 0.0
O711 O 0.76015 0.59928 1.04263 0.0
H712 H 0.75901 0.59196 0.76036 0.0
H713 H 0.83711 0.62567 0.96766 0.0
O714 O 0.70614 0.60311 0.0987 0.0
O715 O 0.73622 0.68199 1.02771 0.0
O716 O 0.78046 0.672 0.94785 0.0
C717 C 0.77199 0.69727 0.98868 0.0
H718 H 0.60598 0.56644 0.20137 0.0
H719 H 0.83703 0.60026 0.72254 0.0
Co720 Co 0.64689 0.94532 0.77019 0.0
C721 C 0.73016 0.98011 0.6804 0.0
Co722 Co 0.70642 0.95855 0.83851 0.0
C723 C 0.56389 0.94824 0.74063 0.0
C724 C 0.58733 0.9317 0.6351 0.0
N725 N 0.59615 0.93977 0.71374 0.0
N726 N 0.53547 0.94547 0.68196 0.0
C727 C 0.55089 0.93588 0.61541 0.0
H728 H 0.56295 0.95898 0.80097 0.0
H729 H 0.6074 0.92534 0.59368 0.0
C730 C 0.63238 0.92899 0.93963 0.0
N731 N 0.75723 0.96999 0.89448 0.0
C732 C 0.77125 0.94373 0.86448 0.0
C733 C 0.7526 0.96123 0.97309 0.0
N734 N 0.75842 0.90895 0.91222 0.0
C735 C 0.74993 0.92113 0.9836 0.0
C736 C 0.6997 1.0306 0.82203 0.0
O737 O 0.61355 0.93263 0.87595 0.0
O738 O 0.67136 0.93642 0.93199 0.0
O739 O 0.72017 1.01533 0.86108 0.0
O740 O 0.66597 1.00534 0.78118 0.0
O741 O 0.74379 0.98161 0.7498 0.0
H742 H 0.73751 0.97398 1.01281 0.0
H743 H 0.77586 0.94173 0.8012 0.0
O744 O 0.6874 0.9621 0.67015 0.0
O745 O 0.62678 0.88236 0.75522 0.0
O746 O 0.689 0.89669 0.81247 0.0
C747 C 0.65295 0.86881 0.77804 0.0
H748 H 0.53763 0.93354 0.55588 0.0
H749 H 0.73471 0.89969 1.03461 0.0
Co750 Co 0.18937 0.72851 0.77019 0.0
C751 C 0.15458 0.77699 0.6804 0.0
Co752 Co 0.17614 0.77481 0.83851 0.0
C753 C 0.18645 0.64259 0.74062 0.0
C754 C 0.20299 0.68256 0.63509 0.0
N755 N 0.19491 0.68331 0.71374 0.0
N756 N 0.18922 0.61694 0.68196 0.0
C757 C 0.1988 0.64194 0.61541 0.0
H758 H 0.17571 0.6309 0.80097 0.0
H759 H 0.20934 0.70899 0.59367 0.0
C760 C 0.20569 0.73032 0.93963 0.0
N761 N 0.1647 0.81418 0.89448 0.0
C762 C 0.19096 0.85445 0.86449 0.0
C763 C 0.17345 0.8183 0.97309 0.0
N764 N 0.22573 0.87641 0.91223 0.0
C765 C 0.21356 0.85573 0.9836 0.0
C766 C 0.10408 0.69603 0.82203 0.0
O767 O 0.20205 0.70785 0.87595 0.0
O768 O 0.19826 0.76187 0.93198 0.0
O769 O 0.11936 0.73178 0.86108 0.0
O770 O 0.12935 0.68756 0.78118 0.0
O771 O 0.15307 0.78911 0.7498 0.0
H772 H 0.1607 0.79047 1.01281 0.0
H773 H 0.19296 0.86107 0.80121 0.0
O774 O 0.17258 0.75224 0.67015 0.0
O775 O 0.25232 0.77134 0.75521 0.0
O776 O 0.238 0.81925 0.81247 0.0
C777 C 0.26587 0.81108 0.77803 0.0
H778 H 0.20115 0.63102 0.55587 0.0
H779 H 0.235 0.86196 1.03461 0.0
Co780 Co 0.40618 0.48779 0.77019 0.0
C781 C 0.3577 0.40452 0.6804 0.0
Co782 Co 0.35988 0.42826 0.83852 0.0
C783 C 0.4921 0.57079 0.74063 0.0
C784 C 0.45212 0.54736 0.6351 0.0
N785 N 0.45137 0.53853 0.71374 0.0
N786 N 0.51775 0.59921 0.68197 0.0
C787 C 0.49275 0.5838 0.61541 0.0
H788 H 0.50378 0.57174 0.80097 0.0
H789 H 0.42569 0.52728 0.59368 0.0
C790 C 0.40437 0.5023 0.93963 0.0
N791 N 0.32051 0.37746 0.89448 0.0
C792 C 0.28023 0.36344 0.86449 0.0
C793 C 0.31638 0.38209 0.9731 0.0
N794 N 0.25828 0.37626 0.91223 0.0
C795 C 0.27895 0.38476 0.98361 0.0
C796 C 0.43866 0.43498 0.82203 0.0
O797 O 0.42683 0.52114 0.87595 0.0
O798 O 0.37281 0.46333 0.93199 0.0
O799 O 0.40291 0.41451 0.86109 0.0
O800 O 0.44712 0.46872 0.78118 0.0
O801 O 0.34558 0.3909 0.7498 0.0
H802 H 0.34421 0.39717 1.01282 0.0
H803 H 0.27362 0.35883 0.80121 0.0
O804 O 0.38245 0.44728 0.67015 0.0
O805 O 0.36334 0.50791 0.75522 0.0
O806 O 0.31544 0.44569 0.81247 0.0
C807 C 0.32361 0.48173 0.77804 0.0
H808 H 0.50366 0.59706 0.55588 0.0
H809 H 0.27272 0.39998 1.03461 0.0
Co810 Co 0.63892 0.95327 0.19153 0.0
C811 C 0.67373 1.03656 0.28133 0.0
Co812 Co 0.65216 1.01282 0.12321 0.0
C813 C 0.64181 0.87027 0.22111 0.0
C814 C 0.62531 0.89373 0.32664 0.0
N815 N 0.63336 0.90254 0.24799 0.0
N816 N 0.63906 0.84186 0.27978 0.0
C817 C 0.6295 0.85729 0.34634 0.0
H818 H 0.65254 0.86931 0.16076 0.0
H819 H 0.61898 0.91382 0.36807 0.0
C820 C 0.6226 0.93878 1.02212 0.0
N821 N 0.66361 0.06363 0.06724 0.0
C822 C 0.63735 0.07764 0.09723 0.0
C823 C 0.65486 0.059 0.98863 0.0
N824 N 0.60257 0.06482 1.04948 0.0
C825 C 0.61476 0.05632 0.97811 0.0
C826 C 0.72421 1.00606 0.13966 0.0
O827 O 0.62622 0.91992 0.08578 0.0
O828 O 0.63002 0.97776 1.02974 0.0
O829 O 0.70894 1.02655 0.10063 0.0
O830 O 0.69894 0.97234 0.18053 0.0
O831 O 0.67524 1.05019 0.21193 0.0
H832 H 0.66762 1.04393 0.94891 0.0
H833 H 0.63534 0.08225 0.16051 0.0
O834 O 0.65571 0.9938 0.29157 0.0
O835 O 0.57597 0.93317 0.20651 0.0
O836 O 0.5903 0.99541 0.14928 0.0
C837 C 0.56243 0.95936 0.1837 0.0
H838 H 0.62717 0.84405 0.40588 0.0
H839 H 0.59332 1.04111 0.9271 0.0
Co840 Co 0.18141 0.71258 0.19153 0.0
C841 C 0.09813 0.6641 0.28133 0.0
Co842 Co 0.12187 0.66628 0.12321 0.0
C843 C 0.26442 0.79848 0.22111 0.0
C844 C 0.24095 0.75851 0.32664 0.0
N845 N 0.23215 0.75776 0.24799 0.0
N846 N 0.29283 0.82413 0.27978 0.0
C847 C 0.27739 0.79914 0.34634 0.0
H848 H 0.26538 0.81017 0.16076 0.0
H849 H 0.22086 0.73209 0.36806 0.0
C850 C 0.1959 0.71075 1.02212 0.0
N851 N 1.07105 0.62691 0.06724 0.0
C852 C 1.05704 0.58664 0.09723 0.0
C853 C 1.07568 0.62279 0.98863 0.0
N854 N 1.06987 0.56469 1.04949 0.0
C855 C 1.07836 0.58537 0.97811 0.0
C856 C 0.12863 0.74508 0.13966 0.0
O857 O 0.21476 0.73323 0.08577 0.0
O858 O 0.15692 0.6792 1.02973 0.0
O859 O 0.10814 0.70932 0.10063 0.0
O860 O 0.16235 0.75353 0.18053 0.0
O861 O 0.0845 0.65199 0.21193 0.0
H862 H 0.09076 0.65063 0.94891 0.0
H863 H 1.05243 0.58002 0.16051 0.0
O864 O 0.14089 0.68885 0.29157 0.0
O865 O 0.20151 0.66973 0.2065 0.0
O866 O 0.13928 0.62183 0.14928 0.0
C867 C 0.17532 0.63 0.1837 0.0
H868 H 0.29064 0.81006 0.40587 0.0
H869 H 0.09358 0.57914 0.9271 0.0
Co870 Co 0.42211 0.49577 0.19153 0.0
C871 C 0.47058 0.46096 0.28133 0.0
Co872 Co 0.46841 0.48252 0.12321 0.0
C873 C 0.33621 0.49287 0.22111 0.0
C874 C 0.37617 0.50937 0.32664 0.0
N875 N 0.37692 0.50132 0.24799 0.0
N876 N 0.31055 0.49563 0.27978 0.0
C877 C 0.33555 0.50519 0.34634 0.0
H878 H 0.32452 0.48214 0.16076 0.0
H879 H 0.40259 0.51571 0.36807 0.0
C880 C 0.42393 0.51208 1.02212 0.0
N881 N 0.50777 0.47107 0.06724 0.0
C882 C 0.54805 0.49734 0.09723 0.0
C883 C 0.5119 0.47983 0.98863 0.0
N884 N 0.57 0.53211 1.04948 0.0
C885 C 0.54932 0.51993 0.97811 0.0
C886 C 0.3896 0.41048 0.13966 0.0
O887 O 0.40145 0.50846 0.08578 0.0
O888 O 0.45549 0.50466 1.02973 0.0
O889 O 0.42536 0.42574 0.10063 0.0
O890 O 0.38115 0.43575 0.18053 0.0
O891 O 0.48269 0.45944 0.21193 0.0
H892 H 0.48406 0.46707 0.9489 0.0
H893 H 0.55466 0.49934 0.16051 0.0
O894 O 0.44583 0.47897 0.29157 0.0
O895 O 0.46495 0.55871 0.20651 0.0
O896 O 0.51285 0.54438 0.14928 0.0
C897 C 0.50469 0.57226 0.1837 0.0
H898 H 0.32463 0.50752 0.40587 0.0
H899 H 0.55555 0.54137 0.9271 0.0
Co900 Co 0.12188 0.48259 0.6232 0.0
C901 C 0.19593 0.51209 0.52209 0.0
Co902 Co 0.18141 0.49576 0.69152 0.0
C903 C 1.05715 0.49751 0.59714 0.0
C904 C 1.07577 0.47997 0.48855 0.0
N905 N 1.0711 0.4712 0.56716 0.0
N906 N 1.07005 0.53231 0.54941 0.0
C907 C 1.07855 0.52012 0.47805 0.0
H908 H 1.0525 0.4995 0.66041 0.0
H909 H 0.0908 0.46716 0.44881 0.0
C910 C 0.09812 0.46101 0.78132 0.0
N911 N 0.23212 0.50126 0.74797 0.0
C912 C 0.26434 0.49274 0.72109 0.0
C913 C 0.24097 0.50937 0.82661 0.0
N914 N 0.29271 0.49544 0.77978 0.0
C915 C 0.27738 0.50514 0.84631 0.0
C916 C 0.17543 0.57232 0.68368 0.0
O917 O 0.0845 0.45956 0.71193 0.0
O918 O 0.14088 0.47897 0.79155 0.0
O919 O 0.20156 0.55871 0.70654 0.0
O920 O 0.13938 0.54448 0.64922 0.0
O921 O 0.21476 0.50845 0.58576 0.0
H922 H 0.22093 0.5158 0.86801 0.0
H923 H 0.26529 0.482 0.66074 0.0
O924 O 0.15695 0.50468 0.52974 0.0
O925 O 0.10808 0.42578 0.60067 0.0
O926 O 0.1623 0.43573 0.68048 0.0
C927 C 0.12855 0.41048 0.63967 0.0
H928 H 0.09382 0.54157 0.42707 0.0
H929 H 0.29067 0.50752 0.90583 0.0
Co930 Co 0.6521 0.66623 0.6232 0.0
C931 C 0.62259 0.71076 0.52209 0.0
Co932 Co 0.63893 0.71258 0.69152 0.0
C933 C 0.63717 0.58657 0.59714 0.0
C934 C 0.65472 0.62273 0.48855 0.0
N935 N 0.66349 0.62683 0.56716 0.0
N936 N 0.60238 0.56468 0.54941 0.0
C937 C 0.61457 0.58536 0.47805 0.0
H938 H 0.63519 0.57994 0.66041 0.0
H939 H 0.66753 0.65057 0.44881 0.0
C940 C 0.67368 0.66405 0.78132 0.0
N941 N 0.63342 0.75779 0.74797 0.0
C942 C 0.64194 0.79854 0.72109 0.0
C943 C 0.62532 0.75854 0.82661 0.0
N944 N 0.63925 0.82421 0.77978 0.0
C945 C 0.62955 0.79918 0.84631 0.0
C946 C 0.56237 0.63005 0.68368 0.0
O947 O 0.67513 0.65188 0.71193 0.0
O948 O 0.65572 0.68884 0.79155 0.0
O949 O 0.57598 0.66978 0.70655 0.0
O950 O 0.5902 0.62182 0.64923 0.0
O951 O 0.62624 0.73324 0.58577 0.0
H952 H 0.6189 0.73208 0.86801 0.0
H953 H 0.65268 0.81022 0.66074 0.0
O954 O 0.63001 0.67921 0.52975 0.0
O955 O 0.70891 0.70923 0.60067 0.0
O956 O 0.69895 0.7535 0.68049 0.0
C957 C 0.72421 0.74501 0.63967 0.0
H958 H 0.59312 0.57918 0.42707 0.0
H959 H 0.62717 0.81008 0.90583 0.0
Co960 Co 0.46846 1.01281 0.6232 0.0
C961 C 0.42392 0.93876 0.52209 0.0
Co962 Co 0.42211 0.95328 0.69152 0.0
C963 C 0.54812 0.07754 0.59714 0.0
C964 C 0.51195 0.05892 0.48855 0.0
N965 N 0.50785 0.06359 0.56716 0.0
N966 N 0.57001 0.06463 0.54941 0.0
C967 C 0.54932 0.05614 0.47805 0.0
H968 H 0.55475 0.08218 0.66041 0.0
H969 H 0.48411 1.04389 0.44881 0.0
C970 C 0.47064 1.03656 0.78132 0.0
N971 N 0.37689 0.90256 0.74797 0.0
C972 C 0.33615 0.87034 0.72109 0.0
C973 C 0.37615 0.89371 0.82661 0.0
N974 N 0.31048 0.84197 0.77978 0.0
C975 C 0.3355 0.8573 0.84631 0.0
C976 C 0.50464 0.95925 0.68368 0.0
O977 O 0.48281 1.05018 0.71193 0.0
O978 O 0.44584 0.99381 0.79155 0.0
O979 O 0.4649 0.93313 0.70654 0.0
O980 O 0.51286 0.99531 0.64922 0.0
O981 O 0.40145 0.91993 0.58577 0.0
H982 H 0.40261 0.91375 0.86801 0.0
H983 H 0.32447 0.8694 0.66074 0.0
O984 O 0.45548 0.97774 0.52974 0.0
O985 O 0.42545 1.02661 0.60067 0.0
O986 O 0.38118 0.97238 0.68049 0.0
C987 C 0.38968 1.00613 0.63967 0.0
H988 H 0.55551 1.04087 0.42707 0.0
H989 H 0.3246 0.84401 0.90583 0.0
Co990 Co 0.1762 0.42826 0.33851 0.0
C991 C 0.20568 0.50229 0.4396 0.0
Co992 Co 0.18937 0.48779 0.27019 0.0
C993 C 0.19114 0.36353 0.36454 0.0
C994 C 0.17357 0.38212 0.47314 0.0
N995 N 0.16481 0.37747 0.39452 0.0
N996 N 0.22593 0.37644 0.41229 0.0
C997 C 0.21372 0.38492 0.48365 0.0
H998 H 0.19314 0.3589 0.30127 0.0
H999 H 0.16075 0.39715 0.51286 0.0
C1000 C 0.15464 0.40452 0.18039 0.0
N1001 N 0.19486 0.53851 0.21375 0.0
C1002 C 0.18632 0.57072 0.24063 0.0
C1003 C 0.20299 0.54738 0.13512 0.0
N1004 N 0.18903 0.5991 0.18195 0.0
C1005 C 0.19875 0.58379 0.11542 0.0
C1006 C 0.26593 0.48184 0.27806 0.0
O1007 O 0.1532 0.3909 0.24978 0.0
O1008 O 0.17258 0.44727 0.17016 0.0
O1009 O 0.25231 0.50795 0.25515 0.0
O1010 O 0.2381 0.44579 0.31253 0.0
O1011 O 0.20207 0.52115 0.37594 0.0
H1012 H 0.20943 0.52735 0.09372 0.0
H1013 H 0.17557 0.57165 0.30098 0.0
O1014 O 0.19825 0.46331 0.432 0.0
O1015 O 0.11938 0.41442 0.361 0.0
O1016 O 0.12934 0.46868 0.28124 0.0
C1017 C 0.10408 0.4349 0.32201 0.0
H1018 H 0.23516 0.40018 0.53464 0.0
H1019 H 0.20115 0.59709 1.05591 0.0
Co1020 Co 0.70643 0.77487 0.33852 0.0
C1021 C 0.63239 0.73032 0.4396 0.0
Co1022 Co 0.64689 0.7285 0.2702 0.0
C1023 C 0.77115 0.85454 0.36454 0.0
C1024 C 0.75256 0.81838 0.47314 0.0
N1025 N 0.75722 0.81427 0.39452 0.0
N1026 N 0.75825 0.87642 0.41228 0.0
C1027 C 0.74977 0.85574 0.48365 0.0
H1028 H 0.77579 0.86117 0.30127 0.0
H1029 H 0.73754 0.79054 0.51287 0.0
C1030 C 0.73017 0.77705 0.18039 0.0
N1031 N 0.59618 0.68328 0.21375 0.0
C1032 C 0.56396 0.64253 0.24063 0.0
C1033 C 0.58731 0.68254 0.13512 0.0
N1034 N 0.53559 0.61686 0.18196 0.0
C1035 C 0.5509 0.6419 0.11543 0.0
C1036 C 0.65285 0.81103 0.27806 0.0
O1037 O 0.74378 0.78923 0.24978 0.0
O1038 O 0.68741 0.75223 0.17016 0.0
O1039 O 0.62674 0.7713 0.25516 0.0
O1040 O 0.6889 0.81925 0.31254 0.0
O1041 O 0.61354 0.70785 0.37595 0.0
H1042 H 0.60733 0.70901 0.09372 0.0
H1043 H 0.56303 0.63085 0.30098 0.0
O1044 O 0.67137 0.76187 0.432 0.0
O1045 O 0.72026 0.73189 0.361 0.0
O1046 O 0.66601 0.68759 0.28124 0.0
C1047 C 0.69978 0.69611 0.32201 0.0
H1048 H 0.7345 0.86192 0.53464 0.0
H1049 H 0.5376 0.631 1.05592 0.0
Co1050 Co 0.35982 0.95849 0.33852 0.0
C1051 C 0.40436 0.929 0.4396 0.0
Co1052 Co 0.40618 0.94532 0.2702 0.0
C1053 C 0.28015 0.94355 0.36455 0.0
C1054 C 0.31631 0.96112 0.47314 0.0
N1055 N 0.32041 0.96988 0.39453 0.0
N1056 N 0.25826 0.90876 0.41229 0.0
C1057 C 0.27895 0.92096 0.48365 0.0
H1058 H 0.27352 0.94155 0.30128 0.0
H1059 H 0.34415 0.97394 0.51287 0.0
C1060 C 0.35764 0.98005 0.1804 0.0
N1061 N 0.4514 0.93983 0.21375 0.0
C1062 C 0.49215 0.94836 0.24063 0.0
C1063 C 0.45214 0.9317 0.13512 0.0
N1064 N 0.51782 0.94566 0.18195 0.0
C1065 C 0.49279 0.93593 0.11543 0.0
C1066 C 0.32366 0.86875 0.27806 0.0
O1067 O 0.34546 0.98149 0.24978 0.0
O1068 O 0.38245 0.96211 0.17016 0.0
O1069 O 0.36339 0.88237 0.25516 0.0
O1070 O 0.31543 0.89658 0.31254 0.0
O1071 O 0.42684 0.93262 0.37594 0.0
H1072 H 0.42568 0.92526 0.09372 0.0
H1073 H 0.50383 0.95912 0.30098 0.0
O1074 O 0.37281 0.93643 0.432 0.0
O1075 O 0.4028 1.01531 0.36101 0.0
O1076 O 0.44709 1.00535 0.28124 0.0
C1077 C 0.43857 1.0306 0.32201 0.0
H1078 H 0.27277 0.89952 0.53464 0.0
H1079 H 0.50369 0.93353 1.05592 0.0
loop_
_geom_bond_atom_site_label_1
_geom_bond_atom_site_label_2
_geom_bond_distance
_geom_bond_site_symmetry_2
_ccdc_geom_bond_type
Co0 N5 2.057 1_554 S
Co0 O17 2.021 . S
Co0 O20 2.062 . S
Co0 O24 2.117 1_554 S
Co0 O25 2.020 . S
C1 O21 1.259 . S
C1 O24 1.258 . S
Co2 N11 2.057 . S
Co2 O18 2.117 . S
Co2 O19 2.020 . S
Co2 O21 2.021 1_554 S
Co2 O26 2.062 . S
C3 N5 1.316 . S
C3 N6 1.347 . S
C3 H8 0.931 1_556 S
C4 N5 1.375 . S
C4 C7 1.350 . S
C4 H9 0.930 . S
N5 Co0 2.057 1_556 S
N5 C3 1.316 . S
N5 C4 1.375 . S
N6 C3 1.347 . S
N6 C7 1.373 . S
C7 C4 1.350 . S
C7 N6 1.373 . S
C7 H28 0.931 . S
H8 C3 0.931 1_554 S
H9 C4 0.930 . S
C10 O17 1.259 . S
C10 O18 1.258 . S
N11 Co2 2.057 . S
N11 C12 1.316 . S
N11 C13 1.375 . S
C12 N11 1.316 . S
C12 N14 1.347 . S
C12 H23 0.931 . S
C13 N11 1.375 . S
C13 C15 1.350 . S
C13 H22 0.930 . S
N14 C12 1.347 . S
N14 C15 1.373 . S
C15 C13 1.350 . S
C15 N14 1.373 . S
C15 H29 0.931 . S
C16 O19 1.256 . S
C16 O20 1.255 . S
O17 Co0 2.021 . S
O17 C10 1.259 . S
O18 Co2 2.117 . S
O18 C10 1.258 . S
O19 Co2 2.020 . S
O19 C16 1.256 . S
O20 Co0 2.062 . S
O20 C16 1.255 . S
O21 C1 1.259 . S
O21 Co2 2.021 1_556 S
H22 C13 0.930 . S
H23 C12 0.931 . S
O24 Co0 2.117 1_556 S
O24 C1 1.258 . S
O25 Co0 2.020 . S
O25 C27 1.256 . S
O26 Co2 2.062 . S
O26 C27 1.255 . S
C27 O25 1.256 . S
C27 O26 1.255 . S
H28 C7 0.931 . S
H29 C15 0.931 . S
Co30 N35 2.057 1_554 S
Co30 O47 2.021 . S
Co30 O50 2.062 . S
Co30 O54 2.117 1_564 S
Co30 O55 2.020 1_565 S
C31 O51 1.259 . S
C31 O54 1.258 . S
Co32 N41 2.057 . S
Co32 O48 2.117 . S
Co32 O49 2.020 . S
Co32 O51 2.021 1_554 S
Co32 O56 2.062 . S
C33 N35 1.316 . S
C33 N36 1.347 . S
C33 H38 0.931 1_556 S
C34 N35 1.375 . S
C34 C37 1.350 . S
C34 H39 0.930 . S
N35 Co30 2.057 1_556 S
N35 C33 1.316 . S
N35 C34 1.375 . S
N36 C33 1.347 . S
N36 C37 1.373 . S
C37 C34 1.350 . S
C37 N36 1.373 . S
C37 H58 0.931 . S
H38 C33 0.931 1_554 S
H39 C34 0.930 . S
C40 O47 1.259 . S
C40 O48 1.258 1_565 S
N41 Co32 2.057 . S
N41 C42 1.316 . S
N41 C43 1.375 . S
C42 N41 1.316 . S
C42 N44 1.347 . S
C42 H53 0.931 . S
C43 N41 1.375 . S
C43 C45 1.350 . S
C43 H52 0.930 . S
N44 C42 1.347 . S
N44 C45 1.373 . S
C45 C43 1.350 . S
C45 N44 1.373 . S
C45 H59 0.931 . S
C46 O49 1.256 1_565 S
C46 O50 1.255 . S
O47 Co30 2.021 . S
O47 C40 1.259 . S
O48 Co32 2.117 . S
O48 C40 1.258 1_545 S
O49 Co32 2.020 . S
O49 C46 1.256 1_545 S
O50 Co30 2.062 . S
O50 C46 1.255 . S
O51 C31 1.259 . S
O51 Co32 2.021 1_556 S
H52 C43 0.930 . S
H53 C42 0.931 . S
O54 Co30 2.117 1_546 S
O54 C31 1.258 . S
O55 Co30 2.020 1_545 S
O55 C57 1.256 . S
O56 Co32 2.062 . S
O56 C57 1.255 . S
C57 O55 1.256 . S
C57 O56 1.255 . S
H58 C37 0.931 . S
H59 C45 0.931 . S
Co60 N65 2.057 1_554 S
Co60 O77 2.021 . S
Co60 O80 2.062 . S
Co60 O84 2.117 1_454 S
Co60 O85 2.020 1_455 S
C61 O81 1.259 . S
C61 O84 1.258 . S
Co62 N71 2.057 . S
Co62 O78 2.117 . S
Co62 O79 2.020 . S
Co62 O81 2.021 1_554 S
Co62 O86 2.062 . S
C63 N65 1.316 . S
C63 N66 1.347 . S
C63 H68 0.931 1_556 S
C64 N65 1.375 . S
C64 C67 1.350 . S
C64 H69 0.930 . S
N65 Co60 2.057 1_556 S
N65 C63 1.316 . S
N65 C64 1.375 . S
N66 C63 1.347 . S
N66 C67 1.373 . S
C67 C64 1.350 . S
C67 N66 1.373 . S
C67 H88 0.931 . S
H68 C63 0.931 1_554 S
H69 C64 0.930 . S
C70 O77 1.259 . S
C70 O78 1.258 1_455 S
N71 Co62 2.057 . S
N71 C72 1.316 . S
N71 C73 1.375 . S
C72 N71 1.316 . S
C72 N74 1.347 . S
C72 H83 0.931 . S
C73 N71 1.375 . S
C73 C75 1.350 . S
C73 H82 0.930 . S
N74 C72 1.347 . S
N74 C75 1.373 . S
C75 C73 1.350 . S
C75 N74 1.373 . S
C75 H89 0.931 . S
C76 O79 1.256 1_455 S
C76 O80 1.255 . S
O77 Co60 2.021 . S
O77 C70 1.259 . S
O78 Co62 2.117 . S
O78 C70 1.258 1_655 S
O79 Co62 2.020 . S
O79 C76 1.256 1_655 S
O80 Co60 2.062 . S
O80 C76 1.255 . S
O81 C61 1.259 . S
O81 Co62 2.021 1_556 S
H82 C73 0.930 . S
H83 C72 0.931 . S
O84 Co60 2.117 1_656 S
O84 C61 1.258 . S
O85 Co60 2.020 1_655 S
O85 C87 1.256 . S
O86 Co62 2.062 . S
O86 C87 1.255 . S
C87 O85 1.256 . S
C87 O86 1.255 . S
H88 C67 0.931 . S
H89 C75 0.931 . S
Co90 N95 2.057 . S
Co90 O107 2.021 . S
Co90 O110 2.062 . S
Co90 O114 2.117 . S
Co90 O115 2.020 . S
C91 O111 1.259 . S
C91 O114 1.258 . S
Co92 N101 2.057 . S
Co92 O108 2.117 . S
Co92 O109 2.020 . S
Co92 O111 2.021 . S
Co92 O116 2.062 . S
C93 N95 1.316 . S
C93 N96 1.347 . S
C93 H98 0.931 . S
C94 N95 1.375 . S
C94 C97 1.350 . S
C94 H99 0.930 . S
N95 Co90 2.057 . S
N95 C93 1.316 . S
N95 C94 1.375 . S
N96 C93 1.347 . S
N96 C97 1.373 . S
C97 C94 1.350 . S
C97 N96 1.373 . S
C97 H118 0.931 . S
H98 C93 0.931 . S
H99 C94 0.930 . S
C100 O107 1.259 . S
C100 O108 1.258 . S
N101 Co92 2.057 . S
N101 C102 1.316 . S
N101 C103 1.375 . S
C102 N101 1.316 . S
C102 N104 1.347 . S
C102 H113 0.931 . S
C103 N101 1.375 . S
C103 C105 1.350 . S
C103 H112 0.930 . S
N104 C102 1.347 . S
N104 C105 1.373 . S
C105 C103 1.350 . S
C105 N104 1.373 . S
C105 H119 0.931 . S
C106 O109 1.256 . S
C106 O110 1.255 . S
O107 Co90 2.021 . S
O107 C100 1.259 . S
O108 Co92 2.117 . S
O108 C100 1.258 . S
O109 Co92 2.020 . S
O109 C106 1.256 . S
O110 Co90 2.062 . S
O110 C106 1.255 . S
O111 C91 1.259 . S
O111 Co92 2.021 . S
H112 C103 0.930 . S
H113 C102 0.931 . S
O114 Co90 2.117 . S
O114 C91 1.258 . S
O115 Co90 2.020 . S
O115 C117 1.256 . S
O116 Co92 2.062 . S
O116 C117 1.255 . S
C117 O115 1.256 . S
C117 O116 1.255 . S
H118 C97 0.931 . S
H119 C105 0.931 . S
Co120 N125 2.057 . S
Co120 O137 2.021 . S
Co120 O140 2.062 . S
Co120 O144 2.117 1_545 S
Co120 O145 2.020 1_545 S
C121 O141 1.259 . S
C121 O144 1.258 . S
Co122 N131 2.057 . S
Co122 O138 2.117 . S
Co122 O139 2.020 . S
Co122 O141 2.021 . S
Co122 O146 2.062 . S
C123 N125 1.316 . S
C123 N126 1.347 . S
C123 H128 0.931 . S
C124 N125 1.375 . S
C124 C127 1.350 . S
C124 H129 0.930 . S
N125 Co120 2.057 . S
N125 C123 1.316 . S
N125 C124 1.375 . S
N126 C123 1.347 . S
N126 C127 1.373 . S
C127 C124 1.350 . S
C127 N126 1.373 . S
C127 H148 0.931 . S
H128 C123 0.931 . S
H129 C124 0.930 . S
C130 O137 1.259 . S
C130 O138 1.258 1_545 S
N131 Co122 2.057 . S
N131 C132 1.316 . S
N131 C133 1.375 . S
C132 N131 1.316 . S
C132 N134 1.347 . S
C132 H143 0.931 . S
C133 N131 1.375 . S
C133 C135 1.350 . S
C133 H142 0.930 . S
N134 C132 1.347 . S
N134 C135 1.373 . S
C135 C133 1.350 . S
C135 N134 1.373 . S
C135 H149 0.931 . S
C136 O139 1.256 1_545 S
C136 O140 1.255 . S
O137 Co120 2.021 . S
O137 C130 1.259 . S
O138 Co122 2.117 . S
O138 C130 1.258 1_565 S
O139 Co122 2.020 . S
O139 C136 1.256 1_565 S
O140 Co120 2.062 . S
O140 C136 1.255 . S
O141 C121 1.259 . S
O141 Co122 2.021 . S
H142 C133 0.930 . S
H143 C132 0.931 . S
O144 Co120 2.117 1_565 S
O144 C121 1.258 . S
O145 Co120 2.020 1_565 S
O145 C147 1.256 . S
O146 Co122 2.062 . S
O146 C147 1.255 . S
C147 O145 1.256 . S
C147 O146 1.255 . S
H148 C127 0.931 . S
H149 C135 0.931 . S
Co150 N155 2.057 . S
Co150 O167 2.021 . S
Co150 O170 2.062 . S
Co150 O174 2.117 1_655 S
Co150 O175 2.020 1_655 S
C151 O171 1.259 . S
C151 O174 1.258 . S
Co152 N161 2.057 . S
Co152 O168 2.117 . S
Co152 O169 2.020 . S
Co152 O171 2.021 . S
Co152 O176 2.062 . S
C153 N155 1.316 . S
C153 N156 1.347 . S
C153 H158 0.931 . S
C154 N155 1.375 . S
C154 C157 1.350 . S
C154 H159 0.930 . S
N155 Co150 2.057 . S
N155 C153 1.316 . S
N155 C154 1.375 . S
N156 C153 1.347 . S
N156 C157 1.373 . S
C157 C154 1.350 . S
C157 N156 1.373 . S
C157 H178 0.931 . S
H158 C153 0.931 . S
H159 C154 0.930 . S
C160 O167 1.259 . S
C160 O168 1.258 1_655 S
N161 Co152 2.057 . S
N161 C162 1.316 . S
N161 C163 1.375 . S
C162 N161 1.316 . S
C162 N164 1.347 . S
C162 H173 0.931 . S
C163 N161 1.375 . S
C163 C165 1.350 . S
C163 H172 0.930 . S
N164 C162 1.347 . S
N164 C165 1.373 . S
C165 C163 1.350 . S
C165 N164 1.373 . S
C165 H179 0.931 . S
C166 O169 1.256 1_655 S
C166 O170 1.255 . S
O167 Co150 2.021 . S
O167 C160 1.259 . S
O168 Co152 2.117 . S
O168 C160 1.258 1_455 S
O169 Co152 2.020 . S
O169 C166 1.256 1_455 S
O170 Co150 2.062 . S
O170 C166 1.255 . S
O171 C151 1.259 . S
O171 Co152 2.021 . S
H172 C163 0.930 . S
H173 C162 0.931 . S
O174 Co150 2.117 1_455 S
O174 C151 1.258 . S
O175 Co150 2.020 1_455 S
O175 C177 1.256 . S
O176 Co152 2.062 . S
O176 C177 1.255 . S
C177 O175 1.256 . S
C177 O176 1.255 . S
H178 C157 0.931 . S
H179 C165 0.931 . S
Co180 N185 2.057 . S
Co180 O197 2.021 1_556 S
Co180 O200 2.062 . S
Co180 O204 2.117 . S
Co180 O205 2.020 . S
C181 O201 1.259 . S
C181 O204 1.258 . S
Co182 N191 2.057 1_556 S
Co182 O198 2.117 1_556 S
Co182 O199 2.020 . S
Co182 O201 2.021 . S
Co182 O206 2.062 . S
C183 N185 1.316 . S
C183 N186 1.347 . S
C183 H188 0.931 . S
C184 N185 1.375 . S
C184 C187 1.350 . S
C184 H189 0.930 . S
N185 Co180 2.057 . S
N185 C183 1.316 . S
N185 C184 1.375 . S
N186 C183 1.347 . S
N186 C187 1.373 . S
C187 C184 1.350 . S
C187 N186 1.373 . S
C187 H208 0.931 . S
H188 C183 0.931 . S
H189 C184 0.930 . S
C190 O197 1.259 . S
C190 O198 1.258 . S
N191 Co182 2.057 1_554 S
N191 C192 1.316 . S
N191 C193 1.375 . S
C192 N191 1.316 . S
C192 N194 1.347 . S
C192 H203 0.931 1_554 S
C193 N191 1.375 . S
C193 C195 1.350 . S
C193 H202 0.930 . S
N194 C192 1.347 . S
N194 C195 1.373 . S
C195 C193 1.350 . S
C195 N194 1.373 . S
C195 H209 0.931 . S
C196 O199 1.256 . S
C196 O200 1.255 . S
O197 Co180 2.021 1_554 S
O197 C190 1.259 . S
O198 Co182 2.117 1_554 S
O198 C190 1.258 . S
O199 Co182 2.020 . S
O199 C196 1.256 . S
O200 Co180 2.062 . S
O200 C196 1.255 . S
O201 C181 1.259 . S
O201 Co182 2.021 . S
H202 C193 0.930 . S
H203 C192 0.931 1_556 S
O204 Co180 2.117 . S
O204 C181 1.258 . S
O205 Co180 2.020 . S
O205 C207 1.256 . S
O206 Co182 2.062 . S
O206 C207 1.255 . S
C207 O205 1.256 . S
C207 O206 1.255 . S
H208 C187 0.931 . S
H209 C195 0.931 . S
Co210 N215 2.057 . S
Co210 O227 2.021 1_556 S
Co210 O230 2.062 . S
Co210 O234 2.117 . S
Co210 O235 2.020 . S
C211 O231 1.259 . S
C211 O234 1.258 1_545 S
Co212 N221 2.057 1_556 S
Co212 O228 2.117 1_546 S
Co212 O229 2.020 1_545 S
Co212 O231 2.021 . S
Co212 O236 2.062 . S
C213 N215 1.316 . S
C213 N216 1.347 . S
C213 H218 0.931 . S
C214 N215 1.375 . S
C214 C217 1.350 . S
C214 H219 0.930 . S
N215 Co210 2.057 . S
N215 C213 1.316 . S
N215 C214 1.375 . S
N216 C213 1.347 . S
N216 C217 1.373 . S
C217 C214 1.350 . S
C217 N216 1.373 . S
C217 H238 0.931 . S
H218 C213 0.931 . S
H219 C214 0.930 . S
C220 O227 1.259 . S
C220 O228 1.258 . S
N221 Co212 2.057 1_554 S
N221 C222 1.316 . S
N221 C223 1.375 . S
C222 N221 1.316 . S
C222 N224 1.347 . S
C222 H233 0.931 1_554 S
C223 N221 1.375 . S
C223 C225 1.350 . S
C223 H232 0.930 . S
N224 C222 1.347 . S
N224 C225 1.373 . S
C225 C223 1.350 . S
C225 N224 1.373 . S
C225 H239 0.931 . S
C226 O229 1.256 . S
C226 O230 1.255 . S
O227 Co210 2.021 1_554 S
O227 C220 1.259 . S
O228 Co212 2.117 1_564 S
O228 C220 1.258 . S
O229 Co212 2.020 1_565 S
O229 C226 1.256 . S
O230 Co210 2.062 . S
O230 C226 1.255 . S
O231 C211 1.259 . S
O231 Co212 2.021 . S
H232 C223 0.930 . S
H233 C222 0.931 1_556 S
O234 Co210 2.117 . S
O234 C211 1.258 1_565 S
O235 Co210 2.020 . S
O235 C237 1.256 1_565 S
O236 Co212 2.062 . S
O236 C237 1.255 . S
C237 O235 1.256 1_545 S
C237 O236 1.255 . S
H238 C217 0.931 . S
H239 C225 0.931 . S
Co240 N245 2.057 . S
Co240 O257 2.021 1_556 S
Co240 O260 2.062 . S
Co240 O264 2.117 . S
Co240 O265 2.020 . S
C241 O261 1.259 . S
C241 O264 1.258 1_655 S
Co242 N251 2.057 1_556 S
Co242 O258 2.117 1_656 S
Co242 O259 2.020 1_655 S
Co242 O261 2.021 . S
Co242 O266 2.062 . S
C243 N245 1.316 . S
C243 N246 1.347 . S
C243 H248 0.931 . S
C244 N245 1.375 . S
C244 C247 1.350 . S
C244 H249 0.930 . S
N245 Co240 2.057 . S
N245 C243 1.316 . S
N245 C244 1.375 . S
N246 C243 1.347 . S
N246 C247 1.373 . S
C247 C244 1.350 . S
C247 N246 1.373 . S
C247 H268 0.931 . S
H248 C243 0.931 . S
H249 C244 0.930 . S
C250 O257 1.259 . S
C250 O258 1.258 . S
N251 Co242 2.057 1_554 S
N251 C252 1.316 . S
N251 C253 1.375 . S
C252 N251 1.316 . S
C252 N254 1.347 . S
C252 H263 0.931 1_554 S
C253 N251 1.375 . S
C253 C255 1.350 . S
C253 H262 0.930 . S
N254 C252 1.347 . S
N254 C255 1.373 . S
C255 C253 1.350 . S
C255 N254 1.373 . S
C255 H269 0.931 . S
C256 O259 1.256 . S
C256 O260 1.255 . S
O257 Co240 2.021 1_554 S
O257 C250 1.259 . S
O258 Co242 2.117 1_454 S
O258 C250 1.258 . S
O259 Co242 2.020 1_455 S
O259 C256 1.256 . S
O260 Co240 2.062 . S
O260 C256 1.255 . S
O261 C241 1.259 . S
O261 Co242 2.021 . S
H262 C253 0.930 . S
H263 C252 0.931 1_556 S
O264 Co240 2.117 . S
O264 C241 1.258 1_455 S
O265 Co240 2.020 . S
O265 C267 1.256 1_455 S
O266 Co242 2.062 . S
O266 C267 1.255 . S
C267 O265 1.256 1_655 S
C267 O266 1.255 . S
H268 C247 0.931 . S
H269 C255 0.931 . S
Co270 N275 2.057 . S
Co270 O287 2.021 . S
Co270 O290 2.062 . S
Co270 O294 2.117 . S
Co270 O295 2.020 . S
C271 O291 1.259 . S
C271 O294 1.258 . S
Co272 N281 2.057 . S
Co272 O288 2.117 . S
Co272 O289 2.020 . S
Co272 O291 2.021 . S
Co272 O296 2.062 . S
C273 N275 1.316 . S
C273 N276 1.347 . S
C273 H278 0.931 . S
C274 N275 1.375 . S
C274 C277 1.350 . S
C274 H279 0.930 . S
N275 Co270 2.057 . S
N275 C273 1.316 . S
N275 C274 1.375 . S
N276 C273 1.347 . S
N276 C277 1.373 . S
C277 C274 1.350 . S
C277 N276 1.373 . S
C277 H298 0.931 . S
H278 C273 0.931 . S
H279 C274 0.930 . S
C280 O287 1.259 . S
C280 O288 1.258 . S
N281 Co272 2.057 . S
N281 C282 1.316 . S
N281 C283 1.375 . S
C282 N281 1.316 . S
C282 N284 1.347 . S
C282 H293 0.931 . S
C283 N281 1.375 . S
C283 C285 1.350 . S
C283 H292 0.930 . S
N284 C282 1.347 . S
N284 C285 1.373 . S
C285 C283 1.350 . S
C285 N284 1.373 . S
C285 H299 0.931 . S
C286 O289 1.256 . S
C286 O290 1.255 . S
O287 Co270 2.021 . S
O287 C280 1.259 . S
O288 Co272 2.117 . S
O288 C280 1.258 . S
O289 Co272 2.020 . S
O289 C286 1.256 . S
O290 Co270 2.062 . S
O290 C286 1.255 . S
O291 C271 1.259 . S
O291 Co272 2.021 . S
H292 C283 0.930 . S
H293 C282 0.931 . S
O294 Co270 2.117 . S
O294 C271 1.258 . S
O295 Co270 2.020 . S
O295 C297 1.256 . S
O296 Co272 2.062 . S
O296 C297 1.255 . S
C297 O295 1.256 . S
C297 O296 1.255 . S
H298 C277 0.931 . S
H299 C285 0.931 . S
Co300 N305 2.057 . S
Co300 O317 2.021 . S
Co300 O320 2.062 . S
Co300 O324 2.117 . S
Co300 O325 2.020 . S
C301 O321 1.259 . S
C301 O324 1.258 1_565 S
Co302 N311 2.057 . S
Co302 O318 2.117 1_565 S
Co302 O319 2.020 1_565 S
Co302 O321 2.021 . S
Co302 O326 2.062 . S
C303 N305 1.316 . S
C303 N306 1.347 . S
C303 H308 0.931 . S
C304 N305 1.375 . S
C304 C307 1.350 . S
C304 H309 0.930 . S
N305 Co300 2.057 . S
N305 C303 1.316 . S
N305 C304 1.375 . S
N306 C303 1.347 . S
N306 C307 1.373 . S
C307 C304 1.350 . S
C307 N306 1.373 . S
C307 H328 0.931 . S
H308 C303 0.931 . S
H309 C304 0.930 . S
C310 O317 1.259 . S
C310 O318 1.258 . S
N311 Co302 2.057 . S
N311 C312 1.316 . S
N311 C313 1.375 . S
C312 N311 1.316 . S
C312 N314 1.347 . S
C312 H323 0.931 . S
C313 N311 1.375 . S
C313 C315 1.350 . S
C313 H322 0.930 . S
N314 C312 1.347 . S
N314 C315 1.373 . S
C315 C313 1.350 . S
C315 N314 1.373 . S
C315 H329 0.931 . S
C316 O319 1.256 . S
C316 O320 1.255 . S
O317 Co300 2.021 . S
O317 C310 1.259 . S
O318 Co302 2.117 1_545 S
O318 C310 1.258 . S
O319 Co302 2.020 1_545 S
O319 C316 1.256 . S
O320 Co300 2.062 . S
O320 C316 1.255 . S
O321 C301 1.259 . S
O321 Co302 2.021 . S
H322 C313 0.930 . S
H323 C312 0.931 . S
O324 Co300 2.117 . S
O324 C301 1.258 1_545 S
O325 Co300 2.020 . S
O325 C327 1.256 1_545 S
O326 Co302 2.062 . S
O326 C327 1.255 . S
C327 O325 1.256 1_565 S
C327 O326 1.255 . S
H328 C307 0.931 . S
H329 C315 0.931 . S
Co330 N335 2.057 . S
Co330 O347 2.021 . S
Co330 O350 2.062 . S
Co330 O354 2.117 . S
Co330 O355 2.020 . S
C331 O351 1.259 . S
C331 O354 1.258 1_455 S
Co332 N341 2.057 . S
Co332 O348 2.117 1_455 S
Co332 O349 2.020 1_455 S
Co332 O351 2.021 . S
Co332 O356 2.062 . S
C333 N335 1.316 . S
C333 N336 1.347 . S
C333 H338 0.931 . S
C334 N335 1.375 . S
C334 C337 1.350 . S
C334 H339 0.930 . S
N335 Co330 2.057 . S
N335 C333 1.316 . S
N335 C334 1.375 . S
N336 C333 1.347 . S
N336 C337 1.373 . S
C337 C334 1.350 . S
C337 N336 1.373 . S
C337 H358 0.931 . S
H338 C333 0.931 . S
H339 C334 0.930 . S
C340 O347 1.259 . S
C340 O348 1.258 . S
N341 Co332 2.057 . S
N341 C342 1.316 . S
N341 C343 1.375 . S
C342 N341 1.316 . S
C342 N344 1.347 . S
C342 H353 0.931 . S
C343 N341 1.375 . S
C343 C345 1.350 . S
C343 H352 0.930 . S
N344 C342 1.347 . S
N344 C345 1.373 . S
C345 C343 1.350 . S
C345 N344 1.373 . S
C345 H359 0.931 . S
C346 O349 1.256 . S
C346 O350 1.255 . S
O347 Co330 2.021 . S
O347 C340 1.259 . S
O348 Co332 2.117 1_655 S
O348 C340 1.258 . S
O349 Co332 2.020 1_655 S
O349 C346 1.256 . S
O350 Co330 2.062 . S
O350 C346 1.255 . S
O351 C331 1.259 . S
O351 Co332 2.021 . S
H352 C343 0.930 . S
H353 C342 0.931 . S
O354 Co330 2.117 . S
O354 C331 1.258 1_655 S
O355 Co330 2.020 . S
O355 C357 1.256 1_655 S
O356 Co332 2.062 . S
O356 C357 1.255 . S
C357 O355 1.256 1_455 S
C357 O356 1.255 . S
H358 C337 0.931 . S
H359 C345 0.931 . S
Co360 N365 2.057 . S
Co360 O377 2.021 . S
Co360 O380 2.062 . S
Co360 O384 2.117 . S
Co360 O385 2.020 . S
C361 O381 1.259 . S
C361 O384 1.258 . S
Co362 N371 2.057 . S
Co362 O378 2.117 . S
Co362 O379 2.020 . S
Co362 O381 2.021 . S
Co362 O386 2.062 . S
C363 N365 1.316 . S
C363 N366 1.347 . S
C363 H368 0.931 . S
C364 N365 1.375 . S
C364 C367 1.350 . S
C364 H369 0.930 . S
N365 Co360 2.057 . S
N365 C363 1.316 . S
N365 C364 1.375 . S
N366 C363 1.347 . S
N366 C367 1.373 . S
C367 C364 1.350 . S
C367 N366 1.373 . S
C367 H388 0.931 . S
H368 C363 0.931 . S
H369 C364 0.930 . S
C370 O377 1.259 . S
C370 O378 1.258 . S
N371 Co362 2.057 . S
N371 C372 1.316 1_655 S
N371 C373 1.375 . S
C372 N371 1.316 1_455 S
C372 N374 1.347 . S
C372 H383 0.931 . S
C373 N371 1.375 . S
C373 C375 1.350 1_655 S
C373 H382 0.930 . S
N374 C372 1.347 . S
N374 C375 1.373 . S
C375 C373 1.350 1_455 S
C375 N374 1.373 . S
C375 H389 0.931 . S
C376 O379 1.256 . S
C376 O380 1.255 . S
O377 Co360 2.021 . S
O377 C370 1.259 . S
O378 Co362 2.117 . S
O378 C370 1.258 . S
O379 Co362 2.020 . S
O379 C376 1.256 . S
O380 Co360 2.062 . S
O380 C376 1.255 . S
O381 C361 1.259 . S
O381 Co362 2.021 . S
H382 C373 0.930 . S
H383 C372 0.931 . S
O384 Co360 2.117 . S
O384 C361 1.258 . S
O385 Co360 2.020 . S
O385 C387 1.256 . S
O386 Co362 2.062 . S
O386 C387 1.255 . S
C387 O385 1.256 . S
C387 O386 1.255 . S
H388 C367 0.931 . S
H389 C375 0.931 . S
Co390 N395 2.057 . S
Co390 O407 2.021 . S
Co390 O410 2.062 . S
Co390 O414 2.117 . S
Co390 O415 2.020 . S
C391 O411 1.259 . S
C391 O414 1.258 . S
Co392 N401 2.057 . S
Co392 O408 2.117 . S
Co392 O409 2.020 . S
Co392 O411 2.021 . S
Co392 O416 2.062 . S
C393 N395 1.316 . S
C393 N396 1.347 . S
C393 H398 0.931 . S
C394 N395 1.375 . S
C394 C397 1.350 . S
C394 H399 0.930 . S
N395 Co390 2.057 . S
N395 C393 1.316 . S
N395 C394 1.375 . S
N396 C393 1.347 . S
N396 C397 1.373 . S
C397 C394 1.350 . S
C397 N396 1.373 . S
C397 H418 0.931 . S
H398 C393 0.931 . S
H399 C394 0.930 . S
C400 O407 1.259 . S
C400 O408 1.258 . S
N401 Co392 2.057 . S
N401 C402 1.316 . S
N401 C403 1.375 . S
C402 N401 1.316 . S
C402 N404 1.347 . S
C402 H413 0.931 . S
C403 N401 1.375 . S
C403 C405 1.350 . S
C403 H412 0.930 . S
N404 C402 1.347 . S
N404 C405 1.373 . S
C405 C403 1.350 . S
C405 N404 1.373 . S
C405 H419 0.931 . S
C406 O409 1.256 . S
C406 O410 1.255 . S
O407 Co390 2.021 . S
O407 C400 1.259 . S
O408 Co392 2.117 . S
O408 C400 1.258 . S
O409 Co392 2.020 . S
O409 C406 1.256 . S
O410 Co390 2.062 . S
O410 C406 1.255 . S
O411 C391 1.259 . S
O411 Co392 2.021 . S
H412 C403 0.930 . S
H413 C402 0.931 . S
O414 Co390 2.117 . S
O414 C391 1.258 . S
O415 Co390 2.020 . S
O415 C417 1.256 . S
O416 Co392 2.062 . S
O416 C417 1.255 . S
C417 O415 1.256 . S
C417 O416 1.255 . S
H418 C397 0.931 . S
H419 C405 0.931 . S
Co420 N425 2.057 . S
Co420 O437 2.021 . S
Co420 O440 2.062 . S
Co420 O444 2.117 . S
Co420 O445 2.020 . S
C421 O441 1.259 . S
C421 O444 1.258 . S
Co422 N431 2.057 . S
Co422 O438 2.117 . S
Co422 O439 2.020 . S
Co422 O441 2.021 . S
Co422 O446 2.062 . S
C423 N425 1.316 . S
C423 N426 1.347 . S
C423 H428 0.931 . S
C424 N425 1.375 . S
C424 C427 1.350 . S
C424 H429 0.930 . S
N425 Co420 2.057 . S
N425 C423 1.316 . S
N425 C424 1.375 . S
N426 C423 1.347 . S
N426 C427 1.373 . S
C427 C424 1.350 . S
C427 N426 1.373 . S
C427 H448 0.931 . S
H428 C423 0.931 . S
H429 C424 0.930 . S
C430 O437 1.259 . S
C430 O438 1.258 . S
N431 Co422 2.057 . S
N431 C432 1.316 1_545 S
N431 C433 1.375 . S
C432 N431 1.316 1_565 S
C432 N434 1.347 . S
C432 H443 0.931 . S
C433 N431 1.375 . S
C433 C435 1.350 1_545 S
C433 H442 0.930 . S
N434 C432 1.347 . S
N434 C435 1.373 . S
C435 C433 1.350 1_565 S
C435 N434 1.373 . S
C435 H449 0.931 . S
C436 O439 1.256 . S
C436 O440 1.255 . S
O437 Co420 2.021 . S
O437 C430 1.259 . S
O438 Co422 2.117 . S
O438 C430 1.258 . S
O439 Co422 2.020 . S
O439 C436 1.256 . S
O440 Co420 2.062 . S
O440 C436 1.255 . S
O441 C421 1.259 . S
O441 Co422 2.021 . S
H442 C433 0.930 . S
H443 C432 0.931 . S
O444 Co420 2.117 . S
O444 C421 1.258 . S
O445 Co420 2.020 . S
O445 C447 1.256 . S
O446 Co422 2.062 . S
O446 C447 1.255 . S
C447 O445 1.256 . S
C447 O446 1.255 . S
H448 C427 0.931 . S
H449 C435 0.931 . S
Co450 N455 2.057 . S
Co450 O467 2.021 . S
Co450 O470 2.062 . S
Co450 O474 2.117 . S
Co450 O475 2.020 . S
C451 O471 1.259 . S
C451 O474 1.258 . S
Co452 N461 2.057 . S
Co452 O468 2.117 . S
Co452 O469 2.020 . S
Co452 O471 2.021 . S
Co452 O476 2.062 . S
C453 N455 1.316 . S
C453 N456 1.347 . S
C453 H458 0.931 . S
C454 N455 1.375 . S
C454 C457 1.350 . S
C454 H459 0.930 . S
N455 Co450 2.057 . S
N455 C453 1.316 . S
N455 C454 1.375 . S
N456 C453 1.347 . S
N456 C457 1.373 . S
C457 C454 1.350 . S
C457 N456 1.373 . S
C457 H478 0.931 . S
H458 C453 0.931 . S
H459 C454 0.930 . S
C460 O467 1.259 . S
C460 O468 1.258 . S
N461 Co452 2.057 . S
N461 C462 1.316 . S
N461 C463 1.375 . S
C462 N461 1.316 . S
C462 N464 1.347 . S
C462 H473 0.931 . S
C463 N461 1.375 . S
C463 C465 1.350 . S
C463 H472 0.930 . S
N464 C462 1.347 . S
N464 C465 1.373 . S
C465 C463 1.350 . S
C465 N464 1.373 . S
C465 H479 0.931 . S
C466 O469 1.256 . S
C466 O470 1.255 . S
O467 Co450 2.021 . S
O467 C460 1.259 . S
O468 Co452 2.117 . S
O468 C460 1.258 . S
O469 Co452 2.020 . S
O469 C466 1.256 . S
O470 Co450 2.062 . S
O470 C466 1.255 . S
O471 C451 1.259 . S
O471 Co452 2.021 . S
H472 C463 0.930 . S
H473 C462 0.931 . S
O474 Co450 2.117 . S
O474 C451 1.258 . S
O475 Co450 2.020 . S
O475 C477 1.256 . S
O476 Co452 2.062 . S
O476 C477 1.255 . S
C477 O475 1.256 . S
C477 O476 1.255 . S
H478 C457 0.931 . S
H479 C465 0.931 . S
Co480 N485 2.057 . S
Co480 O497 2.021 . S
Co480 O500 2.062 . S
Co480 O504 2.117 . S
Co480 O505 2.020 . S
C481 O501 1.259 . S
C481 O504 1.258 . S
Co482 N491 2.057 . S
Co482 O498 2.117 . S
Co482 O499 2.020 . S
Co482 O501 2.021 . S
Co482 O506 2.062 . S
C483 N485 1.316 . S
C483 N486 1.347 . S
C483 H488 0.931 . S
C484 N485 1.375 . S
C484 C487 1.350 . S
C484 H489 0.930 . S
N485 Co480 2.057 . S
N485 C483 1.316 . S
N485 C484 1.375 . S
N486 C483 1.347 . S
N486 C487 1.373 . S
C487 C484 1.350 . S
C487 N486 1.373 . S
C487 H508 0.931 . S
H488 C483 0.931 . S
H489 C484 0.930 . S
C490 O497 1.259 . S
C490 O498 1.258 . S
N491 Co482 2.057 . S
N491 C492 1.316 . S
N491 C493 1.375 . S
C492 N491 1.316 . S
C492 N494 1.347 . S
C492 H503 0.931 . S
C493 N491 1.375 . S
C493 C495 1.350 . S
C493 H502 0.930 . S
N494 C492 1.347 . S
N494 C495 1.373 . S
C495 C493 1.350 . S
C495 N494 1.373 . S
C495 H509 0.931 . S
C496 O499 1.256 . S
C496 O500 1.255 . S
O497 Co480 2.021 . S
O497 C490 1.259 . S
O498 Co482 2.117 . S
O498 C490 1.258 . S
O499 Co482 2.020 . S
O499 C496 1.256 . S
O500 Co480 2.062 . S
O500 C496 1.255 . S
O501 C481 1.259 . S
O501 Co482 2.021 . S
H502 C493 0.930 . S
H503 C492 0.931 . S
O504 Co480 2.117 . S
O504 C481 1.258 . S
O505 Co480 2.020 . S
O505 C507 1.256 . S
O506 Co482 2.062 . S
O506 C507 1.255 . S
C507 O505 1.256 . S
C507 O506 1.255 . S
H508 C487 0.931 . S
H509 C495 0.931 . S
Co510 N515 2.057 . S
Co510 O527 2.021 . S
Co510 O530 2.062 . S
Co510 O534 2.117 . S
Co510 O535 2.020 . S
C511 O531 1.259 . S
C511 O534 1.258 . S
Co512 N521 2.057 . S
Co512 O528 2.117 . S
Co512 O529 2.020 . S
Co512 O531 2.021 . S
Co512 O536 2.062 . S
C513 N515 1.316 . S
C513 N516 1.347 . S
C513 H518 0.931 . S
C514 N515 1.375 . S
C514 C517 1.350 . S
C514 H519 0.930 . S
N515 Co510 2.057 . S
N515 C513 1.316 . S
N515 C514 1.375 . S
N516 C513 1.347 . S
N516 C517 1.373 . S
C517 C514 1.350 . S
C517 N516 1.373 . S
C517 H538 0.931 . S
H518 C513 0.931 . S
H519 C514 0.930 . S
C520 O527 1.259 . S
C520 O528 1.258 . S
N521 Co512 2.057 . S
N521 C522 1.316 . S
N521 C523 1.375 . S
C522 N521 1.316 . S
C522 N524 1.347 . S
C522 H533 0.931 . S
C523 N521 1.375 . S
C523 C525 1.350 . S
C523 H532 0.930 . S
N524 C522 1.347 . S
N524 C525 1.373 . S
C525 C523 1.350 . S
C525 N524 1.373 . S
C525 H539 0.931 . S
C526 O529 1.256 . S
C526 O530 1.255 . S
O527 Co510 2.021 . S
O527 C520 1.259 . S
O528 Co512 2.117 . S
O528 C520 1.258 . S
O529 Co512 2.020 . S
O529 C526 1.256 . S
O530 Co510 2.062 . S
O530 C526 1.255 . S
O531 C511 1.259 . S
O531 Co512 2.021 . S
H532 C523 0.930 . S
H533 C522 0.931 . S
O534 Co510 2.117 . S
O534 C511 1.258 . S
O535 Co510 2.020 . S
O535 C537 1.256 . S
O536 Co512 2.062 . S
O536 C537 1.255 . S
C537 O535 1.256 . S
C537 O536 1.255 . S
H538 C517 0.931 . S
H539 C525 0.931 . S
Co540 N545 2.057 . S
Co540 O557 2.021 . S
Co540 O560 2.062 . S
Co540 O564 2.117 . S
Co540 O565 2.020 . S
C541 O561 1.259 . S
C541 O564 1.258 . S
Co542 N551 2.057 . S
Co542 O558 2.117 . S
Co542 O559 2.020 . S
Co542 O561 2.021 . S
Co542 O566 2.062 . S
C543 N545 1.316 . S
C543 N546 1.347 . S
C543 H548 0.931 . S
C544 N545 1.375 . S
C544 C547 1.350 . S
C544 H549 0.930 . S
N545 Co540 2.057 . S
N545 C543 1.316 . S
N545 C544 1.375 . S
N546 C543 1.347 . S
N546 C547 1.373 . S
C547 C544 1.350 . S
C547 N546 1.373 . S
C547 H568 0.931 . S
H548 C543 0.931 . S
H549 C544 0.930 . S
C550 O557 1.259 . S
C550 O558 1.258 . S
N551 Co542 2.057 . S
N551 C552 1.316 . S
N551 C553 1.375 . S
C552 N551 1.316 . S
C552 N554 1.347 . S
C552 H563 0.931 . S
C553 N551 1.375 . S
C553 C555 1.350 . S
C553 H562 0.930 . S
N554 C552 1.347 . S
N554 C555 1.373 . S
C555 C553 1.350 . S
C555 N554 1.373 . S
C555 H569 0.931 . S
C556 O559 1.256 . S
C556 O560 1.255 . S
O557 Co540 2.021 . S
O557 C550 1.259 . S
O558 Co542 2.117 . S
O558 C550 1.258 . S
O559 Co542 2.020 . S
O559 C556 1.256 . S
O560 Co540 2.062 . S
O560 C556 1.255 . S
O561 C541 1.259 . S
O561 Co542 2.021 . S
H562 C553 0.930 . S
H563 C552 0.931 . S
O564 Co540 2.117 . S
O564 C541 1.258 . S
O565 Co540 2.020 . S
O565 C567 1.256 . S
O566 Co542 2.062 . S
O566 C567 1.255 . S
C567 O565 1.256 . S
C567 O566 1.255 . S
H568 C547 0.931 . S
H569 C555 0.931 . S
Co570 N575 2.057 . S
Co570 O587 2.021 . S
Co570 O590 2.062 . S
Co570 O594 2.117 . S
Co570 O595 2.020 . S
C571 O591 1.259 . S
C571 O594 1.258 . S
Co572 N581 2.057 . S
Co572 O588 2.117 . S
Co572 O589 2.020 . S
Co572 O591 2.021 . S
Co572 O596 2.062 . S
C573 N575 1.316 . S
C573 N576 1.347 . S
C573 H578 0.931 . S
C574 N575 1.375 . S
C574 C577 1.350 . S
C574 H579 0.930 . S
N575 Co570 2.057 . S
N575 C573 1.316 . S
N575 C574 1.375 . S
N576 C573 1.347 . S
N576 C577 1.373 . S
C577 C574 1.350 . S
C577 N576 1.373 . S
C577 H598 0.931 . S
H578 C573 0.931 . S
H579 C574 0.930 . S
C580 O587 1.259 . S
C580 O588 1.258 . S
N581 Co572 2.057 . S
N581 C582 1.316 . S
N581 C583 1.375 . S
C582 N581 1.316 . S
C582 N584 1.347 . S
C582 H593 0.931 . S
C583 N581 1.375 . S
C583 C585 1.350 . S
C583 H592 0.930 . S
N584 C582 1.347 . S
N584 C585 1.373 . S
C585 C583 1.350 . S
C585 N584 1.373 . S
C585 H599 0.931 . S
C586 O589 1.256 . S
C586 O590 1.255 . S
O587 Co570 2.021 . S
O587 C580 1.259 . S
O588 Co572 2.117 . S
O588 C580 1.258 . S
O589 Co572 2.020 . S
O589 C586 1.256 . S
O590 Co570 2.062 . S
O590 C586 1.255 . S
O591 C571 1.259 . S
O591 Co572 2.021 . S
H592 C583 0.930 . S
H593 C582 0.931 . S
O594 Co570 2.117 . S
O594 C571 1.258 . S
O595 Co570 2.020 . S
O595 C597 1.256 . S
O596 Co572 2.062 . S
O596 C597 1.255 . S
C597 O595 1.256 . S
C597 O596 1.255 . S
H598 C577 0.931 . S
H599 C585 0.931 . S
Co600 N605 2.057 . S
Co600 O617 2.021 . S
Co600 O620 2.062 . S
Co600 O624 2.117 . S
Co600 O625 2.020 . S
C601 O621 1.259 . S
C601 O624 1.258 . S
Co602 N611 2.057 . S
Co602 O618 2.117 . S
Co602 O619 2.020 . S
Co602 O621 2.021 . S
Co602 O626 2.062 . S
C603 N605 1.316 . S
C603 N606 1.347 . S
C603 H608 0.931 . S
C604 N605 1.375 . S
C604 C607 1.350 . S
C604 H609 0.930 . S
N605 Co600 2.057 . S
N605 C603 1.316 . S
N605 C604 1.375 . S
N606 C603 1.347 . S
N606 C607 1.373 . S
C607 C604 1.350 . S
C607 N606 1.373 . S
C607 H628 0.931 . S
H608 C603 0.931 . S
H609 C604 0.930 . S
C610 O617 1.259 . S
C610 O618 1.258 . S
N611 Co602 2.057 . S
N611 C612 1.316 . S
N611 C613 1.375 . S
C612 N611 1.316 . S
C612 N614 1.347 . S
C612 H623 0.931 . S
C613 N611 1.375 . S
C613 C615 1.350 . S
C613 H622 0.930 . S
N614 C612 1.347 . S
N614 C615 1.373 . S
C615 C613 1.350 . S
C615 N614 1.373 . S
C615 H629 0.931 . S
C616 O619 1.256 . S
C616 O620 1.255 . S
O617 Co600 2.021 . S
O617 C610 1.259 . S
O618 Co602 2.117 . S
O618 C610 1.258 . S
O619 Co602 2.020 . S
O619 C616 1.256 . S
O620 Co600 2.062 . S
O620 C616 1.255 . S
O621 C601 1.259 . S
O621 Co602 2.021 . S
H622 C613 0.930 . S
H623 C612 0.931 . S
O624 Co600 2.117 . S
O624 C601 1.258 . S
O625 Co600 2.020 . S
O625 C627 1.256 . S
O626 Co602 2.062 . S
O626 C627 1.255 . S
C627 O625 1.256 . S
C627 O626 1.255 . S
H628 C607 0.931 . S
H629 C615 0.931 . S
Co630 N635 2.057 . S
Co630 O647 2.021 . S
Co630 O650 2.062 . S
Co630 O654 2.117 1_556 S
Co630 O655 2.020 . S
C631 O651 1.259 1_554 S
C631 O654 1.258 . S
Co632 N641 2.057 . S
Co632 O648 2.117 . S
Co632 O649 2.020 . S
Co632 O651 2.021 . S
Co632 O656 2.062 . S
C633 N635 1.316 1_565 S
C633 N636 1.347 1_556 S
C633 H638 0.931 . S
C634 N635 1.375 1_554 S
C634 C637 1.350 1_545 S
C634 H639 0.930 . S
N635 Co630 2.057 . S
N635 C633 1.316 1_545 S
N635 C634 1.375 1_556 S
N636 C633 1.347 1_554 S
N636 C637 1.373 . S
C637 C634 1.350 1_565 S
C637 N636 1.373 . S
C637 H658 0.931 . S
H638 C633 0.931 . S
H639 C634 0.930 . S
C640 O647 1.259 . S
C640 O648 1.258 . S
N641 Co632 2.057 . S
N641 C642 1.316 . S
N641 C643 1.375 . S
C642 N641 1.316 . S
C642 N644 1.347 . S
C642 H653 0.931 . S
C643 N641 1.375 . S
C643 C645 1.350 . S
C643 H652 0.930 . S
N644 C642 1.347 . S
N644 C645 1.373 . S
C645 C643 1.350 . S
C645 N644 1.373 . S
C645 H659 0.931 . S
C646 O649 1.256 . S
C646 O650 1.255 . S
O647 Co630 2.021 . S
O647 C640 1.259 . S
O648 Co632 2.117 . S
O648 C640 1.258 . S
O649 Co632 2.020 . S
O649 C646 1.256 . S
O650 Co630 2.062 . S
O650 C646 1.255 . S
O651 C631 1.259 1_556 S
O651 Co632 2.021 . S
H652 C643 0.930 . S
H653 C642 0.931 . S
O654 Co630 2.117 1_554 S
O654 C631 1.258 . S
O655 Co630 2.020 . S
O655 C657 1.256 . S
O656 Co632 2.062 . S
O656 C657 1.255 . S
C657 O655 1.256 . S
C657 O656 1.255 . S
H658 C637 0.931 . S
H659 C645 0.931 . S
Co660 N665 2.057 . S
Co660 O677 2.021 . S
Co660 O680 2.062 . S
Co660 O684 2.117 1_556 S
Co660 O685 2.020 . S
C661 O681 1.259 1_554 S
C661 O684 1.258 . S
Co662 N671 2.057 . S
Co662 O678 2.117 . S
Co662 O679 2.020 . S
Co662 O681 2.021 . S
Co662 O686 2.062 . S
C663 N665 1.316 1_455 S
C663 N666 1.347 1_556 S
C663 H668 0.931 . S
C664 N665 1.375 1_554 S
C664 C667 1.350 1_655 S
C664 H669 0.930 . S
N665 Co660 2.057 . S
N665 C663 1.316 1_655 S
N665 C664 1.375 1_556 S
N666 C663 1.347 1_554 S
N666 C667 1.373 . S
C667 C664 1.350 1_455 S
C667 N666 1.373 . S
C667 H688 0.931 . S
H668 C663 0.931 . S
H669 C664 0.930 . S
C670 O677 1.259 . S
C670 O678 1.258 . S
N671 Co662 2.057 . S
N671 C672 1.316 . S
N671 C673 1.375 . S
C672 N671 1.316 . S
C672 N674 1.347 . S
C672 H683 0.931 . S
C673 N671 1.375 . S
C673 C675 1.350 . S
C673 H682 0.930 . S
N674 C672 1.347 . S
N674 C675 1.373 . S
C675 C673 1.350 . S
C675 N674 1.373 . S
C675 H689 0.931 . S
C676 O679 1.256 . S
C676 O680 1.255 . S
O677 Co660 2.021 . S
O677 C670 1.259 . S
O678 Co662 2.117 . S
O678 C670 1.258 . S
O679 Co662 2.020 . S
O679 C676 1.256 . S
O680 Co660 2.062 . S
O680 C676 1.255 . S
O681 C661 1.259 1_556 S
O681 Co662 2.021 . S
H682 C673 0.930 . S
H683 C672 0.931 . S
O684 Co660 2.117 1_554 S
O684 C661 1.258 . S
O685 Co660 2.020 . S
O685 C687 1.256 . S
O686 Co662 2.062 . S
O686 C687 1.255 . S
C687 O685 1.256 . S
C687 O686 1.255 . S
H688 C667 0.931 . S
H689 C675 0.931 . S
Co690 N695 2.057 . S
Co690 O707 2.021 . S
Co690 O710 2.062 . S
Co690 O714 2.117 1_556 S
Co690 O715 2.020 . S
C691 O711 1.259 1_554 S
C691 O714 1.258 . S
Co692 N701 2.057 . S
Co692 O708 2.117 . S
Co692 O709 2.020 . S
Co692 O711 2.021 . S
Co692 O716 2.062 . S
C693 N695 1.316 . S
C693 N696 1.347 1_556 S
C693 H698 0.931 . S
C694 N695 1.375 1_554 S
C694 C697 1.350 . S
C694 H699 0.930 . S
N695 Co690 2.057 . S
N695 C693 1.316 . S
N695 C694 1.375 1_556 S
N696 C693 1.347 1_554 S
N696 C697 1.373 . S
C697 C694 1.350 . S
C697 N696 1.373 . S
C697 H718 0.931 . S
H698 C693 0.931 . S
H699 C694 0.930 . S
C700 O707 1.259 . S
C700 O708 1.258 . S
N701 Co692 2.057 . S
N701 C702 1.316 . S
N701 C703 1.375 . S
C702 N701 1.316 . S
C702 N704 1.347 . S
C702 H713 0.931 . S
C703 N701 1.375 . S
C703 C705 1.350 . S
C703 H712 0.930 . S
N704 C702 1.347 . S
N704 C705 1.373 . S
C705 C703 1.350 . S
C705 N704 1.373 . S
C705 H719 0.931 . S
C706 O709 1.256 . S
C706 O710 1.255 . S
O707 Co690 2.021 . S
O707 C700 1.259 . S
O708 Co692 2.117 . S
O708 C700 1.258 . S
O709 Co692 2.020 . S
O709 C706 1.256 . S
O710 Co690 2.062 . S
O710 C706 1.255 . S
O711 C691 1.259 1_556 S
O711 Co692 2.021 . S
H712 C703 0.930 . S
H713 C702 0.931 . S
O714 Co690 2.117 1_554 S
O714 C691 1.258 . S
O715 Co690 2.020 . S
O715 C717 1.256 . S
O716 Co692 2.062 . S
O716 C717 1.255 . S
C717 O715 1.256 . S
C717 O716 1.255 . S
H718 C697 0.931 . S
H719 C705 0.931 . S
Co720 N725 2.057 . S
Co720 O737 2.021 . S
Co720 O740 2.062 . S
Co720 O744 2.117 . S
Co720 O745 2.020 . S
C721 O741 1.259 . S
C721 O744 1.258 . S
Co722 N731 2.057 . S
Co722 O738 2.117 . S
Co722 O739 2.020 . S
Co722 O741 2.021 . S
Co722 O746 2.062 . S
C723 N725 1.316 . S
C723 N726 1.347 . S
C723 H728 0.931 . S
C724 N725 1.375 . S
C724 C727 1.350 . S
C724 H729 0.930 . S
N725 Co720 2.057 . S
N725 C723 1.316 . S
N725 C724 1.375 . S
N726 C723 1.347 . S
N726 C727 1.373 . S
C727 C724 1.350 . S
C727 N726 1.373 . S
C727 H748 0.931 . S
H728 C723 0.931 . S
H729 C724 0.930 . S
C730 O737 1.259 . S
C730 O738 1.258 . S
N731 Co722 2.057 . S
N731 C732 1.316 . S
N731 C733 1.375 . S
C732 N731 1.316 . S
C732 N734 1.347 . S
C732 H743 0.931 . S
C733 N731 1.375 . S
C733 C735 1.350 . S
C733 H742 0.930 . S
N734 C732 1.347 . S
N734 C735 1.373 . S
C735 C733 1.350 . S
C735 N734 1.373 . S
C735 H749 0.931 . S
C736 O739 1.256 . S
C736 O740 1.255 . S
O737 Co720 2.021 . S
O737 C730 1.259 . S
O738 Co722 2.117 . S
O738 C730 1.258 . S
O739 Co722 2.020 . S
O739 C736 1.256 . S
O740 Co720 2.062 . S
O740 C736 1.255 . S
O741 C721 1.259 . S
O741 Co722 2.021 . S
H742 C733 0.930 . S
H743 C732 0.931 . S
O744 Co720 2.117 . S
O744 C721 1.258 . S
O745 Co720 2.020 . S
O745 C747 1.256 . S
O746 Co722 2.062 . S
O746 C747 1.255 . S
C747 O745 1.256 . S
C747 O746 1.255 . S
H748 C727 0.931 . S
H749 C735 0.931 . S
Co750 N755 2.057 . S
Co750 O767 2.021 . S
Co750 O770 2.062 . S
Co750 O774 2.117 . S
Co750 O775 2.020 . S
C751 O771 1.259 . S
C751 O774 1.258 . S
Co752 N761 2.057 . S
Co752 O768 2.117 . S
Co752 O769 2.020 . S
Co752 O771 2.021 . S
Co752 O776 2.062 . S
C753 N755 1.316 . S
C753 N756 1.347 . S
C753 H758 0.931 . S
C754 N755 1.375 . S
C754 C757 1.350 . S
C754 H759 0.930 . S
N755 Co750 2.057 . S
N755 C753 1.316 . S
N755 C754 1.375 . S
N756 C753 1.347 . S
N756 C757 1.373 . S
C757 C754 1.350 . S
C757 N756 1.373 . S
C757 H778 0.931 . S
H758 C753 0.931 . S
H759 C754 0.930 . S
C760 O767 1.259 . S
C760 O768 1.258 . S
N761 Co752 2.057 . S
N761 C762 1.316 . S
N761 C763 1.375 . S
C762 N761 1.316 . S
C762 N764 1.347 . S
C762 H773 0.931 . S
C763 N761 1.375 . S
C763 C765 1.350 . S
C763 H772 0.930 . S
N764 C762 1.347 . S
N764 C765 1.373 . S
C765 C763 1.350 . S
C765 N764 1.373 . S
C765 H779 0.931 . S
C766 O769 1.256 . S
C766 O770 1.255 . S
O767 Co750 2.021 . S
O767 C760 1.259 . S
O768 Co752 2.117 . S
O768 C760 1.258 . S
O769 Co752 2.020 . S
O769 C766 1.256 . S
O770 Co750 2.062 . S
O770 C766 1.255 . S
O771 C751 1.259 . S
O771 Co752 2.021 . S
H772 C763 0.930 . S
H773 C762 0.931 . S
O774 Co750 2.117 . S
O774 C751 1.258 . S
O775 Co750 2.020 . S
O775 C777 1.256 . S
O776 Co752 2.062 . S
O776 C777 1.255 . S
C777 O775 1.256 . S
C777 O776 1.255 . S
H778 C757 0.931 . S
H779 C765 0.931 . S
Co780 N785 2.057 . S
Co780 O797 2.021 . S
Co780 O800 2.062 . S
Co780 O804 2.117 . S
Co780 O805 2.020 . S
C781 O801 1.259 . S
C781 O804 1.258 . S
Co782 N791 2.057 . S
Co782 O798 2.117 . S
Co782 O799 2.020 . S
Co782 O801 2.021 . S
Co782 O806 2.062 . S
C783 N785 1.316 . S
C783 N786 1.347 . S
C783 H788 0.931 . S
C784 N785 1.375 . S
C784 C787 1.350 . S
C784 H789 0.930 . S
N785 Co780 2.057 . S
N785 C783 1.316 . S
N785 C784 1.375 . S
N786 C783 1.347 . S
N786 C787 1.373 . S
C787 C784 1.350 . S
C787 N786 1.373 . S
C787 H808 0.931 . S
H788 C783 0.931 . S
H789 C784 0.930 . S
C790 O797 1.259 . S
C790 O798 1.258 . S
N791 Co782 2.057 . S
N791 C792 1.316 . S
N791 C793 1.375 . S
C792 N791 1.316 . S
C792 N794 1.347 . S
C792 H803 0.931 . S
C793 N791 1.375 . S
C793 C795 1.350 . S
C793 H802 0.930 . S
N794 C792 1.347 . S
N794 C795 1.373 . S
C795 C793 1.350 . S
C795 N794 1.373 . S
C795 H809 0.931 . S
C796 O799 1.256 . S
C796 O800 1.255 . S
O797 Co780 2.021 . S
O797 C790 1.259 . S
O798 Co782 2.117 . S
O798 C790 1.258 . S
O799 Co782 2.020 . S
O799 C796 1.256 . S
O800 Co780 2.062 . S
O800 C796 1.255 . S
O801 C781 1.259 . S
O801 Co782 2.021 . S
H802 C793 0.930 . S
H803 C792 0.931 . S
O804 Co780 2.117 . S
O804 C781 1.258 . S
O805 Co780 2.020 . S
O805 C807 1.256 . S
O806 Co782 2.062 . S
O806 C807 1.255 . S
C807 O805 1.256 . S
C807 O806 1.255 . S
H808 C787 0.931 . S
H809 C795 0.931 . S
Co810 N815 2.057 . S
Co810 O827 2.021 . S
Co810 O830 2.062 . S
Co810 O834 2.117 . S
Co810 O835 2.020 . S
C811 O831 1.259 . S
C811 O834 1.258 . S
Co812 N821 2.057 . S
Co812 O828 2.117 1_554 S
Co812 O829 2.020 . S
Co812 O831 2.021 . S
Co812 O836 2.062 . S
C813 N815 1.316 . S
C813 N816 1.347 . S
C813 H818 0.931 . S
C814 N815 1.375 . S
C814 C817 1.350 . S
C814 H819 0.930 . S
N815 Co810 2.057 . S
N815 C813 1.316 . S
N815 C814 1.375 . S
N816 C813 1.347 . S
N816 C817 1.373 . S
C817 C814 1.350 . S
C817 N816 1.373 . S
C817 H838 0.931 . S
H818 C813 0.931 . S
H819 C814 0.930 . S
C820 O827 1.259 1_556 S
C820 O828 1.258 . S
N821 Co812 2.057 . S
N821 C822 1.316 1_565 S
N821 C823 1.375 1_554 S
C822 N821 1.316 1_545 S
C822 N824 1.347 1_554 S
C822 H833 0.931 . S
C823 N821 1.375 1_556 S
C823 C825 1.350 1_565 S
C823 H832 0.930 . S
N824 C822 1.347 1_556 S
N824 C825 1.373 . S
C825 C823 1.350 1_545 S
C825 N824 1.373 . S
C825 H839 0.931 . S
C826 O829 1.256 . S
C826 O830 1.255 . S
O827 Co810 2.021 . S
O827 C820 1.259 1_554 S
O828 Co812 2.117 1_556 S
O828 C820 1.258 . S
O829 Co812 2.020 . S
O829 C826 1.256 . S
O830 Co810 2.062 . S
O830 C826 1.255 . S
O831 C811 1.259 . S
O831 Co812 2.021 . S
H832 C823 0.930 . S
H833 C822 0.931 . S
O834 Co810 2.117 . S
O834 C811 1.258 . S
O835 Co810 2.020 . S
O835 C837 1.256 . S
O836 Co812 2.062 . S
O836 C837 1.255 . S
C837 O835 1.256 . S
C837 O836 1.255 . S
H838 C817 0.931 . S
H839 C825 0.931 . S
Co840 N845 2.057 . S
Co840 O857 2.021 . S
Co840 O860 2.062 . S
Co840 O864 2.117 . S
Co840 O865 2.020 . S
C841 O861 1.259 . S
C841 O864 1.258 . S
Co842 N851 2.057 . S
Co842 O858 2.117 1_554 S
Co842 O859 2.020 . S
Co842 O861 2.021 . S
Co842 O866 2.062 . S
C843 N845 1.316 . S
C843 N846 1.347 . S
C843 H848 0.931 . S
C844 N845 1.375 . S
C844 C847 1.350 . S
C844 H849 0.930 . S
N845 Co840 2.057 . S
N845 C843 1.316 . S
N845 C844 1.375 . S
N846 C843 1.347 . S
N846 C847 1.373 . S
C847 C844 1.350 . S
C847 N846 1.373 . S
C847 H868 0.931 . S
H848 C843 0.931 . S
H849 C844 0.930 . S
C850 O857 1.259 1_556 S
C850 O858 1.258 . S
N851 Co842 2.057 . S
N851 C852 1.316 1_455 S
N851 C853 1.375 1_554 S
C852 N851 1.316 1_655 S
C852 N854 1.347 1_554 S
C852 H863 0.931 . S
C853 N851 1.375 1_556 S
C853 C855 1.350 1_455 S
C853 H862 0.930 . S
N854 C852 1.347 1_556 S
N854 C855 1.373 . S
C855 C853 1.350 1_655 S
C855 N854 1.373 . S
C855 H869 0.931 . S
C856 O859 1.256 . S
C856 O860 1.255 . S
O857 Co840 2.021 . S
O857 C850 1.259 1_554 S
O858 Co842 2.117 1_556 S
O858 C850 1.258 . S
O859 Co842 2.020 . S
O859 C856 1.256 . S
O860 Co840 2.062 . S
O860 C856 1.255 . S
O861 C841 1.259 . S
O861 Co842 2.021 . S
H862 C853 0.930 . S
H863 C852 0.931 . S
O864 Co840 2.117 . S
O864 C841 1.258 . S
O865 Co840 2.020 . S
O865 C867 1.256 . S
O866 Co842 2.062 . S
O866 C867 1.255 . S
C867 O865 1.256 . S
C867 O866 1.255 . S
H868 C847 0.931 . S
H869 C855 0.931 . S
Co870 N875 2.057 . S
Co870 O887 2.021 . S
Co870 O890 2.062 . S
Co870 O894 2.117 . S
Co870 O895 2.020 . S
C871 O891 1.259 . S
C871 O894 1.258 . S
Co872 N881 2.057 . S
Co872 O888 2.117 1_554 S
Co872 O889 2.020 . S
Co872 O891 2.021 . S
Co872 O896 2.062 . S
C873 N875 1.316 . S
C873 N876 1.347 . S
C873 H878 0.931 . S
C874 N875 1.375 . S
C874 C877 1.350 . S
C874 H879 0.930 . S
N875 Co870 2.057 . S
N875 C873 1.316 . S
N875 C874 1.375 . S
N876 C873 1.347 . S
N876 C877 1.373 . S
C877 C874 1.350 . S
C877 N876 1.373 . S
C877 H898 0.931 . S
H878 C873 0.931 . S
H879 C874 0.930 . S
C880 O887 1.259 1_556 S
C880 O888 1.258 . S
N881 Co872 2.057 . S
N881 C882 1.316 . S
N881 C883 1.375 1_554 S
C882 N881 1.316 . S
C882 N884 1.347 1_554 S
C882 H893 0.931 . S
C883 N881 1.375 1_556 S
C883 C885 1.350 . S
C883 H892 0.930 . S
N884 C882 1.347 1_556 S
N884 C885 1.373 . S
C885 C883 1.350 . S
C885 N884 1.373 . S
C885 H899 0.931 . S
C886 O889 1.256 . S
C886 O890 1.255 . S
O887 Co870 2.021 . S
O887 C880 1.259 1_554 S
O888 Co872 2.117 1_556 S
O888 C880 1.258 . S
O889 Co872 2.020 . S
O889 C886 1.256 . S
O890 Co870 2.062 . S
O890 C886 1.255 . S
O891 C871 1.259 . S
O891 Co872 2.021 . S
H892 C883 0.930 . S
H893 C882 0.931 . S
O894 Co870 2.117 . S
O894 C871 1.258 . S
O895 Co870 2.020 . S
O895 C897 1.256 . S
O896 Co872 2.062 . S
O896 C897 1.255 . S
C897 O895 1.256 . S
C897 O896 1.255 . S
H898 C877 0.931 . S
H899 C885 0.931 . S
Co900 N905 2.057 . S
Co900 O917 2.021 . S
Co900 O920 2.062 . S
Co900 O924 2.117 . S
Co900 O925 2.020 . S
C901 O921 1.259 . S
C901 O924 1.258 . S
Co902 N911 2.057 . S
Co902 O918 2.117 . S
Co902 O919 2.020 . S
Co902 O921 2.021 . S
Co902 O926 2.062 . S
C903 N905 1.316 1_655 S
C903 N906 1.347 . S
C903 H908 0.931 . S
C904 N905 1.375 . S
C904 C907 1.350 1_455 S
C904 H909 0.930 . S
N905 Co900 2.057 . S
N905 C903 1.316 1_455 S
N905 C904 1.375 . S
N906 C903 1.347 . S
N906 C907 1.373 . S
C907 C904 1.350 1_655 S
C907 N906 1.373 . S
C907 H928 0.931 . S
H908 C903 0.931 . S
H909 C904 0.930 . S
C910 O917 1.259 . S
C910 O918 1.258 . S
N911 Co902 2.057 . S
N911 C912 1.316 . S
N911 C913 1.375 . S
C912 N911 1.316 . S
C912 N914 1.347 . S
C912 H923 0.931 . S
C913 N911 1.375 . S
C913 C915 1.350 . S
C913 H922 0.930 . S
N914 C912 1.347 . S
N914 C915 1.373 . S
C915 C913 1.350 . S
C915 N914 1.373 . S
C915 H929 0.931 . S
C916 O919 1.256 . S
C916 O920 1.255 . S
O917 Co900 2.021 . S
O917 C910 1.259 . S
O918 Co902 2.117 . S
O918 C910 1.258 . S
O919 Co902 2.020 . S
O919 C916 1.256 . S
O920 Co900 2.062 . S
O920 C916 1.255 . S
O921 C901 1.259 . S
O921 Co902 2.021 . S
H922 C913 0.930 . S
H923 C912 0.931 . S
O924 Co900 2.117 . S
O924 C901 1.258 . S
O925 Co900 2.020 . S
O925 C927 1.256 . S
O926 Co902 2.062 . S
O926 C927 1.255 . S
C927 O925 1.256 . S
C927 O926 1.255 . S
H928 C907 0.931 . S
H929 C915 0.931 . S
Co930 N935 2.057 . S
Co930 O947 2.021 . S
Co930 O950 2.062 . S
Co930 O954 2.117 . S
Co930 O955 2.020 . S
C931 O951 1.259 . S
C931 O954 1.258 . S
Co932 N941 2.057 . S
Co932 O948 2.117 . S
Co932 O949 2.020 . S
Co932 O951 2.021 . S
Co932 O956 2.062 . S
C933 N935 1.316 . S
C933 N936 1.347 . S
C933 H938 0.931 . S
C934 N935 1.375 . S
C934 C937 1.350 . S
C934 H939 0.930 . S
N935 Co930 2.057 . S
N935 C933 1.316 . S
N935 C934 1.375 . S
N936 C933 1.347 . S
N936 C937 1.373 . S
C937 C934 1.350 . S
C937 N936 1.373 . S
C937 H958 0.931 . S
H938 C933 0.931 . S
H939 C934 0.930 . S
C940 O947 1.259 . S
C940 O948 1.258 . S
N941 Co932 2.057 . S
N941 C942 1.316 . S
N941 C943 1.375 . S
C942 N941 1.316 . S
C942 N944 1.347 . S
C942 H953 0.931 . S
C943 N941 1.375 . S
C943 C945 1.350 . S
C943 H952 0.930 . S
N944 C942 1.347 . S
N944 C945 1.373 . S
C945 C943 1.350 . S
C945 N944 1.373 . S
C945 H959 0.931 . S
C946 O949 1.256 . S
C946 O950 1.255 . S
O947 Co930 2.021 . S
O947 C940 1.259 . S
O948 Co932 2.117 . S
O948 C940 1.258 . S
O949 Co932 2.020 . S
O949 C946 1.256 . S
O950 Co930 2.062 . S
O950 C946 1.255 . S
O951 C931 1.259 . S
O951 Co932 2.021 . S
H952 C943 0.930 . S
H953 C942 0.931 . S
O954 Co930 2.117 . S
O954 C931 1.258 . S
O955 Co930 2.020 . S
O955 C957 1.256 . S
O956 Co932 2.062 . S
O956 C957 1.255 . S
C957 O955 1.256 . S
C957 O956 1.255 . S
H958 C937 0.931 . S
H959 C945 0.931 . S
Co960 N965 2.057 . S
Co960 O977 2.021 . S
Co960 O980 2.062 . S
Co960 O984 2.117 . S
Co960 O985 2.020 . S
C961 O981 1.259 . S
C961 O984 1.258 . S
Co962 N971 2.057 . S
Co962 O978 2.117 . S
Co962 O979 2.020 . S
Co962 O981 2.021 . S
Co962 O986 2.062 . S
C963 N965 1.316 1_545 S
C963 N966 1.347 . S
C963 H968 0.931 . S
C964 N965 1.375 . S
C964 C967 1.350 1_565 S
C964 H969 0.930 . S
N965 Co960 2.057 . S
N965 C963 1.316 1_565 S
N965 C964 1.375 . S
N966 C963 1.347 . S
N966 C967 1.373 . S
C967 C964 1.350 1_545 S
C967 N966 1.373 . S
C967 H988 0.931 . S
H968 C963 0.931 . S
H969 C964 0.930 . S
C970 O977 1.259 . S
C970 O978 1.258 . S
N971 Co962 2.057 . S
N971 C972 1.316 . S
N971 C973 1.375 . S
C972 N971 1.316 . S
C972 N974 1.347 . S
C972 H983 0.931 . S
C973 N971 1.375 . S
C973 C975 1.350 . S
C973 H982 0.930 . S
N974 C972 1.347 . S
N974 C975 1.373 . S
C975 C973 1.350 . S
C975 N974 1.373 . S
C975 H989 0.931 . S
C976 O979 1.256 . S
C976 O980 1.255 . S
O977 Co960 2.021 . S
O977 C970 1.259 . S
O978 Co962 2.117 . S
O978 C970 1.258 . S
O979 Co962 2.020 . S
O979 C976 1.256 . S
O980 Co960 2.062 . S
O980 C976 1.255 . S
O981 C961 1.259 . S
O981 Co962 2.021 . S
H982 C973 0.930 . S
H983 C972 0.931 . S
O984 Co960 2.117 . S
O984 C961 1.258 . S
O985 Co960 2.020 . S
O985 C987 1.256 . S
O986 Co962 2.062 . S
O986 C987 1.255 . S
C987 O985 1.256 . S
C987 O986 1.255 . S
H988 C967 0.931 . S
H989 C975 0.931 . S
Co990 N995 2.057 . S
Co990 O1007 2.021 . S
Co990 O1010 2.062 . S
Co990 O1014 2.117 . S
Co990 O1015 2.020 . S
C991 O1011 1.259 . S
C991 O1014 1.258 . S
Co992 N1001 2.057 . S
Co992 O1008 2.117 . S
Co992 O1009 2.020 . S
Co992 O1011 2.021 . S
Co992 O1016 2.062 . S
C993 N995 1.316 . S
C993 N996 1.347 . S
C993 H998 0.931 . S
C994 N995 1.375 . S
C994 C997 1.350 . S
C994 H999 0.930 . S
N995 Co990 2.057 . S
N995 C993 1.316 . S
N995 C994 1.375 . S
N996 C993 1.347 . S
N996 C997 1.373 . S
C997 C994 1.350 . S
C997 N996 1.373 . S
C997 H1018 0.931 . S
H998 C993 0.931 . S
H999 C994 0.930 . S
C1000 O1007 1.259 . S
C1000 O1008 1.258 . S
N1001 Co992 2.057 . S
N1001 C1002 1.316 . S
N1001 C1003 1.375 . S
C1002 N1001 1.316 . S
C1002 N1004 1.347 . S
C1002 H1013 0.931 . S
C1003 N1001 1.375 . S
C1003 C1005 1.350 . S
C1003 H1012 0.930 . S
N1004 C1002 1.347 . S
N1004 C1005 1.373 . S
C1005 C1003 1.350 . S
C1005 N1004 1.373 . S
C1005 H1019 0.931 . S
C1006 O1009 1.256 . S
C1006 O1010 1.255 . S
O1007 Co990 2.021 . S
O1007 C1000 1.259 . S
O1008 Co992 2.117 . S
O1008 C1000 1.258 . S
O1009 Co992 2.020 . S
O1009 C1006 1.256 . S
O1010 Co990 2.062 . S
O1010 C1006 1.255 . S
O1011 C991 1.259 . S
O1011 Co992 2.021 . S
H1012 C1003 0.930 . S
H1013 C1002 0.931 . S
O1014 Co990 2.117 . S
O1014 C991 1.258 . S
O1015 Co990 2.020 . S
O1015 C1017 1.256 . S
O1016 Co992 2.062 . S
O1016 C1017 1.255 . S
C1017 O1015 1.256 . S
C1017 O1016 1.255 . S
H1018 C997 0.931 . S
H1019 C1005 0.931 . S
Co1020 N1025 2.057 . S
Co1020 O1037 2.021 . S
Co1020 O1040 2.062 . S
Co1020 O1044 2.117 . S
Co1020 O1045 2.020 . S
C1021 O1041 1.259 . S
C1021 O1044 1.258 . S
Co1022 N1031 2.057 . S
Co1022 O1038 2.117 . S
Co1022 O1039 2.020 . S
Co1022 O1041 2.021 . S
Co1022 O1046 2.062 . S
C1023 N1025 1.316 . S
C1023 N1026 1.347 . S
C1023 H1028 0.931 . S
C1024 N1025 1.375 . S
C1024 C1027 1.350 . S
C1024 H1029 0.930 . S
N1025 Co1020 2.057 . S
N1025 C1023 1.316 . S
N1025 C1024 1.375 . S
N1026 C1023 1.347 . S
N1026 C1027 1.373 . S
C1027 C1024 1.350 . S
C1027 N1026 1.373 . S
C1027 H1048 0.931 . S
H1028 C1023 0.931 . S
H1029 C1024 0.930 . S
C1030 O1037 1.259 . S
C1030 O1038 1.258 . S
N1031 Co1022 2.057 . S
N1031 C1032 1.316 . S
N1031 C1033 1.375 . S
C1032 N1031 1.316 . S
C1032 N1034 1.347 . S
C1032 H1043 0.931 . S
C1033 N1031 1.375 . S
C1033 C1035 1.350 . S
C1033 H1042 0.930 . S
N1034 C1032 1.347 . S
N1034 C1035 1.373 . S
C1035 C1033 1.350 . S
C1035 N1034 1.373 . S
C1035 H1049 0.931 . S
C1036 O1039 1.256 . S
C1036 O1040 1.255 . S
O1037 Co1020 2.021 . S
O1037 C1030 1.259 . S
O1038 Co1022 2.117 . S
O1038 C1030 1.258 . S
O1039 Co1022 2.020 . S
O1039 C1036 1.256 . S
O1040 Co1020 2.062 . S
O1040 C1036 1.255 . S
O1041 C1021 1.259 . S
O1041 Co1022 2.021 . S
H1042 C1033 0.930 . S
H1043 C1032 0.931 . S
O1044 Co1020 2.117 . S
O1044 C1021 1.258 . S
O1045 Co1020 2.020 . S
O1045 C1047 1.256 . S
O1046 Co1022 2.062 . S
O1046 C1047 1.255 . S
C1047 O1045 1.256 . S
C1047 O1046 1.255 . S
H1048 C1027 0.931 . S
H1049 C1035 0.931 . S
Co1050 N1055 2.057 . S
Co1050 O1067 2.021 . S
Co1050 O1070 2.062 . S
Co1050 O1074 2.117 . S
Co1050 O1075 2.020 . S
C1051 O1071 1.259 . S
C1051 O1074 1.258 . S
Co1052 N1061 2.057 . S
Co1052 O1068 2.117 . S
Co1052 O1069 2.020 . S
Co1052 O1071 2.021 . S
Co1052 O1076 2.062 . S
C1053 N1055 1.316 . S
C1053 N1056 1.347 . S
C1053 H1058 0.931 . S
C1054 N1055 1.375 . S
C1054 C1057 1.350 . S
C1054 H1059 0.930 . S
N1055 Co1050 2.057 . S
N1055 C1053 1.316 . S
N1055 C1054 1.375 . S
N1056 C1053 1.347 . S
N1056 C1057 1.373 . S
C1057 C1054 1.350 . S
C1057 N1056 1.373 . S
C1057 H1078 0.931 . S
H1058 C1053 0.931 . S
H1059 C1054 0.930 . S
C1060 O1067 1.259 . S
C1060 O1068 1.258 . S
N1061 Co1052 2.057 . S
N1061 C1062 1.316 . S
N1061 C1063 1.375 . S
C1062 N1061 1.316 . S
C1062 N1064 1.347 . S
C1062 H1073 0.931 . S
C1063 N1061 1.375 . S
C1063 C1065 1.350 . S
C1063 H1072 0.930 . S
N1064 C1062 1.347 . S
N1064 C1065 1.373 . S
C1065 C1063 1.350 . S
C1065 N1064 1.373 . S
C1065 H1079 0.931 . S
C1066 O1069 1.256 . S
C1066 O1070 1.255 . S
O1067 Co1050 2.021 . S
O1067 C1060 1.259 . S
O1068 Co1052 2.117 . S
O1068 C1060 1.258 . S
O1069 Co1052 2.020 . S
O1069 C1066 1.256 . S
O1070 Co1050 2.062 . S
O1070 C1066 1.255 . S
O1071 C1051 1.259 . S
O1071 Co1052 2.021 . S
H1072 C1063 0.930 . S
H1073 C1062 0.931 . S
O1074 Co1050 2.117 . S
O1074 C1051 1.258 . S
O1075 Co1050 2.020 . S
O1075 C1077 1.256 . S
O1076 Co1052 2.062 . S
O1076 C1077 1.255 . S
C1077 O1075 1.256 . S
C1077 O1076 1.255 . S
H1078 C1057 0.931 . S
H1079 C1065 0.931 . S
C27 N224 2.073 . S
N254 C57 2.072 . S
N194 C87 2.072 . S
N344 C117 2.072 . S
C147 N284 2.072 . S
C177 N314 2.072 . S
N36 C196 2.073 . S
C226 N66 2.072 . S
N6 C256 2.072 . S
N156 C286 2.072 . S
C316 N96 2.072 . S
C346 N126 2.072 . S
C387 N584 2.072 . S
N614 C417 2.072 . S
N554 C447 2.072 . S
C477 N704 2.072 . S
N644 C507 2.072 . S
C537 N674 2.072 . S
C556 N396 2.073 . S
N426 C586 2.072 . S
C616 N366 2.072 . S
N516 C646 2.072 . S
N456 C676 2.072 . S
C706 N486 2.072 . S
C747 N944 2.073 . S
C777 N974 2.072 . S
N914 C807 2.072 . S
N1064 C837 2.072 . S
C867 N1004 2.072 . S
N1034 C897 2.072 . S
N756 C916 2.072 . S
C946 N786 2.072 . S
N726 C976 2.072 . S
C1006 N876 2.072 . S
C1036 N816 2.072 . S
C1066 N846 2.072 . S
N14 N546 3.210 . S
N44 N576 3.210 . S
N606 N74 3.210 . S
N996 N104 3.210 . S
N1026 N134 3.210 . S
N1056 N164 3.210 . S
N186 N734 3.210 . S
N764 N216 3.210 . S
N246 N794 3.210 . S
N276 N464 3.210 . S
N306 N494 3.210 . S
N336 N524 3.210 . S
N374 N906 3.210 1_455 S
N936 N404 3.210 . S
N434 N966 3.210 1_565 S
N824 N636 3.210 1_546 S
N666 N854 3.210 1_454 S
N884 N696 3.210 1_556 S
C1 C481 3.424 . S
C31 C511 3.424 . S
C451 C61 3.424 . S
C91 C781 3.424 . S
C721 C121 3.424 . S
C151 C751 3.424 . S
C1030 C190 3.424 . S
C220 C1060 3.424 . S
C1000 C250 3.424 . S
C280 C610 3.424 . S
C310 C550 3.424 . S
C340 C580 3.424 . S
C841 C361 3.424 1_455 S
C391 C871 3.424 . S
C421 C811 3.424 1_545 S
C970 C640 3.424 1_565 S
C910 C670 3.424 1_455 S
C940 C700 3.424 . S
C100 C10 2.653 . S
C40 C130 2.653 1_565 S
C70 C160 2.653 1_455 S
C271 C181 2.653 . S
C211 C301 2.653 1_545 S
C331 C241 2.653 1_455 S
C460 C370 2.653 . S
C400 C490 2.653 . S
C430 C520 2.653 . S
C541 C631 2.653 . S
C571 C661 2.653 . S
C601 C691 2.653 . S
C730 C820 2.653 . S
C850 C760 2.653 . S
C880 C790 2.653 . S
C901 C991 2.653 . S
C1021 C931 2.653 . S
C961 C1051 2.653 . S
C16 C886 1.972 . S
C826 C46 1.972 . S
C76 C856 1.972 . S
C406 C106 1.972 . S
C136 C436 1.972 . S
C166 C376 1.972 . S
C717 C207 1.972 . S
C237 C657 1.972 . S
C687 C267 1.972 . S
C297 C957 1.972 . S
C987 C327 1.972 . S
C927 C357 1.972 . S
C466 C766 1.972 1_655 S
C496 C796 1.972 . S
C526 C736 1.972 1_545 S
C567 C1077 1.972 1_545 S
C597 C1017 1.972 1_655 S
C1047 C627 1.972 . S
