# Generated by pormake.
# Topology unn, (4)-cn, num edge types: 1
# Building blocks:
#     Node 0, Type 0, BuildingBlock: KUFVIS_clean_sbu_0, # of connection points: 4
#     Node 1, Type 0, BuildingBlock: KUFVIS_clean_sbu_0, # of connection points: 4
#     Node 2, Type 0, BuildingBlock: KUFVIS_clean_sbu_0, # of connection points: 4
#     Node 3, Type 0, BuildingBlock: KUFVIS_clean_sbu_0, # of connection points: 4
#     Node 4, Type 0, BuildingBlock: KUFVIS_clean_sbu_0, # of connection points: 4
#     Node 5, Type 0, BuildingBlock: KUFVIS_clean_sbu_0, # of connection points: 4
#     Node 6, Type 0, BuildingBlock: KUFVIS_clean_sbu_0, # of connection points: 4
#     Node 7, Type 0, BuildingBlock: KUFVIS_clean_sbu_0, # of connection points: 4
#     Node 8, Type 0, BuildingBlock: KUFVIS_clean_sbu_0, # of connection points: 4
#     Node 9, Type 0, BuildingBlock: KUFVIS_clean_sbu_0, # of connection points: 4
#     Node 10, Type 0, BuildingBlock: KUFVIS_clean_sbu_0, # of connection points: 4
#     Node 11, Type 0, BuildingBlock: KUFVIS_clean_sbu_0, # of connection points: 4
#     Node 12, Type 0, BuildingBlock: KUFVIS_clean_sbu_0, # of connection points: 4
#     Node 13, Type 0, BuildingBlock: KUFVIS_clean_sbu_0, # of connection points: 4
#     Node 14, Type 0, BuildingBlock: KUFVIS_clean_sbu_0, # of connection points: 4
#     Node 15, Type 0, BuildingBlock: KUFVIS_clean_sbu_0, # of connection points: 4
#     Node 16, Type 0, BuildingBlock: KUFVIS_clean_sbu_0, # of connection points: 4
#     Node 17, Type 0, BuildingBlock: KUFVIS_clean_sbu_0, # of connection points: 4
#     Edge 18, Type (0, 0), BuildingBlock: XUDNAN_clean_linker_2, # of connection points: 2
#     Edge 19, Type (0, 0), BuildingBlock: XUDNAN_clean_linker_2, # of connection points: 2
#     Edge 20, Type (0, 0), BuildingBlock: XUDNAN_clean_linker_2, # of connection points: 2
#     Edge 21, Type (0, 0), BuildingBlock: XUDNAN_clean_linker_2, # of connection points: 2
#     Edge 22, Type (0, 0), BuildingBlock: XUDNAN_clean_linker_2, # of connection points: 2
#     Edge 23, Type (0, 0), BuildingBlock: XUDNAN_clean_linker_2, # of connection points: 2
#     Edge 24, Type (0, 0), BuildingBlock: XUDNAN_clean_linker_2, # of connection points: 2
#     Edge 25, Type (0, 0), BuildingBlock: XUDNAN_clean_linker_2, # of connection points: 2
#     Edge 26, Type (0, 0), BuildingBlock: XUDNAN_clean_linker_2, # of connection points: 2
#     Edge 27, Type (0, 0), BuildingBlock: XUDNAN_clean_linker_2, # of connection points: 2
#     Edge 28, Type (0, 0), BuildingBlock: XUDNAN_clean_linker_2, # of connection points: 2
#     Edge 29, Type (0, 0), BuildingBlock: XUDNAN_clean_linker_2, # of connection points: 2
#     Edge 30, Type (0, 0), BuildingBlock: XUDNAN_clean_linker_2, # of connection points: 2
#     Edge 31, Type (0, 0), BuildingBlock: XUDNAN_clean_linker_2, # of connection points: 2
#     Edge 32, Type (0, 0), BuildingBlock: XUDNAN_clean_linker_2, # of connection points: 2
#     Edge 33, Type (0, 0), BuildingBlock: XUDNAN_clean_linker_2, # of connection points: 2
#     Edge 34, Type (0, 0), BuildingBlock: XUDNAN_clean_linker_2, # of connection points: 2
#     Edge 35, Type (0, 0), BuildingBlock: XUDNAN_clean_linker_2, # of connection points: 2
#     Edge 36, Type (0, 0), BuildingBlock: XUDNAN_clean_linker_2, # of connection points: 2
#     Edge 37, Type (0, 0), BuildingBlock: XUDNAN_clean_linker_2, # of connection points: 2
#     Edge 38, Type (0, 0), BuildingBlock: XUDNAN_clean_linker_2, # of connection points: 2
#     Edge 39, Type (0, 0), BuildingBlock: XUDNAN_clean_linker_2, # of connection points: 2
#     Edge 40, Type (0, 0), BuildingBlock: XUDNAN_clean_linker_2, # of connection points: 2
#     Edge 41, Type (0, 0), BuildingBlock: XUDNAN_clean_linker_2, # of connection points: 2
#     Edge 42, Type (0, 0), BuildingBlock: XUDNAN_clean_linker_2, # of connection points: 2
#     Edge 43, Type (0, 0), BuildingBlock: XUDNAN_clean_linker_2, # of connection points: 2
#     Edge 44, Type (0, 0), BuildingBlock: XUDNAN_clean_linker_2, # of connection points: 2
#     Edge 45, Type (0, 0), BuildingBlock: XUDNAN_clean_linker_2, # of connection points: 2
#     Edge 46, Type (0, 0), BuildingBlock: XUDNAN_clean_linker_2, # of connection points: 2
#     Edge 47, Type (0, 0), BuildingBlock: XUDNAN_clean_linker_2, # of connection points: 2
#     Edge 48, Type (0, 0), BuildingBlock: XUDNAN_clean_linker_2, # of connection points: 2
#     Edge 49, Type (0, 0), BuildingBlock: XUDNAN_clean_linker_2, # of connection points: 2
#     Edge 50, Type (0, 0), BuildingBlock: XUDNAN_clean_linker_2, # of connection points: 2
#     Edge 51, Type (0, 0), BuildingBlock: XUDNAN_clean_linker_2, # of connection points: 2
#     Edge 52, Type (0, 0), BuildingBlock: XUDNAN_clean_linker_2, # of connection points: 2
#     Edge 53, Type (0, 0), BuildingBlock: XUDNAN_clean_linker_2, # of connection points: 2
# Relax obj value: 0.184
# Max RMSD: 0.280
# Mean RMSD: 0.269
data_MOF--net-unn--node1-KUFVIS_clean_sbu_0--edge1-XUDNAN_clean_linker_2
_symmetry_space_group_name_H-M    P1
_symmetry_Int_Tables_number       1
_symmetry_cell_setting            triclinic
loop_
_symmetry_equiv_pos_as_xyz
'x, y, z'
_cell_length_a     44.739182
_cell_length_b     45.835272
_cell_length_c     38.279106
_cell_angle_alpha  90.776006
_cell_angle_beta   90.130094
_cell_angle_gamma 119.45606
loop_
_atom_site_label
_atom_site_type_symbol
_atom_site_fract_x
_atom_site_fract_y
_atom_site_fract_z
_atom_type_partial_charge
Mn0 Mn 0.02725 0.71143 0.20175 0.0
Mn1 Mn 1.0137 0.77438 0.22658 0.0
C2 C 0.97925 0.71209 0.18092 0.0
C3 C 0.05221 0.69194 0.16141 0.0
C4 C 0.99648 0.71441 0.27186 0.0
O5 O 0.07299 0.74504 0.22383 0.0
O6 O 0.06298 0.7874 0.23696 0.0
C7 C 0.05759 0.82366 0.17422 0.0
N8 N 0.02613 0.80475 0.18867 0.0
C9 C 0.99978 0.82427 0.14708 0.0
C10 C 0.03195 0.84415 0.13192 0.0
C11 C 0.06097 0.84383 0.14556 0.0
C12 C 0.99804 0.80487 0.17575 0.0
H13 H 0.07989 0.82321 0.1844 0.0
C14 C 0.08271 0.77437 0.23616 0.0
O15 O 0.04318 0.67812 0.19188 0.0
O16 O 0.04863 0.71777 0.15579 0.0
N17 N 0.96776 0.76552 0.21818 0.0
C18 C 0.93857 0.74469 0.23563 0.0
C19 C 0.90714 0.74178 0.22497 0.0
C20 C 0.90609 0.76044 0.19666 0.0
C21 C 0.93657 0.78221 0.17956 0.0
C22 C 0.96717 0.78428 0.19153 0.0
H23 H 0.93918 0.73008 0.25724 0.0
O24 O 0.9813 0.68494 0.1798 0.0
O25 O 1.0064 0.73884 0.1931 0.0
O26 O 1.00545 0.6986 0.25029 0.0
O27 O 0.99934 0.7431 0.26594 0.0
C28 C 0.93774 0.80163 0.15083 0.0
C29 C 0.96932 0.82264 0.1346 0.0
H30 H 0.03463 0.8596 0.10968 0.0
H31 H 0.08585 0.85897 0.13389 0.0
H32 H 0.88374 0.72498 0.23834 0.0
H33 H 0.88174 0.75784 0.18826 0.0
H34 H 0.91448 0.80045 0.14089 0.0
H35 H 0.96986 0.83731 0.11242 0.0
Mn36 Mn 0.26029 0.31233 0.25454 0.0
Mn37 Mn 0.18014 0.25689 0.22948 0.0
C38 C 0.215 0.31761 0.27641 0.0
C39 C 0.30526 0.32721 0.29377 0.0
C40 C 0.22749 0.31445 0.18447 0.0
O41 O 0.26695 0.27542 0.23238 0.0
O42 O 0.21291 0.24133 0.21364 0.0
C43 C 0.17302 0.20379 0.27742 0.0
N44 N 0.16206 0.22501 0.26608 0.0
C45 C 0.11839 0.20629 0.31004 0.0
C46 C 0.12908 0.18409 0.32209 0.0
C47 C 0.15654 0.18288 0.30573 0.0
C48 C 0.1359 0.22662 0.28185 0.0
H49 H 0.19426 0.20297 0.26505 0.0
C50 C 0.24482 0.24971 0.21541 0.0
O51 O 0.31084 0.34102 0.26325 0.0
O52 O 0.27426 0.30433 0.30055 0.0
N53 N 0.14578 0.26825 0.24206 0.0
C54 C 0.13724 0.28934 0.22564 0.0
C55 C 0.10933 0.29246 0.23773 0.0
C56 C 0.09053 0.27386 0.26654 0.0
C57 C 0.09936 0.25174 0.2825 0.0
C58 C 0.12701 0.24923 0.26885 0.0
H59 H 0.15156 0.30355 0.2034 0.0
O60 O 0.24583 0.34283 0.27661 0.0
O61 O 0.21168 0.28951 0.26377 0.0
O62 O 0.25347 0.32594 0.20528 0.0
O63 O 0.19796 0.28985 0.19179 0.0
C64 C 0.0814 0.23161 0.31095 0.0
C65 C 0.09103 0.20902 0.32483 0.0
H66 H 0.1164 0.16789 0.34387 0.0
H67 H 0.16502 0.1659 0.31495 0.0
H68 H 0.10227 0.30908 0.22481 0.0
H69 H 0.06904 0.27636 0.27585 0.0
H70 H 0.06002 0.23316 0.32222 0.0
H71 H 0.07701 0.19364 0.34668 0.0
Mn72 Mn 0.79819 0.01593 0.19352 0.0
Mn73 Mn 0.71758 0.9856 0.22185 0.0
C74 C 0.753 0.99535 0.15388 0.0
C75 C 0.84598 0.06626 0.17434 0.0
C76 C 0.75783 0.94803 0.22912 0.0
O77 O 0.80482 0.03268 0.24372 0.0
O78 O 0.75005 0.01827 0.25698 0.0
C79 C 0.71232 0.04742 0.21892 0.0
N80 N 0.70082 0.01506 0.20858 0.0
C81 C 0.65818 0.01581 0.17072 0.0
C82 C 0.66939 0.04905 0.18121 0.0
C83 C 0.69659 0.06492 0.2054 0.0
C84 C 0.67462 0.99952 0.18536 0.0
H85 H 0.73352 0.05985 0.23712 0.0
C86 C 0.78234 0.03294 0.26393 0.0
O87 O 0.8498 0.04115 0.18411 0.0
O88 O 0.81561 0.06222 0.17656 0.0
N89 N 0.68445 0.9543 0.18922 0.0
C90 C 0.67821 0.92294 0.18013 0.0
C91 C 0.65222 0.90388 0.15559 0.0
C92 C 0.633 0.91728 0.14061 0.0
C93 C 0.64005 0.9497 0.15016 0.0
C94 C 0.66589 0.96731 0.17517 0.0
H95 H 0.69296 0.91254 0.19146 0.0
O96 O 0.7822 0.99828 0.14479 0.0
O97 O 0.75162 1.00402 0.18583 0.0
O98 O 0.78445 0.96797 0.21132 0.0
O99 O 0.73295 0.9536 0.23546 0.0
C100 C 0.62287 0.96544 0.13541 0.0
C101 C 0.63196 0.99849 0.14564 0.0
H102 H 0.65756 0.06275 0.17056 0.0
H103 H 0.70556 0.09067 0.21342 0.0
H104 H 0.64707 0.87896 0.14817 0.0
H105 H 0.61306 0.90252 0.12161 0.0
H106 H 0.60292 0.95251 0.11585 0.0
H107 H 0.61889 1.01049 0.13376 0.0
Mn108 Mn 0.03381 0.30124 0.73147 0.0
Mn109 Mn 0.97523 0.32427 0.74832 0.0
C110 C 1.01458 0.29848 0.78696 0.0
C111 C 0.09252 0.31741 0.73003 0.0
C112 C 0.95509 0.25582 0.722 0.0
O113 O 0.03564 0.32582 0.68791 0.0
O114 O 0.98835 0.32983 0.69777 0.0
C115 C 0.02222 0.39652 0.73693 0.0
N116 N 1.00108 0.37131 0.75833 0.0
C117 C 1.00966 0.41049 0.80493 0.0
C118 C 0.03153 0.43688 0.7834 0.0
C119 C 0.03792 0.42984 0.74928 0.0
C120 C 0.99504 0.37779 0.79132 0.0
H121 H 0.02694 0.3913 0.71057 0.0
C122 C 1.01146 0.33063 0.67743 0.0
O123 O 0.06993 0.29004 0.71407 0.0
O124 O 0.08124 0.33538 0.74475 0.0
N125 N 0.95984 0.32013 0.7955 0.0
C126 C 0.93699 0.29199 0.81241 0.0
C127 C 0.92836 0.29463 0.84711 0.0
C128 C 0.94255 0.32625 0.86369 0.0
C129 C 0.96509 0.35496 0.84532 0.0
C130 C 0.97321 0.3507 0.811 0.0
H131 H 0.92586 0.26768 0.79963 0.0
O132 O 0.02805 0.28045 0.77718 0.0
O133 O 1.01345 0.31865 0.76388 0.0
O134 O 0.98579 0.26194 0.71469 0.0
O135 O 0.94832 0.27612 0.73885 0.0
C136 C 0.9794 0.38767 0.8595 0.0
C137 C 1.00147 0.4154 0.83921 0.0
H138 H 0.04346 0.46263 0.79275 0.0
H139 H 0.05471 0.45006 0.73247 0.0
H140 H 0.91069 0.27238 0.86099 0.0
H141 H 0.93566 0.32822 0.89038 0.0
H142 H 0.97342 0.3918 0.88589 0.0
H143 H 1.01175 0.44044 0.85005 0.0
Mn144 Mn 0.76074 0.8182 0.74508 0.0
Mn145 Mn 0.69083 0.73876 0.74259 0.0
C146 C 0.73071 0.79241 0.69107 0.0
C147 C 0.79209 0.78663 0.72828 0.0
C148 C 0.68463 0.79853 0.76366 0.0
O149 O 0.76142 0.8028 0.79396 0.0
O150 O 0.71603 0.75003 0.78862 0.0
C151 C 0.72692 0.69928 0.74715 0.0
N152 N 0.70628 0.70796 0.72911 0.0
C153 C 0.69747 0.668 0.68322 0.0
C154 C 0.71959 0.6595 0.70077 0.0
C155 C 0.73405 0.67493 0.73307 0.0
C156 C 0.69102 0.69217 0.69876 0.0
H157 H 0.73807 0.71106 0.77198 0.0
C158 C 0.74083 0.77398 0.8061 0.0
O159 O 0.806 0.81814 0.73038 0.0
O160 O 0.76021 0.77269 0.7345 0.0
N161 N 0.66489 0.72527 0.69981 0.0
C162 C 0.64402 0.7362 0.68623 0.0
C163 C 0.62699 0.72271 0.65427 0.0
C164 C 0.63144 0.69803 0.6367 0.0
C165 C 0.65287 0.68703 0.65127 0.0
C166 C 0.66903 0.70126 0.68329 0.0
H167 H 0.64072 0.75534 0.69952 0.0
O168 O 0.75137 0.82397 0.69411 0.0
O169 O 0.72961 0.77618 0.71889 0.0
O170 O 0.71666 0.81946 0.76053 0.0
O171 O 0.67167 0.76745 0.75631 0.0
C172 C 0.65924 0.66289 0.635 0.0
C173 C 0.6815 0.65335 0.65099 0.0
H174 H 0.72531 0.64087 0.68992 0.0
H175 H 0.75073 0.66814 0.74705 0.0
H176 H 0.61061 0.73143 0.6431 0.0
H177 H 0.61842 0.6878 0.61196 0.0
H178 H 0.64727 0.65161 0.61011 0.0
H179 H 0.6862 0.63476 0.63824 0.0
Mn180 Mn 0.28427 0.01335 0.74672 0.0
Mn181 Mn 0.36943 0.06442 0.74741 0.0
C182 C 0.31058 0.04785 0.79454 0.0
C183 C 0.24187 0.95879 0.76311 0.0
C184 C 0.32083 0.07682 0.70242 0.0
O185 O 0.30065 0.99374 0.70952 0.0
O186 O 0.35825 0.02667 0.71337 0.0
C187 C 0.38844 0.01778 0.78003 0.0
N188 N 0.38869 0.04759 0.78076 0.0
C189 C 0.41405 0.06077 0.83835 0.0
C190 C 0.41456 0.03046 0.83798 0.0
C191 C 0.4014 1.00873 0.80879 0.0
C192 C 0.40091 0.06852 0.80886 0.0
H193 H 0.37776 1.00072 0.75797 0.0
C194 C 0.331 1.0015 0.70061 0.0
O195 O 0.23483 0.97546 0.74027 0.0
O196 O 0.27238 0.9739 0.77599 0.0
N197 N 0.38237 0.10104 0.77975 0.0
C198 C 0.37697 0.12772 0.7773 0.0
C199 C 0.38703 0.15107 0.80508 0.0
C200 C 0.40229 0.14663 0.83516 0.0
C201 C 0.4076 0.11898 0.83707 0.0
C202 C 0.39761 0.09686 0.80831 0.0
H203 H 0.36481 0.13099 0.75447 0.0
O204 O 0.27827 0.03706 0.78819 0.0
O205 O 0.32599 0.04009 0.77064 0.0
O206 O 0.29231 0.05208 0.7129 0.0
O207 O 0.35044 0.08317 0.71356 0.0
C208 C 0.42156 0.11202 0.86675 0.0
C209 C 0.42476 0.08292 0.86739 0.0
H210 H 0.42435 0.02341 0.8603 0.0
H211 H 0.40061 0.98478 0.80859 0.0
H212 H 0.38271 0.17227 0.80345 0.0
H213 H 0.40952 0.1644 0.85676 0.0
H214 H 0.42936 0.12858 0.88946 0.0
H215 H 0.43489 0.07747 0.89059 0.0
Mn216 Mn 0.70767 0.07838 0.53647 0.0
Mn217 Mn 0.66439 0.10988 0.5801 0.0
C218 C 0.65203 0.06175 0.51946 0.0
C219 C 0.74671 0.08474 0.49358 0.0
C220 C 0.66843 0.05025 0.60481 0.0
O221 O 0.74524 0.1157 0.56525 0.0
O222 O 0.71363 0.13223 0.59611 0.0
C223 C 0.70075 0.17593 0.54633 0.0
N224 N 0.67089 0.14772 0.55392 0.0
C225 C 0.63759 0.16786 0.52364 0.0
C226 C 0.66799 0.1972 0.5156 0.0
C227 C 0.69971 0.20118 0.52688 0.0
C228 C 0.6403 0.14334 0.54261 0.0
H229 H 0.72516 0.17911 0.55508 0.0
C230 C 0.74214 0.13322 0.58931 0.0
O231 O 0.74149 0.06509 0.51979 0.0
O232 O 0.72981 0.10098 0.49293 0.0
N233 N 0.61667 0.09152 0.56937 0.0
C234 C 0.58969 0.06306 0.58187 0.0
C235 C 0.55604 0.05551 0.57354 0.0
C236 C 0.55045 0.07796 0.55369 0.0
C237 C 0.57859 0.10784 0.54248 0.0
C238 C 0.61155 0.11376 0.55116 0.0
H239 H 0.59388 0.04611 0.59782 0.0
O240 O 0.66722 0.04532 0.5094 0.0
O241 O 0.67101 0.08951 0.53742 0.0
O242 O 0.68855 0.05014 0.58103 0.0
O243 O 0.65676 0.07068 0.60649 0.0
C244 C 0.57522 0.1323 0.52368 0.0
C245 C 0.60471 0.16214 0.51395 0.0
H246 H 0.66726 0.21686 0.50088 0.0
H247 H 0.72328 0.22373 0.52074 0.0
H248 H 0.53445 0.03263 0.58272 0.0
H249 H 0.52443 0.07224 0.54769 0.0
H250 H 0.55006 0.12841 0.51654 0.0
H251 H 0.60179 0.18069 0.49938 0.0
Mn252 Mn 0.94845 0.67294 0.57775 0.0
Mn253 Mn 0.86746 0.611 0.56943 0.0
C254 C 0.90529 0.6818 0.59953 0.0
C255 C 0.99841 0.69202 0.60984 0.0
C256 C 0.90999 0.65445 0.50925 0.0
O257 O 0.95244 0.63231 0.56309 0.0
O258 O 0.89821 0.59033 0.56854 0.0
C259 C 0.86018 0.57689 0.63645 0.0
N260 N 0.8497 0.59313 0.61426 0.0
C261 C 0.80723 0.58973 0.65496 0.0
C262 C 0.81733 0.57265 0.67811 0.0
C263 C 0.84395 0.56624 0.66882 0.0
C264 C 0.82414 0.59944 0.62293 0.0
H265 H 0.88092 0.57228 0.62957 0.0
C266 C 0.93025 0.60132 0.5627 0.0
O267 O 0.99981 0.70009 0.57718 0.0
O268 O 0.96846 0.67426 0.62348 0.0
N269 N 0.83551 0.62743 0.57015 0.0
C270 C 0.83026 0.64593 0.54585 0.0
C271 C 0.80504 0.65521 0.55163 0.0
C272 C 0.78563 0.64556 0.58231 0.0
C273 C 0.79146 0.6265 0.60691 0.0
C274 C 0.81654 0.61751 0.59952 0.0
H275 H 0.84525 0.65361 0.5223 0.0
O276 O 0.93568 0.70694 0.5942 0.0
O277 O 0.90183 0.65231 0.59269 0.0
O278 O 0.93516 0.67608 0.52769 0.0
O279 O 0.88414 0.62867 0.52197 0.0
C280 C 0.77375 0.61655 0.63874 0.0
C281 C 0.78165 0.59821 0.66277 0.0
H282 H 0.80509 0.56467 0.70323 0.0
H283 H 0.8521 0.55333 0.68667 0.0
H284 H 0.80053 0.66978 0.53256 0.0
H285 H 0.76643 0.65304 0.58677 0.0
H286 H 0.75429 0.62322 0.64515 0.0
H287 H 0.76819 0.5911 0.68737 0.0
Mn288 Mn 0.44398 0.34606 0.57004 0.0
Mn289 Mn 0.44481 0.41791 0.58937 0.0
C290 C 0.46526 0.37314 0.62315 0.0
C291 C 0.41428 0.28679 0.57691 0.0
C292 C 0.4968 0.41616 0.54187 0.0
O293 O 0.41006 0.34515 0.53461 0.0
O294 O 0.41841 0.39717 0.54526 0.0
C295 C 0.37092 0.38657 0.60611 0.0
N296 N 0.4044 0.40565 0.61609 0.0
C297 C 0.38828 0.41459 0.67351 0.0
C298 C 0.35362 0.39518 0.66379 0.0
C299 C 0.34491 0.381 0.62999 0.0
C300 C 0.41305 0.41906 0.64869 0.0
H301 H 0.36412 0.37574 0.58012 0.0
C302 C 0.40633 0.37012 0.52671 0.0
O303 O 0.43766 0.30072 0.55306 0.0
O304 O 0.40755 0.3068 0.59462 0.0
N305 N 0.4696 0.44029 0.63108 0.0
C306 C 0.50421 0.45848 0.63622 0.0
C307 C 0.51724 0.47384 0.66894 0.0
C308 C 0.49456 0.47056 0.69587 0.0
C309 C 0.45903 0.45217 0.68974 0.0
C310 C 0.44757 0.43742 0.65662 0.0
H311 H 0.52171 0.46106 0.61556 0.0
O312 O 0.47574 0.35351 0.61027 0.0
O313 O 0.44407 0.37729 0.60348 0.0
O314 O 0.48312 0.38391 0.54034 0.0
O315 O 0.48688 0.43165 0.56271 0.0
C316 C 0.43457 0.44806 0.71512 0.0
C317 C 0.39923 0.4295 0.70693 0.0
H318 H 0.33349 0.39084 0.68213 0.0
H319 H 0.31822 0.36587 0.62234 0.0
H320 H 0.54468 0.48811 0.6734 0.0
H321 H 0.50469 0.48238 0.72108 0.0
H322 H 0.44265 0.45914 0.74099 0.0
H323 H 0.38065 0.42651 0.72666 0.0
Mn324 Mn 0.69921 0.6169 0.07036 0.0
Mn325 Mn 0.64767 0.6467 0.09561 0.0
C326 C 0.67973 0.60979 0.12707 0.0
C327 C 0.75743 0.63108 0.06895 0.0
C328 C 0.62425 0.58591 0.04672 0.0
O329 O 0.70584 0.65015 0.03342 0.0
O330 O 0.67559 0.67363 0.05549 0.0
C331 C 0.70048 0.71327 0.12245 0.0
N332 N 0.67238 0.68287 0.12814 0.0
C333 C 0.67271 0.69588 0.1893 0.0
C334 C 0.70151 0.72738 0.18404 0.0
C335 C 0.71547 0.73609 0.15048 0.0
C336 C 0.65882 0.6742 0.16036 0.0
H337 H 0.71156 0.71993 0.09679 0.0
C338 C 0.69572 0.67171 0.03286 0.0
O339 O 0.73505 0.60694 0.04892 0.0
O340 O 0.74617 0.64656 0.08817 0.0
N341 N 0.62058 0.62268 0.13477 0.0
C342 C 0.59411 0.5906 0.13587 0.0
C343 C 0.57778 0.57772 0.16776 0.0
C344 C 0.58878 0.59794 0.19814 0.0
C345 C 0.61608 0.63088 0.19636 0.0
C346 C 0.63131 0.64238 0.16385 0.0
H347 H 0.58561 0.57493 0.11261 0.0
O348 O 0.68919 0.58952 0.11362 0.0
O349 O 0.6793 0.63084 0.10528 0.0
O350 O 0.65193 0.58386 0.04805 0.0
O351 O 0.62075 0.60874 0.06286 0.0
C352 C 0.62904 0.65263 0.22566 0.0
C353 C 0.6575 0.68501 0.2222 0.0
H354 H 0.71326 0.74494 0.20562 0.0
H355 H 0.73785 0.76028 0.14627 0.0
H356 H 0.55679 0.55223 0.16894 0.0
H357 H 0.57624 0.58785 0.22273 0.0
H358 H 0.61755 0.64455 0.25109 0.0
H359 H 0.66759 0.70128 0.24503 0.0
Mn360 Mn 0.37342 0.09748 0.08989 0.0
Mn361 Mn 0.35497 0.01896 0.10673 0.0
C362 C 0.39546 0.08672 0.13883 0.0
C363 C 0.35684 0.13863 0.09771 0.0
C364 C 0.41076 0.06124 0.05761 0.0
O365 O 0.3334 0.07086 0.05742 0.0
O366 O 0.33074 0.02123 0.06402 0.0
C367 C 0.28294 0.99643 0.12618 0.0
N368 N 0.31453 1.00093 0.13459 0.0
C369 C 0.29418 0.97357 0.1896 0.0
C370 C 0.26142 0.96869 0.18155 0.0
C371 C 0.25586 0.9804 0.14981 0.0
C372 C 0.3204 0.99059 0.16548 0.0
H373 H 0.27838 1.0048 0.10153 0.0
C374 C 0.32352 0.041 0.04728 0.0
O375 O 0.37702 0.14076 0.07218 0.0
O376 O 0.34655 0.11316 0.11759 0.0
N377 N 0.3766 1.01211 0.14651 0.0
C378 C 0.40886 0.01628 0.14903 0.0
C379 C 0.41877 1.00626 0.17943 0.0
C380 C 0.39501 0.99091 0.20631 0.0
C381 C 0.36141 0.98526 0.20232 0.0
C382 C 0.35326 0.99648 0.17179 0.0
H383 H 0.42697 0.02743 0.1281 0.0
O384 O 0.41011 0.1166 0.12615 0.0
O385 O 0.36792 0.06414 0.12275 0.0
O386 O 0.40401 0.08565 0.057 0.0
O387 O 0.39661 0.03684 0.07877 0.0
C388 C 0.33537 0.96784 0.22683 0.0
C389 C 0.3017 0.96177 0.22036 0.0
H390 H 0.24034 0.95585 0.19946 0.0
H391 H 0.23063 0.97667 0.14337 0.0
H392 H 0.44455 1.0101 0.18199 0.0
H393 H 0.40263 0.98289 0.22956 0.0
H394 H 0.34088 0.95876 0.25062 0.0
H395 H 0.28188 0.94829 0.23937 0.0
Mn396 Mn 1.01413 0.35386 0.08298 0.0
Mn397 Mn 0.09789 0.41002 0.08351 0.0
C398 C 0.03487 0.39423 0.12505 0.0
C399 C 0.972 0.29842 0.09612 0.0
C400 C 0.04842 0.42244 0.04421 0.0
O401 O 0.03385 0.33402 0.04998 0.0
O402 O 0.08492 0.37898 0.04177 0.0
C403 C 0.11735 0.35836 0.09985 0.0
N404 N 0.11777 0.38755 0.10829 0.0
C405 C 0.15261 0.39544 0.15937 0.0
C406 C 0.15241 0.36542 0.15127 0.0
C407 C 0.13462 0.34677 0.12142 0.0
C408 C 0.13448 0.40547 0.13721 0.0
H409 H 0.10414 0.34405 0.07676 0.0
C410 C 0.06093 0.34986 0.03265 0.0
O411 O 0.96722 0.31473 0.07106 0.0
O412 O 0.99998 0.3148 0.11415 0.0
N413 N 0.11558 0.44245 0.12083 0.0
C414 C 0.11541 0.47204 0.1236 0.0
C415 C 0.1324 0.49387 0.1519 0.0
C416 C 0.15055 0.4857 0.17623 0.0
C417 C 0.15164 0.4558 0.17197 0.0
C418 C 0.13362 0.4347 0.14364 0.0
H419 H 0.10205 0.47871 0.10452 0.0
O420 O 1.0021 0.37732 0.11869 0.0
O421 O 0.05443 0.38473 0.10867 0.0
O422 O 0.02271 0.39233 0.04731 0.0
O423 O 0.07759 0.43313 0.05925 0.0
C424 C 0.17035 0.44637 0.19439 0.0
C425 C 0.17058 0.41607 0.18826 0.0
H426 H 0.16604 0.35661 0.16762 0.0
H427 H 0.13448 0.32365 0.11488 0.0
H428 H 0.1318 0.5171 0.15474 0.0
H429 H 0.16392 0.50276 0.19782 0.0
H430 H 0.18452 0.46216 0.21652 0.0
H431 H 0.18502 0.40904 0.20564 0.0
Mn432 Mn 0.35182 0.38495 0.88404 0.0
Mn433 Mn 0.33739 0.44854 0.90333 0.0
C434 C 0.3057 0.38533 0.85782 0.0
C435 C 0.38353 0.36784 0.85075 0.0
C436 C 0.31796 0.38972 0.95104 0.0
O437 O 0.39521 0.41887 0.90873 0.0
O438 O 0.38674 0.46295 0.91578 0.0
C439 C 0.38215 0.49631 0.85029 0.0
N440 N 0.35043 0.47772 0.8643 0.0
C441 C 0.32481 0.49609 0.82068 0.0
C442 C 0.35727 0.5157 0.80599 0.0
C443 C 0.38605 0.51577 0.82085 0.0
C444 C 0.32255 0.47744 0.85021 0.0
H445 H 0.40428 0.49614 0.86141 0.0
C446 C 0.40558 0.44905 0.91811 0.0
O447 O 0.37081 0.35348 0.88031 0.0
O448 O 0.37746 0.39124 0.84073 0.0
N449 N 0.29141 0.43847 0.89267 0.0
C450 C 0.26171 0.41705 0.90901 0.0
C451 C 0.23039 0.41333 0.89674 0.0
C452 C 0.22994 0.43175 0.86793 0.0
C453 C 0.26086 0.45394 0.85179 0.0
C454 C 0.29133 0.45682 0.86536 0.0
H455 H 0.26184 0.40262 0.93101 0.0
O456 O 0.30786 0.35814 0.85831 0.0
O457 O 0.33175 0.41207 0.87162 0.0
O458 O 0.32629 0.3726 0.93066 0.0
O459 O 0.32233 0.41878 0.94411 0.0
C460 C 0.26258 0.47279 0.82234 0.0
C461 C 0.29453 0.49385 0.8068 0.0
H462 H 0.36034 0.53055 0.78311 0.0
H463 H 0.41114 0.53065 0.8095 0.0
H464 H 0.20663 0.3961 0.90929 0.0
H465 H 0.20569 0.4285 0.85828 0.0
H466 H 0.23945 0.47099 0.8112 0.0
H467 H 0.29547 0.50794 0.78394 0.0
Mn468 Mn 0.58475 0.97545 0.90242 0.0
Mn469 Mn 0.50571 0.92111 0.87301 0.0
C470 C 0.54136 0.98822 0.91059 0.0
C471 C 0.62511 0.99018 0.94627 0.0
C472 C 0.56304 0.96803 0.82586 0.0
O473 O 0.58806 0.93391 0.89075 0.0
O474 O 0.53368 0.89781 0.8746 0.0
C475 C 0.483 0.87663 0.93402 0.0
N476 N 0.47872 0.89754 0.91222 0.0
C477 C 0.42901 0.8902 0.94356 0.0
C478 C 0.43272 0.86841 0.96626 0.0
C479 C 0.4599 0.86167 0.96152 0.0
C480 C 0.45289 0.90444 0.91675 0.0
H481 H 0.50392 0.87149 0.93045 0.0
C482 C 0.56514 0.90538 0.87928 0.0
O483 O 0.63456 1.00019 0.91456 0.0
O484 O 0.59268 0.9719 0.95237 0.0
N485 N 0.47605 0.93985 0.86956 0.0
C486 C 0.47669 0.962 0.84585 0.0
C487 C 0.45176 0.97205 0.84742 0.0
C488 C 0.42606 0.95875 0.87291 0.0
C489 C 0.42572 0.93566 0.89675 0.0
C490 C 0.45135 0.9267 0.89401 0.0
H491 H 0.49636 0.97222 0.82621 0.0
O492 O 0.57325 1.01134 0.91304 0.0
O493 O 0.53593 0.95778 0.90477 0.0
O494 O 0.58525 0.98354 0.85005 0.0
O495 O 0.53228 0.94485 0.83151 0.0
C496 C 0.40108 0.92129 0.92323 0.0
C497 C 0.4027 0.89854 0.9466 0.0
H498 H 0.41497 0.85684 -0.0125 0.0
H499 H 0.46303 0.84499 0.97902 0.0
H500 H 0.45267 0.99018 0.82911 0.0
H501 H 0.4067 0.96637 0.87402 0.0
H502 H 0.38094 0.92776 0.92602 0.0
H503 H 0.38381 0.88789 0.96705 0.0
Mn504 Mn 0.10512 0.671 0.86213 0.0
Mn505 Mn 0.03824 0.59445 0.85172 0.0
C506 C 0.09299 0.64406 0.80851 0.0
C507 C 0.12645 0.72942 0.85494 0.0
C508 C 0.10119 0.60499 0.887 0.0
O509 O 0.07652 0.66864 0.90349 0.0
O510 O 0.03913 0.61323 0.89975 0.0
C511 C 0.98568 0.61594 0.85305 0.0
N512 N 1.00155 0.60121 0.83584 0.0
C513 C 0.96662 0.59182 0.78447 0.0
C514 C 0.9498 0.60673 0.80173 0.0
C515 C 0.95942 0.61888 0.83614 0.0
C516 C 0.99249 0.58945 0.8027 0.0
H517 H 0.99299 0.62539 0.87947 0.0
C518 C 0.05356 0.64138 0.91664 0.0
O519 O 0.14296 0.71885 0.87448 0.0
O520 O 0.0984 0.70657 0.84108 0.0
N521 N 0.03504 0.57444 0.80666 0.0
C522 C 0.05399 0.56098 0.79364 0.0
C523 C 0.048 0.54821 0.75924 0.0
C524 C 0.02258 0.54937 0.73865 0.0
C525 C 1.00321 0.5631 0.75275 0.0
C526 C 1.01024 0.57531 0.78724 0.0
H527 H 0.07373 0.56028 0.80931 0.0
O528 O 0.12439 0.66559 0.81703 0.0
O529 O 0.07083 0.63716 0.83322 0.0
O530 O 0.11576 0.63726 0.88848 0.0
O531 O 0.07572 0.58691 0.86684 0.0
C532 C 0.97732 0.56528 0.73389 0.0
C533 C 0.95894 0.5795 0.74979 0.0
H534 H 0.92966 0.60921 0.78871 0.0
H535 H 0.94666 0.63057 0.84958 0.0
H536 H 0.06301 0.53761 0.74857 0.0
H537 H 0.01814 0.53963 0.71207 0.0
H538 H 0.97135 0.55611 0.70714 0.0
H539 H 0.93913 0.58109 0.735 0.0
Mn540 Mn 0.36353 0.95031 0.41098 0.0
Mn541 Mn 0.30816 0.97937 0.42069 0.0
C542 C 0.33114 0.93867 0.46066 0.0
C543 C 0.4203 0.96221 0.42073 0.0
C544 C 0.29387 0.92018 0.37263 0.0
O545 O 0.37884 0.98616 0.37487 0.0
O546 O 0.34345 1.00715 0.38579 0.0
C547 C 0.35399 0.04608 0.45259 0.0
N548 N 0.32584 0.01508 0.45462 0.0
C549 C 0.31105 0.02851 0.51066 0.0
C550 C 0.33967 0.06072 0.50899 0.0
C551 C 0.36135 0.06945 0.47993 0.0
C552 C 0.30499 1.00631 0.48262 0.0
H553 H 0.37057 0.05299 0.43018 0.0
C554 C 0.36871 1.00732 0.36975 0.0
O555 O 0.40077 0.93934 0.39791 0.0
O556 O 0.40706 0.97771 0.4372 0.0
N557 N 0.27344 0.95465 0.45426 0.0
C558 C 0.24707 0.92251 0.45197 0.0
C559 C 0.2238 0.90939 0.47962 0.0
C560 C 0.22773 0.92952 0.50918 0.0
C561 C 0.2549 0.96261 0.5108 0.0
C562 C 0.27736 0.97427 0.48252 0.0
H563 H 0.2439 0.90694 0.4293 0.0
O564 O 0.34429 0.92006 0.45161 0.0
O565 O 0.33724 0.9631 0.43997 0.0
O566 O 0.32113 0.91861 0.3799 0.0
O567 O 0.28759 0.94229 0.38606 0.0
C568 C 0.26057 0.98448 0.53939 0.0
C569 C 0.28844 0.0175 0.53918 0.0
H570 H 0.34545 0.0788 0.53005 0.0
H571 H 0.38362 0.09418 0.47857 0.0
H572 H 0.20288 0.88384 0.47815 0.0
H573 H 0.20974 0.9193 0.53046 0.0
H574 H 0.24362 0.97619 0.56164 0.0
H575 H 0.29251 0.03411 0.56127 0.0
Mn576 Mn 0.05667 0.43644 0.41229 0.0
Mn577 Mn 0.97724 0.42087 0.39121 0.0
C578 C 0.04861 0.4622 0.36406 0.0
C579 C 0.09558 0.41591 0.40272 0.0
C580 C 0.01871 0.46847 0.45016 0.0
O581 O 0.02662 0.39566 0.43966 0.0
O582 O 0.97388 0.38634 0.425 0.0
C583 C 0.95981 0.359 0.35074 0.0
N584 N 0.96328 0.39022 0.35234 0.0
C585 C 0.95057 0.38822 0.29094 0.0
C586 C 0.94649 0.35589 0.28872 0.0
C587 C 0.95122 0.34126 0.31873 0.0
C588 C 0.9593 0.40471 0.32351 0.0
H589 H 0.96392 0.34787 0.37364 0.0
C590 C 0.9942 0.37923 0.44182 0.0
O591 O 0.09919 0.43479 0.42996 0.0
O592 O 0.07038 0.40964 0.38223 0.0
N593 N 0.97576 0.4518 0.35914 0.0
C594 C 0.9808 0.48319 0.36579 0.0
C595 C 0.976 0.50097 0.33878 0.0
C596 C 0.96611 0.4863 0.30525 0.0
C597 C 0.96065 0.45378 0.29918 0.0
C598 C 0.96511 0.43703 0.32731 0.0
H599 H 0.98827 0.49449 0.39154 0.0
O600 O 0.0785 0.47451 0.37909 0.0
O601 O 0.02468 0.4358 0.37908 0.0
O602 O 0.04572 0.46522 0.44754 0.0
O603 O 0.99213 0.45341 0.43033 0.0
C604 C 0.95141 0.4375 0.26625 0.0
C605 C 0.9467 0.40486 0.26206 0.0
H606 H 0.93998 0.34218 0.26406 0.0
H607 H 0.94843 0.31645 0.31716 0.0
H608 H 0.98011 0.52599 0.34373 0.0
H609 H 0.9629 0.50027 0.28437 0.0
H610 H 0.94821 0.44998 0.24389 0.0
H611 H 0.94005 0.39277 0.23651 0.0
Mn612 Mn 0.67057 0.67998 0.40096 0.0
Mn613 Mn 0.75278 0.74262 0.40666 0.0
C614 C 0.68868 0.71725 0.4475 0.0
C615 C 0.632 0.62346 0.41552 0.0
C616 C 0.70089 0.74389 0.35647 0.0
O617 O 0.69538 0.66546 0.36742 0.0
O618 O 0.75021 0.7069 0.37462 0.0
C619 C 0.78531 0.70821 0.44202 0.0
N620 N 0.77663 0.73281 0.44195 0.0
C621 C 0.80765 0.7566 0.49574 0.0
C622 C 0.81722 0.73171 0.49619 0.0
C623 C 0.80587 0.70733 0.46929 0.0
C624 C 0.78741 0.75639 0.4677 0.0
H625 H 0.77698 0.68968 0.42118 0.0
C626 C 0.72733 0.67908 0.36084 0.0
O627 O 0.6251 0.63785 0.39004 0.0
O628 O 0.66067 0.64167 0.43181 0.0
N629 N 0.75812 0.7783 0.43719 0.0
C630 C 0.74668 0.80062 0.43273 0.0
C631 C 0.75513 0.82624 0.45776 0.0
C632 C 0.77544 0.82877 0.48691 0.0
C633 C 0.7867 0.80537 0.49106 0.0
C634 C 0.77744 0.78037 0.46528 0.0
H635 H 0.73131 0.79894 0.41021 0.0
O636 O 0.65623 0.70038 0.43947 0.0
O637 O 0.70892 0.71221 0.42735 0.0
O638 O 0.67453 0.71602 0.3651 0.0
O639 O 0.73058 0.75533 0.37034 0.0
C640 C 0.80693 0.80598 0.51962 0.0
C641 C 0.81763 0.78178 0.5218 0.0
H642 H 0.83344 0.73117 0.5169 0.0
H643 H 0.81324 0.6881 0.4694 0.0
H644 H 0.74622 0.84413 0.45446 0.0
H645 H 0.78228 0.84884 0.50592 0.0
H646 H 0.81457 0.82507 0.53994 0.0
H647 H 0.83366 0.7829 0.54357 0.0
H648 H 0.09033 0.72384 0.10582 0.0
H649 H 0.02765 0.62494 0.14814 0.0
H650 H 0.02279 0.59984 0.08917 0.0
H651 H 0.04199 0.71198 0.03481 0.0
H652 H 0.07614 0.73595 0.00483 0.0
H653 H 0.08235 0.74575 0.0508 0.0
H654 H 0.1359 0.73792 0.05203 0.0
H655 H 0.13087 0.72953 0.00563 0.0
H656 H 0.13284 0.6998 0.03455 0.0
H657 H 1.01669 0.58707 0.02346 0.0
H658 H 1.0165 0.58712 0.95886 0.0
H659 H 0.08041 0.69547 0.96131 0.0
C660 C 0.07699 0.69679 0.10298 0.0
C661 C 0.05966 0.67625 0.13141 0.0
C662 C 0.04174 0.64101 0.12673 0.0
C663 C 0.03851 0.62662 0.09325 0.0
C664 C 0.05367 0.64793 0.06514 0.0
C665 C 0.07329 0.68225 0.06994 0.0
C666 C 0.08399 0.70019 0.03556 0.0
C667 C 0.07028 0.7249 0.03128 0.0
C668 C 0.12323 0.71789 0.03172 0.0
C669 C 0.06638 0.6708 0.01051 0.0
C670 C 0.04927 0.64079 0.02783 0.0
C671 C 0.03036 0.61044 0.00971 0.0
C672 C 0.03 0.61079 0.97299 0.0
C673 C 0.04828 0.64133 0.95484 0.0
C674 C 0.06605 0.67165 0.97415 0.0
H675 H 0.33987 0.40814 0.01846 0.0
H676 H 0.25353 0.33751 0.95489 0.0
H677 H 0.21874 0.31497 0.00819 0.0
H678 H 0.32661 0.35036 0.08743 0.0
H679 H 0.34013 0.3818 0.12168 0.0
H680 H 0.35712 0.39344 0.07839 0.0
H681 H 0.33665 0.43743 0.07734 0.0
H682 H 0.31901 0.42543 0.12043 0.0
H683 H 0.29205 0.42427 0.08477 0.0
H684 H 0.19324 0.30145 0.06777 0.0
H685 H 0.1813 0.2897 0.13012 0.0
H686 H 0.28579 0.36632 0.15591 0.0
C687 C 0.3137 0.38777 0.01601 0.0
C688 C 0.29915 0.37424 0.98295 0.0
C689 C 0.26497 0.34772 0.98027 0.0
C690 C 0.24501 0.33512 0.01026 0.0
C691 C 0.2599 0.34917 0.04261 0.0
C692 C 0.29367 0.37439 0.04578 0.0
C693 C 0.30411 0.38332 0.08381 0.0
C694 C 0.33373 0.37683 0.09338 0.0
C695 C 0.31351 0.41978 0.09206 0.0
C696 C 0.27105 0.3589 0.10153 0.0
C697 C 0.24567 0.3401 0.07721 0.0
C698 C 0.21297 0.31583 0.08707 0.0
C699 C 0.20643 0.30947 0.1227 0.0
C700 C 0.23271 0.32682 0.14813 0.0
C701 C 0.26513 0.35258 0.13727 0.0
H702 H 0.71842 0.95102 0.1004 0.0
H703 H 0.74252 0.04758 0.14516 0.0
H704 H 0.71436 0.05792 0.09509 0.0
H705 H 0.7331 0.97589 0.01238 0.0
H706 H 0.69783 0.93801 -0.00566 0.0
H707 H 0.71797 0.93677 0.03467 0.0
H708 H 0.65932 0.91085 0.06676 0.0
H709 H 0.63936 0.91055 0.02574 0.0
H710 H 0.63358 0.93111 0.06344 0.0
H711 H 0.68715 0.05944 0.03898 0.0
H712 H 0.6551 0.04852 0.983 0.0
H713 H 0.64727 0.95064 0.97509 0.0
C714 C 0.717 0.97393 0.09979 0.0
C715 C 0.73161 0.99817 0.12675 0.0
C716 C 0.73039 0.02836 0.12502 0.0
C717 C 0.71483 0.03459 0.0966 0.0
C718 C 0.70087 1.01039 0.07014 0.0
C719 C 0.70119 0.98039 0.07168 0.0
C720 C 0.68431 0.95872 0.03961 0.0
C721 C 0.70984 0.95197 0.01904 0.0
C722 C 0.65224 0.92586 0.04951 0.0
C723 C 0.67483 0.98139 0.01977 0.0
C724 C 0.68495 1.01122 0.0377 0.0
C725 C 0.67903 0.03619 0.02465 0.0
C726 C 0.66122 0.03 -0.00715 0.0
C727 C 0.64963 0.99915 0.97495 0.0
C728 C 0.65671 0.9747 -0.01174 0.0
H729 H 0.7466 0.10928 0.42992 0.0
H730 H 0.79221 0.06086 0.48907 0.0
H731 H 0.81859 0.05408 0.43502 0.0
H732 H 0.71805 0.05359 0.36516 0.0
H733 H 0.72428 0.08193 0.33019 0.0
H734 H 0.71837 0.09251 0.37389 0.0
H735 H 0.7759 0.1484 0.3711 0.0
H736 H 0.78192 0.13805 0.327 0.0
H737 H 0.81472 0.14788 0.35971 0.0
H738 H 0.83075 0.04339 0.37379 0.0
H739 H 0.82294 0.02516 0.31163 0.0
H740 H 0.76505 0.07639 0.29332 0.0
C741 C 0.76334 0.09853 0.43181 0.0
C742 C 0.76775 0.08591 0.4636 0.0
C743 C 0.78883 0.07096 0.4649 0.0
C744 C 0.80407 0.06723 0.43439 0.0
C745 C 0.79786 0.07858 0.403 0.0
C746 C 0.77793 0.09398 0.40161 0.0
C747 C 0.76938 0.09809 0.36443 0.0
C748 C 0.73023 0.08045 0.35808 0.0
C749 C 0.78652 0.13532 0.35501 0.0
C750 C 0.78564 0.08063 0.34512 0.0
C751 C 0.8032 0.07077 0.36757 0.0
C752 C 0.81774 0.05161 0.3559 0.0
C753 C 0.81322 0.04138 0.32066 0.0
C754 C 0.7935 0.0496 0.29812 0.0
C755 C 0.78048 0.07019 0.31021 0.0
H756 H 0.94609 0.71138 0.47141 0.0
H757 H 0.88308 0.60339 0.46084 0.0
H758 H 0.89792 0.60673 0.39834 0.0
H759 H 0.92528 0.73059 0.38397 0.0
H760 H 0.96807 0.76525 0.37868 0.0
H761 H 0.94997 0.75422 0.42168 0.0
H762 H 1.00244 0.74886 0.44167 0.0
H763 H 0.02036 0.75918 0.39861 0.0
H764 H 1.01292 0.72071 0.41831 0.0
H765 H 0.92562 0.62141 0.33884 0.0
H766 H 0.95689 0.64733 0.2845 0.0
H767 H 0.9992 0.74567 0.33378 0.0
C768 C 0.93478 0.68853 0.45575 0.0
C769 C 0.91338 0.65715 0.47091 0.0
C770 C 0.89918 0.62776 0.44964 0.0
C771 C 0.9077 0.62936 0.41419 0.0
C772 C 0.9299 0.6606 0.40036 0.0
C773 C 0.94256 0.68973 0.42028 0.0
C774 C 0.96629 0.7201 0.39935 0.0
C775 C 0.95151 0.74394 0.3957 0.0
C776 C 1.00265 0.73826 0.41546 0.0
C777 C 0.96568 0.70345 0.36479 0.0
C778 C 0.94479 0.6691 0.36589 0.0
C779 C 0.94164 0.64833 0.3375 0.0
C780 C 0.95972 0.6632 0.30692 0.0
C781 C 0.98029 0.69845 0.30498 0.0
C782 C 0.98338 0.71866 0.33442 0.0
H783 H 0.36272 0.31599 0.48582 0.0
H784 H 0.42137 0.42471 0.48731 0.0
H785 H 0.40739 0.42517 0.42504 0.0
H786 H 0.38511 0.30271 0.39977 0.0
H787 H 0.343 0.26849 0.3891 0.0
H788 H 0.35781 0.27638 0.43385 0.0
H789 H 0.30454 0.28109 0.45225 0.0
H790 H 0.28914 0.27223 0.40779 0.0
H791 H 0.29471 0.30967 0.42969 0.0
H792 H 0.38851 0.41367 0.3618 0.0
H793 H 0.35686 0.3914 0.30583 0.0
H794 H 0.30948 0.2908 0.34662 0.0
C795 C 0.37226 0.3399 0.47315 0.0
C796 C 0.39297 0.37027 0.49145 0.0
C797 C 0.405 0.40108 0.47396 0.0
C798 C 0.39763 0.40162 0.43844 0.0
C799 C 0.37798 0.37118 0.4209 0.0
C800 C 0.36479 0.34093 0.43786 0.0
C801 C 0.3428 0.31185 0.41355 0.0
C802 C 0.35811 0.28849 0.4088 0.0
C803 C 0.3056 0.29259 0.42659 0.0
C804 C 0.34544 0.33048 0.38036 0.0
C805 C 0.36644 0.36463 0.38484 0.0
C806 C 0.37205 0.38696 0.35793 0.0
C807 C 0.35433 0.37412 0.32614 0.0
C808 C 0.33102 0.33947 0.32205 0.0
C809 C 0.32746 0.31739 0.34907 0.0
H810 H 0.04583 0.35526 0.8272 0.0
H811 H 0.97922 0.24772 0.83064 0.0
H812 H 0.98941 0.24904 0.89421 0.0
H813 H 0.10796 0.3591 0.88589 0.0
H814 H 0.11664 0.39784 0.9072 0.0
H815 H 0.10164 0.38957 0.86253 0.0
H816 H 0.05047 0.39836 0.87808 0.0
H817 H 0.06567 0.40749 0.92255 0.0
H818 H 0.02237 0.37503 0.91327 0.0
H819 H 1.01119 0.26087 0.95507 0.0
H820 H 0.03205 0.28428 0.01407 0.0
H821 H 0.08486 0.38454 0.97202 0.0
C822 C 0.03222 0.33233 0.84176 0.0
C823 C 1.01106 0.30147 0.82455 0.0
C824 C 0.99484 0.27162 0.84384 0.0
C825 C 1.0009 0.27208 0.87972 0.0
C826 C 0.02355 0.3026 0.89565 0.0
C827 C 0.03827 0.33231 0.87763 0.0
C828 C 0.06195 0.36151 0.90114 0.0
C829 C 0.09925 0.37796 0.88841 0.0
C830 C 0.04929 0.38709 0.90391 0.0
C831 C 0.0579 0.34361 0.93527 0.0
C832 C 0.03621 0.30951 0.93115 0.0
C833 C 0.02802 0.28754 0.95876 0.0
C834 C 0.04032 0.30102 -0.00793 0.0
C835 C 0.06017 0.33614 -0.0025 0.0
C836 C 0.07041 0.35757 0.9685 0.0
H837 H 0.70701 0.65779 0.96719 0.0
H838 H 0.70942 0.73707 0.03238 0.0
H839 H 0.7294 0.77522 0.98186 0.0
H840 H 0.78042 0.70938 0.91212 0.0
H841 H 0.75965 0.68468 0.87345 0.0
H842 H 0.74993 0.66537 0.91568 0.0
H843 H 0.68512 0.64446 0.90523 0.0
H844 H 0.69462 0.66338 0.86295 0.0
H845 H 0.67145 0.67424 0.89419 0.0
H846 H 0.74713 0.80355 0.92341 0.0
H847 H 0.75267 0.81719 0.86053 0.0
H848 H 0.7343 0.71735 0.83449 0.0
C849 C 0.71233 0.68338 0.971 0.0
C850 C 0.70725 0.69483 0.00356 0.0
C851 C 0.71338 0.72805 0.00748 0.0
C852 C 0.72499 0.74987 0.97912 0.0
C853 C 0.72988 0.73774 0.94726 0.0
C854 C 0.72322 0.70508 0.94303 0.0
C855 C 0.72663 0.69678 0.90551 0.0
C856 C 0.75591 0.68858 0.90147 0.0
C857 C 0.69243 0.66804 0.89114 0.0
C858 C 0.73555 0.72968 0.88898 0.0
C859 C 0.73826 0.75333 0.9135 0.0
C860 C 0.7453 0.78532 0.90402 0.0
C861 C 0.74857 0.79289 0.8684 0.0
C862 C 0.74396 0.76823 0.84305 0.0
C863 C 0.73809 0.73659 0.85351 0.0
H864 H 0.30964 0.07765 -0.00017 0.0
H865 H 0.31448 0.98568 0.01048 0.0
H866 H 0.31599 0.98086 0.94668 0.0
H867 H 0.25506 0.05047 0.91956 0.0
H868 H 0.27692 0.09201 0.9018 0.0
H869 H 0.27332 0.08665 0.94841 0.0
H870 H 0.33955 0.12294 0.95401 0.0
H871 H 0.34343 0.12727 0.90728 0.0
H872 H 0.36641 0.11039 0.93054 0.0
H873 H 0.32626 0.99033 0.8836 0.0
H874 H 0.32688 1.00384 0.82174 0.0
H875 H 0.31112 0.08727 0.84986 0.0
C876 C 0.30979 0.05584 -0.0112 0.0
C877 C 0.31233 0.03226 0.0104 0.0
C878 C 0.31257 1.00416 -0.00527 0.0
C879 C 0.31389 1.00137 0.95843 0.0
C880 C 0.3141 0.02642 0.93817 0.0
C881 C 0.31067 0.05238 0.95251 0.0
C882 C 0.31116 0.07568 0.92443 0.0
C883 C 0.27708 0.07622 0.92349 0.0
C884 C 0.34197 0.11117 0.92939 0.0
C885 C 0.31545 0.05867 0.89215 0.0
C886 C 0.31811 0.03088 0.901 0.0
C887 C 0.32368 1.01171 0.87625 0.0
C888 C 0.32454 0.01994 0.8412 0.0
C889 C 0.31954 0.04689 0.8312 0.0
C890 C 0.31548 0.06687 0.857 0.0
H891 H 0.37756 0.02417 0.64797 0.0
H892 H 0.28829 0.93562 0.68606 0.0
H893 H 0.28068 0.90778 0.62869 0.0
H894 H 0.34754 0.02892 0.57465 0.0
H895 H 0.38258 0.03932 0.54489 0.0
H896 H 0.39106 0.05023 0.59046 0.0
H897 H 0.42324 0.01788 0.59916 0.0
H898 H 0.41925 1.00924 0.55278 0.0
H899 H 0.40501 0.97532 0.58311 0.0
H900 H 0.27729 0.89288 0.56546 0.0
H901 H 0.28158 0.89071 0.5009 0.0
H902 H 0.36949 0.99078 0.50353 0.0
C903 C 0.35765 0.99828 0.64473 0.0
C904 C 0.3336 0.98195 0.67125 0.0
C905 C 0.30703 0.94845 0.6659 0.0
C906 C 0.30249 0.93242 0.63345 0.0
C907 C 0.32504 0.95012 0.60688 0.0
C908 C 0.35274 0.98193 0.61238 0.0
C909 C 0.37084 0.99681 0.57851 0.0
C910 C 0.37307 0.0308 0.57166 0.0
C911 C 0.4067 0.99998 0.57839 0.0
C912 C 0.34699 0.96983 0.55295 0.0
C913 C 0.32158 0.94252 0.56992 0.0
C914 C 0.29713 0.91405 0.55181 0.0
C915 C 0.29942 0.91311 0.51534 0.0
C916 C 0.325 0.941 0.49771 0.0
C917 C 0.34892 0.96967 0.51665 0.0
H918 H 0.9762 0.35622 0.6414 0.0
H919 H 0.03385 0.30357 0.6274 0.0
H920 H 0.02097 0.29779 0.56452 0.0
H921 H 0.91086 0.30985 0.57066 0.0
H922 H 0.91015 0.34701 0.55708 0.0
H923 H 0.91855 0.34241 0.60221 0.0
H924 H 0.97649 0.39868 0.60125 0.0
H925 H 0.96628 0.40361 0.55718 0.0
H926 H 1.00653 0.40515 0.56686 0.0
H927 H 1.00776 0.30221 0.50368 0.0
H928 H 1.00587 0.32721 0.44781 0.0
H929 H 0.95782 0.37825 0.49871 0.0
C930 C 0.98589 0.34333 0.62503 0.0
C931 C 1.00615 0.33051 0.63932 0.0
C932 C 0.01864 0.31402 0.61707 0.0
C933 C 1.0109 0.31 0.58135 0.0
C934 C 0.99065 0.32263 0.56808 0.0
C935 C 0.97884 0.33954 0.58902 0.0
C936 C 0.96166 0.35462 0.56726 0.0
C937 C 0.923 0.33744 0.57475 0.0
C938 C 0.97882 0.39277 0.57349 0.0
C939 C 0.96811 0.34574 0.53071 0.0
C940 C 0.98336 0.32582 0.53201 0.0
C941 C 0.99518 0.31717 0.50215 0.0
C942 C 0.99375 0.33122 0.47045 0.0
C943 C 0.98097 0.35389 0.46903 0.0
C944 C 0.96628 0.3598 0.49902 0.0
H945 H 0.67746 0.76072 0.48865 0.0
H946 H 0.72 0.69363 0.48838 0.0
H947 H 0.73458 0.7057 0.55072 0.0
H948 H 0.74024 0.82329 0.55219 0.0
H949 H 0.70756 0.83025 0.57128 0.0
H950 H 0.70418 0.81776 0.52594 0.0
H951 H 0.64326 0.76878 0.54081 0.0
H952 H 0.64893 0.77954 0.58673 0.0
H953 H 0.63925 0.73821 0.57223 0.0
H954 H 0.74298 0.72263 0.61147 0.0
H955 H 0.74902 0.74733 0.66989 0.0
H956 H 0.70053 0.80354 0.63403 0.0
C957 C 0.69019 0.74905 0.50188 0.0
C958 C 0.69865 0.7271 0.48389 0.0
C959 C 0.71441 0.71137 0.50176 0.0
C960 C 0.72252 0.71781 0.53712 0.0
C961 C 0.71418 0.7397 0.55421 0.0
C962 C 0.69864 0.75536 0.53746 0.0
C963 C 0.69222 0.77738 0.5628 0.0
C964 C 0.71223 0.81436 0.55236 0.0
C965 C 0.65362 0.76525 0.56584 0.0
C966 C 0.70666 0.77151 0.59615 0.0
C967 C 0.71898 0.74954 0.59029 0.0
C968 C 0.73387 0.74018 0.61646 0.0
C969 C 0.73689 0.75412 0.64962 0.0
C970 C 0.7244 0.77653 0.65649 0.0
C971 C 0.7095 0.78578 0.62939 0.0
H972 H 0.35932 0.32526 0.79636 0.0
H973 H 0.45253 0.39454 0.85129 0.0
H974 H 0.48646 0.39835 0.79892 0.0
H975 H 0.40129 0.28695 0.73437 0.0
H976 H 0.37301 0.28467 0.6995 0.0
H977 H 0.35816 0.2778 0.74397 0.0
H978 H 0.34078 0.32238 0.73629 0.0
H979 H 0.35855 0.33399 0.69342 0.0
H980 H 0.37278 0.36493 0.72831 0.0
H981 H 0.50847 0.40258 0.73724 0.0
H982 H 0.51616 0.4055 0.67275 0.0
H983 H 0.40694 0.33941 0.65848 0.0
C984 C 0.3871 0.33913 0.798 0.0
C985 C 0.40365 0.35853 0.82794 0.0
C986 C 0.43978 0.37842 0.82887 0.0
C987 C 0.45914 0.38093 0.79913 0.0
C988 C 0.4418 0.36329 0.76894 0.0
C989 C 0.40656 0.34206 0.76845 0.0
C990 C 0.39318 0.33034 0.73169 0.0
C991 C 0.38068 0.2927 0.72712 0.0
C992 C 0.3647 0.33843 0.72179 0.0
C993 C 0.42565 0.35084 0.7114 0.0
C994 C 0.45377 0.36842 0.73319 0.0
C995 C 0.48663 0.38875 0.71997 0.0
C996 C 0.49077 0.39062 0.68351 0.0
C997 C 0.46194 0.37365 0.66116 0.0
C998 C 0.42917 0.35344 0.6753 0.0
H999 H 0.69056 0.06294 0.67124 0.0
H1000 H 0.61812 0.98539 0.60119 0.0
H1001 H 0.58433 0.95304 0.6518 0.0
H1002 H 0.68223 1.00538 0.74695 0.0
H1003 H 0.68623 0.03696 0.77812 0.0
H1004 H 0.70857 0.04915 0.73717 0.0
H1005 H 0.67986 0.08522 0.72515 0.0
H1006 H 0.65626 0.07215 0.76516 0.0
H1007 H 0.63366 0.06561 0.72423 0.0
H1008 H 0.55263 0.93606 0.70822 0.0
H1009 H 0.52977 0.93005 0.7678 0.0
H1010 H 0.62343 0.01921 0.80116 0.0
C1011 C 0.66879 0.03812 0.66689 0.0
C1012 C 0.65729 0.02592 0.63274 0.0
C1013 C 0.62776 0.99435 0.62739 0.0
C1014 C 0.6083 0.97608 0.65594 0.0
C1015 C 0.61911 0.98982 0.6894 0.0
C1016 C 0.64926 0.01967 0.69509 0.0
C1017 C 0.65334 0.03084 0.73302 0.0
C1018 C 0.68443 0.03054 0.74981 0.0
C1019 C 0.65592 0.06549 0.73709 0.0
C1020 C 0.62001 1.00354 0.74745 0.0
C1021 C 0.60071 0.98003 0.72198 0.0
C1022 C 0.56787 0.95385 0.72859 0.0
C1023 C 0.55494 0.95095 0.76244 0.0
C1024 C 0.57483 0.97413 0.78927 0.0
C1025 C 0.60763 1.00093 0.78137 0.0
H1026 H 0.05089 0.66739 0.79196 0.0
H1027 H 0.1143 0.63028 0.74574 0.0
H1028 H 0.10418 0.6469 0.68699 0.0
H1029 H 0.98928 0.64744 0.72496 0.0
H1030 H 0.98842 0.68598 0.73167 0.0
H1031 H 0.99951 0.66802 0.76733 0.0
H1032 H 0.05592 0.72453 0.7755 0.0
H1033 H 0.04595 0.74189 0.73824 0.0
H1034 H 0.08575 0.74097 0.73995 0.0
H1035 H 0.08294 0.66547 0.63311 0.0
H1036 H 0.05016 0.67975 0.59087 0.0
H1037 H 1.01022 0.71269 0.67623 0.0
C1038 C 0.06208 0.662 0.76942 0.0
C1039 C 0.0825 0.6467 0.77293 0.0
C1040 C 0.09783 0.64126 0.74313 0.0
C1041 C 0.09259 0.65104 0.70994 0.0
C1042 C 0.07333 0.66746 0.70772 0.0
C1043 C 0.05855 0.67295 0.7369 0.0
C1044 C 0.04023 0.69218 0.72869 0.0
C1045 C 1.0021 0.67217 0.73873 0.0
C1046 C 0.05805 0.72696 0.74665 0.0
C1047 C 0.04493 0.69495 0.68972 0.0
C1048 C 0.06443 0.68099 0.67786 0.0
C1049 C 0.06843 0.67721 0.64218 0.0
C1050 C 0.05019 0.68585 0.61831 0.0
C1051 C 0.0284 0.6979 0.63058 0.0
C1052 C 0.02758 0.70443 0.66639 0.0
H1053 H 0.69158 0.61619 0.33215 0.0
H1054 H 0.7835 0.71255 0.32004 0.0
H1055 H 0.78508 0.69974 0.25804 0.0
H1056 H 0.71495 0.5706 0.25554 0.0
H1057 H 0.66988 0.54645 0.24475 0.0
H1058 H 0.68351 0.55707 0.28973 0.0
H1059 H 0.64321 0.58164 0.2947 0.0
H1060 H 0.6316 0.57537 0.24918 0.0
H1061 H 0.65062 0.61683 0.26853 0.0
H1062 H 0.76389 0.68877 0.19883 0.0
H1063 H 0.73285 0.67015 0.14311 0.0
H1064 H 0.65684 0.5775 0.18978 0.0
C1065 C 0.71324 0.63359 0.31685 0.0
C1066 C 0.73699 0.66558 0.33057 0.0
C1067 C 0.76495 0.68795 0.31005 0.0
C1068 C 0.766 0.68092 0.27467 0.0
C1069 C 0.73968 0.65098 0.26086 0.0
C1070 C 0.71485 0.62664 0.2815 0.0
C1071 C 0.68704 0.59869 0.2593 0.0
C1072 C 0.68898 0.56628 0.26251 0.0
C1073 C 0.65099 0.59281 0.26844 0.0
C1074 C 0.69786 0.61337 0.22338 0.0
C1075 C 0.72849 0.64337 0.22507 0.0
C1076 C 0.741 0.66447 0.19672 0.0
C1077 C 0.72282 0.65388 0.16533 0.0
C1078 C 0.6928 0.62221 0.16227 0.0
C1079 C 0.68001 0.60164 0.19161 0.0
H1080 H 0.35435 0.07875 0.1928 0.0
H1081 H 0.45321 0.08968 0.16607 0.0
H1082 H 0.46297 0.08112 0.22807 0.0
H1083 H 0.38952 0.12481 0.28182 0.0
H1084 H 0.34802 0.10076 0.30152 0.0
H1085 H 0.35109 0.11213 0.2562 0.0
H1086 H 0.31344 0.04887 0.23702 0.0
H1087 H 0.30893 0.03979 0.28278 0.0
H1088 H 0.32506 0.01943 0.2544 0.0
H1089 H 0.45474 0.05819 0.28781 0.0
H1090 H 0.43221 0.02777 0.34255 0.0
H1091 H 0.34241 0.04007 0.33287 0.0
C1092 C 0.37809 0.07954 0.20036 0.0
C1093 C 0.4024 0.08305 0.17516 0.0
C1094 C 0.434 0.08582 0.18538 0.0
C1095 C 0.43986 0.08147 0.2204 0.0
C1096 C 0.41478 0.07684 0.24472 0.0
C1097 C 0.38509 0.07717 0.23535 0.0
C1098 C 0.36223 0.07155 0.26645 0.0
C1099 C 0.36277 0.10426 0.27713 0.0
C1100 C 0.32524 0.04325 0.25965 0.0
C1101 C 0.38082 0.06224 0.29328 0.0
C1102 C 0.41182 0.06685 0.28068 0.0
C1103 C 0.43118 0.05553 0.29855 0.0
C1104 C 0.41799 0.03797 0.32942 0.0
C1105 C 0.38558 0.03166 0.34183 0.0
C1106 C 0.36759 0.04524 0.32435 0.0
H1107 H 0.06381 0.42462 0.3232 0.0
H1108 H 0.03876 0.50425 0.31904 0.0
H1109 H 0.03779 0.50055 0.25379 0.0
H1110 H 0.12363 0.45861 0.24594 0.0
H1111 H 0.11519 0.41622 0.23872 0.0
H1112 H 0.11476 0.43166 0.2823 0.0
H1113 H 0.05117 0.37754 0.28609 0.0
H1114 H 0.05398 0.36705 0.24131 0.0
H1115 H 0.01957 0.37434 0.25479 0.0
H1116 H 0.03042 0.47871 0.18884 0.0
H1117 H 0.02467 0.44775 0.13323 0.0
H1118 H 0.06648 0.39151 0.18332 0.0
C1119 C 0.05798 0.44126 0.30875 0.0
C1120 C 0.04907 0.4631 0.32579 0.0
C1121 C 0.0436 0.48592 0.30607 0.0
C1122 C 0.04361 0.48431 0.26918 0.0
C1123 C 0.05154 0.46135 0.25315 0.0
C1124 C 0.05983 0.44125 0.27269 0.0
C1125 C 0.06955 0.42007 0.25045 0.0
C1126 C 0.10806 0.43228 0.25455 0.0
C1127 C 0.04726 0.38256 0.25864 0.0
C1128 C 0.06191 0.42826 0.21491 0.0
C1129 C 0.052 0.45254 0.2166 0.0
C1130 C 0.0395 0.46079 0.18716 0.0
C1131 C 0.03641 0.44321 0.15576 0.0
C1132 C 0.04654 0.4184 0.15409 0.0
C1133 C 0.06022 0.41154 0.18373 0.0
H1134 H 0.23577 0.91983 0.34873 0.0
H1135 H 0.29048 0.86376 0.34083 0.0
H1136 H 0.2439 0.82187 0.3025 0.0
H1137 H 0.15236 0.8507 0.35396 0.0
H1138 H 0.13249 0.86943 0.32846 0.0
H1139 H 0.171 0.89564 0.35327 0.0
H1140 H 0.20088 0.92752 0.29717 0.0
H1141 H 0.16248 0.9014 0.27207 0.0
H1142 H 0.20271 0.90447 0.25949 0.0
H1143 H 0.18916 0.78461 0.26695 0.0
H1144 H 0.13229 0.75547 0.23818 0.0
H1145 H 0.11376 0.83648 0.26988 0.0
C1146 C 0.23835 0.89893 0.33887 0.0
C1147 C 0.2671 0.89526 0.34804 0.0
C1148 C 0.26896 0.86734 0.33429 0.0
C1149 C 0.24255 0.8434 0.31245 0.0
C1150 C 0.21449 0.84776 0.30437 0.0
C1151 C 0.2124 0.87499 0.31713 0.0
C1152 C 0.17928 0.87369 0.30552 0.0
C1153 C 0.1575 0.87227 0.33719 0.0
C1154 C 0.1868 0.90354 0.28217 0.0
C1155 C 0.16246 0.84101 0.28477 0.0
C1156 C 0.18329 0.82655 0.28414 0.0
C1157 C 0.17284 0.79589 0.26721 0.0
C1158 C 0.14032 0.77948 0.25089 0.0
C1159 C 0.11818 0.79351 0.25156 0.0
C1160 C 0.12986 0.82497 0.26857 0.0
H1161 H 0.18502 0.35533 0.26303 0.0
H1162 H 0.19099 0.29035 0.34023 0.0
H1163 H 0.16394 0.31055 0.38391 0.0
H1164 H 0.20196 0.42445 0.31349 0.0
H1165 H 0.16978 0.43181 0.2936 0.0
H1166 H 0.18801 0.41069 0.2692 0.0
H1167 H 0.12723 0.36372 0.25695 0.0
H1168 H 0.10568 0.37837 0.28602 0.0
H1169 H 0.10114 0.33813 0.29229 0.0
H1170 H 0.14216 0.34514 0.42131 0.0
H1171 H 0.11669 0.37948 0.44344 0.0
H1172 H 0.1221 0.41752 0.33956 0.0
C1173 C 0.17954 0.34452 0.2888 0.0
C1174 C 0.18934 0.32076 0.29807 0.0
C1175 C 0.18264 0.30782 0.33232 0.0
C1176 C 0.16781 0.3196 0.35743 0.0
C1177 C 0.15945 0.34404 0.34772 0.0
C1178 C 0.16407 0.35533 0.31375 0.0
C1179 C 0.15109 0.3798 0.30887 0.0
C1180 C 0.17938 0.41368 0.2955 0.0
C1181 C 0.11955 0.36413 0.28446 0.0
C1182 C 0.14103 0.38291 0.34586 0.0
C1183 C 0.14577 0.36208 0.36818 0.0
C1184 C 0.1382 0.3613 0.4038 0.0
C1185 C 0.12429 0.38129 0.41637 0.0
C1186 C 0.11806 0.40165 0.3933 0.0
C1187 C 0.1271 0.40261 0.35785 0.0
H1188 H 0.7269 0.91761 0.28975 0.0
H1189 H 0.77745 0.90483 0.19908 0.0
H1190 H 0.76166 0.84755 0.21864 0.0
H1191 H 0.7535 0.87422 0.35019 0.0
H1192 H 0.71392 0.85688 0.3741 0.0
H1193 H 0.72943 0.89623 0.35235 0.0
H1194 H 0.67138 0.87205 0.31902 0.0
H1195 H 0.65608 0.8323 0.33998 0.0
H1196 H 0.65645 0.83428 0.29297 0.0
H1197 H 0.73899 0.7908 0.2485 0.0
H1198 H 0.71954 0.74364 0.28943 0.0
H1199 H 0.6852 0.7945 0.36123 0.0
C1200 C 0.73496 0.9029 0.27409 0.0
C1201 C 0.7535 0.91581 0.24278 0.0
C1202 C 0.76364 0.89573 0.22327 0.0
C1203 C 0.75438 0.863 0.23403 0.0
C1204 C 0.73525 0.85079 0.26455 0.0
C1205 C 0.72634 0.87051 0.28466 0.0
C1206 C 0.70713 0.85232 0.31716 0.0
C1207 C 0.7272 0.87102 0.35041 0.0
C1208 C 0.67059 0.84746 0.31727 0.0
C1209 C 0.70643 0.81907 0.31237 0.0
C1210 C 0.72236 0.81847 0.28161 0.0
C1211 C 0.72599 0.79085 0.27227 0.0
C1212 C 0.71441 0.76393 0.29548 0.0
C1213 C 0.69948 0.76467 0.32786 0.0
C1214 C 0.69494 0.79243 0.33597 0.0
H1215 H 0.89246 0.1273 0.20351 0.0
H1216 H 0.85406 0.07419 0.10494 0.0
H1217 H 0.88135 0.12799 0.07385 0.0
H1218 H 0.8797 0.1941 0.18658 0.0
H1219 H 0.91846 0.22641 0.20702 0.0
H1220 H 0.8998 0.18386 0.22158 0.0
H1221 H 0.95673 0.18369 0.21021 0.0
H1222 H 0.97594 0.22662 0.19663 0.0
H1223 H 0.97648 0.19537 0.16794 0.0
H1224 H 0.90527 0.18816 0.05458 0.0
H1225 H 0.93424 0.24971 0.04711 0.0
H1226 H 0.96079 0.26422 0.15736 0.0
C1227 C 0.89144 0.12701 0.17523 0.0
C1228 C 0.87224 0.09644 0.15645 0.0
C1229 C 0.86978 0.09718 0.11963 0.0
C1230 C 0.88478 0.1277 0.10181 0.0
C1231 C 0.90248 0.15749 0.12113 0.0
C1232 C 0.90685 0.15739 0.15693 0.0
C1233 C 0.92642 0.19303 0.17151 0.0
C1234 C 0.90479 0.19972 0.19825 0.0
C1235 C 0.96095 0.20009 0.18751 0.0
C1236 C 0.93161 0.21306 0.13853 0.0
C1237 C 0.91721 0.19209 0.10981 0.0
C1238 C 0.91715 0.2048 0.07683 0.0
C1239 C 0.93327 0.23981 0.07287 0.0
C1240 C 0.9497 0.26181 0.10159 0.0
C1241 C 0.94847 0.24805 0.13487 0.0
H1242 H 0.78369 0.61596 0.12433 0.0
H1243 H 0.81209 0.67076 0.02783 0.0
H1244 H 0.87286 0.70196 0.04817 0.0
H1245 H 0.83643 0.68399 0.17884 0.0
H1246 H 0.84729 0.66043 0.20859 0.0
H1247 H 0.80708 0.64005 0.18497 0.0
H1248 H 0.82176 0.59599 0.15909 0.0
H1249 H 0.86133 0.61549 0.18379 0.0
H1250 H 0.86205 0.60998 0.13713 0.0
H1251 H 0.93031 0.7306 0.08258 0.0
H1252 H 0.97988 0.74622 0.1226 0.0
H1253 H 0.91243 0.67251 0.19614 0.0
C1254 C 0.80306 0.63331 0.10676 0.0
C1255 C 0.79359 0.63993 0.07385 0.0
C1256 C 0.81918 0.66426 0.05241 0.0
C1257 C 0.85358 0.68255 0.06413 0.0
C1258 C 0.86178 0.67639 0.0975 0.0
C1259 C 0.83724 0.65178 0.11814 0.0
C1260 C 0.852 0.65043 0.15333 0.0
C1261 C 0.83465 0.65924 0.18317 0.0
C1262 C 0.84913 0.61593 0.15863 0.0
C1263 C 0.88892 0.67764 0.14918 0.0
C1264 C 0.89407 0.69293 0.11716 0.0
C1265 C 0.92642 0.71875 0.10769 0.0
C1266 C 0.95435 0.72787 0.13076 0.0
C1267 C 0.94968 0.71129 0.16287 0.0
C1268 C 0.91644 0.68627 0.17221 0.0
H1269 H 0.29718 0.23573 0.22868 0.0
H1270 H 0.22189 0.22384 0.15009 0.0
H1271 H 0.24708 0.20022 0.10869 0.0
H1272 H 0.36851 0.25693 0.17186 0.0
H1273 H 0.38369 0.23253 0.19473 0.0
H1274 H 0.36075 0.24973 0.21797 0.0
H1275 H 0.31636 0.19056 0.23903 0.0
H1276 H 0.33967 0.17338 0.21656 0.0
H1277 H 0.29464 0.15705 0.20735 0.0
H1278 H 0.28223 0.17948 0.07477 0.0
H1279 H 0.31668 0.15322 0.05557 0.0
H1280 H 0.36579 0.1745 0.15745 0.0
C1281 C 0.28587 0.2279 0.20284 0.0
C1282 C 0.2575 0.2316 0.19266 0.0
C1283 C 0.24334 0.2209 0.15864 0.0
C1284 C 0.25776 0.20782 0.13478 0.0
C1285 C 0.28608 0.20503 0.14538 0.0
C1286 C 0.2994 0.21395 0.17894 0.0
C1287 C 0.3283 0.20614 0.1846 0.0
C1288 C 0.36232 0.23825 0.19277 0.0
C1289 C 0.31919 0.18024 0.21359 0.0
C1290 C 0.32921 0.19154 0.14903 0.0
C1291 C 0.3052 0.19179 0.12647 0.0
C1292 C 0.30117 0.17924 0.09223 0.0
C1293 C 0.32114 0.1648 0.08132 0.0
C1294 C 0.34442 0.16263 0.10473 0.0
C1295 C 0.34881 0.17669 0.13875 0.0
H1296 H 0.81136 0.17041 0.57477 0.0
H1297 H 0.73881 0.13401 0.65993 0.0
H1298 H 0.78685 0.1543 0.70233 0.0
H1299 H 0.87518 0.15337 0.61087 0.0
H1300 H 0.91151 0.19172 0.5966 0.0
H1301 H 0.87171 0.17357 0.57219 0.0
H1302 H 0.86964 0.22895 0.57832 0.0
H1303 H 0.9099 0.24745 0.60179 0.0
H1304 H 0.87314 0.24728 0.62114 0.0
H1305 H 0.84192 0.17657 0.7354 0.0
H1306 H 0.90077 0.21118 0.75856 0.0
H1307 H 0.939 0.23697 0.65318 0.0
C1308 C 0.80573 0.16716 0.6024 0.0
C1309 C 0.77135 0.15074 0.61414 0.0
C1310 C 0.76491 0.14694 0.65043 0.0
C1311 C 0.79203 0.15794 0.67467 0.0
C1312 C 0.82556 0.17326 0.66229 0.0
C1313 C 0.83265 0.17892 0.62713 0.0
C1314 C 0.8712 0.19849 0.62123 0.0
C1315 C 0.88309 0.17805 0.59889 0.0
C1316 C 0.88158 0.23255 0.60466 0.0
C1317 C 0.8846 0.20276 0.65857 0.0
C1318 C 0.85771 0.1873 0.68165 0.0
C1319 C 0.86319 0.18866 0.7176 0.0
C1320 C 0.89677 0.20798 0.73052 0.0
C1321 C 0.92452 0.22597 0.70767 0.0
C1322 C 0.91849 0.22236 0.67114 0.0
H1323 H 0.87945 0.72354 0.58571 0.0
H1324 H 0.88027 0.65615 0.66333 0.0
H1325 H 0.85016 0.67466 0.70467 0.0
H1326 H 0.8971 0.79068 0.63959 0.0
H1327 H 0.86816 0.80241 0.61944 0.0
H1328 H 0.88521 0.78068 0.59414 0.0
H1329 H 0.82355 0.73269 0.57807 0.0
H1330 H 0.80718 0.75626 0.60136 0.0
H1331 H 0.79295 0.71329 0.61234 0.0
H1332 H 0.82491 0.70496 0.73952 0.0
H1333 H 0.80246 0.741 0.76319 0.0
H1334 H 0.81879 0.78937 0.66323 0.0
C1335 C 0.87229 0.71201 0.61107 0.0
C1336 C 0.8811 0.68758 0.62098 0.0
C1337 C 0.87252 0.6739 0.65479 0.0
C1338 C 0.85575 0.68456 0.67854 0.0
C1339 C 0.84788 0.70912 0.66818 0.0
C1340 C 0.85531 0.72223 0.63499 0.0
C1341 C 0.84496 0.74895 0.63067 0.0
C1342 C 0.87571 0.78267 0.62036 0.0
C1343 C 0.8154 0.73713 0.60401 0.0
C1344 C 0.8327 0.7505 0.66721 0.0
C1345 C 0.83392 0.72683 0.68829 0.0
C1346 C 0.82364 0.72336 0.7231 0.0
C1347 C 0.81105 0.74397 0.73638 0.0
C1348 C 0.80909 0.76795 0.7151 0.0
C1349 C 0.82051 0.77153 0.68021 0.0
H1350 H 0.32472 0.13759 0.71167 0.0
H1351 H 0.32449 0.06948 0.63225 0.0
H1352 H 0.34592 0.115 0.58898 0.0
H1353 H 0.30119 0.18849 0.65346 0.0
H1354 H 0.32955 0.22662 0.67696 0.0
H1355 H 0.3092 0.18735 0.69947 0.0
H1356 H 0.3686 0.19816 0.72052 0.0
H1357 H 0.39005 0.23675 0.69704 0.0
H1358 H 0.40094 0.20437 0.68892 0.0
H1359 H 0.37662 0.1718 0.55679 0.0
H1360 H 0.40619 0.23131 0.53807 0.0
H1361 H 0.38454 0.26065 0.63887 0.0
C1362 C 0.32742 0.13186 0.68471 0.0
C1363 C 0.32156 0.09964 0.67495 0.0
C1364 C 0.3274 0.09361 0.63988 0.0
C1365 C 0.34005 0.1195 0.61524 0.0
C1366 C 0.3468 0.15144 0.62603 0.0
C1367 C 0.33993 0.15741 0.65985 0.0
C1368 C 0.3517 0.19424 0.66592 0.0
C1369 C 0.32109 0.19948 0.67445 0.0
C1370 C 0.37944 0.20924 0.69482 0.0
C1371 C 0.36658 0.20822 0.6305 0.0
C1372 C 0.36386 0.1834 0.60773 0.0
C1373 C 0.37819 0.19125 0.5743 0.0
C1374 C 0.39513 0.22513 0.56387 0.0
C1375 C 0.39733 0.2507 0.58668 0.0
C1376 C 0.38278 0.24176 0.62038 0.0
H1377 H 0.25845 0.91687 0.79722 0.0
H1378 H 0.17103 0.92231 0.75566 0.0
H1379 H 0.13218 0.86571 0.77893 0.0
H1380 H 0.22654 0.82978 0.77708 0.0
H1381 H 0.24466 0.82253 0.8159 0.0
H1382 H 0.26489 0.86343 0.79677 0.0
H1383 H 0.26083 0.88933 0.85589 0.0
H1384 H 0.24021 0.84844 0.87514 0.0
H1385 H 0.21965 0.8738 0.8764 0.0
H1386 H 0.10334 0.80903 0.80745 0.0
H1387 H 0.08616 0.75426 0.83311 0.0
H1388 H 0.19287 0.78467 0.85483 0.0
C1389 C 0.23109 0.90628 0.79297 0.0
C1390 C 0.21771 0.92419 0.77472 0.0
C1391 C 0.18184 0.90912 0.76946 0.0
C1392 C 0.15965 0.8771 0.7828 0.0
C1393 C 0.17381 0.86045 0.8011 0.0
C1394 C 0.20876 0.87439 0.80579 0.0
C1395 C 0.21769 0.85088 0.82517 0.0
C1396 C 0.23974 0.84107 0.80236 0.0
C1397 C 0.23566 0.86655 0.86023 0.0
C1398 C 0.18219 0.82121 0.83071 0.0
C1399 C 0.15731 0.82753 0.8169 0.0
C1400 C 0.12265 0.80391 0.81823 0.0
C1401 C 0.11318 0.77279 0.83298 0.0
C1402 C 0.13812 0.76499 0.84609 0.0
C1403 C 0.17315 0.78993 0.84558 0.0
H1404 H 0.11422 0.29643 0.7849 0.0
H1405 H 0.15051 0.36169 0.69595 0.0
H1406 H 0.2098 0.38898 0.72039 0.0
H1407 H 0.16446 0.35842 0.84695 0.0
H1408 H 0.17255 0.33146 0.87453 0.0
H1409 H 0.13396 0.31427 0.84828 0.0
H1410 H 0.14882 0.2718 0.81874 0.0
H1411 H 0.18676 0.28794 0.84586 0.0
H1412 H 0.1903 0.28683 0.79901 0.0
H1413 H 0.26503 0.41139 0.75748 0.0
H1414 H 0.31136 0.42237 0.80024 0.0
H1415 H 0.23757 0.34385 0.86568 0.0
C1416 C 0.135 0.31535 0.76979 0.0
C1417 C 0.12823 0.3259 0.7377 0.0
C1418 C 0.15556 0.35226 0.71974 0.0
C1419 C 0.18916 0.36823 0.73377 0.0
C1420 C 0.1948 0.35794 0.76614 0.0
C1421 C 0.16845 0.33178 0.78368 0.0
C1422 C 0.18057 0.3265 0.81881 0.0
C1423 C 0.16176 0.33305 0.8489 0.0
C1424 C 0.17638 0.29118 0.8207 0.0
C1425 C 0.21803 0.35327 0.81813 0.0
C1426 C 0.22579 0.37152 0.7878 0.0
C1427 C 0.25907 0.39733 0.78137 0.0
C1428 C 0.28516 0.40378 0.806 0.0
C1429 C 0.27771 0.38482 0.83681 0.0
C1430 C 0.24368 0.35941 0.84284 0.0
H1431 H 0.70125 0.85839 0.79812 0.0
H1432 H 0.6144 0.76391 0.7636 0.0
H1433 H 0.57495 0.77938 0.79237 0.0
H1434 H 0.66775 0.86185 0.88233 0.0
H1435 H 0.68406 0.90647 0.88211 0.0
H1436 H 0.70602 0.88855 0.85833 0.0
H1437 H 0.70109 0.91594 0.80139 0.0
H1438 H 0.67962 0.93436 0.82515 0.0
H1439 H 0.65952 0.90856 0.78694 0.0
H1440 H 0.54436 0.80475 0.82522 0.0
H1441 H 0.52511 0.84014 0.85616 0.0
H1442 H 0.63143 0.91777 0.87028 0.0
C1443 C 0.67394 0.8411 0.79627 0.0
C1444 C 0.66113 0.80986 0.77847 0.0
C1445 C 0.62508 0.78794 0.77706 0.0
C1446 C 0.60234 0.79644 0.79345 0.0
C1447 C 0.6158 0.82701 0.81134 0.0
C1448 C 0.65073 0.84916 0.81264 0.0
C1449 C 0.65836 0.88055 0.83343 0.0
C1450 C 0.68035 0.88458 0.86598 0.0
C1451 C 0.67566 0.91169 0.81035 0.0
C1452 C 0.62231 0.87259 0.84342 0.0
C1453 C 0.59815 0.84152 0.83053 0.0
C1454 C 0.56308 0.82911 0.83554 0.0
C1455 C 0.55237 0.84936 0.85333 0.0
C1456 C 0.5766 0.88174 0.86602 0.0
C1457 C 0.6121 0.89301 0.86148 0.0
H1458 H 0.55608 0.47505 0.55246 0.0
H1459 H 0.48943 0.40832 0.4709 0.0
H1460 H 0.51777 0.45364 0.42783 0.0
H1461 H 0.55417 0.54513 0.5274 0.0
H1462 H 0.59835 0.57487 0.53755 0.0
H1463 H 0.57695 0.53599 0.56053 0.0
H1464 H 0.6238 0.52143 0.54212 0.0
H1465 H 0.64597 0.56077 0.51987 0.0
H1466 H 0.63425 0.52213 0.49656 0.0
H1467 H 0.54778 0.51058 0.39585 0.0
H1468 H 0.58232 0.56966 0.37684 0.0
H1469 H 0.63019 0.59741 0.47945 0.0
C1470 C 0.54868 0.46947 0.52518 0.0
C1471 C 0.5212 0.43778 0.51488 0.0
C1472 C 0.51126 0.43191 0.47917 0.0
C1473 C 0.52689 0.45778 0.45463 0.0
C1474 C 0.55283 0.4893 0.46605 0.0
C1475 C 0.56428 0.49482 0.5004 0.0
C1476 C 0.59123 0.53115 0.50681 0.0
C1477 C 0.57945 0.54774 0.53471 0.0
C1478 C 0.62587 0.53403 0.51692 0.0
C1479 C 0.59266 0.54554 0.47104 0.0
C1480 C 0.57026 0.52124 0.44777 0.0
C1481 C 0.56585 0.52955 0.41378 0.0
C1482 C 0.58534 0.56323 0.40324 0.0
C1483 C 0.60918 0.58818 0.42649 0.0
C1484 C 0.61256 0.57893 0.46081 0.0
H1485 H 0.61636 0.08242 0.47637 0.0
H1486 H 0.60483 1.00263 0.54405 0.0
H1487 H 0.5455 0.967 0.52258 0.0
H1488 H 0.52675 0.06742 0.4817 0.0
H1489 H 0.52584 0.07628 0.43623 0.0
H1490 H 0.56597 0.09607 0.45988 0.0
H1491 H 0.59083 0.07296 0.41297 0.0
H1492 H 0.54997 0.05178 0.39052 0.0
H1493 H 0.57032 0.0284 0.40476 0.0
H1494 H 0.48937 0.93807 0.49063 0.0
H1495 H 0.43558 0.92123 0.45748 0.0
H1496 H 0.48145 0.01941 0.41119 0.0
C1497 C 0.60074 0.05797 0.48759 0.0
C1498 C 0.61467 0.04564 0.51287 0.0
C1499 C 0.59419 1.01282 0.52554 0.0
C1500 C 0.56061 0.99229 0.51321 0.0
C1501 C 0.54785 1.00466 0.48765 0.0
C1502 C 0.56689 0.03694 0.47538 0.0
C1503 C 0.54711 0.04326 0.44686 0.0
C1504 C 0.54107 0.0725 0.45684 0.0
C1505 C 0.56567 0.04947 0.4117 0.0
C1506 C 0.51374 1.01003 0.44609 0.0
C1507 C 0.51519 0.98781 0.4691 0.0
C1508 C 0.48786 0.95529 0.4726 0.0
C1509 C 0.45759 0.94573 0.45333 0.0
C1510 C 0.45477 0.96874 0.43129 0.0
C1511 C 0.48337 1.00111 0.42726 0.0
H1512 H 0.03159 0.53301 0.44698 0.0
H1513 H 0.9933 0.44741 0.51441 0.0
H1514 H 0.96788 0.47296 0.55322 0.0
H1515 H 0.05003 0.59776 0.51874 0.0
H1516 H 0.03687 0.62092 0.49093 0.0
H1517 H 0.05631 0.59804 0.47221 0.0
H1518 H 1.0036 0.56652 0.43098 0.0
H1519 H 0.98356 0.58855 0.45015 0.0
H1520 H 0.96136 0.54339 0.44941 0.0
H1521 H 0.93754 0.5035 0.57814 0.0
H1522 H 0.91363 0.54092 0.59278 0.0
H1523 H 0.97493 0.60824 0.5112 0.0
C1524 C 0.01956 0.52066 0.47102 0.0
C1525 C 1.01548 0.48883 0.47856 0.0
C1526 C 0.99781 0.47239 0.50909 0.0
C1527 C 0.98291 0.48656 0.53096 0.0
C1528 C 0.98616 0.51742 0.52207 0.0
C1529 C 1.00495 0.53475 0.49335 0.0
C1530 C 1.00301 0.56655 0.48832 0.0
C1531 C 0.03868 0.59766 0.49283 0.0
C1532 C 0.98693 0.5662 0.4526 0.0
C1533 C 0.97947 0.56398 0.518 0.0
C1534 C 0.96971 0.53536 0.53706 0.0
C1535 C 0.94572 0.52639 0.5639 0.0
C1536 C 0.93202 0.54758 0.57188 0.0
C1537 C 0.94274 0.57761 0.55344 0.0
C1538 C 0.96675 0.58572 0.52619 0.0
H1539 H 0.43483 0.50521 0.96231 0.0
H1540 H 0.45752 0.43547 0.90634 0.0
H1541 H 0.51536 0.4626 0.93257 0.0
H1542 H 0.52092 0.57819 0.95612 0.0
H1543 H 0.51988 0.59351 -0.00054 0.0
H1544 H 0.48056 0.56962 0.97494 0.0
H1545 H 0.45552 0.52777 0.02574 0.0
H1546 H 0.49488 0.55138 0.05027 0.0
H1547 H 0.47855 0.50738 0.04133 0.0
H1548 H 0.5706 0.49593 0.96649 0.0
H1549 H 0.61949 0.53447 0.00434 0.0
H1550 H 0.56123 0.58221 0.03893 0.0
C1551 C 0.45214 0.496 0.9552 0.0
C1552 C 0.44138 0.4681 0.93219 0.0
C1553 C 0.46487 0.45662 0.924 0.0
C1554 C 0.49793 0.47191 0.93876 0.0
C1555 C 0.5075 0.49879 0.96186 0.0
C1556 C 0.48541 0.51089 0.96997 0.0
C1557 C 0.50201 0.53966 -0.00369 0.0
C1558 C 0.50609 0.57217 0.98077 0.0
C1559 C 0.48151 0.53102 0.03043 0.0
C1560 C 0.53664 0.54164 0.00171 0.0
C1561 C 0.53932 0.51787 0.98157 0.0
C1562 C 0.56884 0.51475 0.98233 0.0
C1563 C 0.5965 0.53671 0.00402 0.0
C1564 C 0.59452 0.56153 0.02477 0.0
C1565 C 0.5639 0.56367 0.0235 0.0
H1566 H 0.50166 0.96702 0.96866 0.0
H1567 H 0.52645 0.03301 0.88074 0.0
H1568 H 0.49469 0.05906 0.90758 0.0
H1569 H 0.41611 0.95832 -0.00939 0.0
H1570 H 0.42513 0.9597 0.03662 0.0
H1571 H 0.44357 0.94267 0.0064 0.0
H1572 H 0.50372 0.98477 0.03191 0.0
H1573 H 0.48519 1.00278 0.06071 0.0
H1574 H 0.51825 0.02906 0.03073 0.0
H1575 H 0.46401 0.0815 0.94772 0.0
H1576 H 0.43469 0.09506 -0.00491 0.0
H1577 H 0.43619 0.01789 0.05842 0.0
C1578 C 0.49897 0.98587 0.95441 0.0
C1579 C 0.5151 0.99698 0.92188 0.0
C1580 C 0.5131 0.02332 0.90506 0.0
C1581 C 0.49537 0.03844 0.92028 0.0
C1582 C 0.48068 0.02771 0.953 0.0
C1583 C 0.48221 1.00185 0.96977 0.0
C1584 C 0.46776 0.99739 0.00626 0.0
C1585 C 0.43627 0.96243 0.01016 0.0
C1586 C 0.49538 1.0039 0.03403 0.0
C1587 C 0.45774 0.02453 0.0074 0.0
C1588 C 0.46514 0.04176 0.97651 0.0
C1589 C 0.4579 0.06793 0.97193 0.0
C1590 C 0.44163 0.0758 -0.00084 0.0
C1591 C 0.43309 0.05778 0.03074 0.0
C1592 C 0.44216 0.03235 0.03478 0.0
H1593 H 0.10211 0.54569 0.88383 0.0
H1594 H 0.10454 0.62034 0.9562 0.0
H1595 H 0.08601 0.57928 0.00369 0.0
H1596 H 0.03047 0.47861 0.91243 0.0
H1597 H 0.04411 0.44772 0.90978 0.0
H1598 H 0.0631 0.48348 0.88175 0.0
H1599 H 0.124 0.50119 0.90358 0.0
H1600 H 0.10692 0.46472 0.93055 0.0
H1601 H 0.13317 0.50565 0.94983 0.0
H1602 H 0.05893 0.52729 0.04106 0.0
H1603 H 0.03997 0.47293 0.06959 0.0
H1604 H 0.05755 0.43256 0.97399 0.0
C1605 C 0.10053 0.5539 0.91009 0.0
C1606 C 0.1053 0.58645 0.91635 0.0
C1607 C 0.10193 0.59592 0.95089 0.0
C1608 C 0.09077 0.57249 0.97794 0.0
C1609 C 0.08401 0.53993 0.97027 0.0
C1610 C 0.09022 0.53107 0.93757 0.0
C1611 C 0.08091 0.49444 0.93613 0.0
C1612 C 0.053 0.47493 0.90837 0.0
C1613 C 0.11313 0.49129 0.92964 0.0
C1614 C 0.06722 0.48363 0.97268 0.0
C1615 C 0.06895 0.51022 -0.00814 0.0
C1616 C 0.05763 0.50639 0.02627 0.0
C1617 C 0.04617 0.47521 0.04206 0.0
C1618 C 0.04597 0.44814 0.02356 0.0
C1619 C 0.05597 0.45231 -0.01182 0.0
loop_
_geom_bond_atom_site_label_1
_geom_bond_atom_site_label_2
_geom_bond_distance
_geom_bond_site_symmetry_2
_ccdc_geom_bond_type
Mn0 O5 2.095 . S
Mn0 O15 2.162 . S
Mn0 O16 2.297 . S
Mn0 O24 2.385 1_455 S
Mn0 O25 2.209 1_455 S
Mn0 O26 2.094 1_455 S
Mn1 O6 2.121 1_655 S
Mn1 N8 2.257 . S
Mn1 N17 2.282 . S
Mn1 O25 2.215 . S
Mn1 O27 2.117 . S
C2 O24 1.234 . S
C2 O25 1.283 . S
C3 O15 1.281 . S
C3 O16 1.236 . S
C4 O26 1.240 . S
C4 O27 1.264 . S
O5 Mn0 2.095 . S
O5 C14 1.250 . S
O6 Mn1 2.121 1_455 S
O6 C14 1.258 . S
C7 N8 1.326 . S
C7 C11 1.460 . S
C7 H13 0.929 1_655 S
N8 Mn1 2.257 . S
N8 C7 1.326 . S
N8 C12 1.362 . S
C9 C10 1.258 . S
C9 C12 1.431 . S
C9 C29 1.449 . S
C10 C9 1.258 . S
C10 C11 1.477 . S
C10 H30 0.931 . S
C11 C7 1.460 . S
C11 C10 1.477 . S
C11 H31 0.930 1_655 S
C12 N8 1.362 . S
C12 C9 1.431 . S
C12 C22 1.476 . S
H13 C7 0.929 1_455 S
C14 O5 1.250 . S
C14 O6 1.258 . S
O15 Mn0 2.162 . S
O15 C3 1.281 . S
O16 Mn0 2.297 . S
O16 C3 1.236 . S
N17 Mn1 2.282 . S
N17 C18 1.328 . S
N17 C22 1.318 . S
C18 N17 1.328 . S
C18 C19 1.457 . S
C18 H23 0.929 . S
C19 C18 1.457 . S
C19 C20 1.291 . S
C19 H32 0.931 . S
C20 C19 1.291 . S
C20 C21 1.373 . S
C20 H33 0.929 . S
C21 C20 1.373 . S
C21 C22 1.396 . S
C21 C28 1.403 . S
C22 C12 1.476 . S
C22 N17 1.318 . S
C22 C21 1.396 . S
H23 C18 0.929 . S
O24 Mn0 2.385 1_655 S
O24 C2 1.234 . S
O25 Mn0 2.209 1_655 S
O25 Mn1 2.215 . S
O25 C2 1.283 . S
O26 Mn0 2.094 1_655 S
O26 C4 1.240 . S
O27 Mn1 2.117 . S
O27 C4 1.264 . S
C28 C21 1.403 . S
C28 C29 1.399 . S
C28 H34 0.929 . S
C29 C9 1.449 . S
C29 C28 1.399 . S
C29 H35 0.930 . S
H30 C10 0.931 . S
H31 C11 0.930 1_455 S
H32 C19 0.931 . S
H33 C20 0.929 . S
H34 C28 0.929 . S
H35 C29 0.930 . S
Mn36 O41 2.095 . S
Mn36 O51 2.162 . S
Mn36 O52 2.297 . S
Mn36 O60 2.385 . S
Mn36 O61 2.209 . S
Mn36 O62 2.094 . S
Mn37 O42 2.121 . S
Mn37 N44 2.257 . S
Mn37 N53 2.282 . S
Mn37 O61 2.215 . S
Mn37 O63 2.117 . S
C38 O60 1.234 . S
C38 O61 1.283 . S
C39 O51 1.281 . S
C39 O52 1.236 . S
C40 O62 1.240 . S
C40 O63 1.264 . S
O41 Mn36 2.095 . S
O41 C50 1.250 . S
O42 Mn37 2.121 . S
O42 C50 1.258 . S
C43 N44 1.326 . S
C43 C47 1.460 . S
C43 H49 0.929 . S
N44 Mn37 2.257 . S
N44 C43 1.326 . S
N44 C48 1.362 . S
C45 C46 1.258 . S
C45 C48 1.431 . S
C45 C65 1.449 . S
C46 C45 1.258 . S
C46 C47 1.477 . S
C46 H66 0.931 . S
C47 C43 1.460 . S
C47 C46 1.477 . S
C47 H67 0.930 . S
C48 N44 1.362 . S
C48 C45 1.431 . S
C48 C58 1.476 . S
H49 C43 0.929 . S
C50 O41 1.250 . S
C50 O42 1.258 . S
O51 Mn36 2.162 . S
O51 C39 1.281 . S
O52 Mn36 2.297 . S
O52 C39 1.236 . S
N53 Mn37 2.282 . S
N53 C54 1.328 . S
N53 C58 1.318 . S
C54 N53 1.328 . S
C54 C55 1.457 . S
C54 H59 0.929 . S
C55 C54 1.457 . S
C55 C56 1.291 . S
C55 H68 0.931 . S
C56 C55 1.291 . S
C56 C57 1.373 . S
C56 H69 0.929 . S
C57 C56 1.373 . S
C57 C58 1.396 . S
C57 C64 1.403 . S
C58 C48 1.476 . S
C58 N53 1.318 . S
C58 C57 1.396 . S
H59 C54 0.929 . S
O60 Mn36 2.385 . S
O60 C38 1.234 . S
O61 Mn36 2.209 . S
O61 Mn37 2.215 . S
O61 C38 1.283 . S
O62 Mn36 2.094 . S
O62 C40 1.240 . S
O63 Mn37 2.117 . S
O63 C40 1.264 . S
C64 C57 1.403 . S
C64 C65 1.399 . S
C64 H70 0.929 . S
C65 C45 1.449 . S
C65 C64 1.399 . S
C65 H71 0.930 . S
H66 C46 0.931 . S
H67 C47 0.930 . S
H68 C55 0.931 . S
H69 C56 0.929 . S
H70 C64 0.929 . S
H71 C65 0.930 . S
Mn72 O77 2.095 . S
Mn72 O87 2.162 . S
Mn72 O88 2.297 . S
Mn72 O96 2.385 1_545 S
Mn72 O97 2.209 1_545 S
Mn72 O98 2.094 1_545 S
Mn73 O78 2.121 1_565 S
Mn73 N80 2.257 . S
Mn73 N89 2.282 . S
Mn73 O97 2.215 . S
Mn73 O99 2.117 . S
C74 O96 1.234 . S
C74 O97 1.283 . S
C75 O87 1.281 . S
C75 O88 1.236 . S
C76 O98 1.240 . S
C76 O99 1.264 . S
O77 Mn72 2.095 . S
O77 C86 1.250 . S
O78 Mn73 2.121 1_545 S
O78 C86 1.258 . S
C79 N80 1.326 . S
C79 C83 1.460 . S
C79 H85 0.929 1_565 S
N80 Mn73 2.257 . S
N80 C79 1.326 . S
N80 C84 1.362 . S
C81 C82 1.258 . S
C81 C84 1.431 . S
C81 C101 1.449 . S
C82 C81 1.258 . S
C82 C83 1.477 . S
C82 H102 0.931 . S
C83 C79 1.460 . S
C83 C82 1.477 . S
C83 H103 0.930 . S
C84 N80 1.362 . S
C84 C81 1.431 . S
C84 C94 1.476 . S
H85 C79 0.929 1_545 S
C86 O77 1.250 . S
C86 O78 1.258 . S
O87 Mn72 2.162 . S
O87 C75 1.281 . S
O88 Mn72 2.297 . S
O88 C75 1.236 . S
N89 Mn73 2.282 . S
N89 C90 1.328 . S
N89 C94 1.318 . S
C90 N89 1.328 . S
C90 C91 1.457 . S
C90 H95 0.929 . S
C91 C90 1.457 . S
C91 C92 1.291 . S
C91 H104 0.931 . S
C92 C91 1.291 . S
C92 C93 1.373 . S
C92 H105 0.929 . S
C93 C92 1.373 . S
C93 C94 1.396 . S
C93 C100 1.403 . S
C94 C84 1.476 . S
C94 N89 1.318 . S
C94 C93 1.396 . S
H95 C90 0.929 . S
O96 Mn72 2.385 1_565 S
O96 C74 1.234 . S
O97 Mn72 2.209 1_565 S
O97 Mn73 2.215 . S
O97 C74 1.283 . S
O98 Mn72 2.094 1_565 S
O98 C76 1.240 . S
O99 Mn73 2.117 . S
O99 C76 1.264 . S
C100 C93 1.403 . S
C100 C101 1.399 . S
C100 H106 0.929 . S
C101 C81 1.449 . S
C101 C100 1.399 . S
C101 H107 0.930 . S
H102 C82 0.931 . S
H103 C83 0.930 . S
H104 C91 0.931 . S
H105 C92 0.929 . S
H106 C100 0.929 . S
H107 C101 0.930 . S
Mn108 O113 2.095 . S
Mn108 O123 2.162 . S
Mn108 O124 2.297 . S
Mn108 O132 2.385 1_455 S
Mn108 O133 2.185 1_455 S
Mn108 O134 2.094 1_455 S
Mn109 O114 2.121 1_655 S
Mn109 N116 2.257 . S
Mn109 N125 2.282 . S
Mn109 O133 2.239 . S
Mn109 O135 2.117 . S
C110 O132 1.234 . S
C110 O133 1.282 . S
C111 O123 1.281 . S
C111 O124 1.236 . S
C112 O134 1.240 . S
C112 O135 1.264 . S
O113 Mn108 2.095 . S
O113 C122 1.250 . S
O114 Mn109 2.121 1_455 S
O114 C122 1.258 . S
C115 N116 1.326 . S
C115 C119 1.460 . S
C115 H121 0.930 . S
N116 Mn109 2.257 . S
N116 C115 1.326 . S
N116 C120 1.362 . S
C117 C118 1.258 . S
C117 C120 1.431 . S
C117 C137 1.449 . S
C118 C117 1.258 . S
C118 C119 1.477 . S
C118 H138 0.931 . S
C119 C115 1.460 . S
C119 C118 1.477 . S
C119 H139 0.930 . S
C120 N116 1.362 . S
C120 C117 1.431 . S
C120 C130 1.476 . S
H121 C115 0.930 . S
C122 O113 1.250 . S
C122 O114 1.258 . S
O123 Mn108 2.162 . S
O123 C111 1.281 . S
O124 Mn108 2.297 . S
O124 C111 1.236 . S
N125 Mn109 2.282 . S
N125 C126 1.328 . S
N125 C130 1.318 . S
C126 N125 1.328 . S
C126 C127 1.457 . S
C126 H131 0.929 . S
C127 C126 1.457 . S
C127 C128 1.291 . S
C127 H140 0.931 . S
C128 C127 1.291 . S
C128 C129 1.373 . S
C128 H141 0.929 . S
C129 C128 1.373 . S
C129 C130 1.396 . S
C129 C136 1.403 . S
C130 C120 1.476 . S
C130 N125 1.318 . S
C130 C129 1.396 . S
H131 C126 0.929 . S
O132 Mn108 2.385 1_655 S
O132 C110 1.234 . S
O133 Mn108 2.185 1_655 S
O133 Mn109 2.239 . S
O133 C110 1.282 . S
O134 Mn108 2.094 1_655 S
O134 C112 1.240 . S
O135 Mn109 2.117 . S
O135 C112 1.264 . S
C136 C129 1.403 . S
C136 C137 1.399 . S
C136 H142 0.929 . S
C137 C117 1.449 . S
C137 C136 1.399 . S
C137 H143 0.930 . S
H138 C118 0.931 . S
H139 C119 0.930 . S
H140 C127 0.931 . S
H141 C128 0.929 . S
H142 C136 0.929 . S
H143 C137 0.930 . S
Mn144 O149 2.095 . S
Mn144 O159 2.162 . S
Mn144 O160 2.297 . S
Mn144 O168 2.385 . S
Mn144 O169 2.209 . S
Mn144 O170 2.094 . S
Mn145 O150 2.121 . S
Mn145 N152 2.257 . S
Mn145 N161 2.282 . S
Mn145 O169 2.215 . S
Mn145 O171 2.117 . S
C146 O168 1.234 . S
C146 O169 1.283 . S
C147 O159 1.281 . S
C147 O160 1.236 . S
C148 O170 1.240 . S
C148 O171 1.264 . S
O149 Mn144 2.095 . S
O149 C158 1.250 . S
O150 Mn145 2.121 . S
O150 C158 1.258 . S
C151 N152 1.326 . S
C151 C155 1.460 . S
C151 H157 0.929 . S
N152 Mn145 2.257 . S
N152 C151 1.326 . S
N152 C156 1.362 . S
C153 C154 1.258 . S
C153 C156 1.431 . S
C153 C173 1.449 . S
C154 C153 1.258 . S
C154 C155 1.477 . S
C154 H174 0.931 . S
C155 C151 1.460 . S
C155 C154 1.477 . S
C155 H175 0.930 . S
C156 N152 1.362 . S
C156 C153 1.431 . S
C156 C166 1.476 . S
H157 C151 0.929 . S
C158 O149 1.250 . S
C158 O150 1.258 . S
O159 Mn144 2.162 . S
O159 C147 1.281 . S
O160 Mn144 2.297 . S
O160 C147 1.236 . S
N161 Mn145 2.282 . S
N161 C162 1.328 . S
N161 C166 1.318 . S
C162 N161 1.328 . S
C162 C163 1.457 . S
C162 H167 0.929 . S
C163 C162 1.457 . S
C163 C164 1.291 . S
C163 H176 0.931 . S
C164 C163 1.291 . S
C164 C165 1.373 . S
C164 H177 0.929 . S
C165 C164 1.373 . S
C165 C166 1.396 . S
C165 C172 1.403 . S
C166 C156 1.476 . S
C166 N161 1.318 . S
C166 C165 1.396 . S
H167 C162 0.929 . S
O168 Mn144 2.385 . S
O168 C146 1.234 . S
O169 Mn144 2.209 . S
O169 Mn145 2.215 . S
O169 C146 1.283 . S
O170 Mn144 2.094 . S
O170 C148 1.240 . S
O171 Mn145 2.117 . S
O171 C148 1.264 . S
C172 C165 1.403 . S
C172 C173 1.399 . S
C172 H178 0.929 . S
C173 C153 1.449 . S
C173 C172 1.399 . S
C173 H179 0.930 . S
H174 C154 0.931 . S
H175 C155 0.930 . S
H176 C163 0.931 . S
H177 C164 0.929 . S
H178 C172 0.929 . S
H179 C173 0.930 . S
Mn180 O185 2.087 1_545 S
Mn180 O195 2.162 1_545 S
Mn180 O196 2.297 1_545 S
Mn180 O204 2.385 . S
Mn180 O205 2.209 . S
Mn180 O206 2.094 . S
Mn181 O186 2.121 . S
Mn181 N188 2.257 . S
Mn181 N197 2.282 . S
Mn181 O205 2.215 . S
Mn181 O207 2.117 . S
C182 O204 1.234 . S
C182 O205 1.283 . S
C183 O195 1.281 . S
C183 O196 1.236 . S
C184 O206 1.240 . S
C184 O207 1.264 . S
O185 Mn180 2.087 1_565 S
O185 C194 1.264 . S
O186 Mn181 2.121 . S
O186 C194 1.258 1_545 S
C187 N188 1.326 . S
C187 C191 1.460 . S
C187 H193 0.929 . S
N188 Mn181 2.257 . S
N188 C187 1.326 . S
N188 C192 1.362 . S
C189 C190 1.258 . S
C189 C192 1.431 . S
C189 C209 1.449 . S
C190 C189 1.258 . S
C190 C191 1.477 . S
C190 H210 0.931 . S
C191 C187 1.460 . S
C191 C190 1.477 . S
C191 H211 0.930 . S
C192 N188 1.362 . S
C192 C189 1.431 . S
C192 C202 1.476 . S
H193 C187 0.929 . S
C194 O185 1.264 . S
C194 O186 1.258 1_565 S
O195 Mn180 2.162 1_565 S
O195 C183 1.281 . S
O196 Mn180 2.297 1_565 S
O196 C183 1.236 . S
N197 Mn181 2.282 . S
N197 C198 1.328 . S
N197 C202 1.318 . S
C198 N197 1.328 . S
C198 C199 1.457 . S
C198 H203 0.929 . S
C199 C198 1.457 . S
C199 C200 1.291 . S
C199 H212 0.931 . S
C200 C199 1.291 . S
C200 C201 1.373 . S
C200 H213 0.929 . S
C201 C200 1.373 . S
C201 C202 1.396 . S
C201 C208 1.403 . S
C202 C192 1.476 . S
C202 N197 1.318 . S
C202 C201 1.396 . S
H203 C198 0.929 . S
O204 Mn180 2.385 . S
O204 C182 1.234 . S
O205 Mn180 2.209 . S
O205 Mn181 2.215 . S
O205 C182 1.283 . S
O206 Mn180 2.094 . S
O206 C184 1.240 . S
O207 Mn181 2.117 . S
O207 C184 1.264 . S
C208 C201 1.403 . S
C208 C209 1.399 . S
C208 H214 0.929 . S
C209 C189 1.449 . S
C209 C208 1.399 . S
C209 H215 0.930 . S
H210 C190 0.931 . S
H211 C191 0.930 . S
H212 C199 0.931 . S
H213 C200 0.929 . S
H214 C208 0.929 . S
H215 C209 0.930 . S
Mn216 O221 2.095 . S
Mn216 O231 2.162 . S
Mn216 O232 2.297 . S
Mn216 O240 2.385 . S
Mn216 O241 2.209 . S
Mn216 O242 2.094 . S
Mn217 O222 2.121 . S
Mn217 N224 2.257 . S
Mn217 N233 2.282 . S
Mn217 O241 2.215 . S
Mn217 O243 2.117 . S
C218 O240 1.234 . S
C218 O241 1.283 . S
C219 O231 1.281 . S
C219 O232 1.236 . S
C220 O242 1.240 . S
C220 O243 1.264 . S
O221 Mn216 2.095 . S
O221 C230 1.250 . S
O222 Mn217 2.121 . S
O222 C230 1.258 . S
C223 N224 1.326 . S
C223 C227 1.460 . S
C223 H229 0.929 . S
N224 Mn217 2.257 . S
N224 C223 1.326 . S
N224 C228 1.362 . S
C225 C226 1.258 . S
C225 C228 1.431 . S
C225 C245 1.449 . S
C226 C225 1.258 . S
C226 C227 1.477 . S
C226 H246 0.931 . S
C227 C223 1.460 . S
C227 C226 1.477 . S
C227 H247 0.930 . S
C228 N224 1.362 . S
C228 C225 1.431 . S
C228 C238 1.476 . S
H229 C223 0.929 . S
C230 O221 1.250 . S
C230 O222 1.258 . S
O231 Mn216 2.162 . S
O231 C219 1.281 . S
O232 Mn216 2.297 . S
O232 C219 1.236 . S
N233 Mn217 2.282 . S
N233 C234 1.328 . S
N233 C238 1.318 . S
C234 N233 1.328 . S
C234 C235 1.457 . S
C234 H239 0.929 . S
C235 C234 1.457 . S
C235 C236 1.291 . S
C235 H248 0.931 . S
C236 C235 1.291 . S
C236 C237 1.373 . S
C236 H249 0.929 . S
C237 C236 1.373 . S
C237 C238 1.396 . S
C237 C244 1.403 . S
C238 C228 1.476 . S
C238 N233 1.318 . S
C238 C237 1.396 . S
H239 C234 0.929 . S
O240 Mn216 2.385 . S
O240 C218 1.234 . S
O241 Mn216 2.209 . S
O241 Mn217 2.215 . S
O241 C218 1.283 . S
O242 Mn216 2.094 . S
O242 C220 1.240 . S
O243 Mn217 2.117 . S
O243 C220 1.264 . S
C244 C237 1.403 . S
C244 C245 1.399 . S
C244 H250 0.929 . S
C245 C225 1.449 . S
C245 C244 1.399 . S
C245 H251 0.930 . S
H246 C226 0.931 . S
H247 C227 0.930 . S
H248 C235 0.931 . S
H249 C236 0.929 . S
H250 C244 0.929 . S
H251 C245 0.930 . S
Mn252 O257 2.095 . S
Mn252 O267 2.162 . S
Mn252 O268 2.297 . S
Mn252 O276 2.385 . S
Mn252 O277 2.209 . S
Mn252 O278 2.094 . S
Mn253 O258 2.121 . S
Mn253 N260 2.257 . S
Mn253 N269 2.282 . S
Mn253 O277 2.215 . S
Mn253 O279 2.117 . S
C254 O276 1.234 . S
C254 O277 1.283 . S
C255 O267 1.281 . S
C255 O268 1.236 . S
C256 O278 1.240 . S
C256 O279 1.264 . S
O257 Mn252 2.095 . S
O257 C266 1.250 . S
O258 Mn253 2.121 . S
O258 C266 1.258 . S
C259 N260 1.326 . S
C259 C263 1.460 . S
C259 H265 0.929 . S
N260 Mn253 2.257 . S
N260 C259 1.326 . S
N260 C264 1.362 . S
C261 C262 1.258 . S
C261 C264 1.431 . S
C261 C281 1.449 . S
C262 C261 1.258 . S
C262 C263 1.477 . S
C262 H282 0.931 . S
C263 C259 1.460 . S
C263 C262 1.477 . S
C263 H283 0.930 . S
C264 N260 1.362 . S
C264 C261 1.431 . S
C264 C274 1.476 . S
H265 C259 0.929 . S
C266 O257 1.250 . S
C266 O258 1.258 . S
O267 Mn252 2.162 . S
O267 C255 1.281 . S
O268 Mn252 2.297 . S
O268 C255 1.236 . S
N269 Mn253 2.282 . S
N269 C270 1.328 . S
N269 C274 1.318 . S
C270 N269 1.328 . S
C270 C271 1.457 . S
C270 H275 0.929 . S
C271 C270 1.457 . S
C271 C272 1.291 . S
C271 H284 0.931 . S
C272 C271 1.291 . S
C272 C273 1.373 . S
C272 H285 0.929 . S
C273 C272 1.373 . S
C273 C274 1.396 . S
C273 C280 1.403 . S
C274 C264 1.476 . S
C274 N269 1.318 . S
C274 C273 1.396 . S
H275 C270 0.929 . S
O276 Mn252 2.385 . S
O276 C254 1.234 . S
O277 Mn252 2.209 . S
O277 Mn253 2.215 . S
O277 C254 1.283 . S
O278 Mn252 2.094 . S
O278 C256 1.240 . S
O279 Mn253 2.117 . S
O279 C256 1.264 . S
C280 C273 1.403 . S
C280 C281 1.399 . S
C280 H286 0.929 . S
C281 C261 1.449 . S
C281 C280 1.399 . S
C281 H287 0.930 . S
H282 C262 0.931 . S
H283 C263 0.930 . S
H284 C271 0.931 . S
H285 C272 0.929 . S
H286 C280 0.929 . S
H287 C281 0.930 . S
Mn288 O293 2.095 . S
Mn288 O303 2.162 . S
Mn288 O304 2.297 . S
Mn288 O312 2.385 . S
Mn288 O313 2.209 . S
Mn288 O314 2.094 . S
Mn289 O294 2.121 . S
Mn289 N296 2.257 . S
Mn289 N305 2.282 . S
Mn289 O313 2.215 . S
Mn289 O315 2.117 . S
C290 O312 1.234 . S
C290 O313 1.283 . S
C291 O303 1.281 . S
C291 O304 1.236 . S
C292 O314 1.240 . S
C292 O315 1.264 . S
O293 Mn288 2.095 . S
O293 C302 1.250 . S
O294 Mn289 2.121 . S
O294 C302 1.258 . S
C295 N296 1.326 . S
C295 C299 1.460 . S
C295 H301 0.929 . S
N296 Mn289 2.257 . S
N296 C295 1.326 . S
N296 C300 1.362 . S
C297 C298 1.258 . S
C297 C300 1.431 . S
C297 C317 1.449 . S
C298 C297 1.258 . S
C298 C299 1.477 . S
C298 H318 0.931 . S
C299 C295 1.460 . S
C299 C298 1.477 . S
C299 H319 0.930 . S
C300 N296 1.362 . S
C300 C297 1.431 . S
C300 C310 1.476 . S
H301 C295 0.929 . S
C302 O293 1.250 . S
C302 O294 1.258 . S
O303 Mn288 2.162 . S
O303 C291 1.281 . S
O304 Mn288 2.297 . S
O304 C291 1.236 . S
N305 Mn289 2.282 . S
N305 C306 1.328 . S
N305 C310 1.318 . S
C306 N305 1.328 . S
C306 C307 1.457 . S
C306 H311 0.929 . S
C307 C306 1.457 . S
C307 C308 1.291 . S
C307 H320 0.931 . S
C308 C307 1.291 . S
C308 C309 1.373 . S
C308 H321 0.929 . S
C309 C308 1.373 . S
C309 C310 1.396 . S
C309 C316 1.403 . S
C310 C300 1.476 . S
C310 N305 1.318 . S
C310 C309 1.396 . S
H311 C306 0.929 . S
O312 Mn288 2.385 . S
O312 C290 1.234 . S
O313 Mn288 2.209 . S
O313 Mn289 2.215 . S
O313 C290 1.283 . S
O314 Mn288 2.094 . S
O314 C292 1.240 . S
O315 Mn289 2.117 . S
O315 C292 1.264 . S
C316 C309 1.403 . S
C316 C317 1.399 . S
C316 H322 0.929 . S
C317 C297 1.449 . S
C317 C316 1.399 . S
C317 H323 0.930 . S
H318 C298 0.931 . S
H319 C299 0.930 . S
H320 C307 0.931 . S
H321 C308 0.929 . S
H322 C316 0.929 . S
H323 C317 0.930 . S
Mn324 O329 2.095 . S
Mn324 O339 2.162 . S
Mn324 O340 2.297 . S
Mn324 O348 2.385 . S
Mn324 O349 2.209 . S
Mn324 O350 2.094 . S
Mn325 O330 2.121 . S
Mn325 N332 2.257 . S
Mn325 N341 2.282 . S
Mn325 O349 2.215 . S
Mn325 O351 2.117 . S
C326 O348 1.234 . S
C326 O349 1.283 . S
C327 O339 1.281 . S
C327 O340 1.236 . S
C328 O350 1.240 . S
C328 O351 1.264 . S
O329 Mn324 2.095 . S
O329 C338 1.250 . S
O330 Mn325 2.121 . S
O330 C338 1.258 . S
C331 N332 1.326 . S
C331 C335 1.460 . S
C331 H337 0.929 . S
N332 Mn325 2.257 . S
N332 C331 1.326 . S
N332 C336 1.362 . S
C333 C334 1.258 . S
C333 C336 1.431 . S
C333 C353 1.449 . S
C334 C333 1.258 . S
C334 C335 1.477 . S
C334 H354 0.931 . S
C335 C331 1.460 . S
C335 C334 1.477 . S
C335 H355 0.930 . S
C336 N332 1.362 . S
C336 C333 1.431 . S
C336 C346 1.476 . S
H337 C331 0.929 . S
C338 O329 1.250 . S
C338 O330 1.258 . S
O339 Mn324 2.162 . S
O339 C327 1.281 . S
O340 Mn324 2.297 . S
O340 C327 1.236 . S
N341 Mn325 2.282 . S
N341 C342 1.328 . S
N341 C346 1.318 . S
C342 N341 1.328 . S
C342 C343 1.457 . S
C342 H347 0.929 . S
C343 C342 1.457 . S
C343 C344 1.291 . S
C343 H356 0.931 . S
C344 C343 1.291 . S
C344 C345 1.373 . S
C344 H357 0.929 . S
C345 C344 1.373 . S
C345 C346 1.396 . S
C345 C352 1.403 . S
C346 C336 1.476 . S
C346 N341 1.318 . S
C346 C345 1.396 . S
H347 C342 0.929 . S
O348 Mn324 2.385 . S
O348 C326 1.234 . S
O349 Mn324 2.209 . S
O349 Mn325 2.215 . S
O349 C326 1.283 . S
O350 Mn324 2.094 . S
O350 C328 1.240 . S
O351 Mn325 2.117 . S
O351 C328 1.264 . S
C352 C345 1.403 . S
C352 C353 1.399 . S
C352 H358 0.929 . S
C353 C333 1.449 . S
C353 C352 1.399 . S
C353 H359 0.930 . S
H354 C334 0.931 . S
H355 C335 0.930 . S
H356 C343 0.931 . S
H357 C344 0.929 . S
H358 C352 0.929 . S
H359 C353 0.930 . S
Mn360 O365 2.095 . S
Mn360 O375 2.162 . S
Mn360 O376 2.297 . S
Mn360 O384 2.385 . S
Mn360 O385 2.209 . S
Mn360 O386 2.094 . S
Mn361 O366 2.121 . S
Mn361 N368 2.257 1_545 S
Mn361 N377 2.282 1_545 S
Mn361 O385 2.215 . S
Mn361 O387 2.117 . S
C362 O384 1.234 . S
C362 O385 1.283 . S
C363 O375 1.281 . S
C363 O376 1.236 . S
C364 O386 1.240 . S
C364 O387 1.264 . S
O365 Mn360 2.095 . S
O365 C374 1.250 . S
O366 Mn361 2.121 . S
O366 C374 1.258 . S
C367 N368 1.326 . S
C367 C371 1.460 . S
C367 H373 0.929 . S
N368 Mn361 2.257 1_565 S
N368 C367 1.326 . S
N368 C372 1.362 . S
C369 C370 1.258 . S
C369 C372 1.431 . S
C369 C389 1.449 . S
C370 C369 1.258 . S
C370 C371 1.477 . S
C370 H390 0.931 . S
C371 C367 1.460 . S
C371 C370 1.477 . S
C371 H391 0.930 . S
C372 N368 1.362 . S
C372 C369 1.431 . S
C372 C382 1.476 . S
H373 C367 0.929 . S
C374 O365 1.250 . S
C374 O366 1.258 . S
O375 Mn360 2.162 . S
O375 C363 1.281 . S
O376 Mn360 2.297 . S
O376 C363 1.236 . S
N377 Mn361 2.282 1_565 S
N377 C378 1.328 1_565 S
N377 C382 1.318 . S
C378 N377 1.328 1_545 S
C378 C379 1.457 1_545 S
C378 H383 0.929 . S
C379 C378 1.457 1_565 S
C379 C380 1.291 . S
C379 H392 0.930 . S
C380 C379 1.291 . S
C380 C381 1.373 . S
C380 H393 0.929 . S
C381 C380 1.373 . S
C381 C382 1.396 . S
C381 C388 1.403 . S
C382 C372 1.476 . S
C382 N377 1.318 . S
C382 C381 1.396 . S
H383 C378 0.929 . S
O384 Mn360 2.385 . S
O384 C362 1.234 . S
O385 Mn360 2.209 . S
O385 Mn361 2.215 . S
O385 C362 1.283 . S
O386 Mn360 2.094 . S
O386 C364 1.240 . S
O387 Mn361 2.117 . S
O387 C364 1.264 . S
C388 C381 1.403 . S
C388 C389 1.399 . S
C388 H394 0.929 . S
C389 C369 1.449 . S
C389 C388 1.399 . S
C389 H395 0.930 . S
H390 C370 0.931 . S
H391 C371 0.930 . S
H392 C379 0.930 . S
H393 C380 0.929 . S
H394 C388 0.929 . S
H395 C389 0.930 . S
Mn396 O401 2.095 . S
Mn396 O411 2.162 . S
Mn396 O412 2.297 . S
Mn396 O420 2.385 . S
Mn396 O421 2.209 . S
Mn396 O422 2.094 . S
Mn397 O402 2.121 . S
Mn397 N404 2.258 1_655 S
Mn397 N413 2.282 1_655 S
Mn397 O421 2.214 . S
Mn397 O423 2.116 . S
C398 O420 1.234 . S
C398 O421 1.283 . S
C399 O411 1.281 . S
C399 O412 1.236 . S
C400 O422 1.240 . S
C400 O423 1.264 . S
O401 Mn396 2.095 . S
O401 C410 1.250 . S
O402 Mn397 2.121 . S
O402 C410 1.258 . S
C403 N404 1.326 . S
C403 C407 1.460 . S
C403 H409 0.929 . S
N404 Mn397 2.258 1_455 S
N404 C403 1.326 . S
N404 C408 1.362 . S
C405 C406 1.258 . S
C405 C408 1.431 . S
C405 C425 1.449 . S
C406 C405 1.258 . S
C406 C407 1.477 . S
C406 H426 0.931 . S
C407 C403 1.460 . S
C407 C406 1.477 . S
C407 H427 0.930 . S
C408 N404 1.362 . S
C408 C405 1.431 . S
C408 C418 1.476 . S
H409 C403 0.929 . S
C410 O401 1.250 . S
C410 O402 1.258 . S
O411 Mn396 2.162 . S
O411 C399 1.281 . S
O412 Mn396 2.297 . S
O412 C399 1.236 . S
N413 Mn397 2.282 1_455 S
N413 C414 1.328 . S
N413 C418 1.318 . S
C414 N413 1.328 . S
C414 C415 1.457 . S
C414 H419 0.929 1_455 S
C415 C414 1.457 . S
C415 C416 1.291 . S
C415 H428 0.931 . S
C416 C415 1.291 . S
C416 C417 1.373 . S
C416 H429 0.929 . S
C417 C416 1.373 . S
C417 C418 1.396 . S
C417 C424 1.403 . S
C418 C408 1.476 . S
C418 N413 1.318 . S
C418 C417 1.396 . S
H419 C414 0.929 1_655 S
O420 Mn396 2.385 . S
O420 C398 1.234 . S
O421 Mn396 2.209 . S
O421 Mn397 2.214 . S
O421 C398 1.283 . S
O422 Mn396 2.094 . S
O422 C400 1.240 . S
O423 Mn397 2.116 . S
O423 C400 1.264 . S
C424 C417 1.403 . S
C424 C425 1.399 . S
C424 H430 0.929 . S
C425 C405 1.449 . S
C425 C424 1.399 . S
C425 H431 0.930 . S
H426 C406 0.931 . S
H427 C407 0.930 . S
H428 C415 0.931 . S
H429 C416 0.929 . S
H430 C424 0.929 . S
H431 C425 0.930 . S
Mn432 O437 2.095 . S
Mn432 O447 2.162 . S
Mn432 O448 2.297 . S
Mn432 O456 2.385 . S
Mn432 O457 2.209 . S
Mn432 O458 2.094 . S
Mn433 O438 2.121 . S
Mn433 N440 2.257 . S
Mn433 N449 2.282 . S
Mn433 O457 2.215 . S
Mn433 O459 2.117 . S
C434 O456 1.234 . S
C434 O457 1.283 . S
C435 O447 1.281 . S
C435 O448 1.236 . S
C436 O458 1.240 . S
C436 O459 1.264 . S
O437 Mn432 2.095 . S
O437 C446 1.250 . S
O438 Mn433 2.121 . S
O438 C446 1.258 . S
C439 N440 1.326 . S
C439 C443 1.460 . S
C439 H445 0.929 . S
N440 Mn433 2.257 . S
N440 C439 1.326 . S
N440 C444 1.362 . S
C441 C442 1.258 . S
C441 C444 1.431 . S
C441 C461 1.449 . S
C442 C441 1.258 . S
C442 C443 1.477 . S
C442 H462 0.931 . S
C443 C439 1.460 . S
C443 C442 1.477 . S
C443 H463 0.930 . S
C444 N440 1.362 . S
C444 C441 1.431 . S
C444 C454 1.476 . S
H445 C439 0.929 . S
C446 O437 1.250 . S
C446 O438 1.258 . S
O447 Mn432 2.162 . S
O447 C435 1.281 . S
O448 Mn432 2.297 . S
O448 C435 1.236 . S
N449 Mn433 2.282 . S
N449 C450 1.328 . S
N449 C454 1.318 . S
C450 N449 1.328 . S
C450 C451 1.457 . S
C450 H455 0.929 . S
C451 C450 1.457 . S
C451 C452 1.291 . S
C451 H464 0.931 . S
C452 C451 1.291 . S
C452 C453 1.373 . S
C452 H465 0.929 . S
C453 C452 1.373 . S
C453 C454 1.396 . S
C453 C460 1.403 . S
C454 C444 1.476 . S
C454 N449 1.318 . S
C454 C453 1.396 . S
H455 C450 0.929 . S
O456 Mn432 2.385 . S
O456 C434 1.234 . S
O457 Mn432 2.209 . S
O457 Mn433 2.215 . S
O457 C434 1.283 . S
O458 Mn432 2.094 . S
O458 C436 1.240 . S
O459 Mn433 2.117 . S
O459 C436 1.264 . S
C460 C453 1.403 . S
C460 C461 1.399 . S
C460 H466 0.929 . S
C461 C441 1.449 . S
C461 C460 1.399 . S
C461 H467 0.930 . S
H462 C442 0.931 . S
H463 C443 0.930 . S
H464 C451 0.931 . S
H465 C452 0.929 . S
H466 C460 0.929 . S
H467 C461 0.930 . S
Mn468 O473 2.095 . S
Mn468 O483 2.162 . S
Mn468 O484 2.297 . S
Mn468 O492 2.385 . S
Mn468 O493 2.209 . S
Mn468 O494 2.094 . S
Mn469 O474 2.121 . S
Mn469 N476 2.257 . S
Mn469 N485 2.282 . S
Mn469 O493 2.215 . S
Mn469 O495 2.117 . S
C470 O492 1.234 . S
C470 O493 1.283 . S
C471 O483 1.281 . S
C471 O484 1.236 . S
C472 O494 1.240 . S
C472 O495 1.264 . S
O473 Mn468 2.095 . S
O473 C482 1.250 . S
O474 Mn469 2.121 . S
O474 C482 1.258 . S
C475 N476 1.326 . S
C475 C479 1.460 . S
C475 H481 0.929 . S
N476 Mn469 2.257 . S
N476 C475 1.326 . S
N476 C480 1.362 . S
C477 C478 1.258 . S
C477 C480 1.431 . S
C477 C497 1.449 . S
C478 C477 1.258 . S
C478 C479 1.477 . S
C478 H498 0.931 . S
C479 C475 1.460 . S
C479 C478 1.477 . S
C479 H499 0.930 . S
C480 N476 1.362 . S
C480 C477 1.431 . S
C480 C490 1.476 . S
H481 C475 0.929 . S
C482 O473 1.250 . S
C482 O474 1.258 . S
O483 Mn468 2.162 . S
O483 C471 1.281 . S
O484 Mn468 2.297 . S
O484 C471 1.236 . S
N485 Mn469 2.282 . S
N485 C486 1.328 . S
N485 C490 1.318 . S
C486 N485 1.328 . S
C486 C487 1.457 . S
C486 H491 0.929 . S
C487 C486 1.457 . S
C487 C488 1.291 . S
C487 H500 0.931 . S
C488 C487 1.291 . S
C488 C489 1.373 . S
C488 H501 0.929 . S
C489 C488 1.373 . S
C489 C490 1.396 . S
C489 C496 1.403 . S
C490 C480 1.476 . S
C490 N485 1.318 . S
C490 C489 1.396 . S
H491 C486 0.929 . S
O492 Mn468 2.385 . S
O492 C470 1.234 . S
O493 Mn468 2.209 . S
O493 Mn469 2.215 . S
O493 C470 1.283 . S
O494 Mn468 2.094 . S
O494 C472 1.240 . S
O495 Mn469 2.117 . S
O495 C472 1.264 . S
C496 C489 1.403 . S
C496 C497 1.399 . S
C496 H502 0.929 . S
C497 C477 1.449 . S
C497 C496 1.399 . S
C497 H503 0.930 . S
H498 C478 0.931 . S
H499 C479 0.930 . S
H500 C487 0.931 . S
H501 C488 0.929 . S
H502 C496 0.929 . S
H503 C497 0.930 . S
Mn504 O509 2.095 . S
Mn504 O519 2.162 . S
Mn504 O520 2.297 . S
Mn504 O528 2.385 . S
Mn504 O529 2.209 . S
Mn504 O530 2.094 . S
Mn505 O510 2.121 . S
Mn505 N512 2.257 1_455 S
Mn505 N521 2.282 . S
Mn505 O529 2.215 . S
Mn505 O531 2.117 . S
C506 O528 1.234 . S
C506 O529 1.283 . S
C507 O519 1.281 . S
C507 O520 1.236 . S
C508 O530 1.240 . S
C508 O531 1.264 . S
O509 Mn504 2.095 . S
O509 C518 1.250 . S
O510 Mn505 2.121 . S
O510 C518 1.258 . S
C511 N512 1.326 . S
C511 C515 1.460 . S
C511 H517 0.929 . S
N512 Mn505 2.257 1_655 S
N512 C511 1.326 . S
N512 C516 1.362 . S
C513 C514 1.258 . S
C513 C516 1.431 . S
C513 C533 1.449 . S
C514 C513 1.258 . S
C514 C515 1.477 . S
C514 H534 0.931 . S
C515 C511 1.460 . S
C515 C514 1.477 . S
C515 H535 0.930 . S
C516 N512 1.362 . S
C516 C513 1.431 . S
C516 C526 1.476 . S
H517 C511 0.929 . S
C518 O509 1.250 . S
C518 O510 1.258 . S
O519 Mn504 2.162 . S
O519 C507 1.281 . S
O520 Mn504 2.297 . S
O520 C507 1.236 . S
N521 Mn505 2.282 . S
N521 C522 1.328 . S
N521 C526 1.318 1_455 S
C522 N521 1.328 . S
C522 C523 1.457 1_455 S
C522 H527 0.929 . S
C523 C522 1.457 1_655 S
C523 C524 1.291 . S
C523 H536 0.931 1_655 S
C524 C523 1.291 . S
C524 C525 1.373 . S
C524 H537 0.929 . S
C525 C524 1.373 . S
C525 C526 1.396 . S
C525 C532 1.403 . S
C526 C516 1.476 . S
C526 N521 1.318 1_655 S
C526 C525 1.396 . S
H527 C522 0.929 . S
O528 Mn504 2.385 . S
O528 C506 1.234 . S
O529 Mn504 2.209 . S
O529 Mn505 2.215 . S
O529 C506 1.283 . S
O530 Mn504 2.094 . S
O530 C508 1.240 . S
O531 Mn505 2.117 . S
O531 C508 1.264 . S
C532 C525 1.403 . S
C532 C533 1.399 . S
C532 H538 0.929 . S
C533 C513 1.449 . S
C533 C532 1.399 . S
C533 H539 0.930 . S
H534 C514 0.931 . S
H535 C515 0.930 . S
H536 C523 0.931 1_455 S
H537 C524 0.929 . S
H538 C532 0.929 . S
H539 C533 0.930 . S
Mn540 O545 2.095 . S
Mn540 O555 2.162 . S
Mn540 O556 2.297 . S
Mn540 O564 2.385 . S
Mn540 O565 2.209 . S
Mn540 O566 2.094 . S
Mn541 O546 2.121 . S
Mn541 N548 2.257 . S
Mn541 N557 2.282 . S
Mn541 O565 2.215 . S
Mn541 O567 2.117 . S
C542 O564 1.234 . S
C542 O565 1.283 . S
C543 O555 1.281 . S
C543 O556 1.236 . S
C544 O566 1.240 . S
C544 O567 1.264 . S
O545 Mn540 2.095 . S
O545 C554 1.250 . S
O546 Mn541 2.121 . S
O546 C554 1.258 . S
C547 N548 1.326 1_545 S
C547 C551 1.460 . S
C547 H553 0.929 . S
N548 Mn541 2.257 . S
N548 C547 1.326 1_565 S
N548 C552 1.362 . S
C549 C550 1.258 . S
C549 C552 1.431 1_545 S
C549 C569 1.449 . S
C550 C549 1.258 . S
C550 C551 1.477 . S
C550 H570 0.931 . S
C551 C547 1.460 . S
C551 C550 1.477 . S
C551 H571 0.930 . S
C552 N548 1.362 . S
C552 C549 1.431 1_565 S
C552 C562 1.476 . S
H553 C547 0.929 . S
C554 O545 1.250 . S
C554 O546 1.258 . S
O555 Mn540 2.162 . S
O555 C543 1.281 . S
O556 Mn540 2.297 . S
O556 C543 1.236 . S
N557 Mn541 2.282 . S
N557 C558 1.328 . S
N557 C562 1.318 . S
C558 N557 1.328 . S
C558 C559 1.457 . S
C558 H563 0.929 . S
C559 C558 1.457 . S
C559 C560 1.291 . S
C559 H572 0.931 . S
C560 C559 1.291 . S
C560 C561 1.373 . S
C560 H573 0.929 . S
C561 C560 1.373 . S
C561 C562 1.396 . S
C561 C568 1.403 . S
C562 C552 1.476 . S
C562 N557 1.318 . S
C562 C561 1.396 . S
H563 C558 0.929 . S
O564 Mn540 2.385 . S
O564 C542 1.234 . S
O565 Mn540 2.209 . S
O565 Mn541 2.215 . S
O565 C542 1.283 . S
O566 Mn540 2.094 . S
O566 C544 1.240 . S
O567 Mn541 2.117 . S
O567 C544 1.264 . S
C568 C561 1.403 . S
C568 C569 1.399 1_565 S
C568 H574 0.929 . S
C569 C549 1.449 . S
C569 C568 1.399 1_545 S
C569 H575 0.930 . S
H570 C550 0.931 . S
H571 C551 0.930 . S
H572 C559 0.931 . S
H573 C560 0.929 . S
H574 C568 0.929 . S
H575 C569 0.930 . S
Mn576 O581 2.095 . S
Mn576 O591 2.162 . S
Mn576 O592 2.297 . S
Mn576 O600 2.385 . S
Mn576 O601 2.209 . S
Mn576 O602 2.094 . S
Mn577 O582 2.121 . S
Mn577 N584 2.257 1_455 S
Mn577 N593 2.282 1_455 S
Mn577 O601 2.215 . S
Mn577 O603 2.117 . S
C578 O600 1.234 . S
C578 O601 1.283 . S
C579 O591 1.281 . S
C579 O592 1.236 . S
C580 O602 1.240 . S
C580 O603 1.264 . S
O581 Mn576 2.095 . S
O581 C590 1.250 . S
O582 Mn577 2.121 . S
O582 C590 1.258 . S
C583 N584 1.326 . S
C583 C587 1.460 . S
C583 H589 0.929 . S
N584 Mn577 2.257 1_655 S
N584 C583 1.326 . S
N584 C588 1.362 . S
C585 C586 1.258 . S
C585 C588 1.431 . S
C585 C605 1.449 . S
C586 C585 1.258 . S
C586 C587 1.477 . S
C586 H606 0.931 . S
C587 C583 1.460 . S
C587 C586 1.477 . S
C587 H607 0.930 . S
C588 N584 1.362 . S
C588 C585 1.431 . S
C588 C598 1.476 . S
H589 C583 0.929 . S
C590 O581 1.250 . S
C590 O582 1.258 . S
O591 Mn576 2.162 . S
O591 C579 1.281 . S
O592 Mn576 2.297 . S
O592 C579 1.236 . S
N593 Mn577 2.282 1_655 S
N593 C594 1.328 1_655 S
N593 C598 1.318 . S
C594 N593 1.328 1_455 S
C594 C595 1.457 1_455 S
C594 H599 0.929 . S
C595 C594 1.457 1_655 S
C595 C596 1.291 . S
C595 H608 0.928 . S
C596 C595 1.291 . S
C596 C597 1.373 . S
C596 H609 0.929 . S
C597 C596 1.373 . S
C597 C598 1.396 . S
C597 C604 1.403 . S
C598 C588 1.476 . S
C598 N593 1.318 . S
C598 C597 1.396 . S
H599 C594 0.929 . S
O600 Mn576 2.385 . S
O600 C578 1.234 . S
O601 Mn576 2.209 . S
O601 Mn577 2.215 . S
O601 C578 1.283 . S
O602 Mn576 2.094 . S
O602 C580 1.240 . S
O603 Mn577 2.117 . S
O603 C580 1.264 . S
C604 C597 1.403 . S
C604 C605 1.399 . S
C604 H610 0.929 . S
C605 C585 1.449 . S
C605 C604 1.399 . S
C605 H611 0.930 . S
H606 C586 0.931 . S
H607 C587 0.930 . S
H608 C595 0.928 . S
H609 C596 0.929 . S
H610 C604 0.929 . S
H611 C605 0.930 . S
Mn612 O617 2.095 . S
Mn612 O627 2.162 . S
Mn612 O628 2.297 . S
Mn612 O636 2.385 . S
Mn612 O637 2.209 . S
Mn612 O638 2.094 . S
Mn613 O618 2.121 . S
Mn613 N620 2.257 . S
Mn613 N629 2.282 . S
Mn613 O637 2.215 . S
Mn613 O639 2.117 . S
C614 O636 1.234 . S
C614 O637 1.283 . S
C615 O627 1.281 . S
C615 O628 1.236 . S
C616 O638 1.240 . S
C616 O639 1.264 . S
O617 Mn612 2.095 . S
O617 C626 1.250 . S
O618 Mn613 2.121 . S
O618 C626 1.258 . S
C619 N620 1.326 . S
C619 C623 1.460 . S
C619 H625 0.929 . S
N620 Mn613 2.257 . S
N620 C619 1.326 . S
N620 C624 1.362 . S
C621 C622 1.258 . S
C621 C624 1.431 . S
C621 C641 1.449 . S
C622 C621 1.258 . S
C622 C623 1.477 . S
C622 H642 0.931 . S
C623 C619 1.460 . S
C623 C622 1.477 . S
C623 H643 0.930 . S
C624 N620 1.362 . S
C624 C621 1.431 . S
C624 C634 1.476 . S
H625 C619 0.929 . S
C626 O617 1.250 . S
C626 O618 1.258 . S
O627 Mn612 2.162 . S
O627 C615 1.281 . S
O628 Mn612 2.297 . S
O628 C615 1.236 . S
N629 Mn613 2.282 . S
N629 C630 1.328 . S
N629 C634 1.318 . S
C630 N629 1.328 . S
C630 C631 1.457 . S
C630 H635 0.929 . S
C631 C630 1.457 . S
C631 C632 1.291 . S
C631 H644 0.931 . S
C632 C631 1.291 . S
C632 C633 1.373 . S
C632 H645 0.929 . S
C633 C632 1.373 . S
C633 C634 1.396 . S
C633 C640 1.403 . S
C634 C624 1.476 . S
C634 N629 1.318 . S
C634 C633 1.396 . S
H635 C630 0.929 . S
O636 Mn612 2.385 . S
O636 C614 1.234 . S
O637 Mn612 2.209 . S
O637 Mn613 2.215 . S
O637 C614 1.283 . S
O638 Mn612 2.094 . S
O638 C616 1.240 . S
O639 Mn613 2.117 . S
O639 C616 1.264 . S
C640 C633 1.403 . S
C640 C641 1.399 . S
C640 H646 0.929 . S
C641 C621 1.449 . S
C641 C640 1.399 . S
C641 H647 0.930 . S
H642 C622 0.931 . S
H643 C623 0.930 . S
H644 C631 0.931 . S
H645 C632 0.929 . S
H646 C640 0.929 . S
H647 C641 0.930 . S
H648 C660 0.930 . S
H649 C662 0.930 . S
H650 C663 0.930 . S
H651 C667 0.959 . S
H652 C667 0.959 . S
H653 C667 0.961 . S
H654 C668 0.960 . S
H655 C668 0.961 . S
H656 C668 0.959 . S
H657 C671 0.929 . S
H658 C672 0.931 . S
H659 C674 0.946 . S
C660 H648 0.930 . S
C660 C661 1.399 . S
C660 C665 1.399 . S
C661 C660 1.399 . S
C661 C662 1.376 . S
C662 H649 0.930 . S
C662 C661 1.376 . S
C662 C663 1.388 . S
C663 H650 0.930 . S
C663 C662 1.388 . S
C663 C664 1.390 . S
C664 C663 1.390 . S
C664 C665 1.394 . S
C664 C670 1.465 . S
C665 C660 1.399 . S
C665 C664 1.394 . S
C665 C666 1.516 . S
C666 C665 1.516 . S
C666 C667 1.502 . S
C666 C668 1.561 . S
C666 C669 1.526 . S
C667 H651 0.959 . S
C667 H652 0.959 . S
C667 H653 0.961 . S
C667 C666 1.502 . S
C668 H654 0.960 . S
C668 H655 0.961 . S
C668 H656 0.959 . S
C668 C666 1.561 . S
C669 C666 1.526 . S
C669 C670 1.396 . S
C669 C674 1.390 . S
C670 C664 1.465 . S
C670 C669 1.396 . S
C670 C671 1.399 . S
C671 H657 0.929 . S
C671 C670 1.399 . S
C671 C672 1.385 . S
C672 H658 0.931 . S
C672 C671 1.385 . S
C672 C673 1.389 1_554 S
C673 C672 1.389 1_556 S
C673 C674 1.387 1_556 S
C674 H659 0.946 . S
C674 C669 1.390 . S
C674 C673 1.387 1_554 S
H675 C687 0.930 . S
H676 C689 0.930 . S
H677 C690 0.930 . S
H678 C694 0.959 . S
H679 C694 0.959 . S
H680 C694 0.961 . S
H681 C695 0.960 . S
H682 C695 0.961 . S
H683 C695 0.959 . S
H684 C698 0.929 . S
H685 C699 0.931 . S
H686 C701 0.930 . S
C687 H675 0.930 . S
C687 C688 1.427 . S
C687 C692 1.399 . S
C688 C687 1.427 . S
C688 C689 1.372 1_554 S
C689 H676 0.930 . S
C689 C688 1.372 1_556 S
C689 C690 1.388 1_556 S
C690 H677 0.930 . S
C690 C689 1.388 1_554 S
C690 C691 1.390 . S
C691 C690 1.390 . S
C691 C692 1.394 . S
C691 C697 1.465 . S
C692 C687 1.399 . S
C692 C691 1.394 . S
C692 C693 1.516 . S
C693 C692 1.516 . S
C693 C694 1.502 . S
C693 C695 1.561 . S
C693 C696 1.526 . S
C694 H678 0.959 . S
C694 H679 0.959 . S
C694 H680 0.961 . S
C694 C693 1.502 . S
C695 H681 0.960 . S
C695 H682 0.961 . S
C695 H683 0.959 . S
C695 C693 1.561 . S
C696 C693 1.526 . S
C696 C697 1.396 . S
C696 C701 1.390 . S
C697 C691 1.465 . S
C697 C696 1.396 . S
C697 C698 1.399 . S
C698 H684 0.929 . S
C698 C697 1.399 . S
C698 C699 1.385 . S
C699 H685 0.931 . S
C699 C698 1.385 . S
C699 C700 1.389 . S
C700 C699 1.389 . S
C700 C701 1.387 . S
C701 H686 0.930 . S
C701 C696 1.390 . S
C701 C700 1.387 . S
H702 C714 0.930 . S
H703 C716 0.930 . S
H704 C717 0.930 . S
H705 C721 0.959 . S
H706 C721 0.959 . S
H707 C721 0.961 . S
H708 C722 0.960 . S
H709 C722 0.961 . S
H710 C722 0.959 . S
H711 C725 0.929 1_545 S
H712 C726 0.931 1_556 S
H713 C728 0.930 . S
C714 H702 0.930 . S
C714 C715 1.399 . S
C714 C719 1.399 . S
C715 C714 1.399 . S
C715 C716 1.376 1_565 S
C716 H703 0.930 . S
C716 C715 1.376 1_545 S
C716 C717 1.388 . S
C717 H704 0.930 . S
C717 C716 1.388 . S
C717 C718 1.390 1_545 S
C718 C717 1.390 1_565 S
C718 C719 1.394 . S
C718 C724 1.465 . S
C719 C714 1.399 . S
C719 C718 1.394 . S
C719 C720 1.516 . S
C720 C719 1.516 . S
C720 C721 1.502 . S
C720 C722 1.561 . S
C720 C723 1.526 . S
C721 H705 0.959 . S
C721 H706 0.959 . S
C721 H707 0.961 . S
C721 C720 1.502 . S
C722 H708 0.960 . S
C722 H709 0.961 . S
C722 H710 0.959 . S
C722 C720 1.561 . S
C723 C720 1.526 . S
C723 C724 1.396 . S
C723 C728 1.390 . S
C724 C718 1.465 . S
C724 C723 1.396 . S
C724 C725 1.399 . S
C725 H711 0.929 1_565 S
C725 C724 1.399 . S
C725 C726 1.385 . S
C726 H712 0.931 1_554 S
C726 C725 1.385 . S
C726 C727 1.389 . S
C727 C726 1.389 . S
C727 C728 1.387 . S
C728 H713 0.930 . S
C728 C723 1.390 . S
C728 C727 1.387 . S
H729 C741 0.930 . S
H730 C743 0.930 . S
H731 C744 0.930 . S
H732 C748 0.959 . S
H733 C748 0.959 . S
H734 C748 0.961 . S
H735 C749 0.960 . S
H736 C749 0.961 . S
H737 C749 0.959 . S
H738 C752 0.929 . S
H739 C753 0.942 . S
H740 C755 0.930 . S
C741 H729 0.930 . S
C741 C742 1.399 . S
C741 C746 1.399 . S
C742 C741 1.399 . S
C742 C743 1.376 . S
C743 H730 0.930 . S
C743 C742 1.376 . S
C743 C744 1.388 . S
C744 H731 0.930 . S
C744 C743 1.388 . S
C744 C745 1.390 . S
C745 C744 1.390 . S
C745 C746 1.394 . S
C745 C751 1.465 . S
C746 C741 1.399 . S
C746 C745 1.394 . S
C746 C747 1.516 . S
C747 C746 1.516 . S
C747 C748 1.502 . S
C747 C749 1.561 . S
C747 C750 1.526 . S
C748 H732 0.959 . S
C748 H733 0.959 . S
C748 H734 0.961 . S
C748 C747 1.502 . S
C749 H735 0.960 . S
C749 H736 0.961 . S
C749 H737 0.959 . S
C749 C747 1.561 . S
C750 C747 1.526 . S
C750 C751 1.396 . S
C750 C755 1.390 . S
C751 C745 1.465 . S
C751 C750 1.396 . S
C751 C752 1.399 . S
C752 H738 0.929 . S
C752 C751 1.399 . S
C752 C753 1.385 . S
C753 H739 0.942 . S
C753 C752 1.385 . S
C753 C754 1.389 . S
C754 C753 1.389 . S
C754 C755 1.387 . S
C755 H740 0.930 . S
C755 C750 1.390 . S
C755 C754 1.387 . S
H756 C768 0.930 . S
H757 C770 0.930 . S
H758 C771 0.930 . S
H759 C775 0.959 . S
H760 C775 0.959 . S
H761 C775 0.961 . S
H762 C776 0.960 . S
H763 C776 0.961 . S
H764 C776 0.959 . S
H765 C779 0.929 . S
H766 C780 0.931 . S
H767 C782 0.930 . S
C768 H756 0.930 . S
C768 C769 1.399 . S
C768 C773 1.399 . S
C769 C768 1.399 . S
C769 C770 1.376 . S
C770 H757 0.930 . S
C770 C769 1.376 . S
C770 C771 1.388 . S
C771 H758 0.930 . S
C771 C770 1.388 . S
C771 C772 1.390 . S
C772 C771 1.390 . S
C772 C773 1.394 . S
C772 C778 1.465 . S
C773 C768 1.399 . S
C773 C772 1.394 . S
C773 C774 1.516 . S
C774 C773 1.516 . S
C774 C775 1.502 . S
C774 C776 1.561 1_655 S
C774 C777 1.526 . S
C775 H759 0.959 . S
C775 H760 0.959 . S
C775 H761 0.961 . S
C775 C774 1.502 . S
C776 H762 0.960 . S
C776 H763 0.961 . S
C776 H764 0.959 . S
C776 C774 1.561 1_455 S
C777 C774 1.526 . S
C777 C778 1.396 . S
C777 C782 1.390 . S
C778 C772 1.465 . S
C778 C777 1.396 . S
C778 C779 1.399 . S
C779 H765 0.929 . S
C779 C778 1.399 . S
C779 C780 1.385 . S
C780 H766 0.931 . S
C780 C779 1.385 . S
C780 C781 1.389 . S
C781 C780 1.389 . S
C781 C782 1.387 . S
C782 H767 0.930 . S
C782 C777 1.390 . S
C782 C781 1.387 . S
H783 C795 0.930 . S
H784 C797 0.930 . S
H785 C798 0.930 . S
H786 C802 0.959 . S
H787 C802 0.959 . S
H788 C802 0.961 . S
H789 C803 0.960 . S
H790 C803 0.961 . S
H791 C803 0.959 . S
H792 C806 0.929 . S
H793 C807 0.931 . S
H794 C809 0.930 . S
C795 H783 0.930 . S
C795 C796 1.399 . S
C795 C800 1.399 . S
C796 C795 1.399 . S
C796 C797 1.376 . S
C797 H784 0.930 . S
C797 C796 1.376 . S
C797 C798 1.388 . S
C798 H785 0.930 . S
C798 C797 1.388 . S
C798 C799 1.390 . S
C799 C798 1.390 . S
C799 C800 1.394 . S
C799 C805 1.465 . S
C800 C795 1.399 . S
C800 C799 1.394 . S
C800 C801 1.516 . S
C801 C800 1.516 . S
C801 C802 1.502 . S
C801 C803 1.561 . S
C801 C804 1.526 . S
C802 H786 0.959 . S
C802 H787 0.959 . S
C802 H788 0.961 . S
C802 C801 1.502 . S
C803 H789 0.960 . S
C803 H790 0.961 . S
C803 H791 0.959 . S
C803 C801 1.561 . S
C804 C801 1.526 . S
C804 C805 1.396 . S
C804 C809 1.390 . S
C805 C799 1.465 . S
C805 C804 1.396 . S
C805 C806 1.399 . S
C806 H792 0.929 . S
C806 C805 1.399 . S
C806 C807 1.385 . S
C807 H793 0.931 . S
C807 C806 1.385 . S
C807 C808 1.389 . S
C808 C807 1.389 . S
C808 C809 1.387 . S
C809 H794 0.930 . S
C809 C804 1.390 . S
C809 C808 1.387 . S
H810 C822 0.930 . S
H811 C824 0.930 . S
H812 C825 0.930 . S
H813 C829 0.959 . S
H814 C829 0.959 . S
H815 C829 0.961 . S
H816 C830 0.961 1_455 S
H817 C830 0.961 . S
H818 C830 0.959 . S
H819 C833 0.929 . S
H820 C834 0.931 1_554 S
H821 C836 0.930 . S
C822 H810 0.930 . S
C822 C823 1.399 1_455 S
C822 C827 1.399 1_455 S
C823 C822 1.399 1_655 S
C823 C824 1.376 . S
C824 H811 0.930 . S
C824 C823 1.376 . S
C824 C825 1.388 . S
C825 H812 0.930 . S
C825 C824 1.388 . S
C825 C826 1.390 . S
C826 C825 1.390 . S
C826 C827 1.394 . S
C826 C832 1.465 . S
C827 C822 1.399 1_655 S
C827 C826 1.394 . S
C827 C828 1.516 . S
C828 C827 1.516 . S
C828 C829 1.502 1_655 S
C828 C830 1.561 . S
C828 C831 1.526 . S
C829 H813 0.959 . S
C829 H814 0.959 . S
C829 H815 0.961 . S
C829 C828 1.502 1_455 S
C830 H816 0.961 1_655 S
C830 H817 0.961 . S
C830 H818 0.959 . S
C830 C828 1.561 . S
C831 C828 1.526 . S
C831 C832 1.396 . S
C831 C836 1.390 . S
C832 C826 1.465 . S
C832 C831 1.396 . S
C832 C833 1.399 . S
C833 H819 0.929 . S
C833 C832 1.399 . S
C833 C834 1.385 . S
C834 H820 0.931 1_556 S
C834 C833 1.385 . S
C834 C835 1.389 . S
C835 C834 1.389 . S
C835 C836 1.387 . S
C836 H821 0.930 . S
C836 C831 1.390 . S
C836 C835 1.387 . S
H837 C849 0.930 . S
H838 C851 0.930 . S
H839 C852 0.930 . S
H840 C856 0.959 . S
H841 C856 0.959 . S
H842 C856 0.961 . S
H843 C857 0.960 . S
H844 C857 0.961 . S
H845 C857 0.959 . S
H846 C860 0.929 . S
H847 C861 0.931 . S
H848 C863 0.930 . S
C849 H837 0.930 . S
C849 C850 1.379 1_556 S
C849 C854 1.399 . S
C850 C849 1.379 1_554 S
C850 C851 1.377 . S
C851 H838 0.930 . S
C851 C850 1.377 . S
C851 C852 1.388 1_554 S
C852 H839 0.930 . S
C852 C851 1.388 1_556 S
C852 C853 1.390 . S
C853 C852 1.390 . S
C853 C854 1.394 . S
C853 C859 1.465 . S
C854 C849 1.399 . S
C854 C853 1.394 . S
C854 C855 1.516 . S
C855 C854 1.516 . S
C855 C856 1.502 . S
C855 C857 1.561 . S
C855 C858 1.526 . S
C856 H840 0.959 . S
C856 H841 0.959 . S
C856 H842 0.961 . S
C856 C855 1.502 . S
C857 H843 0.960 . S
C857 H844 0.961 . S
C857 H845 0.959 . S
C857 C855 1.561 . S
C858 C855 1.526 . S
C858 C859 1.396 . S
C858 C863 1.390 . S
C859 C853 1.465 . S
C859 C858 1.396 . S
C859 C860 1.399 . S
C860 H846 0.929 . S
C860 C859 1.399 . S
C860 C861 1.385 . S
C861 H847 0.931 . S
C861 C860 1.385 . S
C861 C862 1.389 . S
C862 C861 1.389 . S
C862 C863 1.387 . S
C863 H848 0.930 . S
C863 C858 1.390 . S
C863 C862 1.387 . S
H864 C876 0.930 . S
H865 C878 0.930 1_554 S
H866 C879 0.930 1_565 S
H867 C883 0.959 . S
H868 C883 0.959 . S
H869 C883 0.961 . S
H870 C884 0.960 . S
H871 C884 0.961 . S
H872 C884 0.959 . S
H873 C887 0.929 1_565 S
H874 C888 0.931 1_565 S
H875 C890 0.930 . S
C876 H864 0.930 . S
C876 C877 1.399 . S
C876 C881 1.399 . S
C877 C876 1.399 . S
C877 C878 1.376 . S
C878 H865 0.930 1_556 S
C878 C877 1.376 . S
C878 C879 1.388 . S
C879 H866 0.930 1_545 S
C879 C878 1.388 . S
C879 C880 1.390 . S
C880 C879 1.390 . S
C880 C881 1.394 . S
C880 C886 1.465 . S
C881 C876 1.399 . S
C881 C880 1.394 . S
C881 C882 1.516 . S
C882 C881 1.516 . S
C882 C883 1.502 . S
C882 C884 1.561 . S
C882 C885 1.526 . S
C883 H867 0.959 . S
C883 H868 0.959 . S
C883 H869 0.961 . S
C883 C882 1.502 . S
C884 H870 0.960 . S
C884 H871 0.961 . S
C884 H872 0.959 . S
C884 C882 1.561 . S
C885 C882 1.526 . S
C885 C886 1.396 . S
C885 C890 1.390 . S
C886 C880 1.465 . S
C886 C885 1.396 . S
C886 C887 1.399 . S
C887 H873 0.929 1_545 S
C887 C886 1.399 . S
C887 C888 1.385 . S
C888 H874 0.931 1_545 S
C888 C887 1.385 . S
C888 C889 1.389 . S
C889 C888 1.389 . S
C889 C890 1.387 . S
C890 H875 0.930 . S
C890 C885 1.390 . S
C890 C889 1.387 . S
H891 C903 0.930 1_545 S
H892 C905 0.930 . S
H893 C906 0.930 . S
H894 C910 0.959 1_565 S
H895 C910 0.959 . S
H896 C910 0.961 . S
H897 C911 0.960 . S
H898 C911 0.961 . S
H899 C911 0.959 . S
H900 C914 0.929 . S
H901 C915 0.931 . S
H902 C917 0.930 . S
C903 H891 0.930 1_565 S
C903 C904 1.399 . S
C903 C908 1.399 . S
C904 C903 1.399 . S
C904 C905 1.376 . S
C905 H892 0.930 . S
C905 C904 1.376 . S
C905 C906 1.388 . S
C906 H893 0.930 . S
C906 C905 1.388 . S
C906 C907 1.390 . S
C907 C906 1.390 . S
C907 C908 1.394 . S
C907 C913 1.465 . S
C908 C903 1.399 . S
C908 C907 1.394 . S
C908 C909 1.509 1_565 S
C909 C908 1.509 1_545 S
C909 C910 1.514 . S
C909 C911 1.572 . S
C909 C912 1.508 1_545 S
C910 H894 0.959 1_545 S
C910 H895 0.959 . S
C910 H896 0.961 . S
C910 C909 1.514 . S
C911 H897 0.960 . S
C911 H898 0.961 . S
C911 H899 0.959 . S
C911 C909 1.572 . S
C912 C909 1.508 1_565 S
C912 C913 1.396 . S
C912 C917 1.390 . S
C913 C907 1.465 . S
C913 C912 1.396 . S
C913 C914 1.399 . S
C914 H900 0.929 . S
C914 C913 1.399 . S
C914 C915 1.385 . S
C915 H901 0.931 . S
C915 C914 1.385 . S
C915 C916 1.389 . S
C916 C915 1.389 . S
C916 C917 1.387 . S
C917 H902 0.930 . S
C917 C912 1.390 . S
C917 C916 1.387 . S
H918 C930 0.930 . S
H919 C932 0.930 . S
H920 C933 0.930 . S
H921 C937 0.959 . S
H922 C937 0.959 . S
H923 C937 0.961 . S
H924 C938 0.960 . S
H925 C938 0.961 . S
H926 C938 0.959 . S
H927 C941 0.929 . S
H928 C942 0.931 . S
H929 C944 0.930 . S
C930 H918 0.930 . S
C930 C931 1.399 . S
C930 C935 1.399 . S
C931 C930 1.399 . S
C931 C932 1.376 . S
C932 H919 0.930 . S
C932 C931 1.376 . S
C932 C933 1.388 . S
C933 H920 0.930 . S
C933 C932 1.388 . S
C933 C934 1.390 . S
C934 C933 1.390 . S
C934 C935 1.394 . S
C934 C940 1.465 . S
C935 C930 1.399 . S
C935 C934 1.394 . S
C935 C936 1.516 . S
C936 C935 1.516 . S
C936 C937 1.502 . S
C936 C938 1.561 . S
C936 C939 1.526 . S
C937 H921 0.959 . S
C937 H922 0.959 . S
C937 H923 0.961 . S
C937 C936 1.502 . S
C938 H924 0.960 . S
C938 H925 0.961 . S
C938 H926 0.959 . S
C938 C936 1.561 . S
C939 C936 1.526 . S
C939 C940 1.396 . S
C939 C944 1.390 . S
C940 C934 1.465 . S
C940 C939 1.396 . S
C940 C941 1.399 . S
C941 H927 0.929 . S
C941 C940 1.399 . S
C941 C942 1.385 . S
C942 H928 0.931 . S
C942 C941 1.385 . S
C942 C943 1.389 . S
C943 C942 1.389 . S
C943 C944 1.387 . S
C944 H929 0.930 . S
C944 C939 1.390 . S
C944 C943 1.387 . S
H945 C957 0.930 . S
H946 C959 0.930 . S
H947 C960 0.930 . S
H948 C964 0.959 . S
H949 C964 0.959 . S
H950 C964 0.961 . S
H951 C965 0.960 . S
H952 C965 0.961 . S
H953 C965 0.959 . S
H954 C968 0.929 . S
H955 C969 0.931 . S
H956 C971 0.930 . S
C957 H945 0.930 . S
C957 C958 1.399 . S
C957 C962 1.399 . S
C958 C957 1.399 . S
C958 C959 1.376 . S
C959 H946 0.930 . S
C959 C958 1.376 . S
C959 C960 1.388 . S
C960 H947 0.930 . S
C960 C959 1.388 . S
C960 C961 1.390 . S
C961 C960 1.390 . S
C961 C962 1.394 . S
C961 C967 1.465 . S
C962 C957 1.399 . S
C962 C961 1.394 . S
C962 C963 1.516 . S
C963 C962 1.516 . S
C963 C964 1.502 . S
C963 C965 1.561 . S
C963 C966 1.526 . S
C964 H948 0.959 . S
C964 H949 0.959 . S
C964 H950 0.961 . S
C964 C963 1.502 . S
C965 H951 0.960 . S
C965 H952 0.961 . S
C965 H953 0.959 . S
C965 C963 1.561 . S
C966 C963 1.526 . S
C966 C967 1.396 . S
C966 C971 1.390 . S
C967 C961 1.465 . S
C967 C966 1.396 . S
C967 C968 1.399 . S
C968 H954 0.929 . S
C968 C967 1.399 . S
C968 C969 1.385 . S
C969 H955 0.931 . S
C969 C968 1.385 . S
C969 C970 1.389 . S
C970 C969 1.389 . S
C970 C971 1.387 . S
C971 H956 0.930 . S
C971 C966 1.390 . S
C971 C970 1.387 . S
H972 C984 0.930 . S
H973 C986 0.930 . S
H974 C987 0.930 . S
H975 C991 0.959 . S
H976 C991 0.959 . S
H977 C991 0.961 . S
H978 C992 0.960 . S
H979 C992 0.961 . S
H980 C992 0.959 . S
H981 C995 0.929 . S
H982 C996 0.931 . S
H983 C998 0.930 . S
C984 H972 0.930 . S
C984 C985 1.399 . S
C984 C989 1.399 . S
C985 C984 1.399 . S
C985 C986 1.376 . S
C986 H973 0.930 . S
C986 C985 1.376 . S
C986 C987 1.388 . S
C987 H974 0.930 . S
C987 C986 1.388 . S
C987 C988 1.390 . S
C988 C987 1.390 . S
C988 C989 1.394 . S
C988 C994 1.465 . S
C989 C984 1.399 . S
C989 C988 1.394 . S
C989 C990 1.516 . S
C990 C989 1.516 . S
C990 C991 1.502 . S
C990 C992 1.561 . S
C990 C993 1.526 . S
C991 H975 0.959 . S
C991 H976 0.959 . S
C991 H977 0.961 . S
C991 C990 1.502 . S
C992 H978 0.960 . S
C992 H979 0.961 . S
C992 H980 0.959 . S
C992 C990 1.561 . S
C993 C990 1.526 . S
C993 C994 1.396 . S
C993 C998 1.390 . S
C994 C988 1.465 . S
C994 C993 1.396 . S
C994 C995 1.399 . S
C995 H981 0.929 . S
C995 C994 1.399 . S
C995 C996 1.385 . S
C996 H982 0.931 . S
C996 C995 1.385 . S
C996 C997 1.389 . S
C997 C996 1.389 . S
C997 C998 1.387 . S
C998 H983 0.930 . S
C998 C993 1.390 . S
C998 C997 1.387 . S
H999 C1011 0.930 . S
H1000 C1013 0.930 . S
H1001 C1014 0.930 1_565 S
H1002 C1018 0.959 . S
H1003 C1018 0.959 . S
H1004 C1018 0.961 . S
H1005 C1019 0.960 . S
H1006 C1019 0.961 . S
H1007 C1019 0.959 . S
H1008 C1022 0.929 . S
H1009 C1023 0.931 . S
H1010 C1025 0.929 1_545 S
C1011 H999 0.930 . S
C1011 C1012 1.399 . S
C1011 C1016 1.399 . S
C1012 C1011 1.399 . S
C1012 C1013 1.376 . S
C1013 H1000 0.930 . S
C1013 C1012 1.376 . S
C1013 C1014 1.388 . S
C1014 H1001 0.930 1_545 S
C1014 C1013 1.388 . S
C1014 C1015 1.390 . S
C1015 C1014 1.390 . S
C1015 C1016 1.394 . S
C1015 C1021 1.465 1_545 S
C1016 C1011 1.399 . S
C1016 C1015 1.394 . S
C1016 C1017 1.516 . S
C1017 C1016 1.516 . S
C1017 C1018 1.502 . S
C1017 C1019 1.561 . S
C1017 C1020 1.526 . S
C1018 H1002 0.959 . S
C1018 H1003 0.959 . S
C1018 H1004 0.961 . S
C1018 C1017 1.502 . S
C1019 H1005 0.960 . S
C1019 H1006 0.961 . S
C1019 H1007 0.959 . S
C1019 C1017 1.561 . S
C1020 C1017 1.526 . S
C1020 C1021 1.396 1_545 S
C1020 C1025 1.388 1_545 S
C1021 C1015 1.465 1_565 S
C1021 C1020 1.396 1_565 S
C1021 C1022 1.399 . S
C1022 H1008 0.929 . S
C1022 C1021 1.399 . S
C1022 C1023 1.385 . S
C1023 H1009 0.931 . S
C1023 C1022 1.385 . S
C1023 C1024 1.389 . S
C1024 C1023 1.389 . S
C1024 C1025 1.389 . S
C1025 H1010 0.929 1_565 S
C1025 C1020 1.388 1_565 S
C1025 C1024 1.389 . S
H1026 C1038 0.930 . S
H1027 C1040 0.930 . S
H1028 C1041 0.930 . S
H1029 C1045 0.959 1_655 S
H1030 C1045 0.959 1_655 S
H1031 C1045 0.961 . S
H1032 C1046 0.960 . S
H1033 C1046 0.961 . S
H1034 C1046 0.959 . S
H1035 C1049 0.929 . S
H1036 C1050 0.931 . S
H1037 C1052 0.930 . S
C1038 H1026 0.930 . S
C1038 C1039 1.399 . S
C1038 C1043 1.399 . S
C1039 C1038 1.399 . S
C1039 C1040 1.376 . S
C1040 H1027 0.930 . S
C1040 C1039 1.376 . S
C1040 C1041 1.388 . S
C1041 H1028 0.930 . S
C1041 C1040 1.388 . S
C1041 C1042 1.390 . S
C1042 C1041 1.390 . S
C1042 C1043 1.394 . S
C1042 C1048 1.465 . S
C1043 C1038 1.399 . S
C1043 C1042 1.394 . S
C1043 C1044 1.516 . S
C1044 C1043 1.516 . S
C1044 C1045 1.502 . S
C1044 C1046 1.561 . S
C1044 C1047 1.526 . S
C1045 H1029 0.959 1_455 S
C1045 H1030 0.959 1_455 S
C1045 H1031 0.961 . S
C1045 C1044 1.502 . S
C1046 H1032 0.960 . S
C1046 H1033 0.961 . S
C1046 H1034 0.959 . S
C1046 C1044 1.561 . S
C1047 C1044 1.526 . S
C1047 C1048 1.396 . S
C1047 C1052 1.390 1_455 S
C1048 C1042 1.465 . S
C1048 C1047 1.396 . S
C1048 C1049 1.399 1_455 S
C1049 H1035 0.929 . S
C1049 C1048 1.399 1_655 S
C1049 C1050 1.385 . S
C1050 H1036 0.931 . S
C1050 C1049 1.385 . S
C1050 C1051 1.389 . S
C1051 C1050 1.389 . S
C1051 C1052 1.387 . S
C1052 H1037 0.930 . S
C1052 C1047 1.390 1_655 S
C1052 C1051 1.387 . S
H1053 C1065 0.930 . S
H1054 C1067 0.930 . S
H1055 C1068 0.930 . S
H1056 C1072 0.959 . S
H1057 C1072 0.959 . S
H1058 C1072 0.961 . S
H1059 C1073 0.960 . S
H1060 C1073 0.961 . S
H1061 C1073 0.959 . S
H1062 C1076 0.929 . S
H1063 C1077 0.931 . S
H1064 C1079 0.930 . S
C1065 H1053 0.930 . S
C1065 C1066 1.399 . S
C1065 C1070 1.399 . S
C1066 C1065 1.399 . S
C1066 C1067 1.376 . S
C1067 H1054 0.930 . S
C1067 C1066 1.376 . S
C1067 C1068 1.388 . S
C1068 H1055 0.930 . S
C1068 C1067 1.388 . S
C1068 C1069 1.390 . S
C1069 C1068 1.390 . S
C1069 C1070 1.394 . S
C1069 C1075 1.465 . S
C1070 C1065 1.399 . S
C1070 C1069 1.394 . S
C1070 C1071 1.516 . S
C1071 C1070 1.516 . S
C1071 C1072 1.502 . S
C1071 C1073 1.561 . S
C1071 C1074 1.526 . S
C1072 H1056 0.959 . S
C1072 H1057 0.959 . S
C1072 H1058 0.961 . S
C1072 C1071 1.502 . S
C1073 H1059 0.960 . S
C1073 H1060 0.961 . S
C1073 H1061 0.959 . S
C1073 C1071 1.561 . S
C1074 C1071 1.526 . S
C1074 C1075 1.396 . S
C1074 C1079 1.390 . S
C1075 C1069 1.465 . S
C1075 C1074 1.396 . S
C1075 C1076 1.399 . S
C1076 H1062 0.929 . S
C1076 C1075 1.399 . S
C1076 C1077 1.385 . S
C1077 H1063 0.931 . S
C1077 C1076 1.385 . S
C1077 C1078 1.389 . S
C1078 C1077 1.389 . S
C1078 C1079 1.387 . S
C1079 H1064 0.930 . S
C1079 C1074 1.390 . S
C1079 C1078 1.387 . S
H1080 C1092 0.930 . S
H1081 C1094 0.930 . S
H1082 C1095 0.930 . S
H1083 C1099 0.959 . S
H1084 C1099 0.959 . S
H1085 C1099 0.961 . S
H1086 C1100 0.960 . S
H1087 C1100 0.961 . S
H1088 C1100 0.959 . S
H1089 C1103 0.929 . S
H1090 C1104 0.931 . S
H1091 C1106 0.930 . S
C1092 H1080 0.930 . S
C1092 C1093 1.399 . S
C1092 C1097 1.399 . S
C1093 C1092 1.399 . S
C1093 C1094 1.376 . S
C1094 H1081 0.930 . S
C1094 C1093 1.376 . S
C1094 C1095 1.388 . S
C1095 H1082 0.930 . S
C1095 C1094 1.388 . S
C1095 C1096 1.390 . S
C1096 C1095 1.390 . S
C1096 C1097 1.394 . S
C1096 C1102 1.465 . S
C1097 C1092 1.399 . S
C1097 C1096 1.394 . S
C1097 C1098 1.516 1_545 S
C1098 C1097 1.516 1_565 S
C1098 C1099 1.502 . S
C1098 C1100 1.561 . S
C1098 C1101 1.526 . S
C1099 H1083 0.959 . S
C1099 H1084 0.959 . S
C1099 H1085 0.961 . S
C1099 C1098 1.502 . S
C1100 H1086 0.960 . S
C1100 H1087 0.961 . S
C1100 H1088 0.959 . S
C1100 C1098 1.561 . S
C1101 C1098 1.526 . S
C1101 C1102 1.396 1_565 S
C1101 C1106 1.390 . S
C1102 C1096 1.465 . S
C1102 C1101 1.396 1_545 S
C1102 C1103 1.399 . S
C1103 H1089 0.929 . S
C1103 C1102 1.399 . S
C1103 C1104 1.385 . S
C1104 H1090 0.931 . S
C1104 C1103 1.385 . S
C1104 C1105 1.389 1_545 S
C1105 C1104 1.389 1_565 S
C1105 C1106 1.387 . S
C1106 H1091 0.930 . S
C1106 C1101 1.390 . S
C1106 C1105 1.387 . S
H1107 C1119 0.930 . S
H1108 C1121 0.930 . S
H1109 C1122 0.930 . S
H1110 C1126 0.959 . S
H1111 C1126 0.959 . S
H1112 C1126 0.961 . S
H1113 C1127 0.960 . S
H1114 C1127 0.961 . S
H1115 C1127 0.959 . S
H1116 C1130 0.929 . S
H1117 C1131 0.931 . S
H1118 C1133 0.930 . S
C1119 H1107 0.930 . S
C1119 C1120 1.399 . S
C1119 C1124 1.399 . S
C1120 C1119 1.399 . S
C1120 C1121 1.376 . S
C1121 H1108 0.930 . S
C1121 C1120 1.376 . S
C1121 C1122 1.388 . S
C1122 H1109 0.930 . S
C1122 C1121 1.388 . S
C1122 C1123 1.390 . S
C1123 C1122 1.390 . S
C1123 C1124 1.394 . S
C1123 C1129 1.465 . S
C1124 C1119 1.399 . S
C1124 C1123 1.394 . S
C1124 C1125 1.516 . S
C1125 C1124 1.516 . S
C1125 C1126 1.502 . S
C1125 C1127 1.561 1_455 S
C1125 C1128 1.526 1_455 S
C1126 H1110 0.959 . S
C1126 H1111 0.959 . S
C1126 H1112 0.961 . S
C1126 C1125 1.502 . S
C1127 H1113 0.960 . S
C1127 H1114 0.961 . S
C1127 H1115 0.959 . S
C1127 C1125 1.561 1_655 S
C1128 C1125 1.526 1_655 S
C1128 C1129 1.396 1_655 S
C1128 C1133 1.390 . S
C1129 C1123 1.465 . S
C1129 C1128 1.396 1_455 S
C1129 C1130 1.399 1_455 S
C1130 H1116 0.929 . S
C1130 C1129 1.399 1_655 S
C1130 C1131 1.385 . S
C1131 H1117 0.931 . S
C1131 C1130 1.385 . S
C1131 C1132 1.389 . S
C1132 C1131 1.389 . S
C1132 C1133 1.387 . S
C1133 H1118 0.930 . S
C1133 C1128 1.390 . S
C1133 C1132 1.387 . S
H1134 C1146 0.930 . S
H1135 C1148 0.930 . S
H1136 C1149 0.930 . S
H1137 C1153 0.959 . S
H1138 C1153 0.959 . S
H1139 C1153 0.961 . S
H1140 C1154 0.960 . S
H1141 C1154 0.961 . S
H1142 C1154 0.959 . S
H1143 C1157 0.929 . S
H1144 C1158 0.931 . S
H1145 C1160 0.930 . S
C1146 H1134 0.930 . S
C1146 C1147 1.399 . S
C1146 C1151 1.399 . S
C1147 C1146 1.399 . S
C1147 C1148 1.376 . S
C1148 H1135 0.930 . S
C1148 C1147 1.376 . S
C1148 C1149 1.388 . S
C1149 H1136 0.930 . S
C1149 C1148 1.388 . S
C1149 C1150 1.390 . S
C1150 C1149 1.390 . S
C1150 C1151 1.394 . S
C1150 C1156 1.465 . S
C1151 C1146 1.399 . S
C1151 C1150 1.394 . S
C1151 C1152 1.516 . S
C1152 C1151 1.516 . S
C1152 C1153 1.502 . S
C1152 C1154 1.561 . S
C1152 C1155 1.526 . S
C1153 H1137 0.959 . S
C1153 H1138 0.959 . S
C1153 H1139 0.961 . S
C1153 C1152 1.502 . S
C1154 H1140 0.960 . S
C1154 H1141 0.961 . S
C1154 H1142 0.959 . S
C1154 C1152 1.561 . S
C1155 C1152 1.526 . S
C1155 C1156 1.396 . S
C1155 C1160 1.390 . S
C1156 C1150 1.465 . S
C1156 C1155 1.396 . S
C1156 C1157 1.399 . S
C1157 H1143 0.929 . S
C1157 C1156 1.399 . S
C1157 C1158 1.385 . S
C1158 H1144 0.931 . S
C1158 C1157 1.385 . S
C1158 C1159 1.389 . S
C1159 C1158 1.389 . S
C1159 C1160 1.387 . S
C1160 H1145 0.930 . S
C1160 C1155 1.390 . S
C1160 C1159 1.387 . S
H1161 C1173 0.930 . S
H1162 C1175 0.930 . S
H1163 C1176 0.930 . S
H1164 C1180 0.959 . S
H1165 C1180 0.959 . S
H1166 C1180 0.961 . S
H1167 C1181 0.960 . S
H1168 C1181 0.961 . S
H1169 C1181 0.959 . S
H1170 C1184 0.929 . S
H1171 C1185 0.931 . S
H1172 C1187 0.930 . S
C1173 H1161 0.930 . S
C1173 C1174 1.399 . S
C1173 C1178 1.399 . S
C1174 C1173 1.399 . S
C1174 C1175 1.376 . S
C1175 H1162 0.930 . S
C1175 C1174 1.376 . S
C1175 C1176 1.388 . S
C1176 H1163 0.930 . S
C1176 C1175 1.388 . S
C1176 C1177 1.390 . S
C1177 C1176 1.390 . S
C1177 C1178 1.394 . S
C1177 C1183 1.465 . S
C1178 C1173 1.399 . S
C1178 C1177 1.394 . S
C1178 C1179 1.516 . S
C1179 C1178 1.516 . S
C1179 C1180 1.502 . S
C1179 C1181 1.561 . S
C1179 C1182 1.526 . S
C1180 H1164 0.959 . S
C1180 H1165 0.959 . S
C1180 H1166 0.961 . S
C1180 C1179 1.502 . S
C1181 H1167 0.960 . S
C1181 H1168 0.961 . S
C1181 H1169 0.959 . S
C1181 C1179 1.561 . S
C1182 C1179 1.526 . S
C1182 C1183 1.396 . S
C1182 C1187 1.390 . S
C1183 C1177 1.465 . S
C1183 C1182 1.396 . S
C1183 C1184 1.399 . S
C1184 H1170 0.929 . S
C1184 C1183 1.399 . S
C1184 C1185 1.385 . S
C1185 H1171 0.931 . S
C1185 C1184 1.385 . S
C1185 C1186 1.389 . S
C1186 C1185 1.389 . S
C1186 C1187 1.387 . S
C1187 H1172 0.930 . S
C1187 C1182 1.390 . S
C1187 C1186 1.387 . S
H1188 C1200 0.930 . S
H1189 C1202 0.930 . S
H1190 C1203 0.930 . S
H1191 C1207 0.959 . S
H1192 C1207 0.959 . S
H1193 C1207 0.961 . S
H1194 C1208 0.960 . S
H1195 C1208 0.961 . S
H1196 C1208 0.959 . S
H1197 C1211 0.929 . S
H1198 C1212 0.931 . S
H1199 C1214 0.930 . S
C1200 H1188 0.930 . S
C1200 C1201 1.399 . S
C1200 C1205 1.399 . S
C1201 C1200 1.399 . S
C1201 C1202 1.376 . S
C1202 H1189 0.930 . S
C1202 C1201 1.376 . S
C1202 C1203 1.388 . S
C1203 H1190 0.930 . S
C1203 C1202 1.388 . S
C1203 C1204 1.390 . S
C1204 C1203 1.390 . S
C1204 C1205 1.394 . S
C1204 C1210 1.465 . S
C1205 C1200 1.399 . S
C1205 C1204 1.394 . S
C1205 C1206 1.516 . S
C1206 C1205 1.516 . S
C1206 C1207 1.502 . S
C1206 C1208 1.561 . S
C1206 C1209 1.526 . S
C1207 H1191 0.959 . S
C1207 H1192 0.959 . S
C1207 H1193 0.961 . S
C1207 C1206 1.502 . S
C1208 H1194 0.960 . S
C1208 H1195 0.961 . S
C1208 H1196 0.959 . S
C1208 C1206 1.561 . S
C1209 C1206 1.526 . S
C1209 C1210 1.396 . S
C1209 C1214 1.390 . S
C1210 C1204 1.465 . S
C1210 C1209 1.396 . S
C1210 C1211 1.399 . S
C1211 H1197 0.929 . S
C1211 C1210 1.399 . S
C1211 C1212 1.385 . S
C1212 H1198 0.931 . S
C1212 C1211 1.385 . S
C1212 C1213 1.389 . S
C1213 C1212 1.389 . S
C1213 C1214 1.387 . S
C1214 H1199 0.930 . S
C1214 C1209 1.390 . S
C1214 C1213 1.387 . S
H1215 C1227 0.930 . S
H1216 C1229 0.930 . S
H1217 C1230 0.930 . S
H1218 C1234 0.959 . S
H1219 C1234 0.959 . S
H1220 C1234 0.961 . S
H1221 C1235 0.960 . S
H1222 C1235 0.961 . S
H1223 C1235 0.959 . S
H1224 C1238 0.929 . S
H1225 C1239 0.931 . S
H1226 C1241 0.930 . S
C1227 H1215 0.930 . S
C1227 C1228 1.399 . S
C1227 C1232 1.399 . S
C1228 C1227 1.399 . S
C1228 C1229 1.376 . S
C1229 H1216 0.930 . S
C1229 C1228 1.376 . S
C1229 C1230 1.388 . S
C1230 H1217 0.930 . S
C1230 C1229 1.388 . S
C1230 C1231 1.390 . S
C1231 C1230 1.390 . S
C1231 C1232 1.394 . S
C1231 C1237 1.465 . S
C1232 C1227 1.399 . S
C1232 C1231 1.394 . S
C1232 C1233 1.516 . S
C1233 C1232 1.516 . S
C1233 C1234 1.502 . S
C1233 C1235 1.561 . S
C1233 C1236 1.526 . S
C1234 H1218 0.959 . S
C1234 H1219 0.959 . S
C1234 H1220 0.961 . S
C1234 C1233 1.502 . S
C1235 H1221 0.960 . S
C1235 H1222 0.961 . S
C1235 H1223 0.959 . S
C1235 C1233 1.561 . S
C1236 C1233 1.526 . S
C1236 C1237 1.396 . S
C1236 C1241 1.390 . S
C1237 C1231 1.465 . S
C1237 C1236 1.396 . S
C1237 C1238 1.399 . S
C1238 H1224 0.929 . S
C1238 C1237 1.399 . S
C1238 C1239 1.385 . S
C1239 H1225 0.931 . S
C1239 C1238 1.385 . S
C1239 C1240 1.389 . S
C1240 C1239 1.389 . S
C1240 C1241 1.387 . S
C1241 H1226 0.930 . S
C1241 C1236 1.390 . S
C1241 C1240 1.387 . S
H1242 C1254 0.930 . S
H1243 C1256 0.930 . S
H1244 C1257 0.930 . S
H1245 C1261 0.959 . S
H1246 C1261 0.959 . S
H1247 C1261 0.961 . S
H1248 C1262 0.960 . S
H1249 C1262 0.961 . S
H1250 C1262 0.959 . S
H1251 C1265 0.929 . S
H1252 C1266 0.931 . S
H1253 C1268 0.930 . S
C1254 H1242 0.930 . S
C1254 C1255 1.399 . S
C1254 C1259 1.399 . S
C1255 C1254 1.399 . S
C1255 C1256 1.376 . S
C1256 H1243 0.930 . S
C1256 C1255 1.376 . S
C1256 C1257 1.388 . S
C1257 H1244 0.930 . S
C1257 C1256 1.388 . S
C1257 C1258 1.390 . S
C1258 C1257 1.390 . S
C1258 C1259 1.394 . S
C1258 C1264 1.465 . S
C1259 C1254 1.399 . S
C1259 C1258 1.394 . S
C1259 C1260 1.516 . S
C1260 C1259 1.516 . S
C1260 C1261 1.502 . S
C1260 C1262 1.561 . S
C1260 C1263 1.526 . S
C1261 H1245 0.959 . S
C1261 H1246 0.959 . S
C1261 H1247 0.961 . S
C1261 C1260 1.502 . S
C1262 H1248 0.960 . S
C1262 H1249 0.961 . S
C1262 H1250 0.959 . S
C1262 C1260 1.561 . S
C1263 C1260 1.526 . S
C1263 C1264 1.396 . S
C1263 C1268 1.390 . S
C1264 C1258 1.465 . S
C1264 C1263 1.396 . S
C1264 C1265 1.399 . S
C1265 H1251 0.929 . S
C1265 C1264 1.399 . S
C1265 C1266 1.385 . S
C1266 H1252 0.931 . S
C1266 C1265 1.385 . S
C1266 C1267 1.389 . S
C1267 C1266 1.389 . S
C1267 C1268 1.387 . S
C1268 H1253 0.930 . S
C1268 C1263 1.390 . S
C1268 C1267 1.387 . S
H1269 C1281 0.930 . S
H1270 C1283 0.930 . S
H1271 C1284 0.930 . S
H1272 C1288 0.959 . S
H1273 C1288 0.959 . S
H1274 C1288 0.961 . S
H1275 C1289 0.960 . S
H1276 C1289 0.961 . S
H1277 C1289 0.959 . S
H1278 C1292 0.929 . S
H1279 C1293 0.931 . S
H1280 C1295 0.930 . S
C1281 H1269 0.930 . S
C1281 C1282 1.399 . S
C1281 C1286 1.399 . S
C1282 C1281 1.399 . S
C1282 C1283 1.376 . S
C1283 H1270 0.930 . S
C1283 C1282 1.376 . S
C1283 C1284 1.388 . S
C1284 H1271 0.930 . S
C1284 C1283 1.388 . S
C1284 C1285 1.390 . S
C1285 C1284 1.390 . S
C1285 C1286 1.394 . S
C1285 C1291 1.465 . S
C1286 C1281 1.399 . S
C1286 C1285 1.394 . S
C1286 C1287 1.516 . S
C1287 C1286 1.516 . S
C1287 C1288 1.502 . S
C1287 C1289 1.561 . S
C1287 C1290 1.526 . S
C1288 H1272 0.959 . S
C1288 H1273 0.959 . S
C1288 H1274 0.961 . S
C1288 C1287 1.502 . S
C1289 H1275 0.960 . S
C1289 H1276 0.961 . S
C1289 H1277 0.959 . S
C1289 C1287 1.561 . S
C1290 C1287 1.526 . S
C1290 C1291 1.396 . S
C1290 C1295 1.390 . S
C1291 C1285 1.465 . S
C1291 C1290 1.396 . S
C1291 C1292 1.399 . S
C1292 H1278 0.929 . S
C1292 C1291 1.399 . S
C1292 C1293 1.385 . S
C1293 H1279 0.931 . S
C1293 C1292 1.385 . S
C1293 C1294 1.389 . S
C1294 C1293 1.389 . S
C1294 C1295 1.387 . S
C1295 H1280 0.930 . S
C1295 C1290 1.390 . S
C1295 C1294 1.387 . S
H1296 C1308 0.930 . S
H1297 C1310 0.930 . S
H1298 C1311 0.930 . S
H1299 C1315 0.959 . S
H1300 C1315 0.959 . S
H1301 C1315 0.961 . S
H1302 C1316 0.960 . S
H1303 C1316 0.961 . S
H1304 C1316 0.959 . S
H1305 C1319 0.929 . S
H1306 C1320 0.931 . S
H1307 C1322 0.930 . S
C1308 H1296 0.930 . S
C1308 C1309 1.399 . S
C1308 C1313 1.399 . S
C1309 C1308 1.399 . S
C1309 C1310 1.376 . S
C1310 H1297 0.930 . S
C1310 C1309 1.376 . S
C1310 C1311 1.388 . S
C1311 H1298 0.930 . S
C1311 C1310 1.388 . S
C1311 C1312 1.390 . S
C1312 C1311 1.390 . S
C1312 C1313 1.394 . S
C1312 C1318 1.465 . S
C1313 C1308 1.399 . S
C1313 C1312 1.394 . S
C1313 C1314 1.516 . S
C1314 C1313 1.516 . S
C1314 C1315 1.502 . S
C1314 C1316 1.561 . S
C1314 C1317 1.526 . S
C1315 H1299 0.959 . S
C1315 H1300 0.959 . S
C1315 H1301 0.961 . S
C1315 C1314 1.502 . S
C1316 H1302 0.960 . S
C1316 H1303 0.961 . S
C1316 H1304 0.959 . S
C1316 C1314 1.561 . S
C1317 C1314 1.526 . S
C1317 C1318 1.396 . S
C1317 C1322 1.390 . S
C1318 C1312 1.465 . S
C1318 C1317 1.396 . S
C1318 C1319 1.399 . S
C1319 H1305 0.929 . S
C1319 C1318 1.399 . S
C1319 C1320 1.385 . S
C1320 H1306 0.931 . S
C1320 C1319 1.385 . S
C1320 C1321 1.389 . S
C1321 C1320 1.389 . S
C1321 C1322 1.387 . S
C1322 H1307 0.930 . S
C1322 C1317 1.390 . S
C1322 C1321 1.387 . S
H1323 C1335 0.930 . S
H1324 C1337 0.930 . S
H1325 C1338 0.930 . S
H1326 C1342 0.959 . S
H1327 C1342 0.959 . S
H1328 C1342 0.961 . S
H1329 C1343 0.960 . S
H1330 C1343 0.961 . S
H1331 C1343 0.959 . S
H1332 C1346 0.929 . S
H1333 C1347 0.931 . S
H1334 C1349 0.930 . S
C1335 H1323 0.930 . S
C1335 C1336 1.399 . S
C1335 C1340 1.399 . S
C1336 C1335 1.399 . S
C1336 C1337 1.376 . S
C1337 H1324 0.930 . S
C1337 C1336 1.376 . S
C1337 C1338 1.388 . S
C1338 H1325 0.930 . S
C1338 C1337 1.388 . S
C1338 C1339 1.390 . S
C1339 C1338 1.390 . S
C1339 C1340 1.394 . S
C1339 C1345 1.465 . S
C1340 C1335 1.399 . S
C1340 C1339 1.394 . S
C1340 C1341 1.516 . S
C1341 C1340 1.516 . S
C1341 C1342 1.502 . S
C1341 C1343 1.561 . S
C1341 C1344 1.526 . S
C1342 H1326 0.959 . S
C1342 H1327 0.959 . S
C1342 H1328 0.961 . S
C1342 C1341 1.502 . S
C1343 H1329 0.960 . S
C1343 H1330 0.961 . S
C1343 H1331 0.959 . S
C1343 C1341 1.561 . S
C1344 C1341 1.526 . S
C1344 C1345 1.396 . S
C1344 C1349 1.390 . S
C1345 C1339 1.465 . S
C1345 C1344 1.396 . S
C1345 C1346 1.399 . S
C1346 H1332 0.929 . S
C1346 C1345 1.399 . S
C1346 C1347 1.385 . S
C1347 H1333 0.931 . S
C1347 C1346 1.385 . S
C1347 C1348 1.389 . S
C1348 C1347 1.389 . S
C1348 C1349 1.387 . S
C1349 H1334 0.930 . S
C1349 C1344 1.390 . S
C1349 C1348 1.387 . S
H1350 C1362 0.930 . S
H1351 C1364 0.930 . S
H1352 C1365 0.930 . S
H1353 C1369 0.959 . S
H1354 C1369 0.959 . S
H1355 C1369 0.961 . S
H1356 C1370 0.960 . S
H1357 C1370 0.961 . S
H1358 C1370 0.959 . S
H1359 C1373 0.929 . S
H1360 C1374 0.931 . S
H1361 C1376 0.930 . S
C1362 H1350 0.930 . S
C1362 C1363 1.399 . S
C1362 C1367 1.399 . S
C1363 C1362 1.399 . S
C1363 C1364 1.376 . S
C1364 H1351 0.930 . S
C1364 C1363 1.376 . S
C1364 C1365 1.388 . S
C1365 H1352 0.930 . S
C1365 C1364 1.388 . S
C1365 C1366 1.390 . S
C1366 C1365 1.390 . S
C1366 C1367 1.394 . S
C1366 C1372 1.465 . S
C1367 C1362 1.399 . S
C1367 C1366 1.394 . S
C1367 C1368 1.516 . S
C1368 C1367 1.516 . S
C1368 C1369 1.502 . S
C1368 C1370 1.561 . S
C1368 C1371 1.526 . S
C1369 H1353 0.959 . S
C1369 H1354 0.959 . S
C1369 H1355 0.961 . S
C1369 C1368 1.502 . S
C1370 H1356 0.960 . S
C1370 H1357 0.961 . S
C1370 H1358 0.959 . S
C1370 C1368 1.561 . S
C1371 C1368 1.526 . S
C1371 C1372 1.396 . S
C1371 C1376 1.390 . S
C1372 C1366 1.465 . S
C1372 C1371 1.396 . S
C1372 C1373 1.399 . S
C1373 H1359 0.929 . S
C1373 C1372 1.399 . S
C1373 C1374 1.385 . S
C1374 H1360 0.931 . S
C1374 C1373 1.385 . S
C1374 C1375 1.389 . S
C1375 C1374 1.389 . S
C1375 C1376 1.387 . S
C1376 H1361 0.930 . S
C1376 C1371 1.390 . S
C1376 C1375 1.387 . S
H1377 C1389 0.930 . S
H1378 C1391 0.930 . S
H1379 C1392 0.930 . S
H1380 C1396 0.959 . S
H1381 C1396 0.959 . S
H1382 C1396 0.961 . S
H1383 C1397 0.960 . S
H1384 C1397 0.961 . S
H1385 C1397 0.959 . S
H1386 C1400 0.929 . S
H1387 C1401 0.931 . S
H1388 C1403 0.930 . S
C1389 H1377 0.930 . S
C1389 C1390 1.399 . S
C1389 C1394 1.399 . S
C1390 C1389 1.399 . S
C1390 C1391 1.376 . S
C1391 H1378 0.930 . S
C1391 C1390 1.376 . S
C1391 C1392 1.388 . S
C1392 H1379 0.930 . S
C1392 C1391 1.388 . S
C1392 C1393 1.390 . S
C1393 C1392 1.390 . S
C1393 C1394 1.394 . S
C1393 C1399 1.465 . S
C1394 C1389 1.399 . S
C1394 C1393 1.394 . S
C1394 C1395 1.516 . S
C1395 C1394 1.516 . S
C1395 C1396 1.502 . S
C1395 C1397 1.561 . S
C1395 C1398 1.526 . S
C1396 H1380 0.959 . S
C1396 H1381 0.959 . S
C1396 H1382 0.961 . S
C1396 C1395 1.502 . S
C1397 H1383 0.960 . S
C1397 H1384 0.961 . S
C1397 H1385 0.959 . S
C1397 C1395 1.561 . S
C1398 C1395 1.526 . S
C1398 C1399 1.396 . S
C1398 C1403 1.390 . S
C1399 C1393 1.465 . S
C1399 C1398 1.396 . S
C1399 C1400 1.399 . S
C1400 H1386 0.929 . S
C1400 C1399 1.399 . S
C1400 C1401 1.385 . S
C1401 H1387 0.931 . S
C1401 C1400 1.385 . S
C1401 C1402 1.389 . S
C1402 C1401 1.389 . S
C1402 C1403 1.387 . S
C1403 H1388 0.930 . S
C1403 C1398 1.390 . S
C1403 C1402 1.387 . S
H1404 C1416 0.930 . S
H1405 C1418 0.930 . S
H1406 C1419 0.930 . S
H1407 C1423 0.959 . S
H1408 C1423 0.959 . S
H1409 C1423 0.961 . S
H1410 C1424 0.960 . S
H1411 C1424 0.961 . S
H1412 C1424 0.959 . S
H1413 C1427 0.929 . S
H1414 C1428 0.931 . S
H1415 C1430 0.930 . S
C1416 H1404 0.930 . S
C1416 C1417 1.399 . S
C1416 C1421 1.399 . S
C1417 C1416 1.399 . S
C1417 C1418 1.376 . S
C1418 H1405 0.930 . S
C1418 C1417 1.376 . S
C1418 C1419 1.388 . S
C1419 H1406 0.930 . S
C1419 C1418 1.388 . S
C1419 C1420 1.390 . S
C1420 C1419 1.390 . S
C1420 C1421 1.394 . S
C1420 C1426 1.465 . S
C1421 C1416 1.399 . S
C1421 C1420 1.394 . S
C1421 C1422 1.516 . S
C1422 C1421 1.516 . S
C1422 C1423 1.502 . S
C1422 C1424 1.561 . S
C1422 C1425 1.526 . S
C1423 H1407 0.959 . S
C1423 H1408 0.959 . S
C1423 H1409 0.961 . S
C1423 C1422 1.502 . S
C1424 H1410 0.960 . S
C1424 H1411 0.961 . S
C1424 H1412 0.959 . S
C1424 C1422 1.561 . S
C1425 C1422 1.526 . S
C1425 C1426 1.396 . S
C1425 C1430 1.390 . S
C1426 C1420 1.465 . S
C1426 C1425 1.396 . S
C1426 C1427 1.399 . S
C1427 H1413 0.929 . S
C1427 C1426 1.399 . S
C1427 C1428 1.385 . S
C1428 H1414 0.931 . S
C1428 C1427 1.385 . S
C1428 C1429 1.389 . S
C1429 C1428 1.389 . S
C1429 C1430 1.387 . S
C1430 H1415 0.930 . S
C1430 C1425 1.390 . S
C1430 C1429 1.387 . S
H1431 C1443 0.930 . S
H1432 C1445 0.930 . S
H1433 C1446 0.930 . S
H1434 C1450 0.959 . S
H1435 C1450 0.959 . S
H1436 C1450 0.961 . S
H1437 C1451 0.960 . S
H1438 C1451 0.961 . S
H1439 C1451 0.959 . S
H1440 C1454 0.929 . S
H1441 C1455 0.931 . S
H1442 C1457 0.930 . S
C1443 H1431 0.930 . S
C1443 C1444 1.399 . S
C1443 C1448 1.399 . S
C1444 C1443 1.399 . S
C1444 C1445 1.376 . S
C1445 H1432 0.930 . S
C1445 C1444 1.376 . S
C1445 C1446 1.388 . S
C1446 H1433 0.930 . S
C1446 C1445 1.388 . S
C1446 C1447 1.390 . S
C1447 C1446 1.390 . S
C1447 C1448 1.394 . S
C1447 C1453 1.465 . S
C1448 C1443 1.399 . S
C1448 C1447 1.394 . S
C1448 C1449 1.516 . S
C1449 C1448 1.516 . S
C1449 C1450 1.502 . S
C1449 C1451 1.561 . S
C1449 C1452 1.526 . S
C1450 H1434 0.959 . S
C1450 H1435 0.959 . S
C1450 H1436 0.961 . S
C1450 C1449 1.502 . S
C1451 H1437 0.960 . S
C1451 H1438 0.961 . S
C1451 H1439 0.959 . S
C1451 C1449 1.561 . S
C1452 C1449 1.526 . S
C1452 C1453 1.396 . S
C1452 C1457 1.390 . S
C1453 C1447 1.465 . S
C1453 C1452 1.396 . S
C1453 C1454 1.399 . S
C1454 H1440 0.929 . S
C1454 C1453 1.399 . S
C1454 C1455 1.385 . S
C1455 H1441 0.931 . S
C1455 C1454 1.385 . S
C1455 C1456 1.389 . S
C1456 C1455 1.389 . S
C1456 C1457 1.387 . S
C1457 H1442 0.930 . S
C1457 C1452 1.390 . S
C1457 C1456 1.387 . S
H1458 C1470 0.930 . S
H1459 C1472 0.930 . S
H1460 C1473 0.930 . S
H1461 C1477 0.959 . S
H1462 C1477 0.959 . S
H1463 C1477 0.961 . S
H1464 C1478 0.960 . S
H1465 C1478 0.961 . S
H1466 C1478 0.959 . S
H1467 C1481 0.929 . S
H1468 C1482 0.931 . S
H1469 C1484 0.930 . S
C1470 H1458 0.930 . S
C1470 C1471 1.399 . S
C1470 C1475 1.399 . S
C1471 C1470 1.399 . S
C1471 C1472 1.376 . S
C1472 H1459 0.930 . S
C1472 C1471 1.376 . S
C1472 C1473 1.388 . S
C1473 H1460 0.930 . S
C1473 C1472 1.388 . S
C1473 C1474 1.390 . S
C1474 C1473 1.390 . S
C1474 C1475 1.394 . S
C1474 C1480 1.465 . S
C1475 C1470 1.399 . S
C1475 C1474 1.394 . S
C1475 C1476 1.516 . S
C1476 C1475 1.516 . S
C1476 C1477 1.502 . S
C1476 C1478 1.561 . S
C1476 C1479 1.526 . S
C1477 H1461 0.959 . S
C1477 H1462 0.959 . S
C1477 H1463 0.961 . S
C1477 C1476 1.502 . S
C1478 H1464 0.960 . S
C1478 H1465 0.961 . S
C1478 H1466 0.959 . S
C1478 C1476 1.561 . S
C1479 C1476 1.526 . S
C1479 C1480 1.396 . S
C1479 C1484 1.390 . S
C1480 C1474 1.465 . S
C1480 C1479 1.396 . S
C1480 C1481 1.399 . S
C1481 H1467 0.929 . S
C1481 C1480 1.399 . S
C1481 C1482 1.385 . S
C1482 H1468 0.931 . S
C1482 C1481 1.385 . S
C1482 C1483 1.389 . S
C1483 C1482 1.389 . S
C1483 C1484 1.387 . S
C1484 H1469 0.930 . S
C1484 C1479 1.390 . S
C1484 C1483 1.387 . S
H1485 C1497 0.930 . S
H1486 C1499 0.930 . S
H1487 C1500 0.930 . S
H1488 C1504 0.959 . S
H1489 C1504 0.959 . S
H1490 C1504 0.961 . S
H1491 C1505 0.960 . S
H1492 C1505 0.961 . S
H1493 C1505 0.959 . S
H1494 C1508 0.929 . S
H1495 C1509 0.931 . S
H1496 C1511 0.930 . S
C1497 H1485 0.930 . S
C1497 C1498 1.399 . S
C1497 C1502 1.399 . S
C1498 C1497 1.399 . S
C1498 C1499 1.376 . S
C1499 H1486 0.930 . S
C1499 C1498 1.376 . S
C1499 C1500 1.388 . S
C1500 H1487 0.930 . S
C1500 C1499 1.388 . S
C1500 C1501 1.390 . S
C1501 C1500 1.390 . S
C1501 C1502 1.394 . S
C1501 C1507 1.465 1_545 S
C1502 C1497 1.399 . S
C1502 C1501 1.394 . S
C1502 C1503 1.516 . S
C1503 C1502 1.516 . S
C1503 C1504 1.502 . S
C1503 C1505 1.561 . S
C1503 C1506 1.526 . S
C1504 H1488 0.959 . S
C1504 H1489 0.959 . S
C1504 H1490 0.961 . S
C1504 C1503 1.502 . S
C1505 H1491 0.960 . S
C1505 H1492 0.961 . S
C1505 H1493 0.959 . S
C1505 C1503 1.561 . S
C1506 C1503 1.526 . S
C1506 C1507 1.396 1_545 S
C1506 C1511 1.390 1_545 S
C1507 C1501 1.465 1_565 S
C1507 C1506 1.396 1_565 S
C1507 C1508 1.399 . S
C1508 H1494 0.929 . S
C1508 C1507 1.399 . S
C1508 C1509 1.385 . S
C1509 H1495 0.931 . S
C1509 C1508 1.385 . S
C1509 C1510 1.389 . S
C1510 C1509 1.389 . S
C1510 C1511 1.387 . S
C1511 H1496 0.930 . S
C1511 C1506 1.390 1_565 S
C1511 C1510 1.387 . S
H1512 C1524 0.930 . S
H1513 C1526 0.930 . S
H1514 C1527 0.930 1_655 S
H1515 C1531 0.959 . S
H1516 C1531 0.959 . S
H1517 C1531 0.961 . S
H1518 C1532 0.960 . S
H1519 C1532 0.961 . S
H1520 C1532 0.959 . S
H1521 C1535 0.929 . S
H1522 C1536 0.931 . S
H1523 C1538 0.930 . S
C1524 H1512 0.930 . S
C1524 C1525 1.399 . S
C1524 C1529 1.399 . S
C1525 C1524 1.399 . S
C1525 C1526 1.376 . S
C1526 H1513 0.930 . S
C1526 C1525 1.376 . S
C1526 C1527 1.388 . S
C1527 H1514 0.930 1_455 S
C1527 C1526 1.388 . S
C1527 C1528 1.390 . S
C1528 C1527 1.390 . S
C1528 C1529 1.394 . S
C1528 C1534 1.465 1_455 S
C1529 C1524 1.399 . S
C1529 C1528 1.394 . S
C1529 C1530 1.516 . S
C1530 C1529 1.516 . S
C1530 C1531 1.502 . S
C1530 C1532 1.561 . S
C1530 C1533 1.526 1_455 S
C1531 H1515 0.959 . S
C1531 H1516 0.959 . S
C1531 H1517 0.961 . S
C1531 C1530 1.502 . S
C1532 H1518 0.960 . S
C1532 H1519 0.961 . S
C1532 H1520 0.959 . S
C1532 C1530 1.561 . S
C1533 C1530 1.526 1_655 S
C1533 C1534 1.396 . S
C1533 C1538 1.390 . S
C1534 C1528 1.465 1_655 S
C1534 C1533 1.396 . S
C1534 C1535 1.399 . S
C1535 H1521 0.929 . S
C1535 C1534 1.399 . S
C1535 C1536 1.385 . S
C1536 H1522 0.931 . S
C1536 C1535 1.385 . S
C1536 C1537 1.389 . S
C1537 C1536 1.389 . S
C1537 C1538 1.387 . S
C1538 H1523 0.930 . S
C1538 C1533 1.390 . S
C1538 C1537 1.387 . S
H1539 C1551 0.930 . S
H1540 C1553 0.930 . S
H1541 C1554 0.930 . S
H1542 C1558 0.959 . S
H1543 C1558 0.959 . S
H1544 C1558 0.961 . S
H1545 C1559 0.960 . S
H1546 C1559 0.961 . S
H1547 C1559 0.959 1_556 S
H1548 C1562 0.929 . S
H1549 C1563 0.931 . S
H1550 C1565 0.930 . S
C1551 H1539 0.930 . S
C1551 C1552 1.399 . S
C1551 C1556 1.399 . S
C1552 C1551 1.399 . S
C1552 C1553 1.376 . S
C1553 H1540 0.930 . S
C1553 C1552 1.376 . S
C1553 C1554 1.388 . S
C1554 H1541 0.930 . S
C1554 C1553 1.388 . S
C1554 C1555 1.390 . S
C1555 C1554 1.390 . S
C1555 C1556 1.394 . S
C1555 C1561 1.465 . S
C1556 C1551 1.399 . S
C1556 C1555 1.394 . S
C1556 C1557 1.516 1_556 S
C1557 C1556 1.516 1_554 S
C1557 C1558 1.502 . S
C1557 C1559 1.561 . S
C1557 C1560 1.526 . S
C1558 H1542 0.959 . S
C1558 H1543 0.959 . S
C1558 H1544 0.961 . S
C1558 C1557 1.502 . S
C1559 H1545 0.960 . S
C1559 H1546 0.961 . S
C1559 H1547 0.959 1_554 S
C1559 C1557 1.561 . S
C1560 C1557 1.526 . S
C1560 C1561 1.396 1_554 S
C1560 C1565 1.390 . S
C1561 C1555 1.465 . S
C1561 C1560 1.396 1_556 S
C1561 C1562 1.399 . S
C1562 H1548 0.929 . S
C1562 C1561 1.399 . S
C1562 C1563 1.385 1_556 S
C1563 H1549 0.931 . S
C1563 C1562 1.385 1_554 S
C1563 C1564 1.389 . S
C1564 C1563 1.389 . S
C1564 C1565 1.387 . S
C1565 H1550 0.930 . S
C1565 C1560 1.390 . S
C1565 C1564 1.387 . S
H1566 C1578 0.930 . S
H1567 C1580 0.930 . S
H1568 C1581 0.930 . S
H1569 C1585 0.959 . S
H1570 C1585 0.959 . S
H1571 C1585 0.961 . S
H1572 C1586 0.960 . S
H1573 C1586 0.961 . S
H1574 C1586 0.959 . S
H1575 C1589 0.929 . S
H1576 C1590 0.931 . S
H1577 C1592 0.930 . S
C1578 H1566 0.930 . S
C1578 C1579 1.399 . S
C1578 C1583 1.400 1_556 S
C1579 C1578 1.399 . S
C1579 C1580 1.376 . S
C1580 H1567 0.930 . S
C1580 C1579 1.376 . S
C1580 C1581 1.388 1_565 S
C1581 H1568 0.930 . S
C1581 C1580 1.388 1_545 S
C1581 C1582 1.390 . S
C1582 C1581 1.390 . S
C1582 C1583 1.395 1_546 S
C1582 C1588 1.462 1_556 S
C1583 C1578 1.400 1_554 S
C1583 C1582 1.395 1_564 S
C1583 C1584 1.514 . S
C1584 C1583 1.514 . S
C1584 C1585 1.502 . S
C1584 C1586 1.561 . S
C1584 C1587 1.526 1_565 S
C1585 H1569 0.959 . S
C1585 H1570 0.959 . S
C1585 H1571 0.961 . S
C1585 C1584 1.502 . S
C1586 H1572 0.960 . S
C1586 H1573 0.961 . S
C1586 H1574 0.959 . S
C1586 C1584 1.561 . S
C1587 C1584 1.526 1_545 S
C1587 C1588 1.402 . S
C1587 C1592 1.390 . S
C1588 C1582 1.462 1_554 S
C1588 C1587 1.402 . S
C1588 C1589 1.397 1_554 S
C1589 H1575 0.929 . S
C1589 C1588 1.397 1_556 S
C1589 C1590 1.385 1_556 S
C1590 H1576 0.931 . S
C1590 C1589 1.385 1_554 S
C1590 C1591 1.389 . S
C1591 C1590 1.389 . S
C1591 C1592 1.387 . S
C1592 H1577 0.930 . S
C1592 C1587 1.390 . S
C1592 C1591 1.387 . S
H1593 C1605 0.930 . S
H1594 C1607 0.932 1_554 S
H1595 C1608 0.930 . S
H1596 C1612 0.959 . S
H1597 C1612 0.959 . S
H1598 C1612 0.961 . S
H1599 C1613 0.960 . S
H1600 C1613 0.961 1_655 S
H1601 C1613 0.959 . S
H1602 C1616 0.929 . S
H1603 C1617 0.931 . S
H1604 C1619 0.930 1_556 S
C1605 H1593 0.930 . S
C1605 C1606 1.399 . S
C1605 C1610 1.399 . S
C1606 C1605 1.399 . S
C1606 C1607 1.373 . S
C1607 H1594 0.932 1_556 S
C1607 C1606 1.373 . S
C1607 C1608 1.391 1_556 S
C1608 H1595 0.930 . S
C1608 C1607 1.391 1_554 S
C1608 C1609 1.390 . S
C1609 C1608 1.390 . S
C1609 C1610 1.394 1_554 S
C1609 C1615 1.465 . S
C1610 C1605 1.399 . S
C1610 C1609 1.394 1_556 S
C1610 C1611 1.505 1_455 S
C1611 C1610 1.505 1_655 S
C1611 C1612 1.524 . S
C1611 C1613 1.546 1_655 S
C1611 C1614 1.529 . S
C1612 H1596 0.959 . S
C1612 H1597 0.959 . S
C1612 H1598 0.961 . S
C1612 C1611 1.524 . S
C1613 H1599 0.960 . S
C1613 H1600 0.961 1_455 S
C1613 H1601 0.959 . S
C1613 C1611 1.546 1_455 S
C1614 C1611 1.529 . S
C1614 C1615 1.396 1_656 S
C1614 C1619 1.390 1_556 S
C1615 C1609 1.465 . S
C1615 C1614 1.396 1_454 S
C1615 C1616 1.399 . S
C1616 H1602 0.929 . S
C1616 C1615 1.399 . S
C1616 C1617 1.385 1_455 S
C1617 H1603 0.931 . S
C1617 C1616 1.385 1_655 S
C1617 C1618 1.389 . S
C1618 C1617 1.389 . S
C1618 C1619 1.387 . S
C1619 H1604 0.930 1_554 S
C1619 C1614 1.390 1_554 S
C1619 C1618 1.387 . S
C661 C3 0.958 . S
C673 C518 0.883 . S
C688 C436 0.992 1_554 S
C700 C40 0.984 . S
C715 C74 1.013 . S
C727 C471 1.001 1_554 S
C742 C219 0.949 . S
C754 C86 0.897 . S
C769 C256 0.990 . S
C781 C4 1.014 . S
C796 C302 0.898 . S
C808 C39 0.960 . S
C823 C110 1.110 . S
C835 C410 1.140 1_556 S
C850 C338 1.051 . S
C862 C158 1.016 . S
C877 C374 1.032 1_556 S
C889 C182 1.116 . S
C904 C194 1.116 . S
C916 C542 1.079 . S
C931 C122 1.111 . S
C943 C590 1.126 . S
C958 C614 1.126 . S
C970 C146 1.185 . S
C985 C435 1.004 . S
C997 C290 1.004 . S
C1012 C220 1.015 . S
C1024 C472 0.992 . S
C1039 C506 0.980 . S
C1051 C255 1.015 . S
C1066 C626 1.065 . S
C1078 C326 1.162 . S
C1093 C362 1.104 . S
C1105 C554 1.152 . S
C1120 C578 1.161 . S
C1132 C398 1.140 . S
C1147 C544 1.646 . S
C1159 C14 1.811 . S
C1174 C38 1.546 . S
C1186 C579 1.745 . S
C1201 C76 1.645 . S
C1213 C616 1.672 . S
C1228 C75 1.768 . S
C1240 C399 1.741 . S
C1255 C327 1.721 . S
C1267 C2 1.679 . S
C1282 C50 1.794 . S
C1294 C363 1.737 . S
C1309 C230 1.752 . S
C1321 C112 1.710 . S
C1336 C254 1.615 . S
C1348 C147 1.673 . S
C1363 C184 1.628 . S
C1375 C291 1.751 . S
C1390 C183 1.772 . S
C1402 C507 1.738 . S
C1417 C111 1.739 . S
C1429 C434 1.658 . S
C1444 C148 1.746 . S
C1456 C482 1.724 . S
C1471 C292 1.714 . S
C1483 C615 1.706 . S
C1498 C218 1.577 . S
C1510 C543 1.804 . S
C1525 C580 1.645 . S
C1537 C266 1.792 . S
C1552 C446 1.823 . S
C1564 C328 1.686 . S
C1579 C470 1.515 . S
C1591 C364 1.669 . S
C1606 C508 1.706 . S
C1618 C400 1.645 . S
