# Generated by pormake.
# Topology ukp, (4)-cn, num edge types: 1
# Building blocks:
#     Node 0, Type 0, BuildingBlock: GALJAG_clean_sbu_0, # of connection points: 4
#     Node 1, Type 0, BuildingBlock: GALJAG_clean_sbu_0, # of connection points: 4
#     Node 2, Type 0, BuildingBlock: GALJAG_clean_sbu_0, # of connection points: 4
#     Node 3, Type 0, BuildingBlock: GALJAG_clean_sbu_0, # of connection points: 4
#     Node 4, Type 0, BuildingBlock: GALJAG_clean_sbu_0, # of connection points: 4
#     Node 5, Type 0, BuildingBlock: GALJAG_clean_sbu_0, # of connection points: 4
#     Node 6, Type 0, BuildingBlock: GALJAG_clean_sbu_0, # of connection points: 4
#     Node 7, Type 0, BuildingBlock: GALJAG_clean_sbu_0, # of connection points: 4
#     Node 8, Type 0, BuildingBlock: GALJAG_clean_sbu_0, # of connection points: 4
#     Node 9, Type 0, BuildingBlock: GALJAG_clean_sbu_0, # of connection points: 4
#     Node 10, Type 0, BuildingBlock: GALJAG_clean_sbu_0, # of connection points: 4
#     Node 11, Type 0, BuildingBlock: GALJAG_clean_sbu_0, # of connection points: 4
#     Node 12, Type 0, BuildingBlock: GALJAG_clean_sbu_0, # of connection points: 4
#     Node 13, Type 0, BuildingBlock: GALJAG_clean_sbu_0, # of connection points: 4
#     Node 14, Type 0, BuildingBlock: GALJAG_clean_sbu_0, # of connection points: 4
#     Node 15, Type 0, BuildingBlock: GALJAG_clean_sbu_0, # of connection points: 4
#     Node 16, Type 0, BuildingBlock: GALJAG_clean_sbu_0, # of connection points: 4
#     Node 17, Type 0, BuildingBlock: GALJAG_clean_sbu_0, # of connection points: 4
#     Node 18, Type 0, BuildingBlock: GALJAG_clean_sbu_0, # of connection points: 4
#     Node 19, Type 0, BuildingBlock: GALJAG_clean_sbu_0, # of connection points: 4
#     Node 20, Type 0, BuildingBlock: GALJAG_clean_sbu_0, # of connection points: 4
#     Node 21, Type 0, BuildingBlock: GALJAG_clean_sbu_0, # of connection points: 4
#     Node 22, Type 0, BuildingBlock: GALJAG_clean_sbu_0, # of connection points: 4
#     Node 23, Type 0, BuildingBlock: GALJAG_clean_sbu_0, # of connection points: 4
#     Node 24, Type 0, BuildingBlock: GALJAG_clean_sbu_0, # of connection points: 4
#     Node 25, Type 0, BuildingBlock: GALJAG_clean_sbu_0, # of connection points: 4
#     Node 26, Type 0, BuildingBlock: GALJAG_clean_sbu_0, # of connection points: 4
#     Node 27, Type 0, BuildingBlock: GALJAG_clean_sbu_0, # of connection points: 4
#     Node 28, Type 0, BuildingBlock: GALJAG_clean_sbu_0, # of connection points: 4
#     Node 29, Type 0, BuildingBlock: GALJAG_clean_sbu_0, # of connection points: 4
#     Node 30, Type 0, BuildingBlock: GALJAG_clean_sbu_0, # of connection points: 4
#     Node 31, Type 0, BuildingBlock: GALJAG_clean_sbu_0, # of connection points: 4
#     Node 32, Type 0, BuildingBlock: GALJAG_clean_sbu_0, # of connection points: 4
#     Node 33, Type 0, BuildingBlock: GALJAG_clean_sbu_0, # of connection points: 4
#     Node 34, Type 0, BuildingBlock: GALJAG_clean_sbu_0, # of connection points: 4
#     Node 35, Type 0, BuildingBlock: GALJAG_clean_sbu_0, # of connection points: 4
#     Node 36, Type 0, BuildingBlock: GALJAG_clean_sbu_0, # of connection points: 4
#     Node 37, Type 0, BuildingBlock: GALJAG_clean_sbu_0, # of connection points: 4
#     Node 38, Type 0, BuildingBlock: GALJAG_clean_sbu_0, # of connection points: 4
#     Node 39, Type 0, BuildingBlock: GALJAG_clean_sbu_0, # of connection points: 4
#     Node 40, Type 0, BuildingBlock: GALJAG_clean_sbu_0, # of connection points: 4
#     Node 41, Type 0, BuildingBlock: GALJAG_clean_sbu_0, # of connection points: 4
#     Node 42, Type 0, BuildingBlock: GALJAG_clean_sbu_0, # of connection points: 4
#     Node 43, Type 0, BuildingBlock: GALJAG_clean_sbu_0, # of connection points: 4
#     Node 44, Type 0, BuildingBlock: GALJAG_clean_sbu_0, # of connection points: 4
#     Node 45, Type 0, BuildingBlock: GALJAG_clean_sbu_0, # of connection points: 4
#     Node 46, Type 0, BuildingBlock: GALJAG_clean_sbu_0, # of connection points: 4
#     Node 47, Type 0, BuildingBlock: GALJAG_clean_sbu_0, # of connection points: 4
#     Edge 48, Type (0, 0), BuildingBlock: XIVTED_clean_linker_0, # of connection points: 2
#     Edge 49, Type (0, 0), BuildingBlock: XIVTED_clean_linker_0, # of connection points: 2
#     Edge 50, Type (0, 0), BuildingBlock: XIVTED_clean_linker_0, # of connection points: 2
#     Edge 51, Type (0, 0), BuildingBlock: XIVTED_clean_linker_0, # of connection points: 2
#     Edge 52, Type (0, 0), BuildingBlock: XIVTED_clean_linker_0, # of connection points: 2
#     Edge 53, Type (0, 0), BuildingBlock: XIVTED_clean_linker_0, # of connection points: 2
#     Edge 54, Type (0, 0), BuildingBlock: XIVTED_clean_linker_0, # of connection points: 2
#     Edge 55, Type (0, 0), BuildingBlock: XIVTED_clean_linker_0, # of connection points: 2
#     Edge 56, Type (0, 0), BuildingBlock: XIVTED_clean_linker_0, # of connection points: 2
#     Edge 57, Type (0, 0), BuildingBlock: XIVTED_clean_linker_0, # of connection points: 2
#     Edge 58, Type (0, 0), BuildingBlock: XIVTED_clean_linker_0, # of connection points: 2
#     Edge 59, Type (0, 0), BuildingBlock: XIVTED_clean_linker_0, # of connection points: 2
#     Edge 60, Type (0, 0), BuildingBlock: XIVTED_clean_linker_0, # of connection points: 2
#     Edge 61, Type (0, 0), BuildingBlock: XIVTED_clean_linker_0, # of connection points: 2
#     Edge 62, Type (0, 0), BuildingBlock: XIVTED_clean_linker_0, # of connection points: 2
#     Edge 63, Type (0, 0), BuildingBlock: XIVTED_clean_linker_0, # of connection points: 2
#     Edge 64, Type (0, 0), BuildingBlock: XIVTED_clean_linker_0, # of connection points: 2
#     Edge 65, Type (0, 0), BuildingBlock: XIVTED_clean_linker_0, # of connection points: 2
#     Edge 66, Type (0, 0), BuildingBlock: XIVTED_clean_linker_0, # of connection points: 2
#     Edge 67, Type (0, 0), BuildingBlock: XIVTED_clean_linker_0, # of connection points: 2
#     Edge 68, Type (0, 0), BuildingBlock: XIVTED_clean_linker_0, # of connection points: 2
#     Edge 69, Type (0, 0), BuildingBlock: XIVTED_clean_linker_0, # of connection points: 2
#     Edge 70, Type (0, 0), BuildingBlock: XIVTED_clean_linker_0, # of connection points: 2
#     Edge 71, Type (0, 0), BuildingBlock: XIVTED_clean_linker_0, # of connection points: 2
#     Edge 72, Type (0, 0), BuildingBlock: XIVTED_clean_linker_0, # of connection points: 2
#     Edge 73, Type (0, 0), BuildingBlock: XIVTED_clean_linker_0, # of connection points: 2
#     Edge 74, Type (0, 0), BuildingBlock: XIVTED_clean_linker_0, # of connection points: 2
#     Edge 75, Type (0, 0), BuildingBlock: XIVTED_clean_linker_0, # of connection points: 2
#     Edge 76, Type (0, 0), BuildingBlock: XIVTED_clean_linker_0, # of connection points: 2
#     Edge 77, Type (0, 0), BuildingBlock: XIVTED_clean_linker_0, # of connection points: 2
#     Edge 78, Type (0, 0), BuildingBlock: XIVTED_clean_linker_0, # of connection points: 2
#     Edge 79, Type (0, 0), BuildingBlock: XIVTED_clean_linker_0, # of connection points: 2
#     Edge 80, Type (0, 0), BuildingBlock: XIVTED_clean_linker_0, # of connection points: 2
#     Edge 81, Type (0, 0), BuildingBlock: XIVTED_clean_linker_0, # of connection points: 2
#     Edge 82, Type (0, 0), BuildingBlock: XIVTED_clean_linker_0, # of connection points: 2
#     Edge 83, Type (0, 0), BuildingBlock: XIVTED_clean_linker_0, # of connection points: 2
#     Edge 84, Type (0, 0), BuildingBlock: XIVTED_clean_linker_0, # of connection points: 2
#     Edge 85, Type (0, 0), BuildingBlock: XIVTED_clean_linker_0, # of connection points: 2
#     Edge 86, Type (0, 0), BuildingBlock: XIVTED_clean_linker_0, # of connection points: 2
#     Edge 87, Type (0, 0), BuildingBlock: XIVTED_clean_linker_0, # of connection points: 2
#     Edge 88, Type (0, 0), BuildingBlock: XIVTED_clean_linker_0, # of connection points: 2
#     Edge 89, Type (0, 0), BuildingBlock: XIVTED_clean_linker_0, # of connection points: 2
#     Edge 90, Type (0, 0), BuildingBlock: XIVTED_clean_linker_0, # of connection points: 2
#     Edge 91, Type (0, 0), BuildingBlock: XIVTED_clean_linker_0, # of connection points: 2
#     Edge 92, Type (0, 0), BuildingBlock: XIVTED_clean_linker_0, # of connection points: 2
#     Edge 93, Type (0, 0), BuildingBlock: XIVTED_clean_linker_0, # of connection points: 2
#     Edge 94, Type (0, 0), BuildingBlock: XIVTED_clean_linker_0, # of connection points: 2
#     Edge 95, Type (0, 0), BuildingBlock: XIVTED_clean_linker_0, # of connection points: 2
#     Edge 96, Type (0, 0), BuildingBlock: XIVTED_clean_linker_0, # of connection points: 2
#     Edge 97, Type (0, 0), BuildingBlock: XIVTED_clean_linker_0, # of connection points: 2
#     Edge 98, Type (0, 0), BuildingBlock: XIVTED_clean_linker_0, # of connection points: 2
#     Edge 99, Type (0, 0), BuildingBlock: XIVTED_clean_linker_0, # of connection points: 2
#     Edge 100, Type (0, 0), BuildingBlock: XIVTED_clean_linker_0, # of connection points: 2
#     Edge 101, Type (0, 0), BuildingBlock: XIVTED_clean_linker_0, # of connection points: 2
#     Edge 102, Type (0, 0), BuildingBlock: XIVTED_clean_linker_0, # of connection points: 2
#     Edge 103, Type (0, 0), BuildingBlock: XIVTED_clean_linker_0, # of connection points: 2
#     Edge 104, Type (0, 0), BuildingBlock: XIVTED_clean_linker_0, # of connection points: 2
#     Edge 105, Type (0, 0), BuildingBlock: XIVTED_clean_linker_0, # of connection points: 2
#     Edge 106, Type (0, 0), BuildingBlock: XIVTED_clean_linker_0, # of connection points: 2
#     Edge 107, Type (0, 0), BuildingBlock: XIVTED_clean_linker_0, # of connection points: 2
#     Edge 108, Type (0, 0), BuildingBlock: XIVTED_clean_linker_0, # of connection points: 2
#     Edge 109, Type (0, 0), BuildingBlock: XIVTED_clean_linker_0, # of connection points: 2
#     Edge 110, Type (0, 0), BuildingBlock: XIVTED_clean_linker_0, # of connection points: 2
#     Edge 111, Type (0, 0), BuildingBlock: XIVTED_clean_linker_0, # of connection points: 2
#     Edge 112, Type (0, 0), BuildingBlock: XIVTED_clean_linker_0, # of connection points: 2
#     Edge 113, Type (0, 0), BuildingBlock: XIVTED_clean_linker_0, # of connection points: 2
#     Edge 114, Type (0, 0), BuildingBlock: XIVTED_clean_linker_0, # of connection points: 2
#     Edge 115, Type (0, 0), BuildingBlock: XIVTED_clean_linker_0, # of connection points: 2
#     Edge 116, Type (0, 0), BuildingBlock: XIVTED_clean_linker_0, # of connection points: 2
#     Edge 117, Type (0, 0), BuildingBlock: XIVTED_clean_linker_0, # of connection points: 2
#     Edge 118, Type (0, 0), BuildingBlock: XIVTED_clean_linker_0, # of connection points: 2
#     Edge 119, Type (0, 0), BuildingBlock: XIVTED_clean_linker_0, # of connection points: 2
#     Edge 120, Type (0, 0), BuildingBlock: XIVTED_clean_linker_0, # of connection points: 2
#     Edge 121, Type (0, 0), BuildingBlock: XIVTED_clean_linker_0, # of connection points: 2
#     Edge 122, Type (0, 0), BuildingBlock: XIVTED_clean_linker_0, # of connection points: 2
#     Edge 123, Type (0, 0), BuildingBlock: XIVTED_clean_linker_0, # of connection points: 2
#     Edge 124, Type (0, 0), BuildingBlock: XIVTED_clean_linker_0, # of connection points: 2
#     Edge 125, Type (0, 0), BuildingBlock: XIVTED_clean_linker_0, # of connection points: 2
#     Edge 126, Type (0, 0), BuildingBlock: XIVTED_clean_linker_0, # of connection points: 2
#     Edge 127, Type (0, 0), BuildingBlock: XIVTED_clean_linker_0, # of connection points: 2
#     Edge 128, Type (0, 0), BuildingBlock: XIVTED_clean_linker_0, # of connection points: 2
#     Edge 129, Type (0, 0), BuildingBlock: XIVTED_clean_linker_0, # of connection points: 2
#     Edge 130, Type (0, 0), BuildingBlock: XIVTED_clean_linker_0, # of connection points: 2
#     Edge 131, Type (0, 0), BuildingBlock: XIVTED_clean_linker_0, # of connection points: 2
#     Edge 132, Type (0, 0), BuildingBlock: XIVTED_clean_linker_0, # of connection points: 2
#     Edge 133, Type (0, 0), BuildingBlock: XIVTED_clean_linker_0, # of connection points: 2
#     Edge 134, Type (0, 0), BuildingBlock: XIVTED_clean_linker_0, # of connection points: 2
#     Edge 135, Type (0, 0), BuildingBlock: XIVTED_clean_linker_0, # of connection points: 2
#     Edge 136, Type (0, 0), BuildingBlock: XIVTED_clean_linker_0, # of connection points: 2
#     Edge 137, Type (0, 0), BuildingBlock: XIVTED_clean_linker_0, # of connection points: 2
#     Edge 138, Type (0, 0), BuildingBlock: XIVTED_clean_linker_0, # of connection points: 2
#     Edge 139, Type (0, 0), BuildingBlock: XIVTED_clean_linker_0, # of connection points: 2
#     Edge 140, Type (0, 0), BuildingBlock: XIVTED_clean_linker_0, # of connection points: 2
#     Edge 141, Type (0, 0), BuildingBlock: XIVTED_clean_linker_0, # of connection points: 2
#     Edge 142, Type (0, 0), BuildingBlock: XIVTED_clean_linker_0, # of connection points: 2
#     Edge 143, Type (0, 0), BuildingBlock: XIVTED_clean_linker_0, # of connection points: 2
# Relax obj value: 0.196
# Max RMSD: 0.253
# Mean RMSD: 0.253
data_MOF--net-ukp--node1-GALJAG_clean_sbu_0--edge1-XIVTED_clean_linker_0
_symmetry_space_group_name_H-M    P1
_symmetry_Int_Tables_number       1
_symmetry_cell_setting            triclinic
loop_
_symmetry_equiv_pos_as_xyz
'x, y, z'
_cell_length_a     62.634225
_cell_length_b     62.624033
_cell_length_c     62.606038
_cell_angle_alpha  89.991158
_cell_angle_beta   90.007877
_cell_angle_gamma 89.998443
loop_
_atom_site_label
_atom_site_type_symbol
_atom_site_fract_x
_atom_site_fract_y
_atom_site_fract_z
_atom_type_partial_charge
In0 In 0.21348 0.27031 0.39961 0.0
O1 O 0.17867 0.2599 0.4018 0.0
O2 O 0.20163 0.24247 0.41982 0.0
C3 C 0.20885 0.29797 0.36664 0.0
C4 C 0.21945 0.29855 0.43162 0.0
C5 C 0.2441 0.24373 0.38487 0.0
O6 O 0.19842 0.28074 0.36762 0.0
O7 O 0.22107 0.30119 0.38224 0.0
O8 O 0.22697 0.24734 0.37496 0.0
O9 O 0.24572 0.25322 0.40259 0.0
C10 C 0.18228 0.24471 0.41459 0.0
O11 O 0.23476 0.29095 0.42091 0.0
O12 O 0.20133 0.29115 0.42682 0.0
In13 In 0.96759 0.96042 0.64915 0.0
O14 O 0.98049 0.92646 0.65317 0.0
O15 O 0.99665 0.95178 0.66908 0.0
C16 C 0.93878 0.95484 0.61736 0.0
C17 C 0.94038 0.96648 0.68197 0.0
C18 C 0.99267 0.9906 0.6314 0.0
O19 O 0.9556 0.94375 0.61848 0.0
O20 O 0.93649 0.96804 0.63231 0.0
O21 O 0.98365 0.99322 0.64926 0.0
O22 O 0.98926 0.97273 0.62279 0.0
C23 C 0.99574 0.93203 0.66519 0.0
O24 O 0.94852 0.98183 0.67172 0.0
O25 O 0.94667 0.9482 0.67623 0.0
In26 In 0.2916 0.7196 0.89704 0.0
O27 O 0.32676 0.72917 0.90021 0.0
O28 O 0.30354 0.74703 0.91747 0.0
C29 C 0.29426 0.68865 0.86701 0.0
C30 C 0.28319 0.69373 0.93043 0.0
C31 C 0.26446 0.74776 0.87883 0.0
O32 O 0.30761 0.7038 0.86775 0.0
O33 O 0.2801 0.68928 0.88124 0.0
O34 O 0.26141 0.74011 0.89725 0.0
O35 O 0.2813 0.74144 0.86979 0.0
C36 C 0.32302 0.74428 0.91309 0.0
O37 O 0.26854 0.70213 0.91937 0.0
O38 O 0.30188 0.69911 0.92517 0.0
In39 In 0.52233 0.02388 0.15851 0.0
O40 O 0.54355 0.00307 0.17986 0.0
O41 O 0.54145 0.0362 0.18691 0.0
C42 C 0.49714 0.99224 0.14326 0.0
C43 C 0.4959 0.05473 0.17295 0.0
C44 C 0.55028 0.02995 0.12594 0.0
O45 O 0.50632 0.991 0.16118 0.0
O46 O 0.50029 0.00951 0.13345 0.0
O47 O 0.53222 0.03889 0.12634 0.0
O48 O 0.55425 0.01856 0.14199 0.0
C49 C 0.54972 0.01839 0.19146 0.0
O50 O 0.5113 0.05855 0.1605 0.0
O51 O 0.49377 0.03532 0.17804 0.0
In52 In 0.21038 0.72944 0.10391 0.0
O53 O 0.22986 0.70848 0.08124 0.0
O54 O 0.19608 0.70844 0.07783 0.0
C55 C 0.24271 0.75438 0.11791 0.0
C56 C 0.17977 0.75646 0.09002 0.0
C57 C 0.20672 0.7014 0.13664 0.0
O58 O 0.24316 0.74523 0.09993 0.0
O59 O 0.2258 0.75141 0.1284 0.0
O60 O 0.19649 0.71879 0.13644 0.0
O61 O 0.21817 0.6983 0.12046 0.0
C62 C 0.21375 0.70081 0.07183 0.0
O63 O 0.17597 0.7415 0.10303 0.0
O64 O 0.199 0.75782 0.08411 0.0
In65 In 0.5272 0.9674 0.34091 0.0
O66 O 0.51763 0.93229 0.33788 0.0
O67 O 0.49955 0.95526 0.32056 0.0
C68 C 0.55664 0.96329 0.37238 0.0
C69 C 0.55379 0.97559 0.3079 0.0
C70 C 0.49953 0.99526 0.35895 0.0
O71 O 0.54056 0.95117 0.37119 0.0
O72 O 0.55789 0.97695 0.35769 0.0
O73 O 0.50759 -0.00155 0.34072 0.0
O74 O 0.50514 0.97803 0.36767 0.0
C75 C 0.50233 0.93583 0.3252 0.0
O76 O 0.54521 0.99033 0.3187 0.0
O77 O 0.54828 0.95696 0.31327 0.0
In78 In 0.29378 0.2705 0.60578 0.0
O79 O 0.27051 0.29538 0.59298 0.0
O80 O 0.29799 0.28841 0.57432 0.0
C81 C 0.26076 0.24773 0.62171 0.0
C82 C 0.32281 0.24375 0.58814 0.0
C83 C 0.30615 0.29693 0.63788 0.0
O84 O 0.25957 0.25782 0.60429 0.0
O85 O 0.27875 0.24857 0.63067 0.0
O86 O 0.30294 0.27726 0.64068 0.0
O87 O 0.30452 0.30288 0.61877 0.0
C88 C 0.28139 0.29965 0.57654 0.0
O89 O 0.328 0.25855 0.6008 0.0
O90 O 0.30305 0.24227 0.58468 0.0
In91 In 0.96961 0.04981 0.85939 0.0
O92 O 0.97874 0.08483 0.85382 0.0
O93 O 0.99769 0.06096 0.83904 0.0
C94 C 0.94243 0.06042 0.89143 0.0
C95 C 0.94154 0.03476 0.83028 0.0
C96 C 0.99481 0.01897 0.87603 0.0
O97 O 0.96231 0.05887 0.89415 0.0
O98 O 0.93654 0.05813 0.87237 0.0
O99 O 0.98525 0.01677 0.8584 0.0
O100 O 0.99214 0.03686 0.88483 0.0
C101 C 0.9945 0.0806 0.84199 0.0
O102 O 0.94649 0.02457 0.84697 0.0
O103 O 0.95164 0.05204 0.82771 0.0
In104 In 0.39996 0.20322 0.27076 0.0
O105 O 0.42299 0.22325 0.29101 0.0
O106 O 0.42635 0.18943 0.29136 0.0
C107 C 0.38349 0.23351 0.24472 0.0
C108 C 0.4151 0.17248 0.24469 0.0
C109 C 0.36849 0.19921 0.30002 0.0
O110 O 0.40164 0.23552 0.25332 0.0
O111 O 0.37413 0.2162 0.24888 0.0
O112 O 0.36878 0.18806 0.2832 0.0
O113 O 0.38394 0.21188 0.30195 0.0
C114 C 0.4326 0.20717 0.29858 0.0
O115 O 0.40125 0.16879 0.25891 0.0
O116 O 0.42095 0.19175 0.24338 0.0
In117 In 0.03858 0.14631 0.51604 0.0
O118 O 0.07126 0.14535 0.50001 0.0
O119 O 0.04945 0.16973 0.49056 0.0
C120 C 0.03901 0.11289 0.54309 0.0
C121 C 0.04238 0.17576 0.54705 0.0
C122 C 0.00548 0.13407 0.49146 0.0
O123 O 0.05106 0.11338 0.52687 0.0
O124 O 0.02707 0.1289 0.54527 0.0
O125 O 0.00479 0.15079 0.5028 0.0
O126 O 0.023 0.12418 0.49205 0.0
C127 C 0.0678 0.1616 0.48851 0.0
O128 O 0.02478 0.17264 0.53757 0.0
O129 O 0.05781 0.16485 0.54004 0.0
In130 In 0.10971 0.80176 0.7689 0.0
O131 O 0.08449 0.78972 0.79262 0.0
O132 O 0.0943 0.82234 0.79391 0.0
C133 C 0.12108 0.76708 0.74637 0.0
C134 C 0.09057 0.82781 0.74058 0.0
C135 C 0.14516 0.80351 0.79316 0.0
O136 O 0.10562 0.76684 0.75939 0.0
O137 O 0.13007 0.78499 0.74418 0.0
O138 O 0.14368 0.81439 0.77614 0.0
O139 O 0.1291 0.79222 0.79746 0.0
C140 C 0.08316 0.8076 0.80202 0.0
O141 O 0.10742 0.83318 0.7504 0.0
O142 O 0.08388 0.80924 0.74471 0.0
In143 In 0.46369 0.83595 0.02662 0.0
O144 O 0.48374 0.8137 0.04758 0.0
O145 O 0.44997 0.80997 0.04793 0.0
C146 C 0.49441 0.85255 0.00124 0.0
C147 C 0.43445 0.81993 -0.00064 0.0
C148 C 0.4584 0.8679 0.05522 0.0
O149 O 0.47673 0.86157 0.00449 0.0
O150 O 0.49656 0.83471 0.01044 0.0
O151 O 0.44728 0.86682 0.03841 0.0
O152 O 0.47168 0.853 0.05743 0.0
C153 C 0.46776 0.80419 0.05545 0.0
O154 O 0.42995 0.83407 0.01305 0.0
O155 O 0.45372 0.81397 -0.00063 0.0
In156 In 0.40296 0.78635 0.23024 0.0
O157 O 0.42596 0.79803 0.25599 0.0
O158 O 0.40687 0.82123 0.2401 0.0
C159 C 0.37043 0.79113 0.20218 0.0
C160 C 0.43366 0.77791 0.20119 0.0
C161 C 0.38578 0.75855 0.25855 0.0
O162 O 0.37233 0.80308 0.21833 0.0
O163 O 0.38482 0.77726 0.2003 0.0
O164 O 0.37719 0.77605 0.25359 0.0
O165 O 0.40354 0.75512 0.2496 0.0
C166 C 0.42109 0.8175 0.25393 0.0
O167 O 0.42342 0.76325 0.21057 0.0
O168 O 0.4291 0.79658 0.20727 0.0
In169 In 0.45984 0.14577 0.47491 0.0
O170 O 0.42616 0.1487 0.48904 0.0
O171 O 0.45017 0.16967 0.50054 0.0
C172 C 0.44865 0.11052 0.4523 0.0
C173 C 0.47038 0.17227 0.44251 0.0
C174 C 0.49358 0.13448 0.49922 0.0
O175 O 0.45752 0.10963 0.47032 0.0
O176 O 0.44397 0.12915 0.44634 0.0
O177 O 0.47545 0.12593 0.50101 0.0
O178 O 0.49459 0.14931 0.48557 0.0
C179 C 0.43095 0.16379 0.50152 0.0
O180 O 0.48131 0.15603 0.44731 0.0
O181 O 0.45474 0.17574 0.45474 0.0
In182 In 0.09556 0.21626 0.73097 0.0
O183 O 0.09536 0.18511 0.74988 0.0
O184 O 0.06951 0.20678 0.75441 0.0
C185 C 0.13151 0.21515 0.70736 0.0
C186 C 0.0697 0.21005 0.69726 0.0
C187 C 0.10551 0.25096 0.75429 0.0
O188 O 0.12902 0.20286 0.72324 0.0
O189 O 0.11621 0.22773 0.70391 0.0
O190 O 0.09039 0.25102 0.74088 0.0
O191 O 0.11486 0.23325 0.75641 0.0
C192 C 0.07784 0.18902 0.75914 0.0
O193 O 0.07014 0.22773 0.70709 0.0
O194 O 0.08131 0.19564 0.70526 0.0
In195 In 0.03943 0.85857 0.98758 0.0
O196 O 0.0705 0.86005 0.00669 0.0
O197 O 0.05009 0.83319 0.0112 0.0
C198 C 0.03799 0.89439 0.96381 0.0
C199 C 0.04842 0.83376 0.95377 0.0
C200 C 0.00352 0.86575 0.01004 0.0
O201 O 0.04993 0.89316 0.98012 0.0
O202 O 0.02699 0.87798 0.9601 0.0
O203 O 0.0051 0.85046 0.99692 0.0
O204 O 0.02029 0.87668 0.01238 0.0
C205 C 0.06746 0.84232 0.0159 0.0
O206 O 0.03052 0.83267 0.96313 0.0
O207 O 0.0617 0.84629 0.96232 0.0
In208 In 0.27304 0.39155 0.20451 0.0
O209 O 0.29706 0.40611 0.22775 0.0
O210 O 0.29353 0.4207 0.19727 0.0
C211 C 0.24808 0.37919 0.23751 0.0
C212 C 0.24845 0.40933 0.17361 0.0
C213 C 0.29766 0.35678 0.19597 0.0
O214 O 0.24883 0.36929 0.22001 0.0
O215 O 0.25947 0.39581 0.23822 0.0
O216 O 0.27755 0.35602 0.19587 0.0
O217 O 0.30515 0.37513 0.19908 0.0
C218 C 0.30331 0.42039 0.21492 0.0
O219 O 0.24626 0.41354 0.19317 0.0
O220 O 0.26288 0.39585 0.16955 0.0
In221 In 0.76953 0.09224 0.7884 0.0
O222 O 0.79042 0.06802 0.77059 0.0
O223 O 0.79082 0.06779 0.80457 0.0
C224 C 0.74454 0.10717 0.75653 0.0
C225 C 0.7418 0.07765 0.81796 0.0
C226 C 0.79832 0.12428 0.79142 0.0
O227 O 0.75416 0.08946 0.75526 0.0
O228 O 0.74709 0.11686 0.774 0.0
O229 O 0.78207 0.12356 0.80339 0.0
O230 O 0.7998 0.10905 0.7784 0.0
C231 C 0.79828 0.06019 0.78747 0.0
O232 O 0.75533 0.09208 0.822 0.0
O233 O 0.74209 0.07084 0.79896 0.0
In234 In 0.15542 0.52299 0.03333 0.0
O235 O 0.17798 0.54559 0.01552 0.0
O236 O 0.17721 0.54709 0.04947 0.0
C237 C 0.14272 0.49651 0.00172 0.0
C238 C 0.17216 0.49629 0.06274 0.0
C239 C 0.12099 0.54891 0.03571 0.0
O240 O 0.1596 0.5075 0.00041 0.0
O241 O 0.13273 0.49851 0.01909 0.0
O242 O 0.12344 0.53346 0.0485 0.0
O243 O 0.13568 0.551 0.02217 0.0
C244 C 0.18449 0.55474 0.0323 0.0
O245 O 0.15638 0.50825 0.06671 0.0
O246 O 0.17937 0.49776 0.04395 0.0
In247 In 0.72189 0.91408 0.27532 0.0
O248 O 0.70142 0.93493 0.25322 0.0
O249 O 0.70259 0.943 0.28613 0.0
C250 C 0.74903 0.89657 0.24658 0.0
C251 C 0.74744 0.92871 0.30675 0.0
C252 C 0.69273 0.88266 0.28102 0.0
O253 O 0.74069 0.91472 0.24376 0.0
O254 O 0.74398 0.88766 0.26388 0.0
O255 O 0.70874 0.88469 0.29311 0.0
O256 O 0.69147 0.89644 0.26646 0.0
C257 C 0.69474 0.94692 0.268 0.0
O258 O 0.73198 0.91622 0.31019 0.0
O259 O 0.74999 0.93391 0.28741 0.0
In260 In 0.83604 0.97004 0.03073 0.0
O261 O 0.81681 0.94837 0.00835 0.0
O262 O 0.80927 0.9481 0.04146 0.0
C263 C 0.8523 -0.00057 0.00364 0.0
C264 C 0.81796 0.99418 0.06134 0.0
C265 C 0.86896 0.94261 0.03605 0.0
O266 O 0.83493 0.98989 -0.00015 0.0
O267 O 0.8611 0.99426 0.02098 0.0
O268 O 0.86528 0.95745 0.04923 0.0
O269 O 0.85616 0.94177 0.02058 0.0
C270 C 0.80574 0.94036 0.0232 0.0
O271 O 0.83261 0.98086 0.0653 0.0
O272 O 0.81251 0.99533 0.04193 0.0
In273 In 0.2236 0.59778 0.71023 0.0
O274 O 0.245 0.59885 0.68064 0.0
O275 O 0.2385 0.56858 0.69491 0.0
C276 C 0.2028 0.63508 0.71377 0.0
C277 C 0.18622 0.57784 0.70438 0.0
C278 C 0.25064 0.60344 0.74318 0.0
O279 O 0.21476 0.63128 0.69786 0.0
O280 O 0.20225 0.62056 0.72772 0.0
O281 O 0.2356 0.58992 0.74394 0.0
O282 O 0.25244 0.61308 0.72558 0.0
C283 C 0.24775 0.57883 0.68021 0.0
O284 O 0.19821 0.57307 0.72002 0.0
O285 O 0.19383 0.5914 0.69153 0.0
In286 In 0.15179 0.46827 0.45886 0.0
O287 O 0.17383 0.44953 0.48115 0.0
O288 O 0.17921 0.44743 0.44763 0.0
C289 C 0.13203 0.49398 0.48723 0.0
C290 C 0.16915 0.49539 0.43029 0.0
C291 C 0.12149 0.43797 0.45342 0.0
O292 O 0.12443 0.48978 0.46907 0.0
O293 O 0.14998 0.48556 0.49102 0.0
O294 O 0.12238 0.45422 0.44144 0.0
O295 O 0.13579 0.43714 0.46749 0.0
C296 C 0.18443 0.44123 0.4661 0.0
O297 O 0.15627 0.48081 0.42484 0.0
O298 O 0.17303 0.49632 0.45006 0.0
In299 In 0.33671 0.51949 0.96609 0.0
O300 O 0.33965 0.50265 0.93385 0.0
O301 O 0.31022 0.50004 0.95079 0.0
C302 C 0.36911 0.54786 0.9649 0.0
C303 C 0.307 0.55027 0.96958 0.0
C304 C 0.34988 0.49024 0.99497 0.0
O305 O 0.3658 0.53501 0.94967 0.0
O306 O 0.35643 0.54604 0.98038 0.0
O307 O 0.3322 0.49981 0.99676 0.0
O308 O 0.36037 0.49507 0.97851 0.0
C309 C 0.32081 0.49542 0.93427 0.0
O310 O 0.31388 0.54023 0.98572 0.0
O311 O 0.31447 0.54414 0.95189 0.0
In312 In 0.69339 0.77535 0.88867 0.0
O313 O 0.71821 0.79835 0.9021 0.0
O314 O 0.68995 0.79323 0.92023 0.0
C315 C 0.72461 0.75077 0.8719 0.0
C316 C 0.6637 0.7494 0.90632 0.0
C317 C 0.68239 0.80232 0.85649 0.0
O318 O 0.70648 0.75274 0.86342 0.0
O319 O 0.72694 0.76085 0.88922 0.0
O320 O 0.68311 0.78235 0.85413 0.0
O321 O 0.68575 0.80847 0.87531 0.0
C322 C 0.70739 0.80321 0.91843 0.0
O323 O 0.68349 0.74677 0.90886 0.0
O324 O 0.65875 0.76521 0.89483 0.0
In325 In 0.47115 0.44707 0.14237 0.0
O326 O 0.45291 0.46733 0.16669 0.0
O327 O 0.45268 0.43355 0.17047 0.0
C328 C 0.49514 0.47801 0.12437 0.0
C329 C 0.49928 0.4176 0.15614 0.0
C330 C 0.43954 0.44238 0.11332 0.0
O331 O 0.48752 0.47968 0.14297 0.0
O332 O 0.49097 0.46064 0.11509 0.0
O333 O 0.45666 0.43175 0.11204 0.0
O334 O 0.43857 0.45482 0.12905 0.0
C335 C 0.44606 0.45141 0.17706 0.0
O336 O 0.48393 0.41292 0.14389 0.0
O337 O 0.50058 0.43711 0.16103 0.0
In338 In 0.79452 0.22476 0.38499 0.0
O339 O 0.80667 0.25129 0.40658 0.0
O340 O 0.82984 0.23387 0.38904 0.0
C341 C 0.80315 0.20115 0.34969 0.0
C342 C 0.78202 0.19425 0.4128 0.0
C343 C 0.76198 0.25082 0.37407 0.0
O344 O 0.79866 0.22074 0.34882 0.0
O345 O 0.80486 0.19391 0.36836 0.0
O346 O 0.76093 0.2382 0.38977 0.0
O347 O 0.7796 0.25069 0.36434 0.0
C348 C 0.82614 0.24855 0.40236 0.0
O349 O 0.79824 0.2058 0.41592 0.0
O350 O 0.77157 0.19878 0.39616 0.0
In351 In 0.00828 0.53836 0.63692 0.0
O352 O 0.0297 0.52609 0.6641 0.0
O353 O 0.02913 0.55942 0.65734 0.0
C354 C 0.98652 0.50298 0.62572 0.0
C355 C 0.97839 0.56676 0.64921 0.0
C356 C 0.03662 0.53967 0.60446 0.0
O357 O 0.98651 0.51984 0.6147 0.0
O358 O 0.99702 0.5041 0.64294 0.0
O359 O 0.01912 0.54972 0.60351 0.0
O360 O 0.03947 0.52931 0.62143 0.0
C361 C 0.03709 0.54445 0.66823 0.0
O362 O 0.9914 0.57054 0.63422 0.0
O363 O 0.98016 0.54849 0.65757 0.0
In364 In 0.71107 0.22547 0.60121 0.0
O365 O 0.73333 0.20583 0.57989 0.0
O366 O 0.70005 0.20535 0.57309 0.0
C367 C 0.74021 0.25174 0.61921 0.0
C368 C 0.68088 0.25153 0.58482 0.0
C369 C 0.7056 0.19591 0.63235 0.0
O370 O 0.74297 0.24355 0.60097 0.0
O371 O 0.72273 0.24699 0.62795 0.0
O372 O 0.69455 0.21279 0.63171 0.0
O373 O 0.71878 0.19401 0.61732 0.0
C374 C 0.7184 0.19839 0.56853 0.0
O375 O 0.67646 0.23655 0.59762 0.0
O376 O 0.70049 0.25345 0.58054 0.0
In377 In 0.02828 0.4537 0.84652 0.0
O378 O 0.04607 0.47661 0.82436 0.0
O379 O 0.04905 0.44324 0.81865 0.0
C380 C 0.00127 0.48223 0.86429 0.0
C381 C 0.00283 0.42282 0.83057 0.0
C382 C 0.05814 0.44986 0.87758 0.0
O383 O 0.00938 0.48495 0.84601 0.0
O384 O 0.00649 0.46502 0.87332 0.0
O385 O 0.04169 0.43817 0.8772 0.0
O386 O 0.05951 0.46282 0.8623 0.0
C387 C 0.05453 0.46192 0.8134 0.0
O388 O 0.01823 0.41874 0.84299 0.0
O389 O 0.00026 0.44238 0.82645 0.0
In390 In 0.79204 0.77346 0.09941 0.0
O391 O 0.82671 0.76254 0.09549 0.0
O392 O 0.80228 0.74327 0.08193 0.0
C393 C 0.79838 0.80449 0.12901 0.0
C394 C 0.78338 0.79784 0.06497 0.0
C395 C 0.76146 0.74981 0.1185 0.0
O396 O 0.80642 0.78611 0.13099 0.0
O397 O 0.78805 0.80723 0.11203 0.0
O398 O 0.75926 0.75734 0.09991 0.0
O399 O 0.77919 0.75381 0.12713 0.0
C400 C 0.82201 0.74598 0.08496 0.0
O401 O 0.76892 0.79089 0.07723 0.0
O402 O 0.80202 0.79167 0.06958 0.0
In403 In 0.47766 0.54662 0.35645 0.0
O404 O 0.45833 0.52779 0.33176 0.0
O405 O 0.45794 0.56171 0.33001 0.0
C406 C 0.50269 0.51497 0.37168 0.0
C407 C 0.50515 0.57722 0.3438 0.0
C408 C 0.44769 0.54948 0.3874 0.0
O409 O 0.49444 0.51427 0.35327 0.0
O410 O 0.4986 0.5317 0.38209 0.0
O411 O 0.46449 0.56065 0.3879 0.0
O412 O 0.44618 0.53735 0.37146 0.0
C413 C 0.45101 0.54427 0.32267 0.0
O414 O 0.48985 0.58099 0.35642 0.0
O415 O 0.50667 0.55801 0.33785 0.0
In416 In 0.88447 0.70527 0.76035 0.0
O417 O 0.88169 0.67408 0.74173 0.0
O418 O 0.90786 0.6947 0.73469 0.0
C419 C 0.84985 0.70646 0.78581 0.0
C420 C 0.91167 0.69644 0.79239 0.0
C421 C 0.8757 0.74085 0.7379 0.0
O422 O 0.85038 0.69464 0.76941 0.0
O423 O 0.86641 0.71742 0.7889 0.0
O424 O 0.86502 0.72385 0.73623 0.0
O425 O 0.89153 0.73975 0.75043 0.0
C426 C 0.89843 0.67727 0.73087 0.0
O427 O 0.91161 0.71454 0.78333 0.0
O428 O 0.89902 0.68295 0.7844 0.0
In429 In 0.53376 0.64241 0.01818 0.0
O430 O 0.5644 0.64336 -0.00155 0.0
O431 O 0.542 0.66873 0.9947 0.0
C432 C 0.53538 0.60641 0.0416 0.0
C433 C 0.54146 0.66796 0.05175 0.0
C434 C 0.49844 0.63249 0.99586 0.0
O435 O 0.54661 0.60849 0.02489 0.0
O436 O 0.52361 0.62212 0.04595 0.0
O437 O 0.49863 0.64736 0.00956 0.0
O438 O 0.51617 0.62336 0.99301 0.0
C439 C 0.55982 0.66087 0.98945 0.0
O440 O 0.52342 0.66782 0.04257 0.0
O441 O 0.55543 0.65619 0.0432 0.0
In442 In 0.59802 0.2824 0.26895 0.0
O443 O 0.57724 0.2644 0.29298 0.0
O444 O 0.57353 0.2981 0.2907 0.0
C445 C 0.61073 0.24979 0.24376 0.0
C446 C 0.58141 0.31066 0.24115 0.0
C447 C 0.63208 0.28806 0.29484 0.0
O448 O 0.59358 0.24916 0.25435 0.0
O449 O 0.62119 0.26687 0.24574 0.0
O450 O 0.62992 0.29869 0.27781 0.0
O451 O 0.61729 0.27498 0.29849 0.0
C452 C 0.56827 0.28103 0.30005 0.0
O453 O 0.59643 0.31547 0.25376 0.0
O454 O 0.57486 0.29163 0.2426 0.0
In455 In 0.96602 0.33556 0.51999 0.0
O456 O 0.93362 0.33505 0.50358 0.0
O457 O 0.95701 0.31261 0.49321 0.0
C458 C 0.96057 0.36923 0.54644 0.0
C459 C 0.96543 0.30476 0.55015 0.0
C460 C -0.00144 0.34964 0.4954 0.0
O461 O 0.94896 0.36651 0.53015 0.0
O462 O 0.97457 0.35508 0.54922 0.0
O463 O -0.00014 0.3326 0.50616 0.0
O464 O 0.98088 0.35911 0.4968 0.0
C465 C 0.93827 0.31983 0.49115 0.0
O466 O 0.98269 0.31262 0.54321 0.0
O467 O 0.94879 0.31179 0.54124 0.0
In468 In 0.89913 0.28196 0.72745 0.0
O469 O 0.90788 0.26084 0.69909 0.0
O470 O 0.92992 0.28502 0.70809 0.0
C471 C 0.88686 0.24867 0.75212 0.0
C472 C 0.91828 0.31184 0.75211 0.0
C473 C 0.8639 0.29449 0.70555 0.0
O474 O 0.87904 0.26711 0.75387 0.0
O475 O 0.90152 0.24708 0.73837 0.0
O476 O 0.8632 0.28813 0.72463 0.0
O477 O 0.88246 0.2958 0.69796 0.0
C478 C 0.9252 0.27035 0.69507 0.0
O479 O 0.90355 0.31631 0.73911 0.0
O480 O 0.92324 0.29234 0.75276 0.0
In481 In 0.95432 0.63869 0.97681 0.0
O482 O 0.92355 0.63916 0.9964 0.0
O483 O 0.94557 0.66483 0.00029 0.0
C484 C 0.95356 0.60334 0.9525 0.0
C485 C 0.94671 0.6641 0.94309 0.0
C486 C 0.98923 0.6284 -0.00034 0.0
O487 O 0.94172 0.60496 0.96885 0.0
O488 O 0.96555 0.61911 0.94903 0.0
O489 O 0.98903 0.64409 0.98688 0.0
O490 O 0.9717 0.61861 0.00134 0.0
C491 C 0.92783 0.65673 0.00543 0.0
O492 O 0.96471 0.66409 0.95238 0.0
O493 O 0.93272 0.6524 0.9517 0.0
In494 In 0.60164 0.71474 0.23359 0.0
O495 O 0.57498 0.72408 0.2101 0.0
O496 O 0.58668 0.69212 0.21009 0.0
C497 C 0.61094 0.75086 0.25495 0.0
C498 C 0.58665 0.68785 0.26357 0.0
C499 C 0.63639 0.71376 0.20828 0.0
O500 O 0.59512 0.74961 0.24243 0.0
O501 O 0.62138 0.73378 0.25713 0.0
O502 O 0.63545 0.70275 0.22522 0.0
O503 O 0.6202 0.7251 0.20463 0.0
C504 C 0.57449 0.70573 0.20159 0.0
O505 O 0.60374 0.68428 0.25342 0.0
O506 O 0.57742 0.70516 0.25886 0.0
In507 In 0.54165 0.35173 0.4765 0.0
O508 O 0.57559 0.34887 0.48969 0.0
O509 O 0.55162 0.32895 0.50314 0.0
C510 C 0.54726 0.38638 0.45115 0.0
C511 C 0.53795 0.32172 0.44581 0.0
C512 C 0.50853 0.36486 0.50093 0.0
O513 O 0.55549 0.38524 0.46954 0.0
O514 O 0.5369 0.3701 0.44567 0.0
O515 O 0.50793 0.34782 0.49016 0.0
O516 O 0.52598 0.37482 0.49985 0.0
C517 C 0.57101 0.33443 0.50303 0.0
O518 O 0.5219 0.33054 0.4543 0.0
O519 O 0.55573 0.32741 0.45346 0.0
In520 In 0.76891 0.90691 0.71367 0.0
O521 O 0.78963 0.92681 0.73633 0.0
O522 O 0.79027 0.93434 0.70324 0.0
C523 C 0.73951 0.89102 0.74104 0.0
C524 C 0.74569 0.9233 0.68133 0.0
C525 C 0.79714 0.87443 0.70976 0.0
O526 O 0.74843 0.90886 0.7441 0.0
O527 O 0.7452 0.88161 0.7242 0.0
O528 O 0.78182 0.8768 0.69685 0.0
O529 O 0.79808 0.8883 0.72426 0.0
C530 C 0.79764 0.93806 0.72161 0.0
O531 O 0.75999 0.90934 0.67845 0.0
O532 O 0.74305 0.92889 0.70055 0.0
In533 In 0.27546 0.60353 0.29502 0.0
O534 O 0.30266 0.59441 0.27255 0.0
O535 O 0.29586 0.57355 0.29845 0.0
C536 C 0.25068 0.61661 0.2622 0.0
C537 C 0.2501 0.58335 0.32367 0.0
C538 C 0.29814 0.63829 0.30762 0.0
O539 O 0.26374 0.60134 0.26043 0.0
O540 O 0.24977 0.62477 0.28057 0.0
O541 O 0.30538 0.61958 0.30866 0.0
O542 O 0.27893 0.63937 0.30174 0.0
C543 C 0.30779 0.57777 0.28274 0.0
O544 O 0.26292 0.59796 0.32903 0.0
O545 O 0.25003 0.57911 0.30399 0.0
In546 In 0.65684 0.02616 0.53102 0.0
O547 O 0.65722 0.0141 0.56535 0.0
O548 O 0.67827 -0.00074 0.54318 0.0
C549 C 0.62381 0.05372 0.5353 0.0
C550 C 0.68838 0.05536 0.52788 0.0
C551 C 0.64305 0.00087 0.49879 0.0
O552 O 0.62445 0.03627 0.54541 0.0
O553 O 0.63966 0.05709 0.52347 0.0
O554 O 0.66068 0.01063 0.49804 0.0
O555 O 0.63289 0.00331 0.51598 0.0
C556 C 0.67157 0.00028 0.56219 0.0
O557 O 0.67936 0.04747 0.51164 0.0
O558 O 0.68219 0.04774 0.54548 0.0
In559 In 0.22627 0.40631 0.77969 0.0
O560 O 0.2063 0.42781 0.75786 0.0
O561 O 0.20309 0.43133 0.79158 0.0
C562 C 0.25576 0.38962 0.75292 0.0
C563 C 0.25029 0.42367 0.81073 0.0
C564 C 0.19637 0.37545 0.78311 0.0
O565 O 0.24656 0.40717 0.74903 0.0
O566 O 0.25038 0.38104 0.77029 0.0
O567 O 0.20921 0.37937 0.79819 0.0
O568 O 0.199 0.38669 0.76666 0.0
C569 C 0.19691 0.43697 0.77324 0.0
O570 O 0.24192 0.40539 0.81259 0.0
O571 O 0.24679 0.43299 0.79318 0.0
In572 In 0.34574 0.47372 0.53772 0.0
O573 O 0.34545 0.49147 0.56972 0.0
O574 O 0.3185 0.49461 0.54911 0.0
C575 C 0.3796 0.4471 0.54003 0.0
C576 C 0.31644 0.44242 0.53687 0.0
C577 C 0.3586 0.50135 0.50722 0.0
O578 O 0.3767 0.46162 0.55379 0.0
O579 O 0.36564 0.44627 0.52561 0.0
O580 O 0.34247 0.48947 0.50481 0.0
O581 O 0.3677 0.49962 0.52508 0.0
C582 C 0.32709 0.49937 0.56672 0.0
O583 O 0.32262 0.45167 0.51999 0.0
O584 O 0.32466 0.44932 0.55396 0.0
In585 In 0.71674 0.0891 0.20945 0.0
O586 O 0.69776 0.0704 0.23461 0.0
O587 O 0.6971 0.05937 0.20251 0.0
C588 C 0.74421 0.10878 0.23644 0.0
C589 C 0.74066 0.07173 0.1781 0.0
C590 C 0.68762 0.12013 0.20184 0.0
O591 O 0.73767 0.117 0.2193 0.0
O592 O 0.73713 0.09024 0.24006 0.0
O593 O 0.70519 0.11933 0.192 0.0
O594 O 0.68467 0.10514 0.21489 0.0
C595 C 0.69042 0.05703 0.22139 0.0
O596 O 0.72471 0.08348 0.17434 0.0
O597 O 0.74459 0.06883 0.19767 0.0
In598 In 0.64724 0.97291 0.96242 0.0
O599 O 0.67109 0.95191 0.98054 0.0
O600 O 0.67286 0.95275 0.94661 0.0
C601 C 0.63268 0.99669 0.99538 0.0
C602 C 0.66153 0.00068 0.93268 0.0
C603 C 0.61525 0.94411 0.95823 0.0
O604 O 0.65048 0.98721 0.99598 0.0
O605 O 0.62271 0.99469 0.978 0.0
O606 O 0.61494 0.96174 0.9484 0.0
O607 O 0.63153 0.94119 0.9696 0.0
C608 C 0.67988 0.94487 0.96378 0.0
O609 O 0.64776 0.98651 0.92856 0.0
O610 O 0.66771 0.00111 0.95189 0.0
In611 In 0.84447 0.022 0.45709 0.0
O612 O 0.82106 0.04421 0.47442 0.0
O613 O 0.82046 0.04338 0.44045 0.0
C614 C 0.85694 0.99635 0.48953 0.0
C615 C 0.82945 0.99567 0.42652 0.0
C616 C 0.87782 0.04931 0.45418 0.0
O617 O 0.83976 0.00692 0.49014 0.0
O618 O 0.86734 -0.00171 0.47241 0.0
O619 O 0.87683 0.03257 0.44293 0.0
O620 O 0.86219 0.05205 0.46649 0.0
C621 C 0.81315 0.05155 0.45734 0.0
O622 O 0.84458 0.00862 0.4232 0.0
O623 O 0.82235 0.99561 0.44542 0.0
H624 H 0.10994 0.15043 0.48529 0.0
H625 H 0.13923 0.24845 0.40835 0.0
H626 H 0.06359 0.1954 0.46124 0.0
H627 H 0.18634 0.20985 0.44059 0.0
H628 H 0.11104 0.22652 0.42417 0.0
H629 H 0.13785 0.16922 0.4654 0.0
C630 C 0.10561 0.16412 0.47565 0.0
C631 C 0.08445 0.17144 0.475 0.0
C632 C 0.12755 0.22279 0.42773 0.0
C633 C 0.11628 0.19307 0.4523 0.0
C634 C 0.14364 0.23529 0.41868 0.0
C635 C 0.16514 0.23103 0.42327 0.0
C636 C 0.13299 0.20586 0.44141 0.0
C637 C 0.16995 0.21375 0.43672 0.0
C638 C 0.12155 0.1749 0.46437 0.0
C639 C 0.07972 0.18928 0.46227 0.0
N640 N 0.154 0.20183 0.44536 0.0
N641 N 0.09552 0.19953 0.4515 0.0
H642 H 0.05599 0.81868 0.71569 0.0
H643 H 0.03141 0.94088 0.68864 0.0
H644 H 0.09742 0.87057 0.73408 0.0
H645 H 0.99518 0.88834 0.66271 0.0
H646 H 0.05609 0.91539 0.70489 0.0
H647 H 0.03405 0.84382 0.69548 0.0
C648 C 0.06058 0.83536 0.71531 0.0
C649 C 0.07851 0.84257 0.72665 0.0
C650 C 0.04282 0.90942 0.69556 0.0
C651 C 0.05331 0.8715 0.70371 0.0
C652 C 0.02869 0.92396 0.68631 0.0
C653 C 0.01116 0.9167 0.67439 0.0
C654 C 0.03933 0.88741 0.69301 0.0
C655 C 0.00846 0.89461 0.67182 0.0
C656 C 0.04803 0.84971 0.70378 0.0
C657 C 0.08372 0.86433 0.72557 0.0
N658 N 0.02232 0.88074 0.68117 0.0
N659 N 0.07107 0.87806 0.71446 0.0
H660 H 0.39191 0.8294 0.99701 0.0
H661 H 0.36642 0.73938 0.90955 0.0
H662 H 0.44014 0.78891 0.96907 0.0
H663 H 0.31833 0.77794 0.94033 0.0
H664 H 0.39404 0.7591 0.92904 0.0
H665 H 0.36508 0.81245 0.9743 0.0
C666 C 0.39686 0.817 0.98602 0.0
C667 C 0.41826 0.81049 0.98499 0.0
C668 C 0.37745 0.76332 0.93143 0.0
C669 C 0.38763 0.79094 0.95894 0.0
C670 C 0.36169 0.7521 0.92027 0.0
C671 C 0.34005 0.75697 0.9234 0.0
C672 C 0.3715 0.77952 0.94581 0.0
C673 C 0.33482 0.77359 0.93749 0.0
C674 C 0.38154 0.80731 0.97305 0.0
C675 C 0.42379 0.79437 0.97042 0.0
N676 N 0.35041 0.78419 0.94822 0.0
N677 N 0.40856 0.78509 0.95802 0.0
H678 H 0.44517 0.17657 0.21332 0.0
H679 H 0.46191 0.05049 0.20008 0.0
H680 H 0.40756 0.12946 0.24668 0.0
H681 H 0.49841 0.09773 0.16568 0.0
H682 H 0.44043 0.07909 0.21577 0.0
H683 H 0.46334 0.14789 0.19407 0.0
C684 C 0.44062 0.16018 0.21647 0.0
C685 C 0.4249 0.15538 0.23169 0.0
C686 C 0.45306 0.08321 0.2047 0.0
C687 C 0.44575 0.12243 0.20983 0.0
C688 C 0.46533 0.06688 0.19574 0.0
C689 C 0.48204 0.07175 0.18164 0.0
C690 C 0.45756 0.10458 0.19958 0.0
C691 C 0.48573 0.09326 0.17654 0.0
C692 C 0.45102 0.1438 0.2055 0.0
C693 C 0.41962 0.13387 0.23511 0.0
N694 N 0.47367 0.10888 0.18558 0.0
N695 N 0.43012 0.11819 0.22437 0.0
H696 H 0.13662 0.75353 0.0962 0.0
H697 H 0.10899 0.85442 0.02238 0.0
H698 H 0.18452 0.79185 0.06483 0.0
H699 H 0.06278 0.80672 0.04066 0.0
H700 H 0.13634 0.83503 0.04258 0.0
H701 H 0.10886 0.77617 0.08054 0.0
C702 C 0.1413 0.7668 0.08613 0.0
C703 C 0.16289 0.77074 0.08169 0.0
C704 C 0.12017 0.8289 0.04229 0.0
C705 C 0.13124 0.79673 0.06377 0.0
C706 C 0.10455 0.84001 0.03085 0.0
C707 C 0.08362 0.83209 0.02975 0.0
C708 C 0.11478 0.80984 0.05283 0.0
C709 C 0.07875 0.81332 0.04099 0.0
C710 C 0.12545 0.77968 0.07716 0.0
C711 C 0.16805 0.78817 0.06856 0.0
N712 N 0.09421 0.8028 0.052 0.0
N713 N 0.15234 0.8005 0.06003 0.0
H714 H 0.46856 0.93968 0.2978 0.0
H715 H 0.45244 0.81345 0.28412 0.0
H716 H 0.50607 0.89268 0.33144 0.0
H717 H 0.4145 0.86062 0.25121 0.0
H718 H 0.47136 0.84216 0.30266 0.0
H719 H 0.44772 0.91093 0.28161 0.0
C720 C 0.47236 0.9233 0.30184 0.0
C721 C 0.48912 0.91856 0.31594 0.0
C722 C 0.45884 0.84624 0.29146 0.0
C723 C 0.46535 0.88551 0.2974 0.0
C724 C 0.44801 0.82985 0.28088 0.0
C725 C 0.4319 0.83466 0.26606 0.0
C726 C 0.45355 0.86763 0.28716 0.0
C727 C 0.42683 0.85619 0.26249 0.0
C728 C 0.46046 0.90687 0.29258 0.0
C729 C 0.49332 0.89705 0.32062 0.0
N730 N 0.43767 0.87187 0.2729 0.0
N731 N 0.48156 0.88132 0.31132 0.0
H732 H 0.31522 0.2105 0.5609 0.0
H733 H 0.43845 0.1951 0.53089 0.0
H734 H 0.3664 0.24604 0.5903 0.0
H735 H 0.38794 0.15625 0.5047 0.0
H736 H 0.41235 0.2132 0.55351 0.0
H737 H 0.34159 0.18964 0.54105 0.0
C738 C 0.33203 0.21382 0.56328 0.0
C739 C 0.33864 0.23008 0.57721 0.0
C740 C 0.40695 0.20066 0.54289 0.0
C741 C 0.36891 0.20636 0.55443 0.0
C742 C 0.42185 0.19033 0.52995 0.0
C743 C 0.41533 0.1742 0.51583 0.0
C744 C 0.38531 0.19492 0.54166 0.0
C745 C 0.39364 0.16863 0.51533 0.0
C746 C 0.34707 0.20191 0.55193 0.0
C747 C 0.36061 0.23367 0.5797 0.0
N748 N 0.37938 0.17904 0.52799 0.0
N749 N 0.37495 0.222 0.56832 0.0
H750 H 0.09012 0.1481 0.76839 0.0
H751 H 0.98833 0.1239 0.84219 0.0
H752 H 0.04132 0.1947 0.78236 0.0
H753 H 0.03089 0.07513 0.8186 0.0
H754 H 0.00979 0.15093 0.82378 0.0
H755 H 0.0709 0.12203 0.79027 0.0
C756 C 0.07544 0.15289 0.7762 0.0
C757 C 0.06724 0.17355 0.77348 0.0
C758 C 0.01447 0.13432 0.82269 0.0
C759 C 0.04515 0.14382 0.79849 0.0
C760 C 0.00225 0.11891 0.83323 0.0
C761 C 0.00779 0.09725 0.83182 0.0
C762 C 0.03241 0.12804 0.81077 0.0
C763 C 0.026 0.09165 0.82002 0.0
C764 C 0.06445 0.13799 0.78863 0.0
C765 C 0.04816 0.1789 0.78396 0.0
N766 N 0.03763 0.10694 0.80992 0.0
N767 N 0.03774 0.16411 0.79595 0.0
H768 H 0.25299 0.40625 0.13018 0.0
H769 H 0.16156 0.4924 0.10501 0.0
H770 H 0.21542 0.43736 0.17883 0.0
H771 H 0.20499 0.46797 0.05743 0.0
H772 H 0.1789 0.46986 0.13183 0.0
H773 H 0.23333 0.42617 0.10285 0.0
C774 C 0.2405 0.41716 0.1351 0.0
C775 C 0.23588 0.42021 0.15681 0.0
C776 C 0.18461 0.46938 0.11552 0.0
C777 C 0.21335 0.44309 0.12564 0.0
C778 C 0.17469 0.48222 0.10019 0.0
C779 C 0.1819 0.48212 0.07898 0.0
C780 C 0.20183 0.45627 0.10958 0.0
C781 C 0.19896 0.4686 0.07363 0.0
C782 C 0.22933 0.42858 0.1195 0.0
C783 C 0.21956 0.43457 0.16228 0.0
N784 N 0.20836 0.45625 0.08882 0.0
N785 N 0.20892 0.4455 0.14682 0.0
H786 H 0.71034 0.04784 0.81267 0.0
H787 H 0.69025 0.03315 0.93795 0.0
H788 H 0.74104 0.0864 0.86082 0.0
H789 H 0.65447 -0.00036 0.88953 0.0
H790 H 0.70797 0.05385 0.90996 0.0
H791 H 0.68874 0.03099 0.8405 0.0
C792 C 0.71243 0.05287 0.8291 0.0
C793 C 0.72758 0.06848 0.83446 0.0
C794 C 0.69612 0.04209 0.90545 0.0
C795 C 0.703 0.04915 0.86644 0.0
C796 C 0.68599 0.03027 0.92142 0.0
C797 C 0.67093 0.01458 0.91605 0.0
C798 C 0.69129 0.03809 0.8839 0.0
C799 C 0.66601 0.01156 0.89439 0.0
C800 C 0.70008 0.04324 0.84498 0.0
C801 C 0.72958 0.0744 0.85598 0.0
N802 N 0.67628 0.02308 0.8791 0.0
N803 N 0.71755 0.06462 0.8712 0.0
H804 H 0.78233 0.95484 0.3034 0.0
H805 H 0.79715 0.9665 0.42986 0.0
H806 H 0.74381 0.92128 0.34963 0.0
H807 H 0.83877 0.99641 0.38381 0.0
H808 H 0.77847 0.9485 0.40069 0.0
H809 H 0.80406 0.96919 0.33254 0.0
C810 C 0.77849 0.95044 0.31968 0.0
C811 C 0.76118 0.93694 0.32411 0.0
C812 C 0.79179 0.95887 0.39695 0.0
C813 C 0.78594 0.95331 0.35756 0.0
C814 C 0.80249 0.96912 0.41361 0.0
C815 C 0.81948 0.98304 0.40924 0.0
C816 C 0.79803 0.96266 0.37572 0.0
C817 C 0.82572 0.98583 0.38789 0.0
C818 C 0.79092 0.95861 0.33632 0.0
C819 C 0.75697 0.9317 0.3455 0.0
N820 N 0.8149 0.97586 0.37192 0.0
N821 N 0.76919 0.93997 0.36142 0.0
H822 H 0.78597 0.02352 0.05674 0.0
H823 H 0.77531 0.04554 0.18236 0.0
H824 H 0.82609 0.99385 0.10428 0.0
H825 H 0.73467 0.07463 0.13491 0.0
H826 H 0.79512 0.02767 0.15386 0.0
H827 H 0.76798 0.04357 0.085 0.0
C828 C 0.79104 0.02128 0.07313 0.0
C829 C 0.8075 0.00695 0.07819 0.0
C830 C 0.78191 0.03801 0.14966 0.0
C831 C 0.78696 0.0298 0.11063 0.0
C832 C 0.77061 0.04822 0.16592 0.0
C833 C 0.75328 0.06153 0.16098 0.0
C834 C 0.77584 0.04108 0.12827 0.0
C835 C 0.7479 0.06447 0.13942 0.0
C836 C 0.78076 0.03272 0.08926 0.0
C837 C 0.81344 0.0047 0.09968 0.0
N838 N 0.7591 0.05427 0.12387 0.0
N839 N 0.80314 0.01596 0.11511 0.0
H840 H 0.28196 0.59423 0.65766 0.0
H841 H 0.28429 0.50198 0.57268 0.0
H842 H 0.24171 0.5388 0.66473 0.0
H843 H 0.34407 0.52527 0.59774 0.0
H844 H 0.26531 0.52185 0.60056 0.0
H845 H 0.30235 0.57522 0.62982 0.0
C846 C 0.2774 0.57813 0.65328 0.0
C847 C 0.26022 0.56798 0.66345 0.0
C848 C 0.28257 0.52265 0.59985 0.0
C849 C 0.28293 0.54662 0.63161 0.0
C850 C 0.29339 0.51145 0.58395 0.0
C851 C 0.31575 0.512 0.58302 0.0
C852 C 0.29416 0.53496 0.6145 0.0
C853 C 0.32681 0.52439 0.59806 0.0
C854 C 0.28905 0.56733 0.63756 0.0
C855 C 0.25494 0.5471 0.65733 0.0
N856 N 0.31587 0.53562 0.61315 0.0
N857 N 0.26609 0.53718 0.64159 0.0
H858 H 0.22082 0.55214 0.31533 0.0
H859 H 0.19643 0.52839 0.4386 0.0
H860 H 0.24898 0.58765 0.36723 0.0
H861 H 0.16591 0.49501 0.38662 0.0
H862 H 0.21503 0.55092 0.41274 0.0
H863 H 0.19985 0.53174 0.34114 0.0
C864 C 0.22253 0.5557 0.33217 0.0
C865 C 0.23672 0.57158 0.33916 0.0
C866 C 0.2042 0.53874 0.40696 0.0
C867 C 0.21279 0.54821 0.36884 0.0
C868 C 0.19356 0.52587 0.42173 0.0
C869 C 0.17964 0.50976 0.41474 0.0
C870 C 0.20097 0.53545 0.385 0.0
C871 C 0.17652 0.50722 0.3927 0.0
C872 C 0.21054 0.54404 0.34691 0.0
C873 C 0.23826 0.57553 0.36116 0.0
N874 N 0.18718 0.51987 0.37861 0.0
N875 N 0.22651 0.56386 0.37523 0.0
H876 H 0.34048 0.46783 0.90666 0.0
H877 H 0.25137 0.46596 0.82016 0.0
H878 H 0.27965 0.4968 0.92089 0.0
H879 H 0.27542 0.40493 0.84117 0.0
H880 H 0.26913 0.48299 0.85073 0.0
H881 H 0.3239 0.44926 0.87609 0.0
C882 C 0.32369 0.47025 0.90331 0.0
C883 C 0.31131 0.48371 0.91625 0.0
C884 C 0.27059 0.4659 0.84846 0.0
C885 C 0.29271 0.46329 0.88136 0.0
C886 C 0.26061 0.45622 0.83107 0.0
C887 C 0.26197 0.43405 0.82828 0.0
C888 C 0.28251 0.45339 0.86268 0.0
C889 C 0.27398 0.42207 0.84292 0.0
C890 C 0.3143 0.45967 0.88603 0.0
C891 C 0.28964 0.4864 0.91135 0.0
N892 N 0.28403 0.43194 0.85948 0.0
N893 N 0.28106 0.47651 0.89406 0.0
H894 H 0.60103 0.65019 0.97947 0.0
H895 H 0.6202 0.75392 0.90683 0.0
H896 H 0.55237 0.69722 0.96651 0.0
H897 H 0.6709 0.71289 0.92904 0.0
H898 H 0.59429 0.73108 0.92518 0.0
H899 H 0.62604 0.67065 0.95745 0.0
C900 C 0.59556 0.66472 0.97184 0.0
C901 C 0.57464 0.67208 0.9749 0.0
C902 C 0.61108 0.72704 0.92598 0.0
C903 C 0.60313 0.6956 0.94976 0.0
C904 C 0.62586 0.74005 0.91548 0.0
C905 C 0.64773 0.73535 0.91652 0.0
C906 C 0.61823 0.70915 0.9375 0.0
C907 C 0.65419 0.71716 0.92793 0.0
C908 C 0.60985 0.67644 0.95934 0.0
C909 C 0.5684 0.69102 0.96466 0.0
N910 N 0.63952 0.70475 0.938 0.0
N911 N 0.5826 0.70215 0.9526 0.0
H912 H 0.59077 0.35312 0.23675 0.0
H913 H 0.49726 0.37412 0.15191 0.0
H914 H 0.54974 0.30361 0.21199 0.0
H915 H 0.5338 0.42424 0.18191 0.0
H916 H 0.51917 0.34761 0.17051 0.0
H917 H 0.57281 0.37898 0.21361 0.0
C918 C 0.57807 0.34767 0.22635 0.0
C919 C 0.57162 0.32623 0.22639 0.0
C920 C 0.52249 0.36441 0.1729 0.0
C921 C 0.55099 0.3557 0.1999 0.0
C922 C 0.51003 0.37953 0.16224 0.0
C923 C 0.51364 0.40139 0.1655 0.0
C924 C 0.53867 0.37122 0.1869 0.0
C925 C 0.5304 0.40754 0.17904 0.0
C926 C 0.56781 0.36244 0.21316 0.0
C927 C 0.55512 0.32003 0.21255 0.0
N928 N 0.54222 0.39253 0.18933 0.0
N929 N 0.54531 0.33471 0.19993 0.0
H930 H 0.94438 0.28721 0.46264 0.0
H931 H 0.82138 0.28287 0.42865 0.0
H932 H 0.89666 0.33146 0.48527 0.0
H933 H 0.86947 0.24211 0.40088 0.0
H934 H 0.84914 0.30154 0.44856 0.0
H935 H 0.91767 0.27109 0.43906 0.0
C936 C 0.92831 0.29361 0.46256 0.0
C937 C 0.92269 0.31063 0.476 0.0
C938 C 0.8537 0.28861 0.43803 0.0
C939 C 0.89206 0.29224 0.44914 0.0
C940 C 0.83783 0.27793 0.42665 0.0
C941 C 0.84313 0.26085 0.41317 0.0
C942 C 0.87506 0.28209 0.43608 0.0
C943 C 0.86471 0.25519 0.41113 0.0
C944 C 0.91308 0.28441 0.44909 0.0
C945 C 0.90167 0.31831 0.47522 0.0
N946 N 0.8799 0.26569 0.4226 0.0
N947 N 0.88711 0.30899 0.46212 0.0
H948 H 0.88612 0.63565 0.72572 0.0
H949 H 0.97724 0.60943 0.63986 0.0
H950 H 0.93074 0.68249 0.70203 0.0
H951 H 0.94612 0.56128 0.67808 0.0
H952 H 0.95529 0.63677 0.6572 0.0
H953 H 0.9031 0.60864 0.70306 0.0
C954 C 0.89933 0.6403 0.71557 0.0
C955 C 0.90715 0.66128 0.71586 0.0
C956 C 0.95315 0.62019 0.66164 0.0
C957 C 0.92657 0.63054 0.68991 0.0
C958 C 0.96559 0.60458 0.65169 0.0
C959 C 0.96359 0.58308 0.65767 0.0
C960 C 0.93849 0.61423 0.67754 0.0
C961 C 0.94826 0.57769 0.67311 0.0
C962 C 0.90905 0.62487 0.70272 0.0
C963 C 0.92431 0.66644 0.7024 0.0
N964 N 0.93635 0.59318 0.68258 0.0
N965 N 0.93349 0.65116 0.69001 0.0
H966 H 0.61407 0.3419 0.50421 0.0
H967 H 0.63744 0.24902 0.58932 0.0
H968 H 0.56485 0.30312 0.53287 0.0
H969 H 0.68678 0.28488 0.55728 0.0
H970 H 0.61047 0.27048 0.57086 0.0
H971 H 0.64079 0.32302 0.52558 0.0
C972 C 0.60887 0.32949 0.5151 0.0
C973 C 0.58722 0.32401 0.51671 0.0
C974 C 0.62719 0.27372 0.56793 0.0
C975 C 0.61771 0.30228 0.54118 0.0
C976 C 0.6426 0.2615 0.5785 0.0
C977 C 0.66438 0.26512 0.57476 0.0
C978 C 0.63362 0.28971 0.55354 0.0
C979 C 0.67015 0.2815 0.56058 0.0
C980 C 0.62414 0.31869 0.52727 0.0
C981 C 0.58139 0.30782 0.53108 0.0
N982 N 0.65488 0.29313 0.55044 0.0
N983 N 0.59655 0.29748 0.5427 0.0
H984 H 0.91119 0.35493 0.75267 0.0
H985 H 0.00641 0.37939 0.83476 0.0
H986 H 0.95065 0.30597 0.78085 0.0
H987 H 0.96867 0.42818 0.80405 0.0
H988 H 0.98484 0.35209 0.81689 0.0
H989 H 0.93074 0.38187 0.77308 0.0
C990 C 0.92392 0.34985 0.76322 0.0
C991 C 0.92936 0.3282 0.76502 0.0
C992 C 0.98123 0.36877 0.81413 0.0
C993 C 0.95186 0.35894 0.78841 0.0
C994 C 0.99352 0.38435 0.82435 0.0
C995 C 0.98936 0.40607 0.82082 0.0
C996 C 0.96467 0.37498 0.8003 0.0
C997 C 0.97246 0.41161 0.80718 0.0
C998 C 0.9351 0.36523 0.77487 0.0
C999 C 0.94597 0.32251 0.77896 0.0
N1000 N 0.96079 0.39618 0.79738 0.0
N1001 N 0.95667 0.33778 0.79007 0.0
H1002 H 0.86549 0.75047 0.08555 0.0
H1003 H 0.88662 0.64563 0.01509 0.0
H1004 H 0.81547 0.70842 0.06374 0.0
H1005 H 0.93469 0.69315 0.02839 0.0
H1006 H 0.86115 0.666 0.03668 0.0
H1007 H 0.89188 0.72725 0.06845 0.0
C1008 C 0.86008 0.73627 0.07729 0.0
C1009 C 0.83826 0.73143 0.07595 0.0
C1010 C 0.87731 0.6719 0.03498 0.0
C1011 C 0.86832 0.70479 0.05633 0.0
C1012 C 0.89186 0.66024 0.02272 0.0
C1013 C 0.91275 0.66778 0.01985 0.0
C1014 C 0.88373 0.69118 0.0445 0.0
C1015 C 0.9187 0.68681 0.03009 0.0
C1016 C 0.87513 0.72304 0.06749 0.0
C1017 C 0.83213 0.71281 0.06507 0.0
N1018 N 0.90424 0.69789 0.04189 0.0
N1019 N 0.84707 0.70021 0.05562 0.0
H1020 H 0.50131 0.62047 0.34881 0.0
H1021 H 0.60008 0.64712 0.27196 0.0
H1022 H 0.54108 0.57241 0.31957 0.0
H1023 H 0.55174 0.69308 0.28924 0.0
H1024 H 0.58218 0.62052 0.29432 0.0
H1025 H 0.52319 0.64819 0.332 0.0
C1026 C 0.51477 0.61576 0.33903 0.0
C1027 C 0.5193 0.59413 0.33543 0.0
C1028 C 0.57559 0.63647 0.29334 0.0
C1029 C 0.54436 0.6257 0.31618 0.0
C1030 C 0.58583 0.65168 0.28064 0.0
C1031 C 0.57728 0.67228 0.27863 0.0
C1032 C 0.55672 0.64195 0.30418 0.0
C1033 C 0.55879 0.67733 0.29024 0.0
C1034 C 0.52721 0.63158 0.32939 0.0
C1035 C 0.53694 0.58891 0.32264 0.0
N1036 N 0.54907 0.66224 0.30245 0.0
N1037 N 0.54878 0.60458 0.31341 0.0
H1038 H 0.75027 0.91585 0.63851 0.0
H1039 H 0.66142 0.00152 0.60463 0.0
H1040 H 0.71351 0.95272 0.68364 0.0
H1041 H 0.70258 0.96956 0.55956 0.0
H1042 H 0.67823 0.98151 0.63362 0.0
H1043 H 0.73098 0.93315 0.60925 0.0
C1044 C 0.73807 0.92752 0.64226 0.0
C1045 C 0.73353 0.93292 0.66353 0.0
C1046 C 0.68354 0.97879 0.61739 0.0
C1047 C 0.7114 0.95278 0.63014 0.0
C1048 C 0.6739 0.99018 0.60082 0.0
C1049 C 0.68067 0.98725 0.57966 0.0
C1050 C 0.70005 0.96432 0.61279 0.0
C1051 C 0.69691 0.97235 0.57565 0.0
C1052 C 0.72708 0.9374 0.62555 0.0
C1053 C 0.71756 0.94812 0.66747 0.0
N1054 N 0.7061 0.96149 0.59207 0.0
N1055 N 0.7071 0.95755 0.65094 0.0
H1056 H 0.24747 0.39518 0.27817 0.0
H1057 H 0.19207 0.29072 0.32677 0.0
H1058 H 0.22311 0.34347 0.2397 0.0
H1059 H 0.22543 0.33801 0.36414 0.0
H1060 H 0.19685 0.31316 0.29498 0.0
H1061 H 0.23294 0.37781 0.30999 0.0
C1062 C 0.23878 0.38033 0.27638 0.0
C1063 C 0.2367 0.37062 0.25632 0.0
C1064 C 0.20287 0.31873 0.31021 0.0
C1065 C 0.2202 0.35055 0.29264 0.0
C1066 C 0.20007 0.30597 0.32834 0.0
C1067 C 0.2086 0.31243 0.34802 0.0
C1068 C 0.21419 0.33806 0.31187 0.0
C1069 C 0.21882 0.33233 0.34921 0.0
C1070 C 0.23055 0.37038 0.29455 0.0
C1071 C 0.22523 0.35141 0.25491 0.0
N1072 N 0.22149 0.34434 0.33136 0.0
N1073 N 0.2176 0.34188 0.27286 0.0
H1074 H 0.84079 0.99455 0.53014 0.0
H1075 H 0.94505 0.93755 0.57752 0.0
H1076 H 0.89277 0.97151 0.49125 0.0
H1077 H 0.89885 0.97175 0.61546 0.0
H1078 H 0.92233 0.9428 0.54599 0.0
H1079 H 0.85813 0.97922 0.56165 0.0
C1080 C 0.85568 0.98598 0.52818 0.0
C1081 C 0.86549 0.98452 0.5081 0.0
C1082 C 0.91705 0.94888 0.56129 0.0
C1083 C 0.88549 0.96706 0.54407 0.0
C1084 C 0.92995 0.94578 0.57929 0.0
C1085 C 0.92391 0.95444 0.59904 0.0
C1086 C 0.89798 0.9606 0.56317 0.0
C1087 C 0.90421 0.96501 0.60046 0.0
C1088 C 0.86561 0.97729 0.54618 0.0
C1089 C 0.88476 0.97318 0.50648 0.0
N1090 N 0.89204 0.96795 0.58275 0.0
N1091 N 0.89424 0.96506 0.52425 0.0
H1092 H 0.31573 0.68816 0.82867 0.0
H1093 H 0.24506 0.59122 0.78486 0.0
H1094 H 0.27142 0.65179 0.86687 0.0
H1095 H 0.28385 0.63159 0.7447 0.0
H1096 H 0.26064 0.60834 0.81635 0.0
H1097 H 0.31007 0.66302 0.7991 0.0
C1098 C 0.30511 0.6747 0.83094 0.0
C1099 C 0.29379 0.6722 0.85009 0.0
C1100 C 0.266 0.61323 0.80065 0.0
C1101 C 0.28718 0.64351 0.81648 0.0
C1102 C 0.25719 0.60336 0.78268 0.0
C1103 C 0.26295 0.6102 0.76215 0.0
C1104 C 0.28061 0.6301 0.79805 0.0
C1105 C 0.27876 0.626 0.76025 0.0
C1106 C 0.30183 0.66039 0.81407 0.0
C1107 C 0.28024 0.65448 0.85224 0.0
N1108 N 0.28683 0.63562 0.77796 0.0
N1109 N 0.27717 0.64095 0.83559 0.0
H1110 H 0.5954 0.01925 0.99716 0.0
H1111 H 0.59156 0.01645 0.12412 0.0
H1112 H 0.64782 0.99784 0.03641 0.0
H1113 H 0.54204 0.0448 0.08552 0.0
H1114 H 0.61388 0.01298 0.09236 0.0
H1115 H 0.57717 0.03214 0.02917 0.0
C1116 C 0.60321 0.01753 0.0125 0.0
C1117 C 0.62307 0.00727 0.01416 0.0
C1118 C 0.59825 0.02022 0.09082 0.0
C1119 C 0.60217 0.02178 0.05091 0.0
C1120 C 0.58549 0.0222 0.10897 0.0
C1121 C 0.56484 0.03075 0.10739 0.0
C1122 C 0.59023 0.02656 0.07086 0.0
C1123 C 0.55784 0.03806 0.08741 0.0
C1124 C 0.59278 0.02489 0.03078 0.0
C1125 C 0.63248 0.00556 0.03442 0.0
N1126 N 0.5704 0.03553 0.06985 0.0
N1127 N 0.62183 0.01249 0.05203 0.0
H1128 H 0.19201 0.70785 0.17753 0.0
H1129 H 0.2512 0.60314 0.22064 0.0
H1130 H 0.22292 0.6612 0.13734 0.0
H1131 H 0.22393 0.6511 0.26192 0.0
H1132 H 0.23568 0.62141 0.18984 0.0
H1133 H 0.19826 0.68457 0.20848 0.0
C1134 C 0.19977 0.69257 0.17518 0.0
C1135 C 0.20719 0.68653 0.15493 0.0
C1136 C 0.23287 0.62783 0.20565 0.0
C1137 C 0.2145 0.65998 0.19011 0.0
C1138 C 0.24171 0.61737 0.22324 0.0
C1139 C 0.23904 0.62575 0.24382 0.0
C1140 C 0.22139 0.6469 0.20865 0.0
C1141 C 0.22651 0.64418 0.24628 0.0
C1142 C 0.20341 0.67933 0.19283 0.0
C1143 C 0.21716 0.66659 0.15273 0.0
N1144 N 0.21834 0.65428 0.22888 0.0
N1145 N 0.22069 0.65414 0.17011 0.0
H1146 H 0.65805 -0.00038 0.45774 0.0
H1147 H 0.55214 0.94443 0.41172 0.0
H1148 H 0.60658 0.97693 0.49753 0.0
H1149 H 0.5958 0.982 0.37395 0.0
H1150 H 0.57582 0.94889 0.44268 0.0
H1151 H 0.63934 0.98571 0.42635 0.0
C1152 C 0.64299 0.99139 0.45991 0.0
C1153 C 0.63373 0.98963 0.48022 0.0
C1154 C 0.58032 0.95591 0.42752 0.0
C1155 C 0.6122 0.9738 0.44441 0.0
C1156 C 0.56688 0.95328 0.40986 0.0
C1157 C 0.57194 0.96305 0.39034 0.0
C1158 C 0.599 0.96821 0.42553 0.0
C1159 C 0.5912 0.9744 0.38878 0.0
C1160 C 0.63227 0.98354 0.44198 0.0
C1161 C 0.61419 0.9788 0.48211 0.0
N1162 N 0.60395 0.97677 0.40616 0.0
N1163 N 0.60398 0.97145 0.46441 0.0
H1164 H 0.30673 0.34049 0.63555 0.0
H1165 H 0.27749 0.35244 0.75897 0.0
H1166 H 0.30731 0.28849 0.68077 0.0
H1167 H 0.26618 0.40158 0.71199 0.0
H1168 H 0.29642 0.33155 0.7321 0.0
H1169 H 0.30022 0.36543 0.66488 0.0
C1170 C 0.306 0.33437 0.65172 0.0
C1171 C 0.30728 0.31234 0.65572 0.0
C1172 C 0.29005 0.34702 0.7277 0.0
C1173 C 0.29958 0.34077 0.68928 0.0
C1174 C 0.27925 0.35899 0.74305 0.0
C1175 C 0.26998 0.37865 0.73761 0.0
C1176 C 0.29155 0.3547 0.7067 0.0
C1177 C 0.27293 0.38641 0.7168 0.0
C1178 C 0.30215 0.34861 0.66843 0.0
C1179 C 0.30624 0.30532 0.67696 0.0
N1180 N 0.28325 0.37429 0.70201 0.0
N1181 N 0.30217 0.31946 0.69292 0.0
H1182 H 0.83862 0.0113 0.9637 0.0
H1183 H 0.95104 0.06246 0.93423 0.0
H1184 H 0.88946 0.02137 0.0091 0.0
H1185 H 0.89903 0.05664 0.88941 0.0
H1186 H 0.92666 0.05298 0.96316 0.0
H1187 H 0.85836 0.03266 0.93752 0.0
C1188 C 0.8538 0.01823 0.96823 0.0
C1189 C 0.86256 0.01432 0.98847 0.0
C1190 C 0.92045 0.05414 0.94706 0.0
C1191 C 0.88527 0.03866 0.95867 0.0
C1192 C 0.93437 0.05968 0.93055 0.0
C1193 C 0.92712 0.06005 0.90937 0.0
C1194 C 0.8992 0.0487 0.9423 0.0
C1195 C 0.90534 0.05636 0.90551 0.0
C1196 C 0.86506 0.03043 0.95331 0.0
C1197 C 0.88223 0.02378 0.99358 0.0
N1198 N 0.89223 0.05045 0.92177 0.0
N1199 N 0.89302 0.03528 0.9787 0.0
H1200 H 0.36907 0.2143 0.34067 0.0
H1201 H 0.24301 0.21989 0.34838 0.0
H1202 H 0.32749 0.18479 0.29436 0.0
H1203 H 0.28504 0.23918 0.39945 0.0
H1204 H 0.27332 0.20352 0.33006 0.0
H1205 H 0.33852 0.21997 0.36411 0.0
C1206 C 0.35349 0.20873 0.33558 0.0
C1207 C 0.35071 0.19928 0.31546 0.0
C1208 C 0.27588 0.21104 0.34542 0.0
C1209 C 0.31556 0.20604 0.34209 0.0
C1210 C 0.25859 0.22041 0.35588 0.0
C1211 C 0.26159 0.23113 0.37533 0.0
C1212 C 0.29638 0.21263 0.35436 0.0
C1213 C 0.28206 0.23121 0.3844 0.0
C1214 C 0.33605 0.21196 0.34898 0.0
C1215 C 0.33027 0.19221 0.30973 0.0
N1216 N 0.29873 0.22237 0.37369 0.0
N1217 N 0.31337 0.19606 0.32284 0.0
H1218 H 0.01407 0.98813 0.59344 0.0
H1219 H 0.02455 0.11398 0.58379 0.0
H1220 H -0.00136 0.03183 0.64444 0.0
H1221 H 0.05046 0.07096 0.53666 0.0
H1222 H 0.01788 0.08381 0.60737 0.0
H1223 H 0.03026 0.01761 0.57356 0.0
C1224 C 0.01433 0.00389 0.60057 0.0
C1225 C 0.00479 0.00762 0.62051 0.0
C1226 C 0.02526 0.08089 0.592 0.0
C1227 C 0.02313 0.0414 0.5978 0.0
C1228 C 0.02904 0.09813 0.57851 0.0
C1229 C 0.03785 0.09488 0.55819 0.0
C1230 C 0.02997 0.06013 0.58501 0.0
C1231 C 0.04358 0.07408 0.55222 0.0
C1232 C 0.0236 0.0207 0.58922 0.0
C1233 C 0.00567 0.02829 0.62905 0.0
N1234 N 0.03922 0.05739 0.56547 0.0
N1235 N 0.01444 0.04444 0.61753 0.0
H1236 H 0.18732 0.80888 0.78189 0.0
H1237 H 0.22664 0.76271 0.89456 0.0
H1238 H 0.14624 0.79534 0.83546 0.0
H1239 H 0.26655 0.76439 0.83841 0.0
H1240 H 0.19906 0.78215 0.87503 0.0
H1241 H 0.21847 0.80016 0.80428 0.0
C1242 C 0.18493 0.80458 0.79848 0.0
C1243 C 0.16427 0.80258 0.80684 0.0
C1244 C 0.21393 0.77847 0.86701 0.0
C1245 C 0.1995 0.79255 0.83236 0.0
C1246 C 0.22969 0.76738 0.87818 0.0
C1247 C 0.24878 0.76168 0.868 0.0
C1248 C 0.21722 0.78383 0.84545 0.0
C1249 C 0.25195 0.7683 0.84679 0.0
C1250 C 0.20264 0.79946 0.81119 0.0
C1251 C 0.16194 0.79681 0.82835 0.0
N1252 N 0.23622 0.77883 0.83612 0.0
N1253 N 0.17929 0.79186 0.8403 0.0
H1254 H 0.4932 0.95133 0.15817 0.0
H1255 H 0.44189 0.90811 0.04921 0.0
H1256 H 0.47484 0.99215 0.10576 0.0
H1257 H 0.47353 0.86846 0.09583 0.0
H1258 H 0.44625 0.93888 0.07319 0.0
H1259 H 0.47835 0.92073 0.13894 0.0
C1260 C 0.48575 0.9539 0.14277 0.0
C1261 C 0.4855 0.97424 0.13342 0.0
C1262 C 0.45195 0.92336 0.07826 0.0
C1263 C 0.46859 0.93933 0.11128 0.0
C1264 C 0.44937 0.90582 0.06465 0.0
C1265 C 0.4576 0.88583 0.07048 0.0
C1266 C 0.46267 0.92075 0.09784 0.0
C1267 C 0.4672 0.88369 0.09062 0.0
C1268 C 0.47734 0.93643 0.13176 0.0
C1269 C 0.47557 0.97668 0.11345 0.0
N1270 N 0.46961 0.90095 0.10349 0.0
N1271 N 0.4677 0.9594 0.10294 0.0
H1272 H 0.33109 0.80956 0.20826 0.0
H1273 H 0.28326 0.75694 0.10185 0.0
H1274 H 0.36815 0.7739 0.16244 0.0
H1275 H 0.24447 0.77719 0.15507 0.0
H1276 H 0.31484 0.771 0.1201 0.0
H1277 H 0.29962 0.80553 0.18516 0.0
C1278 C 0.33267 0.80124 0.19318 0.0
C1279 C 0.35213 0.79183 0.18733 0.0
C1280 C 0.29937 0.77261 0.12766 0.0
C1281 C 0.31641 0.78719 0.16095 0.0
C1282 C 0.28134 0.76466 0.11721 0.0
C1283 C 0.26128 0.76567 0.12709 0.0
C1284 C 0.29729 0.78169 0.14809 0.0
C1285 C 0.2597 0.77589 0.14699 0.0
C1286 C 0.31473 0.79886 0.18007 0.0
C1287 C 0.35336 0.78118 0.16766 0.0
N1288 N 0.2775 0.78334 0.15694 0.0
N1289 N 0.33572 0.77903 0.15524 0.0
H1290 H 0.48684 0.03483 0.34503 0.0
H1291 H 0.43755 0.10983 0.40997 0.0
H1292 H 0.48192 0.99181 0.39862 0.0
H1293 H 0.45899 0.06912 0.46127 0.0
H1294 H 0.44432 0.0809 0.38467 0.0
H1295 H 0.46859 0.06224 0.36586 0.0
C1296 C 0.4815 0.03103 0.36104 0.0
C1297 C 0.48604 0.01108 0.37015 0.0
C1298 C 0.44758 0.07824 0.40142 0.0
C1299 C 0.46478 0.04227 0.39414 0.0
C1300 C 0.44338 0.09467 0.41594 0.0
C1301 C 0.44804 0.09198 0.43771 0.0
C1302 C 0.45666 0.05905 0.40876 0.0
C1303 C 0.45541 0.07198 0.44459 0.0
C1304 C 0.47088 0.04665 0.37294 0.0
C1305 C 0.47886 0.00702 0.391 0.0
N1306 N 0.4597 0.05638 0.43014 0.0
N1307 N 0.46887 0.02256 0.40236 0.0
H1308 H 0.17151 0.19875 0.71566 0.0
H1309 H 0.2197 0.24661 0.60708 0.0
H1310 H 0.13494 0.23217 0.66776 0.0
H1311 H 0.25908 0.22665 0.66001 0.0
H1312 H 0.18815 0.23462 0.62658 0.0
H1313 H 0.20348 0.20257 0.69309 0.0
C1314 C 0.17018 0.20665 0.70033 0.0
C1315 C 0.15066 0.21536 0.69364 0.0
C1316 C 0.2037 0.23267 0.63387 0.0
C1317 C 0.18686 0.21965 0.66783 0.0
C1318 C 0.22173 0.23943 0.62269 0.0
C1319 C 0.242 0.23782 0.63203 0.0
C1320 C 0.20593 0.22424 0.65457 0.0
C1321 C 0.2437 0.22832 0.65229 0.0
C1322 C 0.18838 0.20888 0.6875 0.0
C1323 C 0.14974 0.22544 0.67365 0.0
N1324 N 0.22587 0.22205 0.66299 0.0
N1325 N 0.16756 0.22736 0.66152 0.0
H1326 H 0.04996 0.93596 0.97217 0.0
H1327 H 0.00012 0.97803 0.8619 0.0
H1328 H 0.02241 0.89568 0.92353 0.0
H1329 H 0.01535 0.01972 0.91461 0.0
H1330 H 0.0149 0.948 0.88194 0.0
H1331 H 0.04362 0.96717 0.94908 0.0
C1332 C 0.04283 0.93368 0.95657 0.0
C1333 C 0.03645 0.91331 0.94983 0.0
C1334 C 0.0152 0.96375 0.88907 0.0
C1335 C 0.02931 0.94864 0.92344 0.0
C1336 C 0.00683 0.98091 0.87758 0.0
C1337 C 0.0063 0.00133 0.8867 0.0
C1338 C 0.02307 0.96702 0.90985 0.0
C1339 C 0.0153 0.00417 0.90706 0.0
C1340 C 0.03917 0.95144 0.94345 0.0
C1341 C 0.02731 0.91116 0.92948 0.0
N1342 N 0.02314 0.98716 0.91806 0.0
N1343 N 0.02394 0.92858 0.91708 0.0
H1344 H 0.2854 0.31478 0.19412 0.0
H1345 H 0.39879 0.27349 0.23521 0.0
H1346 H 0.34108 0.35502 0.19919 0.0
H1347 H 0.34412 0.23257 0.22611 0.0
H1348 H 0.37918 0.30271 0.21813 0.0
H1349 H 0.30779 0.28362 0.20147 0.0
C1350 C 0.3024 0.31701 0.19636 0.0
C1351 C 0.31135 0.33753 0.19623 0.0
C1352 C 0.37156 0.28727 0.21964 0.0
C1353 C 0.33704 0.30202 0.20503 0.0
C1354 C 0.38277 0.27059 0.22939 0.0
C1355 C 0.373 0.25064 0.23227 0.0
C1356 C 0.35039 0.284 0.21286 0.0
C1357 C 0.35222 0.24775 0.22437 0.0
C1358 C 0.31519 0.29922 0.20066 0.0
C1359 C 0.33349 0.33949 0.19928 0.0
N1360 N 0.34154 0.26428 0.21524 0.0
N1361 N 0.34551 0.32201 0.20383 0.0
H1362 H 0.7948 0.16408 0.80973 0.0
H1363 H 0.89889 0.20679 0.749 0.0
H1364 H 0.83725 0.12468 0.77243 0.0
H1365 H 0.85354 0.24813 0.78033 0.0
H1366 H 0.87986 0.17584 0.76323 0.0
H1367 H 0.8193 0.19432 0.80471 0.0
C1368 C 0.80941 0.16173 0.80078 0.0
C1369 C 0.8139 0.14197 0.79125 0.0
C1370 C 0.87419 0.19168 0.76722 0.0
C1371 C 0.84187 0.17631 0.78541 0.0
C1372 C 0.88511 0.20935 0.75915 0.0
C1373 C 0.87764 0.23003 0.76329 0.0
C1374 C 0.85559 0.1947 0.77944 0.0
C1375 C 0.85975 0.23243 0.7766 0.0
C1376 C 0.82335 0.17897 0.79786 0.0
C1377 C 0.83304 0.13974 0.77983 0.0
N1378 N 0.84918 0.21497 0.78401 0.0
N1379 N 0.84621 0.15671 0.77709 0.0
H1380 H 0.03008 0.64323 0.99491 0.0
H1381 H 0.08218 0.54324 0.05557 0.0
H1382 H 0.99316 0.59504 0.02751 0.0
H1383 H 0.11692 0.58673 0.01496 0.0
H1384 H 0.05012 0.5654 0.05095 0.0
H1385 H 0.06279 0.62626 0.00786 0.0
C1386 C 0.02885 0.62927 0.00506 0.0
C1387 C 0.0089 0.6204 0.00995 0.0
C1388 C 0.06485 0.57018 0.04325 0.0
C1389 C 0.04623 0.60076 0.02466 0.0
C1390 C 0.08312 0.55758 0.04594 0.0
C1391 C 0.10212 0.56304 0.03543 0.0
C1392 C 0.06571 0.58838 0.03008 0.0
C1393 C 0.10251 0.58179 0.02315 0.0
C1394 C 0.04752 0.61953 0.01239 0.0
C1395 C 0.00824 0.60231 0.02321 0.0
N1396 N 0.08458 0.59368 0.02071 0.0
N1397 N 0.02664 0.59295 0.02993 0.0
H1398 H 0.59625 0.79129 0.24692 0.0
H1399 H 0.69578 0.8463 0.3053 0.0
H1400 H 0.64316 0.7567 0.28368 0.0
H1401 H 0.65507 0.87819 0.25976 0.0
H1402 H 0.67238 0.81496 0.30356 0.0
H1403 H 0.61318 0.82482 0.25772 0.0
C1404 C 0.60987 0.79077 0.25758 0.0
C1405 C 0.61848 0.7712 0.2642 0.0
C1406 C 0.66845 0.82892 0.29415 0.0
C1407 C 0.63804 0.80942 0.27645 0.0
C1408 C 0.68176 0.84681 0.29519 0.0
C1409 C 0.67749 0.86473 0.28245 0.0
C1410 C 0.65073 0.82904 0.28034 0.0
C1411 C 0.65908 0.86459 0.26966 0.0
C1412 C 0.61959 0.8099 0.26365 0.0
C1413 C 0.63614 0.77145 0.27802 0.0
N1414 N 0.64649 0.84697 0.26879 0.0
N1415 N 0.64548 0.79024 0.2835 0.0
H1416 H 0.96371 0.84952 0.00218 0.0
H1417 H 0.90462 0.94627 0.06134 0.0
H1418 H 0.99657 0.89747 0.03918 0.0
H1419 H 0.87529 0.90583 0.01389 0.0
H1420 H 0.93681 0.92394 0.05975 0.0
H1421 H 0.9296 0.86516 0.01304 0.0
C1422 C 0.96374 0.86309 0.01292 0.0
C1423 C 0.98298 0.87239 0.01957 0.0
C1424 C 0.92321 0.91983 0.04989 0.0
C1425 C 0.94408 0.89049 0.03188 0.0
C1426 C 0.90485 0.93252 0.05084 0.0
C1427 C 0.88742 0.92803 0.03752 0.0
C1428 C 0.924 0.90249 0.03563 0.0
C1429 C 0.8885 0.91002 0.02423 0.0
C1430 C 0.94427 0.87208 0.01903 0.0
C1431 C 0.98209 0.88993 0.03351 0.0
N1432 N 0.90652 0.89801 0.02352 0.0
N1433 N 0.96296 0.89857 0.03901 0.0
H1434 H 0.16937 0.64042 0.74059 0.0
H1435 H 0.15365 0.76387 0.71745 0.0
H1436 H 0.20503 0.67305 0.69147 0.0
H1437 H 0.10913 0.72578 0.75371 0.0
H1438 H 0.17205 0.73119 0.70643 0.0
H1439 H 0.147 0.67181 0.7449 0.0
C1440 C 0.17252 0.65427 0.7307 0.0
C1441 C 0.18924 0.65423 0.71579 0.0
C1442 C 0.15807 0.72997 0.71652 0.0
C1443 C 0.16355 0.69039 0.72068 0.0
C1444 C 0.14753 0.7486 0.7228 0.0
C1445 C 0.12995 0.74751 0.73668 0.0
C1446 C 0.1511 0.71019 0.7244 0.0
C1447 C 0.12267 0.72735 0.74309 0.0
C1448 C 0.15961 0.67216 0.73307 0.0
C1449 C 0.19237 0.67251 0.70322 0.0
N1450 N 0.13345 0.70951 0.73712 0.0
N1451 N 0.17976 0.69001 0.70611 0.0
H1452 H 0.04011 0.33592 0.49453 0.0
H1453 H 0.08161 0.44152 0.4354 0.0
H1454 H -0.00157 0.38484 0.46968 0.0
H1455 H 0.12191 0.39827 0.47077 0.0
H1456 H 0.05147 0.41697 0.44075 0.0
H1457 H 0.07065 0.35467 0.47891 0.0
C1458 C 0.03736 0.35043 0.48552 0.0
C1459 C 0.01676 0.35899 0.48363 0.0
C1460 C 0.06701 0.41273 0.44705 0.0
C1461 C 0.05158 0.38058 0.46582 0.0
C1462 C 0.0842 0.42667 0.44388 0.0
C1463 C 0.10416 0.42201 0.45289 0.0
C1464 C 0.06993 0.39403 0.45917 0.0
C1465 C 0.10669 0.40259 0.46379 0.0
C1466 C 0.05478 0.36117 0.47665 0.0
C1467 C 0.01409 0.37781 0.47172 0.0
N1468 N 0.08975 0.38942 0.46679 0.0
N1469 N 0.03131 0.38809 0.46344 0.0
H1470 H 0.3724 0.58267 0.99043 0.0
H1471 H 0.49463 0.60234 0.96458 0.0
H1472 H 0.40557 0.54887 0.94041 0.0
H1473 H 0.45723 0.64363 0.00511 0.0
H1474 H 0.46188 0.58452 0.95306 0.0
H1475 H 0.40267 0.60682 0.99387 0.0
C1476 C 0.38605 0.58044 0.98005 0.0
C1477 C 0.38662 0.56361 0.96528 0.0
C1478 C 0.46078 0.5977 0.9642 0.0
C1479 C 0.4215 0.59115 0.96925 0.0
C1480 C 0.47947 0.6079 0.97078 0.0
C1481 C 0.47864 0.62434 0.98601 0.0
C1482 C 0.44115 0.60382 0.97312 0.0
C1483 C 0.4586 0.63095 0.99343 0.0
C1484 C 0.40332 0.5943 0.98196 0.0
C1485 C 0.40457 0.5616 0.95206 0.0
N1486 N 0.44067 0.62046 0.98715 0.0
N1487 N 0.42148 0.57505 0.95457 0.0
H1488 H 0.67903 0.79298 0.81392 0.0
H1489 H 0.72754 0.90573 0.78058 0.0
H1490 H 0.68636 0.84575 0.8576 0.0
H1491 H 0.71849 0.85314 0.737 0.0
H1492 H 0.70713 0.8862 0.80766 0.0
H1493 H 0.68743 0.8169 0.78425 0.0
C1494 C 0.68192 0.80971 0.81722 0.0
C1495 C 0.68228 0.81733 0.83827 0.0
C1496 C 0.70936 0.87906 0.79207 0.0
C1497 C 0.69237 0.84472 0.80446 0.0
C1498 C 0.721 0.89021 0.77662 0.0
C1499 C 0.72495 0.88091 0.75663 0.0
C1500 C 0.70172 0.85843 0.7875 0.0
C1501 C 0.71603 0.86081 0.7523 0.0
C1502 C 0.68684 0.82336 0.80028 0.0
C1503 C 0.6861 0.83917 0.84162 0.0
N1504 N 0.70506 0.85016 0.76767 0.0
N1505 N 0.69135 0.85203 0.82493 0.0
H1506 H 0.39905 0.45707 0.11751 0.0
H1507 H 0.33196 0.47887 0.03332 0.0
H1508 H 0.44168 0.42816 0.07183 0.0
H1509 H 0.38854 0.47023 0.99499 0.0
H1510 H 0.34972 0.46067 0.0629 0.0
H1511 H 0.37336 0.46339 0.08927 0.0
C1512 C 0.40276 0.45157 0.10153 0.0
C1513 C 0.42259 0.44225 0.09694 0.0
C1514 C 0.35837 0.46285 0.04812 0.0
C1515 C 0.39298 0.44923 0.06424 0.0
C1516 C 0.34809 0.47303 0.03112 0.0
C1517 C 0.35896 0.47648 0.01186 0.0
C1518 C 0.3798 0.4564 0.04589 0.0
C1519 C 0.37969 0.46824 0.00971 0.0
C1520 C 0.38792 0.45502 0.08533 0.0
C1521 C 0.42657 0.43542 0.076 0.0
N1522 N 0.38953 0.45884 0.02661 0.0
N1523 N 0.41204 0.43943 0.06032 0.0
H1524 H 0.7974 0.21259 0.3079 0.0
H1525 H 0.76042 0.0954 0.27494 0.0
H1526 H 0.80517 0.15756 0.34865 0.0
H1527 H 0.7591 0.14946 0.23221 0.0
H1528 H 0.78028 0.11697 0.30087 0.0
H1529 H 0.78743 0.18893 0.27851 0.0
C1530 C 0.79747 0.19549 0.31053 0.0
C1531 C 0.80193 0.18704 0.33079 0.0
C1532 C 0.77586 0.12404 0.28571 0.0
C1533 C 0.79008 0.15986 0.29737 0.0
C1534 C 0.76449 0.11173 0.27094 0.0
C1535 C 0.75793 0.12071 0.2515 0.0
C1536 C 0.78053 0.14551 0.28106 0.0
C1537 C 0.76371 0.14192 0.24708 0.0
C1538 C 0.79166 0.18197 0.29377 0.0
C1539 C 0.80175 0.16476 0.3333 0.0
N1540 N 0.77447 0.15364 0.26181 0.0
N1541 N 0.79558 0.15196 0.31689 0.0
H1542 H 0.07835 0.52881 0.60755 0.0
H1543 H 0.09326 0.51346 0.48244 0.0
H1544 H 0.03067 0.54804 0.56171 0.0
H1545 H 0.14294 0.50192 0.52879 0.0
H1546 H 0.07131 0.52947 0.5105 0.0
H1547 H 0.10334 0.52237 0.5785 0.0
C1548 C 0.07322 0.53189 0.59131 0.0
C1549 C 0.05236 0.53875 0.58697 0.0
C1550 C 0.08712 0.5237 0.51448 0.0
C1551 C 0.08086 0.5311 0.5535 0.0
C1552 C 0.09966 0.51455 0.49848 0.0
C1553 C 0.11987 0.50615 0.50336 0.0
C1554 C 0.09478 0.5243 0.53555 0.0
C1555 C 0.1274 0.50807 0.52435 0.0
C1556 C 0.08752 0.52823 0.57471 0.0
C1557 C 0.04662 0.5427 0.56569 0.0
N1558 N 0.11476 0.51673 0.53971 0.0
N1559 N 0.06072 0.5385 0.54966 0.0
H1560 H 0.6886 0.201 0.67249 0.0
H1561 H 0.74205 0.09286 0.71526 0.0
H1562 H 0.72173 0.15563 0.63264 0.0
H1563 H 0.72126 0.14406 0.75641 0.0
H1564 H 0.72744 0.11218 0.68457 0.0
H1565 H 0.69326 0.17682 0.70304 0.0
C1566 C 0.69648 0.18579 0.6701 0.0
C1567 C 0.705 0.18039 0.65011 0.0
C1568 C 0.72585 0.11907 0.70036 0.0
C1569 C 0.71045 0.15278 0.68483 0.0
C1570 C 0.73412 0.10801 0.71788 0.0
C1571 C 0.73309 0.11699 0.73836 0.0
C1572 C 0.71645 0.13924 0.70335 0.0
C1573 C 0.72258 0.13665 0.74084 0.0
C1574 C 0.69924 0.17206 0.68752 0.0
C1575 C 0.71512 0.16052 0.64785 0.0
N1576 N 0.71484 0.14722 0.72352 0.0
N1577 N 0.71771 0.14752 0.66502 0.0
H1578 H 0.05379 0.43313 0.91792 0.0
H1579 H 0.1576 0.49445 0.96063 0.0
H1580 H 0.0975 0.46813 0.8778 0.0
H1581 H 0.10774 0.47046 0.00168 0.0
H1582 H 0.13976 0.47792 0.93002 0.0
H1583 H 0.07739 0.43971 0.94854 0.0
C1584 C 0.06854 0.44182 0.91549 0.0
C1585 C 0.0736 0.45032 0.89539 0.0
C1586 C 0.13286 0.47605 0.94577 0.0
C1587 C 0.10053 0.45798 0.93021 0.0
C1588 C 0.14308 0.48543 0.96325 0.0
C1589 C 0.13399 0.48405 0.98367 0.0
C1590 C 0.11343 0.46521 0.94875 0.0
C1591 C 0.11518 0.4721 0.98616 0.0
C1592 C 0.08194 0.44567 0.93296 0.0
C1593 C 0.09288 0.4615 0.8931 0.0
N1594 N 0.10541 0.46331 0.96888 0.0
N1595 N 0.10554 0.46516 0.91031 0.0
H1596 H 0.7708 0.85906 0.25075 0.0
H1597 H 0.78756 0.84643 0.12564 0.0
H1598 H 0.75682 0.9089 0.20527 0.0
H1599 H 0.80804 0.79924 0.17145 0.0
H1600 H 0.78052 0.87127 0.15482 0.0
H1601 H 0.78842 0.83871 0.22253 0.0
C1602 C 0.77167 0.86584 0.23486 0.0
C1603 C 0.76212 0.8856 0.23028 0.0
C1604 C 0.78687 0.85562 0.15853 0.0
C1605 C 0.78213 0.86227 0.19782 0.0
C1606 C 0.79094 0.84143 0.14186 0.0
C1607 C 0.7982 0.82068 0.14617 0.0
C1608 C 0.78978 0.84893 0.17974 0.0
C1609 C 0.8024 0.81508 0.16745 0.0
C1610 C 0.78177 0.85421 0.21875 0.0
C1611 C 0.76386 0.89368 0.20946 0.0
N1612 N 0.7978 0.82902 0.18349 0.0
N1613 N 0.77341 0.88185 0.19394 0.0
H1614 H 0.34526 0.50409 0.46565 0.0
H1615 H 0.45129 0.56482 0.42836 0.0
H1616 H 0.39299 0.52806 0.50919 0.0
H1617 H 0.40785 0.53248 0.38578 0.0
H1618 H 0.42639 0.55828 0.45794 0.0
H1619 H 0.36418 0.52129 0.43612 0.0
C1620 C 0.35953 0.51326 0.46904 0.0
C1621 C 0.36774 0.5144 0.48983 0.0
C1622 C 0.4222 0.55289 0.44205 0.0
C1623 C 0.38959 0.53395 0.45615 0.0
C1624 C 0.43635 0.5567 0.42518 0.0
C1625 C 0.43172 0.5489 0.40471 0.0
C1626 C 0.40331 0.54131 0.4383 0.0
C1627 C 0.41216 0.53849 0.40141 0.0
C1628 C 0.37037 0.52302 0.45218 0.0
C1629 C 0.38624 0.52657 0.49334 0.0
N1630 N 0.39878 0.53483 0.41806 0.0
N1631 N 0.39669 0.53567 0.47663 0.0
H1632 H 0.72323 0.7283 0.83448 0.0
H1633 H 0.84975 0.72216 0.82609 0.0
H1634 H 0.76611 0.74737 0.88494 0.0
H1635 H 0.80803 0.69497 0.77849 0.0
H1636 H 0.81905 0.72878 0.84893 0.0
H1637 H 0.75352 0.71328 0.8149 0.0
C1638 C 0.73899 0.72908 0.84157 0.0
C1639 C 0.74223 0.73928 0.86127 0.0
C1640 C 0.81653 0.72118 0.8336 0.0
C1641 C 0.77692 0.72229 0.83889 0.0
C1642 C 0.83407 0.71744 0.82051 0.0
C1643 C 0.83136 0.70821 0.80028 0.0
C1644 C 0.79599 0.71595 0.82634 0.0
C1645 C 0.81075 0.70219 0.79396 0.0
C1646 C 0.75626 0.7205 0.83037 0.0
C1647 C 0.76293 0.73977 0.86974 0.0
N1648 N 0.79375 0.70643 0.80685 0.0
N1649 N 0.77951 0.73161 0.8584 0.0
H1650 H 0.51267 0.47814 0.08432 0.0
H1651 H 0.52455 0.60428 0.0833 0.0
H1652 H 0.50316 0.51806 0.13967 0.0
H1653 H 0.54532 0.56495 0.03073 0.0
H1654 H 0.51945 0.57239 0.10489 0.0
H1655 H 0.52737 0.50888 0.06513 0.0
C1656 C 0.51393 0.49331 0.09252 0.0
C1657 C 0.50646 0.49564 0.11354 0.0
C1658 C 0.52535 0.57063 0.08874 0.0
C1659 C 0.52311 0.53084 0.09166 0.0
C1660 C 0.52823 0.58885 0.07638 0.0
C1661 C 0.53516 0.58717 0.05515 0.0
C1662 C 0.52904 0.55045 0.07973 0.0
C1663 C 0.53992 0.56686 0.04704 0.0
C1664 C 0.52234 0.51084 0.08156 0.0
C1665 C 0.50856 0.5156 0.12343 0.0
N1666 N 0.53644 0.54919 0.05926 0.0
N1667 N 0.51646 0.53247 0.11233 0.0
H1668 H 0.67157 0.3053 0.28628 0.0
H1669 H 0.72179 0.25219 0.39098 0.0
H1670 H 0.63536 0.27336 0.33543 0.0
H1671 H 0.75961 0.27635 0.33869 0.0
H1672 H 0.68988 0.26707 0.37423 0.0
H1673 H 0.70374 0.30183 0.30849 0.0
C1674 C 0.67033 0.29792 0.30188 0.0
C1675 C 0.65091 0.28931 0.30893 0.0
C1676 C 0.70519 0.26937 0.36653 0.0
C1677 C 0.68742 0.28525 0.33427 0.0
C1678 C 0.72342 0.26092 0.37613 0.0
C1679 C 0.7433 0.26276 0.36604 0.0
C1680 C 0.70684 0.27962 0.34661 0.0
C1681 C 0.74452 0.27437 0.34689 0.0
C1682 C 0.68867 0.29587 0.3145 0.0
C1683 C 0.65011 0.27993 0.32926 0.0
N1684 N 0.72648 0.28212 0.33763 0.0
N1685 N 0.66812 0.27798 0.34111 0.0
H1686 H 0.99032 0.46278 0.64249 0.0
H1687 H 0.93876 0.40667 0.53971 0.0
H1688 H 0.96168 0.4975 0.5903 0.0
H1689 H 0.97925 0.37456 0.58529 0.0
H1690 H 0.94039 0.43901 0.5618 0.0
H1691 H 0.97947 0.42927 0.62556 0.0
C1692 C 0.98143 0.46336 0.62766 0.0
C1693 C 0.97712 0.48291 0.61765 0.0
C1694 C 0.94871 0.42479 0.56706 0.0
C1695 C 0.9648 0.4447 0.59812 0.0
C1696 C 0.94773 0.40635 0.5545 0.0
C1697 C 0.9591 0.38804 0.56057 0.0
C1698 C 0.96102 0.4248 0.58585 0.0
C1699 C 0.97046 0.38843 0.57989 0.0
C1700 C 0.97532 0.44423 0.61795 0.0
C1701 C 0.96552 0.48274 0.59845 0.0
N1702 N 0.97124 0.40655 0.59176 0.0
N1703 N 0.95993 0.46393 0.5892 0.0
H1704 H 0.86175 0.29947 0.66222 0.0
H1705 H 0.7379 0.2691 0.65907 0.0
H1706 H 0.82217 0.29259 0.7182 0.0
H1707 H 0.78021 0.26274 0.60505 0.0
H1708 H 0.76677 0.28572 0.67932 0.0
H1709 H 0.83019 0.29439 0.63974 0.0
C1710 C 0.84634 0.29738 0.66979 0.0
C1711 C 0.84459 0.2962 0.69211 0.0
C1712 C 0.76969 0.28092 0.66296 0.0
C1713 C 0.80852 0.29016 0.6665 0.0
C1714 C 0.75321 0.27145 0.65136 0.0
C1715 C 0.75676 0.26428 0.63043 0.0
C1716 C 0.78991 0.28325 0.65357 0.0
C1717 C 0.77686 0.26787 0.62122 0.0
C1718 C 0.82836 0.29434 0.65694 0.0
C1719 C 0.82425 0.29344 0.70105 0.0
N1720 N 0.79276 0.27692 0.63293 0.0
N1721 N 0.80704 0.29028 0.68822 0.0
H1722 H 0.94385 0.56144 0.9618 0.0
H1723 H 0.98998 0.5216 0.84927 0.0
H1724 H 0.96492 0.60282 0.91093 0.0
H1725 H 0.9833 0.48034 0.90407 0.0
H1726 H 0.97276 0.5503 0.86931 0.0
H1727 H 0.95044 0.53041 0.93852 0.0
C1728 C 0.94947 0.56397 0.94563 0.0
C1729 C 0.95414 0.5846 0.93831 0.0
C1730 C 0.97485 0.53489 0.8769 0.0
C1731 C 0.9616 0.54952 0.91177 0.0
C1732 C 0.98464 0.5185 0.86544 0.0
C1733 C 0.98833 0.49869 0.87514 0.0
C1734 C 0.96876 0.53146 0.89824 0.0
C1735 C 0.98094 0.49549 0.89608 0.0
C1736 C 0.95331 0.54633 0.93242 0.0
C1737 C 0.96143 0.58712 0.91728 0.0
N1738 N 0.9717 0.51179 0.90704 0.0
N1739 N 0.96505 0.56981 0.90481 0.0
H1740 H 0.6366 0.72612 0.16687 0.0
H1741 H 0.76283 0.7319 0.15831 0.0
H1742 H 0.67803 0.70223 0.21646 0.0
H1743 H 0.72034 0.74357 0.10533 0.0
H1744 H 0.7326 0.71857 0.17917 0.0
H1745 H 0.66734 0.7303 0.14348 0.0
C1746 C 0.65223 0.72161 0.17278 0.0
C1747 C 0.65486 0.71404 0.19369 0.0
C1748 C 0.72994 0.72376 0.16289 0.0
C1749 C 0.69026 0.719 0.16701 0.0
C1750 C 0.74718 0.73138 0.15097 0.0
C1751 C 0.74402 0.73905 0.13013 0.0
C1752 C 0.70938 0.72404 0.15396 0.0
C1753 C 0.72346 0.73794 0.12138 0.0
C1754 C 0.66978 0.72393 0.15938 0.0
C1755 C 0.67538 0.70819 0.20045 0.0
N1756 N 0.70688 0.73083 0.13342 0.0
N1757 N 0.69241 0.71109 0.18722 0.0
H1758 H 0.51073 0.47578 0.35406 0.0
H1759 H 0.55745 0.4274 0.46288 0.0
H1760 H 0.52187 0.51319 0.41085 0.0
H1761 H 0.53683 0.38953 0.40915 0.0
H1762 H 0.55135 0.45984 0.44171 0.0
H1763 H 0.52696 0.44495 0.37172 0.0
C1764 C 0.51682 0.47757 0.37015 0.0
C1765 C 0.51472 0.49698 0.3811 0.0
C1766 C 0.54846 0.4444 0.43448 0.0
C1767 C 0.53321 0.46177 0.40147 0.0
C1768 C 0.55206 0.42591 0.44651 0.0
C1769 C 0.5474 0.40581 0.43781 0.0
C1770 C 0.54025 0.44268 0.41362 0.0
C1771 C 0.54039 0.40475 0.41655 0.0
C1772 C 0.52605 0.45996 0.38025 0.0
C1773 C 0.52299 0.49844 0.4019 0.0
N1774 N 0.53685 0.42291 0.40526 0.0
N1775 N 0.53169 0.48101 0.41149 0.0
H1776 H 0.83448 0.87033 0.73153 0.0
H1777 H 0.84426 0.74615 0.7082 0.0
H1778 H 0.79387 0.83719 0.68684 0.0
H1779 H 0.88994 0.78145 0.74579 0.0
H1780 H 0.82796 0.77976 0.69701 0.0
H1781 H 0.85711 0.83874 0.73398 0.0
C1782 C 0.83045 0.85643 0.72205 0.0
C1783 C 0.81214 0.85626 0.70914 0.0
C1784 C 0.84175 0.78021 0.70744 0.0
C1785 C 0.8379 0.8199 0.71202 0.0
C1786 C 0.85109 0.76101 0.71382 0.0
C1787 C 0.86834 0.76102 0.72813 0.0
C1788 C 0.84956 0.79956 0.71563 0.0
C1789 C 0.8766 0.78073 0.73482 0.0
C1790 C 0.84341 0.8384 0.72343 0.0
C1791 C 0.80779 0.83792 0.69707 0.0
N1792 N 0.86693 0.7992 0.72876 0.0
N1793 N 0.82042 0.82034 0.69902 0.0
H1794 H 0.34164 0.6394 0.31115 0.0
H1795 H 0.3469 0.76242 0.27773 0.0
H1796 H 0.28653 0.68036 0.30556 0.0
H1797 H 0.39935 0.71843 0.26999 0.0
H1798 H 0.32664 0.73454 0.29595 0.0
H1799 H 0.36473 0.67021 0.30449 0.0
C1800 C 0.33441 0.65497 0.30905 0.0
C1801 C 0.31211 0.65729 0.30868 0.0
C1802 C 0.34267 0.73104 0.2905 0.0
C1803 C 0.33843 0.69252 0.30081 0.0
C1804 C 0.35428 0.74696 0.28012 0.0
C1805 C 0.37475 0.74265 0.27209 0.0
C1806 C 0.35157 0.7106 0.29289 0.0
C1807 C 0.38355 0.72237 0.27577 0.0
C1808 C 0.3476 0.67251 0.30509 0.0
C1809 C 0.30363 0.67783 0.30583 0.0
N1810 N 0.37181 0.70701 0.28573 0.0
N1811 N 0.31679 0.6946 0.30176 0.0
H1812 H 0.49548 0.10125 0.52747 0.0
H1813 H 0.62223 0.09416 0.51969 0.0
H1814 H 0.53495 0.14805 0.49586 0.0
H1815 H 0.5836 0.04675 0.55142 0.0
H1816 H 0.5908 0.11674 0.51572 0.0
H1817 H 0.52765 0.08389 0.54118 0.0
C1818 C 0.51091 0.10807 0.52369 0.0
C1819 C 0.51258 0.12598 0.5103 0.0
C1820 C 0.58917 0.10152 0.52377 0.0
C1821 C 0.54944 0.10608 0.52577 0.0
C1822 C 0.60712 0.0886 0.52604 0.0
C1823 C 0.60542 0.06845 0.53566 0.0
C1824 C 0.56925 0.09415 0.53095 0.0
C1825 C 0.58554 0.06215 0.54379 0.0
C1826 C 0.52928 0.09812 0.53149 0.0
C1827 C 0.53295 0.13419 0.50599 0.0
N1828 N 0.56813 0.07485 0.54099 0.0
N1829 N 0.55058 0.12403 0.5135 0.0
H1830 H 0.19359 0.34084 0.81003 0.0
H1831 H 0.09398 0.29231 0.74614 0.0
H1832 H 0.16126 0.37238 0.75799 0.0
H1833 H 0.1364 0.25428 0.7849 0.0
H1834 H 0.11294 0.32444 0.7577 0.0
H1835 H 0.16748 0.31157 0.80781 0.0
C1836 C 0.18084 0.34173 0.79837 0.0
C1837 C 0.17972 0.35882 0.78396 0.0
C1838 C 0.11789 0.30909 0.76393 0.0
C1839 C 0.14988 0.32573 0.78144 0.0
C1840 C 0.10699 0.29076 0.75742 0.0
C1841 C 0.11384 0.2706 0.76433 0.0
C1842 C 0.13571 0.30721 0.77746 0.0
C1843 C 0.13078 0.26952 0.779 0.0
C1844 C 0.166 0.32505 0.79708 0.0
C1845 C 0.16288 0.35929 0.76919 0.0
N1846 N 0.14131 0.28756 0.78489 0.0
N1847 N 0.14871 0.34294 0.76823 0.0
H1848 H 0.41873 0.45229 0.55938 0.0
H1849 H 0.46769 0.34944 0.50092 0.0
H1850 H 0.38271 0.40905 0.51968 0.0
H1851 H 0.5064 0.40071 0.52582 0.0
H1852 H 0.43589 0.36719 0.515 0.0
H1853 H 0.45048 0.42972 0.55423 0.0
C1854 C 0.41744 0.43789 0.5499 0.0
C1855 C 0.39819 0.43262 0.53975 0.0
C1856 C 0.45138 0.37444 0.5176 0.0
C1857 C 0.43418 0.40682 0.53386 0.0
C1858 C 0.46953 0.36427 0.50963 0.0
C1859 C 0.48967 0.37374 0.512 0.0
C1860 C 0.45337 0.39421 0.52805 0.0
C1861 C 0.49113 0.39295 0.52348 0.0
C1862 C 0.43553 0.42508 0.54688 0.0
C1863 C 0.39733 0.41382 0.52758 0.0
N1864 N 0.47319 0.40267 0.53093 0.0
N1865 N 0.41506 0.40168 0.5249 0.0
H1866 H 0.6464 0.24828 0.21872 0.0
H1867 H 0.64636 0.12176 0.2153 0.0
H1868 H 0.59394 0.20954 0.24093 0.0
H1869 H 0.69556 0.16026 0.18634 0.0
H1870 H 0.62457 0.1537 0.22003 0.0
H1871 H 0.66238 0.21667 0.20239 0.0
C1872 C 0.6381 0.23315 0.21992 0.0
C1873 C 0.61896 0.23144 0.23146 0.0
C1874 C 0.63997 0.15518 0.21232 0.0
C1875 C 0.63724 0.19516 0.21293 0.0
C1876 C 0.65241 0.13693 0.20959 0.0
C1877 C 0.67289 0.13846 0.20068 0.0
C1878 C 0.64823 0.17519 0.20643 0.0
C1879 C 0.67989 0.15844 0.19339 0.0
C1880 C 0.64722 0.2151 0.21056 0.0
C1881 C 0.60882 0.21151 0.23236 0.0
N1882 N 0.66773 0.17612 0.19678 0.0
N1883 N 0.61823 0.19408 0.22348 0.0
H1884 H 0.53572 0.83914 0.99614 0.0
H1885 H 0.57377 0.95017 0.94518 0.0
H1886 H 0.49269 0.8903 0.97948 0.0
H1887 H 0.61628 0.90294 0.9718 0.0
H1888 H 0.54375 0.92559 0.95088 0.0
H1889 H 0.56521 0.85946 0.9805 0.0
C1890 C 0.53243 0.85451 0.98892 0.0
C1891 C 0.5118 0.86316 0.98933 0.0
C1892 C 0.5597 0.92053 0.9552 0.0
C1893 C 0.54543 0.88658 0.97155 0.0
C1894 C 0.57682 0.93451 0.95186 0.0
C1895 C 0.59745 0.92865 0.95827 0.0
C1896 C 0.56335 0.90059 0.96491 0.0
C1897 C 0.60056 0.90819 0.96687 0.0
C1898 C 0.54927 0.86614 0.98005 0.0
C1899 C 0.50841 0.88313 0.97969 0.0
N1900 N 0.58369 0.89498 0.97009 0.0
N1901 N 0.52509 0.89426 0.97137 0.0
H1902 H 0.96428 0.1487 0.49241 0.0
H1903 H 0.91762 0.04345 0.43663 0.0
H1904 H 0.00373 0.0989 0.46576 0.0
H1905 H 0.87976 0.08875 0.47213 0.0
H1906 H 0.94879 0.06681 0.44106 0.0
H1907 H 0.93263 0.13032 0.47873 0.0
C1908 C 0.9663 0.13409 0.48338 0.0
C1909 C 0.98661 0.12518 0.48043 0.0
C1910 C 0.93359 0.07172 0.44766 0.0
C1911 C 0.95053 0.10394 0.46492 0.0
C1912 C 0.91582 0.05843 0.44508 0.0
C1913 C 0.89619 0.06408 0.45424 0.0
C1914 C 0.93161 0.09079 0.45939 0.0
C1915 C 0.89468 0.08367 0.46502 0.0
C1916 C 0.94824 0.12354 0.47564 0.0
C1917 C 0.98833 0.10622 0.46857 0.0
N1918 N 0.91217 0.09623 0.46742 0.0
N1919 N 0.9705 0.09611 0.46143 0.0
H1920 H 0.18216 0.41152 0.49785 0.0
H1921 H 0.25124 0.32832 0.43066 0.0
H1922 H 0.21685 0.42742 0.44052 0.0
H1923 H 0.19237 0.31263 0.46276 0.0
H1924 H 0.24952 0.36431 0.44599 0.0
H1925 H 0.19718 0.37536 0.49641 0.0
C1926 C 0.19359 0.40766 0.48544 0.0
C1927 C 0.19811 0.42231 0.4691 0.0
C1928 C 0.23735 0.35274 0.45015 0.0
C1929 C 0.21526 0.38123 0.46745 0.0
C1930 C 0.23836 0.3322 0.44154 0.0
C1931 C 0.22173 0.31764 0.44523 0.0
C1932 C 0.21979 0.35855 0.46279 0.0
C1933 C 0.20536 0.32352 0.45933 0.0
C1934 C 0.202 0.38702 0.48457 0.0
C1935 C 0.21282 0.41646 0.45328 0.0
N1936 N 0.20465 0.34364 0.46742 0.0
N1937 N 0.2207 0.39626 0.45269 0.0
H1938 H 0.91242 -0.00013 0.68356 0.0
H1939 H 0.82857 0.9326 0.75178 0.0
H1940 H 0.926 0.93887 0.71251 0.0
H1941 H 0.81195 0.97115 0.69717 0.0
H1942 H 0.86541 0.94566 0.74925 0.0
H1943 H 0.87714 -0.0004 0.70056 0.0
C1944 C 0.90827 0.98678 0.69407 0.0
C1945 C 0.92196 0.96919 0.69641 0.0
C1946 C 0.8535 0.95175 0.73828 0.0
C1947 C 0.88188 0.9689 0.71589 0.0
C1948 C 0.83247 0.94446 0.73979 0.0
C1949 C 0.81734 0.95063 0.72446 0.0
C1950 C 0.85922 0.96552 0.72154 0.0
C1951 C 0.82326 0.96585 0.70914 0.0
C1952 C 0.88813 0.9866 0.70366 0.0
C1953 C 0.91577 0.95259 0.71011 0.0
N1954 N 0.84384 0.9726 0.70789 0.0
N1955 N 0.89605 0.95272 0.71916 0.0
H1956 H 0.30818 0.68052 0.96351 0.0
H1957 H 0.30578 0.57856 0.00281 0.0
H1958 H 0.25029 0.66527 0.92954 0.0
H1959 H 0.28071 0.56753 0.93962 0.0
H1960 H 0.29341 0.61572 0.00074 0.0
H1961 H 0.30705 0.64542 0.98051 0.0
C1962 C 0.29483 0.67003 0.96022 0.0
C1963 C 0.27938 0.67568 0.94504 0.0
C1964 C 0.29024 0.605 0.98755 0.0
C1965 C 0.27814 0.63542 0.96409 0.0
C1966 C 0.29707 0.58378 0.9888 0.0
C1967 C 0.29455 0.57017 0.97118 0.0
C1968 C 0.28072 0.61242 0.96863 0.0
C1969 C 0.28322 0.57768 0.95339 0.0
C1970 C 0.29411 0.65002 0.97001 0.0
C1971 C 0.26248 0.66149 0.9412 0.0
N1972 N 0.27692 0.5984 0.95247 0.0
N1973 N 0.26268 0.6417 0.95014 0.0
H1974 H 0.66354 0.0584 0.25596 0.0
H1975 H 0.56116 0.04584 0.2233 0.0
H1976 H 0.67547 0.02371 0.19766 0.0
H1977 H 0.58076 0.98772 0.19205 0.0
H1978 H 0.59633 0.0485 0.23972 0.0
H1979 H 0.62804 0.04203 0.25792 0.0
C1980 C 0.65891 0.04692 0.24387 0.0
C1981 C 0.67218 0.04286 0.22626 0.0
C1982 C 0.59279 0.03467 0.22999 0.0
C1983 C 0.63153 0.02464 0.22808 0.0
C1984 C 0.57268 0.03324 0.22048 0.0
C1985 C 0.56819 0.01674 0.20604 0.0
C1986 C 0.60866 0.01973 0.2246 0.0
C1987 C 0.58365 0.00081 0.20297 0.0
C1988 C 0.63855 0.03778 0.24487 0.0
C1989 C 0.6655 0.02768 0.21122 0.0
N1990 N 0.60344 0.00306 0.21162 0.0
N1991 N 0.64549 0.01939 0.21227 0.0
H1992 H 0.18518 0.68729 0.04178 0.0
H1993 H 0.18509 0.58466 0.00056 0.0
H1994 H 0.24426 0.66983 0.07253 0.0
H1995 H 0.20928 0.57183 0.06377 0.0
H1996 H 0.19679 0.62193 0.00412 0.0
H1997 H 0.18324 0.6515 0.0261 0.0
C1998 C 0.19805 0.67611 0.0447 0.0
C1999 C 0.21491 0.68148 0.05842 0.0
C2000 C 0.19986 0.6108 0.017 0.0
C2001 C 0.21261 0.64051 0.04095 0.0
C2002 C 0.19342 0.58953 0.01492 0.0
C2003 C 0.19604 0.57527 0.03202 0.0
C2004 C 0.20922 0.61766 0.03619 0.0
C2005 C 0.20679 0.58241 0.05032 0.0
C2006 C 0.197 0.65574 0.03569 0.0
C2007 C 0.23107 0.66634 0.06191 0.0
N2008 N 0.21289 0.60317 0.05199 0.0
N2009 N 0.22921 0.64631 0.05372 0.0
H2010 H 0.68286 0.98044 0.29319 0.0
H2011 H 0.57925 0.01107 0.30457 0.0
H2012 H 0.66324 0.94428 0.23799 0.0
H2013 H 0.56962 0.94831 0.27791 0.0
H2014 H 0.61436 0.01256 0.28723 0.0
H2015 H 0.64706 0.99563 0.29553 0.0
C2016 C 0.67119 0.9763 0.2811 0.0
C2017 C 0.67589 0.96089 0.26556 0.0
C2018 C 0.60439 -0.00137 0.28491 0.0
C2019 C 0.63475 0.97789 0.26831 0.0
C2020 C 0.58427 0.99785 0.29461 0.0
C2021 C 0.5718 0.97928 0.2931 0.0
C2022 C 0.61191 0.98072 0.27367 0.0
C2023 C 0.57897 0.96272 0.27986 0.0
C2024 C 0.65073 0.98507 0.28236 0.0
C2025 C 0.66021 0.95604 0.2503 0.0
N2026 N 0.5987 0.9637 0.2709 0.0
N2027 N 0.64011 0.96397 0.25248 0.0
H2028 H 0.31344 0.41193 0.50577 0.0
H2029 H 0.2535 0.33207 0.58491 0.0
H2030 H 0.28966 0.42878 0.56816 0.0
H2031 H 0.30157 0.31208 0.53977 0.0
H2032 H 0.25496 0.36809 0.56988 0.0
H2033 H 0.29761 0.37623 0.50988 0.0
C2034 C 0.30431 0.40833 0.52002 0.0
C2035 C 0.30301 0.42312 0.53679 0.0
C2036 C 0.26477 0.35565 0.56292 0.0
C2037 C 0.28489 0.38268 0.54148 0.0
C2038 C 0.26389 0.33507 0.5714 0.0
C2039 C 0.27777 0.3192 0.56384 0.0
C2040 C 0.27951 0.3603 0.54669 0.0
C2041 C 0.29084 0.32397 0.54627 0.0
C2042 C 0.29542 0.38798 0.52239 0.0
C2043 C 0.29119 0.41768 0.55499 0.0
N2044 N 0.29165 0.34423 0.53848 0.0
N2045 N 0.28272 0.39782 0.55694 0.0
H2046 H 0.91074 0.00528 0.83943 0.0
H2047 H 0.82919 0.05759 0.75678 0.0
H2048 H 0.92832 0.05269 0.79261 0.0
H2049 H 0.81194 0.0334 0.81891 0.0
H2050 H 0.8655 0.04378 0.76197 0.0
H2051 H 0.87501 0.00362 0.82372 0.0
C2052 C 0.90731 0.01487 0.82544 0.0
C2053 C 0.92238 0.02945 0.81754 0.0
C2054 C 0.85356 0.04099 0.77418 0.0
C2055 C 0.88158 0.02762 0.79959 0.0
C2056 C 0.83283 0.04871 0.77117 0.0
C2057 C 0.81769 0.04685 0.78759 0.0
C2058 C 0.85899 0.03115 0.79359 0.0
C2059 C 0.82326 0.03536 0.80598 0.0
C2060 C 0.88688 0.01398 0.81657 0.0
C2061 C 0.91705 0.04145 0.79937 0.0
N2062 N 0.84355 0.02815 0.80861 0.0
N2063 N 0.89696 0.04051 0.79118 0.0
H2064 H 0.4966 0.1617 0.4093 0.0
H2065 H 0.43463 0.23863 0.3288 0.0
H2066 H 0.44994 0.20845 0.42887 0.0
H2067 H 0.4619 0.17779 0.3116 0.0
H2068 H 0.45078 0.23533 0.36436 0.0
H2069 H 0.49447 0.17545 0.37278 0.0
C2070 C 0.48633 0.17523 0.40604 0.0
C2071 C 0.47313 0.18371 0.42204 0.0
C2072 C 0.45366 0.22299 0.35259 0.0
C2073 C 0.47059 0.19942 0.38034 0.0
C2074 C 0.4446 0.22493 0.33226 0.0
C2075 C 0.44674 0.20831 0.31739 0.0
C2076 C 0.46509 0.20443 0.35788 0.0
C2077 C 0.45969 0.19084 0.32273 0.0
C2078 C 0.48507 0.183 0.38518 0.0
C2079 C 0.46018 0.20127 0.41693 0.0
N2080 N 0.46818 0.18922 0.34263 0.0
N2081 N 0.459 0.20837 0.39643 0.0
H2082 H 0.07885 0.18508 0.56838 0.0
H2083 H 0.04691 0.23923 0.67318 0.0
H2084 H 0.01048 0.19302 0.57209 0.0
H2085 H 0.07067 0.1745 0.67266 0.0
H2086 H 0.03733 0.23534 0.63506 0.0
H2087 H 0.08178 0.19644 0.60555 0.0
C2088 C 0.06449 0.18976 0.57681 0.0
C2089 C 0.04435 0.18781 0.56724 0.0
C2090 C 0.04427 0.22199 0.6436 0.0
C2091 C 0.04775 0.20092 0.60961 0.0
C2092 C 0.04968 0.22412 0.66524 0.0
C2093 C 0.05976 0.2072 0.67604 0.0
C2094 C 0.0494 0.20301 0.63291 0.0
C2095 C 0.06308 0.18801 0.66499 0.0
C2096 C 0.06622 0.19619 0.59798 0.0
C2097 C 0.02629 0.19423 0.57896 0.0
N2098 N 0.05832 0.18659 0.64393 0.0
N2099 N 0.02835 0.20023 0.5998 0.0
H2100 H 0.02195 0.8088 0.92872 0.0
H2101 H 0.08154 0.84392 0.82544 0.0
H2102 H 0.08406 0.8387 0.92984 0.0
H2103 H 0.06179 0.77786 0.82668 0.0
H2104 H 0.0715 0.84724 0.86286 0.0
H2105 H 0.02739 0.80041 0.89051 0.0
C2106 C 0.03683 0.81321 0.9211 0.0
C2107 C 0.05252 0.82461 0.93241 0.0
C2108 C 0.06909 0.83212 0.85481 0.0
C2109 C 0.05837 0.81575 0.88912 0.0
C2110 C 0.07468 0.8302 0.83344 0.0
C2111 C 0.07276 0.81049 0.823 0.0
C2112 C 0.06123 0.81432 0.86583 0.0
C2113 C 0.06362 0.79331 0.83423 0.0
C2114 C 0.03984 0.80849 0.89939 0.0
C2115 C 0.07146 0.83004 0.92177 0.0
N2116 N 0.05827 0.79555 0.85524 0.0
N2117 N 0.07367 0.82593 0.90066 0.0
H2118 H 0.43925 0.77451 0.06963 0.0
H2119 H 0.43244 0.74336 0.17448 0.0
H2120 H 0.49849 0.80535 0.08629 0.0
H2121 H 0.46318 0.80437 0.18319 0.0
H2122 H 0.44623 0.74213 0.13783 0.0
H2123 H 0.43659 0.76076 0.10605 0.0
C2124 C 0.45206 0.77776 0.08079 0.0
C2125 C 0.46906 0.79113 0.07501 0.0
C2126 C 0.45023 0.75559 0.14791 0.0
C2127 C 0.466 0.77577 0.11679 0.0
C2128 C 0.44259 0.7562 0.16889 0.0
C2129 C 0.44639 0.77419 0.1817 0.0
C2130 C 0.46182 0.77304 0.13988 0.0
C2131 C 0.45963 0.79037 0.17368 0.0
C2132 C 0.45061 0.76983 0.10158 0.0
C2133 C 0.48516 0.79503 0.09011 0.0
N2134 N 0.46669 0.78953 0.15318 0.0
N2135 N 0.48291 0.78793 0.11052 0.0
H2136 H 0.43435 0.42223 0.20711 0.0
H2137 H 0.33316 0.41477 0.24635 0.0
H2138 H 0.41659 0.48331 0.18075 0.0
H2139 H 0.31935 0.45291 0.19064 0.0
H2140 H 0.37001 0.42775 0.24559 0.0
H2141 H 0.39965 0.42003 0.22456 0.0
C2142 C 0.42338 0.43553 0.20563 0.0
C2143 C 0.42823 0.45288 0.19235 0.0
C2144 C 0.35884 0.43347 0.2337 0.0
C2145 C 0.38833 0.45045 0.2121 0.0
C2146 C 0.33774 0.42626 0.23426 0.0
C2147 C 0.32335 0.43238 0.21819 0.0
C2148 C 0.3655 0.44679 0.21692 0.0
C2149 C 0.33007 0.44747 0.20307 0.0
C2150 C 0.40356 0.43435 0.21571 0.0
C2151 C 0.41344 0.46964 0.19086 0.0
N2152 N 0.35077 0.45392 0.2026 0.0
N2153 N 0.39388 0.46772 0.20009 0.0
H2154 H 0.7726 0.92629 0.04759 0.0
H2155 H 0.80928 0.81095 0.03243 0.0
H2156 H 0.81196 0.90871 0.99392 0.0
H2157 H 0.74946 0.82518 0.06342 0.0
H2158 H 0.80769 0.8455 0.01433 0.0
H2159 H 0.76025 0.88937 0.05019 0.0
C2160 C 0.77811 0.91475 0.03593 0.0
C2161 C 0.79348 0.92043 0.02069 0.0
C2162 C 0.79458 0.84084 0.0246 0.0
C2163 C 0.78006 0.87807 0.02401 0.0
C2164 C 0.79551 0.82111 0.03495 0.0
C2165 C 0.77966 0.81539 0.04968 0.0
C2166 C 0.77801 0.85513 0.02953 0.0
C2167 C 0.76211 0.82908 0.0523 0.0
C2168 C 0.77109 0.89366 0.03741 0.0
C2169 C 0.80014 0.90492 0.00596 0.0
N2170 N 0.76204 0.8486 0.0428 0.0
N2171 N 0.79387 0.88427 0.00837 0.0
H2172 H 0.16649 0.542 0.72136 0.0
H2173 H 0.05232 0.58243 0.6823 0.0
H2174 H 0.15477 0.59842 0.68354 0.0
H2175 H 0.06593 0.51489 0.68345 0.0
H2176 H 0.08824 0.58953 0.69546 0.0
H2177 H 0.12823 0.53258 0.71794 0.0
C2178 C 0.15592 0.55234 0.71239 0.0
C2179 C 0.16379 0.57087 0.7025 0.0
C2180 C 0.08324 0.57312 0.6932 0.0
C2181 C 0.12045 0.56073 0.69928 0.0
C2182 C 0.06271 0.56904 0.68581 0.0
C2183 C 0.05629 0.54806 0.68143 0.0
C2184 C 0.09751 0.55614 0.69624 0.0
C2185 C 0.07037 0.53131 0.68649 0.0
C2186 C 0.13421 0.547 0.7105 0.0
C2187 C 0.14948 0.58384 0.69117 0.0
N2188 N 0.09056 0.53571 0.69334 0.0
N2189 N 0.12856 0.5786 0.69001 0.0
H2190 H 0.68232 0.91342 0.99392 0.0
H2191 H 0.73693 0.8343 0.91054 0.0
H2192 H 0.70776 0.93238 0.93279 0.0
H2193 H 0.68874 0.81545 0.95602 0.0
H2194 H 0.73821 0.86964 0.92717 0.0
H2195 H 0.69677 0.87745 0.98831 0.0
C2196 C 0.6916 0.91023 0.97968 0.0
C2197 C 0.69361 0.92574 0.96362 0.0
C2198 C 0.72777 0.85757 0.93383 0.0
C2199 C 0.71004 0.88481 0.95714 0.0
C2200 C 0.72709 0.83737 0.92443 0.0
C2201 C 0.71239 0.82208 0.93168 0.0
C2202 C 0.71381 0.8624 0.95068 0.0
C2203 C 0.70006 0.82691 0.94975 0.0
C2204 C 0.6997 0.88969 0.97643 0.0
C2205 C 0.70566 0.92076 0.94543 0.0
N2206 N 0.70081 0.84678 0.95846 0.0
N2207 N 0.7132 0.90063 0.94254 0.0
H2208 H 0.75498 0.1615 0.40296 0.0
H2209 H 0.8101 0.08331 0.48715 0.0
H2210 H 0.80049 0.18195 0.45048 0.0
H2211 H 0.78632 0.06395 0.42547 0.0
H2212 H 0.79527 0.1191 0.48113 0.0
H2213 H 0.75515 0.12577 0.41877 0.0
C2214 C 0.76456 0.15864 0.41708 0.0
C2215 C 0.77804 0.17458 0.42521 0.0
C2216 C 0.79284 0.10682 0.46919 0.0
C2217 C 0.77832 0.13381 0.44328 0.0
C2218 C 0.80115 0.08639 0.47267 0.0
C2219 C 0.79964 0.07082 0.45663 0.0
C2220 C 0.78278 0.1115 0.44969 0.0
C2221 C 0.78802 0.07564 0.43811 0.0
C2222 C 0.76471 0.13823 0.42602 0.0
C2223 C 0.79009 0.17001 0.44355 0.0
N2224 N 0.78023 0.09564 0.43503 0.0
N2225 N 0.79018 0.14993 0.45181 0.0
H2226 H 0.6932 0.18634 0.53517 0.0
H2227 H 0.69089 0.08449 0.49541 0.0
H2228 H 0.74921 0.16768 0.57059 0.0
H2229 H 0.71502 0.0711 0.55854 0.0
H2230 H 0.70461 0.12105 0.49839 0.0
H2231 H 0.6925 0.15113 0.5184 0.0
C2232 C 0.70577 0.17504 0.53885 0.0
C2233 C 0.72122 0.17984 0.55431 0.0
C2234 C 0.7072 0.10997 0.51141 0.0
C2235 C 0.72038 0.13943 0.53549 0.0
C2236 C 0.6996 0.08906 0.50964 0.0
C2237 C 0.70148 0.07493 0.52695 0.0
C2238 C 0.7168 0.11663 0.53056 0.0
C2239 C 0.71294 0.08164 0.54499 0.0
C2240 C 0.70544 0.15496 0.5292 0.0
C2241 C 0.73705 0.1646 0.55868 0.0
N2242 N 0.71996 0.10211 0.54644 0.0
N2243 N 0.73585 0.14481 0.5498 0.0
H2244 H 0.08165 0.49601 0.81291 0.0
H2245 H 0.16656 0.43269 0.74235 0.0
H2246 H 0.06896 0.4361 0.78139 0.0
H2247 H 0.18215 0.46884 0.79884 0.0
H2248 H 0.12958 0.44542 0.74494 0.0
H2249 H 0.11683 0.49709 0.79574 0.0
C2250 C 0.08595 0.48348 0.80178 0.0
C2251 C 0.07259 0.46575 0.79879 0.0
C2252 C 0.14131 0.45111 0.7563 0.0
C2253 C 0.11255 0.46699 0.77914 0.0
C2254 C 0.1624 0.44401 0.75476 0.0
C2255 C 0.17726 0.44958 0.77057 0.0
C2256 C 0.13528 0.4641 0.77355 0.0
C2257 C 0.17104 0.46405 0.78647 0.0
C2258 C 0.10604 0.48407 0.79211 0.0
C2259 C 0.07896 0.44989 0.78432 0.0
N2260 N 0.15042 0.47063 0.78773 0.0
N2261 N 0.09864 0.45074 0.77521 0.0
H2262 H 0.34118 0.59072 0.25785 0.0
H2263 H 0.42197 0.51215 0.31723 0.0
H2264 H 0.32173 0.54051 0.30086 0.0
H2265 H 0.43801 0.57538 0.29512 0.0
H2266 H 0.38699 0.51546 0.29994 0.0
H2267 H 0.37799 0.57783 0.26012 0.0
C2268 C 0.34453 0.5766 0.26728 0.0
C2269 C 0.32846 0.56688 0.2795 0.0
C2270 C 0.3984 0.52836 0.29843 0.0
C2271 C 0.37048 0.55217 0.2822 0.0
C2272 C 0.4184 0.52644 0.30815 0.0
C2273 C 0.43273 0.54366 0.30782 0.0
C2274 C 0.39289 0.54752 0.28815 0.0
C2275 C 0.42728 0.56185 0.29595 0.0
C2276 C 0.36556 0.56934 0.26864 0.0
C2277 C 0.33372 0.54864 0.29141 0.0
N2278 N 0.40768 0.56342 0.28679 0.0
N2279 N 0.35435 0.54204 0.29272 0.0
H2280 H 0.97404 0.68862 0.91845 0.0
H2281 H 0.91199 0.65916 0.81431 0.0
H2282 H 0.91117 0.66034 0.9188 0.0
H2283 H 0.93514 0.72402 0.8177 0.0
H2284 H 0.92248 0.65385 0.85138 0.0
H2285 H 0.96884 0.6981 0.88045 0.0
C2286 C 0.95908 0.68476 0.9107 0.0
C2287 C 0.94305 0.67357 0.92176 0.0
C2288 C 0.92554 0.66914 0.84387 0.0
C2289 C 0.93747 0.68364 0.87866 0.0
C2290 C 0.91969 0.67218 0.82269 0.0
C2291 C 0.92242 0.69217 0.81298 0.0
C2292 C 0.93446 0.68607 0.85544 0.0
C2293 C 0.93265 0.7084 0.82468 0.0
C2294 C 0.9562 0.6901 0.88911 0.0
C2295 C 0.92401 0.66885 0.91095 0.0
N2296 N 0.9382 0.70507 0.8455 0.0
N2297 N 0.92192 0.67356 0.88995 0.0
H2298 H 0.57758 0.66555 0.07537 0.0
H2299 H 0.5509 0.73292 0.17597 0.0
H2300 H 0.51411 0.6925 0.07631 0.0
H2301 H 0.57475 0.66834 0.17988 0.0
H2302 H 0.54058 0.72616 0.13847 0.0
H2303 H 0.5822 0.676 0.1125 0.0
C2304 C 0.56471 0.67402 0.08325 0.0
C2305 C 0.54532 0.67795 0.07278 0.0
C2306 C 0.54772 0.71348 0.14783 0.0
C2307 C 0.55065 0.68997 0.11533 0.0
C2308 C 0.55354 0.71725 0.16914 0.0
C2309 C 0.56391 0.70122 0.18097 0.0
C2310 C 0.55283 0.6938 0.13844 0.0
C2311 C 0.56701 0.68124 0.17136 0.0
C2312 C 0.56735 0.67983 0.10447 0.0
C2313 C 0.52927 0.68909 0.08387 0.0
N2314 N 0.56191 0.67825 0.15056 0.0
N2315 N 0.53224 0.69471 0.10473 0.0
H2316 H 0.53863 0.31021 0.31292 0.0
H2317 H 0.50477 0.31988 0.41751 0.0
H2318 H 0.57156 0.25333 0.33346 0.0
H2319 H 0.56807 0.29517 0.42882 0.0
H2320 H 0.50598 0.30517 0.3812 0.0
H2321 H 0.52533 0.31517 0.34933 0.0
C2322 C 0.54251 0.29843 0.32499 0.0
C2323 C 0.55616 0.28134 0.32024 0.0
C2324 C 0.51944 0.30274 0.39178 0.0
C2325 C 0.54137 0.28708 0.36191 0.0
C2326 C 0.5187 0.31092 0.41253 0.0
C2327 C 0.5365 0.30898 0.42603 0.0
C2328 C 0.53802 0.29241 0.38465 0.0
C2329 C 0.55413 0.29723 0.41879 0.0
C2330 C 0.53485 0.3012 0.34574 0.0
C2331 C 0.56093 0.26663 0.33647 0.0
N2332 N 0.55452 0.2895 0.39851 0.0
N2333 N 0.55403 0.27017 0.35676 0.0
H2334 H 0.96336 0.28791 0.68289 0.0
H2335 H 0.93299 0.27847 0.5622 0.0
H2336 H 0.91281 0.24682 0.6605 0.0
H2337 H 0.99465 0.3014 0.58247 0.0
H2338 H 0.92741 0.26315 0.59762 0.0
H2339 H 0.97755 0.28958 0.64652 0.0
C2340 C 0.95554 0.27884 0.67041 0.0
C2341 C 0.93671 0.26747 0.67465 0.0
C2342 C 0.94238 0.2711 0.59425 0.0
C2343 C 0.95257 0.26965 0.63295 0.0
C2344 C 0.94556 0.27984 0.574 0.0
C2345 C 0.96421 0.29137 0.56951 0.0
C2346 C 0.95773 0.27439 0.61029 0.0
C2347 C 0.98002 0.29265 0.58534 0.0
C2348 C 0.96363 0.2798 0.64964 0.0
C2349 C 0.92727 0.25594 0.65791 0.0
N2350 N 0.97622 0.2847 0.60521 0.0
N2351 N 0.93504 0.25768 0.63772 0.0
loop_
_geom_bond_atom_site_label_1
_geom_bond_atom_site_label_2
_geom_bond_distance
_geom_bond_site_symmetry_2
_ccdc_geom_bond_type
In0 O1 2.294 . S
In0 O2 2.326 . S
In0 O6 2.266 . S
In0 O7 2.326 . S
In0 O8 2.266 . S
In0 O9 2.326 . S
In0 O11 2.294 . S
In0 O12 2.326 . S
O1 In0 2.294 . S
O1 C10 1.240 . S
O2 In0 2.326 . S
O2 C10 1.252 . S
C3 O6 1.252 . S
C3 O7 1.260 . S
C4 O11 1.240 . S
C4 O12 1.252 . S
C5 O8 1.252 . S
C5 O9 1.260 . S
O6 In0 2.266 . S
O6 C3 1.252 . S
O7 In0 2.326 . S
O7 C3 1.260 . S
O8 In0 2.266 . S
O8 C5 1.252 . S
O9 In0 2.326 . S
O9 C5 1.260 . S
C10 O1 1.240 . S
C10 O2 1.252 . S
O11 In0 2.294 . S
O11 C4 1.240 . S
O12 In0 2.326 . S
O12 C4 1.252 . S
In13 O14 2.300 . S
In13 O15 2.326 . S
In13 O19 2.266 . S
In13 O20 2.326 . S
In13 O21 2.266 . S
In13 O22 2.326 1_655 S
In13 O24 2.294 . S
In13 O25 2.326 . S
O14 In13 2.300 . S
O14 C23 1.238 1_655 S
O15 In13 2.326 . S
O15 C23 1.252 1_655 S
C16 O19 1.252 . S
C16 O20 1.260 . S
C17 O24 1.240 . S
C17 O25 1.252 . S
C18 O21 1.269 . S
C18 O22 1.253 1_655 S
O19 In13 2.266 . S
O19 C16 1.252 . S
O20 In13 2.326 . S
O20 C16 1.260 . S
O21 In13 2.266 . S
O21 C18 1.269 . S
O22 In13 2.326 1_455 S
O22 C18 1.253 1_455 S
C23 O14 1.238 1_455 S
C23 O15 1.252 1_455 S
O24 In13 2.294 . S
O24 C17 1.240 . S
O25 In13 2.326 . S
O25 C17 1.252 . S
In26 O27 2.294 . S
In26 O28 2.326 . S
In26 O32 2.266 . S
In26 O33 2.326 . S
In26 O34 2.266 . S
In26 O35 2.326 . S
In26 O37 2.294 . S
In26 O38 2.326 . S
O27 In26 2.294 . S
O27 C36 1.240 . S
O28 In26 2.326 . S
O28 C36 1.252 . S
C29 O32 1.252 . S
C29 O33 1.260 . S
C30 O37 1.240 . S
C30 O38 1.252 . S
C31 O34 1.252 . S
C31 O35 1.260 . S
O32 In26 2.266 . S
O32 C29 1.252 . S
O33 In26 2.326 . S
O33 C29 1.260 . S
O34 In26 2.266 . S
O34 C31 1.252 . S
O35 In26 2.326 . S
O35 C31 1.260 . S
C36 O27 1.240 . S
C36 O28 1.252 . S
O37 In26 2.294 . S
O37 C30 1.240 . S
O38 In26 2.326 . S
O38 C30 1.252 . S
In39 O40 2.294 . S
In39 O41 2.326 . S
In39 O45 2.266 . S
In39 O46 2.326 . S
In39 O47 2.266 . S
In39 O48 2.326 . S
In39 O50 2.294 . S
In39 O51 2.326 . S
O40 In39 2.294 . S
O40 C49 1.240 . S
O41 In39 2.326 . S
O41 C49 1.252 . S
C42 O45 1.252 . S
C42 O46 1.260 . S
C43 O50 1.240 . S
C43 O51 1.252 . S
C44 O47 1.252 . S
C44 O48 1.260 . S
O45 In39 2.266 . S
O45 C42 1.252 . S
O46 In39 2.326 . S
O46 C42 1.260 . S
O47 In39 2.266 . S
O47 C44 1.252 . S
O48 In39 2.326 . S
O48 C44 1.260 . S
C49 O40 1.240 . S
C49 O41 1.252 . S
O50 In39 2.294 . S
O50 C43 1.240 . S
O51 In39 2.326 . S
O51 C43 1.252 . S
In52 O53 2.294 . S
In52 O54 2.326 . S
In52 O58 2.266 . S
In52 O59 2.326 . S
In52 O60 2.266 . S
In52 O61 2.326 . S
In52 O63 2.294 . S
In52 O64 2.326 . S
O53 In52 2.294 . S
O53 C62 1.240 . S
O54 In52 2.326 . S
O54 C62 1.252 . S
C55 O58 1.252 . S
C55 O59 1.260 . S
C56 O63 1.240 . S
C56 O64 1.252 . S
C57 O60 1.252 . S
C57 O61 1.260 . S
O58 In52 2.266 . S
O58 C55 1.252 . S
O59 In52 2.326 . S
O59 C55 1.260 . S
O60 In52 2.266 . S
O60 C57 1.252 . S
O61 In52 2.326 . S
O61 C57 1.260 . S
C62 O53 1.240 . S
C62 O54 1.252 . S
O63 In52 2.294 . S
O63 C56 1.240 . S
O64 In52 2.326 . S
O64 C56 1.252 . S
In65 O66 2.294 . S
In65 O67 2.326 . S
In65 O71 2.266 . S
In65 O72 2.326 . S
In65 O73 2.266 . S
In65 O74 2.326 . S
In65 O76 2.294 . S
In65 O77 2.326 . S
O66 In65 2.294 . S
O66 C75 1.240 . S
O67 In65 2.326 . S
O67 C75 1.252 . S
C68 O71 1.252 . S
C68 O72 1.260 . S
C69 O76 1.240 . S
C69 O77 1.252 . S
C70 O73 1.252 . S
C70 O74 1.260 . S
O71 In65 2.266 . S
O71 C68 1.252 . S
O72 In65 2.326 . S
O72 C68 1.260 . S
O73 In65 2.266 . S
O73 C70 1.252 . S
O74 In65 2.326 . S
O74 C70 1.260 . S
C75 O66 1.240 . S
C75 O67 1.252 . S
O76 In65 2.294 . S
O76 C69 1.240 . S
O77 In65 2.326 . S
O77 C69 1.252 . S
In78 O79 2.294 . S
In78 O80 2.326 . S
In78 O84 2.266 . S
In78 O85 2.326 . S
In78 O86 2.266 . S
In78 O87 2.326 . S
In78 O89 2.294 . S
In78 O90 2.326 . S
O79 In78 2.294 . S
O79 C88 1.240 . S
O80 In78 2.326 . S
O80 C88 1.252 . S
C81 O84 1.252 . S
C81 O85 1.260 . S
C82 O89 1.240 . S
C82 O90 1.252 . S
C83 O86 1.252 . S
C83 O87 1.260 . S
O84 In78 2.266 . S
O84 C81 1.252 . S
O85 In78 2.326 . S
O85 C81 1.260 . S
O86 In78 2.266 . S
O86 C83 1.252 . S
O87 In78 2.326 . S
O87 C83 1.260 . S
C88 O79 1.240 . S
C88 O80 1.252 . S
O89 In78 2.294 . S
O89 C82 1.240 . S
O90 In78 2.326 . S
O90 C82 1.252 . S
In91 O92 2.300 . S
In91 O93 2.326 . S
In91 O97 2.266 . S
In91 O98 2.326 . S
In91 O99 2.266 . S
In91 O100 2.326 1_655 S
In91 O102 2.294 . S
In91 O103 2.326 . S
O92 In91 2.300 . S
O92 C101 1.238 1_655 S
O93 In91 2.326 . S
O93 C101 1.252 1_655 S
C94 O97 1.252 . S
C94 O98 1.260 . S
C95 O102 1.240 . S
C95 O103 1.252 . S
C96 O99 1.269 . S
C96 O100 1.253 1_655 S
O97 In91 2.266 . S
O97 C94 1.252 . S
O98 In91 2.326 . S
O98 C94 1.260 . S
O99 In91 2.266 . S
O99 C96 1.269 . S
O100 In91 2.326 1_455 S
O100 C96 1.253 1_455 S
C101 O92 1.238 1_455 S
C101 O93 1.252 1_455 S
O102 In91 2.294 . S
O102 C95 1.240 . S
O103 In91 2.326 . S
O103 C95 1.252 . S
In104 O105 2.294 . S
In104 O106 2.326 . S
In104 O110 2.266 . S
In104 O111 2.326 . S
In104 O112 2.266 . S
In104 O113 2.326 . S
In104 O115 2.294 . S
In104 O116 2.326 . S
O105 In104 2.294 . S
O105 C114 1.240 . S
O106 In104 2.326 . S
O106 C114 1.252 . S
C107 O110 1.252 . S
C107 O111 1.260 . S
C108 O115 1.240 . S
C108 O116 1.252 . S
C109 O112 1.252 . S
C109 O113 1.260 . S
O110 In104 2.266 . S
O110 C107 1.252 . S
O111 In104 2.326 . S
O111 C107 1.260 . S
O112 In104 2.266 . S
O112 C109 1.252 . S
O113 In104 2.326 . S
O113 C109 1.260 . S
C114 O105 1.240 . S
C114 O106 1.252 . S
O115 In104 2.294 . S
O115 C108 1.240 . S
O116 In104 2.326 . S
O116 C108 1.252 . S
In117 O118 2.294 . S
In117 O119 2.326 . S
In117 O123 2.266 . S
In117 O124 2.326 . S
In117 O125 2.266 . S
In117 O126 2.326 . S
In117 O128 2.294 . S
In117 O129 2.326 . S
O118 In117 2.294 . S
O118 C127 1.240 . S
O119 In117 2.326 . S
O119 C127 1.252 . S
C120 O123 1.252 . S
C120 O124 1.260 . S
C121 O128 1.240 . S
C121 O129 1.252 . S
C122 O125 1.252 . S
C122 O126 1.260 . S
O123 In117 2.266 . S
O123 C120 1.252 . S
O124 In117 2.326 . S
O124 C120 1.260 . S
O125 In117 2.266 . S
O125 C122 1.252 . S
O126 In117 2.326 . S
O126 C122 1.260 . S
C127 O118 1.240 . S
C127 O119 1.252 . S
O128 In117 2.294 . S
O128 C121 1.240 . S
O129 In117 2.326 . S
O129 C121 1.252 . S
In130 O131 2.294 . S
In130 O132 2.326 . S
In130 O136 2.266 . S
In130 O137 2.326 . S
In130 O138 2.266 . S
In130 O139 2.326 . S
In130 O141 2.294 . S
In130 O142 2.326 . S
O131 In130 2.294 . S
O131 C140 1.240 . S
O132 In130 2.326 . S
O132 C140 1.252 . S
C133 O136 1.252 . S
C133 O137 1.260 . S
C134 O141 1.240 . S
C134 O142 1.252 . S
C135 O138 1.252 . S
C135 O139 1.260 . S
O136 In130 2.266 . S
O136 C133 1.252 . S
O137 In130 2.326 . S
O137 C133 1.260 . S
O138 In130 2.266 . S
O138 C135 1.252 . S
O139 In130 2.326 . S
O139 C135 1.260 . S
C140 O131 1.240 . S
C140 O132 1.252 . S
O141 In130 2.294 . S
O141 C134 1.240 . S
O142 In130 2.326 . S
O142 C134 1.252 . S
In143 O144 2.294 . S
In143 O145 2.326 . S
In143 O149 2.266 . S
In143 O150 2.326 1_554 S
In143 O151 2.266 . S
In143 O152 2.326 . S
In143 O154 2.300 . S
In143 O155 2.326 . S
O144 In143 2.294 . S
O144 C153 1.240 . S
O145 In143 2.326 . S
O145 C153 1.252 . S
C146 O149 1.269 . S
C146 O150 1.253 1_554 S
C147 O154 1.238 1_556 S
C147 O155 1.252 1_556 S
C148 O151 1.252 . S
C148 O152 1.260 . S
O149 In143 2.266 . S
O149 C146 1.269 . S
O150 In143 2.326 1_556 S
O150 C146 1.253 1_556 S
O151 In143 2.266 . S
O151 C148 1.252 . S
O152 In143 2.326 . S
O152 C148 1.260 . S
C153 O144 1.240 . S
C153 O145 1.252 . S
O154 In143 2.300 . S
O154 C147 1.238 1_554 S
O155 In143 2.326 . S
O155 C147 1.252 1_554 S
In156 O157 2.294 . S
In156 O158 2.326 . S
In156 O162 2.266 . S
In156 O163 2.326 . S
In156 O164 2.266 . S
In156 O165 2.326 . S
In156 O167 2.294 . S
In156 O168 2.326 . S
O157 In156 2.294 . S
O157 C166 1.240 . S
O158 In156 2.326 . S
O158 C166 1.252 . S
C159 O162 1.252 . S
C159 O163 1.260 . S
C160 O167 1.240 . S
C160 O168 1.252 . S
C161 O164 1.252 . S
C161 O165 1.260 . S
O162 In156 2.266 . S
O162 C159 1.252 . S
O163 In156 2.326 . S
O163 C159 1.260 . S
O164 In156 2.266 . S
O164 C161 1.252 . S
O165 In156 2.326 . S
O165 C161 1.260 . S
C166 O157 1.240 . S
C166 O158 1.252 . S
O167 In156 2.294 . S
O167 C160 1.240 . S
O168 In156 2.326 . S
O168 C160 1.252 . S
In169 O170 2.294 . S
In169 O171 2.326 . S
In169 O175 2.266 . S
In169 O176 2.326 . S
In169 O177 2.266 . S
In169 O178 2.326 . S
In169 O180 2.294 . S
In169 O181 2.326 . S
O170 In169 2.294 . S
O170 C179 1.240 . S
O171 In169 2.326 . S
O171 C179 1.252 . S
C172 O175 1.252 . S
C172 O176 1.260 . S
C173 O180 1.240 . S
C173 O181 1.252 . S
C174 O177 1.252 . S
C174 O178 1.260 . S
O175 In169 2.266 . S
O175 C172 1.252 . S
O176 In169 2.326 . S
O176 C172 1.260 . S
O177 In169 2.266 . S
O177 C174 1.252 . S
O178 In169 2.326 . S
O178 C174 1.260 . S
C179 O170 1.240 . S
C179 O171 1.252 . S
O180 In169 2.294 . S
O180 C173 1.240 . S
O181 In169 2.326 . S
O181 C173 1.252 . S
In182 O183 2.294 . S
In182 O184 2.326 . S
In182 O188 2.266 . S
In182 O189 2.326 . S
In182 O190 2.266 . S
In182 O191 2.326 . S
In182 O193 2.294 . S
In182 O194 2.326 . S
O183 In182 2.294 . S
O183 C192 1.240 . S
O184 In182 2.326 . S
O184 C192 1.252 . S
C185 O188 1.252 . S
C185 O189 1.260 . S
C186 O193 1.240 . S
C186 O194 1.252 . S
C187 O190 1.252 . S
C187 O191 1.260 . S
O188 In182 2.266 . S
O188 C185 1.252 . S
O189 In182 2.326 . S
O189 C185 1.260 . S
O190 In182 2.266 . S
O190 C187 1.252 . S
O191 In182 2.326 . S
O191 C187 1.260 . S
C192 O183 1.240 . S
C192 O184 1.252 . S
O193 In182 2.294 . S
O193 C186 1.240 . S
O194 In182 2.326 . S
O194 C186 1.252 . S
In195 O196 2.300 . S
In195 O197 2.326 . S
In195 O201 2.266 . S
In195 O202 2.326 . S
In195 O203 2.266 . S
In195 O204 2.326 1_556 S
In195 O206 2.294 . S
In195 O207 2.326 . S
O196 In195 2.300 . S
O196 C205 1.238 1_556 S
O197 In195 2.326 . S
O197 C205 1.252 1_556 S
C198 O201 1.252 . S
C198 O202 1.260 . S
C199 O206 1.240 . S
C199 O207 1.252 . S
C200 O203 1.269 . S
C200 O204 1.253 1_556 S
O201 In195 2.266 . S
O201 C198 1.252 . S
O202 In195 2.326 . S
O202 C198 1.260 . S
O203 In195 2.266 . S
O203 C200 1.269 . S
O204 In195 2.326 1_554 S
O204 C200 1.253 1_554 S
C205 O196 1.238 1_554 S
C205 O197 1.252 1_554 S
O206 In195 2.294 . S
O206 C199 1.240 . S
O207 In195 2.326 . S
O207 C199 1.252 . S
In208 O209 2.294 . S
In208 O210 2.326 . S
In208 O214 2.266 . S
In208 O215 2.326 . S
In208 O216 2.266 . S
In208 O217 2.326 . S
In208 O219 2.294 . S
In208 O220 2.326 . S
O209 In208 2.294 . S
O209 C218 1.240 . S
O210 In208 2.326 . S
O210 C218 1.252 . S
C211 O214 1.252 . S
C211 O215 1.260 . S
C212 O219 1.240 . S
C212 O220 1.252 . S
C213 O216 1.252 . S
C213 O217 1.260 . S
O214 In208 2.266 . S
O214 C211 1.252 . S
O215 In208 2.326 . S
O215 C211 1.260 . S
O216 In208 2.266 . S
O216 C213 1.252 . S
O217 In208 2.326 . S
O217 C213 1.260 . S
C218 O209 1.240 . S
C218 O210 1.252 . S
O219 In208 2.294 . S
O219 C212 1.240 . S
O220 In208 2.326 . S
O220 C212 1.252 . S
In221 O222 2.294 . S
In221 O223 2.326 . S
In221 O227 2.266 . S
In221 O228 2.326 . S
In221 O229 2.266 . S
In221 O230 2.326 . S
In221 O232 2.294 . S
In221 O233 2.326 . S
O222 In221 2.294 . S
O222 C231 1.240 . S
O223 In221 2.326 . S
O223 C231 1.252 . S
C224 O227 1.252 . S
C224 O228 1.260 . S
C225 O232 1.240 . S
C225 O233 1.252 . S
C226 O229 1.252 . S
C226 O230 1.260 . S
O227 In221 2.266 . S
O227 C224 1.252 . S
O228 In221 2.326 . S
O228 C224 1.260 . S
O229 In221 2.266 . S
O229 C226 1.252 . S
O230 In221 2.326 . S
O230 C226 1.260 . S
C231 O222 1.240 . S
C231 O223 1.252 . S
O232 In221 2.294 . S
O232 C225 1.240 . S
O233 In221 2.326 . S
O233 C225 1.252 . S
In234 O235 2.294 . S
In234 O236 2.326 . S
In234 O240 2.266 . S
In234 O241 2.326 . S
In234 O242 2.266 . S
In234 O243 2.326 . S
In234 O245 2.294 . S
In234 O246 2.326 . S
O235 In234 2.294 . S
O235 C244 1.240 . S
O236 In234 2.326 . S
O236 C244 1.252 . S
C237 O240 1.252 . S
C237 O241 1.260 . S
C238 O245 1.240 . S
C238 O246 1.252 . S
C239 O242 1.252 . S
C239 O243 1.260 . S
O240 In234 2.266 . S
O240 C237 1.252 . S
O241 In234 2.326 . S
O241 C237 1.260 . S
O242 In234 2.266 . S
O242 C239 1.252 . S
O243 In234 2.326 . S
O243 C239 1.260 . S
C244 O235 1.240 . S
C244 O236 1.252 . S
O245 In234 2.294 . S
O245 C238 1.240 . S
O246 In234 2.326 . S
O246 C238 1.252 . S
In247 O248 2.294 . S
In247 O249 2.326 . S
In247 O253 2.266 . S
In247 O254 2.326 . S
In247 O255 2.266 . S
In247 O256 2.326 . S
In247 O258 2.294 . S
In247 O259 2.326 . S
O248 In247 2.294 . S
O248 C257 1.240 . S
O249 In247 2.326 . S
O249 C257 1.252 . S
C250 O253 1.252 . S
C250 O254 1.260 . S
C251 O258 1.240 . S
C251 O259 1.252 . S
C252 O255 1.252 . S
C252 O256 1.260 . S
O253 In247 2.266 . S
O253 C250 1.252 . S
O254 In247 2.326 . S
O254 C250 1.260 . S
O255 In247 2.266 . S
O255 C252 1.252 . S
O256 In247 2.326 . S
O256 C252 1.260 . S
C257 O248 1.240 . S
C257 O249 1.252 . S
O258 In247 2.294 . S
O258 C251 1.240 . S
O259 In247 2.326 . S
O259 C251 1.252 . S
In260 O261 2.294 . S
In260 O262 2.326 . S
In260 O266 2.266 . S
In260 O267 2.326 1_565 S
In260 O268 2.266 . S
In260 O269 2.326 . S
In260 O271 2.300 . S
In260 O272 2.326 . S
O261 In260 2.294 . S
O261 C270 1.240 . S
O262 In260 2.326 . S
O262 C270 1.252 . S
C263 O266 1.269 . S
C263 O267 1.253 1_565 S
C264 O271 1.238 1_545 S
C264 O272 1.252 1_545 S
C265 O268 1.252 . S
C265 O269 1.260 . S
O266 In260 2.266 . S
O266 C263 1.269 . S
O267 In260 2.326 1_545 S
O267 C263 1.253 1_545 S
O268 In260 2.266 . S
O268 C265 1.252 . S
O269 In260 2.326 . S
O269 C265 1.260 . S
C270 O261 1.240 . S
C270 O262 1.252 . S
O271 In260 2.300 . S
O271 C264 1.238 1_565 S
O272 In260 2.326 . S
O272 C264 1.252 1_565 S
In273 O274 2.294 . S
In273 O275 2.326 . S
In273 O279 2.266 . S
In273 O280 2.326 . S
In273 O281 2.266 . S
In273 O282 2.326 . S
In273 O284 2.294 . S
In273 O285 2.326 . S
O274 In273 2.294 . S
O274 C283 1.240 . S
O275 In273 2.326 . S
O275 C283 1.252 . S
C276 O279 1.252 . S
C276 O280 1.260 . S
C277 O284 1.240 . S
C277 O285 1.252 . S
C278 O281 1.252 . S
C278 O282 1.260 . S
O279 In273 2.266 . S
O279 C276 1.252 . S
O280 In273 2.326 . S
O280 C276 1.260 . S
O281 In273 2.266 . S
O281 C278 1.252 . S
O282 In273 2.326 . S
O282 C278 1.260 . S
C283 O274 1.240 . S
C283 O275 1.252 . S
O284 In273 2.294 . S
O284 C277 1.240 . S
O285 In273 2.326 . S
O285 C277 1.252 . S
In286 O287 2.294 . S
In286 O288 2.326 . S
In286 O292 2.266 . S
In286 O293 2.326 . S
In286 O294 2.266 . S
In286 O295 2.326 . S
In286 O297 2.294 . S
In286 O298 2.326 . S
O287 In286 2.294 . S
O287 C296 1.240 . S
O288 In286 2.326 . S
O288 C296 1.252 . S
C289 O292 1.252 . S
C289 O293 1.260 . S
C290 O297 1.240 . S
C290 O298 1.252 . S
C291 O294 1.252 . S
C291 O295 1.260 . S
O292 In286 2.266 . S
O292 C289 1.252 . S
O293 In286 2.326 . S
O293 C289 1.260 . S
O294 In286 2.266 . S
O294 C291 1.252 . S
O295 In286 2.326 . S
O295 C291 1.260 . S
C296 O287 1.240 . S
C296 O288 1.252 . S
O297 In286 2.294 . S
O297 C290 1.240 . S
O298 In286 2.326 . S
O298 C290 1.252 . S
In299 O300 2.294 . S
In299 O301 2.326 . S
In299 O305 2.266 . S
In299 O306 2.326 . S
In299 O307 2.266 . S
In299 O308 2.326 . S
In299 O310 2.294 . S
In299 O311 2.326 . S
O300 In299 2.294 . S
O300 C309 1.240 . S
O301 In299 2.326 . S
O301 C309 1.252 . S
C302 O305 1.252 . S
C302 O306 1.260 . S
C303 O310 1.240 . S
C303 O311 1.252 . S
C304 O307 1.252 . S
C304 O308 1.260 . S
O305 In299 2.266 . S
O305 C302 1.252 . S
O306 In299 2.326 . S
O306 C302 1.260 . S
O307 In299 2.266 . S
O307 C304 1.252 . S
O308 In299 2.326 . S
O308 C304 1.260 . S
C309 O300 1.240 . S
C309 O301 1.252 . S
O310 In299 2.294 . S
O310 C303 1.240 . S
O311 In299 2.326 . S
O311 C303 1.252 . S
In312 O313 2.294 . S
In312 O314 2.326 . S
In312 O318 2.266 . S
In312 O319 2.326 . S
In312 O320 2.266 . S
In312 O321 2.326 . S
In312 O323 2.294 . S
In312 O324 2.326 . S
O313 In312 2.294 . S
O313 C322 1.240 . S
O314 In312 2.326 . S
O314 C322 1.252 . S
C315 O318 1.252 . S
C315 O319 1.260 . S
C316 O323 1.240 . S
C316 O324 1.252 . S
C317 O320 1.252 . S
C317 O321 1.260 . S
O318 In312 2.266 . S
O318 C315 1.252 . S
O319 In312 2.326 . S
O319 C315 1.260 . S
O320 In312 2.266 . S
O320 C317 1.252 . S
O321 In312 2.326 . S
O321 C317 1.260 . S
C322 O313 1.240 . S
C322 O314 1.252 . S
O323 In312 2.294 . S
O323 C316 1.240 . S
O324 In312 2.326 . S
O324 C316 1.252 . S
In325 O326 2.294 . S
In325 O327 2.326 . S
In325 O331 2.266 . S
In325 O332 2.326 . S
In325 O333 2.266 . S
In325 O334 2.326 . S
In325 O336 2.294 . S
In325 O337 2.326 . S
O326 In325 2.294 . S
O326 C335 1.240 . S
O327 In325 2.326 . S
O327 C335 1.252 . S
C328 O331 1.252 . S
C328 O332 1.260 . S
C329 O336 1.240 . S
C329 O337 1.252 . S
C330 O333 1.252 . S
C330 O334 1.260 . S
O331 In325 2.266 . S
O331 C328 1.252 . S
O332 In325 2.326 . S
O332 C328 1.260 . S
O333 In325 2.266 . S
O333 C330 1.252 . S
O334 In325 2.326 . S
O334 C330 1.260 . S
C335 O326 1.240 . S
C335 O327 1.252 . S
O336 In325 2.294 . S
O336 C329 1.240 . S
O337 In325 2.326 . S
O337 C329 1.252 . S
In338 O339 2.294 . S
In338 O340 2.326 . S
In338 O344 2.266 . S
In338 O345 2.326 . S
In338 O346 2.266 . S
In338 O347 2.326 . S
In338 O349 2.294 . S
In338 O350 2.326 . S
O339 In338 2.294 . S
O339 C348 1.240 . S
O340 In338 2.326 . S
O340 C348 1.252 . S
C341 O344 1.252 . S
C341 O345 1.260 . S
C342 O349 1.240 . S
C342 O350 1.252 . S
C343 O346 1.252 . S
C343 O347 1.260 . S
O344 In338 2.266 . S
O344 C341 1.252 . S
O345 In338 2.326 . S
O345 C341 1.260 . S
O346 In338 2.266 . S
O346 C343 1.252 . S
O347 In338 2.326 . S
O347 C343 1.260 . S
C348 O339 1.240 . S
C348 O340 1.252 . S
O349 In338 2.294 . S
O349 C342 1.240 . S
O350 In338 2.326 . S
O350 C342 1.252 . S
In351 O352 2.294 . S
In351 O353 2.326 . S
In351 O357 2.266 . S
In351 O358 2.326 1_455 S
In351 O359 2.266 . S
In351 O360 2.326 . S
In351 O362 2.300 . S
In351 O363 2.326 . S
O352 In351 2.294 . S
O352 C361 1.240 . S
O353 In351 2.326 . S
O353 C361 1.252 . S
C354 O357 1.269 . S
C354 O358 1.253 1_455 S
C355 O362 1.238 1_655 S
C355 O363 1.252 1_655 S
C356 O359 1.252 . S
C356 O360 1.260 . S
O357 In351 2.266 . S
O357 C354 1.269 . S
O358 In351 2.326 1_655 S
O358 C354 1.253 1_655 S
O359 In351 2.266 . S
O359 C356 1.252 . S
O360 In351 2.326 . S
O360 C356 1.260 . S
C361 O352 1.240 . S
C361 O353 1.252 . S
O362 In351 2.300 . S
O362 C355 1.238 1_455 S
O363 In351 2.326 . S
O363 C355 1.252 1_455 S
In364 O365 2.294 . S
In364 O366 2.326 . S
In364 O370 2.266 . S
In364 O371 2.326 . S
In364 O372 2.266 . S
In364 O373 2.326 . S
In364 O375 2.294 . S
In364 O376 2.326 . S
O365 In364 2.294 . S
O365 C374 1.240 . S
O366 In364 2.326 . S
O366 C374 1.252 . S
C367 O370 1.252 . S
C367 O371 1.260 . S
C368 O375 1.240 . S
C368 O376 1.252 . S
C369 O372 1.252 . S
C369 O373 1.260 . S
O370 In364 2.266 . S
O370 C367 1.252 . S
O371 In364 2.326 . S
O371 C367 1.260 . S
O372 In364 2.266 . S
O372 C369 1.252 . S
O373 In364 2.326 . S
O373 C369 1.260 . S
C374 O365 1.240 . S
C374 O366 1.252 . S
O375 In364 2.294 . S
O375 C368 1.240 . S
O376 In364 2.326 . S
O376 C368 1.252 . S
In377 O378 2.294 . S
In377 O379 2.326 . S
In377 O383 2.266 . S
In377 O384 2.326 1_455 S
In377 O385 2.266 . S
In377 O386 2.326 . S
In377 O388 2.300 . S
In377 O389 2.326 . S
O378 In377 2.294 . S
O378 C387 1.240 . S
O379 In377 2.326 . S
O379 C387 1.252 . S
C380 O383 1.269 . S
C380 O384 1.253 1_455 S
C381 O388 1.238 1_655 S
C381 O389 1.252 1_655 S
C382 O385 1.252 . S
C382 O386 1.260 . S
O383 In377 2.266 . S
O383 C380 1.269 . S
O384 In377 2.326 1_655 S
O384 C380 1.253 1_655 S
O385 In377 2.266 . S
O385 C382 1.252 . S
O386 In377 2.326 . S
O386 C382 1.260 . S
C387 O378 1.240 . S
C387 O379 1.252 . S
O388 In377 2.300 . S
O388 C381 1.238 1_455 S
O389 In377 2.326 . S
O389 C381 1.252 1_455 S
In390 O391 2.294 . S
In390 O392 2.326 . S
In390 O396 2.266 . S
In390 O397 2.326 . S
In390 O398 2.266 . S
In390 O399 2.326 . S
In390 O401 2.294 . S
In390 O402 2.326 . S
O391 In390 2.294 . S
O391 C400 1.240 . S
O392 In390 2.326 . S
O392 C400 1.252 . S
C393 O396 1.252 . S
C393 O397 1.260 . S
C394 O401 1.240 . S
C394 O402 1.252 . S
C395 O398 1.252 . S
C395 O399 1.260 . S
O396 In390 2.266 . S
O396 C393 1.252 . S
O397 In390 2.326 . S
O397 C393 1.260 . S
O398 In390 2.266 . S
O398 C395 1.252 . S
O399 In390 2.326 . S
O399 C395 1.260 . S
C400 O391 1.240 . S
C400 O392 1.252 . S
O401 In390 2.294 . S
O401 C394 1.240 . S
O402 In390 2.326 . S
O402 C394 1.252 . S
In403 O404 2.294 . S
In403 O405 2.326 . S
In403 O409 2.266 . S
In403 O410 2.326 . S
In403 O411 2.266 . S
In403 O412 2.326 . S
In403 O414 2.294 . S
In403 O415 2.326 . S
O404 In403 2.294 . S
O404 C413 1.240 . S
O405 In403 2.326 . S
O405 C413 1.252 . S
C406 O409 1.252 . S
C406 O410 1.260 . S
C407 O414 1.240 . S
C407 O415 1.252 . S
C408 O411 1.252 . S
C408 O412 1.260 . S
O409 In403 2.266 . S
O409 C406 1.252 . S
O410 In403 2.326 . S
O410 C406 1.260 . S
O411 In403 2.266 . S
O411 C408 1.252 . S
O412 In403 2.326 . S
O412 C408 1.260 . S
C413 O404 1.240 . S
C413 O405 1.252 . S
O414 In403 2.294 . S
O414 C407 1.240 . S
O415 In403 2.326 . S
O415 C407 1.252 . S
In416 O417 2.294 . S
In416 O418 2.326 . S
In416 O422 2.266 . S
In416 O423 2.326 . S
In416 O424 2.266 . S
In416 O425 2.326 . S
In416 O427 2.294 . S
In416 O428 2.326 . S
O417 In416 2.294 . S
O417 C426 1.240 . S
O418 In416 2.326 . S
O418 C426 1.252 . S
C419 O422 1.252 . S
C419 O423 1.260 . S
C420 O427 1.240 . S
C420 O428 1.252 . S
C421 O424 1.252 . S
C421 O425 1.260 . S
O422 In416 2.266 . S
O422 C419 1.252 . S
O423 In416 2.326 . S
O423 C419 1.260 . S
O424 In416 2.266 . S
O424 C421 1.252 . S
O425 In416 2.326 . S
O425 C421 1.260 . S
C426 O417 1.240 . S
C426 O418 1.252 . S
O427 In416 2.294 . S
O427 C420 1.240 . S
O428 In416 2.326 . S
O428 C420 1.252 . S
In429 O430 2.300 . S
In429 O431 2.326 . S
In429 O435 2.266 . S
In429 O436 2.326 . S
In429 O437 2.266 . S
In429 O438 2.326 1_554 S
In429 O440 2.294 . S
In429 O441 2.326 . S
O430 In429 2.300 . S
O430 C439 1.238 1_554 S
O431 In429 2.326 . S
O431 C439 1.252 1_554 S
C432 O435 1.252 . S
C432 O436 1.260 . S
C433 O440 1.240 . S
C433 O441 1.252 . S
C434 O437 1.269 . S
C434 O438 1.253 1_554 S
O435 In429 2.266 . S
O435 C432 1.252 . S
O436 In429 2.326 . S
O436 C432 1.260 . S
O437 In429 2.266 . S
O437 C434 1.269 . S
O438 In429 2.326 1_556 S
O438 C434 1.253 1_556 S
C439 O430 1.238 1_556 S
C439 O431 1.252 1_556 S
O440 In429 2.294 . S
O440 C433 1.240 . S
O441 In429 2.326 . S
O441 C433 1.252 . S
In442 O443 2.294 . S
In442 O444 2.326 . S
In442 O448 2.266 . S
In442 O449 2.326 . S
In442 O450 2.266 . S
In442 O451 2.326 . S
In442 O453 2.294 . S
In442 O454 2.326 . S
O443 In442 2.294 . S
O443 C452 1.240 . S
O444 In442 2.326 . S
O444 C452 1.252 . S
C445 O448 1.252 . S
C445 O449 1.260 . S
C446 O453 1.240 . S
C446 O454 1.252 . S
C447 O450 1.252 . S
C447 O451 1.260 . S
O448 In442 2.266 . S
O448 C445 1.252 . S
O449 In442 2.326 . S
O449 C445 1.260 . S
O450 In442 2.266 . S
O450 C447 1.252 . S
O451 In442 2.326 . S
O451 C447 1.260 . S
C452 O443 1.240 . S
C452 O444 1.252 . S
O453 In442 2.294 . S
O453 C446 1.240 . S
O454 In442 2.326 . S
O454 C446 1.252 . S
In455 O456 2.294 . S
In455 O457 2.326 . S
In455 O461 2.266 . S
In455 O462 2.326 . S
In455 O463 2.266 . S
In455 O464 2.326 . S
In455 O466 2.294 . S
In455 O467 2.326 . S
O456 In455 2.294 . S
O456 C465 1.240 . S
O457 In455 2.326 . S
O457 C465 1.252 . S
C458 O461 1.252 . S
C458 O462 1.260 . S
C459 O466 1.240 . S
C459 O467 1.252 . S
C460 O463 1.252 . S
C460 O464 1.260 . S
O461 In455 2.266 . S
O461 C458 1.252 . S
O462 In455 2.326 . S
O462 C458 1.260 . S
O463 In455 2.266 . S
O463 C460 1.252 . S
O464 In455 2.326 . S
O464 C460 1.260 . S
C465 O456 1.240 . S
C465 O457 1.252 . S
O466 In455 2.294 . S
O466 C459 1.240 . S
O467 In455 2.326 . S
O467 C459 1.252 . S
In468 O469 2.294 . S
In468 O470 2.326 . S
In468 O474 2.266 . S
In468 O475 2.326 . S
In468 O476 2.266 . S
In468 O477 2.326 . S
In468 O479 2.294 . S
In468 O480 2.326 . S
O469 In468 2.294 . S
O469 C478 1.240 . S
O470 In468 2.326 . S
O470 C478 1.252 . S
C471 O474 1.252 . S
C471 O475 1.260 . S
C472 O479 1.240 . S
C472 O480 1.252 . S
C473 O476 1.252 . S
C473 O477 1.260 . S
O474 In468 2.266 . S
O474 C471 1.252 . S
O475 In468 2.326 . S
O475 C471 1.260 . S
O476 In468 2.266 . S
O476 C473 1.252 . S
O477 In468 2.326 . S
O477 C473 1.260 . S
C478 O469 1.240 . S
C478 O470 1.252 . S
O479 In468 2.294 . S
O479 C472 1.240 . S
O480 In468 2.326 . S
O480 C472 1.252 . S
In481 O482 2.300 . S
In481 O483 2.326 . S
In481 O487 2.266 . S
In481 O488 2.326 . S
In481 O489 2.266 . S
In481 O490 2.326 1_556 S
In481 O492 2.294 . S
In481 O493 2.326 . S
O482 In481 2.300 . S
O482 C491 1.238 1_556 S
O483 In481 2.326 . S
O483 C491 1.252 1_556 S
C484 O487 1.252 . S
C484 O488 1.260 . S
C485 O492 1.240 . S
C485 O493 1.252 . S
C486 O489 1.269 . S
C486 O490 1.253 1_556 S
O487 In481 2.266 . S
O487 C484 1.252 . S
O488 In481 2.326 . S
O488 C484 1.260 . S
O489 In481 2.266 . S
O489 C486 1.269 . S
O490 In481 2.326 1_554 S
O490 C486 1.253 1_554 S
C491 O482 1.238 1_554 S
C491 O483 1.252 1_554 S
O492 In481 2.294 . S
O492 C485 1.240 . S
O493 In481 2.326 . S
O493 C485 1.252 . S
In494 O495 2.294 . S
In494 O496 2.326 . S
In494 O500 2.266 . S
In494 O501 2.326 . S
In494 O502 2.266 . S
In494 O503 2.326 . S
In494 O505 2.294 . S
In494 O506 2.326 . S
O495 In494 2.294 . S
O495 C504 1.240 . S
O496 In494 2.326 . S
O496 C504 1.252 . S
C497 O500 1.252 . S
C497 O501 1.260 . S
C498 O505 1.240 . S
C498 O506 1.252 . S
C499 O502 1.252 . S
C499 O503 1.260 . S
O500 In494 2.266 . S
O500 C497 1.252 . S
O501 In494 2.326 . S
O501 C497 1.260 . S
O502 In494 2.266 . S
O502 C499 1.252 . S
O503 In494 2.326 . S
O503 C499 1.260 . S
C504 O495 1.240 . S
C504 O496 1.252 . S
O505 In494 2.294 . S
O505 C498 1.240 . S
O506 In494 2.326 . S
O506 C498 1.252 . S
In507 O508 2.294 . S
In507 O509 2.326 . S
In507 O513 2.266 . S
In507 O514 2.326 . S
In507 O515 2.266 . S
In507 O516 2.326 . S
In507 O518 2.294 . S
In507 O519 2.326 . S
O508 In507 2.294 . S
O508 C517 1.240 . S
O509 In507 2.326 . S
O509 C517 1.252 . S
C510 O513 1.252 . S
C510 O514 1.260 . S
C511 O518 1.240 . S
C511 O519 1.252 . S
C512 O515 1.252 . S
C512 O516 1.260 . S
O513 In507 2.266 . S
O513 C510 1.252 . S
O514 In507 2.326 . S
O514 C510 1.260 . S
O515 In507 2.266 . S
O515 C512 1.252 . S
O516 In507 2.326 . S
O516 C512 1.260 . S
C517 O508 1.240 . S
C517 O509 1.252 . S
O518 In507 2.294 . S
O518 C511 1.240 . S
O519 In507 2.326 . S
O519 C511 1.252 . S
In520 O521 2.294 . S
In520 O522 2.326 . S
In520 O526 2.266 . S
In520 O527 2.326 . S
In520 O528 2.266 . S
In520 O529 2.326 . S
In520 O531 2.294 . S
In520 O532 2.326 . S
O521 In520 2.294 . S
O521 C530 1.240 . S
O522 In520 2.326 . S
O522 C530 1.252 . S
C523 O526 1.252 . S
C523 O527 1.260 . S
C524 O531 1.240 . S
C524 O532 1.252 . S
C525 O528 1.252 . S
C525 O529 1.260 . S
O526 In520 2.266 . S
O526 C523 1.252 . S
O527 In520 2.326 . S
O527 C523 1.260 . S
O528 In520 2.266 . S
O528 C525 1.252 . S
O529 In520 2.326 . S
O529 C525 1.260 . S
C530 O521 1.240 . S
C530 O522 1.252 . S
O531 In520 2.294 . S
O531 C524 1.240 . S
O532 In520 2.326 . S
O532 C524 1.252 . S
In533 O534 2.294 . S
In533 O535 2.326 . S
In533 O539 2.266 . S
In533 O540 2.326 . S
In533 O541 2.266 . S
In533 O542 2.326 . S
In533 O544 2.294 . S
In533 O545 2.326 . S
O534 In533 2.294 . S
O534 C543 1.240 . S
O535 In533 2.326 . S
O535 C543 1.252 . S
C536 O539 1.252 . S
C536 O540 1.260 . S
C537 O544 1.240 . S
C537 O545 1.252 . S
C538 O541 1.252 . S
C538 O542 1.260 . S
O539 In533 2.266 . S
O539 C536 1.252 . S
O540 In533 2.326 . S
O540 C536 1.260 . S
O541 In533 2.266 . S
O541 C538 1.252 . S
O542 In533 2.326 . S
O542 C538 1.260 . S
C543 O534 1.240 . S
C543 O535 1.252 . S
O544 In533 2.294 . S
O544 C537 1.240 . S
O545 In533 2.326 . S
O545 C537 1.252 . S
In546 O547 2.300 . S
In546 O548 2.326 . S
In546 O552 2.266 . S
In546 O553 2.326 . S
In546 O554 2.266 . S
In546 O555 2.326 1_545 S
In546 O557 2.294 . S
In546 O558 2.326 . S
O547 In546 2.300 . S
O547 C556 1.238 1_545 S
O548 In546 2.326 . S
O548 C556 1.252 1_545 S
C549 O552 1.252 . S
C549 O553 1.260 . S
C550 O557 1.240 . S
C550 O558 1.252 . S
C551 O554 1.269 . S
C551 O555 1.253 1_545 S
O552 In546 2.266 . S
O552 C549 1.252 . S
O553 In546 2.326 . S
O553 C549 1.260 . S
O554 In546 2.266 . S
O554 C551 1.269 . S
O555 In546 2.326 1_565 S
O555 C551 1.253 1_565 S
C556 O547 1.238 1_565 S
C556 O548 1.252 1_565 S
O557 In546 2.294 . S
O557 C550 1.240 . S
O558 In546 2.326 . S
O558 C550 1.252 . S
In559 O560 2.294 . S
In559 O561 2.326 . S
In559 O565 2.266 . S
In559 O566 2.326 . S
In559 O567 2.266 . S
In559 O568 2.326 . S
In559 O570 2.294 . S
In559 O571 2.326 . S
O560 In559 2.294 . S
O560 C569 1.240 . S
O561 In559 2.326 . S
O561 C569 1.252 . S
C562 O565 1.252 . S
C562 O566 1.260 . S
C563 O570 1.240 . S
C563 O571 1.252 . S
C564 O567 1.252 . S
C564 O568 1.260 . S
O565 In559 2.266 . S
O565 C562 1.252 . S
O566 In559 2.326 . S
O566 C562 1.260 . S
O567 In559 2.266 . S
O567 C564 1.252 . S
O568 In559 2.326 . S
O568 C564 1.260 . S
C569 O560 1.240 . S
C569 O561 1.252 . S
O570 In559 2.294 . S
O570 C563 1.240 . S
O571 In559 2.326 . S
O571 C563 1.252 . S
In572 O573 2.294 . S
In572 O574 2.326 . S
In572 O578 2.266 . S
In572 O579 2.326 . S
In572 O580 2.266 . S
In572 O581 2.326 . S
In572 O583 2.294 . S
In572 O584 2.326 . S
O573 In572 2.294 . S
O573 C582 1.240 . S
O574 In572 2.326 . S
O574 C582 1.252 . S
C575 O578 1.252 . S
C575 O579 1.260 . S
C576 O583 1.240 . S
C576 O584 1.252 . S
C577 O580 1.252 . S
C577 O581 1.260 . S
O578 In572 2.266 . S
O578 C575 1.252 . S
O579 In572 2.326 . S
O579 C575 1.260 . S
O580 In572 2.266 . S
O580 C577 1.252 . S
O581 In572 2.326 . S
O581 C577 1.260 . S
C582 O573 1.240 . S
C582 O574 1.252 . S
O583 In572 2.294 . S
O583 C576 1.240 . S
O584 In572 2.326 . S
O584 C576 1.252 . S
In585 O586 2.294 . S
In585 O587 2.326 . S
In585 O591 2.266 . S
In585 O592 2.326 . S
In585 O593 2.266 . S
In585 O594 2.326 . S
In585 O596 2.294 . S
In585 O597 2.326 . S
O586 In585 2.294 . S
O586 C595 1.240 . S
O587 In585 2.326 . S
O587 C595 1.252 . S
C588 O591 1.252 . S
C588 O592 1.260 . S
C589 O596 1.240 . S
C589 O597 1.252 . S
C590 O593 1.252 . S
C590 O594 1.260 . S
O591 In585 2.266 . S
O591 C588 1.252 . S
O592 In585 2.326 . S
O592 C588 1.260 . S
O593 In585 2.266 . S
O593 C590 1.252 . S
O594 In585 2.326 . S
O594 C590 1.260 . S
C595 O586 1.240 . S
C595 O587 1.252 . S
O596 In585 2.294 . S
O596 C589 1.240 . S
O597 In585 2.326 . S
O597 C589 1.252 . S
In598 O599 2.294 . S
In598 O600 2.326 . S
In598 O604 2.266 . S
In598 O605 2.326 1_565 S
In598 O606 2.266 . S
In598 O607 2.326 . S
In598 O609 2.300 . S
In598 O610 2.326 . S
O599 In598 2.294 . S
O599 C608 1.240 . S
O600 In598 2.326 . S
O600 C608 1.252 . S
C601 O604 1.269 . S
C601 O605 1.253 1_565 S
C602 O609 1.238 1_545 S
C602 O610 1.252 1_545 S
C603 O606 1.252 . S
C603 O607 1.260 . S
O604 In598 2.266 . S
O604 C601 1.269 . S
O605 In598 2.326 1_545 S
O605 C601 1.253 1_545 S
O606 In598 2.266 . S
O606 C603 1.252 . S
O607 In598 2.326 . S
O607 C603 1.260 . S
C608 O599 1.240 . S
C608 O600 1.252 . S
O609 In598 2.300 . S
O609 C602 1.238 1_565 S
O610 In598 2.326 . S
O610 C602 1.252 1_565 S
In611 O612 2.294 . S
In611 O613 2.326 . S
In611 O617 2.266 . S
In611 O618 2.326 1_545 S
In611 O619 2.266 . S
In611 O620 2.326 . S
In611 O622 2.300 . S
In611 O623 2.326 . S
O612 In611 2.294 . S
O612 C621 1.240 . S
O613 In611 2.326 . S
O613 C621 1.252 . S
C614 O617 1.269 . S
C614 O618 1.253 1_545 S
C615 O622 1.238 1_565 S
C615 O623 1.252 1_565 S
C616 O619 1.252 . S
C616 O620 1.260 . S
O617 In611 2.266 . S
O617 C614 1.269 . S
O618 In611 2.326 1_565 S
O618 C614 1.253 1_565 S
O619 In611 2.266 . S
O619 C616 1.252 . S
O620 In611 2.326 . S
O620 C616 1.260 . S
C621 O612 1.240 . S
C621 O613 1.252 . S
O622 In611 2.300 . S
O622 C615 1.238 1_545 S
O623 In611 2.326 . S
O623 C615 1.252 1_545 S
H624 C630 0.930 . S
H625 C634 0.930 . S
H626 C639 0.929 . S
H627 C637 0.929 . S
H628 C632 0.929 . S
H629 C638 0.929 . S
C630 H624 0.930 . S
C630 C631 1.367 . S
C630 C638 1.378 . S
C631 C630 1.367 . S
C631 C639 1.433 . S
C632 H628 0.929 . S
C632 C634 1.378 . S
C632 C636 1.350 . S
C633 C636 1.463 . S
C633 C638 1.350 . S
C633 N641 1.427 . S
C634 H625 0.930 . S
C634 C632 1.378 . S
C634 C635 1.367 . S
C635 C634 1.367 . S
C635 C637 1.433 . S
C636 C632 1.350 . S
C636 C633 1.463 . S
C636 N640 1.427 . S
C637 H627 0.929 . S
C637 C635 1.433 . S
C637 N640 1.384 . S
C638 H629 0.929 . S
C638 C630 1.378 . S
C638 C633 1.350 . S
C639 H626 0.929 . S
C639 C631 1.433 . S
C639 N641 1.384 . S
N640 C636 1.427 . S
N640 C637 1.384 . S
N641 C633 1.427 . S
N641 C639 1.384 . S
H642 C648 0.930 . S
H643 C652 0.930 . S
H644 C657 0.929 . S
H645 C655 0.929 . S
H646 C650 0.929 . S
H647 C656 0.929 . S
C648 H642 0.930 . S
C648 C649 1.367 . S
C648 C656 1.378 . S
C649 C648 1.367 . S
C649 C657 1.433 . S
C650 H646 0.929 . S
C650 C652 1.378 . S
C650 C654 1.350 . S
C651 C654 1.463 . S
C651 C656 1.350 . S
C651 N659 1.427 . S
C652 H643 0.930 . S
C652 C650 1.378 . S
C652 C653 1.367 . S
C653 C652 1.367 . S
C653 C655 1.433 . S
C654 C650 1.350 . S
C654 C651 1.463 . S
C654 N658 1.427 . S
C655 H645 0.929 . S
C655 C653 1.433 . S
C655 N658 1.384 . S
C656 H647 0.929 . S
C656 C648 1.378 . S
C656 C651 1.350 . S
C657 H644 0.929 . S
C657 C649 1.433 . S
C657 N659 1.384 . S
N658 C654 1.427 . S
N658 C655 1.384 . S
N659 C651 1.427 . S
N659 C657 1.384 . S
H660 C666 0.930 . S
H661 C670 0.930 . S
H662 C675 0.929 . S
H663 C673 0.929 . S
H664 C668 0.929 . S
H665 C674 0.929 . S
C666 H660 0.930 . S
C666 C667 1.367 . S
C666 C674 1.378 . S
C667 C666 1.367 . S
C667 C675 1.433 . S
C668 H664 0.929 . S
C668 C670 1.378 . S
C668 C672 1.350 . S
C669 C672 1.463 . S
C669 C674 1.350 . S
C669 N677 1.427 . S
C670 H661 0.930 . S
C670 C668 1.378 . S
C670 C671 1.367 . S
C671 C670 1.367 . S
C671 C673 1.433 . S
C672 C668 1.350 . S
C672 C669 1.463 . S
C672 N676 1.427 . S
C673 H663 0.929 . S
C673 C671 1.433 . S
C673 N676 1.384 . S
C674 H665 0.929 . S
C674 C666 1.378 . S
C674 C669 1.350 . S
C675 H662 0.929 . S
C675 C667 1.433 . S
C675 N677 1.384 . S
N676 C672 1.427 . S
N676 C673 1.384 . S
N677 C669 1.427 . S
N677 C675 1.384 . S
H678 C684 0.930 . S
H679 C688 0.930 . S
H680 C693 0.929 . S
H681 C691 0.929 . S
H682 C686 0.929 . S
H683 C692 0.929 . S
C684 H678 0.930 . S
C684 C685 1.367 . S
C684 C692 1.378 . S
C685 C684 1.367 . S
C685 C693 1.433 . S
C686 H682 0.929 . S
C686 C688 1.378 . S
C686 C690 1.350 . S
C687 C690 1.463 . S
C687 C692 1.350 . S
C687 N695 1.427 . S
C688 H679 0.930 . S
C688 C686 1.378 . S
C688 C689 1.367 . S
C689 C688 1.367 . S
C689 C691 1.433 . S
C690 C686 1.350 . S
C690 C687 1.463 . S
C690 N694 1.427 . S
C691 H681 0.929 . S
C691 C689 1.433 . S
C691 N694 1.384 . S
C692 H683 0.929 . S
C692 C684 1.378 . S
C692 C687 1.350 . S
C693 H680 0.929 . S
C693 C685 1.433 . S
C693 N695 1.384 . S
N694 C690 1.427 . S
N694 C691 1.384 . S
N695 C687 1.427 . S
N695 C693 1.384 . S
H696 C702 0.930 . S
H697 C706 0.930 . S
H698 C711 0.929 . S
H699 C709 0.929 . S
H700 C704 0.929 . S
H701 C710 0.929 . S
C702 H696 0.930 . S
C702 C703 1.367 . S
C702 C710 1.378 . S
C703 C702 1.367 . S
C703 C711 1.433 . S
C704 H700 0.929 . S
C704 C706 1.378 . S
C704 C708 1.350 . S
C705 C708 1.463 . S
C705 C710 1.350 . S
C705 N713 1.427 . S
C706 H697 0.930 . S
C706 C704 1.378 . S
C706 C707 1.367 . S
C707 C706 1.367 . S
C707 C709 1.433 . S
C708 C704 1.350 . S
C708 C705 1.463 . S
C708 N712 1.427 . S
C709 H699 0.929 . S
C709 C707 1.433 . S
C709 N712 1.384 . S
C710 H701 0.929 . S
C710 C702 1.378 . S
C710 C705 1.350 . S
C711 H698 0.929 . S
C711 C703 1.433 . S
C711 N713 1.384 . S
N712 C708 1.427 . S
N712 C709 1.384 . S
N713 C705 1.427 . S
N713 C711 1.384 . S
H714 C720 0.930 . S
H715 C724 0.930 . S
H716 C729 0.929 . S
H717 C727 0.929 . S
H718 C722 0.929 . S
H719 C728 0.929 . S
C720 H714 0.930 . S
C720 C721 1.367 . S
C720 C728 1.378 . S
C721 C720 1.367 . S
C721 C729 1.433 . S
C722 H718 0.929 . S
C722 C724 1.378 . S
C722 C726 1.350 . S
C723 C726 1.463 . S
C723 C728 1.350 . S
C723 N731 1.427 . S
C724 H715 0.930 . S
C724 C722 1.378 . S
C724 C725 1.367 . S
C725 C724 1.367 . S
C725 C727 1.433 . S
C726 C722 1.350 . S
C726 C723 1.463 . S
C726 N730 1.427 . S
C727 H717 0.929 . S
C727 C725 1.433 . S
C727 N730 1.384 . S
C728 H719 0.929 . S
C728 C720 1.378 . S
C728 C723 1.350 . S
C729 H716 0.929 . S
C729 C721 1.433 . S
C729 N731 1.384 . S
N730 C726 1.427 . S
N730 C727 1.384 . S
N731 C723 1.427 . S
N731 C729 1.384 . S
H732 C738 0.930 . S
H733 C742 0.930 . S
H734 C747 0.929 . S
H735 C745 0.929 . S
H736 C740 0.929 . S
H737 C746 0.929 . S
C738 H732 0.930 . S
C738 C739 1.367 . S
C738 C746 1.378 . S
C739 C738 1.367 . S
C739 C747 1.433 . S
C740 H736 0.929 . S
C740 C742 1.378 . S
C740 C744 1.350 . S
C741 C744 1.463 . S
C741 C746 1.350 . S
C741 N749 1.427 . S
C742 H733 0.930 . S
C742 C740 1.378 . S
C742 C743 1.367 . S
C743 C742 1.367 . S
C743 C745 1.433 . S
C744 C740 1.350 . S
C744 C741 1.463 . S
C744 N748 1.427 . S
C745 H735 0.929 . S
C745 C743 1.433 . S
C745 N748 1.384 . S
C746 H737 0.929 . S
C746 C738 1.378 . S
C746 C741 1.350 . S
C747 H734 0.929 . S
C747 C739 1.433 . S
C747 N749 1.384 . S
N748 C744 1.427 . S
N748 C745 1.384 . S
N749 C741 1.427 . S
N749 C747 1.384 . S
H750 C756 0.930 . S
H751 C760 0.930 . S
H752 C765 0.929 . S
H753 C763 0.929 . S
H754 C758 0.929 . S
H755 C764 0.929 . S
C756 H750 0.930 . S
C756 C757 1.367 . S
C756 C764 1.378 . S
C757 C756 1.367 . S
C757 C765 1.433 . S
C758 H754 0.929 . S
C758 C760 1.378 . S
C758 C762 1.350 . S
C759 C762 1.463 . S
C759 C764 1.350 . S
C759 N767 1.427 . S
C760 H751 0.930 . S
C760 C758 1.378 . S
C760 C761 1.367 . S
C761 C760 1.367 . S
C761 C763 1.433 . S
C762 C758 1.350 . S
C762 C759 1.463 . S
C762 N766 1.427 . S
C763 H753 0.929 . S
C763 C761 1.433 . S
C763 N766 1.384 . S
C764 H755 0.929 . S
C764 C756 1.378 . S
C764 C759 1.350 . S
C765 H752 0.929 . S
C765 C757 1.433 . S
C765 N767 1.384 . S
N766 C762 1.427 . S
N766 C763 1.384 . S
N767 C759 1.427 . S
N767 C765 1.384 . S
H768 C774 0.930 . S
H769 C778 0.930 . S
H770 C783 0.929 . S
H771 C781 0.929 . S
H772 C776 0.929 . S
H773 C782 0.929 . S
C774 H768 0.930 . S
C774 C775 1.367 . S
C774 C782 1.378 . S
C775 C774 1.367 . S
C775 C783 1.433 . S
C776 H772 0.929 . S
C776 C778 1.378 . S
C776 C780 1.350 . S
C777 C780 1.463 . S
C777 C782 1.350 . S
C777 N785 1.427 . S
C778 H769 0.930 . S
C778 C776 1.378 . S
C778 C779 1.367 . S
C779 C778 1.367 . S
C779 C781 1.433 . S
C780 C776 1.350 . S
C780 C777 1.463 . S
C780 N784 1.427 . S
C781 H771 0.929 . S
C781 C779 1.433 . S
C781 N784 1.384 . S
C782 H773 0.929 . S
C782 C774 1.378 . S
C782 C777 1.350 . S
C783 H770 0.929 . S
C783 C775 1.433 . S
C783 N785 1.384 . S
N784 C780 1.427 . S
N784 C781 1.384 . S
N785 C777 1.427 . S
N785 C783 1.384 . S
H786 C792 0.930 . S
H787 C796 0.930 . S
H788 C801 0.929 . S
H789 C799 0.929 . S
H790 C794 0.929 . S
H791 C800 0.929 . S
C792 H786 0.930 . S
C792 C793 1.367 . S
C792 C800 1.378 . S
C793 C792 1.367 . S
C793 C801 1.433 . S
C794 H790 0.929 . S
C794 C796 1.378 . S
C794 C798 1.350 . S
C795 C798 1.463 . S
C795 C800 1.350 . S
C795 N803 1.427 . S
C796 H787 0.930 . S
C796 C794 1.378 . S
C796 C797 1.367 . S
C797 C796 1.367 . S
C797 C799 1.433 . S
C798 C794 1.350 . S
C798 C795 1.463 . S
C798 N802 1.427 . S
C799 H789 0.929 . S
C799 C797 1.433 . S
C799 N802 1.384 . S
C800 H791 0.929 . S
C800 C792 1.378 . S
C800 C795 1.350 . S
C801 H788 0.929 . S
C801 C793 1.433 . S
C801 N803 1.384 . S
N802 C798 1.427 . S
N802 C799 1.384 . S
N803 C795 1.427 . S
N803 C801 1.384 . S
H804 C810 0.930 . S
H805 C814 0.930 . S
H806 C819 0.929 . S
H807 C817 0.929 . S
H808 C812 0.929 . S
H809 C818 0.929 . S
C810 H804 0.930 . S
C810 C811 1.367 . S
C810 C818 1.378 . S
C811 C810 1.367 . S
C811 C819 1.433 . S
C812 H808 0.929 . S
C812 C814 1.378 . S
C812 C816 1.350 . S
C813 C816 1.463 . S
C813 C818 1.350 . S
C813 N821 1.427 . S
C814 H805 0.930 . S
C814 C812 1.378 . S
C814 C815 1.367 . S
C815 C814 1.367 . S
C815 C817 1.433 . S
C816 C812 1.350 . S
C816 C813 1.463 . S
C816 N820 1.427 . S
C817 H807 0.929 . S
C817 C815 1.433 . S
C817 N820 1.384 . S
C818 H809 0.929 . S
C818 C810 1.378 . S
C818 C813 1.350 . S
C819 H806 0.929 . S
C819 C811 1.433 . S
C819 N821 1.384 . S
N820 C816 1.427 . S
N820 C817 1.384 . S
N821 C813 1.427 . S
N821 C819 1.384 . S
H822 C828 0.930 . S
H823 C832 0.930 . S
H824 C837 0.929 . S
H825 C835 0.929 . S
H826 C830 0.929 . S
H827 C836 0.929 . S
C828 H822 0.930 . S
C828 C829 1.367 . S
C828 C836 1.378 . S
C829 C828 1.367 . S
C829 C837 1.433 . S
C830 H826 0.929 . S
C830 C832 1.378 . S
C830 C834 1.350 . S
C831 C834 1.463 . S
C831 C836 1.350 . S
C831 N839 1.427 . S
C832 H823 0.930 . S
C832 C830 1.378 . S
C832 C833 1.367 . S
C833 C832 1.367 . S
C833 C835 1.433 . S
C834 C830 1.350 . S
C834 C831 1.463 . S
C834 N838 1.427 . S
C835 H825 0.929 . S
C835 C833 1.433 . S
C835 N838 1.384 . S
C836 H827 0.929 . S
C836 C828 1.378 . S
C836 C831 1.350 . S
C837 H824 0.929 . S
C837 C829 1.433 . S
C837 N839 1.384 . S
N838 C834 1.427 . S
N838 C835 1.384 . S
N839 C831 1.427 . S
N839 C837 1.384 . S
H840 C846 0.930 . S
H841 C850 0.930 . S
H842 C855 0.929 . S
H843 C853 0.929 . S
H844 C848 0.929 . S
H845 C854 0.929 . S
C846 H840 0.930 . S
C846 C847 1.367 . S
C846 C854 1.378 . S
C847 C846 1.367 . S
C847 C855 1.433 . S
C848 H844 0.929 . S
C848 C850 1.378 . S
C848 C852 1.350 . S
C849 C852 1.463 . S
C849 C854 1.350 . S
C849 N857 1.427 . S
C850 H841 0.930 . S
C850 C848 1.378 . S
C850 C851 1.367 . S
C851 C850 1.367 . S
C851 C853 1.433 . S
C852 C848 1.350 . S
C852 C849 1.463 . S
C852 N856 1.427 . S
C853 H843 0.929 . S
C853 C851 1.433 . S
C853 N856 1.384 . S
C854 H845 0.929 . S
C854 C846 1.378 . S
C854 C849 1.350 . S
C855 H842 0.929 . S
C855 C847 1.433 . S
C855 N857 1.384 . S
N856 C852 1.427 . S
N856 C853 1.384 . S
N857 C849 1.427 . S
N857 C855 1.384 . S
H858 C864 0.930 . S
H859 C868 0.930 . S
H860 C873 0.929 . S
H861 C871 0.929 . S
H862 C866 0.929 . S
H863 C872 0.929 . S
C864 H858 0.930 . S
C864 C865 1.367 . S
C864 C872 1.378 . S
C865 C864 1.367 . S
C865 C873 1.433 . S
C866 H862 0.929 . S
C866 C868 1.378 . S
C866 C870 1.350 . S
C867 C870 1.463 . S
C867 C872 1.350 . S
C867 N875 1.427 . S
C868 H859 0.930 . S
C868 C866 1.378 . S
C868 C869 1.367 . S
C869 C868 1.367 . S
C869 C871 1.433 . S
C870 C866 1.350 . S
C870 C867 1.463 . S
C870 N874 1.427 . S
C871 H861 0.929 . S
C871 C869 1.433 . S
C871 N874 1.384 . S
C872 H863 0.929 . S
C872 C864 1.378 . S
C872 C867 1.350 . S
C873 H860 0.929 . S
C873 C865 1.433 . S
C873 N875 1.384 . S
N874 C870 1.427 . S
N874 C871 1.384 . S
N875 C867 1.427 . S
N875 C873 1.384 . S
H876 C882 0.930 . S
H877 C886 0.930 . S
H878 C891 0.929 . S
H879 C889 0.929 . S
H880 C884 0.929 . S
H881 C890 0.929 . S
C882 H876 0.930 . S
C882 C883 1.367 . S
C882 C890 1.378 . S
C883 C882 1.367 . S
C883 C891 1.433 . S
C884 H880 0.929 . S
C884 C886 1.378 . S
C884 C888 1.350 . S
C885 C888 1.463 . S
C885 C890 1.350 . S
C885 N893 1.427 . S
C886 H877 0.930 . S
C886 C884 1.378 . S
C886 C887 1.367 . S
C887 C886 1.367 . S
C887 C889 1.433 . S
C888 C884 1.350 . S
C888 C885 1.463 . S
C888 N892 1.427 . S
C889 H879 0.929 . S
C889 C887 1.433 . S
C889 N892 1.384 . S
C890 H881 0.929 . S
C890 C882 1.378 . S
C890 C885 1.350 . S
C891 H878 0.929 . S
C891 C883 1.433 . S
C891 N893 1.384 . S
N892 C888 1.427 . S
N892 C889 1.384 . S
N893 C885 1.427 . S
N893 C891 1.384 . S
H894 C900 0.930 . S
H895 C904 0.930 . S
H896 C909 0.929 . S
H897 C907 0.929 . S
H898 C902 0.929 . S
H899 C908 0.929 . S
C900 H894 0.930 . S
C900 C901 1.367 . S
C900 C908 1.378 . S
C901 C900 1.367 . S
C901 C909 1.433 . S
C902 H898 0.929 . S
C902 C904 1.378 . S
C902 C906 1.350 . S
C903 C906 1.463 . S
C903 C908 1.350 . S
C903 N911 1.427 . S
C904 H895 0.930 . S
C904 C902 1.378 . S
C904 C905 1.367 . S
C905 C904 1.367 . S
C905 C907 1.433 . S
C906 C902 1.350 . S
C906 C903 1.463 . S
C906 N910 1.427 . S
C907 H897 0.929 . S
C907 C905 1.433 . S
C907 N910 1.384 . S
C908 H899 0.929 . S
C908 C900 1.378 . S
C908 C903 1.350 . S
C909 H896 0.929 . S
C909 C901 1.433 . S
C909 N911 1.384 . S
N910 C906 1.427 . S
N910 C907 1.384 . S
N911 C903 1.427 . S
N911 C909 1.384 . S
H912 C918 0.930 . S
H913 C922 0.930 . S
H914 C927 0.929 . S
H915 C925 0.929 . S
H916 C920 0.929 . S
H917 C926 0.929 . S
C918 H912 0.930 . S
C918 C919 1.367 . S
C918 C926 1.378 . S
C919 C918 1.367 . S
C919 C927 1.433 . S
C920 H916 0.929 . S
C920 C922 1.378 . S
C920 C924 1.350 . S
C921 C924 1.463 . S
C921 C926 1.350 . S
C921 N929 1.427 . S
C922 H913 0.930 . S
C922 C920 1.378 . S
C922 C923 1.367 . S
C923 C922 1.367 . S
C923 C925 1.433 . S
C924 C920 1.350 . S
C924 C921 1.463 . S
C924 N928 1.427 . S
C925 H915 0.929 . S
C925 C923 1.433 . S
C925 N928 1.384 . S
C926 H917 0.929 . S
C926 C918 1.378 . S
C926 C921 1.350 . S
C927 H914 0.929 . S
C927 C919 1.433 . S
C927 N929 1.384 . S
N928 C924 1.427 . S
N928 C925 1.384 . S
N929 C921 1.427 . S
N929 C927 1.384 . S
H930 C936 0.930 . S
H931 C940 0.930 . S
H932 C945 0.929 . S
H933 C943 0.929 . S
H934 C938 0.929 . S
H935 C944 0.929 . S
C936 H930 0.930 . S
C936 C937 1.367 . S
C936 C944 1.378 . S
C937 C936 1.367 . S
C937 C945 1.433 . S
C938 H934 0.929 . S
C938 C940 1.378 . S
C938 C942 1.350 . S
C939 C942 1.463 . S
C939 C944 1.350 . S
C939 N947 1.427 . S
C940 H931 0.930 . S
C940 C938 1.378 . S
C940 C941 1.367 . S
C941 C940 1.367 . S
C941 C943 1.433 . S
C942 C938 1.350 . S
C942 C939 1.463 . S
C942 N946 1.427 . S
C943 H933 0.929 . S
C943 C941 1.433 . S
C943 N946 1.384 . S
C944 H935 0.929 . S
C944 C936 1.378 . S
C944 C939 1.350 . S
C945 H932 0.929 . S
C945 C937 1.433 . S
C945 N947 1.384 . S
N946 C942 1.427 . S
N946 C943 1.384 . S
N947 C939 1.427 . S
N947 C945 1.384 . S
H948 C954 0.930 . S
H949 C958 0.930 . S
H950 C963 0.929 . S
H951 C961 0.929 . S
H952 C956 0.929 . S
H953 C962 0.929 . S
C954 H948 0.930 . S
C954 C955 1.367 . S
C954 C962 1.378 . S
C955 C954 1.367 . S
C955 C963 1.433 . S
C956 H952 0.929 . S
C956 C958 1.378 . S
C956 C960 1.350 . S
C957 C960 1.463 . S
C957 C962 1.350 . S
C957 N965 1.427 . S
C958 H949 0.930 . S
C958 C956 1.378 . S
C958 C959 1.367 . S
C959 C958 1.367 . S
C959 C961 1.433 . S
C960 C956 1.350 . S
C960 C957 1.463 . S
C960 N964 1.427 . S
C961 H951 0.929 . S
C961 C959 1.433 . S
C961 N964 1.384 . S
C962 H953 0.929 . S
C962 C954 1.378 . S
C962 C957 1.350 . S
C963 H950 0.929 . S
C963 C955 1.433 . S
C963 N965 1.384 . S
N964 C960 1.427 . S
N964 C961 1.384 . S
N965 C957 1.427 . S
N965 C963 1.384 . S
H966 C972 0.930 . S
H967 C976 0.930 . S
H968 C981 0.929 . S
H969 C979 0.929 . S
H970 C974 0.929 . S
H971 C980 0.929 . S
C972 H966 0.930 . S
C972 C973 1.367 . S
C972 C980 1.378 . S
C973 C972 1.367 . S
C973 C981 1.433 . S
C974 H970 0.929 . S
C974 C976 1.378 . S
C974 C978 1.350 . S
C975 C978 1.463 . S
C975 C980 1.350 . S
C975 N983 1.427 . S
C976 H967 0.930 . S
C976 C974 1.378 . S
C976 C977 1.367 . S
C977 C976 1.367 . S
C977 C979 1.433 . S
C978 C974 1.350 . S
C978 C975 1.463 . S
C978 N982 1.427 . S
C979 H969 0.929 . S
C979 C977 1.433 . S
C979 N982 1.384 . S
C980 H971 0.929 . S
C980 C972 1.378 . S
C980 C975 1.350 . S
C981 H968 0.929 . S
C981 C973 1.433 . S
C981 N983 1.384 . S
N982 C978 1.427 . S
N982 C979 1.384 . S
N983 C975 1.427 . S
N983 C981 1.384 . S
H984 C990 0.930 . S
H985 C994 0.930 . S
H986 C999 0.929 . S
H987 C997 0.929 . S
H988 C992 0.929 . S
H989 C998 0.929 . S
C990 H984 0.930 . S
C990 C991 1.367 . S
C990 C998 1.378 . S
C991 C990 1.367 . S
C991 C999 1.433 . S
C992 H988 0.929 . S
C992 C994 1.378 . S
C992 C996 1.350 . S
C993 C996 1.463 . S
C993 C998 1.350 . S
C993 N1001 1.427 . S
C994 H985 0.930 . S
C994 C992 1.378 . S
C994 C995 1.367 . S
C995 C994 1.367 . S
C995 C997 1.433 . S
C996 C992 1.350 . S
C996 C993 1.463 . S
C996 N1000 1.427 . S
C997 H987 0.929 . S
C997 C995 1.433 . S
C997 N1000 1.384 . S
C998 H989 0.929 . S
C998 C990 1.378 . S
C998 C993 1.350 . S
C999 H986 0.929 . S
C999 C991 1.433 . S
C999 N1001 1.384 . S
N1000 C996 1.427 . S
N1000 C997 1.384 . S
N1001 C993 1.427 . S
N1001 C999 1.384 . S
H1002 C1008 0.930 . S
H1003 C1012 0.930 . S
H1004 C1017 0.929 . S
H1005 C1015 0.929 . S
H1006 C1010 0.929 . S
H1007 C1016 0.929 . S
C1008 H1002 0.930 . S
C1008 C1009 1.367 . S
C1008 C1016 1.378 . S
C1009 C1008 1.367 . S
C1009 C1017 1.433 . S
C1010 H1006 0.929 . S
C1010 C1012 1.378 . S
C1010 C1014 1.350 . S
C1011 C1014 1.463 . S
C1011 C1016 1.350 . S
C1011 N1019 1.427 . S
C1012 H1003 0.930 . S
C1012 C1010 1.378 . S
C1012 C1013 1.367 . S
C1013 C1012 1.367 . S
C1013 C1015 1.433 . S
C1014 C1010 1.350 . S
C1014 C1011 1.463 . S
C1014 N1018 1.427 . S
C1015 H1005 0.929 . S
C1015 C1013 1.433 . S
C1015 N1018 1.384 . S
C1016 H1007 0.929 . S
C1016 C1008 1.378 . S
C1016 C1011 1.350 . S
C1017 H1004 0.929 . S
C1017 C1009 1.433 . S
C1017 N1019 1.384 . S
N1018 C1014 1.427 . S
N1018 C1015 1.384 . S
N1019 C1011 1.427 . S
N1019 C1017 1.384 . S
H1020 C1026 0.930 . S
H1021 C1030 0.930 . S
H1022 C1035 0.929 . S
H1023 C1033 0.929 . S
H1024 C1028 0.929 . S
H1025 C1034 0.929 . S
C1026 H1020 0.930 . S
C1026 C1027 1.367 . S
C1026 C1034 1.378 . S
C1027 C1026 1.367 . S
C1027 C1035 1.433 . S
C1028 H1024 0.929 . S
C1028 C1030 1.378 . S
C1028 C1032 1.350 . S
C1029 C1032 1.463 . S
C1029 C1034 1.350 . S
C1029 N1037 1.427 . S
C1030 H1021 0.930 . S
C1030 C1028 1.378 . S
C1030 C1031 1.367 . S
C1031 C1030 1.367 . S
C1031 C1033 1.433 . S
C1032 C1028 1.350 . S
C1032 C1029 1.463 . S
C1032 N1036 1.427 . S
C1033 H1023 0.929 . S
C1033 C1031 1.433 . S
C1033 N1036 1.384 . S
C1034 H1025 0.929 . S
C1034 C1026 1.378 . S
C1034 C1029 1.350 . S
C1035 H1022 0.929 . S
C1035 C1027 1.433 . S
C1035 N1037 1.384 . S
N1036 C1032 1.427 . S
N1036 C1033 1.384 . S
N1037 C1029 1.427 . S
N1037 C1035 1.384 . S
H1038 C1044 0.930 . S
H1039 C1048 0.930 . S
H1040 C1053 0.929 . S
H1041 C1051 0.929 . S
H1042 C1046 0.929 . S
H1043 C1052 0.929 . S
C1044 H1038 0.930 . S
C1044 C1045 1.367 . S
C1044 C1052 1.378 . S
C1045 C1044 1.367 . S
C1045 C1053 1.433 . S
C1046 H1042 0.929 . S
C1046 C1048 1.378 . S
C1046 C1050 1.350 . S
C1047 C1050 1.463 . S
C1047 C1052 1.350 . S
C1047 N1055 1.427 . S
C1048 H1039 0.930 . S
C1048 C1046 1.378 . S
C1048 C1049 1.367 . S
C1049 C1048 1.367 . S
C1049 C1051 1.433 . S
C1050 C1046 1.350 . S
C1050 C1047 1.463 . S
C1050 N1054 1.427 . S
C1051 H1041 0.929 . S
C1051 C1049 1.433 . S
C1051 N1054 1.384 . S
C1052 H1043 0.929 . S
C1052 C1044 1.378 . S
C1052 C1047 1.350 . S
C1053 H1040 0.929 . S
C1053 C1045 1.433 . S
C1053 N1055 1.384 . S
N1054 C1050 1.427 . S
N1054 C1051 1.384 . S
N1055 C1047 1.427 . S
N1055 C1053 1.384 . S
H1056 C1062 0.930 . S
H1057 C1066 0.930 . S
H1058 C1071 0.929 . S
H1059 C1069 0.929 . S
H1060 C1064 0.929 . S
H1061 C1070 0.929 . S
C1062 H1056 0.930 . S
C1062 C1063 1.367 . S
C1062 C1070 1.378 . S
C1063 C1062 1.367 . S
C1063 C1071 1.433 . S
C1064 H1060 0.929 . S
C1064 C1066 1.378 . S
C1064 C1068 1.350 . S
C1065 C1068 1.463 . S
C1065 C1070 1.350 . S
C1065 N1073 1.427 . S
C1066 H1057 0.930 . S
C1066 C1064 1.378 . S
C1066 C1067 1.367 . S
C1067 C1066 1.367 . S
C1067 C1069 1.433 . S
C1068 C1064 1.350 . S
C1068 C1065 1.463 . S
C1068 N1072 1.427 . S
C1069 H1059 0.929 . S
C1069 C1067 1.433 . S
C1069 N1072 1.384 . S
C1070 H1061 0.929 . S
C1070 C1062 1.378 . S
C1070 C1065 1.350 . S
C1071 H1058 0.929 . S
C1071 C1063 1.433 . S
C1071 N1073 1.384 . S
N1072 C1068 1.427 . S
N1072 C1069 1.384 . S
N1073 C1065 1.427 . S
N1073 C1071 1.384 . S
H1074 C1080 0.922 1_545 S
H1075 C1084 0.930 . S
H1076 C1089 0.929 . S
H1077 C1087 0.929 . S
H1078 C1082 0.929 . S
H1079 C1088 0.929 . S
C1080 H1074 0.922 1_565 S
C1080 C1081 1.367 . S
C1080 C1088 1.378 . S
C1081 C1080 1.367 . S
C1081 C1089 1.433 . S
C1082 H1078 0.929 . S
C1082 C1084 1.378 . S
C1082 C1086 1.350 . S
C1083 C1086 1.463 . S
C1083 C1088 1.350 . S
C1083 N1091 1.427 . S
C1084 H1075 0.930 . S
C1084 C1082 1.378 . S
C1084 C1085 1.367 . S
C1085 C1084 1.367 . S
C1085 C1087 1.433 . S
C1086 C1082 1.350 . S
C1086 C1083 1.463 . S
C1086 N1090 1.427 . S
C1087 H1077 0.929 . S
C1087 C1085 1.433 . S
C1087 N1090 1.384 . S
C1088 H1079 0.929 . S
C1088 C1080 1.378 . S
C1088 C1083 1.350 . S
C1089 H1076 0.929 . S
C1089 C1081 1.433 . S
C1089 N1091 1.384 . S
N1090 C1086 1.427 . S
N1090 C1087 1.384 . S
N1091 C1083 1.427 . S
N1091 C1089 1.384 . S
H1092 C1098 0.930 . S
H1093 C1102 0.930 . S
H1094 C1107 0.929 . S
H1095 C1105 0.929 . S
H1096 C1100 0.929 . S
H1097 C1106 0.929 . S
C1098 H1092 0.930 . S
C1098 C1099 1.367 . S
C1098 C1106 1.378 . S
C1099 C1098 1.367 . S
C1099 C1107 1.433 . S
C1100 H1096 0.929 . S
C1100 C1102 1.378 . S
C1100 C1104 1.350 . S
C1101 C1104 1.463 . S
C1101 C1106 1.350 . S
C1101 N1109 1.427 . S
C1102 H1093 0.930 . S
C1102 C1100 1.378 . S
C1102 C1103 1.367 . S
C1103 C1102 1.367 . S
C1103 C1105 1.433 . S
C1104 C1100 1.350 . S
C1104 C1101 1.463 . S
C1104 N1108 1.427 . S
C1105 H1095 0.929 . S
C1105 C1103 1.433 . S
C1105 N1108 1.384 . S
C1106 H1097 0.929 . S
C1106 C1098 1.378 . S
C1106 C1101 1.350 . S
C1107 H1094 0.929 . S
C1107 C1099 1.433 . S
C1107 N1109 1.384 . S
N1108 C1104 1.427 . S
N1108 C1105 1.384 . S
N1109 C1101 1.427 . S
N1109 C1107 1.384 . S
H1110 C1116 0.930 . S
H1111 C1120 0.930 . S
H1112 C1125 0.942 . S
H1113 C1123 0.929 . S
H1114 C1118 0.929 . S
H1115 C1124 0.929 . S
C1116 H1110 0.930 . S
C1116 C1117 1.367 . S
C1116 C1124 1.378 . S
C1117 C1116 1.367 . S
C1117 C1125 1.389 1_556 S
C1118 H1114 0.929 . S
C1118 C1120 1.378 . S
C1118 C1122 1.350 . S
C1119 C1122 1.463 . S
C1119 C1124 1.350 1_554 S
C1119 N1127 1.427 . S
C1120 H1111 0.930 . S
C1120 C1118 1.378 . S
C1120 C1121 1.367 . S
C1121 C1120 1.367 . S
C1121 C1123 1.433 . S
C1122 C1118 1.350 . S
C1122 C1119 1.463 . S
C1122 N1126 1.427 . S
C1123 H1113 0.929 . S
C1123 C1121 1.433 . S
C1123 N1126 1.384 . S
C1124 H1115 0.929 . S
C1124 C1116 1.378 . S
C1124 C1119 1.350 1_556 S
C1125 H1112 0.942 . S
C1125 C1117 1.389 1_554 S
C1125 N1127 1.416 . S
N1126 C1122 1.427 . S
N1126 C1123 1.384 . S
N1127 C1119 1.427 . S
N1127 C1125 1.416 . S
H1128 C1134 0.930 . S
H1129 C1138 0.930 . S
H1130 C1143 0.929 . S
H1131 C1141 0.929 . S
H1132 C1136 0.929 . S
H1133 C1142 0.929 . S
C1134 H1128 0.930 . S
C1134 C1135 1.367 . S
C1134 C1142 1.378 . S
C1135 C1134 1.367 . S
C1135 C1143 1.433 . S
C1136 H1132 0.929 . S
C1136 C1138 1.378 . S
C1136 C1140 1.350 . S
C1137 C1140 1.463 . S
C1137 C1142 1.350 . S
C1137 N1145 1.427 . S
C1138 H1129 0.930 . S
C1138 C1136 1.378 . S
C1138 C1139 1.367 . S
C1139 C1138 1.367 . S
C1139 C1141 1.433 . S
C1140 C1136 1.350 . S
C1140 C1137 1.463 . S
C1140 N1144 1.427 . S
C1141 H1131 0.929 . S
C1141 C1139 1.433 . S
C1141 N1144 1.384 . S
C1142 H1133 0.929 . S
C1142 C1134 1.378 . S
C1142 C1137 1.350 . S
C1143 H1130 0.929 . S
C1143 C1135 1.433 . S
C1143 N1145 1.384 . S
N1144 C1140 1.427 . S
N1144 C1141 1.384 . S
N1145 C1137 1.427 . S
N1145 C1143 1.384 . S
H1146 C1152 0.930 1_545 S
H1147 C1156 0.930 . S
H1148 C1161 0.929 . S
H1149 C1159 0.929 . S
H1150 C1154 0.929 . S
H1151 C1160 0.929 . S
C1152 H1146 0.930 1_565 S
C1152 C1153 1.367 . S
C1152 C1160 1.378 . S
C1153 C1152 1.367 . S
C1153 C1161 1.433 . S
C1154 H1150 0.929 . S
C1154 C1156 1.378 . S
C1154 C1158 1.350 . S
C1155 C1158 1.463 . S
C1155 C1160 1.350 . S
C1155 N1163 1.427 . S
C1156 H1147 0.930 . S
C1156 C1154 1.378 . S
C1156 C1157 1.367 . S
C1157 C1156 1.367 . S
C1157 C1159 1.433 . S
C1158 C1154 1.350 . S
C1158 C1155 1.463 . S
C1158 N1162 1.427 . S
C1159 H1149 0.929 . S
C1159 C1157 1.433 . S
C1159 N1162 1.384 . S
C1160 H1151 0.929 . S
C1160 C1152 1.378 . S
C1160 C1155 1.350 . S
C1161 H1148 0.929 . S
C1161 C1153 1.433 . S
C1161 N1163 1.384 . S
N1162 C1158 1.427 . S
N1162 C1159 1.384 . S
N1163 C1155 1.427 . S
N1163 C1161 1.384 . S
H1164 C1170 0.930 . S
H1165 C1174 0.930 . S
H1166 C1179 0.929 . S
H1167 C1177 0.929 . S
H1168 C1172 0.929 . S
H1169 C1178 0.929 . S
C1170 H1164 0.930 . S
C1170 C1171 1.367 . S
C1170 C1178 1.378 . S
C1171 C1170 1.367 . S
C1171 C1179 1.433 . S
C1172 H1168 0.929 . S
C1172 C1174 1.378 . S
C1172 C1176 1.350 . S
C1173 C1176 1.463 . S
C1173 C1178 1.350 . S
C1173 N1181 1.427 . S
C1174 H1165 0.930 . S
C1174 C1172 1.378 . S
C1174 C1175 1.367 . S
C1175 C1174 1.367 . S
C1175 C1177 1.433 . S
C1176 C1172 1.350 . S
C1176 C1173 1.463 . S
C1176 N1180 1.427 . S
C1177 H1167 0.929 . S
C1177 C1175 1.433 . S
C1177 N1180 1.384 . S
C1178 H1169 0.929 . S
C1178 C1170 1.378 . S
C1178 C1173 1.350 . S
C1179 H1166 0.929 . S
C1179 C1171 1.433 . S
C1179 N1181 1.384 . S
N1180 C1176 1.427 . S
N1180 C1177 1.384 . S
N1181 C1173 1.427 . S
N1181 C1179 1.384 . S
H1182 C1188 0.930 . S
H1183 C1192 0.930 . S
H1184 C1197 0.929 1_565 S
H1185 C1195 0.929 . S
H1186 C1190 0.929 . S
H1187 C1196 0.929 . S
C1188 H1182 0.930 . S
C1188 C1189 1.367 . S
C1188 C1196 1.378 1_554 S
C1189 C1188 1.367 . S
C1189 C1197 1.433 . S
C1190 H1186 0.929 . S
C1190 C1192 1.378 . S
C1190 C1194 1.350 . S
C1191 C1194 1.463 . S
C1191 C1196 1.350 . S
C1191 N1199 1.427 1_556 S
C1192 H1183 0.930 . S
C1192 C1190 1.378 . S
C1192 C1193 1.367 . S
C1193 C1192 1.367 . S
C1193 C1195 1.433 . S
C1194 C1190 1.350 . S
C1194 C1191 1.463 . S
C1194 N1198 1.427 . S
C1195 H1185 0.929 . S
C1195 C1193 1.433 . S
C1195 N1198 1.384 . S
C1196 H1187 0.929 . S
C1196 C1188 1.378 1_556 S
C1196 C1191 1.350 . S
C1197 H1184 0.929 1_545 S
C1197 C1189 1.433 . S
C1197 N1199 1.384 . S
N1198 C1194 1.427 . S
N1198 C1195 1.384 . S
N1199 C1191 1.427 1_554 S
N1199 C1197 1.384 . S
H1200 C1206 0.930 . S
H1201 C1210 0.930 . S
H1202 C1215 0.929 . S
H1203 C1213 0.929 . S
H1204 C1208 0.929 . S
H1205 C1214 0.929 . S
C1206 H1200 0.930 . S
C1206 C1207 1.367 . S
C1206 C1214 1.378 . S
C1207 C1206 1.367 . S
C1207 C1215 1.433 . S
C1208 H1204 0.929 . S
C1208 C1210 1.378 . S
C1208 C1212 1.350 . S
C1209 C1212 1.463 . S
C1209 C1214 1.350 . S
C1209 N1217 1.427 . S
C1210 H1201 0.930 . S
C1210 C1208 1.378 . S
C1210 C1211 1.367 . S
C1211 C1210 1.367 . S
C1211 C1213 1.433 . S
C1212 C1208 1.350 . S
C1212 C1209 1.463 . S
C1212 N1216 1.427 . S
C1213 H1203 0.929 . S
C1213 C1211 1.433 . S
C1213 N1216 1.384 . S
C1214 H1205 0.929 . S
C1214 C1206 1.378 . S
C1214 C1209 1.350 . S
C1215 H1202 0.929 . S
C1215 C1207 1.433 . S
C1215 N1217 1.384 . S
N1216 C1212 1.427 . S
N1216 C1213 1.384 . S
N1217 C1209 1.427 . S
N1217 C1215 1.384 . S
H1218 C1224 0.967 . S
H1219 C1228 0.930 . S
H1220 C1233 0.929 . S
H1221 C1231 0.929 . S
H1222 C1226 0.929 . S
H1223 C1232 0.935 . S
C1224 H1218 0.967 . S
C1224 C1225 1.353 1_655 S
C1224 C1232 1.339 1_665 S
C1225 C1224 1.353 1_455 S
C1225 C1233 1.433 . S
C1226 H1222 0.929 . S
C1226 C1228 1.378 . S
C1226 C1230 1.350 . S
C1227 C1230 1.463 . S
C1227 C1232 1.360 . S
C1227 N1235 1.427 . S
C1228 H1219 0.930 . S
C1228 C1226 1.378 . S
C1228 C1229 1.367 . S
C1229 C1228 1.367 . S
C1229 C1231 1.433 . S
C1230 C1226 1.350 . S
C1230 C1227 1.463 . S
C1230 N1234 1.427 . S
C1231 H1221 0.929 . S
C1231 C1229 1.433 . S
C1231 N1234 1.384 . S
C1232 H1223 0.935 . S
C1232 C1224 1.339 1_445 S
C1232 C1227 1.360 . S
C1233 H1220 0.929 . S
C1233 C1225 1.433 . S
C1233 N1235 1.384 1_565 S
N1234 C1230 1.427 . S
N1234 C1231 1.384 . S
N1235 C1227 1.427 . S
N1235 C1233 1.384 1_545 S
H1236 C1242 0.930 . S
H1237 C1246 0.930 . S
H1238 C1251 0.929 . S
H1239 C1249 0.929 . S
H1240 C1244 0.929 . S
H1241 C1250 0.929 . S
C1242 H1236 0.930 . S
C1242 C1243 1.367 . S
C1242 C1250 1.378 . S
C1243 C1242 1.367 . S
C1243 C1251 1.433 . S
C1244 H1240 0.929 . S
C1244 C1246 1.378 . S
C1244 C1248 1.350 . S
C1245 C1248 1.463 . S
C1245 C1250 1.350 . S
C1245 N1253 1.427 . S
C1246 H1237 0.930 . S
C1246 C1244 1.378 . S
C1246 C1247 1.367 . S
C1247 C1246 1.367 . S
C1247 C1249 1.433 . S
C1248 C1244 1.350 . S
C1248 C1245 1.463 . S
C1248 N1252 1.427 . S
C1249 H1239 0.929 . S
C1249 C1247 1.433 . S
C1249 N1252 1.384 . S
C1250 H1241 0.929 . S
C1250 C1242 1.378 . S
C1250 C1245 1.350 . S
C1251 H1238 0.929 . S
C1251 C1243 1.433 . S
C1251 N1253 1.384 . S
N1252 C1248 1.427 . S
N1252 C1249 1.384 . S
N1253 C1245 1.427 . S
N1253 C1251 1.384 . S
H1254 C1260 0.930 . S
H1255 C1264 0.930 . S
H1256 C1269 0.929 . S
H1257 C1267 0.929 . S
H1258 C1262 0.929 . S
H1259 C1268 0.929 . S
C1260 H1254 0.930 . S
C1260 C1261 1.367 . S
C1260 C1268 1.378 1_545 S
C1261 C1260 1.367 . S
C1261 C1269 1.433 . S
C1262 H1258 0.929 . S
C1262 C1264 1.378 . S
C1262 C1266 1.350 . S
C1263 C1266 1.463 . S
C1263 C1268 1.350 . S
C1263 N1271 1.427 1_565 S
C1264 H1255 0.930 . S
C1264 C1262 1.378 . S
C1264 C1265 1.367 . S
C1265 C1264 1.367 . S
C1265 C1267 1.433 . S
C1266 C1262 1.350 . S
C1266 C1263 1.463 . S
C1266 N1270 1.427 . S
C1267 H1257 0.929 . S
C1267 C1265 1.433 . S
C1267 N1270 1.384 . S
C1268 H1259 0.929 . S
C1268 C1260 1.378 1_565 S
C1268 C1263 1.350 . S
C1269 H1256 0.929 . S
C1269 C1261 1.433 . S
C1269 N1271 1.384 . S
N1270 C1266 1.427 . S
N1270 C1267 1.384 . S
N1271 C1263 1.427 1_545 S
N1271 C1269 1.384 . S
H1272 C1278 0.930 . S
H1273 C1282 0.930 . S
H1274 C1287 0.929 . S
H1275 C1285 0.929 . S
H1276 C1280 0.929 . S
H1277 C1286 0.929 . S
C1278 H1272 0.930 . S
C1278 C1279 1.367 . S
C1278 C1286 1.378 . S
C1279 C1278 1.367 . S
C1279 C1287 1.433 . S
C1280 H1276 0.929 . S
C1280 C1282 1.378 . S
C1280 C1284 1.350 . S
C1281 C1284 1.463 . S
C1281 C1286 1.350 . S
C1281 N1289 1.427 . S
C1282 H1273 0.930 . S
C1282 C1280 1.378 . S
C1282 C1283 1.367 . S
C1283 C1282 1.367 . S
C1283 C1285 1.433 . S
C1284 C1280 1.350 . S
C1284 C1281 1.463 . S
C1284 N1288 1.427 . S
C1285 H1275 0.929 . S
C1285 C1283 1.433 . S
C1285 N1288 1.384 . S
C1286 H1277 0.929 . S
C1286 C1278 1.378 . S
C1286 C1281 1.350 . S
C1287 H1274 0.929 . S
C1287 C1279 1.433 . S
C1287 N1289 1.384 . S
N1288 C1284 1.427 . S
N1288 C1285 1.384 . S
N1289 C1281 1.427 . S
N1289 C1287 1.384 . S
H1290 C1296 0.930 . S
H1291 C1300 0.930 . S
H1292 C1305 0.929 . S
H1293 C1303 0.929 . S
H1294 C1298 0.929 . S
H1295 C1304 0.929 . S
C1296 H1290 0.930 . S
C1296 C1297 1.367 . S
C1296 C1304 1.378 1_565 S
C1297 C1296 1.367 . S
C1297 C1305 1.433 . S
C1298 H1294 0.929 . S
C1298 C1300 1.378 . S
C1298 C1302 1.350 . S
C1299 C1302 1.463 . S
C1299 C1304 1.350 . S
C1299 N1307 1.427 . S
C1300 H1291 0.930 . S
C1300 C1298 1.378 . S
C1300 C1301 1.367 . S
C1301 C1300 1.367 . S
C1301 C1303 1.433 . S
C1302 C1298 1.350 . S
C1302 C1299 1.463 . S
C1302 N1306 1.427 . S
C1303 H1293 0.929 . S
C1303 C1301 1.433 . S
C1303 N1306 1.384 . S
C1304 H1295 0.929 . S
C1304 C1296 1.378 1_545 S
C1304 C1299 1.350 . S
C1305 H1292 0.929 . S
C1305 C1297 1.433 . S
C1305 N1307 1.384 1_565 S
N1306 C1302 1.427 . S
N1306 C1303 1.384 . S
N1307 C1299 1.427 . S
N1307 C1305 1.384 1_545 S
H1308 C1314 0.930 . S
H1309 C1318 0.930 . S
H1310 C1323 0.929 . S
H1311 C1321 0.929 . S
H1312 C1316 0.929 . S
H1313 C1322 0.929 . S
C1314 H1308 0.930 . S
C1314 C1315 1.367 . S
C1314 C1322 1.378 . S
C1315 C1314 1.367 . S
C1315 C1323 1.433 . S
C1316 H1312 0.929 . S
C1316 C1318 1.378 . S
C1316 C1320 1.350 . S
C1317 C1320 1.463 . S
C1317 C1322 1.350 . S
C1317 N1325 1.427 . S
C1318 H1309 0.930 . S
C1318 C1316 1.378 . S
C1318 C1319 1.367 . S
C1319 C1318 1.367 . S
C1319 C1321 1.433 . S
C1320 C1316 1.350 . S
C1320 C1317 1.463 . S
C1320 N1324 1.427 . S
C1321 H1311 0.929 . S
C1321 C1319 1.433 . S
C1321 N1324 1.384 . S
C1322 H1313 0.929 . S
C1322 C1314 1.378 . S
C1322 C1317 1.350 . S
C1323 H1310 0.929 . S
C1323 C1315 1.433 . S
C1323 N1325 1.384 . S
N1324 C1320 1.427 . S
N1324 C1321 1.384 . S
N1325 C1317 1.427 . S
N1325 C1323 1.384 . S
H1326 C1332 0.930 . S
H1327 C1336 0.925 1_565 S
H1328 C1341 0.929 . S
H1329 C1339 0.929 . S
H1330 C1334 0.929 . S
H1331 C1340 0.929 . S
C1332 H1326 0.930 . S
C1332 C1333 1.367 . S
C1332 C1340 1.378 . S
C1333 C1332 1.367 . S
C1333 C1341 1.433 . S
C1334 H1330 0.929 . S
C1334 C1336 1.378 1_565 S
C1334 C1338 1.350 . S
C1335 C1338 1.463 . S
C1335 C1340 1.350 . S
C1335 N1343 1.427 . S
C1336 H1327 0.925 1_545 S
C1336 C1334 1.378 1_545 S
C1336 C1337 1.367 . S
C1337 C1336 1.367 . S
C1337 C1339 1.433 . S
C1338 C1334 1.350 . S
C1338 C1335 1.463 . S
C1338 N1342 1.427 1_565 S
C1339 H1329 0.929 . S
C1339 C1337 1.433 . S
C1339 N1342 1.384 . S
C1340 H1331 0.929 . S
C1340 C1332 1.378 . S
C1340 C1335 1.350 . S
C1341 H1328 0.929 . S
C1341 C1333 1.433 . S
C1341 N1343 1.384 . S
N1342 C1338 1.427 1_545 S
N1342 C1339 1.384 . S
N1343 C1335 1.427 . S
N1343 C1341 1.384 . S
H1344 C1350 0.930 . S
H1345 C1354 0.930 . S
H1346 C1359 0.929 . S
H1347 C1357 0.929 . S
H1348 C1352 0.929 . S
H1349 C1358 0.929 . S
C1350 H1344 0.930 . S
C1350 C1351 1.367 . S
C1350 C1358 1.378 . S
C1351 C1350 1.367 . S
C1351 C1359 1.433 . S
C1352 H1348 0.929 . S
C1352 C1354 1.378 . S
C1352 C1356 1.350 . S
C1353 C1356 1.463 . S
C1353 C1358 1.350 . S
C1353 N1361 1.427 . S
C1354 H1345 0.930 . S
C1354 C1352 1.378 . S
C1354 C1355 1.367 . S
C1355 C1354 1.367 . S
C1355 C1357 1.433 . S
C1356 C1352 1.350 . S
C1356 C1353 1.463 . S
C1356 N1360 1.427 . S
C1357 H1347 0.929 . S
C1357 C1355 1.433 . S
C1357 N1360 1.384 . S
C1358 H1349 0.929 . S
C1358 C1350 1.378 . S
C1358 C1353 1.350 . S
C1359 H1346 0.929 . S
C1359 C1351 1.433 . S
C1359 N1361 1.384 . S
N1360 C1356 1.427 . S
N1360 C1357 1.384 . S
N1361 C1353 1.427 . S
N1361 C1359 1.384 . S
H1362 C1368 0.930 . S
H1363 C1372 0.930 . S
H1364 C1377 0.929 . S
H1365 C1375 0.929 . S
H1366 C1370 0.929 . S
H1367 C1376 0.929 . S
C1368 H1362 0.930 . S
C1368 C1369 1.367 . S
C1368 C1376 1.378 . S
C1369 C1368 1.367 . S
C1369 C1377 1.433 . S
C1370 H1366 0.929 . S
C1370 C1372 1.378 . S
C1370 C1374 1.350 . S
C1371 C1374 1.463 . S
C1371 C1376 1.350 . S
C1371 N1379 1.427 . S
C1372 H1363 0.930 . S
C1372 C1370 1.378 . S
C1372 C1373 1.367 . S
C1373 C1372 1.367 . S
C1373 C1375 1.433 . S
C1374 C1370 1.350 . S
C1374 C1371 1.463 . S
C1374 N1378 1.427 . S
C1375 H1365 0.929 . S
C1375 C1373 1.433 . S
C1375 N1378 1.384 . S
C1376 H1367 0.929 . S
C1376 C1368 1.378 . S
C1376 C1371 1.350 . S
C1377 H1364 0.929 . S
C1377 C1369 1.433 . S
C1377 N1379 1.384 . S
N1378 C1374 1.427 . S
N1378 C1375 1.384 . S
N1379 C1371 1.427 . S
N1379 C1377 1.384 . S
H1380 C1386 0.930 1_556 S
H1381 C1390 0.930 . S
H1382 C1395 0.929 . S
H1383 C1393 0.929 . S
H1384 C1388 0.929 . S
H1385 C1394 0.929 . S
C1386 H1380 0.930 1_554 S
C1386 C1387 1.367 1_455 S
C1386 C1394 1.378 . S
C1387 C1386 1.367 1_655 S
C1387 C1395 1.433 . S
C1388 H1384 0.929 . S
C1388 C1390 1.378 . S
C1388 C1392 1.350 . S
C1389 C1392 1.463 . S
C1389 C1394 1.350 . S
C1389 N1397 1.427 1_455 S
C1390 H1381 0.930 . S
C1390 C1388 1.378 . S
C1390 C1391 1.367 . S
C1391 C1390 1.367 . S
C1391 C1393 1.433 . S
C1392 C1388 1.350 . S
C1392 C1389 1.463 . S
C1392 N1396 1.427 . S
C1393 H1383 0.929 . S
C1393 C1391 1.433 . S
C1393 N1396 1.384 . S
C1394 H1385 0.929 . S
C1394 C1386 1.378 . S
C1394 C1389 1.350 . S
C1395 H1382 0.929 . S
C1395 C1387 1.433 . S
C1395 N1397 1.384 . S
N1396 C1392 1.427 . S
N1396 C1393 1.384 . S
N1397 C1389 1.427 1_655 S
N1397 C1395 1.384 . S
H1398 C1404 0.930 . S
H1399 C1408 0.930 . S
H1400 C1413 0.929 . S
H1401 C1411 0.929 . S
H1402 C1406 0.929 . S
H1403 C1412 0.929 . S
C1404 H1398 0.930 . S
C1404 C1405 1.367 . S
C1404 C1412 1.378 . S
C1405 C1404 1.367 . S
C1405 C1413 1.433 . S
C1406 H1402 0.929 . S
C1406 C1408 1.378 . S
C1406 C1410 1.350 . S
C1407 C1410 1.463 . S
C1407 C1412 1.350 . S
C1407 N1415 1.427 . S
C1408 H1399 0.930 . S
C1408 C1406 1.378 . S
C1408 C1409 1.367 . S
C1409 C1408 1.367 . S
C1409 C1411 1.433 . S
C1410 C1406 1.350 . S
C1410 C1407 1.463 . S
C1410 N1414 1.427 . S
C1411 H1401 0.929 . S
C1411 C1409 1.433 . S
C1411 N1414 1.384 . S
C1412 H1403 0.929 . S
C1412 C1404 1.378 . S
C1412 C1407 1.350 . S
C1413 H1400 0.929 . S
C1413 C1405 1.433 . S
C1413 N1415 1.384 . S
N1414 C1410 1.427 . S
N1414 C1411 1.384 . S
N1415 C1407 1.427 . S
N1415 C1413 1.384 . S
H1416 C1422 0.930 . S
H1417 C1426 0.930 . S
H1418 C1431 0.929 . S
H1419 C1429 0.929 . S
H1420 C1424 0.929 . S
H1421 C1430 0.920 1_556 S
C1422 H1416 0.930 . S
C1422 C1423 1.367 1_556 S
C1422 C1430 1.378 1_456 S
C1423 C1422 1.367 1_554 S
C1423 C1431 1.433 . S
C1424 H1420 0.929 . S
C1424 C1426 1.378 . S
C1424 C1428 1.350 . S
C1425 C1428 1.463 . S
C1425 C1430 1.350 . S
C1425 N1433 1.427 1_655 S
C1426 H1417 0.930 . S
C1426 C1424 1.378 . S
C1426 C1427 1.367 . S
C1427 C1426 1.367 . S
C1427 C1429 1.433 . S
C1428 C1424 1.350 . S
C1428 C1425 1.463 . S
C1428 N1432 1.427 . S
C1429 H1419 0.929 . S
C1429 C1427 1.433 . S
C1429 N1432 1.384 . S
C1430 H1421 0.920 1_554 S
C1430 C1422 1.378 1_654 S
C1430 C1425 1.350 . S
C1431 H1418 0.929 . S
C1431 C1423 1.433 . S
C1431 N1433 1.384 . S
N1432 C1428 1.427 . S
N1432 C1429 1.384 . S
N1433 C1425 1.427 1_455 S
N1433 C1431 1.384 . S
H1434 C1440 0.930 . S
H1435 C1444 0.930 . S
H1436 C1449 0.929 . S
H1437 C1447 0.929 . S
H1438 C1442 0.929 . S
H1439 C1448 0.929 . S
C1440 H1434 0.930 . S
C1440 C1441 1.367 . S
C1440 C1448 1.378 . S
C1441 C1440 1.367 . S
C1441 C1449 1.433 . S
C1442 H1438 0.929 . S
C1442 C1444 1.378 . S
C1442 C1446 1.350 . S
C1443 C1446 1.463 . S
C1443 C1448 1.350 . S
C1443 N1451 1.427 . S
C1444 H1435 0.930 . S
C1444 C1442 1.378 . S
C1444 C1445 1.367 . S
C1445 C1444 1.367 . S
C1445 C1447 1.433 . S
C1446 C1442 1.350 . S
C1446 C1443 1.463 . S
C1446 N1450 1.427 . S
C1447 H1437 0.929 . S
C1447 C1445 1.433 . S
C1447 N1450 1.384 . S
C1448 H1439 0.929 . S
C1448 C1440 1.378 . S
C1448 C1443 1.350 . S
C1449 H1436 0.929 . S
C1449 C1441 1.433 . S
C1449 N1451 1.384 . S
N1450 C1446 1.427 . S
N1450 C1447 1.384 . S
N1451 C1443 1.427 . S
N1451 C1449 1.384 . S
H1452 C1458 0.930 . S
H1453 C1462 0.930 . S
H1454 C1467 0.929 . S
H1455 C1465 0.929 . S
H1456 C1460 0.929 . S
H1457 C1466 0.929 . S
C1458 H1452 0.930 . S
C1458 C1459 1.367 . S
C1458 C1466 1.378 1_655 S
C1459 C1458 1.367 . S
C1459 C1467 1.433 . S
C1460 H1456 0.929 . S
C1460 C1462 1.378 . S
C1460 C1464 1.350 . S
C1461 C1464 1.463 . S
C1461 C1466 1.350 . S
C1461 N1469 1.427 1_455 S
C1462 H1453 0.930 . S
C1462 C1460 1.378 . S
C1462 C1463 1.367 . S
C1463 C1462 1.367 . S
C1463 C1465 1.433 . S
C1464 C1460 1.350 . S
C1464 C1461 1.463 . S
C1464 N1468 1.427 . S
C1465 H1455 0.929 . S
C1465 C1463 1.433 . S
C1465 N1468 1.384 . S
C1466 H1457 0.929 . S
C1466 C1458 1.378 1_455 S
C1466 C1461 1.350 . S
C1467 H1454 0.929 . S
C1467 C1459 1.433 . S
C1467 N1469 1.384 . S
N1468 C1464 1.427 . S
N1468 C1465 1.384 . S
N1469 C1461 1.427 1_655 S
N1469 C1467 1.384 . S
H1470 C1476 0.930 . S
H1471 C1480 0.930 . S
H1472 C1485 0.929 . S
H1473 C1483 0.926 1_554 S
H1474 C1478 0.929 . S
H1475 C1484 0.929 . S
C1476 H1470 0.930 . S
C1476 C1477 1.367 . S
C1476 C1484 1.378 . S
C1477 C1476 1.367 . S
C1477 C1485 1.433 . S
C1478 H1474 0.929 . S
C1478 C1480 1.378 . S
C1478 C1482 1.350 . S
C1479 C1482 1.463 . S
C1479 C1484 1.350 . S
C1479 N1487 1.427 . S
C1480 H1471 0.930 . S
C1480 C1478 1.378 . S
C1480 C1481 1.367 . S
C1481 C1480 1.367 . S
C1481 C1483 1.433 . S
C1482 C1478 1.350 . S
C1482 C1479 1.463 . S
C1482 N1486 1.427 . S
C1483 H1473 0.926 1_556 S
C1483 C1481 1.433 . S
C1483 N1486 1.384 . S
C1484 H1475 0.929 . S
C1484 C1476 1.378 . S
C1484 C1479 1.350 . S
C1485 H1472 0.929 . S
C1485 C1477 1.433 . S
C1485 N1487 1.384 . S
N1486 C1482 1.427 . S
N1486 C1483 1.384 . S
N1487 C1479 1.427 . S
N1487 C1485 1.384 . S
H1488 C1494 0.930 . S
H1489 C1498 0.930 . S
H1490 C1503 0.929 . S
H1491 C1501 0.929 . S
H1492 C1496 0.929 . S
H1493 C1502 0.929 . S
C1494 H1488 0.930 . S
C1494 C1495 1.367 . S
C1494 C1502 1.378 . S
C1495 C1494 1.367 . S
C1495 C1503 1.433 . S
C1496 H1492 0.929 . S
C1496 C1498 1.378 . S
C1496 C1500 1.350 . S
C1497 C1500 1.463 . S
C1497 C1502 1.350 . S
C1497 N1505 1.427 . S
C1498 H1489 0.930 . S
C1498 C1496 1.378 . S
C1498 C1499 1.367 . S
C1499 C1498 1.367 . S
C1499 C1501 1.433 . S
C1500 C1496 1.350 . S
C1500 C1497 1.463 . S
C1500 N1504 1.427 . S
C1501 H1491 0.929 . S
C1501 C1499 1.433 . S
C1501 N1504 1.384 . S
C1502 H1493 0.929 . S
C1502 C1494 1.378 . S
C1502 C1497 1.350 . S
C1503 H1490 0.929 . S
C1503 C1495 1.433 . S
C1503 N1505 1.384 . S
N1504 C1500 1.427 . S
N1504 C1501 1.384 . S
N1505 C1497 1.427 . S
N1505 C1503 1.384 . S
H1506 C1512 0.930 . S
H1507 C1516 0.930 . S
H1508 C1521 0.929 . S
H1509 C1519 0.929 . S
H1510 C1514 0.929 . S
H1511 C1520 0.929 . S
C1512 H1506 0.930 . S
C1512 C1513 1.367 . S
C1512 C1520 1.378 . S
C1513 C1512 1.367 . S
C1513 C1521 1.433 . S
C1514 H1510 0.929 . S
C1514 C1516 1.378 1_554 S
C1514 C1518 1.350 . S
C1515 C1518 1.463 . S
C1515 C1520 1.350 . S
C1515 N1523 1.427 . S
C1516 H1507 0.930 . S
C1516 C1514 1.378 1_556 S
C1516 C1517 1.367 . S
C1517 C1516 1.367 . S
C1517 C1519 1.433 . S
C1518 C1514 1.350 . S
C1518 C1515 1.463 . S
C1518 N1522 1.427 . S
C1519 H1509 0.929 . S
C1519 C1517 1.433 . S
C1519 N1522 1.384 1_556 S
C1520 H1511 0.929 . S
C1520 C1512 1.378 . S
C1520 C1515 1.350 . S
C1521 H1508 0.929 . S
C1521 C1513 1.433 . S
C1521 N1523 1.384 . S
N1522 C1518 1.427 . S
N1522 C1519 1.384 1_554 S
N1523 C1515 1.427 . S
N1523 C1521 1.384 . S
H1524 C1530 0.930 . S
H1525 C1534 0.930 . S
H1526 C1539 0.929 . S
H1527 C1537 0.929 . S
H1528 C1532 0.929 . S
H1529 C1538 0.929 . S
C1530 H1524 0.930 . S
C1530 C1531 1.367 . S
C1530 C1538 1.378 . S
C1531 C1530 1.367 . S
C1531 C1539 1.433 . S
C1532 H1528 0.929 . S
C1532 C1534 1.378 . S
C1532 C1536 1.350 . S
C1533 C1536 1.463 . S
C1533 C1538 1.350 . S
C1533 N1541 1.427 . S
C1534 H1525 0.930 . S
C1534 C1532 1.378 . S
C1534 C1535 1.367 . S
C1535 C1534 1.367 . S
C1535 C1537 1.433 . S
C1536 C1532 1.350 . S
C1536 C1533 1.463 . S
C1536 N1540 1.427 . S
C1537 H1527 0.929 . S
C1537 C1535 1.433 . S
C1537 N1540 1.384 . S
C1538 H1529 0.929 . S
C1538 C1530 1.378 . S
C1538 C1533 1.350 . S
C1539 H1526 0.929 . S
C1539 C1531 1.433 . S
C1539 N1541 1.384 . S
N1540 C1536 1.427 . S
N1540 C1537 1.384 . S
N1541 C1533 1.427 . S
N1541 C1539 1.384 . S
H1542 C1548 0.930 . S
H1543 C1552 0.930 . S
H1544 C1557 0.929 . S
H1545 C1555 0.929 . S
H1546 C1550 0.929 . S
H1547 C1556 0.929 . S
C1548 H1542 0.930 . S
C1548 C1549 1.367 . S
C1548 C1556 1.378 . S
C1549 C1548 1.367 . S
C1549 C1557 1.433 . S
C1550 H1546 0.929 . S
C1550 C1552 1.378 . S
C1550 C1554 1.350 . S
C1551 C1554 1.463 . S
C1551 C1556 1.350 . S
C1551 N1559 1.427 . S
C1552 H1543 0.930 . S
C1552 C1550 1.378 . S
C1552 C1553 1.367 . S
C1553 C1552 1.367 . S
C1553 C1555 1.433 . S
C1554 C1550 1.350 . S
C1554 C1551 1.463 . S
C1554 N1558 1.427 . S
C1555 H1545 0.929 . S
C1555 C1553 1.433 . S
C1555 N1558 1.384 . S
C1556 H1547 0.929 . S
C1556 C1548 1.378 . S
C1556 C1551 1.350 . S
C1557 H1544 0.929 . S
C1557 C1549 1.433 . S
C1557 N1559 1.384 . S
N1558 C1554 1.427 . S
N1558 C1555 1.384 . S
N1559 C1551 1.427 . S
N1559 C1557 1.384 . S
H1560 C1566 0.930 . S
H1561 C1570 0.930 . S
H1562 C1575 0.929 . S
H1563 C1573 0.929 . S
H1564 C1568 0.929 . S
H1565 C1574 0.929 . S
C1566 H1560 0.930 . S
C1566 C1567 1.367 . S
C1566 C1574 1.378 . S
C1567 C1566 1.367 . S
C1567 C1575 1.433 . S
C1568 H1564 0.929 . S
C1568 C1570 1.378 . S
C1568 C1572 1.350 . S
C1569 C1572 1.463 . S
C1569 C1574 1.350 . S
C1569 N1577 1.427 . S
C1570 H1561 0.930 . S
C1570 C1568 1.378 . S
C1570 C1571 1.367 . S
C1571 C1570 1.367 . S
C1571 C1573 1.433 . S
C1572 C1568 1.350 . S
C1572 C1569 1.463 . S
C1572 N1576 1.427 . S
C1573 H1563 0.929 . S
C1573 C1571 1.433 . S
C1573 N1576 1.384 . S
C1574 H1565 0.929 . S
C1574 C1566 1.378 . S
C1574 C1569 1.350 . S
C1575 H1562 0.929 . S
C1575 C1567 1.433 . S
C1575 N1577 1.384 . S
N1576 C1572 1.427 . S
N1576 C1573 1.384 . S
N1577 C1569 1.427 . S
N1577 C1575 1.384 . S
H1578 C1584 0.930 . S
H1579 C1588 0.930 . S
H1580 C1593 0.929 . S
H1581 C1591 0.929 . S
H1582 C1586 0.929 . S
H1583 C1592 0.929 . S
C1584 H1578 0.930 . S
C1584 C1585 1.367 . S
C1584 C1592 1.378 . S
C1585 C1584 1.367 . S
C1585 C1593 1.433 . S
C1586 H1582 0.929 . S
C1586 C1588 1.378 1_556 S
C1586 C1590 1.350 . S
C1587 C1590 1.463 . S
C1587 C1592 1.350 . S
C1587 N1595 1.427 . S
C1588 H1579 0.930 . S
C1588 C1586 1.378 1_554 S
C1588 C1589 1.367 . S
C1589 C1588 1.367 . S
C1589 C1591 1.433 . S
C1590 C1586 1.350 . S
C1590 C1587 1.463 . S
C1590 N1594 1.427 1_556 S
C1591 H1581 0.929 . S
C1591 C1589 1.433 . S
C1591 N1594 1.384 . S
C1592 H1583 0.929 . S
C1592 C1584 1.378 . S
C1592 C1587 1.350 . S
C1593 H1580 0.929 . S
C1593 C1585 1.433 . S
C1593 N1595 1.384 . S
N1594 C1590 1.427 1_554 S
N1594 C1591 1.384 . S
N1595 C1587 1.427 . S
N1595 C1593 1.384 . S
H1596 C1602 0.930 . S
H1597 C1606 0.930 . S
H1598 C1611 0.929 . S
H1599 C1609 0.929 . S
H1600 C1604 0.929 . S
H1601 C1610 0.929 . S
C1602 H1596 0.930 . S
C1602 C1603 1.367 . S
C1602 C1610 1.378 . S
C1603 C1602 1.367 . S
C1603 C1611 1.433 . S
C1604 H1600 0.929 . S
C1604 C1606 1.378 . S
C1604 C1608 1.350 . S
C1605 C1608 1.463 . S
C1605 C1610 1.350 . S
C1605 N1613 1.427 . S
C1606 H1597 0.930 . S
C1606 C1604 1.378 . S
C1606 C1607 1.367 . S
C1607 C1606 1.367 . S
C1607 C1609 1.433 . S
C1608 C1604 1.350 . S
C1608 C1605 1.463 . S
C1608 N1612 1.427 . S
C1609 H1599 0.929 . S
C1609 C1607 1.433 . S
C1609 N1612 1.384 . S
C1610 H1601 0.929 . S
C1610 C1602 1.378 . S
C1610 C1605 1.350 . S
C1611 H1598 0.929 . S
C1611 C1603 1.433 . S
C1611 N1613 1.384 . S
N1612 C1608 1.427 . S
N1612 C1609 1.384 . S
N1613 C1605 1.427 . S
N1613 C1611 1.384 . S
H1614 C1620 0.930 . S
H1615 C1624 0.930 . S
H1616 C1629 0.929 . S
H1617 C1627 0.929 . S
H1618 C1622 0.929 . S
H1619 C1628 0.929 . S
C1620 H1614 0.930 . S
C1620 C1621 1.367 . S
C1620 C1628 1.378 . S
C1621 C1620 1.367 . S
C1621 C1629 1.433 . S
C1622 H1618 0.929 . S
C1622 C1624 1.378 . S
C1622 C1626 1.350 . S
C1623 C1626 1.463 . S
C1623 C1628 1.350 . S
C1623 N1631 1.427 . S
C1624 H1615 0.930 . S
C1624 C1622 1.378 . S
C1624 C1625 1.367 . S
C1625 C1624 1.367 . S
C1625 C1627 1.433 . S
C1626 C1622 1.350 . S
C1626 C1623 1.463 . S
C1626 N1630 1.427 . S
C1627 H1617 0.929 . S
C1627 C1625 1.433 . S
C1627 N1630 1.384 . S
C1628 H1619 0.929 . S
C1628 C1620 1.378 . S
C1628 C1623 1.350 . S
C1629 H1616 0.929 . S
C1629 C1621 1.433 . S
C1629 N1631 1.384 . S
N1630 C1626 1.427 . S
N1630 C1627 1.384 . S
N1631 C1623 1.427 . S
N1631 C1629 1.384 . S
H1632 C1638 0.930 . S
H1633 C1642 0.930 . S
H1634 C1647 0.929 . S
H1635 C1645 0.929 . S
H1636 C1640 0.929 . S
H1637 C1646 0.929 . S
C1638 H1632 0.930 . S
C1638 C1639 1.367 . S
C1638 C1646 1.378 . S
C1639 C1638 1.367 . S
C1639 C1647 1.433 . S
C1640 H1636 0.929 . S
C1640 C1642 1.378 . S
C1640 C1644 1.350 . S
C1641 C1644 1.463 . S
C1641 C1646 1.350 . S
C1641 N1649 1.427 . S
C1642 H1633 0.930 . S
C1642 C1640 1.378 . S
C1642 C1643 1.367 . S
C1643 C1642 1.367 . S
C1643 C1645 1.433 . S
C1644 C1640 1.350 . S
C1644 C1641 1.463 . S
C1644 N1648 1.427 . S
C1645 H1635 0.929 . S
C1645 C1643 1.433 . S
C1645 N1648 1.384 . S
C1646 H1637 0.929 . S
C1646 C1638 1.378 . S
C1646 C1641 1.350 . S
C1647 H1634 0.929 . S
C1647 C1639 1.433 . S
C1647 N1649 1.384 . S
N1648 C1644 1.427 . S
N1648 C1645 1.384 . S
N1649 C1641 1.427 . S
N1649 C1647 1.384 . S
H1650 C1656 0.930 . S
H1651 C1660 0.930 . S
H1652 C1665 0.929 . S
H1653 C1663 0.929 . S
H1654 C1658 0.929 . S
H1655 C1664 0.929 . S
C1656 H1650 0.930 . S
C1656 C1657 1.367 . S
C1656 C1664 1.378 . S
C1657 C1656 1.367 . S
C1657 C1665 1.433 . S
C1658 H1654 0.929 . S
C1658 C1660 1.378 . S
C1658 C1662 1.350 . S
C1659 C1662 1.463 . S
C1659 C1664 1.350 . S
C1659 N1667 1.427 . S
C1660 H1651 0.930 . S
C1660 C1658 1.378 . S
C1660 C1661 1.367 . S
C1661 C1660 1.367 . S
C1661 C1663 1.433 . S
C1662 C1658 1.350 . S
C1662 C1659 1.463 . S
C1662 N1666 1.427 . S
C1663 H1653 0.929 . S
C1663 C1661 1.433 . S
C1663 N1666 1.384 . S
C1664 H1655 0.929 . S
C1664 C1656 1.378 . S
C1664 C1659 1.350 . S
C1665 H1652 0.929 . S
C1665 C1657 1.433 . S
C1665 N1667 1.384 . S
N1666 C1662 1.427 . S
N1666 C1663 1.384 . S
N1667 C1659 1.427 . S
N1667 C1665 1.384 . S
H1668 C1674 0.930 . S
H1669 C1678 0.930 . S
H1670 C1683 0.929 . S
H1671 C1681 0.929 . S
H1672 C1676 0.929 . S
H1673 C1682 0.929 . S
C1674 H1668 0.930 . S
C1674 C1675 1.367 . S
C1674 C1682 1.378 . S
C1675 C1674 1.367 . S
C1675 C1683 1.433 . S
C1676 H1672 0.929 . S
C1676 C1678 1.378 . S
C1676 C1680 1.350 . S
C1677 C1680 1.463 . S
C1677 C1682 1.350 . S
C1677 N1685 1.427 . S
C1678 H1669 0.930 . S
C1678 C1676 1.378 . S
C1678 C1679 1.367 . S
C1679 C1678 1.367 . S
C1679 C1681 1.433 . S
C1680 C1676 1.350 . S
C1680 C1677 1.463 . S
C1680 N1684 1.427 . S
C1681 H1671 0.929 . S
C1681 C1679 1.433 . S
C1681 N1684 1.384 . S
C1682 H1673 0.929 . S
C1682 C1674 1.378 . S
C1682 C1677 1.350 . S
C1683 H1670 0.929 . S
C1683 C1675 1.433 . S
C1683 N1685 1.384 . S
N1684 C1680 1.427 . S
N1684 C1681 1.384 . S
N1685 C1677 1.427 . S
N1685 C1683 1.384 . S
H1686 C1692 0.930 . S
H1687 C1696 0.930 . S
H1688 C1701 0.929 . S
H1689 C1699 0.929 . S
H1690 C1694 0.929 . S
H1691 C1700 0.929 . S
C1692 H1686 0.930 . S
C1692 C1693 1.367 . S
C1692 C1700 1.378 . S
C1693 C1692 1.367 . S
C1693 C1701 1.433 1_655 S
C1694 H1690 0.929 . S
C1694 C1696 1.378 . S
C1694 C1698 1.350 . S
C1695 C1698 1.463 . S
C1695 C1700 1.350 . S
C1695 N1703 1.427 . S
C1696 H1687 0.930 . S
C1696 C1694 1.378 . S
C1696 C1697 1.367 . S
C1697 C1696 1.367 . S
C1697 C1699 1.433 . S
C1698 C1694 1.350 . S
C1698 C1695 1.463 . S
C1698 N1702 1.427 . S
C1699 H1689 0.929 . S
C1699 C1697 1.433 . S
C1699 N1702 1.384 . S
C1700 H1691 0.929 . S
C1700 C1692 1.378 . S
C1700 C1695 1.350 . S
C1701 H1688 0.929 . S
C1701 C1693 1.433 1_455 S
C1701 N1703 1.384 1_455 S
N1702 C1698 1.427 . S
N1702 C1699 1.384 . S
N1703 C1695 1.427 . S
N1703 C1701 1.384 1_655 S
H1704 C1710 0.930 . S
H1705 C1714 0.930 . S
H1706 C1719 0.929 . S
H1707 C1717 0.929 . S
H1708 C1712 0.929 . S
H1709 C1718 0.929 . S
C1710 H1704 0.930 . S
C1710 C1711 1.367 . S
C1710 C1718 1.378 . S
C1711 C1710 1.367 . S
C1711 C1719 1.433 . S
C1712 H1708 0.929 . S
C1712 C1714 1.378 . S
C1712 C1716 1.350 . S
C1713 C1716 1.463 . S
C1713 C1718 1.350 . S
C1713 N1721 1.427 . S
C1714 H1705 0.930 . S
C1714 C1712 1.378 . S
C1714 C1715 1.367 . S
C1715 C1714 1.367 . S
C1715 C1717 1.433 . S
C1716 C1712 1.350 . S
C1716 C1713 1.463 . S
C1716 N1720 1.427 . S
C1717 H1707 0.929 . S
C1717 C1715 1.433 . S
C1717 N1720 1.384 . S
C1718 H1709 0.929 . S
C1718 C1710 1.378 . S
C1718 C1713 1.350 . S
C1719 H1706 0.929 . S
C1719 C1711 1.433 . S
C1719 N1721 1.384 . S
N1720 C1716 1.427 . S
N1720 C1717 1.384 . S
N1721 C1713 1.427 . S
N1721 C1719 1.384 . S
H1722 C1728 0.930 . S
H1723 C1732 0.930 1_455 S
H1724 C1737 0.929 . S
H1725 C1735 0.929 . S
H1726 C1730 0.929 . S
H1727 C1736 0.929 . S
C1728 H1722 0.930 . S
C1728 C1729 1.367 . S
C1728 C1736 1.378 . S
C1729 C1728 1.367 . S
C1729 C1737 1.433 . S
C1730 H1726 0.929 . S
C1730 C1732 1.378 . S
C1730 C1734 1.350 . S
C1731 C1734 1.463 . S
C1731 C1736 1.350 . S
C1731 N1739 1.427 . S
C1732 H1723 0.930 1_655 S
C1732 C1730 1.378 . S
C1732 C1733 1.367 . S
C1733 C1732 1.367 . S
C1733 C1735 1.433 . S
C1734 C1730 1.350 . S
C1734 C1731 1.463 . S
C1734 N1738 1.427 . S
C1735 H1725 0.929 . S
C1735 C1733 1.433 . S
C1735 N1738 1.384 . S
C1736 H1727 0.929 . S
C1736 C1728 1.378 . S
C1736 C1731 1.350 . S
C1737 H1724 0.929 . S
C1737 C1729 1.433 . S
C1737 N1739 1.384 . S
N1738 C1734 1.427 . S
N1738 C1735 1.384 . S
N1739 C1731 1.427 . S
N1739 C1737 1.384 . S
H1740 C1746 0.930 . S
H1741 C1750 0.930 . S
H1742 C1755 0.929 . S
H1743 C1753 0.929 . S
H1744 C1748 0.929 . S
H1745 C1754 0.929 . S
C1746 H1740 0.930 . S
C1746 C1747 1.367 . S
C1746 C1754 1.378 . S
C1747 C1746 1.367 . S
C1747 C1755 1.433 . S
C1748 H1744 0.929 . S
C1748 C1750 1.378 . S
C1748 C1752 1.350 . S
C1749 C1752 1.463 . S
C1749 C1754 1.350 . S
C1749 N1757 1.427 . S
C1750 H1741 0.930 . S
C1750 C1748 1.378 . S
C1750 C1751 1.367 . S
C1751 C1750 1.367 . S
C1751 C1753 1.433 . S
C1752 C1748 1.350 . S
C1752 C1749 1.463 . S
C1752 N1756 1.427 . S
C1753 H1743 0.929 . S
C1753 C1751 1.433 . S
C1753 N1756 1.384 . S
C1754 H1745 0.929 . S
C1754 C1746 1.378 . S
C1754 C1749 1.350 . S
C1755 H1742 0.929 . S
C1755 C1747 1.433 . S
C1755 N1757 1.384 . S
N1756 C1752 1.427 . S
N1756 C1753 1.384 . S
N1757 C1749 1.427 . S
N1757 C1755 1.384 . S
H1758 C1764 0.930 . S
H1759 C1768 0.930 . S
H1760 C1773 0.929 . S
H1761 C1771 0.929 . S
H1762 C1766 0.929 . S
H1763 C1772 0.929 . S
C1764 H1758 0.930 . S
C1764 C1765 1.367 . S
C1764 C1772 1.378 . S
C1765 C1764 1.367 . S
C1765 C1773 1.433 . S
C1766 H1762 0.929 . S
C1766 C1768 1.378 . S
C1766 C1770 1.350 . S
C1767 C1770 1.463 . S
C1767 C1772 1.350 . S
C1767 N1775 1.427 . S
C1768 H1759 0.930 . S
C1768 C1766 1.378 . S
C1768 C1769 1.367 . S
C1769 C1768 1.367 . S
C1769 C1771 1.433 . S
C1770 C1766 1.350 . S
C1770 C1767 1.463 . S
C1770 N1774 1.427 . S
C1771 H1761 0.929 . S
C1771 C1769 1.433 . S
C1771 N1774 1.384 . S
C1772 H1763 0.929 . S
C1772 C1764 1.378 . S
C1772 C1767 1.350 . S
C1773 H1760 0.929 . S
C1773 C1765 1.433 . S
C1773 N1775 1.384 . S
N1774 C1770 1.427 . S
N1774 C1771 1.384 . S
N1775 C1767 1.427 . S
N1775 C1773 1.384 . S
H1776 C1782 0.930 . S
H1777 C1786 0.930 . S
H1778 C1791 0.929 . S
H1779 C1789 0.929 . S
H1780 C1784 0.929 . S
H1781 C1790 0.929 . S
C1782 H1776 0.930 . S
C1782 C1783 1.367 . S
C1782 C1790 1.378 . S
C1783 C1782 1.367 . S
C1783 C1791 1.433 . S
C1784 H1780 0.929 . S
C1784 C1786 1.378 . S
C1784 C1788 1.350 . S
C1785 C1788 1.463 . S
C1785 C1790 1.350 . S
C1785 N1793 1.427 . S
C1786 H1777 0.930 . S
C1786 C1784 1.378 . S
C1786 C1787 1.367 . S
C1787 C1786 1.367 . S
C1787 C1789 1.433 . S
C1788 C1784 1.350 . S
C1788 C1785 1.463 . S
C1788 N1792 1.427 . S
C1789 H1779 0.929 . S
C1789 C1787 1.433 . S
C1789 N1792 1.384 . S
C1790 H1781 0.929 . S
C1790 C1782 1.378 . S
C1790 C1785 1.350 . S
C1791 H1778 0.929 . S
C1791 C1783 1.433 . S
C1791 N1793 1.384 . S
N1792 C1788 1.427 . S
N1792 C1789 1.384 . S
N1793 C1785 1.427 . S
N1793 C1791 1.384 . S
H1794 C1800 0.930 . S
H1795 C1804 0.930 . S
H1796 C1809 0.929 . S
H1797 C1807 0.929 . S
H1798 C1802 0.929 . S
H1799 C1808 0.929 . S
C1800 H1794 0.930 . S
C1800 C1801 1.367 . S
C1800 C1808 1.378 . S
C1801 C1800 1.367 . S
C1801 C1809 1.433 . S
C1802 H1798 0.929 . S
C1802 C1804 1.378 . S
C1802 C1806 1.350 . S
C1803 C1806 1.463 . S
C1803 C1808 1.350 . S
C1803 N1811 1.427 . S
C1804 H1795 0.930 . S
C1804 C1802 1.378 . S
C1804 C1805 1.367 . S
C1805 C1804 1.367 . S
C1805 C1807 1.433 . S
C1806 C1802 1.350 . S
C1806 C1803 1.463 . S
C1806 N1810 1.427 . S
C1807 H1797 0.929 . S
C1807 C1805 1.433 . S
C1807 N1810 1.384 . S
C1808 H1799 0.929 . S
C1808 C1800 1.378 . S
C1808 C1803 1.350 . S
C1809 H1796 0.929 . S
C1809 C1801 1.433 . S
C1809 N1811 1.384 . S
N1810 C1806 1.427 . S
N1810 C1807 1.384 . S
N1811 C1803 1.427 . S
N1811 C1809 1.384 . S
H1812 C1818 0.930 . S
H1813 C1822 0.930 . S
H1814 C1827 0.929 . S
H1815 C1825 0.929 . S
H1816 C1820 0.929 . S
H1817 C1826 0.929 . S
C1818 H1812 0.930 . S
C1818 C1819 1.367 . S
C1818 C1826 1.378 . S
C1819 C1818 1.367 . S
C1819 C1827 1.433 . S
C1820 H1816 0.929 . S
C1820 C1822 1.378 . S
C1820 C1824 1.350 . S
C1821 C1824 1.463 . S
C1821 C1826 1.350 . S
C1821 N1829 1.427 . S
C1822 H1813 0.930 . S
C1822 C1820 1.378 . S
C1822 C1823 1.367 . S
C1823 C1822 1.367 . S
C1823 C1825 1.433 . S
C1824 C1820 1.350 . S
C1824 C1821 1.463 . S
C1824 N1828 1.427 . S
C1825 H1815 0.929 . S
C1825 C1823 1.433 . S
C1825 N1828 1.384 . S
C1826 H1817 0.929 . S
C1826 C1818 1.378 . S
C1826 C1821 1.350 . S
C1827 H1814 0.929 . S
C1827 C1819 1.433 . S
C1827 N1829 1.384 . S
N1828 C1824 1.427 . S
N1828 C1825 1.384 . S
N1829 C1821 1.427 . S
N1829 C1827 1.384 . S
H1830 C1836 0.930 . S
H1831 C1840 0.930 . S
H1832 C1845 0.929 . S
H1833 C1843 0.929 . S
H1834 C1838 0.929 . S
H1835 C1844 0.929 . S
C1836 H1830 0.930 . S
C1836 C1837 1.367 . S
C1836 C1844 1.378 . S
C1837 C1836 1.367 . S
C1837 C1845 1.433 . S
C1838 H1834 0.929 . S
C1838 C1840 1.378 . S
C1838 C1842 1.350 . S
C1839 C1842 1.463 . S
C1839 C1844 1.350 . S
C1839 N1847 1.427 . S
C1840 H1831 0.930 . S
C1840 C1838 1.378 . S
C1840 C1841 1.367 . S
C1841 C1840 1.367 . S
C1841 C1843 1.433 . S
C1842 C1838 1.350 . S
C1842 C1839 1.463 . S
C1842 N1846 1.427 . S
C1843 H1833 0.929 . S
C1843 C1841 1.433 . S
C1843 N1846 1.384 . S
C1844 H1835 0.929 . S
C1844 C1836 1.378 . S
C1844 C1839 1.350 . S
C1845 H1832 0.929 . S
C1845 C1837 1.433 . S
C1845 N1847 1.384 . S
N1846 C1842 1.427 . S
N1846 C1843 1.384 . S
N1847 C1839 1.427 . S
N1847 C1845 1.384 . S
H1848 C1854 0.930 . S
H1849 C1858 0.930 . S
H1850 C1863 0.929 . S
H1851 C1861 0.929 . S
H1852 C1856 0.929 . S
H1853 C1862 0.929 . S
C1854 H1848 0.930 . S
C1854 C1855 1.367 . S
C1854 C1862 1.378 . S
C1855 C1854 1.367 . S
C1855 C1863 1.433 . S
C1856 H1852 0.929 . S
C1856 C1858 1.378 . S
C1856 C1860 1.350 . S
C1857 C1860 1.463 . S
C1857 C1862 1.350 . S
C1857 N1865 1.427 . S
C1858 H1849 0.930 . S
C1858 C1856 1.378 . S
C1858 C1859 1.367 . S
C1859 C1858 1.367 . S
C1859 C1861 1.433 . S
C1860 C1856 1.350 . S
C1860 C1857 1.463 . S
C1860 N1864 1.427 . S
C1861 H1851 0.929 . S
C1861 C1859 1.433 . S
C1861 N1864 1.384 . S
C1862 H1853 0.929 . S
C1862 C1854 1.378 . S
C1862 C1857 1.350 . S
C1863 H1850 0.929 . S
C1863 C1855 1.433 . S
C1863 N1865 1.384 . S
N1864 C1860 1.427 . S
N1864 C1861 1.384 . S
N1865 C1857 1.427 . S
N1865 C1863 1.384 . S
H1866 C1872 0.930 . S
H1867 C1876 0.930 . S
H1868 C1881 0.929 . S
H1869 C1879 0.929 . S
H1870 C1874 0.929 . S
H1871 C1880 0.929 . S
C1872 H1866 0.930 . S
C1872 C1873 1.367 . S
C1872 C1880 1.378 . S
C1873 C1872 1.367 . S
C1873 C1881 1.433 . S
C1874 H1870 0.929 . S
C1874 C1876 1.378 . S
C1874 C1878 1.350 . S
C1875 C1878 1.463 . S
C1875 C1880 1.350 . S
C1875 N1883 1.427 . S
C1876 H1867 0.930 . S
C1876 C1874 1.378 . S
C1876 C1877 1.367 . S
C1877 C1876 1.367 . S
C1877 C1879 1.433 . S
C1878 C1874 1.350 . S
C1878 C1875 1.463 . S
C1878 N1882 1.427 . S
C1879 H1869 0.929 . S
C1879 C1877 1.433 . S
C1879 N1882 1.384 . S
C1880 H1871 0.929 . S
C1880 C1872 1.378 . S
C1880 C1875 1.350 . S
C1881 H1868 0.929 . S
C1881 C1873 1.433 . S
C1881 N1883 1.384 . S
N1882 C1878 1.427 . S
N1882 C1879 1.384 . S
N1883 C1875 1.427 . S
N1883 C1881 1.384 . S
H1884 C1890 0.930 . S
H1885 C1894 0.930 . S
H1886 C1899 0.929 . S
H1887 C1897 0.929 . S
H1888 C1892 0.929 . S
H1889 C1898 0.929 . S
C1890 H1884 0.930 . S
C1890 C1891 1.367 . S
C1890 C1898 1.378 . S
C1891 C1890 1.367 . S
C1891 C1899 1.433 1_556 S
C1892 H1888 0.929 . S
C1892 C1894 1.378 . S
C1892 C1896 1.350 . S
C1893 C1896 1.463 . S
C1893 C1898 1.350 . S
C1893 N1901 1.427 . S
C1894 H1885 0.930 . S
C1894 C1892 1.378 . S
C1894 C1895 1.367 . S
C1895 C1894 1.367 . S
C1895 C1897 1.433 . S
C1896 C1892 1.350 . S
C1896 C1893 1.463 . S
C1896 N1900 1.427 . S
C1897 H1887 0.929 . S
C1897 C1895 1.433 . S
C1897 N1900 1.384 . S
C1898 H1889 0.929 . S
C1898 C1890 1.378 . S
C1898 C1893 1.350 . S
C1899 H1886 0.929 . S
C1899 C1891 1.433 1_554 S
C1899 N1901 1.384 1_554 S
N1900 C1896 1.427 . S
N1900 C1897 1.384 . S
N1901 C1893 1.427 . S
N1901 C1899 1.384 1_556 S
H1902 C1908 0.930 . S
H1903 C1912 0.930 . S
H1904 C1917 0.929 . S
H1905 C1915 0.929 . S
H1906 C1910 0.929 . S
H1907 C1916 0.929 . S
C1908 H1902 0.930 . S
C1908 C1909 1.367 1_655 S
C1908 C1916 1.378 . S
C1909 C1908 1.367 1_455 S
C1909 C1917 1.433 . S
C1910 H1906 0.929 . S
C1910 C1912 1.378 . S
C1910 C1914 1.350 . S
C1911 C1914 1.463 . S
C1911 C1916 1.350 . S
C1911 N1919 1.427 1_655 S
C1912 H1903 0.930 . S
C1912 C1910 1.378 . S
C1912 C1913 1.367 . S
C1913 C1912 1.367 . S
C1913 C1915 1.433 . S
C1914 C1910 1.350 . S
C1914 C1911 1.463 . S
C1914 N1918 1.427 . S
C1915 H1905 0.929 . S
C1915 C1913 1.433 . S
C1915 N1918 1.384 . S
C1916 H1907 0.929 . S
C1916 C1908 1.378 . S
C1916 C1911 1.350 . S
C1917 H1904 0.929 . S
C1917 C1909 1.433 . S
C1917 N1919 1.384 . S
N1918 C1914 1.427 . S
N1918 C1915 1.384 . S
N1919 C1911 1.427 1_455 S
N1919 C1917 1.384 . S
H1920 C1926 0.930 . S
H1921 C1930 0.930 . S
H1922 C1935 0.929 . S
H1923 C1933 0.929 . S
H1924 C1928 0.929 . S
H1925 C1934 0.929 . S
C1926 H1920 0.930 . S
C1926 C1927 1.367 . S
C1926 C1934 1.378 . S
C1927 C1926 1.367 . S
C1927 C1935 1.433 . S
C1928 H1924 0.929 . S
C1928 C1930 1.378 . S
C1928 C1932 1.350 . S
C1929 C1932 1.463 . S
C1929 C1934 1.350 . S
C1929 N1937 1.427 . S
C1930 H1921 0.930 . S
C1930 C1928 1.378 . S
C1930 C1931 1.367 . S
C1931 C1930 1.367 . S
C1931 C1933 1.433 . S
C1932 C1928 1.350 . S
C1932 C1929 1.463 . S
C1932 N1936 1.427 . S
C1933 H1923 0.929 . S
C1933 C1931 1.433 . S
C1933 N1936 1.384 . S
C1934 H1925 0.929 . S
C1934 C1926 1.378 . S
C1934 C1929 1.350 . S
C1935 H1922 0.929 . S
C1935 C1927 1.433 . S
C1935 N1937 1.384 . S
N1936 C1932 1.427 . S
N1936 C1933 1.384 . S
N1937 C1929 1.427 . S
N1937 C1935 1.384 . S
H1938 C1944 0.930 . S
H1939 C1948 0.930 . S
H1940 C1953 0.929 . S
H1941 C1951 0.929 . S
H1942 C1946 0.929 . S
H1943 C1952 0.929 . S
C1944 H1938 0.930 . S
C1944 C1945 1.367 . S
C1944 C1952 1.378 . S
C1945 C1944 1.367 . S
C1945 C1953 1.433 . S
C1946 H1942 0.929 . S
C1946 C1948 1.378 . S
C1946 C1950 1.350 . S
C1947 C1950 1.463 . S
C1947 C1952 1.350 . S
C1947 N1955 1.427 . S
C1948 H1939 0.930 . S
C1948 C1946 1.378 . S
C1948 C1949 1.367 . S
C1949 C1948 1.367 . S
C1949 C1951 1.433 . S
C1950 C1946 1.350 . S
C1950 C1947 1.463 . S
C1950 N1954 1.427 . S
C1951 H1941 0.929 . S
C1951 C1949 1.433 . S
C1951 N1954 1.384 . S
C1952 H1943 0.929 . S
C1952 C1944 1.378 . S
C1952 C1947 1.350 . S
C1953 H1940 0.929 . S
C1953 C1945 1.433 . S
C1953 N1955 1.384 . S
N1954 C1950 1.427 . S
N1954 C1951 1.384 . S
N1955 C1947 1.427 . S
N1955 C1953 1.384 . S
H1956 C1962 0.930 . S
H1957 C1966 0.930 . S
H1958 C1971 0.929 . S
H1959 C1969 0.929 . S
H1960 C1964 0.929 . S
H1961 C1970 0.929 . S
C1962 H1956 0.930 . S
C1962 C1963 1.367 . S
C1962 C1970 1.378 . S
C1963 C1962 1.367 . S
C1963 C1971 1.433 . S
C1964 H1960 0.929 . S
C1964 C1966 1.378 . S
C1964 C1968 1.350 . S
C1965 C1968 1.463 . S
C1965 C1970 1.350 . S
C1965 N1973 1.427 . S
C1966 H1957 0.930 . S
C1966 C1964 1.378 . S
C1966 C1967 1.367 . S
C1967 C1966 1.367 . S
C1967 C1969 1.433 . S
C1968 C1964 1.350 . S
C1968 C1965 1.463 . S
C1968 N1972 1.427 . S
C1969 H1959 0.929 . S
C1969 C1967 1.433 . S
C1969 N1972 1.384 . S
C1970 H1961 0.929 . S
C1970 C1962 1.378 . S
C1970 C1965 1.350 . S
C1971 H1958 0.929 . S
C1971 C1963 1.433 . S
C1971 N1973 1.384 . S
N1972 C1968 1.427 . S
N1972 C1969 1.384 . S
N1973 C1965 1.427 . S
N1973 C1971 1.384 . S
H1974 C1980 0.930 . S
H1975 C1984 0.930 . S
H1976 C1989 0.929 . S
H1977 C1987 0.929 . S
H1978 C1982 0.929 . S
H1979 C1988 0.929 . S
C1980 H1974 0.930 . S
C1980 C1981 1.367 . S
C1980 C1988 1.378 . S
C1981 C1980 1.367 . S
C1981 C1989 1.433 . S
C1982 H1978 0.929 . S
C1982 C1984 1.378 . S
C1982 C1986 1.350 . S
C1983 C1986 1.463 . S
C1983 C1988 1.350 . S
C1983 N1991 1.427 . S
C1984 H1975 0.930 . S
C1984 C1982 1.378 . S
C1984 C1985 1.367 . S
C1985 C1984 1.367 . S
C1985 C1987 1.433 . S
C1986 C1982 1.350 . S
C1986 C1983 1.463 . S
C1986 N1990 1.427 . S
C1987 H1977 0.929 . S
C1987 C1985 1.433 . S
C1987 N1990 1.384 . S
C1988 H1979 0.929 . S
C1988 C1980 1.378 . S
C1988 C1983 1.350 . S
C1989 H1976 0.929 . S
C1989 C1981 1.433 . S
C1989 N1991 1.384 . S
N1990 C1986 1.427 . S
N1990 C1987 1.384 . S
N1991 C1983 1.427 . S
N1991 C1989 1.384 . S
H1992 C1998 0.930 . S
H1993 C2002 0.930 . S
H1994 C2007 0.929 . S
H1995 C2005 0.929 . S
H1996 C2000 0.929 . S
H1997 C2006 0.929 . S
C1998 H1992 0.930 . S
C1998 C1999 1.367 . S
C1998 C2006 1.378 . S
C1999 C1998 1.367 . S
C1999 C2007 1.433 . S
C2000 H1996 0.929 . S
C2000 C2002 1.378 . S
C2000 C2004 1.350 . S
C2001 C2004 1.463 . S
C2001 C2006 1.350 . S
C2001 N2009 1.427 . S
C2002 H1993 0.930 . S
C2002 C2000 1.378 . S
C2002 C2003 1.367 . S
C2003 C2002 1.367 . S
C2003 C2005 1.433 . S
C2004 C2000 1.350 . S
C2004 C2001 1.463 . S
C2004 N2008 1.427 . S
C2005 H1995 0.929 . S
C2005 C2003 1.433 . S
C2005 N2008 1.384 . S
C2006 H1997 0.929 . S
C2006 C1998 1.378 . S
C2006 C2001 1.350 . S
C2007 H1994 0.929 . S
C2007 C1999 1.433 . S
C2007 N2009 1.384 . S
N2008 C2004 1.427 . S
N2008 C2005 1.384 . S
N2009 C2001 1.427 . S
N2009 C2007 1.384 . S
H2010 C2016 0.930 . S
H2011 C2020 0.930 . S
H2012 C2025 0.929 . S
H2013 C2023 0.929 . S
H2014 C2018 0.929 . S
H2015 C2024 0.929 . S
C2016 H2010 0.930 . S
C2016 C2017 1.367 . S
C2016 C2024 1.378 . S
C2017 C2016 1.367 . S
C2017 C2025 1.433 . S
C2018 H2014 0.929 . S
C2018 C2020 1.378 . S
C2018 C2022 1.350 . S
C2019 C2022 1.463 . S
C2019 C2024 1.350 . S
C2019 N2027 1.427 . S
C2020 H2011 0.930 . S
C2020 C2018 1.378 . S
C2020 C2021 1.367 . S
C2021 C2020 1.367 . S
C2021 C2023 1.433 . S
C2022 C2018 1.350 . S
C2022 C2019 1.463 . S
C2022 N2026 1.427 . S
C2023 H2013 0.929 . S
C2023 C2021 1.433 . S
C2023 N2026 1.384 . S
C2024 H2015 0.929 . S
C2024 C2016 1.378 . S
C2024 C2019 1.350 . S
C2025 H2012 0.929 . S
C2025 C2017 1.433 . S
C2025 N2027 1.384 . S
N2026 C2022 1.427 . S
N2026 C2023 1.384 . S
N2027 C2019 1.427 . S
N2027 C2025 1.384 . S
H2028 C2034 0.930 . S
H2029 C2038 0.930 . S
H2030 C2043 0.929 . S
H2031 C2041 0.929 . S
H2032 C2036 0.929 . S
H2033 C2042 0.929 . S
C2034 H2028 0.930 . S
C2034 C2035 1.367 . S
C2034 C2042 1.378 . S
C2035 C2034 1.367 . S
C2035 C2043 1.433 . S
C2036 H2032 0.929 . S
C2036 C2038 1.378 . S
C2036 C2040 1.350 . S
C2037 C2040 1.463 . S
C2037 C2042 1.350 . S
C2037 N2045 1.427 . S
C2038 H2029 0.930 . S
C2038 C2036 1.378 . S
C2038 C2039 1.367 . S
C2039 C2038 1.367 . S
C2039 C2041 1.433 . S
C2040 C2036 1.350 . S
C2040 C2037 1.463 . S
C2040 N2044 1.427 . S
C2041 H2031 0.929 . S
C2041 C2039 1.433 . S
C2041 N2044 1.384 . S
C2042 H2033 0.929 . S
C2042 C2034 1.378 . S
C2042 C2037 1.350 . S
C2043 H2030 0.929 . S
C2043 C2035 1.433 . S
C2043 N2045 1.384 . S
N2044 C2040 1.427 . S
N2044 C2041 1.384 . S
N2045 C2037 1.427 . S
N2045 C2043 1.384 . S
H2046 C2052 0.930 . S
H2047 C2056 0.930 . S
H2048 C2061 0.929 . S
H2049 C2059 0.929 . S
H2050 C2054 0.929 . S
H2051 C2060 0.929 . S
C2052 H2046 0.930 . S
C2052 C2053 1.367 . S
C2052 C2060 1.378 . S
C2053 C2052 1.367 . S
C2053 C2061 1.433 . S
C2054 H2050 0.929 . S
C2054 C2056 1.378 . S
C2054 C2058 1.350 . S
C2055 C2058 1.463 . S
C2055 C2060 1.350 . S
C2055 N2063 1.427 . S
C2056 H2047 0.930 . S
C2056 C2054 1.378 . S
C2056 C2057 1.367 . S
C2057 C2056 1.367 . S
C2057 C2059 1.433 . S
C2058 C2054 1.350 . S
C2058 C2055 1.463 . S
C2058 N2062 1.427 . S
C2059 H2049 0.929 . S
C2059 C2057 1.433 . S
C2059 N2062 1.384 . S
C2060 H2051 0.929 . S
C2060 C2052 1.378 . S
C2060 C2055 1.350 . S
C2061 H2048 0.929 . S
C2061 C2053 1.433 . S
C2061 N2063 1.384 . S
N2062 C2058 1.427 . S
N2062 C2059 1.384 . S
N2063 C2055 1.427 . S
N2063 C2061 1.384 . S
H2064 C2070 0.930 . S
H2065 C2074 0.930 . S
H2066 C2079 0.929 . S
H2067 C2077 0.929 . S
H2068 C2072 0.929 . S
H2069 C2078 0.929 . S
C2070 H2064 0.930 . S
C2070 C2071 1.367 . S
C2070 C2078 1.378 . S
C2071 C2070 1.367 . S
C2071 C2079 1.433 . S
C2072 H2068 0.929 . S
C2072 C2074 1.378 . S
C2072 C2076 1.350 . S
C2073 C2076 1.463 . S
C2073 C2078 1.350 . S
C2073 N2081 1.427 . S
C2074 H2065 0.930 . S
C2074 C2072 1.378 . S
C2074 C2075 1.367 . S
C2075 C2074 1.367 . S
C2075 C2077 1.433 . S
C2076 C2072 1.350 . S
C2076 C2073 1.463 . S
C2076 N2080 1.427 . S
C2077 H2067 0.929 . S
C2077 C2075 1.433 . S
C2077 N2080 1.384 . S
C2078 H2069 0.929 . S
C2078 C2070 1.378 . S
C2078 C2073 1.350 . S
C2079 H2066 0.929 . S
C2079 C2071 1.433 . S
C2079 N2081 1.384 . S
N2080 C2076 1.427 . S
N2080 C2077 1.384 . S
N2081 C2073 1.427 . S
N2081 C2079 1.384 . S
H2082 C2088 0.930 . S
H2083 C2092 0.930 . S
H2084 C2097 0.929 . S
H2085 C2095 0.929 . S
H2086 C2090 0.929 . S
H2087 C2096 0.929 . S
C2088 H2082 0.930 . S
C2088 C2089 1.367 . S
C2088 C2096 1.378 . S
C2089 C2088 1.367 . S
C2089 C2097 1.433 . S
C2090 H2086 0.929 . S
C2090 C2092 1.378 . S
C2090 C2094 1.350 . S
C2091 C2094 1.463 . S
C2091 C2096 1.350 . S
C2091 N2099 1.427 . S
C2092 H2083 0.930 . S
C2092 C2090 1.378 . S
C2092 C2093 1.367 . S
C2093 C2092 1.367 . S
C2093 C2095 1.433 . S
C2094 C2090 1.350 . S
C2094 C2091 1.463 . S
C2094 N2098 1.427 . S
C2095 H2085 0.929 . S
C2095 C2093 1.433 . S
C2095 N2098 1.384 . S
C2096 H2087 0.929 . S
C2096 C2088 1.378 . S
C2096 C2091 1.350 . S
C2097 H2084 0.929 . S
C2097 C2089 1.433 . S
C2097 N2099 1.384 . S
N2098 C2094 1.427 . S
N2098 C2095 1.384 . S
N2099 C2091 1.427 . S
N2099 C2097 1.384 . S
H2100 C2106 0.930 . S
H2101 C2110 0.930 . S
H2102 C2115 0.929 . S
H2103 C2113 0.929 . S
H2104 C2108 0.929 . S
H2105 C2114 0.929 . S
C2106 H2100 0.930 . S
C2106 C2107 1.367 . S
C2106 C2114 1.378 . S
C2107 C2106 1.367 . S
C2107 C2115 1.433 . S
C2108 H2104 0.929 . S
C2108 C2110 1.378 . S
C2108 C2112 1.350 . S
C2109 C2112 1.463 . S
C2109 C2114 1.350 . S
C2109 N2117 1.427 . S
C2110 H2101 0.930 . S
C2110 C2108 1.378 . S
C2110 C2111 1.367 . S
C2111 C2110 1.367 . S
C2111 C2113 1.433 . S
C2112 C2108 1.350 . S
C2112 C2109 1.463 . S
C2112 N2116 1.427 . S
C2113 H2103 0.929 . S
C2113 C2111 1.433 . S
C2113 N2116 1.384 . S
C2114 H2105 0.929 . S
C2114 C2106 1.378 . S
C2114 C2109 1.350 . S
C2115 H2102 0.929 . S
C2115 C2107 1.433 . S
C2115 N2117 1.384 . S
N2116 C2112 1.427 . S
N2116 C2113 1.384 . S
N2117 C2109 1.427 . S
N2117 C2115 1.384 . S
H2118 C2124 0.930 . S
H2119 C2128 0.930 . S
H2120 C2133 0.929 . S
H2121 C2131 0.929 . S
H2122 C2126 0.929 . S
H2123 C2132 0.929 . S
C2124 H2118 0.930 . S
C2124 C2125 1.367 . S
C2124 C2132 1.378 . S
C2125 C2124 1.367 . S
C2125 C2133 1.433 . S
C2126 H2122 0.929 . S
C2126 C2128 1.378 . S
C2126 C2130 1.350 . S
C2127 C2130 1.463 . S
C2127 C2132 1.350 . S
C2127 N2135 1.427 . S
C2128 H2119 0.930 . S
C2128 C2126 1.378 . S
C2128 C2129 1.367 . S
C2129 C2128 1.367 . S
C2129 C2131 1.433 . S
C2130 C2126 1.350 . S
C2130 C2127 1.463 . S
C2130 N2134 1.427 . S
C2131 H2121 0.929 . S
C2131 C2129 1.433 . S
C2131 N2134 1.384 . S
C2132 H2123 0.929 . S
C2132 C2124 1.378 . S
C2132 C2127 1.350 . S
C2133 H2120 0.929 . S
C2133 C2125 1.433 . S
C2133 N2135 1.384 . S
N2134 C2130 1.427 . S
N2134 C2131 1.384 . S
N2135 C2127 1.427 . S
N2135 C2133 1.384 . S
H2136 C2142 0.930 . S
H2137 C2146 0.930 . S
H2138 C2151 0.929 . S
H2139 C2149 0.929 . S
H2140 C2144 0.929 . S
H2141 C2150 0.929 . S
C2142 H2136 0.930 . S
C2142 C2143 1.367 . S
C2142 C2150 1.378 . S
C2143 C2142 1.367 . S
C2143 C2151 1.433 . S
C2144 H2140 0.929 . S
C2144 C2146 1.378 . S
C2144 C2148 1.350 . S
C2145 C2148 1.463 . S
C2145 C2150 1.350 . S
C2145 N2153 1.427 . S
C2146 H2137 0.930 . S
C2146 C2144 1.378 . S
C2146 C2147 1.367 . S
C2147 C2146 1.367 . S
C2147 C2149 1.433 . S
C2148 C2144 1.350 . S
C2148 C2145 1.463 . S
C2148 N2152 1.427 . S
C2149 H2139 0.929 . S
C2149 C2147 1.433 . S
C2149 N2152 1.384 . S
C2150 H2141 0.929 . S
C2150 C2142 1.378 . S
C2150 C2145 1.350 . S
C2151 H2138 0.929 . S
C2151 C2143 1.433 . S
C2151 N2153 1.384 . S
N2152 C2148 1.427 . S
N2152 C2149 1.384 . S
N2153 C2145 1.427 . S
N2153 C2151 1.384 . S
H2154 C2160 0.930 . S
H2155 C2164 0.930 . S
H2156 C2169 0.929 . S
H2157 C2167 0.929 . S
H2158 C2162 0.929 . S
H2159 C2168 0.929 . S
C2160 H2154 0.930 . S
C2160 C2161 1.367 . S
C2160 C2168 1.378 . S
C2161 C2160 1.367 . S
C2161 C2169 1.433 . S
C2162 H2158 0.929 . S
C2162 C2164 1.378 . S
C2162 C2166 1.350 . S
C2163 C2166 1.463 . S
C2163 C2168 1.350 . S
C2163 N2171 1.427 . S
C2164 H2155 0.930 . S
C2164 C2162 1.378 . S
C2164 C2165 1.367 . S
C2165 C2164 1.367 . S
C2165 C2167 1.433 . S
C2166 C2162 1.350 . S
C2166 C2163 1.463 . S
C2166 N2170 1.427 . S
C2167 H2157 0.929 . S
C2167 C2165 1.433 . S
C2167 N2170 1.384 . S
C2168 H2159 0.929 . S
C2168 C2160 1.378 . S
C2168 C2163 1.350 . S
C2169 H2156 0.929 . S
C2169 C2161 1.433 . S
C2169 N2171 1.384 . S
N2170 C2166 1.427 . S
N2170 C2167 1.384 . S
N2171 C2163 1.427 . S
N2171 C2169 1.384 . S
H2172 C2178 0.930 . S
H2173 C2182 0.930 . S
H2174 C2187 0.929 . S
H2175 C2185 0.929 . S
H2176 C2180 0.929 . S
H2177 C2186 0.929 . S
C2178 H2172 0.930 . S
C2178 C2179 1.367 . S
C2178 C2186 1.378 . S
C2179 C2178 1.367 . S
C2179 C2187 1.433 . S
C2180 H2176 0.929 . S
C2180 C2182 1.378 . S
C2180 C2184 1.350 . S
C2181 C2184 1.463 . S
C2181 C2186 1.350 . S
C2181 N2189 1.427 . S
C2182 H2173 0.930 . S
C2182 C2180 1.378 . S
C2182 C2183 1.367 . S
C2183 C2182 1.367 . S
C2183 C2185 1.433 . S
C2184 C2180 1.350 . S
C2184 C2181 1.463 . S
C2184 N2188 1.427 . S
C2185 H2175 0.929 . S
C2185 C2183 1.433 . S
C2185 N2188 1.384 . S
C2186 H2177 0.929 . S
C2186 C2178 1.378 . S
C2186 C2181 1.350 . S
C2187 H2174 0.929 . S
C2187 C2179 1.433 . S
C2187 N2189 1.384 . S
N2188 C2184 1.427 . S
N2188 C2185 1.384 . S
N2189 C2181 1.427 . S
N2189 C2187 1.384 . S
H2190 C2196 0.930 . S
H2191 C2200 0.930 . S
H2192 C2205 0.929 . S
H2193 C2203 0.929 . S
H2194 C2198 0.929 . S
H2195 C2204 0.929 . S
C2196 H2190 0.930 . S
C2196 C2197 1.367 . S
C2196 C2204 1.378 . S
C2197 C2196 1.367 . S
C2197 C2205 1.433 . S
C2198 H2194 0.929 . S
C2198 C2200 1.378 . S
C2198 C2202 1.350 . S
C2199 C2202 1.463 . S
C2199 C2204 1.350 . S
C2199 N2207 1.427 . S
C2200 H2191 0.930 . S
C2200 C2198 1.378 . S
C2200 C2201 1.367 . S
C2201 C2200 1.367 . S
C2201 C2203 1.433 . S
C2202 C2198 1.350 . S
C2202 C2199 1.463 . S
C2202 N2206 1.427 . S
C2203 H2193 0.929 . S
C2203 C2201 1.433 . S
C2203 N2206 1.384 . S
C2204 H2195 0.929 . S
C2204 C2196 1.378 . S
C2204 C2199 1.350 . S
C2205 H2192 0.929 . S
C2205 C2197 1.433 . S
C2205 N2207 1.384 . S
N2206 C2202 1.427 . S
N2206 C2203 1.384 . S
N2207 C2199 1.427 . S
N2207 C2205 1.384 . S
H2208 C2214 0.930 . S
H2209 C2218 0.930 . S
H2210 C2223 0.929 . S
H2211 C2221 0.929 . S
H2212 C2216 0.929 . S
H2213 C2222 0.929 . S
C2214 H2208 0.930 . S
C2214 C2215 1.367 . S
C2214 C2222 1.378 . S
C2215 C2214 1.367 . S
C2215 C2223 1.433 . S
C2216 H2212 0.929 . S
C2216 C2218 1.378 . S
C2216 C2220 1.350 . S
C2217 C2220 1.463 . S
C2217 C2222 1.350 . S
C2217 N2225 1.427 . S
C2218 H2209 0.930 . S
C2218 C2216 1.378 . S
C2218 C2219 1.367 . S
C2219 C2218 1.367 . S
C2219 C2221 1.433 . S
C2220 C2216 1.350 . S
C2220 C2217 1.463 . S
C2220 N2224 1.427 . S
C2221 H2211 0.929 . S
C2221 C2219 1.433 . S
C2221 N2224 1.384 . S
C2222 H2213 0.929 . S
C2222 C2214 1.378 . S
C2222 C2217 1.350 . S
C2223 H2210 0.929 . S
C2223 C2215 1.433 . S
C2223 N2225 1.384 . S
N2224 C2220 1.427 . S
N2224 C2221 1.384 . S
N2225 C2217 1.427 . S
N2225 C2223 1.384 . S
H2226 C2232 0.930 . S
H2227 C2236 0.930 . S
H2228 C2241 0.929 . S
H2229 C2239 0.929 . S
H2230 C2234 0.929 . S
H2231 C2240 0.929 . S
C2232 H2226 0.930 . S
C2232 C2233 1.367 . S
C2232 C2240 1.378 . S
C2233 C2232 1.367 . S
C2233 C2241 1.433 . S
C2234 H2230 0.929 . S
C2234 C2236 1.378 . S
C2234 C2238 1.350 . S
C2235 C2238 1.463 . S
C2235 C2240 1.350 . S
C2235 N2243 1.427 . S
C2236 H2227 0.930 . S
C2236 C2234 1.378 . S
C2236 C2237 1.367 . S
C2237 C2236 1.367 . S
C2237 C2239 1.433 . S
C2238 C2234 1.350 . S
C2238 C2235 1.463 . S
C2238 N2242 1.427 . S
C2239 H2229 0.929 . S
C2239 C2237 1.433 . S
C2239 N2242 1.384 . S
C2240 H2231 0.929 . S
C2240 C2232 1.378 . S
C2240 C2235 1.350 . S
C2241 H2228 0.929 . S
C2241 C2233 1.433 . S
C2241 N2243 1.384 . S
N2242 C2238 1.427 . S
N2242 C2239 1.384 . S
N2243 C2235 1.427 . S
N2243 C2241 1.384 . S
H2244 C2250 0.930 . S
H2245 C2254 0.930 . S
H2246 C2259 0.929 . S
H2247 C2257 0.929 . S
H2248 C2252 0.929 . S
H2249 C2258 0.929 . S
C2250 H2244 0.930 . S
C2250 C2251 1.367 . S
C2250 C2258 1.378 . S
C2251 C2250 1.367 . S
C2251 C2259 1.433 . S
C2252 H2248 0.929 . S
C2252 C2254 1.378 . S
C2252 C2256 1.350 . S
C2253 C2256 1.463 . S
C2253 C2258 1.350 . S
C2253 N2261 1.427 . S
C2254 H2245 0.930 . S
C2254 C2252 1.378 . S
C2254 C2255 1.367 . S
C2255 C2254 1.367 . S
C2255 C2257 1.433 . S
C2256 C2252 1.350 . S
C2256 C2253 1.463 . S
C2256 N2260 1.427 . S
C2257 H2247 0.929 . S
C2257 C2255 1.433 . S
C2257 N2260 1.384 . S
C2258 H2249 0.929 . S
C2258 C2250 1.378 . S
C2258 C2253 1.350 . S
C2259 H2246 0.929 . S
C2259 C2251 1.433 . S
C2259 N2261 1.384 . S
N2260 C2256 1.427 . S
N2260 C2257 1.384 . S
N2261 C2253 1.427 . S
N2261 C2259 1.384 . S
H2262 C2268 0.930 . S
H2263 C2272 0.930 . S
H2264 C2277 0.929 . S
H2265 C2275 0.929 . S
H2266 C2270 0.929 . S
H2267 C2276 0.929 . S
C2268 H2262 0.930 . S
C2268 C2269 1.367 . S
C2268 C2276 1.378 . S
C2269 C2268 1.367 . S
C2269 C2277 1.433 . S
C2270 H2266 0.929 . S
C2270 C2272 1.378 . S
C2270 C2274 1.350 . S
C2271 C2274 1.463 . S
C2271 C2276 1.350 . S
C2271 N2279 1.427 . S
C2272 H2263 0.930 . S
C2272 C2270 1.378 . S
C2272 C2273 1.367 . S
C2273 C2272 1.367 . S
C2273 C2275 1.433 . S
C2274 C2270 1.350 . S
C2274 C2271 1.463 . S
C2274 N2278 1.427 . S
C2275 H2265 0.929 . S
C2275 C2273 1.433 . S
C2275 N2278 1.384 . S
C2276 H2267 0.929 . S
C2276 C2268 1.378 . S
C2276 C2271 1.350 . S
C2277 H2264 0.929 . S
C2277 C2269 1.433 . S
C2277 N2279 1.384 . S
N2278 C2274 1.427 . S
N2278 C2275 1.384 . S
N2279 C2271 1.427 . S
N2279 C2277 1.384 . S
H2280 C2286 0.930 . S
H2281 C2290 0.930 . S
H2282 C2295 0.929 . S
H2283 C2293 0.929 . S
H2284 C2288 0.929 . S
H2285 C2294 0.929 . S
C2286 H2280 0.930 . S
C2286 C2287 1.367 . S
C2286 C2294 1.378 . S
C2287 C2286 1.367 . S
C2287 C2295 1.433 . S
C2288 H2284 0.929 . S
C2288 C2290 1.378 . S
C2288 C2292 1.350 . S
C2289 C2292 1.463 . S
C2289 C2294 1.350 . S
C2289 N2297 1.427 . S
C2290 H2281 0.930 . S
C2290 C2288 1.378 . S
C2290 C2291 1.367 . S
C2291 C2290 1.367 . S
C2291 C2293 1.433 . S
C2292 C2288 1.350 . S
C2292 C2289 1.463 . S
C2292 N2296 1.427 . S
C2293 H2283 0.929 . S
C2293 C2291 1.433 . S
C2293 N2296 1.384 . S
C2294 H2285 0.929 . S
C2294 C2286 1.378 . S
C2294 C2289 1.350 . S
C2295 H2282 0.929 . S
C2295 C2287 1.433 . S
C2295 N2297 1.384 . S
N2296 C2292 1.427 . S
N2296 C2293 1.384 . S
N2297 C2289 1.427 . S
N2297 C2295 1.384 . S
H2298 C2304 0.930 . S
H2299 C2308 0.930 . S
H2300 C2313 0.929 . S
H2301 C2311 0.929 . S
H2302 C2306 0.929 . S
H2303 C2312 0.929 . S
C2304 H2298 0.930 . S
C2304 C2305 1.367 . S
C2304 C2312 1.378 . S
C2305 C2304 1.367 . S
C2305 C2313 1.433 . S
C2306 H2302 0.929 . S
C2306 C2308 1.378 . S
C2306 C2310 1.350 . S
C2307 C2310 1.463 . S
C2307 C2312 1.350 . S
C2307 N2315 1.427 . S
C2308 H2299 0.930 . S
C2308 C2306 1.378 . S
C2308 C2309 1.367 . S
C2309 C2308 1.367 . S
C2309 C2311 1.433 . S
C2310 C2306 1.350 . S
C2310 C2307 1.463 . S
C2310 N2314 1.427 . S
C2311 H2301 0.929 . S
C2311 C2309 1.433 . S
C2311 N2314 1.384 . S
C2312 H2303 0.929 . S
C2312 C2304 1.378 . S
C2312 C2307 1.350 . S
C2313 H2300 0.929 . S
C2313 C2305 1.433 . S
C2313 N2315 1.384 . S
N2314 C2310 1.427 . S
N2314 C2311 1.384 . S
N2315 C2307 1.427 . S
N2315 C2313 1.384 . S
H2316 C2322 0.930 . S
H2317 C2326 0.930 . S
H2318 C2331 0.929 . S
H2319 C2329 0.929 . S
H2320 C2324 0.929 . S
H2321 C2330 0.929 . S
C2322 H2316 0.930 . S
C2322 C2323 1.367 . S
C2322 C2330 1.378 . S
C2323 C2322 1.367 . S
C2323 C2331 1.433 . S
C2324 H2320 0.929 . S
C2324 C2326 1.378 . S
C2324 C2328 1.350 . S
C2325 C2328 1.463 . S
C2325 C2330 1.350 . S
C2325 N2333 1.427 . S
C2326 H2317 0.930 . S
C2326 C2324 1.378 . S
C2326 C2327 1.367 . S
C2327 C2326 1.367 . S
C2327 C2329 1.433 . S
C2328 C2324 1.350 . S
C2328 C2325 1.463 . S
C2328 N2332 1.427 . S
C2329 H2319 0.929 . S
C2329 C2327 1.433 . S
C2329 N2332 1.384 . S
C2330 H2321 0.929 . S
C2330 C2322 1.378 . S
C2330 C2325 1.350 . S
C2331 H2318 0.929 . S
C2331 C2323 1.433 . S
C2331 N2333 1.384 . S
N2332 C2328 1.427 . S
N2332 C2329 1.384 . S
N2333 C2325 1.427 . S
N2333 C2331 1.384 . S
H2334 C2340 0.930 . S
H2335 C2344 0.930 . S
H2336 C2349 0.929 . S
H2337 C2347 0.929 . S
H2338 C2342 0.929 . S
H2339 C2348 0.929 . S
C2340 H2334 0.930 . S
C2340 C2341 1.367 . S
C2340 C2348 1.378 . S
C2341 C2340 1.367 . S
C2341 C2349 1.433 . S
C2342 H2338 0.929 . S
C2342 C2344 1.378 . S
C2342 C2346 1.350 . S
C2343 C2346 1.463 . S
C2343 C2348 1.350 . S
C2343 N2351 1.427 . S
C2344 H2335 0.930 . S
C2344 C2342 1.378 . S
C2344 C2345 1.367 . S
C2345 C2344 1.367 . S
C2345 C2347 1.433 . S
C2346 C2342 1.350 . S
C2346 C2343 1.463 . S
C2346 N2350 1.427 . S
C2347 H2337 0.929 . S
C2347 C2345 1.433 . S
C2347 N2350 1.384 . S
C2348 H2339 0.929 . S
C2348 C2340 1.378 . S
C2348 C2343 1.350 . S
C2349 H2336 0.929 . S
C2349 C2341 1.433 . S
C2349 N2351 1.384 . S
N2350 C2346 1.427 . S
N2350 C2347 1.384 . S
N2351 C2343 1.427 . S
N2351 C2349 1.384 . S
C631 C127 2.009 . S
C635 C10 2.009 . S
C649 C134 2.002 . S
C653 C23 2.003 . S
C667 C147 2.009 . S
C671 C36 2.009 . S
C685 C108 2.002 . S
C689 C43 2.002 . S
C703 C56 2.009 . S
C707 C205 2.009 . S
C721 C75 2.003 . S
C725 C166 2.005 . S
C739 C82 2.002 . S
C743 C179 2.002 . S
C757 C192 2.009 . S
C761 C101 2.008 . S
C775 C212 2.007 . S
C779 C238 2.008 . S
C793 C225 2.002 . S
C797 C602 2.004 . S
C811 C251 2.002 . S
C815 C615 2.003 . S
C829 C264 2.002 . S
C833 C589 2.003 . S
C847 C283 2.007 . S
C851 C582 2.005 . S
C865 C537 2.002 . S
C869 C290 2.004 . S
C883 C309 2.007 . S
C887 C563 2.004 . S
C901 C439 2.007 . S
C905 C316 2.004 . S
C919 C446 2.009 . S
C923 C329 2.008 . S
C937 C465 2.002 . S
C941 C348 2.004 . S
C955 C426 2.009 . S
C959 C355 2.009 . S
C973 C517 2.009 . S
C977 C368 2.007 . S
C991 C472 2.009 . S
C995 C381 2.008 . S
C1009 C400 2.008 . S
C1013 C491 2.009 . S
C1027 C407 2.005 . S
C1031 C498 2.007 . S
C1045 C524 2.010 . S
C1049 C556 2.009 . S
C1063 C211 0.919 . S
C1067 C3 0.901 . S
C1081 C614 0.913 1_565 S
C1085 C16 0.915 . S
C1099 C29 0.916 . S
C1103 C278 0.920 . S
C1117 C601 0.891 1_545 S
C1121 C44 0.893 . S
C1135 C57 0.916 . S
C1139 C536 0.922 . S
C1153 C551 0.912 1_565 S
C1157 C68 0.916 . S
C1171 C83 0.890 . S
C1175 C562 0.903 . S
C1189 C263 0.912 1_545 S
C1193 C94 0.907 . S
C1207 C109 0.913 . S
C1211 C5 0.911 . S
C1225 C18 0.895 1_455 S
C1229 C120 0.905 . S
C1243 C135 0.905 . S
C1247 C31 0.921 . S
C1261 C42 0.923 . S
C1265 C148 0.908 . S
C1279 C159 0.911 . S
C1283 C55 0.923 . S
C1297 C70 0.906 . S
C1301 C172 0.908 . S
C1315 C185 0.911 . S
C1319 C81 0.923 . S
C1333 C198 0.910 . S
C1337 C96 0.913 1_455 S
C1351 C213 0.908 . S
C1355 C107 0.923 . S
C1369 C226 0.898 . S
C1373 C471 0.917 . S
C1387 C486 0.913 1_554 S
C1391 C239 0.915 . S
C1405 C497 0.921 . S
C1409 C252 0.916 . S
C1423 C200 0.903 1_554 S
C1427 C265 0.914 . S
C1441 C276 0.893 . S
C1445 C133 0.900 . S
C1459 C460 0.923 . S
C1463 C291 0.908 . S
C1477 C302 0.891 . S
C1481 C434 0.891 1_556 S
C1495 C317 0.910 . S
C1499 C523 0.923 . S
C1513 C330 0.907 . S
C1517 C304 0.905 . S
C1531 C341 0.894 . S
C1535 C588 0.914 . S
C1549 C356 0.906 . S
C1553 C289 0.904 . S
C1567 C369 0.916 . S
C1571 C224 0.921 . S
C1585 C382 0.912 . S
C1589 C237 0.909 . S
C1603 C250 0.904 . S
C1607 C393 0.889 . S
C1621 C577 0.922 . S
C1625 C408 0.915 . S
C1639 C315 0.906 . S
C1643 C419 0.908 . S
C1657 C328 0.901 . S
C1661 C432 0.891 . S
C1675 C447 0.904 . S
C1679 C343 0.903 . S
C1693 C354 0.901 1_655 S
C1697 C458 0.892 . S
C1711 C473 0.900 . S
C1715 C367 0.901 . S
C1729 C484 0.915 . S
C1733 C380 0.913 1_655 S
C1747 C499 0.890 . S
C1751 C395 0.907 . S
C1765 C406 0.919 . S
C1769 C510 0.917 . S
C1783 C525 0.907 . S
C1787 C421 0.905 . S
C1801 C538 0.906 . S
C1805 C161 0.904 . S
C1819 C174 0.907 . S
C1823 C549 0.910 . S
C1837 C564 0.909 . S
C1841 C187 0.906 . S
C1855 C575 0.910 . S
C1859 C512 0.908 . S
C1873 C445 0.904 . S
C1877 C590 0.889 . S
C1891 C146 0.908 1_556 S
C1895 C603 0.899 . S
C1909 C122 0.922 . S
C1913 C616 0.916 . S
C1927 C296 1.303 . S
C1931 C4 1.302 . S
C1945 C17 1.302 . S
C1949 C530 1.303 . S
C1963 C30 1.302 . S
C1967 C303 1.305 . S
C1981 C595 1.310 . S
C1985 C49 1.305 . S
C1999 C62 1.305 . S
C2003 C244 1.310 . S
C2017 C257 1.303 . S
C2021 C69 1.307 . S
C2035 C576 1.302 . S
C2039 C88 1.306 . S
C2053 C95 1.303 . S
C2057 C231 1.302 . S
C2071 C173 1.302 . S
C2075 C114 1.303 . S
C2089 C121 1.310 . S
C2093 C186 1.313 . S
C2107 C199 1.311 . S
C2111 C140 1.306 . S
C2125 C153 1.304 . S
C2129 C160 1.309 . S
C2143 C335 1.309 . S
C2147 C218 1.313 . S
C2161 C270 1.313 . S
C2165 C394 1.312 . S
C2179 C277 1.313 . S
C2183 C361 1.309 . S
C2197 C608 1.303 . S
C2201 C322 1.302 . S
C2215 C342 1.303 . S
C2219 C621 1.307 . S
C2233 C374 1.305 . S
C2237 C550 1.310 . S
C2251 C387 1.302 . S
C2255 C569 1.303 . S
C2269 C543 1.303 . S
C2273 C413 1.302 . S
C2287 C485 1.311 . S
C2291 C420 1.306 . S
C2305 C433 1.305 . S
C2309 C504 1.310 . S
C2323 C452 1.308 . S
C2327 C511 1.313 . S
C2341 C478 1.313 . S
C2345 C459 1.311 . S
