# Generated by pormake.
# Topology smc, (6)-cn, num edge types: 1
# Building blocks:
#     Node 0, Type 0, BuildingBlock: KUMJIN_clean_sbu_0, # of connection points: 6
#     Node 1, Type 0, BuildingBlock: KUMJIN_clean_sbu_0, # of connection points: 6
#     Node 2, Type 0, BuildingBlock: KUMJIN_clean_sbu_0, # of connection points: 6
#     Node 3, Type 0, BuildingBlock: KUMJIN_clean_sbu_0, # of connection points: 6
#     Node 4, Type 0, BuildingBlock: KUMJIN_clean_sbu_0, # of connection points: 6
#     Node 5, Type 0, BuildingBlock: KUMJIN_clean_sbu_0, # of connection points: 6
#     Node 6, Type 0, BuildingBlock: KUMJIN_clean_sbu_0, # of connection points: 6
#     Node 7, Type 0, BuildingBlock: KUMJIN_clean_sbu_0, # of connection points: 6
#     Node 8, Type 0, BuildingBlock: KUMJIN_clean_sbu_0, # of connection points: 6
#     Edge 9, Type (0, 0), BuildingBlock: XUDNAN_clean_linker_2, # of connection points: 2
#     Edge 10, Type (0, 0), BuildingBlock: XUDNAN_clean_linker_2, # of connection points: 2
#     Edge 11, Type (0, 0), BuildingBlock: XUDNAN_clean_linker_2, # of connection points: 2
#     Edge 12, Type (0, 0), BuildingBlock: XUDNAN_clean_linker_2, # of connection points: 2
#     Edge 13, Type (0, 0), BuildingBlock: XUDNAN_clean_linker_2, # of connection points: 2
#     Edge 14, Type (0, 0), BuildingBlock: XUDNAN_clean_linker_2, # of connection points: 2
#     Edge 15, Type (0, 0), BuildingBlock: XUDNAN_clean_linker_2, # of connection points: 2
#     Edge 16, Type (0, 0), BuildingBlock: XUDNAN_clean_linker_2, # of connection points: 2
#     Edge 17, Type (0, 0), BuildingBlock: XUDNAN_clean_linker_2, # of connection points: 2
#     Edge 18, Type (0, 0), BuildingBlock: XUDNAN_clean_linker_2, # of connection points: 2
#     Edge 19, Type (0, 0), BuildingBlock: XUDNAN_clean_linker_2, # of connection points: 2
#     Edge 20, Type (0, 0), BuildingBlock: XUDNAN_clean_linker_2, # of connection points: 2
#     Edge 21, Type (0, 0), BuildingBlock: XUDNAN_clean_linker_2, # of connection points: 2
#     Edge 22, Type (0, 0), BuildingBlock: XUDNAN_clean_linker_2, # of connection points: 2
#     Edge 23, Type (0, 0), BuildingBlock: XUDNAN_clean_linker_2, # of connection points: 2
#     Edge 24, Type (0, 0), BuildingBlock: XUDNAN_clean_linker_2, # of connection points: 2
#     Edge 25, Type (0, 0), BuildingBlock: XUDNAN_clean_linker_2, # of connection points: 2
#     Edge 26, Type (0, 0), BuildingBlock: XUDNAN_clean_linker_2, # of connection points: 2
#     Edge 27, Type (0, 0), BuildingBlock: XUDNAN_clean_linker_2, # of connection points: 2
#     Edge 28, Type (0, 0), BuildingBlock: XUDNAN_clean_linker_2, # of connection points: 2
#     Edge 29, Type (0, 0), BuildingBlock: XUDNAN_clean_linker_2, # of connection points: 2
#     Edge 30, Type (0, 0), BuildingBlock: XUDNAN_clean_linker_2, # of connection points: 2
#     Edge 31, Type (0, 0), BuildingBlock: XUDNAN_clean_linker_2, # of connection points: 2
#     Edge 32, Type (0, 0), BuildingBlock: XUDNAN_clean_linker_2, # of connection points: 2
#     Edge 33, Type (0, 0), BuildingBlock: XUDNAN_clean_linker_2, # of connection points: 2
#     Edge 34, Type (0, 0), BuildingBlock: XUDNAN_clean_linker_2, # of connection points: 2
#     Edge 35, Type (0, 0), BuildingBlock: XUDNAN_clean_linker_2, # of connection points: 2
# Relax obj value: 0.110
# Max RMSD: 0.288
# Mean RMSD: 0.288
data_MOF--net-smc--node1-KUMJIN_clean_sbu_0--edge1-XUDNAN_clean_linker_2
_symmetry_space_group_name_H-M    P1
_symmetry_Int_Tables_number       1
_symmetry_cell_setting            triclinic
loop_
_symmetry_equiv_pos_as_xyz
'x, y, z'
_cell_length_a     37.975456
_cell_length_b     38.001195
_cell_length_c     40.70098
_cell_angle_alpha  90.086294
_cell_angle_beta   89.844663
_cell_angle_gamma 120.02379
loop_
_atom_site_label
_atom_site_type_symbol
_atom_site_fract_x
_atom_site_fract_y
_atom_site_fract_z
_atom_type_partial_charge
Eu0 Eu 0.05652 0.50365 0.98883 0.0
C1 C 1.01368 0.34321 0.06322 0.0
C2 C 0.06067 0.32546 0.03828 0.0
C3 C 0.03452 0.30135 0.09317 0.0
C4 C 0.03798 0.34561 0.03699 0.0
C5 C 1.01012 0.31936 0.09088 0.0
C6 C 0.06008 0.30472 0.06701 0.0
C7 C 0.95569 0.32947 0.11042 0.0
N8 N 0.99047 0.36095 0.06028 0.0
C9 C 0.96106 0.35375 0.08301 0.0
C10 C 0.98055 0.31248 0.11453 0.0
Eu11 Eu 0.99713 0.397 0.01119 0.0
N12 N 0.03613 0.36402 0.00903 0.0
C13 C 0.05261 0.35952 0.98059 0.0
C14 C 0.08129 0.32466 0.01001 0.0
C15 C 0.07648 0.341 0.98083 0.0
H16 H 0.9411 0.36601 0.07972 0.0
H17 H 0.09073 0.33892 0.95841 0.0
H18 H 0.07764 0.28944 0.06857 0.0
H19 H 0.9323 0.32377 0.12833 0.0
H20 H 0.04809 0.37083 0.95763 0.0
H21 H 0.02601 0.55883 0.10476 0.0
H22 H 0.0992 0.30968 0.01002 0.0
H23 H 0.04131 0.52332 0.91057 0.0
H24 H 0.0446 0.5178 0.07128 0.0
H25 H 1.02048 0.5665 0.88172 0.0
H26 H 0.03274 0.28352 0.11452 0.0
H27 H 1.00458 0.60361 0.07866 0.0
H28 H 0.99214 0.63164 0.0276 0.0
H29 H 0.97619 0.29353 0.13576 0.0
H30 H 0.99184 0.63462 0.96744 0.0
N31 N 0.03354 0.53737 0.0252 0.0
C32 C 0.03537 0.53652 0.05877 0.0
C33 C 1.01258 0.58522 0.06345 0.0
C34 C 1.01112 0.58657 0.02922 0.0
C35 C 0.02471 0.56006 0.07824 0.0
C36 C 1.02155 0.56177 0.01039 0.0
H37 H 1.00164 0.61021 0.9132 0.0
N38 N 0.02915 0.53772 0.95849 0.0
C39 C 1.01954 0.56519 0.90828 0.0
C40 C 1.01975 0.56225 0.97627 0.0
C41 C 0.03018 0.53974 0.92488 0.0
C42 C 1.00934 0.59007 0.92613 0.0
C43 C 1.0095 0.589 0.96046 0.0
O44 O 0.1097 0.54043 0.95823 0.0
O45 O 0.06161 0.44849 0.99886 0.0
O46 O 0.02928 0.42544 0.05805 0.0
O47 O 0.07723 0.4909 0.03989 0.0
O48 O 0.08793 0.48072 0.95572 0.0
O49 O 0.10575 0.56367 0.00553 0.0
O50 O 0.93052 0.36611 0.00777 0.0
O51 O 0.99442 0.45324 0.99877 0.0
O52 O 1.01293 0.46638 0.94605 0.0
O53 O 1.00611 0.40355 0.95655 0.0
O54 O 0.96244 0.42137 0.03998 0.0
O55 O 0.96216 0.33814 0.98641 0.0
C56 C 0.08446 0.45177 0.97451 0.0
C57 C 0.13813 0.6122 0.96198 0.0
C58 C 0.17723 0.68721 0.96126 0.0
C59 C 0.1649 0.64974 0.97764 0.0
C60 C 0.16002 0.68628 0.93045 0.0
C61 C 0.12502 0.61318 0.92988 0.0
C62 C 0.13464 0.64969 0.91484 0.0
C63 C 0.06166 0.4614 0.06282 0.0
C64 C 0.1254 0.57197 0.97767 0.0
C65 C 0.99991 0.61409 0.97923 0.0
C66 C 1.00009 0.6124 0.01348 0.0
C67 C 0.97108 0.45206 0.02141 0.0
C68 C 0.89647 0.29451 0.00911 0.0
C69 C 0.85445 0.2788 1.00391 0.0
C70 C 0.82538 0.24291 0.02001 0.0
C71 C 0.839 0.22312 0.04126 0.0
C72 C 0.90908 0.2734 0.02982 0.0
C73 C 0.88051 0.23817 0.04593 0.0
C74 C 1.00208 0.42861 0.93677 0.0
C75 C 0.92679 0.33362 0.99403 0.0
H76 H 0.17722 0.64969 1.00159 0.0
H77 H 0.16726 0.71415 0.91776 0.0
H78 H 0.10772 0.58569 0.91588 0.0
H79 H 0.12316 0.64963 0.89051 0.0
H80 H 0.84441 0.2947 0.98777 0.0
H81 H 0.81748 0.19536 0.0537 0.0
H82 H 0.94102 0.28419 0.03373 0.0
H83 H 0.89061 0.22234 0.06203 0.0
Eu84 Eu 0.54521 0.55676 0.99681 0.0
C85 C 0.717 0.67735 0.05903 0.0
C86 C 0.73705 0.74109 0.03153 0.0
C87 C 0.76387 0.74119 0.0857 0.0
C88 C 0.71455 0.69822 0.03222 0.0
C89 C 0.74248 0.69852 0.08573 0.0
C90 C 0.76102 0.76245 0.0587 0.0
C91 C 0.7255 0.63374 0.10963 0.0
N92 N 0.69568 0.63616 0.05842 0.0
C93 C 0.70005 0.61412 0.08292 0.0
C94 C 0.74655 0.67613 0.11119 0.0
Eu95 Eu 0.65535 0.60472 0.01151 0.0
N96 N 0.69183 0.67659 0.00611 0.0
C97 C 0.69248 0.69602 0.97771 0.0
C98 C 0.73575 0.76115 1.00318 0.0
C99 C 0.71374 0.73847 0.97601 0.0
H100 H 0.68383 0.58134 0.08193 0.0
H101 H 0.71328 0.75362 0.95365 0.0
H102 H 0.7783 0.79537 0.0587 0.0
H103 H 0.72876 0.61615 0.12904 0.0
H104 H 0.67611 0.67911 0.95631 0.0
H105 H 0.51582 0.47765 0.11572 0.0
H106 H 0.75248 0.79403 1.0017 0.0
H107 H 0.51376 0.51635 0.92096 0.0
H108 H 0.55077 0.53488 0.07859 0.0
H109 H 0.47215 0.44938 0.89556 0.0
H110 H 0.78329 0.75801 0.10614 0.0
H111 H 0.46604 0.41007 0.09431 0.0
H112 H 0.43297 0.36509 0.04588 0.0
H113 H 0.76617 0.69125 0.13197 0.0
H114 H 0.4233 0.35694 0.98619 0.0
N115 N 0.52084 0.50177 0.0352 0.0
C116 C 0.52907 0.50634 0.06817 0.0
C117 C 0.48144 0.43538 0.07747 0.0
C118 C 0.47453 0.43009 0.04367 0.0
C119 C 0.50939 0.47349 0.08967 0.0
C120 C 0.4946 0.4643 0.02285 0.0
H121 H 0.43843 0.38783 0.93018 0.0
N122 N 0.50801 0.49307 0.96963 0.0
C123 C 0.47688 0.45176 0.92187 0.0
C124 C 0.48851 0.45976 0.98917 0.0
C125 C 0.50134 0.48967 0.93641 0.0
C126 C 0.45771 0.41716 0.9415 0.0
C127 C 0.46288 0.42088 0.97556 0.0
O128 O 0.48803 0.54545 0.97326 0.0
O129 O 0.60246 0.61617 1.00222 0.0
O130 O 0.63148 0.61586 0.05859 0.0
O131 O 0.56236 0.59147 0.0471 0.0
O132 O 0.56429 0.61041 0.96351 0.0
O133 O 0.50376 0.57272 0.02109 0.0
O134 O 0.69333 0.57604 0.01411 0.0
O135 O 0.59753 0.54711 1.00184 0.0
O136 O 0.57716 0.5563 0.9477 0.0
O137 O 0.64438 0.60602 0.95767 0.0
O138 O 0.63431 0.54359 0.03694 0.0
O139 O 0.70083 0.61623 0.97382 0.0
C140 C 0.59647 0.63591 0.97969 0.0
C141 C 0.43386 0.52567 0.01216 0.0
C142 C 0.35893 0.49239 0.01188 0.0
C143 C 0.39732 0.51973 0.99756 0.0
C144 C 0.35786 0.47033 0.03993 0.0
C145 C 0.43109 0.50357 0.04067 0.0
C146 C 0.39357 0.47586 0.05408 0.0
C147 C 0.59529 0.61029 0.06645 0.0
C148 C 0.47505 0.55566 0.9992 0.0
C149 C 0.44307 0.38694 0.99624 0.0
C150 C 0.44857 0.39159 0.03022 0.0
C151 C 0.60127 0.52296 0.02055 0.0
C152 C 0.75707 0.60583 0.98503 0.0
C153 C 0.77088 0.57928 0.9955 0.0
C154 C 0.81114 0.58839 0.98893 0.0
C155 C 0.83751 0.62445 0.97223 0.0
C156 C 0.78446 0.642 0.96876 0.0
C157 C 0.82432 0.65116 0.96251 0.0
C158 C 0.61564 0.5802 0.93787 0.0
C159 C 0.71322 0.59319 0.98727 0.0
H160 H 0.3988 0.537 0.97593 0.0
H161 H 0.32914 0.44863 0.05109 0.0
H162 H 0.45806 0.50811 0.05315 0.0
H163 H 0.39219 0.45894 0.07589 0.0
H164 H 0.75014 0.5511 0.00784 0.0
H165 H 0.8686 0.63222 0.96713 0.0
H166 H 0.77491 0.66289 0.96019 0.0
H167 H 0.84502 0.67895 0.94975 0.0
Eu168 Eu 0.48908 0.98952 0.99646 0.0
C169 C 0.37816 0.0376 0.07621 0.0
C170 C 0.31157 0.99382 0.05279 0.0
C171 C 0.31738 0.0196 0.10836 0.0
C172 C 0.35437 1.01453 0.0502 0.0
C173 C 0.35987 0.04181 0.10501 0.0
C174 C 0.29327 0.99537 0.08239 0.0
C175 C 0.42667 0.09232 0.12384 0.0
N176 N 0.41917 0.0587 0.07227 0.0
C177 C 0.4435 0.08651 0.09521 0.0
C178 C 0.38471 0.06971 0.12886 0.0
Eu179 Eu 0.44496 0.05151 0.02137 0.0
N180 N 0.37293 1.01517 0.02147 0.0
C181 C 0.35047 0.99874 0.99371 0.0
C182 C 0.28842 0.97388 0.02506 0.0
C183 C 0.30798 0.97697 0.99523 0.0
H184 H 0.47588 0.10465 0.09127 0.0
H185 H 0.29037 0.96292 0.97333 0.0
H186 H 0.26046 0.97938 0.08492 0.0
H187 H 0.44604 0.11436 0.14196 0.0
H188 H 0.36513 1.00172 0.97032 0.0
H189 H 0.57576 0.02096 0.11145 0.0
H190 H 0.25549 0.9575 0.02607 0.0
H191 H 0.52408 1.00581 0.91769 0.0
H192 H 0.51529 0.99948 0.07836 0.0
H193 H 0.58929 0.03521 0.88851 0.0
H194 H 0.30282 0.02196 0.13053 0.0
H195 H 0.64267 0.04704 0.0849 0.0
H196 H 0.68421 0.06642 0.03355 0.0
H197 H 0.37173 0.0745 0.15099 0.0
H198 H 0.68815 0.07226 0.97352 0.0
N199 N 0.54628 1.01381 0.03222 0.0
C200 C 0.54367 1.01118 0.06575 0.0
C201 C 0.61598 0.03801 0.06987 0.0
C202 C 0.61889 0.04117 0.03567 0.0
C203 C 0.57828 0.0233 0.08494 0.0
C204 C 0.58308 0.02849 0.01713 0.0
H205 H 0.65332 0.06143 0.91959 0.0
N206 N 0.55062 0.01921 0.96555 0.0
C207 C 0.58874 0.03495 0.91509 0.0
C208 C 0.5853 0.03148 0.98305 0.0
C209 C 0.55182 0.01911 0.93191 0.0
C210 C 0.62473 0.04944 0.93271 0.0
C211 C 0.62334 0.04725 0.967 0.0
O212 O 0.47281 0.93685 0.96528 0.0
O213 O 0.43041 0.98691 0.00855 0.0
O214 O 0.44108 0.0174 0.06751 0.0
O215 O 0.45486 0.96751 0.04746 0.0
O216 O 0.43299 0.95853 0.96557 0.0
O217 O 0.50123 0.94073 0.01182 0.0
O218 O 0.48087 0.11798 0.01888 0.0
O219 O 0.5014 0.05173 0.00572 0.0
O220 O 0.49239 0.03093 0.95314 0.0
O221 O 0.43972 0.04262 0.96642 0.0
O222 O 0.50748 0.08783 0.04547 0.0
O223 O 0.42141 0.08707 0.99712 0.0
C224 C 0.40901 0.96358 0.98521 0.0
C225 C 0.51663 0.90873 0.96727 0.0
C226 C 0.55106 0.86819 0.96397 0.0
C227 C 0.52677 0.88076 0.98159 0.0
C228 C 0.56686 0.88598 0.93318 0.0
C229 C 0.53084 0.92308 0.93537 0.0
C230 C 0.55659 0.91283 0.91902 0.0
C231 C 0.44205 0.98338 0.07114 0.0
C232 C 0.48934 0.92123 0.98398 0.0
C233 C 0.6588 0.06003 0.98548 0.0
C234 C 0.65655 0.05673 0.01967 0.0
C235 C 0.5268 0.07687 0.0257 0.0
C236 C 0.44465 0.15321 0.01919 0.0
C237 C 0.46981 0.19461 0.01111 0.0
C238 C 0.46457 0.22479 0.02688 0.0
C239 C 0.43379 0.21299 0.05065 0.0
C240 C 0.41352 0.14223 0.04245 0.0
C241 C 0.4083 0.17198 0.05815 0.0
C242 C 0.46667 0.04385 0.9453 0.0
C243 C 0.45264 0.12218 1.00468 0.0
H244 H 0.51458 0.86775 0.00546 0.0
H245 H 0.58656 0.87824 0.91948 0.0
H246 H 0.52141 0.94168 0.92245 0.0
H247 H 0.56785 0.925 0.89477 0.0
H248 H 0.49384 0.20337 0.99307 0.0
H249 H 0.42894 0.23551 0.06297 0.0
H250 H 0.39336 0.11071 0.04865 0.0
H251 H 0.38438 0.1632 0.07622 0.0
Eu252 Eu 0.73189 0.8398 0.32395 0.0
C253 C 0.68106 0.6835 0.40734 0.0
C254 C 0.72477 0.65954 0.38567 0.0
C255 C 0.69913 0.64252 0.44155 0.0
C256 C 0.70437 0.68176 0.38192 0.0
C257 C 0.67688 0.66253 0.43695 0.0
C258 C 0.72323 0.64122 0.416 0.0
C259 C 0.62624 0.6795 0.45412 0.0
N260 N 0.65982 0.70297 0.40208 0.0
C261 C 0.63179 0.70034 0.42457 0.0
C262 C 0.649 0.66064 0.46039 0.0
Eu263 Eu 0.66816 0.7345 0.35019 0.0
N264 N 0.70392 0.69844 0.35257 0.0
C265 C 0.71964 0.6905 0.32529 0.0
C266 C 0.74416 0.65447 0.35831 0.0
C267 C 0.74074 0.66919 0.32781 0.0
H268 H 0.61328 0.7139 0.41969 0.0
H269 H 0.75397 0.66379 0.30616 0.0
H270 H 0.73908 0.62442 0.41944 0.0
H271 H 0.60414 0.67765 0.4719 0.0
H272 H 0.71589 0.70053 0.30145 0.0
H273 H 0.70738 0.90123 0.43879 0.0
H274 H 0.7601 0.63756 0.36013 0.0
H275 H 0.71448 0.85736 0.24531 0.0
H276 H 0.72728 0.86086 0.40563 0.0
H277 H 0.68501 0.89303 0.21632 0.0
H278 H 0.69679 0.62677 0.46434 0.0
H279 H 0.68005 0.9409 0.41245 0.0
H280 H 0.6585 0.96106 0.3614 0.0
H281 H 0.64423 0.64405 0.48314 0.0
H282 H 0.65097 0.9576 0.30148 0.0
N283 N 0.71019 0.87508 0.35976 0.0
C284 C 0.71469 0.87675 0.39317 0.0
C285 C 0.68828 0.92254 0.39743 0.0
C286 C 0.68369 0.921 0.36334 0.0
C287 C 0.70365 0.90017 0.41239 0.0
C288 C 0.69538 0.89702 0.34477 0.0
H289 H 0.66019 0.93211 0.24753 0.0
N290 N 0.70252 0.87191 0.29327 0.0
C291 C 0.68593 0.89339 0.2429 0.0
C292 C 0.69122 0.89517 0.31078 0.0
C293 C 0.70179 0.87237 0.25962 0.0
C294 C 0.67223 0.9156 0.26058 0.0
C295 C 0.67534 0.91727 0.29482 0.0
O296 O 0.78417 0.87566 0.29211 0.0
O297 O 0.73328 0.78331 0.33589 0.0
O298 O 0.70132 0.76526 0.3962 0.0
O299 O 0.7533 0.82663 0.37468 0.0
O300 O 0.76037 0.81251 0.29223 0.0
O301 O 0.78253 0.89958 0.33964 0.0
O302 O 0.60193 0.70646 0.34552 0.0
O303 O 0.66936 0.79128 0.33433 0.0
O304 O 0.6895 0.80125 0.28135 0.0
O305 O 0.6767 0.73666 0.29524 0.0
O306 O 0.63462 0.7628 0.37526 0.0
O307 O 0.63109 0.67372 0.32888 0.0
C308 C 0.7559 0.78409 0.31221 0.0
C309 C 0.81361 0.94773 0.29561 0.0
C310 C 0.85399 0.02282 0.29389 0.0
C311 C 0.84186 0.98544 0.31046 0.0
C312 C 0.83561 0.02167 0.26363 0.0
C313 C 0.79852 0.9485 0.26426 0.0
C314 C 0.80848 0.98496 0.24895 0.0
C315 C 0.73656 0.79895 0.39892 0.0
C316 C 0.80105 0.90743 0.31129 0.0
C317 C 0.66336 0.94066 0.31335 0.0
C318 C 0.66766 0.94264 0.34747 0.0
C319 C 0.64574 0.79275 0.35527 0.0
C320 C 0.56399 0.63522 0.35078 0.0
C321 C 0.52268 0.6212 0.34358 0.0
C322 C 0.49139 0.58737 0.36038 0.0
C323 C 0.50223 0.56793 0.38439 0.0
C324 C 0.57375 0.61472 0.3745 0.0
C325 C 0.54304 0.58146 0.39125 0.0
C326 C 0.67626 0.76245 0.27385 0.0
C327 C 0.5965 0.67209 0.33446 0.0
H328 H 0.85529 0.98559 0.33394 0.0
H329 H 0.843 0.04947 0.25074 0.0
H330 H 0.7794 0.92083 0.251 0.0
H331 H 0.79576 0.98474 0.22513 0.0
H332 H 0.51494 0.63689 0.32527 0.0
H333 H 0.47911 0.54158 0.3974 0.0
H334 H 0.60509 0.62442 0.38021 0.0
H335 H 0.55093 0.56596 0.40957 0.0
Eu336 Eu 0.2143 0.89127 0.33069 0.0
C337 C 0.35892 0.02036 0.40264 0.0
C338 C 0.37251 0.07876 0.36961 0.0
C339 C 0.38484 0.08664 0.42838 0.0
C340 C 0.35831 0.03667 0.3724 0.0
C341 C 0.37366 0.04552 0.43071 0.0
C342 C 0.38422 0.10323 0.39788 0.0
C343 C 0.36964 0.98879 0.46051 0.0
N344 N 0.34792 0.98054 0.40423 0.0
C345 C 0.35478 0.96498 0.43226 0.0
C346 C 0.37811 0.02897 0.46002 0.0
Eu347 Eu 0.31879 0.9411 0.35606 0.0
N348 N 0.34725 1.01228 0.3454 0.0
C349 C 0.35434 0.02937 0.31473 0.0
C350 C 0.37651 0.09548 0.33835 0.0
C351 C 0.36858 0.0709 0.31081 0.0
H352 H 0.34714 0.93361 0.43321 0.0
H353 H 0.37299 0.08382 0.28644 0.0
H354 H 0.39448 0.1354 0.3962 0.0
H355 H 0.3744 0.97602 0.48264 0.0
H356 H 0.34816 1.01152 0.2928 0.0
H357 H 0.15456 0.80365 0.44501 0.0
H358 H 0.38736 0.12762 0.33518 0.0
H359 H 0.19468 0.85866 0.25245 0.0
H360 H 0.19274 0.86465 0.41218 0.0
H361 H 0.1554 0.79449 0.22225 0.0
H362 H 0.39541 0.10619 0.4498 0.0
H363 H 0.11716 0.73658 0.41815 0.0
H364 H 0.09484 0.69607 0.36652 0.0
H365 H 0.38933 0.0473 0.48205 0.0
H366 H 0.09383 0.69377 0.3063 0.0
N367 N 0.18098 0.83375 0.3662 0.0
C368 C 0.17838 0.83619 0.3996 0.0
C369 C 0.13486 0.76354 0.40335 0.0
C370 C 0.13593 0.7611 0.36916 0.0
C371 C 0.15595 0.80129 0.41859 0.0
C372 C 0.15966 0.79711 0.35089 0.0
H373 H 0.11662 0.72991 0.25259 0.0
N374 N 0.18303 0.83041 0.29957 0.0
C375 C 0.15698 0.79421 0.24879 0.0
C376 C 0.1604 0.79549 0.31678 0.0
C377 C 0.18002 0.83043 0.26605 0.0
C378 C 0.13495 0.75791 0.26601 0.0
C379 C 0.13591 0.75826 0.30036 0.0
O380 O 0.17173 0.89663 0.29786 0.0
O381 O 0.26688 0.95253 0.34202 0.0
O382 O 0.28315 0.92971 0.40266 0.0
O383 O 0.22564 0.92645 0.3807 0.0
O384 O 0.23664 0.94632 0.29822 0.0
O385 O 0.15582 0.88132 0.34919 0.0
O386 O 0.34846 0.91084 0.33202 0.0
O387 O 0.2651 0.88057 0.34232 0.0
O388 O 0.25344 0.88806 0.28809 0.0
O389 O 0.31699 0.94256 0.30075 0.0
O390 O 0.29211 0.88363 0.38708 0.0
O391 O 0.38281 0.95963 0.36521 0.0
C392 C 0.26347 0.97245 0.31814 0.0
C393 C 0.11773 0.90492 0.31937 0.0
C394 C 0.04884 0.89515 0.31936 0.0
C395 C 0.07529 0.87925 0.32127 0.0
C396 C 0.06584 0.93749 0.31617 0.0
C397 C 0.1339 0.94681 0.31541 0.0
C398 C 0.10803 0.96302 0.31418 0.0
C399 C 0.25183 0.93499 0.40549 0.0
C400 C 0.14394 0.88666 0.32052 0.0
C401 C 0.1125 0.72259 0.31857 0.0
C402 C 0.11306 0.7239 0.35284 0.0
C403 C 0.26544 0.85969 0.36617 0.0
C404 C 0.39628 0.90512 0.3652 0.0
C405 C 0.42959 0.9019 0.35338 0.0
C406 C 0.44166 0.87677 0.36981 0.0
C407 C 0.41888 0.85395 0.39712 0.0
C408 C 0.37577 0.88331 0.39346 0.0
C409 C 0.38655 0.85757 0.40895 0.0
C410 C 0.29178 0.91471 0.27996 0.0
C411 C 0.38224 0.93043 0.34821 0.0
H412 H 0.06289 0.84678 0.3241 0.0
H413 H 0.04652 0.95081 0.31427 0.0
H414 H 0.1663 0.9668 0.31285 0.0
H415 H 0.12071 0.99545 0.31118 0.0
H416 H 0.44626 0.91925 0.332 0.0
H417 H 0.426 0.83309 0.40953 0.0
H418 H 0.35129 0.88587 0.4039 0.0
H419 H 0.36977 0.84038 0.43034 0.0
Eu420 Eu 0.16328 0.33571 0.32282 0.0
C421 C 0.04032 0.37855 0.39532 0.0
C422 C 0.97568 0.33198 0.37038 0.0
C423 C 0.9774 0.35886 0.42491 0.0
C424 C 1.01858 0.35421 0.36926 0.0
C425 C 1.01998 0.38214 0.42306 0.0
C426 C 0.95528 0.33364 0.39866 0.0
C427 C 0.08515 0.43321 0.44418 0.0
N428 N 0.08138 0.40043 0.39281 0.0
C429 C 0.10395 0.42802 0.41651 0.0
C430 C 0.04298 0.40996 0.4476 0.0
Eu431 Eu 0.11158 0.3923 0.34454 0.0
N432 N 0.03927 0.35425 0.34203 0.0
C433 C 1.01854 0.33495 0.31416 0.0
C434 C 0.95452 0.30989 0.34261 0.0
C435 C 0.97606 0.31188 0.31421 0.0
H436 H 0.13654 0.44631 0.41412 0.0
H437 H 0.95999 0.29581 0.29227 0.0
H438 H 0.92237 0.31654 0.40006 0.0
H439 H 0.1032 0.45506 0.46291 0.0
H440 H 0.03439 0.33644 0.29177 0.0
H441 H 0.24429 0.36267 0.44032 0.0
H442 H 0.92159 0.29231 0.34249 0.0
H443 H 0.20355 0.35958 0.24529 0.0
H444 H 0.18529 0.34007 0.40549 0.0
H445 H 0.27025 0.39756 0.21902 0.0
H446 H 0.96126 0.36084 0.44619 0.0
H447 H 0.31305 0.3959 0.41624 0.0
H448 H 0.35753 0.4231 0.36676 0.0
H449 H 0.02848 0.414 0.46911 0.0
H450 H 0.36464 0.43504 0.30737 0.0
N451 N 0.21879 0.36173 0.3606 0.0
C452 C 0.21443 0.35547 0.39385 0.0
C453 C 0.28699 0.38676 0.40042 0.0
C454 C 0.29171 0.39359 0.36659 0.0
C455 C 0.24824 0.36803 0.41411 0.0
C456 C 0.25665 0.38044 0.34692 0.0
H457 H 0.33261 0.42676 0.25256 0.0
N458 N 0.22664 0.37299 0.29447 0.0
C459 C 0.26806 0.39548 0.24554 0.0
C460 C 0.26069 0.38672 0.31318 0.0
C461 C 0.23004 0.37511 0.26081 0.0
C462 C 0.30314 0.41159 0.26452 0.0
C463 C 0.29983 0.40644 0.29858 0.0
O464 O 0.16196 0.28989 0.28921 0.0
O465 O 0.10248 0.32912 0.33323 0.0
O466 O 0.10617 0.35825 0.39089 0.0
O467 O 0.12782 0.31305 0.37336 0.0
O468 O 0.10729 0.29897 0.29243 0.0
O469 O 0.1706 0.2851 0.34088 0.0
O470 O 0.1419 0.45908 0.34651 0.0
O471 O 0.17086 0.39621 0.33202 0.0
O472 O 0.16268 0.37404 0.27856 0.0
O473 O 0.10631 0.37983 0.29041 0.0
O474 O 0.17188 0.43055 0.37134 0.0
O475 O 0.09654 0.42622 0.30947 0.0
C476 C 0.08196 0.30342 0.31084 0.0
C477 C 0.20296 0.26088 0.30397 0.0
C478 C 0.231 0.21451 0.304 0.0
C479 C 0.1992 0.22274 0.31184 0.0
C480 C 0.26677 0.24561 0.2895 0.0
C481 C 0.23846 0.28981 0.288 0.0
C482 C 0.27018 0.28263 0.28133 0.0
C483 C 0.11168 0.32703 0.39593 0.0
C484 C 0.17015 0.27057 0.31171 0.0
C485 C 0.33449 0.41983 0.3182 0.0
C486 C 0.33043 0.41307 0.35203 0.0
C487 C 0.19392 0.4217 0.35296 0.0
C488 C 0.11122 0.49429 0.32119 0.0
C489 C 0.13884 0.53367 0.33315 0.0
C490 C 0.13147 0.56618 0.32823 0.0
C491 C 0.0961 0.55893 0.31169 0.0
C492 C 0.07588 0.48796 0.30493 0.0
C493 C 0.06841 0.52004 0.30037 0.0
C494 C 0.13481 0.38368 0.26996 0.0
C495 C 0.12209 0.46178 0.32157 0.0
H496 H 0.1715 0.19957 0.32334 0.0
H497 H 0.29253 0.24158 0.28446 0.0
H498 H 0.24195 0.31809 0.28023 0.0
H499 H 0.29759 0.30593 0.26958 0.0
H500 H 0.16651 0.53931 0.34539 0.0
H501 H 0.0897 0.5834 0.30785 0.0
H502 H 0.05438 0.45841 0.295 0.0
H503 H 0.04121 0.51483 0.28764 0.0
Eu504 Eu 0.39392 0.16735 0.66297 0.0
C505 C 0.34333 1.00832 0.74226 0.0
C506 C 0.38702 0.98524 0.71894 0.0
C507 C 0.36055 0.96512 0.77434 0.0
C508 C 0.36657 1.00754 0.71633 0.0
C509 C 0.3386 0.98562 0.77095 0.0
C510 C 0.38501 0.96523 0.74847 0.0
C511 C 0.28817 1.00222 0.78961 0.0
N512 N 0.32254 0.02848 0.7383 0.0
C513 C 0.29454 0.02509 0.7611 0.0
C514 C 0.31044 0.98256 0.79465 0.0
Eu515 Eu 0.33035 0.06162 0.68751 0.0
N516 N 0.36629 0.02557 0.68764 0.0
C517 C 0.38288 0.01948 0.65992 0.0
C518 C 0.40717 0.98202 0.69127 0.0
C519 C 0.40447 0.99862 0.66147 0.0
H520 H 0.27669 0.03959 0.75712 0.0
H521 H 0.41864 0.99501 0.63961 0.0
H522 H 0.40081 0.94826 0.75103 0.0
H523 H 0.26598 0.9996 0.80763 0.0
H524 H 0.38012 0.03118 0.63653 0.0
H525 H 0.36292 0.22234 0.7788 0.0
H526 H 0.42338 0.96532 0.6923 0.0
H527 H 0.38031 0.18879 0.58507 0.0
H528 H 0.38406 0.18338 0.74529 0.0
H529 H 0.35176 0.22536 0.55599 0.0
H530 H 0.35781 0.94805 0.79644 0.0
H531 H 0.33756 0.26388 0.75279 0.0
H532 H 0.31892 0.28697 0.70173 0.0
H533 H 0.30524 0.96463 0.81669 0.0
H534 H 0.3138 0.28603 0.64168 0.0
N535 N 0.37006 0.20047 0.69931 0.0
C536 C 0.37257 0.20023 0.73284 0.0
C537 C 0.34637 0.24615 0.73755 0.0
C538 C 0.34345 0.24631 0.70336 0.0
C539 C 0.36067 0.22276 0.75231 0.0
C540 C 0.35587 0.22309 0.68454 0.0
H541 H 0.3252 0.26278 0.58743 0.0
N542 N 0.36529 0.20038 0.63276 0.0
C543 C 0.35122 0.22432 0.58256 0.0
C544 C 0.35322 0.22283 0.6505 0.0
C545 C 0.36635 0.2026 0.59921 0.0
C546 C 0.3366 0.24564 0.60039 0.0
C547 C 0.33815 0.24575 0.63469 0.0
O548 O 0.44722 0.20307 0.63217 0.0
O549 O 0.39563 0.11088 0.67502 0.0
O550 O 0.36433 0.09164 0.73379 0.0
O551 O 0.41545 0.15465 0.71375 0.0
O552 O 0.42416 0.14147 0.63196 0.0
O553 O 0.44293 0.22829 0.67828 0.0
O554 O 0.26374 0.03113 0.68614 0.0
O555 O 0.33094 0.11813 0.67143 0.0
O556 O 0.35419 0.12993 0.61864 0.0
O557 O 0.33877 0.06447 0.63254 0.0
O558 O 0.29489 0.08887 0.71152 0.0
O559 O 0.29406 1.00273 0.66298 0.0
C560 C 0.41896 0.11252 0.65164 0.0
C561 C 0.47506 0.27493 0.6334 0.0
C562 C 0.51353 0.34994 0.63009 0.0
C563 C 0.50149 0.31342 0.64794 0.0
C564 C 0.49646 0.34711 0.59886 0.0
C565 C 0.46198 0.27407 0.60095 0.0
C566 C 0.4714 0.30963 0.58439 0.0
C567 C 0.39889 0.12614 0.73743 0.0
C568 C 0.46267 0.23552 0.65055 0.0
C569 C 0.32553 0.26844 0.65344 0.0
C570 C 0.32842 0.26894 0.68764 0.0
C571 C 0.30595 0.1188 0.69147 0.0
C572 C 0.22822 0.95954 0.68577 0.0
C573 C 0.18654 0.94336 0.67856 0.0
C574 C 0.15665 0.90731 0.69395 0.0
C575 C 0.16919 0.88779 0.7165 0.0
C576 C 0.23975 0.93885 0.70786 0.0
C577 C 0.2104 0.90336 0.72321 0.0
C578 C 0.33971 0.09084 0.61107 0.0
C579 C 0.25912 0.99881 0.67136 0.0
H580 H 0.51374 0.31483 0.67222 0.0
H581 H 0.5035 0.37418 0.585 0.0
H582 H 0.44485 0.24583 0.58784 0.0
H583 H 0.45998 0.30814 0.55977 0.0
H584 H 0.17738 0.95909 0.66143 0.0
H585 H 0.14709 0.8599 0.72846 0.0
H586 H 0.27143 0.95013 0.71339 0.0
H587 H 0.21965 0.88777 0.74034 0.0
Eu588 Eu 0.88275 0.22895 0.65528 0.0
C589 C 0.04148 0.3416 0.73452 0.0
C590 C 0.06369 0.40779 0.71057 0.0
C591 C 0.08404 0.4028 0.76612 0.0
C592 C 0.04194 0.36499 0.70832 0.0
C593 C 0.06401 0.36031 0.76313 0.0
C594 C 0.08358 0.42649 0.73997 0.0
C595 C 0.04818 0.29391 0.78257 0.0
N596 N 1.02174 0.30059 0.73098 0.0
C597 C 0.02545 0.27666 0.75413 0.0
C598 C 0.06736 0.33589 0.78719 0.0
Eu599 Eu 0.98884 0.27402 0.6803 0.0
N600 N 1.02398 0.34605 0.67977 0.0
C601 C 0.02948 0.3682 0.6519 0.0
C602 C 0.06645 0.43056 0.6827 0.0
C603 C 0.04984 0.41066 0.65309 0.0
H604 H 1.01138 0.24428 0.75049 0.0
H605 H 0.05301 0.42798 0.6311 0.0
H606 H 0.10015 0.45931 0.74224 0.0
H607 H 0.05105 0.27485 0.80085 0.0
H608 H 1.01767 0.35335 0.62865 0.0
H609 H 0.82629 0.14421 0.77115 0.0
H610 H 0.08272 0.46348 0.68346 0.0
H611 H 0.86528 0.19239 0.57687 0.0
H612 H 0.86603 0.20397 0.73747 0.0
H613 H 0.8305 0.12672 0.54861 0.0
H614 H 0.10098 0.41767 0.78814 0.0
H615 H 0.78547 0.07698 0.74535 0.0
H616 H 0.76436 0.03451 0.69458 0.0
H617 H 0.08514 0.34919 0.8092 0.0
H618 H 0.76723 0.02951 0.63469 0.0
N619 N 0.84988 0.17228 0.69168 0.0
C620 C 0.84944 0.17544 0.72516 0.0
C621 C 0.80354 0.10335 0.73006 0.0
C622 C 0.80435 0.09983 0.69594 0.0
C623 C 0.8265 0.14123 0.74471 0.0
C624 C 0.82783 0.13528 0.67702 0.0
H625 H 0.79221 0.06332 0.58045 0.0
N626 N 0.85176 0.16685 0.62516 0.0
C627 C 0.83038 0.12777 0.57518 0.0
C628 C 0.82907 0.13248 0.64302 0.0
C629 C 0.85108 0.165 0.59152 0.0
C630 C 0.80856 0.09214 0.59321 0.0
C631 C 0.80711 0.09417 0.62743 0.0
O632 O 0.84443 0.24165 0.62327 0.0
O633 O 0.93838 0.28791 0.66718 0.0
O634 O 0.95819 0.27831 0.72617 0.0
O635 O 0.89445 0.26371 0.70583 0.0
O636 O 0.90722 0.2852 0.6245 0.0
O637 O 0.8227 0.21832 0.6718 0.0
O638 O 1.01944 0.23803 0.67872 0.0
O639 O 0.93292 0.21705 0.66482 0.0
O640 O 0.92149 0.22706 0.6117 0.0
O641 O 0.98587 0.27943 0.62534 0.0
O642 O 0.96243 0.2121 0.7054 0.0
O643 O 0.04835 0.29717 0.65647 0.0
C644 C 0.93611 0.30939 0.64407 0.0
C645 C 0.7727 0.19753 0.62899 0.0
C646 C 0.69754 0.16141 0.62931 0.0
C647 C 0.7354 0.18831 0.64453 0.0
C648 C 0.69785 0.14226 0.59978 0.0
C649 C 0.77105 0.17978 0.59827 0.0
C650 C 0.73418 0.15162 0.58438 0.0
C651 C 0.92295 0.27697 0.72955 0.0
C652 C 0.81334 0.22697 0.64328 0.0
C653 C 0.78412 0.05906 0.64629 0.0
C654 C 0.78252 0.06192 0.6804 0.0
C655 C 0.93261 0.19224 0.68545 0.0
C656 C 0.09105 0.27434 0.67981 0.0
C657 C 0.10698 0.24838 0.67356 0.0
C658 C 0.14249 0.25439 0.68977 0.0
C659 C 0.16173 0.28677 0.71213 0.0
C660 C 0.1115 0.30687 0.70175 0.0
C661 C 0.14645 0.31285 0.71788 0.0
C662 C 0.96014 0.2531 0.60398 0.0
C663 C 0.05219 0.2661 0.66467 0.0
H664 H 0.73588 0.20306 0.66746 0.0
H665 H 0.66967 0.12057 0.58798 0.0
H666 H 0.79829 0.18815 0.58438 0.0
H667 H 0.73374 0.13767 0.56106 0.0
H668 H 0.09145 0.22323 0.65658 0.0
H669 H 0.18921 0.29246 0.72469 0.0
H670 H 0.10042 0.3276 0.70659 0.0
H671 H 0.16183 0.33792 0.7349 0.0
Eu672 Eu 0.81932 0.65633 0.65813 0.0
C673 C 0.7083 0.70708 0.73519 0.0
C674 C 0.64217 0.66409 0.71074 0.0
C675 C 0.64692 0.69085 0.76581 0.0
C676 C 0.68501 0.68406 0.70896 0.0
C677 C 0.6895 0.71224 0.76326 0.0
C678 C 0.62328 0.66649 0.7397 0.0
C679 C 0.75615 0.76184 0.78304 0.0
N680 N 0.74941 0.7273 0.73208 0.0
C681 C 0.77345 0.755 0.75518 0.0
C682 C 0.71401 0.74026 0.78717 0.0
Eu683 Eu 0.77625 0.71941 0.68199 0.0
N684 N 0.7042 0.68402 0.68078 0.0
C685 C 0.68239 0.66742 0.65276 0.0
C686 C 0.61963 0.64401 0.6828 0.0
C687 C 0.63987 0.64628 0.65352 0.0
H688 H 0.80598 0.77244 0.75189 0.0
H689 H 0.62277 0.63213 0.63143 0.0
H690 H 0.59043 0.65108 0.7416 0.0
H691 H 0.7753 0.78388 0.80125 0.0
H692 H 0.69756 0.66986 0.62973 0.0
H693 H 0.90106 0.68381 0.77544 0.0
H694 H 0.58669 0.62816 0.68319 0.0
H695 H 0.85736 0.67309 0.58055 0.0
H696 H 0.84218 0.66404 0.74084 0.0
H697 H 0.92361 0.70214 0.55299 0.0
H698 H 0.63195 0.69391 0.78743 0.0
H699 H 0.96884 0.70945 0.75067 0.0
H700 H 1.01244 0.72954 0.70046 0.0
H701 H 0.70067 0.74578 0.80874 0.0
H702 H 1.01885 0.73647 0.64056 0.0
N703 N 0.87493 0.67896 0.69548 0.0
C704 C 0.87097 0.6756 0.72893 0.0
C705 C 0.94287 0.70121 0.73495 0.0
C706 C 0.9472 0.70512 0.70085 0.0
C707 C 0.90467 0.68674 0.74902 0.0
C708 C 0.91226 0.69339 0.68138 0.0
H709 H 0.9863 0.72704 0.58572 0.0
N710 N 0.88205 0.68572 0.62898 0.0
C711 C 0.92204 0.70157 0.57955 0.0
C712 C 0.9159 0.69707 0.64738 0.0
C713 C 0.88454 0.68602 0.59541 0.0
C714 C 0.95725 0.71529 0.59809 0.0
C715 C 0.95448 0.71253 0.63233 0.0
O716 O 0.80355 0.60421 0.62643 0.0
O717 O 0.76086 0.6545 0.66926 0.0
O718 O 0.76977 0.68407 0.72799 0.0
O719 O 0.78324 0.6338 0.7083 0.0
O720 O 0.76382 0.62631 0.62643 0.0
O721 O 0.83013 0.6067 0.67358 0.0
O722 O 0.81309 0.78594 0.68068 0.0
O723 O 0.83279 0.71899 0.66734 0.0
O724 O 0.82411 0.69803 0.61452 0.0
O725 O 0.77205 0.71089 0.62707 0.0
O726 O 0.83783 0.7539 0.70771 0.0
O727 O 0.755 0.75628 0.65664 0.0
C728 C 0.73955 0.63117 0.64588 0.0
C729 C 0.84715 0.57589 0.62918 0.0
C730 C 0.88311 0.53677 0.627 0.0
C731 C 0.85779 0.54855 0.644 0.0
C732 C 0.89947 0.55486 0.5964 0.0
C733 C 0.86172 0.59024 0.59735 0.0
C734 C 0.88854 0.58091 0.58167 0.0
C735 C 0.76997 0.64964 0.73166 0.0
C736 C 0.81925 0.58797 0.64536 0.0
C737 C 0.98909 0.72444 0.65174 0.0
C738 C 0.98543 0.72051 0.68586 0.0
C739 C 0.85756 0.74327 0.68813 0.0
C740 C 0.7776 0.822 0.6795 0.0
C741 C 0.80394 0.8637 0.67291 0.0
C742 C 0.79772 0.89363 0.68815 0.0
C743 C 0.76478 0.88114 0.70992 0.0
C744 C 0.74448 0.81052 0.70078 0.0
C745 C 0.73831 0.83992 0.71599 0.0
C746 C 0.79915 0.71178 0.60633 0.0
C747 C 0.78601 0.79099 0.66538 0.0
H748 H 0.84528 0.53546 0.66778 0.0
H749 H 0.92009 0.54793 0.58322 0.0
H750 H 0.85192 0.60827 0.584 0.0
H751 H 0.90019 0.59322 0.55753 0.0
H752 H 0.82952 0.87284 0.6564 0.0
H753 H 0.75895 0.90329 0.72174 0.0
H754 H 0.72342 0.77885 0.70578 0.0
H755 H 0.71278 0.8307 0.73251 0.0
H756 H 0.29725 0.49266 0.04673 0.0
H757 H 0.33051 0.47742 0.948 0.0
H758 H 0.26143 0.45934 0.92866 0.0
H759 H 0.19406 0.41219 0.04761 0.0
H760 H 0.17502 0.44058 0.06932 0.0
H761 H 0.22666 0.4521 0.0756 0.0
H762 H 0.25445 0.52699 0.05934 0.0
H763 H 0.20374 0.5176 0.05349 0.0
H764 H 0.23989 0.53889 0.02062 0.0
H765 H 0.18738 0.44191 0.9208 0.0
H766 H 0.11908 0.43499 0.92335 0.0
H767 H 0.13387 0.46054 0.02752 0.0
C768 C 0.29 0.48537 0.021 0.0
C769 C 0.31934 0.48622 0.99889 0.0
C770 C 0.30877 0.4773 0.96534 0.0
C771 C 0.26941 0.46651 0.95427 0.0
C772 C 0.24093 0.46496 0.97701 0.0
C773 C 0.25106 0.47466 0.00961 0.0
C774 C 0.21628 0.47378 0.02875 0.0
C775 C 0.20221 0.44283 0.05701 0.0
C776 C 0.2293 0.51679 0.04129 0.0
C777 C 0.18399 0.46036 1.00224 0.0
C778 C 0.19893 0.45561 0.97249 0.0
C779 C 0.17544 0.44524 0.94404 0.0
C780 C 0.13648 0.44097 0.94578 0.0
C781 C 0.12071 0.44633 0.9758 0.0
C782 C 0.1446 0.45525 1.00451 0.0
H783 H 0.54429 0.80471 0.92786 0.0
H784 H 0.57656 0.85712 0.02532 0.0
H785 H 0.59768 0.80669 0.03995 0.0
H786 H 0.50507 0.70068 0.95092 0.0
H787 H 0.52471 0.68934 0.91454 0.0
H788 H 0.51153 0.72868 0.91353 0.0
H789 H 0.58439 0.77971 0.89306 0.0
H790 H 0.598 0.74065 0.89474 0.0
H791 H 0.62757 0.78746 0.91701 0.0
H792 H 0.61699 0.74877 0.04229 0.0
H793 H 0.6243 0.68792 0.03385 0.0
H794 H 0.58138 0.67805 0.93399 0.0
C795 C 0.55577 0.80573 0.95238 0.0
C796 C 0.559 0.83522 0.97536 0.0
C797 C 0.57353 0.83477 0.00732 0.0
C798 C 0.586 0.80645 0.01568 0.0
C799 C 0.58375 0.77876 0.99181 0.0
C800 C 0.56851 0.77819 0.9609 0.0
C801 C 0.56846 0.74569 0.93936 0.0
C802 C 0.52486 0.71424 0.929 0.0
C803 C 0.59626 0.76452 0.90927 0.0
C804 C 0.58586 0.72754 0.96282 0.0
C805 C 0.5948 0.74683 0.99301 0.0
C806 C 0.60996 0.73369 0.01866 0.0
C807 C 0.61424 0.69914 0.01365 0.0
C808 C 0.60322 0.67797 0.98331 0.0
C809 C 0.59034 0.6936 0.95743 0.0
H810 H 0.36483 0.91021 0.93781 0.0
H811 H 0.35947 0.93507 0.04092 0.0
H812 H 0.29855 0.86638 0.04758 0.0
H813 H 0.25523 0.84846 0.92294 0.0
H814 H 0.26222 0.81526 0.89538 0.0
H815 H 0.30138 0.86772 0.8992 0.0
H816 H 0.35339 0.84482 0.91342 0.0
H817 H 0.31432 0.79233 0.9104 0.0
H818 H 0.34348 0.81104 0.94765 0.0
H819 H 0.23982 0.78958 0.04221 0.0
H820 H 0.18915 0.7192 0.02472 0.0
H821 H 0.23918 0.74736 0.92616 0.0
C822 C 0.35031 0.90172 0.9617 0.0
C823 C 0.36719 0.92795 0.98893 0.0
C824 C 0.34731 0.9154 0.01977 0.0
C825 C 0.3127 0.87634 0.02371 0.0
C826 C 0.29833 0.85027 0.99651 0.0
C827 C 0.31649 0.86303 0.96602 0.0
C828 C 0.29763 0.82944 0.9408 0.0
C829 C 0.27794 0.84091 0.91294 0.0
C830 C 0.32908 0.8188 0.92729 0.0
C831 C 0.26597 0.79536 0.96162 0.0
C832 C 0.26631 0.8075 0.9937 0.0
C833 C 0.23934 0.78014 0.01704 0.0
C834 C 0.21088 0.74005 0.00702 0.0
C835 C 0.20966 0.72767 0.97394 0.0
C836 C 0.23846 0.75581 0.95148 0.0
H837 H 0.50884 0.28877 0.06851 0.0
H838 H 0.47629 0.25947 0.96612 0.0
H839 H 0.5109 0.33293 0.9528 0.0
H840 H 0.49251 0.36646 0.0757 0.0
H841 H 0.53585 0.40197 0.09973 0.0
H842 H 0.51682 0.3482 0.10299 0.0
H843 H 0.58367 0.35289 0.08681 0.0
H844 H 0.6067 0.40746 0.08671 0.0
H845 H 0.61095 0.38162 0.05105 0.0
H846 H 0.54533 0.40958 0.95143 0.0
H847 H 0.57712 0.48335 0.96185 0.0
H848 H 0.5868 0.46316 0.06536 0.0
C849 C 0.5098 0.29793 0.04319 0.0
C850 C 0.49004 0.26854 0.01826 0.0
C851 C 0.49166 0.28153 0.98545 0.0
C852 C 0.51115 0.32316 0.97772 0.0
C853 C 0.52964 0.3514 1.00299 0.0
C854 C 0.52987 0.33933 0.03496 0.0
C855 C 0.55087 0.37574 0.05772 0.0
C856 C 0.52235 0.37304 0.08568 0.0
C857 C 0.59039 0.37965 0.07137 0.0
C858 C 0.56005 0.41009 0.03398 0.0
C859 C 0.54848 0.39543 1.00237 0.0
C860 C 0.55442 0.42131 0.97608 0.0
C861 C 0.5722 0.46314 0.98226 0.0
C862 C 0.5831 0.4787 0.01455 0.0
C863 C 0.57792 0.45188 0.04056 0.0
H864 H 0.58961 0.11698 0.0694 0.0
H865 H 0.56257 0.10002 0.96529 0.0
H866 H 0.63543 0.14413 0.95243 0.0
H867 H 0.66911 0.2247 0.06054 0.0
H868 H 0.70022 0.22254 0.09293 0.0
H869 H 0.64575 0.19006 0.09441 0.0
H870 H 0.65309 0.125 0.09794 0.0
H871 H 0.7071 0.15948 0.0995 0.0
H872 H 0.68655 0.12019 0.06897 0.0
H873 H 0.71199 0.18753 0.9508 0.0
H874 H 0.78625 0.22635 0.96081 0.0
H875 H 0.76399 0.21685 0.06582 0.0
C876 C 0.5992 0.1226 0.04394 0.0
C877 C 0.57066 0.10388 0.01832 0.0
C878 C 0.58405 0.11285 0.9853 0.0
C879 C 0.62538 0.13821 0.97775 0.0
C880 C 0.65299 0.15527 1.00351 0.0
C881 C 0.64048 0.14812 0.03598 0.0
C882 C 0.67641 0.17097 0.05895 0.0
C883 C 0.67264 0.20403 0.07782 0.0
C884 C 0.68094 0.14211 0.08273 0.0
C885 C 0.71122 0.18972 0.03441 0.0
C886 C 0.69698 0.18112 1.00254 0.0
C887 C 0.72346 0.19469 0.97567 0.0
C888 C 0.76558 0.21687 0.98155 0.0
C889 C 0.7809 0.22469 0.01403 0.0
C890 C 0.75316 0.21135 0.04071 0.0
H891 H 0.9364 0.47112 0.96919 0.0
H892 H 0.9468 0.47548 0.07529 0.0
H893 H 0.90363 0.50693 0.07878 0.0
H894 H 0.92772 0.56206 0.95104 0.0
H895 H 0.8894 0.53313 0.9214 0.0
H896 H 0.92687 0.51898 0.93108 0.0
H897 H 0.86147 0.4467 0.94188 0.0
H898 H 0.82784 0.46704 0.9373 0.0
H899 H 0.82757 0.44192 0.97487 0.0
H900 H 0.86196 0.54077 0.071 0.0
H901 H 0.82411 0.57435 0.05198 0.0
H902 H 0.83608 0.54459 0.95132 0.0
C903 C 0.93009 0.47947 0.99301 0.0
C904 C 0.94637 0.47251 0.02199 0.0
C905 C 0.93559 0.48164 0.05283 0.0
C906 C 0.91094 0.49934 0.05505 0.0
C907 C 0.89559 0.50617 0.02622 0.0
C908 C 0.90418 0.49603 0.99574 0.0
C909 C 0.88035 0.50315 0.96906 0.0
C910 C 0.90789 0.53095 0.94155 0.0
C911 C 0.84736 0.46228 0.95495 0.0
C912 C 0.86129 0.52339 0.98884 0.0
C913 C 0.86925 0.5234 0.02194 0.0
C914 C 0.8553 0.5407 0.04516 0.0
C915 C 0.83372 0.55958 0.03421 0.0
C916 C 0.82696 0.56174 1.00032 0.0
C917 C 0.84047 0.5429 0.97743 0.0
H918 H 0.81882 0.83769 0.34928 0.0
H919 H 0.78361 0.73874 0.28084 0.0
H920 H 0.85387 0.75091 0.28097 0.0
H921 H 0.90663 0.9011 0.30906 0.0
H922 H 0.93631 0.92694 0.34482 0.0
H923 H 0.88192 0.90462 0.34578 0.0
H924 H 0.87873 0.8638 0.39685 0.0
H925 H 0.9328 0.88376 0.39628 0.0
H926 H 0.89868 0.82957 0.39546 0.0
H927 H 0.92996 0.77901 0.28412 0.0
H928 H 1.00467 0.82235 0.28714 0.0
H929 H 0.99068 0.90622 0.35084 0.0
C930 C 0.82513 0.81658 0.33637 0.0
C931 C 0.79446 0.78424 0.31794 0.0
C932 C 0.80544 0.76095 0.29769 0.0
C933 C 0.84558 0.7682 0.29719 0.0
C934 C 0.87494 0.80011 0.31603 0.0
C935 C 0.86517 0.82412 0.33511 0.0
C936 C 0.90305 0.86047 0.34885 0.0
C937 C 0.9072 0.90063 0.33637 0.0
C938 C 0.9033 0.85925 0.3866 0.0
C939 C 0.93576 0.85335 0.33439 0.0
C940 C 0.91897 0.81816 0.31585 0.0
C941 C 0.94334 0.80631 0.29894 0.0
C942 C 0.98582 0.8311 0.30091 0.0
C943 C 1.00374 0.86768 0.31936 0.0
C944 C 0.97808 0.87856 0.33647 0.0
H945 H 0.26238 0.1753 0.26708 0.0
H946 H 0.19457 0.16269 0.35668 0.0
H947 H 0.19692 0.10049 0.37028 0.0
H948 H 0.21909 0.06884 0.24862 0.0
H949 H 0.26648 0.07427 0.23419 0.0
H950 H 0.25708 0.11609 0.23057 0.0
H951 H 0.32356 0.16221 0.26274 0.0
H952 H 0.3328 0.12028 0.26642 0.0
H953 H 0.3307 0.14638 0.30273 0.0
H954 H 0.20593 0.0392 0.37348 0.0
H955 H 0.22017 0.98381 0.36648 0.0
H956 H 0.28896 0.03953 0.27815 0.0
C957 C 0.24818 0.15982 0.28977 0.0
C958 C 0.22849 0.1745 0.31094 0.0
C959 C 0.20943 0.15219 0.33981 0.0
C960 C 0.21098 0.11697 0.34791 0.0
C961 C 0.2319 0.10445 0.32702 0.0
C962 C 0.25007 0.12513 0.29849 0.0
C963 C 0.27129 0.10575 0.28053 0.0
C964 C 0.25234 0.09032 0.24646 0.0
C965 C 0.31732 0.13544 0.27796 0.0
C966 C 0.26225 0.07076 0.30344 0.0
C967 C 0.23941 0.07065 0.33002 0.0
C968 C 0.22522 0.04009 0.3535 0.0
C969 C 0.23461 1.00904 0.34981 0.0
C970 C 0.25955 1.00915 0.32379 0.0
C971 C 0.27245 0.04004 0.29971 0.0
H972 H 0.04018 0.24589 0.26525 0.0
H973 H 0.0314 0.2766 0.36622 0.0
H974 H 0.97219 0.2072 0.3747 0.0
H975 H 0.93123 0.18064 0.2499 0.0
H976 H 0.93974 0.14666 0.22455 0.0
H977 H 0.97786 0.19966 0.22686 0.0
H978 H 0.031 0.17952 0.24432 0.0
H979 H 0.99292 0.12651 0.24287 0.0
H980 H 1.02138 0.14798 0.28006 0.0
H981 H 0.91525 0.12917 0.37169 0.0
H982 H 0.86554 0.05764 0.35618 0.0
H983 H 0.91677 0.08098 0.25805 0.0
C984 C 0.0253 0.23847 0.28903 0.0
C985 C 0.0408 0.26672 0.31517 0.0
C986 C 1.02038 0.25549 0.34587 0.0
C987 C 0.98673 0.21599 0.35086 0.0
C988 C 0.97374 0.18807 0.32484 0.0
C989 C 0.9923 0.19942 0.29438 0.0
C990 C 0.97449 0.16428 0.27043 0.0
C991 C 0.95464 0.17335 0.24121 0.0
C992 C 1.00688 0.15398 0.25875 0.0
C993 C 0.94299 0.13093 0.29195 0.0
C994 C 0.94257 0.14476 0.3233 0.0
C995 C 0.91545 0.11841 0.34709 0.0
C996 C 0.88755 0.07763 0.33822 0.0
C997 C 0.88693 0.06354 0.30583 0.0
C998 C 0.91592 0.09068 0.28294 0.0
H999 H 0.25413 0.8079 0.31408 0.0
H1000 H 0.24149 0.81117 0.41971 0.0
H1001 H 0.21157 0.73663 0.42221 0.0
H1002 H 0.16764 0.70846 0.29001 0.0
H1003 H 0.20119 0.70253 0.26294 0.0
H1004 H 0.21237 0.75289 0.27415 0.0
H1005 H 0.28378 0.75822 0.28985 0.0
H1006 H 0.26342 0.70433 0.28453 0.0
H1007 H 0.28446 0.7278 0.32352 0.0
H1008 H 0.1764 0.66132 0.41273 0.0
H1009 H 0.14149 0.59059 0.39189 0.0
H1010 H 0.1815 0.63528 0.29314 0.0
C1011 C 0.24465 0.79267 0.3376 0.0
C1012 C 0.24848 0.81496 0.36665 0.0
C1013 C 0.23784 0.79447 0.39718 0.0
C1014 C 0.22097 0.75217 0.39884 0.0
C1015 C 0.21671 0.73084 0.36985 0.0
C1016 C 0.22907 0.75037 0.33983 0.0
C1017 C 0.22436 0.72028 0.31303 0.0
C1018 C 0.20001 0.72137 0.28336 0.0
C1019 C 0.2665 0.72813 0.3021 0.0
C1020 C 0.20168 0.68039 0.33176 0.0
C1021 C 0.19925 0.68738 0.36481 0.0
C1022 C 0.17863 0.65546 0.387 0.0
C1023 C 0.15893 0.61541 0.37502 0.0
C1024 C 0.15928 0.60761 0.3411 0.0
C1025 C 0.18147 0.64051 0.3193 0.0
H1026 H 0.25323 0.46198 0.39938 0.0
H1027 H 0.2326 0.45078 0.29429 0.0
H1028 H 0.30597 0.49728 0.28457 0.0
H1029 H 0.3327 0.57272 0.39276 0.0
H1030 H 0.36165 0.57035 0.42681 0.0
H1031 H 0.30716 0.53775 0.42604 0.0
H1032 H 0.31401 0.472 0.43086 0.0
H1033 H 0.36742 0.5075 0.43573 0.0
H1034 H 0.351 0.46918 0.40465 0.0
H1035 H 0.38277 0.53763 0.28628 0.0
H1036 H 0.45618 0.57334 0.29944 0.0
H1037 H 0.42708 0.56266 0.40337 0.0
C1038 C 0.26434 0.46946 0.37438 0.0
C1039 C 0.23769 0.45128 0.34751 0.0
C1040 C 0.25282 0.46305 0.31516 0.0
C1041 C 0.2944 0.48975 0.30942 0.0
C1042 C 0.32035 0.50553 0.33635 0.0
C1043 C 0.30583 0.49659 0.36824 0.0
C1044 C 0.34016 0.51905 0.39272 0.0
C1045 C 0.33511 0.55192 0.41063 0.0
C1046 C 0.34316 0.4901 0.41741 0.0
C1047 C 0.37656 0.53816 0.3697 0.0
C1048 C 0.3644 0.53099 0.33725 0.0
C1049 C 0.39262 0.54407 0.3116 0.0
C1050 C 0.43431 0.56442 0.31929 0.0
C1051 C 0.44751 0.57095 0.3524 0.0
C1052 C 0.41803 0.55817 0.37781 0.0
H1053 H 0.49696 0.87187 0.4095 0.0
H1054 H 0.46726 0.87298 0.30677 0.0
H1055 H 0.52118 0.85741 0.29112 0.0
H1056 H 0.6044 0.9119 0.40154 0.0
H1057 H 0.60631 0.8779 0.4315 0.0
H1058 H 0.56871 0.89337 0.43506 0.0
H1059 H 0.51046 0.81919 0.4354 0.0
H1060 H 0.54703 0.80234 0.43311 0.0
H1061 H 0.5071 0.78531 0.40296 0.0
H1062 H 0.57286 0.83302 0.28764 0.0
H1063 H 0.61902 0.80548 0.29644 0.0
H1064 H 0.61207 0.81834 0.40162 0.0
C1065 C 0.50181 0.86915 0.38361 0.0
C1066 C 0.47756 0.87341 0.35937 0.0
C1067 C 0.48563 0.87027 0.32581 0.0
C1068 C 0.51603 0.86116 0.31673 0.0
C1069 C 0.53803 0.85534 0.3415 0.0
C1070 C 0.53122 0.85936 0.37426 0.0
C1071 C 0.55617 0.84842 0.39648 0.0
C1072 C 0.58571 0.88508 0.41737 0.0
C1073 C 0.52854 0.81163 0.41826 0.0
C1074 C 0.5783 0.83749 0.37118 0.0
C1075 C 0.56755 0.84165 0.33955 0.0
C1076 C 0.58204 0.83048 0.31226 0.0
C1077 C 0.60829 0.81496 0.31746 0.0
C1078 C 0.62006 0.81118 0.34966 0.0
C1079 C 0.60438 0.82206 0.37675 0.0
H1080 H 0.63737 0.16213 0.59367 0.0
H1081 H 0.66559 0.14315 0.69284 0.0
H1082 H 0.59479 0.12261 0.70998 0.0
H1083 H 0.57233 0.20196 0.61446 0.0
H1084 H 0.539 0.17739 0.58014 0.0
H1085 H 0.59175 0.19151 0.57749 0.0
H1086 H 0.57029 0.11691 0.56298 0.0
H1087 H 0.51744 0.10245 0.56632 0.0
H1088 H 0.53728 0.07662 0.59055 0.0
H1089 H 0.5171 0.10216 0.71477 0.0
H1090 H 0.44762 0.09226 0.70755 0.0
H1091 H 0.47325 0.12234 0.60451 0.0
C1092 C 0.62885 0.15367 0.61909 0.0
C1093 C 0.65714 0.15399 0.64184 0.0
C1094 C 0.64466 0.1434 0.67496 0.0
C1095 C 0.60432 0.13128 0.68479 0.0
C1096 C 0.5768 0.1299 0.66121 0.0
C1097 C 0.58906 0.1413 0.62908 0.0
C1098 C 0.55472 0.13785 0.60804 0.0
C1099 C 0.56507 0.17965 0.59424 0.0
C1100 C 0.54433 0.1066 0.58034 0.0
C1101 C 0.52086 0.12284 0.63315 0.0
C1102 C 0.53368 0.1182 0.66378 0.0
C1103 C 0.50717 0.10592 0.6908 0.0
C1104 C 0.46765 0.10025 0.68654 0.0
C1105 C 0.45506 0.10704 0.6556 0.0
C1106 C 0.48174 0.1168 0.62852 0.0
H1107 H 0.92277 0.35256 0.59814 0.0
H1108 H 0.95791 0.35871 0.69997 0.0
H1109 H 0.94787 0.41796 0.70837 0.0
H1110 H 0.96675 0.46167 0.5838 0.0
H1111 H 0.92497 0.45352 0.5578 0.0
H1112 H 0.93995 0.4155 0.56019 0.0
H1113 H 0.86616 0.36189 0.57641 0.0
H1114 H 0.8511 0.39983 0.57483 0.0
H1115 H 0.84303 0.37072 0.61183 0.0
H1116 H 0.92721 0.47507 0.70511 0.0
H1117 H 0.9054 0.5247 0.68948 0.0
H1118 H 0.88059 0.47519 0.59083 0.0
C1119 C 0.92935 0.36688 0.62211 0.0
C1120 C 0.9408 0.35061 0.6485 0.0
C1121 C 0.94883 0.37032 0.67943 0.0
C1122 C 0.94305 0.40399 0.68437 0.0
C1123 C 0.92929 0.41767 0.65808 0.0
C1124 C 0.92318 0.39977 0.62744 0.0
C1125 C 0.9065 0.41792 0.60329 0.0
C1126 C 0.93632 0.43837 0.57458 0.0
C1127 C 0.8642 0.38567 0.59088 0.0
C1128 C 0.90387 0.4489 0.6249 0.0
C1129 C 0.91716 0.44878 0.65645 0.0
C1130 C 0.91702 0.47532 0.68035 0.0
C1131 C 0.90418 0.50319 0.6714 0.0
C1132 C 0.89159 0.50429 0.63883 0.0
C1133 C 0.89065 0.47585 0.61581 0.0
H1134 H 0.69733 0.57371 0.60019 0.0
H1135 H 0.6888 0.60485 0.70108 0.0
H1136 H 0.62938 0.53567 0.70967 0.0
H1137 H 0.58852 0.50767 0.58467 0.0
H1138 H 0.59755 0.47366 0.5598 0.0
H1139 H 0.63528 0.52681 0.56179 0.0
H1140 H 0.68889 0.5076 0.57995 0.0
H1141 H 0.65121 0.45447 0.57879 0.0
H1142 H 0.67943 0.47655 0.61598 0.0
H1143 H 0.57255 0.45772 0.70694 0.0
H1144 H 0.52367 0.38578 0.69191 0.0
H1145 H 0.57572 0.40851 0.59404 0.0
C1146 C 0.68248 0.56649 0.62397 0.0
C1147 C 0.69815 0.59475 0.65009 0.0
C1148 C 0.67768 0.58371 0.68077 0.0
C1149 C 0.6439 0.54434 0.68582 0.0
C1150 C 0.63091 0.51633 0.6599 0.0
C1151 C 0.64952 0.52749 0.62944 0.0
C1152 C 0.63212 0.49212 0.60575 0.0
C1153 C 0.61217 0.50057 0.57627 0.0
C1154 C 0.66486 0.48211 0.59447 0.0
C1155 C 0.60075 0.4589 0.62742 0.0
C1156 C 0.6 0.47298 0.65859 0.0
C1157 C 0.57298 0.44674 0.68247 0.0
C1158 C 0.54554 0.40575 0.67387 0.0
C1159 C 0.54537 0.39135 0.64167 0.0
C1160 C 0.57428 0.41845 0.61871 0.0
H1161 H 0.83385 0.9568 0.73218 0.0
H1162 H 0.82017 0.93031 0.62785 0.0
H1163 H 0.8564 1.00409 0.61574 0.0
H1164 H 0.81536 0.03383 0.73259 0.0
H1165 H 0.8537 0.06862 0.76079 0.0
H1166 H 0.83446 1.0148 0.764 0.0
H1167 H 0.90392 0.02091 0.75767 0.0
H1168 H 0.92631 0.07541 0.75788 0.0
H1169 H 0.93728 0.05081 0.72474 0.0
H1170 H 0.8908 0.08089 0.61518 0.0
H1171 H 0.91999 0.15429 0.62604 0.0
H1172 H 0.90972 0.13109 0.73082 0.0
C1173 C 0.83917 0.96659 0.70677 0.0
C1174 C 0.82426 0.93779 0.68091 0.0
C1175 C 0.83174 0.95178 0.64801 0.0
C1176 C 0.85218 0.99364 0.64093 0.0
C1177 C 0.86567 0.0212 0.66702 0.0
C1178 C 0.86011 1.00824 0.6993 0.0
C1179 C 0.87644 0.04403 0.72284 0.0
C1180 C 0.84303 0.04019 0.74644 0.0
C1181 C 0.91317 0.04802 0.7419 0.0
C1182 C 0.88959 0.07899 0.69883 0.0
C1183 C 0.88417 0.06524 0.66674 0.0
C1184 C 0.89499 0.09189 0.64021 0.0
C1185 C 0.91124 0.13352 0.6466 0.0
C1186 C 0.91569 0.14814 0.67922 0.0
C1187 C 0.9057 0.12056 0.70563 0.0
H1188 H 0.91799 0.78127 0.73403 0.0
H1189 H 0.89684 0.76739 0.62903 0.0
H1190 H 0.97057 0.81093 0.61891 0.0
H1191 H 0.99879 0.88846 0.72841 0.0
H1192 H 0.02771 0.88479 0.7619 0.0
H1193 H 0.97316 0.8528 0.76127 0.0
H1194 H 0.97942 0.78713 0.76485 0.0
H1195 H 0.0334 0.82099 0.76842 0.0
H1196 H 1.01416 0.78271 0.73703 0.0
H1197 H 0.04746 0.85371 0.62026 0.0
H1198 H 0.12104 0.89197 0.63318 0.0
H1199 H 0.09243 0.87971 0.7372 0.0
C1200 C 0.92904 0.78742 0.70895 0.0
C1201 C 0.9019 0.76979 0.68229 0.0
C1202 C 0.91722 0.77944 0.64981 0.0
C1203 C 0.95906 0.80445 0.64382 0.0
C1204 C 0.98523 0.82043 0.6706 0.0
C1205 C 0.97082 0.81256 0.70256 0.0
C1206 C 1.00542 0.83434 0.72689 0.0
C1207 C 1.001 0.86704 0.74573 0.0
C1208 C 1.00815 0.80444 0.75069 0.0
C1209 C 0.04165 0.85352 0.70373 0.0
C1210 C 0.02932 0.84588 0.67133 0.0
C1211 C 0.05741 0.86007 0.64555 0.0
C1212 C 0.09915 0.88194 0.65309 0.0
C1213 C 0.11251 0.88887 0.68615 0.0
C1214 C 0.08316 0.87484 0.71168 0.0
H1215 H 0.26619 0.14143 0.73574 0.0
H1216 H 0.28376 0.13327 0.63137 0.0
H1217 H 0.24054 0.16327 0.61935 0.0
H1218 H 0.15902 0.11488 0.72714 0.0
H1219 H 0.16151 0.14764 0.76019 0.0
H1220 H 0.19339 0.12499 0.76094 0.0
H1221 H 0.25908 0.19688 0.76542 0.0
H1222 H 0.22518 0.21705 0.76761 0.0
H1223 H 0.26467 0.23596 0.73716 0.0
H1224 H 0.19789 0.19754 0.61877 0.0
H1225 H 0.15955 0.23326 0.62988 0.0
H1226 H 0.16806 0.2177 0.7345 0.0
C1227 C 0.2609 0.14607 0.71039 0.0
C1228 C 0.2795 0.1364 0.68447 0.0
C1229 C 0.27094 0.14173 0.65161 0.0
C1230 C 0.24613 0.15844 0.64455 0.0
C1231 C 0.22921 0.16885 0.67063 0.0
C1232 C 0.23595 0.16258 0.70293 0.0
C1233 C 0.21333 0.17558 0.72634 0.0
C1234 C 0.17982 0.13857 0.74473 0.0
C1235 C 0.24237 0.20827 0.75055 0.0
C1236 C 0.19511 0.19257 0.7023 0.0
C1237 C 0.20383 0.18756 0.67024 0.0
C1238 C 0.19067 0.20136 0.64379 0.0
C1239 C 0.16875 0.22146 0.6503 0.0
C1240 C 0.16075 0.22825 0.683 0.0
C1241 C 0.17373 0.21301 0.70922 0.0
H1242 H 0.07063 0.38389 0.24101 0.0
H1243 H 0.19761 0.42229 0.22417 0.0
H1244 H 0.19534 0.4549 0.17178 0.0
H1245 H 0.03699 0.35746 0.16186 0.0
H1246 H 1.00109 0.37568 0.16393 0.0
H1247 H 1.01491 0.35936 0.20056 0.0
H1248 H 0.03707 0.4289 0.22732 0.0
H1249 H 1.02352 0.44571 0.19054 0.0
H1250 H 0.07416 0.4748 0.20705 0.0
H1251 H 0.17771 0.48683 0.12125 0.0
H1252 H 0.14374 0.49931 0.07405 0.0
H1253 H 0.02789 0.4321 0.1232 0.0
C1254 C 0.09822 0.39918 0.2265 0.0
C1255 C 0.13431 0.40027 0.23682 0.0
C1256 C 0.16942 0.42048 0.2167 0.0
C1257 C 0.16851 0.43965 0.18713 0.0
C1258 C 0.13233 0.43849 0.17813 0.0
C1259 C 0.09782 0.41826 0.19731 0.0
C1260 C 0.06182 0.41862 0.18191 0.0
C1261 C 0.02659 0.37514 0.17668 0.0
C1262 C 0.04836 0.44349 0.20296 0.0
C1263 C 0.08041 0.44 0.14978 0.0
C1264 C 0.12161 0.45319 0.14862 0.0
C1265 C 0.14531 0.47567 0.12183 0.0
C1266 C 0.12598 0.48264 0.09505 0.0
C1267 C 0.08331 0.46552 0.09437 0.0
C1268 C 0.0606 0.44516 0.12272 0.0
H1269 H 0.67538 0.69758 0.24476 0.0
H1270 H 0.64132 0.78915 0.22749 0.0
H1271 H 0.61022 0.75597 0.17424 0.0
H1272 H 0.70332 0.69079 0.16282 0.0
H1273 H 0.68433 0.63677 0.16602 0.0
H1274 H 0.70186 0.66815 0.20205 0.0
H1275 H 0.63194 0.62056 0.22932 0.0
H1276 H 0.61423 0.59037 0.19246 0.0
H1277 H 0.5861 0.61268 0.20961 0.0
H1278 H 0.57999 0.70895 0.12282 0.0
H1279 H 0.56549 0.66219 0.0756 0.0
H1280 H 0.62492 0.60611 0.12629 0.0
C1281 C 0.6614 0.71084 0.22987 0.0
C1282 C 0.66076 0.74602 0.24041 0.0
C1283 C 0.64251 0.76245 0.21986 0.0
C1284 C 0.62437 0.74347 0.18975 0.0
C1285 C 0.62494 0.70824 0.18047 0.0
C1286 C 0.64364 0.69263 0.1999 0.0
C1287 C 0.64236 0.6559 0.18419 0.0
C1288 C 0.68558 0.66341 0.17838 0.0
C1289 C 0.61716 0.61762 0.20515 0.0
C1290 C 0.62097 0.65357 0.15224 0.0
C1291 C 0.60989 0.68313 0.15084 0.0
C1292 C 0.58882 0.68595 0.12377 0.0
C1293 C 0.58034 0.65901 0.09715 0.0
C1294 C 0.59393 0.63045 0.09735 0.0
C1295 C 0.61385 0.62741 0.12557 0.0
H1296 H 0.45234 1.01324 0.13359 0.0
H1297 H 0.38473 0.90216 0.07776 0.0
H1298 H 0.33789 0.87046 0.12505 0.0
H1299 H 0.44152 0.95839 0.2136 0.0
H1300 H 0.44012 0.99803 0.23691 0.0
H1301 H 0.46917 1.01024 0.19936 0.0
H1302 H 0.42907 0.04376 0.17633 0.0
H1303 H 0.4012 0.03206 0.21429 0.0
H1304 H 0.37399 1.01443 0.1762 0.0
H1305 H 0.29164 0.85555 0.17747 0.0
H1306 H 0.25997 0.855 0.23121 0.0
H1307 H 0.36339 0.97346 0.25322 0.0
C1308 C 0.4285 0.98175 0.1317 0.0
C1309 C 0.42211 0.96029 0.1018 0.0
C1310 C 0.39035 0.91925 0.10031 0.0
C1311 C 0.36339 0.90108 0.12709 0.0
C1312 C 0.36953 0.92377 0.15579 0.0
C1313 C 0.40244 0.96274 0.15857 0.0
C1314 C 0.40331 0.98057 0.19213 0.0
C1315 C 0.44075 0.98718 0.21166 0.0
C1316 C 0.40185 0.02011 0.18949 0.0
C1317 C 0.36443 0.94692 0.20704 0.0
C1318 C 0.34508 0.91421 0.18599 0.0
C1319 C 0.30714 0.88087 0.19423 0.0
C1320 C 0.28907 0.88095 0.22473 0.0
C1321 C 0.30886 0.91417 0.24676 0.0
C1322 C 0.34713 0.94732 0.23739 0.0
H1323 H 0.40723 0.05498 0.91853 0.0
H1324 H 0.52672 0.07225 0.89679 0.0
H1325 H 0.52632 0.10363 0.84331 0.0
H1326 H 0.36707 0.02577 0.84174 0.0
H1327 H 0.33752 0.05124 0.84226 0.0
H1328 H 0.34931 0.03505 0.88001 0.0
H1329 H 0.38305 0.10763 0.90313 0.0
H1330 H 0.37078 0.12478 0.86589 0.0
H1331 H 0.42265 0.14903 0.88005 0.0
H1332 H 0.5117 0.13534 0.7914 0.0
H1333 H 0.48024 0.15072 0.74427 0.0
H1334 H 0.36835 0.1056 0.79963 0.0
C1335 C 0.43364 0.06552 0.90277 0.0
C1336 C 0.46702 0.0609 0.91207 0.0
C1337 C 0.50055 0.07492 0.89025 0.0
C1338 C 0.50076 0.09331 0.85995 0.0
C1339 C 0.46729 0.09764 0.85182 0.0
C1340 C 0.43429 0.08374 0.87273 0.0
C1341 C 0.40065 0.08893 0.85791 0.0
C1342 C 0.36125 0.04777 0.85525 0.0
C1343 C 0.3939 0.1194 0.87794 0.0
C1344 C 0.41875 0.1062 0.82451 0.0
C1345 C 0.45791 0.11273 0.82182 0.0
C1346 C 0.48093 0.12985 0.79334 0.0
C1347 C 0.46288 0.13874 0.76667 0.0
C1348 C 0.42168 0.12897 0.76806 0.0
C1349 C 0.39992 0.11347 0.79779 0.0
H1350 H 0.9921 0.35881 0.90971 0.0
H1351 H 0.97249 0.45948 0.8883 0.0
H1352 H 0.94149 0.42705 0.8347 0.0
H1353 H 1.02205 0.3483 0.83325 0.0
H1354 H 0.99755 0.29335 0.83422 0.0
H1355 H 1.01338 0.32195 0.87175 0.0
H1356 H 0.94077 0.28198 0.89505 0.0
H1357 H 0.92408 0.25208 0.85797 0.0
H1358 H 0.8989 0.27892 0.87196 0.0
H1359 H 0.91088 0.37988 0.78232 0.0
H1360 H 0.89673 0.33264 0.73551 0.0
H1361 H 0.94317 0.26826 0.79193 0.0
C1362 C 0.98112 0.3743 0.8941 0.0
C1363 C 0.98491 0.41196 0.90352 0.0
C1364 C 0.97031 0.43084 0.88173 0.0
C1365 C 0.95222 0.41231 0.85137 0.0
C1366 C 0.94873 0.37479 0.8432 0.0
C1367 C 0.96315 0.35638 0.86417 0.0
C1368 C 0.95883 0.31777 0.84963 0.0
C1369 C 1.00046 0.3205 0.84699 0.0
C1370 C 0.92886 0.28049 0.86986 0.0
C1371 C 0.94137 0.3178 0.81626 0.0
C1372 C 0.93411 0.3499 0.81327 0.0
C1373 C 0.9169 0.355 0.78458 0.0
C1374 C 0.9087 0.32784 0.75809 0.0
C1375 C 0.91918 0.29695 0.75989 0.0
C1376 C 0.93471 0.29147 0.78978 0.0
H1377 H 0.77745 0.67891 0.79377 0.0
H1378 H 0.7125 0.56807 0.73727 0.0
H1379 H 0.66302 0.53637 0.78306 0.0
H1380 H 0.76144 0.62371 0.87457 0.0
H1381 H 0.75961 0.664 0.89646 0.0
H1382 H 0.79069 0.67538 0.86014 0.0
H1383 H 0.75293 0.70993 0.83429 0.0
H1384 H 0.72281 0.69864 0.87096 0.0
H1385 H 0.69787 0.68123 0.83195 0.0
H1386 H 0.61445 0.52098 0.83502 0.0
H1387 H 0.58209 0.52036 0.88871 0.0
H1388 H 0.68325 0.64079 0.90913 0.0
C1389 C 0.75361 0.64747 0.79143 0.0
C1390 C 0.74862 0.62615 0.76174 0.0
C1391 C 0.71691 0.58511 0.75969 0.0
C1392 C 0.68848 0.56693 0.7856 0.0
C1393 C 0.69311 0.58966 0.81401 0.0
C1394 C 0.72606 0.62857 0.81738 0.0
C1395 C 0.72536 0.6467 0.85031 0.0
C1396 C 0.7614 0.65278 0.87163 0.0
C1397 C 0.72474 0.68655 0.84656 0.0
C1398 C 0.68551 0.61348 0.86401 0.0
C1399 C 0.66709 0.58039 0.84328 0.0
C1400 C 0.62915 0.54677 0.85142 0.0
C1401 C 0.61057 0.54684 0.88177 0.0
C1402 C 0.6298 0.58048 0.90342 0.0
C1403 C 0.6674 0.61423 0.89364 0.0
H1404 H 0.71242 0.79075 0.46314 0.0
H1405 H 0.81076 0.80409 0.40101 0.0
H1406 H 0.8409 0.78721 0.44772 0.0
H1407 H 0.7762 0.83206 0.53958 0.0
H1408 H 0.73513 0.79716 0.5657 0.0
H1409 H 0.72427 0.81532 0.52833 0.0
H1410 H 0.678 0.74013 0.50743 0.0
H1411 H 0.6876 0.72436 0.54643 0.0
H1412 H 0.69881 0.70651 0.50918 0.0
H1413 H 0.85465 0.75854 0.50063 0.0
H1414 H 0.85413 0.72874 0.55493 0.0
H1415 H 0.74717 0.73566 0.58215 0.0
C1416 C 0.74128 0.7919 0.45982 0.0
C1417 C 0.76022 0.80057 0.42856 0.0
C1418 C 0.79691 0.79984 0.42488 0.0
C1419 C 0.81385 0.78946 0.45132 0.0
C1420 C 0.79392 0.78013 0.48164 0.0
C1421 C 0.75885 0.78219 0.48615 0.0
C1422 C 0.74254 0.76962 0.52082 0.0
C1423 C 0.74468 0.80569 0.53972 0.0
C1424 C 0.69909 0.73302 0.52088 0.0
C1425 C 0.77244 0.758 0.53446 0.0
C1426 C 0.80212 0.76446 0.51174 0.0
C1427 C 0.83169 0.75381 0.51865 0.0
C1428 C 0.83093 0.73641 0.54952 0.0
C1429 C 0.8005 0.7293 0.57307 0.0
C1430 C 0.77112 0.74057 0.56506 0.0
H1431 H 0.24544 0.91796 0.47185 0.0
H1432 H 0.27351 1.01425 0.40246 0.0
H1433 H 0.29177 0.06326 0.4472 0.0
H1434 H 0.20892 0.95889 0.54024 0.0
H1435 H 0.23274 0.94437 0.57147 0.0
H1436 H 0.21439 0.91484 0.53431 0.0
H1437 H 0.28696 0.92517 0.52214 0.0
H1438 H 0.30259 0.95189 0.56068 0.0
H1439 H 0.32994 0.97616 0.52378 0.0
H1440 H 0.31583 0.10435 0.49941 0.0
H1441 H 0.34098 0.13268 0.55461 0.0
H1442 H 0.30167 1.01113 0.59084 0.0
C1443 C 0.25344 0.94896 0.46637 0.0
C1444 C 0.25397 0.9613 0.43345 0.0
C1445 C 0.26781 1.00285 0.42719 0.0
C1446 C 0.27978 0.03141 0.45269 0.0
C1447 C 0.27893 0.01841 0.48476 0.0
C1448 C 0.26593 0.97809 0.49179 0.0
C1449 C 0.27092 0.97285 0.52821 0.0
C1450 C 0.22926 0.94616 0.54452 0.0
C1451 C 0.29925 0.95543 0.53396 0.0
C1452 C 0.29031 0.01661 0.54003 0.0
C1453 C 0.29428 0.04238 0.5147 0.0
C1454 C 0.31254 0.08433 0.51953 0.0
C1455 C 0.32702 0.10031 0.55108 0.0
C1456 C 0.32383 0.0746 0.57745 0.0
C1457 C 0.3049 0.03207 0.5715 0.0
H1458 H 0.02648 0.31655 0.57553 0.0
H1459 H 0.93275 0.1921 0.55658 0.0
H1460 H 0.96601 0.19435 0.50321 0.0
H1461 H 0.03406 0.35265 0.49514 0.0
H1462 H 0.0884 0.38687 0.49736 0.0
H1463 H 0.05802 0.37345 0.53405 0.0
H1464 H 0.10372 0.34868 0.56023 0.0
H1465 H 0.13398 0.36157 0.52332 0.0
H1466 H 0.11071 0.31065 0.53952 0.0
H1467 H 1.0133 0.21155 0.45124 0.0
H1468 H 0.05992 0.24458 0.40398 0.0
H1469 H 0.11804 0.35855 0.4571 0.0
C1470 C 1.01275 0.28955 0.56031 0.0
C1471 C 0.97684 0.25408 0.57044 0.0
C1472 C 0.95996 0.21977 0.54935 0.0
C1473 C 0.97901 0.22068 0.51913 0.0
C1474 C 1.01491 0.25614 0.51026 0.0
C1475 C 0.03111 0.29004 0.53029 0.0
C1476 C 0.06835 0.32538 0.51494 0.0
C1477 C 0.0618 0.36176 0.51003 0.0
C1478 C 0.10644 0.33725 0.53575 0.0
C1479 C 0.07032 0.30681 0.48251 0.0
C1480 C 0.04012 0.26644 0.48049 0.0
C1481 C 0.03677 0.24319 0.45271 0.0
C1482 C 0.06365 0.26209 0.42601 0.0
C1483 C 0.09268 0.30415 0.42679 0.0
C1484 C 0.09645 0.32626 0.45584 0.0
loop_
_geom_bond_atom_site_label_1
_geom_bond_atom_site_label_2
_geom_bond_distance
_geom_bond_site_symmetry_2
_ccdc_geom_bond_type
Eu0 N31 2.657 1_556 S
Eu0 N38 2.609 . S
Eu0 O44 2.558 . S
Eu0 O45 2.612 1_556 S
Eu0 O47 2.339 1_556 S
Eu0 O48 2.563 . S
Eu0 O49 2.419 1_556 S
Eu0 O51 2.375 1_456 S
Eu0 O52 2.432 . S
Eu0 C64 2.848 . S
C1 C4 1.429 . S
C1 C5 1.411 . S
C1 N8 1.353 1_455 S
C2 C4 1.420 1_556 S
C2 C6 1.423 1_556 S
C2 C14 1.392 . S
C3 C5 1.420 . S
C3 C6 1.351 . S
C3 H26 0.931 . S
C4 C1 1.429 . S
C4 C2 1.420 1_554 S
C4 N12 1.362 1_554 S
C5 C1 1.411 . S
C5 C3 1.420 . S
C5 C10 1.395 . S
C6 C2 1.423 1_554 S
C6 C3 1.351 . S
C6 H18 0.930 . S
C7 C9 1.400 . S
C7 C10 1.386 1_655 S
C7 H19 0.930 . S
N8 C1 1.353 1_655 S
N8 C9 1.328 . S
N8 Eu11 2.630 . S
C9 C7 1.400 . S
C9 N8 1.328 . S
C9 H16 0.930 . S
C10 C5 1.395 . S
C10 C7 1.386 1_455 S
C10 H29 0.930 . S
Eu11 N8 2.630 . S
Eu11 N12 2.657 1_654 S
Eu11 O45 2.380 1_655 S
Eu11 O46 2.429 1_655 S
Eu11 O50 2.558 . S
Eu11 O51 2.618 . S
Eu11 O53 2.339 1_554 S
Eu11 O54 2.563 . S
Eu11 O55 2.419 1_554 S
Eu11 C75 2.848 . S
N12 C4 1.362 1_556 S
N12 Eu11 2.657 1_456 S
N12 C13 1.334 . S
C13 N12 1.334 . S
C13 C15 1.413 . S
C13 H20 0.929 . S
C14 C2 1.392 . S
C14 C15 1.367 . S
C14 H22 0.930 . S
C15 C13 1.413 . S
C15 C14 1.367 . S
C15 H17 0.930 . S
H16 C9 0.930 . S
H17 C15 0.930 . S
H18 C6 0.930 . S
H19 C7 0.930 . S
H20 C13 0.929 . S
H21 C35 0.930 . S
H22 C14 0.930 . S
H23 C41 0.930 . S
H24 C32 0.929 1_455 S
H25 C39 0.930 . S
H26 C3 0.931 . S
H27 C33 0.930 . S
H28 C66 0.930 . S
H29 C10 0.930 . S
H30 C65 0.931 . S
N31 Eu0 2.657 1_554 S
N31 C32 1.334 1_455 S
N31 C36 1.362 1_454 S
C32 H24 0.929 1_655 S
C32 N31 1.334 1_655 S
C32 C35 1.413 . S
C33 H27 0.930 . S
C33 C34 1.392 . S
C33 C35 1.367 . S
C34 C33 1.392 . S
C34 C36 1.420 1_554 S
C34 C66 1.423 1_554 S
C35 H21 0.930 . S
C35 C32 1.413 . S
C35 C33 1.367 . S
C36 N31 1.362 1_656 S
C36 C34 1.420 1_556 S
C36 C40 1.429 . S
H37 C42 0.930 . S
N38 Eu0 2.609 . S
N38 C40 1.377 1_455 S
N38 C41 1.321 . S
C39 H25 0.930 . S
C39 C41 1.400 . S
C39 C42 1.386 1_455 S
C40 C36 1.429 . S
C40 N38 1.377 1_655 S
C40 C43 1.411 . S
C41 H23 0.930 . S
C41 N38 1.321 . S
C41 C39 1.400 . S
C42 H37 0.930 . S
C42 C39 1.386 1_655 S
C42 C43 1.395 . S
C43 C40 1.411 . S
C43 C42 1.395 . S
C43 C65 1.420 . S
O44 Eu0 2.558 . S
O44 C64 1.257 . S
O45 Eu0 2.612 1_554 S
O45 Eu11 2.380 1_455 S
O45 C56 1.276 1_554 S
O46 Eu11 2.429 1_455 S
O46 C63 1.277 . S
O47 Eu0 2.339 1_554 S
O47 C63 1.254 . S
O48 Eu0 2.563 . S
O48 C56 1.235 . S
O49 Eu0 2.419 1_554 S
O49 C64 1.249 1_554 S
O50 Eu11 2.558 . S
O50 C75 1.257 . S
O51 Eu0 2.375 1_654 S
O51 Eu11 2.618 . S
O51 C67 1.282 . S
O52 Eu0 2.432 . S
O52 C74 1.264 1_455 S
O53 Eu11 2.339 1_556 S
O53 C74 1.254 . S
O54 Eu11 2.563 . S
O54 C67 1.235 . S
O55 Eu11 2.419 1_556 S
O55 C75 1.249 1_556 S
C56 O45 1.276 1_556 S
C56 O48 1.235 . S
C57 C59 1.393 1_556 S
C57 C61 1.395 . S
C57 C64 1.492 . S
C58 C59 1.392 . S
C58 C60 1.386 1_554 S
C59 C57 1.393 1_554 S
C59 C58 1.392 . S
C59 H76 0.930 . S
C60 C58 1.386 1_556 S
C60 C62 1.395 . S
C60 H77 0.930 . S
C61 C57 1.395 . S
C61 C62 1.379 . S
C61 H78 0.930 . S
C62 C60 1.395 . S
C62 C61 1.379 . S
C62 H79 0.930 . S
C63 O46 1.277 . S
C63 O47 1.254 . S
C64 Eu0 2.848 . S
C64 O44 1.257 . S
C64 O49 1.249 1_556 S
C64 C57 1.492 . S
C65 H30 0.931 . S
C65 C43 1.420 . S
C65 C66 1.351 . S
C66 H28 0.930 . S
C66 C34 1.423 1_556 S
C66 C65 1.351 . S
C67 O51 1.282 . S
C67 O54 1.235 . S
C68 C69 1.393 1_554 S
C68 C72 1.395 . S
C68 C75 1.492 . S
C69 C68 1.393 1_556 S
C69 C70 1.392 . S
C69 H80 0.930 . S
C70 C69 1.392 . S
C70 C71 1.386 1_556 S
C71 C70 1.386 1_554 S
C71 C73 1.395 . S
C71 H81 0.930 . S
C72 C68 1.395 . S
C72 C73 1.379 . S
C72 H82 0.930 . S
C73 C71 1.395 . S
C73 C72 1.379 . S
C73 H83 0.930 . S
C74 O52 1.264 1_655 S
C74 O53 1.254 . S
C75 Eu11 2.848 . S
C75 O50 1.257 . S
C75 O55 1.249 1_554 S
C75 C68 1.492 . S
H76 C59 0.930 . S
H77 C60 0.930 . S
H78 C61 0.930 . S
H79 C62 0.930 . S
H80 C69 0.930 . S
H81 C71 0.930 . S
H82 C72 0.930 . S
H83 C73 0.930 . S
Eu84 N115 2.657 1_556 S
Eu84 N122 2.609 . S
Eu84 O128 2.558 . S
Eu84 O129 2.612 1_556 S
Eu84 O131 2.339 1_556 S
Eu84 O132 2.563 . S
Eu84 O133 2.419 1_556 S
Eu84 O135 2.375 1_556 S
Eu84 O136 2.432 . S
Eu84 C148 2.848 . S
C85 C88 1.429 . S
C85 C89 1.411 . S
C85 N92 1.377 . S
C86 C88 1.420 1_556 S
C86 C90 1.423 1_556 S
C86 C98 1.392 . S
C87 C89 1.420 . S
C87 C90 1.351 . S
C87 H110 0.931 . S
C88 C85 1.429 . S
C88 C86 1.420 1_554 S
C88 N96 1.362 1_554 S
C89 C85 1.411 . S
C89 C87 1.420 . S
C89 C94 1.395 . S
C90 C86 1.423 1_554 S
C90 C87 1.351 . S
C90 H102 0.930 . S
C91 C93 1.400 . S
C91 C94 1.386 . S
C91 H103 0.930 . S
N92 C85 1.377 . S
N92 C93 1.321 . S
N92 Eu95 2.609 . S
C93 C91 1.400 . S
C93 N92 1.321 . S
C93 H100 0.930 . S
C94 C89 1.395 . S
C94 C91 1.386 . S
C94 H113 0.930 . S
Eu95 N92 2.609 . S
Eu95 N96 2.657 1_554 S
Eu95 O129 2.380 . S
Eu95 O130 2.432 . S
Eu95 O134 2.558 . S
Eu95 O135 2.619 . S
Eu95 O137 2.339 1_554 S
Eu95 O138 2.563 . S
Eu95 O139 2.419 1_554 S
Eu95 C159 2.848 . S
N96 C88 1.362 1_556 S
N96 Eu95 2.657 1_556 S
N96 C97 1.334 . S
C97 N96 1.334 . S
C97 C99 1.413 . S
C97 H104 0.929 . S
C98 C86 1.392 . S
C98 C99 1.367 . S
C98 H106 0.930 . S
C99 C97 1.413 . S
C99 C98 1.367 . S
C99 H101 0.930 . S
H100 C93 0.930 . S
H101 C99 0.930 . S
H102 C90 0.930 . S
H103 C91 0.930 . S
H104 C97 0.929 . S
H105 C119 0.930 . S
H106 C98 0.930 . S
H107 C125 0.930 . S
H108 C116 0.929 . S
H109 C123 0.930 . S
H110 C87 0.931 . S
H111 C117 0.930 . S
H112 C150 0.930 . S
H113 C94 0.930 . S
H114 C149 0.931 . S
N115 Eu84 2.657 1_554 S
N115 C116 1.334 . S
N115 C120 1.362 1_554 S
C116 H108 0.929 . S
C116 N115 1.334 . S
C116 C119 1.413 . S
C117 H111 0.930 . S
C117 C118 1.392 . S
C117 C119 1.367 . S
C118 C117 1.392 . S
C118 C120 1.420 1_554 S
C118 C150 1.423 1_554 S
C119 H105 0.930 . S
C119 C116 1.413 . S
C119 C117 1.367 . S
C120 N115 1.362 1_556 S
C120 C118 1.420 1_556 S
C120 C124 1.429 . S
H121 C126 0.930 . S
N122 Eu84 2.609 . S
N122 C124 1.377 . S
N122 C125 1.321 . S
C123 H109 0.930 . S
C123 C125 1.400 . S
C123 C126 1.386 . S
C124 C120 1.429 . S
C124 N122 1.377 . S
C124 C127 1.411 . S
C125 H107 0.930 . S
C125 N122 1.321 . S
C125 C123 1.400 . S
C126 H121 0.930 . S
C126 C123 1.386 . S
C126 C127 1.395 . S
C127 C124 1.411 . S
C127 C126 1.395 . S
C127 C149 1.420 . S
O128 Eu84 2.558 . S
O128 C148 1.257 . S
O129 Eu84 2.612 1_554 S
O129 Eu95 2.380 . S
O129 C140 1.276 1_554 S
O130 Eu95 2.432 . S
O130 C147 1.264 . S
O131 Eu84 2.339 1_554 S
O131 C147 1.254 . S
O132 Eu84 2.563 . S
O132 C140 1.235 . S
O133 Eu84 2.419 1_554 S
O133 C148 1.249 1_554 S
O134 Eu95 2.558 . S
O134 C159 1.257 . S
O135 Eu84 2.375 1_554 S
O135 Eu95 2.619 . S
O135 C151 1.282 . S
O136 Eu84 2.432 . S
O136 C158 1.264 . S
O137 Eu95 2.339 1_556 S
O137 C158 1.254 . S
O138 Eu95 2.563 . S
O138 C151 1.235 . S
O139 Eu95 2.419 1_556 S
O139 C159 1.249 1_556 S
C140 O129 1.276 1_556 S
C140 O132 1.235 . S
C141 C143 1.393 1_556 S
C141 C145 1.395 . S
C141 C148 1.492 . S
C142 C143 1.392 . S
C142 C144 1.386 1_554 S
C143 C141 1.393 1_554 S
C143 C142 1.392 . S
C143 H160 0.930 . S
C144 C142 1.386 1_556 S
C144 C146 1.395 . S
C144 H161 0.930 . S
C145 C141 1.395 . S
C145 C146 1.379 . S
C145 H162 0.930 . S
C146 C144 1.395 . S
C146 C145 1.379 . S
C146 H163 0.930 . S
C147 O130 1.264 . S
C147 O131 1.254 . S
C148 Eu84 2.848 . S
C148 O128 1.257 . S
C148 O133 1.249 1_556 S
C148 C141 1.492 . S
C149 H114 0.931 . S
C149 C127 1.420 . S
C149 C150 1.351 . S
C150 H112 0.930 . S
C150 C118 1.423 1_556 S
C150 C149 1.351 . S
C151 O135 1.282 . S
C151 O138 1.235 . S
C152 C153 1.393 1_554 S
C152 C156 1.395 . S
C152 C159 1.492 . S
C153 C152 1.393 1_556 S
C153 C154 1.392 . S
C153 H164 0.930 . S
C154 C153 1.392 . S
C154 C155 1.386 1_556 S
C155 C154 1.386 1_554 S
C155 C157 1.395 . S
C155 H165 0.930 . S
C156 C152 1.395 . S
C156 C157 1.379 . S
C156 H166 0.930 . S
C157 C155 1.395 . S
C157 C156 1.379 . S
C157 H167 0.930 . S
C158 O136 1.264 . S
C158 O137 1.254 . S
C159 Eu95 2.848 . S
C159 O134 1.257 . S
C159 O139 1.249 1_554 S
C159 C152 1.492 . S
H160 C143 0.930 . S
H161 C144 0.930 . S
H162 C145 0.930 . S
H163 C146 0.930 . S
H164 C153 0.930 . S
H165 C155 0.930 . S
H166 C156 0.930 . S
H167 C157 0.930 . S
Eu168 N199 2.657 1_566 S
Eu168 N206 2.609 . S
Eu168 O212 2.558 . S
Eu168 O213 2.612 1_556 S
Eu168 O215 2.339 1_556 S
Eu168 O216 2.563 . S
Eu168 O217 2.419 1_556 S
Eu168 O219 2.375 1_566 S
Eu168 O220 2.422 1_565 S
Eu168 C232 2.848 . S
C169 C172 1.429 . S
C169 C173 1.411 . S
C169 N176 1.377 1_565 S
C170 C172 1.420 1_556 S
C170 C174 1.423 1_556 S
C170 C182 1.392 . S
C171 C173 1.420 . S
C171 C174 1.351 . S
C171 H194 0.931 . S
C172 C169 1.429 . S
C172 C170 1.420 1_554 S
C172 N180 1.362 1_564 S
C173 C169 1.411 . S
C173 C171 1.420 . S
C173 C178 1.395 . S
C174 C170 1.423 1_554 S
C174 C171 1.351 . S
C174 H186 0.930 . S
C175 C177 1.400 . S
C175 C178 1.386 1_545 S
C175 H187 0.930 . S
N176 C169 1.377 1_545 S
N176 C177 1.321 . S
N176 Eu179 2.609 . S
C177 C175 1.400 . S
C177 N176 1.321 . S
C177 H184 0.930 . S
C178 C173 1.395 . S
C178 C175 1.386 1_565 S
C178 H197 0.930 . S
Eu179 N176 2.609 . S
Eu179 N180 2.657 1_554 S
Eu179 O213 2.380 1_545 S
Eu179 O214 2.432 . S
Eu179 O218 2.558 . S
Eu179 O219 2.619 . S
Eu179 O221 2.339 1_554 S
Eu179 O222 2.563 . S
Eu179 O223 2.419 1_554 S
Eu179 C243 2.848 . S
N180 C172 1.362 1_546 S
N180 Eu179 2.657 1_556 S
N180 C181 1.334 1_545 S
C181 N180 1.334 1_565 S
C181 C183 1.413 . S
C181 H188 0.929 1_565 S
C182 C170 1.392 . S
C182 C183 1.367 . S
C182 H190 0.930 . S
C183 C181 1.413 . S
C183 C182 1.367 . S
C183 H185 0.930 . S
H184 C177 0.930 . S
H185 C183 0.930 . S
H186 C174 0.930 . S
H187 C175 0.930 . S
H188 C181 0.929 1_545 S
H189 C203 0.930 . S
H190 C182 0.930 . S
H191 C209 0.930 . S
H192 C200 0.929 . S
H193 C207 0.930 . S
H194 C171 0.931 . S
H195 C201 0.930 . S
H196 C234 0.930 . S
H197 C178 0.930 . S
H198 C233 0.931 . S
N199 Eu168 2.657 1_544 S
N199 C200 1.334 . S
N199 C204 1.362 1_554 S
C200 H192 0.929 . S
C200 N199 1.334 . S
C200 C203 1.413 . S
C201 H195 0.930 . S
C201 C202 1.392 . S
C201 C203 1.367 . S
C202 C201 1.392 . S
C202 C204 1.420 1_554 S
C202 C234 1.423 1_554 S
C203 H189 0.930 . S
C203 C200 1.413 . S
C203 C201 1.367 . S
C204 N199 1.362 1_556 S
C204 C202 1.420 1_556 S
C204 C208 1.429 . S
H205 C210 0.930 . S
N206 Eu168 2.609 . S
N206 C208 1.377 1_565 S
N206 C209 1.321 . S
C207 H193 0.930 . S
C207 C209 1.400 . S
C207 C210 1.386 1_565 S
C208 C204 1.429 . S
C208 N206 1.377 1_545 S
C208 C211 1.411 . S
C209 H191 0.930 . S
C209 N206 1.321 . S
C209 C207 1.400 . S
C210 H205 0.930 . S
C210 C207 1.386 1_545 S
C210 C211 1.395 . S
C211 C208 1.411 . S
C211 C210 1.395 . S
C211 C233 1.420 . S
O212 Eu168 2.558 . S
O212 C232 1.257 . S
O213 Eu168 2.612 1_554 S
O213 Eu179 2.380 1_565 S
O213 C224 1.276 1_554 S
O214 Eu179 2.432 . S
O214 C231 1.264 1_545 S
O215 Eu168 2.339 1_554 S
O215 C231 1.254 . S
O216 Eu168 2.563 . S
O216 C224 1.235 . S
O217 Eu168 2.419 1_554 S
O217 C232 1.249 1_554 S
O218 Eu179 2.558 . S
O218 C243 1.257 . S
O219 Eu168 2.375 1_544 S
O219 Eu179 2.619 . S
O219 C235 1.282 . S
O220 Eu168 2.422 1_545 S
O220 C242 1.284 . S
O221 Eu179 2.339 1_556 S
O221 C242 1.254 . S
O222 Eu179 2.563 . S
O222 C235 1.235 . S
O223 Eu179 2.419 1_556 S
O223 C243 1.249 1_556 S
C224 O213 1.276 1_556 S
C224 O216 1.235 . S
C225 C227 1.393 1_556 S
C225 C229 1.395 . S
C225 C232 1.492 . S
C226 C227 1.392 . S
C226 C228 1.386 1_554 S
C227 C225 1.393 1_554 S
C227 C226 1.392 . S
C227 H244 0.930 . S
C228 C226 1.386 1_556 S
C228 C230 1.395 . S
C228 H245 0.930 . S
C229 C225 1.395 . S
C229 C230 1.379 . S
C229 H246 0.930 . S
C230 C228 1.395 . S
C230 C229 1.379 . S
C230 H247 0.930 . S
C231 O214 1.264 1_565 S
C231 O215 1.254 . S
C232 Eu168 2.848 . S
C232 O212 1.257 . S
C232 O217 1.249 1_556 S
C232 C225 1.492 . S
C233 H198 0.931 . S
C233 C211 1.420 . S
C233 C234 1.351 . S
C234 H196 0.930 . S
C234 C202 1.423 1_556 S
C234 C233 1.351 . S
C235 O219 1.282 . S
C235 O222 1.235 . S
C236 C237 1.393 1_554 S
C236 C240 1.395 . S
C236 C243 1.492 . S
C237 C236 1.393 1_556 S
C237 C238 1.392 . S
C237 H248 0.930 . S
C238 C237 1.392 . S
C238 C239 1.386 1_556 S
C239 C238 1.386 1_554 S
C239 C241 1.395 . S
C239 H249 0.930 . S
C240 C236 1.395 . S
C240 C241 1.379 . S
C240 H250 0.930 . S
C241 C239 1.395 . S
C241 C240 1.379 . S
C241 H251 0.930 . S
C242 O220 1.284 . S
C242 O221 1.254 . S
C243 Eu179 2.848 . S
C243 O218 1.257 . S
C243 O223 1.249 1_554 S
C243 C236 1.492 . S
H244 C227 0.930 . S
H245 C228 0.930 . S
H246 C229 0.930 . S
H247 C230 0.930 . S
H248 C237 0.930 . S
H249 C239 0.930 . S
H250 C240 0.930 . S
H251 C241 0.930 . S
Eu252 N283 2.657 . S
Eu252 N290 2.609 . S
Eu252 O296 2.558 . S
Eu252 O297 2.612 . S
Eu252 O299 2.339 . S
Eu252 O300 2.563 . S
Eu252 O301 2.419 . S
Eu252 O303 2.380 . S
Eu252 O304 2.432 . S
Eu252 C316 2.848 . S
C253 C256 1.429 . S
C253 C257 1.411 . S
C253 N260 1.377 . S
C254 C256 1.420 . S
C254 C258 1.423 . S
C254 C266 1.392 . S
C255 C257 1.420 . S
C255 C258 1.351 . S
C255 H278 0.931 . S
C256 C253 1.429 . S
C256 C254 1.420 . S
C256 N264 1.362 . S
C257 C253 1.411 . S
C257 C255 1.420 . S
C257 C262 1.395 . S
C258 C254 1.423 . S
C258 C255 1.351 . S
C258 H270 0.930 . S
C259 C261 1.400 . S
C259 C262 1.386 . S
C259 H271 0.930 . S
N260 C253 1.377 . S
N260 C261 1.321 . S
N260 Eu263 2.609 . S
C261 C259 1.400 . S
C261 N260 1.321 . S
C261 H268 0.930 . S
C262 C257 1.395 . S
C262 C259 1.386 . S
C262 H281 0.930 . S
Eu263 N260 2.609 . S
Eu263 N264 2.657 . S
Eu263 O297 2.380 . S
Eu263 O298 2.432 . S
Eu263 O302 2.558 . S
Eu263 O303 2.612 . S
Eu263 O305 2.339 . S
Eu263 O306 2.563 . S
Eu263 O307 2.419 . S
Eu263 C327 2.848 . S
N264 C256 1.362 . S
N264 Eu263 2.657 . S
N264 C265 1.334 . S
C265 N264 1.334 . S
C265 C267 1.413 . S
C265 H272 0.929 . S
C266 C254 1.392 . S
C266 C267 1.367 . S
C266 H274 0.930 . S
C267 C265 1.413 . S
C267 C266 1.367 . S
C267 H269 0.930 . S
H268 C261 0.930 . S
H269 C267 0.930 . S
H270 C258 0.930 . S
H271 C259 0.930 . S
H272 C265 0.929 . S
H273 C287 0.930 . S
H274 C266 0.930 . S
H275 C293 0.930 . S
H276 C284 0.929 . S
H277 C291 0.930 . S
H278 C255 0.931 . S
H279 C285 0.930 . S
H280 C318 0.930 . S
H281 C262 0.930 . S
H282 C317 0.931 . S
N283 Eu252 2.657 . S
N283 C284 1.334 . S
N283 C288 1.362 . S
C284 H276 0.929 . S
C284 N283 1.334 . S
C284 C287 1.413 . S
C285 H279 0.930 . S
C285 C286 1.392 . S
C285 C287 1.367 . S
C286 C285 1.392 . S
C286 C288 1.420 . S
C286 C318 1.423 . S
C287 H273 0.930 . S
C287 C284 1.413 . S
C287 C285 1.367 . S
C288 N283 1.362 . S
C288 C286 1.420 . S
C288 C292 1.429 . S
H289 C294 0.930 . S
N290 Eu252 2.609 . S
N290 C292 1.377 . S
N290 C293 1.321 . S
C291 H277 0.930 . S
C291 C293 1.400 . S
C291 C294 1.386 . S
C292 C288 1.429 . S
C292 N290 1.377 . S
C292 C295 1.411 . S
C293 H275 0.930 . S
C293 N290 1.321 . S
C293 C291 1.400 . S
C294 H289 0.930 . S
C294 C291 1.386 . S
C294 C295 1.395 . S
C295 C292 1.411 . S
C295 C294 1.395 . S
C295 C317 1.420 . S
O296 Eu252 2.558 . S
O296 C316 1.257 . S
O297 Eu252 2.612 . S
O297 Eu263 2.380 . S
O297 C308 1.276 . S
O298 Eu263 2.432 . S
O298 C315 1.264 . S
O299 Eu252 2.339 . S
O299 C315 1.254 . S
O300 Eu252 2.563 . S
O300 C308 1.235 . S
O301 Eu252 2.419 . S
O301 C316 1.249 . S
O302 Eu263 2.558 . S
O302 C327 1.257 . S
O303 Eu252 2.380 . S
O303 Eu263 2.612 . S
O303 C319 1.276 . S
O304 Eu252 2.432 . S
O304 C326 1.264 . S
O305 Eu263 2.339 . S
O305 C326 1.254 . S
O306 Eu263 2.563 . S
O306 C319 1.235 . S
O307 Eu263 2.419 . S
O307 C327 1.249 . S
C308 O297 1.276 . S
C308 O300 1.235 . S
C309 C311 1.393 . S
C309 C313 1.395 . S
C309 C316 1.492 . S
C310 C311 1.392 1_545 S
C310 C312 1.386 . S
C311 C309 1.393 . S
C311 C310 1.392 1_565 S
C311 H328 0.930 . S
C312 C310 1.386 . S
C312 C314 1.395 . S
C312 H329 0.930 . S
C313 C309 1.395 . S
C313 C314 1.379 1_565 S
C313 H330 0.930 . S
C314 C312 1.395 . S
C314 C313 1.379 1_545 S
C314 H331 0.930 . S
C315 O298 1.264 . S
C315 O299 1.254 . S
C316 Eu252 2.848 . S
C316 O296 1.257 . S
C316 O301 1.249 . S
C316 C309 1.492 . S
C317 H282 0.931 . S
C317 C295 1.420 . S
C317 C318 1.351 . S
C318 H280 0.930 . S
C318 C286 1.423 . S
C318 C317 1.351 . S
C319 O303 1.276 . S
C319 O306 1.235 . S
C320 C321 1.393 . S
C320 C324 1.395 . S
C320 C327 1.492 . S
C321 C320 1.393 . S
C321 C322 1.392 . S
C321 H332 0.930 . S
C322 C321 1.392 . S
C322 C323 1.386 . S
C323 C322 1.386 . S
C323 C325 1.395 . S
C323 H333 0.930 . S
C324 C320 1.395 . S
C324 C325 1.379 . S
C324 H334 0.930 . S
C325 C323 1.395 . S
C325 C324 1.379 . S
C325 H335 0.930 . S
C326 O304 1.264 . S
C326 O305 1.254 . S
C327 Eu263 2.848 . S
C327 O302 1.257 . S
C327 O307 1.249 . S
C327 C320 1.492 . S
H328 C311 0.930 . S
H329 C312 0.930 . S
H330 C313 0.930 . S
H331 C314 0.930 . S
H332 C321 0.930 . S
H333 C323 0.930 . S
H334 C324 0.930 . S
H335 C325 0.930 . S
Eu336 N367 2.657 . S
Eu336 N374 2.609 . S
Eu336 O380 2.558 . S
Eu336 O381 2.612 . S
Eu336 O383 2.339 . S
Eu336 O384 2.563 . S
Eu336 O385 2.419 . S
Eu336 O387 2.380 . S
Eu336 O388 2.432 . S
Eu336 C400 2.848 . S
C337 C340 1.429 . S
C337 C341 1.411 1_565 S
C337 N344 1.377 . S
C338 C340 1.420 1_545 S
C338 C342 1.423 . S
C338 C350 1.392 . S
C339 C341 1.420 . S
C339 C342 1.351 . S
C339 H362 0.931 . S
C340 C337 1.429 . S
C340 C338 1.420 1_565 S
C340 N348 1.362 . S
C341 C337 1.411 1_545 S
C341 C339 1.420 . S
C341 C346 1.395 . S
C342 C338 1.423 . S
C342 C339 1.351 . S
C342 H354 0.930 . S
C343 C345 1.400 . S
C343 C346 1.386 1_565 S
C343 H355 0.930 . S
N344 C337 1.377 . S
N344 C345 1.321 . S
N344 Eu347 2.609 . S
C345 C343 1.400 . S
C345 N344 1.321 . S
C345 H352 0.930 . S
C346 C341 1.395 . S
C346 C343 1.386 1_545 S
C346 H365 0.930 . S
Eu347 N344 2.609 . S
Eu347 N348 2.657 . S
Eu347 O381 2.380 . S
Eu347 O382 2.432 . S
Eu347 O386 2.558 . S
Eu347 O387 2.612 . S
Eu347 O389 2.339 . S
Eu347 O390 2.563 . S
Eu347 O391 2.419 . S
Eu347 C411 2.848 . S
N348 C340 1.362 . S
N348 Eu347 2.657 . S
N348 C349 1.334 . S
C349 N348 1.334 . S
C349 C351 1.413 1_565 S
C349 H356 0.929 . S
C350 C338 1.392 . S
C350 C351 1.367 . S
C350 H358 0.930 . S
C351 C349 1.413 1_545 S
C351 C350 1.367 . S
C351 H353 0.930 . S
H352 C345 0.930 . S
H353 C351 0.930 . S
H354 C342 0.930 . S
H355 C343 0.930 . S
H356 C349 0.929 . S
H357 C371 0.930 . S
H358 C350 0.930 . S
H359 C377 0.930 . S
H360 C368 0.929 . S
H361 C375 0.930 . S
H362 C339 0.931 . S
H363 C369 0.930 . S
H364 C402 0.930 . S
H365 C346 0.930 . S
H366 C401 0.931 . S
N367 Eu336 2.657 . S
N367 C368 1.334 . S
N367 C372 1.362 . S
C368 H360 0.929 . S
C368 N367 1.334 . S
C368 C371 1.413 . S
C369 H363 0.930 . S
C369 C370 1.392 . S
C369 C371 1.367 . S
C370 C369 1.392 . S
C370 C372 1.420 . S
C370 C402 1.423 . S
C371 H357 0.930 . S
C371 C368 1.413 . S
C371 C369 1.367 . S
C372 N367 1.362 . S
C372 C370 1.420 . S
C372 C376 1.429 . S
H373 C378 0.930 . S
N374 Eu336 2.609 . S
N374 C376 1.377 . S
N374 C377 1.321 . S
C375 H361 0.930 . S
C375 C377 1.400 . S
C375 C378 1.386 . S
C376 C372 1.429 . S
C376 N374 1.377 . S
C376 C379 1.411 . S
C377 H359 0.930 . S
C377 N374 1.321 . S
C377 C375 1.400 . S
C378 H373 0.930 . S
C378 C375 1.386 . S
C378 C379 1.395 . S
C379 C376 1.411 . S
C379 C378 1.395 . S
C379 C401 1.420 . S
O380 Eu336 2.558 . S
O380 C400 1.257 . S
O381 Eu336 2.612 . S
O381 Eu347 2.380 . S
O381 C392 1.276 . S
O382 Eu347 2.432 . S
O382 C399 1.264 . S
O383 Eu336 2.339 . S
O383 C399 1.254 . S
O384 Eu336 2.563 . S
O384 C392 1.235 . S
O385 Eu336 2.419 . S
O385 C400 1.249 . S
O386 Eu347 2.558 . S
O386 C411 1.257 . S
O387 Eu336 2.380 . S
O387 Eu347 2.612 . S
O387 C403 1.276 . S
O388 Eu336 2.432 . S
O388 C410 1.264 . S
O389 Eu347 2.339 . S
O389 C410 1.254 . S
O390 Eu347 2.563 . S
O390 C403 1.235 . S
O391 Eu347 2.419 . S
O391 C411 1.249 . S
C392 O381 1.276 . S
C392 O384 1.235 . S
C393 C395 1.393 . S
C393 C397 1.395 . S
C393 C400 1.492 . S
C394 C395 1.392 1_655 S
C394 C396 1.386 . S
C395 C393 1.393 . S
C395 C394 1.392 1_455 S
C395 H412 0.930 . S
C396 C394 1.386 . S
C396 C398 1.395 . S
C396 H413 0.930 . S
C397 C393 1.395 . S
C397 C398 1.379 1_455 S
C397 H414 0.930 . S
C398 C396 1.395 . S
C398 C397 1.379 1_655 S
C398 H415 0.930 . S
C399 O382 1.264 . S
C399 O383 1.254 . S
C400 Eu336 2.848 . S
C400 O380 1.257 . S
C400 O385 1.249 . S
C400 C393 1.492 . S
C401 H366 0.931 . S
C401 C379 1.420 . S
C401 C402 1.351 . S
C402 H364 0.930 . S
C402 C370 1.423 . S
C402 C401 1.351 . S
C403 O387 1.276 . S
C403 O390 1.235 . S
C404 C405 1.393 . S
C404 C408 1.395 . S
C404 C411 1.492 . S
C405 C404 1.393 . S
C405 C406 1.392 . S
C405 H416 0.930 . S
C406 C405 1.392 . S
C406 C407 1.386 . S
C407 C406 1.386 . S
C407 C409 1.395 . S
C407 H417 0.930 . S
C408 C404 1.395 . S
C408 C409 1.379 . S
C408 H418 0.930 . S
C409 C407 1.395 . S
C409 C408 1.379 . S
C409 H419 0.930 . S
C410 O388 1.264 . S
C410 O389 1.254 . S
C411 Eu347 2.848 . S
C411 O386 1.257 . S
C411 O391 1.249 . S
C411 C404 1.492 . S
H412 C395 0.930 . S
H413 C396 0.930 . S
H414 C397 0.930 . S
H415 C398 0.930 . S
H416 C405 0.930 . S
H417 C407 0.930 . S
H418 C408 0.930 . S
H419 C409 0.930 . S
Eu420 N451 2.657 . S
Eu420 N458 2.609 . S
Eu420 O464 2.558 . S
Eu420 O465 2.612 . S
Eu420 O467 2.339 . S
Eu420 O468 2.563 . S
Eu420 O469 2.419 . S
Eu420 O471 2.380 . S
Eu420 O472 2.432 . S
Eu420 C484 2.848 . S
C421 C424 1.429 . S
C421 C425 1.411 1_455 S
C421 N428 1.377 . S
C422 C424 1.420 1_655 S
C422 C426 1.423 . S
C422 C434 1.392 . S
C423 C425 1.420 . S
C423 C426 1.351 . S
C423 H446 0.931 . S
C424 C421 1.429 . S
C424 C422 1.420 1_455 S
C424 N432 1.362 . S
C425 C421 1.411 1_655 S
C425 C423 1.420 . S
C425 C430 1.395 . S
C426 C422 1.423 . S
C426 C423 1.351 . S
C426 H438 0.930 . S
C427 C429 1.400 . S
C427 C430 1.386 1_455 S
C427 H439 0.930 . S
N428 C421 1.377 . S
N428 C429 1.321 . S
N428 Eu431 2.609 . S
C429 C427 1.400 . S
C429 N428 1.321 . S
C429 H436 0.930 . S
C430 C425 1.395 . S
C430 C427 1.386 1_655 S
C430 H449 0.930 . S
Eu431 N428 2.609 . S
Eu431 N432 2.657 . S
Eu431 O465 2.380 . S
Eu431 O466 2.432 . S
Eu431 O470 2.558 . S
Eu431 O471 2.612 . S
Eu431 O473 2.339 . S
Eu431 O474 2.563 . S
Eu431 O475 2.419 . S
Eu431 C495 2.848 . S
N432 C424 1.362 . S
N432 Eu431 2.657 . S
N432 C433 1.334 . S
C433 N432 1.334 . S
C433 C435 1.413 . S
C433 H440 0.929 . S
C434 C422 1.392 . S
C434 C435 1.367 1_655 S
C434 H442 0.930 . S
C435 C433 1.413 . S
C435 C434 1.367 1_455 S
C435 H437 0.930 . S
H436 C429 0.930 . S
H437 C435 0.930 . S
H438 C426 0.930 . S
H439 C427 0.930 . S
H440 C433 0.929 . S
H441 C455 0.930 . S
H442 C434 0.930 . S
H443 C461 0.930 . S
H444 C452 0.929 . S
H445 C459 0.930 . S
H446 C423 0.931 . S
H447 C453 0.930 . S
H448 C486 0.930 . S
H449 C430 0.930 . S
H450 C485 0.931 . S
N451 Eu420 2.657 . S
N451 C452 1.334 . S
N451 C456 1.362 . S
C452 H444 0.929 . S
C452 N451 1.334 . S
C452 C455 1.413 . S
C453 H447 0.930 . S
C453 C454 1.392 . S
C453 C455 1.367 . S
C454 C453 1.392 . S
C454 C456 1.420 . S
C454 C486 1.423 . S
C455 H441 0.930 . S
C455 C452 1.413 . S
C455 C453 1.367 . S
C456 N451 1.362 . S
C456 C454 1.420 . S
C456 C460 1.429 . S
H457 C462 0.930 . S
N458 Eu420 2.609 . S
N458 C460 1.377 . S
N458 C461 1.321 . S
C459 H445 0.930 . S
C459 C461 1.400 . S
C459 C462 1.386 . S
C460 C456 1.429 . S
C460 N458 1.377 . S
C460 C463 1.411 . S
C461 H443 0.930 . S
C461 N458 1.321 . S
C461 C459 1.400 . S
C462 H457 0.930 . S
C462 C459 1.386 . S
C462 C463 1.395 . S
C463 C460 1.411 . S
C463 C462 1.395 . S
C463 C485 1.420 . S
O464 Eu420 2.558 . S
O464 C484 1.257 . S
O465 Eu420 2.612 . S
O465 Eu431 2.380 . S
O465 C476 1.276 . S
O466 Eu431 2.432 . S
O466 C483 1.264 . S
O467 Eu420 2.339 . S
O467 C483 1.254 . S
O468 Eu420 2.563 . S
O468 C476 1.235 . S
O469 Eu420 2.419 . S
O469 C484 1.249 . S
O470 Eu431 2.558 . S
O470 C495 1.257 . S
O471 Eu420 2.380 . S
O471 Eu431 2.612 . S
O471 C487 1.276 . S
O472 Eu420 2.432 . S
O472 C494 1.264 . S
O473 Eu431 2.339 . S
O473 C494 1.254 . S
O474 Eu431 2.563 . S
O474 C487 1.235 . S
O475 Eu431 2.419 . S
O475 C495 1.249 . S
C476 O465 1.276 . S
C476 O468 1.235 . S
C477 C479 1.393 . S
C477 C481 1.395 . S
C477 C484 1.492 . S
C478 C479 1.392 . S
C478 C480 1.386 . S
C479 C477 1.393 . S
C479 C478 1.392 . S
C479 H496 0.930 . S
C480 C478 1.386 . S
C480 C482 1.395 . S
C480 H497 0.930 . S
C481 C477 1.395 . S
C481 C482 1.379 . S
C481 H498 0.930 . S
C482 C480 1.395 . S
C482 C481 1.379 . S
C482 H499 0.930 . S
C483 O466 1.264 . S
C483 O467 1.254 . S
C484 Eu420 2.848 . S
C484 O464 1.257 . S
C484 O469 1.249 . S
C484 C477 1.492 . S
C485 H450 0.931 . S
C485 C463 1.420 . S
C485 C486 1.351 . S
C486 H448 0.930 . S
C486 C454 1.423 . S
C486 C485 1.351 . S
C487 O471 1.276 . S
C487 O474 1.235 . S
C488 C489 1.393 . S
C488 C492 1.395 . S
C488 C495 1.492 . S
C489 C488 1.393 . S
C489 C490 1.392 . S
C489 H500 0.930 . S
C490 C489 1.392 . S
C490 C491 1.386 . S
C491 C490 1.386 . S
C491 C493 1.395 . S
C491 H501 0.930 . S
C492 C488 1.395 . S
C492 C493 1.379 . S
C492 H502 0.930 . S
C493 C491 1.395 . S
C493 C492 1.379 . S
C493 H503 0.930 . S
C494 O472 1.264 . S
C494 O473 1.254 . S
C495 Eu431 2.848 . S
C495 O470 1.257 . S
C495 O475 1.249 . S
C495 C488 1.492 . S
H496 C479 0.930 . S
H497 C480 0.930 . S
H498 C481 0.930 . S
H499 C482 0.930 . S
H500 C489 0.930 . S
H501 C491 0.930 . S
H502 C492 0.930 . S
H503 C493 0.930 . S
Eu504 N535 2.657 . S
Eu504 N542 2.609 . S
Eu504 O548 2.558 . S
Eu504 O549 2.612 . S
Eu504 O551 2.339 . S
Eu504 O552 2.563 . S
Eu504 O553 2.419 . S
Eu504 O555 2.380 . S
Eu504 O556 2.432 . S
Eu504 C568 2.848 . S
C505 C508 1.429 . S
C505 C509 1.386 1_545 S
C505 N512 1.377 . S
C506 C508 1.420 . S
C506 C510 1.423 1_545 S
C506 C518 1.392 . S
C507 C509 1.446 . S
C507 C510 1.351 . S
C507 H530 0.931 . S
C508 C505 1.429 . S
C508 C506 1.420 . S
C508 N516 1.362 . S
C509 C505 1.386 1_565 S
C509 C507 1.446 . S
C509 C514 1.393 . S
C510 C506 1.423 1_565 S
C510 C507 1.351 . S
C510 H522 0.930 . S
C511 C513 1.400 . S
C511 C514 1.386 1_545 S
C511 H523 0.930 . S
N512 C505 1.377 . S
N512 C513 1.321 . S
N512 Eu515 2.609 . S
C513 C511 1.400 . S
C513 N512 1.321 . S
C513 H520 0.930 . S
C514 C509 1.393 . S
C514 C511 1.386 1_565 S
C514 H533 0.930 . S
Eu515 N512 2.609 . S
Eu515 N516 2.657 . S
Eu515 O549 2.380 . S
Eu515 O550 2.432 . S
Eu515 O554 2.558 . S
Eu515 O555 2.612 . S
Eu515 O557 2.339 . S
Eu515 O558 2.563 . S
Eu515 O559 2.419 . S
Eu515 C579 2.848 . S
N516 C508 1.362 . S
N516 Eu515 2.657 . S
N516 C517 1.334 . S
C517 N516 1.334 . S
C517 C519 1.413 . S
C517 H524 0.929 . S
C518 C506 1.392 . S
C518 C519 1.367 . S
C518 H526 0.930 1_545 S
C519 C517 1.413 . S
C519 C518 1.367 . S
C519 H521 0.930 . S
H520 C513 0.930 . S
H521 C519 0.930 . S
H522 C510 0.930 . S
H523 C511 0.930 . S
H524 C517 0.929 . S
H525 C539 0.930 . S
H526 C518 0.930 1_565 S
H527 C545 0.930 . S
H528 C536 0.929 . S
H529 C543 0.930 . S
H530 C507 0.931 . S
H531 C537 0.930 . S
H532 C570 0.930 . S
H533 C514 0.930 . S
H534 C569 0.931 . S
N535 Eu504 2.657 . S
N535 C536 1.334 . S
N535 C540 1.362 . S
C536 H528 0.929 . S
C536 N535 1.334 . S
C536 C539 1.413 . S
C537 H531 0.930 . S
C537 C538 1.392 . S
C537 C539 1.367 . S
C538 C537 1.392 . S
C538 C540 1.420 . S
C538 C570 1.423 . S
C539 H525 0.930 . S
C539 C536 1.413 . S
C539 C537 1.367 . S
C540 N535 1.362 . S
C540 C538 1.420 . S
C540 C544 1.429 . S
H541 C546 0.930 . S
N542 Eu504 2.609 . S
N542 C544 1.377 . S
N542 C545 1.321 . S
C543 H529 0.930 . S
C543 C545 1.400 . S
C543 C546 1.386 . S
C544 C540 1.429 . S
C544 N542 1.377 . S
C544 C547 1.411 . S
C545 H527 0.930 . S
C545 N542 1.321 . S
C545 C543 1.400 . S
C546 H541 0.930 . S
C546 C543 1.386 . S
C546 C547 1.395 . S
C547 C544 1.411 . S
C547 C546 1.395 . S
C547 C569 1.420 . S
O548 Eu504 2.558 . S
O548 C568 1.257 . S
O549 Eu504 2.612 . S
O549 Eu515 2.380 . S
O549 C560 1.276 . S
O550 Eu515 2.432 . S
O550 C567 1.264 . S
O551 Eu504 2.339 . S
O551 C567 1.254 . S
O552 Eu504 2.563 . S
O552 C560 1.235 . S
O553 Eu504 2.419 . S
O553 C568 1.249 . S
O554 Eu515 2.558 . S
O554 C579 1.257 . S
O555 Eu504 2.380 . S
O555 Eu515 2.612 . S
O555 C571 1.276 . S
O556 Eu504 2.432 . S
O556 C578 1.264 . S
O557 Eu515 2.339 . S
O557 C578 1.254 . S
O558 Eu515 2.563 . S
O558 C571 1.235 . S
O559 Eu515 2.419 . S
O559 C579 1.249 . S
C560 O549 1.276 . S
C560 O552 1.235 . S
C561 C563 1.393 . S
C561 C565 1.395 . S
C561 C568 1.492 . S
C562 C563 1.392 . S
C562 C564 1.386 . S
C563 C561 1.393 . S
C563 C562 1.392 . S
C563 H580 0.930 . S
C564 C562 1.386 . S
C564 C566 1.395 . S
C564 H581 0.930 . S
C565 C561 1.395 . S
C565 C566 1.379 . S
C565 H582 0.930 . S
C566 C564 1.395 . S
C566 C565 1.379 . S
C566 H583 0.930 . S
C567 O550 1.264 . S
C567 O551 1.254 . S
C568 Eu504 2.848 . S
C568 O548 1.257 . S
C568 O553 1.249 . S
C568 C561 1.492 . S
C569 H534 0.931 . S
C569 C547 1.420 . S
C569 C570 1.351 . S
C570 H532 0.930 . S
C570 C538 1.423 . S
C570 C569 1.351 . S
C571 O555 1.276 . S
C571 O558 1.235 . S
C572 C573 1.393 . S
C572 C576 1.395 . S
C572 C579 1.492 1_565 S
C573 C572 1.393 . S
C573 C574 1.392 . S
C573 H584 0.930 . S
C574 C573 1.392 . S
C574 C575 1.386 . S
C575 C574 1.386 . S
C575 C577 1.395 . S
C575 H585 0.930 . S
C576 C572 1.395 . S
C576 C577 1.379 . S
C576 H586 0.930 . S
C577 C575 1.395 . S
C577 C576 1.379 . S
C577 H587 0.930 . S
C578 O556 1.264 . S
C578 O557 1.254 . S
C579 Eu515 2.848 . S
C579 O554 1.257 . S
C579 O559 1.249 . S
C579 C572 1.492 1_545 S
H580 C563 0.930 . S
H581 C564 0.930 . S
H582 C565 0.930 . S
H583 C566 0.930 . S
H584 C573 0.930 . S
H585 C575 0.930 . S
H586 C576 0.930 . S
H587 C577 0.930 . S
Eu588 N619 2.657 . S
Eu588 N626 2.609 . S
Eu588 O632 2.558 . S
Eu588 O633 2.612 . S
Eu588 O635 2.339 . S
Eu588 O636 2.563 . S
Eu588 O637 2.419 . S
Eu588 O639 2.380 . S
Eu588 O640 2.432 . S
Eu588 C652 2.848 . S
C589 C592 1.429 . S
C589 C593 1.411 1_655 S
C589 N596 1.377 . S
C590 C592 1.420 1_455 S
C590 C594 1.423 . S
C590 C602 1.392 . S
C591 C593 1.420 . S
C591 C594 1.351 . S
C591 H614 0.931 . S
C592 C589 1.429 . S
C592 C590 1.420 1_655 S
C592 N600 1.362 . S
C593 C589 1.411 1_455 S
C593 C591 1.420 . S
C593 C598 1.395 . S
C594 C590 1.423 . S
C594 C591 1.351 . S
C594 H606 0.930 . S
C595 C597 1.400 . S
C595 C598 1.386 1_655 S
C595 H607 0.930 . S
N596 C589 1.377 . S
N596 C597 1.321 . S
N596 Eu599 2.609 . S
C597 C595 1.400 . S
C597 N596 1.321 . S
C597 H604 0.930 . S
C598 C593 1.395 . S
C598 C595 1.386 1_455 S
C598 H617 0.930 . S
Eu599 N596 2.609 . S
Eu599 N600 2.657 . S
Eu599 O633 2.380 . S
Eu599 O634 2.432 . S
Eu599 O638 2.558 . S
Eu599 O639 2.612 . S
Eu599 O641 2.339 . S
Eu599 O642 2.563 . S
Eu599 O643 2.419 . S
Eu599 C663 2.848 1_655 S
N600 C592 1.362 . S
N600 Eu599 2.657 . S
N600 C601 1.334 . S
C601 N600 1.334 . S
C601 C603 1.413 . S
C601 H608 0.929 . S
C602 C590 1.392 . S
C602 C603 1.367 1_455 S
C602 H610 0.930 . S
C603 C601 1.413 . S
C603 C602 1.367 1_655 S
C603 H605 0.930 . S
H604 C597 0.930 . S
H605 C603 0.930 . S
H606 C594 0.930 . S
H607 C595 0.930 . S
H608 C601 0.929 . S
H609 C623 0.930 . S
H610 C602 0.930 . S
H611 C629 0.930 . S
H612 C620 0.929 . S
H613 C627 0.930 . S
H614 C591 0.931 . S
H615 C621 0.930 . S
H616 C654 0.911 1_565 S
H617 C598 0.930 . S
H618 C653 0.931 1_565 S
N619 Eu588 2.657 . S
N619 C620 1.334 . S
N619 C624 1.362 . S
C620 H612 0.929 . S
C620 N619 1.334 . S
C620 C623 1.413 . S
C621 H615 0.930 . S
C621 C622 1.392 . S
C621 C623 1.367 . S
C622 C621 1.392 . S
C622 C624 1.420 . S
C622 C654 1.437 . S
C623 H609 0.930 . S
C623 C620 1.413 . S
C623 C621 1.367 . S
C624 N619 1.362 . S
C624 C622 1.420 . S
C624 C628 1.429 . S
H625 C630 0.930 . S
N626 Eu588 2.609 . S
N626 C628 1.377 . S
N626 C629 1.321 . S
C627 H613 0.930 . S
C627 C629 1.400 . S
C627 C630 1.386 . S
C628 C624 1.429 . S
C628 N626 1.377 . S
C628 C631 1.411 . S
C629 H611 0.930 . S
C629 N626 1.321 . S
C629 C627 1.400 . S
C630 H625 0.930 . S
C630 C627 1.386 . S
C630 C631 1.395 . S
C631 C628 1.411 . S
C631 C630 1.395 . S
C631 C653 1.420 . S
O632 Eu588 2.558 . S
O632 C652 1.257 . S
O633 Eu588 2.612 . S
O633 Eu599 2.380 . S
O633 C644 1.276 . S
O634 Eu599 2.432 . S
O634 C651 1.264 . S
O635 Eu588 2.339 . S
O635 C651 1.254 . S
O636 Eu588 2.563 . S
O636 C644 1.235 . S
O637 Eu588 2.419 . S
O637 C652 1.249 . S
O638 Eu599 2.558 . S
O638 C663 1.257 1_655 S
O639 Eu588 2.380 . S
O639 Eu599 2.612 . S
O639 C655 1.276 . S
O640 Eu588 2.432 . S
O640 C662 1.264 . S
O641 Eu599 2.339 . S
O641 C662 1.254 . S
O642 Eu599 2.563 . S
O642 C655 1.235 . S
O643 Eu599 2.419 . S
O643 C663 1.249 1_655 S
C644 O633 1.276 . S
C644 O636 1.235 . S
C645 C647 1.393 . S
C645 C649 1.395 . S
C645 C652 1.492 . S
C646 C647 1.392 . S
C646 C648 1.386 . S
C647 C645 1.393 . S
C647 C646 1.392 . S
C647 H664 0.930 . S
C648 C646 1.386 . S
C648 C650 1.395 . S
C648 H665 0.930 . S
C649 C645 1.395 . S
C649 C650 1.379 . S
C649 H666 0.930 . S
C650 C648 1.395 . S
C650 C649 1.379 . S
C650 H667 0.930 . S
C651 O634 1.264 . S
C651 O635 1.254 . S
C652 Eu588 2.848 . S
C652 O632 1.257 . S
C652 O637 1.249 . S
C652 C645 1.492 . S
C653 H618 0.931 1_545 S
C653 C631 1.420 . S
C653 C654 1.355 . S
C654 H616 0.911 1_545 S
C654 C622 1.437 . S
C654 C653 1.355 . S
C655 O639 1.276 . S
C655 O642 1.235 . S
C656 C657 1.393 . S
C656 C660 1.395 . S
C656 C663 1.492 . S
C657 C656 1.393 . S
C657 C658 1.392 . S
C657 H668 0.930 . S
C658 C657 1.392 . S
C658 C659 1.386 . S
C659 C658 1.386 . S
C659 C661 1.395 . S
C659 H669 0.930 . S
C660 C656 1.395 . S
C660 C661 1.379 . S
C660 H670 0.930 . S
C661 C659 1.395 . S
C661 C660 1.379 . S
C661 H671 0.930 . S
C662 O640 1.264 . S
C662 O641 1.254 . S
C663 Eu599 2.848 1_455 S
C663 O638 1.257 1_455 S
C663 O643 1.249 1_455 S
C663 C656 1.492 . S
H664 C647 0.930 . S
H665 C648 0.930 . S
H666 C649 0.930 . S
H667 C650 0.930 . S
H668 C657 0.930 . S
H669 C659 0.930 . S
H670 C660 0.930 . S
H671 C661 0.930 . S
Eu672 N703 2.657 . S
Eu672 N710 2.609 . S
Eu672 O716 2.558 . S
Eu672 O717 2.612 . S
Eu672 O719 2.339 . S
Eu672 O720 2.563 . S
Eu672 O721 2.419 . S
Eu672 O723 2.380 . S
Eu672 O724 2.432 . S
Eu672 C736 2.848 . S
C673 C676 1.429 . S
C673 C677 1.411 . S
C673 N680 1.377 . S
C674 C676 1.420 . S
C674 C678 1.423 . S
C674 C686 1.392 . S
C675 C677 1.420 . S
C675 C678 1.351 . S
C675 H698 0.931 . S
C676 C673 1.429 . S
C676 C674 1.420 . S
C676 N684 1.362 . S
C677 C673 1.411 . S
C677 C675 1.420 . S
C677 C682 1.395 . S
C678 C674 1.423 . S
C678 C675 1.351 . S
C678 H690 0.930 . S
C679 C681 1.400 . S
C679 C682 1.386 . S
C679 H691 0.930 . S
N680 C673 1.377 . S
N680 C681 1.321 . S
N680 Eu683 2.609 . S
C681 C679 1.400 . S
C681 N680 1.321 . S
C681 H688 0.930 . S
C682 C677 1.395 . S
C682 C679 1.386 . S
C682 H701 0.930 . S
Eu683 N680 2.609 . S
Eu683 N684 2.657 . S
Eu683 O717 2.380 . S
Eu683 O718 2.432 . S
Eu683 O722 2.558 . S
Eu683 O723 2.612 . S
Eu683 O725 2.339 . S
Eu683 O726 2.563 . S
Eu683 O727 2.419 . S
Eu683 C747 2.848 . S
N684 C676 1.362 . S
N684 Eu683 2.657 . S
N684 C685 1.334 . S
C685 N684 1.334 . S
C685 C687 1.413 . S
C685 H692 0.929 . S
C686 C674 1.392 . S
C686 C687 1.367 . S
C686 H694 0.930 . S
C687 C685 1.413 . S
C687 C686 1.367 . S
C687 H689 0.930 . S
H688 C681 0.930 . S
H689 C687 0.930 . S
H690 C678 0.930 . S
H691 C679 0.930 . S
H692 C685 0.929 . S
H693 C707 0.930 . S
H694 C686 0.930 . S
H695 C713 0.930 . S
H696 C704 0.929 . S
H697 C711 0.930 . S
H698 C675 0.931 . S
H699 C705 0.930 1_455 S
H700 C738 0.930 . S
H701 C682 0.930 . S
H702 C737 0.931 . S
N703 Eu672 2.657 . S
N703 C704 1.334 . S
N703 C708 1.362 . S
C704 H696 0.929 . S
C704 N703 1.334 . S
C704 C707 1.413 . S
C705 H699 0.930 1_655 S
C705 C706 1.392 . S
C705 C707 1.367 . S
C706 C705 1.392 . S
C706 C708 1.420 . S
C706 C738 1.423 1_655 S
C707 H693 0.930 . S
C707 C704 1.413 . S
C707 C705 1.367 . S
C708 N703 1.362 . S
C708 C706 1.420 . S
C708 C712 1.429 . S
H709 C714 0.930 . S
N710 Eu672 2.609 . S
N710 C712 1.377 . S
N710 C713 1.321 . S
C711 H697 0.930 . S
C711 C713 1.400 . S
C711 C714 1.386 . S
C712 C708 1.429 . S
C712 N710 1.377 . S
C712 C715 1.411 . S
C713 H695 0.930 . S
C713 N710 1.321 . S
C713 C711 1.400 . S
C714 H709 0.930 . S
C714 C711 1.386 . S
C714 C715 1.395 . S
C715 C712 1.411 . S
C715 C714 1.395 . S
C715 C737 1.420 1_655 S
O716 Eu672 2.558 . S
O716 C736 1.257 . S
O717 Eu672 2.612 . S
O717 Eu683 2.380 . S
O717 C728 1.276 . S
O718 Eu683 2.432 . S
O718 C735 1.264 . S
O719 Eu672 2.339 . S
O719 C735 1.254 . S
O720 Eu672 2.563 . S
O720 C728 1.235 . S
O721 Eu672 2.419 . S
O721 C736 1.249 . S
O722 Eu683 2.558 . S
O722 C747 1.257 . S
O723 Eu672 2.380 . S
O723 Eu683 2.612 . S
O723 C739 1.276 . S
O724 Eu672 2.432 . S
O724 C746 1.264 . S
O725 Eu683 2.339 . S
O725 C746 1.254 . S
O726 Eu683 2.563 . S
O726 C739 1.235 . S
O727 Eu683 2.419 . S
O727 C747 1.249 . S
C728 O717 1.276 . S
C728 O720 1.235 . S
C729 C731 1.393 . S
C729 C733 1.395 . S
C729 C736 1.492 . S
C730 C731 1.392 . S
C730 C732 1.386 . S
C731 C729 1.393 . S
C731 C730 1.392 . S
C731 H748 0.930 . S
C732 C730 1.386 . S
C732 C734 1.395 . S
C732 H749 0.930 . S
C733 C729 1.395 . S
C733 C734 1.379 . S
C733 H750 0.930 . S
C734 C732 1.395 . S
C734 C733 1.379 . S
C734 H751 0.930 . S
C735 O718 1.264 . S
C735 O719 1.254 . S
C736 Eu672 2.848 . S
C736 O716 1.257 . S
C736 O721 1.249 . S
C736 C729 1.492 . S
C737 H702 0.931 . S
C737 C715 1.420 1_455 S
C737 C738 1.351 . S
C738 H700 0.930 . S
C738 C706 1.423 1_455 S
C738 C737 1.351 . S
C739 O723 1.276 . S
C739 O726 1.235 . S
C740 C741 1.393 . S
C740 C744 1.395 . S
C740 C747 1.492 . S
C741 C740 1.393 . S
C741 C742 1.392 . S
C741 H752 0.930 . S
C742 C741 1.392 . S
C742 C743 1.386 . S
C743 C742 1.386 . S
C743 C745 1.395 . S
C743 H753 0.930 . S
C744 C740 1.395 . S
C744 C745 1.379 . S
C744 H754 0.930 . S
C745 C743 1.395 . S
C745 C744 1.379 . S
C745 H755 0.930 . S
C746 O724 1.264 . S
C746 O725 1.254 . S
C747 Eu683 2.848 . S
C747 O722 1.257 . S
C747 O727 1.249 . S
C747 C740 1.492 . S
H748 C731 0.930 . S
H749 C732 0.930 . S
H750 C733 0.930 . S
H751 C734 0.930 . S
H752 C741 0.930 . S
H753 C743 0.930 . S
H754 C744 0.930 . S
H755 C745 0.930 . S
H756 C768 0.930 . S
H757 C770 0.930 . S
H758 C771 0.930 . S
H759 C775 0.959 . S
H760 C775 0.959 . S
H761 C775 0.961 . S
H762 C776 0.960 . S
H763 C776 0.961 . S
H764 C776 0.959 . S
H765 C779 0.929 . S
H766 C780 0.931 . S
H767 C782 0.930 . S
C768 H756 0.930 . S
C768 C769 1.399 . S
C768 C773 1.399 . S
C769 C768 1.399 . S
C769 C770 1.376 1_554 S
C770 H757 0.930 . S
C770 C769 1.376 1_556 S
C770 C771 1.388 . S
C771 H758 0.930 . S
C771 C770 1.388 . S
C771 C772 1.390 . S
C772 C771 1.390 . S
C772 C773 1.394 1_556 S
C772 C778 1.465 . S
C773 C768 1.399 . S
C773 C772 1.394 1_554 S
C773 C774 1.516 . S
C774 C773 1.516 . S
C774 C775 1.502 . S
C774 C776 1.561 . S
C774 C777 1.526 . S
C775 H759 0.959 . S
C775 H760 0.959 . S
C775 H761 0.961 . S
C775 C774 1.502 . S
C776 H762 0.960 . S
C776 H763 0.961 . S
C776 H764 0.959 . S
C776 C774 1.561 . S
C777 C774 1.526 . S
C777 C778 1.396 1_554 S
C777 C782 1.390 . S
C778 C772 1.465 . S
C778 C777 1.396 1_556 S
C778 C779 1.399 . S
C779 H765 0.929 . S
C779 C778 1.399 . S
C779 C780 1.385 . S
C780 H766 0.931 . S
C780 C779 1.385 . S
C780 C781 1.390 . S
C781 C780 1.390 . S
C781 C782 1.386 1_556 S
C782 H767 0.930 . S
C782 C777 1.390 . S
C782 C781 1.386 1_554 S
H783 C795 0.930 . S
H784 C797 0.930 . S
H785 C798 0.930 . S
H786 C802 0.959 . S
H787 C802 0.959 . S
H788 C802 0.961 . S
H789 C803 0.960 . S
H790 C803 0.961 . S
H791 C803 0.959 . S
H792 C806 0.929 . S
H793 C807 0.931 . S
H794 C809 0.930 . S
C795 H783 0.930 . S
C795 C796 1.399 1_556 S
C795 C800 1.399 . S
C796 C795 1.399 1_554 S
C796 C797 1.376 . S
C797 H784 0.930 . S
C797 C796 1.376 . S
C797 C798 1.388 . S
C798 H785 0.930 . S
C798 C797 1.388 . S
C798 C799 1.390 . S
C799 C798 1.390 . S
C799 C800 1.394 1_554 S
C799 C805 1.465 . S
C800 C795 1.399 . S
C800 C799 1.394 1_556 S
C800 C801 1.516 . S
C801 C800 1.516 . S
C801 C802 1.502 . S
C801 C803 1.561 . S
C801 C804 1.526 . S
C802 H786 0.959 . S
C802 H787 0.959 . S
C802 H788 0.961 . S
C802 C801 1.502 . S
C803 H789 0.960 . S
C803 H790 0.961 . S
C803 H791 0.959 . S
C803 C801 1.561 . S
C804 C801 1.526 . S
C804 C805 1.396 1_556 S
C804 C809 1.390 . S
C805 C799 1.465 . S
C805 C804 1.396 1_554 S
C805 C806 1.399 . S
C806 H792 0.929 . S
C806 C805 1.399 . S
C806 C807 1.385 . S
C807 H793 0.931 . S
C807 C806 1.385 . S
C807 C808 1.389 . S
C808 C807 1.389 . S
C808 C809 1.387 1_554 S
C809 H794 0.930 . S
C809 C804 1.390 . S
C809 C808 1.387 1_556 S
H810 C822 0.930 . S
H811 C824 0.930 . S
H812 C825 0.930 . S
H813 C829 0.959 . S
H814 C829 0.959 . S
H815 C829 0.961 . S
H816 C830 0.960 . S
H817 C830 0.961 . S
H818 C830 0.959 . S
H819 C833 0.929 . S
H820 C834 0.931 . S
H821 C836 0.930 . S
C822 H810 0.930 . S
C822 C823 1.399 1_556 S
C822 C827 1.399 . S
C823 C822 1.399 1_554 S
C823 C824 1.376 . S
C824 H811 0.930 . S
C824 C823 1.376 . S
C824 C825 1.388 . S
C825 H812 0.930 . S
C825 C824 1.388 . S
C825 C826 1.390 . S
C826 C825 1.390 . S
C826 C827 1.394 1_554 S
C826 C832 1.465 . S
C827 C822 1.399 . S
C827 C826 1.394 1_556 S
C827 C828 1.516 . S
C828 C827 1.516 . S
C828 C829 1.502 . S
C828 C830 1.561 . S
C828 C831 1.526 . S
C829 H813 0.959 . S
C829 H814 0.959 . S
C829 H815 0.961 . S
C829 C828 1.502 . S
C830 H816 0.960 . S
C830 H817 0.961 . S
C830 H818 0.959 . S
C830 C828 1.561 . S
C831 C828 1.526 . S
C831 C832 1.396 1_556 S
C831 C836 1.390 . S
C832 C826 1.465 . S
C832 C831 1.396 1_554 S
C832 C833 1.399 . S
C833 H819 0.929 . S
C833 C832 1.399 . S
C833 C834 1.385 . S
C834 H820 0.931 . S
C834 C833 1.385 . S
C834 C835 1.389 . S
C835 C834 1.389 . S
C835 C836 1.387 1_554 S
C836 H821 0.930 . S
C836 C831 1.390 . S
C836 C835 1.387 1_556 S
H837 C849 0.930 . S
H838 C851 0.930 . S
H839 C852 0.930 . S
H840 C856 0.959 . S
H841 C856 0.959 . S
H842 C856 0.961 . S
H843 C857 0.960 . S
H844 C857 0.961 . S
H845 C857 0.959 . S
H846 C860 0.929 . S
H847 C861 0.931 . S
H848 C863 0.930 . S
C849 H837 0.930 . S
C849 C850 1.399 1_554 S
C849 C854 1.399 . S
C850 C849 1.399 1_556 S
C850 C851 1.376 . S
C851 H838 0.930 . S
C851 C850 1.376 . S
C851 C852 1.388 . S
C852 H839 0.930 . S
C852 C851 1.388 . S
C852 C853 1.390 . S
C853 C852 1.390 . S
C853 C854 1.394 1_556 S
C853 C859 1.465 . S
C854 C849 1.399 . S
C854 C853 1.394 1_554 S
C854 C855 1.516 . S
C855 C854 1.516 . S
C855 C856 1.502 . S
C855 C857 1.561 . S
C855 C858 1.526 . S
C856 H840 0.959 . S
C856 H841 0.959 . S
C856 H842 0.961 . S
C856 C855 1.502 . S
C857 H843 0.960 . S
C857 H844 0.961 . S
C857 H845 0.959 . S
C857 C855 1.561 . S
C858 C855 1.526 . S
C858 C859 1.396 1_554 S
C858 C863 1.390 . S
C859 C853 1.465 . S
C859 C858 1.396 1_556 S
C859 C860 1.399 . S
C860 H846 0.929 . S
C860 C859 1.399 . S
C860 C861 1.385 . S
C861 H847 0.931 . S
C861 C860 1.385 . S
C861 C862 1.389 . S
C862 C861 1.389 . S
C862 C863 1.387 1_556 S
C863 H848 0.930 . S
C863 C858 1.390 . S
C863 C862 1.387 1_554 S
H864 C876 0.930 . S
H865 C878 0.930 . S
H866 C879 0.930 . S
H867 C883 0.959 . S
H868 C883 0.959 . S
H869 C883 0.961 . S
H870 C884 0.960 . S
H871 C884 0.961 . S
H872 C884 0.959 . S
H873 C887 0.929 . S
H874 C888 0.931 . S
H875 C890 0.930 . S
C876 H864 0.930 . S
C876 C877 1.399 1_554 S
C876 C881 1.399 . S
C877 C876 1.399 1_556 S
C877 C878 1.376 . S
C878 H865 0.930 . S
C878 C877 1.376 . S
C878 C879 1.388 . S
C879 H866 0.930 . S
C879 C878 1.388 . S
C879 C880 1.390 . S
C880 C879 1.390 . S
C880 C881 1.394 1_556 S
C880 C886 1.465 . S
C881 C876 1.399 . S
C881 C880 1.394 1_554 S
C881 C882 1.516 . S
C882 C881 1.516 . S
C882 C883 1.502 . S
C882 C884 1.561 . S
C882 C885 1.526 . S
C883 H867 0.959 . S
C883 H868 0.959 . S
C883 H869 0.961 . S
C883 C882 1.502 . S
C884 H870 0.960 . S
C884 H871 0.961 . S
C884 H872 0.959 . S
C884 C882 1.561 . S
C885 C882 1.526 . S
C885 C886 1.396 1_554 S
C885 C890 1.390 . S
C886 C880 1.465 . S
C886 C885 1.396 1_556 S
C886 C887 1.399 . S
C887 H873 0.929 . S
C887 C886 1.399 . S
C887 C888 1.385 . S
C888 H874 0.931 . S
C888 C887 1.385 . S
C888 C889 1.389 . S
C889 C888 1.389 . S
C889 C890 1.387 1_556 S
C890 H875 0.930 . S
C890 C885 1.390 . S
C890 C889 1.387 1_554 S
H891 C903 0.930 . S
H892 C905 0.930 . S
H893 C906 0.930 . S
H894 C910 0.959 . S
H895 C910 0.959 . S
H896 C910 0.961 . S
H897 C911 0.960 . S
H898 C911 0.961 . S
H899 C911 0.959 . S
H900 C914 0.929 . S
H901 C915 0.931 . S
H902 C917 0.930 . S
C903 H891 0.930 . S
C903 C904 1.399 1_556 S
C903 C908 1.399 . S
C904 C903 1.399 1_554 S
C904 C905 1.376 . S
C905 H892 0.930 . S
C905 C904 1.376 . S
C905 C906 1.388 . S
C906 H893 0.930 . S
C906 C905 1.388 . S
C906 C907 1.390 . S
C907 C906 1.390 . S
C907 C908 1.394 1_554 S
C907 C913 1.465 . S
C908 C903 1.399 . S
C908 C907 1.394 1_556 S
C908 C909 1.516 . S
C909 C908 1.516 . S
C909 C910 1.502 . S
C909 C911 1.561 . S
C909 C912 1.526 . S
C910 H894 0.959 . S
C910 H895 0.959 . S
C910 H896 0.961 . S
C910 C909 1.502 . S
C911 H897 0.960 . S
C911 H898 0.961 . S
C911 H899 0.959 . S
C911 C909 1.561 . S
C912 C909 1.526 . S
C912 C913 1.396 1_556 S
C912 C917 1.390 . S
C913 C907 1.465 . S
C913 C912 1.396 1_554 S
C913 C914 1.399 . S
C914 H900 0.929 . S
C914 C913 1.399 . S
C914 C915 1.385 . S
C915 H901 0.931 . S
C915 C914 1.385 . S
C915 C916 1.389 1_554 S
C916 C915 1.389 1_556 S
C916 C917 1.387 . S
C917 H902 0.930 . S
C917 C912 1.390 . S
C917 C916 1.387 . S
H918 C930 0.930 . S
H919 C932 0.930 . S
H920 C933 0.930 . S
H921 C937 0.959 . S
H922 C937 0.959 . S
H923 C937 0.961 . S
H924 C938 0.960 . S
H925 C938 0.961 . S
H926 C938 0.959 . S
H927 C941 0.929 . S
H928 C942 0.931 . S
H929 C944 0.930 . S
C930 H918 0.930 . S
C930 C931 1.399 . S
C930 C935 1.399 . S
C931 C930 1.399 . S
C931 C932 1.376 . S
C932 H919 0.930 . S
C932 C931 1.376 . S
C932 C933 1.388 . S
C933 H920 0.930 . S
C933 C932 1.388 . S
C933 C934 1.390 . S
C934 C933 1.390 . S
C934 C935 1.394 . S
C934 C940 1.465 . S
C935 C930 1.399 . S
C935 C934 1.394 . S
C935 C936 1.516 . S
C936 C935 1.516 . S
C936 C937 1.502 . S
C936 C938 1.561 . S
C936 C939 1.526 . S
C937 H921 0.959 . S
C937 H922 0.959 . S
C937 H923 0.961 . S
C937 C936 1.502 . S
C938 H924 0.960 . S
C938 H925 0.961 . S
C938 H926 0.959 . S
C938 C936 1.561 . S
C939 C936 1.526 . S
C939 C940 1.396 . S
C939 C944 1.390 . S
C940 C934 1.465 . S
C940 C939 1.396 . S
C940 C941 1.399 . S
C941 H927 0.929 . S
C941 C940 1.399 . S
C941 C942 1.385 . S
C942 H928 0.931 . S
C942 C941 1.385 . S
C942 C943 1.389 . S
C943 C942 1.389 . S
C943 C944 1.387 . S
C944 H929 0.930 . S
C944 C939 1.390 . S
C944 C943 1.387 . S
H945 C957 0.930 . S
H946 C959 0.930 . S
H947 C960 0.930 . S
H948 C964 0.959 . S
H949 C964 0.959 . S
H950 C964 0.961 . S
H951 C965 0.960 . S
H952 C965 0.961 . S
H953 C965 0.959 . S
H954 C968 0.937 . S
H955 C969 0.931 . S
H956 C971 0.930 . S
C957 H945 0.930 . S
C957 C958 1.399 . S
C957 C962 1.399 . S
C958 C957 1.399 . S
C958 C959 1.376 . S
C959 H946 0.930 . S
C959 C958 1.376 . S
C959 C960 1.388 . S
C960 H947 0.930 . S
C960 C959 1.388 . S
C960 C961 1.390 . S
C961 C960 1.390 . S
C961 C962 1.394 . S
C961 C967 1.465 . S
C962 C957 1.399 . S
C962 C961 1.394 . S
C962 C963 1.516 . S
C963 C962 1.516 . S
C963 C964 1.502 . S
C963 C965 1.561 . S
C963 C966 1.526 . S
C964 H948 0.959 . S
C964 H949 0.959 . S
C964 H950 0.961 . S
C964 C963 1.502 . S
C965 H951 0.960 . S
C965 H952 0.961 . S
C965 H953 0.959 . S
C965 C963 1.561 . S
C966 C963 1.526 . S
C966 C967 1.396 . S
C966 C971 1.390 1_545 S
C967 C961 1.465 . S
C967 C966 1.396 . S
C967 C968 1.399 1_545 S
C968 H954 0.937 . S
C968 C967 1.399 1_565 S
C968 C969 1.385 . S
C969 H955 0.931 . S
C969 C968 1.385 . S
C969 C970 1.389 . S
C970 C969 1.389 . S
C970 C971 1.387 . S
C971 H956 0.930 . S
C971 C966 1.390 1_565 S
C971 C970 1.387 . S
H972 C984 0.930 . S
H973 C986 0.930 . S
H974 C987 0.930 . S
H975 C991 0.959 . S
H976 C991 0.959 . S
H977 C991 0.961 . S
H978 C992 0.960 1_455 S
H979 C992 0.961 . S
H980 C992 0.959 1_455 S
H981 C995 0.929 . S
H982 C996 0.931 . S
H983 C998 0.930 . S
C984 H972 0.930 . S
C984 C985 1.399 . S
C984 C989 1.399 1_455 S
C985 C984 1.399 . S
C985 C986 1.376 . S
C986 H973 0.930 . S
C986 C985 1.376 . S
C986 C987 1.388 . S
C987 H974 0.930 . S
C987 C986 1.388 . S
C987 C988 1.396 . S
C988 C987 1.396 . S
C988 C989 1.390 1_455 S
C988 C994 1.461 1_455 S
C989 C984 1.399 1_655 S
C989 C988 1.390 1_655 S
C989 C990 1.516 . S
C990 C989 1.516 . S
C990 C991 1.502 . S
C990 C992 1.561 . S
C990 C993 1.526 . S
C991 H975 0.959 . S
C991 H976 0.959 . S
C991 H977 0.961 . S
C991 C990 1.502 . S
C992 H978 0.960 1_655 S
C992 H979 0.961 . S
C992 H980 0.959 1_655 S
C992 C990 1.561 . S
C993 C990 1.526 . S
C993 C994 1.396 . S
C993 C998 1.390 . S
C994 C988 1.461 1_655 S
C994 C993 1.396 . S
C994 C995 1.399 . S
C995 H981 0.929 . S
C995 C994 1.399 . S
C995 C996 1.385 . S
C996 H982 0.931 . S
C996 C995 1.385 . S
C996 C997 1.389 . S
C997 C996 1.389 . S
C997 C998 1.387 . S
C998 H983 0.930 . S
C998 C993 1.390 . S
C998 C997 1.387 . S
H999 C1011 0.930 . S
H1000 C1013 0.930 . S
H1001 C1014 0.930 . S
H1002 C1018 0.959 . S
H1003 C1018 0.959 . S
H1004 C1018 0.961 . S
H1005 C1019 0.960 . S
H1006 C1019 0.961 . S
H1007 C1019 0.959 . S
H1008 C1022 0.929 . S
H1009 C1023 0.931 . S
H1010 C1025 0.930 . S
C1011 H999 0.930 . S
C1011 C1012 1.399 . S
C1011 C1016 1.399 . S
C1012 C1011 1.399 . S
C1012 C1013 1.376 . S
C1013 H1000 0.930 . S
C1013 C1012 1.376 . S
C1013 C1014 1.388 . S
C1014 H1001 0.930 . S
C1014 C1013 1.388 . S
C1014 C1015 1.390 . S
C1015 C1014 1.390 . S
C1015 C1016 1.394 . S
C1015 C1021 1.465 . S
C1016 C1011 1.399 . S
C1016 C1015 1.394 . S
C1016 C1017 1.516 . S
C1017 C1016 1.516 . S
C1017 C1018 1.502 . S
C1017 C1019 1.561 . S
C1017 C1020 1.526 . S
C1018 H1002 0.959 . S
C1018 H1003 0.959 . S
C1018 H1004 0.961 . S
C1018 C1017 1.502 . S
C1019 H1005 0.960 . S
C1019 H1006 0.961 . S
C1019 H1007 0.959 . S
C1019 C1017 1.561 . S
C1020 C1017 1.526 . S
C1020 C1021 1.396 . S
C1020 C1025 1.390 . S
C1021 C1015 1.465 . S
C1021 C1020 1.396 . S
C1021 C1022 1.399 . S
C1022 H1008 0.929 . S
C1022 C1021 1.399 . S
C1022 C1023 1.385 . S
C1023 H1009 0.931 . S
C1023 C1022 1.385 . S
C1023 C1024 1.389 . S
C1024 C1023 1.389 . S
C1024 C1025 1.387 . S
C1025 H1010 0.930 . S
C1025 C1020 1.390 . S
C1025 C1024 1.387 . S
H1026 C1038 0.930 . S
H1027 C1040 0.930 . S
H1028 C1041 0.930 . S
H1029 C1045 0.959 . S
H1030 C1045 0.959 . S
H1031 C1045 0.961 . S
H1032 C1046 0.960 . S
H1033 C1046 0.961 . S
H1034 C1046 0.959 . S
H1035 C1049 0.929 . S
H1036 C1050 0.931 . S
H1037 C1052 0.930 . S
C1038 H1026 0.930 . S
C1038 C1039 1.399 . S
C1038 C1043 1.399 . S
C1039 C1038 1.399 . S
C1039 C1040 1.376 . S
C1040 H1027 0.930 . S
C1040 C1039 1.376 . S
C1040 C1041 1.388 . S
C1041 H1028 0.930 . S
C1041 C1040 1.388 . S
C1041 C1042 1.390 . S
C1042 C1041 1.390 . S
C1042 C1043 1.394 . S
C1042 C1048 1.465 . S
C1043 C1038 1.399 . S
C1043 C1042 1.394 . S
C1043 C1044 1.516 . S
C1044 C1043 1.516 . S
C1044 C1045 1.502 . S
C1044 C1046 1.561 . S
C1044 C1047 1.526 . S
C1045 H1029 0.959 . S
C1045 H1030 0.959 . S
C1045 H1031 0.961 . S
C1045 C1044 1.502 . S
C1046 H1032 0.960 . S
C1046 H1033 0.961 . S
C1046 H1034 0.959 . S
C1046 C1044 1.561 . S
C1047 C1044 1.526 . S
C1047 C1048 1.396 . S
C1047 C1052 1.390 . S
C1048 C1042 1.465 . S
C1048 C1047 1.396 . S
C1048 C1049 1.399 . S
C1049 H1035 0.929 . S
C1049 C1048 1.399 . S
C1049 C1050 1.385 . S
C1050 H1036 0.931 . S
C1050 C1049 1.385 . S
C1050 C1051 1.389 . S
C1051 C1050 1.389 . S
C1051 C1052 1.387 . S
C1052 H1037 0.930 . S
C1052 C1047 1.390 . S
C1052 C1051 1.387 . S
H1053 C1065 0.930 . S
H1054 C1067 0.930 . S
H1055 C1068 0.930 . S
H1056 C1072 0.959 . S
H1057 C1072 0.959 . S
H1058 C1072 0.961 . S
H1059 C1073 0.960 . S
H1060 C1073 0.961 . S
H1061 C1073 0.959 . S
H1062 C1076 0.929 . S
H1063 C1077 0.931 . S
H1064 C1079 0.930 . S
C1065 H1053 0.930 . S
C1065 C1066 1.399 . S
C1065 C1070 1.399 . S
C1066 C1065 1.399 . S
C1066 C1067 1.376 . S
C1067 H1054 0.930 . S
C1067 C1066 1.376 . S
C1067 C1068 1.388 . S
C1068 H1055 0.930 . S
C1068 C1067 1.388 . S
C1068 C1069 1.390 . S
C1069 C1068 1.390 . S
C1069 C1070 1.394 . S
C1069 C1075 1.465 . S
C1070 C1065 1.399 . S
C1070 C1069 1.394 . S
C1070 C1071 1.516 . S
C1071 C1070 1.516 . S
C1071 C1072 1.502 . S
C1071 C1073 1.561 . S
C1071 C1074 1.526 . S
C1072 H1056 0.959 . S
C1072 H1057 0.959 . S
C1072 H1058 0.961 . S
C1072 C1071 1.502 . S
C1073 H1059 0.960 . S
C1073 H1060 0.961 . S
C1073 H1061 0.959 . S
C1073 C1071 1.561 . S
C1074 C1071 1.526 . S
C1074 C1075 1.396 . S
C1074 C1079 1.390 . S
C1075 C1069 1.465 . S
C1075 C1074 1.396 . S
C1075 C1076 1.399 . S
C1076 H1062 0.929 . S
C1076 C1075 1.399 . S
C1076 C1077 1.385 . S
C1077 H1063 0.931 . S
C1077 C1076 1.385 . S
C1077 C1078 1.389 . S
C1078 C1077 1.389 . S
C1078 C1079 1.387 . S
C1079 H1064 0.930 . S
C1079 C1074 1.390 . S
C1079 C1078 1.387 . S
H1080 C1092 0.930 . S
H1081 C1094 0.930 . S
H1082 C1095 0.930 . S
H1083 C1099 0.959 . S
H1084 C1099 0.959 . S
H1085 C1099 0.961 . S
H1086 C1100 0.960 . S
H1087 C1100 0.961 . S
H1088 C1100 0.959 . S
H1089 C1103 0.929 . S
H1090 C1104 0.931 . S
H1091 C1106 0.930 . S
C1092 H1080 0.930 . S
C1092 C1093 1.399 . S
C1092 C1097 1.399 . S
C1093 C1092 1.399 . S
C1093 C1094 1.376 . S
C1094 H1081 0.930 . S
C1094 C1093 1.376 . S
C1094 C1095 1.388 . S
C1095 H1082 0.930 . S
C1095 C1094 1.388 . S
C1095 C1096 1.390 . S
C1096 C1095 1.390 . S
C1096 C1097 1.394 . S
C1096 C1102 1.465 . S
C1097 C1092 1.399 . S
C1097 C1096 1.394 . S
C1097 C1098 1.516 . S
C1098 C1097 1.516 . S
C1098 C1099 1.502 . S
C1098 C1100 1.561 . S
C1098 C1101 1.526 . S
C1099 H1083 0.959 . S
C1099 H1084 0.959 . S
C1099 H1085 0.961 . S
C1099 C1098 1.502 . S
C1100 H1086 0.960 . S
C1100 H1087 0.961 . S
C1100 H1088 0.959 . S
C1100 C1098 1.561 . S
C1101 C1098 1.526 . S
C1101 C1102 1.396 . S
C1101 C1106 1.390 . S
C1102 C1096 1.465 . S
C1102 C1101 1.396 . S
C1102 C1103 1.399 . S
C1103 H1089 0.929 . S
C1103 C1102 1.399 . S
C1103 C1104 1.385 . S
C1104 H1090 0.931 . S
C1104 C1103 1.385 . S
C1104 C1105 1.389 . S
C1105 C1104 1.389 . S
C1105 C1106 1.387 . S
C1106 H1091 0.930 . S
C1106 C1101 1.390 . S
C1106 C1105 1.387 . S
H1107 C1119 0.930 . S
H1108 C1121 0.930 . S
H1109 C1122 0.930 . S
H1110 C1126 0.959 . S
H1111 C1126 0.959 . S
H1112 C1126 0.961 . S
H1113 C1127 0.960 . S
H1114 C1127 0.961 . S
H1115 C1127 0.959 . S
H1116 C1130 0.929 . S
H1117 C1131 0.931 . S
H1118 C1133 0.930 . S
C1119 H1107 0.930 . S
C1119 C1120 1.399 . S
C1119 C1124 1.399 . S
C1120 C1119 1.399 . S
C1120 C1121 1.376 . S
C1121 H1108 0.930 . S
C1121 C1120 1.376 . S
C1121 C1122 1.388 . S
C1122 H1109 0.930 . S
C1122 C1121 1.388 . S
C1122 C1123 1.390 . S
C1123 C1122 1.390 . S
C1123 C1124 1.394 . S
C1123 C1129 1.465 . S
C1124 C1119 1.399 . S
C1124 C1123 1.394 . S
C1124 C1125 1.516 . S
C1125 C1124 1.516 . S
C1125 C1126 1.502 . S
C1125 C1127 1.561 . S
C1125 C1128 1.526 . S
C1126 H1110 0.959 . S
C1126 H1111 0.959 . S
C1126 H1112 0.961 . S
C1126 C1125 1.502 . S
C1127 H1113 0.960 . S
C1127 H1114 0.961 . S
C1127 H1115 0.959 . S
C1127 C1125 1.561 . S
C1128 C1125 1.526 . S
C1128 C1129 1.396 . S
C1128 C1133 1.390 . S
C1129 C1123 1.465 . S
C1129 C1128 1.396 . S
C1129 C1130 1.399 . S
C1130 H1116 0.929 . S
C1130 C1129 1.399 . S
C1130 C1131 1.385 . S
C1131 H1117 0.931 . S
C1131 C1130 1.385 . S
C1131 C1132 1.389 . S
C1132 C1131 1.389 . S
C1132 C1133 1.387 . S
C1133 H1118 0.930 . S
C1133 C1128 1.390 . S
C1133 C1132 1.387 . S
H1134 C1146 0.930 . S
H1135 C1148 0.930 . S
H1136 C1149 0.930 . S
H1137 C1153 0.959 . S
H1138 C1153 0.959 . S
H1139 C1153 0.961 . S
H1140 C1154 0.960 . S
H1141 C1154 0.961 . S
H1142 C1154 0.959 . S
H1143 C1157 0.929 . S
H1144 C1158 0.931 . S
H1145 C1160 0.930 . S
C1146 H1134 0.930 . S
C1146 C1147 1.399 . S
C1146 C1151 1.399 . S
C1147 C1146 1.399 . S
C1147 C1148 1.376 . S
C1148 H1135 0.930 . S
C1148 C1147 1.376 . S
C1148 C1149 1.388 . S
C1149 H1136 0.930 . S
C1149 C1148 1.388 . S
C1149 C1150 1.390 . S
C1150 C1149 1.390 . S
C1150 C1151 1.394 . S
C1150 C1156 1.465 . S
C1151 C1146 1.399 . S
C1151 C1150 1.394 . S
C1151 C1152 1.516 . S
C1152 C1151 1.516 . S
C1152 C1153 1.502 . S
C1152 C1154 1.561 . S
C1152 C1155 1.526 . S
C1153 H1137 0.959 . S
C1153 H1138 0.959 . S
C1153 H1139 0.961 . S
C1153 C1152 1.502 . S
C1154 H1140 0.960 . S
C1154 H1141 0.961 . S
C1154 H1142 0.959 . S
C1154 C1152 1.561 . S
C1155 C1152 1.526 . S
C1155 C1156 1.396 . S
C1155 C1160 1.390 . S
C1156 C1150 1.465 . S
C1156 C1155 1.396 . S
C1156 C1157 1.399 . S
C1157 H1143 0.929 . S
C1157 C1156 1.399 . S
C1157 C1158 1.385 . S
C1158 H1144 0.931 . S
C1158 C1157 1.385 . S
C1158 C1159 1.389 . S
C1159 C1158 1.389 . S
C1159 C1160 1.387 . S
C1160 H1145 0.930 . S
C1160 C1155 1.390 . S
C1160 C1159 1.387 . S
H1161 C1173 0.930 . S
H1162 C1175 0.930 . S
H1163 C1176 0.930 . S
H1164 C1180 0.959 . S
H1165 C1180 0.959 1_545 S
H1166 C1180 0.961 . S
H1167 C1181 0.960 . S
H1168 C1181 0.961 1_545 S
H1169 C1181 0.959 1_545 S
H1170 C1184 0.929 . S
H1171 C1185 0.931 . S
H1172 C1187 0.930 . S
C1173 H1161 0.930 . S
C1173 C1174 1.399 . S
C1173 C1178 1.399 . S
C1174 C1173 1.399 . S
C1174 C1175 1.376 . S
C1175 H1162 0.930 . S
C1175 C1174 1.376 . S
C1175 C1176 1.388 . S
C1176 H1163 0.930 . S
C1176 C1175 1.388 . S
C1176 C1177 1.390 . S
C1177 C1176 1.390 . S
C1177 C1178 1.394 . S
C1177 C1183 1.465 1_565 S
C1178 C1173 1.399 . S
C1178 C1177 1.394 . S
C1178 C1179 1.516 . S
C1179 C1178 1.516 . S
C1179 C1180 1.502 . S
C1179 C1181 1.561 . S
C1179 C1182 1.526 1_565 S
C1180 H1164 0.959 . S
C1180 H1165 0.959 1_565 S
C1180 H1166 0.961 . S
C1180 C1179 1.502 . S
C1181 H1167 0.960 . S
C1181 H1168 0.961 1_565 S
C1181 H1169 0.959 1_565 S
C1181 C1179 1.561 . S
C1182 C1179 1.526 1_545 S
C1182 C1183 1.396 . S
C1182 C1187 1.390 . S
C1183 C1177 1.465 1_545 S
C1183 C1182 1.396 . S
C1183 C1184 1.399 . S
C1184 H1170 0.929 . S
C1184 C1183 1.399 . S
C1184 C1185 1.385 . S
C1185 H1171 0.931 . S
C1185 C1184 1.385 . S
C1185 C1186 1.389 . S
C1186 C1185 1.389 . S
C1186 C1187 1.387 . S
C1187 H1172 0.930 . S
C1187 C1182 1.390 . S
C1187 C1186 1.387 . S
H1188 C1200 0.930 . S
H1189 C1202 0.930 . S
H1190 C1203 0.930 . S
H1191 C1207 0.959 . S
H1192 C1207 0.959 . S
H1193 C1207 0.961 1_655 S
H1194 C1208 0.960 . S
H1195 C1208 0.961 . S
H1196 C1208 0.959 . S
H1197 C1211 0.929 . S
H1198 C1212 0.931 . S
H1199 C1214 0.930 . S
C1200 H1188 0.930 . S
C1200 C1201 1.399 . S
C1200 C1205 1.399 . S
C1201 C1200 1.399 . S
C1201 C1202 1.376 . S
C1202 H1189 0.930 . S
C1202 C1201 1.376 . S
C1202 C1203 1.388 . S
C1203 H1190 0.930 . S
C1203 C1202 1.388 . S
C1203 C1204 1.390 . S
C1204 C1203 1.390 . S
C1204 C1205 1.394 . S
C1204 C1210 1.465 1_655 S
C1205 C1200 1.399 . S
C1205 C1204 1.394 . S
C1205 C1206 1.516 1_655 S
C1206 C1205 1.516 1_455 S
C1206 C1207 1.502 . S
C1206 C1208 1.561 . S
C1206 C1209 1.526 . S
C1207 H1191 0.959 . S
C1207 H1192 0.959 . S
C1207 H1193 0.961 1_455 S
C1207 C1206 1.502 . S
C1208 H1194 0.960 . S
C1208 H1195 0.961 . S
C1208 H1196 0.959 . S
C1208 C1206 1.561 . S
C1209 C1206 1.526 . S
C1209 C1210 1.396 . S
C1209 C1214 1.390 . S
C1210 C1204 1.465 1_455 S
C1210 C1209 1.396 . S
C1210 C1211 1.399 . S
C1211 H1197 0.929 . S
C1211 C1210 1.399 . S
C1211 C1212 1.385 . S
C1212 H1198 0.931 . S
C1212 C1211 1.385 . S
C1212 C1213 1.389 . S
C1213 C1212 1.389 . S
C1213 C1214 1.387 . S
C1214 H1199 0.930 . S
C1214 C1209 1.390 . S
C1214 C1213 1.387 . S
H1215 C1227 0.930 . S
H1216 C1229 0.930 . S
H1217 C1230 0.930 . S
H1218 C1234 0.959 . S
H1219 C1234 0.959 . S
H1220 C1234 0.961 . S
H1221 C1235 0.960 . S
H1222 C1235 0.961 . S
H1223 C1235 0.959 . S
H1224 C1238 0.929 . S
H1225 C1239 0.931 . S
H1226 C1241 0.930 . S
C1227 H1215 0.930 . S
C1227 C1228 1.399 . S
C1227 C1232 1.399 . S
C1228 C1227 1.399 . S
C1228 C1229 1.376 . S
C1229 H1216 0.930 . S
C1229 C1228 1.376 . S
C1229 C1230 1.388 . S
C1230 H1217 0.930 . S
C1230 C1229 1.388 . S
C1230 C1231 1.390 . S
C1231 C1230 1.390 . S
C1231 C1232 1.394 . S
C1231 C1237 1.465 . S
C1232 C1227 1.399 . S
C1232 C1231 1.394 . S
C1232 C1233 1.516 . S
C1233 C1232 1.516 . S
C1233 C1234 1.502 . S
C1233 C1235 1.561 . S
C1233 C1236 1.526 . S
C1234 H1218 0.959 . S
C1234 H1219 0.959 . S
C1234 H1220 0.961 . S
C1234 C1233 1.502 . S
C1235 H1221 0.960 . S
C1235 H1222 0.961 . S
C1235 H1223 0.959 . S
C1235 C1233 1.561 . S
C1236 C1233 1.526 . S
C1236 C1237 1.396 . S
C1236 C1241 1.390 . S
C1237 C1231 1.465 . S
C1237 C1236 1.396 . S
C1237 C1238 1.399 . S
C1238 H1224 0.929 . S
C1238 C1237 1.399 . S
C1238 C1239 1.385 . S
C1239 H1225 0.931 . S
C1239 C1238 1.385 . S
C1239 C1240 1.389 . S
C1240 C1239 1.389 . S
C1240 C1241 1.387 . S
C1241 H1226 0.930 . S
C1241 C1236 1.390 . S
C1241 C1240 1.387 . S
H1242 C1254 0.930 . S
H1243 C1256 0.930 . S
H1244 C1257 0.930 . S
H1245 C1261 0.959 . S
H1246 C1261 0.959 . S
H1247 C1261 0.961 . S
H1248 C1262 0.960 . S
H1249 C1262 0.961 . S
H1250 C1262 0.959 . S
H1251 C1265 0.929 . S
H1252 C1266 0.931 . S
H1253 C1268 0.930 . S
C1254 H1242 0.930 . S
C1254 C1255 1.399 . S
C1254 C1259 1.399 . S
C1255 C1254 1.399 . S
C1255 C1256 1.376 . S
C1256 H1243 0.930 . S
C1256 C1255 1.376 . S
C1256 C1257 1.388 . S
C1257 H1244 0.930 . S
C1257 C1256 1.388 . S
C1257 C1258 1.390 . S
C1258 C1257 1.390 . S
C1258 C1259 1.394 . S
C1258 C1264 1.465 . S
C1259 C1254 1.399 . S
C1259 C1258 1.394 . S
C1259 C1260 1.516 . S
C1260 C1259 1.516 . S
C1260 C1261 1.502 . S
C1260 C1262 1.561 . S
C1260 C1263 1.526 . S
C1261 H1245 0.959 . S
C1261 H1246 0.959 . S
C1261 H1247 0.961 . S
C1261 C1260 1.502 . S
C1262 H1248 0.960 . S
C1262 H1249 0.961 . S
C1262 H1250 0.959 . S
C1262 C1260 1.561 . S
C1263 C1260 1.526 . S
C1263 C1264 1.396 . S
C1263 C1268 1.390 . S
C1264 C1258 1.465 . S
C1264 C1263 1.396 . S
C1264 C1265 1.399 . S
C1265 H1251 0.929 . S
C1265 C1264 1.399 . S
C1265 C1266 1.385 . S
C1266 H1252 0.931 . S
C1266 C1265 1.385 . S
C1266 C1267 1.389 . S
C1267 C1266 1.389 . S
C1267 C1268 1.387 . S
C1268 H1253 0.930 . S
C1268 C1263 1.390 . S
C1268 C1267 1.387 . S
H1269 C1281 0.930 . S
H1270 C1283 0.930 . S
H1271 C1284 0.930 . S
H1272 C1288 0.959 . S
H1273 C1288 0.959 . S
H1274 C1288 0.961 . S
H1275 C1289 0.960 . S
H1276 C1289 0.961 . S
H1277 C1289 0.959 . S
H1278 C1292 0.929 . S
H1279 C1293 0.931 . S
H1280 C1295 0.930 . S
C1281 H1269 0.930 . S
C1281 C1282 1.399 . S
C1281 C1286 1.399 . S
C1282 C1281 1.399 . S
C1282 C1283 1.376 . S
C1283 H1270 0.930 . S
C1283 C1282 1.376 . S
C1283 C1284 1.388 . S
C1284 H1271 0.930 . S
C1284 C1283 1.388 . S
C1284 C1285 1.390 . S
C1285 C1284 1.390 . S
C1285 C1286 1.394 . S
C1285 C1291 1.465 . S
C1286 C1281 1.399 . S
C1286 C1285 1.394 . S
C1286 C1287 1.516 . S
C1287 C1286 1.516 . S
C1287 C1288 1.502 . S
C1287 C1289 1.561 . S
C1287 C1290 1.526 . S
C1288 H1272 0.959 . S
C1288 H1273 0.959 . S
C1288 H1274 0.961 . S
C1288 C1287 1.502 . S
C1289 H1275 0.960 . S
C1289 H1276 0.961 . S
C1289 H1277 0.959 . S
C1289 C1287 1.561 . S
C1290 C1287 1.526 . S
C1290 C1291 1.396 . S
C1290 C1295 1.390 . S
C1291 C1285 1.465 . S
C1291 C1290 1.396 . S
C1291 C1292 1.399 . S
C1292 H1278 0.929 . S
C1292 C1291 1.399 . S
C1292 C1293 1.385 . S
C1293 H1279 0.931 . S
C1293 C1292 1.385 . S
C1293 C1294 1.389 . S
C1294 C1293 1.389 . S
C1294 C1295 1.387 . S
C1295 H1280 0.930 . S
C1295 C1290 1.390 . S
C1295 C1294 1.387 . S
H1296 C1308 0.930 . S
H1297 C1310 0.930 . S
H1298 C1311 0.930 . S
H1299 C1315 0.959 . S
H1300 C1315 0.959 . S
H1301 C1315 0.961 . S
H1302 C1316 0.960 . S
H1303 C1316 0.961 . S
H1304 C1316 0.959 . S
H1305 C1319 0.929 . S
H1306 C1320 0.931 . S
H1307 C1322 0.930 . S
C1308 H1296 0.930 . S
C1308 C1309 1.399 . S
C1308 C1313 1.399 . S
C1309 C1308 1.399 . S
C1309 C1310 1.376 . S
C1310 H1297 0.930 . S
C1310 C1309 1.376 . S
C1310 C1311 1.388 . S
C1311 H1298 0.930 . S
C1311 C1310 1.388 . S
C1311 C1312 1.390 . S
C1312 C1311 1.390 . S
C1312 C1313 1.394 . S
C1312 C1318 1.465 . S
C1313 C1308 1.399 . S
C1313 C1312 1.394 . S
C1313 C1314 1.516 . S
C1314 C1313 1.516 . S
C1314 C1315 1.502 . S
C1314 C1316 1.561 . S
C1314 C1317 1.526 . S
C1315 H1299 0.959 . S
C1315 H1300 0.959 . S
C1315 H1301 0.961 . S
C1315 C1314 1.502 . S
C1316 H1302 0.960 . S
C1316 H1303 0.961 . S
C1316 H1304 0.959 . S
C1316 C1314 1.561 . S
C1317 C1314 1.526 . S
C1317 C1318 1.396 . S
C1317 C1322 1.390 . S
C1318 C1312 1.465 . S
C1318 C1317 1.396 . S
C1318 C1319 1.399 . S
C1319 H1305 0.929 . S
C1319 C1318 1.399 . S
C1319 C1320 1.385 . S
C1320 H1306 0.931 . S
C1320 C1319 1.385 . S
C1320 C1321 1.389 . S
C1321 C1320 1.389 . S
C1321 C1322 1.387 . S
C1322 H1307 0.930 . S
C1322 C1317 1.390 . S
C1322 C1321 1.387 . S
H1323 C1335 0.930 . S
H1324 C1337 0.930 . S
H1325 C1338 0.930 . S
H1326 C1342 0.959 . S
H1327 C1342 0.959 . S
H1328 C1342 0.961 . S
H1329 C1343 0.960 . S
H1330 C1343 0.961 . S
H1331 C1343 0.959 . S
H1332 C1346 0.929 . S
H1333 C1347 0.931 . S
H1334 C1349 0.930 . S
C1335 H1323 0.930 . S
C1335 C1336 1.399 . S
C1335 C1340 1.399 . S
C1336 C1335 1.399 . S
C1336 C1337 1.376 . S
C1337 H1324 0.930 . S
C1337 C1336 1.376 . S
C1337 C1338 1.388 . S
C1338 H1325 0.930 . S
C1338 C1337 1.388 . S
C1338 C1339 1.390 . S
C1339 C1338 1.390 . S
C1339 C1340 1.394 . S
C1339 C1345 1.465 . S
C1340 C1335 1.399 . S
C1340 C1339 1.394 . S
C1340 C1341 1.516 . S
C1341 C1340 1.516 . S
C1341 C1342 1.502 . S
C1341 C1343 1.561 . S
C1341 C1344 1.526 . S
C1342 H1326 0.959 . S
C1342 H1327 0.959 . S
C1342 H1328 0.961 . S
C1342 C1341 1.502 . S
C1343 H1329 0.960 . S
C1343 H1330 0.961 . S
C1343 H1331 0.959 . S
C1343 C1341 1.561 . S
C1344 C1341 1.526 . S
C1344 C1345 1.396 . S
C1344 C1349 1.390 . S
C1345 C1339 1.465 . S
C1345 C1344 1.396 . S
C1345 C1346 1.399 . S
C1346 H1332 0.929 . S
C1346 C1345 1.399 . S
C1346 C1347 1.385 . S
C1347 H1333 0.931 . S
C1347 C1346 1.385 . S
C1347 C1348 1.389 . S
C1348 C1347 1.389 . S
C1348 C1349 1.387 . S
C1349 H1334 0.930 . S
C1349 C1344 1.390 . S
C1349 C1348 1.387 . S
H1350 C1362 0.930 . S
H1351 C1364 0.930 . S
H1352 C1365 0.930 . S
H1353 C1369 0.959 . S
H1354 C1369 0.959 . S
H1355 C1369 0.961 . S
H1356 C1370 0.960 . S
H1357 C1370 0.961 . S
H1358 C1370 0.959 . S
H1359 C1373 0.929 . S
H1360 C1374 0.931 . S
H1361 C1376 0.930 . S
C1362 H1350 0.930 . S
C1362 C1363 1.399 . S
C1362 C1367 1.399 . S
C1363 C1362 1.399 . S
C1363 C1364 1.376 . S
C1364 H1351 0.930 . S
C1364 C1363 1.376 . S
C1364 C1365 1.388 . S
C1365 H1352 0.930 . S
C1365 C1364 1.388 . S
C1365 C1366 1.390 . S
C1366 C1365 1.390 . S
C1366 C1367 1.394 . S
C1366 C1372 1.465 . S
C1367 C1362 1.399 . S
C1367 C1366 1.394 . S
C1367 C1368 1.516 . S
C1368 C1367 1.516 . S
C1368 C1369 1.502 . S
C1368 C1370 1.561 . S
C1368 C1371 1.526 . S
C1369 H1353 0.959 . S
C1369 H1354 0.959 . S
C1369 H1355 0.961 . S
C1369 C1368 1.502 . S
C1370 H1356 0.960 . S
C1370 H1357 0.961 . S
C1370 H1358 0.959 . S
C1370 C1368 1.561 . S
C1371 C1368 1.526 . S
C1371 C1372 1.396 . S
C1371 C1376 1.390 . S
C1372 C1366 1.465 . S
C1372 C1371 1.396 . S
C1372 C1373 1.399 . S
C1373 H1359 0.929 . S
C1373 C1372 1.399 . S
C1373 C1374 1.385 . S
C1374 H1360 0.931 . S
C1374 C1373 1.385 . S
C1374 C1375 1.389 . S
C1375 C1374 1.389 . S
C1375 C1376 1.387 . S
C1376 H1361 0.930 . S
C1376 C1371 1.390 . S
C1376 C1375 1.387 . S
H1377 C1389 0.930 . S
H1378 C1391 0.930 . S
H1379 C1392 0.930 . S
H1380 C1396 0.959 . S
H1381 C1396 0.959 . S
H1382 C1396 0.961 . S
H1383 C1397 0.960 . S
H1384 C1397 0.961 . S
H1385 C1397 0.959 . S
H1386 C1400 0.929 . S
H1387 C1401 0.931 . S
H1388 C1403 0.930 . S
C1389 H1377 0.930 . S
C1389 C1390 1.399 . S
C1389 C1394 1.399 . S
C1390 C1389 1.399 . S
C1390 C1391 1.376 . S
C1391 H1378 0.930 . S
C1391 C1390 1.376 . S
C1391 C1392 1.388 . S
C1392 H1379 0.930 . S
C1392 C1391 1.388 . S
C1392 C1393 1.390 . S
C1393 C1392 1.390 . S
C1393 C1394 1.394 . S
C1393 C1399 1.465 . S
C1394 C1389 1.399 . S
C1394 C1393 1.394 . S
C1394 C1395 1.516 . S
C1395 C1394 1.516 . S
C1395 C1396 1.502 . S
C1395 C1397 1.561 . S
C1395 C1398 1.526 . S
C1396 H1380 0.959 . S
C1396 H1381 0.959 . S
C1396 H1382 0.961 . S
C1396 C1395 1.502 . S
C1397 H1383 0.960 . S
C1397 H1384 0.961 . S
C1397 H1385 0.959 . S
C1397 C1395 1.561 . S
C1398 C1395 1.526 . S
C1398 C1399 1.396 . S
C1398 C1403 1.390 . S
C1399 C1393 1.465 . S
C1399 C1398 1.396 . S
C1399 C1400 1.399 . S
C1400 H1386 0.929 . S
C1400 C1399 1.399 . S
C1400 C1401 1.385 . S
C1401 H1387 0.931 . S
C1401 C1400 1.385 . S
C1401 C1402 1.389 . S
C1402 C1401 1.389 . S
C1402 C1403 1.387 . S
C1403 H1388 0.930 . S
C1403 C1398 1.390 . S
C1403 C1402 1.387 . S
H1404 C1416 0.930 . S
H1405 C1418 0.930 . S
H1406 C1419 0.930 . S
H1407 C1423 0.959 . S
H1408 C1423 0.959 . S
H1409 C1423 0.961 . S
H1410 C1424 0.960 . S
H1411 C1424 0.961 . S
H1412 C1424 0.959 . S
H1413 C1427 0.929 . S
H1414 C1428 0.931 . S
H1415 C1430 0.930 . S
C1416 H1404 0.930 . S
C1416 C1417 1.399 . S
C1416 C1421 1.399 . S
C1417 C1416 1.399 . S
C1417 C1418 1.376 . S
C1418 H1405 0.930 . S
C1418 C1417 1.376 . S
C1418 C1419 1.388 . S
C1419 H1406 0.930 . S
C1419 C1418 1.388 . S
C1419 C1420 1.390 . S
C1420 C1419 1.390 . S
C1420 C1421 1.394 . S
C1420 C1426 1.465 . S
C1421 C1416 1.399 . S
C1421 C1420 1.394 . S
C1421 C1422 1.516 . S
C1422 C1421 1.516 . S
C1422 C1423 1.502 . S
C1422 C1424 1.561 . S
C1422 C1425 1.526 . S
C1423 H1407 0.959 . S
C1423 H1408 0.959 . S
C1423 H1409 0.961 . S
C1423 C1422 1.502 . S
C1424 H1410 0.960 . S
C1424 H1411 0.961 . S
C1424 H1412 0.959 . S
C1424 C1422 1.561 . S
C1425 C1422 1.526 . S
C1425 C1426 1.396 . S
C1425 C1430 1.390 . S
C1426 C1420 1.465 . S
C1426 C1425 1.396 . S
C1426 C1427 1.399 . S
C1427 H1413 0.929 . S
C1427 C1426 1.399 . S
C1427 C1428 1.385 . S
C1428 H1414 0.931 . S
C1428 C1427 1.385 . S
C1428 C1429 1.389 . S
C1429 C1428 1.389 . S
C1429 C1430 1.387 . S
C1430 H1415 0.930 . S
C1430 C1425 1.390 . S
C1430 C1429 1.387 . S
H1431 C1443 0.930 . S
H1432 C1445 0.930 . S
H1433 C1446 0.930 1_545 S
H1434 C1450 0.959 . S
H1435 C1450 0.959 . S
H1436 C1450 0.961 . S
H1437 C1451 0.960 . S
H1438 C1451 0.961 . S
H1439 C1451 0.959 . S
H1440 C1454 0.929 . S
H1441 C1455 0.931 . S
H1442 C1457 0.930 . S
C1443 H1431 0.930 . S
C1443 C1444 1.399 . S
C1443 C1448 1.399 . S
C1444 C1443 1.399 . S
C1444 C1445 1.376 . S
C1445 H1432 0.930 . S
C1445 C1444 1.376 . S
C1445 C1446 1.388 . S
C1446 H1433 0.930 1_565 S
C1446 C1445 1.388 . S
C1446 C1447 1.390 . S
C1447 C1446 1.390 . S
C1447 C1448 1.394 . S
C1447 C1453 1.465 1_565 S
C1448 C1443 1.399 . S
C1448 C1447 1.394 . S
C1448 C1449 1.516 . S
C1449 C1448 1.516 . S
C1449 C1450 1.502 . S
C1449 C1451 1.561 . S
C1449 C1452 1.526 1_565 S
C1450 H1434 0.959 . S
C1450 H1435 0.959 . S
C1450 H1436 0.961 . S
C1450 C1449 1.502 . S
C1451 H1437 0.960 . S
C1451 H1438 0.961 . S
C1451 H1439 0.959 . S
C1451 C1449 1.561 . S
C1452 C1449 1.526 1_545 S
C1452 C1453 1.396 . S
C1452 C1457 1.390 . S
C1453 C1447 1.465 1_545 S
C1453 C1452 1.396 . S
C1453 C1454 1.399 . S
C1454 H1440 0.929 . S
C1454 C1453 1.399 . S
C1454 C1455 1.385 . S
C1455 H1441 0.931 . S
C1455 C1454 1.385 . S
C1455 C1456 1.389 . S
C1456 C1455 1.389 . S
C1456 C1457 1.387 . S
C1457 H1442 0.930 . S
C1457 C1452 1.390 . S
C1457 C1456 1.387 . S
H1458 C1470 0.930 . S
H1459 C1472 0.930 . S
H1460 C1473 0.930 1_455 S
H1461 C1477 0.959 1_455 S
H1462 C1477 0.959 1_455 S
H1463 C1477 0.961 . S
H1464 C1478 0.960 . S
H1465 C1478 0.961 . S
H1466 C1478 0.959 . S
H1467 C1481 0.929 . S
H1468 C1482 0.931 . S
H1469 C1484 0.930 . S
C1470 H1458 0.930 . S
C1470 C1471 1.399 . S
C1470 C1475 1.399 . S
C1471 C1470 1.399 . S
C1471 C1472 1.376 . S
C1472 H1459 0.930 . S
C1472 C1471 1.376 . S
C1472 C1473 1.388 . S
C1473 H1460 0.930 1_655 S
C1473 C1472 1.388 . S
C1473 C1474 1.390 1_655 S
C1474 C1473 1.390 1_455 S
C1474 C1475 1.394 1_455 S
C1474 C1480 1.465 . S
C1475 C1470 1.399 . S
C1475 C1474 1.394 1_655 S
C1475 C1476 1.516 . S
C1476 C1475 1.516 . S
C1476 C1477 1.502 . S
C1476 C1478 1.561 . S
C1476 C1479 1.526 1_655 S
C1477 H1461 0.959 1_655 S
C1477 H1462 0.959 1_655 S
C1477 H1463 0.961 . S
C1477 C1476 1.502 . S
C1478 H1464 0.960 . S
C1478 H1465 0.961 . S
C1478 H1466 0.959 . S
C1478 C1476 1.561 . S
C1479 C1476 1.526 1_455 S
C1479 C1480 1.396 . S
C1479 C1484 1.390 . S
C1480 C1474 1.465 . S
C1480 C1479 1.396 . S
C1480 C1481 1.399 . S
C1481 H1467 0.929 . S
C1481 C1480 1.399 . S
C1481 C1482 1.385 . S
C1482 H1468 0.931 . S
C1482 C1481 1.385 . S
C1482 C1483 1.389 . S
C1483 C1482 1.389 . S
C1483 C1484 1.387 . S
C1484 H1469 0.930 . S
C1484 C1479 1.390 . S
C1484 C1483 1.387 . S
C769 C142 1.169 . S
C781 C56 1.298 . S
C796 C226 1.213 . S
C808 C140 1.363 1_554 S
C823 C224 1.310 1_554 S
C835 C58 1.257 . S
C850 C238 1.246 . S
C862 C151 1.327 1_556 S
C877 C235 1.350 1_556 S
C889 C70 1.236 . S
C904 C67 1.302 . S
C916 C154 1.140 . S
C931 C308 1.386 . S
C943 C394 1.084 . S
C958 C478 1.226 . S
C970 C392 1.354 . S
C985 C476 1.311 . S
C997 C310 1.257 . S
C1012 C403 1.303 . S
C1024 C490 1.124 . S
C1039 C487 1.352 . S
C1051 C322 1.224 . S
C1066 C406 1.239 . S
C1078 C319 1.322 . S
C1093 C646 1.162 . S
C1105 C560 1.389 . S
C1120 C644 1.322 . S
C1132 C730 1.253 . S
C1147 C728 1.396 . S
C1159 C562 1.097 . S
C1174 C742 1.240 . S
C1186 C655 1.323 . S
C1201 C739 1.343 . S
C1213 C574 1.251 . S
C1228 C571 1.348 . S
C1240 C658 1.243 . S
C1255 C494 2.542 . S
C1267 C63 2.642 . S
C1282 C326 2.586 . S
C1294 C147 2.642 . S
C1309 C231 2.636 . S
C1321 C410 2.536 . S
C1336 C242 2.587 . S
C1348 C567 2.625 . S
C1363 C74 2.527 . S
C1375 C651 2.624 . S
C1390 C735 2.627 . S
C1402 C158 2.588 . S
C1417 C315 2.649 . S
C1429 C746 2.574 . S
C1444 C399 2.600 . S
C1456 C578 2.553 . S
C1471 C662 2.528 . S
C1483 C483 2.611 . S
