# Generated by pormake.
# Topology umv, (4)-cn, num edge types: 1
# Building blocks:
#     Node 0, Type 0, BuildingBlock: GALJAG_clean_sbu_0, # of connection points: 4
#     Node 1, Type 0, BuildingBlock: GALJAG_clean_sbu_0, # of connection points: 4
#     Node 2, Type 0, BuildingBlock: GALJAG_clean_sbu_0, # of connection points: 4
#     Node 3, Type 0, BuildingBlock: GALJAG_clean_sbu_0, # of connection points: 4
#     Node 4, Type 0, BuildingBlock: GALJAG_clean_sbu_0, # of connection points: 4
#     Node 5, Type 0, BuildingBlock: GALJAG_clean_sbu_0, # of connection points: 4
#     Node 6, Type 0, BuildingBlock: GALJAG_clean_sbu_0, # of connection points: 4
#     Node 7, Type 0, BuildingBlock: GALJAG_clean_sbu_0, # of connection points: 4
#     Node 8, Type 0, BuildingBlock: GALJAG_clean_sbu_0, # of connection points: 4
#     Node 9, Type 0, BuildingBlock: GALJAG_clean_sbu_0, # of connection points: 4
#     Node 10, Type 0, BuildingBlock: GALJAG_clean_sbu_0, # of connection points: 4
#     Node 11, Type 0, BuildingBlock: GALJAG_clean_sbu_0, # of connection points: 4
#     Node 12, Type 0, BuildingBlock: GALJAG_clean_sbu_0, # of connection points: 4
#     Node 13, Type 0, BuildingBlock: GALJAG_clean_sbu_0, # of connection points: 4
#     Node 14, Type 0, BuildingBlock: GALJAG_clean_sbu_0, # of connection points: 4
#     Node 15, Type 0, BuildingBlock: GALJAG_clean_sbu_0, # of connection points: 4
#     Node 16, Type 0, BuildingBlock: GALJAG_clean_sbu_0, # of connection points: 4
#     Node 17, Type 0, BuildingBlock: GALJAG_clean_sbu_0, # of connection points: 4
#     Node 18, Type 0, BuildingBlock: GALJAG_clean_sbu_0, # of connection points: 4
#     Node 19, Type 0, BuildingBlock: GALJAG_clean_sbu_0, # of connection points: 4
#     Node 20, Type 0, BuildingBlock: GALJAG_clean_sbu_0, # of connection points: 4
#     Node 21, Type 0, BuildingBlock: GALJAG_clean_sbu_0, # of connection points: 4
#     Node 22, Type 0, BuildingBlock: GALJAG_clean_sbu_0, # of connection points: 4
#     Node 23, Type 0, BuildingBlock: GALJAG_clean_sbu_0, # of connection points: 4
#     Node 24, Type 0, BuildingBlock: GALJAG_clean_sbu_0, # of connection points: 4
#     Node 25, Type 0, BuildingBlock: GALJAG_clean_sbu_0, # of connection points: 4
#     Node 26, Type 0, BuildingBlock: GALJAG_clean_sbu_0, # of connection points: 4
#     Node 27, Type 0, BuildingBlock: GALJAG_clean_sbu_0, # of connection points: 4
#     Node 28, Type 0, BuildingBlock: GALJAG_clean_sbu_0, # of connection points: 4
#     Node 29, Type 0, BuildingBlock: GALJAG_clean_sbu_0, # of connection points: 4
#     Node 30, Type 0, BuildingBlock: GALJAG_clean_sbu_0, # of connection points: 4
#     Node 31, Type 0, BuildingBlock: GALJAG_clean_sbu_0, # of connection points: 4
#     Edge 32, Type (0, 0), BuildingBlock: EZIPEK_clean_linker_0, # of connection points: 2
#     Edge 33, Type (0, 0), BuildingBlock: EZIPEK_clean_linker_0, # of connection points: 2
#     Edge 34, Type (0, 0), BuildingBlock: EZIPEK_clean_linker_0, # of connection points: 2
#     Edge 35, Type (0, 0), BuildingBlock: EZIPEK_clean_linker_0, # of connection points: 2
#     Edge 36, Type (0, 0), BuildingBlock: EZIPEK_clean_linker_0, # of connection points: 2
#     Edge 37, Type (0, 0), BuildingBlock: EZIPEK_clean_linker_0, # of connection points: 2
#     Edge 38, Type (0, 0), BuildingBlock: EZIPEK_clean_linker_0, # of connection points: 2
#     Edge 39, Type (0, 0), BuildingBlock: EZIPEK_clean_linker_0, # of connection points: 2
#     Edge 40, Type (0, 0), BuildingBlock: EZIPEK_clean_linker_0, # of connection points: 2
#     Edge 41, Type (0, 0), BuildingBlock: EZIPEK_clean_linker_0, # of connection points: 2
#     Edge 42, Type (0, 0), BuildingBlock: EZIPEK_clean_linker_0, # of connection points: 2
#     Edge 43, Type (0, 0), BuildingBlock: EZIPEK_clean_linker_0, # of connection points: 2
#     Edge 44, Type (0, 0), BuildingBlock: EZIPEK_clean_linker_0, # of connection points: 2
#     Edge 45, Type (0, 0), BuildingBlock: EZIPEK_clean_linker_0, # of connection points: 2
#     Edge 46, Type (0, 0), BuildingBlock: EZIPEK_clean_linker_0, # of connection points: 2
#     Edge 47, Type (0, 0), BuildingBlock: EZIPEK_clean_linker_0, # of connection points: 2
#     Edge 48, Type (0, 0), BuildingBlock: EZIPEK_clean_linker_0, # of connection points: 2
#     Edge 49, Type (0, 0), BuildingBlock: EZIPEK_clean_linker_0, # of connection points: 2
#     Edge 50, Type (0, 0), BuildingBlock: EZIPEK_clean_linker_0, # of connection points: 2
#     Edge 51, Type (0, 0), BuildingBlock: EZIPEK_clean_linker_0, # of connection points: 2
#     Edge 52, Type (0, 0), BuildingBlock: EZIPEK_clean_linker_0, # of connection points: 2
#     Edge 53, Type (0, 0), BuildingBlock: EZIPEK_clean_linker_0, # of connection points: 2
#     Edge 54, Type (0, 0), BuildingBlock: EZIPEK_clean_linker_0, # of connection points: 2
#     Edge 55, Type (0, 0), BuildingBlock: EZIPEK_clean_linker_0, # of connection points: 2
#     Edge 56, Type (0, 0), BuildingBlock: EZIPEK_clean_linker_0, # of connection points: 2
#     Edge 57, Type (0, 0), BuildingBlock: EZIPEK_clean_linker_0, # of connection points: 2
#     Edge 58, Type (0, 0), BuildingBlock: EZIPEK_clean_linker_0, # of connection points: 2
#     Edge 59, Type (0, 0), BuildingBlock: EZIPEK_clean_linker_0, # of connection points: 2
#     Edge 60, Type (0, 0), BuildingBlock: EZIPEK_clean_linker_0, # of connection points: 2
#     Edge 61, Type (0, 0), BuildingBlock: EZIPEK_clean_linker_0, # of connection points: 2
#     Edge 62, Type (0, 0), BuildingBlock: EZIPEK_clean_linker_0, # of connection points: 2
#     Edge 63, Type (0, 0), BuildingBlock: EZIPEK_clean_linker_0, # of connection points: 2
#     Edge 64, Type (0, 0), BuildingBlock: EZIPEK_clean_linker_0, # of connection points: 2
#     Edge 65, Type (0, 0), BuildingBlock: EZIPEK_clean_linker_0, # of connection points: 2
#     Edge 66, Type (0, 0), BuildingBlock: EZIPEK_clean_linker_0, # of connection points: 2
#     Edge 67, Type (0, 0), BuildingBlock: EZIPEK_clean_linker_0, # of connection points: 2
#     Edge 68, Type (0, 0), BuildingBlock: EZIPEK_clean_linker_0, # of connection points: 2
#     Edge 69, Type (0, 0), BuildingBlock: EZIPEK_clean_linker_0, # of connection points: 2
#     Edge 70, Type (0, 0), BuildingBlock: EZIPEK_clean_linker_0, # of connection points: 2
#     Edge 71, Type (0, 0), BuildingBlock: EZIPEK_clean_linker_0, # of connection points: 2
#     Edge 72, Type (0, 0), BuildingBlock: EZIPEK_clean_linker_0, # of connection points: 2
#     Edge 73, Type (0, 0), BuildingBlock: EZIPEK_clean_linker_0, # of connection points: 2
#     Edge 74, Type (0, 0), BuildingBlock: EZIPEK_clean_linker_0, # of connection points: 2
#     Edge 75, Type (0, 0), BuildingBlock: EZIPEK_clean_linker_0, # of connection points: 2
#     Edge 76, Type (0, 0), BuildingBlock: EZIPEK_clean_linker_0, # of connection points: 2
#     Edge 77, Type (0, 0), BuildingBlock: EZIPEK_clean_linker_0, # of connection points: 2
#     Edge 78, Type (0, 0), BuildingBlock: EZIPEK_clean_linker_0, # of connection points: 2
#     Edge 79, Type (0, 0), BuildingBlock: EZIPEK_clean_linker_0, # of connection points: 2
#     Edge 80, Type (0, 0), BuildingBlock: EZIPEK_clean_linker_0, # of connection points: 2
#     Edge 81, Type (0, 0), BuildingBlock: EZIPEK_clean_linker_0, # of connection points: 2
#     Edge 82, Type (0, 0), BuildingBlock: EZIPEK_clean_linker_0, # of connection points: 2
#     Edge 83, Type (0, 0), BuildingBlock: EZIPEK_clean_linker_0, # of connection points: 2
#     Edge 84, Type (0, 0), BuildingBlock: EZIPEK_clean_linker_0, # of connection points: 2
#     Edge 85, Type (0, 0), BuildingBlock: EZIPEK_clean_linker_0, # of connection points: 2
#     Edge 86, Type (0, 0), BuildingBlock: EZIPEK_clean_linker_0, # of connection points: 2
#     Edge 87, Type (0, 0), BuildingBlock: EZIPEK_clean_linker_0, # of connection points: 2
#     Edge 88, Type (0, 0), BuildingBlock: EZIPEK_clean_linker_0, # of connection points: 2
#     Edge 89, Type (0, 0), BuildingBlock: EZIPEK_clean_linker_0, # of connection points: 2
#     Edge 90, Type (0, 0), BuildingBlock: EZIPEK_clean_linker_0, # of connection points: 2
#     Edge 91, Type (0, 0), BuildingBlock: EZIPEK_clean_linker_0, # of connection points: 2
#     Edge 92, Type (0, 0), BuildingBlock: EZIPEK_clean_linker_0, # of connection points: 2
#     Edge 93, Type (0, 0), BuildingBlock: EZIPEK_clean_linker_0, # of connection points: 2
#     Edge 94, Type (0, 0), BuildingBlock: EZIPEK_clean_linker_0, # of connection points: 2
#     Edge 95, Type (0, 0), BuildingBlock: EZIPEK_clean_linker_0, # of connection points: 2
# Relax obj value: 0.083
# Max RMSD: 0.091
# Mean RMSD: 0.091
data_MOF--net-umv--node1-GALJAG_clean_sbu_0--edge1-EZIPEK_clean_linker_0
_symmetry_space_group_name_H-M    P1
_symmetry_Int_Tables_number       1
_symmetry_cell_setting            triclinic
loop_
_symmetry_equiv_pos_as_xyz
'x, y, z'
_cell_length_a     77.966494
_cell_length_b     19.972847
_cell_length_c     37.088301
_cell_angle_alpha  89.989509
_cell_angle_beta   89.998608
_cell_angle_gamma 90.015118
loop_
_atom_site_label
_atom_site_type_symbol
_atom_site_fract_x
_atom_site_fract_y
_atom_site_fract_z
_atom_type_partial_charge
In0 In 0.05308 0.11484 0.30913 0.0
O1 O 0.05084 0.17836 0.35966 0.0
O2 O 0.05741 0.22595 0.30978 0.0
C3 C 0.04853 0.99217 0.33829 0.0
C4 C 0.02434 0.1513 0.27245 0.0
C5 C 0.08654 0.11365 0.29046 0.0
O6 O 0.04854 0.04508 0.35683 0.0
O7 O 0.05042 0.00079 0.30474 0.0
O8 O 0.07487 0.10324 0.26736 0.0
O9 O 0.08133 0.12224 0.32226 0.0
C10 C 0.05444 0.23184 0.343 0.0
O11 O 0.03866 0.1423 0.25719 0.0
O12 O 0.02459 0.13721 0.30558 0.0
In13 In 0.19165 0.11045 0.31606 0.0
O14 O 0.20699 0.07673 0.26659 0.0
O15 O 0.2207 0.09895 0.31455 0.0
C16 C 0.15925 0.12851 0.29402 0.0
C17 C 0.18756 0.9861 0.34081 0.0
C18 C 0.1968 0.22625 0.35183 0.0
O19 O 0.17177 0.13767 0.27272 0.0
O20 O 0.16317 0.11348 0.32601 0.0
O21 O 0.19676 0.16981 0.36733 0.0
O22 O 0.1946 0.2243 0.31801 0.0
C23 C 0.2211 0.07428 0.28333 0.0
O24 O 0.19222 0.03338 0.36133 0.0
O25 O 0.18425 0.00234 0.3088 0.0
In26 In 0.05991 0.13172 0.93515 0.0
O27 O 0.0631 0.07664 0.88173 0.0
O28 O 0.06481 0.02091 0.93071 0.0
C29 C 0.05532 0.25727 0.90928 0.0
C30 C 0.03062 0.08742 0.96567 0.0
C31 C 0.0916 0.13343 0.96349 0.0
O32 O 0.05465 0.20596 0.88958 0.0
O33 O 0.05774 0.24569 0.94235 0.0
O34 O 0.07843 0.13445 0.98337 0.0
O35 O 0.08875 0.13404 0.93008 0.0
C36 C 0.06501 0.02029 0.89676 0.0
O37 O 0.04332 0.10602 0.98433 0.0
O38 O 0.03216 0.09664 0.93224 0.0
In39 In 0.19488 0.12475 0.94006 0.0
O40 O 0.21003 0.16199 0.98893 0.0
O41 O 0.22406 0.13312 0.94251 0.0
C42 C 0.16291 0.11141 0.96489 0.0
C43 C 0.19069 0.24714 0.91207 0.0
C44 C 0.19844 0.00496 0.90654 0.0
O45 O 0.17573 0.10069 0.98516 0.0
O46 O 0.16632 0.12604 0.93256 0.0
O47 O 0.20054 0.06028 0.89052 0.0
O48 O 0.19497 0.01028 0.93976 0.0
C49 C 0.22433 0.16088 0.97298 0.0
O50 O 0.19529 0.19819 0.89264 0.0
O51 O 0.18761 0.2334 0.94448 0.0
In52 In 0.94199 0.86957 0.69495 0.0
O53 O 0.94225 0.79464 0.64866 0.0
O54 O 0.93291 0.76309 0.70012 0.0
C55 C 0.94566 0.98802 0.66113 0.0
C56 C 0.97203 0.82834 0.72323 0.0
C57 C 0.91077 0.88889 0.72287 0.0
O58 O 0.9422 0.93444 0.6445 0.0
O59 O 0.94773 0.98184 0.69482 0.0
O60 O 0.92408 0.89509 0.74227 0.0
O61 O 0.91338 0.87569 0.69011 0.0
C62 C 0.93648 0.74767 0.66811 0.0
O63 O 0.95852 0.83307 0.74196 0.0
O64 O 0.97084 0.85226 0.69188 0.0
In65 In 0.80657 0.88225 0.70072 0.0
O66 O 0.79056 0.90879 0.7505 0.0
O67 O 0.77799 0.90308 0.70029 0.0
C68 C 0.83908 0.87807 0.72462 0.0
C69 C 0.80909 0.00202 0.66978 0.0
C70 C 0.80265 0.76099 0.66989 0.0
O71 O 0.82659 0.86698 0.74564 0.0
O72 O 0.83512 0.88887 0.6922 0.0
O73 O 0.80314 0.81449 0.65183 0.0
O74 O 0.80385 0.76827 0.70365 0.0
C75 C 0.77676 0.91766 0.73326 0.0
O76 O 0.80633 0.94985 0.65131 0.0
O77 O 0.8109 0.9933 0.70319 0.0
In78 In 0.94654 0.88854 0.05922 0.0
O79 O 0.95121 0.95841 0.10668 0.0
O80 O 0.93694 0.99513 0.06168 0.0
C81 C 0.95109 0.76945 0.09267 0.0
C82 C 0.97408 0.93054 0.02155 0.0
C83 C 0.91424 0.87222 0.03624 0.0
O84 O 0.94896 0.82373 0.10946 0.0
O85 O 0.95159 0.77514 0.05873 0.0
O86 O 0.92683 0.86421 0.0151 0.0
O87 O 0.91803 0.8862 0.06841 0.0
C88 C 0.94352 0.00695 0.092 0.0
O89 O 0.95965 0.92182 0.00678 0.0
O90 O 0.97498 0.91156 0.05387 0.0
In91 In 0.80815 0.87443 0.0526 0.0
O92 O 0.7926 0.86214 0.00081 0.0
O93 O 0.77933 0.86335 0.05059 0.0
C94 C 0.84151 0.87459 0.03364 0.0
C95 C 0.80754 0.74849 0.07762 0.0
C96 C 0.80441 0.99352 0.08602 0.0
O97 O 0.82981 0.88461 0.01052 0.0
O98 O 0.83629 0.86566 0.06541 0.0
O99 O 0.80288 0.93836 0.10242 0.0
O100 O 0.80732 0.98883 0.05258 0.0
C101 C 0.77835 0.85534 0.01686 0.0
O102 O 0.80972 0.79841 0.09821 0.0
O103 O 0.80565 0.76267 0.04481 0.0
In104 In 0.06028 0.63615 0.80633 0.0
O105 O 0.05986 0.71075 0.85288 0.0
O106 O 0.0694 0.74298 0.80177 0.0
C107 C 0.0564 0.51825 0.84077 0.0
C108 C 0.03041 0.6767 0.77682 0.0
C109 C 0.09144 0.61474 0.77834 0.0
O110 O 0.0589 0.5727 0.85735 0.0
O111 O 0.05538 0.52332 0.80682 0.0
O112 O 0.07806 0.60803 0.75924 0.0
O113 O 0.08896 0.63013 0.81089 0.0
C114 C 0.06564 0.7581 0.83373 0.0
O115 O 0.04417 0.67388 0.75889 0.0
O116 O 0.0313 0.65132 0.80787 0.0
In117 In 0.19416 0.6179 0.80763 0.0
O118 O 0.19054 0.56643 0.86232 0.0
O119 O 0.1906 0.50692 0.81457 0.0
C120 C 0.19854 0.74321 0.83625 0.0
C121 C 0.22227 0.57562 0.77167 0.0
C122 C 0.16275 0.61642 0.77835 0.0
O123 O 0.20821 0.69463 0.84372 0.0
O124 O 0.18716 0.72922 0.81343 0.0
O125 O 0.17586 0.62997 0.75943 0.0
O126 O 0.16558 0.6048 0.81125 0.0
C127 C 0.18972 0.50867 0.84841 0.0
O128 O 0.20909 0.59625 0.75512 0.0
O129 O 0.22168 0.58199 0.80538 0.0
In130 In 0.05399 0.61274 0.43951 0.0
O131 O 0.03821 0.59526 0.49137 0.0
O132 O 0.02619 0.57897 0.44061 0.0
C133 C 0.08736 0.62281 0.45821 0.0
C134 C 0.05809 0.49415 0.40686 0.0
C135 C 0.04798 0.73292 0.4091 0.0
O136 O 0.07609 0.6042 0.48063 0.0
O137 O 0.08155 0.64091 0.42811 0.0
O138 O 0.04771 0.67879 0.39149 0.0
O139 O 0.0503 0.72647 0.44275 0.0
C140 C 0.0252 0.57384 0.47441 0.0
O141 O 0.05489 0.54689 0.38921 0.0
O142 O 0.05992 0.50242 0.44025 0.0
In143 In 0.19415 0.61375 0.44218 0.0
O144 O 0.20823 0.65624 0.49147 0.0
O145 O 0.22222 0.64573 0.44244 0.0
C146 C 0.16085 0.60505 0.46091 0.0
C147 C 0.18985 0.72345 0.40246 0.0
C148 C 0.20011 0.48628 0.42083 0.0
O149 O 0.17254 0.60092 0.48458 0.0
O150 O 0.16613 0.61126 0.42904 0.0
O151 O 0.19848 0.53434 0.399 0.0
O152 O 0.19993 0.50296 0.45372 0.0
C153 C 0.22202 0.66733 0.47443 0.0
O154 O 0.19365 0.66778 0.38818 0.0
O155 O 0.18807 0.72281 0.43626 0.0
In156 In 0.94476 0.38545 0.18995 0.0
O157 O 0.95893 0.3512 0.24098 0.0
O158 O 0.97304 0.35866 0.19275 0.0
C159 C 0.91195 0.39235 0.21261 0.0
C160 C 0.94289 0.271 0.15312 0.0
C161 C 0.94994 0.50993 0.16304 0.0
O162 O 0.92433 0.39694 0.23457 0.0
O163 O 0.91614 0.3869 0.17996 0.0
O164 O 0.94596 0.46047 0.14363 0.0
O165 O 0.95174 0.49671 0.19617 0.0
C166 C 0.97319 0.34195 0.22553 0.0
O167 O 0.9488 0.32379 0.13894 0.0
O168 O 0.93758 0.27665 0.18502 0.0
In169 In 0.80745 0.3773 0.18423 0.0
O170 O 0.79488 0.43237 0.23157 0.0
O171 O 0.77849 0.38302 0.19455 0.0
C172 C 0.83981 0.37081 0.20919 0.0
C173 C 0.80787 0.48772 0.14348 0.0
C174 C 0.80445 0.25359 0.15556 0.0
O175 O 0.82711 0.36038 0.22978 0.0
O176 O 0.83612 0.38254 0.1767 0.0
O177 O 0.8059 0.30565 0.13652 0.0
O178 O 0.80429 0.26351 0.18925 0.0
C179 C 0.77974 0.42224 0.22102 0.0
O180 O 0.7997 0.436 0.13402 0.0
O181 O 0.81633 0.4824 0.17219 0.0
In182 In 0.93979 0.3743 0.56712 0.0
O183 O 0.95497 0.41362 0.51873 0.0
O184 O 0.96821 0.40228 0.56852 0.0
C185 C 0.90788 0.36683 0.53979 0.0
C186 C 0.9353 0.48532 0.60586 0.0
C187 C 0.94506 0.24964 0.5934 0.0
O188 O 0.92091 0.36022 0.5198 0.0
O189 O 0.911 0.37503 0.57277 0.0
O190 O 0.9433 0.30027 0.61332 0.0
O191 O 0.9447 0.26159 0.55994 0.0
C192 C 0.96862 0.423 0.53641 0.0
O193 O 0.93756 0.42902 0.62072 0.0
O194 O 0.93481 0.48477 0.57192 0.0
In195 In 0.80482 0.37851 0.57068 0.0
O196 O 0.78875 0.3489 0.52131 0.0
O197 O 0.77645 0.34993 0.57242 0.0
C198 C 0.83657 0.38436 0.54271 0.0
C199 C 0.80905 0.26498 0.60738 0.0
C200 C 0.80112 0.5016 0.60002 0.0
O201 O 0.82346 0.39201 0.52309 0.0
O202 O 0.83365 0.37578 0.57576 0.0
O203 O 0.80174 0.4488 0.61855 0.0
O204 O 0.80173 0.49273 0.56632 0.0
C205 C 0.77543 0.33587 0.53938 0.0
O206 O 0.80613 0.3199 0.62315 0.0
O207 O 0.8104 0.26805 0.57356 0.0
In208 In 0.56168 0.12273 0.80282 0.0
O209 O 0.5475 0.16867 0.7548 0.0
O210 O 0.53307 0.14837 0.80215 0.0
C211 C 0.5939 0.11893 0.77716 0.0
C212 C 0.5665 0.22958 0.84478 0.0
C213 C 0.55545 0.996 0.82505 0.0
O214 O 0.58111 0.11596 0.75623 0.0
O215 O 0.59041 0.12056 0.81028 0.0
O216 O 0.55459 0.04584 0.84582 0.0
O217 O 0.55898 0.00973 0.7926 0.0
C218 C 0.53337 0.17441 0.77117 0.0
O219 O 0.56509 0.17151 0.85803 0.0
O220 O 0.56585 0.23282 0.81093 0.0
In221 In 0.69756 0.16033 0.80304 0.0
O222 O 0.70091 0.10456 0.85607 0.0
O223 O 0.69195 0.0506 0.81 0.0
C224 C 0.70048 0.28572 0.82964 0.0
C225 C 0.72668 0.11863 0.76937 0.0
C226 C 0.66517 0.1586 0.77799 0.0
O227 O 0.69942 0.23461 0.84942 0.0
O228 O 0.70038 0.27416 0.79613 0.0
O229 O 0.67775 0.16959 0.75723 0.0
O230 O 0.66893 0.1508 0.81076 0.0
C231 C 0.69622 0.04929 0.84273 0.0
O232 O 0.71237 0.12293 0.75358 0.0
O233 O 0.72626 0.14049 0.80121 0.0
In234 In 0.55799 0.12604 0.43851 0.0
O235 O 0.55898 0.05302 0.39127 0.0
O236 O 0.56714 0.01975 0.44327 0.0
C237 C 0.55497 0.24576 0.40561 0.0
C238 C 0.52751 0.08316 0.46453 0.0
C239 C 0.58889 0.14202 0.46881 0.0
O240 O 0.55724 0.19197 0.38833 0.0
O241 O 0.5539 0.2394 0.43948 0.0
O242 O 0.5753 0.14858 0.48732 0.0
O243 O 0.58671 0.13028 0.43573 0.0
C244 C 0.5644 0.00549 0.41077 0.0
O245 O 0.54069 0.08871 0.48419 0.0
O246 O 0.52918 0.10722 0.43331 0.0
In247 In 0.69142 0.13748 0.44153 0.0
O248 O 0.70416 0.18212 0.49193 0.0
O249 O 0.72009 0.15814 0.4473 0.0
C250 C 0.65988 0.12665 0.46961 0.0
C251 C 0.68887 0.2523 0.40461 0.0
C252 C 0.69527 0.01567 0.41054 0.0
O253 O 0.67308 0.11934 0.48915 0.0
O254 O 0.66269 0.13682 0.43657 0.0
O255 O 0.69146 0.06753 0.39288 0.0
O256 O 0.69737 0.02481 0.44396 0.0
C257 C 0.71891 0.18484 0.47796 0.0
O258 O 0.699 0.20625 0.39512 0.0
O259 O 0.67934 0.23831 0.43089 0.0
In260 In 0.44643 0.86287 0.18549 0.0
O261 O 0.46159 0.84333 0.23768 0.0
O262 O 0.4745 0.83202 0.18743 0.0
C263 C 0.41299 0.87231 0.20326 0.0
C264 C 0.44223 0.74334 0.15386 0.0
C265 C 0.45248 0.9848 0.15688 0.0
O266 O 0.4242 0.8551 0.22613 0.0
O267 O 0.41891 0.88969 0.1731 0.0
O268 O 0.4525 0.93179 0.13824 0.0
O269 O 0.45031 0.97622 0.19045 0.0
C270 C 0.47501 0.82472 0.22121 0.0
O271 O 0.44549 0.79538 0.13561 0.0
O272 O 0.44071 0.75258 0.18722 0.0
In273 In 0.30627 0.87433 0.19165 0.0
O274 O 0.29173 0.91283 0.24098 0.0
O275 O 0.27768 0.89533 0.19256 0.0
C276 C 0.33942 0.85738 0.20791 0.0
C277 C 0.31071 0.99543 0.16376 0.0
C278 C 0.30067 0.75166 0.16408 0.0
O279 O 0.32795 0.85102 0.23206 0.0
O280 O 0.33392 0.86933 0.17658 0.0
O281 O 0.30338 0.80244 0.14444 0.0
O282 O 0.29982 0.76351 0.19758 0.0
C283 C 0.2777 0.9194 0.22402 0.0
O284 O 0.30432 0.94821 0.1452 0.0
O285 O 0.31525 0.98057 0.19536 0.0
In286 In 0.44406 0.86837 0.55336 0.0
O287 O 0.4562 0.92347 0.50548 0.0
O288 O 0.47298 0.87903 0.54348 0.0
C289 C 0.41188 0.85894 0.52823 0.0
C290 C 0.44228 0.98028 0.59261 0.0
C291 C 0.44772 0.74595 0.58378 0.0
O292 O 0.42464 0.84906 0.50771 0.0
O293 O 0.41543 0.87075 0.56076 0.0
O294 O 0.44587 0.79887 0.60196 0.0
O295 O 0.44804 0.7544 0.54996 0.0
C296 C 0.4714 0.9168 0.51647 0.0
O297 O 0.45123 0.93089 0.60255 0.0
O298 O 0.43371 0.97174 0.56429 0.0
In299 In 0.3087 0.86785 0.55805 0.0
O300 O 0.30773 0.79783 0.60665 0.0
O301 O 0.31658 0.75969 0.55618 0.0
C302 C 0.30537 0.98787 0.59052 0.0
C303 C 0.27861 0.8286 0.52844 0.0
C304 C 0.34037 0.87988 0.53048 0.0
O305 O 0.30679 0.93388 0.60803 0.0
O306 O 0.30548 0.98167 0.55655 0.0
O307 O 0.32721 0.88921 0.511 0.0
O308 O 0.33744 0.86754 0.56324 0.0
C309 C 0.31298 0.74812 0.58862 0.0
O310 O 0.2926 0.82692 0.51126 0.0
O311 O 0.2795 0.85757 0.55853 0.0
In312 In 0.56212 0.63179 0.31062 0.0
O313 O 0.5447 0.66054 0.26316 0.0
O314 O 0.53447 0.6679 0.31618 0.0
C315 C 0.59354 0.62763 0.28075 0.0
C316 C 0.56751 0.7434 0.34819 0.0
C317 C 0.55736 0.50722 0.33781 0.0
O318 O 0.58017 0.62556 0.2615 0.0
O319 O 0.591 0.62925 0.31425 0.0
O320 O 0.55882 0.55861 0.35726 0.0
O321 O 0.55784 0.51826 0.30428 0.0
C322 C 0.53239 0.67883 0.28303 0.0
O323 O 0.56521 0.68759 0.36355 0.0
O324 O 0.56782 0.74198 0.31422 0.0
In325 In 0.69568 0.63445 0.30943 0.0
O326 O 0.70034 0.56506 0.35726 0.0
O327 O 0.68415 0.53148 0.3147 0.0
C328 C 0.69854 0.75578 0.34112 0.0
C329 C 0.72425 0.58684 0.27699 0.0
C330 C 0.66448 0.648 0.28013 0.0
O331 O 0.6949 0.7033 0.35842 0.0
O332 O 0.70123 0.74739 0.30781 0.0
O333 O 0.67788 0.65475 0.26111 0.0
O334 O 0.66696 0.63663 0.31315 0.0
C335 C 0.6915 0.51806 0.34399 0.0
O336 O 0.71005 0.59136 0.26075 0.0
O337 O 0.72448 0.6134 0.30781 0.0
In338 In 0.55673 0.61543 0.9253 0.0
O339 O 0.53901 0.58612 0.9719 0.0
O340 O 0.52856 0.58868 0.91884 0.0
C341 C 0.5878 0.64313 0.9514 0.0
C342 C 0.56453 0.49128 0.90497 0.0
C343 C 0.55258 0.73204 0.88991 0.0
O344 O 0.57468 0.64596 0.97164 0.0
O345 O 0.58503 0.62831 0.91887 0.0
O346 O 0.5552 0.67724 0.87368 0.0
O347 O 0.55121 0.72759 0.92383 0.0
C348 C 0.52644 0.57291 0.95146 0.0
O349 O 0.55889 0.53411 0.8827 0.0
O350 O 0.56696 0.51221 0.93657 0.0
In351 In 0.69345 0.66337 0.9325 0.0
O352 O 0.69278 0.73914 0.88669 0.0
O353 O 0.69263 0.77527 0.94079 0.0
C354 C 0.69832 0.54534 0.899 0.0
C355 C 0.72341 0.68641 0.96693 0.0
C356 C 0.66017 0.65648 0.95198 0.0
O357 O 0.69838 0.60057 0.88237 0.0
O358 O 0.69632 0.5495 0.93279 0.0
O359 O 0.67205 0.65807 0.97526 0.0
O360 O 0.6652 0.65625 0.91969 0.0
C361 C 0.69268 0.78913 0.90769 0.0
O362 O 0.70962 0.67365 0.98369 0.0
O363 O 0.72199 0.68203 0.93311 0.0
In364 In 0.44582 0.36569 0.68603 0.0
O365 O 0.46306 0.34045 0.73431 0.0
O366 O 0.47463 0.34776 0.68237 0.0
C367 C 0.41314 0.3727 0.70946 0.0
C368 C 0.44259 0.24226 0.65819 0.0
C369 C 0.44996 0.48687 0.65504 0.0
O370 O 0.42562 0.37544 0.73136 0.0
O371 O 0.41729 0.36862 0.67671 0.0
O372 O 0.45053 0.43293 0.63725 0.0
O373 O 0.448 0.47983 0.68872 0.0
C374 C 0.47632 0.33137 0.71509 0.0
O375 O 0.44115 0.29439 0.63892 0.0
O376 O 0.44535 0.25329 0.69106 0.0
In377 In 0.30839 0.37181 0.68806 0.0
O378 O 0.31028 0.43145 0.63611 0.0
O379 O 0.31411 0.48214 0.68618 0.0
C380 C 0.30389 0.24799 0.65999 0.0
C381 C 0.27902 0.41602 0.71853 0.0
C382 C 0.34069 0.36523 0.71298 0.0
O383 O 0.3043 0.30031 0.64099 0.0
O384 O 0.30498 0.25781 0.69358 0.0
O385 O 0.32806 0.36472 0.73441 0.0
O386 O 0.33694 0.36675 0.68 0.0
C387 C 0.31311 0.48603 0.65235 0.0
O388 O 0.29178 0.39826 0.73733 0.0
O389 O 0.28057 0.40559 0.68519 0.0
In390 In 0.44582 0.36587 0.05509 0.0
O391 O 0.45799 0.39469 0.00043 0.0
O392 O 0.47319 0.40405 0.04754 0.0
C393 C 0.41256 0.35939 0.03551 0.0
C394 C 0.44363 0.47831 0.09356 0.0
C395 C 0.45146 0.24353 0.08502 0.0
O396 O 0.42448 0.35049 0.01288 0.0
O397 O 0.4174 0.36925 0.06746 0.0
O398 O 0.45073 0.29685 0.10301 0.0
O399 O 0.44999 0.25143 0.05136 0.0
C400 C 0.47193 0.41417 0.01418 0.0
O401 O 0.45064 0.42631 0.10618 0.0
O402 O 0.43733 0.47273 0.06244 0.0
In403 In 0.30804 0.37032 0.06437 0.0
O404 O 0.29365 0.33309 0.01426 0.0
O405 O 0.2796 0.34373 0.063 0.0
C406 C 0.34032 0.37887 0.03961 0.0
C407 C 0.31289 0.25794 0.10169 0.0
C408 C 0.30189 0.49172 0.09394 0.0
O409 O 0.32762 0.3877 0.01887 0.0
O410 O 0.33671 0.36842 0.07222 0.0
O411 O 0.29942 0.43741 0.11046 0.0
O412 O 0.30674 0.48523 0.06161 0.0
C413 C 0.27974 0.32303 0.03091 0.0
O414 O 0.31176 0.31416 0.11716 0.0
O415 O 0.3122 0.25925 0.06778 0.0
C416 C 0.1129 0.18429 0.28922 0.0
C417 C 0.10497 0.12193 0.28146 0.0
C418 C 0.13317 0.07281 0.26888 0.0
C419 C 0.14105 0.13137 0.28286 0.0
N420 N 0.13888 0.24331 0.30632 0.0
N421 N 0.10718 0.00615 0.26396 0.0
C422 C 0.13104 0.18765 0.29258 0.0
C423 C 0.11497 0.06625 0.27051 0.0
N424 N 0.10301 0.24038 0.29285 0.0
N425 N 0.14316 0.02322 0.25463 0.0
H426 H 0.0939 1.00006 0.26426 0.0
H427 H 0.11382 0.96153 0.26013 0.0
H428 H 0.15651 0.02655 0.25356 0.0
H429 H 0.13827 0.98167 0.24118 0.0
H430 H 0.10799 0.28846 0.29562 0.0
H431 H 0.08973 0.23956 0.2895 0.0
H432 H 0.13228 0.28284 0.31823 0.0
H433 H 0.1522 0.24853 0.30732 0.0
C434 C 0.13761 0.17862 0.983 0.0
C435 C 0.14507 0.1146 0.97801 0.0
C436 C 0.11665 0.06291 0.98 0.0
C437 C 0.10926 0.12752 0.97735 0.0
N438 N 0.11197 0.24735 0.97879 0.0
N439 N 0.14236 0.99498 0.97383 0.0
C440 C 0.11952 0.18567 0.98032 0.0
C441 C 0.13479 0.0562 0.97794 0.0
N442 N 0.14794 0.23234 0.98998 0.0
N443 N 0.10624 0.00837 0.98395 0.0
H444 H 0.15565 0.98887 0.97364 0.0
H445 H 0.13558 0.95088 0.96928 0.0
H446 H 0.09292 0.01257 0.98551 0.0
H447 H 0.11074 0.96008 0.98858 0.0
H448 H 0.14337 0.27984 0.99634 0.0
H449 H 0.16121 0.22765 0.99264 0.0
H450 H 0.11875 0.29201 0.97639 0.0
H451 H 0.09867 0.25351 0.97868 0.0
C452 C 0.88499 0.83261 0.74805 0.0
C453 C 0.89307 0.89263 0.73675 0.0
C454 C 0.86518 0.9479 0.73255 0.0
C455 C 0.85709 0.88475 0.73666 0.0
N456 N 0.85875 0.76687 0.74968 0.0
N457 N 0.89148 0.00849 0.71958 0.0
C458 C 0.8668 0.82721 0.74573 0.0
C459 C 0.88334 0.95107 0.73007 0.0
N460 N 0.89481 0.78062 0.76012 0.0
N461 N 0.85539 0.00457 0.73103 0.0
H462 H 0.90482 0.01286 0.71931 0.0
H463 H 0.88512 0.05058 0.70982 0.0
H464 H 0.84207 0.00333 0.73362 0.0
H465 H 0.86044 0.05281 0.73069 0.0
H466 H 0.8898 0.73702 0.77131 0.0
H467 H 0.90815 0.78375 0.76179 0.0
H468 H 0.86519 0.72145 0.75207 0.0
H469 H 0.84544 0.76183 0.74894 0.0
C470 C 0.8876 0.91795 0.00794 0.0
C471 C 0.89613 0.8643 0.02538 0.0
C472 C 0.86867 0.80892 0.03633 0.0
C473 C 0.86001 0.86777 0.02484 0.0
N474 N 0.86098 0.97933 -2e-05 0.0
N475 N 0.89537 0.75748 0.0553 0.0
C476 C 0.86937 0.92209 0.00986 0.0
C477 C 0.88682 0.80893 0.03886 0.0
N478 N 0.897 0.96545 0.99025 0.0
N479 N 0.85943 0.75274 0.04439 0.0
H480 H 0.90872 0.75381 0.05533 0.0
H481 H 0.88934 0.72 0.07014 0.0
H482 H 0.84613 0.75139 0.04258 0.0
H483 H 0.86489 0.70623 0.04972 0.0
H484 H 0.89162 0.00267 0.9742 0.0
H485 H 0.91037 0.96412 0.98911 0.0
H486 H 0.86719 0.02354 0.99289 0.0
H487 H 0.84768 0.98419 0.00089 0.0
C488 C 0.11766 0.67013 0.75481 0.0
C489 C 0.10908 0.61003 0.76411 0.0
C490 C 0.13647 0.55058 0.76554 0.0
C491 C 0.14507 0.61298 0.76405 0.0
N492 N 0.14445 0.73231 0.75507 0.0
N493 N 0.10966 0.4919 0.7764 0.0
C494 C 0.13587 0.67275 0.75705 0.0
C495 C 0.11828 0.54946 0.76812 0.0
N496 N 0.10827 0.72473 0.74468 0.0
N497 N 0.14582 0.49278 0.76474 0.0
H498 H 0.09628 0.48949 0.77697 0.0
H499 H 0.11567 0.44756 0.784 0.0
H500 H 0.15917 0.49304 0.76247 0.0
H501 H 0.1404 0.44524 0.76319 0.0
H502 H 0.11364 0.76892 0.735 0.0
H503 H 0.09491 0.72346 0.743 0.0
H504 H 0.13843 0.77877 0.75437 0.0
H505 H 0.15781 0.73537 0.75554 0.0
C506 C 0.11496 0.56809 0.44004 0.0
C507 C 0.10605 0.61224 0.46363 0.0
C508 C 0.1335 0.6456 0.49099 0.0
C509 C 0.14216 0.59979 0.468 0.0
N510 N 0.14057 0.5032 0.42937 0.0
N511 N 0.10639 0.68367 0.51607 0.0
C512 C 0.13265 0.55642 0.44546 0.0
C513 C 0.11517 0.64733 0.49091 0.0
N514 N 0.10682 0.53868 0.41148 0.0
N515 N 0.1427 0.69051 0.51093 0.0
H516 H 0.09309 0.68912 0.51561 0.0
H517 H 0.11216 0.70453 0.53876 0.0
H518 H 0.15606 0.69065 0.51188 0.0
H519 H 0.13717 0.73041 0.52474 0.0
H520 H 0.11334 0.51394 0.39089 0.0
H521 H 0.09372 0.54207 0.40667 0.0
H522 H 0.13396 0.46541 0.41587 0.0
H523 H 0.15357 0.49315 0.43281 0.0
C524 C 0.88345 0.4477 0.22084 0.0
C525 C 0.89369 0.38937 0.22354 0.0
C526 C 0.86788 0.31922 0.22745 0.0
C527 C 0.85773 0.37715 0.22198 0.0
N528 N 0.85497 0.49696 0.22368 0.0
N529 N 0.89629 0.27239 0.23788 0.0
C530 C 0.86529 0.44168 0.22214 0.0
C531 C 0.88606 0.32595 0.22992 0.0
N532 N 0.89115 0.50833 0.21552 0.0
N533 N 0.86016 0.25784 0.22845 0.0
H534 H 0.90961 0.27636 0.23972 0.0
H535 H 0.89167 0.22552 0.24531 0.0
H536 H 0.84685 0.25225 0.22862 0.0
H537 H 0.86676 0.21259 0.22814 0.0
H538 H 0.88458 0.55192 0.20877 0.0
H539 H 0.90441 0.51431 0.21677 0.0
H540 H 0.85952 0.54564 0.22653 0.0
H541 H 0.84164 0.49346 0.22534 0.0
C542 C 0.8801 0.31261 0.52324 0.0
C543 C 0.89011 0.37143 0.52627 0.0
C544 C 0.86427 0.44086 0.52819 0.0
C545 C 0.85426 0.38171 0.52868 0.0
N546 N 0.85163 0.26346 0.51786 0.0
N547 N 0.8925 0.49086 0.52082 0.0
C548 C 0.8619 0.31816 0.52294 0.0
C549 C 0.88238 0.43551 0.52489 0.0
N550 N 0.88808 0.25175 0.52246 0.0
N551 N 0.85648 0.50153 0.53297 0.0
H552 H 0.90581 0.48746 0.51815 0.0
H553 H 0.88777 0.53909 0.51716 0.0
H554 H 0.84317 0.50681 0.53403 0.0
H555 H 0.86309 0.5461 0.53719 0.0
H556 H 0.88175 0.20606 0.52435 0.0
H557 H 0.90139 0.2473 0.52046 0.0
H558 H 0.85617 0.21595 0.51152 0.0
H559 H 0.83827 0.26685 0.5175 0.0
C560 C 0.64097 0.08184 0.76398 0.0
C561 C 0.6474 0.14819 0.76528 0.0
C562 C 0.61826 0.19251 0.75928 0.0
C563 C 0.61178 0.12687 0.76469 0.0
N564 N 0.61625 0.00823 0.76953 0.0
N565 N 0.64296 0.26696 0.76125 0.0
C566 C 0.62295 0.07106 0.76559 0.0
C567 C 0.63627 0.20371 0.76128 0.0
N568 N 0.6522 0.02955 0.76128 0.0
N569 N 0.60708 0.24386 0.75284 0.0
H570 H 0.65614 0.2759 0.76067 0.0
H571 H 0.63563 0.31039 0.76274 0.0
H572 H 0.59384 0.23669 0.75147 0.0
H573 H 0.61083 0.29234 0.7463 0.0
H574 H 0.6485 0.97994 0.75775 0.0
H575 H 0.66544 0.03671 0.75951 0.0
H576 H 0.62356 0.96572 0.77471 0.0
H577 H 0.60308 0.99902 0.76854 0.0
C578 C 0.63445 0.19449 0.48659 0.0
C579 C 0.64223 0.13053 0.48389 0.0
C580 C 0.61414 0.07708 0.48939 0.0
C581 C 0.60634 0.14042 0.48426 0.0
N582 N 0.6083 0.26022 0.48118 0.0
N583 N 0.64017 0.01051 0.4852 0.0
C584 C 0.61627 0.19965 0.48466 0.0
C585 C 0.63229 0.07152 0.48691 0.0
N586 N 0.64456 0.2499 0.49045 0.0
N587 N 0.60405 0.02251 0.49598 0.0
H588 H 0.6535 0.00547 0.48468 0.0
H589 H 0.63363 0.96528 0.48301 0.0
H590 H 0.59075 0.02632 0.49834 0.0
H591 H 0.60882 0.97529 0.50229 0.0
H592 H 0.63982 0.29789 0.49487 0.0
H593 H 0.6579 0.24666 0.49229 0.0
H594 H 0.61475 0.30517 0.47696 0.0
H595 H 0.59497 0.2649 0.4815 0.0
C596 C 0.36709 0.89388 0.2379 0.0
C597 C 0.35815 0.85056 0.21401 0.0
C598 C 0.38507 0.82042 0.18434 0.0
C599 C 0.39426 0.86232 0.20871 0.0
N600 N 0.39442 0.92983 0.26271 0.0
N601 N 0.35908 0.75868 0.17213 0.0
C602 C 0.38541 0.89539 0.23712 0.0
C603 C 0.36735 0.80937 0.18979 0.0
N604 N 0.35814 0.93705 0.25942 0.0
N605 N 0.39301 0.79242 0.1551 0.0
H606 H 0.34602 0.74956 0.17523 0.0
H607 H 0.36542 0.72177 0.15741 0.0
H608 H 0.40615 0.79407 0.15047 0.0
H609 H 0.38633 0.7702 0.13391 0.0
H610 H 0.36384 0.97563 0.27399 0.0
H611 H 0.3448 0.9373 0.26102 0.0
H612 H 0.38889 0.94836 0.28624 0.0
H613 H 0.40767 0.93637 0.26165 0.0
C614 C 0.36556 0.81166 0.51227 0.0
C615 C 0.35806 0.8759 0.51629 0.0
C616 C 0.38643 0.92772 0.51215 0.0
C617 C 0.39396 0.86337 0.51549 0.0
N618 N 0.3913 0.74351 0.51696 0.0
N619 N 0.36067 0.99569 0.51764 0.0
C620 C 0.3837 0.80497 0.51422 0.0
C621 C 0.36829 0.93433 0.51472 0.0
N622 N 0.3552 0.75737 0.50695 0.0
N623 N 0.39675 0.98219 0.50693 0.0
H624 H 0.34737 0.00158 0.51782 0.0
H625 H 0.36739 0.04026 0.52104 0.0
H626 H 0.41005 0.97802 0.50467 0.0
H627 H 0.39217 0.03017 0.50177 0.0
H628 H 0.35975 0.70952 0.50131 0.0
H629 H 0.3419 0.76174 0.5049 0.0
H630 H 0.38454 0.69905 0.52054 0.0
H631 H 0.40459 0.7374 0.51706 0.0
C632 C 0.63936 0.58251 0.25926 0.0
C633 C 0.64691 0.64604 0.26536 0.0
C634 C 0.61857 0.69839 0.26453 0.0
C635 C 0.61108 0.63381 0.26612 0.0
N636 N 0.61358 0.51415 0.26227 0.0
N637 N 0.64442 0.76538 0.27131 0.0
C638 C 0.62124 0.57569 0.26182 0.0
C639 C 0.63672 0.70459 0.2664 0.0
N640 N 0.64966 0.52892 0.25184 0.0
N641 N 0.60822 0.75335 0.26184 0.0
H642 H 0.65773 0.7711 0.27114 0.0
H643 H 0.63776 0.80941 0.2767 0.0
H644 H 0.59489 0.74942 0.26031 0.0
H645 H 0.61276 0.80187 0.25817 0.0
H646 H 0.64508 0.48177 0.2448 0.0
H647 H 0.66297 0.53344 0.24977 0.0
H648 H 0.62027 0.46914 0.2634 0.0
H649 H 0.60027 0.50837 0.26267 0.0
C650 C 0.63339 0.60963 0.98089 0.0
C651 C 0.6416 0.66113 0.96081 0.0
C652 C 0.61366 0.714 0.94956 0.0
C653 C 0.60549 0.6566 0.96353 0.0
N654 N 0.60682 0.55018 0.99361 0.0
N655 N 0.63962 0.76331 0.92594 0.0
C656 C 0.61513 0.6052 0.98035 0.0
C657 C 0.63175 0.71417 0.94556 0.0
N658 N 0.643 0.56396 -0.00054 0.0
N659 N 0.60393 0.76806 0.93986 0.0
H660 H 0.65286 0.7671 0.92346 0.0
H661 H 0.63306 0.79832 0.91039 0.0
H662 H 0.59061 0.76857 0.94276 0.0
H663 H 0.60902 0.81414 0.93228 0.0
H664 H 0.63783 0.52932 0.01739 0.0
H665 H 0.65635 0.5633 -0.00109 0.0
H666 H 0.613 0.50679 0.00209 0.0
H667 H 0.59347 0.54703 0.99479 0.0
C668 C 0.36793 0.30269 0.71574 0.0
C669 C 0.35882 0.36151 0.72437 0.0
C670 C 0.38593 0.42062 0.73558 0.0
C671 C 0.3949 0.36557 0.72042 0.0
N672 N 0.3945 0.25414 0.69503 0.0
N673 N 0.35845 0.47666 0.74326 0.0
C674 C 0.38592 0.30614 0.71074 0.0
C675 C 0.36762 0.42024 0.73534 0.0
N676 N 0.35921 0.24368 0.71197 0.0
N677 N 0.39488 0.47375 0.74914 0.0
H678 H 0.34508 0.47696 0.7444 0.0
H679 H 0.36395 0.52358 0.74716 0.0
H680 H 0.40824 0.47633 0.74851 0.0
H681 H 0.38923 0.5129 0.76333 0.0
H682 H 0.36517 0.19741 0.7088 0.0
H683 H 0.34595 0.24032 0.71556 0.0
H684 H 0.38847 0.2131 0.68323 0.0
H685 H 0.40772 0.25403 0.69168 0.0
C686 C 0.36589 0.31309 0.02071 0.0
C687 C 0.35831 0.37647 0.02721 0.0
C688 C 0.38659 0.42942 0.02554 0.0
C689 C 0.39425 0.36501 0.02562 0.0
N690 N 0.39174 0.24511 0.02247 0.0
N691 N 0.36085 0.49553 0.03521 0.0
C692 C 0.38406 0.30662 0.02224 0.0
C693 C 0.36848 0.43508 0.02883 0.0
N694 N 0.35562 0.25929 0.01342 0.0
N695 N 0.39673 0.48491 0.02219 0.0
H696 H 0.34755 0.50141 0.03611 0.0
H697 H 0.36759 0.53914 0.04114 0.0
H698 H 0.41 0.48174 0.01898 0.0
H699 H 0.39198 0.53328 0.01921 0.0
H700 H 0.36024 0.21257 0.00572 0.0
H701 H 0.34228 0.26307 0.01224 0.0
H702 H 0.38505 0.20016 0.02438 0.0
H703 H 0.40504 0.23915 0.02237 0.0
C704 C 0.01257 0.23132 0.22531 0.0
C705 C 0.00983 0.19106 0.25631 0.0
C706 C 0.98479 0.26009 0.27206 0.0
C707 C 0.98756 0.3006 0.24113 0.0
N708 N 0.00831 0.33977 0.19781 0.0
N709 N 0.98917 0.1517 0.29966 0.0
C710 C 0.00267 0.29045 0.22039 0.0
C711 C 0.99471 0.201 0.27696 0.0
N712 N 0.02363 0.21071 0.19904 0.0
N713 N 0.97376 0.28059 0.29843 0.0
H714 H 0.99514 0.10498 0.30091 0.0
H715 H 0.97744 0.15354 0.31309 0.0
H716 H 0.9683 0.32816 0.29864 0.0
H717 H 0.97228 0.25525 0.32279 0.0
H718 H 0.02507 0.23575 0.17458 0.0
H719 H 0.0292 0.16331 0.19911 0.0
H720 H 0.02002 0.33757 0.18432 0.0
H721 H 0.00254 0.38685 0.1968 0.0
C722 C 0.24384 0.98446 0.28962 0.0
C723 C 0.23625 0.03718 0.26907 0.0
C724 C 0.25551 0.01166 0.21838 0.0
C725 C 0.26295 0.95835 0.23878 0.0
N726 N 0.26166 0.88491 0.29017 0.0
N727 N 0.23723 0.11016 0.21755 0.0
C728 C 0.2566 0.94294 0.27362 0.0
C729 C 0.24259 0.0527 0.23425 0.0
N730 N 0.23902 0.97376 0.32462 0.0
N731 N 0.26056 0.02301 0.18358 0.0
H732 H 0.22826 0.14272 0.22885 0.0
H733 H 0.24276 0.12955 0.19425 0.0
H734 H 0.27122 0.00099 0.17167 0.0
H735 H 0.25379 0.05296 0.16557 0.0
H736 H 0.246 0.94438 0.34256 0.0
H737 H 0.22841 0.99577 0.33673 0.0
H738 H 0.25597 0.8658 0.31337 0.0
H739 H 0.27041 0.85158 0.27879 0.0
C740 C 0.99932 0.07526 0.98013 0.0
C741 C 0.01612 0.04827 0.98072 0.0
C742 C 0.00472 0.94049 0.00206 0.0
C743 C 0.98818 0.96941 0.00467 0.0
N744 N 0.97022 0.0681 0.00244 0.0
N745 N 0.03533 0.9573 0.99558 0.0
C746 C 0.98555 0.03769 0.99513 0.0
C747 C 0.01898 0.98156 0.99282 0.0
N748 N 0.99649 0.13692 0.96524 0.0
N749 N 0.00664 0.87303 0.00702 0.0
H750 H 0.04613 0.98401 0.9875 0.0
H751 H 0.03837 0.91232 0.00823 0.0
H752 H 0.9964 0.84144 0.01328 0.0
H753 H 0.01796 0.84724 0.00175 0.0
H754 H 0.98429 0.15567 0.95987 0.0
H755 H 0.00636 0.16782 0.95607 0.0
H756 H 0.96828 0.11952 0.00032 0.0
H757 H 0.95978 0.04324 0.0137 0.0
C758 C 0.24654 0.25209 0.96576 0.0
C759 C 0.23946 0.19869 0.98662 0.0
C760 C 0.26007 0.22295 0.0349 0.0
C761 C 0.26569 0.28098 0.01588 0.0
N762 N 0.2622 0.357 0.96606 0.0
N763 N 0.23853 0.13655 0.04236 0.0
C764 C 0.25847 0.2969 0.98194 0.0
C765 C 0.24588 0.18548 0.02168 0.0
N766 N 0.24186 0.261 0.93055 0.0
N767 N 0.26892 0.20099 0.06446 0.0
H768 H 0.2293 0.10343 0.03259 0.0
H769 H 0.24097 0.13095 0.06981 0.0
H770 H 0.27968 0.22516 0.07465 0.0
H771 H 0.26668 0.1551 0.07694 0.0
H772 H 0.2484 0.29276 0.91301 0.0
H773 H 0.23204 0.23482 0.91788 0.0
H774 H 0.25574 0.37534 0.94355 0.0
H775 H 0.27057 0.39185 0.97741 0.0
C776 C 0.99435 0.73731 0.71531 0.0
C777 C 0.98746 0.79119 0.73607 0.0
C778 C 0.00811 0.76759 0.78453 0.0
C779 C 0.01505 0.71389 0.76375 0.0
N780 N 0.01275 0.6392 0.71312 0.0
N781 N 0.9901 0.86664 0.78633 0.0
C782 C 0.00776 0.69707 0.72992 0.0
C783 C 0.99484 0.80822 0.76978 0.0
N784 N 0.98825 0.7246 0.6814 0.0
N785 N 0.01403 0.77975 0.81864 0.0
H786 H 0.98091 0.8991 0.77575 0.0
H787 H 0.99638 0.88685 0.80856 0.0
H788 H 0.02485 0.75724 0.82966 0.0
H789 H 0.00775 0.81049 0.83705 0.0
H790 H 0.99444 0.69383 0.66288 0.0
H791 H 0.97729 0.74646 0.67064 0.0
H792 H 0.00661 0.61893 0.69074 0.0
H793 H 0.02211 0.6073 0.72352 0.0
C794 C 0.73859 0.03205 0.72615 0.0
C795 C 0.74108 0.07473 0.7563 0.0
C796 C 0.76453 0.00215 0.77712 0.0
C797 C 0.76215 0.9598 0.74685 0.0
N798 N 0.74252 0.92101 0.70137 0.0
N799 N 0.76118 0.11397 0.80092 0.0
C800 C 0.74786 0.97087 0.7239 0.0
C801 C 0.75543 0.06369 0.7791 0.0
N802 N 0.72851 0.05237 0.69813 0.0
N803 N 0.77448 0.98167 0.80531 0.0
H804 H 0.75611 0.16227 0.79975 0.0
H805 H 0.77243 0.11056 0.81596 0.0
H806 H 0.77934 0.93317 0.80708 0.0
H807 H 0.77559 0.00866 0.82924 0.0
H808 H 0.72731 0.02546 0.6742 0.0
H809 H 0.72354 0.10073 0.6965 0.0
H810 H 0.73129 0.92384 0.6862 0.0
H811 H 0.74805 0.87342 0.70175 0.0
C812 C 0.75359 0.72914 0.96187 0.0
C813 C 0.7387 0.72046 0.98343 0.0
C814 C 0.74796 0.81413 0.02157 0.0
C815 C 0.76294 0.82226 0.00025 0.0
N816 N 0.77565 0.80541 0.94165 0.0
N817 N 0.72585 0.73837 0.04192 0.0
C818 C 0.76458 0.78481 0.96794 0.0
C819 C 0.73698 0.75835 0.01563 0.0
N820 N 0.75778 0.68162 0.9369 0.0
N821 N 0.74366 0.86227 0.0461 0.0
H822 H 0.71953 0.69247 0.04114 0.0
H823 H 0.72504 0.76164 0.067 0.0
H824 H 0.75056 0.90687 0.04844 0.0
H825 H 0.73212 0.86227 0.06024 0.0
H826 H 0.76927 0.68199 0.92254 0.0
H827 H 0.75084 0.6372 0.93422 0.0
H828 H 0.7764 0.78272 0.91641 0.0
H829 H 0.78199 0.85128 0.94281 0.0
C830 C 0.23337 0.47259 0.7405 0.0
C831 C 0.2365 0.53799 0.75432 0.0
C832 C 0.26755 0.52183 0.74639 0.0
C833 C 0.26446 0.45598 0.73309 0.0
N834 N 0.24467 0.37117 0.71312 0.0
N835 N 0.25623 0.62366 0.77326 0.0
C836 C 0.24741 0.43225 0.72882 0.0
C837 C 0.25352 0.56224 0.75791 0.0
N838 N 0.21706 0.44715 0.74099 0.0
N839 N 0.28384 0.54743 0.74589 0.0
H840 H 0.24631 0.65695 0.77912 0.0
H841 H 0.26817 0.64094 0.78169 0.0
H842 H 0.29459 0.51974 0.7386 0.0
H843 H 0.28678 0.59749 0.7505 0.0
H844 H 0.21408 0.39728 0.73592 0.0
H845 H 0.20635 0.47482 0.74866 0.0
H846 H 0.23273 0.35433 0.70449 0.0
H847 H 0.25456 0.33787 0.70704 0.0
C848 C 1.00089 0.56395 0.5193 0.0
C849 C 0.01109 0.53495 0.49181 0.0
C850 C 0.99288 0.43407 0.49244 0.0
C851 C 0.98341 0.46099 0.52155 0.0
N852 N 0.97931 0.54863 0.56569 0.0
N853 N 0.01925 0.43591 0.45847 0.0
C854 C 0.98778 0.52488 0.53607 0.0
C855 C 0.0077 0.46834 0.47995 0.0
N856 N 0.00311 0.62989 0.52806 0.0
N857 N 0.9878 0.37537 0.4767 0.0
H858 H 0.03068 0.45755 0.45024 0.0
H859 H 0.01848 0.38526 0.45202 0.0
H860 H 0.97781 0.34595 0.48662 0.0
H861 H 0.99277 0.35799 0.45237 0.0
H862 H 0.99488 0.65643 0.54489 0.0
H863 H 0.01248 0.65998 0.5162 0.0
H864 H 0.98326 0.5904 0.58028 0.0
H865 H 0.96882 0.52447 0.57714 0.0
C866 C 0.24367 0.6948 0.52273 0.0
C867 C 0.23605 0.71021 0.48909 0.0
C868 C 0.25607 0.80466 0.48152 0.0
C869 C 0.26304 0.79163 0.51614 0.0
N870 N 0.26097 0.73156 0.57296 0.0
N871 N 0.23214 0.79001 0.44078 0.0
C872 C 0.25596 0.73943 0.53788 0.0
C873 C 0.2415 0.76783 0.46956 0.0
N874 N 0.23997 0.63532 0.53929 0.0
N875 N 0.26321 0.8529 0.46008 0.0
H876 H 0.22095 0.7667 0.43211 0.0
H877 H 0.23436 0.83541 0.42778 0.0
H878 H 0.27272 0.88563 0.46899 0.0
H879 H 0.26027 0.85831 0.43283 0.0
H880 H 0.24668 0.61731 0.56155 0.0
H881 H 0.23132 0.60062 0.52876 0.0
H882 H 0.25454 0.70058 0.59108 0.0
H883 H 0.27092 0.75809 0.58497 0.0
C884 C 0.7565 0.50855 0.21215 0.0
C885 C 0.76497 0.46168 0.23504 0.0
C886 C 0.74586 0.49349 0.28472 0.0
C887 C 0.73871 0.54542 0.26301 0.0
N888 N 0.73965 0.61031 0.20831 0.0
N889 N 0.76916 0.41515 0.29436 0.0
C890 C 0.74463 0.55487 0.22726 0.0
C891 C 0.76016 0.45629 0.27176 0.0
N892 N 0.75975 0.50942 0.17593 0.0
N893 N 0.73836 0.47644 0.31677 0.0
H894 H 0.77884 0.38315 0.28547 0.0
H895 H 0.76771 0.41578 0.32228 0.0
H896 H 0.72755 0.50016 0.32706 0.0
H897 H 0.74175 0.4341 0.33152 0.0
H898 H 0.75239 0.53647 0.15757 0.0
H899 H 0.76908 0.48014 0.16358 0.0
H900 H 0.74506 0.62421 0.18374 0.0
H901 H 0.73138 0.64642 0.2188 0.0
C902 C 0.75161 0.32416 0.49411 0.0
C903 C 0.76066 0.29824 0.52409 0.0
C904 C 0.74116 0.20137 0.52614 0.0
C905 C 0.7332 0.22393 0.49407 0.0
N906 N 0.73214 0.30297 0.44463 0.0
N907 N 0.76648 0.20484 0.56368 0.0
C908 C 0.73885 0.28408 0.47711 0.0
C909 C 0.75603 0.23506 0.53899 0.0
N910 N 0.75468 0.38823 0.4828 0.0
N911 N 0.73468 0.14729 0.54418 0.0
H912 H 0.77798 0.2258 0.57227 0.0
H913 H 0.76475 0.15596 0.57277 0.0
H914 H 0.72444 0.11885 0.53456 0.0
H915 H 0.73868 0.13351 0.56993 0.0
H916 H 0.74718 0.41289 0.46374 0.0
H917 H 0.7638 0.41921 0.49484 0.0
H918 H 0.73717 0.3415 0.42895 0.0
H919 H 0.72219 0.27745 0.432 0.0
C920 C 0.49673 0.23301 0.71074 0.0
C921 C 0.49159 0.29333 0.7284 0.0
C922 C 0.51326 0.27324 0.77542 0.0
C923 C 0.5189 0.21492 0.75665 0.0
N924 N 0.51771 0.1444 0.70397 0.0
N925 N 0.49682 0.37671 0.77387 0.0
C926 C 0.51123 0.19677 0.72346 0.0
C927 C 0.50031 0.31481 0.75989 0.0
N928 N 0.48713 0.20749 0.68313 0.0
N929 N 0.52037 0.28948 0.80798 0.0
H930 H 0.48772 0.4089 0.76274 0.0
H931 H 0.5039 0.39894 0.79442 0.0
H932 H 0.53094 0.26486 0.81887 0.0
H933 H 0.51532 0.3255 0.82526 0.0
H934 H 0.48871 0.15946 0.67274 0.0
H935 H 0.47661 0.2317 0.6722 0.0
H936 H 0.51441 0.13497 0.67724 0.0
H937 H 0.5272 0.11233 0.71364 0.0
C938 C 0.49076 0.95485 0.46599 0.0
C939 C 0.4857 0.95919 0.50264 0.0
C940 C 0.50537 0.05436 0.51115 0.0
C941 C 0.51208 0.04428 0.47608 0.0
N942 N 0.51261 0.97734 0.4214 0.0
N943 N 0.48957 0.00939 0.56162 0.0
C944 C 0.50505 0.99303 0.4536 0.0
C945 C 0.49349 0.00754 0.5257 0.0
N946 N 0.48205 0.91353 0.44298 0.0
N947 N 0.50963 0.11095 0.52989 0.0
H948 H 0.48007 0.98025 0.57346 0.0
H949 H 0.4965 0.03742 0.5803 0.0
H950 H 0.51768 0.14789 0.51947 0.0
H951 H 0.5037 0.12508 0.55389 0.0
H952 H 0.48356 0.91492 0.41508 0.0
H953 H 0.47247 0.88067 0.45146 0.0
H954 H 0.50933 0.93535 0.40625 0.0
H955 H 0.52336 0.00148 0.41112 0.0
C956 C 0.49947 0.81735 0.26573 0.0
C957 C 0.48913 0.78655 0.23901 0.0
C958 C 0.50586 0.68219 0.24502 0.0
C959 C 0.51718 0.71518 0.2689 0.0
N960 N 0.52601 0.81581 0.29987 0.0
N961 N 0.48245 0.68951 0.20259 0.0
C962 C 0.51422 0.78302 0.27903 0.0
C963 C 0.49238 0.71898 0.22843 0.0
N964 N 0.49524 0.87956 0.27829 0.0
N965 N 0.5075 0.61468 0.23963 0.0
H966 H 0.47121 0.71081 0.19304 0.0
H967 H 0.48562 0.64499 0.18962 0.0
H968 H 0.51716 0.58607 0.25155 0.0
H969 H 0.49857 0.58558 0.22589 0.0
H970 H 0.5009 0.90155 0.30078 0.0
H971 H 0.48523 0.90793 0.26766 0.0
H972 H 0.52575 0.86706 0.30487 0.0
H973 H 0.53692 0.79279 0.31021 0.0
C974 C 0.48641 0.52474 0.00459 0.0
C975 C 0.48453 0.45653 0.99453 0.0
C976 C 0.50727 0.47072 0.94955 0.0
C977 C 0.5111 0.5352 0.96416 0.0
N978 N 0.50461 0.62289 0.00677 0.0
N979 N 0.49378 0.36249 0.95906 0.0
C980 C 0.50079 0.56187 0.99214 0.0
C981 C 0.49499 0.42909 0.96714 0.0
N982 N 0.47388 0.55523 0.02437 0.0
N983 N 0.51525 0.44886 0.91893 0.0
H984 H 0.48473 0.33095 0.97095 0.0
H985 H 0.50251 0.33744 0.94263 0.0
H986 H 0.52505 0.47485 0.90603 0.0
H987 H 0.51143 0.40628 0.90485 0.0
H988 H 0.47362 0.60643 0.02965 0.0
H989 H 0.46275 0.53045 0.03222 0.0
H990 H 0.49892 0.64081 0.03029 0.0
H991 H 0.51413 0.65427 0.99651 0.0
C992 C 0.04275 0.40879 0.36943 0.0
C993 C 0.05717 0.42634 0.39094 0.0
C994 C 0.06833 0.31187 0.38538 0.0
C995 C 0.05499 0.29743 0.36069 0.0
N996 N 0.03038 0.33251 0.32597 0.0
N997 N 0.08427 0.39574 0.41829 0.0
C998 C 0.04253 0.34616 0.35157 0.0
C999 C 0.07006 0.37803 0.39891 0.0
N1000 N 0.02864 0.44952 0.36822 0.0
N1001 N 0.07935 0.26225 0.39595 0.0
H1002 H 0.08572 0.44191 0.43077 0.0
H1003 H 0.09518 0.36606 0.42047 0.0
H1004 H 0.07924 0.21424 0.38493 0.0
H1005 H 0.08794 0.26703 0.41728 0.0
H1006 H 0.01709 0.43561 0.35631 0.0
H1007 H 0.02763 0.49416 0.38254 0.0
H1008 H 0.02248 0.36901 0.31471 0.0
H1009 H 0.02881 0.28547 0.31425 0.0
C1010 C 0.20074 0.80706 0.3573 0.0
C1011 C 0.18788 0.78619 0.38193 0.0
C1012 C 0.17423 0.89635 0.37842 0.0
C1013 C 0.18672 0.91604 0.35284 0.0
N1014 N 0.20845 0.88353 0.30962 0.0
N1015 N 0.15978 0.80371 0.40761 0.0
C1016 C 0.19879 0.86914 0.33937 0.0
C1017 C 0.17381 0.82873 0.39003 0.0
N1018 N 0.21544 0.77061 0.35284 0.0
N1019 N 0.16277 0.94207 0.39155 0.0
H1020 H 0.15868 0.75343 0.41488 0.0
H1021 H 0.14852 0.83078 0.41148 0.0
H1022 H 0.16197 0.99106 0.38193 0.0
H1023 H 0.15472 0.93244 0.41335 0.0
H1024 H 0.226 0.78832 0.3385 0.0
H1025 H 0.21793 0.72589 0.36627 0.0
H1026 H 0.21611 0.8481 0.29675 0.0
H1027 H 0.20772 0.92879 0.29579 0.0
C1028 C 0.05394 0.93871 0.851 0.0
C1029 C 0.06658 0.95692 0.87668 0.0
C1030 C 0.07898 0.84441 0.87375 0.0
C1031 C 0.06683 0.82748 0.84686 0.0
N1032 N 0.04597 0.86405 0.80269 0.0
N1033 N 0.09368 0.93375 0.9054 0.0
C1034 C 0.05544 0.87654 0.83296 0.0
C1035 C 0.07988 0.91164 0.88601 0.0
N1036 N 0.03982 0.97808 0.84564 0.0
N1037 N 0.08963 0.79644 0.8875 0.0
H1038 H 0.0951 0.98366 0.91314 0.0
H1039 H 0.1045 0.90471 0.9105 0.0
H1040 H 0.09004 0.74756 0.87761 0.0
H1041 H 0.09736 0.80408 0.91003 0.0
H1042 H 0.02929 0.96279 0.83042 0.0
H1043 H 0.03772 0.02307 0.85912 0.0
H1044 H 0.03891 0.9009 0.78944 0.0
H1045 H 0.04619 0.81861 0.78895 0.0
C1046 C 0.17531 0.39987 0.86046 0.0
C1047 C 0.18839 0.44632 0.86943 0.0
C1048 C 0.2006 0.36628 0.91208 0.0
C1049 C 0.18935 0.31628 0.89849 0.0
N1050 N 0.16603 0.28407 0.85937 0.0
N1051 N 0.21502 0.47101 0.90008 0.0
C1052 C 0.17671 0.33261 0.87247 0.0
C1053 C 0.20135 0.42929 0.8946 0.0
N1054 N 0.16127 0.42097 0.84155 0.0
N1055 N 0.21062 0.35396 0.9416 0.0
H1056 H 0.21632 0.51746 0.88759 0.0
H1057 H 0.22588 0.45702 0.91462 0.0
H1058 H 0.21098 0.30809 0.95487 0.0
H1059 H 0.21757 0.39115 0.95483 0.0
H1060 H 0.15055 0.3912 0.83673 0.0
H1061 H 0.15957 0.47079 0.8339 0.0
H1062 H 0.15796 0.29124 0.83734 0.0
H1063 H 0.16587 0.2352 0.86929 0.0
C1064 C 0.92234 0.66196 0.62911 0.0
C1065 C 0.93491 0.67842 0.65518 0.0
C1066 C 0.94724 0.56637 0.65092 0.0
C1067 C 0.9342 0.54867 0.62601 0.0
N1068 N 0.90682 0.57318 0.59878 0.0
N1069 N 0.95611 0.64116 0.69846 0.0
C1070 C 0.92097 0.59465 0.61726 0.0
C1071 C 0.94624 0.62886 0.66873 0.0
N1072 N 0.91172 0.71045 0.61575 0.0
N1073 N 0.96127 0.52621 0.65572 0.0
H1074 H 0.95622 0.6868 0.71202 0.0
H1075 H 0.96316 0.60404 0.71151 0.0
H1076 H 0.96303 0.48081 0.64244 0.0
H1077 H 0.97206 0.54118 0.67022 0.0
H1078 H 0.90366 0.70298 0.59372 0.0
H1079 H 0.91168 0.75953 0.62538 0.0
H1080 H 0.89606 0.60288 0.59423 0.0
H1081 H 0.90507 0.52329 0.5913 0.0
C1082 C 0.82327 0.09044 0.63279 0.0
C1083 C 0.80919 0.06954 0.65416 0.0
C1084 C 0.7952 0.17818 0.64629 0.0
C1085 C 0.80968 0.20032 0.62635 0.0
N1086 N 0.83876 0.1835 0.60618 0.0
N1087 N 0.78289 0.09472 0.68587 0.0
C1088 C 0.82408 0.15803 0.62107 0.0
C1089 C 0.79556 0.11398 0.66252 0.0
N1090 N 0.83582 0.04566 0.62372 0.0
N1091 N 0.78066 0.2165 0.64786 0.0
H1092 H 0.78183 0.04635 0.6961 0.0
H1093 H 0.77397 0.12766 0.69688 0.0
H1094 H 0.77965 0.26396 0.63645 0.0
H1095 H 0.769 0.19921 0.65788 0.0
H1096 H 0.84539 0.05558 0.6049 0.0
H1097 H 0.83611 0.99661 0.63336 0.0
H1098 H 0.85027 0.15729 0.60461 0.0
H1099 H 0.83995 0.23343 0.59828 0.0
C1100 C 0.95896 0.17424 0.12728 0.0
C1101 C 0.94306 0.20566 0.13494 0.0
C1102 C 0.92755 0.10419 0.11753 0.0
C1103 C 0.94337 0.0746 0.10754 0.0
N1104 N 0.97372 0.0854 0.09571 0.0
N1105 N 0.91217 0.20611 0.13229 0.0
C1106 C 0.95898 0.11068 0.11037 0.0
C1107 C 0.92731 0.1722 0.1286 0.0
N1108 N 0.97403 0.20351 0.1377 0.0
N1109 N 0.91289 0.06656 0.11762 0.0
H1110 H 0.91156 0.25623 0.14013 0.0
H1111 H 0.90033 0.18666 0.12464 0.0
H1112 H 0.91262 0.01642 0.10974 0.0
H1113 H 0.90128 0.08311 0.12822 0.0
H1114 H 0.98582 0.17904 0.13681 0.0
H1115 H 0.97467 0.25028 0.15005 0.0
H1116 H 0.98498 0.11305 0.09318 0.0
H1117 H 0.97434 0.03883 0.08311 0.0
C1118 C 0.81351 0.55957 0.08961 0.0
C1119 C 0.80644 0.55215 0.12452 0.0
C1120 C 0.79641 0.66798 0.12325 0.0
C1121 C 0.80604 0.67908 0.09141 0.0
N1122 N 0.82438 0.63486 0.04412 0.0
N1123 N 0.7925 0.60082 0.17663 0.0
C1124 C 0.81457 0.62458 0.07415 0.0
C1125 C 0.79832 0.60681 0.142 0.0
N1126 N 0.81934 0.50466 0.0713 0.0
N1127 N 0.78464 0.71431 0.13444 0.0
H1128 H 0.79282 0.55617 0.19111 0.0
H1129 H 0.78837 0.64152 0.1919 0.0
H1130 H 0.78192 0.75779 0.11994 0.0
H1131 H 0.77605 0.70576 0.15548 0.0
H1132 H 0.82262 0.50548 0.04408 0.0
H1133 H 0.81976 0.45682 0.08251 0.0
H1134 H 0.83288 0.59939 0.03392 0.0
H1135 H 0.82493 0.6798 0.03015 0.0
C1136 C 0.58124 0.33745 0.85668 0.0
C1137 C 0.56835 0.29079 0.8665 0.0
C1138 C 0.55697 0.37013 0.91044 0.0
C1139 C 0.56744 0.42084 0.89507 0.0
N1140 N 0.59007 0.45373 0.85446 0.0
N1141 N 0.54248 0.26525 0.8999 0.0
C1142 C 0.5798 0.40474 0.86849 0.0
C1143 C 0.55599 0.3071 0.89313 0.0
N1144 N 0.59502 0.31674 0.83676 0.0
N1145 N 0.54779 0.38193 0.94118 0.0
H1146 H 0.54083 0.21906 0.88738 0.0
H1147 H 0.53199 0.27912 0.91564 0.0
H1148 H 0.54751 0.42795 0.95431 0.0
H1149 H 0.54148 0.34417 0.95534 0.0
H1150 H 0.60557 0.34693 0.83113 0.0
H1151 H 0.59669 0.26696 0.82896 0.0
H1152 H 0.59787 0.44671 0.83198 0.0
H1153 H 0.59023 0.50261 0.86439 0.0
C1154 C 0.68312 0.90971 0.90592 0.0
C1155 C 0.69465 0.85858 0.89461 0.0
C1156 C 0.70838 0.93561 0.85226 0.0
C1157 C 0.69665 0.98611 0.86293 0.0
N1158 N 0.67501 0.02702 0.90374 0.0
N1159 N 0.7215 0.82905 0.86639 0.0
C1160 C 0.68476 0.97506 0.89115 0.0
C1161 C 0.70821 0.87321 0.87038 0.0
N1162 N 0.67019 0.89535 0.92957 0.0
N1163 N 0.71967 0.94723 0.8247 0.0
H1164 H 0.72235 0.78429 0.88074 0.0
H1165 H 0.73262 0.83974 0.85195 0.0
H1166 H 0.72127 0.99405 0.81276 0.0
H1167 H 0.72689 0.90974 0.81243 0.0
H1168 H 0.65988 0.92707 0.93462 0.0
H1169 H 0.66926 0.85037 0.94348 0.0
H1170 H 0.66758 0.02456 0.927 0.0
H1171 H 0.67515 0.07468 0.89229 0.0
C1172 C 0.58107 0.85447 0.35963 0.0
C1173 C 0.56802 0.80735 0.36784 0.0
C1174 C 0.55511 0.88617 0.4101 0.0
C1175 C 0.56637 0.9367 0.39737 0.0
N1176 N 0.58983 0.97096 0.35916 0.0
N1177 N 0.54051 0.78349 0.39542 0.0
C1178 C 0.57928 0.92153 0.37175 0.0
C1179 C 0.55455 0.82409 0.3919 0.0
N1180 N 0.59542 0.83436 0.34142 0.0
N1181 N 0.54485 0.89709 0.43941 0.0
H1182 H 0.53896 0.73866 0.3815 0.0
H1183 H 0.5295 0.79784 0.40933 0.0
H1184 H 0.54424 0.94247 0.45314 0.0
H1185 H 0.53789 0.85904 0.45192 0.0
H1186 H 0.60607 0.86487 0.3373 0.0
H1187 H 0.59741 0.78479 0.33359 0.0
H1188 H 0.59816 0.96448 0.3375 0.0
H1189 H 0.58958 0.01981 0.36911 0.0
C1190 C 0.69014 0.32883 0.35115 0.0
C1191 C 0.68942 0.32023 0.389 0.0
C1192 C 0.68797 0.44167 0.39706 0.0
C1193 C 0.69088 0.45025 0.35968 0.0
N1194 N 0.69936 0.40077 0.30269 0.0
N1195 N 0.69246 0.36989 0.4484 0.0
C1196 C 0.69328 0.39354 0.33705 0.0
C1197 C 0.68967 0.37698 0.41219 0.0
N1198 N 0.68725 0.276 0.32855 0.0
N1199 N 0.68296 0.49447 0.418 0.0
H1200 H 0.69491 0.32404 0.46075 0.0
H1201 H 0.69439 0.41057 0.46552 0.0
H1202 H 0.68088 0.5424 0.40775 0.0
H1203 H 0.67909 0.4889 0.44473 0.0
H1204 H 0.68603 0.2815 0.30071 0.0
H1205 H 0.68421 0.22811 0.33775 0.0
H1206 H 0.70286 0.36019 0.28663 0.0
H1207 H 0.70284 0.44676 0.29163 0.0
C1208 C 0.42797 0.56882 0.12591 0.0
C1209 C 0.44357 0.54285 0.11244 0.0
C1210 C 0.45781 0.65002 0.12293 0.0
C1211 C 0.44247 0.67498 0.1387 0.0
N1212 N 0.41442 0.65125 0.16394 0.0
N1213 N 0.47428 0.55215 0.10625 0.0
C1214 C 0.42797 0.63237 0.1429 0.0
C1215 C 0.4588 0.58138 0.11349 0.0
N1216 N 0.41311 0.53298 0.12235 0.0
N1217 N 0.47153 0.69134 0.11705 0.0
H1218 H 0.47556 0.50211 0.09882 0.0
H1219 H 0.486 0.57589 0.11055 0.0
H1220 H 0.47216 0.74064 0.12604 0.0
H1221 H 0.48203 0.67767 0.10132 0.0
H1222 H 0.40103 0.55309 0.12749 0.0
H1223 H 0.41275 0.48442 0.11203 0.0
H1224 H 0.40437 0.61922 0.17065 0.0
H1225 H 0.41395 0.69641 0.17781 0.0
C1226 C 0.32422 0.07849 0.12222 0.0
C1227 C 0.31239 0.06416 0.15014 0.0
C1228 C 0.30134 0.17836 0.14782 0.0
C1229 C 0.31379 0.19398 0.12123 0.0
N1230 N 0.33979 0.16455 0.08979 0.0
N1231 N 0.29326 0.10517 0.19663 0.0
C1232 C 0.32606 0.14561 0.11034 0.0
C1233 C 0.30218 0.11567 0.16541 0.0
N1234 N 0.33375 0.02823 0.10722 0.0
N1235 N 0.28795 0.22082 0.15453 0.0
H1236 H 0.29308 0.05962 0.21027 0.0
H1237 H 0.28715 0.14356 0.21067 0.0
H1238 H 0.28624 0.26641 0.14139 0.0
H1239 H 0.2775 0.20759 0.17054 0.0
H1240 H 0.3411 0.03444 0.08401 0.0
H1241 H 0.33355 0.9791 0.11676 0.0
H1242 H 0.34998 0.13288 0.08358 0.0
H1243 H 0.34191 0.21411 0.08209 0.0
C1244 C 0.45211 0.1629 0.61001 0.0
C1245 C 0.44319 0.1736 0.64291 0.0
C1246 C 0.43645 0.05337 0.64581 0.0
C1247 C 0.44301 0.04587 0.6105 0.0
N1248 N 0.45538 0.09491 0.55676 0.0
N1249 N 0.42597 0.12812 0.69181 0.0
C1250 C 0.45021 0.10112 0.59184 0.0
C1251 C 0.43526 0.11852 0.66099 0.0
N1252 N 0.46346 0.20962 0.59735 0.0
N1253 N 0.43131 0.99826 0.66488 0.0
H1254 H 0.42545 0.17289 0.7059 0.0
H1255 H 0.41781 0.09209 0.70265 0.0
H1256 H 0.43088 0.95022 0.65393 0.0
H1257 H 0.42859 0.99923 0.69237 0.0
H1258 H 0.47162 0.20091 0.5756 0.0
H1259 H 0.46644 0.25363 0.61104 0.0
H1260 H 0.45866 0.13582 0.54073 0.0
H1261 H 0.45539 0.04975 0.54274 0.0
C1262 C 0.30075 0.56955 0.60945 0.0
C1263 C 0.31396 0.55105 0.63376 0.0
C1264 C 0.32623 0.66366 0.62982 0.0
C1265 C 0.3138 0.67996 0.6034 0.0
N1266 N 0.29216 0.64268 0.56106 0.0
N1267 N 0.34141 0.575 0.66099 0.0
C1268 C 0.30207 0.63098 0.59079 0.0
C1269 C 0.32734 0.5966 0.64232 0.0
N1270 N 0.2863 0.53117 0.60597 0.0
N1271 N 0.33703 0.71194 0.64275 0.0
H1272 H 0.34301 0.52542 0.66919 0.0
H1273 H 0.35228 0.6043 0.66518 0.0
H1274 H 0.33727 0.76071 0.63268 0.0
H1275 H 0.34502 0.70475 0.66492 0.0
H1276 H 0.27554 0.54677 0.59157 0.0
H1277 H 0.28416 0.48739 0.62055 0.0
H1278 H 0.28482 0.60554 0.54874 0.0
H1279 H 0.29229 0.68754 0.54678 0.0
C1280 C 0.06175 0.81676 0.36769 0.0
C1281 C 0.04787 0.79917 0.39076 0.0
C1282 C 0.03355 0.90548 0.37622 0.0
C1283 C 0.04798 0.92487 0.35531 0.0
N1284 N 0.07717 0.90491 0.33655 0.0
N1285 N 0.02139 0.82875 0.42024 0.0
C1286 C 0.0624 0.88192 0.35226 0.0
C1287 C 0.03404 0.84432 0.39612 0.0
N1288 N 0.07445 0.77137 0.3606 0.0
N1289 N 0.0191 0.9443 0.37582 0.0
H1290 H 0.02083 0.78301 0.43377 0.0
H1291 H 0.01202 0.86248 0.42857 0.0
H1292 H 0.01825 0.98888 0.36126 0.0
H1293 H 0.00751 0.93001 0.38739 0.0
H1294 H 0.08352 0.77774 0.34028 0.0
H1295 H 0.07544 0.72522 0.37348 0.0
H1296 H 0.08878 0.87922 0.33734 0.0
H1297 H 0.07837 0.95261 0.32542 0.0
C1298 C 0.18782 0.36933 0.41782 0.0
C1299 C 0.20094 0.41549 0.40808 0.0
C1300 C 0.21202 0.33585 0.36307 0.0
C1301 C 0.19865 0.29035 0.37211 0.0
N1302 N 0.1748 0.25983 0.41033 0.0
N1303 N 0.22756 0.43799 0.37773 0.0
C1304 C 0.18697 0.30569 0.40043 0.0
C1305 C 0.2136 0.39735 0.38239 0.0
N1306 N 0.17549 0.38784 0.44209 0.0
N1307 N 0.22321 0.32019 0.33595 0.0
H1308 H 0.22931 0.48212 0.39234 0.0
H1309 H 0.23814 0.42579 0.36197 0.0
H1310 H 0.22359 0.27336 0.32357 0.0
H1311 H 0.23179 0.3541 0.32463 0.0
H1312 H 0.16417 0.36155 0.44646 0.0
H1313 H 0.17605 0.43162 0.4572 0.0
H1314 H 0.16769 0.26277 0.43401 0.0
H1315 H 0.17206 0.21678 0.39558 0.0
C1316 C 0.07081 0.42833 0.87719 0.0
C1317 C 0.05583 0.45256 0.85961 0.0
C1318 C 0.03997 0.35198 0.87853 0.0
C1319 C 0.05523 0.32587 0.89386 0.0
N1320 N 0.08571 0.33393 0.90401 0.0
N1321 N 0.02649 0.43667 0.84095 0.0
C1322 C 0.07077 0.36292 0.89251 0.0
C1323 C 0.04051 0.41401 0.85947 0.0
N1324 N 0.08517 0.46761 0.8789 0.0
N1325 N 0.02485 0.31836 0.88335 0.0
H1326 H 0.02601 0.48364 0.8287 0.0
H1327 H 0.01561 0.4079 0.83604 0.0
H1328 H 0.02406 0.27295 0.89717 0.0
H1329 H 0.01291 0.33736 0.87617 0.0
H1330 H 0.09566 0.45702 0.89528 0.0
H1331 H 0.08638 0.51309 0.86536 0.0
H1332 H 0.09781 0.35462 0.89996 0.0
H1333 H 0.08627 0.28626 0.91541 0.0
C1334 C 0.20642 0.88207 0.90586 0.0
C1335 C 0.19951 0.93869 0.88774 0.0
C1336 C 0.19604 0.86927 0.83358 0.0
C1337 C 0.19985 0.81063 0.85374 0.0
N1338 N 0.20455 0.76228 0.91297 0.0
N1339 N 0.18356 0.9796 0.83606 0.0
C1340 C 0.20396 0.81713 0.89099 0.0
C1341 C 0.19318 0.9307 0.85199 0.0
N1342 N 0.21585 0.88988 0.93661 0.0
N1343 N 0.19565 0.86734 0.79678 0.0
H1344 H 0.17974 0.02311 0.84928 0.0
H1345 H 0.17753 0.9729 0.81122 0.0
H1346 H 0.19883 0.82469 0.78201 0.0
H1347 H 0.1943 0.91028 0.78103 0.0
H1348 H 0.22227 0.85023 0.94894 0.0
H1349 H 0.21905 0.93663 0.94713 0.0
H1350 H 0.206 0.76606 0.94084 0.0
H1351 H 0.20149 0.7141 0.90442 0.0
C1352 C 0.93101 0.13941 0.60661 0.0
C1353 C 0.94577 0.18088 0.60857 0.0
C1354 C 0.96105 0.09323 0.64227 0.0
C1355 C 0.94584 0.05416 0.64279 0.0
N1356 N 0.9155 0.04445 0.63106 0.0
N1357 N 0.97429 0.20141 0.63105 0.0
C1358 C 0.93061 0.07815 0.62621 0.0
C1359 C 0.96064 0.15899 0.62729 0.0
N1360 N 0.91725 0.15886 0.58627 0.0
N1361 N 0.97604 0.06641 0.65484 0.0
H1362 H 0.97482 0.24838 0.61877 0.0
H1363 H 0.98467 0.19188 0.64793 0.0
H1364 H 0.97682 0.01841 0.66582 0.0
H1365 H 0.98795 0.08926 0.65186 0.0
H1366 H 0.90701 0.12744 0.58006 0.0
H1367 H 0.91653 0.2052 0.57345 0.0
H1368 H 0.9036 0.06318 0.62329 0.0
H1369 H 0.91453 1.0002 0.64584 0.0
C1370 C 0.78716 0.61212 0.61427 0.0
C1371 C 0.80156 0.56891 0.61698 0.0
C1372 C 0.81695 0.65331 0.65282 0.0
C1373 C 0.8021 0.69434 0.65233 0.0
N1374 N 0.77248 0.71131 0.63646 0.0
N1375 N 0.82987 0.54536 0.64019 0.0
C1376 C 0.78706 0.67353 0.6339 0.0
C1377 C 0.81634 0.58858 0.6368 0.0
N1378 N 0.77361 0.59442 0.59288 0.0
N1379 N 0.83191 0.67769 0.66703 0.0
H1380 H 0.83073 0.50023 0.62618 0.0
H1381 H 0.83996 0.55251 0.65814 0.0
H1382 H 0.8329 0.72471 0.67907 0.0
H1383 H 0.84372 0.65385 0.66463 0.0
H1384 H 0.76357 0.62655 0.58639 0.0
H1385 H 0.77285 0.54846 0.57963 0.0
H1386 H 0.76055 0.69605 0.62697 0.0
H1387 H 0.77197 0.75643 0.65061 0.0
C1388 C 0.9391 0.62787 0.15683 0.0
C1389 C 0.9515 0.57862 0.1478 0.0
C1390 C 0.96502 0.65777 0.1056 0.0
C1391 C 0.95139 0.70363 0.1115 0.0
N1392 N 0.92345 0.72573 0.13707 0.0
N1393 N 0.9757 0.54414 0.11181 0.0
C1394 C 0.93794 0.68715 0.13577 0.0
C1395 C 0.96427 0.59279 0.12153 0.0
N1396 N 0.92833 0.61822 0.18542 0.0
N1397 N 0.97905 0.67733 0.08614 0.0
H1398 H 0.97641 0.49786 0.12477 0.0
H1399 H 0.98389 0.54831 0.08975 0.0
H1400 H 0.98022 0.72483 0.07472 0.0
H1401 H 0.99019 0.64885 0.08394 0.0
H1402 H 0.92035 0.65554 0.19558 0.0
H1403 H 0.92849 0.57521 0.20122 0.0
H1404 H 0.91245 0.71194 0.15119 0.0
H1405 H 0.9216 0.76791 0.12099 0.0
C1406 C 0.81804 0.14158 0.14427 0.0
C1407 C 0.80396 0.18566 0.1393 0.0
C1408 C 0.79037 0.10469 0.09832 0.0
C1409 C 0.80396 0.059 0.10502 0.0
N1410 N 0.82982 0.02997 0.13728 0.0
N1411 N 0.77562 0.20669 0.11612 0.0
C1412 C 0.81745 0.07611 0.12911 0.0
C1413 C 0.78983 0.1666 0.11745 0.0
N1414 N 0.83244 0.16379 0.16167 0.0
N1415 N 0.77803 0.08897 0.07352 0.0
H1416 H 0.77477 0.2521 0.12991 0.0
H1417 H 0.76416 0.19292 0.10381 0.0
H1418 H 0.77739 0.04258 0.06067 0.0
H1419 H 0.76896 0.12293 0.0641 0.0
H1420 H 0.84391 0.13722 0.16269 0.0
H1421 H 0.83347 0.21164 0.17267 0.0
H1422 H 0.83868 0.03615 0.15801 0.0
H1423 H 0.83069 0.98332 0.12481 0.0
C1424 C 0.56857 0.82112 0.85582 0.0
C1425 C 0.55292 0.79777 0.87104 0.0
C1426 C 0.53843 0.90108 0.85157 0.0
C1427 C 0.55434 0.92635 0.83891 0.0
N1428 N 0.58501 0.91545 0.83328 0.0
N1429 N 0.52323 0.81626 0.88611 0.0
C1430 C 0.56951 0.88744 0.84184 0.0
C1431 C 0.53792 0.83807 0.86972 0.0
N1432 N 0.58263 0.78019 0.8551 0.0
N1433 N 0.52374 0.93663 0.84522 0.0
H1434 H 0.52208 0.76888 0.8977 0.0
H1435 H 0.51244 0.84606 0.88996 0.0
H1436 H 0.52372 0.98281 0.83205 0.0
H1437 H 0.51147 0.91855 0.8504 0.0
H1438 H 0.59368 0.79066 0.84037 0.0
H1439 H 0.58305 0.73349 0.86758 0.0
H1440 H 0.59678 0.89314 0.83883 0.0
H1441 H 0.5863 0.96384 0.82309 0.0
C1442 C 0.71382 0.43813 0.88465 0.0
C1443 C 0.6993 0.48014 0.87989 0.0
C1444 C 0.68563 0.39473 0.8418 0.0
C1445 C 0.7005 0.35423 0.84506 0.0
N1446 N 0.72966 0.33985 0.8649 0.0
N1447 N 0.67218 0.50284 0.85088 0.0
C1448 C 0.71485 0.37658 0.86528 0.0
C1449 C 0.68551 0.45993 0.8573 0.0
N1450 N 0.72657 0.45698 0.90787 0.0
N1451 N 0.67124 0.36926 0.82571 0.0
H1452 H 0.67081 0.54884 0.86383 0.0
H1453 H 0.66292 0.49476 0.83115 0.0
H1454 H 0.67078 0.3217 0.81418 0.0
H1455 H 0.65933 0.39273 0.82615 0.0
H1456 H 0.73651 0.42558 0.91591 0.0
H1457 H 0.72677 0.50334 0.92081 0.0
H1458 H 0.74119 0.3561 0.87598 0.0
H1459 H 0.73082 0.29476 0.85089 0.0
C1460 C 0.54181 0.39906 0.35055 0.0
C1461 C 0.55686 0.43879 0.35357 0.0
C1462 C 0.57099 0.34952 0.38831 0.0
C1463 C 0.55551 0.31214 0.38768 0.0
N1464 N 0.52578 0.30172 0.37123 0.0
N1465 N 0.58559 0.45451 0.3764 0.0
C1466 C 0.54082 0.33684 0.36941 0.0
C1467 C 0.57138 0.41477 0.37286 0.0
N1468 N 0.5285 0.42089 0.32962 0.0
N1469 N 0.58551 0.32131 0.40246 0.0
H1470 H 0.58711 0.49982 0.36281 0.0
H1471 H 0.59564 0.4443 0.39402 0.0
H1472 H 0.58569 0.27389 0.41422 0.0
H1473 H 0.59768 0.34231 0.40036 0.0
H1474 H 0.51791 0.39166 0.323 0.0
H1475 H 0.52843 0.46748 0.31693 0.0
H1476 H 0.51408 0.31964 0.36185 0.0
H1477 H 0.52473 0.2557 0.38437 0.0
C1478 C 0.71229 0.91633 0.38895 0.0
C1479 C 0.69618 0.94854 0.39335 0.0
C1480 C 0.68165 0.85351 0.36422 0.0
C1481 C 0.69785 0.82297 0.35817 0.0
N1482 N 0.72867 0.82663 0.36087 0.0
N1483 N 0.66561 0.95156 0.38339 0.0
C1484 C 0.71321 0.8548 0.36945 0.0
C1485 C 0.68088 0.91819 0.38038 0.0
N1486 N 0.72667 0.94441 0.4037 0.0
N1487 N 0.66698 0.81987 0.35508 0.0
H1488 H 0.66427 0.99654 0.39738 0.0
H1489 H 0.65433 0.93668 0.37073 0.0
H1490 H 0.66702 0.77399 0.34167 0.0
H1491 H 0.6547 0.83519 0.3623 0.0
H1492 H 0.73851 0.92054 0.40504 0.0
H1493 H 0.72661 0.99074 0.41667 0.0
H1494 H 0.74044 0.85004 0.36485 0.0
H1495 H 0.72975 0.78086 0.3475 0.0
C1496 C 0.43771 0.1572 0.12483 0.0
C1497 C 0.45178 0.17666 0.10278 0.0
C1498 C 0.46706 0.0732 0.11922 0.0
C1499 C 0.45263 0.05222 0.13969 0.0
N1500 N 0.4231 0.06861 0.15724 0.0
N1501 N 0.47906 0.15117 0.07557 0.0
C1502 C 0.43771 0.09296 0.14149 0.0
C1503 C 0.46621 0.13384 0.09884 0.0
N1504 N 0.42421 0.20005 0.12969 0.0
N1505 N 0.48183 0.03634 0.12051 0.0
H1506 H 0.47928 0.19654 0.06166 0.0
H1507 H 0.48901 0.11919 0.06825 0.0
H1508 H 0.48291 0.9922 0.13539 0.0
H1509 H 0.49341 0.05172 0.1093 0.0
H1510 H 0.41487 0.1935 0.14943 0.0
H1511 H 0.42266 0.24428 0.11513 0.0
H1512 H 0.41119 0.09183 0.15543 0.0
H1513 H 0.42243 0.02217 0.16992 0.0
C1514 C 0.2882 0.66925 0.12002 0.0
C1515 C 0.29977 0.68277 0.14871 0.0
C1516 C 0.31167 0.56905 0.14321 0.0
C1517 C 0.30105 0.55761 0.11261 0.0
N1518 N 0.27996 0.59725 0.07014 0.0
N1519 N 0.32341 0.64749 0.18642 0.0
C1520 C 0.28958 0.60799 0.10044 0.0
C1521 C 0.31155 0.63283 0.16038 0.0
N1522 N 0.27531 0.71374 0.11278 0.0
N1523 N 0.32213 0.5191 0.15566 0.0
H1524 H 0.32354 0.69188 0.20104 0.0
H1525 H 0.33395 0.6175 0.19232 0.0
H1526 H 0.32462 0.47519 0.14144 0.0
H1527 H 0.32796 0.51973 0.18091 0.0
H1528 H 0.26538 0.70454 0.09471 0.0
H1529 H 0.27359 0.75788 0.12738 0.0
H1530 H 0.27299 0.63454 0.05714 0.0
H1531 H 0.27962 0.55149 0.05664 0.0
C1532 C 0.46437 0.57796 0.61907 0.0
C1533 C 0.44958 0.55347 0.63708 0.0
C1534 C 0.43372 0.65541 0.62055 0.0
C1535 C 0.44827 0.67869 0.60112 0.0
N1536 N 0.47687 0.6602 0.57847 0.0
N1537 N 0.41939 0.56274 0.65038 0.0
C1538 C 0.46341 0.63915 0.59922 0.0
C1539 C 0.43406 0.59075 0.63679 0.0
N1540 N 0.47952 0.54397 0.62229 0.0
N1541 N 0.41948 0.69511 0.62336 0.0
H1542 H 0.41904 0.51562 0.66247 0.0
H1543 H 0.40724 0.5835 0.64733 0.0
H1544 H 0.41795 0.7397 0.60911 0.0
H1545 H 0.40942 0.68565 0.64112 0.0
H1546 H 0.49126 0.5621 0.61317 0.0
H1547 H 0.48064 0.49918 0.63658 0.0
H1548 H 0.48747 0.63064 0.57246 0.0
H1549 H 0.47707 0.70636 0.56534 0.0
C1550 C 0.28991 0.07498 0.62718 0.0
C1551 C 0.30493 0.0541 0.60866 0.0
C1552 C 0.31918 0.16006 0.62393 0.0
C1553 C 0.30436 0.18015 0.64353 0.0
N1554 N 0.27646 0.15478 0.66788 0.0
N1555 N 0.33472 0.07056 0.59392 0.0
C1556 C 0.28999 0.1368 0.6465 0.0
C1557 C 0.31979 0.09511 0.60813 0.0
N1558 N 0.27539 0.03675 0.62508 0.0
N1559 N 0.33272 0.2032 0.62047 0.0
H1560 H 0.33566 0.02331 0.58212 0.0
H1561 H 0.34654 0.09443 0.5961 0.0
H1562 H 0.33354 0.2486 0.63422 0.0
H1563 H 0.34288 0.1957 0.60273 0.0
H1564 H 0.26346 0.05189 0.63464 0.0
H1565 H 0.27495 0.99111 0.61142 0.0
H1566 H 0.2664 0.12282 0.67448 0.0
H1567 H 0.27576 0.20086 0.68102 0.0
loop_
_geom_bond_atom_site_label_1
_geom_bond_atom_site_label_2
_geom_bond_distance
_geom_bond_site_symmetry_2
_ccdc_geom_bond_type
In0 O1 2.294 . S
In0 O2 2.326 . S
In0 O6 2.266 . S
In0 O7 2.326 . S
In0 O8 2.266 . S
In0 O9 2.326 . S
In0 O11 2.294 . S
In0 O12 2.326 . S
O1 In0 2.294 . S
O1 C10 1.240 . S
O2 In0 2.326 . S
O2 C10 1.252 . S
C3 O6 1.252 . S
C3 O7 1.260 . S
C4 O11 1.240 . S
C4 O12 1.252 . S
C5 O8 1.252 . S
C5 O9 1.260 . S
O6 In0 2.266 . S
O6 C3 1.252 . S
O7 In0 2.326 . S
O7 C3 1.260 . S
O8 In0 2.266 . S
O8 C5 1.252 . S
O9 In0 2.326 . S
O9 C5 1.260 . S
C10 O1 1.240 . S
C10 O2 1.252 . S
O11 In0 2.294 . S
O11 C4 1.240 . S
O12 In0 2.326 . S
O12 C4 1.252 . S
In13 O14 2.294 . S
In13 O15 2.326 . S
In13 O19 2.266 . S
In13 O20 2.326 . S
In13 O21 2.266 . S
In13 O22 2.326 . S
In13 O24 2.294 . S
In13 O25 2.326 1_545 S
O14 In13 2.294 . S
O14 C23 1.240 . S
O15 In13 2.326 . S
O15 C23 1.252 . S
C16 O19 1.252 . S
C16 O20 1.260 . S
C17 O24 1.240 1_565 S
C17 O25 1.252 . S
C18 O21 1.252 . S
C18 O22 1.260 . S
O19 In13 2.266 . S
O19 C16 1.252 . S
O20 In13 2.326 . S
O20 C16 1.260 . S
O21 In13 2.266 . S
O21 C18 1.252 . S
O22 In13 2.326 . S
O22 C18 1.260 . S
C23 O14 1.240 . S
C23 O15 1.252 . S
O24 In13 2.294 . S
O24 C17 1.240 1_545 S
O25 In13 2.326 1_565 S
O25 C17 1.252 . S
In26 O27 2.294 . S
In26 O28 2.326 1_545 S
In26 O32 2.266 . S
In26 O33 2.326 . S
In26 O34 2.266 . S
In26 O35 2.326 . S
In26 O37 2.294 . S
In26 O38 2.326 . S
O27 In26 2.294 . S
O27 C36 1.240 1_545 S
O28 In26 2.326 1_565 S
O28 C36 1.252 . S
C29 O32 1.252 . S
C29 O33 1.260 . S
C30 O37 1.240 . S
C30 O38 1.252 . S
C31 O34 1.252 . S
C31 O35 1.260 . S
O32 In26 2.266 . S
O32 C29 1.252 . S
O33 In26 2.326 . S
O33 C29 1.260 . S
O34 In26 2.266 . S
O34 C31 1.252 . S
O35 In26 2.326 . S
O35 C31 1.260 . S
C36 O27 1.240 1_565 S
C36 O28 1.252 . S
O37 In26 2.294 . S
O37 C30 1.240 . S
O38 In26 2.326 . S
O38 C30 1.252 . S
In39 O40 2.294 . S
In39 O41 2.326 . S
In39 O45 2.266 . S
In39 O46 2.326 . S
In39 O47 2.266 . S
In39 O48 2.326 . S
In39 O50 2.294 . S
In39 O51 2.326 . S
O40 In39 2.294 . S
O40 C49 1.240 . S
O41 In39 2.326 . S
O41 C49 1.252 . S
C42 O45 1.252 . S
C42 O46 1.260 . S
C43 O50 1.240 . S
C43 O51 1.252 . S
C44 O47 1.252 . S
C44 O48 1.260 . S
O45 In39 2.266 . S
O45 C42 1.252 . S
O46 In39 2.326 . S
O46 C42 1.260 . S
O47 In39 2.266 . S
O47 C44 1.252 . S
O48 In39 2.326 . S
O48 C44 1.260 . S
C49 O40 1.240 . S
C49 O41 1.252 . S
O50 In39 2.294 . S
O50 C43 1.240 . S
O51 In39 2.326 . S
O51 C43 1.252 . S
In52 O53 2.294 . S
In52 O54 2.326 . S
In52 O58 2.266 . S
In52 O59 2.326 . S
In52 O60 2.266 . S
In52 O61 2.326 . S
In52 O63 2.294 . S
In52 O64 2.326 . S
O53 In52 2.294 . S
O53 C62 1.240 . S
O54 In52 2.326 . S
O54 C62 1.252 . S
C55 O58 1.252 . S
C55 O59 1.260 . S
C56 O63 1.240 . S
C56 O64 1.252 . S
C57 O60 1.252 . S
C57 O61 1.260 . S
O58 In52 2.266 . S
O58 C55 1.252 . S
O59 In52 2.326 . S
O59 C55 1.260 . S
O60 In52 2.266 . S
O60 C57 1.252 . S
O61 In52 2.326 . S
O61 C57 1.260 . S
C62 O53 1.240 . S
C62 O54 1.252 . S
O63 In52 2.294 . S
O63 C56 1.240 . S
O64 In52 2.326 . S
O64 C56 1.252 . S
In65 O66 2.294 . S
In65 O67 2.326 . S
In65 O71 2.266 . S
In65 O72 2.326 . S
In65 O73 2.266 . S
In65 O74 2.326 . S
In65 O76 2.294 . S
In65 O77 2.326 1_565 S
O66 In65 2.294 . S
O66 C75 1.240 . S
O67 In65 2.326 . S
O67 C75 1.252 . S
C68 O71 1.252 . S
C68 O72 1.260 . S
C69 O76 1.240 1_545 S
C69 O77 1.252 . S
C70 O73 1.252 . S
C70 O74 1.260 . S
O71 In65 2.266 . S
O71 C68 1.252 . S
O72 In65 2.326 . S
O72 C68 1.260 . S
O73 In65 2.266 . S
O73 C70 1.252 . S
O74 In65 2.326 . S
O74 C70 1.260 . S
C75 O66 1.240 . S
C75 O67 1.252 . S
O76 In65 2.294 . S
O76 C69 1.240 1_565 S
O77 In65 2.326 1_545 S
O77 C69 1.252 . S
In78 O79 2.294 . S
In78 O80 2.326 1_565 S
In78 O84 2.266 . S
In78 O85 2.326 . S
In78 O86 2.266 . S
In78 O87 2.326 . S
In78 O89 2.294 . S
In78 O90 2.326 . S
O79 In78 2.294 . S
O79 C88 1.240 1_565 S
O80 In78 2.326 1_545 S
O80 C88 1.252 . S
C81 O84 1.252 . S
C81 O85 1.260 . S
C82 O89 1.240 . S
C82 O90 1.252 . S
C83 O86 1.252 . S
C83 O87 1.260 . S
O84 In78 2.266 . S
O84 C81 1.252 . S
O85 In78 2.326 . S
O85 C81 1.260 . S
O86 In78 2.266 . S
O86 C83 1.252 . S
O87 In78 2.326 . S
O87 C83 1.260 . S
C88 O79 1.240 1_545 S
C88 O80 1.252 . S
O89 In78 2.294 . S
O89 C82 1.240 . S
O90 In78 2.326 . S
O90 C82 1.252 . S
In91 O92 2.294 . S
In91 O93 2.326 . S
In91 O97 2.266 . S
In91 O98 2.326 . S
In91 O99 2.266 . S
In91 O100 2.326 . S
In91 O102 2.294 . S
In91 O103 2.326 . S
O92 In91 2.294 . S
O92 C101 1.240 . S
O93 In91 2.326 . S
O93 C101 1.252 . S
C94 O97 1.252 . S
C94 O98 1.260 . S
C95 O102 1.240 . S
C95 O103 1.252 . S
C96 O99 1.252 . S
C96 O100 1.260 . S
O97 In91 2.266 . S
O97 C94 1.252 . S
O98 In91 2.326 . S
O98 C94 1.260 . S
O99 In91 2.266 . S
O99 C96 1.252 . S
O100 In91 2.326 . S
O100 C96 1.260 . S
C101 O92 1.240 . S
C101 O93 1.252 . S
O102 In91 2.294 . S
O102 C95 1.240 . S
O103 In91 2.326 . S
O103 C95 1.252 . S
In104 O105 2.294 . S
In104 O106 2.326 . S
In104 O110 2.266 . S
In104 O111 2.326 . S
In104 O112 2.266 . S
In104 O113 2.326 . S
In104 O115 2.294 . S
In104 O116 2.326 . S
O105 In104 2.294 . S
O105 C114 1.240 . S
O106 In104 2.326 . S
O106 C114 1.252 . S
C107 O110 1.252 . S
C107 O111 1.260 . S
C108 O115 1.240 . S
C108 O116 1.252 . S
C109 O112 1.252 . S
C109 O113 1.260 . S
O110 In104 2.266 . S
O110 C107 1.252 . S
O111 In104 2.326 . S
O111 C107 1.260 . S
O112 In104 2.266 . S
O112 C109 1.252 . S
O113 In104 2.326 . S
O113 C109 1.260 . S
C114 O105 1.240 . S
C114 O106 1.252 . S
O115 In104 2.294 . S
O115 C108 1.240 . S
O116 In104 2.326 . S
O116 C108 1.252 . S
In117 O118 2.294 . S
In117 O119 2.326 . S
In117 O123 2.266 . S
In117 O124 2.326 . S
In117 O125 2.266 . S
In117 O126 2.326 . S
In117 O128 2.294 . S
In117 O129 2.326 . S
O118 In117 2.294 . S
O118 C127 1.240 . S
O119 In117 2.326 . S
O119 C127 1.252 . S
C120 O123 1.252 . S
C120 O124 1.260 . S
C121 O128 1.240 . S
C121 O129 1.252 . S
C122 O125 1.252 . S
C122 O126 1.260 . S
O123 In117 2.266 . S
O123 C120 1.252 . S
O124 In117 2.326 . S
O124 C120 1.260 . S
O125 In117 2.266 . S
O125 C122 1.252 . S
O126 In117 2.326 . S
O126 C122 1.260 . S
C127 O118 1.240 . S
C127 O119 1.252 . S
O128 In117 2.294 . S
O128 C121 1.240 . S
O129 In117 2.326 . S
O129 C121 1.252 . S
In130 O131 2.294 . S
In130 O132 2.326 . S
In130 O136 2.266 . S
In130 O137 2.326 . S
In130 O138 2.266 . S
In130 O139 2.326 . S
In130 O141 2.294 . S
In130 O142 2.326 . S
O131 In130 2.294 . S
O131 C140 1.240 . S
O132 In130 2.326 . S
O132 C140 1.252 . S
C133 O136 1.252 . S
C133 O137 1.260 . S
C134 O141 1.240 . S
C134 O142 1.252 . S
C135 O138 1.252 . S
C135 O139 1.260 . S
O136 In130 2.266 . S
O136 C133 1.252 . S
O137 In130 2.326 . S
O137 C133 1.260 . S
O138 In130 2.266 . S
O138 C135 1.252 . S
O139 In130 2.326 . S
O139 C135 1.260 . S
C140 O131 1.240 . S
C140 O132 1.252 . S
O141 In130 2.294 . S
O141 C134 1.240 . S
O142 In130 2.326 . S
O142 C134 1.252 . S
In143 O144 2.294 . S
In143 O145 2.326 . S
In143 O149 2.266 . S
In143 O150 2.326 . S
In143 O151 2.266 . S
In143 O152 2.326 . S
In143 O154 2.294 . S
In143 O155 2.326 . S
O144 In143 2.294 . S
O144 C153 1.240 . S
O145 In143 2.326 . S
O145 C153 1.252 . S
C146 O149 1.252 . S
C146 O150 1.260 . S
C147 O154 1.240 . S
C147 O155 1.252 . S
C148 O151 1.252 . S
C148 O152 1.260 . S
O149 In143 2.266 . S
O149 C146 1.252 . S
O150 In143 2.326 . S
O150 C146 1.260 . S
O151 In143 2.266 . S
O151 C148 1.252 . S
O152 In143 2.326 . S
O152 C148 1.260 . S
C153 O144 1.240 . S
C153 O145 1.252 . S
O154 In143 2.294 . S
O154 C147 1.240 . S
O155 In143 2.326 . S
O155 C147 1.252 . S
In156 O157 2.294 . S
In156 O158 2.326 . S
In156 O162 2.266 . S
In156 O163 2.326 . S
In156 O164 2.266 . S
In156 O165 2.326 . S
In156 O167 2.294 . S
In156 O168 2.326 . S
O157 In156 2.294 . S
O157 C166 1.240 . S
O158 In156 2.326 . S
O158 C166 1.252 . S
C159 O162 1.252 . S
C159 O163 1.260 . S
C160 O167 1.240 . S
C160 O168 1.252 . S
C161 O164 1.252 . S
C161 O165 1.260 . S
O162 In156 2.266 . S
O162 C159 1.252 . S
O163 In156 2.326 . S
O163 C159 1.260 . S
O164 In156 2.266 . S
O164 C161 1.252 . S
O165 In156 2.326 . S
O165 C161 1.260 . S
C166 O157 1.240 . S
C166 O158 1.252 . S
O167 In156 2.294 . S
O167 C160 1.240 . S
O168 In156 2.326 . S
O168 C160 1.252 . S
In169 O170 2.294 . S
In169 O171 2.326 . S
In169 O175 2.266 . S
In169 O176 2.326 . S
In169 O177 2.266 . S
In169 O178 2.326 . S
In169 O180 2.294 . S
In169 O181 2.326 . S
O170 In169 2.294 . S
O170 C179 1.240 . S
O171 In169 2.326 . S
O171 C179 1.252 . S
C172 O175 1.252 . S
C172 O176 1.260 . S
C173 O180 1.240 . S
C173 O181 1.252 . S
C174 O177 1.252 . S
C174 O178 1.260 . S
O175 In169 2.266 . S
O175 C172 1.252 . S
O176 In169 2.326 . S
O176 C172 1.260 . S
O177 In169 2.266 . S
O177 C174 1.252 . S
O178 In169 2.326 . S
O178 C174 1.260 . S
C179 O170 1.240 . S
C179 O171 1.252 . S
O180 In169 2.294 . S
O180 C173 1.240 . S
O181 In169 2.326 . S
O181 C173 1.252 . S
In182 O183 2.294 . S
In182 O184 2.326 . S
In182 O188 2.266 . S
In182 O189 2.326 . S
In182 O190 2.266 . S
In182 O191 2.326 . S
In182 O193 2.294 . S
In182 O194 2.326 . S
O183 In182 2.294 . S
O183 C192 1.240 . S
O184 In182 2.326 . S
O184 C192 1.252 . S
C185 O188 1.252 . S
C185 O189 1.260 . S
C186 O193 1.240 . S
C186 O194 1.252 . S
C187 O190 1.252 . S
C187 O191 1.260 . S
O188 In182 2.266 . S
O188 C185 1.252 . S
O189 In182 2.326 . S
O189 C185 1.260 . S
O190 In182 2.266 . S
O190 C187 1.252 . S
O191 In182 2.326 . S
O191 C187 1.260 . S
C192 O183 1.240 . S
C192 O184 1.252 . S
O193 In182 2.294 . S
O193 C186 1.240 . S
O194 In182 2.326 . S
O194 C186 1.252 . S
In195 O196 2.294 . S
In195 O197 2.326 . S
In195 O201 2.266 . S
In195 O202 2.326 . S
In195 O203 2.266 . S
In195 O204 2.326 . S
In195 O206 2.294 . S
In195 O207 2.326 . S
O196 In195 2.294 . S
O196 C205 1.240 . S
O197 In195 2.326 . S
O197 C205 1.252 . S
C198 O201 1.252 . S
C198 O202 1.260 . S
C199 O206 1.240 . S
C199 O207 1.252 . S
C200 O203 1.252 . S
C200 O204 1.260 . S
O201 In195 2.266 . S
O201 C198 1.252 . S
O202 In195 2.326 . S
O202 C198 1.260 . S
O203 In195 2.266 . S
O203 C200 1.252 . S
O204 In195 2.326 . S
O204 C200 1.260 . S
C205 O196 1.240 . S
C205 O197 1.252 . S
O206 In195 2.294 . S
O206 C199 1.240 . S
O207 In195 2.326 . S
O207 C199 1.252 . S
In208 O209 2.294 . S
In208 O210 2.326 . S
In208 O214 2.266 . S
In208 O215 2.326 . S
In208 O216 2.266 . S
In208 O217 2.326 . S
In208 O219 2.294 . S
In208 O220 2.326 . S
O209 In208 2.294 . S
O209 C218 1.240 . S
O210 In208 2.326 . S
O210 C218 1.252 . S
C211 O214 1.252 . S
C211 O215 1.260 . S
C212 O219 1.240 . S
C212 O220 1.252 . S
C213 O216 1.252 . S
C213 O217 1.260 . S
O214 In208 2.266 . S
O214 C211 1.252 . S
O215 In208 2.326 . S
O215 C211 1.260 . S
O216 In208 2.266 . S
O216 C213 1.252 . S
O217 In208 2.326 . S
O217 C213 1.260 . S
C218 O209 1.240 . S
C218 O210 1.252 . S
O219 In208 2.294 . S
O219 C212 1.240 . S
O220 In208 2.326 . S
O220 C212 1.252 . S
In221 O222 2.294 . S
In221 O223 2.326 1_545 S
In221 O227 2.266 . S
In221 O228 2.326 . S
In221 O229 2.266 . S
In221 O230 2.326 . S
In221 O232 2.294 . S
In221 O233 2.326 . S
O222 In221 2.294 . S
O222 C231 1.240 1_545 S
O223 In221 2.326 1_565 S
O223 C231 1.252 . S
C224 O227 1.252 . S
C224 O228 1.260 . S
C225 O232 1.240 . S
C225 O233 1.252 . S
C226 O229 1.252 . S
C226 O230 1.260 . S
O227 In221 2.266 . S
O227 C224 1.252 . S
O228 In221 2.326 . S
O228 C224 1.260 . S
O229 In221 2.266 . S
O229 C226 1.252 . S
O230 In221 2.326 . S
O230 C226 1.260 . S
C231 O222 1.240 1_565 S
C231 O223 1.252 . S
O232 In221 2.294 . S
O232 C225 1.240 . S
O233 In221 2.326 . S
O233 C225 1.252 . S
In234 O235 2.294 . S
In234 O236 2.326 1_545 S
In234 O240 2.266 . S
In234 O241 2.326 . S
In234 O242 2.266 . S
In234 O243 2.326 . S
In234 O245 2.294 . S
In234 O246 2.326 . S
O235 In234 2.294 . S
O235 C244 1.240 1_545 S
O236 In234 2.326 1_565 S
O236 C244 1.252 . S
C237 O240 1.252 . S
C237 O241 1.260 . S
C238 O245 1.240 . S
C238 O246 1.252 . S
C239 O242 1.252 . S
C239 O243 1.260 . S
O240 In234 2.266 . S
O240 C237 1.252 . S
O241 In234 2.326 . S
O241 C237 1.260 . S
O242 In234 2.266 . S
O242 C239 1.252 . S
O243 In234 2.326 . S
O243 C239 1.260 . S
C244 O235 1.240 1_565 S
C244 O236 1.252 . S
O245 In234 2.294 . S
O245 C238 1.240 . S
O246 In234 2.326 . S
O246 C238 1.252 . S
In247 O248 2.294 . S
In247 O249 2.326 . S
In247 O253 2.266 . S
In247 O254 2.326 . S
In247 O255 2.266 . S
In247 O256 2.326 . S
In247 O258 2.294 . S
In247 O259 2.326 . S
O248 In247 2.294 . S
O248 C257 1.240 . S
O249 In247 2.326 . S
O249 C257 1.252 . S
C250 O253 1.252 . S
C250 O254 1.260 . S
C251 O258 1.240 . S
C251 O259 1.252 . S
C252 O255 1.252 . S
C252 O256 1.260 . S
O253 In247 2.266 . S
O253 C250 1.252 . S
O254 In247 2.326 . S
O254 C250 1.260 . S
O255 In247 2.266 . S
O255 C252 1.252 . S
O256 In247 2.326 . S
O256 C252 1.260 . S
C257 O248 1.240 . S
C257 O249 1.252 . S
O258 In247 2.294 . S
O258 C251 1.240 . S
O259 In247 2.326 . S
O259 C251 1.252 . S
In260 O261 2.294 . S
In260 O262 2.326 . S
In260 O266 2.266 . S
In260 O267 2.326 . S
In260 O268 2.266 . S
In260 O269 2.326 . S
In260 O271 2.294 . S
In260 O272 2.326 . S
O261 In260 2.294 . S
O261 C270 1.240 . S
O262 In260 2.326 . S
O262 C270 1.252 . S
C263 O266 1.252 . S
C263 O267 1.260 . S
C264 O271 1.240 . S
C264 O272 1.252 . S
C265 O268 1.252 . S
C265 O269 1.260 . S
O266 In260 2.266 . S
O266 C263 1.252 . S
O267 In260 2.326 . S
O267 C263 1.260 . S
O268 In260 2.266 . S
O268 C265 1.252 . S
O269 In260 2.326 . S
O269 C265 1.260 . S
C270 O261 1.240 . S
C270 O262 1.252 . S
O271 In260 2.294 . S
O271 C264 1.240 . S
O272 In260 2.326 . S
O272 C264 1.252 . S
In273 O274 2.294 . S
In273 O275 2.326 . S
In273 O279 2.266 . S
In273 O280 2.326 . S
In273 O281 2.266 . S
In273 O282 2.326 . S
In273 O284 2.294 . S
In273 O285 2.326 1_565 S
O274 In273 2.294 . S
O274 C283 1.240 . S
O275 In273 2.326 . S
O275 C283 1.252 . S
C276 O279 1.252 . S
C276 O280 1.260 . S
C277 O284 1.240 1_545 S
C277 O285 1.252 . S
C278 O281 1.252 . S
C278 O282 1.260 . S
O279 In273 2.266 . S
O279 C276 1.252 . S
O280 In273 2.326 . S
O280 C276 1.260 . S
O281 In273 2.266 . S
O281 C278 1.252 . S
O282 In273 2.326 . S
O282 C278 1.260 . S
C283 O274 1.240 . S
C283 O275 1.252 . S
O284 In273 2.294 . S
O284 C277 1.240 1_565 S
O285 In273 2.326 1_545 S
O285 C277 1.252 . S
In286 O287 2.294 . S
In286 O288 2.326 . S
In286 O292 2.266 . S
In286 O293 2.326 . S
In286 O294 2.266 . S
In286 O295 2.326 . S
In286 O297 2.294 . S
In286 O298 2.326 1_565 S
O287 In286 2.294 . S
O287 C296 1.240 . S
O288 In286 2.326 . S
O288 C296 1.252 . S
C289 O292 1.252 . S
C289 O293 1.260 . S
C290 O297 1.240 1_545 S
C290 O298 1.252 . S
C291 O294 1.252 . S
C291 O295 1.260 . S
O292 In286 2.266 . S
O292 C289 1.252 . S
O293 In286 2.326 . S
O293 C289 1.260 . S
O294 In286 2.266 . S
O294 C291 1.252 . S
O295 In286 2.326 . S
O295 C291 1.260 . S
C296 O287 1.240 . S
C296 O288 1.252 . S
O297 In286 2.294 . S
O297 C290 1.240 1_565 S
O298 In286 2.326 1_545 S
O298 C290 1.252 . S
In299 O300 2.294 . S
In299 O301 2.326 . S
In299 O305 2.266 . S
In299 O306 2.326 . S
In299 O307 2.266 . S
In299 O308 2.326 . S
In299 O310 2.294 . S
In299 O311 2.326 . S
O300 In299 2.294 . S
O300 C309 1.240 . S
O301 In299 2.326 . S
O301 C309 1.252 . S
C302 O305 1.252 . S
C302 O306 1.260 . S
C303 O310 1.240 . S
C303 O311 1.252 . S
C304 O307 1.252 . S
C304 O308 1.260 . S
O305 In299 2.266 . S
O305 C302 1.252 . S
O306 In299 2.326 . S
O306 C302 1.260 . S
O307 In299 2.266 . S
O307 C304 1.252 . S
O308 In299 2.326 . S
O308 C304 1.260 . S
C309 O300 1.240 . S
C309 O301 1.252 . S
O310 In299 2.294 . S
O310 C303 1.240 . S
O311 In299 2.326 . S
O311 C303 1.252 . S
In312 O313 2.294 . S
In312 O314 2.326 . S
In312 O318 2.266 . S
In312 O319 2.326 . S
In312 O320 2.266 . S
In312 O321 2.326 . S
In312 O323 2.294 . S
In312 O324 2.326 . S
O313 In312 2.294 . S
O313 C322 1.240 . S
O314 In312 2.326 . S
O314 C322 1.252 . S
C315 O318 1.252 . S
C315 O319 1.260 . S
C316 O323 1.240 . S
C316 O324 1.252 . S
C317 O320 1.252 . S
C317 O321 1.260 . S
O318 In312 2.266 . S
O318 C315 1.252 . S
O319 In312 2.326 . S
O319 C315 1.260 . S
O320 In312 2.266 . S
O320 C317 1.252 . S
O321 In312 2.326 . S
O321 C317 1.260 . S
C322 O313 1.240 . S
C322 O314 1.252 . S
O323 In312 2.294 . S
O323 C316 1.240 . S
O324 In312 2.326 . S
O324 C316 1.252 . S
In325 O326 2.294 . S
In325 O327 2.326 . S
In325 O331 2.266 . S
In325 O332 2.326 . S
In325 O333 2.266 . S
In325 O334 2.326 . S
In325 O336 2.294 . S
In325 O337 2.326 . S
O326 In325 2.294 . S
O326 C335 1.240 . S
O327 In325 2.326 . S
O327 C335 1.252 . S
C328 O331 1.252 . S
C328 O332 1.260 . S
C329 O336 1.240 . S
C329 O337 1.252 . S
C330 O333 1.252 . S
C330 O334 1.260 . S
O331 In325 2.266 . S
O331 C328 1.252 . S
O332 In325 2.326 . S
O332 C328 1.260 . S
O333 In325 2.266 . S
O333 C330 1.252 . S
O334 In325 2.326 . S
O334 C330 1.260 . S
C335 O326 1.240 . S
C335 O327 1.252 . S
O336 In325 2.294 . S
O336 C329 1.240 . S
O337 In325 2.326 . S
O337 C329 1.252 . S
In338 O339 2.294 . S
In338 O340 2.326 . S
In338 O344 2.266 . S
In338 O345 2.326 . S
In338 O346 2.266 . S
In338 O347 2.326 . S
In338 O349 2.294 . S
In338 O350 2.326 . S
O339 In338 2.294 . S
O339 C348 1.240 . S
O340 In338 2.326 . S
O340 C348 1.252 . S
C341 O344 1.252 . S
C341 O345 1.260 . S
C342 O349 1.240 . S
C342 O350 1.252 . S
C343 O346 1.252 . S
C343 O347 1.260 . S
O344 In338 2.266 . S
O344 C341 1.252 . S
O345 In338 2.326 . S
O345 C341 1.260 . S
O346 In338 2.266 . S
O346 C343 1.252 . S
O347 In338 2.326 . S
O347 C343 1.260 . S
C348 O339 1.240 . S
C348 O340 1.252 . S
O349 In338 2.294 . S
O349 C342 1.240 . S
O350 In338 2.326 . S
O350 C342 1.252 . S
In351 O352 2.294 . S
In351 O353 2.326 . S
In351 O357 2.266 . S
In351 O358 2.326 . S
In351 O359 2.266 . S
In351 O360 2.326 . S
In351 O362 2.294 . S
In351 O363 2.326 . S
O352 In351 2.294 . S
O352 C361 1.240 . S
O353 In351 2.326 . S
O353 C361 1.252 . S
C354 O357 1.252 . S
C354 O358 1.260 . S
C355 O362 1.240 . S
C355 O363 1.252 . S
C356 O359 1.252 . S
C356 O360 1.260 . S
O357 In351 2.266 . S
O357 C354 1.252 . S
O358 In351 2.326 . S
O358 C354 1.260 . S
O359 In351 2.266 . S
O359 C356 1.252 . S
O360 In351 2.326 . S
O360 C356 1.260 . S
C361 O352 1.240 . S
C361 O353 1.252 . S
O362 In351 2.294 . S
O362 C355 1.240 . S
O363 In351 2.326 . S
O363 C355 1.252 . S
In364 O365 2.294 . S
In364 O366 2.326 . S
In364 O370 2.266 . S
In364 O371 2.326 . S
In364 O372 2.266 . S
In364 O373 2.326 . S
In364 O375 2.294 . S
In364 O376 2.326 . S
O365 In364 2.294 . S
O365 C374 1.240 . S
O366 In364 2.326 . S
O366 C374 1.252 . S
C367 O370 1.252 . S
C367 O371 1.260 . S
C368 O375 1.240 . S
C368 O376 1.252 . S
C369 O372 1.252 . S
C369 O373 1.260 . S
O370 In364 2.266 . S
O370 C367 1.252 . S
O371 In364 2.326 . S
O371 C367 1.260 . S
O372 In364 2.266 . S
O372 C369 1.252 . S
O373 In364 2.326 . S
O373 C369 1.260 . S
C374 O365 1.240 . S
C374 O366 1.252 . S
O375 In364 2.294 . S
O375 C368 1.240 . S
O376 In364 2.326 . S
O376 C368 1.252 . S
In377 O378 2.294 . S
In377 O379 2.326 . S
In377 O383 2.266 . S
In377 O384 2.326 . S
In377 O385 2.266 . S
In377 O386 2.326 . S
In377 O388 2.294 . S
In377 O389 2.326 . S
O378 In377 2.294 . S
O378 C387 1.240 . S
O379 In377 2.326 . S
O379 C387 1.252 . S
C380 O383 1.252 . S
C380 O384 1.260 . S
C381 O388 1.240 . S
C381 O389 1.252 . S
C382 O385 1.252 . S
C382 O386 1.260 . S
O383 In377 2.266 . S
O383 C380 1.252 . S
O384 In377 2.326 . S
O384 C380 1.260 . S
O385 In377 2.266 . S
O385 C382 1.252 . S
O386 In377 2.326 . S
O386 C382 1.260 . S
C387 O378 1.240 . S
C387 O379 1.252 . S
O388 In377 2.294 . S
O388 C381 1.240 . S
O389 In377 2.326 . S
O389 C381 1.252 . S
In390 O391 2.294 . S
In390 O392 2.326 . S
In390 O396 2.266 . S
In390 O397 2.326 . S
In390 O398 2.266 . S
In390 O399 2.326 . S
In390 O401 2.294 . S
In390 O402 2.326 . S
O391 In390 2.294 . S
O391 C400 1.240 . S
O392 In390 2.326 . S
O392 C400 1.252 . S
C393 O396 1.252 . S
C393 O397 1.260 . S
C394 O401 1.240 . S
C394 O402 1.252 . S
C395 O398 1.252 . S
C395 O399 1.260 . S
O396 In390 2.266 . S
O396 C393 1.252 . S
O397 In390 2.326 . S
O397 C393 1.260 . S
O398 In390 2.266 . S
O398 C395 1.252 . S
O399 In390 2.326 . S
O399 C395 1.260 . S
C400 O391 1.240 . S
C400 O392 1.252 . S
O401 In390 2.294 . S
O401 C394 1.240 . S
O402 In390 2.326 . S
O402 C394 1.252 . S
In403 O404 2.294 . S
In403 O405 2.326 . S
In403 O409 2.266 . S
In403 O410 2.326 . S
In403 O411 2.266 . S
In403 O412 2.326 . S
In403 O414 2.294 . S
In403 O415 2.326 . S
O404 In403 2.294 . S
O404 C413 1.240 . S
O405 In403 2.326 . S
O405 C413 1.252 . S
C406 O409 1.252 . S
C406 O410 1.260 . S
C407 O414 1.240 . S
C407 O415 1.252 . S
C408 O411 1.252 . S
C408 O412 1.260 . S
O409 In403 2.266 . S
O409 C406 1.252 . S
O410 In403 2.326 . S
O410 C406 1.260 . S
O411 In403 2.266 . S
O411 C408 1.252 . S
O412 In403 2.326 . S
O412 C408 1.260 . S
C413 O404 1.240 . S
C413 O405 1.252 . S
O414 In403 2.294 . S
O414 C407 1.240 . S
O415 In403 2.326 . S
O415 C407 1.252 . S
C416 C417 1.363 . S
C416 C422 1.379 . S
C416 N424 1.356 . S
C417 C416 1.363 . S
C417 C423 1.363 . S
C418 C419 1.363 . S
C418 C423 1.379 . S
C418 N425 1.356 . S
C419 C418 1.363 . S
C419 C422 1.363 . S
N420 C422 1.356 . S
N420 H432 0.984 . S
N420 H433 0.985 . S
N421 C423 1.356 . S
N421 H426 0.984 . S
N421 H427 0.985 . S
C422 C416 1.379 . S
C422 C419 1.363 . S
C422 N420 1.356 . S
C423 C417 1.363 . S
C423 C418 1.379 . S
C423 N421 1.356 . S
N424 C416 1.356 . S
N424 H430 0.984 . S
N424 H431 0.984 . S
N425 C418 1.356 . S
N425 H428 0.984 . S
N425 H429 0.985 . S
H426 N421 0.984 . S
H427 N421 0.985 . S
H428 N425 0.984 . S
H429 N425 0.985 . S
H430 N424 0.984 . S
H431 N424 0.984 . S
H432 N420 0.984 . S
H433 N420 0.985 . S
C434 C435 1.363 . S
C434 C440 1.379 . S
C434 N442 1.356 . S
C435 C434 1.363 . S
C435 C441 1.363 . S
C436 C437 1.363 . S
C436 C441 1.379 . S
C436 N443 1.356 . S
C437 C436 1.363 . S
C437 C440 1.363 . S
N438 C440 1.356 . S
N438 H450 0.984 . S
N438 H451 0.985 . S
N439 C441 1.356 . S
N439 H444 0.984 . S
N439 H445 0.985 1_556 S
C440 C434 1.379 . S
C440 C437 1.363 . S
C440 N438 1.356 . S
C441 C435 1.363 . S
C441 C436 1.379 . S
C441 N439 1.356 . S
N442 C434 1.356 . S
N442 H448 0.984 . S
N442 H449 0.984 . S
N443 C436 1.356 . S
N443 H446 0.984 . S
N443 H447 0.985 1_556 S
H444 N439 0.984 . S
H445 N439 0.985 1_554 S
H446 N443 0.984 . S
H447 N443 0.985 1_554 S
H448 N442 0.984 . S
H449 N442 0.984 . S
H450 N438 0.984 . S
H451 N438 0.985 . S
C452 C453 1.363 . S
C452 C458 1.379 . S
C452 N460 1.356 . S
C453 C452 1.363 . S
C453 C459 1.363 . S
C454 C455 1.363 . S
C454 C459 1.379 . S
C454 N461 1.356 . S
C455 C454 1.363 . S
C455 C458 1.363 . S
N456 C458 1.356 . S
N456 H468 0.984 . S
N456 H469 0.985 . S
N457 C459 1.356 . S
N457 H462 0.984 . S
N457 H463 0.985 . S
C458 C452 1.379 . S
C458 C455 1.363 . S
C458 N456 1.356 . S
C459 C453 1.363 . S
C459 C454 1.379 . S
C459 N457 1.356 . S
N460 C452 1.356 . S
N460 H466 0.984 . S
N460 H467 0.984 . S
N461 C454 1.356 . S
N461 H464 0.984 . S
N461 H465 0.985 . S
H462 N457 0.984 . S
H463 N457 0.985 . S
H464 N461 0.984 . S
H465 N461 0.985 . S
H466 N460 0.984 . S
H467 N460 0.984 . S
H468 N456 0.984 . S
H469 N456 0.985 . S
C470 C471 1.363 . S
C470 C476 1.379 . S
C470 N478 1.356 . S
C471 C470 1.363 . S
C471 C477 1.363 . S
C472 C473 1.363 . S
C472 C477 1.379 . S
C472 N479 1.356 . S
C473 C472 1.363 . S
C473 C476 1.363 . S
N474 C476 1.356 . S
N474 H486 0.984 1_554 S
N474 H487 0.985 . S
N475 C477 1.356 . S
N475 H480 0.984 . S
N475 H481 0.985 . S
C476 C470 1.379 . S
C476 C473 1.363 . S
C476 N474 1.356 . S
C477 C471 1.363 . S
C477 C472 1.379 . S
C477 N475 1.356 . S
N478 C470 1.356 . S
N478 H484 0.984 1_554 S
N478 H485 0.984 . S
N479 C472 1.356 . S
N479 H482 0.984 . S
N479 H483 0.985 . S
H480 N475 0.984 . S
H481 N475 0.985 . S
H482 N479 0.984 . S
H483 N479 0.985 . S
H484 N478 0.984 1_556 S
H485 N478 0.984 . S
H486 N474 0.984 1_556 S
H487 N474 0.985 . S
C488 C489 1.363 . S
C488 C494 1.379 . S
C488 N496 1.356 . S
C489 C488 1.363 . S
C489 C495 1.363 . S
C490 C491 1.363 . S
C490 C495 1.379 . S
C490 N497 1.356 . S
C491 C490 1.363 . S
C491 C494 1.363 . S
N492 C494 1.356 . S
N492 H504 0.984 . S
N492 H505 0.985 . S
N493 C495 1.356 . S
N493 H498 0.984 . S
N493 H499 0.985 . S
C494 C488 1.379 . S
C494 C491 1.363 . S
C494 N492 1.356 . S
C495 C489 1.363 . S
C495 C490 1.379 . S
C495 N493 1.356 . S
N496 C488 1.356 . S
N496 H502 0.984 . S
N496 H503 0.984 . S
N497 C490 1.356 . S
N497 H500 0.984 . S
N497 H501 0.985 . S
H498 N493 0.984 . S
H499 N493 0.985 . S
H500 N497 0.984 . S
H501 N497 0.985 . S
H502 N496 0.984 . S
H503 N496 0.984 . S
H504 N492 0.984 . S
H505 N492 0.985 . S
C506 C507 1.363 . S
C506 C512 1.379 . S
C506 N514 1.356 . S
C507 C506 1.363 . S
C507 C513 1.363 . S
C508 C509 1.363 . S
C508 C513 1.379 . S
C508 N515 1.356 . S
C509 C508 1.363 . S
C509 C512 1.363 . S
N510 C512 1.356 . S
N510 H522 0.984 . S
N510 H523 0.985 . S
N511 C513 1.356 . S
N511 H516 0.984 . S
N511 H517 0.985 . S
C512 C506 1.379 . S
C512 C509 1.363 . S
C512 N510 1.356 . S
C513 C507 1.363 . S
C513 C508 1.379 . S
C513 N511 1.356 . S
N514 C506 1.356 . S
N514 H520 0.984 . S
N514 H521 0.984 . S
N515 C508 1.356 . S
N515 H518 0.984 . S
N515 H519 0.985 . S
H516 N511 0.984 . S
H517 N511 0.985 . S
H518 N515 0.984 . S
H519 N515 0.985 . S
H520 N514 0.984 . S
H521 N514 0.984 . S
H522 N510 0.984 . S
H523 N510 0.985 . S
C524 C525 1.363 . S
C524 C530 1.379 . S
C524 N532 1.356 . S
C525 C524 1.363 . S
C525 C531 1.363 . S
C526 C527 1.363 . S
C526 C531 1.379 . S
C526 N533 1.356 . S
C527 C526 1.363 . S
C527 C530 1.363 . S
N528 C530 1.356 . S
N528 H540 0.984 . S
N528 H541 0.985 . S
N529 C531 1.356 . S
N529 H534 0.984 . S
N529 H535 0.985 . S
C530 C524 1.379 . S
C530 C527 1.363 . S
C530 N528 1.356 . S
C531 C525 1.363 . S
C531 C526 1.379 . S
C531 N529 1.356 . S
N532 C524 1.356 . S
N532 H538 0.984 . S
N532 H539 0.984 . S
N533 C526 1.356 . S
N533 H536 0.984 . S
N533 H537 0.985 . S
H534 N529 0.984 . S
H535 N529 0.985 . S
H536 N533 0.984 . S
H537 N533 0.985 . S
H538 N532 0.984 . S
H539 N532 0.984 . S
H540 N528 0.984 . S
H541 N528 0.985 . S
C542 C543 1.363 . S
C542 C548 1.379 . S
C542 N550 1.356 . S
C543 C542 1.363 . S
C543 C549 1.363 . S
C544 C545 1.363 . S
C544 C549 1.379 . S
C544 N551 1.356 . S
C545 C544 1.363 . S
C545 C548 1.363 . S
N546 C548 1.356 . S
N546 H558 0.984 . S
N546 H559 0.985 . S
N547 C549 1.356 . S
N547 H552 0.984 . S
N547 H553 0.985 . S
C548 C542 1.379 . S
C548 C545 1.363 . S
C548 N546 1.356 . S
C549 C543 1.363 . S
C549 C544 1.379 . S
C549 N547 1.356 . S
N550 C542 1.356 . S
N550 H556 0.984 . S
N550 H557 0.984 . S
N551 C544 1.356 . S
N551 H554 0.984 . S
N551 H555 0.985 . S
H552 N547 0.984 . S
H553 N547 0.985 . S
H554 N551 0.984 . S
H555 N551 0.985 . S
H556 N550 0.984 . S
H557 N550 0.984 . S
H558 N546 0.984 . S
H559 N546 0.985 . S
C560 C561 1.363 . S
C560 C566 1.379 . S
C560 N568 1.356 . S
C561 C560 1.363 . S
C561 C567 1.363 . S
C562 C563 1.363 . S
C562 C567 1.379 . S
C562 N569 1.356 . S
C563 C562 1.363 . S
C563 C566 1.363 . S
N564 C566 1.356 . S
N564 H576 0.984 . S
N564 H577 0.985 . S
N565 C567 1.356 . S
N565 H570 0.984 . S
N565 H571 0.985 . S
C566 C560 1.379 . S
C566 C563 1.363 . S
C566 N564 1.356 . S
C567 C561 1.363 . S
C567 C562 1.379 . S
C567 N565 1.356 . S
N568 C560 1.356 . S
N568 H574 0.984 . S
N568 H575 0.984 . S
N569 C562 1.356 . S
N569 H572 0.984 . S
N569 H573 0.985 . S
H570 N565 0.984 . S
H571 N565 0.985 . S
H572 N569 0.984 . S
H573 N569 0.985 . S
H574 N568 0.984 . S
H575 N568 0.984 . S
H576 N564 0.984 . S
H577 N564 0.985 . S
C578 C579 1.363 . S
C578 C584 1.379 . S
C578 N586 1.356 . S
C579 C578 1.363 . S
C579 C585 1.363 . S
C580 C581 1.363 . S
C580 C585 1.379 . S
C580 N587 1.356 . S
C581 C580 1.363 . S
C581 C584 1.363 . S
N582 C584 1.356 . S
N582 H594 0.984 . S
N582 H595 0.985 . S
N583 C585 1.356 . S
N583 H588 0.984 . S
N583 H589 0.985 . S
C584 C578 1.379 . S
C584 C581 1.363 . S
C584 N582 1.356 . S
C585 C579 1.363 . S
C585 C580 1.379 . S
C585 N583 1.356 . S
N586 C578 1.356 . S
N586 H592 0.984 . S
N586 H593 0.984 . S
N587 C580 1.356 . S
N587 H590 0.984 . S
N587 H591 0.985 . S
H588 N583 0.984 . S
H589 N583 0.985 . S
H590 N587 0.984 . S
H591 N587 0.985 . S
H592 N586 0.984 . S
H593 N586 0.984 . S
H594 N582 0.984 . S
H595 N582 0.985 . S
C596 C597 1.363 . S
C596 C602 1.379 . S
C596 N604 1.356 . S
C597 C596 1.363 . S
C597 C603 1.363 . S
C598 C599 1.363 . S
C598 C603 1.379 . S
C598 N605 1.356 . S
C599 C598 1.363 . S
C599 C602 1.363 . S
N600 C602 1.356 . S
N600 H612 0.984 . S
N600 H613 0.985 . S
N601 C603 1.356 . S
N601 H606 0.984 . S
N601 H607 0.985 . S
C602 C596 1.379 . S
C602 C599 1.363 . S
C602 N600 1.356 . S
C603 C597 1.363 . S
C603 C598 1.379 . S
C603 N601 1.356 . S
N604 C596 1.356 . S
N604 H610 0.984 . S
N604 H611 0.984 . S
N605 C598 1.356 . S
N605 H608 0.984 . S
N605 H609 0.985 . S
H606 N601 0.984 . S
H607 N601 0.985 . S
H608 N605 0.984 . S
H609 N605 0.985 . S
H610 N604 0.984 . S
H611 N604 0.984 . S
H612 N600 0.984 . S
H613 N600 0.985 . S
C614 C615 1.363 . S
C614 C620 1.379 . S
C614 N622 1.356 . S
C615 C614 1.363 . S
C615 C621 1.363 . S
C616 C617 1.363 . S
C616 C621 1.379 . S
C616 N623 1.356 . S
C617 C616 1.363 . S
C617 C620 1.363 . S
N618 C620 1.356 . S
N618 H630 0.984 . S
N618 H631 0.985 . S
N619 C621 1.356 . S
N619 H624 0.984 . S
N619 H625 0.985 . S
C620 C614 1.379 . S
C620 C617 1.363 . S
C620 N618 1.356 . S
C621 C615 1.363 . S
C621 C616 1.379 . S
C621 N619 1.356 . S
N622 C614 1.356 . S
N622 H628 0.984 . S
N622 H629 0.984 . S
N623 C616 1.356 . S
N623 H626 0.984 . S
N623 H627 0.985 . S
H624 N619 0.984 . S
H625 N619 0.985 . S
H626 N623 0.984 . S
H627 N623 0.985 . S
H628 N622 0.984 . S
H629 N622 0.984 . S
H630 N618 0.984 . S
H631 N618 0.985 . S
C632 C633 1.363 . S
C632 C638 1.379 . S
C632 N640 1.356 . S
C633 C632 1.363 . S
C633 C639 1.363 . S
C634 C635 1.363 . S
C634 C639 1.379 . S
C634 N641 1.356 . S
C635 C634 1.363 . S
C635 C638 1.363 . S
N636 C638 1.356 . S
N636 H648 0.984 . S
N636 H649 0.985 . S
N637 C639 1.356 . S
N637 H642 0.984 . S
N637 H643 0.985 . S
C638 C632 1.379 . S
C638 C635 1.363 . S
C638 N636 1.356 . S
C639 C633 1.363 . S
C639 C634 1.379 . S
C639 N637 1.356 . S
N640 C632 1.356 . S
N640 H646 0.984 . S
N640 H647 0.984 . S
N641 C634 1.356 . S
N641 H644 0.984 . S
N641 H645 0.985 . S
H642 N637 0.984 . S
H643 N637 0.985 . S
H644 N641 0.984 . S
H645 N641 0.985 . S
H646 N640 0.984 . S
H647 N640 0.984 . S
H648 N636 0.984 . S
H649 N636 0.985 . S
C650 C651 1.363 . S
C650 C656 1.379 . S
C650 N658 1.356 . S
C651 C650 1.363 . S
C651 C657 1.363 . S
C652 C653 1.363 . S
C652 C657 1.379 . S
C652 N659 1.356 . S
C653 C652 1.363 . S
C653 C656 1.363 . S
N654 C656 1.356 . S
N654 H666 0.984 1_556 S
N654 H667 0.985 . S
N655 C657 1.356 . S
N655 H660 0.984 . S
N655 H661 0.985 . S
C656 C650 1.379 . S
C656 C653 1.363 . S
C656 N654 1.356 . S
C657 C651 1.363 . S
C657 C652 1.379 . S
C657 N655 1.356 . S
N658 C650 1.356 . S
N658 H664 0.984 1_556 S
N658 H665 0.984 . S
N659 C652 1.356 . S
N659 H662 0.984 . S
N659 H663 0.985 . S
H660 N655 0.984 . S
H661 N655 0.985 . S
H662 N659 0.984 . S
H663 N659 0.985 . S
H664 N658 0.984 1_554 S
H665 N658 0.984 . S
H666 N654 0.984 1_554 S
H667 N654 0.985 . S
C668 C669 1.363 . S
C668 C674 1.379 . S
C668 N676 1.356 . S
C669 C668 1.363 . S
C669 C675 1.363 . S
C670 C671 1.363 . S
C670 C675 1.379 . S
C670 N677 1.356 . S
C671 C670 1.363 . S
C671 C674 1.363 . S
N672 C674 1.356 . S
N672 H684 0.984 . S
N672 H685 0.985 . S
N673 C675 1.356 . S
N673 H678 0.984 . S
N673 H679 0.985 . S
C674 C668 1.379 . S
C674 C671 1.363 . S
C674 N672 1.356 . S
C675 C669 1.363 . S
C675 C670 1.379 . S
C675 N673 1.356 . S
N676 C668 1.356 . S
N676 H682 0.984 . S
N676 H683 0.984 . S
N677 C670 1.356 . S
N677 H680 0.984 . S
N677 H681 0.985 . S
H678 N673 0.984 . S
H679 N673 0.985 . S
H680 N677 0.984 . S
H681 N677 0.985 . S
H682 N676 0.984 . S
H683 N676 0.984 . S
H684 N672 0.984 . S
H685 N672 0.985 . S
C686 C687 1.363 . S
C686 C692 1.379 . S
C686 N694 1.356 . S
C687 C686 1.363 . S
C687 C693 1.363 . S
C688 C689 1.363 . S
C688 C693 1.379 . S
C688 N695 1.356 . S
C689 C688 1.363 . S
C689 C692 1.363 . S
N690 C692 1.356 . S
N690 H702 0.984 1_554 S
N690 H703 0.985 . S
N691 C693 1.356 . S
N691 H696 0.984 . S
N691 H697 0.985 . S
C692 C686 1.379 . S
C692 C689 1.363 . S
C692 N690 1.356 . S
C693 C687 1.363 . S
C693 C688 1.379 . S
C693 N691 1.356 . S
N694 C686 1.356 . S
N694 H700 0.984 1_554 S
N694 H701 0.984 . S
N695 C688 1.356 . S
N695 H698 0.984 . S
N695 H699 0.985 . S
H696 N691 0.984 . S
H697 N691 0.985 . S
H698 N695 0.984 . S
H699 N695 0.985 . S
H700 N694 0.984 1_556 S
H701 N694 0.984 . S
H702 N690 0.984 1_556 S
H703 N690 0.985 . S
C704 C705 1.363 . S
C704 C710 1.379 1_455 S
C704 N712 1.356 . S
C705 C704 1.363 . S
C705 C711 1.363 . S
C706 C707 1.363 . S
C706 C711 1.379 1_655 S
C706 N713 1.356 . S
C707 C706 1.363 . S
C707 C710 1.363 . S
N708 C710 1.356 . S
N708 H720 1.017 . S
N708 H721 0.985 . S
N709 C711 1.356 . S
N709 H714 0.984 . S
N709 H715 1.017 . S
C710 C704 1.379 1_655 S
C710 C707 1.363 . S
C710 N708 1.356 . S
C711 C705 1.363 . S
C711 C706 1.379 1_455 S
C711 N709 1.356 . S
N712 C704 1.356 . S
N712 H718 0.984 . S
N712 H719 0.984 . S
N713 C706 1.356 . S
N713 H716 0.984 . S
N713 H717 0.985 . S
H714 N709 0.984 . S
H715 N709 1.017 . S
H716 N713 0.984 . S
H717 N713 0.985 . S
H718 N712 0.984 . S
H719 N712 0.984 . S
H720 N708 1.017 . S
H721 N708 0.985 . S
C722 C723 1.363 1_565 S
C722 C728 1.379 . S
C722 N730 1.356 1_565 S
C723 C722 1.363 1_545 S
C723 C729 1.363 . S
C724 C725 1.363 1_545 S
C724 C729 1.379 . S
C724 N731 1.356 1_545 S
C725 C724 1.363 1_565 S
C725 C728 1.363 . S
N726 C728 1.356 . S
N726 H738 0.984 . S
N726 H739 0.985 . S
N727 C729 1.356 . S
N727 H732 0.984 . S
N727 H733 0.985 . S
C728 C722 1.379 . S
C728 C725 1.363 . S
C728 N726 1.356 . S
C729 C723 1.363 . S
C729 C724 1.379 . S
C729 N727 1.356 . S
N730 C722 1.356 1_545 S
N730 H736 0.984 1_545 S
N730 H737 0.984 . S
N731 C724 1.356 1_565 S
N731 H734 0.984 . S
N731 H735 0.985 1_565 S
H732 N727 0.984 . S
H733 N727 0.985 . S
H734 N731 0.984 . S
H735 N731 0.985 1_545 S
H736 N730 0.984 1_565 S
H737 N730 0.984 . S
H738 N726 0.984 . S
H739 N726 0.985 . S
C740 C741 1.363 1_655 S
C740 C746 1.379 . S
C740 N748 1.356 . S
C741 C740 1.363 1_455 S
C741 C747 1.363 1_546 S
C742 C743 1.363 1_455 S
C742 C747 1.379 . S
C742 N749 1.356 . S
C743 C742 1.363 1_655 S
C743 C746 1.363 1_564 S
N744 C746 1.356 . S
N744 H756 0.984 . S
N744 H757 0.985 1_546 S
N745 C747 1.356 . S
N745 H750 0.984 1_564 S
N745 H751 0.985 . S
C746 C740 1.379 . S
C746 C743 1.363 1_546 S
C746 N744 1.356 . S
C747 C741 1.363 1_564 S
C747 C742 1.379 . S
C747 N745 1.356 . S
N748 C740 1.356 . S
N748 H754 0.984 . S
N748 H755 0.984 1_655 S
N749 C742 1.356 . S
N749 H752 0.984 1_455 S
N749 H753 0.985 . S
H750 N745 0.984 1_546 S
H751 N745 0.985 . S
H752 N749 0.984 1_655 S
H753 N749 0.985 . S
H754 N748 0.984 . S
H755 N748 0.984 1_455 S
H756 N744 0.984 . S
H757 N744 0.985 1_564 S
C758 C759 1.363 . S
C758 C764 1.379 . S
C758 N766 1.356 . S
C759 C758 1.363 . S
C759 C765 1.363 1_556 S
C760 C761 1.363 . S
C760 C765 1.379 . S
C760 N767 1.356 . S
C761 C760 1.363 . S
C761 C764 1.363 1_554 S
N762 C764 1.356 . S
N762 H774 0.984 . S
N762 H775 0.985 . S
N763 C765 1.356 . S
N763 H768 0.984 . S
N763 H769 0.985 . S
C764 C758 1.379 . S
C764 C761 1.363 1_556 S
C764 N762 1.356 . S
C765 C759 1.363 1_554 S
C765 C760 1.379 . S
C765 N763 1.356 . S
N766 C758 1.356 . S
N766 H772 0.984 . S
N766 H773 0.984 . S
N767 C760 1.356 . S
N767 H770 0.984 . S
N767 H771 0.985 . S
H768 N763 0.984 . S
H769 N763 0.985 . S
H770 N767 0.984 . S
H771 N767 0.985 . S
H772 N766 0.984 . S
H773 N766 0.984 . S
H774 N762 0.984 . S
H775 N762 0.985 . S
C776 C777 1.363 . S
C776 C782 1.379 1_655 S
C776 N784 1.356 . S
C777 C776 1.363 . S
C777 C783 1.363 . S
C778 C779 1.363 . S
C778 C783 1.379 1_455 S
C778 N785 1.356 . S
C779 C778 1.363 . S
C779 C782 1.363 . S
N780 C782 1.356 . S
N780 H792 0.984 . S
N780 H793 0.985 . S
N781 C783 1.356 . S
N781 H786 0.984 . S
N781 H787 0.985 . S
C782 C776 1.379 1_455 S
C782 C779 1.363 . S
C782 N780 1.356 . S
C783 C777 1.363 . S
C783 C778 1.379 1_655 S
C783 N781 1.356 . S
N784 C776 1.356 . S
N784 H790 0.984 . S
N784 H791 0.984 . S
N785 C778 1.356 . S
N785 H788 0.984 . S
N785 H789 0.985 . S
H786 N781 0.984 . S
H787 N781 0.985 . S
H788 N785 0.984 . S
H789 N785 0.985 . S
H790 N784 0.984 . S
H791 N784 0.984 . S
H792 N780 0.984 . S
H793 N780 0.985 . S
C794 C795 1.363 . S
C794 C800 1.379 1_545 S
C794 N802 1.356 . S
C795 C794 1.363 . S
C795 C801 1.363 . S
C796 C797 1.363 . S
C796 C801 1.379 1_565 S
C796 N803 1.356 . S
C797 C796 1.363 . S
C797 C800 1.363 . S
N798 C800 1.356 . S
N798 H810 0.984 . S
N798 H811 0.985 . S
N799 C801 1.356 . S
N799 H804 0.984 . S
N799 H805 0.985 . S
C800 C794 1.379 1_565 S
C800 C797 1.363 . S
C800 N798 1.356 . S
C801 C795 1.363 . S
C801 C796 1.379 1_545 S
C801 N799 1.356 . S
N802 C794 1.356 . S
N802 H808 0.984 . S
N802 H809 0.984 . S
N803 C796 1.356 . S
N803 H806 0.984 . S
N803 H807 0.985 . S
H804 N799 0.984 . S
H805 N799 0.985 . S
H806 N803 0.984 . S
H807 N803 0.985 . S
H808 N802 0.984 . S
H809 N802 0.984 . S
H810 N798 0.984 . S
H811 N798 0.985 . S
C812 C813 1.363 . S
C812 C818 1.379 . S
C812 N820 1.356 . S
C813 C812 1.363 . S
C813 C819 1.363 1_556 S
C814 C815 1.363 . S
C814 C819 1.379 . S
C814 N821 1.356 . S
C815 C814 1.363 . S
C815 C818 1.363 1_554 S
N816 C818 1.356 . S
N816 H828 0.984 . S
N816 H829 0.985 . S
N817 C819 1.356 . S
N817 H822 0.984 . S
N817 H823 0.985 . S
C818 C812 1.379 . S
C818 C815 1.363 1_556 S
C818 N816 1.356 . S
C819 C813 1.363 1_554 S
C819 C814 1.379 . S
C819 N817 1.356 . S
N820 C812 1.356 . S
N820 H826 0.984 . S
N820 H827 0.984 . S
N821 C814 1.356 . S
N821 H824 0.984 . S
N821 H825 0.985 . S
H822 N817 0.984 . S
H823 N817 0.985 . S
H824 N821 0.984 . S
H825 N821 0.985 . S
H826 N820 0.984 . S
H827 N820 0.984 . S
H828 N816 0.984 . S
H829 N816 0.985 . S
C830 C831 1.363 . S
C830 C836 1.379 . S
C830 N838 1.356 . S
C831 C830 1.363 . S
C831 C837 1.363 . S
C832 C833 1.363 . S
C832 C837 1.379 . S
C832 N839 1.356 . S
C833 C832 1.363 . S
C833 C836 1.363 . S
N834 C836 1.356 . S
N834 H846 0.984 . S
N834 H847 0.985 . S
N835 C837 1.356 . S
N835 H840 0.984 . S
N835 H841 0.985 . S
C836 C830 1.379 . S
C836 C833 1.363 . S
C836 N834 1.356 . S
C837 C831 1.363 . S
C837 C832 1.379 . S
C837 N835 1.356 . S
N838 C830 1.356 . S
N838 H844 0.984 . S
N838 H845 0.984 . S
N839 C832 1.356 . S
N839 H842 0.984 . S
N839 H843 0.985 . S
H840 N835 0.984 . S
H841 N835 0.985 . S
H842 N839 0.984 . S
H843 N839 0.985 . S
H844 N838 0.984 . S
H845 N838 0.984 . S
H846 N834 0.984 . S
H847 N834 0.985 . S
C848 C849 1.363 . S
C848 C854 1.379 1_455 S
C848 N856 1.356 . S
C849 C848 1.363 . S
C849 C855 1.363 . S
C850 C851 1.363 . S
C850 C855 1.379 1_655 S
C850 N857 1.356 . S
C851 C850 1.363 . S
C851 C854 1.363 . S
N852 C854 1.356 . S
N852 H864 0.984 . S
N852 H865 0.985 . S
N853 C855 1.356 . S
N853 H858 0.984 . S
N853 H859 0.985 . S
C854 C848 1.379 1_655 S
C854 C851 1.363 . S
C854 N852 1.356 . S
C855 C849 1.363 . S
C855 C850 1.379 1_455 S
C855 N853 1.356 . S
N856 C848 1.356 . S
N856 H862 0.984 . S
N856 H863 0.984 . S
N857 C850 1.356 . S
N857 H860 0.984 . S
N857 H861 0.985 . S
H858 N853 0.984 . S
H859 N853 0.985 . S
H860 N857 0.984 . S
H861 N857 0.985 . S
H862 N856 0.984 . S
H863 N856 0.984 . S
H864 N852 0.984 . S
H865 N852 0.985 . S
C866 C867 1.363 . S
C866 C872 1.379 . S
C866 N874 1.356 . S
C867 C866 1.363 . S
C867 C873 1.363 . S
C868 C869 1.363 . S
C868 C873 1.379 . S
C868 N875 1.356 . S
C869 C868 1.363 . S
C869 C872 1.363 . S
N870 C872 1.356 . S
N870 H882 0.984 . S
N870 H883 0.985 . S
N871 C873 1.356 . S
N871 H876 0.984 . S
N871 H877 0.985 . S
C872 C866 1.379 . S
C872 C869 1.363 . S
C872 N870 1.356 . S
C873 C867 1.363 . S
C873 C868 1.379 . S
C873 N871 1.356 . S
N874 C866 1.356 . S
N874 H880 0.984 . S
N874 H881 0.984 . S
N875 C868 1.356 . S
N875 H878 0.984 . S
N875 H879 0.985 . S
H876 N871 0.984 . S
H877 N871 0.985 . S
H878 N875 0.984 . S
H879 N875 0.985 . S
H880 N874 0.984 . S
H881 N874 0.984 . S
H882 N870 0.984 . S
H883 N870 0.985 . S
C884 C885 1.363 . S
C884 C890 1.379 . S
C884 N892 1.356 . S
C885 C884 1.363 . S
C885 C891 1.363 . S
C886 C887 1.363 . S
C886 C891 1.379 . S
C886 N893 1.356 . S
C887 C886 1.363 . S
C887 C890 1.363 . S
N888 C890 1.356 . S
N888 H900 0.984 . S
N888 H901 0.985 . S
N889 C891 1.356 . S
N889 H894 0.984 . S
N889 H895 0.985 . S
C890 C884 1.379 . S
C890 C887 1.363 . S
C890 N888 1.356 . S
C891 C885 1.363 . S
C891 C886 1.379 . S
C891 N889 1.356 . S
N892 C884 1.356 . S
N892 H898 0.984 . S
N892 H899 0.984 . S
N893 C886 1.356 . S
N893 H896 0.984 . S
N893 H897 0.985 . S
H894 N889 0.984 . S
H895 N889 0.985 . S
H896 N893 0.984 . S
H897 N893 0.985 . S
H898 N892 0.984 . S
H899 N892 0.984 . S
H900 N888 0.984 . S
H901 N888 0.985 . S
C902 C903 1.363 . S
C902 C908 1.379 . S
C902 N910 1.356 . S
C903 C902 1.363 . S
C903 C909 1.363 . S
C904 C905 1.363 . S
C904 C909 1.379 . S
C904 N911 1.356 . S
C905 C904 1.363 . S
C905 C908 1.363 . S
N906 C908 1.356 . S
N906 H918 0.984 . S
N906 H919 0.985 . S
N907 C909 1.356 . S
N907 H912 0.984 . S
N907 H913 0.985 . S
C908 C902 1.379 . S
C908 C905 1.363 . S
C908 N906 1.356 . S
C909 C903 1.363 . S
C909 C904 1.379 . S
C909 N907 1.356 . S
N910 C902 1.356 . S
N910 H916 0.984 . S
N910 H917 0.984 . S
N911 C904 1.356 . S
N911 H914 0.984 . S
N911 H915 0.985 . S
H912 N907 0.984 . S
H913 N907 0.985 . S
H914 N911 0.984 . S
H915 N911 0.985 . S
H916 N910 0.984 . S
H917 N910 0.984 . S
H918 N906 0.984 . S
H919 N906 0.985 . S
C920 C921 1.363 . S
C920 C926 1.379 . S
C920 N928 1.356 . S
C921 C920 1.363 . S
C921 C927 1.363 . S
C922 C923 1.363 . S
C922 C927 1.379 . S
C922 N929 1.356 . S
C923 C922 1.363 . S
C923 C926 1.363 . S
N924 C926 1.356 . S
N924 H936 0.984 . S
N924 H937 0.985 . S
N925 C927 1.356 . S
N925 H930 0.984 . S
N925 H931 0.985 . S
C926 C920 1.379 . S
C926 C923 1.363 . S
C926 N924 1.356 . S
C927 C921 1.363 . S
C927 C922 1.379 . S
C927 N925 1.356 . S
N928 C920 1.356 . S
N928 H934 0.984 . S
N928 H935 0.984 . S
N929 C922 1.356 . S
N929 H932 0.984 . S
N929 H933 0.985 . S
H930 N925 0.984 . S
H931 N925 0.985 . S
H932 N929 0.984 . S
H933 N929 0.985 . S
H934 N928 0.984 . S
H935 N928 0.984 . S
H936 N924 0.984 . S
H937 N924 0.985 . S
C938 C939 1.363 . S
C938 C944 1.379 1_565 S
C938 N946 1.356 . S
C939 C938 1.363 . S
C939 C945 1.363 . S
C940 C941 1.363 . S
C940 C945 1.379 1_545 S
C940 N947 1.356 . S
C941 C940 1.363 . S
C941 C944 1.363 . S
N942 C944 1.356 . S
N942 H954 0.984 . S
N942 H955 0.985 . S
N943 C945 1.356 . S
N943 H948 0.984 . S
N943 H949 0.985 . S
C944 C938 1.379 1_545 S
C944 C941 1.363 . S
C944 N942 1.356 . S
C945 C939 1.363 . S
C945 C940 1.379 1_565 S
C945 N943 1.356 . S
N946 C938 1.356 . S
N946 H952 0.984 . S
N946 H953 0.984 . S
N947 C940 1.356 . S
N947 H950 0.984 . S
N947 H951 0.985 . S
H948 N943 0.984 . S
H949 N943 0.985 . S
H950 N947 0.984 . S
H951 N947 0.985 . S
H952 N946 0.984 . S
H953 N946 0.984 . S
H954 N942 0.984 . S
H955 N942 0.985 . S
C956 C957 1.363 . S
C956 C962 1.379 . S
C956 N964 1.356 . S
C957 C956 1.363 . S
C957 C963 1.363 . S
C958 C959 1.363 . S
C958 C963 1.379 . S
C958 N965 1.356 . S
C959 C958 1.363 . S
C959 C962 1.363 . S
N960 C962 1.356 . S
N960 H972 0.984 . S
N960 H973 0.985 . S
N961 C963 1.356 . S
N961 H966 0.984 . S
N961 H967 0.985 . S
C962 C956 1.379 . S
C962 C959 1.363 . S
C962 N960 1.356 . S
C963 C957 1.363 . S
C963 C958 1.379 . S
C963 N961 1.356 . S
N964 C956 1.356 . S
N964 H970 0.984 . S
N964 H971 0.984 . S
N965 C958 1.356 . S
N965 H968 0.984 . S
N965 H969 0.985 . S
H966 N961 0.984 . S
H967 N961 0.985 . S
H968 N965 0.984 . S
H969 N965 0.985 . S
H970 N964 0.984 . S
H971 N964 0.984 . S
H972 N960 0.984 . S
H973 N960 0.985 . S
C974 C975 1.363 . S
C974 C980 1.379 . S
C974 N982 1.356 . S
C975 C974 1.363 . S
C975 C981 1.363 1_554 S
C976 C977 1.363 . S
C976 C981 1.379 . S
C976 N983 1.356 . S
C977 C976 1.363 . S
C977 C980 1.363 1_556 S
N978 C980 1.356 . S
N978 H990 0.984 . S
N978 H991 0.985 . S
N979 C981 1.356 . S
N979 H984 0.984 . S
N979 H985 0.985 . S
C980 C974 1.379 . S
C980 C977 1.363 1_554 S
C980 N978 1.356 . S
C981 C975 1.363 1_556 S
C981 C976 1.379 . S
C981 N979 1.356 . S
N982 C974 1.356 . S
N982 H988 0.984 . S
N982 H989 0.984 . S
N983 C976 1.356 . S
N983 H986 0.984 . S
N983 H987 0.985 . S
H984 N979 0.984 . S
H985 N979 0.985 . S
H986 N983 0.984 . S
H987 N983 0.985 . S
H988 N982 0.984 . S
H989 N982 0.984 . S
H990 N978 0.984 . S
H991 N978 0.985 . S
C992 C993 1.363 . S
C992 C998 1.379 . S
C992 N1000 1.356 . S
C993 C992 1.363 . S
C993 C999 1.363 . S
C994 C995 1.363 . S
C994 C999 1.379 . S
C994 N1001 1.356 . S
C995 C994 1.363 . S
C995 C998 1.363 . S
N996 C998 1.356 . S
N996 H1008 0.984 . S
N996 H1009 0.985 . S
N997 C999 1.356 . S
N997 H1002 0.984 . S
N997 H1003 0.985 . S
C998 C992 1.379 . S
C998 C995 1.363 . S
C998 N996 1.356 . S
C999 C993 1.363 . S
C999 C994 1.379 . S
C999 N997 1.356 . S
N1000 C992 1.356 . S
N1000 H1006 0.984 . S
N1000 H1007 0.984 . S
N1001 C994 1.356 . S
N1001 H1004 0.984 . S
N1001 H1005 0.985 . S
H1002 N997 0.984 . S
H1003 N997 0.985 . S
H1004 N1001 0.984 . S
H1005 N1001 0.985 . S
H1006 N1000 0.984 . S
H1007 N1000 0.984 . S
H1008 N996 0.984 . S
H1009 N996 0.985 . S
C1010 C1011 1.363 . S
C1010 C1016 1.379 . S
C1010 N1018 1.356 . S
C1011 C1010 1.363 . S
C1011 C1017 1.363 . S
C1012 C1013 1.363 . S
C1012 C1017 1.379 . S
C1012 N1019 1.356 . S
C1013 C1012 1.363 . S
C1013 C1016 1.363 . S
N1014 C1016 1.356 . S
N1014 H1026 0.984 . S
N1014 H1027 0.985 . S
N1015 C1017 1.356 . S
N1015 H1020 0.984 . S
N1015 H1021 0.985 . S
C1016 C1010 1.379 . S
C1016 C1013 1.363 . S
C1016 N1014 1.356 . S
C1017 C1011 1.363 . S
C1017 C1012 1.379 . S
C1017 N1015 1.356 . S
N1018 C1010 1.356 . S
N1018 H1024 0.984 . S
N1018 H1025 0.984 . S
N1019 C1012 1.356 . S
N1019 H1022 0.984 1_565 S
N1019 H1023 0.985 . S
H1020 N1015 0.984 . S
H1021 N1015 0.985 . S
H1022 N1019 0.984 1_545 S
H1023 N1019 0.985 . S
H1024 N1018 0.984 . S
H1025 N1018 0.984 . S
H1026 N1014 0.984 . S
H1027 N1014 0.985 . S
C1028 C1029 1.363 . S
C1028 C1034 1.379 . S
C1028 N1036 1.356 . S
C1029 C1028 1.363 . S
C1029 C1035 1.363 . S
C1030 C1031 1.363 . S
C1030 C1035 1.379 . S
C1030 N1037 1.356 . S
C1031 C1030 1.363 . S
C1031 C1034 1.363 . S
N1032 C1034 1.356 . S
N1032 H1044 0.984 . S
N1032 H1045 0.985 . S
N1033 C1035 1.356 . S
N1033 H1038 0.984 . S
N1033 H1039 0.985 . S
C1034 C1028 1.379 . S
C1034 C1031 1.363 . S
C1034 N1032 1.356 . S
C1035 C1029 1.363 . S
C1035 C1030 1.379 . S
C1035 N1033 1.356 . S
N1036 C1028 1.356 . S
N1036 H1042 0.984 . S
N1036 H1043 0.984 1_565 S
N1037 C1030 1.356 . S
N1037 H1040 0.984 . S
N1037 H1041 0.985 . S
H1038 N1033 0.984 . S
H1039 N1033 0.985 . S
H1040 N1037 0.984 . S
H1041 N1037 0.985 . S
H1042 N1036 0.984 . S
H1043 N1036 0.984 1_545 S
H1044 N1032 0.984 . S
H1045 N1032 0.985 . S
C1046 C1047 1.363 . S
C1046 C1052 1.379 . S
C1046 N1054 1.356 . S
C1047 C1046 1.363 . S
C1047 C1053 1.363 . S
C1048 C1049 1.363 . S
C1048 C1053 1.379 . S
C1048 N1055 1.356 . S
C1049 C1048 1.363 . S
C1049 C1052 1.363 . S
N1050 C1052 1.356 . S
N1050 H1062 0.984 . S
N1050 H1063 0.985 . S
N1051 C1053 1.356 . S
N1051 H1056 0.984 . S
N1051 H1057 0.985 . S
C1052 C1046 1.379 . S
C1052 C1049 1.363 . S
C1052 N1050 1.356 . S
C1053 C1047 1.363 . S
C1053 C1048 1.379 . S
C1053 N1051 1.356 . S
N1054 C1046 1.356 . S
N1054 H1060 0.984 . S
N1054 H1061 0.984 . S
N1055 C1048 1.356 . S
N1055 H1058 0.984 . S
N1055 H1059 0.985 . S
H1056 N1051 0.984 . S
H1057 N1051 0.985 . S
H1058 N1055 0.984 . S
H1059 N1055 0.985 . S
H1060 N1054 0.984 . S
H1061 N1054 0.984 . S
H1062 N1050 0.984 . S
H1063 N1050 0.985 . S
C1064 C1065 1.363 . S
C1064 C1070 1.379 . S
C1064 N1072 1.356 . S
C1065 C1064 1.363 . S
C1065 C1071 1.363 . S
C1066 C1067 1.363 . S
C1066 C1071 1.379 . S
C1066 N1073 1.356 . S
C1067 C1066 1.363 . S
C1067 C1070 1.363 . S
N1068 C1070 1.356 . S
N1068 H1080 0.984 . S
N1068 H1081 0.985 . S
N1069 C1071 1.356 . S
N1069 H1074 0.984 . S
N1069 H1075 0.985 . S
C1070 C1064 1.379 . S
C1070 C1067 1.363 . S
C1070 N1068 1.356 . S
C1071 C1065 1.363 . S
C1071 C1066 1.379 . S
C1071 N1069 1.356 . S
N1072 C1064 1.356 . S
N1072 H1078 0.984 . S
N1072 H1079 0.984 . S
N1073 C1066 1.356 . S
N1073 H1076 0.984 . S
N1073 H1077 0.985 . S
H1074 N1069 0.984 . S
H1075 N1069 0.985 . S
H1076 N1073 0.984 . S
H1077 N1073 0.985 . S
H1078 N1072 0.984 . S
H1079 N1072 0.984 . S
H1080 N1068 0.984 . S
H1081 N1068 0.985 . S
C1082 C1083 1.363 . S
C1082 C1088 1.379 . S
C1082 N1090 1.356 . S
C1083 C1082 1.363 . S
C1083 C1089 1.363 . S
C1084 C1085 1.363 . S
C1084 C1089 1.379 . S
C1084 N1091 1.356 . S
C1085 C1084 1.363 . S
C1085 C1088 1.363 . S
N1086 C1088 1.356 . S
N1086 H1098 0.984 . S
N1086 H1099 0.985 . S
N1087 C1089 1.356 . S
N1087 H1092 0.984 . S
N1087 H1093 0.985 . S
C1088 C1082 1.379 . S
C1088 C1085 1.363 . S
C1088 N1086 1.356 . S
C1089 C1083 1.363 . S
C1089 C1084 1.379 . S
C1089 N1087 1.356 . S
N1090 C1082 1.356 . S
N1090 H1096 0.984 . S
N1090 H1097 0.984 1_545 S
N1091 C1084 1.356 . S
N1091 H1094 0.984 . S
N1091 H1095 0.985 . S
H1092 N1087 0.984 . S
H1093 N1087 0.985 . S
H1094 N1091 0.984 . S
H1095 N1091 0.985 . S
H1096 N1090 0.984 . S
H1097 N1090 0.984 1_565 S
H1098 N1086 0.984 . S
H1099 N1086 0.985 . S
C1100 C1101 1.363 . S
C1100 C1106 1.379 . S
C1100 N1108 1.356 . S
C1101 C1100 1.363 . S
C1101 C1107 1.363 . S
C1102 C1103 1.363 . S
C1102 C1107 1.379 . S
C1102 N1109 1.356 . S
C1103 C1102 1.363 . S
C1103 C1106 1.363 . S
N1104 C1106 1.356 . S
N1104 H1116 0.984 . S
N1104 H1117 0.985 1_545 S
N1105 C1107 1.356 . S
N1105 H1110 0.984 . S
N1105 H1111 0.985 . S
C1106 C1100 1.379 . S
C1106 C1103 1.363 . S
C1106 N1104 1.356 . S
C1107 C1101 1.363 . S
C1107 C1102 1.379 . S
C1107 N1105 1.356 . S
N1108 C1100 1.356 . S
N1108 H1114 0.984 . S
N1108 H1115 0.984 . S
N1109 C1102 1.356 . S
N1109 H1112 0.984 . S
N1109 H1113 0.985 . S
H1110 N1105 0.984 . S
H1111 N1105 0.985 . S
H1112 N1109 0.984 . S
H1113 N1109 0.985 . S
H1114 N1108 0.984 . S
H1115 N1108 0.984 . S
H1116 N1104 0.984 . S
H1117 N1104 0.985 1_565 S
C1118 C1119 1.363 . S
C1118 C1124 1.379 . S
C1118 N1126 1.356 . S
C1119 C1118 1.363 . S
C1119 C1125 1.363 . S
C1120 C1121 1.363 . S
C1120 C1125 1.379 . S
C1120 N1127 1.356 . S
C1121 C1120 1.363 . S
C1121 C1124 1.363 . S
N1122 C1124 1.356 . S
N1122 H1134 0.984 . S
N1122 H1135 0.985 . S
N1123 C1125 1.356 . S
N1123 H1128 0.984 . S
N1123 H1129 0.985 . S
C1124 C1118 1.379 . S
C1124 C1121 1.363 . S
C1124 N1122 1.356 . S
C1125 C1119 1.363 . S
C1125 C1120 1.379 . S
C1125 N1123 1.356 . S
N1126 C1118 1.356 . S
N1126 H1132 0.984 . S
N1126 H1133 0.984 . S
N1127 C1120 1.356 . S
N1127 H1130 0.984 . S
N1127 H1131 0.985 . S
H1128 N1123 0.984 . S
H1129 N1123 0.985 . S
H1130 N1127 0.984 . S
H1131 N1127 0.985 . S
H1132 N1126 0.984 . S
H1133 N1126 0.984 . S
H1134 N1122 0.984 . S
H1135 N1122 0.985 . S
C1136 C1137 1.363 . S
C1136 C1142 1.379 . S
C1136 N1144 1.356 . S
C1137 C1136 1.363 . S
C1137 C1143 1.363 . S
C1138 C1139 1.363 . S
C1138 C1143 1.379 . S
C1138 N1145 1.356 . S
C1139 C1138 1.363 . S
C1139 C1142 1.363 . S
N1140 C1142 1.356 . S
N1140 H1152 0.984 . S
N1140 H1153 0.985 . S
N1141 C1143 1.356 . S
N1141 H1146 0.984 . S
N1141 H1147 0.985 . S
C1142 C1136 1.379 . S
C1142 C1139 1.363 . S
C1142 N1140 1.356 . S
C1143 C1137 1.363 . S
C1143 C1138 1.379 . S
C1143 N1141 1.356 . S
N1144 C1136 1.356 . S
N1144 H1150 0.984 . S
N1144 H1151 0.984 . S
N1145 C1138 1.356 . S
N1145 H1148 0.984 . S
N1145 H1149 0.985 . S
H1146 N1141 0.984 . S
H1147 N1141 0.985 . S
H1148 N1145 0.984 . S
H1149 N1145 0.985 . S
H1150 N1144 0.984 . S
H1151 N1144 0.984 . S
H1152 N1140 0.984 . S
H1153 N1140 0.985 . S
C1154 C1155 1.363 . S
C1154 C1160 1.379 . S
C1154 N1162 1.356 . S
C1155 C1154 1.363 . S
C1155 C1161 1.363 . S
C1156 C1157 1.363 . S
C1156 C1161 1.379 . S
C1156 N1163 1.356 . S
C1157 C1156 1.363 . S
C1157 C1160 1.363 . S
N1158 C1160 1.356 . S
N1158 H1170 0.984 . S
N1158 H1171 0.985 1_565 S
N1159 C1161 1.356 . S
N1159 H1164 0.984 . S
N1159 H1165 0.985 . S
C1160 C1154 1.379 . S
C1160 C1157 1.363 . S
C1160 N1158 1.356 . S
C1161 C1155 1.363 . S
C1161 C1156 1.379 . S
C1161 N1159 1.356 . S
N1162 C1154 1.356 . S
N1162 H1168 0.984 . S
N1162 H1169 0.984 . S
N1163 C1156 1.356 . S
N1163 H1166 0.984 . S
N1163 H1167 0.985 . S
H1164 N1159 0.984 . S
H1165 N1159 0.985 . S
H1166 N1163 0.984 . S
H1167 N1163 0.985 . S
H1168 N1162 0.984 . S
H1169 N1162 0.984 . S
H1170 N1158 0.984 . S
H1171 N1158 0.985 1_545 S
C1172 C1173 1.363 . S
C1172 C1178 1.379 . S
C1172 N1180 1.356 . S
C1173 C1172 1.363 . S
C1173 C1179 1.363 . S
C1174 C1175 1.363 . S
C1174 C1179 1.379 . S
C1174 N1181 1.356 . S
C1175 C1174 1.363 . S
C1175 C1178 1.363 . S
N1176 C1178 1.356 . S
N1176 H1188 0.984 . S
N1176 H1189 0.985 1_565 S
N1177 C1179 1.356 . S
N1177 H1182 0.984 . S
N1177 H1183 0.985 . S
C1178 C1172 1.379 . S
C1178 C1175 1.363 . S
C1178 N1176 1.356 . S
C1179 C1173 1.363 . S
C1179 C1174 1.379 . S
C1179 N1177 1.356 . S
N1180 C1172 1.356 . S
N1180 H1186 0.984 . S
N1180 H1187 0.984 . S
N1181 C1174 1.356 . S
N1181 H1184 0.984 . S
N1181 H1185 0.985 . S
H1182 N1177 0.984 . S
H1183 N1177 0.985 . S
H1184 N1181 0.984 . S
H1185 N1181 0.985 . S
H1186 N1180 0.984 . S
H1187 N1180 0.984 . S
H1188 N1176 0.984 . S
H1189 N1176 0.985 1_545 S
C1190 C1191 1.363 . S
C1190 C1196 1.379 . S
C1190 N1198 1.356 . S
C1191 C1190 1.363 . S
C1191 C1197 1.363 . S
C1192 C1193 1.363 . S
C1192 C1197 1.379 . S
C1192 N1199 1.356 . S
C1193 C1192 1.363 . S
C1193 C1196 1.363 . S
N1194 C1196 1.356 . S
N1194 H1206 0.984 . S
N1194 H1207 0.985 . S
N1195 C1197 1.356 . S
N1195 H1200 0.984 . S
N1195 H1201 0.985 . S
C1196 C1190 1.379 . S
C1196 C1193 1.363 . S
C1196 N1194 1.356 . S
C1197 C1191 1.363 . S
C1197 C1192 1.379 . S
C1197 N1195 1.356 . S
N1198 C1190 1.356 . S
N1198 H1204 0.984 . S
N1198 H1205 0.984 . S
N1199 C1192 1.356 . S
N1199 H1202 0.984 . S
N1199 H1203 0.985 . S
H1200 N1195 0.984 . S
H1201 N1195 0.985 . S
H1202 N1199 0.984 . S
H1203 N1199 0.985 . S
H1204 N1198 0.984 . S
H1205 N1198 0.984 . S
H1206 N1194 0.984 . S
H1207 N1194 0.985 . S
C1208 C1209 1.363 . S
C1208 C1214 1.379 . S
C1208 N1216 1.356 . S
C1209 C1208 1.363 . S
C1209 C1215 1.363 . S
C1210 C1211 1.363 . S
C1210 C1215 1.379 . S
C1210 N1217 1.356 . S
C1211 C1210 1.363 . S
C1211 C1214 1.363 . S
N1212 C1214 1.356 . S
N1212 H1224 0.984 . S
N1212 H1225 0.985 . S
N1213 C1215 1.356 . S
N1213 H1218 0.984 . S
N1213 H1219 0.985 . S
C1214 C1208 1.379 . S
C1214 C1211 1.363 . S
C1214 N1212 1.356 . S
C1215 C1209 1.363 . S
C1215 C1210 1.379 . S
C1215 N1213 1.356 . S
N1216 C1208 1.356 . S
N1216 H1222 0.984 . S
N1216 H1223 0.984 . S
N1217 C1210 1.356 . S
N1217 H1220 0.984 . S
N1217 H1221 0.985 . S
H1218 N1213 0.984 . S
H1219 N1213 0.985 . S
H1220 N1217 0.984 . S
H1221 N1217 0.985 . S
H1222 N1216 0.984 . S
H1223 N1216 0.984 . S
H1224 N1212 0.984 . S
H1225 N1212 0.985 . S
C1226 C1227 1.363 . S
C1226 C1232 1.379 . S
C1226 N1234 1.356 . S
C1227 C1226 1.363 . S
C1227 C1233 1.363 . S
C1228 C1229 1.363 . S
C1228 C1233 1.379 . S
C1228 N1235 1.356 . S
C1229 C1228 1.363 . S
C1229 C1232 1.363 . S
N1230 C1232 1.356 . S
N1230 H1242 0.984 . S
N1230 H1243 0.985 . S
N1231 C1233 1.356 . S
N1231 H1236 0.984 . S
N1231 H1237 0.985 . S
C1232 C1226 1.379 . S
C1232 C1229 1.363 . S
C1232 N1230 1.356 . S
C1233 C1227 1.363 . S
C1233 C1228 1.379 . S
C1233 N1231 1.356 . S
N1234 C1226 1.356 . S
N1234 H1240 0.984 . S
N1234 H1241 0.984 1_545 S
N1235 C1228 1.356 . S
N1235 H1238 0.984 . S
N1235 H1239 0.985 . S
H1236 N1231 0.984 . S
H1237 N1231 0.985 . S
H1238 N1235 0.984 . S
H1239 N1235 0.985 . S
H1240 N1234 0.984 . S
H1241 N1234 0.984 1_565 S
H1242 N1230 0.984 . S
H1243 N1230 0.985 . S
C1244 C1245 1.363 . S
C1244 C1250 1.379 . S
C1244 N1252 1.356 . S
C1245 C1244 1.363 . S
C1245 C1251 1.363 . S
C1246 C1247 1.363 . S
C1246 C1251 1.379 . S
C1246 N1253 1.356 . S
C1247 C1246 1.363 . S
C1247 C1250 1.363 . S
N1248 C1250 1.356 . S
N1248 H1260 0.984 . S
N1248 H1261 0.985 . S
N1249 C1251 1.356 . S
N1249 H1254 0.984 . S
N1249 H1255 0.985 . S
C1250 C1244 1.379 . S
C1250 C1247 1.363 . S
C1250 N1248 1.356 . S
C1251 C1245 1.363 . S
C1251 C1246 1.379 . S
C1251 N1249 1.356 . S
N1252 C1244 1.356 . S
N1252 H1258 0.984 . S
N1252 H1259 0.984 . S
N1253 C1246 1.356 . S
N1253 H1256 0.984 1_545 S
N1253 H1257 0.985 . S
H1254 N1249 0.984 . S
H1255 N1249 0.985 . S
H1256 N1253 0.984 1_565 S
H1257 N1253 0.985 . S
H1258 N1252 0.984 . S
H1259 N1252 0.984 . S
H1260 N1248 0.984 . S
H1261 N1248 0.985 . S
C1262 C1263 1.363 . S
C1262 C1268 1.379 . S
C1262 N1270 1.356 . S
C1263 C1262 1.363 . S
C1263 C1269 1.363 . S
C1264 C1265 1.363 . S
C1264 C1269 1.379 . S
C1264 N1271 1.356 . S
C1265 C1264 1.363 . S
C1265 C1268 1.363 . S
N1266 C1268 1.356 . S
N1266 H1278 0.984 . S
N1266 H1279 0.985 . S
N1267 C1269 1.356 . S
N1267 H1272 0.984 . S
N1267 H1273 0.985 . S
C1268 C1262 1.379 . S
C1268 C1265 1.363 . S
C1268 N1266 1.356 . S
C1269 C1263 1.363 . S
C1269 C1264 1.379 . S
C1269 N1267 1.356 . S
N1270 C1262 1.356 . S
N1270 H1276 0.984 . S
N1270 H1277 0.984 . S
N1271 C1264 1.356 . S
N1271 H1274 0.984 . S
N1271 H1275 0.985 . S
H1272 N1267 0.984 . S
H1273 N1267 0.985 . S
H1274 N1271 0.984 . S
H1275 N1271 0.985 . S
H1276 N1270 0.984 . S
H1277 N1270 0.984 . S
H1278 N1266 0.984 . S
H1279 N1266 0.985 . S
C1280 C1281 1.363 . S
C1280 C1286 1.379 . S
C1280 N1288 1.356 . S
C1281 C1280 1.363 . S
C1281 C1287 1.363 . S
C1282 C1283 1.363 . S
C1282 C1287 1.379 . S
C1282 N1289 1.356 . S
C1283 C1282 1.363 . S
C1283 C1286 1.363 . S
N1284 C1286 1.356 . S
N1284 H1296 0.984 . S
N1284 H1297 0.985 . S
N1285 C1287 1.356 . S
N1285 H1290 0.984 . S
N1285 H1291 0.985 . S
C1286 C1280 1.379 . S
C1286 C1283 1.363 . S
C1286 N1284 1.356 . S
C1287 C1281 1.363 . S
C1287 C1282 1.379 . S
C1287 N1285 1.356 . S
N1288 C1280 1.356 . S
N1288 H1294 0.984 . S
N1288 H1295 0.984 . S
N1289 C1282 1.356 . S
N1289 H1292 0.984 1_565 S
N1289 H1293 0.985 1_565 S
H1290 N1285 0.984 . S
H1291 N1285 0.985 . S
H1292 N1289 0.984 1_545 S
H1293 N1289 0.985 1_545 S
H1294 N1288 0.984 . S
H1295 N1288 0.984 . S
H1296 N1284 0.984 . S
H1297 N1284 0.985 . S
C1298 C1299 1.363 . S
C1298 C1304 1.379 . S
C1298 N1306 1.356 . S
C1299 C1298 1.363 . S
C1299 C1305 1.363 . S
C1300 C1301 1.363 . S
C1300 C1305 1.379 . S
C1300 N1307 1.356 . S
C1301 C1300 1.363 . S
C1301 C1304 1.363 . S
N1302 C1304 1.356 . S
N1302 H1314 0.984 . S
N1302 H1315 0.985 . S
N1303 C1305 1.356 . S
N1303 H1308 0.984 . S
N1303 H1309 0.985 . S
C1304 C1298 1.379 . S
C1304 C1301 1.363 . S
C1304 N1302 1.356 . S
C1305 C1299 1.363 . S
C1305 C1300 1.379 . S
C1305 N1303 1.356 . S
N1306 C1298 1.356 . S
N1306 H1312 0.984 . S
N1306 H1313 0.984 . S
N1307 C1300 1.356 . S
N1307 H1310 0.984 . S
N1307 H1311 0.985 . S
H1308 N1303 0.984 . S
H1309 N1303 0.985 . S
H1310 N1307 0.984 . S
H1311 N1307 0.985 . S
H1312 N1306 0.984 . S
H1313 N1306 0.984 . S
H1314 N1302 0.984 . S
H1315 N1302 0.985 . S
C1316 C1317 1.363 . S
C1316 C1322 1.379 . S
C1316 N1324 1.356 . S
C1317 C1316 1.363 . S
C1317 C1323 1.363 . S
C1318 C1319 1.363 . S
C1318 C1323 1.379 . S
C1318 N1325 1.356 . S
C1319 C1318 1.363 . S
C1319 C1322 1.363 . S
N1320 C1322 1.356 . S
N1320 H1332 0.984 . S
N1320 H1333 0.985 . S
N1321 C1323 1.356 . S
N1321 H1326 0.984 . S
N1321 H1327 0.985 . S
C1322 C1316 1.379 . S
C1322 C1319 1.363 . S
C1322 N1320 1.356 . S
C1323 C1317 1.363 . S
C1323 C1318 1.379 . S
C1323 N1321 1.356 . S
N1324 C1316 1.356 . S
N1324 H1330 0.984 . S
N1324 H1331 0.984 . S
N1325 C1318 1.356 . S
N1325 H1328 0.984 . S
N1325 H1329 0.985 . S
H1326 N1321 0.984 . S
H1327 N1321 0.985 . S
H1328 N1325 0.984 . S
H1329 N1325 0.985 . S
H1330 N1324 0.984 . S
H1331 N1324 0.984 . S
H1332 N1320 0.984 . S
H1333 N1320 0.985 . S
C1334 C1335 1.363 . S
C1334 C1340 1.379 . S
C1334 N1342 1.356 . S
C1335 C1334 1.363 . S
C1335 C1341 1.363 . S
C1336 C1337 1.363 . S
C1336 C1341 1.379 . S
C1336 N1343 1.356 . S
C1337 C1336 1.363 . S
C1337 C1340 1.363 . S
N1338 C1340 1.356 . S
N1338 H1350 0.984 . S
N1338 H1351 0.985 . S
N1339 C1341 1.356 . S
N1339 H1344 0.984 1_565 S
N1339 H1345 0.985 1_565 S
C1340 C1334 1.379 . S
C1340 C1337 1.363 . S
C1340 N1338 1.356 . S
C1341 C1335 1.363 . S
C1341 C1336 1.379 . S
C1341 N1339 1.356 . S
N1342 C1334 1.356 . S
N1342 H1348 0.984 . S
N1342 H1349 0.984 . S
N1343 C1336 1.356 . S
N1343 H1346 0.984 . S
N1343 H1347 0.985 . S
H1344 N1339 0.984 1_545 S
H1345 N1339 0.985 1_545 S
H1346 N1343 0.984 . S
H1347 N1343 0.985 . S
H1348 N1342 0.984 . S
H1349 N1342 0.984 . S
H1350 N1338 0.984 . S
H1351 N1338 0.985 . S
C1352 C1353 1.363 . S
C1352 C1358 1.379 . S
C1352 N1360 1.356 . S
C1353 C1352 1.363 . S
C1353 C1359 1.363 . S
C1354 C1355 1.363 . S
C1354 C1359 1.379 . S
C1354 N1361 1.356 . S
C1355 C1354 1.363 . S
C1355 C1358 1.363 . S
N1356 C1358 1.356 . S
N1356 H1368 0.984 1_545 S
N1356 H1369 0.985 1_545 S
N1357 C1359 1.356 . S
N1357 H1362 0.984 . S
N1357 H1363 0.985 . S
C1358 C1352 1.379 . S
C1358 C1355 1.363 . S
C1358 N1356 1.356 . S
C1359 C1353 1.363 . S
C1359 C1354 1.379 . S
C1359 N1357 1.356 . S
N1360 C1352 1.356 . S
N1360 H1366 0.984 . S
N1360 H1367 0.984 . S
N1361 C1354 1.356 . S
N1361 H1364 0.984 . S
N1361 H1365 0.985 . S
H1362 N1357 0.984 . S
H1363 N1357 0.985 . S
H1364 N1361 0.984 . S
H1365 N1361 0.985 . S
H1366 N1360 0.984 . S
H1367 N1360 0.984 . S
H1368 N1356 0.984 1_565 S
H1369 N1356 0.985 1_565 S
C1370 C1371 1.363 . S
C1370 C1376 1.379 . S
C1370 N1378 1.356 . S
C1371 C1370 1.363 . S
C1371 C1377 1.363 . S
C1372 C1373 1.363 . S
C1372 C1377 1.379 . S
C1372 N1379 1.356 . S
C1373 C1372 1.363 . S
C1373 C1376 1.363 . S
N1374 C1376 1.356 . S
N1374 H1386 0.984 . S
N1374 H1387 0.985 . S
N1375 C1377 1.356 . S
N1375 H1380 0.984 . S
N1375 H1381 0.985 . S
C1376 C1370 1.379 . S
C1376 C1373 1.363 . S
C1376 N1374 1.356 . S
C1377 C1371 1.363 . S
C1377 C1372 1.379 . S
C1377 N1375 1.356 . S
N1378 C1370 1.356 . S
N1378 H1384 0.984 . S
N1378 H1385 0.984 . S
N1379 C1372 1.356 . S
N1379 H1382 0.984 . S
N1379 H1383 0.985 . S
H1380 N1375 0.984 . S
H1381 N1375 0.985 . S
H1382 N1379 0.984 . S
H1383 N1379 0.985 . S
H1384 N1378 0.984 . S
H1385 N1378 0.984 . S
H1386 N1374 0.984 . S
H1387 N1374 0.985 . S
C1388 C1389 1.363 . S
C1388 C1394 1.379 . S
C1388 N1396 1.356 . S
C1389 C1388 1.363 . S
C1389 C1395 1.363 . S
C1390 C1391 1.363 . S
C1390 C1395 1.379 . S
C1390 N1397 1.356 . S
C1391 C1390 1.363 . S
C1391 C1394 1.363 . S
N1392 C1394 1.356 . S
N1392 H1404 0.984 . S
N1392 H1405 0.985 . S
N1393 C1395 1.356 . S
N1393 H1398 0.984 . S
N1393 H1399 0.985 . S
C1394 C1388 1.379 . S
C1394 C1391 1.363 . S
C1394 N1392 1.356 . S
C1395 C1389 1.363 . S
C1395 C1390 1.379 . S
C1395 N1393 1.356 . S
N1396 C1388 1.356 . S
N1396 H1402 0.984 . S
N1396 H1403 0.984 . S
N1397 C1390 1.356 . S
N1397 H1400 0.984 . S
N1397 H1401 0.985 . S
H1398 N1393 0.984 . S
H1399 N1393 0.985 . S
H1400 N1397 0.984 . S
H1401 N1397 0.985 . S
H1402 N1396 0.984 . S
H1403 N1396 0.984 . S
H1404 N1392 0.984 . S
H1405 N1392 0.985 . S
C1406 C1407 1.363 . S
C1406 C1412 1.379 . S
C1406 N1414 1.356 . S
C1407 C1406 1.363 . S
C1407 C1413 1.363 . S
C1408 C1409 1.363 . S
C1408 C1413 1.379 . S
C1408 N1415 1.356 . S
C1409 C1408 1.363 . S
C1409 C1412 1.363 . S
N1410 C1412 1.356 . S
N1410 H1422 0.984 . S
N1410 H1423 0.985 1_545 S
N1411 C1413 1.356 . S
N1411 H1416 0.984 . S
N1411 H1417 0.985 . S
C1412 C1406 1.379 . S
C1412 C1409 1.363 . S
C1412 N1410 1.356 . S
C1413 C1407 1.363 . S
C1413 C1408 1.379 . S
C1413 N1411 1.356 . S
N1414 C1406 1.356 . S
N1414 H1420 0.984 . S
N1414 H1421 0.984 . S
N1415 C1408 1.356 . S
N1415 H1418 0.984 . S
N1415 H1419 0.985 . S
H1416 N1411 0.984 . S
H1417 N1411 0.985 . S
H1418 N1415 0.984 . S
H1419 N1415 0.985 . S
H1420 N1414 0.984 . S
H1421 N1414 0.984 . S
H1422 N1410 0.984 . S
H1423 N1410 0.985 1_565 S
C1424 C1425 1.363 . S
C1424 C1430 1.379 . S
C1424 N1432 1.356 . S
C1425 C1424 1.363 . S
C1425 C1431 1.363 . S
C1426 C1427 1.363 . S
C1426 C1431 1.379 . S
C1426 N1433 1.356 . S
C1427 C1426 1.363 . S
C1427 C1430 1.363 . S
N1428 C1430 1.356 . S
N1428 H1440 0.984 . S
N1428 H1441 0.985 . S
N1429 C1431 1.356 . S
N1429 H1434 0.984 . S
N1429 H1435 0.985 . S
C1430 C1424 1.379 . S
C1430 C1427 1.363 . S
C1430 N1428 1.356 . S
C1431 C1425 1.363 . S
C1431 C1426 1.379 . S
C1431 N1429 1.356 . S
N1432 C1424 1.356 . S
N1432 H1438 0.984 . S
N1432 H1439 0.984 . S
N1433 C1426 1.356 . S
N1433 H1436 0.984 1_565 S
N1433 H1437 0.985 1_565 S
H1434 N1429 0.984 . S
H1435 N1429 0.985 . S
H1436 N1433 0.984 1_545 S
H1437 N1433 0.985 1_545 S
H1438 N1432 0.984 . S
H1439 N1432 0.984 . S
H1440 N1428 0.984 . S
H1441 N1428 0.985 . S
C1442 C1443 1.363 . S
C1442 C1448 1.379 . S
C1442 N1450 1.356 . S
C1443 C1442 1.363 . S
C1443 C1449 1.363 . S
C1444 C1445 1.363 . S
C1444 C1449 1.379 . S
C1444 N1451 1.356 . S
C1445 C1444 1.363 . S
C1445 C1448 1.363 . S
N1446 C1448 1.356 . S
N1446 H1458 0.984 . S
N1446 H1459 0.985 . S
N1447 C1449 1.356 . S
N1447 H1452 0.984 . S
N1447 H1453 0.985 . S
C1448 C1442 1.379 . S
C1448 C1445 1.363 . S
C1448 N1446 1.356 . S
C1449 C1443 1.363 . S
C1449 C1444 1.379 . S
C1449 N1447 1.356 . S
N1450 C1442 1.356 . S
N1450 H1456 0.984 . S
N1450 H1457 0.984 . S
N1451 C1444 1.356 . S
N1451 H1454 0.984 . S
N1451 H1455 0.985 . S
H1452 N1447 0.984 . S
H1453 N1447 0.985 . S
H1454 N1451 0.984 . S
H1455 N1451 0.985 . S
H1456 N1450 0.984 . S
H1457 N1450 0.984 . S
H1458 N1446 0.984 . S
H1459 N1446 0.985 . S
C1460 C1461 1.363 . S
C1460 C1466 1.379 . S
C1460 N1468 1.356 . S
C1461 C1460 1.363 . S
C1461 C1467 1.363 . S
C1462 C1463 1.363 . S
C1462 C1467 1.379 . S
C1462 N1469 1.356 . S
C1463 C1462 1.363 . S
C1463 C1466 1.363 . S
N1464 C1466 1.356 . S
N1464 H1476 0.984 . S
N1464 H1477 0.985 . S
N1465 C1467 1.356 . S
N1465 H1470 0.984 . S
N1465 H1471 0.985 . S
C1466 C1460 1.379 . S
C1466 C1463 1.363 . S
C1466 N1464 1.356 . S
C1467 C1461 1.363 . S
C1467 C1462 1.379 . S
C1467 N1465 1.356 . S
N1468 C1460 1.356 . S
N1468 H1474 0.984 . S
N1468 H1475 0.984 . S
N1469 C1462 1.356 . S
N1469 H1472 0.984 . S
N1469 H1473 0.985 . S
H1470 N1465 0.984 . S
H1471 N1465 0.985 . S
H1472 N1469 0.984 . S
H1473 N1469 0.985 . S
H1474 N1468 0.984 . S
H1475 N1468 0.984 . S
H1476 N1464 0.984 . S
H1477 N1464 0.985 . S
C1478 C1479 1.363 . S
C1478 C1484 1.379 . S
C1478 N1486 1.356 . S
C1479 C1478 1.363 . S
C1479 C1485 1.363 . S
C1480 C1481 1.363 . S
C1480 C1485 1.379 . S
C1480 N1487 1.356 . S
C1481 C1480 1.363 . S
C1481 C1484 1.363 . S
N1482 C1484 1.356 . S
N1482 H1494 0.984 . S
N1482 H1495 0.985 . S
N1483 C1485 1.356 . S
N1483 H1488 0.984 1_565 S
N1483 H1489 0.985 1_565 S
C1484 C1478 1.379 . S
C1484 C1481 1.363 . S
C1484 N1482 1.356 . S
C1485 C1479 1.363 . S
C1485 C1480 1.379 . S
C1485 N1483 1.356 . S
N1486 C1478 1.356 . S
N1486 H1492 0.984 . S
N1486 H1493 0.984 . S
N1487 C1480 1.356 . S
N1487 H1490 0.984 . S
N1487 H1491 0.985 . S
H1488 N1483 0.984 1_545 S
H1489 N1483 0.985 1_545 S
H1490 N1487 0.984 . S
H1491 N1487 0.985 . S
H1492 N1486 0.984 . S
H1493 N1486 0.984 . S
H1494 N1482 0.984 . S
H1495 N1482 0.985 . S
C1496 C1497 1.363 . S
C1496 C1502 1.379 . S
C1496 N1504 1.356 . S
C1497 C1496 1.363 . S
C1497 C1503 1.363 . S
C1498 C1499 1.363 . S
C1498 C1503 1.379 . S
C1498 N1505 1.356 . S
C1499 C1498 1.363 . S
C1499 C1502 1.363 . S
N1500 C1502 1.356 . S
N1500 H1512 0.984 . S
N1500 H1513 0.985 . S
N1501 C1503 1.356 . S
N1501 H1506 0.984 . S
N1501 H1507 0.985 . S
C1502 C1496 1.379 . S
C1502 C1499 1.363 . S
C1502 N1500 1.356 . S
C1503 C1497 1.363 . S
C1503 C1498 1.379 . S
C1503 N1501 1.356 . S
N1504 C1496 1.356 . S
N1504 H1510 0.984 . S
N1504 H1511 0.984 . S
N1505 C1498 1.356 . S
N1505 H1508 0.984 1_545 S
N1505 H1509 0.985 . S
H1506 N1501 0.984 . S
H1507 N1501 0.985 . S
H1508 N1505 0.984 1_565 S
H1509 N1505 0.985 . S
H1510 N1504 0.984 . S
H1511 N1504 0.984 . S
H1512 N1500 0.984 . S
H1513 N1500 0.985 . S
C1514 C1515 1.363 . S
C1514 C1520 1.379 . S
C1514 N1522 1.356 . S
C1515 C1514 1.363 . S
C1515 C1521 1.363 . S
C1516 C1517 1.363 . S
C1516 C1521 1.379 . S
C1516 N1523 1.356 . S
C1517 C1516 1.363 . S
C1517 C1520 1.363 . S
N1518 C1520 1.356 . S
N1518 H1530 0.984 . S
N1518 H1531 0.985 . S
N1519 C1521 1.356 . S
N1519 H1524 0.984 . S
N1519 H1525 0.985 . S
C1520 C1514 1.379 . S
C1520 C1517 1.363 . S
C1520 N1518 1.356 . S
C1521 C1515 1.363 . S
C1521 C1516 1.379 . S
C1521 N1519 1.356 . S
N1522 C1514 1.356 . S
N1522 H1528 0.984 . S
N1522 H1529 0.984 . S
N1523 C1516 1.356 . S
N1523 H1526 0.984 . S
N1523 H1527 0.985 . S
H1524 N1519 0.984 . S
H1525 N1519 0.985 . S
H1526 N1523 0.984 . S
H1527 N1523 0.985 . S
H1528 N1522 0.984 . S
H1529 N1522 0.984 . S
H1530 N1518 0.984 . S
H1531 N1518 0.985 . S
C1532 C1533 1.363 . S
C1532 C1538 1.379 . S
C1532 N1540 1.356 . S
C1533 C1532 1.363 . S
C1533 C1539 1.363 . S
C1534 C1535 1.363 . S
C1534 C1539 1.379 . S
C1534 N1541 1.356 . S
C1535 C1534 1.363 . S
C1535 C1538 1.363 . S
N1536 C1538 1.356 . S
N1536 H1548 0.984 . S
N1536 H1549 0.985 . S
N1537 C1539 1.356 . S
N1537 H1542 0.984 . S
N1537 H1543 0.985 . S
C1538 C1532 1.379 . S
C1538 C1535 1.363 . S
C1538 N1536 1.356 . S
C1539 C1533 1.363 . S
C1539 C1534 1.379 . S
C1539 N1537 1.356 . S
N1540 C1532 1.356 . S
N1540 H1546 0.984 . S
N1540 H1547 0.984 . S
N1541 C1534 1.356 . S
N1541 H1544 0.984 . S
N1541 H1545 0.985 . S
H1542 N1537 0.984 . S
H1543 N1537 0.985 . S
H1544 N1541 0.984 . S
H1545 N1541 0.985 . S
H1546 N1540 0.984 . S
H1547 N1540 0.984 . S
H1548 N1536 0.984 . S
H1549 N1536 0.985 . S
C1550 C1551 1.363 . S
C1550 C1556 1.379 . S
C1550 N1558 1.356 . S
C1551 C1550 1.363 . S
C1551 C1557 1.363 . S
C1552 C1553 1.363 . S
C1552 C1557 1.379 . S
C1552 N1559 1.356 . S
C1553 C1552 1.363 . S
C1553 C1556 1.363 . S
N1554 C1556 1.356 . S
N1554 H1566 0.984 . S
N1554 H1567 0.985 . S
N1555 C1557 1.356 . S
N1555 H1560 0.984 . S
N1555 H1561 0.985 . S
C1556 C1550 1.379 . S
C1556 C1553 1.363 . S
C1556 N1554 1.356 . S
C1557 C1551 1.363 . S
C1557 C1552 1.379 . S
C1557 N1555 1.356 . S
N1558 C1550 1.356 . S
N1558 H1564 0.984 . S
N1558 H1565 0.984 1_545 S
N1559 C1552 1.356 . S
N1559 H1562 0.984 . S
N1559 H1563 0.985 . S
H1560 N1555 0.984 . S
H1561 N1555 0.985 . S
H1562 N1559 0.984 . S
H1563 N1559 0.985 . S
H1564 N1558 0.984 . S
H1565 N1558 0.984 1_565 S
H1566 N1554 0.984 . S
H1567 N1554 0.985 . S
C417 C5 1.507 . S
C419 C16 1.507 . S
C435 C42 1.507 . S
C437 C31 1.507 . S
C453 C57 1.507 . S
C455 C68 1.507 . S
C471 C83 1.507 . S
C473 C94 1.507 . S
C489 C109 1.507 . S
C491 C122 1.507 . S
C507 C133 1.507 . S
C509 C146 1.507 . S
C525 C159 1.507 . S
C527 C172 1.507 . S
C543 C185 1.507 . S
C545 C198 1.507 . S
C561 C226 1.507 . S
C563 C211 1.507 . S
C579 C250 1.507 . S
C581 C239 1.507 . S
C597 C276 1.507 . S
C599 C263 1.507 . S
C615 C304 1.507 . S
C617 C289 1.507 . S
C633 C330 1.507 . S
C635 C315 1.507 . S
C651 C356 1.507 . S
C653 C341 1.507 . S
C669 C382 1.507 . S
C671 C367 1.507 . S
C687 C406 1.507 . S
C689 C393 1.507 . S
C705 C4 1.494 . S
C707 C166 1.494 . S
C723 C23 1.494 . S
C725 C283 1.494 . S
C741 C30 1.494 . S
C743 C82 1.494 . S
C759 C49 1.494 . S
C761 C413 1.494 . S
C777 C56 1.494 . S
C779 C108 1.494 . S
C795 C225 1.494 . S
C797 C75 1.494 . S
C813 C355 1.494 . S
C815 C101 1.494 . S
C831 C121 1.494 . S
C833 C381 1.494 . S
C849 C140 1.494 . S
C851 C192 1.494 . S
C867 C153 1.494 . S
C869 C303 1.494 . S
C885 C179 1.494 . S
C887 C329 1.494 . S
C903 C205 1.494 . S
C905 C257 1.494 . S
C921 C374 1.494 . S
C923 C218 1.494 . S
C939 C296 1.494 . S
C941 C238 1.494 . S
C957 C270 1.494 . S
C959 C322 1.494 . S
C975 C400 1.494 . S
C977 C348 1.494 . S
C993 C134 1.009 . S
C995 C10 1.009 . S
C1011 C147 1.009 . S
C1013 C17 1.009 . S
C1029 C36 1.009 . S
C1031 C114 1.009 . S
C1047 C127 1.009 . S
C1049 C43 1.009 . S
C1065 C62 1.009 . S
C1067 C186 1.009 . S
C1083 C69 1.009 . S
C1085 C199 1.009 . S
C1101 C160 1.009 . S
C1103 C88 1.009 . S
C1119 C173 1.009 . S
C1121 C95 1.009 . S
C1137 C212 1.009 . S
C1139 C342 1.009 . S
C1155 C361 1.009 . S
C1157 C231 1.009 . S
C1173 C316 1.009 . S
C1175 C244 1.009 . S
C1191 C251 1.009 . S
C1193 C335 1.009 . S
C1209 C394 1.009 . S
C1211 C264 1.009 . S
C1227 C277 1.009 . S
C1229 C407 1.009 . S
C1245 C368 1.009 . S
C1247 C290 1.009 . S
C1263 C387 1.009 . S
C1265 C309 1.009 . S
C1281 C135 1.688 . S
C1283 C3 1.688 1_565 S
C1299 C148 1.688 . S
C1301 C18 1.688 . S
C1317 C107 1.688 . S
C1319 C29 1.688 . S
C1335 C44 1.688 1_565 S
C1337 C120 1.688 . S
C1353 C187 1.688 . S
C1355 C55 1.688 1_545 S
C1371 C200 1.688 . S
C1373 C70 1.688 . S
C1389 C161 1.688 . S
C1391 C81 1.688 . S
C1407 C174 1.688 . S
C1409 C96 1.688 1_545 S
C1425 C343 1.688 . S
C1427 C213 1.688 1_565 S
C1443 C354 1.688 . S
C1445 C224 1.688 . S
C1461 C317 1.688 . S
C1463 C237 1.688 . S
C1479 C252 1.688 1_565 S
C1481 C328 1.688 . S
C1497 C395 1.688 . S
C1499 C265 1.688 1_545 S
C1515 C278 1.688 . S
C1517 C408 1.688 . S
C1533 C369 1.688 . S
C1535 C291 1.688 . S
C1551 C302 1.688 1_545 S
C1553 C380 1.688 . S
