# Generated by pormake.
# Topology usf, (4)-cn, num edge types: 1
# Building blocks:
#     Node 0, Type 0, BuildingBlock: ESEHIV_clean_sbu_0, # of connection points: 4
#     Node 1, Type 0, BuildingBlock: ESEHIV_clean_sbu_0, # of connection points: 4
#     Node 2, Type 0, BuildingBlock: ESEHIV_clean_sbu_0, # of connection points: 4
#     Node 3, Type 0, BuildingBlock: ESEHIV_clean_sbu_0, # of connection points: 4
#     Node 4, Type 0, BuildingBlock: ESEHIV_clean_sbu_0, # of connection points: 4
#     Node 5, Type 0, BuildingBlock: ESEHIV_clean_sbu_0, # of connection points: 4
#     Node 6, Type 0, BuildingBlock: ESEHIV_clean_sbu_0, # of connection points: 4
#     Node 7, Type 0, BuildingBlock: ESEHIV_clean_sbu_0, # of connection points: 4
#     Node 8, Type 0, BuildingBlock: ESEHIV_clean_sbu_0, # of connection points: 4
#     Node 9, Type 0, BuildingBlock: ESEHIV_clean_sbu_0, # of connection points: 4
#     Node 10, Type 0, BuildingBlock: ESEHIV_clean_sbu_0, # of connection points: 4
#     Node 11, Type 0, BuildingBlock: ESEHIV_clean_sbu_0, # of connection points: 4
#     Node 12, Type 0, BuildingBlock: ESEHIV_clean_sbu_0, # of connection points: 4
#     Node 13, Type 0, BuildingBlock: ESEHIV_clean_sbu_0, # of connection points: 4
#     Node 14, Type 0, BuildingBlock: ESEHIV_clean_sbu_0, # of connection points: 4
#     Node 15, Type 0, BuildingBlock: ESEHIV_clean_sbu_0, # of connection points: 4
#     Node 16, Type 0, BuildingBlock: ESEHIV_clean_sbu_0, # of connection points: 4
#     Node 17, Type 0, BuildingBlock: ESEHIV_clean_sbu_0, # of connection points: 4
#     Edge 18, Type (0, 0), BuildingBlock: MIFKUJ_clean_linker_0, # of connection points: 2
#     Edge 19, Type (0, 0), BuildingBlock: MIFKUJ_clean_linker_0, # of connection points: 2
#     Edge 20, Type (0, 0), BuildingBlock: MIFKUJ_clean_linker_0, # of connection points: 2
#     Edge 21, Type (0, 0), BuildingBlock: MIFKUJ_clean_linker_0, # of connection points: 2
#     Edge 22, Type (0, 0), BuildingBlock: MIFKUJ_clean_linker_0, # of connection points: 2
#     Edge 23, Type (0, 0), BuildingBlock: MIFKUJ_clean_linker_0, # of connection points: 2
#     Edge 24, Type (0, 0), BuildingBlock: MIFKUJ_clean_linker_0, # of connection points: 2
#     Edge 25, Type (0, 0), BuildingBlock: MIFKUJ_clean_linker_0, # of connection points: 2
#     Edge 26, Type (0, 0), BuildingBlock: MIFKUJ_clean_linker_0, # of connection points: 2
#     Edge 27, Type (0, 0), BuildingBlock: MIFKUJ_clean_linker_0, # of connection points: 2
#     Edge 28, Type (0, 0), BuildingBlock: MIFKUJ_clean_linker_0, # of connection points: 2
#     Edge 29, Type (0, 0), BuildingBlock: MIFKUJ_clean_linker_0, # of connection points: 2
#     Edge 30, Type (0, 0), BuildingBlock: MIFKUJ_clean_linker_0, # of connection points: 2
#     Edge 31, Type (0, 0), BuildingBlock: MIFKUJ_clean_linker_0, # of connection points: 2
#     Edge 32, Type (0, 0), BuildingBlock: MIFKUJ_clean_linker_0, # of connection points: 2
#     Edge 33, Type (0, 0), BuildingBlock: MIFKUJ_clean_linker_0, # of connection points: 2
#     Edge 34, Type (0, 0), BuildingBlock: MIFKUJ_clean_linker_0, # of connection points: 2
#     Edge 35, Type (0, 0), BuildingBlock: MIFKUJ_clean_linker_0, # of connection points: 2
#     Edge 36, Type (0, 0), BuildingBlock: MIFKUJ_clean_linker_0, # of connection points: 2
#     Edge 37, Type (0, 0), BuildingBlock: MIFKUJ_clean_linker_0, # of connection points: 2
#     Edge 38, Type (0, 0), BuildingBlock: MIFKUJ_clean_linker_0, # of connection points: 2
#     Edge 39, Type (0, 0), BuildingBlock: MIFKUJ_clean_linker_0, # of connection points: 2
#     Edge 40, Type (0, 0), BuildingBlock: MIFKUJ_clean_linker_0, # of connection points: 2
#     Edge 41, Type (0, 0), BuildingBlock: MIFKUJ_clean_linker_0, # of connection points: 2
#     Edge 42, Type (0, 0), BuildingBlock: MIFKUJ_clean_linker_0, # of connection points: 2
#     Edge 43, Type (0, 0), BuildingBlock: MIFKUJ_clean_linker_0, # of connection points: 2
#     Edge 44, Type (0, 0), BuildingBlock: MIFKUJ_clean_linker_0, # of connection points: 2
#     Edge 45, Type (0, 0), BuildingBlock: MIFKUJ_clean_linker_0, # of connection points: 2
#     Edge 46, Type (0, 0), BuildingBlock: MIFKUJ_clean_linker_0, # of connection points: 2
#     Edge 47, Type (0, 0), BuildingBlock: MIFKUJ_clean_linker_0, # of connection points: 2
#     Edge 48, Type (0, 0), BuildingBlock: MIFKUJ_clean_linker_0, # of connection points: 2
#     Edge 49, Type (0, 0), BuildingBlock: MIFKUJ_clean_linker_0, # of connection points: 2
#     Edge 50, Type (0, 0), BuildingBlock: MIFKUJ_clean_linker_0, # of connection points: 2
#     Edge 51, Type (0, 0), BuildingBlock: MIFKUJ_clean_linker_0, # of connection points: 2
#     Edge 52, Type (0, 0), BuildingBlock: MIFKUJ_clean_linker_0, # of connection points: 2
#     Edge 53, Type (0, 0), BuildingBlock: MIFKUJ_clean_linker_0, # of connection points: 2
# Relax obj value: 0.019
# Max RMSD: 0.174
# Mean RMSD: 0.115
data_MOF--net-usf--node1-ESEHIV_clean_sbu_0--edge1-MIFKUJ_clean_linker_0
_symmetry_space_group_name_H-M    P1
_symmetry_Int_Tables_number       1
_symmetry_cell_setting            triclinic
loop_
_symmetry_equiv_pos_as_xyz
'x, y, z'
_cell_length_a     60.989496
_cell_length_b     64.130491
_cell_length_c     42.468472
_cell_angle_alpha  90.0827
_cell_angle_beta   90.201096
_cell_angle_gamma 118.26923
loop_
_atom_site_label
_atom_site_type_symbol
_atom_site_fract_x
_atom_site_fract_y
_atom_site_fract_z
_atom_type_partial_charge
Cu0 Cu 0.04372 0.52928 1.00869 0.0
N1 N 0.02226 0.52239 0.97438 0.0
N2 N 1.00972 0.51822 0.92435 0.0
C3 C 0.02857 0.52211 0.94417 0.0
C4 C 0.9908 0.51612 0.94271 0.0
C5 C 0.99858 0.51862 0.9737 0.0
O6 O 0.07267 0.52584 0.99452 0.0
C7 C 0.03144 0.55954 0.04248 0.0
O8 O 0.0118 0.53906 0.04775 0.0
H9 H 0.04693 0.52552 0.93677 0.0
H10 H 0.98788 0.51812 0.99419 0.0
N11 N 0.02871 0.5068 0.0402 0.0
N12 N 0.02168 0.4914 0.08847 0.0
C13 C 0.03708 0.50946 0.06997 0.0
C14 C 1.00732 0.48626 0.03955 0.0
C15 C 1.00289 0.4767 0.06943 0.0
C16 C 0.0666 0.50506 0.98411 0.0
O17 O 0.0429 0.48931 0.98419 0.0
H18 H 0.05351 0.52504 0.07813 0.0
H19 H 0.9955 0.47908 0.01905 0.0
O20 O 0.04909 0.56009 0.02565 0.0
H21 H 0.97274 0.5131 0.93432 0.0
H22 H 0.98691 0.46044 0.07661 0.0
Cu23 Cu 0.49363 0.51099 0.03505 0.0
N24 N 0.49721 0.48348 0.03828 0.0
N25 N 0.48763 0.44624 0.05155 0.0
C26 C 0.47922 0.46222 0.04804 0.0
C27 C 0.51194 0.45807 0.04344 0.0
C28 C 0.51778 0.48097 0.03538 0.0
O29 O 0.47998 0.51329 0.07775 0.0
C30 C 0.48802 0.50526 0.96939 0.0
O31 O 0.50772 0.50264 0.97535 0.0
H32 H 0.46048 0.45886 0.05316 0.0
H33 H 0.53593 0.49503 0.02896 0.0
N34 N 0.52427 0.53865 0.03062 0.0
N35 N 0.55095 0.57518 0.01424 0.0
C36 C 0.52827 0.55626 0.01031 0.0
C37 C 0.54529 0.54671 0.04791 0.0
C38 C 0.56173 0.5693 0.03794 0.0
C39 C 0.49094 0.50979 0.1017 0.0
O40 O 0.50966 0.50561 0.09614 0.0
H41 H 0.51439 0.55563 0.99383 0.0
H42 H 0.54832 0.53716 0.06689 0.0
O43 O 0.47688 0.50869 0.99304 0.0
H44 H 0.52496 0.45109 0.04443 0.0
H45 H 0.5801 0.58059 0.04752 0.0
Cu46 Cu 0.48742 0.99517 0.01342 0.0
N47 N 0.49477 0.01473 0.97835 0.0
N48 N 0.49434 0.02354 0.92767 0.0
C49 C 0.49059 1.00648 0.94868 0.0
C50 C 0.50171 0.04354 0.94475 0.0
C51 C 0.50179 0.03799 0.97618 0.0
O52 O 0.45907 0.96469 1.00045 0.0
C53 C 0.53451 0.01559 0.03916 0.0
O54 O 0.52937 0.03329 0.03876 0.0
H55 H 0.4842 0.98807 0.94275 0.0
H56 H 0.50573 0.04983 0.99603 0.0
N57 N 0.47665 1.00697 0.04672 0.0
N58 N 0.47059 0.01406 0.09639 0.0
C59 C 0.4803 1.00389 0.07718 0.0
C60 C 0.46424 0.01965 0.04663 0.0
C61 C 0.46024 0.02387 0.07744 0.0
C62 C 0.44085 0.96695 0.98906 0.0
O63 O 0.4426 0.98816 0.98878 0.0
H64 H 0.48975 0.99419 0.08512 0.0
H65 H 0.4586 0.02552 0.02573 0.0
O66 O 0.51844 0.99564 0.0278 0.0
H67 H 0.5057 0.06065 0.93535 0.0
H68 H 0.45088 0.03366 0.08531 0.0
Cu69 Cu 0.51207 1.00428 0.51124 0.0
N70 N 0.49039 0.98971 0.47766 0.0
N71 N 0.47607 0.98367 0.42834 0.0
C72 C 0.49528 0.99693 0.44766 0.0
C73 C 0.45835 0.96743 0.44699 0.0
C74 C 0.46729 0.97117 0.47748 0.0
O75 O 0.54364 1.00452 0.50014 0.0
C76 C 0.49088 0.03337 0.52092 0.0
O77 O 0.47128 0.0126 0.51676 0.0
H78 H 0.51245 0.01201 0.44037 0.0
H79 H 0.45747 0.96133 0.49807 0.0
N80 N 0.49948 0.98692 0.54807 0.0
N81 N 0.48907 0.98023 0.59889 0.0
C82 C 0.50015 0.9967 0.5763 0.0
C83 C 0.48748 0.96337 0.55275 0.0
C84 C 0.48109 0.95919 0.58409 0.0
C85 C 0.54144 0.98412 0.49368 0.0
O86 O 0.5192 0.96568 0.49512 0.0
H87 H 0.50818 0.0156 0.57984 0.0
H88 H 0.48331 0.95011 0.53471 0.0
O89 O 0.5125 0.03483 0.51902 0.0
H90 H 0.4403 0.9538 0.43917 0.0
H91 H 0.47144 0.94195 0.59499 0.0
Cu92 Cu 0.01639 0.5263 0.50274 0.0
N93 N 0.03516 0.53743 0.53969 0.0
N94 N 0.04327 0.5413 0.59126 0.0
C95 C 0.02579 0.53077 0.56875 0.0
C96 C 0.06453 0.55521 0.57584 0.0
C97 C 0.05951 0.55269 0.54396 0.0
O98 O 0.9899 0.49428 0.51281 0.0
C99 C 0.02486 0.57039 0.48338 0.0
O100 O 0.04756 0.57356 0.48754 0.0
H101 H 1.00642 0.51855 0.57325 0.0
H102 H 0.07277 0.56131 0.52534 0.0
N103 N 0.03528 0.52336 0.47038 0.0
N104 N 0.04497 0.5175 0.42176 0.0
C105 C 0.02761 0.51851 0.4403 0.0
C106 C 0.0583 0.52543 0.47103 0.0
C107 C 0.06439 0.52192 0.44094 0.0
C108 C 0.9983 0.48016 0.52071 0.0
O109 O 0.0225 0.48816 0.51992 0.0
H110 H 1.00972 0.51612 0.43218 0.0
H111 H 0.06975 0.52899 0.49187 0.0
O112 O 1.00655 0.54993 0.48864 0.0
H113 H 0.08247 0.56607 0.58678 0.0
H114 H 0.08156 0.52222 0.43384 0.0
Cu115 Cu 0.48667 0.50587 0.53542 0.0
N116 N 0.48704 0.52182 0.49687 0.0
N117 N 0.48456 0.52779 0.44445 0.0
C118 C 0.48389 0.51255 0.46724 0.0
C119 C 0.48841 0.54743 0.46064 0.0
C120 C 0.48993 0.54375 0.49252 0.0
O121 O 0.45908 0.47395 0.52765 0.0
C122 C 0.53747 0.53035 0.54417 0.0
O123 O 0.53149 0.54734 0.54012 0.0
H124 H 0.48084 0.49478 0.4626 0.0
H125 H 0.49316 0.55638 0.51116 0.0
N126 N 0.48003 0.51761 0.57411 0.0
N127 N 0.47607 0.5226 0.62657 0.0
C128 C 0.48175 0.51073 0.60401 0.0
C129 C 0.47308 0.53445 0.57795 0.0
C130 C 0.47067 0.53754 0.60975 0.0
C131 C 0.43775 0.4732 0.5274 0.0
O132 O 0.43655 0.49243 0.53536 0.0
H133 H 0.48701 0.49717 0.60897 0.0
H134 H 0.46984 0.54386 0.55895 0.0
O135 O 0.52013 0.50893 0.54198 0.0
H136 H 0.49047 0.56365 0.45026 0.0
H137 H 0.46544 0.55013 0.61944 0.0
Cu138 Cu 0.70501 0.85391 0.34681 0.0
N139 N 0.68596 0.84208 0.31044 0.0
N140 N 0.67813 0.8355 0.25891 0.0
C141 C 0.69556 0.84674 0.28131 0.0
C142 C 0.6566 0.82315 0.27477 0.0
C143 C 0.66151 0.82723 0.30662 0.0
O144 O 0.73844 0.85986 0.33376 0.0
C145 C 0.67883 0.875 0.37303 0.0
O146 O 0.66214 0.85251 0.37273 0.0
H147 H 0.7152 0.85777 0.27687 0.0
H148 H 0.64828 0.8197 0.32557 0.0
N149 N 0.69367 0.83072 0.37792 0.0
N150 N 0.68736 0.81462 0.42579 0.0
C151 C 0.69623 0.83486 0.40909 0.0
C152 C 0.68273 0.80705 0.37458 0.0
C153 C 0.67884 0.79703 0.40415 0.0
C154 C 0.75168 0.85255 0.34873 0.0
O155 O 0.74591 0.84533 0.37791 0.0
H156 H 0.70528 0.85248 0.41918 0.0
H157 H 0.6783 0.7978 0.35225 0.0
O158 O 0.70048 0.88075 0.36214 0.0
H159 H 0.63858 0.812 0.26425 0.0
H160 H 0.67049 0.77831 0.40925 0.0
Cu161 Cu 0.16112 0.84117 0.34751 0.0
N162 N 0.17701 0.83309 0.31621 0.0
N163 N 0.19008 0.83038 0.26813 0.0
C164 C 0.17893 0.83997 0.28605 0.0
C165 C 0.19538 0.81688 0.28788 0.0
C166 C 0.18732 0.81863 0.31761 0.0
O167 O 0.16117 0.87051 0.33365 0.0
C168 C 0.12949 0.79695 0.37241 0.0
O169 O 0.15124 0.79981 0.38196 0.0
H170 H 0.17133 0.85105 0.27723 0.0
H171 H 0.18848 0.80967 0.33859 0.0
N172 N 0.17939 0.84827 0.38493 0.0
N173 N 0.1877 0.85474 0.43628 0.0
C174 C 0.17103 0.8509 0.41309 0.0
C175 C 0.20222 0.85065 0.39028 0.0
C176 C 0.20744 0.85471 0.422 0.0
C177 C 0.18263 0.8888 0.33404 0.0
O178 O 0.20192 0.88646 0.34324 0.0
H179 H 0.1529 0.84974 0.41639 0.0
H180 H 0.21406 0.8492 0.37248 0.0
O181 O 0.12866 0.81322 0.35585 0.0
H182 H 0.20418 0.8063 0.28127 0.0
H183 H 0.22412 0.8567 0.43372 0.0
Cu184 Cu 0.15973 0.33864 0.34776 0.0
N185 N 0.16473 0.35634 0.31127 0.0
N186 N 0.16394 0.36324 0.25996 0.0
C187 C 0.16054 0.34701 0.28217 0.0
C188 C 0.17071 0.38369 0.27574 0.0
C189 C 0.17102 0.37933 0.30751 0.0
O190 O 0.13 0.30807 0.33887 0.0
C191 C 0.20961 0.35941 0.36298 0.0
O192 O 0.20612 0.37773 0.35716 0.0
H193 H 0.15503 0.32858 0.2775 0.0
H194 H 0.17518 0.39193 0.32648 0.0
N195 N 0.15256 0.35291 0.38157 0.0
N196 N 0.14934 0.36141 0.43165 0.0
C197 C 0.15684 0.34972 0.41173 0.0
C198 C 0.14214 0.36734 0.38233 0.0
C199 C 0.13992 0.37244 0.41337 0.0
C200 C 0.11058 0.31014 0.3326 0.0
O201 O 0.11246 0.33138 0.33341 0.0
H202 H 0.16475 0.3385 0.41895 0.0
H203 H 0.1363 0.37348 0.36187 0.0
O204 O 0.19112 0.3387 0.35947 0.0
H205 H 0.17461 0.40044 0.26518 0.0
H206 H 0.13204 0.38338 0.42185 0.0
Cu207 Cu 0.18835 0.33863 0.84403 0.0
N208 N 0.16577 0.32675 0.81066 0.0
N209 N 0.15085 0.32273 0.7618 0.0
C210 C 0.17111 0.33343 0.7805 0.0
C211 C 0.132 0.30873 0.78094 0.0
C212 C 0.1413 0.31116 0.81113 0.0
O213 O 0.21707 0.33386 0.83262 0.0
C214 C 0.17411 0.37269 0.85577 0.0
O215 O 0.15276 0.35348 0.85158 0.0
H216 H 0.1894 0.3464 0.77263 0.0
H217 H 0.13085 0.3026 0.83202 0.0
N218 N 0.17391 0.32173 0.88065 0.0
N219 N 0.16302 0.31598 0.9314 0.0
C220 C 0.17593 0.33193 0.9089 0.0
C221 C 0.15911 0.29843 0.88515 0.0
C222 C 0.15244 0.29481 0.91644 0.0
C223 C 0.21125 0.31253 0.82514 0.0
O224 O 0.18764 0.29666 0.82569 0.0
H225 H 0.18635 0.35085 0.91245 0.0
H226 H 0.15323 0.285 0.86701 0.0
O227 O 0.19416 0.37112 0.85286 0.0
H228 H 0.1129 0.29756 0.77364 0.0
H229 H 0.14075 0.27783 0.92714 0.0
Cu230 Cu 0.70221 0.83864 0.84162 0.0
N231 N 0.71458 0.82815 0.8087 0.0
N232 N 0.72071 0.82043 0.75922 0.0
C233 C 0.71161 0.83142 0.77808 0.0
C234 C 0.72986 0.80985 0.77885 0.0
C235 C 0.7261 0.81472 0.80947 0.0
O236 O 0.70453 0.86903 0.82849 0.0
C237 C 0.65857 0.7931 0.84115 0.0
O238 O 0.66611 0.79023 0.81334 0.0
H239 H 0.70191 0.84083 0.76991 0.0
H240 H 0.7308 0.8084 0.83072 0.0
N241 N 0.72129 0.84357 0.87788 0.0
N242 N 0.72887 0.84438 0.92939 0.0
C243 C 0.71168 0.84043 0.90695 0.0
C244 C 0.74549 0.84962 0.88193 0.0
C245 C 0.75029 0.85035 0.91387 0.0
C246 C 0.72672 0.88533 0.82349 0.0
O247 O 0.74509 0.8804 0.82779 0.0
H248 H 0.69236 0.83542 0.91153 0.0
H249 H 0.75862 0.853 0.86308 0.0
O250 O 0.66942 0.81344 0.85428 0.0
H251 H 0.73837 0.79915 0.77166 0.0
H252 H 0.76794 0.85443 0.92479 0.0
Cu253 Cu 0.15196 0.8233 0.84961 0.0
N254 N 0.15458 0.84434 0.81787 0.0
N255 N 0.15615 0.85718 0.76868 0.0
C256 C 0.15401 0.83922 0.78714 0.0
C257 C 0.15823 0.87438 0.78876 0.0
C258 C 0.15721 0.86638 0.81915 0.0
O259 O 0.12257 0.79337 0.83782 0.0
C260 C 0.20284 0.84376 0.85616 0.0
O261 O 0.1992 0.8623 0.85378 0.0
H262 H 0.15259 0.8227 0.77867 0.0
H263 H 0.15866 0.87611 0.84053 0.0
N264 N 0.14758 0.83367 0.88897 0.0
N265 N 0.1527 0.84018 0.94077 0.0
C266 C 0.15646 0.82933 0.91576 0.0
C267 C 0.13782 0.84782 0.8972 0.0
C268 C 0.14093 0.85185 0.92923 0.0
C269 C 0.10148 0.79281 0.84113 0.0
O270 O 0.10082 0.81102 0.85433 0.0
H271 H 0.16625 0.819 0.91658 0.0
H272 H 0.12922 0.85487 0.88112 0.0
O273 O 0.18406 0.82317 0.85352 0.0
H274 H 0.16029 0.89149 0.78207 0.0
H275 H 0.13491 0.86245 0.94291 0.0
Cu276 Cu 0.37955 0.1806 0.68503 0.0
N277 N 0.40494 0.1962 0.65597 0.0
N278 N 0.42093 0.20405 0.6076 0.0
C279 C 0.40042 0.19753 0.62524 0.0
C280 C 0.43928 0.20734 0.62808 0.0
C281 C 0.42938 0.20268 0.65808 0.0
O282 O 0.35393 0.15228 0.66425 0.0
C283 C 0.34617 0.19377 0.71434 0.0
O284 O 0.33563 0.17156 0.72345 0.0
H285 H 0.38191 0.19154 0.61569 0.0
H286 H 0.43875 0.20198 0.67942 0.0
N287 N 0.38986 0.17151 0.72183 0.0
N288 N 0.39728 0.16919 0.77302 0.0
C289 C 0.39445 0.18239 0.75015 0.0
C290 C 0.38929 0.15056 0.72728 0.0
C291 C 0.39423 0.14926 0.75859 0.0
C292 C 0.35306 0.13738 0.64343 0.0
O293 O 0.33085 0.12095 0.63465 0.0
H294 H 0.39438 0.19903 0.75417 0.0
H295 H 0.38367 0.1363 0.71042 0.0
O296 O 0.36549 0.20143 0.69706 0.0
H297 H 0.45808 0.21155 0.62164 0.0
H298 H 0.39361 0.13401 0.77031 0.0
Cu299 Cu 0.83281 0.18432 0.68223 0.0
N300 N 0.83921 0.15876 0.68998 0.0
N301 N 0.83191 0.12211 0.70351 0.0
C302 C 0.82239 0.1355 0.69071 0.0
C303 C 0.85591 0.1377 0.71012 0.0
C304 C 0.86022 0.16011 0.70209 0.0
O305 O 0.82149 0.1903 0.72497 0.0
C306 C 0.81557 0.1928 0.6205 0.0
O307 O 0.82277 0.21429 0.63115 0.0
H308 H 0.80305 0.12893 0.6843 0.0
H309 H 0.87711 0.17641 0.70662 0.0
N310 N 0.8629 0.21167 0.67322 0.0
N311 N 0.88803 0.24881 0.65714 0.0
C312 C 0.86637 0.23408 0.67146 0.0
C313 C 0.88323 0.21238 0.65988 0.0
C314 C 0.8988 0.23521 0.65025 0.0
C315 C 0.80974 0.17399 0.74552 0.0
O316 O 0.79911 0.15189 0.73596 0.0
H317 H 0.85251 0.2391 0.67866 0.0
H318 H 0.88569 0.19705 0.65516 0.0
O319 O 0.8147 0.17705 0.64004 0.0
H320 H 0.86935 0.13356 0.72122 0.0
H321 H 0.91577 0.2409 0.63692 0.0
Cu322 Cu 0.83818 0.64638 0.68372 0.0
N323 N 0.84344 0.6339 0.72089 0.0
N324 N 0.84878 0.62974 0.77212 0.0
C325 C 0.8458 0.64321 0.74989 0.0
C326 C 0.84801 0.61106 0.75651 0.0
C327 C 0.84466 0.61366 0.72489 0.0
O328 O 0.84643 0.6793 0.69082 0.0
C329 C 0.7925 0.63667 0.6531 0.0
O330 O 0.80567 0.65862 0.64349 0.0
H331 H 0.84464 0.65923 0.75468 0.0
H332 H 0.84298 0.60153 0.70617 0.0
N333 N 0.85813 0.64546 0.6512 0.0
N334 N 0.8755 0.65137 0.60362 0.0
C335 C 0.8595 0.65456 0.62233 0.0
C336 C 0.87392 0.63628 0.65091 0.0
C337 C 0.88459 0.63979 0.62147 0.0
C338 C 0.86506 0.69661 0.70399 0.0
O339 O 0.86449 0.71672 0.7071 0.0
H340 H 0.84861 0.66302 0.61507 0.0
H341 H 0.87759 0.62779 0.6707 0.0
O342 O 0.80294 0.62792 0.67094 0.0
H343 H 0.84987 0.59664 0.76713 0.0
H344 H 0.89812 0.63445 0.6139 0.0
Cu345 Cu 0.8869 0.70235 0.18542 0.0
N346 N 0.86603 0.68742 0.15116 0.0
N347 N 0.85507 0.6739 0.10211 0.0
C348 C 0.8737 0.68859 0.12124 0.0
C349 C 0.83483 0.66313 0.12061 0.0
C350 C 0.84162 0.67163 0.1509 0.0
O351 O 0.91925 0.70459 0.174 0.0
C352 C 0.87079 0.73776 0.18528 0.0
O353 O 0.85667 0.72538 0.16164 0.0
H354 H 0.89282 0.69927 0.11391 0.0
H355 H 0.82976 0.66628 0.1714 0.0
N356 N 0.87515 0.68329 0.22115 0.0
N357 N 0.8713 0.67258 0.27163 0.0
C358 C 0.88179 0.69063 0.25104 0.0
C359 C 0.8597 0.65984 0.22294 0.0
C360 C 0.8574 0.65316 0.25408 0.0
C361 C 0.91942 0.68477 0.1721 0.0
O362 O 0.89896 0.66531 0.17871 0.0
H363 H 0.89466 0.70873 0.25744 0.0
H364 H 0.85121 0.64825 0.203 0.0
O365 O 0.88664 0.73209 0.19673 0.0
H366 H 0.81652 0.65 0.11279 0.0
H367 H 0.84643 0.63541 0.2631 0.0
Cu368 Cu 0.35588 0.16326 0.19314 0.0
N369 N 0.37904 0.16807 0.22513 0.0
N370 N 0.39597 0.17374 0.27324 0.0
C371 C 0.37677 0.17229 0.2557 0.0
C372 C 0.41094 0.17041 0.25279 0.0
C373 C 0.40048 0.16696 0.22315 0.0
O374 O 0.32295 0.13908 0.20772 0.0
C375 C 0.38166 0.20893 0.17225 0.0
O376 O 0.39845 0.20159 0.17197 0.0
H377 H 0.3609 0.17351 0.26496 0.0
H378 H 0.40788 0.16367 0.20172 0.0
N379 N 0.36344 0.15138 0.15691 0.0
N380 N 0.37061 0.14759 0.10614 0.0
C381 C 0.36367 0.15904 0.12734 0.0
C382 C 0.37017 0.13428 0.1544 0.0
C383 C 0.3747 0.13196 0.12312 0.0
C384 C 0.32252 0.12157 0.22259 0.0
O385 O 0.34346 0.12094 0.22744 0.0
H386 H 0.35944 0.17319 0.12168 0.0
H387 H 0.37192 0.12438 0.17396 0.0
O388 O 0.35979 0.19459 0.18188 0.0
H389 H 0.42827 0.17054 0.25876 0.0
H390 H 0.38045 0.11964 0.11368 0.0
Cu391 Cu 0.82116 0.17166 0.18259 0.0
N392 N 0.8145 0.18354 0.22141 0.0
N393 N 0.81176 0.18966 0.27394 0.0
C394 C 0.81753 0.17775 0.25151 0.0
C395 C 0.80476 0.20336 0.25685 0.0
C396 C 0.80651 0.19965 0.22503 0.0
O397 O 0.85384 0.17347 0.19077 0.0
C398 C 0.7719 0.1395 0.17404 0.0
O399 O 0.771 0.15914 0.18031 0.0
H400 H 0.82423 0.16524 0.25677 0.0
H401 H 0.80216 0.20816 0.20583 0.0
N402 N 0.82343 0.18845 0.14388 0.0
N403 N 0.82428 0.19646 0.09139 0.0
C404 C 0.82037 0.17981 0.11381 0.0
C405 C 0.82931 0.21133 0.14019 0.0
C406 C 0.82985 0.21625 0.10836 0.0
C407 C 0.87053 0.19427 0.19858 0.0
O408 O 0.86465 0.2115 0.19746 0.0
H409 H 0.81582 0.16169 0.10851 0.0
H410 H 0.83319 0.22374 0.15934 0.0
O411 O 0.79309 0.14 0.17476 0.0
H412 H 0.79849 0.21525 0.26641 0.0
H413 H 0.83391 0.23327 0.09859 0.0
H414 H 1.00303 0.49003 0.38879 0.0
H415 H 0.99932 0.48326 0.33192 0.0
H416 H 0.07862 0.52725 0.3223 0.0
H417 H 0.08238 0.53439 0.37927 0.0
H418 H 0.05127 0.53821 0.27956 0.0
H419 H 0.05457 0.46883 0.31617 0.0
H420 H 0.04184 0.43312 0.34862 0.0
H421 H 0.96815 0.40286 0.30924 0.0
H422 H 0.98035 0.43855 0.27685 0.0
H423 H 0.06413 0.51086 0.12301 0.0
H424 H 0.06757 0.5128 0.18029 0.0
H425 H 0.98794 0.47029 0.18787 0.0
H426 H 0.98424 0.46867 0.13039 0.0
H427 H 0.01485 0.45802 0.23157 0.0
H428 H 1.01019 0.5265 0.19619 0.0
H429 H 0.02154 0.56193 0.16364 0.0
H430 H 0.09592 0.59378 0.201 0.0
H431 H 0.08511 0.55836 0.23346 0.0
C432 C 0.01966 0.49832 0.37456 0.0
C433 C 0.043 0.51279 0.38845 0.0
C434 C 0.01754 0.49428 0.34213 0.0
C435 C 0.03872 0.50462 0.323 0.0
C436 C 0.06207 0.51906 0.33675 0.0
C437 C 0.06422 0.52298 0.36925 0.0
C438 C 0.03635 0.5009 0.2885 0.0
C439 C 0.04369 0.52072 0.26903 0.0
C440 C 0.02567 0.47799 0.27494 0.0
C441 C 0.01832 0.45647 0.29431 0.0
C442 C 0.03559 0.45465 0.31462 0.0
C443 C 0.02848 0.43439 0.33296 0.0
C444 C 1.00418 0.41576 0.33105 0.0
C445 C 0.98696 0.41732 0.31072 0.0
C446 C 0.99397 0.43755 0.29234 0.0
C447 C 0.04732 0.50192 0.13679 0.0
C448 C 0.02386 0.48994 0.12209 0.0
C449 C 0.04935 0.50295 0.16951 0.0
C450 C 0.02798 0.49199 0.1882 0.0
C451 C 1.00464 0.4789 0.17375 0.0
C452 C 1.00257 0.47794 0.14092 0.0
C453 C 0.03002 0.49535 0.22272 0.0
C454 C 0.02253 0.4755 0.24215 0.0
C455 C 0.04035 0.51822 0.23632 0.0
C456 C 0.04691 0.53966 0.21701 0.0
C457 C 0.02903 0.54097 0.19727 0.0
C458 C 0.03535 0.56106 0.17886 0.0
C459 C 0.05946 0.58006 0.18017 0.0
C460 C 0.07727 0.57903 0.19997 0.0
C461 C 0.07105 0.55895 0.2184 0.0
H462 H 0.06431 0.5956 0.16589 0.0
H463 H 0.99872 0.40009 0.34527 0.0
H464 H 0.49226 0.49629 0.40831 0.0
H465 H 0.49008 0.49232 0.35079 0.0
H466 H 0.46939 0.54774 0.34416 0.0
H467 H 0.47102 0.55145 0.40148 0.0
H468 H 0.44324 0.51482 0.30158 0.0
H469 H 0.53003 0.55718 0.32811 0.0
H470 H 0.56872 0.56406 0.35524 0.0
H471 H 0.56333 0.50059 0.31409 0.0
H472 H 0.52441 0.49316 0.28703 0.0
H473 H 0.47123 0.53584 0.13333 0.0
H474 H 0.46723 0.53862 0.1909 0.0
H475 H 0.49134 0.48605 0.20496 0.0
H476 H 0.4956 0.48355 0.14845 0.0
H477 H 0.51586 0.51935 0.24395 0.0
H478 H 0.42882 0.47657 0.21774 0.0
H479 H 0.39003 0.4695 0.19073 0.0
H480 H 0.39575 0.53341 0.23081 0.0
H481 H 0.43477 0.54102 0.25776 0.0
C482 C 0.48705 0.50755 0.39477 0.0
C483 C 0.48216 0.52444 0.41015 0.0
C484 C 0.486 0.5054 0.36157 0.0
C485 C 0.47996 0.52 0.34245 0.0
C486 C 0.47424 0.53627 0.35785 0.0
C487 C 0.47543 0.53853 0.39096 0.0
C488 C 0.48015 0.51876 0.30664 0.0
C489 C 0.45929 0.51609 0.28906 0.0
C490 C 0.50078 0.52005 0.28963 0.0
C491 C 0.52418 0.52449 0.30581 0.0
C492 C 0.53701 0.5446 0.32503 0.0
C493 C 0.55899 0.54861 0.34037 0.0
C494 C 0.56844 0.53274 0.33646 0.0
C495 C 0.55596 0.51285 0.31714 0.0
C496 C 0.53395 0.50874 0.30178 0.0
C497 C 0.47514 0.52453 0.14869 0.0
C498 C 0.48376 0.50947 0.13584 0.0
C499 C 0.47294 0.52616 0.18183 0.0
C500 C 0.47909 0.51262 0.20301 0.0
C501 C 0.48672 0.497 0.18982 0.0
C502 C 0.48902 0.49549 0.15711 0.0
C503 C 0.47878 0.51502 0.23872 0.0
C504 C 0.49974 0.51803 0.25637 0.0
C505 C 0.45823 0.51399 0.25568 0.0
C506 C 0.43486 0.50951 0.23945 0.0
C507 C 0.42192 0.48922 0.22057 0.0
C508 C 0.39987 0.4851 0.20532 0.0
C509 C 0.39047 0.50104 0.20897 0.0
C510 C 0.40308 0.52111 0.22795 0.0
C511 C 0.42515 0.52533 0.24323 0.0
H512 H 0.37339 0.49781 0.19715 0.0
H513 H 0.58547 0.53588 0.34835 0.0
H514 H 0.4329 1.00604 0.13585 0.0
H515 H 0.43307 1.00186 0.19323 0.0
H516 H 0.51052 0.01872 0.19002 0.0
H517 H 0.50982 0.02167 0.13265 0.0
H518 H 0.48816 0.98313 0.225 0.0
H519 H 0.48869 0.05788 0.21939 0.0
H520 H 0.47444 0.08642 0.20326 0.0
H521 H 0.40411 0.0442 0.24816 0.0
H522 H 0.41782 0.01521 0.26419 0.0
H523 H 0.51465 1.00197 0.38769 0.0
H524 H 0.51282 0.00838 0.33136 0.0
H525 H 0.43295 0.97839 0.33651 0.0
H526 H 0.43472 0.97255 0.39328 0.0
H527 H 0.45532 0.01993 0.30139 0.0
H528 H 0.45789 0.9457 0.30768 0.0
H529 H 0.47572 0.92045 0.32614 0.0
H530 H 0.54498 0.96625 0.28118 0.0
H531 H 0.52766 0.99194 0.26278 0.0
C532 C 0.44996 0.00913 0.14763 0.0
C533 C 0.47132 0.01409 0.13012 0.0
C534 C 0.45012 1.00683 0.18035 0.0
C535 C 0.47189 0.01017 0.19608 0.0
C536 C 0.49346 0.01591 0.17848 0.0
C537 C 0.4931 0.01766 0.1458 0.0
C538 C 0.47197 1.00643 0.23057 0.0
C539 C 0.48127 0.99149 0.24164 0.0
C540 C 0.46253 0.01689 0.2524 0.0
C541 C 0.45419 0.03424 0.2427 0.0
C542 C 0.47011 0.05457 0.22559 0.0
C543 C 0.46214 0.07085 0.21651 0.0
C544 C 0.43836 0.06709 0.2246 0.0
C545 C 0.42251 0.04706 0.24186 0.0
C546 C 0.43038 0.03071 0.25097 0.0
C547 C 0.49671 0.99692 0.37694 0.0
C548 C 0.47482 0.98676 0.39495 0.0
C549 C 0.49568 1.00043 0.34471 0.0
C550 C 0.47273 0.99366 0.32979 0.0
C551 C 0.45083 0.98366 0.34765 0.0
C552 C 0.45185 0.98013 0.37997 0.0
C553 C 0.47168 0.99692 0.29547 0.0
C554 C 0.46214 0.01165 0.28454 0.0
C555 C 0.48135 0.98668 0.27378 0.0
C556 C 0.49151 0.97082 0.28402 0.0
C557 C 0.47695 0.95043 0.30183 0.0
C558 C 0.48697 0.93604 0.31228 0.0
C559 C 0.51149 0.94178 0.3049 0.0
C560 C 0.526 0.96184 0.2869 0.0
C561 C 0.51607 0.97629 0.2764 0.0
H562 H 0.51924 0.93066 0.3131 0.0
H563 H 0.43224 0.07972 0.21756 0.0
H564 H 0.06687 0.574 0.63672 0.0
H565 H 0.06008 0.56862 0.69357 0.0
H566 H 1.00523 0.49581 0.67822 0.0
H567 H 0.01163 0.50122 0.62139 0.0
H568 H 0.98853 0.51338 0.71976 0.0
H569 H 0.06533 0.51195 0.70538 0.0
H570 H 0.10848 0.52626 0.68739 0.0
H571 H 0.13273 0.58856 0.74479 0.0
H572 H 0.08964 0.57476 0.76281 0.0
H573 H 0.03309 0.49994 0.88907 0.0
H574 H 0.03699 0.50136 0.83174 0.0
H575 H 0.99323 0.53802 0.82618 0.0
H576 H 0.98864 0.53584 0.88354 0.0
H577 H 0.05883 0.53628 0.79473 0.0
H578 H 0.96333 0.52794 0.75651 0.0
H579 H 0.91958 0.50797 0.77393 0.0
H580 H 0.93154 0.45496 0.82095 0.0
H581 H 0.97525 0.47442 0.80347 0.0
C582 C 0.05352 0.55682 0.64555 0.0
C583 C 0.03979 0.53804 0.6247 0.0
C584 C 0.04965 0.55374 0.678 0.0
C585 C 0.03233 0.53168 0.69017 0.0
C586 C 0.01862 0.51294 0.66932 0.0
C587 C 0.02228 0.51608 0.6369 0.0
C588 C 0.02831 0.52807 0.7246 0.0
C589 C 1.00391 0.51838 0.73616 0.0
C590 C 0.04828 0.53407 0.74598 0.0
C591 C 0.07422 0.54244 0.7352 0.0
C592 C 0.07983 0.52879 0.71398 0.0
C593 C 0.10429 0.53679 0.70381 0.0
C594 C 0.12333 0.55833 0.71487 0.0
C595 C 0.11796 0.57189 0.7362 0.0
C596 C 0.09353 0.56398 0.74642 0.0
C597 C 0.02416 0.50812 0.8755 0.0
C598 C 1.01056 0.51776 0.89058 0.0
C599 C 0.02642 0.50896 0.8428 0.0
C600 C 0.01532 0.5197 0.82456 0.0
C601 C 1.00155 0.52922 0.83964 0.0
C602 C 0.99894 0.52801 0.87237 0.0
C603 C 0.01904 0.52172 0.78996 0.0
C604 C 0.04342 0.53123 0.77836 0.0
C605 C 0.99896 0.51474 0.76849 0.0
C606 C 0.97264 0.5028 0.77894 0.0
C607 C 0.9566 0.51198 0.77048 0.0
C608 C 0.93181 0.50076 0.78038 0.0
C609 C 0.92281 0.48026 0.79863 0.0
C610 C 0.93856 0.47089 0.80692 0.0
C611 C 0.96336 0.48204 0.79706 0.0
H612 H 0.90362 0.4716 0.80628 0.0
H613 H 0.14225 0.56449 0.70698 0.0
H614 H 0.49209 0.49669 0.66281 0.0
H615 H 0.49153 0.49329 0.7202 0.0
H616 H 0.45877 0.5396 0.7276 0.0
H617 H 0.4592 0.54314 0.67067 0.0
H618 H 0.49244 0.55143 0.77232 0.0
H619 H 0.42473 0.47748 0.73889 0.0
H620 H 0.40418 0.43993 0.70919 0.0
H621 H 0.45281 0.41694 0.75232 0.0
H622 H 0.47388 0.4545 0.78198 0.0
H623 H 0.4649 0.52854 0.93865 0.0
H624 H 0.46001 0.53128 0.88124 0.0
H625 H 0.49169 0.48474 0.86514 0.0
H626 H 0.49621 0.48179 0.9216 0.0
H627 H 0.45616 0.47328 0.82487 0.0
H628 H 0.52493 0.54754 0.85667 0.0
H629 H 0.54602 0.58511 0.88613 0.0
H630 H 0.49598 0.60766 0.84616 0.0
H631 H 0.47432 0.56999 0.81674 0.0
C632 C 0.48461 0.50612 0.67637 0.0
C633 C 0.4757 0.52023 0.66109 0.0
C634 C 0.48425 0.5041 0.70959 0.0
C635 C 0.47487 0.51599 0.72892 0.0
C636 C 0.46621 0.53021 0.71377 0.0
C637 C 0.46649 0.5322 0.68068 0.0
C638 C 0.47404 0.51372 0.76466 0.0
C639 C 0.48415 0.53427 0.78368 0.0
C640 C 0.46365 0.49149 0.78022 0.0
C641 C 0.45104 0.46891 0.76241 0.0
C642 C 0.43117 0.46449 0.74186 0.0
C643 C 0.41941 0.4432 0.72506 0.0
C644 C 0.42723 0.42609 0.7288 0.0
C645 C 0.4468 0.43022 0.74941 0.0
C646 C 0.45865 0.45151 0.76623 0.0
C647 C 0.47032 0.51853 0.92287 0.0
C648 C 0.48089 0.50487 0.93515 0.0
C649 C 0.46784 0.52033 0.88984 0.0
C650 C 0.47579 0.50848 0.86816 0.0
C651 C 0.48537 0.49417 0.88072 0.0
C652 C 0.48797 0.49251 0.91337 0.0
C653 C 0.4748 0.51098 0.83258 0.0
C654 C 0.46434 0.49046 0.81354 0.0
C655 C 0.48493 0.53323 0.81706 0.0
C656 C 0.4978 0.55581 0.83483 0.0
C657 C 0.51826 0.56041 0.85439 0.0
C658 C 0.53034 0.58174 0.87106 0.0
C659 C 0.52227 0.59873 0.86815 0.0
C660 C 0.50215 0.59444 0.84847 0.0
C661 C 0.48997 0.5731 0.83179 0.0
H662 H 0.53164 0.61525 0.88104 0.0
H663 H 0.41809 0.40961 0.71579 0.0
H664 H 0.4594 0.98447 0.89816 0.0
H665 H 0.45424 0.97737 0.8415 0.0
H666 H 0.5133 0.04809 0.82465 0.0
H667 H 0.51862 0.05531 0.88165 0.0
H668 H 0.47328 0.03399 0.78223 0.0
H669 H 0.5259 1.00342 0.8251 0.0
H670 H 0.53586 0.97918 0.86157 0.0
H671 H 0.47332 0.91612 0.8266 0.0
H672 H 0.4629 0.94002 0.79005 0.0
H673 H 0.51523 0.02121 0.63185 0.0
H674 H 0.51071 0.02822 0.68709 0.0
H675 H 0.45296 0.95603 0.69682 0.0
H676 H 0.45673 0.94888 0.64112 0.0
H677 H 0.48896 0.96937 0.74275 0.0
H678 H 0.43674 0.99776 0.69875 0.0
H679 H 0.42427 0.02048 0.66284 0.0
H680 H 0.48288 0.08557 0.69943 0.0
H681 H 0.49598 0.06323 0.73531 0.0
C682 C 0.47133 0.99852 0.88243 0.0
C683 C 0.48981 0.0203 0.8943 0.0
C684 C 0.46823 0.99448 0.85007 0.0
C685 C 0.48367 0.01207 0.82897 0.0
C686 C 0.50125 0.03428 0.84063 0.0
C687 C 0.50429 0.03838 0.87311 0.0
C688 C 0.48263 1.00666 0.79495 0.0
C689 C 0.47697 0.02006 0.7735 0.0
C690 C 0.48669 0.98796 0.78378 0.0
C691 C 0.49337 0.97355 0.8052 0.0
C692 C 0.51416 0.9844 0.82534 0.0
C693 C 0.51993 0.97072 0.84598 0.0
C694 C 0.50517 0.94613 0.8465 0.0
C695 C 0.48471 0.93517 0.82623 0.0
C696 C 0.47888 0.94877 0.80553 0.0
C697 C 0.50122 1.00684 0.64536 0.0
C698 C 0.48631 0.98443 0.6317 0.0
C699 C 0.49872 0.01092 0.67708 0.0
C700 C 0.48136 0.99271 0.69592 0.0
C701 C 0.46645 0.97032 0.68258 0.0
C702 C 0.46878 0.96625 0.65073 0.0
C703 C 0.47982 0.99682 0.72992 0.0
C704 C 0.48509 0.98322 0.75142 0.0
C705 C 0.47519 0.01517 0.74107 0.0
C706 C 0.46752 0.02879 0.7195 0.0
C707 C 0.44715 0.01692 0.69894 0.0
C708 C 0.43993 0.02972 0.67864 0.0
C709 C 0.45282 0.05443 0.6788 0.0
C710 C 0.47294 0.06641 0.69932 0.0
C711 C 0.48026 0.05368 0.71967 0.0
H712 H 0.44716 0.06426 0.66306 0.0
H713 H 0.50965 0.93558 0.86253 0.0
H714 H 0.71954 0.85279 0.71949 0.0
H715 H 0.71272 0.84885 0.66268 0.0
H716 H 0.71108 0.78089 0.66493 0.0
H717 H 0.71777 0.78467 0.72204 0.0
H718 H 0.73762 0.80781 0.61467 0.0
H719 H 0.65749 0.78312 0.66046 0.0
H720 H 0.62696 0.78662 0.69498 0.0
H721 H 0.638 0.84937 0.64604 0.0
H722 H 0.66889 0.84646 0.61152 0.0
H723 H 0.68898 0.77907 0.45873 0.0
H724 H 0.69306 0.77705 0.51581 0.0
H725 H 0.69293 0.84391 0.52636 0.0
H726 H 0.68794 0.84561 0.46958 0.0
H727 H 0.6652 0.8136 0.57066 0.0
H728 H 0.74724 0.84021 0.52775 0.0
H729 H 0.77846 0.83764 0.49351 0.0
H730 H 0.76427 0.77207 0.53706 0.0
H731 H 0.7327 0.77409 0.57128 0.0
C732 C 0.71766 0.83697 0.70796 0.0
C733 C 0.71889 0.81891 0.72536 0.0
C734 C 0.7138 0.83475 0.67547 0.0
C735 C 0.71092 0.81437 0.65969 0.0
C736 C 0.71314 0.79671 0.67671 0.0
C737 C 0.71705 0.79894 0.70931 0.0
C738 C 0.70514 0.81146 0.62553 0.0
C739 C 0.72156 0.80866 0.60505 0.0
C740 C 0.6844 0.81297 0.61301 0.0
C741 C 0.66566 0.81466 0.63356 0.0
C742 C 0.65354 0.79776 0.6572 0.0
C743 C 0.63615 0.79963 0.67675 0.0
C744 C 0.63058 0.81823 0.67275 0.0
C745 C 0.64235 0.83498 0.64913 0.0
C746 C 0.65978 0.83321 0.62954 0.0
C747 C 0.68945 0.79316 0.47322 0.0
C748 C 0.68837 0.81262 0.45952 0.0
C749 C 0.69203 0.7921 0.50583 0.0
C750 C 0.69371 0.81052 0.5253 0.0
C751 C 0.69183 0.82956 0.51178 0.0
C752 C 0.68921 0.83061 0.47926 0.0
C753 C 0.6979 0.81034 0.5597 0.0
C754 C 0.68115 0.81252 0.58026 0.0
C755 C 0.71837 0.80834 0.57226 0.0
C756 C 0.73742 0.80716 0.55182 0.0
C757 C 0.75064 0.82515 0.52985 0.0
C758 C 0.76842 0.82381 0.51048 0.0
C759 C 0.77329 0.80467 0.51304 0.0
C760 C 0.76044 0.78686 0.53506 0.0
C761 C 0.74262 0.7881 0.55446 0.0
H762 H 0.78706 0.80366 0.49802 0.0
H763 H 0.61712 0.81965 0.68791 0.0
H764 H 0.17665 0.89622 0.73135 0.0
H765 H 0.18059 0.89697 0.674 0.0
H766 H 0.14261 0.82066 0.67163 0.0
H767 H 0.13773 0.81965 0.72859 0.0
H768 H 0.18841 0.84187 0.63863 0.0
H769 H 0.11194 0.8456 0.6473 0.0
H770 H 0.08484 0.86165 0.6665 0.0
H771 H 0.13249 0.9286 0.62356 0.0
H772 H 0.16011 0.91303 0.6045 0.0
H773 H 0.14398 0.83704 0.46781 0.0
H774 H 0.13832 0.83953 0.52419 0.0
H775 H 0.21789 0.8792 0.53696 0.0
H776 H 0.22375 0.87706 0.4803 0.0
H777 H 0.15102 0.87637 0.56494 0.0
H778 H 0.23206 0.86038 0.60599 0.0
H779 H 0.25647 0.84134 0.58689 0.0
H780 H 0.1945 0.79343 0.53019 0.0
H781 H 0.16964 0.81196 0.54927 0.0
C782 C 0.16876 0.87959 0.71866 0.0
C783 C 0.15715 0.85787 0.73475 0.0
C784 C 0.17115 0.88007 0.6859 0.0
C785 C 0.16206 0.85886 0.66877 0.0
C786 C 0.15 0.8372 0.68458 0.0
C787 C 0.14736 0.83669 0.7172 0.0
C788 C 0.16567 0.85915 0.63438 0.0
C789 C 0.18035 0.84951 0.62249 0.0
C790 C 0.15485 0.86884 0.61348 0.0
C791 C 0.13824 0.87823 0.62478 0.0
C792 C 0.11677 0.86381 0.6422 0.0
C793 C 0.10129 0.87281 0.65301 0.0
C794 C 0.10698 0.89616 0.64633 0.0
C795 C 0.12813 0.91053 0.62876 0.0
C796 C 0.1437 0.90162 0.61793 0.0
C797 C 0.1603 0.84664 0.48243 0.0
C798 C 0.18436 0.85684 0.46948 0.0
C799 C 0.15701 0.84799 0.51471 0.0
C800 C 0.17767 0.85941 0.53472 0.0
C801 C 0.2017 0.87006 0.5219 0.0
C802 C 0.20503 0.86873 0.48956 0.0
C803 C 0.17398 0.85928 0.56915 0.0
C804 C 0.1593 0.86896 0.58108 0.0
C805 C 0.18447 0.84926 0.5901 0.0
C806 C 0.19912 0.83774 0.5788 0.0
C807 C 0.22364 0.84573 0.58952 0.0
C808 C 0.23755 0.83503 0.5787 0.0
C809 C 0.22707 0.81624 0.55726 0.0
C810 C 0.20263 0.80804 0.5467 0.0
C811 C 0.18863 0.81866 0.55748 0.0
H812 H 0.23788 0.808 0.54888 0.0
H813 H 0.09496 0.90309 0.65471 0.0
H814 H 0.1857 0.36105 0.46724 0.0
H815 H 0.1853 0.35592 0.52432 0.0
H816 H 0.11378 0.35416 0.52923 0.0
H817 H 0.11461 0.36014 0.47209 0.0
H818 H 0.14163 0.37748 0.57814 0.0
H819 H 0.11937 0.30311 0.52823 0.0
H820 H 0.12436 0.27586 0.4915 0.0
H821 H 0.19235 0.28893 0.53796 0.0
H822 H 0.18796 0.31652 0.57471 0.0
H823 H 0.112 0.32139 0.72916 0.0
H824 H 0.11076 0.32883 0.67274 0.0
H825 H 0.18589 0.33987 0.66309 0.0
H826 H 0.18713 0.33224 0.7193 0.0
H827 H 0.15375 0.31064 0.61681 0.0
H828 H 0.17632 0.38623 0.66528 0.0
H829 H 0.17092 0.41333 0.70187 0.0
H830 H 0.10087 0.39668 0.65829 0.0
H831 H 0.10569 0.36921 0.62171 0.0
C832 C 0.17003 0.35977 0.48061 0.0
C833 C 0.15008 0.36075 0.46539 0.0
C834 C 0.16976 0.35675 0.51312 0.0
C835 C 0.14921 0.35402 0.53088 0.0
C836 C 0.12975 0.35608 0.51592 0.0
C837 C 0.13024 0.35952 0.48338 0.0
C838 C 0.14772 0.3482 0.56482 0.0
C839 C 0.14391 0.36266 0.58656 0.0
C840 C 0.151 0.32899 0.57582 0.0
C841 C 0.15346 0.31208 0.55404 0.0
C842 C 0.13547 0.30029 0.5305 0.0
C843 C 0.13818 0.28476 0.50969 0.0
C844 C 0.15868 0.2807 0.51235 0.0
C845 C 0.17646 0.29207 0.53593 0.0
C846 C 0.17385 0.30764 0.55679 0.0
C847 C 0.12813 0.32519 0.71491 0.0
C848 C 0.14969 0.32632 0.72857 0.0
C849 C 0.12748 0.32962 0.68281 0.0
C850 C 0.14832 0.33509 0.66391 0.0
C851 C 0.16966 0.33576 0.67737 0.0
C852 C 0.1704 0.33155 0.70945 0.0
C853 C 0.14797 0.34007 0.63 0.0
C854 C 0.15136 0.32538 0.6083 0.0
C855 C 0.14413 0.35892 0.61907 0.0
C856 C 0.14124 0.37546 0.641 0.0
C857 C 0.15966 0.38818 0.66369 0.0
C858 C 0.15672 0.40364 0.68439 0.0
C859 C 0.13553 0.40667 0.68247 0.0
C860 C 0.11725 0.39429 0.65978 0.0
C861 C 0.12008 0.37878 0.63905 0.0
H862 H 0.1333 0.41865 0.69851 0.0
H863 H 0.16077 0.26871 0.49618 0.0
H864 H 0.71686 0.86933 0.22631 0.0
H865 H 0.72499 0.86966 0.17038 0.0
H866 H 0.65648 0.80457 0.15821 0.0
H867 H 0.64879 0.80338 0.21481 0.0
H868 H 0.69245 0.80272 0.1259 0.0
H869 H 0.6619 0.85854 0.1352 0.0
H870 H 0.65921 0.89303 0.15656 0.0
H871 H 0.73456 0.93882 0.12842 0.0
H872 H 0.73782 0.90455 0.10726 0.0
H873 H 0.68734 0.81289 0.95916 0.0
H874 H 0.67895 0.8109 0.01564 0.0
H875 H 0.75231 0.86923 0.03187 0.0
H876 H 0.76078 0.87133 0.97511 0.0
H877 H 0.71312 0.87409 0.06139 0.0
H878 H 0.74288 0.81694 0.0527 0.0
H879 H 0.7438 0.78218 0.02924 0.0
H880 H 0.66726 0.73845 0.0544 0.0
H881 H 0.66582 0.77305 0.07775 0.0
C882 C 0.70356 0.85489 0.21199 0.0
C883 C 0.68218 0.83624 0.22534 0.0
C884 C 0.70811 0.85529 0.17979 0.0
C885 C 0.69119 0.83732 0.15997 0.0
C886 C 0.66977 0.81868 0.17306 0.0
C887 C 0.66528 0.81815 0.20542 0.0
C888 C 0.69621 0.8379 0.1257 0.0
C889 C 0.69659 0.81821 0.11174 0.0
C890 C 0.70207 0.85825 0.10725 0.0
C891 C 0.70017 0.87893 0.11989 0.0
C892 C 0.67796 0.87594 0.13378 0.0
C893 C 0.67633 0.89545 0.14581 0.0
C894 C 0.69673 0.91809 0.14392 0.0
C895 C 0.71879 0.92127 0.1299 0.0
C896 C 0.72053 0.90181 0.11785 0.0
C897 C 0.70168 0.82528 0.97478 0.0
C898 C 0.72468 0.84235 0.96281 0.0
C899 C 0.69692 0.82403 1.00701 0.0
C900 C 0.71504 0.83989 0.02786 0.0
C901 C 0.73812 0.85684 0.01608 0.0
C902 C 0.743 0.85792 0.98379 0.0
C903 C 0.70952 0.83906 0.06188 0.0
C904 C 0.70898 0.85866 0.0757 0.0
C905 C 0.70325 0.81856 0.08007 0.0
C906 C 0.70419 0.79761 0.06673 0.0
C907 C 0.72621 0.79993 0.05309 0.0
C908 C 0.72683 0.78026 0.03984 0.0
C909 C 0.70559 0.75814 0.04025 0.0
C910 C 0.6837 0.7556 0.05408 0.0
C911 C 0.68298 0.77523 0.06738 0.0
H912 H 0.70614 0.74297 0.02989 0.0
H913 H 0.69542 0.93318 0.15324 0.0
H914 H 0.15931 0.80548 0.96835 0.0
H915 H 0.17161 0.80424 0.02273 0.0
H916 H 0.17507 0.87195 0.04069 0.0
H917 H 0.16341 0.87364 0.98593 0.0
H918 H 0.21436 0.86844 0.06771 0.0
H919 H 0.12481 0.82219 0.06212 0.0
H920 H 0.08498 0.79056 0.04171 0.0
H921 H 0.10664 0.73824 0.06787 0.0
H922 H 0.14679 0.76963 0.08803 0.0
H923 H 0.19662 0.8677 0.23233 0.0
H924 H 0.19642 0.86934 0.17496 0.0
H925 H 0.19084 0.79978 0.17002 0.0
H926 H 0.19031 0.79777 0.22757 0.0
H927 H 0.15591 0.80232 0.13492 0.0
H928 H 0.24376 0.84858 0.1462 0.0
H929 H 0.28322 0.88035 0.16725 0.0
H930 H 0.26492 0.93276 0.13128 0.0
H931 H 0.22517 0.9013 0.11038 0.0
C932 C 0.16297 0.82026 0.9837 0.0
C933 C 0.1602 0.8396 0.97282 0.0
C934 C 0.16984 0.81944 0.01484 0.0
C935 C 0.17398 0.83788 0.03578 0.0
C936 C 0.17189 0.85751 0.02487 0.0
C937 C 0.16496 0.85833 0.99369 0.0
C938 C 0.17947 0.83626 0.06938 0.0
C939 C 0.20153 0.85412 0.08254 0.0
C940 C 0.16304 0.81715 0.08837 0.0
C941 C 0.13892 0.79827 0.07624 0.0
C942 C 0.12118 0.80396 0.06326 0.0
C943 C 0.09852 0.78607 0.05179 0.0
C944 C 0.09331 0.76241 0.0534 0.0
C945 C 0.11073 0.75658 0.06657 0.0
C946 C 0.13343 0.77441 0.07803 0.0
C947 C 0.19552 0.85281 0.21904 0.0
C948 C 0.19322 0.8325 0.23449 0.0
C949 C 0.1957 0.85388 0.18624 0.0
C950 C 0.19377 0.83474 0.16819 0.0
C951 C 0.19243 0.81478 0.18352 0.0
C952 C 0.19228 0.81371 0.2164 0.0
C953 C 0.19069 0.83471 0.13356 0.0
C954 C 0.169 0.81652 0.12012 0.0
C955 C 0.20746 0.85354 0.1144 0.0
C956 C 0.23137 0.87254 0.12692 0.0
C957 C 0.24804 0.86687 0.14299 0.0
C958 C 0.27049 0.88483 0.15486 0.0
C959 C 0.27655 0.90855 0.15066 0.0
C960 C 0.26019 0.91437 0.13452 0.0
C961 C 0.23772 0.89648 0.12262 0.0
H962 H 0.29394 0.92243 0.15987 0.0
H963 H 0.07576 0.74858 0.04453 0.0
H964 H 0.19099 0.35719 0.96347 0.0
H965 H 0.18798 0.36515 0.01846 0.0
H966 H 0.12873 0.29388 0.03067 0.0
H967 H 0.13049 0.28597 0.97487 0.0
H968 H 0.11892 0.3235 0.06297 0.0
H969 H 0.18924 0.31011 0.05351 0.0
H970 H 0.22898 0.31538 0.03179 0.0
H971 H 0.2648 0.38852 0.05967 0.0
H972 H 0.22517 0.38377 0.08119 0.0
H973 H 0.13295 0.32237 0.23004 0.0
H974 H 0.13043 0.31474 0.17348 0.0
H975 H 0.18498 0.38741 0.15723 0.0
H976 H 0.1882 0.39501 0.214 0.0
H977 H 0.19624 0.35627 0.12728 0.0
H978 H 0.12378 0.36711 0.13993 0.0
H979 H 0.08356 0.35905 0.16318 0.0
H980 H 0.05098 0.28699 0.13105 0.0
H981 H 0.09115 0.29446 0.10818 0.0
C982 C 0.17703 0.34313 0.9774 0.0
C983 C 0.1611 0.32078 0.96428 0.0
C984 C 0.17555 0.34772 1.00917 0.0
C985 C 0.1585 0.32997 0.02886 0.0
C986 C 0.14216 0.30782 0.01592 0.0
C987 C 0.1434 0.30326 0.98395 0.0
C988 C 0.15823 0.33451 0.06305 0.0
C989 C 0.13575 0.33038 0.07715 0.0
C990 C 0.18026 0.34373 0.08146 0.0
C991 C 0.20418 0.34663 0.06871 0.0
C992 C 0.20555 0.32736 0.05482 0.0
C993 C 0.22806 0.33024 0.04257 0.0
C994 C 0.24938 0.35228 0.04428 0.0
C995 C 0.24825 0.37147 0.05833 0.0
C996 C 0.22578 0.36868 0.07058 0.0
C997 C 0.14445 0.33673 0.21446 0.0
C998 C 0.16097 0.35927 0.2265 0.0
C999 C 0.14275 0.3324 0.18212 0.0
C1000 C 0.15737 0.35055 0.1612 0.0
C1001 C 0.17349 0.37319 0.17305 0.0
C1002 C 0.17519 0.37755 0.20542 0.0
C1003 C 0.15702 0.34555 0.12713 0.0
C1004 C 0.17942 0.34948 0.11308 0.0
C1005 C 0.13482 0.33574 0.10903 0.0
C1006 C 0.11058 0.33131 0.12257 0.0
C1007 C 0.10811 0.34949 0.13804 0.0
C1008 C 0.0853 0.34503 0.15114 0.0
C1009 C 0.06474 0.32252 0.14863 0.0
C1010 C 0.06691 0.30444 0.13292 0.0
C1011 C 0.08971 0.30877 0.11992 0.0
H1012 H 0.04711 0.31909 0.15885 0.0
H1013 H 0.26679 0.35448 0.03478 0.0
H1014 H 0.40063 0.13892 0.06723 0.0
H1015 H 0.40653 0.14681 0.01084 0.0
H1016 H 0.35464 0.17475 0.01256 0.0
H1017 H 0.34801 0.16617 0.06878 0.0
H1018 H 0.34605 0.14652 0.96284 0.0
H1019 H 0.41689 0.21178 1.00786 0.0
H1020 H 0.45403 0.23197 0.04177 0.0
H1021 H 0.48941 0.19771 0.99212 0.0
H1022 H 0.45231 0.17702 0.95818 0.0
H1023 H 0.37586 0.19067 0.8067 0.0
H1024 H 0.37335 0.1919 0.86424 0.0
H1025 H 0.41845 0.15684 0.87277 0.0
H1026 H 0.42114 0.15575 0.81534 0.0
H1027 H 0.43053 0.19257 0.91757 0.0
H1028 H 0.35724 0.12492 0.87583 0.0
H1029 H 0.31994 0.10553 0.84197 0.0
H1030 H 0.2892 0.14616 0.88601 0.0
H1031 H 0.32651 0.16604 0.91985 0.0
C1032 C 0.39028 0.14652 0.05563 0.0
C1033 C 0.37389 0.15195 0.07268 0.0
C1034 C 0.39389 0.15129 0.0234 0.0
C1035 C 0.38131 0.16171 1.00753 0.0
C1036 C 0.36467 0.16684 0.02434 0.0
C1037 C 0.36104 0.16208 0.05657 0.0
C1038 C 0.38523 0.16683 0.97328 0.0
C1039 C 0.36449 0.15696 0.95304 0.0
C1040 C 0.4093 0.18023 0.96037 0.0
C1041 C 0.43171 0.19269 0.98065 0.0
C1042 C 0.43251 0.2084 1.00432 0.0
C1043 C 0.45357 0.21996 0.02353 0.0
C1044 C 0.47405 0.21608 0.01915 0.0
C1045 C 0.47352 0.20068 0.9955 0.0
C1046 C 0.45249 0.18905 0.97625 0.0
C1047 C 0.38571 0.18374 0.82087 0.0
C1048 C 0.3986 0.17299 0.80657 0.0
C1049 C 0.38411 0.18429 0.85371 0.0
C1050 C 0.39548 0.1742 0.87275 0.0
C1051 C 0.4095 0.16467 0.85853 0.0
C1052 C 0.41091 0.16394 0.82576 0.0
C1053 C 0.39141 0.17201 0.90728 0.0
C1054 C 0.4121 0.18239 0.92752 0.0
C1055 C 0.36729 0.15923 0.92024 0.0
C1056 C 0.34478 0.14716 0.9001 0.0
C1057 C 0.34261 0.12985 0.87812 0.0
C1058 C 0.32146 0.11875 0.85896 0.0
C1059 C 0.30224 0.12466 0.86177 0.0
C1060 C 0.30411 0.14163 0.88382 0.0
C1061 C 0.32526 0.15282 0.903 0.0
H1062 H 0.28588 0.11605 0.84692 0.0
H1063 H 0.49034 0.22505 0.03404 0.0
H1064 H 0.78479 0.14192 0.79195 0.0
H1065 H 0.78756 0.14677 0.84875 0.0
H1066 H 0.83817 0.22115 0.83808 0.0
H1067 H 0.83603 0.21615 0.78031 0.0
H1068 H 0.85441 0.20592 0.8852 0.0
H1069 H 0.77353 0.19674 0.86343 0.0
H1070 H 0.73104 0.1783 0.84122 0.0
H1071 H 0.71231 0.11486 0.89356 0.0
H1072 H 0.7548 0.13281 0.91577 0.0
H1073 H 0.84686 0.23177 0.04787 0.0
H1074 H 0.84416 0.22889 0.99062 0.0
H1075 H 0.79708 0.15353 0.9971 0.0
H1076 H 0.79934 0.15637 0.05491 0.0
H1077 H 0.77909 0.17048 0.9522 0.0
H1078 H 0.86049 0.17996 0.97339 0.0
H1079 H 0.90289 0.19893 0.99591 0.0
H1080 H 0.92039 0.26267 0.94496 0.0
H1081 H 0.87797 0.24418 0.92245 0.0
C1082 C 0.79638 0.15951 0.80133 0.0
C1083 C 0.80998 0.17866 0.78077 0.0
C1084 C 0.79785 0.16229 0.83433 0.0
C1085 C 0.81274 0.18446 0.84865 0.0
C1086 C 0.82636 0.20377 0.82824 0.0
C1087 C 0.82497 0.20095 0.79492 0.0
C1088 C 0.81437 0.18701 0.88458 0.0
C1089 C 0.83782 0.19848 0.89964 0.0
C1090 C 0.79299 0.17692 0.90437 0.0
C1091 C 0.76743 0.16605 0.89104 0.0
C1092 C 0.76041 0.17879 0.87002 0.0
C1093 C 0.73631 0.16844 0.85746 0.0
C1094 C 0.719 0.1454 0.86591 0.0
C1095 C 0.72574 0.13269 0.887 0.0
C1096 C 0.74983 0.14296 0.89961 0.0
C1097 C 0.83578 0.21448 0.03743 0.0
C1098 C 0.82327 0.19432 0.0568 0.0
C1099 C 0.83445 0.21283 1.00422 0.0
C1100 C 0.82063 0.19093 0.9887 0.0
C1101 C 0.808 0.17073 1.00793 0.0
C1102 C 0.80944 0.17235 0.04129 0.0
C1103 C 0.8191 0.18929 0.95273 0.0
C1104 C 0.79566 0.17796 0.93771 0.0
C1105 C 0.84046 0.1996 0.933 0.0
C1106 C 0.86597 0.21076 0.94648 0.0
C1107 C 0.87332 0.19808 0.96718 0.0
C1108 C 0.89736 0.20874 0.97991 0.0
C1109 C 0.9143 0.23201 0.97194 0.0
C1110 C 0.90724 0.24465 0.95115 0.0
C1111 C 0.8832 0.23409 0.93838 0.0
H1112 H 0.93291 0.24022 0.98182 0.0
H1113 H 0.70036 0.13742 0.85616 0.0
H1114 H 0.83282 0.63198 0.07139 0.0
H1115 H 0.83596 0.62518 0.01503 0.0
H1116 H 0.88424 0.69991 1.00208 0.0
H1117 H 0.88159 0.70667 0.05856 0.0
H1118 H 0.84012 0.67663 0.96028 0.0
H1119 H 0.91145 0.6712 0.99635 0.0
H1120 H 0.93529 0.65709 0.02892 0.0
H1121 H 0.88961 0.58619 0.99534 0.0
H1122 H 0.86519 0.59979 0.96293 0.0
H1123 H 0.87013 0.67251 0.8009 0.0
H1124 H 0.87422 0.68049 0.85737 0.0
H1125 H 0.8384 0.60547 0.8759 0.0
H1126 H 0.8344 0.5974 0.81916 0.0
H1127 H 0.87839 0.63009 0.91517 0.0
H1128 H 0.80577 0.63546 0.88123 0.0
H1129 H 0.78257 0.64993 0.84804 0.0
H1130 H 0.83117 0.72126 0.87794 0.0
H1131 H 0.85488 0.70724 0.91098 0.0
C1132 C 0.8441 0.64689 0.05646 0.0
C1133 C 0.85689 0.66985 0.06916 0.0
C1134 C 0.84605 0.64299 0.02443 0.0
C1135 C 0.86045 0.66204 1.00457 0.0
C1136 C 0.87317 0.68499 0.01716 0.0
C1137 C 0.87166 0.68882 0.0493 0.0
C1138 C 0.86098 0.65814 0.97032 0.0
C1139 C 0.84879 0.66675 0.95033 0.0
C1140 C 0.87188 0.64483 0.95763 0.0
C1141 C 0.88623 0.63647 0.97754 0.0
C1142 C 0.90623 0.65254 0.99623 0.0
C1143 C 0.91992 0.64465 0.01459 0.0
C1144 C 0.91387 0.62074 0.01433 0.0
C1145 C 0.8942 0.60469 0.99561 0.0
C1146 C 0.88044 0.61248 0.97723 0.0
C1147 C 0.86298 0.65772 0.81693 0.0
C1148 C 0.85173 0.63433 0.80551 0.0
C1149 C 0.8654 0.66229 0.84923 0.0
C1150 C 0.85633 0.64357 0.87085 0.0
C1151 C 0.84555 0.62018 0.8596 0.0
C1152 C 0.84326 0.6156 0.8272 0.0
C1153 C 0.85733 0.64842 0.90513 0.0
C1154 C 0.86975 0.63999 0.92513 0.0
C1155 C 0.84661 0.66188 0.91795 0.0
C1156 C 0.83223 0.67033 0.89834 0.0
C1157 C 0.81161 0.65425 0.88056 0.0
C1158 C 0.79836 0.66237 0.8618 0.0
C1159 C 0.80543 0.68651 0.86082 0.0
C1160 C 0.82573 0.70257 0.87868 0.0
C1161 C 0.83907 0.69455 0.89745 0.0
H1162 H 0.79515 0.69276 0.84628 0.0
H1163 H 0.92449 0.61468 0.02855 0.0
H1164 H 0.4208 0.15856 0.31222 0.0
H1165 H 0.42624 0.16446 0.36916 0.0
H1166 H 0.38383 0.20247 0.36777 0.0
H1167 H 0.37879 0.19707 0.31068 0.0
H1168 H 0.4251 0.22487 0.40392 0.0
H1169 H 0.35841 0.14646 0.39185 0.0
H1170 H 0.33708 0.10525 0.37261 0.0
H1171 H 0.39034 0.09085 0.42104 0.0
H1172 H 0.41227 0.13219 0.44009 0.0
H1173 H 0.39736 0.21914 0.56744 0.0
H1174 H 0.3949 0.21477 0.51001 0.0
H1175 H 0.44202 0.18156 0.514 0.0
H1176 H 0.44449 0.18599 0.57161 0.0
H1177 H 0.39913 0.15686 0.47674 0.0
H1178 H 0.46585 0.23646 0.48779 0.0
H1179 H 0.48576 0.2776 0.50738 0.0
H1180 H 0.4294 0.28906 0.46189 0.0
H1181 H 0.40895 0.24786 0.44239 0.0
C1182 C 0.41281 0.16835 0.32395 0.0
C1183 C 0.39932 0.17731 0.30685 0.0
C1184 C 0.41576 0.17154 0.35656 0.0
C1185 C 0.40524 0.18371 0.37278 0.0
C1186 C 0.39204 0.19295 0.35575 0.0
C1187 C 0.389 0.18969 0.32315 0.0
C1188 C 0.40808 0.18689 0.40749 0.0
C1189 C 0.41916 0.20997 0.41985 0.0
C1190 C 0.40065 0.16746 0.42826 0.0
C1191 C 0.3873 0.14255 0.41693 0.0
C1192 C 0.36578 0.13461 0.39808 0.0
C1193 C 0.35353 0.1112 0.38726 0.0
C1194 C 0.36243 0.09547 0.39544 0.0
C1195 C 0.38354 0.10308 0.41458 0.0
C1196 C 0.3959 0.12649 0.42537 0.0
C1197 C 0.40739 0.21116 0.55594 0.0
C1198 C 0.42137 0.2032 0.57379 0.0
C1199 C 0.40602 0.2087 0.52321 0.0
C1200 C 0.41846 0.19803 0.50772 0.0
C1201 C 0.43243 0.18999 0.52549 0.0
C1202 C 0.43405 0.19274 0.55828 0.0
C1203 C 0.41626 0.1948 0.47303 0.0
C1204 C 0.40518 0.17172 0.46072 0.0
C1205 C 0.4234 0.21418 0.45231 0.0
C1206 C 0.43575 0.23901 0.46386 0.0
C1207 C 0.45759 0.24769 0.48217 0.0
C1208 C 0.469 0.27104 0.49322 0.0
C1209 C 0.45882 0.28592 0.48595 0.0
C1210 C 0.43725 0.27751 0.46753 0.0
C1211 C 0.42576 0.25417 0.45645 0.0
H1212 H 0.46768 0.30399 0.49452 0.0
H1213 H 0.35292 0.07736 0.38704 0.0
H1214 H 0.80971 0.22049 0.31742 0.0
H1215 H 0.81004 0.21839 0.37446 0.0
H1216 H 0.81722 0.15486 0.36875 0.0
H1217 H 0.81611 0.15639 0.31098 0.0
H1218 H 0.78588 0.1498 0.41547 0.0
H1219 H 0.86658 0.21142 0.38862 0.0
H1220 H 0.89738 0.24851 0.36385 0.0
H1221 H 0.86948 0.28778 0.41709 0.0
H1222 H 0.83796 0.25089 0.44144 0.0
H1223 H 0.81286 0.15531 0.58363 0.0
H1224 H 0.81256 0.15247 0.52579 0.0
H1225 H 0.81069 0.21865 0.51886 0.0
H1226 H 0.81148 0.22172 0.57602 0.0
H1227 H 0.84165 0.22058 0.47821 0.0
H1228 H 0.75866 0.15935 0.50081 0.0
H1229 H 0.72693 0.12258 0.52527 0.0
H1230 H 0.75912 0.08327 0.48105 0.0
H1231 H 0.79124 0.11988 0.45662 0.0
C1232 C 0.81119 0.20584 0.32783 0.0
C1233 C 0.81278 0.18856 0.30859 0.0
C1234 C 0.81165 0.20482 0.36102 0.0
C1235 C 0.81399 0.18663 0.37677 0.0
C1236 C 0.81544 0.16921 0.35775 0.0
C1237 C 0.81498 0.17021 0.32436 0.0
C1238 C 0.81481 0.18596 0.41275 0.0
C1239 C 0.7984 0.16524 0.42905 0.0
C1240 C 0.8307 0.20606 0.4313 0.0
C1241 C 0.84969 0.2283 0.41663 0.0
C1242 C 0.86682 0.22792 0.39483 0.0
C1243 C 0.88444 0.24892 0.38088 0.0
C1244 C 0.88539 0.27047 0.38889 0.0
C1245 C 0.8687 0.27107 0.41086 0.0
C1246 C 0.85092 0.25011 0.42469 0.0
C1247 C 0.81193 0.16905 0.56983 0.0
C1248 C 0.81199 0.18866 0.58511 0.0
C1249 C 0.81177 0.16744 0.53642 0.0
C1250 C 0.81144 0.18527 0.51705 0.0
C1251 C 0.81106 0.20456 0.5325 0.0
C1252 C 0.81133 0.20621 0.56564 0.0
C1253 C 0.8123 0.18462 0.48103 0.0
C1254 C 0.82913 0.2051 0.46468 0.0
C1255 C 0.79675 0.16438 0.46251 0.0
C1256 C 0.77751 0.14239 0.47719 0.0
C1257 C 0.75908 0.14289 0.49651 0.0
C1258 C 0.74101 0.12208 0.51033 0.0
C1259 C 0.74106 0.10061 0.5048 0.0
C1260 C 0.75914 0.09991 0.48536 0.0
C1261 C 0.77727 0.12069 0.47151 0.0
H1262 H 0.72704 0.08452 0.51551 0.0
H1263 H 0.89907 0.2867 0.37811 0.0
H1264 H 0.8875 0.62887 0.55823 0.0
H1265 H 0.89255 0.63814 0.50209 0.0
H1266 H 0.88046 0.69829 0.51893 0.0
H1267 H 0.87507 0.68886 0.57504 0.0
H1268 H 0.85272 0.67412 0.47282 0.0
H1269 H 0.93807 0.70459 0.49673 0.0
H1270 H 0.97618 0.70593 0.51865 0.0
H1271 H 0.96653 0.64826 0.45862 0.0
H1272 H 0.92801 0.64619 0.43677 0.0
H1273 H 0.87769 0.70835 0.31076 0.0
H1274 H 0.88342 0.70976 0.36811 0.0
H1275 H 0.8792 0.64072 0.36551 0.0
H1276 H 0.87346 0.63924 0.30829 0.0
H1277 H 0.91882 0.67505 0.40419 0.0
H1278 H 0.82953 0.64351 0.38629 0.0
H1279 H 0.79293 0.64524 0.3643 0.0
H1280 H 0.81405 0.71075 0.41311 0.0
H1281 H 0.85092 0.7095 0.43517 0.0
C1282 C 0.88637 0.64431 0.55004 0.0
C1283 C 0.8807 0.65803 0.57102 0.0
C1284 C 0.88933 0.64965 0.51793 0.0
C1285 C 0.88706 0.66904 0.50622 0.0
C1286 C 0.8822 0.6832 0.52734 0.0
C1287 C 0.87903 0.67774 0.55938 0.0
C1288 C 0.88768 0.6733 0.47175 0.0
C1289 C 0.86749 0.67481 0.45799 0.0
C1290 C 0.90682 0.67404 0.45219 0.0
C1291 C 0.92991 0.67504 0.46538 0.0
C1292 C 0.94388 0.692 0.48843 0.0
C1293 C 0.96559 0.69292 0.50081 0.0
C1294 C 0.97367 0.6771 0.49016 0.0
C1295 C 0.96017 0.66043 0.46694 0.0
C1296 C 0.93838 0.65938 0.45455 0.0
C1297 C 0.8782 0.6936 0.32245 0.0
C1298 C 0.87502 0.67364 0.30518 0.0
C1299 C 0.8814 0.69439 0.35513 0.0
C1300 C 0.88171 0.67533 0.37095 0.0
C1301 C 0.87907 0.65561 0.35367 0.0
C1302 C 0.87555 0.65469 0.3211 0.0
C1303 C 0.88373 0.67537 0.40568 0.0
C1304 C 0.90435 0.67466 0.41934 0.0
C1305 C 0.8653 0.67585 0.42525 0.0
C1306 C 0.84307 0.67651 0.41215 0.0
C1307 C 0.82645 0.65835 0.39217 0.0
C1308 C 0.80563 0.65922 0.37976 0.0
C1309 C 0.80116 0.67808 0.38734 0.0
C1310 C 0.81751 0.69613 0.40733 0.0
C1311 C 0.83835 0.69534 0.41981 0.0
H1312 H 0.78505 0.67873 0.37768 0.0
H1313 H 0.99039 0.67776 0.49993 0.0
H1314 H 0.11843 0.52777 0.98899 0.0
H1315 H 0.14659 0.51249 0.97081 0.0
H1316 H 0.08361 0.4506 0.9329 0.0
H1317 H 0.05589 0.46535 0.95085 0.0
H1318 H 0.11171 0.43778 0.96693 0.0
H1319 H 0.12547 0.4969 0.88621 0.0
H1320 H 0.139 0.5376 0.86764 0.0
H1321 H 0.21211 0.55976 0.90562 0.0
H1322 H 0.1989 0.51922 0.92473 0.0
H1323 H 0.13805 0.38448 0.84312 0.0
H1324 H 0.13077 0.41466 0.86851 0.0
H1325 H 0.20027 0.44037 0.91883 0.0
H1326 H 0.20771 0.4096 0.89338 0.0
H1327 H 0.17922 0.47638 0.8886 0.0
H1328 H 0.16589 0.41539 0.96494 0.0
H1329 H 0.15163 0.37394 0.98046 0.0
H1330 H 0.07746 0.35538 0.9498 0.0
H1331 H 0.09137 0.39673 0.93373 0.0
C1332 C 0.11072 0.51101 0.97657 0.0
C1333 C 0.08482 0.49774 0.97169 0.0
C1334 C 0.12681 0.50227 0.96618 0.0
C1335 C 0.11725 0.48022 0.95062 0.0
C1336 C 0.09153 0.46745 0.94515 0.0
C1337 C 0.07563 0.47603 0.95547 0.0
C1338 C 0.13326 0.46959 0.94026 0.0
C1339 C 0.12665 0.44643 0.95007 0.0
C1340 C 0.15324 0.48086 0.91881 0.0
C1341 C 0.16112 0.50514 0.90723 0.0
C1342 C 0.14437 0.5105 0.89081 0.0
C1343 C 0.15199 0.53353 0.88014 0.0
C1344 C 0.17637 0.55127 0.88554 0.0
C1345 C 0.19321 0.54601 0.90152 0.0
C1346 C 0.18568 0.52302 0.91226 0.0
C1347 C 0.15215 0.39684 0.85904 0.0
C1348 C 0.17341 0.3945 0.86635 0.0
C1349 C 0.14796 0.41417 0.87348 0.0
C1350 C 0.16488 0.42972 0.89564 0.0
C1351 C 0.18703 0.42862 0.90161 0.0
C1352 C 0.19129 0.41108 0.88702 0.0
C1353 C 0.15717 0.44459 0.91487 0.0
C1354 C 0.165 0.46824 0.90645 0.0
C1355 C 0.13833 0.43388 0.93776 0.0
C1356 C 0.12972 0.40911 0.94795 0.0
C1357 C 0.14658 0.40243 0.96131 0.0
C1358 C 0.13856 0.37896 0.97024 0.0
C1359 C 0.11367 0.36201 0.96605 0.0
C1360 C 0.09673 0.36853 0.95303 0.0
C1361 C 0.10467 0.39199 0.94406 0.0
H1362 H 0.10752 0.34384 0.97295 0.0
H1363 H 0.18224 0.56909 0.87726 0.0
H1364 H 0.62929 0.74799 0.81962 0.0
H1365 H 0.6081 0.71188 0.8508 0.0
H1366 H 0.62982 0.7534 0.93618 0.0
H1367 H 0.65113 0.78967 0.90512 0.0
H1368 H 0.64185 0.71744 0.93775 0.0
H1369 H 0.56921 0.72515 0.91216 0.0
H1370 H 0.53935 0.72973 0.87735 0.0
H1371 H 0.52349 0.66495 0.82971 0.0
H1372 H 0.55359 0.6602 0.86386 0.0
H1373 H 0.57804 0.61904 0.03891 0.0
H1374 H 0.59348 0.65685 0.01135 0.0
H1375 H 0.56241 0.6195 0.92431 0.0
H1376 H 0.54568 0.58171 0.95236 0.0
H1377 H 0.55438 0.65457 0.92537 0.0
H1378 H 0.62876 0.64826 0.94357 0.0
H1379 H 0.65891 0.64199 0.97568 0.0
H1380 H 0.67199 0.7018 0.03342 0.0
H1381 H 0.64205 0.70858 1.00147 0.0
C1382 C 0.62913 0.74952 0.84501 0.0
C1383 C 0.64191 0.7718 0.85979 0.0
C1384 C 0.61695 0.72881 0.86285 0.0
C1385 C 0.61729 0.72984 0.89591 0.0
C1386 C 0.62928 0.75211 0.91072 0.0
C1387 C 0.6413 0.77288 0.89288 0.0
C1388 C 0.60671 0.70763 0.91488 0.0
C1389 C 0.62259 0.70387 0.93544 0.0
C1390 C 0.58182 0.68949 0.91113 0.0
C1391 C 0.56384 0.69244 0.89041 0.0
C1392 C 0.55955 0.712 0.89407 0.0
C1393 C 0.54254 0.71461 0.87448 0.0
C1394 C 0.52958 0.69768 0.85128 0.0
C1395 C 0.53357 0.67808 0.84765 0.0
C1396 C 0.55059 0.67541 0.86713 0.0
C1397 C 0.57465 0.61896 0.01386 0.0
C1398 C 0.5608 0.59745 0.99774 0.0
C1399 C 0.58357 0.64059 0.99801 0.0
C1400 C 0.57958 0.64121 0.96543 0.0
C1401 C 0.56571 0.61964 0.94937 0.0
C1402 C 0.55624 0.59803 0.96538 0.0
C1403 C 0.58956 0.66422 0.9481 0.0
C1404 C 0.57361 0.66815 0.92783 0.0
C1405 C 0.61453 0.68234 0.95157 0.0
C1406 C 0.63304 0.6788 0.9703 0.0
C1407 C 0.63808 0.66008 0.96312 0.0
C1408 C 0.65517 0.65649 0.98123 0.0
C1409 C 0.66739 0.67154 1.00653 0.0
C1410 C 0.66263 0.69029 0.01368 0.0
C1411 C 0.64566 0.69406 0.99552 0.0
H1412 H 0.68054 0.66867 0.02062 0.0
H1413 H 0.5164 0.69972 0.83616 0.0
H1414 H 0.2165 0.81538 0.89128 0.0
H1415 H 0.25823 0.82675 0.913 0.0
H1416 H 0.2875 0.89327 0.86368 0.0
H1417 H 0.24643 0.882 0.84203 0.0
H1418 H 0.32012 0.87735 0.86156 0.0
H1419 H 0.26857 0.88659 0.94142 0.0
H1420 H 0.23279 0.87267 0.97754 0.0
H1421 H 0.25578 0.82618 0.02236 0.0
H1422 H 0.29144 0.83952 0.98611 0.0
H1423 H 0.41257 0.97122 0.94331 0.0
H1424 H 0.37395 0.94105 0.92066 0.0
H1425 H 0.379 0.88778 0.97742 0.0
H1426 H 0.41841 0.9185 1.00071 0.0
H1427 H 0.33039 0.88633 0.97753 0.0
H1428 H 0.38858 0.88646 0.90207 0.0
H1429 H 0.42531 0.90558 0.86763 0.0
H1430 H 0.3901 0.93884 0.81526 0.0
H1431 H 0.35331 0.92022 0.84962 0.0
C1432 C 0.23203 0.83212 0.8845 0.0
C1433 C 0.22817 0.8478 0.86495 0.0
C1434 C 0.25582 0.83873 0.89716 0.0
C1435 C 0.27609 0.86105 0.89032 0.0
C1436 C 0.27233 0.87599 0.8694 0.0
C1437 C 0.24874 0.86952 0.85704 0.0
C1438 C 0.30096 0.86996 0.90595 0.0
C1439 C 0.32231 0.87911 0.88694 0.0
C1440 C 0.30402 0.87192 0.93916 0.0
C1441 C 0.28246 0.86378 0.96075 0.0
C1442 C 0.26584 0.87321 0.95876 0.0
C1443 C 0.24561 0.86546 0.97928 0.0
C1444 C 0.24199 0.84851 1.00216 0.0
C1445 C 0.25857 0.83927 1.00456 0.0
C1446 C 0.27878 0.84689 0.98402 0.0
C1447 C 0.40567 0.95309 0.95103 0.0
C1448 C 0.4186 0.94731 0.97396 0.0
C1449 C 0.38354 0.93579 0.93787 0.0
C1450 C 0.37354 0.91208 0.94713 0.0
C1451 C 0.3864 0.90599 0.96986 0.0
C1452 C 0.40896 0.92347 0.98297 0.0
C1453 C 0.34937 0.89433 0.93302 0.0
C1454 C 0.32819 0.8837 0.95224 0.0
C1455 C 0.34639 0.89134 0.89995 0.0
C1456 C 0.36815 0.90191 0.87848 0.0
C1457 C 0.38868 0.89788 0.88325 0.0
C1458 C 0.40952 0.90864 0.86375 0.0
C1459 C 0.41001 0.9234 0.83929 0.0
C1460 C 0.38965 0.92736 0.83419 0.0
C1461 C 0.36877 0.91665 0.85362 0.0
H1462 H 0.42616 0.93177 0.82428 0.0
H1463 H 0.2264 0.84261 0.01812 0.0
H1464 H 0.45378 0.04118 0.49953 0.0
H1465 H 0.44074 0.06916 0.51932 0.0
H1466 H 0.50382 0.09878 0.58251 0.0
H1467 H 0.51707 0.07034 0.56246 0.0
H1468 H 0.46044 0.08822 0.61307 0.0
H1469 H 0.50107 0.13496 0.52412 0.0
H1470 H 0.5138 0.14163 0.46842 0.0
H1471 H 0.43739 0.11253 0.4397 0.0
H1472 H 0.42415 0.10615 0.49533 0.0
H1473 H 0.4016 0.15461 0.66612 0.0
H1474 H 0.43466 0.14793 0.64418 0.0
H1475 H 0.38727 0.11137 0.56522 0.0
H1476 H 0.35467 0.11881 0.58662 0.0
H1477 H 0.4332 0.13472 0.54525 0.0
H1478 H 0.39334 0.08175 0.63433 0.0
H1479 H 0.38104 0.07322 0.69007 0.0
H1480 H 0.45753 0.11326 0.7187 0.0
H1481 H 0.47023 0.12221 0.66312 0.0
C1482 C 0.46528 0.05401 0.51711 0.0
C1483 C 0.48657 0.05365 0.52924 0.0
C1484 C 0.45782 0.07012 0.52838 0.0
C1485 C 0.47136 0.08636 0.55225 0.0
C1486 C 0.49313 0.08656 0.56392 0.0
C1487 C 0.50083 0.07048 0.55227 0.0
C1488 C 0.46117 0.1014 0.56631 0.0
C1489 C 0.4551 0.09893 0.59842 0.0
C1490 C 0.45391 0.11523 0.54729 0.0
C1491 C 0.46164 0.12007 0.51388 0.0
C1492 C 0.48698 0.13012 0.50592 0.0
C1493 C 0.49427 0.13392 0.47439 0.0
C1494 C 0.47639 0.12765 0.45057 0.0
C1495 C 0.45118 0.11768 0.45825 0.0
C1496 C 0.44378 0.11409 0.48978 0.0
C1497 C 0.39829 0.14555 0.64397 0.0
C1498 C 0.37519 0.13711 0.62863 0.0
C1499 C 0.41726 0.14155 0.63138 0.0
C1500 C 0.41339 0.12855 0.60331 0.0
C1501 C 0.39087 0.12131 0.58699 0.0
C1502 C 0.37208 0.12549 0.59946 0.0
C1503 C 0.43164 0.12081 0.59186 0.0
C1504 C 0.43913 0.12457 0.56016 0.0
C1505 C 0.4403 0.10823 0.61135 0.0
C1506 C 0.43268 0.10286 0.64467 0.0
C1507 C 0.40749 0.08884 0.65255 0.0
C1508 C 0.40046 0.08392 0.68409 0.0
C1509 C 0.41848 0.09276 0.70791 0.0
C1510 C 0.44358 0.10651 0.70024 0.0
C1511 C 0.45071 0.11151 0.66873 0.0
H1512 H 0.413 0.08892 0.73231 0.0
H1513 H 0.48205 0.13043 0.42615 0.0
H1514 H 0.85889 0.26841 0.63943 0.0
H1515 H 0.87276 0.30786 0.61699 0.0
H1516 H 0.94918 0.32256 0.62638 0.0
H1517 H 0.93542 0.2833 0.64915 0.0
H1518 H 0.94345 0.36007 0.64487 0.0
H1519 H 0.91933 0.30685 0.55608 0.0
H1520 H 0.8906 0.27241 0.52425 0.0
H1521 H 0.84043 0.30163 0.51571 0.0
H1522 H 0.86872 0.33611 0.5479 0.0
H1523 H 0.01334 0.44831 0.53845 0.0
H1524 H 0.98915 0.40962 0.56194 0.0
H1525 H 0.92267 0.41697 0.55441 0.0
H1526 H 0.94713 0.4565 0.53068 0.0
H1527 H 0.91763 0.36942 0.53709 0.0
H1528 H 0.94466 0.42482 0.62245 0.0
H1529 H 0.9749 0.45941 0.65255 0.0
H1530 H 0.02064 0.42585 0.66649 0.0
H1531 H 0.99075 0.3911 0.63603 0.0
C1532 C 0.87866 0.28018 0.63719 0.0
C1533 C 0.89607 0.27268 0.64615 0.0
C1534 C 0.88656 0.30266 0.62402 0.0
C1535 C 0.91203 0.31816 0.61965 0.0
C1536 C 0.92943 0.31094 0.62941 0.0
C1537 C 0.92155 0.28845 0.64232 0.0
C1538 C 0.92078 0.34184 0.60471 0.0
C1539 C 0.93781 0.36204 0.62129 0.0
C1540 C 0.91299 0.3446 0.57417 0.0
C1541 C 0.89599 0.32392 0.55475 0.0
C1542 C 0.90206 0.30583 0.54766 0.0
C1543 C 0.88588 0.28632 0.52951 0.0
C1544 C 0.86367 0.28479 0.51805 0.0
C1545 C 0.85762 0.30281 0.52466 0.0
C1546 C 0.87373 0.32235 0.54285 0.0
C1547 C 0.99355 0.44185 0.5415 0.0
C1548 C 0.98226 0.45575 0.5328 0.0
C1549 C 0.97972 0.41959 0.555 0.0
C1550 C 0.95414 0.41043 0.56023 0.0
C1551 C 0.94242 0.42372 0.5506 0.0
C1552 C 0.95641 0.44631 0.53712 0.0
C1553 C 0.94052 0.38746 0.57716 0.0
C1554 C 0.92277 0.36743 0.56094 0.0
C1555 C 0.94765 0.38474 0.60802 0.0
C1556 C 0.96553 0.40542 0.62678 0.0
C1557 C 0.96125 0.42487 0.63176 0.0
C1558 C 0.97833 0.44451 0.64892 0.0
C1559 C 0.99975 0.44488 0.66139 0.0
C1560 C 1.00405 0.42555 0.65681 0.0
C1561 C 0.98702 0.40585 0.63963 0.0
H1562 H 0.01298 0.46011 0.67467 0.0
H1563 H 0.85117 0.26967 0.50399 0.0
H1564 H 0.76523 0.65175 0.61777 0.0
H1565 H 0.72181 0.62965 0.60142 0.0
H1566 H 0.71534 0.56761 0.64882 0.0
H1567 H 0.75924 0.58976 0.6653 0.0
H1568 H 0.69163 0.55651 0.59029 0.0
H1569 H 0.69062 0.59893 0.68221 0.0
H1570 H 0.70379 0.63375 0.71686 0.0
H1571 H 0.68251 0.66852 0.64606 0.0
H1572 H 0.66953 0.63404 0.61078 0.0
H1573 H 0.55642 0.50283 0.57164 0.0
H1574 H 0.59904 0.51659 0.59181 0.0
H1575 H 0.62009 0.58678 0.55746 0.0
H1576 H 0.57805 0.57339 0.53789 0.0
H1577 H 0.63493 0.58955 0.61593 0.0
H1578 H 0.63939 0.54869 0.52238 0.0
H1579 H 0.62677 0.51422 0.4872 0.0
H1580 H 0.64137 0.47655 0.5608 0.0
H1581 H 0.65378 0.51072 0.59656 0.0
C1582 C 0.7547 0.6334 0.62482 0.0
C1583 C 0.76586 0.62266 0.64311 0.0
C1584 C 0.72973 0.62075 0.61545 0.0
C1585 C 0.71505 0.59697 0.62413 0.0
C1586 C 0.72619 0.58594 0.64184 0.0
C1587 C 0.75129 0.59868 0.65138 0.0
C1588 C 0.68806 0.58408 0.61501 0.0
C1589 C 0.6791 0.5635 0.59636 0.0
C1590 C 0.67163 0.59321 0.62255 0.0
C1591 C 0.67927 0.61395 0.64377 0.0
C1592 C 0.68891 0.61406 0.67394 0.0
C1593 C 0.69631 0.63373 0.69371 0.0
C1594 C 0.69403 0.65335 0.68365 0.0
C1595 C 0.68428 0.65332 0.65381 0.0
C1596 C 0.67686 0.6337 0.63394 0.0
C1597 C 0.57028 0.52109 0.56802 0.0
C1598 C 0.56367 0.53699 0.55325 0.0
C1599 C 0.59467 0.52897 0.57958 0.0
C1600 C 0.61296 0.55285 0.57636 0.0
C1601 C 0.60644 0.56838 0.56064 0.0
C1602 C 0.58227 0.5606 0.54931 0.0
C1603 C 0.6386 0.56237 0.59028 0.0
C1604 C 0.64732 0.58236 0.61004 0.0
C1605 C 0.65471 0.55267 0.58369 0.0
C1606 C 0.6472 0.53213 0.56226 0.0
C1607 C 0.63969 0.53298 0.53115 0.0
C1608 C 0.63262 0.51351 0.51108 0.0
C1609 C 0.63319 0.49318 0.52179 0.0
C1610 C 0.64089 0.49229 0.55256 0.0
C1611 C 0.64795 0.5117 0.57273 0.0
H1612 H 0.62772 0.47813 0.50621 0.0
H1613 H 0.69978 0.66856 0.69898 0.0
H1614 H 0.93479 0.65453 0.19434 0.0
H1615 H 0.96438 0.64378 0.17062 0.0
H1616 H 0.98162 0.69716 0.09945 0.0
H1617 H 0.95179 0.70818 0.12364 0.0
H1618 H 0.96951 0.65318 0.07424 0.0
H1619 H 0.0263 0.70358 0.15165 0.0
H1620 H 0.04056 0.7206 0.20457 0.0
H1621 H 0.02791 0.65286 0.23882 0.0
H1622 H 0.01322 0.63533 0.18624 0.0
H1623 H 0.04437 0.60243 0.01387 0.0
H1624 H 0.03508 0.63362 0.03354 0.0
H1625 H 1.00806 0.59508 0.12031 0.0
H1626 H 0.01705 0.56419 0.10074 0.0
H1627 H 0.03371 0.6416 0.13203 0.0
H1628 H 0.96929 0.59015 0.05929 0.0
H1629 H 0.95123 0.5714 1.00825 0.0
H1630 H 0.97562 0.63984 0.96676 0.0
H1631 H 0.9942 0.65901 0.01747 0.0
C1632 C 0.94539 0.66446 0.17415 0.0
C1633 C 0.94116 0.68236 0.16104 0.0
C1634 C 0.96236 0.65831 0.16058 0.0
C1635 C 0.97546 0.66973 0.13332 0.0
C1636 C 0.97188 0.68819 0.12061 0.0
C1637 C 0.95504 0.69464 0.13458 0.0
C1638 C 0.99093 0.66062 0.11706 0.0
C1639 C 0.98411 0.65129 0.0865 0.0
C1640 C 1.00961 0.65765 0.13325 0.0
C1641 C 0.01855 0.66812 0.16496 0.0
C1642 C 0.0264 0.69227 0.1705 0.0
C1643 C 0.03459 0.70201 0.20045 0.0
C1644 C 0.03512 0.68781 0.22505 0.0
C1645 C 0.0275 0.66384 0.21974 0.0
C1646 C 0.01928 0.654 0.18984 0.0
C1647 C 0.03713 0.60107 0.03745 0.0
C1648 C 0.03155 0.58097 0.05586 0.0
C1649 C 0.03155 0.61873 0.04856 0.0
C1650 C 0.02055 0.61663 0.07834 0.0
C1651 C 0.01648 0.59722 0.09731 0.0
C1652 C 0.02168 0.57955 0.08611 0.0
C1653 C 0.01177 0.63353 0.08958 0.0
C1654 C 0.01974 0.64419 0.11931 0.0
C1655 C 0.99399 0.63754 0.07273 0.0
C1656 C 0.9836 0.62603 0.042 0.0
C1657 C 0.97116 0.60121 0.03916 0.0
C1658 C 0.96074 0.5905 0.01032 0.0
C1659 C 0.96241 0.60442 0.98422 0.0
C1660 C 0.97448 0.62908 0.98693 0.0
C1661 C 0.98498 0.63988 0.01571 0.0
H1662 H 0.95424 0.59609 0.96195 0.0
H1663 H 0.04145 0.69539 0.24821 0.0
H1664 H 0.35623 0.23511 0.17668 0.0
H1665 H 0.3705 0.27591 0.15809 0.0
H1666 H 0.43714 0.27751 0.12137 0.0
H1667 H 0.42346 0.23761 0.14014 0.0
H1668 H 0.44932 0.31632 0.15261 0.0
H1669 H 0.38707 0.2713 0.0739 0.0
H1670 H 0.34486 0.24347 0.05506 0.0
H1671 H 0.31667 0.28783 0.09415 0.0
H1672 H 0.35869 0.31578 0.11358 0.0
H1673 H 0.49994 0.41077 0.04542 0.0
H1674 H 0.4785 0.37116 0.06786 0.0
H1675 H 0.42268 0.38666 0.10689 0.0
H1676 H 0.44427 0.42659 0.08514 0.0
H1677 H 0.40218 0.34117 0.08003 0.0
H1678 H 0.46583 0.38787 0.15448 0.0
H1679 H 0.50846 0.41575 0.17186 0.0
H1680 H 0.53429 0.36771 0.1397 0.0
H1681 H 0.49187 0.33968 0.1217 0.0
C1682 C 0.37385 0.2442 0.16453 0.0
C1683 C 0.38874 0.23309 0.16018 0.0
C1684 C 0.38199 0.2675 0.15382 0.0
C1685 C 0.405 0.27993 0.13827 0.0
C1686 C 0.41949 0.26855 0.13351 0.0
C1687 C 0.41154 0.24557 0.1443 0.0
C1688 C 0.41476 0.30493 0.1274 0.0
C1689 C 0.43899 0.32162 0.13655 0.0
C1690 C 0.40118 0.31225 0.10717 0.0
C1691 C 0.37595 0.29547 0.09552 0.0
C1692 C 0.37183 0.27501 0.07871 0.0
C1693 C 0.34795 0.25924 0.06788 0.0
C1694 C 0.32808 0.26384 0.07349 0.0
C1695 C 0.33206 0.28426 0.08988 0.0
C1696 C 0.35591 0.30008 0.10079 0.0
C1697 C 0.48323 0.40597 0.05891 0.0
C1698 C 0.47413 0.42225 0.06354 0.0
C1699 C 0.47088 0.38317 0.07165 0.0
C1700 C 0.44907 0.37595 0.08935 0.0
C1701 C 0.43945 0.39179 0.09329 0.0
C1702 C 0.45188 0.4147 0.0807 0.0
C1703 C 0.43694 0.35213 0.10448 0.0
C1704 C 0.41233 0.33582 0.09629 0.0
C1705 C 0.45019 0.34502 0.1255 0.0
C1706 C 0.4757 0.36176 0.13652 0.0
C1707 C 0.48063 0.38332 0.15091 0.0
C1708 C 0.50476 0.39914 0.1609 0.0
C1709 C 0.52408 0.39352 0.15683 0.0
C1710 C 0.51931 0.37204 0.14282 0.0
C1711 C 0.49522 0.35617 0.13275 0.0
H1712 H 0.54274 0.40579 0.16458 0.0
H1713 H 0.3096 0.25161 0.06508 0.0
H1714 H 0.7249 0.12941 0.18924 0.0
H1715 H 0.68599 0.09883 0.16743 0.0
H1716 H 0.72628 0.0713 0.11317 0.0
H1717 H 0.76584 0.1024 0.13515 0.0
H1718 H 0.69247 0.07677 0.07679 0.0
H1719 H 0.68873 0.0384 0.17289 0.0
H1720 H 0.69174 0.03384 0.23012 0.0
H1721 H 0.63338 0.05205 0.24585 0.0
H1722 H 0.63026 0.0571 0.18875 0.0
H1723 H 0.5661 0.99711 0.02392 0.0
H1724 H 0.60748 0.00866 0.04725 0.0
H1725 H 0.59675 0.05437 0.11289 0.0
H1726 H 0.55612 0.04323 0.08974 0.0
H1727 H 0.6176 0.02941 0.14149 0.0
H1728 H 0.62932 0.07617 0.0462 0.0
H1729 H 0.62681 0.08115 0.98894 0.0
H1730 H 0.67055 0.04593 0.97216 0.0
H1731 H 0.67302 0.04048 0.02936 0.0
C1732 C 0.72557 0.11663 0.17309 0.0
C1733 C 0.74853 0.11834 0.16403 0.0
C1734 C 0.7032 0.09901 0.16069 0.0
C1735 C 0.70301 0.0825 0.1388 0.0
C1736 C 0.72588 0.08373 0.13015 0.0
C1737 C 0.74846 0.10138 0.1429 0.0
C1738 C 0.67889 0.06533 0.12375 0.0
C1739 C 0.67625 0.06588 0.09091 0.0
C1740 C 0.65754 0.05115 0.142 0.0
C1741 C 0.65934 0.04822 0.17646 0.0
C1742 C 0.67665 0.0416 0.18855 0.0
C1743 C 0.67836 0.03891 0.22098 0.0
C1744 C 0.66277 0.04267 0.24161 0.0
C1745 C 0.64543 0.04913 0.22984 0.0
C1746 C 0.64366 0.05187 0.19743 0.0
C1747 C 0.5725 0.00929 0.04366 0.0
C1748 C 0.55792 0.01935 0.0549 0.0
C1749 C 0.59618 0.016 0.05685 0.0
C1750 C 0.60537 0.03254 0.08177 0.0
C1751 C 0.59019 0.04161 0.09378 0.0
C1752 C 0.56694 0.03527 0.08039 0.0
C1753 C 0.6311 0.04168 0.09483 0.0
C1754 C 0.63399 0.03969 0.12734 0.0
C1755 C 0.65265 0.05442 0.07628 0.0
C1756 C 0.65104 0.05761 0.04197 0.0
C1757 C 0.63818 0.06928 0.03027 0.0
C1758 C 0.63682 0.07224 0.99784 0.0
C1759 C 0.64843 0.06378 0.97691 0.0
C1760 C 0.6615 0.05241 0.98839 0.0
C1761 C 0.66289 0.04938 0.0208 0.0
H1762 H 0.64738 0.06611 0.95182 0.0
H1763 H 0.66411 0.04055 0.26671 0.0
H1764 H 0.58511 0.0141 0.4625 0.0
H1765 H 0.61675 1.00385 0.44227 0.0
H1766 H 0.57654 0.93442 0.48341 0.0
H1767 H 0.54533 0.94442 0.50323 0.0
H1768 H 0.62573 0.95222 0.49326 0.0
H1769 H 0.57056 0.9435 0.40588 0.0
H1770 H 0.55026 0.95757 0.36725 0.0
H1771 H 0.62176 0.00825 0.33213 0.0
H1772 H 0.6425 0.99466 0.37086 0.0
H1773 H 0.6403 0.86551 0.41215 0.0
H1774 H 0.62589 0.89222 0.43269 0.0
H1775 H 0.6857 0.9508 0.38524 0.0
H1776 H 0.70058 0.92375 0.36434 0.0
H1777 H 0.63668 0.94827 0.3781 0.0
H1778 H 0.69064 0.94977 0.46078 0.0
H1779 H 0.70847 0.93245 0.49821 0.0
H1780 H 0.63707 0.89301 0.54185 0.0
H1781 H 0.61871 0.9098 0.50439 0.0
C1782 C 0.58334 0.99684 0.46759 0.0
C1783 C 0.56268 0.98008 0.48445 0.0
C1784 C 0.6013 0.9909 0.45583 0.0
C1785 C 0.599 0.96824 0.4611 0.0
C1786 C 0.57886 0.95199 0.47898 0.0
C1787 C 0.56093 0.95775 0.49027 0.0
C1788 C 0.61673 0.96061 0.44756 0.0
C1789 C 0.62821 0.9515 0.46807 0.0
C1790 C 0.62052 0.96007 0.4147 0.0
C1791 C 0.60808 0.96832 0.39156 0.0
C1792 C 0.58196 0.95781 0.39013 0.0
C1793 C 0.57037 0.96566 0.36818 0.0
C1794 C 0.58471 0.98387 0.34735 0.0
C1795 C 0.61068 0.9942 0.34836 0.0
C1796 C 0.62236 0.98644 0.3703 0.0
C1797 C 0.6506 0.88407 0.40603 0.0
C1798 C 0.67168 0.89243 0.38653 0.0
C1799 C 0.64229 0.89939 0.41794 0.0
C1800 C 0.65471 0.92359 0.41072 0.0
C1801 C 0.67581 0.93219 0.39119 0.0
C1802 C 0.6844 0.91676 0.37943 0.0
C1803 C 0.64504 0.93932 0.42384 0.0
C1804 C 0.63492 0.94975 0.4033 0.0
C1805 C 0.64224 0.9409 0.45672 0.0
C1806 C 0.65328 0.931 0.47966 0.0
C1807 C 0.67871 0.93731 0.47825 0.0
C1808 C 0.68891 0.92759 0.49948 0.0
C1809 C 0.67391 0.91162 0.52237 0.0
C1810 C 0.64868 0.90539 0.52412 0.0
C1811 C 0.63837 0.91504 0.50292 0.0
H1812 H 0.68184 0.9041 0.53877 0.0
H1813 H 0.57571 0.98992 0.33038 0.0
H1814 H 0.99752 0.57366 0.43363 0.0
H1815 H 1.00189 0.61069 0.41036 0.0
H1816 H 0.05136 0.65053 0.48618 0.0
H1817 H 0.04727 0.61396 0.50892 0.0
H1818 H 0.02035 0.66897 0.4691 0.0
H1819 H 0.07371 0.64109 0.41813 0.0
H1820 H 0.08064 0.61213 0.38728 0.0
H1821 H 0.03657 0.61708 0.31145 0.0
H1822 H 0.02909 0.64583 0.34211 0.0
H1823 H 0.12051 0.77691 0.42974 0.0
H1824 H 0.08895 0.73729 0.4444 0.0
H1825 H 0.05695 0.72658 0.35122 0.0
H1826 H 0.08882 0.76686 0.33647 0.0
H1827 H 0.06635 0.69061 0.36813 0.0
H1828 H 0.02032 0.72471 0.41396 0.0
H1829 H 0.01207 0.753 0.44441 0.0
H1830 H 0.04005 0.73622 0.52817 0.0
H1831 H 0.04865 0.70795 0.49818 0.0
C1832 C 1.00861 0.59029 0.44576 0.0
C1833 C 0.02193 0.591 0.47318 0.0
C1834 C 0.0113 0.61144 0.43234 0.0
C1835 C 0.02715 0.63349 0.44637 0.0
C1836 C 0.039 0.63385 0.47491 0.0
C1837 C 0.03663 0.61291 0.48793 0.0
C1838 C 0.03369 0.65645 0.43049 0.0
C1839 C 0.03023 0.67368 0.44691 0.0
C1840 C 0.0459 0.66245 0.40098 0.0
C1841 C 0.05055 0.64532 0.38256 0.0
C1842 C 0.06534 0.63585 0.39499 0.0
C1843 C 0.06938 0.61949 0.37753 0.0
C1844 C 0.05897 0.61269 0.34747 0.0
C1845 C 0.04456 0.6223 0.33477 0.0
C1846 C 0.0404 0.63861 0.35218 0.0
C1847 C 0.10632 0.76639 0.4126 0.0
C1848 C 0.10703 0.77504 0.38204 0.0
C1849 C 0.08817 0.7437 0.42105 0.0
C1850 C 0.07032 0.72885 0.39907 0.0
C1851 C 0.07039 0.73773 0.3687 0.0
C1852 C 0.08846 0.76078 0.36034 0.0
C1853 C 0.05383 0.70347 0.40737 0.0
C1854 C 0.05561 0.68579 0.38969 0.0
C1855 C 0.03988 0.69699 0.43561 0.0
C1856 C 0.03524 0.71429 0.45376 0.0
C1857 C 0.02491 0.72719 0.43882 0.0
C1858 C 0.02012 0.74319 0.45601 0.0
C1859 C 0.0256 0.74645 0.48818 0.0
C1860 C 0.03585 0.7337 0.50324 0.0
C1861 C 0.04064 0.71765 0.48616 0.0
H1862 H 0.02183 0.75881 0.50147 0.0
H1863 H 0.06213 0.60003 0.33399 0.0
H1864 H 0.22222 0.32925 0.39611 0.0
H1865 H 0.26223 0.33993 0.42247 0.0
H1866 H 0.29227 0.4108 0.38564 0.0
H1867 H 0.25307 0.40019 0.35908 0.0
H1868 H 0.32751 0.39941 0.38524 0.0
H1869 H 0.268 0.39654 0.46229 0.0
H1870 H 0.22879 0.37785 0.4922 0.0
H1871 H 0.24653 0.32436 0.52533 0.0
H1872 H 0.28596 0.34282 0.49557 0.0
H1873 H 0.39007 0.46338 0.53771 0.0
H1874 H 0.35291 0.43584 0.50928 0.0
H1875 H 0.39575 0.40927 0.45855 0.0
H1876 H 0.43358 0.43761 0.48677 0.0
H1877 H 0.32515 0.39107 0.50141 0.0
H1878 H 0.37184 0.39585 0.3822 0.0
H1879 H 0.41053 0.42173 0.35375 0.0
H1880 H 0.41755 0.48188 0.40624 0.0
H1881 H 0.37869 0.45642 0.43461 0.0
C1882 C 0.23756 0.34693 0.39316 0.0
C1883 C 0.23431 0.36388 0.37564 0.0
C1884 C 0.2604 0.35311 0.40843 0.0
C1885 C 0.28037 0.37634 0.40647 0.0
C1886 C 0.27737 0.39278 0.38763 0.0
C1887 C 0.25474 0.38667 0.37253 0.0
C1888 C 0.30378 0.38448 0.42552 0.0
C1889 C 0.32698 0.39722 0.4106 0.0
C1890 C 0.30336 0.3821 0.45871 0.0
C1891 C 0.27971 0.37085 0.47644 0.0
C1892 C 0.26344 0.3807 0.47579 0.0
C1893 C 0.24121 0.37017 0.49273 0.0
C1894 C 0.23511 0.34985 0.5105 0.0
C1895 C 0.25128 0.34006 0.51148 0.0
C1896 C 0.27358 0.35057 0.49463 0.0
C1897 C 0.39163 0.45144 0.52088 0.0
C1898 C 0.41491 0.45288 0.51438 0.0
C1899 C 0.37022 0.43555 0.50465 0.0
C1900 C 0.37137 0.42058 0.48132 0.0
C1901 C 0.39433 0.42084 0.4761 0.0
C1902 C 0.41594 0.43689 0.49246 0.0
C1903 C 0.34885 0.40642 0.46122 0.0
C1904 C 0.32581 0.39258 0.47595 0.0
C1905 C 0.34936 0.4086 0.42796 0.0
C1906 C 0.37257 0.42415 0.41082 0.0
C1907 C 0.38163 0.4146 0.38761 0.0
C1908 C 0.40356 0.4292 0.37149 0.0
C1909 C 0.41653 0.45342 0.37827 0.0
C1910 C 0.40752 0.46311 0.40109 0.0
C1911 C 0.38555 0.4486 0.41719 0.0
H1912 H 0.43349 0.46467 0.36577 0.0
H1913 H 0.21794 0.34178 0.52364 0.0
H1914 H 0.88671 0.75897 0.24346 0.0
H1915 H 0.87237 0.78362 0.27179 0.0
H1916 H 0.82721 0.78063 0.19182 0.0
H1917 H 0.84163 0.75638 0.16335 0.0
H1918 H 0.84821 0.8242 0.21824 0.0
H1919 H 0.80253 0.74323 0.25492 0.0
H1920 H 0.79991 0.70671 0.27751 0.0
H1921 H 0.83708 0.74465 0.36136 0.0
H1922 H 0.84024 0.78152 0.33904 0.0
H1923 H 0.75558 0.84776 0.28506 0.0
H1924 H 0.78068 0.83283 0.25821 0.0
H1925 H 0.81432 0.83055 0.34681 0.0
H1926 H 0.78834 0.84446 0.37394 0.0
H1927 H 0.80318 0.79208 0.31831 0.0
H1928 H 0.84641 0.87254 0.28437 0.0
H1929 H 0.85112 0.90978 0.2616 0.0
H1930 H 0.82087 0.87437 0.17376 0.0
H1931 H 0.81569 0.83683 0.19612 0.0
C1932 C 0.8741 0.76394 0.23168 0.0
C1933 C 0.86526 0.75554 0.20112 0.0
C1934 C 0.86575 0.77791 0.24801 0.0
C1935 C 0.84834 0.78374 0.23419 0.0
C1936 C 0.84055 0.77638 0.20312 0.0
C1937 C 0.84881 0.76241 0.18686 0.0
C1938 C 0.83707 0.79629 0.25238 0.0
C1939 C 0.83824 0.81712 0.24004 0.0
C1940 C 0.82454 0.78747 0.28128 0.0
C1941 C 0.82186 0.76517 0.29517 0.0
C1942 C 0.81023 0.7438 0.27812 0.0
C1943 C 0.80865 0.72305 0.29087 0.0
C1944 C 0.81843 0.72339 0.32078 0.0
C1945 C 0.82959 0.74444 0.33815 0.0
C1946 C 0.83126 0.76527 0.32547 0.0
C1947 C 0.76869 0.84456 0.29878 0.0
C1948 C 0.77 0.84748 0.33171 0.0
C1949 C 0.78316 0.83601 0.28333 0.0
C1950 C 0.7998 0.8307 0.30025 0.0
C1951 C 0.80168 0.83438 0.33304 0.0
C1952 C 0.78691 0.84254 0.34856 0.0
C1953 C 0.8141 0.82008 0.28412 0.0
C1954 C 0.81341 0.79948 0.29677 0.0
C1955 C 0.82725 0.82925 0.25563 0.0
C1956 C 0.8305 0.85183 0.24202 0.0
C1957 C 0.84063 0.87266 0.26026 0.0
C1958 C 0.8434 0.89383 0.24741 0.0
C1959 C 0.83625 0.89443 0.21627 0.0
C1960 C 0.82638 0.87388 0.19788 0.0
C1961 C 0.82356 0.85266 0.21062 0.0
H1962 H 0.8384 0.91083 0.20638 0.0
H1963 H 0.81737 0.70735 0.33047 0.0
H1964 H 0.31219 0.10716 0.28277 0.0
H1965 H 0.28056 0.06846 0.3012 0.0
H1966 H 0.25073 0.05048 0.20697 0.0
H1967 H 0.28202 0.08986 0.18871 0.0
H1968 H 0.21351 0.02871 0.25264 0.0
H1969 H 0.29396 0.03555 0.23 0.0
H1970 H 0.33976 0.05435 0.23361 0.0
H1971 H 0.33515 0.04421 0.33378 0.0
H1972 H 0.28932 0.02557 0.33079 0.0
H1973 H 0.16738 0.90223 0.28009 0.0
H1974 H 0.1843 0.94294 0.25994 0.0
H1975 H 0.22563 0.96973 0.34647 0.0
H1976 H 0.20953 0.92939 0.36586 0.0
H1977 H 0.25569 0.98633 0.29972 0.0
H1978 H 0.17507 0.97916 0.3228 0.0
H1979 H 0.12932 0.96107 0.31947 0.0
H1980 H 0.13375 0.97146 0.21936 0.0
H1981 H 0.17953 0.98935 0.22205 0.0
C1982 C 0.29823 0.09531 0.26627 0.0
C1983 C 0.29936 0.10154 0.23442 0.0
C1984 C 0.28028 0.0731 0.27673 0.0
C1985 C 0.26358 0.05626 0.25536 0.0
C1986 C 0.26342 0.0631 0.22392 0.0
C1987 C 0.28121 0.08564 0.21351 0.0
C1988 C 0.2488 0.03098 0.26522 0.0
C1989 C 0.22269 0.01931 0.26263 0.0
C1990 C 0.26069 0.01865 0.27843 0.0
C1991 C 0.28823 0.02929 0.28018 0.0
C1992 C 0.30273 0.0374 0.2528 0.0
C1993 C 0.32869 0.04802 0.25473 0.0
C1994 C 0.34036 0.05049 0.2839 0.0
C1995 C 0.32609 0.04227 0.31119 0.0
C1996 C 0.30012 0.03164 0.30939 0.0
C1997 C 0.17943 0.91693 0.29508 0.0
C1998 C 0.18707 0.91271 0.32458 0.0
C1999 C 0.18919 0.94021 0.28355 0.0
C2000 C 0.20643 0.95959 0.30158 0.0
C2001 C 0.21261 0.95524 0.33189 0.0
C2002 C 0.20324 0.93214 0.34309 0.0
C2003 C 0.22016 0.98407 0.28829 0.0
C2004 C 0.2463 0.99559 0.28986 0.0
C2005 C 0.20821 0.99609 0.27423 0.0
C2006 C 0.18071 0.98535 0.27259 0.0
C2007 C 0.16628 0.9774 0.30004 0.0
C2008 C 0.14034 0.96722 0.29828 0.0
C2009 C 0.12863 0.96505 0.26921 0.0
C2010 C 0.14284 0.97312 0.24185 0.0
C2011 C 0.16879 0.9833 0.24349 0.0
H2012 H 0.10855 0.95717 0.26789 0.0
H2013 H 0.36046 0.05875 0.28536 0.0
H2014 H 0.10039 0.26829 0.30157 0.0
H2015 H 0.05978 0.23905 0.27962 0.0
H2016 H 0.0256 0.27842 0.31969 0.0
H2017 H 0.06543 0.30701 0.34159 0.0
H2018 H 0.99538 0.23295 0.32603 0.0
H2019 H 0.04603 0.28473 0.24181 0.0
H2020 H 0.08267 0.30178 0.20697 0.0
H2021 H 0.06392 0.23234 0.17243 0.0
H2022 H 0.02742 0.21484 0.2075 0.0
H2023 H 0.9018 0.23304 0.23216 0.0
H2024 H 0.94203 0.24272 0.25511 0.0
H2025 H 0.93681 0.17786 0.21836 0.0
H2026 H 0.89558 0.16758 0.19539 0.0
H2027 H 0.98648 0.22475 0.20988 0.0
H2028 H 0.92903 0.17543 0.28777 0.0
H2029 H 0.89212 0.16135 0.32183 0.0
H2030 H 0.92375 0.22882 0.36855 0.0
H2031 H 0.96044 0.24364 0.33403 0.0
C2032 C 0.08405 0.2703 0.30622 0.0
C2033 C 0.08616 0.29001 0.32325 0.0
C2034 C 0.06088 0.25372 0.29343 0.0
C2035 C 0.03952 0.25659 0.29765 0.0
C2036 C 0.04161 0.27566 0.31601 0.0
C2037 C 0.06454 0.29212 0.32848 0.0
C2038 C 0.01507 0.24092 0.28202 0.0
C2039 C 0.9935 0.23104 0.30064 0.0
C2040 C 0.01244 0.23786 0.24887 0.0
C2041 C 0.03422 0.24844 0.2276 0.0
C2042 C 0.04985 0.27309 0.22698 0.0
C2043 C 0.07059 0.28283 0.20722 0.0
C2044 C 0.07568 0.26813 0.18765 0.0
C2045 C 0.06 0.24369 0.18771 0.0
C2046 C 0.03931 0.23384 0.20754 0.0
C2047 C 0.90905 0.22072 0.2287 0.0
C2048 C 0.89532 0.19947 0.21179 0.0
C2049 C 0.93216 0.22634 0.24197 0.0
C2050 C 0.94248 0.21107 0.23854 0.0
C2051 C 0.92919 0.18994 0.22126 0.0
C2052 C 0.90562 0.18404 0.20827 0.0
C2053 C 0.96693 0.21757 0.25394 0.0
C2054 C 0.98843 0.22592 0.23532 0.0
C2055 C 0.96954 0.21958 0.28712 0.0
C2056 C 0.94746 0.21071 0.30807 0.0
C2057 C 0.928 0.18739 0.30502 0.0
C2058 C 0.90708 0.17928 0.32441 0.0
C2059 C 0.90551 0.19423 0.34721 0.0
C2060 C 0.92489 0.21731 0.35072 0.0
C2061 C 0.94576 0.22558 0.33123 0.0
H2062 H 0.88933 0.18791 0.36223 0.0
H2063 H 0.0917 0.27567 0.1723 0.0
H2064 H 0.3028 0.181 0.74603 0.0
H2065 H 0.28458 0.20588 0.76232 0.0
H2066 H 0.34664 0.26694 0.72229 0.0
H2067 H 0.36517 0.24196 0.70571 0.0
H2068 H 0.33248 0.27637 0.782 0.0
H2069 H 0.29387 0.24372 0.68321 0.0
H2070 H 0.27212 0.21227 0.64372 0.0
H2071 H 0.21013 0.1773 0.70627 0.0
H2072 H 0.23167 0.20836 0.74634 0.0
H2073 H 0.25973 0.3393 0.80333 0.0
H2074 H 0.28716 0.3241 0.78237 0.0
H2075 H 0.2315 0.25286 0.80428 0.0
H2076 H 0.20434 0.26766 0.82445 0.0
H2077 H 0.2466 0.25411 0.74655 0.0
H2078 H 0.28705 0.28418 0.84734 0.0
H2079 H 0.30884 0.31512 0.88747 0.0
H2080 H 0.36702 0.35483 0.82156 0.0
H2081 H 0.34539 0.32423 0.78091 0.0
C2082 C 0.31269 0.19971 0.74061 0.0
C2083 C 0.33544 0.20938 0.72431 0.0
C2084 C 0.30217 0.21396 0.74996 0.0
C2085 C 0.31407 0.23831 0.74334 0.0
C2086 C 0.33707 0.24821 0.72765 0.0
C2087 C 0.34757 0.23387 0.71804 0.0
C2088 C 0.30194 0.25297 0.75235 0.0
C2089 C 0.31387 0.2718 0.77382 0.0
C2090 C 0.27757 0.24698 0.74196 0.0
C2091 C 0.26448 0.2283 0.71787 0.0
C2092 C 0.27568 0.22923 0.68864 0.0
C2093 C 0.26338 0.21149 0.66613 0.0
C2094 C 0.23978 0.19278 0.6725 0.0
C2095 C 0.22842 0.1918 0.70138 0.0
C2096 C 0.24065 0.20949 0.72398 0.0
C2097 C 0.25356 0.32045 0.80397 0.0
C2098 C 0.22972 0.30473 0.81537 0.0
C2099 C 0.26924 0.31175 0.79198 0.0
C2100 C 0.26142 0.28722 0.79151 0.0
C2101 C 0.23798 0.27178 0.80392 0.0
C2102 C 0.22241 0.28036 0.81558 0.0
C2103 C 0.27668 0.27698 0.77722 0.0
C2104 C 0.26533 0.25895 0.75453 0.0
C2105 C 0.30149 0.28372 0.78659 0.0
C2106 C 0.31446 0.30208 0.81099 0.0
C2107 C 0.30438 0.29961 0.84133 0.0
C2108 C 0.31672 0.31706 0.86419 0.0
C2109 C 0.33925 0.33697 0.85704 0.0
C2110 C 0.34953 0.33943 0.82704 0.0
C2111 C 0.33725 0.32203 0.8041 0.0
H2112 H 0.34878 0.35045 0.87477 0.0
H2113 H 0.23028 0.17906 0.65505 0.0
H2114 H 0.84759 0.09853 0.74368 0.0
H2115 H 0.8252 0.05746 0.75959 0.0
H2116 H 0.76284 0.04722 0.70146 0.0
H2117 H 0.78538 0.08857 0.6846 0.0
H2118 H 0.74844 0.02671 0.7617 0.0
H2119 H 0.79848 0.025 0.67654 0.0
H2120 H 0.83697 0.03792 0.64584 0.0
H2121 H 0.87137 0.02182 0.72378 0.0
H2122 H 0.8332 0.00912 0.75512 0.0
H2123 H 0.69682 0.8998 0.79085 0.0
H2124 H 0.70999 0.93893 0.76693 0.0
H2125 H 0.78339 0.96394 0.80681 0.0
H2126 H 0.77063 0.92526 0.82983 0.0
H2127 H 0.78746 0.97485 0.74748 0.0
H2128 H 0.73961 0.98091 0.83456 0.0
H2129 H 0.70174 0.96885 0.86631 0.0
H2130 H 0.66363 0.97691 0.78583 0.0
H2131 H 0.70121 0.98875 0.7535 0.0
C2132 C 0.82931 0.08776 0.73371 0.0
C2133 C 0.81859 0.09729 0.71247 0.0
C2134 C 0.8164 0.06409 0.7431 0.0
C2135 C 0.79237 0.04912 0.7316 0.0
C2136 C 0.78136 0.05843 0.71071 0.0
C2137 C 0.79436 0.08218 0.70109 0.0
C2138 C 0.77919 0.02378 0.74145 0.0
C2139 C 0.7567 0.01518 0.7581 0.0
C2140 C 0.79005 0.00877 0.7371 0.0
C2141 C 0.81301 0.01625 0.71825 0.0
C2142 C 0.8143 0.02437 0.68721 0.0
C2143 C 0.83606 0.03163 0.66968 0.0
C2144 C 0.85661 0.03073 0.68287 0.0
C2145 C 0.85543 0.02251 0.71359 0.0
C2146 C 0.83373 0.01525 0.73124 0.0
C2147 C 0.71563 0.91381 0.79483 0.0
C2148 C 0.73271 0.90936 0.81208 0.0
C2149 C 0.72317 0.93617 0.78114 0.0
C2150 C 0.7478 0.9545 0.78487 0.0
C2151 C 0.76441 0.95016 0.80317 0.0
C2152 C 0.75702 0.92795 0.81645 0.0
C2153 C 0.75715 0.97795 0.76889 0.0
C2154 C 0.77895 0.98619 0.75085 0.0
C2155 C 0.74568 0.99257 0.77214 0.0
C2156 C 0.72311 0.98542 0.79153 0.0
C2157 C 0.72308 0.9799 0.82358 0.0
C2158 C 0.70169 0.97315 0.84169 0.0
C2159 C 0.68026 0.97203 0.82807 0.0
C2160 C 0.68022 0.97773 0.79633 0.0
C2161 C 0.70156 0.98447 0.77811 0.0
H2162 H 0.66372 0.96681 0.84213 0.0
H2163 H 0.87344 0.03636 0.66926 0.0
H2164 H 0.09473 0.7655 0.78797 0.0
H2165 H 0.05483 0.73981 0.7615 0.0
H2166 H 0.01548 0.75245 0.83705 0.0
H2167 H 0.05491 0.77792 0.86322 0.0
H2168 H 0.99116 0.70636 0.81732 0.0
H2169 H 0.02999 0.78487 0.7699 0.0
H2170 H 0.06404 0.81801 0.74191 0.0
H2171 H 0.05595 0.77196 0.6642 0.0
H2172 H 0.02206 0.73845 0.69197 0.0
H2173 H 0.88222 0.70686 0.7635 0.0
H2174 H 0.92213 0.71264 0.78419 0.0
H2175 H 0.93864 0.69182 0.69448 0.0
H2176 H 0.89823 0.68572 0.67387 0.0
H2177 H 0.97627 0.73442 0.71472 0.0
H2178 H 0.93211 0.6579 0.75724 0.0
H2179 H 0.90105 0.62305 0.78582 0.0
H2180 H 0.91973 0.66313 0.87185 0.0
H2181 H 0.9507 0.69839 0.84376 0.0
C2182 C 0.0775 0.76225 0.79925 0.0
C2183 C 0.07797 0.77372 0.8277 0.0
C2184 C 0.05472 0.74775 0.78398 0.0
C2185 C 0.03207 0.74436 0.79709 0.0
C2186 C 0.03259 0.75473 0.82639 0.0
C2187 C 0.05521 0.76934 0.84134 0.0
C2188 C 1.00781 0.73146 0.7799 0.0
C2189 C 0.98785 0.71251 0.79492 0.0
C2190 C 1.00366 0.73887 0.75006 0.0
C2191 C 0.02371 0.7591 0.73317 0.0
C2192 C 0.03558 0.78178 0.74694 0.0
C2193 C 0.05484 0.80063 0.7311 0.0
C2194 C 0.06222 0.79708 0.70134 0.0
C2195 C 0.05026 0.77468 0.68729 0.0
C2196 C 0.03103 0.75575 0.70306 0.0
C2197 C 0.89397 0.70266 0.74855 0.0
C2198 C 0.8867 0.69502 0.71742 0.0
C2199 C 0.91685 0.70603 0.76038 0.0
C2200 C 0.93346 0.70249 0.74107 0.0
C2201 C 0.92608 0.69441 0.71 0.0
C2202 C 0.90281 0.69056 0.69834 0.0
C2203 C 0.95928 0.70975 0.75272 0.0
C2204 C 0.97955 0.72781 0.73677 0.0
C2205 C 0.96374 0.70144 0.7817 0.0
C2206 C 0.94378 0.68085 0.79831 0.0
C2207 C 0.92939 0.65942 0.78216 0.0
C2208 C 0.9119 0.63954 0.79832 0.0
C2209 C 0.90865 0.64083 0.83068 0.0
C2210 C 0.92249 0.66212 0.84684 0.0
C2211 C 0.94 0.68207 0.8308 0.0
H2212 H 0.89534 0.62533 0.84322 0.0
H2213 H 0.07715 0.81169 0.68914 0.0
loop_
_geom_bond_atom_site_label_1
_geom_bond_atom_site_label_2
_geom_bond_distance
_geom_bond_site_symmetry_2
_ccdc_geom_bond_type
Cu0 N1 1.999 1_554 S
Cu0 O6 1.974 1_554 S
Cu0 N11 1.985 . S
Cu0 O20 1.959 . S
N1 Cu0 1.999 1_556 S
N1 C3 1.263 . S
N1 C5 1.389 . S
N2 C3 1.358 . S
N2 C4 1.400 . S
C3 N1 1.263 . S
C3 N2 1.358 . S
C3 H9 0.930 . S
C4 N2 1.400 . S
C4 C5 1.351 . S
C4 H21 0.930 . S
C5 N1 1.389 . S
C5 C4 1.351 . S
C5 H10 0.930 . S
O6 Cu0 1.974 1_556 S
O6 C16 1.282 . S
C7 O8 1.261 . S
C7 O20 1.251 1_655 S
O8 C7 1.261 . S
H9 C3 0.930 . S
H10 C5 0.930 . S
N11 Cu0 1.985 . S
N11 C13 1.335 . S
N11 C14 1.390 . S
N12 C13 1.345 . S
N12 C15 1.336 . S
C13 N11 1.335 . S
C13 N12 1.345 . S
C13 H18 0.930 . S
C14 N11 1.390 . S
C14 C15 1.346 . S
C14 H19 0.930 . S
C15 N12 1.336 . S
C15 C14 1.346 . S
C15 H22 0.929 . S
C16 O6 1.282 . S
C16 O17 1.216 . S
O17 C16 1.216 . S
H18 C13 0.930 . S
H19 C14 0.930 . S
O20 Cu0 1.959 . S
O20 C7 1.251 1_455 S
H21 C4 0.930 . S
H22 C15 0.929 . S
Cu23 N24 1.999 . S
Cu23 O29 1.974 . S
Cu23 N34 1.985 . S
Cu23 O43 1.959 1_554 S
N24 Cu23 1.999 . S
N24 C26 1.263 . S
N24 C28 1.389 1_554 S
N25 C26 1.358 . S
N25 C27 1.400 . S
C26 N24 1.263 . S
C26 N25 1.358 . S
C26 H32 0.930 . S
C27 N25 1.400 . S
C27 C28 1.351 1_554 S
C27 H44 0.930 1_554 S
C28 N24 1.389 1_556 S
C28 C27 1.351 1_556 S
C28 H33 0.930 . S
O29 Cu23 1.974 . S
O29 C39 1.282 . S
C30 O31 1.261 . S
C30 O43 1.251 . S
O31 C30 1.261 . S
H32 C26 0.930 . S
H33 C28 0.930 . S
N34 Cu23 1.985 . S
N34 C36 1.335 1_554 S
N34 C37 1.390 . S
N35 C36 1.345 . S
N35 C38 1.336 1_556 S
C36 N34 1.335 1_556 S
C36 N35 1.345 . S
C36 H41 0.930 . S
C37 N34 1.390 . S
C37 C38 1.346 . S
C37 H42 0.930 . S
C38 N35 1.336 1_554 S
C38 C37 1.346 . S
C38 H45 0.929 . S
C39 O29 1.282 . S
C39 O40 1.216 . S
O40 C39 1.216 . S
H41 C36 0.930 . S
H42 C37 0.930 . S
O43 Cu23 1.959 1_556 S
O43 C30 1.251 . S
H44 C27 0.930 1_556 S
H45 C38 0.929 . S
Cu46 N47 1.999 1_554 S
Cu46 O52 1.974 1_544 S
Cu46 N57 1.985 . S
Cu46 O66 1.959 . S
N47 Cu46 1.999 1_556 S
N47 C49 1.263 . S
N47 C51 1.389 . S
N48 C49 1.358 . S
N48 C50 1.400 . S
C49 N47 1.263 . S
C49 N48 1.358 . S
C49 H55 0.930 . S
C50 N48 1.400 . S
C50 C51 1.351 . S
C50 H67 0.930 . S
C51 N47 1.389 . S
C51 C50 1.351 . S
C51 H56 0.930 . S
O52 Cu46 1.974 1_566 S
O52 C62 1.260 1_565 S
C53 O54 1.261 . S
C53 O66 1.251 . S
O54 C53 1.261 . S
H55 C49 0.930 . S
H56 C51 0.930 . S
N57 Cu46 1.985 . S
N57 C59 1.335 . S
N57 C60 1.390 . S
N58 C59 1.345 . S
N58 C61 1.336 . S
C59 N57 1.335 . S
C59 N58 1.345 . S
C59 H64 0.930 . S
C60 N57 1.390 . S
C60 C61 1.346 . S
C60 H65 0.923 . S
C61 N58 1.336 . S
C61 C60 1.346 . S
C61 H68 0.929 . S
C62 O52 1.260 1_545 S
C62 O63 1.243 . S
O63 C62 1.243 . S
H64 C59 0.930 . S
H65 C60 0.923 . S
O66 Cu46 1.959 . S
O66 C53 1.251 . S
H67 C50 0.930 . S
H68 C61 0.929 . S
Cu69 N70 1.999 . S
Cu69 O75 1.974 . S
Cu69 N80 1.985 . S
Cu69 O89 1.959 . S
N70 Cu69 1.999 . S
N70 C72 1.263 . S
N70 C74 1.389 . S
N71 C72 1.358 . S
N71 C73 1.400 . S
C72 N70 1.263 . S
C72 N71 1.358 . S
C72 H78 0.930 . S
C73 N71 1.400 . S
C73 C74 1.351 . S
C73 H90 0.930 . S
C74 N70 1.389 . S
C74 C73 1.351 . S
C74 H79 0.930 . S
O75 Cu69 1.974 . S
O75 C85 1.282 1_545 S
C76 O77 1.261 . S
C76 O89 1.251 . S
O77 C76 1.261 . S
H78 C72 0.930 . S
H79 C74 0.930 . S
N80 Cu69 1.985 . S
N80 C82 1.335 . S
N80 C83 1.390 1_545 S
N81 C82 1.345 . S
N81 C84 1.336 1_545 S
C82 N80 1.335 . S
C82 N81 1.345 . S
C82 H87 0.930 . S
C83 N80 1.390 1_565 S
C83 C84 1.346 . S
C83 H88 0.930 . S
C84 N81 1.336 1_565 S
C84 C83 1.346 . S
C84 H91 0.929 . S
C85 O75 1.282 1_565 S
C85 O86 1.216 . S
O86 C85 1.216 . S
H87 C82 0.930 . S
H88 C83 0.930 . S
O89 Cu69 1.959 . S
O89 C76 1.251 . S
H90 C73 0.930 . S
H91 C84 0.929 . S
Cu92 N93 1.999 . S
Cu92 O98 1.974 . S
Cu92 N103 1.985 . S
Cu92 O112 1.959 1_655 S
N93 Cu92 1.999 . S
N93 C95 1.263 . S
N93 C97 1.389 . S
N94 C95 1.358 . S
N94 C96 1.400 . S
C95 N93 1.263 . S
C95 N94 1.358 . S
C95 H101 0.930 . S
C96 N94 1.400 . S
C96 C97 1.351 . S
C96 H113 0.930 . S
C97 N93 1.389 . S
C97 C96 1.351 . S
C97 H102 0.930 . S
O98 Cu92 1.974 . S
O98 C108 1.282 . S
C99 O100 1.261 . S
C99 O112 1.251 . S
O100 C99 1.261 . S
H101 C95 0.930 . S
H102 C97 0.930 . S
N103 Cu92 1.985 . S
N103 C105 1.335 . S
N103 C106 1.390 . S
N104 C105 1.345 . S
N104 C107 1.336 . S
C105 N103 1.335 . S
C105 N104 1.345 . S
C105 H110 0.930 . S
C106 N103 1.390 . S
C106 C107 1.346 . S
C106 H111 0.930 . S
C107 N104 1.336 . S
C107 C106 1.346 . S
C107 H114 0.929 . S
C108 O98 1.282 . S
C108 O109 1.216 1_655 S
O109 C108 1.216 1_455 S
H110 C105 0.930 . S
H111 C106 0.930 . S
O112 Cu92 1.959 1_455 S
O112 C99 1.251 . S
H113 C96 0.930 . S
H114 C107 0.929 . S
Cu115 N116 1.999 . S
Cu115 O121 1.974 . S
Cu115 N126 1.985 . S
Cu115 O135 1.959 . S
N116 Cu115 1.999 . S
N116 C118 1.263 . S
N116 C120 1.389 . S
N117 C118 1.358 . S
N117 C119 1.400 . S
C118 N116 1.263 . S
C118 N117 1.358 . S
C118 H124 0.930 . S
C119 N117 1.400 . S
C119 C120 1.351 . S
C119 H136 0.930 . S
C120 N116 1.389 . S
C120 C119 1.351 . S
C120 H125 0.930 . S
O121 Cu115 1.974 . S
O121 C131 1.282 . S
C122 O123 1.261 . S
C122 O135 1.251 . S
O123 C122 1.261 . S
H124 C118 0.930 . S
H125 C120 0.930 . S
N126 Cu115 1.985 . S
N126 C128 1.335 . S
N126 C129 1.390 . S
N127 C128 1.345 . S
N127 C130 1.336 . S
C128 N126 1.335 . S
C128 N127 1.345 . S
C128 H133 0.930 . S
C129 N126 1.390 . S
C129 C130 1.346 . S
C129 H134 0.930 . S
C130 N127 1.336 . S
C130 C129 1.346 . S
C130 H137 0.929 . S
C131 O121 1.282 . S
C131 O132 1.216 . S
O132 C131 1.216 . S
H133 C128 0.930 . S
H134 C129 0.930 . S
O135 Cu115 1.959 . S
O135 C122 1.251 . S
H136 C119 0.930 . S
H137 C130 0.929 . S
Cu138 N139 1.999 . S
Cu138 O144 1.974 . S
Cu138 N149 1.985 . S
Cu138 O158 1.959 . S
N139 Cu138 1.999 . S
N139 C141 1.263 . S
N139 C143 1.389 . S
N140 C141 1.358 . S
N140 C142 1.400 . S
C141 N139 1.263 . S
C141 N140 1.358 . S
C141 H147 0.930 . S
C142 N140 1.400 . S
C142 C143 1.351 . S
C142 H159 0.930 . S
C143 N139 1.389 . S
C143 C142 1.351 . S
C143 H148 0.930 . S
O144 Cu138 1.974 . S
O144 C154 1.282 . S
C145 O146 1.261 . S
C145 O158 1.251 . S
O146 C145 1.261 . S
H147 C141 0.930 . S
H148 C143 0.930 . S
N149 Cu138 1.985 . S
N149 C151 1.335 . S
N149 C152 1.390 . S
N150 C151 1.345 . S
N150 C153 1.336 . S
C151 N149 1.335 . S
C151 N150 1.345 . S
C151 H156 0.930 . S
C152 N149 1.390 . S
C152 C153 1.346 . S
C152 H157 0.930 . S
C153 N150 1.336 . S
C153 C152 1.346 . S
C153 H160 0.929 . S
C154 O144 1.282 . S
C154 O155 1.216 . S
O155 C154 1.216 . S
H156 C151 0.930 . S
H157 C152 0.930 . S
O158 Cu138 1.959 . S
O158 C145 1.251 . S
H159 C142 0.930 . S
H160 C153 0.929 . S
Cu161 N162 1.999 . S
Cu161 O167 1.974 . S
Cu161 N172 1.985 . S
Cu161 O181 1.959 . S
N162 Cu161 1.999 . S
N162 C164 1.263 . S
N162 C166 1.389 . S
N163 C164 1.358 . S
N163 C165 1.400 . S
C164 N162 1.263 . S
C164 N163 1.358 . S
C164 H170 0.930 . S
C165 N163 1.400 . S
C165 C166 1.351 . S
C165 H182 0.930 . S
C166 N162 1.389 . S
C166 C165 1.351 . S
C166 H171 0.930 . S
O167 Cu161 1.974 . S
O167 C177 1.282 . S
C168 O169 1.261 . S
C168 O181 1.251 . S
O169 C168 1.261 . S
H170 C164 0.930 . S
H171 C166 0.930 . S
N172 Cu161 1.985 . S
N172 C174 1.335 . S
N172 C175 1.390 . S
N173 C174 1.345 . S
N173 C176 1.336 . S
C174 N172 1.335 . S
C174 N173 1.345 . S
C174 H179 0.930 . S
C175 N172 1.390 . S
C175 C176 1.346 . S
C175 H180 0.930 . S
C176 N173 1.336 . S
C176 C175 1.346 . S
C176 H183 0.929 . S
C177 O167 1.282 . S
C177 O178 1.216 . S
O178 C177 1.216 . S
H179 C174 0.930 . S
H180 C175 0.930 . S
O181 Cu161 1.959 . S
O181 C168 1.251 . S
H182 C165 0.930 . S
H183 C176 0.929 . S
Cu184 N185 1.999 . S
Cu184 O190 1.974 . S
Cu184 N195 1.985 . S
Cu184 O204 1.959 . S
N185 Cu184 1.999 . S
N185 C187 1.263 . S
N185 C189 1.389 . S
N186 C187 1.358 . S
N186 C188 1.400 . S
C187 N185 1.263 . S
C187 N186 1.358 . S
C187 H193 0.930 . S
C188 N186 1.400 . S
C188 C189 1.351 . S
C188 H205 0.930 . S
C189 N185 1.389 . S
C189 C188 1.351 . S
C189 H194 0.930 . S
O190 Cu184 1.974 . S
O190 C200 1.282 . S
C191 O192 1.261 . S
C191 O204 1.251 . S
O192 C191 1.261 . S
H193 C187 0.930 . S
H194 C189 0.930 . S
N195 Cu184 1.985 . S
N195 C197 1.335 . S
N195 C198 1.390 . S
N196 C197 1.345 . S
N196 C199 1.336 . S
C197 N195 1.335 . S
C197 N196 1.345 . S
C197 H202 0.930 . S
C198 N195 1.390 . S
C198 C199 1.346 . S
C198 H203 0.930 . S
C199 N196 1.336 . S
C199 C198 1.346 . S
C199 H206 0.929 . S
C200 O190 1.282 . S
C200 O201 1.216 . S
O201 C200 1.216 . S
H202 C197 0.930 . S
H203 C198 0.930 . S
O204 Cu184 1.959 . S
O204 C191 1.251 . S
H205 C188 0.930 . S
H206 C199 0.929 . S
Cu207 N208 1.999 . S
Cu207 O213 1.974 . S
Cu207 N218 1.985 . S
Cu207 O227 1.959 . S
N208 Cu207 1.999 . S
N208 C210 1.263 . S
N208 C212 1.389 . S
N209 C210 1.358 . S
N209 C211 1.400 . S
C210 N208 1.263 . S
C210 N209 1.358 . S
C210 H216 0.930 . S
C211 N209 1.400 . S
C211 C212 1.351 . S
C211 H228 0.930 . S
C212 N208 1.389 . S
C212 C211 1.351 . S
C212 H217 0.930 . S
O213 Cu207 1.974 . S
O213 C223 1.282 . S
C214 O215 1.261 . S
C214 O227 1.251 . S
O215 C214 1.261 . S
H216 C210 0.930 . S
H217 C212 0.930 . S
N218 Cu207 1.985 . S
N218 C220 1.335 . S
N218 C221 1.390 . S
N219 C220 1.345 . S
N219 C222 1.336 . S
C220 N218 1.335 . S
C220 N219 1.345 . S
C220 H225 0.930 . S
C221 N218 1.390 . S
C221 C222 1.346 . S
C221 H226 0.930 . S
C222 N219 1.336 . S
C222 C221 1.346 . S
C222 H229 0.929 . S
C223 O213 1.282 . S
C223 O224 1.216 . S
O224 C223 1.216 . S
H225 C220 0.930 . S
H226 C221 0.930 . S
O227 Cu207 1.959 . S
O227 C214 1.251 . S
H228 C211 0.930 . S
H229 C222 0.929 . S
Cu230 N231 1.999 . S
Cu230 O236 1.974 . S
Cu230 N241 1.985 . S
Cu230 O250 1.959 . S
N231 Cu230 1.999 . S
N231 C233 1.263 . S
N231 C235 1.389 . S
N232 C233 1.358 . S
N232 C234 1.400 . S
C233 N231 1.263 . S
C233 N232 1.358 . S
C233 H239 0.930 . S
C234 N232 1.400 . S
C234 C235 1.351 . S
C234 H251 0.930 . S
C235 N231 1.389 . S
C235 C234 1.351 . S
C235 H240 0.930 . S
O236 Cu230 1.974 . S
O236 C246 1.282 . S
C237 O238 1.261 . S
C237 O250 1.251 . S
O238 C237 1.261 . S
H239 C233 0.930 . S
H240 C235 0.930 . S
N241 Cu230 1.985 . S
N241 C243 1.335 . S
N241 C244 1.390 . S
N242 C243 1.345 . S
N242 C245 1.336 . S
C243 N241 1.335 . S
C243 N242 1.345 . S
C243 H248 0.930 . S
C244 N241 1.390 . S
C244 C245 1.346 . S
C244 H249 0.930 . S
C245 N242 1.336 . S
C245 C244 1.346 . S
C245 H252 0.929 . S
C246 O236 1.282 . S
C246 O247 1.216 . S
O247 C246 1.216 . S
H248 C243 0.930 . S
H249 C244 0.930 . S
O250 Cu230 1.959 . S
O250 C237 1.251 . S
H251 C234 0.930 . S
H252 C245 0.929 . S
Cu253 N254 1.999 . S
Cu253 O259 1.974 . S
Cu253 N264 1.985 . S
Cu253 O273 1.959 . S
N254 Cu253 1.999 . S
N254 C256 1.263 . S
N254 C258 1.389 . S
N255 C256 1.358 . S
N255 C257 1.400 . S
C256 N254 1.263 . S
C256 N255 1.358 . S
C256 H262 0.930 . S
C257 N255 1.400 . S
C257 C258 1.351 . S
C257 H274 0.930 . S
C258 N254 1.389 . S
C258 C257 1.351 . S
C258 H263 0.930 . S
O259 Cu253 1.974 . S
O259 C269 1.282 . S
C260 O261 1.261 . S
C260 O273 1.251 . S
O261 C260 1.261 . S
H262 C256 0.930 . S
H263 C258 0.930 . S
N264 Cu253 1.985 . S
N264 C266 1.335 . S
N264 C267 1.390 . S
N265 C266 1.345 . S
N265 C268 1.336 . S
C266 N264 1.335 . S
C266 N265 1.345 . S
C266 H271 0.930 . S
C267 N264 1.390 . S
C267 C268 1.346 . S
C267 H272 0.930 . S
C268 N265 1.336 . S
C268 C267 1.346 . S
C268 H275 0.929 . S
C269 O259 1.282 . S
C269 O270 1.216 . S
O270 C269 1.216 . S
H271 C266 0.930 . S
H272 C267 0.930 . S
O273 Cu253 1.959 . S
O273 C260 1.251 . S
H274 C257 0.930 . S
H275 C268 0.929 . S
Cu276 N277 1.999 . S
Cu276 O282 1.974 . S
Cu276 N287 1.985 . S
Cu276 O296 1.959 . S
N277 Cu276 1.999 . S
N277 C279 1.263 . S
N277 C281 1.389 . S
N278 C279 1.358 . S
N278 C280 1.400 . S
C279 N277 1.263 . S
C279 N278 1.358 . S
C279 H285 0.930 . S
C280 N278 1.400 . S
C280 C281 1.351 . S
C280 H297 0.930 . S
C281 N277 1.389 . S
C281 C280 1.351 . S
C281 H286 0.930 . S
O282 Cu276 1.974 . S
O282 C292 1.282 . S
C283 O284 1.261 . S
C283 O296 1.251 . S
O284 C283 1.261 . S
H285 C279 0.930 . S
H286 C281 0.930 . S
N287 Cu276 1.985 . S
N287 C289 1.335 . S
N287 C290 1.390 . S
N288 C289 1.345 . S
N288 C291 1.336 . S
C289 N287 1.335 . S
C289 N288 1.345 . S
C289 H294 0.930 . S
C290 N287 1.390 . S
C290 C291 1.346 . S
C290 H295 0.930 . S
C291 N288 1.336 . S
C291 C290 1.346 . S
C291 H298 0.929 . S
C292 O282 1.282 . S
C292 O293 1.216 . S
O293 C292 1.216 . S
H294 C289 0.930 . S
H295 C290 0.930 . S
O296 Cu276 1.959 . S
O296 C283 1.251 . S
H297 C280 0.930 . S
H298 C291 0.929 . S
Cu299 N300 1.999 . S
Cu299 O305 1.974 . S
Cu299 N310 1.985 . S
Cu299 O319 1.959 . S
N300 Cu299 1.999 . S
N300 C302 1.263 . S
N300 C304 1.389 . S
N301 C302 1.358 . S
N301 C303 1.400 . S
C302 N300 1.263 . S
C302 N301 1.358 . S
C302 H308 0.930 . S
C303 N301 1.400 . S
C303 C304 1.351 . S
C303 H320 0.930 . S
C304 N300 1.389 . S
C304 C303 1.351 . S
C304 H309 0.930 . S
O305 Cu299 1.974 . S
O305 C315 1.282 . S
C306 O307 1.261 . S
C306 O319 1.251 . S
O307 C306 1.261 . S
H308 C302 0.930 . S
H309 C304 0.930 . S
N310 Cu299 1.985 . S
N310 C312 1.335 . S
N310 C313 1.390 . S
N311 C312 1.345 . S
N311 C314 1.336 . S
C312 N310 1.335 . S
C312 N311 1.345 . S
C312 H317 0.930 . S
C313 N310 1.390 . S
C313 C314 1.346 . S
C313 H318 0.930 . S
C314 N311 1.336 . S
C314 C313 1.346 . S
C314 H321 0.929 . S
C315 O305 1.282 . S
C315 O316 1.216 . S
O316 C315 1.216 . S
H317 C312 0.930 . S
H318 C313 0.930 . S
O319 Cu299 1.959 . S
O319 C306 1.251 . S
H320 C303 0.930 . S
H321 C314 0.929 . S
Cu322 N323 1.999 . S
Cu322 O328 1.974 . S
Cu322 N333 1.985 . S
Cu322 O342 1.959 . S
N323 Cu322 1.999 . S
N323 C325 1.263 . S
N323 C327 1.389 . S
N324 C325 1.358 . S
N324 C326 1.400 . S
C325 N323 1.263 . S
C325 N324 1.358 . S
C325 H331 0.930 . S
C326 N324 1.400 . S
C326 C327 1.351 . S
C326 H343 0.930 . S
C327 N323 1.389 . S
C327 C326 1.351 . S
C327 H332 0.930 . S
O328 Cu322 1.974 . S
O328 C338 1.282 . S
C329 O330 1.261 . S
C329 O342 1.251 . S
O330 C329 1.261 . S
H331 C325 0.930 . S
H332 C327 0.930 . S
N333 Cu322 1.985 . S
N333 C335 1.335 . S
N333 C336 1.390 . S
N334 C335 1.345 . S
N334 C337 1.336 . S
C335 N333 1.335 . S
C335 N334 1.345 . S
C335 H340 0.930 . S
C336 N333 1.390 . S
C336 C337 1.346 . S
C336 H341 0.930 . S
C337 N334 1.336 . S
C337 C336 1.346 . S
C337 H344 0.929 . S
C338 O328 1.282 . S
C338 O339 1.216 . S
O339 C338 1.216 . S
H340 C335 0.930 . S
H341 C336 0.930 . S
O342 Cu322 1.959 . S
O342 C329 1.251 . S
H343 C326 0.930 . S
H344 C337 0.929 . S
Cu345 N346 1.999 . S
Cu345 O351 1.974 . S
Cu345 N356 1.985 . S
Cu345 O365 1.959 . S
N346 Cu345 1.999 . S
N346 C348 1.263 . S
N346 C350 1.389 . S
N347 C348 1.358 . S
N347 C349 1.400 . S
C348 N346 1.263 . S
C348 N347 1.358 . S
C348 H354 0.930 . S
C349 N347 1.400 . S
C349 C350 1.351 . S
C349 H366 0.930 . S
C350 N346 1.389 . S
C350 C349 1.351 . S
C350 H355 0.930 . S
O351 Cu345 1.974 . S
O351 C361 1.282 . S
C352 O353 1.261 . S
C352 O365 1.251 . S
O353 C352 1.261 . S
H354 C348 0.930 . S
H355 C350 0.930 . S
N356 Cu345 1.985 . S
N356 C358 1.335 . S
N356 C359 1.390 . S
N357 C358 1.345 . S
N357 C360 1.336 . S
C358 N356 1.335 . S
C358 N357 1.345 . S
C358 H363 0.930 . S
C359 N356 1.390 . S
C359 C360 1.346 . S
C359 H364 0.930 . S
C360 N357 1.336 . S
C360 C359 1.346 . S
C360 H367 0.929 . S
C361 O351 1.282 . S
C361 O362 1.216 . S
O362 C361 1.216 . S
H363 C358 0.930 . S
H364 C359 0.930 . S
O365 Cu345 1.959 . S
O365 C352 1.251 . S
H366 C349 0.930 . S
H367 C360 0.929 . S
Cu368 N369 1.999 . S
Cu368 O374 1.974 . S
Cu368 N379 1.985 . S
Cu368 O388 1.959 . S
N369 Cu368 1.999 . S
N369 C371 1.263 . S
N369 C373 1.389 . S
N370 C371 1.358 . S
N370 C372 1.400 . S
C371 N369 1.263 . S
C371 N370 1.358 . S
C371 H377 0.930 . S
C372 N370 1.400 . S
C372 C373 1.351 . S
C372 H389 0.930 . S
C373 N369 1.389 . S
C373 C372 1.351 . S
C373 H378 0.930 . S
O374 Cu368 1.974 . S
O374 C384 1.282 . S
C375 O376 1.261 . S
C375 O388 1.251 . S
O376 C375 1.261 . S
H377 C371 0.930 . S
H378 C373 0.930 . S
N379 Cu368 1.985 . S
N379 C381 1.335 . S
N379 C382 1.390 . S
N380 C381 1.345 . S
N380 C383 1.336 . S
C381 N379 1.335 . S
C381 N380 1.345 . S
C381 H386 0.930 . S
C382 N379 1.390 . S
C382 C383 1.346 . S
C382 H387 0.930 . S
C383 N380 1.336 . S
C383 C382 1.346 . S
C383 H390 0.929 . S
C384 O374 1.282 . S
C384 O385 1.216 . S
O385 C384 1.216 . S
H386 C381 0.930 . S
H387 C382 0.930 . S
O388 Cu368 1.959 . S
O388 C375 1.251 . S
H389 C372 0.930 . S
H390 C383 0.929 . S
Cu391 N392 1.999 . S
Cu391 O397 1.974 . S
Cu391 N402 1.985 . S
Cu391 O411 1.959 . S
N392 Cu391 1.999 . S
N392 C394 1.263 . S
N392 C396 1.389 . S
N393 C394 1.358 . S
N393 C395 1.400 . S
C394 N392 1.263 . S
C394 N393 1.358 . S
C394 H400 0.930 . S
C395 N393 1.400 . S
C395 C396 1.351 . S
C395 H412 0.930 . S
C396 N392 1.389 . S
C396 C395 1.351 . S
C396 H401 0.930 . S
O397 Cu391 1.974 . S
O397 C407 1.282 . S
C398 O399 1.261 . S
C398 O411 1.251 . S
O399 C398 1.261 . S
H400 C394 0.930 . S
H401 C396 0.930 . S
N402 Cu391 1.985 . S
N402 C404 1.335 . S
N402 C405 1.390 . S
N403 C404 1.345 . S
N403 C406 1.336 . S
C404 N402 1.335 . S
C404 N403 1.345 . S
C404 H409 0.930 . S
C405 N402 1.390 . S
C405 C406 1.346 . S
C405 H410 0.930 . S
C406 N403 1.336 . S
C406 C405 1.346 . S
C406 H413 0.929 . S
C407 O397 1.282 . S
C407 O408 1.216 . S
O408 C407 1.216 . S
H409 C404 0.930 . S
H410 C405 0.930 . S
O411 Cu391 1.959 . S
O411 C398 1.251 . S
H412 C395 0.930 . S
H413 C406 0.929 . S
H414 C432 0.951 . S
H415 C434 0.951 . S
H416 C436 0.950 . S
H417 C437 0.950 . S
H418 C439 0.950 . S
H419 C442 0.950 . S
H420 C443 0.950 . S
H421 C445 0.950 . S
H422 C446 0.950 . S
H423 C447 0.951 . S
H424 C449 0.951 . S
H425 C451 0.950 . S
H426 C452 0.950 . S
H427 C454 0.950 . S
H428 C457 0.950 . S
H429 C458 0.950 . S
H430 C460 0.950 . S
H431 C461 0.950 . S
C432 H414 0.951 . S
C432 C433 1.366 . S
C432 C434 1.388 . S
C433 C432 1.366 . S
C433 C437 1.385 1_655 S
C434 H415 0.951 . S
C434 C432 1.388 . S
C434 C435 1.366 . S
C435 C434 1.366 . S
C435 C436 1.414 1_655 S
C435 C438 1.499 1_655 S
C436 H416 0.950 . S
C436 C435 1.414 1_455 S
C436 C437 1.374 . S
C437 H417 0.950 . S
C437 C433 1.385 1_455 S
C437 C436 1.374 . S
C438 C435 1.499 1_455 S
C438 C439 1.373 . S
C438 C440 1.389 1_455 S
C439 H418 0.950 . S
C439 C438 1.373 . S
C439 C455 1.377 . S
C440 C438 1.389 1_655 S
C440 C441 1.524 . S
C440 C454 1.377 . S
C441 C440 1.524 . S
C441 C442 1.397 . S
C441 C446 1.363 . S
C442 H419 0.950 . S
C442 C441 1.397 . S
C442 C443 1.334 . S
C443 H420 0.950 . S
C443 C442 1.334 . S
C443 C444 1.287 . S
C444 C443 1.287 . S
C444 C445 1.524 . S
C444 H463 0.913 . S
C445 H421 0.950 . S
C445 C444 1.524 . S
C445 C446 1.415 . S
C446 H422 0.950 . S
C446 C441 1.363 . S
C446 C445 1.415 . S
C447 H423 0.951 . S
C447 C448 1.366 . S
C447 C449 1.388 . S
C448 C447 1.366 . S
C448 C452 1.385 1_455 S
C449 H424 0.951 . S
C449 C447 1.388 . S
C449 C450 1.366 . S
C450 C449 1.366 . S
C450 C451 1.414 1_455 S
C450 C453 1.499 . S
C451 H425 0.950 . S
C451 C450 1.414 1_655 S
C451 C452 1.374 . S
C452 H426 0.950 . S
C452 C448 1.385 1_655 S
C452 C451 1.374 . S
C453 C450 1.499 . S
C453 C454 1.373 1_455 S
C453 C455 1.389 . S
C454 H427 0.950 . S
C454 C440 1.377 . S
C454 C453 1.373 1_655 S
C455 C439 1.377 . S
C455 C453 1.389 . S
C455 C456 1.524 . S
C456 C455 1.524 . S
C456 C457 1.397 . S
C456 C461 1.363 . S
C457 H428 0.950 . S
C457 C456 1.397 . S
C457 C458 1.334 . S
C458 H429 0.950 . S
C458 C457 1.334 . S
C458 C459 1.287 . S
C459 C458 1.287 . S
C459 C460 1.524 . S
C459 H462 0.999 . S
C460 H430 0.950 . S
C460 C459 1.524 . S
C460 C461 1.415 . S
C461 H431 0.950 . S
C461 C456 1.363 . S
C461 C460 1.415 . S
H462 C459 0.999 . S
H463 C444 0.913 . S
H464 C482 0.951 . S
H465 C484 0.951 . S
H466 C486 0.950 . S
H467 C487 0.950 . S
H468 C489 0.950 . S
H469 C492 0.950 . S
H470 C493 0.950 . S
H471 C495 0.950 . S
H472 C496 0.950 . S
H473 C497 0.951 . S
H474 C499 0.951 . S
H475 C501 0.950 . S
H476 C502 0.950 . S
H477 C504 0.950 . S
H478 C507 0.950 . S
H479 C508 0.950 . S
H480 C510 0.950 . S
H481 C511 0.950 . S
C482 H464 0.951 . S
C482 C483 1.366 . S
C482 C484 1.388 . S
C483 C482 1.366 . S
C483 C487 1.385 . S
C484 H465 0.951 . S
C484 C482 1.388 . S
C484 C485 1.366 . S
C485 C484 1.366 . S
C485 C486 1.414 . S
C485 C488 1.499 . S
C486 H466 0.950 . S
C486 C485 1.414 . S
C486 C487 1.374 . S
C487 H467 0.950 . S
C487 C483 1.385 . S
C487 C486 1.374 . S
C488 C485 1.499 . S
C488 C489 1.373 . S
C488 C490 1.389 . S
C489 H468 0.950 . S
C489 C488 1.373 . S
C489 C505 1.377 . S
C490 C488 1.389 . S
C490 C491 1.524 . S
C490 C504 1.377 . S
C491 C490 1.524 . S
C491 C492 1.397 . S
C491 C496 1.363 . S
C492 H469 0.950 . S
C492 C491 1.397 . S
C492 C493 1.334 . S
C493 H470 0.950 . S
C493 C492 1.334 . S
C493 C494 1.287 . S
C494 C493 1.287 . S
C494 C495 1.524 . S
C494 H513 0.913 . S
C495 H471 0.950 . S
C495 C494 1.524 . S
C495 C496 1.415 . S
C496 H472 0.950 . S
C496 C491 1.363 . S
C496 C495 1.415 . S
C497 H473 0.951 . S
C497 C498 1.366 . S
C497 C499 1.388 . S
C498 C497 1.366 . S
C498 C502 1.385 . S
C499 H474 0.951 . S
C499 C497 1.388 . S
C499 C500 1.366 . S
C500 C499 1.366 . S
C500 C501 1.414 . S
C500 C503 1.499 . S
C501 H475 0.950 . S
C501 C500 1.414 . S
C501 C502 1.374 . S
C502 H476 0.950 . S
C502 C498 1.385 . S
C502 C501 1.374 . S
C503 C500 1.499 . S
C503 C504 1.373 . S
C503 C505 1.389 . S
C504 H477 0.950 . S
C504 C490 1.377 . S
C504 C503 1.373 . S
C505 C489 1.377 . S
C505 C503 1.389 . S
C505 C506 1.524 . S
C506 C505 1.524 . S
C506 C507 1.397 . S
C506 C511 1.363 . S
C507 H478 0.950 . S
C507 C506 1.397 . S
C507 C508 1.334 . S
C508 H479 0.950 . S
C508 C507 1.334 . S
C508 C509 1.287 . S
C509 C508 1.287 . S
C509 C510 1.524 . S
C509 H512 0.999 . S
C510 H480 0.950 . S
C510 C509 1.524 . S
C510 C511 1.415 . S
C511 H481 0.950 . S
C511 C506 1.363 . S
C511 C510 1.415 . S
H512 C509 0.999 . S
H513 C494 0.913 . S
H514 C532 0.951 . S
H515 C534 0.951 . S
H516 C536 0.950 . S
H517 C537 0.972 . S
H518 C539 0.950 . S
H519 C542 0.950 . S
H520 C543 0.950 . S
H521 C545 0.950 . S
H522 C546 0.950 . S
H523 C547 0.951 . S
H524 C549 0.951 . S
H525 C551 0.950 . S
H526 C552 0.950 . S
H527 C554 0.950 . S
H528 C557 0.950 . S
H529 C558 0.950 . S
H530 C560 0.950 . S
H531 C561 0.950 . S
C532 H514 0.951 . S
C532 C533 1.366 . S
C532 C534 1.388 . S
C533 C532 1.366 . S
C533 C537 1.385 . S
C534 H515 0.951 . S
C534 C532 1.388 . S
C534 C535 1.366 . S
C535 C534 1.366 . S
C535 C536 1.414 . S
C535 C538 1.499 . S
C536 H516 0.950 . S
C536 C535 1.414 . S
C536 C537 1.374 . S
C537 H517 0.972 . S
C537 C533 1.385 . S
C537 C536 1.374 . S
C538 C535 1.499 . S
C538 C539 1.373 1_545 S
C538 C540 1.389 . S
C539 H518 0.950 . S
C539 C538 1.373 1_565 S
C539 C555 1.379 . S
C540 C538 1.389 . S
C540 C541 1.524 . S
C540 C554 1.377 . S
C541 C540 1.524 . S
C541 C542 1.397 . S
C541 C546 1.363 . S
C542 H519 0.950 . S
C542 C541 1.397 . S
C542 C543 1.334 . S
C543 H520 0.950 . S
C543 C542 1.334 . S
C543 C544 1.287 . S
C544 C543 1.287 . S
C544 C545 1.524 . S
C544 H563 0.913 . S
C545 H521 0.950 . S
C545 C544 1.524 . S
C545 C546 1.415 . S
C546 H522 0.950 . S
C546 C541 1.363 . S
C546 C545 1.415 . S
C547 H523 0.951 . S
C547 C548 1.366 . S
C547 C549 1.388 . S
C548 C547 1.366 . S
C548 C552 1.385 . S
C549 H524 0.951 . S
C549 C547 1.388 . S
C549 C550 1.366 . S
C550 C549 1.366 . S
C550 C551 1.414 . S
C550 C553 1.499 . S
C551 H525 0.950 . S
C551 C550 1.414 . S
C551 C552 1.374 . S
C552 H526 0.950 . S
C552 C548 1.385 . S
C552 C551 1.374 . S
C553 C550 1.499 . S
C553 C554 1.373 . S
C553 C555 1.350 1_545 S
C554 H527 0.950 . S
C554 C540 1.377 . S
C554 C553 1.373 . S
C555 C539 1.379 . S
C555 C553 1.350 1_565 S
C555 C556 1.564 . S
C556 C555 1.564 . S
C556 C557 1.397 . S
C556 C561 1.363 . S
C557 H528 0.950 . S
C557 C556 1.397 . S
C557 C558 1.334 . S
C558 H529 0.950 . S
C558 C557 1.334 . S
C558 C559 1.287 . S
C559 C558 1.287 . S
C559 C560 1.524 . S
C559 H562 0.999 . S
C560 H530 0.950 . S
C560 C559 1.524 . S
C560 C561 1.415 . S
C561 H531 0.950 . S
C561 C556 1.363 . S
C561 C560 1.415 . S
H562 C559 0.999 . S
H563 C544 0.913 . S
H564 C582 0.951 . S
H565 C584 0.951 . S
H566 C586 0.950 . S
H567 C587 0.950 . S
H568 C589 0.950 . S
H569 C592 0.950 . S
H570 C593 0.950 . S
H571 C595 0.950 . S
H572 C596 0.950 . S
H573 C597 0.951 . S
H574 C599 0.961 1_655 S
H575 C601 0.950 . S
H576 C602 0.950 . S
H577 C604 0.950 . S
H578 C607 0.950 . S
H579 C608 0.950 . S
H580 C610 0.950 . S
H581 C611 0.950 . S
C582 H564 0.951 . S
C582 C583 1.366 1_455 S
C582 C584 1.388 . S
C583 C582 1.366 1_655 S
C583 C587 1.385 . S
C584 H565 0.951 . S
C584 C582 1.388 . S
C584 C585 1.366 . S
C585 C584 1.366 . S
C585 C586 1.414 1_455 S
C585 C588 1.499 . S
C586 H566 0.950 . S
C586 C585 1.414 1_655 S
C586 C587 1.374 . S
C587 H567 0.950 . S
C587 C583 1.385 . S
C587 C586 1.374 . S
C588 C585 1.499 . S
C588 C589 1.373 1_455 S
C588 C590 1.389 . S
C589 H568 0.950 . S
C589 C588 1.373 1_655 S
C589 C605 1.377 . S
C590 C588 1.389 . S
C590 C591 1.524 . S
C590 C604 1.377 . S
C591 C590 1.524 . S
C591 C592 1.397 . S
C591 C596 1.363 . S
C592 H569 0.950 . S
C592 C591 1.397 . S
C592 C593 1.334 . S
C593 H570 0.950 . S
C593 C592 1.334 . S
C593 C594 1.287 . S
C594 C593 1.287 . S
C594 C595 1.524 . S
C594 H613 0.913 . S
C595 H571 0.950 . S
C595 C594 1.524 . S
C595 C596 1.415 . S
C596 H572 0.950 . S
C596 C591 1.363 . S
C596 C595 1.415 . S
C597 H573 0.951 . S
C597 C598 1.366 . S
C597 C599 1.388 . S
C598 C597 1.366 . S
C598 C602 1.385 . S
C599 H574 0.961 1_455 S
C599 C597 1.388 . S
C599 C600 1.366 . S
C600 C599 1.366 . S
C600 C601 1.414 . S
C600 C603 1.499 . S
C601 H575 0.950 . S
C601 C600 1.414 . S
C601 C602 1.374 . S
C602 H576 0.950 . S
C602 C598 1.385 . S
C602 C601 1.374 . S
C603 C600 1.499 . S
C603 C604 1.373 . S
C603 C605 1.389 1_455 S
C604 H577 0.950 . S
C604 C590 1.377 . S
C604 C603 1.373 . S
C605 C589 1.377 . S
C605 C603 1.389 1_655 S
C605 C606 1.524 . S
C606 C605 1.524 . S
C606 C607 1.397 . S
C606 C611 1.363 . S
C607 H578 0.950 . S
C607 C606 1.397 . S
C607 C608 1.334 . S
C608 H579 0.950 . S
C608 C607 1.334 . S
C608 C609 1.287 . S
C609 C608 1.287 . S
C609 C610 1.524 . S
C609 H612 0.999 . S
C610 H580 0.950 . S
C610 C609 1.524 . S
C610 C611 1.415 . S
C611 H581 0.950 . S
C611 C606 1.363 . S
C611 C610 1.415 . S
H612 C609 0.999 . S
H613 C594 0.913 . S
H614 C632 0.951 . S
H615 C634 0.951 . S
H616 C636 0.950 . S
H617 C637 0.950 . S
H618 C639 0.950 . S
H619 C642 0.950 . S
H620 C643 0.950 . S
H621 C645 0.950 . S
H622 C646 0.950 . S
H623 C647 0.951 . S
H624 C649 0.951 . S
H625 C651 0.950 . S
H626 C652 0.950 . S
H627 C654 0.950 . S
H628 C657 0.950 . S
H629 C658 0.950 . S
H630 C660 0.950 . S
H631 C661 0.950 . S
C632 H614 0.951 . S
C632 C633 1.366 . S
C632 C634 1.388 . S
C633 C632 1.366 . S
C633 C637 1.385 . S
C634 H615 0.951 . S
C634 C632 1.388 . S
C634 C635 1.366 . S
C635 C634 1.366 . S
C635 C636 1.414 . S
C635 C638 1.499 . S
C636 H616 0.950 . S
C636 C635 1.414 . S
C636 C637 1.374 . S
C637 H617 0.950 . S
C637 C633 1.385 . S
C637 C636 1.374 . S
C638 C635 1.499 . S
C638 C639 1.373 . S
C638 C640 1.389 . S
C639 H618 0.950 . S
C639 C638 1.373 . S
C639 C655 1.377 . S
C640 C638 1.389 . S
C640 C641 1.524 . S
C640 C654 1.377 . S
C641 C640 1.524 . S
C641 C642 1.397 . S
C641 C646 1.363 . S
C642 H619 0.950 . S
C642 C641 1.397 . S
C642 C643 1.334 . S
C643 H620 0.950 . S
C643 C642 1.334 . S
C643 C644 1.287 . S
C644 C643 1.287 . S
C644 C645 1.524 . S
C644 H663 0.913 . S
C645 H621 0.950 . S
C645 C644 1.524 . S
C645 C646 1.415 . S
C646 H622 0.950 . S
C646 C641 1.363 . S
C646 C645 1.415 . S
C647 H623 0.951 . S
C647 C648 1.366 . S
C647 C649 1.388 . S
C648 C647 1.366 . S
C648 C652 1.385 . S
C649 H624 0.951 . S
C649 C647 1.388 . S
C649 C650 1.366 . S
C650 C649 1.366 . S
C650 C651 1.414 . S
C650 C653 1.499 . S
C651 H625 0.950 . S
C651 C650 1.414 . S
C651 C652 1.374 . S
C652 H626 0.950 . S
C652 C648 1.385 . S
C652 C651 1.374 . S
C653 C650 1.499 . S
C653 C654 1.373 . S
C653 C655 1.389 . S
C654 H627 0.950 . S
C654 C640 1.377 . S
C654 C653 1.373 . S
C655 C639 1.377 . S
C655 C653 1.389 . S
C655 C656 1.524 . S
C656 C655 1.524 . S
C656 C657 1.397 . S
C656 C661 1.363 . S
C657 H628 0.950 . S
C657 C656 1.397 . S
C657 C658 1.334 . S
C658 H629 0.950 . S
C658 C657 1.334 . S
C658 C659 1.287 . S
C659 C658 1.287 . S
C659 C660 1.524 . S
C659 H662 0.999 . S
C660 H630 0.950 . S
C660 C659 1.524 . S
C660 C661 1.415 . S
C661 H631 0.950 . S
C661 C656 1.363 . S
C661 C660 1.415 . S
H662 C659 0.999 . S
H663 C644 0.913 . S
H664 C682 0.951 . S
H665 C684 0.951 . S
H666 C686 0.950 . S
H667 C687 0.950 . S
H668 C689 0.950 . S
H669 C692 0.950 . S
H670 C693 0.950 . S
H671 C695 0.950 . S
H672 C696 0.950 . S
H673 C697 0.951 . S
H674 C699 0.951 . S
H675 C701 0.947 . S
H676 C702 0.902 1_565 S
H677 C704 0.950 . S
H678 C707 0.950 1_565 S
H679 C708 0.941 1_565 S
H680 C710 0.950 . S
H681 C711 0.950 . S
C682 H664 0.951 . S
C682 C683 1.366 1_565 S
C682 C684 1.388 . S
C683 C682 1.366 1_545 S
C683 C687 1.385 . S
C684 H665 0.951 . S
C684 C682 1.388 . S
C684 C685 1.366 1_565 S
C685 C684 1.366 1_545 S
C685 C686 1.414 . S
C685 C688 1.499 . S
C686 H666 0.950 . S
C686 C685 1.414 . S
C686 C687 1.374 . S
C687 H667 0.950 . S
C687 C683 1.385 . S
C687 C686 1.374 . S
C688 C685 1.499 . S
C688 C689 1.373 . S
C688 C690 1.389 . S
C689 H668 0.950 . S
C689 C688 1.373 . S
C689 C705 1.377 . S
C690 C688 1.389 . S
C690 C691 1.524 . S
C690 C704 1.377 . S
C691 C690 1.524 . S
C691 C692 1.397 . S
C691 C696 1.363 1_545 S
C692 H669 0.950 . S
C692 C691 1.397 . S
C692 C693 1.334 . S
C693 H670 0.950 . S
C693 C692 1.334 . S
C693 C694 1.287 . S
C694 C693 1.287 . S
C694 C695 1.524 1_545 S
C694 H713 0.913 . S
C695 H671 0.950 . S
C695 C694 1.524 1_565 S
C695 C696 1.415 . S
C696 H672 0.950 . S
C696 C691 1.363 1_565 S
C696 C695 1.415 . S
C697 H673 0.951 . S
C697 C698 1.366 . S
C697 C699 1.388 . S
C698 C697 1.366 . S
C698 C702 1.435 . S
C699 H674 0.951 . S
C699 C697 1.388 . S
C699 C700 1.366 . S
C700 C699 1.366 . S
C700 C701 1.417 1_545 S
C700 C703 1.499 . S
C701 H675 0.947 . S
C701 C700 1.417 1_565 S
C701 C702 1.373 1_565 S
C702 H676 0.902 1_545 S
C702 C698 1.435 . S
C702 C701 1.373 1_545 S
C703 C700 1.499 . S
C703 C704 1.373 . S
C703 C705 1.389 . S
C704 H677 0.950 . S
C704 C690 1.377 . S
C704 C703 1.373 . S
C705 C689 1.377 . S
C705 C703 1.389 . S
C705 C706 1.524 . S
C706 C705 1.524 . S
C706 C707 1.397 . S
C706 C711 1.363 . S
C707 H678 0.950 1_545 S
C707 C706 1.397 . S
C707 C708 1.334 . S
C708 H679 0.941 1_545 S
C708 C707 1.334 . S
C708 C709 1.287 . S
C709 C708 1.287 . S
C709 C710 1.524 . S
C709 H712 0.999 . S
C710 H680 0.950 . S
C710 C709 1.524 . S
C710 C711 1.415 . S
C711 H681 0.950 . S
C711 C706 1.363 . S
C711 C710 1.415 . S
H712 C709 0.999 . S
H713 C694 0.913 . S
H714 C732 0.951 . S
H715 C734 0.951 . S
H716 C736 0.950 . S
H717 C737 0.950 . S
H718 C739 0.950 . S
H719 C742 0.950 . S
H720 C743 0.950 . S
H721 C745 0.950 . S
H722 C746 0.950 . S
H723 C747 0.951 . S
H724 C749 0.951 . S
H725 C751 0.950 . S
H726 C752 0.950 . S
H727 C754 0.950 . S
H728 C757 0.950 . S
H729 C758 0.950 . S
H730 C760 0.950 . S
H731 C761 0.950 . S
C732 H714 0.951 . S
C732 C733 1.366 . S
C732 C734 1.388 . S
C733 C732 1.366 . S
C733 C737 1.385 . S
C734 H715 0.951 . S
C734 C732 1.388 . S
C734 C735 1.366 . S
C735 C734 1.366 . S
C735 C736 1.414 . S
C735 C738 1.499 . S
C736 H716 0.950 . S
C736 C735 1.414 . S
C736 C737 1.374 . S
C737 H717 0.950 . S
C737 C733 1.385 . S
C737 C736 1.374 . S
C738 C735 1.499 . S
C738 C739 1.373 . S
C738 C740 1.389 . S
C739 H718 0.950 . S
C739 C738 1.373 . S
C739 C755 1.377 . S
C740 C738 1.389 . S
C740 C741 1.524 . S
C740 C754 1.377 . S
C741 C740 1.524 . S
C741 C742 1.397 . S
C741 C746 1.363 . S
C742 H719 0.950 . S
C742 C741 1.397 . S
C742 C743 1.334 . S
C743 H720 0.950 . S
C743 C742 1.334 . S
C743 C744 1.287 . S
C744 C743 1.287 . S
C744 C745 1.524 . S
C744 H763 0.913 . S
C745 H721 0.950 . S
C745 C744 1.524 . S
C745 C746 1.415 . S
C746 H722 0.950 . S
C746 C741 1.363 . S
C746 C745 1.415 . S
C747 H723 0.951 . S
C747 C748 1.366 . S
C747 C749 1.388 . S
C748 C747 1.366 . S
C748 C752 1.385 . S
C749 H724 0.951 . S
C749 C747 1.388 . S
C749 C750 1.366 . S
C750 C749 1.366 . S
C750 C751 1.414 . S
C750 C753 1.499 . S
C751 H725 0.950 . S
C751 C750 1.414 . S
C751 C752 1.374 . S
C752 H726 0.950 . S
C752 C748 1.385 . S
C752 C751 1.374 . S
C753 C750 1.499 . S
C753 C754 1.373 . S
C753 C755 1.389 . S
C754 H727 0.950 . S
C754 C740 1.377 . S
C754 C753 1.373 . S
C755 C739 1.377 . S
C755 C753 1.389 . S
C755 C756 1.524 . S
C756 C755 1.524 . S
C756 C757 1.397 . S
C756 C761 1.363 . S
C757 H728 0.950 . S
C757 C756 1.397 . S
C757 C758 1.334 . S
C758 H729 0.950 . S
C758 C757 1.334 . S
C758 C759 1.287 . S
C759 C758 1.287 . S
C759 C760 1.524 . S
C759 H762 0.999 . S
C760 H730 0.950 . S
C760 C759 1.524 . S
C760 C761 1.415 . S
C761 H731 0.950 . S
C761 C756 1.363 . S
C761 C760 1.415 . S
H762 C759 0.999 . S
H763 C744 0.913 . S
H764 C782 0.951 . S
H765 C784 0.951 . S
H766 C786 0.950 . S
H767 C787 0.950 . S
H768 C789 0.950 . S
H769 C792 0.950 . S
H770 C793 0.950 . S
H771 C795 0.950 . S
H772 C796 0.950 . S
H773 C797 0.951 . S
H774 C799 0.951 . S
H775 C801 0.950 . S
H776 C802 0.950 . S
H777 C804 0.950 . S
H778 C807 0.950 . S
H779 C808 0.950 . S
H780 C810 0.950 . S
H781 C811 0.950 . S
C782 H764 0.951 . S
C782 C783 1.366 . S
C782 C784 1.388 . S
C783 C782 1.366 . S
C783 C787 1.385 . S
C784 H765 0.951 . S
C784 C782 1.388 . S
C784 C785 1.366 . S
C785 C784 1.366 . S
C785 C786 1.414 . S
C785 C788 1.499 . S
C786 H766 0.950 . S
C786 C785 1.414 . S
C786 C787 1.374 . S
C787 H767 0.950 . S
C787 C783 1.385 . S
C787 C786 1.374 . S
C788 C785 1.499 . S
C788 C789 1.373 . S
C788 C790 1.389 . S
C789 H768 0.950 . S
C789 C788 1.373 . S
C789 C805 1.377 . S
C790 C788 1.389 . S
C790 C791 1.524 . S
C790 C804 1.377 . S
C791 C790 1.524 . S
C791 C792 1.397 . S
C791 C796 1.363 . S
C792 H769 0.950 . S
C792 C791 1.397 . S
C792 C793 1.334 . S
C793 H770 0.950 . S
C793 C792 1.334 . S
C793 C794 1.287 . S
C794 C793 1.287 . S
C794 C795 1.524 . S
C794 H813 0.913 . S
C795 H771 0.950 . S
C795 C794 1.524 . S
C795 C796 1.415 . S
C796 H772 0.950 . S
C796 C791 1.363 . S
C796 C795 1.415 . S
C797 H773 0.951 . S
C797 C798 1.366 . S
C797 C799 1.388 . S
C798 C797 1.366 . S
C798 C802 1.385 . S
C799 H774 0.951 . S
C799 C797 1.388 . S
C799 C800 1.366 . S
C800 C799 1.366 . S
C800 C801 1.414 . S
C800 C803 1.499 . S
C801 H775 0.950 . S
C801 C800 1.414 . S
C801 C802 1.374 . S
C802 H776 0.950 . S
C802 C798 1.385 . S
C802 C801 1.374 . S
C803 C800 1.499 . S
C803 C804 1.373 . S
C803 C805 1.389 . S
C804 H777 0.950 . S
C804 C790 1.377 . S
C804 C803 1.373 . S
C805 C789 1.377 . S
C805 C803 1.389 . S
C805 C806 1.524 . S
C806 C805 1.524 . S
C806 C807 1.397 . S
C806 C811 1.363 . S
C807 H778 0.950 . S
C807 C806 1.397 . S
C807 C808 1.334 . S
C808 H779 0.950 . S
C808 C807 1.334 . S
C808 C809 1.287 . S
C809 C808 1.287 . S
C809 C810 1.524 . S
C809 H812 0.999 . S
C810 H780 0.950 . S
C810 C809 1.524 . S
C810 C811 1.415 . S
C811 H781 0.950 . S
C811 C806 1.363 . S
C811 C810 1.415 . S
H812 C809 0.999 . S
H813 C794 0.913 . S
H814 C832 0.951 . S
H815 C834 0.951 . S
H816 C836 0.950 . S
H817 C837 0.950 . S
H818 C839 0.950 . S
H819 C842 0.950 . S
H820 C843 0.950 . S
H821 C845 0.950 . S
H822 C846 0.950 . S
H823 C847 0.951 . S
H824 C849 0.951 . S
H825 C851 0.950 . S
H826 C852 0.950 . S
H827 C854 0.950 . S
H828 C857 0.950 . S
H829 C858 0.950 . S
H830 C860 0.950 . S
H831 C861 0.950 . S
C832 H814 0.951 . S
C832 C833 1.366 . S
C832 C834 1.388 . S
C833 C832 1.366 . S
C833 C837 1.385 . S
C834 H815 0.951 . S
C834 C832 1.388 . S
C834 C835 1.366 . S
C835 C834 1.366 . S
C835 C836 1.414 . S
C835 C838 1.499 . S
C836 H816 0.950 . S
C836 C835 1.414 . S
C836 C837 1.374 . S
C837 H817 0.950 . S
C837 C833 1.385 . S
C837 C836 1.374 . S
C838 C835 1.499 . S
C838 C839 1.373 . S
C838 C840 1.389 . S
C839 H818 0.950 . S
C839 C838 1.373 . S
C839 C855 1.377 . S
C840 C838 1.389 . S
C840 C841 1.524 . S
C840 C854 1.377 . S
C841 C840 1.524 . S
C841 C842 1.397 . S
C841 C846 1.363 . S
C842 H819 0.950 . S
C842 C841 1.397 . S
C842 C843 1.334 . S
C843 H820 0.950 . S
C843 C842 1.334 . S
C843 C844 1.287 . S
C844 C843 1.287 . S
C844 C845 1.524 . S
C844 H863 0.913 . S
C845 H821 0.950 . S
C845 C844 1.524 . S
C845 C846 1.415 . S
C846 H822 0.950 . S
C846 C841 1.363 . S
C846 C845 1.415 . S
C847 H823 0.951 . S
C847 C848 1.366 . S
C847 C849 1.388 . S
C848 C847 1.366 . S
C848 C852 1.385 . S
C849 H824 0.951 . S
C849 C847 1.388 . S
C849 C850 1.366 . S
C850 C849 1.366 . S
C850 C851 1.414 . S
C850 C853 1.499 . S
C851 H825 0.950 . S
C851 C850 1.414 . S
C851 C852 1.374 . S
C852 H826 0.950 . S
C852 C848 1.385 . S
C852 C851 1.374 . S
C853 C850 1.499 . S
C853 C854 1.373 . S
C853 C855 1.389 . S
C854 H827 0.950 . S
C854 C840 1.377 . S
C854 C853 1.373 . S
C855 C839 1.377 . S
C855 C853 1.389 . S
C855 C856 1.524 . S
C856 C855 1.524 . S
C856 C857 1.397 . S
C856 C861 1.363 . S
C857 H828 0.950 . S
C857 C856 1.397 . S
C857 C858 1.334 . S
C858 H829 0.950 . S
C858 C857 1.334 . S
C858 C859 1.287 . S
C859 C858 1.287 . S
C859 C860 1.524 . S
C859 H862 0.999 . S
C860 H830 0.950 . S
C860 C859 1.524 . S
C860 C861 1.415 . S
C861 H831 0.950 . S
C861 C856 1.363 . S
C861 C860 1.415 . S
H862 C859 0.999 . S
H863 C844 0.913 . S
H864 C882 0.951 . S
H865 C884 0.951 . S
H866 C886 0.950 . S
H867 C887 0.950 . S
H868 C889 0.950 . S
H869 C892 0.950 . S
H870 C893 0.950 . S
H871 C895 0.950 . S
H872 C896 0.950 . S
H873 C897 0.951 . S
H874 C899 0.951 . S
H875 C901 0.950 . S
H876 C902 0.950 . S
H877 C904 0.950 . S
H878 C907 0.950 . S
H879 C908 0.950 . S
H880 C910 0.950 . S
H881 C911 0.950 . S
C882 H864 0.951 . S
C882 C883 1.366 . S
C882 C884 1.388 . S
C883 C882 1.366 . S
C883 C887 1.385 . S
C884 H865 0.951 . S
C884 C882 1.388 . S
C884 C885 1.366 . S
C885 C884 1.366 . S
C885 C886 1.414 . S
C885 C888 1.499 . S
C886 H866 0.950 . S
C886 C885 1.414 . S
C886 C887 1.374 . S
C887 H867 0.950 . S
C887 C883 1.385 . S
C887 C886 1.374 . S
C888 C885 1.499 . S
C888 C889 1.373 . S
C888 C890 1.389 . S
C889 H868 0.950 . S
C889 C888 1.373 . S
C889 C905 1.377 . S
C890 C888 1.389 . S
C890 C891 1.524 . S
C890 C904 1.377 . S
C891 C890 1.524 . S
C891 C892 1.397 . S
C891 C896 1.363 . S
C892 H869 0.950 . S
C892 C891 1.397 . S
C892 C893 1.334 . S
C893 H870 0.950 . S
C893 C892 1.334 . S
C893 C894 1.287 . S
C894 C893 1.287 . S
C894 C895 1.524 . S
C894 H913 0.913 . S
C895 H871 0.950 . S
C895 C894 1.524 . S
C895 C896 1.415 . S
C896 H872 0.950 . S
C896 C891 1.363 . S
C896 C895 1.415 . S
C897 H873 0.951 . S
C897 C898 1.366 . S
C897 C899 1.388 1_556 S
C898 C897 1.366 . S
C898 C902 1.385 . S
C899 H874 0.951 . S
C899 C897 1.388 1_554 S
C899 C900 1.366 . S
C900 C899 1.366 . S
C900 C901 1.414 . S
C900 C903 1.499 . S
C901 H875 0.950 . S
C901 C900 1.414 . S
C901 C902 1.374 1_554 S
C902 H876 0.950 . S
C902 C898 1.385 . S
C902 C901 1.374 1_556 S
C903 C900 1.499 . S
C903 C904 1.373 . S
C903 C905 1.389 . S
C904 H877 0.950 . S
C904 C890 1.377 . S
C904 C903 1.373 . S
C905 C889 1.377 . S
C905 C903 1.389 . S
C905 C906 1.524 . S
C906 C905 1.524 . S
C906 C907 1.397 . S
C906 C911 1.363 . S
C907 H878 0.950 . S
C907 C906 1.397 . S
C907 C908 1.334 . S
C908 H879 0.950 . S
C908 C907 1.334 . S
C908 C909 1.287 . S
C909 C908 1.287 . S
C909 C910 1.524 . S
C909 H912 0.999 . S
C910 H880 0.950 . S
C910 C909 1.524 . S
C910 C911 1.415 . S
C911 H881 0.950 . S
C911 C906 1.363 . S
C911 C910 1.415 . S
H912 C909 0.999 . S
H913 C894 0.913 . S
H914 C932 0.951 . S
H915 C934 0.951 . S
H916 C936 0.950 . S
H917 C937 0.950 . S
H918 C939 0.950 . S
H919 C942 0.950 . S
H920 C943 0.950 . S
H921 C945 0.950 . S
H922 C946 0.950 . S
H923 C947 0.951 . S
H924 C949 0.951 . S
H925 C951 0.950 . S
H926 C952 0.950 . S
H927 C954 0.950 . S
H928 C957 0.950 . S
H929 C958 0.950 . S
H930 C960 0.950 . S
H931 C961 0.950 . S
C932 H914 0.951 . S
C932 C933 1.366 . S
C932 C934 1.388 1_556 S
C933 C932 1.366 . S
C933 C937 1.385 . S
C934 H915 0.951 . S
C934 C932 1.388 1_554 S
C934 C935 1.366 . S
C935 C934 1.366 . S
C935 C936 1.414 . S
C935 C938 1.499 . S
C936 H916 0.950 . S
C936 C935 1.414 . S
C936 C937 1.374 1_554 S
C937 H917 0.950 . S
C937 C933 1.385 . S
C937 C936 1.374 1_556 S
C938 C935 1.499 . S
C938 C939 1.373 . S
C938 C940 1.389 . S
C939 H918 0.950 . S
C939 C938 1.373 . S
C939 C955 1.377 . S
C940 C938 1.389 . S
C940 C941 1.524 . S
C940 C954 1.377 . S
C941 C940 1.524 . S
C941 C942 1.397 . S
C941 C946 1.363 . S
C942 H919 0.950 . S
C942 C941 1.397 . S
C942 C943 1.334 . S
C943 H920 0.950 . S
C943 C942 1.334 . S
C943 C944 1.287 . S
C944 C943 1.287 . S
C944 C945 1.524 . S
C944 H963 0.913 . S
C945 H921 0.950 . S
C945 C944 1.524 . S
C945 C946 1.415 . S
C946 H922 0.950 . S
C946 C941 1.363 . S
C946 C945 1.415 . S
C947 H923 0.951 . S
C947 C948 1.366 . S
C947 C949 1.388 . S
C948 C947 1.366 . S
C948 C952 1.385 . S
C949 H924 0.951 . S
C949 C947 1.388 . S
C949 C950 1.366 . S
C950 C949 1.366 . S
C950 C951 1.414 . S
C950 C953 1.499 . S
C951 H925 0.950 . S
C951 C950 1.414 . S
C951 C952 1.374 . S
C952 H926 0.950 . S
C952 C948 1.385 . S
C952 C951 1.374 . S
C953 C950 1.499 . S
C953 C954 1.373 . S
C953 C955 1.389 . S
C954 H927 0.950 . S
C954 C940 1.377 . S
C954 C953 1.373 . S
C955 C939 1.377 . S
C955 C953 1.389 . S
C955 C956 1.524 . S
C956 C955 1.524 . S
C956 C957 1.397 . S
C956 C961 1.363 . S
C957 H928 0.950 . S
C957 C956 1.397 . S
C957 C958 1.334 . S
C958 H929 0.950 . S
C958 C957 1.334 . S
C958 C959 1.287 . S
C959 C958 1.287 . S
C959 C960 1.524 . S
C959 H962 0.999 . S
C960 H930 0.950 . S
C960 C959 1.524 . S
C960 C961 1.415 . S
C961 H931 0.950 . S
C961 C956 1.363 . S
C961 C960 1.415 . S
H962 C959 0.999 . S
H963 C944 0.913 . S
H964 C982 0.951 . S
H965 C984 0.951 . S
H966 C986 0.950 . S
H967 C987 0.950 . S
H968 C989 0.950 . S
H969 C992 0.950 . S
H970 C993 0.950 . S
H971 C995 0.950 . S
H972 C996 0.950 . S
H973 C997 0.951 . S
H974 C999 0.951 . S
H975 C1001 0.950 . S
H976 C1002 0.950 . S
H977 C1004 0.950 . S
H978 C1007 0.950 . S
H979 C1008 0.950 . S
H980 C1010 0.950 . S
H981 C1011 0.950 . S
C982 H964 0.951 . S
C982 C983 1.366 . S
C982 C984 1.388 1_556 S
C983 C982 1.366 . S
C983 C987 1.385 . S
C984 H965 0.951 . S
C984 C982 1.388 1_554 S
C984 C985 1.366 . S
C985 C984 1.366 . S
C985 C986 1.414 . S
C985 C988 1.499 . S
C986 H966 0.950 . S
C986 C985 1.414 . S
C986 C987 1.374 1_554 S
C987 H967 0.950 . S
C987 C983 1.385 . S
C987 C986 1.374 1_556 S
C988 C985 1.499 . S
C988 C989 1.373 . S
C988 C990 1.389 . S
C989 H968 0.950 . S
C989 C988 1.373 . S
C989 C1005 1.377 . S
C990 C988 1.389 . S
C990 C991 1.524 . S
C990 C1004 1.377 . S
C991 C990 1.524 . S
C991 C992 1.397 . S
C991 C996 1.363 . S
C992 H969 0.950 . S
C992 C991 1.397 . S
C992 C993 1.334 . S
C993 H970 0.950 . S
C993 C992 1.334 . S
C993 C994 1.287 . S
C994 C993 1.287 . S
C994 C995 1.524 . S
C994 H1013 0.913 . S
C995 H971 0.950 . S
C995 C994 1.524 . S
C995 C996 1.415 . S
C996 H972 0.950 . S
C996 C991 1.363 . S
C996 C995 1.415 . S
C997 H973 0.951 . S
C997 C998 1.366 . S
C997 C999 1.388 . S
C998 C997 1.366 . S
C998 C1002 1.385 . S
C999 H974 0.951 . S
C999 C997 1.388 . S
C999 C1000 1.366 . S
C1000 C999 1.366 . S
C1000 C1001 1.414 . S
C1000 C1003 1.499 . S
C1001 H975 0.950 . S
C1001 C1000 1.414 . S
C1001 C1002 1.374 . S
C1002 H976 0.950 . S
C1002 C998 1.385 . S
C1002 C1001 1.374 . S
C1003 C1000 1.499 . S
C1003 C1004 1.373 . S
C1003 C1005 1.389 . S
C1004 H977 0.950 . S
C1004 C990 1.377 . S
C1004 C1003 1.373 . S
C1005 C989 1.377 . S
C1005 C1003 1.389 . S
C1005 C1006 1.524 . S
C1006 C1005 1.524 . S
C1006 C1007 1.397 . S
C1006 C1011 1.363 . S
C1007 H978 0.950 . S
C1007 C1006 1.397 . S
C1007 C1008 1.334 . S
C1008 H979 0.950 . S
C1008 C1007 1.334 . S
C1008 C1009 1.287 . S
C1009 C1008 1.287 . S
C1009 C1010 1.524 . S
C1009 H1012 0.999 . S
C1010 H980 0.950 . S
C1010 C1009 1.524 . S
C1010 C1011 1.415 . S
C1011 H981 0.950 . S
C1011 C1006 1.363 . S
C1011 C1010 1.415 . S
H1012 C1009 0.999 . S
H1013 C994 0.913 . S
H1014 C1032 0.951 . S
H1015 C1034 0.951 1_556 S
H1016 C1036 0.950 1_556 S
H1017 C1037 0.950 . S
H1018 C1039 0.950 . S
H1019 C1042 0.950 . S
H1020 C1043 0.950 1_554 S
H1021 C1045 0.950 . S
H1022 C1046 0.950 . S
H1023 C1047 0.951 . S
H1024 C1049 0.951 . S
H1025 C1051 0.950 . S
H1026 C1052 0.950 . S
H1027 C1054 0.950 . S
H1028 C1057 0.950 . S
H1029 C1058 0.950 . S
H1030 C1060 0.950 . S
H1031 C1061 0.950 . S
C1032 H1014 0.951 . S
C1032 C1033 1.366 . S
C1032 C1034 1.388 . S
C1033 C1032 1.366 . S
C1033 C1037 1.385 . S
C1034 H1015 0.951 1_554 S
C1034 C1032 1.388 . S
C1034 C1035 1.366 1_554 S
C1035 C1034 1.366 1_556 S
C1035 C1036 1.414 1_556 S
C1035 C1038 1.499 . S
C1036 H1016 0.950 1_554 S
C1036 C1035 1.414 1_554 S
C1036 C1037 1.374 . S
C1037 H1017 0.950 . S
C1037 C1033 1.385 . S
C1037 C1036 1.374 . S
C1038 C1035 1.499 . S
C1038 C1039 1.373 . S
C1038 C1040 1.389 . S
C1039 H1018 0.950 . S
C1039 C1038 1.373 . S
C1039 C1055 1.377 . S
C1040 C1038 1.389 . S
C1040 C1041 1.524 . S
C1040 C1054 1.377 . S
C1041 C1040 1.524 . S
C1041 C1042 1.397 . S
C1041 C1046 1.363 . S
C1042 H1019 0.950 . S
C1042 C1041 1.397 . S
C1042 C1043 1.334 . S
C1043 H1020 0.950 1_556 S
C1043 C1042 1.334 . S
C1043 C1044 1.287 . S
C1044 C1043 1.287 . S
C1044 C1045 1.524 . S
C1044 H1063 0.913 1_556 S
C1045 H1021 0.950 . S
C1045 C1044 1.524 . S
C1045 C1046 1.415 . S
C1046 H1022 0.950 . S
C1046 C1041 1.363 . S
C1046 C1045 1.415 . S
C1047 H1023 0.951 . S
C1047 C1048 1.366 . S
C1047 C1049 1.388 . S
C1048 C1047 1.366 . S
C1048 C1052 1.385 . S
C1049 H1024 0.951 . S
C1049 C1047 1.388 . S
C1049 C1050 1.366 . S
C1050 C1049 1.366 . S
C1050 C1051 1.414 . S
C1050 C1053 1.499 . S
C1051 H1025 0.950 . S
C1051 C1050 1.414 . S
C1051 C1052 1.374 . S
C1052 H1026 0.950 . S
C1052 C1048 1.385 . S
C1052 C1051 1.374 . S
C1053 C1050 1.499 . S
C1053 C1054 1.373 . S
C1053 C1055 1.389 . S
C1054 H1027 0.950 . S
C1054 C1040 1.377 . S
C1054 C1053 1.373 . S
C1055 C1039 1.377 . S
C1055 C1053 1.389 . S
C1055 C1056 1.524 . S
C1056 C1055 1.524 . S
C1056 C1057 1.397 . S
C1056 C1061 1.363 . S
C1057 H1028 0.950 . S
C1057 C1056 1.397 . S
C1057 C1058 1.334 . S
C1058 H1029 0.950 . S
C1058 C1057 1.334 . S
C1058 C1059 1.287 . S
C1059 C1058 1.287 . S
C1059 C1060 1.524 . S
C1059 H1062 0.999 . S
C1060 H1030 0.950 . S
C1060 C1059 1.524 . S
C1060 C1061 1.415 . S
C1061 H1031 0.950 . S
C1061 C1056 1.363 . S
C1061 C1060 1.415 . S
H1062 C1059 0.999 . S
H1063 C1044 0.913 1_554 S
H1064 C1082 0.951 . S
H1065 C1084 0.951 . S
H1066 C1086 0.950 . S
H1067 C1087 0.950 . S
H1068 C1089 0.950 . S
H1069 C1092 0.950 . S
H1070 C1093 0.950 . S
H1071 C1095 0.950 . S
H1072 C1096 0.950 . S
H1073 C1097 0.951 . S
H1074 C1099 0.951 . S
H1075 C1101 0.950 . S
H1076 C1102 0.950 . S
H1077 C1104 0.950 . S
H1078 C1107 0.950 . S
H1079 C1108 0.950 . S
H1080 C1110 0.950 . S
H1081 C1111 0.950 . S
C1082 H1064 0.951 . S
C1082 C1083 1.366 . S
C1082 C1084 1.388 . S
C1083 C1082 1.366 . S
C1083 C1087 1.385 . S
C1084 H1065 0.951 . S
C1084 C1082 1.388 . S
C1084 C1085 1.366 . S
C1085 C1084 1.366 . S
C1085 C1086 1.414 . S
C1085 C1088 1.499 . S
C1086 H1066 0.950 . S
C1086 C1085 1.414 . S
C1086 C1087 1.374 . S
C1087 H1067 0.950 . S
C1087 C1083 1.385 . S
C1087 C1086 1.374 . S
C1088 C1085 1.499 . S
C1088 C1089 1.373 . S
C1088 C1090 1.389 . S
C1089 H1068 0.950 . S
C1089 C1088 1.373 . S
C1089 C1105 1.377 . S
C1090 C1088 1.389 . S
C1090 C1091 1.524 . S
C1090 C1104 1.377 . S
C1091 C1090 1.524 . S
C1091 C1092 1.397 . S
C1091 C1096 1.363 . S
C1092 H1069 0.950 . S
C1092 C1091 1.397 . S
C1092 C1093 1.334 . S
C1093 H1070 0.950 . S
C1093 C1092 1.334 . S
C1093 C1094 1.287 . S
C1094 C1093 1.287 . S
C1094 C1095 1.524 . S
C1094 H1113 0.913 . S
C1095 H1071 0.950 . S
C1095 C1094 1.524 . S
C1095 C1096 1.415 . S
C1096 H1072 0.950 . S
C1096 C1091 1.363 . S
C1096 C1095 1.415 . S
C1097 H1073 0.951 . S
C1097 C1098 1.366 . S
C1097 C1099 1.388 1_554 S
C1098 C1097 1.366 . S
C1098 C1102 1.385 . S
C1099 H1074 0.951 . S
C1099 C1097 1.388 1_556 S
C1099 C1100 1.366 . S
C1100 C1099 1.366 . S
C1100 C1101 1.414 . S
C1100 C1103 1.499 . S
C1101 H1075 0.950 . S
C1101 C1100 1.414 . S
C1101 C1102 1.374 1_556 S
C1102 H1076 0.950 . S
C1102 C1098 1.385 . S
C1102 C1101 1.374 1_554 S
C1103 C1100 1.499 . S
C1103 C1104 1.373 . S
C1103 C1105 1.389 . S
C1104 H1077 0.950 . S
C1104 C1090 1.377 . S
C1104 C1103 1.373 . S
C1105 C1089 1.377 . S
C1105 C1103 1.389 . S
C1105 C1106 1.524 . S
C1106 C1105 1.524 . S
C1106 C1107 1.397 . S
C1106 C1111 1.363 . S
C1107 H1078 0.950 . S
C1107 C1106 1.397 . S
C1107 C1108 1.334 . S
C1108 H1079 0.950 . S
C1108 C1107 1.334 . S
C1108 C1109 1.287 . S
C1109 C1108 1.287 . S
C1109 C1110 1.524 . S
C1109 H1112 0.999 . S
C1110 H1080 0.950 . S
C1110 C1109 1.524 . S
C1110 C1111 1.415 . S
C1111 H1081 0.950 . S
C1111 C1106 1.363 . S
C1111 C1110 1.415 . S
H1112 C1109 0.999 . S
H1113 C1094 0.913 . S
H1114 C1132 0.951 . S
H1115 C1134 0.951 1_556 S
H1116 C1136 0.950 1_556 S
H1117 C1137 0.950 . S
H1118 C1139 0.950 . S
H1119 C1142 0.950 . S
H1120 C1143 0.950 . S
H1121 C1145 0.950 . S
H1122 C1146 0.950 . S
H1123 C1147 0.951 . S
H1124 C1149 0.951 . S
H1125 C1151 0.950 . S
H1126 C1152 0.950 . S
H1127 C1154 0.950 . S
H1128 C1157 0.950 . S
H1129 C1158 0.950 . S
H1130 C1160 0.950 . S
H1131 C1161 0.950 . S
C1132 H1114 0.951 . S
C1132 C1133 1.366 . S
C1132 C1134 1.388 . S
C1133 C1132 1.366 . S
C1133 C1137 1.385 . S
C1134 H1115 0.951 1_554 S
C1134 C1132 1.388 . S
C1134 C1135 1.366 1_554 S
C1135 C1134 1.366 1_556 S
C1135 C1136 1.414 1_556 S
C1135 C1138 1.499 . S
C1136 H1116 0.950 1_554 S
C1136 C1135 1.414 1_554 S
C1136 C1137 1.374 . S
C1137 H1117 0.950 . S
C1137 C1133 1.385 . S
C1137 C1136 1.374 . S
C1138 C1135 1.499 . S
C1138 C1139 1.373 . S
C1138 C1140 1.389 . S
C1139 H1118 0.950 . S
C1139 C1138 1.373 . S
C1139 C1155 1.377 . S
C1140 C1138 1.389 . S
C1140 C1141 1.524 . S
C1140 C1154 1.377 . S
C1141 C1140 1.524 . S
C1141 C1142 1.397 . S
C1141 C1146 1.363 . S
C1142 H1119 0.950 . S
C1142 C1141 1.397 . S
C1142 C1143 1.334 . S
C1143 H1120 0.950 . S
C1143 C1142 1.334 . S
C1143 C1144 1.287 . S
C1144 C1143 1.287 . S
C1144 C1145 1.524 . S
C1144 H1163 0.913 . S
C1145 H1121 0.950 . S
C1145 C1144 1.524 . S
C1145 C1146 1.415 . S
C1146 H1122 0.950 . S
C1146 C1141 1.363 . S
C1146 C1145 1.415 . S
C1147 H1123 0.951 . S
C1147 C1148 1.366 . S
C1147 C1149 1.388 . S
C1148 C1147 1.366 . S
C1148 C1152 1.385 . S
C1149 H1124 0.951 . S
C1149 C1147 1.388 . S
C1149 C1150 1.366 . S
C1150 C1149 1.366 . S
C1150 C1151 1.414 . S
C1150 C1153 1.499 . S
C1151 H1125 0.950 . S
C1151 C1150 1.414 . S
C1151 C1152 1.374 . S
C1152 H1126 0.950 . S
C1152 C1148 1.385 . S
C1152 C1151 1.374 . S
C1153 C1150 1.499 . S
C1153 C1154 1.373 . S
C1153 C1155 1.389 . S
C1154 H1127 0.950 . S
C1154 C1140 1.377 . S
C1154 C1153 1.373 . S
C1155 C1139 1.377 . S
C1155 C1153 1.389 . S
C1155 C1156 1.524 . S
C1156 C1155 1.524 . S
C1156 C1157 1.397 . S
C1156 C1161 1.363 . S
C1157 H1128 0.950 . S
C1157 C1156 1.397 . S
C1157 C1158 1.334 . S
C1158 H1129 0.950 . S
C1158 C1157 1.334 . S
C1158 C1159 1.287 . S
C1159 C1158 1.287 . S
C1159 C1160 1.524 . S
C1159 H1162 0.999 . S
C1160 H1130 0.950 . S
C1160 C1159 1.524 . S
C1160 C1161 1.415 . S
C1161 H1131 0.950 . S
C1161 C1156 1.363 . S
C1161 C1160 1.415 . S
H1162 C1159 0.999 . S
H1163 C1144 0.913 . S
H1164 C1182 0.951 . S
H1165 C1184 0.951 . S
H1166 C1186 0.950 . S
H1167 C1187 0.950 . S
H1168 C1189 0.950 . S
H1169 C1192 0.950 . S
H1170 C1193 0.950 . S
H1171 C1195 0.950 . S
H1172 C1196 0.950 . S
H1173 C1197 0.951 . S
H1174 C1199 0.951 . S
H1175 C1201 0.950 . S
H1176 C1202 0.950 . S
H1177 C1204 0.950 . S
H1178 C1207 0.950 . S
H1179 C1208 0.950 . S
H1180 C1210 0.950 . S
H1181 C1211 0.950 . S
C1182 H1164 0.951 . S
C1182 C1183 1.366 . S
C1182 C1184 1.388 . S
C1183 C1182 1.366 . S
C1183 C1187 1.385 . S
C1184 H1165 0.951 . S
C1184 C1182 1.388 . S
C1184 C1185 1.366 . S
C1185 C1184 1.366 . S
C1185 C1186 1.414 . S
C1185 C1188 1.499 . S
C1186 H1166 0.950 . S
C1186 C1185 1.414 . S
C1186 C1187 1.374 . S
C1187 H1167 0.950 . S
C1187 C1183 1.385 . S
C1187 C1186 1.374 . S
C1188 C1185 1.499 . S
C1188 C1189 1.373 . S
C1188 C1190 1.389 . S
C1189 H1168 0.950 . S
C1189 C1188 1.373 . S
C1189 C1205 1.377 . S
C1190 C1188 1.389 . S
C1190 C1191 1.524 . S
C1190 C1204 1.377 . S
C1191 C1190 1.524 . S
C1191 C1192 1.397 . S
C1191 C1196 1.363 . S
C1192 H1169 0.950 . S
C1192 C1191 1.397 . S
C1192 C1193 1.334 . S
C1193 H1170 0.950 . S
C1193 C1192 1.334 . S
C1193 C1194 1.287 . S
C1194 C1193 1.287 . S
C1194 C1195 1.524 . S
C1194 H1213 0.913 . S
C1195 H1171 0.950 . S
C1195 C1194 1.524 . S
C1195 C1196 1.415 . S
C1196 H1172 0.950 . S
C1196 C1191 1.363 . S
C1196 C1195 1.415 . S
C1197 H1173 0.951 . S
C1197 C1198 1.366 . S
C1197 C1199 1.388 . S
C1198 C1197 1.366 . S
C1198 C1202 1.385 . S
C1199 H1174 0.951 . S
C1199 C1197 1.388 . S
C1199 C1200 1.366 . S
C1200 C1199 1.366 . S
C1200 C1201 1.414 . S
C1200 C1203 1.499 . S
C1201 H1175 0.950 . S
C1201 C1200 1.414 . S
C1201 C1202 1.374 . S
C1202 H1176 0.950 . S
C1202 C1198 1.385 . S
C1202 C1201 1.374 . S
C1203 C1200 1.499 . S
C1203 C1204 1.373 . S
C1203 C1205 1.389 . S
C1204 H1177 0.950 . S
C1204 C1190 1.377 . S
C1204 C1203 1.373 . S
C1205 C1189 1.377 . S
C1205 C1203 1.389 . S
C1205 C1206 1.524 . S
C1206 C1205 1.524 . S
C1206 C1207 1.397 . S
C1206 C1211 1.363 . S
C1207 H1178 0.950 . S
C1207 C1206 1.397 . S
C1207 C1208 1.334 . S
C1208 H1179 0.950 . S
C1208 C1207 1.334 . S
C1208 C1209 1.287 . S
C1209 C1208 1.287 . S
C1209 C1210 1.524 . S
C1209 H1212 0.999 . S
C1210 H1180 0.950 . S
C1210 C1209 1.524 . S
C1210 C1211 1.415 . S
C1211 H1181 0.950 . S
C1211 C1206 1.363 . S
C1211 C1210 1.415 . S
H1212 C1209 0.999 . S
H1213 C1194 0.913 . S
H1214 C1232 0.951 . S
H1215 C1234 0.951 . S
H1216 C1236 0.950 . S
H1217 C1237 0.950 . S
H1218 C1239 0.950 . S
H1219 C1242 0.950 . S
H1220 C1243 0.950 . S
H1221 C1245 0.950 . S
H1222 C1246 0.950 . S
H1223 C1247 0.951 . S
H1224 C1249 0.951 . S
H1225 C1251 0.950 . S
H1226 C1252 0.950 . S
H1227 C1254 0.950 . S
H1228 C1257 0.950 . S
H1229 C1258 0.950 . S
H1230 C1260 0.950 . S
H1231 C1261 0.950 . S
C1232 H1214 0.951 . S
C1232 C1233 1.366 . S
C1232 C1234 1.388 . S
C1233 C1232 1.366 . S
C1233 C1237 1.385 . S
C1234 H1215 0.951 . S
C1234 C1232 1.388 . S
C1234 C1235 1.366 . S
C1235 C1234 1.366 . S
C1235 C1236 1.414 . S
C1235 C1238 1.499 . S
C1236 H1216 0.950 . S
C1236 C1235 1.414 . S
C1236 C1237 1.374 . S
C1237 H1217 0.950 . S
C1237 C1233 1.385 . S
C1237 C1236 1.374 . S
C1238 C1235 1.499 . S
C1238 C1239 1.373 . S
C1238 C1240 1.389 . S
C1239 H1218 0.950 . S
C1239 C1238 1.373 . S
C1239 C1255 1.377 . S
C1240 C1238 1.389 . S
C1240 C1241 1.524 . S
C1240 C1254 1.377 . S
C1241 C1240 1.524 . S
C1241 C1242 1.397 . S
C1241 C1246 1.363 . S
C1242 H1219 0.950 . S
C1242 C1241 1.397 . S
C1242 C1243 1.334 . S
C1243 H1220 0.950 . S
C1243 C1242 1.334 . S
C1243 C1244 1.287 . S
C1244 C1243 1.287 . S
C1244 C1245 1.524 . S
C1244 H1263 0.913 . S
C1245 H1221 0.950 . S
C1245 C1244 1.524 . S
C1245 C1246 1.415 . S
C1246 H1222 0.950 . S
C1246 C1241 1.363 . S
C1246 C1245 1.415 . S
C1247 H1223 0.951 . S
C1247 C1248 1.366 . S
C1247 C1249 1.388 . S
C1248 C1247 1.366 . S
C1248 C1252 1.385 . S
C1249 H1224 0.951 . S
C1249 C1247 1.388 . S
C1249 C1250 1.366 . S
C1250 C1249 1.366 . S
C1250 C1251 1.414 . S
C1250 C1253 1.499 . S
C1251 H1225 0.950 . S
C1251 C1250 1.414 . S
C1251 C1252 1.374 . S
C1252 H1226 0.950 . S
C1252 C1248 1.385 . S
C1252 C1251 1.374 . S
C1253 C1250 1.499 . S
C1253 C1254 1.373 . S
C1253 C1255 1.389 . S
C1254 H1227 0.950 . S
C1254 C1240 1.377 . S
C1254 C1253 1.373 . S
C1255 C1239 1.377 . S
C1255 C1253 1.389 . S
C1255 C1256 1.524 . S
C1256 C1255 1.524 . S
C1256 C1257 1.397 . S
C1256 C1261 1.363 . S
C1257 H1228 0.950 . S
C1257 C1256 1.397 . S
C1257 C1258 1.334 . S
C1258 H1229 0.950 . S
C1258 C1257 1.334 . S
C1258 C1259 1.287 . S
C1259 C1258 1.287 . S
C1259 C1260 1.524 . S
C1259 H1262 0.999 . S
C1260 H1230 0.950 . S
C1260 C1259 1.524 . S
C1260 C1261 1.415 . S
C1261 H1231 0.950 . S
C1261 C1256 1.363 . S
C1261 C1260 1.415 . S
H1262 C1259 0.999 . S
H1263 C1244 0.913 . S
H1264 C1282 0.951 . S
H1265 C1284 0.951 . S
H1266 C1286 0.950 . S
H1267 C1287 0.950 . S
H1268 C1289 0.950 . S
H1269 C1292 0.950 . S
H1270 C1293 0.950 . S
H1271 C1295 0.950 . S
H1272 C1296 0.950 . S
H1273 C1297 0.951 . S
H1274 C1299 0.951 . S
H1275 C1301 0.950 . S
H1276 C1302 0.950 . S
H1277 C1304 0.950 . S
H1278 C1307 0.950 . S
H1279 C1308 0.950 . S
H1280 C1310 0.950 . S
H1281 C1311 0.950 . S
C1282 H1264 0.951 . S
C1282 C1283 1.366 . S
C1282 C1284 1.388 . S
C1283 C1282 1.366 . S
C1283 C1287 1.385 . S
C1284 H1265 0.951 . S
C1284 C1282 1.388 . S
C1284 C1285 1.366 . S
C1285 C1284 1.366 . S
C1285 C1286 1.414 . S
C1285 C1288 1.499 . S
C1286 H1266 0.950 . S
C1286 C1285 1.414 . S
C1286 C1287 1.374 . S
C1287 H1267 0.950 . S
C1287 C1283 1.385 . S
C1287 C1286 1.374 . S
C1288 C1285 1.499 . S
C1288 C1289 1.373 . S
C1288 C1290 1.389 . S
C1289 H1268 0.950 . S
C1289 C1288 1.373 . S
C1289 C1305 1.377 . S
C1290 C1288 1.389 . S
C1290 C1291 1.524 . S
C1290 C1304 1.377 . S
C1291 C1290 1.524 . S
C1291 C1292 1.397 . S
C1291 C1296 1.363 . S
C1292 H1269 0.950 . S
C1292 C1291 1.397 . S
C1292 C1293 1.334 . S
C1293 H1270 0.950 . S
C1293 C1292 1.334 . S
C1293 C1294 1.287 . S
C1294 C1293 1.287 . S
C1294 C1295 1.524 . S
C1294 H1313 0.913 . S
C1295 H1271 0.950 . S
C1295 C1294 1.524 . S
C1295 C1296 1.415 . S
C1296 H1272 0.950 . S
C1296 C1291 1.363 . S
C1296 C1295 1.415 . S
C1297 H1273 0.951 . S
C1297 C1298 1.366 . S
C1297 C1299 1.388 . S
C1298 C1297 1.366 . S
C1298 C1302 1.385 . S
C1299 H1274 0.951 . S
C1299 C1297 1.388 . S
C1299 C1300 1.366 . S
C1300 C1299 1.366 . S
C1300 C1301 1.414 . S
C1300 C1303 1.499 . S
C1301 H1275 0.950 . S
C1301 C1300 1.414 . S
C1301 C1302 1.374 . S
C1302 H1276 0.950 . S
C1302 C1298 1.385 . S
C1302 C1301 1.374 . S
C1303 C1300 1.499 . S
C1303 C1304 1.373 . S
C1303 C1305 1.389 . S
C1304 H1277 0.950 . S
C1304 C1290 1.377 . S
C1304 C1303 1.373 . S
C1305 C1289 1.377 . S
C1305 C1303 1.389 . S
C1305 C1306 1.524 . S
C1306 C1305 1.524 . S
C1306 C1307 1.397 . S
C1306 C1311 1.363 . S
C1307 H1278 0.950 . S
C1307 C1306 1.397 . S
C1307 C1308 1.334 . S
C1308 H1279 0.950 . S
C1308 C1307 1.334 . S
C1308 C1309 1.287 . S
C1309 C1308 1.287 . S
C1309 C1310 1.524 . S
C1309 H1312 0.999 . S
C1310 H1280 0.950 . S
C1310 C1309 1.524 . S
C1310 C1311 1.415 . S
C1311 H1281 0.950 . S
C1311 C1306 1.363 . S
C1311 C1310 1.415 . S
H1312 C1309 0.999 . S
H1313 C1294 0.913 . S
H1314 C1332 0.951 1_554 S
H1315 C1334 0.951 . S
H1316 C1336 0.950 . S
H1317 C1337 0.950 . S
H1318 C1339 0.950 . S
H1319 C1342 0.950 . S
H1320 C1343 0.950 . S
H1321 C1345 0.928 1_554 S
H1322 C1346 0.950 . S
H1323 C1347 0.951 . S
H1324 C1349 0.951 . S
H1325 C1351 0.950 . S
H1326 C1352 0.950 . S
H1327 C1354 0.950 . S
H1328 C1357 0.950 . S
H1329 C1358 0.950 . S
H1330 C1360 0.950 . S
H1331 C1361 0.950 . S
C1332 H1314 0.951 1_556 S
C1332 C1333 1.366 . S
C1332 C1334 1.388 . S
C1333 C1332 1.366 . S
C1333 C1337 1.385 . S
C1334 H1315 0.951 . S
C1334 C1332 1.388 . S
C1334 C1335 1.366 . S
C1335 C1334 1.366 . S
C1335 C1336 1.414 . S
C1335 C1338 1.499 . S
C1336 H1316 0.950 . S
C1336 C1335 1.414 . S
C1336 C1337 1.374 . S
C1337 H1317 0.950 . S
C1337 C1333 1.385 . S
C1337 C1336 1.374 . S
C1338 C1335 1.499 . S
C1338 C1339 1.373 . S
C1338 C1340 1.389 . S
C1339 H1318 0.950 . S
C1339 C1338 1.373 . S
C1339 C1355 1.377 . S
C1340 C1338 1.389 . S
C1340 C1341 1.524 . S
C1340 C1354 1.377 . S
C1341 C1340 1.524 . S
C1341 C1342 1.397 . S
C1341 C1346 1.363 . S
C1342 H1319 0.950 . S
C1342 C1341 1.397 . S
C1342 C1343 1.334 . S
C1343 H1320 0.950 . S
C1343 C1342 1.334 . S
C1343 C1344 1.287 . S
C1344 C1343 1.287 . S
C1344 C1345 1.524 . S
C1344 H1363 0.913 . S
C1345 H1321 0.928 1_556 S
C1345 C1344 1.524 . S
C1345 C1346 1.415 . S
C1346 H1322 0.950 . S
C1346 C1341 1.363 . S
C1346 C1345 1.415 . S
C1347 H1323 0.951 . S
C1347 C1348 1.366 . S
C1347 C1349 1.388 . S
C1348 C1347 1.366 . S
C1348 C1352 1.385 . S
C1349 H1324 0.951 . S
C1349 C1347 1.388 . S
C1349 C1350 1.366 . S
C1350 C1349 1.366 . S
C1350 C1351 1.414 . S
C1350 C1353 1.499 . S
C1351 H1325 0.950 . S
C1351 C1350 1.414 . S
C1351 C1352 1.374 . S
C1352 H1326 0.950 . S
C1352 C1348 1.385 . S
C1352 C1351 1.374 . S
C1353 C1350 1.499 . S
C1353 C1354 1.373 . S
C1353 C1355 1.389 . S
C1354 H1327 0.950 . S
C1354 C1340 1.377 . S
C1354 C1353 1.373 . S
C1355 C1339 1.377 . S
C1355 C1353 1.389 . S
C1355 C1356 1.524 . S
C1356 C1355 1.524 . S
C1356 C1357 1.397 . S
C1356 C1361 1.363 . S
C1357 H1328 0.950 . S
C1357 C1356 1.397 . S
C1357 C1358 1.334 . S
C1358 H1329 0.950 . S
C1358 C1357 1.334 . S
C1358 C1359 1.287 . S
C1359 C1358 1.287 . S
C1359 C1360 1.524 . S
C1359 H1362 0.999 . S
C1360 H1330 0.950 . S
C1360 C1359 1.524 . S
C1360 C1361 1.415 . S
C1361 H1331 0.950 . S
C1361 C1356 1.363 . S
C1361 C1360 1.415 . S
H1362 C1359 0.999 . S
H1363 C1344 0.913 . S
H1364 C1382 0.951 . S
H1365 C1384 0.951 . S
H1366 C1386 0.950 . S
H1367 C1387 0.950 . S
H1368 C1389 0.950 . S
H1369 C1392 0.950 . S
H1370 C1393 0.950 . S
H1371 C1395 0.950 . S
H1372 C1396 0.950 . S
H1373 C1397 0.951 1_554 S
H1374 C1399 0.951 . S
H1375 C1401 0.950 . S
H1376 C1402 0.950 . S
H1377 C1404 0.950 . S
H1378 C1407 0.950 . S
H1379 C1408 0.950 . S
H1380 C1410 0.950 . S
H1381 C1411 0.953 . S
C1382 H1364 0.951 . S
C1382 C1383 1.366 . S
C1382 C1384 1.388 . S
C1383 C1382 1.366 . S
C1383 C1387 1.385 . S
C1384 H1365 0.951 . S
C1384 C1382 1.388 . S
C1384 C1385 1.366 . S
C1385 C1384 1.366 . S
C1385 C1386 1.414 . S
C1385 C1388 1.499 . S
C1386 H1366 0.950 . S
C1386 C1385 1.414 . S
C1386 C1387 1.374 . S
C1387 H1367 0.950 . S
C1387 C1383 1.385 . S
C1387 C1386 1.374 . S
C1388 C1385 1.499 . S
C1388 C1389 1.373 . S
C1388 C1390 1.389 . S
C1389 H1368 0.950 . S
C1389 C1388 1.373 . S
C1389 C1405 1.377 . S
C1390 C1388 1.389 . S
C1390 C1391 1.524 . S
C1390 C1404 1.377 . S
C1391 C1390 1.524 . S
C1391 C1392 1.397 . S
C1391 C1396 1.363 . S
C1392 H1369 0.950 . S
C1392 C1391 1.397 . S
C1392 C1393 1.334 . S
C1393 H1370 0.950 . S
C1393 C1392 1.334 . S
C1393 C1394 1.287 . S
C1394 C1393 1.287 . S
C1394 C1395 1.524 . S
C1394 H1413 0.913 . S
C1395 H1371 0.950 . S
C1395 C1394 1.524 . S
C1395 C1396 1.415 . S
C1396 H1372 0.950 . S
C1396 C1391 1.363 . S
C1396 C1395 1.415 . S
C1397 H1373 0.951 1_556 S
C1397 C1398 1.366 . S
C1397 C1399 1.388 . S
C1398 C1397 1.366 . S
C1398 C1402 1.385 . S
C1399 H1374 0.951 . S
C1399 C1397 1.388 . S
C1399 C1400 1.366 . S
C1400 C1399 1.366 . S
C1400 C1401 1.414 . S
C1400 C1403 1.499 . S
C1401 H1375 0.950 . S
C1401 C1400 1.414 . S
C1401 C1402 1.374 . S
C1402 H1376 0.950 . S
C1402 C1398 1.385 . S
C1402 C1401 1.374 . S
C1403 C1400 1.499 . S
C1403 C1404 1.373 . S
C1403 C1405 1.389 . S
C1404 H1377 0.950 . S
C1404 C1390 1.377 . S
C1404 C1403 1.373 . S
C1405 C1389 1.377 . S
C1405 C1403 1.389 . S
C1405 C1406 1.524 . S
C1406 C1405 1.524 . S
C1406 C1407 1.397 . S
C1406 C1411 1.363 1_556 S
C1407 H1378 0.950 . S
C1407 C1406 1.397 . S
C1407 C1408 1.334 1_556 S
C1408 H1379 0.950 . S
C1408 C1407 1.334 1_554 S
C1408 C1409 1.287 . S
C1409 C1408 1.287 . S
C1409 C1410 1.524 . S
C1409 H1412 0.999 . S
C1410 H1380 0.950 . S
C1410 C1409 1.524 . S
C1410 C1411 1.415 . S
C1411 H1381 0.953 . S
C1411 C1406 1.363 1_554 S
C1411 C1410 1.415 . S
H1412 C1409 0.999 . S
H1413 C1394 0.913 . S
H1414 C1432 0.951 . S
H1415 C1434 0.951 . S
H1416 C1436 0.950 . S
H1417 C1437 0.950 . S
H1418 C1439 0.950 . S
H1419 C1442 0.950 . S
H1420 C1443 0.950 . S
H1421 C1445 0.950 . S
H1422 C1446 0.950 . S
H1423 C1447 0.951 1_545 S
H1424 C1449 0.951 . S
H1425 C1451 0.950 . S
H1426 C1452 0.950 . S
H1427 C1454 0.950 . S
H1428 C1457 0.950 . S
H1429 C1458 0.956 1_545 S
H1430 C1460 0.950 . S
H1431 C1461 0.950 . S
C1432 H1414 0.951 . S
C1432 C1433 1.366 . S
C1432 C1434 1.388 . S
C1433 C1432 1.366 . S
C1433 C1437 1.385 . S
C1434 H1415 0.951 . S
C1434 C1432 1.388 . S
C1434 C1435 1.366 . S
C1435 C1434 1.366 . S
C1435 C1436 1.414 . S
C1435 C1438 1.499 . S
C1436 H1416 0.950 . S
C1436 C1435 1.414 . S
C1436 C1437 1.374 . S
C1437 H1417 0.950 . S
C1437 C1433 1.385 . S
C1437 C1436 1.374 . S
C1438 C1435 1.499 . S
C1438 C1439 1.373 . S
C1438 C1440 1.389 . S
C1439 H1418 0.950 . S
C1439 C1438 1.373 . S
C1439 C1455 1.377 . S
C1440 C1438 1.389 . S
C1440 C1441 1.524 . S
C1440 C1454 1.377 . S
C1441 C1440 1.524 . S
C1441 C1442 1.397 . S
C1441 C1446 1.363 . S
C1442 H1419 0.950 . S
C1442 C1441 1.397 . S
C1442 C1443 1.334 . S
C1443 H1420 0.950 . S
C1443 C1442 1.334 . S
C1443 C1444 1.287 . S
C1444 C1443 1.287 . S
C1444 C1445 1.524 . S
C1444 H1463 0.913 . S
C1445 H1421 0.950 . S
C1445 C1444 1.524 . S
C1445 C1446 1.415 . S
C1446 H1422 0.950 . S
C1446 C1441 1.363 . S
C1446 C1445 1.415 . S
C1447 H1423 0.951 1_565 S
C1447 C1448 1.366 . S
C1447 C1449 1.388 . S
C1448 C1447 1.366 . S
C1448 C1452 1.385 . S
C1449 H1424 0.951 . S
C1449 C1447 1.388 . S
C1449 C1450 1.366 . S
C1450 C1449 1.366 . S
C1450 C1451 1.414 . S
C1450 C1453 1.499 . S
C1451 H1425 0.950 . S
C1451 C1450 1.414 . S
C1451 C1452 1.374 . S
C1452 H1426 0.950 . S
C1452 C1448 1.385 . S
C1452 C1451 1.374 . S
C1453 C1450 1.499 . S
C1453 C1454 1.373 . S
C1453 C1455 1.389 . S
C1454 H1427 0.950 . S
C1454 C1440 1.377 . S
C1454 C1453 1.373 . S
C1455 C1439 1.377 . S
C1455 C1453 1.389 . S
C1455 C1456 1.524 . S
C1456 C1455 1.524 . S
C1456 C1457 1.397 . S
C1456 C1461 1.363 . S
C1457 H1428 0.950 . S
C1457 C1456 1.397 . S
C1457 C1458 1.334 . S
C1458 H1429 0.956 1_565 S
C1458 C1457 1.334 . S
C1458 C1459 1.287 1_565 S
C1459 C1458 1.287 1_545 S
C1459 C1460 1.524 . S
C1459 H1462 0.999 . S
C1460 H1430 0.950 . S
C1460 C1459 1.524 . S
C1460 C1461 1.415 1_545 S
C1461 H1431 0.950 . S
C1461 C1456 1.363 . S
C1461 C1460 1.415 1_565 S
H1462 C1459 0.999 . S
H1463 C1444 0.913 . S
H1464 C1482 0.951 . S
H1465 C1484 0.951 . S
H1466 C1486 0.950 . S
H1467 C1487 0.950 . S
H1468 C1489 0.950 . S
H1469 C1492 0.950 . S
H1470 C1493 0.950 . S
H1471 C1495 0.950 . S
H1472 C1496 0.950 . S
H1473 C1497 0.951 . S
H1474 C1499 0.951 . S
H1475 C1501 0.950 . S
H1476 C1502 0.950 . S
H1477 C1504 0.950 . S
H1478 C1507 0.950 . S
H1479 C1508 0.950 . S
H1480 C1510 0.950 . S
H1481 C1511 0.950 . S
C1482 H1464 0.951 . S
C1482 C1483 1.366 . S
C1482 C1484 1.388 . S
C1483 C1482 1.366 . S
C1483 C1487 1.385 . S
C1484 H1465 0.951 . S
C1484 C1482 1.388 . S
C1484 C1485 1.366 . S
C1485 C1484 1.366 . S
C1485 C1486 1.414 . S
C1485 C1488 1.499 . S
C1486 H1466 0.950 . S
C1486 C1485 1.414 . S
C1486 C1487 1.374 . S
C1487 H1467 0.950 . S
C1487 C1483 1.385 . S
C1487 C1486 1.374 . S
C1488 C1485 1.499 . S
C1488 C1489 1.373 . S
C1488 C1490 1.389 . S
C1489 H1468 0.950 . S
C1489 C1488 1.373 . S
C1489 C1505 1.377 . S
C1490 C1488 1.389 . S
C1490 C1491 1.524 . S
C1490 C1504 1.377 . S
C1491 C1490 1.524 . S
C1491 C1492 1.397 . S
C1491 C1496 1.363 . S
C1492 H1469 0.950 . S
C1492 C1491 1.397 . S
C1492 C1493 1.334 . S
C1493 H1470 0.950 . S
C1493 C1492 1.334 . S
C1493 C1494 1.287 . S
C1494 C1493 1.287 . S
C1494 C1495 1.524 . S
C1494 H1513 0.913 . S
C1495 H1471 0.950 . S
C1495 C1494 1.524 . S
C1495 C1496 1.415 . S
C1496 H1472 0.950 . S
C1496 C1491 1.363 . S
C1496 C1495 1.415 . S
C1497 H1473 0.951 . S
C1497 C1498 1.366 . S
C1497 C1499 1.388 . S
C1498 C1497 1.366 . S
C1498 C1502 1.385 . S
C1499 H1474 0.951 . S
C1499 C1497 1.388 . S
C1499 C1500 1.366 . S
C1500 C1499 1.366 . S
C1500 C1501 1.414 . S
C1500 C1503 1.499 . S
C1501 H1475 0.950 . S
C1501 C1500 1.414 . S
C1501 C1502 1.374 . S
C1502 H1476 0.950 . S
C1502 C1498 1.385 . S
C1502 C1501 1.374 . S
C1503 C1500 1.499 . S
C1503 C1504 1.373 . S
C1503 C1505 1.389 . S
C1504 H1477 0.950 . S
C1504 C1490 1.377 . S
C1504 C1503 1.373 . S
C1505 C1489 1.377 . S
C1505 C1503 1.389 . S
C1505 C1506 1.524 . S
C1506 C1505 1.524 . S
C1506 C1507 1.397 . S
C1506 C1511 1.363 . S
C1507 H1478 0.950 . S
C1507 C1506 1.397 . S
C1507 C1508 1.334 . S
C1508 H1479 0.950 . S
C1508 C1507 1.334 . S
C1508 C1509 1.287 . S
C1509 C1508 1.287 . S
C1509 C1510 1.524 . S
C1509 H1512 0.999 . S
C1510 H1480 0.950 . S
C1510 C1509 1.524 . S
C1510 C1511 1.415 . S
C1511 H1481 0.950 . S
C1511 C1506 1.363 . S
C1511 C1510 1.415 . S
H1512 C1509 0.999 . S
H1513 C1494 0.913 . S
H1514 C1532 0.951 . S
H1515 C1534 0.951 . S
H1516 C1536 0.950 . S
H1517 C1537 0.950 . S
H1518 C1539 0.950 . S
H1519 C1542 0.950 . S
H1520 C1543 0.950 . S
H1521 C1545 0.950 . S
H1522 C1546 0.950 . S
H1523 C1547 0.951 1_455 S
H1524 C1549 0.951 . S
H1525 C1551 0.950 . S
H1526 C1552 0.950 . S
H1527 C1554 0.950 . S
H1528 C1557 0.950 . S
H1529 C1558 0.950 . S
H1530 C1560 0.950 . S
H1531 C1561 0.950 . S
C1532 H1514 0.951 . S
C1532 C1533 1.366 . S
C1532 C1534 1.388 . S
C1533 C1532 1.366 . S
C1533 C1537 1.385 . S
C1534 H1515 0.951 . S
C1534 C1532 1.388 . S
C1534 C1535 1.366 . S
C1535 C1534 1.366 . S
C1535 C1536 1.414 . S
C1535 C1538 1.499 . S
C1536 H1516 0.950 . S
C1536 C1535 1.414 . S
C1536 C1537 1.374 . S
C1537 H1517 0.950 . S
C1537 C1533 1.385 . S
C1537 C1536 1.374 . S
C1538 C1535 1.499 . S
C1538 C1539 1.373 . S
C1538 C1540 1.389 . S
C1539 H1518 0.950 . S
C1539 C1538 1.373 . S
C1539 C1555 1.377 . S
C1540 C1538 1.389 . S
C1540 C1541 1.524 . S
C1540 C1554 1.377 . S
C1541 C1540 1.524 . S
C1541 C1542 1.397 . S
C1541 C1546 1.363 . S
C1542 H1519 0.950 . S
C1542 C1541 1.397 . S
C1542 C1543 1.334 . S
C1543 H1520 0.950 . S
C1543 C1542 1.334 . S
C1543 C1544 1.287 . S
C1544 C1543 1.287 . S
C1544 C1545 1.524 . S
C1544 H1563 0.913 . S
C1545 H1521 0.950 . S
C1545 C1544 1.524 . S
C1545 C1546 1.415 . S
C1546 H1522 0.950 . S
C1546 C1541 1.363 . S
C1546 C1545 1.415 . S
C1547 H1523 0.951 1_655 S
C1547 C1548 1.366 . S
C1547 C1549 1.388 . S
C1548 C1547 1.366 . S
C1548 C1552 1.385 . S
C1549 H1524 0.951 . S
C1549 C1547 1.388 . S
C1549 C1550 1.366 . S
C1550 C1549 1.366 . S
C1550 C1551 1.414 . S
C1550 C1553 1.499 . S
C1551 H1525 0.950 . S
C1551 C1550 1.414 . S
C1551 C1552 1.374 . S
C1552 H1526 0.950 . S
C1552 C1548 1.385 . S
C1552 C1551 1.374 . S
C1553 C1550 1.499 . S
C1553 C1554 1.373 . S
C1553 C1555 1.389 . S
C1554 H1527 0.950 . S
C1554 C1540 1.377 . S
C1554 C1553 1.373 . S
C1555 C1539 1.377 . S
C1555 C1553 1.389 . S
C1555 C1556 1.524 . S
C1556 C1555 1.524 . S
C1556 C1557 1.397 . S
C1556 C1561 1.363 . S
C1557 H1528 0.950 . S
C1557 C1556 1.397 . S
C1557 C1558 1.334 . S
C1558 H1529 0.950 . S
C1558 C1557 1.334 . S
C1558 C1559 1.287 1_655 S
C1559 C1558 1.287 1_455 S
C1559 C1560 1.524 . S
C1559 H1562 0.999 . S
C1560 H1530 0.950 . S
C1560 C1559 1.524 . S
C1560 C1561 1.415 1_455 S
C1561 H1531 0.950 . S
C1561 C1556 1.363 . S
C1561 C1560 1.415 1_655 S
H1562 C1559 0.999 . S
H1563 C1544 0.913 . S
H1564 C1582 0.951 . S
H1565 C1584 0.951 . S
H1566 C1586 0.950 . S
H1567 C1587 0.950 . S
H1568 C1589 0.950 . S
H1569 C1592 0.950 . S
H1570 C1593 0.950 . S
H1571 C1595 0.950 . S
H1572 C1596 0.950 . S
H1573 C1597 0.951 . S
H1574 C1599 0.951 . S
H1575 C1601 0.950 . S
H1576 C1602 0.950 . S
H1577 C1604 0.950 . S
H1578 C1607 0.950 . S
H1579 C1608 0.950 . S
H1580 C1610 0.950 . S
H1581 C1611 0.950 . S
C1582 H1564 0.951 . S
C1582 C1583 1.366 . S
C1582 C1584 1.388 . S
C1583 C1582 1.366 . S
C1583 C1587 1.385 . S
C1584 H1565 0.951 . S
C1584 C1582 1.388 . S
C1584 C1585 1.366 . S
C1585 C1584 1.366 . S
C1585 C1586 1.414 . S
C1585 C1588 1.499 . S
C1586 H1566 0.950 . S
C1586 C1585 1.414 . S
C1586 C1587 1.374 . S
C1587 H1567 0.950 . S
C1587 C1583 1.385 . S
C1587 C1586 1.374 . S
C1588 C1585 1.499 . S
C1588 C1589 1.373 . S
C1588 C1590 1.389 . S
C1589 H1568 0.950 . S
C1589 C1588 1.373 . S
C1589 C1605 1.377 . S
C1590 C1588 1.389 . S
C1590 C1591 1.524 . S
C1590 C1604 1.377 . S
C1591 C1590 1.524 . S
C1591 C1592 1.397 . S
C1591 C1596 1.363 . S
C1592 H1569 0.950 . S
C1592 C1591 1.397 . S
C1592 C1593 1.334 . S
C1593 H1570 0.950 . S
C1593 C1592 1.334 . S
C1593 C1594 1.287 . S
C1594 C1593 1.287 . S
C1594 C1595 1.524 . S
C1594 H1613 0.913 . S
C1595 H1571 0.950 . S
C1595 C1594 1.524 . S
C1595 C1596 1.415 . S
C1596 H1572 0.950 . S
C1596 C1591 1.363 . S
C1596 C1595 1.415 . S
C1597 H1573 0.951 . S
C1597 C1598 1.366 . S
C1597 C1599 1.388 . S
C1598 C1597 1.366 . S
C1598 C1602 1.385 . S
C1599 H1574 0.951 . S
C1599 C1597 1.388 . S
C1599 C1600 1.366 . S
C1600 C1599 1.366 . S
C1600 C1601 1.414 . S
C1600 C1603 1.499 . S
C1601 H1575 0.950 . S
C1601 C1600 1.414 . S
C1601 C1602 1.374 . S
C1602 H1576 0.950 . S
C1602 C1598 1.385 . S
C1602 C1601 1.374 . S
C1603 C1600 1.499 . S
C1603 C1604 1.373 . S
C1603 C1605 1.389 . S
C1604 H1577 0.950 . S
C1604 C1590 1.377 . S
C1604 C1603 1.373 . S
C1605 C1589 1.377 . S
C1605 C1603 1.389 . S
C1605 C1606 1.524 . S
C1606 C1605 1.524 . S
C1606 C1607 1.397 . S
C1606 C1611 1.363 . S
C1607 H1578 0.950 . S
C1607 C1606 1.397 . S
C1607 C1608 1.334 . S
C1608 H1579 0.950 . S
C1608 C1607 1.334 . S
C1608 C1609 1.287 . S
C1609 C1608 1.287 . S
C1609 C1610 1.524 . S
C1609 H1612 0.999 . S
C1610 H1580 0.950 . S
C1610 C1609 1.524 . S
C1610 C1611 1.415 . S
C1611 H1581 0.950 . S
C1611 C1606 1.363 . S
C1611 C1610 1.415 . S
H1612 C1609 0.999 . S
H1613 C1594 0.913 . S
H1614 C1632 0.951 . S
H1615 C1634 0.951 . S
H1616 C1636 0.950 . S
H1617 C1637 0.950 . S
H1618 C1639 0.950 . S
H1619 C1642 0.950 . S
H1620 C1643 0.950 . S
H1621 C1645 0.950 . S
H1622 C1646 0.950 . S
H1623 C1647 0.951 1_556 S
H1624 C1649 0.951 . S
H1625 C1651 0.950 . S
H1626 C1652 0.950 . S
H1627 C1654 0.950 . S
H1628 C1657 0.950 . S
H1629 C1658 0.950 . S
H1630 C1660 0.950 . S
H1631 C1661 0.950 . S
C1632 H1614 0.951 . S
C1632 C1633 1.366 . S
C1632 C1634 1.388 . S
C1633 C1632 1.366 . S
C1633 C1637 1.385 . S
C1634 H1615 0.951 . S
C1634 C1632 1.388 . S
C1634 C1635 1.366 . S
C1635 C1634 1.366 . S
C1635 C1636 1.414 . S
C1635 C1638 1.499 . S
C1636 H1616 0.950 . S
C1636 C1635 1.414 . S
C1636 C1637 1.374 . S
C1637 H1617 0.950 . S
C1637 C1633 1.385 . S
C1637 C1636 1.374 . S
C1638 C1635 1.499 . S
C1638 C1639 1.373 . S
C1638 C1640 1.389 . S
C1639 H1618 0.950 . S
C1639 C1638 1.373 . S
C1639 C1655 1.377 . S
C1640 C1638 1.389 . S
C1640 C1641 1.524 . S
C1640 C1654 1.377 . S
C1641 C1640 1.524 . S
C1641 C1642 1.397 . S
C1641 C1646 1.363 . S
C1642 H1619 0.950 . S
C1642 C1641 1.397 . S
C1642 C1643 1.334 . S
C1643 H1620 0.950 . S
C1643 C1642 1.334 . S
C1643 C1644 1.287 . S
C1644 C1643 1.287 . S
C1644 C1645 1.524 . S
C1644 H1663 0.913 . S
C1645 H1621 0.950 . S
C1645 C1644 1.524 . S
C1645 C1646 1.415 . S
C1646 H1622 0.950 . S
C1646 C1641 1.363 . S
C1646 C1645 1.415 . S
C1647 H1623 0.951 1_554 S
C1647 C1648 1.366 . S
C1647 C1649 1.388 . S
C1648 C1647 1.366 . S
C1648 C1652 1.385 . S
C1649 H1624 0.951 . S
C1649 C1647 1.388 . S
C1649 C1650 1.366 . S
C1650 C1649 1.366 . S
C1650 C1651 1.414 . S
C1650 C1653 1.499 . S
C1651 H1625 0.950 . S
C1651 C1650 1.414 . S
C1651 C1652 1.374 . S
C1652 H1626 0.950 . S
C1652 C1648 1.385 . S
C1652 C1651 1.374 . S
C1653 C1650 1.499 . S
C1653 C1654 1.373 . S
C1653 C1655 1.389 . S
C1654 H1627 0.950 . S
C1654 C1640 1.377 . S
C1654 C1653 1.373 . S
C1655 C1639 1.377 . S
C1655 C1653 1.389 . S
C1655 C1656 1.524 . S
C1656 C1655 1.524 . S
C1656 C1657 1.397 . S
C1656 C1661 1.363 . S
C1657 H1628 0.950 . S
C1657 C1656 1.397 . S
C1657 C1658 1.334 1_554 S
C1658 H1629 0.950 . S
C1658 C1657 1.334 1_556 S
C1658 C1659 1.287 . S
C1659 C1658 1.287 . S
C1659 C1660 1.524 . S
C1659 H1662 0.999 . S
C1660 H1630 0.950 . S
C1660 C1659 1.524 . S
C1660 C1661 1.415 1_556 S
C1661 H1631 0.950 . S
C1661 C1656 1.363 . S
C1661 C1660 1.415 1_554 S
H1662 C1659 0.999 . S
H1663 C1644 0.913 . S
H1664 C1682 0.951 . S
H1665 C1684 0.951 . S
H1666 C1686 0.950 . S
H1667 C1687 0.950 . S
H1668 C1689 0.950 . S
H1669 C1692 0.950 . S
H1670 C1693 0.950 . S
H1671 C1695 0.950 . S
H1672 C1696 0.950 . S
H1673 C1697 0.951 . S
H1674 C1699 0.951 . S
H1675 C1701 0.950 . S
H1676 C1702 0.950 . S
H1677 C1704 0.950 . S
H1678 C1707 0.950 . S
H1679 C1708 0.950 . S
H1680 C1710 0.950 . S
H1681 C1711 0.950 . S
C1682 H1664 0.951 . S
C1682 C1683 1.366 . S
C1682 C1684 1.388 . S
C1683 C1682 1.366 . S
C1683 C1687 1.385 . S
C1684 H1665 0.951 . S
C1684 C1682 1.388 . S
C1684 C1685 1.366 . S
C1685 C1684 1.366 . S
C1685 C1686 1.414 . S
C1685 C1688 1.499 . S
C1686 H1666 0.950 . S
C1686 C1685 1.414 . S
C1686 C1687 1.374 . S
C1687 H1667 0.950 . S
C1687 C1683 1.385 . S
C1687 C1686 1.374 . S
C1688 C1685 1.499 . S
C1688 C1689 1.373 . S
C1688 C1690 1.389 . S
C1689 H1668 0.950 . S
C1689 C1688 1.373 . S
C1689 C1705 1.377 . S
C1690 C1688 1.389 . S
C1690 C1691 1.524 . S
C1690 C1704 1.377 . S
C1691 C1690 1.524 . S
C1691 C1692 1.397 . S
C1691 C1696 1.363 . S
C1692 H1669 0.950 . S
C1692 C1691 1.397 . S
C1692 C1693 1.334 . S
C1693 H1670 0.950 . S
C1693 C1692 1.334 . S
C1693 C1694 1.287 . S
C1694 C1693 1.287 . S
C1694 C1695 1.524 . S
C1694 H1713 0.913 . S
C1695 H1671 0.950 . S
C1695 C1694 1.524 . S
C1695 C1696 1.415 . S
C1696 H1672 0.950 . S
C1696 C1691 1.363 . S
C1696 C1695 1.415 . S
C1697 H1673 0.951 . S
C1697 C1698 1.366 . S
C1697 C1699 1.388 . S
C1698 C1697 1.366 . S
C1698 C1702 1.385 . S
C1699 H1674 0.951 . S
C1699 C1697 1.388 . S
C1699 C1700 1.366 . S
C1700 C1699 1.366 . S
C1700 C1701 1.414 . S
C1700 C1703 1.499 . S
C1701 H1675 0.950 . S
C1701 C1700 1.414 . S
C1701 C1702 1.374 . S
C1702 H1676 0.950 . S
C1702 C1698 1.385 . S
C1702 C1701 1.374 . S
C1703 C1700 1.499 . S
C1703 C1704 1.373 . S
C1703 C1705 1.389 . S
C1704 H1677 0.950 . S
C1704 C1690 1.377 . S
C1704 C1703 1.373 . S
C1705 C1689 1.377 . S
C1705 C1703 1.389 . S
C1705 C1706 1.524 . S
C1706 C1705 1.524 . S
C1706 C1707 1.397 . S
C1706 C1711 1.363 . S
C1707 H1678 0.950 . S
C1707 C1706 1.397 . S
C1707 C1708 1.334 . S
C1708 H1679 0.950 . S
C1708 C1707 1.334 . S
C1708 C1709 1.287 . S
C1709 C1708 1.287 . S
C1709 C1710 1.524 . S
C1709 H1712 0.999 . S
C1710 H1680 0.950 . S
C1710 C1709 1.524 . S
C1710 C1711 1.415 . S
C1711 H1681 0.950 . S
C1711 C1706 1.363 . S
C1711 C1710 1.415 . S
H1712 C1709 0.999 . S
H1713 C1694 0.913 . S
H1714 C1732 0.951 . S
H1715 C1734 0.951 . S
H1716 C1736 0.950 . S
H1717 C1737 0.950 . S
H1718 C1739 0.950 . S
H1719 C1742 0.950 . S
H1720 C1743 0.950 . S
H1721 C1745 0.950 . S
H1722 C1746 0.950 . S
H1723 C1747 0.951 . S
H1724 C1749 0.951 . S
H1725 C1751 0.950 . S
H1726 C1752 0.950 . S
H1727 C1754 0.950 . S
H1728 C1757 0.950 . S
H1729 C1758 0.950 . S
H1730 C1760 0.950 . S
H1731 C1761 0.950 . S
C1732 H1714 0.951 . S
C1732 C1733 1.366 . S
C1732 C1734 1.388 . S
C1733 C1732 1.366 . S
C1733 C1737 1.385 . S
C1734 H1715 0.951 . S
C1734 C1732 1.388 . S
C1734 C1735 1.366 . S
C1735 C1734 1.366 . S
C1735 C1736 1.414 . S
C1735 C1738 1.499 . S
C1736 H1716 0.950 . S
C1736 C1735 1.414 . S
C1736 C1737 1.374 . S
C1737 H1717 0.950 . S
C1737 C1733 1.385 . S
C1737 C1736 1.374 . S
C1738 C1735 1.499 . S
C1738 C1739 1.373 . S
C1738 C1740 1.389 . S
C1739 H1718 0.950 . S
C1739 C1738 1.373 . S
C1739 C1755 1.377 . S
C1740 C1738 1.389 . S
C1740 C1741 1.524 . S
C1740 C1754 1.377 . S
C1741 C1740 1.524 . S
C1741 C1742 1.397 . S
C1741 C1746 1.363 . S
C1742 H1719 0.950 . S
C1742 C1741 1.397 . S
C1742 C1743 1.334 . S
C1743 H1720 0.950 . S
C1743 C1742 1.334 . S
C1743 C1744 1.287 . S
C1744 C1743 1.287 . S
C1744 C1745 1.524 . S
C1744 H1763 0.913 . S
C1745 H1721 0.950 . S
C1745 C1744 1.524 . S
C1745 C1746 1.415 . S
C1746 H1722 0.950 . S
C1746 C1741 1.363 . S
C1746 C1745 1.415 . S
C1747 H1723 0.951 . S
C1747 C1748 1.366 . S
C1747 C1749 1.388 . S
C1748 C1747 1.366 . S
C1748 C1752 1.385 . S
C1749 H1724 0.951 . S
C1749 C1747 1.388 . S
C1749 C1750 1.366 . S
C1750 C1749 1.366 . S
C1750 C1751 1.414 . S
C1750 C1753 1.499 . S
C1751 H1725 0.950 . S
C1751 C1750 1.414 . S
C1751 C1752 1.374 . S
C1752 H1726 0.950 . S
C1752 C1748 1.385 . S
C1752 C1751 1.374 . S
C1753 C1750 1.499 . S
C1753 C1754 1.373 . S
C1753 C1755 1.389 . S
C1754 H1727 0.950 . S
C1754 C1740 1.377 . S
C1754 C1753 1.373 . S
C1755 C1739 1.377 . S
C1755 C1753 1.389 . S
C1755 C1756 1.524 . S
C1756 C1755 1.524 . S
C1756 C1757 1.397 . S
C1756 C1761 1.363 . S
C1757 H1728 0.950 . S
C1757 C1756 1.397 . S
C1757 C1758 1.334 1_554 S
C1758 H1729 0.950 . S
C1758 C1757 1.334 1_556 S
C1758 C1759 1.287 . S
C1759 C1758 1.287 . S
C1759 C1760 1.524 . S
C1759 H1762 0.999 . S
C1760 H1730 0.950 . S
C1760 C1759 1.524 . S
C1760 C1761 1.415 1_556 S
C1761 H1731 0.950 . S
C1761 C1756 1.363 . S
C1761 C1760 1.415 1_554 S
H1762 C1759 0.999 . S
H1763 C1744 0.913 . S
H1764 C1782 0.951 . S
H1765 C1784 0.951 . S
H1766 C1786 0.950 . S
H1767 C1787 0.950 . S
H1768 C1789 0.950 . S
H1769 C1792 0.950 . S
H1770 C1793 0.950 . S
H1771 C1795 0.950 1_545 S
H1772 C1796 0.950 . S
H1773 C1797 0.951 . S
H1774 C1799 0.951 . S
H1775 C1801 0.950 . S
H1776 C1802 0.950 . S
H1777 C1804 0.950 . S
H1778 C1807 0.950 . S
H1779 C1808 0.950 . S
H1780 C1810 0.950 . S
H1781 C1811 0.950 . S
C1782 H1764 0.951 . S
C1782 C1783 1.366 . S
C1782 C1784 1.388 . S
C1783 C1782 1.366 . S
C1783 C1787 1.385 . S
C1784 H1765 0.951 . S
C1784 C1782 1.388 . S
C1784 C1785 1.366 . S
C1785 C1784 1.366 . S
C1785 C1786 1.414 . S
C1785 C1788 1.499 . S
C1786 H1766 0.950 . S
C1786 C1785 1.414 . S
C1786 C1787 1.374 . S
C1787 H1767 0.950 . S
C1787 C1783 1.385 . S
C1787 C1786 1.374 . S
C1788 C1785 1.499 . S
C1788 C1789 1.373 . S
C1788 C1790 1.389 . S
C1789 H1768 0.950 . S
C1789 C1788 1.373 . S
C1789 C1805 1.377 . S
C1790 C1788 1.389 . S
C1790 C1791 1.524 . S
C1790 C1804 1.377 . S
C1791 C1790 1.524 . S
C1791 C1792 1.397 . S
C1791 C1796 1.363 . S
C1792 H1769 0.950 . S
C1792 C1791 1.397 . S
C1792 C1793 1.334 . S
C1793 H1770 0.950 . S
C1793 C1792 1.334 . S
C1793 C1794 1.283 1_565 S
C1794 C1793 1.283 1_545 S
C1794 C1795 1.505 1_545 S
C1794 H1813 0.941 . S
C1795 H1771 0.950 1_565 S
C1795 C1794 1.505 1_565 S
C1795 C1796 1.415 . S
C1796 H1772 0.950 . S
C1796 C1791 1.363 . S
C1796 C1795 1.415 . S
C1797 H1773 0.951 . S
C1797 C1798 1.366 . S
C1797 C1799 1.388 . S
C1798 C1797 1.366 . S
C1798 C1802 1.385 . S
C1799 H1774 0.951 . S
C1799 C1797 1.388 . S
C1799 C1800 1.366 . S
C1800 C1799 1.366 . S
C1800 C1801 1.414 . S
C1800 C1803 1.499 . S
C1801 H1775 0.950 . S
C1801 C1800 1.414 . S
C1801 C1802 1.374 . S
C1802 H1776 0.950 . S
C1802 C1798 1.385 . S
C1802 C1801 1.374 . S
C1803 C1800 1.499 . S
C1803 C1804 1.373 . S
C1803 C1805 1.389 . S
C1804 H1777 0.950 . S
C1804 C1790 1.377 . S
C1804 C1803 1.373 . S
C1805 C1789 1.377 . S
C1805 C1803 1.389 . S
C1805 C1806 1.524 . S
C1806 C1805 1.524 . S
C1806 C1807 1.397 . S
C1806 C1811 1.363 . S
C1807 H1778 0.950 . S
C1807 C1806 1.397 . S
C1807 C1808 1.334 . S
C1808 H1779 0.950 . S
C1808 C1807 1.334 . S
C1808 C1809 1.287 . S
C1809 C1808 1.287 . S
C1809 C1810 1.524 . S
C1809 H1812 0.999 . S
C1810 H1780 0.950 . S
C1810 C1809 1.524 . S
C1810 C1811 1.415 . S
C1811 H1781 0.950 . S
C1811 C1806 1.363 . S
C1811 C1810 1.415 . S
H1812 C1809 0.999 . S
H1813 C1794 0.941 . S
H1814 C1832 0.951 . S
H1815 C1834 0.951 . S
H1816 C1836 0.950 . S
H1817 C1837 0.950 . S
H1818 C1839 0.950 . S
H1819 C1842 0.950 . S
H1820 C1843 0.950 . S
H1821 C1845 0.950 . S
H1822 C1846 0.950 . S
H1823 C1847 0.951 . S
H1824 C1849 0.951 . S
H1825 C1851 0.950 . S
H1826 C1852 0.950 . S
H1827 C1854 0.950 . S
H1828 C1857 0.950 . S
H1829 C1858 0.950 . S
H1830 C1860 0.950 . S
H1831 C1861 0.950 . S
C1832 H1814 0.951 . S
C1832 C1833 1.366 . S
C1832 C1834 1.388 . S
C1833 C1832 1.366 . S
C1833 C1837 1.385 . S
C1834 H1815 0.951 . S
C1834 C1832 1.388 . S
C1834 C1835 1.366 . S
C1835 C1834 1.366 . S
C1835 C1836 1.414 . S
C1835 C1838 1.499 . S
C1836 H1816 0.950 . S
C1836 C1835 1.414 . S
C1836 C1837 1.374 . S
C1837 H1817 0.950 . S
C1837 C1833 1.385 . S
C1837 C1836 1.374 . S
C1838 C1835 1.499 . S
C1838 C1839 1.373 . S
C1838 C1840 1.389 . S
C1839 H1818 0.950 . S
C1839 C1838 1.373 . S
C1839 C1855 1.377 . S
C1840 C1838 1.389 . S
C1840 C1841 1.524 . S
C1840 C1854 1.377 . S
C1841 C1840 1.524 . S
C1841 C1842 1.397 . S
C1841 C1846 1.363 . S
C1842 H1819 0.950 . S
C1842 C1841 1.397 . S
C1842 C1843 1.334 . S
C1843 H1820 0.950 . S
C1843 C1842 1.334 . S
C1843 C1844 1.287 . S
C1844 C1843 1.287 . S
C1844 C1845 1.524 . S
C1844 H1863 0.913 . S
C1845 H1821 0.950 . S
C1845 C1844 1.524 . S
C1845 C1846 1.415 . S
C1846 H1822 0.950 . S
C1846 C1841 1.363 . S
C1846 C1845 1.415 . S
C1847 H1823 0.951 . S
C1847 C1848 1.366 . S
C1847 C1849 1.388 . S
C1848 C1847 1.366 . S
C1848 C1852 1.385 . S
C1849 H1824 0.951 . S
C1849 C1847 1.388 . S
C1849 C1850 1.366 . S
C1850 C1849 1.366 . S
C1850 C1851 1.414 . S
C1850 C1853 1.499 . S
C1851 H1825 0.950 . S
C1851 C1850 1.414 . S
C1851 C1852 1.374 . S
C1852 H1826 0.950 . S
C1852 C1848 1.385 . S
C1852 C1851 1.374 . S
C1853 C1850 1.499 . S
C1853 C1854 1.373 . S
C1853 C1855 1.389 . S
C1854 H1827 0.950 . S
C1854 C1840 1.377 . S
C1854 C1853 1.373 . S
C1855 C1839 1.377 . S
C1855 C1853 1.389 . S
C1855 C1856 1.524 . S
C1856 C1855 1.524 . S
C1856 C1857 1.397 . S
C1856 C1861 1.363 . S
C1857 H1828 0.950 . S
C1857 C1856 1.397 . S
C1857 C1858 1.334 . S
C1858 H1829 0.950 . S
C1858 C1857 1.334 . S
C1858 C1859 1.287 . S
C1859 C1858 1.287 . S
C1859 C1860 1.524 . S
C1859 H1862 0.999 . S
C1860 H1830 0.950 . S
C1860 C1859 1.524 . S
C1860 C1861 1.415 . S
C1861 H1831 0.950 . S
C1861 C1856 1.363 . S
C1861 C1860 1.415 . S
H1862 C1859 0.999 . S
H1863 C1844 0.913 . S
H1864 C1882 0.951 . S
H1865 C1884 0.951 . S
H1866 C1886 0.950 . S
H1867 C1887 0.950 . S
H1868 C1889 0.950 . S
H1869 C1892 0.950 . S
H1870 C1893 0.950 . S
H1871 C1895 0.950 . S
H1872 C1896 0.950 . S
H1873 C1897 0.951 . S
H1874 C1899 0.951 . S
H1875 C1901 0.950 . S
H1876 C1902 0.950 . S
H1877 C1904 0.950 . S
H1878 C1907 0.950 . S
H1879 C1908 0.950 . S
H1880 C1910 0.950 . S
H1881 C1911 0.950 . S
C1882 H1864 0.951 . S
C1882 C1883 1.366 . S
C1882 C1884 1.388 . S
C1883 C1882 1.366 . S
C1883 C1887 1.385 . S
C1884 H1865 0.951 . S
C1884 C1882 1.388 . S
C1884 C1885 1.366 . S
C1885 C1884 1.366 . S
C1885 C1886 1.414 . S
C1885 C1888 1.499 . S
C1886 H1866 0.950 . S
C1886 C1885 1.414 . S
C1886 C1887 1.374 . S
C1887 H1867 0.950 . S
C1887 C1883 1.385 . S
C1887 C1886 1.374 . S
C1888 C1885 1.499 . S
C1888 C1889 1.373 . S
C1888 C1890 1.389 . S
C1889 H1868 0.950 . S
C1889 C1888 1.373 . S
C1889 C1905 1.377 . S
C1890 C1888 1.389 . S
C1890 C1891 1.524 . S
C1890 C1904 1.377 . S
C1891 C1890 1.524 . S
C1891 C1892 1.397 . S
C1891 C1896 1.363 . S
C1892 H1869 0.950 . S
C1892 C1891 1.397 . S
C1892 C1893 1.334 . S
C1893 H1870 0.950 . S
C1893 C1892 1.334 . S
C1893 C1894 1.287 . S
C1894 C1893 1.287 . S
C1894 C1895 1.524 . S
C1894 H1913 0.913 . S
C1895 H1871 0.950 . S
C1895 C1894 1.524 . S
C1895 C1896 1.415 . S
C1896 H1872 0.950 . S
C1896 C1891 1.363 . S
C1896 C1895 1.415 . S
C1897 H1873 0.951 . S
C1897 C1898 1.366 . S
C1897 C1899 1.388 . S
C1898 C1897 1.366 . S
C1898 C1902 1.385 . S
C1899 H1874 0.951 . S
C1899 C1897 1.388 . S
C1899 C1900 1.366 . S
C1900 C1899 1.366 . S
C1900 C1901 1.414 . S
C1900 C1903 1.499 . S
C1901 H1875 0.950 . S
C1901 C1900 1.414 . S
C1901 C1902 1.374 . S
C1902 H1876 0.950 . S
C1902 C1898 1.385 . S
C1902 C1901 1.374 . S
C1903 C1900 1.499 . S
C1903 C1904 1.373 . S
C1903 C1905 1.389 . S
C1904 H1877 0.950 . S
C1904 C1890 1.377 . S
C1904 C1903 1.373 . S
C1905 C1889 1.377 . S
C1905 C1903 1.389 . S
C1905 C1906 1.524 . S
C1906 C1905 1.524 . S
C1906 C1907 1.397 . S
C1906 C1911 1.363 . S
C1907 H1878 0.950 . S
C1907 C1906 1.397 . S
C1907 C1908 1.334 . S
C1908 H1879 0.950 . S
C1908 C1907 1.334 . S
C1908 C1909 1.287 . S
C1909 C1908 1.287 . S
C1909 C1910 1.524 . S
C1909 H1912 0.999 . S
C1910 H1880 0.950 . S
C1910 C1909 1.524 . S
C1910 C1911 1.415 . S
C1911 H1881 0.950 . S
C1911 C1906 1.363 . S
C1911 C1910 1.415 . S
H1912 C1909 0.999 . S
H1913 C1894 0.913 . S
H1914 C1932 0.951 . S
H1915 C1934 0.951 . S
H1916 C1936 0.950 . S
H1917 C1937 0.950 . S
H1918 C1939 0.950 . S
H1919 C1942 0.950 . S
H1920 C1943 0.950 . S
H1921 C1945 0.950 . S
H1922 C1946 0.950 . S
H1923 C1947 0.951 . S
H1924 C1949 0.951 . S
H1925 C1951 0.950 . S
H1926 C1952 0.950 . S
H1927 C1954 0.950 . S
H1928 C1957 0.950 . S
H1929 C1958 0.950 . S
H1930 C1960 0.950 . S
H1931 C1961 0.950 . S
C1932 H1914 0.951 . S
C1932 C1933 1.366 . S
C1932 C1934 1.388 . S
C1933 C1932 1.366 . S
C1933 C1937 1.385 . S
C1934 H1915 0.951 . S
C1934 C1932 1.388 . S
C1934 C1935 1.366 . S
C1935 C1934 1.366 . S
C1935 C1936 1.414 . S
C1935 C1938 1.499 . S
C1936 H1916 0.950 . S
C1936 C1935 1.414 . S
C1936 C1937 1.374 . S
C1937 H1917 0.950 . S
C1937 C1933 1.385 . S
C1937 C1936 1.374 . S
C1938 C1935 1.499 . S
C1938 C1939 1.373 . S
C1938 C1940 1.389 . S
C1939 H1918 0.950 . S
C1939 C1938 1.373 . S
C1939 C1955 1.377 . S
C1940 C1938 1.389 . S
C1940 C1941 1.524 . S
C1940 C1954 1.377 . S
C1941 C1940 1.524 . S
C1941 C1942 1.397 . S
C1941 C1946 1.363 . S
C1942 H1919 0.950 . S
C1942 C1941 1.397 . S
C1942 C1943 1.334 . S
C1943 H1920 0.950 . S
C1943 C1942 1.334 . S
C1943 C1944 1.287 . S
C1944 C1943 1.287 . S
C1944 C1945 1.524 . S
C1944 H1963 0.913 . S
C1945 H1921 0.950 . S
C1945 C1944 1.524 . S
C1945 C1946 1.415 . S
C1946 H1922 0.950 . S
C1946 C1941 1.363 . S
C1946 C1945 1.415 . S
C1947 H1923 0.951 . S
C1947 C1948 1.366 . S
C1947 C1949 1.388 . S
C1948 C1947 1.366 . S
C1948 C1952 1.385 . S
C1949 H1924 0.951 . S
C1949 C1947 1.388 . S
C1949 C1950 1.366 . S
C1950 C1949 1.366 . S
C1950 C1951 1.414 . S
C1950 C1953 1.499 . S
C1951 H1925 0.950 . S
C1951 C1950 1.414 . S
C1951 C1952 1.374 . S
C1952 H1926 0.950 . S
C1952 C1948 1.385 . S
C1952 C1951 1.374 . S
C1953 C1950 1.499 . S
C1953 C1954 1.373 . S
C1953 C1955 1.389 . S
C1954 H1927 0.950 . S
C1954 C1940 1.377 . S
C1954 C1953 1.373 . S
C1955 C1939 1.377 . S
C1955 C1953 1.389 . S
C1955 C1956 1.524 . S
C1956 C1955 1.524 . S
C1956 C1957 1.397 . S
C1956 C1961 1.363 . S
C1957 H1928 0.950 . S
C1957 C1956 1.397 . S
C1957 C1958 1.334 . S
C1958 H1929 0.950 . S
C1958 C1957 1.334 . S
C1958 C1959 1.287 . S
C1959 C1958 1.287 . S
C1959 C1960 1.524 . S
C1959 H1962 0.999 . S
C1960 H1930 0.950 . S
C1960 C1959 1.524 . S
C1960 C1961 1.415 . S
C1961 H1931 0.950 . S
C1961 C1956 1.363 . S
C1961 C1960 1.415 . S
H1962 C1959 0.999 . S
H1963 C1944 0.913 . S
H1964 C1982 0.951 . S
H1965 C1984 0.951 . S
H1966 C1986 0.950 . S
H1967 C1987 0.950 . S
H1968 C1989 0.950 . S
H1969 C1992 0.950 . S
H1970 C1993 0.950 . S
H1971 C1995 0.950 . S
H1972 C1996 0.950 . S
H1973 C1997 0.951 . S
H1974 C1999 0.951 . S
H1975 C2001 0.950 . S
H1976 C2002 0.950 . S
H1977 C2004 0.950 . S
H1978 C2007 0.950 . S
H1979 C2008 0.950 . S
H1980 C2010 0.950 . S
H1981 C2011 0.950 . S
C1982 H1964 0.951 . S
C1982 C1983 1.366 . S
C1982 C1984 1.388 . S
C1983 C1982 1.366 . S
C1983 C1987 1.385 . S
C1984 H1965 0.951 . S
C1984 C1982 1.388 . S
C1984 C1985 1.366 . S
C1985 C1984 1.366 . S
C1985 C1986 1.414 . S
C1985 C1988 1.499 . S
C1986 H1966 0.950 . S
C1986 C1985 1.414 . S
C1986 C1987 1.374 . S
C1987 H1967 0.950 . S
C1987 C1983 1.385 . S
C1987 C1986 1.374 . S
C1988 C1985 1.499 . S
C1988 C1989 1.373 1_545 S
C1988 C1990 1.389 . S
C1989 H1968 0.950 . S
C1989 C1988 1.373 1_565 S
C1989 C2005 1.377 . S
C1990 C1988 1.389 . S
C1990 C1991 1.524 . S
C1990 C2004 1.377 1_545 S
C1991 C1990 1.524 . S
C1991 C1992 1.397 . S
C1991 C1996 1.363 . S
C1992 H1969 0.950 . S
C1992 C1991 1.397 . S
C1992 C1993 1.334 . S
C1993 H1970 0.950 . S
C1993 C1992 1.334 . S
C1993 C1994 1.287 . S
C1994 C1993 1.287 . S
C1994 C1995 1.524 . S
C1994 H2013 0.913 . S
C1995 H1971 0.950 . S
C1995 C1994 1.524 . S
C1995 C1996 1.415 . S
C1996 H1972 0.950 . S
C1996 C1991 1.363 . S
C1996 C1995 1.415 . S
C1997 H1973 0.951 . S
C1997 C1998 1.366 . S
C1997 C1999 1.388 . S
C1998 C1997 1.366 . S
C1998 C2002 1.385 . S
C1999 H1974 0.951 . S
C1999 C1997 1.388 . S
C1999 C2000 1.366 . S
C2000 C1999 1.366 . S
C2000 C2001 1.414 . S
C2000 C2003 1.499 . S
C2001 H1975 0.950 . S
C2001 C2000 1.414 . S
C2001 C2002 1.374 . S
C2002 H1976 0.950 . S
C2002 C1998 1.385 . S
C2002 C2001 1.374 . S
C2003 C2000 1.499 . S
C2003 C2004 1.373 . S
C2003 C2005 1.389 . S
C2004 H1977 0.950 . S
C2004 C1990 1.377 1_565 S
C2004 C2003 1.373 . S
C2005 C1989 1.377 . S
C2005 C2003 1.389 . S
C2005 C2006 1.524 . S
C2006 C2005 1.524 . S
C2006 C2007 1.397 . S
C2006 C2011 1.363 . S
C2007 H1978 0.950 . S
C2007 C2006 1.397 . S
C2007 C2008 1.334 . S
C2008 H1979 0.950 . S
C2008 C2007 1.334 . S
C2008 C2009 1.287 . S
C2009 C2008 1.287 . S
C2009 C2010 1.524 . S
C2009 H2012 0.999 . S
C2010 H1980 0.950 . S
C2010 C2009 1.524 . S
C2010 C2011 1.415 . S
C2011 H1981 0.950 . S
C2011 C2006 1.363 . S
C2011 C2010 1.415 . S
H2012 C2009 0.999 . S
H2013 C1994 0.913 . S
H2014 C2032 0.951 . S
H2015 C2034 0.951 . S
H2016 C2036 0.950 . S
H2017 C2037 0.950 . S
H2018 C2039 0.950 . S
H2019 C2042 0.950 . S
H2020 C2043 0.950 . S
H2021 C2045 0.950 . S
H2022 C2046 0.950 . S
H2023 C2047 0.951 . S
H2024 C2049 0.951 . S
H2025 C2051 0.950 . S
H2026 C2052 0.950 . S
H2027 C2054 0.950 . S
H2028 C2057 0.950 . S
H2029 C2058 0.950 . S
H2030 C2060 0.950 . S
H2031 C2061 0.950 . S
C2032 H2014 0.951 . S
C2032 C2033 1.366 . S
C2032 C2034 1.388 . S
C2033 C2032 1.366 . S
C2033 C2037 1.385 . S
C2034 H2015 0.951 . S
C2034 C2032 1.388 . S
C2034 C2035 1.366 . S
C2035 C2034 1.366 . S
C2035 C2036 1.414 . S
C2035 C2038 1.499 . S
C2036 H2016 0.950 . S
C2036 C2035 1.414 . S
C2036 C2037 1.374 . S
C2037 H2017 0.950 . S
C2037 C2033 1.385 . S
C2037 C2036 1.374 . S
C2038 C2035 1.499 . S
C2038 C2039 1.373 . S
C2038 C2040 1.389 . S
C2039 H2018 0.950 . S
C2039 C2038 1.373 . S
C2039 C2055 1.377 1_455 S
C2040 C2038 1.389 . S
C2040 C2041 1.524 . S
C2040 C2054 1.377 . S
C2041 C2040 1.524 . S
C2041 C2042 1.397 . S
C2041 C2046 1.363 . S
C2042 H2019 0.950 . S
C2042 C2041 1.397 . S
C2042 C2043 1.334 . S
C2043 H2020 0.950 . S
C2043 C2042 1.334 . S
C2043 C2044 1.287 . S
C2044 C2043 1.287 . S
C2044 C2045 1.524 . S
C2044 H2063 0.913 . S
C2045 H2021 0.950 . S
C2045 C2044 1.524 . S
C2045 C2046 1.415 . S
C2046 H2022 0.950 . S
C2046 C2041 1.363 . S
C2046 C2045 1.415 . S
C2047 H2023 0.951 . S
C2047 C2048 1.366 . S
C2047 C2049 1.388 . S
C2048 C2047 1.366 . S
C2048 C2052 1.385 . S
C2049 H2024 0.951 . S
C2049 C2047 1.388 . S
C2049 C2050 1.366 . S
C2050 C2049 1.366 . S
C2050 C2051 1.414 . S
C2050 C2053 1.499 . S
C2051 H2025 0.950 . S
C2051 C2050 1.414 . S
C2051 C2052 1.374 . S
C2052 H2026 0.950 . S
C2052 C2048 1.385 . S
C2052 C2051 1.374 . S
C2053 C2050 1.499 . S
C2053 C2054 1.373 1_655 S
C2053 C2055 1.389 . S
C2054 H2027 0.950 . S
C2054 C2040 1.377 . S
C2054 C2053 1.373 1_455 S
C2055 C2039 1.377 1_655 S
C2055 C2053 1.389 . S
C2055 C2056 1.524 . S
C2056 C2055 1.524 . S
C2056 C2057 1.397 . S
C2056 C2061 1.363 . S
C2057 H2028 0.950 . S
C2057 C2056 1.397 . S
C2057 C2058 1.334 . S
C2058 H2029 0.950 . S
C2058 C2057 1.334 . S
C2058 C2059 1.287 . S
C2059 C2058 1.287 . S
C2059 C2060 1.524 . S
C2059 H2062 0.999 . S
C2060 H2030 0.950 . S
C2060 C2059 1.524 . S
C2060 C2061 1.415 . S
C2061 H2031 0.950 . S
C2061 C2056 1.363 . S
C2061 C2060 1.415 . S
H2062 C2059 0.999 . S
H2063 C2044 0.913 . S
H2064 C2082 0.951 . S
H2065 C2084 0.951 . S
H2066 C2086 0.950 . S
H2067 C2087 0.950 . S
H2068 C2089 0.950 . S
H2069 C2092 0.950 . S
H2070 C2093 0.950 . S
H2071 C2095 0.950 . S
H2072 C2096 0.950 . S
H2073 C2097 0.951 . S
H2074 C2099 0.951 . S
H2075 C2101 0.950 . S
H2076 C2102 0.950 . S
H2077 C2104 0.950 . S
H2078 C2107 0.950 . S
H2079 C2108 0.950 . S
H2080 C2110 0.950 . S
H2081 C2111 0.950 . S
C2082 H2064 0.951 . S
C2082 C2083 1.366 . S
C2082 C2084 1.388 . S
C2083 C2082 1.366 . S
C2083 C2087 1.385 . S
C2084 H2065 0.951 . S
C2084 C2082 1.388 . S
C2084 C2085 1.366 . S
C2085 C2084 1.366 . S
C2085 C2086 1.414 . S
C2085 C2088 1.499 . S
C2086 H2066 0.950 . S
C2086 C2085 1.414 . S
C2086 C2087 1.374 . S
C2087 H2067 0.950 . S
C2087 C2083 1.385 . S
C2087 C2086 1.374 . S
C2088 C2085 1.499 . S
C2088 C2089 1.373 . S
C2088 C2090 1.389 . S
C2089 H2068 0.950 . S
C2089 C2088 1.373 . S
C2089 C2105 1.377 . S
C2090 C2088 1.389 . S
C2090 C2091 1.524 . S
C2090 C2104 1.377 . S
C2091 C2090 1.524 . S
C2091 C2092 1.397 . S
C2091 C2096 1.363 . S
C2092 H2069 0.950 . S
C2092 C2091 1.397 . S
C2092 C2093 1.334 . S
C2093 H2070 0.950 . S
C2093 C2092 1.334 . S
C2093 C2094 1.287 . S
C2094 C2093 1.287 . S
C2094 C2095 1.524 . S
C2094 H2113 0.913 . S
C2095 H2071 0.950 . S
C2095 C2094 1.524 . S
C2095 C2096 1.415 . S
C2096 H2072 0.950 . S
C2096 C2091 1.363 . S
C2096 C2095 1.415 . S
C2097 H2073 0.951 . S
C2097 C2098 1.366 . S
C2097 C2099 1.388 . S
C2098 C2097 1.366 . S
C2098 C2102 1.385 . S
C2099 H2074 0.951 . S
C2099 C2097 1.388 . S
C2099 C2100 1.366 . S
C2100 C2099 1.366 . S
C2100 C2101 1.414 . S
C2100 C2103 1.499 . S
C2101 H2075 0.950 . S
C2101 C2100 1.414 . S
C2101 C2102 1.374 . S
C2102 H2076 0.950 . S
C2102 C2098 1.385 . S
C2102 C2101 1.374 . S
C2103 C2100 1.499 . S
C2103 C2104 1.373 . S
C2103 C2105 1.389 . S
C2104 H2077 0.950 . S
C2104 C2090 1.377 . S
C2104 C2103 1.373 . S
C2105 C2089 1.377 . S
C2105 C2103 1.389 . S
C2105 C2106 1.524 . S
C2106 C2105 1.524 . S
C2106 C2107 1.397 . S
C2106 C2111 1.363 . S
C2107 H2078 0.950 . S
C2107 C2106 1.397 . S
C2107 C2108 1.334 . S
C2108 H2079 0.950 . S
C2108 C2107 1.334 . S
C2108 C2109 1.287 . S
C2109 C2108 1.287 . S
C2109 C2110 1.524 . S
C2109 H2112 0.999 . S
C2110 H2080 0.950 . S
C2110 C2109 1.524 . S
C2110 C2111 1.415 . S
C2111 H2081 0.950 . S
C2111 C2106 1.363 . S
C2111 C2110 1.415 . S
H2112 C2109 0.999 . S
H2113 C2094 0.913 . S
H2114 C2132 0.951 . S
H2115 C2134 0.951 . S
H2116 C2136 0.950 . S
H2117 C2137 0.950 . S
H2118 C2139 0.955 . S
H2119 C2142 0.971 . S
H2120 C2143 0.950 . S
H2121 C2145 0.950 . S
H2122 C2146 0.950 . S
H2123 C2147 0.951 . S
H2124 C2149 0.951 . S
H2125 C2151 0.950 . S
H2126 C2152 0.950 . S
H2127 C2154 0.950 . S
H2128 C2157 0.950 . S
H2129 C2158 0.950 . S
H2130 C2160 0.950 . S
H2131 C2161 0.950 . S
C2132 H2114 0.951 . S
C2132 C2133 1.366 . S
C2132 C2134 1.388 . S
C2133 C2132 1.366 . S
C2133 C2137 1.385 . S
C2134 H2115 0.951 . S
C2134 C2132 1.388 . S
C2134 C2135 1.366 . S
C2135 C2134 1.366 . S
C2135 C2136 1.414 . S
C2135 C2138 1.499 . S
C2136 H2116 0.950 . S
C2136 C2135 1.414 . S
C2136 C2137 1.374 . S
C2137 H2117 0.950 . S
C2137 C2133 1.385 . S
C2137 C2136 1.374 . S
C2138 C2135 1.499 . S
C2138 C2139 1.372 . S
C2138 C2140 1.389 1_545 S
C2139 H2118 0.955 . S
C2139 C2138 1.372 . S
C2139 C2155 1.373 1_545 S
C2140 C2138 1.389 1_565 S
C2140 C2141 1.524 . S
C2140 C2154 1.377 . S
C2141 C2140 1.524 . S
C2141 C2142 1.389 1_565 S
C2141 C2146 1.363 . S
C2142 H2119 0.971 . S
C2142 C2141 1.389 1_545 S
C2142 C2143 1.323 . S
C2143 H2120 0.950 . S
C2143 C2142 1.323 . S
C2143 C2144 1.306 . S
C2144 C2143 1.306 . S
C2144 C2145 1.515 1_545 S
C2144 H2163 0.906 . S
C2145 H2121 0.950 . S
C2145 C2144 1.515 1_565 S
C2145 C2146 1.415 . S
C2146 H2122 0.950 . S
C2146 C2141 1.363 . S
C2146 C2145 1.415 . S
C2147 H2123 0.951 . S
C2147 C2148 1.366 . S
C2147 C2149 1.388 . S
C2148 C2147 1.366 . S
C2148 C2152 1.385 . S
C2149 H2124 0.951 . S
C2149 C2147 1.388 . S
C2149 C2150 1.366 . S
C2150 C2149 1.366 . S
C2150 C2151 1.414 . S
C2150 C2153 1.499 . S
C2151 H2125 0.950 . S
C2151 C2150 1.414 . S
C2151 C2152 1.374 . S
C2152 H2126 0.950 . S
C2152 C2148 1.385 . S
C2152 C2151 1.374 . S
C2153 C2150 1.499 . S
C2153 C2154 1.373 . S
C2153 C2155 1.389 . S
C2154 H2127 0.950 . S
C2154 C2140 1.377 . S
C2154 C2153 1.373 . S
C2155 C2139 1.373 1_565 S
C2155 C2153 1.389 . S
C2155 C2156 1.524 . S
C2156 C2155 1.524 . S
C2156 C2157 1.397 . S
C2156 C2161 1.363 . S
C2157 H2128 0.950 . S
C2157 C2156 1.397 . S
C2157 C2158 1.334 . S
C2158 H2129 0.950 . S
C2158 C2157 1.334 . S
C2158 C2159 1.287 . S
C2159 C2158 1.287 . S
C2159 C2160 1.524 . S
C2159 H2162 0.999 . S
C2160 H2130 0.950 . S
C2160 C2159 1.524 . S
C2160 C2161 1.415 . S
C2161 H2131 0.950 . S
C2161 C2156 1.363 . S
C2161 C2160 1.415 . S
H2162 C2159 0.999 . S
H2163 C2144 0.906 . S
H2164 C2182 0.951 . S
H2165 C2184 0.951 . S
H2166 C2186 0.950 . S
H2167 C2187 0.950 . S
H2168 C2189 0.950 . S
H2169 C2192 0.950 . S
H2170 C2193 0.950 . S
H2171 C2195 0.950 . S
H2172 C2196 0.950 . S
H2173 C2197 0.951 . S
H2174 C2199 0.951 . S
H2175 C2201 0.950 . S
H2176 C2202 0.950 . S
H2177 C2204 0.950 1_655 S
H2178 C2207 0.950 . S
H2179 C2208 0.950 . S
H2180 C2210 0.950 . S
H2181 C2211 0.950 . S
C2182 H2164 0.951 . S
C2182 C2183 1.366 . S
C2182 C2184 1.388 . S
C2183 C2182 1.366 . S
C2183 C2187 1.385 . S
C2184 H2165 0.951 . S
C2184 C2182 1.388 . S
C2184 C2185 1.366 . S
C2185 C2184 1.366 . S
C2185 C2186 1.414 . S
C2185 C2188 1.499 . S
C2186 H2166 0.950 . S
C2186 C2185 1.414 . S
C2186 C2187 1.374 . S
C2187 H2167 0.950 . S
C2187 C2183 1.385 . S
C2187 C2186 1.374 . S
C2188 C2185 1.499 . S
C2188 C2189 1.373 . S
C2188 C2190 1.389 . S
C2189 H2168 0.950 . S
C2189 C2188 1.373 . S
C2189 C2205 1.377 1_455 S
C2190 C2188 1.389 . S
C2190 C2191 1.524 . S
C2190 C2204 1.377 . S
C2191 C2190 1.524 . S
C2191 C2192 1.397 . S
C2191 C2196 1.363 . S
C2192 H2169 0.950 . S
C2192 C2191 1.397 . S
C2192 C2193 1.334 . S
C2193 H2170 0.950 . S
C2193 C2192 1.334 . S
C2193 C2194 1.287 . S
C2194 C2193 1.287 . S
C2194 C2195 1.524 . S
C2194 H2213 0.913 . S
C2195 H2171 0.950 . S
C2195 C2194 1.524 . S
C2195 C2196 1.415 . S
C2196 H2172 0.950 . S
C2196 C2191 1.363 . S
C2196 C2195 1.415 . S
C2197 H2173 0.951 . S
C2197 C2198 1.366 . S
C2197 C2199 1.388 . S
C2198 C2197 1.366 . S
C2198 C2202 1.385 . S
C2199 H2174 0.951 . S
C2199 C2197 1.388 . S
C2199 C2200 1.366 . S
C2200 C2199 1.366 . S
C2200 C2201 1.414 . S
C2200 C2203 1.499 . S
C2201 H2175 0.950 . S
C2201 C2200 1.414 . S
C2201 C2202 1.374 . S
C2202 H2176 0.950 . S
C2202 C2198 1.385 . S
C2202 C2201 1.374 . S
C2203 C2200 1.499 . S
C2203 C2204 1.373 1_655 S
C2203 C2205 1.389 . S
C2204 H2177 0.950 1_455 S
C2204 C2190 1.377 . S
C2204 C2203 1.373 1_455 S
C2205 C2189 1.377 1_655 S
C2205 C2203 1.389 . S
C2205 C2206 1.524 . S
C2206 C2205 1.524 . S
C2206 C2207 1.397 . S
C2206 C2211 1.363 . S
C2207 H2178 0.950 . S
C2207 C2206 1.397 . S
C2207 C2208 1.334 . S
C2208 H2179 0.950 . S
C2208 C2207 1.334 . S
C2208 C2209 1.287 . S
C2209 C2208 1.287 . S
C2209 C2210 1.524 . S
C2209 H2212 0.999 . S
C2210 H2180 0.950 . S
C2210 C2209 1.524 . S
C2210 C2211 1.415 . S
C2211 H2181 0.950 . S
C2211 C2206 1.363 . S
C2211 C2210 1.415 . S
H2212 C2209 0.999 . S
H2213 C2194 0.913 . S
C433 N104 1.111 . S
C448 N12 1.109 . S
C483 N117 1.803 . S
C498 C39 1.826 . S
C533 N58 1.095 . S
C548 N71 1.097 . S
C583 N94 1.141 . S
C598 N2 1.141 . S
C633 N127 1.801 . S
C648 C30 1.835 . S
C683 N48 1.119 . S
C698 N81 1.122 . S
C733 N232 1.123 . S
C748 N150 1.123 . S
C783 N255 1.117 . S
C798 N173 1.116 . S
C833 N196 1.097 . S
C848 N209 1.099 . S
C883 N140 1.094 . S
C898 N242 1.094 . S
C933 N265 1.105 . S
C948 N163 1.102 . S
C983 N219 1.123 . S
C998 N186 1.120 . S
C1033 N380 1.122 . S
C1048 N288 1.122 . S
C1083 C315 1.825 . S
C1098 N403 1.796 . S
C1133 N347 1.119 . S
C1148 N324 1.119 . S
C1183 N370 1.120 . S
C1198 N278 1.122 . S
C1233 N393 1.822 . S
C1248 C306 1.854 . S
C1283 N334 1.085 . S
C1298 N357 1.085 . S
C1333 C16 1.484 . S
C1348 C214 1.489 . S
C1383 C237 1.564 . S
C1398 N35 1.529 . S
C1433 C260 1.533 . S
C1448 C62 1.531 1_565 S
C1483 C76 1.565 . S
C1498 C292 1.570 . S
C1533 N311 1.482 . S
C1548 C108 1.499 . S
C1583 C329 1.570 . S
C1598 C122 1.571 . S
C1633 C361 1.475 . S
C1648 C7 1.484 . S
C1683 C375 1.590 . S
C1698 N25 1.584 . S
C1733 C398 1.525 . S
C1748 C53 1.524 . S
C1783 C85 1.524 . S
C1798 C145 1.543 . S
C1833 C99 1.536 . S
C1848 C168 1.533 . S
C1883 C191 1.545 . S
C1898 C131 1.525 . S
C1933 C352 1.530 . S
C1948 C154 1.529 . S
C1983 C384 1.545 . S
C1998 C177 1.571 . S
C2033 C200 1.526 . S
C2048 C407 1.511 . S
C2083 C283 1.559 . S
C2098 C223 1.548 . S
C2133 N301 1.495 . S
C2148 C246 1.496 . S
C2183 C269 1.540 . S
C2198 C338 1.561 . S
