# Generated by pormake.
# Topology wjd, (6)-cn, num edge types: 1
# Building blocks:
#     Node 0, Type 0, BuildingBlock: NUHQIS_clean_sbu_0, # of connection points: 6
#     Node 1, Type 0, BuildingBlock: NUHQIS_clean_sbu_0, # of connection points: 6
#     Node 2, Type 0, BuildingBlock: NUHQIS_clean_sbu_0, # of connection points: 6
#     Node 3, Type 0, BuildingBlock: NUHQIS_clean_sbu_0, # of connection points: 6
#     Node 4, Type 0, BuildingBlock: NUHQIS_clean_sbu_0, # of connection points: 6
#     Node 5, Type 0, BuildingBlock: NUHQIS_clean_sbu_0, # of connection points: 6
#     Node 6, Type 0, BuildingBlock: NUHQIS_clean_sbu_0, # of connection points: 6
#     Node 7, Type 0, BuildingBlock: NUHQIS_clean_sbu_0, # of connection points: 6
#     Node 8, Type 0, BuildingBlock: NUHQIS_clean_sbu_0, # of connection points: 6
#     Node 9, Type 0, BuildingBlock: NUHQIS_clean_sbu_0, # of connection points: 6
#     Node 10, Type 0, BuildingBlock: NUHQIS_clean_sbu_0, # of connection points: 6
#     Node 11, Type 0, BuildingBlock: NUHQIS_clean_sbu_0, # of connection points: 6
#     Edge 12, Type (0, 0), BuildingBlock: ZUJKAS_clean_linker_0, # of connection points: 2
#     Edge 13, Type (0, 0), BuildingBlock: ZUJKAS_clean_linker_0, # of connection points: 2
#     Edge 14, Type (0, 0), BuildingBlock: ZUJKAS_clean_linker_0, # of connection points: 2
#     Edge 15, Type (0, 0), BuildingBlock: ZUJKAS_clean_linker_0, # of connection points: 2
#     Edge 16, Type (0, 0), BuildingBlock: ZUJKAS_clean_linker_0, # of connection points: 2
#     Edge 17, Type (0, 0), BuildingBlock: ZUJKAS_clean_linker_0, # of connection points: 2
#     Edge 18, Type (0, 0), BuildingBlock: ZUJKAS_clean_linker_0, # of connection points: 2
#     Edge 19, Type (0, 0), BuildingBlock: ZUJKAS_clean_linker_0, # of connection points: 2
#     Edge 20, Type (0, 0), BuildingBlock: ZUJKAS_clean_linker_0, # of connection points: 2
#     Edge 21, Type (0, 0), BuildingBlock: ZUJKAS_clean_linker_0, # of connection points: 2
#     Edge 22, Type (0, 0), BuildingBlock: ZUJKAS_clean_linker_0, # of connection points: 2
#     Edge 23, Type (0, 0), BuildingBlock: ZUJKAS_clean_linker_0, # of connection points: 2
#     Edge 24, Type (0, 0), BuildingBlock: ZUJKAS_clean_linker_0, # of connection points: 2
#     Edge 25, Type (0, 0), BuildingBlock: ZUJKAS_clean_linker_0, # of connection points: 2
#     Edge 26, Type (0, 0), BuildingBlock: ZUJKAS_clean_linker_0, # of connection points: 2
#     Edge 27, Type (0, 0), BuildingBlock: ZUJKAS_clean_linker_0, # of connection points: 2
#     Edge 28, Type (0, 0), BuildingBlock: ZUJKAS_clean_linker_0, # of connection points: 2
#     Edge 29, Type (0, 0), BuildingBlock: ZUJKAS_clean_linker_0, # of connection points: 2
#     Edge 30, Type (0, 0), BuildingBlock: ZUJKAS_clean_linker_0, # of connection points: 2
#     Edge 31, Type (0, 0), BuildingBlock: ZUJKAS_clean_linker_0, # of connection points: 2
#     Edge 32, Type (0, 0), BuildingBlock: ZUJKAS_clean_linker_0, # of connection points: 2
#     Edge 33, Type (0, 0), BuildingBlock: ZUJKAS_clean_linker_0, # of connection points: 2
#     Edge 34, Type (0, 0), BuildingBlock: ZUJKAS_clean_linker_0, # of connection points: 2
#     Edge 35, Type (0, 0), BuildingBlock: ZUJKAS_clean_linker_0, # of connection points: 2
#     Edge 36, Type (0, 0), BuildingBlock: ZUJKAS_clean_linker_0, # of connection points: 2
#     Edge 37, Type (0, 0), BuildingBlock: ZUJKAS_clean_linker_0, # of connection points: 2
#     Edge 38, Type (0, 0), BuildingBlock: ZUJKAS_clean_linker_0, # of connection points: 2
#     Edge 39, Type (0, 0), BuildingBlock: ZUJKAS_clean_linker_0, # of connection points: 2
#     Edge 40, Type (0, 0), BuildingBlock: ZUJKAS_clean_linker_0, # of connection points: 2
#     Edge 41, Type (0, 0), BuildingBlock: ZUJKAS_clean_linker_0, # of connection points: 2
#     Edge 42, Type (0, 0), BuildingBlock: ZUJKAS_clean_linker_0, # of connection points: 2
#     Edge 43, Type (0, 0), BuildingBlock: ZUJKAS_clean_linker_0, # of connection points: 2
#     Edge 44, Type (0, 0), BuildingBlock: ZUJKAS_clean_linker_0, # of connection points: 2
#     Edge 45, Type (0, 0), BuildingBlock: ZUJKAS_clean_linker_0, # of connection points: 2
#     Edge 46, Type (0, 0), BuildingBlock: ZUJKAS_clean_linker_0, # of connection points: 2
#     Edge 47, Type (0, 0), BuildingBlock: ZUJKAS_clean_linker_0, # of connection points: 2
# Relax obj value: 0.087
# Max RMSD: 0.194
# Mean RMSD: 0.194
data_MOF--net-wjd--node1-NUHQIS_clean_sbu_0--edge1-ZUJKAS_clean_linker_0
_symmetry_space_group_name_H-M    P1
_symmetry_Int_Tables_number       1
_symmetry_cell_setting            triclinic
loop_
_symmetry_equiv_pos_as_xyz
'x, y, z'
_cell_length_a     49.348042
_cell_length_b     49.276259
_cell_length_c     71.279023
_cell_angle_alpha  89.992779
_cell_angle_beta   89.852904
_cell_angle_gamma 120.0041
loop_
_atom_site_label
_atom_site_type_symbol
_atom_site_fract_x
_atom_site_fract_y
_atom_site_fract_z
_atom_type_partial_charge
Tb0 Tb 0.37327 0.17883 0.11112 0.0
Eu1 Eu 0.33246 0.10592 0.12672 0.0
C2 C 0.34847 0.12095 0.08446 0.0
C3 C 0.29996 0.14631 0.11647 0.0
C4 C 0.43285 0.26479 0.10141 0.0
C5 C 0.46857 0.31739 0.08981 0.0
C6 C 0.44262 0.28749 0.08721 0.0
C7 C 0.44999 0.27226 0.11819 0.0
C8 C 0.47611 0.30227 0.1208 0.0
C9 C 0.48547 0.32542 0.10673 0.0
C10 C 0.40347 0.23466 0.09877 0.0
O11 O 0.3827 0.18051 0.14135 0.0
O12 O 0.33581 0.13816 0.14993 0.0
O13 O 0.383 0.12007 0.13293 0.0
O14 O 0.40751 0.16357 0.1136 0.0
C15 C 0.36132 0.16434 0.15419 0.0
O16 O 0.30957 0.0702 0.14868 0.0
O17 O 0.30585 0.05648 0.11954 0.0
O18 O 0.35296 0.10693 0.09862 0.0
O19 O 0.34835 0.14733 0.08732 0.0
O20 O 0.32736 0.17175 0.11822 0.0
O21 O 0.29733 0.11847 0.11528 0.0
C22 C 0.40821 0.14216 0.12435 0.0
O23 O 0.40536 0.21134 0.09157 0.0
O24 O 0.38316 0.22544 0.11241 0.0
C25 C 0.26204 0.02587 0.13868 0.0
C26 C 0.19725 0.98131 0.1397 0.0
C27 C 0.2189 0.97626 0.14976 0.0
C28 C 0.25095 0.99827 0.1492 0.0
C29 C 0.24053 0.03158 0.12913 0.0
C30 C 0.2085 1.00953 0.1296 0.0
C31 C 0.29606 0.04732 0.13662 0.0
H32 H 0.47534 0.3343 0.07852 0.0
H33 H 0.42974 0.28226 0.07417 0.0
H34 H 0.44279 0.25516 0.1294 0.0
H35 H 0.4884 0.3076 0.13405 0.0
H36 H 0.21114 0.95515 0.15798 0.0
H37 H 0.26715 0.99344 0.15669 0.0
H38 H 0.24859 0.0527 0.12087 0.0
H39 H 0.19273 1.0142 0.12151 0.0
Tb40 Tb 0.80505 0.70714 0.38718 0.0
Eu41 Eu 0.83615 0.66553 0.40267 0.0
C42 C 0.83041 0.67605 0.35893 0.0
C43 C 0.76306 0.63306 0.39021 0.0
C44 C 0.80015 0.77851 0.37786 0.0
C45 C 0.80303 0.82593 0.36552 0.0
C46 C 0.79039 0.79336 0.36497 0.0
C47 C 0.82325 0.79681 0.39107 0.0
C48 C 0.83571 0.82928 0.39171 0.0
C49 C 0.82554 0.84422 0.37906 0.0
C50 C 0.78557 0.74401 0.37785 0.0
O51 O 0.7878 0.68974 0.41511 0.0
O52 O 0.8317 0.69292 0.42716 0.0
O53 O 0.87588 0.71234 0.39416 0.0
O54 O 0.8516 0.74124 0.39777 0.0
C55 C 0.80637 0.69507 0.42937 0.0
O56 O 0.83477 0.62905 0.42104 0.0
O57 O 0.87461 0.65583 0.40281 0.0
O58 O 0.8273 0.65527 0.37162 0.0
O59 O 0.82988 0.70155 0.36364 0.0
O60 O 0.76805 0.65872 0.38126 0.0
O61 O 0.78433 0.63262 0.40109 0.0
C62 C 0.87721 0.73941 0.39609 0.0
O63 O 0.79672 0.732 0.36596 0.0
O64 O 0.78116 0.73091 0.39427 0.0
C65 C 0.86178 0.60343 0.4096 0.0
C66 C 0.86833 0.55057 0.40176 0.0
C67 C 0.86091 0.55589 0.41997 0.0
C68 C 0.85778 0.58207 0.42384 0.0
C69 C 0.86849 0.59783 0.39128 0.0
C70 C 0.87183 0.57176 0.38743 0.0
C71 C 0.8609 0.63227 0.4144 0.0
H72 H 0.79453 0.83667 0.35567 0.0
H73 H 0.77263 0.7797 0.35467 0.0
H74 H 0.83136 0.78594 0.4011 0.0
H75 H 0.8533 0.84272 0.40215 0.0
H76 H 0.85835 0.54027 0.43139 0.0
H77 H 0.85282 0.58596 0.43809 0.0
H78 H 0.8716 0.61382 0.37996 0.0
H79 H 0.87712 0.56816 0.3732 0.0
Tb80 Tb 0.86214 0.20976 0.1163 0.0
Eu81 Eu 0.93615 0.24152 0.12917 0.0
C82 C 0.91737 0.24236 0.08793 0.0
C83 C 0.89383 0.16812 0.11988 0.0
C84 C 0.77638 0.18543 0.11008 0.0
C85 C 0.72974 0.18504 0.09854 0.0
C86 C 0.75909 0.18798 0.09527 0.0
C87 C 0.76398 0.18054 0.12837 0.0
C88 C 0.7345 0.17742 0.13164 0.0
C89 C 0.71682 0.17927 0.11672 0.0
C90 C 0.80565 0.18509 0.10579 0.0
O91 O 0.8625 0.21769 0.14662 0.0
O92 O 0.90664 0.21557 0.15406 0.0
O93 O 0.92391 0.27919 0.13599 0.0
O94 O 0.87742 0.25926 0.11952 0.0
C95 C 0.88044 0.21441 0.15904 0.0
O96 O 0.97447 0.25541 0.14919 0.0
O97 O 0.98434 0.26229 0.11942 0.0
O98 O 0.93224 0.26115 0.10178 0.0
O99 O 0.89161 0.2157 0.09149 0.0
O100 O 0.86889 0.17055 0.1228 0.0
O101 O 0.92169 0.19307 0.11803 0.0
C102 C 0.90051 0.28188 0.12907 0.0
O103 O 0.82859 0.21002 0.09805 0.0
O104 O 0.81571 0.17309 0.11838 0.0
C105 C 1.01661 0.24991 0.13722 0.0
C106 C 0.05728 0.22488 0.13579 0.0
C107 C 0.025 0.2053 0.13925 0.0
C108 C 1.00486 0.21768 0.13989 0.0
C109 C 0.0487 0.26953 0.13401 0.0
C110 C 0.0688 0.25721 0.13327 0.0
C111 C 0.99558 0.26307 0.13605 0.0
H112 H 0.71672 0.18623 0.08667 0.0
H113 H 0.76796 0.19143 0.08103 0.0
H114 H 0.77674 0.17848 0.14011 0.0
H115 H 0.72549 0.17342 0.14585 0.0
H116 H 1.01525 0.18039 0.14146 0.0
H117 H 0.98005 0.20204 0.14217 0.0
H118 H 0.05815 0.29437 0.1316 0.0
H119 H 0.09329 0.273 0.1302 0.0
Tb120 Tb 0.33201 0.10577 0.38208 0.0
Eu121 Eu 0.37438 0.17762 0.39851 0.0
C122 C 0.36999 0.16082 0.35422 0.0
C123 C 0.40535 0.13637 0.38852 0.0
C124 C 0.26192 0.02814 0.37445 0.0
C125 C 0.21566 0.97752 0.36872 0.0
C126 C 0.24767 0.99844 0.36613 0.0
C127 C 0.24372 0.03675 0.38539 0.0
C128 C 0.21169 0.01585 0.38799 0.0
C129 C 0.1972 0.9859 0.37971 0.0
C130 C 0.29562 0.05007 0.37158 0.0
O131 O 0.31603 0.10573 0.41035 0.0
O132 O 0.36202 0.14304 0.42288 0.0
O133 O 0.3241 0.16467 0.40194 0.0
O134 O 0.30495 0.12951 0.37776 0.0
C135 C 0.33475 0.11716 0.42474 0.0
O136 O 0.41288 0.21208 0.41589 0.0
O137 O 0.38393 0.22582 0.40037 0.0
O138 O 0.37074 0.18088 0.36677 0.0
O139 O 0.36205 0.13197 0.3588 0.0
O140 O 0.37753 0.11093 0.39033 0.0
O141 O 0.40832 0.16425 0.38714 0.0
C142 C 0.30242 0.1489 0.3894 0.0
O143 O 0.30261 0.07469 0.36138 0.0
O144 O 0.31304 0.05743 0.38654 0.0
C145 C 0.43667 0.26569 0.40643 0.0
C146 C 0.48865 0.32627 0.39946 0.0
C147 C 0.48318 0.31265 0.41745 0.0
C148 C 0.45754 0.2828 0.42086 0.0
C149 C 0.4422 0.27889 0.38834 0.0
C150 C 0.46788 0.30888 0.38491 0.0
C151 C 0.40856 0.23515 0.41095 0.0
H152 H 0.20529 0.95488 0.3619 0.0
H153 H 0.2613 0.99143 0.35757 0.0
H154 H 0.25432 0.05963 0.39195 0.0
H155 H 0.19838 0.02302 0.39671 0.0
H156 H 0.49829 0.32539 0.42908 0.0
H157 H 0.45367 0.27327 0.43495 0.0
H158 H 0.42652 0.26621 0.37691 0.0
H159 H 0.4715 0.31839 0.37084 0.0
Tb160 Tb 0.82953 0.66588 0.11711 0.0
Eu161 Eu 0.79989 0.70865 0.13272 0.0
C162 C 0.81119 0.70487 0.08997 0.0
C163 C 0.87359 0.73668 0.1264 0.0
C164 C 0.85433 0.60469 0.11097 0.0
C165 C 0.84669 0.5532 0.10295 0.0
C166 C 0.84244 0.57867 0.09895 0.0
C167 C 0.87027 0.60449 0.12727 0.0
C168 C 0.87465 0.57905 0.13124 0.0
C169 C 0.86316 0.55316 0.11904 0.0
C170 C 0.85202 0.63256 0.10541 0.0
O171 O 0.83557 0.66835 0.14782 0.0
O172 O 0.79676 0.67854 0.15699 0.0
O173 O 0.75907 0.66106 0.12405 0.0
O174 O 0.78374 0.63251 0.12807 0.0
C175 C 0.81718 0.66969 0.16088 0.0
O176 O 0.79699 0.73983 0.15338 0.0
O177 O 0.77006 0.72897 0.12777 0.0
O178 O 0.81805 0.72463 0.10376 0.0
O179 O 0.80868 0.67729 0.09304 0.0
O180 O 0.86662 0.71446 0.11396 0.0
O181 O 0.85209 0.7358 0.1377 0.0
C182 C 0.75805 0.63391 0.12599 0.0
O183 O 0.82451 0.62796 0.10072 0.0
O184 O 0.86754 0.65803 0.11529 0.0
C185 C 0.7913 0.7803 0.13974 0.0
C186 C 0.81348 0.84502 0.13435 0.0
C187 C 0.78687 0.82657 0.14554 0.0
C188 C 0.77593 0.79456 0.1482 0.0
C189 C 0.81786 0.79849 0.1286 0.0
C190 C 0.82885 0.83052 0.12593 0.0
C191 C 0.77975 0.74662 0.14271 0.0
H192 H 0.83783 0.53392 0.09311 0.0
H193 H 0.83039 0.57831 0.08619 0.0
H194 H 0.8798 0.62416 0.13685 0.0
H195 H 0.88709 0.57968 0.14387 0.0
H196 H 0.77469 0.83695 0.15247 0.0
H197 H 0.75549 0.78094 0.15692 0.0
H198 H 0.83007 0.78789 0.12195 0.0
H199 H 0.84913 0.84381 0.11705 0.0
Tb200 Tb 0.93281 0.23576 0.38663 0.0
Eu201 Eu 0.85966 0.20273 0.4024 0.0
C202 C 0.87641 0.20945 0.35862 0.0
C203 C 0.89885 0.2759 0.38991 0.0
C204 C 1.0114 0.24528 0.37705 0.0
C205 C 0.0524 0.23971 0.36153 0.0
C206 C 0.0305 0.24994 0.36136 0.0
C207 C 1.0142 0.22967 0.39281 0.0
C208 C 0.03628 0.21975 0.39305 0.0
C209 C 0.05584 0.22488 0.37748 0.0
C210 C 0.98944 0.25758 0.37704 0.0
O211 O 0.93195 0.25211 0.41466 0.0
O212 O 0.89196 0.20734 0.42659 0.0
O213 O 0.86829 0.16372 0.39463 0.0
O214 O 0.92186 0.1894 0.39689 0.0
C215 C 0.91912 0.23304 0.42883 0.0
O216 O 0.82491 0.20127 0.42232 0.0
O217 O 0.81113 0.16499 0.4013 0.0
O218 O 0.85837 0.21198 0.37132 0.0
O219 O 0.90243 0.21014 0.36338 0.0
O220 O 0.91957 0.27138 0.38067 0.0
O221 O 0.87768 0.25447 0.40107 0.0
C222 C 0.89459 0.16337 0.39594 0.0
O223 O 0.96619 0.24494 0.3653 0.0
O224 O 0.98044 0.26189 0.39339 0.0
C225 C 0.77157 0.17508 0.41232 0.0
C226 C 0.71099 0.16709 0.40728 0.0
C227 C 0.71962 0.15948 0.42445 0.0
C228 C 0.74952 0.16342 0.42691 0.0
C229 C 0.76346 0.18341 0.39526 0.0
C230 C 0.73349 0.17952 0.39278 0.0
C231 C 0.80183 0.17613 0.41489 0.0
H232 H 0.06723 0.24418 0.34935 0.0
H233 H 0.02877 0.26188 0.34905 0.0
H234 H 0.99958 0.22541 0.40507 0.0
H235 H 0.03802 0.20801 0.40545 0.0
H236 H 0.70322 0.15042 0.43605 0.0
H237 H 0.75525 0.15682 0.44018 0.0
H238 H 0.78007 0.19233 0.38375 0.0
H239 H 0.72767 0.18545 0.37932 0.0
Tb240 Tb 0.11398 0.32443 0.6269 0.0
Eu241 Eu 0.18811 0.36567 0.61311 0.0
C242 C 0.16818 0.35277 0.65654 0.0
C243 C 0.14804 0.39916 0.62551 0.0
C244 C 0.03566 0.25476 0.63677 0.0
C245 C 0.0278 0.20222 0.64081 0.0
C246 C 0.0478 0.23479 0.64005 0.0
C247 C 1.00334 0.24179 0.63446 0.0
C248 C 0.98337 0.20932 0.63518 0.0
C249 C 0.99529 0.189 0.63823 0.0
C250 C 0.05639 0.28871 0.63389 0.0
O251 O 0.11785 0.34542 0.59967 0.0
O252 O 0.15701 0.33921 0.58823 0.0
O253 O 0.18021 0.31846 0.62126 0.0
O254 O 0.12695 0.28988 0.61774 0.0
C255 C 0.13055 0.33896 0.58557 0.0
O256 O 0.22401 0.40086 0.59446 0.0
O257 O 0.23642 0.37598 0.61461 0.0
O258 O 0.18719 0.37378 0.64431 0.0
O259 O 0.14193 0.328 0.65127 0.0
O260 O 0.12516 0.37278 0.63266 0.0
O261 O 0.17149 0.40037 0.61595 0.0
C262 C 0.15428 0.29154 0.61962 0.0
O263 O 0.07732 0.30419 0.64673 0.0
O264 O 0.06815 0.29663 0.61709 0.0
C265 C 0.27629 0.42754 0.60634 0.0
C266 C 0.33587 0.48059 0.61343 0.0
C267 C 0.32493 0.47185 0.59495 0.0
C268 C 0.29554 0.44562 0.59147 0.0
C269 C 0.28674 0.43655 0.62485 0.0
C270 C 0.31624 0.46274 0.62835 0.0
C271 C 0.24665 0.39832 0.60212 0.0
H272 H 0.03784 0.18741 0.64337 0.0
H273 H 0.07276 0.24436 0.64171 0.0
H274 H 0.99358 0.25677 0.63162 0.0
H275 H 0.95864 0.20012 0.63278 0.0
H276 H 0.33946 0.48474 0.5831 0.0
H277 H 0.28813 0.43903 0.57708 0.0
H278 H 0.27235 0.42308 0.63662 0.0
H279 H 0.32369 0.46899 0.64275 0.0
Tb280 Tb 0.21096 0.85402 0.89892 0.0
Eu281 Eu 0.2417 0.92598 0.88214 0.0
C282 C 0.22995 0.9129 0.92503 0.0
C283 C 0.16786 0.88137 0.88835 0.0
C284 C 0.18324 0.76776 0.90906 0.0
C285 C 0.16357 0.71432 0.92005 0.0
C286 C 0.16852 0.74458 0.92285 0.0
C287 C 0.19331 0.76031 0.89239 0.0
C288 C 0.18842 0.72991 0.88958 0.0
C289 C 0.17323 0.70641 0.90334 0.0
C290 C 0.18677 0.79899 0.91243 0.0
O291 O 0.20541 0.84921 0.86813 0.0
O292 O 0.24488 0.89773 0.85868 0.0
O293 O 0.28189 0.91875 0.89139 0.0
O294 O 0.25675 0.86517 0.88863 0.0
C295 C 0.22418 0.86847 0.85498 0.0
O296 O 0.24612 0.9594 0.86059 0.0
O297 O 0.27214 0.97634 0.88649 0.0
O298 O 0.22356 0.92551 0.91087 0.0
O299 O 0.23205 0.88747 0.9225 0.0
O300 O 0.17453 0.86652 0.90122 0.0
O301 O 0.18957 0.90146 0.8769 0.0
C302 C 0.28259 0.89236 0.89013 0.0
O303 O 0.21452 0.82182 0.91678 0.0
O304 O 0.17259 0.80822 0.90086 0.0
C305 C 0.25296 1.00707 0.87276 0.0
C306 C 0.23353 0.05204 0.87617 0.0
C307 C 0.26508 0.06137 0.87254 0.0
C308 C 0.27466 0.03909 0.87083 0.0
C309 C 0.2215 0.99759 0.87653 0.0
C310 C 0.21186 0.01984 0.87814 0.0
C311 C 0.2634 0.98385 0.871 0.0
H312 H 0.15236 0.69717 0.93112 0.0
H313 H 0.16064 0.74984 0.93584 0.0
H314 H 0.20465 0.77785 0.88153 0.0
H315 H 0.19601 0.72467 0.87649 0.0
H316 H 0.28233 0.08591 0.87075 0.0
H317 H 0.29904 0.04688 0.86795 0.0
H318 H 0.2044 0.97297 0.87825 0.0
H319 H 0.1875 1.01184 0.88119 0.0
Tb320 Tb 0.71551 0.79604 0.63019 0.0
Eu321 Eu 0.67547 0.8299 0.61645 0.0
C322 C 0.68553 0.82046 0.6598 0.0
C323 C 0.64133 0.75554 0.62689 0.0
C324 C 0.78471 0.78661 0.63946 0.0
C325 C 0.83769 0.83113 0.64149 0.0
C326 C 0.80519 0.81894 0.64153 0.0
C327 C 0.79713 0.76667 0.63752 0.0
C328 C 0.82952 0.77878 0.63741 0.0
C329 C 0.85033 0.81122 0.63926 0.0
C330 C 0.75068 0.77361 0.63742 0.0
O331 O 0.6966 0.78052 0.60239 0.0
O332 O 0.70285 0.8264 0.5916 0.0
O333 O 0.72227 0.86842 0.62583 0.0
O334 O 0.75049 0.84359 0.62135 0.0
C335 C 0.70322 0.80026 0.58858 0.0
O336 O 0.64113 0.83175 0.59775 0.0
O337 O 0.66546 0.86815 0.61842 0.0
O338 O 0.665 0.81853 0.64733 0.0
O339 O 0.71069 0.81948 0.65475 0.0
O340 O 0.6668 0.75904 0.63528 0.0
O341 O 0.64123 0.77822 0.61719 0.0
C342 C 0.74912 0.86931 0.62408 0.0
O343 O 0.73638 0.78075 0.65024 0.0
O344 O 0.74172 0.77592 0.62065 0.0
C345 C 0.61404 0.857 0.60996 0.0
C346 C 0.56043 0.8632 0.61593 0.0
C347 C 0.56478 0.85144 0.59888 0.0
C348 C 0.59129 0.8485 0.59592 0.0
C349 C 0.60943 0.86814 0.62718 0.0
C350 C 0.58298 0.87123 0.63011 0.0
C351 C 0.6434 0.85659 0.60582 0.0
H352 H 0.85287 0.85615 0.64315 0.0
H353 H 0.79608 0.83481 0.64286 0.0
H354 H 0.78173 0.74172 0.63559 0.0
H355 H 0.83822 0.76272 0.63531 0.0
H356 H 0.54816 0.84538 0.58754 0.0
H357 H 0.59436 0.84022 0.58244 0.0
H358 H 0.62649 0.875 0.63832 0.0
H359 H 0.58024 0.87998 0.6435 0.0
Tb360 Tb 0.17809 0.36539 0.89938 0.0
Eu361 Eu 0.10549 0.32242 0.88442 0.0
C362 C 0.12133 0.32715 0.92701 0.0
C363 C 0.15097 0.2942 0.89068 0.0
C364 C 0.26465 0.42473 0.9054 0.0
C365 C 0.32139 0.44843 0.90504 0.0
C366 C 0.29172 0.42324 0.90931 0.0
C367 C 0.26776 0.45189 0.89689 0.0
C368 C 0.29755 0.47725 0.89265 0.0
C369 C 0.32481 0.4759 0.89675 0.0
C370 C 0.2339 0.39801 0.911 0.0
O371 O 0.18134 0.36209 0.86868 0.0
O372 O 0.13221 0.35163 0.85979 0.0
O373 O 0.11262 0.37044 0.89254 0.0
O374 O 0.16582 0.3987 0.88818 0.0
C375 C 0.16137 0.36027 0.85571 0.0
O376 O 0.07095 0.29223 0.86382 0.0
O377 O 0.05539 0.30125 0.89036 0.0
O378 O 0.10832 0.30708 0.91341 0.0
O379 O 0.14617 0.35474 0.92363 0.0
O380 O 0.16652 0.31684 0.9028 0.0
O381 O 0.12994 0.29458 0.87958 0.0
C382 C 0.13878 0.39747 0.89023 0.0
O383 O 0.21144 0.40371 0.91509 0.0
O384 O 0.22368 0.37231 0.90134 0.0
C385 C 0.02537 0.25029 0.8776 0.0
C386 C 0.9829 0.18533 0.88255 0.0
C387 C 1.01471 0.19637 0.87854 0.0
C388 C 0.03572 0.22846 0.87618 0.0
C389 C 0.9938 0.23949 0.88172 0.0
C390 C 0.97281 0.20742 0.88421 0.0
C391 C 0.04727 0.28428 0.87513 0.0
H392 H 0.34173 0.44663 0.90868 0.0
H393 H 0.28993 0.40261 0.91595 0.0
H394 H 0.24724 0.45362 0.89364 0.0
H395 H 0.29923 0.49785 0.88608 0.0
H396 H 0.02338 0.18021 0.87691 0.0
H397 H 0.06004 0.23618 0.87317 0.0
H398 H 0.98536 0.25591 0.88308 0.0
H399 H 0.94871 0.20001 0.88764 0.0
Tb400 Tb 0.24199 0.92379 0.6273 0.0
Eu401 Eu 0.20961 0.85063 0.61227 0.0
C402 C 0.21631 0.86767 0.65612 0.0
C403 C 0.28278 0.89005 0.62532 0.0
C404 C 0.24863 1.00109 0.63716 0.0
C405 C 0.25346 0.05108 0.64575 0.0
C406 C 0.26511 0.03033 0.64597 0.0
C407 C 0.21986 0.99249 0.62859 0.0
C408 C 0.2082 1.0132 0.62832 0.0
C409 C 0.2251 0.04302 0.63662 0.0
C410 C 0.26267 0.98081 0.63569 0.0
O411 O 0.26038 0.92238 0.59998 0.0
O412 O 0.21585 0.88313 0.58769 0.0
O413 O 0.17067 0.85802 0.62202 0.0
O414 O 0.19499 0.91087 0.61727 0.0
C415 C 0.24213 0.90986 0.58552 0.0
O416 O 0.21013 0.81528 0.5939 0.0
O417 O 0.1701 0.80271 0.61181 0.0
O418 O 0.21795 0.8491 0.64342 0.0
O419 O 0.21818 0.89439 0.65145 0.0
O420 O 0.27903 0.91245 0.63299 0.0
O421 O 0.26078 0.86716 0.61537 0.0
C422 C 0.16941 0.88376 0.62011 0.0
O423 O 0.25408 0.95853 0.64809 0.0
O424 O 0.26311 0.97076 0.61888 0.0
C425 C 0.18061 0.76215 0.60413 0.0
C426 C 0.17317 0.70246 0.61225 0.0
C427 C 0.15194 0.70545 0.60049 0.0
C428 C 0.15565 0.73493 0.59649 0.0
C429 C 0.202 0.7595 0.61587 0.0
C430 C 0.19836 0.72992 0.61984 0.0
C431 C 0.18321 0.79273 0.5999 0.0
H432 H 0.26686 0.07359 0.65257 0.0
H433 H 0.28735 0.03743 0.65266 0.0
H434 H 0.20688 0.97014 0.62157 0.0
H435 H 0.18652 1.00624 0.62098 0.0
H436 H 0.13257 0.68499 0.59414 0.0
H437 H 0.13889 0.73646 0.5874 0.0
H438 H 0.22134 0.78023 0.62202 0.0
H439 H 0.215 0.72852 0.62909 0.0
Tb440 Tb 0.66649 0.82117 0.90209 0.0
Eu441 Eu 0.70806 0.78904 0.88805 0.0
C442 C 0.68978 0.78796 0.92959 0.0
C443 C 0.73968 0.86243 0.8974 0.0
C444 C 0.60686 0.84757 0.9115 0.0
C445 C 0.5713 0.86452 0.92314 0.0
C446 C 0.59714 0.86045 0.92573 0.0
C447 C 0.58978 0.83802 0.8947 0.0
C448 C 0.56375 0.84201 0.8921 0.0
C449 C 0.55448 0.85581 0.9062 0.0
C450 C 0.63614 0.84672 0.91417 0.0
O451 O 0.65868 0.8141 0.87172 0.0
O452 O 0.70503 0.81657 0.86395 0.0
O453 O 0.65787 0.75201 0.88149 0.0
O454 O 0.63175 0.77198 0.89856 0.0
C455 C 0.68009 0.81798 0.85919 0.0
O456 O 0.73045 0.77401 0.86706 0.0
O457 O 0.73645 0.76885 0.89667 0.0
O458 O 0.68534 0.76917 0.91562 0.0
O459 O 0.69078 0.81475 0.92626 0.0
O460 O 0.71226 0.8601 0.89501 0.0
O461 O 0.7425 0.83739 0.89916 0.0
C462 C 0.63195 0.74949 0.88865 0.0
O463 O 0.6341 0.82146 0.92141 0.0
O464 O 0.65654 0.85782 0.90058 0.0
C465 C 0.77912 0.77998 0.87703 0.0
C466 C 0.8442 0.80207 0.87541 0.0
C467 C 0.82248 0.77196 0.8688 0.0
C468 C 0.79027 0.76103 0.86966 0.0
C469 C 0.80066 0.81037 0.88314 0.0
C470 C 0.83287 0.82129 0.88237 0.0
C471 C 0.74516 0.76702 0.87966 0.0
H472 H 0.56457 0.87465 0.93445 0.0
H473 H 0.60998 0.86799 0.9388 0.0
H474 H 0.59696 0.82814 0.88347 0.0
H475 H 0.55148 0.83517 0.87884 0.0
H476 H 0.8303 0.7564 0.86355 0.0
H477 H 0.77403 0.73743 0.86501 0.0
H478 H 0.79253 0.8254 0.88889 0.0
H479 H 0.8489 0.84473 0.88733 0.0
H480 H 0.11805 0.25126 0.14798 0.0
H481 H 0.15431 0.23166 0.14383 0.0
H482 H 0.08164 0.14848 0.11725 0.0
H483 H 0.04558 0.16868 0.12042 0.0
H484 H 0.15338 0.18 0.15687 0.0
H485 H 0.1508 0.17655 0.07896 0.0
H486 H 0.13406 0.19563 0.09237 0.0
H487 H 0.11325 0.15369 0.08994 0.0
C488 C 0.10978 0.22898 0.141 0.0
C489 C 0.07884 0.21182 0.13434 0.0
C490 C 0.13054 0.21765 0.13879 0.0
C491 C 0.12098 0.18883 0.12991 0.0
C492 C 0.08987 0.17112 0.12375 0.0
H493 H 0.23777 0.10017 0.11369 0.0
H494 H 0.1916 0.10664 0.11672 0.0
C495 C 0.06909 0.18254 0.12584 0.0
C496 C 0.14375 0.17758 0.12727 0.0
H497 H 0.18146 0.15845 0.09393 0.0
C498 C 0.1593 0.17509 0.14311 0.0
C499 C 0.15159 0.17113 0.1093 0.0
C500 C 0.1368 0.17462 0.09164 0.0
C501 C 0.18275 0.16698 0.14143 0.0
C502 C 0.19095 0.16117 0.12348 0.0
C503 C 0.17487 0.16267 0.10769 0.0
C504 C 0.21837 0.1568 0.12081 0.0
C505 C 0.19925 0.16535 0.15881 0.0
C506 C 0.24854 0.18288 0.12182 0.0
C507 C 0.27479 0.17935 0.11999 0.0
C508 C 0.27155 0.14957 0.11717 0.0
C509 C 0.24117 0.12342 0.11584 0.0
C510 C 0.21477 0.12706 0.11757 0.0
H511 H 0.18681 0.16526 0.17185 0.0
H512 H 0.20145 0.144 0.15857 0.0
H513 H 0.22323 0.186 0.15918 0.0
H514 H 0.25179 0.20603 0.12422 0.0
H515 H 0.29769 0.20009 0.12109 0.0
H516 H 0.16832 0.92245 0.3856 0.0
H517 H 0.11249 0.88545 0.38967 0.0
H518 H 0.09286 0.96118 0.38519 0.0
H519 H 0.14866 0.99832 0.38049 0.0
H520 H 0.07181 0.88408 0.41748 0.0
H521 H 0.0328 0.89803 0.34679 0.0
H522 H 0.0734 0.91208 0.35221 0.0
H523 H 0.05486 0.93352 0.35998 0.0
C524 C 0.15215 0.93126 0.38522 0.0
C525 C 0.1631 0.96342 0.38256 0.0
C526 C 0.12021 0.91007 0.3877 0.0
C527 C 0.09837 0.92042 0.38748 0.0
C528 C 0.10916 0.95252 0.38508 0.0
H529 H 0.89214 0.80147 0.39509 0.0
H530 H 0.94479 0.84807 0.3945 0.0
C531 C 0.14116 0.97379 0.38261 0.0
C532 C 0.06445 0.89745 0.39004 0.0
H533 H 0.99372 0.8632 0.36768 0.0
C534 C 0.05473 0.87967 0.40663 0.0
C535 C 0.04204 0.89185 0.37596 0.0
C536 C 0.05119 0.90965 0.35765 0.0
C537 C 0.02346 0.85608 0.40936 0.0
C538 C 1.0013 0.84964 0.39499 0.0
C539 C 1.01071 0.86818 0.37869 0.0
C540 C 0.96921 0.82188 0.39588 0.0
C541 C 1.01445 0.83804 0.42758 0.0
C542 C 0.96545 0.79176 0.39664 0.0
C543 C 0.93564 0.76528 0.39694 0.0
C544 C 0.90865 0.76815 0.3964 0.0
C545 C 0.91237 0.79839 0.39564 0.0
C546 C 0.94243 0.82503 0.39525 0.0
H547 H 0.03084 0.85173 0.43904 0.0
H548 H 0.99032 0.8316 0.4319 0.0
H549 H 1.01537 0.81615 0.42574 0.0
H550 H 0.9857 0.78867 0.39675 0.0
H551 H 0.93385 0.74247 0.39747 0.0
H552 H 0.83908 0.11229 0.11954 0.0
H553 H 0.83164 0.05962 0.1202 0.0
H554 H 0.93158 0.09782 0.11955 0.0
H555 H 0.93942 0.15117 0.11908 0.0
H556 H 0.8515 0.02986 0.09452 0.0
H557 H 0.9025 0.03848 0.16533 0.0
H558 H 0.8918 0.06646 0.15702 0.0
H559 H 0.92684 0.06802 0.14855 0.0
C560 C 0.85962 0.1097 0.11953 0.0
C561 C 0.88991 0.13614 0.11936 0.0
C562 C 0.85526 0.07943 0.11987 0.0
C563 C 0.88099 0.07468 0.12016 0.0
C564 C 0.91134 0.10091 0.11964 0.0
H565 H 0.87433 0.89373 0.13319 0.0
H566 H 0.89289 0.94956 0.12834 0.0
C567 C 0.91578 0.13139 0.11924 0.0
C568 C 0.87546 0.04209 0.12104 0.0
H569 H 0.88215 0.99012 0.14973 0.0
C570 C 0.85841 0.02123 0.10653 0.0
C571 C 0.88458 0.03083 0.13668 0.0
C572 C 0.90226 0.05194 0.15288 0.0
C573 C 0.84979 0.98941 0.10736 0.0
C574 C 0.85784 0.97786 0.12333 0.0
C575 C 0.87584 0.99892 0.13755 0.0
C576 C 0.84664 0.94383 0.1259 0.0
C577 C 0.83215 0.96845 0.09108 0.0
C578 C 0.81444 0.92199 0.12636 0.0
C579 C 0.80375 0.89005 0.12902 0.0
C580 C 0.825 0.87914 0.13142 0.0
C581 C 0.85728 0.90115 0.13111 0.0
C582 C 0.86795 0.93314 0.12846 0.0
H583 H 0.83629 0.98213 0.07794 0.0
H584 H 0.83899 0.95041 0.08871 0.0
H585 H 0.8067 0.95635 0.09416 0.0
H586 H 0.79749 0.92967 0.12481 0.0
H587 H 0.77877 0.87386 0.12901 0.0
H588 H 0.28806 0.18454 0.4123 0.0
H589 H 0.24464 0.19468 0.40946 0.0
H590 H 0.21221 0.13615 0.36026 0.0
H591 H 0.25529 0.12527 0.36323 0.0
H592 H 0.23198 0.22306 0.38116 0.0
H593 H 0.13214 0.10223 0.39032 0.0
H594 H 0.17191 0.11265 0.39567 0.0
H595 H 0.1585 0.10601 0.37178 0.0
C596 C 0.27158 0.17355 0.40094 0.0
C597 C 0.27522 0.15401 0.38801 0.0
C598 C 0.24674 0.17943 0.39933 0.0
C599 C 0.22485 0.16591 0.38479 0.0
C600 C 0.22833 0.14632 0.37185 0.0
H601 H 0.07078 0.19496 0.35034 0.0
H602 H 0.11167 0.18044 0.35148 0.0
C603 C 0.25314 0.14028 0.3735 0.0
C604 C 0.19929 0.1735 0.38283 0.0
H605 H 0.11972 0.14121 0.38142 0.0
C606 C 0.20745 0.20513 0.38127 0.0
C607 C 0.16721 0.15012 0.38292 0.0
C608 C 0.15681 0.11587 0.38543 0.0
C609 C 0.18453 0.21398 0.37977 0.0
C610 C 0.15255 0.19066 0.37994 0.0
C611 C 0.14429 0.15902 0.38124 0.0
C612 C 0.12742 0.19889 0.37933 0.0
C613 C 0.19463 0.24826 0.37789 0.0
C614 C 0.12254 0.21377 0.39469 0.0
C615 C 0.09917 0.22193 0.39412 0.0
C616 C 0.08027 0.21554 0.37812 0.0
C617 C 0.08514 0.20048 0.36278 0.0
C618 C 0.10835 0.19202 0.36344 0.0
H619 H 0.21986 0.2627 0.37427 0.0
H620 H 0.18066 0.25175 0.36696 0.0
H621 H 0.19056 0.25684 0.39141 0.0
H622 H 0.13688 0.2191 0.40713 0.0
H623 H 0.09624 0.23375 0.4061 0.0
H624 H 0.17139 0.91734 0.13833 0.0
H625 H 0.11609 0.87737 0.13659 0.0
H626 H 0.09067 0.94925 0.1375 0.0
H627 H 0.14595 0.98951 0.13971 0.0
H628 H 0.06576 0.86564 0.16186 0.0
H629 H 0.04696 0.89652 0.08992 0.0
H630 H 0.08548 0.9094 0.09928 0.0
H631 H 0.06413 0.92839 0.10637 0.0
C632 C 0.15412 0.92477 0.13844 0.0
C633 C 0.16334 0.95682 0.13915 0.0
C634 C 0.12246 0.90181 0.13731 0.0
C635 C 0.09926 0.91032 0.13668 0.0
C636 C 0.10821 0.94217 0.13763 0.0
H637 H 0.89789 0.78527 0.15159 0.0
H638 H 0.95219 0.82778 0.15425 0.0
C639 C 0.13988 0.96518 0.13886 0.0
C640 C 0.06574 0.88576 0.13507 0.0
H641 H 1.00245 0.85739 0.10592 0.0
C642 C 0.05187 0.86387 0.14966 0.0
C643 C 0.04777 0.88328 0.11904 0.0
C644 C 0.06178 0.90544 0.10265 0.0
C645 C 1.02046 0.83973 0.14873 0.0
C646 C 1.00235 0.83753 0.13283 0.0
C647 C 1.01629 0.85926 0.11816 0.0
C648 C 0.96915 0.81226 0.13094 0.0
C649 C 1.00706 0.81634 0.16458 0.0
C650 C 0.96046 0.7898 0.11668 0.0
C651 C 0.92942 0.76544 0.11511 0.0
C652 C 0.90632 0.76318 0.12768 0.0
C653 C 0.91502 0.78615 0.14171 0.0
C654 C 0.94611 0.81043 0.14332 0.0
H655 H 0.02565 0.81724 0.17376 0.0
H656 H 0.99161 0.82161 0.17331 0.0
H657 H 0.99277 0.79215 0.15907 0.0
H658 H 0.97782 0.79084 0.10692 0.0
H659 H 0.92363 0.74827 0.10409 0.0
H660 H 0.8337 0.87878 0.41075 0.0
H661 H 0.85067 0.93457 0.41299 0.0
H662 H 0.86207 0.94335 0.35288 0.0
H663 H 0.84452 0.88735 0.35053 0.0
H664 H 0.9038 0.98801 0.40332 0.0
H665 H 0.80393 0.97729 0.3618 0.0
H666 H 0.80565 0.94359 0.37001 0.0
H667 H 0.82731 0.96454 0.34948 0.0
C668 C 0.84006 0.89264 0.39801 0.0
C669 C 0.8375 0.87855 0.38044 0.0
C670 C 0.84974 0.92455 0.39931 0.0
C671 C 0.85715 0.94313 0.38309 0.0
C672 C 0.85571 0.92938 0.36557 0.0
H673 H 0.94045 0.14922 0.38678 0.0
H674 H 0.93426 0.09675 0.38357 0.0
C675 C 0.84572 0.89737 0.36424 0.0
C676 C 0.86543 0.97658 0.38456 0.0
H677 H 0.8424 0.02831 0.37071 0.0
C678 C 0.89044 0.99688 0.39616 0.0
C679 C 0.84777 0.98809 0.37539 0.0
C680 C 0.81949 0.96722 0.36362 0.0
C681 C 0.89807 0.02822 0.39896 0.0
C682 C 0.88062 0.03977 0.3896 0.0
C683 C 0.85592 0.01955 0.37781 0.0
C684 C 0.88586 0.07196 0.39269 0.0
C685 C 0.924 0.04828 0.41241 0.0
C686 C 0.86082 0.07561 0.39881 0.0
C687 C 0.86416 0.10535 0.40037 0.0
C688 C 0.89273 0.13235 0.39595 0.0
C689 C 0.91823 0.12889 0.39042 0.0
C690 C 0.91473 0.0989 0.38865 0.0
H691 H 0.92977 0.03391 0.42182 0.0
H692 H 0.94538 0.06423 0.40432 0.0
H693 H 0.91753 0.06283 0.42117 0.0
H694 H 0.83837 0.05529 0.4021 0.0
H695 H 0.84409 0.10711 0.40481 0.0
H696 H 0.16474 0.03224 0.63889 0.0
H697 H 0.14678 0.07004 0.63442 0.0
H698 H 0.24223 0.14394 0.62671 0.0
H699 H 0.26027 0.10632 0.63044 0.0
H700 H 0.16057 0.12413 0.65413 0.0
H701 H 0.19961 0.1531 0.58032 0.0
H702 H 0.19709 0.11953 0.59218 0.0
H703 H 0.23051 0.15792 0.59563 0.0
C704 C 0.18191 0.05649 0.63607 0.0
C705 C 0.21399 0.06612 0.63495 0.0
C706 C 0.17159 0.0781 0.63363 0.0
C707 C 0.19308 0.10974 0.62988 0.0
C708 C 0.22512 0.11954 0.62919 0.0
H709 H 0.20741 0.28753 0.61945 0.0
H710 H 0.21223 0.24085 0.62132 0.0
C711 C 0.23545 0.09801 0.6316 0.0
C712 C 0.1823 0.13275 0.62689 0.0
H713 H 0.18775 0.18869 0.5963 0.0
C714 C 0.16607 0.13794 0.64138 0.0
C715 C 0.18921 0.15057 0.61017 0.0
C716 C 0.20477 0.14481 0.59361 0.0
C717 C 0.15818 0.16167 0.64002 0.0
C718 C 0.16644 0.18043 0.62365 0.0
C719 C 0.18153 0.17437 0.60887 0.0
C720 C 0.16242 0.20833 0.62223 0.0
C721 C 0.14241 0.16752 0.65642 0.0
C722 C 0.13267 0.20562 0.62188 0.0
C723 C 0.12974 0.23251 0.62075 0.0
C724 C 0.15654 0.26253 0.61999 0.0
C725 C 0.18619 0.26492 0.62009 0.0
C726 C 0.18906 0.23818 0.62113 0.0
H727 H 0.14187 0.15412 0.66909 0.0
H728 H 0.15462 0.19286 0.65994 0.0
H729 H 0.11796 0.16037 0.65261 0.0
H730 H 0.11177 0.18275 0.62245 0.0
H731 H 0.10656 0.22977 0.62064 0.0
H732 H 0.1172 0.84232 0.91002 0.0
H733 H 0.06324 0.83088 0.90686 0.0
H734 H 0.09004 0.89454 0.85997 0.0
H735 H 0.14435 0.9066 0.86321 0.0
H736 H 0.05052 0.90132 0.8845 0.0
H737 H 1.00215 0.77607 0.86658 0.0
H738 H 0.02345 0.78694 0.88824 0.0
H739 H 0.04361 0.80378 0.86654 0.0
C740 C 0.11173 0.85397 0.89902 0.0
C741 C 0.1352 0.87525 0.88678 0.0
C742 C 0.08074 0.84722 0.89716 0.0
C743 C 0.07238 0.86135 0.88294 0.0
C744 C 0.09585 0.88316 0.87097 0.0
H745 H 0.87929 0.79408 0.8483 0.0
H746 H 0.93487 0.80999 0.84943 0.0
C747 C 0.12692 0.89 0.87284 0.0
C748 C 0.03922 0.85346 0.88064 0.0
H749 H 0.96518 0.79224 0.87364 0.0
C750 C 0.03187 0.8775 0.88203 0.0
C751 C 1.01489 0.82245 0.87712 0.0
C752 C 1.02138 0.79586 0.87434 0.0
C753 C 1.00085 0.87126 0.88046 0.0
C754 C 0.97636 0.84003 0.87775 0.0
C755 C 0.98383 0.81613 0.87591 0.0
C756 C 0.94283 0.83151 0.87683 0.0
C757 C 0.99469 0.89829 0.88145 0.0
C758 C 0.92862 0.83809 0.8919 0.0
C759 C 0.89683 0.82905 0.89128 0.0
C760 C 0.87839 0.81288 0.87566 0.0
C761 C 0.89268 0.80627 0.86061 0.0
C762 C 0.92451 0.81544 0.8612 0.0
H763 H 1.01598 0.92089 0.87793 0.0
H764 H 0.97563 0.89477 0.87175 0.0
H765 H 0.98753 0.90014 0.89594 0.0
H766 H 0.94195 0.84967 0.90434 0.0
H767 H 0.88651 0.834 0.90328 0.0
H768 H 0.754 0.92537 0.63302 0.0
H769 H 0.80112 0.97639 0.63581 0.0
H770 H 0.85781 0.93558 0.62121 0.0
H771 H 0.81038 0.88378 0.61843 0.0
H772 H 0.85675 0.99071 0.66062 0.0
H773 H 0.88305 1.01384 0.58427 0.0
H774 H 0.84404 0.98681 0.59264 0.0
H775 H 0.87388 0.97628 0.59379 0.0
C776 C 0.77638 0.92702 0.63031 0.0
C777 C 0.77827 0.90032 0.62541 0.0
C778 C 0.80335 0.95631 0.63197 0.0
C779 C 0.83291 0.95982 0.62863 0.0
C780 C 0.83514 0.93338 0.62372 0.0
H781 H 1.00576 0.14342 0.62339 0.0
H782 H 0.96956 0.08681 0.62229 0.0
C783 C 0.80803 0.90381 0.62217 0.0
C784 C 0.86109 0.99135 0.63056 0.0
H785 H 0.91358 0.05485 0.60507 0.0
C786 C 0.86948 1.00464 0.64851 0.0
C787 C 0.87773 1.00936 0.61476 0.0
C788 C 0.86936 0.9961 0.59521 0.0
C789 C 0.89359 0.03576 0.65105 0.0
C790 C 0.90916 0.05444 0.63516 0.0
C791 C 0.90159 0.04067 0.61726 0.0
C792 C 0.9319 0.08867 0.63672 0.0
C793 C 0.90207 0.04826 0.67077 0.0
C794 C 0.92288 0.10871 0.64514 0.0
C795 C 0.94362 0.14102 0.646 0.0
C796 C 0.97386 0.15427 0.63822 0.0
C797 C 0.9829 0.13411 0.62981 0.0
C798 C 0.96211 0.1017 0.62902 0.0
H799 H 0.89629 0.02909 0.681 0.0
H800 H 0.92735 0.06579 0.67197 0.0
H801 H 0.88837 0.05967 0.67474 0.0
H802 H 0.8995 0.09944 0.6508 0.0
H803 H 0.93586 0.15564 0.65275 0.0
H804 H 0.11962 0.23981 0.87027 0.0
H805 H 0.13086 0.19676 0.86844 0.0
H806 H 0.20817 0.24582 0.90651 0.0
H807 H 0.19678 0.28853 0.90872 0.0
H808 H 0.18325 0.1971 0.85608 0.0
H809 H 0.16269 0.16025 0.93058 0.0
H810 H 0.15062 0.18626 0.92072 0.0
H811 H 0.19058 0.20113 0.92779 0.0
C812 C 0.13888 0.24135 0.87838 0.0
C813 C 0.15716 0.26762 0.88974 0.0
C814 C 0.14529 0.2167 0.8773 0.0
C815 C 0.17003 0.21772 0.88759 0.0
C816 C 0.18844 0.24402 0.89882 0.0
H817 H 0.26319 0.10857 0.89441 0.0
H818 H 0.24681 0.14789 0.8967 0.0
C819 C 0.18198 0.26858 0.89998 0.0
C820 C 0.17743 0.19194 0.88605 0.0
H821 H 0.18896 0.14013 0.91194 0.0
C822 C 0.18419 0.18444 0.86827 0.0
C823 C 0.17866 0.17534 0.90196 0.0
C824 C 0.16994 0.1809 0.92131 0.0
C825 C 0.193 0.16153 0.86605 0.0
C826 C 0.19482 0.14542 0.882 0.0
C827 C 0.18772 0.15262 0.89974 0.0
C828 C 0.20447 0.12132 0.88058 0.0
C829 C 0.20116 0.15533 0.84671 0.0
C830 C 0.18593 0.09314 0.87094 0.0
C831 C 0.19523 0.0706 0.86959 0.0
C832 C 0.22333 0.0758 0.87785 0.0
C833 C 0.24167 0.10398 0.88765 0.0
C834 C 0.23225 0.1264 0.88908 0.0
H835 H 0.205 0.17411 0.8366 0.0
H836 H 0.22256 0.15326 0.84713 0.0
H837 H 0.18167 0.13285 0.84141 0.0
H838 H 0.16419 0.08853 0.86448 0.0
H839 H 0.18064 0.04929 0.86184 0.0
H840 H 0.11448 0.83328 0.63132 0.0
H841 H 0.06332 0.8289 0.63453 0.0
H842 H 0.10168 0.92436 0.61581 0.0
H843 H 0.15352 0.9291 0.61249 0.0
H844 H 0.04921 0.87097 0.65776 0.0
H845 H 1.02198 0.86821 0.58171 0.0
H846 H 0.0504 0.85816 0.59005 0.0
H847 H 0.05957 0.89824 0.59008 0.0
C848 C 0.11223 0.85343 0.62776 0.0
C849 C 0.13829 0.88159 0.6216 0.0
C850 C 0.08287 0.85085 0.62968 0.0
C851 C 0.07863 0.8762 0.62534 0.0
C852 C 0.10442 0.90441 0.61911 0.0
H853 H 0.89528 0.86577 0.62252 0.0
H854 H 0.95161 0.88549 0.62021 0.0
C855 C 0.13405 0.90712 0.61729 0.0
C856 C 0.04707 0.87267 0.62767 0.0
H857 H 0.98235 0.85999 0.60316 0.0
C858 C 0.03468 0.86892 0.64584 0.0
C859 C 0.02825 0.8702 0.61212 0.0
C860 C 0.04046 0.87376 0.59233 0.0
C861 C 1.00374 0.8621 0.64888 0.0
C862 C 0.98428 0.85798 0.63329 0.0
C863 C 0.99712 0.86294 0.61512 0.0
C864 C 0.95023 0.84686 0.63548 0.0
C865 C 0.99227 0.85942 0.66881 0.0
C866 C 0.93053 0.8185 0.64476 0.0
C867 C 0.89839 0.80737 0.64633 0.0
C868 C 0.88494 0.82405 0.63839 0.0
C869 C 0.90475 0.85249 0.62908 0.0
C870 C 0.93699 0.8637 0.6276 0.0
H871 H 1.01194 0.87343 0.67856 0.0
H872 H 0.97489 0.86738 0.67008 0.0
H873 H 0.98103 0.83458 0.67336 0.0
H874 H 0.93992 0.80463 0.65057 0.0
H875 H 0.88407 0.78557 0.65376 0.0
H876 H 0.92157 0.15211 0.87117 0.0
H877 H 0.88457 0.0963 0.87505 0.0
H878 H 0.95609 0.0841 0.90172 0.0
H879 H 0.99288 0.14028 0.89881 0.0
H880 H 0.88627 0.04645 0.86097 0.0
H881 H 0.88535 0.04038 0.93881 0.0
H882 H 0.90264 0.0771 0.92624 0.0
H883 H 0.92343 0.05594 0.9284 0.0
C884 C 0.92939 0.13778 0.8782 0.0
C885 C 0.96031 0.151 0.88481 0.0
C886 C 0.90821 0.1057 0.88025 0.0
C887 C 0.9173 0.08593 0.88893 0.0
C888 C 0.94822 0.09888 0.89534 0.0
H889 H 0.80176 0.87974 0.903 0.0
H890 H 0.84753 0.93293 0.9011 0.0
C891 C 0.96941 0.13105 0.89341 0.0
C892 C 0.89448 0.05173 0.89077 0.0
H893 H 0.85598 0.99243 0.92263 0.0
C894 C 0.87982 0.03468 0.87447 0.0
C895 C 0.88604 0.03618 0.90837 0.0
C896 C 0.89994 0.05334 0.92648 0.0
C897 C 0.85668 1.00286 0.87531 0.0
C898 C 0.84781 0.98758 0.8929 0.0
C899 C 0.86304 1.0042 0.90916 0.0
C900 C 0.82056 0.9554 0.89472 0.0
C901 C 0.8414 0.98583 0.8574 0.0
C902 C 0.79036 0.95056 0.89205 0.0
C903 C 0.76434 0.92049 0.89323 0.0
C904 C 0.76783 0.89434 0.89706 0.0
C905 C 0.79819 0.89927 0.89999 0.0
C906 C 0.82435 0.92962 0.89893 0.0
H907 H 0.85519 0.99866 0.84481 0.0
H908 H 0.8384 0.96194 0.85744 0.0
H909 H 0.81784 0.98335 0.85629 0.0
H910 H 0.78691 0.97015 0.88895 0.0
H911 H 0.74145 0.91781 0.8909 0.0
H912 H 0.39383 0.13752 0.32863 0.0
H913 H 0.39932 0.14669 0.29487 0.0
H914 H 0.36591 0.21222 0.30037 0.0
H915 H 0.36159 0.20397 0.33446 0.0
H916 H 0.35355 0.1316 0.27194 0.0
H917 H 0.43539 0.25881 0.26344 0.0
H918 H 0.43027 0.23882 0.28551 0.0
H919 H 0.40271 0.25056 0.27826 0.0
C920 C 0.38824 0.15439 0.32271 0.0
C921 C 0.37719 0.16997 0.33421 0.0
C922 C 0.39139 0.15962 0.30337 0.0
C923 C 0.38321 0.18028 0.29493 0.0
C924 C 0.3731 0.19671 0.30648 0.0
H925 H 0.31683 0.15194 0.18054 0.0
H926 H 0.32369 0.15943 0.21439 0.0
C927 C 0.37047 0.19187 0.32598 0.0
C928 C 0.38221 0.1818 0.27402 0.0
H929 H 0.4063 0.23131 0.23616 0.0
C930 C 0.36533 0.15347 0.26418 0.0
C931 C 0.39778 0.21022 0.26373 0.0
C932 C 0.41782 0.2413 0.27325 0.0
C933 C 0.36325 0.1527 0.24454 0.0
C934 C 0.37755 0.18116 0.23429 0.0
C935 C 0.39497 0.20954 0.24401 0.0
C936 C 0.37416 0.18145 0.21353 0.0
C937 C 0.34611 0.12119 0.23497 0.0
C938 C 0.40039 0.1932 0.20159 0.0
C939 C 0.39654 0.18946 0.18205 0.0
C940 C 0.36637 0.17369 0.17422 0.0
C941 C 0.34036 0.16376 0.18616 0.0
C942 C 0.34423 0.16791 0.20554 0.0
H943 H 0.3449 0.10223 0.24401 0.0
H944 H 0.32177 0.11546 0.23194 0.0
H945 H 0.35759 0.12131 0.22152 0.0
H946 H 0.42374 0.20396 0.20742 0.0
H947 H 0.41701 0.19732 0.1732 0.0
H948 H 0.82739 0.62426 0.34193 0.0
H949 H 0.83085 0.61603 0.30819 0.0
H950 H 0.8445 0.70794 0.29666 0.0
H951 H 0.84155 0.71651 0.32998 0.0
H952 H 0.79268 0.61523 0.28007 0.0
H953 H 0.91365 0.70903 0.26555 0.0
H954 H 0.89948 0.69582 0.28908 0.0
H955 H 0.89217 0.72417 0.27768 0.0
C956 C 0.83157 0.64286 0.33221 0.0
C957 C 0.83428 0.67108 0.33874 0.0
C958 C 0.83351 0.63811 0.31293 0.0
C959 C 0.83854 0.6616 0.29988 0.0
C960 C 0.84145 0.68978 0.30643 0.0
H961 H 0.77936 0.66475 0.19021 0.0
H962 H 0.78597 0.65756 0.22325 0.0
C963 C 0.83948 0.69452 0.32557 0.0
C964 C 0.83853 0.65632 0.2793 0.0
H965 H 0.87823 0.69176 0.23902 0.0
C966 C 0.81167 0.63159 0.27111 0.0
C967 C 0.86351 0.67722 0.26755 0.0
C968 C 0.89396 0.70283 0.27545 0.0
C969 C 0.80819 0.62862 0.25152 0.0
C970 C 0.83195 0.65129 0.23979 0.0
C971 C 0.85977 0.67461 0.24796 0.0
C972 C 0.82711 0.65319 0.21932 0.0
C973 C 0.77874 0.60155 0.2436 0.0
C974 C 0.84838 0.6537 0.20595 0.0
C975 C 0.84479 0.65807 0.18683 0.0
C976 C 0.82007 0.66242 0.18079 0.0
C977 C 0.79867 0.66144 0.19424 0.0
C978 C 0.80223 0.65703 0.21323 0.0
H979 H 0.76888 0.58109 0.25326 0.0
H980 H 0.76088 0.60874 0.24185 0.0
H981 H 0.7831 0.59418 0.22973 0.0
H982 H 0.86795 0.65109 0.21033 0.0
H983 H 0.86178 0.65882 0.17688 0.0
H984 H 0.83145 0.21634 0.17664 0.0
H985 H 0.82195 0.21535 0.21063 0.0
H986 H 0.90195 0.20452 0.22124 0.0
H987 H 0.91162 0.20543 0.18771 0.0
H988 H 0.81486 0.16773 0.24009 0.0
H989 H 0.91835 0.28583 0.25007 0.0
H990 H 0.8999 0.27193 0.22752 0.0
H991 H 0.92615 0.25974 0.23651 0.0
C992 C 0.84684 0.21348 0.18622 0.0
C993 C 0.87248 0.21126 0.17938 0.0
C994 C 0.84136 0.21292 0.20562 0.0
C995 C 0.86153 0.21031 0.21844 0.0
C996 C 0.88636 0.20699 0.21161 0.0
H997 H 0.9068 0.19953 0.32984 0.0
H998 H 0.89786 0.19979 0.29635 0.0
C999 C 0.8918 0.20747 0.19236 0.0
C1000 C 0.85779 0.21202 0.23903 0.0
H1001 H 0.89801 0.25391 0.27752 0.0
C1002 C 0.83261 0.18686 0.24831 0.0
C1003 C 0.88092 0.23707 0.2497 0.0
C1004 C 0.90773 0.26535 0.24046 0.0
C1005 C 0.83112 0.18523 0.26807 0.0
C1006 C 0.85532 0.20942 0.27868 0.0
C1007 C 0.87952 0.23532 0.26936 0.0
C1008 C 0.8582 0.20682 0.29926 0.0
C1009 C 0.80479 0.15691 0.27752 0.0
C1010 C 0.83854 0.21034 0.31214 0.0
C1011 C 0.84364 0.21028 0.33154 0.0
C1012 C 0.86852 0.20678 0.33831 0.0
C1013 C 0.88748 0.20243 0.32526 0.0
C1014 C 0.88243 0.20255 0.30603 0.0
H1015 H 0.78876 0.13922 0.26725 0.0
H1016 H 0.81444 0.1458 0.28688 0.0
H1017 H 0.79108 0.16427 0.28637 0.0
H1018 H 0.81985 0.21393 0.30718 0.0
H1019 H 0.82866 0.21379 0.34118 0.0
H1020 H 0.13425 0.3137 0.68524 0.0
H1021 H 0.14427 0.32157 0.71877 0.0
H1022 H 0.2292 0.40876 0.70796 0.0
H1023 H 0.21907 0.40135 0.67412 0.0
H1024 H 0.19366 0.32845 0.7404 0.0
H1025 H 0.18187 0.4349 0.74409 0.0
H1026 H 0.17022 0.40989 0.72372 0.0
H1027 H 0.21092 0.43667 0.72809 0.0
C1028 C 0.15517 0.33458 0.68988 0.0
C1029 C 0.17573 0.35702 0.6769 0.0
C1030 C 0.1609 0.33898 0.70913 0.0
C1031 C 0.18726 0.36592 0.71595 0.0
C1032 C 0.20839 0.38804 0.70306 0.0
H1033 H 0.2162 0.36983 0.83921 0.0
H1034 H 0.22889 0.37546 0.80555 0.0
C1035 C 0.20264 0.38368 0.6837 0.0
C1036 C 0.19167 0.37073 0.73658 0.0
H1037 H 0.18941 0.41553 0.77249 0.0
C1038 C 0.19321 0.34774 0.74744 0.0
C1039 C 0.19086 0.39581 0.74573 0.0
C1040 C 0.18815 0.42066 0.73489 0.0
C1041 C 0.19268 0.34842 0.76716 0.0
C1042 C 0.1911 0.37309 0.77631 0.0
C1043 C 0.19086 0.39677 0.76546 0.0
C1044 C 0.18549 0.37253 0.79688 0.0
C1045 C 0.19197 0.32175 0.778 0.0
C1046 C 0.15749 0.37018 0.80324 0.0
C1047 C 0.15031 0.36718 0.82234 0.0
C1048 C 0.171 0.36652 0.83566 0.0
C1049 C 0.19968 0.37011 0.82936 0.0
C1050 C 0.20687 0.37312 0.81011 0.0
H1051 H 0.18785 0.3019 0.76875 0.0
H1052 H 0.21474 0.33023 0.78515 0.0
H1053 H 0.17336 0.31295 0.7889 0.0
H1054 H 0.14065 0.36975 0.79334 0.0
H1055 H 0.12811 0.36474 0.8266 0.0
H1056 H 0.2642 0.89964 0.82619 0.0
H1057 H 0.25732 0.88709 0.79299 0.0
H1058 H 0.17135 0.80146 0.80483 0.0
H1059 H 0.17773 0.8143 0.83847 0.0
H1060 H 0.25214 0.83821 0.7721 0.0
H1061 H 0.14318 0.84517 0.76758 0.0
H1062 H 0.16795 0.85807 0.78801 0.0
H1063 H 0.14258 0.81697 0.78381 0.0
C1064 C 0.24381 0.87799 0.82188 0.0
C1065 C 0.22128 0.85818 0.83508 0.0
C1066 C 0.24001 0.87078 0.80279 0.0
C1067 C 0.21358 0.8436 0.79629 0.0
C1068 C 0.19166 0.82291 0.80945 0.0
H1069 H 0.21239 0.81518 0.67284 0.0
H1070 H 0.20823 0.80302 0.70652 0.0
C1071 C 0.19545 0.83015 0.8287 0.0
C1072 C 0.20892 0.83839 0.77565 0.0
H1073 H 0.16409 0.83916 0.73939 0.0
C1074 C 0.23262 0.83788 0.76494 0.0
C1075 C 0.18357 0.83825 0.76629 0.0
C1076 C 0.15793 0.83986 0.77692 0.0
C1077 C 0.23243 0.83868 0.7452 0.0
C1078 C 0.20753 0.83942 0.73585 0.0
C1079 C 0.18309 0.83845 0.74655 0.0
C1080 C 0.20826 0.84512 0.71525 0.0
C1081 C 0.25987 0.84066 0.73458 0.0
C1082 C 0.20874 0.87229 0.70887 0.0
C1083 C 0.21086 0.87914 0.68973 0.0
C1084 C 0.21251 0.85897 0.67637 0.0
C1085 C 0.21133 0.83133 0.68271 0.0
C1086 C 0.20913 0.82443 0.70199 0.0
H1087 H 0.27978 0.84573 0.74397 0.0
H1088 H 0.25248 0.81797 0.7275 0.0
H1089 H 0.26816 0.85918 0.72364 0.0
H1090 H 0.20809 0.88863 0.71878 0.0
H1091 H 0.21161 0.90061 0.68548 0.0
H1092 H 0.63297 0.81443 0.67743 0.0
H1093 H 0.62533 0.81825 0.71123 0.0
H1094 H 0.71927 0.83744 0.72172 0.0
H1095 H 0.72714 0.83375 0.68828 0.0
H1096 H 0.63132 0.78157 0.74095 0.0
H1097 H 0.71455 0.90834 0.74978 0.0
H1098 H 0.69911 0.89087 0.72718 0.0
H1099 H 0.73107 0.8883 0.73737 0.0
C1100 C 0.65208 0.81973 0.68693 0.0
C1101 C 0.6807 0.82386 0.68008 0.0
C1102 C 0.64764 0.82184 0.70624 0.0
C1103 C 0.67188 0.82857 0.71898 0.0
C1104 C 0.70042 0.83279 0.71214 0.0
H1105 H 0.72332 0.8344 0.8313 0.0
H1106 H 0.71656 0.83818 0.79783 0.0
C1107 C 0.7048 0.83048 0.69297 0.0
C1108 C 0.66744 0.83 0.73953 0.0
H1109 H 0.70065 0.87688 0.77771 0.0
C1110 C 0.64596 0.80255 0.74901 0.0
C1111 C 0.6865 0.85742 0.75 0.0
C1112 C 0.7089 0.888 0.74056 0.0
C1113 C 0.64458 0.80124 0.76876 0.0
C1114 C 0.6649 0.82825 0.77925 0.0
C1115 C 0.68513 0.85614 0.7697 0.0
C1116 C 0.66838 0.82716 0.79994 0.0
C1117 C 0.62283 0.77046 0.77824 0.0
C1118 C 0.64365 0.82023 0.81246 0.0
C1119 C 0.64744 0.81801 0.83184 0.0
C1120 C 0.67602 0.82265 0.83899 0.0
C1121 C 0.70088 0.83043 0.82638 0.0
C1122 C 0.69711 0.83271 0.80716 0.0
H1123 H 0.61232 0.75068 0.76813 0.0
H1124 H 0.63546 0.76512 0.78918 0.0
H1125 H 0.60356 0.7721 0.78521 0.0
H1126 H 0.62141 0.81636 0.80724 0.0
H1127 H 0.62785 0.81204 0.84114 0.0
H1128 H 0.21692 0.95815 0.93581 0.0
H1129 H 0.23733 0.9932 0.96267 0.0
H1130 H 0.28349 0.94387 0.98216 0.0
H1131 H 0.26335 0.90865 0.95491 0.0
H1132 H 0.23167 0.98415 1.00085 0.0
H1133 H 0.35565 0.03434 0.97883 0.0
H1134 H 0.32338 1.01001 0.96357 0.0
H1135 H 0.33468 0.99254 0.98183 0.0
C1136 C 0.23118 0.95443 0.94586 0.0
C1137 C 0.23864 0.9306 0.94307 0.0
C1138 C 0.24286 0.97461 0.96127 0.0
C1139 C 0.26253 0.97174 0.97429 0.0
C1140 C 0.26891 0.94705 0.97209 0.0
H1141 H 0.36085 0.07572 0.07304 0.0
H1142 H 0.34033 0.04153 0.04583 0.0
C1143 C 0.25708 0.92666 0.95662 0.0
C1144 C 0.27667 0.99514 0.98981 0.0
H1145 H 0.34649 0.05188 0.00777 0.0
C1146 C 0.25678 0.99899 1.00233 0.0
C1147 C 0.30945 1.01479 0.99171 0.0
C1148 C 0.33211 1.01303 0.9782 0.0
C1149 C 0.26871 0.0213 0.01689 0.0
C1150 C 0.3015 0.04087 0.01883 0.0
C1151 C 0.32138 0.03709 1.00626 0.0
C1152 C 0.31568 0.06383 0.03456 0.0
C1153 C 0.24608 0.02307 0.03042 0.0
C1154 C 0.30964 0.08869 0.0371 0.0
C1155 C 0.32157 0.10861 0.05279 0.0
C1156 C 0.3397 0.10395 0.06621 0.0
C1157 C 0.3468 0.07994 0.06309 0.0
C1158 C 0.33506 0.06028 0.04748 0.0
H1159 H 0.2224 1.00199 0.0296 0.0
H1160 H 0.25461 0.02558 0.04507 0.0
H1161 H 0.24391 0.04387 0.027 0.0
H1162 H 0.29527 0.09238 0.02713 0.0
H1163 H 0.31558 0.12678 0.05477 0.0
H1164 H 0.84573 0.72916 0.45845 0.0
H1165 H 0.83278 0.75165 0.48552 0.0
H1166 H 0.73665 0.70683 0.46743 0.0
H1167 H 0.74946 0.68509 0.44044 0.0
H1168 H 0.7582 0.7676 0.47554 0.0
H1169 H 0.78687 0.71149 0.53385 0.0
H1170 H 0.81832 0.73356 0.51767 0.0
H1171 H 0.78389 0.69876 0.50984 0.0
C1172 C 0.82175 0.72366 0.46049 0.0
C1173 C 0.79865 0.70525 0.44729 0.0
C1174 C 0.81434 0.73656 0.47596 0.0
C1175 C 0.78363 0.7309 0.47862 0.0
C1176 C 0.76052 0.71178 0.4657 0.0
H1177 H 0.68827 0.74278 0.57562 0.0
H1178 H 0.70961 0.72969 0.54853 0.0
C1179 C 0.7679 0.69919 0.45027 0.0
C1180 C 0.77517 0.74533 0.4944 0.0
H1181 H 0.76992 0.74686 0.54218 0.0
C1182 C 0.76095 0.76323 0.49013 0.0
C1183 C 0.77857 0.73956 0.51346 0.0
C1184 C 0.79249 0.71959 0.51907 0.0
C1185 C 0.74933 0.7747 0.50426 0.0
C1186 C 0.75251 0.76872 0.52331 0.0
C1187 C 0.76752 0.75158 0.5276 0.0
C1188 C 0.7382 0.77753 0.53899 0.0
C1189 C 0.7325 0.7919 0.49861 0.0
C1190 C 0.74648 0.80888 0.54257 0.0
C1191 C 0.73383 0.81648 0.55809 0.0
C1192 C 0.71304 0.7929 0.57042 0.0
C1193 C 0.70426 0.76158 0.56646 0.0
C1194 C 0.7166 0.75403 0.55098 0.0
H1195 H 0.72582 0.78834 0.48355 0.0
H1196 H 0.71104 0.78412 0.50719 0.0
H1197 H 0.74812 0.81738 0.50093 0.0
H1198 H 0.76346 0.82757 0.53374 0.0
H1199 H 0.74142 0.84085 0.56091 0.0
H1200 H 0.07912 0.26913 0.93985 0.0
H1201 H 0.04472 0.25553 0.96704 0.0
H1202 H 0.09018 0.35283 0.9831 0.0
H1203 H 0.12471 0.36682 0.95549 0.0
H1204 H 0.05474 0.26334 1.00513 0.0
H1205 H 0.99815 0.32932 0.97936 0.0
H1206 H 0.02335 0.32146 0.96474 0.0
H1207 H 0.0399 0.35224 0.9819 0.0
C1208 C 0.08214 0.28773 0.94924 0.0
C1209 C 0.1046 0.31917 0.94537 0.0
C1210 C 0.06236 0.27984 0.96482 0.0
C1211 C 0.06429 0.30315 0.97694 0.0
C1212 C 0.08775 0.33446 0.97372 0.0
H1213 H 0.95954 0.30003 0.07492 0.0
H1214 H 0.99316 0.31322 0.04735 0.0
C1215 C 0.10776 0.34242 0.95807 0.0
C1216 C 0.04108 0.29436 0.99253 0.0
H1217 H 0.98193 0.30506 0.00908 0.0
C1218 C 0.03879 0.27244 1.00598 0.0
C1219 C 1.02002 0.30597 0.99357 0.0
C1220 C 1.02016 0.32833 0.97906 0.0
C1221 C 1.01659 0.26237 0.02061 0.0
C1222 C 0.99559 0.27404 0.02167 0.0
C1223 C 0.99784 0.29592 0.00821 0.0
C1224 C 0.97266 0.26555 0.03739 0.0
C1225 C 1.01641 0.23998 0.03512 0.0
C1226 C 0.94893 0.23437 0.04069 0.0
C1227 C 0.92934 0.22668 0.05653 0.0
C1228 C 0.93327 0.25006 0.06934 0.0
C1229 C 0.95597 0.28138 0.06541 0.0
C1230 C 0.97529 0.28901 0.04962 0.0
H1231 H 0.03819 0.23859 0.03465 0.0
H1232 H 1.01369 0.24715 0.04946 0.0
H1233 H 0.99634 0.21619 0.03246 0.0
H1234 H 0.94602 0.21589 0.03124 0.0
H1235 H 0.91221 0.20235 0.0592 0.0
H1236 H 0.37026 0.12267 0.45607 0.0
H1237 H 0.35419 0.08704 0.48326 0.0
H1238 H 0.26104 0.03415 0.46067 0.0
H1239 H 0.27673 0.06905 0.43367 0.0
H1240 H 0.30616 0.06947 0.51047 0.0
H1241 H 0.28513 0.96671 0.46777 0.0
H1242 H 0.30629 1.00629 0.45885 0.0
H1243 H 0.26423 0.9856 0.45973 0.0
C1244 C 0.34628 0.10368 0.45703 0.0
C1245 C 0.32494 0.0987 0.44255 0.0
C1246 C 0.33714 0.08321 0.47254 0.0
C1247 C 0.30656 0.05735 0.47381 0.0
C1248 C 0.28496 0.05332 0.45981 0.0
H1249 H 0.20552 0.90313 0.55449 0.0
H1250 H 0.22041 0.93839 0.52712 0.0
C1251 C 0.29401 0.07357 0.44439 0.0
C1252 C 0.29702 0.03438 0.48963 0.0
H1253 H 0.26788 0.95655 0.49947 0.0
C1254 C 0.29799 0.04483 0.50806 0.0
C1255 C 0.28606 1.00208 0.48654 0.0
C1256 C 0.28559 0.98947 0.46718 0.0
C1257 C 0.28789 0.02393 0.52339 0.0
C1258 C 0.27706 0.99165 0.52031 0.0
C1259 C 0.27599 0.98117 0.50187 0.0
C1260 C 0.26814 0.96884 0.53617 0.0
C1261 C 0.28832 0.03655 0.54274 0.0
C1262 C 0.2902 0.97341 0.54999 0.0
C1263 C 0.28181 0.9534 0.56549 0.0
C1264 C 0.25113 0.92797 0.5676 0.0
C1265 C 0.22933 0.9224 0.55331 0.0
C1266 C 0.2378 0.94265 0.53771 0.0
H1267 H 0.28829 0.05907 0.54212 0.0
H1268 H 0.26785 0.01955 0.55117 0.0
H1269 H 0.30992 0.04092 0.5501 0.0
H1270 H 0.31396 0.99283 0.54892 0.0
H1271 H 0.29941 0.95832 0.57606 0.0
H1272 H 0.77631 0.66578 0.061 0.0
H1273 H 0.75565 0.67982 0.03362 0.0
H1274 H 0.80505 0.77669 0.0507 0.0
H1275 H 0.8253 0.76291 0.07798 0.0
H1276 H 0.74376 0.75659 0.04329 0.0
H1277 H 0.79602 0.7241 0.98461 0.0
H1278 H 0.77453 0.6931 1.00117 0.0
H1279 H 0.80959 0.72777 0.00847 0.0
C1280 C 0.78332 0.69014 0.05867 0.0
C1281 C 0.80251 0.71316 0.07172 0.0
C1282 C 0.77147 0.69818 0.043 0.0
C1283 C 0.77885 0.72941 0.03999 0.0
C1284 C 0.79887 0.75246 0.05268 0.0
H1285 H 0.72435 0.82778 0.9584 0.0
H1286 H 0.74537 0.81446 0.98595 0.0
C1287 C 0.81056 0.74448 0.06828 0.0
C1288 C 0.76458 0.73814 0.02431 0.0
H1289 H 0.75797 0.73803 0.97658 0.0
C1290 C 0.74697 0.75262 0.02869 0.0
C1291 C 0.76875 0.73307 1.00524 0.0
C1292 C 0.78847 0.71893 0.99951 0.0
C1293 C 0.73299 0.76158 0.01461 0.0
C1294 C 0.73709 0.75644 0.99554 0.0
C1295 C 0.75477 0.74203 0.99117 0.0
C1296 C 0.72251 0.76478 0.97986 0.0
C1297 C 0.71327 0.77573 0.02033 0.0
C1298 C 0.70254 0.74144 0.9673 0.0
C1299 C 0.6907 0.74902 0.95161 0.0
C1300 C 0.6985 0.7802 0.94797 0.0
C1301 C 0.71755 0.80351 0.96091 0.0
C1302 C 0.7296 0.79588 0.97666 0.0
H1303 H 0.70593 0.77079 0.03528 0.0
H1304 H 0.72713 0.80153 0.01851 0.0
H1305 H 0.69203 0.76668 0.01147 0.0
H1306 H 0.69657 0.7173 0.96943 0.0
H1307 H 0.67603 0.73041 0.94199 0.0
H1308 H 0.08588 0.35159 0.57364 0.0
H1309 H 0.05028 0.32871 0.54727 0.0
H1310 H 0.09701 0.27816 0.53106 0.0
H1311 H 0.13348 0.30169 0.55754 0.0
H1312 H 0.08177 0.30163 0.50059 0.0
H1313 H 0.97773 0.23987 0.54624 0.0
H1314 H 0.99893 0.28105 0.55115 0.0
H1315 H 1.01709 0.2577 0.55525 0.0
C1316 C 0.08887 0.33581 0.5644 0.0
C1317 C 0.11246 0.32833 0.5678 0.0
C1318 C 0.06821 0.32246 0.5494 0.0
C1319 C 0.07018 0.30085 0.53749 0.0
C1320 C 0.0947 0.29444 0.54022 0.0
H1321 H 0.9151 0.19315 0.45741 0.0
H1322 H 0.95146 0.20605 0.48396 0.0
C1323 C 0.11568 0.30806 0.55526 0.0
C1324 C 0.0466 0.28541 0.52224 0.0
H1325 H 0.96772 0.24624 0.51392 0.0
C1326 C 0.05686 0.28918 0.50354 0.0
C1327 C 1.01398 0.26841 0.52599 0.0
C1328 C 1.00128 0.2612 0.54576 0.0
C1329 C 0.03549 0.27807 0.48854 0.0
C1330 C 1.0029 0.26338 0.49227 0.0
C1331 C 0.99262 0.25797 0.51098 0.0
C1332 C 0.97947 0.2553 0.47694 0.0
C1333 C 0.04813 0.28236 0.4688 0.0
C1334 C 0.98219 0.27879 0.46467 0.0
C1335 C 0.9616 0.27151 0.44964 0.0
C1336 C 0.93734 0.24056 0.44656 0.0
C1337 C 0.93343 0.21722 0.45943 0.0
C1338 C 0.95434 0.22455 0.47452 0.0
H1339 H 0.07135 0.28387 0.46853 0.0
H1340 H 0.03193 0.26282 0.45956 0.0
H1341 H 0.05116 0.3046 0.46297 0.0
H1342 H 1.00062 0.30285 0.46655 0.0
H1343 H 0.96515 0.2902 0.44015 0.0
H1344 H 0.6902 0.21126 0.10107 0.0
H1345 H 0.63665 0.20108 0.10491 0.0
H1346 H 0.61669 0.12546 0.14312 0.0
H1347 H 0.67027 0.13552 0.13937 0.0
H1348 H 0.5821 0.14717 0.09627 0.0
H1349 H 0.58328 0.17373 0.17212 0.0
H1350 H 0.61867 0.18507 0.15895 0.0
H1351 H 0.59469 0.14525 0.16669 0.0
C1352 C 0.67447 0.19248 0.11033 0.0
C1353 C 0.68466 0.17425 0.11992 0.0
C1354 C 0.64385 0.18675 0.11256 0.0
C1355 C 0.62263 0.16273 0.12448 0.0
C1356 C 0.63274 0.1446 0.13419 0.0
H1357 H 0.42205 0.10107 0.14285 0.0
H1358 H 0.47285 0.1029 0.14377 0.0
C1359 C 0.66345 0.15038 0.13201 0.0
C1360 C 0.58964 0.15593 0.12592 0.0
H1361 H 0.53497 0.15429 0.15631 0.0
C1362 C 0.57183 0.14865 0.10943 0.0
C1363 C 0.576 0.15752 0.14312 0.0
C1364 C 0.59416 0.16606 0.16123 0.0
C1365 C 0.54113 0.14347 0.10958 0.0
C1366 C 0.52784 0.14601 0.12664 0.0
C1367 C 0.54517 0.15228 0.14326 0.0
C1368 C 0.49721 0.14507 0.12703 0.0
C1369 C 0.52319 0.13555 0.09139 0.0
C1370 C 0.49424 0.16848 0.11772 0.0
C1371 C 0.46553 0.16756 0.1172 0.0
C1372 C 0.43884 0.14318 0.12603 0.0
C1373 C 0.442 0.12009 0.13583 0.0
C1374 C 0.47101 0.12111 0.13638 0.0
H1375 H 0.53287 0.12602 0.08086 0.0
H1376 H 0.49807 0.11819 0.0937 0.0
H1377 H 0.5248 0.15714 0.08546 0.0
H1378 H 0.51423 0.1875 0.1107 0.0
H1379 H 0.46434 0.18602 0.10966 0.0
H1380 H 0.74761 0.57657 0.40573 0.0
H1381 H 0.69823 0.52772 0.40448 0.0
H1382 H 0.65898 0.57143 0.37015 0.0
H1383 H 0.70911 0.62121 0.37121 0.0
H1384 H 0.63986 0.51784 0.41736 0.0
H1385 H 0.63662 0.48919 0.34154 0.0
H1386 H 0.67225 0.51749 0.35302 0.0
H1387 H 0.64284 0.52741 0.34744 0.0
C1388 C 0.7287 0.57611 0.39779 0.0
C1389 C 0.73256 0.60316 0.38859 0.0
C1390 C 0.70032 0.54794 0.39712 0.0
C1391 C 0.67486 0.5457 0.38716 0.0
C1392 C 0.67844 0.57244 0.37774 0.0
H1393 H 0.49032 0.37343 0.37776 0.0
H1394 H 0.5337 0.42731 0.37398 0.0
C1395 C 0.70707 0.60094 0.37842 0.0
C1396 C 0.64461 0.51542 0.38747 0.0
H1397 H 0.59577 0.45211 0.36059 0.0
C1398 C 0.63008 0.50362 0.4049 0.0
C1399 C 0.63169 0.49686 0.37123 0.0
C1400 C 0.64662 0.50812 0.35221 0.0
C1401 C 0.60358 0.47362 0.40662 0.0
C1402 C 0.59148 0.45443 0.39052 0.0
C1403 C 0.60518 0.46668 0.37295 0.0
C1404 C 0.56555 0.42123 0.39192 0.0
C1405 C 0.58885 0.46269 0.42573 0.0
C1406 C 0.5692 0.39954 0.40284 0.0
C1407 C 0.54454 0.36873 0.40497 0.0
C1408 C 0.51555 0.35867 0.39615 0.0
C1409 C 0.5123 0.38018 0.38468 0.0
C1410 C 0.53706 0.41109 0.38256 0.0
H1411 H 0.59473 0.48277 0.43522 0.0
H1412 H 0.56299 0.44815 0.42471 0.0
H1413 H 0.59784 0.44827 0.4322 0.0
H1414 H 0.59119 0.40652 0.40983 0.0
H1415 H 0.54824 0.35274 0.41356 0.0
H1416 H 0.85167 0.29137 0.12179 0.0
H1417 H 0.85018 0.33986 0.12339 0.0
H1418 H 0.94535 0.38872 0.14325 0.0
H1419 H 0.94727 0.33984 0.14147 0.0
H1420 H 0.8588 0.37913 0.1537 0.0
H1421 H 0.94775 0.44178 0.0979 0.0
H1422 H 0.92975 0.40003 0.10149 0.0
H1423 H 0.95968 0.42664 0.11717 0.0
C1424 C 0.87244 0.31232 0.12651 0.0
C1425 C 0.89975 0.31159 0.13135 0.0
C1426 C 0.87145 0.34012 0.12747 0.0
C1427 C 0.89774 0.36811 0.13318 0.0
C1428 C 0.92491 0.36753 0.13847 0.0
H1429 H 0.9169 0.55579 0.13194 0.0
H1430 H 0.92658 0.51221 0.13722 0.0
C1431 C 0.92591 0.3395 0.13759 0.0
C1432 C 0.89614 0.39757 0.13336 0.0
H1433 H 0.92401 0.46836 0.11135 0.0
C1434 C 0.87325 0.39874 0.14454 0.0
C1435 C 0.91499 0.42324 0.12144 0.0
C1436 C 0.93931 0.42299 0.10869 0.0
C1437 C 0.86836 0.42451 0.14392 0.0
C1438 C 0.88644 0.44968 0.13152 0.0
C1439 C 0.91006 0.44904 0.1208 0.0
C1440 C 0.88028 0.47617 0.12888 0.0
C1441 C 0.84382 0.42453 0.15658 0.0
C1442 C 0.8511 0.47054 0.1223 0.0
C1443 C 0.84545 0.49539 0.11933 0.0
C1444 C 0.86889 0.52656 0.12279 0.0
C1445 C 0.89813 0.53211 0.12939 0.0
C1446 C 0.9038 0.50722 0.1323 0.0
H1447 H 0.83882 0.40881 0.16886 0.0
H1448 H 0.85122 0.44851 0.16173 0.0
H1449 H 0.82175 0.41597 0.1486 0.0
H1450 H 0.83273 0.44688 0.11923 0.0
H1451 H 0.82261 0.49014 0.11436 0.0
H1452 H 0.46266 0.18045 0.37574 0.0
H1453 H 0.51217 0.18118 0.37831 0.0
H1454 H 0.46501 0.09007 0.40454 0.0
H1455 H 0.41477 0.0889 0.40166 0.0
H1456 H 0.54077 0.18068 0.41032 0.0
H1457 H 0.52001 0.0789 0.36651 0.0
H1458 H 0.49459 0.09541 0.36586 0.0
H1459 H 0.49171 0.07005 0.38482 0.0
C1460 C 0.4626 0.16031 0.38188 0.0
C1461 C 0.43462 0.13461 0.38855 0.0
C1462 C 0.49106 0.16081 0.38335 0.0
C1463 C 0.49251 0.13568 0.39153 0.0
C1464 C 0.46453 0.10955 0.39785 0.0
H1465 H 0.65541 0.11706 0.41922 0.0
H1466 H 0.60256 0.109 0.41575 0.0
C1467 C 0.4358 0.10892 0.39625 0.0
C1468 C 0.52369 0.13817 0.39433 0.0
H1469 H 0.56791 0.10467 0.38313 0.0
C1470 C 0.54665 0.16403 0.40434 0.0
C1471 C 0.53146 0.11642 0.38663 0.0
C1472 C 0.50829 0.08875 0.37521 0.0
C1473 C 0.577 0.16882 0.40681 0.0
C1474 C 0.58495 0.14742 0.39884 0.0
C1475 C 0.56188 0.12118 0.38915 0.0
C1476 C 0.61714 0.15202 0.40043 0.0
C1477 C 0.6002 0.19662 0.41815 0.0
C1478 C 0.64302 0.17868 0.39272 0.0
C1479 C 0.67337 0.18347 0.39476 0.0
C1480 C 0.67857 0.16167 0.40455 0.0
C1481 C 0.65246 0.13466 0.4119 0.0
C1482 C 0.62213 0.12986 0.4098 0.0
H1483 H 0.58839 0.20592 0.42724 0.0
H1484 H 0.61461 0.19034 0.42713 0.0
H1485 H 0.61612 0.21563 0.40848 0.0
H1486 H 0.63976 0.19589 0.38515 0.0
H1487 H 0.69282 0.20457 0.38897 0.0
H1488 H 0.5422 0.34369 0.12359 0.0
H1489 H 0.58624 0.39706 0.1277 0.0
H1490 H 0.53398 0.4342 0.10026 0.0
H1491 H 0.48967 0.38113 0.09648 0.0
H1492 H 0.61999 0.4412 0.09928 0.0
H1493 H 0.56484 0.48739 0.14808 0.0
H1494 H 0.54867 0.44599 0.14387 0.0
H1495 H 0.54309 0.46989 0.12704 0.0
C1496 C 0.53987 0.36322 0.11866 0.0
C1497 C 0.51227 0.35796 0.10968 0.0
C1498 C 0.56517 0.39374 0.12093 0.0
C1499 C 0.56336 0.41977 0.11451 0.0
C1500 C 0.53583 0.41463 0.10563 0.0
H1501 H 0.70016 0.62231 0.11353 0.0
H1502 H 0.65222 0.57097 0.11042 0.0
C1503 C 0.5106 0.38415 0.10328 0.0
C1504 C 0.59073 0.45212 0.11638 0.0
H1505 H 0.61491 0.52401 0.13609 0.0
C1506 C 0.61888 0.45925 0.10739 0.0
C1507 C 0.58925 0.47588 0.12676 0.0
C1508 C 0.55995 0.46947 0.13714 0.0
C1509 C 0.64544 0.48935 0.1084 0.0
C1510 C 0.64423 0.51298 0.11912 0.0
C1511 C 0.61593 0.506 0.1279 0.0
C1512 C 0.6725 0.5445 0.12195 0.0
C1513 C 0.67445 0.49567 0.09768 0.0
C1514 C 0.69952 0.54692 0.13002 0.0
C1515 C 0.72679 0.57603 0.13172 0.0
C1516 C 0.72777 0.60371 0.12562 0.0
C1517 C 0.70026 0.60152 0.11834 0.0
C1518 C 0.67287 0.57216 0.11652 0.0
H1519 H 0.66876 0.479 0.08586 0.0
H1520 H 0.68693 0.51992 0.09201 0.0
H1521 H 0.69052 0.49275 0.10724 0.0
H1522 H 0.69966 0.52615 0.13484 0.0
H1523 H 0.74731 0.57671 0.13766 0.0
H1524 H 0.91398 0.54934 0.38025 0.0
H1525 H 0.92197 0.50478 0.3744 0.0
H1526 H 0.84185 0.44602 0.40895 0.0
H1527 H 0.83338 0.4902 0.41461 0.0
H1528 H 0.93243 0.46798 0.40124 0.0
H1529 H 0.82487 0.39558 0.35995 0.0
H1530 H 0.84029 0.43693 0.36394 0.0
H1531 H 0.81781 0.40891 0.38189 0.0
C1532 C 0.8978 0.52682 0.38641 0.0
C1533 C 0.87293 0.52335 0.39785 0.0
C1534 C 0.90254 0.50143 0.38314 0.0
C1535 C 0.8823 0.47195 0.39104 0.0
C1536 C 0.8575 0.46841 0.40246 0.0
H1537 H 0.85653 0.28998 0.40491 0.0
H1538 H 0.85573 0.33873 0.40305 0.0
C1539 C 0.85286 0.49379 0.40583 0.0
C1540 C 0.88741 0.44497 0.38781 0.0
H1541 H 0.85127 0.36964 0.37167 0.0
C1542 C 0.91493 0.4466 0.39454 0.0
C1543 C 0.86464 0.41717 0.37896 0.0
C1544 C 0.83536 0.41453 0.37059 0.0
C1545 C 0.91947 0.42059 0.39358 0.0
C1546 C 0.89611 0.39237 0.38537 0.0
C1547 C 0.86918 0.39122 0.37798 0.0
C1548 C 0.89748 0.36284 0.386 0.0
C1549 C 0.94848 0.42298 0.4022 0.0
C1550 C 0.92118 0.35987 0.37686 0.0
C1551 C 0.92181 0.33167 0.3779 0.0
C1552 C 0.8987 0.30597 0.3881 0.0
C1553 C 0.87489 0.30914 0.39699 0.0
C1554 C 0.87429 0.3371 0.39592 0.0
H1555 H 0.96144 0.44442 0.41088 0.0
H1556 H 0.94235 0.40217 0.41109 0.0
H1557 H 0.96431 0.42375 0.39087 0.0
H1558 H 0.93908 0.37926 0.36885 0.0
H1559 H 0.9404 0.33006 0.37082 0.0
H1560 H 0.11845 0.6477 0.61953 0.0
H1561 H 0.11123 0.59548 0.62502 0.0
H1562 H 0.21072 0.6329 0.61967 0.0
H1563 H 0.21815 0.68521 0.61421 0.0
H1564 H 0.12426 0.55957 0.60225 0.0
H1565 H 0.19256 0.58317 0.66767 0.0
H1566 H 0.18128 0.61015 0.65837 0.0
H1567 H 0.21488 0.60946 0.64906 0.0
C1568 C 0.13885 0.64488 0.61952 0.0
C1569 C 0.16893 0.6708 0.61643 0.0
C1570 C 0.13467 0.61496 0.62275 0.0
C1571 C 0.16044 0.61018 0.62306 0.0
C1572 C 0.1905 0.636 0.62 0.0
H1573 H 0.19711 0.45837 0.62085 0.0
H1574 H 0.19702 0.50771 0.62181 0.0
C1575 C 0.19473 0.66597 0.61684 0.0
C1576 C 0.15573 0.57803 0.62571 0.0
H1577 H 0.17974 0.53551 0.65165 0.0
C1578 C 0.13606 0.55421 0.61322 0.0
C1579 C 0.17097 0.57087 0.64007 0.0
C1580 C 0.19084 0.59467 0.65468 0.0
C1581 C 0.13232 0.52398 0.61419 0.0
C1582 C 0.14839 0.51718 0.62816 0.0
C1583 C 0.16741 0.54071 0.64095 0.0
C1584 C 0.14791 0.4867 0.6287 0.0
C1585 C 0.11225 0.49988 0.59977 0.0
C1586 C 0.12037 0.45829 0.63265 0.0
C1587 C 0.12032 0.42973 0.6322 0.0
C1588 C 0.14778 0.42911 0.62766 0.0
C1589 C 0.1754 0.45777 0.62422 0.0
C1590 C 0.17547 0.48614 0.62482 0.0
H1591 H 0.1055 0.5103 0.58814 0.0
H1592 H 0.12475 0.48837 0.59378 0.0
H1593 H 0.09055 0.4815 0.6066 0.0
H1594 H 0.09888 0.4582 0.63593 0.0
H1595 H 0.09867 0.40815 0.63494 0.0
H1596 H 0.29243 0.84416 0.88111 0.0
H1597 H 0.34087 0.84247 0.88292 0.0
H1598 H 0.39017 0.9386 0.90134 0.0
H1599 H 0.34141 0.94057 0.89961 0.0
H1600 H 0.3999 0.88119 0.86443 0.0
H1601 H 0.40908 0.88977 0.94223 0.0
H1602 H 0.37321 0.87959 0.93003 0.0
H1603 H 0.40464 0.91948 0.93029 0.0
C1604 C 0.31351 0.86508 0.88553 0.0
C1605 C 0.31287 0.8925 0.89033 0.0
C1606 C 0.34127 0.86404 0.8865 0.0
C1607 C 0.36911 0.89024 0.89247 0.0
C1608 C 0.36886 0.91793 0.89694 0.0
H1609 H 0.55107 0.90774 0.91629 0.0
H1610 H 0.50737 0.91729 0.91221 0.0
C1611 C 0.341 0.91909 0.89583 0.0
C1612 C 0.39808 0.88806 0.89411 0.0
H1613 H 0.44862 0.88593 0.92601 0.0
C1614 C 0.41067 0.88238 0.87788 0.0
C1615 C 0.41212 0.88959 0.91166 0.0
C1616 C 0.39907 0.89472 0.92962 0.0
C1617 C 0.4369 0.87826 0.8787 0.0
C1618 C 0.45052 0.87902 0.89631 0.0
C1619 C 0.4382 0.88522 0.91251 0.0
C1620 C 0.47736 0.87323 0.89831 0.0
C1621 C 0.45004 0.87365 0.86062 0.0
C1622 C 0.47514 0.84514 0.89201 0.0
C1623 C 0.50019 0.83958 0.89433 0.0
C1624 C 0.52791 0.86182 0.90324 0.0
C1625 C 0.52998 0.88987 0.90959 0.0
C1626 C 0.50502 0.89546 0.90719 0.0
H1627 H 0.44338 0.88305 0.84841 0.0
H1628 H 0.47596 0.88523 0.86115 0.0
H1629 H 0.4405 0.84821 0.85827 0.0
H1630 H 0.45381 0.82721 0.88556 0.0
H1631 H 0.49755 0.81754 0.88952 0.0
H1632 H 0.62725 0.70146 0.64664 0.0
H1633 H 0.57731 0.65138 0.64665 0.0
H1634 H 0.53803 0.69071 0.60884 0.0
H1635 H 0.58699 0.74016 0.6087 0.0
H1636 H 0.51271 0.64056 0.65565 0.0
H1637 H 0.52493 0.60879 0.58274 0.0
H1638 H 0.55794 0.63668 0.59644 0.0
H1639 H 0.53253 0.64824 0.58545 0.0
C1640 C 0.60797 0.69941 0.63834 0.0
C1641 C 0.61139 0.72497 0.62761 0.0
C1642 C 0.57944 0.6708 0.63839 0.0
C1643 C 0.55407 0.66721 0.62755 0.0
C1644 C 0.55738 0.69276 0.6171 0.0
H1645 H 0.36535 0.53759 0.59553 0.0
H1646 H 0.41855 0.58103 0.60034 0.0
C1647 C 0.58555 0.72118 0.61712 0.0
C1648 C 0.52385 0.63707 0.62689 0.0
H1649 H 0.47388 0.58123 0.59621 0.0
C1650 C 0.50434 0.62721 0.64278 0.0
C1651 C 0.51292 0.61981 0.61004 0.0
C1652 C 0.53323 0.62868 0.59272 0.0
C1653 C 0.47362 0.60143 0.64198 0.0
C1654 C 0.46234 0.58475 0.62492 0.0
C1655 C 0.48234 0.59406 0.60925 0.0
C1656 C 0.42955 0.5584 0.62268 0.0
C1657 C 0.45305 0.59323 0.65916 0.0
C1658 C 0.41784 0.53105 0.6336 0.0
C1659 C 0.38732 0.50607 0.63086 0.0
C1660 C 0.36788 0.50775 0.61701 0.0
C1661 C 0.37969 0.53526 0.60617 0.0
C1662 C 0.41012 0.56021 0.60895 0.0
H1663 H 0.46246 0.61267 0.66951 0.0
H1664 H 0.42895 0.58744 0.65531 0.0
H1665 H 0.45167 0.5724 0.66607 0.0
H1666 H 0.43252 0.5287 0.64398 0.0
H1667 H 0.37925 0.48509 0.63926 0.0
H1668 H 0.21229 0.68778 0.88752 0.0
H1669 H 0.20323 0.63436 0.88419 0.0
H1670 H 0.11239 0.59768 0.9099 0.0
H1671 H 0.12088 0.65079 0.91284 0.0
H1672 H 0.19195 0.59141 0.91313 0.0
H1673 H 0.09243 0.54259 0.86327 0.0
H1674 H 0.11701 0.58417 0.86712 0.0
H1675 H 0.08696 0.56051 0.88377 0.0
C1676 C 0.19016 0.66835 0.89218 0.0
C1677 C 0.16736 0.67376 0.90047 0.0
C1678 C 0.18508 0.63778 0.89037 0.0
C1679 C 0.15696 0.61185 0.89658 0.0
C1680 C 0.13405 0.61714 0.90469 0.0
H1681 H 0.09211 0.40955 0.90153 0.0
H1682 H 0.09528 0.46095 0.9034 0.0
C1683 C 0.13913 0.64766 0.90656 0.0
C1684 C 0.15228 0.57949 0.89545 0.0
H1685 H 0.10553 0.50661 0.87673 0.0
C1686 C 0.17312 0.57293 0.9051 0.0
C1687 C 0.12747 0.55517 0.88517 0.0
C1688 C 0.1048 0.5609 0.8741 0.0
C1689 C 0.1698 0.54286 0.90486 0.0
C1690 C 0.14538 0.51865 0.89428 0.0
C1691 C 0.12425 0.52506 0.88482 0.0
C1692 C 0.14239 0.48705 0.89229 0.0
C1693 C 0.19227 0.53722 0.91626 0.0
C1694 C 0.16731 0.48436 0.88488 0.0
C1695 C 0.16563 0.45523 0.88389 0.0
C1696 C 0.13875 0.42774 0.89004 0.0
C1697 C 0.11316 0.43017 0.89671 0.0
C1698 C 0.11498 0.45957 0.89781 0.0
H1699 H 0.20278 0.55445 0.92785 0.0
H1700 H 0.18047 0.51325 0.92234 0.0
H1701 H 0.21161 0.53984 0.90706 0.0
H1702 H 0.18835 0.50496 0.88 0.0
H1703 H 0.18568 0.45437 0.87842 0.0
H1704 H 0.29464 0.84356 0.61547 0.0
H1705 H 0.34406 0.84403 0.61607 0.0
H1706 H 0.38957 0.93694 0.63969 0.0
H1707 H 0.33958 0.93675 0.63921 0.0
H1708 H 0.399 0.88767 0.59679 0.0
H1709 H 0.4189 0.88779 0.67364 0.0
H1710 H 0.38092 0.87661 0.66399 0.0
H1711 H 0.41074 0.91714 0.66473 0.0
C1712 C 0.31498 0.86418 0.62093 0.0
C1713 C 0.31298 0.89025 0.62721 0.0
C1714 C 0.34333 0.86433 0.62126 0.0
C1715 C 0.37056 0.89042 0.62797 0.0
C1716 C 0.36876 0.91635 0.63465 0.0
H1717 H 0.5589 0.9126 0.63284 0.0
H1718 H 0.51425 0.9211 0.63603 0.0
C1719 C 0.34018 0.91625 0.63433 0.0
C1720 C 0.40076 0.89044 0.62693 0.0
H1721 H 0.45655 0.88702 0.65357 0.0
C1722 C 0.41168 0.88772 0.60921 0.0
C1723 C 0.41743 0.8907 0.64312 0.0
C1724 C 0.40645 0.89302 0.6625 0.0
C1725 C 0.43844 0.88477 0.60722 0.0
C1726 C 0.45445 0.88375 0.62343 0.0
C1727 C 0.44416 0.88752 0.64115 0.0
C1728 C 0.48137 0.878 0.6222 0.0
C1729 C 0.44937 0.88294 0.58771 0.0
C1730 C 0.4777 0.85058 0.61376 0.0
C1731 C 0.50317 0.84564 0.61192 0.0
C1732 C 0.53293 0.86784 0.61866 0.0
C1733 C 0.53632 0.89486 0.62762 0.0
C1734 C 0.51082 0.89984 0.62939 0.0
H1735 H 0.44078 0.8934 0.57713 0.0
H1736 H 0.4753 0.89513 0.5869 0.0
H1737 H 0.44003 0.85798 0.58393 0.0
H1738 H 0.45506 0.83295 0.60855 0.0
H1739 H 0.49949 0.82428 0.60529 0.0
H1740 H 0.62025 0.69152 0.87595 0.0
H1741 H 0.56911 0.64317 0.87362 0.0
H1742 H 0.52354 0.69287 0.8936 0.0
H1743 H 0.57384 0.74081 0.89581 0.0
H1744 H 0.52524 0.61218 0.903 0.0
H1745 H 0.47257 0.64853 0.84695 0.0
H1746 H 0.51414 0.66887 0.85145 0.0
H1747 H 0.48849 0.67639 0.86573 0.0
C1748 C 0.59929 0.6922 0.87963 0.0
C1749 C 0.60131 0.72016 0.88607 0.0
C1750 C 0.57009 0.66453 0.87834 0.0
C1751 C 0.54238 0.66445 0.88317 0.0
C1752 C 0.54442 0.69239 0.88942 0.0
H1753 H 0.34565 0.53862 0.90178 0.0
H1754 H 0.39868 0.58281 0.89722 0.0
C1755 C 0.5734 0.71983 0.89082 0.0
C1756 C 0.51132 0.63512 0.8827 0.0
H1757 H 0.43702 0.60436 0.86554 0.0
C1758 C 0.50606 0.61022 0.89459 0.0
C1759 C 0.48621 0.63263 0.8718 0.0
C1760 C 0.49064 0.65791 0.85812 0.0
C1761 C 0.47613 0.58356 0.8965 0.0
C1762 C 0.45081 0.58144 0.88597 0.0
C1763 C 0.4563 0.60599 0.8737 0.0
C1764 C 0.4183 0.55444 0.88792 0.0
C1765 C 0.4716 0.55853 0.91041 0.0
C1766 C 0.41137 0.52377 0.8838 0.0
C1767 C 0.38101 0.49842 0.88633 0.0
C1768 C 0.35674 0.50314 0.89294 0.0
C1769 C 0.36358 0.53404 0.89652 0.0
C1770 C 0.39398 0.55936 0.89401 0.0
H1771 H 0.49126 0.56711 0.92055 0.0
H1772 H 0.44943 0.55004 0.91838 0.0
H1773 H 0.47038 0.53835 0.90276 0.0
H1774 H 0.42948 0.51938 0.87862 0.0
H1775 H 0.37653 0.47508 0.88306 0.0
loop_
_geom_bond_atom_site_label_1
_geom_bond_atom_site_label_2
_geom_bond_distance
_geom_bond_site_symmetry_2
_ccdc_geom_bond_type
Tb0 C10 2.825 . S
Tb0 O11 2.347 . S
Tb0 O14 2.366 . S
Tb0 O19 2.418 . S
Tb0 O20 2.384 . S
Tb0 O23 2.479 . S
Tb0 O24 2.471 . S
Eu1 O12 2.418 . S
Eu1 O13 2.384 . S
Eu1 O16 2.479 . S
Eu1 O17 2.471 . S
Eu1 O18 2.347 . S
Eu1 O21 2.366 . S
Eu1 C31 2.825 . S
C2 O18 1.259 . S
C2 O19 1.265 . S
C3 O20 1.255 . S
C3 O21 1.265 . S
C4 C6 1.380 . S
C4 C7 1.374 . S
C4 C10 1.507 . S
C5 C6 1.384 . S
C5 C9 1.387 . S
C5 H32 0.930 . S
C6 C4 1.380 . S
C6 C5 1.384 . S
C6 H33 0.931 . S
C7 C4 1.374 . S
C7 C8 1.390 . S
C7 H34 0.930 . S
C8 C7 1.390 . S
C8 C9 1.391 . S
C8 H35 0.930 . S
C9 C5 1.387 . S
C9 C8 1.391 . S
C10 Tb0 2.825 . S
C10 C4 1.507 . S
C10 O23 1.238 . S
C10 O24 1.247 . S
O11 Tb0 2.347 . S
O11 C15 1.259 . S
O12 Eu1 2.418 . S
O12 C15 1.265 . S
O13 Eu1 2.384 . S
O13 C22 1.255 . S
O14 Tb0 2.366 . S
O14 C22 1.265 . S
C15 O11 1.259 . S
C15 O12 1.265 . S
O16 Eu1 2.479 . S
O16 C31 1.238 . S
O17 Eu1 2.471 . S
O17 C31 1.247 . S
O18 Eu1 2.347 . S
O18 C2 1.259 . S
O19 Tb0 2.418 . S
O19 C2 1.265 . S
O20 Tb0 2.384 . S
O20 C3 1.255 . S
O21 Eu1 2.366 . S
O21 C3 1.265 . S
C22 O13 1.255 . S
C22 O14 1.265 . S
O23 Tb0 2.479 . S
O23 C10 1.238 . S
O24 Tb0 2.471 . S
O24 C10 1.247 . S
C25 C28 1.380 . S
C25 C29 1.374 . S
C25 C31 1.507 . S
C26 C27 1.387 . S
C26 C30 1.391 . S
C27 C26 1.387 . S
C27 C28 1.384 1_565 S
C27 H36 0.930 . S
C28 C25 1.380 . S
C28 C27 1.384 1_545 S
C28 H37 0.931 . S
C29 C25 1.374 . S
C29 C30 1.390 1_545 S
C29 H38 0.930 . S
C30 C26 1.391 . S
C30 C29 1.390 1_565 S
C30 H39 0.930 . S
C31 Eu1 2.825 . S
C31 O16 1.238 . S
C31 O17 1.247 . S
C31 C25 1.507 . S
H32 C5 0.930 . S
H33 C6 0.931 . S
H34 C7 0.930 . S
H35 C8 0.930 . S
H36 C27 0.930 . S
H37 C28 0.931 . S
H38 C29 0.930 . S
H39 C30 0.930 . S
Tb40 C50 2.825 . S
Tb40 O51 2.347 . S
Tb40 O54 2.366 . S
Tb40 O59 2.418 . S
Tb40 O60 2.384 . S
Tb40 O63 2.479 . S
Tb40 O64 2.471 . S
Eu41 O52 2.418 . S
Eu41 O53 2.384 . S
Eu41 O56 2.479 . S
Eu41 O57 2.471 . S
Eu41 O58 2.347 . S
Eu41 O61 2.366 . S
Eu41 C71 2.825 . S
C42 O58 1.259 . S
C42 O59 1.265 . S
C43 O60 1.255 . S
C43 O61 1.265 . S
C44 C46 1.380 . S
C44 C47 1.374 . S
C44 C50 1.507 . S
C45 C46 1.384 . S
C45 C49 1.387 . S
C45 H72 0.930 . S
C46 C44 1.380 . S
C46 C45 1.384 . S
C46 H73 0.931 . S
C47 C44 1.374 . S
C47 C48 1.390 . S
C47 H74 0.930 . S
C48 C47 1.390 . S
C48 C49 1.391 . S
C48 H75 0.930 . S
C49 C45 1.387 . S
C49 C48 1.391 . S
C50 Tb40 2.825 . S
C50 C44 1.507 . S
C50 O63 1.238 . S
C50 O64 1.247 . S
O51 Tb40 2.347 . S
O51 C55 1.259 . S
O52 Eu41 2.418 . S
O52 C55 1.265 . S
O53 Eu41 2.384 . S
O53 C62 1.255 . S
O54 Tb40 2.366 . S
O54 C62 1.265 . S
C55 O51 1.259 . S
C55 O52 1.265 . S
O56 Eu41 2.479 . S
O56 C71 1.238 . S
O57 Eu41 2.471 . S
O57 C71 1.247 . S
O58 Eu41 2.347 . S
O58 C42 1.259 . S
O59 Tb40 2.418 . S
O59 C42 1.265 . S
O60 Tb40 2.384 . S
O60 C43 1.255 . S
O61 Eu41 2.366 . S
O61 C43 1.265 . S
C62 O53 1.255 . S
C62 O54 1.265 . S
O63 Tb40 2.479 . S
O63 C50 1.238 . S
O64 Tb40 2.471 . S
O64 C50 1.247 . S
C65 C68 1.380 . S
C65 C69 1.374 . S
C65 C71 1.507 . S
C66 C67 1.387 . S
C66 C70 1.391 . S
C67 C66 1.387 . S
C67 C68 1.384 . S
C67 H76 0.930 . S
C68 C65 1.380 . S
C68 C67 1.384 . S
C68 H77 0.931 . S
C69 C65 1.374 . S
C69 C70 1.390 . S
C69 H78 0.930 . S
C70 C66 1.391 . S
C70 C69 1.390 . S
C70 H79 0.930 . S
C71 Eu41 2.825 . S
C71 O56 1.238 . S
C71 O57 1.247 . S
C71 C65 1.507 . S
H72 C45 0.930 . S
H73 C46 0.931 . S
H74 C47 0.930 . S
H75 C48 0.930 . S
H76 C67 0.930 . S
H77 C68 0.931 . S
H78 C69 0.930 . S
H79 C70 0.930 . S
Tb80 C90 2.825 . S
Tb80 O91 2.347 . S
Tb80 O94 2.366 . S
Tb80 O99 2.418 . S
Tb80 O100 2.384 . S
Tb80 O103 2.479 . S
Tb80 O104 2.471 . S
Eu81 O92 2.418 . S
Eu81 O93 2.384 . S
Eu81 O96 2.479 . S
Eu81 O97 2.471 . S
Eu81 O98 2.347 . S
Eu81 O101 2.366 . S
Eu81 C111 2.825 . S
C82 O98 1.259 . S
C82 O99 1.265 . S
C83 O100 1.255 . S
C83 O101 1.265 . S
C84 C86 1.380 . S
C84 C87 1.374 . S
C84 C90 1.507 . S
C85 C86 1.384 . S
C85 C89 1.387 . S
C85 H112 0.930 . S
C86 C84 1.380 . S
C86 C85 1.384 . S
C86 H113 0.931 . S
C87 C84 1.374 . S
C87 C88 1.390 . S
C87 H114 0.930 . S
C88 C87 1.390 . S
C88 C89 1.391 . S
C88 H115 0.930 . S
C89 C85 1.387 . S
C89 C88 1.391 . S
C90 Tb80 2.825 . S
C90 C84 1.507 . S
C90 O103 1.238 . S
C90 O104 1.247 . S
O91 Tb80 2.347 . S
O91 C95 1.259 . S
O92 Eu81 2.418 . S
O92 C95 1.265 . S
O93 Eu81 2.384 . S
O93 C102 1.255 . S
O94 Tb80 2.366 . S
O94 C102 1.265 . S
C95 O91 1.259 . S
C95 O92 1.265 . S
O96 Eu81 2.479 . S
O96 C111 1.238 . S
O97 Eu81 2.471 . S
O97 C111 1.247 . S
O98 Eu81 2.347 . S
O98 C82 1.259 . S
O99 Tb80 2.418 . S
O99 C82 1.265 . S
O100 Tb80 2.384 . S
O100 C83 1.255 . S
O101 Eu81 2.366 . S
O101 C83 1.265 . S
C102 O93 1.255 . S
C102 O94 1.265 . S
O103 Tb80 2.479 . S
O103 C90 1.238 . S
O104 Tb80 2.471 . S
O104 C90 1.247 . S
C105 C108 1.380 . S
C105 C109 1.374 . S
C105 C111 1.507 . S
C106 C107 1.387 . S
C106 C110 1.391 . S
C107 C106 1.387 . S
C107 C108 1.384 1_455 S
C107 H116 0.930 . S
C108 C105 1.380 . S
C108 C107 1.384 1_655 S
C108 H117 0.931 . S
C109 C105 1.374 . S
C109 C110 1.390 1_655 S
C109 H118 0.930 . S
C110 C106 1.391 . S
C110 C109 1.390 1_455 S
C110 H119 0.930 . S
C111 Eu81 2.825 . S
C111 O96 1.238 . S
C111 O97 1.247 . S
C111 C105 1.507 . S
H112 C85 0.930 . S
H113 C86 0.931 . S
H114 C87 0.930 . S
H115 C88 0.930 . S
H116 C107 0.930 . S
H117 C108 0.931 . S
H118 C109 0.930 . S
H119 C110 0.930 . S
Tb120 C130 2.825 . S
Tb120 O131 2.347 . S
Tb120 O134 2.366 . S
Tb120 O139 2.418 . S
Tb120 O140 2.384 . S
Tb120 O143 2.479 . S
Tb120 O144 2.471 . S
Eu121 O132 2.418 . S
Eu121 O133 2.384 . S
Eu121 O136 2.479 . S
Eu121 O137 2.471 . S
Eu121 O138 2.347 . S
Eu121 O141 2.366 . S
Eu121 C151 2.825 . S
C122 O138 1.259 . S
C122 O139 1.265 . S
C123 O140 1.255 . S
C123 O141 1.265 . S
C124 C126 1.380 . S
C124 C127 1.374 . S
C124 C130 1.507 . S
C125 C126 1.384 1_565 S
C125 C129 1.387 . S
C125 H152 0.930 . S
C126 C124 1.380 . S
C126 C125 1.384 1_545 S
C126 H153 0.931 . S
C127 C124 1.374 . S
C127 C128 1.390 1_545 S
C127 H154 0.930 . S
C128 C127 1.390 1_565 S
C128 C129 1.391 . S
C128 H155 0.930 . S
C129 C125 1.387 . S
C129 C128 1.391 . S
C130 Tb120 2.825 . S
C130 C124 1.507 . S
C130 O143 1.238 . S
C130 O144 1.247 . S
O131 Tb120 2.347 . S
O131 C135 1.259 . S
O132 Eu121 2.418 . S
O132 C135 1.265 . S
O133 Eu121 2.384 . S
O133 C142 1.255 . S
O134 Tb120 2.366 . S
O134 C142 1.265 . S
C135 O131 1.259 . S
C135 O132 1.265 . S
O136 Eu121 2.479 . S
O136 C151 1.238 . S
O137 Eu121 2.471 . S
O137 C151 1.247 . S
O138 Eu121 2.347 . S
O138 C122 1.259 . S
O139 Tb120 2.418 . S
O139 C122 1.265 . S
O140 Tb120 2.384 . S
O140 C123 1.255 . S
O141 Eu121 2.366 . S
O141 C123 1.265 . S
C142 O133 1.255 . S
C142 O134 1.265 . S
O143 Tb120 2.479 . S
O143 C130 1.238 . S
O144 Tb120 2.471 . S
O144 C130 1.247 . S
C145 C148 1.380 . S
C145 C149 1.374 . S
C145 C151 1.507 . S
C146 C147 1.387 . S
C146 C150 1.391 . S
C147 C146 1.387 . S
C147 C148 1.384 . S
C147 H156 0.930 . S
C148 C145 1.380 . S
C148 C147 1.384 . S
C148 H157 0.931 . S
C149 C145 1.374 . S
C149 C150 1.390 . S
C149 H158 0.930 . S
C150 C146 1.391 . S
C150 C149 1.390 . S
C150 H159 0.930 . S
C151 Eu121 2.825 . S
C151 O136 1.238 . S
C151 O137 1.247 . S
C151 C145 1.507 . S
H152 C125 0.930 . S
H153 C126 0.931 . S
H154 C127 0.930 . S
H155 C128 0.930 . S
H156 C147 0.930 . S
H157 C148 0.931 . S
H158 C149 0.930 . S
H159 C150 0.930 . S
Tb160 C170 2.825 . S
Tb160 O171 2.347 . S
Tb160 O174 2.366 . S
Tb160 O179 2.418 . S
Tb160 O180 2.384 . S
Tb160 O183 2.479 . S
Tb160 O184 2.471 . S
Eu161 O172 2.418 . S
Eu161 O173 2.384 . S
Eu161 O176 2.479 . S
Eu161 O177 2.471 . S
Eu161 O178 2.347 . S
Eu161 O181 2.366 . S
Eu161 C191 2.825 . S
C162 O178 1.259 . S
C162 O179 1.265 . S
C163 O180 1.255 . S
C163 O181 1.265 . S
C164 C166 1.380 . S
C164 C167 1.374 . S
C164 C170 1.507 . S
C165 C166 1.384 . S
C165 C169 1.387 . S
C165 H192 0.930 . S
C166 C164 1.380 . S
C166 C165 1.384 . S
C166 H193 0.931 . S
C167 C164 1.374 . S
C167 C168 1.390 . S
C167 H194 0.930 . S
C168 C167 1.390 . S
C168 C169 1.391 . S
C168 H195 0.930 . S
C169 C165 1.387 . S
C169 C168 1.391 . S
C170 Tb160 2.825 . S
C170 C164 1.507 . S
C170 O183 1.238 . S
C170 O184 1.247 . S
O171 Tb160 2.347 . S
O171 C175 1.259 . S
O172 Eu161 2.418 . S
O172 C175 1.265 . S
O173 Eu161 2.384 . S
O173 C182 1.255 . S
O174 Tb160 2.366 . S
O174 C182 1.265 . S
C175 O171 1.259 . S
C175 O172 1.265 . S
O176 Eu161 2.479 . S
O176 C191 1.238 . S
O177 Eu161 2.471 . S
O177 C191 1.247 . S
O178 Eu161 2.347 . S
O178 C162 1.259 . S
O179 Tb160 2.418 . S
O179 C162 1.265 . S
O180 Tb160 2.384 . S
O180 C163 1.255 . S
O181 Eu161 2.366 . S
O181 C163 1.265 . S
C182 O173 1.255 . S
C182 O174 1.265 . S
O183 Tb160 2.479 . S
O183 C170 1.238 . S
O184 Tb160 2.471 . S
O184 C170 1.247 . S
C185 C188 1.380 . S
C185 C189 1.374 . S
C185 C191 1.507 . S
C186 C187 1.387 . S
C186 C190 1.391 . S
C187 C186 1.387 . S
C187 C188 1.384 . S
C187 H196 0.930 . S
C188 C185 1.380 . S
C188 C187 1.384 . S
C188 H197 0.931 . S
C189 C185 1.374 . S
C189 C190 1.390 . S
C189 H198 0.930 . S
C190 C186 1.391 . S
C190 C189 1.390 . S
C190 H199 0.930 . S
C191 Eu161 2.825 . S
C191 O176 1.238 . S
C191 O177 1.247 . S
C191 C185 1.507 . S
H192 C165 0.930 . S
H193 C166 0.931 . S
H194 C167 0.930 . S
H195 C168 0.930 . S
H196 C187 0.930 . S
H197 C188 0.931 . S
H198 C189 0.930 . S
H199 C190 0.930 . S
Tb200 C210 2.825 . S
Tb200 O211 2.347 . S
Tb200 O214 2.366 . S
Tb200 O219 2.418 . S
Tb200 O220 2.384 . S
Tb200 O223 2.479 . S
Tb200 O224 2.471 . S
Eu201 O212 2.418 . S
Eu201 O213 2.384 . S
Eu201 O216 2.479 . S
Eu201 O217 2.471 . S
Eu201 O218 2.347 . S
Eu201 O221 2.366 . S
Eu201 C231 2.825 . S
C202 O218 1.259 . S
C202 O219 1.265 . S
C203 O220 1.255 . S
C203 O221 1.265 . S
C204 C206 1.380 . S
C204 C207 1.374 . S
C204 C210 1.507 . S
C205 C206 1.384 1_455 S
C205 C209 1.387 . S
C205 H232 0.930 . S
C206 C204 1.380 . S
C206 C205 1.384 1_655 S
C206 H233 0.931 . S
C207 C204 1.374 . S
C207 C208 1.390 1_655 S
C207 H234 0.930 . S
C208 C207 1.390 1_455 S
C208 C209 1.391 . S
C208 H235 0.930 . S
C209 C205 1.387 . S
C209 C208 1.391 . S
C210 Tb200 2.825 . S
C210 C204 1.507 . S
C210 O223 1.238 . S
C210 O224 1.247 . S
O211 Tb200 2.347 . S
O211 C215 1.259 . S
O212 Eu201 2.418 . S
O212 C215 1.265 . S
O213 Eu201 2.384 . S
O213 C222 1.255 . S
O214 Tb200 2.366 . S
O214 C222 1.265 . S
C215 O211 1.259 . S
C215 O212 1.265 . S
O216 Eu201 2.479 . S
O216 C231 1.238 . S
O217 Eu201 2.471 . S
O217 C231 1.247 . S
O218 Eu201 2.347 . S
O218 C202 1.259 . S
O219 Tb200 2.418 . S
O219 C202 1.265 . S
O220 Tb200 2.384 . S
O220 C203 1.255 . S
O221 Eu201 2.366 . S
O221 C203 1.265 . S
C222 O213 1.255 . S
C222 O214 1.265 . S
O223 Tb200 2.479 . S
O223 C210 1.238 . S
O224 Tb200 2.471 . S
O224 C210 1.247 . S
C225 C228 1.380 . S
C225 C229 1.374 . S
C225 C231 1.507 . S
C226 C227 1.387 . S
C226 C230 1.391 . S
C227 C226 1.387 . S
C227 C228 1.384 . S
C227 H236 0.930 . S
C228 C225 1.380 . S
C228 C227 1.384 . S
C228 H237 0.931 . S
C229 C225 1.374 . S
C229 C230 1.390 . S
C229 H238 0.930 . S
C230 C226 1.391 . S
C230 C229 1.390 . S
C230 H239 0.930 . S
C231 Eu201 2.825 . S
C231 O216 1.238 . S
C231 O217 1.247 . S
C231 C225 1.507 . S
H232 C205 0.930 . S
H233 C206 0.931 . S
H234 C207 0.930 . S
H235 C208 0.930 . S
H236 C227 0.930 . S
H237 C228 0.931 . S
H238 C229 0.930 . S
H239 C230 0.930 . S
Tb240 C250 2.825 . S
Tb240 O251 2.347 . S
Tb240 O254 2.366 . S
Tb240 O259 2.418 . S
Tb240 O260 2.384 . S
Tb240 O263 2.479 . S
Tb240 O264 2.471 . S
Eu241 O252 2.418 . S
Eu241 O253 2.384 . S
Eu241 O256 2.479 . S
Eu241 O257 2.471 . S
Eu241 O258 2.347 . S
Eu241 O261 2.366 . S
Eu241 C271 2.825 . S
C242 O258 1.259 . S
C242 O259 1.265 . S
C243 O260 1.255 . S
C243 O261 1.265 . S
C244 C246 1.380 . S
C244 C247 1.374 . S
C244 C250 1.507 . S
C245 C246 1.384 1_655 S
C245 C249 1.387 . S
C245 H272 0.930 . S
C246 C244 1.380 . S
C246 C245 1.384 1_455 S
C246 H273 0.931 . S
C247 C244 1.374 . S
C247 C248 1.390 1_455 S
C247 H274 0.930 . S
C248 C247 1.390 1_655 S
C248 C249 1.391 . S
C248 H275 0.930 . S
C249 C245 1.387 . S
C249 C248 1.391 . S
C250 Tb240 2.825 . S
C250 C244 1.507 . S
C250 O263 1.238 . S
C250 O264 1.247 . S
O251 Tb240 2.347 . S
O251 C255 1.259 . S
O252 Eu241 2.418 . S
O252 C255 1.265 . S
O253 Eu241 2.384 . S
O253 C262 1.255 . S
O254 Tb240 2.366 . S
O254 C262 1.265 . S
C255 O251 1.259 . S
C255 O252 1.265 . S
O256 Eu241 2.479 . S
O256 C271 1.238 . S
O257 Eu241 2.471 . S
O257 C271 1.247 . S
O258 Eu241 2.347 . S
O258 C242 1.259 . S
O259 Tb240 2.418 . S
O259 C242 1.265 . S
O260 Tb240 2.384 . S
O260 C243 1.255 . S
O261 Eu241 2.366 . S
O261 C243 1.265 . S
C262 O253 1.255 . S
C262 O254 1.265 . S
O263 Tb240 2.479 . S
O263 C250 1.238 . S
O264 Tb240 2.471 . S
O264 C250 1.247 . S
C265 C268 1.380 . S
C265 C269 1.374 . S
C265 C271 1.507 . S
C266 C267 1.387 . S
C266 C270 1.391 . S
C267 C266 1.387 . S
C267 C268 1.384 . S
C267 H276 0.930 . S
C268 C265 1.380 . S
C268 C267 1.384 . S
C268 H277 0.931 . S
C269 C265 1.374 . S
C269 C270 1.390 . S
C269 H278 0.930 . S
C270 C266 1.391 . S
C270 C269 1.390 . S
C270 H279 0.930 . S
C271 Eu241 2.825 . S
C271 O256 1.238 . S
C271 O257 1.247 . S
C271 C265 1.507 . S
H272 C245 0.930 . S
H273 C246 0.931 . S
H274 C247 0.930 . S
H275 C248 0.930 . S
H276 C267 0.930 . S
H277 C268 0.931 . S
H278 C269 0.930 . S
H279 C270 0.930 . S
Tb280 C290 2.825 . S
Tb280 O291 2.347 . S
Tb280 O294 2.366 . S
Tb280 O299 2.418 . S
Tb280 O300 2.384 . S
Tb280 O303 2.479 . S
Tb280 O304 2.471 . S
Eu281 O292 2.418 . S
Eu281 O293 2.384 . S
Eu281 O296 2.479 . S
Eu281 O297 2.471 . S
Eu281 O298 2.347 . S
Eu281 O301 2.366 . S
Eu281 C311 2.825 . S
C282 O298 1.259 . S
C282 O299 1.265 . S
C283 O300 1.255 . S
C283 O301 1.265 . S
C284 C286 1.380 . S
C284 C287 1.374 . S
C284 C290 1.507 . S
C285 C286 1.384 . S
C285 C289 1.387 . S
C285 H312 0.930 . S
C286 C284 1.380 . S
C286 C285 1.384 . S
C286 H313 0.931 . S
C287 C284 1.374 . S
C287 C288 1.390 . S
C287 H314 0.930 . S
C288 C287 1.390 . S
C288 C289 1.391 . S
C288 H315 0.930 . S
C289 C285 1.387 . S
C289 C288 1.391 . S
C290 Tb280 2.825 . S
C290 C284 1.507 . S
C290 O303 1.238 . S
C290 O304 1.247 . S
O291 Tb280 2.347 . S
O291 C295 1.259 . S
O292 Eu281 2.418 . S
O292 C295 1.265 . S
O293 Eu281 2.384 . S
O293 C302 1.255 . S
O294 Tb280 2.366 . S
O294 C302 1.265 . S
C295 O291 1.259 . S
C295 O292 1.265 . S
O296 Eu281 2.479 . S
O296 C311 1.238 . S
O297 Eu281 2.471 . S
O297 C311 1.247 . S
O298 Eu281 2.347 . S
O298 C282 1.259 . S
O299 Tb280 2.418 . S
O299 C282 1.265 . S
O300 Tb280 2.384 . S
O300 C283 1.255 . S
O301 Eu281 2.366 . S
O301 C283 1.265 . S
C302 O293 1.255 . S
C302 O294 1.265 . S
O303 Tb280 2.479 . S
O303 C290 1.238 . S
O304 Tb280 2.471 . S
O304 C290 1.247 . S
C305 C308 1.380 . S
C305 C309 1.374 . S
C305 C311 1.507 . S
C306 C307 1.387 . S
C306 C310 1.391 . S
C307 C306 1.387 . S
C307 C308 1.384 1_545 S
C307 H316 0.930 . S
C308 C305 1.380 . S
C308 C307 1.384 1_565 S
C308 H317 0.931 . S
C309 C305 1.374 . S
C309 C310 1.390 1_565 S
C309 H318 0.930 . S
C310 C306 1.391 . S
C310 C309 1.390 1_545 S
C310 H319 0.930 . S
C311 Eu281 2.825 . S
C311 O296 1.238 . S
C311 O297 1.247 . S
C311 C305 1.507 . S
H312 C285 0.930 . S
H313 C286 0.931 . S
H314 C287 0.930 . S
H315 C288 0.930 . S
H316 C307 0.930 . S
H317 C308 0.931 . S
H318 C309 0.930 . S
H319 C310 0.930 . S
Tb320 C330 2.825 . S
Tb320 O331 2.347 . S
Tb320 O334 2.366 . S
Tb320 O339 2.418 . S
Tb320 O340 2.384 . S
Tb320 O343 2.479 . S
Tb320 O344 2.471 . S
Eu321 O332 2.418 . S
Eu321 O333 2.384 . S
Eu321 O336 2.479 . S
Eu321 O337 2.471 . S
Eu321 O338 2.347 . S
Eu321 O341 2.366 . S
Eu321 C351 2.825 . S
C322 O338 1.259 . S
C322 O339 1.265 . S
C323 O340 1.255 . S
C323 O341 1.265 . S
C324 C326 1.380 . S
C324 C327 1.374 . S
C324 C330 1.507 . S
C325 C326 1.384 . S
C325 C329 1.387 . S
C325 H352 0.930 . S
C326 C324 1.380 . S
C326 C325 1.384 . S
C326 H353 0.931 . S
C327 C324 1.374 . S
C327 C328 1.390 . S
C327 H354 0.930 . S
C328 C327 1.390 . S
C328 C329 1.391 . S
C328 H355 0.930 . S
C329 C325 1.387 . S
C329 C328 1.391 . S
C330 Tb320 2.825 . S
C330 C324 1.507 . S
C330 O343 1.238 . S
C330 O344 1.247 . S
O331 Tb320 2.347 . S
O331 C335 1.259 . S
O332 Eu321 2.418 . S
O332 C335 1.265 . S
O333 Eu321 2.384 . S
O333 C342 1.255 . S
O334 Tb320 2.366 . S
O334 C342 1.265 . S
C335 O331 1.259 . S
C335 O332 1.265 . S
O336 Eu321 2.479 . S
O336 C351 1.238 . S
O337 Eu321 2.471 . S
O337 C351 1.247 . S
O338 Eu321 2.347 . S
O338 C322 1.259 . S
O339 Tb320 2.418 . S
O339 C322 1.265 . S
O340 Tb320 2.384 . S
O340 C323 1.255 . S
O341 Eu321 2.366 . S
O341 C323 1.265 . S
C342 O333 1.255 . S
C342 O334 1.265 . S
O343 Tb320 2.479 . S
O343 C330 1.238 . S
O344 Tb320 2.471 . S
O344 C330 1.247 . S
C345 C348 1.380 . S
C345 C349 1.374 . S
C345 C351 1.507 . S
C346 C347 1.387 . S
C346 C350 1.391 . S
C347 C346 1.387 . S
C347 C348 1.384 . S
C347 H356 0.930 . S
C348 C345 1.380 . S
C348 C347 1.384 . S
C348 H357 0.931 . S
C349 C345 1.374 . S
C349 C350 1.390 . S
C349 H358 0.930 . S
C350 C346 1.391 . S
C350 C349 1.390 . S
C350 H359 0.930 . S
C351 Eu321 2.825 . S
C351 O336 1.238 . S
C351 O337 1.247 . S
C351 C345 1.507 . S
H352 C325 0.930 . S
H353 C326 0.931 . S
H354 C327 0.930 . S
H355 C328 0.930 . S
H356 C347 0.930 . S
H357 C348 0.931 . S
H358 C349 0.930 . S
H359 C350 0.930 . S
Tb360 C370 2.825 . S
Tb360 O371 2.347 . S
Tb360 O374 2.366 . S
Tb360 O379 2.418 . S
Tb360 O380 2.384 . S
Tb360 O383 2.479 . S
Tb360 O384 2.471 . S
Eu361 O372 2.418 . S
Eu361 O373 2.384 . S
Eu361 O376 2.479 . S
Eu361 O377 2.471 . S
Eu361 O378 2.347 . S
Eu361 O381 2.366 . S
Eu361 C391 2.825 . S
C362 O378 1.259 . S
C362 O379 1.265 . S
C363 O380 1.255 . S
C363 O381 1.265 . S
C364 C366 1.380 . S
C364 C367 1.374 . S
C364 C370 1.507 . S
C365 C366 1.384 . S
C365 C369 1.387 . S
C365 H392 0.930 . S
C366 C364 1.380 . S
C366 C365 1.384 . S
C366 H393 0.931 . S
C367 C364 1.374 . S
C367 C368 1.390 . S
C367 H394 0.930 . S
C368 C367 1.390 . S
C368 C369 1.391 . S
C368 H395 0.930 . S
C369 C365 1.387 . S
C369 C368 1.391 . S
C370 Tb360 2.825 . S
C370 C364 1.507 . S
C370 O383 1.238 . S
C370 O384 1.247 . S
O371 Tb360 2.347 . S
O371 C375 1.259 . S
O372 Eu361 2.418 . S
O372 C375 1.265 . S
O373 Eu361 2.384 . S
O373 C382 1.255 . S
O374 Tb360 2.366 . S
O374 C382 1.265 . S
C375 O371 1.259 . S
C375 O372 1.265 . S
O376 Eu361 2.479 . S
O376 C391 1.238 . S
O377 Eu361 2.471 . S
O377 C391 1.247 . S
O378 Eu361 2.347 . S
O378 C362 1.259 . S
O379 Tb360 2.418 . S
O379 C362 1.265 . S
O380 Tb360 2.384 . S
O380 C363 1.255 . S
O381 Eu361 2.366 . S
O381 C363 1.265 . S
C382 O373 1.255 . S
C382 O374 1.265 . S
O383 Tb360 2.479 . S
O383 C370 1.238 . S
O384 Tb360 2.471 . S
O384 C370 1.247 . S
C385 C388 1.380 . S
C385 C389 1.374 . S
C385 C391 1.507 . S
C386 C387 1.387 . S
C386 C390 1.391 . S
C387 C386 1.387 . S
C387 C388 1.384 1_655 S
C387 H396 0.930 . S
C388 C385 1.380 . S
C388 C387 1.384 1_455 S
C388 H397 0.931 . S
C389 C385 1.374 . S
C389 C390 1.390 1_455 S
C389 H398 0.930 . S
C390 C386 1.391 . S
C390 C389 1.390 1_655 S
C390 H399 0.930 . S
C391 Eu361 2.825 . S
C391 O376 1.238 . S
C391 O377 1.247 . S
C391 C385 1.507 . S
H392 C365 0.930 . S
H393 C366 0.931 . S
H394 C367 0.930 . S
H395 C368 0.930 . S
H396 C387 0.930 . S
H397 C388 0.931 . S
H398 C389 0.930 . S
H399 C390 0.930 . S
Tb400 C410 2.825 . S
Tb400 O411 2.347 . S
Tb400 O414 2.366 . S
Tb400 O419 2.418 . S
Tb400 O420 2.384 . S
Tb400 O423 2.479 . S
Tb400 O424 2.471 . S
Eu401 O412 2.418 . S
Eu401 O413 2.384 . S
Eu401 O416 2.479 . S
Eu401 O417 2.471 . S
Eu401 O418 2.347 . S
Eu401 O421 2.366 . S
Eu401 C431 2.825 . S
C402 O418 1.259 . S
C402 O419 1.265 . S
C403 O420 1.255 . S
C403 O421 1.265 . S
C404 C406 1.380 . S
C404 C407 1.374 . S
C404 C410 1.507 . S
C405 C406 1.384 1_545 S
C405 C409 1.387 . S
C405 H432 0.930 . S
C406 C404 1.380 . S
C406 C405 1.384 1_565 S
C406 H433 0.931 . S
C407 C404 1.374 . S
C407 C408 1.390 1_565 S
C407 H434 0.930 . S
C408 C407 1.390 1_545 S
C408 C409 1.391 . S
C408 H435 0.930 . S
C409 C405 1.387 . S
C409 C408 1.391 . S
C410 Tb400 2.825 . S
C410 C404 1.507 . S
C410 O423 1.238 . S
C410 O424 1.247 . S
O411 Tb400 2.347 . S
O411 C415 1.259 . S
O412 Eu401 2.418 . S
O412 C415 1.265 . S
O413 Eu401 2.384 . S
O413 C422 1.255 . S
O414 Tb400 2.366 . S
O414 C422 1.265 . S
C415 O411 1.259 . S
C415 O412 1.265 . S
O416 Eu401 2.479 . S
O416 C431 1.238 . S
O417 Eu401 2.471 . S
O417 C431 1.247 . S
O418 Eu401 2.347 . S
O418 C402 1.259 . S
O419 Tb400 2.418 . S
O419 C402 1.265 . S
O420 Tb400 2.384 . S
O420 C403 1.255 . S
O421 Eu401 2.366 . S
O421 C403 1.265 . S
C422 O413 1.255 . S
C422 O414 1.265 . S
O423 Tb400 2.479 . S
O423 C410 1.238 . S
O424 Tb400 2.471 . S
O424 C410 1.247 . S
C425 C428 1.380 . S
C425 C429 1.374 . S
C425 C431 1.507 . S
C426 C427 1.387 . S
C426 C430 1.391 . S
C427 C426 1.387 . S
C427 C428 1.384 . S
C427 H436 0.930 . S
C428 C425 1.380 . S
C428 C427 1.384 . S
C428 H437 0.931 . S
C429 C425 1.374 . S
C429 C430 1.390 . S
C429 H438 0.930 . S
C430 C426 1.391 . S
C430 C429 1.390 . S
C430 H439 0.930 . S
C431 Eu401 2.825 . S
C431 O416 1.238 . S
C431 O417 1.247 . S
C431 C425 1.507 . S
H432 C405 0.930 . S
H433 C406 0.931 . S
H434 C407 0.930 . S
H435 C408 0.930 . S
H436 C427 0.930 . S
H437 C428 0.931 . S
H438 C429 0.930 . S
H439 C430 0.930 . S
Tb440 C450 2.825 . S
Tb440 O451 2.347 . S
Tb440 O454 2.366 . S
Tb440 O459 2.418 . S
Tb440 O460 2.384 . S
Tb440 O463 2.479 . S
Tb440 O464 2.471 . S
Eu441 O452 2.418 . S
Eu441 O453 2.384 . S
Eu441 O456 2.479 . S
Eu441 O457 2.471 . S
Eu441 O458 2.347 . S
Eu441 O461 2.366 . S
Eu441 C471 2.825 . S
C442 O458 1.259 . S
C442 O459 1.265 . S
C443 O460 1.255 . S
C443 O461 1.265 . S
C444 C446 1.380 . S
C444 C447 1.374 . S
C444 C450 1.507 . S
C445 C446 1.384 . S
C445 C449 1.387 . S
C445 H472 0.930 . S
C446 C444 1.380 . S
C446 C445 1.384 . S
C446 H473 0.931 . S
C447 C444 1.374 . S
C447 C448 1.390 . S
C447 H474 0.930 . S
C448 C447 1.390 . S
C448 C449 1.391 . S
C448 H475 0.930 . S
C449 C445 1.387 . S
C449 C448 1.391 . S
C450 Tb440 2.825 . S
C450 C444 1.507 . S
C450 O463 1.238 . S
C450 O464 1.247 . S
O451 Tb440 2.347 . S
O451 C455 1.259 . S
O452 Eu441 2.418 . S
O452 C455 1.265 . S
O453 Eu441 2.384 . S
O453 C462 1.255 . S
O454 Tb440 2.366 . S
O454 C462 1.265 . S
C455 O451 1.259 . S
C455 O452 1.265 . S
O456 Eu441 2.479 . S
O456 C471 1.238 . S
O457 Eu441 2.471 . S
O457 C471 1.247 . S
O458 Eu441 2.347 . S
O458 C442 1.259 . S
O459 Tb440 2.418 . S
O459 C442 1.265 . S
O460 Tb440 2.384 . S
O460 C443 1.255 . S
O461 Eu441 2.366 . S
O461 C443 1.265 . S
C462 O453 1.255 . S
C462 O454 1.265 . S
O463 Tb440 2.479 . S
O463 C450 1.238 . S
O464 Tb440 2.471 . S
O464 C450 1.247 . S
C465 C468 1.380 . S
C465 C469 1.374 . S
C465 C471 1.507 . S
C466 C467 1.387 . S
C466 C470 1.391 . S
C467 C466 1.387 . S
C467 C468 1.384 . S
C467 H476 0.930 . S
C468 C465 1.380 . S
C468 C467 1.384 . S
C468 H477 0.931 . S
C469 C465 1.374 . S
C469 C470 1.390 . S
C469 H478 0.930 . S
C470 C466 1.391 . S
C470 C469 1.390 . S
C470 H479 0.930 . S
C471 Eu441 2.825 . S
C471 O456 1.238 . S
C471 O457 1.247 . S
C471 C465 1.507 . S
H472 C445 0.930 . S
H473 C446 0.931 . S
H474 C447 0.930 . S
H475 C448 0.930 . S
H476 C467 0.930 . S
H477 C468 0.931 . S
H478 C469 0.930 . S
H479 C470 0.930 . S
H480 C488 0.929 . S
H481 C490 0.930 . S
H482 C492 0.930 . S
H483 C495 0.929 . S
H484 C498 0.930 . S
H485 C500 0.960 . S
H486 C500 0.960 . S
H487 C500 0.960 . S
C488 H480 0.929 . S
C488 C489 1.377 . S
C488 C490 1.384 . S
C489 C488 1.377 . S
C489 C495 1.390 . S
C490 H481 0.930 . S
C490 C488 1.384 . S
C490 C491 1.372 . S
C491 C490 1.372 . S
C491 C492 1.400 . S
C491 C496 1.490 . S
C492 H482 0.930 . S
C492 C491 1.400 . S
C492 C495 1.386 . S
H493 C509 0.930 . S
H494 C510 0.931 . S
C495 H483 0.929 . S
C495 C489 1.390 . S
C495 C492 1.386 . S
C496 C491 1.490 . S
C496 C498 1.395 . S
C496 C499 1.403 . S
H497 C503 0.930 . S
C498 H484 0.930 . S
C498 C496 1.395 . S
C498 C501 1.403 . S
C499 C496 1.403 . S
C499 C500 1.524 . S
C499 C503 1.400 . S
C500 H485 0.960 . S
C500 H486 0.960 . S
C500 H487 0.960 . S
C500 C499 1.524 . S
C501 C498 1.403 . S
C501 C502 1.392 . S
C501 C505 1.495 . S
C502 C501 1.392 . S
C502 C503 1.385 . S
C502 C504 1.478 . S
C503 H497 0.930 . S
C503 C499 1.400 . S
C503 C502 1.385 . S
C504 C502 1.478 . S
C504 C506 1.381 . S
C504 C510 1.383 . S
C505 C501 1.495 . S
C505 H511 0.959 . S
C505 H512 0.961 . S
C505 H513 0.960 . S
C506 C504 1.381 . S
C506 C507 1.394 . S
C506 H514 0.930 . S
C507 C506 1.394 . S
C507 C508 1.383 . S
C507 H515 0.929 . S
C508 C507 1.383 . S
C508 C509 1.377 . S
C509 H493 0.930 . S
C509 C508 1.377 . S
C509 C510 1.379 . S
C510 H494 0.931 . S
C510 C504 1.383 . S
C510 C509 1.379 . S
H511 C505 0.959 . S
H512 C505 0.961 . S
H513 C505 0.960 . S
H514 C506 0.930 . S
H515 C507 0.929 . S
H516 C524 0.929 . S
H517 C526 0.930 . S
H518 C528 0.930 . S
H519 C531 0.929 . S
H520 C534 0.930 . S
H521 C536 0.960 1_655 S
H522 C536 0.960 . S
H523 C536 0.960 . S
C524 H516 0.929 . S
C524 C525 1.377 . S
C524 C526 1.384 . S
C525 C524 1.377 . S
C525 C531 1.390 . S
C526 H517 0.930 . S
C526 C524 1.384 . S
C526 C527 1.372 . S
C527 C526 1.372 . S
C527 C528 1.400 . S
C527 C532 1.490 . S
C528 H518 0.930 . S
C528 C527 1.400 . S
C528 C531 1.386 . S
H529 C545 0.930 . S
H530 C546 0.931 . S
C531 H519 0.929 . S
C531 C525 1.390 . S
C531 C528 1.386 . S
C532 C527 1.490 . S
C532 C534 1.395 . S
C532 C535 1.403 . S
H533 C539 0.930 . S
C534 H520 0.930 . S
C534 C532 1.395 . S
C534 C537 1.403 . S
C535 C532 1.403 . S
C535 C536 1.524 . S
C535 C539 1.400 1_455 S
C536 H521 0.960 1_455 S
C536 H522 0.960 . S
C536 H523 0.960 . S
C536 C535 1.524 . S
C537 C534 1.403 . S
C537 C538 1.392 1_455 S
C537 C541 1.495 . S
C538 C537 1.392 1_655 S
C538 C539 1.385 . S
C538 C540 1.478 . S
C539 H533 0.930 . S
C539 C535 1.400 1_655 S
C539 C538 1.385 . S
C540 C538 1.478 . S
C540 C542 1.381 . S
C540 C546 1.383 . S
C541 C537 1.495 . S
C541 H547 0.959 . S
C541 H548 0.961 1_455 S
C541 H549 0.960 1_455 S
C542 C540 1.381 . S
C542 C543 1.394 . S
C542 H550 0.930 . S
C543 C542 1.394 . S
C543 C544 1.383 . S
C543 H551 0.929 . S
C544 C543 1.383 . S
C544 C545 1.377 . S
C545 H529 0.930 . S
C545 C544 1.377 . S
C545 C546 1.379 . S
C546 H530 0.931 . S
C546 C540 1.383 . S
C546 C545 1.379 . S
H547 C541 0.959 . S
H548 C541 0.961 1_655 S
H549 C541 0.960 1_655 S
H550 C542 0.930 . S
H551 C543 0.929 . S
H552 C560 0.929 . S
H553 C562 0.930 . S
H554 C564 0.930 . S
H555 C567 0.929 . S
H556 C570 0.930 . S
H557 C572 0.960 . S
H558 C572 0.960 . S
H559 C572 0.960 . S
C560 H552 0.929 . S
C560 C561 1.377 . S
C560 C562 1.384 . S
C561 C560 1.377 . S
C561 C567 1.390 . S
C562 H553 0.930 . S
C562 C560 1.384 . S
C562 C563 1.372 . S
C563 C562 1.372 . S
C563 C564 1.400 . S
C563 C568 1.490 . S
C564 H554 0.930 . S
C564 C563 1.400 . S
C564 C567 1.386 . S
H565 C581 0.930 . S
H566 C582 0.931 . S
C567 H555 0.929 . S
C567 C561 1.390 . S
C567 C564 1.386 . S
C568 C563 1.490 . S
C568 C570 1.395 . S
C568 C571 1.403 . S
H569 C575 0.930 . S
C570 H556 0.930 . S
C570 C568 1.395 . S
C570 C573 1.403 1_545 S
C571 C568 1.403 . S
C571 C572 1.524 . S
C571 C575 1.400 1_545 S
C572 H557 0.960 . S
C572 H558 0.960 . S
C572 H559 0.960 . S
C572 C571 1.524 . S
C573 C570 1.403 1_565 S
C573 C574 1.392 . S
C573 C577 1.495 . S
C574 C573 1.392 . S
C574 C575 1.385 . S
C574 C576 1.478 . S
C575 H569 0.930 . S
C575 C571 1.400 1_565 S
C575 C574 1.385 . S
C576 C574 1.478 . S
C576 C578 1.381 . S
C576 C582 1.383 . S
C577 C573 1.495 . S
C577 H583 0.959 . S
C577 H584 0.961 . S
C577 H585 0.960 . S
C578 C576 1.381 . S
C578 C579 1.394 . S
C578 H586 0.930 . S
C579 C578 1.394 . S
C579 C580 1.383 . S
C579 H587 0.929 . S
C580 C579 1.383 . S
C580 C581 1.377 . S
C581 H565 0.930 . S
C581 C580 1.377 . S
C581 C582 1.379 . S
C582 H566 0.931 . S
C582 C576 1.383 . S
C582 C581 1.379 . S
H583 C577 0.959 . S
H584 C577 0.961 . S
H585 C577 0.960 . S
H586 C578 0.930 . S
H587 C579 0.929 . S
H588 C596 0.929 . S
H589 C598 0.930 . S
H590 C600 0.930 . S
H591 C603 0.929 . S
H592 C606 0.930 . S
H593 C608 0.960 . S
H594 C608 0.960 . S
H595 C608 0.960 . S
C596 H588 0.929 . S
C596 C597 1.377 . S
C596 C598 1.384 . S
C597 C596 1.377 . S
C597 C603 1.390 . S
C598 H589 0.930 . S
C598 C596 1.384 . S
C598 C599 1.372 . S
C599 C598 1.372 . S
C599 C600 1.400 . S
C599 C604 1.490 . S
C600 H590 0.930 . S
C600 C599 1.400 . S
C600 C603 1.386 . S
H601 C617 0.930 . S
H602 C618 0.931 . S
C603 H591 0.929 . S
C603 C597 1.390 . S
C603 C600 1.386 . S
C604 C599 1.490 . S
C604 C606 1.395 . S
C604 C607 1.403 . S
H605 C611 0.930 . S
C606 H592 0.930 . S
C606 C604 1.395 . S
C606 C609 1.403 . S
C607 C604 1.403 . S
C607 C608 1.524 . S
C607 C611 1.400 . S
C608 H593 0.960 . S
C608 H594 0.960 . S
C608 H595 0.960 . S
C608 C607 1.524 . S
C609 C606 1.403 . S
C609 C610 1.392 . S
C609 C613 1.495 . S
C610 C609 1.392 . S
C610 C611 1.385 . S
C610 C612 1.478 . S
C611 H605 0.930 . S
C611 C607 1.400 . S
C611 C610 1.385 . S
C612 C610 1.478 . S
C612 C614 1.381 . S
C612 C618 1.383 . S
C613 C609 1.495 . S
C613 H619 0.959 . S
C613 H620 0.961 . S
C613 H621 0.960 . S
C614 C612 1.381 . S
C614 C615 1.394 . S
C614 H622 0.930 . S
C615 C614 1.394 . S
C615 C616 1.383 . S
C615 H623 0.929 . S
C616 C615 1.383 . S
C616 C617 1.377 . S
C617 H601 0.930 . S
C617 C616 1.377 . S
C617 C618 1.379 . S
C618 H602 0.931 . S
C618 C612 1.383 . S
C618 C617 1.379 . S
H619 C613 0.959 . S
H620 C613 0.961 . S
H621 C613 0.960 . S
H622 C614 0.930 . S
H623 C615 0.929 . S
H624 C632 0.929 . S
H625 C634 0.930 . S
H626 C636 0.930 . S
H627 C639 0.929 . S
H628 C642 0.930 . S
H629 C644 0.960 . S
H630 C644 0.960 . S
H631 C644 0.960 . S
C632 H624 0.929 . S
C632 C633 1.377 . S
C632 C634 1.384 . S
C633 C632 1.377 . S
C633 C639 1.390 . S
C634 H625 0.930 . S
C634 C632 1.384 . S
C634 C635 1.372 . S
C635 C634 1.372 . S
C635 C636 1.400 . S
C635 C640 1.490 . S
C636 H626 0.930 . S
C636 C635 1.400 . S
C636 C639 1.386 . S
H637 C653 0.930 . S
H638 C654 0.931 . S
C639 H627 0.929 . S
C639 C633 1.390 . S
C639 C636 1.386 . S
C640 C635 1.490 . S
C640 C642 1.395 . S
C640 C643 1.403 . S
H641 C647 0.930 . S
C642 H628 0.930 . S
C642 C640 1.395 . S
C642 C645 1.403 1_455 S
C643 C640 1.403 . S
C643 C644 1.524 . S
C643 C647 1.400 1_455 S
C644 H629 0.960 . S
C644 H630 0.960 . S
C644 H631 0.960 . S
C644 C643 1.524 . S
C645 C642 1.403 1_655 S
C645 C646 1.392 . S
C645 C649 1.495 . S
C646 C645 1.392 . S
C646 C647 1.385 . S
C646 C648 1.478 . S
C647 H641 0.930 . S
C647 C643 1.400 1_655 S
C647 C646 1.385 . S
C648 C646 1.478 . S
C648 C650 1.381 . S
C648 C654 1.383 . S
C649 C645 1.495 . S
C649 H655 0.959 . S
C649 H656 0.961 . S
C649 H657 0.960 . S
C650 C648 1.381 . S
C650 C651 1.394 . S
C650 H658 0.930 . S
C651 C650 1.394 . S
C651 C652 1.383 . S
C651 H659 0.929 . S
C652 C651 1.383 . S
C652 C653 1.377 . S
C653 H637 0.930 . S
C653 C652 1.377 . S
C653 C654 1.379 . S
C654 H638 0.931 . S
C654 C648 1.383 . S
C654 C653 1.379 . S
H655 C649 0.959 . S
H656 C649 0.961 . S
H657 C649 0.960 . S
H658 C650 0.930 . S
H659 C651 0.929 . S
H660 C668 0.929 . S
H661 C670 0.930 . S
H662 C672 0.930 . S
H663 C675 0.929 . S
H664 C678 0.930 . S
H665 C680 0.960 . S
H666 C680 0.960 . S
H667 C680 0.960 . S
C668 H660 0.929 . S
C668 C669 1.377 . S
C668 C670 1.384 . S
C669 C668 1.377 . S
C669 C675 1.390 . S
C670 H661 0.930 . S
C670 C668 1.384 . S
C670 C671 1.372 . S
C671 C670 1.372 . S
C671 C672 1.400 . S
C671 C676 1.490 . S
C672 H662 0.930 . S
C672 C671 1.400 . S
C672 C675 1.386 . S
H673 C689 0.930 . S
H674 C690 0.931 . S
C675 H663 0.929 . S
C675 C669 1.390 . S
C675 C672 1.386 . S
C676 C671 1.490 . S
C676 C678 1.395 . S
C676 C679 1.403 . S
H677 C683 0.930 . S
C678 H664 0.930 . S
C678 C676 1.395 . S
C678 C681 1.403 1_565 S
C679 C676 1.403 . S
C679 C680 1.524 . S
C679 C683 1.400 1_565 S
C680 H665 0.960 . S
C680 H666 0.960 . S
C680 H667 0.960 . S
C680 C679 1.524 . S
C681 C678 1.403 1_545 S
C681 C682 1.392 . S
C681 C685 1.495 . S
C682 C681 1.392 . S
C682 C683 1.385 . S
C682 C684 1.478 . S
C683 H677 0.930 . S
C683 C679 1.400 1_545 S
C683 C682 1.385 . S
C684 C682 1.478 . S
C684 C686 1.381 . S
C684 C690 1.383 . S
C685 C681 1.495 . S
C685 H691 0.959 . S
C685 H692 0.961 . S
C685 H693 0.960 . S
C686 C684 1.381 . S
C686 C687 1.394 . S
C686 H694 0.930 . S
C687 C686 1.394 . S
C687 C688 1.383 . S
C687 H695 0.929 . S
C688 C687 1.383 . S
C688 C689 1.377 . S
C689 H673 0.930 . S
C689 C688 1.377 . S
C689 C690 1.379 . S
C690 H674 0.931 . S
C690 C684 1.383 . S
C690 C689 1.379 . S
H691 C685 0.959 . S
H692 C685 0.961 . S
H693 C685 0.960 . S
H694 C686 0.930 . S
H695 C687 0.929 . S
H696 C704 0.929 . S
H697 C706 0.930 . S
H698 C708 0.930 . S
H699 C711 0.929 . S
H700 C714 0.930 . S
H701 C716 0.960 . S
H702 C716 0.960 . S
H703 C716 0.960 . S
C704 H696 0.929 . S
C704 C705 1.377 . S
C704 C706 1.384 . S
C705 C704 1.377 . S
C705 C711 1.390 . S
C706 H697 0.930 . S
C706 C704 1.384 . S
C706 C707 1.372 . S
C707 C706 1.372 . S
C707 C708 1.400 . S
C707 C712 1.490 . S
C708 H698 0.930 . S
C708 C707 1.400 . S
C708 C711 1.386 . S
H709 C725 0.930 . S
H710 C726 0.931 . S
C711 H699 0.929 . S
C711 C705 1.390 . S
C711 C708 1.386 . S
C712 C707 1.490 . S
C712 C714 1.395 . S
C712 C715 1.403 . S
H713 C719 0.930 . S
C714 H700 0.930 . S
C714 C712 1.395 . S
C714 C717 1.403 . S
C715 C712 1.403 . S
C715 C716 1.524 . S
C715 C719 1.400 . S
C716 H701 0.960 . S
C716 H702 0.960 . S
C716 H703 0.960 . S
C716 C715 1.524 . S
C717 C714 1.403 . S
C717 C718 1.392 . S
C717 C721 1.495 . S
C718 C717 1.392 . S
C718 C719 1.385 . S
C718 C720 1.478 . S
C719 H713 0.930 . S
C719 C715 1.400 . S
C719 C718 1.385 . S
C720 C718 1.478 . S
C720 C722 1.381 . S
C720 C726 1.383 . S
C721 C717 1.495 . S
C721 H727 0.959 . S
C721 H728 0.961 . S
C721 H729 0.960 . S
C722 C720 1.381 . S
C722 C723 1.394 . S
C722 H730 0.930 . S
C723 C722 1.394 . S
C723 C724 1.383 . S
C723 H731 0.929 . S
C724 C723 1.383 . S
C724 C725 1.377 . S
C725 H709 0.930 . S
C725 C724 1.377 . S
C725 C726 1.379 . S
C726 H710 0.931 . S
C726 C720 1.383 . S
C726 C725 1.379 . S
H727 C721 0.959 . S
H728 C721 0.961 . S
H729 C721 0.960 . S
H730 C722 0.930 . S
H731 C723 0.929 . S
H732 C740 0.929 . S
H733 C742 0.930 . S
H734 C744 0.930 . S
H735 C747 0.929 . S
H736 C750 0.930 . S
H737 C752 0.953 1_655 S
H738 C752 0.966 . S
H739 C752 0.967 . S
C740 H732 0.929 . S
C740 C741 1.377 . S
C740 C742 1.384 . S
C741 C740 1.377 . S
C741 C747 1.390 . S
C742 H733 0.930 . S
C742 C740 1.384 . S
C742 C743 1.372 . S
C743 C742 1.372 . S
C743 C744 1.400 . S
C743 C748 1.490 . S
C744 H734 0.930 . S
C744 C743 1.400 . S
C744 C747 1.386 . S
H745 C761 0.930 . S
H746 C762 0.931 . S
C747 H735 0.929 . S
C747 C741 1.390 . S
C747 C744 1.386 . S
C748 C743 1.490 . S
C748 C750 1.395 . S
C748 C751 1.403 1_455 S
H749 C755 0.930 . S
C750 H736 0.930 . S
C750 C748 1.395 . S
C750 C753 1.403 1_455 S
C751 C748 1.403 1_655 S
C751 C752 1.518 1_655 S
C751 C755 1.400 . S
C752 H737 0.953 1_455 S
C752 H738 0.966 . S
C752 H739 0.967 . S
C752 C751 1.518 1_455 S
C753 C750 1.403 1_655 S
C753 C754 1.392 . S
C753 C757 1.495 . S
C754 C753 1.392 . S
C754 C755 1.385 . S
C754 C756 1.478 . S
C755 H749 0.930 . S
C755 C751 1.400 . S
C755 C754 1.385 . S
C756 C754 1.478 . S
C756 C758 1.381 . S
C756 C762 1.383 . S
C757 C753 1.495 . S
C757 H763 0.959 1_655 S
C757 H764 0.961 . S
C757 H765 0.960 . S
C758 C756 1.381 . S
C758 C759 1.394 . S
C758 H766 0.930 . S
C759 C758 1.394 . S
C759 C760 1.383 . S
C759 H767 0.929 . S
C760 C759 1.383 . S
C760 C761 1.377 . S
C761 H745 0.930 . S
C761 C760 1.377 . S
C761 C762 1.379 . S
C762 H746 0.931 . S
C762 C756 1.383 . S
C762 C761 1.379 . S
H763 C757 0.959 1_455 S
H764 C757 0.961 . S
H765 C757 0.960 . S
H766 C758 0.930 . S
H767 C759 0.929 . S
H768 C776 0.929 . S
H769 C778 0.930 . S
H770 C780 0.930 . S
H771 C783 0.929 . S
H772 C786 0.930 1_565 S
H773 C788 0.960 . S
H774 C788 0.960 . S
H775 C788 0.960 . S
C776 H768 0.929 . S
C776 C777 1.377 . S
C776 C778 1.384 . S
C777 C776 1.377 . S
C777 C783 1.390 . S
C778 H769 0.930 . S
C778 C776 1.384 . S
C778 C779 1.372 . S
C779 C778 1.372 . S
C779 C780 1.400 . S
C779 C784 1.490 . S
C780 H770 0.930 . S
C780 C779 1.400 . S
C780 C783 1.386 . S
H781 C797 0.930 . S
H782 C798 0.931 . S
C783 H771 0.929 . S
C783 C777 1.390 . S
C783 C780 1.386 . S
C784 C779 1.490 . S
C784 C786 1.395 1_565 S
C784 C787 1.403 . S
H785 C791 0.930 . S
C786 H772 0.930 1_545 S
C786 C784 1.395 1_545 S
C786 C789 1.403 . S
C787 C784 1.403 . S
C787 C788 1.524 . S
C787 C791 1.400 1_565 S
C788 H773 0.960 . S
C788 H774 0.960 . S
C788 H775 0.960 . S
C788 C787 1.524 . S
C789 C786 1.403 . S
C789 C790 1.392 . S
C789 C793 1.495 . S
C790 C789 1.392 . S
C790 C791 1.385 . S
C790 C792 1.478 . S
C791 H785 0.930 . S
C791 C787 1.400 1_545 S
C791 C790 1.385 . S
C792 C790 1.478 . S
C792 C794 1.381 . S
C792 C798 1.383 . S
C793 C789 1.495 . S
C793 H799 0.959 . S
C793 H800 0.961 . S
C793 H801 0.960 . S
C794 C792 1.381 . S
C794 C795 1.394 . S
C794 H802 0.930 . S
C795 C794 1.394 . S
C795 C796 1.383 . S
C795 H803 0.929 . S
C796 C795 1.383 . S
C796 C797 1.377 . S
C797 H781 0.930 . S
C797 C796 1.377 . S
C797 C798 1.379 . S
C798 H782 0.931 . S
C798 C792 1.383 . S
C798 C797 1.379 . S
H799 C793 0.959 . S
H800 C793 0.961 . S
H801 C793 0.960 . S
H802 C794 0.930 . S
H803 C795 0.929 . S
H804 C812 0.929 . S
H805 C814 0.930 . S
H806 C816 0.930 . S
H807 C819 0.929 . S
H808 C822 0.930 . S
H809 C824 0.960 . S
H810 C824 0.960 . S
H811 C824 0.960 . S
C812 H804 0.929 . S
C812 C813 1.377 . S
C812 C814 1.384 . S
C813 C812 1.377 . S
C813 C819 1.390 . S
C814 H805 0.930 . S
C814 C812 1.384 . S
C814 C815 1.372 . S
C815 C814 1.372 . S
C815 C816 1.400 . S
C815 C820 1.490 . S
C816 H806 0.930 . S
C816 C815 1.400 . S
C816 C819 1.386 . S
H817 C833 0.930 . S
H818 C834 0.931 . S
C819 H807 0.929 . S
C819 C813 1.390 . S
C819 C816 1.386 . S
C820 C815 1.490 . S
C820 C822 1.395 . S
C820 C823 1.403 . S
H821 C827 0.930 . S
C822 H808 0.930 . S
C822 C820 1.395 . S
C822 C825 1.403 . S
C823 C820 1.403 . S
C823 C824 1.524 . S
C823 C827 1.400 . S
C824 H809 0.960 . S
C824 H810 0.960 . S
C824 H811 0.960 . S
C824 C823 1.524 . S
C825 C822 1.403 . S
C825 C826 1.392 . S
C825 C829 1.495 . S
C826 C825 1.392 . S
C826 C827 1.385 . S
C826 C828 1.478 . S
C827 H821 0.930 . S
C827 C823 1.400 . S
C827 C826 1.385 . S
C828 C826 1.478 . S
C828 C830 1.381 . S
C828 C834 1.383 . S
C829 C825 1.495 . S
C829 H835 0.959 . S
C829 H836 0.961 . S
C829 H837 0.960 . S
C830 C828 1.381 . S
C830 C831 1.394 . S
C830 H838 0.930 . S
C831 C830 1.394 . S
C831 C832 1.383 . S
C831 H839 0.929 . S
C832 C831 1.383 . S
C832 C833 1.377 . S
C833 H817 0.930 . S
C833 C832 1.377 . S
C833 C834 1.379 . S
C834 H818 0.931 . S
C834 C828 1.383 . S
C834 C833 1.379 . S
H835 C829 0.959 . S
H836 C829 0.961 . S
H837 C829 0.960 . S
H838 C830 0.930 . S
H839 C831 0.929 . S
H840 C848 0.929 . S
H841 C850 0.930 . S
H842 C852 0.930 . S
H843 C855 0.929 . S
H844 C858 0.930 1_455 S
H845 C860 0.960 . S
H846 C860 0.960 . S
H847 C860 0.960 . S
C848 H840 0.929 . S
C848 C849 1.377 . S
C848 C850 1.384 . S
C849 C848 1.377 . S
C849 C855 1.390 . S
C850 H841 0.930 . S
C850 C848 1.384 . S
C850 C851 1.372 . S
C851 C850 1.372 . S
C851 C852 1.400 . S
C851 C856 1.490 . S
C852 H842 0.930 . S
C852 C851 1.400 . S
C852 C855 1.386 . S
H853 C869 0.930 . S
H854 C870 0.931 . S
C855 H843 0.929 . S
C855 C849 1.390 . S
C855 C852 1.386 . S
C856 C851 1.490 . S
C856 C858 1.395 1_455 S
C856 C859 1.403 . S
H857 C863 0.930 . S
C858 H844 0.930 1_655 S
C858 C856 1.395 1_655 S
C858 C861 1.403 . S
C859 C856 1.403 . S
C859 C860 1.524 . S
C859 C863 1.400 1_455 S
C860 H845 0.960 . S
C860 H846 0.960 . S
C860 H847 0.960 . S
C860 C859 1.524 . S
C861 C858 1.403 . S
C861 C862 1.392 . S
C861 C865 1.495 . S
C862 C861 1.392 . S
C862 C863 1.385 . S
C862 C864 1.478 . S
C863 H857 0.930 . S
C863 C859 1.400 1_655 S
C863 C862 1.385 . S
C864 C862 1.478 . S
C864 C866 1.381 . S
C864 C870 1.383 . S
C865 C861 1.495 . S
C865 H871 0.959 . S
C865 H872 0.961 . S
C865 H873 0.960 . S
C866 C864 1.381 . S
C866 C867 1.394 . S
C866 H874 0.930 . S
C867 C866 1.394 . S
C867 C868 1.383 . S
C867 H875 0.929 . S
C868 C867 1.383 . S
C868 C869 1.377 . S
C869 H853 0.930 . S
C869 C868 1.377 . S
C869 C870 1.379 . S
C870 H854 0.931 . S
C870 C864 1.383 . S
C870 C869 1.379 . S
H871 C865 0.959 . S
H872 C865 0.961 . S
H873 C865 0.960 . S
H874 C866 0.930 . S
H875 C867 0.929 . S
H876 C884 0.929 . S
H877 C886 0.930 . S
H878 C888 0.930 . S
H879 C891 0.929 . S
H880 C894 0.930 . S
H881 C896 0.960 1_565 S
H882 C896 0.960 . S
H883 C896 0.960 . S
C884 H876 0.929 . S
C884 C885 1.377 . S
C884 C886 1.384 . S
C885 C884 1.377 . S
C885 C891 1.390 . S
C886 H877 0.930 . S
C886 C884 1.384 . S
C886 C887 1.372 . S
C887 C886 1.372 . S
C887 C888 1.400 . S
C887 C892 1.490 . S
C888 H878 0.930 . S
C888 C887 1.400 . S
C888 C891 1.386 . S
H889 C905 0.930 . S
H890 C906 0.931 . S
C891 H879 0.929 . S
C891 C885 1.390 . S
C891 C888 1.386 . S
C892 C887 1.490 . S
C892 C894 1.395 . S
C892 C895 1.403 . S
H893 C899 0.930 . S
C894 H880 0.930 . S
C894 C892 1.395 . S
C894 C897 1.403 . S
C895 C892 1.403 . S
C895 C896 1.524 . S
C895 C899 1.400 1_545 S
C896 H881 0.960 1_545 S
C896 H882 0.960 . S
C896 H883 0.960 . S
C896 C895 1.524 . S
C897 C894 1.403 . S
C897 C898 1.392 1_545 S
C897 C901 1.493 . S
C898 C897 1.392 1_565 S
C898 C899 1.385 . S
C898 C900 1.478 . S
C899 H893 0.930 . S
C899 C895 1.400 1_565 S
C899 C898 1.385 . S
C900 C898 1.478 . S
C900 C902 1.381 . S
C900 C906 1.383 . S
C901 C897 1.493 . S
C901 H907 0.966 . S
C901 H908 0.957 1_545 S
C901 H909 0.960 1_545 S
C902 C900 1.381 . S
C902 C903 1.394 . S
C902 H910 0.930 . S
C903 C902 1.394 . S
C903 C904 1.383 . S
C903 H911 0.929 . S
C904 C903 1.383 . S
C904 C905 1.377 . S
C905 H889 0.930 . S
C905 C904 1.377 . S
C905 C906 1.379 . S
C906 H890 0.931 . S
C906 C900 1.383 . S
C906 C905 1.379 . S
H907 C901 0.966 . S
H908 C901 0.957 1_565 S
H909 C901 0.960 1_565 S
H910 C902 0.930 . S
H911 C903 0.929 . S
H912 C920 0.929 . S
H913 C922 0.930 . S
H914 C924 0.930 . S
H915 C927 0.929 . S
H916 C930 0.930 . S
H917 C932 0.960 . S
H918 C932 0.960 . S
H919 C932 0.960 . S
C920 H912 0.929 . S
C920 C921 1.377 . S
C920 C922 1.384 . S
C921 C920 1.377 . S
C921 C927 1.390 . S
C922 H913 0.930 . S
C922 C920 1.384 . S
C922 C923 1.372 . S
C923 C922 1.372 . S
C923 C924 1.400 . S
C923 C928 1.490 . S
C924 H914 0.930 . S
C924 C923 1.400 . S
C924 C927 1.386 . S
H925 C941 0.930 . S
H926 C942 0.931 . S
C927 H915 0.929 . S
C927 C921 1.390 . S
C927 C924 1.386 . S
C928 C923 1.490 . S
C928 C930 1.395 . S
C928 C931 1.403 . S
H929 C935 0.930 . S
C930 H916 0.930 . S
C930 C928 1.395 . S
C930 C933 1.403 . S
C931 C928 1.403 . S
C931 C932 1.524 . S
C931 C935 1.400 . S
C932 H917 0.960 . S
C932 H918 0.960 . S
C932 H919 0.960 . S
C932 C931 1.524 . S
C933 C930 1.403 . S
C933 C934 1.392 . S
C933 C937 1.495 . S
C934 C933 1.392 . S
C934 C935 1.385 . S
C934 C936 1.478 . S
C935 H929 0.930 . S
C935 C931 1.400 . S
C935 C934 1.385 . S
C936 C934 1.478 . S
C936 C938 1.381 . S
C936 C942 1.383 . S
C937 C933 1.495 . S
C937 H943 0.959 . S
C937 H944 0.961 . S
C937 H945 0.960 . S
C938 C936 1.381 . S
C938 C939 1.394 . S
C938 H946 0.930 . S
C939 C938 1.394 . S
C939 C940 1.383 . S
C939 H947 0.929 . S
C940 C939 1.383 . S
C940 C941 1.377 . S
C941 H925 0.930 . S
C941 C940 1.377 . S
C941 C942 1.379 . S
C942 H926 0.931 . S
C942 C936 1.383 . S
C942 C941 1.379 . S
H943 C937 0.959 . S
H944 C937 0.961 . S
H945 C937 0.960 . S
H946 C938 0.930 . S
H947 C939 0.929 . S
H948 C956 0.929 . S
H949 C958 0.930 . S
H950 C960 0.930 . S
H951 C963 0.929 . S
H952 C966 0.930 . S
H953 C968 0.960 . S
H954 C968 0.960 . S
H955 C968 0.960 . S
C956 H948 0.929 . S
C956 C957 1.377 . S
C956 C958 1.384 . S
C957 C956 1.377 . S
C957 C963 1.390 . S
C958 H949 0.930 . S
C958 C956 1.384 . S
C958 C959 1.372 . S
C959 C958 1.372 . S
C959 C960 1.400 . S
C959 C964 1.490 . S
C960 H950 0.930 . S
C960 C959 1.400 . S
C960 C963 1.386 . S
H961 C977 0.930 . S
H962 C978 0.931 . S
C963 H951 0.929 . S
C963 C957 1.390 . S
C963 C960 1.386 . S
C964 C959 1.490 . S
C964 C966 1.395 . S
C964 C967 1.403 . S
H965 C971 0.930 . S
C966 H952 0.930 . S
C966 C964 1.395 . S
C966 C969 1.403 . S
C967 C964 1.403 . S
C967 C968 1.524 . S
C967 C971 1.400 . S
C968 H953 0.960 . S
C968 H954 0.960 . S
C968 H955 0.960 . S
C968 C967 1.524 . S
C969 C966 1.403 . S
C969 C970 1.392 . S
C969 C973 1.495 . S
C970 C969 1.392 . S
C970 C971 1.385 . S
C970 C972 1.478 . S
C971 H965 0.930 . S
C971 C967 1.400 . S
C971 C970 1.385 . S
C972 C970 1.478 . S
C972 C974 1.381 . S
C972 C978 1.383 . S
C973 C969 1.495 . S
C973 H979 0.959 . S
C973 H980 0.961 . S
C973 H981 0.960 . S
C974 C972 1.381 . S
C974 C975 1.394 . S
C974 H982 0.930 . S
C975 C974 1.394 . S
C975 C976 1.383 . S
C975 H983 0.929 . S
C976 C975 1.383 . S
C976 C977 1.377 . S
C977 H961 0.930 . S
C977 C976 1.377 . S
C977 C978 1.379 . S
C978 H962 0.931 . S
C978 C972 1.383 . S
C978 C977 1.379 . S
H979 C973 0.959 . S
H980 C973 0.961 . S
H981 C973 0.960 . S
H982 C974 0.930 . S
H983 C975 0.929 . S
H984 C992 0.929 . S
H985 C994 0.930 . S
H986 C996 0.930 . S
H987 C999 0.929 . S
H988 C1002 0.930 . S
H989 C1004 0.960 . S
H990 C1004 0.960 . S
H991 C1004 0.960 . S
C992 H984 0.929 . S
C992 C993 1.377 . S
C992 C994 1.384 . S
C993 C992 1.377 . S
C993 C999 1.390 . S
C994 H985 0.930 . S
C994 C992 1.384 . S
C994 C995 1.372 . S
C995 C994 1.372 . S
C995 C996 1.400 . S
C995 C1000 1.490 . S
C996 H986 0.930 . S
C996 C995 1.400 . S
C996 C999 1.386 . S
H997 C1013 0.930 . S
H998 C1014 0.931 . S
C999 H987 0.929 . S
C999 C993 1.390 . S
C999 C996 1.386 . S
C1000 C995 1.490 . S
C1000 C1002 1.395 . S
C1000 C1003 1.403 . S
H1001 C1007 0.930 . S
C1002 H988 0.930 . S
C1002 C1000 1.395 . S
C1002 C1005 1.403 . S
C1003 C1000 1.403 . S
C1003 C1004 1.524 . S
C1003 C1007 1.400 . S
C1004 H989 0.960 . S
C1004 H990 0.960 . S
C1004 H991 0.960 . S
C1004 C1003 1.524 . S
C1005 C1002 1.403 . S
C1005 C1006 1.392 . S
C1005 C1009 1.495 . S
C1006 C1005 1.392 . S
C1006 C1007 1.385 . S
C1006 C1008 1.478 . S
C1007 H1001 0.930 . S
C1007 C1003 1.400 . S
C1007 C1006 1.385 . S
C1008 C1006 1.478 . S
C1008 C1010 1.381 . S
C1008 C1014 1.383 . S
C1009 C1005 1.495 . S
C1009 H1015 0.959 . S
C1009 H1016 0.961 . S
C1009 H1017 0.960 . S
C1010 C1008 1.381 . S
C1010 C1011 1.394 . S
C1010 H1018 0.930 . S
C1011 C1010 1.394 . S
C1011 C1012 1.383 . S
C1011 H1019 0.929 . S
C1012 C1011 1.383 . S
C1012 C1013 1.377 . S
C1013 H997 0.930 . S
C1013 C1012 1.377 . S
C1013 C1014 1.379 . S
C1014 H998 0.931 . S
C1014 C1008 1.383 . S
C1014 C1013 1.379 . S
H1015 C1009 0.959 . S
H1016 C1009 0.961 . S
H1017 C1009 0.960 . S
H1018 C1010 0.930 . S
H1019 C1011 0.929 . S
H1020 C1028 0.929 . S
H1021 C1030 0.930 . S
H1022 C1032 0.930 . S
H1023 C1035 0.929 . S
H1024 C1038 0.930 . S
H1025 C1040 0.960 . S
H1026 C1040 0.960 . S
H1027 C1040 0.960 . S
C1028 H1020 0.929 . S
C1028 C1029 1.377 . S
C1028 C1030 1.384 . S
C1029 C1028 1.377 . S
C1029 C1035 1.390 . S
C1030 H1021 0.930 . S
C1030 C1028 1.384 . S
C1030 C1031 1.372 . S
C1031 C1030 1.372 . S
C1031 C1032 1.400 . S
C1031 C1036 1.490 . S
C1032 H1022 0.930 . S
C1032 C1031 1.400 . S
C1032 C1035 1.386 . S
H1033 C1049 0.930 . S
H1034 C1050 0.931 . S
C1035 H1023 0.929 . S
C1035 C1029 1.390 . S
C1035 C1032 1.386 . S
C1036 C1031 1.490 . S
C1036 C1038 1.395 . S
C1036 C1039 1.403 . S
H1037 C1043 0.930 . S
C1038 H1024 0.930 . S
C1038 C1036 1.395 . S
C1038 C1041 1.403 . S
C1039 C1036 1.403 . S
C1039 C1040 1.524 . S
C1039 C1043 1.400 . S
C1040 H1025 0.960 . S
C1040 H1026 0.960 . S
C1040 H1027 0.960 . S
C1040 C1039 1.524 . S
C1041 C1038 1.403 . S
C1041 C1042 1.392 . S
C1041 C1045 1.495 . S
C1042 C1041 1.392 . S
C1042 C1043 1.385 . S
C1042 C1044 1.478 . S
C1043 H1037 0.930 . S
C1043 C1039 1.400 . S
C1043 C1042 1.385 . S
C1044 C1042 1.478 . S
C1044 C1046 1.381 . S
C1044 C1050 1.383 . S
C1045 C1041 1.495 . S
C1045 H1051 0.959 . S
C1045 H1052 0.961 . S
C1045 H1053 0.960 . S
C1046 C1044 1.381 . S
C1046 C1047 1.394 . S
C1046 H1054 0.930 . S
C1047 C1046 1.394 . S
C1047 C1048 1.383 . S
C1047 H1055 0.929 . S
C1048 C1047 1.383 . S
C1048 C1049 1.377 . S
C1049 H1033 0.930 . S
C1049 C1048 1.377 . S
C1049 C1050 1.379 . S
C1050 H1034 0.931 . S
C1050 C1044 1.383 . S
C1050 C1049 1.379 . S
H1051 C1045 0.959 . S
H1052 C1045 0.961 . S
H1053 C1045 0.960 . S
H1054 C1046 0.930 . S
H1055 C1047 0.929 . S
H1056 C1064 0.929 . S
H1057 C1066 0.930 . S
H1058 C1068 0.930 . S
H1059 C1071 0.929 . S
H1060 C1074 0.930 . S
H1061 C1076 0.960 . S
H1062 C1076 0.960 . S
H1063 C1076 0.960 . S
C1064 H1056 0.929 . S
C1064 C1065 1.377 . S
C1064 C1066 1.384 . S
C1065 C1064 1.377 . S
C1065 C1071 1.390 . S
C1066 H1057 0.930 . S
C1066 C1064 1.384 . S
C1066 C1067 1.372 . S
C1067 C1066 1.372 . S
C1067 C1068 1.400 . S
C1067 C1072 1.490 . S
C1068 H1058 0.930 . S
C1068 C1067 1.400 . S
C1068 C1071 1.386 . S
H1069 C1085 0.930 . S
H1070 C1086 0.931 . S
C1071 H1059 0.929 . S
C1071 C1065 1.390 . S
C1071 C1068 1.386 . S
C1072 C1067 1.490 . S
C1072 C1074 1.395 . S
C1072 C1075 1.403 . S
H1073 C1079 0.930 . S
C1074 H1060 0.930 . S
C1074 C1072 1.395 . S
C1074 C1077 1.403 . S
C1075 C1072 1.403 . S
C1075 C1076 1.524 . S
C1075 C1079 1.400 . S
C1076 H1061 0.960 . S
C1076 H1062 0.960 . S
C1076 H1063 0.960 . S
C1076 C1075 1.524 . S
C1077 C1074 1.403 . S
C1077 C1078 1.392 . S
C1077 C1081 1.495 . S
C1078 C1077 1.392 . S
C1078 C1079 1.385 . S
C1078 C1080 1.478 . S
C1079 H1073 0.930 . S
C1079 C1075 1.400 . S
C1079 C1078 1.385 . S
C1080 C1078 1.478 . S
C1080 C1082 1.381 . S
C1080 C1086 1.383 . S
C1081 C1077 1.495 . S
C1081 H1087 0.959 . S
C1081 H1088 0.961 . S
C1081 H1089 0.960 . S
C1082 C1080 1.381 . S
C1082 C1083 1.394 . S
C1082 H1090 0.930 . S
C1083 C1082 1.394 . S
C1083 C1084 1.383 . S
C1083 H1091 0.929 . S
C1084 C1083 1.383 . S
C1084 C1085 1.377 . S
C1085 H1069 0.930 . S
C1085 C1084 1.377 . S
C1085 C1086 1.379 . S
C1086 H1070 0.931 . S
C1086 C1080 1.383 . S
C1086 C1085 1.379 . S
H1087 C1081 0.959 . S
H1088 C1081 0.961 . S
H1089 C1081 0.960 . S
H1090 C1082 0.930 . S
H1091 C1083 0.929 . S
H1092 C1100 0.929 . S
H1093 C1102 0.930 . S
H1094 C1104 0.930 . S
H1095 C1107 0.929 . S
H1096 C1110 0.930 . S
H1097 C1112 0.960 . S
H1098 C1112 0.960 . S
H1099 C1112 0.960 . S
C1100 H1092 0.929 . S
C1100 C1101 1.377 . S
C1100 C1102 1.384 . S
C1101 C1100 1.377 . S
C1101 C1107 1.390 . S
C1102 H1093 0.930 . S
C1102 C1100 1.384 . S
C1102 C1103 1.372 . S
C1103 C1102 1.372 . S
C1103 C1104 1.400 . S
C1103 C1108 1.490 . S
C1104 H1094 0.930 . S
C1104 C1103 1.400 . S
C1104 C1107 1.386 . S
H1105 C1121 0.930 . S
H1106 C1122 0.931 . S
C1107 H1095 0.929 . S
C1107 C1101 1.390 . S
C1107 C1104 1.386 . S
C1108 C1103 1.490 . S
C1108 C1110 1.395 . S
C1108 C1111 1.403 . S
H1109 C1115 0.930 . S
C1110 H1096 0.930 . S
C1110 C1108 1.395 . S
C1110 C1113 1.403 . S
C1111 C1108 1.403 . S
C1111 C1112 1.524 . S
C1111 C1115 1.400 . S
C1112 H1097 0.960 . S
C1112 H1098 0.960 . S
C1112 H1099 0.960 . S
C1112 C1111 1.524 . S
C1113 C1110 1.403 . S
C1113 C1114 1.392 . S
C1113 C1117 1.495 . S
C1114 C1113 1.392 . S
C1114 C1115 1.385 . S
C1114 C1116 1.478 . S
C1115 H1109 0.930 . S
C1115 C1111 1.400 . S
C1115 C1114 1.385 . S
C1116 C1114 1.478 . S
C1116 C1118 1.381 . S
C1116 C1122 1.383 . S
C1117 C1113 1.495 . S
C1117 H1123 0.959 . S
C1117 H1124 0.961 . S
C1117 H1125 0.960 . S
C1118 C1116 1.381 . S
C1118 C1119 1.394 . S
C1118 H1126 0.930 . S
C1119 C1118 1.394 . S
C1119 C1120 1.383 . S
C1119 H1127 0.929 . S
C1120 C1119 1.383 . S
C1120 C1121 1.377 . S
C1121 H1105 0.930 . S
C1121 C1120 1.377 . S
C1121 C1122 1.379 . S
C1122 H1106 0.931 . S
C1122 C1116 1.383 . S
C1122 C1121 1.379 . S
H1123 C1117 0.959 . S
H1124 C1117 0.961 . S
H1125 C1117 0.960 . S
H1126 C1118 0.930 . S
H1127 C1119 0.929 . S
H1128 C1136 0.929 . S
H1129 C1138 0.930 . S
H1130 C1140 0.930 . S
H1131 C1143 0.929 . S
H1132 C1146 0.930 . S
H1133 C1148 0.960 . S
H1134 C1148 0.960 . S
H1135 C1148 0.960 1_565 S
C1136 H1128 0.929 . S
C1136 C1137 1.377 . S
C1136 C1138 1.384 . S
C1137 C1136 1.377 . S
C1137 C1143 1.390 . S
C1138 H1129 0.930 . S
C1138 C1136 1.384 . S
C1138 C1139 1.372 . S
C1139 C1138 1.372 . S
C1139 C1140 1.400 . S
C1139 C1144 1.490 . S
C1140 H1130 0.930 . S
C1140 C1139 1.400 . S
C1140 C1143 1.386 . S
H1141 C1157 0.930 . S
H1142 C1158 0.931 . S
C1143 H1131 0.929 . S
C1143 C1137 1.390 . S
C1143 C1140 1.386 . S
C1144 C1139 1.490 . S
C1144 C1146 1.395 . S
C1144 C1147 1.407 . S
H1145 C1151 0.930 . S
C1146 H1132 0.930 . S
C1146 C1144 1.395 . S
C1146 C1149 1.401 1_566 S
C1147 C1144 1.407 . S
C1147 C1148 1.529 1_565 S
C1147 C1151 1.390 1_566 S
C1148 H1133 0.960 . S
C1148 H1134 0.960 . S
C1148 H1135 0.960 1_545 S
C1148 C1147 1.529 1_545 S
C1149 C1146 1.401 1_544 S
C1149 C1150 1.393 . S
C1149 C1153 1.506 1_545 S
C1150 C1149 1.393 . S
C1150 C1151 1.385 . S
C1150 C1152 1.478 . S
C1151 H1145 0.930 . S
C1151 C1147 1.390 1_544 S
C1151 C1150 1.385 . S
C1152 C1150 1.478 . S
C1152 C1154 1.381 . S
C1152 C1158 1.383 . S
C1153 C1149 1.506 1_565 S
C1153 H1159 0.968 . S
C1153 H1160 0.968 . S
C1153 H1161 0.935 1_565 S
C1154 C1152 1.381 . S
C1154 C1155 1.394 . S
C1154 H1162 0.930 . S
C1155 C1154 1.394 . S
C1155 C1156 1.383 . S
C1155 H1163 0.929 . S
C1156 C1155 1.383 . S
C1156 C1157 1.377 . S
C1157 H1141 0.930 . S
C1157 C1156 1.377 . S
C1157 C1158 1.379 . S
C1158 H1142 0.931 . S
C1158 C1152 1.383 . S
C1158 C1157 1.379 . S
H1159 C1153 0.968 . S
H1160 C1153 0.968 . S
H1161 C1153 0.935 1_545 S
H1162 C1154 0.930 . S
H1163 C1155 0.929 . S
H1164 C1172 0.929 . S
H1165 C1174 0.930 . S
H1166 C1176 0.930 . S
H1167 C1179 0.929 . S
H1168 C1182 0.930 . S
H1169 C1184 0.960 . S
H1170 C1184 0.960 . S
H1171 C1184 0.960 . S
C1172 H1164 0.929 . S
C1172 C1173 1.377 . S
C1172 C1174 1.384 . S
C1173 C1172 1.377 . S
C1173 C1179 1.390 . S
C1174 H1165 0.930 . S
C1174 C1172 1.384 . S
C1174 C1175 1.372 . S
C1175 C1174 1.372 . S
C1175 C1176 1.400 . S
C1175 C1180 1.490 . S
C1176 H1166 0.930 . S
C1176 C1175 1.400 . S
C1176 C1179 1.386 . S
H1177 C1193 0.930 . S
H1178 C1194 0.931 . S
C1179 H1167 0.929 . S
C1179 C1173 1.390 . S
C1179 C1176 1.386 . S
C1180 C1175 1.490 . S
C1180 C1182 1.395 . S
C1180 C1183 1.403 . S
H1181 C1187 0.930 . S
C1182 H1168 0.930 . S
C1182 C1180 1.395 . S
C1182 C1185 1.403 . S
C1183 C1180 1.403 . S
C1183 C1184 1.524 . S
C1183 C1187 1.400 . S
C1184 H1169 0.960 . S
C1184 H1170 0.960 . S
C1184 H1171 0.960 . S
C1184 C1183 1.524 . S
C1185 C1182 1.403 . S
C1185 C1186 1.392 . S
C1185 C1189 1.495 . S
C1186 C1185 1.392 . S
C1186 C1187 1.385 . S
C1186 C1188 1.478 . S
C1187 H1181 0.930 . S
C1187 C1183 1.400 . S
C1187 C1186 1.385 . S
C1188 C1186 1.478 . S
C1188 C1190 1.381 . S
C1188 C1194 1.383 . S
C1189 C1185 1.495 . S
C1189 H1195 0.959 . S
C1189 H1196 0.961 . S
C1189 H1197 0.960 . S
C1190 C1188 1.381 . S
C1190 C1191 1.394 . S
C1190 H1198 0.930 . S
C1191 C1190 1.394 . S
C1191 C1192 1.383 . S
C1191 H1199 0.929 . S
C1192 C1191 1.383 . S
C1192 C1193 1.377 . S
C1193 H1177 0.930 . S
C1193 C1192 1.377 . S
C1193 C1194 1.379 . S
C1194 H1178 0.931 . S
C1194 C1188 1.383 . S
C1194 C1193 1.379 . S
H1195 C1189 0.959 . S
H1196 C1189 0.961 . S
H1197 C1189 0.960 . S
H1198 C1190 0.930 . S
H1199 C1191 0.929 . S
H1200 C1208 0.929 . S
H1201 C1210 0.930 . S
H1202 C1212 0.930 . S
H1203 C1215 0.929 . S
H1204 C1218 0.930 . S
H1205 C1220 0.960 . S
H1206 C1220 0.960 . S
H1207 C1220 0.960 1_455 S
C1208 H1200 0.929 . S
C1208 C1209 1.377 . S
C1208 C1210 1.384 . S
C1209 C1208 1.377 . S
C1209 C1215 1.390 . S
C1210 H1201 0.930 . S
C1210 C1208 1.384 . S
C1210 C1211 1.372 . S
C1211 C1210 1.372 . S
C1211 C1212 1.400 . S
C1211 C1216 1.490 . S
C1212 H1202 0.930 . S
C1212 C1211 1.400 . S
C1212 C1215 1.386 . S
H1213 C1229 0.930 . S
H1214 C1230 0.931 . S
C1215 H1203 0.929 . S
C1215 C1209 1.390 . S
C1215 C1212 1.386 . S
C1216 C1211 1.490 . S
C1216 C1218 1.366 1_556 S
C1216 C1219 1.403 1_455 S
H1217 C1223 0.933 . S
C1218 H1204 0.930 . S
C1218 C1216 1.366 1_554 S
C1218 C1221 1.433 . S
C1219 C1216 1.403 1_655 S
C1219 C1220 1.524 . S
C1219 C1223 1.356 1_556 S
C1220 H1205 0.960 . S
C1220 H1206 0.960 . S
C1220 H1207 0.960 1_655 S
C1220 C1219 1.524 . S
C1221 C1218 1.433 . S
C1221 C1222 1.392 1_455 S
C1221 C1225 1.495 . S
C1222 C1221 1.392 1_655 S
C1222 C1223 1.430 . S
C1222 C1224 1.478 . S
C1223 H1217 0.933 . S
C1223 C1219 1.356 1_554 S
C1223 C1222 1.430 . S
C1224 C1222 1.478 . S
C1224 C1226 1.381 . S
C1224 C1230 1.383 . S
C1225 C1221 1.495 . S
C1225 H1231 0.959 . S
C1225 H1232 0.961 . S
C1225 H1233 0.960 1_455 S
C1226 C1224 1.381 . S
C1226 C1227 1.394 . S
C1226 H1234 0.930 . S
C1227 C1226 1.394 . S
C1227 C1228 1.383 . S
C1227 H1235 0.929 . S
C1228 C1227 1.383 . S
C1228 C1229 1.377 . S
C1229 H1213 0.930 . S
C1229 C1228 1.377 . S
C1229 C1230 1.379 . S
C1230 H1214 0.931 . S
C1230 C1224 1.383 . S
C1230 C1229 1.379 . S
H1231 C1225 0.959 . S
H1232 C1225 0.961 . S
H1233 C1225 0.960 1_655 S
H1234 C1226 0.930 . S
H1235 C1227 0.929 . S
H1236 C1244 0.929 . S
H1237 C1246 0.930 . S
H1238 C1248 0.930 . S
H1239 C1251 0.929 . S
H1240 C1254 0.930 . S
H1241 C1256 0.960 . S
H1242 C1256 0.960 . S
H1243 C1256 0.960 . S
C1244 H1236 0.929 . S
C1244 C1245 1.377 . S
C1244 C1246 1.384 . S
C1245 C1244 1.377 . S
C1245 C1251 1.390 . S
C1246 H1237 0.930 . S
C1246 C1244 1.384 . S
C1246 C1247 1.372 . S
C1247 C1246 1.372 . S
C1247 C1248 1.400 . S
C1247 C1252 1.490 . S
C1248 H1238 0.930 . S
C1248 C1247 1.400 . S
C1248 C1251 1.386 . S
H1249 C1265 0.930 . S
H1250 C1266 0.931 . S
C1251 H1239 0.929 . S
C1251 C1245 1.390 . S
C1251 C1248 1.386 . S
C1252 C1247 1.490 . S
C1252 C1254 1.395 . S
C1252 C1255 1.403 1_545 S
H1253 C1259 0.930 . S
C1254 H1240 0.930 . S
C1254 C1252 1.395 . S
C1254 C1257 1.403 . S
C1255 C1252 1.403 1_565 S
C1255 C1256 1.524 . S
C1255 C1259 1.400 . S
C1256 H1241 0.960 . S
C1256 H1242 0.960 . S
C1256 H1243 0.960 . S
C1256 C1255 1.524 . S
C1257 C1254 1.403 . S
C1257 C1258 1.392 1_545 S
C1257 C1261 1.495 . S
C1258 C1257 1.392 1_565 S
C1258 C1259 1.385 . S
C1258 C1260 1.478 . S
C1259 H1253 0.930 . S
C1259 C1255 1.400 . S
C1259 C1258 1.385 . S
C1260 C1258 1.478 . S
C1260 C1262 1.381 . S
C1260 C1266 1.383 . S
C1261 C1257 1.495 . S
C1261 H1267 0.959 . S
C1261 H1268 0.961 . S
C1261 H1269 0.960 . S
C1262 C1260 1.381 . S
C1262 C1263 1.394 . S
C1262 H1270 0.930 . S
C1263 C1262 1.394 . S
C1263 C1264 1.383 . S
C1263 H1271 0.929 . S
C1264 C1263 1.383 . S
C1264 C1265 1.377 . S
C1265 H1249 0.930 . S
C1265 C1264 1.377 . S
C1265 C1266 1.379 . S
C1266 H1250 0.931 . S
C1266 C1260 1.383 . S
C1266 C1265 1.379 . S
H1267 C1261 0.959 . S
H1268 C1261 0.961 . S
H1269 C1261 0.960 . S
H1270 C1262 0.930 . S
H1271 C1263 0.929 . S
H1272 C1280 0.929 . S
H1273 C1282 0.930 . S
H1274 C1284 0.930 . S
H1275 C1287 0.929 . S
H1276 C1290 0.930 . S
H1277 C1292 0.960 . S
H1278 C1292 0.960 1_554 S
H1279 C1292 0.960 . S
C1280 H1272 0.929 . S
C1280 C1281 1.377 . S
C1280 C1282 1.384 . S
C1281 C1280 1.377 . S
C1281 C1287 1.390 . S
C1282 H1273 0.930 . S
C1282 C1280 1.384 . S
C1282 C1283 1.372 . S
C1283 C1282 1.372 . S
C1283 C1284 1.400 . S
C1283 C1288 1.490 . S
C1284 H1274 0.930 . S
C1284 C1283 1.400 . S
C1284 C1287 1.386 . S
H1285 C1301 0.930 . S
H1286 C1302 0.931 . S
C1287 H1275 0.929 . S
C1287 C1281 1.390 . S
C1287 C1284 1.386 . S
C1288 C1283 1.490 . S
C1288 C1290 1.395 . S
C1288 C1291 1.403 1_554 S
H1289 C1295 0.930 . S
C1290 H1276 0.930 . S
C1290 C1288 1.395 . S
C1290 C1293 1.403 . S
C1291 C1288 1.403 1_556 S
C1291 C1292 1.524 . S
C1291 C1295 1.400 . S
C1292 H1277 0.960 . S
C1292 H1278 0.960 1_556 S
C1292 H1279 0.960 . S
C1292 C1291 1.524 . S
C1293 C1290 1.403 . S
C1293 C1294 1.392 1_554 S
C1293 C1297 1.495 . S
C1294 C1293 1.392 1_556 S
C1294 C1295 1.385 . S
C1294 C1296 1.478 . S
C1295 H1289 0.930 . S
C1295 C1291 1.400 . S
C1295 C1294 1.385 . S
C1296 C1294 1.478 . S
C1296 C1298 1.381 . S
C1296 C1302 1.383 . S
C1297 C1293 1.495 . S
C1297 H1303 0.959 . S
C1297 H1304 0.961 . S
C1297 H1305 0.960 . S
C1298 C1296 1.381 . S
C1298 C1299 1.394 . S
C1298 H1306 0.930 . S
C1299 C1298 1.394 . S
C1299 C1300 1.383 . S
C1299 H1307 0.929 . S
C1300 C1299 1.383 . S
C1300 C1301 1.377 . S
C1301 H1285 0.930 . S
C1301 C1300 1.377 . S
C1301 C1302 1.379 . S
C1302 H1286 0.931 . S
C1302 C1296 1.383 . S
C1302 C1301 1.379 . S
H1303 C1297 0.959 . S
H1304 C1297 0.961 . S
H1305 C1297 0.960 . S
H1306 C1298 0.930 . S
H1307 C1299 0.929 . S
H1308 C1316 0.929 . S
H1309 C1318 0.930 . S
H1310 C1320 0.930 . S
H1311 C1323 0.929 . S
H1312 C1326 0.930 . S
H1313 C1328 0.960 . S
H1314 C1328 0.960 1_455 S
H1315 C1328 0.960 . S
C1316 H1308 0.929 . S
C1316 C1317 1.377 . S
C1316 C1318 1.384 . S
C1317 C1316 1.377 . S
C1317 C1323 1.390 . S
C1318 H1309 0.930 . S
C1318 C1316 1.384 . S
C1318 C1319 1.372 . S
C1319 C1318 1.372 . S
C1319 C1320 1.400 . S
C1319 C1324 1.490 . S
C1320 H1310 0.930 . S
C1320 C1319 1.400 . S
C1320 C1323 1.386 . S
H1321 C1337 0.930 . S
H1322 C1338 0.931 . S
C1323 H1311 0.929 . S
C1323 C1317 1.390 . S
C1323 C1320 1.386 . S
C1324 C1319 1.490 . S
C1324 C1326 1.395 . S
C1324 C1327 1.403 1_455 S
H1325 C1331 0.930 . S
C1326 H1312 0.930 . S
C1326 C1324 1.395 . S
C1326 C1329 1.403 . S
C1327 C1324 1.403 1_655 S
C1327 C1328 1.524 . S
C1327 C1331 1.400 . S
C1328 H1313 0.960 . S
C1328 H1314 0.960 1_655 S
C1328 H1315 0.960 . S
C1328 C1327 1.524 . S
C1329 C1326 1.403 . S
C1329 C1330 1.392 1_455 S
C1329 C1333 1.495 . S
C1330 C1329 1.392 1_655 S
C1330 C1331 1.385 . S
C1330 C1332 1.478 . S
C1331 H1325 0.930 . S
C1331 C1327 1.400 . S
C1331 C1330 1.385 . S
C1332 C1330 1.478 . S
C1332 C1334 1.381 . S
C1332 C1338 1.383 . S
C1333 C1329 1.495 . S
C1333 H1339 0.959 . S
C1333 H1340 0.961 1_455 S
C1333 H1341 0.960 . S
C1334 C1332 1.381 . S
C1334 C1335 1.394 . S
C1334 H1342 0.930 . S
C1335 C1334 1.394 . S
C1335 C1336 1.383 . S
C1335 H1343 0.929 . S
C1336 C1335 1.383 . S
C1336 C1337 1.377 . S
C1337 H1321 0.930 . S
C1337 C1336 1.377 . S
C1337 C1338 1.379 . S
C1338 H1322 0.931 . S
C1338 C1332 1.383 . S
C1338 C1337 1.379 . S
H1339 C1333 0.959 . S
H1340 C1333 0.961 1_655 S
H1341 C1333 0.960 . S
H1342 C1334 0.930 . S
H1343 C1335 0.929 . S
H1344 C1352 0.929 . S
H1345 C1354 0.930 . S
H1346 C1356 0.930 . S
H1347 C1359 0.929 . S
H1348 C1362 0.930 . S
H1349 C1364 0.960 . S
H1350 C1364 0.960 . S
H1351 C1364 0.960 . S
C1352 H1344 0.929 . S
C1352 C1353 1.377 . S
C1352 C1354 1.384 . S
C1353 C1352 1.377 . S
C1353 C1359 1.390 . S
C1354 H1345 0.930 . S
C1354 C1352 1.384 . S
C1354 C1355 1.372 . S
C1355 C1354 1.372 . S
C1355 C1356 1.400 . S
C1355 C1360 1.490 . S
C1356 H1346 0.930 . S
C1356 C1355 1.400 . S
C1356 C1359 1.386 . S
H1357 C1373 0.930 . S
H1358 C1374 0.931 . S
C1359 H1347 0.929 . S
C1359 C1353 1.390 . S
C1359 C1356 1.386 . S
C1360 C1355 1.490 . S
C1360 C1362 1.395 . S
C1360 C1363 1.403 . S
H1361 C1367 0.930 . S
C1362 H1348 0.930 . S
C1362 C1360 1.395 . S
C1362 C1365 1.403 . S
C1363 C1360 1.403 . S
C1363 C1364 1.524 . S
C1363 C1367 1.400 . S
C1364 H1349 0.960 . S
C1364 H1350 0.960 . S
C1364 H1351 0.960 . S
C1364 C1363 1.524 . S
C1365 C1362 1.403 . S
C1365 C1366 1.392 . S
C1365 C1369 1.495 . S
C1366 C1365 1.392 . S
C1366 C1367 1.385 . S
C1366 C1368 1.478 . S
C1367 H1361 0.930 . S
C1367 C1363 1.400 . S
C1367 C1366 1.385 . S
C1368 C1366 1.478 . S
C1368 C1370 1.381 . S
C1368 C1374 1.383 . S
C1369 C1365 1.495 . S
C1369 H1375 0.959 . S
C1369 H1376 0.961 . S
C1369 H1377 0.960 . S
C1370 C1368 1.381 . S
C1370 C1371 1.394 . S
C1370 H1378 0.930 . S
C1371 C1370 1.394 . S
C1371 C1372 1.383 . S
C1371 H1379 0.929 . S
C1372 C1371 1.383 . S
C1372 C1373 1.377 . S
C1373 H1357 0.930 . S
C1373 C1372 1.377 . S
C1373 C1374 1.379 . S
C1374 H1358 0.931 . S
C1374 C1368 1.383 . S
C1374 C1373 1.379 . S
H1375 C1369 0.959 . S
H1376 C1369 0.961 . S
H1377 C1369 0.960 . S
H1378 C1370 0.930 . S
H1379 C1371 0.929 . S
H1380 C1388 0.929 . S
H1381 C1390 0.930 . S
H1382 C1392 0.930 . S
H1383 C1395 0.929 . S
H1384 C1398 0.930 . S
H1385 C1400 0.960 . S
H1386 C1400 0.960 . S
H1387 C1400 0.960 . S
C1388 H1380 0.929 . S
C1388 C1389 1.377 . S
C1388 C1390 1.384 . S
C1389 C1388 1.377 . S
C1389 C1395 1.390 . S
C1390 H1381 0.930 . S
C1390 C1388 1.384 . S
C1390 C1391 1.372 . S
C1391 C1390 1.372 . S
C1391 C1392 1.400 . S
C1391 C1396 1.490 . S
C1392 H1382 0.930 . S
C1392 C1391 1.400 . S
C1392 C1395 1.386 . S
H1393 C1409 0.930 . S
H1394 C1410 0.931 . S
C1395 H1383 0.929 . S
C1395 C1389 1.390 . S
C1395 C1392 1.386 . S
C1396 C1391 1.490 . S
C1396 C1398 1.395 . S
C1396 C1399 1.403 . S
H1397 C1403 0.930 . S
C1398 H1384 0.930 . S
C1398 C1396 1.395 . S
C1398 C1401 1.403 . S
C1399 C1396 1.403 . S
C1399 C1400 1.524 . S
C1399 C1403 1.400 . S
C1400 H1385 0.960 . S
C1400 H1386 0.960 . S
C1400 H1387 0.960 . S
C1400 C1399 1.524 . S
C1401 C1398 1.403 . S
C1401 C1402 1.392 . S
C1401 C1405 1.495 . S
C1402 C1401 1.392 . S
C1402 C1403 1.385 . S
C1402 C1404 1.478 . S
C1403 H1397 0.930 . S
C1403 C1399 1.400 . S
C1403 C1402 1.385 . S
C1404 C1402 1.478 . S
C1404 C1406 1.381 . S
C1404 C1410 1.383 . S
C1405 C1401 1.495 . S
C1405 H1411 0.959 . S
C1405 H1412 0.961 . S
C1405 H1413 0.960 . S
C1406 C1404 1.381 . S
C1406 C1407 1.394 . S
C1406 H1414 0.930 . S
C1407 C1406 1.394 . S
C1407 C1408 1.383 . S
C1407 H1415 0.929 . S
C1408 C1407 1.383 . S
C1408 C1409 1.377 . S
C1409 H1393 0.930 . S
C1409 C1408 1.377 . S
C1409 C1410 1.379 . S
C1410 H1394 0.931 . S
C1410 C1404 1.383 . S
C1410 C1409 1.379 . S
H1411 C1405 0.959 . S
H1412 C1405 0.961 . S
H1413 C1405 0.960 . S
H1414 C1406 0.930 . S
H1415 C1407 0.929 . S
H1416 C1424 0.929 . S
H1417 C1426 0.930 . S
H1418 C1428 0.930 . S
H1419 C1431 0.929 . S
H1420 C1434 0.930 . S
H1421 C1436 0.960 . S
H1422 C1436 0.960 . S
H1423 C1436 0.960 . S
C1424 H1416 0.929 . S
C1424 C1425 1.377 . S
C1424 C1426 1.384 . S
C1425 C1424 1.377 . S
C1425 C1431 1.390 . S
C1426 H1417 0.930 . S
C1426 C1424 1.384 . S
C1426 C1427 1.372 . S
C1427 C1426 1.372 . S
C1427 C1428 1.400 . S
C1427 C1432 1.490 . S
C1428 H1418 0.930 . S
C1428 C1427 1.400 . S
C1428 C1431 1.386 . S
H1429 C1445 0.930 . S
H1430 C1446 0.931 . S
C1431 H1419 0.929 . S
C1431 C1425 1.390 . S
C1431 C1428 1.386 . S
C1432 C1427 1.490 . S
C1432 C1434 1.395 . S
C1432 C1435 1.403 . S
H1433 C1439 0.930 . S
C1434 H1420 0.930 . S
C1434 C1432 1.395 . S
C1434 C1437 1.403 . S
C1435 C1432 1.403 . S
C1435 C1436 1.524 . S
C1435 C1439 1.400 . S
C1436 H1421 0.960 . S
C1436 H1422 0.960 . S
C1436 H1423 0.960 . S
C1436 C1435 1.524 . S
C1437 C1434 1.403 . S
C1437 C1438 1.392 . S
C1437 C1441 1.495 . S
C1438 C1437 1.392 . S
C1438 C1439 1.385 . S
C1438 C1440 1.478 . S
C1439 H1433 0.930 . S
C1439 C1435 1.400 . S
C1439 C1438 1.385 . S
C1440 C1438 1.478 . S
C1440 C1442 1.381 . S
C1440 C1446 1.383 . S
C1441 C1437 1.495 . S
C1441 H1447 0.959 . S
C1441 H1448 0.961 . S
C1441 H1449 0.960 . S
C1442 C1440 1.381 . S
C1442 C1443 1.394 . S
C1442 H1450 0.930 . S
C1443 C1442 1.394 . S
C1443 C1444 1.383 . S
C1443 H1451 0.929 . S
C1444 C1443 1.383 . S
C1444 C1445 1.377 . S
C1445 H1429 0.930 . S
C1445 C1444 1.377 . S
C1445 C1446 1.379 . S
C1446 H1430 0.931 . S
C1446 C1440 1.383 . S
C1446 C1445 1.379 . S
H1447 C1441 0.959 . S
H1448 C1441 0.961 . S
H1449 C1441 0.960 . S
H1450 C1442 0.930 . S
H1451 C1443 0.929 . S
H1452 C1460 0.929 . S
H1453 C1462 0.930 . S
H1454 C1464 0.930 . S
H1455 C1467 0.929 . S
H1456 C1470 0.930 . S
H1457 C1472 0.960 . S
H1458 C1472 0.960 . S
H1459 C1472 0.960 . S
C1460 H1452 0.929 . S
C1460 C1461 1.377 . S
C1460 C1462 1.384 . S
C1461 C1460 1.377 . S
C1461 C1467 1.390 . S
C1462 H1453 0.930 . S
C1462 C1460 1.384 . S
C1462 C1463 1.372 . S
C1463 C1462 1.372 . S
C1463 C1464 1.400 . S
C1463 C1468 1.490 . S
C1464 H1454 0.930 . S
C1464 C1463 1.400 . S
C1464 C1467 1.386 . S
H1465 C1481 0.930 . S
H1466 C1482 0.931 . S
C1467 H1455 0.929 . S
C1467 C1461 1.390 . S
C1467 C1464 1.386 . S
C1468 C1463 1.490 . S
C1468 C1470 1.395 . S
C1468 C1471 1.403 . S
H1469 C1475 0.930 . S
C1470 H1456 0.930 . S
C1470 C1468 1.395 . S
C1470 C1473 1.403 . S
C1471 C1468 1.403 . S
C1471 C1472 1.524 . S
C1471 C1475 1.400 . S
C1472 H1457 0.960 . S
C1472 H1458 0.960 . S
C1472 H1459 0.960 . S
C1472 C1471 1.524 . S
C1473 C1470 1.403 . S
C1473 C1474 1.392 . S
C1473 C1477 1.495 . S
C1474 C1473 1.392 . S
C1474 C1475 1.385 . S
C1474 C1476 1.478 . S
C1475 H1469 0.930 . S
C1475 C1471 1.400 . S
C1475 C1474 1.385 . S
C1476 C1474 1.478 . S
C1476 C1478 1.381 . S
C1476 C1482 1.383 . S
C1477 C1473 1.495 . S
C1477 H1483 0.959 . S
C1477 H1484 0.961 . S
C1477 H1485 0.960 . S
C1478 C1476 1.381 . S
C1478 C1479 1.394 . S
C1478 H1486 0.930 . S
C1479 C1478 1.394 . S
C1479 C1480 1.383 . S
C1479 H1487 0.929 . S
C1480 C1479 1.383 . S
C1480 C1481 1.377 . S
C1481 H1465 0.930 . S
C1481 C1480 1.377 . S
C1481 C1482 1.379 . S
C1482 H1466 0.931 . S
C1482 C1476 1.383 . S
C1482 C1481 1.379 . S
H1483 C1477 0.959 . S
H1484 C1477 0.961 . S
H1485 C1477 0.960 . S
H1486 C1478 0.930 . S
H1487 C1479 0.929 . S
H1488 C1496 0.929 . S
H1489 C1498 0.930 . S
H1490 C1500 0.930 . S
H1491 C1503 0.929 . S
H1492 C1506 0.930 . S
H1493 C1508 0.960 . S
H1494 C1508 0.960 . S
H1495 C1508 0.960 . S
C1496 H1488 0.929 . S
C1496 C1497 1.377 . S
C1496 C1498 1.384 . S
C1497 C1496 1.377 . S
C1497 C1503 1.390 . S
C1498 H1489 0.930 . S
C1498 C1496 1.384 . S
C1498 C1499 1.372 . S
C1499 C1498 1.372 . S
C1499 C1500 1.400 . S
C1499 C1504 1.490 . S
C1500 H1490 0.930 . S
C1500 C1499 1.400 . S
C1500 C1503 1.386 . S
H1501 C1517 0.930 . S
H1502 C1518 0.931 . S
C1503 H1491 0.929 . S
C1503 C1497 1.390 . S
C1503 C1500 1.386 . S
C1504 C1499 1.490 . S
C1504 C1506 1.395 . S
C1504 C1507 1.403 . S
H1505 C1511 0.930 . S
C1506 H1492 0.930 . S
C1506 C1504 1.395 . S
C1506 C1509 1.403 . S
C1507 C1504 1.403 . S
C1507 C1508 1.524 . S
C1507 C1511 1.400 . S
C1508 H1493 0.960 . S
C1508 H1494 0.960 . S
C1508 H1495 0.960 . S
C1508 C1507 1.524 . S
C1509 C1506 1.403 . S
C1509 C1510 1.392 . S
C1509 C1513 1.495 . S
C1510 C1509 1.392 . S
C1510 C1511 1.385 . S
C1510 C1512 1.478 . S
C1511 H1505 0.930 . S
C1511 C1507 1.400 . S
C1511 C1510 1.385 . S
C1512 C1510 1.478 . S
C1512 C1514 1.381 . S
C1512 C1518 1.383 . S
C1513 C1509 1.495 . S
C1513 H1519 0.959 . S
C1513 H1520 0.961 . S
C1513 H1521 0.960 . S
C1514 C1512 1.381 . S
C1514 C1515 1.394 . S
C1514 H1522 0.930 . S
C1515 C1514 1.394 . S
C1515 C1516 1.383 . S
C1515 H1523 0.929 . S
C1516 C1515 1.383 . S
C1516 C1517 1.377 . S
C1517 H1501 0.930 . S
C1517 C1516 1.377 . S
C1517 C1518 1.379 . S
C1518 H1502 0.931 . S
C1518 C1512 1.383 . S
C1518 C1517 1.379 . S
H1519 C1513 0.959 . S
H1520 C1513 0.961 . S
H1521 C1513 0.960 . S
H1522 C1514 0.930 . S
H1523 C1515 0.929 . S
H1524 C1532 0.929 . S
H1525 C1534 0.930 . S
H1526 C1536 0.930 . S
H1527 C1539 0.929 . S
H1528 C1542 0.930 . S
H1529 C1544 0.960 . S
H1530 C1544 0.960 . S
H1531 C1544 0.960 . S
C1532 H1524 0.929 . S
C1532 C1533 1.377 . S
C1532 C1534 1.384 . S
C1533 C1532 1.377 . S
C1533 C1539 1.390 . S
C1534 H1525 0.930 . S
C1534 C1532 1.384 . S
C1534 C1535 1.372 . S
C1535 C1534 1.372 . S
C1535 C1536 1.400 . S
C1535 C1540 1.490 . S
C1536 H1526 0.930 . S
C1536 C1535 1.400 . S
C1536 C1539 1.386 . S
H1537 C1553 0.930 . S
H1538 C1554 0.931 . S
C1539 H1527 0.929 . S
C1539 C1533 1.390 . S
C1539 C1536 1.386 . S
C1540 C1535 1.490 . S
C1540 C1542 1.395 . S
C1540 C1543 1.403 . S
H1541 C1547 0.930 . S
C1542 H1528 0.930 . S
C1542 C1540 1.395 . S
C1542 C1545 1.403 . S
C1543 C1540 1.403 . S
C1543 C1544 1.524 . S
C1543 C1547 1.400 . S
C1544 H1529 0.960 . S
C1544 H1530 0.960 . S
C1544 H1531 0.960 . S
C1544 C1543 1.524 . S
C1545 C1542 1.403 . S
C1545 C1546 1.392 . S
C1545 C1549 1.495 . S
C1546 C1545 1.392 . S
C1546 C1547 1.385 . S
C1546 C1548 1.478 . S
C1547 H1541 0.930 . S
C1547 C1543 1.400 . S
C1547 C1546 1.385 . S
C1548 C1546 1.478 . S
C1548 C1550 1.381 . S
C1548 C1554 1.383 . S
C1549 C1545 1.495 . S
C1549 H1555 0.959 . S
C1549 H1556 0.961 . S
C1549 H1557 0.960 . S
C1550 C1548 1.381 . S
C1550 C1551 1.394 . S
C1550 H1558 0.930 . S
C1551 C1550 1.394 . S
C1551 C1552 1.383 . S
C1551 H1559 0.929 . S
C1552 C1551 1.383 . S
C1552 C1553 1.377 . S
C1553 H1537 0.930 . S
C1553 C1552 1.377 . S
C1553 C1554 1.379 . S
C1554 H1538 0.931 . S
C1554 C1548 1.383 . S
C1554 C1553 1.379 . S
H1555 C1549 0.959 . S
H1556 C1549 0.961 . S
H1557 C1549 0.960 . S
H1558 C1550 0.930 . S
H1559 C1551 0.929 . S
H1560 C1568 0.929 . S
H1561 C1570 0.930 . S
H1562 C1572 0.930 . S
H1563 C1575 0.929 . S
H1564 C1578 0.930 . S
H1565 C1580 0.960 . S
H1566 C1580 0.960 . S
H1567 C1580 0.960 . S
C1568 H1560 0.929 . S
C1568 C1569 1.377 . S
C1568 C1570 1.384 . S
C1569 C1568 1.377 . S
C1569 C1575 1.390 . S
C1570 H1561 0.930 . S
C1570 C1568 1.384 . S
C1570 C1571 1.372 . S
C1571 C1570 1.372 . S
C1571 C1572 1.400 . S
C1571 C1576 1.490 . S
C1572 H1562 0.930 . S
C1572 C1571 1.400 . S
C1572 C1575 1.386 . S
H1573 C1589 0.930 . S
H1574 C1590 0.931 . S
C1575 H1563 0.929 . S
C1575 C1569 1.390 . S
C1575 C1572 1.386 . S
C1576 C1571 1.490 . S
C1576 C1578 1.395 . S
C1576 C1579 1.403 . S
H1577 C1583 0.930 . S
C1578 H1564 0.930 . S
C1578 C1576 1.395 . S
C1578 C1581 1.403 . S
C1579 C1576 1.403 . S
C1579 C1580 1.524 . S
C1579 C1583 1.400 . S
C1580 H1565 0.960 . S
C1580 H1566 0.960 . S
C1580 H1567 0.960 . S
C1580 C1579 1.524 . S
C1581 C1578 1.403 . S
C1581 C1582 1.392 . S
C1581 C1585 1.495 . S
C1582 C1581 1.392 . S
C1582 C1583 1.385 . S
C1582 C1584 1.478 . S
C1583 H1577 0.930 . S
C1583 C1579 1.400 . S
C1583 C1582 1.385 . S
C1584 C1582 1.478 . S
C1584 C1586 1.381 . S
C1584 C1590 1.383 . S
C1585 C1581 1.495 . S
C1585 H1591 0.959 . S
C1585 H1592 0.961 . S
C1585 H1593 0.960 . S
C1586 C1584 1.381 . S
C1586 C1587 1.394 . S
C1586 H1594 0.930 . S
C1587 C1586 1.394 . S
C1587 C1588 1.383 . S
C1587 H1595 0.929 . S
C1588 C1587 1.383 . S
C1588 C1589 1.377 . S
C1589 H1573 0.930 . S
C1589 C1588 1.377 . S
C1589 C1590 1.379 . S
C1590 H1574 0.931 . S
C1590 C1584 1.383 . S
C1590 C1589 1.379 . S
H1591 C1585 0.959 . S
H1592 C1585 0.961 . S
H1593 C1585 0.960 . S
H1594 C1586 0.930 . S
H1595 C1587 0.929 . S
H1596 C1604 0.929 . S
H1597 C1606 0.930 . S
H1598 C1608 0.930 . S
H1599 C1611 0.929 . S
H1600 C1614 0.930 . S
H1601 C1616 0.960 . S
H1602 C1616 0.960 . S
H1603 C1616 0.960 . S
C1604 H1596 0.929 . S
C1604 C1605 1.377 . S
C1604 C1606 1.384 . S
C1605 C1604 1.377 . S
C1605 C1611 1.390 . S
C1606 H1597 0.930 . S
C1606 C1604 1.384 . S
C1606 C1607 1.372 . S
C1607 C1606 1.372 . S
C1607 C1608 1.400 . S
C1607 C1612 1.490 . S
C1608 H1598 0.930 . S
C1608 C1607 1.400 . S
C1608 C1611 1.386 . S
H1609 C1625 0.930 . S
H1610 C1626 0.931 . S
C1611 H1599 0.929 . S
C1611 C1605 1.390 . S
C1611 C1608 1.386 . S
C1612 C1607 1.490 . S
C1612 C1614 1.395 . S
C1612 C1615 1.403 . S
H1613 C1619 0.930 . S
C1614 H1600 0.930 . S
C1614 C1612 1.395 . S
C1614 C1617 1.403 . S
C1615 C1612 1.403 . S
C1615 C1616 1.524 . S
C1615 C1619 1.400 . S
C1616 H1601 0.960 . S
C1616 H1602 0.960 . S
C1616 H1603 0.960 . S
C1616 C1615 1.524 . S
C1617 C1614 1.403 . S
C1617 C1618 1.392 . S
C1617 C1621 1.495 . S
C1618 C1617 1.392 . S
C1618 C1619 1.385 . S
C1618 C1620 1.478 . S
C1619 H1613 0.930 . S
C1619 C1615 1.400 . S
C1619 C1618 1.385 . S
C1620 C1618 1.478 . S
C1620 C1622 1.381 . S
C1620 C1626 1.383 . S
C1621 C1617 1.495 . S
C1621 H1627 0.959 . S
C1621 H1628 0.961 . S
C1621 H1629 0.960 . S
C1622 C1620 1.381 . S
C1622 C1623 1.394 . S
C1622 H1630 0.930 . S
C1623 C1622 1.394 . S
C1623 C1624 1.383 . S
C1623 H1631 0.929 . S
C1624 C1623 1.383 . S
C1624 C1625 1.377 . S
C1625 H1609 0.930 . S
C1625 C1624 1.377 . S
C1625 C1626 1.379 . S
C1626 H1610 0.931 . S
C1626 C1620 1.383 . S
C1626 C1625 1.379 . S
H1627 C1621 0.959 . S
H1628 C1621 0.961 . S
H1629 C1621 0.960 . S
H1630 C1622 0.930 . S
H1631 C1623 0.929 . S
H1632 C1640 0.929 . S
H1633 C1642 0.930 . S
H1634 C1644 0.930 . S
H1635 C1647 0.929 . S
H1636 C1650 0.930 . S
H1637 C1652 0.960 . S
H1638 C1652 0.960 . S
H1639 C1652 0.960 . S
C1640 H1632 0.929 . S
C1640 C1641 1.377 . S
C1640 C1642 1.384 . S
C1641 C1640 1.377 . S
C1641 C1647 1.390 . S
C1642 H1633 0.930 . S
C1642 C1640 1.384 . S
C1642 C1643 1.372 . S
C1643 C1642 1.372 . S
C1643 C1644 1.400 . S
C1643 C1648 1.490 . S
C1644 H1634 0.930 . S
C1644 C1643 1.400 . S
C1644 C1647 1.386 . S
H1645 C1661 0.930 . S
H1646 C1662 0.931 . S
C1647 H1635 0.929 . S
C1647 C1641 1.390 . S
C1647 C1644 1.386 . S
C1648 C1643 1.490 . S
C1648 C1650 1.395 . S
C1648 C1651 1.403 . S
H1649 C1655 0.930 . S
C1650 H1636 0.930 . S
C1650 C1648 1.395 . S
C1650 C1653 1.403 . S
C1651 C1648 1.403 . S
C1651 C1652 1.524 . S
C1651 C1655 1.400 . S
C1652 H1637 0.960 . S
C1652 H1638 0.960 . S
C1652 H1639 0.960 . S
C1652 C1651 1.524 . S
C1653 C1650 1.403 . S
C1653 C1654 1.392 . S
C1653 C1657 1.495 . S
C1654 C1653 1.392 . S
C1654 C1655 1.385 . S
C1654 C1656 1.478 . S
C1655 H1649 0.930 . S
C1655 C1651 1.400 . S
C1655 C1654 1.385 . S
C1656 C1654 1.478 . S
C1656 C1658 1.381 . S
C1656 C1662 1.383 . S
C1657 C1653 1.495 . S
C1657 H1663 0.959 . S
C1657 H1664 0.961 . S
C1657 H1665 0.960 . S
C1658 C1656 1.381 . S
C1658 C1659 1.394 . S
C1658 H1666 0.930 . S
C1659 C1658 1.394 . S
C1659 C1660 1.383 . S
C1659 H1667 0.929 . S
C1660 C1659 1.383 . S
C1660 C1661 1.377 . S
C1661 H1645 0.930 . S
C1661 C1660 1.377 . S
C1661 C1662 1.379 . S
C1662 H1646 0.931 . S
C1662 C1656 1.383 . S
C1662 C1661 1.379 . S
H1663 C1657 0.959 . S
H1664 C1657 0.961 . S
H1665 C1657 0.960 . S
H1666 C1658 0.930 . S
H1667 C1659 0.929 . S
H1668 C1676 0.929 . S
H1669 C1678 0.930 . S
H1670 C1680 0.930 . S
H1671 C1683 0.929 . S
H1672 C1686 0.930 . S
H1673 C1688 0.960 . S
H1674 C1688 0.960 . S
H1675 C1688 0.960 . S
C1676 H1668 0.929 . S
C1676 C1677 1.377 . S
C1676 C1678 1.384 . S
C1677 C1676 1.377 . S
C1677 C1683 1.390 . S
C1678 H1669 0.930 . S
C1678 C1676 1.384 . S
C1678 C1679 1.372 . S
C1679 C1678 1.372 . S
C1679 C1680 1.400 . S
C1679 C1684 1.490 . S
C1680 H1670 0.930 . S
C1680 C1679 1.400 . S
C1680 C1683 1.386 . S
H1681 C1697 0.930 . S
H1682 C1698 0.931 . S
C1683 H1671 0.929 . S
C1683 C1677 1.390 . S
C1683 C1680 1.386 . S
C1684 C1679 1.490 . S
C1684 C1686 1.395 . S
C1684 C1687 1.403 . S
H1685 C1691 0.930 . S
C1686 H1672 0.930 . S
C1686 C1684 1.395 . S
C1686 C1689 1.403 . S
C1687 C1684 1.403 . S
C1687 C1688 1.524 . S
C1687 C1691 1.400 . S
C1688 H1673 0.960 . S
C1688 H1674 0.960 . S
C1688 H1675 0.960 . S
C1688 C1687 1.524 . S
C1689 C1686 1.403 . S
C1689 C1690 1.392 . S
C1689 C1693 1.495 . S
C1690 C1689 1.392 . S
C1690 C1691 1.385 . S
C1690 C1692 1.478 . S
C1691 H1685 0.930 . S
C1691 C1687 1.400 . S
C1691 C1690 1.385 . S
C1692 C1690 1.478 . S
C1692 C1694 1.381 . S
C1692 C1698 1.383 . S
C1693 C1689 1.495 . S
C1693 H1699 0.959 . S
C1693 H1700 0.961 . S
C1693 H1701 0.960 . S
C1694 C1692 1.381 . S
C1694 C1695 1.394 . S
C1694 H1702 0.930 . S
C1695 C1694 1.394 . S
C1695 C1696 1.383 . S
C1695 H1703 0.929 . S
C1696 C1695 1.383 . S
C1696 C1697 1.377 . S
C1697 H1681 0.930 . S
C1697 C1696 1.377 . S
C1697 C1698 1.379 . S
C1698 H1682 0.931 . S
C1698 C1692 1.383 . S
C1698 C1697 1.379 . S
H1699 C1693 0.959 . S
H1700 C1693 0.961 . S
H1701 C1693 0.960 . S
H1702 C1694 0.930 . S
H1703 C1695 0.929 . S
H1704 C1712 0.929 . S
H1705 C1714 0.930 . S
H1706 C1716 0.930 . S
H1707 C1719 0.929 . S
H1708 C1722 0.930 . S
H1709 C1724 0.960 . S
H1710 C1724 0.960 . S
H1711 C1724 0.960 . S
C1712 H1704 0.929 . S
C1712 C1713 1.377 . S
C1712 C1714 1.384 . S
C1713 C1712 1.377 . S
C1713 C1719 1.390 . S
C1714 H1705 0.930 . S
C1714 C1712 1.384 . S
C1714 C1715 1.372 . S
C1715 C1714 1.372 . S
C1715 C1716 1.400 . S
C1715 C1720 1.490 . S
C1716 H1706 0.930 . S
C1716 C1715 1.400 . S
C1716 C1719 1.386 . S
H1717 C1733 0.930 . S
H1718 C1734 0.931 . S
C1719 H1707 0.929 . S
C1719 C1713 1.390 . S
C1719 C1716 1.386 . S
C1720 C1715 1.490 . S
C1720 C1722 1.395 . S
C1720 C1723 1.403 . S
H1721 C1727 0.930 . S
C1722 H1708 0.930 . S
C1722 C1720 1.395 . S
C1722 C1725 1.403 . S
C1723 C1720 1.403 . S
C1723 C1724 1.524 . S
C1723 C1727 1.400 . S
C1724 H1709 0.960 . S
C1724 H1710 0.960 . S
C1724 H1711 0.960 . S
C1724 C1723 1.524 . S
C1725 C1722 1.403 . S
C1725 C1726 1.392 . S
C1725 C1729 1.495 . S
C1726 C1725 1.392 . S
C1726 C1727 1.385 . S
C1726 C1728 1.478 . S
C1727 H1721 0.930 . S
C1727 C1723 1.400 . S
C1727 C1726 1.385 . S
C1728 C1726 1.478 . S
C1728 C1730 1.381 . S
C1728 C1734 1.383 . S
C1729 C1725 1.495 . S
C1729 H1735 0.959 . S
C1729 H1736 0.961 . S
C1729 H1737 0.960 . S
C1730 C1728 1.381 . S
C1730 C1731 1.394 . S
C1730 H1738 0.930 . S
C1731 C1730 1.394 . S
C1731 C1732 1.383 . S
C1731 H1739 0.929 . S
C1732 C1731 1.383 . S
C1732 C1733 1.377 . S
C1733 H1717 0.930 . S
C1733 C1732 1.377 . S
C1733 C1734 1.379 . S
C1734 H1718 0.931 . S
C1734 C1728 1.383 . S
C1734 C1733 1.379 . S
H1735 C1729 0.959 . S
H1736 C1729 0.961 . S
H1737 C1729 0.960 . S
H1738 C1730 0.930 . S
H1739 C1731 0.929 . S
H1740 C1748 0.929 . S
H1741 C1750 0.930 . S
H1742 C1752 0.930 . S
H1743 C1755 0.929 . S
H1744 C1758 0.930 . S
H1745 C1760 0.960 . S
H1746 C1760 0.960 . S
H1747 C1760 0.960 . S
C1748 H1740 0.929 . S
C1748 C1749 1.377 . S
C1748 C1750 1.384 . S
C1749 C1748 1.377 . S
C1749 C1755 1.390 . S
C1750 H1741 0.930 . S
C1750 C1748 1.384 . S
C1750 C1751 1.372 . S
C1751 C1750 1.372 . S
C1751 C1752 1.400 . S
C1751 C1756 1.490 . S
C1752 H1742 0.930 . S
C1752 C1751 1.400 . S
C1752 C1755 1.386 . S
H1753 C1769 0.930 . S
H1754 C1770 0.931 . S
C1755 H1743 0.929 . S
C1755 C1749 1.390 . S
C1755 C1752 1.386 . S
C1756 C1751 1.490 . S
C1756 C1758 1.395 . S
C1756 C1759 1.403 . S
H1757 C1763 0.930 . S
C1758 H1744 0.930 . S
C1758 C1756 1.395 . S
C1758 C1761 1.403 . S
C1759 C1756 1.403 . S
C1759 C1760 1.524 . S
C1759 C1763 1.400 . S
C1760 H1745 0.960 . S
C1760 H1746 0.960 . S
C1760 H1747 0.960 . S
C1760 C1759 1.524 . S
C1761 C1758 1.403 . S
C1761 C1762 1.392 . S
C1761 C1765 1.495 . S
C1762 C1761 1.392 . S
C1762 C1763 1.385 . S
C1762 C1764 1.478 . S
C1763 H1757 0.930 . S
C1763 C1759 1.400 . S
C1763 C1762 1.385 . S
C1764 C1762 1.478 . S
C1764 C1766 1.381 . S
C1764 C1770 1.383 . S
C1765 C1761 1.495 . S
C1765 H1771 0.959 . S
C1765 H1772 0.961 . S
C1765 H1773 0.960 . S
C1766 C1764 1.381 . S
C1766 C1767 1.394 . S
C1766 H1774 0.930 . S
C1767 C1766 1.394 . S
C1767 C1768 1.383 . S
C1767 H1775 0.929 . S
C1768 C1767 1.383 . S
C1768 C1769 1.377 . S
C1769 H1753 0.930 . S
C1769 C1768 1.377 . S
C1769 C1770 1.379 . S
C1770 H1754 0.931 . S
C1770 C1764 1.383 . S
C1770 C1769 1.379 . S
H1771 C1765 0.959 . S
H1772 C1765 0.961 . S
H1773 C1765 0.960 . S
H1774 C1766 0.930 . S
H1775 C1767 0.929 . S
C489 C106 1.210 . S
C508 C3 1.186 . S
C525 C129 1.210 . S
C544 C62 1.185 . S
C561 C83 1.200 . S
C580 C186 1.205 . S
C597 C142 1.203 . S
C616 C209 1.204 . S
C633 C26 1.209 . S
C652 C163 1.195 . S
C669 C49 1.209 . S
C688 C222 1.209 . S
C705 C409 1.209 . S
C724 C262 1.213 . S
C741 C283 1.200 . S
C760 C466 1.210 . S
C777 C342 1.204 . S
C796 C249 1.203 . S
C813 C363 1.205 . S
C832 C306 1.209 . S
C849 C422 1.204 . S
C868 C329 1.203 . S
C885 C386 1.209 . S
C904 C443 1.186 . S
C921 C122 1.793 . S
C940 C15 1.760 . S
C957 C42 1.795 . S
C976 C175 1.773 . S
C993 C95 1.792 . S
C1012 C202 1.803 . S
C1029 C242 1.788 . S
C1048 C375 1.770 . S
C1065 C295 1.784 . S
C1084 C402 1.793 . S
C1101 C322 1.795 . S
C1120 C455 1.776 . S
C1137 C282 2.253 . S
C1156 C2 2.247 . S
C1173 C55 2.255 . S
C1192 C335 2.255 . S
C1209 C362 2.253 . S
C1228 C82 2.246 . S
C1245 C135 2.254 . S
C1264 C415 2.245 . S
C1281 C162 2.254 . S
C1300 C442 2.253 . S
C1317 C255 2.254 . S
C1336 C215 2.246 . S
C1353 C89 1.685 . S
C1372 C22 1.711 . S
C1389 C43 1.714 . S
C1408 C146 1.660 . S
C1425 C102 1.715 . S
C1444 C169 1.696 . S
C1461 C123 1.716 . S
C1480 C226 1.696 . S
C1497 C9 1.682 . S
C1516 C182 1.706 . S
C1533 C66 1.682 . S
C1552 C203 1.716 . S
C1569 C426 1.679 . S
C1588 C243 1.711 . S
C1605 C302 1.714 . S
C1624 C449 1.678 . S
C1641 C323 1.716 . S
C1660 C266 1.693 . S
C1677 C289 1.679 . S
C1696 C382 1.707 . S
C1713 C403 1.714 . S
C1732 C346 1.679 . S
C1749 C462 1.716 . S
C1768 C369 1.676 . S
