# Generated by pormake.
# Topology rkf, (6)-cn, num edge types: 1
# Building blocks:
#     Node 0, Type 0, BuildingBlock: BETDIP_clean_sbu_0, # of connection points: 6
#     Node 1, Type 0, BuildingBlock: BETDIP_clean_sbu_0, # of connection points: 6
#     Node 2, Type 0, BuildingBlock: BETDIP_clean_sbu_0, # of connection points: 6
#     Node 3, Type 0, BuildingBlock: BETDIP_clean_sbu_0, # of connection points: 6
#     Node 4, Type 0, BuildingBlock: BETDIP_clean_sbu_0, # of connection points: 6
#     Node 5, Type 0, BuildingBlock: BETDIP_clean_sbu_0, # of connection points: 6
#     Edge 6, Type (0, 0), BuildingBlock: MIFKUJ_clean_linker_0, # of connection points: 2
#     Edge 7, Type (0, 0), BuildingBlock: MIFKUJ_clean_linker_0, # of connection points: 2
#     Edge 8, Type (0, 0), BuildingBlock: MIFKUJ_clean_linker_0, # of connection points: 2
#     Edge 9, Type (0, 0), BuildingBlock: MIFKUJ_clean_linker_0, # of connection points: 2
#     Edge 10, Type (0, 0), BuildingBlock: MIFKUJ_clean_linker_0, # of connection points: 2
#     Edge 11, Type (0, 0), BuildingBlock: MIFKUJ_clean_linker_0, # of connection points: 2
#     Edge 12, Type (0, 0), BuildingBlock: MIFKUJ_clean_linker_0, # of connection points: 2
#     Edge 13, Type (0, 0), BuildingBlock: MIFKUJ_clean_linker_0, # of connection points: 2
#     Edge 14, Type (0, 0), BuildingBlock: MIFKUJ_clean_linker_0, # of connection points: 2
#     Edge 15, Type (0, 0), BuildingBlock: MIFKUJ_clean_linker_0, # of connection points: 2
#     Edge 16, Type (0, 0), BuildingBlock: MIFKUJ_clean_linker_0, # of connection points: 2
#     Edge 17, Type (0, 0), BuildingBlock: MIFKUJ_clean_linker_0, # of connection points: 2
#     Edge 18, Type (0, 0), BuildingBlock: MIFKUJ_clean_linker_0, # of connection points: 2
#     Edge 19, Type (0, 0), BuildingBlock: MIFKUJ_clean_linker_0, # of connection points: 2
#     Edge 20, Type (0, 0), BuildingBlock: MIFKUJ_clean_linker_0, # of connection points: 2
#     Edge 21, Type (0, 0), BuildingBlock: MIFKUJ_clean_linker_0, # of connection points: 2
#     Edge 22, Type (0, 0), BuildingBlock: MIFKUJ_clean_linker_0, # of connection points: 2
#     Edge 23, Type (0, 0), BuildingBlock: MIFKUJ_clean_linker_0, # of connection points: 2
# Relax obj value: 0.540
# Max RMSD: 0.247
# Mean RMSD: 0.247
data_MOF--net-rkf--node1-BETDIP_clean_sbu_0--edge1-MIFKUJ_clean_linker_0
_symmetry_space_group_name_H-M    P1
_symmetry_Int_Tables_number       1
_symmetry_cell_setting            triclinic
loop_
_symmetry_equiv_pos_as_xyz
'x, y, z'
_cell_length_a     31.243807
_cell_length_b     31.231907
_cell_length_c     59.590257
_cell_angle_alpha  90.95433
_cell_angle_beta   89.312047
_cell_angle_gamma 119.75464
loop_
_atom_site_label
_atom_site_type_symbol
_atom_site_fract_x
_atom_site_fract_y
_atom_site_fract_z
_atom_type_partial_charge
Tb0 Tb 0.29836 0.06999 0.09811 0.0
Tb1 Tb 0.30217 0.16537 0.08682 0.0
C2 C 0.32603 0.01293 0.11251 0.0
C3 C 0.35774 0.02072 0.13187 0.0
C4 C 0.39567 0.06852 0.13714 0.0
C5 C 0.41678 0.07969 0.15832 0.0
C6 C 0.39978 0.04339 0.17489 0.0
C7 C 0.36519 -0.00566 0.16886 0.0
C8 C 0.3443 0.98314 0.14747 0.0
C9 C 0.21237 0.05769 0.08721 0.0
C10 C 0.29594 0.14099 0.13868 0.0
C11 C 0.28977 0.235 1.07441 0.0
C12 C 0.30898 0.27451 1.05774 0.0
C13 C 0.30324 0.26403 1.03465 0.0
C14 C 0.31857 0.30223 1.01935 0.0
C15 C 0.33982 0.35166 1.02676 0.0
C16 C 0.34706 0.36199 1.04989 0.0
C17 C 0.33153 0.32375 1.06521 0.0
C18 C 0.38888 0.1704 0.09262 0.0
C19 C 0.29188 0.09093 1.0454 0.0
O20 O 0.34725 0.04252 0.09564 0.0
O21 O 0.2832 0.00868 0.11762 0.0
O22 O 0.24606 0.095 0.09761 0.0
O23 O 0.22322 0.02263 0.08795 0.0
O24 O 0.30894 0.10773 0.13215 0.0
O25 O 0.28341 0.16256 0.12303 0.0
O26 O 0.26336 0.18952 1.06714 0.0
O27 O 0.32042 0.23934 0.09015 0.0
O28 O 0.35113 0.13679 1.08346 0.0
O29 O 0.38048 0.20596 0.0975 0.0
O30 O 0.29459 0.1333 1.05219 0.0
O31 O 0.29495 0.061 1.06046 0.0
H32 H 0.40613 0.09839 0.12563 0.0
H33 H 0.44351 0.11771 0.16218 0.0
H34 H 0.35057 0.96536 0.18119 0.0
H35 H 0.31476 0.94612 0.1438 0.0
H36 H 0.28598 0.22638 1.02838 0.0
H37 H 0.31221 0.29264 1.00173 0.0
H38 H 0.36418 0.39956 1.05622 0.0
H39 H 0.33641 0.33263 1.08299 0.0
Tb40 Tb 0.29806 0.27312 0.43509 0.0
Tb41 Tb 0.24843 0.33037 0.42498 0.0
C42 C 0.36043 0.2505 0.44793 0.0
C43 C 0.3924 0.2613 0.46742 0.0
C44 C 0.43716 0.2616 0.4648 0.0
C45 C 0.46874 0.27268 0.48303 0.0
C46 C 0.45597 0.28378 0.50415 0.0
C47 C 0.41157 0.28473 0.50653 0.0
C48 C 0.38009 0.27368 0.48829 0.0
C49 C 0.20466 0.22029 0.4236 0.0
C50 C 0.24399 0.29936 0.47592 0.0
C51 C 0.19672 0.36672 0.41252 0.0
C52 C 0.1992 0.40444 0.39735 0.0
C53 C 0.21287 0.40578 0.37478 0.0
C54 C 0.20671 0.43616 0.35985 0.0
C55 C 0.18662 0.46568 0.36718 0.0
C56 C 0.17754 0.46764 0.39024 0.0
C57 C 0.18347 0.43698 0.40516 0.0
C58 C 0.34306 0.38468 0.43536 0.0
C59 C 0.28508 0.28629 0.38275 0.0
O60 O 0.37121 0.28869 0.43553 0.0
O61 O 0.31283 0.2226 0.45117 0.0
O62 O 0.22425 0.25829 0.43575 0.0
O63 O 0.23777 0.20766 0.41909 0.0
O64 O 0.28135 0.29184 0.46999 0.0
O65 O 0.21977 0.3071 0.45967 0.0
O66 O 0.19496 0.32758 0.40332 0.0
O67 O 0.22557 0.3827 0.42997 0.0
O68 O 0.32347 0.34602 0.42354 0.0
O69 O 0.30978 0.39627 0.44012 0.0
O70 O 0.26006 0.30883 0.38974 0.0
O71 O 0.30609 0.27168 0.3979 0.0
H72 H 0.44753 0.25293 0.44865 0.0
H73 H 0.50277 0.27186 0.48071 0.0
H74 H 0.40021 0.29216 0.5227 0.0
H75 H 0.34592 0.27415 0.49057 0.0
H76 H 0.22563 0.38137 0.36837 0.0
H77 H 0.21383 0.43307 0.34225 0.0
H78 H 0.16305 0.49063 0.39657 0.0
H79 H 0.17335 0.43687 0.42263 0.0
Tb80 Tb 0.08459 0.27446 0.76703 0.0
Tb81 Tb -0.01438 0.25133 0.75547 0.0
C82 C 0.17555 0.32414 0.77368 0.0
C83 C 0.20417 0.35732 0.79238 0.0
C84 C 0.20952 0.40474 0.79476 0.0
C85 C 0.23013 0.43284 0.81422 0.0
C86 C 0.24543 0.41385 0.83156 0.0
C87 C 0.24289 0.36793 0.82861 0.0
C88 C 0.22272 0.34005 0.80915 0.0
C89 C 0.02425 0.18004 0.75574 0.0
C90 C 0.01137 0.24084 0.8082 0.0
C91 C 0.89369 0.21242 0.75125 0.0
C92 C 0.85529 0.18944 0.73422 0.0
C93 C 0.86688 0.19478 0.71129 0.0
C94 C 0.82968 0.16993 0.69545 0.0
C95 C 0.78061 0.13914 0.70241 0.0
C96 C 0.76912 0.13514 0.7254 0.0
C97 C 0.80625 0.16027 0.74119 0.0
C98 C 0.04624 0.34602 0.76165 0.0
C99 C 0.06085 0.27387 0.71382 0.0
O100 O 0.15129 0.33918 0.76133 0.0
O101 O 0.14916 0.27716 0.77843 0.0
O102 O 0.02723 0.21803 0.74782 0.0
O103 O 0.0609 0.19488 0.76956 0.0
O104 O 0.05845 0.26365 0.80218 0.0
O105 O 0.97738 0.23081 0.7924 0.0
O106 O 0.91592 0.18789 0.75659 0.0
O107 O 0.92435 0.25964 0.74923 0.0
O108 O 0.04343 0.31183 0.77391 0.0
O109 O 0.01342 0.32713 0.74606 0.0
O110 O 0.01318 0.25219 0.72002 0.0
O111 O 0.09484 0.28889 0.7299 0.0
H112 H 0.19603 0.41942 0.78205 0.0
H113 H 0.2319 0.46824 0.81616 0.0
H114 H 0.25532 0.353 0.84169 0.0
H115 H 0.21977 0.30406 0.80764 0.0
H116 H 0.90471 0.21707 0.7057 0.0
H117 H 0.83965 0.17291 0.67784 0.0
H118 H 0.73163 0.11163 0.73115 0.0
H119 H 0.79685 0.15597 0.75888 0.0
Tb120 Tb 0.89376 0.12387 0.10445 0.0
Tb121 Tb 0.83018 0.01719 0.09144 0.0
C122 C 0.91762 0.20914 0.11843 0.0
C123 C 0.92065 0.23527 0.13947 0.0
C124 C 0.92143 0.28043 0.13868 0.0
C125 C 0.92725 0.30765 0.15833 0.0
C126 C 0.93241 0.29002 0.17909 0.0
C127 C 0.92978 0.24372 0.17986 0.0
C128 C 0.92386 0.21649 0.16018 0.0
C129 C 0.94489 0.08446 0.08894 0.0
C130 C 0.86034 0.04087 0.14372 0.0
C131 C 0.78522 0.92834 1.07888 0.0
C132 C 0.78202 0.89244 1.06199 0.0
C133 C 0.80369 0.90676 1.04074 0.0
C134 C 0.79952 0.871 1.02514 0.0
C135 C 0.77358 0.82053 1.03061 0.0
C136 C 0.75182 0.80665 1.05192 0.0
C137 C 0.75604 0.84237 1.06746 0.0
C138 C 0.78329 0.06458 0.10447 0.0
C139 C 0.88114 0.09813 1.05142 0.0
O140 O 0.87315 0.17696 0.11181 0.0
O141 O 0.94891 0.19302 0.11585 0.0
O142 O 0.90511 0.06221 0.10012 0.0
O143 O 0.96025 0.13148 0.08969 0.0
O144 O 0.88102 0.08869 0.13851 0.0
O145 O 0.84008 0.00668 0.12756 0.0
O146 O 0.8237 0.94711 0.09203 0.0
O147 O 0.77302 0.9609 1.07275 0.0
O148 O 0.821 0.08038 0.09234 0.0
O149 O 0.76938 0.01942 0.10934 0.0
O150 O 0.85892 0.05063 1.05743 0.0
O151 O 0.89349 0.13325 1.06723 0.0
H152 H 0.91851 0.29512 0.12278 0.0
H153 H 0.92856 0.34287 0.15725 0.0
H154 H 0.93432 0.22941 0.19554 0.0
H155 H 0.92305 0.18148 0.16106 0.0
H156 H 0.82387 0.94537 1.03629 0.0
H157 H 0.81735 0.88296 1.00897 0.0
H158 H 0.73137 0.76817 1.05656 0.0
H159 H 0.73895 0.83086 1.08384 0.0
Tb160 Tb 0.84531 0.88049 0.43371 0.0
Tb161 Tb 0.92884 0.86359 0.42018 0.0
C162 C 0.7617 0.85914 0.44857 0.0
C163 C 0.74146 0.87158 0.46829 0.0
C164 C 0.69597 0.83612 0.47715 0.0
C165 C 0.67614 0.84745 0.49595 0.0
C166 C 0.70149 0.89455 0.50596 0.0
C167 C 0.7472 0.92988 0.49705 0.0
C168 C 0.76715 0.91842 0.47841 0.0
C169 C 0.92309 0.96281 0.42237 0.0
C170 C 0.91739 0.87839 0.47323 0.0
C171 C 0.00579 0.86427 0.40735 0.0
C172 C 0.04158 0.88152 0.38914 0.0
C173 C 0.08513 0.87994 0.39189 0.0
C174 C 0.1219 0.89948 0.37558 0.0
C175 C 0.11543 0.92071 0.35624 0.0
C176 C 0.07096 0.92109 0.35335 0.0
C177 C 0.03425 0.90177 0.36978 0.0
C178 C 0.84277 0.78457 0.42851 0.0
C179 C 0.8688 0.88028 0.38046 0.0
O180 O 0.78273 0.83265 0.45241 0.0
O181 O 0.78695 0.89509 0.43455 0.0
O182 O 0.923 0.9257 0.43096 0.0
O183 O 0.87985 0.95798 0.42618 0.0
O184 O 0.87826 0.88313 0.46789 0.0
O185 O 0.94285 0.87127 0.45694 0.0
O186 O 0.00569 0.89892 0.42 0.0
O187 O 0.96139 0.82859 0.4025 0.0
O188 O 0.851 0.82258 0.41834 0.0
O189 O 0.88452 0.78876 0.43423 0.0
O190 O 0.91017 0.88093 0.38659 0.0
O191 O 0.83529 0.8748 0.39615 0.0
H192 H 0.6759 0.79967 0.46957 0.0
H193 H 0.64098 0.81956 0.50259 0.0
H194 H 0.76805 0.96607 0.50479 0.0
H195 H 0.80268 0.94607 0.47199 0.0
H196 H 0.09119 0.86465 0.40693 0.0
H197 H 0.15601 0.89942 0.37852 0.0
H198 H 0.06472 0.93678 0.33855 0.0
H199 H 0.0007 0.90334 0.36755 0.0
Tb200 Tb 0.07775 0.89836 0.76267 0.0
Tb201 Tb 0.18038 0.93325 0.75083 0.0
C202 C -0.00642 0.84886 0.7795 0.0
C203 C 0.97583 0.82373 0.80114 0.0
C204 C 0.98409 0.78511 0.80736 0.0
C205 C 0.96903 0.76347 0.82842 0.0
C206 C 0.94614 0.78053 0.84365 0.0
C207 C 0.93748 0.81871 0.83734 0.0
C208 C 0.95197 0.83993 0.81623 0.0
C209 C 0.12496 0.9901 0.74823 0.0
C210 C 0.15784 0.942 0.80295 0.0
C211 C 0.26918 0.97352 0.73889 0.0
C212 C 0.30757 0.00263 0.72256 0.0
C213 C 0.35591 0.03095 0.73046 0.0
C214 C 0.39377 0.06152 0.71599 0.0
C215 C 0.38383 0.06392 0.69333 0.0
C216 C 0.33548 0.03439 0.68525 0.0
C217 C 0.29736 0.00398 0.69985 0.0
C218 C 0.13521 0.84318 0.7677 0.0
C219 C 0.09762 0.90216 0.71038 0.0
O220 O 0.01309 0.83034 0.76559 0.0
O221 O 0.0189 0.89712 0.78053 0.0
O222 O 0.1422 0.9698 0.76032 0.0
O223 O 0.07828 0.95997 0.74538 0.0
O224 O 0.11073 0.91428 0.79712 0.0
O225 O 0.19223 0.95744 0.78691 0.0
O226 O 0.25006 -0.00361 0.75005 0.0
O227 O 0.23668 0.92793 0.73366 0.0
O228 O 0.11715 0.86022 0.75387 0.0
O229 O 0.17991 0.87689 0.77173 0.0
O230 O 0.14535 0.92441 0.71634 0.0
O231 O 0.06331 0.88416 0.72632 0.0
H232 H 0.00264 0.77191 0.79612 0.0
H233 H 0.97612 0.73412 0.83297 0.0
H234 H 0.91916 0.83196 0.8487 0.0
H235 H 0.94508 0.86947 0.8118 0.0
H236 H 0.36424 0.03012 0.74801 0.0
H237 H 0.43069 0.0839 0.72257 0.0
H238 H 0.32687 0.03628 0.66786 0.0
H239 H 0.26007 0.98245 0.69357 0.0
H240 H 0.89647 -0.00701 1.06679 0.0
H241 H 0.91914 0.97492 1.02979 0.0
H242 H 0.05392 0.1164 1.03271 0.0
H243 H 0.03098 0.13314 1.06826 0.0
H244 H 0.03763 0.10305 0.98942 0.0
H245 H -0.00717 0.9131 1.03345 0.0
H246 H 0.92837 0.82669 1.02751 0.0
H247 H 0.87216 0.86874 0.97178 0.0
H248 H 0.93655 0.95561 0.97718 0.0
H249 H 0.19002 -0.00114 1.05045 0.0
H250 H 0.1515 0.0013 1.01617 0.0
H251 H 0.1321 0.11934 1.04365 0.0
H252 H 0.17509 0.11971 1.07799 0.0
H253 H 0.06534 0.96977 1.01481 0.0
H254 H 0.18319 0.10686 0.9829 0.0
H255 H 0.25215 0.18846 0.97237 0.0
H256 H 0.16833 0.25684 0.99344 0.0
H257 H 0.09957 0.17655 1.0045 0.0
C258 C 0.93111 0.01944 1.05941 0.0
C259 C 0.96146 0.06484 1.0702 0.0
C260 C 0.94389 0.00953 1.03801 0.0
C261 C -0.01226 0.04454 1.02736 0.0
C262 C 0.01887 0.08857 1.03924 0.0
C263 C 0.00623 0.0981 1.06023 0.0
C264 C 0.00595 0.03321 1.0059 0.0
C265 C 0.0446 0.07444 0.99527 0.0
C266 C 0.01223 0.99175 1.00681 0.0
C267 C 0.97005 0.94088 1.00551 0.0
C268 C 0.96681 0.90409 1.01991 0.0
C269 C 0.93025 0.85505 1.01667 0.0
C270 C 0.89678 0.84242 0.99914 0.0
C271 C 0.89849 0.87879 0.98526 0.0
C272 C 0.93482 0.92798 0.98849 0.0
C273 C 0.17856 0.02627 1.04925 0.0
C274 C 0.18621 0.05966 1.06702 0.0
C275 C 0.15706 0.02797 1.02931 0.0
C276 C 0.13894 0.06055 1.02705 0.0
C277 C 0.14696 0.09464 1.0446 0.0
C278 C 0.17062 0.0943 1.06445 0.0
C279 C 0.09986 0.04878 1.01027 0.0
C280 C 0.06003 0.00017 1.01017 0.0
C281 C 0.09342 0.08551 0.99968 0.0
C282 C 0.13586 0.13506 0.9945 0.0
C283 C 0.17972 0.13934 0.98562 0.0
C284 C 0.21874 0.18543 0.97947 0.0
C285 C 0.2144 0.22761 0.98209 0.0
C286 C 0.17148 0.22403 0.99127 0.0
C287 C 0.13238 0.17811 0.99746 0.0
H288 H 0.24418 0.26309 0.9769 0.0
H289 H 0.86986 0.80438 0.99623 0.0
H290 H 0.88083 0.97409 0.38587 0.0
H291 H 0.91835 0.02647 0.35422 0.0
H292 H 0.06139 0.0754 0.38287 0.0
H293 H 0.02352 0.01401 0.4127 0.0
H294 H 0.95758 0.11307 0.37971 0.0
H295 H 0.11139 0.10265 0.35113 0.0
H296 H 0.16232 0.08546 0.32492 0.0
H297 H 0.07887 0.09038 0.26938 0.0
H298 H 0.02885 0.11039 0.29534 0.0
H299 H 0.19665 0.18962 0.38045 0.0
H300 H 0.14608 0.19457 0.35219 0.0
H301 H 0.07418 0.23955 0.40254 0.0
H302 H 0.12837 0.23722 0.43067 0.0
H303 H 0.09404 0.20053 0.32659 0.0
H304 H 0.01735 0.26394 0.35045 0.0
H305 H -0.01287 0.31616 0.36789 0.0
H306 H 0.93635 0.22171 0.42519 0.0
H307 H 0.96778 0.17007 0.40847 0.0
C308 C 0.92052 0.99223 0.38443 0.0
C309 C 0.94908 0.9885 0.40157 0.0
C310 C 0.94207 0.02229 0.36606 0.0
C311 C -0.00724 0.05486 0.36581 0.0
C312 C 0.02229 0.04934 0.38203 0.0
C313 C 0.00054 0.01528 0.39956 0.0
C314 C 0.00837 0.10459 0.35727 0.0
C315 C -0.01026 0.13166 0.36896 0.0
C316 C 0.04354 0.12892 0.33996 0.0
C317 C 0.06468 0.10556 0.32531 0.0
C318 C 0.10244 0.0981 0.33347 0.0
C319 C 0.13179 0.08868 0.31861 0.0
C320 C 0.12309 0.08555 0.29556 0.0
C321 C 0.08526 0.09233 0.28727 0.0
C322 C 0.0565 0.10289 0.30206 0.0
C323 C 0.16939 0.19974 0.38551 0.0
C324 C 0.16582 0.21222 0.40775 0.0
C325 C 0.14009 0.20319 0.36914 0.0
C326 C 0.10319 0.21548 0.37464 0.0
C327 C 0.1002 0.2282 0.39723 0.0
C328 C 0.1308 0.22612 0.41358 0.0
C329 C 0.06261 0.20507 0.35813 0.0
C330 C 0.06443 0.18052 0.33852 0.0
C331 C 0.01514 0.18323 0.36773 0.0
C332 C -0.00452 0.21342 0.37818 0.0
C333 C 0.00058 0.25489 0.36694 0.0
C334 C 0.983 0.28426 0.37667 0.0
C335 C 0.95989 0.27231 0.39766 0.0
C336 C 0.95419 0.23089 0.40891 0.0
C337 C 0.97175 0.20142 0.39924 0.0
H338 H 0.9463 0.29508 0.40519 0.0
H339 H 0.14614 0.07859 0.28417 0.0
H340 H 0.19512 0.01047 0.71477 0.0
H341 H 0.19222 0.05165 0.6808 0.0
H342 H 0.12766 0.1236 0.71924 0.0
H343 H 0.1202 0.07396 0.75144 0.0
H344 H 0.08695 0.00518 0.67658 0.0
H345 H 0.13946 0.21588 0.69184 0.0
H346 H 0.21072 0.29681 0.68331 0.0
H347 H 0.26852 0.22853 0.63863 0.0
H348 H 0.19731 0.14684 0.64667 0.0
H349 H 0.04124 0.10194 0.75918 0.0
H350 H 0.03935 0.05092 0.72741 0.0
H351 H 0.96785 0.11022 0.6871 0.0
H352 H 0.96385 0.15635 0.71964 0.0
H353 H 0.06726 0.15231 0.6772 0.0
H354 H 0.94148 -0.00569 0.66694 0.0
H355 H 0.87022 0.91284 0.67546 0.0
H356 H 0.96234 0.87803 0.71521 0.0
H357 H 0.03408 0.95906 0.70687 0.0
C358 C 0.1799 0.03472 0.71589 0.0
C359 C 0.15311 0.03521 0.73493 0.0
C360 C 0.18018 0.05991 0.69659 0.0
C361 C 0.15668 0.08827 0.69701 0.0
C362 C 0.14395 0.10006 0.71808 0.0
C363 C 0.1396 0.07162 0.73669 0.0
C364 C 0.12468 0.08449 0.67797 0.0
C365 C 0.08258 0.03741 0.67623 0.0
C366 C 0.11874 0.12554 0.67376 0.0
C367 C 0.16241 0.17486 0.66968 0.0
C368 C 0.1669 0.21783 0.67999 0.0
C369 C 0.20751 0.26398 0.67532 0.0
C370 C 0.24399 0.26784 0.66036 0.0
C371 C 0.2402 0.22549 0.65021 0.0
C372 C 0.1998 0.17919 0.65489 0.0
C373 C 0.02233 0.10173 0.74403 0.0
C374 C 0.00535 0.13522 0.74145 0.0
C375 C 0.02121 0.07255 0.72574 0.0
C376 C 0.00582 0.07886 0.70449 0.0
C377 C 0.98081 0.10547 0.70314 0.0
C378 C 0.97949 0.13257 0.72174 0.0
C379 C 0.03266 0.07492 0.6846 0.0
C380 C 0.07156 0.12001 0.67691 0.0
C381 C 0.03603 0.03197 0.68112 0.0
C382 C -0.00664 0.98268 0.68605 0.0
C383 C 0.94657 0.96923 0.67746 0.0
C384 C 0.90608 0.92307 0.68223 0.0
C385 C 0.9118 0.89016 0.69576 0.0
C386 C 0.95802 0.90338 0.70457 0.0
C387 C -0.0013 0.94932 0.6997 0.0
H388 H 0.88038 0.8545 0.69949 0.0
H389 H 0.27527 0.30365 0.6567 0.0
H390 H 0.37371 0.3592 0.98358 0.0
H391 H 0.3756 0.414 0.95499 0.0
H392 H 0.33825 0.49299 1.00442 0.0
H393 H 0.33075 0.43437 1.03281 0.0
H394 H 0.28347 0.47711 0.97253 0.0
H395 H 0.45242 0.54803 0.9739 0.0
H396 H 0.53186 0.55071 0.9779 0.0
H397 H 0.51085 0.47599 0.91441 0.0
H398 H 0.42999 0.47048 0.9105 0.0
H399 H 0.31587 0.50992 0.84007 0.0
H400 H 0.34694 0.54805 0.8772 0.0
H401 H 0.23999 0.41271 0.90871 0.0
H402 H 0.20891 0.37545 0.87214 0.0
H403 H 0.39052 0.51806 0.9051 0.0
H404 H 0.20358 0.42689 0.95783 0.0
H405 H 0.12284 0.42218 0.95552 0.0
H406 H 0.1834 0.54586 0.91126 0.0
H407 H 0.26511 0.55259 0.91384 0.0
C408 C 0.36585 0.38813 0.98848 0.0
C409 C 0.35107 0.3915 1.01048 0.0
C410 C 0.3682 0.42051 0.97213 0.0
C411 C 0.35796 0.45853 0.97751 0.0
C412 C 0.34653 0.46417 0.99982 0.0
C413 C 0.34275 0.43078 1.01612 0.0
C414 C 0.352 0.48666 0.95911 0.0
C415 C 0.30726 0.48694 0.9579 0.0
C416 C 0.38473 0.50324 0.94052 0.0
C417 C 0.43493 0.50911 0.94188 0.0
C418 C 0.46464 0.53214 0.96076 0.0
C419 C 0.50991 0.53391 0.96306 0.0
C420 C 0.52656 0.51369 0.94637 0.0
C421 C 0.49796 0.49175 0.9273 0.0
C422 C 0.45229 0.48925 0.92505 0.0
C423 C 0.29846 0.48906 0.85505 0.0
C424 C 0.26067 0.43964 0.85342 0.0
C425 C 0.31605 0.5108 0.87616 0.0
C426 C 0.29532 0.48353 0.89574 0.0
C427 C 0.2558 0.43503 0.89393 0.0
C428 C 0.23857 0.4134 0.87301 0.0
C429 C 0.31911 0.50092 0.91789 0.0
C430 C 0.36767 0.51025 0.91999 0.0
C431 C 0.29028 0.49408 0.93739 0.0
C432 C 0.24095 0.49045 0.93614 0.0
C433 C 0.20015 0.45376 0.94791 0.0
C434 C 0.15406 0.45067 0.94653 0.0
C435 C 0.14799 0.4837 0.93327 0.0
C436 C 0.18811 0.52019 0.92149 0.0
C437 C 0.23439 0.52372 0.92295 0.0
H438 H 0.11218 0.48098 0.93209 0.0
H439 H 0.56158 0.51495 0.94821 0.0
H440 H 0.10082 0.46931 0.37015 0.0
H441 H 0.05149 0.46553 0.33832 0.0
H442 H 0.1732 0.49811 0.29379 0.0
H443 H 0.22437 0.50499 0.32574 0.0
H444 H 0.0576 0.51178 0.28949 0.0
H445 H 0.12646 0.37812 0.27078 0.0
H446 H 0.16754 0.33848 0.28962 0.0
H447 H 0.09701 0.33896 0.35178 0.0
H448 H 0.05289 0.37537 0.33297 0.0
H449 H -0.00276 0.38876 0.18266 0.0
H450 H 0.0293 0.43729 0.21705 0.0
H451 H 0.92986 0.31113 0.25622 0.0
H452 H 0.89702 0.26231 0.22178 0.0
H453 H 0.0253 0.34493 0.26622 0.0
H454 H 0.9201 0.41386 0.25808 0.0
H455 H 0.88148 0.45473 0.23837 0.0
H456 H 0.02334 0.58349 0.22926 0.0
H457 H 0.06295 0.54315 0.24862 0.0
C458 C 0.11857 0.47903 0.35387 0.0
C459 C 0.16602 0.48519 0.35039 0.0
C460 C 0.09001 0.47686 0.3356 0.0
C461 C 0.10839 0.48005 0.3138 0.0
C462 C 0.15834 0.49493 0.31059 0.0
C463 C 0.18728 0.49811 0.32887 0.0
C464 C 0.07347 0.45337 0.29553 0.0
C465 C 0.05033 0.47535 0.28429 0.0
C466 C 0.06343 0.40537 0.28929 0.0
C467 C 0.08722 0.38049 0.30055 0.0
C468 C 0.11927 0.3692 0.28841 0.0
C469 C 0.14276 0.34692 0.29904 0.0
C470 C 0.13465 0.33596 0.32186 0.0
C471 C 0.10275 0.34692 0.33404 0.0
C472 C 0.0784 0.36826 0.32339 0.0
C473 C 0.9809 0.37176 0.19853 0.0
C474 C 0.94501 0.3215 0.19954 0.0
C475 C -0.00075 0.39964 0.21819 0.0
C476 C 0.98192 0.37777 0.23915 0.0
C477 C 0.94369 0.3286 0.24016 0.0
C478 C 0.92527 0.3007 0.22051 0.0
C479 C 0.00936 0.40331 0.25968 0.0
C480 C 0.03162 0.38107 0.27144 0.0
C481 C 0.01825 0.4508 0.26627 0.0
C482 C -0.00546 0.4753 0.25469 0.0
C483 C 0.94313 0.45074 0.25172 0.0
C484 C 0.92105 0.47385 0.24063 0.0
C485 C 0.94995 0.52164 0.23253 0.0
C486 C 0.001 0.54646 0.23554 0.0
C487 C 0.02328 0.52352 0.2466 0.0
H488 H 0.93278 0.53946 0.22395 0.0
H489 H 0.1532 0.31914 0.33014 0.0
H490 H 0.75978 0.16419 0.66182 0.0
H491 H 0.71241 0.107 0.63135 0.0
H492 H 0.67154 0.9839 0.67512 0.0
H493 H 0.71836 0.04062 0.70559 0.0
H494 H 0.73356 -0.00689 0.63794 0.0
H495 H 0.58597 -0.00701 0.65507 0.0
H496 H 0.52956 0.02511 0.66299 0.0
H497 H 0.55198 0.0828 0.59639 0.0
H498 H 0.6108 0.05364 0.58839 0.0
H499 H 0.66461 0.83911 0.54355 0.0
H500 H 0.64733 0.86594 0.57969 0.0
H501 H 0.6789 0.00428 0.55065 0.0
H502 H 0.69549 0.97739 0.51442 0.0
H503 H 0.60504 0.9722 0.58379 0.0
H504 H 0.77002 -0.00145 0.57245 0.0
H505 H 0.83256 0.97426 0.56393 0.0
H506 H 0.78018 0.87372 0.61905 0.0
H507 H 0.71685 0.897 0.62769 0.0
C508 C 0.73935 0.12498 0.66509 0.0
C509 C 0.74317 0.10668 0.6859 0.0
C510 C 0.71197 0.09245 0.64779 0.0
C511 C 0.68865 0.04137 0.65109 0.0
C512 C 0.68902 0.02326 0.6724 0.0
C513 C 0.71581 0.05572 0.68975 0.0
C514 C 0.67444 0.00791 0.63145 0.0
C515 C 0.70445 0.98735 0.62642 0.0
C516 C 0.63754 0.00205 0.61619 0.0
C517 C 0.60349 0.02147 0.6212 0.0
C518 C 0.57988 0.01348 0.64223 0.0
C519 C 0.5474 0.0312 0.64675 0.0
C520 C 0.53746 0.05623 0.63025 0.0
C521 C 0.55995 0.06362 0.6092 0.0
C522 C 0.59313 0.04676 0.60471 0.0
C523 C 0.66628 0.87455 0.54472 0.0
C524 C 0.68213 0.90658 0.52637 0.0
C525 C 0.65647 0.88982 0.56533 0.0
C526 C 0.66243 0.93724 0.56781 0.0
C527 C 0.67408 0.96753 0.54902 0.0
C528 C 0.68406 0.95238 0.52845 0.0
C529 C 0.66467 0.95845 0.59035 0.0
C530 C 0.63302 0.97698 0.59574 0.0
C531 C 0.70079 0.96365 0.6059 0.0
C532 C 0.73821 0.9489 0.60048 0.0
C533 C 0.77146 0.97082 0.58258 0.0
C534 C 0.80713 0.95735 0.57776 0.0
C535 C 0.81021 0.92231 0.59088 0.0
C536 C 0.77764 0.90073 0.60886 0.0
C537 C 0.74184 0.91403 0.61371 0.0
H538 H 0.83795 0.91204 0.58717 0.0
H539 H 0.51216 0.06967 0.63375 0.0
H540 H 0.75763 0.81552 0.98552 0.0
H541 H 0.77061 0.76448 0.95816 0.0
H542 H 0.79577 0.68807 1.01163 0.0
H543 H 0.7847 0.74071 1.03919 0.0
H544 H 0.8717 0.72742 0.98486 0.0
H545 H 0.70485 0.62319 0.97341 0.0
H546 H 0.61776 0.59968 0.96991 0.0
H547 H 0.64834 0.67647 0.90749 0.0
H548 H 0.73638 0.70253 0.9111 0.0
H549 H 0.89242 0.68284 0.85417 0.0
H550 H 0.85604 0.64828 0.89086 0.0
H551 H 0.92791 0.79496 0.91983 0.0
H552 H 0.96454 0.82921 0.88357 0.0
H553 H 0.79166 0.66927 0.91071 0.0
H554 H 0.95029 0.79662 0.9733 0.0
H555 H 0.03846 0.82495 0.9784 0.0
H556 H 0.02412 0.70249 0.93878 0.0
H557 H 0.9355 0.67264 0.93381 0.0
C558 C 0.76498 0.78723 0.99148 0.0
C559 C 0.77122 0.78288 1.01445 0.0
C560 C 0.77148 0.75732 0.97583 0.0
C561 C 0.7839 0.72212 0.98283 0.0
C562 C 0.78589 0.71473 1.00587 0.0
C563 C 0.77956 0.74489 1.02159 0.0
C564 C 0.80463 0.70169 0.9661 0.0
C565 C 0.85401 0.71387 0.96874 0.0
C566 C 0.78074 0.68161 0.94544 0.0
C567 C 0.72745 0.66468 0.94253 0.0
C568 C 0.69315 0.63525 0.95895 0.0
C569 C 0.6435 0.62156 0.95696 0.0
C570 C 0.6273 0.63627 0.9384 0.0
C571 C 0.66088 0.66491 0.92182 0.0
C572 C 0.71077 0.67923 0.92385 0.0
C573 C 0.9015 0.70735 0.86859 0.0
C574 C 0.93069 0.75866 0.86611 0.0
C575 C 0.88077 0.68762 0.88947 0.0
C576 C 0.88972 0.71896 0.90811 0.0
C577 C 0.92133 0.76992 0.90582 0.0
C578 C 0.94166 0.78958 0.88503 0.0
C579 C 0.86005 0.70094 0.92887 0.0
C580 C 0.80888 0.68104 0.92704 0.0
C581 C 0.88241 0.71435 0.95025 0.0
C582 C 0.93591 0.73217 0.95326 0.0
C583 C 0.96564 0.77526 0.9659 0.0
C584 C 0.0158 0.79165 0.96876 0.0
C585 C 0.03683 0.76541 0.95901 0.0
C586 C 0.00774 0.72271 0.94637 0.0
C587 C 0.95753 0.70607 0.94351 0.0
H588 H 0.07574 0.77833 0.96113 0.0
H589 H 0.58878 0.62563 0.9369 0.0
H590 H 0.14459 0.00662 0.33455 0.0
H591 H 0.21341 0.04827 0.30842 0.0
H592 H 0.24824 0.9317 0.3156 0.0
H593 H 0.17846 0.88918 0.34122 0.0
H594 H 0.33034 0.01809 0.31691 0.0
H595 H 0.1875 0.93886 0.27012 0.0
H596 H 0.10692 0.91689 0.25384 0.0
H597 H 0.15979 0.06875 0.23814 0.0
H598 H 0.24013 0.09161 0.25491 0.0
H599 H 0.41106 -0.00725 0.20956 0.0
H600 H 0.39154 -9e-05 0.24864 0.0
H601 H 0.39253 0.13519 0.23411 0.0
H602 H 0.40886 0.12696 0.195 0.0
H603 H 0.30196 0.05864 0.24056 0.0
H604 H 0.45459 0.12831 0.27786 0.0
H605 H 0.53537 0.14016 0.289 0.0
H606 H 0.46523 -0.00385 0.3181 0.0
H607 H 0.38394 0.98296 0.30688 0.0
C608 C 0.16661 0.98971 0.33032 0.0
C609 C 0.15613 0.94475 0.33985 0.0
C610 C 0.20626 0.01379 0.31564 0.0
C611 C 0.23626 -0.00663 0.3103 0.0
C612 C 0.22596 0.94845 0.3198 0.0
C613 C 0.18606 0.92418 0.33437 0.0
C614 C 0.27716 0.01766 0.29408 0.0
C615 C 0.3244 0.02691 0.30011 0.0
C616 C 0.2694 0.03049 0.27252 0.0
C617 C 0.21976 0.01715 0.26401 0.0
C618 C 0.18166 0.9677 0.26358 0.0
C619 C 0.13603 0.95504 0.2542 0.0
C620 C 0.12821 0.99143 0.24497 0.0
C621 C 0.16589 0.04058 0.24525 0.0
C622 C 0.21141 0.05345 0.25479 0.0
C623 C 0.40868 0.02486 0.21482 0.0
C624 C 0.40918 0.05788 0.19894 0.0
C625 C 0.39846 0.02944 0.2373 0.0
C626 C 0.38945 0.06751 0.24408 0.0
C627 C 0.39898 0.10534 0.22909 0.0
C628 C 0.40832 0.10038 0.20659 0.0
C629 C 0.35547 0.05876 0.26306 0.0
C630 C 0.30892 0.05187 0.25755 0.0
C631 C 0.36384 0.04702 0.28475 0.0
C632 C 0.41286 0.05466 0.2915 0.0
C633 C 0.45624 0.09897 0.28652 0.0
C634 C 0.50221 0.10597 0.29288 0.0
C635 C 0.50544 0.06895 0.30427 0.0
C636 C 0.46267 0.02485 0.30933 0.0
C637 C 0.41658 0.01766 0.30301 0.0
H638 H 0.54108 0.07444 0.30917 0.0
H639 H 0.09307 0.98158 0.23749 0.0
H640 H 0.4104 0.04918 0.65136 0.0
H641 H 0.46325 0.11318 0.62473 0.0
H642 H 0.49579 0.22507 0.67545 0.0
H643 H 0.44361 0.16138 0.70223 0.0
H644 H 0.43229 0.21181 0.63399 0.0
H645 H 0.58488 0.23578 0.65914 0.0
H646 H 0.64717 0.21382 0.67009 0.0
H647 H 0.65302 0.16732 0.60251 0.0
H648 H 0.58897 0.18666 0.59129 0.0
H649 H 0.48179 0.3505 0.53895 0.0
H650 H 0.5079 0.34137 0.57629 0.0
H651 H 0.52112 0.21743 0.55209 0.0
H652 H 0.49536 0.22637 0.51499 0.0
H653 H 0.58148 0.26093 0.58723 0.0
H654 H 0.41374 0.2074 0.56599 0.0
H655 H 0.34101 0.21294 0.55486 0.0
H656 H 0.35226 0.29498 0.61515 0.0
H657 H 0.42732 0.29338 0.62575 0.0
C658 C 0.43015 0.08731 0.65698 0.0
C659 C 0.42268 0.10057 0.67868 0.0
C660 C 0.46084 0.12366 0.64193 0.0
C661 C 0.48397 0.17356 0.64835 0.0
C662 C 0.47915 0.1866 0.67045 0.0
C663 C 0.44909 0.15025 0.68561 0.0
C664 C 0.50029 0.21075 0.63067 0.0
C665 C 0.46576 0.22414 0.62413 0.0
C666 C 0.54325 0.22486 0.61768 0.0
C667 C 0.58138 0.21224 0.62441 0.0
C668 C 0.59859 0.21996 0.64665 0.0
C669 C 0.63434 0.20799 0.65292 0.0
C670 C 0.65386 0.18894 0.63703 0.0
C671 C 0.63777 0.18198 0.61482 0.0
C672 C 0.60155 0.19326 0.60852 0.0
C673 C 0.49185 0.32236 0.54148 0.0
C674 C 0.48526 0.28828 0.52428 0.0
C675 C 0.50712 0.31745 0.56273 0.0
C676 C 0.51516 0.27794 0.56704 0.0
C677 C 0.51491 0.24807 0.54915 0.0
C678 C 0.49996 0.25313 0.5279 0.0
C679 C 0.51249 0.26048 0.59017 0.0
C680 C 0.5491 0.25038 0.59761 0.0
C681 C 0.47027 0.24733 0.60374 0.0
C682 C 0.42729 0.25166 0.59632 0.0
C683 C 0.40179 0.22813 0.5765 0.0
C684 C 0.3601 0.23064 0.57025 0.0
C685 C 0.34249 0.25514 0.58406 0.0
C686 C 0.36664 0.27725 0.60412 0.0
C687 C 0.40905 0.27596 0.61015 0.0
H688 H 0.3098 0.25647 0.57938 0.0
H689 H 0.68157 0.17975 0.6419 0.0
H690 H 0.4154 0.10882 1.07199 0.0
H691 H 0.48937 0.10314 1.07793 0.0
H692 H 0.54786 0.23273 0.12056 0.0
H693 H 0.47084 0.23473 0.11679 0.0
H694 H 0.57935 0.16381 1.06668 0.0
H695 H 0.60231 0.23791 0.14762 0.0
H696 H 0.57417 0.23948 0.18632 0.0
H697 H 0.50826 0.08203 0.18935 0.0
H698 H 0.53173 0.07928 0.14995 0.0
H699 H 0.79658 0.14874 1.08458 0.0
H700 H 0.73972 0.18137 1.08472 0.0
H701 H 0.63817 0.06044 0.12606 0.0
H702 H 0.69591 0.02902 0.12676 0.0
H703 H 0.63951 0.14071 0.13953 0.0
H704 H 0.62627 0.06235 1.06735 0.0
H705 H 0.65818 0.04978 1.03124 0.0
H706 H 0.70586 0.19943 1.01318 0.0
H707 H 0.67474 0.21304 1.04933 0.0
C708 C 0.4433 0.13509 1.08329 0.0
C709 C 0.43643 0.17098 0.09464 0.0
C710 C 0.48596 0.13215 0.08653 0.0
C711 C 0.52394 0.16621 0.10054 0.0
C712 C 0.51833 0.20402 0.11087 0.0
C713 C 0.47468 0.20596 0.10821 0.0
C714 C 0.56996 0.16301 0.10263 0.0
C715 C 0.59281 0.15948 1.0827 0.0
C716 C 0.58802 0.15707 0.12341 0.0
C717 C 0.56629 0.15822 0.14541 0.0
C718 C 0.57934 0.20345 0.15611 0.0
C719 C 0.56439 0.20455 0.17823 0.0
C720 C 0.53838 0.16075 0.19016 0.0
C721 C 0.52711 0.11581 0.17994 0.0
C722 C 0.54031 0.11438 0.15757 0.0
C723 C 0.76259 0.12972 0.09409 0.0
C724 C 0.75078 0.08645 0.10578 0.0
C725 C 0.72984 0.1481 0.09394 0.0
C726 C 0.68422 0.12304 0.10512 0.0
C727 C 0.67308 0.08053 0.1173 0.0
C728 C 0.70602 0.06246 0.11764 0.0
C729 C 0.64714 0.1397 0.10366 0.0
C730 C 0.62642 0.14592 0.12358 0.0
C731 C 0.63036 0.14712 1.08291 0.0
C732 C 0.64873 0.13888 1.06113 0.0
C733 C 0.64386 0.09266 1.05573 0.0
C734 C 0.66176 0.08533 1.03526 0.0
C735 C 0.68418 0.12383 1.01996 0.0
C736 C 0.68858 0.16968 1.02507 0.0
C737 C 0.67081 0.17722 1.04554 0.0
H738 H 0.69804 0.11809 1.00412 0.0
H739 H 0.52762 0.16169 0.20742 0.0
H740 H 0.3867 0.47198 0.45796 0.0
H741 H 0.47385 0.53464 0.45839 0.0
H742 H 0.50797 0.43955 0.41788 0.0
H743 H 0.42014 0.37742 0.41664 0.0
H744 H 0.55599 0.54381 0.47256 0.0
H745 H 0.60175 0.50873 0.38212 0.0
H746 H 0.55947 0.47503 0.34601 0.0
H747 H 0.44917 0.51317 0.36442 0.0
H748 H 0.49113 0.54764 0.40048 0.0
H749 H 0.81602 0.6999 0.45204 0.0
H750 H 0.73311 0.62707 0.4548 0.0
H751 H 0.67591 0.69749 0.41241 0.0
H752 H 0.75796 0.76976 0.40967 0.0
H753 H 0.64175 0.60286 0.39951 0.0
H754 H 0.65529 0.69362 0.4668 0.0
H755 H 0.69299 0.73698 0.50229 0.0
H756 H 0.677 0.60311 0.52928 0.0
H757 H 0.63978 0.55907 0.49377 0.0
C758 C 0.41281 0.46428 0.44924 0.0
C759 C 0.39657 0.41987 0.43718 0.0
C760 C 0.46274 0.50006 0.44961 0.0
C761 C 0.49766 0.49225 0.43797 0.0
C762 C 0.48174 0.44687 0.42672 0.0
C763 C 0.43158 0.41115 0.42617 0.0
C764 C 0.54995 0.53283 0.43667 0.0
C765 C 0.57485 0.55631 0.45659 0.0
C766 C 0.57444 0.55024 0.41583 0.0
C767 C 0.54926 0.53016 0.39409 0.0
C768 C 0.56855 0.51001 0.37842 0.0
C769 C 0.54463 0.49078 0.35797 0.0
C770 C 0.50155 0.49177 0.35297 0.0
C771 C 0.48242 0.51223 0.36836 0.0
C772 C 0.50623 0.53157 0.3888 0.0
C773 C 0.78565 0.69966 0.44335 0.0
C774 C 0.79337 0.74043 0.43067 0.0
C775 C 0.73837 0.65817 0.44495 0.0
C776 C 0.69828 0.65681 0.43378 0.0
C777 C 0.70624 0.69751 0.42104 0.0
C778 C 0.75316 0.73891 0.41959 0.0
C779 C 0.64775 0.61344 0.43538 0.0
C780 C 0.62319 0.58961 0.4155 0.0
C781 C 0.62301 0.59692 0.45617 0.0
C782 C 0.64534 0.6232 0.47754 0.0
C783 C 0.66024 0.67353 0.48023 0.0
C784 C 0.68144 0.69822 0.50036 0.0
C785 C 0.68755 0.67286 0.518 0.0
C786 C 0.67235 0.62272 0.51557 0.0
C787 C 0.65118 0.59787 0.49545 0.0
H788 H 0.70395 0.69201 0.53359 0.0
H789 H 0.48306 0.47681 0.33715 0.0
H790 H 0.11022 0.42572 0.73828 0.0
H791 H 0.12568 0.51016 0.7431 0.0
H792 H 0.03498 0.46674 0.80283 0.0
H793 H 0.02181 0.38277 0.79849 0.0
H794 H 0.06632 0.54148 0.73925 0.0
H795 H 0.05869 0.566 0.83585 0.0
H796 H 0.08234 0.54049 0.87039 0.0
H797 H 0.19321 0.52498 0.8338 0.0
H798 H 0.17076 0.55111 0.79914 0.0
H799 H 0.04962 0.75938 0.75378 0.0
H800 H 0.03059 0.67318 0.75706 0.0
H801 H 0.16834 0.72251 0.7915 0.0
H802 H 0.18567 0.80709 0.78946 0.0
H803 H 0.10964 0.64304 0.80891 0.0
H804 H 0.14839 0.69208 0.73182 0.0
H805 H 0.1386 0.72291 0.69548 0.0
H806 H -0.00903 0.60097 0.69011 0.0
H807 H -0.00027 0.56974 0.72657 0.0
C808 C 0.09539 0.43488 0.75295 0.0
C809 C 0.06596 0.39818 0.76833 0.0
C810 C 0.10352 0.48299 0.75553 0.0
C811 C 0.08144 0.49537 0.7733 0.0
C812 C 0.05333 0.45887 0.78919 0.0
C813 C 0.04602 0.41084 0.78682 0.0
C814 C 0.08535 0.54527 0.77418 0.0
C815 C 0.07585 0.56357 0.75454 0.0
C816 C 0.09817 0.57482 0.79396 0.0
C817 C 0.11259 0.55997 0.81483 0.0
C818 C 0.08825 0.55736 0.83519 0.0
C819 C 0.10144 0.54276 0.85479 0.0
C820 C 0.13911 0.53094 0.85426 0.0
C821 C 0.16389 0.53396 0.83416 0.0
C822 C 0.15092 0.54862 0.81454 0.0
C823 C 0.07531 0.75154 0.76233 0.0
C824 C 0.11942 0.79022 0.77109 0.0
C825 C 0.0647 0.70226 0.76406 0.0
C826 C 0.09853 0.69087 0.77411 0.0
C827 C 0.14143 0.72963 0.78365 0.0
C828 C 0.1515 0.77836 0.78231 0.0
C829 C 0.09136 0.63956 0.77388 0.0
C830 C 0.09992 0.62082 0.79366 0.0
C831 C 0.07979 0.61044 0.75399 0.0
C832 C 0.07451 0.62892 0.73202 0.0
C833 C 0.11375 0.67202 0.72294 0.0
C834 C 0.10839 0.68954 0.70232 0.0
C835 C 0.06413 0.664 0.69053 0.0
C836 C 0.02519 0.62078 0.69929 0.0
C837 C 0.03033 0.60314 0.71992 0.0
H838 H 0.06004 0.67764 0.67457 0.0
H839 H 0.14916 0.51951 0.86943 0.0
H840 H 0.29594 0.22347 0.1574 0.0
H841 H 0.29658 0.24811 0.19649 0.0
H842 H 0.29306 0.11541 0.21785 0.0
H843 H 0.29638 0.09267 0.17846 0.0
H844 H 0.33309 0.16665 0.24942 0.0
H845 H 0.26722 0.30911 0.23482 0.0
H846 H 0.21101 0.3203 0.20995 0.0
H847 H 0.13182 0.16472 0.19561 0.0
H848 H 0.18724 0.15257 0.22055 0.0
H849 H 0.3555 0.27178 0.3597 0.0
H850 H 0.36005 0.25197 0.32038 0.0
H851 H 0.22169 0.24667 0.30821 0.0
H852 H 0.22233 0.27513 0.34674 0.0
H853 H 0.24753 0.25803 0.27203 0.0
H854 H 0.2626 0.13762 0.31203 0.0
H855 H 0.29489 0.10306 0.33975 0.0
H856 H 0.43644 0.17516 0.3073 0.0
H857 H 0.40479 0.20952 0.27919 0.0
C858 C 0.29517 0.19907 0.17029 0.0
C859 C 0.2956 0.15531 0.16388 0.0
C860 C 0.29481 0.21312 0.19323 0.0
C861 C 0.29298 0.18354 0.21152 0.0
C862 C 0.29411 0.13996 0.20505 0.0
C863 C 0.29575 0.12647 0.18202 0.0
C864 C 0.29073 0.1982 0.2368 0.0
C865 C 0.31431 0.1868 0.25404 0.0
C866 C 0.2648 0.22286 0.2445 0.0
C867 C 0.23178 0.23006 0.22932 0.0
C868 C 0.2378 0.27731 0.22636 0.0
C869 C 0.20608 0.28381 0.21226 0.0
C870 C 0.168 0.24328 0.20114 0.0
C871 C 0.16146 0.19612 0.20415 0.0
C872 C 0.19304 0.18941 0.21825 0.0
C873 C 0.32598 0.26678 0.34871 0.0
C874 C 0.28785 0.27443 0.35741 0.0
C875 C 0.32788 0.25385 0.3257 0.0
C876 C 0.28993 0.24414 0.30999 0.0
C877 C 0.2521 0.25268 0.31879 0.0
C878 C 0.25184 0.26854 0.34151 0.0
C879 C 0.29017 0.22682 0.28487 0.0
C880 C 0.26646 0.23799 0.26757 0.0
C881 C 0.31261 0.19845 0.27741 0.0
C882 C 0.33145 0.17652 0.29368 0.0
C883 C 0.30055 0.14587 0.31077 0.0
C884 C 0.31875 0.12638 0.32654 0.0
C885 C 0.36772 0.13698 0.32529 0.0
C886 C 0.39847 0.1668 0.30817 0.0
C887 C 0.38038 0.18617 0.29227 0.0
H888 H 0.38178 0.12188 0.33752 0.0
H889 H 0.14349 0.2484 0.19023 0.0
H890 H 0.28209 0.2845 0.51605 0.0
H891 H 0.25229 0.27919 0.55489 0.0
H892 H 0.13538 0.3022 0.5317 0.0
H893 H 0.16463 0.30685 0.49307 0.0
H894 H 0.0955 0.24333 0.56298 0.0
H895 H 0.28107 0.3155 0.61223 0.0
H896 H 0.36941 0.37669 0.60745 0.0
H897 H 0.33344 0.44995 0.55704 0.0
H898 H 0.24505 0.39092 0.56216 0.0
H899 H 0.01885 0.20402 0.67908 0.0
H900 H 0.04999 0.20451 0.6412 0.0
H901 H 0.17056 0.35176 0.653 0.0
H902 H 0.14234 0.34815 0.69178 0.0
H903 H 0.2087 0.3266 0.62655 0.0
H904 H 0.04613 0.29976 0.61394 0.0
H905 H 0.95553 0.25896 0.61732 0.0
H906 H 0.9426 0.1243 0.59093 0.0
H907 H 0.03323 0.16412 0.58773 0.0
C908 C 0.25005 0.28856 0.51907 0.0
C909 C 0.22645 0.29636 0.50066 0.0
C910 C 0.23282 0.28573 0.54169 0.0
C911 C 0.19101 0.29063 0.54726 0.0
C912 C 0.16734 0.29795 0.52877 0.0
C913 C 0.18459 0.30092 0.50625 0.0
C914 C 0.17188 0.28815 0.57185 0.0
C915 C 0.12074 0.26157 0.57676 0.0
C916 C 0.20309 0.31283 0.5906 0.0
C917 C 0.25638 0.34802 0.58727 0.0
C918 C 0.292 0.34466 0.60014 0.0
C919 C 0.34206 0.37901 0.5974 0.0
C920 C 0.35699 0.41666 0.58176 0.0
C921 C 0.32187 0.4205 0.56901 0.0
C922 C 0.27178 0.38668 0.57186 0.0
C923 C 0.05185 0.23676 0.67363 0.0
C924 C 0.07716 0.27627 0.68903 0.0
C925 C 0.0698 0.2375 0.65136 0.0
C926 C 0.1127 0.27904 0.6426 0.0
C927 C 0.13762 0.31866 0.65818 0.0
C928 C 0.12091 0.31692 0.68075 0.0
C929 C 0.13197 0.28134 0.61791 0.0
C930 C 0.18326 0.30795 0.61291 0.0
C931 C 0.10072 0.25886 0.59883 0.0
C932 C 0.04639 0.23476 0.60081 0.0
C933 C 0.02394 0.26137 0.60898 0.0
C934 C 0.97262 0.23842 0.61088 0.0
C935 C 0.94336 0.18901 0.60443 0.0
C936 C 0.96535 0.16249 0.596 0.0
C937 C 0.01667 0.18522 0.59414 0.0
H938 H 0.90364 0.17132 0.6059 0.0
H939 H 0.39575 0.44307 0.57964 0.0
H940 H 0.0708 0.24672 0.84408 0.0
H941 H 0.04964 0.2225 0.8832 0.0
H942 H 0.89791 0.17755 0.86982 0.0
H943 H 0.91894 0.20007 0.83019 0.0
H944 H 0.89151 0.11714 0.89897 0.0
H945 H 0.08267 0.24709 0.93736 0.0
H946 H 0.15608 0.32726 0.92879 0.0
H947 H 0.06555 0.37219 0.89408 0.0
H948 H -0.0084 0.29261 0.90261 0.0
H949 H 0.87586 0.03984 1.01399 0.0
H950 H 0.89823 0.0629 0.9747 0.0
H951 H 0.93868 0.21293 0.9913 0.0
H952 H 0.91813 0.19015 1.03082 0.0
H953 H -0.00148 0.22324 0.96061 0.0
H954 H 0.82343 0.11723 0.95946 0.0
H955 H 0.74464 0.04121 0.96662 0.0
H956 H 0.79348 0.95739 0.92695 0.0
H957 H 0.87278 0.03289 0.91974 0.0
C958 C 0.03275 0.23188 0.84925 0.0
C959 C -0.00291 0.22621 0.83317 0.0
C960 C 0.02045 0.21814 0.87218 0.0
C961 C 0.97177 0.19866 0.88075 0.0
C962 C 0.93591 0.19237 0.86458 0.0
C963 C 0.94816 0.2057 0.84152 0.0
C964 C 0.95852 0.18484 0.90607 0.0
C965 C 0.91545 0.14067 0.91225 0.0
C966 C -0.01212 0.21473 0.92446 0.0
C967 C 0.03172 0.26366 0.92039 0.0
C968 C 0.0784 0.27422 0.92804 0.0
C969 C 0.12011 0.31947 0.92312 0.0
C970 C 0.11547 0.3545 0.91069 0.0
C971 C 0.06908 0.34481 0.90352 0.0
C972 C 0.02729 0.29968 0.9084 0.0
C973 C 0.88926 0.07784 1.00946 0.0
C974 C 0.8942 0.11254 1.02636 0.0
C975 C 0.90197 0.09128 0.98648 0.0
C976 C 0.91961 0.14013 0.97879 0.0
C977 C 0.92527 0.17492 0.99581 0.0
C978 C 0.91303 0.16158 1.01884 0.0
C979 C 0.93202 0.1549 0.95351 0.0
C980 C 0.9748 0.19945 0.94734 0.0
C981 C 0.90186 0.12588 0.93514 0.0
C982 C 0.85414 0.0806 0.93923 0.0
C983 C 0.81741 0.08254 0.95235 0.0
C984 C 0.77268 0.03956 0.95641 0.0
C985 C 0.76411 -0.00552 0.94729 0.0
C986 C 0.80019 0.99233 0.93402 0.0
C987 C 0.84501 0.0352 0.92992 0.0
H988 H 0.72947 0.96124 0.95047 0.0
H989 H 0.14777 0.38927 0.90668 0.0
H990 H 0.80243 0.94877 0.16341 0.0
H991 H 0.80245 0.92168 0.20188 0.0
H992 H 0.91958 0.06685 0.21924 0.0
H993 H 0.91866 0.0946 0.18081 0.0
H994 H 0.93677 -0.00713 0.2382 0.0
H995 H 0.80257 0.02692 0.2384 0.0
H996 H 0.72474 0.01913 0.22481 0.0
H997 H 0.65036 0.86321 0.23647 0.0
H998 H 0.72794 0.86997 0.24985 0.0
H999 H 0.8135 0.91966 0.36188 0.0
H1000 H 0.81323 0.94594 0.32336 0.0
H1001 H 0.90224 0.8824 0.30237 0.0
H1002 H 0.90852 0.86305 0.34134 0.0
H1003 H 0.7853 0.92048 0.28495 0.0
H1004 H 0.95478 0.92095 0.24898 0.0
H1005 H 0.02693 0.91753 0.2627 0.0
H1006 H 0.02872 -0.00307 0.32244 0.0
H1007 H 0.9582 0.00353 0.3085 0.0
C1008 C 0.82826 0.97541 0.17529 0.0
C1009 C 0.8604 0.02448 0.16825 0.0
C1010 C 0.82821 0.9596 0.19768 0.0
C1011 C 0.86099 0.99157 0.21437 0.0
C1012 C 0.89365 0.04049 0.2073 0.0
C1013 C 0.89294 0.05666 0.185 0.0
C1014 C 0.86066 0.97416 0.23883 0.0
C1015 C 0.90346 0.97722 0.24832 0.0
C1016 C 0.81784 0.953 0.25285 0.0
C1017 C 0.77115 0.9489 0.24494 0.0
C1018 C 0.76969 0.99092 0.23791 0.0
C1019 C 0.72561 0.9867 0.23027 0.0
C1020 C 0.68266 0.94069 0.22972 0.0
C1021 C 0.68367 0.89882 0.23688 0.0
C1022 C 0.72768 0.90283 0.24451 0.0
C1023 C 0.83394 0.91197 0.3492 0.0
C1024 C 0.86233 0.89014 0.35559 0.0
C1025 C 0.83353 0.92699 0.32669 0.0
C1026 C 0.85972 0.91918 0.30891 0.0
C1027 C 0.88418 0.89298 0.31508 0.0
C1028 C 0.887 0.88063 0.33778 0.0
C1029 C 0.86142 0.93852 0.28455 0.0
C1030 C 0.81885 0.93616 0.27502 0.0
C1031 C 0.90443 0.9597 0.27038 0.0
C1032 C 0.95097 0.9625 0.2777 0.0
C1033 C 0.97138 0.93895 0.26476 0.0
C1034 C 0.01217 0.93665 0.27255 0.0
C1035 C 0.03306 0.95784 0.29324 0.0
C1036 C 0.01313 0.9814 0.30621 0.0
C1037 C 0.97309 0.98498 0.29825 0.0
H1038 H 0.06457 0.95583 0.29922 0.0
H1039 H 0.64857 0.9375 0.2238 0.0
H1040 H 0.88957 0.90906 0.5133 0.0
H1041 H 0.9189 0.91425 0.55204 0.0
H1042 H 0.01388 0.85912 0.52935 0.0
H1043 H 0.98516 0.85441 0.49082 0.0
H1044 H 0.97821 0.81713 0.56845 0.0
H1045 H 0.0542 0.98804 0.54635 0.0
H1046 H 0.05536 0.06332 0.53351 0.0
H1047 H 0.96581 0.05736 0.58993 0.0
H1048 H 0.96365 0.98178 0.60294 0.0
H1049 H 0.0064 0.83963 0.6907 0.0
H1050 H 0.97738 0.83682 0.65231 0.0
H1051 H 0.12007 0.95626 0.63414 0.0
H1052 H 0.14981 0.95815 0.67257 0.0
H1053 H 0.03905 0.96808 0.61568 0.0
H1054 H 0.93022 0.7584 0.60382 0.0
H1055 H 0.9297 0.68417 0.61775 0.0
H1056 H 0.08549 0.76869 0.62973 0.0
H1057 H 0.08706 0.84321 0.61556 0.0
C1058 C 0.91678 0.89802 0.51637 0.0
C1059 C 0.93446 0.88136 0.49805 0.0
C1060 C 0.9341 0.90129 0.53892 0.0
C1061 C 0.96983 0.88764 0.54462 0.0
C1062 C -0.0133 0.87022 0.52634 0.0
C1063 C 0.96999 0.86764 0.50384 0.0
C1064 C -0.01053 0.89097 0.56909 0.0
C1065 C -0.00886 0.8504 0.57856 0.0
C1066 C 0.00725 0.93375 0.58336 0.0
C1067 C 0.00837 0.979 0.57548 0.0
C1068 C 0.03445 0.0026 0.55591 0.0
C1069 C 0.03535 0.04537 0.54863 0.0
C1070 C 0.01056 0.06505 0.56086 0.0
C1071 C 0.98493 0.04207 0.58044 0.0
C1072 C 0.98388 -0.00071 0.58778 0.0
C1073 C 0.03216 0.86534 0.67865 0.0
C1074 C 0.08109 0.89917 0.68554 0.0
C1075 C 0.01517 0.8637 0.65631 0.0
C1076 C 0.04573 0.89635 0.63942 0.0
C1077 C 0.09468 0.93036 0.64624 0.0
C1078 C 0.11207 0.93125 0.66853 0.0
C1079 C 0.02693 0.89405 0.61497 0.0
C1080 C 0.02564 0.93476 0.60554 0.0
C1081 C 0.00883 0.85122 0.60083 0.0
C1082 C 0.00862 0.80645 0.60883 0.0
C1083 C 0.9644 0.76107 0.60932 0.0
C1084 C 0.96392 0.71896 0.61727 0.0
C1085 C 0.00751 0.72175 0.62469 0.0
C1086 C 0.05172 0.76661 0.62406 0.0
C1087 C 0.05242 0.8088 0.61608 0.0
H1088 H 0.00704 0.68914 0.6309 0.0
H1089 H 0.01128 0.09815 0.55518 0.0
H1090 H 0.25093 0.98984 0.82343 0.0
H1091 H 0.2728 0.01232 0.86302 0.0
H1092 H 0.11924 0.95292 0.87955 0.0
H1093 H 0.09739 0.92846 0.84028 0.0
H1094 H 0.27485 0.06954 0.89311 0.0
H1095 H 0.09234 0.93141 0.93413 0.0
H1096 H 0.0211 0.84898 0.92663 0.0
H1097 H 0.11366 0.8086 0.88869 0.0
H1098 H 0.1855 0.89097 0.89591 0.0
H1099 H 0.28693 0.14387 1.00917 0.0
H1100 H 0.26585 0.11891 0.96992 0.0
H1101 H 0.24849 0.97658 0.98403 0.0
H1102 H 0.26994 0.00162 1.02355 0.0
H1103 H 0.18012 0.9586 0.95544 0.0
H1104 H 0.35287 0.07948 0.95082 0.0
H1105 H 0.42644 0.1608 0.95757 0.0
H1106 H 0.35894 0.23114 0.92273 0.0
H1107 H 0.2848 0.15025 0.91594 0.0
C1108 C 0.2215 0.981 0.83543 0.0
C1109 C 0.17195 0.95649 0.82793 0.0
C1110 C 0.23423 -0.00572 0.85848 0.0
C1111 C 0.19824 0.98402 0.87548 0.0
C1112 C 0.14872 0.96041 0.8678 0.0
C1113 C 0.13597 0.94659 0.84483 0.0
C1114 C 0.2126 -0.00147 0.90066 0.0
C1115 C 0.25365 0.04481 0.90653 0.0
C1116 C 0.18653 0.96752 0.9192 0.0
C1117 C 0.14414 0.91742 0.91542 0.0
C1118 C 0.09751 0.90485 0.92428 0.0
C1119 C 0.057 0.85822 0.91999 0.0
C1120 C 0.0628 0.82361 0.90713 0.0
C1121 C 0.10919 0.83551 0.89858 0.0
C1122 C 0.1498 0.8822 0.90272 0.0
C1123 C 0.27939 0.10733 1.0041 0.0
C1124 C 0.28138 0.07554 1.02026 0.0
C1125 C 0.26711 0.09283 0.98119 0.0
C1126 C 0.25559 0.04549 0.97291 0.0
C1127 C 0.25698 0.01339 0.98913 0.0
C1128 C 0.26985 0.02808 1.01208 0.0
C1129 C 0.242 0.02977 0.9478 0.0
C1130 C 0.2012 0.98329 0.94198 0.0
C1131 C 0.26847 0.06043 0.92927 0.0
C1132 C 0.31325 0.1089 0.93299 0.0
C1133 C 0.35371 0.11233 0.94465 0.0
C1134 C 0.39549 0.15833 0.94848 0.0
C1135 C 0.39733 0.20111 0.94061 0.0
C1136 C 0.35746 0.19797 0.92882 0.0
C1137 C 0.3156 0.15207 0.92493 0.0
H1138 H 0.42967 0.23669 0.94363 0.0
H1139 H 0.03139 0.7875 0.90385 0.0
loop_
_geom_bond_atom_site_label_1
_geom_bond_atom_site_label_2
_geom_bond_distance
_geom_bond_site_symmetry_2
_ccdc_geom_bond_type
Tb0 C2 2.809 . S
Tb0 O20 2.484 . S
Tb0 O21 2.440 . S
Tb0 O22 2.658 1_554 S
Tb0 O23 2.409 . S
Tb0 O24 2.378 . S
Tb0 O28 2.325 . S
Tb0 O31 2.341 1_554 S
Tb1 C11 2.809 . S
Tb1 O22 2.325 . S
Tb1 O25 2.341 1_556 S
Tb1 O26 2.484 . S
Tb1 O27 2.440 . S
Tb1 O28 2.658 1_556 S
Tb1 O29 2.409 . S
Tb1 O30 2.378 . S
C2 Tb0 2.809 . S
C2 C3 1.514 . S
C2 O20 1.248 . S
C2 O21 1.266 . S
C3 C2 1.514 . S
C3 C4 1.359 . S
C3 C8 1.348 . S
C4 C3 1.359 . S
C4 C5 1.380 . S
C4 H32 0.929 . S
C5 C4 1.380 . S
C5 C6 1.347 . S
C5 H33 0.931 . S
C6 C5 1.347 . S
C6 C7 1.369 . S
C7 C6 1.369 . S
C7 C8 1.408 . S
C7 H34 0.930 . S
C8 C3 1.348 . S
C8 C7 1.408 . S
C8 H35 0.930 . S
C9 O22 1.281 1_554 S
C9 O23 1.254 . S
C10 O24 1.236 . S
C10 O25 1.266 . S
C11 Tb1 2.809 . S
C11 C12 1.514 . S
C11 O26 1.248 . S
C11 O27 1.266 . S
C12 C11 1.514 . S
C12 C13 1.359 . S
C12 C17 1.348 . S
C13 C12 1.359 . S
C13 C14 1.380 . S
C13 H36 0.929 . S
C14 C13 1.380 . S
C14 C15 1.347 . S
C14 H37 0.931 . S
C15 C14 1.347 . S
C15 C16 1.369 . S
C16 C15 1.369 . S
C16 C17 1.408 . S
C16 H38 0.930 . S
C17 C12 1.348 . S
C17 C16 1.408 . S
C17 H39 0.930 . S
C18 O28 1.281 . S
C18 O29 1.254 1_554 S
C19 O30 1.236 . S
C19 O31 1.266 . S
O20 Tb0 2.484 . S
O20 C2 1.248 . S
O21 Tb0 2.440 . S
O21 C2 1.266 . S
O22 Tb0 2.658 1_556 S
O22 Tb1 2.325 . S
O22 C9 1.281 1_556 S
O23 Tb0 2.409 . S
O23 C9 1.254 . S
O24 Tb0 2.378 . S
O24 C10 1.236 . S
O25 Tb1 2.341 1_554 S
O25 C10 1.266 . S
O26 Tb1 2.484 . S
O26 C11 1.248 . S
O27 Tb1 2.440 . S
O27 C11 1.266 . S
O28 Tb0 2.325 . S
O28 Tb1 2.658 1_554 S
O28 C18 1.281 . S
O29 Tb1 2.409 . S
O29 C18 1.254 1_556 S
O30 Tb1 2.378 . S
O30 C19 1.236 . S
O31 Tb0 2.341 1_556 S
O31 C19 1.266 . S
H32 C4 0.929 . S
H33 C5 0.931 . S
H34 C7 0.930 . S
H35 C8 0.930 . S
H36 C13 0.929 . S
H37 C14 0.931 . S
H38 C16 0.930 . S
H39 C17 0.930 . S
Tb40 C42 2.809 . S
Tb40 O60 2.484 . S
Tb40 O61 2.440 . S
Tb40 O62 2.658 . S
Tb40 O63 2.409 . S
Tb40 O64 2.378 . S
Tb40 O68 2.325 . S
Tb40 O71 2.341 . S
Tb41 C51 2.809 . S
Tb41 O62 2.325 . S
Tb41 O65 2.341 . S
Tb41 O66 2.484 . S
Tb41 O67 2.440 . S
Tb41 O68 2.658 . S
Tb41 O69 2.409 . S
Tb41 O70 2.378 . S
C42 Tb40 2.809 . S
C42 C43 1.514 . S
C42 O60 1.248 . S
C42 O61 1.266 . S
C43 C42 1.514 . S
C43 C44 1.359 . S
C43 C48 1.348 . S
C44 C43 1.359 . S
C44 C45 1.380 . S
C44 H72 0.929 . S
C45 C44 1.380 . S
C45 C46 1.347 . S
C45 H73 0.931 . S
C46 C45 1.347 . S
C46 C47 1.369 . S
C47 C46 1.369 . S
C47 C48 1.408 . S
C47 H74 0.930 . S
C48 C43 1.348 . S
C48 C47 1.408 . S
C48 H75 0.930 . S
C49 O62 1.281 . S
C49 O63 1.254 . S
C50 O64 1.236 . S
C50 O65 1.266 . S
C51 Tb41 2.809 . S
C51 C52 1.514 . S
C51 O66 1.248 . S
C51 O67 1.266 . S
C52 C51 1.514 . S
C52 C53 1.359 . S
C52 C57 1.348 . S
C53 C52 1.359 . S
C53 C54 1.380 . S
C53 H76 0.929 . S
C54 C53 1.380 . S
C54 C55 1.347 . S
C54 H77 0.931 . S
C55 C54 1.347 . S
C55 C56 1.369 . S
C56 C55 1.369 . S
C56 C57 1.408 . S
C56 H78 0.930 . S
C57 C52 1.348 . S
C57 C56 1.408 . S
C57 H79 0.930 . S
C58 O68 1.281 . S
C58 O69 1.254 . S
C59 O70 1.236 . S
C59 O71 1.266 . S
O60 Tb40 2.484 . S
O60 C42 1.248 . S
O61 Tb40 2.440 . S
O61 C42 1.266 . S
O62 Tb40 2.658 . S
O62 Tb41 2.325 . S
O62 C49 1.281 . S
O63 Tb40 2.409 . S
O63 C49 1.254 . S
O64 Tb40 2.378 . S
O64 C50 1.236 . S
O65 Tb41 2.341 . S
O65 C50 1.266 . S
O66 Tb41 2.484 . S
O66 C51 1.248 . S
O67 Tb41 2.440 . S
O67 C51 1.266 . S
O68 Tb40 2.325 . S
O68 Tb41 2.658 . S
O68 C58 1.281 . S
O69 Tb41 2.409 . S
O69 C58 1.254 . S
O70 Tb41 2.378 . S
O70 C59 1.236 . S
O71 Tb40 2.341 . S
O71 C59 1.266 . S
H72 C44 0.929 . S
H73 C45 0.931 . S
H74 C47 0.930 . S
H75 C48 0.930 . S
H76 C53 0.929 . S
H77 C54 0.931 . S
H78 C56 0.930 . S
H79 C57 0.930 . S
Tb80 C82 2.809 . S
Tb80 O100 2.484 . S
Tb80 O101 2.440 . S
Tb80 O102 2.658 . S
Tb80 O103 2.409 . S
Tb80 O104 2.390 . S
Tb80 O108 2.349 . S
Tb80 O111 2.341 . S
Tb81 C91 2.809 . S
Tb81 O102 2.325 1_655 S
Tb81 O105 2.341 . S
Tb81 O106 2.484 . S
Tb81 O107 2.440 . S
Tb81 O108 2.651 1_655 S
Tb81 O109 2.409 . S
Tb81 O110 2.378 1_655 S
C82 Tb80 2.809 . S
C82 C83 1.514 . S
C82 O100 1.248 . S
C82 O101 1.266 . S
C83 C82 1.514 . S
C83 C84 1.359 . S
C83 C88 1.348 . S
C84 C83 1.359 . S
C84 C85 1.380 . S
C84 H112 0.929 . S
C85 C84 1.380 . S
C85 C86 1.347 . S
C85 H113 0.931 . S
C86 C85 1.347 . S
C86 C87 1.369 . S
C87 C86 1.369 . S
C87 C88 1.408 . S
C87 H114 0.930 . S
C88 C83 1.348 . S
C88 C87 1.408 . S
C88 H115 0.930 . S
C89 O102 1.281 . S
C89 O103 1.254 . S
C90 O104 1.214 1_655 S
C90 O105 1.266 . S
C91 Tb81 2.809 . S
C91 C92 1.514 . S
C91 O106 1.248 . S
C91 O107 1.266 . S
C92 C91 1.514 . S
C92 C93 1.359 . S
C92 C97 1.348 . S
C93 C92 1.359 . S
C93 C94 1.380 . S
C93 H116 0.929 . S
C94 C93 1.380 . S
C94 C95 1.347 . S
C94 H117 0.931 . S
C95 C94 1.347 . S
C95 C96 1.369 . S
C96 C95 1.369 . S
C96 C97 1.408 . S
C96 H118 0.930 . S
C97 C92 1.348 . S
C97 C96 1.408 . S
C97 H119 0.930 . S
C98 O108 1.261 1_655 S
C98 O109 1.254 . S
C99 O110 1.236 . S
C99 O111 1.266 . S
O100 Tb80 2.484 . S
O100 C82 1.248 . S
O101 Tb80 2.440 . S
O101 C82 1.266 . S
O102 Tb80 2.658 . S
O102 Tb81 2.325 1_455 S
O102 C89 1.281 . S
O103 Tb80 2.409 . S
O103 C89 1.254 . S
O104 Tb80 2.390 . S
O104 C90 1.214 1_455 S
O105 Tb81 2.341 . S
O105 C90 1.266 . S
O106 Tb81 2.484 . S
O106 C91 1.248 . S
O107 Tb81 2.440 . S
O107 C91 1.266 . S
O108 Tb80 2.349 . S
O108 Tb81 2.651 1_455 S
O108 C98 1.261 1_455 S
O109 Tb81 2.409 . S
O109 C98 1.254 . S
O110 Tb81 2.378 1_455 S
O110 C99 1.236 . S
O111 Tb80 2.341 . S
O111 C99 1.266 . S
H112 C84 0.929 . S
H113 C85 0.931 . S
H114 C87 0.930 . S
H115 C88 0.930 . S
H116 C93 0.929 . S
H117 C94 0.931 . S
H118 C96 0.930 . S
H119 C97 0.930 . S
Tb120 C122 2.809 . S
Tb120 O140 2.484 . S
Tb120 O141 2.440 . S
Tb120 O142 2.658 1_554 S
Tb120 O143 2.409 . S
Tb120 O144 2.378 . S
Tb120 O148 2.325 . S
Tb120 O151 2.341 1_554 S
Tb121 C131 2.809 . S
Tb121 O142 2.325 1_565 S
Tb121 O145 2.341 1_556 S
Tb121 O146 2.484 . S
Tb121 O147 2.440 . S
Tb121 O148 2.658 1_566 S
Tb121 O149 2.409 . S
Tb121 O150 2.378 1_565 S
C122 Tb120 2.809 . S
C122 C123 1.514 . S
C122 O140 1.248 . S
C122 O141 1.266 . S
C123 C122 1.514 . S
C123 C124 1.359 . S
C123 C128 1.348 . S
C124 C123 1.359 . S
C124 C125 1.380 . S
C124 H152 0.929 . S
C125 C124 1.380 . S
C125 C126 1.347 . S
C125 H153 0.931 . S
C126 C125 1.347 . S
C126 C127 1.369 . S
C127 C126 1.369 . S
C127 C128 1.408 . S
C127 H154 0.930 . S
C128 C123 1.348 . S
C128 C127 1.408 . S
C128 H155 0.930 . S
C129 O142 1.281 1_554 S
C129 O143 1.254 . S
C130 O144 1.236 1_565 S
C130 O145 1.266 . S
C131 Tb121 2.809 . S
C131 C132 1.514 . S
C131 O146 1.248 . S
C131 O147 1.266 . S
C132 C131 1.514 . S
C132 C133 1.359 . S
C132 C137 1.348 . S
C133 C132 1.359 . S
C133 C134 1.380 . S
C133 H156 0.929 . S
C134 C133 1.380 . S
C134 C135 1.347 . S
C134 H157 0.931 . S
C135 C134 1.347 . S
C135 C136 1.369 . S
C136 C135 1.369 . S
C136 C137 1.408 . S
C136 H158 0.930 . S
C137 C132 1.348 . S
C137 C136 1.408 . S
C137 H159 0.930 . S
C138 O148 1.281 1_565 S
C138 O149 1.254 1_554 S
C139 O150 1.236 . S
C139 O151 1.266 . S
O140 Tb120 2.484 . S
O140 C122 1.248 . S
O141 Tb120 2.440 . S
O141 C122 1.266 . S
O142 Tb120 2.658 1_556 S
O142 Tb121 2.325 1_545 S
O142 C129 1.281 1_556 S
O143 Tb120 2.409 . S
O143 C129 1.254 . S
O144 Tb120 2.378 . S
O144 C130 1.236 1_545 S
O145 Tb121 2.341 1_554 S
O145 C130 1.266 . S
O146 Tb121 2.484 . S
O146 C131 1.248 . S
O147 Tb121 2.440 . S
O147 C131 1.266 . S
O148 Tb120 2.325 . S
O148 Tb121 2.658 1_544 S
O148 C138 1.281 1_545 S
O149 Tb121 2.409 . S
O149 C138 1.254 1_556 S
O150 Tb121 2.378 1_545 S
O150 C139 1.236 . S
O151 Tb120 2.341 1_556 S
O151 C139 1.266 . S
H152 C124 0.929 . S
H153 C125 0.931 . S
H154 C127 0.930 . S
H155 C128 0.930 . S
H156 C133 0.929 . S
H157 C134 0.931 . S
H158 C136 0.930 . S
H159 C137 0.930 . S
Tb160 C162 2.809 . S
Tb160 O180 2.484 . S
Tb160 O181 2.440 . S
Tb160 O182 2.658 . S
Tb160 O183 2.409 . S
Tb160 O184 2.378 . S
Tb160 O188 2.325 . S
Tb160 O191 2.341 . S
Tb161 C171 2.809 . S
Tb161 O182 2.325 . S
Tb161 O185 2.341 . S
Tb161 O186 2.484 1_655 S
Tb161 O187 2.440 . S
Tb161 O188 2.658 . S
Tb161 O189 2.409 . S
Tb161 O190 2.378 . S
C162 Tb160 2.809 . S
C162 C163 1.514 . S
C162 O180 1.248 . S
C162 O181 1.266 . S
C163 C162 1.514 . S
C163 C164 1.359 . S
C163 C168 1.348 . S
C164 C163 1.359 . S
C164 C165 1.380 . S
C164 H192 0.929 . S
C165 C164 1.380 . S
C165 C166 1.347 . S
C165 H193 0.931 . S
C166 C165 1.347 . S
C166 C167 1.369 . S
C167 C166 1.369 . S
C167 C168 1.408 . S
C167 H194 0.930 . S
C168 C163 1.348 . S
C168 C167 1.408 . S
C168 H195 0.930 . S
C169 O182 1.281 1_455 S
C169 O183 1.254 1_455 S
C170 O184 1.236 . S
C170 O185 1.266 . S
C171 Tb161 2.809 . S
C171 C172 1.514 1_655 S
C171 O186 1.248 1_655 S
C171 O187 1.266 . S
C172 C171 1.514 1_455 S
C172 C173 1.359 . S
C172 C177 1.348 1_455 S
C173 C172 1.359 . S
C173 C174 1.380 . S
C173 H196 0.929 . S
C174 C173 1.380 . S
C174 C175 1.347 . S
C174 H197 0.931 . S
C175 C174 1.347 . S
C175 C176 1.369 . S
C176 C175 1.369 . S
C176 C177 1.408 1_455 S
C176 H198 0.930 1_455 S
C177 C172 1.348 1_655 S
C177 C176 1.408 1_655 S
C177 H199 0.930 . S
C178 O188 1.281 . S
C178 O189 1.254 . S
C179 O190 1.236 . S
C179 O191 1.266 . S
O180 Tb160 2.484 . S
O180 C162 1.248 . S
O181 Tb160 2.440 . S
O181 C162 1.266 . S
O182 Tb160 2.658 . S
O182 Tb161 2.325 . S
O182 C169 1.281 1_655 S
O183 Tb160 2.409 . S
O183 C169 1.254 1_655 S
O184 Tb160 2.378 . S
O184 C170 1.236 . S
O185 Tb161 2.341 . S
O185 C170 1.266 . S
O186 Tb161 2.484 1_455 S
O186 C171 1.248 1_455 S
O187 Tb161 2.440 . S
O187 C171 1.266 . S
O188 Tb160 2.325 . S
O188 Tb161 2.658 . S
O188 C178 1.281 . S
O189 Tb161 2.409 . S
O189 C178 1.254 . S
O190 Tb161 2.378 . S
O190 C179 1.236 . S
O191 Tb160 2.341 . S
O191 C179 1.266 . S
H192 C164 0.929 . S
H193 C165 0.931 . S
H194 C167 0.930 . S
H195 C168 0.930 . S
H196 C173 0.929 . S
H197 C174 0.931 . S
H198 C176 0.930 1_655 S
H199 C177 0.930 . S
Tb200 C202 2.809 . S
Tb200 O220 2.484 . S
Tb200 O221 2.440 . S
Tb200 O222 2.658 . S
Tb200 O223 2.409 . S
Tb200 O224 2.378 . S
Tb200 O228 2.325 . S
Tb200 O231 2.341 . S
Tb201 C211 2.809 1_565 S
Tb201 O222 2.325 . S
Tb201 O225 2.341 . S
Tb201 O226 2.484 1_565 S
Tb201 O227 2.440 . S
Tb201 O228 2.658 . S
Tb201 O229 2.409 . S
Tb201 O230 2.378 . S
C202 Tb200 2.809 . S
C202 C203 1.514 . S
C202 O220 1.248 . S
C202 O221 1.266 . S
C203 C202 1.514 . S
C203 C204 1.359 . S
C203 C208 1.348 . S
C204 C203 1.359 . S
C204 C205 1.380 . S
C204 H232 0.929 . S
C205 C204 1.380 . S
C205 C206 1.347 . S
C205 H233 0.931 . S
C206 C205 1.347 . S
C206 C207 1.369 . S
C207 C206 1.369 . S
C207 C208 1.408 . S
C207 H234 0.930 . S
C208 C203 1.348 . S
C208 C207 1.408 . S
C208 H235 0.930 . S
C209 O222 1.281 1_545 S
C209 O223 1.254 1_545 S
C210 O224 1.236 . S
C210 O225 1.266 . S
C211 Tb201 2.809 1_545 S
C211 C212 1.514 . S
C211 O226 1.248 . S
C211 O227 1.266 1_545 S
C212 C211 1.514 . S
C212 C213 1.359 . S
C212 C217 1.348 . S
C213 C212 1.359 . S
C213 C214 1.380 . S
C213 H236 0.929 . S
C214 C213 1.380 . S
C214 C215 1.347 . S
C214 H237 0.931 . S
C215 C214 1.347 . S
C215 C216 1.369 . S
C216 C215 1.369 . S
C216 C217 1.408 . S
C216 H238 0.930 . S
C217 C212 1.348 . S
C217 C216 1.408 . S
C217 H239 0.930 1_545 S
C218 O228 1.281 . S
C218 O229 1.254 . S
C219 O230 1.236 . S
C219 O231 1.266 . S
O220 Tb200 2.484 . S
O220 C202 1.248 . S
O221 Tb200 2.440 . S
O221 C202 1.266 . S
O222 Tb200 2.658 . S
O222 Tb201 2.325 . S
O222 C209 1.281 1_565 S
O223 Tb200 2.409 . S
O223 C209 1.254 1_565 S
O224 Tb200 2.378 . S
O224 C210 1.236 . S
O225 Tb201 2.341 . S
O225 C210 1.266 . S
O226 Tb201 2.484 1_545 S
O226 C211 1.248 . S
O227 Tb201 2.440 . S
O227 C211 1.266 1_565 S
O228 Tb200 2.325 . S
O228 Tb201 2.658 . S
O228 C218 1.281 . S
O229 Tb201 2.409 . S
O229 C218 1.254 . S
O230 Tb201 2.378 . S
O230 C219 1.236 . S
O231 Tb200 2.341 . S
O231 C219 1.266 . S
H232 C204 0.929 . S
H233 C205 0.931 . S
H234 C207 0.930 . S
H235 C208 0.930 . S
H236 C213 0.929 . S
H237 C214 0.931 . S
H238 C216 0.930 . S
H239 C217 0.930 1_565 S
H240 C258 0.951 . S
H241 C260 0.951 . S
H242 C262 0.945 1_565 S
H243 C263 0.950 . S
H244 C265 0.950 . S
H245 C268 0.950 . S
H246 C269 0.950 1_655 S
H247 C271 0.950 . S
H248 C272 0.950 . S
H249 C273 0.951 . S
H250 C275 0.951 . S
H251 C277 0.950 . S
H252 C278 0.950 . S
H253 C280 0.950 . S
H254 C283 0.950 . S
H255 C284 0.950 . S
H256 C286 0.950 1_565 S
H257 C287 0.950 . S
C258 H240 0.951 . S
C258 C259 1.366 1_545 S
C258 C260 1.388 . S
C259 C258 1.366 1_565 S
C259 C263 1.385 . S
C260 H241 0.951 . S
C260 C258 1.388 . S
C260 C261 1.366 . S
C261 C260 1.366 . S
C261 C262 1.420 . S
C261 C264 1.499 1_655 S
C262 H242 0.945 1_545 S
C262 C261 1.420 . S
C262 C263 1.373 1_545 S
C263 H243 0.950 . S
C263 C259 1.385 . S
C263 C262 1.373 1_565 S
C264 C261 1.499 1_455 S
C264 C265 1.373 . S
C264 C266 1.389 1_554 S
C265 H244 0.950 . S
C265 C264 1.373 . S
C265 C281 1.377 . S
C266 C264 1.389 1_556 S
C266 C267 1.524 . S
C266 C280 1.377 . S
C267 C266 1.524 . S
C267 C268 1.397 . S
C267 C272 1.363 . S
C268 H245 0.950 . S
C268 C267 1.397 . S
C268 C269 1.334 . S
C269 H246 0.950 1_455 S
C269 C268 1.334 . S
C269 C270 1.287 . S
C270 C269 1.287 . S
C270 C271 1.524 . S
C270 H289 0.913 1_455 S
C271 H247 0.950 . S
C271 C270 1.524 . S
C271 C272 1.415 . S
C272 H248 0.950 . S
C272 C267 1.363 . S
C272 C271 1.415 . S
C273 H249 0.951 . S
C273 C274 1.366 . S
C273 C275 1.388 . S
C274 C273 1.366 . S
C274 C278 1.385 . S
C275 H250 0.951 . S
C275 C273 1.388 . S
C275 C276 1.366 . S
C276 C275 1.366 . S
C276 C277 1.414 . S
C276 C279 1.499 . S
C277 H251 0.950 . S
C277 C276 1.414 . S
C277 C278 1.374 . S
C278 H252 0.950 . S
C278 C274 1.385 . S
C278 C277 1.374 . S
C279 C276 1.499 . S
C279 C280 1.373 1_554 S
C279 C281 1.389 . S
C280 H253 0.950 . S
C280 C266 1.377 . S
C280 C279 1.373 1_556 S
C281 C265 1.377 . S
C281 C279 1.389 . S
C281 C282 1.524 . S
C282 C281 1.524 . S
C282 C283 1.397 . S
C282 C287 1.363 . S
C283 H254 0.950 . S
C283 C282 1.397 . S
C283 C284 1.334 . S
C284 H255 0.950 . S
C284 C283 1.334 . S
C284 C285 1.287 . S
C285 C284 1.287 . S
C285 C286 1.524 . S
C285 H288 0.999 . S
C286 H256 0.950 1_545 S
C286 C285 1.524 . S
C286 C287 1.415 . S
C287 H257 0.950 . S
C287 C282 1.363 . S
C287 C286 1.415 . S
H288 C285 0.999 . S
H289 C270 0.913 1_655 S
H290 C308 0.951 . S
H291 C310 0.951 1_655 S
H292 C312 0.950 1_545 S
H293 C313 0.950 . S
H294 C315 0.950 . S
H295 C318 0.950 . S
H296 C319 0.950 1_565 S
H297 C321 0.950 . S
H298 C322 0.950 . S
H299 C323 0.951 . S
H300 C325 0.951 . S
H301 C327 0.950 . S
H302 C328 0.950 . S
H303 C330 0.950 . S
H304 C333 0.950 . S
H305 C334 0.950 . S
H306 C336 0.950 . S
H307 C337 0.950 . S
C308 H290 0.951 . S
C308 C309 1.366 1_655 S
C308 C310 1.388 1_655 S
C309 C308 1.366 1_455 S
C309 C313 1.385 . S
C310 H291 0.951 1_455 S
C310 C308 1.388 1_455 S
C310 C311 1.366 1_565 S
C311 C310 1.366 1_545 S
C311 C312 1.414 1_545 S
C311 C314 1.499 . S
C312 H292 0.950 1_565 S
C312 C311 1.414 1_565 S
C312 C313 1.374 . S
C313 H293 0.950 . S
C313 C309 1.385 . S
C313 C312 1.374 . S
C314 C311 1.499 . S
C314 C315 1.373 . S
C314 C316 1.389 . S
C315 H294 0.950 . S
C315 C314 1.373 . S
C315 C331 1.377 . S
C316 C314 1.389 . S
C316 C317 1.524 . S
C316 C330 1.377 . S
C317 C316 1.524 . S
C317 C318 1.397 . S
C317 C322 1.363 1_455 S
C318 H295 0.950 . S
C318 C317 1.397 . S
C318 C319 1.334 1_455 S
C319 H296 0.950 1_545 S
C319 C318 1.334 1_655 S
C319 C320 1.287 . S
C320 C319 1.287 . S
C320 C321 1.524 . S
C320 H339 0.915 . S
C321 H297 0.950 . S
C321 C320 1.524 . S
C321 C322 1.415 . S
C322 H298 0.950 . S
C322 C317 1.363 1_655 S
C322 C321 1.415 . S
C323 H299 0.951 . S
C323 C324 1.366 . S
C323 C325 1.388 . S
C324 C323 1.366 . S
C324 C328 1.385 . S
C325 H300 0.951 . S
C325 C323 1.388 . S
C325 C326 1.366 . S
C326 C325 1.366 . S
C326 C327 1.414 . S
C326 C329 1.499 . S
C327 H301 0.950 . S
C327 C326 1.414 . S
C327 C328 1.374 . S
C328 H302 0.950 . S
C328 C324 1.385 . S
C328 C327 1.374 . S
C329 C326 1.499 . S
C329 C330 1.373 . S
C329 C331 1.389 . S
C330 H303 0.950 . S
C330 C316 1.377 . S
C330 C329 1.373 . S
C331 C315 1.377 . S
C331 C329 1.389 . S
C331 C332 1.524 . S
C332 C331 1.524 . S
C332 C333 1.397 . S
C332 C337 1.363 . S
C333 H304 0.950 . S
C333 C332 1.397 . S
C333 C334 1.334 . S
C334 H305 0.950 . S
C334 C333 1.334 . S
C334 C335 1.287 . S
C335 C334 1.287 . S
C335 C336 1.524 . S
C335 H338 0.999 . S
C336 H306 0.950 . S
C336 C335 1.524 . S
C336 C337 1.415 . S
C337 H307 0.950 . S
C337 C332 1.363 . S
C337 C336 1.415 . S
H338 C335 0.999 . S
H339 C320 0.915 . S
H340 C358 0.951 . S
H341 C360 0.951 . S
H342 C362 0.950 . S
H343 C363 0.950 . S
H344 C365 0.950 . S
H345 C368 0.950 . S
H346 C369 0.950 . S
H347 C371 0.950 . S
H348 C372 0.950 . S
H349 C373 0.951 . S
H350 C375 0.951 . S
H351 C377 0.950 . S
H352 C378 0.950 . S
H353 C380 0.950 . S
H354 C383 0.950 . S
H355 C384 0.950 . S
H356 C386 0.950 . S
H357 C387 0.950 . S
C358 H340 0.951 . S
C358 C359 1.366 . S
C358 C360 1.388 . S
C359 C358 1.366 . S
C359 C363 1.385 . S
C360 H341 0.951 . S
C360 C358 1.388 . S
C360 C361 1.366 . S
C361 C360 1.366 . S
C361 C362 1.414 . S
C361 C364 1.499 . S
C362 H342 0.950 . S
C362 C361 1.414 . S
C362 C363 1.374 . S
C363 H343 0.950 . S
C363 C359 1.385 . S
C363 C362 1.374 . S
C364 C361 1.499 . S
C364 C365 1.373 . S
C364 C366 1.389 . S
C365 H344 0.950 . S
C365 C364 1.373 . S
C365 C381 1.377 . S
C366 C364 1.389 . S
C366 C367 1.524 . S
C366 C380 1.377 . S
C367 C366 1.524 . S
C367 C368 1.397 . S
C367 C372 1.363 . S
C368 H345 0.950 . S
C368 C367 1.397 . S
C368 C369 1.334 . S
C369 H346 0.950 . S
C369 C368 1.334 . S
C369 C370 1.287 . S
C370 C369 1.287 . S
C370 C371 1.524 . S
C370 H389 0.913 . S
C371 H347 0.950 . S
C371 C370 1.524 . S
C371 C372 1.415 . S
C372 H348 0.950 . S
C372 C367 1.363 . S
C372 C371 1.415 . S
C373 H349 0.951 . S
C373 C374 1.366 1_455 S
C373 C375 1.388 . S
C374 C373 1.366 1_655 S
C374 C378 1.385 . S
C375 H350 0.951 . S
C375 C373 1.388 . S
C375 C376 1.366 . S
C376 C375 1.366 . S
C376 C377 1.414 . S
C376 C379 1.499 . S
C377 H351 0.950 . S
C377 C376 1.414 . S
C377 C378 1.374 1_455 S
C378 H352 0.950 . S
C378 C374 1.385 . S
C378 C377 1.374 1_655 S
C379 C376 1.499 . S
C379 C380 1.373 . S
C379 C381 1.389 . S
C380 H353 0.950 . S
C380 C366 1.377 . S
C380 C379 1.373 . S
C381 C365 1.377 . S
C381 C379 1.389 . S
C381 C382 1.524 . S
C382 C381 1.524 . S
C382 C383 1.397 1_455 S
C382 C387 1.363 . S
C383 H354 0.950 . S
C383 C382 1.397 1_655 S
C383 C384 1.334 . S
C384 H355 0.950 . S
C384 C383 1.334 . S
C384 C385 1.287 . S
C385 C384 1.287 . S
C385 C386 1.524 1_655 S
C385 H388 0.999 . S
C386 H356 0.950 . S
C386 C385 1.524 1_455 S
C386 C387 1.415 . S
C387 H357 0.950 . S
C387 C382 1.363 . S
C387 C386 1.415 . S
H388 C385 0.999 . S
H389 C370 0.913 . S
H390 C408 0.951 . S
H391 C410 0.951 . S
H392 C412 0.950 . S
H393 C413 0.950 . S
H394 C415 0.950 . S
H395 C418 0.950 . S
H396 C419 0.950 . S
H397 C421 0.950 . S
H398 C422 0.950 . S
H399 C423 0.951 . S
H400 C425 0.951 . S
H401 C427 0.950 . S
H402 C428 0.950 . S
H403 C430 0.950 . S
H404 C433 0.950 . S
H405 C434 0.950 . S
H406 C436 0.950 . S
H407 C437 0.950 . S
C408 H390 0.951 . S
C408 C409 1.366 . S
C408 C410 1.388 . S
C409 C408 1.366 . S
C409 C413 1.385 . S
C410 H391 0.951 . S
C410 C408 1.388 . S
C410 C411 1.366 . S
C411 C410 1.366 . S
C411 C412 1.414 . S
C411 C414 1.499 . S
C412 H392 0.950 . S
C412 C411 1.414 . S
C412 C413 1.374 . S
C413 H393 0.950 . S
C413 C409 1.385 . S
C413 C412 1.374 . S
C414 C411 1.499 . S
C414 C415 1.373 . S
C414 C416 1.389 . S
C415 H394 0.950 . S
C415 C414 1.373 . S
C415 C431 1.377 . S
C416 C414 1.389 . S
C416 C417 1.524 . S
C416 C430 1.377 . S
C417 C416 1.524 . S
C417 C418 1.397 . S
C417 C422 1.363 . S
C418 H395 0.950 . S
C418 C417 1.397 . S
C418 C419 1.334 . S
C419 H396 0.950 . S
C419 C418 1.334 . S
C419 C420 1.287 . S
C420 C419 1.287 . S
C420 C421 1.524 . S
C420 H439 0.913 . S
C421 H397 0.950 . S
C421 C420 1.524 . S
C421 C422 1.415 . S
C422 H398 0.950 . S
C422 C417 1.363 . S
C422 C421 1.415 . S
C423 H399 0.951 . S
C423 C424 1.366 . S
C423 C425 1.388 . S
C424 C423 1.366 . S
C424 C428 1.385 . S
C425 H400 0.951 . S
C425 C423 1.388 . S
C425 C426 1.366 . S
C426 C425 1.366 . S
C426 C427 1.414 . S
C426 C429 1.499 . S
C427 H401 0.950 . S
C427 C426 1.414 . S
C427 C428 1.374 . S
C428 H402 0.950 . S
C428 C424 1.385 . S
C428 C427 1.374 . S
C429 C426 1.499 . S
C429 C430 1.373 . S
C429 C431 1.389 . S
C430 H403 0.950 . S
C430 C416 1.377 . S
C430 C429 1.373 . S
C431 C415 1.377 . S
C431 C429 1.389 . S
C431 C432 1.524 . S
C432 C431 1.524 . S
C432 C433 1.397 . S
C432 C437 1.363 . S
C433 H404 0.950 . S
C433 C432 1.397 . S
C433 C434 1.334 . S
C434 H405 0.950 . S
C434 C433 1.334 . S
C434 C435 1.287 . S
C435 C434 1.287 . S
C435 C436 1.524 . S
C435 H438 0.999 . S
C436 H406 0.950 . S
C436 C435 1.524 . S
C436 C437 1.415 . S
C437 H407 0.950 . S
C437 C432 1.363 . S
C437 C436 1.415 . S
H438 C435 0.999 . S
H439 C420 0.913 . S
H440 C458 0.951 . S
H441 C460 0.951 . S
H442 C462 0.950 . S
H443 C463 0.950 . S
H444 C465 0.950 . S
H445 C468 0.950 . S
H446 C469 0.950 . S
H447 C471 0.950 . S
H448 C472 0.950 . S
H449 C473 0.951 . S
H450 C475 0.951 . S
H451 C477 0.950 . S
H452 C478 0.950 . S
H453 C480 0.947 . S
H454 C483 0.950 . S
H455 C484 0.950 . S
H456 C486 0.950 . S
H457 C487 0.950 1_455 S
C458 H440 0.951 . S
C458 C459 1.366 . S
C458 C460 1.388 . S
C459 C458 1.366 . S
C459 C463 1.385 . S
C460 H441 0.951 . S
C460 C458 1.388 . S
C460 C461 1.366 . S
C461 C460 1.366 . S
C461 C462 1.414 . S
C461 C464 1.499 . S
C462 H442 0.950 . S
C462 C461 1.414 . S
C462 C463 1.374 . S
C463 H443 0.950 . S
C463 C459 1.385 . S
C463 C462 1.374 . S
C464 C461 1.499 . S
C464 C465 1.373 . S
C464 C466 1.389 . S
C465 H444 0.950 . S
C465 C464 1.373 . S
C465 C481 1.377 1_455 S
C466 C464 1.389 . S
C466 C467 1.524 . S
C466 C480 1.377 . S
C467 C466 1.524 . S
C467 C468 1.397 . S
C467 C472 1.363 . S
C468 H445 0.950 . S
C468 C467 1.397 . S
C468 C469 1.334 . S
C469 H446 0.950 . S
C469 C468 1.334 . S
C469 C470 1.287 . S
C470 C469 1.287 . S
C470 C471 1.524 . S
C470 H489 0.913 . S
C471 H447 0.950 . S
C471 C470 1.524 . S
C471 C472 1.415 . S
C472 H448 0.950 . S
C472 C467 1.363 . S
C472 C471 1.415 . S
C473 H449 0.951 . S
C473 C474 1.366 . S
C473 C475 1.388 . S
C474 C473 1.366 . S
C474 C478 1.385 . S
C475 H450 0.951 . S
C475 C473 1.388 . S
C475 C476 1.366 . S
C476 C475 1.366 . S
C476 C477 1.414 . S
C476 C479 1.499 . S
C477 H451 0.950 . S
C477 C476 1.414 . S
C477 C478 1.374 . S
C478 H452 0.950 . S
C478 C474 1.385 . S
C478 C477 1.374 . S
C479 C476 1.499 . S
C479 C480 1.373 1_655 S
C479 C481 1.389 . S
C480 H453 0.947 . S
C480 C466 1.377 . S
C480 C479 1.373 1_455 S
C481 C465 1.377 1_655 S
C481 C479 1.389 . S
C481 C482 1.524 . S
C482 C481 1.524 . S
C482 C483 1.397 . S
C482 C487 1.363 . S
C483 H454 0.950 . S
C483 C482 1.397 . S
C483 C484 1.334 . S
C484 H455 0.950 . S
C484 C483 1.334 . S
C484 C485 1.287 . S
C485 C484 1.287 . S
C485 C486 1.524 . S
C485 H488 0.999 . S
C486 H456 0.950 . S
C486 C485 1.524 . S
C486 C487 1.415 . S
C487 H457 0.950 1_655 S
C487 C482 1.363 . S
C487 C486 1.415 . S
H488 C485 0.999 . S
H489 C470 0.913 . S
H490 C508 0.951 . S
H491 C510 0.951 . S
H492 C512 0.950 . S
H493 C513 0.950 . S
H494 C515 0.950 . S
H495 C518 0.950 . S
H496 C519 0.950 . S
H497 C521 0.950 . S
H498 C522 0.950 . S
H499 C523 0.951 . S
H500 C525 0.951 . S
H501 C527 0.950 . S
H502 C528 0.950 . S
H503 C530 0.950 . S
H504 C533 0.950 1_545 S
H505 C534 0.950 . S
H506 C536 0.950 . S
H507 C537 0.950 . S
C508 H490 0.951 . S
C508 C509 1.366 . S
C508 C510 1.388 . S
C509 C508 1.366 . S
C509 C513 1.385 . S
C510 H491 0.951 . S
C510 C508 1.388 . S
C510 C511 1.366 . S
C511 C510 1.366 . S
C511 C512 1.414 . S
C511 C514 1.499 . S
C512 H492 0.950 . S
C512 C511 1.414 . S
C512 C513 1.374 . S
C513 H493 0.950 . S
C513 C509 1.385 . S
C513 C512 1.374 . S
C514 C511 1.499 . S
C514 C515 1.373 . S
C514 C516 1.389 . S
C515 H494 0.950 . S
C515 C514 1.373 . S
C515 C531 1.377 . S
C516 C514 1.389 . S
C516 C517 1.524 . S
C516 C530 1.377 . S
C517 C516 1.524 . S
C517 C518 1.397 . S
C517 C522 1.363 . S
C518 H495 0.950 . S
C518 C517 1.397 . S
C518 C519 1.334 . S
C519 H496 0.950 . S
C519 C518 1.334 . S
C519 C520 1.287 . S
C520 C519 1.287 . S
C520 C521 1.524 . S
C520 H539 0.913 . S
C521 H497 0.950 . S
C521 C520 1.524 . S
C521 C522 1.415 . S
C522 H498 0.950 . S
C522 C517 1.363 . S
C522 C521 1.415 . S
C523 H499 0.951 . S
C523 C524 1.366 . S
C523 C525 1.388 . S
C524 C523 1.366 . S
C524 C528 1.385 . S
C525 H500 0.951 . S
C525 C523 1.388 . S
C525 C526 1.366 . S
C526 C525 1.366 . S
C526 C527 1.414 . S
C526 C529 1.499 . S
C527 H501 0.950 . S
C527 C526 1.414 . S
C527 C528 1.374 . S
C528 H502 0.950 . S
C528 C524 1.385 . S
C528 C527 1.374 . S
C529 C526 1.499 . S
C529 C530 1.373 1_565 S
C529 C531 1.389 1_565 S
C530 H503 0.950 . S
C530 C516 1.377 . S
C530 C529 1.373 1_545 S
C531 C515 1.377 . S
C531 C529 1.389 1_545 S
C531 C532 1.524 1_545 S
C532 C531 1.524 1_565 S
C532 C533 1.397 . S
C532 C537 1.363 . S
C533 H504 0.950 1_565 S
C533 C532 1.397 . S
C533 C534 1.334 . S
C534 H505 0.950 . S
C534 C533 1.334 . S
C534 C535 1.287 . S
C535 C534 1.287 . S
C535 C536 1.524 . S
C535 H538 0.999 . S
C536 H506 0.950 . S
C536 C535 1.524 . S
C536 C537 1.415 . S
C537 H507 0.950 . S
C537 C532 1.363 . S
C537 C536 1.415 . S
H538 C535 0.999 . S
H539 C520 0.913 . S
H540 C558 0.951 . S
H541 C560 0.951 . S
H542 C562 0.950 . S
H543 C563 0.950 . S
H544 C565 0.950 . S
H545 C568 0.950 . S
H546 C569 0.950 . S
H547 C571 0.950 . S
H548 C572 0.950 . S
H549 C573 0.951 . S
H550 C575 0.951 1_655 S
H551 C577 0.950 . S
H552 C578 0.950 . S
H553 C580 0.950 . S
H554 C583 0.950 . S
H555 C584 0.950 . S
H556 C586 0.950 . S
H557 C587 0.950 . S
C558 H540 0.951 . S
C558 C559 1.366 . S
C558 C560 1.388 . S
C559 C558 1.366 . S
C559 C563 1.385 . S
C560 H541 0.951 . S
C560 C558 1.388 . S
C560 C561 1.366 . S
C561 C560 1.366 . S
C561 C562 1.414 . S
C561 C564 1.499 . S
C562 H542 0.950 . S
C562 C561 1.414 . S
C562 C563 1.374 . S
C563 H543 0.950 . S
C563 C559 1.385 . S
C563 C562 1.374 . S
C564 C561 1.499 . S
C564 C565 1.373 . S
C564 C566 1.389 . S
C565 H544 0.950 . S
C565 C564 1.373 . S
C565 C581 1.377 . S
C566 C564 1.389 . S
C566 C567 1.524 . S
C566 C580 1.377 . S
C567 C566 1.524 . S
C567 C568 1.397 . S
C567 C572 1.363 . S
C568 H545 0.950 . S
C568 C567 1.397 . S
C568 C569 1.334 . S
C569 H546 0.950 . S
C569 C568 1.334 . S
C569 C570 1.287 . S
C570 C569 1.287 . S
C570 C571 1.524 . S
C570 H589 0.913 . S
C571 H547 0.950 . S
C571 C570 1.524 . S
C571 C572 1.415 . S
C572 H548 0.950 . S
C572 C567 1.363 . S
C572 C571 1.415 . S
C573 H549 0.951 . S
C573 C574 1.366 . S
C573 C575 1.388 . S
C574 C573 1.366 . S
C574 C578 1.385 . S
C575 H550 0.951 1_455 S
C575 C573 1.388 . S
C575 C576 1.366 1_455 S
C576 C575 1.366 1_655 S
C576 C577 1.414 1_655 S
C576 C579 1.499 . S
C577 H551 0.950 . S
C577 C576 1.414 1_455 S
C577 C578 1.374 . S
C578 H552 0.950 . S
C578 C574 1.385 . S
C578 C577 1.374 . S
C579 C576 1.499 . S
C579 C580 1.373 . S
C579 C581 1.389 . S
C580 H553 0.950 . S
C580 C566 1.377 . S
C580 C579 1.373 . S
C581 C565 1.377 . S
C581 C579 1.389 . S
C581 C582 1.524 . S
C582 C581 1.524 . S
C582 C583 1.397 1_655 S
C582 C587 1.363 . S
C583 H554 0.950 . S
C583 C582 1.397 1_455 S
C583 C584 1.334 . S
C584 H555 0.950 . S
C584 C583 1.334 . S
C584 C585 1.287 . S
C585 C584 1.287 . S
C585 C586 1.524 . S
C585 H588 0.999 . S
C586 H556 0.950 . S
C586 C585 1.524 . S
C586 C587 1.415 1_455 S
C587 H557 0.950 . S
C587 C582 1.363 . S
C587 C586 1.415 1_655 S
H588 C585 0.999 . S
H589 C570 0.913 . S
H590 C608 0.951 . S
H591 C610 0.951 . S
H592 C612 0.950 . S
H593 C613 0.950 . S
H594 C615 0.950 . S
H595 C618 0.950 . S
H596 C619 0.950 1_655 S
H597 C621 0.950 . S
H598 C622 0.950 . S
H599 C623 0.951 . S
H600 C625 0.951 . S
H601 C627 0.950 . S
H602 C628 0.950 . S
H603 C630 0.950 . S
H604 C633 0.950 . S
H605 C634 0.950 . S
H606 C636 0.950 . S
H607 C637 0.950 . S
C608 H590 0.951 . S
C608 C609 1.366 . S
C608 C610 1.388 . S
C609 C608 1.366 . S
C609 C613 1.385 . S
C610 H591 0.951 . S
C610 C608 1.388 . S
C610 C611 1.366 . S
C611 C610 1.366 . S
C611 C612 1.414 . S
C611 C614 1.499 . S
C612 H592 0.950 . S
C612 C611 1.414 . S
C612 C613 1.374 . S
C613 H593 0.950 . S
C613 C609 1.385 . S
C613 C612 1.374 . S
C614 C611 1.499 . S
C614 C615 1.373 . S
C614 C616 1.389 . S
C615 H594 0.950 . S
C615 C614 1.373 . S
C615 C631 1.377 . S
C616 C614 1.389 . S
C616 C617 1.524 . S
C616 C630 1.377 . S
C617 C616 1.524 . S
C617 C618 1.397 . S
C617 C622 1.363 . S
C618 H595 0.950 . S
C618 C617 1.397 . S
C618 C619 1.334 . S
C619 H596 0.950 1_455 S
C619 C618 1.334 . S
C619 C620 1.287 1_455 S
C620 C619 1.287 1_655 S
C620 C621 1.524 1_655 S
C620 H639 0.913 . S
C621 H597 0.950 . S
C621 C620 1.524 1_455 S
C621 C622 1.415 . S
C622 H598 0.950 . S
C622 C617 1.363 . S
C622 C621 1.415 . S
C623 H599 0.951 . S
C623 C624 1.366 . S
C623 C625 1.388 1_545 S
C624 C623 1.366 . S
C624 C628 1.385 . S
C625 H600 0.951 . S
C625 C623 1.388 1_565 S
C625 C626 1.366 1_565 S
C626 C625 1.366 1_545 S
C626 C627 1.414 . S
C626 C629 1.499 1_545 S
C627 H601 0.950 . S
C627 C626 1.414 . S
C627 C628 1.374 . S
C628 H602 0.950 . S
C628 C624 1.385 . S
C628 C627 1.374 . S
C629 C626 1.499 1_565 S
C629 C630 1.373 . S
C629 C631 1.389 . S
C630 H603 0.950 . S
C630 C616 1.377 . S
C630 C629 1.373 . S
C631 C615 1.377 . S
C631 C629 1.389 . S
C631 C632 1.524 . S
C632 C631 1.524 . S
C632 C633 1.397 1_565 S
C632 C637 1.363 . S
C633 H604 0.950 . S
C633 C632 1.397 1_545 S
C633 C634 1.334 . S
C634 H605 0.950 . S
C634 C633 1.334 . S
C634 C635 1.287 . S
C635 C634 1.287 . S
C635 C636 1.524 1_545 S
C635 H638 0.999 . S
C636 H606 0.950 . S
C636 C635 1.524 1_565 S
C636 C637 1.415 . S
C637 H607 0.950 . S
C637 C632 1.363 . S
C637 C636 1.415 . S
H638 C635 0.999 . S
H639 C620 0.913 . S
H640 C658 0.951 . S
H641 C660 0.951 . S
H642 C662 0.950 . S
H643 C663 0.950 . S
H644 C665 0.950 . S
H645 C668 0.950 . S
H646 C669 0.950 . S
H647 C671 0.950 . S
H648 C672 0.950 . S
H649 C673 0.951 . S
H650 C675 0.951 . S
H651 C677 0.950 . S
H652 C678 0.950 . S
H653 C680 0.950 . S
H654 C683 0.950 . S
H655 C684 0.950 . S
H656 C686 0.950 . S
H657 C687 0.950 . S
C658 H640 0.951 . S
C658 C659 1.366 . S
C658 C660 1.388 . S
C659 C658 1.366 . S
C659 C663 1.385 . S
C660 H641 0.951 . S
C660 C658 1.388 . S
C660 C661 1.366 . S
C661 C660 1.366 . S
C661 C662 1.414 . S
C661 C664 1.499 . S
C662 H642 0.950 . S
C662 C661 1.414 . S
C662 C663 1.374 . S
C663 H643 0.950 . S
C663 C659 1.385 . S
C663 C662 1.374 . S
C664 C661 1.499 . S
C664 C665 1.373 . S
C664 C666 1.389 . S
C665 H644 0.950 . S
C665 C664 1.373 . S
C665 C681 1.377 . S
C666 C664 1.389 . S
C666 C667 1.524 . S
C666 C680 1.377 . S
C667 C666 1.524 . S
C667 C668 1.397 . S
C667 C672 1.363 . S
C668 H645 0.950 . S
C668 C667 1.397 . S
C668 C669 1.334 . S
C669 H646 0.950 . S
C669 C668 1.334 . S
C669 C670 1.287 . S
C670 C669 1.287 . S
C670 C671 1.524 . S
C670 H689 0.913 . S
C671 H647 0.950 . S
C671 C670 1.524 . S
C671 C672 1.415 . S
C672 H648 0.950 . S
C672 C667 1.363 . S
C672 C671 1.415 . S
C673 H649 0.951 . S
C673 C674 1.366 . S
C673 C675 1.388 . S
C674 C673 1.366 . S
C674 C678 1.385 . S
C675 H650 0.951 . S
C675 C673 1.388 . S
C675 C676 1.366 . S
C676 C675 1.366 . S
C676 C677 1.414 . S
C676 C679 1.499 . S
C677 H651 0.950 . S
C677 C676 1.414 . S
C677 C678 1.374 . S
C678 H652 0.950 . S
C678 C674 1.385 . S
C678 C677 1.374 . S
C679 C676 1.499 . S
C679 C680 1.373 . S
C679 C681 1.389 . S
C680 H653 0.950 . S
C680 C666 1.377 . S
C680 C679 1.373 . S
C681 C665 1.377 . S
C681 C679 1.389 . S
C681 C682 1.524 . S
C682 C681 1.524 . S
C682 C683 1.397 . S
C682 C687 1.363 . S
C683 H654 0.950 . S
C683 C682 1.397 . S
C683 C684 1.334 . S
C684 H655 0.950 . S
C684 C683 1.334 . S
C684 C685 1.287 . S
C685 C684 1.287 . S
C685 C686 1.524 . S
C685 H688 0.999 . S
C686 H656 0.950 . S
C686 C685 1.524 . S
C686 C687 1.415 . S
C687 H657 0.950 . S
C687 C682 1.363 . S
C687 C686 1.415 . S
H688 C685 0.999 . S
H689 C670 0.913 . S
H690 C708 0.951 . S
H691 C710 0.951 . S
H692 C712 0.950 . S
H693 C713 0.950 . S
H694 C715 0.950 . S
H695 C718 0.950 . S
H696 C719 0.950 . S
H697 C721 0.950 1_565 S
H698 C722 0.950 . S
H699 C723 0.951 . S
H700 C725 0.951 . S
H701 C727 0.958 1_565 S
H702 C728 0.961 . S
H703 C730 0.950 . S
H704 C733 0.950 . S
H705 C734 0.950 . S
H706 C736 0.950 . S
H707 C737 0.950 . S
C708 H690 0.951 . S
C708 C709 1.366 . S
C708 C710 1.388 . S
C709 C708 1.366 . S
C709 C713 1.385 . S
C710 H691 0.951 . S
C710 C708 1.388 . S
C710 C711 1.366 . S
C711 C710 1.366 . S
C711 C712 1.414 . S
C711 C714 1.499 . S
C712 H692 0.950 . S
C712 C711 1.414 . S
C712 C713 1.374 . S
C713 H693 0.950 . S
C713 C709 1.385 . S
C713 C712 1.374 . S
C714 C711 1.499 . S
C714 C715 1.373 1_554 S
C714 C716 1.389 . S
C715 H694 0.950 . S
C715 C714 1.373 1_556 S
C715 C731 1.377 . S
C716 C714 1.389 . S
C716 C717 1.524 . S
C716 C730 1.377 . S
C717 C716 1.524 . S
C717 C718 1.397 . S
C717 C722 1.363 . S
C718 H695 0.950 . S
C718 C717 1.397 . S
C718 C719 1.334 . S
C719 H696 0.950 . S
C719 C718 1.334 . S
C719 C720 1.287 . S
C720 C719 1.287 . S
C720 C721 1.524 . S
C720 H739 0.913 . S
C721 H697 0.950 1_545 S
C721 C720 1.524 . S
C721 C722 1.415 . S
C722 H698 0.950 . S
C722 C717 1.363 . S
C722 C721 1.415 . S
C723 H699 0.951 . S
C723 C724 1.366 . S
C723 C725 1.388 . S
C724 C723 1.366 . S
C724 C728 1.385 1_545 S
C725 H700 0.951 . S
C725 C723 1.388 . S
C725 C726 1.366 . S
C726 C725 1.366 . S
C726 C727 1.414 . S
C726 C729 1.499 . S
C727 H701 0.958 1_545 S
C727 C726 1.414 . S
C727 C728 1.374 1_545 S
C728 H702 0.961 . S
C728 C724 1.385 1_565 S
C728 C727 1.374 1_565 S
C729 C726 1.499 . S
C729 C730 1.373 . S
C729 C731 1.389 1_554 S
C730 H703 0.950 . S
C730 C716 1.377 . S
C730 C729 1.373 . S
C731 C715 1.377 . S
C731 C729 1.389 1_556 S
C731 C732 1.524 . S
C732 C731 1.524 . S
C732 C733 1.397 . S
C732 C737 1.363 . S
C733 H704 0.950 . S
C733 C732 1.397 . S
C733 C734 1.334 . S
C734 H705 0.950 . S
C734 C733 1.334 . S
C734 C735 1.287 . S
C735 C734 1.287 . S
C735 C736 1.524 . S
C735 H738 0.999 . S
C736 H706 0.950 . S
C736 C735 1.524 . S
C736 C737 1.415 . S
C737 H707 0.950 . S
C737 C732 1.363 . S
C737 C736 1.415 . S
H738 C735 0.999 . S
H739 C720 0.913 . S
H740 C758 0.951 . S
H741 C760 0.951 . S
H742 C762 0.950 . S
H743 C763 0.950 . S
H744 C765 0.950 . S
H745 C768 0.950 . S
H746 C769 0.950 . S
H747 C771 0.950 . S
H748 C772 0.950 . S
H749 C773 0.951 . S
H750 C775 0.951 . S
H751 C777 0.950 . S
H752 C778 0.950 . S
H753 C780 0.950 . S
H754 C783 0.950 . S
H755 C784 0.950 . S
H756 C786 0.950 . S
H757 C787 0.950 . S
C758 H740 0.951 . S
C758 C759 1.366 . S
C758 C760 1.388 . S
C759 C758 1.366 . S
C759 C763 1.385 . S
C760 H741 0.951 . S
C760 C758 1.388 . S
C760 C761 1.366 . S
C761 C760 1.366 . S
C761 C762 1.414 . S
C761 C764 1.499 . S
C762 H742 0.950 . S
C762 C761 1.414 . S
C762 C763 1.374 . S
C763 H743 0.950 . S
C763 C759 1.385 . S
C763 C762 1.374 . S
C764 C761 1.499 . S
C764 C765 1.373 . S
C764 C766 1.389 . S
C765 H744 0.950 . S
C765 C764 1.373 . S
C765 C781 1.377 . S
C766 C764 1.389 . S
C766 C767 1.524 . S
C766 C780 1.377 . S
C767 C766 1.524 . S
C767 C768 1.397 . S
C767 C772 1.363 . S
C768 H745 0.950 . S
C768 C767 1.397 . S
C768 C769 1.334 . S
C769 H746 0.950 . S
C769 C768 1.334 . S
C769 C770 1.287 . S
C770 C769 1.287 . S
C770 C771 1.524 . S
C770 H789 0.913 . S
C771 H747 0.950 . S
C771 C770 1.524 . S
C771 C772 1.415 . S
C772 H748 0.950 . S
C772 C767 1.363 . S
C772 C771 1.415 . S
C773 H749 0.951 . S
C773 C774 1.366 . S
C773 C775 1.388 . S
C774 C773 1.366 . S
C774 C778 1.385 . S
C775 H750 0.951 . S
C775 C773 1.388 . S
C775 C776 1.366 . S
C776 C775 1.366 . S
C776 C777 1.414 . S
C776 C779 1.499 . S
C777 H751 0.950 . S
C777 C776 1.414 . S
C777 C778 1.374 . S
C778 H752 0.950 . S
C778 C774 1.385 . S
C778 C777 1.374 . S
C779 C776 1.499 . S
C779 C780 1.373 . S
C779 C781 1.389 . S
C780 H753 0.950 . S
C780 C766 1.377 . S
C780 C779 1.373 . S
C781 C765 1.377 . S
C781 C779 1.389 . S
C781 C782 1.524 . S
C782 C781 1.524 . S
C782 C783 1.397 . S
C782 C787 1.363 . S
C783 H754 0.950 . S
C783 C782 1.397 . S
C783 C784 1.334 . S
C784 H755 0.950 . S
C784 C783 1.334 . S
C784 C785 1.287 . S
C785 C784 1.287 . S
C785 C786 1.524 . S
C785 H788 0.999 . S
C786 H756 0.950 . S
C786 C785 1.524 . S
C786 C787 1.415 . S
C787 H757 0.950 . S
C787 C782 1.363 . S
C787 C786 1.415 . S
H788 C785 0.999 . S
H789 C770 0.913 . S
H790 C808 0.951 . S
H791 C810 0.951 . S
H792 C812 0.950 1_655 S
H793 C813 0.950 . S
H794 C815 0.950 . S
H795 C818 0.950 . S
H796 C819 0.950 . S
H797 C821 0.950 . S
H798 C822 0.950 . S
H799 C823 0.951 . S
H800 C825 0.951 . S
H801 C827 0.950 . S
H802 C828 0.950 . S
H803 C830 0.950 . S
H804 C833 0.950 . S
H805 C834 0.950 . S
H806 C836 0.950 . S
H807 C837 0.950 . S
C808 H790 0.951 . S
C808 C809 1.367 . S
C808 C810 1.388 . S
C809 C808 1.367 . S
C809 C813 1.384 1_455 S
C810 H791 0.951 . S
C810 C808 1.388 . S
C810 C811 1.366 . S
C811 C810 1.366 . S
C811 C812 1.414 . S
C811 C814 1.499 . S
C812 H792 0.950 1_455 S
C812 C811 1.414 . S
C812 C813 1.374 1_455 S
C813 H793 0.950 . S
C813 C809 1.384 1_655 S
C813 C812 1.374 1_655 S
C814 C811 1.499 . S
C814 C815 1.373 . S
C814 C816 1.389 . S
C815 H794 0.950 . S
C815 C814 1.373 . S
C815 C831 1.377 . S
C816 C814 1.389 . S
C816 C817 1.524 . S
C816 C830 1.377 . S
C817 C816 1.524 . S
C817 C818 1.397 . S
C817 C822 1.363 . S
C818 H795 0.950 . S
C818 C817 1.397 . S
C818 C819 1.334 . S
C819 H796 0.950 . S
C819 C818 1.334 . S
C819 C820 1.287 . S
C820 C819 1.287 . S
C820 C821 1.524 . S
C820 H839 0.913 . S
C821 H797 0.950 . S
C821 C820 1.524 . S
C821 C822 1.415 . S
C822 H798 0.950 . S
C822 C817 1.363 . S
C822 C821 1.415 . S
C823 H799 0.951 . S
C823 C824 1.366 . S
C823 C825 1.388 . S
C824 C823 1.366 . S
C824 C828 1.385 . S
C825 H800 0.951 . S
C825 C823 1.388 . S
C825 C826 1.366 . S
C826 C825 1.366 . S
C826 C827 1.414 . S
C826 C829 1.499 . S
C827 H801 0.950 . S
C827 C826 1.414 . S
C827 C828 1.374 . S
C828 H802 0.950 . S
C828 C824 1.385 . S
C828 C827 1.374 . S
C829 C826 1.499 . S
C829 C830 1.373 . S
C829 C831 1.389 . S
C830 H803 0.950 . S
C830 C816 1.377 . S
C830 C829 1.373 . S
C831 C815 1.377 . S
C831 C829 1.389 . S
C831 C832 1.524 . S
C832 C831 1.524 . S
C832 C833 1.397 . S
C832 C837 1.363 . S
C833 H804 0.950 . S
C833 C832 1.397 . S
C833 C834 1.334 . S
C834 H805 0.950 . S
C834 C833 1.334 . S
C834 C835 1.287 . S
C835 C834 1.287 . S
C835 C836 1.524 . S
C835 H838 0.999 . S
C836 H806 0.950 . S
C836 C835 1.524 . S
C836 C837 1.415 . S
C837 H807 0.950 . S
C837 C832 1.363 . S
C837 C836 1.415 . S
H838 C835 0.999 . S
H839 C820 0.913 . S
H840 C858 0.951 . S
H841 C860 0.951 . S
H842 C862 0.950 . S
H843 C863 0.950 . S
H844 C865 0.950 . S
H845 C868 0.950 . S
H846 C869 0.950 . S
H847 C871 0.950 . S
H848 C872 0.950 . S
H849 C873 0.951 . S
H850 C875 0.951 . S
H851 C877 0.950 . S
H852 C878 0.950 . S
H853 C880 0.950 . S
H854 C883 0.950 . S
H855 C884 0.950 . S
H856 C886 0.950 . S
H857 C887 0.950 . S
C858 H840 0.951 . S
C858 C859 1.366 . S
C858 C860 1.388 . S
C859 C858 1.366 . S
C859 C863 1.385 . S
C860 H841 0.951 . S
C860 C858 1.388 . S
C860 C861 1.366 . S
C861 C860 1.366 . S
C861 C862 1.414 . S
C861 C864 1.499 . S
C862 H842 0.950 . S
C862 C861 1.414 . S
C862 C863 1.374 . S
C863 H843 0.950 . S
C863 C859 1.385 . S
C863 C862 1.374 . S
C864 C861 1.499 . S
C864 C865 1.373 . S
C864 C866 1.389 . S
C865 H844 0.950 . S
C865 C864 1.373 . S
C865 C881 1.377 . S
C866 C864 1.389 . S
C866 C867 1.524 . S
C866 C880 1.377 . S
C867 C866 1.524 . S
C867 C868 1.397 . S
C867 C872 1.363 . S
C868 H845 0.950 . S
C868 C867 1.397 . S
C868 C869 1.334 . S
C869 H846 0.950 . S
C869 C868 1.334 . S
C869 C870 1.287 . S
C870 C869 1.287 . S
C870 C871 1.524 . S
C870 H889 0.913 . S
C871 H847 0.950 . S
C871 C870 1.524 . S
C871 C872 1.415 . S
C872 H848 0.950 . S
C872 C867 1.363 . S
C872 C871 1.415 . S
C873 H849 0.951 . S
C873 C874 1.366 . S
C873 C875 1.388 . S
C874 C873 1.366 . S
C874 C878 1.385 . S
C875 H850 0.951 . S
C875 C873 1.388 . S
C875 C876 1.366 . S
C876 C875 1.366 . S
C876 C877 1.414 . S
C876 C879 1.499 . S
C877 H851 0.950 . S
C877 C876 1.414 . S
C877 C878 1.374 . S
C878 H852 0.950 . S
C878 C874 1.385 . S
C878 C877 1.374 . S
C879 C876 1.499 . S
C879 C880 1.373 . S
C879 C881 1.389 . S
C880 H853 0.950 . S
C880 C866 1.377 . S
C880 C879 1.373 . S
C881 C865 1.377 . S
C881 C879 1.389 . S
C881 C882 1.524 . S
C882 C881 1.524 . S
C882 C883 1.397 . S
C882 C887 1.363 . S
C883 H854 0.950 . S
C883 C882 1.397 . S
C883 C884 1.334 . S
C884 H855 0.950 . S
C884 C883 1.334 . S
C884 C885 1.287 . S
C885 C884 1.287 . S
C885 C886 1.524 . S
C885 H888 0.999 . S
C886 H856 0.950 . S
C886 C885 1.524 . S
C886 C887 1.415 . S
C887 H857 0.950 . S
C887 C882 1.363 . S
C887 C886 1.415 . S
H888 C885 0.999 . S
H889 C870 0.913 . S
H890 C908 0.951 . S
H891 C910 0.951 . S
H892 C912 0.950 . S
H893 C913 0.950 . S
H894 C915 0.950 . S
H895 C918 0.950 . S
H896 C919 0.950 . S
H897 C921 0.950 . S
H898 C922 0.950 . S
H899 C923 0.951 . S
H900 C925 0.951 . S
H901 C927 0.950 . S
H902 C928 0.950 . S
H903 C930 0.950 . S
H904 C933 0.950 . S
H905 C934 0.950 . S
H906 C936 0.950 . S
H907 C937 0.950 . S
C908 H890 0.951 . S
C908 C909 1.366 . S
C908 C910 1.388 . S
C909 C908 1.366 . S
C909 C913 1.385 . S
C910 H891 0.951 . S
C910 C908 1.388 . S
C910 C911 1.366 . S
C911 C910 1.366 . S
C911 C912 1.414 . S
C911 C914 1.499 . S
C912 H892 0.950 . S
C912 C911 1.414 . S
C912 C913 1.374 . S
C913 H893 0.950 . S
C913 C909 1.385 . S
C913 C912 1.374 . S
C914 C911 1.499 . S
C914 C915 1.373 . S
C914 C916 1.389 . S
C915 H894 0.950 . S
C915 C914 1.373 . S
C915 C931 1.377 . S
C916 C914 1.389 . S
C916 C917 1.524 . S
C916 C930 1.377 . S
C917 C916 1.524 . S
C917 C918 1.397 . S
C917 C922 1.363 . S
C918 H895 0.950 . S
C918 C917 1.397 . S
C918 C919 1.334 . S
C919 H896 0.950 . S
C919 C918 1.334 . S
C919 C920 1.287 . S
C920 C919 1.287 . S
C920 C921 1.524 . S
C920 H939 0.913 . S
C921 H897 0.950 . S
C921 C920 1.524 . S
C921 C922 1.415 . S
C922 H898 0.950 . S
C922 C917 1.363 . S
C922 C921 1.415 . S
C923 H899 0.951 . S
C923 C924 1.366 . S
C923 C925 1.388 . S
C924 C923 1.366 . S
C924 C928 1.385 . S
C925 H900 0.951 . S
C925 C923 1.388 . S
C925 C926 1.366 . S
C926 C925 1.366 . S
C926 C927 1.414 . S
C926 C929 1.499 . S
C927 H901 0.950 . S
C927 C926 1.414 . S
C927 C928 1.374 . S
C928 H902 0.950 . S
C928 C924 1.385 . S
C928 C927 1.374 . S
C929 C926 1.499 . S
C929 C930 1.373 . S
C929 C931 1.389 . S
C930 H903 0.950 . S
C930 C916 1.377 . S
C930 C929 1.373 . S
C931 C915 1.377 . S
C931 C929 1.389 . S
C931 C932 1.524 . S
C932 C931 1.524 . S
C932 C933 1.397 . S
C932 C937 1.363 . S
C933 H904 0.950 . S
C933 C932 1.397 . S
C933 C934 1.334 . S
C934 H905 0.950 . S
C934 C933 1.334 . S
C934 C935 1.287 1_455 S
C935 C934 1.287 1_655 S
C935 C936 1.524 . S
C935 H938 0.999 . S
C936 H906 0.950 . S
C936 C935 1.524 . S
C936 C937 1.415 1_655 S
C937 H907 0.950 . S
C937 C932 1.363 . S
C937 C936 1.415 1_455 S
H938 C935 0.999 . S
H939 C920 0.913 . S
H940 C958 0.951 . S
H941 C960 0.951 . S
H942 C962 0.950 . S
H943 C963 0.950 . S
H944 C965 0.950 . S
H945 C968 0.950 . S
H946 C969 0.950 . S
H947 C971 0.950 . S
H948 C972 0.950 . S
H949 C973 0.951 . S
H950 C975 0.951 . S
H951 C977 0.950 . S
H952 C978 0.950 . S
H953 C980 0.950 . S
H954 C983 0.950 . S
H955 C984 0.951 . S
H956 C986 0.950 . S
H957 C987 0.950 . S
C958 H940 0.951 . S
C958 C959 1.366 . S
C958 C960 1.388 . S
C959 C958 1.366 . S
C959 C963 1.385 . S
C960 H941 0.951 . S
C960 C958 1.388 . S
C960 C961 1.366 . S
C961 C960 1.366 . S
C961 C962 1.414 . S
C961 C964 1.499 . S
C962 H942 0.950 . S
C962 C961 1.414 . S
C962 C963 1.374 . S
C963 H943 0.950 . S
C963 C959 1.385 . S
C963 C962 1.374 . S
C964 C961 1.499 . S
C964 C965 1.373 . S
C964 C966 1.389 . S
C965 H944 0.950 . S
C965 C964 1.373 . S
C965 C981 1.377 . S
C966 C964 1.389 . S
C966 C967 1.524 . S
C966 C980 1.377 . S
C967 C966 1.524 . S
C967 C968 1.397 1_655 S
C967 C972 1.363 . S
C968 H945 0.950 . S
C968 C967 1.397 1_455 S
C968 C969 1.334 . S
C969 H946 0.950 . S
C969 C968 1.334 . S
C969 C970 1.287 . S
C970 C969 1.287 . S
C970 C971 1.524 . S
C970 H989 0.913 . S
C971 H947 0.950 . S
C971 C970 1.524 . S
C971 C972 1.415 1_455 S
C972 H948 0.950 . S
C972 C967 1.363 . S
C972 C971 1.415 1_655 S
C973 H949 0.951 . S
C973 C974 1.366 . S
C973 C975 1.388 . S
C974 C973 1.366 . S
C974 C978 1.385 . S
C975 H950 0.951 . S
C975 C973 1.388 . S
C975 C976 1.366 . S
C976 C975 1.366 . S
C976 C977 1.414 . S
C976 C979 1.499 . S
C977 H951 0.950 . S
C977 C976 1.414 . S
C977 C978 1.374 . S
C978 H952 0.950 . S
C978 C974 1.385 . S
C978 C977 1.374 . S
C979 C976 1.499 . S
C979 C980 1.373 . S
C979 C981 1.389 . S
C980 H953 0.950 . S
C980 C966 1.377 . S
C980 C979 1.373 . S
C981 C965 1.377 . S
C981 C979 1.389 . S
C981 C982 1.524 . S
C982 C981 1.524 . S
C982 C983 1.397 . S
C982 C987 1.363 . S
C983 H954 0.950 . S
C983 C982 1.397 . S
C983 C984 1.336 1_545 S
C984 H955 0.951 . S
C984 C983 1.336 1_565 S
C984 C985 1.285 . S
C985 C984 1.285 . S
C985 C986 1.524 . S
C985 H988 0.999 . S
C986 H956 0.950 . S
C986 C985 1.524 . S
C986 C987 1.415 1_565 S
C987 H957 0.950 . S
C987 C982 1.363 . S
C987 C986 1.415 1_545 S
H988 C985 0.999 . S
H989 C970 0.913 . S
H990 C1008 0.951 . S
H991 C1010 0.951 . S
H992 C1012 0.950 . S
H993 C1013 0.950 1_545 S
H994 C1015 0.950 . S
H995 C1018 0.950 . S
H996 C1019 0.950 . S
H997 C1021 0.950 . S
H998 C1022 0.950 . S
H999 C1023 0.951 . S
H1000 C1025 0.951 . S
H1001 C1027 0.950 . S
H1002 C1028 0.950 . S
H1003 C1030 0.950 . S
H1004 C1033 0.950 . S
H1005 C1034 0.950 1_565 S
H1006 C1036 0.950 . S
H1007 C1037 0.950 . S
C1008 H990 0.951 . S
C1008 C1009 1.366 . S
C1008 C1010 1.388 . S
C1009 C1008 1.366 . S
C1009 C1013 1.385 . S
C1010 H991 0.951 . S
C1010 C1008 1.388 . S
C1010 C1011 1.366 . S
C1011 C1010 1.366 . S
C1011 C1012 1.414 . S
C1011 C1014 1.499 . S
C1012 H992 0.950 . S
C1012 C1011 1.414 . S
C1012 C1013 1.374 . S
C1013 H993 0.950 1_565 S
C1013 C1009 1.385 . S
C1013 C1012 1.374 . S
C1014 C1011 1.499 . S
C1014 C1015 1.373 . S
C1014 C1016 1.389 . S
C1015 H994 0.950 . S
C1015 C1014 1.373 . S
C1015 C1031 1.377 . S
C1016 C1014 1.389 . S
C1016 C1017 1.524 . S
C1016 C1030 1.377 . S
C1017 C1016 1.524 . S
C1017 C1018 1.397 . S
C1017 C1022 1.363 . S
C1018 H995 0.950 . S
C1018 C1017 1.397 . S
C1018 C1019 1.334 . S
C1019 H996 0.950 . S
C1019 C1018 1.334 . S
C1019 C1020 1.287 . S
C1020 C1019 1.287 . S
C1020 C1021 1.524 . S
C1020 H1039 0.913 . S
C1021 H997 0.950 . S
C1021 C1020 1.524 . S
C1021 C1022 1.415 . S
C1022 H998 0.950 . S
C1022 C1017 1.363 . S
C1022 C1021 1.415 . S
C1023 H999 0.951 . S
C1023 C1024 1.366 . S
C1023 C1025 1.388 . S
C1024 C1023 1.366 . S
C1024 C1028 1.385 . S
C1025 H1000 0.951 . S
C1025 C1023 1.388 . S
C1025 C1026 1.366 . S
C1026 C1025 1.366 . S
C1026 C1027 1.414 . S
C1026 C1029 1.499 . S
C1027 H1001 0.950 . S
C1027 C1026 1.414 . S
C1027 C1028 1.374 . S
C1028 H1002 0.950 . S
C1028 C1024 1.385 . S
C1028 C1027 1.374 . S
C1029 C1026 1.499 . S
C1029 C1030 1.373 . S
C1029 C1031 1.389 . S
C1030 H1003 0.950 . S
C1030 C1016 1.377 . S
C1030 C1029 1.373 . S
C1031 C1015 1.377 . S
C1031 C1029 1.389 . S
C1031 C1032 1.524 . S
C1032 C1031 1.524 . S
C1032 C1033 1.397 . S
C1032 C1037 1.363 1_565 S
C1033 H1004 0.950 . S
C1033 C1032 1.397 . S
C1033 C1034 1.334 1_665 S
C1034 H1005 0.950 1_545 S
C1034 C1033 1.334 1_445 S
C1034 C1035 1.287 . S
C1035 C1034 1.287 . S
C1035 C1036 1.524 . S
C1035 H1038 0.999 . S
C1036 H1006 0.950 . S
C1036 C1035 1.524 . S
C1036 C1037 1.415 1_455 S
C1037 H1007 0.950 . S
C1037 C1032 1.363 1_545 S
C1037 C1036 1.415 1_655 S
H1038 C1035 0.999 . S
H1039 C1020 0.913 . S
H1040 C1058 0.951 . S
H1041 C1060 0.951 . S
H1042 C1062 0.950 . S
H1043 C1063 0.950 . S
H1044 C1065 0.945 1_655 S
H1045 C1068 0.950 . S
H1046 C1069 0.950 . S
H1047 C1071 0.950 . S
H1048 C1072 0.950 1_545 S
H1049 C1073 0.951 . S
H1050 C1075 0.951 . S
H1051 C1077 0.950 . S
H1052 C1078 0.950 . S
H1053 C1080 0.950 . S
H1054 C1083 0.950 . S
H1055 C1084 0.950 . S
H1056 C1086 0.950 . S
H1057 C1087 0.950 1_455 S
C1058 H1040 0.951 . S
C1058 C1059 1.366 . S
C1058 C1060 1.388 . S
C1059 C1058 1.366 . S
C1059 C1063 1.385 . S
C1060 H1041 0.951 . S
C1060 C1058 1.388 . S
C1060 C1061 1.366 . S
C1061 C1060 1.366 . S
C1061 C1062 1.414 . S
C1061 C1064 1.499 . S
C1062 H1042 0.950 . S
C1062 C1061 1.414 . S
C1062 C1063 1.374 . S
C1063 H1043 0.950 . S
C1063 C1059 1.385 . S
C1063 C1062 1.374 . S
C1064 C1061 1.499 . S
C1064 C1065 1.373 . S
C1064 C1066 1.389 . S
C1065 H1044 0.945 1_455 S
C1065 C1064 1.373 . S
C1065 C1081 1.377 . S
C1066 C1064 1.389 . S
C1066 C1067 1.524 . S
C1066 C1080 1.377 . S
C1067 C1066 1.524 . S
C1067 C1068 1.397 . S
C1067 C1072 1.363 . S
C1068 H1045 0.950 . S
C1068 C1067 1.397 . S
C1068 C1069 1.334 . S
C1069 H1046 0.950 . S
C1069 C1068 1.334 . S
C1069 C1070 1.287 1_565 S
C1070 C1069 1.287 1_545 S
C1070 C1071 1.524 . S
C1070 H1089 0.913 . S
C1071 H1047 0.950 . S
C1071 C1070 1.524 . S
C1071 C1072 1.415 1_545 S
C1072 H1048 0.950 1_565 S
C1072 C1067 1.363 . S
C1072 C1071 1.415 1_565 S
C1073 H1049 0.951 . S
C1073 C1074 1.366 . S
C1073 C1075 1.388 . S
C1074 C1073 1.366 . S
C1074 C1078 1.385 . S
C1075 H1050 0.951 . S
C1075 C1073 1.388 . S
C1075 C1076 1.366 . S
C1076 C1075 1.366 . S
C1076 C1077 1.414 . S
C1076 C1079 1.499 . S
C1077 H1051 0.950 . S
C1077 C1076 1.414 . S
C1077 C1078 1.374 . S
C1078 H1052 0.950 . S
C1078 C1074 1.385 . S
C1078 C1077 1.374 . S
C1079 C1076 1.499 . S
C1079 C1080 1.373 . S
C1079 C1081 1.389 . S
C1080 H1053 0.950 . S
C1080 C1066 1.377 . S
C1080 C1079 1.373 . S
C1081 C1065 1.377 . S
C1081 C1079 1.389 . S
C1081 C1082 1.524 . S
C1082 C1081 1.524 . S
C1082 C1083 1.397 1_455 S
C1082 C1087 1.363 1_455 S
C1083 H1054 0.950 . S
C1083 C1082 1.397 1_655 S
C1083 C1084 1.334 . S
C1084 H1055 0.950 . S
C1084 C1083 1.334 . S
C1084 C1085 1.287 . S
C1085 C1084 1.287 . S
C1085 C1086 1.524 . S
C1085 H1088 0.999 . S
C1086 H1056 0.950 . S
C1086 C1085 1.524 . S
C1086 C1087 1.415 . S
C1087 H1057 0.950 1_655 S
C1087 C1082 1.363 1_655 S
C1087 C1086 1.415 . S
H1088 C1085 0.999 . S
H1089 C1070 0.913 . S
H1090 C1108 0.955 . S
H1091 C1110 0.951 . S
H1092 C1112 0.950 . S
H1093 C1113 0.950 . S
H1094 C1115 0.950 . S
H1095 C1118 0.950 . S
H1096 C1119 0.950 . S
H1097 C1121 0.950 . S
H1098 C1122 0.950 . S
H1099 C1123 0.951 . S
H1100 C1125 0.951 . S
H1101 C1127 0.950 . S
H1102 C1128 0.950 . S
H1103 C1130 0.950 . S
H1104 C1133 0.950 . S
H1105 C1134 0.950 . S
H1106 C1136 0.950 . S
H1107 C1137 0.950 . S
C1108 H1090 0.955 . S
C1108 C1109 1.363 1_565 S
C1108 C1110 1.387 1_565 S
C1109 C1108 1.363 1_545 S
C1109 C1113 1.385 . S
C1110 H1091 0.951 . S
C1110 C1108 1.387 1_545 S
C1110 C1111 1.366 . S
C1111 C1110 1.366 . S
C1111 C1112 1.414 . S
C1111 C1114 1.499 . S
C1112 H1092 0.950 . S
C1112 C1111 1.414 . S
C1112 C1113 1.374 . S
C1113 H1093 0.950 . S
C1113 C1109 1.385 . S
C1113 C1112 1.374 . S
C1114 C1111 1.499 . S
C1114 C1115 1.373 . S
C1114 C1116 1.389 . S
C1115 H1094 0.950 . S
C1115 C1114 1.373 . S
C1115 C1131 1.377 . S
C1116 C1114 1.389 . S
C1116 C1117 1.524 1_545 S
C1116 C1130 1.377 . S
C1117 C1116 1.524 1_565 S
C1117 C1118 1.397 . S
C1117 C1122 1.363 . S
C1118 H1095 0.950 . S
C1118 C1117 1.397 . S
C1118 C1119 1.334 . S
C1119 H1096 0.950 . S
C1119 C1118 1.334 . S
C1119 C1120 1.287 . S
C1120 C1119 1.287 . S
C1120 C1121 1.524 . S
C1120 H1139 0.913 . S
C1121 H1097 0.950 . S
C1121 C1120 1.524 . S
C1121 C1122 1.415 . S
C1122 H1098 0.950 . S
C1122 C1117 1.363 . S
C1122 C1121 1.415 . S
C1123 H1099 0.951 . S
C1123 C1124 1.366 . S
C1123 C1125 1.388 . S
C1124 C1123 1.366 . S
C1124 C1128 1.385 . S
C1125 H1100 0.951 . S
C1125 C1123 1.388 . S
C1125 C1126 1.366 . S
C1126 C1125 1.366 . S
C1126 C1127 1.414 . S
C1126 C1129 1.499 . S
C1127 H1101 0.950 . S
C1127 C1126 1.414 . S
C1127 C1128 1.374 . S
C1128 H1102 0.950 . S
C1128 C1124 1.385 . S
C1128 C1127 1.374 . S
C1129 C1126 1.499 . S
C1129 C1130 1.373 . S
C1129 C1131 1.389 . S
C1130 H1103 0.950 . S
C1130 C1116 1.377 . S
C1130 C1129 1.373 . S
C1131 C1115 1.377 . S
C1131 C1129 1.389 . S
C1131 C1132 1.524 . S
C1132 C1131 1.524 . S
C1132 C1133 1.397 . S
C1132 C1137 1.363 . S
C1133 H1104 0.950 . S
C1133 C1132 1.397 . S
C1133 C1134 1.334 . S
C1134 H1105 0.950 . S
C1134 C1133 1.334 . S
C1134 C1135 1.287 . S
C1135 C1134 1.287 . S
C1135 C1136 1.524 . S
C1135 H1138 0.999 . S
C1136 H1106 0.950 . S
C1136 C1135 1.524 . S
C1136 C1137 1.415 . S
C1137 H1107 0.950 . S
C1137 C1132 1.363 . S
C1137 C1136 1.415 . S
H1138 C1135 0.999 . S
H1139 C1120 0.913 . S
C259 C129 1.106 1_565 S
C274 C9 1.106 . S
C309 C169 1.105 . S
C324 C49 1.106 . S
C359 C209 1.104 . S
C374 C89 1.105 1_655 S
C409 C15 0.593 . S
C424 C86 0.561 . S
C459 C55 0.596 . S
C474 C126 0.562 . S
C509 C95 0.593 . S
C524 C166 0.563 . S
C559 C135 0.593 . S
C574 C206 0.561 . S
C609 C175 0.593 . S
C624 C6 0.561 . S
C659 C215 0.595 . S
C674 C46 0.565 . S
C709 C18 1.278 . S
C724 C138 1.279 1_545 S
C759 C58 1.279 . S
C774 C178 1.279 . S
C809 C98 1.279 1_455 S
C824 C218 1.279 . S
C859 C10 3.885 . S
C874 C59 3.938 . S
C909 C50 3.885 . S
C924 C99 3.938 . S
C959 C90 3.885 . S
C974 C139 3.938 . S
C1009 C130 3.885 . S
C1024 C179 3.939 . S
C1059 C170 3.885 1_455 S
C1074 C219 3.939 . S
C1109 C210 3.885 1_545 S
C1124 C19 3.938 . S
