# Generated by pormake.
# Topology wfj, (8)-cn, num edge types: 1
# Building blocks:
#     Node 0, Type 0, BuildingBlock: TAGTUT_clean_sbu_1, # of connection points: 8
#     Node 1, Type 0, BuildingBlock: TAGTUT_clean_sbu_1, # of connection points: 8
#     Node 2, Type 0, BuildingBlock: TAGTUT_clean_sbu_1, # of connection points: 8
#     Node 3, Type 0, BuildingBlock: TAGTUT_clean_sbu_1, # of connection points: 8
#     Node 4, Type 0, BuildingBlock: TAGTUT_clean_sbu_1, # of connection points: 8
#     Node 5, Type 0, BuildingBlock: TAGTUT_clean_sbu_1, # of connection points: 8
#     Node 6, Type 0, BuildingBlock: TAGTUT_clean_sbu_1, # of connection points: 8
#     Node 7, Type 0, BuildingBlock: TAGTUT_clean_sbu_1, # of connection points: 8
#     Node 8, Type 0, BuildingBlock: TAGTUT_clean_sbu_1, # of connection points: 8
#     Node 9, Type 0, BuildingBlock: TAGTUT_clean_sbu_1, # of connection points: 8
#     Node 10, Type 0, BuildingBlock: TAGTUT_clean_sbu_1, # of connection points: 8
#     Node 11, Type 0, BuildingBlock: TAGTUT_clean_sbu_1, # of connection points: 8
#     Node 12, Type 0, BuildingBlock: TAGTUT_clean_sbu_1, # of connection points: 8
#     Node 13, Type 0, BuildingBlock: TAGTUT_clean_sbu_1, # of connection points: 8
#     Node 14, Type 0, BuildingBlock: TAGTUT_clean_sbu_1, # of connection points: 8
#     Node 15, Type 0, BuildingBlock: TAGTUT_clean_sbu_1, # of connection points: 8
#     Edge 16, Type (0, 0), BuildingBlock: CIFDUS_clean_linker_0, # of connection points: 2
#     Edge 17, Type (0, 0), BuildingBlock: CIFDUS_clean_linker_0, # of connection points: 2
#     Edge 18, Type (0, 0), BuildingBlock: CIFDUS_clean_linker_0, # of connection points: 2
#     Edge 19, Type (0, 0), BuildingBlock: CIFDUS_clean_linker_0, # of connection points: 2
#     Edge 20, Type (0, 0), BuildingBlock: CIFDUS_clean_linker_0, # of connection points: 2
#     Edge 21, Type (0, 0), BuildingBlock: CIFDUS_clean_linker_0, # of connection points: 2
#     Edge 22, Type (0, 0), BuildingBlock: CIFDUS_clean_linker_0, # of connection points: 2
#     Edge 23, Type (0, 0), BuildingBlock: CIFDUS_clean_linker_0, # of connection points: 2
#     Edge 24, Type (0, 0), BuildingBlock: CIFDUS_clean_linker_0, # of connection points: 2
#     Edge 25, Type (0, 0), BuildingBlock: CIFDUS_clean_linker_0, # of connection points: 2
#     Edge 26, Type (0, 0), BuildingBlock: CIFDUS_clean_linker_0, # of connection points: 2
#     Edge 27, Type (0, 0), BuildingBlock: CIFDUS_clean_linker_0, # of connection points: 2
#     Edge 28, Type (0, 0), BuildingBlock: CIFDUS_clean_linker_0, # of connection points: 2
#     Edge 29, Type (0, 0), BuildingBlock: CIFDUS_clean_linker_0, # of connection points: 2
#     Edge 30, Type (0, 0), BuildingBlock: CIFDUS_clean_linker_0, # of connection points: 2
#     Edge 31, Type (0, 0), BuildingBlock: CIFDUS_clean_linker_0, # of connection points: 2
#     Edge 32, Type (0, 0), BuildingBlock: CIFDUS_clean_linker_0, # of connection points: 2
#     Edge 33, Type (0, 0), BuildingBlock: CIFDUS_clean_linker_0, # of connection points: 2
#     Edge 34, Type (0, 0), BuildingBlock: CIFDUS_clean_linker_0, # of connection points: 2
#     Edge 35, Type (0, 0), BuildingBlock: CIFDUS_clean_linker_0, # of connection points: 2
#     Edge 36, Type (0, 0), BuildingBlock: CIFDUS_clean_linker_0, # of connection points: 2
#     Edge 37, Type (0, 0), BuildingBlock: CIFDUS_clean_linker_0, # of connection points: 2
#     Edge 38, Type (0, 0), BuildingBlock: CIFDUS_clean_linker_0, # of connection points: 2
#     Edge 39, Type (0, 0), BuildingBlock: CIFDUS_clean_linker_0, # of connection points: 2
#     Edge 40, Type (0, 0), BuildingBlock: CIFDUS_clean_linker_0, # of connection points: 2
#     Edge 41, Type (0, 0), BuildingBlock: CIFDUS_clean_linker_0, # of connection points: 2
#     Edge 42, Type (0, 0), BuildingBlock: CIFDUS_clean_linker_0, # of connection points: 2
#     Edge 43, Type (0, 0), BuildingBlock: CIFDUS_clean_linker_0, # of connection points: 2
#     Edge 44, Type (0, 0), BuildingBlock: CIFDUS_clean_linker_0, # of connection points: 2
#     Edge 45, Type (0, 0), BuildingBlock: CIFDUS_clean_linker_0, # of connection points: 2
#     Edge 46, Type (0, 0), BuildingBlock: CIFDUS_clean_linker_0, # of connection points: 2
#     Edge 47, Type (0, 0), BuildingBlock: CIFDUS_clean_linker_0, # of connection points: 2
#     Edge 48, Type (0, 0), BuildingBlock: CIFDUS_clean_linker_0, # of connection points: 2
#     Edge 49, Type (0, 0), BuildingBlock: CIFDUS_clean_linker_0, # of connection points: 2
#     Edge 50, Type (0, 0), BuildingBlock: CIFDUS_clean_linker_0, # of connection points: 2
#     Edge 51, Type (0, 0), BuildingBlock: CIFDUS_clean_linker_0, # of connection points: 2
#     Edge 52, Type (0, 0), BuildingBlock: CIFDUS_clean_linker_0, # of connection points: 2
#     Edge 53, Type (0, 0), BuildingBlock: CIFDUS_clean_linker_0, # of connection points: 2
#     Edge 54, Type (0, 0), BuildingBlock: CIFDUS_clean_linker_0, # of connection points: 2
#     Edge 55, Type (0, 0), BuildingBlock: CIFDUS_clean_linker_0, # of connection points: 2
#     Edge 56, Type (0, 0), BuildingBlock: CIFDUS_clean_linker_0, # of connection points: 2
#     Edge 57, Type (0, 0), BuildingBlock: CIFDUS_clean_linker_0, # of connection points: 2
#     Edge 58, Type (0, 0), BuildingBlock: CIFDUS_clean_linker_0, # of connection points: 2
#     Edge 59, Type (0, 0), BuildingBlock: CIFDUS_clean_linker_0, # of connection points: 2
#     Edge 60, Type (0, 0), BuildingBlock: CIFDUS_clean_linker_0, # of connection points: 2
#     Edge 61, Type (0, 0), BuildingBlock: CIFDUS_clean_linker_0, # of connection points: 2
#     Edge 62, Type (0, 0), BuildingBlock: CIFDUS_clean_linker_0, # of connection points: 2
#     Edge 63, Type (0, 0), BuildingBlock: CIFDUS_clean_linker_0, # of connection points: 2
#     Edge 64, Type (0, 0), BuildingBlock: CIFDUS_clean_linker_0, # of connection points: 2
#     Edge 65, Type (0, 0), BuildingBlock: CIFDUS_clean_linker_0, # of connection points: 2
#     Edge 66, Type (0, 0), BuildingBlock: CIFDUS_clean_linker_0, # of connection points: 2
#     Edge 67, Type (0, 0), BuildingBlock: CIFDUS_clean_linker_0, # of connection points: 2
#     Edge 68, Type (0, 0), BuildingBlock: CIFDUS_clean_linker_0, # of connection points: 2
#     Edge 69, Type (0, 0), BuildingBlock: CIFDUS_clean_linker_0, # of connection points: 2
#     Edge 70, Type (0, 0), BuildingBlock: CIFDUS_clean_linker_0, # of connection points: 2
#     Edge 71, Type (0, 0), BuildingBlock: CIFDUS_clean_linker_0, # of connection points: 2
#     Edge 72, Type (0, 0), BuildingBlock: CIFDUS_clean_linker_0, # of connection points: 2
#     Edge 73, Type (0, 0), BuildingBlock: CIFDUS_clean_linker_0, # of connection points: 2
#     Edge 74, Type (0, 0), BuildingBlock: CIFDUS_clean_linker_0, # of connection points: 2
#     Edge 75, Type (0, 0), BuildingBlock: CIFDUS_clean_linker_0, # of connection points: 2
#     Edge 76, Type (0, 0), BuildingBlock: CIFDUS_clean_linker_0, # of connection points: 2
#     Edge 77, Type (0, 0), BuildingBlock: CIFDUS_clean_linker_0, # of connection points: 2
#     Edge 78, Type (0, 0), BuildingBlock: CIFDUS_clean_linker_0, # of connection points: 2
#     Edge 79, Type (0, 0), BuildingBlock: CIFDUS_clean_linker_0, # of connection points: 2
# Relax obj value: 0.302
# Max RMSD: 0.279
# Mean RMSD: 0.279
data_MOF--net-wfj--node1-TAGTUT_clean_sbu_1--edge1-CIFDUS_clean_linker_0
_symmetry_space_group_name_H-M    P1
_symmetry_Int_Tables_number       1
_symmetry_cell_setting            triclinic
loop_
_symmetry_equiv_pos_as_xyz
'x, y, z'
_cell_length_a     55.752147
_cell_length_b     55.740936
_cell_length_c     14.312341
_cell_angle_alpha  90.028034
_cell_angle_beta   90.044797
_cell_angle_gamma 89.795395
loop_
_atom_site_label
_atom_site_type_symbol
_atom_site_fract_x
_atom_site_fract_y
_atom_site_fract_z
_atom_type_partial_charge
C0 C 0.24097 0.31163 0.44988 0.0
C1 C 0.19689 0.28075 0.62389 0.0
C2 C 0.13254 0.30357 0.41879 0.0
Mg3 Mg 0.21626 0.33032 0.59023 0.0
O4 O 0.20045 0.33052 0.46576 0.0
Mg5 Mg 0.18804 0.29667 0.4026 0.0
Mg6 Mg 0.16792 0.34677 0.48564 0.0
O7 O 0.13547 0.36032 0.50052 0.0
Mg8 Mg 0.11599 0.35944 0.3919 0.0
Mg9 Mg 0.1424 0.39121 0.56223 0.0
C10 C 0.20309 0.38342 0.58351 0.0
C11 C 0.15695 0.35137 0.71053 0.0
O12 O 0.2199 0.32049 0.43614 0.0
O13 O 0.2504 0.3168 0.52869 0.0
O14 O 0.19616 0.27589 0.5368 0.0
O15 O 0.19591 0.3022 0.65322 0.0
O16 O 0.2053 0.36583 0.63966 0.0
O17 O 0.18511 0.38413 0.52608 0.0
C18 C 0.17315 0.33927 0.25954 0.0
O19 O 0.16818 0.35398 0.32592 0.0
O20 O 0.18033 0.31793 0.27521 0.0
O21 O 0.09915 0.39242 0.58631 0.0
O22 O 0.08482 0.37085 0.46535 0.0
O23 O 0.13941 0.41191 0.42939 0.0
C24 C 0.0815 0.38289 0.54042 0.0
O25 O 0.12766 0.3916 0.30386 0.0
O26 O 0.11675 0.31843 0.38573 0.0
C27 C 0.13519 0.41112 0.34238 0.0
O28 O 0.15218 0.31116 0.45376 0.0
O29 O 0.16609 0.33865 0.64493 0.0
O30 O 0.14683 0.37135 0.69404 0.0
C31 C 0.46607 0.49604 0.79815 0.0
C32 C 0.47451 0.43854 0.97371 0.0
C33 C 0.44516 0.38447 0.72461 0.0
Mg34 Mg 0.43083 0.46727 0.92819 0.0
O35 O 0.4256 0.45422 0.80584 0.0
Mg36 Mg 0.45548 0.43892 0.75075 0.0
Mg37 Mg 0.40592 0.42381 0.81267 0.0
O38 O 0.38919 0.39337 0.82181 0.0
Mg39 Mg 0.39003 0.37002 0.72439 0.0
Mg40 Mg 0.35957 0.40377 0.88527 0.0
C41 C 0.37853 0.46424 0.90316 0.0
C42 C 0.40055 0.41257 0.03952 0.0
O43 O 0.46887 0.47719 0.74755 0.0
O44 O 0.45205 0.49707 0.86962 0.0
O45 O 0.47622 0.43592 0.8859 0.0
O46 O 0.45573 0.44733 0.01009 0.0
O47 O 0.39326 0.45881 0.96744 0.0
O48 O 0.37087 0.44663 0.85116 0.0
C49 C 0.41415 0.43404 0.59047 0.0
O50 O 0.39913 0.42768 0.65376 0.0
O51 O 0.4356 0.44029 0.61109 0.0
O52 O 0.35565 0.36066 0.9173 0.0
O53 O 0.37918 0.34119 0.81328 0.0
O54 O 0.33872 0.39999 0.74668 0.0
C55 C 0.36569 0.3412 0.8856 0.0
O56 O 0.35834 0.37938 0.63627 0.0
O57 O 0.42996 0.3691 0.69293 0.0
C58 C 0.33975 0.39114 0.66428 0.0
O59 O 0.43827 0.40287 0.76988 0.0
O60 O 0.41491 0.41846 0.97338 0.0
O61 O 0.37896 0.40704 0.02178 0.0
C62 C 0.2612 0.70216 0.92181 0.0
C63 C 0.30421 0.7311 0.09851 0.0
C64 C 0.37039 0.70799 0.91689 0.0
Mg65 Mg 0.28481 0.68303 0.06493 0.0
O66 O 0.3008 0.68209 0.94069 0.0
Mg67 Mg 0.31485 0.71587 0.88125 0.0
Mg68 Mg 0.33249 0.66448 0.96594 0.0
O69 O 0.36409 0.64942 0.98833 0.0
Mg70 Mg 0.38908 0.65223 0.90002 0.0
Mg71 Mg 0.35438 0.61799 0.03962 0.0
C72 C 0.29428 0.62944 0.05113 0.0
C73 C 0.34034 0.65708 0.19145 0.0
O74 O 0.28207 0.69265 0.9095 0.0
O75 O 0.25166 0.69805 0.00127 0.0
O76 O 0.30462 0.73737 0.01294 0.0
O77 O 0.30859 0.7096 0.12033 0.0
O78 O 0.29308 0.6465 0.1102 0.0
O79 O 0.31277 0.62774 0.99641 0.0
C80 C 0.3304 0.6728 0.74059 0.0
O81 O 0.3341 0.6579 0.80728 0.0
O82 O 0.32379 0.69437 0.75534 0.0
O83 O 0.39689 0.61304 0.07864 0.0
O84 O 0.41716 0.63999 0.99218 0.0
O85 O 0.36022 0.59968 0.90187 0.0
C86 C 0.41662 0.62394 0.05611 0.0
O87 O 0.38241 0.6209 0.80213 0.0
O88 O 0.38746 0.69321 0.89445 0.0
C89 C 0.37024 0.60194 0.82267 0.0
O90 O 0.34974 0.70021 0.94107 0.0
O91 O 0.33322 0.67105 0.12594 0.0
O92 O 0.34856 0.63626 0.17438 0.0
C93 C 0.04333 0.51867 0.1772 0.0
C94 C 0.03286 0.54877 0.41641 0.0
C95 C 0.05362 0.62977 0.24546 0.0
Mg96 Mg 0.07794 0.53223 0.34611 0.0
O97 O 0.07834 0.55891 0.26087 0.0
Mg98 Mg 0.04665 0.57575 0.22877 0.0
Mg99 Mg 0.0966 0.58942 0.28857 0.0
O100 O 0.11177 0.62013 0.31401 0.0
Mg101 Mg 0.10854 0.64529 0.22393 0.0
Mg102 Mg 0.14295 0.60896 0.36119 0.0
C103 C 0.13023 0.54661 0.33169 0.0
C104 C 0.1046 0.59122 0.51425 0.0
O105 O 0.03575 0.54027 0.17751 0.0
O106 O 0.05989 0.51085 0.23269 0.0
O107 O 0.02979 0.56823 0.37226 0.0
O108 O 0.05357 0.5449 0.44924 0.0
O109 O 0.11391 0.54359 0.39246 0.0
O110 O 0.13359 0.56815 0.29943 0.0
C111 C 0.08536 0.58941 0.06708 0.0
O112 O 0.10102 0.59327 0.13078 0.0
O113 O 0.06396 0.58311 0.08739 0.0
O114 O 0.14567 0.6509 0.4132 0.0
O115 O 0.12042 0.67185 0.32026 0.0
O116 O 0.16108 0.61775 0.22354 0.0
C117 C 0.13467 0.67069 0.39027 0.0
O118 O 0.13908 0.63913 0.12312 0.0
O119 O 0.06754 0.64601 0.21103 0.0
C120 C 0.15855 0.62778 0.14417 0.0
O121 O 0.06229 0.61023 0.27676 0.0
O122 O 0.09043 0.58557 0.44765 0.0
O123 O 0.12522 0.59988 0.49745 0.0
C124 C 0.9166 0.61938 0.39429 0.0
C125 C 0.86478 0.59833 0.61407 0.0
C126 C 0.79461 0.6424 0.40214 0.0
Mg127 Mg 0.8907 0.64579 0.55719 0.0
O128 O 0.86868 0.64876 0.45555 0.0
Mg129 Mg 0.85427 0.62042 0.39689 0.0
Mg130 Mg 0.8408 0.6698 0.4687 0.0
O131 O 0.81362 0.69322 0.48562 0.0
Mg132 Mg 0.78819 0.69773 0.40275 0.0
Mg133 Mg 0.83448 0.72211 0.51167 0.0
C134 C 0.88473 0.70289 0.54567 0.0
C135 C 0.8356 0.68494 0.6895 0.0
O136 O 0.89636 0.61181 0.36018 0.0
O137 O 0.91786 0.63193 0.46888 0.0
O138 O 0.85662 0.59963 0.53128 0.0
O139 O 0.87839 0.61491 0.64695 0.0
O140 O 0.89628 0.68534 0.58411 0.0
O141 O 0.86687 0.69941 0.49165 0.0
C142 C 0.84722 0.66084 0.23982 0.0
O143 O 0.84178 0.67616 0.30334 0.0
O144 O 0.85219 0.63937 0.26125 0.0
O145 O 0.80155 0.74325 0.53762 0.0
O146 O 0.76934 0.72024 0.50888 0.0
O147 O 0.8348 0.7367 0.35999 0.0
C148 C 0.77941 0.73853 0.5476 0.0
O149 O 0.80184 0.72053 0.29932 0.0
O150 O 0.79377 0.66098 0.35032 0.0
C151 C 0.82002 0.73415 0.29239 0.0
O152 O 0.81441 0.637 0.44537 0.0
O153 O 0.83966 0.66719 0.63357 0.0
O154 O 0.83289 0.70639 0.65919 0.0
C155 C 0.63548 0.674 0.10143 0.0
C156 C 0.6584 0.63374 0.3467 0.0
C157 C 0.64496 0.55554 0.23689 0.0
Mg158 Mg 0.60793 0.64562 0.25513 0.0
O159 O 0.61378 0.62161 0.16449 0.0
Mg160 Mg 0.64742 0.61406 0.1307 0.0
Mg161 Mg 0.6028 0.58938 0.2008 0.0
O162 O 0.59042 0.55793 0.24905 0.0
Mg163 Mg 0.60469 0.53747 0.34135 0.0
Mg164 Mg 0.55729 0.56796 0.29324 0.0
C165 C 0.55435 0.6219 0.22744 0.0
C166 C 0.59139 0.59793 0.42507 0.0
O167 O 0.64843 0.65528 0.08269 0.0
O168 O 0.61895 0.67379 0.16357 0.0
O169 O 0.66303 0.62396 0.26881 0.0
O170 O 0.63761 0.64304 0.36299 0.0
O171 O 0.56761 0.6396 0.25545 0.0
O172 O 0.56371 0.60175 0.20306 0.0
C173 C 0.61217 0.5905 0.9759 0.0
O174 O 0.5988 0.58211 0.04138 0.0
O175 O 0.63091 0.60282 0.994 0.0
O176 O 0.55183 0.53917 0.4021 0.0
O177 O 0.58667 0.54098 0.47514 0.0
O178 O 0.55598 0.53598 0.19051 0.0
C179 C 0.56399 0.5386 0.47729 0.0
O180 O 0.58561 0.51227 0.2527 0.0
O181 O 0.63824 0.55702 0.32147 0.0
C182 C 0.5681 0.51607 0.1955 0.0
O183 O 0.64155 0.57397 0.18429 0.0
O184 O 0.60719 0.59781 0.35992 0.0
O185 O 0.56982 0.59175 0.40893 0.0
C186 C 0.58247 0.39257 0.86565 0.0
C187 C 0.63059 0.41826 0.07612 0.0
C188 C 0.70583 0.38323 0.87155 0.0
Mg189 Mg 0.6129 0.36772 0.02214 0.0
O190 O 0.6329 0.36796 0.91402 0.0
Mg191 Mg 0.64391 0.39802 0.85866 0.0
Mg192 Mg 0.66296 0.35153 0.93436 0.0
O193 O 0.69265 0.33195 0.96101 0.0
Mg194 Mg 0.71817 0.32933 0.87607 0.0
Mg195 Mg 0.67445 0.30122 0.9905 0.0
C196 C 0.62292 0.31265 0.00432 0.0
C197 C 0.66529 0.34059 0.15541 0.0
O198 O 0.60095 0.40181 0.82358 0.0
O199 O 0.58439 0.37991 0.93974 0.0
O200 O 0.63767 0.41862 0.99175 0.0
O201 O 0.62216 0.39899 0.11247 0.0
O202 O 0.61004 0.32799 0.04933 0.0
O203 O 0.6406 0.31922 0.95474 0.0
C204 C 0.65846 0.35774 0.70818 0.0
O205 O 0.66465 0.34389 0.77518 0.0
O206 O 0.65016 0.37859 0.72416 0.0
O207 O 0.70951 0.28584 0.02935 0.0
O208 O 0.73995 0.30904 0.98078 0.0
O209 O 0.67827 0.28446 0.84382 0.0
C210 C 0.7317 0.29108 0.02774 0.0
O211 O 0.70723 0.30486 0.77337 0.0
O212 O 0.70837 0.36481 0.81985 0.0
C213 C 0.69157 0.28836 0.7729 0.0
O214 O 0.6853 0.38714 0.91171 0.0
O215 O 0.66149 0.35656 0.0925 0.0
O216 O 0.67035 0.31881 0.13413 0.0
C217 C 0.862 0.33979 0.61323 0.0
C218 C 0.84233 0.38683 0.8439 0.0
C219 C 0.87246 0.46264 0.63247 0.0
Mg220 Mg 0.89119 0.36725 0.76418 0.0
O221 O 0.88798 0.38925 0.66281 0.0
Mg222 Mg 0.85665 0.4015 0.62107 0.0
Mg223 Mg 0.9057 0.41887 0.67439 0.0
O224 O 0.92617 0.44812 0.68856 0.0
Mg225 Mg 0.92545 0.47373 0.60216 0.0
Mg226 Mg 0.95743 0.42994 0.7054 0.0
C227 C 0.94615 0.37788 0.72379 0.0
C228 C 0.92448 0.42167 0.89402 0.0
O229 O 0.85113 0.35915 0.58477 0.0
O230 O 0.87729 0.33966 0.67978 0.0
O231 O 0.83994 0.39574 0.76271 0.0
O232 O 0.86153 0.37529 0.86661 0.0
O233 O 0.9319 0.36468 0.77269 0.0
O234 O 0.9384 0.39596 0.67876 0.0
C235 C 0.89156 0.41476 0.44688 0.0
O236 O 0.90797 0.42046 0.50592 0.0
O237 O 0.87141 0.4074 0.47639 0.0
O238 O 0.97367 0.46522 0.73577 0.0
O239 O 0.94774 0.49508 0.70104 0.0
O240 O 0.96886 0.43344 0.55127 0.0
C241 C 0.96686 0.48702 0.74122 0.0
O242 O 0.94673 0.46249 0.48835 0.0
O243 O 0.88791 0.46469 0.56762 0.0
C244 C 0.963 0.44653 0.48157 0.0
O245 O 0.86996 0.44186 0.6716 0.0
O246 O 0.90627 0.41771 0.84043 0.0
O247 O 0.9451 0.42637 0.85885 0.0
C248 C 0.74858 0.80706 -0.00113 0.0
C249 C 0.71029 0.78961 0.21601 0.0
C250 C 0.63669 0.81161 0.98072 0.0
Mg251 Mg 0.72566 0.83684 0.16658 0.0
O252 O 0.70309 0.83694 0.06534 0.0
Mg253 Mg 0.69069 0.80449 0.01744 0.0
Mg254 Mg 0.67053 0.85281 0.07562 0.0
O255 O 0.63824 0.86654 0.08266 0.0
Mg256 Mg 0.62203 0.86737 0.96533 0.0
Mg257 Mg 0.64484 0.89722 0.14576 0.0
C258 C 0.70744 0.88846 0.16003 0.0
C259 C 0.65804 0.85796 0.3025 0.0
O260 O 0.72867 0.79609 0.99058 0.0
O261 O 0.75214 0.82401 0.05875 0.0
O262 O 0.69284 0.78563 0.16089 0.0
O263 O 0.71051 0.80993 0.25497 0.0
O264 O 0.7098 0.87072 0.21498 0.0
O265 O 0.68793 0.89044 0.11133 0.0
C266 C 0.68069 0.84334 0.8513 0.0
O267 O 0.67272 0.85849 0.9119 0.0
O268 O 0.68847 0.82269 0.87561 0.0
O269 O 0.60127 0.89715 0.16082 0.0
O270 O 0.58942 0.87776 0.03031 0.0
O271 O 0.6439 0.9185 0.01233 0.0
C272 C 0.58463 0.88812 0.10799 0.0
O273 O 0.63609 0.8985 0.88179 0.0
O274 O 0.62355 0.82758 0.9397 0.0
C275 C 0.64223 0.91789 0.92386 0.0
O276 O 0.65295 0.8174 0.03973 0.0
O277 O 0.66847 0.84525 0.23949 0.0
O278 O 0.64751 0.87746 0.28159 0.0
C279 C 0.9705 0.9953 0.32383 0.0
C280 C 0.97839 0.93575 0.49261 0.0
C281 C 0.95153 0.88243 0.24673 0.0
Mg282 Mg 0.93475 0.96618 0.44817 0.0
O283 O 0.92946 0.95224 0.32741 0.0
Mg284 Mg 0.95978 0.93816 0.27141 0.0
Mg285 Mg 0.91153 0.92079 0.3359 0.0
O286 O 0.89583 0.88961 0.34695 0.0
Mg287 Mg 0.89581 0.86741 0.24584 0.0
Mg288 Mg 0.8659 0.89908 0.4124 0.0
C289 C 0.88006 0.95985 0.42612 0.0
C290 C 0.90641 0.91063 0.5633 0.0
O291 O 0.97267 0.97683 0.27077 0.0
O292 O 0.95675 0.99597 0.39602 0.0
O293 O 0.97988 0.93367 0.40474 0.0
O294 O 0.96017 0.94561 0.53011 0.0
O295 O 0.89688 0.95999 0.48728 0.0
O296 O 0.87602 0.94077 0.37686 0.0
C297 C 0.91863 0.93203 0.11351 0.0
O298 O 0.90427 0.92426 0.17684 0.0
O299 O 0.93964 0.9397 0.13355 0.0
O300 O 0.86327 0.85668 0.44403 0.0
O301 O 0.88601 0.83842 0.33451 0.0
O302 O 0.84467 0.89554 0.27717 0.0
C303 C 0.87361 0.83778 0.40964 0.0
O304 O 0.86338 0.877 0.15983 0.0
O305 O 0.93595 0.86687 0.21888 0.0
C306 C 0.84491 0.88803 0.19306 0.0
O307 O 0.94486 0.9013 0.28993 0.0
O308 O 0.92037 0.91715 0.49676 0.0
O309 O 0.88537 0.90326 0.54648 0.0
C310 C 0.76705 0.21708 0.46974 0.0
C311 C 0.79904 0.22401 0.70535 0.0
C312 C 0.87739 0.20125 0.5222 0.0
Mg313 Mg 0.78074 0.1803 0.63334 0.0
O314 O 0.80634 0.17868 0.54418 0.0
Mg315 Mg 0.82418 0.20999 0.51292 0.0
Mg316 Mg 0.83655 0.15972 0.57288 0.0
O317 O 0.86689 0.14395 0.59883 0.0
Mg318 Mg 0.89223 0.1465 0.50927 0.0
Mg319 Mg 0.85506 0.11316 0.64585 0.0
C320 C 0.79318 0.12723 0.62143 0.0
C321 C 0.83839 0.15196 0.79869 0.0
O322 O 0.78915 0.22253 0.46535 0.0
O323 O 0.75899 0.20036 0.52399 0.0
O324 O 0.81723 0.22831 0.65517 0.0
O325 O 0.7969 0.20282 0.73467 0.0
O326 O 0.79086 0.14401 0.68084 0.0
O327 O 0.81431 0.12342 0.5857 0.0
C328 C 0.83665 0.17054 0.35162 0.0
O329 O 0.8402 0.15479 0.4153 0.0
O330 O 0.83079 0.19213 0.37191 0.0
O331 O 0.89678 0.1094 0.69703 0.0
O332 O 0.91851 0.13438 0.60569 0.0
O333 O 0.86424 0.09499 0.50906 0.0
C334 C 0.9168 0.11975 0.67408 0.0
O335 O 0.88698 0.11609 0.41069 0.0
O336 O 0.89317 0.18682 0.48744 0.0
C337 C 0.87513 0.09706 0.4313 0.0
O338 O 0.85825 0.19326 0.55902 0.0
O339 O 0.83321 0.16634 0.73211 0.0
O340 O 0.84631 0.131 0.78186 0.0
C341 C 0.5566 0.01086 0.77343 0.0
C342 C 0.5476 0.04911 0.04091 0.0
C343 C 0.55319 0.12122 0.7858 0.0
Mg344 Mg 0.59127 0.02995 0.92568 0.0
O345 O 0.58503 0.05573 0.84306 0.0
Mg346 Mg 0.55098 0.06614 0.81943 0.0
Mg347 Mg 0.59922 0.08836 0.85072 0.0
O348 O 0.61186 0.12103 0.85686 0.0
Mg349 Mg 0.60791 0.13778 0.7422 0.0
Mg350 Mg 0.64487 0.11474 0.90328 0.0
C351 C 0.63975 0.0519 0.90022 0.0
C352 C 0.61131 0.09789 0.07795 0.0
O353 O 0.54241 0.02704 0.80358 0.0
O354 O 0.57723 0.00719 0.81122 0.0
O355 O 0.54052 0.06259 0.97397 0.0
O356 O 0.56585 0.03546 0.03251 0.0
O357 O 0.62497 0.04763 0.96544 0.0
O358 O 0.63856 0.0726 0.86015 0.0
C359 C 0.58233 0.07886 0.63034 0.0
O360 O 0.59894 0.08727 0.68411 0.0
O361 O 0.56312 0.06992 0.66534 0.0
O362 O 0.6445 0.15793 0.92339 0.0
O363 O 0.61973 0.16975 0.80668 0.0
O364 O 0.66226 0.11845 0.7631 0.0
C365 C 0.6332 0.17446 0.87678 0.0
O366 O 0.63804 0.12658 0.6442 0.0
O367 O 0.5671 0.13535 0.73881 0.0
C368 C 0.659 0.12132 0.67617 0.0
O369 O 0.56197 0.10453 0.83697 0.0
O370 O 0.59685 0.08822 0.01904 0.0
O371 O 0.62963 0.10914 0.0484 0.0
C372 C 0.41492 0.12301 0.93896 0.0
C373 C 0.3682 0.0985 0.16721 0.0
C374 C 0.29236 0.12933 0.95425 0.0
Mg375 Mg 0.38786 0.14983 0.10114 0.0
O376 O 0.36316 0.14808 0.00978 0.0
Mg377 Mg 0.35281 0.11739 0.95414 0.0
Mg378 Mg 0.33195 0.16382 0.03305 0.0
O379 O 0.30101 0.18276 0.06046 0.0
Mg380 Mg 0.28325 0.18292 0.94019 0.0
Mg381 Mg 0.31712 0.21628 0.11363 0.0
C382 C 0.37093 0.20582 0.07744 0.0
C383 C 0.3313 0.17341 0.25753 0.0
O384 O 0.3951 0.11281 0.9128 0.0
O385 O 0.41567 0.13775 0.00758 0.0
O386 O 0.35906 0.09789 0.08623 0.0
O387 O 0.37978 0.1173 0.1952 0.0
O388 O 0.38767 0.19139 0.10644 0.0
O389 O 0.35039 0.19792 0.05405 0.0
C390 C 0.33826 0.15725 0.80687 0.0
O391 O 0.33153 0.17099 0.87352 0.0
O392 O 0.34654 0.13643 0.82239 0.0
O393 O 0.28283 0.19499 0.09379 0.0
O394 O 0.25147 0.19976 0.00623 0.0
O395 O 0.30701 0.23651 0.97949 0.0
C396 C 0.26223 0.2051 0.08222 0.0
O397 O 0.30441 0.20883 0.86856 0.0
O398 O 0.2908 0.1462 0.89454 0.0
C399 C 0.30454 0.2306 0.89385 0.0
O400 O 0.31157 0.12745 0.00479 0.0
O401 O 0.33404 0.15799 0.19176 0.0
O402 O 0.32573 0.19525 0.24164 0.0
C403 C 0.13433 0.16941 0.62262 0.0
C404 C 0.15841 0.12854 0.8738 0.0
C405 C 0.15096 0.05181 0.77429 0.0
Mg406 Mg 0.10806 0.13961 0.77808 0.0
O407 O 0.11625 0.11519 0.68976 0.0
Mg408 Mg 0.14998 0.10932 0.65579 0.0
Mg409 Mg 0.10783 0.08217 0.72477 0.0
O410 O 0.0969 0.04963 0.76885 0.0
Mg411 Mg 0.10929 0.02992 0.8682 0.0
Mg412 Mg 0.06311 0.05834 0.80844 0.0
C413 C 0.0573 0.11121 0.75469 0.0
C414 C 0.09518 0.08905 0.94887 0.0
O415 O 0.14815 0.15105 0.6064 0.0
O416 O 0.1177 0.16868 0.68455 0.0
O417 O 0.16392 0.11962 0.79524 0.0
O418 O 0.13724 0.13709 0.88914 0.0
O419 O 0.0678 0.1306 0.78349 0.0
O420 O 0.06951 0.09303 0.72825 0.0
C421 C 0.11674 0.08406 0.49982 0.0
O422 O 0.10403 0.07491 0.56555 0.0
O423 O 0.13477 0.09737 0.51767 0.0
O424 O 0.05808 0.02649 0.90127 0.0
O425 O 0.08745 0.03463 0.99621 0.0
O426 O 0.06199 0.0295 0.69842 0.0
C427 C 0.06537 0.02987 0.98379 0.0
O428 O 0.08982 0.00559 0.7709 0.0
O429 O 0.14037 0.05438 0.85224 0.0
C430 C 0.07346 0.00943 0.70808 0.0
O431 O 0.14714 0.06782 0.71035 0.0
O432 O 0.1109 0.09086 0.88387 0.0
O433 O 0.07438 0.08063 0.93221 0.0
C434 C 0.08837 0.88614 0.39978 0.0
C435 C 0.1333 0.91494 0.62396 0.0
C436 C 0.21001 0.88139 0.41818 0.0
Mg437 Mg 0.11498 0.86283 0.56976 0.0
O438 O 0.13982 0.86281 0.47996 0.0
Mg439 Mg 0.1501 0.89272 0.41787 0.0
Mg440 Mg 0.17078 0.8465 0.50229 0.0
O441 O 0.20175 0.82779 0.52538 0.0
Mg442 Mg 0.21966 0.82791 0.40467 0.0
Mg443 Mg 0.1861 0.79495 0.58227 0.0
C444 C 0.13118 0.80631 0.56439 0.0
C445 C 0.17378 0.83788 0.72689 0.0
O446 O 0.10806 0.8964 0.37285 0.0
O447 O 0.0876 0.87261 0.47189 0.0
O448 O 0.1434 0.91436 0.54481 0.0
O449 O 0.12136 0.89678 0.65474 0.0
O450 O 0.11518 0.82214 0.58781 0.0
O451 O 0.15158 0.81253 0.5318 0.0
C452 C 0.16447 0.85162 0.27601 0.0
O453 O 0.1708 0.83793 0.34337 0.0
O454 O 0.15649 0.87254 0.29051 0.0
O455 O 0.22013 0.81601 0.55574 0.0
O456 O 0.25211 0.81227 0.47107 0.0
O457 O 0.19253 0.77491 0.44526 0.0
C458 C 0.24098 0.80637 0.54547 0.0
O459 O 0.20086 0.80058 0.32987 0.0
O460 O 0.21177 0.86448 0.35862 0.0
C461 C 0.19601 0.77955 0.35896 0.0
O462 O 0.19101 0.88284 0.46975 0.0
O463 O 0.16997 0.85316 0.66132 0.0
O464 O 0.17961 0.81614 0.71057 0.0
C465 C 0.36681 0.8411 0.12419 0.0
C466 C 0.34729 0.88291 0.37832 0.0
C467 C 0.38638 0.96361 0.20051 0.0
Mg468 Mg 0.39488 0.86075 0.29638 0.0
O469 O 0.395 0.88716 0.21084 0.0
Mg470 Mg 0.36559 0.90328 0.16615 0.0
Mg471 Mg 0.41644 0.91393 0.23455 0.0
O472 O 0.44078 0.93957 0.26306 0.0
Mg473 Mg 0.44491 0.96471 0.17915 0.0
Mg474 Mg 0.46968 0.91656 0.27656 0.0
C475 C 0.4511 0.86719 0.27281 0.0
C476 C 0.43365 0.90993 0.45556 0.0
O477 O 0.35761 0.86219 0.10643 0.0
O478 O 0.38072 0.83743 0.1938 0.0
O479 O 0.34686 0.89506 0.30298 0.0
O480 O 0.36475 0.8684 0.39613 0.0
O481 O 0.43508 0.85391 0.31197 0.0
O482 O 0.4457 0.88714 0.23607 0.0
C483 C 0.40354 0.91603 0.00548 0.0
O484 O 0.42 0.91753 0.06805 0.0
O485 O 0.38214 0.91133 0.02854 0.0
O486 O 0.49066 0.94833 0.32247 0.0
O487 O 0.47207 0.98173 0.27224 0.0
O488 O 0.48422 0.92104 0.12517 0.0
C489 C 0.48868 0.97111 0.31964 0.0
O490 O 0.45802 0.94453 0.06296 0.0
O491 O 0.40691 0.97255 0.17934 0.0
C492 C 0.47986 0.93954 0.07604 0.0
O493 O 0.384 0.94137 0.22842 0.0
O494 O 0.41534 0.91022 0.4001 0.0
O495 O 0.45506 0.91166 0.42395 0.0
H496 H 0.16278 0.26439 0.4028 0.0
H497 H 0.09004 0.28349 0.47242 0.0
H498 H 0.08396 0.24351 0.53925 0.0
H499 H 0.10068 0.20471 0.59387 0.0
H500 H 0.17379 0.18597 0.52631 0.0
H501 H 0.17861 0.22447 0.44585 0.0
C502 C 0.14558 0.25996 0.43234 0.0
C503 C 0.12703 0.27742 0.43335 0.0
C504 C 0.14246 0.23705 0.47315 0.0
C505 C 0.10459 0.2706 0.46922 0.0
C506 C 0.10124 0.24776 0.50898 0.0
C507 C 0.1177 0.20892 0.56131 0.0
C508 C 0.13699 0.19232 0.56775 0.0
C509 C 0.12027 0.2311 0.51407 0.0
C510 C 0.15867 0.19819 0.52327 0.0
C511 C 0.16142 0.22029 0.47706 0.0
H512 H 0.47181 0.38521 0.87481 0.0
H513 H 0.47778 0.37691 0.57708 0.0
H514 H 0.52199 0.38067 0.58932 0.0
H515 H 0.55929 0.38769 0.69059 0.0
H516 H 0.54785 0.40441 0.98229 0.0
H517 H 0.50595 0.395 0.96715 0.0
C518 C 0.48277 0.38396 0.8122 0.0
C519 C 0.47156 0.38051 0.72562 0.0
C520 C 0.50737 0.38819 0.81893 0.0
C521 C 0.48599 0.37904 0.64515 0.0
C522 C 0.51122 0.38173 0.65215 0.0
C523 C 0.54736 0.39067 0.74922 0.0
C524 C 0.55703 0.39676 0.83789 0.0
C525 C 0.52216 0.38699 0.73899 0.0
C526 C 0.54115 0.39989 0.91332 0.0
C527 C 0.51706 0.39447 0.90513 0.0
H528 H 0.40075 0.80805 0.08395 0.0
H529 H 0.32714 0.82573 0.02094 0.0
H530 H 0.32291 0.78714 0.93833 0.0
H531 H 0.33949 0.74714 0.89676 0.0
H532 H 0.41236 0.72919 0.97 0.0
H533 H 0.41793 0.76969 0.0317 0.0
C534 C 0.38372 0.80366 0.05157 0.0
C535 C 0.36413 0.81984 0.06017 0.0
C536 C 0.38143 0.7814 0.00549 0.0
C537 C 0.34248 0.81384 0.01582 0.0
C538 C 0.34009 0.79165 0.96899 0.0
C539 C 0.3565 0.75175 0.92699 0.0
C540 C 0.37521 0.73439 0.93074 0.0
C541 C 0.35929 0.77501 0.96558 0.0
C542 C 0.39758 0.74181 0.96548 0.0
C543 C 0.40068 0.76499 0.00206 0.0
H544 H 0.93878 0.63909 0.23903 0.0
H545 H 0.94872 0.58918 0.46607 0.0
H546 H 0.99193 0.59147 0.44717 0.0
H547 H 0.02671 0.6111 0.37992 0.0
H548 H 0.0198 0.65465 0.13366 0.0
H549 H 0.97558 0.65314 0.14967 0.0
C550 C 0.95042 0.62773 0.28074 0.0
C551 C 0.94033 0.61343 0.3528 0.0
C552 C 0.97574 0.62893 0.26851 0.0
C553 C 0.95581 0.59967 0.40867 0.0
C554 C 0.98062 0.60135 0.39897 0.0
C555 C 0.01568 0.61914 0.32609 0.0
C556 C 0.0268 0.63205 0.25347 0.0
C557 C 0.99072 0.61636 0.33103 0.0
C558 C 0.01195 0.64443 0.19012 0.0
C559 C 0.98663 0.64322 0.19864 0.0
H560 H 0.8603 0.73996 0.62812 0.0
H561 H 0.92502 0.72321 0.47738 0.0
H562 H 0.92787 0.76498 0.42629 0.0
H563 H 0.9081 0.80369 0.40087 0.0
H564 H 0.84107 0.81988 0.53825 0.0
H565 H 0.84218 0.78036 0.6146 0.0
C566 C 0.8752 0.74548 0.5852 0.0
C567 C 0.89221 0.72827 0.55532 0.0
C568 C 0.87564 0.76913 0.55047 0.0
C569 C 0.91188 0.73605 0.50251 0.0
C570 C 0.91315 0.75983 0.47138 0.0
C571 C 0.89363 0.7987 0.44755 0.0
C572 C 0.87414 0.8146 0.46186 0.0
C573 C 0.89444 0.77609 0.49074 0.0
C574 C 0.85607 0.80796 0.52493 0.0
C575 C 0.85679 0.78539 0.56879 0.0
H576 H 0.51881 0.58786 0.19932 0.0
H577 H 0.52957 0.66432 0.22177 0.0
H578 H 0.48798 0.67134 0.17632 0.0
H579 H 0.44932 0.65626 0.11731 0.0
H580 H 0.43698 0.58014 0.10152 0.0
H581 H 0.47806 0.57255 0.15768 0.0
C582 C 0.51201 0.60607 0.19575 0.0
C583 C 0.52773 0.62554 0.21387 0.0
C584 C 0.48767 0.61008 0.17 0.0
C585 C 0.51823 0.64893 0.2089 0.0
C586 C 0.49433 0.65301 0.18222 0.0
C587 C 0.45547 0.63796 0.12752 0.0
C588 C 0.43996 0.61879 0.10479 0.0
C589 C 0.47903 0.63379 0.16075 0.0
C590 C 0.44831 0.59524 0.11903 0.0
C591 C 0.47194 0.59093 0.15055 0.0
H592 H 0.62252 0.28547 0.85504 0.0
H593 H 0.6169 0.28082 0.15423 0.0
H594 H 0.62156 0.23668 0.14474 0.0
H595 H 0.62912 0.19925 0.04678 0.0
H596 H 0.63988 0.20836 0.74996 0.0
H597 H 0.63187 0.25084 0.76335 0.0
C598 C 0.62189 0.27479 0.9185 0.0
C599 C 0.61896 0.28634 0.00488 0.0
C600 C 0.62627 0.25017 0.9128 0.0
C601 C 0.61847 0.27231 0.08647 0.0
C602 C 0.62168 0.24714 0.08096 0.0
C603 C 0.63055 0.21075 0.98601 0.0
C604 C 0.63531 0.2005 0.89729 0.0
C605 C 0.62623 0.23585 0.99422 0.0
C606 C 0.63638 0.21565 0.81892 0.0
C607 C 0.63147 0.23996 0.82615 0.0
H608 H 0.96935 0.3771 0.56347 0.0
H609 H 0.98199 0.37101 0.85902 0.0
H610 H 0.02571 0.37382 0.83145 0.0
H611 H 0.0606 0.37971 0.71907 0.0
H612 H 0.04422 0.38893 0.42607 0.0
H613 H 1.00203 0.38324 0.45699 0.0
C614 C 0.98167 0.37592 0.62215 0.0
C615 C 0.97239 0.3734 0.71289 0.0
C616 C 0.00628 0.37869 0.60604 0.0
C617 C 0.98862 0.37228 0.78811 0.0
C618 C 0.01361 0.37437 0.77224 0.0
C619 C 0.04768 0.3812 0.66276 0.0
C620 C 0.05584 0.38498 0.57001 0.0
C621 C 0.02272 0.37813 0.68119 0.0
C622 C 0.03871 0.38615 0.49786 0.0
C623 C 0.01447 0.38267 0.51524 0.0
H624 H 0.60185 0.70747 0.0606 0.0
H625 H 0.67744 0.69261 0.03128 0.0
H626 H 0.68392 0.73362 0.97436 0.0
H627 H 0.66856 0.77473 0.95096 0.0
H628 H 0.59331 0.78977 0.98803 0.0
H629 H 0.58592 0.74724 0.01895 0.0
C630 C 0.61973 0.71308 0.04059 0.0
C631 C 0.63924 0.6971 0.05169 0.0
C632 C 0.62327 0.73665 0.00867 0.0
C633 C 0.66217 0.70452 0.02368 0.0
C634 C 0.66586 0.72801 0.99153 0.0
C635 C 0.65057 0.76879 0.96582 0.0
C636 C 0.6316 0.78561 0.96981 0.0
C637 C 0.64665 0.74443 0.98664 0.0
C638 C 0.60819 0.77725 0.98426 0.0
C639 C 0.60403 0.75297 0.00327 0.0
H640 H 0.98896 0.91337 0.21055 0.0
H641 H 0.97391 0.84 0.28408 0.0
H642 H 0.01575 0.83437 0.33121 0.0
H643 H 0.05485 0.85181 0.37298 0.0
H644 H 0.06995 0.92564 0.30637 0.0
H645 H 0.02967 0.92988 0.23791 0.0
C646 C 0.99475 0.89615 0.23683 0.0
C647 C 0.97793 0.87728 0.2456 0.0
C648 C 0.01878 0.89331 0.26697 0.0
C649 C 0.98629 0.85478 0.2757 0.0
C650 C 0.0102 0.85168 0.30418 0.0
C651 C 0.04947 0.86881 0.34254 0.0
C652 C 0.06544 0.88849 0.34578 0.0
C653 C 0.02632 0.87106 0.30357 0.0
C654 C 0.05819 0.91022 0.30468 0.0
C655 C 0.03508 0.91262 0.26585 0.0
H656 H 0.86035 0.23102 0.65042 0.0
H657 H 0.8989 0.23209 0.39052 0.0
H658 H 0.89492 0.27635 0.38629 0.0
H659 H 0.88002 0.31486 0.46185 0.0
H660 H 0.83329 0.30962 0.70087 0.0
H661 H 0.83912 0.26658 0.70474 0.0
C662 C 0.86685 0.24068 0.58999 0.0
C663 C 0.87909 0.22802 0.51942 0.0
C664 C 0.8622 0.26529 0.58301 0.0
C665 C 0.88935 0.24122 0.446 0.0
C666 C 0.88663 0.26648 0.44282 0.0
C667 C 0.86986 0.30405 0.51064 0.0
C668 C 0.85574 0.31552 0.58009 0.0
C669 C 0.87268 0.27871 0.51044 0.0
C670 C 0.84352 0.30129 0.6451 0.0
C671 C 0.84727 0.27662 0.64841 0.0
H672 H 0.51643 0.08799 0.79148 0.0
H673 H 0.52956 0.16414 0.79394 0.0
H674 H 0.48757 0.17143 0.8357 0.0
H675 H 0.44823 0.15599 0.88833 0.0
H676 H 0.43452 0.07999 0.88109 0.0
H677 H 0.47562 0.07275 0.82532 0.0
C678 C 0.51021 0.1062 0.80045 0.0
C679 C 0.52655 0.12547 0.7906 0.0
C680 C 0.48588 0.11024 0.82463 0.0
C681 C 0.5176 0.14895 0.80023 0.0
C682 C 0.49355 0.15311 0.82513 0.0
C683 C 0.4541 0.13784 0.873 0.0
C684 C 0.43822 0.11852 0.88945 0.0
C685 C 0.4777 0.13389 0.83998 0.0
C686 C 0.44615 0.09518 0.86859 0.0
C687 C 0.46977 0.09106 0.83724 0.0
H688 H 0.38397 0.32015 0.04731 0.0
H689 H 0.33942 0.30683 0.80657 0.0
H690 H 0.3401 0.26408 0.83956 0.0
H691 H 0.3538 0.23021 0.93206 0.0
H692 H 0.39601 0.24109 0.18015 0.0
H693 H 0.39623 0.28477 0.14893 0.0
C694 C 0.37353 0.30794 0.00482 0.0
C695 C 0.36085 0.31697 0.92599 0.0
C696 C 0.37389 0.28285 0.02486 0.0
C697 C 0.34849 0.30065 0.86914 0.0
C698 C 0.34907 0.27607 0.8876 0.0
C699 C 0.36265 0.2421 0.98096 0.0
C700 C 0.37442 0.23221 0.05955 0.0
C701 C 0.36179 0.26697 0.9645 0.0
C702 C 0.38679 0.24798 0.11914 0.0
C703 C 0.38663 0.27304 0.10165 0.0
H704 H 0.94976 0.08413 0.6589 0.0
H705 H 0.93532 0.15061 0.80065 0.0
H706 H 0.97772 0.1542 0.84376 0.0
H707 H 0.0203 0.14085 0.8226 0.0
H708 H 0.03319 0.07409 0.67658 0.0
H709 H 0.9908 0.06837 0.65516 0.0
C710 C 0.95572 0.09879 0.703 0.0
C711 C 0.93924 0.11668 0.72878 0.0
C712 C 0.98032 0.10113 0.72492 0.0
C713 C 0.94751 0.13617 0.78243 0.0
C714 C 0.9719 0.13846 0.80565 0.0
C715 C 0.01383 0.12496 0.78712 0.0
C716 C 0.03047 0.10816 0.75119 0.0
C717 C 0.98875 0.12148 0.77424 0.0
C718 C 0.02132 0.08757 0.70568 0.0
C719 C 0.9968 0.08412 0.69288 0.0
H720 H 0.10143 0.70611 0.40455 0.0
H721 H 0.17174 0.68642 0.50536 0.0
H722 H 0.17504 0.72567 0.5832 0.0
H723 H 0.15888 0.76658 0.61192 0.0
H724 H 0.08984 0.78647 0.50012 0.0
H725 H 0.08437 0.74552 0.44275 0.0
C726 C 0.11755 0.71023 0.44373 0.0
C727 C 0.13656 0.69327 0.44725 0.0
C728 C 0.1193 0.7328 0.48765 0.0
C729 C 0.15692 0.69897 0.50065 0.0
C730 C 0.15878 0.72149 0.54509 0.0
C731 C 0.1428 0.7622 0.57391 0.0
C732 C 0.12515 0.78013 0.55794 0.0
C733 C 0.14028 0.73875 0.53722 0.0
C734 C 0.10369 0.77327 0.51416 0.0
C735 C 0.10074 0.74987 0.47984 0.0
H736 H 0.56329 0.88085 0.28384 0.0
H737 H 0.54736 0.89156 0.9912 0.0
H738 H 0.50663 0.87826 0.01537 0.0
H739 H 0.47509 0.86431 0.11582 0.0
H740 H 0.48549 0.86181 0.41322 0.0
H741 H 0.52871 0.8698 0.39144 0.0
C742 C 0.55068 0.88095 0.22618 0.0
C743 C 0.55873 0.88711 0.13525 0.0
C744 C 0.52645 0.87372 0.2409 0.0
C745 C 0.54198 0.88684 0.06158 0.0
C746 C 0.51864 0.87888 0.07494 0.0
C747 C 0.48698 0.86463 0.176 0.0
C748 C 0.47713 0.86152 0.26566 0.0
C749 C 0.51081 0.87192 0.16358 0.0
C750 C 0.49265 0.86304 0.34307 0.0
C751 C 0.51726 0.86838 0.33052 0.0
H752 H 0.1732 0.30927 0.1118 0.0
H753 H 0.16553 0.38414 0.18536 0.0
H754 H 0.1594 0.39411 0.02047 0.0
H755 H 0.15674 0.38146 0.85741 0.0
H756 H 0.16388 0.30659 0.78481 0.0
H757 H 0.1703 0.29662 0.9496 0.0
C758 C 0.17029 0.32785 0.09226 0.0
C759 C 0.16973 0.346 0.16092 0.0
C760 C 0.1669 0.33336 0.99816 0.0
C761 C 0.16579 0.36987 0.13402 0.0
C762 C 0.16239 0.37555 0.0399 0.0
C763 C 0.15952 0.36289 0.8775 0.0
C764 C 0.16009 0.3447 0.80912 0.0
C765 C 0.16289 0.3574 0.97173 0.0
C766 C 0.16392 0.32085 0.83607 0.0
C767 C 0.16736 0.31519 0.9301 0.0
H768 H 0.44433 0.42696 0.44401 0.0
H769 H 0.36928 0.43446 0.51231 0.0
H770 H 0.35869 0.42819 0.34807 0.0
H771 H 0.37076 0.4206 0.18585 0.0
H772 H 0.4454 0.41013 0.1185 0.0
H773 H 0.45618 0.41735 0.28285 0.0
C774 C 0.42565 0.42753 0.42287 0.0
C775 C 0.40762 0.43162 0.49029 0.0
C776 C 0.41967 0.42329 0.32878 0.0
C777 C 0.3835 0.43162 0.4619 0.0
C778 C 0.37745 0.42795 0.36803 0.0
C779 C 0.38945 0.4198 0.20681 0.0
C780 C 0.40741 0.41538 0.13935 0.0
C781 C 0.39539 0.4237 0.30102 0.0
C782 C 0.43142 0.41432 0.16831 0.0
C783 C 0.43752 0.4183 0.26213 0.0
H784 H 0.3415 0.6277 0.34093 0.0
H785 H 0.33545 0.70231 0.26302 0.0
H786 H 0.33154 0.71347 0.42737 0.0
H787 H 0.33026 0.70197 0.59072 0.0
H788 H 0.33774 0.6275 0.67043 0.0
H789 H 0.3414 0.61626 0.50569 0.0
C790 C 0.33942 0.64645 0.35971 0.0
C791 C 0.33827 0.6642 0.28989 0.0
C792 C 0.33773 0.65267 0.45391 0.0
C793 C 0.3356 0.68834 0.31533 0.0
C794 C 0.33368 0.6947 0.40917 0.0
C795 C 0.33266 0.68321 0.57256 0.0
C796 C 0.3336 0.66553 0.64265 0.0
C797 C 0.33469 0.67698 0.47867 0.0
C798 C 0.33698 0.64141 0.61769 0.0
C799 C 0.33899 0.63501 0.52372 0.0
H800 H 0.13166 0.5993 0.66805 0.0
H801 H 0.06052 0.57799 0.583 0.0
H802 H 0.0483 0.57555 0.74681 0.0
H803 H 0.05776 0.5802 0.9138 0.0
H804 H 0.129 0.60206 0.99637 0.0
H805 H 0.14108 0.6039 0.83317 0.0
C806 C 0.11345 0.59406 0.68491 0.0
C807 C 0.09708 0.58867 0.61301 0.0
C808 C 0.1065 0.59305 0.77878 0.0
C809 C 0.07359 0.58194 0.63673 0.0
C810 C 0.06655 0.5807 0.73043 0.0
C811 C 0.07591 0.58549 0.89623 0.0
C812 C 0.09238 0.5912 0.96759 0.0
C813 C 0.08283 0.58636 0.80198 0.0
C814 C 0.11587 0.5978 0.94322 0.0
C815 C 0.12285 0.59875 0.84979 0.0
H816 H 0.81659 0.68725 0.12724 0.0
H817 H 0.88261 0.64677 0.12513 0.0
H818 H 0.88424 0.6489 0.9554 0.0
H819 H 0.86634 0.66089 0.80508 0.0
H820 H 0.80117 0.70254 0.80459 0.0
H821 H 0.79957 0.70114 0.97529 0.0
C822 C 0.83158 0.67948 0.08952 0.0
C823 C 0.84951 0.66701 0.13909 0.0
C824 C 0.83231 0.68049 0.99056 0.0
C825 C 0.86858 0.65654 0.0888 0.0
C826 C 0.86947 0.65757 0.99144 0.0
C827 C 0.85166 0.66935 0.84252 0.0
C828 C 0.83373 0.68147 0.79218 0.0
C829 C 0.85123 0.66906 0.9412 0.0
C830 C 0.81513 0.69294 0.8418 0.0
C831 C 0.81427 0.69227 0.93962 0.0
H832 H 0.56403 0.58901 0.57804 0.0
H833 H 0.6355 0.61004 0.49658 0.0
H834 H 0.64826 0.60865 0.65958 0.0
H835 H 0.63938 0.60042 0.82392 0.0
H836 H 0.56876 0.57633 0.90394 0.0
H837 H 0.55574 0.57866 0.74083 0.0
C838 C 0.58239 0.59355 0.59549 0.0
C839 C 0.59865 0.60024 0.52452 0.0
C840 C 0.5899 0.59144 0.68866 0.0
C841 C 0.62241 0.60559 0.54931 0.0
C842 C 0.62981 0.60439 0.64255 0.0
C843 C 0.62113 0.59554 0.80596 0.0
C844 C 0.60501 0.58838 0.87647 0.0
C845 C 0.61375 0.59712 0.71251 0.0
C846 C 0.58156 0.58185 0.85132 0.0
C847 C 0.57404 0.58342 0.75821 0.0
H848 H 0.65718 0.38629 0.55609 0.0
H849 H 0.66511 0.31226 0.63848 0.0
H850 H 0.6687 0.30041 0.47435 0.0
H851 H 0.66834 0.31123 0.30744 0.0
H852 H 0.65966 0.38555 0.22777 0.0
H853 H 0.65715 0.39709 0.3915 0.0
C854 C 0.65965 0.36751 0.53849 0.0
C855 C 0.66107 0.35016 0.60966 0.0
C856 C 0.6613 0.3609 0.44444 0.0
C857 C 0.66441 0.32598 0.58525 0.0
C858 C 0.66624 0.31921 0.49136 0.0
C859 C 0.66592 0.32996 0.32579 0.0
C860 C 0.66398 0.34747 0.25511 0.0
C861 C 0.66457 0.33653 0.42036 0.0
C862 C 0.66092 0.37165 0.28039 0.0
C863 C 0.65958 0.3783 0.37411 0.0
H864 H 0.93274 0.42406 0.34054 0.0
H865 H 0.85717 0.40869 0.31422 0.0
H866 H 0.86038 0.40921 0.14558 0.0
H867 H 0.88422 0.41355 0.00204 0.0
H868 H 0.95972 0.4292 0.02483 0.0
H869 H 0.95677 0.42916 0.19484 0.0
C870 C 0.91696 0.421 0.29811 0.0
C871 C 0.89477 0.41632 0.34218 0.0
C872 C 0.91881 0.42129 0.19881 0.0
C873 C 0.87463 0.41226 0.28423 0.0
C874 C 0.87636 0.41255 0.18672 0.0
C875 C 0.90007 0.41692 0.04391 0.0
C876 C 0.92215 0.42128 -0.00093 0.0
C877 C 0.89833 0.41692 0.14281 0.0
C878 C 0.94239 0.4257 0.05603 0.0
C879 C 0.94076 0.42571 0.15407 0.0
H880 H 0.64201 0.85103 0.73871 0.0
H881 H 0.719 0.84552 0.73536 0.0
H882 H 0.71904 0.8463 0.56441 0.0
H883 H 0.69697 0.84878 0.41391 0.0
H884 H 0.61997 0.85515 0.41804 0.0
H885 H 0.61999 0.85333 0.58873 0.0
C886 C 0.65877 0.85055 0.70031 0.0
C887 C 0.68052 0.84862 0.74965 0.0
C888 C 0.65858 0.85056 0.6015 0.0
C889 C 0.70207 0.84724 0.69898 0.0
C890 C 0.70207 0.84751 0.60107 0.0
C891 C 0.68021 0.8491 0.45232 0.0
C892 C 0.65845 0.85149 0.4032 0.0
C893 C 0.68042 0.84889 0.55125 0.0
C894 C 0.63691 0.8528 0.45416 0.0
C895 C 0.63693 0.85207 0.55192 0.0
H896 H 0.94903 0.9254 0.96847 0.0
H897 H 0.87379 0.93193 0.03477 0.0
H898 H 0.86361 0.92607 0.8697 0.0
H899 H 0.87619 0.91903 0.70753 0.0
H900 H 0.95086 0.90848 0.64312 0.0
H901 H 0.96136 0.91601 0.80794 0.0
C902 C 0.93039 0.92584 0.9467 0.0
C903 C 0.91217 0.92957 0.01354 0.0
C904 C 0.92469 0.92175 0.85242 0.0
C905 C 0.88811 0.92936 0.9846 0.0
C906 C 0.88232 0.92595 0.89035 0.0
C907 C 0.89482 0.91834 0.72935 0.0
C908 C 0.91301 0.91399 0.66278 0.0
C909 C 0.90047 0.92208 0.82383 0.0
C910 C 0.93689 0.91292 0.69252 0.0
C911 C 0.94275 0.91693 0.78647 0.0
H912 H 0.83014 0.19899 0.19889 0.0
H913 H 0.84657 0.12611 0.28044 0.0
H914 H 0.84778 0.1141 0.11682 0.0
H915 H 0.84399 0.12406 0.95182 0.0
H916 H 0.8287 0.19697 0.86825 0.0
H917 H 0.82676 0.20908 0.03225 0.0
C918 C 0.83406 0.18048 0.18104 0.0
C919 C 0.83831 0.1635 0.25214 0.0
C920 C 0.83465 0.17364 0.0867 0.0
C921 C 0.84333 0.13959 0.22743 0.0
C922 C 0.84394 0.13267 0.13381 0.0
C923 C 0.84016 0.14264 0.96905 0.0
C924 C 0.83619 0.15953 0.8975 0.0
C925 C 0.83956 0.14953 0.06307 0.0
C926 C 0.83135 0.18349 0.92166 0.0
C927 C 0.83047 0.19047 0.01549 0.0
H928 H 0.61811 0.09903 0.52276 0.0
H929 H 0.5516 0.06036 0.4984 0.0
H930 H 0.55413 0.06235 0.32828 0.0
H931 H 0.57508 0.0758 0.18311 0.0
H932 H 0.64114 0.11539 0.21205 0.0
H933 H 0.63864 0.11249 0.38049 0.0
C934 C 0.60409 0.09111 0.48071 0.0
C935 C 0.58465 0.07971 0.52517 0.0
C936 C 0.60545 0.09258 0.38192 0.0
C937 C 0.56684 0.06937 0.46762 0.0
C938 C 0.56822 0.07052 0.36952 0.0
C939 C 0.58889 0.08383 0.22606 0.0
C940 C 0.60825 0.09585 0.18271 0.0
C941 C 0.5874 0.08223 0.32532 0.0
C942 C 0.62591 0.10605 0.24136 0.0
C943 C 0.62458 0.1044 0.33878 0.0
H944 H 0.33801 0.12809 0.6574 0.0
H945 H 0.33486 0.20282 0.73624 0.0
H946 H 0.33216 0.21423 0.57152 0.0
H947 H 0.33157 0.2028 0.40738 0.0
H948 H 0.33668 0.12804 0.32839 0.0
H949 H 0.33863 0.11673 0.49322 0.0
C950 C 0.33678 0.14693 0.63882 0.0
C951 C 0.33614 0.16466 0.70882 0.0
C952 C 0.336 0.15325 0.54471 0.0
C953 C 0.33456 0.1889 0.68366 0.0
C954 C 0.33339 0.19538 0.58966 0.0
C955 C 0.33312 0.18398 0.4258 0.0
C956 C 0.33386 0.16622 0.35579 0.0
C957 C 0.33415 0.17767 0.51992 0.0
C958 C 0.3361 0.14201 0.38103 0.0
C959 C 0.3371 0.13555 0.47504 0.0
H960 H 0.06765 0.08134 0.10314 0.0
H961 H 0.13904 0.10174 0.01913 0.0
H962 H 0.15201 0.10136 0.18162 0.0
H963 H 0.14353 0.09369 0.34661 0.0
H964 H 0.07309 0.06998 0.43023 0.0
H965 H 0.05957 0.0721 0.26775 0.0
C966 C 0.08602 0.08591 0.12006 0.0
C967 C 0.10223 0.09214 0.04829 0.0
C968 C 0.09369 0.08432 0.21334 0.0
C969 C 0.12598 0.09772 0.07238 0.0
C970 C 0.13353 0.09704 0.16542 0.0
C971 C 0.12524 0.08878 0.32943 0.0
C972 C 0.10933 0.08174 0.40074 0.0
C973 C 0.11761 0.09007 0.23619 0.0
C974 C 0.08577 0.07528 0.37684 0.0
C975 C 0.07797 0.0767 0.28401 0.0
H976 H 0.1672 0.88137 0.1294 0.0
H977 H 0.1671 0.80628 0.20285 0.0
H978 H 0.17063 0.79557 0.03713 0.0
H979 H 0.17238 0.80786 0.87418 0.0
H980 H 0.16998 0.88311 0.80079 0.0
H981 H 0.16788 0.89363 0.96659 0.0
C982 C 0.16787 0.86259 0.10948 0.0
C983 C 0.16728 0.84449 0.17803 0.0
C984 C 0.16905 0.85677 0.01508 0.0
C985 C 0.16828 0.82037 0.15122 0.0
C986 C 0.16993 0.81434 0.0568 0.0
C987 C 0.17146 0.82663 0.89402 0.0
C988 C 0.1715 0.84476 0.82544 0.0
C989 C 0.1702 0.83244 0.9885 0.0
C990 C 0.16998 0.8689 0.8524 0.0
C991 C 0.16887 0.87488 0.94689 0.0
H992 H 0.39643 0.92611 0.56538 0.0
H993 H 0.46548 0.89127 0.58036 0.0
H994 H 0.46385 0.89181 0.75077 0.0
H995 H 0.44249 0.90176 0.89841 0.0
H996 H 0.37371 0.9371 0.88167 0.0
H997 H 0.37584 0.93721 0.71179 0.0
C998 C 0.41098 0.9184 0.60593 0.0
C999 C 0.43091 0.90848 0.55942 0.0
C1000 C 0.41021 0.9192 0.70479 0.0
C1001 C 0.44981 0.89898 0.61379 0.0
C1002 C 0.44899 0.89937 0.71168 0.0
C1003 C 0.42825 0.9099 0.85752 0.0
C1004 C 0.40802 0.91947 0.9034 0.0
C1005 C 0.42934 0.90956 0.75842 0.0
C1006 C 0.38953 0.92959 0.84865 0.0
C1007 C 0.39062 0.92954 0.75106 0.0
H1008 H 0.22216 0.29758 0.28481 0.0
H1009 H 0.27902 0.28054 0.47818 0.0
H1010 H 0.29041 0.24595 0.38121 0.0
H1011 H 0.2833 0.22017 0.2434 0.0
H1012 H 0.22508 0.23668 0.0551 0.0
H1013 H 0.21464 0.27177 0.14978 0.0
C1014 C 0.23687 0.28619 0.30677 0.0
C1015 C 0.24938 0.29141 0.39007 0.0
C1016 C 0.24295 0.26626 0.25157 0.0
C1017 C 0.26892 0.27682 0.41523 0.0
C1018 C 0.27538 0.25703 0.35977 0.0
C1019 C 0.26841 0.2315 0.22261 0.0
C1020 C 0.25523 0.226 0.14097 0.0
C1021 C 0.26238 0.2515 0.27814 0.0
C1022 C 0.23569 0.24065 0.11652 0.0
C1023 C 0.22972 0.26069 0.17079 0.0
H1024 H 0.51997 0.55543 0.51632 0.0
H1025 H 0.57918 0.51646 0.63795 0.0
H1026 H 0.554 0.50546 0.77153 0.0
H1027 H 0.51297 0.49924 0.83093 0.0
H1028 H 0.45353 0.53595 0.70182 0.0
H1029 H 0.48105 0.55647 0.59559 0.0
C1030 C 0.52744 0.54481 0.57291 0.0
C1031 C 0.551 0.53588 0.56615 0.0
C1032 C 0.5128 0.53836 0.64809 0.0
C1033 C 0.56088 0.523 0.64105 0.0
C1034 C 0.54648 0.51674 0.7172 0.0
C1035 C 0.50631 0.51275 0.78273 0.0
C1036 C 0.48144 0.51622 0.77342 0.0
C1037 C 0.5221 0.52325 0.71868 0.0
C1038 C 0.47268 0.53335 0.71042 0.0
C1039 C 0.48838 0.54465 0.64863 0.0
H1040 H 0.28129 0.7154 0.75766 0.0
H1041 H 0.22251 0.73244 0.94183 0.0
H1042 H 0.21166 0.76661 0.84216 0.0
H1043 H 0.21985 0.79201 0.70584 0.0
H1044 H 0.27817 0.77444 0.5198 0.0
H1045 H 0.28875 0.74009 0.61882 0.0
C1046 C 0.26624 0.72668 0.77679 0.0
C1047 C 0.25318 0.72184 0.85911 0.0
C1048 C 0.26018 0.74613 0.71903 0.0
C1049 C 0.23319 0.73616 0.8805 0.0
C1050 C 0.22699 0.75561 0.8233 0.0
C1051 C 0.23473 0.78058 0.68615 0.0
C1052 C 0.24808 0.78571 0.60487 0.0
C1053 C 0.24052 0.76087 0.74297 0.0
C1054 C 0.26761 0.77091 0.58172 0.0
C1055 C 0.27359 0.75126 0.63824 0.0
H1056 H 0.04492 0.53121 -0.00111 0.0
H1057 H 0.01832 0.47631 0.18308 0.0
H1058 H 0.98792 0.46537 0.06662 0.0
H1059 H 0.96767 0.47349 0.91767 0.0
H1060 H 0.99543 0.52696 0.72944 0.0
H1061 H 0.02589 0.53802 0.84621 0.0
C1062 C 0.03293 0.51627 0.01204 0.0
C1063 C 0.03356 0.50462 0.09957 0.0
C1064 C 0.01504 0.51101 0.94679 0.0
C1065 C 0.01804 0.48547 0.11656 0.0
C1066 C 1.00044 0.47962 0.05071 0.0
C1067 C 0.98003 0.48806 0.90343 0.0
C1068 C 0.97903 0.49996 0.8165 0.0
C1069 C 0.9983 0.49291 0.96743 0.0
C1070 C 0.99539 0.51826 0.79711 0.0
C1071 C 0.01314 0.52402 0.86269 0.0
H1072 H 0.79644 0.74007 0.71973 0.0
H1073 H 0.74053 0.76913 0.54469 0.0
H1074 H 0.73117 0.79911 0.66589 0.0
H1075 H 0.73848 0.81566 0.82243 0.0
H1076 H 0.79306 0.78528 -0.0007 0.0
H1077 H 0.80506 0.75801 0.87277 0.0
C1078 C 0.78174 0.75259 0.70929 0.0
C1079 C 0.76854 0.75196 0.6251 0.0
C1080 C 0.77729 0.77008 0.77708 0.0
C1081 C 0.75019 0.76873 0.61036 0.0
C1082 C 0.74536 0.78617 0.67851 0.0
C1083 C 0.75376 0.80381 0.83147 0.0
C1084 C 0.76471 0.80215 0.92024 0.0
C1085 C 0.75901 0.7871 0.76141 0.0
C1086 C 0.78424 0.78664 0.93226 0.0
C1087 C 0.79067 0.77077 0.86056 0.0
H1088 H 0.72561 0.24547 0.08281 0.0
H1089 H 0.76699 0.3091 0.14039 0.0
H1090 H 0.77721 0.29316 0.29504 0.0
H1091 H 0.77232 0.26253 0.41503 0.0
H1092 H 0.73156 0.19851 0.3582 0.0
H1093 H 0.72083 0.21455 0.20376 0.0
C1094 C 0.73739 0.25561 0.12846 0.0
C1095 C 0.74566 0.27844 0.10014 0.0
C1096 C 0.74183 0.24704 0.21877 0.0
C1097 C 0.76084 0.29135 0.15962 0.0
C1098 C 0.76606 0.28254 0.2489 0.0
C1099 C 0.76044 0.25234 0.37002 0.0
C1100 C 0.75249 0.22942 0.39839 0.0
C1101 C 0.75597 0.26084 0.27987 0.0
C1102 C 0.73741 0.21636 0.33904 0.0
C1103 C 0.73193 0.22523 0.24986 0.0
H1104 H 0.06727 0.02167 0.17376 0.0
H1105 H 0.02181 0.04928 0.95417 0.0
H1106 H 0.98729 0.04815 0.05674 0.0
H1107 H 0.96862 0.02942 0.19232 0.0
H1108 H 0.01276 1.00085 0.41223 0.0
H1109 H 0.04903 0.01322 0.32912 0.0
C1110 C 0.04993 0.02799 0.14961 0.0
C1111 C 0.04686 0.03443 0.05551 0.0
C1112 C 0.02979 0.02709 0.20917 0.0
C1113 C 0.02443 0.04323 0.02544 0.0
C1114 C 1.00462 0.04277 0.08416 0.0
C1115 C 0.98615 0.02726 0.22438 0.0
C1116 C 0.98818 0.01416 0.30723 0.0
C1117 C 0.00681 0.03332 0.17404 0.0
C1118 C 0.0109 0.01111 0.34833 0.0
C1119 C 0.03166 0.01767 0.29976 0.0
H1120 H 0.52684 0.95333 0.4151 0.0
H1121 H 0.48724 0.01896 0.36569 0.0
H1122 H 0.50758 0.03763 0.49847 0.0
H1123 H 0.53106 0.03297 0.64045 0.0
H1124 H 0.56888 0.96684 0.69758 0.0
H1125 H 0.55426 0.9503 0.54862 0.0
C1126 C 0.52276 0.97185 0.43244 0.0
C1127 C 0.50489 0.98455 0.38232 0.0
C1128 C 0.53369 0.98201 0.51097 0.0
C1129 C 0.50054 0.0087 0.40393 0.0
C1130 C 0.51203 0.01927 0.48023 0.0
C1131 C 0.53622 0.01488 0.62068 0.0
C1132 C 0.55038 1.00074 0.68133 0.0
C1133 C 0.52765 0.00566 0.53651 0.0
C1134 C 0.55763 0.9778 0.65287 0.0
C1135 C 0.54929 0.96845 0.56792 0.0
H1136 H 0.16791 0.51554 0.34317 0.0
H1137 H 0.10241 0.52695 0.19118 0.0
H1138 H 0.09785 0.48364 0.16948 0.0
H1139 H 0.10838 0.44217 0.22823 0.0
H1140 H 0.17831 0.43176 0.35066 0.0
H1141 H 0.18565 0.47468 0.3459 0.0
C1142 C 0.15327 0.50878 0.30087 0.0
C1143 C 0.13484 0.52467 0.27334 0.0
C1144 C 0.15134 0.48374 0.28474 0.0
C1145 C 0.11621 0.51525 0.21791 0.0
C1146 C 0.11361 0.49032 0.20525 0.0
C1147 C 0.12576 0.44906 0.24875 0.0
C1148 C 0.14255 0.43347 0.2916 0.0
C1149 C 0.13034 0.4742 0.24368 0.0
C1150 C 0.16493 0.44315 0.31792 0.0
C1151 C 0.16909 0.46789 0.31647 0.0
H1152 H 0.30299 0.42344 0.67706 0.0
H1153 H 0.32473 0.35979 0.52761 0.0
H1154 H 0.28376 0.35494 0.46874 0.0
H1155 H 0.24042 0.36449 0.48543 0.0
H1156 H 0.21882 0.42672 0.64248 0.0
H1157 H 0.26088 0.43694 0.66987 0.0
C1158 C 0.29897 0.40882 0.62961 0.0
C1159 C 0.31705 0.39182 0.60802 0.0
C1160 C 0.27519 0.40589 0.59748 0.0
C1161 C 0.31137 0.37317 0.54563 0.0
C1162 C 0.2878 0.37028 0.51251 0.0
C1163 C 0.24499 0.38085 0.52202 0.0
C1164 C 0.22638 0.39497 0.56098 0.0
C1165 C 0.26935 0.38593 0.54127 0.0
C1166 C 0.23263 0.41587 0.60986 0.0
C1167 C 0.25677 0.42144 0.62711 0.0
H1168 H 0.4065 0.5734 0.85397 0.0
H1169 H 0.34022 0.5766 0.70228 0.0
H1170 H 0.33845 0.53236 0.69853 0.0
H1171 H 0.3526 0.49229 0.76727 0.0
H1172 H 0.40788 0.49794 0.97846 0.0
H1173 H 0.41728 0.53726 0.93071 0.0
C1174 C 0.39227 0.5644 0.8158 0.0
C1175 C 0.37414 0.57843 0.77551 0.0
C1176 C 0.38934 0.53953 0.82712 0.0
C1177 C 0.35503 0.56637 0.73104 0.0
C1178 C 0.35368 0.54095 0.73138 0.0
C1179 C 0.36698 0.50197 0.80126 0.0
C1180 C 0.38131 0.49008 0.86951 0.0
C1181 C 0.37017 0.52717 0.7839 0.0
C1182 C 0.39832 0.50438 0.91775 0.0
C1183 C 0.40346 0.52774 0.89244 0.0
H1184 H 0.19266 0.59301 0.13528 0.0
H1185 H 0.17418 0.66182 0.01758 0.0
H1186 H 0.21497 0.66545 0.95458 0.0
H1187 H 0.25779 0.65256 0.96174 0.0
H1188 H 0.27624 0.58564 0.09281 0.0
H1189 H 0.23371 0.57724 0.11877 0.0
C1190 C 0.19732 0.6086 0.0938 0.0
C1191 C 0.18028 0.6273 0.08242 0.0
C1192 C 0.22104 0.61087 0.0606 0.0
C1193 C 0.18671 0.64715 0.02753 0.0
C1194 C 0.21021 0.64932 0.99237 0.0
C1195 C 0.25238 0.63579 0.99278 0.0
C1196 C 0.27032 0.61974 0.0249 0.0
C1197 C 0.22782 0.63181 0.01232 0.0
C1198 C 0.26299 0.59807 0.06554 0.0
C1199 C 0.2386 0.59352 0.08213 0.0
H1200 H 0.83423 0.4928 0.63128 0.0
H1201 H 0.90404 0.48398 0.75412 0.0
H1202 H 0.90775 0.52744 0.77261 0.0
H1203 H 0.89428 0.56824 0.71916 0.0
H1204 H 0.82209 0.57611 0.61496 0.0
H1205 H 0.81577 0.53313 0.62796 0.0
C1206 C 0.84972 0.50024 0.66673 0.0
C1207 C 0.86922 0.4851 0.68793 0.0
C1208 C 0.85144 0.52535 0.67932 0.0
C1209 C 0.88912 0.49521 0.73387 0.0
C1210 C 0.89125 0.52019 0.74442 0.0
C1211 C 0.87679 0.56075 0.70398 0.0
C1212 C 0.85889 0.57552 0.66404 0.0
C1213 C 0.87307 0.5356 0.71207 0.0
C1214 C 0.83634 0.56524 0.6447 0.0
C1215 C 0.83272 0.54051 0.65121 0.0
H1216 H 0.69197 0.59997 0.3852 0.0
H1217 H 0.67365 0.6737 0.44182 0.0
H1218 H 0.71544 0.6818 0.48482 0.0
H1219 H 0.75811 0.66994 0.47127 0.0
H1220 H 0.77663 0.59689 0.40354 0.0
H1221 H 0.73397 0.58629 0.40216 0.0
C1222 C 0.69692 0.6176 0.41085 0.0
C1223 C 0.67957 0.63625 0.41 0.0
C1224 C 0.72123 0.6223 0.43157 0.0
C1225 C 0.68636 0.65897 0.44287 0.0
C1226 C 0.71044 0.66367 0.46587 0.0
C1227 C 0.75288 0.6515 0.4593 0.0
C1228 C 0.77071 0.63423 0.43691 0.0
C1229 C 0.72821 0.6458 0.45536 0.0
C1230 C 0.76349 0.61045 0.42192 0.0
C1231 C 0.739 0.60449 0.41984 0.0
H1232 H 0.64635 0.5116 0.32294 0.0
H1233 H 0.63634 0.54456 0.0523 0.0
H1234 H 0.6294 0.50526 0.98326 0.0
H1235 H 0.62677 0.46186 0.99785 0.0
H1236 H 0.63622 0.42773 0.26583 0.0
H1237 H 0.64206 0.46738 0.33849 0.0
C1238 C 0.64262 0.51023 0.24877 0.0
C1239 C 0.64173 0.53131 0.19333 0.0
C1240 C 0.63835 0.48741 0.20929 0.0
C1241 C 0.63707 0.52895 0.0972 0.0
C1242 C 0.63301 0.50641 0.05756 0.0
C1243 C 0.63012 0.46295 0.07242 0.0
C1244 C 0.6314 0.44172 0.12616 0.0
C1245 C 0.63365 0.4856 0.11282 0.0
C1246 C 0.63518 0.44368 0.22283 0.0
C1247 C 0.6387 0.46635 0.26403 0.0
H1248 H 0.73976 0.35833 0.97078 0.0
H1249 H 0.72451 0.42793 0.85434 0.0
H1250 H 0.76736 0.4374 0.85567 0.0
H1251 H 0.80895 0.42223 0.85458 0.0
H1252 H 0.82439 0.35112 0.95678 0.0
H1253 H 0.78199 0.34592 0.99742 0.0
C1254 C 0.74574 0.37585 0.9485 0.0
C1255 C 0.72878 0.39235 0.91184 0.0
C1256 C 0.77064 0.38064 0.94505 0.0
C1257 C 0.73695 0.41504 0.88408 0.0
C1258 C 0.76158 0.42027 0.88331 0.0
C1259 C 0.80323 0.4059 0.88908 0.0
C1260 C 0.81999 0.38701 0.90197 0.0
C1261 C 0.77861 0.4027 0.90852 0.0
C1262 C 0.81215 0.36603 0.94673 0.0
C1263 C 0.78773 0.36293 0.96863 0.0
H1264 H 0.62068 0.94803 0.79097 0.0
H1265 H 0.6848 0.93799 0.95543 0.0
H1266 H 0.69325 0.98063 0.94779 0.0
H1267 H 0.67631 0.02127 0.93094 0.0
H1268 H 0.61622 0.03249 0.7476 0.0
H1269 H 0.61348 0.98903 0.72025 0.0
C1270 C 0.63718 0.95492 0.82058 0.0
C1271 C 0.65167 0.93976 0.8763 0.0
C1272 C 0.64244 0.97984 0.81436 0.0
C1273 C 0.67307 0.94923 0.91355 0.0
C1274 C 0.67787 0.97376 0.91007 0.0
C1275 C 0.66327 0.01438 0.88155 0.0
C1276 C 0.64584 0.03005 0.8448 0.0
C1277 C 0.66177 0.98942 0.86626 0.0
C1278 C 0.62936 0.02078 0.77967 0.0
C1279 C 0.62758 0.99584 0.76494 0.0
H1280 H 0.81101 0.92262 0.21417 0.0
H1281 H 0.8258 0.85817 0.05764 0.0
H1282 H 0.78356 0.85624 0.0101 0.0
H1283 H 0.74093 0.868 0.0436 0.0
H1284 H 0.72695 0.93058 0.21104 0.0
H1285 H 0.76993 0.93849 0.22186 0.0
C1286 C 0.80515 0.90837 0.16791 0.0
C1287 C 0.82166 0.89031 0.14092 0.0
C1288 C 0.78063 0.90686 0.14415 0.0
C1289 C 0.81367 0.87227 0.07984 0.0
C1290 C 0.78932 0.87098 0.05385 0.0
C1291 C 0.74736 0.88373 0.07991 0.0
C1292 C 0.73063 0.89859 0.12702 0.0
C1293 C 0.77239 0.88743 0.08984 0.0
C1294 C 0.73924 0.91907 0.173 0.0
C1295 C 0.76393 0.92332 0.1807 0.0
H1296 H 0.90963 0.99413 0.35392 0.0
H1297 H 0.83556 0.97956 0.41631 0.0
H1298 H 0.826 0.0223 0.3996 0.0
H1299 H 0.84057 0.06402 0.40132 0.0
H1300 H 0.91511 0.07855 0.34679 0.0
H1301 H 0.9226 0.03567 0.3229 0.0
C1302 C 0.8913 1.00018 0.3613 0.0
C1303 C 0.87336 0.9837 0.38757 0.0
C1304 C 0.88611 0.02486 0.3534 0.0
C1305 C 0.84963 0.99184 0.39588 0.0
C1306 C 0.84423 0.01633 0.38709 0.0
C1307 C 0.85824 0.05788 0.3802 0.0
C1308 C 0.87732 0.07448 0.37668 0.0
C1309 C 0.86256 0.03309 0.37052 0.0
C1310 C 0.9001 0.06629 0.34924 0.0
C1311 C 0.90445 0.04165 0.3373 0.0
H1312 H 0.76336 0.08885 0.6377 0.0
H1313 H 0.77048 0.15561 0.49071 0.0
H1314 H 0.72686 0.15996 0.48406 0.0
H1315 H 0.68702 0.14861 0.55427 0.0
H1316 H 0.68024 0.07829 0.6762 0.0
H1317 H 0.72292 0.07103 0.65464 0.0
C1318 C 0.75549 0.10367 0.59921 0.0
C1319 C 0.77047 0.12241 0.5684 0.0
C1320 C 0.73016 0.10559 0.59246 0.0
C1321 C 0.75959 0.14138 0.51874 0.0
C1322 C 0.73447 0.14391 0.51502 0.0
C1323 C 0.69455 0.13118 0.57105 0.0
C1324 C 0.68018 0.11414 0.61795 0.0
C1325 C 0.7195 0.12678 0.55688 0.0
C1326 C 0.69067 0.09177 0.63992 0.0
C1327 C 0.7153 0.08767 0.62883 0.0
H1328 H 0.33896 0.0608 0.12871 0.0
H1329 H 0.39523 0.08202 0.31876 0.0
H1330 H 0.39959 0.04001 0.36857 0.0
H1331 H 0.39349 0.99703 0.33267 0.0
H1332 H 0.34374 0.97651 0.11687 0.0
H1333 H 0.33001 0.01825 0.10489 0.0
C1334 C 0.35202 0.05652 0.18239 0.0
C1335 C 0.36707 0.07491 0.21871 0.0
C1336 C 0.35549 0.03216 0.20578 0.0
C1337 C 0.38343 0.06861 0.28928 0.0
C1338 C 0.38603 0.04444 0.31705 0.0
C1339 C 0.37877 1.00152 0.28612 0.0
C1340 C 0.36945 0.98334 0.2264 0.0
C1341 C 0.37295 0.02599 0.27255 0.0
C1342 C 0.35086 0.98968 0.16506 0.0
C1343 C 0.34349 0.01377 0.15668 0.0
H1344 H 0.18939 0.09247 0.90746 0.0
H1345 H 0.17385 0.16529 0.98885 0.0
H1346 H 0.21496 0.16949 0.04835 0.0
H1347 H 0.2574 0.15543 0.04034 0.0
H1348 H 0.27319 0.0848 0.93665 0.0
H1349 H 0.23023 0.0763 0.92529 0.0
C1350 C 0.19476 0.10904 0.94126 0.0
C1351 C 0.17851 0.12865 0.94293 0.0
C1352 C 0.21883 0.11174 0.96954 0.0
C1353 C 0.18576 0.1499 0.98713 0.0
C1354 C 0.20949 0.15239 0.01956 0.0
C1355 C 0.25136 0.138 0.018 0.0
C1356 C 0.2686 0.12088 0.98879 0.0
C1357 C 0.22653 0.13392 0.00577 0.0
C1358 C 0.2605 0.09818 0.96085 0.0
C1359 C 0.23585 0.09351 0.95275 0.0
H1360 H 0.15642 0.93795 0.77108 0.0
H1361 H 0.107 0.94867 0.54337 0.0
H1362 H 0.11379 0.99174 0.54979 0.0
H1363 H 0.12947 0.0273 0.62947 0.0
H1364 H 0.17619 0.01782 0.86624 0.0
H1365 H 0.17322 0.97416 0.85135 0.0
C1366 C 0.14587 0.94981 0.72714 0.0
C1367 C 0.13033 0.93988 0.65959 0.0
C1368 C 0.1488 0.97511 0.73384 0.0
C1369 C 0.11809 0.95571 0.59922 0.0
C1370 C 0.12203 0.98043 0.60214 0.0
C1371 C 0.13957 0.01571 0.67605 0.0
C1372 C 0.15338 0.02596 0.74783 0.0
C1373 C 0.13693 0.99049 0.66991 0.0
C1374 C 0.1657 0.01045 0.80935 0.0
C1375 C 0.16371 0.98541 0.80183 0.0
H1376 H 0.24416 0.85689 0.51557 0.0
H1377 H 0.22947 0.92522 0.38854 0.0
H1378 H 0.27246 0.93392 0.38379 0.0
H1379 H 0.31373 0.91834 0.38351 0.0
H1380 H 0.32866 0.84784 0.49368 0.0
H1381 H 0.28648 0.84379 0.53911 0.0
C1382 C 0.25041 0.87392 0.48958 0.0
C1383 C 0.23356 0.89035 0.45234 0.0
C1384 C 0.27534 0.87812 0.48222 0.0
C1385 C 0.2419 0.91245 0.41904 0.0
C1386 C 0.26658 0.91722 0.41489 0.0
C1387 C 0.30795 0.90228 0.4197 0.0
C1388 C 0.32448 0.88325 0.43374 0.0
C1389 C 0.28344 0.89964 0.44142 0.0
C1390 C 0.31656 0.86278 0.48183 0.0
C1391 C 0.29226 0.86034 0.50666 0.0
H1392 H 0.23723 0.2589 0.57409 0.0
H1393 H 0.18944 0.27047 0.80669 0.0
H1394 H 0.22193 0.26141 0.91591 0.0
H1395 H 0.26413 0.25206 0.94362 0.0
H1396 H 0.31183 0.24051 0.71098 0.0
H1397 H 0.2793 0.24942 0.60168 0.0
C1398 C 0.2337 0.25843 0.64863 0.0
C1399 C 0.21108 0.26505 0.68302 0.0
C1400 C 0.25268 0.25474 0.71018 0.0
C1401 C 0.20673 0.26498 0.77946 0.0
C1402 C 0.22539 0.26041 0.84156 0.0
C1403 C 0.26758 0.25251 0.86903 0.0
C1404 C 0.2902 0.24605 0.83456 0.0
C1405 C 0.24857 0.25613 0.80749 0.0
C1406 C 0.29453 0.24596 0.73814 0.0
C1407 C 0.27585 0.25044 0.67605 0.0
H1408 H 0.51656 0.45341 0.9071 0.0
H1409 H 0.48215 0.42915 0.1593 0.0
H1410 H 0.51389 0.44725 0.25312 0.0
H1411 H 0.54435 0.47878 0.26205 0.0
H1412 H 0.57317 0.50902 0.00928 0.0
H1413 H 0.5511 0.47954 0.91572 0.0
C1414 C 0.51647 0.45127 0.98249 0.0
C1415 C 0.49686 0.44039 0.02696 0.0
C1416 C 0.53358 0.46337 0.03527 0.0
C1417 C 0.49693 0.43771 0.12424 0.0
C1418 C 0.51497 0.44823 0.1776 0.0
C1419 C 0.54618 0.47831 0.18654 0.0
C1420 C 0.55974 0.49586 0.14125 0.0
C1421 C 0.53228 0.46255 0.1339 0.0
C1422 C 0.56236 0.49561 0.04413 0.0
C1423 C 0.54979 0.47888 0.9912 0.0
H1424 H 0.23097 0.75094 0.41295 0.0
H1425 H 0.1863 0.76853 0.17684 0.0
H1426 H 0.21909 0.75873 0.07046 0.0
H1427 H 0.26176 0.74975 0.04728 0.0
H1428 H 0.30708 0.7358 0.28568 0.0
H1429 H 0.27293 0.74121 0.39036 0.0
C1430 C 0.22804 0.7514 0.3379 0.0
C1431 C 0.20655 0.76074 0.30209 0.0
C1432 C 0.24751 0.74793 0.2786 0.0
C1433 C 0.20285 0.76143 0.20526 0.0
C1434 C 0.22177 0.75641 0.1448 0.0
C1435 C 0.26427 0.7486 0.12228 0.0
C1436 C 0.28682 0.74271 0.15941 0.0
C1437 C 0.24449 0.75094 0.18121 0.0
C1438 C 0.28985 0.74073 0.25638 0.0
C1439 C 0.27029 0.74326 0.31574 0.0
H1440 H 0.04537 0.50198 0.43641 0.0
H1441 H 0.99075 0.54816 0.3184 0.0
H1442 H 0.9664 0.51314 0.28051 0.0
H1443 H 0.95694 0.47152 0.31889 0.0
H1444 H 0.00885 0.42854 0.46487 0.0
H1445 H 0.03931 0.45868 0.43986 0.0
C1446 C 0.02834 0.50448 0.40093 0.0
C1447 C 0.01961 0.52768 0.38229 0.0
C1448 C 0.01431 0.48447 0.38119 0.0
C1449 C 0.99767 0.53048 0.33491 0.0
C1450 C 0.98383 0.51048 0.31255 0.0
C1451 C 0.97526 0.46843 0.34194 0.0
C1452 C 0.98009 0.44933 0.40343 0.0
C1453 C 0.9914 0.48757 0.34052 0.0
C1454 C 1.0042 0.44391 0.42291 0.0
C1455 C 0.02148 0.46168 0.41189 0.0
H1456 H 0.75411 0.8067 0.26683 0.0
H1457 H 0.72015 0.75017 0.10806 0.0
H1458 H 0.75952 0.73284 0.07325 0.0
H1459 H 0.80194 0.72971 0.11536 0.0
H1460 H 0.83342 0.78184 0.29782 0.0
H1461 H 0.7979 0.80726 0.28317 0.0
C1462 C 0.75517 0.79078 0.22342 0.0
C1463 C 0.73409 0.77971 0.19026 0.0
C1464 C 0.77768 0.78077 0.20492 0.0
C1465 C 0.73604 0.75898 0.1347 0.0
C1466 C 0.75853 0.7492 0.11403 0.0
C1467 C 0.80134 0.74721 0.14848 0.0
C1468 C 0.81836 0.75249 0.21822 0.0
C1469 C 0.77934 0.75944 0.15193 0.0
C1470 C 0.81924 0.77624 0.25089 0.0
C1471 C 0.7985 0.79037 0.24566 0.0
H1472 H 0.75388 0.20968 0.74577 0.0
H1473 H 0.79352 0.2657 0.60591 0.0
H1474 H 0.75597 0.28625 0.56827 0.0
H1475 H 0.71364 0.29195 0.60401 0.0
H1476 H 0.67816 0.24104 0.78081 0.0
H1477 H 0.71049 0.21256 0.75891 0.0
C1478 C 0.75443 0.22616 0.70556 0.0
C1479 C 0.77652 0.23618 0.67902 0.0
C1480 C 0.73299 0.238 0.68566 0.0
C1481 C 0.77676 0.2577 0.62778 0.0
C1482 C 0.75531 0.26928 0.60511 0.0
C1483 C 0.71267 0.27415 0.63461 0.0
C1484 C 0.69489 0.26945 0.70178 0.0
C1485 C 0.73343 0.26002 0.63686 0.0
C1486 C 0.69223 0.24572 0.73268 0.0
C1487 C 0.71139 0.22976 0.72371 0.0
H1488 H 0.02091 0.94699 0.42265 0.0
H1489 H 0.98686 0.92468 0.67833 0.0
H1490 H 0.02051 0.94023 0.76839 0.0
H1491 H 0.05223 0.97059 0.77502 0.0
H1492 H 0.07438 0.00501 0.52006 0.0
H1493 H 0.05367 0.97453 0.42801 0.0
C1494 C 0.02117 0.9447 0.49797 0.0
C1495 C 1.00113 0.9352 0.54422 0.0
C1496 C 0.03863 0.95668 0.549 0.0
C1497 C 1.00181 0.93229 0.64143 0.0
C1498 C 0.02098 0.94145 0.69283 0.0
C1499 C 0.05297 0.97078 0.69922 0.0
C1500 C 0.06516 0.98924 0.65334 0.0
C1501 C 0.03835 0.9554 0.64768 0.0
C1502 C 0.06549 0.99038 0.55572 0.0
C1503 C 0.05352 0.97315 0.50355 0.0
H1504 H 0.46914 0.98627 0.04276 0.0
H1505 H 0.52544 0.9401 0.14902 0.0
H1506 H 0.54865 0.97539 0.19443 0.0
H1507 H 0.55416 0.01882 0.18919 0.0
H1508 H 0.50023 0.06352 0.06296 0.0
H1509 H 0.4726 0.02974 0.05795 0.0
C1510 C 0.48638 0.98375 0.07657 0.0
C1511 C 0.49532 0.9605 0.09406 0.0
C1512 C 0.49925 1.0039 0.10448 0.0
C1513 C 0.51806 0.95777 0.13549 0.0
C1514 C 0.53115 0.97789 0.16287 0.0
C1515 C 0.53602 0.02127 0.16316 0.0
C1516 C 0.53019 0.04236 0.11399 0.0
C1517 C 0.52191 1.001 0.14722 0.0
C1518 C 0.50592 0.04658 0.09296 0.0
C1519 C 0.49042 0.02706 0.08653 0.0
loop_
_geom_bond_atom_site_label_1
_geom_bond_atom_site_label_2
_geom_bond_distance
_geom_bond_site_symmetry_2
_ccdc_geom_bond_type
C0 O12 1.241 . S
C0 O13 1.280 . S
C1 O14 1.277 . S
C1 O15 1.245 . S
C2 O26 1.247 . S
C2 O28 1.289 . S
Mg3 O4 1.926 . S
Mg3 O13 1.984 . S
Mg3 O15 1.988 . S
Mg3 O16 2.061 . S
O4 Mg3 1.926 . S
O4 Mg5 1.986 . S
O4 Mg6 1.917 . S
Mg5 O4 1.986 . S
Mg5 O12 2.042 . S
Mg5 O14 2.041 . S
Mg5 O20 2.038 . S
Mg5 O28 2.238 . S
Mg6 O4 1.917 . S
Mg6 O7 1.917 . S
Mg6 O17 2.106 . S
Mg6 O19 2.079 . S
Mg6 O28 2.106 . S
Mg6 O29 2.079 . S
O7 Mg6 1.917 . S
O7 Mg8 1.926 . S
O7 Mg9 1.986 . S
Mg8 O7 1.926 . S
Mg8 O22 1.984 . S
Mg8 O25 1.988 . S
Mg8 O26 2.061 . S
Mg9 O7 1.986 . S
Mg9 O17 2.238 . S
Mg9 O21 2.042 . S
Mg9 O23 2.041 . S
Mg9 O30 2.038 . S
C10 O16 1.247 . S
C10 O17 1.289 . S
C11 O29 1.245 . S
C11 O30 1.274 . S
O12 C0 1.241 . S
O12 Mg5 2.042 . S
O13 C0 1.280 . S
O13 Mg3 1.984 . S
O14 C1 1.277 . S
O14 Mg5 2.041 . S
O15 C1 1.245 . S
O15 Mg3 1.988 . S
O16 Mg3 2.061 . S
O16 C10 1.247 . S
O17 Mg6 2.106 . S
O17 Mg9 2.238 . S
O17 C10 1.289 . S
C18 O19 1.245 . S
C18 O20 1.274 . S
O19 Mg6 2.079 . S
O19 C18 1.245 . S
O20 Mg5 2.038 . S
O20 C18 1.274 . S
O21 Mg9 2.042 . S
O21 C24 1.241 . S
O22 Mg8 1.984 . S
O22 C24 1.280 . S
O23 Mg9 2.041 . S
O23 C27 1.277 . S
C24 O21 1.241 . S
C24 O22 1.280 . S
O25 Mg8 1.988 . S
O25 C27 1.245 . S
O26 C2 1.247 . S
O26 Mg8 2.061 . S
C27 O23 1.277 . S
C27 O25 1.245 . S
O28 C2 1.289 . S
O28 Mg5 2.238 . S
O28 Mg6 2.106 . S
O29 Mg6 2.079 . S
O29 C11 1.245 . S
O30 Mg9 2.038 . S
O30 C11 1.274 . S
C31 O43 1.241 . S
C31 O44 1.280 . S
C32 O45 1.277 . S
C32 O46 1.245 . S
C33 O57 1.247 . S
C33 O59 1.289 . S
Mg34 O35 1.926 . S
Mg34 O44 1.984 . S
Mg34 O46 1.988 . S
Mg34 O47 2.061 . S
O35 Mg34 1.926 . S
O35 Mg36 1.986 . S
O35 Mg37 1.917 . S
Mg36 O35 1.986 . S
Mg36 O43 2.042 . S
Mg36 O45 2.041 . S
Mg36 O51 2.038 . S
Mg36 O59 2.238 . S
Mg37 O35 1.917 . S
Mg37 O38 1.917 . S
Mg37 O48 2.106 . S
Mg37 O50 2.079 . S
Mg37 O59 2.106 . S
Mg37 O60 2.079 . S
O38 Mg37 1.917 . S
O38 Mg39 1.926 . S
O38 Mg40 1.986 . S
Mg39 O38 1.926 . S
Mg39 O53 1.984 . S
Mg39 O56 1.988 . S
Mg39 O57 2.061 . S
Mg40 O38 1.986 . S
Mg40 O48 2.238 . S
Mg40 O52 2.042 . S
Mg40 O54 2.041 . S
Mg40 O61 2.038 . S
C41 O47 1.247 . S
C41 O48 1.289 . S
C42 O60 1.245 . S
C42 O61 1.274 . S
O43 C31 1.241 . S
O43 Mg36 2.042 . S
O44 C31 1.280 . S
O44 Mg34 1.984 . S
O45 C32 1.277 . S
O45 Mg36 2.041 . S
O46 C32 1.245 . S
O46 Mg34 1.988 . S
O47 Mg34 2.061 . S
O47 C41 1.247 . S
O48 Mg37 2.106 . S
O48 Mg40 2.238 . S
O48 C41 1.289 . S
C49 O50 1.245 . S
C49 O51 1.274 . S
O50 Mg37 2.079 . S
O50 C49 1.245 . S
O51 Mg36 2.038 . S
O51 C49 1.274 . S
O52 Mg40 2.042 . S
O52 C55 1.241 . S
O53 Mg39 1.984 . S
O53 C55 1.280 . S
O54 Mg40 2.041 . S
O54 C58 1.277 . S
C55 O52 1.241 . S
C55 O53 1.280 . S
O56 Mg39 1.988 . S
O56 C58 1.245 . S
O57 C33 1.247 . S
O57 Mg39 2.061 . S
C58 O54 1.277 . S
C58 O56 1.245 . S
O59 C33 1.289 . S
O59 Mg36 2.238 . S
O59 Mg37 2.106 . S
O60 Mg37 2.079 . S
O60 C42 1.245 . S
O61 Mg40 2.038 . S
O61 C42 1.274 . S
C62 O74 1.241 . S
C62 O75 1.280 . S
C63 O76 1.277 . S
C63 O77 1.245 . S
C64 O88 1.247 1_554 S
C64 O90 1.289 . S
Mg65 O66 1.926 . S
Mg65 O75 1.984 1_554 S
Mg65 O77 1.988 . S
Mg65 O78 2.061 . S
O66 Mg65 1.926 . S
O66 Mg67 1.986 1_554 S
O66 Mg68 1.917 . S
Mg67 O66 1.986 1_556 S
Mg67 O74 2.042 . S
Mg67 O76 2.041 1_556 S
Mg67 O82 2.038 . S
Mg67 O90 2.238 1_556 S
Mg68 O66 1.917 . S
Mg68 O69 1.917 . S
Mg68 O79 2.106 . S
Mg68 O81 2.079 1_554 S
Mg68 O90 2.106 . S
Mg68 O91 2.079 . S
O69 Mg68 1.917 . S
O69 Mg70 1.926 1_554 S
O69 Mg71 1.986 . S
Mg70 O69 1.926 1_556 S
Mg70 O84 1.984 1_556 S
Mg70 O87 1.988 . S
Mg70 O88 2.061 . S
Mg71 O69 1.986 . S
Mg71 O79 2.238 . S
Mg71 O83 2.042 . S
Mg71 O85 2.041 1_554 S
Mg71 O92 2.038 . S
C72 O78 1.247 . S
C72 O79 1.289 . S
C73 O91 1.245 . S
C73 O92 1.274 . S
O74 C62 1.241 . S
O74 Mg67 2.042 . S
O75 C62 1.280 . S
O75 Mg65 1.984 1_556 S
O76 C63 1.277 . S
O76 Mg67 2.041 1_554 S
O77 C63 1.245 . S
O77 Mg65 1.988 . S
O78 Mg65 2.061 . S
O78 C72 1.247 . S
O79 Mg68 2.106 . S
O79 Mg71 2.238 . S
O79 C72 1.289 . S
C80 O81 1.245 . S
C80 O82 1.274 . S
O81 Mg68 2.079 1_556 S
O81 C80 1.245 . S
O82 Mg67 2.038 . S
O82 C80 1.274 . S
O83 Mg71 2.042 . S
O83 C86 1.241 . S
O84 Mg70 1.984 1_554 S
O84 C86 1.280 . S
O85 Mg71 2.041 1_556 S
O85 C89 1.277 . S
C86 O83 1.241 . S
C86 O84 1.280 . S
O87 Mg70 1.988 . S
O87 C89 1.245 . S
O88 C64 1.247 1_556 S
O88 Mg70 2.061 . S
C89 O85 1.277 . S
C89 O87 1.245 . S
O90 C64 1.289 . S
O90 Mg67 2.238 1_554 S
O90 Mg68 2.106 . S
O91 Mg68 2.079 . S
O91 C73 1.245 . S
O92 Mg71 2.038 . S
O92 C73 1.274 . S
C93 O105 1.241 . S
C93 O106 1.280 . S
C94 O107 1.277 . S
C94 O108 1.245 . S
C95 O119 1.247 . S
C95 O121 1.289 . S
Mg96 O97 1.926 . S
Mg96 O106 1.984 . S
Mg96 O108 1.988 . S
Mg96 O109 2.061 . S
O97 Mg96 1.926 . S
O97 Mg98 1.986 . S
O97 Mg99 1.917 . S
Mg98 O97 1.986 . S
Mg98 O105 2.042 . S
Mg98 O107 2.041 . S
Mg98 O113 2.038 . S
Mg98 O121 2.238 . S
Mg99 O97 1.917 . S
Mg99 O100 1.917 . S
Mg99 O110 2.106 . S
Mg99 O112 2.079 . S
Mg99 O121 2.106 . S
Mg99 O122 2.079 . S
O100 Mg99 1.917 . S
O100 Mg101 1.926 . S
O100 Mg102 1.986 . S
Mg101 O100 1.926 . S
Mg101 O115 1.984 . S
Mg101 O118 1.988 . S
Mg101 O119 2.061 . S
Mg102 O100 1.986 . S
Mg102 O110 2.238 . S
Mg102 O114 2.042 . S
Mg102 O116 2.041 . S
Mg102 O123 2.038 . S
C103 O109 1.247 . S
C103 O110 1.289 . S
C104 O122 1.245 . S
C104 O123 1.274 . S
O105 C93 1.241 . S
O105 Mg98 2.042 . S
O106 C93 1.280 . S
O106 Mg96 1.984 . S
O107 C94 1.277 . S
O107 Mg98 2.041 . S
O108 C94 1.245 . S
O108 Mg96 1.988 . S
O109 Mg96 2.061 . S
O109 C103 1.247 . S
O110 Mg99 2.106 . S
O110 Mg102 2.238 . S
O110 C103 1.289 . S
C111 O112 1.245 . S
C111 O113 1.274 . S
O112 Mg99 2.079 . S
O112 C111 1.245 . S
O113 Mg98 2.038 . S
O113 C111 1.274 . S
O114 Mg102 2.042 . S
O114 C117 1.241 . S
O115 Mg101 1.984 . S
O115 C117 1.280 . S
O116 Mg102 2.041 . S
O116 C120 1.277 . S
C117 O114 1.241 . S
C117 O115 1.280 . S
O118 Mg101 1.988 . S
O118 C120 1.245 . S
O119 C95 1.247 . S
O119 Mg101 2.061 . S
C120 O116 1.277 . S
C120 O118 1.245 . S
O121 C95 1.289 . S
O121 Mg98 2.238 . S
O121 Mg99 2.106 . S
O122 Mg99 2.079 . S
O122 C104 1.245 . S
O123 Mg102 2.038 . S
O123 C104 1.274 . S
C124 O136 1.241 . S
C124 O137 1.280 . S
C125 O138 1.277 . S
C125 O139 1.245 . S
C126 O150 1.247 . S
C126 O152 1.289 . S
Mg127 O128 1.926 . S
Mg127 O137 1.984 . S
Mg127 O139 1.988 . S
Mg127 O140 2.061 . S
O128 Mg127 1.926 . S
O128 Mg129 1.986 . S
O128 Mg130 1.917 . S
Mg129 O128 1.986 . S
Mg129 O136 2.042 . S
Mg129 O138 2.041 . S
Mg129 O144 2.038 . S
Mg129 O152 2.238 . S
Mg130 O128 1.917 . S
Mg130 O131 1.917 . S
Mg130 O141 2.106 . S
Mg130 O143 2.079 . S
Mg130 O152 2.106 . S
Mg130 O153 2.079 . S
O131 Mg130 1.917 . S
O131 Mg132 1.926 . S
O131 Mg133 1.986 . S
Mg132 O131 1.926 . S
Mg132 O146 1.984 . S
Mg132 O149 1.988 . S
Mg132 O150 2.061 . S
Mg133 O131 1.986 . S
Mg133 O141 2.238 . S
Mg133 O145 2.042 . S
Mg133 O147 2.041 . S
Mg133 O154 2.038 . S
C134 O140 1.247 . S
C134 O141 1.289 . S
C135 O153 1.245 . S
C135 O154 1.274 . S
O136 C124 1.241 . S
O136 Mg129 2.042 . S
O137 C124 1.280 . S
O137 Mg127 1.984 . S
O138 C125 1.277 . S
O138 Mg129 2.041 . S
O139 C125 1.245 . S
O139 Mg127 1.988 . S
O140 Mg127 2.061 . S
O140 C134 1.247 . S
O141 Mg130 2.106 . S
O141 Mg133 2.238 . S
O141 C134 1.289 . S
C142 O143 1.245 . S
C142 O144 1.274 . S
O143 Mg130 2.079 . S
O143 C142 1.245 . S
O144 Mg129 2.038 . S
O144 C142 1.274 . S
O145 Mg133 2.042 . S
O145 C148 1.241 . S
O146 Mg132 1.984 . S
O146 C148 1.280 . S
O147 Mg133 2.041 . S
O147 C151 1.277 . S
C148 O145 1.241 . S
C148 O146 1.280 . S
O149 Mg132 1.988 . S
O149 C151 1.245 . S
O150 C126 1.247 . S
O150 Mg132 2.061 . S
C151 O147 1.277 . S
C151 O149 1.245 . S
O152 C126 1.289 . S
O152 Mg129 2.238 . S
O152 Mg130 2.106 . S
O153 Mg130 2.079 . S
O153 C135 1.245 . S
O154 Mg133 2.038 . S
O154 C135 1.274 . S
C155 O167 1.241 . S
C155 O168 1.280 . S
C156 O169 1.277 . S
C156 O170 1.245 . S
C157 O181 1.247 . S
C157 O183 1.289 . S
Mg158 O159 1.926 . S
Mg158 O168 1.984 . S
Mg158 O170 1.988 . S
Mg158 O171 2.061 . S
O159 Mg158 1.926 . S
O159 Mg160 1.986 . S
O159 Mg161 1.917 . S
Mg160 O159 1.986 . S
Mg160 O167 2.042 . S
Mg160 O169 2.041 . S
Mg160 O175 2.038 . S
Mg160 O183 2.238 . S
Mg161 O159 1.917 . S
Mg161 O162 1.917 . S
Mg161 O172 2.106 . S
Mg161 O174 2.079 . S
Mg161 O183 2.106 . S
Mg161 O184 2.079 . S
O162 Mg161 1.917 . S
O162 Mg163 1.926 . S
O162 Mg164 1.986 . S
Mg163 O162 1.926 . S
Mg163 O177 1.984 . S
Mg163 O180 1.988 . S
Mg163 O181 2.061 . S
Mg164 O162 1.986 . S
Mg164 O172 2.238 . S
Mg164 O176 2.042 . S
Mg164 O178 2.041 . S
Mg164 O185 2.038 . S
C165 O171 1.247 . S
C165 O172 1.289 . S
C166 O184 1.245 . S
C166 O185 1.274 . S
O167 C155 1.241 . S
O167 Mg160 2.042 . S
O168 C155 1.280 . S
O168 Mg158 1.984 . S
O169 C156 1.277 . S
O169 Mg160 2.041 . S
O170 C156 1.245 . S
O170 Mg158 1.988 . S
O171 Mg158 2.061 . S
O171 C165 1.247 . S
O172 Mg161 2.106 . S
O172 Mg164 2.238 . S
O172 C165 1.289 . S
C173 O174 1.245 . S
C173 O175 1.274 . S
O174 Mg161 2.079 . S
O174 C173 1.245 . S
O175 Mg160 2.038 . S
O175 C173 1.274 . S
O176 Mg164 2.042 . S
O176 C179 1.241 . S
O177 Mg163 1.984 . S
O177 C179 1.280 . S
O178 Mg164 2.041 . S
O178 C182 1.277 . S
C179 O176 1.241 . S
C179 O177 1.280 . S
O180 Mg163 1.988 . S
O180 C182 1.245 . S
O181 C157 1.247 . S
O181 Mg163 2.061 . S
C182 O178 1.277 . S
C182 O180 1.245 . S
O183 C157 1.289 . S
O183 Mg160 2.238 . S
O183 Mg161 2.106 . S
O184 Mg161 2.079 . S
O184 C166 1.245 . S
O185 Mg164 2.038 . S
O185 C166 1.274 . S
C186 O198 1.241 . S
C186 O199 1.280 . S
C187 O200 1.277 . S
C187 O201 1.245 . S
C188 O212 1.247 . S
C188 O214 1.289 . S
Mg189 O190 1.926 1_554 S
Mg189 O199 1.984 1_554 S
Mg189 O201 1.988 . S
Mg189 O202 2.061 . S
O190 Mg189 1.926 1_556 S
O190 Mg191 1.986 . S
O190 Mg192 1.917 1_556 S
Mg191 O190 1.986 . S
Mg191 O198 2.042 . S
Mg191 O200 2.041 1_556 S
Mg191 O206 2.038 . S
Mg191 O214 2.238 . S
Mg192 O190 1.917 1_554 S
Mg192 O193 1.917 . S
Mg192 O203 2.106 . S
Mg192 O205 2.079 1_554 S
Mg192 O214 2.106 1_554 S
Mg192 O215 2.079 . S
O193 Mg192 1.917 . S
O193 Mg194 1.926 1_554 S
O193 Mg195 1.986 . S
Mg194 O193 1.926 1_556 S
Mg194 O208 1.984 1_556 S
Mg194 O211 1.988 . S
Mg194 O212 2.061 . S
Mg195 O193 1.986 . S
Mg195 O203 2.238 . S
Mg195 O207 2.042 . S
Mg195 O209 2.041 1_554 S
Mg195 O216 2.038 . S
C196 O202 1.247 . S
C196 O203 1.289 . S
C197 O215 1.245 . S
C197 O216 1.274 . S
O198 C186 1.241 . S
O198 Mg191 2.042 . S
O199 C186 1.280 . S
O199 Mg189 1.984 1_556 S
O200 C187 1.277 . S
O200 Mg191 2.041 1_554 S
O201 C187 1.245 . S
O201 Mg189 1.988 . S
O202 Mg189 2.061 . S
O202 C196 1.247 . S
O203 Mg192 2.106 . S
O203 Mg195 2.238 . S
O203 C196 1.289 . S
C204 O205 1.245 . S
C204 O206 1.274 . S
O205 Mg192 2.079 1_556 S
O205 C204 1.245 . S
O206 Mg191 2.038 . S
O206 C204 1.274 . S
O207 Mg195 2.042 . S
O207 C210 1.241 . S
O208 Mg194 1.984 1_554 S
O208 C210 1.280 . S
O209 Mg195 2.041 1_556 S
O209 C213 1.277 . S
C210 O207 1.241 . S
C210 O208 1.280 . S
O211 Mg194 1.988 . S
O211 C213 1.245 . S
O212 C188 1.247 . S
O212 Mg194 2.061 . S
C213 O209 1.277 . S
C213 O211 1.245 . S
O214 C188 1.289 . S
O214 Mg191 2.238 . S
O214 Mg192 2.106 1_556 S
O215 Mg192 2.079 . S
O215 C197 1.245 . S
O216 Mg195 2.038 . S
O216 C197 1.274 . S
C217 O229 1.241 . S
C217 O230 1.280 . S
C218 O231 1.277 . S
C218 O232 1.245 . S
C219 O243 1.247 . S
C219 O245 1.289 . S
Mg220 O221 1.926 . S
Mg220 O230 1.984 . S
Mg220 O232 1.988 . S
Mg220 O233 2.061 . S
O221 Mg220 1.926 . S
O221 Mg222 1.986 . S
O221 Mg223 1.917 . S
Mg222 O221 1.986 . S
Mg222 O229 2.042 . S
Mg222 O231 2.041 . S
Mg222 O237 2.038 . S
Mg222 O245 2.238 . S
Mg223 O221 1.917 . S
Mg223 O224 1.917 . S
Mg223 O234 2.106 . S
Mg223 O236 2.079 . S
Mg223 O245 2.106 . S
Mg223 O246 2.079 . S
O224 Mg223 1.917 . S
O224 Mg225 1.926 . S
O224 Mg226 1.986 . S
Mg225 O224 1.926 . S
Mg225 O239 1.984 . S
Mg225 O242 1.988 . S
Mg225 O243 2.061 . S
Mg226 O224 1.986 . S
Mg226 O234 2.238 . S
Mg226 O238 2.042 . S
Mg226 O240 2.041 . S
Mg226 O247 2.038 . S
C227 O233 1.247 . S
C227 O234 1.289 . S
C228 O246 1.245 . S
C228 O247 1.274 . S
O229 C217 1.241 . S
O229 Mg222 2.042 . S
O230 C217 1.280 . S
O230 Mg220 1.984 . S
O231 C218 1.277 . S
O231 Mg222 2.041 . S
O232 C218 1.245 . S
O232 Mg220 1.988 . S
O233 Mg220 2.061 . S
O233 C227 1.247 . S
O234 Mg223 2.106 . S
O234 Mg226 2.238 . S
O234 C227 1.289 . S
C235 O236 1.245 . S
C235 O237 1.274 . S
O236 Mg223 2.079 . S
O236 C235 1.245 . S
O237 Mg222 2.038 . S
O237 C235 1.274 . S
O238 Mg226 2.042 . S
O238 C241 1.241 . S
O239 Mg225 1.984 . S
O239 C241 1.280 . S
O240 Mg226 2.041 . S
O240 C244 1.277 . S
C241 O238 1.241 . S
C241 O239 1.280 . S
O242 Mg225 1.988 . S
O242 C244 1.245 . S
O243 C219 1.247 . S
O243 Mg225 2.061 . S
C244 O240 1.277 . S
C244 O242 1.245 . S
O245 C219 1.289 . S
O245 Mg222 2.238 . S
O245 Mg223 2.106 . S
O246 Mg223 2.079 . S
O246 C228 1.245 . S
O247 Mg226 2.038 . S
O247 C228 1.274 . S
C248 O260 1.241 . S
C248 O261 1.280 . S
C249 O262 1.277 . S
C249 O263 1.245 . S
C250 O274 1.247 1_554 S
C250 O276 1.289 . S
Mg251 O252 1.926 . S
Mg251 O261 1.984 1_554 S
Mg251 O263 1.988 . S
Mg251 O264 2.061 . S
O252 Mg251 1.926 . S
O252 Mg253 1.986 1_554 S
O252 Mg254 1.917 . S
Mg253 O252 1.986 1_556 S
Mg253 O260 2.042 . S
Mg253 O262 2.041 1_556 S
Mg253 O268 2.038 . S
Mg253 O276 2.238 1_556 S
Mg254 O252 1.917 . S
Mg254 O255 1.917 . S
Mg254 O265 2.106 . S
Mg254 O267 2.079 1_554 S
Mg254 O276 2.106 . S
Mg254 O277 2.079 . S
O255 Mg254 1.917 . S
O255 Mg256 1.926 1_554 S
O255 Mg257 1.986 . S
Mg256 O255 1.926 1_556 S
Mg256 O270 1.984 1_556 S
Mg256 O273 1.988 . S
Mg256 O274 2.061 . S
Mg257 O255 1.986 . S
Mg257 O265 2.238 . S
Mg257 O269 2.042 . S
Mg257 O271 2.041 1_554 S
Mg257 O278 2.038 . S
C258 O264 1.247 . S
C258 O265 1.289 . S
C259 O277 1.245 . S
C259 O278 1.274 . S
O260 C248 1.241 . S
O260 Mg253 2.042 . S
O261 C248 1.280 . S
O261 Mg251 1.984 1_556 S
O262 C249 1.277 . S
O262 Mg253 2.041 1_554 S
O263 C249 1.245 . S
O263 Mg251 1.988 . S
O264 Mg251 2.061 . S
O264 C258 1.247 . S
O265 Mg254 2.106 . S
O265 Mg257 2.238 . S
O265 C258 1.289 . S
C266 O267 1.245 . S
C266 O268 1.274 . S
O267 Mg254 2.079 1_556 S
O267 C266 1.245 . S
O268 Mg253 2.038 . S
O268 C266 1.274 . S
O269 Mg257 2.042 . S
O269 C272 1.241 . S
O270 Mg256 1.984 1_554 S
O270 C272 1.280 . S
O271 Mg257 2.041 1_556 S
O271 C275 1.277 . S
C272 O269 1.241 . S
C272 O270 1.280 . S
O273 Mg256 1.988 . S
O273 C275 1.245 . S
O274 C250 1.247 1_556 S
O274 Mg256 2.061 . S
C275 O271 1.277 . S
C275 O273 1.245 . S
O276 C250 1.289 . S
O276 Mg253 2.238 1_554 S
O276 Mg254 2.106 . S
O277 Mg254 2.079 . S
O277 C259 1.245 . S
O278 Mg257 2.038 . S
O278 C259 1.274 . S
C279 O291 1.241 . S
C279 O292 1.280 1_565 S
C280 O293 1.277 . S
C280 O294 1.245 . S
C281 O305 1.247 . S
C281 O307 1.289 . S
Mg282 O283 1.926 . S
Mg282 O292 1.984 1_565 S
Mg282 O294 1.988 . S
Mg282 O295 2.061 . S
O283 Mg282 1.926 . S
O283 Mg284 1.986 . S
O283 Mg285 1.917 . S
Mg284 O283 1.986 . S
Mg284 O291 2.042 . S
Mg284 O293 2.041 . S
Mg284 O299 2.038 . S
Mg284 O307 2.238 . S
Mg285 O283 1.917 . S
Mg285 O286 1.917 . S
Mg285 O296 2.106 . S
Mg285 O298 2.079 . S
Mg285 O307 2.106 . S
Mg285 O308 2.079 . S
O286 Mg285 1.917 . S
O286 Mg287 1.926 . S
O286 Mg288 1.986 . S
Mg287 O286 1.926 . S
Mg287 O301 1.984 . S
Mg287 O304 1.988 . S
Mg287 O305 2.061 . S
Mg288 O286 1.986 . S
Mg288 O296 2.238 . S
Mg288 O300 2.042 . S
Mg288 O302 2.041 . S
Mg288 O309 2.038 . S
C289 O295 1.247 . S
C289 O296 1.289 . S
C290 O308 1.245 . S
C290 O309 1.274 . S
O291 C279 1.241 . S
O291 Mg284 2.042 . S
O292 C279 1.280 1_545 S
O292 Mg282 1.984 1_545 S
O293 C280 1.277 . S
O293 Mg284 2.041 . S
O294 C280 1.245 . S
O294 Mg282 1.988 . S
O295 Mg282 2.061 . S
O295 C289 1.247 . S
O296 Mg285 2.106 . S
O296 Mg288 2.238 . S
O296 C289 1.289 . S
C297 O298 1.245 . S
C297 O299 1.274 . S
O298 Mg285 2.079 . S
O298 C297 1.245 . S
O299 Mg284 2.038 . S
O299 C297 1.274 . S
O300 Mg288 2.042 . S
O300 C303 1.241 . S
O301 Mg287 1.984 . S
O301 C303 1.280 . S
O302 Mg288 2.041 . S
O302 C306 1.277 . S
C303 O300 1.241 . S
C303 O301 1.280 . S
O304 Mg287 1.988 . S
O304 C306 1.245 . S
O305 C281 1.247 . S
O305 Mg287 2.061 . S
C306 O302 1.277 . S
C306 O304 1.245 . S
O307 C281 1.289 . S
O307 Mg284 2.238 . S
O307 Mg285 2.106 . S
O308 Mg285 2.079 . S
O308 C290 1.245 . S
O309 Mg288 2.038 . S
O309 C290 1.274 . S
C310 O322 1.241 . S
C310 O323 1.280 . S
C311 O324 1.277 . S
C311 O325 1.245 . S
C312 O336 1.247 . S
C312 O338 1.289 . S
Mg313 O314 1.926 . S
Mg313 O323 1.984 . S
Mg313 O325 1.988 . S
Mg313 O326 2.061 . S
O314 Mg313 1.926 . S
O314 Mg315 1.986 . S
O314 Mg316 1.917 . S
Mg315 O314 1.986 . S
Mg315 O322 2.042 . S
Mg315 O324 2.041 . S
Mg315 O330 2.038 . S
Mg315 O338 2.238 . S
Mg316 O314 1.917 . S
Mg316 O317 1.917 . S
Mg316 O327 2.106 . S
Mg316 O329 2.079 . S
Mg316 O338 2.106 . S
Mg316 O339 2.079 . S
O317 Mg316 1.917 . S
O317 Mg318 1.926 . S
O317 Mg319 1.986 . S
Mg318 O317 1.926 . S
Mg318 O332 1.984 . S
Mg318 O335 1.988 . S
Mg318 O336 2.061 . S
Mg319 O317 1.986 . S
Mg319 O327 2.238 . S
Mg319 O331 2.042 . S
Mg319 O333 2.041 . S
Mg319 O340 2.038 . S
C320 O326 1.247 . S
C320 O327 1.289 . S
C321 O339 1.245 . S
C321 O340 1.274 . S
O322 C310 1.241 . S
O322 Mg315 2.042 . S
O323 C310 1.280 . S
O323 Mg313 1.984 . S
O324 C311 1.277 . S
O324 Mg315 2.041 . S
O325 C311 1.245 . S
O325 Mg313 1.988 . S
O326 Mg313 2.061 . S
O326 C320 1.247 . S
O327 Mg316 2.106 . S
O327 Mg319 2.238 . S
O327 C320 1.289 . S
C328 O329 1.245 . S
C328 O330 1.274 . S
O329 Mg316 2.079 . S
O329 C328 1.245 . S
O330 Mg315 2.038 . S
O330 C328 1.274 . S
O331 Mg319 2.042 . S
O331 C334 1.241 . S
O332 Mg318 1.984 . S
O332 C334 1.280 . S
O333 Mg319 2.041 . S
O333 C337 1.277 . S
C334 O331 1.241 . S
C334 O332 1.280 . S
O335 Mg318 1.988 . S
O335 C337 1.245 . S
O336 C312 1.247 . S
O336 Mg318 2.061 . S
C337 O333 1.277 . S
C337 O335 1.245 . S
O338 C312 1.289 . S
O338 Mg315 2.238 . S
O338 Mg316 2.106 . S
O339 Mg316 2.079 . S
O339 C321 1.245 . S
O340 Mg319 2.038 . S
O340 C321 1.274 . S
C341 O353 1.241 . S
C341 O354 1.280 1_545 S
C342 O355 1.277 . S
C342 O356 1.245 . S
C343 O367 1.247 . S
C343 O369 1.289 . S
Mg344 O345 1.926 . S
Mg344 O354 1.984 1_545 S
Mg344 O356 1.988 . S
Mg344 O357 2.061 . S
O345 Mg344 1.926 . S
O345 Mg346 1.986 . S
O345 Mg347 1.917 . S
Mg346 O345 1.986 . S
Mg346 O353 2.042 . S
Mg346 O355 2.041 . S
Mg346 O361 2.038 . S
Mg346 O369 2.238 . S
Mg347 O345 1.917 . S
Mg347 O348 1.917 . S
Mg347 O358 2.106 . S
Mg347 O360 2.079 . S
Mg347 O369 2.106 . S
Mg347 O370 2.079 . S
O348 Mg347 1.917 . S
O348 Mg349 1.926 . S
O348 Mg350 1.986 . S
Mg349 O348 1.926 . S
Mg349 O363 1.984 . S
Mg349 O366 1.988 . S
Mg349 O367 2.061 . S
Mg350 O348 1.986 . S
Mg350 O358 2.238 . S
Mg350 O362 2.042 . S
Mg350 O364 2.041 . S
Mg350 O371 2.038 . S
C351 O357 1.247 . S
C351 O358 1.289 . S
C352 O370 1.245 . S
C352 O371 1.274 . S
O353 C341 1.241 . S
O353 Mg346 2.042 . S
O354 C341 1.280 1_565 S
O354 Mg344 1.984 1_565 S
O355 C342 1.277 . S
O355 Mg346 2.041 . S
O356 C342 1.245 . S
O356 Mg344 1.988 . S
O357 Mg344 2.061 . S
O357 C351 1.247 . S
O358 Mg347 2.106 . S
O358 Mg350 2.238 . S
O358 C351 1.289 . S
C359 O360 1.245 . S
C359 O361 1.274 . S
O360 Mg347 2.079 . S
O360 C359 1.245 . S
O361 Mg346 2.038 . S
O361 C359 1.274 . S
O362 Mg350 2.042 . S
O362 C365 1.241 . S
O363 Mg349 1.984 . S
O363 C365 1.280 . S
O364 Mg350 2.041 . S
O364 C368 1.277 . S
C365 O362 1.241 . S
C365 O363 1.280 . S
O366 Mg349 1.988 . S
O366 C368 1.245 . S
O367 C343 1.247 . S
O367 Mg349 2.061 . S
C368 O364 1.277 . S
C368 O366 1.245 . S
O369 C343 1.289 . S
O369 Mg346 2.238 . S
O369 Mg347 2.106 . S
O370 Mg347 2.079 . S
O370 C352 1.245 . S
O371 Mg350 2.038 . S
O371 C352 1.274 . S
C372 O384 1.241 . S
C372 O385 1.280 . S
C373 O386 1.277 . S
C373 O387 1.245 . S
C374 O398 1.247 . S
C374 O400 1.289 . S
Mg375 O376 1.926 1_554 S
Mg375 O385 1.984 1_554 S
Mg375 O387 1.988 . S
Mg375 O388 2.061 . S
O376 Mg375 1.926 1_556 S
O376 Mg377 1.986 . S
O376 Mg378 1.917 1_556 S
Mg377 O376 1.986 . S
Mg377 O384 2.042 . S
Mg377 O386 2.041 1_556 S
Mg377 O392 2.038 . S
Mg377 O400 2.238 . S
Mg378 O376 1.917 1_554 S
Mg378 O379 1.917 . S
Mg378 O389 2.106 . S
Mg378 O391 2.079 1_554 S
Mg378 O400 2.106 1_554 S
Mg378 O401 2.079 . S
O379 Mg378 1.917 . S
O379 Mg380 1.926 1_554 S
O379 Mg381 1.986 . S
Mg380 O379 1.926 1_556 S
Mg380 O394 1.984 1_556 S
Mg380 O397 1.988 . S
Mg380 O398 2.061 . S
Mg381 O379 1.986 . S
Mg381 O389 2.238 . S
Mg381 O393 2.042 . S
Mg381 O395 2.041 1_554 S
Mg381 O402 2.038 . S
C382 O388 1.247 . S
C382 O389 1.289 . S
C383 O401 1.245 . S
C383 O402 1.274 . S
O384 C372 1.241 . S
O384 Mg377 2.042 . S
O385 C372 1.280 . S
O385 Mg375 1.984 1_556 S
O386 C373 1.277 . S
O386 Mg377 2.041 1_554 S
O387 C373 1.245 . S
O387 Mg375 1.988 . S
O388 Mg375 2.061 . S
O388 C382 1.247 . S
O389 Mg378 2.106 . S
O389 Mg381 2.238 . S
O389 C382 1.289 . S
C390 O391 1.245 . S
C390 O392 1.274 . S
O391 Mg378 2.079 1_556 S
O391 C390 1.245 . S
O392 Mg377 2.038 . S
O392 C390 1.274 . S
O393 Mg381 2.042 . S
O393 C396 1.241 . S
O394 Mg380 1.984 1_554 S
O394 C396 1.280 . S
O395 Mg381 2.041 1_556 S
O395 C399 1.277 . S
C396 O393 1.241 . S
C396 O394 1.280 . S
O397 Mg380 1.988 . S
O397 C399 1.245 . S
O398 C374 1.247 . S
O398 Mg380 2.061 . S
C399 O395 1.277 . S
C399 O397 1.245 . S
O400 C374 1.289 . S
O400 Mg377 2.238 . S
O400 Mg378 2.106 1_556 S
O401 Mg378 2.079 . S
O401 C383 1.245 . S
O402 Mg381 2.038 . S
O402 C383 1.274 . S
C403 O415 1.241 . S
C403 O416 1.280 . S
C404 O417 1.277 . S
C404 O418 1.245 . S
C405 O429 1.247 . S
C405 O431 1.289 . S
Mg406 O407 1.926 . S
Mg406 O416 1.984 . S
Mg406 O418 1.988 . S
Mg406 O419 2.061 . S
O407 Mg406 1.926 . S
O407 Mg408 1.986 . S
O407 Mg409 1.917 . S
Mg408 O407 1.986 . S
Mg408 O415 2.042 . S
Mg408 O417 2.041 . S
Mg408 O423 2.038 . S
Mg408 O431 2.238 . S
Mg409 O407 1.917 . S
Mg409 O410 1.917 . S
Mg409 O420 2.106 . S
Mg409 O422 2.079 . S
Mg409 O431 2.106 . S
Mg409 O432 2.079 . S
O410 Mg409 1.917 . S
O410 Mg411 1.926 . S
O410 Mg412 1.986 . S
Mg411 O410 1.926 . S
Mg411 O425 1.984 1_545 S
Mg411 O428 1.988 . S
Mg411 O429 2.061 . S
Mg412 O410 1.986 . S
Mg412 O420 2.238 . S
Mg412 O424 2.042 . S
Mg412 O426 2.041 . S
Mg412 O433 2.038 . S
C413 O419 1.247 . S
C413 O420 1.289 . S
C414 O432 1.245 . S
C414 O433 1.274 . S
O415 C403 1.241 . S
O415 Mg408 2.042 . S
O416 C403 1.280 . S
O416 Mg406 1.984 . S
O417 C404 1.277 . S
O417 Mg408 2.041 . S
O418 C404 1.245 . S
O418 Mg406 1.988 . S
O419 Mg406 2.061 . S
O419 C413 1.247 . S
O420 Mg409 2.106 . S
O420 Mg412 2.238 . S
O420 C413 1.289 . S
C421 O422 1.245 . S
C421 O423 1.274 . S
O422 Mg409 2.079 . S
O422 C421 1.245 . S
O423 Mg408 2.038 . S
O423 C421 1.274 . S
O424 Mg412 2.042 . S
O424 C427 1.241 . S
O425 Mg411 1.984 1_565 S
O425 C427 1.280 1_565 S
O426 Mg412 2.041 . S
O426 C430 1.277 . S
C427 O424 1.241 . S
C427 O425 1.280 1_545 S
O428 Mg411 1.988 . S
O428 C430 1.245 . S
O429 C405 1.247 . S
O429 Mg411 2.061 . S
C430 O426 1.277 . S
C430 O428 1.245 . S
O431 C405 1.289 . S
O431 Mg408 2.238 . S
O431 Mg409 2.106 . S
O432 Mg409 2.079 . S
O432 C414 1.245 . S
O433 Mg412 2.038 . S
O433 C414 1.274 . S
C434 O446 1.241 . S
C434 O447 1.280 . S
C435 O448 1.277 . S
C435 O449 1.245 . S
C436 O460 1.247 . S
C436 O462 1.289 . S
Mg437 O438 1.926 . S
Mg437 O447 1.984 . S
Mg437 O449 1.988 . S
Mg437 O450 2.061 . S
O438 Mg437 1.926 . S
O438 Mg439 1.986 . S
O438 Mg440 1.917 . S
Mg439 O438 1.986 . S
Mg439 O446 2.042 . S
Mg439 O448 2.041 . S
Mg439 O454 2.038 . S
Mg439 O462 2.238 . S
Mg440 O438 1.917 . S
Mg440 O441 1.917 . S
Mg440 O451 2.106 . S
Mg440 O453 2.079 . S
Mg440 O462 2.106 . S
Mg440 O463 2.079 . S
O441 Mg440 1.917 . S
O441 Mg442 1.926 . S
O441 Mg443 1.986 . S
Mg442 O441 1.926 . S
Mg442 O456 1.984 . S
Mg442 O459 1.988 . S
Mg442 O460 2.061 . S
Mg443 O441 1.986 . S
Mg443 O451 2.238 . S
Mg443 O455 2.042 . S
Mg443 O457 2.041 . S
Mg443 O464 2.038 . S
C444 O450 1.247 . S
C444 O451 1.289 . S
C445 O463 1.245 . S
C445 O464 1.274 . S
O446 C434 1.241 . S
O446 Mg439 2.042 . S
O447 C434 1.280 . S
O447 Mg437 1.984 . S
O448 C435 1.277 . S
O448 Mg439 2.041 . S
O449 C435 1.245 . S
O449 Mg437 1.988 . S
O450 Mg437 2.061 . S
O450 C444 1.247 . S
O451 Mg440 2.106 . S
O451 Mg443 2.238 . S
O451 C444 1.289 . S
C452 O453 1.245 . S
C452 O454 1.274 . S
O453 Mg440 2.079 . S
O453 C452 1.245 . S
O454 Mg439 2.038 . S
O454 C452 1.274 . S
O455 Mg443 2.042 . S
O455 C458 1.241 . S
O456 Mg442 1.984 . S
O456 C458 1.280 . S
O457 Mg443 2.041 . S
O457 C461 1.277 . S
C458 O455 1.241 . S
C458 O456 1.280 . S
O459 Mg442 1.988 . S
O459 C461 1.245 . S
O460 C436 1.247 . S
O460 Mg442 2.061 . S
C461 O457 1.277 . S
C461 O459 1.245 . S
O462 C436 1.289 . S
O462 Mg439 2.238 . S
O462 Mg440 2.106 . S
O463 Mg440 2.079 . S
O463 C445 1.245 . S
O464 Mg443 2.038 . S
O464 C445 1.274 . S
C465 O477 1.241 . S
C465 O478 1.280 . S
C466 O479 1.277 . S
C466 O480 1.245 . S
C467 O491 1.247 . S
C467 O493 1.289 . S
Mg468 O469 1.926 . S
Mg468 O478 1.984 . S
Mg468 O480 1.988 . S
Mg468 O481 2.061 . S
O469 Mg468 1.926 . S
O469 Mg470 1.986 . S
O469 Mg471 1.917 . S
Mg470 O469 1.986 . S
Mg470 O477 2.042 . S
Mg470 O479 2.041 . S
Mg470 O485 2.038 . S
Mg470 O493 2.238 . S
Mg471 O469 1.917 . S
Mg471 O472 1.917 . S
Mg471 O482 2.106 . S
Mg471 O484 2.079 . S
Mg471 O493 2.106 . S
Mg471 O494 2.079 . S
O472 Mg471 1.917 . S
O472 Mg473 1.926 . S
O472 Mg474 1.986 . S
Mg473 O472 1.926 . S
Mg473 O487 1.984 1_565 S
Mg473 O490 1.988 . S
Mg473 O491 2.061 . S
Mg474 O472 1.986 . S
Mg474 O482 2.238 . S
Mg474 O486 2.042 . S
Mg474 O488 2.041 . S
Mg474 O495 2.038 . S
C475 O481 1.247 . S
C475 O482 1.289 . S
C476 O494 1.245 . S
C476 O495 1.274 . S
O477 C465 1.241 . S
O477 Mg470 2.042 . S
O478 C465 1.280 . S
O478 Mg468 1.984 . S
O479 C466 1.277 . S
O479 Mg470 2.041 . S
O480 C466 1.245 . S
O480 Mg468 1.988 . S
O481 Mg468 2.061 . S
O481 C475 1.247 . S
O482 Mg471 2.106 . S
O482 Mg474 2.238 . S
O482 C475 1.289 . S
C483 O484 1.245 . S
C483 O485 1.274 . S
O484 Mg471 2.079 . S
O484 C483 1.245 . S
O485 Mg470 2.038 . S
O485 C483 1.274 . S
O486 Mg474 2.042 . S
O486 C489 1.241 . S
O487 Mg473 1.984 1_545 S
O487 C489 1.280 1_545 S
O488 Mg474 2.041 . S
O488 C492 1.277 . S
C489 O486 1.241 . S
C489 O487 1.280 1_565 S
O490 Mg473 1.988 . S
O490 C492 1.245 . S
O491 C467 1.247 . S
O491 Mg473 2.061 . S
C492 O488 1.277 . S
C492 O490 1.245 . S
O493 C467 1.289 . S
O493 Mg470 2.238 . S
O493 Mg471 2.106 . S
O494 Mg471 2.079 . S
O494 C476 1.245 . S
O495 Mg474 2.038 . S
O495 C476 1.274 . S
H496 C502 0.930 . S
H497 C505 0.930 . S
H498 C506 0.930 . S
H499 C507 0.930 . S
H500 C510 0.930 . S
H501 C511 0.930 . S
C502 H496 0.930 . S
C502 C503 1.355 . S
C502 C504 1.415 . S
C503 C502 1.355 . S
C503 C505 1.419 . S
C504 C502 1.415 . S
C504 C509 1.425 . S
C504 C511 1.409 . S
C505 H497 0.930 . S
C505 C503 1.419 . S
C505 C506 1.362 . S
C506 H498 0.930 . S
C506 C505 1.362 . S
C506 C509 1.409 . S
C507 H499 0.930 . S
C507 C508 1.355 . S
C507 C509 1.415 . S
C508 C507 1.355 . S
C508 C510 1.419 . S
C509 C504 1.425 . S
C509 C506 1.409 . S
C509 C507 1.415 . S
C510 H500 0.930 . S
C510 C508 1.419 . S
C510 C511 1.362 . S
C511 H501 0.930 . S
C511 C504 1.409 . S
C511 C510 1.362 . S
H512 C518 0.930 . S
H513 C521 0.930 . S
H514 C522 0.930 . S
H515 C523 0.930 . S
H516 C526 0.930 . S
H517 C527 0.930 . S
C518 H512 0.930 . S
C518 C519 1.355 . S
C518 C520 1.415 . S
C519 C518 1.355 . S
C519 C521 1.419 . S
C520 C518 1.415 . S
C520 C525 1.425 . S
C520 C527 1.409 . S
C521 H513 0.930 . S
C521 C519 1.419 . S
C521 C522 1.362 . S
C522 H514 0.930 . S
C522 C521 1.362 . S
C522 C525 1.409 . S
C523 H515 0.930 . S
C523 C524 1.355 . S
C523 C525 1.415 . S
C524 C523 1.355 . S
C524 C526 1.419 . S
C525 C520 1.425 . S
C525 C522 1.409 . S
C525 C523 1.415 . S
C526 H516 0.930 . S
C526 C524 1.419 . S
C526 C527 1.362 . S
C527 H517 0.930 . S
C527 C520 1.409 . S
C527 C526 1.362 . S
H528 C534 0.930 . S
H529 C537 0.930 . S
H530 C538 0.930 . S
H531 C539 0.930 . S
H532 C542 0.930 . S
H533 C543 0.930 . S
C534 H528 0.930 . S
C534 C535 1.355 . S
C534 C536 1.415 . S
C535 C534 1.355 . S
C535 C537 1.419 1_554 S
C536 C534 1.415 . S
C536 C541 1.425 . S
C536 C543 1.409 . S
C537 H529 0.930 . S
C537 C535 1.419 1_556 S
C537 C538 1.362 . S
C538 H530 0.930 . S
C538 C537 1.362 . S
C538 C541 1.409 1_556 S
C539 H531 0.930 . S
C539 C540 1.355 1_556 S
C539 C541 1.415 1_556 S
C540 C539 1.355 1_554 S
C540 C542 1.419 . S
C541 C536 1.425 . S
C541 C538 1.409 1_554 S
C541 C539 1.415 1_554 S
C542 H532 0.930 . S
C542 C540 1.419 . S
C542 C543 1.362 . S
C543 H533 0.930 . S
C543 C536 1.409 . S
C543 C542 1.362 . S
H544 C550 0.930 . S
H545 C553 0.930 . S
H546 C554 0.930 . S
H547 C555 0.930 1_455 S
H548 C558 0.930 1_455 S
H549 C559 0.930 . S
C550 H544 0.930 . S
C550 C551 1.355 . S
C550 C552 1.415 . S
C551 C550 1.355 . S
C551 C553 1.419 . S
C552 C550 1.415 . S
C552 C557 1.425 . S
C552 C559 1.409 . S
C553 H545 0.930 . S
C553 C551 1.419 . S
C553 C554 1.362 . S
C554 H546 0.930 . S
C554 C553 1.362 . S
C554 C557 1.409 . S
C555 H547 0.930 1_655 S
C555 C556 1.355 1_655 S
C555 C557 1.415 . S
C556 C555 1.355 1_455 S
C556 C558 1.419 1_455 S
C557 C552 1.425 . S
C557 C554 1.409 . S
C557 C555 1.415 . S
C558 H548 0.930 1_655 S
C558 C556 1.419 1_655 S
C558 C559 1.362 . S
C559 H549 0.930 . S
C559 C552 1.409 . S
C559 C558 1.362 . S
H560 C566 0.930 . S
H561 C569 0.930 . S
H562 C570 0.930 . S
H563 C571 0.930 . S
H564 C574 0.930 . S
H565 C575 0.930 . S
C566 H560 0.930 . S
C566 C567 1.355 . S
C566 C568 1.415 . S
C567 C566 1.355 . S
C567 C569 1.419 . S
C568 C566 1.415 . S
C568 C573 1.425 . S
C568 C575 1.409 . S
C569 H561 0.930 . S
C569 C567 1.419 . S
C569 C570 1.362 . S
C570 H562 0.930 . S
C570 C569 1.362 . S
C570 C573 1.409 . S
C571 H563 0.930 . S
C571 C572 1.355 . S
C571 C573 1.415 . S
C572 C571 1.355 . S
C572 C574 1.419 . S
C573 C568 1.425 . S
C573 C570 1.409 . S
C573 C571 1.415 . S
C574 H564 0.930 . S
C574 C572 1.419 . S
C574 C575 1.362 . S
C575 H565 0.930 . S
C575 C568 1.409 . S
C575 C574 1.362 . S
H576 C582 0.930 . S
H577 C585 0.930 . S
H578 C586 0.930 . S
H579 C587 0.930 . S
H580 C590 0.930 . S
H581 C591 0.930 . S
C582 H576 0.930 . S
C582 C583 1.355 . S
C582 C584 1.415 . S
C583 C582 1.355 . S
C583 C585 1.419 . S
C584 C582 1.415 . S
C584 C589 1.425 . S
C584 C591 1.409 . S
C585 H577 0.930 . S
C585 C583 1.419 . S
C585 C586 1.362 . S
C586 H578 0.930 . S
C586 C585 1.362 . S
C586 C589 1.409 . S
C587 H579 0.930 . S
C587 C588 1.355 . S
C587 C589 1.415 . S
C588 C587 1.355 . S
C588 C590 1.419 . S
C589 C584 1.425 . S
C589 C586 1.409 . S
C589 C587 1.415 . S
C590 H580 0.930 . S
C590 C588 1.419 . S
C590 C591 1.362 . S
C591 H581 0.930 . S
C591 C584 1.409 . S
C591 C590 1.362 . S
H592 C598 0.930 . S
H593 C601 0.930 . S
H594 C602 0.930 . S
H595 C603 0.930 . S
H596 C606 0.930 . S
H597 C607 0.930 . S
C598 H592 0.930 . S
C598 C599 1.355 . S
C598 C600 1.415 . S
C599 C598 1.355 . S
C599 C601 1.419 1_556 S
C600 C598 1.415 . S
C600 C605 1.425 1_556 S
C600 C607 1.409 . S
C601 H593 0.930 . S
C601 C599 1.419 1_554 S
C601 C602 1.362 . S
C602 H594 0.930 . S
C602 C601 1.362 . S
C602 C605 1.409 . S
C603 H595 0.930 . S
C603 C604 1.355 1_554 S
C603 C605 1.415 . S
C604 C603 1.355 1_556 S
C604 C606 1.419 . S
C605 C600 1.425 1_554 S
C605 C602 1.409 . S
C605 C603 1.415 . S
C606 H596 0.930 . S
C606 C604 1.419 . S
C606 C607 1.362 . S
C607 H597 0.930 . S
C607 C600 1.409 . S
C607 C606 1.362 . S
H608 C614 0.930 1_655 S
H609 C617 0.930 1_655 S
H610 C618 0.930 . S
H611 C619 0.930 . S
H612 C622 0.930 . S
H613 C623 0.930 . S
C614 H608 0.930 1_455 S
C614 C615 1.355 1_455 S
C614 C616 1.415 . S
C615 C614 1.355 1_655 S
C615 C617 1.419 1_655 S
C616 C614 1.415 . S
C616 C621 1.425 . S
C616 C623 1.409 . S
C617 H609 0.930 1_455 S
C617 C615 1.419 1_455 S
C617 C618 1.362 . S
C618 H610 0.930 . S
C618 C617 1.362 . S
C618 C621 1.409 . S
C619 H611 0.930 . S
C619 C620 1.355 . S
C619 C621 1.415 . S
C620 C619 1.355 . S
C620 C622 1.419 . S
C621 C616 1.425 . S
C621 C618 1.409 . S
C621 C619 1.415 . S
C622 H612 0.930 . S
C622 C620 1.419 . S
C622 C623 1.362 . S
C623 H613 0.930 . S
C623 C616 1.409 . S
C623 C622 1.362 . S
H624 C630 0.930 . S
H625 C633 0.930 . S
H626 C634 0.930 . S
H627 C635 0.930 . S
H628 C638 0.930 . S
H629 C639 0.930 . S
C630 H624 0.930 . S
C630 C631 1.355 1_556 S
C630 C632 1.415 1_556 S
C631 C630 1.355 1_554 S
C631 C633 1.419 . S
C632 C630 1.415 1_554 S
C632 C637 1.425 . S
C632 C639 1.409 1_554 S
C633 H625 0.930 . S
C633 C631 1.419 . S
C633 C634 1.362 . S
C634 H626 0.930 . S
C634 C633 1.362 . S
C634 C637 1.409 . S
C635 H627 0.930 . S
C635 C636 1.355 . S
C635 C637 1.415 . S
C636 C635 1.355 . S
C636 C638 1.419 1_554 S
C637 C632 1.425 . S
C637 C634 1.409 . S
C637 C635 1.415 . S
C638 H628 0.930 . S
C638 C636 1.419 1_556 S
C638 C639 1.362 . S
C639 H629 0.930 . S
C639 C632 1.409 1_556 S
C639 C638 1.362 . S
H640 C646 0.930 1_655 S
H641 C649 0.925 1_655 S
H642 C650 0.930 . S
H643 C651 0.930 . S
H644 C654 0.930 . S
H645 C655 0.930 . S
C646 H640 0.930 1_455 S
C646 C647 1.355 1_455 S
C646 C648 1.415 . S
C647 C646 1.355 1_655 S
C647 C649 1.416 1_655 S
C648 C646 1.415 . S
C648 C653 1.425 . S
C648 C655 1.409 . S
C649 H641 0.925 1_455 S
C649 C647 1.416 1_455 S
C649 C650 1.371 . S
C650 H642 0.930 . S
C650 C649 1.371 . S
C650 C653 1.409 . S
C651 H643 0.930 . S
C651 C652 1.355 . S
C651 C653 1.415 . S
C652 C651 1.355 . S
C652 C654 1.419 . S
C653 C648 1.425 . S
C653 C650 1.409 . S
C653 C651 1.415 . S
C654 H644 0.930 . S
C654 C652 1.419 . S
C654 C655 1.362 . S
C655 H645 0.930 . S
C655 C648 1.409 . S
C655 C654 1.362 . S
H656 C662 0.930 . S
H657 C665 0.930 . S
H658 C666 0.930 . S
H659 C667 0.930 . S
H660 C670 0.930 . S
H661 C671 0.930 . S
C662 H656 0.930 . S
C662 C663 1.355 . S
C662 C664 1.415 . S
C663 C662 1.355 . S
C663 C665 1.419 . S
C664 C662 1.415 . S
C664 C669 1.425 . S
C664 C671 1.409 . S
C665 H657 0.930 . S
C665 C663 1.419 . S
C665 C666 1.362 . S
C666 H658 0.930 . S
C666 C665 1.362 . S
C666 C669 1.409 . S
C667 H659 0.930 . S
C667 C668 1.355 . S
C667 C669 1.415 . S
C668 C667 1.355 . S
C668 C670 1.419 . S
C669 C664 1.425 . S
C669 C666 1.409 . S
C669 C667 1.415 . S
C670 H660 0.930 . S
C670 C668 1.419 . S
C670 C671 1.362 . S
C671 H661 0.930 . S
C671 C664 1.409 . S
C671 C670 1.362 . S
H672 C678 0.930 . S
H673 C681 0.930 . S
H674 C682 0.930 . S
H675 C683 0.930 . S
H676 C686 0.930 . S
H677 C687 0.930 . S
C678 H672 0.930 . S
C678 C679 1.355 . S
C678 C680 1.415 . S
C679 C678 1.355 . S
C679 C681 1.419 . S
C680 C678 1.415 . S
C680 C685 1.425 . S
C680 C687 1.409 . S
C681 H673 0.930 . S
C681 C679 1.419 . S
C681 C682 1.362 . S
C682 H674 0.930 . S
C682 C681 1.362 . S
C682 C685 1.409 . S
C683 H675 0.930 . S
C683 C684 1.355 . S
C683 C685 1.415 . S
C684 C683 1.355 . S
C684 C686 1.419 . S
C685 C680 1.425 . S
C685 C682 1.409 . S
C685 C683 1.415 . S
C686 H676 0.930 . S
C686 C684 1.419 . S
C686 C687 1.362 . S
C687 H677 0.930 . S
C687 C680 1.409 . S
C687 C686 1.362 . S
H688 C694 0.930 . S
H689 C697 0.930 . S
H690 C698 0.930 . S
H691 C699 0.930 . S
H692 C702 0.930 . S
H693 C703 0.930 . S
C694 H688 0.930 . S
C694 C695 1.355 1_554 S
C694 C696 1.415 . S
C695 C694 1.355 1_556 S
C695 C697 1.419 . S
C696 C694 1.415 . S
C696 C701 1.425 1_554 S
C696 C703 1.409 . S
C697 H689 0.930 . S
C697 C695 1.419 . S
C697 C698 1.362 . S
C698 H690 0.930 . S
C698 C697 1.362 . S
C698 C701 1.409 . S
C699 H691 0.930 . S
C699 C700 1.355 . S
C699 C701 1.415 . S
C700 C699 1.355 . S
C700 C702 1.419 1_556 S
C701 C696 1.425 1_556 S
C701 C698 1.409 . S
C701 C699 1.415 . S
C702 H692 0.930 . S
C702 C700 1.419 1_554 S
C702 C703 1.362 . S
C703 H693 0.930 . S
C703 C696 1.409 . S
C703 C702 1.362 . S
H704 C710 0.930 . S
H705 C713 0.930 . S
H706 C714 0.930 . S
H707 C715 0.930 1_455 S
H708 C718 0.930 1_455 S
H709 C719 0.930 . S
C710 H704 0.930 . S
C710 C711 1.355 . S
C710 C712 1.415 . S
C711 C710 1.355 . S
C711 C713 1.419 . S
C712 C710 1.415 . S
C712 C717 1.425 . S
C712 C719 1.409 . S
C713 H705 0.930 . S
C713 C711 1.419 . S
C713 C714 1.362 . S
C714 H706 0.930 . S
C714 C713 1.362 . S
C714 C717 1.409 . S
C715 H707 0.930 1_655 S
C715 C716 1.355 1_655 S
C715 C717 1.415 . S
C716 C715 1.355 1_455 S
C716 C718 1.419 1_455 S
C717 C712 1.425 . S
C717 C714 1.409 . S
C717 C715 1.415 . S
C718 H708 0.930 1_655 S
C718 C716 1.419 1_655 S
C718 C719 1.362 . S
C719 H709 0.930 . S
C719 C712 1.409 . S
C719 C718 1.362 . S
H720 C726 0.930 . S
H721 C729 0.930 . S
H722 C730 0.930 . S
H723 C731 0.930 . S
H724 C734 0.930 . S
H725 C735 0.930 . S
C726 H720 0.930 . S
C726 C727 1.355 . S
C726 C728 1.415 . S
C727 C726 1.355 . S
C727 C729 1.419 . S
C728 C726 1.415 . S
C728 C733 1.425 . S
C728 C735 1.409 . S
C729 H721 0.930 . S
C729 C727 1.419 . S
C729 C730 1.362 . S
C730 H722 0.930 . S
C730 C729 1.362 . S
C730 C733 1.409 . S
C731 H723 0.930 . S
C731 C732 1.355 . S
C731 C733 1.415 . S
C732 C731 1.355 . S
C732 C734 1.419 . S
C733 C728 1.425 . S
C733 C730 1.409 . S
C733 C731 1.415 . S
C734 H724 0.930 . S
C734 C732 1.419 . S
C734 C735 1.362 . S
C735 H725 0.930 . S
C735 C728 1.409 . S
C735 C734 1.362 . S
H736 C742 0.930 . S
H737 C745 0.930 . S
H738 C746 0.930 . S
H739 C747 0.930 . S
H740 C750 0.930 . S
H741 C751 0.930 . S
C742 H736 0.930 . S
C742 C743 1.355 . S
C742 C744 1.415 . S
C743 C742 1.355 . S
C743 C745 1.419 . S
C744 C742 1.415 . S
C744 C749 1.425 . S
C744 C751 1.409 . S
C745 H737 0.930 . S
C745 C743 1.419 . S
C745 C746 1.362 . S
C746 H738 0.930 . S
C746 C745 1.362 . S
C746 C749 1.409 . S
C747 H739 0.930 . S
C747 C748 1.355 . S
C747 C749 1.415 . S
C748 C747 1.355 . S
C748 C750 1.419 . S
C749 C744 1.425 . S
C749 C746 1.409 . S
C749 C747 1.415 . S
C750 H740 0.930 . S
C750 C748 1.419 . S
C750 C751 1.362 . S
C751 H741 0.930 . S
C751 C744 1.409 . S
C751 C750 1.362 . S
H752 C758 0.930 . S
H753 C761 0.930 . S
H754 C762 0.930 . S
H755 C763 0.930 . S
H756 C766 0.930 . S
H757 C767 0.930 1_554 S
C758 H752 0.930 . S
C758 C759 1.355 . S
C758 C760 1.415 . S
C759 C758 1.355 . S
C759 C761 1.419 . S
C760 C758 1.415 . S
C760 C765 1.425 . S
C760 C767 1.409 1_554 S
C761 H753 0.930 . S
C761 C759 1.419 . S
C761 C762 1.362 . S
C762 H754 0.930 . S
C762 C761 1.362 . S
C762 C765 1.409 . S
C763 H755 0.930 . S
C763 C764 1.355 . S
C763 C765 1.415 1_556 S
C764 C763 1.355 . S
C764 C766 1.419 . S
C765 C760 1.425 . S
C765 C762 1.409 . S
C765 C763 1.415 1_554 S
C766 H756 0.930 . S
C766 C764 1.419 . S
C766 C767 1.362 . S
C767 H757 0.930 1_556 S
C767 C760 1.409 1_556 S
C767 C766 1.362 . S
H768 C774 0.930 . S
H769 C777 0.930 . S
H770 C778 0.930 . S
H771 C779 0.930 . S
H772 C782 0.930 . S
H773 C783 0.930 . S
C774 H768 0.930 . S
C774 C775 1.355 . S
C774 C776 1.415 . S
C775 C774 1.355 . S
C775 C777 1.419 . S
C776 C774 1.415 . S
C776 C781 1.425 . S
C776 C783 1.409 . S
C777 H769 0.930 . S
C777 C775 1.419 . S
C777 C778 1.362 . S
C778 H770 0.930 . S
C778 C777 1.362 . S
C778 C781 1.409 . S
C779 H771 0.930 . S
C779 C780 1.355 . S
C779 C781 1.415 . S
C780 C779 1.355 . S
C780 C782 1.419 . S
C781 C776 1.425 . S
C781 C778 1.409 . S
C781 C779 1.415 . S
C782 H772 0.930 . S
C782 C780 1.419 . S
C782 C783 1.362 . S
C783 H773 0.930 . S
C783 C776 1.409 . S
C783 C782 1.362 . S
H784 C790 0.930 . S
H785 C793 0.930 . S
H786 C794 0.930 . S
H787 C795 0.930 . S
H788 C798 0.930 . S
H789 C799 0.930 . S
C790 H784 0.930 . S
C790 C791 1.355 . S
C790 C792 1.415 . S
C791 C790 1.355 . S
C791 C793 1.419 . S
C792 C790 1.415 . S
C792 C797 1.425 . S
C792 C799 1.409 . S
C793 H785 0.930 . S
C793 C791 1.419 . S
C793 C794 1.362 . S
C794 H786 0.930 . S
C794 C793 1.362 . S
C794 C797 1.409 . S
C795 H787 0.930 . S
C795 C796 1.355 . S
C795 C797 1.415 . S
C796 C795 1.355 . S
C796 C798 1.419 . S
C797 C792 1.425 . S
C797 C794 1.409 . S
C797 C795 1.415 . S
C798 H788 0.930 . S
C798 C796 1.419 . S
C798 C799 1.362 . S
C799 H789 0.930 . S
C799 C792 1.409 . S
C799 C798 1.362 . S
H800 C806 0.930 . S
H801 C809 0.930 . S
H802 C810 0.930 . S
H803 C811 0.930 . S
H804 C814 0.930 . S
H805 C815 0.930 . S
C806 H800 0.930 . S
C806 C807 1.355 . S
C806 C808 1.415 . S
C807 C806 1.355 . S
C807 C809 1.419 . S
C808 C806 1.415 . S
C808 C813 1.425 . S
C808 C815 1.409 . S
C809 H801 0.930 . S
C809 C807 1.419 . S
C809 C810 1.362 . S
C810 H802 0.930 . S
C810 C809 1.362 . S
C810 C813 1.409 . S
C811 H803 0.930 . S
C811 C812 1.355 . S
C811 C813 1.415 . S
C812 C811 1.355 . S
C812 C814 1.419 . S
C813 C808 1.425 . S
C813 C810 1.409 . S
C813 C811 1.415 . S
C814 H804 0.930 . S
C814 C812 1.419 . S
C814 C815 1.362 . S
C815 H805 0.930 . S
C815 C808 1.409 . S
C815 C814 1.362 . S
H816 C822 0.930 . S
H817 C825 0.930 . S
H818 C826 0.930 . S
H819 C827 0.930 . S
H820 C830 0.930 . S
H821 C831 0.930 . S
C822 H816 0.930 . S
C822 C823 1.355 . S
C822 C824 1.415 . S
C823 C822 1.355 . S
C823 C825 1.419 . S
C824 C822 1.415 . S
C824 C829 1.425 1_554 S
C824 C831 1.409 1_554 S
C825 H817 0.930 . S
C825 C823 1.419 . S
C825 C826 1.362 . S
C826 H818 0.930 . S
C826 C825 1.362 . S
C826 C829 1.409 1_554 S
C827 H819 0.930 . S
C827 C828 1.355 . S
C827 C829 1.415 . S
C828 C827 1.355 . S
C828 C830 1.419 . S
C829 C824 1.425 1_556 S
C829 C826 1.409 1_556 S
C829 C827 1.415 . S
C830 H820 0.930 . S
C830 C828 1.419 . S
C830 C831 1.362 . S
C831 H821 0.930 . S
C831 C824 1.409 1_556 S
C831 C830 1.362 . S
H832 C838 0.930 . S
H833 C841 0.930 . S
H834 C842 0.930 . S
H835 C843 0.930 . S
H836 C846 0.930 . S
H837 C847 0.930 . S
C838 H832 0.930 . S
C838 C839 1.355 . S
C838 C840 1.415 . S
C839 C838 1.355 . S
C839 C841 1.419 . S
C840 C838 1.415 . S
C840 C845 1.425 . S
C840 C847 1.409 . S
C841 H833 0.930 . S
C841 C839 1.419 . S
C841 C842 1.362 . S
C842 H834 0.930 . S
C842 C841 1.362 . S
C842 C845 1.409 . S
C843 H835 0.930 . S
C843 C844 1.355 . S
C843 C845 1.415 . S
C844 C843 1.355 . S
C844 C846 1.419 . S
C845 C840 1.425 . S
C845 C842 1.409 . S
C845 C843 1.415 . S
C846 H836 0.930 . S
C846 C844 1.419 . S
C846 C847 1.362 . S
C847 H837 0.930 . S
C847 C840 1.409 . S
C847 C846 1.362 . S
H848 C854 0.930 . S
H849 C857 0.930 . S
H850 C858 0.930 . S
H851 C859 0.930 . S
H852 C862 0.930 . S
H853 C863 0.930 . S
C854 H848 0.930 . S
C854 C855 1.355 . S
C854 C856 1.415 . S
C855 C854 1.355 . S
C855 C857 1.419 . S
C856 C854 1.415 . S
C856 C861 1.425 . S
C856 C863 1.409 . S
C857 H849 0.930 . S
C857 C855 1.419 . S
C857 C858 1.362 . S
C858 H850 0.930 . S
C858 C857 1.362 . S
C858 C861 1.409 . S
C859 H851 0.930 . S
C859 C860 1.355 . S
C859 C861 1.415 . S
C860 C859 1.355 . S
C860 C862 1.419 . S
C861 C856 1.425 . S
C861 C858 1.409 . S
C861 C859 1.415 . S
C862 H852 0.930 . S
C862 C860 1.419 . S
C862 C863 1.362 . S
C863 H853 0.930 . S
C863 C856 1.409 . S
C863 C862 1.362 . S
H864 C870 0.930 . S
H865 C873 0.930 . S
H866 C874 0.930 . S
H867 C875 0.930 . S
H868 C878 0.930 . S
H869 C879 0.930 . S
C870 H864 0.930 . S
C870 C871 1.355 . S
C870 C872 1.415 . S
C871 C870 1.355 . S
C871 C873 1.419 . S
C872 C870 1.415 . S
C872 C877 1.425 . S
C872 C879 1.409 . S
C873 H865 0.930 . S
C873 C871 1.419 . S
C873 C874 1.362 . S
C874 H866 0.930 . S
C874 C873 1.362 . S
C874 C877 1.409 . S
C875 H867 0.930 . S
C875 C876 1.355 . S
C875 C877 1.415 . S
C876 C875 1.355 . S
C876 C878 1.419 . S
C877 C872 1.425 . S
C877 C874 1.409 . S
C877 C875 1.415 . S
C878 H868 0.930 . S
C878 C876 1.419 . S
C878 C879 1.362 . S
C879 H869 0.930 . S
C879 C872 1.409 . S
C879 C878 1.362 . S
H880 C886 0.930 . S
H881 C889 0.930 . S
H882 C890 0.930 . S
H883 C891 0.930 . S
H884 C894 0.930 . S
H885 C895 0.930 . S
C886 H880 0.930 . S
C886 C887 1.355 . S
C886 C888 1.415 . S
C887 C886 1.355 . S
C887 C889 1.419 . S
C888 C886 1.415 . S
C888 C893 1.425 . S
C888 C895 1.409 . S
C889 H881 0.930 . S
C889 C887 1.419 . S
C889 C890 1.362 . S
C890 H882 0.930 . S
C890 C889 1.362 . S
C890 C893 1.409 . S
C891 H883 0.930 . S
C891 C892 1.355 . S
C891 C893 1.415 . S
C892 C891 1.355 . S
C892 C894 1.419 . S
C893 C888 1.425 . S
C893 C890 1.409 . S
C893 C891 1.415 . S
C894 H884 0.930 . S
C894 C892 1.419 . S
C894 C895 1.362 . S
C895 H885 0.930 . S
C895 C888 1.409 . S
C895 C894 1.362 . S
H896 C902 0.930 . S
H897 C905 0.930 . S
H898 C906 0.930 . S
H899 C907 0.930 . S
H900 C910 0.930 . S
H901 C911 0.930 . S
C902 H896 0.930 . S
C902 C903 1.355 . S
C902 C904 1.415 . S
C903 C902 1.355 . S
C903 C905 1.419 . S
C904 C902 1.415 . S
C904 C909 1.425 . S
C904 C911 1.409 . S
C905 H897 0.930 . S
C905 C903 1.419 . S
C905 C906 1.362 . S
C906 H898 0.930 . S
C906 C905 1.362 . S
C906 C909 1.409 . S
C907 H899 0.930 . S
C907 C908 1.355 . S
C907 C909 1.415 . S
C908 C907 1.355 . S
C908 C910 1.419 . S
C909 C904 1.425 . S
C909 C906 1.409 . S
C909 C907 1.415 . S
C910 H900 0.930 . S
C910 C908 1.419 . S
C910 C911 1.362 . S
C911 H901 0.930 . S
C911 C904 1.409 . S
C911 C910 1.362 . S
H912 C918 0.930 . S
H913 C921 0.930 . S
H914 C922 0.930 . S
H915 C923 0.930 . S
H916 C926 0.930 . S
H917 C927 0.930 . S
C918 H912 0.930 . S
C918 C919 1.355 . S
C918 C920 1.415 . S
C919 C918 1.355 . S
C919 C921 1.419 . S
C920 C918 1.415 . S
C920 C925 1.425 . S
C920 C927 1.409 1_554 S
C921 H913 0.930 . S
C921 C919 1.419 . S
C921 C922 1.362 . S
C922 H914 0.930 . S
C922 C921 1.362 . S
C922 C925 1.409 . S
C923 H915 0.930 . S
C923 C924 1.355 . S
C923 C925 1.415 1_556 S
C924 C923 1.355 . S
C924 C926 1.419 . S
C925 C920 1.425 . S
C925 C922 1.409 . S
C925 C923 1.415 1_554 S
C926 H916 0.930 . S
C926 C924 1.419 . S
C926 C927 1.362 . S
C927 H917 0.930 . S
C927 C920 1.409 1_556 S
C927 C926 1.362 . S
H928 C934 0.930 . S
H929 C937 0.930 . S
H930 C938 0.930 . S
H931 C939 0.930 . S
H932 C942 0.930 . S
H933 C943 0.930 . S
C934 H928 0.930 . S
C934 C935 1.355 . S
C934 C936 1.415 . S
C935 C934 1.355 . S
C935 C937 1.419 . S
C936 C934 1.415 . S
C936 C941 1.425 . S
C936 C943 1.409 . S
C937 H929 0.930 . S
C937 C935 1.419 . S
C937 C938 1.362 . S
C938 H930 0.930 . S
C938 C937 1.362 . S
C938 C941 1.409 . S
C939 H931 0.930 . S
C939 C940 1.355 . S
C939 C941 1.415 . S
C940 C939 1.355 . S
C940 C942 1.419 . S
C941 C936 1.425 . S
C941 C938 1.409 . S
C941 C939 1.415 . S
C942 H932 0.930 . S
C942 C940 1.419 . S
C942 C943 1.362 . S
C943 H933 0.930 . S
C943 C936 1.409 . S
C943 C942 1.362 . S
H944 C950 0.930 . S
H945 C953 0.930 . S
H946 C954 0.930 . S
H947 C955 0.930 . S
H948 C958 0.930 . S
H949 C959 0.930 . S
C950 H944 0.930 . S
C950 C951 1.355 . S
C950 C952 1.415 . S
C951 C950 1.355 . S
C951 C953 1.419 . S
C952 C950 1.415 . S
C952 C957 1.425 . S
C952 C959 1.409 . S
C953 H945 0.930 . S
C953 C951 1.419 . S
C953 C954 1.362 . S
C954 H946 0.930 . S
C954 C953 1.362 . S
C954 C957 1.409 . S
C955 H947 0.930 . S
C955 C956 1.355 . S
C955 C957 1.415 . S
C956 C955 1.355 . S
C956 C958 1.419 . S
C957 C952 1.425 . S
C957 C954 1.409 . S
C957 C955 1.415 . S
C958 H948 0.930 . S
C958 C956 1.419 . S
C958 C959 1.362 . S
C959 H949 0.930 . S
C959 C952 1.409 . S
C959 C958 1.362 . S
H960 C966 0.930 . S
H961 C969 0.930 . S
H962 C970 0.930 . S
H963 C971 0.930 . S
H964 C974 0.930 . S
H965 C975 0.930 . S
C966 H960 0.930 . S
C966 C967 1.355 . S
C966 C968 1.415 . S
C967 C966 1.355 . S
C967 C969 1.419 . S
C968 C966 1.415 . S
C968 C973 1.425 . S
C968 C975 1.409 . S
C969 H961 0.930 . S
C969 C967 1.419 . S
C969 C970 1.362 . S
C970 H962 0.930 . S
C970 C969 1.362 . S
C970 C973 1.409 . S
C971 H963 0.930 . S
C971 C972 1.355 . S
C971 C973 1.415 . S
C972 C971 1.355 . S
C972 C974 1.419 . S
C973 C968 1.425 . S
C973 C970 1.409 . S
C973 C971 1.415 . S
C974 H964 0.930 . S
C974 C972 1.419 . S
C974 C975 1.362 . S
C975 H965 0.930 . S
C975 C968 1.409 . S
C975 C974 1.362 . S
H976 C982 0.930 . S
H977 C985 0.930 . S
H978 C986 0.930 . S
H979 C987 0.930 . S
H980 C990 0.930 . S
H981 C991 0.930 . S
C982 H976 0.930 . S
C982 C983 1.355 . S
C982 C984 1.415 . S
C983 C982 1.355 . S
C983 C985 1.419 . S
C984 C982 1.415 . S
C984 C989 1.425 1_554 S
C984 C991 1.409 1_554 S
C985 H977 0.930 . S
C985 C983 1.419 . S
C985 C986 1.362 . S
C986 H978 0.930 . S
C986 C985 1.362 . S
C986 C989 1.409 1_554 S
C987 H979 0.930 . S
C987 C988 1.355 . S
C987 C989 1.415 . S
C988 C987 1.355 . S
C988 C990 1.419 . S
C989 C984 1.425 1_556 S
C989 C986 1.409 1_556 S
C989 C987 1.415 . S
C990 H980 0.930 . S
C990 C988 1.419 . S
C990 C991 1.362 . S
C991 H981 0.930 . S
C991 C984 1.409 1_556 S
C991 C990 1.362 . S
H992 C998 0.930 . S
H993 C1001 0.930 . S
H994 C1002 0.930 . S
H995 C1003 0.930 . S
H996 C1006 0.930 . S
H997 C1007 0.930 . S
C998 H992 0.930 . S
C998 C999 1.355 . S
C998 C1000 1.415 . S
C999 C998 1.355 . S
C999 C1001 1.419 . S
C1000 C998 1.415 . S
C1000 C1005 1.425 . S
C1000 C1007 1.409 . S
C1001 H993 0.930 . S
C1001 C999 1.419 . S
C1001 C1002 1.362 . S
C1002 H994 0.930 . S
C1002 C1001 1.362 . S
C1002 C1005 1.409 . S
C1003 H995 0.930 . S
C1003 C1004 1.355 . S
C1003 C1005 1.415 . S
C1004 C1003 1.355 . S
C1004 C1006 1.419 . S
C1005 C1000 1.425 . S
C1005 C1002 1.409 . S
C1005 C1003 1.415 . S
C1006 H996 0.930 . S
C1006 C1004 1.419 . S
C1006 C1007 1.362 . S
C1007 H997 0.930 . S
C1007 C1000 1.409 . S
C1007 C1006 1.362 . S
H1008 C1014 0.930 . S
H1009 C1017 0.930 . S
H1010 C1018 0.930 . S
H1011 C1019 0.930 . S
H1012 C1022 0.930 . S
H1013 C1023 0.930 . S
C1014 H1008 0.930 . S
C1014 C1015 1.355 . S
C1014 C1016 1.415 . S
C1015 C1014 1.355 . S
C1015 C1017 1.419 . S
C1016 C1014 1.415 . S
C1016 C1021 1.425 . S
C1016 C1023 1.409 . S
C1017 H1009 0.930 . S
C1017 C1015 1.419 . S
C1017 C1018 1.362 . S
C1018 H1010 0.930 . S
C1018 C1017 1.362 . S
C1018 C1021 1.409 . S
C1019 H1011 0.930 . S
C1019 C1020 1.355 . S
C1019 C1021 1.415 . S
C1020 C1019 1.355 . S
C1020 C1022 1.419 . S
C1021 C1016 1.425 . S
C1021 C1018 1.409 . S
C1021 C1019 1.415 . S
C1022 H1012 0.930 . S
C1022 C1020 1.419 . S
C1022 C1023 1.362 . S
C1023 H1013 0.930 . S
C1023 C1016 1.409 . S
C1023 C1022 1.362 . S
H1024 C1030 0.930 . S
H1025 C1033 0.930 . S
H1026 C1034 0.930 . S
H1027 C1035 0.930 . S
H1028 C1038 0.930 . S
H1029 C1039 0.930 . S
C1030 H1024 0.930 . S
C1030 C1031 1.355 . S
C1030 C1032 1.415 . S
C1031 C1030 1.355 . S
C1031 C1033 1.419 . S
C1032 C1030 1.415 . S
C1032 C1037 1.425 . S
C1032 C1039 1.409 . S
C1033 H1025 0.930 . S
C1033 C1031 1.419 . S
C1033 C1034 1.362 . S
C1034 H1026 0.930 . S
C1034 C1033 1.362 . S
C1034 C1037 1.409 . S
C1035 H1027 0.930 . S
C1035 C1036 1.355 . S
C1035 C1037 1.415 . S
C1036 C1035 1.355 . S
C1036 C1038 1.419 . S
C1037 C1032 1.425 . S
C1037 C1034 1.409 . S
C1037 C1035 1.415 . S
C1038 H1028 0.930 . S
C1038 C1036 1.419 . S
C1038 C1039 1.362 . S
C1039 H1029 0.930 . S
C1039 C1032 1.409 . S
C1039 C1038 1.362 . S
H1040 C1046 0.930 . S
H1041 C1049 0.930 . S
H1042 C1050 0.930 . S
H1043 C1051 0.930 . S
H1044 C1054 0.930 . S
H1045 C1055 0.930 . S
C1046 H1040 0.930 . S
C1046 C1047 1.355 . S
C1046 C1048 1.415 . S
C1047 C1046 1.355 . S
C1047 C1049 1.419 . S
C1048 C1046 1.415 . S
C1048 C1053 1.425 . S
C1048 C1055 1.409 . S
C1049 H1041 0.930 . S
C1049 C1047 1.419 . S
C1049 C1050 1.362 . S
C1050 H1042 0.930 . S
C1050 C1049 1.362 . S
C1050 C1053 1.409 . S
C1051 H1043 0.930 . S
C1051 C1052 1.355 . S
C1051 C1053 1.415 . S
C1052 C1051 1.355 . S
C1052 C1054 1.419 . S
C1053 C1048 1.425 . S
C1053 C1050 1.409 . S
C1053 C1051 1.415 . S
C1054 H1044 0.930 . S
C1054 C1052 1.419 . S
C1054 C1055 1.362 . S
C1055 H1045 0.930 . S
C1055 C1048 1.409 . S
C1055 C1054 1.362 . S
H1056 C1062 0.930 1_556 S
H1057 C1065 0.930 . S
H1058 C1066 0.930 . S
H1059 C1067 0.930 . S
H1060 C1070 0.930 . S
H1061 C1071 0.930 . S
C1062 H1056 0.930 1_554 S
C1062 C1063 1.355 . S
C1062 C1064 1.415 1_554 S
C1063 C1062 1.355 . S
C1063 C1065 1.419 . S
C1064 C1062 1.415 1_556 S
C1064 C1069 1.425 1_456 S
C1064 C1071 1.409 . S
C1065 H1057 0.930 . S
C1065 C1063 1.419 . S
C1065 C1066 1.362 1_455 S
C1066 H1058 0.930 . S
C1066 C1065 1.362 1_655 S
C1066 C1069 1.409 . S
C1067 H1059 0.930 . S
C1067 C1068 1.355 1_554 S
C1067 C1069 1.415 . S
C1068 C1067 1.355 1_556 S
C1068 C1070 1.419 . S
C1069 C1064 1.425 1_654 S
C1069 C1066 1.409 . S
C1069 C1067 1.415 . S
C1070 H1060 0.930 . S
C1070 C1068 1.419 . S
C1070 C1071 1.362 1_655 S
C1071 H1061 0.930 . S
C1071 C1064 1.409 . S
C1071 C1070 1.362 1_455 S
H1072 C1078 0.930 . S
H1073 C1081 0.930 . S
H1074 C1082 0.930 . S
H1075 C1083 0.930 . S
H1076 C1086 0.930 . S
H1077 C1087 0.930 . S
C1078 H1072 0.930 . S
C1078 C1079 1.355 . S
C1078 C1080 1.415 . S
C1079 C1078 1.355 . S
C1079 C1081 1.419 . S
C1080 C1078 1.415 . S
C1080 C1085 1.425 . S
C1080 C1087 1.409 . S
C1081 H1073 0.930 . S
C1081 C1079 1.419 . S
C1081 C1082 1.362 . S
C1082 H1074 0.930 . S
C1082 C1081 1.362 . S
C1082 C1085 1.409 . S
C1083 H1075 0.930 . S
C1083 C1084 1.355 . S
C1083 C1085 1.415 . S
C1084 C1083 1.355 . S
C1084 C1086 1.419 . S
C1085 C1080 1.425 . S
C1085 C1082 1.409 . S
C1085 C1083 1.415 . S
C1086 H1076 0.930 . S
C1086 C1084 1.419 . S
C1086 C1087 1.362 . S
C1087 H1077 0.930 . S
C1087 C1080 1.409 . S
C1087 C1086 1.362 . S
H1088 C1094 0.930 . S
H1089 C1097 0.930 . S
H1090 C1098 0.930 . S
H1091 C1099 0.930 . S
H1092 C1102 0.930 . S
H1093 C1103 0.930 . S
C1094 H1088 0.930 . S
C1094 C1095 1.355 . S
C1094 C1096 1.415 . S
C1095 C1094 1.355 . S
C1095 C1097 1.419 . S
C1096 C1094 1.415 . S
C1096 C1101 1.425 . S
C1096 C1103 1.409 . S
C1097 H1089 0.930 . S
C1097 C1095 1.419 . S
C1097 C1098 1.362 . S
C1098 H1090 0.930 . S
C1098 C1097 1.362 . S
C1098 C1101 1.409 . S
C1099 H1091 0.930 . S
C1099 C1100 1.355 . S
C1099 C1101 1.415 . S
C1100 C1099 1.355 . S
C1100 C1102 1.419 . S
C1101 C1096 1.425 . S
C1101 C1098 1.409 . S
C1101 C1099 1.415 . S
C1102 H1092 0.930 . S
C1102 C1100 1.419 . S
C1102 C1103 1.362 . S
C1103 H1093 0.930 . S
C1103 C1096 1.409 . S
C1103 C1102 1.362 . S
H1104 C1110 0.930 . S
H1105 C1113 0.930 . S
H1106 C1114 0.930 . S
H1107 C1115 0.930 1_556 S
H1108 C1118 0.930 . S
H1109 C1119 0.930 . S
C1110 H1104 0.930 . S
C1110 C1111 1.355 1_544 S
C1110 C1112 1.415 . S
C1111 C1110 1.355 1_566 S
C1111 C1113 1.419 . S
C1112 C1110 1.415 . S
C1112 C1117 1.425 1_444 S
C1112 C1119 1.409 . S
C1113 H1105 0.930 . S
C1113 C1111 1.419 . S
C1113 C1114 1.362 1_455 S
C1114 H1106 0.930 . S
C1114 C1113 1.362 1_655 S
C1114 C1117 1.409 . S
C1115 H1107 0.930 1_554 S
C1115 C1116 1.355 1_565 S
C1115 C1117 1.415 1_554 S
C1116 C1115 1.355 1_545 S
C1116 C1118 1.419 . S
C1117 C1112 1.425 1_666 S
C1117 C1114 1.409 . S
C1117 C1115 1.415 1_556 S
C1118 H1108 0.930 . S
C1118 C1116 1.419 . S
C1118 C1119 1.362 1_655 S
C1119 H1109 0.930 . S
C1119 C1112 1.409 . S
C1119 C1118 1.362 1_455 S
H1120 C1126 0.930 . S
H1121 C1129 0.930 . S
H1122 C1130 0.930 . S
H1123 C1131 0.930 . S
H1124 C1134 0.930 . S
H1125 C1135 0.930 . S
C1126 H1120 0.930 . S
C1126 C1127 1.355 1_565 S
C1126 C1128 1.415 . S
C1127 C1126 1.355 1_545 S
C1127 C1129 1.419 . S
C1128 C1126 1.415 . S
C1128 C1133 1.425 1_565 S
C1128 C1135 1.409 . S
C1129 H1121 0.930 . S
C1129 C1127 1.419 . S
C1129 C1130 1.362 . S
C1130 H1122 0.930 . S
C1130 C1129 1.362 . S
C1130 C1133 1.409 . S
C1131 H1123 0.930 . S
C1131 C1132 1.355 1_545 S
C1131 C1133 1.415 . S
C1132 C1131 1.355 1_565 S
C1132 C1134 1.419 . S
C1133 C1128 1.425 1_545 S
C1133 C1130 1.409 . S
C1133 C1131 1.415 . S
C1134 H1124 0.930 . S
C1134 C1132 1.419 . S
C1134 C1135 1.362 . S
C1135 H1125 0.930 . S
C1135 C1128 1.409 . S
C1135 C1134 1.362 . S
H1136 C1142 0.930 . S
H1137 C1145 0.930 . S
H1138 C1146 0.930 . S
H1139 C1147 0.930 . S
H1140 C1150 0.930 . S
H1141 C1151 0.930 . S
C1142 H1136 0.930 . S
C1142 C1143 1.355 . S
C1142 C1144 1.415 . S
C1143 C1142 1.355 . S
C1143 C1145 1.419 . S
C1144 C1142 1.415 . S
C1144 C1149 1.425 . S
C1144 C1151 1.409 . S
C1145 H1137 0.930 . S
C1145 C1143 1.419 . S
C1145 C1146 1.362 . S
C1146 H1138 0.930 . S
C1146 C1145 1.362 . S
C1146 C1149 1.409 . S
C1147 H1139 0.930 . S
C1147 C1148 1.355 . S
C1147 C1149 1.415 . S
C1148 C1147 1.355 . S
C1148 C1150 1.419 . S
C1149 C1144 1.425 . S
C1149 C1146 1.409 . S
C1149 C1147 1.415 . S
C1150 H1140 0.930 . S
C1150 C1148 1.419 . S
C1150 C1151 1.362 . S
C1151 H1141 0.930 . S
C1151 C1144 1.409 . S
C1151 C1150 1.362 . S
H1152 C1158 0.930 . S
H1153 C1161 0.930 . S
H1154 C1162 0.930 . S
H1155 C1163 0.930 . S
H1156 C1166 0.930 . S
H1157 C1167 0.930 . S
C1158 H1152 0.930 . S
C1158 C1159 1.355 . S
C1158 C1160 1.415 . S
C1159 C1158 1.355 . S
C1159 C1161 1.419 . S
C1160 C1158 1.415 . S
C1160 C1165 1.425 . S
C1160 C1167 1.409 . S
C1161 H1153 0.930 . S
C1161 C1159 1.419 . S
C1161 C1162 1.362 . S
C1162 H1154 0.930 . S
C1162 C1161 1.362 . S
C1162 C1165 1.409 . S
C1163 H1155 0.930 . S
C1163 C1164 1.355 . S
C1163 C1165 1.415 . S
C1164 C1163 1.355 . S
C1164 C1166 1.419 . S
C1165 C1160 1.425 . S
C1165 C1162 1.409 . S
C1165 C1163 1.415 . S
C1166 H1156 0.930 . S
C1166 C1164 1.419 . S
C1166 C1167 1.362 . S
C1167 H1157 0.930 . S
C1167 C1160 1.409 . S
C1167 C1166 1.362 . S
H1168 C1174 0.930 . S
H1169 C1177 0.930 . S
H1170 C1178 0.930 . S
H1171 C1179 0.930 . S
H1172 C1182 0.930 . S
H1173 C1183 0.930 . S
C1174 H1168 0.930 . S
C1174 C1175 1.355 . S
C1174 C1176 1.415 . S
C1175 C1174 1.355 . S
C1175 C1177 1.419 . S
C1176 C1174 1.415 . S
C1176 C1181 1.425 . S
C1176 C1183 1.409 . S
C1177 H1169 0.930 . S
C1177 C1175 1.419 . S
C1177 C1178 1.362 . S
C1178 H1170 0.930 . S
C1178 C1177 1.362 . S
C1178 C1181 1.409 . S
C1179 H1171 0.930 . S
C1179 C1180 1.355 . S
C1179 C1181 1.415 . S
C1180 C1179 1.355 . S
C1180 C1182 1.419 . S
C1181 C1176 1.425 . S
C1181 C1178 1.409 . S
C1181 C1179 1.415 . S
C1182 H1172 0.930 . S
C1182 C1180 1.419 . S
C1182 C1183 1.362 . S
C1183 H1173 0.930 . S
C1183 C1176 1.409 . S
C1183 C1182 1.362 . S
H1184 C1190 0.930 . S
H1185 C1193 0.930 . S
H1186 C1194 0.930 . S
H1187 C1195 0.930 . S
H1188 C1198 0.930 1_556 S
H1189 C1199 0.930 . S
C1190 H1184 0.930 . S
C1190 C1191 1.355 . S
C1190 C1192 1.415 . S
C1191 C1190 1.355 . S
C1191 C1193 1.419 . S
C1192 C1190 1.415 . S
C1192 C1197 1.425 . S
C1192 C1199 1.409 . S
C1193 H1185 0.930 . S
C1193 C1191 1.419 . S
C1193 C1194 1.362 . S
C1194 H1186 0.930 . S
C1194 C1193 1.362 . S
C1194 C1197 1.409 . S
C1195 H1187 0.930 . S
C1195 C1196 1.355 . S
C1195 C1197 1.415 . S
C1196 C1195 1.355 . S
C1196 C1198 1.419 . S
C1197 C1192 1.425 . S
C1197 C1194 1.409 . S
C1197 C1195 1.415 . S
C1198 H1188 0.930 1_554 S
C1198 C1196 1.419 . S
C1198 C1199 1.362 . S
C1199 H1189 0.930 . S
C1199 C1192 1.409 . S
C1199 C1198 1.362 . S
H1200 C1206 0.930 . S
H1201 C1209 0.930 . S
H1202 C1210 0.930 . S
H1203 C1211 0.930 . S
H1204 C1214 0.930 . S
H1205 C1215 0.930 . S
C1206 H1200 0.930 . S
C1206 C1207 1.355 . S
C1206 C1208 1.415 . S
C1207 C1206 1.355 . S
C1207 C1209 1.419 . S
C1208 C1206 1.415 . S
C1208 C1213 1.425 . S
C1208 C1215 1.409 . S
C1209 H1201 0.930 . S
C1209 C1207 1.419 . S
C1209 C1210 1.362 . S
C1210 H1202 0.930 . S
C1210 C1209 1.362 . S
C1210 C1213 1.409 . S
C1211 H1203 0.930 . S
C1211 C1212 1.355 . S
C1211 C1213 1.415 . S
C1212 C1211 1.355 . S
C1212 C1214 1.419 . S
C1213 C1208 1.425 . S
C1213 C1210 1.409 . S
C1213 C1211 1.415 . S
C1214 H1204 0.930 . S
C1214 C1212 1.419 . S
C1214 C1215 1.362 . S
C1215 H1205 0.930 . S
C1215 C1208 1.409 . S
C1215 C1214 1.362 . S
H1216 C1222 0.930 . S
H1217 C1225 0.930 . S
H1218 C1226 0.930 . S
H1219 C1227 0.930 . S
H1220 C1230 0.930 . S
H1221 C1231 0.930 . S
C1222 H1216 0.930 . S
C1222 C1223 1.355 . S
C1222 C1224 1.415 . S
C1223 C1222 1.355 . S
C1223 C1225 1.419 . S
C1224 C1222 1.415 . S
C1224 C1229 1.425 . S
C1224 C1231 1.409 . S
C1225 H1217 0.930 . S
C1225 C1223 1.419 . S
C1225 C1226 1.362 . S
C1226 H1218 0.930 . S
C1226 C1225 1.362 . S
C1226 C1229 1.409 . S
C1227 H1219 0.930 . S
C1227 C1228 1.355 . S
C1227 C1229 1.415 . S
C1228 C1227 1.355 . S
C1228 C1230 1.419 . S
C1229 C1224 1.425 . S
C1229 C1226 1.409 . S
C1229 C1227 1.415 . S
C1230 H1220 0.930 . S
C1230 C1228 1.419 . S
C1230 C1231 1.362 . S
C1231 H1221 0.930 . S
C1231 C1224 1.409 . S
C1231 C1230 1.362 . S
H1232 C1238 0.930 . S
H1233 C1241 0.930 . S
H1234 C1242 0.930 . S
H1235 C1243 0.930 . S
H1236 C1246 0.930 . S
H1237 C1247 0.930 . S
C1238 H1232 0.930 . S
C1238 C1239 1.355 . S
C1238 C1240 1.415 . S
C1239 C1238 1.355 . S
C1239 C1241 1.419 . S
C1240 C1238 1.415 . S
C1240 C1245 1.425 . S
C1240 C1247 1.409 . S
C1241 H1233 0.930 . S
C1241 C1239 1.419 . S
C1241 C1242 1.362 . S
C1242 H1234 0.930 . S
C1242 C1241 1.362 . S
C1242 C1245 1.409 . S
C1243 H1235 0.930 . S
C1243 C1244 1.355 . S
C1243 C1245 1.415 . S
C1244 C1243 1.355 . S
C1244 C1246 1.419 . S
C1245 C1240 1.425 . S
C1245 C1242 1.409 . S
C1245 C1243 1.415 . S
C1246 H1236 0.930 . S
C1246 C1244 1.419 . S
C1246 C1247 1.362 . S
C1247 H1237 0.930 . S
C1247 C1240 1.409 . S
C1247 C1246 1.362 . S
H1248 C1254 0.930 . S
H1249 C1257 0.930 . S
H1250 C1258 0.930 . S
H1251 C1259 0.930 . S
H1252 C1262 0.930 . S
H1253 C1263 0.930 . S
C1254 H1248 0.930 . S
C1254 C1255 1.355 1_554 S
C1254 C1256 1.411 1_554 S
C1255 C1254 1.355 1_556 S
C1255 C1257 1.419 . S
C1256 C1254 1.411 1_556 S
C1256 C1261 1.434 . S
C1256 C1263 1.404 1_556 S
C1257 H1249 0.930 . S
C1257 C1255 1.419 . S
C1257 C1258 1.362 . S
C1258 H1250 0.930 . S
C1258 C1257 1.362 . S
C1258 C1261 1.409 . S
C1259 H1251 0.930 . S
C1259 C1260 1.355 . S
C1259 C1261 1.415 . S
C1260 C1259 1.355 . S
C1260 C1262 1.419 1_556 S
C1261 C1256 1.434 . S
C1261 C1258 1.409 . S
C1261 C1259 1.415 . S
C1262 H1252 0.930 . S
C1262 C1260 1.419 1_554 S
C1262 C1263 1.362 . S
C1263 H1253 0.930 . S
C1263 C1256 1.404 1_554 S
C1263 C1262 1.362 . S
H1264 C1270 0.930 . S
H1265 C1273 0.930 . S
H1266 C1274 0.930 . S
H1267 C1275 0.930 1_545 S
H1268 C1278 0.930 1_545 S
H1269 C1279 0.930 . S
C1270 H1264 0.930 . S
C1270 C1271 1.355 . S
C1270 C1272 1.415 . S
C1271 C1270 1.355 . S
C1271 C1273 1.419 . S
C1272 C1270 1.415 . S
C1272 C1277 1.425 . S
C1272 C1279 1.409 . S
C1273 H1265 0.930 . S
C1273 C1271 1.419 . S
C1273 C1274 1.362 . S
C1274 H1266 0.930 . S
C1274 C1273 1.362 . S
C1274 C1277 1.409 . S
C1275 H1267 0.930 1_565 S
C1275 C1276 1.355 1_565 S
C1275 C1277 1.415 . S
C1276 C1275 1.355 1_545 S
C1276 C1278 1.419 1_545 S
C1277 C1272 1.425 . S
C1277 C1274 1.409 . S
C1277 C1275 1.415 . S
C1278 H1268 0.930 1_565 S
C1278 C1276 1.419 1_565 S
C1278 C1279 1.362 . S
C1279 H1269 0.930 . S
C1279 C1272 1.409 . S
C1279 C1278 1.362 . S
H1280 C1286 0.930 1_556 S
H1281 C1289 0.930 . S
H1282 C1290 0.930 . S
H1283 C1291 0.930 . S
H1284 C1294 0.930 . S
H1285 C1295 0.930 . S
C1286 H1280 0.930 1_554 S
C1286 C1287 1.355 . S
C1286 C1288 1.415 . S
C1287 C1286 1.355 . S
C1287 C1289 1.419 . S
C1288 C1286 1.415 . S
C1288 C1293 1.425 . S
C1288 C1295 1.409 1_554 S
C1289 H1281 0.930 . S
C1289 C1287 1.419 . S
C1289 C1290 1.362 . S
C1290 H1282 0.930 . S
C1290 C1289 1.362 . S
C1290 C1293 1.409 . S
C1291 H1283 0.930 . S
C1291 C1292 1.355 . S
C1291 C1293 1.415 . S
C1292 C1291 1.355 . S
C1292 C1294 1.419 1_554 S
C1293 C1288 1.425 . S
C1293 C1290 1.409 . S
C1293 C1291 1.415 . S
C1294 H1284 0.930 . S
C1294 C1292 1.419 1_556 S
C1294 C1295 1.362 . S
C1295 H1285 0.930 . S
C1295 C1288 1.409 1_556 S
C1295 C1294 1.362 . S
H1296 C1302 0.930 . S
H1297 C1305 0.930 . S
H1298 C1306 0.930 . S
H1299 C1307 0.930 . S
H1300 C1310 0.930 . S
H1301 C1311 0.930 . S
C1302 H1296 0.930 . S
C1302 C1303 1.355 1_545 S
C1302 C1304 1.415 . S
C1303 C1302 1.355 1_565 S
C1303 C1305 1.419 . S
C1304 C1302 1.415 . S
C1304 C1309 1.425 . S
C1304 C1311 1.409 . S
C1305 H1297 0.930 . S
C1305 C1303 1.419 . S
C1305 C1306 1.362 1_565 S
C1306 H1298 0.930 . S
C1306 C1305 1.362 1_545 S
C1306 C1309 1.409 . S
C1307 H1299 0.930 . S
C1307 C1308 1.355 . S
C1307 C1309 1.415 . S
C1308 C1307 1.355 . S
C1308 C1310 1.419 . S
C1309 C1304 1.425 . S
C1309 C1306 1.409 . S
C1309 C1307 1.415 . S
C1310 H1300 0.930 . S
C1310 C1308 1.419 . S
C1310 C1311 1.362 . S
C1311 H1301 0.930 . S
C1311 C1304 1.409 . S
C1311 C1310 1.362 . S
H1312 C1318 0.930 . S
H1313 C1321 0.930 . S
H1314 C1322 0.930 . S
H1315 C1323 0.930 . S
H1316 C1326 0.930 . S
H1317 C1327 0.930 . S
C1318 H1312 0.930 . S
C1318 C1319 1.355 . S
C1318 C1320 1.415 . S
C1319 C1318 1.355 . S
C1319 C1321 1.419 . S
C1320 C1318 1.415 . S
C1320 C1325 1.425 . S
C1320 C1327 1.409 . S
C1321 H1313 0.930 . S
C1321 C1319 1.419 . S
C1321 C1322 1.362 . S
C1322 H1314 0.930 . S
C1322 C1321 1.362 . S
C1322 C1325 1.409 . S
C1323 H1315 0.930 . S
C1323 C1324 1.355 . S
C1323 C1325 1.415 . S
C1324 C1323 1.355 . S
C1324 C1326 1.419 . S
C1325 C1320 1.425 . S
C1325 C1322 1.409 . S
C1325 C1323 1.415 . S
C1326 H1316 0.930 . S
C1326 C1324 1.419 . S
C1326 C1327 1.362 . S
C1327 H1317 0.930 . S
C1327 C1320 1.409 . S
C1327 C1326 1.362 . S
H1328 C1334 0.930 . S
H1329 C1337 0.930 . S
H1330 C1338 0.930 . S
H1331 C1339 0.930 . S
H1332 C1342 0.930 . S
H1333 C1343 0.930 . S
C1334 H1328 0.930 . S
C1334 C1335 1.355 . S
C1334 C1336 1.415 . S
C1335 C1334 1.355 . S
C1335 C1337 1.419 . S
C1336 C1334 1.415 . S
C1336 C1341 1.425 . S
C1336 C1343 1.409 . S
C1337 H1329 0.930 . S
C1337 C1335 1.419 . S
C1337 C1338 1.362 . S
C1338 H1330 0.930 . S
C1338 C1337 1.362 . S
C1338 C1341 1.409 . S
C1339 H1331 0.930 . S
C1339 C1340 1.355 1_545 S
C1339 C1341 1.415 . S
C1340 C1339 1.355 1_565 S
C1340 C1342 1.419 . S
C1341 C1336 1.425 . S
C1341 C1338 1.409 . S
C1341 C1339 1.415 . S
C1342 H1332 0.930 . S
C1342 C1340 1.419 . S
C1342 C1343 1.362 1_565 S
C1343 H1333 0.930 . S
C1343 C1336 1.409 . S
C1343 C1342 1.362 1_545 S
H1344 C1350 0.930 . S
H1345 C1353 0.930 . S
H1346 C1354 0.930 . S
H1347 C1355 0.930 . S
H1348 C1358 0.930 1_554 S
H1349 C1359 0.930 . S
C1350 H1344 0.930 . S
C1350 C1351 1.355 . S
C1350 C1352 1.415 . S
C1351 C1350 1.355 . S
C1351 C1353 1.419 . S
C1352 C1350 1.415 . S
C1352 C1357 1.425 . S
C1352 C1359 1.409 . S
C1353 H1345 0.930 . S
C1353 C1351 1.419 . S
C1353 C1354 1.362 . S
C1354 H1346 0.930 . S
C1354 C1353 1.362 . S
C1354 C1357 1.409 . S
C1355 H1347 0.930 . S
C1355 C1356 1.355 . S
C1355 C1357 1.415 . S
C1356 C1355 1.355 . S
C1356 C1358 1.419 . S
C1357 C1352 1.425 . S
C1357 C1354 1.409 . S
C1357 C1355 1.415 . S
C1358 H1348 0.930 1_556 S
C1358 C1356 1.419 . S
C1358 C1359 1.362 . S
C1359 H1349 0.930 . S
C1359 C1352 1.409 . S
C1359 C1358 1.362 . S
H1360 C1366 0.930 . S
H1361 C1369 0.930 . S
H1362 C1370 0.930 . S
H1363 C1371 0.923 1_545 S
H1364 C1374 0.930 1_545 S
H1365 C1375 0.930 . S
C1366 H1360 0.930 . S
C1366 C1367 1.355 . S
C1366 C1368 1.415 . S
C1367 C1366 1.355 . S
C1367 C1369 1.419 . S
C1368 C1366 1.415 . S
C1368 C1373 1.425 . S
C1368 C1375 1.409 . S
C1369 H1361 0.930 . S
C1369 C1367 1.419 . S
C1369 C1370 1.362 . S
C1370 H1362 0.930 . S
C1370 C1369 1.362 . S
C1370 C1373 1.409 . S
C1371 H1363 0.923 1_565 S
C1371 C1372 1.355 1_565 S
C1371 C1373 1.415 . S
C1372 C1371 1.355 1_545 S
C1372 C1374 1.419 1_545 S
C1373 C1368 1.425 . S
C1373 C1370 1.409 . S
C1373 C1371 1.415 . S
C1374 H1364 0.930 1_565 S
C1374 C1372 1.419 1_565 S
C1374 C1375 1.362 . S
C1375 H1365 0.930 . S
C1375 C1368 1.409 . S
C1375 C1374 1.362 . S
H1376 C1382 0.930 . S
H1377 C1385 0.930 . S
H1378 C1386 0.930 . S
H1379 C1387 0.930 . S
H1380 C1390 0.930 . S
H1381 C1391 0.930 . S
C1382 H1376 0.930 . S
C1382 C1383 1.355 . S
C1382 C1384 1.415 . S
C1383 C1382 1.355 . S
C1383 C1385 1.419 . S
C1384 C1382 1.415 . S
C1384 C1389 1.425 . S
C1384 C1391 1.409 . S
C1385 H1377 0.930 . S
C1385 C1383 1.419 . S
C1385 C1386 1.362 . S
C1386 H1378 0.930 . S
C1386 C1385 1.362 . S
C1386 C1389 1.409 . S
C1387 H1379 0.930 . S
C1387 C1388 1.355 . S
C1387 C1389 1.415 . S
C1388 C1387 1.355 . S
C1388 C1390 1.419 . S
C1389 C1384 1.425 . S
C1389 C1386 1.409 . S
C1389 C1387 1.415 . S
C1390 H1380 0.930 . S
C1390 C1388 1.419 . S
C1390 C1391 1.362 . S
C1391 H1381 0.930 . S
C1391 C1384 1.409 . S
C1391 C1390 1.362 . S
H1392 C1398 0.930 . S
H1393 C1401 0.930 . S
H1394 C1402 0.930 . S
H1395 C1403 0.930 . S
H1396 C1406 0.930 . S
H1397 C1407 0.930 . S
C1398 H1392 0.930 . S
C1398 C1399 1.355 . S
C1398 C1400 1.415 . S
C1399 C1398 1.355 . S
C1399 C1401 1.419 . S
C1400 C1398 1.415 . S
C1400 C1405 1.425 . S
C1400 C1407 1.409 . S
C1401 H1393 0.930 . S
C1401 C1399 1.419 . S
C1401 C1402 1.362 . S
C1402 H1394 0.930 . S
C1402 C1401 1.362 . S
C1402 C1405 1.409 . S
C1403 H1395 0.930 . S
C1403 C1404 1.355 . S
C1403 C1405 1.415 . S
C1404 C1403 1.355 . S
C1404 C1406 1.419 . S
C1405 C1400 1.425 . S
C1405 C1402 1.409 . S
C1405 C1403 1.415 . S
C1406 H1396 0.930 . S
C1406 C1404 1.419 . S
C1406 C1407 1.362 . S
C1407 H1397 0.930 . S
C1407 C1400 1.409 . S
C1407 C1406 1.362 . S
H1408 C1414 0.930 1_554 S
H1409 C1417 0.930 . S
H1410 C1418 0.930 . S
H1411 C1419 0.930 . S
H1412 C1422 0.930 . S
H1413 C1423 0.930 . S
C1414 H1408 0.930 1_556 S
C1414 C1415 1.355 . S
C1414 C1416 1.415 1_556 S
C1415 C1414 1.355 . S
C1415 C1417 1.419 . S
C1416 C1414 1.415 1_554 S
C1416 C1421 1.425 1_554 S
C1416 C1423 1.409 . S
C1417 H1409 0.930 . S
C1417 C1415 1.419 . S
C1417 C1418 1.362 . S
C1418 H1410 0.930 . S
C1418 C1417 1.362 . S
C1418 C1421 1.409 . S
C1419 H1411 0.930 . S
C1419 C1420 1.355 . S
C1419 C1421 1.415 1_554 S
C1420 C1419 1.355 . S
C1420 C1422 1.419 . S
C1421 C1416 1.425 1_556 S
C1421 C1418 1.409 . S
C1421 C1419 1.415 1_556 S
C1422 H1412 0.930 . S
C1422 C1420 1.419 . S
C1422 C1423 1.362 . S
C1423 H1413 0.930 . S
C1423 C1416 1.409 . S
C1423 C1422 1.362 . S
H1424 C1430 0.930 . S
H1425 C1433 0.930 . S
H1426 C1434 0.930 . S
H1427 C1435 0.930 . S
H1428 C1438 0.930 . S
H1429 C1439 0.930 . S
C1430 H1424 0.930 . S
C1430 C1431 1.355 . S
C1430 C1432 1.415 . S
C1431 C1430 1.355 . S
C1431 C1433 1.419 . S
C1432 C1430 1.415 . S
C1432 C1437 1.425 . S
C1432 C1439 1.409 . S
C1433 H1425 0.930 . S
C1433 C1431 1.419 . S
C1433 C1434 1.362 . S
C1434 H1426 0.930 . S
C1434 C1433 1.362 . S
C1434 C1437 1.409 . S
C1435 H1427 0.930 . S
C1435 C1436 1.355 . S
C1435 C1437 1.415 . S
C1436 C1435 1.355 . S
C1436 C1438 1.419 . S
C1437 C1432 1.425 . S
C1437 C1434 1.409 . S
C1437 C1435 1.415 . S
C1438 H1428 0.930 . S
C1438 C1436 1.419 . S
C1438 C1439 1.362 . S
C1439 H1429 0.930 . S
C1439 C1432 1.409 . S
C1439 C1438 1.362 . S
H1440 C1446 0.930 . S
H1441 C1449 0.930 . S
H1442 C1450 0.930 . S
H1443 C1451 0.930 . S
H1444 C1454 0.930 . S
H1445 C1455 0.930 . S
C1446 H1440 0.930 . S
C1446 C1447 1.355 . S
C1446 C1448 1.415 . S
C1447 C1446 1.355 . S
C1447 C1449 1.419 1_455 S
C1448 C1446 1.415 . S
C1448 C1453 1.425 1_455 S
C1448 C1455 1.409 . S
C1449 H1441 0.930 . S
C1449 C1447 1.419 1_655 S
C1449 C1450 1.362 . S
C1450 H1442 0.930 . S
C1450 C1449 1.362 . S
C1450 C1453 1.409 . S
C1451 H1443 0.930 . S
C1451 C1452 1.355 . S
C1451 C1453 1.415 . S
C1452 C1451 1.355 . S
C1452 C1454 1.419 1_655 S
C1453 C1448 1.425 1_655 S
C1453 C1450 1.409 . S
C1453 C1451 1.415 . S
C1454 H1444 0.930 . S
C1454 C1452 1.419 1_455 S
C1454 C1455 1.362 . S
C1455 H1445 0.930 . S
C1455 C1448 1.409 . S
C1455 C1454 1.362 . S
H1456 C1462 0.930 . S
H1457 C1465 0.930 . S
H1458 C1466 0.930 . S
H1459 C1467 0.930 . S
H1460 C1470 0.930 . S
H1461 C1471 0.930 . S
C1462 H1456 0.930 . S
C1462 C1463 1.355 . S
C1462 C1464 1.415 . S
C1463 C1462 1.355 . S
C1463 C1465 1.419 . S
C1464 C1462 1.415 . S
C1464 C1469 1.425 . S
C1464 C1471 1.409 . S
C1465 H1457 0.930 . S
C1465 C1463 1.419 . S
C1465 C1466 1.362 . S
C1466 H1458 0.930 . S
C1466 C1465 1.362 . S
C1466 C1469 1.409 . S
C1467 H1459 0.930 . S
C1467 C1468 1.355 . S
C1467 C1469 1.415 . S
C1468 C1467 1.355 . S
C1468 C1470 1.419 . S
C1469 C1464 1.425 . S
C1469 C1466 1.409 . S
C1469 C1467 1.415 . S
C1470 H1460 0.930 . S
C1470 C1468 1.419 . S
C1470 C1471 1.362 . S
C1471 H1461 0.930 . S
C1471 C1464 1.409 . S
C1471 C1470 1.362 . S
H1472 C1478 0.930 . S
H1473 C1481 0.930 . S
H1474 C1482 0.930 . S
H1475 C1483 0.930 . S
H1476 C1486 0.930 . S
H1477 C1487 0.930 . S
C1478 H1472 0.930 . S
C1478 C1479 1.355 . S
C1478 C1480 1.415 . S
C1479 C1478 1.355 . S
C1479 C1481 1.419 . S
C1480 C1478 1.415 . S
C1480 C1485 1.425 . S
C1480 C1487 1.409 . S
C1481 H1473 0.930 . S
C1481 C1479 1.419 . S
C1481 C1482 1.362 . S
C1482 H1474 0.930 . S
C1482 C1481 1.362 . S
C1482 C1485 1.409 . S
C1483 H1475 0.930 . S
C1483 C1484 1.355 . S
C1483 C1485 1.415 . S
C1484 C1483 1.355 . S
C1484 C1486 1.419 . S
C1485 C1480 1.425 . S
C1485 C1482 1.409 . S
C1485 C1483 1.415 . S
C1486 H1476 0.930 . S
C1486 C1484 1.419 . S
C1486 C1487 1.362 . S
C1487 H1477 0.930 . S
C1487 C1480 1.409 . S
C1487 C1486 1.362 . S
H1488 C1494 0.930 . S
H1489 C1497 0.930 . S
H1490 C1498 0.930 1_545 S
H1491 C1499 0.930 . S
H1492 C1502 0.930 . S
H1493 C1503 0.930 1_565 S
C1494 H1488 0.930 . S
C1494 C1495 1.355 1_455 S
C1494 C1496 1.415 . S
C1495 C1494 1.355 1_655 S
C1495 C1497 1.419 . S
C1496 C1494 1.415 . S
C1496 C1501 1.425 1_465 S
C1496 C1503 1.409 1_565 S
C1497 H1489 0.930 . S
C1497 C1495 1.419 . S
C1497 C1498 1.362 . S
C1498 H1490 0.930 1_565 S
C1498 C1497 1.362 . S
C1498 C1501 1.409 1_565 S
C1499 H1491 0.930 . S
C1499 C1500 1.355 1_655 S
C1499 C1501 1.415 . S
C1500 C1499 1.355 1_455 S
C1500 C1502 1.419 . S
C1501 C1496 1.425 1_645 S
C1501 C1498 1.409 1_545 S
C1501 C1499 1.415 . S
C1502 H1492 0.930 . S
C1502 C1500 1.419 . S
C1502 C1503 1.362 . S
C1503 H1493 0.930 1_545 S
C1503 C1496 1.409 1_545 S
C1503 C1502 1.362 . S
H1504 C1510 0.930 1_556 S
H1505 C1513 0.930 . S
H1506 C1514 0.930 . S
H1507 C1515 0.930 . S
H1508 C1518 0.930 . S
H1509 C1519 0.930 . S
C1510 H1504 0.930 1_554 S
C1510 C1511 1.355 . S
C1510 C1512 1.415 1_554 S
C1511 C1510 1.355 . S
C1511 C1513 1.419 . S
C1512 C1510 1.415 1_556 S
C1512 C1517 1.425 1_566 S
C1512 C1519 1.409 . S
C1513 H1505 0.930 . S
C1513 C1511 1.419 . S
C1513 C1514 1.362 1_565 S
C1514 H1506 0.930 . S
C1514 C1513 1.362 1_545 S
C1514 C1517 1.409 . S
C1515 H1507 0.930 . S
C1515 C1516 1.355 1_554 S
C1515 C1517 1.415 . S
C1516 C1515 1.355 1_556 S
C1516 C1518 1.419 . S
C1517 C1512 1.425 1_544 S
C1517 C1514 1.409 . S
C1517 C1515 1.415 . S
C1518 H1508 0.930 . S
C1518 C1516 1.419 . S
C1518 C1519 1.362 1_545 S
C1519 H1509 0.930 . S
C1519 C1512 1.409 . S
C1519 C1518 1.362 1_565 S
C503 C2 2.005 . S
C508 C403 1.904 . S
C519 C33 2.005 . S
C524 C186 1.848 . S
C535 C465 1.921 . S
C540 C64 2.019 . S
C551 C124 1.846 . S
C556 C95 1.991 . S
C567 C134 2.028 . S
C572 C303 1.898 . S
C583 C165 2.004 . S
C588 C86 1.846 . S
C599 C196 2.012 1_556 S
C604 C365 1.857 . S
C615 C227 1.995 . S
C620 C24 1.842 . S
C631 C155 1.842 . S
C636 C250 1.999 . S
C647 C281 2.008 . S
C652 C434 1.910 . S
C663 C312 2.004 . S
C668 C217 1.846 . S
C679 C343 2.011 . S
C684 C372 1.914 . S
C695 C55 1.869 . S
C700 C382 1.992 1_556 S
C711 C334 1.895 . S
C716 C413 2.000 . S
C727 C117 1.914 . S
C732 C444 2.029 . S
C743 C272 1.868 . S
C748 C475 1.991 . S
C759 C18 1.681 . S
C764 C11 1.681 . S
C775 C49 1.693 . S
C780 C42 1.693 1_554 S
C791 C73 1.700 . S
C796 C80 1.700 . S
C807 C104 1.704 . S
C812 C111 1.704 1_556 S
C823 C142 1.667 . S
C828 C135 1.667 . S
C839 C166 1.714 . S
C844 C173 1.714 1_556 S
C855 C204 1.671 . S
C860 C197 1.671 . S
C871 C235 1.674 . S
C876 C228 1.674 1_554 S
C887 C266 1.672 . S
C892 C259 1.672 . S
C903 C297 1.713 1_556 S
C908 C290 1.713 . S
C919 C328 1.707 . S
C924 C321 1.707 . S
C935 C359 1.669 . S
C940 C352 1.669 1_554 S
C951 C390 1.698 . S
C956 C383 1.698 . S
C967 C414 1.708 1_554 S
C972 C421 1.708 . S
C983 C452 1.673 . S
C988 C445 1.673 . S
C999 C476 1.668 . S
C1004 C483 1.668 1_556 S
C1015 C0 0.822 . S
C1020 C396 0.821 . S
C1031 C179 0.741 . S
C1036 C31 0.741 . S
C1047 C62 0.616 . S
C1052 C458 0.616 . S
C1063 C93 0.644 . S
C1068 C241 0.644 . S
C1079 C148 0.839 . S
C1084 C248 0.839 . S
C1095 C210 0.627 . S
C1100 C310 0.626 . S
C1111 C427 0.752 1_565 S
C1116 C279 0.752 1_545 S
C1127 C489 0.774 1_545 S
C1132 C341 0.774 1_565 S
C1143 C103 1.572 . S
C1148 C27 1.864 . S
C1159 C58 1.835 . S
C1164 C10 1.648 . S
C1175 C89 1.884 . S
C1180 C41 1.558 . S
C1191 C120 1.842 . S
C1196 C72 1.675 . S
C1207 C219 1.594 . S
C1212 C125 1.851 . S
C1223 C156 1.880 . S
C1228 C126 1.636 . S
C1239 C157 1.567 . S
C1244 C187 1.891 . S
C1255 C188 1.617 . S
C1260 C218 1.888 . S
C1271 C275 1.880 . S
C1276 C351 1.558 . S
C1287 C306 1.842 . S
C1292 C258 1.617 . S
C1303 C289 1.666 . S
C1308 C337 1.862 . S
C1319 C320 1.607 . S
C1324 C368 1.845 . S
C1335 C373 1.890 . S
C1340 C467 1.563 . S
C1351 C404 1.863 . S
C1356 C374 1.664 . S
C1367 C435 1.849 . S
C1372 C405 1.675 . S
C1383 C436 1.636 . S
C1388 C466 1.880 . S
C1399 C1 0.845 . S
C1404 C399 0.846 . S
C1415 C32 0.692 . S
C1420 C182 0.692 . S
C1431 C461 0.616 . S
C1436 C63 0.616 . S
C1447 C94 0.755 . S
C1452 C244 0.755 . S
C1463 C249 0.650 . S
C1468 C151 0.650 . S
C1479 C311 0.605 . S
C1484 C213 0.606 . S
C1495 C280 0.668 . S
C1500 C430 0.668 . S
C1511 C492 0.719 . S
C1516 C342 0.719 . S
