# Generated by pormake.
# Topology rkf, (6)-cn, num edge types: 1
# Building blocks:
#     Node 0, Type 0, BuildingBlock: VOLQOD_clean_sbu_1, # of connection points: 6
#     Node 1, Type 0, BuildingBlock: VOLQOD_clean_sbu_1, # of connection points: 6
#     Node 2, Type 0, BuildingBlock: VOLQOD_clean_sbu_1, # of connection points: 6
#     Node 3, Type 0, BuildingBlock: VOLQOD_clean_sbu_1, # of connection points: 6
#     Node 4, Type 0, BuildingBlock: VOLQOD_clean_sbu_1, # of connection points: 6
#     Node 5, Type 0, BuildingBlock: VOLQOD_clean_sbu_1, # of connection points: 6
#     Edge 6, Type (0, 0), BuildingBlock: UVAHIK_clean_linker_0, # of connection points: 2
#     Edge 7, Type (0, 0), BuildingBlock: UVAHIK_clean_linker_0, # of connection points: 2
#     Edge 8, Type (0, 0), BuildingBlock: UVAHIK_clean_linker_0, # of connection points: 2
#     Edge 9, Type (0, 0), BuildingBlock: UVAHIK_clean_linker_0, # of connection points: 2
#     Edge 10, Type (0, 0), BuildingBlock: UVAHIK_clean_linker_0, # of connection points: 2
#     Edge 11, Type (0, 0), BuildingBlock: UVAHIK_clean_linker_0, # of connection points: 2
#     Edge 12, Type (0, 0), BuildingBlock: UVAHIK_clean_linker_0, # of connection points: 2
#     Edge 13, Type (0, 0), BuildingBlock: UVAHIK_clean_linker_0, # of connection points: 2
#     Edge 14, Type (0, 0), BuildingBlock: UVAHIK_clean_linker_0, # of connection points: 2
#     Edge 15, Type (0, 0), BuildingBlock: UVAHIK_clean_linker_0, # of connection points: 2
#     Edge 16, Type (0, 0), BuildingBlock: UVAHIK_clean_linker_0, # of connection points: 2
#     Edge 17, Type (0, 0), BuildingBlock: UVAHIK_clean_linker_0, # of connection points: 2
#     Edge 18, Type (0, 0), BuildingBlock: UVAHIK_clean_linker_0, # of connection points: 2
#     Edge 19, Type (0, 0), BuildingBlock: UVAHIK_clean_linker_0, # of connection points: 2
#     Edge 20, Type (0, 0), BuildingBlock: UVAHIK_clean_linker_0, # of connection points: 2
#     Edge 21, Type (0, 0), BuildingBlock: UVAHIK_clean_linker_0, # of connection points: 2
#     Edge 22, Type (0, 0), BuildingBlock: UVAHIK_clean_linker_0, # of connection points: 2
#     Edge 23, Type (0, 0), BuildingBlock: UVAHIK_clean_linker_0, # of connection points: 2
# Relax obj value: 0.814
# Max RMSD: 0.323
# Mean RMSD: 0.323
data_MOF--net-rkf--node1-VOLQOD_clean_sbu_1--edge1-UVAHIK_clean_linker_0
_symmetry_space_group_name_H-M    P1
_symmetry_Int_Tables_number       1
_symmetry_cell_setting            triclinic
loop_
_symmetry_equiv_pos_as_xyz
'x, y, z'
_cell_length_a     35.579329
_cell_length_b     35.498137
_cell_length_c     47.077991
_cell_angle_alpha  90.013183
_cell_angle_beta   90.007155
_cell_angle_gamma 120.09868
loop_
_atom_site_label
_atom_site_type_symbol
_atom_site_fract_x
_atom_site_fract_y
_atom_site_fract_z
_atom_type_partial_charge
O0 O 0.16468 0.02002 0.03602 0.0
Zn1 Zn 0.18636 0.97894 0.02309 0.0
O2 O 0.24821 0.01212 0.01502 0.0
Zn3 Zn 0.26096 0.00785 0.97621 0.0
Zn4 Zn 0.26841 0.07229 0.02067 0.0
Zn5 Zn 0.27986 0.99283 0.03829 0.0
O6 O 0.316 0.00406 0.97286 0.0
O7 O 0.311 0.97058 0.01385 0.0
O8 O 0.15439 0.93793 0.98994 0.0
O9 O 0.21218 0.9518 0.96353 0.0
O10 O 0.25984 0.05461 0.95143 0.0
O11 O 0.26383 0.10087 0.98449 0.0
O12 O 0.32768 0.10192 0.03855 0.0
O13 O 0.17642 0.93929 0.05622 0.0
O14 O 0.32761 0.04484 0.05814 0.0
O15 O 0.2408 0.94767 0.06759 0.0
C16 C 0.18716 0.05662 0.04869 0.0
C17 C 0.3277 0.98308 0.98925 0.0
C18 C 0.25967 0.08922 0.95853 0.0
C19 C 0.17198 0.9288 0.96943 0.0
C20 C 0.34484 0.08585 0.05474 0.0
C21 C 0.19991 0.9298 0.07167 0.0
O22 O 0.22845 0.07731 0.04756 0.0
O23 O 0.16174 0.18267 0.32672 0.0
Zn24 Zn 0.22675 0.21938 0.3223 0.0
O25 O 0.24456 0.28034 0.32344 0.0
Zn26 Zn 0.26629 0.30558 0.28734 0.0
Zn27 Zn 0.19432 0.28521 0.33143 0.0
Zn28 Zn 0.289 0.30926 0.35158 0.0
O29 O 0.31776 0.36577 0.29201 0.0
O30 O 0.34341 0.35612 0.333 0.0
O31 O 0.25406 0.20576 0.28901 0.0
O32 O 0.29084 0.27186 0.26984 0.0
O33 O 0.21733 0.3016 0.26278 0.0
O34 O 0.16576 0.28782 0.29461 0.0
O35 O 0.20926 0.33508 0.35854 0.0
O36 O 0.24943 0.20436 0.35673 0.0
O37 O 0.27045 0.34216 0.37621 0.0
O38 O 0.29698 0.26652 0.37719 0.0
C39 C 0.14291 0.19151 0.34656 0.0
C40 C 0.34786 0.37827 0.31058 0.0
C41 C 0.17907 0.29378 0.2689 0.0
C42 C 0.28262 0.23273 0.27185 0.0
C43 C 0.24061 0.35197 0.37628 0.0
C44 C 0.27673 0.22491 0.37636 0.0
O45 O 0.15449 0.23078 0.35268 0.0
O46 O 0.00196 0.12465 0.68507 0.0
Zn47 Zn 0.04115 0.18995 0.68189 0.0
O48 O 0.00601 0.21682 0.67929 0.0
Zn49 Zn 0.01577 0.24517 0.64405 0.0
Zn50 Zn 0.94728 0.17044 0.67982 0.0
Zn51 Zn 0.01732 0.25753 0.70928 0.0
O52 O 0.01578 0.30176 0.64825 0.0
O53 O 0.04265 0.31823 0.69225 0.0
O54 O 0.08764 0.21154 0.65115 0.0
O55 O 0.0758 0.26279 0.63345 0.0
O56 O 0.97676 0.20209 0.61377 0.0
O57 O 0.93047 0.14548 0.63991 0.0
O58 O 0.90969 0.19257 0.69628 0.0
O59 O 0.07307 0.20748 0.71872 0.0
O60 O 0.95925 0.24661 0.72313 0.0
O61 O 0.05516 0.2516 0.74096 0.0
C62 C 0.97072 0.10897 0.70293 0.0
C63 C 0.03338 0.32921 0.66848 0.0
C64 C 0.94574 0.16266 0.61569 0.0
C65 C 0.0995 0.24566 0.63623 0.0
C66 C 0.92019 0.22286 0.71453 0.0
C67 C 0.07564 0.23043 0.7402 0.0
O68 O 0.94726 0.12635 0.70624 0.0
O69 O 0.93264 0.18398 0.974 0.0
Zn70 Zn 0.86972 0.14238 0.9821 0.0
O71 O 0.85558 0.0822 0.97669 0.0
Zn72 Zn 0.81827 0.05484 0.9445 0.0
Zn73 Zn 0.90724 0.07881 0.97378 0.0
Zn74 Zn 0.8252 0.05119 0.00996 0.0
O75 O 0.75678 0.0123 0.95739 0.0
O76 O 0.76092 0.02508 0.00386 0.0
O77 O 0.83261 0.15563 0.95622 0.0
O78 O 0.8102 0.10087 0.92519 0.0
O79 O 0.84374 0.02724 0.91747 0.0
O80 O 0.90823 0.04997 0.93751 0.0
O81 O 0.90996 0.04338 0.00635 0.0
O82 O 0.86888 0.15664 0.02383 0.0
O83 O 0.84115 0.00648 0.02031 0.0
O84 O 0.84739 0.09218 0.04314 0.0
C85 C 0.96448 0.17722 0.97528 0.0
C86 C 0.73851 0.00887 0.98135 0.0
C87 C 0.881 0.02988 0.9177 0.0
C88 C 0.81326 0.13672 0.93323 0.0
C89 C 0.87994 0.01351 0.0213 0.0
C90 C 0.86387 0.13318 0.04557 0.0
O91 O 0.95874 0.1388 0.97628 0.0
O92 O 0.99069 0.85109 0.36087 0.0
Zn93 Zn 0.93369 0.84138 0.3453 0.0
O94 O 0.89167 0.77971 0.3458 0.0
Zn95 Zn 0.87204 0.75756 0.30828 0.0
Zn96 Zn 0.92017 0.74977 0.3604 0.0
Zn97 Zn 0.84329 0.76822 0.36951 0.0
O98 O 0.80666 0.72346 0.30612 0.0
O99 O 0.78848 0.74307 0.34643 0.0
O100 O 0.9412 0.86621 0.30557 0.0
O101 O 0.89349 0.80742 0.28163 0.0
O102 O 0.90097 0.72539 0.29316 0.0
O103 O 0.94781 0.7355 0.32751 0.0
O104 O 0.87887 0.69801 0.38431 0.0
O105 O 0.91565 0.87403 0.37252 0.0
O106 O 0.83387 0.7214 0.39691 0.0
O107 O 0.85436 0.82218 0.39172 0.0
C108 C 0.99583 0.83041 0.38124 0.0
C109 C 0.77817 0.72366 0.32248 0.0
C110 C 0.93477 0.7252 0.30193 0.0
C111 C 0.92172 0.84774 0.28257 0.0
C112 C 0.84753 0.69455 0.39948 0.0
C113 C 0.88448 0.86198 0.39019 0.0
O114 O 0.96757 0.79106 0.38659 0.0
O115 O 0.1608 0.98131 0.66363 0.0
Zn116 Zn 0.11884 0.91683 0.65762 0.0
O117 O 0.14906 0.88462 0.65962 0.0
Zn118 Zn 0.14642 0.8572 0.62445 0.0
Zn119 Zn 0.20911 0.92558 0.66691 0.0
Zn120 Zn 0.12387 0.8412 0.68844 0.0
O121 O 0.13825 0.79661 0.63105 0.0
O122 O 0.10067 0.78159 0.67144 0.0
O123 O 0.07807 0.89729 0.62382 0.0
O124 O 0.09291 0.84816 0.6056 0.0
O125 O 0.19595 0.89919 0.59911 0.0
O126 O 0.23923 0.95126 0.62925 0.0
O127 O 0.23549 0.89911 0.69299 0.0
O128 O 0.07938 0.9018 0.6908 0.0
O129 O 0.17298 0.84792 0.71174 0.0
O130 O 0.08004 0.84777 0.71387 0.0
C131 C 0.18905 0.99384 0.68353 0.0
C132 C 0.1145 0.76952 0.65024 0.0
C133 C 0.22899 0.93666 0.60392 0.0
C134 C 0.07027 0.86673 0.60637 0.0
C135 C 0.21433 0.8686 0.71092 0.0
C136 C 0.06653 0.87485 0.71125 0.0
O137 O 0.20844 0.97282 0.68913 0.0
C138 C 0.04432 0.21257 0.97742 0.0
C139 C 0.00636 0.21212 0.98585 0.0
C140 C 0.07825 0.22495 0.99672 0.0
C141 C 0.06789 0.18982 0.06602 0.0
H142 H 0.18626 0.21724 0.05233 0.0
C143 C 0.12319 0.06741 0.0555 0.0
C144 C 0.16632 0.07942 0.06183 0.0
C145 C 0.10779 0.0958 0.06177 0.0
C146 C 0.15357 0.21006 0.05726 0.0
H147 H 0.97707 0.23185 0.0187 0.0
H148 H 0.03548 0.25158 0.05281 0.0
H149 H 0.16003 0.26224 0.031 0.0
H150 H 0.22506 0.12761 0.08333 0.0
H151 H 0.19835 0.17724 0.09353 0.0
H152 H 0.05986 0.13437 0.08929 0.0
C153 C 0.03948 0.24301 0.03138 0.0
C154 C 0.13868 0.23599 0.04506 0.0
C155 C 0.0061 0.23186 0.01171 0.0
C156 C 0.19193 0.11783 0.07751 0.0
C157 C 0.17668 0.14625 0.08356 0.0
C158 C 0.08259 0.16346 0.07783 0.0
C159 C 0.07381 0.23575 0.02482 0.0
C160 C 0.0948 0.22404 0.04753 0.0
C161 C 0.13536 0.13658 0.07437 0.0
C162 C 0.12463 0.17167 0.07183 0.0
H163 H 0.0452 0.19755 0.95757 0.0
H164 H 0.10447 0.21925 0.99096 0.0
H165 H 0.03383 0.17976 0.06836 0.0
H166 H 0.10255 0.03793 0.04367 0.0
H167 H 0.07575 0.08758 0.05432 0.0
C168 C 0.06779 0.89166 0.3945 0.0
C169 C 0.02768 0.8568 0.40307 0.0
C170 C 0.08858 0.92901 0.41123 0.0
C171 C 0.11652 0.01236 0.44277 0.0
H172 H 0.0156 0.02392 0.42788 0.0
C173 C 0.1277 0.16821 0.397 0.0
C174 C 0.11861 0.15775 0.36799 0.0
C175 C 0.11474 0.13528 0.41728 0.0
C176 C 0.04388 0.02147 0.43321 0.0
H177 H 0.98176 0.82981 0.43781 0.0
H178 H 0.01726 0.8958 0.46657 0.0
H179 H 0.0057 0.95352 0.44148 0.0
H180 H 0.08608 0.10526 0.33772 0.0
H181 H 0.0613 0.04756 0.37344 0.0
H182 H 0.15448 0.07972 0.43139 0.0
C183 C 0.03294 0.89435 0.44721 0.0
C184 C 0.03842 0.98123 0.4412 0.0
C185 C 0.01266 0.85653 0.43071 0.0
C186 C 0.09309 0.11406 0.35992 0.0
C187 C 0.07898 0.08123 0.38032 0.0
C188 C 0.12194 0.05286 0.43522 0.0
C189 C 0.0686 0.9322 0.43621 0.0
C190 C 0.07473 0.9755 0.44346 0.0
C191 C 0.09124 0.09162 0.40891 0.0
C192 C 0.08558 0.05661 0.42824 0.0
H193 H 0.08006 0.89232 0.37332 0.0
H194 H 0.11629 0.95745 0.40221 0.0
H195 H 0.14489 0.00872 0.44444 0.0
H196 H 0.14799 0.2017 0.40374 0.0
H197 H 0.12487 0.1438 0.43917 0.0
C198 C 0.19445 0.01572 0.73428 0.0
C199 C 0.18871 0.02319 0.7056 0.0
C200 C 0.17961 0.0317 0.75604 0.0
C201 C 0.09292 0.02068 0.77783 0.0
H202 H 0.09099 0.12854 0.77511 0.0
C203 C 0.98028 0.04823 0.71978 0.0
C204 C 0.97301 0.08255 0.72607 0.0
C205 C -0.00032 0.03462 0.73991 0.0
C206 C 0.09143 0.09847 0.77753 0.0
H207 H 0.16896 0.05823 0.6774 0.0
H208 H 0.1446 0.08755 0.71537 0.0
H209 H 0.15876 0.12934 0.76633 0.0
H210 H 0.97516 0.12618 0.7591 0.0
H211 H 0.01149 0.10407 0.79373 0.0
H212 H 0.02427 0.98933 0.78426 0.0
C213 C 0.15992 0.06881 0.72105 0.0
C214 C 0.13029 0.09898 0.77233 0.0
C215 C 0.17358 0.05184 0.69925 0.0
C216 C 0.98018 0.09928 0.75388 0.0
C217 C 0.00086 0.08661 0.77377 0.0
C218 C 0.05398 0.02023 0.7826 0.0
C219 C 0.16022 0.05653 0.74945 0.0
C220 C 0.13016 0.0596 0.76963 0.0
C221 C 0.01356 0.05642 0.76615 0.0
C222 C 0.05227 0.05856 0.77932 0.0
H223 H 0.20601 0.99369 0.73991 0.0
H224 H 0.17986 0.02159 0.77772 0.0
H225 H 0.09197 0.98977 0.77607 0.0
H226 H 0.97514 0.03509 0.69844 0.0
H227 H 0.00943 0.01155 0.73328 0.0
C228 C 0.23154 0.13938 0.94552 0.0
C229 C 0.24899 0.11325 0.93693 0.0
C230 C 0.21634 0.15779 0.92546 0.0
C231 C 0.15862 0.16232 0.87775 0.0
H232 H 0.22925 0.22794 0.81359 0.0
C233 C 0.09101 0.23211 0.79292 0.0
C234 C 0.10219 0.2301 0.76457 0.0
C235 C 0.11238 0.22419 0.81534 0.0
C236 C 0.2086 0.20918 0.83108 0.0
H237 H 0.26525 0.08733 0.90025 0.0
H238 H 0.24016 0.12093 0.86517 0.0
H239 H 0.25885 0.19968 0.84887 0.0
H240 H 0.14632 0.22077 0.73768 0.0
H241 H 0.18314 0.20736 0.77601 0.0
H242 H 0.10754 0.16958 0.85947 0.0
C243 C 0.23784 0.12661 0.88755 0.0
C244 C 0.22586 0.19318 0.85143 0.0
C245 C 0.25221 0.10736 0.90765 0.0
C246 C 0.13672 0.22248 0.75927 0.0
C247 C 0.15821 0.21502 0.78149 0.0
C248 C 0.14097 0.17751 0.85708 0.0
C249 C 0.219 0.15138 0.89624 0.0
C250 C 0.20105 0.16942 0.87495 0.0
C251 C 0.14564 0.21437 0.80992 0.0
C252 C 0.16555 0.20098 0.83323 0.0
H253 H 0.22813 0.14437 0.96786 0.0
H254 H 0.20227 0.17694 0.93282 0.0
H255 H 0.13854 0.14379 0.89554 0.0
H256 H 0.06449 0.23779 0.79773 0.0
H257 H 0.10228 0.22511 0.83688 0.0
C258 C 0.10703 0.28221 0.25142 0.0
C259 C 0.14808 0.28718 0.24553 0.0
C260 C 0.07602 0.27092 0.22983 0.0
C261 C 0.04401 0.21208 0.16224 0.0
H262 H 0.96976 0.26229 0.15325 0.0
C263 C 0.88922 0.12876 0.09449 0.0
C264 C 0.88679 0.15436 0.0725 0.0
C265 C 0.91936 0.14788 0.1165 0.0
C266 C 0.99033 0.24806 0.15554 0.0
H267 H 0.18899 0.28556 0.21191 0.0
H268 H 0.13483 0.26553 0.17447 0.0
H269 H 0.02796 0.29215 0.18899 0.0
H270 H 0.91235 0.22079 0.05786 0.0
H271 H 0.96418 0.25418 0.09693 0.0
H272 H 0.00619 0.16765 0.12918 0.0
C273 C 0.12663 0.27026 0.19583 0.0
C274 C 0.02347 0.26498 0.17604 0.0
C275 C 0.1578 0.28205 0.21731 0.0
C276 C 0.91304 0.19999 0.07443 0.0
C277 C 0.94291 0.21918 0.09675 0.0
C278 C 0.01056 0.19479 0.14214 0.0
C279 C 0.08511 0.26381 0.20191 0.0
C280 C 0.05068 0.24713 0.17963 0.0
C281 C 0.94744 0.19314 0.1174 0.0
C282 C 0.9832 0.2124 0.13866 0.0
H283 H 0.09838 0.28593 0.27287 0.0
H284 H 0.04428 0.266 0.23525 0.0
H285 H 0.06411 0.19733 0.1646 0.0
H286 H 0.86967 0.09357 0.09385 0.0
H287 H 0.92171 0.12706 0.13237 0.0
C288 C 0.89967 0.09019 0.59153 0.0
C289 C 0.93137 0.13464 0.58975 0.0
C290 C 0.89092 0.06233 0.56824 0.0
C291 C 0.94339 0.05243 0.503 0.0
H292 H 0.82822 0.95721 0.48519 0.0
C293 C 0.91439 0.93922 0.40706 0.0
C294 C 0.88511 0.89443 0.41062 0.0
C295 C 0.91721 0.96947 0.42732 0.0
C296 C 0.8607 0.98335 0.49002 0.0
H297 H 0.97729 0.18471 0.56131 0.0
H298 H 0.96169 0.13634 0.52077 0.0
H299 H 0.83757 0.00824 0.52304 0.0
H300 H 0.83553 0.84662 0.43843 0.0
H301 H 0.84136 0.89911 0.47407 0.0
H302 H 0.96675 0.02725 0.47047 0.0
C303 C 0.94405 0.12286 0.54036 0.0
C304 C 0.86604 0.01273 0.51174 0.0
C305 C 0.95269 0.15075 0.5636 0.0
C306 C 0.85825 0.88084 0.43481 0.0
C307 C 0.86149 0.91107 0.45527 0.0
C308 C 0.93809 0.02301 0.48138 0.0
C309 C 0.91372 0.07807 0.54252 0.0
C310 C 0.9075 0.04762 0.51861 0.0
C311 C 0.89141 0.95582 0.45201 0.0
C312 C 0.89668 0.98792 0.47459 0.0
H313 H 0.88264 0.07645 0.61128 0.0
H314 H 0.86756 0.02804 0.57082 0.0
H315 H 0.97593 0.07833 0.50799 0.0
H316 H 0.93546 0.95101 0.38865 0.0
H317 H 0.93971 0.00368 0.4236 0.0
C318 C 0.93713 0.01898 0.89296 0.0
C319 C 0.89347 0.00841 0.89537 0.0
C320 C 0.94949 0.99738 0.8736 0.0
C321 C 0.91468 0.92947 0.80849 0.0
H322 H 0.00804 0.90891 0.83028 0.0
C323 C 0.01767 0.9029 0.72619 0.0
C324 C 0.03687 0.87752 0.73246 0.0
C325 C 0.99326 0.90993 0.74644 0.0
C326 C 0.98131 0.91343 0.82394 0.0
H327 H 0.82865 0.96702 0.8787 0.0
H328 H 0.85018 0.9287 0.84492 0.0
H329 H 0.97911 0.93883 0.86473 0.0
H330 H 0.04399 0.83842 0.76501 0.0
H331 H 0.00085 0.85057 0.80067 0.0
H332 H 0.91673 0.90385 0.76774 0.0
C333 C 0.87496 0.95416 0.85797 0.0
C334 C 0.96519 0.93144 0.8436 0.0
C335 C 0.86255 0.97611 0.87735 0.0
C336 C 0.02965 0.85807 0.75943 0.0
C337 C 0.00516 0.86533 0.77992 0.0
C338 C 0.93062 0.91121 0.78887 0.0
C339 C 0.91859 0.96417 0.85611 0.0
C340 C 0.93245 0.94081 0.83595 0.0
C341 C 0.98713 0.89191 0.77378 0.0
C342 C 0.96502 0.90404 0.79605 0.0
H343 H 0.96205 0.04403 0.90618 0.0
H344 H 0.98354 0.00702 0.87227 0.0
H345 H 0.88958 0.93623 0.80172 0.0
H346 H 0.02232 0.91844 0.70567 0.0
H347 H 0.98074 0.93116 0.7409 0.0
C348 C 0.00848 0.73966 0.28655 0.0
C349 C 0.96434 0.72361 0.28025 0.0
C350 C 0.03899 0.75093 0.26466 0.0
C351 C 0.05078 0.74796 0.18554 0.0
H352 H 0.14861 0.86428 0.19702 0.0
C353 C 0.13336 0.87003 0.09479 0.0
C354 C 0.17867 0.89786 0.09502 0.0
C355 C 0.11232 0.84173 0.1174 0.0
C356 C 0.12201 0.83146 0.19357 0.0
H357 H 0.91723 0.70234 0.24601 0.0
H358 H 0.96996 0.72211 0.20818 0.0
H359 H 0.10228 0.82457 0.23704 0.0
H360 H 0.23753 0.917 0.11906 0.0
H361 H 0.20044 0.86779 0.15901 0.0
H362 H 0.06935 0.75609 0.14167 0.0
C363 C 0.98137 0.72616 0.2299 0.0
C364 C 0.09541 0.80851 0.21658 0.0
C365 C 0.95094 0.71487 0.25172 0.0
C366 C 0.2026 0.89596 0.11821 0.0
C367 C 0.18137 0.86793 0.14112 0.0
C368 C 0.0772 0.77104 0.16251 0.0
C369 C 0.02604 0.74627 0.23601 0.0
C370 C 0.05863 0.76696 0.21272 0.0
C371 C 0.13591 0.84075 0.14103 0.0
C372 C 0.11235 0.81357 0.16611 0.0
H373 H 0.02005 0.74666 0.30826 0.0
H374 H 0.07301 0.76535 0.27019 0.0
H375 H 0.02332 0.71573 0.18183 0.0
H376 H 0.11389 0.87045 0.07723 0.0
H377 H 0.07724 0.8217 0.1168 0.0
C378 C 0.27663 0.012 0.58397 0.0
C379 C 0.24961 0.96691 0.57947 0.0
C380 C 0.28694 0.04167 0.56154 0.0
C381 C 0.23889 0.0487 0.49392 0.0
H382 H 0.34747 0.15641 0.48209 0.0
C383 C 0.26221 0.15328 0.39595 0.0
C384 C 0.28228 0.19877 0.39908 0.0
C385 C 0.26303 0.12723 0.41784 0.0
C386 C 0.31681 0.12667 0.48532 0.0
H387 H 0.21565 0.9178 0.54709 0.0
H388 H 0.23415 0.96923 0.50817 0.0
H389 H 0.342 0.10621 0.51986 0.0
H390 H 0.3203 0.25247 0.42776 0.0
H391 H 0.3216 0.20657 0.46635 0.0
H392 H 0.21335 0.06917 0.46007 0.0
C393 C 0.24648 0.98178 0.52918 0.0
C394 C 0.31372 0.09782 0.5069 0.0
C395 C 0.23621 0.95219 0.55152 0.0
C396 C 0.30459 0.21761 0.42455 0.0
C397 C 0.30539 0.19129 0.44666 0.0
C398 C 0.24193 0.07745 0.4726 0.0
C399 C 0.27046 0.02697 0.53408 0.0
C400 C 0.27479 0.05817 0.51123 0.0
C401 C 0.2838 0.14562 0.44375 0.0
C402 C 0.28101 0.11654 0.46766 0.0
H403 H 0.28754 0.02468 0.60516 0.0
H404 H 0.30553 0.07619 0.56611 0.0
H405 H 0.20798 0.01921 0.49712 0.0
H406 H 0.245 0.1374 0.37663 0.0
H407 H 0.24689 0.09236 0.41449 0.0
C408 C 0.3967 0.00538 0.96251 0.0
C409 C 0.36414 0.97641 0.98115 0.0
C410 C 0.43462 0.00328 0.95866 0.0
C411 C 0.5209 0.0124 0.97842 0.0
H412 H 0.5263 0.90718 0.96562 0.0
C413 C 0.67285 0.00279 0.00518 0.0
C414 C 0.6911 0.99252 0.98205 0.0
C415 C 0.6306 0.99575 0.00361 0.0
C416 C 0.52513 0.93674 0.96915 0.0
H417 H 0.34437 0.92064 0.00873 0.0
H418 H 0.41012 0.91646 0.00146 0.0
H419 H 0.45607 0.90473 0.96278 0.0
H420 H 0.67793 0.96368 0.93996 0.0
H421 H 0.60341 0.95023 0.93768 0.0
H422 H 0.5895 0.04415 0.9857 0.0
C423 C 0.40652 0.94099 0.99009 0.0
C424 C 0.48512 0.93535 0.96755 0.0
C425 C 0.36901 0.94357 0.99436 0.0
C426 C 0.66492 0.97206 0.95813 0.0
C427 C 0.62229 0.96435 0.95678 0.0
C428 C 0.5606 0.01358 0.98056 0.0
C429 C 0.44025 0.97165 0.97291 0.0
C430 C 0.48267 0.9732 0.97227 0.0
C431 C 0.60539 0.97756 0.97912 0.0
C432 C 0.56306 0.97574 0.97616 0.0
H433 H 0.39394 0.03109 0.9521 0.0
H434 H 0.46011 0.02715 0.94517 0.0
H435 H 0.51988 0.04192 0.98247 0.0
H436 H 0.69198 0.01862 0.02392 0.0
H437 H 0.61804 0.00577 0.02124 0.0
C438 C 0.40403 0.43555 0.27896 0.0
C439 C 0.38873 0.41968 0.3064 0.0
C440 C 0.44375 0.47404 0.27528 0.0
C441 C 0.52057 0.57559 0.30975 0.0
H442 H 0.61189 0.56574 0.27171 0.0
C443 C 0.69966 0.68929 0.33518 0.0
C444 C 0.7317 0.69801 0.31468 0.0
C445 C 0.65593 0.66117 0.3291 0.0
C446 C 0.58668 0.56964 0.28175 0.0
H447 H 0.40192 0.43213 0.35145 0.0
H448 H 0.47065 0.49987 0.34497 0.0
H449 H 0.53737 0.50514 0.26998 0.0
H450 H 0.74272 0.68603 0.27113 0.0
H451 H 0.66602 0.63776 0.26021 0.0
H452 H 0.56945 0.63979 0.32176 0.0
C453 C 0.45218 0.48234 0.32638 0.0
C454 C 0.54404 0.53479 0.28082 0.0
C455 C 0.41311 0.44349 0.33006 0.0
C456 C 0.71882 0.67963 0.28747 0.0
C457 C 0.67488 0.65179 0.28127 0.0
C458 C 0.563 0.61071 0.31028 0.0
C459 C 0.46801 0.49768 0.299 0.0
C460 C 0.51103 0.53701 0.29564 0.0
C461 C 0.64297 0.64144 0.30224 0.0
C462 C 0.5969 0.60755 0.29722 0.0
H463 H 0.38586 0.41769 0.26038 0.0
H464 H 0.45555 0.48532 0.25398 0.0
H465 H 0.49538 0.57806 0.32108 0.0
H466 H 0.70839 0.70273 0.3564 0.0
H467 H 0.63254 0.65344 0.346 0.0
C468 C 0.04718 0.40063 0.68828 0.0
C469 C 0.04227 0.37443 0.66459 0.0
C470 C 0.05393 0.4427 0.68471 0.0
C471 C 0.09554 0.53479 0.63585 0.0
H472 H 0.02249 0.56672 0.67848 0.0
C473 C 0.11032 0.70509 0.62443 0.0
C474 C 0.10447 0.72355 0.64927 0.0
C475 C 0.10121 0.66175 0.62429 0.0
C476 C 0.04369 0.55873 0.66669 0.0
H477 H 0.04163 0.37233 0.61852 0.0
H478 H 0.05448 0.4464 0.61236 0.0
H479 H 0.01111 0.49339 0.68263 0.0
H480 H 0.08541 0.71108 0.69361 0.0
H481 H 0.07114 0.63694 0.69364 0.0
H482 H 0.12927 0.60052 0.62068 0.0
C483 C 0.05267 0.43405 0.63366 0.0
C484 C 0.03693 0.51654 0.669 0.0
C485 C 0.04512 0.39162 0.63722 0.0
C486 C 0.08969 0.69785 0.67393 0.0
C487 C 0.08119 0.65498 0.6739 0.0
C488 C 0.10281 0.57734 0.63386 0.0
C489 C 0.05667 0.45982 0.65738 0.0
C490 C 0.06302 0.50422 0.65384 0.0
C491 C 0.08652 0.63608 0.64908 0.0
C492 C 0.07729 0.59008 0.64954 0.0
H493 H 0.04502 0.38837 0.70964 0.0
H494 H 0.05724 0.46199 0.70337 0.0
H495 H 0.11623 0.52616 0.624 0.0
H496 H 0.12161 0.72399 0.60506 0.0
H497 H 0.10531 0.6483 0.60467 0.0
C498 C 0.39894 0.09788 0.09263 0.0
C499 C 0.38029 0.115 0.07406 0.0
C500 C 0.41973 0.12033 0.11739 0.0
C501 C 0.43662 0.21666 0.161 0.0
H502 H 0.36625 0.12492 0.2144 0.0
C503 C 0.35502 0.25197 0.25289 0.0
C504 C 0.31092 0.22073 0.25636 0.0
C505 C 0.38252 0.2421 0.23766 0.0
C506 C 0.38609 0.15103 0.19982 0.0
H507 H 0.37629 0.17247 0.06389 0.0
H508 H 0.41052 0.21054 0.10704 0.0
H509 H 0.38997 0.10705 0.17101 0.0
H510 H 0.2612 0.15421 0.24793 0.0
H511 H 0.30825 0.13751 0.21947 0.0
H512 H 0.42802 0.25968 0.18812 0.0
C513 C 0.40946 0.17999 0.10305 0.0
C514 C 0.40066 0.14098 0.17503 0.0
C515 C 0.38926 0.15786 0.07816 0.0
C516 C 0.29503 0.17886 0.24529 0.0
C517 C 0.32232 0.16926 0.22935 0.0
C518 C 0.42118 0.22655 0.18547 0.0
C519 C 0.42136 0.15972 0.12411 0.0
C520 C 0.42314 0.17314 0.15425 0.0
C521 C 0.36628 0.20109 0.22488 0.0
C522 C 0.39311 0.19322 0.20412 0.0
H523 H 0.39387 0.06542 0.08949 0.0
H524 H 0.43026 0.10464 0.1326 0.0
H525 H 0.45531 0.24252 0.14598 0.0
H526 H 0.36832 0.28424 0.26197 0.0
H527 H 0.41628 0.26706 0.23534 0.0
C528 C 0.274 0.39514 0.41984 0.0
C529 C 0.23797 0.37512 0.40151 0.0
C530 C 0.2678 0.39721 0.44889 0.0
C531 C 0.24427 0.3864 0.51179 0.0
H532 H 0.14834 0.26909 0.52349 0.0
C533 C 0.16364 0.31098 0.61786 0.0
C534 C 0.13971 0.26537 0.61966 0.0
C535 C 0.18957 0.33112 0.59428 0.0
C536 C 0.17583 0.30156 0.52058 0.0
H537 H 0.16899 0.35177 0.39779 0.0
H538 H 0.1584 0.35699 0.4484 0.0
H539 H 0.161 0.3011 0.47681 0.0
H540 H 0.12916 0.20511 0.6011 0.0
H541 H 0.17558 0.24039 0.55988 0.0
H542 H 0.25925 0.38598 0.5559 0.0
C543 C 0.19108 0.36882 0.44061 0.0
C544 C 0.18231 0.32051 0.49391 0.0
C545 C 0.1972 0.36621 0.41155 0.0
C546 C 0.14728 0.24035 0.6 0.0
C547 C 0.17341 0.26056 0.57632 0.0
C548 C 0.2377 0.36732 0.5387 0.0
C549 C 0.22558 0.37995 0.45969 0.0
C550 C 0.2164 0.36319 0.48916 0.0
C551 C 0.19172 0.30576 0.57219 0.0
C552 C 0.20338 0.32461 0.54331 0.0
H553 H 0.30615 0.40368 0.41243 0.0
H554 H 0.29525 0.40688 0.46294 0.0
H555 H 0.27112 0.41917 0.50867 0.0
H556 H 0.1584 0.33083 0.63307 0.0
H557 H 0.20342 0.36595 0.5919 0.0
C558 C 0.84544 0.19522 0.73349 0.0
C559 C 0.88655 0.23035 0.72693 0.0
C560 C 0.81744 0.20149 0.7511 0.0
C561 C 0.7655 0.21703 0.79462 0.0
H562 H 0.84647 0.27817 0.85563 0.0
C563 C 0.807 0.20128 0.91815 0.0
C564 C 0.7957 0.15755 0.91441 0.0
C565 C 0.79732 0.22285 0.89704 0.0
C566 C 0.82253 0.26191 0.83908 0.0
H567 H 0.92814 0.30038 0.72947 0.0
H568 H 0.87863 0.31168 0.75927 0.0
H569 H 0.87016 0.29619 0.80753 0.0
H570 H 0.75976 0.10048 0.8878 0.0
H571 H 0.74446 0.13789 0.85091 0.0
H572 H 0.71915 0.17991 0.82686 0.0
C573 C 0.86857 0.27901 0.75202 0.0
C574 C 0.83632 0.27233 0.81106 0.0
C575 C 0.89699 0.27257 0.73503 0.0
C576 C 0.7701 0.13455 0.89095 0.0
C577 C 0.76054 0.15602 0.86991 0.0
C578 C 0.75164 0.20663 0.82279 0.0
C579 C 0.82994 0.24315 0.76206 0.0
C580 C 0.80935 0.24687 0.78864 0.0
C581 C 0.77649 0.20111 0.87179 0.0
C582 C 0.7816 0.22579 0.84518 0.0
H583 H 0.83652 0.16242 0.72719 0.0
H584 H 0.7881 0.1729 0.75829 0.0
H585 H 0.74326 0.1982 0.77775 0.0
H586 H 0.82587 0.21965 0.93639 0.0
H587 H 0.80922 0.25737 0.89946 0.0
C588 C 0.85998 0.96506 0.06368 0.0
C589 C 0.89166 0.99254 0.04404 0.0
C590 C 0.8721 0.95313 0.08873 0.0
C591 C 0.95538 0.94125 0.12511 0.0
H592 H 0.90531 0.96204 0.19241 0.0
C593 C 0.92703 0.85024 0.23001 0.0
C594 C 0.9327 0.87242 0.25579 0.0
C595 C 0.93358 0.8718 0.20423 0.0
C596 C 0.92025 0.95685 0.17391 0.0
H597 H 0.96063 0.02599 0.03423 0.0
H598 H 0.98156 0.00418 0.07801 0.0
H599 H 0.89203 0.98329 0.1459 0.0
H600 H 0.95177 0.93495 0.27498 0.0
H601 H 0.96217 0.97277 0.22945 0.0
H602 H 0.98216 0.91317 0.15314 0.0
C603 C 0.94748 0.99258 0.07401 0.0
C604 C 0.91218 0.96846 0.1473 0.0
C605 C 0.93541 0.0049 0.04896 0.0
C606 C 0.94699 0.91714 0.25536 0.0
C607 C 0.9529 0.93867 0.22941 0.0
C608 C 0.96308 0.92915 0.15177 0.0
C609 C 0.91603 0.96801 0.09452 0.0
C610 C 0.92866 0.95967 0.12264 0.0
C611 C 0.94547 0.91589 0.20365 0.0
C612 C 0.94465 0.9359 0.17631 0.0
H613 H 0.82598 0.95463 0.06052 0.0
H614 H 0.84718 0.93332 0.10403 0.0
H615 H 0.96858 0.9344 0.10636 0.0
H616 H 0.91662 0.81585 0.22972 0.0
H617 H 0.92712 0.85331 0.18474 0.0
C618 C 0.85494 0.64319 0.43234 0.0
C619 C 0.83405 0.66646 0.425 0.0
C620 C 0.85883 0.63506 0.46094 0.0
C621 C 0.91508 0.68491 0.50837 0.0
H622 H 0.87139 0.73294 0.56471 0.0
C623 C 0.03259 0.84226 0.56059 0.0
C624 C 0.03003 0.84593 0.59 0.0
C625 C 0.99801 0.80874 0.54591 0.0
C626 C 0.88397 0.71932 0.54937 0.0
H627 H 0.79042 0.68789 0.4406 0.0
H628 H 0.79991 0.67733 0.48965 0.0
H629 H 0.8206 0.67473 0.53362 0.0
H630 H 0.98899 0.81997 0.6271 0.0
H631 H 0.92827 0.76071 0.60142 0.0
H632 H 0.97819 0.72872 0.52455 0.0
C633 C 0.81429 0.66568 0.47429 0.0
C634 C 0.85489 0.68605 0.53131 0.0
C635 C 0.809 0.67223 0.44575 0.0
C636 C 0.99107 0.81814 0.60422 0.0
C637 C 0.9566 0.78396 0.5896 0.0
C638 C 0.9438 0.7173 0.52668 0.0
C639 C 0.84421 0.65262 0.48229 0.0
C640 C 0.87039 0.67119 0.50882 0.0
C641 C 0.96084 0.77758 0.56059 0.0
C642 C 0.9289 0.73718 0.54582 0.0
H643 H 0.87261 0.63597 0.41657 0.0
H644 H 0.87862 0.6208 0.46618 0.0
H645 H 0.92924 0.67434 0.49215 0.0
H646 H 0.06261 0.86307 0.54936 0.0
H647 H 0.00156 0.80559 0.52332 0.0
C648 C 0.26514 0.89778 0.75137 0.0
C649 C 0.23603 0.86164 0.73523 0.0
C650 C 0.26505 0.89427 0.78095 0.0
C651 C 0.20132 0.81914 0.84118 0.0
H652 H 0.18493 0.91647 0.85916 0.0
C653 C 0.16145 0.86034 0.95077 0.0
C654 C 0.14722 0.89075 0.95134 0.0
C655 C 0.1639 0.84226 0.92503 0.0
C656 C 0.18829 0.88847 0.85432 0.0
H657 H 0.19296 0.7918 0.7359 0.0
H658 H 0.19165 0.7858 0.78706 0.0
H659 H 0.22177 0.91788 0.8161 0.0
H660 H 0.11558 0.91884 0.92735 0.0
H661 H 0.11665 0.88469 0.88263 0.0
H662 H 0.16594 0.78927 0.87937 0.0
C663 C 0.21402 0.817 0.77766 0.0
C664 C 0.21091 0.88994 0.82992 0.0
C665 C 0.21482 0.82039 0.74815 0.0
C666 C 0.1268 0.89553 0.92734 0.0
C667 C 0.12839 0.87672 0.90163 0.0
C668 C 0.17828 0.81756 0.86573 0.0
C669 C 0.23536 0.85483 0.79432 0.0
C670 C 0.21771 0.85533 0.82287 0.0
C671 C 0.15129 0.85391 0.89979 0.0
C672 C 0.17118 0.85214 0.87243 0.0
H673 H 0.28257 0.92986 0.74185 0.0
H674 H 0.28369 0.92367 0.79333 0.0
H675 H 0.20579 0.79181 0.83638 0.0
H676 H 0.17737 0.85626 0.96919 0.0
H677 H 0.18109 0.82429 0.92459 0.0
loop_
_geom_bond_atom_site_label_1
_geom_bond_atom_site_label_2
_geom_bond_distance
_geom_bond_site_symmetry_2
_ccdc_geom_bond_type
O0 Zn1 1.953 . S
O0 C16 1.227 . S
Zn1 O0 1.953 . S
Zn1 O2 1.949 . S
Zn1 O8 1.919 1_544 S
Zn1 O13 1.924 1_545 S
O2 Zn1 1.949 . S
O2 Zn3 1.923 1_554 S
O2 Zn4 1.950 . S
O2 Zn5 1.945 . S
Zn3 O2 1.923 1_556 S
Zn3 O6 1.933 . S
Zn3 O9 1.941 . S
Zn3 O10 1.965 . S
Zn4 O2 1.950 . S
Zn4 O11 1.938 1_554 S
Zn4 O12 1.906 . S
Zn4 O22 1.953 . S
Zn5 O2 1.945 . S
Zn5 O7 1.932 . S
Zn5 O14 1.977 . S
Zn5 O15 1.910 . S
O6 Zn3 1.933 . S
O6 C17 1.226 1_556 S
O7 Zn5 1.932 . S
O7 C17 1.307 . S
O8 Zn1 1.919 1_566 S
O8 C19 1.253 . S
O9 Zn3 1.941 . S
O9 C19 1.283 1_545 S
O10 Zn3 1.965 . S
O10 C18 1.303 . S
O11 Zn4 1.938 1_556 S
O11 C18 1.247 . S
O12 Zn4 1.906 . S
O12 C20 1.304 . S
O13 Zn1 1.924 1_565 S
O13 C21 1.311 . S
O14 Zn5 1.977 . S
O14 C20 1.272 . S
O15 Zn5 1.910 . S
O15 C21 1.231 1_545 S
C16 O0 1.227 . S
C16 O22 1.298 . S
C17 O6 1.226 1_554 S
C17 O7 1.307 . S
C18 O10 1.303 . S
C18 O11 1.247 . S
C19 O8 1.253 . S
C19 O9 1.283 1_565 S
C20 O12 1.304 . S
C20 O14 1.272 . S
C21 O13 1.311 . S
C21 O15 1.231 1_565 S
O22 Zn4 1.953 . S
O22 C16 1.298 . S
O23 Zn24 1.953 . S
O23 C39 1.225 . S
Zn24 O23 1.953 . S
Zn24 O25 1.949 . S
Zn24 O31 1.919 . S
Zn24 O36 1.924 . S
O25 Zn24 1.949 . S
O25 Zn26 1.923 . S
O25 Zn27 1.950 . S
O25 Zn28 1.945 . S
Zn26 O25 1.923 . S
Zn26 O29 1.933 . S
Zn26 O32 1.941 . S
Zn26 O33 1.965 . S
Zn27 O25 1.950 . S
Zn27 O34 1.938 . S
Zn27 O35 1.906 . S
Zn27 O45 1.953 . S
Zn28 O25 1.945 . S
Zn28 O30 1.932 . S
Zn28 O37 1.977 . S
Zn28 O38 1.910 . S
O29 Zn26 1.933 . S
O29 C40 1.226 . S
O30 Zn28 1.932 . S
O30 C40 1.307 . S
O31 Zn24 1.919 . S
O31 C42 1.253 . S
O32 Zn26 1.941 . S
O32 C42 1.283 . S
O33 Zn26 1.965 . S
O33 C41 1.303 . S
O34 Zn27 1.938 . S
O34 C41 1.247 . S
O35 Zn27 1.906 . S
O35 C43 1.304 . S
O36 Zn24 1.924 . S
O36 C44 1.311 . S
O37 Zn28 1.977 . S
O37 C43 1.272 . S
O38 Zn28 1.910 . S
O38 C44 1.231 . S
C39 O23 1.225 . S
C39 O45 1.298 . S
C40 O29 1.226 . S
C40 O30 1.307 . S
C41 O33 1.303 . S
C41 O34 1.247 . S
C42 O31 1.253 . S
C42 O32 1.283 . S
C43 O35 1.304 . S
C43 O37 1.272 . S
C44 O36 1.311 . S
C44 O38 1.231 . S
O45 Zn27 1.953 . S
O45 C39 1.298 . S
O46 Zn47 1.953 . S
O46 C62 1.225 . S
Zn47 O46 1.953 . S
Zn47 O48 1.949 . S
Zn47 O54 1.919 . S
Zn47 O59 1.924 . S
O48 Zn47 1.949 . S
O48 Zn49 1.923 . S
O48 Zn50 1.950 1_455 S
O48 Zn51 1.945 . S
Zn49 O48 1.923 . S
Zn49 O52 1.933 . S
Zn49 O55 1.941 . S
Zn49 O56 1.965 1_455 S
Zn50 O48 1.950 1_655 S
Zn50 O57 1.938 . S
Zn50 O58 1.906 . S
Zn50 O68 1.953 1_655 S
Zn51 O48 1.945 . S
Zn51 O53 1.932 . S
Zn51 O60 1.977 . S
Zn51 O61 1.910 . S
O52 Zn49 1.933 . S
O52 C63 1.226 . S
O53 Zn51 1.932 . S
O53 C63 1.307 . S
O54 Zn47 1.919 . S
O54 C65 1.253 . S
O55 Zn49 1.941 . S
O55 C65 1.283 . S
O56 Zn49 1.965 1_655 S
O56 C64 1.303 . S
O57 Zn50 1.938 . S
O57 C64 1.247 . S
O58 Zn50 1.906 . S
O58 C66 1.304 . S
O59 Zn47 1.924 . S
O59 C67 1.311 . S
O60 Zn51 1.977 . S
O60 C66 1.272 1_455 S
O61 Zn51 1.910 . S
O61 C67 1.231 . S
C62 O46 1.225 . S
C62 O68 1.298 . S
C63 O52 1.226 . S
C63 O53 1.307 . S
C64 O56 1.303 . S
C64 O57 1.247 . S
C65 O54 1.253 . S
C65 O55 1.283 . S
C66 O58 1.304 . S
C66 O60 1.272 1_655 S
C67 O59 1.311 . S
C67 O61 1.231 . S
O68 Zn50 1.953 1_455 S
O68 C62 1.298 . S
O69 Zn70 1.953 . S
O69 C85 1.227 . S
Zn70 O69 1.953 . S
Zn70 O71 1.949 . S
Zn70 O77 1.919 1_554 S
Zn70 O82 1.924 . S
O71 Zn70 1.949 . S
O71 Zn72 1.923 1_554 S
O71 Zn73 1.950 1_545 S
O71 Zn74 1.945 . S
Zn72 O71 1.923 1_556 S
Zn72 O75 1.933 . S
Zn72 O78 1.941 . S
Zn72 O79 1.965 1_545 S
Zn73 O71 1.950 1_565 S
Zn73 O80 1.938 1_554 S
Zn73 O81 1.906 . S
Zn73 O91 1.953 . S
Zn74 O71 1.945 . S
Zn74 O76 1.932 . S
Zn74 O83 1.977 1_545 S
Zn74 O84 1.910 . S
O75 Zn72 1.933 . S
O75 C86 1.226 1_556 S
O76 Zn74 1.932 . S
O76 C86 1.307 . S
O77 Zn70 1.919 1_556 S
O77 C88 1.253 . S
O78 Zn72 1.941 . S
O78 C88 1.283 . S
O79 Zn72 1.965 1_565 S
O79 C87 1.303 . S
O80 Zn73 1.938 1_556 S
O80 C87 1.247 . S
O81 Zn73 1.906 . S
O81 C89 1.304 . S
O82 Zn70 1.924 . S
O82 C90 1.311 . S
O83 Zn74 1.977 1_565 S
O83 C89 1.272 . S
O84 Zn74 1.910 . S
O84 C90 1.231 . S
C85 O69 1.227 . S
C85 O91 1.298 1_545 S
C86 O75 1.226 1_554 S
C86 O76 1.307 . S
C87 O79 1.303 . S
C87 O80 1.247 . S
C88 O77 1.253 . S
C88 O78 1.283 . S
C89 O81 1.304 . S
C89 O83 1.272 . S
C90 O82 1.311 . S
C90 O84 1.231 . S
O91 Zn73 1.953 . S
O91 C85 1.298 1_565 S
O92 Zn93 1.953 . S
O92 C108 1.225 . S
Zn93 O92 1.953 . S
Zn93 O94 1.949 . S
Zn93 O100 1.919 . S
Zn93 O105 1.924 . S
O94 Zn93 1.949 . S
O94 Zn95 1.923 . S
O94 Zn96 1.950 . S
O94 Zn97 1.945 . S
Zn95 O94 1.923 . S
Zn95 O98 1.933 . S
Zn95 O101 1.941 . S
Zn95 O102 1.965 . S
Zn96 O94 1.950 . S
Zn96 O103 1.938 . S
Zn96 O104 1.906 . S
Zn96 O114 1.953 . S
Zn97 O94 1.945 . S
Zn97 O99 1.932 . S
Zn97 O106 1.977 . S
Zn97 O107 1.910 . S
O98 Zn95 1.933 . S
O98 C109 1.226 . S
O99 Zn97 1.932 . S
O99 C109 1.307 . S
O100 Zn93 1.919 . S
O100 C111 1.253 . S
O101 Zn95 1.941 . S
O101 C111 1.283 . S
O102 Zn95 1.965 . S
O102 C110 1.303 . S
O103 Zn96 1.938 . S
O103 C110 1.247 . S
O104 Zn96 1.906 . S
O104 C112 1.304 . S
O105 Zn93 1.924 . S
O105 C113 1.311 . S
O106 Zn97 1.977 . S
O106 C112 1.272 . S
O107 Zn97 1.910 . S
O107 C113 1.231 . S
C108 O92 1.225 . S
C108 O114 1.298 . S
C109 O98 1.226 . S
C109 O99 1.307 . S
C110 O102 1.303 . S
C110 O103 1.247 . S
C111 O100 1.253 . S
C111 O101 1.283 . S
C112 O104 1.304 . S
C112 O106 1.272 . S
C113 O105 1.311 . S
C113 O107 1.231 . S
O114 Zn96 1.953 . S
O114 C108 1.298 . S
O115 Zn116 1.953 . S
O115 C131 1.225 . S
Zn116 O115 1.953 . S
Zn116 O117 1.949 . S
Zn116 O123 1.919 . S
Zn116 O128 1.924 . S
O117 Zn116 1.949 . S
O117 Zn118 1.923 . S
O117 Zn119 1.950 . S
O117 Zn120 1.945 . S
Zn118 O117 1.923 . S
Zn118 O121 1.933 . S
Zn118 O124 1.941 . S
Zn118 O125 1.965 . S
Zn119 O117 1.950 . S
Zn119 O126 1.938 . S
Zn119 O127 1.906 . S
Zn119 O137 1.953 . S
Zn120 O117 1.945 . S
Zn120 O122 1.932 . S
Zn120 O129 1.977 . S
Zn120 O130 1.910 . S
O121 Zn118 1.933 . S
O121 C132 1.226 . S
O122 Zn120 1.932 . S
O122 C132 1.307 . S
O123 Zn116 1.919 . S
O123 C134 1.253 . S
O124 Zn118 1.941 . S
O124 C134 1.283 . S
O125 Zn118 1.965 . S
O125 C133 1.303 . S
O126 Zn119 1.938 . S
O126 C133 1.247 . S
O127 Zn119 1.906 . S
O127 C135 1.304 . S
O128 Zn116 1.924 . S
O128 C136 1.311 . S
O129 Zn120 1.977 . S
O129 C135 1.272 . S
O130 Zn120 1.910 . S
O130 C136 1.231 . S
C131 O115 1.225 . S
C131 O137 1.298 . S
C132 O121 1.226 . S
C132 O122 1.307 . S
C133 O125 1.303 . S
C133 O126 1.247 . S
C134 O123 1.253 . S
C134 O124 1.283 . S
C135 O127 1.304 . S
C135 O129 1.272 . S
C136 O128 1.311 . S
C136 O130 1.231 . S
O137 Zn119 1.953 . S
O137 C131 1.298 . S
C138 C139 1.349 1_556 S
C138 C140 1.327 . S
C138 H163 0.950 . S
C139 C138 1.349 1_554 S
C139 C155 1.364 . S
C140 C138 1.327 . S
C140 C159 1.429 1_556 S
C140 H164 0.950 . S
C141 C158 1.574 . S
C141 C160 1.368 . S
C141 H165 0.949 . S
H142 C146 0.949 . S
C143 C144 1.349 . S
C143 C145 1.327 . S
C143 H166 0.950 . S
C144 C143 1.349 . S
C144 C156 1.349 1_554 S
C145 C143 1.327 . S
C145 C161 1.429 . S
C145 H167 0.950 . S
C146 H142 0.949 . S
C146 C154 1.574 . S
C146 C162 1.368 1_556 S
H147 C155 0.944 1_565 S
H148 C153 0.950 1_565 S
H149 C154 0.949 . S
H150 C156 0.950 . S
H151 C157 0.950 . S
H152 C158 0.949 . S
C153 H148 0.950 1_545 S
C153 C155 1.318 . S
C153 C159 1.429 . S
C154 C146 1.574 . S
C154 H149 0.949 . S
C154 C160 1.368 1_556 S
C155 C139 1.364 . S
C155 H147 0.944 1_545 S
C155 C153 1.318 . S
C156 C144 1.349 1_556 S
C156 H150 0.950 . S
C156 C157 1.327 . S
C157 H151 0.950 . S
C157 C156 1.327 . S
C157 C161 1.429 1_556 S
C158 C141 1.574 . S
C158 H152 0.949 . S
C158 C162 1.368 . S
C159 C140 1.429 1_554 S
C159 C153 1.429 . S
C159 C160 1.523 1_655 S
C160 C141 1.368 . S
C160 C154 1.368 1_554 S
C160 C159 1.523 1_455 S
C161 C145 1.429 . S
C161 C157 1.429 1_554 S
C161 C162 1.523 . S
C162 C146 1.368 1_554 S
C162 C158 1.368 . S
C162 C161 1.523 . S
H163 C138 0.950 . S
H164 C140 0.950 . S
H165 C141 0.949 . S
H166 C143 0.950 . S
H167 C145 0.950 . S
C168 C169 1.349 . S
C168 C170 1.327 . S
C168 H193 0.950 . S
C169 C168 1.349 . S
C169 C185 1.349 . S
C170 C168 1.327 . S
C170 C189 1.429 . S
C170 H194 0.950 . S
C171 C188 1.574 . S
C171 C190 1.368 . S
C171 H195 0.949 1_545 S
H172 C176 0.949 . S
C173 C174 1.349 . S
C173 C175 1.327 . S
C173 H196 0.950 . S
C174 C173 1.349 . S
C174 C186 1.349 . S
C175 C173 1.327 . S
C175 C191 1.429 . S
C175 H197 0.950 . S
C176 H172 0.949 . S
C176 C184 1.574 . S
C176 C192 1.368 . S
H177 C185 0.950 . S
H178 C183 0.950 1_455 S
H179 C184 0.949 . S
H180 C186 0.950 . S
H181 C187 0.950 . S
H182 C188 0.949 . S
C183 H178 0.950 1_655 S
C183 C185 1.327 . S
C183 C189 1.429 . S
C184 C176 1.574 . S
C184 H179 0.949 . S
C184 C190 1.368 . S
C185 C169 1.349 . S
C185 H177 0.950 . S
C185 C183 1.327 . S
C186 C174 1.349 . S
C186 H180 0.950 . S
C186 C187 1.327 . S
C187 H181 0.950 . S
C187 C186 1.327 . S
C187 C191 1.429 . S
C188 C171 1.574 . S
C188 H182 0.949 . S
C188 C192 1.368 . S
C189 C170 1.429 . S
C189 C183 1.429 . S
C189 C190 1.523 1_665 S
C190 C171 1.368 . S
C190 C184 1.368 . S
C190 C189 1.523 1_445 S
C191 C175 1.429 . S
C191 C187 1.429 . S
C191 C192 1.523 . S
C192 C176 1.368 . S
C192 C188 1.368 . S
C192 C191 1.523 . S
H193 C168 0.950 . S
H194 C170 0.950 . S
H195 C171 0.949 1_565 S
H196 C173 0.950 . S
H197 C175 0.950 . S
C198 C199 1.349 . S
C198 C200 1.327 . S
C198 H223 0.950 . S
C199 C198 1.349 . S
C199 C215 1.349 . S
C200 C198 1.327 . S
C200 C219 1.429 . S
C200 H224 0.950 . S
C201 C218 1.574 . S
C201 C220 1.368 . S
C201 H225 0.949 1_545 S
H202 C206 0.949 . S
C203 C204 1.349 . S
C203 C205 1.327 . S
C203 H226 0.950 . S
C204 C203 1.349 . S
C204 C216 1.349 . S
C205 C203 1.327 . S
C205 C221 1.429 . S
C205 H227 0.950 . S
C206 H202 0.949 . S
C206 C214 1.574 . S
C206 C222 1.368 . S
H207 C215 0.950 . S
H208 C213 0.950 . S
H209 C214 0.949 . S
H210 C216 0.950 . S
H211 C217 0.950 . S
H212 C218 0.949 . S
C213 H208 0.950 . S
C213 C215 1.327 . S
C213 C219 1.429 . S
C214 C206 1.574 . S
C214 H209 0.949 . S
C214 C220 1.368 . S
C215 C199 1.349 . S
C215 H207 0.950 . S
C215 C213 1.327 . S
C216 C204 1.349 . S
C216 H210 0.950 . S
C216 C217 1.327 . S
C217 H211 0.950 . S
C217 C216 1.327 . S
C217 C221 1.429 . S
C218 C201 1.574 . S
C218 H212 0.949 . S
C218 C222 1.368 . S
C219 C200 1.429 . S
C219 C213 1.429 . S
C219 C220 1.523 1_565 S
C220 C201 1.368 . S
C220 C214 1.368 . S
C220 C219 1.523 1_545 S
C221 C205 1.429 . S
C221 C217 1.429 . S
C221 C222 1.523 . S
C222 C206 1.368 . S
C222 C218 1.368 . S
C222 C221 1.523 . S
H223 C198 0.950 . S
H224 C200 0.950 . S
H225 C201 0.949 1_565 S
H226 C203 0.950 . S
H227 C205 0.950 . S
C228 C229 1.349 . S
C228 C230 1.327 . S
C228 H253 0.950 . S
C229 C228 1.349 . S
C229 C245 1.349 . S
C230 C228 1.327 . S
C230 C249 1.429 . S
C230 H254 0.950 . S
C231 C248 1.574 . S
C231 C250 1.368 . S
C231 H255 0.949 . S
H232 C236 0.949 . S
C233 C234 1.349 . S
C233 C235 1.327 . S
C233 H256 0.950 . S
C234 C233 1.349 . S
C234 C246 1.349 . S
C235 C233 1.327 . S
C235 C251 1.429 . S
C235 H257 0.950 . S
C236 H232 0.949 . S
C236 C244 1.574 . S
C236 C252 1.368 . S
H237 C245 0.950 . S
H238 C243 0.950 . S
H239 C244 0.949 . S
H240 C246 0.950 . S
H241 C247 0.950 . S
H242 C248 0.949 . S
C243 H238 0.950 . S
C243 C245 1.327 . S
C243 C249 1.429 . S
C244 C236 1.574 . S
C244 H239 0.949 . S
C244 C250 1.368 . S
C245 C229 1.349 . S
C245 H237 0.950 . S
C245 C243 1.327 . S
C246 C234 1.349 . S
C246 H240 0.950 . S
C246 C247 1.327 . S
C247 H241 0.950 . S
C247 C246 1.327 . S
C247 C251 1.429 . S
C248 C231 1.574 . S
C248 H242 0.949 . S
C248 C252 1.368 . S
C249 C230 1.429 . S
C249 C243 1.429 . S
C249 C250 1.523 . S
C250 C231 1.368 . S
C250 C244 1.368 . S
C250 C249 1.523 . S
C251 C235 1.429 . S
C251 C247 1.429 . S
C251 C252 1.523 . S
C252 C236 1.368 . S
C252 C248 1.368 . S
C252 C251 1.523 . S
H253 C228 0.950 . S
H254 C230 0.950 . S
H255 C231 0.949 . S
H256 C233 0.950 . S
H257 C235 0.950 . S
C258 C259 1.349 . S
C258 C260 1.327 . S
C258 H283 0.950 . S
C259 C258 1.349 . S
C259 C275 1.349 . S
C260 C258 1.327 . S
C260 C279 1.429 . S
C260 H284 0.950 . S
C261 C278 1.574 . S
C261 C280 1.368 . S
C261 H285 0.949 . S
H262 C266 0.949 . S
C263 C264 1.349 . S
C263 C265 1.327 . S
C263 H286 0.950 . S
C264 C263 1.349 . S
C264 C276 1.349 . S
C265 C263 1.327 . S
C265 C281 1.429 . S
C265 H287 0.950 . S
C266 H262 0.949 . S
C266 C274 1.574 . S
C266 C282 1.368 . S
H267 C275 0.950 . S
H268 C273 0.950 . S
H269 C274 0.949 . S
H270 C276 0.950 . S
H271 C277 0.950 . S
H272 C278 0.949 . S
C273 H268 0.950 . S
C273 C275 1.327 . S
C273 C279 1.429 . S
C274 C266 1.574 . S
C274 H269 0.949 . S
C274 C280 1.368 . S
C275 C259 1.349 . S
C275 H267 0.950 . S
C275 C273 1.327 . S
C276 C264 1.349 . S
C276 H270 0.950 . S
C276 C277 1.327 . S
C277 H271 0.950 . S
C277 C276 1.327 . S
C277 C281 1.429 . S
C278 C261 1.574 . S
C278 H272 0.949 . S
C278 C282 1.368 . S
C279 C260 1.429 . S
C279 C273 1.429 . S
C279 C280 1.523 . S
C280 C261 1.368 . S
C280 C274 1.368 . S
C280 C279 1.523 . S
C281 C265 1.429 . S
C281 C277 1.429 . S
C281 C282 1.523 1_655 S
C282 C266 1.368 . S
C282 C278 1.368 . S
C282 C281 1.523 1_455 S
H283 C258 0.950 . S
H284 C260 0.950 . S
H285 C261 0.949 . S
H286 C263 0.950 . S
H287 C265 0.950 . S
C288 C289 1.349 . S
C288 C290 1.327 . S
C288 H313 0.950 . S
C289 C288 1.349 . S
C289 C305 1.349 . S
C290 C288 1.327 . S
C290 C309 1.429 . S
C290 H314 0.950 . S
C291 C308 1.574 . S
C291 C310 1.368 . S
C291 H315 0.949 . S
H292 C296 0.949 . S
C293 C294 1.349 . S
C293 C295 1.327 . S
C293 H316 0.950 . S
C294 C293 1.349 . S
C294 C306 1.349 . S
C295 C293 1.327 . S
C295 C311 1.429 . S
C295 H317 0.950 . S
C296 H292 0.949 . S
C296 C304 1.574 1_565 S
C296 C312 1.368 1_565 S
H297 C305 0.950 1_455 S
H298 C303 0.950 . S
H299 C304 0.949 . S
H300 C306 0.950 . S
H301 C307 0.950 . S
H302 C308 0.949 . S
C303 H298 0.950 . S
C303 C305 1.327 . S
C303 C309 1.429 . S
C304 C296 1.574 1_545 S
C304 H299 0.949 . S
C304 C310 1.368 . S
C305 C289 1.349 . S
C305 H297 0.950 1_655 S
C305 C303 1.327 . S
C306 C294 1.349 . S
C306 H300 0.950 . S
C306 C307 1.327 . S
C307 H301 0.950 . S
C307 C306 1.327 . S
C307 C311 1.429 . S
C308 C291 1.574 . S
C308 H302 0.949 . S
C308 C312 1.368 . S
C309 C290 1.429 . S
C309 C303 1.429 . S
C309 C310 1.523 . S
C310 C291 1.368 . S
C310 C304 1.368 . S
C310 C309 1.523 . S
C311 C295 1.429 . S
C311 C307 1.429 . S
C311 C312 1.523 1_565 S
C312 C296 1.368 1_545 S
C312 C308 1.368 . S
C312 C311 1.523 1_545 S
H313 C288 0.950 . S
H314 C290 0.950 . S
H315 C291 0.949 . S
H316 C293 0.950 . S
H317 C295 0.950 . S
C318 C319 1.349 . S
C318 C320 1.327 . S
C318 H343 0.950 . S
C319 C318 1.349 . S
C319 C335 1.349 . S
C320 C318 1.327 . S
C320 C339 1.429 . S
C320 H344 0.950 . S
C321 C338 1.574 . S
C321 C340 1.368 . S
C321 H345 0.949 . S
H322 C326 0.949 . S
C323 C324 1.349 1_455 S
C323 C325 1.327 1_455 S
C323 H346 0.950 . S
C324 C323 1.349 1_655 S
C324 C336 1.349 . S
C325 C323 1.327 1_655 S
C325 C341 1.429 . S
C325 H347 0.950 . S
C326 H322 0.949 . S
C326 C334 1.574 . S
C326 C342 1.368 . S
H327 C335 0.950 . S
H328 C333 0.950 . S
H329 C334 0.949 . S
H330 C336 0.950 . S
H331 C337 0.950 . S
H332 C338 0.949 . S
C333 H328 0.950 . S
C333 C335 1.327 . S
C333 C339 1.429 . S
C334 C326 1.574 . S
C334 H329 0.949 . S
C334 C340 1.368 . S
C335 C319 1.349 . S
C335 H327 0.950 . S
C335 C333 1.327 . S
C336 C324 1.349 . S
C336 H330 0.950 . S
C336 C337 1.327 . S
C337 H331 0.950 . S
C337 C336 1.327 . S
C337 C341 1.429 . S
C338 C321 1.574 . S
C338 H332 0.949 . S
C338 C342 1.368 . S
C339 C320 1.429 . S
C339 C333 1.429 . S
C339 C340 1.523 . S
C340 C321 1.368 . S
C340 C334 1.368 . S
C340 C339 1.523 . S
C341 C325 1.429 . S
C341 C337 1.429 . S
C341 C342 1.523 . S
C342 C326 1.368 . S
C342 C338 1.368 . S
C342 C341 1.523 . S
H343 C318 0.950 . S
H344 C320 0.950 . S
H345 C321 0.949 . S
H346 C323 0.950 . S
H347 C325 0.950 . S
C348 C349 1.349 . S
C348 C350 1.327 1_655 S
C348 H373 0.950 1_655 S
C349 C348 1.349 . S
C349 C365 1.349 . S
C350 C348 1.327 1_455 S
C350 C369 1.429 . S
C350 H374 0.950 . S
C351 C368 1.574 . S
C351 C370 1.368 . S
C351 H375 0.949 . S
H352 C356 0.949 . S
C353 C354 1.349 . S
C353 C355 1.327 . S
C353 H376 0.950 . S
C354 C353 1.349 . S
C354 C366 1.349 . S
C355 C353 1.327 . S
C355 C371 1.429 . S
C355 H377 0.950 . S
C356 H352 0.949 . S
C356 C364 1.574 . S
C356 C372 1.368 . S
H357 C365 0.950 . S
H358 C363 0.950 . S
H359 C364 0.949 . S
H360 C366 0.950 . S
H361 C367 0.950 . S
H362 C368 0.949 . S
C363 H358 0.950 . S
C363 C365 1.327 . S
C363 C369 1.429 1_655 S
C364 C356 1.574 . S
C364 H359 0.949 . S
C364 C370 1.368 . S
C365 C349 1.349 . S
C365 H357 0.950 . S
C365 C363 1.327 . S
C366 C354 1.349 . S
C366 H360 0.950 . S
C366 C367 1.327 . S
C367 H361 0.950 . S
C367 C366 1.327 . S
C367 C371 1.429 . S
C368 C351 1.574 . S
C368 H362 0.949 . S
C368 C372 1.368 . S
C369 C350 1.429 . S
C369 C363 1.429 1_455 S
C369 C370 1.523 . S
C370 C351 1.368 . S
C370 C364 1.368 . S
C370 C369 1.523 . S
C371 C355 1.429 . S
C371 C367 1.429 . S
C371 C372 1.523 . S
C372 C356 1.368 . S
C372 C368 1.368 . S
C372 C371 1.523 . S
H373 C348 0.950 1_455 S
H374 C350 0.950 . S
H375 C351 0.949 . S
H376 C353 0.950 . S
H377 C355 0.950 . S
C378 C379 1.349 . S
C378 C380 1.327 1_565 S
C378 H403 0.950 . S
C379 C378 1.349 . S
C379 C395 1.349 . S
C380 C378 1.327 1_545 S
C380 C399 1.429 1_545 S
C380 H404 0.950 . S
C381 C398 1.574 . S
C381 C400 1.368 . S
C381 H405 0.949 1_545 S
H382 C386 0.949 . S
C383 C384 1.349 . S
C383 C385 1.327 . S
C383 H406 0.950 . S
C384 C383 1.349 . S
C384 C396 1.349 . S
C385 C383 1.327 . S
C385 C401 1.429 . S
C385 H407 0.950 . S
C386 H382 0.949 . S
C386 C394 1.574 . S
C386 C402 1.368 . S
H387 C395 0.950 . S
H388 C393 0.950 . S
H389 C394 0.949 . S
H390 C396 0.950 . S
H391 C397 0.950 . S
H392 C398 0.949 . S
C393 H388 0.950 . S
C393 C395 1.327 . S
C393 C399 1.429 . S
C394 C386 1.574 . S
C394 H389 0.949 . S
C394 C400 1.368 . S
C395 C379 1.349 . S
C395 H387 0.950 . S
C395 C393 1.327 . S
C396 C384 1.349 . S
C396 H390 0.950 . S
C396 C397 1.327 . S
C397 H391 0.950 . S
C397 C396 1.327 . S
C397 C401 1.429 . S
C398 C381 1.574 . S
C398 H392 0.949 . S
C398 C402 1.368 . S
C399 C380 1.429 1_565 S
C399 C393 1.429 . S
C399 C400 1.523 1_565 S
C400 C381 1.368 . S
C400 C394 1.368 . S
C400 C399 1.523 1_545 S
C401 C385 1.429 . S
C401 C397 1.429 . S
C401 C402 1.523 . S
C402 C386 1.368 . S
C402 C398 1.368 . S
C402 C401 1.523 . S
H403 C378 0.950 . S
H404 C380 0.950 . S
H405 C381 0.949 1_565 S
H406 C383 0.950 . S
H407 C385 0.950 . S
C408 C409 1.349 1_556 S
C408 C410 1.327 . S
C408 H433 0.950 . S
C409 C408 1.349 1_554 S
C409 C425 1.349 . S
C410 C408 1.327 . S
C410 C429 1.429 1_556 S
C410 H434 0.950 . S
C411 C428 1.574 . S
C411 C430 1.368 . S
C411 H435 0.949 . S
H412 C416 0.949 . S
C413 C414 1.349 . S
C413 C415 1.327 . S
C413 H436 0.950 1_545 S
C414 C413 1.349 . S
C414 C426 1.349 1_554 S
C415 C413 1.327 . S
C415 C431 1.429 . S
C415 H437 0.950 1_545 S
C416 H412 0.949 . S
C416 C424 1.574 . S
C416 C432 1.368 1_556 S
H417 C425 0.950 . S
H418 C423 0.950 . S
H419 C424 0.949 . S
H420 C426 0.950 . S
H421 C427 0.950 . S
H422 C428 0.949 . S
C423 H418 0.950 . S
C423 C425 1.327 . S
C423 C429 1.429 . S
C424 C416 1.574 . S
C424 H419 0.949 . S
C424 C430 1.368 1_556 S
C425 C409 1.349 . S
C425 H417 0.950 . S
C425 C423 1.327 . S
C426 C414 1.349 1_556 S
C426 H420 0.950 . S
C426 C427 1.327 . S
C427 H421 0.950 . S
C427 C426 1.327 . S
C427 C431 1.429 1_556 S
C428 C411 1.574 . S
C428 H422 0.949 . S
C428 C432 1.368 . S
C429 C410 1.429 1_554 S
C429 C423 1.429 . S
C429 C430 1.523 . S
C430 C411 1.368 . S
C430 C424 1.368 1_554 S
C430 C429 1.523 . S
C431 C415 1.429 . S
C431 C427 1.429 1_554 S
C431 C432 1.523 . S
C432 C416 1.368 1_554 S
C432 C428 1.368 . S
C432 C431 1.523 . S
H433 C408 0.950 . S
H434 C410 0.950 . S
H435 C411 0.949 . S
H436 C413 0.950 1_565 S
H437 C415 0.950 1_565 S
C438 C439 1.349 . S
C438 C440 1.327 . S
C438 H463 0.950 . S
C439 C438 1.349 . S
C439 C455 1.349 . S
C440 C438 1.327 . S
C440 C459 1.429 . S
C440 H464 0.950 . S
C441 C458 1.574 . S
C441 C460 1.368 . S
C441 H465 0.949 . S
H442 C446 0.949 . S
C443 C444 1.349 . S
C443 C445 1.327 . S
C443 H466 0.950 . S
C444 C443 1.349 . S
C444 C456 1.349 . S
C445 C443 1.327 . S
C445 C461 1.429 . S
C445 H467 0.950 . S
C446 H442 0.949 . S
C446 C454 1.574 . S
C446 C462 1.368 . S
H447 C455 0.950 . S
H448 C453 0.950 . S
H449 C454 0.949 . S
H450 C456 0.950 . S
H451 C457 0.950 . S
H452 C458 0.949 . S
C453 H448 0.950 . S
C453 C455 1.327 . S
C453 C459 1.429 . S
C454 C446 1.574 . S
C454 H449 0.949 . S
C454 C460 1.368 . S
C455 C439 1.349 . S
C455 H447 0.950 . S
C455 C453 1.327 . S
C456 C444 1.349 . S
C456 H450 0.950 . S
C456 C457 1.327 . S
C457 H451 0.950 . S
C457 C456 1.327 . S
C457 C461 1.429 . S
C458 C441 1.574 . S
C458 H452 0.949 . S
C458 C462 1.368 . S
C459 C440 1.429 . S
C459 C453 1.429 . S
C459 C460 1.523 . S
C460 C441 1.368 . S
C460 C454 1.368 . S
C460 C459 1.523 . S
C461 C445 1.429 . S
C461 C457 1.429 . S
C461 C462 1.523 . S
C462 C446 1.368 . S
C462 C458 1.368 . S
C462 C461 1.523 . S
H463 C438 0.950 . S
H464 C440 0.950 . S
H465 C441 0.949 . S
H466 C443 0.950 . S
H467 C445 0.950 . S
C468 C469 1.349 . S
C468 C470 1.327 . S
C468 H493 0.950 . S
C469 C468 1.349 . S
C469 C485 1.349 . S
C470 C468 1.327 . S
C470 C489 1.429 . S
C470 H494 0.950 . S
C471 C488 1.574 . S
C471 C490 1.368 . S
C471 H495 0.949 . S
H472 C476 0.949 . S
C473 C474 1.349 . S
C473 C475 1.327 . S
C473 H496 0.950 . S
C474 C473 1.349 . S
C474 C486 1.349 . S
C475 C473 1.327 . S
C475 C491 1.429 . S
C475 H497 0.950 . S
C476 H472 0.949 . S
C476 C484 1.574 . S
C476 C492 1.368 . S
H477 C485 0.950 . S
H478 C483 0.950 . S
H479 C484 0.949 . S
H480 C486 0.950 . S
H481 C487 0.950 . S
H482 C488 0.949 . S
C483 H478 0.950 . S
C483 C485 1.327 . S
C483 C489 1.429 . S
C484 C476 1.574 . S
C484 H479 0.949 . S
C484 C490 1.368 . S
C485 C469 1.349 . S
C485 H477 0.950 . S
C485 C483 1.327 . S
C486 C474 1.349 . S
C486 H480 0.950 . S
C486 C487 1.327 . S
C487 H481 0.950 . S
C487 C486 1.327 . S
C487 C491 1.429 . S
C488 C471 1.574 . S
C488 H482 0.949 . S
C488 C492 1.368 . S
C489 C470 1.429 . S
C489 C483 1.429 . S
C489 C490 1.523 . S
C490 C471 1.368 . S
C490 C484 1.368 . S
C490 C489 1.523 . S
C491 C475 1.429 . S
C491 C487 1.429 . S
C491 C492 1.523 . S
C492 C476 1.368 . S
C492 C488 1.368 . S
C492 C491 1.523 . S
H493 C468 0.950 . S
H494 C470 0.950 . S
H495 C471 0.949 . S
H496 C473 0.950 . S
H497 C475 0.950 . S
C498 C499 1.349 . S
C498 C500 1.327 . S
C498 H523 0.950 . S
C499 C498 1.349 . S
C499 C515 1.349 . S
C500 C498 1.327 . S
C500 C519 1.429 . S
C500 H524 0.950 . S
C501 C518 1.574 . S
C501 C520 1.368 . S
C501 H525 0.949 . S
H502 C506 0.949 . S
C503 C504 1.349 . S
C503 C505 1.327 . S
C503 H526 0.950 . S
C504 C503 1.349 . S
C504 C516 1.349 . S
C505 C503 1.327 . S
C505 C521 1.429 . S
C505 H527 0.950 . S
C506 H502 0.949 . S
C506 C514 1.574 . S
C506 C522 1.368 . S
H507 C515 0.950 . S
H508 C513 0.950 . S
H509 C514 0.949 . S
H510 C516 0.950 . S
H511 C517 0.950 . S
H512 C518 0.949 . S
C513 H508 0.950 . S
C513 C515 1.327 . S
C513 C519 1.429 . S
C514 C506 1.574 . S
C514 H509 0.949 . S
C514 C520 1.368 . S
C515 C499 1.349 . S
C515 H507 0.950 . S
C515 C513 1.327 . S
C516 C504 1.349 . S
C516 H510 0.950 . S
C516 C517 1.327 . S
C517 H511 0.950 . S
C517 C516 1.327 . S
C517 C521 1.429 . S
C518 C501 1.574 . S
C518 H512 0.949 . S
C518 C522 1.368 . S
C519 C500 1.429 . S
C519 C513 1.429 . S
C519 C520 1.523 . S
C520 C501 1.368 . S
C520 C514 1.368 . S
C520 C519 1.523 . S
C521 C505 1.429 . S
C521 C517 1.429 . S
C521 C522 1.523 . S
C522 C506 1.368 . S
C522 C518 1.368 . S
C522 C521 1.523 . S
H523 C498 0.950 . S
H524 C500 0.950 . S
H525 C501 0.949 . S
H526 C503 0.950 . S
H527 C505 0.950 . S
C528 C529 1.349 . S
C528 C530 1.327 . S
C528 H553 0.950 . S
C529 C528 1.349 . S
C529 C545 1.349 . S
C530 C528 1.327 . S
C530 C549 1.429 . S
C530 H554 0.950 . S
C531 C548 1.574 . S
C531 C550 1.368 . S
C531 H555 0.949 . S
H532 C536 0.949 . S
C533 C534 1.349 . S
C533 C535 1.327 . S
C533 H556 0.950 . S
C534 C533 1.349 . S
C534 C546 1.349 . S
C535 C533 1.327 . S
C535 C551 1.429 . S
C535 H557 0.950 . S
C536 H532 0.949 . S
C536 C544 1.574 . S
C536 C552 1.368 . S
H537 C545 0.950 . S
H538 C543 0.950 . S
H539 C544 0.949 . S
H540 C546 0.950 . S
H541 C547 0.950 . S
H542 C548 0.949 . S
C543 H538 0.950 . S
C543 C545 1.327 . S
C543 C549 1.429 . S
C544 C536 1.574 . S
C544 H539 0.949 . S
C544 C550 1.368 . S
C545 C529 1.349 . S
C545 H537 0.950 . S
C545 C543 1.327 . S
C546 C534 1.349 . S
C546 H540 0.950 . S
C546 C547 1.327 . S
C547 H541 0.950 . S
C547 C546 1.327 . S
C547 C551 1.429 . S
C548 C531 1.574 . S
C548 H542 0.949 . S
C548 C552 1.368 . S
C549 C530 1.429 . S
C549 C543 1.429 . S
C549 C550 1.523 . S
C550 C531 1.368 . S
C550 C544 1.368 . S
C550 C549 1.523 . S
C551 C535 1.429 . S
C551 C547 1.429 . S
C551 C552 1.523 . S
C552 C536 1.368 . S
C552 C548 1.368 . S
C552 C551 1.523 . S
H553 C528 0.950 . S
H554 C530 0.950 . S
H555 C531 0.949 . S
H556 C533 0.950 . S
H557 C535 0.950 . S
C558 C559 1.349 . S
C558 C560 1.327 . S
C558 H583 0.950 . S
C559 C558 1.349 . S
C559 C575 1.349 . S
C560 C558 1.327 . S
C560 C579 1.429 . S
C560 H584 0.950 . S
C561 C578 1.574 . S
C561 C580 1.368 . S
C561 H585 0.949 . S
H562 C566 0.949 . S
C563 C564 1.349 . S
C563 C565 1.327 . S
C563 H586 0.950 . S
C564 C563 1.349 . S
C564 C576 1.349 . S
C565 C563 1.327 . S
C565 C581 1.429 . S
C565 H587 0.950 . S
C566 H562 0.949 . S
C566 C574 1.574 . S
C566 C582 1.368 . S
H567 C575 0.950 . S
H568 C573 0.950 . S
H569 C574 0.949 . S
H570 C576 0.950 . S
H571 C577 0.950 . S
H572 C578 0.949 . S
C573 H568 0.950 . S
C573 C575 1.327 . S
C573 C579 1.429 . S
C574 C566 1.574 . S
C574 H569 0.949 . S
C574 C580 1.368 . S
C575 C559 1.349 . S
C575 H567 0.950 . S
C575 C573 1.327 . S
C576 C564 1.349 . S
C576 H570 0.950 . S
C576 C577 1.327 . S
C577 H571 0.950 . S
C577 C576 1.327 . S
C577 C581 1.429 . S
C578 C561 1.574 . S
C578 H572 0.949 . S
C578 C582 1.368 . S
C579 C560 1.429 . S
C579 C573 1.429 . S
C579 C580 1.523 . S
C580 C561 1.368 . S
C580 C574 1.368 . S
C580 C579 1.523 . S
C581 C565 1.429 . S
C581 C577 1.429 . S
C581 C582 1.523 . S
C582 C566 1.368 . S
C582 C578 1.368 . S
C582 C581 1.523 . S
H583 C558 0.950 . S
H584 C560 0.950 . S
H585 C561 0.949 . S
H586 C563 0.950 . S
H587 C565 0.950 . S
C588 C589 1.349 . S
C588 C590 1.327 . S
C588 H613 0.950 . S
C589 C588 1.349 . S
C589 C605 1.349 . S
C590 C588 1.327 . S
C590 C609 1.429 . S
C590 H614 0.950 . S
C591 C608 1.574 . S
C591 C610 1.368 . S
C591 H615 0.949 . S
H592 C596 0.949 . S
C593 C594 1.349 . S
C593 C595 1.327 . S
C593 H616 0.950 . S
C594 C593 1.349 . S
C594 C606 1.349 . S
C595 C593 1.327 . S
C595 C611 1.429 . S
C595 H617 0.950 . S
C596 H592 0.949 . S
C596 C604 1.574 . S
C596 C612 1.368 . S
H597 C605 0.950 . S
H598 C603 0.950 . S
H599 C604 0.949 . S
H600 C606 0.950 . S
H601 C607 0.950 . S
H602 C608 0.949 . S
C603 H598 0.950 . S
C603 C605 1.327 . S
C603 C609 1.429 . S
C604 C596 1.574 . S
C604 H599 0.949 . S
C604 C610 1.368 . S
C605 C589 1.349 . S
C605 H597 0.950 . S
C605 C603 1.327 . S
C606 C594 1.349 . S
C606 H600 0.950 . S
C606 C607 1.327 . S
C607 H601 0.950 . S
C607 C606 1.327 . S
C607 C611 1.429 . S
C608 C591 1.574 . S
C608 H602 0.949 . S
C608 C612 1.368 . S
C609 C590 1.429 . S
C609 C603 1.429 . S
C609 C610 1.523 . S
C610 C591 1.368 . S
C610 C604 1.368 . S
C610 C609 1.523 . S
C611 C595 1.429 . S
C611 C607 1.429 . S
C611 C612 1.523 . S
C612 C596 1.368 . S
C612 C608 1.368 . S
C612 C611 1.523 . S
H613 C588 0.950 . S
H614 C590 0.950 . S
H615 C591 0.949 . S
H616 C593 0.950 . S
H617 C595 0.950 . S
C618 C619 1.349 . S
C618 C620 1.327 . S
C618 H643 0.950 . S
C619 C618 1.349 . S
C619 C635 1.349 . S
C620 C618 1.327 . S
C620 C639 1.429 . S
C620 H644 0.950 . S
C621 C638 1.574 . S
C621 C640 1.368 . S
C621 H645 0.949 . S
H622 C626 0.949 . S
C623 C624 1.354 . S
C623 C625 1.324 1_455 S
C623 H646 0.948 . S
C624 C623 1.354 . S
C624 C636 1.349 . S
C625 C623 1.324 1_655 S
C625 C641 1.429 . S
C625 H647 0.950 . S
C626 H622 0.949 . S
C626 C634 1.574 . S
C626 C642 1.368 . S
H627 C635 0.950 . S
H628 C633 0.950 . S
H629 C634 0.949 . S
H630 C636 0.950 . S
H631 C637 0.950 . S
H632 C638 0.949 . S
C633 H628 0.950 . S
C633 C635 1.327 . S
C633 C639 1.429 . S
C634 C626 1.574 . S
C634 H629 0.949 . S
C634 C640 1.368 . S
C635 C619 1.349 . S
C635 H627 0.950 . S
C635 C633 1.327 . S
C636 C624 1.349 . S
C636 H630 0.950 . S
C636 C637 1.327 1_455 S
C637 H631 0.950 . S
C637 C636 1.327 1_655 S
C637 C641 1.429 . S
C638 C621 1.574 . S
C638 H632 0.949 . S
C638 C642 1.368 . S
C639 C620 1.429 . S
C639 C633 1.429 . S
C639 C640 1.523 . S
C640 C621 1.368 . S
C640 C634 1.368 . S
C640 C639 1.523 . S
C641 C625 1.429 . S
C641 C637 1.429 . S
C641 C642 1.523 . S
C642 C626 1.368 . S
C642 C638 1.368 . S
C642 C641 1.523 . S
H643 C618 0.950 . S
H644 C620 0.950 . S
H645 C621 0.949 . S
H646 C623 0.948 . S
H647 C625 0.950 . S
C648 C649 1.349 . S
C648 C650 1.327 . S
C648 H673 0.950 . S
C649 C648 1.349 . S
C649 C665 1.349 . S
C650 C648 1.327 . S
C650 C669 1.429 . S
C650 H674 0.950 . S
C651 C668 1.574 . S
C651 C670 1.368 . S
C651 H675 0.949 . S
H652 C656 0.949 . S
C653 C654 1.349 . S
C653 C655 1.327 . S
C653 H676 0.950 . S
C654 C653 1.349 . S
C654 C666 1.349 . S
C655 C653 1.327 . S
C655 C671 1.429 . S
C655 H677 0.950 . S
C656 H652 0.949 . S
C656 C664 1.574 . S
C656 C672 1.368 . S
H657 C665 0.950 . S
H658 C663 0.950 . S
H659 C664 0.949 . S
H660 C666 0.950 1_545 S
H661 C667 0.950 . S
H662 C668 0.949 . S
C663 H658 0.950 . S
C663 C665 1.327 . S
C663 C669 1.429 . S
C664 C656 1.574 . S
C664 H659 0.949 . S
C664 C670 1.368 . S
C665 C649 1.349 . S
C665 H657 0.950 . S
C665 C663 1.327 . S
C666 C654 1.349 . S
C666 H660 0.950 1_565 S
C666 C667 1.327 . S
C667 H661 0.950 . S
C667 C666 1.327 . S
C667 C671 1.429 . S
C668 C651 1.574 . S
C668 H662 0.949 . S
C668 C672 1.368 . S
C669 C650 1.429 . S
C669 C663 1.429 . S
C669 C670 1.523 . S
C670 C651 1.368 . S
C670 C664 1.368 . S
C670 C669 1.523 . S
C671 C655 1.429 . S
C671 C667 1.429 . S
C671 C672 1.523 . S
C672 C656 1.368 . S
C672 C668 1.368 . S
C672 C671 1.523 . S
H673 C648 0.950 . S
H674 C650 0.950 . S
H675 C651 0.949 . S
H676 C653 0.950 . S
H677 C655 0.950 . S
C139 C85 1.347 . S
C144 C16 1.347 . S
C169 C108 1.347 . S
C174 C39 1.347 . S
C199 C131 1.347 . S
C204 C62 1.347 . S
C229 C18 1.872 . S
C234 C67 1.879 . S
C259 C41 1.872 . S
C264 C90 1.879 . S
C289 C64 1.871 . S
C294 C113 1.879 . S
C319 C87 1.872 . S
C324 C136 1.879 1_655 S
C349 C110 1.871 . S
C354 C21 1.879 . S
C379 C133 1.872 . S
C384 C44 1.879 . S
C409 C17 0.794 . S
C414 C86 0.794 . S
C439 C40 0.793 . S
C444 C109 0.793 . S
C469 C63 0.794 . S
C474 C132 0.794 . S
C499 C20 0.580 . S
C504 C42 0.546 . S
C529 C43 0.580 . S
C534 C65 0.546 . S
C559 C66 0.580 . S
C564 C88 0.546 . S
C589 C89 0.580 . S
C594 C111 0.546 . S
C619 C112 0.580 . S
C624 C134 0.546 . S
C649 C135 0.580 . S
C654 C19 0.546 . S
