# Generated by pormake.
# Topology ukn, (4)-cn, num edge types: 1
# Building blocks:
#     Node 0, Type 0, BuildingBlock: UXUYUI_clean_sbu_0, # of connection points: 4
#     Node 1, Type 0, BuildingBlock: UXUYUI_clean_sbu_0, # of connection points: 4
#     Node 2, Type 0, BuildingBlock: UXUYUI_clean_sbu_0, # of connection points: 4
#     Node 3, Type 0, BuildingBlock: UXUYUI_clean_sbu_0, # of connection points: 4
#     Node 4, Type 0, BuildingBlock: UXUYUI_clean_sbu_0, # of connection points: 4
#     Node 5, Type 0, BuildingBlock: UXUYUI_clean_sbu_0, # of connection points: 4
#     Node 6, Type 0, BuildingBlock: UXUYUI_clean_sbu_0, # of connection points: 4
#     Node 7, Type 0, BuildingBlock: UXUYUI_clean_sbu_0, # of connection points: 4
#     Node 8, Type 0, BuildingBlock: UXUYUI_clean_sbu_0, # of connection points: 4
#     Node 9, Type 0, BuildingBlock: UXUYUI_clean_sbu_0, # of connection points: 4
#     Node 10, Type 0, BuildingBlock: UXUYUI_clean_sbu_0, # of connection points: 4
#     Node 11, Type 0, BuildingBlock: UXUYUI_clean_sbu_0, # of connection points: 4
#     Node 12, Type 0, BuildingBlock: UXUYUI_clean_sbu_0, # of connection points: 4
#     Node 13, Type 0, BuildingBlock: UXUYUI_clean_sbu_0, # of connection points: 4
#     Node 14, Type 0, BuildingBlock: UXUYUI_clean_sbu_0, # of connection points: 4
#     Node 15, Type 0, BuildingBlock: UXUYUI_clean_sbu_0, # of connection points: 4
#     Node 16, Type 0, BuildingBlock: UXUYUI_clean_sbu_0, # of connection points: 4
#     Node 17, Type 0, BuildingBlock: UXUYUI_clean_sbu_0, # of connection points: 4
#     Node 18, Type 0, BuildingBlock: UXUYUI_clean_sbu_0, # of connection points: 4
#     Node 19, Type 0, BuildingBlock: UXUYUI_clean_sbu_0, # of connection points: 4
#     Node 20, Type 0, BuildingBlock: UXUYUI_clean_sbu_0, # of connection points: 4
#     Node 21, Type 0, BuildingBlock: UXUYUI_clean_sbu_0, # of connection points: 4
#     Node 22, Type 0, BuildingBlock: UXUYUI_clean_sbu_0, # of connection points: 4
#     Node 23, Type 0, BuildingBlock: UXUYUI_clean_sbu_0, # of connection points: 4
#     Node 24, Type 0, BuildingBlock: UXUYUI_clean_sbu_0, # of connection points: 4
#     Node 25, Type 0, BuildingBlock: UXUYUI_clean_sbu_0, # of connection points: 4
#     Node 26, Type 0, BuildingBlock: UXUYUI_clean_sbu_0, # of connection points: 4
#     Node 27, Type 0, BuildingBlock: UXUYUI_clean_sbu_0, # of connection points: 4
#     Node 28, Type 0, BuildingBlock: UXUYUI_clean_sbu_0, # of connection points: 4
#     Node 29, Type 0, BuildingBlock: UXUYUI_clean_sbu_0, # of connection points: 4
#     Node 30, Type 0, BuildingBlock: UXUYUI_clean_sbu_0, # of connection points: 4
#     Node 31, Type 0, BuildingBlock: UXUYUI_clean_sbu_0, # of connection points: 4
#     Node 32, Type 0, BuildingBlock: UXUYUI_clean_sbu_0, # of connection points: 4
#     Node 33, Type 0, BuildingBlock: UXUYUI_clean_sbu_0, # of connection points: 4
#     Node 34, Type 0, BuildingBlock: UXUYUI_clean_sbu_0, # of connection points: 4
#     Node 35, Type 0, BuildingBlock: UXUYUI_clean_sbu_0, # of connection points: 4
#     Edge 36, Type (0, 0), BuildingBlock: KIFKEQ_clean_linker_1, # of connection points: 2
#     Edge 37, Type (0, 0), BuildingBlock: KIFKEQ_clean_linker_1, # of connection points: 2
#     Edge 38, Type (0, 0), BuildingBlock: KIFKEQ_clean_linker_1, # of connection points: 2
#     Edge 39, Type (0, 0), BuildingBlock: KIFKEQ_clean_linker_1, # of connection points: 2
#     Edge 40, Type (0, 0), BuildingBlock: KIFKEQ_clean_linker_1, # of connection points: 2
#     Edge 41, Type (0, 0), BuildingBlock: KIFKEQ_clean_linker_1, # of connection points: 2
#     Edge 42, Type (0, 0), BuildingBlock: KIFKEQ_clean_linker_1, # of connection points: 2
#     Edge 43, Type (0, 0), BuildingBlock: KIFKEQ_clean_linker_1, # of connection points: 2
#     Edge 44, Type (0, 0), BuildingBlock: KIFKEQ_clean_linker_1, # of connection points: 2
#     Edge 45, Type (0, 0), BuildingBlock: KIFKEQ_clean_linker_1, # of connection points: 2
#     Edge 46, Type (0, 0), BuildingBlock: KIFKEQ_clean_linker_1, # of connection points: 2
#     Edge 47, Type (0, 0), BuildingBlock: KIFKEQ_clean_linker_1, # of connection points: 2
#     Edge 48, Type (0, 0), BuildingBlock: KIFKEQ_clean_linker_1, # of connection points: 2
#     Edge 49, Type (0, 0), BuildingBlock: KIFKEQ_clean_linker_1, # of connection points: 2
#     Edge 50, Type (0, 0), BuildingBlock: KIFKEQ_clean_linker_1, # of connection points: 2
#     Edge 51, Type (0, 0), BuildingBlock: KIFKEQ_clean_linker_1, # of connection points: 2
#     Edge 52, Type (0, 0), BuildingBlock: KIFKEQ_clean_linker_1, # of connection points: 2
#     Edge 53, Type (0, 0), BuildingBlock: KIFKEQ_clean_linker_1, # of connection points: 2
#     Edge 54, Type (0, 0), BuildingBlock: KIFKEQ_clean_linker_1, # of connection points: 2
#     Edge 55, Type (0, 0), BuildingBlock: KIFKEQ_clean_linker_1, # of connection points: 2
#     Edge 56, Type (0, 0), BuildingBlock: KIFKEQ_clean_linker_1, # of connection points: 2
#     Edge 57, Type (0, 0), BuildingBlock: KIFKEQ_clean_linker_1, # of connection points: 2
#     Edge 58, Type (0, 0), BuildingBlock: KIFKEQ_clean_linker_1, # of connection points: 2
#     Edge 59, Type (0, 0), BuildingBlock: KIFKEQ_clean_linker_1, # of connection points: 2
#     Edge 60, Type (0, 0), BuildingBlock: KIFKEQ_clean_linker_1, # of connection points: 2
#     Edge 61, Type (0, 0), BuildingBlock: KIFKEQ_clean_linker_1, # of connection points: 2
#     Edge 62, Type (0, 0), BuildingBlock: KIFKEQ_clean_linker_1, # of connection points: 2
#     Edge 63, Type (0, 0), BuildingBlock: KIFKEQ_clean_linker_1, # of connection points: 2
#     Edge 64, Type (0, 0), BuildingBlock: KIFKEQ_clean_linker_1, # of connection points: 2
#     Edge 65, Type (0, 0), BuildingBlock: KIFKEQ_clean_linker_1, # of connection points: 2
#     Edge 66, Type (0, 0), BuildingBlock: KIFKEQ_clean_linker_1, # of connection points: 2
#     Edge 67, Type (0, 0), BuildingBlock: KIFKEQ_clean_linker_1, # of connection points: 2
#     Edge 68, Type (0, 0), BuildingBlock: KIFKEQ_clean_linker_1, # of connection points: 2
#     Edge 69, Type (0, 0), BuildingBlock: KIFKEQ_clean_linker_1, # of connection points: 2
#     Edge 70, Type (0, 0), BuildingBlock: KIFKEQ_clean_linker_1, # of connection points: 2
#     Edge 71, Type (0, 0), BuildingBlock: KIFKEQ_clean_linker_1, # of connection points: 2
#     Edge 72, Type (0, 0), BuildingBlock: KIFKEQ_clean_linker_1, # of connection points: 2
#     Edge 73, Type (0, 0), BuildingBlock: KIFKEQ_clean_linker_1, # of connection points: 2
#     Edge 74, Type (0, 0), BuildingBlock: KIFKEQ_clean_linker_1, # of connection points: 2
#     Edge 75, Type (0, 0), BuildingBlock: KIFKEQ_clean_linker_1, # of connection points: 2
#     Edge 76, Type (0, 0), BuildingBlock: KIFKEQ_clean_linker_1, # of connection points: 2
#     Edge 77, Type (0, 0), BuildingBlock: KIFKEQ_clean_linker_1, # of connection points: 2
#     Edge 78, Type (0, 0), BuildingBlock: KIFKEQ_clean_linker_1, # of connection points: 2
#     Edge 79, Type (0, 0), BuildingBlock: KIFKEQ_clean_linker_1, # of connection points: 2
#     Edge 80, Type (0, 0), BuildingBlock: KIFKEQ_clean_linker_1, # of connection points: 2
#     Edge 81, Type (0, 0), BuildingBlock: KIFKEQ_clean_linker_1, # of connection points: 2
#     Edge 82, Type (0, 0), BuildingBlock: KIFKEQ_clean_linker_1, # of connection points: 2
#     Edge 83, Type (0, 0), BuildingBlock: KIFKEQ_clean_linker_1, # of connection points: 2
#     Edge 84, Type (0, 0), BuildingBlock: KIFKEQ_clean_linker_1, # of connection points: 2
#     Edge 85, Type (0, 0), BuildingBlock: KIFKEQ_clean_linker_1, # of connection points: 2
#     Edge 86, Type (0, 0), BuildingBlock: KIFKEQ_clean_linker_1, # of connection points: 2
#     Edge 87, Type (0, 0), BuildingBlock: KIFKEQ_clean_linker_1, # of connection points: 2
#     Edge 88, Type (0, 0), BuildingBlock: KIFKEQ_clean_linker_1, # of connection points: 2
#     Edge 89, Type (0, 0), BuildingBlock: KIFKEQ_clean_linker_1, # of connection points: 2
#     Edge 90, Type (0, 0), BuildingBlock: KIFKEQ_clean_linker_1, # of connection points: 2
#     Edge 91, Type (0, 0), BuildingBlock: KIFKEQ_clean_linker_1, # of connection points: 2
#     Edge 92, Type (0, 0), BuildingBlock: KIFKEQ_clean_linker_1, # of connection points: 2
#     Edge 93, Type (0, 0), BuildingBlock: KIFKEQ_clean_linker_1, # of connection points: 2
#     Edge 94, Type (0, 0), BuildingBlock: KIFKEQ_clean_linker_1, # of connection points: 2
#     Edge 95, Type (0, 0), BuildingBlock: KIFKEQ_clean_linker_1, # of connection points: 2
#     Edge 96, Type (0, 0), BuildingBlock: KIFKEQ_clean_linker_1, # of connection points: 2
#     Edge 97, Type (0, 0), BuildingBlock: KIFKEQ_clean_linker_1, # of connection points: 2
#     Edge 98, Type (0, 0), BuildingBlock: KIFKEQ_clean_linker_1, # of connection points: 2
#     Edge 99, Type (0, 0), BuildingBlock: KIFKEQ_clean_linker_1, # of connection points: 2
#     Edge 100, Type (0, 0), BuildingBlock: KIFKEQ_clean_linker_1, # of connection points: 2
#     Edge 101, Type (0, 0), BuildingBlock: KIFKEQ_clean_linker_1, # of connection points: 2
#     Edge 102, Type (0, 0), BuildingBlock: KIFKEQ_clean_linker_1, # of connection points: 2
#     Edge 103, Type (0, 0), BuildingBlock: KIFKEQ_clean_linker_1, # of connection points: 2
#     Edge 104, Type (0, 0), BuildingBlock: KIFKEQ_clean_linker_1, # of connection points: 2
#     Edge 105, Type (0, 0), BuildingBlock: KIFKEQ_clean_linker_1, # of connection points: 2
#     Edge 106, Type (0, 0), BuildingBlock: KIFKEQ_clean_linker_1, # of connection points: 2
#     Edge 107, Type (0, 0), BuildingBlock: KIFKEQ_clean_linker_1, # of connection points: 2
# Relax obj value: 0.241
# Max RMSD: 0.172
# Mean RMSD: 0.172
data_MOF--net-ukn--node1-UXUYUI_clean_sbu_0--edge1-KIFKEQ_clean_linker_1
_symmetry_space_group_name_H-M    P1
_symmetry_Int_Tables_number       1
_symmetry_cell_setting            triclinic
loop_
_symmetry_equiv_pos_as_xyz
'x, y, z'
_cell_length_a     158.78868
_cell_length_b     158.79874
_cell_length_c     36.487711
_cell_angle_alpha  89.998854
_cell_angle_beta   90.004581
_cell_angle_gamma 119.99069
loop_
_atom_site_label
_atom_site_type_symbol
_atom_site_fract_x
_atom_site_fract_y
_atom_site_fract_z
_atom_type_partial_charge
Li0 Li 0.07511 0.29145 0.12059 0.0
Li1 Li 0.07952 0.28025 0.08335 0.0
Li2 Li 0.07506 0.2915 0.05395 0.0
Li3 Li 0.06328 0.27775 0.08377 0.0
C4 C 0.09372 0.30256 0.06994 0.0
N5 N 0.10839 0.31819 0.03295 0.0
C6 C 0.09847 0.30102 0.04071 0.0
C7 C 0.09645 0.31205 0.08046 0.0
C8 C 0.10586 0.30902 0.0223 0.0
C9 C 0.10389 0.31986 0.06141 0.0
C10 C 0.06414 0.26924 0.1448 0.0
C11 C 0.05697 0.25225 0.15993 0.0
N12 N 0.0501 0.25283 0.18023 0.0
C13 C 0.05705 0.2697 0.16599 0.0
C14 C 0.06414 0.26047 0.14182 0.0
C15 C 0.04999 0.26131 0.18361 0.0
C16 C 0.07084 0.29881 0.18464 0.0
N17 N 0.07801 0.29881 0.16432 0.0
C18 C 0.09014 0.3101 0.20515 0.0
C19 C 0.0875 0.30417 0.1742 0.0
C20 C 0.08294 0.31038 0.22668 0.0
C21 C 0.07315 0.30455 0.21617 0.0
H22 H 0.06334 0.29445 0.1761 0.0
H23 H 0.09304 0.30395 0.15768 0.0
C24 C 0.09108 0.27383 0.04897 0.0
N25 N 0.08795 0.27512 0.08202 0.0
C26 C 0.09812 0.27104 0.04712 0.0
C27 C 0.09833 0.27064 0.11338 0.0
C28 C 0.09131 0.27348 0.11394 0.0
C29 C 0.10196 0.26958 0.07963 0.0
H30 H 0.0883 0.27524 0.02406 0.0
H31 H 0.08873 0.27467 0.1398 0.0
C32 C 0.06322 0.29793 0.07518 0.0
N33 N 0.05964 0.31217 0.04894 0.0
C34 C 0.05749 0.29622 0.04392 0.0
C35 C 0.06705 0.30686 0.0933 0.0
C36 C 0.0558 0.30352 0.03101 0.0
C37 C 0.06517 0.31397 0.07956 0.0
C38 C 0.06471 0.2704 0.02003 0.0
C39 C 0.05775 0.27118 0.99913 0.0
C40 C 0.06502 0.26176 0.0194 0.0
C41 C 0.05109 0.26322 0.97842 0.0
C42 C 0.05825 0.25397 0.99825 0.0
N43 N 0.05147 0.25485 0.97843 0.0
C44 C 0.0781 0.29569 0.97867 0.0
C45 C 0.08102 0.30933 0.01447 0.0
C46 C 0.08069 0.30128 0.94679 0.0
N47 N 0.07825 0.29975 0.01165 0.0
C48 C 0.08369 0.31521 0.9833 0.0
C49 C 0.08355 0.31119 0.94887 0.0
H50 H 0.07613 0.28814 0.97711 0.0
H51 H 0.08131 0.31249 0.04095 0.0
C52 C 0.04326 0.27088 0.08176 0.0
N53 N 0.04987 0.26782 0.0819 0.0
C54 C 0.03348 0.26431 0.07512 0.0
C55 C 0.03734 0.25143 0.07082 0.0
C56 C 0.04706 0.25826 0.07779 0.0
C57 C 0.03045 0.25449 0.0686 0.0
H58 H 0.04563 0.27848 0.08556 0.0
H59 H 0.05242 0.25596 0.07848 0.0
O60 O 0.08632 0.29481 0.08773 0.0
O61 O 0.07103 0.27733 0.12697 0.0
O62 O 0.06492 0.29085 0.08836 0.0
O63 O 0.07124 0.27809 0.04073 0.0
H64 H 0.09639 0.29372 0.03201 0.0
H65 H 0.09274 0.31338 0.10263 0.0
H66 H 0.10957 0.30793 0.99948 0.0
H67 H 0.10603 0.32724 0.0691 0.0
H68 H 0.05685 0.2454 0.15774 0.0
H69 H 0.05694 0.27644 0.16843 0.0
H70 H 0.06957 0.26 0.1254 0.0
H71 H 0.04441 0.26154 0.19991 0.0
H72 H 0.09779 0.31456 0.21163 0.0
H73 H 0.06732 0.3044 0.23212 0.0
H74 H 0.10066 0.27021 0.02055 0.0
H75 H 0.10119 0.26971 0.13906 0.0
H76 H 0.05442 0.28933 0.02972 0.0
H77 H 0.07153 0.30835 0.11741 0.0
H78 H 0.05142 0.3023 0.00675 0.0
H79 H 0.06814 0.32093 0.09318 0.0
H80 H 0.05746 0.27784 0.99909 0.0
H81 H 0.07033 0.26102 0.03552 0.0
H82 H 0.04561 0.26369 0.96237 0.0
H83 H 0.05835 0.24721 0.99772 0.0
H84 H 0.08066 0.29793 0.92091 0.0
H85 H 0.08582 0.3228 0.98613 0.0
H86 H 0.02842 0.267 0.0734 0.0
H87 H 0.03528 0.2439 0.06642 0.0
Li88 Li 0.71731 0.79965 0.0892 0.0
Li89 Li 0.70585 0.78324 0.12132 0.0
Li90 Li 0.71973 0.78592 0.08353 0.0
Li91 Li 0.70613 0.78476 0.05508 0.0
C92 C 0.72804 0.79379 0.14663 0.0
N93 N 0.74438 0.79534 0.17982 0.0
C94 C 0.72747 0.78587 0.16552 0.0
C95 C 0.73689 0.80252 0.1448 0.0
C96 C 0.73583 0.78679 0.18203 0.0
C97 C 0.74508 0.80315 0.16175 0.0
C98 C 0.6951 0.79203 0.0753 0.0
C99 C 0.67786 0.78522 0.06584 0.0
N100 N 0.67974 0.79205 0.03971 0.0
C101 C 0.69686 0.799 0.04844 0.0
C102 C 0.68552 0.78509 0.08414 0.0
C103 C 0.689 0.79887 0.03072 0.0
C104 C 0.72398 0.81847 0.06205 0.0
N105 N 0.7227 0.81323 0.09305 0.0
C106 C 0.72805 0.82739 0.13013 0.0
C107 C 0.72472 0.81746 0.12669 0.0
C108 C 0.72919 0.83297 0.09863 0.0
C109 C 0.72722 0.82839 0.0642 0.0
H110 H 0.72226 0.81487 0.03568 0.0
H111 H 0.7236 0.81308 0.15087 0.0
C112 C 0.69842 0.77016 0.18123 0.0
N113 N 0.69828 0.77767 0.16389 0.0
C114 C 0.69257 0.76588 0.212 0.0
C115 C 0.68655 0.77712 0.20617 0.0
C116 C 0.69263 0.78129 0.176 0.0
C117 C 0.68646 0.7693 0.22443 0.0
H118 H 0.70296 0.76741 0.17084 0.0
H119 H 0.6928 0.78737 0.16201 0.0
C120 C 0.72747 0.7963 0.02288 0.0
N121 N 0.7433 0.7998 0.98045 0.0
C122 C 0.72687 0.78917 0.99886 0.0
C123 C 0.73607 0.80526 0.02499 0.0
C124 C 0.73498 0.79106 0.97777 0.0
C125 C 0.74401 0.80688 0.00336 0.0
C126 C 0.69967 0.76601 0.06948 0.0
C127 C 0.70165 0.76284 0.03655 0.0
C128 C 0.69065 0.76039 0.0865 0.0
C129 C 0.69451 0.75416 0.02088 0.0
C130 C 0.68372 0.75173 0.06999 0.0
N131 N 0.68577 0.74883 0.03778 0.0
C132 C 0.72635 0.77265 0.07746 0.0
C133 C 0.73916 0.78902 0.07608 0.0
C134 C 0.73284 0.76936 0.07032 0.0
N135 N 0.72955 0.78233 0.07927 0.0
C136 C 0.74592 0.78605 0.0687 0.0
C137 C 0.74274 0.77611 0.06511 0.0
H138 H 0.71871 0.76746 0.08064 0.0
H139 H 0.74158 0.79667 0.07826 0.0
C140 C 0.7022 0.78506 0.97998 0.0
N141 N 0.69805 0.7806 0.01216 0.0
C142 C 0.69675 0.78246 0.94773 0.0
C143 C 0.68277 0.77082 0.9823 0.0
C144 C 0.68849 0.77366 0.01388 0.0
C145 C 0.6869 0.77522 0.94862 0.0
H146 H 0.70976 0.79068 0.97932 0.0
H147 H 0.68525 0.77038 0.03981 0.0
O148 O 0.71998 0.793 0.12986 0.0
O149 O 0.70271 0.79192 0.09239 0.0
O150 O 0.71963 0.79457 0.04389 0.0
O151 O 0.70658 0.77449 0.08531 0.0
H152 H 0.72068 0.77906 0.16702 0.0
H153 H 0.73746 0.8087 0.13007 0.0
H154 H 0.73552 0.7807 0.19655 0.0
H155 H 0.75199 0.80984 0.1604 0.0
H156 H 0.67042 0.77985 0.07225 0.0
H157 H 0.70421 0.80436 0.04104 0.0
H158 H 0.68402 0.77953 0.10438 0.0
H159 H 0.69026 0.80419 0.00973 0.0
H160 H 0.72958 0.83063 0.15718 0.0
H161 H 0.72782 0.83233 0.03922 0.0
H162 H 0.69266 0.75984 0.22546 0.0
H163 H 0.68203 0.78003 0.21536 0.0
H164 H 0.72025 0.78223 0.99668 0.0
H165 H 0.73667 0.81085 0.04352 0.0
H166 H 0.73465 0.78557 0.95928 0.0
H167 H 0.75074 0.81375 0.00491 0.0
H168 H 0.70861 0.76706 0.02317 0.0
H169 H 0.68897 0.76273 0.11192 0.0
H170 H 0.69593 0.75165 0.99529 0.0
H171 H 0.67669 0.74734 0.08274 0.0
H172 H 0.73005 0.76162 0.0675 0.0
H173 H 0.75351 0.79148 0.06537 0.0
H174 H 0.70025 0.78601 0.92232 0.0
H175 H 0.67515 0.76534 0.98436 0.0
Li176 Li 0.21417 0.91993 0.1191 0.0
Li177 Li 0.19792 0.91548 0.09121 0.0
Li178 Li 0.21093 0.9168 0.0552 0.0
Li179 Li 0.21201 0.93141 0.07557 0.0
C180 C 0.20253 0.89891 0.08184 0.0
N181 N 0.19895 0.88148 0.05147 0.0
C182 C 0.19556 0.89452 0.05425 0.0
C183 C 0.20767 0.89442 0.09402 0.0
C184 C 0.19386 0.88572 0.03921 0.0
C185 C 0.20575 0.88561 0.07833 0.0
C186 C 0.20288 0.92801 0.15742 0.0
C187 C 0.19778 0.93716 0.195 0.0
N188 N 0.19638 0.9311 0.22358 0.0
C189 C 0.20146 0.92192 0.18726 0.0
C190 C 0.2011 0.93574 0.16137 0.0
C191 C 0.19813 0.92358 0.22044 0.0
C192 C 0.22918 0.92672 0.17256 0.0
N193 N 0.22072 0.91896 0.16093 0.0
C194 C 0.22168 0.90886 0.20726 0.0
C195 C 0.21685 0.91019 0.1779 0.0
C196 C 0.23051 0.91668 0.21959 0.0
C197 C 0.23421 0.92575 0.20228 0.0
H198 H 0.23208 0.93361 0.15845 0.0
H199 H 0.21 0.90421 0.16853 0.0
C200 C 0.17859 0.90427 0.0682 0.0
N201 N 0.18413 0.90828 0.0986 0.0
C202 C 0.16858 0.89811 0.0712 0.0
C203 C 0.17001 0.90049 0.13676 0.0
C204 C 0.18003 0.90659 0.13247 0.0
C205 C 0.16417 0.896 0.10589 0.0
H206 H 0.18198 0.90556 0.04157 0.0
H207 H 0.18451 0.90972 0.15633 0.0
C208 C 0.22994 0.92864 0.05841 0.0
N209 N 0.24494 0.92952 0.01716 0.0
C210 C 0.23219 0.93322 0.02424 0.0
C211 C 0.23539 0.9246 0.07184 0.0
C212 C 0.23977 0.93355 0.00372 0.0
C213 C 0.24294 0.92511 0.05052 0.0
C214 C 0.19584 0.92496 0.03199 0.0
C215 C 0.19245 0.92384 0.99593 0.0
C216 C 0.19284 0.92943 0.05778 0.0
C217 C 0.18617 0.92725 0.9863 0.0
C218 C 0.18656 0.93275 0.04709 0.0
N219 N 0.18338 0.9316 0.01186 0.0
C220 C 0.21936 0.90699 0.01641 0.0
C221 C 0.21171 0.91363 0.9802 0.0
C222 C 0.22211 0.90394 0.98504 0.0
N223 N 0.21423 0.91172 0.01344 0.0
C224 C 0.21432 0.91073 0.94814 0.0
C225 C 0.21962 0.90585 0.95029 0.0
H226 H 0.2215 0.90576 0.04306 0.0
H227 H 0.20787 0.91762 0.97854 0.0
C228 C 0.22016 0.95175 0.08846 0.0
N229 N 0.21652 0.94453 0.06304 0.0
C230 C 0.22382 0.96141 0.07758 0.0
C231 C 0.21979 0.95592 0.01484 0.0
C232 C 0.21633 0.94643 0.02683 0.0
C233 C 0.22364 0.96356 0.0403 0.0
H234 H 0.22034 0.95002 0.11702 0.0
H235 H 0.21364 0.94057 0.00712 0.0
O236 O 0.2043 0.90756 0.09677 0.0
O237 O 0.20633 0.92665 0.1249 0.0
O238 O 0.22243 0.92806 0.0786 0.0
O239 O 0.20202 0.92164 0.0417 0.0
H240 H 0.19162 0.89795 0.0441 0.0
H241 H 0.21322 0.89777 0.11487 0.0
H242 H 0.18853 0.88227 0.01769 0.0
H243 H 0.20971 0.88208 0.08738 0.0
H244 H 0.19635 0.9431 0.19839 0.0
H245 H 0.20272 0.91587 0.18466 0.0
H246 H 0.20229 0.94063 0.13877 0.0
H247 H 0.19693 0.91887 0.24366 0.0
H248 H 0.21851 0.90181 0.22039 0.0
H249 H 0.241 0.93194 0.21108 0.0
H250 H 0.16444 0.89468 0.04666 0.0
H251 H 0.16691 0.89913 0.16403 0.0
H252 H 0.22802 0.93637 0.01349 0.0
H253 H 0.23372 0.92101 0.09823 0.0
H254 H 0.24154 0.937 0.97707 0.0
H255 H 0.24718 0.92196 0.06042 0.0
H256 H 0.1946 0.92034 0.97555 0.0
H257 H 0.19529 0.9303 0.08575 0.0
H258 H 0.1835 0.92643 0.9585 0.0
H259 H 0.1842 0.93622 0.06684 0.0
H260 H 0.22617 0.90016 0.98797 0.0
H261 H 0.21242 0.91254 0.92195 0.0
H262 H 0.22675 0.96713 0.09799 0.0
H263 H 0.21971 0.9573 0.9858 0.0
Li264 Li 0.29093 0.0789 0.95 0.0
Li265 Li 0.27633 0.06482 0.92017 0.0
Li266 Li 0.29067 0.07727 0.88229 0.0
Li267 Li 0.2799 0.08122 0.91349 0.0
C268 C 0.29378 0.06219 0.93086 0.0
N269 N 0.3006 0.04998 0.95222 0.0
C270 C 0.28859 0.05479 0.95632 0.0
C271 C 0.30242 0.06334 0.91614 0.0
C272 C 0.29216 0.0487 0.96679 0.0
C273 C 0.30576 0.05711 0.92734 0.0
C274 C 0.27145 0.07679 0.97698 0.0
C275 C 0.25612 0.07623 0.9856 0.0
N276 N 0.26045 0.08378 0.00957 0.0
C277 C 0.27574 0.08451 0.00183 0.0
C278 C 0.26155 0.07259 0.96885 0.0
C279 C 0.27006 0.08795 0.01797 0.0
C280 C 0.3033 0.09251 0.00241 0.0
N281 N 0.29896 0.08298 0.99267 0.0
C282 C 0.30576 0.07944 0.04481 0.0
C283 C 0.30001 0.07644 0.01334 0.0
C284 C 0.31041 0.08925 0.05535 0.0
C285 C 0.30911 0.09583 0.03372 0.0
H286 H 0.30219 0.09754 0.98601 0.0
H287 H 0.29628 0.06888 0.00584 0.0
C288 C 0.2676 0.04483 0.90367 0.0
N289 N 0.2672 0.05148 0.92593 0.0
C290 C 0.26194 0.03492 0.91145 0.0
C291 C 0.25527 0.03894 0.96379 0.0
C292 C 0.26114 0.04875 0.95531 0.0
C293 C 0.25579 0.0319 0.9422 0.0
H294 H 0.27264 0.04726 0.88089 0.0
H295 H 0.2612 0.0542 0.97319 0.0
C296 C 0.30413 0.09512 0.91068 0.0
N297 N 0.32405 0.10726 0.9074 0.0
C298 C 0.30805 0.10507 0.90429 0.0
C299 C 0.31035 0.09136 0.91543 0.0
C300 C 0.31813 0.11108 0.90271 0.0
C301 C 0.32039 0.09761 0.91369 0.0
C302 C 0.2718 0.07325 0.84666 0.0
C303 C 0.27661 0.08204 0.82755 0.0
C304 C 0.2622 0.06643 0.83769 0.0
C305 C 0.27168 0.0839 0.79984 0.0
C306 C 0.25753 0.06855 0.80976 0.0
N307 N 0.26233 0.07717 0.7916 0.0
C308 C 0.29906 0.07159 0.82532 0.0
C309 C 0.30268 0.08798 0.82365 0.0
C310 C 0.30468 0.07302 0.79389 0.0
N311 N 0.29823 0.07905 0.83955 0.0
C312 C 0.30838 0.08974 0.79247 0.0
C313 C 0.30941 0.0822 0.77699 0.0
H314 H 0.29533 0.06452 0.83828 0.0
H315 H 0.30181 0.09376 0.83513 0.0
C316 C 0.27991 0.09843 0.92438 0.0
N317 N 0.27421 0.08934 0.9107 0.0
C318 C 0.27661 0.10506 0.92489 0.0
C319 C 0.26159 0.09291 0.89701 0.0
C320 C 0.26514 0.08644 0.89752 0.0
C321 C 0.26736 0.10234 0.91095 0.0
H322 H 0.28702 0.10049 0.93528 0.0
H323 H 0.26061 0.07908 0.88789 0.0
O324 O 0.29027 0.06808 0.91949 0.0
O325 O 0.27696 0.07349 0.9602 0.0
O326 O 0.29424 0.08917 0.91204 0.0
O327 O 0.27645 0.07131 0.87404 0.0
H328 H 0.28195 0.05385 0.96837 0.0
H329 H 0.30651 0.06898 0.89621 0.0
H330 H 0.28823 0.04298 0.98658 0.0
H331 H 0.31244 0.05793 0.9162 0.0
H332 H 0.24847 0.0731 0.97934 0.0
H333 H 0.28339 0.08786 0.00836 0.0
H334 H 0.25815 0.06671 0.94923 0.0
H335 H 0.27329 0.09395 0.0371 0.0
H336 H 0.3064 0.07409 0.06113 0.0
H337 H 0.31259 0.10347 0.04078 0.0
H338 H 0.26253 0.02969 0.89418 0.0
H339 H 0.25076 0.03691 0.98811 0.0
H340 H 0.30334 0.1081 0.90043 0.0
H341 H 0.30747 0.08372 0.92063 0.0
H342 H 0.32126 0.11879 0.89773 0.0
H343 H 0.32528 0.09478 0.91737 0.0
H344 H 0.284 0.08743 0.83446 0.0
H345 H 0.2584 0.05959 0.85228 0.0
H346 H 0.27528 0.0907 0.78497 0.0
H347 H 0.2501 0.06336 0.80257 0.0
H348 H 0.30517 0.06696 0.78265 0.0
H349 H 0.312 0.09698 0.78079 0.0
H350 H 0.28131 0.1123 0.93559 0.0
H351 H 0.25438 0.09053 0.88639 0.0
Li352 Li 0.91832 0.21286 0.94395 0.0
Li353 Li 0.93252 0.21295 0.91983 0.0
Li354 Li 0.92147 0.21488 0.87832 0.0
Li355 Li 0.91718 0.19949 0.90635 0.0
C356 C 0.92864 0.23178 0.9189 0.0
N357 N 0.92696 0.24828 0.91914 0.0
C358 C 0.93684 0.24091 0.9245 0.0
C359 C 0.91957 0.23104 0.91351 0.0
C360 C 0.93584 0.24917 0.92451 0.0
C361 C 0.91887 0.23946 0.91369 0.0
C362 C 0.92864 0.20201 0.97895 0.0
C363 C 0.93938 0.19567 0.99083 0.0
N364 N 0.94075 0.1992 0.0256 0.0
C365 C 0.93004 0.20545 0.01497 0.0
C366 C 0.93324 0.19696 0.96694 0.0
C367 C 0.93622 0.204 0.03807 0.0
C368 C 0.90477 0.21517 0.99039 0.0
N369 N 0.9141 0.21726 0.98498 0.0
C370 C 0.91917 0.22656 0.04028 0.0
C371 C 0.92129 0.22303 0.0087 0.0
C372 C 0.90954 0.22421 0.04739 0.0
C373 C 0.90231 0.21853 0.02169 0.0
H374 H 0.8992 0.21092 0.97061 0.0
H375 H 0.92869 0.22484 0.0031 0.0
C376 C 0.95119 0.21425 0.91554 0.0
N377 N 0.9456 0.21733 0.93263 0.0
C378 C 0.96037 0.21683 0.92951 0.0
C379 C 0.95785 0.2258 0.97772 0.0
C380 C 0.9488 0.22313 0.96269 0.0
C381 C 0.9637 0.22253 0.96141 0.0
H382 H 0.9484 0.20957 0.89182 0.0
H383 H 0.94415 0.22542 0.97566 0.0
C384 C 0.89989 0.19968 0.91666 0.0
N385 N 0.88152 0.18713 0.94402 0.0
C386 C 0.89874 0.19391 0.94735 0.0
C387 C 0.89165 0.19905 0.9 0.0
C388 C 0.88941 0.18761 0.9607 0.0
C389 C 0.88245 0.19268 0.91425 0.0
C390 C 0.92627 0.20021 0.84493 0.0
C391 C 0.92137 0.19986 0.8126 0.0
C392 C 0.92932 0.19344 0.85063 0.0
C393 C 0.91949 0.19263 0.78674 0.0
C394 C 0.92728 0.18632 0.82414 0.0
N395 N 0.92244 0.18606 0.79302 0.0
C396 C 0.92847 0.22878 0.82044 0.0
C397 C 0.91135 0.21887 0.82488 0.0
C398 C 0.92751 0.23384 0.79084 0.0
N399 N 0.92043 0.22147 0.83673 0.0
C400 C 0.91004 0.22377 0.79575 0.0
C401 C 0.91818 0.23139 0.77844 0.0
H402 H 0.93562 0.23073 0.83068 0.0
H403 H 0.90512 0.213 0.8382 0.0
C404 C 0.90955 0.17972 0.92626 0.0
N405 N 0.90969 0.18576 0.89957 0.0
C406 C 0.90304 0.16975 0.9242 0.0
C407 C 0.89715 0.17235 0.86661 0.0
C408 C 0.9037 0.18229 0.87 0.0
C409 C 0.89663 0.16599 0.89438 0.0
H410 H 0.91415 0.18268 0.95004 0.0
H411 H 0.90371 0.18728 0.84987 0.0
O412 O 0.92954 0.22366 0.91881 0.0
O413 O 0.92282 0.2036 0.95556 0.0
O414 O 0.90894 0.20579 0.90247 0.0
O415 O 0.92809 0.20717 0.87075 0.0
H416 H 0.9439 0.2416 0.92878 0.0
H417 H 0.91313 0.22404 0.90924 0.0
H418 H 0.94213 0.25628 0.92878 0.0
H419 H 0.91191 0.23899 0.90952 0.0
H420 H 0.94308 0.19189 0.9817 0.0
H421 H 0.92639 0.20917 0.02509 0.0
H422 H 0.9322 0.1942 0.93927 0.0
H423 H 0.93742 0.20668 0.06593 0.0
H424 H 0.92502 0.23112 0.05883 0.0
H425 H 0.89479 0.21653 0.02601 0.0
H426 H 0.96468 0.21417 0.91624 0.0
H427 H 0.96022 0.23035 0.00196 0.0
H428 H 0.90493 0.19426 0.96095 0.0
H429 H 0.89233 0.20343 0.87634 0.0
H430 H 0.88844 0.18311 0.98436 0.0
H431 H 0.87604 0.19214 0.90159 0.0
H432 H 0.91897 0.20504 0.80763 0.0
H433 H 0.93319 0.19365 0.87529 0.0
H434 H 0.91565 0.19224 0.76171 0.0
H435 H 0.92954 0.181 0.82832 0.0
H436 H 0.93396 0.23969 0.77821 0.0
H437 H 0.90273 0.22155 0.78659 0.0
H438 H 0.90282 0.16507 0.94623 0.0
H439 H 0.89219 0.16974 0.84357 0.0
Li440 Li 0.78462 0.71971 0.92031 0.0
Li441 Li 0.78516 0.70587 0.94654 0.0
Li442 Li 0.79856 0.71806 0.90882 0.0
Li443 Li 0.78296 0.70641 0.88148 0.0
C444 C 0.79444 0.72621 0.98216 0.0
N445 N 0.79453 0.73924 0.03254 0.0
C446 C 0.78891 0.72284 0.0142 0.0
C447 C 0.80009 0.73621 0.97591 0.0
C448 C 0.78905 0.72955 0.03931 0.0
C449 C 0.80001 0.74268 0.00165 0.0
C450 C 0.76535 0.70068 0.90548 0.0
C451 C 0.75196 0.6854 0.88494 0.0
N452 N 0.74767 0.69021 0.8703 0.0
C453 C 0.76081 0.70547 0.89031 0.0
C454 C 0.76089 0.69057 0.90292 0.0
C455 C 0.75187 0.70004 0.87263 0.0
C456 C 0.78397 0.73744 0.91637 0.0
N457 N 0.78022 0.72848 0.93178 0.0
C458 C 0.77094 0.73195 0.97421 0.0
C459 C 0.77366 0.72557 0.95956 0.0
C460 C 0.77493 0.74137 0.95981 0.0
C461 C 0.78135 0.74405 0.92997 0.0
H462 H 0.78921 0.73956 0.8944 0.0
H463 H 0.77083 0.7184 0.97122 0.0
C464 C 0.78927 0.69854 0.01043 0.0
N465 N 0.78201 0.698 0.98907 0.0
C466 C 0.78709 0.69305 0.04251 0.0
C467 C 0.77 0.68683 0.03058 0.0
C468 C 0.77252 0.69234 0.99849 0.0
C469 C 0.77733 0.68713 0.05313 0.0
H470 H 0.79677 0.70328 0.00262 0.0
H471 H 0.7669 0.69224 0.98146 0.0
C472 C 0.79762 0.72636 0.84746 0.0
N473 N 0.81199 0.73775 0.79784 0.0
C474 C 0.79806 0.72254 0.81348 0.0
C475 C 0.80443 0.73599 0.85612 0.0
C476 C 0.80539 0.72842 0.78877 0.0
C477 C 0.81166 0.74162 0.8307 0.0
C478 C 0.79424 0.69702 0.92192 0.0
C479 C 0.80364 0.69975 0.93367 0.0
C480 C 0.78673 0.68745 0.92703 0.0
C481 C 0.80536 0.69285 0.95055 0.0
C482 C 0.78874 0.68078 0.94408 0.0
N483 N 0.79793 0.68359 0.9554 0.0
C484 C 0.81795 0.72963 0.93168 0.0
C485 C 0.81608 0.72267 0.87261 0.0
C486 C 0.82794 0.73312 0.93079 0.0
N487 N 0.81225 0.72441 0.90307 0.0
C488 C 0.82606 0.72615 0.87035 0.0
C489 C 0.83206 0.73122 0.90012 0.0
H490 H 0.81469 0.73069 0.95592 0.0
H491 H 0.81134 0.71821 0.85082 0.0
C492 C 0.77153 0.70031 0.81545 0.0
N493 N 0.77703 0.69853 0.83939 0.0
C494 C 0.76744 0.69435 0.78471 0.0
C495 C 0.77485 0.68497 0.80387 0.0
C496 C 0.77875 0.69107 0.83406 0.0
C497 C 0.76917 0.6866 0.77851 0.0
H498 H 0.7704 0.7064 0.82006 0.0
H499 H 0.78325 0.68988 0.8531 0.0
O500 O 0.79418 0.71976 0.95671 0.0
O501 O 0.77417 0.70588 0.92244 0.0
O502 O 0.79053 0.72071 0.87209 0.0
O503 O 0.79238 0.7037 0.90565 0.0
H504 H 0.78446 0.71513 0.01942 0.0
H505 H 0.80438 0.73894 0.95118 0.0
H506 H 0.78475 0.72704 0.06409 0.0
H507 H 0.80428 0.75044 0.99701 0.0
H508 H 0.74845 0.67757 0.88256 0.0
H509 H 0.7642 0.7133 0.89188 0.0
H510 H 0.76434 0.68676 0.91436 0.0
H511 H 0.74828 0.70365 0.86065 0.0
H512 H 0.76584 0.72957 0.99681 0.0
H513 H 0.78456 0.75126 0.91818 0.0
H514 H 0.79299 0.69345 0.05871 0.0
H515 H 0.7624 0.68257 0.03799 0.0
H516 H 0.79285 0.71511 0.80634 0.0
H517 H 0.80421 0.73904 0.88238 0.0
H518 H 0.80585 0.72555 0.76243 0.0
H519 H 0.81702 0.74906 0.83713 0.0
H520 H 0.80955 0.70711 0.93005 0.0
H521 H 0.77939 0.68524 0.91836 0.0
H522 H 0.81259 0.69486 0.95988 0.0
H523 H 0.78298 0.67337 0.94843 0.0
H524 H 0.83235 0.73698 0.95431 0.0
H525 H 0.82896 0.72438 0.84655 0.0
H526 H 0.76318 0.69592 0.76563 0.0
H527 H 0.77625 0.67901 0.8005 0.0
Li528 Li 0.91617 0.71906 0.91257 0.0
Li529 Li 0.91838 0.70682 0.94958 0.0
Li530 Li 0.93184 0.72056 0.92259 0.0
Li531 Li 0.92095 0.70788 0.88277 0.0
C532 C 0.92917 0.72783 0.98276 0.0
N533 N 0.94295 0.74248 0.02635 0.0
C534 C 0.93184 0.72559 0.01628 0.0
C535 C 0.93343 0.73754 0.97159 0.0
C536 C 0.93883 0.73309 0.03789 0.0
C537 C 0.9404 0.74483 0.99397 0.0
C538 C 0.89916 0.69916 0.91682 0.0
C539 C 0.88365 0.68452 0.90943 0.0
N540 N 0.87945 0.68839 0.93097 0.0
C541 C 0.89469 0.70298 0.939 0.0
C542 C 0.8936 0.68986 0.9019 0.0
C543 C 0.88471 0.69742 0.94576 0.0
C544 C 0.9015 0.72105 0.87914 0.0
N545 N 0.90845 0.72494 0.90551 0.0
C546 C 0.90279 0.73565 0.92437 0.0
C547 C 0.9093 0.7322 0.92767 0.0
C548 C 0.89518 0.73142 0.89864 0.0
C549 C 0.89471 0.72412 0.87542 0.0
H550 H 0.90097 0.71522 0.86213 0.0
H551 H 0.91483 0.73511 0.94868 0.0
C552 C 0.92148 0.69795 0.01054 0.0
N553 N 0.91434 0.69836 0.99138 0.0
C554 C 0.91923 0.69218 0.04194 0.0
C555 C 0.90231 0.68726 0.03316 0.0
C556 C 0.90489 0.69312 0.00201 0.0
C557 C 0.90953 0.68679 0.05378 0.0
H558 H 0.92895 0.70223 0.00166 0.0
H559 H 0.89929 0.69345 0.98665 0.0
C560 C 0.93315 0.7266 0.84895 0.0
N561 N 0.94711 0.73603 0.79565 0.0
C562 C 0.93996 0.72371 0.8416 0.0
C563 C 0.93344 0.7343 0.82933 0.0
C564 C 0.94695 0.72855 0.81447 0.0
C565 C 0.94056 0.73898 0.80247 0.0
C566 C 0.92825 0.69798 0.92103 0.0
C567 C 0.93646 0.69693 0.92347 0.0
C568 C 0.91904 0.68973 0.91801 0.0
C569 C 0.9353 0.68761 0.92283 0.0
C570 C 0.91818 0.68054 0.91748 0.0
N571 N 0.92627 0.67968 0.91988 0.0
C572 C 0.94912 0.72651 0.95896 0.0
C573 C 0.95038 0.73835 0.91615 0.0
C574 C 0.9586 0.73264 0.97084 0.0
N575 N 0.94518 0.72948 0.93239 0.0
C576 C 0.96001 0.74463 0.92664 0.0
C577 C 0.96413 0.7418 0.95461 0.0
H578 H 0.94477 0.71945 0.9715 0.0
H579 H 0.94703 0.74063 0.89568 0.0
C580 C 0.91026 0.69747 0.82208 0.0
N581 N 0.9189 0.70054 0.83924 0.0
C582 C 0.90794 0.69176 0.7906 0.0
C583 C 0.9236 0.69274 0.79424 0.0
C584 C 0.92555 0.6983 0.82611 0.0
C585 C 0.91466 0.68934 0.77602 0.0
H586 H 0.90513 0.69939 0.83311 0.0
H587 H 0.93237 0.70082 0.84034 0.0
O588 O 0.92254 0.72056 0.96074 0.0
O589 O 0.90888 0.70455 0.90916 0.0
O590 O 0.9264 0.72218 0.87604 0.0
O591 O 0.92934 0.70709 0.92156 0.0
H592 H 0.92859 0.71813 0.0254 0.0
H593 H 0.93157 0.73939 0.94544 0.0
H594 H 0.94102 0.73146 0.06378 0.0
H595 H 0.94385 0.75235 0.98545 0.0
H596 H 0.87927 0.67731 0.89809 0.0
H597 H 0.89889 0.71008 0.9514 0.0
H598 H 0.89693 0.68678 0.88474 0.0
H599 H 0.88116 0.70028 0.96292 0.0
H600 H 0.9036 0.74142 0.94243 0.0
H601 H 0.88891 0.72046 0.85566 0.0
H602 H 0.92504 0.6921 0.05717 0.0
H603 H 0.89472 0.68311 0.04089 0.0
H604 H 0.93995 0.71791 0.85716 0.0
H605 H 0.92826 0.73668 0.83501 0.0
H606 H 0.9523 0.72642 0.80854 0.0
H607 H 0.9409 0.74497 0.78713 0.0
H608 H 0.94364 0.70325 0.92582 0.0
H609 H 0.91261 0.69039 0.91617 0.0
H610 H 0.94159 0.68668 0.92469 0.0
H611 H 0.91109 0.6741 0.91518 0.0
H612 H 0.96162 0.73024 0.99239 0.0
H613 H 0.96411 0.7517 0.91376 0.0
H614 H 0.90087 0.68917 0.77822 0.0
H615 H 0.92909 0.6912 0.7839 0.0
Li616 Li 0.2801 0.19731 0.91243 0.0
Li617 Li 0.2926 0.21132 0.943 0.0
Li618 Li 0.27875 0.21172 0.92165 0.0
Li619 Li 0.29118 0.21249 0.87795 0.0
C620 C 0.26996 0.19717 0.97317 0.0
N621 N 0.25149 0.18564 0.00132 0.0
C622 C 0.26864 0.19524 0.01073 0.0
C623 C 0.26187 0.19324 0.9499 0.0
C624 C 0.25925 0.18939 0.02444 0.0
C625 C 0.2526 0.18743 0.96467 0.0
C626 C 0.30134 0.20151 0.91215 0.0
C627 C 0.31727 0.20367 0.90091 0.0
N628 N 0.31584 0.19733 0.92848 0.0
C629 C 0.30002 0.195 0.9403 0.0
C630 C 0.31002 0.20588 0.89221 0.0
C631 C 0.30745 0.19299 0.94817 0.0
C632 C 0.27014 0.17908 0.877 0.0
N633 N 0.27353 0.18359 0.90975 0.0
C634 C 0.26886 0.16846 0.93913 0.0
C635 C 0.27282 0.17851 0.94065 0.0
C636 C 0.26559 0.16359 0.90546 0.0
C637 C 0.26609 0.16901 0.87422 0.0
H638 H 0.27082 0.18334 0.85289 0.0
H639 H 0.27562 0.18231 0.96629 0.0
C640 C 0.29773 0.21693 0.01527 0.0
N641 N 0.30141 0.21556 0.98363 0.0
C642 C 0.3035 0.22032 0.04664 0.0
C643 C 0.31675 0.22072 0.01252 0.0
C644 C 0.31078 0.21751 0.98158 0.0
C645 C 0.31308 0.22216 0.04537 0.0
H646 H 0.29032 0.21551 0.01596 0.0
H647 H 0.3137 0.21675 0.95594 0.0
C648 C 0.27301 0.2073 0.84712 0.0
N649 N 0.26602 0.21368 0.79058 0.0
C650 C 0.27736 0.21723 0.83932 0.0
C651 C 0.26511 0.20062 0.82615 0.0
C652 C 0.27372 0.2203 0.81061 0.0
C653 C 0.26168 0.20399 0.79771 0.0
C654 C 0.30043 0.22978 0.93053 0.0
C655 C 0.29933 0.2351 0.95877 0.0
C656 C 0.30974 0.23218 0.9188 0.0
C657 C 0.3076 0.2427 0.97508 0.0
C658 C 0.31783 0.23985 0.93577 0.0
N659 N 0.3166 0.2449 0.96335 0.0
C660 C 0.27102 0.21897 0.97107 0.0
C661 C 0.26322 0.21628 0.91345 0.0
C662 C 0.26504 0.22218 0.98589 0.0
N663 N 0.27007 0.21616 0.93544 0.0
C664 C 0.25718 0.21962 0.92697 0.0
C665 C 0.25806 0.22267 0.96369 0.0
H666 H 0.2764 0.21861 0.98815 0.0
H667 H 0.26236 0.21377 0.88552 0.0
C668 C 0.29859 0.21058 0.81129 0.0
N669 N 0.29793 0.21716 0.8331 0.0
C670 C 0.30414 0.2136 0.77932 0.0
C671 C 0.30793 0.23008 0.79214 0.0
C672 C 0.30235 0.22674 0.82404 0.0
C673 C 0.309 0.22349 0.76965 0.0
H674 H 0.29498 0.20301 0.81929 0.0
H675 H 0.30171 0.23181 0.842 0.0
O676 O 0.27914 0.20295 0.95959 0.0
O677 O 0.29417 0.20356 0.90386 0.0
O678 O 0.2765 0.20406 0.87471 0.0
O679 O 0.29243 0.22213 0.91492 0.0
H680 H 0.27482 0.19823 0.02911 0.0
H681 H 0.26271 0.19465 0.92078 0.0
H682 H 0.25813 0.18783 0.05346 0.0
H683 H 0.24629 0.18435 0.94699 0.0
H684 H 0.32404 0.20702 0.8858 0.0
H685 H 0.29338 0.19162 0.95617 0.0
H686 H 0.31118 0.21098 0.87045 0.0
H687 H 0.30654 0.18799 0.96999 0.0
H688 H 0.2688 0.16464 0.96379 0.0
H689 H 0.26357 0.16554 0.84779 0.0
H690 H 0.30051 0.22141 0.07167 0.0
H691 H 0.32418 0.2222 0.01074 0.0
H692 H 0.2834 0.22251 0.85546 0.0
H693 H 0.26168 0.1929 0.83183 0.0
H694 H 0.27701 0.22796 0.80432 0.0
H695 H 0.25557 0.1989 0.78128 0.0
H696 H 0.29217 0.23333 0.96816 0.0
H697 H 0.31072 0.22805 0.89731 0.0
H698 H 0.30686 0.24685 0.9971 0.0
H699 H 0.32509 0.24174 0.92718 0.0
H700 H 0.26586 0.22419 0.01456 0.0
H701 H 0.25198 0.21993 0.90864 0.0
H702 H 0.30469 0.20828 0.76248 0.0
H703 H 0.31162 0.23777 0.7858 0.0
Li704 Li 0.80079 0.08139 0.90667 0.0
Li705 Li 0.78646 0.07892 0.94471 0.0
Li706 Li 0.78661 0.0654 0.91513 0.0
Li707 Li 0.78432 0.07664 0.87872 0.0
C708 C 0.79605 0.06797 0.9778 0.0
N709 N 0.7957 0.05428 0.02552 0.0
C710 C 0.7902 0.0653 0.0091 0.0
C711 C 0.80178 0.06373 0.9709 0.0
C712 C 0.79012 0.05836 0.03287 0.0
C713 C 0.80148 0.05681 0.99531 0.0
C714 C 0.79433 0.09703 0.91918 0.0
C715 C 0.78748 0.10729 0.93171 0.0
N716 N 0.79592 0.11382 0.94837 0.0
C717 C 0.80295 0.10386 0.93625 0.0
C718 C 0.78655 0.09877 0.91669 0.0
C719 C 0.8036 0.1123 0.95089 0.0
C720 C 0.81701 0.09719 0.87694 0.0
N721 N 0.8143 0.08942 0.89931 0.0
C722 C 0.8309 0.09456 0.91283 0.0
C723 C 0.82098 0.08791 0.91684 0.0
C724 C 0.83393 0.10289 0.891 0.0
C725 C 0.82681 0.10407 0.87255 0.0
H726 H 0.8115 0.09821 0.86354 0.0
H727 H 0.81862 0.08169 0.93458 0.0
C728 C 0.77324 0.07896 0.99616 0.0
N729 N 0.78282 0.08319 0.98743 0.0
C730 C 0.77031 0.08181 0.02756 0.0
C731 C 0.78718 0.0932 0.04089 0.0
C732 C 0.78978 0.09008 0.00929 0.0
C733 C 0.77731 0.08906 0.05035 0.0
H734 H 0.76787 0.07326 0.97904 0.0
H735 H 0.79737 0.09313 0.00226 0.0
C736 C 0.79267 0.06458 0.84524 0.0
N737 N 0.79137 0.05039 0.79803 0.0
C738 C 0.78361 0.05742 0.83229 0.0
C739 C 0.80108 0.06456 0.83415 0.0
C740 C 0.7831 0.0503 0.80847 0.0
C741 C 0.80027 0.05732 0.81024 0.0
C742 C 0.76653 0.06444 0.90522 0.0
C743 C 0.76123 0.05486 0.89265 0.0
C744 C 0.7623 0.07034 0.90446 0.0
C745 C 0.7518 0.05135 0.87934 0.0
C746 C 0.75287 0.06657 0.89087 0.0
N747 N 0.74786 0.05723 0.8787 0.0
C748 C 0.7753 0.048 0.94956 0.0
C749 C 0.787 0.04723 0.91147 0.0
C750 C 0.77228 0.03875 0.96311 0.0
N751 N 0.78258 0.05209 0.92448 0.0
C752 C 0.78411 0.03785 0.92409 0.0
C753 C 0.77679 0.0336 0.95076 0.0
H754 H 0.77206 0.0521 0.95998 0.0
H755 H 0.793 0.05074 0.89254 0.0
C756 C 0.78366 0.08858 0.82469 0.0
N757 N 0.77892 0.07919 0.83625 0.0
C758 C 0.78045 0.09135 0.79389 0.0
C759 C 0.76752 0.07471 0.787 0.0
C760 C 0.77106 0.07224 0.8178 0.0
C761 C 0.77225 0.08438 0.7747 0.0
H762 H 0.79 0.09395 0.83934 0.0
H763 H 0.76753 0.06477 0.82672 0.0
O764 O 0.79601 0.07454 0.95365 0.0
O765 O 0.7935 0.08867 0.90509 0.0
O766 O 0.79334 0.07163 0.86848 0.0
O767 O 0.77574 0.068 0.91859 0.0
H768 H 0.78568 0.06845 0.01477 0.0
H769 H 0.80621 0.06557 0.94646 0.0
H770 H 0.78558 0.05618 0.05708 0.0
H771 H 0.80579 0.05339 0.9901 0.0
H772 H 0.78151 0.10871 0.9301 0.0
H773 H 0.80902 0.1026 0.93863 0.0
H774 H 0.77986 0.0936 0.90332 0.0
H775 H 0.81021 0.11762 0.96438 0.0
H776 H 0.8361 0.09325 0.92717 0.0
H777 H 0.82871 0.11044 0.85605 0.0
H778 H 0.76264 0.07824 0.03422 0.0
H779 H 0.79283 0.09884 0.05753 0.0
H780 H 0.77704 0.05731 0.84085 0.0
H781 H 0.80815 0.07008 0.84396 0.0
H782 H 0.77613 0.04468 0.79834 0.0
H783 H 0.80671 0.0572 0.80143 0.0
H784 H 0.76437 0.05019 0.89283 0.0
H785 H 0.76628 0.07776 0.91416 0.0
H786 H 0.74764 0.04396 0.86942 0.0
H787 H 0.74953 0.07106 0.89001 0.0
H788 H 0.76652 0.03567 0.98335 0.0
H789 H 0.78781 0.03412 0.91417 0.0
H790 H 0.78428 0.0989 0.7854 0.0
H791 H 0.76126 0.06909 0.7726 0.0
Li792 Li 0.71993 0.9334 0.07514 0.0
Li793 Li 0.70748 0.9225 0.11533 0.0
Li794 Li 0.71842 0.91774 0.08365 0.0
Li795 Li 0.70614 0.92013 0.0481 0.0
C796 C 0.72582 0.93484 0.1479 0.0
N797 N 0.73426 0.94909 0.20091 0.0
C798 C 0.72227 0.94117 0.15428 0.0
C799 C 0.73369 0.93578 0.16829 0.0
C800 C 0.72662 0.94832 0.18128 0.0
C801 C 0.73786 0.94303 0.19501 0.0
C802 C 0.69731 0.92986 0.07876 0.0
C803 C 0.67987 0.91966 0.08154 0.0
N804 N 0.67896 0.92774 0.0823 0.0
C805 C 0.6962 0.93805 0.07956 0.0
C806 C 0.68908 0.92059 0.07977 0.0
C807 C 0.68686 0.93683 0.08136 0.0
C808 C 0.72554 0.95206 0.0512 0.0
N809 N 0.72907 0.94669 0.06681 0.0
C810 C 0.74528 0.96017 0.06457 0.0
C811 C 0.7387 0.95054 0.07411 0.0
C812 C 0.74181 0.96585 0.04823 0.0
C813 C 0.73181 0.96173 0.04186 0.0
H814 H 0.71786 0.94875 0.04527 0.0
H815 H 0.74128 0.94606 0.08646 0.0
C816 C 0.69864 0.91231 0.1794 0.0
N817 N 0.70033 0.92026 0.15964 0.0
C818 C 0.69293 0.90978 0.21099 0.0
C819 C 0.69102 0.92381 0.20188 0.0
C820 C 0.6968 0.92609 0.17052 0.0
C821 C 0.68895 0.9155 0.22238 0.0
H822 H 0.70157 0.90783 0.17013 0.0
H823 H 0.69838 0.93247 0.15475 0.0
C824 C 0.72665 0.93106 0.01319 0.0
N825 N 0.74054 0.94507 0.96797 0.0
C826 C 0.72391 0.93539 0.98592 0.0
C827 C 0.73644 0.9338 0.01734 0.0
C828 C 0.73105 0.94248 0.96338 0.0
C829 C 0.74336 0.9409 0.99421 0.0
C830 C 0.69795 0.90081 0.08432 0.0
C831 C 0.70082 0.89521 0.06402 0.0
C832 C 0.68892 0.89628 0.10198 0.0
C833 C 0.69458 0.88517 0.06143 0.0
C834 C 0.68289 0.88622 0.09871 0.0
N835 N 0.68582 0.88093 0.07867 0.0
C836 C 0.72221 0.90455 0.11986 0.0
C837 C 0.72925 0.90893 0.06065 0.0
C838 C 0.72522 0.8977 0.12338 0.0
N839 N 0.72414 0.90986 0.08866 0.0
C840 C 0.7325 0.90225 0.06316 0.0
C841 C 0.7303 0.89636 0.09451 0.0
H842 H 0.71799 0.90537 0.14138 0.0
H843 H 0.7305 0.91311 0.03586 0.0
C844 C 0.6951 0.92202 0.99125 0.0
N845 N 0.69772 0.91584 0.00643 0.0
C846 C 0.68917 0.91927 0.96023 0.0
C847 C 0.68896 0.90395 0.96024 0.0
C848 C 0.69486 0.90699 0.99138 0.0
C849 C 0.68604 0.91013 0.9443 0.0
H850 H 0.69775 0.92917 0.00287 0.0
H851 H 0.69726 0.90232 0.00311 0.0
O852 O 0.72186 0.92794 0.121 0.0
O853 O 0.70644 0.931 0.07726 0.0
O854 O 0.71979 0.9243 0.03614 0.0
O855 O 0.70405 0.91063 0.0879 0.0
H856 H 0.7163 0.94066 0.13829 0.0
H857 H 0.73658 0.93097 0.16338 0.0
H858 H 0.72395 0.95328 0.18651 0.0
H859 H 0.74396 0.94384 0.21099 0.0
H860 H 0.67344 0.91253 0.08227 0.0
H861 H 0.7025 0.94529 0.07897 0.0
H862 H 0.68977 0.91417 0.07891 0.0
H863 H 0.68591 0.94311 0.08204 0.0
H864 H 0.75296 0.96315 0.06995 0.0
H865 H 0.7289 0.96588 0.02895 0.0
H866 H 0.69145 0.90326 0.22579 0.0
H867 H 0.68823 0.92851 0.21003 0.0
H868 H 0.71637 0.93339 0.98248 0.0
H869 H 0.73871 0.93063 0.03869 0.0
H870 H 0.72905 0.94595 0.94232 0.0
H871 H 0.75097 0.94315 0.99731 0.0
H872 H 0.70774 0.89858 0.04997 0.0
H873 H 0.6866 0.90046 0.1181 0.0
H874 H 0.69671 0.88077 0.04566 0.0
H875 H 0.67588 0.88263 0.11216 0.0
H876 H 0.72319 0.89322 0.14775 0.0
H877 H 0.73648 0.90155 0.0404 0.0
H878 H 0.68725 0.92434 0.94835 0.0
H879 H 0.6867 0.89684 0.94884 0.0
Li880 Li 0.07879 0.78635 0.05122 0.0
Li881 Li 0.08065 0.80026 0.0888 0.0
Li882 Li 0.07628 0.78464 0.11825 0.0
Li883 Li 0.06503 0.78623 0.07877 0.0
C884 C 0.09796 0.79861 0.08561 0.0
N885 N 0.11777 0.80931 0.07362 0.0
C886 C 0.1017 0.80585 0.05875 0.0
C887 C 0.10429 0.79679 0.10632 0.0
C888 C 0.11174 0.8112 0.05316 0.0
C889 C 0.11428 0.80227 0.09982 0.0
C890 C 0.06798 0.79749 0.02173 0.0
C891 C 0.05766 0.80458 0.0181 0.0
N892 N 0.05488 0.80084 0.98382 0.0
C893 C 0.06507 0.79377 0.98638 0.0
C894 C 0.0643 0.80299 0.03768 0.0
C895 C 0.05843 0.79553 0.96769 0.0
C896 C 0.0758 0.77607 0.98622 0.0
N897 N 0.08292 0.78202 0.00987 0.0
C898 C 0.0949 0.78092 0.97392 0.0
C899 C 0.09232 0.78438 0.00456 0.0
C900 C 0.08772 0.77479 0.94879 0.0
C901 C 0.07803 0.77232 0.95549 0.0
H902 H 0.06835 0.77416 0.99151 0.0
H903 H 0.09784 0.78891 0.02402 0.0
C904 C 0.09372 0.81726 0.12579 0.0
N905 N 0.08832 0.81388 0.09479 0.0
C906 C 0.10034 0.82716 0.12972 0.0
C907 C 0.09542 0.82994 0.0703 0.0
C908 C 0.08896 0.81997 0.0674 0.0
C909 C 0.10138 0.83364 0.10146 0.0
H910 H 0.09314 0.81219 0.14683 0.0
H911 H 0.08469 0.81706 0.04277 0.0
C912 C 0.06849 0.76736 0.07379 0.0
N913 N 0.06973 0.75091 0.06006 0.0
C914 C 0.06057 0.75911 0.05878 0.0
C915 C 0.07707 0.76728 0.08164 0.0
C916 C 0.06134 0.75086 0.05207 0.0
C917 C 0.07754 0.75888 0.0746 0.0
C918 C 0.06377 0.78934 0.15384 0.0
C919 C 0.05739 0.77932 0.15603 0.0
C920 C 0.06334 0.79548 0.1803 0.0
C921 C 0.05068 0.7756 0.18472 0.0
C922 C 0.05652 0.79148 0.20855 0.0
N923 N 0.05039 0.78171 0.21016 0.0
C924 C 0.08584 0.78579 0.18324 0.0
C925 C 0.073 0.76984 0.17078 0.0
C926 C 0.08826 0.78261 0.2151 0.0
N927 N 0.07842 0.77939 0.16168 0.0
C928 C 0.07518 0.76633 0.20238 0.0
C929 C 0.08295 0.77275 0.22489 0.0
H930 H 0.08998 0.79336 0.17534 0.0
H931 H 0.06703 0.76492 0.15341 0.0
C932 C 0.04815 0.77586 0.03861 0.0
N933 N 0.05171 0.78176 0.06836 0.0
C934 C 0.03871 0.77269 0.02649 0.0
C935 C 0.03661 0.78139 0.0768 0.0
C936 C 0.0462 0.78461 0.08745 0.0
C937 C 0.03285 0.77545 0.04574 0.0
H938 H 0.05275 0.77381 0.02382 0.0
H939 H 0.04926 0.78948 0.11051 0.0
O940 O 0.08817 0.79329 0.09169 0.0
O941 O 0.07426 0.79562 0.04092 0.0
O942 O 0.06801 0.77564 0.07873 0.0
O943 O 0.07045 0.7932 0.12616 0.0
H944 H 0.09688 0.80726 0.04218 0.0
H945 H 0.10149 0.79116 0.12703 0.0
H946 H 0.11474 0.81683 0.03248 0.0
H947 H 0.11926 0.80092 0.11557 0.0
H948 H 0.05469 0.80876 0.03022 0.0
H949 H 0.06787 0.78951 0.97363 0.0
H950 H 0.06643 0.80586 0.06515 0.0
H951 H 0.05607 0.79265 0.94039 0.0
H952 H 0.10249 0.78314 0.96985 0.0
H953 H 0.0722 0.76746 0.93747 0.0
H954 H 0.1049 0.82964 0.15392 0.0
H955 H 0.0959 0.83465 0.04801 0.0
H956 H 0.05393 0.75911 0.05211 0.0
H957 H 0.08333 0.77367 0.09268 0.0
H958 H 0.05527 0.74442 0.04037 0.0
H959 H 0.08413 0.75871 0.0805 0.0
H960 H 0.05758 0.77445 0.13578 0.0
H961 H 0.06824 0.80326 0.17898 0.0
H962 H 0.0457 0.76786 0.18674 0.0
H963 H 0.05611 0.79615 0.2292 0.0
H964 H 0.09436 0.7878 0.23142 0.0
H965 H 0.07082 0.75869 0.20921 0.0
H966 H 0.03599 0.76807 0.00251 0.0
H967 H 0.03224 0.78367 0.0921 0.0
Li968 Li 0.21171 0.27789 0.07872 0.0
Li969 Li 0.21292 0.29038 0.11779 0.0
Li970 Li 0.19763 0.2795 0.08495 0.0
Li971 Li 0.21248 0.29176 0.05045 0.0
C972 C 0.20731 0.2729 0.15277 0.0
N973 N 0.21385 0.2665 0.2107 0.0
C974 C 0.21723 0.27612 0.15655 0.0
C975 C 0.20073 0.26643 0.17842 0.0
C976 C 0.22039 0.2728 0.18604 0.0
C977 C 0.20417 0.26327 0.20752 0.0
C978 C 0.23074 0.30043 0.08257 0.0
C979 C 0.23816 0.31787 0.08641 0.0
N980 N 0.2471 0.31868 0.08596 0.0
C981 C 0.23999 0.30143 0.08209 0.0
C982 C 0.2298 0.30871 0.08471 0.0
C983 C 0.24818 0.31071 0.08384 0.0
C984 C 0.22344 0.27191 0.04568 0.0
N985 N 0.21612 0.26893 0.07047 0.0
C986 C 0.21535 0.2536 0.07713 0.0
C987 C 0.21205 0.26 0.08636 0.0
C988 C 0.22273 0.25642 0.05084 0.0
C989 C 0.22681 0.26569 0.03513 0.0
H990 H 0.22649 0.27905 0.03347 0.0
H991 H 0.20614 0.25777 0.10563 0.0
C992 C 0.21143 0.29961 0.18037 0.0
N993 N 0.21762 0.29756 0.16199 0.0
C994 C 0.21449 0.3053 0.21202 0.0
C995 C 0.23017 0.30641 0.20586 0.0
C996 C 0.2268 0.30069 0.17431 0.0
C997 C 0.22401 0.30886 0.22496 0.0
H998 H 0.20415 0.29696 0.17002 0.0
H999 H 0.23154 0.29883 0.15953 0.0
C1000 C 0.20265 0.27088 0.01657 0.0
N1001 N 0.20214 0.25629 0.97374 0.0
C1002 C 0.2083 0.2732 0.98482 0.0
C1003 C 0.19666 0.26114 0.02635 0.0
C1004 C 0.20796 0.26572 0.96357 0.0
C1005 C 0.19653 0.25387 0.00439 0.0
C1006 C 0.20066 0.29957 0.08304 0.0
C1007 C 0.19261 0.29636 0.05986 0.0
C1008 C 0.20433 0.30851 0.10094 0.0
C1009 C 0.18837 0.30215 0.05498 0.0
C1010 C 0.19989 0.3141 0.09529 0.0
N1011 N 0.19207 0.31083 0.07265 0.0
C1012 C 0.18031 0.2766 0.11579 0.0
C1013 C 0.1782 0.26794 0.06046 0.0
C1014 C 0.17047 0.27382 0.11633 0.0
N1015 N 0.18398 0.2738 0.08775 0.0
C1016 C 0.16829 0.26488 0.06013 0.0
C1017 C 0.16434 0.26803 0.08782 0.0
H1018 H 0.18514 0.2814 0.13677 0.0
H1019 H 0.18135 0.26595 0.03819 0.0
C1020 C 0.22556 0.30134 0.99309 0.0
N1021 N 0.21739 0.30032 0.00929 0.0
C1022 C 0.22955 0.30737 0.96261 0.0
C1023 C 0.21659 0.31114 0.96572 0.0
C1024 C 0.21287 0.30506 0.99618 0.0
C1025 C 0.22504 0.31236 0.94847 0.0
H1026 H 0.22896 0.29741 0.00379 0.0
H1027 H 0.20634 0.30407 0.00895 0.0
O1028 O 0.20399 0.27599 0.1241 0.0
O1029 O 0.2227 0.29135 0.08104 0.0
O1030 O 0.2031 0.27811 0.03828 0.0
O1031 O 0.2048 0.29392 0.08892 0.0
H1032 H 0.22244 0.28107 0.13689 0.0
H1033 H 0.19303 0.26387 0.17582 0.0
H1034 H 0.22804 0.27522 0.18929 0.0
H1035 H 0.19915 0.25825 0.22756 0.0
H1036 H 0.23754 0.32434 0.08809 0.0
H1037 H 0.24083 0.29508 0.08045 0.0
H1038 H 0.22272 0.30811 0.085 0.0
H1039 H 0.25538 0.31159 0.08354 0.0
H1040 H 0.21204 0.24646 0.08966 0.0
H1041 H 0.23259 0.26813 0.01502 0.0
H1042 H 0.20952 0.30708 0.22565 0.0
H1043 H 0.23751 0.30886 0.21522 0.0
H1044 H 0.21297 0.2807 0.97686 0.0
H1045 H 0.19231 0.25923 0.05106 0.0
H1046 H 0.21235 0.2674 0.93906 0.0
H1047 H 0.192 0.2463 0.01182 0.0
H1048 H 0.18977 0.28954 0.04531 0.0
H1049 H 0.21054 0.31112 0.11899 0.0
H1050 H 0.18216 0.29976 0.03705 0.0
H1051 H 0.20266 0.32103 0.10895 0.0
H1052 H 0.16783 0.27659 0.13788 0.0
H1053 H 0.16384 0.26032 0.03787 0.0
H1054 H 0.23612 0.30815 0.95041 0.0
H1055 H 0.21277 0.31469 0.95538 0.0
Li1056 Li 0.74279 0.62462 0.45173 0.0
Li1057 Li 0.74794 0.61482 0.41925 0.0
Li1058 Li 0.74596 0.62708 0.38695 0.0
Li1059 Li 0.73202 0.61245 0.4083 0.0
C1060 C 0.7616 0.63882 0.43051 0.0
N1061 N 0.77424 0.65853 0.43881 0.0
C1062 C 0.77161 0.64242 0.43236 0.0
C1063 C 0.75801 0.64525 0.43288 0.0
C1064 C 0.77789 0.6524 0.43656 0.0
C1065 C 0.76452 0.65518 0.43709 0.0
C1066 C 0.73941 0.6079 0.48815 0.0
C1067 C 0.73469 0.59884 0.54473 0.0
N1068 N 0.74417 0.60334 0.55523 0.0
C1069 C 0.74911 0.61243 0.4995 0.0
C1070 C 0.73213 0.60105 0.5109 0.0
C1071 C 0.75137 0.61003 0.5335 0.0
C1072 C 0.73669 0.63261 0.50903 0.0
N1073 N 0.74393 0.6311 0.49698 0.0
C1074 C 0.75387 0.63975 0.54816 0.0
C1075 C 0.75239 0.63452 0.51588 0.0
C1076 C 0.74659 0.64151 0.56126 0.0
C1077 C 0.73788 0.63786 0.54131 0.0
H1078 H 0.73004 0.62982 0.49339 0.0
H1079 H 0.7581 0.63336 0.50555 0.0
C1080 C 0.76462 0.61443 0.40339 0.0
N1081 N 0.75583 0.609 0.41965 0.0
C1082 C 0.77116 0.61103 0.40162 0.0
C1083 C 0.75943 0.5964 0.43303 0.0
C1084 C 0.75309 0.60011 0.43419 0.0
C1085 C 0.76861 0.6019 0.41653 0.0
H1086 H 0.76654 0.62144 0.39188 0.0
H1087 H 0.74599 0.5959 0.44666 0.0
C1088 C 0.72842 0.62736 0.39181 0.0
N1089 N 0.71581 0.62993 0.3472 0.0
C1090 C 0.72763 0.62494 0.35464 0.0
C1091 C 0.7228 0.63109 0.40627 0.0
C1092 C 0.72121 0.62629 0.33254 0.0
C1093 C 0.71647 0.63234 0.38328 0.0
C1094 C 0.73941 0.60487 0.35615 0.0
C1095 C 0.74193 0.60439 0.31985 0.0
C1096 C 0.7346 0.59636 0.37697 0.0
C1097 C 0.73958 0.59537 0.30491 0.0
C1098 C 0.73238 0.58749 0.36105 0.0
N1099 N 0.73489 0.58718 0.32565 0.0
C1100 C 0.75668 0.63494 0.32311 0.0
C1101 C 0.74936 0.64378 0.34557 0.0
C1102 C 0.76031 0.64105 0.29269 0.0
N1103 N 0.75122 0.63632 0.34842 0.0
C1104 C 0.75273 0.64999 0.31535 0.0
C1105 C 0.75819 0.64858 0.28828 0.0
H1106 H 0.75807 0.62897 0.32629 0.0
H1107 H 0.7451 0.6448 0.36637 0.0
C1108 C 0.71194 0.59959 0.42247 0.0
N1109 N 0.7189 0.60336 0.39605 0.0
C1110 C 0.7022 0.59343 0.41287 0.0
C1111 C 0.70708 0.59505 0.34932 0.0
C1112 C 0.71666 0.60116 0.36008 0.0
C1113 C 0.69967 0.59122 0.37576 0.0
H1114 H 0.71393 0.60153 0.45085 0.0
H1115 H 0.72228 0.60429 0.33949 0.0
O1116 O 0.7554 0.62906 0.42611 0.0
O1117 O 0.73696 0.61013 0.45506 0.0
O1118 O 0.73457 0.62603 0.4142 0.0
O1119 O 0.74174 0.61368 0.37112 0.0
H1120 H 0.77451 0.63754 0.43056 0.0
H1121 H 0.75029 0.64261 0.43154 0.0
H1122 H 0.78566 0.65529 0.43802 0.0
H1123 H 0.76184 0.66024 0.43896 0.0
H1124 H 0.72913 0.59355 0.56262 0.0
H1125 H 0.75485 0.61774 0.48228 0.0
H1126 H 0.72459 0.59748 0.5025 0.0
H1127 H 0.75885 0.61349 0.54262 0.0
H1128 H 0.76078 0.64259 0.5622 0.0
H1129 H 0.73206 0.63903 0.55057 0.0
H1130 H 0.77821 0.6156 0.38926 0.0
H1131 H 0.75716 0.58931 0.44462 0.0
H1132 H 0.73192 0.62207 0.34289 0.0
H1133 H 0.72333 0.633 0.43499 0.0
H1134 H 0.72053 0.62445 0.30374 0.0
H1135 H 0.71208 0.63521 0.39413 0.0
H1136 H 0.74566 0.61091 0.30339 0.0
H1137 H 0.73259 0.59658 0.40512 0.0
H1138 H 0.74148 0.59488 0.27683 0.0
H1139 H 0.72866 0.58085 0.37684 0.0
H1140 H 0.76444 0.63971 0.27225 0.0
H1141 H 0.75105 0.65579 0.31305 0.0
H1142 H 0.6967 0.5907 0.43409 0.0
H1143 H 0.70548 0.59342 0.32047 0.0
Li1144 Li 0.38313 0.13321 0.42136 0.0
Li1145 Li 0.37266 0.11789 0.45416 0.0
Li1146 Li 0.38553 0.11954 0.41087 0.0
Li1147 Li 0.37124 0.11916 0.38887 0.0
C1148 C 0.38921 0.13107 0.4918 0.0
N1149 N 0.39316 0.14005 0.5595 0.0
C1150 C 0.38407 0.13559 0.50374 0.0
C1151 C 0.39635 0.13113 0.51428 0.0
C1152 C 0.38618 0.14009 0.53805 0.0
C1153 C 0.39825 0.1357 0.54842 0.0
C1154 C 0.35935 0.12401 0.42312 0.0
C1155 C 0.34221 0.11224 0.42503 0.0
N1156 N 0.34019 0.11912 0.41266 0.0
C1157 C 0.35711 0.13097 0.41051 0.0
C1158 C 0.35184 0.11457 0.43048 0.0
C1159 C 0.34738 0.12835 0.40537 0.0
C1160 C 0.38502 0.15064 0.40011 0.0
N1161 N 0.38922 0.14696 0.42239 0.0
C1162 C 0.40116 0.16294 0.44166 0.0
C1163 C 0.39726 0.15286 0.44253 0.0
C1164 C 0.39676 0.16693 0.41968 0.0
C1165 C 0.38861 0.16062 0.39856 0.0
H1166 H 0.37883 0.14577 0.38357 0.0
H1167 H 0.40067 0.14976 0.45919 0.0
C1168 C 0.36527 0.10422 0.51303 0.0
N1169 N 0.36575 0.11233 0.49837 0.0
C1170 C 0.35936 0.09972 0.54354 0.0
C1171 C 0.35474 0.11211 0.54337 0.0
C1172 C 0.36083 0.11644 0.51343 0.0
C1173 C 0.35385 0.10358 0.55839 0.0
H1174 H 0.36928 0.10112 0.50045 0.0
H1175 H 0.36142 0.12293 0.5015 0.0
C1176 C 0.39396 0.13455 0.36117 0.0
N1177 N 0.41248 0.14721 0.33563 0.0
C1178 C 0.39546 0.13726 0.32425 0.0
C1179 C 0.40191 0.13827 0.38507 0.0
C1180 C 0.40487 0.14367 0.31188 0.0
C1181 C 0.41121 0.14467 0.37164 0.0
C1182 C 0.36681 0.10015 0.39864 0.0
C1183 C 0.36947 0.09894 0.36337 0.0
C1184 C 0.35869 0.09247 0.41549 0.0
C1185 C 0.36392 0.09007 0.3454 0.0
C1186 C 0.35334 0.08371 0.39661 0.0
N1187 N 0.35604 0.0827 0.36225 0.0
C1188 C 0.39911 0.11326 0.42647 0.0
C1189 C 0.39639 0.11489 0.36363 0.0
C1190 C 0.40566 0.11014 0.41724 0.0
N1191 N 0.39463 0.11552 0.39967 0.0
C1192 C 0.4029 0.11187 0.35319 0.0
C1193 C 0.4076 0.10941 0.38012 0.0
H1194 H 0.39755 0.11383 0.45493 0.0
H1195 H 0.39268 0.11667 0.34286 0.0
C1196 C 0.36533 0.1212 0.31914 0.0
N1197 N 0.36237 0.11519 0.3487 0.0
C1198 C 0.35953 0.11875 0.28783 0.0
C1199 C 0.34758 0.10409 0.31833 0.0
C1200 C 0.35361 0.10683 0.34904 0.0
C1201 C 0.35057 0.11003 0.28702 0.0
H1202 H 0.37225 0.12787 0.31981 0.0
H1203 H 0.3513 0.10224 0.37301 0.0
O1204 O 0.38726 0.12656 0.45842 0.0
O1205 O 0.36885 0.12639 0.42795 0.0
O1206 O 0.38476 0.12825 0.37351 0.0
O1207 O 0.37206 0.1088 0.41661 0.0
H1208 H 0.37857 0.1357 0.48665 0.0
H1209 H 0.40039 0.12766 0.50542 0.0
H1210 H 0.38227 0.14362 0.54761 0.0
H1211 H 0.40376 0.1358 0.56611 0.0
H1212 H 0.33634 0.10494 0.43045 0.0
H1213 H 0.36279 0.13832 0.4049 0.0
H1214 H 0.35344 0.10904 0.43976 0.0
H1215 H 0.34554 0.13366 0.3956 0.0
H1216 H 0.40755 0.16753 0.4579 0.0
H1217 H 0.38488 0.16331 0.38156 0.0
H1218 H 0.35883 0.09314 0.55456 0.0
H1219 H 0.35068 0.11534 0.55448 0.0
H1220 H 0.38942 0.13442 0.30527 0.0
H1221 H 0.40097 0.13626 0.41366 0.0
H1222 H 0.40612 0.14582 0.28337 0.0
H1223 H 0.41741 0.1476 0.38986 0.0
H1224 H 0.37563 0.10485 0.34976 0.0
H1225 H 0.35651 0.09331 0.44273 0.0
H1226 H 0.36585 0.08906 0.31798 0.0
H1227 H 0.34702 0.07771 0.40925 0.0
H1228 H 0.40918 0.10834 0.43881 0.0
H1229 H 0.40404 0.11125 0.32429 0.0
H1230 H 0.36215 0.12352 0.26423 0.0
H1231 H 0.34065 0.0974 0.31913 0.0
Li1232 Li 0.88106 0.25582 0.45362 0.0
Li1233 Li 0.86635 0.25057 0.42059 0.0
Li1234 Li 0.88071 0.2538 0.38685 0.0
Li1235 Li 0.87876 0.2673 0.41386 0.0
C1236 C 0.87725 0.23742 0.4282 0.0
N1237 N 0.88444 0.22488 0.43673 0.0
C1238 C 0.87105 0.22775 0.43845 0.0
C1239 C 0.88709 0.24068 0.42205 0.0
C1240 C 0.87482 0.22153 0.44271 0.0
C1241 C 0.89059 0.23424 0.42654 0.0
C1242 C 0.8668 0.25721 0.49207 0.0
C1243 C 0.86096 0.25981 0.5496 0.0
N1244 N 0.85715 0.25023 0.55783 0.0
C1245 C 0.86281 0.24739 0.50108 0.0
C1246 C 0.86586 0.26348 0.51648 0.0
C1247 C 0.85796 0.244 0.53446 0.0
C1248 C 0.89474 0.26272 0.51212 0.0
N1249 N 0.88694 0.25473 0.49765 0.0
C1250 C 0.88795 0.24458 0.54367 0.0
C1251 C 0.88336 0.24583 0.51335 0.0
C1252 C 0.8962 0.25262 0.55848 0.0
C1253 C 0.8995 0.26183 0.54288 0.0
H1254 H 0.89737 0.26974 0.49932 0.0
H1255 H 0.87697 0.23963 0.50221 0.0
C1256 C 0.84958 0.23305 0.40724 0.0
N1257 N 0.85271 0.24209 0.42082 0.0
C1258 C 0.83969 0.22636 0.40524 0.0
C1259 C 0.83637 0.23841 0.4314 0.0
C1260 C 0.84639 0.2449 0.43288 0.0
C1261 C 0.83292 0.22902 0.41725 0.0
H1262 H 0.85481 0.23107 0.39767 0.0
H1263 H 0.84912 0.25218 0.44328 0.0
C1264 C 0.89976 0.27043 0.41005 0.0
N1265 N 0.91947 0.28135 0.3959 0.0
C1266 C 0.90338 0.27859 0.38727 0.0
C1267 C 0.90621 0.26792 0.42605 0.0
C1268 C 0.91335 0.28398 0.38031 0.0
C1269 C 0.91614 0.2735 0.41844 0.0
C1270 C 0.86295 0.25536 0.35603 0.0
C1271 C 0.8592 0.24743 0.33214 0.0
C1272 C 0.85784 0.26029 0.36198 0.0
C1273 C 0.85031 0.24449 0.31478 0.0
C1274 C 0.84898 0.25713 0.34406 0.0
N1275 N 0.84543 0.24935 0.32106 0.0
C1276 C 0.88019 0.24078 0.33388 0.0
C1277 C 0.89329 0.25687 0.3264 0.0
C1278 C 0.88292 0.23779 0.3023 0.0
N1279 N 0.88538 0.25017 0.34526 0.0
C1280 C 0.89631 0.2542 0.29476 0.0
C1281 C 0.89106 0.24456 0.28221 0.0
H1282 H 0.87384 0.23563 0.34909 0.0
H1283 H 0.89713 0.26434 0.33536 0.0
C1284 C 0.88331 0.28675 0.43067 0.0
N1285 N 0.88155 0.28008 0.40408 0.0
C1286 C 0.88559 0.29619 0.4211 0.0
C1287 C 0.88407 0.29158 0.35722 0.0
C1288 C 0.8818 0.28228 0.36799 0.0
C1289 C 0.88604 0.29871 0.38386 0.0
H1290 H 0.88301 0.28476 0.4592 0.0
H1291 H 0.88044 0.27682 0.34749 0.0
O1292 O 0.87364 0.24359 0.42422 0.0
O1293 O 0.87158 0.26074 0.45957 0.0
O1294 O 0.89001 0.26515 0.41756 0.0
O1295 O 0.87149 0.25817 0.37413 0.0
H1296 H 0.8634 0.22512 0.44335 0.0
H1297 H 0.89194 0.24806 0.4135 0.0
H1298 H 0.87011 0.21405 0.45079 0.0
H1299 H 0.8982 0.23667 0.42184 0.0
H1300 H 0.86019 0.26458 0.56876 0.0
H1301 H 0.86341 0.24241 0.48253 0.0
H1302 H 0.8689 0.2711 0.50987 0.0
H1303 H 0.85485 0.23642 0.54177 0.0
H1304 H 0.88506 0.2374 0.55549 0.0
H1305 H 0.90583 0.2682 0.55371 0.0
H1306 H 0.83736 0.21915 0.39477 0.0
H1307 H 0.8314 0.24076 0.44072 0.0
H1308 H 0.89853 0.28068 0.37474 0.0
H1309 H 0.90361 0.26176 0.44435 0.0
H1310 H 0.91623 0.29027 0.36253 0.0
H1311 H 0.92119 0.27162 0.43057 0.0
H1312 H 0.86306 0.24352 0.32738 0.0
H1313 H 0.86062 0.2664 0.38062 0.0
H1314 H 0.84728 0.23832 0.29639 0.0
H1315 H 0.84491 0.26083 0.34856 0.0
H1316 H 0.87871 0.23027 0.2937 0.0
H1317 H 0.90252 0.25967 0.27972 0.0
H1318 H 0.88699 0.30146 0.44252 0.0
H1319 H 0.88454 0.29322 0.32823 0.0
Li1320 Li 0.95805 0.4097 0.27628 0.0
Li1321 Li 0.94341 0.3973 0.25128 0.0
Li1322 Li 0.95677 0.40769 0.21026 0.0
Li1323 Li 0.94701 0.41391 0.24597 0.0
C1324 C 0.96293 0.39543 0.25174 0.0
N1325 N 0.97638 0.38939 0.26112 0.0
C1326 C 0.96062 0.38722 0.27292 0.0
C1327 C 0.97207 0.40051 0.23503 0.0
C1328 C 0.96752 0.3843 0.27745 0.0
C1329 C 0.97876 0.39735 0.24016 0.0
C1330 C 0.94202 0.40171 0.32397 0.0
C1331 C 0.93294 0.39814 0.38035 0.0
N1332 N 0.93634 0.39214 0.39044 0.0
C1333 C 0.94543 0.39552 0.33491 0.0
C1334 C 0.93573 0.40305 0.34686 0.0
C1335 C 0.94248 0.39074 0.3686 0.0
C1336 C 0.96511 0.41956 0.34189 0.0
N1337 N 0.96662 0.4139 0.31786 0.0
C1338 C 0.97938 0.41482 0.35546 0.0
C1339 C 0.97363 0.41153 0.32401 0.0
C1340 C 0.97798 0.42068 0.38077 0.0
C1341 C 0.97075 0.42308 0.37349 0.0
H1342 H 0.95951 0.42137 0.33637 0.0
H1343 H 0.97477 0.40705 0.30488 0.0
C1344 C 0.93414 0.37685 0.24919 0.0
N1345 N 0.93302 0.38447 0.25908 0.0
C1346 C 0.92721 0.36742 0.25941 0.0
C1347 C 0.91792 0.37385 0.28844 0.0
C1348 C 0.92498 0.38314 0.27735 0.0
C1349 C 0.91911 0.36588 0.28018 0.0
H1350 H 0.9406 0.37814 0.2345 0.0
H1351 H 0.92424 0.38935 0.28445 0.0
C1352 C 0.96956 0.42764 0.25241 0.0
N1353 N 0.9862 0.44289 0.28225 0.0
C1354 C 0.969 0.4347 0.27344 0.0
C1355 C 0.97861 0.42842 0.24607 0.0
C1356 C 0.97749 0.44233 0.28841 0.0
C1357 C 0.98693 0.43617 0.26153 0.0
C1358 C 0.93426 0.39679 0.19206 0.0
C1359 C 0.93432 0.38963 0.16998 0.0
C1360 C 0.92545 0.39624 0.201 0.0
C1361 C 0.9255 0.38197 0.15734 0.0
C1362 C 0.91678 0.38846 0.18779 0.0
N1363 N 0.91699 0.38154 0.16645 0.0
C1364 C 0.96405 0.40179 0.14975 0.0
C1365 C 0.96784 0.41825 0.15074 0.0
C1366 C 0.96949 0.40342 0.11771 0.0
N1367 N 0.96344 0.40921 0.16564 0.0
C1368 C 0.97324 0.42018 0.11863 0.0
C1369 C 0.97416 0.41273 0.10182 0.0
H1370 H 0.96044 0.39466 0.16227 0.0
H1371 H 0.96722 0.424 0.1641 0.0
C1372 C 0.94159 0.42632 0.27824 0.0
N1373 N 0.94223 0.4226 0.24554 0.0
C1374 C 0.93907 0.43355 0.27946 0.0
C1375 C 0.93748 0.43266 0.21341 0.0
C1376 C 0.9401 0.42547 0.21345 0.0
C1377 C 0.93716 0.43694 0.2467 0.0
H1378 H 0.94338 0.4239 0.30324 0.0
H1379 H 0.94072 0.42237 0.18788 0.0
O1380 O 0.95618 0.39829 0.24658 0.0
O1381 O 0.9447 0.40637 0.29086 0.0
O1382 O 0.9613 0.41997 0.23832 0.0
O1383 O 0.94279 0.40419 0.20556 0.0
H1384 H 0.95355 0.3831 0.28571 0.0
H1385 H 0.97401 0.40685 0.2185 0.0
H1386 H 0.96583 0.37797 0.29387 0.0
H1387 H 0.98587 0.40124 0.22751 0.0
H1388 H 0.92806 0.3991 0.39831 0.0
H1389 H 0.9503 0.39442 0.31761 0.0
H1390 H 0.93299 0.40779 0.33871 0.0
H1391 H 0.94506 0.38592 0.37736 0.0
H1392 H 0.98477 0.41265 0.36013 0.0
H1393 H 0.9695 0.42771 0.3918 0.0
H1394 H 0.92843 0.36146 0.25272 0.0
H1395 H 0.91171 0.37294 0.30403 0.0
H1396 H 0.96207 0.43423 0.27852 0.0
H1397 H 0.9792 0.42311 0.22949 0.0
H1398 H 0.97715 0.4478 0.30501 0.0
H1399 H 0.99397 0.43683 0.25704 0.0
H1400 H 0.9411 0.38995 0.16303 0.0
H1401 H 0.92531 0.40172 0.21824 0.0
H1402 H 0.92542 0.37634 0.14038 0.0
H1403 H 0.90989 0.38791 0.19461 0.0
H1404 H 0.96998 0.39748 0.10538 0.0
H1405 H 0.97682 0.42748 0.10747 0.0
H1406 H 0.9388 0.43661 0.30569 0.0
H1407 H 0.93614 0.43514 0.18757 0.0
Li1408 Li 0.59818 0.5452 0.25456 0.0
Li1409 Li 0.58354 0.54463 0.27769 0.0
Li1410 Li 0.58268 0.53165 0.23828 0.0
Li1411 Li 0.58744 0.54777 0.21366 0.0
C1412 C 0.5937 0.5344 0.31375 0.0
N1413 N 0.60578 0.53316 0.36529 0.0
C1414 C 0.59578 0.53968 0.34639 0.0
C1415 C 0.59769 0.52842 0.30744 0.0
C1416 C 0.60192 0.53896 0.37208 0.0
C1417 C 0.6038 0.52792 0.3338 0.0
C1418 C 0.59916 0.56493 0.2422 0.0
C1419 C 0.59795 0.57879 0.22262 0.0
N1420 N 0.60736 0.58323 0.21128 0.0
C1421 C 0.60882 0.56963 0.2304 0.0
C1422 C 0.59367 0.56955 0.23839 0.0
C1423 C 0.61284 0.57889 0.21486 0.0
C1424 C 0.61657 0.54596 0.25156 0.0
N1425 N 0.61117 0.54933 0.26816 0.0
C1426 C 0.62414 0.55902 0.30927 0.0
C1427 C 0.61475 0.55575 0.29638 0.0
C1428 C 0.62992 0.55568 0.29281 0.0
C1429 C 0.62604 0.54908 0.26352 0.0
H1430 H 0.61353 0.54085 0.22916 0.0
H1431 H 0.61028 0.55832 0.30889 0.0
C1432 C 0.57147 0.54003 0.34022 0.0
N1433 N 0.57831 0.54742 0.31961 0.0
C1434 C 0.568 0.54204 0.3723 0.0
C1435 C 0.57882 0.5592 0.36154 0.0
C1436 C 0.58201 0.55686 0.32957 0.0
C1437 C 0.57177 0.55173 0.38347 0.0
H1438 H 0.56883 0.53258 0.33203 0.0
H1439 H 0.58757 0.56258 0.31306 0.0
C1440 C 0.59335 0.53359 0.1788 0.0
N1441 N 0.59193 0.52046 0.12608 0.0
C1442 C 0.59027 0.53407 0.14336 0.0
C1443 C 0.59578 0.52649 0.18736 0.0
C1444 C 0.58959 0.52735 0.11709 0.0
C1445 C 0.59498 0.51989 0.16035 0.0
C1446 C 0.56615 0.53636 0.24914 0.0
C1447 C 0.55927 0.52693 0.25993 0.0
C1448 C 0.56417 0.54394 0.25391 0.0
C1449 C 0.55054 0.52526 0.27561 0.0
C1450 C 0.55537 0.54197 0.26977 0.0
N1451 N 0.54879 0.53275 0.28021 0.0
C1452 C 0.57348 0.51186 0.25729 0.0
C1453 C 0.571 0.51488 0.19578 0.0
C1454 C 0.56698 0.50194 0.25293 0.0
N1455 N 0.57526 0.5181 0.22904 0.0
C1456 C 0.56463 0.505 0.18992 0.0
C1457 C 0.56231 0.49837 0.21901 0.0
H1458 H 0.57676 0.51465 0.28375 0.0
H1459 H 0.57232 0.52003 0.17409 0.0
C1460 C 0.59441 0.56051 0.1517 0.0
N1461 N 0.58649 0.55447 0.17206 0.0
C1462 C 0.59348 0.56549 0.1218 0.0
C1463 C 0.57622 0.55767 0.13383 0.0
C1464 C 0.5775 0.55292 0.16352 0.0
C1465 C 0.58427 0.56413 0.11262 0.0
H1466 H 0.60146 0.56148 0.15875 0.0
H1467 H 0.57129 0.54792 0.17959 0.0
O1468 O 0.58793 0.53521 0.2878 0.0
O1469 O 0.59505 0.55582 0.25709 0.0
O1470 O 0.59405 0.54009 0.20487 0.0
O1471 O 0.57481 0.53818 0.23426 0.0
H1472 H 0.5928 0.54437 0.35162 0.0
H1473 H 0.59615 0.5243 0.28229 0.0
H1474 H 0.60365 0.54306 0.39736 0.0
H1475 H 0.60699 0.52338 0.32918 0.0
H1476 H 0.59377 0.58243 0.21929 0.0
H1477 H 0.61316 0.56614 0.23284 0.0
H1478 H 0.58616 0.56598 0.24712 0.0
H1479 H 0.6203 0.5826 0.20549 0.0
H1480 H 0.6269 0.56425 0.33145 0.0
H1481 H 0.63025 0.5463 0.2502 0.0
H1482 H 0.56266 0.53608 0.38874 0.0
H1483 H 0.58186 0.56676 0.36911 0.0
H1484 H 0.58838 0.53953 0.13625 0.0
H1485 H 0.59813 0.526 0.21469 0.0
H1486 H 0.58718 0.52761 0.08959 0.0
H1487 H 0.59677 0.51431 0.16666 0.0
H1488 H 0.56066 0.52098 0.25646 0.0
H1489 H 0.56944 0.55128 0.24589 0.0
H1490 H 0.54516 0.51801 0.28422 0.0
H1491 H 0.55377 0.54778 0.27387 0.0
H1492 H 0.5653 0.49722 0.27648 0.0
H1493 H 0.56137 0.50264 0.16312 0.0
H1494 H 0.59989 0.57041 0.1063 0.0
H1495 H 0.56895 0.55616 0.12723 0.0
Li1496 Li 0.45375 0.05467 0.25634 0.0
Li1497 Li 0.45191 0.03963 0.28297 0.0
Li1498 Li 0.46638 0.05112 0.24975 0.0
Li1499 Li 0.45115 0.04128 0.21545 0.0
C1500 C 0.46957 0.05721 0.31673 0.0
N1501 N 0.48676 0.06506 0.35587 0.0
C1502 C 0.47108 0.05155 0.34237 0.0
C1503 C 0.47679 0.06689 0.3112 0.0
C1504 C 0.47982 0.05565 0.36185 0.0
C1505 C 0.48544 0.07071 0.33118 0.0
C1506 C 0.43317 0.03755 0.2671 0.0
C1507 C 0.4163 0.02496 0.26909 0.0
N1508 N 0.41461 0.03004 0.29526 0.0
C1509 C 0.43124 0.04267 0.29385 0.0
C1510 C 0.42561 0.02865 0.25444 0.0
C1511 C 0.42183 0.03874 0.30781 0.0
C1512 C 0.44281 0.0642 0.24676 0.0
N1513 N 0.45038 0.06441 0.26496 0.0
C1514 C 0.45202 0.07734 0.30317 0.0
C1515 C 0.45509 0.07089 0.2923 0.0
C1516 C 0.44394 0.07701 0.2861 0.0
C1517 C 0.43945 0.07048 0.25692 0.0
H1518 H 0.43911 0.05884 0.22551 0.0
H1519 H 0.46098 0.07082 0.30666 0.0
C1520 C 0.44983 0.02425 0.32999 0.0
N1521 N 0.44716 0.03107 0.32436 0.0
C1522 C 0.44669 0.01838 0.36118 0.0
C1523 C 0.43836 0.02681 0.3809 0.0
C1524 C 0.4417 0.03255 0.34947 0.0
C1525 C 0.44085 0.0196 0.38705 0.0
H1526 H 0.45457 0.02349 0.3108 0.0
H1527 H 0.44018 0.03839 0.3457 0.0
C1528 C 0.46029 0.06275 0.19335 0.0
N1529 N 0.45864 0.0776 0.16107 0.0
C1530 C 0.45344 0.06068 0.1657 0.0
C1531 C 0.46635 0.07237 0.20445 0.0
C1532 C 0.45271 0.06829 0.14973 0.0
C1533 C 0.46538 0.07977 0.18785 0.0
C1534 C 0.45551 0.02711 0.23811 0.0
C1535 C 0.46198 0.02391 0.22876 0.0
C1536 C 0.44556 0.02043 0.24026 0.0
C1537 C 0.45837 0.01403 0.2218 0.0
C1538 C 0.44223 0.01062 0.2331 0.0
N1539 N 0.44865 0.00765 0.22408 0.0
C1540 C 0.48307 0.05031 0.26411 0.0
C1541 C 0.48622 0.06449 0.23138 0.0
C1542 C 0.49294 0.05331 0.26484 0.0
N1543 N 0.47994 0.05592 0.24773 0.0
C1544 C 0.4962 0.06781 0.23157 0.0
C1545 C 0.49967 0.06219 0.2486 0.0
H1546 H 0.47788 0.04351 0.27677 0.0
H1547 H 0.4835 0.06878 0.21849 0.0
C1548 C 0.43674 0.03174 0.15961 0.0
N1549 N 0.44581 0.03425 0.17143 0.0
C1550 C 0.43293 0.02602 0.12817 0.0
C1551 C 0.44792 0.02571 0.12174 0.0
C1552 C 0.45147 0.03152 0.15288 0.0
C1553 C 0.43851 0.02283 0.10895 0.0
H1554 H 0.43245 0.03414 0.17467 0.0
H1555 H 0.45869 0.03369 0.16278 0.0
O1556 O 0.46116 0.05325 0.29671 0.0
O1557 O 0.4423 0.04136 0.25248 0.0
O1558 O 0.46099 0.05538 0.20977 0.0
O1559 O 0.45892 0.03678 0.24432 0.0
H1560 H 0.4656 0.04405 0.34701 0.0
H1561 H 0.47583 0.07135 0.29111 0.0
H1562 H 0.48109 0.05134 0.38165 0.0
H1563 H 0.49112 0.07816 0.3269 0.0
H1564 H 0.4104 0.01807 0.25958 0.0
H1565 H 0.43698 0.04952 0.30426 0.0
H1566 H 0.4269 0.02462 0.23343 0.0
H1567 H 0.42027 0.0426 0.32869 0.0
H1568 H 0.45579 0.08235 0.3254 0.0
H1569 H 0.43311 0.06988 0.2433 0.0
H1570 H 0.44883 0.01294 0.365 0.0
H1571 H 0.4341 0.02818 0.40069 0.0
H1572 H 0.44869 0.05328 0.15682 0.0
H1573 H 0.47162 0.07409 0.22607 0.0
H1574 H 0.44742 0.06679 0.12839 0.0
H1575 H 0.46997 0.08724 0.19635 0.0
H1576 H 0.4697 0.029 0.22676 0.0
H1577 H 0.44048 0.02279 0.24758 0.0
H1578 H 0.46328 0.01145 0.21451 0.0
H1579 H 0.43455 0.00537 0.23472 0.0
H1580 H 0.49525 0.04864 0.27757 0.0
H1581 H 0.50113 0.07472 0.2189 0.0
H1582 H 0.42571 0.02413 0.11906 0.0
H1583 H 0.45246 0.02332 0.10842 0.0
Li1584 Li 0.58334 0.05092 0.24977 0.0
Li1585 Li 0.58617 0.03941 0.28471 0.0
Li1586 Li 0.59959 0.05393 0.25693 0.0
Li1587 Li 0.58815 0.04028 0.21942 0.0
C1588 C 0.58769 0.0582 0.31702 0.0
N1589 N 0.58086 0.06816 0.35801 0.0
C1590 C 0.5812 0.05355 0.34586 0.0
C1591 C 0.59077 0.06793 0.30922 0.0
C1592 C 0.57782 0.05871 0.36624 0.0
C1593 C 0.58721 0.07283 0.33019 0.0
C1594 C 0.5692 0.02999 0.22482 0.0
C1595 C 0.56082 0.01402 0.19748 0.0
N1596 N 0.55595 0.01699 0.17511 0.0
C1597 C 0.5641 0.03287 0.20164 0.0
C1598 C 0.56752 0.02047 0.22288 0.0
C1599 C 0.55743 0.02619 0.1767 0.0
C1600 C 0.57661 0.06329 0.22159 0.0
N1601 N 0.57522 0.05646 0.24706 0.0
C1602 C 0.56141 0.05671 0.27132 0.0
C1603 C 0.56774 0.05304 0.27132 0.0
C1604 C 0.56262 0.06373 0.24535 0.0
C1605 C 0.57028 0.067 0.22003 0.0
H1606 H 0.58253 0.06574 0.20225 0.0
H1607 H 0.56667 0.04741 0.29054 0.0
C1608 C 0.58839 0.03434 0.35635 0.0
N1609 N 0.58232 0.03138 0.32697 0.0
C1610 C 0.58581 0.02871 0.38811 0.0
C1611 C 0.57069 0.01717 0.35898 0.0
C1612 C 0.57359 0.02302 0.32772 0.0
C1613 C 0.57685 0.02 0.38971 0.0
H1614 H 0.59522 0.04112 0.35511 0.0
H1615 H 0.56885 0.02092 0.30414 0.0
C1616 C 0.6006 0.06151 0.19193 0.0
N1617 N 0.61635 0.0761 0.15519 0.0
C1618 C 0.60518 0.05918 0.16428 0.0
C1619 C 0.60397 0.07125 0.20073 0.0
C1620 C 0.61314 0.06667 0.14605 0.0
C1621 C 0.61197 0.07852 0.18191 0.0
C1622 C 0.60021 0.03542 0.27798 0.0
C1623 C 0.60855 0.04039 0.29962 0.0
C1624 C 0.59464 0.02529 0.28009 0.0
C1625 C 0.61115 0.03513 0.32316 0.0
C1626 C 0.59747 0.02029 0.30404 0.0
N1627 N 0.6056 0.02527 0.32489 0.0
C1628 C 0.61502 0.06943 0.29382 0.0
C1629 C 0.6198 0.06372 0.24231 0.0
C1630 C 0.6247 0.07575 0.30307 0.0
N1631 N 0.61278 0.06352 0.26415 0.0
C1632 C 0.62959 0.06998 0.25038 0.0
C1633 C 0.63215 0.07596 0.28161 0.0
H1634 H 0.60931 0.06894 0.3113 0.0
H1635 H 0.6178 0.05876 0.21942 0.0
C1636 C 0.58253 0.03484 0.14627 0.0
N1637 N 0.58639 0.03292 0.17618 0.0
C1638 C 0.5802 0.02899 0.11515 0.0
C1639 C 0.58612 0.01947 0.14588 0.0
C1640 C 0.58838 0.02554 0.17633 0.0
C1641 C 0.58185 0.02108 0.11496 0.0
H1642 H 0.58102 0.04077 0.14704 0.0
H1643 H 0.59154 0.02424 0.20034 0.0
O1644 O 0.59097 0.05323 0.29638 0.0
O1645 O 0.57596 0.03649 0.24871 0.0
O1646 O 0.59286 0.05429 0.21037 0.0
O1647 O 0.59745 0.04046 0.25518 0.0
H1648 H 0.57871 0.04601 0.35221 0.0
H1649 H 0.59577 0.07163 0.28695 0.0
H1650 H 0.57276 0.0552 0.3885 0.0
H1651 H 0.58947 0.08035 0.32428 0.0
H1652 H 0.55952 0.00667 0.19543 0.0
H1653 H 0.56534 0.04021 0.20259 0.0
H1654 H 0.5715 0.01815 0.24029 0.0
H1655 H 0.55346 0.02834 0.15848 0.0
H1656 H 0.55545 0.05387 0.29071 0.0
H1657 H 0.57132 0.07234 0.19939 0.0
H1658 H 0.5907 0.03123 0.41138 0.0
H1659 H 0.56375 0.01048 0.359 0.0
H1660 H 0.60268 0.05168 0.15722 0.0
H1661 H 0.6005 0.07317 0.22206 0.0
H1662 H 0.61679 0.06498 0.1247 0.0
H1663 H 0.6147 0.08609 0.18857 0.0
H1664 H 0.61293 0.04822 0.29854 0.0
H1665 H 0.58808 0.02133 0.26401 0.0
H1666 H 0.61757 0.03888 0.34015 0.0
H1667 H 0.59318 0.01246 0.30618 0.0
H1668 H 0.62631 0.08005 0.3278 0.0
H1669 H 0.63509 0.06996 0.2329 0.0
H1670 H 0.57684 0.03043 0.092 0.0
H1671 H 0.58763 0.01353 0.14661 0.0
Li1672 Li 0.9458 0.53211 0.24671 0.0
Li1673 Li 0.95873 0.54649 0.27912 0.0
Li1674 Li 0.94505 0.54668 0.25487 0.0
Li1675 Li 0.9568 0.54735 0.21328 0.0
C1676 C 0.93639 0.53535 0.3109 0.0
N1677 N 0.91898 0.53079 0.34425 0.0
C1678 C 0.93635 0.53926 0.3452 0.0
C1679 C 0.92756 0.52911 0.29364 0.0
C1680 C 0.92748 0.53689 0.36155 0.0
C1681 C 0.91885 0.52688 0.31097 0.0
C1682 C 0.96345 0.5326 0.25317 0.0
C1683 C 0.97286 0.5246 0.24601 0.0
N1684 N 0.96962 0.52024 0.27915 0.0
C1685 C 0.96022 0.52805 0.2872 0.0
C1686 C 0.96982 0.53087 0.2324 0.0
C1687 C 0.96342 0.52182 0.29983 0.0
C1688 C 0.94151 0.51461 0.21323 0.0
N1689 N 0.93979 0.51839 0.24379 0.0
C1690 C 0.93224 0.50289 0.27316 0.0
C1691 C 0.93517 0.51276 0.27335 0.0
C1692 C 0.93438 0.49884 0.24275 0.0
C1693 C 0.93888 0.50481 0.21212 0.0
H1694 H 0.94542 0.51934 0.19052 0.0
H1695 H 0.93418 0.51599 0.29782 0.0
C1696 C 0.96561 0.55462 0.34775 0.0
N1697 N 0.96786 0.5509 0.31829 0.0
C1698 C 0.97172 0.55784 0.37822 0.0
C1699 C 0.98264 0.55382 0.34674 0.0
C1700 C 0.97626 0.55059 0.31695 0.0
C1701 C 0.98035 0.55742 0.37813 0.0
H1702 H 0.95906 0.55509 0.34748 0.0
H1703 H 0.97806 0.54789 0.29275 0.0
C1704 C 0.93671 0.54072 0.18694 0.0
N1705 N 0.92481 0.54442 0.14276 0.0
C1706 C 0.93973 0.55021 0.17549 0.0
C1707 C 0.92765 0.53311 0.17597 0.0
C1708 C 0.9336 0.55193 0.15315 0.0
C1709 C 0.92174 0.53513 0.15361 0.0
C1710 C 0.96808 0.56477 0.24878 0.0
C1711 C 0.97 0.57428 0.25432 0.0
C1712 C 0.97576 0.56312 0.24091 0.0
C1713 C 0.97956 0.58197 0.25196 0.0
C1714 C 0.98522 0.571 0.23878 0.0
N1715 N 0.98691 0.58019 0.2443 0.0
C1716 C 0.94114 0.55995 0.28729 0.0
C1717 C 0.92719 0.54743 0.25765 0.0
C1718 C 0.93576 0.56398 0.30097 0.0
N1719 N 0.9368 0.5518 0.26627 0.0
C1720 C 0.92149 0.55116 0.2712 0.0
C1721 C 0.92578 0.55951 0.29333 0.0
H1722 H 0.94874 0.56314 0.29438 0.0
H1723 H 0.92386 0.54086 0.24145 0.0
C1724 C 0.96572 0.54614 0.14916 0.0
N1725 N 0.96348 0.55211 0.16821 0.0
C1726 C 0.97114 0.54938 0.11692 0.0
C1727 C 0.97169 0.56478 0.12419 0.0
C1728 C 0.96624 0.56124 0.15627 0.0
C1729 C 0.97428 0.55885 0.10422 0.0
H1730 H 0.96342 0.53892 0.15937 0.0
H1731 H 0.96433 0.56582 0.17192 0.0
O1732 O 0.945 0.53775 0.29389 0.0
O1733 O 0.96027 0.53858 0.2398 0.0
O1734 O 0.94251 0.53889 0.20926 0.0
O1735 O 0.95872 0.5572 0.25108 0.0
H1736 H 0.94307 0.54406 0.35913 0.0
H1737 H 0.92744 0.52615 0.2668 0.0
H1738 H 0.92735 0.53988 0.38803 0.0
H1739 H 0.91197 0.5221 0.2978 0.0
H1740 H 0.97779 0.52319 0.23021 0.0
H1741 H 0.95529 0.52929 0.30372 0.0
H1742 H 0.97238 0.53433 0.20601 0.0
H1743 H 0.96096 0.51824 0.32606 0.0
H1744 H 0.92867 0.49858 0.2972 0.0
H1745 H 0.94087 0.50211 0.18834 0.0
H1746 H 0.9696 0.5605 0.40179 0.0
H1747 H 0.98931 0.55357 0.34502 0.0
H1748 H 0.94666 0.55619 0.18426 0.0
H1749 H 0.92521 0.52574 0.18482 0.0
H1750 H 0.93582 0.55925 0.1442 0.0
H1751 H 0.9147 0.52932 0.14493 0.0
H1752 H 0.96415 0.57569 0.26034 0.0
H1753 H 0.97447 0.55585 0.23632 0.0
H1754 H 0.98114 0.58936 0.25619 0.0
H1755 H 0.99121 0.56982 0.2327 0.0
H1756 H 0.9393 0.57035 0.31839 0.0
H1757 H 0.9138 0.54753 0.2647 0.0
H1758 H 0.97307 0.5446 0.10264 0.0
H1759 H 0.97385 0.57208 0.11514 0.0
Li1760 Li 0.45351 0.41319 0.28391 0.0
Li1761 Li 0.46737 0.41426 0.24576 0.0
Li1762 Li 0.45125 0.41034 0.21673 0.0
Li1763 Li 0.45279 0.39944 0.25684 0.0
C1764 C 0.46556 0.43208 0.24627 0.0
N1765 N 0.47547 0.45212 0.25196 0.0
C1766 C 0.47405 0.43683 0.26724 0.0
C1767 C 0.46212 0.43752 0.22817 0.0
C1768 C 0.47895 0.44697 0.26976 0.0
C1769 C 0.46722 0.44764 0.23143 0.0
C1770 C 0.46286 0.4015 0.31632 0.0
C1771 C 0.46945 0.39114 0.33128 0.0
N1772 N 0.46323 0.38749 0.36014 0.0
C1773 C 0.45657 0.39769 0.34628 0.0
C1774 C 0.46938 0.39823 0.3088 0.0
C1775 C 0.45685 0.39059 0.36803 0.0
C1776 C 0.44203 0.41124 0.3446 0.0
N1777 N 0.44994 0.41794 0.32574 0.0
C1778 C 0.4521 0.43038 0.36792 0.0
C1779 C 0.45497 0.42738 0.33671 0.0
C1780 C 0.44398 0.4236 0.38806 0.0
C1781 C 0.4389 0.41392 0.37592 0.0
H1782 H 0.43818 0.40376 0.33545 0.0
H1783 H 0.46123 0.43259 0.3215 0.0
C1784 C 0.48384 0.4271 0.20669 0.0
N1785 N 0.48093 0.42161 0.23758 0.0
C1786 C 0.49366 0.43378 0.20105 0.0
C1787 C 0.49735 0.42862 0.25822 0.0
C1788 C 0.48743 0.42217 0.26307 0.0
C1789 C 0.50058 0.43475 0.22732 0.0
H1790 H 0.47846 0.42661 0.18728 0.0
H1791 H 0.4849 0.4179 0.28784 0.0
C1792 C 0.4347 0.40452 0.25722 0.0
N1793 N 0.41947 0.40828 0.25731 0.0
C1794 C 0.4251 0.39688 0.2596 0.0
C1795 C 0.43654 0.41409 0.25488 0.0
C1796 C 0.41751 0.39892 0.2596 0.0
C1797 C 0.42875 0.41584 0.25498 0.0
C1798 C 0.45716 0.3962 0.18899 0.0
C1799 C 0.44753 0.38995 0.17842 0.0
C1800 C 0.4644 0.39408 0.17919 0.0
C1801 C 0.44529 0.38157 0.15852 0.0
C1802 C 0.46186 0.38563 0.15923 0.0
N1803 N 0.45244 0.3796 0.14943 0.0
C1804 C 0.45236 0.42022 0.15235 0.0
C1805 C 0.43647 0.40728 0.16484 0.0
C1806 C 0.44905 0.42283 0.12132 0.0
N1807 N 0.44605 0.41268 0.17366 0.0
C1808 C 0.43282 0.40968 0.13419 0.0
C1809 C 0.43912 0.41763 0.11217 0.0
H1810 H 0.45997 0.4243 0.15981 0.0
H1811 H 0.43162 0.4012 0.18184 0.0
C1812 C 0.43905 0.3816 0.28477 0.0
N1813 N 0.44775 0.38597 0.26716 0.0
C1814 C 0.435 0.37205 0.29697 0.0
C1815 C 0.44895 0.37161 0.27273 0.0
C1816 C 0.4527 0.38118 0.26067 0.0
C1817 C 0.44001 0.36697 0.29132 0.0
H1818 H 0.43539 0.38564 0.29045 0.0
H1819 H 0.45971 0.38488 0.24742 0.0
O1820 O 0.46076 0.42218 0.2427 0.0
O1821 O 0.46256 0.40832 0.2943 0.0
O1822 O 0.44217 0.40255 0.25704 0.0
O1823 O 0.45948 0.40439 0.20869 0.0
H1824 H 0.47675 0.43274 0.28183 0.0
H1825 H 0.45556 0.43397 0.21179 0.0
H1826 H 0.48552 0.45073 0.28596 0.0
H1827 H 0.46463 0.45194 0.2176 0.0
H1828 H 0.4744 0.38848 0.32558 0.0
H1829 H 0.45148 0.40012 0.3525 0.0
H1830 H 0.47416 0.40094 0.28531 0.0
H1831 H 0.45198 0.38753 0.39115 0.0
H1832 H 0.45616 0.43795 0.37605 0.0
H1833 H 0.43268 0.40842 0.39086 0.0
H1834 H 0.49571 0.43845 0.17721 0.0
H1835 H 0.50238 0.42899 0.27901 0.0
H1836 H 0.42353 0.38942 0.26125 0.0
H1837 H 0.44387 0.42011 0.25311 0.0
H1838 H 0.41005 0.39307 0.26137 0.0
H1839 H 0.43008 0.4232 0.2532 0.0
H1840 H 0.44185 0.39151 0.18587 0.0
H1841 H 0.47189 0.39889 0.18715 0.0
H1842 H 0.43787 0.37662 0.15034 0.0
H1843 H 0.46738 0.38387 0.15158 0.0
H1844 H 0.45423 0.42886 0.10475 0.0
H1845 H 0.42511 0.40549 0.12841 0.0
H1846 H 0.42818 0.36879 0.31178 0.0
H1847 H 0.45302 0.36792 0.26785 0.0
Li1848 Li 0.38732 0.26617 0.4117 0.0
Li1849 Li 0.37348 0.2538 0.44634 0.0
Li1850 Li 0.38476 0.25003 0.41444 0.0
Li1851 Li 0.37317 0.25307 0.38025 0.0
C1852 C 0.39437 0.26622 0.47674 0.0
N1853 N 0.4083 0.28152 0.51746 0.0
C1854 C 0.39159 0.27013 0.50544 0.0
C1855 C 0.40424 0.27004 0.46889 0.0
C1856 C 0.39874 0.27787 0.5257 0.0
C1857 C 0.41117 0.27779 0.48973 0.0
C1858 C 0.36839 0.2667 0.39383 0.0
C1859 C 0.35297 0.26419 0.37181 0.0
N1860 N 0.35764 0.27297 0.3547 0.0
C1861 C 0.37303 0.27571 0.37611 0.0
C1862 C 0.35827 0.2609 0.39181 0.0
C1863 C 0.36747 0.27875 0.35645 0.0
C1864 C 0.40307 0.28242 0.3797 0.0
N1865 N 0.3967 0.27955 0.40808 0.0
C1866 C 0.40243 0.29604 0.42525 0.0
C1867 C 0.39634 0.2861 0.43106 0.0
C1868 C 0.40883 0.29925 0.3952 0.0
C1869 C 0.40925 0.29228 0.37277 0.0
H1870 H 0.40306 0.27708 0.3614 0.0
H1871 H 0.39105 0.2836 0.45298 0.0
C1872 C 0.36673 0.24583 0.51623 0.0
N1873 N 0.36573 0.25113 0.48911 0.0
C1874 C 0.36082 0.24324 0.54726 0.0
C1875 C 0.35324 0.25196 0.52256 0.0
C1876 C 0.35926 0.25432 0.49187 0.0
C1877 C 0.35391 0.24626 0.55066 0.0
H1878 H 0.37203 0.24349 0.51342 0.0
H1879 H 0.35874 0.25867 0.47022 0.0
C1880 C 0.39233 0.25562 0.34787 0.0
N1881 N 0.40269 0.24982 0.30398 0.0
C1882 C 0.38798 0.24989 0.3169 0.0
C1883 C 0.40199 0.25848 0.35632 0.0
C1884 C 0.39333 0.24702 0.29509 0.0
C1885 C 0.40709 0.25544 0.33386 0.0
C1886 C 0.3634 0.23487 0.43391 0.0
C1887 C 0.36584 0.22905 0.455 0.0
C1888 C 0.35384 0.23307 0.4339 0.0
C1889 C 0.35866 0.22156 0.47611 0.0
C1890 C 0.34688 0.22552 0.45545 0.0
N1891 N 0.34941 0.21998 0.47594 0.0
C1892 C 0.39664 0.24308 0.44415 0.0
C1893 C 0.38817 0.23531 0.38962 0.0
C1894 C 0.40045 0.23684 0.44648 0.0
N1895 N 0.39061 0.24217 0.41606 0.0
C1896 C 0.39199 0.22909 0.3904 0.0
C1897 C 0.39811 0.22976 0.41931 0.0
H1898 H 0.3983 0.24849 0.46516 0.0
H1899 H 0.38312 0.23457 0.36828 0.0
C1900 C 0.36661 0.2564 0.31235 0.0
N1901 N 0.36525 0.24954 0.3376 0.0
C1902 C 0.36086 0.25382 0.28085 0.0
C1903 C 0.3528 0.23708 0.30093 0.0
C1904 C 0.35856 0.24002 0.33243 0.0
C1905 C 0.35385 0.24402 0.2746 0.0
H1906 H 0.37217 0.26388 0.31664 0.0
H1907 H 0.3578 0.23468 0.35249 0.0
O1908 O 0.38748 0.25872 0.45633 0.0
O1909 O 0.37371 0.26358 0.4131 0.0
O1910 O 0.38718 0.25843 0.36978 0.0
O1911 O 0.37037 0.24236 0.41365 0.0
H1912 H 0.38398 0.26727 0.51183 0.0
H1913 H 0.4065 0.26708 0.44674 0.0
H1914 H 0.3967 0.281 0.5479 0.0
H1915 H 0.41882 0.28085 0.48385 0.0
H1916 H 0.34515 0.25975 0.36984 0.0
H1917 H 0.38085 0.28028 0.37724 0.0
H1918 H 0.35456 0.25389 0.40519 0.0
H1919 H 0.37098 0.28569 0.3425 0.0
H1920 H 0.40192 0.30116 0.4434 0.0
H1921 H 0.41392 0.29438 0.34889 0.0
H1922 H 0.36154 0.23876 0.56796 0.0
H1923 H 0.34816 0.25462 0.52431 0.0
H1924 H 0.38052 0.24763 0.3099 0.0
H1925 H 0.40546 0.2629 0.38022 0.0
H1926 H 0.39004 0.24255 0.27113 0.0
H1927 H 0.41454 0.25754 0.34023 0.0
H1928 H 0.37321 0.23036 0.45536 0.0
H1929 H 0.35184 0.2375 0.41769 0.0
H1930 H 0.36044 0.21703 0.49273 0.0
H1931 H 0.33946 0.22409 0.45592 0.0
H1932 H 0.40508 0.23747 0.46935 0.0
H1933 H 0.38987 0.22356 0.36943 0.0
H1934 H 0.36191 0.25948 0.26177 0.0
H1935 H 0.34772 0.22941 0.29707 0.0
Li1936 Li 0.73302 0.12119 0.40822 0.0
Li1937 Li 0.74429 0.11915 0.44745 0.0
Li1938 Li 0.74926 0.13445 0.41565 0.0
Li1939 Li 0.74655 0.11992 0.38234 0.0
C1940 C 0.73179 0.12813 0.47224 0.0
N1941 N 0.71597 0.12726 0.50746 0.0
C1942 C 0.7271 0.12139 0.50032 0.0
C1943 C 0.72848 0.13448 0.46223 0.0
C1944 C 0.71911 0.12106 0.51777 0.0
C1945 C 0.72045 0.1339 0.4803 0.0
C1946 C 0.73248 0.10201 0.38933 0.0
C1947 C 0.73526 0.08947 0.3651 0.0
N1948 N 0.72734 0.0864 0.34309 0.0
C1949 C 0.72437 0.09872 0.3665 0.0
C1950 C 0.73796 0.09734 0.38872 0.0
C1951 C 0.72189 0.09081 0.34333 0.0
C1952 C 0.71766 0.121 0.36961 0.0
N1953 N 0.71986 0.11755 0.40001 0.0
C1954 C 0.70302 0.10728 0.41367 0.0
C1955 C 0.7128 0.11086 0.42213 0.0
C1956 C 0.70051 0.11048 0.38173 0.0
C1957 C 0.70799 0.11757 0.35994 0.0
H1958 H 0.7234 0.1261 0.35193 0.0
H1959 H 0.71476 0.10806 0.44562 0.0
C1960 C 0.74942 0.11974 0.52138 0.0
N1961 N 0.7458 0.11379 0.49181 0.0
C1962 C 0.75157 0.11644 0.55351 0.0
C1963 C 0.74595 0.10084 0.5245 0.0
C1964 C 0.74387 0.10444 0.49297 0.0
C1965 C 0.75 0.10692 0.55517 0.0
H1966 H 0.75084 0.12714 0.51964 0.0
H1967 H 0.74096 0.09985 0.46911 0.0
C1968 C 0.74514 0.13707 0.34774 0.0
N1969 N 0.75207 0.15374 0.30588 0.0
C1970 C 0.75184 0.13892 0.3197 0.0
C1971 C 0.74191 0.14367 0.35431 0.0
C1972 C 0.75526 0.14739 0.29886 0.0
C1973 C 0.74552 0.15206 0.33292 0.0
C1974 C 0.76324 0.12779 0.44368 0.0
C1975 C 0.7682 0.13593 0.46632 0.0
C1976 C 0.7649 0.11998 0.44734 0.0
C1977 C 0.77471 0.13608 0.49243 0.0
C1978 C 0.77144 0.1204 0.47385 0.0
N1979 N 0.77617 0.12837 0.49566 0.0
C1980 C 0.75579 0.15372 0.44168 0.0
C1981 C 0.76498 0.15207 0.39383 0.0
C1982 C 0.76207 0.16378 0.4425 0.0
N1983 N 0.75736 0.14813 0.41748 0.0
C1984 C 0.77128 0.16207 0.39313 0.0
C1985 C 0.76987 0.16803 0.41778 0.0
H1986 H 0.74975 0.15035 0.46059 0.0
H1987 H 0.76619 0.1474 0.37564 0.0
C1988 C 0.7448 0.11289 0.31062 0.0
N1989 N 0.75052 0.11551 0.34097 0.0
C1990 C 0.74748 0.10981 0.27916 0.0
C1991 C 0.76187 0.11215 0.31085 0.0
C1992 C 0.75893 0.11523 0.34166 0.0
C1993 C 0.75614 0.10944 0.27899 0.0
H1994 H 0.73818 0.11325 0.31086 0.0
H1995 H 0.76341 0.1175 0.36597 0.0
O1996 O 0.73957 0.12852 0.45459 0.0
O1997 O 0.73514 0.10985 0.41175 0.0
O1998 O 0.74181 0.1289 0.36885 0.0
O1999 O 0.75663 0.12739 0.41866 0.0
H2000 H 0.72954 0.1164 0.50831 0.0
H2001 H 0.73202 0.13973 0.44056 0.0
H2002 H 0.71538 0.11585 0.53944 0.0
H2003 H 0.71778 0.13873 0.4727 0.0
H2004 H 0.73949 0.08584 0.36413 0.0
H2005 H 0.72006 0.10226 0.36639 0.0
H2006 H 0.74436 0.09988 0.40572 0.0
H2007 H 0.71564 0.08821 0.32545 0.0
H2008 H 0.6975 0.10188 0.43142 0.0
H2009 H 0.70642 0.1201 0.33468 0.0
H2010 H 0.75451 0.12133 0.57667 0.0
H2011 H 0.74471 0.09348 0.52436 0.0
H2012 H 0.75448 0.13394 0.31435 0.0
H2013 H 0.73674 0.14236 0.37596 0.0
H2014 H 0.76049 0.14894 0.27721 0.0
H2015 H 0.74313 0.15726 0.33787 0.0
H2016 H 0.76696 0.14201 0.46407 0.0
H2017 H 0.76101 0.11356 0.43043 0.0
H2018 H 0.77857 0.1423 0.51025 0.0
H2019 H 0.77272 0.11436 0.47723 0.0
H2020 H 0.76086 0.16819 0.46213 0.0
H2021 H 0.77736 0.16509 0.37426 0.0
H2022 H 0.7428 0.1077 0.25529 0.0
H2023 H 0.76866 0.1121 0.31167 0.0
Li2024 Li 0.87675 0.61072 0.41846 0.0
Li2025 Li 0.8785 0.62465 0.45413 0.0
Li2026 Li 0.86354 0.61354 0.41972 0.0
Li2027 Li 0.87797 0.62493 0.38576 0.0
C2028 C 0.8694 0.60337 0.48239 0.0
N2029 N 0.87016 0.58882 0.52116 0.0
C2030 C 0.87569 0.60569 0.51226 0.0
C2031 C 0.86341 0.59364 0.47249 0.0
C2032 C 0.87598 0.59823 0.53147 0.0
C2033 C 0.86393 0.58639 0.49235 0.0
C2034 C 0.89706 0.62801 0.40795 0.0
C2035 C 0.91392 0.64063 0.40946 0.0
N2036 N 0.91615 0.63532 0.3863 0.0
C2037 C 0.89953 0.62266 0.38428 0.0
C2038 C 0.90432 0.63705 0.4208 0.0
C2039 C 0.90921 0.62649 0.3736 0.0
C2040 C 0.87741 0.59503 0.3869 0.0
N2041 N 0.88082 0.60138 0.41537 0.0
C2042 C 0.89172 0.59583 0.43259 0.0
C2043 C 0.88774 0.60181 0.43845 0.0
C2044 C 0.88865 0.58948 0.40235 0.0
C2045 C 0.88123 0.58899 0.37986 0.0
H2046 H 0.87207 0.59501 0.36852 0.0
H2047 H 0.89044 0.60707 0.46047 0.0
C2048 C 0.87924 0.63699 0.51104 0.0
N2049 N 0.88389 0.63255 0.49639 0.0
C2050 C 0.88332 0.64335 0.54053 0.0
C2051 C 0.89659 0.63999 0.54092 0.0
C2052 C 0.89236 0.63385 0.5108 0.0
C2053 C 0.89211 0.64492 0.55564 0.0
H2054 H 0.87242 0.63567 0.49957 0.0
H2055 H 0.89585 0.63015 0.49875 0.0
C2056 C 0.86139 0.60586 0.35373 0.0
N2057 N 0.8451 0.59564 0.31031 0.0
C2058 C 0.86 0.61025 0.3229 0.0
C2059 C 0.85455 0.59622 0.36218 0.0
C2060 C 0.85171 0.60497 0.30135 0.0
C2061 C 0.84634 0.59119 0.33999 0.0
C2062 C 0.87347 0.63771 0.42333 0.0
C2063 C 0.86671 0.64083 0.42747 0.0
C2064 C 0.88338 0.64456 0.4214 0.0
C2065 C 0.86999 0.65078 0.4297 0.0
C2066 C 0.88637 0.65444 0.42373 0.0
N2067 N 0.87967 0.65732 0.42781 0.0
C2068 C 0.84434 0.6013 0.44623 0.0
C2069 C 0.84582 0.61098 0.39441 0.0
C2070 C 0.83427 0.59748 0.44683 0.0
N2071 N 0.84985 0.60792 0.42026 0.0
C2072 C 0.8358 0.6072 0.39351 0.0
C2073 C 0.82992 0.60043 0.42013 0.0
H2074 H 0.84777 0.59912 0.46677 0.0
H2075 H 0.85043 0.61643 0.37467 0.0
C2076 C 0.8898 0.63322 0.32224 0.0
N2077 N 0.88259 0.63301 0.34302 0.0
C2078 C 0.89306 0.63898 0.29075 0.0
C2079 C 0.88121 0.64399 0.30192 0.0
C2080 C 0.87817 0.63812 0.33309 0.0
C2081 C 0.88877 0.64449 0.28026 0.0
H2082 H 0.89292 0.6288 0.32959 0.0
H2083 H 0.8722 0.63756 0.34908 0.0
O2084 O 0.86911 0.61058 0.46293 0.0
O2085 O 0.88765 0.62432 0.41937 0.0
O2086 O 0.86941 0.61095 0.37542 0.0
O2087 O 0.87036 0.62799 0.42139 0.0
H2088 H 0.88033 0.61318 0.52042 0.0
H2089 H 0.85848 0.59171 0.44954 0.0
H2090 H 0.88085 0.59993 0.55453 0.0
H2091 H 0.85939 0.57883 0.48482 0.0
H2092 H 0.9196 0.64762 0.41914 0.0
H2093 H 0.89402 0.61571 0.37369 0.0
H2094 H 0.90258 0.64127 0.43941 0.0
H2095 H 0.91121 0.62244 0.35514 0.0
H2096 H 0.89736 0.59639 0.45085 0.0
H2097 H 0.87877 0.58438 0.35581 0.0
H2098 H 0.87962 0.64696 0.55159 0.0
H2099 H 0.90337 0.64104 0.55205 0.0
H2100 H 0.86524 0.61767 0.31576 0.0
H2101 H 0.85552 0.59269 0.38584 0.0
H2102 H 0.85052 0.6083 0.27754 0.0
H2103 H 0.84095 0.58376 0.3464 0.0
H2104 H 0.85901 0.6356 0.429 0.0
H2105 H 0.88869 0.64227 0.41799 0.0
H2106 H 0.86483 0.65329 0.43295 0.0
H2107 H 0.89402 0.65982 0.42228 0.0
H2108 H 0.82994 0.59232 0.46794 0.0
H2109 H 0.83271 0.60979 0.37297 0.0
H2110 H 0.89873 0.63895 0.2744 0.0
H2111 H 0.8777 0.64813 0.295 0.0
Li2112 Li 0.40863 0.95797 0.7875 0.0
Li2113 Li 0.41362 0.9472 0.75032 0.0
Li2114 Li 0.40914 0.95845 0.72086 0.0
Li2115 Li 0.39727 0.94439 0.74911 0.0
C2116 C 0.42752 0.96976 0.73925 0.0
N2117 N 0.44212 0.98597 0.70458 0.0
C2118 C 0.43288 0.9687 0.71107 0.0
C2119 C 0.4296 0.97906 0.74989 0.0
C2120 C 0.44022 0.97698 0.69383 0.0
C2121 C 0.43701 0.98716 0.73203 0.0
C2122 C 0.3977 0.93561 0.80954 0.0
C2123 C 0.39035 0.91847 0.82219 0.0
N2124 N 0.38331 0.91887 0.84203 0.0
C2125 C 0.39044 0.93588 0.83024 0.0
C2126 C 0.39771 0.92686 0.80557 0.0
C2127 C 0.3832 0.92732 0.84636 0.0
C2128 C 0.40386 0.96495 0.85165 0.0
N2129 N 0.41116 0.96509 0.83171 0.0
C2130 C 0.42305 0.97632 0.87343 0.0
C2131 C 0.42059 0.9705 0.84222 0.0
C2132 C 0.41571 0.97644 0.89459 0.0
C2133 C 0.40598 0.97058 0.88344 0.0
H2134 H 0.39641 0.96056 0.84262 0.0
H2135 H 0.42624 0.97041 0.82596 0.0
C2136 C 0.42568 0.94139 0.71638 0.0
N2137 N 0.42216 0.9422 0.7493 0.0
C2138 C 0.43271 0.9386 0.71469 0.0
C2139 C 0.43212 0.93722 0.7808 0.0
C2140 C 0.42512 0.94009 0.7812 0.0
C2141 C 0.43614 0.93664 0.74724 0.0
H2142 H 0.42319 0.94316 0.69149 0.0
H2143 H 0.42222 0.94088 0.80698 0.0
C2144 C 0.39681 0.96445 0.74193 0.0
N2145 N 0.39298 0.97867 0.71755 0.0
C2146 C 0.39094 0.96278 0.71116 0.0
C2147 C 0.40065 0.97331 0.76054 0.0
C2148 C 0.38912 0.97008 0.69918 0.0
C2149 C 0.39865 0.98041 0.74774 0.0
C2150 C 0.39949 0.938 0.68366 0.0
C2151 C 0.3927 0.93914 0.66311 0.0
C2152 C 0.40003 0.92952 0.67994 0.0
C2153 C 0.3864 0.93167 0.63968 0.0
C2154 C 0.39362 0.92223 0.65613 0.0
N2155 N 0.38698 0.92344 0.63672 0.0
C2156 C 0.41326 0.96303 0.64646 0.0
C2157 C 0.41483 0.97631 0.68132 0.0
C2158 C 0.41617 0.96869 0.61478 0.0
N2159 N 0.41259 0.96686 0.67889 0.0
C2160 C 0.4178 0.98225 0.65029 0.0
C2161 C 0.41853 0.97846 0.61644 0.0
H2162 H 0.4117 0.95559 0.6452 0.0
H2163 H 0.41457 0.97934 0.70746 0.0
C2164 C 0.37707 0.93684 0.74639 0.0
N2165 N 0.38401 0.93423 0.74523 0.0
C2166 C 0.36743 0.93006 0.73813 0.0
C2167 C 0.3722 0.91793 0.72909 0.0
C2168 C 0.38171 0.9249 0.7382 0.0
C2169 C 0.36498 0.92056 0.72826 0.0
H2170 H 0.37906 0.94426 0.75244 0.0
H2171 H 0.38733 0.92296 0.7381 0.0
O2172 O 0.42016 0.96172 0.75584 0.0
O2173 O 0.40475 0.94387 0.79306 0.0
O2174 O 0.39861 0.95736 0.75424 0.0
O2175 O 0.40566 0.94519 0.70703 0.0
H2176 H 0.43132 0.96155 0.70232 0.0
H2177 H 0.42542 0.98001 0.77123 0.0
H2178 H 0.44439 0.97627 0.67183 0.0
H2179 H 0.43866 0.9944 0.73982 0.0
H2180 H 0.39023 0.91163 0.8192 0.0
H2181 H 0.39033 0.9426 0.83342 0.0
H2182 H 0.40327 0.92654 0.78949 0.0
H2183 H 0.37749 0.9274 0.86226 0.0
H2184 H 0.43066 0.98081 0.88037 0.0
H2185 H 0.40005 0.97031 0.89907 0.0
H2186 H 0.43556 0.93814 0.68826 0.0
H2187 H 0.43466 0.93588 0.80651 0.0
H2188 H 0.38781 0.95593 0.6967 0.0
H2189 H 0.40525 0.97476 0.78428 0.0
H2190 H 0.38462 0.96891 0.6753 0.0
H2191 H 0.40162 0.98733 0.76172 0.0
H2192 H 0.39227 0.94569 0.6654 0.0
H2193 H 0.40523 0.92851 0.69567 0.0
H2194 H 0.38105 0.93242 0.62385 0.0
H2195 H 0.39389 0.91559 0.65319 0.0
H2196 H 0.41655 0.96542 0.58924 0.0
H2197 H 0.41973 0.9898 0.65302 0.0
H2198 H 0.36204 0.93234 0.73767 0.0
H2199 H 0.37053 0.91064 0.72197 0.0
Li2200 Li 0.04985 0.46658 0.75209 0.0
Li2201 Li 0.03866 0.45125 0.78224 0.0
Li2202 Li 0.05175 0.4527 0.74261 0.0
Li2203 Li 0.03753 0.45262 0.71695 0.0
C2204 C 0.05875 0.46649 0.81344 0.0
N2205 N 0.07034 0.48137 0.86098 0.0
C2206 C 0.05523 0.46702 0.84794 0.0
C2207 C 0.06819 0.47348 0.80319 0.0
C2208 C 0.0612 0.47461 0.87158 0.0
C2209 C 0.07392 0.48096 0.82758 0.0
C2210 C 0.02866 0.4618 0.7403 0.0
C2211 C 0.01225 0.45591 0.71911 0.0
N2212 N 0.01493 0.46495 0.70625 0.0
C2213 C 0.03123 0.47103 0.72697 0.0
C2214 C 0.01908 0.45418 0.73649 0.0
C2215 C 0.02418 0.47247 0.70983 0.0
C2216 C 0.06094 0.48579 0.72617 0.0
N2217 N 0.05607 0.48033 0.75577 0.0
C2218 C 0.05834 0.49442 0.78789 0.0
C2219 C 0.05472 0.48441 0.78634 0.0
C2220 C 0.06313 0.5002 0.75729 0.0
C2221 C 0.06454 0.4958 0.72631 0.0
H2222 H 0.06168 0.48232 0.70188 0.0
H2223 H 0.05054 0.47985 0.80898 0.0
C2224 C 0.03329 0.4403 0.84899 0.0
N2225 N 0.03108 0.44548 0.82506 0.0
C2226 C 0.02717 0.43557 0.87874 0.0
C2227 C 0.01688 0.44194 0.85928 0.0
C2228 C 0.02317 0.4465 0.83002 0.0
C2229 C 0.01876 0.43627 0.88387 0.0
H2230 H 0.03971 0.43971 0.84461 0.0
H2231 H 0.02169 0.45082 0.81111 0.0
C2232 C 0.05753 0.46153 0.67933 0.0
N2233 N 0.07017 0.46074 0.62923 0.0
C2234 C 0.05393 0.45496 0.65013 0.0
C2235 C 0.06756 0.46774 0.68292 0.0
C2236 C 0.06044 0.45466 0.62511 0.0
C2237 C 0.07383 0.46721 0.65734 0.0
C2238 C 0.03283 0.43342 0.76078 0.0
C2239 C 0.03766 0.42904 0.77698 0.0
C2240 C 0.02272 0.429 0.76366 0.0
C2241 C 0.03227 0.42029 0.79592 0.0
C2242 C 0.0176 0.42026 0.78294 0.0
N2243 N 0.02244 0.41613 0.79852 0.0
C2244 C 0.06998 0.4531 0.7431 0.0
C2245 C 0.05713 0.44045 0.7093 0.0
C2246 C 0.07645 0.45015 0.73083 0.0
N2247 N 0.06057 0.44829 0.73181 0.0
C2248 C 0.0633 0.43722 0.69662 0.0
C2249 C 0.07314 0.44217 0.70692 0.0
H2250 H 0.07254 0.45937 0.76071 0.0
H2251 H 0.04962 0.43683 0.70057 0.0
C2252 C 0.02943 0.45559 0.65258 0.0
N2253 N 0.0293 0.44873 0.67523 0.0
C2254 C 0.0237 0.45283 0.62103 0.0
C2255 C 0.01807 0.43601 0.63613 0.0
C2256 C 0.02381 0.43909 0.66761 0.0
C2257 C 0.01798 0.44292 0.6124 0.0
H2258 H 0.03408 0.46322 0.65884 0.0
H2259 H 0.02402 0.43381 0.68563 0.0
O2260 O 0.053 0.45914 0.78988 0.0
O2261 O 0.03548 0.4602 0.75683 0.0
O2262 O 0.0513 0.46171 0.70478 0.0
O2263 O 0.03799 0.44208 0.74266 0.0
H2264 H 0.04794 0.46168 0.85631 0.0
H2265 H 0.07099 0.47322 0.77644 0.0
H2266 H 0.05856 0.47514 0.89832 0.0
H2267 H 0.08121 0.48646 0.8199 0.0
H2268 H 0.00484 0.45007 0.71575 0.0
H2269 H 0.03859 0.47702 0.7296 0.0
H2270 H 0.01697 0.44697 0.74638 0.0
H2271 H 0.02608 0.47957 0.69928 0.0
H2272 H 0.05694 0.49753 0.81196 0.0
H2273 H 0.06816 0.50004 0.70214 0.0
H2274 H 0.02889 0.43128 0.89704 0.0
H2275 H 0.01064 0.4429 0.86272 0.0
H2276 H 0.0462 0.45005 0.64708 0.0
H2277 H 0.07047 0.4728 0.70556 0.0
H2278 H 0.05775 0.44957 0.60252 0.0
H2279 H 0.0816 0.47192 0.65994 0.0
H2280 H 0.04548 0.43241 0.77536 0.0
H2281 H 0.01888 0.43233 0.75155 0.0
H2282 H 0.03591 0.41683 0.80872 0.0
H2283 H 0.00978 0.41679 0.7856 0.0
H2284 H 0.08399 0.45424 0.73921 0.0
H2285 H 0.06036 0.43092 0.67888 0.0
H2286 H 0.02393 0.45837 0.60308 0.0
H2287 H 0.01373 0.4283 0.6304 0.0
Li2288 Li 0.54729 0.58787 0.78415 0.0
Li2289 Li 0.53169 0.5835 0.75574 0.0
Li2290 Li 0.54509 0.58423 0.71972 0.0
Li2291 Li 0.54561 0.59893 0.74232 0.0
C2292 C 0.53606 0.5667 0.74747 0.0
N2293 N 0.53248 0.5493 0.71685 0.0
C2294 C 0.52678 0.56007 0.73449 0.0
C2295 C 0.54351 0.56445 0.74508 0.0
C2296 C 0.52512 0.55131 0.71909 0.0
C2297 C 0.54156 0.55563 0.72942 0.0
C2298 C 0.53255 0.59331 0.81528 0.0
C2299 C 0.51825 0.5942 0.83062 0.0
N2300 N 0.51819 0.59061 0.8645 0.0
C2301 C 0.53238 0.58965 0.85029 0.0
C2302 C 0.52546 0.59565 0.80537 0.0
C2303 C 0.52505 0.58833 0.87478 0.0
C2304 C 0.55921 0.59465 0.84806 0.0
N2305 N 0.55341 0.58673 0.82722 0.0
C2306 C 0.55647 0.57651 0.8663 0.0
C2307 C 0.55187 0.57777 0.836 0.0
C2308 C 0.56275 0.58458 0.88783 0.0
C2309 C 0.56404 0.59375 0.87852 0.0
H2310 H 0.56018 0.60168 0.84076 0.0
H2311 H 0.54705 0.57156 0.81951 0.0
C2312 C 0.51233 0.57542 0.7322 0.0
N2313 N 0.51799 0.57619 0.76139 0.0
C2314 C 0.50233 0.56901 0.73333 0.0
C2315 C 0.50411 0.56459 0.7951 0.0
C2316 C 0.5141 0.571 0.7926 0.0
C2317 C 0.49815 0.56337 0.76484 0.0
H2318 H 0.51564 0.57944 0.70741 0.0
H2319 H 0.51882 0.57152 0.81493 0.0
C2320 C 0.56496 0.59918 0.75882 0.0
N2321 N 0.58274 0.60641 0.7933 0.0
C2322 C 0.56987 0.60876 0.7716 0.0
C2323 C 0.5691 0.59329 0.7635 0.0
C2324 C 0.57886 0.61228 0.78893 0.0
C2325 C 0.57809 0.59707 0.78107 0.0
C2326 C 0.53624 0.5951 0.68021 0.0
C2327 C 0.5425 0.5974 0.65023 0.0
C2328 C 0.53033 0.59927 0.68322 0.0
C2329 C 0.54277 0.6039 0.62381 0.0
C2330 C 0.53083 0.60575 0.65624 0.0
N2331 N 0.53699 0.60792 0.62735 0.0
C2332 C 0.5407 0.57231 0.65746 0.0
C2333 C 0.55752 0.58175 0.67095 0.0
C2334 C 0.54267 0.56839 0.62658 0.0
N2335 N 0.5481 0.57879 0.67897 0.0
C2336 C 0.55982 0.57807 0.64023 0.0
C2337 C 0.55235 0.5713 0.61749 0.0
H2338 H 0.53328 0.57023 0.6642 0.0
H2339 H 0.56326 0.58711 0.68798 0.0
C2340 C 0.54547 0.61683 0.74131 0.0
N2341 N 0.55002 0.61203 0.72929 0.0
C2342 C 0.54843 0.6262 0.72867 0.0
C2343 C 0.56084 0.62555 0.69237 0.0
C2344 C 0.55758 0.61618 0.70541 0.0
C2345 C 0.55619 0.63068 0.7037 0.0
H2346 H 0.53943 0.6133 0.76006 0.0
H2347 H 0.56101 0.61214 0.69618 0.0
O2348 O 0.53789 0.57539 0.76208 0.0
O2349 O 0.53964 0.59461 0.79087 0.0
O2350 O 0.55608 0.59556 0.74221 0.0
O2351 O 0.53609 0.589 0.70697 0.0
H2352 H 0.52093 0.56168 0.73598 0.0
H2353 H 0.55075 0.56952 0.75478 0.0
H2354 H 0.51798 0.54613 0.7088 0.0
H2355 H 0.54727 0.55382 0.72717 0.0
H2356 H 0.51267 0.59591 0.82322 0.0
H2357 H 0.5378 0.5878 0.85843 0.0
H2358 H 0.52543 0.59838 0.77825 0.0
H2359 H 0.52481 0.58548 0.90192 0.0
H2360 H 0.55502 0.56926 0.87298 0.0
H2361 H 0.56883 0.60017 0.89423 0.0
H2362 H 0.49795 0.56822 0.70941 0.0
H2363 H 0.50116 0.56022 0.81959 0.0
H2364 H 0.56674 0.6134 0.76861 0.0
H2365 H 0.56536 0.58583 0.75411 0.0
H2366 H 0.58273 0.61967 0.79908 0.0
H2367 H 0.58135 0.59257 0.78508 0.0
H2368 H 0.54719 0.59431 0.64763 0.0
H2369 H 0.52553 0.59765 0.70646 0.0
H2370 H 0.54762 0.6058 0.60057 0.0
H2371 H 0.52635 0.60909 0.65836 0.0
H2372 H 0.53667 0.56314 0.61003 0.0
H2373 H 0.5674 0.58069 0.63387 0.0
H2374 H 0.54456 0.62981 0.73784 0.0
H2375 H 0.56696 0.62876 0.67376 0.0
Li2376 Li 0.62552 0.74566 0.61563 0.0
Li2377 Li 0.61046 0.73232 0.58887 0.0
Li2378 Li 0.62388 0.74316 0.54803 0.0
Li2379 Li 0.614 0.74848 0.58235 0.0
C2380 C 0.62744 0.72873 0.59891 0.0
N2381 N 0.63457 0.71715 0.62486 0.0
C2382 C 0.62228 0.72164 0.62545 0.0
C2383 C 0.63618 0.72986 0.58535 0.0
C2384 C 0.62602 0.71587 0.63828 0.0
C2385 C 0.63968 0.72396 0.59889 0.0
C2386 C 0.60761 0.74534 0.64889 0.0
C2387 C 0.5936 0.74682 0.66362 0.0
N2388 N 0.59913 0.75422 0.68703 0.0
C2389 C 0.61315 0.75293 0.67324 0.0
C2390 C 0.59774 0.74222 0.64416 0.0
C2391 C 0.60872 0.75733 0.69223 0.0
C2392 C 0.64045 0.75926 0.66283 0.0
N2393 N 0.63416 0.74965 0.6568 0.0
C2394 C 0.6393 0.74545 0.71206 0.0
C2395 C 0.63339 0.74279 0.68101 0.0
C2396 C 0.64598 0.75531 0.71864 0.0
C2397 C 0.6465 0.76226 0.69354 0.0
H2398 H 0.64066 0.76465 0.64427 0.0
H2399 H 0.628 0.73527 0.67683 0.0
C2400 C 0.60022 0.71197 0.57537 0.0
N2401 N 0.60081 0.71918 0.59725 0.0
C2402 C 0.59385 0.70225 0.5842 0.0
C2403 C 0.58881 0.70759 0.63773 0.0
C2404 C 0.5952 0.71718 0.62771 0.0
C2405 C 0.58821 0.69998 0.61619 0.0
H2406 H 0.60495 0.71378 0.55181 0.0
H2407 H 0.59597 0.72303 0.64504 0.0
C2408 C 0.63812 0.76159 0.57135 0.0
N2409 N 0.65774 0.77389 0.55928 0.0
C2410 C 0.6416 0.77136 0.56262 0.0
C2411 C 0.6446 0.75809 0.57396 0.0
C2412 C 0.65155 0.77746 0.55662 0.0
C2413 C 0.65449 0.76442 0.56776 0.0
C2414 C 0.60234 0.73102 0.52511 0.0
C2415 C 0.60427 0.72674 0.49521 0.0
C2416 C 0.59278 0.72724 0.53734 0.0
C2417 C 0.59658 0.71867 0.47824 0.0
C2418 C 0.5853 0.71915 0.51968 0.0
N2419 N 0.58734 0.71506 0.49075 0.0
C2420 C 0.63254 0.73734 0.49264 0.0
C2421 C 0.63473 0.75318 0.48643 0.0
C2422 C 0.6384 0.73879 0.46199 0.0
N2423 N 0.63096 0.74455 0.50443 0.0
C2424 C 0.64077 0.75501 0.45623 0.0
C2425 C 0.64273 0.7478 0.44394 0.0
H2426 H 0.62935 0.73051 0.50731 0.0
H2427 H 0.63319 0.75871 0.49598 0.0
C2428 C 0.61466 0.76596 0.59591 0.0
N2429 N 0.60901 0.75709 0.58056 0.0
C2430 C 0.61151 0.77271 0.59677 0.0
C2431 C 0.59676 0.76108 0.56574 0.0
C2432 C 0.60023 0.75454 0.56541 0.0
C2433 C 0.60243 0.7703 0.58171 0.0
H2434 H 0.62162 0.76776 0.60768 0.0
H2435 H 0.5959 0.74742 0.55335 0.0
O2436 O 0.62381 0.73433 0.58537 0.0
O2437 O 0.61188 0.74113 0.62928 0.0
O2438 O 0.62837 0.75551 0.57673 0.0
O2439 O 0.60978 0.73887 0.5423 0.0
H2440 H 0.61556 0.72068 0.63655 0.0
H2441 H 0.64023 0.73523 0.56451 0.0
H2442 H 0.62213 0.7104 0.65899 0.0
H2443 H 0.64644 0.72478 0.58868 0.0
H2444 H 0.58599 0.74453 0.65998 0.0
H2445 H 0.62079 0.75546 0.67719 0.0
H2446 H 0.59337 0.73642 0.6252 0.0
H2447 H 0.61293 0.76324 0.71101 0.0
H2448 H 0.63846 0.73988 0.73121 0.0
H2449 H 0.65152 0.76994 0.69756 0.0
H2450 H 0.59369 0.69657 0.56721 0.0
H2451 H 0.58456 0.70612 0.66254 0.0
H2452 H 0.63667 0.77417 0.56037 0.0
H2453 H 0.64203 0.75058 0.58086 0.0
H2454 H 0.65436 0.78503 0.5498 0.0
H2455 H 0.65959 0.7618 0.56971 0.0
H2456 H 0.61161 0.7296 0.48528 0.0
H2457 H 0.59117 0.73042 0.56059 0.0
H2458 H 0.59797 0.71526 0.45515 0.0
H2459 H 0.57787 0.71609 0.52905 0.0
H2460 H 0.63975 0.73307 0.4531 0.0
H2461 H 0.64388 0.76199 0.44257 0.0
H2462 H 0.61621 0.7798 0.60866 0.0
H2463 H 0.5897 0.7589 0.55401 0.0
Li2464 Li 0.26652 0.87898 0.59025 0.0
Li2465 Li 0.25314 0.88036 0.61231 0.0
Li2466 Li 0.25001 0.86607 0.5797 0.0
Li2467 Li 0.25582 0.88165 0.54718 0.0
C2468 C 0.25907 0.86395 0.63988 0.0
N2469 N 0.26375 0.85045 0.66588 0.0
C2470 C 0.25771 0.86131 0.67687 0.0
C2471 C 0.26285 0.85975 0.61615 0.0
C2472 C 0.26011 0.85446 0.68947 0.0
C2473 C 0.26516 0.85293 0.62981 0.0
C2474 C 0.26805 0.89927 0.60059 0.0
C2475 C 0.27077 0.91563 0.59802 0.0
N2476 N 0.27488 0.91738 0.63191 0.0
C2477 C 0.27234 0.90125 0.6353 0.0
C2478 C 0.26729 0.90652 0.58169 0.0
C2479 C 0.27573 0.91045 0.65071 0.0
C2480 C 0.28587 0.88258 0.57704 0.0
N2481 N 0.27931 0.88199 0.60231 0.0
C2482 C 0.29076 0.88579 0.65069 0.0
C2483 C 0.28154 0.88345 0.63852 0.0
C2484 C 0.29778 0.88655 0.62541 0.0
C2485 C 0.29522 0.88487 0.58808 0.0
H2486 H 0.28385 0.8813 0.54841 0.0
H2487 H 0.27614 0.88283 0.65803 0.0
C2488 C 0.24463 0.8777 0.68055 0.0
N2489 N 0.24857 0.88442 0.65339 0.0
C2490 C 0.24123 0.87978 0.71257 0.0
C2491 C 0.2457 0.89558 0.68768 0.0
C2492 C 0.24901 0.89318 0.65609 0.0
C2493 C 0.24184 0.88886 0.71661 0.0
H2494 H 0.24409 0.87069 0.67726 0.0
H2495 H 0.25193 0.89834 0.63385 0.0
C2496 C 0.25801 0.86773 0.50922 0.0
N2497 N 0.2524 0.8588 0.44156 0.0
C2498 C 0.24844 0.86402 0.49709 0.0
C2499 C 0.26471 0.8669 0.48695 0.0
C2500 C 0.24575 0.85953 0.4628 0.0
C2501 C 0.26174 0.86236 0.45284 0.0
C2502 C 0.23681 0.87674 0.58075 0.0
C2503 C 0.22771 0.87028 0.59567 0.0
C2504 C 0.2393 0.88638 0.57418 0.0
C2505 C 0.22128 0.87361 0.60397 0.0
C2506 C 0.23266 0.88942 0.5828 0.0
N2507 N 0.22387 0.88303 0.59744 0.0
C2508 C 0.23387 0.84892 0.60063 0.0
C2509 C 0.24357 0.84628 0.55804 0.0
C2510 C 0.22717 0.83901 0.60188 0.0
N2511 N 0.24174 0.85237 0.57837 0.0
C2512 C 0.23709 0.83626 0.55872 0.0
C2513 C 0.22869 0.8325 0.5806 0.0
H2514 H 0.23282 0.85391 0.61749 0.0
H2515 H 0.25007 0.84916 0.54148 0.0
C2516 C 0.26306 0.8947 0.48631 0.0
N2517 N 0.25498 0.88751 0.50287 0.0
C2518 C 0.26217 0.89926 0.45488 0.0
C2519 C 0.24472 0.88884 0.45824 0.0
C2520 C 0.24595 0.8844 0.48906 0.0
C2521 C 0.25288 0.89643 0.44102 0.0
H2522 H 0.27016 0.89699 0.49784 0.0
H2523 H 0.23966 0.87855 0.50231 0.0
O2524 O 0.25674 0.87066 0.62729 0.0
O2525 O 0.26473 0.89035 0.58487 0.0
O2526 O 0.26087 0.87219 0.54263 0.0
O2527 O 0.24331 0.87369 0.57299 0.0
H2528 H 0.25486 0.86453 0.69571 0.0
H2529 H 0.26402 0.86171 0.58751 0.0
H2530 H 0.25909 0.85235 0.71803 0.0
H2531 H 0.26808 0.84962 0.61174 0.0
H2532 H 0.27021 0.9213 0.58376 0.0
H2533 H 0.27291 0.89572 0.65044 0.0
H2534 H 0.26402 0.90513 0.55475 0.0
H2535 H 0.27901 0.91206 0.67766 0.0
H2536 H 0.29241 0.8872 0.67959 0.0
H2537 H 0.30037 0.88529 0.56767 0.0
H2538 H 0.2381 0.8743 0.73383 0.0
H2539 H 0.24631 0.90266 0.68966 0.0
H2540 H 0.24312 0.86452 0.51398 0.0
H2541 H 0.27214 0.86973 0.49597 0.0
H2542 H 0.23837 0.85662 0.4531 0.0
H2543 H 0.26685 0.86166 0.43532 0.0
H2544 H 0.22559 0.86278 0.60068 0.0
H2545 H 0.24634 0.89151 0.56307 0.0
H2546 H 0.21422 0.86869 0.61558 0.0
H2547 H 0.23453 0.89688 0.57805 0.0
H2548 H 0.22077 0.83652 0.61887 0.0
H2549 H 0.23868 0.83152 0.54245 0.0
H2550 H 0.26863 0.90508 0.44214 0.0
H2551 H 0.23746 0.88636 0.4479 0.0
Li2552 Li 0.1203 0.38792 0.59039 0.0
Li2553 Li 0.11807 0.37265 0.61652 0.0
Li2554 Li 0.13295 0.38428 0.58583 0.0
Li2555 Li 0.1181 0.37471 0.54911 0.0
C2556 C 0.13539 0.39009 0.65298 0.0
N2557 N 0.15222 0.3979 0.69431 0.0
C2558 C 0.1369 0.38425 0.67772 0.0
C2559 C 0.14242 0.39991 0.64942 0.0
C2560 C 0.14546 0.38833 0.69835 0.0
C2561 C 0.15088 0.40372 0.67051 0.0
C2562 C 0.09961 0.37074 0.59825 0.0
C2563 C 0.08281 0.35797 0.59887 0.0
N2564 N 0.08084 0.36297 0.62446 0.0
C2565 C 0.09739 0.37579 0.62434 0.0
C2566 C 0.09224 0.36179 0.58519 0.0
C2567 C 0.08788 0.37173 0.63735 0.0
C2568 C 0.11043 0.39842 0.57657 0.0
N2569 N 0.11694 0.39768 0.59861 0.0
C2570 C 0.1174 0.40966 0.63937 0.0
C2571 C 0.12052 0.4032 0.62927 0.0
C2572 C 0.11049 0.4104 0.61777 0.0
C2573 C 0.10714 0.40484 0.58555 0.0
H2574 H 0.10753 0.39376 0.55282 0.0
H2575 H 0.12552 0.40233 0.64671 0.0
C2576 C 0.11513 0.35684 0.66297 0.0
N2577 N 0.11283 0.36393 0.65725 0.0
C2578 C 0.11165 0.35088 0.69387 0.0
C2579 C 0.10379 0.3598 0.71319 0.0
C2580 C 0.10743 0.36559 0.68197 0.0
C2581 C 0.10589 0.35232 0.7195 0.0
H2582 H 0.11988 0.35596 0.64422 0.0
H2583 H 0.10614 0.37158 0.67797 0.0
C2584 C 0.12774 0.39629 0.5278 0.0
N2585 N 0.12695 0.41138 0.49336 0.0
C2586 C 0.12163 0.39443 0.49763 0.0
C2587 C 0.13351 0.40583 0.54029 0.0
C2588 C 0.12133 0.40216 0.48062 0.0
C2589 C 0.13298 0.41336 0.52258 0.0
C2590 C 0.12223 0.36038 0.57184 0.0
C2591 C 0.12884 0.35734 0.56278 0.0
C2592 C 0.11228 0.35363 0.57248 0.0
C2593 C 0.12538 0.34756 0.5546 0.0
C2594 C 0.1091 0.34391 0.56414 0.0
N2595 N 0.11566 0.3411 0.55543 0.0
C2596 C 0.14949 0.38329 0.6019 0.0
C2597 C 0.15296 0.39791 0.57174 0.0
C2598 C 0.15935 0.38628 0.60379 0.0
N2599 N 0.14652 0.3891 0.58613 0.0
C2600 C 0.16293 0.40122 0.57317 0.0
C2601 C 0.16623 0.39537 0.58939 0.0
H2602 H 0.14417 0.37632 0.61305 0.0
H2603 H 0.15037 0.40237 0.55935 0.0
C2604 C 0.10414 0.36555 0.49192 0.0
N2605 N 0.11312 0.36792 0.50442 0.0
C2606 C 0.10044 0.35993 0.46022 0.0
C2607 C 0.11537 0.35944 0.45485 0.0
C2608 C 0.11881 0.36516 0.48625 0.0
C2609 C 0.10603 0.35668 0.44145 0.0
H2610 H 0.09983 0.36797 0.50672 0.0
H2611 H 0.12595 0.36722 0.49671 0.0
O2612 O 0.12718 0.38616 0.63178 0.0
O2613 O 0.10886 0.37467 0.58463 0.0
O2614 O 0.12805 0.38881 0.54506 0.0
O2615 O 0.12549 0.36998 0.57913 0.0
H2616 H 0.13158 0.37663 0.68073 0.0
H2617 H 0.14142 0.40451 0.6301 0.0
H2618 H 0.14674 0.38389 0.71746 0.0
H2619 H 0.15641 0.41128 0.66781 0.0
H2620 H 0.07704 0.35104 0.58906 0.0
H2621 H 0.10298 0.3827 0.63496 0.0
H2622 H 0.09374 0.35783 0.56457 0.0
H2623 H 0.08609 0.37553 0.65774 0.0
H2624 H 0.12019 0.41385 0.66432 0.0
H2625 H 0.1017 0.40511 0.56847 0.0
H2626 H 0.1137 0.34539 0.69815 0.0
H2627 H 0.0994 0.3612 0.73223 0.0
H2628 H 0.11714 0.3871 0.48757 0.0
H2629 H 0.13821 0.40739 0.56379 0.0
H2630 H 0.11661 0.40082 0.45732 0.0
H2631 H 0.13734 0.42076 0.53213 0.0
H2632 H 0.13656 0.3625 0.56189 0.0
H2633 H 0.1071 0.35587 0.57955 0.0
H2634 H 0.13041 0.3451 0.54751 0.0
H2635 H 0.10142 0.33861 0.56459 0.0
H2636 H 0.16152 0.38143 0.61584 0.0
H2637 H 0.16798 0.4083 0.56195 0.0
H2638 H 0.09329 0.35815 0.45062 0.0
H2639 H 0.11991 0.35701 0.44185 0.0
Li2640 Li 0.25009 0.38405 0.58187 0.0
Li2641 Li 0.25371 0.37267 0.61392 0.0
Li2642 Li 0.26646 0.38719 0.58351 0.0
Li2643 Li 0.25433 0.3734 0.54819 0.0
C2644 C 0.25565 0.3914 0.64837 0.0
N2645 N 0.2494 0.40123 0.69311 0.0
C2646 C 0.24971 0.38672 0.67853 0.0
C2647 C 0.25848 0.40111 0.64113 0.0
C2648 C 0.24661 0.39181 0.7008 0.0
C2649 C 0.25521 0.40594 0.66401 0.0
C2650 C 0.23552 0.36296 0.55934 0.0
C2651 C 0.22671 0.34691 0.53291 0.0
N2652 N 0.22115 0.34966 0.5136 0.0
C2653 C 0.2297 0.36562 0.53934 0.0
C2654 C 0.23399 0.35352 0.55627 0.0
C2655 C 0.22247 0.35878 0.51635 0.0
C2656 C 0.24292 0.3963 0.5574 0.0
N2657 N 0.24192 0.38955 0.58257 0.0
C2658 C 0.22844 0.3898 0.61016 0.0
C2659 C 0.23482 0.38621 0.60843 0.0
C2660 C 0.22921 0.39671 0.58438 0.0
C2661 C 0.23654 0.39997 0.55766 0.0
H2662 H 0.24854 0.39871 0.53679 0.0
H2663 H 0.23406 0.38064 0.62744 0.0
C2664 C 0.25744 0.36768 0.68364 0.0
N2665 N 0.25079 0.36469 0.65615 0.0
C2666 C 0.2555 0.36209 0.71534 0.0
C2667 C 0.23982 0.35054 0.69003 0.0
C2668 C 0.24209 0.35634 0.65876 0.0
C2669 C 0.24657 0.3534 0.71892 0.0
H2670 H 0.26425 0.37443 0.68094 0.0
H2671 H 0.23687 0.35424 0.63677 0.0
C2672 C 0.26614 0.39453 0.51945 0.0
N2673 N 0.28112 0.40897 0.47915 0.0
C2674 C 0.27007 0.3921 0.48976 0.0
C2675 C 0.26977 0.40429 0.52851 0.0
C2676 C 0.27765 0.39952 0.46974 0.0
C2677 C 0.27737 0.41149 0.50786 0.0
C2678 C 0.26761 0.36874 0.60105 0.0
C2679 C 0.27631 0.37373 0.62066 0.0
C2680 C 0.26217 0.3586 0.60292 0.0
C2681 C 0.2794 0.36848 0.64199 0.0
C2682 C 0.26549 0.35361 0.62463 0.0
N2683 N 0.27397 0.35862 0.64355 0.0
C2684 C 0.28252 0.40278 0.6171 0.0
C2685 C 0.28636 0.39699 0.5634 0.0
C2686 C 0.29234 0.40904 0.62427 0.0
N2687 N 0.27974 0.39684 0.5874 0.0
C2688 C 0.29628 0.4032 0.56935 0.0
C2689 C 0.29939 0.40916 0.60068 0.0
H2690 H 0.27713 0.40233 0.63626 0.0
H2691 H 0.28395 0.39201 0.54048 0.0
C2692 C 0.2468 0.36731 0.47723 0.0
N2693 N 0.25182 0.36598 0.50457 0.0
C2694 C 0.24411 0.36146 0.44601 0.0
C2695 C 0.25216 0.35323 0.47107 0.0
C2696 C 0.25466 0.35922 0.50187 0.0
C2697 C 0.2467 0.35422 0.44284 0.0
H2698 H 0.24473 0.37282 0.48005 0.0
H2699 H 0.25872 0.35837 0.52388 0.0
O2700 O 0.25865 0.38651 0.62592 0.0
O2701 O 0.24278 0.36961 0.58133 0.0
O2702 O 0.25879 0.38738 0.53961 0.0
O2703 O 0.26437 0.37376 0.58046 0.0
H2704 H 0.24742 0.3792 0.68449 0.0
H2705 H 0.26305 0.40483 0.61784 0.0
H2706 H 0.24197 0.38826 0.72412 0.0
H2707 H 0.25729 0.41343 0.65858 0.0
H2708 H 0.22551 0.33961 0.53002 0.0
H2709 H 0.2308 0.3729 0.54121 0.0
H2710 H 0.23849 0.35138 0.57128 0.0
H2711 H 0.21794 0.36074 0.50058 0.0
H2712 H 0.22273 0.38697 0.63065 0.0
H2713 H 0.23728 0.40523 0.53717 0.0
H2714 H 0.26095 0.36453 0.73673 0.0
H2715 H 0.23278 0.34401 0.69187 0.0
H2716 H 0.26736 0.38458 0.48244 0.0
H2717 H 0.2668 0.40629 0.55143 0.0
H2718 H 0.2808 0.39775 0.44679 0.0
H2719 H 0.28029 0.41908 0.51468 0.0
H2720 H 0.28059 0.38158 0.61973 0.0
H2721 H 0.25535 0.35462 0.58831 0.0
H2722 H 0.2861 0.37225 0.65741 0.0
H2723 H 0.26132 0.34577 0.62656 0.0
H2724 H 0.29437 0.41333 0.64916 0.0
H2725 H 0.30146 0.40311 0.55028 0.0
H2726 H 0.24003 0.36257 0.42464 0.0
H2727 H 0.25425 0.3477 0.46986 0.0
Li2728 Li 0.6135 0.86497 0.57641 0.0
Li2729 Li 0.62504 0.87942 0.61085 0.0
Li2730 Li 0.61069 0.87835 0.58153 0.0
Li2731 Li 0.62439 0.88024 0.54519 0.0
C2732 C 0.60616 0.86245 0.64341 0.0
N2733 N 0.59618 0.8459 0.6857 0.0
C2734 C 0.61072 0.86089 0.67331 0.0
C2735 C 0.5965 0.85562 0.63519 0.0
C2736 C 0.60555 0.85247 0.69433 0.0
C2737 C 0.59159 0.84729 0.65682 0.0
C2738 C 0.6345 0.87143 0.55296 0.0
C2739 C 0.65059 0.87871 0.52685 0.0
N2740 N 0.64766 0.87073 0.50531 0.0
C2741 C 0.63165 0.86329 0.53065 0.0
C2742 C 0.64405 0.87919 0.5512 0.0
C2743 C 0.63842 0.86308 0.50674 0.0
C2744 C 0.60104 0.84573 0.5496 0.0
N2745 N 0.60788 0.8513 0.57486 0.0
C2746 C 0.60748 0.83733 0.60087 0.0
C2747 C 0.61121 0.84733 0.59991 0.0
C2748 C 0.60046 0.83139 0.57509 0.0
C2749 C 0.59725 0.83567 0.54902 0.0
H2750 H 0.59864 0.84912 0.52965 0.0
H2751 H 0.61683 0.85199 0.61902 0.0
C2752 C 0.6305 0.88747 0.68174 0.0
N2753 N 0.63306 0.8837 0.65324 0.0
C2754 C 0.63621 0.89057 0.71335 0.0
C2755 C 0.64692 0.8856 0.68605 0.0
C2756 C 0.64105 0.88267 0.65486 0.0
C2757 C 0.64452 0.88962 0.7158 0.0
H2758 H 0.62399 0.888 0.67996 0.0
H2759 H 0.64282 0.8795 0.63204 0.0
C2760 C 0.60329 0.87169 0.517 0.0
N2761 N 0.589 0.87328 0.47979 0.0
C2762 C 0.60583 0.87872 0.48966 0.0
C2763 C 0.5935 0.86543 0.52529 0.0
C2764 C 0.59849 0.87941 0.47117 0.0
C2765 C 0.58638 0.86637 0.50623 0.0
C2766 C 0.62936 0.89751 0.60197 0.0
C2767 C 0.6245 0.90116 0.62281 0.0
C2768 C 0.63949 0.90196 0.60409 0.0
C2769 C 0.62987 0.90919 0.6455 0.0
C2770 C 0.64458 0.90996 0.62719 0.0
N2771 N 0.63971 0.91338 0.64723 0.0
C2772 C 0.59459 0.87809 0.61443 0.0
C2773 C 0.60177 0.88954 0.56628 0.0
C2774 C 0.58839 0.88166 0.62285 0.0
N2775 N 0.6012 0.88216 0.58698 0.0
C2776 C 0.59571 0.89335 0.57376 0.0
C2777 C 0.58908 0.88955 0.603 0.0
H2778 H 0.59444 0.87238 0.63099 0.0
H2779 H 0.60723 0.89275 0.54506 0.0
C2780 C 0.63024 0.87972 0.47273 0.0
N2781 N 0.63191 0.88564 0.50201 0.0
C2782 C 0.63611 0.88321 0.44161 0.0
C2783 C 0.64512 0.89891 0.47098 0.0
C2784 C 0.63906 0.89512 0.50148 0.0
C2785 C 0.64375 0.8929 0.44066 0.0
H2786 H 0.62448 0.87221 0.47395 0.0
H2787 H 0.64015 0.8997 0.52492 0.0
O2788 O 0.61114 0.87059 0.62219 0.0
O2789 O 0.62792 0.87188 0.5759 0.0
O2790 O 0.61037 0.871 0.53578 0.0
O2791 O 0.62423 0.88957 0.57995 0.0
H2792 H 0.61819 0.86606 0.68005 0.0
H2793 H 0.59288 0.85668 0.61202 0.0
H2794 H 0.609 0.85115 0.71744 0.0
H2795 H 0.58414 0.84191 0.6506 0.0
H2796 H 0.65798 0.8847 0.52497 0.0
H2797 H 0.62428 0.85724 0.53149 0.0
H2798 H 0.64635 0.88559 0.56802 0.0
H2799 H 0.63631 0.85684 0.4892 0.0
H2800 H 0.61027 0.83429 0.62083 0.0
H2801 H 0.59191 0.83128 0.52852 0.0
H2802 H 0.63403 0.8935 0.7359 0.0
H2803 H 0.65329 0.88479 0.68679 0.0
H2804 H 0.61338 0.88364 0.48302 0.0
H2805 H 0.59142 0.85998 0.54645 0.0
H2806 H 0.60034 0.88483 0.45004 0.0
H2807 H 0.57877 0.86161 0.51248 0.0
H2808 H 0.61667 0.89778 0.62181 0.0
H2809 H 0.64336 0.89915 0.58863 0.0
H2810 H 0.6262 0.91207 0.66186 0.0
H2811 H 0.65241 0.91342 0.6293 0.0
H2812 H 0.58352 0.87863 0.64602 0.0
H2813 H 0.59644 0.8994 0.55766 0.0
H2814 H 0.63485 0.87831 0.41898 0.0
H2815 H 0.65083 0.90647 0.47114 0.0
Li2816 Li 0.11877 0.74504 0.61587 0.0
Li2817 Li 0.13347 0.74838 0.58184 0.0
Li2818 Li 0.11831 0.74416 0.5499 0.0
Li2819 Li 0.12015 0.73208 0.585 0.0
C2820 C 0.12683 0.76301 0.56077 0.0
N2821 N 0.1274 0.77735 0.51623 0.0
C2822 C 0.13494 0.76859 0.53871 0.0
C2823 C 0.11903 0.76476 0.56041 0.0
C2824 C 0.13509 0.77581 0.51636 0.0
C2825 C 0.11945 0.77202 0.5376 0.0
C2826 C 0.13567 0.74305 0.6486 0.0
C2827 C 0.15083 0.74372 0.66276 0.0
N2828 N 0.1519 0.74934 0.69251 0.0
C2829 C 0.1369 0.74879 0.67942 0.0
C2830 C 0.14266 0.74045 0.64029 0.0
C2831 C 0.14516 0.7519 0.70124 0.0
C2832 C 0.10929 0.74156 0.68454 0.0
N2833 N 0.11424 0.74841 0.65849 0.0
C2834 C 0.11336 0.76054 0.6943 0.0
C2835 C 0.11636 0.75777 0.66282 0.0
C2836 C 0.10806 0.75357 0.72123 0.0
C2837 C 0.10598 0.74396 0.71608 0.0
H2838 H 0.10797 0.73425 0.68088 0.0
H2839 H 0.12047 0.76311 0.64201 0.0
C2840 C 0.15254 0.75573 0.55333 0.0
N2841 N 0.14715 0.75654 0.58059 0.0
C2842 C 0.16256 0.76218 0.5517 0.0
C2843 C 0.16125 0.76995 0.60674 0.0
C2844 C 0.15127 0.76352 0.60682 0.0
C2845 C 0.16699 0.76938 0.57872 0.0
H2846 H 0.14903 0.75021 0.53248 0.0
H2847 H 0.14675 0.76416 0.6275 0.0
C2848 C 0.10058 0.73117 0.60353 0.0
N2849 N 0.08386 0.72487 0.64459 0.0
C2850 C 0.09645 0.72223 0.62173 0.0
C2851 C 0.09617 0.73688 0.60612 0.0
C2852 C 0.088 0.71918 0.64234 0.0
C2853 C 0.08774 0.73358 0.62708 0.0
C2854 C 0.1272 0.73201 0.52038 0.0
C2855 C 0.12038 0.72775 0.49223 0.0
C2856 C 0.13349 0.7285 0.52841 0.0
C2857 C 0.11993 0.71997 0.47267 0.0
C2858 C 0.1328 0.72069 0.50826 0.0
N2859 N 0.12609 0.71663 0.48105 0.0
C2860 C 0.11916 0.75129 0.47847 0.0
C2861 C 0.10351 0.74391 0.50555 0.0
C2862 C 0.11572 0.75373 0.44735 0.0
N2863 N 0.11307 0.74659 0.50691 0.0
C2864 C 0.09975 0.7462 0.47499 0.0
C2865 C 0.1059 0.75125 0.44547 0.0
H2866 H 0.12674 0.75329 0.48028 0.0
H2867 H 0.09879 0.74004 0.52828 0.0
C2868 C 0.12027 0.71612 0.61719 0.0
N2869 N 0.11645 0.71877 0.58918 0.0
C2870 C 0.11671 0.70632 0.62494 0.0
C2871 C 0.10559 0.70215 0.57394 0.0
C2872 C 0.10937 0.71205 0.56721 0.0
C2873 C 0.10909 0.69918 0.60378 0.0
H2874 H 0.12574 0.7216 0.63471 0.0
H2875 H 0.10634 0.71438 0.54556 0.0
O2876 O 0.12644 0.75576 0.58219 0.0
O2877 O 0.12768 0.74002 0.62667 0.0
O2878 O 0.10889 0.73432 0.58339 0.0
O2879 O 0.12767 0.73954 0.54016 0.0
H2880 H 0.14102 0.76731 0.53856 0.0
H2881 H 0.11268 0.76048 0.57724 0.0
H2882 H 0.1413 0.78016 0.49901 0.0
H2883 H 0.11344 0.77341 0.53683 0.0
H2884 H 0.15633 0.74182 0.65651 0.0
H2885 H 0.13157 0.75087 0.6863 0.0
H2886 H 0.14184 0.73604 0.61649 0.0
H2887 H 0.14623 0.75638 0.72508 0.0
H2888 H 0.11511 0.76803 0.69748 0.0
H2889 H 0.10202 0.73844 0.73659 0.0
H2890 H 0.16678 0.76162 0.5295 0.0
H2891 H 0.16441 0.77555 0.62756 0.0
H2892 H 0.09977 0.71773 0.62026 0.0
H2893 H 0.09932 0.74387 0.59259 0.0
H2894 H 0.08474 0.71229 0.65665 0.0
H2895 H 0.0843 0.73796 0.62952 0.0
H2896 H 0.11544 0.73037 0.48576 0.0
H2897 H 0.1388 0.73172 0.55015 0.0
H2898 H 0.11466 0.71657 0.4509 0.0
H2899 H 0.13759 0.71786 0.51429 0.0
H2900 H 0.12073 0.7577 0.42539 0.0
H2901 H 0.0921 0.744 0.47442 0.0
H2902 H 0.11951 0.70439 0.64859 0.0
H2903 H 0.09977 0.69688 0.55679 0.0
Li2904 Li 0.05232 0.59988 0.74797 0.0
Li2905 Li 0.03922 0.58784 0.7824 0.0
Li2906 Li 0.05148 0.58424 0.75349 0.0
Li2907 Li 0.03919 0.58629 0.71703 0.0
C2908 C 0.06167 0.60055 0.80954 0.0
N2909 N 0.07855 0.61477 0.84202 0.0
C2910 C 0.0619 0.60862 0.82592 0.0
C2911 C 0.07 0.59967 0.8099 0.0
C2912 C 0.07051 0.61575 0.8421 0.0
C2913 C 0.07847 0.60695 0.82643 0.0
C2914 C 0.03248 0.59879 0.76338 0.0
C2915 C 0.01628 0.59473 0.78178 0.0
N2916 N 0.02009 0.60293 0.80257 0.0
C2917 C 0.03623 0.60718 0.78493 0.0
C2918 C 0.02242 0.59252 0.76172 0.0
C2919 C 0.02984 0.60915 0.8045 0.0
C2920 C 0.05692 0.61833 0.72492 0.0
N2921 N 0.06108 0.61345 0.73983 0.0
C2922 C 0.07694 0.62729 0.73162 0.0
C2923 C 0.07091 0.61773 0.74343 0.0
C2924 C 0.07279 0.63244 0.71591 0.0
C2925 C 0.06264 0.62788 0.71301 0.0
H2926 H 0.04915 0.61467 0.72073 0.0
H2927 H 0.07411 0.6136 0.75386 0.0
C2928 C 0.02287 0.57613 0.82643 0.0
N2929 N 0.0311 0.58495 0.82462 0.0
C2930 C 0.01653 0.57379 0.85603 0.0
C2931 C 0.02736 0.5896 0.882 0.0
C2932 C 0.03349 0.59162 0.85182 0.0
C2933 C 0.01871 0.58059 0.88426 0.0
H2934 H 0.02122 0.57087 0.80494 0.0
H2935 H 0.0401 0.59857 0.84989 0.0
C2936 C 0.05917 0.59849 0.68325 0.0
N2937 N 0.07113 0.61288 0.63463 0.0
C2938 C 0.05523 0.60226 0.65824 0.0
C2939 C 0.06919 0.60204 0.68347 0.0
C2940 C 0.0614 0.60953 0.63391 0.0
C2941 C 0.07512 0.60931 0.65867 0.0
C2942 C 0.03049 0.56785 0.73601 0.0
C2943 C 0.03358 0.56167 0.72183 0.0
C2944 C 0.02086 0.56561 0.73067 0.0
C2945 C 0.02699 0.55335 0.70256 0.0
C2946 C 0.0145 0.55724 0.71117 0.0
N2947 N 0.01767 0.55133 0.69765 0.0
C2948 C 0.05426 0.56996 0.7852 0.0
C2949 C 0.06467 0.57766 0.73461 0.0
C2950 C 0.05751 0.56328 0.78777 0.0
N2951 N 0.05771 0.57681 0.75843 0.0
C2952 C 0.06828 0.57126 0.73666 0.0
C2953 C 0.0645 0.56375 0.76286 0.0
H2954 H 0.04863 0.5694 0.80343 0.0
H2955 H 0.06718 0.58309 0.71328 0.0
C2956 C 0.02594 0.58617 0.66528 0.0
N2957 N 0.03166 0.5823 0.67334 0.0
C2958 C 0.02049 0.58356 0.63308 0.0
C2959 C 0.02699 0.57311 0.61779 0.0
C2960 C 0.03241 0.57602 0.65012 0.0
C2961 C 0.02091 0.57689 0.60888 0.0
H2962 H 0.02575 0.59142 0.68357 0.0
H2963 H 0.03722 0.57326 0.65677 0.0
O2964 O 0.0533 0.59345 0.79379 0.0
O2965 O 0.03862 0.59662 0.74463 0.0
O2966 O 0.05327 0.59157 0.70805 0.0
O2967 O 0.03686 0.5761 0.75466 0.0
H2968 H 0.05555 0.60946 0.82567 0.0
H2969 H 0.06995 0.59346 0.7975 0.0
H2970 H 0.07082 0.62206 0.85464 0.0
H2971 H 0.08498 0.60638 0.82683 0.0
H2972 H 0.0085 0.58992 0.7809 0.0
H2973 H 0.04398 0.61206 0.78696 0.0
H2974 H 0.01939 0.58596 0.74547 0.0
H2975 H 0.03265 0.61559 0.8214 0.0
H2976 H 0.08475 0.63054 0.73415 0.0
H2977 H 0.05916 0.6315 0.70022 0.0
H2978 H 0.01005 0.56668 0.85702 0.0
H2979 H 0.0293 0.59507 0.90306 0.0
H2980 H 0.04752 0.59972 0.65801 0.0
H2981 H 0.07241 0.5994 0.70319 0.0
H2982 H 0.05846 0.61255 0.61458 0.0
H2983 H 0.08289 0.61218 0.65876 0.0
H2984 H 0.041 0.5633 0.72524 0.0
H2985 H 0.01835 0.57036 0.74093 0.0
H2986 H 0.0293 0.54852 0.69137 0.0
H2987 H 0.00706 0.55546 0.70666 0.0
H2988 H 0.05418 0.55754 0.80796 0.0
H2989 H 0.07378 0.57206 0.71725 0.0
H2990 H 0.01612 0.58687 0.62695 0.0
H2991 H 0.02751 0.5679 0.60018 0.0
Li2992 Li 0.41312 0.45394 0.72115 0.0
Li2993 Li 0.41389 0.46777 0.75756 0.0
Li2994 Li 0.40978 0.45197 0.78734 0.0
Li2995 Li 0.399 0.45316 0.74567 0.0
C2996 C 0.43156 0.46733 0.75385 0.0
N2997 N 0.45091 0.47967 0.73722 0.0
C2998 C 0.43413 0.47402 0.72521 0.0
C2999 C 0.43882 0.4669 0.77402 0.0
C3000 C 0.44396 0.48021 0.71727 0.0
C3001 C 0.44856 0.47319 0.76514 0.0
C3002 C 0.40161 0.46365 0.68684 0.0
C3003 C 0.39056 0.46967 0.67621 0.0
N3004 N 0.3881 0.46503 0.64331 0.0
C3005 C 0.39904 0.45901 0.65277 0.0
C3006 C 0.39738 0.46907 0.69859 0.0
C3007 C 0.39217 0.45977 0.63123 0.0
C3008 C 0.41098 0.44354 0.65764 0.0
N3009 N 0.41796 0.44998 0.68069 0.0
C3010 C 0.43041 0.44994 0.64399 0.0
C3011 C 0.42752 0.45304 0.6749 0.0
C3012 C 0.42337 0.44354 0.61904 0.0
C3013 C 0.41353 0.44024 0.62645 0.0
H3014 H 0.4034 0.44098 0.66354 0.0
H3015 H 0.43296 0.45787 0.69405 0.0
C3016 C 0.42772 0.48468 0.79241 0.0
N3017 N 0.42113 0.48143 0.76471 0.0
C3018 C 0.43447 0.49457 0.79569 0.0
C3019 C 0.427 0.49766 0.74361 0.0
C3020 C 0.42057 0.48768 0.74074 0.0
C3021 C 0.43432 0.50123 0.77059 0.0
H3022 H 0.42808 0.47952 0.81074 0.0
H3023 H 0.41543 0.48493 0.71844 0.0
C3024 C 0.4043 0.43528 0.74796 0.0
N3025 N 0.40811 0.42009 0.7493 0.0
C3026 C 0.39677 0.42572 0.74293 0.0
C3027 C 0.41379 0.43711 0.75363 0.0
C3028 C 0.39884 0.41814 0.74372 0.0
C3029 C 0.41556 0.42934 0.75422 0.0
C3030 C 0.3957 0.45754 0.81503 0.0
C3031 C 0.38957 0.44782 0.82466 0.0
C3032 C 0.39365 0.46466 0.82735 0.0
C3033 C 0.38143 0.44537 0.84646 0.0
C3034 C 0.38544 0.46191 0.84911 0.0
N3035 N 0.37955 0.4524 0.85812 0.0
C3036 C 0.41925 0.45304 0.85275 0.0
C3037 C 0.40602 0.43726 0.8406 0.0
C3038 C 0.42151 0.44973 0.88465 0.0
N3039 N 0.41169 0.44679 0.83136 0.0
C3040 C 0.40808 0.43362 0.87207 0.0
C3041 C 0.41595 0.43988 0.8944 0.0
H3042 H 0.42362 0.46057 0.84468 0.0
H3043 H 0.39997 0.43246 0.82336 0.0
C3044 C 0.38194 0.43992 0.71184 0.0
N3045 N 0.38562 0.44792 0.73361 0.0
C3046 C 0.37251 0.43581 0.69828 0.0
C3047 C 0.37077 0.44826 0.72977 0.0
C3048 C 0.38023 0.45207 0.74311 0.0
C3049 C 0.36685 0.44005 0.70691 0.0
H3050 H 0.38646 0.43689 0.70416 0.0
H3051 H 0.38338 0.45855 0.75983 0.0
O3052 O 0.42201 0.46135 0.76275 0.0
O3053 O 0.4082 0.46285 0.70865 0.0
O3054 O 0.40231 0.44273 0.74715 0.0
O3055 O 0.4036 0.46008 0.79322 0.0
H3056 H 0.4286 0.47442 0.70922 0.0
H3057 H 0.43693 0.46177 0.7963 0.0
H3058 H 0.44606 0.48544 0.69523 0.0
H3059 H 0.45426 0.47294 0.7805 0.0
H3060 H 0.38715 0.47375 0.68517 0.0
H3061 H 0.40231 0.45489 0.64297 0.0
H3062 H 0.39914 0.47255 0.72518 0.0
H3063 H 0.39008 0.45618 0.60488 0.0
H3064 H 0.43808 0.45266 0.63938 0.0
H3065 H 0.40784 0.43513 0.60845 0.0
H3066 H 0.44004 0.49685 0.81652 0.0
H3067 H 0.42642 0.50247 0.72404 0.0
H3068 H 0.38939 0.42417 0.73853 0.0
H3069 H 0.41973 0.44442 0.7576 0.0
H3070 H 0.39307 0.41071 0.7399 0.0
H3071 H 0.42286 0.43065 0.7586 0.0
H3072 H 0.391 0.44222 0.81498 0.0
H3073 H 0.39833 0.47221 0.81995 0.0
H3074 H 0.37658 0.43787 0.854 0.0
H3075 H 0.38375 0.46733 0.85877 0.0
H3076 H 0.42768 0.45477 0.901 0.0
H3077 H 0.40357 0.426 0.87892 0.0
H3078 H 0.36978 0.42956 0.6803 0.0
H3079 H 0.3666 0.45171 0.73705 0.0
Li3080 Li 0.5458 0.94523 0.75022 0.0
Li3081 Li 0.54664 0.95732 0.79065 0.0
Li3082 Li 0.5312 0.94573 0.75559 0.0
Li3083 Li 0.54616 0.95879 0.72303 0.0
C3084 C 0.53908 0.93626 0.81418 0.0
N3085 N 0.54151 0.92246 0.8512 0.0
C3086 C 0.54817 0.93868 0.82865 0.0
C3087 C 0.53121 0.92687 0.81884 0.0
C3088 C 0.54925 0.93158 0.84717 0.0
C3089 C 0.53259 0.91999 0.83758 0.0
C3090 C 0.5643 0.96814 0.75704 0.0
C3091 C 0.57066 0.98545 0.76129 0.0
N3092 N 0.57981 0.98684 0.7642 0.0
C3093 C 0.57377 0.96975 0.76013 0.0
C3094 C 0.56273 0.97605 0.7577 0.0
C3095 C 0.58151 0.97926 0.7637 0.0
C3096 C 0.55999 0.9408 0.72997 0.0
N3097 N 0.55063 0.93653 0.74173 0.0
C3098 C 0.54852 0.92073 0.73137 0.0
C3099 C 0.54491 0.92669 0.7431 0.0
C3100 C 0.5581 0.92497 0.71824 0.0
C3101 C 0.5639 0.93514 0.71817 0.0
H3102 H 0.56429 0.94862 0.72816 0.0
H3103 H 0.53741 0.92346 0.75163 0.0
C3104 C 0.54524 0.96687 0.85307 0.0
N3105 N 0.55114 0.96435 0.83511 0.0
C3106 C 0.54849 0.97257 0.88469 0.0
C3107 C 0.56375 0.97272 0.87924 0.0
C3108 C 0.56017 0.96698 0.84786 0.0
C3109 C 0.55791 0.97567 0.89786 0.0
H3110 H 0.53805 0.96459 0.84243 0.0
H3111 H 0.56465 0.96471 0.83345 0.0
C3112 C 0.53828 0.93915 0.68488 0.0
N3113 N 0.5406 0.92708 0.63646 0.0
C3114 C 0.54627 0.94294 0.66118 0.0
C3115 C 0.53145 0.92922 0.68379 0.0
C3116 C 0.54732 0.93672 0.63697 0.0
C3117 C 0.53275 0.92324 0.65912 0.0
C3118 C 0.53402 0.96608 0.75518 0.0
C3119 C 0.52582 0.96287 0.73288 0.0
C3120 C 0.53798 0.97516 0.77225 0.0
C3121 C 0.52178 0.96883 0.7277 0.0
C3122 C 0.53373 0.98091 0.76637 0.0
N3123 N 0.52578 0.97765 0.74441 0.0
C3124 C 0.51359 0.94186 0.78667 0.0
C3125 C 0.51198 0.93439 0.72886 0.0
C3126 C 0.50373 0.939 0.78679 0.0
N3127 N 0.51751 0.93969 0.75764 0.0
C3128 C 0.50205 0.93125 0.72807 0.0
C3129 C 0.49785 0.93381 0.75678 0.0
H3130 H 0.51824 0.94626 0.80881 0.0
H3131 H 0.51533 0.93299 0.70571 0.0
C3132 C 0.55968 0.97107 0.66931 0.0
N3133 N 0.55042 0.9674 0.68176 0.0
C3134 C 0.56285 0.97705 0.63843 0.0
C3135 C 0.54684 0.97516 0.63289 0.0
C3136 C 0.54398 0.96922 0.66392 0.0
C3137 C 0.5564 0.97915 0.61974 0.0
H3138 H 0.56458 0.96923 0.68288 0.0
H3139 H 0.53655 0.96588 0.67312 0.0
O3140 O 0.53788 0.94309 0.79582 0.0
O3141 O 0.55664 0.95882 0.75422 0.0
O3142 O 0.53727 0.94512 0.70937 0.0
O3143 O 0.53794 0.96023 0.76134 0.0
H3144 H 0.55433 0.94592 0.82522 0.0
H3145 H 0.52412 0.92492 0.80786 0.0
H3146 H 0.55625 0.93332 0.8583 0.0
H3147 H 0.52657 0.91267 0.84126 0.0
H3148 H 0.56954 0.99163 0.76173 0.0
H3149 H 0.57513 0.96372 0.76007 0.0
H3150 H 0.55551 0.97498 0.75514 0.0
H3151 H 0.58887 0.9806 0.76616 0.0
H3152 H 0.54382 0.91291 0.73189 0.0
H3153 H 0.57125 0.93871 0.7076 0.0
H3154 H 0.54378 0.97473 0.8981 0.0
H3155 H 0.57099 0.97482 0.88887 0.0
H3156 H 0.55167 0.95058 0.66186 0.0
H3157 H 0.52533 0.92611 0.70241 0.0
H3158 H 0.55351 0.93954 0.61869 0.0
H3159 H 0.52757 0.91553 0.65823 0.0
H3160 H 0.52268 0.95591 0.7192 0.0
H3161 H 0.54426 0.97775 0.78994 0.0
H3162 H 0.51546 0.96644 0.71035 0.0
H3163 H 0.53674 0.98796 0.77936 0.0
H3164 H 0.5009 0.94132 0.80921 0.0
H3165 H 0.49781 0.92717 0.70459 0.0
H3166 H 0.57029 0.97997 0.62929 0.0
H3167 H 0.54154 0.97638 0.61879 0.0
H3168 H 0.11805 0.27857 0.03649 0.0
H3169 H 0.10468 0.25663 0.12049 0.0
H3170 H 0.13226 0.27662 0.03722 0.0
H3171 H 0.11892 0.25452 0.12086 0.0
H3172 H 0.15133 0.26419 0.14381 0.0
H3173 H 0.13562 0.26337 0.14017 0.0
H3174 H 0.13837 0.2661 0.02233 0.0
H3175 H 0.1543 0.26757 0.02613 0.0
C3176 C 0.11806 0.27317 0.05457 0.0
C3177 C 0.11024 0.26774 0.07838 0.0
C3178 C 0.12622 0.27203 0.05495 0.0
C3179 C 0.12674 0.26539 0.07902 0.0
C3180 C 0.1188 0.25979 0.10231 0.0
C3181 C 0.11065 0.26097 0.10207 0.0
C3182 C 0.14858 0.26462 0.11712 0.0
C3183 C 0.15416 0.26607 0.08534 0.0
C3184 C 0.13951 0.26401 0.11498 0.0
C3185 C 0.13577 0.26477 0.08097 0.0
C3186 C 0.14111 0.26568 0.04904 0.0
C3187 C 0.15021 0.26637 0.0512 0.0
H3188 H 0.72303 0.84117 0.1504 0.0
H3189 H 0.74094 0.84818 0.05338 0.0
H3190 H 0.72549 0.85756 0.15108 0.0
H3191 H 0.74319 0.86456 0.05372 0.0
H3192 H 0.72937 0.88449 0.03841 0.0
H3193 H 0.73129 0.87028 0.04172 0.0
H3194 H 0.7378 0.87538 0.15719 0.0
H3195 H 0.73614 0.88986 0.15384 0.0
C3196 C 0.72768 0.84626 0.1297 0.0
C3197 C 0.73171 0.84331 0.10162 0.0
C3198 C 0.72908 0.85567 0.1301 0.0
C3199 C 0.73448 0.86231 0.10231 0.0
C3200 C 0.73889 0.85953 0.07521 0.0
C3201 C 0.73756 0.85015 0.07495 0.0
C3202 C 0.73149 0.88279 0.06434 0.0
C3203 C 0.73256 0.88833 0.09591 0.0
C3204 C 0.73258 0.87461 0.06621 0.0
C3205 C 0.73467 0.87171 0.09973 0.0
C3206 C 0.73608 0.87741 0.13107 0.0
C3207 C 0.73509 0.88567 0.12914 0.0
H3208 H 0.10753 0.84578 0.16132 0.0
H3209 H 0.11301 0.84497 0.04566 0.0
H3210 H 0.12168 0.86212 0.16524 0.0
H3211 H 0.12693 0.86129 0.04955 0.0
H3212 H 0.1489 0.8928 0.06142 0.0
H3213 H 0.13248 0.87873 0.062 0.0
H3214 H 0.13947 0.8681 0.15966 0.0
H3215 H 0.15587 0.882 0.1588 0.0
C3216 C 0.11168 0.84911 0.13669 0.0
C3217 C 0.10916 0.84402 0.10324 0.0
C3218 C 0.11975 0.85847 0.13894 0.0
C3219 C 0.12541 0.86297 0.10773 0.0
C3220 C 0.12262 0.85808 0.07398 0.0
C3221 C 0.11462 0.84871 0.07177 0.0
C3222 C 0.1469 0.8875 0.0832 0.0
C3223 C 0.15375 0.88847 0.10978 0.0
C3224 C 0.1375 0.87947 0.08357 0.0
C3225 C 0.13473 0.87228 0.11068 0.0
C3226 C 0.14135 0.87357 0.13862 0.0
C3227 C 0.15077 0.88156 0.13814 0.0
H3228 H 0.25926 0.10686 0.85368 0.0
H3229 H 0.26798 0.114 0.9667 0.0
H3230 H 0.25595 0.12034 0.85029 0.0
H3231 H 0.26481 0.1275 0.96327 0.0
H3232 H 0.25472 0.14894 0.95415 0.0
H3233 H 0.25246 0.13255 0.95465 0.0
H3234 H 0.26745 0.13822 0.85097 0.0
H3235 H 0.26985 0.15458 0.85065 0.0
C3236 C 0.26026 0.11119 0.87797 0.0
C3237 C 0.26397 0.10949 0.91033 0.0
C3238 C 0.25843 0.11892 0.87598 0.0
C3239 C 0.26017 0.125 0.90644 0.0
C3240 C 0.26331 0.1229 0.93943 0.0
C3241 C 0.26522 0.11524 0.94131 0.0
C3242 C 0.25743 0.14664 0.93127 0.0
C3243 C 0.26259 0.15312 0.90263 0.0
C3244 C 0.25611 0.13726 0.93152 0.0
C3245 C 0.25985 0.13414 0.90303 0.0
C3246 C 0.26438 0.14037 0.87314 0.0
C3247 C 0.26576 0.14976 0.87297 0.0
H3248 H 0.844 0.11458 0.83273 0.0
H3249 H 0.84751 0.10899 0.94608 0.0
H3250 H 0.85999 0.12901 0.83363 0.0
H3251 H 0.86383 0.12295 0.94599 0.0
H3252 H 0.88438 0.15596 0.9501 0.0
H3253 H 0.87025 0.13976 0.9483 0.0
H3254 H 0.877 0.13647 0.83619 0.0
H3255 H 0.891 0.15294 0.83783 0.0
C3256 C 0.84822 0.11633 0.85772 0.0
C3257 C 0.84433 0.11069 0.88954 0.0
C3258 C 0.8575 0.12455 0.85805 0.0
C3259 C 0.86319 0.12726 0.89007 0.0
C3260 C 0.85957 0.12123 0.92109 0.0
C3261 C 0.85023 0.1131 0.92094 0.0
C3262 C 0.88294 0.1517 0.92531 0.0
C3263 C 0.88877 0.15569 0.8941 0.0
C3264 C 0.87485 0.14237 0.92426 0.0
C3265 C 0.87243 0.13675 0.89206 0.0
C3266 C 0.87853 0.14063 0.86125 0.0
C3267 C 0.88657 0.15004 0.86218 0.0
H3268 H 0.84601 0.74019 0.84725 0.0
H3269 H 0.84103 0.72704 0.95438 0.0
H3270 H 0.86244 0.74252 0.84697 0.0
H3271 H 0.85713 0.72889 0.95368 0.0
H3272 H 0.88772 0.73666 0.95656 0.0
H3273 H 0.87382 0.73905 0.95684 0.0
H3274 H 0.87017 0.73335 0.84036 0.0
H3275 H 0.88467 0.73191 0.83939 0.0
C3276 C 0.84847 0.73785 0.87078 0.0
C3277 C 0.8423 0.73349 0.9009 0.0
C3278 C 0.85785 0.73912 0.87059 0.0
C3279 C 0.86117 0.73588 0.90027 0.0
C3280 C 0.85499 0.7317 0.93067 0.0
C3281 C 0.84571 0.73059 0.93107 0.0
C3282 C 0.88419 0.73623 0.9307 0.0
C3283 C 0.88732 0.73396 0.89799 0.0
C3284 C 0.87606 0.73743 0.93101 0.0
C3285 C 0.87069 0.73618 0.8988 0.0
C3286 C 0.8741 0.7344 0.86575 0.0
C3287 C 0.88236 0.7334 0.86531 0.0
H3288 H 0.81954 0.60111 0.47808 0.0
H3289 H 0.81679 0.59251 0.36459 0.0
H3290 H 0.80315 0.59871 0.47694 0.0
H3291 H 0.80018 0.58964 0.3636 0.0
H3292 H 0.78051 0.60332 0.36012 0.0
H3293 H 0.79403 0.60032 0.3619 0.0
H3294 H 0.78604 0.58902 0.47205 0.0
H3295 H 0.77278 0.59262 0.47093 0.0
C3296 C 0.81528 0.59839 0.45323 0.0
C3297 C 0.81943 0.59711 0.42129 0.0
C3298 C 0.80586 0.59696 0.45255 0.0
C3299 C 0.80037 0.59411 0.41998 0.0
C3300 C 0.80429 0.59208 0.38888 0.0
C3301 C 0.81376 0.59366 0.38943 0.0
C3302 C 0.78161 0.60016 0.38469 0.0
C3303 C 0.77571 0.59841 0.41566 0.0
C3304 C 0.78929 0.59829 0.38555 0.0
C3305 C 0.79121 0.5945 0.41728 0.0
C3306 C 0.78488 0.59211 0.4474 0.0
C3307 C 0.77721 0.59407 0.44662 0.0
H3308 H 0.39781 0.17832 0.36162 0.0
H3309 H 0.40368 0.17962 0.47775 0.0
H3310 H 0.40057 0.19474 0.36351 0.0
H3311 H 0.40722 0.1964 0.47915 0.0
H3312 H 0.39544 0.2179 0.47695 0.0
H3313 H 0.39775 0.20388 0.47791 0.0
H3314 H 0.41054 0.21142 0.36964 0.0
H3315 H 0.40766 0.22516 0.36824 0.0
C3316 C 0.39985 0.18218 0.3875 0.0
C3317 C 0.40027 0.17754 0.4197 0.0
C3318 C 0.40162 0.1917 0.38849 0.0
C3319 C 0.40402 0.19692 0.42163 0.0
C3320 C 0.40518 0.19254 0.4533 0.0
C3321 C 0.40327 0.18294 0.4524 0.0
C3322 C 0.39893 0.21665 0.45375 0.0
C3323 C 0.40129 0.2225 0.4224 0.0
C3324 C 0.40032 0.20863 0.45429 0.0
C3325 C 0.40423 0.2064 0.42362 0.0
C3326 C 0.40727 0.21275 0.39336 0.0
C3327 C 0.4057 0.22065 0.39258 0.0
H3328 H 0.81893 0.22539 0.46879 0.0
H3329 H 0.82307 0.21645 0.36166 0.0
H3330 H 0.80202 0.21222 0.46862 0.0
H3331 H 0.80647 0.20305 0.36227 0.0
H3332 H 0.77578 0.18085 0.36113 0.0
H3333 H 0.78966 0.19737 0.3603 0.0
H3334 H 0.79428 0.19503 0.47581 0.0
H3335 H 0.78014 0.17871 0.47666 0.0
C3336 C 0.81619 0.2207 0.445 0.0
C3337 C 0.82237 0.22186 0.41548 0.0
C3338 C 0.80654 0.21309 0.44505 0.0
C3339 C 0.80288 0.20649 0.41563 0.0
C3340 C 0.80895 0.20802 0.38528 0.0
C3341 C 0.81854 0.21563 0.38515 0.0
C3342 C 0.77966 0.18401 0.38644 0.0
C3343 C 0.777 0.17853 0.41887 0.0
C3344 C 0.78763 0.19343 0.38599 0.0
C3345 C 0.79323 0.19747 0.41781 0.0
C3346 C 0.79012 0.19221 0.45084 0.0
C3347 C 0.78204 0.18283 0.45138 0.0
H3348 H 0.93638 0.48953 0.30237 0.0
H3349 H 0.92915 0.48542 0.18702 0.0
H3350 H 0.93548 0.47388 0.3045 0.0
H3351 H 0.929 0.47001 0.18864 0.0
H3352 H 0.92339 0.43922 0.20967 0.0
H3353 H 0.92127 0.45347 0.20992 0.0
H3354 H 0.9457 0.46803 0.28384 0.0
H3355 H 0.9476 0.4538 0.2842 0.0
C3356 C 0.93446 0.48525 0.27749 0.0
C3357 C 0.93287 0.48881 0.24445 0.0
C3358 C 0.93412 0.47631 0.2786 0.0
C3359 C 0.93235 0.47075 0.24661 0.0
C3360 C 0.93035 0.47409 0.21385 0.0
C3361 C 0.93057 0.483 0.21282 0.0
C3362 C 0.92825 0.44548 0.22603 0.0
C3363 C 0.9356 0.44538 0.24719 0.0
C3364 C 0.92706 0.45364 0.22612 0.0
C3365 C 0.93326 0.46188 0.24714 0.0
C3366 C 0.94062 0.46174 0.26811 0.0
C3367 C 0.94174 0.45358 0.26825 0.0
H3368 H 0.56095 0.48209 0.2519 0.0
H3369 H 0.54567 0.49112 0.17772 0.0
H3370 H 0.54695 0.46562 0.25192 0.0
H3371 H 0.53206 0.47461 0.17637 0.0
H3372 H 0.51155 0.44204 0.16463 0.0
H3373 H 0.52751 0.45664 0.15908 0.0
H3374 H 0.52915 0.45981 0.27668 0.0
H3375 H 0.51306 0.4456 0.28248 0.0
C3376 C 0.5547 0.48059 0.23529 0.0
C3377 C 0.55447 0.48803 0.21508 0.0
C3378 C 0.54673 0.47114 0.23511 0.0
C3379 C 0.53847 0.46888 0.21409 0.0
C3380 C 0.53841 0.47614 0.1924 0.0
C3381 C 0.54627 0.48562 0.1931 0.0
C3382 C 0.51529 0.44582 0.18937 0.0
C3383 C 0.51091 0.44266 0.22399 0.0
C3384 C 0.52446 0.45413 0.18612 0.0
C3385 C 0.52952 0.45932 0.21745 0.0
C3386 C 0.52544 0.45585 0.25213 0.0
C3387 C 0.51621 0.44766 0.25538 0.0
H3388 H 0.55163 0.06286 0.18691 0.0
H3389 H 0.55732 0.07172 0.30014 0.0
H3390 H 0.53745 0.06498 0.18756 0.0
H3391 H 0.54343 0.07435 0.30063 0.0
H3392 H 0.51018 0.06061 0.3046 0.0
H3393 H 0.52665 0.06348 0.30249 0.0
H3394 H 0.52978 0.07446 0.19188 0.0
H3395 H 0.51298 0.07096 0.19327 0.0
C3396 C 0.55001 0.06559 0.21155 0.0
C3397 C 0.55544 0.06702 0.24358 0.0
C3398 C 0.54191 0.06685 0.21197 0.0
C3399 C 0.53918 0.06969 0.24437 0.0
C3400 C 0.54515 0.0719 0.27551 0.0
C3401 C 0.55314 0.07047 0.27522 0.0
C3402 C 0.51437 0.06363 0.2798 0.0
C3403 C 0.51019 0.06536 0.24886 0.0
C3404 C 0.52391 0.06545 0.27877 0.0
C3405 C 0.52958 0.06917 0.2469 0.0
C3406 C 0.52558 0.07145 0.21666 0.0
C3407 C 0.51598 0.06954 0.2176 0.0
H3408 H 0.45276 0.9462 0.70731 0.0
H3409 H 0.4382 0.92293 0.78573 0.0
H3410 H 0.46679 0.94397 0.70826 0.0
H3411 H 0.45227 0.92053 0.78626 0.0
H3412 H 0.48433 0.9291 0.81165 0.0
H3413 H 0.4688 0.92865 0.80776 0.0
H3414 H 0.47268 0.93345 0.69089 0.0
H3415 H 0.48844 0.93458 0.6951 0.0
C3416 C 0.45248 0.94046 0.72419 0.0
C3417 C 0.44437 0.93472 0.74634 0.0
C3418 C 0.46053 0.93915 0.7247 0.0
C3419 C 0.46066 0.93202 0.7472 0.0
C3420 C 0.45246 0.92615 0.76893 0.0
C3421 C 0.4444 0.92751 0.76859 0.0
C3422 C 0.48187 0.93006 0.78512 0.0
C3423 C 0.48773 0.93199 0.7538 0.0
C3424 C 0.47289 0.92968 0.78281 0.0
C3425 C 0.46954 0.93114 0.74907 0.0
C3426 C 0.47513 0.93249 0.71745 0.0
C3427 C 0.48413 0.93298 0.71981 0.0
H3428 H 0.06892 0.55613 0.70315 0.0
H3429 H 0.06596 0.5535 0.82106 0.0
H3430 H 0.07117 0.54215 0.70116 0.0
H3431 H 0.06723 0.53892 0.8186 0.0
H3432 H 0.07317 0.5143 0.80858 0.0
H3433 H 0.07597 0.5309 0.80918 0.0
H3434 H 0.06092 0.52551 0.70542 0.0
H3435 H 0.05861 0.50923 0.70429 0.0
C3436 C 0.06887 0.55268 0.72879 0.0
C3437 C 0.06711 0.55593 0.76226 0.0
C3438 C 0.06998 0.54451 0.72754 0.0
C3439 C 0.06915 0.53922 0.75957 0.0
C3440 C 0.06794 0.54278 0.79329 0.0
C3441 C 0.06703 0.55108 0.79464 0.0
C3442 C 0.07062 0.51678 0.78574 0.0
C3443 C 0.0657 0.51052 0.75636 0.0
C3444 C 0.07216 0.52626 0.78611 0.0
C3445 C 0.06865 0.5296 0.75743 0.0
C3446 C 0.06394 0.52335 0.72764 0.0
C3447 C 0.06256 0.51396 0.72701 0.0
H3448 H 0.44227 0.51333 0.71122 0.0
H3449 H 0.44462 0.51276 0.82925 0.0
H3450 H 0.45634 0.52944 0.70975 0.0
H3451 H 0.45935 0.52851 0.82722 0.0
H3452 H 0.48416 0.55923 0.81685 0.0
H3453 H 0.46759 0.54535 0.81795 0.0
H3454 H 0.47291 0.53556 0.71434 0.0
H3455 H 0.48914 0.54959 0.71272 0.0
C3456 C 0.44567 0.51664 0.73702 0.0
C3457 C 0.44228 0.51159 0.77036 0.0
C3458 C 0.45392 0.52587 0.73605 0.0
C3459 C 0.45918 0.53023 0.76822 0.0
C3460 C 0.45552 0.52543 0.80182 0.0
C3461 C 0.44712 0.51628 0.8029 0.0
C3462 C 0.48167 0.55414 0.79417 0.0
C3463 C 0.48787 0.55549 0.7646 0.0
C3464 C 0.47221 0.54616 0.79484 0.0
C3465 C 0.46885 0.53928 0.76624 0.0
C3466 C 0.47508 0.54079 0.73645 0.0
C3467 C 0.48444 0.54882 0.73553 0.0
H3468 H 0.59281 0.81846 0.63122 0.0
H3469 H 0.60092 0.82086 0.51727 0.0
H3470 H 0.59022 0.80196 0.63296 0.0
H3471 H 0.5988 0.80458 0.51912 0.0
H3472 H 0.59304 0.77427 0.52709 0.0
H3473 H 0.58935 0.78745 0.52529 0.0
H3474 H 0.60121 0.79616 0.63439 0.0
H3475 H 0.6043 0.7827 0.63696 0.0
C3476 C 0.59389 0.81536 0.60643 0.0
C3477 C 0.59714 0.8209 0.57421 0.0
C3478 C 0.59248 0.80596 0.60742 0.0
C3479 C 0.59448 0.80199 0.5764 0.0
C3480 C 0.59709 0.80733 0.54347 0.0
C3481 C 0.59835 0.81668 0.54236 0.0
C3482 C 0.59461 0.77885 0.55104 0.0
C3483 C 0.59911 0.77753 0.58196 0.0
C3484 C 0.59259 0.78647 0.54985 0.0
C3485 C 0.59507 0.79296 0.5795 0.0
C3486 C 0.59909 0.79128 0.61113 0.0
C3487 C 0.60103 0.78364 0.61241 0.0
H3488 H 0.18085 0.77437 0.63132 0.0
H3489 H 0.17636 0.78124 0.52129 0.0
H3490 H 0.19736 0.78829 0.63084 0.0
H3491 H 0.19258 0.79545 0.5212 0.0
H3492 H 0.22284 0.81974 0.52269 0.0
H3493 H 0.2095 0.80303 0.52119 0.0
H3494 H 0.20403 0.80496 0.63616 0.0
H3495 H 0.21783 0.82129 0.6383 0.0
C3496 C 0.18348 0.77884 0.60691 0.0
C3497 C 0.17738 0.77681 0.57641 0.0
C3498 C 0.19289 0.78685 0.60666 0.0
C3499 C 0.1963 0.79314 0.57622 0.0
C3500 C 0.19032 0.79075 0.54499 0.0
C3501 C 0.18098 0.78263 0.54501 0.0
C3502 C 0.21898 0.8165 0.5479 0.0
C3503 C 0.22132 0.82195 0.58048 0.0
C3504 C 0.21121 0.80694 0.54692 0.0
C3505 C 0.20553 0.80264 0.57837 0.0
C3506 C 0.20824 0.80793 0.61137 0.0
C3507 C 0.21608 0.81741 0.61247 0.0
H3508 H 0.21827 0.39646 0.52668 0.0
H3509 H 0.22352 0.40375 0.64145 0.0
H3510 H 0.20412 0.39858 0.52857 0.0
H3511 H 0.2096 0.40633 0.64327 0.0
H3512 H 0.1763 0.39289 0.645 0.0
H3513 H 0.19273 0.39561 0.64327 0.0
H3514 H 0.1967 0.40822 0.53517 0.0
H3515 H 0.17996 0.40487 0.53601 0.0
C3516 C 0.21656 0.39883 0.55203 0.0
C3517 C 0.22188 0.39983 0.58402 0.0
C3518 C 0.20847 0.40009 0.55315 0.0
C3519 C 0.20562 0.4025 0.58624 0.0
C3520 C 0.21143 0.40423 0.61756 0.0
C3521 C 0.21943 0.40282 0.61654 0.0
C3522 C 0.18067 0.39624 0.62083 0.0
C3523 C 0.17674 0.39847 0.59036 0.0
C3524 C 0.19019 0.39797 0.62006 0.0
C3525 C 0.19606 0.40209 0.58894 0.0
C3526 C 0.19233 0.40488 0.55933 0.0
C3527 C 0.18276 0.40307 0.55998 0.0
H3528 H 0.02433 0.24104 0.01353 0.0
H3529 H 0.01373 0.25279 0.09669 0.0
H3530 H 0.00787 0.23141 0.98917 0.0
H3531 H 0.99739 0.24349 0.0716 0.0
H3532 H 0.96766 0.22163 0.03347 0.0
H3533 H 0.98354 0.2275 0.06181 0.0
H3534 H 0.99708 0.23528 0.955 0.0
H3535 H 0.98115 0.22927 0.9267 0.0
C3536 C 0.01845 0.24144 0.027 0.0
C3537 C 0.02032 0.24771 0.05691 0.0
C3538 C 0.00905 0.23601 0.01278 0.0
C3539 C 0.00133 0.23674 0.02823 0.0
C3540 C 0.00314 0.24268 0.05921 0.0
C3541 C 0.01253 0.2481 0.07339 0.0
C3542 C 0.97404 0.22455 0.01608 0.0
C3543 C 0.97321 0.22513 0.97795 0.0
C3544 C 0.98313 0.2279 0.03229 0.0
C3545 C 0.99159 0.23196 0.01072 0.0
C3546 C 0.9907 0.23211 0.97238 0.0
C3547 C 0.98159 0.2287 0.95614 0.0
H3548 H 0.76921 0.75289 0.92484 0.0
H3549 H 0.77492 0.74544 0.03218 0.0
H3550 H 0.76312 0.76277 0.95294 0.0
H3551 H 0.76904 0.75547 0.06038 0.0
H3552 H 0.74381 0.76063 0.09201 0.0
H3553 H 0.75319 0.75362 0.06761 0.0
H3554 H 0.76658 0.777 0.98879 0.0
H3555 H 0.75684 0.7838 0.01234 0.0
C3556 C 0.76934 0.75354 0.95442 0.0
C3557 C 0.77237 0.7483 0.97639 0.0
C3558 C 0.7659 0.75923 0.97055 0.0
C3559 C 0.7655 0.75982 0.00895 0.0
C3560 C 0.76906 0.75499 0.03077 0.0
C3561 C 0.77242 0.74926 0.01466 0.0
C3562 C 0.74879 0.7643 0.06961 0.0
C3563 C 0.74951 0.7727 0.05386 0.0
C3564 C 0.75426 0.76035 0.05587 0.0
C3565 C 0.76061 0.76473 0.02609 0.0
C3566 C 0.76166 0.77339 0.01143 0.0
C3567 C 0.75617 0.77735 0.02521 0.0
H3568 H 0.24111 0.97916 0.05906 0.0
H3569 H 0.21569 0.97078 0.99212 0.0
H3570 H 0.24859 0.99565 0.03418 0.0
H3571 H 0.22321 0.98725 0.96702 0.0
H3572 H 0.23685 0.02103 0.96402 0.0
H3573 H 0.22874 0.00447 0.9886 0.0
H3574 H 0.25493 0.00308 0.97159 0.0
H3575 H 0.26305 0.01963 0.94734 0.0
C3576 C 0.23709 0.98089 0.03936 0.0
C3577 C 0.22784 0.97371 0.02746 0.0
C3578 C 0.2414 0.99027 0.02485 0.0
C3579 C 0.2365 0.99268 0.99848 0.0
C3580 C 0.22713 0.98559 0.98738 0.0
C3581 C 0.22286 0.97617 0.00158 0.0
C3582 C 0.24083 0.01714 0.96536 0.0
C3583 C 0.25056 0.02159 0.95374 0.0
C3584 C 0.23619 0.00767 0.97926 0.0
C3585 C 0.24124 0.00254 0.98223 0.0
C3586 C 0.25091 0.00692 0.96999 0.0
C3587 C 0.25551 0.01634 0.95572 0.0
H3588 H 0.96999 0.74954 0.02234 0.0
H3589 H 0.9807 0.74844 0.91496 0.0
H3590 H 0.98664 0.75922 0.04472 0.0
H3591 H 0.99738 0.75755 0.93744 0.0
H3592 H 0.027 0.77865 0.97985 0.0
H3593 H 0.01036 0.77204 0.95778 0.0
H3594 H -0.00042 0.75726 0.06151 0.0
H3595 H 0.01622 0.76443 0.08389 0.0
C3596 C 0.97597 0.75142 0.00361 0.0
C3597 C 0.97416 0.7483 0.96707 0.0
C3598 C 0.98551 0.75687 0.01641 0.0
C3599 C 0.99343 0.75911 0.9931 0.0
C3600 C 0.99153 0.75614 0.95616 0.0
C3601 C 0.98198 0.75087 0.94321 0.0
C3602 C 0.02102 0.77408 0.9979 0.0
C3603 C 0.02281 0.77201 0.03345 0.0
C3604 C 0.01149 0.77022 0.98525 0.0
C3605 C 0.00356 0.76401 0.00765 0.0
C3606 C 0.00544 0.76213 0.04359 0.0
C3607 C 0.01496 0.76617 0.05645 0.0
H3608 H 0.23899 0.21685 0.94728 0.0
H3609 H 0.26318 0.23728 0.01394 0.0
H3610 H 0.22931 0.22383 0.96975 0.0
H3611 H 0.25331 0.24383 0.03748 0.0
H3612 H 0.22959 0.24734 0.09487 0.0
H3613 H 0.23726 0.23795 0.07553 0.0
H3614 H 0.23153 0.24134 0.96241 0.0
H3615 H 0.22399 0.25082 0.98173 0.0
C3616 C 0.24226 0.22279 0.96669 0.0
C3617 C 0.25191 0.2265 0.97863 0.0
C3618 C 0.23667 0.22672 0.97974 0.0
C3619 C 0.24056 0.2343 0.00547 0.0
C3620 C 0.25009 0.23786 0.01809 0.0
C3621 C 0.25573 0.23407 0.00462 0.0
C3622 C 0.22985 0.24592 0.06597 0.0
C3623 C 0.22629 0.24981 0.0397 0.0
C3624 C 0.23426 0.24061 0.05493 0.0
C3625 C 0.23498 0.23896 0.01753 0.0
C3626 C 0.23099 0.24246 0.99141 0.0
C3627 C 0.22675 0.24791 0.0024 0.0
H3628 H 0.77435 0.02856 0.02274 0.0
H3629 H 0.77263 0.01688 0.91436 0.0
H3630 H 0.76738 0.01228 0.04867 0.0
H3631 H 0.76562 0.00051 0.94039 0.0
H3632 H 0.7581 0.97276 0.00573 0.0
H3633 H 0.76831 0.98947 0.98334 0.0
H3634 H 0.75054 0.99829 0.04334 0.0
H3635 H 0.74045 0.98171 0.06557 0.0
C3636 C 0.77254 0.0225 0.00452 0.0
C3637 C 0.77385 0.02393 0.96649 0.0
C3638 C 0.76857 0.0132 0.01935 0.0
C3639 C 0.76584 0.00513 0.99649 0.0
C3640 C 0.76771 0.00662 0.95867 0.0
C3641 C 0.7717 0.01596 0.94377 0.0
C3642 C 0.75652 0.97835 0.01447 0.0
C3643 C 0.74852 0.97601 0.0373 0.0
C3644 C 0.76229 0.98785 0.0015 0.0
C3645 C 0.76023 0.99517 0.01168 0.0
C3646 C 0.75238 0.99284 0.03539 0.0
C3647 C 0.74656 0.98335 0.04792 0.0
H3648 H 0.63665 0.55853 0.36332 0.0
H3649 H 0.6461 0.56137 0.25071 0.0
H3650 H 0.65354 0.56645 0.38367 0.0
H3651 H 0.66296 0.56897 0.27112 0.0
H3652 H 0.69088 0.59451 0.31787 0.0
H3653 H 0.67409 0.58485 0.29792 0.0
H3654 H 0.66823 0.56491 0.38763 0.0
H3655 H 0.68516 0.57461 0.40765 0.0
C3656 C 0.64233 0.56077 0.34296 0.0
C3657 C 0.64006 0.55943 0.30539 0.0
C3658 C 0.65199 0.5652 0.35464 0.0
C3659 C 0.65958 0.56841 0.32897 0.0
C3660 C 0.65727 0.5667 0.29151 0.0
C3661 C 0.64761 0.56225 0.27983 0.0
C3662 C 0.68606 0.58799 0.33309 0.0
C3663 C 0.68937 0.58528 0.36418 0.0
C3664 C 0.67643 0.58245 0.32161 0.0
C3665 C 0.66986 0.57407 0.34098 0.0
C3666 C 0.67313 0.57137 0.37227 0.0
C3667 C 0.6828 0.57693 0.38377 0.0
H3668 H 0.43636 0.0865 0.24732 0.0
H3669 H 0.44194 0.08069 0.35773 0.0
H3670 H 0.42836 0.09501 0.2717 0.0
H3671 H 0.43437 0.08957 0.38197 0.0
H3672 H 0.40841 0.09393 0.40853 0.0
H3673 H 0.41805 0.08691 0.38655 0.0
H3674 H 0.43119 0.10951 0.30463 0.0
H3675 H 0.42147 0.11648 0.32651 0.0
C3676 C 0.43596 0.08711 0.27675 0.0
C3677 C 0.43978 0.0829 0.30054 0.0
C3678 C 0.43147 0.09208 0.29073 0.0
C3679 C 0.43071 0.09294 0.3288 0.0
C3680 C 0.43474 0.08894 0.35253 0.0
C3681 C 0.4392 0.08395 0.33858 0.0
C3682 C 0.41348 0.0975 0.38626 0.0
C3683 C 0.41415 0.10572 0.36913 0.0
C3684 C 0.41901 0.09347 0.37363 0.0
C3685 C 0.42535 0.09762 0.34369 0.0
C3686 C 0.42624 0.10604 0.32732 0.0
C3687 C 0.4207 0.11004 0.33989 0.0
H3688 H 0.90024 0.3157 0.41404 0.0
H3689 H 0.87884 0.30459 0.32729 0.0
H3690 H 0.9067 0.33211 0.39006 0.0
H3691 H 0.88547 0.32101 0.30292 0.0
H3692 H 0.91096 0.34834 0.24513 0.0
H3693 H 0.90149 0.33222 0.27255 0.0
H3694 H 0.9028 0.34537 0.37757 0.0
H3695 H 0.91237 0.3615 0.35024 0.0
C3696 C 0.89677 0.31677 0.39036 0.0
C3697 C 0.88909 0.30881 0.37235 0.0
C3698 C 0.90049 0.32618 0.37658 0.0
C3699 C 0.89664 0.32781 0.34443 0.0
C3700 C 0.88867 0.31993 0.32742 0.0
C3701 C 0.8849 0.31054 0.34135 0.0
C3702 C 0.90913 0.34777 0.27397 0.0
C3703 C 0.91242 0.35615 0.29558 0.0
C3704 C 0.90365 0.33856 0.2896 0.0
C3705 C 0.90144 0.33756 0.32722 0.0
C3706 C 0.90446 0.34594 0.34857 0.0
C3707 C 0.90986 0.35516 0.33286 0.0
H3708 H 0.69125 0.11918 0.3489 0.0
H3709 H 0.68656 0.09131 0.38601 0.0
H3710 H 0.67491 0.11124 0.32285 0.0
H3711 H 0.67012 0.08349 0.3619 0.0
H3712 H 0.6461 0.0707 0.27886 0.0
H3713 H 0.66255 0.07949 0.30279 0.0
H3714 H 0.6578 0.10276 0.33824 0.0
H3715 H 0.64146 0.09418 0.31235 0.0
C3716 C 0.68671 0.11138 0.35179 0.0
C3717 C 0.69024 0.10588 0.3694 0.0
C3718 C 0.67732 0.10684 0.33717 0.0
C3719 C 0.67125 0.09672 0.33995 0.0
C3720 C 0.67467 0.09128 0.35863 0.0
C3721 C 0.68406 0.09579 0.37304 0.0
C3722 C 0.64861 0.07778 0.29098 0.0
C3723 C 0.64244 0.08172 0.29368 0.0
C3724 C 0.658 0.08276 0.30529 0.0
C3725 C 0.66144 0.09176 0.32294 0.0
C3726 C 0.65539 0.09585 0.32473 0.0
C3727 C 0.64599 0.09089 0.31021 0.0
H3728 H 0.88085 0.57112 0.37336 0.0
H3729 H 0.90812 0.59589 0.40689 0.0
H3730 H 0.88962 0.56358 0.34745 0.0
H3731 H 0.9168 0.58809 0.38318 0.0
H3732 H 0.92999 0.57834 0.29442 0.0
H3733 H 0.92081 0.585 0.32371 0.0
H3734 H 0.8993 0.55616 0.35944 0.0
H3735 H 0.90842 0.54949 0.32914 0.0
C3736 C 0.8887 0.5749 0.37567 0.0
C3737 C 0.89378 0.58417 0.39188 0.0
C3738 C 0.89372 0.57052 0.36115 0.0
C3739 C 0.90393 0.57529 0.36276 0.0
C3740 C 0.90895 0.58431 0.38073 0.0
C3741 C 0.90395 0.58872 0.39494 0.0
C3742 C 0.92329 0.57344 0.30853 0.0
C3743 C 0.91991 0.56342 0.30955 0.0
C3744 C 0.91806 0.57725 0.32555 0.0
C3745 C 0.90937 0.57113 0.34435 0.0
C3746 C 0.90592 0.56106 0.34494 0.0
C3747 C 0.91112 0.55724 0.32759 0.0
H3748 H 0.44961 0.35948 0.32941 0.0
H3749 H 0.42137 0.35203 0.28663 0.0
H3750 H 0.44264 0.3434 0.35763 0.0
H3751 H 0.41442 0.33597 0.3143 0.0
H3752 H 0.40252 0.31237 0.39818 0.0
H3753 H 0.41063 0.32891 0.37486 0.0
H3754 H 0.43534 0.32614 0.34296 0.0
H3755 H 0.42741 0.3097 0.36807 0.0
C3756 C 0.44195 0.35435 0.32562 0.0
C3757 C 0.43601 0.357 0.30601 0.0
C3758 C 0.43795 0.34516 0.34183 0.0
C3759 C 0.42795 0.33846 0.33861 0.0
C3760 C 0.4221 0.34105 0.3181 0.0
C3761 C 0.42608 0.35022 0.30208 0.0
C3762 C 0.40979 0.31535 0.38709 0.0
C3763 C 0.4143 0.30969 0.38488 0.0
C3764 C 0.41437 0.32479 0.37316 0.0
C3765 C 0.42356 0.32878 0.35646 0.0
C3766 C 0.42827 0.32328 0.35567 0.0
C3767 C 0.42369 0.31383 0.36976 0.0
H3768 H 0.31506 0.89877 0.59128 0.0
H3769 H 0.30319 0.88121 0.68868 0.0
H3770 H 0.33141 0.90535 0.61622 0.0
H3771 H 0.31954 0.8881 0.71398 0.0
H3772 H 0.34766 0.91568 0.7605 0.0
H3773 H 0.3314 0.90577 0.73438 0.0
H3774 H 0.34391 0.90044 0.63828 0.0
H3775 H 0.36019 0.9103 0.66459 0.0
C3776 C 0.31593 0.89615 0.61762 0.0
C3777 C 0.30778 0.88956 0.63817 0.0
C3778 C 0.3253 0.89995 0.63193 0.0
C3779 C 0.3267 0.89729 0.66715 0.0
C3780 C 0.31863 0.89036 0.68696 0.0
C3781 C 0.30927 0.88647 0.6725 0.0
C3782 C 0.34689 0.91226 0.73405 0.0
C3783 C 0.35513 0.91372 0.71452 0.0
C3784 C 0.33762 0.90657 0.71922 0.0
C3785 C 0.33643 0.90237 0.68433 0.0
C3786 C 0.34466 0.90363 0.66517 0.0
C3787 C 0.35393 0.9092 0.6803 0.0
H3788 H 0.08787 0.44147 0.74348 0.0
H3789 H 0.07364 0.43564 0.638 0.0
H3790 H 0.09818 0.43528 0.72101 0.0
H3791 H 0.08349 0.42889 0.61634 0.0
H3792 H 0.10705 0.42297 0.57781 0.0
H3793 H 0.09925 0.43205 0.59876 0.0
H3794 H 0.09615 0.41977 0.70707 0.0
H3795 H 0.10413 0.41097 0.68633 0.0
C3796 C 0.08698 0.43893 0.71544 0.0
C3797 C 0.07984 0.43895 0.69271 0.0
C3798 C 0.09281 0.43527 0.70268 0.0
C3799 C 0.0916 0.43148 0.66698 0.0
C3800 C 0.08469 0.43181 0.64387 0.0
C3801 C 0.07892 0.43554 0.65652 0.0
C3802 C 0.10474 0.42229 0.60612 0.0
C3803 C 0.10622 0.41631 0.63048 0.0
C3804 C 0.10026 0.42746 0.61813 0.0
C3805 C 0.09707 0.42665 0.65464 0.0
C3806 C 0.09869 0.42075 0.679 0.0
C3807 C 0.10324 0.41567 0.66709 0.0
H3808 H 0.56254 0.63775 0.63458 0.0
H3809 H 0.55738 0.64621 0.74112 0.0
H3810 H 0.56945 0.65441 0.61338 0.0
H3811 H 0.56365 0.66273 0.7191 0.0
H3812 H 0.58777 0.69296 0.68441 0.0
H3813 H 0.57903 0.67615 0.70478 0.0
H3814 H 0.56652 0.66715 0.59666 0.0
H3815 H 0.57558 0.68405 0.57607 0.0
C3816 C 0.56281 0.64315 0.65344 0.0
C3817 C 0.55954 0.64065 0.68976 0.0
C3818 C 0.56663 0.65269 0.64106 0.0
C3819 C 0.56717 0.65995 0.66457 0.0
C3820 C 0.56352 0.65737 0.70043 0.0
C3821 C 0.55979 0.64785 0.71294 0.0
C3822 C 0.58304 0.6874 0.66515 0.0
C3823 C 0.58233 0.68979 0.62869 0.0
C3824 C 0.578 0.67775 0.67684 0.0
C3825 C 0.57203 0.67027 0.65242 0.0
C3826 C 0.57116 0.67271 0.61607 0.0
C3827 C 0.57631 0.68237 0.60426 0.0
H3828 H 0.35258 0.42108 0.70435 0.0
H3829 H 0.35897 0.44994 0.67369 0.0
H3830 H 0.33664 0.41425 0.67584 0.0
H3831 H 0.34304 0.4431 0.6443 0.0
H3832 H 0.30946 0.42723 0.63238 0.0
H3833 H 0.32586 0.43504 0.65761 0.0
H3834 H 0.32949 0.41155 0.61621 0.0
H3835 H 0.31296 0.40349 0.59299 0.0
C3836 C 0.35057 0.42595 0.69129 0.0
C3837 C 0.35699 0.43602 0.69114 0.0
C3838 C 0.34147 0.42205 0.67474 0.0
C3839 C 0.3386 0.42812 0.65736 0.0
C3840 C 0.34499 0.43823 0.65769 0.0
C3841 C 0.35409 0.44215 0.67453 0.0
C3842 C 0.31376 0.42374 0.62866 0.0
C3843 C 0.30984 0.41468 0.61097 0.0
C3844 C 0.32321 0.42827 0.6428 0.0
C3845 C 0.32894 0.42385 0.63939 0.0
C3846 C 0.32519 0.41505 0.62001 0.0
C3847 C 0.31575 0.4105 0.60613 0.0
H3848 H 0.57017 0.88112 0.62656 0.0
H3849 H 0.59594 0.90902 0.60864 0.0
H3850 H 0.56218 0.88925 0.6549 0.0
H3851 H 0.58787 0.91711 0.63574 0.0
H3852 H 0.57604 0.92706 0.72887 0.0
H3853 H 0.58297 0.91822 0.69872 0.0
H3854 H 0.55583 0.90048 0.64193 0.0
H3855 H 0.54888 0.90937 0.67209 0.0
C3856 C 0.57407 0.88898 0.62826 0.0
C3857 C 0.5837 0.89443 0.6155 0.0
C3858 C 0.56948 0.89363 0.64426 0.0
C3859 C 0.57445 0.9038 0.64795 0.0
C3860 C 0.58392 0.90925 0.63384 0.0
C3861 C 0.58849 0.90462 0.61781 0.0
C3862 C 0.57155 0.92127 0.70996 0.0
C3863 C 0.56194 0.91895 0.70268 0.0
C3864 C 0.57553 0.91623 0.69261 0.0
C3865 C 0.56998 0.90875 0.66758 0.0
C3866 C 0.56026 0.90619 0.66121 0.0
C3867 C 0.55628 0.91125 0.67857 0.0
H3868 H 0.08915 0.63913 0.67369 0.0
H3869 H 0.07017 0.64804 0.7235 0.0
H3870 H 0.09828 0.65501 0.64394 0.0
H3871 H 0.07925 0.66386 0.69394 0.0
H3872 H 0.08961 0.68632 0.60524 0.0
H3873 H 0.08132 0.67006 0.63128 0.0
H3874 H 0.10903 0.67255 0.6572 0.0
H3875 H 0.11738 0.68876 0.62974 0.0
C3876 C 0.08704 0.64453 0.67874 0.0
C3877 C 0.07892 0.64234 0.70074 0.0
C3878 C 0.09223 0.6536 0.66161 0.0
C3879 C 0.08939 0.66062 0.66617 0.0
C3880 C 0.08147 0.65851 0.68916 0.0
C3881 C 0.0763 0.64948 0.70622 0.0
C3882 C 0.09396 0.68333 0.61562 0.0
C3883 C 0.10416 0.68885 0.61549 0.0
C3884 C 0.0892 0.67406 0.63107 0.0
C3885 C 0.09452 0.67009 0.64685 0.0
C3886 C 0.10473 0.67542 0.64526 0.0
C3887 C 0.1095 0.68472 0.62978 0.0
H3888 H 0.10507 0.35822 0.78925 0.0
H3889 H 0.09878 0.33273 0.72593 0.0
H3890 H 0.09929 0.3483 0.84443 0.0
H3891 H 0.0934 0.32289 0.78145 0.0
H3892 H 0.07503 0.30659 0.88117 0.0
H3893 H 0.08023 0.31652 0.82581 0.0
H3894 H 0.1042 0.33952 0.8855 0.0
H3895 H 0.09897 0.3296 0.94086 0.0
C3896 C 0.10242 0.35049 0.78706 0.0
C3897 C 0.10236 0.34626 0.75313 0.0
C3898 C 0.09922 0.34483 0.81879 0.0
C3899 C 0.0959 0.33481 0.81737 0.0
C3900 C 0.09581 0.33057 0.78343 0.0
C3901 C 0.099 0.33623 0.75168 0.0
C3902 C 0.08144 0.31375 0.8824 0.0
C3903 C 0.08659 0.31731 0.91539 0.0
C3904 C 0.08442 0.31944 0.85068 0.0
C3905 C 0.09263 0.32881 0.85122 0.0
C3906 C 0.09775 0.33239 0.88428 0.0
C3907 C 0.09476 0.32671 0.91601 0.0
H3908 H 0.68685 0.78703 0.89413 0.0
H3909 H 0.67352 0.75687 0.92636 0.0
H3910 H 0.67722 0.78225 0.83802 0.0
H3911 H 0.66364 0.75212 0.87086 0.0
H3912 H 0.6555 0.74667 0.74919 0.0
H3913 H 0.66545 0.75149 0.80453 0.0
H3914 H 0.66033 0.77557 0.81895 0.0
H3915 H 0.65038 0.77074 0.76368 0.0
C3916 C 0.68188 0.77938 0.88919 0.0
C3917 C 0.68096 0.77232 0.91466 0.0
C3918 C 0.67629 0.77665 0.85724 0.0
C3919 C 0.66966 0.7668 0.85001 0.0
C3920 C 0.66875 0.75975 0.87545 0.0
C3921 C 0.67433 0.76248 0.90744 0.0
C3922 C 0.65645 0.75295 0.76431 0.0
C3923 C 0.65216 0.75833 0.75201 0.0
C3924 C 0.66215 0.75571 0.79602 0.0
C3925 C 0.66368 0.76391 0.81613 0.0
C3926 C 0.65941 0.7693 0.80376 0.0
C3927 C 0.65372 0.76654 0.77207 0.0
H3928 H 0.20918 0.89818 0.88738 0.0
H3929 H 0.2372 0.90722 0.93644 0.0
H3930 H 0.21453 0.89407 0.83093 0.0
H3931 H 0.24253 0.90306 0.88006 0.0
H3932 H 0.24483 0.885 0.78686 0.0
H3933 H 0.23924 0.88879 0.84341 0.0
H3934 H 0.22613 0.90234 0.78077 0.0
H3935 H 0.23144 0.89826 0.72405 0.0
C3936 C 0.21649 0.89933 0.88606 0.0
C3937 C 0.22276 0.90303 0.9164 0.0
C3938 C 0.21956 0.89699 0.85372 0.0
C3939 C 0.22896 0.89826 0.85103 0.0
C3940 C 0.2352 0.90187 0.88146 0.0
C3941 C 0.23214 0.90424 0.91378 0.0
C3942 C 0.24067 0.88871 0.78513 0.0
C3943 C 0.23854 0.89131 0.75097 0.0
C3944 C 0.23756 0.89097 0.81755 0.0
C3945 C 0.23225 0.89586 0.81655 0.0
C3946 C 0.23013 0.89847 0.7824 0.0
C3947 C 0.23326 0.89623 0.74995 0.0
H3948 H 0.32348 0.08406 0.07931 0.0
H3949 H 0.31094 0.10188 0.10755 0.0
H3950 H 0.33312 0.08917 0.13534 0.0
H3951 H 0.32057 0.10697 0.16368 0.0
H3952 H 0.34686 0.12144 0.24111 0.0
H3953 H 0.33736 0.1166 0.18463 0.0
H3954 H 0.33077 0.08698 0.20127 0.0
H3955 H 0.34057 0.09188 0.25687 0.0
C3956 C 0.32274 0.08902 0.09762 0.0
C3957 C 0.31644 0.09255 0.08904 0.0
C3958 C 0.32825 0.09194 0.12973 0.0
C3959 C 0.32758 0.09845 0.15402 0.0
C3960 C 0.32134 0.10205 0.1453 0.0
C3961 C 0.31583 0.09913 0.11314 0.0
C3962 C 0.34344 0.11391 0.23254 0.0
C3963 C 0.34448 0.10705 0.25343 0.0
C3964 C 0.33792 0.11112 0.20041 0.0
C3965 C 0.33333 0.10141 0.18844 0.0
C3966 C 0.33431 0.09454 0.2095 0.0
C3967 C 0.33983 0.09733 0.24162 0.0
H3968 H 0.90934 0.24943 0.25937 0.0
H3969 H 0.87914 0.23317 0.2272 0.0
H3970 H 0.91398 0.24487 0.20211 0.0
H3971 H 0.88375 0.2284 0.17045 0.0
H3972 H 0.89677 0.23093 0.05604 0.0
H3973 H 0.8924 0.23595 0.11273 0.0
H3974 H 0.91233 0.23007 0.17285 0.0
H3975 H 0.91663 0.22495 0.11634 0.0
C3976 C 0.9037 0.24489 0.24005 0.0
C3977 C 0.89388 0.24165 0.24779 0.0
C3978 C 0.90635 0.24221 0.20744 0.0
C3979 C 0.89923 0.23628 0.1818 0.0
C3980 C 0.88941 0.23306 0.18951 0.0
C3981 C 0.88676 0.23569 0.22219 0.0
C3982 C 0.90017 0.23064 0.08138 0.0
C3983 C 0.90704 0.22752 0.08164 0.0
C3984 C 0.89767 0.23353 0.11383 0.0
C3985 C 0.90201 0.2334 0.14723 0.0
C3986 C 0.90895 0.23038 0.14746 0.0
C3987 C 0.91143 0.22746 0.11505 0.0
H3988 H 0.77617 0.65759 0.25638 0.0
H3989 H 0.74715 0.65311 0.24452 0.0
H3990 H 0.78102 0.66703 0.19943 0.0
H3991 H 0.752 0.66253 0.18769 0.0
H3992 H 0.76179 0.66897 0.06641 0.0
H3993 H 0.7573 0.65998 0.12396 0.0
H3994 H 0.78277 0.68319 0.17583 0.0
H3995 H 0.78712 0.69242 0.11874 0.0
C3996 C 0.77085 0.65865 0.2416 0.0
C3997 C 0.76129 0.65465 0.25479 0.0
C3998 C 0.77363 0.66407 0.20922 0.0
C3999 C 0.76686 0.66546 0.1892 0.0
C4000 C 0.75733 0.66149 0.20249 0.0
C4001 C 0.75458 0.65619 0.23511 0.0
C4002 C 0.76638 0.67224 0.09012 0.0
C4003 C 0.7748 0.68146 0.08784 0.0
C4004 C 0.76382 0.66706 0.12303 0.0
C4005 C 0.76968 0.67092 0.15427 0.0
C4006 C 0.77818 0.68003 0.152 0.0
C4007 C 0.78068 0.68528 0.11921 0.0
H4008 H 0.89657 0.68497 0.10671 0.0
H4009 H 0.91658 0.6751 0.07752 0.0
H4010 H 0.89177 0.67474 0.16114 0.0
H4011 H 0.9118 0.66488 0.1323 0.0
H4012 H 0.90739 0.65581 0.25479 0.0
H4013 H 0.91268 0.66607 0.20016 0.0
H4014 H 0.88281 0.65727 0.17529 0.0
H4015 H 0.8775 0.64697 0.22952 0.0
C4016 C 0.8999 0.68056 0.11177 0.0
C4017 C 0.9069 0.68079 0.0876 0.0
C4018 C 0.89715 0.67471 0.14299 0.0
C4019 C 0.90135 0.66895 0.15087 0.0
C4020 C 0.90849 0.6693 0.12711 0.0
C4021 C 0.91123 0.67516 0.09577 0.0
C4022 C 0.90194 0.65599 0.23745 0.0
C4023 C 0.89202 0.65061 0.24668 0.0
C4024 C 0.90498 0.66187 0.20619 0.0
C4025 C 0.89817 0.66253 0.18356 0.0
C4026 C 0.88825 0.65706 0.19256 0.0
C4027 C 0.88521 0.65117 0.22369 0.0
H4028 H 0.3214 0.24011 0.07605 0.0
H4029 H 0.3184 0.21173 0.08851 0.0
H4030 H 0.33146 0.24567 0.13173 0.0
H4031 H 0.32823 0.21718 0.14471 0.0
H4032 H 0.33493 0.22923 0.26636 0.0
H4033 H 0.32531 0.22394 0.21031 0.0
H4034 H 0.34897 0.24698 0.15018 0.0
H4035 H 0.35893 0.25198 0.20546 0.0
C4036 C 0.32292 0.2351 0.09083 0.0
C4037 C 0.31921 0.22554 0.07835 0.0
C4038 C 0.32865 0.23826 0.12245 0.0
C4039 C 0.33056 0.23182 0.14233 0.0
C4040 C 0.32679 0.22224 0.12985 0.0
C4041 C 0.32123 0.21914 0.09783 0.0
C4042 C 0.3382 0.2331 0.24119 0.0
C4043 C 0.34778 0.24102 0.24068 0.0
C4044 C 0.33264 0.23009 0.20919 0.0
C4045 C 0.33643 0.23507 0.17616 0.0
C4046 C 0.34589 0.24309 0.17551 0.0
C4047 C 0.35155 0.24598 0.20733 0.0
H4048 H 0.78616 0.0935 0.11772 0.0
H4049 H 0.76166 0.09169 0.05909 0.0
H4050 H 0.78122 0.09864 0.17262 0.0
H4051 H 0.75644 0.09634 0.11444 0.0
H4052 H 0.75576 0.11491 0.20835 0.0
H4053 H 0.76101 0.11014 0.1533 0.0
H4054 H 0.76874 0.09235 0.21894 0.0
H4055 H 0.76361 0.09726 0.27408 0.0
C4056 C 0.77973 0.09422 0.11649 0.0
C4057 C 0.77431 0.09219 0.08393 0.0
C4058 C 0.77682 0.09704 0.14813 0.0
C4059 C 0.76842 0.09788 0.148 0.0
C4060 C 0.76302 0.09587 0.11543 0.0
C4061 C 0.76594 0.09308 0.08378 0.0
C4062 C 0.75851 0.10992 0.21096 0.0
C4063 C 0.75926 0.10644 0.24552 0.0
C4064 C 0.76152 0.10718 0.17942 0.0
C4065 C 0.76529 0.10085 0.18166 0.0
C4066 C 0.76602 0.09736 0.21627 0.0
C4067 C 0.76306 0.10015 0.24786 0.0
H4068 H 0.65201 0.8798 0.752 0.0
H4069 H 0.65068 0.90629 0.75549 0.0
H4070 H 0.66192 0.88472 0.80735 0.0
H4071 H 0.66074 0.91132 0.81059 0.0
H4072 H 0.67038 0.91236 0.92956 0.0
H4073 H 0.66029 0.9074 0.87456 0.0
H4074 H 0.67793 0.89636 0.82822 0.0
H4075 H 0.6879 0.90119 0.8834 0.0
C4076 C 0.65393 0.88672 0.76443 0.0
C4077 C 0.65059 0.89267 0.7494 0.0
C4078 C 0.65962 0.88956 0.79612 0.0
C4079 C 0.66215 0.89843 0.8134 0.0
C4080 C 0.6588 0.90437 0.79832 0.0
C4081 C 0.65306 0.90151 0.76672 0.0
C4082 C 0.67212 0.90891 0.90751 0.0
C4083 C 0.67991 0.90714 0.91084 0.0
C4084 C 0.66636 0.90609 0.87596 0.0
C4085 C 0.66829 0.90147 0.84696 0.0
C4086 C 0.67612 0.89974 0.85028 0.0
C4087 C 0.68185 0.90252 0.88189 0.0
H4088 H 0.11924 0.76825 0.76826 0.0
H4089 H 0.08978 0.74515 0.74987 0.0
H4090 H 0.11404 0.77291 0.82416 0.0
H4091 H 0.08454 0.74992 0.80555 0.0
H4092 H 0.0797 0.77162 0.87989 0.0
H4093 H 0.08428 0.7659 0.82556 0.0
H4094 H 0.10656 0.76427 0.88755 0.0
H4095 H 0.10172 0.76952 0.9425 0.0
C4096 C 0.11165 0.76421 0.77618 0.0
C4097 C 0.10489 0.75636 0.75491 0.0
C4098 C 0.1087 0.76683 0.80817 0.0
C4099 C 0.09891 0.76175 0.81902 0.0
C4100 C 0.09213 0.75395 0.7976 0.0
C4101 C 0.09512 0.7512 0.76597 0.0
C4102 C 0.08544 0.76987 0.88229 0.0
C4103 C 0.09035 0.77108 0.91574 0.0
C4104 C 0.08808 0.76663 0.85107 0.0
C4105 C 0.09579 0.7647 0.85246 0.0
C4106 C 0.10066 0.76583 0.88576 0.0
C4107 C 0.09792 0.7689 0.91713 0.0
H4108 H 0.22631 0.32995 0.93585 0.0
H4109 H 0.2327 0.30903 0.88653 0.0
H4110 H 0.23191 0.33984 0.88061 0.0
H4111 H 0.23876 0.31917 0.83192 0.0
H4112 H 0.23709 0.33355 0.72496 0.0
H4113 H 0.23237 0.32386 0.7808 0.0
H4114 H 0.24631 0.35014 0.84562 0.0
H4115 H 0.25061 0.35984 0.78985 0.0
C4116 C 0.22894 0.32748 0.91327 0.0
C4117 C 0.22899 0.31867 0.91556 0.0
C4118 C 0.23228 0.33321 0.88176 0.0
C4119 C 0.23578 0.3303 0.85179 0.0
C4120 C 0.236 0.32157 0.85432 0.0
C4121 C 0.23264 0.31582 0.88583 0.0
C4122 C 0.23909 0.33727 0.75113 0.0
C4123 C 0.24418 0.34748 0.75289 0.0
C4124 C 0.23649 0.3317 0.78315 0.0
C4125 C 0.23895 0.33622 0.81772 0.0
C4126 C 0.2442 0.34643 0.81946 0.0
C4127 C 0.24677 0.35199 0.78744 0.0
H4128 H 0.01696 0.42976 0.56211 0.0
H4129 H 0.0059 0.44909 0.58586 0.0
H4130 H 0.00733 0.42455 0.50586 0.0
H4131 H 0.99628 0.44391 0.5294 0.0
H4132 H 0.97214 0.42257 0.44951 0.0
H4133 H 0.98193 0.42828 0.5051 0.0
H4134 H 0.00703 0.43214 0.44498 0.0
H4135 H 0.99736 0.42672 0.389 0.0
C4136 C 0.01244 0.43286 0.55532 0.0
C4137 C 0.01215 0.4398 0.57832 0.0
C4138 C 0.007 0.42995 0.52303 0.0
C4139 C 0.00108 0.43384 0.51332 0.0
C4140 C 0.00075 0.44075 0.53639 0.0
C4141 C 0.00629 0.44376 0.56849 0.0
C4142 C 0.97978 0.42478 0.44792 0.0
C4143 C 0.98395 0.42419 0.41468 0.0
C4144 C 0.98537 0.42801 0.47982 0.0
C4145 C 0.99522 0.43063 0.4793 0.0
C4146 C -0.00059 0.43005 0.4462 0.0
C4147 C 0.99385 0.42691 0.4142 0.0
H4148 H 0.55326 0.54412 0.40993 0.0
H4149 H 0.58324 0.56458 0.43588 0.0
H4150 H 0.54818 0.54815 0.46754 0.0
H4151 H 0.57817 0.56871 0.49296 0.0
H4152 H 0.56636 0.56621 0.60881 0.0
H4153 H 0.57079 0.56099 0.55277 0.0
H4154 H 0.54799 0.56259 0.49429 0.0
H4155 H 0.54365 0.56798 0.55009 0.0
C4156 C 0.55875 0.54945 0.42802 0.0
C4157 C 0.56864 0.55407 0.4184 0.0
C4158 C 0.55584 0.5518 0.46079 0.0
C4159 C 0.56278 0.55873 0.48472 0.0
C4160 C 0.57267 0.56327 0.47524 0.0
C4161 C 0.57556 0.56098 0.44239 0.0
C4162 C 0.56232 0.5655 0.58397 0.0
C4163 C 0.55468 0.56757 0.58393 0.0
C4164 C 0.56484 0.56249 0.55192 0.0
C4165 C 0.55975 0.56142 0.51916 0.0
C4166 C 0.55197 0.56325 0.51925 0.0
C4167 C 0.54947 0.56632 0.55126 0.0
H4168 H 0.43082 0.97882 0.56316 0.0
H4169 H 0.41394 0.99218 0.59443 0.0
H4170 H 0.43602 0.98862 0.50769 0.0
H4171 H 0.41953 0.00235 0.53973 0.0
H4172 H 0.42282 0.01093 0.41843 0.0
H4173 H 0.41748 0.0011 0.47406 0.0
H4174 H 0.44629 0.0051 0.48786 0.0
H4175 H 0.45156 0.0148 0.43199 0.0
C4176 C 0.42821 0.98385 0.55818 0.0
C4177 C 0.42191 0.98467 0.58315 0.0
C4178 C 0.4313 0.98956 0.52659 0.0
C4179 C 0.4282 0.99628 0.51924 0.0
C4180 C 0.42196 0.99716 0.54433 0.0
C4181 C 0.41885 0.99142 0.57592 0.0
C4182 C 0.42801 0.00974 0.43349 0.0
C4183 C 0.4376 0.0136 0.4208 0.0
C4184 C 0.42496 0.00413 0.46541 0.0
C4185 C 0.43145 0.00231 0.48544 0.0
C4186 C 0.44106 0.00622 0.47277 0.0
C4187 C 0.44408 0.01178 0.44076 0.0
H4188 H 0.56773 0.97889 0.56376 0.0
H4189 H 0.5521 0.9932 0.59975 0.0
H4190 H 0.57273 0.9888 0.50839 0.0
H4191 H 0.55707 0.00308 0.54423 0.0
H4192 H 0.55898 0.01101 0.4225 0.0
H4193 H 0.55408 0.00109 0.47792 0.0
H4194 H 0.58319 0.00576 0.48928 0.0
H4195 H 0.58801 0.01542 0.43318 0.0
C4196 C 0.56544 0.98422 0.56005 0.0
C4197 C 0.55952 0.98527 0.5862 0.0
C4198 C 0.5683 0.98989 0.52829 0.0
C4199 C 0.56529 0.99671 0.52193 0.0
C4200 C 0.55939 0.99778 0.5481 0.0
C4201 C 0.55655 0.99212 0.57989 0.0
C4202 C 0.5643 0.00984 0.43664 0.0
C4203 C 0.57388 0.01398 0.42344 0.0
C4204 C 0.56153 0.00425 0.4686 0.0
C4205 C 0.56826 0.00267 0.48802 0.0
C4206 C 0.57782 0.00678 0.47476 0.0
C4207 C 0.58061 0.0124 0.44285 0.0
H4208 H 0.98475 0.57278 0.42389 0.0
H4209 H 0.99068 0.5493 0.40643 0.0
H4210 H 0.99461 0.57741 0.47935 0.0
H4211 H 0.0008 0.55418 0.46133 0.0
H4212 H 0.02615 0.57336 0.54132 0.0
H4213 H 0.0166 0.5687 0.48493 0.0
H4214 H 0.99315 0.56949 0.54163 0.0
H4215 H 0.0025 0.57382 0.59832 0.0
C4216 C 0.98812 0.56858 0.43186 0.0
C4217 C 0.98684 0.56061 0.41075 0.0
C4218 C 0.9938 0.57127 0.46357 0.0
C4219 C 0.99843 0.56612 0.47465 0.0
C4220 C 0.99737 0.55832 0.45319 0.0
C4221 C 0.9916 0.55555 0.42167 0.0
C4222 C 0.0189 0.57241 0.54197 0.0
C4223 C 0.01511 0.57399 0.57445 0.0
C4224 C 0.01347 0.56978 0.50961 0.0
C4225 C 0.00417 0.56879 0.50894 0.0
C4226 C 0.00036 0.57035 0.54129 0.0
C4227 C 0.00574 0.57286 0.57372 0.0
H4228 H 0.42546 0.41804 0.41027 0.0
H4229 H 0.45555 0.43582 0.44224 0.0
H4230 H 0.4204 0.42257 0.46648 0.0
H4231 H 0.4505 0.44064 0.49775 0.0
H4232 H 0.43743 0.43846 0.6116 0.0
H4233 H 0.44235 0.43362 0.55581 0.0
H4234 H 0.42082 0.43674 0.49433 0.0
H4235 H 0.4159 0.44159 0.55004 0.0
C4236 C 0.43099 0.42292 0.4293 0.0
C4237 C 0.4409 0.42656 0.4218 0.0
C4238 C 0.4281 0.42559 0.46132 0.0
C4239 C 0.43505 0.43197 0.48658 0.0
C4240 C 0.44496 0.43563 0.47904 0.0
C4241 C 0.44786 0.43296 0.447 0.0
C4242 C 0.43379 0.43818 0.58613 0.0
C4243 C 0.42627 0.44042 0.58527 0.0
C4244 C 0.43662 0.43541 0.55417 0.0
C4245 C 0.43198 0.43481 0.52064 0.0
C4246 C 0.42443 0.43699 0.51982 0.0
C4247 C 0.42162 0.43977 0.55176 0.0
H4248 H 0.09773 0.31481 0.27546 0.0
H4249 H 0.0744 0.32064 0.25233 0.0
H4250 H 0.10299 0.32629 0.3262 0.0
H4251 H 0.07948 0.3318 0.30439 0.0
H4252 H 0.08725 0.34212 0.42846 0.0
H4253 H 0.08119 0.33095 0.37646 0.0
H4254 H 0.10994 0.34513 0.32922 0.0
H4255 H 0.11597 0.35659 0.38006 0.0
C4256 C 0.09373 0.31854 0.28102 0.0
C4257 C 0.08569 0.31685 0.25937 0.0
C4258 C 0.09672 0.32508 0.31024 0.0
C4259 C 0.09167 0.32996 0.31894 0.0
C4260 C 0.08346 0.32808 0.29826 0.0
C4261 C 0.08054 0.32164 0.26859 0.0
C4262 C 0.09225 0.34302 0.40666 0.0
C4263 C 0.10214 0.35024 0.40874 0.0
C4264 C 0.08878 0.33657 0.37702 0.0
C4265 C 0.09513 0.33713 0.34916 0.0
C4266 C 0.10493 0.34445 0.35072 0.0
C4267 C 0.10838 0.35098 0.37998 0.0
H4268 H 0.66109 0.763 0.43644 0.0
H4269 H 0.63933 0.73719 0.38131 0.0
H4270 H 0.67182 0.76705 0.38327 0.0
H4271 H 0.65004 0.74132 0.32771 0.0
H4272 H 0.66702 0.76255 0.22829 0.0
H4273 H 0.6565 0.75615 0.28216 0.0
H4274 H 0.68091 0.75974 0.34646 0.0
H4275 H 0.69142 0.76604 0.29232 0.0
C4276 C 0.65865 0.75818 0.41295 0.0
C4277 C 0.6494 0.74982 0.41274 0.0
C4278 C 0.6648 0.76045 0.38273 0.0
C4279 C 0.66174 0.75449 0.35151 0.0
C4280 C 0.65254 0.74603 0.35149 0.0
C4281 C 0.64646 0.74366 0.38206 0.0
C4282 C 0.67009 0.76188 0.25388 0.0
C4283 C 0.68001 0.76481 0.25634 0.0
C4284 C 0.66408 0.75816 0.28455 0.0
C4285 C 0.66791 0.75747 0.31834 0.0
C4286 C 0.6778 0.76023 0.32067 0.0
C4287 C 0.68378 0.76379 0.28979 0.0
H4288 H 0.23488 0.90227 0.22774 0.0
H4289 H 0.23781 0.92787 0.28103 0.0
H4290 H 0.24208 0.89896 0.28109 0.0
H4291 H 0.24502 0.92455 0.33462 0.0
H4292 H 0.24112 0.90423 0.43589 0.0
H4293 H 0.23743 0.91067 0.38122 0.0
H4294 H 0.25778 0.9059 0.31878 0.0
H4295 H 0.26152 0.89949 0.37381 0.0
C4296 C 0.23716 0.90724 0.25078 0.0
C4297 C 0.23573 0.91528 0.25047 0.0
C4298 C 0.24135 0.9054 0.28113 0.0
C4299 C 0.24409 0.9115 0.31196 0.0
C4300 C 0.24293 0.91972 0.31122 0.0
C4301 C 0.23886 0.92164 0.28059 0.0
C4302 C 0.24489 0.90469 0.41056 0.0
C4303 C 0.25155 0.90132 0.40887 0.0
C4304 C 0.24284 0.90843 0.3794 0.0
C4305 C 0.2473 0.90876 0.34579 0.0
C4306 C 0.25421 0.90568 0.34436 0.0
C4307 C 0.25638 0.90207 0.37576 0.0
H4308 H 0.3574 0.09848 0.62577 0.0
H4309 H 0.33464 0.09762 0.55858 0.0
H4310 H 0.34617 0.09217 0.67778 0.0
H4311 H 0.32329 0.09092 0.60962 0.0
H4312 H 0.3104 0.09309 0.71755 0.0
H4313 H 0.32088 0.09715 0.66453 0.0
H4314 H 0.33196 0.07899 0.70528 0.0
H4315 H 0.32181 0.07538 0.75988 0.0
C4316 C 0.34993 0.09674 0.62204 0.0
C4317 C 0.34688 0.09864 0.58852 0.0
C4318 C 0.34348 0.09308 0.65169 0.0
C4319 C 0.33384 0.09117 0.6481 0.0
C4320 C 0.33071 0.09257 0.61375 0.0
C4321 C 0.33718 0.09634 0.58442 0.0
C4322 C 0.31512 0.09002 0.71546 0.0
C4323 C 0.31533 0.084 0.74325 0.0
C4324 C 0.32104 0.09222 0.68465 0.0
C4325 C 0.32726 0.08837 0.68043 0.0
C4326 C 0.32733 0.08216 0.7078 0.0
C4327 C 0.32142 0.08 0.73889 0.0
H4328 H 0.90572 0.23847 0.77418 0.0
H4329 H 0.92749 0.23587 0.71227 0.0
H4330 H 0.90203 0.24523 0.7205 0.0
H4331 H 0.92385 0.24273 0.65851 0.0
H4332 H 0.90197 0.23921 0.56486 0.0
H4333 H 0.90895 0.23578 0.61844 0.0
H4334 H 0.9089 0.25945 0.67657 0.0
H4335 H 0.90186 0.26287 0.62268 0.0
C4336 C 0.90979 0.23946 0.74917 0.0
C4337 C 0.91682 0.23656 0.74723 0.0
C4338 C 0.90775 0.24341 0.71857 0.0
C4339 C 0.91263 0.24447 0.68531 0.0
C4340 C 0.91994 0.24193 0.68377 0.0
C4341 C 0.92205 0.23806 0.71453 0.0
C4342 C 0.90354 0.24373 0.58899 0.0
C4343 C 0.90131 0.25125 0.58983 0.0
C4344 C 0.90761 0.24183 0.61952 0.0
C4345 C 0.90946 0.24734 0.65168 0.0
C4346 C 0.90751 0.25506 0.65217 0.0
C4347 C 0.90353 0.25705 0.62137 0.0
H4348 H 0.75103 0.67899 0.7473 0.0
H4349 H 0.77862 0.68007 0.735 0.0
H4350 H 0.74453 0.6677 0.69536 0.0
H4351 H 0.77213 0.6688 0.68385 0.0
H4352 H 0.75491 0.64037 0.625 0.0
H4353 H 0.75971 0.65129 0.6774 0.0
H4354 H 0.74698 0.66689 0.62668 0.0
H4355 H 0.74222 0.65596 0.57377 0.0
C4356 C 0.75573 0.6769 0.73334 0.0
C4357 C 0.7653 0.68031 0.74559 0.0
C4358 C 0.752 0.67043 0.70372 0.0
C4359 C 0.75778 0.66725 0.68602 0.0
C4360 C 0.76743 0.67092 0.69756 0.0
C4361 C 0.77114 0.67738 0.72689 0.0
C4362 C 0.75311 0.64611 0.62501 0.0
C4363 C 0.74832 0.64739 0.59499 0.0
C4364 C 0.75586 0.65236 0.65501 0.0
C4365 C 0.75386 0.66004 0.65582 0.0
C4366 C 0.7486 0.66102 0.62678 0.0
C4367 C 0.74586 0.65476 0.59657 0.0
H4368 H 0.89683 0.64121 0.62313 0.0
H4369 H 0.89732 0.66398 0.55729 0.0
H4370 H 0.90288 0.65219 0.67567 0.0
H4371 H 0.90394 0.67521 0.60876 0.0
H4372 H 0.90404 0.6892 0.71649 0.0
H4373 H 0.89912 0.67858 0.66377 0.0
H4374 H 0.91571 0.66565 0.70387 0.0
H4375 H 0.91989 0.67568 0.75855 0.0
C4376 C 0.89842 0.64864 0.61987 0.0
C4377 C 0.89655 0.65177 0.58648 0.0
C4378 C 0.90195 0.65497 0.64984 0.0
C4379 C 0.90385 0.66462 0.64676 0.0
C4380 C 0.90232 0.66779 0.61265 0.0
C4381 C 0.89861 0.6614 0.583 0.0
C4382 C 0.90653 0.684 0.7145 0.0
C4383 C 0.91228 0.68327 0.74225 0.0
C4384 C 0.90385 0.678 0.68371 0.0
C4385 C 0.90702 0.67122 0.67924 0.0
C4386 C 0.91299 0.67066 0.7065 0.0
C4387 C 0.91553 0.67655 0.7377 0.0
H4388 H 0.31036 0.23648 0.71733 0.0
H4389 H 0.32231 0.21837 0.74885 0.0
H4390 H 0.32132 0.24237 0.66452 0.0
H4391 H 0.33312 0.22412 0.69589 0.0
H4392 H 0.35835 0.24502 0.62232 0.0
H4393 H 0.34745 0.23964 0.67497 0.0
H4394 H 0.32377 0.23575 0.60537 0.0
H4395 H 0.3346 0.24093 0.55244 0.0
C4396 C 0.31532 0.23377 0.71296 0.0
C4397 C 0.31546 0.22695 0.73714 0.0
C4398 C 0.32154 0.23708 0.68263 0.0
C4399 C 0.32809 0.23372 0.67616 0.0
C4400 C 0.32822 0.22691 0.70038 0.0
C4401 C 0.32196 0.22354 0.73047 0.0
C4402 C 0.3508 0.24294 0.61811 0.0
C4403 C 0.34736 0.24337 0.58306 0.0
C4404 C 0.34457 0.23988 0.64832 0.0
C4405 C 0.33476 0.23725 0.64424 0.0
C4406 C 0.33133 0.23784 0.60939 0.0
C4407 C 0.33755 0.24083 0.5791 0.0
H4408 H 0.78307 0.09585 0.71798 0.0
H4409 H 0.75355 0.07933 0.75751 0.0
H4410 H 0.77748 0.10103 0.66502 0.0
H4411 H 0.74793 0.08468 0.70484 0.0
H4412 H 0.74045 0.08888 0.5873 0.0
H4413 H 0.74575 0.08309 0.63944 0.0
H4414 H 0.77125 0.11154 0.65055 0.0
H4415 H 0.76624 0.11715 0.59733 0.0
C4416 C 0.77539 0.09339 0.71542 0.0
C4417 C 0.76875 0.08723 0.74193 0.0
C4418 C 0.77218 0.09638 0.68515 0.0
C4419 C 0.76226 0.09335 0.6808 0.0
C4420 C 0.7556 0.08707 0.7071 0.0
C4421 C 0.75881 0.08401 0.7373 0.0
C4422 C 0.74723 0.09387 0.60069 0.0
C4423 C 0.75292 0.10348 0.58807 0.0
C4424 C 0.75021 0.09058 0.63086 0.0
C4425 C 0.75895 0.09684 0.64915 0.0
C4426 C 0.76456 0.10648 0.63679 0.0
C4427 C 0.76161 0.10974 0.60658 0.0
H4428 H 0.69134 0.90884 0.28849 0.0
H4429 H 0.67193 0.91573 0.2298 0.0
H4430 H 0.68039 0.90359 0.34109 0.0
H4431 H 0.66111 0.91073 0.28281 0.0
H4432 H 0.63902 0.88984 0.36785 0.0
H4433 H 0.65004 0.89557 0.31542 0.0
H4434 H 0.67453 0.91033 0.38877 0.0
H4435 H 0.66353 0.90438 0.4412 0.0
C4436 C 0.68474 0.90925 0.28686 0.0
C4437 C 0.68249 0.91269 0.25496 0.0
C4438 C 0.67852 0.90633 0.31712 0.0
C4439 C 0.66988 0.90674 0.31611 0.0
C4440 C 0.66766 0.91025 0.2843 0.0
C4441 C 0.67391 0.91321 0.2541 0.0
C4442 C 0.64676 0.89427 0.37275 0.0
C4443 C 0.6504 0.89665 0.40866 0.0
C4444 C 0.65306 0.89763 0.34273 0.0
C4445 C 0.66316 0.9034 0.34796 0.0
C4446 C 0.66679 0.90583 0.38386 0.0
C4447 C 0.66049 0.9025 0.41386 0.0
H4448 H 0.09343 0.75843 0.445 0.0
H4449 H 0.10988 0.75044 0.37296 0.0
H4450 H 0.08731 0.76312 0.39211 0.0
H4451 H 0.10402 0.75544 0.32015 0.0
H4452 H 0.084 0.75614 0.23192 0.0
H4453 H 0.08906 0.75058 0.28551 0.0
H4454 H 0.09349 0.77592 0.34562 0.0
H4455 H 0.08814 0.78132 0.29245 0.0
C4456 C 0.0957 0.75763 0.41786 0.0
C4457 C 0.10213 0.75405 0.41319 0.0
C4458 C 0.09228 0.76042 0.38759 0.0
C4459 C 0.09518 0.75967 0.35192 0.0
C4460 C 0.10156 0.75602 0.34723 0.0
C4461 C 0.10501 0.75325 0.37752 0.0
C4462 C 0.08592 0.76045 0.25674 0.0
C4463 C 0.08568 0.76918 0.25792 0.0
C4464 C 0.08893 0.75733 0.2873 0.0
C4465 C 0.09171 0.76283 0.31977 0.0
C4466 C 0.09131 0.77147 0.32113 0.0
C4467 C 0.08834 0.77461 0.29054 0.0
H4468 H 0.21425 0.30709 0.28894 0.0
H4469 H 0.24175 0.32519 0.23489 0.0
H4470 H 0.21984 0.318 0.34162 0.0
H4471 H 0.24734 0.33608 0.28761 0.0
H4472 H 0.25726 0.34793 0.40392 0.0
H4473 H 0.25185 0.33669 0.35215 0.0
H4474 H 0.22364 0.33452 0.35686 0.0
H4475 H 0.22894 0.34548 0.40934 0.0
C4476 C 0.22147 0.31342 0.28823 0.0
C4477 C 0.22755 0.31528 0.25767 0.0
C4478 C 0.22467 0.31967 0.3184 0.0
C4479 C 0.23402 0.32793 0.31874 0.0
C4480 C 0.24014 0.32972 0.2884 0.0
C4481 C 0.23694 0.32347 0.2582 0.0
C4482 C 0.24988 0.345 0.39405 0.0
C4483 C 0.24353 0.3476 0.41071 0.0
C4484 C 0.24681 0.33863 0.36418 0.0
C4485 C 0.23731 0.33471 0.35042 0.0
C4486 C 0.23097 0.33733 0.36706 0.0
C4487 C 0.23404 0.34371 0.39684 0.0
H4488 H -0.00108 0.4266 0.88235 0.0
H4489 H 0.02323 0.43453 0.95509 0.0
H4490 H 0.98775 0.41973 0.93388 0.0
H4491 H 0.012 0.42753 0.00666 0.0
H4492 H 0.98785 0.40755 0.08665 0.0
H4493 H 0.9984 0.41198 0.03266 0.0
H4494 H 0.98451 0.42717 0.98787 0.0
H4495 H 0.97393 0.42264 0.04133 0.0
C4496 C 0.00188 0.42686 0.90935 0.0
C4497 C 0.01197 0.43124 0.91472 0.0
C4498 C 0.99548 0.4229 0.93881 0.0
C4499 C -0.00099 0.42318 0.97433 0.0
C4500 C 0.00907 0.42715 0.97952 0.0
C4501 C 0.01549 0.43116 0.95 0.0
C4502 C 0.98698 0.41172 0.06496 0.0
C4503 C 0.9801 0.41478 0.06818 0.0
C4504 C 0.99306 0.41432 0.03427 0.0
C4505 C 0.99228 0.41992 0.00608 0.0
C4506 C 0.98522 0.42276 0.00896 0.0
C4507 C 0.97922 0.42024 0.0397 0.0
H4508 H 0.57221 0.57173 0.10701 0.0
H4509 H 0.59326 0.56781 0.04552 0.0
H4510 H 0.56838 0.57792 0.05252 0.0
H4511 H 0.58988 0.57462 0.99143 0.0
H4512 H 0.57058 0.57272 0.89396 0.0
H4513 H 0.57704 0.56922 0.94848 0.0
H4514 H 0.57333 0.59056 0.00895 0.0
H4515 H 0.56624 0.59359 0.95487 0.0
C4516 C 0.5761 0.57229 0.08193 0.0
C4517 C 0.58292 0.5691 0.08054 0.0
C4518 C 0.57401 0.576 0.05074 0.0
C4519 C 0.57876 0.57672 0.01739 0.0
C4520 C 0.58595 0.57401 0.01647 0.0
C4521 C 0.58798 0.57021 0.04765 0.0
C4522 C 0.57109 0.57663 0.91892 0.0
C4523 C 0.56773 0.58331 0.92013 0.0
C4524 C 0.57496 0.57474 0.95012 0.0
C4525 C 0.57567 0.57956 0.98329 0.0
C4526 C 0.57274 0.58659 0.98405 0.0
C4527 C 0.56878 0.58842 0.95287 0.0
H4528 H 0.41974 0.00811 0.09676 0.0
H4529 H 0.44828 0.02283 0.04697 0.0
H4530 H 0.41363 0.99683 0.04499 0.0
H4531 H 0.44223 0.01128 0.99646 0.0
H4532 H 0.43034 0.98086 0.94412 0.0
H4533 H 0.43543 0.99233 0.99484 0.0
H4534 H 0.41183 0.99764 0.97218 0.0
H4535 H 0.40692 0.9865 0.92006 0.0
C4536 C 0.42469 0.00903 0.07472 0.0
C4537 C 0.43455 0.01635 0.07636 0.0
C4538 C 0.42119 0.00254 0.04521 0.0
C4539 C 0.4275 0.00314 0.0171 0.0
C4540 C 0.43726 0.01057 0.01817 0.0
C4541 C 0.44072 0.01715 0.04726 0.0
C4542 C 0.42627 0.98453 0.9495 0.0
C4543 C 0.41828 0.98282 0.92752 0.0
C4544 C 0.42917 0.99106 0.97872 0.0
C4545 C 0.42406 0.9959 0.98712 0.0
C4546 C 0.41586 0.99396 0.96624 0.0
C4547 C 0.41304 0.98753 0.93655 0.0
H4548 H 0.57585 0.99173 0.90652 0.0
H4549 H 0.54852 0.97422 0.96238 0.0
H4550 H 0.582 0.00258 0.9594 0.0
H4551 H 0.55459 0.9852 0.01492 0.0
H4552 H 0.5724 0.00125 0.11621 0.0
H4553 H 0.56696 0.99013 0.06406 0.0
H4554 H 0.57871 0.01461 0.98991 0.0
H4555 H 0.58434 0.02574 0.04209 0.0
C4556 C 0.57118 0.99017 0.9302 0.0
C4557 C 0.5617 0.98212 0.93033 0.0
C4558 C 0.57467 0.99643 0.96029 0.0
C4559 C 0.56877 0.99475 0.99125 0.0
C4560 C 0.55933 0.98663 0.99157 0.0
C4561 C 0.55582 0.9804 0.96137 0.0
C4562 C 0.57393 0.00425 0.08876 0.0
C4563 C 0.57881 0.01437 0.08321 0.0
C4564 C 0.57072 0.99789 0.05893 0.0
C4565 C 0.57239 0.0015 0.02292 0.0
C4566 C 0.57739 0.01162 0.01735 0.0
C4567 C 0.58054 0.01798 0.0472 0.0
H4568 H -0.00115 0.57134 0.8836 0.0
H4569 H 0.02353 0.58438 0.95678 0.0
H4570 H 0.98788 0.56662 0.936 0.0
H4571 H 0.01257 0.57964 0.00918 0.0
H4572 H 0.99021 0.57684 0.09351 0.0
H4573 H 0.00068 0.58274 0.03962 0.0
H4574 H 0.98296 0.55504 0.98638 0.0
H4575 H 0.9723 0.54927 0.03968 0.0
C4576 C 0.00193 0.57317 0.91089 0.0
C4577 C 0.01206 0.57818 0.91605 0.0
C4578 C 0.99565 0.57047 0.9409 0.0
C4579 C -0.00065 0.57271 0.97676 0.0
C4580 C 0.00948 0.57791 0.98188 0.0
C4581 C 0.01577 0.58062 0.95186 0.0
C4582 C 0.98846 0.57206 0.07007 0.0
C4583 C 0.98043 0.56257 0.07089 0.0
C4584 C 0.99453 0.57541 0.03937 0.0
C4585 C 0.99268 0.56935 0.00877 0.0
C4586 C 0.98454 0.55992 0.00936 0.0
C4587 C 0.97849 0.55657 0.04006 0.0
H4588 H 0.44483 0.43612 0.08919 0.0
H4589 H 0.42484 0.40599 0.06326 0.0
H4590 H 0.43894 0.44113 0.0369 0.0
H4591 H 0.4185 0.41103 0.0122 0.0
H4592 H 0.4175 0.42357 0.8997 0.0
H4593 H 0.42279 0.41799 0.9525 0.0
H4594 H 0.42534 0.44213 0.01609 0.0
H4595 H 0.42032 0.44783 0.96289 0.0
C4596 C 0.43918 0.43055 0.07233 0.0
C4597 C 0.43536 0.42064 0.0804 0.0
C4598 C 0.43568 0.43344 0.04262 0.0
C4599 C 0.4282 0.4265 0.02036 0.0
C4600 C 0.42433 0.41658 0.02851 0.0
C4601 C 0.42789 0.41369 0.05811 0.0
C4602 C 0.41911 0.42761 0.92512 0.0
C4603 C 0.41855 0.43615 0.92718 0.0
C4604 C 0.42212 0.42441 0.95542 0.0
C4605 C 0.42456 0.42963 0.98857 0.0
C4606 C 0.42373 0.43804 0.99081 0.0
C4607 C 0.42082 0.44129 0.9604 0.0
loop_
_geom_bond_atom_site_label_1
_geom_bond_atom_site_label_2
_geom_bond_distance
_geom_bond_site_symmetry_2
_ccdc_geom_bond_type
Li0 N17 1.990 . S
Li0 O60 1.956 . S
Li0 O61 1.970 . S
Li0 O62 1.961 . S
Li1 N25 1.990 . S
Li1 O60 1.970 . S
Li1 O61 1.956 . S
Li1 O63 1.961 . S
Li2 N47 1.990 1_554 S
Li2 O60 1.961 . S
Li2 O62 1.956 . S
Li2 O63 1.970 . S
Li3 N53 1.990 . S
Li3 O61 1.961 . S
Li3 O62 1.970 . S
Li3 O63 1.956 . S
C4 C6 1.348 . S
C4 C7 1.356 . S
C4 O60 1.325 . S
N5 C8 1.314 . S
N5 C9 1.279 . S
C6 C4 1.348 . S
C6 C8 1.353 . S
C6 H64 0.929 . S
C7 C4 1.356 . S
C7 C9 1.358 . S
C7 H65 0.930 . S
C8 N5 1.314 . S
C8 C6 1.353 . S
C8 H66 0.930 . S
C9 N5 1.279 . S
C9 C7 1.358 . S
C9 H67 0.930 . S
C10 C13 1.348 . S
C10 C14 1.356 . S
C10 O61 1.325 . S
C11 N12 1.279 . S
C11 C14 1.358 . S
C11 H68 0.930 . S
N12 C11 1.279 . S
N12 C15 1.314 . S
C13 C10 1.348 . S
C13 C15 1.353 . S
C13 H69 0.929 . S
C14 C10 1.356 . S
C14 C11 1.358 . S
C14 H70 0.930 . S
C15 N12 1.314 . S
C15 C13 1.353 . S
C15 H71 0.930 . S
C16 N17 1.314 . S
C16 C21 1.353 . S
C16 H22 0.930 . S
N17 Li0 1.990 . S
N17 C16 1.314 . S
N17 C19 1.279 . S
C18 C19 1.358 . S
C18 C20 1.356 . S
C18 H72 0.930 . S
C19 N17 1.279 . S
C19 C18 1.358 . S
C19 H23 0.930 . S
C20 C18 1.356 . S
C20 C21 1.348 . S
C21 C16 1.353 . S
C21 C20 1.348 . S
C21 H73 0.929 . S
H22 C16 0.930 . S
H23 C19 0.930 . S
C24 N25 1.314 . S
C24 C26 1.353 . S
C24 H30 0.930 . S
N25 Li1 1.990 . S
N25 C24 1.314 . S
N25 C28 1.279 . S
C26 C24 1.353 . S
C26 C29 1.348 . S
C26 H74 0.929 . S
C27 C28 1.358 . S
C27 C29 1.356 . S
C27 H75 0.930 . S
C28 N25 1.279 . S
C28 C27 1.358 . S
C28 H31 0.930 . S
C29 C26 1.348 . S
C29 C27 1.356 . S
H30 C24 0.930 . S
H31 C28 0.930 . S
C32 C34 1.348 . S
C32 C35 1.356 . S
C32 O62 1.325 . S
N33 C36 1.314 . S
N33 C37 1.279 . S
C34 C32 1.348 . S
C34 C36 1.353 . S
C34 H76 0.929 . S
C35 C32 1.356 . S
C35 C37 1.358 . S
C35 H77 0.930 . S
C36 N33 1.314 . S
C36 C34 1.353 . S
C36 H78 0.930 . S
C37 N33 1.279 . S
C37 C35 1.358 . S
C37 H79 0.930 . S
C38 C39 1.348 . S
C38 C40 1.356 . S
C38 O63 1.325 1_556 S
C39 C38 1.348 . S
C39 C41 1.353 . S
C39 H80 0.929 . S
C40 C38 1.356 . S
C40 C42 1.358 . S
C40 H81 0.930 1_556 S
C41 C39 1.353 . S
C41 N43 1.314 . S
C41 H82 0.930 . S
C42 C40 1.358 . S
C42 N43 1.279 . S
C42 H83 0.930 . S
N43 C41 1.314 . S
N43 C42 1.279 . S
C44 C46 1.353 . S
C44 N47 1.314 . S
C44 H50 0.930 . S
C45 N47 1.279 . S
C45 C48 1.358 . S
C45 H51 0.930 . S
C46 C44 1.353 . S
C46 C49 1.348 . S
C46 H84 0.929 . S
N47 Li2 1.990 1_556 S
N47 C44 1.314 . S
N47 C45 1.279 . S
C48 C45 1.358 . S
C48 C49 1.356 . S
C48 H85 0.930 . S
C49 C46 1.348 . S
C49 C48 1.356 . S
H50 C44 0.930 . S
H51 C45 0.930 . S
C52 N53 1.314 . S
C52 C54 1.353 . S
C52 H58 0.930 . S
N53 Li3 1.990 . S
N53 C52 1.314 . S
N53 C56 1.279 . S
C54 C52 1.353 . S
C54 C57 1.348 . S
C54 H86 0.929 . S
C55 C56 1.358 . S
C55 C57 1.356 . S
C55 H87 0.930 . S
C56 N53 1.279 . S
C56 C55 1.358 . S
C56 H59 0.930 . S
C57 C54 1.348 . S
C57 C55 1.356 . S
H58 C52 0.930 . S
H59 C56 0.930 . S
O60 Li0 1.956 . S
O60 Li1 1.970 . S
O60 Li2 1.961 . S
O60 C4 1.325 . S
O61 Li0 1.970 . S
O61 Li1 1.956 . S
O61 Li3 1.961 . S
O61 C10 1.325 . S
O62 Li0 1.961 . S
O62 Li2 1.956 . S
O62 Li3 1.970 . S
O62 C32 1.325 . S
O63 Li1 1.961 . S
O63 Li2 1.970 . S
O63 Li3 1.956 . S
O63 C38 1.325 1_554 S
H64 C6 0.929 . S
H65 C7 0.930 . S
H66 C8 0.930 . S
H67 C9 0.930 . S
H68 C11 0.930 . S
H69 C13 0.929 . S
H70 C14 0.930 . S
H71 C15 0.930 . S
H72 C18 0.930 . S
H73 C21 0.929 . S
H74 C26 0.929 . S
H75 C27 0.930 . S
H76 C34 0.929 . S
H77 C35 0.930 . S
H78 C36 0.930 . S
H79 C37 0.930 . S
H80 C39 0.929 . S
H81 C40 0.930 1_554 S
H82 C41 0.930 . S
H83 C42 0.930 . S
H84 C46 0.929 . S
H85 C48 0.930 . S
H86 C54 0.929 . S
H87 C55 0.930 . S
Li88 N105 1.990 . S
Li88 O148 1.956 . S
Li88 O149 1.970 . S
Li88 O150 1.961 . S
Li89 N113 1.990 . S
Li89 O148 1.970 . S
Li89 O149 1.956 . S
Li89 O151 1.961 . S
Li90 N135 1.990 . S
Li90 O148 1.961 . S
Li90 O150 1.956 . S
Li90 O151 1.970 . S
Li91 N141 1.990 1_554 S
Li91 O149 1.961 . S
Li91 O150 1.970 . S
Li91 O151 1.956 . S
C92 C94 1.348 . S
C92 C95 1.356 . S
C92 O148 1.325 . S
N93 C96 1.314 . S
N93 C97 1.279 . S
C94 C92 1.348 . S
C94 C96 1.353 . S
C94 H152 0.929 . S
C95 C92 1.356 . S
C95 C97 1.358 . S
C95 H153 0.930 . S
C96 N93 1.314 . S
C96 C94 1.353 . S
C96 H154 0.930 . S
C97 N93 1.279 . S
C97 C95 1.358 . S
C97 H155 0.930 . S
C98 C101 1.348 . S
C98 C102 1.356 . S
C98 O149 1.325 . S
C99 N100 1.279 . S
C99 C102 1.358 . S
C99 H156 0.930 . S
N100 C99 1.279 . S
N100 C103 1.314 . S
C101 C98 1.348 . S
C101 C103 1.353 . S
C101 H157 0.929 . S
C102 C98 1.356 . S
C102 C99 1.358 . S
C102 H158 0.930 . S
C103 N100 1.314 . S
C103 C101 1.353 . S
C103 H159 0.930 . S
C104 N105 1.314 . S
C104 C109 1.353 . S
C104 H110 0.930 . S
N105 Li88 1.990 . S
N105 C104 1.314 . S
N105 C107 1.279 . S
C106 C107 1.358 . S
C106 C108 1.356 . S
C106 H160 0.930 . S
C107 N105 1.279 . S
C107 C106 1.358 . S
C107 H111 0.930 . S
C108 C106 1.356 . S
C108 C109 1.348 . S
C109 C104 1.353 . S
C109 C108 1.348 . S
C109 H161 0.929 . S
H110 C104 0.930 . S
H111 C107 0.930 . S
C112 N113 1.314 . S
C112 C114 1.353 . S
C112 H118 0.930 . S
N113 Li89 1.990 . S
N113 C112 1.314 . S
N113 C116 1.279 . S
C114 C112 1.353 . S
C114 C117 1.348 . S
C114 H162 0.929 . S
C115 C116 1.358 . S
C115 C117 1.356 . S
C115 H163 0.930 . S
C116 N113 1.279 . S
C116 C115 1.358 . S
C116 H119 0.930 . S
C117 C114 1.348 . S
C117 C115 1.356 . S
H118 C112 0.930 . S
H119 C116 0.930 . S
C120 C122 1.348 . S
C120 C123 1.356 . S
C120 O150 1.325 1_556 S
N121 C124 1.314 . S
N121 C125 1.279 . S
C122 C120 1.348 . S
C122 C124 1.353 . S
C122 H164 0.929 . S
C123 C120 1.356 . S
C123 C125 1.358 . S
C123 H165 0.930 1_556 S
C124 N121 1.314 . S
C124 C122 1.353 . S
C124 H166 0.930 . S
C125 N121 1.279 . S
C125 C123 1.358 . S
C125 H167 0.930 . S
C126 C127 1.348 . S
C126 C128 1.356 . S
C126 O151 1.325 . S
C127 C126 1.348 . S
C127 C129 1.353 . S
C127 H168 0.929 . S
C128 C126 1.356 . S
C128 C130 1.358 . S
C128 H169 0.930 . S
C129 C127 1.353 . S
C129 N131 1.314 . S
C129 H170 0.930 . S
C130 C128 1.358 . S
C130 N131 1.279 . S
C130 H171 0.930 . S
N131 C129 1.314 . S
N131 C130 1.279 . S
C132 C134 1.353 . S
C132 N135 1.314 . S
C132 H138 0.930 . S
C133 N135 1.279 . S
C133 C136 1.358 . S
C133 H139 0.930 . S
C134 C132 1.353 . S
C134 C137 1.348 . S
C134 H172 0.929 . S
N135 Li90 1.990 . S
N135 C132 1.314 . S
N135 C133 1.279 . S
C136 C133 1.358 . S
C136 C137 1.356 . S
C136 H173 0.930 . S
C137 C134 1.348 . S
C137 C136 1.356 . S
H138 C132 0.930 . S
H139 C133 0.930 . S
C140 N141 1.314 . S
C140 C142 1.353 . S
C140 H146 0.930 . S
N141 Li91 1.990 1_556 S
N141 C140 1.314 . S
N141 C144 1.279 . S
C142 C140 1.353 . S
C142 C145 1.348 . S
C142 H174 0.929 . S
C143 C144 1.358 . S
C143 C145 1.356 . S
C143 H175 0.930 . S
C144 N141 1.279 . S
C144 C143 1.358 . S
C144 H147 0.930 . S
C145 C142 1.348 . S
C145 C143 1.356 . S
H146 C140 0.930 . S
H147 C144 0.930 . S
O148 Li88 1.956 . S
O148 Li89 1.970 . S
O148 Li90 1.961 . S
O148 C92 1.325 . S
O149 Li88 1.970 . S
O149 Li89 1.956 . S
O149 Li91 1.961 . S
O149 C98 1.325 . S
O150 Li88 1.961 . S
O150 Li90 1.956 . S
O150 Li91 1.970 . S
O150 C120 1.325 1_554 S
O151 Li89 1.961 . S
O151 Li90 1.970 . S
O151 Li91 1.956 . S
O151 C126 1.325 . S
H152 C94 0.929 . S
H153 C95 0.930 . S
H154 C96 0.930 . S
H155 C97 0.930 . S
H156 C99 0.930 . S
H157 C101 0.929 . S
H158 C102 0.930 . S
H159 C103 0.930 . S
H160 C106 0.930 . S
H161 C109 0.929 . S
H162 C114 0.929 . S
H163 C115 0.930 . S
H164 C122 0.929 . S
H165 C123 0.930 1_554 S
H166 C124 0.930 . S
H167 C125 0.930 . S
H168 C127 0.929 . S
H169 C128 0.930 . S
H170 C129 0.930 . S
H171 C130 0.930 . S
H172 C134 0.929 . S
H173 C136 0.930 . S
H174 C142 0.929 . S
H175 C143 0.930 . S
Li176 N193 1.990 . S
Li176 O236 1.956 . S
Li176 O237 1.970 . S
Li176 O238 1.961 . S
Li177 N201 1.990 . S
Li177 O236 1.970 . S
Li177 O237 1.956 . S
Li177 O239 1.961 . S
Li178 N223 1.990 1_554 S
Li178 O236 1.961 . S
Li178 O238 1.956 . S
Li178 O239 1.970 . S
Li179 N229 1.990 . S
Li179 O237 1.961 . S
Li179 O238 1.970 . S
Li179 O239 1.956 . S
C180 C182 1.348 . S
C180 C183 1.356 . S
C180 O236 1.325 . S
N181 C184 1.314 . S
N181 C185 1.279 . S
C182 C180 1.348 . S
C182 C184 1.353 . S
C182 H240 0.929 . S
C183 C180 1.356 . S
C183 C185 1.358 . S
C183 H241 0.930 . S
C184 N181 1.314 . S
C184 C182 1.353 . S
C184 H242 0.930 . S
C185 N181 1.279 . S
C185 C183 1.358 . S
C185 H243 0.930 . S
C186 C189 1.348 . S
C186 C190 1.356 . S
C186 O237 1.325 . S
C187 N188 1.279 . S
C187 C190 1.358 . S
C187 H244 0.930 . S
N188 C187 1.279 . S
N188 C191 1.314 . S
C189 C186 1.348 . S
C189 C191 1.353 . S
C189 H245 0.929 . S
C190 C186 1.356 . S
C190 C187 1.358 . S
C190 H246 0.930 . S
C191 N188 1.314 . S
C191 C189 1.353 . S
C191 H247 0.930 . S
C192 N193 1.314 . S
C192 C197 1.353 . S
C192 H198 0.930 . S
N193 Li176 1.990 . S
N193 C192 1.314 . S
N193 C195 1.279 . S
C194 C195 1.358 . S
C194 C196 1.356 . S
C194 H248 0.930 . S
C195 N193 1.279 . S
C195 C194 1.358 . S
C195 H199 0.930 . S
C196 C194 1.356 . S
C196 C197 1.348 . S
C197 C192 1.353 . S
C197 C196 1.348 . S
C197 H249 0.929 . S
H198 C192 0.930 . S
H199 C195 0.930 . S
C200 N201 1.314 . S
C200 C202 1.353 . S
C200 H206 0.930 . S
N201 Li177 1.990 . S
N201 C200 1.314 . S
N201 C204 1.279 . S
C202 C200 1.353 . S
C202 C205 1.348 . S
C202 H250 0.929 . S
C203 C204 1.358 . S
C203 C205 1.356 . S
C203 H251 0.930 . S
C204 N201 1.279 . S
C204 C203 1.358 . S
C204 H207 0.930 . S
C205 C202 1.348 . S
C205 C203 1.356 . S
H206 C200 0.930 . S
H207 C204 0.930 . S
C208 C210 1.348 . S
C208 C211 1.356 . S
C208 O238 1.325 . S
N209 C212 1.314 . S
N209 C213 1.279 . S
C210 C208 1.348 . S
C210 C212 1.353 . S
C210 H252 0.929 . S
C211 C208 1.356 . S
C211 C213 1.358 . S
C211 H253 0.930 . S
C212 N209 1.314 . S
C212 C210 1.353 . S
C212 H254 0.930 . S
C213 N209 1.279 . S
C213 C211 1.358 . S
C213 H255 0.930 . S
C214 C215 1.348 . S
C214 C216 1.356 . S
C214 O239 1.325 1_556 S
C215 C214 1.348 . S
C215 C217 1.353 . S
C215 H256 0.929 . S
C216 C214 1.356 . S
C216 C218 1.358 . S
C216 H257 0.930 1_556 S
C217 C215 1.353 . S
C217 N219 1.314 . S
C217 H258 0.930 . S
C218 C216 1.358 . S
C218 N219 1.279 . S
C218 H259 0.930 . S
N219 C217 1.314 . S
N219 C218 1.279 . S
C220 C222 1.353 . S
C220 N223 1.314 . S
C220 H226 0.930 . S
C221 N223 1.279 . S
C221 C224 1.358 . S
C221 H227 0.930 . S
C222 C220 1.353 . S
C222 C225 1.348 . S
C222 H260 0.929 . S
N223 Li178 1.990 1_556 S
N223 C220 1.314 . S
N223 C221 1.279 . S
C224 C221 1.358 . S
C224 C225 1.356 . S
C224 H261 0.930 . S
C225 C222 1.348 . S
C225 C224 1.356 . S
H226 C220 0.930 . S
H227 C221 0.930 . S
C228 N229 1.314 . S
C228 C230 1.353 . S
C228 H234 0.930 . S
N229 Li179 1.990 . S
N229 C228 1.314 . S
N229 C232 1.279 . S
C230 C228 1.353 . S
C230 C233 1.348 . S
C230 H262 0.929 . S
C231 C232 1.358 . S
C231 C233 1.356 . S
C231 H263 0.930 . S
C232 N229 1.279 . S
C232 C231 1.358 . S
C232 H235 0.930 . S
C233 C230 1.348 . S
C233 C231 1.356 . S
H234 C228 0.930 . S
H235 C232 0.930 . S
O236 Li176 1.956 . S
O236 Li177 1.970 . S
O236 Li178 1.961 . S
O236 C180 1.325 . S
O237 Li176 1.970 . S
O237 Li177 1.956 . S
O237 Li179 1.961 . S
O237 C186 1.325 . S
O238 Li176 1.961 . S
O238 Li178 1.956 . S
O238 Li179 1.970 . S
O238 C208 1.325 . S
O239 Li177 1.961 . S
O239 Li178 1.970 . S
O239 Li179 1.956 . S
O239 C214 1.325 1_554 S
H240 C182 0.929 . S
H241 C183 0.930 . S
H242 C184 0.930 . S
H243 C185 0.930 . S
H244 C187 0.930 . S
H245 C189 0.929 . S
H246 C190 0.930 . S
H247 C191 0.930 . S
H248 C194 0.930 . S
H249 C197 0.929 . S
H250 C202 0.929 . S
H251 C203 0.930 . S
H252 C210 0.929 . S
H253 C211 0.930 . S
H254 C212 0.930 . S
H255 C213 0.930 . S
H256 C215 0.929 . S
H257 C216 0.930 1_554 S
H258 C217 0.930 . S
H259 C218 0.930 . S
H260 C222 0.929 . S
H261 C224 0.930 . S
H262 C230 0.929 . S
H263 C231 0.930 . S
Li264 N281 1.990 1_556 S
Li264 O324 1.956 . S
Li264 O325 1.970 . S
Li264 O326 1.961 . S
Li265 N289 1.990 . S
Li265 O324 1.970 . S
Li265 O325 1.956 . S
Li265 O327 1.961 . S
Li266 N311 1.990 . S
Li266 O324 1.961 . S
Li266 O326 1.956 . S
Li266 O327 1.970 . S
Li267 N317 1.990 . S
Li267 O325 1.961 . S
Li267 O326 1.970 . S
Li267 O327 1.956 . S
C268 C270 1.348 . S
C268 C271 1.356 . S
C268 O324 1.325 . S
N269 C272 1.314 . S
N269 C273 1.279 . S
C270 C268 1.348 . S
C270 C272 1.353 . S
C270 H328 0.929 . S
C271 C268 1.356 . S
C271 C273 1.358 . S
C271 H329 0.930 . S
C272 N269 1.314 . S
C272 C270 1.353 . S
C272 H330 0.930 . S
C273 N269 1.279 . S
C273 C271 1.358 . S
C273 H331 0.930 . S
C274 C277 1.348 . S
C274 C278 1.356 . S
C274 O325 1.325 1_554 S
C275 N276 1.279 . S
C275 C278 1.358 . S
C275 H332 0.930 . S
N276 C275 1.279 . S
N276 C279 1.314 . S
C277 C274 1.348 . S
C277 C279 1.353 . S
C277 H333 0.929 . S
C278 C274 1.356 . S
C278 C275 1.358 . S
C278 H334 0.930 1_554 S
C279 N276 1.314 . S
C279 C277 1.353 . S
C279 H335 0.930 . S
C280 N281 1.314 . S
C280 C285 1.353 . S
C280 H286 0.930 . S
N281 Li264 1.990 1_554 S
N281 C280 1.314 . S
N281 C283 1.279 . S
C282 C283 1.358 . S
C282 C284 1.356 . S
C282 H336 0.930 . S
C283 N281 1.279 . S
C283 C282 1.358 . S
C283 H287 0.930 . S
C284 C282 1.356 . S
C284 C285 1.348 . S
C285 C280 1.353 . S
C285 C284 1.348 . S
C285 H337 0.929 . S
H286 C280 0.930 . S
H287 C283 0.930 . S
C288 N289 1.314 . S
C288 C290 1.353 . S
C288 H294 0.930 . S
N289 Li265 1.990 . S
N289 C288 1.314 . S
N289 C292 1.279 . S
C290 C288 1.353 . S
C290 C293 1.348 . S
C290 H338 0.929 . S
C291 C292 1.358 . S
C291 C293 1.356 . S
C291 H339 0.930 . S
C292 N289 1.279 . S
C292 C291 1.358 . S
C292 H295 0.930 . S
C293 C290 1.348 . S
C293 C291 1.356 . S
H294 C288 0.930 . S
H295 C292 0.930 . S
C296 C298 1.348 . S
C296 C299 1.356 . S
C296 O326 1.325 . S
N297 C300 1.314 . S
N297 C301 1.279 . S
C298 C296 1.348 . S
C298 C300 1.353 . S
C298 H340 0.929 . S
C299 C296 1.356 . S
C299 C301 1.358 . S
C299 H341 0.930 . S
C300 N297 1.314 . S
C300 C298 1.353 . S
C300 H342 0.930 . S
C301 N297 1.279 . S
C301 C299 1.358 . S
C301 H343 0.930 . S
C302 C303 1.348 . S
C302 C304 1.356 . S
C302 O327 1.325 . S
C303 C302 1.348 . S
C303 C305 1.353 . S
C303 H344 0.929 . S
C304 C302 1.356 . S
C304 C306 1.358 . S
C304 H345 0.930 . S
C305 C303 1.353 . S
C305 N307 1.314 . S
C305 H346 0.930 . S
C306 C304 1.358 . S
C306 N307 1.279 . S
C306 H347 0.930 . S
N307 C305 1.314 . S
N307 C306 1.279 . S
C308 C310 1.353 . S
C308 N311 1.314 . S
C308 H314 0.930 . S
C309 N311 1.279 . S
C309 C312 1.358 . S
C309 H315 0.930 . S
C310 C308 1.353 . S
C310 C313 1.348 . S
C310 H348 0.929 . S
N311 Li266 1.990 . S
N311 C308 1.314 . S
N311 C309 1.279 . S
C312 C309 1.358 . S
C312 C313 1.356 . S
C312 H349 0.930 . S
C313 C310 1.348 . S
C313 C312 1.356 . S
H314 C308 0.930 . S
H315 C309 0.930 . S
C316 N317 1.314 . S
C316 C318 1.353 . S
C316 H322 0.930 . S
N317 Li267 1.990 . S
N317 C316 1.314 . S
N317 C320 1.279 . S
C318 C316 1.353 . S
C318 C321 1.348 . S
C318 H350 0.929 . S
C319 C320 1.358 . S
C319 C321 1.356 . S
C319 H351 0.930 . S
C320 N317 1.279 . S
C320 C319 1.358 . S
C320 H323 0.930 . S
C321 C318 1.348 . S
C321 C319 1.356 . S
H322 C316 0.930 . S
H323 C320 0.930 . S
O324 Li264 1.956 . S
O324 Li265 1.970 . S
O324 Li266 1.961 . S
O324 C268 1.325 . S
O325 Li264 1.970 . S
O325 Li265 1.956 . S
O325 Li267 1.961 . S
O325 C274 1.325 1_556 S
O326 Li264 1.961 . S
O326 Li266 1.956 . S
O326 Li267 1.970 . S
O326 C296 1.325 . S
O327 Li265 1.961 . S
O327 Li266 1.970 . S
O327 Li267 1.956 . S
O327 C302 1.325 . S
H328 C270 0.929 . S
H329 C271 0.930 . S
H330 C272 0.930 . S
H331 C273 0.930 . S
H332 C275 0.930 . S
H333 C277 0.929 . S
H334 C278 0.930 1_556 S
H335 C279 0.930 . S
H336 C282 0.930 . S
H337 C285 0.929 . S
H338 C290 0.929 . S
H339 C291 0.930 . S
H340 C298 0.929 . S
H341 C299 0.930 . S
H342 C300 0.930 . S
H343 C301 0.930 . S
H344 C303 0.929 . S
H345 C304 0.930 . S
H346 C305 0.930 . S
H347 C306 0.930 . S
H348 C310 0.929 . S
H349 C312 0.930 . S
H350 C318 0.929 . S
H351 C319 0.930 . S
Li352 N369 1.990 1_556 S
Li352 O412 1.956 . S
Li352 O413 1.970 . S
Li352 O414 1.961 . S
Li353 N377 1.990 . S
Li353 O412 1.970 . S
Li353 O413 1.956 . S
Li353 O415 1.961 . S
Li354 N399 1.990 . S
Li354 O412 1.961 . S
Li354 O414 1.956 . S
Li354 O415 1.970 . S
Li355 N405 1.990 . S
Li355 O413 1.961 . S
Li355 O414 1.970 . S
Li355 O415 1.956 . S
C356 C358 1.348 . S
C356 C359 1.356 . S
C356 O412 1.325 . S
N357 C360 1.314 . S
N357 C361 1.279 . S
C358 C356 1.348 . S
C358 C360 1.353 . S
C358 H416 0.929 . S
C359 C356 1.356 . S
C359 C361 1.358 . S
C359 H417 0.930 . S
C360 N357 1.314 . S
C360 C358 1.353 . S
C360 H418 0.930 . S
C361 N357 1.279 . S
C361 C359 1.358 . S
C361 H419 0.930 . S
C362 C365 1.348 . S
C362 C366 1.356 . S
C362 O413 1.325 1_554 S
C363 N364 1.279 . S
C363 C366 1.358 . S
C363 H420 0.930 . S
N364 C363 1.279 . S
N364 C367 1.314 . S
C365 C362 1.348 . S
C365 C367 1.353 . S
C365 H421 0.929 . S
C366 C362 1.356 . S
C366 C363 1.358 . S
C366 H422 0.930 1_554 S
C367 N364 1.314 . S
C367 C365 1.353 . S
C367 H423 0.930 . S
C368 N369 1.314 . S
C368 C373 1.353 . S
C368 H374 0.930 . S
N369 Li352 1.990 1_554 S
N369 C368 1.314 . S
N369 C371 1.279 . S
C370 C371 1.358 . S
C370 C372 1.356 . S
C370 H424 0.930 . S
C371 N369 1.279 . S
C371 C370 1.358 . S
C371 H375 0.930 . S
C372 C370 1.356 . S
C372 C373 1.348 . S
C373 C368 1.353 . S
C373 C372 1.348 . S
C373 H425 0.929 . S
H374 C368 0.930 . S
H375 C371 0.930 . S
C376 N377 1.314 . S
C376 C378 1.353 . S
C376 H382 0.930 . S
N377 Li353 1.990 . S
N377 C376 1.314 . S
N377 C380 1.279 . S
C378 C376 1.353 . S
C378 C381 1.348 . S
C378 H426 0.929 . S
C379 C380 1.358 . S
C379 C381 1.356 . S
C379 H427 0.930 . S
C380 N377 1.279 . S
C380 C379 1.358 . S
C380 H383 0.930 . S
C381 C378 1.348 . S
C381 C379 1.356 . S
H382 C376 0.930 . S
H383 C380 0.930 . S
C384 C386 1.348 . S
C384 C387 1.356 . S
C384 O414 1.325 . S
N385 C388 1.314 . S
N385 C389 1.279 . S
C386 C384 1.348 . S
C386 C388 1.353 . S
C386 H428 0.929 . S
C387 C384 1.356 . S
C387 C389 1.358 . S
C387 H429 0.930 . S
C388 N385 1.314 . S
C388 C386 1.353 . S
C388 H430 0.930 . S
C389 N385 1.279 . S
C389 C387 1.358 . S
C389 H431 0.930 . S
C390 C391 1.348 . S
C390 C392 1.356 . S
C390 O415 1.325 . S
C391 C390 1.348 . S
C391 C393 1.353 . S
C391 H432 0.929 . S
C392 C390 1.356 . S
C392 C394 1.358 . S
C392 H433 0.930 . S
C393 C391 1.353 . S
C393 N395 1.314 . S
C393 H434 0.930 . S
C394 C392 1.358 . S
C394 N395 1.279 . S
C394 H435 0.930 . S
N395 C393 1.314 . S
N395 C394 1.279 . S
C396 C398 1.353 . S
C396 N399 1.314 . S
C396 H402 0.930 . S
C397 N399 1.279 . S
C397 C400 1.358 . S
C397 H403 0.930 . S
C398 C396 1.353 . S
C398 C401 1.348 . S
C398 H436 0.929 . S
N399 Li354 1.990 . S
N399 C396 1.314 . S
N399 C397 1.279 . S
C400 C397 1.358 . S
C400 C401 1.356 . S
C400 H437 0.930 . S
C401 C398 1.348 . S
C401 C400 1.356 . S
H402 C396 0.930 . S
H403 C397 0.930 . S
C404 N405 1.314 . S
C404 C406 1.353 . S
C404 H410 0.930 . S
N405 Li355 1.990 . S
N405 C404 1.314 . S
N405 C408 1.279 . S
C406 C404 1.353 . S
C406 C409 1.348 . S
C406 H438 0.929 . S
C407 C408 1.358 . S
C407 C409 1.356 . S
C407 H439 0.930 . S
C408 N405 1.279 . S
C408 C407 1.358 . S
C408 H411 0.930 . S
C409 C406 1.348 . S
C409 C407 1.356 . S
H410 C404 0.930 . S
H411 C408 0.930 . S
O412 Li352 1.956 . S
O412 Li353 1.970 . S
O412 Li354 1.961 . S
O412 C356 1.325 . S
O413 Li352 1.970 . S
O413 Li353 1.956 . S
O413 Li355 1.961 . S
O413 C362 1.325 1_556 S
O414 Li352 1.961 . S
O414 Li354 1.956 . S
O414 Li355 1.970 . S
O414 C384 1.325 . S
O415 Li353 1.961 . S
O415 Li354 1.970 . S
O415 Li355 1.956 . S
O415 C390 1.325 . S
H416 C358 0.929 . S
H417 C359 0.930 . S
H418 C360 0.930 . S
H419 C361 0.930 . S
H420 C363 0.930 . S
H421 C365 0.929 . S
H422 C366 0.930 1_556 S
H423 C367 0.930 . S
H424 C370 0.930 . S
H425 C373 0.929 . S
H426 C378 0.929 . S
H427 C379 0.930 . S
H428 C386 0.929 . S
H429 C387 0.930 . S
H430 C388 0.930 . S
H431 C389 0.930 . S
H432 C391 0.929 . S
H433 C392 0.930 . S
H434 C393 0.930 . S
H435 C394 0.930 . S
H436 C398 0.929 . S
H437 C400 0.930 . S
H438 C406 0.929 . S
H439 C407 0.930 . S
Li440 N457 1.990 . S
Li440 O500 1.956 . S
Li440 O501 1.970 . S
Li440 O502 1.961 . S
Li441 N465 1.990 1_556 S
Li441 O500 1.970 . S
Li441 O501 1.956 . S
Li441 O503 1.961 . S
Li442 N487 1.990 . S
Li442 O500 1.961 . S
Li442 O502 1.956 . S
Li442 O503 1.970 . S
Li443 N493 1.990 . S
Li443 O501 1.961 . S
Li443 O502 1.970 . S
Li443 O503 1.956 . S
C444 C446 1.348 . S
C444 C447 1.356 . S
C444 O500 1.325 1_554 S
N445 C448 1.314 . S
N445 C449 1.279 . S
C446 C444 1.348 . S
C446 C448 1.353 . S
C446 H504 0.929 . S
C447 C444 1.356 . S
C447 C449 1.358 . S
C447 H505 0.930 1_554 S
C448 N445 1.314 . S
C448 C446 1.353 . S
C448 H506 0.930 . S
C449 N445 1.279 . S
C449 C447 1.358 . S
C449 H507 0.930 . S
C450 C453 1.348 . S
C450 C454 1.356 . S
C450 O501 1.325 . S
C451 N452 1.279 . S
C451 C454 1.358 . S
C451 H508 0.930 . S
N452 C451 1.279 . S
N452 C455 1.314 . S
C453 C450 1.348 . S
C453 C455 1.353 . S
C453 H509 0.929 . S
C454 C450 1.356 . S
C454 C451 1.358 . S
C454 H510 0.930 . S
C455 N452 1.314 . S
C455 C453 1.353 . S
C455 H511 0.930 . S
C456 N457 1.314 . S
C456 C461 1.353 . S
C456 H462 0.930 . S
N457 Li440 1.990 . S
N457 C456 1.314 . S
N457 C459 1.279 . S
C458 C459 1.358 . S
C458 C460 1.356 . S
C458 H512 0.930 . S
C459 N457 1.279 . S
C459 C458 1.358 . S
C459 H463 0.930 . S
C460 C458 1.356 . S
C460 C461 1.348 . S
C461 C456 1.353 . S
C461 C460 1.348 . S
C461 H513 0.929 . S
H462 C456 0.930 . S
H463 C459 0.930 . S
C464 N465 1.314 . S
C464 C466 1.353 . S
C464 H470 0.930 . S
N465 Li441 1.990 1_554 S
N465 C464 1.314 . S
N465 C468 1.279 . S
C466 C464 1.353 . S
C466 C469 1.348 . S
C466 H514 0.929 . S
C467 C468 1.358 . S
C467 C469 1.356 . S
C467 H515 0.930 . S
C468 N465 1.279 . S
C468 C467 1.358 . S
C468 H471 0.930 . S
C469 C466 1.348 . S
C469 C467 1.356 . S
H470 C464 0.930 . S
H471 C468 0.930 . S
C472 C474 1.348 . S
C472 C475 1.356 . S
C472 O502 1.325 . S
N473 C476 1.314 . S
N473 C477 1.279 . S
C474 C472 1.348 . S
C474 C476 1.353 . S
C474 H516 0.929 . S
C475 C472 1.356 . S
C475 C477 1.358 . S
C475 H517 0.930 . S
C476 N473 1.314 . S
C476 C474 1.353 . S
C476 H518 0.930 . S
C477 N473 1.279 . S
C477 C475 1.358 . S
C477 H519 0.930 . S
C478 C479 1.348 . S
C478 C480 1.356 . S
C478 O503 1.325 . S
C479 C478 1.348 . S
C479 C481 1.353 . S
C479 H520 0.929 . S
C480 C478 1.356 . S
C480 C482 1.358 . S
C480 H521 0.930 . S
C481 C479 1.353 . S
C481 N483 1.314 . S
C481 H522 0.930 . S
C482 C480 1.358 . S
C482 N483 1.279 . S
C482 H523 0.930 . S
N483 C481 1.314 . S
N483 C482 1.279 . S
C484 C486 1.353 . S
C484 N487 1.314 . S
C484 H490 0.930 . S
C485 N487 1.279 . S
C485 C488 1.358 . S
C485 H491 0.930 . S
C486 C484 1.353 . S
C486 C489 1.348 . S
C486 H524 0.929 . S
N487 Li442 1.990 . S
N487 C484 1.314 . S
N487 C485 1.279 . S
C488 C485 1.358 . S
C488 C489 1.356 . S
C488 H525 0.930 . S
C489 C486 1.348 . S
C489 C488 1.356 . S
H490 C484 0.930 . S
H491 C485 0.930 . S
C492 N493 1.314 . S
C492 C494 1.353 . S
C492 H498 0.930 . S
N493 Li443 1.990 . S
N493 C492 1.314 . S
N493 C496 1.279 . S
C494 C492 1.353 . S
C494 C497 1.348 . S
C494 H526 0.929 . S
C495 C496 1.358 . S
C495 C497 1.356 . S
C495 H527 0.930 . S
C496 N493 1.279 . S
C496 C495 1.358 . S
C496 H499 0.930 . S
C497 C494 1.348 . S
C497 C495 1.356 . S
H498 C492 0.930 . S
H499 C496 0.930 . S
O500 Li440 1.956 . S
O500 Li441 1.970 . S
O500 Li442 1.961 . S
O500 C444 1.325 1_556 S
O501 Li440 1.970 . S
O501 Li441 1.956 . S
O501 Li443 1.961 . S
O501 C450 1.325 . S
O502 Li440 1.961 . S
O502 Li442 1.956 . S
O502 Li443 1.970 . S
O502 C472 1.325 . S
O503 Li441 1.961 . S
O503 Li442 1.970 . S
O503 Li443 1.956 . S
O503 C478 1.325 . S
H504 C446 0.929 . S
H505 C447 0.930 1_556 S
H506 C448 0.930 . S
H507 C449 0.930 . S
H508 C451 0.930 . S
H509 C453 0.929 . S
H510 C454 0.930 . S
H511 C455 0.930 . S
H512 C458 0.930 . S
H513 C461 0.929 . S
H514 C466 0.929 . S
H515 C467 0.930 . S
H516 C474 0.929 . S
H517 C475 0.930 . S
H518 C476 0.930 . S
H519 C477 0.930 . S
H520 C479 0.929 . S
H521 C480 0.930 . S
H522 C481 0.930 . S
H523 C482 0.930 . S
H524 C486 0.929 . S
H525 C488 0.930 . S
H526 C494 0.929 . S
H527 C495 0.930 . S
Li528 N545 1.990 . S
Li528 O588 1.956 . S
Li528 O589 1.970 . S
Li528 O590 1.961 . S
Li529 N553 1.990 1_556 S
Li529 O588 1.970 . S
Li529 O589 1.956 . S
Li529 O591 1.961 . S
Li530 N575 1.990 . S
Li530 O588 1.961 . S
Li530 O590 1.956 . S
Li530 O591 1.970 . S
Li531 N581 1.990 . S
Li531 O589 1.961 . S
Li531 O590 1.970 . S
Li531 O591 1.956 . S
C532 C534 1.348 . S
C532 C535 1.356 . S
C532 O588 1.325 1_554 S
N533 C536 1.314 . S
N533 C537 1.279 . S
C534 C532 1.348 . S
C534 C536 1.353 . S
C534 H592 0.929 . S
C535 C532 1.356 . S
C535 C537 1.358 . S
C535 H593 0.930 1_554 S
C536 N533 1.314 . S
C536 C534 1.353 . S
C536 H594 0.930 . S
C537 N533 1.279 . S
C537 C535 1.358 . S
C537 H595 0.930 . S
C538 C541 1.348 . S
C538 C542 1.356 . S
C538 O589 1.325 . S
C539 N540 1.279 . S
C539 C542 1.358 . S
C539 H596 0.930 . S
N540 C539 1.279 . S
N540 C543 1.314 . S
C541 C538 1.348 . S
C541 C543 1.353 . S
C541 H597 0.929 . S
C542 C538 1.356 . S
C542 C539 1.358 . S
C542 H598 0.930 . S
C543 N540 1.314 . S
C543 C541 1.353 . S
C543 H599 0.930 . S
C544 N545 1.314 . S
C544 C549 1.353 . S
C544 H550 0.930 . S
N545 Li528 1.990 . S
N545 C544 1.314 . S
N545 C547 1.279 . S
C546 C547 1.358 . S
C546 C548 1.356 . S
C546 H600 0.930 . S
C547 N545 1.279 . S
C547 C546 1.358 . S
C547 H551 0.930 . S
C548 C546 1.356 . S
C548 C549 1.348 . S
C549 C544 1.353 . S
C549 C548 1.348 . S
C549 H601 0.929 . S
H550 C544 0.930 . S
H551 C547 0.930 . S
C552 N553 1.314 . S
C552 C554 1.353 . S
C552 H558 0.930 . S
N553 Li529 1.990 1_554 S
N553 C552 1.314 . S
N553 C556 1.279 . S
C554 C552 1.353 . S
C554 C557 1.348 . S
C554 H602 0.929 . S
C555 C556 1.358 . S
C555 C557 1.356 . S
C555 H603 0.930 . S
C556 N553 1.279 . S
C556 C555 1.358 . S
C556 H559 0.930 . S
C557 C554 1.348 . S
C557 C555 1.356 . S
H558 C552 0.930 . S
H559 C556 0.930 . S
C560 C562 1.348 . S
C560 C563 1.356 . S
C560 O590 1.325 . S
N561 C564 1.314 . S
N561 C565 1.279 . S
C562 C560 1.348 . S
C562 C564 1.353 . S
C562 H604 0.929 . S
C563 C560 1.356 . S
C563 C565 1.358 . S
C563 H605 0.930 . S
C564 N561 1.314 . S
C564 C562 1.353 . S
C564 H606 0.930 . S
C565 N561 1.279 . S
C565 C563 1.358 . S
C565 H607 0.930 . S
C566 C567 1.348 . S
C566 C568 1.356 . S
C566 O591 1.325 . S
C567 C566 1.348 . S
C567 C569 1.353 . S
C567 H608 0.929 . S
C568 C566 1.356 . S
C568 C570 1.358 . S
C568 H609 0.930 . S
C569 C567 1.353 . S
C569 N571 1.314 . S
C569 H610 0.930 . S
C570 C568 1.358 . S
C570 N571 1.279 . S
C570 H611 0.930 . S
N571 C569 1.314 . S
N571 C570 1.279 . S
C572 C574 1.353 . S
C572 N575 1.314 . S
C572 H578 0.930 . S
C573 N575 1.279 . S
C573 C576 1.358 . S
C573 H579 0.930 . S
C574 C572 1.353 . S
C574 C577 1.348 . S
C574 H612 0.929 . S
N575 Li530 1.990 . S
N575 C572 1.314 . S
N575 C573 1.279 . S
C576 C573 1.358 . S
C576 C577 1.356 . S
C576 H613 0.930 . S
C577 C574 1.348 . S
C577 C576 1.356 . S
H578 C572 0.930 . S
H579 C573 0.930 . S
C580 N581 1.314 . S
C580 C582 1.353 . S
C580 H586 0.930 . S
N581 Li531 1.990 . S
N581 C580 1.314 . S
N581 C584 1.279 . S
C582 C580 1.353 . S
C582 C585 1.348 . S
C582 H614 0.929 . S
C583 C584 1.358 . S
C583 C585 1.356 . S
C583 H615 0.930 . S
C584 N581 1.279 . S
C584 C583 1.358 . S
C584 H587 0.930 . S
C585 C582 1.348 . S
C585 C583 1.356 . S
H586 C580 0.930 . S
H587 C584 0.930 . S
O588 Li528 1.956 . S
O588 Li529 1.970 . S
O588 Li530 1.961 . S
O588 C532 1.325 1_556 S
O589 Li528 1.970 . S
O589 Li529 1.956 . S
O589 Li531 1.961 . S
O589 C538 1.325 . S
O590 Li528 1.961 . S
O590 Li530 1.956 . S
O590 Li531 1.970 . S
O590 C560 1.325 . S
O591 Li529 1.961 . S
O591 Li530 1.970 . S
O591 Li531 1.956 . S
O591 C566 1.325 . S
H592 C534 0.929 . S
H593 C535 0.930 1_556 S
H594 C536 0.930 . S
H595 C537 0.930 . S
H596 C539 0.930 . S
H597 C541 0.929 . S
H598 C542 0.930 . S
H599 C543 0.930 . S
H600 C546 0.930 . S
H601 C549 0.929 . S
H602 C554 0.929 . S
H603 C555 0.930 . S
H604 C562 0.929 . S
H605 C563 0.930 . S
H606 C564 0.930 . S
H607 C565 0.930 . S
H608 C567 0.929 . S
H609 C568 0.930 . S
H610 C569 0.930 . S
H611 C570 0.930 . S
H612 C574 0.929 . S
H613 C576 0.930 . S
H614 C582 0.929 . S
H615 C583 0.930 . S
Li616 N633 1.990 . S
Li616 O676 1.956 . S
Li616 O677 1.970 . S
Li616 O678 1.961 . S
Li617 N641 1.990 1_556 S
Li617 O676 1.970 . S
Li617 O677 1.956 . S
Li617 O679 1.961 . S
Li618 N663 1.990 . S
Li618 O676 1.961 . S
Li618 O678 1.956 . S
Li618 O679 1.970 . S
Li619 N669 1.990 . S
Li619 O677 1.961 . S
Li619 O678 1.970 . S
Li619 O679 1.956 . S
C620 C622 1.348 . S
C620 C623 1.356 . S
C620 O676 1.325 1_554 S
N621 C624 1.314 . S
N621 C625 1.279 . S
C622 C620 1.348 . S
C622 C624 1.353 . S
C622 H680 0.929 . S
C623 C620 1.356 . S
C623 C625 1.358 . S
C623 H681 0.930 1_554 S
C624 N621 1.314 . S
C624 C622 1.353 . S
C624 H682 0.930 . S
C625 N621 1.279 . S
C625 C623 1.358 . S
C625 H683 0.930 . S
C626 C629 1.348 . S
C626 C630 1.356 . S
C626 O677 1.325 . S
C627 N628 1.279 . S
C627 C630 1.358 . S
C627 H684 0.930 . S
N628 C627 1.279 . S
N628 C631 1.314 . S
C629 C626 1.348 . S
C629 C631 1.353 . S
C629 H685 0.929 . S
C630 C626 1.356 . S
C630 C627 1.358 . S
C630 H686 0.930 . S
C631 N628 1.314 . S
C631 C629 1.353 . S
C631 H687 0.930 . S
C632 N633 1.314 . S
C632 C637 1.353 . S
C632 H638 0.930 . S
N633 Li616 1.990 . S
N633 C632 1.314 . S
N633 C635 1.279 . S
C634 C635 1.358 . S
C634 C636 1.356 . S
C634 H688 0.930 . S
C635 N633 1.279 . S
C635 C634 1.358 . S
C635 H639 0.930 . S
C636 C634 1.356 . S
C636 C637 1.348 . S
C637 C632 1.353 . S
C637 C636 1.348 . S
C637 H689 0.929 . S
H638 C632 0.930 . S
H639 C635 0.930 . S
C640 N641 1.314 . S
C640 C642 1.353 . S
C640 H646 0.930 . S
N641 Li617 1.990 1_554 S
N641 C640 1.314 . S
N641 C644 1.279 . S
C642 C640 1.353 . S
C642 C645 1.348 . S
C642 H690 0.929 . S
C643 C644 1.358 . S
C643 C645 1.356 . S
C643 H691 0.930 . S
C644 N641 1.279 . S
C644 C643 1.358 . S
C644 H647 0.930 . S
C645 C642 1.348 . S
C645 C643 1.356 . S
H646 C640 0.930 . S
H647 C644 0.930 . S
C648 C650 1.348 . S
C648 C651 1.356 . S
C648 O678 1.325 . S
N649 C652 1.314 . S
N649 C653 1.279 . S
C650 C648 1.348 . S
C650 C652 1.353 . S
C650 H692 0.929 . S
C651 C648 1.356 . S
C651 C653 1.358 . S
C651 H693 0.930 . S
C652 N649 1.314 . S
C652 C650 1.353 . S
C652 H694 0.930 . S
C653 N649 1.279 . S
C653 C651 1.358 . S
C653 H695 0.930 . S
C654 C655 1.348 . S
C654 C656 1.356 . S
C654 O679 1.325 . S
C655 C654 1.348 . S
C655 C657 1.353 . S
C655 H696 0.929 . S
C656 C654 1.356 . S
C656 C658 1.358 . S
C656 H697 0.930 . S
C657 C655 1.353 . S
C657 N659 1.314 . S
C657 H698 0.930 . S
C658 C656 1.358 . S
C658 N659 1.279 . S
C658 H699 0.930 . S
N659 C657 1.314 . S
N659 C658 1.279 . S
C660 C662 1.353 . S
C660 N663 1.314 . S
C660 H666 0.930 . S
C661 N663 1.279 . S
C661 C664 1.358 . S
C661 H667 0.930 . S
C662 C660 1.353 . S
C662 C665 1.348 . S
C662 H700 0.929 . S
N663 Li618 1.990 . S
N663 C660 1.314 . S
N663 C661 1.279 . S
C664 C661 1.358 . S
C664 C665 1.356 . S
C664 H701 0.930 . S
C665 C662 1.348 . S
C665 C664 1.356 . S
H666 C660 0.930 . S
H667 C661 0.930 . S
C668 N669 1.314 . S
C668 C670 1.353 . S
C668 H674 0.930 . S
N669 Li619 1.990 . S
N669 C668 1.314 . S
N669 C672 1.279 . S
C670 C668 1.353 . S
C670 C673 1.348 . S
C670 H702 0.929 . S
C671 C672 1.358 . S
C671 C673 1.356 . S
C671 H703 0.930 . S
C672 N669 1.279 . S
C672 C671 1.358 . S
C672 H675 0.930 . S
C673 C670 1.348 . S
C673 C671 1.356 . S
H674 C668 0.930 . S
H675 C672 0.930 . S
O676 Li616 1.956 . S
O676 Li617 1.970 . S
O676 Li618 1.961 . S
O676 C620 1.325 1_556 S
O677 Li616 1.970 . S
O677 Li617 1.956 . S
O677 Li619 1.961 . S
O677 C626 1.325 . S
O678 Li616 1.961 . S
O678 Li618 1.956 . S
O678 Li619 1.970 . S
O678 C648 1.325 . S
O679 Li617 1.961 . S
O679 Li618 1.970 . S
O679 Li619 1.956 . S
O679 C654 1.325 . S
H680 C622 0.929 . S
H681 C623 0.930 1_556 S
H682 C624 0.930 . S
H683 C625 0.930 . S
H684 C627 0.930 . S
H685 C629 0.929 . S
H686 C630 0.930 . S
H687 C631 0.930 . S
H688 C634 0.930 . S
H689 C637 0.929 . S
H690 C642 0.929 . S
H691 C643 0.930 . S
H692 C650 0.929 . S
H693 C651 0.930 . S
H694 C652 0.930 . S
H695 C653 0.930 . S
H696 C655 0.929 . S
H697 C656 0.930 . S
H698 C657 0.930 . S
H699 C658 0.930 . S
H700 C662 0.929 . S
H701 C664 0.930 . S
H702 C670 0.929 . S
H703 C671 0.930 . S
Li704 N721 1.990 . S
Li704 O764 1.956 . S
Li704 O765 1.970 . S
Li704 O766 1.961 . S
Li705 N729 1.990 1_556 S
Li705 O764 1.970 . S
Li705 O765 1.956 . S
Li705 O767 1.961 . S
Li706 N751 1.990 . S
Li706 O764 1.961 . S
Li706 O766 1.956 . S
Li706 O767 1.970 . S
Li707 N757 1.990 . S
Li707 O765 1.961 . S
Li707 O766 1.970 . S
Li707 O767 1.956 . S
C708 C710 1.348 . S
C708 C711 1.356 . S
C708 O764 1.325 1_554 S
N709 C712 1.314 . S
N709 C713 1.279 . S
C710 C708 1.348 . S
C710 C712 1.353 . S
C710 H768 0.929 . S
C711 C708 1.356 . S
C711 C713 1.358 . S
C711 H769 0.930 1_554 S
C712 N709 1.314 . S
C712 C710 1.353 . S
C712 H770 0.930 . S
C713 N709 1.279 . S
C713 C711 1.358 . S
C713 H771 0.930 . S
C714 C717 1.348 . S
C714 C718 1.356 . S
C714 O765 1.325 . S
C715 N716 1.279 . S
C715 C718 1.358 . S
C715 H772 0.930 . S
N716 C715 1.279 . S
N716 C719 1.314 . S
C717 C714 1.348 . S
C717 C719 1.353 . S
C717 H773 0.929 . S
C718 C714 1.356 . S
C718 C715 1.358 . S
C718 H774 0.930 . S
C719 N716 1.314 . S
C719 C717 1.353 . S
C719 H775 0.930 . S
C720 N721 1.314 . S
C720 C725 1.353 . S
C720 H726 0.930 . S
N721 Li704 1.990 . S
N721 C720 1.314 . S
N721 C723 1.279 . S
C722 C723 1.358 . S
C722 C724 1.356 . S
C722 H776 0.930 . S
C723 N721 1.279 . S
C723 C722 1.358 . S
C723 H727 0.930 . S
C724 C722 1.356 . S
C724 C725 1.348 . S
C725 C720 1.353 . S
C725 C724 1.348 . S
C725 H777 0.929 . S
H726 C720 0.930 . S
H727 C723 0.930 . S
C728 N729 1.314 . S
C728 C730 1.353 . S
C728 H734 0.930 . S
N729 Li705 1.990 1_554 S
N729 C728 1.314 . S
N729 C732 1.279 . S
C730 C728 1.353 . S
C730 C733 1.348 . S
C730 H778 0.929 . S
C731 C732 1.358 . S
C731 C733 1.356 . S
C731 H779 0.930 . S
C732 N729 1.279 . S
C732 C731 1.358 . S
C732 H735 0.930 . S
C733 C730 1.348 . S
C733 C731 1.356 . S
H734 C728 0.930 . S
H735 C732 0.930 . S
C736 C738 1.348 . S
C736 C739 1.356 . S
C736 O766 1.325 . S
N737 C740 1.314 . S
N737 C741 1.279 . S
C738 C736 1.348 . S
C738 C740 1.353 . S
C738 H780 0.929 . S
C739 C736 1.356 . S
C739 C741 1.358 . S
C739 H781 0.930 . S
C740 N737 1.314 . S
C740 C738 1.353 . S
C740 H782 0.930 . S
C741 N737 1.279 . S
C741 C739 1.358 . S
C741 H783 0.930 . S
C742 C743 1.348 . S
C742 C744 1.356 . S
C742 O767 1.325 . S
C743 C742 1.348 . S
C743 C745 1.353 . S
C743 H784 0.929 . S
C744 C742 1.356 . S
C744 C746 1.358 . S
C744 H785 0.930 . S
C745 C743 1.353 . S
C745 N747 1.314 . S
C745 H786 0.930 . S
C746 C744 1.358 . S
C746 N747 1.279 . S
C746 H787 0.930 . S
N747 C745 1.314 . S
N747 C746 1.279 . S
C748 C750 1.353 . S
C748 N751 1.314 . S
C748 H754 0.930 . S
C749 N751 1.279 . S
C749 C752 1.358 . S
C749 H755 0.930 . S
C750 C748 1.353 . S
C750 C753 1.348 . S
C750 H788 0.929 . S
N751 Li706 1.990 . S
N751 C748 1.314 . S
N751 C749 1.279 . S
C752 C749 1.358 . S
C752 C753 1.356 . S
C752 H789 0.930 . S
C753 C750 1.348 . S
C753 C752 1.356 . S
H754 C748 0.930 . S
H755 C749 0.930 . S
C756 N757 1.314 . S
C756 C758 1.353 . S
C756 H762 0.930 . S
N757 Li707 1.990 . S
N757 C756 1.314 . S
N757 C760 1.279 . S
C758 C756 1.353 . S
C758 C761 1.348 . S
C758 H790 0.929 . S
C759 C760 1.358 . S
C759 C761 1.356 . S
C759 H791 0.930 . S
C760 N757 1.279 . S
C760 C759 1.358 . S
C760 H763 0.930 . S
C761 C758 1.348 . S
C761 C759 1.356 . S
H762 C756 0.930 . S
H763 C760 0.930 . S
O764 Li704 1.956 . S
O764 Li705 1.970 . S
O764 Li706 1.961 . S
O764 C708 1.325 1_556 S
O765 Li704 1.970 . S
O765 Li705 1.956 . S
O765 Li707 1.961 . S
O765 C714 1.325 . S
O766 Li704 1.961 . S
O766 Li706 1.956 . S
O766 Li707 1.970 . S
O766 C736 1.325 . S
O767 Li705 1.961 . S
O767 Li706 1.970 . S
O767 Li707 1.956 . S
O767 C742 1.325 . S
H768 C710 0.929 . S
H769 C711 0.930 1_556 S
H770 C712 0.930 . S
H771 C713 0.930 . S
H772 C715 0.930 . S
H773 C717 0.929 . S
H774 C718 0.930 . S
H775 C719 0.930 . S
H776 C722 0.930 . S
H777 C725 0.929 . S
H778 C730 0.929 . S
H779 C731 0.930 . S
H780 C738 0.929 . S
H781 C739 0.930 . S
H782 C740 0.930 . S
H783 C741 0.930 . S
H784 C743 0.929 . S
H785 C744 0.930 . S
H786 C745 0.930 . S
H787 C746 0.930 . S
H788 C750 0.929 . S
H789 C752 0.930 . S
H790 C758 0.929 . S
H791 C759 0.930 . S
Li792 N809 1.990 . S
Li792 O852 1.956 . S
Li792 O853 1.970 . S
Li792 O854 1.961 . S
Li793 N817 1.990 . S
Li793 O852 1.970 . S
Li793 O853 1.956 . S
Li793 O855 1.961 . S
Li794 N839 1.990 . S
Li794 O852 1.961 . S
Li794 O854 1.956 . S
Li794 O855 1.970 . S
Li795 N845 1.990 1_554 S
Li795 O853 1.961 . S
Li795 O854 1.970 . S
Li795 O855 1.956 . S
C796 C798 1.348 . S
C796 C799 1.356 . S
C796 O852 1.325 . S
N797 C800 1.314 . S
N797 C801 1.279 . S
C798 C796 1.348 . S
C798 C800 1.353 . S
C798 H856 0.929 . S
C799 C796 1.356 . S
C799 C801 1.358 . S
C799 H857 0.930 . S
C800 N797 1.314 . S
C800 C798 1.353 . S
C800 H858 0.930 . S
C801 N797 1.279 . S
C801 C799 1.358 . S
C801 H859 0.930 . S
C802 C805 1.348 . S
C802 C806 1.356 . S
C802 O853 1.325 . S
C803 N804 1.279 . S
C803 C806 1.358 . S
C803 H860 0.930 . S
N804 C803 1.279 . S
N804 C807 1.314 . S
C805 C802 1.348 . S
C805 C807 1.353 . S
C805 H861 0.929 . S
C806 C802 1.356 . S
C806 C803 1.358 . S
C806 H862 0.930 . S
C807 N804 1.314 . S
C807 C805 1.353 . S
C807 H863 0.930 . S
C808 N809 1.314 . S
C808 C813 1.353 . S
C808 H814 0.930 . S
N809 Li792 1.990 . S
N809 C808 1.314 . S
N809 C811 1.279 . S
C810 C811 1.358 . S
C810 C812 1.356 . S
C810 H864 0.930 . S
C811 N809 1.279 . S
C811 C810 1.358 . S
C811 H815 0.930 . S
C812 C810 1.356 . S
C812 C813 1.348 . S
C813 C808 1.353 . S
C813 C812 1.348 . S
C813 H865 0.929 . S
H814 C808 0.930 . S
H815 C811 0.930 . S
C816 N817 1.314 . S
C816 C818 1.353 . S
C816 H822 0.930 . S
N817 Li793 1.990 . S
N817 C816 1.314 . S
N817 C820 1.279 . S
C818 C816 1.353 . S
C818 C821 1.348 . S
C818 H866 0.929 . S
C819 C820 1.358 . S
C819 C821 1.356 . S
C819 H867 0.930 . S
C820 N817 1.279 . S
C820 C819 1.358 . S
C820 H823 0.930 . S
C821 C818 1.348 . S
C821 C819 1.356 . S
H822 C816 0.930 . S
H823 C820 0.930 . S
C824 C826 1.348 . S
C824 C827 1.356 . S
C824 O854 1.325 1_556 S
N825 C828 1.314 . S
N825 C829 1.279 . S
C826 C824 1.348 . S
C826 C828 1.353 . S
C826 H868 0.929 . S
C827 C824 1.356 . S
C827 C829 1.358 . S
C827 H869 0.930 1_556 S
C828 N825 1.314 . S
C828 C826 1.353 . S
C828 H870 0.930 . S
C829 N825 1.279 . S
C829 C827 1.358 . S
C829 H871 0.930 . S
C830 C831 1.348 . S
C830 C832 1.356 . S
C830 O855 1.325 . S
C831 C830 1.348 . S
C831 C833 1.353 . S
C831 H872 0.929 . S
C832 C830 1.356 . S
C832 C834 1.358 . S
C832 H873 0.930 . S
C833 C831 1.353 . S
C833 N835 1.314 . S
C833 H874 0.930 . S
C834 C832 1.358 . S
C834 N835 1.279 . S
C834 H875 0.930 . S
N835 C833 1.314 . S
N835 C834 1.279 . S
C836 C838 1.353 . S
C836 N839 1.314 . S
C836 H842 0.930 . S
C837 N839 1.279 . S
C837 C840 1.358 . S
C837 H843 0.930 . S
C838 C836 1.353 . S
C838 C841 1.348 . S
C838 H876 0.929 . S
N839 Li794 1.990 . S
N839 C836 1.314 . S
N839 C837 1.279 . S
C840 C837 1.358 . S
C840 C841 1.356 . S
C840 H877 0.930 . S
C841 C838 1.348 . S
C841 C840 1.356 . S
H842 C836 0.930 . S
H843 C837 0.930 . S
C844 N845 1.314 . S
C844 C846 1.353 . S
C844 H850 0.930 . S
N845 Li795 1.990 1_556 S
N845 C844 1.314 . S
N845 C848 1.279 . S
C846 C844 1.353 . S
C846 C849 1.348 . S
C846 H878 0.929 . S
C847 C848 1.358 . S
C847 C849 1.356 . S
C847 H879 0.930 . S
C848 N845 1.279 . S
C848 C847 1.358 . S
C848 H851 0.930 . S
C849 C846 1.348 . S
C849 C847 1.356 . S
H850 C844 0.930 . S
H851 C848 0.930 . S
O852 Li792 1.956 . S
O852 Li793 1.970 . S
O852 Li794 1.961 . S
O852 C796 1.325 . S
O853 Li792 1.970 . S
O853 Li793 1.956 . S
O853 Li795 1.961 . S
O853 C802 1.325 . S
O854 Li792 1.961 . S
O854 Li794 1.956 . S
O854 Li795 1.970 . S
O854 C824 1.325 1_554 S
O855 Li793 1.961 . S
O855 Li794 1.970 . S
O855 Li795 1.956 . S
O855 C830 1.325 . S
H856 C798 0.929 . S
H857 C799 0.930 . S
H858 C800 0.930 . S
H859 C801 0.930 . S
H860 C803 0.930 . S
H861 C805 0.929 . S
H862 C806 0.930 . S
H863 C807 0.930 . S
H864 C810 0.930 . S
H865 C813 0.929 . S
H866 C818 0.929 . S
H867 C819 0.930 . S
H868 C826 0.929 . S
H869 C827 0.930 1_554 S
H870 C828 0.930 . S
H871 C829 0.930 . S
H872 C831 0.929 . S
H873 C832 0.930 . S
H874 C833 0.930 . S
H875 C834 0.930 . S
H876 C838 0.929 . S
H877 C840 0.930 . S
H878 C846 0.929 . S
H879 C847 0.930 . S
Li880 N897 1.990 1_554 S
Li880 O940 1.956 . S
Li880 O941 1.970 . S
Li880 O942 1.961 . S
Li881 N905 1.990 . S
Li881 O940 1.970 . S
Li881 O941 1.956 . S
Li881 O943 1.961 . S
Li882 N927 1.990 . S
Li882 O940 1.961 . S
Li882 O942 1.956 . S
Li882 O943 1.970 . S
Li883 N933 1.990 . S
Li883 O941 1.961 . S
Li883 O942 1.970 . S
Li883 O943 1.956 . S
C884 C886 1.348 . S
C884 C887 1.356 . S
C884 O940 1.325 . S
N885 C888 1.314 . S
N885 C889 1.279 . S
C886 C884 1.348 . S
C886 C888 1.353 . S
C886 H944 0.929 . S
C887 C884 1.356 . S
C887 C889 1.358 . S
C887 H945 0.930 . S
C888 N885 1.314 . S
C888 C886 1.353 . S
C888 H946 0.930 . S
C889 N885 1.279 . S
C889 C887 1.358 . S
C889 H947 0.930 . S
C890 C893 1.348 . S
C890 C894 1.356 . S
C890 O941 1.325 1_556 S
C891 N892 1.279 . S
C891 C894 1.358 . S
C891 H948 0.930 . S
N892 C891 1.279 . S
N892 C895 1.314 . S
C893 C890 1.348 . S
C893 C895 1.353 . S
C893 H949 0.929 . S
C894 C890 1.356 . S
C894 C891 1.358 . S
C894 H950 0.930 1_556 S
C895 N892 1.314 . S
C895 C893 1.353 . S
C895 H951 0.930 . S
C896 N897 1.314 . S
C896 C901 1.353 . S
C896 H902 0.930 . S
N897 Li880 1.990 1_556 S
N897 C896 1.314 . S
N897 C899 1.279 . S
C898 C899 1.358 . S
C898 C900 1.356 . S
C898 H952 0.930 . S
C899 N897 1.279 . S
C899 C898 1.358 . S
C899 H903 0.930 . S
C900 C898 1.356 . S
C900 C901 1.348 . S
C901 C896 1.353 . S
C901 C900 1.348 . S
C901 H953 0.929 . S
H902 C896 0.930 . S
H903 C899 0.930 . S
C904 N905 1.314 . S
C904 C906 1.353 . S
C904 H910 0.930 . S
N905 Li881 1.990 . S
N905 C904 1.314 . S
N905 C908 1.279 . S
C906 C904 1.353 . S
C906 C909 1.348 . S
C906 H954 0.929 . S
C907 C908 1.358 . S
C907 C909 1.356 . S
C907 H955 0.930 . S
C908 N905 1.279 . S
C908 C907 1.358 . S
C908 H911 0.930 . S
C909 C906 1.348 . S
C909 C907 1.356 . S
H910 C904 0.930 . S
H911 C908 0.930 . S
C912 C914 1.348 . S
C912 C915 1.356 . S
C912 O942 1.325 . S
N913 C916 1.314 . S
N913 C917 1.279 . S
C914 C912 1.348 . S
C914 C916 1.353 . S
C914 H956 0.929 . S
C915 C912 1.356 . S
C915 C917 1.358 . S
C915 H957 0.930 . S
C916 N913 1.314 . S
C916 C914 1.353 . S
C916 H958 0.930 . S
C917 N913 1.279 . S
C917 C915 1.358 . S
C917 H959 0.930 . S
C918 C919 1.348 . S
C918 C920 1.356 . S
C918 O943 1.325 . S
C919 C918 1.348 . S
C919 C921 1.353 . S
C919 H960 0.929 . S
C920 C918 1.356 . S
C920 C922 1.358 . S
C920 H961 0.930 . S
C921 C919 1.353 . S
C921 N923 1.314 . S
C921 H962 0.930 . S
C922 C920 1.358 . S
C922 N923 1.279 . S
C922 H963 0.930 . S
N923 C921 1.314 . S
N923 C922 1.279 . S
C924 C926 1.353 . S
C924 N927 1.314 . S
C924 H930 0.930 . S
C925 N927 1.279 . S
C925 C928 1.358 . S
C925 H931 0.930 . S
C926 C924 1.353 . S
C926 C929 1.348 . S
C926 H964 0.929 . S
N927 Li882 1.990 . S
N927 C924 1.314 . S
N927 C925 1.279 . S
C928 C925 1.358 . S
C928 C929 1.356 . S
C928 H965 0.930 . S
C929 C926 1.348 . S
C929 C928 1.356 . S
H930 C924 0.930 . S
H931 C925 0.930 . S
C932 N933 1.314 . S
C932 C934 1.353 . S
C932 H938 0.930 . S
N933 Li883 1.990 . S
N933 C932 1.314 . S
N933 C936 1.279 . S
C934 C932 1.353 . S
C934 C937 1.348 . S
C934 H966 0.929 . S
C935 C936 1.358 . S
C935 C937 1.356 . S
C935 H967 0.930 . S
C936 N933 1.279 . S
C936 C935 1.358 . S
C936 H939 0.930 . S
C937 C934 1.348 . S
C937 C935 1.356 . S
H938 C932 0.930 . S
H939 C936 0.930 . S
O940 Li880 1.956 . S
O940 Li881 1.970 . S
O940 Li882 1.961 . S
O940 C884 1.325 . S
O941 Li880 1.970 . S
O941 Li881 1.956 . S
O941 Li883 1.961 . S
O941 C890 1.325 1_554 S
O942 Li880 1.961 . S
O942 Li882 1.956 . S
O942 Li883 1.970 . S
O942 C912 1.325 . S
O943 Li881 1.961 . S
O943 Li882 1.970 . S
O943 Li883 1.956 . S
O943 C918 1.325 . S
H944 C886 0.929 . S
H945 C887 0.930 . S
H946 C888 0.930 . S
H947 C889 0.930 . S
H948 C891 0.930 . S
H949 C893 0.929 . S
H950 C894 0.930 1_554 S
H951 C895 0.930 . S
H952 C898 0.930 . S
H953 C901 0.929 . S
H954 C906 0.929 . S
H955 C907 0.930 . S
H956 C914 0.929 . S
H957 C915 0.930 . S
H958 C916 0.930 . S
H959 C917 0.930 . S
H960 C919 0.929 . S
H961 C920 0.930 . S
H962 C921 0.930 . S
H963 C922 0.930 . S
H964 C926 0.929 . S
H965 C928 0.930 . S
H966 C934 0.929 . S
H967 C935 0.930 . S
Li968 N985 1.990 . S
Li968 O1028 1.956 . S
Li968 O1029 1.970 . S
Li968 O1030 1.961 . S
Li969 N993 1.990 . S
Li969 O1028 1.970 . S
Li969 O1029 1.956 . S
Li969 O1031 1.961 . S
Li970 N1015 1.990 . S
Li970 O1028 1.961 . S
Li970 O1030 1.956 . S
Li970 O1031 1.970 . S
Li971 N1021 1.990 1_554 S
Li971 O1029 1.961 . S
Li971 O1030 1.970 . S
Li971 O1031 1.956 . S
C972 C974 1.348 . S
C972 C975 1.356 . S
C972 O1028 1.325 . S
N973 C976 1.314 . S
N973 C977 1.279 . S
C974 C972 1.348 . S
C974 C976 1.353 . S
C974 H1032 0.929 . S
C975 C972 1.356 . S
C975 C977 1.358 . S
C975 H1033 0.930 . S
C976 N973 1.314 . S
C976 C974 1.353 . S
C976 H1034 0.930 . S
C977 N973 1.279 . S
C977 C975 1.358 . S
C977 H1035 0.930 . S
C978 C981 1.348 . S
C978 C982 1.356 . S
C978 O1029 1.325 . S
C979 N980 1.279 . S
C979 C982 1.358 . S
C979 H1036 0.930 . S
N980 C979 1.279 . S
N980 C983 1.314 . S
C981 C978 1.348 . S
C981 C983 1.353 . S
C981 H1037 0.929 . S
C982 C978 1.356 . S
C982 C979 1.358 . S
C982 H1038 0.930 . S
C983 N980 1.314 . S
C983 C981 1.353 . S
C983 H1039 0.930 . S
C984 N985 1.314 . S
C984 C989 1.353 . S
C984 H990 0.930 . S
N985 Li968 1.990 . S
N985 C984 1.314 . S
N985 C987 1.279 . S
C986 C987 1.358 . S
C986 C988 1.356 . S
C986 H1040 0.930 . S
C987 N985 1.279 . S
C987 C986 1.358 . S
C987 H991 0.930 . S
C988 C986 1.356 . S
C988 C989 1.348 . S
C989 C984 1.353 . S
C989 C988 1.348 . S
C989 H1041 0.929 . S
H990 C984 0.930 . S
H991 C987 0.930 . S
C992 N993 1.314 . S
C992 C994 1.353 . S
C992 H998 0.930 . S
N993 Li969 1.990 . S
N993 C992 1.314 . S
N993 C996 1.279 . S
C994 C992 1.353 . S
C994 C997 1.348 . S
C994 H1042 0.929 . S
C995 C996 1.358 . S
C995 C997 1.356 . S
C995 H1043 0.930 . S
C996 N993 1.279 . S
C996 C995 1.358 . S
C996 H999 0.930 . S
C997 C994 1.348 . S
C997 C995 1.356 . S
H998 C992 0.930 . S
H999 C996 0.930 . S
C1000 C1002 1.348 . S
C1000 C1003 1.356 . S
C1000 O1030 1.325 1_556 S
N1001 C1004 1.314 . S
N1001 C1005 1.279 . S
C1002 C1000 1.348 . S
C1002 C1004 1.353 . S
C1002 H1044 0.929 . S
C1003 C1000 1.356 . S
C1003 C1005 1.358 . S
C1003 H1045 0.930 1_556 S
C1004 N1001 1.314 . S
C1004 C1002 1.353 . S
C1004 H1046 0.930 . S
C1005 N1001 1.279 . S
C1005 C1003 1.358 . S
C1005 H1047 0.930 . S
C1006 C1007 1.348 . S
C1006 C1008 1.356 . S
C1006 O1031 1.325 . S
C1007 C1006 1.348 . S
C1007 C1009 1.353 . S
C1007 H1048 0.929 . S
C1008 C1006 1.356 . S
C1008 C1010 1.358 . S
C1008 H1049 0.930 . S
C1009 C1007 1.353 . S
C1009 N1011 1.314 . S
C1009 H1050 0.930 . S
C1010 C1008 1.358 . S
C1010 N1011 1.279 . S
C1010 H1051 0.930 . S
N1011 C1009 1.314 . S
N1011 C1010 1.279 . S
C1012 C1014 1.353 . S
C1012 N1015 1.314 . S
C1012 H1018 0.930 . S
C1013 N1015 1.279 . S
C1013 C1016 1.358 . S
C1013 H1019 0.930 . S
C1014 C1012 1.353 . S
C1014 C1017 1.348 . S
C1014 H1052 0.929 . S
N1015 Li970 1.990 . S
N1015 C1012 1.314 . S
N1015 C1013 1.279 . S
C1016 C1013 1.358 . S
C1016 C1017 1.356 . S
C1016 H1053 0.930 . S
C1017 C1014 1.348 . S
C1017 C1016 1.356 . S
H1018 C1012 0.930 . S
H1019 C1013 0.930 . S
C1020 N1021 1.314 . S
C1020 C1022 1.353 . S
C1020 H1026 0.930 . S
N1021 Li971 1.990 1_556 S
N1021 C1020 1.314 . S
N1021 C1024 1.279 . S
C1022 C1020 1.353 . S
C1022 C1025 1.348 . S
C1022 H1054 0.929 . S
C1023 C1024 1.358 . S
C1023 C1025 1.356 . S
C1023 H1055 0.930 . S
C1024 N1021 1.279 . S
C1024 C1023 1.358 . S
C1024 H1027 0.930 . S
C1025 C1022 1.348 . S
C1025 C1023 1.356 . S
H1026 C1020 0.930 . S
H1027 C1024 0.930 . S
O1028 Li968 1.956 . S
O1028 Li969 1.970 . S
O1028 Li970 1.961 . S
O1028 C972 1.325 . S
O1029 Li968 1.970 . S
O1029 Li969 1.956 . S
O1029 Li971 1.961 . S
O1029 C978 1.325 . S
O1030 Li968 1.961 . S
O1030 Li970 1.956 . S
O1030 Li971 1.970 . S
O1030 C1000 1.325 1_554 S
O1031 Li969 1.961 . S
O1031 Li970 1.970 . S
O1031 Li971 1.956 . S
O1031 C1006 1.325 . S
H1032 C974 0.929 . S
H1033 C975 0.930 . S
H1034 C976 0.930 . S
H1035 C977 0.930 . S
H1036 C979 0.930 . S
H1037 C981 0.929 . S
H1038 C982 0.930 . S
H1039 C983 0.930 . S
H1040 C986 0.930 . S
H1041 C989 0.929 . S
H1042 C994 0.929 . S
H1043 C995 0.930 . S
H1044 C1002 0.929 . S
H1045 C1003 0.930 1_554 S
H1046 C1004 0.930 . S
H1047 C1005 0.930 . S
H1048 C1007 0.929 . S
H1049 C1008 0.930 . S
H1050 C1009 0.930 . S
H1051 C1010 0.930 . S
H1052 C1014 0.929 . S
H1053 C1016 0.930 . S
H1054 C1022 0.929 . S
H1055 C1023 0.930 . S
Li1056 N1073 1.990 . S
Li1056 O1116 1.956 . S
Li1056 O1117 1.970 . S
Li1056 O1118 1.961 . S
Li1057 N1081 1.990 . S
Li1057 O1116 1.970 . S
Li1057 O1117 1.956 . S
Li1057 O1119 1.961 . S
Li1058 N1103 1.990 . S
Li1058 O1116 1.961 . S
Li1058 O1118 1.956 . S
Li1058 O1119 1.970 . S
Li1059 N1109 1.990 . S
Li1059 O1117 1.961 . S
Li1059 O1118 1.970 . S
Li1059 O1119 1.956 . S
C1060 C1062 1.348 . S
C1060 C1063 1.356 . S
C1060 O1116 1.325 . S
N1061 C1064 1.314 . S
N1061 C1065 1.279 . S
C1062 C1060 1.348 . S
C1062 C1064 1.353 . S
C1062 H1120 0.929 . S
C1063 C1060 1.356 . S
C1063 C1065 1.358 . S
C1063 H1121 0.930 . S
C1064 N1061 1.314 . S
C1064 C1062 1.353 . S
C1064 H1122 0.930 . S
C1065 N1061 1.279 . S
C1065 C1063 1.358 . S
C1065 H1123 0.930 . S
C1066 C1069 1.348 . S
C1066 C1070 1.356 . S
C1066 O1117 1.325 . S
C1067 N1068 1.279 . S
C1067 C1070 1.358 . S
C1067 H1124 0.930 . S
N1068 C1067 1.279 . S
N1068 C1071 1.314 . S
C1069 C1066 1.348 . S
C1069 C1071 1.353 . S
C1069 H1125 0.929 . S
C1070 C1066 1.356 . S
C1070 C1067 1.358 . S
C1070 H1126 0.930 . S
C1071 N1068 1.314 . S
C1071 C1069 1.353 . S
C1071 H1127 0.930 . S
C1072 N1073 1.314 . S
C1072 C1077 1.353 . S
C1072 H1078 0.930 . S
N1073 Li1056 1.990 . S
N1073 C1072 1.314 . S
N1073 C1075 1.279 . S
C1074 C1075 1.358 . S
C1074 C1076 1.356 . S
C1074 H1128 0.930 . S
C1075 N1073 1.279 . S
C1075 C1074 1.358 . S
C1075 H1079 0.930 . S
C1076 C1074 1.356 . S
C1076 C1077 1.348 . S
C1077 C1072 1.353 . S
C1077 C1076 1.348 . S
C1077 H1129 0.929 . S
H1078 C1072 0.930 . S
H1079 C1075 0.930 . S
C1080 N1081 1.314 . S
C1080 C1082 1.353 . S
C1080 H1086 0.930 . S
N1081 Li1057 1.990 . S
N1081 C1080 1.314 . S
N1081 C1084 1.279 . S
C1082 C1080 1.353 . S
C1082 C1085 1.348 . S
C1082 H1130 0.929 . S
C1083 C1084 1.358 . S
C1083 C1085 1.356 . S
C1083 H1131 0.930 . S
C1084 N1081 1.279 . S
C1084 C1083 1.358 . S
C1084 H1087 0.930 . S
C1085 C1082 1.348 . S
C1085 C1083 1.356 . S
H1086 C1080 0.930 . S
H1087 C1084 0.930 . S
C1088 C1090 1.348 . S
C1088 C1091 1.356 . S
C1088 O1118 1.325 . S
N1089 C1092 1.314 . S
N1089 C1093 1.279 . S
C1090 C1088 1.348 . S
C1090 C1092 1.353 . S
C1090 H1132 0.929 . S
C1091 C1088 1.356 . S
C1091 C1093 1.358 . S
C1091 H1133 0.930 . S
C1092 N1089 1.314 . S
C1092 C1090 1.353 . S
C1092 H1134 0.930 . S
C1093 N1089 1.279 . S
C1093 C1091 1.358 . S
C1093 H1135 0.930 . S
C1094 C1095 1.348 . S
C1094 C1096 1.356 . S
C1094 O1119 1.325 . S
C1095 C1094 1.348 . S
C1095 C1097 1.353 . S
C1095 H1136 0.929 . S
C1096 C1094 1.356 . S
C1096 C1098 1.358 . S
C1096 H1137 0.930 . S
C1097 C1095 1.353 . S
C1097 N1099 1.314 . S
C1097 H1138 0.930 . S
C1098 C1096 1.358 . S
C1098 N1099 1.279 . S
C1098 H1139 0.930 . S
N1099 C1097 1.314 . S
N1099 C1098 1.279 . S
C1100 C1102 1.353 . S
C1100 N1103 1.314 . S
C1100 H1106 0.930 . S
C1101 N1103 1.279 . S
C1101 C1104 1.358 . S
C1101 H1107 0.930 . S
C1102 C1100 1.353 . S
C1102 C1105 1.348 . S
C1102 H1140 0.929 . S
N1103 Li1058 1.990 . S
N1103 C1100 1.314 . S
N1103 C1101 1.279 . S
C1104 C1101 1.358 . S
C1104 C1105 1.356 . S
C1104 H1141 0.930 . S
C1105 C1102 1.348 . S
C1105 C1104 1.356 . S
H1106 C1100 0.930 . S
H1107 C1101 0.930 . S
C1108 N1109 1.314 . S
C1108 C1110 1.353 . S
C1108 H1114 0.930 . S
N1109 Li1059 1.990 . S
N1109 C1108 1.314 . S
N1109 C1112 1.279 . S
C1110 C1108 1.353 . S
C1110 C1113 1.348 . S
C1110 H1142 0.929 . S
C1111 C1112 1.358 . S
C1111 C1113 1.356 . S
C1111 H1143 0.930 . S
C1112 N1109 1.279 . S
C1112 C1111 1.358 . S
C1112 H1115 0.930 . S
C1113 C1110 1.348 . S
C1113 C1111 1.356 . S
H1114 C1108 0.930 . S
H1115 C1112 0.930 . S
O1116 Li1056 1.956 . S
O1116 Li1057 1.970 . S
O1116 Li1058 1.961 . S
O1116 C1060 1.325 . S
O1117 Li1056 1.970 . S
O1117 Li1057 1.956 . S
O1117 Li1059 1.961 . S
O1117 C1066 1.325 . S
O1118 Li1056 1.961 . S
O1118 Li1058 1.956 . S
O1118 Li1059 1.970 . S
O1118 C1088 1.325 . S
O1119 Li1057 1.961 . S
O1119 Li1058 1.970 . S
O1119 Li1059 1.956 . S
O1119 C1094 1.325 . S
H1120 C1062 0.929 . S
H1121 C1063 0.930 . S
H1122 C1064 0.930 . S
H1123 C1065 0.930 . S
H1124 C1067 0.930 . S
H1125 C1069 0.929 . S
H1126 C1070 0.930 . S
H1127 C1071 0.930 . S
H1128 C1074 0.930 . S
H1129 C1077 0.929 . S
H1130 C1082 0.929 . S
H1131 C1083 0.930 . S
H1132 C1090 0.929 . S
H1133 C1091 0.930 . S
H1134 C1092 0.930 . S
H1135 C1093 0.930 . S
H1136 C1095 0.929 . S
H1137 C1096 0.930 . S
H1138 C1097 0.930 . S
H1139 C1098 0.930 . S
H1140 C1102 0.929 . S
H1141 C1104 0.930 . S
H1142 C1110 0.929 . S
H1143 C1111 0.930 . S
Li1144 N1161 1.990 . S
Li1144 O1204 1.956 . S
Li1144 O1205 1.970 . S
Li1144 O1206 1.961 . S
Li1145 N1169 1.990 . S
Li1145 O1204 1.970 . S
Li1145 O1205 1.956 . S
Li1145 O1207 1.961 . S
Li1146 N1191 1.990 . S
Li1146 O1204 1.961 . S
Li1146 O1206 1.956 . S
Li1146 O1207 1.970 . S
Li1147 N1197 1.990 . S
Li1147 O1205 1.961 . S
Li1147 O1206 1.970 . S
Li1147 O1207 1.956 . S
C1148 C1150 1.348 . S
C1148 C1151 1.356 . S
C1148 O1204 1.325 . S
N1149 C1152 1.314 . S
N1149 C1153 1.279 . S
C1150 C1148 1.348 . S
C1150 C1152 1.353 . S
C1150 H1208 0.929 . S
C1151 C1148 1.356 . S
C1151 C1153 1.358 . S
C1151 H1209 0.930 . S
C1152 N1149 1.314 . S
C1152 C1150 1.353 . S
C1152 H1210 0.930 . S
C1153 N1149 1.279 . S
C1153 C1151 1.358 . S
C1153 H1211 0.930 . S
C1154 C1157 1.348 . S
C1154 C1158 1.356 . S
C1154 O1205 1.325 . S
C1155 N1156 1.279 . S
C1155 C1158 1.358 . S
C1155 H1212 0.930 . S
N1156 C1155 1.279 . S
N1156 C1159 1.314 . S
C1157 C1154 1.348 . S
C1157 C1159 1.353 . S
C1157 H1213 0.929 . S
C1158 C1154 1.356 . S
C1158 C1155 1.358 . S
C1158 H1214 0.930 . S
C1159 N1156 1.314 . S
C1159 C1157 1.353 . S
C1159 H1215 0.930 . S
C1160 N1161 1.314 . S
C1160 C1165 1.353 . S
C1160 H1166 0.930 . S
N1161 Li1144 1.990 . S
N1161 C1160 1.314 . S
N1161 C1163 1.279 . S
C1162 C1163 1.358 . S
C1162 C1164 1.356 . S
C1162 H1216 0.930 . S
C1163 N1161 1.279 . S
C1163 C1162 1.358 . S
C1163 H1167 0.930 . S
C1164 C1162 1.356 . S
C1164 C1165 1.348 . S
C1165 C1160 1.353 . S
C1165 C1164 1.348 . S
C1165 H1217 0.929 . S
H1166 C1160 0.930 . S
H1167 C1163 0.930 . S
C1168 N1169 1.314 . S
C1168 C1170 1.353 . S
C1168 H1174 0.930 . S
N1169 Li1145 1.990 . S
N1169 C1168 1.314 . S
N1169 C1172 1.279 . S
C1170 C1168 1.353 . S
C1170 C1173 1.348 . S
C1170 H1218 0.929 . S
C1171 C1172 1.358 . S
C1171 C1173 1.356 . S
C1171 H1219 0.930 . S
C1172 N1169 1.279 . S
C1172 C1171 1.358 . S
C1172 H1175 0.930 . S
C1173 C1170 1.348 . S
C1173 C1171 1.356 . S
H1174 C1168 0.930 . S
H1175 C1172 0.930 . S
C1176 C1178 1.348 . S
C1176 C1179 1.356 . S
C1176 O1206 1.325 . S
N1177 C1180 1.314 . S
N1177 C1181 1.279 . S
C1178 C1176 1.348 . S
C1178 C1180 1.353 . S
C1178 H1220 0.929 . S
C1179 C1176 1.356 . S
C1179 C1181 1.358 . S
C1179 H1221 0.930 . S
C1180 N1177 1.314 . S
C1180 C1178 1.353 . S
C1180 H1222 0.930 . S
C1181 N1177 1.279 . S
C1181 C1179 1.358 . S
C1181 H1223 0.930 . S
C1182 C1183 1.348 . S
C1182 C1184 1.356 . S
C1182 O1207 1.325 . S
C1183 C1182 1.348 . S
C1183 C1185 1.353 . S
C1183 H1224 0.929 . S
C1184 C1182 1.356 . S
C1184 C1186 1.358 . S
C1184 H1225 0.930 . S
C1185 C1183 1.353 . S
C1185 N1187 1.314 . S
C1185 H1226 0.930 . S
C1186 C1184 1.358 . S
C1186 N1187 1.279 . S
C1186 H1227 0.930 . S
N1187 C1185 1.314 . S
N1187 C1186 1.279 . S
C1188 C1190 1.353 . S
C1188 N1191 1.314 . S
C1188 H1194 0.930 . S
C1189 N1191 1.279 . S
C1189 C1192 1.358 . S
C1189 H1195 0.930 . S
C1190 C1188 1.353 . S
C1190 C1193 1.348 . S
C1190 H1228 0.929 . S
N1191 Li1146 1.990 . S
N1191 C1188 1.314 . S
N1191 C1189 1.279 . S
C1192 C1189 1.358 . S
C1192 C1193 1.356 . S
C1192 H1229 0.930 . S
C1193 C1190 1.348 . S
C1193 C1192 1.356 . S
H1194 C1188 0.930 . S
H1195 C1189 0.930 . S
C1196 N1197 1.314 . S
C1196 C1198 1.353 . S
C1196 H1202 0.930 . S
N1197 Li1147 1.990 . S
N1197 C1196 1.314 . S
N1197 C1200 1.279 . S
C1198 C1196 1.353 . S
C1198 C1201 1.348 . S
C1198 H1230 0.929 . S
C1199 C1200 1.358 . S
C1199 C1201 1.356 . S
C1199 H1231 0.930 . S
C1200 N1197 1.279 . S
C1200 C1199 1.358 . S
C1200 H1203 0.930 . S
C1201 C1198 1.348 . S
C1201 C1199 1.356 . S
H1202 C1196 0.930 . S
H1203 C1200 0.930 . S
O1204 Li1144 1.956 . S
O1204 Li1145 1.970 . S
O1204 Li1146 1.961 . S
O1204 C1148 1.325 . S
O1205 Li1144 1.970 . S
O1205 Li1145 1.956 . S
O1205 Li1147 1.961 . S
O1205 C1154 1.325 . S
O1206 Li1144 1.961 . S
O1206 Li1146 1.956 . S
O1206 Li1147 1.970 . S
O1206 C1176 1.325 . S
O1207 Li1145 1.961 . S
O1207 Li1146 1.970 . S
O1207 Li1147 1.956 . S
O1207 C1182 1.325 . S
H1208 C1150 0.929 . S
H1209 C1151 0.930 . S
H1210 C1152 0.930 . S
H1211 C1153 0.930 . S
H1212 C1155 0.930 . S
H1213 C1157 0.929 . S
H1214 C1158 0.930 . S
H1215 C1159 0.930 . S
H1216 C1162 0.930 . S
H1217 C1165 0.929 . S
H1218 C1170 0.929 . S
H1219 C1171 0.930 . S
H1220 C1178 0.929 . S
H1221 C1179 0.930 . S
H1222 C1180 0.930 . S
H1223 C1181 0.930 . S
H1224 C1183 0.929 . S
H1225 C1184 0.930 . S
H1226 C1185 0.930 . S
H1227 C1186 0.930 . S
H1228 C1190 0.929 . S
H1229 C1192 0.930 . S
H1230 C1198 0.929 . S
H1231 C1199 0.930 . S
Li1232 N1249 1.990 . S
Li1232 O1292 1.956 . S
Li1232 O1293 1.970 . S
Li1232 O1294 1.961 . S
Li1233 N1257 1.990 . S
Li1233 O1292 1.970 . S
Li1233 O1293 1.956 . S
Li1233 O1295 1.961 . S
Li1234 N1279 1.990 . S
Li1234 O1292 1.961 . S
Li1234 O1294 1.956 . S
Li1234 O1295 1.970 . S
Li1235 N1285 1.990 . S
Li1235 O1293 1.961 . S
Li1235 O1294 1.970 . S
Li1235 O1295 1.956 . S
C1236 C1238 1.348 . S
C1236 C1239 1.356 . S
C1236 O1292 1.325 . S
N1237 C1240 1.314 . S
N1237 C1241 1.279 . S
C1238 C1236 1.348 . S
C1238 C1240 1.353 . S
C1238 H1296 0.929 . S
C1239 C1236 1.356 . S
C1239 C1241 1.358 . S
C1239 H1297 0.930 . S
C1240 N1237 1.314 . S
C1240 C1238 1.353 . S
C1240 H1298 0.930 . S
C1241 N1237 1.279 . S
C1241 C1239 1.358 . S
C1241 H1299 0.930 . S
C1242 C1245 1.348 . S
C1242 C1246 1.356 . S
C1242 O1293 1.325 . S
C1243 N1244 1.279 . S
C1243 C1246 1.358 . S
C1243 H1300 0.930 . S
N1244 C1243 1.279 . S
N1244 C1247 1.314 . S
C1245 C1242 1.348 . S
C1245 C1247 1.353 . S
C1245 H1301 0.929 . S
C1246 C1242 1.356 . S
C1246 C1243 1.358 . S
C1246 H1302 0.930 . S
C1247 N1244 1.314 . S
C1247 C1245 1.353 . S
C1247 H1303 0.930 . S
C1248 N1249 1.314 . S
C1248 C1253 1.353 . S
C1248 H1254 0.930 . S
N1249 Li1232 1.990 . S
N1249 C1248 1.314 . S
N1249 C1251 1.279 . S
C1250 C1251 1.358 . S
C1250 C1252 1.356 . S
C1250 H1304 0.930 . S
C1251 N1249 1.279 . S
C1251 C1250 1.358 . S
C1251 H1255 0.930 . S
C1252 C1250 1.356 . S
C1252 C1253 1.348 . S
C1253 C1248 1.353 . S
C1253 C1252 1.348 . S
C1253 H1305 0.929 . S
H1254 C1248 0.930 . S
H1255 C1251 0.930 . S
C1256 N1257 1.314 . S
C1256 C1258 1.353 . S
C1256 H1262 0.930 . S
N1257 Li1233 1.990 . S
N1257 C1256 1.314 . S
N1257 C1260 1.279 . S
C1258 C1256 1.353 . S
C1258 C1261 1.348 . S
C1258 H1306 0.929 . S
C1259 C1260 1.358 . S
C1259 C1261 1.356 . S
C1259 H1307 0.930 . S
C1260 N1257 1.279 . S
C1260 C1259 1.358 . S
C1260 H1263 0.930 . S
C1261 C1258 1.348 . S
C1261 C1259 1.356 . S
H1262 C1256 0.930 . S
H1263 C1260 0.930 . S
C1264 C1266 1.348 . S
C1264 C1267 1.356 . S
C1264 O1294 1.325 . S
N1265 C1268 1.314 . S
N1265 C1269 1.279 . S
C1266 C1264 1.348 . S
C1266 C1268 1.353 . S
C1266 H1308 0.929 . S
C1267 C1264 1.356 . S
C1267 C1269 1.358 . S
C1267 H1309 0.930 . S
C1268 N1265 1.314 . S
C1268 C1266 1.353 . S
C1268 H1310 0.930 . S
C1269 N1265 1.279 . S
C1269 C1267 1.358 . S
C1269 H1311 0.930 . S
C1270 C1271 1.348 . S
C1270 C1272 1.356 . S
C1270 O1295 1.325 . S
C1271 C1270 1.348 . S
C1271 C1273 1.353 . S
C1271 H1312 0.929 . S
C1272 C1270 1.356 . S
C1272 C1274 1.358 . S
C1272 H1313 0.930 . S
C1273 C1271 1.353 . S
C1273 N1275 1.314 . S
C1273 H1314 0.930 . S
C1274 C1272 1.358 . S
C1274 N1275 1.279 . S
C1274 H1315 0.930 . S
N1275 C1273 1.314 . S
N1275 C1274 1.279 . S
C1276 C1278 1.353 . S
C1276 N1279 1.314 . S
C1276 H1282 0.930 . S
C1277 N1279 1.279 . S
C1277 C1280 1.358 . S
C1277 H1283 0.930 . S
C1278 C1276 1.353 . S
C1278 C1281 1.348 . S
C1278 H1316 0.929 . S
N1279 Li1234 1.990 . S
N1279 C1276 1.314 . S
N1279 C1277 1.279 . S
C1280 C1277 1.358 . S
C1280 C1281 1.356 . S
C1280 H1317 0.930 . S
C1281 C1278 1.348 . S
C1281 C1280 1.356 . S
H1282 C1276 0.930 . S
H1283 C1277 0.930 . S
C1284 N1285 1.314 . S
C1284 C1286 1.353 . S
C1284 H1290 0.930 . S
N1285 Li1235 1.990 . S
N1285 C1284 1.314 . S
N1285 C1288 1.279 . S
C1286 C1284 1.353 . S
C1286 C1289 1.348 . S
C1286 H1318 0.929 . S
C1287 C1288 1.358 . S
C1287 C1289 1.356 . S
C1287 H1319 0.930 . S
C1288 N1285 1.279 . S
C1288 C1287 1.358 . S
C1288 H1291 0.930 . S
C1289 C1286 1.348 . S
C1289 C1287 1.356 . S
H1290 C1284 0.930 . S
H1291 C1288 0.930 . S
O1292 Li1232 1.956 . S
O1292 Li1233 1.970 . S
O1292 Li1234 1.961 . S
O1292 C1236 1.325 . S
O1293 Li1232 1.970 . S
O1293 Li1233 1.956 . S
O1293 Li1235 1.961 . S
O1293 C1242 1.325 . S
O1294 Li1232 1.961 . S
O1294 Li1234 1.956 . S
O1294 Li1235 1.970 . S
O1294 C1264 1.325 . S
O1295 Li1233 1.961 . S
O1295 Li1234 1.970 . S
O1295 Li1235 1.956 . S
O1295 C1270 1.325 . S
H1296 C1238 0.929 . S
H1297 C1239 0.930 . S
H1298 C1240 0.930 . S
H1299 C1241 0.930 . S
H1300 C1243 0.930 . S
H1301 C1245 0.929 . S
H1302 C1246 0.930 . S
H1303 C1247 0.930 . S
H1304 C1250 0.930 . S
H1305 C1253 0.929 . S
H1306 C1258 0.929 . S
H1307 C1259 0.930 . S
H1308 C1266 0.929 . S
H1309 C1267 0.930 . S
H1310 C1268 0.930 . S
H1311 C1269 0.930 . S
H1312 C1271 0.929 . S
H1313 C1272 0.930 . S
H1314 C1273 0.930 . S
H1315 C1274 0.930 . S
H1316 C1278 0.929 . S
H1317 C1280 0.930 . S
H1318 C1286 0.929 . S
H1319 C1287 0.930 . S
Li1320 N1337 1.990 . S
Li1320 O1380 1.956 . S
Li1320 O1381 1.970 . S
Li1320 O1382 1.961 . S
Li1321 N1345 1.990 . S
Li1321 O1380 1.970 . S
Li1321 O1381 1.956 . S
Li1321 O1383 1.961 . S
Li1322 N1367 1.990 . S
Li1322 O1380 1.961 . S
Li1322 O1382 1.956 . S
Li1322 O1383 1.970 . S
Li1323 N1373 1.990 . S
Li1323 O1381 1.961 . S
Li1323 O1382 1.970 . S
Li1323 O1383 1.956 . S
C1324 C1326 1.348 . S
C1324 C1327 1.356 . S
C1324 O1380 1.325 . S
N1325 C1328 1.314 . S
N1325 C1329 1.279 . S
C1326 C1324 1.348 . S
C1326 C1328 1.353 . S
C1326 H1384 0.929 . S
C1327 C1324 1.356 . S
C1327 C1329 1.358 . S
C1327 H1385 0.930 . S
C1328 N1325 1.314 . S
C1328 C1326 1.353 . S
C1328 H1386 0.930 . S
C1329 N1325 1.279 . S
C1329 C1327 1.358 . S
C1329 H1387 0.930 . S
C1330 C1333 1.348 . S
C1330 C1334 1.356 . S
C1330 O1381 1.325 . S
C1331 N1332 1.279 . S
C1331 C1334 1.358 . S
C1331 H1388 0.930 . S
N1332 C1331 1.279 . S
N1332 C1335 1.314 . S
C1333 C1330 1.348 . S
C1333 C1335 1.353 . S
C1333 H1389 0.929 . S
C1334 C1330 1.356 . S
C1334 C1331 1.358 . S
C1334 H1390 0.930 . S
C1335 N1332 1.314 . S
C1335 C1333 1.353 . S
C1335 H1391 0.930 . S
C1336 N1337 1.314 . S
C1336 C1341 1.353 . S
C1336 H1342 0.930 . S
N1337 Li1320 1.990 . S
N1337 C1336 1.314 . S
N1337 C1339 1.279 . S
C1338 C1339 1.358 . S
C1338 C1340 1.356 . S
C1338 H1392 0.930 . S
C1339 N1337 1.279 . S
C1339 C1338 1.358 . S
C1339 H1343 0.930 . S
C1340 C1338 1.356 . S
C1340 C1341 1.348 . S
C1341 C1336 1.353 . S
C1341 C1340 1.348 . S
C1341 H1393 0.929 . S
H1342 C1336 0.930 . S
H1343 C1339 0.930 . S
C1344 N1345 1.314 . S
C1344 C1346 1.353 . S
C1344 H1350 0.930 . S
N1345 Li1321 1.990 . S
N1345 C1344 1.314 . S
N1345 C1348 1.279 . S
C1346 C1344 1.353 . S
C1346 C1349 1.348 . S
C1346 H1394 0.929 . S
C1347 C1348 1.358 . S
C1347 C1349 1.356 . S
C1347 H1395 0.930 . S
C1348 N1345 1.279 . S
C1348 C1347 1.358 . S
C1348 H1351 0.930 . S
C1349 C1346 1.348 . S
C1349 C1347 1.356 . S
H1350 C1344 0.930 . S
H1351 C1348 0.930 . S
C1352 C1354 1.348 . S
C1352 C1355 1.356 . S
C1352 O1382 1.325 . S
N1353 C1356 1.314 . S
N1353 C1357 1.279 . S
C1354 C1352 1.348 . S
C1354 C1356 1.353 . S
C1354 H1396 0.929 . S
C1355 C1352 1.356 . S
C1355 C1357 1.358 . S
C1355 H1397 0.930 . S
C1356 N1353 1.314 . S
C1356 C1354 1.353 . S
C1356 H1398 0.930 . S
C1357 N1353 1.279 . S
C1357 C1355 1.358 . S
C1357 H1399 0.930 . S
C1358 C1359 1.348 . S
C1358 C1360 1.356 . S
C1358 O1383 1.325 . S
C1359 C1358 1.348 . S
C1359 C1361 1.353 . S
C1359 H1400 0.929 . S
C1360 C1358 1.356 . S
C1360 C1362 1.358 . S
C1360 H1401 0.930 . S
C1361 C1359 1.353 . S
C1361 N1363 1.314 . S
C1361 H1402 0.930 . S
C1362 C1360 1.358 . S
C1362 N1363 1.279 . S
C1362 H1403 0.930 . S
N1363 C1361 1.314 . S
N1363 C1362 1.279 . S
C1364 C1366 1.353 . S
C1364 N1367 1.314 . S
C1364 H1370 0.930 . S
C1365 N1367 1.279 . S
C1365 C1368 1.358 . S
C1365 H1371 0.930 . S
C1366 C1364 1.353 . S
C1366 C1369 1.348 . S
C1366 H1404 0.929 . S
N1367 Li1322 1.990 . S
N1367 C1364 1.314 . S
N1367 C1365 1.279 . S
C1368 C1365 1.358 . S
C1368 C1369 1.356 . S
C1368 H1405 0.930 . S
C1369 C1366 1.348 . S
C1369 C1368 1.356 . S
H1370 C1364 0.930 . S
H1371 C1365 0.930 . S
C1372 N1373 1.314 . S
C1372 C1374 1.353 . S
C1372 H1378 0.930 . S
N1373 Li1323 1.990 . S
N1373 C1372 1.314 . S
N1373 C1376 1.279 . S
C1374 C1372 1.353 . S
C1374 C1377 1.348 . S
C1374 H1406 0.929 . S
C1375 C1376 1.358 . S
C1375 C1377 1.356 . S
C1375 H1407 0.930 . S
C1376 N1373 1.279 . S
C1376 C1375 1.358 . S
C1376 H1379 0.930 . S
C1377 C1374 1.348 . S
C1377 C1375 1.356 . S
H1378 C1372 0.930 . S
H1379 C1376 0.930 . S
O1380 Li1320 1.956 . S
O1380 Li1321 1.970 . S
O1380 Li1322 1.961 . S
O1380 C1324 1.325 . S
O1381 Li1320 1.970 . S
O1381 Li1321 1.956 . S
O1381 Li1323 1.961 . S
O1381 C1330 1.325 . S
O1382 Li1320 1.961 . S
O1382 Li1322 1.956 . S
O1382 Li1323 1.970 . S
O1382 C1352 1.325 . S
O1383 Li1321 1.961 . S
O1383 Li1322 1.970 . S
O1383 Li1323 1.956 . S
O1383 C1358 1.325 . S
H1384 C1326 0.929 . S
H1385 C1327 0.930 . S
H1386 C1328 0.930 . S
H1387 C1329 0.930 . S
H1388 C1331 0.930 . S
H1389 C1333 0.929 . S
H1390 C1334 0.930 . S
H1391 C1335 0.930 . S
H1392 C1338 0.930 . S
H1393 C1341 0.929 . S
H1394 C1346 0.929 . S
H1395 C1347 0.930 . S
H1396 C1354 0.929 . S
H1397 C1355 0.930 . S
H1398 C1356 0.930 . S
H1399 C1357 0.930 . S
H1400 C1359 0.929 . S
H1401 C1360 0.930 . S
H1402 C1361 0.930 . S
H1403 C1362 0.930 . S
H1404 C1366 0.929 . S
H1405 C1368 0.930 . S
H1406 C1374 0.929 . S
H1407 C1375 0.930 . S
Li1408 N1425 1.990 . S
Li1408 O1468 1.956 . S
Li1408 O1469 1.970 . S
Li1408 O1470 1.961 . S
Li1409 N1433 1.990 . S
Li1409 O1468 1.970 . S
Li1409 O1469 1.956 . S
Li1409 O1471 1.961 . S
Li1410 N1455 1.990 . S
Li1410 O1468 1.961 . S
Li1410 O1470 1.956 . S
Li1410 O1471 1.970 . S
Li1411 N1461 1.990 . S
Li1411 O1469 1.961 . S
Li1411 O1470 1.970 . S
Li1411 O1471 1.956 . S
C1412 C1414 1.348 . S
C1412 C1415 1.356 . S
C1412 O1468 1.325 . S
N1413 C1416 1.314 . S
N1413 C1417 1.279 . S
C1414 C1412 1.348 . S
C1414 C1416 1.353 . S
C1414 H1472 0.929 . S
C1415 C1412 1.356 . S
C1415 C1417 1.358 . S
C1415 H1473 0.930 . S
C1416 N1413 1.314 . S
C1416 C1414 1.353 . S
C1416 H1474 0.930 . S
C1417 N1413 1.279 . S
C1417 C1415 1.358 . S
C1417 H1475 0.930 . S
C1418 C1421 1.348 . S
C1418 C1422 1.356 . S
C1418 O1469 1.325 . S
C1419 N1420 1.279 . S
C1419 C1422 1.358 . S
C1419 H1476 0.930 . S
N1420 C1419 1.279 . S
N1420 C1423 1.314 . S
C1421 C1418 1.348 . S
C1421 C1423 1.353 . S
C1421 H1477 0.929 . S
C1422 C1418 1.356 . S
C1422 C1419 1.358 . S
C1422 H1478 0.930 . S
C1423 N1420 1.314 . S
C1423 C1421 1.353 . S
C1423 H1479 0.930 . S
C1424 N1425 1.314 . S
C1424 C1429 1.353 . S
C1424 H1430 0.930 . S
N1425 Li1408 1.990 . S
N1425 C1424 1.314 . S
N1425 C1427 1.279 . S
C1426 C1427 1.358 . S
C1426 C1428 1.356 . S
C1426 H1480 0.930 . S
C1427 N1425 1.279 . S
C1427 C1426 1.358 . S
C1427 H1431 0.930 . S
C1428 C1426 1.356 . S
C1428 C1429 1.348 . S
C1429 C1424 1.353 . S
C1429 C1428 1.348 . S
C1429 H1481 0.929 . S
H1430 C1424 0.930 . S
H1431 C1427 0.930 . S
C1432 N1433 1.314 . S
C1432 C1434 1.353 . S
C1432 H1438 0.930 . S
N1433 Li1409 1.990 . S
N1433 C1432 1.314 . S
N1433 C1436 1.279 . S
C1434 C1432 1.353 . S
C1434 C1437 1.348 . S
C1434 H1482 0.929 . S
C1435 C1436 1.358 . S
C1435 C1437 1.356 . S
C1435 H1483 0.930 . S
C1436 N1433 1.279 . S
C1436 C1435 1.358 . S
C1436 H1439 0.930 . S
C1437 C1434 1.348 . S
C1437 C1435 1.356 . S
H1438 C1432 0.930 . S
H1439 C1436 0.930 . S
C1440 C1442 1.348 . S
C1440 C1443 1.356 . S
C1440 O1470 1.325 . S
N1441 C1444 1.314 . S
N1441 C1445 1.279 . S
C1442 C1440 1.348 . S
C1442 C1444 1.353 . S
C1442 H1484 0.929 . S
C1443 C1440 1.356 . S
C1443 C1445 1.358 . S
C1443 H1485 0.930 . S
C1444 N1441 1.314 . S
C1444 C1442 1.353 . S
C1444 H1486 0.930 . S
C1445 N1441 1.279 . S
C1445 C1443 1.358 . S
C1445 H1487 0.930 . S
C1446 C1447 1.348 . S
C1446 C1448 1.356 . S
C1446 O1471 1.325 . S
C1447 C1446 1.348 . S
C1447 C1449 1.353 . S
C1447 H1488 0.929 . S
C1448 C1446 1.356 . S
C1448 C1450 1.358 . S
C1448 H1489 0.930 . S
C1449 C1447 1.353 . S
C1449 N1451 1.314 . S
C1449 H1490 0.930 . S
C1450 C1448 1.358 . S
C1450 N1451 1.279 . S
C1450 H1491 0.930 . S
N1451 C1449 1.314 . S
N1451 C1450 1.279 . S
C1452 C1454 1.353 . S
C1452 N1455 1.314 . S
C1452 H1458 0.930 . S
C1453 N1455 1.279 . S
C1453 C1456 1.358 . S
C1453 H1459 0.930 . S
C1454 C1452 1.353 . S
C1454 C1457 1.348 . S
C1454 H1492 0.929 . S
N1455 Li1410 1.990 . S
N1455 C1452 1.314 . S
N1455 C1453 1.279 . S
C1456 C1453 1.358 . S
C1456 C1457 1.356 . S
C1456 H1493 0.930 . S
C1457 C1454 1.348 . S
C1457 C1456 1.356 . S
H1458 C1452 0.930 . S
H1459 C1453 0.930 . S
C1460 N1461 1.314 . S
C1460 C1462 1.353 . S
C1460 H1466 0.930 . S
N1461 Li1411 1.990 . S
N1461 C1460 1.314 . S
N1461 C1464 1.279 . S
C1462 C1460 1.353 . S
C1462 C1465 1.348 . S
C1462 H1494 0.929 . S
C1463 C1464 1.358 . S
C1463 C1465 1.356 . S
C1463 H1495 0.930 . S
C1464 N1461 1.279 . S
C1464 C1463 1.358 . S
C1464 H1467 0.930 . S
C1465 C1462 1.348 . S
C1465 C1463 1.356 . S
H1466 C1460 0.930 . S
H1467 C1464 0.930 . S
O1468 Li1408 1.956 . S
O1468 Li1409 1.970 . S
O1468 Li1410 1.961 . S
O1468 C1412 1.325 . S
O1469 Li1408 1.970 . S
O1469 Li1409 1.956 . S
O1469 Li1411 1.961 . S
O1469 C1418 1.325 . S
O1470 Li1408 1.961 . S
O1470 Li1410 1.956 . S
O1470 Li1411 1.970 . S
O1470 C1440 1.325 . S
O1471 Li1409 1.961 . S
O1471 Li1410 1.970 . S
O1471 Li1411 1.956 . S
O1471 C1446 1.325 . S
H1472 C1414 0.929 . S
H1473 C1415 0.930 . S
H1474 C1416 0.930 . S
H1475 C1417 0.930 . S
H1476 C1419 0.930 . S
H1477 C1421 0.929 . S
H1478 C1422 0.930 . S
H1479 C1423 0.930 . S
H1480 C1426 0.930 . S
H1481 C1429 0.929 . S
H1482 C1434 0.929 . S
H1483 C1435 0.930 . S
H1484 C1442 0.929 . S
H1485 C1443 0.930 . S
H1486 C1444 0.930 . S
H1487 C1445 0.930 . S
H1488 C1447 0.929 . S
H1489 C1448 0.930 . S
H1490 C1449 0.930 . S
H1491 C1450 0.930 . S
H1492 C1454 0.929 . S
H1493 C1456 0.930 . S
H1494 C1462 0.929 . S
H1495 C1463 0.930 . S
Li1496 N1513 1.990 . S
Li1496 O1556 1.956 . S
Li1496 O1557 1.970 . S
Li1496 O1558 1.961 . S
Li1497 N1521 1.990 . S
Li1497 O1556 1.970 . S
Li1497 O1557 1.956 . S
Li1497 O1559 1.961 . S
Li1498 N1543 1.990 . S
Li1498 O1556 1.961 . S
Li1498 O1558 1.956 . S
Li1498 O1559 1.970 . S
Li1499 N1549 1.990 . S
Li1499 O1557 1.961 . S
Li1499 O1558 1.970 . S
Li1499 O1559 1.956 . S
C1500 C1502 1.348 . S
C1500 C1503 1.356 . S
C1500 O1556 1.325 . S
N1501 C1504 1.314 . S
N1501 C1505 1.279 . S
C1502 C1500 1.348 . S
C1502 C1504 1.353 . S
C1502 H1560 0.929 . S
C1503 C1500 1.356 . S
C1503 C1505 1.358 . S
C1503 H1561 0.930 . S
C1504 N1501 1.314 . S
C1504 C1502 1.353 . S
C1504 H1562 0.930 . S
C1505 N1501 1.279 . S
C1505 C1503 1.358 . S
C1505 H1563 0.930 . S
C1506 C1509 1.348 . S
C1506 C1510 1.356 . S
C1506 O1557 1.325 . S
C1507 N1508 1.279 . S
C1507 C1510 1.358 . S
C1507 H1564 0.930 . S
N1508 C1507 1.279 . S
N1508 C1511 1.314 . S
C1509 C1506 1.348 . S
C1509 C1511 1.353 . S
C1509 H1565 0.929 . S
C1510 C1506 1.356 . S
C1510 C1507 1.358 . S
C1510 H1566 0.930 . S
C1511 N1508 1.314 . S
C1511 C1509 1.353 . S
C1511 H1567 0.930 . S
C1512 N1513 1.314 . S
C1512 C1517 1.353 . S
C1512 H1518 0.930 . S
N1513 Li1496 1.990 . S
N1513 C1512 1.314 . S
N1513 C1515 1.279 . S
C1514 C1515 1.358 . S
C1514 C1516 1.356 . S
C1514 H1568 0.930 . S
C1515 N1513 1.279 . S
C1515 C1514 1.358 . S
C1515 H1519 0.930 . S
C1516 C1514 1.356 . S
C1516 C1517 1.348 . S
C1517 C1512 1.353 . S
C1517 C1516 1.348 . S
C1517 H1569 0.929 . S
H1518 C1512 0.930 . S
H1519 C1515 0.930 . S
C1520 N1521 1.314 . S
C1520 C1522 1.353 . S
C1520 H1526 0.930 . S
N1521 Li1497 1.990 . S
N1521 C1520 1.314 . S
N1521 C1524 1.279 . S
C1522 C1520 1.353 . S
C1522 C1525 1.348 . S
C1522 H1570 0.929 . S
C1523 C1524 1.358 . S
C1523 C1525 1.356 . S
C1523 H1571 0.930 . S
C1524 N1521 1.279 . S
C1524 C1523 1.358 . S
C1524 H1527 0.930 . S
C1525 C1522 1.348 . S
C1525 C1523 1.356 . S
H1526 C1520 0.930 . S
H1527 C1524 0.930 . S
C1528 C1530 1.348 . S
C1528 C1531 1.356 . S
C1528 O1558 1.325 . S
N1529 C1532 1.314 . S
N1529 C1533 1.279 . S
C1530 C1528 1.348 . S
C1530 C1532 1.353 . S
C1530 H1572 0.929 . S
C1531 C1528 1.356 . S
C1531 C1533 1.358 . S
C1531 H1573 0.930 . S
C1532 N1529 1.314 . S
C1532 C1530 1.353 . S
C1532 H1574 0.930 . S
C1533 N1529 1.279 . S
C1533 C1531 1.358 . S
C1533 H1575 0.930 . S
C1534 C1535 1.348 . S
C1534 C1536 1.356 . S
C1534 O1559 1.325 . S
C1535 C1534 1.348 . S
C1535 C1537 1.353 . S
C1535 H1576 0.929 . S
C1536 C1534 1.356 . S
C1536 C1538 1.358 . S
C1536 H1577 0.930 . S
C1537 C1535 1.353 . S
C1537 N1539 1.314 . S
C1537 H1578 0.930 . S
C1538 C1536 1.358 . S
C1538 N1539 1.279 . S
C1538 H1579 0.930 . S
N1539 C1537 1.314 . S
N1539 C1538 1.279 . S
C1540 C1542 1.353 . S
C1540 N1543 1.314 . S
C1540 H1546 0.930 . S
C1541 N1543 1.279 . S
C1541 C1544 1.358 . S
C1541 H1547 0.930 . S
C1542 C1540 1.353 . S
C1542 C1545 1.348 . S
C1542 H1580 0.929 . S
N1543 Li1498 1.990 . S
N1543 C1540 1.314 . S
N1543 C1541 1.279 . S
C1544 C1541 1.358 . S
C1544 C1545 1.356 . S
C1544 H1581 0.930 . S
C1545 C1542 1.348 . S
C1545 C1544 1.356 . S
H1546 C1540 0.930 . S
H1547 C1541 0.930 . S
C1548 N1549 1.314 . S
C1548 C1550 1.353 . S
C1548 H1554 0.930 . S
N1549 Li1499 1.990 . S
N1549 C1548 1.314 . S
N1549 C1552 1.279 . S
C1550 C1548 1.353 . S
C1550 C1553 1.348 . S
C1550 H1582 0.929 . S
C1551 C1552 1.358 . S
C1551 C1553 1.356 . S
C1551 H1583 0.930 . S
C1552 N1549 1.279 . S
C1552 C1551 1.358 . S
C1552 H1555 0.930 . S
C1553 C1550 1.348 . S
C1553 C1551 1.356 . S
H1554 C1548 0.930 . S
H1555 C1552 0.930 . S
O1556 Li1496 1.956 . S
O1556 Li1497 1.970 . S
O1556 Li1498 1.961 . S
O1556 C1500 1.325 . S
O1557 Li1496 1.970 . S
O1557 Li1497 1.956 . S
O1557 Li1499 1.961 . S
O1557 C1506 1.325 . S
O1558 Li1496 1.961 . S
O1558 Li1498 1.956 . S
O1558 Li1499 1.970 . S
O1558 C1528 1.325 . S
O1559 Li1497 1.961 . S
O1559 Li1498 1.970 . S
O1559 Li1499 1.956 . S
O1559 C1534 1.325 . S
H1560 C1502 0.929 . S
H1561 C1503 0.930 . S
H1562 C1504 0.930 . S
H1563 C1505 0.930 . S
H1564 C1507 0.930 . S
H1565 C1509 0.929 . S
H1566 C1510 0.930 . S
H1567 C1511 0.930 . S
H1568 C1514 0.930 . S
H1569 C1517 0.929 . S
H1570 C1522 0.929 . S
H1571 C1523 0.930 . S
H1572 C1530 0.929 . S
H1573 C1531 0.930 . S
H1574 C1532 0.930 . S
H1575 C1533 0.930 . S
H1576 C1535 0.929 . S
H1577 C1536 0.930 . S
H1578 C1537 0.930 . S
H1579 C1538 0.930 . S
H1580 C1542 0.929 . S
H1581 C1544 0.930 . S
H1582 C1550 0.929 . S
H1583 C1551 0.930 . S
Li1584 N1601 1.990 . S
Li1584 O1644 1.956 . S
Li1584 O1645 1.970 . S
Li1584 O1646 1.961 . S
Li1585 N1609 1.990 . S
Li1585 O1644 1.970 . S
Li1585 O1645 1.956 . S
Li1585 O1647 1.961 . S
Li1586 N1631 1.990 . S
Li1586 O1644 1.961 . S
Li1586 O1646 1.956 . S
Li1586 O1647 1.970 . S
Li1587 N1637 1.990 . S
Li1587 O1645 1.961 . S
Li1587 O1646 1.970 . S
Li1587 O1647 1.956 . S
C1588 C1590 1.348 . S
C1588 C1591 1.356 . S
C1588 O1644 1.325 . S
N1589 C1592 1.314 . S
N1589 C1593 1.279 . S
C1590 C1588 1.348 . S
C1590 C1592 1.353 . S
C1590 H1648 0.929 . S
C1591 C1588 1.356 . S
C1591 C1593 1.358 . S
C1591 H1649 0.930 . S
C1592 N1589 1.314 . S
C1592 C1590 1.353 . S
C1592 H1650 0.930 . S
C1593 N1589 1.279 . S
C1593 C1591 1.358 . S
C1593 H1651 0.930 . S
C1594 C1597 1.348 . S
C1594 C1598 1.356 . S
C1594 O1645 1.325 . S
C1595 N1596 1.279 . S
C1595 C1598 1.358 . S
C1595 H1652 0.930 . S
N1596 C1595 1.279 . S
N1596 C1599 1.314 . S
C1597 C1594 1.348 . S
C1597 C1599 1.353 . S
C1597 H1653 0.929 . S
C1598 C1594 1.356 . S
C1598 C1595 1.358 . S
C1598 H1654 0.930 . S
C1599 N1596 1.314 . S
C1599 C1597 1.353 . S
C1599 H1655 0.930 . S
C1600 N1601 1.314 . S
C1600 C1605 1.353 . S
C1600 H1606 0.930 . S
N1601 Li1584 1.990 . S
N1601 C1600 1.314 . S
N1601 C1603 1.279 . S
C1602 C1603 1.358 . S
C1602 C1604 1.356 . S
C1602 H1656 0.930 . S
C1603 N1601 1.279 . S
C1603 C1602 1.358 . S
C1603 H1607 0.930 . S
C1604 C1602 1.356 . S
C1604 C1605 1.348 . S
C1605 C1600 1.353 . S
C1605 C1604 1.348 . S
C1605 H1657 0.929 . S
H1606 C1600 0.930 . S
H1607 C1603 0.930 . S
C1608 N1609 1.314 . S
C1608 C1610 1.353 . S
C1608 H1614 0.930 . S
N1609 Li1585 1.990 . S
N1609 C1608 1.314 . S
N1609 C1612 1.279 . S
C1610 C1608 1.353 . S
C1610 C1613 1.348 . S
C1610 H1658 0.929 . S
C1611 C1612 1.358 . S
C1611 C1613 1.356 . S
C1611 H1659 0.930 . S
C1612 N1609 1.279 . S
C1612 C1611 1.358 . S
C1612 H1615 0.930 . S
C1613 C1610 1.348 . S
C1613 C1611 1.356 . S
H1614 C1608 0.930 . S
H1615 C1612 0.930 . S
C1616 C1618 1.348 . S
C1616 C1619 1.356 . S
C1616 O1646 1.325 . S
N1617 C1620 1.314 . S
N1617 C1621 1.279 . S
C1618 C1616 1.348 . S
C1618 C1620 1.353 . S
C1618 H1660 0.929 . S
C1619 C1616 1.356 . S
C1619 C1621 1.358 . S
C1619 H1661 0.930 . S
C1620 N1617 1.314 . S
C1620 C1618 1.353 . S
C1620 H1662 0.930 . S
C1621 N1617 1.279 . S
C1621 C1619 1.358 . S
C1621 H1663 0.930 . S
C1622 C1623 1.348 . S
C1622 C1624 1.356 . S
C1622 O1647 1.325 . S
C1623 C1622 1.348 . S
C1623 C1625 1.353 . S
C1623 H1664 0.929 . S
C1624 C1622 1.356 . S
C1624 C1626 1.358 . S
C1624 H1665 0.930 . S
C1625 C1623 1.353 . S
C1625 N1627 1.314 . S
C1625 H1666 0.930 . S
C1626 C1624 1.358 . S
C1626 N1627 1.279 . S
C1626 H1667 0.930 . S
N1627 C1625 1.314 . S
N1627 C1626 1.279 . S
C1628 C1630 1.353 . S
C1628 N1631 1.314 . S
C1628 H1634 0.930 . S
C1629 N1631 1.279 . S
C1629 C1632 1.358 . S
C1629 H1635 0.930 . S
C1630 C1628 1.353 . S
C1630 C1633 1.348 . S
C1630 H1668 0.929 . S
N1631 Li1586 1.990 . S
N1631 C1628 1.314 . S
N1631 C1629 1.279 . S
C1632 C1629 1.358 . S
C1632 C1633 1.356 . S
C1632 H1669 0.930 . S
C1633 C1630 1.348 . S
C1633 C1632 1.356 . S
H1634 C1628 0.930 . S
H1635 C1629 0.930 . S
C1636 N1637 1.314 . S
C1636 C1638 1.353 . S
C1636 H1642 0.930 . S
N1637 Li1587 1.990 . S
N1637 C1636 1.314 . S
N1637 C1640 1.279 . S
C1638 C1636 1.353 . S
C1638 C1641 1.348 . S
C1638 H1670 0.929 . S
C1639 C1640 1.358 . S
C1639 C1641 1.356 . S
C1639 H1671 0.930 . S
C1640 N1637 1.279 . S
C1640 C1639 1.358 . S
C1640 H1643 0.930 . S
C1641 C1638 1.348 . S
C1641 C1639 1.356 . S
H1642 C1636 0.930 . S
H1643 C1640 0.930 . S
O1644 Li1584 1.956 . S
O1644 Li1585 1.970 . S
O1644 Li1586 1.961 . S
O1644 C1588 1.325 . S
O1645 Li1584 1.970 . S
O1645 Li1585 1.956 . S
O1645 Li1587 1.961 . S
O1645 C1594 1.325 . S
O1646 Li1584 1.961 . S
O1646 Li1586 1.956 . S
O1646 Li1587 1.970 . S
O1646 C1616 1.325 . S
O1647 Li1585 1.961 . S
O1647 Li1586 1.970 . S
O1647 Li1587 1.956 . S
O1647 C1622 1.325 . S
H1648 C1590 0.929 . S
H1649 C1591 0.930 . S
H1650 C1592 0.930 . S
H1651 C1593 0.930 . S
H1652 C1595 0.930 . S
H1653 C1597 0.929 . S
H1654 C1598 0.930 . S
H1655 C1599 0.930 . S
H1656 C1602 0.930 . S
H1657 C1605 0.929 . S
H1658 C1610 0.929 . S
H1659 C1611 0.930 . S
H1660 C1618 0.929 . S
H1661 C1619 0.930 . S
H1662 C1620 0.930 . S
H1663 C1621 0.930 . S
H1664 C1623 0.929 . S
H1665 C1624 0.930 . S
H1666 C1625 0.930 . S
H1667 C1626 0.930 . S
H1668 C1630 0.929 . S
H1669 C1632 0.930 . S
H1670 C1638 0.929 . S
H1671 C1639 0.930 . S
Li1672 N1689 1.990 . S
Li1672 O1732 1.956 . S
Li1672 O1733 1.970 . S
Li1672 O1734 1.961 . S
Li1673 N1697 1.990 . S
Li1673 O1732 1.970 . S
Li1673 O1733 1.956 . S
Li1673 O1735 1.961 . S
Li1674 N1719 1.990 . S
Li1674 O1732 1.961 . S
Li1674 O1734 1.956 . S
Li1674 O1735 1.970 . S
Li1675 N1725 1.990 . S
Li1675 O1733 1.961 . S
Li1675 O1734 1.970 . S
Li1675 O1735 1.956 . S
C1676 C1678 1.348 . S
C1676 C1679 1.356 . S
C1676 O1732 1.325 . S
N1677 C1680 1.314 . S
N1677 C1681 1.279 . S
C1678 C1676 1.348 . S
C1678 C1680 1.353 . S
C1678 H1736 0.929 . S
C1679 C1676 1.356 . S
C1679 C1681 1.358 . S
C1679 H1737 0.930 . S
C1680 N1677 1.314 . S
C1680 C1678 1.353 . S
C1680 H1738 0.930 . S
C1681 N1677 1.279 . S
C1681 C1679 1.358 . S
C1681 H1739 0.930 . S
C1682 C1685 1.348 . S
C1682 C1686 1.356 . S
C1682 O1733 1.325 . S
C1683 N1684 1.279 . S
C1683 C1686 1.358 . S
C1683 H1740 0.930 . S
N1684 C1683 1.279 . S
N1684 C1687 1.314 . S
C1685 C1682 1.348 . S
C1685 C1687 1.353 . S
C1685 H1741 0.929 . S
C1686 C1682 1.356 . S
C1686 C1683 1.358 . S
C1686 H1742 0.930 . S
C1687 N1684 1.314 . S
C1687 C1685 1.353 . S
C1687 H1743 0.930 . S
C1688 N1689 1.314 . S
C1688 C1693 1.353 . S
C1688 H1694 0.930 . S
N1689 Li1672 1.990 . S
N1689 C1688 1.314 . S
N1689 C1691 1.279 . S
C1690 C1691 1.358 . S
C1690 C1692 1.356 . S
C1690 H1744 0.930 . S
C1691 N1689 1.279 . S
C1691 C1690 1.358 . S
C1691 H1695 0.930 . S
C1692 C1690 1.356 . S
C1692 C1693 1.348 . S
C1693 C1688 1.353 . S
C1693 C1692 1.348 . S
C1693 H1745 0.929 . S
H1694 C1688 0.930 . S
H1695 C1691 0.930 . S
C1696 N1697 1.314 . S
C1696 C1698 1.353 . S
C1696 H1702 0.930 . S
N1697 Li1673 1.990 . S
N1697 C1696 1.314 . S
N1697 C1700 1.279 . S
C1698 C1696 1.353 . S
C1698 C1701 1.348 . S
C1698 H1746 0.929 . S
C1699 C1700 1.358 . S
C1699 C1701 1.356 . S
C1699 H1747 0.930 . S
C1700 N1697 1.279 . S
C1700 C1699 1.358 . S
C1700 H1703 0.930 . S
C1701 C1698 1.348 . S
C1701 C1699 1.356 . S
H1702 C1696 0.930 . S
H1703 C1700 0.930 . S
C1704 C1706 1.348 . S
C1704 C1707 1.356 . S
C1704 O1734 1.325 . S
N1705 C1708 1.314 . S
N1705 C1709 1.279 . S
C1706 C1704 1.348 . S
C1706 C1708 1.353 . S
C1706 H1748 0.929 . S
C1707 C1704 1.356 . S
C1707 C1709 1.358 . S
C1707 H1749 0.930 . S
C1708 N1705 1.314 . S
C1708 C1706 1.353 . S
C1708 H1750 0.930 . S
C1709 N1705 1.279 . S
C1709 C1707 1.358 . S
C1709 H1751 0.930 . S
C1710 C1711 1.348 . S
C1710 C1712 1.356 . S
C1710 O1735 1.325 . S
C1711 C1710 1.348 . S
C1711 C1713 1.353 . S
C1711 H1752 0.929 . S
C1712 C1710 1.356 . S
C1712 C1714 1.358 . S
C1712 H1753 0.930 . S
C1713 C1711 1.353 . S
C1713 N1715 1.314 . S
C1713 H1754 0.930 . S
C1714 C1712 1.358 . S
C1714 N1715 1.279 . S
C1714 H1755 0.930 . S
N1715 C1713 1.314 . S
N1715 C1714 1.279 . S
C1716 C1718 1.353 . S
C1716 N1719 1.314 . S
C1716 H1722 0.930 . S
C1717 N1719 1.279 . S
C1717 C1720 1.358 . S
C1717 H1723 0.930 . S
C1718 C1716 1.353 . S
C1718 C1721 1.348 . S
C1718 H1756 0.929 . S
N1719 Li1674 1.990 . S
N1719 C1716 1.314 . S
N1719 C1717 1.279 . S
C1720 C1717 1.358 . S
C1720 C1721 1.356 . S
C1720 H1757 0.930 . S
C1721 C1718 1.348 . S
C1721 C1720 1.356 . S
H1722 C1716 0.930 . S
H1723 C1717 0.930 . S
C1724 N1725 1.314 . S
C1724 C1726 1.353 . S
C1724 H1730 0.930 . S
N1725 Li1675 1.990 . S
N1725 C1724 1.314 . S
N1725 C1728 1.279 . S
C1726 C1724 1.353 . S
C1726 C1729 1.348 . S
C1726 H1758 0.929 . S
C1727 C1728 1.358 . S
C1727 C1729 1.356 . S
C1727 H1759 0.930 . S
C1728 N1725 1.279 . S
C1728 C1727 1.358 . S
C1728 H1731 0.930 . S
C1729 C1726 1.348 . S
C1729 C1727 1.356 . S
H1730 C1724 0.930 . S
H1731 C1728 0.930 . S
O1732 Li1672 1.956 . S
O1732 Li1673 1.970 . S
O1732 Li1674 1.961 . S
O1732 C1676 1.325 . S
O1733 Li1672 1.970 . S
O1733 Li1673 1.956 . S
O1733 Li1675 1.961 . S
O1733 C1682 1.325 . S
O1734 Li1672 1.961 . S
O1734 Li1674 1.956 . S
O1734 Li1675 1.970 . S
O1734 C1704 1.325 . S
O1735 Li1673 1.961 . S
O1735 Li1674 1.970 . S
O1735 Li1675 1.956 . S
O1735 C1710 1.325 . S
H1736 C1678 0.929 . S
H1737 C1679 0.930 . S
H1738 C1680 0.930 . S
H1739 C1681 0.930 . S
H1740 C1683 0.930 . S
H1741 C1685 0.929 . S
H1742 C1686 0.930 . S
H1743 C1687 0.930 . S
H1744 C1690 0.930 . S
H1745 C1693 0.929 . S
H1746 C1698 0.929 . S
H1747 C1699 0.930 . S
H1748 C1706 0.929 . S
H1749 C1707 0.930 . S
H1750 C1708 0.930 . S
H1751 C1709 0.930 . S
H1752 C1711 0.929 . S
H1753 C1712 0.930 . S
H1754 C1713 0.930 . S
H1755 C1714 0.930 . S
H1756 C1718 0.929 . S
H1757 C1720 0.930 . S
H1758 C1726 0.929 . S
H1759 C1727 0.930 . S
Li1760 N1777 1.990 . S
Li1760 O1820 1.956 . S
Li1760 O1821 1.970 . S
Li1760 O1822 1.961 . S
Li1761 N1785 1.990 . S
Li1761 O1820 1.970 . S
Li1761 O1821 1.956 . S
Li1761 O1823 1.961 . S
Li1762 N1807 1.990 . S
Li1762 O1820 1.961 . S
Li1762 O1822 1.956 . S
Li1762 O1823 1.970 . S
Li1763 N1813 1.990 . S
Li1763 O1821 1.961 . S
Li1763 O1822 1.970 . S
Li1763 O1823 1.956 . S
C1764 C1766 1.348 . S
C1764 C1767 1.356 . S
C1764 O1820 1.325 . S
N1765 C1768 1.314 . S
N1765 C1769 1.279 . S
C1766 C1764 1.348 . S
C1766 C1768 1.353 . S
C1766 H1824 0.929 . S
C1767 C1764 1.356 . S
C1767 C1769 1.358 . S
C1767 H1825 0.930 . S
C1768 N1765 1.314 . S
C1768 C1766 1.353 . S
C1768 H1826 0.930 . S
C1769 N1765 1.279 . S
C1769 C1767 1.358 . S
C1769 H1827 0.930 . S
C1770 C1773 1.348 . S
C1770 C1774 1.356 . S
C1770 O1821 1.325 . S
C1771 N1772 1.279 . S
C1771 C1774 1.358 . S
C1771 H1828 0.930 . S
N1772 C1771 1.279 . S
N1772 C1775 1.314 . S
C1773 C1770 1.348 . S
C1773 C1775 1.353 . S
C1773 H1829 0.929 . S
C1774 C1770 1.356 . S
C1774 C1771 1.358 . S
C1774 H1830 0.930 . S
C1775 N1772 1.314 . S
C1775 C1773 1.353 . S
C1775 H1831 0.930 . S
C1776 N1777 1.314 . S
C1776 C1781 1.353 . S
C1776 H1782 0.930 . S
N1777 Li1760 1.990 . S
N1777 C1776 1.314 . S
N1777 C1779 1.279 . S
C1778 C1779 1.358 . S
C1778 C1780 1.356 . S
C1778 H1832 0.930 . S
C1779 N1777 1.279 . S
C1779 C1778 1.358 . S
C1779 H1783 0.930 . S
C1780 C1778 1.356 . S
C1780 C1781 1.348 . S
C1781 C1776 1.353 . S
C1781 C1780 1.348 . S
C1781 H1833 0.929 . S
H1782 C1776 0.930 . S
H1783 C1779 0.930 . S
C1784 N1785 1.314 . S
C1784 C1786 1.353 . S
C1784 H1790 0.930 . S
N1785 Li1761 1.990 . S
N1785 C1784 1.314 . S
N1785 C1788 1.279 . S
C1786 C1784 1.353 . S
C1786 C1789 1.348 . S
C1786 H1834 0.929 . S
C1787 C1788 1.358 . S
C1787 C1789 1.356 . S
C1787 H1835 0.930 . S
C1788 N1785 1.279 . S
C1788 C1787 1.358 . S
C1788 H1791 0.930 . S
C1789 C1786 1.348 . S
C1789 C1787 1.356 . S
H1790 C1784 0.930 . S
H1791 C1788 0.930 . S
C1792 C1794 1.348 . S
C1792 C1795 1.356 . S
C1792 O1822 1.325 . S
N1793 C1796 1.314 . S
N1793 C1797 1.279 . S
C1794 C1792 1.348 . S
C1794 C1796 1.353 . S
C1794 H1836 0.929 . S
C1795 C1792 1.356 . S
C1795 C1797 1.358 . S
C1795 H1837 0.930 . S
C1796 N1793 1.314 . S
C1796 C1794 1.353 . S
C1796 H1838 0.930 . S
C1797 N1793 1.279 . S
C1797 C1795 1.358 . S
C1797 H1839 0.930 . S
C1798 C1799 1.348 . S
C1798 C1800 1.356 . S
C1798 O1823 1.325 . S
C1799 C1798 1.348 . S
C1799 C1801 1.353 . S
C1799 H1840 0.929 . S
C1800 C1798 1.356 . S
C1800 C1802 1.358 . S
C1800 H1841 0.930 . S
C1801 C1799 1.353 . S
C1801 N1803 1.314 . S
C1801 H1842 0.930 . S
C1802 C1800 1.358 . S
C1802 N1803 1.279 . S
C1802 H1843 0.930 . S
N1803 C1801 1.314 . S
N1803 C1802 1.279 . S
C1804 C1806 1.353 . S
C1804 N1807 1.314 . S
C1804 H1810 0.930 . S
C1805 N1807 1.279 . S
C1805 C1808 1.358 . S
C1805 H1811 0.930 . S
C1806 C1804 1.353 . S
C1806 C1809 1.348 . S
C1806 H1844 0.929 . S
N1807 Li1762 1.990 . S
N1807 C1804 1.314 . S
N1807 C1805 1.279 . S
C1808 C1805 1.358 . S
C1808 C1809 1.356 . S
C1808 H1845 0.930 . S
C1809 C1806 1.348 . S
C1809 C1808 1.356 . S
H1810 C1804 0.930 . S
H1811 C1805 0.930 . S
C1812 N1813 1.314 . S
C1812 C1814 1.353 . S
C1812 H1818 0.930 . S
N1813 Li1763 1.990 . S
N1813 C1812 1.314 . S
N1813 C1816 1.279 . S
C1814 C1812 1.353 . S
C1814 C1817 1.348 . S
C1814 H1846 0.929 . S
C1815 C1816 1.358 . S
C1815 C1817 1.356 . S
C1815 H1847 0.930 . S
C1816 N1813 1.279 . S
C1816 C1815 1.358 . S
C1816 H1819 0.930 . S
C1817 C1814 1.348 . S
C1817 C1815 1.356 . S
H1818 C1812 0.930 . S
H1819 C1816 0.930 . S
O1820 Li1760 1.956 . S
O1820 Li1761 1.970 . S
O1820 Li1762 1.961 . S
O1820 C1764 1.325 . S
O1821 Li1760 1.970 . S
O1821 Li1761 1.956 . S
O1821 Li1763 1.961 . S
O1821 C1770 1.325 . S
O1822 Li1760 1.961 . S
O1822 Li1762 1.956 . S
O1822 Li1763 1.970 . S
O1822 C1792 1.325 . S
O1823 Li1761 1.961 . S
O1823 Li1762 1.970 . S
O1823 Li1763 1.956 . S
O1823 C1798 1.325 . S
H1824 C1766 0.929 . S
H1825 C1767 0.930 . S
H1826 C1768 0.930 . S
H1827 C1769 0.930 . S
H1828 C1771 0.930 . S
H1829 C1773 0.929 . S
H1830 C1774 0.930 . S
H1831 C1775 0.930 . S
H1832 C1778 0.930 . S
H1833 C1781 0.929 . S
H1834 C1786 0.929 . S
H1835 C1787 0.930 . S
H1836 C1794 0.929 . S
H1837 C1795 0.930 . S
H1838 C1796 0.930 . S
H1839 C1797 0.930 . S
H1840 C1799 0.929 . S
H1841 C1800 0.930 . S
H1842 C1801 0.930 . S
H1843 C1802 0.930 . S
H1844 C1806 0.929 . S
H1845 C1808 0.930 . S
H1846 C1814 0.929 . S
H1847 C1815 0.930 . S
Li1848 N1865 1.990 . S
Li1848 O1908 1.956 . S
Li1848 O1909 1.970 . S
Li1848 O1910 1.961 . S
Li1849 N1873 1.990 . S
Li1849 O1908 1.970 . S
Li1849 O1909 1.956 . S
Li1849 O1911 1.961 . S
Li1850 N1895 1.990 . S
Li1850 O1908 1.961 . S
Li1850 O1910 1.956 . S
Li1850 O1911 1.970 . S
Li1851 N1901 1.990 . S
Li1851 O1909 1.961 . S
Li1851 O1910 1.970 . S
Li1851 O1911 1.956 . S
C1852 C1854 1.348 . S
C1852 C1855 1.356 . S
C1852 O1908 1.325 . S
N1853 C1856 1.314 . S
N1853 C1857 1.279 . S
C1854 C1852 1.348 . S
C1854 C1856 1.353 . S
C1854 H1912 0.929 . S
C1855 C1852 1.356 . S
C1855 C1857 1.358 . S
C1855 H1913 0.930 . S
C1856 N1853 1.314 . S
C1856 C1854 1.353 . S
C1856 H1914 0.930 . S
C1857 N1853 1.279 . S
C1857 C1855 1.358 . S
C1857 H1915 0.930 . S
C1858 C1861 1.348 . S
C1858 C1862 1.356 . S
C1858 O1909 1.325 . S
C1859 N1860 1.279 . S
C1859 C1862 1.358 . S
C1859 H1916 0.930 . S
N1860 C1859 1.279 . S
N1860 C1863 1.314 . S
C1861 C1858 1.348 . S
C1861 C1863 1.353 . S
C1861 H1917 0.929 . S
C1862 C1858 1.356 . S
C1862 C1859 1.358 . S
C1862 H1918 0.930 . S
C1863 N1860 1.314 . S
C1863 C1861 1.353 . S
C1863 H1919 0.930 . S
C1864 N1865 1.314 . S
C1864 C1869 1.353 . S
C1864 H1870 0.930 . S
N1865 Li1848 1.990 . S
N1865 C1864 1.314 . S
N1865 C1867 1.279 . S
C1866 C1867 1.358 . S
C1866 C1868 1.356 . S
C1866 H1920 0.930 . S
C1867 N1865 1.279 . S
C1867 C1866 1.358 . S
C1867 H1871 0.930 . S
C1868 C1866 1.356 . S
C1868 C1869 1.348 . S
C1869 C1864 1.353 . S
C1869 C1868 1.348 . S
C1869 H1921 0.929 . S
H1870 C1864 0.930 . S
H1871 C1867 0.930 . S
C1872 N1873 1.314 . S
C1872 C1874 1.353 . S
C1872 H1878 0.930 . S
N1873 Li1849 1.990 . S
N1873 C1872 1.314 . S
N1873 C1876 1.279 . S
C1874 C1872 1.353 . S
C1874 C1877 1.348 . S
C1874 H1922 0.929 . S
C1875 C1876 1.358 . S
C1875 C1877 1.356 . S
C1875 H1923 0.930 . S
C1876 N1873 1.279 . S
C1876 C1875 1.358 . S
C1876 H1879 0.930 . S
C1877 C1874 1.348 . S
C1877 C1875 1.356 . S
H1878 C1872 0.930 . S
H1879 C1876 0.930 . S
C1880 C1882 1.348 . S
C1880 C1883 1.356 . S
C1880 O1910 1.325 . S
N1881 C1884 1.314 . S
N1881 C1885 1.279 . S
C1882 C1880 1.348 . S
C1882 C1884 1.353 . S
C1882 H1924 0.929 . S
C1883 C1880 1.356 . S
C1883 C1885 1.358 . S
C1883 H1925 0.930 . S
C1884 N1881 1.314 . S
C1884 C1882 1.353 . S
C1884 H1926 0.930 . S
C1885 N1881 1.279 . S
C1885 C1883 1.358 . S
C1885 H1927 0.930 . S
C1886 C1887 1.348 . S
C1886 C1888 1.356 . S
C1886 O1911 1.325 . S
C1887 C1886 1.348 . S
C1887 C1889 1.353 . S
C1887 H1928 0.929 . S
C1888 C1886 1.356 . S
C1888 C1890 1.358 . S
C1888 H1929 0.930 . S
C1889 C1887 1.353 . S
C1889 N1891 1.314 . S
C1889 H1930 0.930 . S
C1890 C1888 1.358 . S
C1890 N1891 1.279 . S
C1890 H1931 0.930 . S
N1891 C1889 1.314 . S
N1891 C1890 1.279 . S
C1892 C1894 1.353 . S
C1892 N1895 1.314 . S
C1892 H1898 0.930 . S
C1893 N1895 1.279 . S
C1893 C1896 1.358 . S
C1893 H1899 0.930 . S
C1894 C1892 1.353 . S
C1894 C1897 1.348 . S
C1894 H1932 0.929 . S
N1895 Li1850 1.990 . S
N1895 C1892 1.314 . S
N1895 C1893 1.279 . S
C1896 C1893 1.358 . S
C1896 C1897 1.356 . S
C1896 H1933 0.930 . S
C1897 C1894 1.348 . S
C1897 C1896 1.356 . S
H1898 C1892 0.930 . S
H1899 C1893 0.930 . S
C1900 N1901 1.314 . S
C1900 C1902 1.353 . S
C1900 H1906 0.930 . S
N1901 Li1851 1.990 . S
N1901 C1900 1.314 . S
N1901 C1904 1.279 . S
C1902 C1900 1.353 . S
C1902 C1905 1.348 . S
C1902 H1934 0.929 . S
C1903 C1904 1.358 . S
C1903 C1905 1.356 . S
C1903 H1935 0.930 . S
C1904 N1901 1.279 . S
C1904 C1903 1.358 . S
C1904 H1907 0.930 . S
C1905 C1902 1.348 . S
C1905 C1903 1.356 . S
H1906 C1900 0.930 . S
H1907 C1904 0.930 . S
O1908 Li1848 1.956 . S
O1908 Li1849 1.970 . S
O1908 Li1850 1.961 . S
O1908 C1852 1.325 . S
O1909 Li1848 1.970 . S
O1909 Li1849 1.956 . S
O1909 Li1851 1.961 . S
O1909 C1858 1.325 . S
O1910 Li1848 1.961 . S
O1910 Li1850 1.956 . S
O1910 Li1851 1.970 . S
O1910 C1880 1.325 . S
O1911 Li1849 1.961 . S
O1911 Li1850 1.970 . S
O1911 Li1851 1.956 . S
O1911 C1886 1.325 . S
H1912 C1854 0.929 . S
H1913 C1855 0.930 . S
H1914 C1856 0.930 . S
H1915 C1857 0.930 . S
H1916 C1859 0.930 . S
H1917 C1861 0.929 . S
H1918 C1862 0.930 . S
H1919 C1863 0.930 . S
H1920 C1866 0.930 . S
H1921 C1869 0.929 . S
H1922 C1874 0.929 . S
H1923 C1875 0.930 . S
H1924 C1882 0.929 . S
H1925 C1883 0.930 . S
H1926 C1884 0.930 . S
H1927 C1885 0.930 . S
H1928 C1887 0.929 . S
H1929 C1888 0.930 . S
H1930 C1889 0.930 . S
H1931 C1890 0.930 . S
H1932 C1894 0.929 . S
H1933 C1896 0.930 . S
H1934 C1902 0.929 . S
H1935 C1903 0.930 . S
Li1936 N1953 1.990 . S
Li1936 O1996 1.956 . S
Li1936 O1997 1.970 . S
Li1936 O1998 1.961 . S
Li1937 N1961 1.990 . S
Li1937 O1996 1.970 . S
Li1937 O1997 1.956 . S
Li1937 O1999 1.961 . S
Li1938 N1983 1.990 . S
Li1938 O1996 1.961 . S
Li1938 O1998 1.956 . S
Li1938 O1999 1.970 . S
Li1939 N1989 1.990 . S
Li1939 O1997 1.961 . S
Li1939 O1998 1.970 . S
Li1939 O1999 1.956 . S
C1940 C1942 1.348 . S
C1940 C1943 1.356 . S
C1940 O1996 1.325 . S
N1941 C1944 1.314 . S
N1941 C1945 1.279 . S
C1942 C1940 1.348 . S
C1942 C1944 1.353 . S
C1942 H2000 0.929 . S
C1943 C1940 1.356 . S
C1943 C1945 1.358 . S
C1943 H2001 0.930 . S
C1944 N1941 1.314 . S
C1944 C1942 1.353 . S
C1944 H2002 0.930 . S
C1945 N1941 1.279 . S
C1945 C1943 1.358 . S
C1945 H2003 0.930 . S
C1946 C1949 1.348 . S
C1946 C1950 1.356 . S
C1946 O1997 1.325 . S
C1947 N1948 1.279 . S
C1947 C1950 1.358 . S
C1947 H2004 0.930 . S
N1948 C1947 1.279 . S
N1948 C1951 1.314 . S
C1949 C1946 1.348 . S
C1949 C1951 1.353 . S
C1949 H2005 0.929 . S
C1950 C1946 1.356 . S
C1950 C1947 1.358 . S
C1950 H2006 0.930 . S
C1951 N1948 1.314 . S
C1951 C1949 1.353 . S
C1951 H2007 0.930 . S
C1952 N1953 1.314 . S
C1952 C1957 1.353 . S
C1952 H1958 0.930 . S
N1953 Li1936 1.990 . S
N1953 C1952 1.314 . S
N1953 C1955 1.279 . S
C1954 C1955 1.358 . S
C1954 C1956 1.356 . S
C1954 H2008 0.930 . S
C1955 N1953 1.279 . S
C1955 C1954 1.358 . S
C1955 H1959 0.930 . S
C1956 C1954 1.356 . S
C1956 C1957 1.348 . S
C1957 C1952 1.353 . S
C1957 C1956 1.348 . S
C1957 H2009 0.929 . S
H1958 C1952 0.930 . S
H1959 C1955 0.930 . S
C1960 N1961 1.314 . S
C1960 C1962 1.353 . S
C1960 H1966 0.930 . S
N1961 Li1937 1.990 . S
N1961 C1960 1.314 . S
N1961 C1964 1.279 . S
C1962 C1960 1.353 . S
C1962 C1965 1.348 . S
C1962 H2010 0.929 . S
C1963 C1964 1.358 . S
C1963 C1965 1.356 . S
C1963 H2011 0.930 . S
C1964 N1961 1.279 . S
C1964 C1963 1.358 . S
C1964 H1967 0.930 . S
C1965 C1962 1.348 . S
C1965 C1963 1.356 . S
H1966 C1960 0.930 . S
H1967 C1964 0.930 . S
C1968 C1970 1.348 . S
C1968 C1971 1.356 . S
C1968 O1998 1.325 . S
N1969 C1972 1.314 . S
N1969 C1973 1.279 . S
C1970 C1968 1.348 . S
C1970 C1972 1.353 . S
C1970 H2012 0.929 . S
C1971 C1968 1.356 . S
C1971 C1973 1.358 . S
C1971 H2013 0.930 . S
C1972 N1969 1.314 . S
C1972 C1970 1.353 . S
C1972 H2014 0.930 . S
C1973 N1969 1.279 . S
C1973 C1971 1.358 . S
C1973 H2015 0.930 . S
C1974 C1975 1.348 . S
C1974 C1976 1.356 . S
C1974 O1999 1.325 . S
C1975 C1974 1.348 . S
C1975 C1977 1.353 . S
C1975 H2016 0.929 . S
C1976 C1974 1.356 . S
C1976 C1978 1.358 . S
C1976 H2017 0.930 . S
C1977 C1975 1.353 . S
C1977 N1979 1.314 . S
C1977 H2018 0.930 . S
C1978 C1976 1.358 . S
C1978 N1979 1.279 . S
C1978 H2019 0.930 . S
N1979 C1977 1.314 . S
N1979 C1978 1.279 . S
C1980 C1982 1.353 . S
C1980 N1983 1.314 . S
C1980 H1986 0.930 . S
C1981 N1983 1.279 . S
C1981 C1984 1.358 . S
C1981 H1987 0.930 . S
C1982 C1980 1.353 . S
C1982 C1985 1.348 . S
C1982 H2020 0.929 . S
N1983 Li1938 1.990 . S
N1983 C1980 1.314 . S
N1983 C1981 1.279 . S
C1984 C1981 1.358 . S
C1984 C1985 1.356 . S
C1984 H2021 0.930 . S
C1985 C1982 1.348 . S
C1985 C1984 1.356 . S
H1986 C1980 0.930 . S
H1987 C1981 0.930 . S
C1988 N1989 1.314 . S
C1988 C1990 1.353 . S
C1988 H1994 0.930 . S
N1989 Li1939 1.990 . S
N1989 C1988 1.314 . S
N1989 C1992 1.279 . S
C1990 C1988 1.353 . S
C1990 C1993 1.348 . S
C1990 H2022 0.929 . S
C1991 C1992 1.358 . S
C1991 C1993 1.356 . S
C1991 H2023 0.930 . S
C1992 N1989 1.279 . S
C1992 C1991 1.358 . S
C1992 H1995 0.930 . S
C1993 C1990 1.348 . S
C1993 C1991 1.356 . S
H1994 C1988 0.930 . S
H1995 C1992 0.930 . S
O1996 Li1936 1.956 . S
O1996 Li1937 1.970 . S
O1996 Li1938 1.961 . S
O1996 C1940 1.325 . S
O1997 Li1936 1.970 . S
O1997 Li1937 1.956 . S
O1997 Li1939 1.961 . S
O1997 C1946 1.325 . S
O1998 Li1936 1.961 . S
O1998 Li1938 1.956 . S
O1998 Li1939 1.970 . S
O1998 C1968 1.325 . S
O1999 Li1937 1.961 . S
O1999 Li1938 1.970 . S
O1999 Li1939 1.956 . S
O1999 C1974 1.325 . S
H2000 C1942 0.929 . S
H2001 C1943 0.930 . S
H2002 C1944 0.930 . S
H2003 C1945 0.930 . S
H2004 C1947 0.930 . S
H2005 C1949 0.929 . S
H2006 C1950 0.930 . S
H2007 C1951 0.930 . S
H2008 C1954 0.930 . S
H2009 C1957 0.929 . S
H2010 C1962 0.929 . S
H2011 C1963 0.930 . S
H2012 C1970 0.929 . S
H2013 C1971 0.930 . S
H2014 C1972 0.930 . S
H2015 C1973 0.930 . S
H2016 C1975 0.929 . S
H2017 C1976 0.930 . S
H2018 C1977 0.930 . S
H2019 C1978 0.930 . S
H2020 C1982 0.929 . S
H2021 C1984 0.930 . S
H2022 C1990 0.929 . S
H2023 C1991 0.930 . S
Li2024 N2041 1.990 . S
Li2024 O2084 1.956 . S
Li2024 O2085 1.970 . S
Li2024 O2086 1.961 . S
Li2025 N2049 1.990 . S
Li2025 O2084 1.970 . S
Li2025 O2085 1.956 . S
Li2025 O2087 1.961 . S
Li2026 N2071 1.990 . S
Li2026 O2084 1.961 . S
Li2026 O2086 1.956 . S
Li2026 O2087 1.970 . S
Li2027 N2077 1.990 . S
Li2027 O2085 1.961 . S
Li2027 O2086 1.970 . S
Li2027 O2087 1.956 . S
C2028 C2030 1.348 . S
C2028 C2031 1.356 . S
C2028 O2084 1.325 . S
N2029 C2032 1.314 . S
N2029 C2033 1.279 . S
C2030 C2028 1.348 . S
C2030 C2032 1.353 . S
C2030 H2088 0.929 . S
C2031 C2028 1.356 . S
C2031 C2033 1.358 . S
C2031 H2089 0.930 . S
C2032 N2029 1.314 . S
C2032 C2030 1.353 . S
C2032 H2090 0.930 . S
C2033 N2029 1.279 . S
C2033 C2031 1.358 . S
C2033 H2091 0.930 . S
C2034 C2037 1.348 . S
C2034 C2038 1.356 . S
C2034 O2085 1.325 . S
C2035 N2036 1.279 . S
C2035 C2038 1.358 . S
C2035 H2092 0.930 . S
N2036 C2035 1.279 . S
N2036 C2039 1.314 . S
C2037 C2034 1.348 . S
C2037 C2039 1.353 . S
C2037 H2093 0.929 . S
C2038 C2034 1.356 . S
C2038 C2035 1.358 . S
C2038 H2094 0.930 . S
C2039 N2036 1.314 . S
C2039 C2037 1.353 . S
C2039 H2095 0.930 . S
C2040 N2041 1.314 . S
C2040 C2045 1.353 . S
C2040 H2046 0.930 . S
N2041 Li2024 1.990 . S
N2041 C2040 1.314 . S
N2041 C2043 1.279 . S
C2042 C2043 1.358 . S
C2042 C2044 1.356 . S
C2042 H2096 0.930 . S
C2043 N2041 1.279 . S
C2043 C2042 1.358 . S
C2043 H2047 0.930 . S
C2044 C2042 1.356 . S
C2044 C2045 1.348 . S
C2045 C2040 1.353 . S
C2045 C2044 1.348 . S
C2045 H2097 0.929 . S
H2046 C2040 0.930 . S
H2047 C2043 0.930 . S
C2048 N2049 1.314 . S
C2048 C2050 1.353 . S
C2048 H2054 0.930 . S
N2049 Li2025 1.990 . S
N2049 C2048 1.314 . S
N2049 C2052 1.279 . S
C2050 C2048 1.353 . S
C2050 C2053 1.348 . S
C2050 H2098 0.929 . S
C2051 C2052 1.358 . S
C2051 C2053 1.356 . S
C2051 H2099 0.930 . S
C2052 N2049 1.279 . S
C2052 C2051 1.358 . S
C2052 H2055 0.930 . S
C2053 C2050 1.348 . S
C2053 C2051 1.356 . S
H2054 C2048 0.930 . S
H2055 C2052 0.930 . S
C2056 C2058 1.348 . S
C2056 C2059 1.356 . S
C2056 O2086 1.325 . S
N2057 C2060 1.314 . S
N2057 C2061 1.279 . S
C2058 C2056 1.348 . S
C2058 C2060 1.353 . S
C2058 H2100 0.929 . S
C2059 C2056 1.356 . S
C2059 C2061 1.358 . S
C2059 H2101 0.930 . S
C2060 N2057 1.314 . S
C2060 C2058 1.353 . S
C2060 H2102 0.930 . S
C2061 N2057 1.279 . S
C2061 C2059 1.358 . S
C2061 H2103 0.930 . S
C2062 C2063 1.348 . S
C2062 C2064 1.356 . S
C2062 O2087 1.325 . S
C2063 C2062 1.348 . S
C2063 C2065 1.353 . S
C2063 H2104 0.929 . S
C2064 C2062 1.356 . S
C2064 C2066 1.358 . S
C2064 H2105 0.930 . S
C2065 C2063 1.353 . S
C2065 N2067 1.314 . S
C2065 H2106 0.930 . S
C2066 C2064 1.358 . S
C2066 N2067 1.279 . S
C2066 H2107 0.930 . S
N2067 C2065 1.314 . S
N2067 C2066 1.279 . S
C2068 C2070 1.353 . S
C2068 N2071 1.314 . S
C2068 H2074 0.930 . S
C2069 N2071 1.279 . S
C2069 C2072 1.358 . S
C2069 H2075 0.930 . S
C2070 C2068 1.353 . S
C2070 C2073 1.348 . S
C2070 H2108 0.929 . S
N2071 Li2026 1.990 . S
N2071 C2068 1.314 . S
N2071 C2069 1.279 . S
C2072 C2069 1.358 . S
C2072 C2073 1.356 . S
C2072 H2109 0.930 . S
C2073 C2070 1.348 . S
C2073 C2072 1.356 . S
H2074 C2068 0.930 . S
H2075 C2069 0.930 . S
C2076 N2077 1.314 . S
C2076 C2078 1.353 . S
C2076 H2082 0.930 . S
N2077 Li2027 1.990 . S
N2077 C2076 1.314 . S
N2077 C2080 1.279 . S
C2078 C2076 1.353 . S
C2078 C2081 1.348 . S
C2078 H2110 0.929 . S
C2079 C2080 1.358 . S
C2079 C2081 1.356 . S
C2079 H2111 0.930 . S
C2080 N2077 1.279 . S
C2080 C2079 1.358 . S
C2080 H2083 0.930 . S
C2081 C2078 1.348 . S
C2081 C2079 1.356 . S
H2082 C2076 0.930 . S
H2083 C2080 0.930 . S
O2084 Li2024 1.956 . S
O2084 Li2025 1.970 . S
O2084 Li2026 1.961 . S
O2084 C2028 1.325 . S
O2085 Li2024 1.970 . S
O2085 Li2025 1.956 . S
O2085 Li2027 1.961 . S
O2085 C2034 1.325 . S
O2086 Li2024 1.961 . S
O2086 Li2026 1.956 . S
O2086 Li2027 1.970 . S
O2086 C2056 1.325 . S
O2087 Li2025 1.961 . S
O2087 Li2026 1.970 . S
O2087 Li2027 1.956 . S
O2087 C2062 1.325 . S
H2088 C2030 0.929 . S
H2089 C2031 0.930 . S
H2090 C2032 0.930 . S
H2091 C2033 0.930 . S
H2092 C2035 0.930 . S
H2093 C2037 0.929 . S
H2094 C2038 0.930 . S
H2095 C2039 0.930 . S
H2096 C2042 0.930 . S
H2097 C2045 0.929 . S
H2098 C2050 0.929 . S
H2099 C2051 0.930 . S
H2100 C2058 0.929 . S
H2101 C2059 0.930 . S
H2102 C2060 0.930 . S
H2103 C2061 0.930 . S
H2104 C2063 0.929 . S
H2105 C2064 0.930 . S
H2106 C2065 0.930 . S
H2107 C2066 0.930 . S
H2108 C2070 0.929 . S
H2109 C2072 0.930 . S
H2110 C2078 0.929 . S
H2111 C2079 0.930 . S
Li2112 N2129 1.990 . S
Li2112 O2172 1.956 . S
Li2112 O2173 1.970 . S
Li2112 O2174 1.961 . S
Li2113 N2137 1.990 . S
Li2113 O2172 1.970 . S
Li2113 O2173 1.956 . S
Li2113 O2175 1.961 . S
Li2114 N2159 1.990 . S
Li2114 O2172 1.961 . S
Li2114 O2174 1.956 . S
Li2114 O2175 1.970 . S
Li2115 N2165 1.990 . S
Li2115 O2173 1.961 . S
Li2115 O2174 1.970 . S
Li2115 O2175 1.956 . S
C2116 C2118 1.348 . S
C2116 C2119 1.356 . S
C2116 O2172 1.325 . S
N2117 C2120 1.314 . S
N2117 C2121 1.279 . S
C2118 C2116 1.348 . S
C2118 C2120 1.353 . S
C2118 H2176 0.929 . S
C2119 C2116 1.356 . S
C2119 C2121 1.358 . S
C2119 H2177 0.930 . S
C2120 N2117 1.314 . S
C2120 C2118 1.353 . S
C2120 H2178 0.930 . S
C2121 N2117 1.279 . S
C2121 C2119 1.358 . S
C2121 H2179 0.930 . S
C2122 C2125 1.348 . S
C2122 C2126 1.356 . S
C2122 O2173 1.325 . S
C2123 N2124 1.279 . S
C2123 C2126 1.358 . S
C2123 H2180 0.930 . S
N2124 C2123 1.279 . S
N2124 C2127 1.314 . S
C2125 C2122 1.348 . S
C2125 C2127 1.353 . S
C2125 H2181 0.929 . S
C2126 C2122 1.356 . S
C2126 C2123 1.358 . S
C2126 H2182 0.930 . S
C2127 N2124 1.314 . S
C2127 C2125 1.353 . S
C2127 H2183 0.930 . S
C2128 N2129 1.314 . S
C2128 C2133 1.353 . S
C2128 H2134 0.930 . S
N2129 Li2112 1.990 . S
N2129 C2128 1.314 . S
N2129 C2131 1.279 . S
C2130 C2131 1.358 . S
C2130 C2132 1.356 . S
C2130 H2184 0.930 . S
C2131 N2129 1.279 . S
C2131 C2130 1.358 . S
C2131 H2135 0.930 . S
C2132 C2130 1.356 . S
C2132 C2133 1.348 . S
C2133 C2128 1.353 . S
C2133 C2132 1.348 . S
C2133 H2185 0.929 . S
H2134 C2128 0.930 . S
H2135 C2131 0.930 . S
C2136 N2137 1.314 . S
C2136 C2138 1.353 . S
C2136 H2142 0.930 . S
N2137 Li2113 1.990 . S
N2137 C2136 1.314 . S
N2137 C2140 1.279 . S
C2138 C2136 1.353 . S
C2138 C2141 1.348 . S
C2138 H2186 0.929 . S
C2139 C2140 1.358 . S
C2139 C2141 1.356 . S
C2139 H2187 0.930 . S
C2140 N2137 1.279 . S
C2140 C2139 1.358 . S
C2140 H2143 0.930 . S
C2141 C2138 1.348 . S
C2141 C2139 1.356 . S
H2142 C2136 0.930 . S
H2143 C2140 0.930 . S
C2144 C2146 1.348 . S
C2144 C2147 1.356 . S
C2144 O2174 1.325 . S
N2145 C2148 1.314 . S
N2145 C2149 1.279 . S
C2146 C2144 1.348 . S
C2146 C2148 1.353 . S
C2146 H2188 0.929 . S
C2147 C2144 1.356 . S
C2147 C2149 1.358 . S
C2147 H2189 0.930 . S
C2148 N2145 1.314 . S
C2148 C2146 1.353 . S
C2148 H2190 0.930 . S
C2149 N2145 1.279 . S
C2149 C2147 1.358 . S
C2149 H2191 0.930 . S
C2150 C2151 1.348 . S
C2150 C2152 1.356 . S
C2150 O2175 1.325 . S
C2151 C2150 1.348 . S
C2151 C2153 1.353 . S
C2151 H2192 0.929 . S
C2152 C2150 1.356 . S
C2152 C2154 1.358 . S
C2152 H2193 0.930 . S
C2153 C2151 1.353 . S
C2153 N2155 1.314 . S
C2153 H2194 0.930 . S
C2154 C2152 1.358 . S
C2154 N2155 1.279 . S
C2154 H2195 0.930 . S
N2155 C2153 1.314 . S
N2155 C2154 1.279 . S
C2156 C2158 1.353 . S
C2156 N2159 1.314 . S
C2156 H2162 0.930 . S
C2157 N2159 1.279 . S
C2157 C2160 1.358 . S
C2157 H2163 0.930 . S
C2158 C2156 1.353 . S
C2158 C2161 1.348 . S
C2158 H2196 0.929 . S
N2159 Li2114 1.990 . S
N2159 C2156 1.314 . S
N2159 C2157 1.279 . S
C2160 C2157 1.358 . S
C2160 C2161 1.356 . S
C2160 H2197 0.930 . S
C2161 C2158 1.348 . S
C2161 C2160 1.356 . S
H2162 C2156 0.930 . S
H2163 C2157 0.930 . S
C2164 N2165 1.314 . S
C2164 C2166 1.353 . S
C2164 H2170 0.930 . S
N2165 Li2115 1.990 . S
N2165 C2164 1.314 . S
N2165 C2168 1.279 . S
C2166 C2164 1.353 . S
C2166 C2169 1.348 . S
C2166 H2198 0.929 . S
C2167 C2168 1.358 . S
C2167 C2169 1.356 . S
C2167 H2199 0.930 . S
C2168 N2165 1.279 . S
C2168 C2167 1.358 . S
C2168 H2171 0.930 . S
C2169 C2166 1.348 . S
C2169 C2167 1.356 . S
H2170 C2164 0.930 . S
H2171 C2168 0.930 . S
O2172 Li2112 1.956 . S
O2172 Li2113 1.970 . S
O2172 Li2114 1.961 . S
O2172 C2116 1.325 . S
O2173 Li2112 1.970 . S
O2173 Li2113 1.956 . S
O2173 Li2115 1.961 . S
O2173 C2122 1.325 . S
O2174 Li2112 1.961 . S
O2174 Li2114 1.956 . S
O2174 Li2115 1.970 . S
O2174 C2144 1.325 . S
O2175 Li2113 1.961 . S
O2175 Li2114 1.970 . S
O2175 Li2115 1.956 . S
O2175 C2150 1.325 . S
H2176 C2118 0.929 . S
H2177 C2119 0.930 . S
H2178 C2120 0.930 . S
H2179 C2121 0.930 . S
H2180 C2123 0.930 . S
H2181 C2125 0.929 . S
H2182 C2126 0.930 . S
H2183 C2127 0.930 . S
H2184 C2130 0.930 . S
H2185 C2133 0.929 . S
H2186 C2138 0.929 . S
H2187 C2139 0.930 . S
H2188 C2146 0.929 . S
H2189 C2147 0.930 . S
H2190 C2148 0.930 . S
H2191 C2149 0.930 . S
H2192 C2151 0.929 . S
H2193 C2152 0.930 . S
H2194 C2153 0.930 . S
H2195 C2154 0.930 . S
H2196 C2158 0.929 . S
H2197 C2160 0.930 . S
H2198 C2166 0.929 . S
H2199 C2167 0.930 . S
Li2200 N2217 1.990 . S
Li2200 O2260 1.956 . S
Li2200 O2261 1.970 . S
Li2200 O2262 1.961 . S
Li2201 N2225 1.990 . S
Li2201 O2260 1.970 . S
Li2201 O2261 1.956 . S
Li2201 O2263 1.961 . S
Li2202 N2247 1.990 . S
Li2202 O2260 1.961 . S
Li2202 O2262 1.956 . S
Li2202 O2263 1.970 . S
Li2203 N2253 1.990 . S
Li2203 O2261 1.961 . S
Li2203 O2262 1.970 . S
Li2203 O2263 1.956 . S
C2204 C2206 1.348 . S
C2204 C2207 1.356 . S
C2204 O2260 1.325 . S
N2205 C2208 1.314 . S
N2205 C2209 1.279 . S
C2206 C2204 1.348 . S
C2206 C2208 1.353 . S
C2206 H2264 0.929 . S
C2207 C2204 1.356 . S
C2207 C2209 1.358 . S
C2207 H2265 0.930 . S
C2208 N2205 1.314 . S
C2208 C2206 1.353 . S
C2208 H2266 0.930 . S
C2209 N2205 1.279 . S
C2209 C2207 1.358 . S
C2209 H2267 0.930 . S
C2210 C2213 1.348 . S
C2210 C2214 1.356 . S
C2210 O2261 1.325 . S
C2211 N2212 1.279 . S
C2211 C2214 1.358 . S
C2211 H2268 0.930 . S
N2212 C2211 1.279 . S
N2212 C2215 1.314 . S
C2213 C2210 1.348 . S
C2213 C2215 1.353 . S
C2213 H2269 0.929 . S
C2214 C2210 1.356 . S
C2214 C2211 1.358 . S
C2214 H2270 0.930 . S
C2215 N2212 1.314 . S
C2215 C2213 1.353 . S
C2215 H2271 0.930 . S
C2216 N2217 1.314 . S
C2216 C2221 1.353 . S
C2216 H2222 0.930 . S
N2217 Li2200 1.990 . S
N2217 C2216 1.314 . S
N2217 C2219 1.279 . S
C2218 C2219 1.358 . S
C2218 C2220 1.356 . S
C2218 H2272 0.930 . S
C2219 N2217 1.279 . S
C2219 C2218 1.358 . S
C2219 H2223 0.930 . S
C2220 C2218 1.356 . S
C2220 C2221 1.348 . S
C2221 C2216 1.353 . S
C2221 C2220 1.348 . S
C2221 H2273 0.929 . S
H2222 C2216 0.930 . S
H2223 C2219 0.930 . S
C2224 N2225 1.314 . S
C2224 C2226 1.353 . S
C2224 H2230 0.930 . S
N2225 Li2201 1.990 . S
N2225 C2224 1.314 . S
N2225 C2228 1.279 . S
C2226 C2224 1.353 . S
C2226 C2229 1.348 . S
C2226 H2274 0.929 . S
C2227 C2228 1.358 . S
C2227 C2229 1.356 . S
C2227 H2275 0.930 . S
C2228 N2225 1.279 . S
C2228 C2227 1.358 . S
C2228 H2231 0.930 . S
C2229 C2226 1.348 . S
C2229 C2227 1.356 . S
H2230 C2224 0.930 . S
H2231 C2228 0.930 . S
C2232 C2234 1.348 . S
C2232 C2235 1.356 . S
C2232 O2262 1.325 . S
N2233 C2236 1.314 . S
N2233 C2237 1.279 . S
C2234 C2232 1.348 . S
C2234 C2236 1.353 . S
C2234 H2276 0.929 . S
C2235 C2232 1.356 . S
C2235 C2237 1.358 . S
C2235 H2277 0.930 . S
C2236 N2233 1.314 . S
C2236 C2234 1.353 . S
C2236 H2278 0.930 . S
C2237 N2233 1.279 . S
C2237 C2235 1.358 . S
C2237 H2279 0.930 . S
C2238 C2239 1.348 . S
C2238 C2240 1.356 . S
C2238 O2263 1.325 . S
C2239 C2238 1.348 . S
C2239 C2241 1.353 . S
C2239 H2280 0.929 . S
C2240 C2238 1.356 . S
C2240 C2242 1.358 . S
C2240 H2281 0.930 . S
C2241 C2239 1.353 . S
C2241 N2243 1.314 . S
C2241 H2282 0.930 . S
C2242 C2240 1.358 . S
C2242 N2243 1.279 . S
C2242 H2283 0.930 . S
N2243 C2241 1.314 . S
N2243 C2242 1.279 . S
C2244 C2246 1.353 . S
C2244 N2247 1.314 . S
C2244 H2250 0.930 . S
C2245 N2247 1.279 . S
C2245 C2248 1.358 . S
C2245 H2251 0.930 . S
C2246 C2244 1.353 . S
C2246 C2249 1.348 . S
C2246 H2284 0.929 . S
N2247 Li2202 1.990 . S
N2247 C2244 1.314 . S
N2247 C2245 1.279 . S
C2248 C2245 1.358 . S
C2248 C2249 1.356 . S
C2248 H2285 0.930 . S
C2249 C2246 1.348 . S
C2249 C2248 1.356 . S
H2250 C2244 0.930 . S
H2251 C2245 0.930 . S
C2252 N2253 1.314 . S
C2252 C2254 1.353 . S
C2252 H2258 0.930 . S
N2253 Li2203 1.990 . S
N2253 C2252 1.314 . S
N2253 C2256 1.279 . S
C2254 C2252 1.353 . S
C2254 C2257 1.348 . S
C2254 H2286 0.929 . S
C2255 C2256 1.358 . S
C2255 C2257 1.356 . S
C2255 H2287 0.930 . S
C2256 N2253 1.279 . S
C2256 C2255 1.358 . S
C2256 H2259 0.930 . S
C2257 C2254 1.348 . S
C2257 C2255 1.356 . S
H2258 C2252 0.930 . S
H2259 C2256 0.930 . S
O2260 Li2200 1.956 . S
O2260 Li2201 1.970 . S
O2260 Li2202 1.961 . S
O2260 C2204 1.325 . S
O2261 Li2200 1.970 . S
O2261 Li2201 1.956 . S
O2261 Li2203 1.961 . S
O2261 C2210 1.325 . S
O2262 Li2200 1.961 . S
O2262 Li2202 1.956 . S
O2262 Li2203 1.970 . S
O2262 C2232 1.325 . S
O2263 Li2201 1.961 . S
O2263 Li2202 1.970 . S
O2263 Li2203 1.956 . S
O2263 C2238 1.325 . S
H2264 C2206 0.929 . S
H2265 C2207 0.930 . S
H2266 C2208 0.930 . S
H2267 C2209 0.930 . S
H2268 C2211 0.930 . S
H2269 C2213 0.929 . S
H2270 C2214 0.930 . S
H2271 C2215 0.930 . S
H2272 C2218 0.930 . S
H2273 C2221 0.929 . S
H2274 C2226 0.929 . S
H2275 C2227 0.930 . S
H2276 C2234 0.929 . S
H2277 C2235 0.930 . S
H2278 C2236 0.930 . S
H2279 C2237 0.930 . S
H2280 C2239 0.929 . S
H2281 C2240 0.930 . S
H2282 C2241 0.930 . S
H2283 C2242 0.930 . S
H2284 C2246 0.929 . S
H2285 C2248 0.930 . S
H2286 C2254 0.929 . S
H2287 C2255 0.930 . S
Li2288 N2305 1.990 . S
Li2288 O2348 1.956 . S
Li2288 O2349 1.970 . S
Li2288 O2350 1.961 . S
Li2289 N2313 1.990 . S
Li2289 O2348 1.970 . S
Li2289 O2349 1.956 . S
Li2289 O2351 1.961 . S
Li2290 N2335 1.990 . S
Li2290 O2348 1.961 . S
Li2290 O2350 1.956 . S
Li2290 O2351 1.970 . S
Li2291 N2341 1.990 . S
Li2291 O2349 1.961 . S
Li2291 O2350 1.970 . S
Li2291 O2351 1.956 . S
C2292 C2294 1.348 . S
C2292 C2295 1.356 . S
C2292 O2348 1.325 . S
N2293 C2296 1.314 . S
N2293 C2297 1.279 . S
C2294 C2292 1.348 . S
C2294 C2296 1.353 . S
C2294 H2352 0.929 . S
C2295 C2292 1.356 . S
C2295 C2297 1.358 . S
C2295 H2353 0.930 . S
C2296 N2293 1.314 . S
C2296 C2294 1.353 . S
C2296 H2354 0.930 . S
C2297 N2293 1.279 . S
C2297 C2295 1.358 . S
C2297 H2355 0.930 . S
C2298 C2301 1.348 . S
C2298 C2302 1.356 . S
C2298 O2349 1.325 . S
C2299 N2300 1.279 . S
C2299 C2302 1.358 . S
C2299 H2356 0.930 . S
N2300 C2299 1.279 . S
N2300 C2303 1.314 . S
C2301 C2298 1.348 . S
C2301 C2303 1.353 . S
C2301 H2357 0.929 . S
C2302 C2298 1.356 . S
C2302 C2299 1.358 . S
C2302 H2358 0.930 . S
C2303 N2300 1.314 . S
C2303 C2301 1.353 . S
C2303 H2359 0.930 . S
C2304 N2305 1.314 . S
C2304 C2309 1.353 . S
C2304 H2310 0.930 . S
N2305 Li2288 1.990 . S
N2305 C2304 1.314 . S
N2305 C2307 1.279 . S
C2306 C2307 1.358 . S
C2306 C2308 1.356 . S
C2306 H2360 0.930 . S
C2307 N2305 1.279 . S
C2307 C2306 1.358 . S
C2307 H2311 0.930 . S
C2308 C2306 1.356 . S
C2308 C2309 1.348 . S
C2309 C2304 1.353 . S
C2309 C2308 1.348 . S
C2309 H2361 0.929 . S
H2310 C2304 0.930 . S
H2311 C2307 0.930 . S
C2312 N2313 1.314 . S
C2312 C2314 1.353 . S
C2312 H2318 0.930 . S
N2313 Li2289 1.990 . S
N2313 C2312 1.314 . S
N2313 C2316 1.279 . S
C2314 C2312 1.353 . S
C2314 C2317 1.348 . S
C2314 H2362 0.929 . S
C2315 C2316 1.358 . S
C2315 C2317 1.356 . S
C2315 H2363 0.930 . S
C2316 N2313 1.279 . S
C2316 C2315 1.358 . S
C2316 H2319 0.930 . S
C2317 C2314 1.348 . S
C2317 C2315 1.356 . S
H2318 C2312 0.930 . S
H2319 C2316 0.930 . S
C2320 C2322 1.348 . S
C2320 C2323 1.356 . S
C2320 O2350 1.325 . S
N2321 C2324 1.314 . S
N2321 C2325 1.279 . S
C2322 C2320 1.348 . S
C2322 C2324 1.353 . S
C2322 H2364 0.929 . S
C2323 C2320 1.356 . S
C2323 C2325 1.358 . S
C2323 H2365 0.930 . S
C2324 N2321 1.314 . S
C2324 C2322 1.353 . S
C2324 H2366 0.930 . S
C2325 N2321 1.279 . S
C2325 C2323 1.358 . S
C2325 H2367 0.930 . S
C2326 C2327 1.348 . S
C2326 C2328 1.356 . S
C2326 O2351 1.325 . S
C2327 C2326 1.348 . S
C2327 C2329 1.353 . S
C2327 H2368 0.929 . S
C2328 C2326 1.356 . S
C2328 C2330 1.358 . S
C2328 H2369 0.930 . S
C2329 C2327 1.353 . S
C2329 N2331 1.314 . S
C2329 H2370 0.930 . S
C2330 C2328 1.358 . S
C2330 N2331 1.279 . S
C2330 H2371 0.930 . S
N2331 C2329 1.314 . S
N2331 C2330 1.279 . S
C2332 C2334 1.353 . S
C2332 N2335 1.314 . S
C2332 H2338 0.930 . S
C2333 N2335 1.279 . S
C2333 C2336 1.358 . S
C2333 H2339 0.930 . S
C2334 C2332 1.353 . S
C2334 C2337 1.348 . S
C2334 H2372 0.929 . S
N2335 Li2290 1.990 . S
N2335 C2332 1.314 . S
N2335 C2333 1.279 . S
C2336 C2333 1.358 . S
C2336 C2337 1.356 . S
C2336 H2373 0.930 . S
C2337 C2334 1.348 . S
C2337 C2336 1.356 . S
H2338 C2332 0.930 . S
H2339 C2333 0.930 . S
C2340 N2341 1.314 . S
C2340 C2342 1.353 . S
C2340 H2346 0.930 . S
N2341 Li2291 1.990 . S
N2341 C2340 1.314 . S
N2341 C2344 1.279 . S
C2342 C2340 1.353 . S
C2342 C2345 1.348 . S
C2342 H2374 0.929 . S
C2343 C2344 1.358 . S
C2343 C2345 1.356 . S
C2343 H2375 0.930 . S
C2344 N2341 1.279 . S
C2344 C2343 1.358 . S
C2344 H2347 0.930 . S
C2345 C2342 1.348 . S
C2345 C2343 1.356 . S
H2346 C2340 0.930 . S
H2347 C2344 0.930 . S
O2348 Li2288 1.956 . S
O2348 Li2289 1.970 . S
O2348 Li2290 1.961 . S
O2348 C2292 1.325 . S
O2349 Li2288 1.970 . S
O2349 Li2289 1.956 . S
O2349 Li2291 1.961 . S
O2349 C2298 1.325 . S
O2350 Li2288 1.961 . S
O2350 Li2290 1.956 . S
O2350 Li2291 1.970 . S
O2350 C2320 1.325 . S
O2351 Li2289 1.961 . S
O2351 Li2290 1.970 . S
O2351 Li2291 1.956 . S
O2351 C2326 1.325 . S
H2352 C2294 0.929 . S
H2353 C2295 0.930 . S
H2354 C2296 0.930 . S
H2355 C2297 0.930 . S
H2356 C2299 0.930 . S
H2357 C2301 0.929 . S
H2358 C2302 0.930 . S
H2359 C2303 0.930 . S
H2360 C2306 0.930 . S
H2361 C2309 0.929 . S
H2362 C2314 0.929 . S
H2363 C2315 0.930 . S
H2364 C2322 0.929 . S
H2365 C2323 0.930 . S
H2366 C2324 0.930 . S
H2367 C2325 0.930 . S
H2368 C2327 0.929 . S
H2369 C2328 0.930 . S
H2370 C2329 0.930 . S
H2371 C2330 0.930 . S
H2372 C2334 0.929 . S
H2373 C2336 0.930 . S
H2374 C2342 0.929 . S
H2375 C2343 0.930 . S
Li2376 N2393 1.990 . S
Li2376 O2436 1.956 . S
Li2376 O2437 1.970 . S
Li2376 O2438 1.961 . S
Li2377 N2401 1.990 . S
Li2377 O2436 1.970 . S
Li2377 O2437 1.956 . S
Li2377 O2439 1.961 . S
Li2378 N2423 1.990 . S
Li2378 O2436 1.961 . S
Li2378 O2438 1.956 . S
Li2378 O2439 1.970 . S
Li2379 N2429 1.990 . S
Li2379 O2437 1.961 . S
Li2379 O2438 1.970 . S
Li2379 O2439 1.956 . S
C2380 C2382 1.348 . S
C2380 C2383 1.356 . S
C2380 O2436 1.325 . S
N2381 C2384 1.314 . S
N2381 C2385 1.279 . S
C2382 C2380 1.348 . S
C2382 C2384 1.353 . S
C2382 H2440 0.929 . S
C2383 C2380 1.356 . S
C2383 C2385 1.358 . S
C2383 H2441 0.930 . S
C2384 N2381 1.314 . S
C2384 C2382 1.353 . S
C2384 H2442 0.930 . S
C2385 N2381 1.279 . S
C2385 C2383 1.358 . S
C2385 H2443 0.930 . S
C2386 C2389 1.348 . S
C2386 C2390 1.356 . S
C2386 O2437 1.325 . S
C2387 N2388 1.279 . S
C2387 C2390 1.358 . S
C2387 H2444 0.930 . S
N2388 C2387 1.279 . S
N2388 C2391 1.314 . S
C2389 C2386 1.348 . S
C2389 C2391 1.353 . S
C2389 H2445 0.929 . S
C2390 C2386 1.356 . S
C2390 C2387 1.358 . S
C2390 H2446 0.930 . S
C2391 N2388 1.314 . S
C2391 C2389 1.353 . S
C2391 H2447 0.930 . S
C2392 N2393 1.314 . S
C2392 C2397 1.353 . S
C2392 H2398 0.930 . S
N2393 Li2376 1.990 . S
N2393 C2392 1.314 . S
N2393 C2395 1.279 . S
C2394 C2395 1.358 . S
C2394 C2396 1.356 . S
C2394 H2448 0.930 . S
C2395 N2393 1.279 . S
C2395 C2394 1.358 . S
C2395 H2399 0.930 . S
C2396 C2394 1.356 . S
C2396 C2397 1.348 . S
C2397 C2392 1.353 . S
C2397 C2396 1.348 . S
C2397 H2449 0.929 . S
H2398 C2392 0.930 . S
H2399 C2395 0.930 . S
C2400 N2401 1.314 . S
C2400 C2402 1.353 . S
C2400 H2406 0.930 . S
N2401 Li2377 1.990 . S
N2401 C2400 1.314 . S
N2401 C2404 1.279 . S
C2402 C2400 1.353 . S
C2402 C2405 1.348 . S
C2402 H2450 0.929 . S
C2403 C2404 1.358 . S
C2403 C2405 1.356 . S
C2403 H2451 0.930 . S
C2404 N2401 1.279 . S
C2404 C2403 1.358 . S
C2404 H2407 0.930 . S
C2405 C2402 1.348 . S
C2405 C2403 1.356 . S
H2406 C2400 0.930 . S
H2407 C2404 0.930 . S
C2408 C2410 1.348 . S
C2408 C2411 1.356 . S
C2408 O2438 1.325 . S
N2409 C2412 1.314 . S
N2409 C2413 1.279 . S
C2410 C2408 1.348 . S
C2410 C2412 1.353 . S
C2410 H2452 0.929 . S
C2411 C2408 1.356 . S
C2411 C2413 1.358 . S
C2411 H2453 0.930 . S
C2412 N2409 1.314 . S
C2412 C2410 1.353 . S
C2412 H2454 0.930 . S
C2413 N2409 1.279 . S
C2413 C2411 1.358 . S
C2413 H2455 0.930 . S
C2414 C2415 1.348 . S
C2414 C2416 1.356 . S
C2414 O2439 1.325 . S
C2415 C2414 1.348 . S
C2415 C2417 1.353 . S
C2415 H2456 0.929 . S
C2416 C2414 1.356 . S
C2416 C2418 1.358 . S
C2416 H2457 0.930 . S
C2417 C2415 1.353 . S
C2417 N2419 1.314 . S
C2417 H2458 0.930 . S
C2418 C2416 1.358 . S
C2418 N2419 1.279 . S
C2418 H2459 0.930 . S
N2419 C2417 1.314 . S
N2419 C2418 1.279 . S
C2420 C2422 1.353 . S
C2420 N2423 1.314 . S
C2420 H2426 0.930 . S
C2421 N2423 1.279 . S
C2421 C2424 1.358 . S
C2421 H2427 0.930 . S
C2422 C2420 1.353 . S
C2422 C2425 1.348 . S
C2422 H2460 0.929 . S
N2423 Li2378 1.990 . S
N2423 C2420 1.314 . S
N2423 C2421 1.279 . S
C2424 C2421 1.358 . S
C2424 C2425 1.356 . S
C2424 H2461 0.930 . S
C2425 C2422 1.348 . S
C2425 C2424 1.356 . S
H2426 C2420 0.930 . S
H2427 C2421 0.930 . S
C2428 N2429 1.314 . S
C2428 C2430 1.353 . S
C2428 H2434 0.930 . S
N2429 Li2379 1.990 . S
N2429 C2428 1.314 . S
N2429 C2432 1.279 . S
C2430 C2428 1.353 . S
C2430 C2433 1.348 . S
C2430 H2462 0.929 . S
C2431 C2432 1.358 . S
C2431 C2433 1.356 . S
C2431 H2463 0.930 . S
C2432 N2429 1.279 . S
C2432 C2431 1.358 . S
C2432 H2435 0.930 . S
C2433 C2430 1.348 . S
C2433 C2431 1.356 . S
H2434 C2428 0.930 . S
H2435 C2432 0.930 . S
O2436 Li2376 1.956 . S
O2436 Li2377 1.970 . S
O2436 Li2378 1.961 . S
O2436 C2380 1.325 . S
O2437 Li2376 1.970 . S
O2437 Li2377 1.956 . S
O2437 Li2379 1.961 . S
O2437 C2386 1.325 . S
O2438 Li2376 1.961 . S
O2438 Li2378 1.956 . S
O2438 Li2379 1.970 . S
O2438 C2408 1.325 . S
O2439 Li2377 1.961 . S
O2439 Li2378 1.970 . S
O2439 Li2379 1.956 . S
O2439 C2414 1.325 . S
H2440 C2382 0.929 . S
H2441 C2383 0.930 . S
H2442 C2384 0.930 . S
H2443 C2385 0.930 . S
H2444 C2387 0.930 . S
H2445 C2389 0.929 . S
H2446 C2390 0.930 . S
H2447 C2391 0.930 . S
H2448 C2394 0.930 . S
H2449 C2397 0.929 . S
H2450 C2402 0.929 . S
H2451 C2403 0.930 . S
H2452 C2410 0.929 . S
H2453 C2411 0.930 . S
H2454 C2412 0.930 . S
H2455 C2413 0.930 . S
H2456 C2415 0.929 . S
H2457 C2416 0.930 . S
H2458 C2417 0.930 . S
H2459 C2418 0.930 . S
H2460 C2422 0.929 . S
H2461 C2424 0.930 . S
H2462 C2430 0.929 . S
H2463 C2431 0.930 . S
Li2464 N2481 1.990 . S
Li2464 O2524 1.956 . S
Li2464 O2525 1.970 . S
Li2464 O2526 1.961 . S
Li2465 N2489 1.990 . S
Li2465 O2524 1.970 . S
Li2465 O2525 1.956 . S
Li2465 O2527 1.961 . S
Li2466 N2511 1.990 . S
Li2466 O2524 1.961 . S
Li2466 O2526 1.956 . S
Li2466 O2527 1.970 . S
Li2467 N2517 1.990 . S
Li2467 O2525 1.961 . S
Li2467 O2526 1.970 . S
Li2467 O2527 1.956 . S
C2468 C2470 1.348 . S
C2468 C2471 1.356 . S
C2468 O2524 1.325 . S
N2469 C2472 1.314 . S
N2469 C2473 1.279 . S
C2470 C2468 1.348 . S
C2470 C2472 1.353 . S
C2470 H2528 0.929 . S
C2471 C2468 1.356 . S
C2471 C2473 1.358 . S
C2471 H2529 0.930 . S
C2472 N2469 1.314 . S
C2472 C2470 1.353 . S
C2472 H2530 0.930 . S
C2473 N2469 1.279 . S
C2473 C2471 1.358 . S
C2473 H2531 0.930 . S
C2474 C2477 1.348 . S
C2474 C2478 1.356 . S
C2474 O2525 1.325 . S
C2475 N2476 1.279 . S
C2475 C2478 1.358 . S
C2475 H2532 0.930 . S
N2476 C2475 1.279 . S
N2476 C2479 1.314 . S
C2477 C2474 1.348 . S
C2477 C2479 1.353 . S
C2477 H2533 0.929 . S
C2478 C2474 1.356 . S
C2478 C2475 1.358 . S
C2478 H2534 0.930 . S
C2479 N2476 1.314 . S
C2479 C2477 1.353 . S
C2479 H2535 0.930 . S
C2480 N2481 1.314 . S
C2480 C2485 1.353 . S
C2480 H2486 0.930 . S
N2481 Li2464 1.990 . S
N2481 C2480 1.314 . S
N2481 C2483 1.279 . S
C2482 C2483 1.358 . S
C2482 C2484 1.356 . S
C2482 H2536 0.930 . S
C2483 N2481 1.279 . S
C2483 C2482 1.358 . S
C2483 H2487 0.930 . S
C2484 C2482 1.356 . S
C2484 C2485 1.348 . S
C2485 C2480 1.353 . S
C2485 C2484 1.348 . S
C2485 H2537 0.929 . S
H2486 C2480 0.930 . S
H2487 C2483 0.930 . S
C2488 N2489 1.314 . S
C2488 C2490 1.353 . S
C2488 H2494 0.930 . S
N2489 Li2465 1.990 . S
N2489 C2488 1.314 . S
N2489 C2492 1.279 . S
C2490 C2488 1.353 . S
C2490 C2493 1.348 . S
C2490 H2538 0.929 . S
C2491 C2492 1.358 . S
C2491 C2493 1.356 . S
C2491 H2539 0.930 . S
C2492 N2489 1.279 . S
C2492 C2491 1.358 . S
C2492 H2495 0.930 . S
C2493 C2490 1.348 . S
C2493 C2491 1.356 . S
H2494 C2488 0.930 . S
H2495 C2492 0.930 . S
C2496 C2498 1.348 . S
C2496 C2499 1.356 . S
C2496 O2526 1.325 . S
N2497 C2500 1.314 . S
N2497 C2501 1.279 . S
C2498 C2496 1.348 . S
C2498 C2500 1.353 . S
C2498 H2540 0.929 . S
C2499 C2496 1.356 . S
C2499 C2501 1.358 . S
C2499 H2541 0.930 . S
C2500 N2497 1.314 . S
C2500 C2498 1.353 . S
C2500 H2542 0.930 . S
C2501 N2497 1.279 . S
C2501 C2499 1.358 . S
C2501 H2543 0.930 . S
C2502 C2503 1.348 . S
C2502 C2504 1.356 . S
C2502 O2527 1.325 . S
C2503 C2502 1.348 . S
C2503 C2505 1.353 . S
C2503 H2544 0.929 . S
C2504 C2502 1.356 . S
C2504 C2506 1.358 . S
C2504 H2545 0.930 . S
C2505 C2503 1.353 . S
C2505 N2507 1.314 . S
C2505 H2546 0.930 . S
C2506 C2504 1.358 . S
C2506 N2507 1.279 . S
C2506 H2547 0.930 . S
N2507 C2505 1.314 . S
N2507 C2506 1.279 . S
C2508 C2510 1.353 . S
C2508 N2511 1.314 . S
C2508 H2514 0.930 . S
C2509 N2511 1.279 . S
C2509 C2512 1.358 . S
C2509 H2515 0.930 . S
C2510 C2508 1.353 . S
C2510 C2513 1.348 . S
C2510 H2548 0.929 . S
N2511 Li2466 1.990 . S
N2511 C2508 1.314 . S
N2511 C2509 1.279 . S
C2512 C2509 1.358 . S
C2512 C2513 1.356 . S
C2512 H2549 0.930 . S
C2513 C2510 1.348 . S
C2513 C2512 1.356 . S
H2514 C2508 0.930 . S
H2515 C2509 0.930 . S
C2516 N2517 1.314 . S
C2516 C2518 1.353 . S
C2516 H2522 0.930 . S
N2517 Li2467 1.990 . S
N2517 C2516 1.314 . S
N2517 C2520 1.279 . S
C2518 C2516 1.353 . S
C2518 C2521 1.348 . S
C2518 H2550 0.929 . S
C2519 C2520 1.358 . S
C2519 C2521 1.356 . S
C2519 H2551 0.930 . S
C2520 N2517 1.279 . S
C2520 C2519 1.358 . S
C2520 H2523 0.930 . S
C2521 C2518 1.348 . S
C2521 C2519 1.356 . S
H2522 C2516 0.930 . S
H2523 C2520 0.930 . S
O2524 Li2464 1.956 . S
O2524 Li2465 1.970 . S
O2524 Li2466 1.961 . S
O2524 C2468 1.325 . S
O2525 Li2464 1.970 . S
O2525 Li2465 1.956 . S
O2525 Li2467 1.961 . S
O2525 C2474 1.325 . S
O2526 Li2464 1.961 . S
O2526 Li2466 1.956 . S
O2526 Li2467 1.970 . S
O2526 C2496 1.325 . S
O2527 Li2465 1.961 . S
O2527 Li2466 1.970 . S
O2527 Li2467 1.956 . S
O2527 C2502 1.325 . S
H2528 C2470 0.929 . S
H2529 C2471 0.930 . S
H2530 C2472 0.930 . S
H2531 C2473 0.930 . S
H2532 C2475 0.930 . S
H2533 C2477 0.929 . S
H2534 C2478 0.930 . S
H2535 C2479 0.930 . S
H2536 C2482 0.930 . S
H2537 C2485 0.929 . S
H2538 C2490 0.929 . S
H2539 C2491 0.930 . S
H2540 C2498 0.929 . S
H2541 C2499 0.930 . S
H2542 C2500 0.930 . S
H2543 C2501 0.930 . S
H2544 C2503 0.929 . S
H2545 C2504 0.930 . S
H2546 C2505 0.930 . S
H2547 C2506 0.930 . S
H2548 C2510 0.929 . S
H2549 C2512 0.930 . S
H2550 C2518 0.929 . S
H2551 C2519 0.930 . S
Li2552 N2569 1.990 . S
Li2552 O2612 1.956 . S
Li2552 O2613 1.970 . S
Li2552 O2614 1.961 . S
Li2553 N2577 1.990 . S
Li2553 O2612 1.970 . S
Li2553 O2613 1.956 . S
Li2553 O2615 1.961 . S
Li2554 N2599 1.990 . S
Li2554 O2612 1.961 . S
Li2554 O2614 1.956 . S
Li2554 O2615 1.970 . S
Li2555 N2605 1.990 . S
Li2555 O2613 1.961 . S
Li2555 O2614 1.970 . S
Li2555 O2615 1.956 . S
C2556 C2558 1.348 . S
C2556 C2559 1.356 . S
C2556 O2612 1.325 . S
N2557 C2560 1.314 . S
N2557 C2561 1.279 . S
C2558 C2556 1.348 . S
C2558 C2560 1.353 . S
C2558 H2616 0.929 . S
C2559 C2556 1.356 . S
C2559 C2561 1.358 . S
C2559 H2617 0.930 . S
C2560 N2557 1.314 . S
C2560 C2558 1.353 . S
C2560 H2618 0.930 . S
C2561 N2557 1.279 . S
C2561 C2559 1.358 . S
C2561 H2619 0.930 . S
C2562 C2565 1.348 . S
C2562 C2566 1.356 . S
C2562 O2613 1.325 . S
C2563 N2564 1.279 . S
C2563 C2566 1.358 . S
C2563 H2620 0.930 . S
N2564 C2563 1.279 . S
N2564 C2567 1.314 . S
C2565 C2562 1.348 . S
C2565 C2567 1.353 . S
C2565 H2621 0.929 . S
C2566 C2562 1.356 . S
C2566 C2563 1.358 . S
C2566 H2622 0.930 . S
C2567 N2564 1.314 . S
C2567 C2565 1.353 . S
C2567 H2623 0.930 . S
C2568 N2569 1.314 . S
C2568 C2573 1.353 . S
C2568 H2574 0.930 . S
N2569 Li2552 1.990 . S
N2569 C2568 1.314 . S
N2569 C2571 1.279 . S
C2570 C2571 1.358 . S
C2570 C2572 1.356 . S
C2570 H2624 0.930 . S
C2571 N2569 1.279 . S
C2571 C2570 1.358 . S
C2571 H2575 0.930 . S
C2572 C2570 1.356 . S
C2572 C2573 1.348 . S
C2573 C2568 1.353 . S
C2573 C2572 1.348 . S
C2573 H2625 0.929 . S
H2574 C2568 0.930 . S
H2575 C2571 0.930 . S
C2576 N2577 1.314 . S
C2576 C2578 1.353 . S
C2576 H2582 0.930 . S
N2577 Li2553 1.990 . S
N2577 C2576 1.314 . S
N2577 C2580 1.279 . S
C2578 C2576 1.353 . S
C2578 C2581 1.348 . S
C2578 H2626 0.929 . S
C2579 C2580 1.358 . S
C2579 C2581 1.356 . S
C2579 H2627 0.930 . S
C2580 N2577 1.279 . S
C2580 C2579 1.358 . S
C2580 H2583 0.930 . S
C2581 C2578 1.348 . S
C2581 C2579 1.356 . S
H2582 C2576 0.930 . S
H2583 C2580 0.930 . S
C2584 C2586 1.348 . S
C2584 C2587 1.356 . S
C2584 O2614 1.325 . S
N2585 C2588 1.314 . S
N2585 C2589 1.279 . S
C2586 C2584 1.348 . S
C2586 C2588 1.353 . S
C2586 H2628 0.929 . S
C2587 C2584 1.356 . S
C2587 C2589 1.358 . S
C2587 H2629 0.930 . S
C2588 N2585 1.314 . S
C2588 C2586 1.353 . S
C2588 H2630 0.930 . S
C2589 N2585 1.279 . S
C2589 C2587 1.358 . S
C2589 H2631 0.930 . S
C2590 C2591 1.348 . S
C2590 C2592 1.356 . S
C2590 O2615 1.325 . S
C2591 C2590 1.348 . S
C2591 C2593 1.353 . S
C2591 H2632 0.929 . S
C2592 C2590 1.356 . S
C2592 C2594 1.358 . S
C2592 H2633 0.930 . S
C2593 C2591 1.353 . S
C2593 N2595 1.314 . S
C2593 H2634 0.930 . S
C2594 C2592 1.358 . S
C2594 N2595 1.279 . S
C2594 H2635 0.930 . S
N2595 C2593 1.314 . S
N2595 C2594 1.279 . S
C2596 C2598 1.353 . S
C2596 N2599 1.314 . S
C2596 H2602 0.930 . S
C2597 N2599 1.279 . S
C2597 C2600 1.358 . S
C2597 H2603 0.930 . S
C2598 C2596 1.353 . S
C2598 C2601 1.348 . S
C2598 H2636 0.929 . S
N2599 Li2554 1.990 . S
N2599 C2596 1.314 . S
N2599 C2597 1.279 . S
C2600 C2597 1.358 . S
C2600 C2601 1.356 . S
C2600 H2637 0.930 . S
C2601 C2598 1.348 . S
C2601 C2600 1.356 . S
H2602 C2596 0.930 . S
H2603 C2597 0.930 . S
C2604 N2605 1.314 . S
C2604 C2606 1.353 . S
C2604 H2610 0.930 . S
N2605 Li2555 1.990 . S
N2605 C2604 1.314 . S
N2605 C2608 1.279 . S
C2606 C2604 1.353 . S
C2606 C2609 1.348 . S
C2606 H2638 0.929 . S
C2607 C2608 1.358 . S
C2607 C2609 1.356 . S
C2607 H2639 0.930 . S
C2608 N2605 1.279 . S
C2608 C2607 1.358 . S
C2608 H2611 0.930 . S
C2609 C2606 1.348 . S
C2609 C2607 1.356 . S
H2610 C2604 0.930 . S
H2611 C2608 0.930 . S
O2612 Li2552 1.956 . S
O2612 Li2553 1.970 . S
O2612 Li2554 1.961 . S
O2612 C2556 1.325 . S
O2613 Li2552 1.970 . S
O2613 Li2553 1.956 . S
O2613 Li2555 1.961 . S
O2613 C2562 1.325 . S
O2614 Li2552 1.961 . S
O2614 Li2554 1.956 . S
O2614 Li2555 1.970 . S
O2614 C2584 1.325 . S
O2615 Li2553 1.961 . S
O2615 Li2554 1.970 . S
O2615 Li2555 1.956 . S
O2615 C2590 1.325 . S
H2616 C2558 0.929 . S
H2617 C2559 0.930 . S
H2618 C2560 0.930 . S
H2619 C2561 0.930 . S
H2620 C2563 0.930 . S
H2621 C2565 0.929 . S
H2622 C2566 0.930 . S
H2623 C2567 0.930 . S
H2624 C2570 0.930 . S
H2625 C2573 0.929 . S
H2626 C2578 0.929 . S
H2627 C2579 0.930 . S
H2628 C2586 0.929 . S
H2629 C2587 0.930 . S
H2630 C2588 0.930 . S
H2631 C2589 0.930 . S
H2632 C2591 0.929 . S
H2633 C2592 0.930 . S
H2634 C2593 0.930 . S
H2635 C2594 0.930 . S
H2636 C2598 0.929 . S
H2637 C2600 0.930 . S
H2638 C2606 0.929 . S
H2639 C2607 0.930 . S
Li2640 N2657 1.990 . S
Li2640 O2700 1.956 . S
Li2640 O2701 1.970 . S
Li2640 O2702 1.961 . S
Li2641 N2665 1.990 . S
Li2641 O2700 1.970 . S
Li2641 O2701 1.956 . S
Li2641 O2703 1.961 . S
Li2642 N2687 1.990 . S
Li2642 O2700 1.961 . S
Li2642 O2702 1.956 . S
Li2642 O2703 1.970 . S
Li2643 N2693 1.990 . S
Li2643 O2701 1.961 . S
Li2643 O2702 1.970 . S
Li2643 O2703 1.956 . S
C2644 C2646 1.348 . S
C2644 C2647 1.356 . S
C2644 O2700 1.325 . S
N2645 C2648 1.314 . S
N2645 C2649 1.279 . S
C2646 C2644 1.348 . S
C2646 C2648 1.353 . S
C2646 H2704 0.929 . S
C2647 C2644 1.356 . S
C2647 C2649 1.358 . S
C2647 H2705 0.930 . S
C2648 N2645 1.314 . S
C2648 C2646 1.353 . S
C2648 H2706 0.930 . S
C2649 N2645 1.279 . S
C2649 C2647 1.358 . S
C2649 H2707 0.930 . S
C2650 C2653 1.348 . S
C2650 C2654 1.356 . S
C2650 O2701 1.325 . S
C2651 N2652 1.279 . S
C2651 C2654 1.358 . S
C2651 H2708 0.930 . S
N2652 C2651 1.279 . S
N2652 C2655 1.314 . S
C2653 C2650 1.348 . S
C2653 C2655 1.353 . S
C2653 H2709 0.929 . S
C2654 C2650 1.356 . S
C2654 C2651 1.358 . S
C2654 H2710 0.930 . S
C2655 N2652 1.314 . S
C2655 C2653 1.353 . S
C2655 H2711 0.930 . S
C2656 N2657 1.314 . S
C2656 C2661 1.353 . S
C2656 H2662 0.930 . S
N2657 Li2640 1.990 . S
N2657 C2656 1.314 . S
N2657 C2659 1.279 . S
C2658 C2659 1.358 . S
C2658 C2660 1.356 . S
C2658 H2712 0.930 . S
C2659 N2657 1.279 . S
C2659 C2658 1.358 . S
C2659 H2663 0.930 . S
C2660 C2658 1.356 . S
C2660 C2661 1.348 . S
C2661 C2656 1.353 . S
C2661 C2660 1.348 . S
C2661 H2713 0.929 . S
H2662 C2656 0.930 . S
H2663 C2659 0.930 . S
C2664 N2665 1.314 . S
C2664 C2666 1.353 . S
C2664 H2670 0.930 . S
N2665 Li2641 1.990 . S
N2665 C2664 1.314 . S
N2665 C2668 1.279 . S
C2666 C2664 1.353 . S
C2666 C2669 1.348 . S
C2666 H2714 0.929 . S
C2667 C2668 1.358 . S
C2667 C2669 1.356 . S
C2667 H2715 0.930 . S
C2668 N2665 1.279 . S
C2668 C2667 1.358 . S
C2668 H2671 0.930 . S
C2669 C2666 1.348 . S
C2669 C2667 1.356 . S
H2670 C2664 0.930 . S
H2671 C2668 0.930 . S
C2672 C2674 1.348 . S
C2672 C2675 1.356 . S
C2672 O2702 1.325 . S
N2673 C2676 1.314 . S
N2673 C2677 1.279 . S
C2674 C2672 1.348 . S
C2674 C2676 1.353 . S
C2674 H2716 0.929 . S
C2675 C2672 1.356 . S
C2675 C2677 1.358 . S
C2675 H2717 0.930 . S
C2676 N2673 1.314 . S
C2676 C2674 1.353 . S
C2676 H2718 0.930 . S
C2677 N2673 1.279 . S
C2677 C2675 1.358 . S
C2677 H2719 0.930 . S
C2678 C2679 1.348 . S
C2678 C2680 1.356 . S
C2678 O2703 1.325 . S
C2679 C2678 1.348 . S
C2679 C2681 1.353 . S
C2679 H2720 0.929 . S
C2680 C2678 1.356 . S
C2680 C2682 1.358 . S
C2680 H2721 0.930 . S
C2681 C2679 1.353 . S
C2681 N2683 1.314 . S
C2681 H2722 0.930 . S
C2682 C2680 1.358 . S
C2682 N2683 1.279 . S
C2682 H2723 0.930 . S
N2683 C2681 1.314 . S
N2683 C2682 1.279 . S
C2684 C2686 1.353 . S
C2684 N2687 1.314 . S
C2684 H2690 0.930 . S
C2685 N2687 1.279 . S
C2685 C2688 1.358 . S
C2685 H2691 0.930 . S
C2686 C2684 1.353 . S
C2686 C2689 1.348 . S
C2686 H2724 0.929 . S
N2687 Li2642 1.990 . S
N2687 C2684 1.314 . S
N2687 C2685 1.279 . S
C2688 C2685 1.358 . S
C2688 C2689 1.356 . S
C2688 H2725 0.930 . S
C2689 C2686 1.348 . S
C2689 C2688 1.356 . S
H2690 C2684 0.930 . S
H2691 C2685 0.930 . S
C2692 N2693 1.314 . S
C2692 C2694 1.353 . S
C2692 H2698 0.930 . S
N2693 Li2643 1.990 . S
N2693 C2692 1.314 . S
N2693 C2696 1.279 . S
C2694 C2692 1.353 . S
C2694 C2697 1.348 . S
C2694 H2726 0.929 . S
C2695 C2696 1.358 . S
C2695 C2697 1.356 . S
C2695 H2727 0.930 . S
C2696 N2693 1.279 . S
C2696 C2695 1.358 . S
C2696 H2699 0.930 . S
C2697 C2694 1.348 . S
C2697 C2695 1.356 . S
H2698 C2692 0.930 . S
H2699 C2696 0.930 . S
O2700 Li2640 1.956 . S
O2700 Li2641 1.970 . S
O2700 Li2642 1.961 . S
O2700 C2644 1.325 . S
O2701 Li2640 1.970 . S
O2701 Li2641 1.956 . S
O2701 Li2643 1.961 . S
O2701 C2650 1.325 . S
O2702 Li2640 1.961 . S
O2702 Li2642 1.956 . S
O2702 Li2643 1.970 . S
O2702 C2672 1.325 . S
O2703 Li2641 1.961 . S
O2703 Li2642 1.970 . S
O2703 Li2643 1.956 . S
O2703 C2678 1.325 . S
H2704 C2646 0.929 . S
H2705 C2647 0.930 . S
H2706 C2648 0.930 . S
H2707 C2649 0.930 . S
H2708 C2651 0.930 . S
H2709 C2653 0.929 . S
H2710 C2654 0.930 . S
H2711 C2655 0.930 . S
H2712 C2658 0.930 . S
H2713 C2661 0.929 . S
H2714 C2666 0.929 . S
H2715 C2667 0.930 . S
H2716 C2674 0.929 . S
H2717 C2675 0.930 . S
H2718 C2676 0.930 . S
H2719 C2677 0.930 . S
H2720 C2679 0.929 . S
H2721 C2680 0.930 . S
H2722 C2681 0.930 . S
H2723 C2682 0.930 . S
H2724 C2686 0.929 . S
H2725 C2688 0.930 . S
H2726 C2694 0.929 . S
H2727 C2695 0.930 . S
Li2728 N2745 1.990 . S
Li2728 O2788 1.956 . S
Li2728 O2789 1.970 . S
Li2728 O2790 1.961 . S
Li2729 N2753 1.990 . S
Li2729 O2788 1.970 . S
Li2729 O2789 1.956 . S
Li2729 O2791 1.961 . S
Li2730 N2775 1.990 . S
Li2730 O2788 1.961 . S
Li2730 O2790 1.956 . S
Li2730 O2791 1.970 . S
Li2731 N2781 1.990 . S
Li2731 O2789 1.961 . S
Li2731 O2790 1.970 . S
Li2731 O2791 1.956 . S
C2732 C2734 1.348 . S
C2732 C2735 1.356 . S
C2732 O2788 1.325 . S
N2733 C2736 1.314 . S
N2733 C2737 1.279 . S
C2734 C2732 1.348 . S
C2734 C2736 1.353 . S
C2734 H2792 0.929 . S
C2735 C2732 1.356 . S
C2735 C2737 1.358 . S
C2735 H2793 0.930 . S
C2736 N2733 1.314 . S
C2736 C2734 1.353 . S
C2736 H2794 0.930 . S
C2737 N2733 1.279 . S
C2737 C2735 1.358 . S
C2737 H2795 0.930 . S
C2738 C2741 1.348 . S
C2738 C2742 1.356 . S
C2738 O2789 1.325 . S
C2739 N2740 1.279 . S
C2739 C2742 1.358 . S
C2739 H2796 0.930 . S
N2740 C2739 1.279 . S
N2740 C2743 1.314 . S
C2741 C2738 1.348 . S
C2741 C2743 1.353 . S
C2741 H2797 0.929 . S
C2742 C2738 1.356 . S
C2742 C2739 1.358 . S
C2742 H2798 0.930 . S
C2743 N2740 1.314 . S
C2743 C2741 1.353 . S
C2743 H2799 0.930 . S
C2744 N2745 1.314 . S
C2744 C2749 1.353 . S
C2744 H2750 0.930 . S
N2745 Li2728 1.990 . S
N2745 C2744 1.314 . S
N2745 C2747 1.279 . S
C2746 C2747 1.358 . S
C2746 C2748 1.356 . S
C2746 H2800 0.930 . S
C2747 N2745 1.279 . S
C2747 C2746 1.358 . S
C2747 H2751 0.930 . S
C2748 C2746 1.356 . S
C2748 C2749 1.348 . S
C2749 C2744 1.353 . S
C2749 C2748 1.348 . S
C2749 H2801 0.929 . S
H2750 C2744 0.930 . S
H2751 C2747 0.930 . S
C2752 N2753 1.314 . S
C2752 C2754 1.353 . S
C2752 H2758 0.930 . S
N2753 Li2729 1.990 . S
N2753 C2752 1.314 . S
N2753 C2756 1.279 . S
C2754 C2752 1.353 . S
C2754 C2757 1.348 . S
C2754 H2802 0.929 . S
C2755 C2756 1.358 . S
C2755 C2757 1.356 . S
C2755 H2803 0.930 . S
C2756 N2753 1.279 . S
C2756 C2755 1.358 . S
C2756 H2759 0.930 . S
C2757 C2754 1.348 . S
C2757 C2755 1.356 . S
H2758 C2752 0.930 . S
H2759 C2756 0.930 . S
C2760 C2762 1.348 . S
C2760 C2763 1.356 . S
C2760 O2790 1.325 . S
N2761 C2764 1.314 . S
N2761 C2765 1.279 . S
C2762 C2760 1.348 . S
C2762 C2764 1.353 . S
C2762 H2804 0.929 . S
C2763 C2760 1.356 . S
C2763 C2765 1.358 . S
C2763 H2805 0.930 . S
C2764 N2761 1.314 . S
C2764 C2762 1.353 . S
C2764 H2806 0.930 . S
C2765 N2761 1.279 . S
C2765 C2763 1.358 . S
C2765 H2807 0.930 . S
C2766 C2767 1.348 . S
C2766 C2768 1.356 . S
C2766 O2791 1.325 . S
C2767 C2766 1.348 . S
C2767 C2769 1.353 . S
C2767 H2808 0.929 . S
C2768 C2766 1.356 . S
C2768 C2770 1.358 . S
C2768 H2809 0.930 . S
C2769 C2767 1.353 . S
C2769 N2771 1.314 . S
C2769 H2810 0.930 . S
C2770 C2768 1.358 . S
C2770 N2771 1.279 . S
C2770 H2811 0.930 . S
N2771 C2769 1.314 . S
N2771 C2770 1.279 . S
C2772 C2774 1.353 . S
C2772 N2775 1.314 . S
C2772 H2778 0.930 . S
C2773 N2775 1.279 . S
C2773 C2776 1.358 . S
C2773 H2779 0.930 . S
C2774 C2772 1.353 . S
C2774 C2777 1.348 . S
C2774 H2812 0.929 . S
N2775 Li2730 1.990 . S
N2775 C2772 1.314 . S
N2775 C2773 1.279 . S
C2776 C2773 1.358 . S
C2776 C2777 1.356 . S
C2776 H2813 0.930 . S
C2777 C2774 1.348 . S
C2777 C2776 1.356 . S
H2778 C2772 0.930 . S
H2779 C2773 0.930 . S
C2780 N2781 1.314 . S
C2780 C2782 1.353 . S
C2780 H2786 0.930 . S
N2781 Li2731 1.990 . S
N2781 C2780 1.314 . S
N2781 C2784 1.279 . S
C2782 C2780 1.353 . S
C2782 C2785 1.348 . S
C2782 H2814 0.929 . S
C2783 C2784 1.358 . S
C2783 C2785 1.356 . S
C2783 H2815 0.930 . S
C2784 N2781 1.279 . S
C2784 C2783 1.358 . S
C2784 H2787 0.930 . S
C2785 C2782 1.348 . S
C2785 C2783 1.356 . S
H2786 C2780 0.930 . S
H2787 C2784 0.930 . S
O2788 Li2728 1.956 . S
O2788 Li2729 1.970 . S
O2788 Li2730 1.961 . S
O2788 C2732 1.325 . S
O2789 Li2728 1.970 . S
O2789 Li2729 1.956 . S
O2789 Li2731 1.961 . S
O2789 C2738 1.325 . S
O2790 Li2728 1.961 . S
O2790 Li2730 1.956 . S
O2790 Li2731 1.970 . S
O2790 C2760 1.325 . S
O2791 Li2729 1.961 . S
O2791 Li2730 1.970 . S
O2791 Li2731 1.956 . S
O2791 C2766 1.325 . S
H2792 C2734 0.929 . S
H2793 C2735 0.930 . S
H2794 C2736 0.930 . S
H2795 C2737 0.930 . S
H2796 C2739 0.930 . S
H2797 C2741 0.929 . S
H2798 C2742 0.930 . S
H2799 C2743 0.930 . S
H2800 C2746 0.930 . S
H2801 C2749 0.929 . S
H2802 C2754 0.929 . S
H2803 C2755 0.930 . S
H2804 C2762 0.929 . S
H2805 C2763 0.930 . S
H2806 C2764 0.930 . S
H2807 C2765 0.930 . S
H2808 C2767 0.929 . S
H2809 C2768 0.930 . S
H2810 C2769 0.930 . S
H2811 C2770 0.930 . S
H2812 C2774 0.929 . S
H2813 C2776 0.930 . S
H2814 C2782 0.929 . S
H2815 C2783 0.930 . S
Li2816 N2833 1.990 . S
Li2816 O2876 1.956 . S
Li2816 O2877 1.970 . S
Li2816 O2878 1.961 . S
Li2817 N2841 1.990 . S
Li2817 O2876 1.970 . S
Li2817 O2877 1.956 . S
Li2817 O2879 1.961 . S
Li2818 N2863 1.990 . S
Li2818 O2876 1.961 . S
Li2818 O2878 1.956 . S
Li2818 O2879 1.970 . S
Li2819 N2869 1.990 . S
Li2819 O2877 1.961 . S
Li2819 O2878 1.970 . S
Li2819 O2879 1.956 . S
C2820 C2822 1.348 . S
C2820 C2823 1.356 . S
C2820 O2876 1.325 . S
N2821 C2824 1.314 . S
N2821 C2825 1.279 . S
C2822 C2820 1.348 . S
C2822 C2824 1.353 . S
C2822 H2880 0.929 . S
C2823 C2820 1.356 . S
C2823 C2825 1.358 . S
C2823 H2881 0.930 . S
C2824 N2821 1.314 . S
C2824 C2822 1.353 . S
C2824 H2882 0.930 . S
C2825 N2821 1.279 . S
C2825 C2823 1.358 . S
C2825 H2883 0.930 . S
C2826 C2829 1.348 . S
C2826 C2830 1.356 . S
C2826 O2877 1.325 . S
C2827 N2828 1.279 . S
C2827 C2830 1.358 . S
C2827 H2884 0.930 . S
N2828 C2827 1.279 . S
N2828 C2831 1.314 . S
C2829 C2826 1.348 . S
C2829 C2831 1.353 . S
C2829 H2885 0.929 . S
C2830 C2826 1.356 . S
C2830 C2827 1.358 . S
C2830 H2886 0.930 . S
C2831 N2828 1.314 . S
C2831 C2829 1.353 . S
C2831 H2887 0.930 . S
C2832 N2833 1.314 . S
C2832 C2837 1.353 . S
C2832 H2838 0.930 . S
N2833 Li2816 1.990 . S
N2833 C2832 1.314 . S
N2833 C2835 1.279 . S
C2834 C2835 1.358 . S
C2834 C2836 1.356 . S
C2834 H2888 0.930 . S
C2835 N2833 1.279 . S
C2835 C2834 1.358 . S
C2835 H2839 0.930 . S
C2836 C2834 1.356 . S
C2836 C2837 1.348 . S
C2837 C2832 1.353 . S
C2837 C2836 1.348 . S
C2837 H2889 0.929 . S
H2838 C2832 0.930 . S
H2839 C2835 0.930 . S
C2840 N2841 1.314 . S
C2840 C2842 1.353 . S
C2840 H2846 0.930 . S
N2841 Li2817 1.990 . S
N2841 C2840 1.314 . S
N2841 C2844 1.279 . S
C2842 C2840 1.353 . S
C2842 C2845 1.348 . S
C2842 H2890 0.929 . S
C2843 C2844 1.358 . S
C2843 C2845 1.356 . S
C2843 H2891 0.930 . S
C2844 N2841 1.279 . S
C2844 C2843 1.358 . S
C2844 H2847 0.930 . S
C2845 C2842 1.348 . S
C2845 C2843 1.356 . S
H2846 C2840 0.930 . S
H2847 C2844 0.930 . S
C2848 C2850 1.348 . S
C2848 C2851 1.356 . S
C2848 O2878 1.325 . S
N2849 C2852 1.314 . S
N2849 C2853 1.279 . S
C2850 C2848 1.348 . S
C2850 C2852 1.353 . S
C2850 H2892 0.929 . S
C2851 C2848 1.356 . S
C2851 C2853 1.358 . S
C2851 H2893 0.930 . S
C2852 N2849 1.314 . S
C2852 C2850 1.353 . S
C2852 H2894 0.930 . S
C2853 N2849 1.279 . S
C2853 C2851 1.358 . S
C2853 H2895 0.930 . S
C2854 C2855 1.348 . S
C2854 C2856 1.356 . S
C2854 O2879 1.325 . S
C2855 C2854 1.348 . S
C2855 C2857 1.353 . S
C2855 H2896 0.929 . S
C2856 C2854 1.356 . S
C2856 C2858 1.358 . S
C2856 H2897 0.930 . S
C2857 C2855 1.353 . S
C2857 N2859 1.314 . S
C2857 H2898 0.930 . S
C2858 C2856 1.358 . S
C2858 N2859 1.279 . S
C2858 H2899 0.930 . S
N2859 C2857 1.314 . S
N2859 C2858 1.279 . S
C2860 C2862 1.353 . S
C2860 N2863 1.314 . S
C2860 H2866 0.930 . S
C2861 N2863 1.279 . S
C2861 C2864 1.358 . S
C2861 H2867 0.930 . S
C2862 C2860 1.353 . S
C2862 C2865 1.348 . S
C2862 H2900 0.929 . S
N2863 Li2818 1.990 . S
N2863 C2860 1.314 . S
N2863 C2861 1.279 . S
C2864 C2861 1.358 . S
C2864 C2865 1.356 . S
C2864 H2901 0.930 . S
C2865 C2862 1.348 . S
C2865 C2864 1.356 . S
H2866 C2860 0.930 . S
H2867 C2861 0.930 . S
C2868 N2869 1.314 . S
C2868 C2870 1.353 . S
C2868 H2874 0.930 . S
N2869 Li2819 1.990 . S
N2869 C2868 1.314 . S
N2869 C2872 1.279 . S
C2870 C2868 1.353 . S
C2870 C2873 1.348 . S
C2870 H2902 0.929 . S
C2871 C2872 1.358 . S
C2871 C2873 1.356 . S
C2871 H2903 0.930 . S
C2872 N2869 1.279 . S
C2872 C2871 1.358 . S
C2872 H2875 0.930 . S
C2873 C2870 1.348 . S
C2873 C2871 1.356 . S
H2874 C2868 0.930 . S
H2875 C2872 0.930 . S
O2876 Li2816 1.956 . S
O2876 Li2817 1.970 . S
O2876 Li2818 1.961 . S
O2876 C2820 1.325 . S
O2877 Li2816 1.970 . S
O2877 Li2817 1.956 . S
O2877 Li2819 1.961 . S
O2877 C2826 1.325 . S
O2878 Li2816 1.961 . S
O2878 Li2818 1.956 . S
O2878 Li2819 1.970 . S
O2878 C2848 1.325 . S
O2879 Li2817 1.961 . S
O2879 Li2818 1.970 . S
O2879 Li2819 1.956 . S
O2879 C2854 1.325 . S
H2880 C2822 0.929 . S
H2881 C2823 0.930 . S
H2882 C2824 0.930 . S
H2883 C2825 0.930 . S
H2884 C2827 0.930 . S
H2885 C2829 0.929 . S
H2886 C2830 0.930 . S
H2887 C2831 0.930 . S
H2888 C2834 0.930 . S
H2889 C2837 0.929 . S
H2890 C2842 0.929 . S
H2891 C2843 0.930 . S
H2892 C2850 0.929 . S
H2893 C2851 0.930 . S
H2894 C2852 0.930 . S
H2895 C2853 0.930 . S
H2896 C2855 0.929 . S
H2897 C2856 0.930 . S
H2898 C2857 0.930 . S
H2899 C2858 0.930 . S
H2900 C2862 0.929 . S
H2901 C2864 0.930 . S
H2902 C2870 0.929 . S
H2903 C2871 0.930 . S
Li2904 N2921 1.990 . S
Li2904 O2964 1.956 . S
Li2904 O2965 1.970 . S
Li2904 O2966 1.961 . S
Li2905 N2929 1.990 . S
Li2905 O2964 1.970 . S
Li2905 O2965 1.956 . S
Li2905 O2967 1.961 . S
Li2906 N2951 1.990 . S
Li2906 O2964 1.961 . S
Li2906 O2966 1.956 . S
Li2906 O2967 1.970 . S
Li2907 N2957 1.990 . S
Li2907 O2965 1.961 . S
Li2907 O2966 1.970 . S
Li2907 O2967 1.956 . S
C2908 C2910 1.348 . S
C2908 C2911 1.356 . S
C2908 O2964 1.325 . S
N2909 C2912 1.314 . S
N2909 C2913 1.279 . S
C2910 C2908 1.348 . S
C2910 C2912 1.353 . S
C2910 H2968 0.929 . S
C2911 C2908 1.356 . S
C2911 C2913 1.358 . S
C2911 H2969 0.930 . S
C2912 N2909 1.314 . S
C2912 C2910 1.353 . S
C2912 H2970 0.930 . S
C2913 N2909 1.279 . S
C2913 C2911 1.358 . S
C2913 H2971 0.930 . S
C2914 C2917 1.348 . S
C2914 C2918 1.356 . S
C2914 O2965 1.325 . S
C2915 N2916 1.279 . S
C2915 C2918 1.358 . S
C2915 H2972 0.930 . S
N2916 C2915 1.279 . S
N2916 C2919 1.314 . S
C2917 C2914 1.348 . S
C2917 C2919 1.353 . S
C2917 H2973 0.929 . S
C2918 C2914 1.356 . S
C2918 C2915 1.358 . S
C2918 H2974 0.930 . S
C2919 N2916 1.314 . S
C2919 C2917 1.353 . S
C2919 H2975 0.930 . S
C2920 N2921 1.314 . S
C2920 C2925 1.353 . S
C2920 H2926 0.930 . S
N2921 Li2904 1.990 . S
N2921 C2920 1.314 . S
N2921 C2923 1.279 . S
C2922 C2923 1.358 . S
C2922 C2924 1.356 . S
C2922 H2976 0.930 . S
C2923 N2921 1.279 . S
C2923 C2922 1.358 . S
C2923 H2927 0.930 . S
C2924 C2922 1.356 . S
C2924 C2925 1.348 . S
C2925 C2920 1.353 . S
C2925 C2924 1.348 . S
C2925 H2977 0.929 . S
H2926 C2920 0.930 . S
H2927 C2923 0.930 . S
C2928 N2929 1.314 . S
C2928 C2930 1.353 . S
C2928 H2934 0.930 . S
N2929 Li2905 1.990 . S
N2929 C2928 1.314 . S
N2929 C2932 1.279 . S
C2930 C2928 1.353 . S
C2930 C2933 1.348 . S
C2930 H2978 0.929 . S
C2931 C2932 1.358 . S
C2931 C2933 1.356 . S
C2931 H2979 0.930 . S
C2932 N2929 1.279 . S
C2932 C2931 1.358 . S
C2932 H2935 0.930 . S
C2933 C2930 1.348 . S
C2933 C2931 1.356 . S
H2934 C2928 0.930 . S
H2935 C2932 0.930 . S
C2936 C2938 1.348 . S
C2936 C2939 1.356 . S
C2936 O2966 1.325 . S
N2937 C2940 1.314 . S
N2937 C2941 1.279 . S
C2938 C2936 1.348 . S
C2938 C2940 1.353 . S
C2938 H2980 0.929 . S
C2939 C2936 1.356 . S
C2939 C2941 1.358 . S
C2939 H2981 0.930 . S
C2940 N2937 1.314 . S
C2940 C2938 1.353 . S
C2940 H2982 0.930 . S
C2941 N2937 1.279 . S
C2941 C2939 1.358 . S
C2941 H2983 0.930 . S
C2942 C2943 1.348 . S
C2942 C2944 1.356 . S
C2942 O2967 1.325 . S
C2943 C2942 1.348 . S
C2943 C2945 1.353 . S
C2943 H2984 0.929 . S
C2944 C2942 1.356 . S
C2944 C2946 1.358 . S
C2944 H2985 0.930 . S
C2945 C2943 1.353 . S
C2945 N2947 1.314 . S
C2945 H2986 0.930 . S
C2946 C2944 1.358 . S
C2946 N2947 1.279 . S
C2946 H2987 0.930 . S
N2947 C2945 1.314 . S
N2947 C2946 1.279 . S
C2948 C2950 1.353 . S
C2948 N2951 1.314 . S
C2948 H2954 0.930 . S
C2949 N2951 1.279 . S
C2949 C2952 1.358 . S
C2949 H2955 0.930 . S
C2950 C2948 1.353 . S
C2950 C2953 1.348 . S
C2950 H2988 0.929 . S
N2951 Li2906 1.990 . S
N2951 C2948 1.314 . S
N2951 C2949 1.279 . S
C2952 C2949 1.358 . S
C2952 C2953 1.356 . S
C2952 H2989 0.930 . S
C2953 C2950 1.348 . S
C2953 C2952 1.356 . S
H2954 C2948 0.930 . S
H2955 C2949 0.930 . S
C2956 N2957 1.314 . S
C2956 C2958 1.353 . S
C2956 H2962 0.930 . S
N2957 Li2907 1.990 . S
N2957 C2956 1.314 . S
N2957 C2960 1.279 . S
C2958 C2956 1.353 . S
C2958 C2961 1.348 . S
C2958 H2990 0.929 . S
C2959 C2960 1.358 . S
C2959 C2961 1.356 . S
C2959 H2991 0.930 . S
C2960 N2957 1.279 . S
C2960 C2959 1.358 . S
C2960 H2963 0.930 . S
C2961 C2958 1.348 . S
C2961 C2959 1.356 . S
H2962 C2956 0.930 . S
H2963 C2960 0.930 . S
O2964 Li2904 1.956 . S
O2964 Li2905 1.970 . S
O2964 Li2906 1.961 . S
O2964 C2908 1.325 . S
O2965 Li2904 1.970 . S
O2965 Li2905 1.956 . S
O2965 Li2907 1.961 . S
O2965 C2914 1.325 . S
O2966 Li2904 1.961 . S
O2966 Li2906 1.956 . S
O2966 Li2907 1.970 . S
O2966 C2936 1.325 . S
O2967 Li2905 1.961 . S
O2967 Li2906 1.970 . S
O2967 Li2907 1.956 . S
O2967 C2942 1.325 . S
H2968 C2910 0.929 . S
H2969 C2911 0.930 . S
H2970 C2912 0.930 . S
H2971 C2913 0.930 . S
H2972 C2915 0.930 . S
H2973 C2917 0.929 . S
H2974 C2918 0.930 . S
H2975 C2919 0.930 . S
H2976 C2922 0.930 . S
H2977 C2925 0.929 . S
H2978 C2930 0.929 . S
H2979 C2931 0.930 . S
H2980 C2938 0.929 . S
H2981 C2939 0.930 . S
H2982 C2940 0.930 . S
H2983 C2941 0.930 . S
H2984 C2943 0.929 . S
H2985 C2944 0.930 . S
H2986 C2945 0.930 . S
H2987 C2946 0.930 . S
H2988 C2950 0.929 . S
H2989 C2952 0.930 . S
H2990 C2958 0.929 . S
H2991 C2959 0.930 . S
Li2992 N3009 1.990 . S
Li2992 O3052 1.956 . S
Li2992 O3053 1.970 . S
Li2992 O3054 1.961 . S
Li2993 N3017 1.990 . S
Li2993 O3052 1.970 . S
Li2993 O3053 1.956 . S
Li2993 O3055 1.961 . S
Li2994 N3039 1.990 . S
Li2994 O3052 1.961 . S
Li2994 O3054 1.956 . S
Li2994 O3055 1.970 . S
Li2995 N3045 1.990 . S
Li2995 O3053 1.961 . S
Li2995 O3054 1.970 . S
Li2995 O3055 1.956 . S
C2996 C2998 1.348 . S
C2996 C2999 1.356 . S
C2996 O3052 1.325 . S
N2997 C3000 1.314 . S
N2997 C3001 1.279 . S
C2998 C2996 1.348 . S
C2998 C3000 1.353 . S
C2998 H3056 0.929 . S
C2999 C2996 1.356 . S
C2999 C3001 1.358 . S
C2999 H3057 0.930 . S
C3000 N2997 1.314 . S
C3000 C2998 1.353 . S
C3000 H3058 0.930 . S
C3001 N2997 1.279 . S
C3001 C2999 1.358 . S
C3001 H3059 0.930 . S
C3002 C3005 1.348 . S
C3002 C3006 1.356 . S
C3002 O3053 1.325 . S
C3003 N3004 1.279 . S
C3003 C3006 1.358 . S
C3003 H3060 0.930 . S
N3004 C3003 1.279 . S
N3004 C3007 1.314 . S
C3005 C3002 1.348 . S
C3005 C3007 1.353 . S
C3005 H3061 0.929 . S
C3006 C3002 1.356 . S
C3006 C3003 1.358 . S
C3006 H3062 0.930 . S
C3007 N3004 1.314 . S
C3007 C3005 1.353 . S
C3007 H3063 0.930 . S
C3008 N3009 1.314 . S
C3008 C3013 1.353 . S
C3008 H3014 0.930 . S
N3009 Li2992 1.990 . S
N3009 C3008 1.314 . S
N3009 C3011 1.279 . S
C3010 C3011 1.358 . S
C3010 C3012 1.356 . S
C3010 H3064 0.930 . S
C3011 N3009 1.279 . S
C3011 C3010 1.358 . S
C3011 H3015 0.930 . S
C3012 C3010 1.356 . S
C3012 C3013 1.348 . S
C3013 C3008 1.353 . S
C3013 C3012 1.348 . S
C3013 H3065 0.929 . S
H3014 C3008 0.930 . S
H3015 C3011 0.930 . S
C3016 N3017 1.314 . S
C3016 C3018 1.353 . S
C3016 H3022 0.930 . S
N3017 Li2993 1.990 . S
N3017 C3016 1.314 . S
N3017 C3020 1.279 . S
C3018 C3016 1.353 . S
C3018 C3021 1.348 . S
C3018 H3066 0.929 . S
C3019 C3020 1.358 . S
C3019 C3021 1.356 . S
C3019 H3067 0.930 . S
C3020 N3017 1.279 . S
C3020 C3019 1.358 . S
C3020 H3023 0.930 . S
C3021 C3018 1.348 . S
C3021 C3019 1.356 . S
H3022 C3016 0.930 . S
H3023 C3020 0.930 . S
C3024 C3026 1.348 . S
C3024 C3027 1.356 . S
C3024 O3054 1.325 . S
N3025 C3028 1.314 . S
N3025 C3029 1.279 . S
C3026 C3024 1.348 . S
C3026 C3028 1.353 . S
C3026 H3068 0.929 . S
C3027 C3024 1.356 . S
C3027 C3029 1.358 . S
C3027 H3069 0.930 . S
C3028 N3025 1.314 . S
C3028 C3026 1.353 . S
C3028 H3070 0.930 . S
C3029 N3025 1.279 . S
C3029 C3027 1.358 . S
C3029 H3071 0.930 . S
C3030 C3031 1.348 . S
C3030 C3032 1.356 . S
C3030 O3055 1.325 . S
C3031 C3030 1.348 . S
C3031 C3033 1.353 . S
C3031 H3072 0.929 . S
C3032 C3030 1.356 . S
C3032 C3034 1.358 . S
C3032 H3073 0.930 . S
C3033 C3031 1.353 . S
C3033 N3035 1.314 . S
C3033 H3074 0.930 . S
C3034 C3032 1.358 . S
C3034 N3035 1.279 . S
C3034 H3075 0.930 . S
N3035 C3033 1.314 . S
N3035 C3034 1.279 . S
C3036 C3038 1.353 . S
C3036 N3039 1.314 . S
C3036 H3042 0.930 . S
C3037 N3039 1.279 . S
C3037 C3040 1.358 . S
C3037 H3043 0.930 . S
C3038 C3036 1.353 . S
C3038 C3041 1.348 . S
C3038 H3076 0.929 . S
N3039 Li2994 1.990 . S
N3039 C3036 1.314 . S
N3039 C3037 1.279 . S
C3040 C3037 1.358 . S
C3040 C3041 1.356 . S
C3040 H3077 0.930 . S
C3041 C3038 1.348 . S
C3041 C3040 1.356 . S
H3042 C3036 0.930 . S
H3043 C3037 0.930 . S
C3044 N3045 1.314 . S
C3044 C3046 1.353 . S
C3044 H3050 0.930 . S
N3045 Li2995 1.990 . S
N3045 C3044 1.314 . S
N3045 C3048 1.279 . S
C3046 C3044 1.353 . S
C3046 C3049 1.348 . S
C3046 H3078 0.929 . S
C3047 C3048 1.358 . S
C3047 C3049 1.356 . S
C3047 H3079 0.930 . S
C3048 N3045 1.279 . S
C3048 C3047 1.358 . S
C3048 H3051 0.930 . S
C3049 C3046 1.348 . S
C3049 C3047 1.356 . S
H3050 C3044 0.930 . S
H3051 C3048 0.930 . S
O3052 Li2992 1.956 . S
O3052 Li2993 1.970 . S
O3052 Li2994 1.961 . S
O3052 C2996 1.325 . S
O3053 Li2992 1.970 . S
O3053 Li2993 1.956 . S
O3053 Li2995 1.961 . S
O3053 C3002 1.325 . S
O3054 Li2992 1.961 . S
O3054 Li2994 1.956 . S
O3054 Li2995 1.970 . S
O3054 C3024 1.325 . S
O3055 Li2993 1.961 . S
O3055 Li2994 1.970 . S
O3055 Li2995 1.956 . S
O3055 C3030 1.325 . S
H3056 C2998 0.929 . S
H3057 C2999 0.930 . S
H3058 C3000 0.930 . S
H3059 C3001 0.930 . S
H3060 C3003 0.930 . S
H3061 C3005 0.929 . S
H3062 C3006 0.930 . S
H3063 C3007 0.930 . S
H3064 C3010 0.930 . S
H3065 C3013 0.929 . S
H3066 C3018 0.929 . S
H3067 C3019 0.930 . S
H3068 C3026 0.929 . S
H3069 C3027 0.930 . S
H3070 C3028 0.930 . S
H3071 C3029 0.930 . S
H3072 C3031 0.929 . S
H3073 C3032 0.930 . S
H3074 C3033 0.930 . S
H3075 C3034 0.930 . S
H3076 C3038 0.929 . S
H3077 C3040 0.930 . S
H3078 C3046 0.929 . S
H3079 C3047 0.930 . S
Li3080 N3097 1.990 . S
Li3080 O3140 1.956 . S
Li3080 O3141 1.970 . S
Li3080 O3142 1.961 . S
Li3081 N3105 1.990 . S
Li3081 O3140 1.970 . S
Li3081 O3141 1.956 . S
Li3081 O3143 1.961 . S
Li3082 N3127 1.990 . S
Li3082 O3140 1.961 . S
Li3082 O3142 1.956 . S
Li3082 O3143 1.970 . S
Li3083 N3133 1.990 . S
Li3083 O3141 1.961 . S
Li3083 O3142 1.970 . S
Li3083 O3143 1.956 . S
C3084 C3086 1.348 . S
C3084 C3087 1.356 . S
C3084 O3140 1.325 . S
N3085 C3088 1.314 . S
N3085 C3089 1.279 . S
C3086 C3084 1.348 . S
C3086 C3088 1.353 . S
C3086 H3144 0.929 . S
C3087 C3084 1.356 . S
C3087 C3089 1.358 . S
C3087 H3145 0.930 . S
C3088 N3085 1.314 . S
C3088 C3086 1.353 . S
C3088 H3146 0.930 . S
C3089 N3085 1.279 . S
C3089 C3087 1.358 . S
C3089 H3147 0.930 . S
C3090 C3093 1.348 . S
C3090 C3094 1.356 . S
C3090 O3141 1.325 . S
C3091 N3092 1.279 . S
C3091 C3094 1.358 . S
C3091 H3148 0.930 . S
N3092 C3091 1.279 . S
N3092 C3095 1.314 . S
C3093 C3090 1.348 . S
C3093 C3095 1.353 . S
C3093 H3149 0.929 . S
C3094 C3090 1.356 . S
C3094 C3091 1.358 . S
C3094 H3150 0.930 . S
C3095 N3092 1.314 . S
C3095 C3093 1.353 . S
C3095 H3151 0.930 . S
C3096 N3097 1.314 . S
C3096 C3101 1.353 . S
C3096 H3102 0.930 . S
N3097 Li3080 1.990 . S
N3097 C3096 1.314 . S
N3097 C3099 1.279 . S
C3098 C3099 1.358 . S
C3098 C3100 1.356 . S
C3098 H3152 0.930 . S
C3099 N3097 1.279 . S
C3099 C3098 1.358 . S
C3099 H3103 0.930 . S
C3100 C3098 1.356 . S
C3100 C3101 1.348 . S
C3101 C3096 1.353 . S
C3101 C3100 1.348 . S
C3101 H3153 0.929 . S
H3102 C3096 0.930 . S
H3103 C3099 0.930 . S
C3104 N3105 1.314 . S
C3104 C3106 1.353 . S
C3104 H3110 0.930 . S
N3105 Li3081 1.990 . S
N3105 C3104 1.314 . S
N3105 C3108 1.279 . S
C3106 C3104 1.353 . S
C3106 C3109 1.348 . S
C3106 H3154 0.929 . S
C3107 C3108 1.358 . S
C3107 C3109 1.356 . S
C3107 H3155 0.930 . S
C3108 N3105 1.279 . S
C3108 C3107 1.358 . S
C3108 H3111 0.930 . S
C3109 C3106 1.348 . S
C3109 C3107 1.356 . S
H3110 C3104 0.930 . S
H3111 C3108 0.930 . S
C3112 C3114 1.348 . S
C3112 C3115 1.356 . S
C3112 O3142 1.325 . S
N3113 C3116 1.314 . S
N3113 C3117 1.279 . S
C3114 C3112 1.348 . S
C3114 C3116 1.353 . S
C3114 H3156 0.929 . S
C3115 C3112 1.356 . S
C3115 C3117 1.358 . S
C3115 H3157 0.930 . S
C3116 N3113 1.314 . S
C3116 C3114 1.353 . S
C3116 H3158 0.930 . S
C3117 N3113 1.279 . S
C3117 C3115 1.358 . S
C3117 H3159 0.930 . S
C3118 C3119 1.348 . S
C3118 C3120 1.356 . S
C3118 O3143 1.325 . S
C3119 C3118 1.348 . S
C3119 C3121 1.353 . S
C3119 H3160 0.929 . S
C3120 C3118 1.356 . S
C3120 C3122 1.358 . S
C3120 H3161 0.930 . S
C3121 C3119 1.353 . S
C3121 N3123 1.314 . S
C3121 H3162 0.930 . S
C3122 C3120 1.358 . S
C3122 N3123 1.279 . S
C3122 H3163 0.930 . S
N3123 C3121 1.314 . S
N3123 C3122 1.279 . S
C3124 C3126 1.353 . S
C3124 N3127 1.314 . S
C3124 H3130 0.930 . S
C3125 N3127 1.279 . S
C3125 C3128 1.358 . S
C3125 H3131 0.930 . S
C3126 C3124 1.353 . S
C3126 C3129 1.348 . S
C3126 H3164 0.929 . S
N3127 Li3082 1.990 . S
N3127 C3124 1.314 . S
N3127 C3125 1.279 . S
C3128 C3125 1.358 . S
C3128 C3129 1.356 . S
C3128 H3165 0.930 . S
C3129 C3126 1.348 . S
C3129 C3128 1.356 . S
H3130 C3124 0.930 . S
H3131 C3125 0.930 . S
C3132 N3133 1.314 . S
C3132 C3134 1.353 . S
C3132 H3138 0.930 . S
N3133 Li3083 1.990 . S
N3133 C3132 1.314 . S
N3133 C3136 1.279 . S
C3134 C3132 1.353 . S
C3134 C3137 1.348 . S
C3134 H3166 0.929 . S
C3135 C3136 1.358 . S
C3135 C3137 1.356 . S
C3135 H3167 0.930 . S
C3136 N3133 1.279 . S
C3136 C3135 1.358 . S
C3136 H3139 0.930 . S
C3137 C3134 1.348 . S
C3137 C3135 1.356 . S
H3138 C3132 0.930 . S
H3139 C3136 0.930 . S
O3140 Li3080 1.956 . S
O3140 Li3081 1.970 . S
O3140 Li3082 1.961 . S
O3140 C3084 1.325 . S
O3141 Li3080 1.970 . S
O3141 Li3081 1.956 . S
O3141 Li3083 1.961 . S
O3141 C3090 1.325 . S
O3142 Li3080 1.961 . S
O3142 Li3082 1.956 . S
O3142 Li3083 1.970 . S
O3142 C3112 1.325 . S
O3143 Li3081 1.961 . S
O3143 Li3082 1.970 . S
O3143 Li3083 1.956 . S
O3143 C3118 1.325 . S
H3144 C3086 0.929 . S
H3145 C3087 0.930 . S
H3146 C3088 0.930 . S
H3147 C3089 0.930 . S
H3148 C3091 0.930 . S
H3149 C3093 0.929 . S
H3150 C3094 0.930 . S
H3151 C3095 0.930 . S
H3152 C3098 0.930 . S
H3153 C3101 0.929 . S
H3154 C3106 0.929 . S
H3155 C3107 0.930 . S
H3156 C3114 0.929 . S
H3157 C3115 0.930 . S
H3158 C3116 0.930 . S
H3159 C3117 0.930 . S
H3160 C3119 0.929 . S
H3161 C3120 0.930 . S
H3162 C3121 0.930 . S
H3163 C3122 0.930 . S
H3164 C3126 0.929 . S
H3165 C3128 0.930 . S
H3166 C3134 0.929 . S
H3167 C3135 0.930 . S
H3168 C3176 0.950 . S
H3169 C3181 0.950 . S
H3170 C3178 0.950 . S
H3171 C3180 0.950 . S
H3172 C3182 0.950 . S
H3173 C3184 0.950 . S
H3174 C3186 0.950 . S
H3175 C3187 0.950 . S
C3176 H3168 0.950 . S
C3176 C3177 1.386 . S
C3176 C3178 1.391 . S
C3177 C3176 1.386 . S
C3177 C3181 1.393 . S
C3178 H3170 0.950 . S
C3178 C3176 1.391 . S
C3178 C3179 1.400 . S
C3179 C3178 1.400 . S
C3179 C3180 1.398 . S
C3179 C3185 1.491 . S
C3180 H3171 0.950 . S
C3180 C3179 1.398 . S
C3180 C3181 1.391 . S
C3181 H3169 0.950 . S
C3181 C3177 1.393 . S
C3181 C3180 1.391 . S
C3182 H3172 0.950 . S
C3182 C3183 1.386 . S
C3182 C3184 1.391 . S
C3183 C3182 1.386 . S
C3183 C3187 1.393 . S
C3184 H3173 0.950 . S
C3184 C3182 1.391 . S
C3184 C3185 1.400 . S
C3185 C3179 1.491 . S
C3185 C3184 1.400 . S
C3185 C3186 1.398 . S
C3186 H3174 0.950 . S
C3186 C3185 1.398 . S
C3186 C3187 1.391 . S
C3187 H3175 0.950 . S
C3187 C3183 1.393 . S
C3187 C3186 1.391 . S
H3188 C3196 0.950 . S
H3189 C3201 0.950 . S
H3190 C3198 0.950 . S
H3191 C3200 0.950 . S
H3192 C3202 0.950 . S
H3193 C3204 0.950 . S
H3194 C3206 0.950 . S
H3195 C3207 0.950 . S
C3196 H3188 0.950 . S
C3196 C3197 1.386 . S
C3196 C3198 1.391 . S
C3197 C3196 1.386 . S
C3197 C3201 1.393 . S
C3198 H3190 0.950 . S
C3198 C3196 1.391 . S
C3198 C3199 1.400 . S
C3199 C3198 1.400 . S
C3199 C3200 1.398 . S
C3199 C3205 1.491 . S
C3200 H3191 0.950 . S
C3200 C3199 1.398 . S
C3200 C3201 1.391 . S
C3201 H3189 0.950 . S
C3201 C3197 1.393 . S
C3201 C3200 1.391 . S
C3202 H3192 0.950 . S
C3202 C3203 1.386 . S
C3202 C3204 1.391 . S
C3203 C3202 1.386 . S
C3203 C3207 1.393 . S
C3204 H3193 0.950 . S
C3204 C3202 1.391 . S
C3204 C3205 1.400 . S
C3205 C3199 1.491 . S
C3205 C3204 1.400 . S
C3205 C3206 1.398 . S
C3206 H3194 0.950 . S
C3206 C3205 1.398 . S
C3206 C3207 1.391 . S
C3207 H3195 0.950 . S
C3207 C3203 1.393 . S
C3207 C3206 1.391 . S
H3208 C3216 0.950 . S
H3209 C3221 0.950 . S
H3210 C3218 0.950 . S
H3211 C3220 0.950 . S
H3212 C3222 0.950 . S
H3213 C3224 0.950 . S
H3214 C3226 0.950 . S
H3215 C3227 0.950 . S
C3216 H3208 0.950 . S
C3216 C3217 1.386 . S
C3216 C3218 1.391 . S
C3217 C3216 1.386 . S
C3217 C3221 1.393 . S
C3218 H3210 0.950 . S
C3218 C3216 1.391 . S
C3218 C3219 1.400 . S
C3219 C3218 1.400 . S
C3219 C3220 1.398 . S
C3219 C3225 1.491 . S
C3220 H3211 0.950 . S
C3220 C3219 1.398 . S
C3220 C3221 1.391 . S
C3221 H3209 0.950 . S
C3221 C3217 1.393 . S
C3221 C3220 1.391 . S
C3222 H3212 0.950 . S
C3222 C3223 1.386 . S
C3222 C3224 1.391 . S
C3223 C3222 1.386 . S
C3223 C3227 1.393 . S
C3224 H3213 0.950 . S
C3224 C3222 1.391 . S
C3224 C3225 1.400 . S
C3225 C3219 1.491 . S
C3225 C3224 1.400 . S
C3225 C3226 1.398 . S
C3226 H3214 0.950 . S
C3226 C3225 1.398 . S
C3226 C3227 1.391 . S
C3227 H3215 0.950 . S
C3227 C3223 1.393 . S
C3227 C3226 1.391 . S
H3228 C3236 0.950 . S
H3229 C3241 0.950 . S
H3230 C3238 0.950 . S
H3231 C3240 0.950 . S
H3232 C3242 0.950 . S
H3233 C3244 0.950 . S
H3234 C3246 0.950 . S
H3235 C3247 0.950 . S
C3236 H3228 0.950 . S
C3236 C3237 1.386 . S
C3236 C3238 1.391 . S
C3237 C3236 1.386 . S
C3237 C3241 1.393 . S
C3238 H3230 0.950 . S
C3238 C3236 1.391 . S
C3238 C3239 1.400 . S
C3239 C3238 1.400 . S
C3239 C3240 1.398 . S
C3239 C3245 1.491 . S
C3240 H3231 0.950 . S
C3240 C3239 1.398 . S
C3240 C3241 1.391 . S
C3241 H3229 0.950 . S
C3241 C3237 1.393 . S
C3241 C3240 1.391 . S
C3242 H3232 0.950 . S
C3242 C3243 1.386 . S
C3242 C3244 1.391 . S
C3243 C3242 1.386 . S
C3243 C3247 1.393 . S
C3244 H3233 0.950 . S
C3244 C3242 1.391 . S
C3244 C3245 1.400 . S
C3245 C3239 1.491 . S
C3245 C3244 1.400 . S
C3245 C3246 1.398 . S
C3246 H3234 0.950 . S
C3246 C3245 1.398 . S
C3246 C3247 1.391 . S
C3247 H3235 0.950 . S
C3247 C3243 1.393 . S
C3247 C3246 1.391 . S
H3248 C3256 0.950 . S
H3249 C3261 0.950 . S
H3250 C3258 0.950 . S
H3251 C3260 0.950 . S
H3252 C3262 0.950 . S
H3253 C3264 0.950 . S
H3254 C3266 0.950 . S
H3255 C3267 0.950 . S
C3256 H3248 0.950 . S
C3256 C3257 1.386 . S
C3256 C3258 1.391 . S
C3257 C3256 1.386 . S
C3257 C3261 1.393 . S
C3258 H3250 0.950 . S
C3258 C3256 1.391 . S
C3258 C3259 1.400 . S
C3259 C3258 1.400 . S
C3259 C3260 1.398 . S
C3259 C3265 1.491 . S
C3260 H3251 0.950 . S
C3260 C3259 1.398 . S
C3260 C3261 1.391 . S
C3261 H3249 0.950 . S
C3261 C3257 1.393 . S
C3261 C3260 1.391 . S
C3262 H3252 0.950 . S
C3262 C3263 1.386 . S
C3262 C3264 1.391 . S
C3263 C3262 1.386 . S
C3263 C3267 1.393 . S
C3264 H3253 0.950 . S
C3264 C3262 1.391 . S
C3264 C3265 1.400 . S
C3265 C3259 1.491 . S
C3265 C3264 1.400 . S
C3265 C3266 1.398 . S
C3266 H3254 0.950 . S
C3266 C3265 1.398 . S
C3266 C3267 1.391 . S
C3267 H3255 0.950 . S
C3267 C3263 1.393 . S
C3267 C3266 1.391 . S
H3268 C3276 0.950 . S
H3269 C3281 0.950 . S
H3270 C3278 0.950 . S
H3271 C3280 0.950 . S
H3272 C3282 0.950 . S
H3273 C3284 0.950 . S
H3274 C3286 0.950 . S
H3275 C3287 0.950 . S
C3276 H3268 0.950 . S
C3276 C3277 1.386 . S
C3276 C3278 1.391 . S
C3277 C3276 1.386 . S
C3277 C3281 1.393 . S
C3278 H3270 0.950 . S
C3278 C3276 1.391 . S
C3278 C3279 1.400 . S
C3279 C3278 1.400 . S
C3279 C3280 1.398 . S
C3279 C3285 1.491 . S
C3280 H3271 0.950 . S
C3280 C3279 1.398 . S
C3280 C3281 1.391 . S
C3281 H3269 0.950 . S
C3281 C3277 1.393 . S
C3281 C3280 1.391 . S
C3282 H3272 0.950 . S
C3282 C3283 1.386 . S
C3282 C3284 1.391 . S
C3283 C3282 1.386 . S
C3283 C3287 1.393 . S
C3284 H3273 0.950 . S
C3284 C3282 1.391 . S
C3284 C3285 1.400 . S
C3285 C3279 1.491 . S
C3285 C3284 1.400 . S
C3285 C3286 1.398 . S
C3286 H3274 0.950 . S
C3286 C3285 1.398 . S
C3286 C3287 1.391 . S
C3287 H3275 0.950 . S
C3287 C3283 1.393 . S
C3287 C3286 1.391 . S
H3288 C3296 0.950 . S
H3289 C3301 0.950 . S
H3290 C3298 0.950 . S
H3291 C3300 0.950 . S
H3292 C3302 0.950 . S
H3293 C3304 0.950 . S
H3294 C3306 0.950 . S
H3295 C3307 0.950 . S
C3296 H3288 0.950 . S
C3296 C3297 1.386 . S
C3296 C3298 1.391 . S
C3297 C3296 1.386 . S
C3297 C3301 1.393 . S
C3298 H3290 0.950 . S
C3298 C3296 1.391 . S
C3298 C3299 1.400 . S
C3299 C3298 1.400 . S
C3299 C3300 1.398 . S
C3299 C3305 1.491 . S
C3300 H3291 0.950 . S
C3300 C3299 1.398 . S
C3300 C3301 1.391 . S
C3301 H3289 0.950 . S
C3301 C3297 1.393 . S
C3301 C3300 1.391 . S
C3302 H3292 0.950 . S
C3302 C3303 1.386 . S
C3302 C3304 1.391 . S
C3303 C3302 1.386 . S
C3303 C3307 1.393 . S
C3304 H3293 0.950 . S
C3304 C3302 1.391 . S
C3304 C3305 1.400 . S
C3305 C3299 1.491 . S
C3305 C3304 1.400 . S
C3305 C3306 1.398 . S
C3306 H3294 0.950 . S
C3306 C3305 1.398 . S
C3306 C3307 1.391 . S
C3307 H3295 0.950 . S
C3307 C3303 1.393 . S
C3307 C3306 1.391 . S
H3308 C3316 0.950 . S
H3309 C3321 0.950 . S
H3310 C3318 0.950 . S
H3311 C3320 0.950 . S
H3312 C3322 0.950 . S
H3313 C3324 0.950 . S
H3314 C3326 0.950 . S
H3315 C3327 0.950 . S
C3316 H3308 0.950 . S
C3316 C3317 1.386 . S
C3316 C3318 1.391 . S
C3317 C3316 1.386 . S
C3317 C3321 1.393 . S
C3318 H3310 0.950 . S
C3318 C3316 1.391 . S
C3318 C3319 1.400 . S
C3319 C3318 1.400 . S
C3319 C3320 1.398 . S
C3319 C3325 1.491 . S
C3320 H3311 0.950 . S
C3320 C3319 1.398 . S
C3320 C3321 1.391 . S
C3321 H3309 0.950 . S
C3321 C3317 1.393 . S
C3321 C3320 1.391 . S
C3322 H3312 0.950 . S
C3322 C3323 1.386 . S
C3322 C3324 1.391 . S
C3323 C3322 1.386 . S
C3323 C3327 1.393 . S
C3324 H3313 0.950 . S
C3324 C3322 1.391 . S
C3324 C3325 1.400 . S
C3325 C3319 1.491 . S
C3325 C3324 1.400 . S
C3325 C3326 1.398 . S
C3326 H3314 0.950 . S
C3326 C3325 1.398 . S
C3326 C3327 1.391 . S
C3327 H3315 0.950 . S
C3327 C3323 1.393 . S
C3327 C3326 1.391 . S
H3328 C3336 0.950 . S
H3329 C3341 0.950 . S
H3330 C3338 0.950 . S
H3331 C3340 0.950 . S
H3332 C3342 0.950 . S
H3333 C3344 0.950 . S
H3334 C3346 0.950 . S
H3335 C3347 0.950 . S
C3336 H3328 0.950 . S
C3336 C3337 1.386 . S
C3336 C3338 1.391 . S
C3337 C3336 1.386 . S
C3337 C3341 1.393 . S
C3338 H3330 0.950 . S
C3338 C3336 1.391 . S
C3338 C3339 1.400 . S
C3339 C3338 1.400 . S
C3339 C3340 1.398 . S
C3339 C3345 1.491 . S
C3340 H3331 0.950 . S
C3340 C3339 1.398 . S
C3340 C3341 1.391 . S
C3341 H3329 0.950 . S
C3341 C3337 1.393 . S
C3341 C3340 1.391 . S
C3342 H3332 0.950 . S
C3342 C3343 1.386 . S
C3342 C3344 1.391 . S
C3343 C3342 1.386 . S
C3343 C3347 1.393 . S
C3344 H3333 0.950 . S
C3344 C3342 1.391 . S
C3344 C3345 1.400 . S
C3345 C3339 1.491 . S
C3345 C3344 1.400 . S
C3345 C3346 1.398 . S
C3346 H3334 0.950 . S
C3346 C3345 1.398 . S
C3346 C3347 1.391 . S
C3347 H3335 0.950 . S
C3347 C3343 1.393 . S
C3347 C3346 1.391 . S
H3348 C3356 0.950 . S
H3349 C3361 0.950 . S
H3350 C3358 0.950 . S
H3351 C3360 0.950 . S
H3352 C3362 0.950 . S
H3353 C3364 0.950 . S
H3354 C3366 0.950 . S
H3355 C3367 0.950 . S
C3356 H3348 0.950 . S
C3356 C3357 1.386 . S
C3356 C3358 1.391 . S
C3357 C3356 1.386 . S
C3357 C3361 1.393 . S
C3358 H3350 0.950 . S
C3358 C3356 1.391 . S
C3358 C3359 1.400 . S
C3359 C3358 1.400 . S
C3359 C3360 1.398 . S
C3359 C3365 1.491 . S
C3360 H3351 0.950 . S
C3360 C3359 1.398 . S
C3360 C3361 1.391 . S
C3361 H3349 0.950 . S
C3361 C3357 1.393 . S
C3361 C3360 1.391 . S
C3362 H3352 0.950 . S
C3362 C3363 1.386 . S
C3362 C3364 1.391 . S
C3363 C3362 1.386 . S
C3363 C3367 1.393 . S
C3364 H3353 0.950 . S
C3364 C3362 1.391 . S
C3364 C3365 1.400 . S
C3365 C3359 1.491 . S
C3365 C3364 1.400 . S
C3365 C3366 1.398 . S
C3366 H3354 0.950 . S
C3366 C3365 1.398 . S
C3366 C3367 1.391 . S
C3367 H3355 0.950 . S
C3367 C3363 1.393 . S
C3367 C3366 1.391 . S
H3368 C3376 0.950 . S
H3369 C3381 0.950 . S
H3370 C3378 0.950 . S
H3371 C3380 0.950 . S
H3372 C3382 0.950 . S
H3373 C3384 0.950 . S
H3374 C3386 0.950 . S
H3375 C3387 0.950 . S
C3376 H3368 0.950 . S
C3376 C3377 1.386 . S
C3376 C3378 1.391 . S
C3377 C3376 1.386 . S
C3377 C3381 1.393 . S
C3378 H3370 0.950 . S
C3378 C3376 1.391 . S
C3378 C3379 1.400 . S
C3379 C3378 1.400 . S
C3379 C3380 1.398 . S
C3379 C3385 1.491 . S
C3380 H3371 0.950 . S
C3380 C3379 1.398 . S
C3380 C3381 1.391 . S
C3381 H3369 0.950 . S
C3381 C3377 1.393 . S
C3381 C3380 1.391 . S
C3382 H3372 0.950 . S
C3382 C3383 1.386 . S
C3382 C3384 1.391 . S
C3383 C3382 1.386 . S
C3383 C3387 1.393 . S
C3384 H3373 0.950 . S
C3384 C3382 1.391 . S
C3384 C3385 1.400 . S
C3385 C3379 1.491 . S
C3385 C3384 1.400 . S
C3385 C3386 1.398 . S
C3386 H3374 0.950 . S
C3386 C3385 1.398 . S
C3386 C3387 1.391 . S
C3387 H3375 0.950 . S
C3387 C3383 1.393 . S
C3387 C3386 1.391 . S
H3388 C3396 0.950 . S
H3389 C3401 0.950 . S
H3390 C3398 0.950 . S
H3391 C3400 0.950 . S
H3392 C3402 0.950 . S
H3393 C3404 0.950 . S
H3394 C3406 0.950 . S
H3395 C3407 0.950 . S
C3396 H3388 0.950 . S
C3396 C3397 1.386 . S
C3396 C3398 1.391 . S
C3397 C3396 1.386 . S
C3397 C3401 1.393 . S
C3398 H3390 0.950 . S
C3398 C3396 1.391 . S
C3398 C3399 1.400 . S
C3399 C3398 1.400 . S
C3399 C3400 1.398 . S
C3399 C3405 1.491 . S
C3400 H3391 0.950 . S
C3400 C3399 1.398 . S
C3400 C3401 1.391 . S
C3401 H3389 0.950 . S
C3401 C3397 1.393 . S
C3401 C3400 1.391 . S
C3402 H3392 0.950 . S
C3402 C3403 1.386 . S
C3402 C3404 1.391 . S
C3403 C3402 1.386 . S
C3403 C3407 1.393 . S
C3404 H3393 0.950 . S
C3404 C3402 1.391 . S
C3404 C3405 1.400 . S
C3405 C3399 1.491 . S
C3405 C3404 1.400 . S
C3405 C3406 1.398 . S
C3406 H3394 0.950 . S
C3406 C3405 1.398 . S
C3406 C3407 1.391 . S
C3407 H3395 0.950 . S
C3407 C3403 1.393 . S
C3407 C3406 1.391 . S
H3408 C3416 0.950 . S
H3409 C3421 0.950 . S
H3410 C3418 0.950 . S
H3411 C3420 0.950 . S
H3412 C3422 0.950 . S
H3413 C3424 0.950 . S
H3414 C3426 0.950 . S
H3415 C3427 0.950 . S
C3416 H3408 0.950 . S
C3416 C3417 1.386 . S
C3416 C3418 1.391 . S
C3417 C3416 1.386 . S
C3417 C3421 1.393 . S
C3418 H3410 0.950 . S
C3418 C3416 1.391 . S
C3418 C3419 1.400 . S
C3419 C3418 1.400 . S
C3419 C3420 1.398 . S
C3419 C3425 1.491 . S
C3420 H3411 0.950 . S
C3420 C3419 1.398 . S
C3420 C3421 1.391 . S
C3421 H3409 0.950 . S
C3421 C3417 1.393 . S
C3421 C3420 1.391 . S
C3422 H3412 0.950 . S
C3422 C3423 1.386 . S
C3422 C3424 1.391 . S
C3423 C3422 1.386 . S
C3423 C3427 1.393 . S
C3424 H3413 0.950 . S
C3424 C3422 1.391 . S
C3424 C3425 1.400 . S
C3425 C3419 1.491 . S
C3425 C3424 1.400 . S
C3425 C3426 1.398 . S
C3426 H3414 0.950 . S
C3426 C3425 1.398 . S
C3426 C3427 1.391 . S
C3427 H3415 0.950 . S
C3427 C3423 1.393 . S
C3427 C3426 1.391 . S
H3428 C3436 0.950 . S
H3429 C3441 0.950 . S
H3430 C3438 0.950 . S
H3431 C3440 0.950 . S
H3432 C3442 0.950 . S
H3433 C3444 0.950 . S
H3434 C3446 0.950 . S
H3435 C3447 0.950 . S
C3436 H3428 0.950 . S
C3436 C3437 1.386 . S
C3436 C3438 1.391 . S
C3437 C3436 1.386 . S
C3437 C3441 1.393 . S
C3438 H3430 0.950 . S
C3438 C3436 1.391 . S
C3438 C3439 1.400 . S
C3439 C3438 1.400 . S
C3439 C3440 1.398 . S
C3439 C3445 1.491 . S
C3440 H3431 0.950 . S
C3440 C3439 1.398 . S
C3440 C3441 1.391 . S
C3441 H3429 0.950 . S
C3441 C3437 1.393 . S
C3441 C3440 1.391 . S
C3442 H3432 0.950 . S
C3442 C3443 1.386 . S
C3442 C3444 1.391 . S
C3443 C3442 1.386 . S
C3443 C3447 1.393 . S
C3444 H3433 0.950 . S
C3444 C3442 1.391 . S
C3444 C3445 1.400 . S
C3445 C3439 1.491 . S
C3445 C3444 1.400 . S
C3445 C3446 1.398 . S
C3446 H3434 0.950 . S
C3446 C3445 1.398 . S
C3446 C3447 1.391 . S
C3447 H3435 0.950 . S
C3447 C3443 1.393 . S
C3447 C3446 1.391 . S
H3448 C3456 0.950 . S
H3449 C3461 0.950 . S
H3450 C3458 0.950 . S
H3451 C3460 0.950 . S
H3452 C3462 0.950 . S
H3453 C3464 0.950 . S
H3454 C3466 0.950 . S
H3455 C3467 0.950 . S
C3456 H3448 0.950 . S
C3456 C3457 1.386 . S
C3456 C3458 1.391 . S
C3457 C3456 1.386 . S
C3457 C3461 1.393 . S
C3458 H3450 0.950 . S
C3458 C3456 1.391 . S
C3458 C3459 1.400 . S
C3459 C3458 1.400 . S
C3459 C3460 1.398 . S
C3459 C3465 1.491 . S
C3460 H3451 0.950 . S
C3460 C3459 1.398 . S
C3460 C3461 1.391 . S
C3461 H3449 0.950 . S
C3461 C3457 1.393 . S
C3461 C3460 1.391 . S
C3462 H3452 0.950 . S
C3462 C3463 1.386 . S
C3462 C3464 1.391 . S
C3463 C3462 1.386 . S
C3463 C3467 1.393 . S
C3464 H3453 0.950 . S
C3464 C3462 1.391 . S
C3464 C3465 1.400 . S
C3465 C3459 1.491 . S
C3465 C3464 1.400 . S
C3465 C3466 1.398 . S
C3466 H3454 0.950 . S
C3466 C3465 1.398 . S
C3466 C3467 1.391 . S
C3467 H3455 0.950 . S
C3467 C3463 1.393 . S
C3467 C3466 1.391 . S
H3468 C3476 0.950 . S
H3469 C3481 0.950 . S
H3470 C3478 0.950 . S
H3471 C3480 0.950 . S
H3472 C3482 0.950 . S
H3473 C3484 0.950 . S
H3474 C3486 0.950 . S
H3475 C3487 0.950 . S
C3476 H3468 0.950 . S
C3476 C3477 1.386 . S
C3476 C3478 1.391 . S
C3477 C3476 1.386 . S
C3477 C3481 1.393 . S
C3478 H3470 0.950 . S
C3478 C3476 1.391 . S
C3478 C3479 1.400 . S
C3479 C3478 1.400 . S
C3479 C3480 1.398 . S
C3479 C3485 1.491 . S
C3480 H3471 0.950 . S
C3480 C3479 1.398 . S
C3480 C3481 1.391 . S
C3481 H3469 0.950 . S
C3481 C3477 1.393 . S
C3481 C3480 1.391 . S
C3482 H3472 0.950 . S
C3482 C3483 1.386 . S
C3482 C3484 1.391 . S
C3483 C3482 1.386 . S
C3483 C3487 1.393 . S
C3484 H3473 0.950 . S
C3484 C3482 1.391 . S
C3484 C3485 1.400 . S
C3485 C3479 1.491 . S
C3485 C3484 1.400 . S
C3485 C3486 1.398 . S
C3486 H3474 0.950 . S
C3486 C3485 1.398 . S
C3486 C3487 1.391 . S
C3487 H3475 0.950 . S
C3487 C3483 1.393 . S
C3487 C3486 1.391 . S
H3488 C3496 0.950 . S
H3489 C3501 0.950 . S
H3490 C3498 0.950 . S
H3491 C3500 0.950 . S
H3492 C3502 0.950 . S
H3493 C3504 0.950 . S
H3494 C3506 0.950 . S
H3495 C3507 0.950 . S
C3496 H3488 0.950 . S
C3496 C3497 1.386 . S
C3496 C3498 1.391 . S
C3497 C3496 1.386 . S
C3497 C3501 1.393 . S
C3498 H3490 0.950 . S
C3498 C3496 1.391 . S
C3498 C3499 1.400 . S
C3499 C3498 1.400 . S
C3499 C3500 1.398 . S
C3499 C3505 1.491 . S
C3500 H3491 0.950 . S
C3500 C3499 1.398 . S
C3500 C3501 1.391 . S
C3501 H3489 0.950 . S
C3501 C3497 1.393 . S
C3501 C3500 1.391 . S
C3502 H3492 0.950 . S
C3502 C3503 1.386 . S
C3502 C3504 1.391 . S
C3503 C3502 1.386 . S
C3503 C3507 1.393 . S
C3504 H3493 0.950 . S
C3504 C3502 1.391 . S
C3504 C3505 1.400 . S
C3505 C3499 1.491 . S
C3505 C3504 1.400 . S
C3505 C3506 1.398 . S
C3506 H3494 0.950 . S
C3506 C3505 1.398 . S
C3506 C3507 1.391 . S
C3507 H3495 0.950 . S
C3507 C3503 1.393 . S
C3507 C3506 1.391 . S
H3508 C3516 0.950 . S
H3509 C3521 0.950 . S
H3510 C3518 0.950 . S
H3511 C3520 0.950 . S
H3512 C3522 0.950 . S
H3513 C3524 0.950 . S
H3514 C3526 0.950 . S
H3515 C3527 0.950 . S
C3516 H3508 0.950 . S
C3516 C3517 1.386 . S
C3516 C3518 1.391 . S
C3517 C3516 1.386 . S
C3517 C3521 1.393 . S
C3518 H3510 0.950 . S
C3518 C3516 1.391 . S
C3518 C3519 1.400 . S
C3519 C3518 1.400 . S
C3519 C3520 1.398 . S
C3519 C3525 1.491 . S
C3520 H3511 0.950 . S
C3520 C3519 1.398 . S
C3520 C3521 1.391 . S
C3521 H3509 0.950 . S
C3521 C3517 1.393 . S
C3521 C3520 1.391 . S
C3522 H3512 0.950 . S
C3522 C3523 1.386 . S
C3522 C3524 1.391 . S
C3523 C3522 1.386 . S
C3523 C3527 1.393 . S
C3524 H3513 0.950 . S
C3524 C3522 1.391 . S
C3524 C3525 1.400 . S
C3525 C3519 1.491 . S
C3525 C3524 1.400 . S
C3525 C3526 1.398 . S
C3526 H3514 0.950 . S
C3526 C3525 1.398 . S
C3526 C3527 1.391 . S
C3527 H3515 0.950 . S
C3527 C3523 1.393 . S
C3527 C3526 1.391 . S
H3528 C3536 0.950 1_556 S
H3529 C3541 0.950 . S
H3530 C3538 0.950 . S
H3531 C3540 0.943 1_655 S
H3532 C3542 0.950 1_554 S
H3533 C3544 0.950 . S
H3534 C3546 0.943 1_455 S
H3535 C3547 0.950 . S
C3536 H3528 0.950 1_554 S
C3536 C3537 1.386 . S
C3536 C3538 1.391 1_554 S
C3537 C3536 1.386 . S
C3537 C3541 1.393 . S
C3538 H3530 0.950 . S
C3538 C3536 1.391 1_556 S
C3538 C3539 1.400 1_556 S
C3539 C3538 1.400 1_554 S
C3539 C3540 1.398 . S
C3539 C3545 1.491 1_454 S
C3540 H3531 0.943 1_455 S
C3540 C3539 1.398 . S
C3540 C3541 1.391 . S
C3541 H3529 0.950 . S
C3541 C3537 1.393 . S
C3541 C3540 1.391 . S
C3542 H3532 0.950 1_556 S
C3542 C3543 1.386 . S
C3542 C3544 1.391 1_556 S
C3543 C3542 1.386 . S
C3543 C3547 1.393 . S
C3544 H3533 0.950 . S
C3544 C3542 1.391 1_554 S
C3544 C3545 1.400 1_554 S
C3545 C3539 1.491 1_656 S
C3545 C3544 1.400 1_556 S
C3545 C3546 1.398 . S
C3546 H3534 0.943 1_655 S
C3546 C3545 1.398 . S
C3546 C3547 1.391 . S
C3547 H3535 0.950 . S
C3547 C3543 1.393 . S
C3547 C3546 1.391 . S
H3548 C3556 0.950 . S
H3549 C3561 0.950 1_554 S
H3550 C3558 0.950 . S
H3551 C3560 0.950 . S
H3552 C3562 0.950 . S
H3553 C3564 0.950 . S
H3554 C3566 0.950 . S
H3555 C3567 0.950 1_556 S
C3556 H3548 0.950 . S
C3556 C3557 1.386 . S
C3556 C3558 1.391 . S
C3557 C3556 1.386 . S
C3557 C3561 1.393 . S
C3558 H3550 0.950 . S
C3558 C3556 1.391 . S
C3558 C3559 1.400 . S
C3559 C3558 1.400 . S
C3559 C3560 1.398 1_556 S
C3559 C3565 1.491 1_556 S
C3560 H3551 0.950 . S
C3560 C3559 1.398 1_554 S
C3560 C3561 1.391 1_554 S
C3561 H3549 0.950 1_556 S
C3561 C3557 1.393 . S
C3561 C3560 1.391 1_556 S
C3562 H3552 0.950 . S
C3562 C3563 1.386 . S
C3562 C3564 1.391 . S
C3563 C3562 1.386 . S
C3563 C3567 1.393 . S
C3564 H3553 0.950 . S
C3564 C3562 1.391 . S
C3564 C3565 1.400 . S
C3565 C3559 1.491 1_554 S
C3565 C3564 1.400 . S
C3565 C3566 1.398 1_554 S
C3566 H3554 0.950 . S
C3566 C3565 1.398 1_556 S
C3566 C3567 1.391 1_556 S
C3567 H3555 0.950 1_554 S
C3567 C3563 1.393 . S
C3567 C3566 1.391 1_554 S
H3568 C3576 0.950 . S
H3569 C3581 0.950 . S
H3570 C3578 0.950 . S
H3571 C3580 0.950 1_556 S
H3572 C3582 0.950 . S
H3573 C3584 0.950 . S
H3574 C3586 0.950 1_554 S
H3575 C3587 0.950 . S
C3576 H3568 0.950 . S
C3576 C3577 1.386 . S
C3576 C3578 1.391 . S
C3577 C3576 1.386 . S
C3577 C3581 1.393 . S
C3578 H3570 0.950 . S
C3578 C3576 1.391 . S
C3578 C3579 1.400 . S
C3579 C3578 1.400 . S
C3579 C3580 1.398 . S
C3579 C3585 1.491 1_564 S
C3580 H3571 0.950 1_554 S
C3580 C3579 1.398 . S
C3580 C3581 1.391 . S
C3581 H3569 0.950 . S
C3581 C3577 1.393 . S
C3581 C3580 1.391 . S
C3582 H3572 0.950 . S
C3582 C3583 1.386 . S
C3582 C3584 1.391 . S
C3583 C3582 1.386 . S
C3583 C3587 1.393 . S
C3584 H3573 0.950 . S
C3584 C3582 1.391 . S
C3584 C3585 1.400 . S
C3585 C3579 1.491 1_546 S
C3585 C3584 1.400 . S
C3585 C3586 1.398 . S
C3586 H3574 0.950 1_556 S
C3586 C3585 1.398 . S
C3586 C3587 1.391 . S
C3587 H3575 0.950 . S
C3587 C3583 1.393 . S
C3587 C3586 1.391 . S
H3588 C3596 0.950 1_554 S
H3589 C3601 0.950 . S
H3590 C3598 0.950 . S
H3591 C3600 0.936 1_455 S
H3592 C3602 0.950 1_556 S
H3593 C3604 0.950 . S
H3594 C3606 0.935 1_655 S
H3595 C3607 0.950 . S
C3596 H3588 0.950 1_556 S
C3596 C3597 1.386 . S
C3596 C3598 1.391 1_556 S
C3597 C3596 1.386 . S
C3597 C3601 1.393 . S
C3598 H3590 0.950 . S
C3598 C3596 1.391 1_554 S
C3598 C3599 1.400 1_554 S
C3599 C3598 1.400 1_556 S
C3599 C3600 1.398 . S
C3599 C3605 1.491 1_656 S
C3600 H3591 0.936 1_655 S
C3600 C3599 1.398 . S
C3600 C3601 1.391 . S
C3601 H3589 0.950 . S
C3601 C3597 1.393 . S
C3601 C3600 1.391 . S
C3602 H3592 0.950 1_554 S
C3602 C3603 1.386 . S
C3602 C3604 1.391 1_554 S
C3603 C3602 1.386 . S
C3603 C3607 1.393 . S
C3604 H3593 0.950 . S
C3604 C3602 1.391 1_556 S
C3604 C3605 1.400 1_556 S
C3605 C3599 1.491 1_454 S
C3605 C3604 1.400 1_554 S
C3605 C3606 1.398 . S
C3606 H3594 0.935 1_455 S
C3606 C3605 1.398 . S
C3606 C3607 1.391 . S
C3607 H3595 0.950 . S
C3607 C3603 1.393 . S
C3607 C3606 1.391 . S
H3608 C3616 0.950 . S
H3609 C3621 0.950 . S
H3610 C3618 0.950 . S
H3611 C3620 0.950 1_554 S
H3612 C3622 0.950 . S
H3613 C3624 0.950 . S
H3614 C3626 0.950 1_556 S
H3615 C3627 0.950 . S
C3616 H3608 0.950 . S
C3616 C3617 1.386 . S
C3616 C3618 1.391 . S
C3617 C3616 1.386 . S
C3617 C3621 1.393 . S
C3618 H3610 0.950 . S
C3618 C3616 1.391 . S
C3618 C3619 1.400 . S
C3619 C3618 1.400 . S
C3619 C3620 1.398 . S
C3619 C3625 1.491 1_556 S
C3620 H3611 0.950 1_556 S
C3620 C3619 1.398 . S
C3620 C3621 1.391 . S
C3621 H3609 0.950 . S
C3621 C3617 1.393 . S
C3621 C3620 1.391 . S
C3622 H3612 0.950 . S
C3622 C3623 1.386 . S
C3622 C3624 1.391 . S
C3623 C3622 1.386 . S
C3623 C3627 1.393 . S
C3624 H3613 0.950 . S
C3624 C3622 1.391 . S
C3624 C3625 1.400 . S
C3625 C3619 1.491 1_554 S
C3625 C3624 1.400 . S
C3625 C3626 1.398 . S
C3626 H3614 0.950 1_554 S
C3626 C3625 1.398 . S
C3626 C3627 1.391 . S
C3627 H3615 0.950 . S
C3627 C3623 1.393 . S
C3627 C3626 1.391 . S
H3628 C3636 0.950 1_554 S
H3629 C3641 0.950 . S
H3630 C3638 0.950 . S
H3631 C3640 0.948 1_565 S
H3632 C3642 0.950 1_556 S
H3633 C3644 0.950 . S
H3634 C3646 0.950 1_545 S
H3635 C3647 0.950 . S
C3636 H3628 0.950 1_556 S
C3636 C3637 1.386 . S
C3636 C3638 1.391 1_556 S
C3637 C3636 1.386 . S
C3637 C3641 1.393 . S
C3638 H3630 0.950 . S
C3638 C3636 1.391 1_554 S
C3638 C3639 1.400 1_554 S
C3639 C3638 1.400 1_556 S
C3639 C3640 1.398 . S
C3639 C3645 1.491 1_546 S
C3640 H3631 0.948 1_545 S
C3640 C3639 1.398 . S
C3640 C3641 1.391 . S
C3641 H3629 0.950 . S
C3641 C3637 1.393 . S
C3641 C3640 1.391 . S
C3642 H3632 0.950 1_554 S
C3642 C3643 1.386 . S
C3642 C3644 1.391 1_554 S
C3643 C3642 1.386 . S
C3643 C3647 1.393 . S
C3644 H3633 0.950 . S
C3644 C3642 1.391 1_556 S
C3644 C3645 1.400 1_556 S
C3645 C3639 1.491 1_564 S
C3645 C3644 1.400 1_554 S
C3645 C3646 1.398 . S
C3646 H3634 0.950 1_565 S
C3646 C3645 1.398 . S
C3646 C3647 1.391 . S
C3647 H3635 0.950 . S
C3647 C3643 1.393 . S
C3647 C3646 1.391 . S
H3648 C3656 0.950 . S
H3649 C3661 0.950 . S
H3650 C3658 0.950 . S
H3651 C3660 0.950 . S
H3652 C3662 0.950 . S
H3653 C3664 0.950 . S
H3654 C3666 0.950 . S
H3655 C3667 0.950 . S
C3656 H3648 0.950 . S
C3656 C3657 1.386 . S
C3656 C3658 1.391 . S
C3657 C3656 1.386 . S
C3657 C3661 1.393 . S
C3658 H3650 0.950 . S
C3658 C3656 1.391 . S
C3658 C3659 1.400 . S
C3659 C3658 1.400 . S
C3659 C3660 1.398 . S
C3659 C3665 1.491 . S
C3660 H3651 0.950 . S
C3660 C3659 1.398 . S
C3660 C3661 1.391 . S
C3661 H3649 0.950 . S
C3661 C3657 1.393 . S
C3661 C3660 1.391 . S
C3662 H3652 0.950 . S
C3662 C3663 1.386 . S
C3662 C3664 1.391 . S
C3663 C3662 1.386 . S
C3663 C3667 1.393 . S
C3664 H3653 0.950 . S
C3664 C3662 1.391 . S
C3664 C3665 1.400 . S
C3665 C3659 1.491 . S
C3665 C3664 1.400 . S
C3665 C3666 1.398 . S
C3666 H3654 0.950 . S
C3666 C3665 1.398 . S
C3666 C3667 1.391 . S
C3667 H3655 0.950 . S
C3667 C3663 1.393 . S
C3667 C3666 1.391 . S
H3668 C3676 0.950 . S
H3669 C3681 0.950 . S
H3670 C3678 0.950 . S
H3671 C3680 0.950 . S
H3672 C3682 0.950 . S
H3673 C3684 0.950 . S
H3674 C3686 0.950 . S
H3675 C3687 0.950 . S
C3676 H3668 0.950 . S
C3676 C3677 1.386 . S
C3676 C3678 1.391 . S
C3677 C3676 1.386 . S
C3677 C3681 1.393 . S
C3678 H3670 0.950 . S
C3678 C3676 1.391 . S
C3678 C3679 1.400 . S
C3679 C3678 1.400 . S
C3679 C3680 1.398 . S
C3679 C3685 1.491 . S
C3680 H3671 0.950 . S
C3680 C3679 1.398 . S
C3680 C3681 1.391 . S
C3681 H3669 0.950 . S
C3681 C3677 1.393 . S
C3681 C3680 1.391 . S
C3682 H3672 0.950 . S
C3682 C3683 1.386 . S
C3682 C3684 1.391 . S
C3683 C3682 1.386 . S
C3683 C3687 1.393 . S
C3684 H3673 0.950 . S
C3684 C3682 1.391 . S
C3684 C3685 1.400 . S
C3685 C3679 1.491 . S
C3685 C3684 1.400 . S
C3685 C3686 1.398 . S
C3686 H3674 0.950 . S
C3686 C3685 1.398 . S
C3686 C3687 1.391 . S
C3687 H3675 0.950 . S
C3687 C3683 1.393 . S
C3687 C3686 1.391 . S
H3688 C3696 0.950 . S
H3689 C3701 0.950 . S
H3690 C3698 0.950 . S
H3691 C3700 0.950 . S
H3692 C3702 0.950 . S
H3693 C3704 0.950 . S
H3694 C3706 0.950 . S
H3695 C3707 0.950 . S
C3696 H3688 0.950 . S
C3696 C3697 1.386 . S
C3696 C3698 1.391 . S
C3697 C3696 1.386 . S
C3697 C3701 1.393 . S
C3698 H3690 0.950 . S
C3698 C3696 1.391 . S
C3698 C3699 1.400 . S
C3699 C3698 1.400 . S
C3699 C3700 1.398 . S
C3699 C3705 1.491 . S
C3700 H3691 0.950 . S
C3700 C3699 1.398 . S
C3700 C3701 1.391 . S
C3701 H3689 0.950 . S
C3701 C3697 1.393 . S
C3701 C3700 1.391 . S
C3702 H3692 0.950 . S
C3702 C3703 1.386 . S
C3702 C3704 1.391 . S
C3703 C3702 1.386 . S
C3703 C3707 1.393 . S
C3704 H3693 0.950 . S
C3704 C3702 1.391 . S
C3704 C3705 1.400 . S
C3705 C3699 1.491 . S
C3705 C3704 1.400 . S
C3705 C3706 1.398 . S
C3706 H3694 0.950 . S
C3706 C3705 1.398 . S
C3706 C3707 1.391 . S
C3707 H3695 0.950 . S
C3707 C3703 1.393 . S
C3707 C3706 1.391 . S
H3708 C3716 0.950 . S
H3709 C3721 0.950 . S
H3710 C3718 0.950 . S
H3711 C3720 0.950 . S
H3712 C3722 0.950 . S
H3713 C3724 0.950 . S
H3714 C3726 0.950 . S
H3715 C3727 0.950 . S
C3716 H3708 0.950 . S
C3716 C3717 1.386 . S
C3716 C3718 1.391 . S
C3717 C3716 1.386 . S
C3717 C3721 1.393 . S
C3718 H3710 0.950 . S
C3718 C3716 1.391 . S
C3718 C3719 1.400 . S
C3719 C3718 1.400 . S
C3719 C3720 1.398 . S
C3719 C3725 1.491 . S
C3720 H3711 0.950 . S
C3720 C3719 1.398 . S
C3720 C3721 1.391 . S
C3721 H3709 0.950 . S
C3721 C3717 1.393 . S
C3721 C3720 1.391 . S
C3722 H3712 0.950 . S
C3722 C3723 1.386 . S
C3722 C3724 1.391 . S
C3723 C3722 1.386 . S
C3723 C3727 1.393 . S
C3724 H3713 0.950 . S
C3724 C3722 1.391 . S
C3724 C3725 1.400 . S
C3725 C3719 1.491 . S
C3725 C3724 1.400 . S
C3725 C3726 1.398 . S
C3726 H3714 0.950 . S
C3726 C3725 1.398 . S
C3726 C3727 1.391 . S
C3727 H3715 0.950 . S
C3727 C3723 1.393 . S
C3727 C3726 1.391 . S
H3728 C3736 0.950 . S
H3729 C3741 0.950 . S
H3730 C3738 0.950 . S
H3731 C3740 0.950 . S
H3732 C3742 0.950 . S
H3733 C3744 0.950 . S
H3734 C3746 0.950 . S
H3735 C3747 0.950 . S
C3736 H3728 0.950 . S
C3736 C3737 1.386 . S
C3736 C3738 1.391 . S
C3737 C3736 1.386 . S
C3737 C3741 1.393 . S
C3738 H3730 0.950 . S
C3738 C3736 1.391 . S
C3738 C3739 1.400 . S
C3739 C3738 1.400 . S
C3739 C3740 1.398 . S
C3739 C3745 1.491 . S
C3740 H3731 0.950 . S
C3740 C3739 1.398 . S
C3740 C3741 1.391 . S
C3741 H3729 0.950 . S
C3741 C3737 1.393 . S
C3741 C3740 1.391 . S
C3742 H3732 0.950 . S
C3742 C3743 1.386 . S
C3742 C3744 1.391 . S
C3743 C3742 1.386 . S
C3743 C3747 1.393 . S
C3744 H3733 0.950 . S
C3744 C3742 1.391 . S
C3744 C3745 1.400 . S
C3745 C3739 1.491 . S
C3745 C3744 1.400 . S
C3745 C3746 1.398 . S
C3746 H3734 0.950 . S
C3746 C3745 1.398 . S
C3746 C3747 1.391 . S
C3747 H3735 0.950 . S
C3747 C3743 1.393 . S
C3747 C3746 1.391 . S
H3748 C3756 0.950 . S
H3749 C3761 0.950 . S
H3750 C3758 0.950 . S
H3751 C3760 0.950 . S
H3752 C3762 0.950 . S
H3753 C3764 0.950 . S
H3754 C3766 0.950 . S
H3755 C3767 0.950 . S
C3756 H3748 0.950 . S
C3756 C3757 1.386 . S
C3756 C3758 1.391 . S
C3757 C3756 1.386 . S
C3757 C3761 1.393 . S
C3758 H3750 0.950 . S
C3758 C3756 1.391 . S
C3758 C3759 1.400 . S
C3759 C3758 1.400 . S
C3759 C3760 1.398 . S
C3759 C3765 1.491 . S
C3760 H3751 0.950 . S
C3760 C3759 1.398 . S
C3760 C3761 1.391 . S
C3761 H3749 0.950 . S
C3761 C3757 1.393 . S
C3761 C3760 1.391 . S
C3762 H3752 0.950 . S
C3762 C3763 1.386 . S
C3762 C3764 1.391 . S
C3763 C3762 1.386 . S
C3763 C3767 1.393 . S
C3764 H3753 0.950 . S
C3764 C3762 1.391 . S
C3764 C3765 1.400 . S
C3765 C3759 1.491 . S
C3765 C3764 1.400 . S
C3765 C3766 1.398 . S
C3766 H3754 0.950 . S
C3766 C3765 1.398 . S
C3766 C3767 1.391 . S
C3767 H3755 0.950 . S
C3767 C3763 1.393 . S
C3767 C3766 1.391 . S
H3768 C3776 0.950 . S
H3769 C3781 0.950 . S
H3770 C3778 0.950 . S
H3771 C3780 0.950 . S
H3772 C3782 0.950 . S
H3773 C3784 0.950 . S
H3774 C3786 0.950 . S
H3775 C3787 0.950 . S
C3776 H3768 0.950 . S
C3776 C3777 1.386 . S
C3776 C3778 1.391 . S
C3777 C3776 1.386 . S
C3777 C3781 1.393 . S
C3778 H3770 0.950 . S
C3778 C3776 1.391 . S
C3778 C3779 1.400 . S
C3779 C3778 1.400 . S
C3779 C3780 1.398 . S
C3779 C3785 1.491 . S
C3780 H3771 0.950 . S
C3780 C3779 1.398 . S
C3780 C3781 1.391 . S
C3781 H3769 0.950 . S
C3781 C3777 1.393 . S
C3781 C3780 1.391 . S
C3782 H3772 0.950 . S
C3782 C3783 1.386 . S
C3782 C3784 1.391 . S
C3783 C3782 1.386 . S
C3783 C3787 1.393 . S
C3784 H3773 0.950 . S
C3784 C3782 1.391 . S
C3784 C3785 1.400 . S
C3785 C3779 1.491 . S
C3785 C3784 1.400 . S
C3785 C3786 1.398 . S
C3786 H3774 0.950 . S
C3786 C3785 1.398 . S
C3786 C3787 1.391 . S
C3787 H3775 0.950 . S
C3787 C3783 1.393 . S
C3787 C3786 1.391 . S
H3788 C3796 0.950 . S
H3789 C3801 0.950 . S
H3790 C3798 0.950 . S
H3791 C3800 0.950 . S
H3792 C3802 0.950 . S
H3793 C3804 0.950 . S
H3794 C3806 0.950 . S
H3795 C3807 0.950 . S
C3796 H3788 0.950 . S
C3796 C3797 1.386 . S
C3796 C3798 1.391 . S
C3797 C3796 1.386 . S
C3797 C3801 1.393 . S
C3798 H3790 0.950 . S
C3798 C3796 1.391 . S
C3798 C3799 1.400 . S
C3799 C3798 1.400 . S
C3799 C3800 1.398 . S
C3799 C3805 1.491 . S
C3800 H3791 0.950 . S
C3800 C3799 1.398 . S
C3800 C3801 1.391 . S
C3801 H3789 0.950 . S
C3801 C3797 1.393 . S
C3801 C3800 1.391 . S
C3802 H3792 0.950 . S
C3802 C3803 1.386 . S
C3802 C3804 1.391 . S
C3803 C3802 1.386 . S
C3803 C3807 1.393 . S
C3804 H3793 0.950 . S
C3804 C3802 1.391 . S
C3804 C3805 1.400 . S
C3805 C3799 1.491 . S
C3805 C3804 1.400 . S
C3805 C3806 1.398 . S
C3806 H3794 0.950 . S
C3806 C3805 1.398 . S
C3806 C3807 1.391 . S
C3807 H3795 0.950 . S
C3807 C3803 1.393 . S
C3807 C3806 1.391 . S
H3808 C3816 0.950 . S
H3809 C3821 0.950 . S
H3810 C3818 0.950 . S
H3811 C3820 0.950 . S
H3812 C3822 0.950 . S
H3813 C3824 0.950 . S
H3814 C3826 0.950 . S
H3815 C3827 0.950 . S
C3816 H3808 0.950 . S
C3816 C3817 1.386 . S
C3816 C3818 1.391 . S
C3817 C3816 1.386 . S
C3817 C3821 1.393 . S
C3818 H3810 0.950 . S
C3818 C3816 1.391 . S
C3818 C3819 1.400 . S
C3819 C3818 1.400 . S
C3819 C3820 1.398 . S
C3819 C3825 1.491 . S
C3820 H3811 0.950 . S
C3820 C3819 1.398 . S
C3820 C3821 1.391 . S
C3821 H3809 0.950 . S
C3821 C3817 1.393 . S
C3821 C3820 1.391 . S
C3822 H3812 0.950 . S
C3822 C3823 1.386 . S
C3822 C3824 1.391 . S
C3823 C3822 1.386 . S
C3823 C3827 1.393 . S
C3824 H3813 0.950 . S
C3824 C3822 1.391 . S
C3824 C3825 1.400 . S
C3825 C3819 1.491 . S
C3825 C3824 1.400 . S
C3825 C3826 1.398 . S
C3826 H3814 0.950 . S
C3826 C3825 1.398 . S
C3826 C3827 1.391 . S
C3827 H3815 0.950 . S
C3827 C3823 1.393 . S
C3827 C3826 1.391 . S
H3828 C3836 0.950 . S
H3829 C3841 0.950 . S
H3830 C3838 0.950 . S
H3831 C3840 0.950 . S
H3832 C3842 0.950 . S
H3833 C3844 0.950 . S
H3834 C3846 0.950 . S
H3835 C3847 0.950 . S
C3836 H3828 0.950 . S
C3836 C3837 1.386 . S
C3836 C3838 1.391 . S
C3837 C3836 1.386 . S
C3837 C3841 1.393 . S
C3838 H3830 0.950 . S
C3838 C3836 1.391 . S
C3838 C3839 1.400 . S
C3839 C3838 1.400 . S
C3839 C3840 1.398 . S
C3839 C3845 1.491 . S
C3840 H3831 0.950 . S
C3840 C3839 1.398 . S
C3840 C3841 1.391 . S
C3841 H3829 0.950 . S
C3841 C3837 1.393 . S
C3841 C3840 1.391 . S
C3842 H3832 0.950 . S
C3842 C3843 1.386 . S
C3842 C3844 1.391 . S
C3843 C3842 1.386 . S
C3843 C3847 1.393 . S
C3844 H3833 0.950 . S
C3844 C3842 1.391 . S
C3844 C3845 1.400 . S
C3845 C3839 1.491 . S
C3845 C3844 1.400 . S
C3845 C3846 1.398 . S
C3846 H3834 0.950 . S
C3846 C3845 1.398 . S
C3846 C3847 1.391 . S
C3847 H3835 0.950 . S
C3847 C3843 1.393 . S
C3847 C3846 1.391 . S
H3848 C3856 0.950 . S
H3849 C3861 0.950 . S
H3850 C3858 0.950 . S
H3851 C3860 0.950 . S
H3852 C3862 0.950 . S
H3853 C3864 0.950 . S
H3854 C3866 0.950 . S
H3855 C3867 0.950 . S
C3856 H3848 0.950 . S
C3856 C3857 1.386 . S
C3856 C3858 1.391 . S
C3857 C3856 1.386 . S
C3857 C3861 1.393 . S
C3858 H3850 0.950 . S
C3858 C3856 1.391 . S
C3858 C3859 1.400 . S
C3859 C3858 1.400 . S
C3859 C3860 1.398 . S
C3859 C3865 1.491 . S
C3860 H3851 0.950 . S
C3860 C3859 1.398 . S
C3860 C3861 1.391 . S
C3861 H3849 0.950 . S
C3861 C3857 1.393 . S
C3861 C3860 1.391 . S
C3862 H3852 0.950 . S
C3862 C3863 1.386 . S
C3862 C3864 1.391 . S
C3863 C3862 1.386 . S
C3863 C3867 1.393 . S
C3864 H3853 0.950 . S
C3864 C3862 1.391 . S
C3864 C3865 1.400 . S
C3865 C3859 1.491 . S
C3865 C3864 1.400 . S
C3865 C3866 1.398 . S
C3866 H3854 0.950 . S
C3866 C3865 1.398 . S
C3866 C3867 1.391 . S
C3867 H3855 0.950 . S
C3867 C3863 1.393 . S
C3867 C3866 1.391 . S
H3868 C3876 0.950 . S
H3869 C3881 0.950 . S
H3870 C3878 0.950 . S
H3871 C3880 0.950 . S
H3872 C3882 0.950 . S
H3873 C3884 0.950 . S
H3874 C3886 0.950 . S
H3875 C3887 0.950 . S
C3876 H3868 0.950 . S
C3876 C3877 1.386 . S
C3876 C3878 1.391 . S
C3877 C3876 1.386 . S
C3877 C3881 1.393 . S
C3878 H3870 0.950 . S
C3878 C3876 1.391 . S
C3878 C3879 1.400 . S
C3879 C3878 1.400 . S
C3879 C3880 1.398 . S
C3879 C3885 1.491 . S
C3880 H3871 0.950 . S
C3880 C3879 1.398 . S
C3880 C3881 1.391 . S
C3881 H3869 0.950 . S
C3881 C3877 1.393 . S
C3881 C3880 1.391 . S
C3882 H3872 0.950 . S
C3882 C3883 1.386 . S
C3882 C3884 1.391 . S
C3883 C3882 1.386 . S
C3883 C3887 1.393 . S
C3884 H3873 0.950 . S
C3884 C3882 1.391 . S
C3884 C3885 1.400 . S
C3885 C3879 1.491 . S
C3885 C3884 1.400 . S
C3885 C3886 1.398 . S
C3886 H3874 0.950 . S
C3886 C3885 1.398 . S
C3886 C3887 1.391 . S
C3887 H3875 0.950 . S
C3887 C3883 1.393 . S
C3887 C3886 1.391 . S
H3888 C3896 0.950 . S
H3889 C3901 0.950 . S
H3890 C3898 0.950 . S
H3891 C3900 0.950 . S
H3892 C3902 0.950 . S
H3893 C3904 0.950 . S
H3894 C3906 0.950 . S
H3895 C3907 0.950 . S
C3896 H3888 0.950 . S
C3896 C3897 1.386 . S
C3896 C3898 1.391 . S
C3897 C3896 1.386 . S
C3897 C3901 1.393 . S
C3898 H3890 0.950 . S
C3898 C3896 1.391 . S
C3898 C3899 1.400 . S
C3899 C3898 1.400 . S
C3899 C3900 1.398 . S
C3899 C3905 1.491 . S
C3900 H3891 0.950 . S
C3900 C3899 1.398 . S
C3900 C3901 1.391 . S
C3901 H3889 0.950 . S
C3901 C3897 1.393 . S
C3901 C3900 1.391 . S
C3902 H3892 0.950 . S
C3902 C3903 1.386 . S
C3902 C3904 1.391 . S
C3903 C3902 1.386 . S
C3903 C3907 1.393 . S
C3904 H3893 0.950 . S
C3904 C3902 1.391 . S
C3904 C3905 1.400 . S
C3905 C3899 1.491 . S
C3905 C3904 1.400 . S
C3905 C3906 1.398 . S
C3906 H3894 0.950 . S
C3906 C3905 1.398 . S
C3906 C3907 1.391 . S
C3907 H3895 0.950 . S
C3907 C3903 1.393 . S
C3907 C3906 1.391 . S
H3908 C3916 0.950 . S
H3909 C3921 0.950 . S
H3910 C3918 0.950 . S
H3911 C3920 0.950 . S
H3912 C3922 0.950 . S
H3913 C3924 0.950 . S
H3914 C3926 0.950 . S
H3915 C3927 0.950 . S
C3916 H3908 0.950 . S
C3916 C3917 1.386 . S
C3916 C3918 1.391 . S
C3917 C3916 1.386 . S
C3917 C3921 1.393 . S
C3918 H3910 0.950 . S
C3918 C3916 1.391 . S
C3918 C3919 1.400 . S
C3919 C3918 1.400 . S
C3919 C3920 1.398 . S
C3919 C3925 1.491 . S
C3920 H3911 0.950 . S
C3920 C3919 1.398 . S
C3920 C3921 1.391 . S
C3921 H3909 0.950 . S
C3921 C3917 1.393 . S
C3921 C3920 1.391 . S
C3922 H3912 0.950 . S
C3922 C3923 1.386 . S
C3922 C3924 1.391 . S
C3923 C3922 1.386 . S
C3923 C3927 1.393 . S
C3924 H3913 0.950 . S
C3924 C3922 1.391 . S
C3924 C3925 1.400 . S
C3925 C3919 1.491 . S
C3925 C3924 1.400 . S
C3925 C3926 1.398 . S
C3926 H3914 0.950 . S
C3926 C3925 1.398 . S
C3926 C3927 1.391 . S
C3927 H3915 0.950 . S
C3927 C3923 1.393 . S
C3927 C3926 1.391 . S
H3928 C3936 0.950 . S
H3929 C3941 0.950 . S
H3930 C3938 0.950 . S
H3931 C3940 0.950 . S
H3932 C3942 0.950 . S
H3933 C3944 0.950 . S
H3934 C3946 0.950 . S
H3935 C3947 0.950 . S
C3936 H3928 0.950 . S
C3936 C3937 1.386 . S
C3936 C3938 1.391 . S
C3937 C3936 1.386 . S
C3937 C3941 1.393 . S
C3938 H3930 0.950 . S
C3938 C3936 1.391 . S
C3938 C3939 1.400 . S
C3939 C3938 1.400 . S
C3939 C3940 1.398 . S
C3939 C3945 1.491 . S
C3940 H3931 0.950 . S
C3940 C3939 1.398 . S
C3940 C3941 1.391 . S
C3941 H3929 0.950 . S
C3941 C3937 1.393 . S
C3941 C3940 1.391 . S
C3942 H3932 0.950 . S
C3942 C3943 1.386 . S
C3942 C3944 1.391 . S
C3943 C3942 1.386 . S
C3943 C3947 1.393 . S
C3944 H3933 0.950 . S
C3944 C3942 1.391 . S
C3944 C3945 1.400 . S
C3945 C3939 1.491 . S
C3945 C3944 1.400 . S
C3945 C3946 1.398 . S
C3946 H3934 0.950 . S
C3946 C3945 1.398 . S
C3946 C3947 1.391 . S
C3947 H3935 0.950 . S
C3947 C3943 1.393 . S
C3947 C3946 1.391 . S
H3948 C3956 0.950 . S
H3949 C3961 0.950 . S
H3950 C3958 0.950 . S
H3951 C3960 0.950 . S
H3952 C3962 0.950 . S
H3953 C3964 0.950 . S
H3954 C3966 0.950 . S
H3955 C3967 0.950 . S
C3956 H3948 0.950 . S
C3956 C3957 1.386 . S
C3956 C3958 1.391 . S
C3957 C3956 1.386 . S
C3957 C3961 1.393 . S
C3958 H3950 0.950 . S
C3958 C3956 1.391 . S
C3958 C3959 1.400 . S
C3959 C3958 1.400 . S
C3959 C3960 1.398 . S
C3959 C3965 1.491 . S
C3960 H3951 0.950 . S
C3960 C3959 1.398 . S
C3960 C3961 1.391 . S
C3961 H3949 0.950 . S
C3961 C3957 1.393 . S
C3961 C3960 1.391 . S
C3962 H3952 0.950 . S
C3962 C3963 1.386 . S
C3962 C3964 1.391 . S
C3963 C3962 1.386 . S
C3963 C3967 1.393 . S
C3964 H3953 0.950 . S
C3964 C3962 1.391 . S
C3964 C3965 1.400 . S
C3965 C3959 1.491 . S
C3965 C3964 1.400 . S
C3965 C3966 1.398 . S
C3966 H3954 0.950 . S
C3966 C3965 1.398 . S
C3966 C3967 1.391 . S
C3967 H3955 0.950 . S
C3967 C3963 1.393 . S
C3967 C3966 1.391 . S
H3968 C3976 0.950 . S
H3969 C3981 0.950 . S
H3970 C3978 0.950 . S
H3971 C3980 0.950 . S
H3972 C3982 0.950 . S
H3973 C3984 0.950 . S
H3974 C3986 0.950 . S
H3975 C3987 0.950 . S
C3976 H3968 0.950 . S
C3976 C3977 1.386 . S
C3976 C3978 1.391 . S
C3977 C3976 1.386 . S
C3977 C3981 1.393 . S
C3978 H3970 0.950 . S
C3978 C3976 1.391 . S
C3978 C3979 1.400 . S
C3979 C3978 1.400 . S
C3979 C3980 1.398 . S
C3979 C3985 1.491 . S
C3980 H3971 0.950 . S
C3980 C3979 1.398 . S
C3980 C3981 1.391 . S
C3981 H3969 0.950 . S
C3981 C3977 1.393 . S
C3981 C3980 1.391 . S
C3982 H3972 0.950 . S
C3982 C3983 1.386 . S
C3982 C3984 1.391 . S
C3983 C3982 1.386 . S
C3983 C3987 1.393 . S
C3984 H3973 0.950 . S
C3984 C3982 1.391 . S
C3984 C3985 1.400 . S
C3985 C3979 1.491 . S
C3985 C3984 1.400 . S
C3985 C3986 1.398 . S
C3986 H3974 0.950 . S
C3986 C3985 1.398 . S
C3986 C3987 1.391 . S
C3987 H3975 0.950 . S
C3987 C3983 1.393 . S
C3987 C3986 1.391 . S
H3988 C3996 0.950 . S
H3989 C4001 0.950 . S
H3990 C3998 0.950 . S
H3991 C4000 0.950 . S
H3992 C4002 0.950 . S
H3993 C4004 0.950 . S
H3994 C4006 0.950 . S
H3995 C4007 0.950 . S
C3996 H3988 0.950 . S
C3996 C3997 1.386 . S
C3996 C3998 1.391 . S
C3997 C3996 1.386 . S
C3997 C4001 1.393 . S
C3998 H3990 0.950 . S
C3998 C3996 1.391 . S
C3998 C3999 1.400 . S
C3999 C3998 1.400 . S
C3999 C4000 1.398 . S
C3999 C4005 1.491 . S
C4000 H3991 0.950 . S
C4000 C3999 1.398 . S
C4000 C4001 1.391 . S
C4001 H3989 0.950 . S
C4001 C3997 1.393 . S
C4001 C4000 1.391 . S
C4002 H3992 0.950 . S
C4002 C4003 1.386 . S
C4002 C4004 1.391 . S
C4003 C4002 1.386 . S
C4003 C4007 1.393 . S
C4004 H3993 0.950 . S
C4004 C4002 1.391 . S
C4004 C4005 1.400 . S
C4005 C3999 1.491 . S
C4005 C4004 1.400 . S
C4005 C4006 1.398 . S
C4006 H3994 0.950 . S
C4006 C4005 1.398 . S
C4006 C4007 1.391 . S
C4007 H3995 0.950 . S
C4007 C4003 1.393 . S
C4007 C4006 1.391 . S
H4008 C4016 0.950 . S
H4009 C4021 0.950 . S
H4010 C4018 0.950 . S
H4011 C4020 0.950 . S
H4012 C4022 0.950 . S
H4013 C4024 0.950 . S
H4014 C4026 0.950 . S
H4015 C4027 0.950 . S
C4016 H4008 0.950 . S
C4016 C4017 1.386 . S
C4016 C4018 1.391 . S
C4017 C4016 1.386 . S
C4017 C4021 1.393 . S
C4018 H4010 0.950 . S
C4018 C4016 1.391 . S
C4018 C4019 1.400 . S
C4019 C4018 1.400 . S
C4019 C4020 1.398 . S
C4019 C4025 1.491 . S
C4020 H4011 0.950 . S
C4020 C4019 1.398 . S
C4020 C4021 1.391 . S
C4021 H4009 0.950 . S
C4021 C4017 1.393 . S
C4021 C4020 1.391 . S
C4022 H4012 0.950 . S
C4022 C4023 1.386 . S
C4022 C4024 1.391 . S
C4023 C4022 1.386 . S
C4023 C4027 1.393 . S
C4024 H4013 0.950 . S
C4024 C4022 1.391 . S
C4024 C4025 1.400 . S
C4025 C4019 1.491 . S
C4025 C4024 1.400 . S
C4025 C4026 1.398 . S
C4026 H4014 0.950 . S
C4026 C4025 1.398 . S
C4026 C4027 1.391 . S
C4027 H4015 0.950 . S
C4027 C4023 1.393 . S
C4027 C4026 1.391 . S
H4028 C4036 0.950 . S
H4029 C4041 0.950 . S
H4030 C4038 0.950 . S
H4031 C4040 0.950 . S
H4032 C4042 0.950 . S
H4033 C4044 0.950 . S
H4034 C4046 0.950 . S
H4035 C4047 0.950 . S
C4036 H4028 0.950 . S
C4036 C4037 1.386 . S
C4036 C4038 1.391 . S
C4037 C4036 1.386 . S
C4037 C4041 1.393 . S
C4038 H4030 0.950 . S
C4038 C4036 1.391 . S
C4038 C4039 1.400 . S
C4039 C4038 1.400 . S
C4039 C4040 1.398 . S
C4039 C4045 1.491 . S
C4040 H4031 0.950 . S
C4040 C4039 1.398 . S
C4040 C4041 1.391 . S
C4041 H4029 0.950 . S
C4041 C4037 1.393 . S
C4041 C4040 1.391 . S
C4042 H4032 0.950 . S
C4042 C4043 1.386 . S
C4042 C4044 1.391 . S
C4043 C4042 1.386 . S
C4043 C4047 1.393 . S
C4044 H4033 0.950 . S
C4044 C4042 1.391 . S
C4044 C4045 1.400 . S
C4045 C4039 1.491 . S
C4045 C4044 1.400 . S
C4045 C4046 1.398 . S
C4046 H4034 0.950 . S
C4046 C4045 1.398 . S
C4046 C4047 1.391 . S
C4047 H4035 0.950 . S
C4047 C4043 1.393 . S
C4047 C4046 1.391 . S
H4048 C4056 0.950 . S
H4049 C4061 0.950 . S
H4050 C4058 0.950 . S
H4051 C4060 0.950 . S
H4052 C4062 0.950 . S
H4053 C4064 0.950 . S
H4054 C4066 0.950 . S
H4055 C4067 0.950 . S
C4056 H4048 0.950 . S
C4056 C4057 1.386 . S
C4056 C4058 1.391 . S
C4057 C4056 1.386 . S
C4057 C4061 1.393 . S
C4058 H4050 0.950 . S
C4058 C4056 1.391 . S
C4058 C4059 1.400 . S
C4059 C4058 1.400 . S
C4059 C4060 1.398 . S
C4059 C4065 1.491 . S
C4060 H4051 0.950 . S
C4060 C4059 1.398 . S
C4060 C4061 1.391 . S
C4061 H4049 0.950 . S
C4061 C4057 1.393 . S
C4061 C4060 1.391 . S
C4062 H4052 0.950 . S
C4062 C4063 1.386 . S
C4062 C4064 1.391 . S
C4063 C4062 1.386 . S
C4063 C4067 1.393 . S
C4064 H4053 0.950 . S
C4064 C4062 1.391 . S
C4064 C4065 1.400 . S
C4065 C4059 1.491 . S
C4065 C4064 1.400 . S
C4065 C4066 1.398 . S
C4066 H4054 0.950 . S
C4066 C4065 1.398 . S
C4066 C4067 1.391 . S
C4067 H4055 0.950 . S
C4067 C4063 1.393 . S
C4067 C4066 1.391 . S
H4068 C4076 0.950 . S
H4069 C4081 0.950 . S
H4070 C4078 0.950 . S
H4071 C4080 0.950 . S
H4072 C4082 0.950 . S
H4073 C4084 0.950 . S
H4074 C4086 0.950 . S
H4075 C4087 0.950 . S
C4076 H4068 0.950 . S
C4076 C4077 1.386 . S
C4076 C4078 1.391 . S
C4077 C4076 1.386 . S
C4077 C4081 1.393 . S
C4078 H4070 0.950 . S
C4078 C4076 1.391 . S
C4078 C4079 1.400 . S
C4079 C4078 1.400 . S
C4079 C4080 1.398 . S
C4079 C4085 1.491 . S
C4080 H4071 0.950 . S
C4080 C4079 1.398 . S
C4080 C4081 1.391 . S
C4081 H4069 0.950 . S
C4081 C4077 1.393 . S
C4081 C4080 1.391 . S
C4082 H4072 0.950 . S
C4082 C4083 1.386 . S
C4082 C4084 1.391 . S
C4083 C4082 1.386 . S
C4083 C4087 1.393 . S
C4084 H4073 0.950 . S
C4084 C4082 1.391 . S
C4084 C4085 1.400 . S
C4085 C4079 1.491 . S
C4085 C4084 1.400 . S
C4085 C4086 1.398 . S
C4086 H4074 0.950 . S
C4086 C4085 1.398 . S
C4086 C4087 1.391 . S
C4087 H4075 0.950 . S
C4087 C4083 1.393 . S
C4087 C4086 1.391 . S
H4088 C4096 0.950 . S
H4089 C4101 0.950 . S
H4090 C4098 0.950 . S
H4091 C4100 0.950 . S
H4092 C4102 0.950 . S
H4093 C4104 0.950 . S
H4094 C4106 0.950 . S
H4095 C4107 0.950 . S
C4096 H4088 0.950 . S
C4096 C4097 1.386 . S
C4096 C4098 1.391 . S
C4097 C4096 1.386 . S
C4097 C4101 1.393 . S
C4098 H4090 0.950 . S
C4098 C4096 1.391 . S
C4098 C4099 1.400 . S
C4099 C4098 1.400 . S
C4099 C4100 1.398 . S
C4099 C4105 1.491 . S
C4100 H4091 0.950 . S
C4100 C4099 1.398 . S
C4100 C4101 1.391 . S
C4101 H4089 0.950 . S
C4101 C4097 1.393 . S
C4101 C4100 1.391 . S
C4102 H4092 0.950 . S
C4102 C4103 1.386 . S
C4102 C4104 1.391 . S
C4103 C4102 1.386 . S
C4103 C4107 1.393 . S
C4104 H4093 0.950 . S
C4104 C4102 1.391 . S
C4104 C4105 1.400 . S
C4105 C4099 1.491 . S
C4105 C4104 1.400 . S
C4105 C4106 1.398 . S
C4106 H4094 0.950 . S
C4106 C4105 1.398 . S
C4106 C4107 1.391 . S
C4107 H4095 0.950 . S
C4107 C4103 1.393 . S
C4107 C4106 1.391 . S
H4108 C4116 0.950 . S
H4109 C4121 0.950 . S
H4110 C4118 0.950 . S
H4111 C4120 0.950 . S
H4112 C4122 0.950 . S
H4113 C4124 0.950 . S
H4114 C4126 0.950 . S
H4115 C4127 0.950 . S
C4116 H4108 0.950 . S
C4116 C4117 1.386 . S
C4116 C4118 1.391 . S
C4117 C4116 1.386 . S
C4117 C4121 1.393 . S
C4118 H4110 0.950 . S
C4118 C4116 1.391 . S
C4118 C4119 1.400 . S
C4119 C4118 1.400 . S
C4119 C4120 1.398 . S
C4119 C4125 1.491 . S
C4120 H4111 0.950 . S
C4120 C4119 1.398 . S
C4120 C4121 1.391 . S
C4121 H4109 0.950 . S
C4121 C4117 1.393 . S
C4121 C4120 1.391 . S
C4122 H4112 0.950 . S
C4122 C4123 1.386 . S
C4122 C4124 1.391 . S
C4123 C4122 1.386 . S
C4123 C4127 1.393 . S
C4124 H4113 0.950 . S
C4124 C4122 1.391 . S
C4124 C4125 1.400 . S
C4125 C4119 1.491 . S
C4125 C4124 1.400 . S
C4125 C4126 1.398 . S
C4126 H4114 0.950 . S
C4126 C4125 1.398 . S
C4126 C4127 1.391 . S
C4127 H4115 0.950 . S
C4127 C4123 1.393 . S
C4127 C4126 1.391 . S
H4128 C4136 0.950 . S
H4129 C4141 0.950 . S
H4130 C4138 0.950 . S
H4131 C4140 0.950 1_655 S
H4132 C4142 0.950 . S
H4133 C4144 0.950 . S
H4134 C4146 0.950 1_455 S
H4135 C4147 0.950 . S
C4136 H4128 0.950 . S
C4136 C4137 1.386 . S
C4136 C4138 1.391 . S
C4137 C4136 1.386 . S
C4137 C4141 1.393 . S
C4138 H4130 0.950 . S
C4138 C4136 1.391 . S
C4138 C4139 1.400 . S
C4139 C4138 1.400 . S
C4139 C4140 1.398 . S
C4139 C4145 1.491 1_455 S
C4140 H4131 0.950 1_455 S
C4140 C4139 1.398 . S
C4140 C4141 1.391 . S
C4141 H4129 0.950 . S
C4141 C4137 1.393 . S
C4141 C4140 1.391 . S
C4142 H4132 0.950 . S
C4142 C4143 1.386 . S
C4142 C4144 1.391 . S
C4143 C4142 1.386 . S
C4143 C4147 1.393 . S
C4144 H4133 0.950 . S
C4144 C4142 1.391 . S
C4144 C4145 1.400 . S
C4145 C4139 1.491 1_655 S
C4145 C4144 1.400 . S
C4145 C4146 1.398 . S
C4146 H4134 0.950 1_655 S
C4146 C4145 1.398 . S
C4146 C4147 1.391 . S
C4147 H4135 0.950 . S
C4147 C4143 1.393 . S
C4147 C4146 1.391 . S
H4148 C4156 0.950 . S
H4149 C4161 0.950 . S
H4150 C4158 0.950 . S
H4151 C4160 0.950 . S
H4152 C4162 0.950 . S
H4153 C4164 0.950 . S
H4154 C4166 0.950 . S
H4155 C4167 0.950 . S
C4156 H4148 0.950 . S
C4156 C4157 1.386 . S
C4156 C4158 1.391 . S
C4157 C4156 1.386 . S
C4157 C4161 1.393 . S
C4158 H4150 0.950 . S
C4158 C4156 1.391 . S
C4158 C4159 1.400 . S
C4159 C4158 1.400 . S
C4159 C4160 1.398 . S
C4159 C4165 1.491 . S
C4160 H4151 0.950 . S
C4160 C4159 1.398 . S
C4160 C4161 1.391 . S
C4161 H4149 0.950 . S
C4161 C4157 1.393 . S
C4161 C4160 1.391 . S
C4162 H4152 0.950 . S
C4162 C4163 1.386 . S
C4162 C4164 1.391 . S
C4163 C4162 1.386 . S
C4163 C4167 1.393 . S
C4164 H4153 0.950 . S
C4164 C4162 1.391 . S
C4164 C4165 1.400 . S
C4165 C4159 1.491 . S
C4165 C4164 1.400 . S
C4165 C4166 1.398 . S
C4166 H4154 0.950 . S
C4166 C4165 1.398 . S
C4166 C4167 1.391 . S
C4167 H4155 0.950 . S
C4167 C4163 1.393 . S
C4167 C4166 1.391 . S
H4168 C4176 0.950 . S
H4169 C4181 0.950 . S
H4170 C4178 0.950 . S
H4171 C4180 0.950 . S
H4172 C4182 0.950 . S
H4173 C4184 0.950 . S
H4174 C4186 0.950 . S
H4175 C4187 0.950 . S
C4176 H4168 0.950 . S
C4176 C4177 1.386 . S
C4176 C4178 1.391 . S
C4177 C4176 1.386 . S
C4177 C4181 1.393 . S
C4178 H4170 0.950 . S
C4178 C4176 1.391 . S
C4178 C4179 1.400 . S
C4179 C4178 1.400 . S
C4179 C4180 1.398 . S
C4179 C4185 1.491 1_565 S
C4180 H4171 0.950 . S
C4180 C4179 1.398 . S
C4180 C4181 1.391 . S
C4181 H4169 0.950 . S
C4181 C4177 1.393 . S
C4181 C4180 1.391 . S
C4182 H4172 0.950 . S
C4182 C4183 1.386 . S
C4182 C4184 1.391 . S
C4183 C4182 1.386 . S
C4183 C4187 1.393 . S
C4184 H4173 0.950 . S
C4184 C4182 1.391 . S
C4184 C4185 1.400 . S
C4185 C4179 1.491 1_545 S
C4185 C4184 1.400 . S
C4185 C4186 1.398 . S
C4186 H4174 0.950 . S
C4186 C4185 1.398 . S
C4186 C4187 1.391 . S
C4187 H4175 0.950 . S
C4187 C4183 1.393 . S
C4187 C4186 1.391 . S
H4188 C4196 0.950 . S
H4189 C4201 0.950 . S
H4190 C4198 0.950 . S
H4191 C4200 0.950 1_545 S
H4192 C4202 0.950 . S
H4193 C4204 0.950 . S
H4194 C4206 0.950 1_565 S
H4195 C4207 0.950 . S
C4196 H4188 0.950 . S
C4196 C4197 1.386 . S
C4196 C4198 1.391 . S
C4197 C4196 1.386 . S
C4197 C4201 1.393 . S
C4198 H4190 0.950 . S
C4198 C4196 1.391 . S
C4198 C4199 1.400 . S
C4199 C4198 1.400 . S
C4199 C4200 1.398 . S
C4199 C4205 1.491 1_565 S
C4200 H4191 0.950 1_565 S
C4200 C4199 1.398 . S
C4200 C4201 1.391 . S
C4201 H4189 0.950 . S
C4201 C4197 1.393 . S
C4201 C4200 1.391 . S
C4202 H4192 0.950 . S
C4202 C4203 1.386 . S
C4202 C4204 1.391 . S
C4203 C4202 1.386 . S
C4203 C4207 1.393 . S
C4204 H4193 0.950 . S
C4204 C4202 1.391 . S
C4204 C4205 1.400 . S
C4205 C4199 1.491 1_545 S
C4205 C4204 1.400 . S
C4205 C4206 1.398 . S
C4206 H4194 0.950 1_545 S
C4206 C4205 1.398 . S
C4206 C4207 1.391 . S
C4207 H4195 0.950 . S
C4207 C4203 1.393 . S
C4207 C4206 1.391 . S
H4208 C4216 0.950 . S
H4209 C4221 0.950 . S
H4210 C4218 0.950 . S
H4211 C4220 1.063 . S
H4212 C4222 0.950 . S
H4213 C4224 0.950 . S
H4214 C4226 1.064 . S
H4215 C4227 0.950 . S
C4216 H4208 0.950 . S
C4216 C4217 1.386 . S
C4216 C4218 1.391 . S
C4217 C4216 1.386 . S
C4217 C4221 1.393 . S
C4218 H4210 0.950 . S
C4218 C4216 1.391 . S
C4218 C4219 1.400 . S
C4219 C4218 1.400 . S
C4219 C4220 1.398 . S
C4219 C4225 1.491 1_655 S
C4220 H4211 1.063 . S
C4220 C4219 1.398 . S
C4220 C4221 1.391 . S
C4221 H4209 0.950 . S
C4221 C4217 1.393 . S
C4221 C4220 1.391 . S
C4222 H4212 0.950 . S
C4222 C4223 1.386 . S
C4222 C4224 1.391 . S
C4223 C4222 1.386 . S
C4223 C4227 1.393 . S
C4224 H4213 0.950 . S
C4224 C4222 1.391 . S
C4224 C4225 1.400 . S
C4225 C4219 1.491 1_455 S
C4225 C4224 1.400 . S
C4225 C4226 1.398 . S
C4226 H4214 1.064 . S
C4226 C4225 1.398 . S
C4226 C4227 1.391 . S
C4227 H4215 0.950 . S
C4227 C4223 1.393 . S
C4227 C4226 1.391 . S
H4228 C4236 0.950 . S
H4229 C4241 0.950 . S
H4230 C4238 0.950 . S
H4231 C4240 0.950 . S
H4232 C4242 0.950 . S
H4233 C4244 0.950 . S
H4234 C4246 0.950 . S
H4235 C4247 0.950 . S
C4236 H4228 0.950 . S
C4236 C4237 1.386 . S
C4236 C4238 1.391 . S
C4237 C4236 1.386 . S
C4237 C4241 1.393 . S
C4238 H4230 0.950 . S
C4238 C4236 1.391 . S
C4238 C4239 1.400 . S
C4239 C4238 1.400 . S
C4239 C4240 1.398 . S
C4239 C4245 1.491 . S
C4240 H4231 0.950 . S
C4240 C4239 1.398 . S
C4240 C4241 1.391 . S
C4241 H4229 0.950 . S
C4241 C4237 1.393 . S
C4241 C4240 1.391 . S
C4242 H4232 0.950 . S
C4242 C4243 1.386 . S
C4242 C4244 1.391 . S
C4243 C4242 1.386 . S
C4243 C4247 1.393 . S
C4244 H4233 0.950 . S
C4244 C4242 1.391 . S
C4244 C4245 1.400 . S
C4245 C4239 1.491 . S
C4245 C4244 1.400 . S
C4245 C4246 1.398 . S
C4246 H4234 0.950 . S
C4246 C4245 1.398 . S
C4246 C4247 1.391 . S
C4247 H4235 0.950 . S
C4247 C4243 1.393 . S
C4247 C4246 1.391 . S
H4248 C4256 0.950 . S
H4249 C4261 0.950 . S
H4250 C4258 0.950 . S
H4251 C4260 0.950 . S
H4252 C4262 0.950 . S
H4253 C4264 0.950 . S
H4254 C4266 0.950 . S
H4255 C4267 0.950 . S
C4256 H4248 0.950 . S
C4256 C4257 1.386 . S
C4256 C4258 1.391 . S
C4257 C4256 1.386 . S
C4257 C4261 1.393 . S
C4258 H4250 0.950 . S
C4258 C4256 1.391 . S
C4258 C4259 1.400 . S
C4259 C4258 1.400 . S
C4259 C4260 1.398 . S
C4259 C4265 1.491 . S
C4260 H4251 0.950 . S
C4260 C4259 1.398 . S
C4260 C4261 1.391 . S
C4261 H4249 0.950 . S
C4261 C4257 1.393 . S
C4261 C4260 1.391 . S
C4262 H4252 0.950 . S
C4262 C4263 1.386 . S
C4262 C4264 1.391 . S
C4263 C4262 1.386 . S
C4263 C4267 1.393 . S
C4264 H4253 0.950 . S
C4264 C4262 1.391 . S
C4264 C4265 1.400 . S
C4265 C4259 1.491 . S
C4265 C4264 1.400 . S
C4265 C4266 1.398 . S
C4266 H4254 0.950 . S
C4266 C4265 1.398 . S
C4266 C4267 1.391 . S
C4267 H4255 0.950 . S
C4267 C4263 1.393 . S
C4267 C4266 1.391 . S
H4268 C4276 0.950 . S
H4269 C4281 0.950 . S
H4270 C4278 0.950 . S
H4271 C4280 0.950 . S
H4272 C4282 0.950 . S
H4273 C4284 0.950 . S
H4274 C4286 0.950 . S
H4275 C4287 0.950 . S
C4276 H4268 0.950 . S
C4276 C4277 1.386 . S
C4276 C4278 1.391 . S
C4277 C4276 1.386 . S
C4277 C4281 1.393 . S
C4278 H4270 0.950 . S
C4278 C4276 1.391 . S
C4278 C4279 1.400 . S
C4279 C4278 1.400 . S
C4279 C4280 1.398 . S
C4279 C4285 1.491 . S
C4280 H4271 0.950 . S
C4280 C4279 1.398 . S
C4280 C4281 1.391 . S
C4281 H4269 0.950 . S
C4281 C4277 1.393 . S
C4281 C4280 1.391 . S
C4282 H4272 0.950 . S
C4282 C4283 1.386 . S
C4282 C4284 1.391 . S
C4283 C4282 1.386 . S
C4283 C4287 1.393 . S
C4284 H4273 0.950 . S
C4284 C4282 1.391 . S
C4284 C4285 1.400 . S
C4285 C4279 1.491 . S
C4285 C4284 1.400 . S
C4285 C4286 1.398 . S
C4286 H4274 0.950 . S
C4286 C4285 1.398 . S
C4286 C4287 1.391 . S
C4287 H4275 0.950 . S
C4287 C4283 1.393 . S
C4287 C4286 1.391 . S
H4288 C4296 0.950 . S
H4289 C4301 0.950 . S
H4290 C4298 0.950 . S
H4291 C4300 0.950 . S
H4292 C4302 0.950 . S
H4293 C4304 0.950 . S
H4294 C4306 0.950 . S
H4295 C4307 0.950 . S
C4296 H4288 0.950 . S
C4296 C4297 1.386 . S
C4296 C4298 1.391 . S
C4297 C4296 1.386 . S
C4297 C4301 1.393 . S
C4298 H4290 0.950 . S
C4298 C4296 1.391 . S
C4298 C4299 1.400 . S
C4299 C4298 1.400 . S
C4299 C4300 1.398 . S
C4299 C4305 1.491 . S
C4300 H4291 0.950 . S
C4300 C4299 1.398 . S
C4300 C4301 1.391 . S
C4301 H4289 0.950 . S
C4301 C4297 1.393 . S
C4301 C4300 1.391 . S
C4302 H4292 0.950 . S
C4302 C4303 1.386 . S
C4302 C4304 1.391 . S
C4303 C4302 1.386 . S
C4303 C4307 1.393 . S
C4304 H4293 0.950 . S
C4304 C4302 1.391 . S
C4304 C4305 1.400 . S
C4305 C4299 1.491 . S
C4305 C4304 1.400 . S
C4305 C4306 1.398 . S
C4306 H4294 0.950 . S
C4306 C4305 1.398 . S
C4306 C4307 1.391 . S
C4307 H4295 0.950 . S
C4307 C4303 1.393 . S
C4307 C4306 1.391 . S
H4308 C4316 0.950 . S
H4309 C4321 0.950 . S
H4310 C4318 0.950 . S
H4311 C4320 0.950 . S
H4312 C4322 0.950 . S
H4313 C4324 0.950 . S
H4314 C4326 0.950 . S
H4315 C4327 0.950 . S
C4316 H4308 0.950 . S
C4316 C4317 1.386 . S
C4316 C4318 1.391 . S
C4317 C4316 1.386 . S
C4317 C4321 1.393 . S
C4318 H4310 0.950 . S
C4318 C4316 1.391 . S
C4318 C4319 1.400 . S
C4319 C4318 1.400 . S
C4319 C4320 1.398 . S
C4319 C4325 1.491 . S
C4320 H4311 0.950 . S
C4320 C4319 1.398 . S
C4320 C4321 1.391 . S
C4321 H4309 0.950 . S
C4321 C4317 1.393 . S
C4321 C4320 1.391 . S
C4322 H4312 0.950 . S
C4322 C4323 1.386 . S
C4322 C4324 1.391 . S
C4323 C4322 1.386 . S
C4323 C4327 1.393 . S
C4324 H4313 0.950 . S
C4324 C4322 1.391 . S
C4324 C4325 1.400 . S
C4325 C4319 1.491 . S
C4325 C4324 1.400 . S
C4325 C4326 1.398 . S
C4326 H4314 0.950 . S
C4326 C4325 1.398 . S
C4326 C4327 1.391 . S
C4327 H4315 0.950 . S
C4327 C4323 1.393 . S
C4327 C4326 1.391 . S
H4328 C4336 0.950 . S
H4329 C4341 0.950 . S
H4330 C4338 0.950 . S
H4331 C4340 0.950 . S
H4332 C4342 0.950 . S
H4333 C4344 0.950 . S
H4334 C4346 0.950 . S
H4335 C4347 0.950 . S
C4336 H4328 0.950 . S
C4336 C4337 1.386 . S
C4336 C4338 1.391 . S
C4337 C4336 1.386 . S
C4337 C4341 1.393 . S
C4338 H4330 0.950 . S
C4338 C4336 1.391 . S
C4338 C4339 1.400 . S
C4339 C4338 1.400 . S
C4339 C4340 1.398 . S
C4339 C4345 1.491 . S
C4340 H4331 0.950 . S
C4340 C4339 1.398 . S
C4340 C4341 1.391 . S
C4341 H4329 0.950 . S
C4341 C4337 1.393 . S
C4341 C4340 1.391 . S
C4342 H4332 0.950 . S
C4342 C4343 1.386 . S
C4342 C4344 1.391 . S
C4343 C4342 1.386 . S
C4343 C4347 1.393 . S
C4344 H4333 0.950 . S
C4344 C4342 1.391 . S
C4344 C4345 1.400 . S
C4345 C4339 1.491 . S
C4345 C4344 1.400 . S
C4345 C4346 1.398 . S
C4346 H4334 0.950 . S
C4346 C4345 1.398 . S
C4346 C4347 1.391 . S
C4347 H4335 0.950 . S
C4347 C4343 1.393 . S
C4347 C4346 1.391 . S
H4348 C4356 0.950 . S
H4349 C4361 0.950 . S
H4350 C4358 0.950 . S
H4351 C4360 0.950 . S
H4352 C4362 0.950 . S
H4353 C4364 0.950 . S
H4354 C4366 0.950 . S
H4355 C4367 0.950 . S
C4356 H4348 0.950 . S
C4356 C4357 1.386 . S
C4356 C4358 1.391 . S
C4357 C4356 1.386 . S
C4357 C4361 1.393 . S
C4358 H4350 0.950 . S
C4358 C4356 1.391 . S
C4358 C4359 1.400 . S
C4359 C4358 1.400 . S
C4359 C4360 1.398 . S
C4359 C4365 1.491 . S
C4360 H4351 0.950 . S
C4360 C4359 1.398 . S
C4360 C4361 1.391 . S
C4361 H4349 0.950 . S
C4361 C4357 1.393 . S
C4361 C4360 1.391 . S
C4362 H4352 0.950 . S
C4362 C4363 1.386 . S
C4362 C4364 1.391 . S
C4363 C4362 1.386 . S
C4363 C4367 1.393 . S
C4364 H4353 0.950 . S
C4364 C4362 1.391 . S
C4364 C4365 1.400 . S
C4365 C4359 1.491 . S
C4365 C4364 1.400 . S
C4365 C4366 1.398 . S
C4366 H4354 0.950 . S
C4366 C4365 1.398 . S
C4366 C4367 1.391 . S
C4367 H4355 0.950 . S
C4367 C4363 1.393 . S
C4367 C4366 1.391 . S
H4368 C4376 0.950 . S
H4369 C4381 0.950 . S
H4370 C4378 0.950 . S
H4371 C4380 0.950 . S
H4372 C4382 0.950 . S
H4373 C4384 0.950 . S
H4374 C4386 0.950 . S
H4375 C4387 0.950 . S
C4376 H4368 0.950 . S
C4376 C4377 1.386 . S
C4376 C4378 1.391 . S
C4377 C4376 1.386 . S
C4377 C4381 1.393 . S
C4378 H4370 0.950 . S
C4378 C4376 1.391 . S
C4378 C4379 1.400 . S
C4379 C4378 1.400 . S
C4379 C4380 1.398 . S
C4379 C4385 1.491 . S
C4380 H4371 0.950 . S
C4380 C4379 1.398 . S
C4380 C4381 1.391 . S
C4381 H4369 0.950 . S
C4381 C4377 1.393 . S
C4381 C4380 1.391 . S
C4382 H4372 0.950 . S
C4382 C4383 1.386 . S
C4382 C4384 1.391 . S
C4383 C4382 1.386 . S
C4383 C4387 1.393 . S
C4384 H4373 0.950 . S
C4384 C4382 1.391 . S
C4384 C4385 1.400 . S
C4385 C4379 1.491 . S
C4385 C4384 1.400 . S
C4385 C4386 1.398 . S
C4386 H4374 0.950 . S
C4386 C4385 1.398 . S
C4386 C4387 1.391 . S
C4387 H4375 0.950 . S
C4387 C4383 1.393 . S
C4387 C4386 1.391 . S
H4388 C4396 0.950 . S
H4389 C4401 0.950 . S
H4390 C4398 0.950 . S
H4391 C4400 0.950 . S
H4392 C4402 0.950 . S
H4393 C4404 0.950 . S
H4394 C4406 0.950 . S
H4395 C4407 0.950 . S
C4396 H4388 0.950 . S
C4396 C4397 1.386 . S
C4396 C4398 1.391 . S
C4397 C4396 1.386 . S
C4397 C4401 1.393 . S
C4398 H4390 0.950 . S
C4398 C4396 1.391 . S
C4398 C4399 1.400 . S
C4399 C4398 1.400 . S
C4399 C4400 1.398 . S
C4399 C4405 1.491 . S
C4400 H4391 0.950 . S
C4400 C4399 1.398 . S
C4400 C4401 1.391 . S
C4401 H4389 0.950 . S
C4401 C4397 1.393 . S
C4401 C4400 1.391 . S
C4402 H4392 0.950 . S
C4402 C4403 1.386 . S
C4402 C4404 1.391 . S
C4403 C4402 1.386 . S
C4403 C4407 1.393 . S
C4404 H4393 0.950 . S
C4404 C4402 1.391 . S
C4404 C4405 1.400 . S
C4405 C4399 1.491 . S
C4405 C4404 1.400 . S
C4405 C4406 1.398 . S
C4406 H4394 0.950 . S
C4406 C4405 1.398 . S
C4406 C4407 1.391 . S
C4407 H4395 0.950 . S
C4407 C4403 1.393 . S
C4407 C4406 1.391 . S
H4408 C4416 0.950 . S
H4409 C4421 0.950 . S
H4410 C4418 0.950 . S
H4411 C4420 0.950 . S
H4412 C4422 0.950 . S
H4413 C4424 0.950 . S
H4414 C4426 0.950 . S
H4415 C4427 0.950 . S
C4416 H4408 0.950 . S
C4416 C4417 1.386 . S
C4416 C4418 1.391 . S
C4417 C4416 1.386 . S
C4417 C4421 1.393 . S
C4418 H4410 0.950 . S
C4418 C4416 1.391 . S
C4418 C4419 1.400 . S
C4419 C4418 1.400 . S
C4419 C4420 1.398 . S
C4419 C4425 1.491 . S
C4420 H4411 0.950 . S
C4420 C4419 1.398 . S
C4420 C4421 1.391 . S
C4421 H4409 0.950 . S
C4421 C4417 1.393 . S
C4421 C4420 1.391 . S
C4422 H4412 0.950 . S
C4422 C4423 1.386 . S
C4422 C4424 1.391 . S
C4423 C4422 1.386 . S
C4423 C4427 1.393 . S
C4424 H4413 0.950 . S
C4424 C4422 1.391 . S
C4424 C4425 1.400 . S
C4425 C4419 1.491 . S
C4425 C4424 1.400 . S
C4425 C4426 1.398 . S
C4426 H4414 0.950 . S
C4426 C4425 1.398 . S
C4426 C4427 1.391 . S
C4427 H4415 0.950 . S
C4427 C4423 1.393 . S
C4427 C4426 1.391 . S
H4428 C4436 0.950 . S
H4429 C4441 0.950 . S
H4430 C4438 0.950 . S
H4431 C4440 0.950 . S
H4432 C4442 0.950 . S
H4433 C4444 0.950 . S
H4434 C4446 0.950 . S
H4435 C4447 0.950 . S
C4436 H4428 0.950 . S
C4436 C4437 1.386 . S
C4436 C4438 1.391 . S
C4437 C4436 1.386 . S
C4437 C4441 1.393 . S
C4438 H4430 0.950 . S
C4438 C4436 1.391 . S
C4438 C4439 1.400 . S
C4439 C4438 1.400 . S
C4439 C4440 1.398 . S
C4439 C4445 1.491 . S
C4440 H4431 0.950 . S
C4440 C4439 1.398 . S
C4440 C4441 1.391 . S
C4441 H4429 0.950 . S
C4441 C4437 1.393 . S
C4441 C4440 1.391 . S
C4442 H4432 0.950 . S
C4442 C4443 1.386 . S
C4442 C4444 1.391 . S
C4443 C4442 1.386 . S
C4443 C4447 1.393 . S
C4444 H4433 0.950 . S
C4444 C4442 1.391 . S
C4444 C4445 1.400 . S
C4445 C4439 1.491 . S
C4445 C4444 1.400 . S
C4445 C4446 1.398 . S
C4446 H4434 0.950 . S
C4446 C4445 1.398 . S
C4446 C4447 1.391 . S
C4447 H4435 0.950 . S
C4447 C4443 1.393 . S
C4447 C4446 1.391 . S
H4448 C4456 0.950 . S
H4449 C4461 0.950 . S
H4450 C4458 0.950 . S
H4451 C4460 0.950 . S
H4452 C4462 0.950 . S
H4453 C4464 0.950 . S
H4454 C4466 0.950 . S
H4455 C4467 0.950 . S
C4456 H4448 0.950 . S
C4456 C4457 1.386 . S
C4456 C4458 1.391 . S
C4457 C4456 1.386 . S
C4457 C4461 1.393 . S
C4458 H4450 0.950 . S
C4458 C4456 1.391 . S
C4458 C4459 1.400 . S
C4459 C4458 1.400 . S
C4459 C4460 1.398 . S
C4459 C4465 1.491 . S
C4460 H4451 0.950 . S
C4460 C4459 1.398 . S
C4460 C4461 1.391 . S
C4461 H4449 0.950 . S
C4461 C4457 1.393 . S
C4461 C4460 1.391 . S
C4462 H4452 0.950 . S
C4462 C4463 1.386 . S
C4462 C4464 1.391 . S
C4463 C4462 1.386 . S
C4463 C4467 1.393 . S
C4464 H4453 0.950 . S
C4464 C4462 1.391 . S
C4464 C4465 1.400 . S
C4465 C4459 1.491 . S
C4465 C4464 1.400 . S
C4465 C4466 1.398 . S
C4466 H4454 0.950 . S
C4466 C4465 1.398 . S
C4466 C4467 1.391 . S
C4467 H4455 0.950 . S
C4467 C4463 1.393 . S
C4467 C4466 1.391 . S
H4468 C4476 0.950 . S
H4469 C4481 0.950 . S
H4470 C4478 0.950 . S
H4471 C4480 0.950 . S
H4472 C4482 0.950 . S
H4473 C4484 0.950 . S
H4474 C4486 0.950 . S
H4475 C4487 0.950 . S
C4476 H4468 0.950 . S
C4476 C4477 1.386 . S
C4476 C4478 1.391 . S
C4477 C4476 1.386 . S
C4477 C4481 1.393 . S
C4478 H4470 0.950 . S
C4478 C4476 1.391 . S
C4478 C4479 1.400 . S
C4479 C4478 1.400 . S
C4479 C4480 1.398 . S
C4479 C4485 1.491 . S
C4480 H4471 0.950 . S
C4480 C4479 1.398 . S
C4480 C4481 1.391 . S
C4481 H4469 0.950 . S
C4481 C4477 1.393 . S
C4481 C4480 1.391 . S
C4482 H4472 0.950 . S
C4482 C4483 1.386 . S
C4482 C4484 1.391 . S
C4483 C4482 1.386 . S
C4483 C4487 1.393 . S
C4484 H4473 0.950 . S
C4484 C4482 1.391 . S
C4484 C4485 1.400 . S
C4485 C4479 1.491 . S
C4485 C4484 1.400 . S
C4485 C4486 1.398 . S
C4486 H4474 0.950 . S
C4486 C4485 1.398 . S
C4486 C4487 1.391 . S
C4487 H4475 0.950 . S
C4487 C4483 1.393 . S
C4487 C4486 1.391 . S
H4488 C4496 0.950 . S
H4489 C4501 0.950 . S
H4490 C4498 0.996 . S
H4491 C4500 0.950 . S
H4492 C4502 0.950 . S
H4493 C4504 0.995 . S
H4494 C4506 0.950 . S
H4495 C4507 0.950 . S
C4496 H4488 0.950 . S
C4496 C4497 1.386 . S
C4496 C4498 1.391 . S
C4497 C4496 1.386 . S
C4497 C4501 1.393 . S
C4498 H4490 0.996 . S
C4498 C4496 1.391 . S
C4498 C4499 1.400 . S
C4499 C4498 1.400 . S
C4499 C4500 1.398 . S
C4499 C4505 1.491 1_456 S
C4500 H4491 0.950 . S
C4500 C4499 1.398 . S
C4500 C4501 1.391 . S
C4501 H4489 0.950 . S
C4501 C4497 1.393 . S
C4501 C4500 1.391 . S
C4502 H4492 0.950 . S
C4502 C4503 1.386 . S
C4502 C4504 1.391 . S
C4503 C4502 1.386 . S
C4503 C4507 1.393 . S
C4504 H4493 0.995 . S
C4504 C4502 1.391 . S
C4504 C4505 1.400 . S
C4505 C4499 1.491 1_654 S
C4505 C4504 1.400 . S
C4505 C4506 1.398 . S
C4506 H4494 0.950 . S
C4506 C4505 1.398 . S
C4506 C4507 1.391 . S
C4507 H4495 0.950 . S
C4507 C4503 1.393 . S
C4507 C4506 1.391 . S
H4508 C4516 0.950 . S
H4509 C4521 0.950 . S
H4510 C4518 0.950 . S
H4511 C4520 0.950 1_556 S
H4512 C4522 0.950 . S
H4513 C4524 0.950 . S
H4514 C4526 0.950 1_554 S
H4515 C4527 0.950 . S
C4516 H4508 0.950 . S
C4516 C4517 1.386 . S
C4516 C4518 1.391 . S
C4517 C4516 1.386 . S
C4517 C4521 1.393 . S
C4518 H4510 0.950 . S
C4518 C4516 1.391 . S
C4518 C4519 1.400 . S
C4519 C4518 1.400 . S
C4519 C4520 1.398 . S
C4519 C4525 1.491 1_554 S
C4520 H4511 0.950 1_554 S
C4520 C4519 1.398 . S
C4520 C4521 1.391 . S
C4521 H4509 0.950 . S
C4521 C4517 1.393 . S
C4521 C4520 1.391 . S
C4522 H4512 0.950 . S
C4522 C4523 1.386 . S
C4522 C4524 1.391 . S
C4523 C4522 1.386 . S
C4523 C4527 1.393 . S
C4524 H4513 0.950 . S
C4524 C4522 1.391 . S
C4524 C4525 1.400 . S
C4525 C4519 1.491 1_556 S
C4525 C4524 1.400 . S
C4525 C4526 1.398 . S
C4526 H4514 0.950 1_556 S
C4526 C4525 1.398 . S
C4526 C4527 1.391 . S
C4527 H4515 0.950 . S
C4527 C4523 1.393 . S
C4527 C4526 1.391 . S
H4528 C4536 0.950 . S
H4529 C4541 0.950 . S
H4530 C4538 0.950 . S
H4531 C4540 0.950 . S
H4532 C4542 0.950 . S
H4533 C4544 0.950 . S
H4534 C4546 0.950 . S
H4535 C4547 0.950 . S
C4536 H4528 0.950 . S
C4536 C4537 1.386 . S
C4536 C4538 1.391 . S
C4537 C4536 1.386 . S
C4537 C4541 1.393 . S
C4538 H4530 0.950 . S
C4538 C4536 1.391 . S
C4538 C4539 1.400 . S
C4539 C4538 1.400 . S
C4539 C4540 1.398 . S
C4539 C4545 1.491 1_544 S
C4540 H4531 0.950 . S
C4540 C4539 1.398 . S
C4540 C4541 1.391 . S
C4541 H4529 0.950 . S
C4541 C4537 1.393 . S
C4541 C4540 1.391 . S
C4542 H4532 0.950 . S
C4542 C4543 1.386 . S
C4542 C4544 1.391 . S
C4543 C4542 1.386 . S
C4543 C4547 1.393 . S
C4544 H4533 0.950 . S
C4544 C4542 1.391 . S
C4544 C4545 1.400 . S
C4545 C4539 1.491 1_566 S
C4545 C4544 1.400 . S
C4545 C4546 1.398 . S
C4546 H4534 0.950 . S
C4546 C4545 1.398 . S
C4546 C4547 1.391 . S
C4547 H4535 0.950 . S
C4547 C4543 1.393 . S
C4547 C4546 1.391 . S
H4548 C4556 0.950 . S
H4549 C4561 0.950 . S
H4550 C4558 0.830 1_545 S
H4551 C4560 0.950 1_554 S
H4552 C4562 0.950 . S
H4553 C4564 0.830 1_565 S
H4554 C4566 0.950 1_556 S
H4555 C4567 0.950 . S
C4556 H4548 0.950 . S
C4556 C4557 1.386 . S
C4556 C4558 1.478 . S
C4557 C4556 1.386 . S
C4557 C4561 1.393 . S
C4558 H4550 0.830 1_565 S
C4558 C4556 1.478 . S
C4558 C4559 1.445 . S
C4559 C4558 1.445 . S
C4559 C4560 1.398 . S
C4559 C4565 1.491 1_566 S
C4560 H4551 0.950 1_556 S
C4560 C4559 1.398 . S
C4560 C4561 1.391 . S
C4561 H4549 0.950 . S
C4561 C4557 1.393 . S
C4561 C4560 1.391 . S
C4562 H4552 0.950 . S
C4562 C4563 1.386 . S
C4562 C4564 1.478 . S
C4563 C4562 1.386 . S
C4563 C4567 1.393 . S
C4564 H4553 0.830 1_545 S
C4564 C4562 1.478 . S
C4564 C4565 1.444 . S
C4565 C4559 1.491 1_544 S
C4565 C4564 1.444 . S
C4565 C4566 1.398 . S
C4566 H4554 0.950 1_554 S
C4566 C4565 1.398 . S
C4566 C4567 1.391 . S
C4567 H4555 0.950 . S
C4567 C4563 1.393 . S
C4567 C4566 1.391 . S
H4568 C4576 0.950 . S
H4569 C4581 0.950 . S
H4570 C4578 0.950 1_655 S
H4571 C4580 0.950 1_554 S
H4572 C4582 0.950 . S
H4573 C4584 0.950 1_455 S
H4574 C4586 0.950 1_556 S
H4575 C4587 0.950 . S
C4576 H4568 0.950 . S
C4576 C4577 1.386 . S
C4576 C4578 1.391 . S
C4577 C4576 1.386 . S
C4577 C4581 1.393 . S
C4578 H4570 0.950 1_455 S
C4578 C4576 1.391 . S
C4578 C4579 1.400 . S
C4579 C4578 1.400 . S
C4579 C4580 1.398 . S
C4579 C4585 1.491 1_456 S
C4580 H4571 0.950 1_556 S
C4580 C4579 1.398 . S
C4580 C4581 1.391 . S
C4581 H4569 0.950 . S
C4581 C4577 1.393 . S
C4581 C4580 1.391 . S
C4582 H4572 0.950 . S
C4582 C4583 1.386 . S
C4582 C4584 1.391 . S
C4583 C4582 1.386 . S
C4583 C4587 1.393 . S
C4584 H4573 0.950 1_655 S
C4584 C4582 1.391 . S
C4584 C4585 1.400 . S
C4585 C4579 1.491 1_654 S
C4585 C4584 1.400 . S
C4585 C4586 1.398 . S
C4586 H4574 0.950 1_554 S
C4586 C4585 1.398 . S
C4586 C4587 1.391 . S
C4587 H4575 0.950 . S
C4587 C4583 1.393 . S
C4587 C4586 1.391 . S
H4588 C4596 0.950 . S
H4589 C4601 0.950 . S
H4590 C4598 0.950 . S
H4591 C4600 0.950 1_556 S
H4592 C4602 0.950 . S
H4593 C4604 0.950 . S
H4594 C4606 0.950 1_554 S
H4595 C4607 0.950 . S
C4596 H4588 0.950 . S
C4596 C4597 1.386 . S
C4596 C4598 1.391 . S
C4597 C4596 1.386 . S
C4597 C4601 1.393 . S
C4598 H4590 0.950 . S
C4598 C4596 1.391 . S
C4598 C4599 1.400 . S
C4599 C4598 1.400 . S
C4599 C4600 1.398 . S
C4599 C4605 1.491 1_554 S
C4600 H4591 0.950 1_554 S
C4600 C4599 1.398 . S
C4600 C4601 1.391 . S
C4601 H4589 0.950 . S
C4601 C4597 1.393 . S
C4601 C4600 1.391 . S
C4602 H4592 0.950 . S
C4602 C4603 1.386 . S
C4602 C4604 1.391 . S
C4603 C4602 1.386 . S
C4603 C4607 1.393 . S
C4604 H4593 0.950 . S
C4604 C4602 1.391 . S
C4604 C4605 1.400 . S
C4605 C4599 1.491 1_556 S
C4605 C4604 1.400 . S
C4605 C4606 1.398 . S
C4606 H4594 0.950 1_556 S
C4606 C4605 1.398 . S
C4606 C4607 1.391 . S
C4607 H4595 0.950 . S
C4607 C4603 1.393 . S
C4607 C4606 1.391 . S
C3177 C29 1.136 . S
C3183 C1017 1.140 . S
C3197 C108 1.149 . S
C3203 C841 1.128 . S
C3217 C909 1.127 . S
C3223 C205 1.151 . S
C3237 C321 1.150 . S
C3243 C636 1.126 . S
C3257 C724 1.128 . S
C3263 C409 1.150 . S
C3277 C489 1.143 . S
C3283 C548 1.135 . S
C3297 C2073 1.128 . S
C3303 C1085 1.149 . S
C3317 C1164 1.129 . S
C3323 C1897 1.149 . S
C3337 C1261 1.150 . S
C3343 C1985 1.127 . S
C3357 C1692 1.147 . S
C3363 C1377 1.129 . S
C3377 C1457 1.127 . S
C3383 C1789 1.151 . S
C3397 C1604 1.129 . S
C3403 C1545 1.147 . S
C3417 C2141 1.134 . S
C3423 C3129 1.142 . S
C3437 C2953 1.144 . S
C3443 C2220 1.132 . S
C3457 C3021 1.150 . S
C3463 C2317 1.128 . S
C3477 C2748 1.150 . S
C3483 C2433 1.128 . S
C3497 C2845 1.148 . S
C3503 C2513 1.130 . S
C3517 C2660 1.128 . S
C3523 C2601 1.148 . S
C3537 C57 1.101 . S
C3543 C381 1.084 . S
C3557 C460 1.082 . S
C3563 C137 1.098 . S
C3577 C233 1.079 . S
C3583 C293 1.087 . S
C3597 C577 1.082 . S
C3603 C937 1.099 . S
C3617 C665 1.081 . S
C3623 C988 1.079 . S
C3637 C753 1.082 . S
C3643 C812 1.098 . S
C3657 C1428 1.111 . S
C3663 C1113 1.100 . S
C3677 C1516 1.088 . S
C3683 C1193 1.105 . S
C3697 C1289 1.082 . S
C3703 C1349 1.097 . S
C3717 C1956 1.079 . S
C3723 C1633 1.080 . S
C3737 C2044 1.080 . S
C3743 C1721 1.095 . S
C3757 C1817 1.086 . S
C3763 C1868 1.078 . S
C3777 C2484 1.082 . S
C3783 C2169 1.098 . S
C3797 C2249 1.079 . S
C3803 C2572 1.091 . S
C3817 C2345 1.110 . S
C3823 C2405 1.097 . S
C3837 C3049 1.106 . S
C3843 C2689 1.105 . S
C3857 C2777 1.078 . S
C3863 C3100 1.087 . S
C3877 C2924 1.088 . S
C3883 C2873 1.077 . S
C3897 C2581 1.013 . S
C3903 C49 1.011 . S
C3917 C145 1.013 . S
C3923 C2396 1.014 . S
C3937 C225 1.015 . S
C3943 C2493 1.011 . S
C3957 C284 1.010 . S
C3963 C1201 1.014 . S
C3977 C1281 1.011 . S
C3983 C372 1.015 . S
C3997 C1105 1.013 . S
C4003 C469 1.014 . S
C4017 C557 1.012 . S
C4023 C2081 1.012 . S
C4037 C645 1.016 . S
C4043 C1905 1.012 . S
C4057 C733 1.011 . S
C4063 C1993 1.015 . S
C4077 C2757 1.013 . S
C4083 C849 1.012 . S
C4097 C2836 1.011 . S
C4103 C900 1.015 . S
C4117 C1025 1.017 . S
C4123 C2669 1.011 . S
C4137 C2257 1.013 . S
C4143 C1340 1.011 . S
C4157 C1437 1.013 . S
C4163 C2337 1.014 . S
C4177 C2161 1.013 . S
C4183 C1525 1.014 . S
C4197 C3137 1.012 . S
C4203 C1613 1.016 . S
C4217 C1701 1.013 . S
C4223 C2961 1.016 . S
C4237 C1780 1.017 . S
C4243 C3012 1.012 . S
C4257 C20 1.947 . S
C4263 C2609 1.948 . S
C4277 C2425 1.954 . S
C4283 C117 1.948 . S
C4297 C196 1.955 . S
C4303 C2521 1.949 . S
C4317 C1173 1.951 . S
C4323 C313 1.957 . S
C4337 C401 1.953 . S
C4343 C1252 1.947 . S
C4357 C497 1.955 . S
C4363 C1076 1.957 . S
C4377 C2053 1.952 . S
C4383 C585 1.947 . S
C4397 C673 1.947 . S
C4403 C1877 1.946 . S
C4417 C761 1.956 . S
C4423 C1965 1.953 . S
C4437 C821 1.954 . S
C4443 C2785 1.949 . S
C4457 C2865 1.948 . S
C4463 C929 1.953 . S
C4477 C997 1.955 . S
C4483 C2697 1.951 . S
C4497 C2229 1.949 . S
C4503 C1369 1.946 . S
C4517 C1465 1.954 . S
C4523 C2308 1.948 . S
C4537 C1553 1.955 . S
C4543 C2132 1.957 . S
C4557 C3109 1.950 . S
C4563 C1641 1.955 . S
C4577 C2933 1.951 . S
C4583 C1729 1.956 . S
C4597 C1809 1.953 . S
C4603 C3041 1.957 . S
