# Generated by pormake.
# Topology ana-e, (6)-cn, num edge types: 1
# Building blocks:
#     Node 0, Type 0, BuildingBlock: CUKXOW_clean_sbu_0, # of connection points: 6
#     Node 1, Type 0, BuildingBlock: CUKXOW_clean_sbu_0, # of connection points: 6
#     Node 2, Type 0, BuildingBlock: CUKXOW_clean_sbu_0, # of connection points: 6
#     Node 3, Type 0, BuildingBlock: CUKXOW_clean_sbu_0, # of connection points: 6
#     Node 4, Type 0, BuildingBlock: CUKXOW_clean_sbu_0, # of connection points: 6
#     Node 5, Type 0, BuildingBlock: CUKXOW_clean_sbu_0, # of connection points: 6
#     Node 6, Type 0, BuildingBlock: CUKXOW_clean_sbu_0, # of connection points: 6
#     Node 7, Type 0, BuildingBlock: CUKXOW_clean_sbu_0, # of connection points: 6
#     Node 8, Type 0, BuildingBlock: CUKXOW_clean_sbu_0, # of connection points: 6
#     Node 9, Type 0, BuildingBlock: CUKXOW_clean_sbu_0, # of connection points: 6
#     Node 10, Type 0, BuildingBlock: CUKXOW_clean_sbu_0, # of connection points: 6
#     Node 11, Type 0, BuildingBlock: CUKXOW_clean_sbu_0, # of connection points: 6
#     Node 12, Type 0, BuildingBlock: CUKXOW_clean_sbu_0, # of connection points: 6
#     Node 13, Type 0, BuildingBlock: CUKXOW_clean_sbu_0, # of connection points: 6
#     Node 14, Type 0, BuildingBlock: CUKXOW_clean_sbu_0, # of connection points: 6
#     Node 15, Type 0, BuildingBlock: CUKXOW_clean_sbu_0, # of connection points: 6
#     Node 16, Type 0, BuildingBlock: CUKXOW_clean_sbu_0, # of connection points: 6
#     Node 17, Type 0, BuildingBlock: CUKXOW_clean_sbu_0, # of connection points: 6
#     Node 18, Type 0, BuildingBlock: CUKXOW_clean_sbu_0, # of connection points: 6
#     Node 19, Type 0, BuildingBlock: CUKXOW_clean_sbu_0, # of connection points: 6
#     Node 20, Type 0, BuildingBlock: CUKXOW_clean_sbu_0, # of connection points: 6
#     Node 21, Type 0, BuildingBlock: CUKXOW_clean_sbu_0, # of connection points: 6
#     Node 22, Type 0, BuildingBlock: CUKXOW_clean_sbu_0, # of connection points: 6
#     Node 23, Type 0, BuildingBlock: CUKXOW_clean_sbu_0, # of connection points: 6
#     Node 24, Type 0, BuildingBlock: CUKXOW_clean_sbu_0, # of connection points: 6
#     Node 25, Type 0, BuildingBlock: CUKXOW_clean_sbu_0, # of connection points: 6
#     Node 26, Type 0, BuildingBlock: CUKXOW_clean_sbu_0, # of connection points: 6
#     Node 27, Type 0, BuildingBlock: CUKXOW_clean_sbu_0, # of connection points: 6
#     Node 28, Type 0, BuildingBlock: CUKXOW_clean_sbu_0, # of connection points: 6
#     Node 29, Type 0, BuildingBlock: CUKXOW_clean_sbu_0, # of connection points: 6
#     Node 30, Type 0, BuildingBlock: CUKXOW_clean_sbu_0, # of connection points: 6
#     Node 31, Type 0, BuildingBlock: CUKXOW_clean_sbu_0, # of connection points: 6
#     Node 32, Type 0, BuildingBlock: CUKXOW_clean_sbu_0, # of connection points: 6
#     Node 33, Type 0, BuildingBlock: CUKXOW_clean_sbu_0, # of connection points: 6
#     Node 34, Type 0, BuildingBlock: CUKXOW_clean_sbu_0, # of connection points: 6
#     Node 35, Type 0, BuildingBlock: CUKXOW_clean_sbu_0, # of connection points: 6
#     Node 36, Type 0, BuildingBlock: CUKXOW_clean_sbu_0, # of connection points: 6
#     Node 37, Type 0, BuildingBlock: CUKXOW_clean_sbu_0, # of connection points: 6
#     Node 38, Type 0, BuildingBlock: CUKXOW_clean_sbu_0, # of connection points: 6
#     Node 39, Type 0, BuildingBlock: CUKXOW_clean_sbu_0, # of connection points: 6
#     Node 40, Type 0, BuildingBlock: CUKXOW_clean_sbu_0, # of connection points: 6
#     Node 41, Type 0, BuildingBlock: CUKXOW_clean_sbu_0, # of connection points: 6
#     Node 42, Type 0, BuildingBlock: CUKXOW_clean_sbu_0, # of connection points: 6
#     Node 43, Type 0, BuildingBlock: CUKXOW_clean_sbu_0, # of connection points: 6
#     Node 44, Type 0, BuildingBlock: CUKXOW_clean_sbu_0, # of connection points: 6
#     Node 45, Type 0, BuildingBlock: CUKXOW_clean_sbu_0, # of connection points: 6
#     Node 46, Type 0, BuildingBlock: CUKXOW_clean_sbu_0, # of connection points: 6
#     Node 47, Type 0, BuildingBlock: CUKXOW_clean_sbu_0, # of connection points: 6
#     Node 48, Type 0, BuildingBlock: CUKXOW_clean_sbu_0, # of connection points: 6
#     Node 49, Type 0, BuildingBlock: CUKXOW_clean_sbu_0, # of connection points: 6
#     Node 50, Type 0, BuildingBlock: CUKXOW_clean_sbu_0, # of connection points: 6
#     Node 51, Type 0, BuildingBlock: CUKXOW_clean_sbu_0, # of connection points: 6
#     Node 52, Type 0, BuildingBlock: CUKXOW_clean_sbu_0, # of connection points: 6
#     Node 53, Type 0, BuildingBlock: CUKXOW_clean_sbu_0, # of connection points: 6
#     Node 54, Type 0, BuildingBlock: CUKXOW_clean_sbu_0, # of connection points: 6
#     Node 55, Type 0, BuildingBlock: CUKXOW_clean_sbu_0, # of connection points: 6
#     Node 56, Type 0, BuildingBlock: CUKXOW_clean_sbu_0, # of connection points: 6
#     Node 57, Type 0, BuildingBlock: CUKXOW_clean_sbu_0, # of connection points: 6
#     Node 58, Type 0, BuildingBlock: CUKXOW_clean_sbu_0, # of connection points: 6
#     Node 59, Type 0, BuildingBlock: CUKXOW_clean_sbu_0, # of connection points: 6
#     Node 60, Type 0, BuildingBlock: CUKXOW_clean_sbu_0, # of connection points: 6
#     Node 61, Type 0, BuildingBlock: CUKXOW_clean_sbu_0, # of connection points: 6
#     Node 62, Type 0, BuildingBlock: CUKXOW_clean_sbu_0, # of connection points: 6
#     Node 63, Type 0, BuildingBlock: CUKXOW_clean_sbu_0, # of connection points: 6
#     Node 64, Type 0, BuildingBlock: CUKXOW_clean_sbu_0, # of connection points: 6
#     Node 65, Type 0, BuildingBlock: CUKXOW_clean_sbu_0, # of connection points: 6
#     Node 66, Type 0, BuildingBlock: CUKXOW_clean_sbu_0, # of connection points: 6
#     Node 67, Type 0, BuildingBlock: CUKXOW_clean_sbu_0, # of connection points: 6
#     Node 68, Type 0, BuildingBlock: CUKXOW_clean_sbu_0, # of connection points: 6
#     Node 69, Type 0, BuildingBlock: CUKXOW_clean_sbu_0, # of connection points: 6
#     Node 70, Type 0, BuildingBlock: CUKXOW_clean_sbu_0, # of connection points: 6
#     Node 71, Type 0, BuildingBlock: CUKXOW_clean_sbu_0, # of connection points: 6
#     Node 72, Type 0, BuildingBlock: CUKXOW_clean_sbu_0, # of connection points: 6
#     Node 73, Type 0, BuildingBlock: CUKXOW_clean_sbu_0, # of connection points: 6
#     Node 74, Type 0, BuildingBlock: CUKXOW_clean_sbu_0, # of connection points: 6
#     Node 75, Type 0, BuildingBlock: CUKXOW_clean_sbu_0, # of connection points: 6
#     Node 76, Type 0, BuildingBlock: CUKXOW_clean_sbu_0, # of connection points: 6
#     Node 77, Type 0, BuildingBlock: CUKXOW_clean_sbu_0, # of connection points: 6
#     Node 78, Type 0, BuildingBlock: CUKXOW_clean_sbu_0, # of connection points: 6
#     Node 79, Type 0, BuildingBlock: CUKXOW_clean_sbu_0, # of connection points: 6
#     Node 80, Type 0, BuildingBlock: CUKXOW_clean_sbu_0, # of connection points: 6
#     Node 81, Type 0, BuildingBlock: CUKXOW_clean_sbu_0, # of connection points: 6
#     Node 82, Type 0, BuildingBlock: CUKXOW_clean_sbu_0, # of connection points: 6
#     Node 83, Type 0, BuildingBlock: CUKXOW_clean_sbu_0, # of connection points: 6
#     Node 84, Type 0, BuildingBlock: CUKXOW_clean_sbu_0, # of connection points: 6
#     Node 85, Type 0, BuildingBlock: CUKXOW_clean_sbu_0, # of connection points: 6
#     Node 86, Type 0, BuildingBlock: CUKXOW_clean_sbu_0, # of connection points: 6
#     Node 87, Type 0, BuildingBlock: CUKXOW_clean_sbu_0, # of connection points: 6
#     Node 88, Type 0, BuildingBlock: CUKXOW_clean_sbu_0, # of connection points: 6
#     Node 89, Type 0, BuildingBlock: CUKXOW_clean_sbu_0, # of connection points: 6
#     Node 90, Type 0, BuildingBlock: CUKXOW_clean_sbu_0, # of connection points: 6
#     Node 91, Type 0, BuildingBlock: CUKXOW_clean_sbu_0, # of connection points: 6
#     Node 92, Type 0, BuildingBlock: CUKXOW_clean_sbu_0, # of connection points: 6
#     Node 93, Type 0, BuildingBlock: CUKXOW_clean_sbu_0, # of connection points: 6
#     Node 94, Type 0, BuildingBlock: CUKXOW_clean_sbu_0, # of connection points: 6
#     Node 95, Type 0, BuildingBlock: CUKXOW_clean_sbu_0, # of connection points: 6
#     Edge 96, Type (0, 0), BuildingBlock: KIFKEQ_clean_linker_1, # of connection points: 2
#     Edge 97, Type (0, 0), BuildingBlock: KIFKEQ_clean_linker_1, # of connection points: 2
#     Edge 98, Type (0, 0), BuildingBlock: KIFKEQ_clean_linker_1, # of connection points: 2
#     Edge 99, Type (0, 0), BuildingBlock: KIFKEQ_clean_linker_1, # of connection points: 2
#     Edge 100, Type (0, 0), BuildingBlock: KIFKEQ_clean_linker_1, # of connection points: 2
#     Edge 101, Type (0, 0), BuildingBlock: KIFKEQ_clean_linker_1, # of connection points: 2
#     Edge 102, Type (0, 0), BuildingBlock: KIFKEQ_clean_linker_1, # of connection points: 2
#     Edge 103, Type (0, 0), BuildingBlock: KIFKEQ_clean_linker_1, # of connection points: 2
#     Edge 104, Type (0, 0), BuildingBlock: KIFKEQ_clean_linker_1, # of connection points: 2
#     Edge 105, Type (0, 0), BuildingBlock: KIFKEQ_clean_linker_1, # of connection points: 2
#     Edge 106, Type (0, 0), BuildingBlock: KIFKEQ_clean_linker_1, # of connection points: 2
#     Edge 107, Type (0, 0), BuildingBlock: KIFKEQ_clean_linker_1, # of connection points: 2
#     Edge 108, Type (0, 0), BuildingBlock: KIFKEQ_clean_linker_1, # of connection points: 2
#     Edge 109, Type (0, 0), BuildingBlock: KIFKEQ_clean_linker_1, # of connection points: 2
#     Edge 110, Type (0, 0), BuildingBlock: KIFKEQ_clean_linker_1, # of connection points: 2
#     Edge 111, Type (0, 0), BuildingBlock: KIFKEQ_clean_linker_1, # of connection points: 2
#     Edge 112, Type (0, 0), BuildingBlock: KIFKEQ_clean_linker_1, # of connection points: 2
#     Edge 113, Type (0, 0), BuildingBlock: KIFKEQ_clean_linker_1, # of connection points: 2
#     Edge 114, Type (0, 0), BuildingBlock: KIFKEQ_clean_linker_1, # of connection points: 2
#     Edge 115, Type (0, 0), BuildingBlock: KIFKEQ_clean_linker_1, # of connection points: 2
#     Edge 116, Type (0, 0), BuildingBlock: KIFKEQ_clean_linker_1, # of connection points: 2
#     Edge 117, Type (0, 0), BuildingBlock: KIFKEQ_clean_linker_1, # of connection points: 2
#     Edge 118, Type (0, 0), BuildingBlock: KIFKEQ_clean_linker_1, # of connection points: 2
#     Edge 119, Type (0, 0), BuildingBlock: KIFKEQ_clean_linker_1, # of connection points: 2
#     Edge 120, Type (0, 0), BuildingBlock: KIFKEQ_clean_linker_1, # of connection points: 2
#     Edge 121, Type (0, 0), BuildingBlock: KIFKEQ_clean_linker_1, # of connection points: 2
#     Edge 122, Type (0, 0), BuildingBlock: KIFKEQ_clean_linker_1, # of connection points: 2
#     Edge 123, Type (0, 0), BuildingBlock: KIFKEQ_clean_linker_1, # of connection points: 2
#     Edge 124, Type (0, 0), BuildingBlock: KIFKEQ_clean_linker_1, # of connection points: 2
#     Edge 125, Type (0, 0), BuildingBlock: KIFKEQ_clean_linker_1, # of connection points: 2
#     Edge 126, Type (0, 0), BuildingBlock: KIFKEQ_clean_linker_1, # of connection points: 2
#     Edge 127, Type (0, 0), BuildingBlock: KIFKEQ_clean_linker_1, # of connection points: 2
#     Edge 128, Type (0, 0), BuildingBlock: KIFKEQ_clean_linker_1, # of connection points: 2
#     Edge 129, Type (0, 0), BuildingBlock: KIFKEQ_clean_linker_1, # of connection points: 2
#     Edge 130, Type (0, 0), BuildingBlock: KIFKEQ_clean_linker_1, # of connection points: 2
#     Edge 131, Type (0, 0), BuildingBlock: KIFKEQ_clean_linker_1, # of connection points: 2
#     Edge 132, Type (0, 0), BuildingBlock: KIFKEQ_clean_linker_1, # of connection points: 2
#     Edge 133, Type (0, 0), BuildingBlock: KIFKEQ_clean_linker_1, # of connection points: 2
#     Edge 134, Type (0, 0), BuildingBlock: KIFKEQ_clean_linker_1, # of connection points: 2
#     Edge 135, Type (0, 0), BuildingBlock: KIFKEQ_clean_linker_1, # of connection points: 2
#     Edge 136, Type (0, 0), BuildingBlock: KIFKEQ_clean_linker_1, # of connection points: 2
#     Edge 137, Type (0, 0), BuildingBlock: KIFKEQ_clean_linker_1, # of connection points: 2
#     Edge 138, Type (0, 0), BuildingBlock: KIFKEQ_clean_linker_1, # of connection points: 2
#     Edge 139, Type (0, 0), BuildingBlock: KIFKEQ_clean_linker_1, # of connection points: 2
#     Edge 140, Type (0, 0), BuildingBlock: KIFKEQ_clean_linker_1, # of connection points: 2
#     Edge 141, Type (0, 0), BuildingBlock: KIFKEQ_clean_linker_1, # of connection points: 2
#     Edge 142, Type (0, 0), BuildingBlock: KIFKEQ_clean_linker_1, # of connection points: 2
#     Edge 143, Type (0, 0), BuildingBlock: KIFKEQ_clean_linker_1, # of connection points: 2
#     Edge 144, Type (0, 0), BuildingBlock: KIFKEQ_clean_linker_1, # of connection points: 2
#     Edge 145, Type (0, 0), BuildingBlock: KIFKEQ_clean_linker_1, # of connection points: 2
#     Edge 146, Type (0, 0), BuildingBlock: KIFKEQ_clean_linker_1, # of connection points: 2
#     Edge 147, Type (0, 0), BuildingBlock: KIFKEQ_clean_linker_1, # of connection points: 2
#     Edge 148, Type (0, 0), BuildingBlock: KIFKEQ_clean_linker_1, # of connection points: 2
#     Edge 149, Type (0, 0), BuildingBlock: KIFKEQ_clean_linker_1, # of connection points: 2
#     Edge 150, Type (0, 0), BuildingBlock: KIFKEQ_clean_linker_1, # of connection points: 2
#     Edge 151, Type (0, 0), BuildingBlock: KIFKEQ_clean_linker_1, # of connection points: 2
#     Edge 152, Type (0, 0), BuildingBlock: KIFKEQ_clean_linker_1, # of connection points: 2
#     Edge 153, Type (0, 0), BuildingBlock: KIFKEQ_clean_linker_1, # of connection points: 2
#     Edge 154, Type (0, 0), BuildingBlock: KIFKEQ_clean_linker_1, # of connection points: 2
#     Edge 155, Type (0, 0), BuildingBlock: KIFKEQ_clean_linker_1, # of connection points: 2
#     Edge 156, Type (0, 0), BuildingBlock: KIFKEQ_clean_linker_1, # of connection points: 2
#     Edge 157, Type (0, 0), BuildingBlock: KIFKEQ_clean_linker_1, # of connection points: 2
#     Edge 158, Type (0, 0), BuildingBlock: KIFKEQ_clean_linker_1, # of connection points: 2
#     Edge 159, Type (0, 0), BuildingBlock: KIFKEQ_clean_linker_1, # of connection points: 2
#     Edge 160, Type (0, 0), BuildingBlock: KIFKEQ_clean_linker_1, # of connection points: 2
#     Edge 161, Type (0, 0), BuildingBlock: KIFKEQ_clean_linker_1, # of connection points: 2
#     Edge 162, Type (0, 0), BuildingBlock: KIFKEQ_clean_linker_1, # of connection points: 2
#     Edge 163, Type (0, 0), BuildingBlock: KIFKEQ_clean_linker_1, # of connection points: 2
#     Edge 164, Type (0, 0), BuildingBlock: KIFKEQ_clean_linker_1, # of connection points: 2
#     Edge 165, Type (0, 0), BuildingBlock: KIFKEQ_clean_linker_1, # of connection points: 2
#     Edge 166, Type (0, 0), BuildingBlock: KIFKEQ_clean_linker_1, # of connection points: 2
#     Edge 167, Type (0, 0), BuildingBlock: KIFKEQ_clean_linker_1, # of connection points: 2
#     Edge 168, Type (0, 0), BuildingBlock: KIFKEQ_clean_linker_1, # of connection points: 2
#     Edge 169, Type (0, 0), BuildingBlock: KIFKEQ_clean_linker_1, # of connection points: 2
#     Edge 170, Type (0, 0), BuildingBlock: KIFKEQ_clean_linker_1, # of connection points: 2
#     Edge 171, Type (0, 0), BuildingBlock: KIFKEQ_clean_linker_1, # of connection points: 2
#     Edge 172, Type (0, 0), BuildingBlock: KIFKEQ_clean_linker_1, # of connection points: 2
#     Edge 173, Type (0, 0), BuildingBlock: KIFKEQ_clean_linker_1, # of connection points: 2
#     Edge 174, Type (0, 0), BuildingBlock: KIFKEQ_clean_linker_1, # of connection points: 2
#     Edge 175, Type (0, 0), BuildingBlock: KIFKEQ_clean_linker_1, # of connection points: 2
#     Edge 176, Type (0, 0), BuildingBlock: KIFKEQ_clean_linker_1, # of connection points: 2
#     Edge 177, Type (0, 0), BuildingBlock: KIFKEQ_clean_linker_1, # of connection points: 2
#     Edge 178, Type (0, 0), BuildingBlock: KIFKEQ_clean_linker_1, # of connection points: 2
#     Edge 179, Type (0, 0), BuildingBlock: KIFKEQ_clean_linker_1, # of connection points: 2
#     Edge 180, Type (0, 0), BuildingBlock: KIFKEQ_clean_linker_1, # of connection points: 2
#     Edge 181, Type (0, 0), BuildingBlock: KIFKEQ_clean_linker_1, # of connection points: 2
#     Edge 182, Type (0, 0), BuildingBlock: KIFKEQ_clean_linker_1, # of connection points: 2
#     Edge 183, Type (0, 0), BuildingBlock: KIFKEQ_clean_linker_1, # of connection points: 2
#     Edge 184, Type (0, 0), BuildingBlock: KIFKEQ_clean_linker_1, # of connection points: 2
#     Edge 185, Type (0, 0), BuildingBlock: KIFKEQ_clean_linker_1, # of connection points: 2
#     Edge 186, Type (0, 0), BuildingBlock: KIFKEQ_clean_linker_1, # of connection points: 2
#     Edge 187, Type (0, 0), BuildingBlock: KIFKEQ_clean_linker_1, # of connection points: 2
#     Edge 188, Type (0, 0), BuildingBlock: KIFKEQ_clean_linker_1, # of connection points: 2
#     Edge 189, Type (0, 0), BuildingBlock: KIFKEQ_clean_linker_1, # of connection points: 2
#     Edge 190, Type (0, 0), BuildingBlock: KIFKEQ_clean_linker_1, # of connection points: 2
#     Edge 191, Type (0, 0), BuildingBlock: KIFKEQ_clean_linker_1, # of connection points: 2
#     Edge 192, Type (0, 0), BuildingBlock: KIFKEQ_clean_linker_1, # of connection points: 2
#     Edge 193, Type (0, 0), BuildingBlock: KIFKEQ_clean_linker_1, # of connection points: 2
#     Edge 194, Type (0, 0), BuildingBlock: KIFKEQ_clean_linker_1, # of connection points: 2
#     Edge 195, Type (0, 0), BuildingBlock: KIFKEQ_clean_linker_1, # of connection points: 2
#     Edge 196, Type (0, 0), BuildingBlock: KIFKEQ_clean_linker_1, # of connection points: 2
#     Edge 197, Type (0, 0), BuildingBlock: KIFKEQ_clean_linker_1, # of connection points: 2
#     Edge 198, Type (0, 0), BuildingBlock: KIFKEQ_clean_linker_1, # of connection points: 2
#     Edge 199, Type (0, 0), BuildingBlock: KIFKEQ_clean_linker_1, # of connection points: 2
#     Edge 200, Type (0, 0), BuildingBlock: KIFKEQ_clean_linker_1, # of connection points: 2
#     Edge 201, Type (0, 0), BuildingBlock: KIFKEQ_clean_linker_1, # of connection points: 2
#     Edge 202, Type (0, 0), BuildingBlock: KIFKEQ_clean_linker_1, # of connection points: 2
#     Edge 203, Type (0, 0), BuildingBlock: KIFKEQ_clean_linker_1, # of connection points: 2
#     Edge 204, Type (0, 0), BuildingBlock: KIFKEQ_clean_linker_1, # of connection points: 2
#     Edge 205, Type (0, 0), BuildingBlock: KIFKEQ_clean_linker_1, # of connection points: 2
#     Edge 206, Type (0, 0), BuildingBlock: KIFKEQ_clean_linker_1, # of connection points: 2
#     Edge 207, Type (0, 0), BuildingBlock: KIFKEQ_clean_linker_1, # of connection points: 2
#     Edge 208, Type (0, 0), BuildingBlock: KIFKEQ_clean_linker_1, # of connection points: 2
#     Edge 209, Type (0, 0), BuildingBlock: KIFKEQ_clean_linker_1, # of connection points: 2
#     Edge 210, Type (0, 0), BuildingBlock: KIFKEQ_clean_linker_1, # of connection points: 2
#     Edge 211, Type (0, 0), BuildingBlock: KIFKEQ_clean_linker_1, # of connection points: 2
#     Edge 212, Type (0, 0), BuildingBlock: KIFKEQ_clean_linker_1, # of connection points: 2
#     Edge 213, Type (0, 0), BuildingBlock: KIFKEQ_clean_linker_1, # of connection points: 2
#     Edge 214, Type (0, 0), BuildingBlock: KIFKEQ_clean_linker_1, # of connection points: 2
#     Edge 215, Type (0, 0), BuildingBlock: KIFKEQ_clean_linker_1, # of connection points: 2
#     Edge 216, Type (0, 0), BuildingBlock: KIFKEQ_clean_linker_1, # of connection points: 2
#     Edge 217, Type (0, 0), BuildingBlock: KIFKEQ_clean_linker_1, # of connection points: 2
#     Edge 218, Type (0, 0), BuildingBlock: KIFKEQ_clean_linker_1, # of connection points: 2
#     Edge 219, Type (0, 0), BuildingBlock: KIFKEQ_clean_linker_1, # of connection points: 2
#     Edge 220, Type (0, 0), BuildingBlock: KIFKEQ_clean_linker_1, # of connection points: 2
#     Edge 221, Type (0, 0), BuildingBlock: KIFKEQ_clean_linker_1, # of connection points: 2
#     Edge 222, Type (0, 0), BuildingBlock: KIFKEQ_clean_linker_1, # of connection points: 2
#     Edge 223, Type (0, 0), BuildingBlock: KIFKEQ_clean_linker_1, # of connection points: 2
#     Edge 224, Type (0, 0), BuildingBlock: KIFKEQ_clean_linker_1, # of connection points: 2
#     Edge 225, Type (0, 0), BuildingBlock: KIFKEQ_clean_linker_1, # of connection points: 2
#     Edge 226, Type (0, 0), BuildingBlock: KIFKEQ_clean_linker_1, # of connection points: 2
#     Edge 227, Type (0, 0), BuildingBlock: KIFKEQ_clean_linker_1, # of connection points: 2
#     Edge 228, Type (0, 0), BuildingBlock: KIFKEQ_clean_linker_1, # of connection points: 2
#     Edge 229, Type (0, 0), BuildingBlock: KIFKEQ_clean_linker_1, # of connection points: 2
#     Edge 230, Type (0, 0), BuildingBlock: KIFKEQ_clean_linker_1, # of connection points: 2
#     Edge 231, Type (0, 0), BuildingBlock: KIFKEQ_clean_linker_1, # of connection points: 2
#     Edge 232, Type (0, 0), BuildingBlock: KIFKEQ_clean_linker_1, # of connection points: 2
#     Edge 233, Type (0, 0), BuildingBlock: KIFKEQ_clean_linker_1, # of connection points: 2
#     Edge 234, Type (0, 0), BuildingBlock: KIFKEQ_clean_linker_1, # of connection points: 2
#     Edge 235, Type (0, 0), BuildingBlock: KIFKEQ_clean_linker_1, # of connection points: 2
#     Edge 236, Type (0, 0), BuildingBlock: KIFKEQ_clean_linker_1, # of connection points: 2
#     Edge 237, Type (0, 0), BuildingBlock: KIFKEQ_clean_linker_1, # of connection points: 2
#     Edge 238, Type (0, 0), BuildingBlock: KIFKEQ_clean_linker_1, # of connection points: 2
#     Edge 239, Type (0, 0), BuildingBlock: KIFKEQ_clean_linker_1, # of connection points: 2
#     Edge 240, Type (0, 0), BuildingBlock: KIFKEQ_clean_linker_1, # of connection points: 2
#     Edge 241, Type (0, 0), BuildingBlock: KIFKEQ_clean_linker_1, # of connection points: 2
#     Edge 242, Type (0, 0), BuildingBlock: KIFKEQ_clean_linker_1, # of connection points: 2
#     Edge 243, Type (0, 0), BuildingBlock: KIFKEQ_clean_linker_1, # of connection points: 2
#     Edge 244, Type (0, 0), BuildingBlock: KIFKEQ_clean_linker_1, # of connection points: 2
#     Edge 245, Type (0, 0), BuildingBlock: KIFKEQ_clean_linker_1, # of connection points: 2
#     Edge 246, Type (0, 0), BuildingBlock: KIFKEQ_clean_linker_1, # of connection points: 2
#     Edge 247, Type (0, 0), BuildingBlock: KIFKEQ_clean_linker_1, # of connection points: 2
#     Edge 248, Type (0, 0), BuildingBlock: KIFKEQ_clean_linker_1, # of connection points: 2
#     Edge 249, Type (0, 0), BuildingBlock: KIFKEQ_clean_linker_1, # of connection points: 2
#     Edge 250, Type (0, 0), BuildingBlock: KIFKEQ_clean_linker_1, # of connection points: 2
#     Edge 251, Type (0, 0), BuildingBlock: KIFKEQ_clean_linker_1, # of connection points: 2
#     Edge 252, Type (0, 0), BuildingBlock: KIFKEQ_clean_linker_1, # of connection points: 2
#     Edge 253, Type (0, 0), BuildingBlock: KIFKEQ_clean_linker_1, # of connection points: 2
#     Edge 254, Type (0, 0), BuildingBlock: KIFKEQ_clean_linker_1, # of connection points: 2
#     Edge 255, Type (0, 0), BuildingBlock: KIFKEQ_clean_linker_1, # of connection points: 2
#     Edge 256, Type (0, 0), BuildingBlock: KIFKEQ_clean_linker_1, # of connection points: 2
#     Edge 257, Type (0, 0), BuildingBlock: KIFKEQ_clean_linker_1, # of connection points: 2
#     Edge 258, Type (0, 0), BuildingBlock: KIFKEQ_clean_linker_1, # of connection points: 2
#     Edge 259, Type (0, 0), BuildingBlock: KIFKEQ_clean_linker_1, # of connection points: 2
#     Edge 260, Type (0, 0), BuildingBlock: KIFKEQ_clean_linker_1, # of connection points: 2
#     Edge 261, Type (0, 0), BuildingBlock: KIFKEQ_clean_linker_1, # of connection points: 2
#     Edge 262, Type (0, 0), BuildingBlock: KIFKEQ_clean_linker_1, # of connection points: 2
#     Edge 263, Type (0, 0), BuildingBlock: KIFKEQ_clean_linker_1, # of connection points: 2
#     Edge 264, Type (0, 0), BuildingBlock: KIFKEQ_clean_linker_1, # of connection points: 2
#     Edge 265, Type (0, 0), BuildingBlock: KIFKEQ_clean_linker_1, # of connection points: 2
#     Edge 266, Type (0, 0), BuildingBlock: KIFKEQ_clean_linker_1, # of connection points: 2
#     Edge 267, Type (0, 0), BuildingBlock: KIFKEQ_clean_linker_1, # of connection points: 2
#     Edge 268, Type (0, 0), BuildingBlock: KIFKEQ_clean_linker_1, # of connection points: 2
#     Edge 269, Type (0, 0), BuildingBlock: KIFKEQ_clean_linker_1, # of connection points: 2
#     Edge 270, Type (0, 0), BuildingBlock: KIFKEQ_clean_linker_1, # of connection points: 2
#     Edge 271, Type (0, 0), BuildingBlock: KIFKEQ_clean_linker_1, # of connection points: 2
#     Edge 272, Type (0, 0), BuildingBlock: KIFKEQ_clean_linker_1, # of connection points: 2
#     Edge 273, Type (0, 0), BuildingBlock: KIFKEQ_clean_linker_1, # of connection points: 2
#     Edge 274, Type (0, 0), BuildingBlock: KIFKEQ_clean_linker_1, # of connection points: 2
#     Edge 275, Type (0, 0), BuildingBlock: KIFKEQ_clean_linker_1, # of connection points: 2
#     Edge 276, Type (0, 0), BuildingBlock: KIFKEQ_clean_linker_1, # of connection points: 2
#     Edge 277, Type (0, 0), BuildingBlock: KIFKEQ_clean_linker_1, # of connection points: 2
#     Edge 278, Type (0, 0), BuildingBlock: KIFKEQ_clean_linker_1, # of connection points: 2
#     Edge 279, Type (0, 0), BuildingBlock: KIFKEQ_clean_linker_1, # of connection points: 2
#     Edge 280, Type (0, 0), BuildingBlock: KIFKEQ_clean_linker_1, # of connection points: 2
#     Edge 281, Type (0, 0), BuildingBlock: KIFKEQ_clean_linker_1, # of connection points: 2
#     Edge 282, Type (0, 0), BuildingBlock: KIFKEQ_clean_linker_1, # of connection points: 2
#     Edge 283, Type (0, 0), BuildingBlock: KIFKEQ_clean_linker_1, # of connection points: 2
#     Edge 284, Type (0, 0), BuildingBlock: KIFKEQ_clean_linker_1, # of connection points: 2
#     Edge 285, Type (0, 0), BuildingBlock: KIFKEQ_clean_linker_1, # of connection points: 2
#     Edge 286, Type (0, 0), BuildingBlock: KIFKEQ_clean_linker_1, # of connection points: 2
#     Edge 287, Type (0, 0), BuildingBlock: KIFKEQ_clean_linker_1, # of connection points: 2
#     Edge 288, Type (0, 0), BuildingBlock: KIFKEQ_clean_linker_1, # of connection points: 2
#     Edge 289, Type (0, 0), BuildingBlock: KIFKEQ_clean_linker_1, # of connection points: 2
#     Edge 290, Type (0, 0), BuildingBlock: KIFKEQ_clean_linker_1, # of connection points: 2
#     Edge 291, Type (0, 0), BuildingBlock: KIFKEQ_clean_linker_1, # of connection points: 2
#     Edge 292, Type (0, 0), BuildingBlock: KIFKEQ_clean_linker_1, # of connection points: 2
#     Edge 293, Type (0, 0), BuildingBlock: KIFKEQ_clean_linker_1, # of connection points: 2
#     Edge 294, Type (0, 0), BuildingBlock: KIFKEQ_clean_linker_1, # of connection points: 2
#     Edge 295, Type (0, 0), BuildingBlock: KIFKEQ_clean_linker_1, # of connection points: 2
#     Edge 296, Type (0, 0), BuildingBlock: KIFKEQ_clean_linker_1, # of connection points: 2
#     Edge 297, Type (0, 0), BuildingBlock: KIFKEQ_clean_linker_1, # of connection points: 2
#     Edge 298, Type (0, 0), BuildingBlock: KIFKEQ_clean_linker_1, # of connection points: 2
#     Edge 299, Type (0, 0), BuildingBlock: KIFKEQ_clean_linker_1, # of connection points: 2
#     Edge 300, Type (0, 0), BuildingBlock: KIFKEQ_clean_linker_1, # of connection points: 2
#     Edge 301, Type (0, 0), BuildingBlock: KIFKEQ_clean_linker_1, # of connection points: 2
#     Edge 302, Type (0, 0), BuildingBlock: KIFKEQ_clean_linker_1, # of connection points: 2
#     Edge 303, Type (0, 0), BuildingBlock: KIFKEQ_clean_linker_1, # of connection points: 2
#     Edge 304, Type (0, 0), BuildingBlock: KIFKEQ_clean_linker_1, # of connection points: 2
#     Edge 305, Type (0, 0), BuildingBlock: KIFKEQ_clean_linker_1, # of connection points: 2
#     Edge 306, Type (0, 0), BuildingBlock: KIFKEQ_clean_linker_1, # of connection points: 2
#     Edge 307, Type (0, 0), BuildingBlock: KIFKEQ_clean_linker_1, # of connection points: 2
#     Edge 308, Type (0, 0), BuildingBlock: KIFKEQ_clean_linker_1, # of connection points: 2
#     Edge 309, Type (0, 0), BuildingBlock: KIFKEQ_clean_linker_1, # of connection points: 2
#     Edge 310, Type (0, 0), BuildingBlock: KIFKEQ_clean_linker_1, # of connection points: 2
#     Edge 311, Type (0, 0), BuildingBlock: KIFKEQ_clean_linker_1, # of connection points: 2
#     Edge 312, Type (0, 0), BuildingBlock: KIFKEQ_clean_linker_1, # of connection points: 2
#     Edge 313, Type (0, 0), BuildingBlock: KIFKEQ_clean_linker_1, # of connection points: 2
#     Edge 314, Type (0, 0), BuildingBlock: KIFKEQ_clean_linker_1, # of connection points: 2
#     Edge 315, Type (0, 0), BuildingBlock: KIFKEQ_clean_linker_1, # of connection points: 2
#     Edge 316, Type (0, 0), BuildingBlock: KIFKEQ_clean_linker_1, # of connection points: 2
#     Edge 317, Type (0, 0), BuildingBlock: KIFKEQ_clean_linker_1, # of connection points: 2
#     Edge 318, Type (0, 0), BuildingBlock: KIFKEQ_clean_linker_1, # of connection points: 2
#     Edge 319, Type (0, 0), BuildingBlock: KIFKEQ_clean_linker_1, # of connection points: 2
#     Edge 320, Type (0, 0), BuildingBlock: KIFKEQ_clean_linker_1, # of connection points: 2
#     Edge 321, Type (0, 0), BuildingBlock: KIFKEQ_clean_linker_1, # of connection points: 2
#     Edge 322, Type (0, 0), BuildingBlock: KIFKEQ_clean_linker_1, # of connection points: 2
#     Edge 323, Type (0, 0), BuildingBlock: KIFKEQ_clean_linker_1, # of connection points: 2
#     Edge 324, Type (0, 0), BuildingBlock: KIFKEQ_clean_linker_1, # of connection points: 2
#     Edge 325, Type (0, 0), BuildingBlock: KIFKEQ_clean_linker_1, # of connection points: 2
#     Edge 326, Type (0, 0), BuildingBlock: KIFKEQ_clean_linker_1, # of connection points: 2
#     Edge 327, Type (0, 0), BuildingBlock: KIFKEQ_clean_linker_1, # of connection points: 2
#     Edge 328, Type (0, 0), BuildingBlock: KIFKEQ_clean_linker_1, # of connection points: 2
#     Edge 329, Type (0, 0), BuildingBlock: KIFKEQ_clean_linker_1, # of connection points: 2
#     Edge 330, Type (0, 0), BuildingBlock: KIFKEQ_clean_linker_1, # of connection points: 2
#     Edge 331, Type (0, 0), BuildingBlock: KIFKEQ_clean_linker_1, # of connection points: 2
#     Edge 332, Type (0, 0), BuildingBlock: KIFKEQ_clean_linker_1, # of connection points: 2
#     Edge 333, Type (0, 0), BuildingBlock: KIFKEQ_clean_linker_1, # of connection points: 2
#     Edge 334, Type (0, 0), BuildingBlock: KIFKEQ_clean_linker_1, # of connection points: 2
#     Edge 335, Type (0, 0), BuildingBlock: KIFKEQ_clean_linker_1, # of connection points: 2
#     Edge 336, Type (0, 0), BuildingBlock: KIFKEQ_clean_linker_1, # of connection points: 2
#     Edge 337, Type (0, 0), BuildingBlock: KIFKEQ_clean_linker_1, # of connection points: 2
#     Edge 338, Type (0, 0), BuildingBlock: KIFKEQ_clean_linker_1, # of connection points: 2
#     Edge 339, Type (0, 0), BuildingBlock: KIFKEQ_clean_linker_1, # of connection points: 2
#     Edge 340, Type (0, 0), BuildingBlock: KIFKEQ_clean_linker_1, # of connection points: 2
#     Edge 341, Type (0, 0), BuildingBlock: KIFKEQ_clean_linker_1, # of connection points: 2
#     Edge 342, Type (0, 0), BuildingBlock: KIFKEQ_clean_linker_1, # of connection points: 2
#     Edge 343, Type (0, 0), BuildingBlock: KIFKEQ_clean_linker_1, # of connection points: 2
#     Edge 344, Type (0, 0), BuildingBlock: KIFKEQ_clean_linker_1, # of connection points: 2
#     Edge 345, Type (0, 0), BuildingBlock: KIFKEQ_clean_linker_1, # of connection points: 2
#     Edge 346, Type (0, 0), BuildingBlock: KIFKEQ_clean_linker_1, # of connection points: 2
#     Edge 347, Type (0, 0), BuildingBlock: KIFKEQ_clean_linker_1, # of connection points: 2
#     Edge 348, Type (0, 0), BuildingBlock: KIFKEQ_clean_linker_1, # of connection points: 2
#     Edge 349, Type (0, 0), BuildingBlock: KIFKEQ_clean_linker_1, # of connection points: 2
#     Edge 350, Type (0, 0), BuildingBlock: KIFKEQ_clean_linker_1, # of connection points: 2
#     Edge 351, Type (0, 0), BuildingBlock: KIFKEQ_clean_linker_1, # of connection points: 2
#     Edge 352, Type (0, 0), BuildingBlock: KIFKEQ_clean_linker_1, # of connection points: 2
#     Edge 353, Type (0, 0), BuildingBlock: KIFKEQ_clean_linker_1, # of connection points: 2
#     Edge 354, Type (0, 0), BuildingBlock: KIFKEQ_clean_linker_1, # of connection points: 2
#     Edge 355, Type (0, 0), BuildingBlock: KIFKEQ_clean_linker_1, # of connection points: 2
#     Edge 356, Type (0, 0), BuildingBlock: KIFKEQ_clean_linker_1, # of connection points: 2
#     Edge 357, Type (0, 0), BuildingBlock: KIFKEQ_clean_linker_1, # of connection points: 2
#     Edge 358, Type (0, 0), BuildingBlock: KIFKEQ_clean_linker_1, # of connection points: 2
#     Edge 359, Type (0, 0), BuildingBlock: KIFKEQ_clean_linker_1, # of connection points: 2
#     Edge 360, Type (0, 0), BuildingBlock: KIFKEQ_clean_linker_1, # of connection points: 2
#     Edge 361, Type (0, 0), BuildingBlock: KIFKEQ_clean_linker_1, # of connection points: 2
#     Edge 362, Type (0, 0), BuildingBlock: KIFKEQ_clean_linker_1, # of connection points: 2
#     Edge 363, Type (0, 0), BuildingBlock: KIFKEQ_clean_linker_1, # of connection points: 2
#     Edge 364, Type (0, 0), BuildingBlock: KIFKEQ_clean_linker_1, # of connection points: 2
#     Edge 365, Type (0, 0), BuildingBlock: KIFKEQ_clean_linker_1, # of connection points: 2
#     Edge 366, Type (0, 0), BuildingBlock: KIFKEQ_clean_linker_1, # of connection points: 2
#     Edge 367, Type (0, 0), BuildingBlock: KIFKEQ_clean_linker_1, # of connection points: 2
#     Edge 368, Type (0, 0), BuildingBlock: KIFKEQ_clean_linker_1, # of connection points: 2
#     Edge 369, Type (0, 0), BuildingBlock: KIFKEQ_clean_linker_1, # of connection points: 2
#     Edge 370, Type (0, 0), BuildingBlock: KIFKEQ_clean_linker_1, # of connection points: 2
#     Edge 371, Type (0, 0), BuildingBlock: KIFKEQ_clean_linker_1, # of connection points: 2
#     Edge 372, Type (0, 0), BuildingBlock: KIFKEQ_clean_linker_1, # of connection points: 2
#     Edge 373, Type (0, 0), BuildingBlock: KIFKEQ_clean_linker_1, # of connection points: 2
#     Edge 374, Type (0, 0), BuildingBlock: KIFKEQ_clean_linker_1, # of connection points: 2
#     Edge 375, Type (0, 0), BuildingBlock: KIFKEQ_clean_linker_1, # of connection points: 2
#     Edge 376, Type (0, 0), BuildingBlock: KIFKEQ_clean_linker_1, # of connection points: 2
#     Edge 377, Type (0, 0), BuildingBlock: KIFKEQ_clean_linker_1, # of connection points: 2
#     Edge 378, Type (0, 0), BuildingBlock: KIFKEQ_clean_linker_1, # of connection points: 2
#     Edge 379, Type (0, 0), BuildingBlock: KIFKEQ_clean_linker_1, # of connection points: 2
#     Edge 380, Type (0, 0), BuildingBlock: KIFKEQ_clean_linker_1, # of connection points: 2
#     Edge 381, Type (0, 0), BuildingBlock: KIFKEQ_clean_linker_1, # of connection points: 2
#     Edge 382, Type (0, 0), BuildingBlock: KIFKEQ_clean_linker_1, # of connection points: 2
#     Edge 383, Type (0, 0), BuildingBlock: KIFKEQ_clean_linker_1, # of connection points: 2
# Relax obj value: 0.205
# Max RMSD: 0.225
# Mean RMSD: 0.202
data_MOF--net-ana-e--node1-CUKXOW_clean_sbu_0--edge1-KIFKEQ_clean_linker_1
_symmetry_space_group_name_H-M    P1
_symmetry_Int_Tables_number       1
_symmetry_cell_setting            triclinic
loop_
_symmetry_equiv_pos_as_xyz
'x, y, z'
_cell_length_a     81.735086
_cell_length_b     80.643248
_cell_length_c     80.534657
_cell_angle_alpha  90.194226
_cell_angle_beta   90.656837
_cell_angle_gamma 92.029788
loop_
_atom_site_label
_atom_site_type_symbol
_atom_site_fract_x
_atom_site_fract_y
_atom_site_fract_z
_atom_type_partial_charge
Tb0 Tb 0.04515 0.13455 0.38227 0.0
C1 C 0.01916 0.11055 0.36499 0.0
Tb2 Tb 0.0391 0.13832 0.34471 0.0
O3 O 0.03261 0.15764 0.38656 0.0
O4 O 0.02574 0.14242 0.36663 0.0
O5 O 0.02929 0.1126 0.37783 0.0
C6 C 0.02468 0.144 0.31495 0.0
O7 O 0.01991 0.12036 0.35182 0.0
C8 C 0.0631 0.11813 0.35288 0.0
C9 C 0.06537 0.16249 0.36338 0.0
O10 O 0.03354 0.13149 0.31875 0.0
O11 O 0.02497 0.15406 0.32766 0.0
O12 O 0.05465 0.11728 0.33911 0.0
O13 O 0.05861 0.13088 0.36033 0.0
O14 O 0.05555 0.1604 0.34997 0.0
O15 O 0.06465 0.15231 0.37633 0.0
C16 C 0.05243 0.12616 0.41366 0.0
O17 O 0.05847 0.11948 0.40044 0.0
O18 O 0.04252 0.13752 0.40911 0.0
C19 C 0.0233 0.15618 0.37345 0.0
Tb20 Tb 0.11681 0.77121 0.65227 0.0
C21 C 0.13764 0.74465 0.63501 0.0
Tb22 Tb 0.11134 0.766 0.61604 0.0
O23 O 0.11014 0.74543 0.6581 0.0
O24 O 0.09967 0.75694 0.63765 0.0
O25 O 0.13752 0.75519 0.64773 0.0
C26 C 0.10857 0.75397 0.58525 0.0
O27 O 0.12756 0.74601 0.62217 0.0
C28 C 0.12559 0.7949 0.62304 0.0
C29 C 0.08681 0.7881 0.63393 0.0
O30 O 0.12155 0.76126 0.59166 0.0
O31 O 0.09698 0.7536 0.59615 0.0
O32 O 0.11642 0.79176 0.61013 0.0
O33 O 0.12823 0.78143 0.63065 0.0
O34 O 0.08864 0.77812 0.62101 0.0
O35 O 0.0976 0.7889 0.64643 0.0
C36 C 0.12024 0.78225 0.68349 0.0
O37 O 0.10673 0.77698 0.67645 0.0
O38 O 0.13205 0.78158 0.67285 0.0
C39 C 0.10099 0.74326 0.64499 0.0
Tb40 Tb 0.50824 0.87485 0.88999 0.0
C41 C 0.47328 0.86053 0.88003 0.0
Tb42 Tb 0.48539 0.8978 0.87645 0.0
O43 O 0.50695 0.88576 0.91456 0.0
O44 O 0.48615 0.88458 0.89938 0.0
O45 O 0.48866 0.85713 0.88314 0.0
C46 C 0.4611 0.91858 0.8702 0.0
O47 O 0.46874 0.87603 0.87854 0.0
C48 C 0.50303 0.88323 0.85336 0.0
C49 C 0.52134 0.91112 0.88712 0.0
O50 O 0.46722 0.91541 0.88475 0.0
O51 O 0.46959 0.91099 0.85925 0.0
O52 O 0.48776 0.88673 0.85165 0.0
O53 O 0.50773 0.88838 0.86747 0.0
O54 O 0.50596 0.91539 0.88383 0.0
O55 O 0.52544 0.89543 0.88763 0.0
C56 C 0.52707 0.84917 0.89457 0.0
O57 O 0.52388 0.86007 0.9058 0.0
O58 O 0.52015 0.85302 0.88064 0.0
C59 C 0.49177 0.8897 0.91329 0.0
Tb60 Tb 0.34445 0.21976 0.13591 0.0
C61 C 0.31326 0.23654 0.12159 0.0
Tb62 Tb 0.34493 0.2332 0.1001 0.0
O63 O 0.3606 0.23916 0.14584 0.0
O64 O 0.34627 0.24353 0.12459 0.0
O65 O 0.31875 0.22522 0.13197 0.0
C66 C 0.34831 0.25295 0.07348 0.0
O67 O 0.32153 0.24153 0.10835 0.0
C68 C 0.33448 0.20185 0.10378 0.0
C69 C 0.37767 0.22165 0.11673 0.0
O70 O 0.34421 0.2575 0.08824 0.0
O71 O 0.35064 0.23707 0.07358 0.0
O72 O 0.32962 0.2114 0.09182 0.0
O73 O 0.34543 0.20976 0.11181 0.0
O74 O 0.37098 0.23039 0.10467 0.0
O75 O 0.36924 0.21445 0.12892 0.0
C76 C 0.34118 0.20332 0.1644 0.0
O77 O 0.33851 0.2189 0.16222 0.0
O78 O 0.34524 0.19678 0.15031 0.0
C79 C 0.35794 0.24924 0.1337 0.0
Tb80 Tb 0.03134 0.90892 0.12332 0.0
C81 C 0.01013 0.93735 0.13526 0.0
Tb82 Tb 0.01985 0.90856 0.15895 0.0
O83 O 0.01756 0.88644 0.11797 0.0
O84 O 0.0083 0.90303 0.13525 0.0
O85 O 0.02268 0.93391 0.12583 0.0
C86 C 0.00302 0.90519 0.18732 0.0
O87 O 0.0054 0.92754 0.14755 0.0
C88 C 0.04911 0.92404 0.15433 0.0
C89 C 0.04138 0.87962 0.14639 0.0
O90 O 0.0108 0.91851 0.18235 0.0
O91 O 0.00507 0.89349 0.17646 0.0
O92 O 0.03985 0.92634 0.16706 0.0
O93 O 0.0424 0.91213 0.14667 0.0
O94 O 0.0305 0.88409 0.15756 0.0
O95 O 0.04536 0.88896 0.13337 0.0
C96 C 0.04215 0.9117 0.09225 0.0
O97 O 0.05135 0.91044 0.10543 0.0
O98 O 0.027 0.91199 0.09673 0.0
C99 C 0.00603 0.88883 0.12845 0.0
Tb100 Tb 0.37858 0.75107 0.36525 0.0
C101 C 0.39924 0.78405 0.3715 0.0
Tb102 Tb 0.36052 0.78108 0.37838 0.0
O103 O 0.36485 0.75254 0.34202 0.0
O104 O 0.3708 0.7741 0.35512 0.0
O105 O 0.39925 0.76829 0.36704 0.0
C106 C 0.34941 0.81154 0.38294 0.0
O107 O 0.38563 0.79163 0.37554 0.0
C108 C 0.36878 0.76166 0.40351 0.0
C109 C 0.34273 0.74558 0.37601 0.0
O110 O 0.36008 0.80424 0.39205 0.0
O111 O 0.34435 0.80138 0.37112 0.0
O112 O 0.36013 0.77474 0.40502 0.0
O113 O 0.37184 0.76044 0.38827 0.0
O114 O 0.34049 0.76191 0.37427 0.0
O115 O 0.35742 0.73923 0.37611 0.0
C116 C 0.39881 0.7269 0.35945 0.0
O117 O 0.38566 0.72955 0.35088 0.0
O118 O 0.4003 0.7375 0.37153 0.0
C119 C 0.36325 0.76845 0.34239 0.0
Tb120 Tb 0.46543 0.14737 0.61483 0.0
C121 C 0.48628 0.11866 0.62959 0.0
Tb122 Tb 0.47162 0.1468 0.65197 0.0
O123 O 0.48247 0.16868 0.6127 0.0
O124 O 0.4862 0.15085 0.63079 0.0
O125 O 0.47697 0.1234 0.61702 0.0
C126 C 0.48488 0.15034 0.68257 0.0
O127 O 0.48746 0.12722 0.64368 0.0
C128 C 0.44461 0.13036 0.64186 0.0
C129 C 0.45118 0.176 0.63587 0.0
O130 O 0.47475 0.13851 0.67772 0.0
O131 O 0.48692 0.16068 0.67036 0.0
O132 O 0.4529 0.12678 0.65513 0.0
O133 O 0.45083 0.14356 0.6361 0.0
O134 O 0.46037 0.17138 0.64881 0.0
O135 O 0.44942 0.16681 0.62222 0.0
C136 C 0.45695 0.1423 0.58304 0.0
O137 O 0.4677 0.15323 0.5885 0.0
O138 O 0.45072 0.13422 0.59554 0.0
C139 C 0.49136 0.16465 0.62539 0.0
Tb140 Tb 0.12339 0.19538 0.87556 0.0
C141 C 0.14756 0.22254 0.89035 0.0
Tb142 Tb 0.12076 0.20559 0.91382 0.0
O143 O 0.1113 0.21668 0.86473 0.0
O144 O 0.11451 0.21466 0.89004 0.0
O145 O 0.14595 0.21038 0.87923 0.0
C146 C 0.12005 0.22305 0.94259 0.0
O147 O 0.1376 0.22393 0.90311 0.0
C148 C 0.13759 0.17836 0.90657 0.0
C149 C 0.09287 0.18241 0.89735 0.0
O150 O 0.13223 0.2149 0.93697 0.0
O151 O 0.10767 0.22054 0.93237 0.0
O152 O 0.1392 0.18674 0.92033 0.0
O153 O 0.12581 0.18448 0.8991 0.0
O154 O 0.09685 0.19239 0.91026 0.0
O155 O 0.10234 0.18043 0.88413 0.0
C156 C 0.12941 0.18006 0.84713 0.0
O157 O 0.11516 0.18462 0.85201 0.0
O158 O 0.1404 0.18373 0.85854 0.0
C159 C 0.10873 0.2238 0.8789 0.0
Tb160 Tb 0.34769 0.01715 0.14166 0.0
C161 C 0.34127 0.05005 0.16059 0.0
Tb162 Tb 0.33731 0.046 0.12138 0.0
O163 O 0.37165 0.01743 0.13033 0.0
O164 O 0.35976 0.03965 0.13347 0.0
O165 O 0.34277 0.03385 0.1619 0.0
C166 C 0.33315 0.07657 0.10899 0.0
O167 O 0.33966 0.05747 0.14602 0.0
C168 C 0.31425 0.02227 0.12517 0.0
C169 C 0.34757 0.01382 0.10348 0.0
O170 O 0.32271 0.06814 0.11792 0.0
O171 O 0.34575 0.0675 0.10653 0.0
O172 O 0.31528 0.03198 0.11239 0.0
O173 O 0.32483 0.02723 0.13583 0.0
O174 O 0.34823 0.03028 0.10248 0.0
O175 O 0.34343 0.00614 0.11738 0.0
C176 C 0.35289 0.9923 0.16242 0.0
O177 O 0.36113 0.00629 0.16217 0.0
O178 O 0.34148 0.99232 0.15105 0.0
C179 C 0.37238 0.03322 0.12752 0.0
Tb180 Tb 0.2057 0.12114 0.37879 0.0
C181 C 0.22822 0.11193 0.34904 0.0
Tb182 Tb 0.21188 0.08507 0.37276 0.0
O183 O 0.22154 0.12151 0.40047 0.0
O184 O 0.22675 0.10619 0.38067 0.0
O185 O 0.21854 0.12313 0.35523 0.0
C186 C 0.22552 0.0552 0.37113 0.0
O187 O 0.22875 0.0968 0.35529 0.0
C188 C 0.18443 0.09588 0.35845 0.0
C189 C 0.19043 0.09556 0.40321 0.0
O190 O 0.21776 0.06244 0.35922 0.0
O191 O 0.2248 0.06443 0.38437 0.0
O192 O 0.19195 0.0828 0.35366 0.0
O193 O 0.19134 0.10033 0.37169 0.0
O194 O 0.20083 0.08444 0.39771 0.0
O195 O 0.18778 0.10952 0.39504 0.0
C196 C 0.19952 0.15329 0.37758 0.0
O197 O 0.20282 0.14503 0.3909 0.0
O198 O 0.19884 0.14323 0.36497 0.0
C199 C 0.23118 0.1103 0.39525 0.0
Tb200 Tb 0.12982 0.93643 0.64229 0.0
C201 C 0.14038 0.95698 0.6104 0.0
Tb202 Tb 0.16647 0.94671 0.63791 0.0
O203 O 0.12723 0.95506 0.66143 0.0
O204 O 0.14422 0.95884 0.64269 0.0
O205 O 0.1288 0.94778 0.61772 0.0
C206 C 0.19411 0.96613 0.63903 0.0
O207 O 0.1555 0.95888 0.61652 0.0
C208 C 0.15721 0.91661 0.62632 0.0
C209 C 0.15498 0.92634 0.66969 0.0
O210 O 0.19168 0.95307 0.62966 0.0
O211 O 0.18134 0.96757 0.6483 0.0
O212 O 0.17043 0.92475 0.6216 0.0
O213 O 0.15175 0.92477 0.63808 0.0
O214 O 0.16616 0.93723 0.66377 0.0
O215 O 0.1415 0.92176 0.66122 0.0
C216 C 0.09911 0.92434 0.64072 0.0
O217 O 0.10637 0.93053 0.65384 0.0
O218 O 0.10929 0.92452 0.62843 0.0
C219 C 0.13922 0.96452 0.65625 0.0
Tb220 Tb 0.2805 0.88866 0.89716 0.0
C221 C 0.31356 0.89546 0.91551 0.0
Tb222 Tb 0.30989 0.89935 0.87588 0.0
O223 O 0.28498 0.86214 0.89989 0.0
O224 O 0.30058 0.87709 0.88628 0.0
O225 O 0.29749 0.89436 0.91717 0.0
C226 C 0.33985 0.90863 0.86572 0.0
O227 O 0.32071 0.89619 0.90077 0.0
C228 C 0.28657 0.92127 0.87784 0.0
C229 C 0.27839 0.88555 0.85854 0.0
O230 O 0.33211 0.8948 0.86149 0.0
O231 O 0.33054 0.91711 0.8752 0.0
O232 O 0.296 0.91945 0.86517 0.0
O233 O 0.29125 0.91178 0.88935 0.0
O234 O 0.29463 0.88608 0.85728 0.0
O235 O 0.27077 0.89008 0.87214 0.0
C236 C 0.25231 0.88671 0.91318 0.0
O237 O 0.25517 0.87979 0.89904 0.0
O238 O 0.26521 0.89525 0.91816 0.0
C239 C 0.29794 0.86228 0.8908 0.0
Tb240 Tb 0.38196 0.95555 0.37001 0.0
C241 C 0.36439 0.9789 0.3947 0.0
Tb242 Tb 0.34653 0.9632 0.363 0.0
O243 O 0.38984 0.97079 0.34928 0.0
O244 O 0.36916 0.977 0.36261 0.0
O245 O 0.37597 0.96794 0.3932 0.0
C246 C 0.317 0.97576 0.35658 0.0
O247 O 0.35284 0.98039 0.38316 0.0
C248 C 0.35102 0.93588 0.3807 0.0
C249 C 0.36581 0.94149 0.33708 0.0
O250 O 0.32026 0.9646 0.36751 0.0
O251 O 0.33036 0.97934 0.34848 0.0
O252 O 0.33858 0.94528 0.38202 0.0
O253 O 0.35958 0.94167 0.36912 0.0
O254 O 0.35291 0.95098 0.33941 0.0
O255 O 0.37735 0.9397 0.34863 0.0
C256 C 0.41116 0.94561 0.38063 0.0
O257 O 0.3972 0.93813 0.38375 0.0
O258 O 0.40859 0.95857 0.37167 0.0
C259 C 0.37773 0.98069 0.35009 0.0
Tb260 Tb 0.30021 0.12982 0.62122 0.0
C261 C 0.29004 0.11243 0.65314 0.0
Tb262 Tb 0.29383 0.09152 0.61966 0.0
O263 O 0.27415 0.13287 0.62585 0.0
O264 O 0.28166 0.11298 0.61202 0.0
O265 O 0.29963 0.12452 0.64737 0.0
C266 C 0.27513 0.06335 0.62032 0.0
O267 O 0.28507 0.09955 0.64388 0.0
C268 C 0.32304 0.10154 0.63125 0.0
C269 C 0.30599 0.11065 0.58736 0.0
O270 O 0.27154 0.07764 0.62643 0.0
O271 O 0.28946 0.06485 0.61325 0.0
O272 O 0.31623 0.08707 0.63449 0.0
O273 O 0.31417 0.1083 0.62063 0.0
O274 O 0.29933 0.09643 0.59325 0.0
O275 O 0.30877 0.12414 0.59664 0.0
C276 C 0.30941 0.16175 0.61871 0.0
O277 O 0.29805 0.15416 0.60991 0.0
O278 O 0.31598 0.15123 0.62881 0.0
C279 C 0.26935 0.1193 0.61834 0.0
Tb280 Tb 0.1374 0.03807 0.87842 0.0
C281 C 0.14902 0.0136 0.90575 0.0
Tb282 Tb 0.17286 0.02779 0.87793 0.0
O283 O 0.13306 0.02573 0.85464 0.0
O284 O 0.14979 0.01631 0.87126 0.0
O285 O 0.13846 0.02507 0.90192 0.0
C286 C 0.19968 0.0092 0.87698 0.0
O287 O 0.16285 0.01197 0.89755 0.0
C288 C 0.16849 0.05819 0.88943 0.0
C289 C 0.15915 0.0511 0.85009 0.0
O290 O 0.19527 0.01825 0.88946 0.0
O291 O 0.18934 0.01127 0.86481 0.0
O292 O 0.18187 0.05353 0.8825 0.0
O293 O 0.15918 0.04549 0.89125 0.0
O294 O 0.16912 0.03874 0.85332 0.0
O295 O 0.14759 0.05542 0.86052 0.0
C296 C 0.1059 0.04306 0.88392 0.0
O297 O 0.11714 0.05487 0.88275 0.0
O298 O 0.1125 0.02886 0.88211 0.0
C299 C 0.14349 0.01426 0.85697 0.0
Tb300 Tb 0.23151 0.89702 0.11673 0.0
C301 C 0.19793 0.90019 0.09893 0.0
Tb302 Tb 0.20209 0.90688 0.13821 0.0
O303 O 0.22618 0.87036 0.11401 0.0
O304 O 0.21124 0.88488 0.12798 0.0
O305 O 0.21399 0.90022 0.09672 0.0
C306 C 0.17174 0.91436 0.14777 0.0
O307 O 0.1912 0.90133 0.11381 0.0
C308 C 0.22596 0.93001 0.13511 0.0
C309 C 0.23263 0.89373 0.15546 0.0
O310 O 0.18059 0.92222 0.13688 0.0
O311 O 0.18021 0.90229 0.15379 0.0
O312 O 0.21633 0.9286 0.14776 0.0
O313 O 0.221 0.91959 0.12421 0.0
O314 O 0.2164 0.8935 0.15642 0.0
O315 O 0.24058 0.89919 0.1422 0.0
C316 C 0.26044 0.89527 0.10216 0.0
O317 O 0.25607 0.88771 0.11562 0.0
O318 O 0.2486 0.90435 0.09693 0.0
C319 C 0.21348 0.8701 0.12346 0.0
Tb320 Tb 0.1281 0.38188 0.05735 0.0
C321 C 0.10359 0.36303 0.03391 0.0
Tb322 Tb 0.13637 0.34559 0.04532 0.0
O323 O 0.13927 0.39578 0.03671 0.0
O324 O 0.13937 0.37035 0.03742 0.0
O325 O 0.10495 0.37422 0.04595 0.0
C326 C 0.13601 0.31703 0.02749 0.0
O327 O 0.11509 0.35234 0.03061 0.0
C328 C 0.12725 0.3493 0.07648 0.0
C329 C 0.16362 0.36767 0.06339 0.0
O330 O 0.12538 0.32115 0.03851 0.0
O331 O 0.14738 0.32879 0.02701 0.0
O332 O 0.1369 0.33786 0.07147 0.0
O333 O 0.12208 0.357 0.06399 0.0
O334 O 0.16079 0.35497 0.05289 0.0
O335 O 0.15209 0.37777 0.06842 0.0
C336 C 0.11921 0.40863 0.07409 0.0
O337 O 0.1283 0.39705 0.08002 0.0
O338 O 0.11479 0.40478 0.05901 0.0
C339 C 0.14391 0.3827 0.02891 0.0
Tb340 Tb 0.59665 0.1143 0.96423 0.0
C341 C 0.57332 0.13029 0.98958 0.0
Tb342 Tb 0.604 0.15107 0.97455 0.0
O343 O 0.60911 0.10238 0.98538 0.0
O344 O 0.60817 0.12749 0.98356 0.0
O345 O 0.57412 0.11881 0.97771 0.0
C346 C 0.60579 0.1803 0.99003 0.0
O347 O 0.58413 0.14294 0.99085 0.0
C348 C 0.59713 0.14664 0.94278 0.0
C349 C 0.63199 0.13118 0.95922 0.0
O350 O 0.59325 0.17447 0.98153 0.0
O351 O 0.61744 0.16974 0.98963 0.0
O352 O 0.60566 0.15903 0.949 0.0
O353 O 0.59057 0.13829 0.95459 0.0
O354 O 0.62869 0.14358 0.96942 0.0
O355 O 0.6207 0.12008 0.9539 0.0
C356 C 0.59224 0.08558 0.94766 0.0
O357 O 0.59799 0.09945 0.94152 0.0
O358 O 0.58777 0.08838 0.96278 0.0
C359 C 0.61351 0.11622 0.99259 0.0
Tb360 Tb 0.13973 0.37581 0.21357 0.0
C361 C 0.12482 0.35115 0.23893 0.0
Tb362 Tb 0.10545 0.38353 0.22957 0.0
O363 O 0.15539 0.38667 0.23368 0.0
O364 O 0.13049 0.3874 0.23435 0.0
O365 O 0.13331 0.35227 0.22503 0.0
C366 C 0.08172 0.38754 0.25191 0.0
O367 O 0.11446 0.36257 0.24356 0.0
C368 C 0.10544 0.37319 0.19832 0.0
C369 C 0.12396 0.41094 0.20879 0.0
O370 O 0.08258 0.37509 0.24166 0.0
O371 O 0.09385 0.39796 0.24904 0.0
O372 O 0.09437 0.38266 0.20442 0.0
O373 O 0.1147 0.36882 0.20996 0.0
O374 O 0.1135 0.40799 0.22107 0.0
O375 O 0.13338 0.39945 0.20235 0.0
C376 C 0.16501 0.36739 0.19515 0.0
O377 O 0.15335 0.37694 0.19031 0.0
O378 O 0.16186 0.3621 0.20999 0.0
C379 C 0.1432 0.3914 0.24243 0.0
Tb380 Tb 0.87063 0.90678 0.46226 0.0
C381 C 0.89904 0.8894 0.48155 0.0
Tb382 Tb 0.8666 0.87002 0.47076 0.0
O383 O 0.85195 0.91279 0.47997 0.0
O384 O 0.86698 0.8927 0.48434 0.0
O385 O 0.89538 0.90167 0.47135 0.0
C386 C 0.85877 0.8412 0.48587 0.0
O387 O 0.88863 0.87688 0.48466 0.0
C388 C 0.87875 0.87641 0.44069 0.0
C389 C 0.83705 0.88844 0.45376 0.0
O390 O 0.87135 0.84397 0.47645 0.0
O391 O 0.85035 0.85454 0.48637 0.0
O392 O 0.88137 0.86303 0.44911 0.0
O393 O 0.86857 0.88426 0.44882 0.0
O394 O 0.84168 0.87535 0.46244 0.0
O395 O 0.84708 0.90126 0.45038 0.0
C396 C 0.87694 0.93733 0.45064 0.0
O397 O 0.87476 0.93346 0.46607 0.0
O398 O 0.87601 0.92386 0.44169 0.0
C399 C 0.85473 0.90025 0.4895 0.0
Tb400 Tb 0.87057 0.13888 0.19639 0.0
C401 C 0.88523 0.16823 0.21767 0.0
Tb402 Tb 0.90566 0.1365 0.2087 0.0
O403 O 0.86397 0.11671 0.21072 0.0
O404 O 0.88219 0.13293 0.21947 0.0
O405 O 0.87345 0.16348 0.20711 0.0
C406 C 0.93301 0.13648 0.22799 0.0
O407 O 0.89828 0.15932 0.22066 0.0
C408 C 0.90338 0.14481 0.17715 0.0
C409 C 0.88967 0.10848 0.18592 0.0
O410 O 0.92909 0.14791 0.21749 0.0
O411 O 0.92167 0.12472 0.22729 0.0
O412 O 0.91562 0.13729 0.18376 0.0
O413 O 0.89377 0.14905 0.1886 0.0
O414 O 0.89971 0.11132 0.19891 0.0
O415 O 0.87941 0.11968 0.18071 0.0
C416 C 0.83972 0.14341 0.18611 0.0
O417 O 0.85174 0.13931 0.17663 0.0
O418 O 0.84533 0.14559 0.20109 0.0
C419 C 0.87471 0.11935 0.22238 0.0
Tb420 Tb 0.386 0.62413 0.5368 0.0
C421 C 0.41636 0.63514 0.51658 0.0
Tb422 Tb 0.38812 0.65981 0.52285 0.0
O423 O 0.36473 0.6188 0.52142 0.0
O424 O 0.38298 0.63556 0.51302 0.0
O425 O 0.41143 0.6266 0.52967 0.0
C426 C 0.3838 0.68488 0.5015 0.0
O427 O 0.4078 0.64738 0.51039 0.0
C428 C 0.40066 0.65636 0.55349 0.0
C429 C 0.35764 0.64789 0.54461 0.0
O430 O 0.3975 0.68153 0.5089 0.0
O431 O 0.37244 0.67461 0.50678 0.0
O432 O 0.40401 0.6691 0.54401 0.0
O433 O 0.38953 0.64828 0.54603 0.0
O434 O 0.36322 0.65852 0.53314 0.0
O435 O 0.3658 0.63481 0.54968 0.0
C436 C 0.38787 0.59296 0.54719 0.0
O437 O 0.3869 0.59772 0.5319 0.0
O438 O 0.3881 0.60591 0.55694 0.0
C439 C 0.3689 0.62918 0.50989 0.0
Tb440 Tb 0.13247 0.65372 0.29973 0.0
C441 C 0.12039 0.67973 0.27408 0.0
Tb442 Tb 0.09698 0.649 0.28438 0.0
O443 O 0.14585 0.64155 0.27968 0.0
O444 O 0.12107 0.64368 0.2785 0.0
O445 O 0.13057 0.67738 0.28678 0.0
C446 C 0.07026 0.65009 0.26505 0.0
O447 O 0.10767 0.66967 0.27054 0.0
C448 C 0.09795 0.65485 0.31664 0.0
C449 C 0.11217 0.6197 0.30294 0.0
O450 O 0.07602 0.66201 0.27455 0.0
O451 O 0.07947 0.6373 0.26659 0.0
O452 O 0.08577 0.6478 0.30857 0.0
O453 O 0.10822 0.66071 0.30615 0.0
O454 O 0.10219 0.62348 0.29048 0.0
O455 O 0.12294 0.63041 0.30989 0.0
C456 C 0.16007 0.65698 0.31802 0.0
O457 O 0.14737 0.64756 0.32152 0.0
O458 O 0.15661 0.66548 0.30487 0.0
C459 C 0.13293 0.63829 0.2707 0.0
Tb460 Tb 0.35258 0.3905 0.79408 0.0
C461 C 0.36869 0.365 0.77042 0.0
Tb462 Tb 0.38839 0.395 0.787 0.0
O463 O 0.34762 0.41264 0.78032 0.0
O464 O 0.36649 0.39759 0.77275 0.0
O465 O 0.35681 0.36718 0.78115 0.0
C466 C 0.41807 0.40184 0.77418 0.0
O467 O 0.38128 0.37566 0.76924 0.0
C468 C 0.38161 0.37759 0.81435 0.0
C469 C 0.37084 0.42204 0.80878 0.0
O470 O 0.41389 0.38887 0.78278 0.0
O471 O 0.40565 0.41145 0.77337 0.0
O472 O 0.39446 0.37583 0.80532 0.0
O473 O 0.37425 0.3896 0.80838 0.0
O474 O 0.38366 0.4188 0.79931 0.0
O475 O 0.35828 0.41129 0.81056 0.0
C476 C 0.32152 0.38233 0.80097 0.0
O477 O 0.33402 0.37879 0.81032 0.0
O478 O 0.32661 0.39035 0.78807 0.0
C479 C 0.35932 0.41097 0.76983 0.0
Tb480 Tb 0.9647 0.86405 0.66111 0.0
C481 C 0.93907 0.84033 0.64201 0.0
Tb482 Tb 0.9578 0.87056 0.62367 0.0
O483 O 0.94972 0.88502 0.66875 0.0
O484 O 0.94557 0.87351 0.64632 0.0
O485 O 0.94847 0.84219 0.65572 0.0
C486 C 0.9465 0.87616 0.5931 0.0
O487 O 0.94009 0.85054 0.62904 0.0
C488 C 0.98593 0.85694 0.63062 0.0
C489 C 0.98061 0.89536 0.64262 0.0
O490 O 0.95164 0.86207 0.59848 0.0
O491 O 0.94732 0.88702 0.60507 0.0
O492 O 0.98329 0.86605 0.61775 0.0
O493 O 0.97252 0.85448 0.63797 0.0
O494 O 0.9695 0.89408 0.63062 0.0
O495 O 0.98171 0.88428 0.65458 0.0
C496 C 0.98393 0.85715 0.6874 0.0
O497 O 0.96807 0.85887 0.68803 0.0
O498 O 0.98833 0.85839 0.67204 0.0
C499 C 0.94148 0.88572 0.65483 0.0
Tb500 Tb 0.89014 0.23632 0.39061 0.0
C501 C 0.91662 0.216 0.37165 0.0
Tb502 Tb 0.88696 0.23323 0.35435 0.0
O503 O 0.86906 0.21912 0.39416 0.0
O504 O 0.88389 0.21616 0.37406 0.0
O505 O 0.91297 0.22396 0.38553 0.0
C506 C 0.87843 0.2272 0.32277 0.0
O507 O 0.90685 0.21609 0.35831 0.0
C508 C 0.90858 0.25609 0.3638 0.0
C509 C 0.86391 0.25803 0.37291 0.0
O510 O 0.88897 0.23843 0.32792 0.0
O511 O 0.87256 0.21918 0.33547 0.0
O512 O 0.90978 0.24697 0.35063 0.0
O513 O 0.89496 0.25288 0.37061 0.0
O514 O 0.86562 0.24858 0.35952 0.0
O515 O 0.87364 0.25642 0.38599 0.0
C516 C 0.89706 0.24431 0.42225 0.0
O517 O 0.88361 0.23719 0.4168 0.0
O518 O 0.90694 0.24649 0.40988 0.0
C519 C 0.87103 0.21054 0.38076 0.0
Tb520 Tb 0.51799 0.10511 0.1292 0.0
C521 C 0.48088 0.09541 0.11956 0.0
Tb522 Tb 0.49343 0.13264 0.12068 0.0
O523 O 0.5111 0.10154 0.15553 0.0
O524 O 0.50032 0.11872 0.141 0.0
O525 O 0.49628 0.09013 0.12028 0.0
C526 C 0.47444 0.15842 0.1209 0.0
O527 O 0.47711 0.11116 0.12151 0.0
C528 C 0.50808 0.11919 0.09509 0.0
C529 C 0.52848 0.14326 0.13335 0.0
O530 O 0.47266 0.14547 0.13033 0.0
O531 O 0.48671 0.15674 0.11104 0.0
O532 O 0.4934 0.12487 0.09469 0.0
O533 O 0.51423 0.12221 0.10933 0.0
O534 O 0.51295 0.1472 0.13268 0.0
O535 O 0.53338 0.12806 0.13014 0.0
C536 C 0.5447 0.08719 0.13197 0.0
O537 O 0.53785 0.09529 0.14373 0.0
O538 O 0.53608 0.08865 0.11832 0.0
C539 C 0.50023 0.11284 0.15539 0.0
Tb540 Tb 0.66021 0.77399 0.90864 0.0
C541 C 0.62975 0.79276 0.89543 0.0
Tb542 Tb 0.66099 0.78949 0.87376 0.0
O543 O 0.67815 0.7929 0.91837 0.0
O544 O 0.66346 0.79803 0.89836 0.0
O545 O 0.63496 0.78108 0.90559 0.0
C546 C 0.66552 0.80526 0.84505 0.0
O547 O 0.63909 0.79986 0.88384 0.0
C548 C 0.6425 0.76259 0.87571 0.0
C549 C 0.69021 0.76818 0.88543 0.0
O550 O 0.66189 0.81231 0.85902 0.0
O551 O 0.66688 0.78949 0.84742 0.0
O552 O 0.64047 0.7742 0.8649 0.0
O553 O 0.65578 0.76544 0.8837 0.0
O554 O 0.6858 0.78071 0.87601 0.0
O555 O 0.6818 0.76327 0.89857 0.0
C556 C 0.65619 0.75248 0.93371 0.0
O557 O 0.66032 0.74894 0.91868 0.0
O558 O 0.65401 0.76836 0.93475 0.0
C559 C 0.67549 0.80361 0.90667 0.0
Tb560 Tb 0.97803 0.09533 0.84091 0.0
C561 C 0.95303 0.12133 0.85119 0.0
Tb562 Tb 0.96444 0.09421 0.87525 0.0
O563 O 0.95424 0.09064 0.82905 0.0
O564 O 0.95841 0.08157 0.85274 0.0
O565 O 0.96647 0.11921 0.84249 0.0
C566 C 0.95231 0.08938 0.90556 0.0
O567 O 0.94842 0.11113 0.8632 0.0
C568 C 0.98765 0.11749 0.87122 0.0
C569 C 0.99072 0.06852 0.86606 0.0
O570 O 0.94363 0.09132 0.89212 0.0
O571 O 0.96763 0.0897 0.90172 0.0
O572 O 0.9751 0.1187 0.8807 0.0
O573 O 0.98713 0.10311 0.86484 0.0
O574 O 0.97926 0.07245 0.87671 0.0
O575 O 0.99254 0.07592 0.85153 0.0
C576 C 0.997 0.09717 0.81413 0.0
O577 O 0.98843 0.08416 0.81875 0.0
O578 O 0.99476 0.10924 0.82452 0.0
C579 C 0.94734 0.08374 0.84181 0.0
Tb580 Tb 0.643 0.22253 0.62829 0.0
C581 C 0.65746 0.2592 0.63247 0.0
Tb582 Tb 0.6195 0.25123 0.63516 0.0
O583 O 0.64961 0.23376 0.60455 0.0
O584 O 0.62641 0.23702 0.61433 0.0
O585 O 0.6609 0.24312 0.63426 0.0
C586 C 0.59827 0.2749 0.63254 0.0
O587 O 0.64236 0.26451 0.63084 0.0
C588 C 0.63003 0.23856 0.66356 0.0
C589 C 0.60456 0.21585 0.63012 0.0
O590 O 0.61267 0.27535 0.62581 0.0
O591 O 0.59593 0.26124 0.64073 0.0
O592 O 0.62059 0.25107 0.66254 0.0
O593 O 0.63328 0.23446 0.64892 0.0
O594 O 0.60241 0.23173 0.62742 0.0
O595 O 0.61918 0.2099 0.63336 0.0
C596 C 0.65461 0.19224 0.62374 0.0
O597 O 0.64563 0.20031 0.61343 0.0
O598 O 0.65775 0.20159 0.63678 0.0
C599 C 0.63593 0.24128 0.60272 0.0
Tb600 Tb 0.52988 0.85862 0.35898 0.0
C601 C 0.5511 0.82979 0.37344 0.0
Tb602 Tb 0.53687 0.85727 0.39574 0.0
O603 O 0.54799 0.87901 0.35548 0.0
O604 O 0.55114 0.86222 0.37436 0.0
O605 O 0.54081 0.83405 0.36137 0.0
C606 C 0.54709 0.86025 0.42725 0.0
O607 O 0.55397 0.83943 0.38659 0.0
C608 C 0.51081 0.83968 0.38566 0.0
C609 C 0.51451 0.88549 0.38226 0.0
O610 O 0.54118 0.84683 0.42026 0.0
O611 O 0.54733 0.87222 0.41648 0.0
O612 O 0.51964 0.83608 0.3985 0.0
O613 O 0.51576 0.85352 0.38027 0.0
O614 O 0.5241 0.88076 0.39467 0.0
O615 O 0.51329 0.87707 0.36808 0.0
C616 C 0.51749 0.85508 0.32814 0.0
O617 O 0.52483 0.8683 0.33414 0.0
O618 O 0.51747 0.8436 0.3394 0.0
C619 C 0.55668 0.87569 0.36851 0.0
Tb620 Tb 0.87531 0.79827 0.08788 0.0
C621 C 0.90068 0.82359 0.10384 0.0
Tb622 Tb 0.87078 0.81047 0.12468 0.0
O623 O 0.87064 0.82298 0.0784 0.0
O624 O 0.86024 0.81545 0.10081 0.0
O625 O 0.89912 0.81062 0.09349 0.0
C626 C 0.86392 0.82664 0.15264 0.0
O627 O 0.88907 0.82762 0.11435 0.0
C628 C 0.89 0.78453 0.12338 0.0
C629 C 0.84983 0.7797 0.11245 0.0
O630 O 0.87806 0.82658 0.14549 0.0
O631 O 0.85337 0.81801 0.14367 0.0
O632 O 0.88599 0.79186 0.13702 0.0
O633 O 0.88323 0.79228 0.11185 0.0
O634 O 0.85129 0.79155 0.12386 0.0
O635 O 0.85841 0.77968 0.09854 0.0
C636 C 0.87446 0.77974 0.05994 0.0
O637 O 0.86232 0.7875 0.06623 0.0
O638 O 0.88746 0.78289 0.06916 0.0
C639 C 0.86246 0.82775 0.09118 0.0
Tb640 Tb 0.66684 0.95865 0.89396 0.0
C641 C 0.65487 0.99043 0.91076 0.0
Tb642 Tb 0.65721 0.98602 0.8725 0.0
O643 O 0.68762 0.97336 0.90439 0.0
O644 O 0.68025 0.97706 0.87984 0.0
O645 O 0.65469 0.97401 0.91234 0.0
C646 C 0.64959 0.01402 0.8574 0.0
O647 O 0.65945 0.99768 0.89679 0.0
C648 C 0.63349 0.96313 0.876 0.0
C649 C 0.66562 0.95429 0.85478 0.0
O650 O 0.6411 0.00662 0.86878 0.0
O651 O 0.66276 0.00592 0.85473 0.0
O652 O 0.63631 0.97154 0.86264 0.0
O653 O 0.6436 0.96819 0.88707 0.0
O654 O 0.66696 0.97055 0.85342 0.0
O655 O 0.6632 0.94715 0.86937 0.0
C656 C 0.6734 0.92817 0.90544 0.0
O657 O 0.66057 0.93648 0.90912 0.0
O658 O 0.68258 0.93731 0.89591 0.0
C659 C 0.68987 0.98241 0.89125 0.0
Tb660 Tb 0.79207 0.92014 0.63472 0.0
C661 C 0.81029 0.90461 0.60553 0.0
Tb662 Tb 0.80162 0.88538 0.63793 0.0
O663 O 0.81741 0.92994 0.63628 0.0
O664 O 0.81072 0.90798 0.64843 0.0
O665 O 0.7984 0.91485 0.60904 0.0
C666 C 0.81318 0.85492 0.63742 0.0
O667 O 0.81572 0.89409 0.61673 0.0
C668 C 0.77085 0.88859 0.62865 0.0
C669 C 0.78285 0.89943 0.6674 0.0
O670 O 0.80711 0.86268 0.62488 0.0
O671 O 0.81348 0.8647 0.65026 0.0
O672 O 0.77617 0.87694 0.63796 0.0
O673 O 0.78295 0.89742 0.62382 0.0
O674 O 0.79228 0.88734 0.66278 0.0
O675 O 0.78146 0.91313 0.65858 0.0
C676 C 0.77143 0.94533 0.63636 0.0
O677 O 0.76833 0.93009 0.64046 0.0
O678 O 0.78632 0.94656 0.63076 0.0
C679 C 0.82278 0.91722 0.64426 0.0
Tb680 Tb 0.83412 0.05629 0.36615 0.0
C681 C 0.85268 0.07489 0.33764 0.0
Tb682 Tb 0.87002 0.06593 0.37162 0.0
O683 O 0.82715 0.0821 0.36499 0.0
O684 O 0.84746 0.07552 0.37942 0.0
O685 O 0.84019 0.06432 0.34087 0.0
C686 C 0.90119 0.07666 0.37118 0.0
O687 O 0.86385 0.07926 0.34908 0.0
C688 C 0.86399 0.03488 0.3629 0.0
C689 C 0.85359 0.04598 0.39945 0.0
O690 O 0.89407 0.06661 0.36063 0.0
O691 O 0.89055 0.08134 0.38202 0.0
O692 O 0.87603 0.03984 0.37244 0.0
O693 O 0.85664 0.04738 0.35778 0.0
O694 O 0.8655 0.05708 0.39649 0.0
O695 O 0.8411 0.04339 0.38895 0.0
C696 C 0.80653 0.03685 0.36533 0.0
O697 O 0.80889 0.05016 0.37433 0.0
O698 O 0.81935 0.03514 0.3562 0.0
C699 C 0.83969 0.08766 0.37373 0.0
Tb700 Tb 0.69552 0.10533 0.13015 0.0
C701 C 0.72768 0.1161 0.14822 0.0
Tb702 Tb 0.7237 0.12023 0.10972 0.0
O703 O 0.70942 0.08385 0.13702 0.0
O704 O 0.71409 0.09565 0.11437 0.0
O705 O 0.71151 0.11525 0.15022 0.0
C706 C 0.75219 0.12579 0.09511 0.0
O707 O 0.73456 0.11461 0.13356 0.0
C708 C 0.70566 0.14456 0.12075 0.0
C709 C 0.69044 0.11439 0.09145 0.0
O710 O 0.74873 0.1299 0.11015 0.0
O711 O 0.73963 0.11814 0.08814 0.0
O712 O 0.71846 0.14676 0.11161 0.0
O713 O 0.70375 0.12916 0.12296 0.0
O714 O 0.70634 0.11713 0.08934 0.0
O715 O 0.68401 0.11092 0.10616 0.0
C716 C 0.66579 0.09427 0.13914 0.0
O717 O 0.67532 0.08715 0.1288 0.0
O718 O 0.67326 0.10763 0.14507 0.0
C719 C 0.71898 0.08456 0.1243 0.0
Tb720 Tb 0.65478 0.04194 0.64323 0.0
C721 C 0.6361 0.06565 0.66762 0.0
Tb722 Tb 0.61935 0.04963 0.63583 0.0
O723 O 0.66296 0.05809 0.62287 0.0
O724 O 0.64199 0.06312 0.6354 0.0
O725 O 0.64867 0.05564 0.66592 0.0
C726 C 0.58978 0.05877 0.62565 0.0
O727 O 0.62455 0.06702 0.656 0.0
C728 C 0.62361 0.02645 0.65792 0.0
C729 C 0.63652 0.02363 0.61303 0.0
O730 O 0.60355 0.06617 0.6216 0.0
O731 O 0.59279 0.04634 0.63516 0.0
O732 O 0.6117 0.03663 0.65813 0.0
O733 O 0.63187 0.02889 0.64494 0.0
O734 O 0.6245 0.03424 0.61409 0.0
O735 O 0.64889 0.02386 0.62382 0.0
C736 C 0.68305 0.02824 0.65234 0.0
O737 O 0.68163 0.04088 0.64258 0.0
O738 O 0.66859 0.02396 0.65769 0.0
C739 C 0.65072 0.06788 0.62347 0.0
Tb740 Tb 0.7078 0.9117 0.38814 0.0
C741 C 0.69277 0.89389 0.41988 0.0
Tb742 Tb 0.69709 0.87422 0.38669 0.0
O743 O 0.68601 0.91844 0.37306 0.0
O744 O 0.68591 0.89723 0.38674 0.0
O745 O 0.70317 0.90591 0.41457 0.0
C746 C 0.68617 0.84317 0.38087 0.0
O747 O 0.68685 0.88168 0.41013 0.0
C748 C 0.72485 0.88071 0.40196 0.0
C749 C 0.71242 0.89082 0.35528 0.0
O750 O 0.70079 0.84905 0.37796 0.0
O751 O 0.67742 0.85489 0.38696 0.0
O752 O 0.71554 0.86771 0.40475 0.0
O753 O 0.71936 0.88843 0.38959 0.0
O754 O 0.70202 0.87918 0.36066 0.0
O755 O 0.71722 0.90375 0.36446 0.0
C756 C 0.7268 0.93978 0.38741 0.0
O757 O 0.72927 0.926 0.37977 0.0
O758 O 0.71351 0.9378 0.39616 0.0
C759 C 0.67783 0.90467 0.37608 0.0
Tb760 Tb 0.83037 0.97779 0.12233 0.0
C761 C 0.84672 0.95685 0.15155 0.0
Tb762 Tb 0.86681 0.97066 0.12161 0.0
O763 O 0.82404 0.95724 0.10455 0.0
O764 O 0.8448 0.9568 0.1188 0.0
O765 O 0.83415 0.96617 0.14697 0.0
C766 C 0.89858 0.96744 0.11625 0.0
O767 O 0.85971 0.95485 0.14204 0.0
C768 C 0.85875 0.99572 0.14029 0.0
C769 C 0.85261 0.99139 0.09327 0.0
O770 O 0.89149 0.98114 0.11939 0.0
O771 O 0.88775 0.95519 0.11616 0.0
O772 O 0.87006 0.98547 0.14393 0.0
O773 O 0.85272 0.99185 0.12621 0.0
O774 O 0.86228 0.979 0.0964 0.0
O775 O 0.83997 0.99413 0.10292 0.0
C776 C 0.80257 0.9945 0.12636 0.0
O777 O 0.80537 0.98404 0.11449 0.0
O778 O 0.81503 0.99461 0.13656 0.0
C779 C 0.83764 0.94959 0.10686 0.0
Tb780 Tb 0.79635 0.10155 0.87299 0.0
C781 C 0.76366 0.1113 0.85483 0.0
Tb782 Tb 0.76833 0.11184 0.89331 0.0
O783 O 0.79179 0.0757 0.88206 0.0
O784 O 0.77274 0.09101 0.87874 0.0
O785 O 0.77984 0.1103 0.85311 0.0
C786 C 0.74321 0.11446 0.91371 0.0
O787 O 0.75638 0.10895 0.86932 0.0
C788 C 0.78418 0.13707 0.88008 0.0
C789 C 0.80176 0.10614 0.91143 0.0
O790 O 0.75211 0.1267 0.90804 0.0
O791 O 0.74838 0.10059 0.90787 0.0
O792 O 0.76858 0.13619 0.88277 0.0
O793 O 0.79084 0.12416 0.88588 0.0
O794 O 0.7857 0.1061 0.91307 0.0
O795 O 0.80862 0.10641 0.89666 0.0
C796 C 0.8249 0.09622 0.85742 0.0
O797 O 0.81535 0.08511 0.86419 0.0
O798 O 0.81774 0.11034 0.85834 0.0
C799 C 0.77616 0.07693 0.88382 0.0
Tb800 Tb 0.86764 0.66105 0.95499 0.0
C801 C 0.83885 0.63987 0.93692 0.0
Tb802 Tb 0.87294 0.62486 0.9457 0.0
O803 O 0.88393 0.66948 0.9345 0.0
O804 O 0.87104 0.64731 0.93292 0.0
O805 O 0.84294 0.65371 0.94547 0.0
C806 C 0.88118 0.59529 0.93427 0.0
O807 O 0.8494 0.62813 0.93375 0.0
C808 C 0.85582 0.62894 0.97241 0.0
C809 C 0.90026 0.6444 0.96588 0.0
O810 O 0.87829 0.60813 0.92511 0.0
O811 O 0.8797 0.59926 0.94976 0.0
O812 O 0.85396 0.61643 0.96235 0.0
O813 O 0.86802 0.63798 0.96804 0.0
O814 O 0.89741 0.63254 0.95469 0.0
O815 O 0.88916 0.65533 0.96954 0.0
C816 C 0.86281 0.68985 0.97121 0.0
O817 O 0.87353 0.68746 0.95978 0.0
O818 O 0.85406 0.67616 0.97283 0.0
C819 C 0.88184 0.65596 0.92585 0.0
Tb820 Tb 0.39739 0.85808 0.03392 0.0
C821 C 0.36998 0.87536 0.05297 0.0
Tb822 Tb 0.40355 0.89295 0.04487 0.0
O823 O 0.39581 0.84858 0.05888 0.0
O824 O 0.411 0.86957 0.05449 0.0
O825 O 0.37271 0.86423 0.04125 0.0
C826 C 0.41027 0.92283 0.05845 0.0
O827 O 0.38168 0.88579 0.05852 0.0
C828 C 0.38283 0.88974 0.01977 0.0
C829 C 0.42833 0.87846 0.01954 0.0
O830 O 0.40773 0.90909 0.06656 0.0
O831 O 0.41011 0.91936 0.04273 0.0
O832 O 0.38221 0.90115 0.03102 0.0
O833 O 0.39538 0.88143 0.02228 0.0
O834 O 0.42564 0.89086 0.02995 0.0
O835 O 0.41888 0.86475 0.0192 0.0
C836 C 0.39492 0.82931 0.0176 0.0
O837 O 0.40711 0.83416 0.02709 0.0
O838 O 0.38396 0.84061 0.01742 0.0
C839 C 0.40461 0.86037 0.06573 0.0
Tb840 Tb 0.90057 0.62449 0.77254 0.0
C841 C 0.88171 0.59491 0.79147 0.0
Tb842 Tb 0.86521 0.62993 0.78737 0.0
O843 O 0.91204 0.6397 0.79313 0.0
O844 O 0.88957 0.62844 0.79569 0.0
O845 O 0.89472 0.59964 0.78244 0.0
C846 C 0.84028 0.63771 0.80653 0.0
O847 O 0.86948 0.6047 0.79531 0.0
C848 C 0.86329 0.61775 0.75694 0.0
C849 C 0.88101 0.65639 0.76473 0.0
O850 O 0.85158 0.62745 0.81047 0.0
O851 O 0.84333 0.64383 0.792 0.0
O852 O 0.85062 0.6204 0.76602 0.0
O853 O 0.87574 0.62196 0.76545 0.0
O854 O 0.87359 0.65445 0.77918 0.0
O855 O 0.89051 0.64488 0.75871 0.0
C856 C 0.92517 0.61835 0.75189 0.0
O857 O 0.92347 0.63196 0.76024 0.0
O858 O 0.91335 0.60789 0.75574 0.0
C859 C 0.89924 0.63866 0.80259 0.0
Tb860 Tb 0.13589 0.13358 0.53506 0.0
C861 C 0.16266 0.11529 0.55551 0.0
Tb862 Tb 0.12861 0.09716 0.54452 0.0
O863 O 0.11855 0.14243 0.55368 0.0
O864 O 0.12974 0.12024 0.55679 0.0
O865 O 0.15948 0.12858 0.54643 0.0
C866 C 0.1276 0.0668 0.55732 0.0
O867 O 0.15204 0.10251 0.55727 0.0
C868 C 0.13658 0.10218 0.51353 0.0
C869 C 0.1019 0.11604 0.5251 0.0
O870 O 0.13899 0.073 0.54791 0.0
O871 O 0.11653 0.07778 0.55975 0.0
O872 O 0.12691 0.09021 0.51846 0.0
O873 O 0.14238 0.10989 0.52603 0.0
O874 O 0.10424 0.10406 0.53609 0.0
O875 O 0.11317 0.12771 0.52188 0.0
C876 C 0.14457 0.1595 0.51612 0.0
O877 O 0.13978 0.14489 0.51089 0.0
O878 O 0.14483 0.15959 0.53233 0.0
C879 C 0.11907 0.12919 0.56287 0.0
Tb880 Tb 0.09967 0.86786 0.79692 0.0
C881 C 0.11713 0.89861 0.81459 0.0
Tb882 Tb 0.13519 0.86491 0.80895 0.0
O883 O 0.09022 0.85167 0.81706 0.0
O884 O 0.11197 0.8649 0.82009 0.0
O885 O 0.10502 0.8938 0.8042 0.0
C886 C 0.16565 0.86767 0.8211 0.0
O887 O 0.12868 0.88855 0.81972 0.0
C888 C 0.13133 0.86944 0.77668 0.0
C889 C 0.11825 0.83413 0.79318 0.0
O890 O 0.15862 0.87838 0.81174 0.0
O891 O 0.15532 0.85542 0.82419 0.0
O892 O 0.1425 0.86075 0.78349 0.0
O893 O 0.12322 0.87582 0.78813 0.0
O894 O 0.12894 0.83886 0.80486 0.0
O895 O 0.10726 0.84419 0.78709 0.0
C896 C 0.07416 0.86923 0.77552 0.0
O897 O 0.08863 0.86402 0.77234 0.0
O898 O 0.07408 0.87442 0.79093 0.0
C899 C 0.10305 0.8538 0.82662 0.0
Tb900 Tb 0.61476 0.34199 0.48236 0.0
C901 C 0.64302 0.35121 0.45768 0.0
Tb902 Tb 0.61648 0.37614 0.46575 0.0
O903 O 0.61028 0.32907 0.45859 0.0
O904 O 0.60322 0.35342 0.46162 0.0
O905 O 0.63918 0.34327 0.47159 0.0
C906 C 0.61394 0.40636 0.45276 0.0
O907 O 0.63371 0.36267 0.45115 0.0
C908 C 0.63641 0.3723 0.49127 0.0
C909 C 0.58788 0.36812 0.49068 0.0
O910 O 0.61652 0.39294 0.44429 0.0
O911 O 0.61242 0.40257 0.46827 0.0
O912 O 0.63975 0.38164 0.47867 0.0
O913 O 0.62203 0.36649 0.48957 0.0
O914 O 0.59304 0.37756 0.47818 0.0
O915 O 0.59476 0.35398 0.49469 0.0
C916 C 0.61809 0.31874 0.50575 0.0
O917 O 0.6051 0.32039 0.49641 0.0
O918 O 0.62913 0.32985 0.50153 0.0
C919 C 0.60477 0.342 0.45101 0.0
Tb920 Tb 0.90461 0.35629 0.71817 0.0
C921 C 0.89075 0.38405 0.69632 0.0
Tb922 Tb 0.87032 0.35174 0.70427 0.0
O923 O 0.91605 0.35635 0.69419 0.0
O924 O 0.8937 0.34324 0.69698 0.0
O925 O 0.90019 0.38128 0.70947 0.0
C926 C 0.84044 0.3454 0.69104 0.0
O927 O 0.88026 0.37263 0.6902 0.0
C928 C 0.87317 0.37326 0.72868 0.0
C929 C 0.88198 0.32641 0.73143 0.0
O930 O 0.85361 0.34909 0.68272 0.0
O931 O 0.84442 0.3445 0.7066 0.0
O932 O 0.86275 0.37425 0.71657 0.0
O933 O 0.88071 0.35997 0.72732 0.0
O934 O 0.87077 0.32938 0.71983 0.0
O935 O 0.89582 0.33534 0.73274 0.0
C936 C 0.93183 0.35725 0.73683 0.0
O937 O 0.92694 0.34509 0.72719 0.0
O938 O 0.92146 0.36911 0.73581 0.0
C939 C 0.90416 0.34859 0.68639 0.0
Tb940 Tb 0.61194 0.60644 0.21822 0.0
C941 C 0.62821 0.57859 0.19704 0.0
Tb942 Tb 0.64887 0.61115 0.20839 0.0
O943 O 0.60485 0.62379 0.1982 0.0
O944 O 0.6258 0.61109 0.19657 0.0
O945 O 0.61559 0.58222 0.20658 0.0
C946 C 0.67707 0.61595 0.19304 0.0
O947 O 0.64107 0.58886 0.1947 0.0
C948 C 0.64673 0.59797 0.23821 0.0
C949 C 0.63336 0.63699 0.23184 0.0
O950 O 0.67077 0.60174 0.19754 0.0
O951 O 0.66729 0.62776 0.19687 0.0
O952 O 0.66034 0.60113 0.2306 0.0
O953 O 0.63528 0.6023 0.22873 0.0
O954 O 0.64432 0.63498 0.22003 0.0
O955 O 0.62109 0.62619 0.2346 0.0
C956 C 0.58309 0.5999 0.23267 0.0
O957 O 0.58685 0.61288 0.22388 0.0
O958 O 0.59554 0.5903 0.23307 0.0
C959 C 0.61804 0.62222 0.18959 0.0
Tb960 Tb 0.54361 0.63454 0.88253 0.0
C961 C 0.51796 0.61199 0.86491 0.0
Tb962 Tb 0.53524 0.64287 0.84648 0.0
O963 O 0.51853 0.63914 0.88988 0.0
O964 O 0.52873 0.65216 0.87007 0.0
O965 O 0.52949 0.61208 0.87656 0.0
C966 C 0.51797 0.64437 0.81776 0.0
O967 O 0.5171 0.62389 0.8537 0.0
C968 C 0.56346 0.62901 0.85012 0.0
C969 C 0.56085 0.66599 0.86554 0.0
O970 O 0.52551 0.63168 0.82343 0.0
O971 O 0.52071 0.65675 0.82802 0.0
O972 O 0.55965 0.63852 0.83777 0.0
O973 O 0.55077 0.62579 0.8587 0.0
O974 O 0.5499 0.66537 0.85305 0.0
O975 O 0.56154 0.65425 0.87703 0.0
C976 C 0.55491 0.62838 0.91327 0.0
O977 O 0.54648 0.64096 0.90884 0.0
O978 O 0.55752 0.61937 0.90019 0.0
C979 C 0.51571 0.6495 0.87805 0.0
Tb980 Tb 0.6173 0.27282 0.15003 0.0
C981 C 0.63971 0.24707 0.1318 0.0
Tb982 Tb 0.61445 0.26966 0.11356 0.0
O983 O 0.5941 0.25912 0.15329 0.0
O984 O 0.60924 0.25347 0.13359 0.0
O985 O 0.63829 0.25676 0.14511 0.0
C986 C 0.60704 0.26215 0.08191 0.0
O987 O 0.63011 0.24891 0.11862 0.0
C988 C 0.6345 0.29456 0.12362 0.0
C989 C 0.58858 0.2912 0.13243 0.0
O990 O 0.6206 0.26918 0.08723 0.0
O991 O 0.59741 0.25969 0.09443 0.0
O992 O 0.63655 0.28551 0.11054 0.0
O993 O 0.62123 0.28962 0.13006 0.0
O994 O 0.59216 0.28327 0.11848 0.0
O995 O 0.59801 0.29047 0.14595 0.0
C996 C 0.62589 0.27992 0.18148 0.0
O997 O 0.61517 0.26864 0.17672 0.0
O998 O 0.63198 0.28721 0.16846 0.0
C999 C 0.59549 0.25023 0.13997 0.0
Tb1000 Tb 0.00978 0.37604 0.38447 0.0
C1001 C 0.97778 0.36214 0.37067 0.0
Tb1002 Tb 0.98666 0.40045 0.37572 0.0
O1003 O 0.99397 0.36631 0.40379 0.0
O1004 O 0.99491 0.39182 0.39928 0.0
O1005 O 0.99364 0.36016 0.3699 0.0
C1006 C 0.95865 0.41571 0.36957 0.0
O1007 O 0.97215 0.37672 0.375 0.0
C1008 C 0.00848 0.39639 0.35255 0.0
C1009 C 0.02073 0.4137 0.38918 0.0
O1010 O 0.96758 0.40854 0.35874 0.0
O1011 O 0.96586 0.4149 0.38401 0.0
O1012 O 0.00206 0.41042 0.35611 0.0
O1013 O 0.00169 0.38495 0.36109 0.0
O1014 O 0.00557 0.41811 0.38546 0.0
O1015 O 0.02497 0.39806 0.38918 0.0
C1016 C 0.03468 0.35616 0.38804 0.0
O1017 O 0.02204 0.35628 0.39749 0.0
O1018 O 0.03346 0.36734 0.37663 0.0
C1019 C 0.98811 0.38041 0.40785 0.0
Tb1020 Tb 0.83803 0.71804 0.63293 0.0
C1021 C 0.80991 0.73892 0.61996 0.0
Tb1022 Tb 0.83999 0.73128 0.59765 0.0
O1023 O 0.85773 0.73426 0.64167 0.0
O1024 O 0.84294 0.74205 0.62198 0.0
O1025 O 0.8131 0.72568 0.62886 0.0
C1026 C 0.84497 0.74958 0.5702 0.0
O1027 O 0.82017 0.74459 0.60852 0.0
C1028 C 0.82619 0.70087 0.60021 0.0
C1029 C 0.87003 0.71305 0.61269 0.0
O1030 O 0.83116 0.74265 0.57465 0.0
O1031 O 0.85612 0.7459 0.58106 0.0
O1032 O 0.82403 0.71072 0.58773 0.0
O1033 O 0.83734 0.70761 0.60892 0.0
O1034 O 0.86493 0.72323 0.60098 0.0
O1035 O 0.86057 0.70747 0.6249 0.0
C1036 C 0.83392 0.70368 0.66251 0.0
O1037 O 0.83674 0.69597 0.64871 0.0
O1038 O 0.83281 0.71936 0.65944 0.0
C1039 C 0.85586 0.74547 0.63045 0.0
Tb1040 Tb 0.53091 0.41166 0.62242 0.0
C1041 C 0.51178 0.43962 0.63891 0.0
Tb1042 Tb 0.52132 0.40763 0.65851 0.0
O1043 O 0.51419 0.39186 0.61459 0.0
O1044 O 0.50836 0.40649 0.63521 0.0
O1045 O 0.52329 0.43666 0.62799 0.0
C1046 C 0.50586 0.40333 0.68751 0.0
O1047 O 0.50762 0.42867 0.65043 0.0
C1048 C 0.55158 0.42069 0.654 0.0
C1049 C 0.537 0.37778 0.64025 0.0
O1050 O 0.51444 0.41636 0.68313 0.0
O1051 O 0.50639 0.39233 0.67569 0.0
O1052 O 0.54296 0.42261 0.66723 0.0
O1053 O 0.54361 0.4103 0.64526 0.0
O1054 O 0.52838 0.38232 0.6533 0.0
O1055 O 0.54147 0.38812 0.62819 0.0
C1056 C 0.54302 0.41709 0.59218 0.0
O1057 O 0.55161 0.41528 0.60567 0.0
O1058 O 0.52763 0.41643 0.5959 0.0
C1059 C 0.50419 0.39368 0.62672 0.0
Tb1060 Tb 0.88096 0.25397 0.86691 0.0
C1061 C 0.89715 0.28866 0.87209 0.0
Tb1062 Tb 0.85837 0.28268 0.8755 0.0
O1063 O 0.87995 0.25545 0.83961 0.0
O1064 O 0.86749 0.27164 0.85405 0.0
O1065 O 0.89934 0.27258 0.87349 0.0
C1066 C 0.84734 0.31314 0.88038 0.0
O1067 O 0.88238 0.29496 0.87086 0.0
C1068 C 0.86485 0.26234 0.89999 0.0
C1069 C 0.84278 0.24723 0.86791 0.0
O1070 O 0.85647 0.30498 0.89049 0.0
O1071 O 0.8437 0.30379 0.8675 0.0
O1072 O 0.85139 0.27032 0.89854 0.0
O1073 O 0.87459 0.26705 0.88871 0.0
O1074 O 0.83979 0.26346 0.86785 0.0
O1075 O 0.85755 0.24138 0.87 0.0
C1076 C 0.89815 0.22697 0.86795 0.0
O1077 O 0.88329 0.22805 0.87323 0.0
O1078 O 0.90354 0.24125 0.86255 0.0
C1079 C 0.87055 0.26803 0.83924 0.0
Tb1080 Tb 0.96563 0.64575 0.1065 0.0
C1081 C 0.98427 0.61857 0.12542 0.0
Tb1082 Tb 0.97278 0.65081 0.14362 0.0
O1083 O 0.99183 0.6459 0.10139 0.0
O1084 O 0.98303 0.65955 0.12114 0.0
O1085 O 0.97377 0.62114 0.11309 0.0
C1086 C 0.98852 0.65869 0.17201 0.0
O1087 O 0.98712 0.62945 0.13754 0.0
C1088 C 0.9469 0.63128 0.13649 0.0
C1089 C 0.95332 0.67843 0.12467 0.0
O1090 O 0.97299 0.65467 0.17072 0.0
O1091 O 0.99489 0.65869 0.15736 0.0
O1092 O 0.9558 0.63014 0.14989 0.0
O1093 O 0.952 0.64389 0.12865 0.0
O1094 O 0.96073 0.67419 0.13881 0.0
O1095 O 0.95312 0.66892 0.11109 0.0
C1096 C 0.95482 0.64342 0.07527 0.0
O1097 O 0.96473 0.65495 0.08116 0.0
O1098 O 0.95057 0.63325 0.08712 0.0
C1099 C 0.99583 0.65493 0.1142 0.0
Tb1100 Tb 0.62737 0.69684 0.3754 0.0
C1101 C 0.65278 0.72374 0.38981 0.0
Tb1102 Tb 0.62553 0.70611 0.41247 0.0
O1103 O 0.60511 0.70954 0.36956 0.0
O1104 O 0.61976 0.71777 0.3893 0.0
O1105 O 0.64795 0.71482 0.37667 0.0
C1106 C 0.62264 0.72562 0.43966 0.0
O1107 O 0.6462 0.72172 0.40465 0.0
C1108 C 0.64492 0.68092 0.40549 0.0
C1109 C 0.60027 0.68006 0.39704 0.0
O1110 O 0.62572 0.73033 0.42467 0.0
O1111 O 0.62047 0.70947 0.43947 0.0
O1112 O 0.64591 0.68967 0.41911 0.0
O1113 O 0.63225 0.6854 0.39817 0.0
O1114 O 0.60181 0.69259 0.40796 0.0
O1115 O 0.61177 0.67739 0.38592 0.0
C1116 C 0.63249 0.68518 0.3449 0.0
O1117 O 0.64394 0.68821 0.35598 0.0
O1118 O 0.61846 0.68855 0.35112 0.0
C1119 C 0.60618 0.71975 0.38199 0.0
Tb1120 Tb 0.84604 0.51688 0.63478 0.0
C1121 C 0.84146 0.54999 0.65379 0.0
Tb1122 Tb 0.83542 0.54549 0.61481 0.0
O1123 O 0.86978 0.51696 0.62291 0.0
O1124 O 0.85817 0.53925 0.62631 0.0
O1125 O 0.84248 0.53375 0.65528 0.0
C1126 C 0.82862 0.57599 0.60377 0.0
O1127 O 0.83955 0.55719 0.63916 0.0
C1128 C 0.81241 0.52182 0.61921 0.0
C1129 C 0.84557 0.51359 0.59661 0.0
O1130 O 0.81996 0.56709 0.61402 0.0
O1131 O 0.841 0.56741 0.59914 0.0
O1132 O 0.81384 0.53081 0.60596 0.0
O1133 O 0.82302 0.52703 0.62973 0.0
O1134 O 0.84636 0.53006 0.59566 0.0
O1135 O 0.8412 0.50601 0.61049 0.0
C1136 C 0.85115 0.49139 0.65474 0.0
O1137 O 0.85939 0.50539 0.65494 0.0
O1138 O 0.83971 0.49178 0.64342 0.0
C1139 C 0.87061 0.53274 0.6201 0.0
Tb1140 Tb 0.69953 0.62394 0.86927 0.0
C1141 C 0.728 0.61249 0.84703 0.0
Tb1142 Tb 0.71016 0.58691 0.87181 0.0
O1143 O 0.71851 0.63559 0.88543 0.0
O1144 O 0.71796 0.61052 0.88069 0.0
O1145 O 0.71659 0.62354 0.84894 0.0
C1146 C 0.72662 0.55894 0.86912 0.0
O1147 O 0.72814 0.5983 0.85527 0.0
C1148 C 0.68038 0.59169 0.86 0.0
C1149 C 0.68861 0.60175 0.89945 0.0
O1150 O 0.71831 0.56585 0.85735 0.0
O1151 O 0.72522 0.56753 0.88277 0.0
O1152 O 0.68473 0.5782 0.86735 0.0
O1153 O 0.69302 0.60087 0.85797 0.0
O1154 O 0.70015 0.59086 0.89641 0.0
O1155 O 0.68424 0.61329 0.88866 0.0
C1156 C 0.68649 0.65289 0.86171 0.0
O1157 O 0.68448 0.64484 0.87551 0.0
O1158 O 0.69489 0.64392 0.85177 0.0
C1159 C 0.72586 0.62191 0.88829 0.0
Tb1160 Tb 0.63033 0.43976 0.13027 0.0
C1161 C 0.64809 0.45405 0.10028 0.0
Tb1162 Tb 0.66768 0.44849 0.13443 0.0
O1163 O 0.62575 0.46606 0.12738 0.0
O1164 O 0.64521 0.45876 0.14188 0.0
O1165 O 0.63661 0.44299 0.10453 0.0
C1166 C 0.6933 0.47044 0.13443 0.0
O1167 O 0.66024 0.45863 0.11051 0.0
C1168 C 0.66031 0.41866 0.12108 0.0
C1169 C 0.64885 0.43165 0.16419 0.0
O1170 O 0.67876 0.47263 0.12847 0.0
O1171 O 0.69351 0.45565 0.14117 0.0
O1172 O 0.67468 0.42617 0.12004 0.0
O1173 O 0.65236 0.42733 0.13077 0.0
O1174 O 0.66202 0.44113 0.16016 0.0
O1175 O 0.63668 0.42796 0.15352 0.0
C1176 C 0.59936 0.42887 0.13199 0.0
O1177 O 0.60727 0.43731 0.1434 0.0
O1178 O 0.60895 0.42621 0.11954 0.0
C1179 C 0.63836 0.47121 0.13602 0.0
Tb1180 Tb 0.77895 0.3823 0.39253 0.0
C1181 C 0.81033 0.39199 0.41384 0.0
Tb1182 Tb 0.80767 0.39994 0.37489 0.0
O1183 O 0.78342 0.35967 0.37888 0.0
O1184 O 0.80304 0.37568 0.38505 0.0
O1185 O 0.79526 0.38534 0.41398 0.0
C1186 C 0.83726 0.40886 0.36363 0.0
O1187 O 0.81736 0.39784 0.40018 0.0
C1188 C 0.78487 0.42179 0.38158 0.0
C1189 C 0.77585 0.39021 0.35511 0.0
O1190 O 0.82896 0.41679 0.37447 0.0
O1191 O 0.82871 0.39576 0.35866 0.0
O1192 O 0.79833 0.42525 0.37378 0.0
O1193 O 0.7851 0.40655 0.38501 0.0
O1194 O 0.79208 0.39145 0.35392 0.0
O1195 O 0.76823 0.39044 0.3695 0.0
C1196 C 0.7526 0.37197 0.40917 0.0
O1197 O 0.75903 0.36431 0.39687 0.0
O1198 O 0.761 0.38565 0.41224 0.0
C1199 C 0.799 0.36245 0.37725 0.0
Tb1200 Tb 0.88034 0.45711 0.86409 0.0
C1201 C 0.86377 0.4816 0.88853 0.0
Tb1202 Tb 0.84462 0.4642 0.85845 0.0
O1203 O 0.88727 0.47166 0.84255 0.0
O1204 O 0.86705 0.47813 0.85645 0.0
O1205 O 0.87555 0.47087 0.88687 0.0
C1206 C 0.81495 0.4765 0.85255 0.0
O1207 O 0.85156 0.48227 0.87761 0.0
C1208 C 0.85012 0.43753 0.87683 0.0
C1209 C 0.86277 0.44198 0.83236 0.0
O1210 O 0.81859 0.46594 0.86395 0.0
O1211 O 0.82795 0.47955 0.84375 0.0
O1212 O 0.83768 0.4469 0.87836 0.0
O1213 O 0.85811 0.44295 0.86468 0.0
O1214 O 0.84999 0.45153 0.83492 0.0
O1215 O 0.87464 0.44036 0.8436 0.0
C1216 C 0.91011 0.44773 0.8734 0.0
O1217 O 0.90697 0.45959 0.8632 0.0
O1218 O 0.89639 0.44102 0.87852 0.0
C1219 C 0.87503 0.48138 0.84343 0.0
Tb1220 Tb 0.80365 0.6299 0.12075 0.0
C1221 C 0.78787 0.61194 0.15108 0.0
Tb1222 Tb 0.79657 0.59192 0.11846 0.0
O1223 O 0.7855 0.63347 0.10144 0.0
O1224 O 0.7826 0.61363 0.118 0.0
O1225 O 0.79728 0.62465 0.14629 0.0
C1226 C 0.77996 0.56246 0.11485 0.0
O1227 O 0.78474 0.59875 0.1415 0.0
C1228 C 0.82569 0.60128 0.13097 0.0
C1229 C 0.81306 0.61165 0.08804 0.0
O1230 O 0.77649 0.5763 0.10762 0.0
O1231 O 0.79347 0.565 0.12331 0.0
O1232 O 0.81848 0.58695 0.13388 0.0
O1233 O 0.81725 0.60827 0.12016 0.0
O1234 O 0.8047 0.59786 0.09279 0.0
O1235 O 0.81642 0.62431 0.09828 0.0
C1236 C 0.81109 0.66208 0.12568 0.0
O1237 O 0.79702 0.65582 0.12088 0.0
O1238 O 0.82118 0.65014 0.12793 0.0
C1239 C 0.77681 0.62029 0.10513 0.0
Tb1240 Tb 0.63801 0.54129 0.38686 0.0
C1241 C 0.65154 0.5174 0.41282 0.0
Tb1242 Tb 0.67152 0.52833 0.38047 0.0
O1243 O 0.62654 0.51667 0.3858 0.0
O1244 O 0.6473 0.52194 0.37183 0.0
O1245 O 0.64171 0.52995 0.41087 0.0
C1246 C 0.69689 0.50783 0.37814 0.0
O1247 O 0.66322 0.51431 0.4021 0.0
C1248 C 0.67107 0.55963 0.39041 0.0
C1249 C 0.65554 0.54956 0.35302 0.0
O1250 O 0.69642 0.52098 0.38748 0.0
O1251 O 0.68334 0.5067 0.36958 0.0
O1252 O 0.68204 0.55381 0.38059 0.0
O1253 O 0.66192 0.54772 0.3953 0.0
O1254 O 0.66581 0.53738 0.35569 0.0
O1255 O 0.64594 0.55506 0.36487 0.0
C1256 C 0.60991 0.55697 0.38873 0.0
O1257 O 0.61623 0.55108 0.37541 0.0
O1258 O 0.61975 0.55452 0.4012 0.0
C1259 C 0.63749 0.51046 0.37644 0.0
Tb1260 Tb 0.73373 0.39613 0.61222 0.0
C1261 C 0.69934 0.39886 0.5967 0.0
Tb1262 Tb 0.70447 0.40284 0.63572 0.0
O1263 O 0.73216 0.36869 0.61266 0.0
O1264 O 0.71535 0.38253 0.62448 0.0
O1265 O 0.71504 0.40256 0.5944 0.0
C1266 C 0.67418 0.40905 0.64621 0.0
O1267 O 0.6932 0.39613 0.61167 0.0
C1268 C 0.72633 0.42761 0.63139 0.0
C1269 C 0.73765 0.39201 0.65096 0.0
O1270 O 0.6828 0.41784 0.63583 0.0
O1271 O 0.68286 0.39666 0.65123 0.0
O1272 O 0.71812 0.42506 0.64491 0.0
O1273 O 0.72124 0.41715 0.62062 0.0
O1274 O 0.72144 0.39109 0.65309 0.0
O1275 O 0.74462 0.397 0.63692 0.0
C1276 C 0.75997 0.39885 0.5933 0.0
O1277 O 0.75882 0.40519 0.60809 0.0
O1278 O 0.74628 0.39128 0.58912 0.0
C1279 C 0.71907 0.3678 0.6216 0.0
Tb1280 Tb 0.63088 0.87736 0.56044 0.0
C1281 C 0.60439 0.86025 0.537 0.0
Tb1282 Tb 0.63637 0.84184 0.54917 0.0
O1283 O 0.65234 0.88628 0.54687 0.0
O1284 O 0.63873 0.86579 0.5382 0.0
O1285 O 0.60825 0.87331 0.54644 0.0
C1286 C 0.63816 0.81408 0.53035 0.0
O1287 O 0.61338 0.84689 0.53632 0.0
C1288 C 0.62681 0.84495 0.5802 0.0
C1289 C 0.66303 0.86052 0.57124 0.0
O1290 O 0.62859 0.81601 0.54293 0.0
O1291 O 0.64721 0.82759 0.52884 0.0
O1292 O 0.63616 0.83337 0.57495 0.0
O1293 O 0.62218 0.85343 0.56791 0.0
O1294 O 0.66083 0.8496 0.55886 0.0
O1295 O 0.65132 0.87041 0.57597 0.0
C1296 C 0.62245 0.90692 0.57213 0.0
O1297 O 0.62656 0.89437 0.58121 0.0
O1298 O 0.62271 0.90258 0.55663 0.0
C1299 C 0.65148 0.87468 0.53572 0.0
Tb1300 Tb 0.09815 0.61 0.46296 0.0
C1301 C 0.07247 0.62601 0.48617 0.0
Tb1302 Tb 0.10603 0.64412 0.47523 0.0
O1303 O 0.11785 0.59995 0.47807 0.0
O1304 O 0.10549 0.62044 0.48632 0.0
O1305 O 0.07525 0.61335 0.47614 0.0
C1306 C 0.10978 0.67206 0.49269 0.0
O1307 O 0.08266 0.63913 0.48738 0.0
C1308 C 0.10154 0.6433 0.44287 0.0
C1309 C 0.13313 0.62515 0.45756 0.0
O1310 O 0.09818 0.66881 0.48192 0.0
O1311 O 0.11945 0.65962 0.49351 0.0
O1312 O 0.1107 0.654 0.45095 0.0
O1313 O 0.09345 0.63426 0.45319 0.0
O1314 O 0.13056 0.63615 0.46943 0.0
O1315 O 0.12108 0.61591 0.4509 0.0
C1316 C 0.09075 0.58084 0.44816 0.0
O1317 O 0.0945 0.59467 0.44063 0.0
O1318 O 0.08999 0.58393 0.46392 0.0
C1319 C 0.11719 0.61116 0.48952 0.0
Tb1320 Tb 0.63891 0.88762 0.71737 0.0
C1321 C 0.63027 0.85613 0.73974 0.0
Tb1322 Tb 0.60406 0.88305 0.73159 0.0
O1323 O 0.64435 0.90841 0.73398 0.0
O1324 O 0.62797 0.88964 0.74101 0.0
O1325 O 0.64097 0.86371 0.72979 0.0
C1326 C 0.58074 0.88438 0.755 0.0
O1327 O 0.6153 0.86144 0.74209 0.0
C1328 C 0.60902 0.86823 0.70251 0.0
C1329 C 0.61329 0.91359 0.7089 0.0
O1330 O 0.5964 0.88414 0.75745 0.0
O1331 O 0.57795 0.88423 0.73898 0.0
O1332 O 0.5971 0.86388 0.71245 0.0
O1333 O 0.61546 0.88134 0.70827 0.0
O1334 O 0.60473 0.90872 0.72214 0.0
O1335 O 0.6247 0.90428 0.7024 0.0
C1336 C 0.66814 0.88705 0.70302 0.0
O1337 O 0.66047 0.90023 0.70699 0.0
O1338 O 0.65911 0.87401 0.70663 0.0
C1339 C 0.6338 0.90377 0.74501 0.0
Tb1340 Tb 0.36853 0.40402 0.9594 0.0
C1341 C 0.39653 0.38953 0.98186 0.0
Tb1342 Tb 0.36676 0.36726 0.96769 0.0
O1343 O 0.34845 0.4082 0.97631 0.0
O1344 O 0.36456 0.38962 0.98124 0.0
O1345 O 0.39211 0.40219 0.97247 0.0
C1346 C 0.35889 0.33848 0.98284 0.0
O1347 O 0.38755 0.37557 0.98305 0.0
C1348 C 0.38223 0.37439 0.93952 0.0
C1349 C 0.3393 0.38246 0.94505 0.0
O1350 O 0.37186 0.34141 0.97402 0.0
O1351 O 0.35016 0.35161 0.98269 0.0
O1352 O 0.38433 0.36108 0.94825 0.0
O1353 O 0.37052 0.38163 0.94597 0.0
O1354 O 0.34254 0.37073 0.95607 0.0
O1355 O 0.35 0.39474 0.94184 0.0
C1356 C 0.3707 0.43549 0.94927 0.0
O1357 O 0.35808 0.42808 0.95577 0.0
O1358 O 0.38255 0.42513 0.94833 0.0
C1359 C 0.35155 0.39593 0.98594 0.0
Tb1360 Tb 0.36612 0.63847 0.69784 0.0
C1361 C 0.38042 0.66734 0.71863 0.0
Tb1362 Tb 0.40129 0.63709 0.70918 0.0
O1363 O 0.35974 0.61699 0.71262 0.0
O1364 O 0.37817 0.63349 0.72115 0.0
O1365 O 0.37089 0.66394 0.70569 0.0
C1366 C 0.42952 0.63623 0.72701 0.0
O1367 O 0.39105 0.65662 0.72409 0.0
C1368 C 0.3971 0.65215 0.67967 0.0
C1369 C 0.38558 0.60763 0.6872 0.0
O1370 O 0.42336 0.6491 0.72012 0.0
O1371 O 0.42004 0.62337 0.72329 0.0
O1372 O 0.40949 0.65476 0.68965 0.0
O1373 O 0.38907 0.64034 0.68604 0.0
O1374 O 0.39736 0.6119 0.69827 0.0
O1375 O 0.37352 0.61758 0.68336 0.0
C1376 C 0.33512 0.64308 0.68842 0.0
O1377 O 0.34694 0.63944 0.67852 0.0
O1378 O 0.34093 0.64455 0.70338 0.0
C1379 C 0.37063 0.61983 0.72413 0.0
Tb1380 Tb 0.89308 0.12793 0.03862 0.0
C1381 C 0.917 0.13907 0.01103 0.0
Tb1382 Tb 0.88811 0.16276 0.02103 0.0
O1383 O 0.87911 0.11257 0.02017 0.0
O1384 O 0.88144 0.13767 0.01793 0.0
O1385 O 0.91588 0.13102 0.02534 0.0
C1386 C 0.88364 0.18608 0.99789 0.0
O1387 O 0.90689 0.1509 0.00665 0.0
C1388 C 0.89901 0.16357 0.05215 0.0
C1389 C 0.86125 0.14816 0.04453 0.0
O1390 O 0.897 0.18441 0.00662 0.0
O1391 O 0.8728 0.17497 1.0026 0.0
O1392 O 0.8914 0.1756 0.04502 0.0
O1393 O 0.90202 0.1529 0.04117 0.0
O1394 O 0.86404 0.15752 0.03123 0.0
O1395 O 0.87203 0.13791 0.05089 0.0
C1396 C 0.89811 0.10176 0.05803 0.0
O1397 O 0.8898 0.1146 0.06206 0.0
O1398 O 0.90439 0.10431 0.0435 0.0
C1399 C 0.87525 0.12501 0.01101 0.0
Tb1400 Tb 0.63569 0.15534 0.79608 0.0
C1401 C 0.61901 0.18012 0.7723 0.0
Tb1402 Tb 0.59984 0.14887 0.78784 0.0
O1403 O 0.64278 0.13486 0.78071 0.0
O1404 O 0.62202 0.14809 0.77432 0.0
O1405 O 0.63024 0.17907 0.78426 0.0
C1406 C 0.57011 0.14415 0.77359 0.0
O1407 O 0.6072 0.16853 0.77064 0.0
C1408 C 0.60545 0.16257 0.81816 0.0
C1409 C 0.61907 0.1207 0.80535 0.0
O1410 O 0.57536 0.15721 0.78169 0.0
O1411 O 0.58145 0.1332 0.77412 0.0
O1412 O 0.59268 0.16471 0.80882 0.0
O1413 O 0.61392 0.15269 0.81016 0.0
O1414 O 0.60573 0.12395 0.79642 0.0
O1415 O 0.63063 0.13221 0.80898 0.0
C1416 C 0.6664 0.16159 0.80697 0.0
O1417 O 0.66188 0.15893 0.79171 0.0
O1418 O 0.65337 0.16158 0.81613 0.0
C1419 C 0.63022 0.13555 0.77085 0.0
Tb1420 Tb 0.84804 0.89215 0.29226 0.0
C1421 C 0.86408 0.86528 0.2697 0.0
Tb1422 Tb 0.88434 0.89527 0.28613 0.0
O1423 O 0.84393 0.91334 0.27657 0.0
O1424 O 0.86285 0.89745 0.27123 0.0
O1425 O 0.85167 0.86845 0.27955 0.0
C1426 C 0.91407 0.90184 0.27323 0.0
O1427 O 0.87733 0.87517 0.26917 0.0
C1428 C 0.87624 0.87993 0.31439 0.0
C1429 C 0.86683 0.92413 0.30548 0.0
O1430 O 0.90987 0.88892 0.28194 0.0
O1431 O 0.90168 0.91148 0.2724 0.0
O1432 O 0.8893 0.87717 0.30594 0.0
O1433 O 0.86939 0.89166 0.30727 0.0
O1434 O 0.88001 0.91983 0.29705 0.0
O1435 O 0.85378 0.91401 0.30723 0.0
C1436 C 0.81698 0.88482 0.30009 0.0
O1437 O 0.82187 0.8934 0.28744 0.0
O1438 O 0.82968 0.88028 0.30862 0.0
C1439 C 0.85621 0.91075 0.26699 0.0
Tb1440 Tb 0.46623 0.36735 0.16088 0.0
C1441 C 0.44179 0.34278 0.14127 0.0
Tb1442 Tb 0.4596 0.37377 0.12347 0.0
O1443 O 0.45043 0.38779 0.16827 0.0
O1444 O 0.44686 0.37598 0.1459 0.0
O1445 O 0.45079 0.34502 0.1552 0.0
C1446 C 0.44796 0.37905 0.09297 0.0
O1447 O 0.44271 0.35304 0.12836 0.0
C1448 C 0.48809 0.36096 0.13063 0.0
C1449 C 0.48146 0.39908 0.14264 0.0
O1450 O 0.45382 0.36522 0.09822 0.0
O1451 O 0.44839 0.38986 0.10498 0.0
O1452 O 0.48531 0.37015 0.11782 0.0
O1453 O 0.47467 0.35806 0.13783 0.0
O1454 O 0.47015 0.39763 0.13087 0.0
O1455 O 0.48295 0.38793 0.15451 0.0
C1456 C 0.48419 0.36044 0.18809 0.0
O1457 O 0.48942 0.36185 0.17301 0.0
O1458 O 0.46833 0.36206 0.18784 0.0
C1459 C 0.44219 0.38801 0.15433 0.0
Tb1460 Tb 0.38611 0.73555 0.89678 0.0
C1461 C 0.41288 0.71584 0.87767 0.0
Tb1462 Tb 0.3827 0.73216 0.85849 0.0
O1463 O 0.36504 0.71835 0.89995 0.0
O1464 O 0.37945 0.71616 0.87938 0.0
O1465 O 0.40834 0.72218 0.89212 0.0
C1466 C 0.37778 0.72114 0.82769 0.0
O1467 O 0.40417 0.71727 0.86368 0.0
C1468 C 0.39869 0.76011 0.86632 0.0
C1469 C 0.3604 0.75696 0.87745 0.0
O1470 O 0.39166 0.7263 0.83407 0.0
O1471 O 0.36631 0.722 0.83877 0.0
O1472 O 0.39525 0.75557 0.85118 0.0
O1473 O 0.39298 0.74894 0.87566 0.0
O1474 O 0.36129 0.74698 0.86427 0.0
O1475 O 0.37035 0.75581 0.8905 0.0
C1476 C 0.39298 0.74432 0.92818 0.0
O1477 O 0.37933 0.73748 0.92284 0.0
O1478 O 0.403 0.74585 0.91585 0.0
C1479 C 0.3666 0.71039 0.88607 0.0
Tb1480 Tb 0.01677 0.60317 0.62604 0.0
C1481 C 0.98079 0.59153 0.61859 0.0
Tb1482 Tb 0.99364 0.62844 0.61985 0.0
O1483 O 0.00327 0.59333 0.64707 0.0
O1484 O 0.00351 0.61885 0.64215 0.0
O1485 O 0.99621 0.58695 0.61708 0.0
C1486 C 0.9698 0.64956 0.6169 0.0
O1487 O 0.97722 0.60701 0.62186 0.0
C1488 C 0.013 0.62386 0.59434 0.0
C1489 C 0.02764 0.64141 0.63031 0.0
O1490 O 0.97945 0.64849 0.62967 0.0
O1491 O 0.97314 0.63836 0.60604 0.0
O1492 O 0.00763 0.63794 0.59912 0.0
O1493 O 0.00686 0.61253 0.60345 0.0
O1494 O 0.01203 0.64467 0.63084 0.0
O1495 O 0.03238 0.62621 0.6269 0.0
C1496 C 0.04377 0.58564 0.62973 0.0
O1497 O 0.03514 0.59165 0.64149 0.0
O1498 O 0.03688 0.58907 0.61559 0.0
C1499 C 0.99751 0.60746 0.65131 0.0
Tb1500 Tb 0.16295 0.27227 0.40661 0.0
C1501 C 0.13157 0.28771 0.39098 0.0
Tb1502 Tb 0.1641 0.28582 0.37086 0.0
O1503 O 0.17865 0.29358 0.41566 0.0
O1504 O 0.16395 0.29566 0.39498 0.0
O1505 O 0.13726 0.2776 0.4025 0.0
C1506 C 0.16782 0.30116 0.34192 0.0
O1507 O 0.14065 0.29431 0.37894 0.0
C1508 C 0.14786 0.25772 0.37357 0.0
C1509 C 0.195 0.26877 0.38564 0.0
O1510 O 0.16534 0.3085 0.35604 0.0
O1511 O 0.16868 0.28534 0.34431 0.0
O1512 O 0.1454 0.26842 0.36195 0.0
O1513 O 0.1605 0.26212 0.38206 0.0
O1514 O 0.18948 0.27925 0.37446 0.0
O1515 O 0.18657 0.26411 0.39886 0.0
C1516 C 0.15936 0.25114 0.43201 0.0
O1517 O 0.1568 0.26698 0.43279 0.0
O1518 O 0.16362 0.24744 0.41706 0.0
C1519 C 0.17484 0.30324 0.40336 0.0
Tb1520 Tb 0.47905 0.59288 0.34627 0.0
C1521 C 0.45939 0.62353 0.35856 0.0
Tb1522 Tb 0.47094 0.59571 0.38226 0.0
O1523 O 0.45895 0.57433 0.3415 0.0
O1524 O 0.45728 0.59099 0.36035 0.0
O1525 O 0.46883 0.61762 0.34673 0.0
C1526 C 0.46382 0.59464 0.41442 0.0
O1527 O 0.45636 0.61539 0.37257 0.0
C1528 C 0.49591 0.61458 0.37306 0.0
C1529 C 0.49266 0.567 0.37144 0.0
O1530 O 0.4778 0.59903 0.4082 0.0
O1531 O 0.45358 0.59064 0.40245 0.0
O1532 O 0.48521 0.61865 0.3839 0.0
O1533 O 0.49281 0.59981 0.3682 0.0
O1534 O 0.48094 0.57105 0.38167 0.0
O1535 O 0.49525 0.57529 0.35753 0.0
C1536 C 0.49325 0.59541 0.31652 0.0
O1537 O 0.48656 0.58202 0.32269 0.0
O1538 O 0.4915 0.60753 0.32692 0.0
C1539 C 0.45022 0.57839 0.35415 0.0
Tb1540 Tb 0.14261 0.72406 0.12926 0.0
C1541 C 0.15496 0.76011 0.13905 0.0
Tb1542 Tb 0.11795 0.74842 0.13607 0.0
O1543 O 0.15225 0.73774 0.10804 0.0
O1544 O 0.12734 0.73849 0.11385 0.0
O1545 O 0.15939 0.74432 0.13841 0.0
C1546 C 0.09838 0.77353 0.14004 0.0
O1547 O 0.13968 0.76432 0.13653 0.0
C1548 C 0.12248 0.72731 0.16044 0.0
C1549 C 0.10424 0.71535 0.12323 0.0
O1550 O 0.106 0.76616 0.15189 0.0
O1551 O 0.10203 0.76706 0.12587 0.0
O1552 O 0.10842 0.73263 0.15575 0.0
O1553 O 0.13353 0.73412 0.15166 0.0
O1554 O 0.10161 0.73132 0.12349 0.0
O1555 O 0.11892 0.70967 0.12687 0.0
C1556 C 0.15716 0.69466 0.1285 0.0
O1557 O 0.15381 0.70375 0.11576 0.0
O1558 O 0.15319 0.70267 0.14179 0.0
C1559 C 0.13843 0.7445 0.10454 0.0
Tb1560 Tb 0.02911 0.35847 0.85753 0.0
C1561 C 0.04606 0.32946 0.87739 0.0
Tb1562 Tb 0.03346 0.3615 0.89634 0.0
O1563 O 0.04878 0.37726 0.85401 0.0
O1564 O 0.04867 0.36268 0.87498 0.0
O1565 O 0.03987 0.33442 0.86285 0.0
C1566 C 0.04398 0.36545 0.92736 0.0
O1567 O 0.04584 0.33855 0.89122 0.0
C1568 C 0.00378 0.35004 0.88782 0.0
C1569 C 0.01409 0.38819 0.8774 0.0
O1570 O 0.03567 0.35267 0.92159 0.0
O1571 O 0.04681 0.37611 0.9155 0.0
O1572 O 0.00839 0.35285 0.90305 0.0
O1573 O 0.01583 0.35381 0.87897 0.0
O1574 O 0.02417 0.38572 0.89014 0.0
O1575 O 0.01247 0.37772 0.86467 0.0
C1576 C 0.0176 0.3532 0.82663 0.0
O1577 O 0.0259 0.36626 0.83175 0.0
O1578 O 0.01635 0.34273 0.83882 0.0
C1579 C 0.05584 0.37494 0.86828 0.0
Tb1580 Tb 0.37786 0.29725 0.59019 0.0
C1581 C 0.40134 0.32302 0.60791 0.0
Tb1582 Tb 0.37023 0.30669 0.62523 0.0
O1583 O 0.37443 0.32227 0.5811 0.0
O1584 O 0.361 0.31361 0.60154 0.0
O1585 O 0.40072 0.31119 0.59626 0.0
C1586 C 0.36682 0.32078 0.65498 0.0
O1587 O 0.38917 0.32494 0.61841 0.0
C1588 C 0.3847 0.27814 0.62267 0.0
C1589 C 0.34772 0.27983 0.60921 0.0
O1590 O 0.38033 0.31575 0.64883 0.0
O1591 O 0.35501 0.31815 0.64424 0.0
O1592 O 0.37455 0.28181 0.63419 0.0
O1593 O 0.38759 0.29091 0.61397 0.0
O1594 O 0.34817 0.29161 0.62069 0.0
O1595 O 0.35895 0.27907 0.59756 0.0
C1596 C 0.37936 0.27936 0.56182 0.0
O1597 O 0.36772 0.28894 0.56608 0.0
O1598 O 0.39076 0.28047 0.57327 0.0
C1599 C 0.36448 0.32632 0.59279 0.0
Tb1600 Tb 0.16637 0.45864 0.38774 0.0
C1601 C 0.15529 0.49023 0.40566 0.0
Tb1602 Tb 0.1555 0.48655 0.36726 0.0
O1603 O 0.18748 0.47342 0.3973 0.0
O1604 O 0.1788 0.47729 0.37314 0.0
O1605 O 0.15517 0.47379 0.40688 0.0
C1606 C 0.1463 0.51491 0.35398 0.0
O1607 O 0.15926 0.49773 0.39164 0.0
C1608 C 0.13233 0.46332 0.37198 0.0
C1609 C 0.16427 0.45552 0.34806 0.0
O1610 O 0.13877 0.50679 0.36557 0.0
O1611 O 0.15945 0.5073 0.34998 0.0
O1612 O 0.13431 0.47176 0.35849 0.0
O1613 O 0.14302 0.46851 0.38239 0.0
O1614 O 0.16373 0.47181 0.34695 0.0
O1615 O 0.16412 0.44786 0.36262 0.0
C1616 C 0.17062 0.42811 0.40039 0.0
O1617 O 0.1821 0.43814 0.39501 0.0
O1618 O 0.15684 0.43552 0.39913 0.0
C1619 C 0.18897 0.48258 0.3841 0.0
Tb1620 Tb 0.29205 0.41966 0.13184 0.0
C1621 C 0.31199 0.40431 0.10342 0.0
Tb1622 Tb 0.30098 0.3843 0.13503 0.0
O1623 O 0.31763 0.42837 0.13312 0.0
O1624 O 0.31025 0.40682 0.14573 0.0
O1625 O 0.3011 0.41566 0.10686 0.0
C1626 C 0.31191 0.3535 0.13581 0.0
O1627 O 0.31589 0.39267 0.11423 0.0
C1628 C 0.27078 0.3878 0.12397 0.0
C1629 C 0.27819 0.39752 0.16143 0.0
O1630 O 0.30728 0.36137 0.1227 0.0
O1631 O 0.31128 0.36339 0.14852 0.0
O1632 O 0.2757 0.37549 0.13266 0.0
O1633 O 0.28312 0.397 0.12054 0.0
O1634 O 0.29008 0.38712 0.15918 0.0
O1635 O 0.27609 0.41019 0.15135 0.0
C1636 C 0.27565 0.44801 0.13268 0.0
O1637 O 0.2852 0.44263 0.14429 0.0
O1638 O 0.27583 0.43769 0.12024 0.0
C1639 C 0.32256 0.41576 0.14155 0.0
Tb1640 Tb 0.33425 0.55535 0.86978 0.0
C1641 C 0.35052 0.57347 0.83842 0.0
Tb1642 Tb 0.37111 0.56481 0.87011 0.0
O1643 O 0.32837 0.57774 0.88462 0.0
O1644 O 0.34908 0.57731 0.87097 0.0
O1645 O 0.33797 0.56384 0.84383 0.0
C1646 C 0.40244 0.57368 0.87524 0.0
O1647 O 0.36371 0.57735 0.84766 0.0
C1648 C 0.36268 0.53747 0.85425 0.0
C1649 C 0.35657 0.54653 0.90059 0.0
O1650 O 0.39645 0.55862 0.87493 0.0
O1651 O 0.39076 0.58393 0.87267 0.0
O1652 O 0.37482 0.54734 0.85019 0.0
O1653 O 0.35649 0.54249 0.8676 0.0
O1654 O 0.36727 0.55822 0.89598 0.0
O1655 O 0.34389 0.54198 0.89105 0.0
C1656 C 0.30565 0.53742 0.8687 0.0
O1657 O 0.31057 0.54755 0.88044 0.0
O1658 O 0.31648 0.53817 0.85695 0.0
C1659 C 0.3421 0.58578 0.88159 0.0
Tb1660 Tb 0.19368 0.60405 0.63081 0.0
C1661 C 0.22461 0.61638 0.64978 0.0
Tb1662 Tb 0.22247 0.618 0.61095 0.0
O1663 O 0.20789 0.58377 0.64001 0.0
O1664 O 0.21304 0.59349 0.61651 0.0
O1665 O 0.20838 0.6155 0.65091 0.0
C1666 C 0.25113 0.62383 0.59658 0.0
O1667 O 0.23231 0.61411 0.63564 0.0
C1668 C 0.20393 0.64281 0.62003 0.0
C1669 C 0.19011 0.61023 0.59163 0.0
O1670 O 0.24802 0.62622 0.61209 0.0
O1671 O 0.23821 0.61747 0.5891 0.0
O1672 O 0.21704 0.64458 0.61128 0.0
O1673 O 0.20197 0.62753 0.62278 0.0
O1674 O 0.20617 0.61219 0.59022 0.0
O1675 O 0.1829 0.60845 0.60623 0.0
C1676 C 0.16409 0.59299 0.63999 0.0
O1677 O 0.17377 0.58553 0.63004 0.0
O1678 O 0.17124 0.60677 0.64524 0.0
C1679 C 0.21768 0.58328 0.62749 0.0
Tb1680 Tb 0.15632 0.54297 0.14288 0.0
C1681 C 0.14206 0.56628 0.17028 0.0
Tb1682 Tb 0.11997 0.5508 0.14162 0.0
O1683 O 0.16152 0.56098 0.12288 0.0
O1684 O 0.1423 0.56421 0.13824 0.0
O1685 O 0.15373 0.55564 0.16698 0.0
C1686 C 0.09019 0.56214 0.13537 0.0
O1687 O 0.12951 0.56859 0.16 0.0
C1688 C 0.1273 0.52606 0.16109 0.0
C1689 C 0.13311 0.52468 0.11599 0.0
O1690 O 0.09524 0.55623 0.14938 0.0
O1691 O 0.10199 0.56179 0.12468 0.0
O1692 O 0.1147 0.53516 0.16303 0.0
O1693 O 0.13391 0.52985 0.14751 0.0
O1694 O 0.12123 0.53496 0.11941 0.0
O1695 O 0.147 0.52483 0.1247 0.0
C1696 C 0.18607 0.52997 0.14616 0.0
O1697 O 0.18118 0.53921 0.1341 0.0
O1698 O 0.17434 0.52857 0.15693 0.0
C1699 C 0.14906 0.57008 0.12557 0.0
Tb1700 Tb 0.208 0.41057 0.884 0.0
C1701 C 0.19529 0.39116 0.91606 0.0
Tb1702 Tb 0.20024 0.37113 0.88198 0.0
O1703 O 0.18445 0.41528 0.87136 0.0
O1704 O 0.18757 0.39355 0.88408 0.0
O1705 O 0.20205 0.40536 0.9102 0.0
C1706 C 0.18865 0.33988 0.88174 0.0
O1707 O 0.19232 0.37763 0.90678 0.0
C1708 C 0.23158 0.37894 0.8872 0.0
C1709 C 0.21474 0.38904 0.8515 0.0
O1710 O 0.19897 0.34641 0.89244 0.0
O1711 O 0.18422 0.35121 0.8712 0.0
O1712 O 0.22591 0.36384 0.88541 0.0
O1713 O 0.21966 0.38808 0.8856 0.0
O1714 O 0.20414 0.37716 0.85614 0.0
O1715 O 0.21936 0.40174 0.8613 0.0
C1716 C 0.22401 0.4405 0.8847 0.0
O1717 O 0.21282 0.4356 0.87402 0.0
O1718 O 0.22568 0.42872 0.89558 0.0
C1719 C 0.17795 0.40066 0.87446 0.0
Tb1720 Tb 0.33029 0.47618 0.62418 0.0
C1721 C 0.34496 0.45635 0.65486 0.0
Tb1722 Tb 0.36638 0.46711 0.6248 0.0
O1723 O 0.32287 0.45455 0.60801 0.0
O1724 O 0.34376 0.45444 0.62203 0.0
O1725 O 0.33332 0.46644 0.64965 0.0
C1726 C 0.39785 0.46151 0.61991 0.0
O1727 O 0.35781 0.45268 0.64575 0.0
C1728 C 0.35947 0.49381 0.64169 0.0
C1729 C 0.35307 0.48527 0.59434 0.0
O1730 O 0.38722 0.45065 0.62564 0.0
O1731 O 0.39069 0.47521 0.61684 0.0
O1732 O 0.37057 0.48354 0.64582 0.0
O1733 O 0.35329 0.48938 0.62783 0.0
O1734 O 0.3621 0.47275 0.5988 0.0
O1735 O 0.34112 0.49028 0.60387 0.0
C1736 C 0.30312 0.49412 0.62677 0.0
O1737 O 0.30707 0.48519 0.61407 0.0
O1738 O 0.31405 0.49213 0.6384 0.0
C1739 C 0.33635 0.44677 0.61057 0.0
Tb1740 Tb 0.29783 0.60059 0.36789 0.0
C1741 C 0.26532 0.61131 0.35126 0.0
Tb1742 Tb 0.26843 0.60794 0.39007 0.0
O1743 O 0.28424 0.57829 0.35895 0.0
O1744 O 0.28095 0.58654 0.38313 0.0
O1745 O 0.28159 0.61205 0.34961 0.0
C1746 C 0.24195 0.60454 0.40857 0.0
O1747 O 0.25799 0.60664 0.36519 0.0
C1748 C 0.28255 0.63636 0.38094 0.0
C1749 C 0.30273 0.60789 0.40633 0.0
O1750 O 0.24332 0.59865 0.39364 0.0
O1751 O 0.25551 0.61215 0.41308 0.0
O1752 O 0.26933 0.63516 0.38965 0.0
O1753 O 0.28666 0.6218 0.37746 0.0
O1754 O 0.2871 0.60395 0.40866 0.0
O1755 O 0.30907 0.60918 0.39131 0.0
C1756 C 0.32819 0.59271 0.35906 0.0
O1757 O 0.31932 0.58558 0.37038 0.0
O1758 O 0.31976 0.60439 0.35215 0.0
C1759 C 0.27604 0.57587 0.37247 0.0
Tb1760 Tb 0.37179 0.15815 0.45949 0.0
C1761 C 0.3449 0.13818 0.43799 0.0
Tb1762 Tb 0.37733 0.12188 0.45064 0.0
O1763 O 0.3891 0.16709 0.4402 0.0
O1764 O 0.37758 0.14445 0.43785 0.0
O1765 O 0.34793 0.1514 0.4478 0.0
C1766 C 0.38509 0.09162 0.4406 0.0
O1767 O 0.35578 0.12655 0.43557 0.0
C1768 C 0.35744 0.12612 0.47536 0.0
C1769 C 0.40314 0.14075 0.47293 0.0
O1770 O 0.38245 0.10411 0.43092 0.0
O1771 O 0.38371 0.09632 0.45589 0.0
O1772 O 0.35642 0.11387 0.46495 0.0
O1773 O 0.37024 0.13496 0.47245 0.0
O1774 O 0.40117 0.12916 0.46134 0.0
O1775 O 0.39177 0.1516 0.4759 0.0
C1776 C 0.36783 0.18746 0.4751 0.0
O1777 O 0.37953 0.18387 0.46515 0.0
O1778 O 0.35761 0.17469 0.47558 0.0
C1779 C 0.38882 0.15336 0.43179 0.0
Tb1780 Tb 0.8968 0.35829 0.5279 0.0
C1781 C 0.86904 0.37645 0.54535 0.0
Tb1782 Tb 0.90383 0.39261 0.54061 0.0
O1783 O 0.89232 0.3482 0.5521 0.0
O1784 O 0.9091 0.36838 0.55001 0.0
O1785 O 0.87195 0.36557 0.53344 0.0
C1786 C 0.91019 0.42175 0.5559 0.0
O1787 O 0.88086 0.3858 0.55228 0.0
C1788 C 0.88471 0.39141 0.51415 0.0
C1789 C 0.92971 0.37778 0.51691 0.0
O1790 O 0.90637 0.4078 0.56318 0.0
O1791 O 0.91167 0.4188 0.54018 0.0
O1792 O 0.8842 0.40268 0.52555 0.0
O1793 O 0.89651 0.38219 0.51721 0.0
O1794 O 0.92674 0.3901 0.52729 0.0
O1795 O 0.91979 0.36448 0.51536 0.0
C1796 C 0.89508 0.32981 0.51102 0.0
O1797 O 0.9066 0.33433 0.52145 0.0
O1798 O 0.88433 0.3413 0.51018 0.0
C1799 C 0.90124 0.35905 0.56023 0.0
Tb1800 Tb 0.40233 0.12343 0.27819 0.0
C1801 C 0.38935 0.09552 0.3013 0.0
Tb1802 Tb 0.36974 0.12732 0.29483 0.0
O1803 O 0.41613 0.12799 0.3015 0.0
O1804 O 0.39346 0.13829 0.29786 0.0
O1805 O 0.39674 0.09827 0.2869 0.0
C1806 C 0.34318 0.1273 0.31368 0.0
O1807 O 0.38089 0.10721 0.30851 0.0
C1808 C 0.36786 0.11596 0.26424 0.0
C1809 C 0.3804 0.15468 0.27003 0.0
O1810 O 0.34885 0.11457 0.30615 0.0
O1811 O 0.35274 0.14021 0.31097 0.0
O1812 O 0.35677 0.12458 0.27116 0.0
O1813 O 0.3785 0.11251 0.275 0.0
O1814 O 0.3707 0.15123 0.2827 0.0
O1815 O 0.39302 0.14552 0.26626 0.0
C1816 C 0.424 0.12172 0.25333 0.0
O1817 O 0.40999 0.12864 0.25271 0.0
O1818 O 0.42597 0.11559 0.26813 0.0
C1819 C 0.40444 0.13583 0.30856 0.0
Tb1820 Tb 0.63604 0.63287 0.03527 0.0
C1821 C 0.6649 0.61418 0.05219 0.0
Tb1822 Tb 0.63061 0.59584 0.04264 0.0
O1823 O 0.61911 0.63964 0.05508 0.0
O1824 O 0.63166 0.61812 0.05664 0.0
O1825 O 0.66055 0.62791 0.04438 0.0
C1826 C 0.63126 0.56428 0.05221 0.0
O1827 O 0.65486 0.60092 0.05383 0.0
C1828 C 0.63691 0.60314 0.01166 0.0
C1829 C 0.60241 0.61454 0.02543 0.0
O1830 O 0.64074 0.57139 0.0414 0.0
O1831 O 0.62131 0.57511 0.0581 0.0
O1832 O 0.62775 0.59064 0.01626 0.0
O1833 O 0.64298 0.61024 0.02438 0.0
O1834 O 0.60559 0.60201 0.03552 0.0
O1835 O 0.61308 0.62687 0.02269 0.0
C1836 C 0.6424 0.6599 0.01702 0.0
O1837 O 0.63686 0.64562 0.01161 0.0
O1838 O 0.64469 0.65909 0.03308 0.0
C1839 C 0.62084 0.62618 0.06373 0.0
Tb1840 Tb 0.59732 0.37218 0.29724 0.0
C1841 C 0.61277 0.4023 0.3187 0.0
Tb1842 Tb 0.63326 0.3732 0.30593 0.0
O1843 O 0.59204 0.35334 0.31646 0.0
O1844 O 0.61139 0.37004 0.31955 0.0
O1845 O 0.60057 0.39732 0.30844 0.0
C1846 C 0.66534 0.37163 0.31224 0.0
O1847 O 0.62568 0.39318 0.32168 0.0
C1848 C 0.62506 0.39035 0.2797 0.0
C1849 C 0.6188 0.34276 0.28559 0.0
O1850 O 0.65866 0.37757 0.29905 0.0
O1851 O 0.65388 0.36633 0.32223 0.0
O1852 O 0.63586 0.39516 0.2907 0.0
O1853 O 0.61931 0.37615 0.28365 0.0
O1854 O 0.63047 0.34797 0.29609 0.0
O1855 O 0.6056 0.3514 0.28271 0.0
C1856 C 0.56858 0.37548 0.28075 0.0
O1857 O 0.57124 0.36521 0.29279 0.0
O1858 O 0.5819 0.38445 0.27865 0.0
C1859 C 0.60462 0.35736 0.32583 0.0
Tb1860 Tb 0.11572 0.84357 0.98378 0.0
C1861 C 0.14629 0.8631 0.96813 0.0
Tb1862 Tb 0.11196 0.87922 0.97067 0.0
O1863 O 0.10271 0.83274 0.96169 0.0
O1864 O 0.11481 0.85542 0.96042 0.0
O1865 O 0.14109 0.84999 0.97689 0.0
C1866 C 0.10678 0.90784 0.95533 0.0
O1867 O 0.13653 0.87474 0.96262 0.0
C1868 C 0.12653 0.87708 0.99947 0.0
C1869 C 0.08306 0.86274 0.98969 0.0
O1870 O 0.10986 0.89393 0.94801 0.0
O1871 O 0.10599 0.90538 0.9712 0.0
O1872 O 0.1286 0.88953 0.98952 0.0
O1873 O 0.1149 0.86771 0.9942 0.0
O1874 O 0.08679 0.87224 0.9768 0.0
O1875 O 0.09352 0.85189 0.99557 0.0
C1876 C 0.12277 0.81841 0.00421 0.0
O1877 O 0.10968 0.81922 0.99497 0.0
O1878 O 0.13211 0.8314 1.00134 0.0
C1879 C 0.10531 0.84575 0.95242 0.0
Tb1880 Tb 0.4034 0.85367 0.22052 0.0
C1881 C 0.38887 0.88457 0.20445 0.0
Tb1882 Tb 0.36637 0.852 0.20881 0.0
O1883 O 0.41057 0.83865 0.19881 0.0
O1884 O 0.38988 0.85151 0.19782 0.0
O1885 O 0.39968 0.87978 0.21573 0.0
C1886 C 0.33826 0.85422 0.19217 0.0
O1887 O 0.3773 0.87442 0.1979 0.0
C1888 C 0.36932 0.86454 0.23902 0.0
C1889 C 0.37861 0.82481 0.23293 0.0
O1890 O 0.34674 0.86635 0.1989 0.0
O1891 O 0.34575 0.84035 0.19448 0.0
O1892 O 0.35547 0.86212 0.23128 0.0
O1893 O 0.38025 0.85932 0.2297 0.0
O1894 O 0.36804 0.82765 0.22065 0.0
O1895 O 0.39187 0.83441 0.23567 0.0
C1896 C 0.43111 0.8542 0.2385 0.0
O1897 O 0.41996 0.84241 0.23813 0.0
O1898 O 0.42682 0.86598 0.22845 0.0
C1899 C 0.39785 0.84146 0.18955 0.0
Tb1900 Tb 0.11498 0.10987 0.71547 0.0
C1901 C 0.12993 0.08237 0.6929 0.0
Tb1902 Tb 0.15033 0.1121 0.70763 0.0
O1903 O 0.10918 0.12918 0.69726 0.0
O1904 O 0.12867 0.11443 0.69347 0.0
O1905 O 0.11828 0.08561 0.70369 0.0
C1906 C 0.18135 0.11641 0.69837 0.0
O1907 O 0.14187 0.09342 0.68976 0.0
C1908 C 0.14344 0.09325 0.73345 0.0
C1909 C 0.13653 0.13893 0.73177 0.0
O1910 O 0.1707 0.12803 0.69823 0.0
O1911 O 0.17445 0.10273 0.70342 0.0
O1912 O 0.15498 0.09084 0.72302 0.0
O1913 O 0.13681 0.10666 0.72971 0.0
O1914 O 0.14875 0.1352 0.7219 0.0
O1915 O 0.12287 0.12965 0.73242 0.0
C1916 C 0.08565 0.10253 0.72873 0.0
O1917 O 0.08942 0.11564 0.72014 0.0
O1918 O 0.09829 0.09327 0.72945 0.0
C1919 C 0.12165 0.12684 0.68784 0.0
H1920 H 0.11539 0.25812 0.37013 0.0
H1921 H 0.1545 0.22522 0.38109 0.0
H1922 H 0.09618 0.23466 0.36721 0.0
H1923 H 0.1352 0.20129 0.37768 0.0
H1924 H 0.09132 0.16439 0.38484 0.0
H1925 H 0.11148 0.18678 0.38864 0.0
H1926 H 0.09018 0.21291 0.34742 0.0
H1927 H 0.0694 0.19047 0.34388 0.0
C1928 C 0.1198 0.24578 0.37219 0.0
C1929 C 0.13639 0.24345 0.37593 0.0
C1930 C 0.10883 0.2323 0.37022 0.0
C1931 C 0.11417 0.21603 0.37173 0.0
C1932 C 0.13066 0.21367 0.37639 0.0
C1933 C 0.14171 0.22732 0.37851 0.0
C1934 C 0.09083 0.17488 0.3765 0.0
C1935 C 0.07849 0.17572 0.36416 0.0
C1936 C 0.10259 0.18769 0.37864 0.0
C1937 C 0.10242 0.20176 0.3685 0.0
C1938 C 0.09048 0.20237 0.3557 0.0
C1939 C 0.07864 0.18947 0.35354 0.0
H1940 H 0.01426 0.86143 0.61401 0.0
H1941 H 0.99192 0.83152 0.65252 0.0
H1942 H 0.03876 0.84509 0.61567 0.0
H1943 H 0.01684 0.81537 0.65453 0.0
H1944 H 0.07311 0.80276 0.66103 0.0
H1945 H 0.04876 0.81971 0.66159 0.0
H1946 H 0.04339 0.81421 0.60848 0.0
H1947 H 0.06743 0.79712 0.60789 0.0
C1948 C 0.01465 0.85145 0.62296 0.0
C1949 C 0.00114 0.84773 0.63311 0.0
C1950 C 0.02868 0.84208 0.62389 0.0
C1951 C 0.02967 0.82889 0.63514 0.0
C1952 C 0.01642 0.82553 0.64578 0.0
C1953 C 0.0022 0.83478 0.64466 0.0
C1954 C 0.06674 0.80519 0.64948 0.0
C1955 C 0.07224 0.7986 0.6344 0.0
C1956 C 0.05275 0.8148 0.64983 0.0
C1957 C 0.04422 0.8183 0.63508 0.0
C1958 C 0.04979 0.8118 0.62003 0.0
C1959 C 0.06354 0.80196 0.61971 0.0
H1960 H 0.44084 0.86129 0.87088 0.0
H1961 H 0.47764 0.82832 0.88879 0.0
H1962 H 0.42078 0.83802 0.87008 0.0
H1963 H 0.45768 0.80525 0.88795 0.0
H1964 H 0.41495 0.76859 0.8954 0.0
H1965 H 0.43154 0.79411 0.90076 0.0
H1966 H 0.41795 0.81255 0.85241 0.0
H1967 H 0.40156 0.78727 0.84717 0.0
C1968 C 0.44464 0.84914 0.8747 0.0
C1969 C 0.46089 0.84666 0.87972 0.0
C1970 C 0.43316 0.83583 0.87426 0.0
C1971 C 0.43765 0.81982 0.87902 0.0
C1972 C 0.45377 0.81746 0.88444 0.0
C1973 C 0.46527 0.83069 0.88472 0.0
C1974 C 0.41531 0.77827 0.88613 0.0
C1975 C 0.40708 0.77597 0.87087 0.0
C1976 C 0.42485 0.7928 0.88911 0.0
C1977 C 0.42607 0.80532 0.87697 0.0
C1978 C 0.41715 0.80325 0.86208 0.0
C1979 C 0.40785 0.78871 0.85903 0.0
H1980 H 0.39691 0.21499 0.09044 0.0
H1981 H 0.39789 0.22408 0.14329 0.0
H1982 H 0.42473 0.20497 0.09209 0.0
H1983 H 0.42596 0.2149 0.14491 0.0
H1984 H 0.45105 0.16407 0.14323 0.0
H1985 H 0.43125 0.18566 0.1425 0.0
H1986 H 0.4543 0.20665 0.09888 0.0
H1987 H 0.4742 0.18459 0.09956 0.0
C1988 C 0.40337 0.21541 0.10227 0.0
C1989 C 0.39531 0.21969 0.11683 0.0
C1990 C 0.41932 0.20986 0.10321 0.0
C1991 C 0.42731 0.2088 0.11872 0.0
C1992 C 0.41989 0.2152 0.13289 0.0
C1993 C 0.40387 0.22037 0.13199 0.0
C1994 C 0.45204 0.17344 0.13364 0.0
C1995 C 0.46388 0.17262 0.1213 0.0
C1996 C 0.44085 0.18597 0.13334 0.0
C1997 C 0.44129 0.1979 0.12066 0.0
C1998 C 0.4537 0.19757 0.10875 0.0
C1999 C 0.46501 0.18499 0.10912 0.0
H2000 H 0.03348 0.85354 0.16697 0.0
H2001 H 0.06782 0.87009 0.12944 0.0
H2002 H 0.04559 0.82608 0.16666 0.0
H2003 H 0.07954 0.843 0.12914 0.0
H2004 H 0.08192 0.78964 0.1161 0.0
H2005 H 0.06636 0.81467 0.11948 0.0
H2006 H 0.07526 0.81362 0.17243 0.0
H2007 H 0.09078 0.78841 0.16909 0.0
C2008 C 0.04366 0.85139 0.15885 0.0
C2009 C 0.04955 0.86383 0.14806 0.0
C2010 C 0.0505 0.83576 0.15865 0.0
C2011 C 0.06314 0.83252 0.14759 0.0
C2012 C 0.06949 0.84518 0.13745 0.0
C2013 C 0.0628 0.86069 0.1377 0.0
C2014 C 0.08036 0.79464 0.12846 0.0
C2015 C 0.08769 0.78742 0.14231 0.0
C2016 C 0.07147 0.80887 0.13039 0.0
C2017 C 0.06986 0.816 0.14618 0.0
C2018 C 0.07635 0.80821 0.16018 0.0
C2019 C 0.08529 0.79395 0.15824 0.0
H2020 H 0.49905 0.81 0.3967 0.0
H2021 H 0.48593 0.8519 0.36672 0.0
H2022 H 0.47175 0.79745 0.3923 0.0
H2023 H 0.45841 0.8393 0.36235 0.0
H2024 H 0.40588 0.81726 0.37818 0.0
H2025 H 0.43295 0.83138 0.38033 0.0
H2026 H 0.45578 0.78559 0.36789 0.0
H2027 H 0.42916 0.77157 0.36575 0.0
C2028 C 0.49032 0.81647 0.38909 0.0
C2029 C 0.49457 0.83187 0.38203 0.0
C2030 C 0.47471 0.80929 0.38655 0.0
C2031 C 0.46296 0.81742 0.37699 0.0
C2032 C 0.4672 0.83285 0.36988 0.0
C2033 C 0.48295 0.83997 0.37227 0.0
C2034 C 0.41668 0.81027 0.3758 0.0
C2035 C 0.41529 0.79325 0.37192 0.0
C2036 C 0.43215 0.81836 0.37695 0.0
C2037 C 0.44645 0.80952 0.37442 0.0
C2038 C 0.44499 0.79266 0.37013 0.0
C2039 C 0.42966 0.78466 0.36886 0.0
H2040 H 0.41993 0.17852 0.62556 0.0
H2041 H 0.46051 0.20746 0.64659 0.0
H2042 H 0.40444 0.20349 0.62216 0.0
H2043 H 0.44488 0.23286 0.64296 0.0
H2044 H 0.41631 0.27386 0.61209 0.0
H2045 H 0.43301 0.24943 0.61701 0.0
H2046 H 0.392 0.22477 0.64103 0.0
H2047 H 0.37556 0.24896 0.63629 0.0
C2048 C 0.42545 0.19025 0.6297 0.0
C2049 C 0.44136 0.19103 0.63651 0.0
C2050 C 0.41658 0.20457 0.6277 0.0
C2051 C 0.42347 0.22015 0.63219 0.0
C2052 C 0.43933 0.221 0.63926 0.0
C2053 C 0.44816 0.2065 0.64157 0.0
C2054 C 0.4109 0.26312 0.61827 0.0
C2055 C 0.39465 0.26323 0.62376 0.0
C2056 C 0.42048 0.24927 0.62127 0.0
C2057 C 0.41383 0.23525 0.62952 0.0
C2058 C 0.39747 0.23535 0.63465 0.0
C2059 C 0.38805 0.24919 0.6319 0.0
H2060 H 0.06192 0.193 0.9024 0.0
H2061 H 0.08891 0.14972 0.89036 0.0
H2062 H 0.03632 0.17792 0.8953 0.0
H2063 H 0.06347 0.13421 0.8842 0.0
H2064 H 0.01791 0.11513 0.85686 0.0
H2065 H 0.04306 0.13094 0.86421 0.0
H2066 H 0.01672 0.15781 0.90136 0.0
H2067 H 0.99169 0.14284 0.89326 0.0
C2068 C 0.06228 0.18006 0.89883 0.0
C2069 C 0.07733 0.17247 0.89707 0.0
C2070 C 0.04761 0.17136 0.89465 0.0
C2071 C 0.04767 0.15478 0.88889 0.0
C2072 C 0.06281 0.14703 0.88806 0.0
C2073 C 0.07742 0.15583 0.8919 0.0
C2074 C 0.01754 0.12459 0.86642 0.0
C2075 C 0.00282 0.1277 0.87446 0.0
C2076 C 0.032 0.13355 0.87084 0.0
C2077 C 0.03213 0.14565 0.88359 0.0
C2078 C 0.01724 0.14886 0.89136 0.0
C2079 C 0.00281 0.14013 0.88676 0.0
H2080 H 0.34155 0.08398 0.16332 0.0
H2081 H 0.34696 0.03935 0.19222 0.0
H2082 H 0.34913 0.10071 0.1877 0.0
H2083 H 0.35436 0.0561 0.2165 0.0
H2084 H 0.38436 0.0899 0.25153 0.0
H2085 H 0.37769 0.07443 0.22594 0.0
H2086 H 0.33869 0.10776 0.21532 0.0
H2087 H 0.34548 0.12322 0.24068 0.0
C2088 C 0.34411 0.07773 0.17489 0.0
C2089 C 0.34364 0.06031 0.17577 0.0
C2090 C 0.3485 0.08733 0.18885 0.0
C2091 C 0.35257 0.0797 0.20395 0.0
C2092 C 0.35164 0.06232 0.20495 0.0
C2093 C 0.34719 0.05273 0.19105 0.0
C2094 C 0.37451 0.09398 0.24359 0.0
C2095 C 0.36532 0.1076 0.2481 0.0
C2096 C 0.3706 0.08509 0.22904 0.0
C2097 C 0.35753 0.08979 0.21873 0.0
C2098 C 0.34885 0.10387 0.22296 0.0
C2099 C 0.35269 0.11267 0.23751 0.0
H2100 H 0.12256 0.08951 0.48566 0.0
H2101 H 0.16676 0.11439 0.5042 0.0
H2102 H 0.13528 0.08583 0.45868 0.0
H2103 H 0.1796 0.11059 0.4771 0.0
H2104 H 0.20178 0.0832 0.43246 0.0
H2105 H 0.18838 0.085 0.45955 0.0
H2106 H 0.14575 0.1048 0.43566 0.0
H2107 H 0.15912 0.10315 0.40883 0.0
C2108 C 0.13496 0.09432 0.48386 0.0
C2109 C 0.14373 0.10221 0.49691 0.0
C2110 C 0.14223 0.09218 0.46848 0.0
C2111 C 0.15847 0.09771 0.46594 0.0
C2112 C 0.16714 0.10597 0.47888 0.0
C2113 C 0.15976 0.10833 0.49426 0.0
C2114 C 0.18939 0.08748 0.43303 0.0
C2115 C 0.1814 0.09295 0.41867 0.0
C2116 C 0.18184 0.08875 0.44848 0.0
C2117 C 0.16614 0.09522 0.44964 0.0
C2118 C 0.15785 0.09977 0.4351 0.0
C2119 C 0.16546 0.09877 0.41978 0.0
H2120 H 0.14939 0.85713 0.75208 0.0
H2121 H 0.12051 0.89904 0.76478 0.0
H2122 H 0.15858 0.87117 0.72701 0.0
H2123 H 0.12937 0.91306 0.73926 0.0
H2124 H 0.15964 0.94027 0.70036 0.0
H2125 H 0.15422 0.92615 0.72683 0.0
H2126 H 0.14798 0.87945 0.70061 0.0
H2127 H 0.15362 0.89349 0.67455 0.0
C2128 C 0.14479 0.86927 0.74932 0.0
C2129 C 0.13423 0.87701 0.76032 0.0
C2130 C 0.15008 0.87733 0.73497 0.0
C2131 C 0.14488 0.89332 0.73123 0.0
C2132 C 0.13388 0.90088 0.74199 0.0
C2133 C 0.12856 0.89277 0.75642 0.0
C2134 C 0.15782 0.9269 0.70048 0.0
C2135 C 0.15728 0.91787 0.68557 0.0
C2136 C 0.15437 0.91887 0.71552 0.0
C2137 C 0.15043 0.90172 0.71579 0.0
C2138 C 0.15107 0.89262 0.70091 0.0
C2139 C 0.1544 0.90063 0.68598 0.0
H2140 H 0.35589 0.90738 0.01412 0.0
H2141 H 0.38659 0.87149 0.9913 0.0
H2142 H 0.33947 0.90863 0.98882 0.0
H2143 H 0.36989 0.87253 0.9658 0.0
H2144 H 0.3471 0.89465 0.91785 0.0
H2145 H 0.36382 0.8923 0.94304 0.0
H2146 H 0.32009 0.89155 0.97267 0.0
H2147 H 0.30344 0.89416 0.94771 0.0
C2148 C 0.35905 0.89966 0.00368 0.0
C2149 C 0.37252 0.88938 0.00462 0.0
C2150 C 0.34958 0.90031 0.9892 0.0
C2151 C 0.35337 0.89069 0.97528 0.0
C2152 C 0.36678 0.88023 0.97626 0.0
C2153 C 0.37625 0.87953 0.99086 0.0
C2154 C 0.34105 0.89408 0.92975 0.0
C2155 C 0.32391 0.8947 0.93073 0.0
C2156 C 0.35064 0.89257 0.94416 0.0
C2157 C 0.34328 0.89173 0.95985 0.0
C2158 C 0.32616 0.89237 0.9608 0.0
C2159 C 0.3166 0.89383 0.94644 0.0
H2160 H 0.34295 0.93582 0.31213 0.0
H2161 H 0.3921 0.9242 0.32745 0.0
H2162 H 0.34515 0.91712 0.28835 0.0
H2163 H 0.39407 0.90534 0.30414 0.0
H2164 H 0.39592 0.88304 0.25094 0.0
H2165 H 0.39566 0.90301 0.27406 0.0
H2166 H 0.34578 0.88732 0.28476 0.0
H2167 H 0.34599 0.86791 0.26166 0.0
C2168 C 0.35421 0.92938 0.3104 0.0
C2169 C 0.36722 0.93137 0.32181 0.0
C2170 C 0.35546 0.91857 0.29686 0.0
C2171 C 0.36974 0.90958 0.29448 0.0
C2172 C 0.38295 0.91211 0.30554 0.0
C2173 C 0.38171 0.92286 0.31902 0.0
C2174 C 0.38508 0.88371 0.2585 0.0
C2175 C 0.37097 0.87404 0.25457 0.0
C2176 C 0.38486 0.89517 0.27164 0.0
C2177 C 0.37054 0.89701 0.281 0.0
C2178 C 0.35681 0.88661 0.2775 0.0
C2179 C 0.35702 0.87532 0.26441 0.0
H2180 H 0.31361 0.08609 0.56489 0.0
H2181 H 0.31034 0.13924 0.57027 0.0
H2182 H 0.32561 0.09032 0.53729 0.0
H2183 H 0.32223 0.14332 0.54317 0.0
H2184 H 0.3631 0.14436 0.50396 0.0
H2185 H 0.34967 0.14001 0.53078 0.0
H2186 H 0.31848 0.10121 0.509 0.0
H2187 H 0.33177 0.10555 0.48242 0.0
C2188 C 0.31523 0.09858 0.56014 0.0
C2189 C 0.31122 0.11228 0.56988 0.0
C2190 C 0.32214 0.10103 0.5444 0.0
C2191 C 0.32514 0.11721 0.53824 0.0
C2192 C 0.32048 0.13077 0.54774 0.0
C2193 C 0.31357 0.12835 0.56327 0.0
C2194 C 0.35326 0.13507 0.50492 0.0
C2195 C 0.34853 0.12526 0.49117 0.0
C2196 C 0.34559 0.13253 0.52023 0.0
C2197 C 0.33314 0.1201 0.522 0.0
C2198 C 0.32822 0.11062 0.50811 0.0
C2199 C 0.33576 0.11324 0.49286 0.0
H2200 H 0.16517 0.07135 0.74457 0.0
H2201 H 0.12459 0.10004 0.76064 0.0
H2202 H 0.16994 0.06236 0.77264 0.0
H2203 H 0.12858 0.08995 0.78905 0.0
H2204 H 0.1497 0.08192 0.84093 0.0
H2205 H 0.14538 0.09209 0.81274 0.0
H2206 H 0.16106 0.04522 0.79326 0.0
H2207 H 0.16634 0.03571 0.82126 0.0
C2208 C 0.15701 0.07549 0.75412 0.0
C2209 C 0.14452 0.08645 0.75041 0.0
C2210 C 0.15968 0.07019 0.77031 0.0
C2211 C 0.14964 0.07531 0.78328 0.0
C2212 C 0.13677 0.08595 0.77948 0.0
C2213 C 0.13431 0.09157 0.76319 0.0
C2214 C 0.15253 0.074 0.83053 0.0
C2215 C 0.15861 0.05815 0.83324 0.0
C2216 C 0.14982 0.0797 0.81437 0.0
C2217 C 0.15278 0.06951 0.80058 0.0
C2218 C 0.15898 0.05366 0.80343 0.0
C2219 C 0.16205 0.04815 0.81954 0.0
H2220 H 0.20592 0.8921 0.06696 0.0
H2221 H 0.16454 0.90037 0.09857 0.0
H2222 H 0.18718 0.88449 0.04416 0.0
H2223 H 0.14595 0.8924 0.07596 0.0
H2224 H 0.12011 0.89777 0.0246 0.0
H2225 H 0.13706 0.90297 0.04935 0.0
H2226 H 0.16739 0.86236 0.03571 0.0
H2227 H 0.15055 0.85757 0.0107 0.0
C2228 C 0.19286 0.89238 0.06904 0.0
C2229 C 0.18677 0.89691 0.08459 0.0
C2230 C 0.18212 0.8878 0.05604 0.0
C2231 C 0.16507 0.88767 0.05831 0.0
C2232 C 0.159 0.89244 0.07378 0.0
C2233 C 0.16971 0.89701 0.08675 0.0
C2234 C 0.13007 0.88964 0.02727 0.0
C2235 C 0.13383 0.877 0.01612 0.0
C2236 C 0.13983 0.89263 0.04137 0.0
C2237 C 0.15365 0.88316 0.04443 0.0
C2238 C 0.15693 0.86999 0.03358 0.0
C2239 C 0.14712 0.86699 0.01948 0.0
H2240 H 0.18854 0.34604 0.06763 0.0
H2241 H 0.17653 0.39739 0.07412 0.0
H2242 H 0.21519 0.35188 0.08112 0.0
H2243 H 0.2031 0.40317 0.0874 0.0
H2244 H 0.25981 0.4077 0.09859 0.0
H2245 H 0.23453 0.40319 0.08195 0.0
H2246 H 0.22179 0.36017 0.11148 0.0
H2247 H 0.24651 0.36478 0.12811 0.0
C2248 C 0.19167 0.35858 0.07171 0.0
C2249 C 0.18037 0.37118 0.07 0.0
C2250 C 0.20687 0.36192 0.07947 0.0
C2251 C 0.21115 0.37798 0.08536 0.0
C2252 C 0.20017 0.39073 0.08291 0.0
C2253 C 0.1849 0.38734 0.07543 0.0
C2254 C 0.2515 0.3974 0.10154 0.0
C2255 C 0.25518 0.38653 0.11453 0.0
C2256 C 0.23711 0.39477 0.09202 0.0
C2257 C 0.2264 0.38111 0.09524 0.0
C2258 C 0.23 0.37054 0.10846 0.0
C2259 C 0.24412 0.37329 0.11805 0.0
H2260 H 0.73126 0.1432 0.92501 0.0
H2261 H 0.72199 0.09013 0.92446 0.0
H2262 H 0.70491 0.14704 0.93804 0.0
H2263 H 0.6957 0.09391 0.93791 0.0
H2264 H 0.64243 0.10981 0.93575 0.0
H2265 H 0.67029 0.10523 0.92746 0.0
H2266 H 0.68807 0.14236 0.96271 0.0
H2267 H 0.65994 0.14721 0.97095 0.0
C2268 C 0.72368 0.13234 0.92799 0.0
C2269 C 0.72847 0.11639 0.9236 0.0
C2270 C 0.70866 0.13453 0.93554 0.0
C2271 C 0.6982 0.12079 0.93883 0.0
C2272 C 0.70343 0.10474 0.93525 0.0
C2273 C 0.71846 0.10256 0.92766 0.0
C2274 C 0.65223 0.11701 0.9418 0.0
C2275 C 0.64897 0.12893 0.95399 0.0
C2276 C 0.66824 0.11425 0.93714 0.0
C2277 C 0.68136 0.12329 0.94457 0.0
C2278 C 0.67815 0.13525 0.95674 0.0
C2279 C 0.66207 0.13805 0.96142 0.0
H2280 H 0.10813 0.51343 0.18544 0.0
H2281 H 0.1498 0.50237 0.1554 0.0
H2282 H 0.10822 0.4858 0.19715 0.0
H2283 H 0.15055 0.47478 0.16784 0.0
H2284 H 0.13375 0.42073 0.17792 0.0
H2285 H 0.13602 0.44896 0.16721 0.0
H2286 H 0.12129 0.46782 0.21492 0.0
H2287 H 0.11822 0.4396 0.22522 0.0
C2288 C 0.11754 0.50515 0.18159 0.0
C2289 C 0.12891 0.50999 0.16947 0.0
C2290 C 0.11768 0.4893 0.1884 0.0
C2291 C 0.12939 0.47796 0.18347 0.0
C2292 C 0.14118 0.48306 0.17174 0.0
C2293 C 0.14088 0.49891 0.16473 0.0
C2294 C 0.131 0.43095 0.18607 0.0
C2295 C 0.12561 0.42799 0.20232 0.0
C2296 C 0.13244 0.44716 0.18 0.0
C2297 C 0.12879 0.46075 0.19016 0.0
C2298 C 0.12383 0.4577 0.20658 0.0
C2299 C 0.1221 0.44151 0.21253 0.0
H2300 H 0.80969 0.87325 0.46623 0.0
H2301 H 0.82692 0.90392 0.42574 0.0
H2302 H 0.78205 0.87324 0.45463 0.0
H2303 H 0.7995 0.90318 0.41355 0.0
H2304 H 0.74525 0.90852 0.4018 0.0
H2305 H 0.77214 0.91178 0.41543 0.0
H2306 H 0.76777 0.86096 0.43238 0.0
H2307 H 0.74092 0.85816 0.41964 0.0
C2308 C 0.80755 0.87984 0.45475 0.0
C2309 C 0.82038 0.88846 0.4468 0.0
C2310 C 0.79175 0.87982 0.44805 0.0
C2311 C 0.78856 0.88807 0.43303 0.0
C2312 C 0.80144 0.8969 0.42523 0.0
C2313 C 0.81717 0.89721 0.43214 0.0
C2314 C 0.75013 0.89816 0.4085 0.0
C2315 C 0.74109 0.88313 0.40969 0.0
C2316 C 0.76551 0.89996 0.41626 0.0
C2317 C 0.77209 0.88665 0.42512 0.0
C2318 C 0.76296 0.87162 0.42608 0.0
C2319 C 0.7476 0.86995 0.41862 0.0
H2320 H 0.90058 0.0783 0.19673 0.0
H2321 H 0.87438 0.10149 0.15663 0.0
H2322 H 0.89297 0.05102 0.18501 0.0
H2323 H 0.86583 0.07473 0.1458 0.0
H2324 H 0.86178 0.02396 0.12215 0.0
H2325 H 0.87182 0.05095 0.1322 0.0
H2326 H 0.87031 0.03273 0.18271 0.0
H2327 H 0.8614 0.0054 0.17229 0.0
C2328 C 0.89339 0.07759 0.18536 0.0
C2329 C 0.88797 0.09205 0.17775 0.0
C2330 C 0.88875 0.06197 0.17877 0.0
C2331 C 0.87847 0.06056 0.16457 0.0
C2332 C 0.87383 0.07514 0.1566 0.0
C2333 C 0.87867 0.09061 0.16297 0.0
C2334 C 0.86322 0.02592 0.13541 0.0
C2335 C 0.8606 0.01278 0.14652 0.0
C2336 C 0.86908 0.04138 0.14124 0.0
C2337 C 0.87208 0.04411 0.15834 0.0
C2338 C 0.86862 0.03105 0.16945 0.0
C2339 C 0.86316 0.01549 0.16356 0.0
H2340 H 0.32914 0.65729 0.53006 0.0
H2341 H 0.35095 0.64334 0.57681 0.0
H2342 H 0.30185 0.65475 0.5425 0.0
H2343 H 0.32409 0.64055 0.58908 0.0
H2344 H 0.27515 0.64305 0.61059 0.0
H2345 H 0.29989 0.65417 0.59764 0.0
H2346 H 0.2856 0.62978 0.55155 0.0
H2347 H 0.26035 0.61915 0.56447 0.0
C2348 C 0.32808 0.6542 0.54309 0.0
C2349 C 0.34195 0.6504 0.55253 0.0
C2350 C 0.31254 0.65256 0.55014 0.0
C2351 C 0.31087 0.6473 0.56669 0.0
C2352 C 0.32495 0.64476 0.57635 0.0
C2353 C 0.34034 0.64627 0.56932 0.0
C2354 C 0.27728 0.6401 0.59767 0.0
C2355 C 0.26608 0.63003 0.58855 0.0
C2356 C 0.29138 0.64653 0.59025 0.0
C2357 C 0.29469 0.64279 0.57362 0.0
C2358 C 0.28324 0.63305 0.56433 0.0
C2359 C 0.26896 0.62676 0.57175 0.0
H2360 H 0.11319 0.59077 0.28555 0.0
H2361 H 0.11185 0.61122 0.33509 0.0
H2362 H 0.11976 0.5636 0.29717 0.0
H2363 H 0.11825 0.58434 0.34667 0.0
H2364 H 0.15788 0.53094 0.32644 0.0
H2365 H 0.14598 0.5549 0.31272 0.0
H2366 H 0.10765 0.55491 0.34922 0.0
H2367 H 0.11954 0.53123 0.36291 0.0
C2368 C 0.11376 0.58925 0.2989 0.0
C2369 C 0.11203 0.60287 0.30951 0.0
C2370 C 0.1177 0.57386 0.30552 0.0
C2371 C 0.11962 0.57199 0.32277 0.0
C2372 C 0.11673 0.58543 0.33334 0.0
C2373 C 0.11308 0.60077 0.32674 0.0
C2374 C 0.14693 0.53613 0.33146 0.0
C2375 C 0.1397 0.52945 0.34577 0.0
C2376 C 0.14001 0.54963 0.32353 0.0
C2377 C 0.12586 0.55662 0.32991 0.0
C2378 C 0.11857 0.54975 0.3441 0.0
C2379 C 0.12542 0.53627 0.35195 0.0
H2380 H 0.37193 0.52742 0.82407 0.0
H2381 H 0.35044 0.50941 0.86958 0.0
H2382 H 0.37383 0.4991 0.81401 0.0
H2383 H 0.35274 0.4808 0.85971 0.0
H2384 H 0.34613 0.43292 0.82809 0.0
H2385 H 0.34294 0.4606 0.83927 0.0
H2386 H 0.39032 0.47572 0.82013 0.0
H2387 H 0.39333 0.44808 0.80844 0.0
C2388 C 0.36749 0.51733 0.83185 0.0
C2389 C 0.36112 0.52051 0.84759 0.0
C2390 C 0.36876 0.50111 0.82619 0.0
C2391 C 0.36381 0.48767 0.83621 0.0
C2392 C 0.35668 0.49089 0.85169 0.0
C2393 C 0.35529 0.50723 0.85733 0.0
C2394 C 0.35596 0.44208 0.82635 0.0
C2395 C 0.36995 0.43831 0.81721 0.0
C2396 C 0.35413 0.45796 0.83286 0.0
C2397 C 0.36626 0.47043 0.83043 0.0
C2398 C 0.38057 0.46647 0.82189 0.0
C2399 C 0.38237 0.45059 0.81531 0.0
H2400 H 0.93526 0.81184 0.66076 0.0
H2401 H 0.9131 0.83874 0.62053 0.0
H2402 H 0.914 0.78989 0.65754 0.0
H2403 H 0.89179 0.8173 0.61769 0.0
H2404 H 0.86625 0.76647 0.60543 0.0
H2405 H 0.88627 0.78972 0.60835 0.0
H2406 H 0.88587 0.78375 0.66168 0.0
H2407 H 0.86656 0.76038 0.65861 0.0
C2408 C 0.92582 0.81315 0.65136 0.0
C2409 C 0.92603 0.82701 0.64088 0.0
C2410 C 0.91355 0.80062 0.64952 0.0
C2411 C 0.90111 0.80176 0.63729 0.0
C2412 C 0.90127 0.81576 0.627 0.0
C2413 C 0.91354 0.82815 0.62874 0.0
C2414 C 0.87024 0.77041 0.61773 0.0
C2415 C 0.86492 0.7616 0.63175 0.0
C2416 C 0.88176 0.78368 0.61947 0.0
C2417 C 0.888 0.78846 0.63529 0.0
C2418 C 0.88181 0.78017 0.64929 0.0
C2419 C 0.87054 0.76688 0.64753 0.0
H2420 H 0.93061 0.20118 0.34476 0.0
H2421 H 0.9377 0.21001 0.39734 0.0
H2422 H 0.95673 0.18741 0.34384 0.0
H2423 H 0.96344 0.19591 0.39652 0.0
H2424 H 0.01619 0.18529 0.38823 0.0
H2425 H 0.99062 0.19988 0.3868 0.0
H2426 H 0.9708 0.16301 0.35229 0.0
H2427 H 0.9967 0.14872 0.35338 0.0
C2428 C 0.93765 0.20006 0.35616 0.0
C2429 C 0.93204 0.20678 0.37112 0.0
C2430 C 0.95262 0.19211 0.35563 0.0
C2431 C 0.96234 0.19066 0.37007 0.0
C2432 C 0.95653 0.19711 0.38506 0.0
C2433 C 0.94164 0.2051 0.38557 0.0
C2434 C 0.00643 0.18042 0.38019 0.0
C2435 C 0.0084 0.16583 0.37101 0.0
C2436 C 0.99169 0.18869 0.37948 0.0
C2437 C 0.97847 0.1825 0.36965 0.0
C2438 C 0.9807 0.1682 0.35994 0.0
C2439 C 0.99553 0.15998 0.36058 0.0
H2440 H 0.52782 0.16744 0.15664 0.0
H2441 H 0.55576 0.15043 0.11525 0.0
H2442 H 0.54493 0.19268 0.15826 0.0
H2443 H 0.57225 0.17629 0.11586 0.0
H2444 H 0.60648 0.2209 0.12813 0.0
H2445 H 0.59181 0.19403 0.12769 0.0
H2446 H 0.54837 0.21753 0.14515 0.0
H2447 H 0.56354 0.24399 0.1467 0.0
C2448 C 0.53777 0.16913 0.14795 0.0
C2449 C 0.54058 0.15702 0.13591 0.0
C2450 C 0.54744 0.18374 0.14865 0.0
C2451 C 0.55981 0.1869 0.13691 0.0
C2452 C 0.56298 0.17438 0.12522 0.0
C2453 C 0.55356 0.15951 0.12484 0.0
C2454 C 0.59375 0.22024 0.13175 0.0
C2455 C 0.58611 0.23445 0.13751 0.0
C2456 C 0.58529 0.20483 0.13148 0.0
C2457 C 0.56887 0.20337 0.13663 0.0
C2458 C 0.56112 0.21788 0.14165 0.0
C2459 C 0.56971 0.23316 0.14231 0.0
H2460 H 0.53323 0.82504 0.87231 0.0
H2461 H 0.54549 0.84258 0.92181 0.0
H2462 H 0.55562 0.80585 0.87373 0.0
H2463 H 0.5681 0.82368 0.9231 0.0
H2464 H 0.60806 0.78661 0.92047 0.0
H2465 H 0.57952 0.79487 0.92145 0.0
H2466 H 0.58452 0.81692 0.87285 0.0
H2467 H 0.61266 0.80872 0.87179 0.0
C2468 C 0.54051 0.8245 0.88361 0.0
C2469 C 0.53808 0.8355 0.89678 0.0
C2470 C 0.55322 0.81352 0.88445 0.0
C2471 C 0.56369 0.81358 0.89839 0.0
C2472 C 0.56015 0.82338 0.91224 0.0
C2473 C 0.54736 0.8343 0.91143 0.0
C2474 C 0.60295 0.79311 0.90998 0.0
C2475 C 0.6126 0.79731 0.89618 0.0
C2476 C 0.58668 0.79773 0.91052 0.0
C2477 C 0.57986 0.80634 0.89717 0.0
C2478 C 0.58939 0.80999 0.88318 0.0
C2479 C 0.6056 0.80555 0.88271 0.0
H2480 H 0.93051 0.22156 0.86474 0.0
H2481 H 0.88241 0.19782 0.86155 0.0
H2482 H 0.94274 0.19559 0.85666 0.0
H2483 H 0.89428 0.17234 0.85214 0.0
H2484 H 0.92236 0.12563 0.86202 0.0
H2485 H 0.90855 0.15137 0.86396 0.0
H2486 H 0.94699 0.17587 0.83557 0.0
H2487 H 0.96155 0.14994 0.83466 0.0
C2488 C 0.92263 0.21073 0.86225 0.0
C2489 C 0.90567 0.21137 0.86415 0.0
C2490 C 0.92953 0.19599 0.8573 0.0
C2491 C 0.91948 0.18186 0.85374 0.0
C2492 C 0.90242 0.18283 0.85516 0.0
C2493 C 0.8956 0.19738 0.86061 0.0
C2494 C 0.92784 0.13646 0.85605 0.0
C2495 C 0.94325 0.13597 0.84863 0.0
C2496 C 0.91978 0.15124 0.85697 0.0
C2497 C 0.92679 0.16579 0.85016 0.0
C2498 C 0.94151 0.16494 0.84134 0.0
C2499 C 0.94975 0.1501 0.84064 0.0
H2500 H 0.59305 0.1934 0.65298 0.0
H2501 H 0.58288 0.21425 0.60489 0.0
H2502 H 0.56546 0.18029 0.65322 0.0
H2503 H 0.55587 0.20064 0.6046 0.0
H2504 H 0.5031 0.19504 0.61657 0.0
H2505 H 0.53125 0.20575 0.61828 0.0
H2506 H 0.54567 0.16029 0.64176 0.0
H2507 H 0.51716 0.14992 0.64067 0.0
C2508 C 0.58508 0.19468 0.64225 0.0
C2509 C 0.58993 0.2048 0.62893 0.0
C2510 C 0.56929 0.18725 0.64239 0.0
C2511 C 0.55826 0.18977 0.62911 0.0
C2512 C 0.56377 0.19891 0.61529 0.0
C2513 C 0.57932 0.20651 0.61532 0.0
C2514 C 0.51226 0.18744 0.62227 0.0
C2515 C 0.50802 0.17164 0.62834 0.0
C2516 C 0.52845 0.19347 0.6231 0.0
C2517 C 0.54086 0.1837 0.62976 0.0
C2518 C 0.53646 0.16813 0.63653 0.0
C2519 C 0.52014 0.16218 0.6359 0.0
H2520 H 0.60922 0.74658 0.40325 0.0
H2521 H 0.58315 0.72853 0.35956 0.0
H2522 H 0.59558 0.7729 0.40095 0.0
H2523 H 0.57056 0.75501 0.35638 0.0
H2524 H 0.53918 0.79992 0.36178 0.0
H2525 H 0.55158 0.77306 0.36494 0.0
H2526 H 0.59494 0.79736 0.38646 0.0
H2527 H 0.58191 0.82393 0.3843 0.0
C2528 C 0.60056 0.74822 0.3932 0.0
C2529 C 0.59725 0.73543 0.38167 0.0
C2530 C 0.59288 0.76343 0.39166 0.0
C2531 C 0.58197 0.76634 0.37834 0.0
C2532 C 0.57858 0.75335 0.36698 0.0
C2533 C 0.58595 0.7381 0.36874 0.0
C2534 C 0.55145 0.79946 0.36696 0.0
C2535 C 0.55961 0.81396 0.37273 0.0
C2536 C 0.55863 0.78404 0.3688 0.0
C2537 C 0.57433 0.78283 0.37611 0.0
C2538 C 0.58269 0.79757 0.38124 0.0
C2539 C 0.57533 0.81289 0.37977 0.0
H2540 H 0.93154 0.81207 0.10396 0.0
H2541 H 0.90466 0.85687 0.10835 0.0
H2542 H 0.95661 0.82726 0.11214 0.0
H2543 H 0.92987 0.87252 0.11542 0.0
H2544 H 0.97537 0.89465 0.1416 0.0
H2545 H 0.94982 0.87861 0.13564 0.0
H2546 H 0.97653 0.84556 0.10431 0.0
H2547 H 0.00158 0.86053 0.11122 0.0
C2548 C 0.93115 0.82533 0.10609 0.0
C2549 C 0.91625 0.83334 0.10529 0.0
C2550 C 0.94553 0.83412 0.11086 0.0
C2551 C 0.94545 0.85128 0.11453 0.0
C2552 C 0.9305 0.85933 0.11312 0.0
C2553 C 0.91607 0.85043 0.10875 0.0
C2554 C 0.97568 0.88375 0.13374 0.0
C2555 C 0.99047 0.87892 0.12687 0.0
C2556 C 0.96103 0.87464 0.1301 0.0
C2557 C 0.96094 0.86069 0.11936 0.0
C2558 C 0.97592 0.85588 0.11287 0.0
C2559 C 0.9904 0.86468 0.11674 0.0
H2560 H 0.64703 0.92578 0.85112 0.0
H2561 H 0.67713 0.96107 0.82388 0.0
H2562 H 0.63758 0.91297 0.82514 0.0
H2563 H 0.66843 0.94778 0.79792 0.0
H2564 H 0.63709 0.93579 0.75398 0.0
H2565 H 0.64489 0.94685 0.78118 0.0
H2566 H 0.64308 0.89711 0.80125 0.0
H2567 H 0.63432 0.88626 0.77403 0.0
C2568 C 0.65203 0.93046 0.83958 0.0
C2569 C 0.66278 0.94446 0.83948 0.0
C2570 C 0.64657 0.92314 0.82466 0.0
C2571 C 0.65193 0.92954 0.80936 0.0
C2572 C 0.66357 0.94286 0.80941 0.0
C2573 C 0.66878 0.95035 0.82429 0.0
C2574 C 0.63798 0.92732 0.76435 0.0
C2575 C 0.63511 0.91026 0.76203 0.0
C2576 C 0.64272 0.93358 0.77988 0.0
C2577 C 0.64512 0.92284 0.79336 0.0
C2578 C 0.64136 0.90577 0.79119 0.0
C2579 C 0.63628 0.89954 0.77564 0.0
H2580 H 0.80796 0.92742 0.58052 0.0
H2581 H 0.82756 0.87973 0.59217 0.0
H2582 H 0.81875 0.92547 0.55249 0.0
H2583 H 0.83761 0.87737 0.56407 0.0
H2584 H 0.86797 0.88608 0.51717 0.0
H2585 H 0.85746 0.88723 0.54543 0.0
H2586 H 0.81454 0.91159 0.52711 0.0
H2587 H 0.82554 0.91113 0.49917 0.0
C2588 C 0.81449 0.91649 0.57706 0.0
C2589 C 0.81695 0.90379 0.58857 0.0
C2590 C 0.82057 0.91528 0.56095 0.0
C2591 C 0.82902 0.90119 0.55592 0.0
C2592 C 0.83144 0.88851 0.56751 0.0
C2593 C 0.82559 0.88985 0.58365 0.0
C2594 C 0.85622 0.89148 0.51925 0.0
C2595 C 0.84758 0.89861 0.50611 0.0
C2596 C 0.85015 0.89215 0.53542 0.0
C2597 C 0.83521 0.89972 0.53865 0.0
C2598 C 0.82629 0.90611 0.52524 0.0
C2599 C 0.83248 0.90568 0.50919 0.0
H2600 H 0.88007 0.09093 0.32626 0.0
H2601 H 0.83174 0.07355 0.31039 0.0
H2602 H 0.88578 0.10075 0.29862 0.0
H2603 H 0.83727 0.08418 0.28247 0.0
H2604 H 0.85836 0.09062 0.23039 0.0
H2605 H 0.85269 0.07975 0.25807 0.0
H2606 H 0.88001 0.12153 0.27968 0.0
H2607 H 0.88622 0.13187 0.25199 0.0
C2608 C 0.87048 0.08941 0.31691 0.0
C2609 C 0.85535 0.08149 0.32065 0.0
C2610 C 0.87379 0.09517 0.30097 0.0
C2611 C 0.86199 0.09343 0.28822 0.0
C2612 C 0.84676 0.08558 0.29191 0.0
C2613 C 0.8435 0.07959 0.30795 0.0
C2614 C 0.86331 0.09732 0.2411 0.0
C2615 C 0.87278 0.11204 0.23906 0.0
C2616 C 0.85989 0.09121 0.25698 0.0
C2617 C 0.86576 0.09978 0.27122 0.0
C2618 C 0.87546 0.11441 0.26907 0.0
C2619 C 0.87903 0.1204 0.25319 0.0
H2620 H 0.63171 0.14334 0.00444 0.0
H2621 H 0.61923 0.09193 0.0144 0.0
H2622 H 0.65048 0.14399 0.0286 0.0
H2623 H 0.63765 0.09257 0.03835 0.0
H2624 H 0.65822 0.10437 0.08973 0.0
H2625 H 0.63929 0.10648 0.06637 0.0
H2626 H 0.67753 0.12971 0.03709 0.0
H2627 H 0.69668 0.12763 0.06059 0.0
C2628 C 0.63284 0.13229 0.01188 0.0
C2629 C 0.62399 0.11761 0.00762 0.0
C2630 C 0.64365 0.1326 0.02559 0.0
C2631 C 0.6455 0.11833 0.03538 0.0
C2632 C 0.63638 0.10381 0.03119 0.0
C2633 C 0.62586 0.10343 0.01743 0.0
C2634 C 0.66267 0.10997 0.07836 0.0
C2635 C 0.67905 0.11571 0.07703 0.0
C2636 C 0.65178 0.11116 0.06495 0.0
C2637 C 0.65692 0.11825 0.04989 0.0
C2638 C 0.6732 0.12431 0.0486 0.0
C2639 C 0.68419 0.12296 0.062 0.0
H2640 H 0.61515 0.14208 0.741 0.0
H2641 H 0.64136 0.10487 0.76774 0.0
H2642 H 0.61637 0.12524 0.71563 0.0
H2643 H 0.64211 0.08785 0.74284 0.0
H2644 H 0.659 0.07123 0.69239 0.0
H2645 H 0.65633 0.08826 0.71723 0.0
H2646 H 0.6072 0.10001 0.70201 0.0
H2647 H 0.61005 0.0835 0.67703 0.0
C2648 C 0.62083 0.13015 0.74149 0.0
C2649 C 0.6283 0.12478 0.75617 0.0
C2650 C 0.62157 0.12051 0.72701 0.0
C2651 C 0.62964 0.10532 0.72713 0.0
C2652 C 0.63626 0.09968 0.74215 0.0
C2653 C 0.63568 0.10935 0.75646 0.0
C2654 C 0.64766 0.07748 0.69434 0.0
C2655 C 0.63477 0.07599 0.68272 0.0
C2656 C 0.64606 0.08717 0.70862 0.0
C2657 C 0.63148 0.09544 0.71168 0.0
C2658 C 0.61866 0.09401 0.69998 0.0
C2659 C 0.62029 0.08444 0.68567 0.0
H2660 H 0.71039 0.90182 0.44828 0.0
H2661 H 0.6628 0.88432 0.43061 0.0
H2662 H 0.70195 0.89624 0.47694 0.0
H2663 H 0.65415 0.87938 0.4589 0.0
H2664 H 0.64709 0.85524 0.50803 0.0
H2665 H 0.65829 0.86032 0.48049 0.0
H2666 H 0.68479 0.90396 0.4992 0.0
H2667 H 0.6742 0.89835 0.52684 0.0
C2668 C 0.69802 0.89717 0.45058 0.0
C2669 C 0.68727 0.89345 0.43727 0.0
C2670 C 0.69318 0.8939 0.46695 0.0
C2671 C 0.67744 0.887 0.47026 0.0
C2672 C 0.66652 0.88413 0.45688 0.0
C2673 C 0.67141 0.88718 0.44063 0.0
C2674 C 0.65554 0.86572 0.50629 0.0
C2675 C 0.65968 0.87644 0.51953 0.0
C2676 C 0.66183 0.86879 0.49046 0.0
C2677 C 0.67222 0.88278 0.48749 0.0
C2678 C 0.67691 0.89306 0.50097 0.0
C2679 C 0.67076 0.88987 0.51682 0.0
H2680 H 0.82422 0.95824 0.17674 0.0
H2681 H 0.8703 0.93713 0.16373 0.0
H2682 H 0.82674 0.94654 0.20461 0.0
H2683 H 0.87312 0.92628 0.19139 0.0
H2684 H 0.86709 0.89629 0.23866 0.0
H2685 H 0.86345 0.90629 0.21033 0.0
H2686 H 0.84262 0.95103 0.22935 0.0
H2687 H 0.84563 0.94061 0.25755 0.0
C2688 C 0.8348 0.95107 0.17976 0.0
C2689 C 0.84703 0.94871 0.16799 0.0
C2690 C 0.83635 0.9445 0.19577 0.0
C2691 C 0.85022 0.93555 0.2003 0.0
C2692 C 0.86218 0.93288 0.18834 0.0
C2693 C 0.86057 0.93927 0.17242 0.0
C2694 C 0.86198 0.90837 0.23673 0.0
C2695 C 0.85669 0.91774 0.2502 0.0
C2696 C 0.85983 0.9141 0.22052 0.0
C2697 C 0.85256 0.92942 0.21752 0.0
C2698 C 0.84785 0.93901 0.23114 0.0
C2699 C 0.84981 0.93317 0.2473 0.0
H2700 H 0.87362 0.09881 0.99043 0.0
H2701 H 0.85484 0.14766 0.99722 0.0
H2702 H 0.8559 0.09443 0.96616 0.0
H2703 H 0.83691 0.1433 0.97274 0.0
H2704 H 0.79357 0.11713 0.94235 0.0
H2705 H 0.8121 0.12306 0.96591 0.0
H2706 H 0.85272 0.10639 0.93723 0.0
H2707 H 0.83434 0.10051 0.91372 0.0
C2708 C 0.86582 0.1087 0.98655 0.0
C2709 C 0.86568 0.12364 0.9955 0.0
C2710 C 0.85571 0.10621 0.97266 0.0
C2711 C 0.84504 0.11851 0.96761 0.0
C2712 C 0.84501 0.13359 0.97646 0.0
C2713 C 0.85538 0.13619 0.99028 0.0
C2714 C 0.80643 0.11457 0.94115 0.0
C2715 C 0.81249 0.10826 0.92622 0.0
C2716 C 0.81704 0.11818 0.95454 0.0
C2717 C 0.83383 0.11529 0.95331 0.0
C2718 C 0.83982 0.1087 0.9385 0.0
C2719 C 0.82928 0.10531 0.92507 0.0
H2720 H 0.82457 0.61011 0.92838 0.0
H2721 H 0.81464 0.66227 0.93173 0.0
H2722 H 0.79695 0.60416 0.91831 0.0
H2723 H 0.78698 0.6564 0.92091 0.0
H2724 H 0.73436 0.64072 0.91469 0.0
H2725 H 0.76132 0.64439 0.92751 0.0
H2726 H 0.7795 0.60651 0.89507 0.0
H2727 H 0.75207 0.60236 0.88285 0.0
C2728 C 0.81652 0.62039 0.92679 0.0
C2729 C 0.82186 0.63673 0.93078 0.0
C2730 C 0.80064 0.61694 0.92092 0.0
C2731 C 0.78965 0.62974 0.9187 0.0
C2732 C 0.79499 0.64613 0.92272 0.0
C2733 C 0.81088 0.64957 0.92883 0.0
C2734 C 0.74407 0.63289 0.91062 0.0
C2735 C 0.7412 0.62119 0.8979 0.0
C2736 C 0.75959 0.63517 0.91778 0.0
C2737 C 0.77276 0.62603 0.91213 0.0
C2738 C 0.76966 0.61372 0.89986 0.0
C2739 C 0.75396 0.61124 0.89287 0.0
H2740 H 0.35808 0.90361 0.06553 0.0
H2741 H 0.3441 0.85275 0.05344 0.0
H2742 H 0.33061 0.90819 0.07545 0.0
H2743 H 0.31643 0.85738 0.06375 0.0
H2744 H 0.28082 0.8703 0.10792 0.0
H2745 H 0.30642 0.86477 0.09402 0.0
H2746 H 0.30046 0.90789 0.0632 0.0
H2747 H 0.27447 0.91328 0.07697 0.0
C2748 C 0.34914 0.89337 0.06505 0.0
C2749 C 0.35325 0.87774 0.05889 0.0
C2750 C 0.33337 0.89609 0.07055 0.0
C2751 C 0.32147 0.88317 0.07027 0.0
C2752 C 0.32548 0.86752 0.06405 0.0
C2753 C 0.34124 0.86488 0.0582 0.0
C2754 C 0.28493 0.87856 0.09812 0.0
C2755 C 0.2758 0.89229 0.09354 0.0
C2756 C 0.29947 0.87529 0.09009 0.0
C2757 C 0.30529 0.88585 0.07753 0.0
C2758 C 0.29614 0.89957 0.07287 0.0
C2759 C 0.28137 0.90267 0.08072 0.0
H2760 H 0.89751 0.49331 0.82168 0.0
H2761 H 0.85191 0.50513 0.8447 0.0
H2762 H 0.89894 0.52037 0.80871 0.0
H2763 H 0.85266 0.53199 0.83076 0.0
H2764 H 0.86849 0.58541 0.82075 0.0
H2765 H 0.8661 0.5577 0.83229 0.0
H2766 H 0.88942 0.53821 0.78873 0.0
H2767 H 0.89264 0.56631 0.77771 0.0
C2768 C 0.88759 0.50162 0.8237 0.0
C2769 C 0.87464 0.49717 0.83428 0.0
C2770 C 0.88834 0.51715 0.81612 0.0
C2771 C 0.87597 0.52854 0.81867 0.0
C2772 C 0.86263 0.52375 0.82877 0.0
C2773 C 0.86206 0.50828 0.83663 0.0
C2774 C 0.87313 0.57518 0.81367 0.0
C2775 C 0.88078 0.57798 0.79835 0.0
C2776 C 0.87161 0.55922 0.8202 0.0
C2777 C 0.8774 0.54555 0.81143 0.0
C2778 C 0.88502 0.5484 0.79602 0.0
C2779 C 0.88686 0.56449 0.78964 0.0
H2780 H 0.18423 0.14124 0.56217 0.0
H2781 H 0.17621 0.08866 0.57059 0.0
H2782 H 0.20919 0.14088 0.57907 0.0
H2783 H 0.20119 0.08839 0.58749 0.0
H2784 H 0.25815 0.09454 0.5976 0.0
H2785 H 0.23173 0.09277 0.58302 0.0
H2786 H 0.21654 0.13624 0.60937 0.0
H2787 H 0.24289 0.13796 0.62402 0.0
C2788 C 0.18782 0.1296 0.56754 0.0
C2789 C 0.17823 0.11499 0.56503 0.0
C2790 C 0.20202 0.12944 0.57735 0.0
C2791 C 0.20703 0.11463 0.58469 0.0
C2792 C 0.19762 0.09996 0.58195 0.0
C2793 C 0.18331 0.10015 0.5723 0.0
C2794 C 0.24902 0.1035 0.60051 0.0
C2795 C 0.25258 0.11647 0.6118 0.0
C2796 C 0.23393 0.10249 0.59217 0.0
C2797 C 0.22222 0.11453 0.59489 0.0
C2798 C 0.22548 0.12698 0.60683 0.0
C2799 C 0.24049 0.12788 0.61529 0.0
H2800 H 0.12628 0.90895 0.84538 0.0
H2801 H 0.11237 0.92711 0.79712 0.0
H2802 H 0.13321 0.93708 0.85455 0.0
H2803 H 0.12019 0.95538 0.80588 0.0
H2804 H 0.12177 0.00581 0.83235 0.0
H2805 H 0.11442 0.97823 0.82202 0.0
H2806 H 0.15315 0.9581 0.85206 0.0
H2807 H 0.15978 0.98578 0.86317 0.0
C2808 C 0.12462 0.91906 0.83676 0.0
C2809 C 0.11868 0.91591 0.82059 0.0
C2810 C 0.12885 0.9352 0.84192 0.0
C2811 C 0.12763 0.94862 0.83091 0.0
C2812 C 0.1212 0.94546 0.81481 0.0
C2813 C 0.11664 0.92927 0.80976 0.0
C2814 C 0.12883 0.99551 0.83664 0.0
C2815 C 0.14124 0.99792 0.84872 0.0
C2816 C 0.12464 0.97963 0.83063 0.0
C2817 C 0.13297 0.96575 0.83633 0.0
C2818 C 0.14608 0.96837 0.84772 0.0
C2819 C 0.15008 0.98426 0.85395 0.0
H2820 H 0.73946 0.38422 0.43749 0.0
H2821 H 0.73184 0.34696 0.39925 0.0
H2822 H 0.71331 0.3755 0.44998 0.0
H2823 H 0.70568 0.3385 0.41154 0.0
H2824 H 0.65136 0.35373 0.42527 0.0
H2825 H 0.67908 0.35615 0.41424 0.0
H2826 H 0.69908 0.34819 0.46331 0.0
H2827 H 0.6713 0.34545 0.47434 0.0
C2828 C 0.73225 0.37411 0.43188 0.0
C2829 C 0.73753 0.3663 0.41742 0.0
C2830 C 0.71742 0.36906 0.43905 0.0
C2831 C 0.70761 0.35634 0.43167 0.0
C2832 C 0.71307 0.34833 0.4174 0.0
C2833 C 0.72799 0.35319 0.41041 0.0
C2834 C 0.66169 0.35207 0.43359 0.0
C2835 C 0.65929 0.34937 0.4506 0.0
C2836 C 0.67749 0.35343 0.4273 0.0
C2837 C 0.6911 0.35245 0.438 0.0
C2838 C 0.68871 0.34904 0.45489 0.0
C2839 C 0.67288 0.34732 0.46113 0.0
H2840 H 0.87708 0.48902 0.67576 0.0
H2841 H 0.83752 0.46023 0.65246 0.0
H2842 H 0.889 0.4636 0.68588 0.0
H2843 H 0.84921 0.4348 0.66292 0.0
H2844 H 0.88304 0.39278 0.66491 0.0
H2845 H 0.8737 0.41969 0.6559 0.0
H2846 H 0.8847 0.43995 0.70469 0.0
H2847 H 0.89438 0.41302 0.71359 0.0
C2848 C 0.87077 0.47725 0.67311 0.0
C2849 C 0.85648 0.47647 0.66326 0.0
C2850 C 0.8776 0.46273 0.67889 0.0
C2851 C 0.87021 0.44724 0.67489 0.0
C2852 C 0.85539 0.44658 0.66581 0.0
C2853 C 0.84859 0.46109 0.66001 0.0
C2854 C 0.88383 0.40312 0.67355 0.0
C2855 C 0.88934 0.40091 0.68992 0.0
C2856 C 0.87831 0.41843 0.66849 0.0
C2857 C 0.87806 0.43175 0.67975 0.0
C2858 C 0.88472 0.42987 0.69578 0.0
C2859 C 0.89038 0.41452 0.70082 0.0
H2860 H 0.65045 0.47965 0.16674 0.0
H2861 H 0.62671 0.49946 0.12331 0.0
H2862 H 0.64673 0.50587 0.18149 0.0
H2863 H 0.62322 0.52571 0.13796 0.0
H2864 H 0.63906 0.57473 0.16583 0.0
H2865 H 0.64217 0.54887 0.15063 0.0
H2866 H 0.62053 0.52152 0.19133 0.0
H2867 H 0.61721 0.54764 0.2066 0.0
C2868 C 0.64474 0.48973 0.16027 0.0
C2869 C 0.63886 0.48764 0.14392 0.0
C2870 C 0.64242 0.50459 0.16876 0.0
C2871 C 0.63448 0.51764 0.1609 0.0
C2872 C 0.62932 0.51579 0.14429 0.0
C2873 C 0.63138 0.50086 0.13591 0.0
C2874 C 0.63478 0.5632 0.17146 0.0
C2875 C 0.62791 0.56309 0.18737 0.0
C2876 C 0.63655 0.54845 0.16275 0.0
C2877 C 0.63173 0.53326 0.1699 0.0
C2878 C 0.62449 0.53312 0.18567 0.0
C2879 C 0.62243 0.548 0.1943 0.0
H2880 H 0.56584 0.69285 0.84481 0.0
H2881 H 0.58392 0.67085 0.89002 0.0
H2882 H 0.58615 0.71565 0.84814 0.0
H2883 H 0.60374 0.69366 0.8935 0.0
H2884 H 0.64804 0.73042 0.88566 0.0
H2885 H 0.6286 0.70653 0.88289 0.0
H2886 H 0.59124 0.73925 0.86577 0.0
H2887 H 0.61058 0.76267 0.86813 0.0
C2888 C 0.57405 0.69288 0.85545 0.0
C2889 C 0.57311 0.68001 0.86713 0.0
C2890 C 0.58567 0.70598 0.85744 0.0
C2891 C 0.59658 0.70656 0.87118 0.0
C2892 C 0.59573 0.69357 0.88269 0.0
C2893 C 0.58419 0.68051 0.88071 0.0
C2894 C 0.63559 0.73241 0.88157 0.0
C2895 C 0.63081 0.7483 0.877 0.0
C2896 C 0.62446 0.71878 0.87991 0.0
C2897 C 0.6084 0.72091 0.87375 0.0
C2898 C 0.60358 0.73701 0.87002 0.0
C2899 C 0.61464 0.75048 0.87156 0.0
H2900 H 0.49413 0.33528 0.1521 0.0
H2901 H 0.51622 0.36529 0.11353 0.0
H2902 H 0.51869 0.31859 0.1533 0.0
H2903 H 0.54047 0.34857 0.11453 0.0
H2904 H 0.57026 0.3019 0.10612 0.0
H2905 H 0.54624 0.31903 0.1068 0.0
H2906 H 0.5494 0.32103 0.16031 0.0
H2907 H 0.57353 0.30394 0.15967 0.0
C2908 C 0.50429 0.33843 0.14404 0.0
C2909 C 0.50323 0.35155 0.13269 0.0
C2910 C 0.51832 0.32887 0.1447 0.0
C2911 C 0.53145 0.33214 0.13386 0.0
C2912 C 0.53048 0.34555 0.12284 0.0
C2913 C 0.5166 0.35517 0.12233 0.0
C2914 C 0.56586 0.30597 0.11804 0.0
C2915 C 0.5739 0.30158 0.13283 0.0
C2916 C 0.55213 0.31586 0.11843 0.0
C2917 C 0.54594 0.32143 0.13362 0.0
C2918 C 0.55381 0.31686 0.14842 0.0
C2919 C 0.5677 0.30715 0.14803 0.0
H2920 H 0.9344 0.26604 0.34543 0.0
H2921 H 0.90474 0.28149 0.38633 0.0
H2922 H 0.94976 0.2922 0.34652 0.0
H2923 H 0.9208 0.30784 0.38794 0.0
H2924 H 0.94421 0.35958 0.37406 0.0
H2925 H 0.92687 0.3341 0.3731 0.0
H2926 H 0.96962 0.30562 0.36367 0.0
H2927 H 0.98656 0.33072 0.36394 0.0
C2928 C 0.93129 0.275 0.35483 0.0
C2929 C 0.9184 0.2717 0.36583 0.0
C2930 C 0.94017 0.29002 0.35551 0.0
C2931 C 0.93664 0.30213 0.3674 0.0
C2932 C 0.92374 0.29884 0.37853 0.0
C2933 C 0.91467 0.28372 0.37774 0.0
C2934 C 0.9498 0.34787 0.37154 0.0
C2935 C 0.96675 0.34724 0.36889 0.0
C2936 C 0.93991 0.33326 0.3712 0.0
C2937 C 0.94683 0.31779 0.36823 0.0
C2938 C 0.96377 0.3173 0.36564 0.0
C2939 C 0.97354 0.33178 0.36584 0.0
H2940 H 0.94789 0.65179 0.59161 0.0
H2941 H 0.9649 0.67582 0.63696 0.0
H2942 H 0.92611 0.67159 0.58914 0.0
H2943 H 0.94341 0.6959 0.63428 0.0
H2944 H 0.89087 0.71288 0.58635 0.0
H2945 H 0.9182 0.70132 0.58599 0.0
H2946 H 0.91398 0.68951 0.63813 0.0
H2947 H 0.88712 0.70109 0.63857 0.0
C2948 C 0.94708 0.6615 0.60087 0.0
C2949 C 0.95767 0.66216 0.61468 0.0
C2950 C 0.93482 0.67294 0.59934 0.0
C2951 C 0.93311 0.68516 0.61158 0.0
C2952 C 0.94443 0.68645 0.6248 0.0
C2953 C 0.9566 0.67494 0.62638 0.0
C2954 C 0.89596 0.70802 0.59774 0.0
C2955 C 0.88685 0.70753 0.6124 0.0
C2956 C 0.91152 0.70146 0.59753 0.0
C2957 C 0.91811 0.69459 0.61203 0.0
C2958 C 0.90928 0.69495 0.62684 0.0
C2959 C 0.89379 0.70134 0.62701 0.0
H2960 H 0.54305 0.36156 0.61182 0.0
H2961 H 0.54229 0.35553 0.66514 0.0
H2962 H 0.55514 0.33465 0.60883 0.0
H2963 H 0.55472 0.3285 0.66212 0.0
H2964 H 0.56949 0.27615 0.64874 0.0
H2965 H 0.55136 0.29958 0.64996 0.0
H2966 H 0.58341 0.32712 0.61685 0.0
H2967 H 0.60139 0.3037 0.61554 0.0
C2968 C 0.54541 0.3544 0.6229 0.0
C2969 C 0.54218 0.36069 0.63876 0.0
C2970 C 0.55227 0.33902 0.62117 0.0
C2971 C 0.55608 0.32974 0.63525 0.0
C2972 C 0.55182 0.33549 0.65107 0.0
C2973 C 0.54482 0.35092 0.65281 0.0
C2974 C 0.5725 0.28717 0.64159 0.0
C2975 C 0.58679 0.2883 0.63211 0.0
C2976 C 0.56219 0.30052 0.64235 0.0
C2977 C 0.56603 0.31505 0.63351 0.0
C2978 C 0.58009 0.31593 0.62361 0.0
C2979 C 0.59041 0.30263 0.62292 0.0
H2980 H 0.89952 0.32218 0.87825 0.0
H2981 H 0.92812 0.28023 0.86476 0.0
H2982 H 0.92459 0.33982 0.87919 0.0
H2983 H 0.95291 0.29773 0.86569 0.0
H2984 H 0.99437 0.3345 0.85886 0.0
H2985 H 0.96732 0.32208 0.85212 0.0
H2986 H 0.94909 0.34 0.89876 0.0
H2987 H 0.97602 0.35248 0.90529 0.0
C2988 C 0.91109 0.31678 0.87532 0.0
C2989 C 0.91189 0.29979 0.87165 0.0
C2990 C 0.92541 0.32686 0.87586 0.0
C2991 C 0.94067 0.32014 0.87246 0.0
C2992 C 0.94131 0.30331 0.86815 0.0
C2993 C 0.92711 0.29324 0.86782 0.0
C2994 C 0.98446 0.33616 0.86737 0.0
C2995 C 0.98723 0.34439 0.88254 0.0
C2996 C 0.96903 0.32896 0.86362 0.0
C2997 C 0.95613 0.33004 0.87495 0.0
C2998 C 0.95873 0.33911 0.88971 0.0
C2999 C 0.97417 0.34612 0.89351 0.0
H3000 H 0.90186 0.76847 0.09587 0.0
H3001 H 0.89934 0.76588 0.14925 0.0
H3002 H 0.91786 0.74327 0.09563 0.0
H3003 H 0.91458 0.74065 0.14911 0.0
H3004 H 0.95507 0.70445 0.14676 0.0
H3005 H 0.94063 0.73032 0.14549 0.0
H3006 H 0.91674 0.71408 0.09982 0.0
H3007 H 0.93168 0.6885 0.10078 0.0
C3008 C 0.90464 0.76246 0.10751 0.0
C3009 C 0.89942 0.76918 0.12256 0.0
C3010 C 0.91375 0.74797 0.10742 0.0
C3011 C 0.91771 0.73987 0.12239 0.0
C3012 C 0.91222 0.74663 0.13736 0.0
C3013 C 0.90331 0.76109 0.13744 0.0
C3014 C 0.94676 0.70639 0.13644 0.0
C3015 C 0.94453 0.69431 0.12393 0.0
C3016 C 0.93837 0.72124 0.13572 0.0
C3017 C 0.92734 0.72437 0.1226 0.0
C3018 C 0.92525 0.71231 0.11001 0.0
C3019 C 0.93377 0.69753 0.11063 0.0
H3020 H 0.52606 0.60089 0.37586 0.0
H3021 H 0.50185 0.64745 0.37281 0.0
H3022 H 0.55162 0.61571 0.38389 0.0
H3023 H 0.52734 0.66238 0.38011 0.0
H3024 H 0.56949 0.68469 0.40961 0.0
H3025 H 0.54463 0.66781 0.40349 0.0
H3026 H 0.57313 0.63367 0.37531 0.0
H3027 H 0.59774 0.6499 0.38204 0.0
C3028 C 0.5264 0.61433 0.37631 0.0
C3029 C 0.51211 0.6231 0.37354 0.0
C3030 C 0.54098 0.62286 0.38107 0.0
C3031 C 0.54152 0.64029 0.38299 0.0
C3032 C 0.52733 0.64897 0.37929 0.0
C3033 C 0.5128 0.64046 0.37475 0.0
C3034 C 0.57044 0.67336 0.40248 0.0
C3035 C 0.58557 0.66877 0.39621 0.0
C3036 C 0.55618 0.66379 0.39873 0.0
C3037 C 0.55678 0.6495 0.38858 0.0
C3038 C 0.5721 0.64449 0.38317 0.0
C3039 C 0.58626 0.65394 0.38698 0.0
H3040 H 0.83855 0.61993 0.73507 0.0
H3041 H 0.8853 0.5976 0.74201 0.0
H3042 H 0.83405 0.60433 0.7094 0.0
H3043 H 0.88083 0.58178 0.71609 0.0
H3044 H 0.85311 0.54062 0.68419 0.0
H3045 H 0.86036 0.55838 0.70791 0.0
H3046 H 0.84484 0.60115 0.68061 0.0
H3047 H 0.83755 0.58343 0.65682 0.0
C3048 C 0.84801 0.61185 0.73089 0.0
C3049 C 0.8623 0.60997 0.74042 0.0
C3050 C 0.84545 0.60297 0.71617 0.0
C3051 C 0.85705 0.59179 0.71077 0.0
C3052 C 0.87164 0.59026 0.72004 0.0
C3053 C 0.87431 0.59941 0.73473 0.0
C3054 C 0.85111 0.55379 0.68326 0.0
C3055 C 0.8446 0.56058 0.66863 0.0
C3056 C 0.8555 0.56398 0.69678 0.0
C3057 C 0.85331 0.58115 0.69605 0.0
C3058 C 0.84665 0.58794 0.68152 0.0
C3059 C 0.84242 0.57778 0.66792 0.0
H3060 H 0.67494 0.62801 0.91429 0.0
H3061 H 0.68493 0.57624 0.92164 0.0
H3062 H 0.66236 0.62906 0.94154 0.0
H3063 H 0.67198 0.57732 0.94896 0.0
H3064 H 0.62843 0.5838 0.98527 0.0
H3065 H 0.64131 0.58341 0.95812 0.0
H3066 H 0.67317 0.62487 0.97273 0.0
H3067 H 0.66059 0.62499 1.00027 0.0
C3068 C 0.67434 0.61681 0.92168 0.0
C3069 C 0.6808 0.60198 0.91582 0.0
C3070 C 0.66726 0.6175 0.9373 0.0
C3071 C 0.66626 0.6033 0.94723 0.0
C3072 C 0.67261 0.58841 0.94141 0.0
C3073 C 0.68001 0.5878 0.92586 0.0
C3074 C 0.63814 0.59289 0.98269 0.0
C3075 C 0.64359 0.6044 0.99484 0.0
C3076 C 0.64554 0.59257 0.96721 0.0
C3077 C 0.6583 0.60396 0.96352 0.0
C3078 C 0.66335 0.61594 0.9754 0.0
C3079 C 0.65613 0.61606 0.99105 0.0
H3080 H 0.62592 0.40859 0.17372 0.0
H3081 H 0.66666 0.43877 0.19301 0.0
H3082 H 0.61957 0.39913 0.2012 0.0
H3083 H 0.66068 0.42839 0.22099 0.0
H3084 H 0.63409 0.4214 0.27025 0.0
H3085 H 0.64088 0.43092 0.24238 0.0
H3086 H 0.6275 0.38217 0.22296 0.0
H3087 H 0.62005 0.37299 0.25077 0.0
C3088 C 0.63374 0.4131 0.18382 0.0
C3089 C 0.64678 0.42464 0.18109 0.0
C3090 C 0.63013 0.40746 0.19969 0.0
C3091 C 0.63955 0.41295 0.21341 0.0
C3092 C 0.65298 0.4241 0.21071 0.0
C3093 C 0.65655 0.42992 0.19468 0.0
C3094 C 0.63231 0.41286 0.25991 0.0
C3095 C 0.62641 0.39653 0.26258 0.0
C3096 C 0.63646 0.41822 0.24399 0.0
C3097 C 0.63497 0.4073 0.23039 0.0
C3098 C 0.62865 0.39103 0.23307 0.0
C3099 C 0.62429 0.38574 0.24899 0.0
H3100 H 0.88181 0.36722 0.49002 0.0
H3101 H 0.86281 0.41411 0.50528 0.0
H3102 H 0.86283 0.36657 0.46602 0.0
H3103 H 0.84448 0.41372 0.48114 0.0
H3104 H 0.83511 0.41369 0.42263 0.0
H3105 H 0.85304 0.41268 0.4471 0.0
H3106 H 0.82706 0.36839 0.46363 0.0
H3107 H 0.8087 0.36959 0.4393 0.0
C3108 C 0.87359 0.37731 0.48826 0.0
C3109 C 0.87372 0.39068 0.49949 0.0
C3110 C 0.86277 0.37693 0.47461 0.0
C3111 C 0.85226 0.3901 0.47186 0.0
C3112 C 0.85249 0.40345 0.48304 0.0
C3113 C 0.86299 0.40366 0.49681 0.0
C3114 C 0.83314 0.40379 0.43153 0.0
C3115 C 0.82045 0.39178 0.42914 0.0
C3116 C 0.84341 0.40321 0.44547 0.0
C3117 C 0.84143 0.39039 0.45708 0.0
C3118 C 0.82883 0.37831 0.45472 0.0
C3119 C 0.81828 0.3791 0.44094 0.0
H3120 H 0.88674 0.36765 0.75921 0.0
H3121 H 0.85856 0.40264 0.73149 0.0
H3122 H 0.88368 0.38428 0.78434 0.0
H3123 H 0.85587 0.41954 0.75639 0.0
H3124 H 0.83931 0.43585 0.80805 0.0
H3125 H 0.84213 0.41919 0.78283 0.0
H3126 H 0.89238 0.41028 0.79635 0.0
H3127 H 0.88948 0.42634 0.82147 0.0
C3128 C 0.88009 0.37901 0.75849 0.0
C3129 C 0.87282 0.38386 0.74352 0.0
C3130 C 0.87833 0.38856 0.77283 0.0
C3131 C 0.86941 0.4032 0.7724 0.0
C3132 C 0.86251 0.40818 0.75725 0.0
C3133 C 0.86417 0.39859 0.74297 0.0
C3134 C 0.85091 0.4303 0.8056 0.0
C3135 C 0.86409 0.43231 0.81684 0.0
C3136 C 0.85258 0.42083 0.79114 0.0
C3137 C 0.86747 0.41331 0.78764 0.0
C3138 C 0.88064 0.41557 0.79881 0.0
C3139 C 0.87896 0.42489 0.81322 0.0
H3140 H 0.86755 0.64379 1.00104 0.0
H3141 H 0.82837 0.612 0.98128 0.0
H3142 H 0.85751 0.63874 0.02915 0.0
H3143 H 0.81805 0.60728 0.00917 0.0
H3144 H 0.81441 0.58835 0.06277 0.0
H3145 H 0.82484 0.59301 0.03464 0.0
H3146 H 0.83513 0.64462 0.04665 0.0
H3147 H 0.82532 0.64003 0.07435 0.0
C3148 C 0.85661 0.63602 0.00272 0.0
C3149 C 0.84872 0.62828 0.98908 0.0
C3150 C 0.85087 0.63305 0.01877 0.0
C3151 C 0.83706 0.62242 0.02142 0.0
C3152 C 0.82891 0.61518 0.00763 0.0
C3153 C 0.8347 0.61806 0.99165 0.0
C3154 C 0.81898 0.60063 0.05936 0.0
C3155 C 0.81916 0.61371 0.0709 0.0
C3156 C 0.82488 0.60335 0.04326 0.0
C3157 C 0.83095 0.6192 0.03845 0.0
C3158 C 0.83094 0.6322 0.05 0.0
C3159 C 0.82518 0.6295 0.06595 0.0
H3160 H 0.67225 0.58598 0.25461 0.0
H3161 H 0.62025 0.59244 0.25916 0.0
H3162 H 0.67333 0.57405 0.28197 0.0
H3163 H 0.62127 0.57992 0.28708 0.0
H3164 H 0.63719 0.57571 0.34337 0.0
H3165 H 0.63321 0.58636 0.31534 0.0
H3166 H 0.66481 0.54912 0.29628 0.0
H3167 H 0.66909 0.53869 0.32426 0.0
C3168 C 0.66093 0.58469 0.26144 0.0
C3169 C 0.64612 0.59008 0.2547 0.0
C3170 C 0.66156 0.57769 0.27715 0.0
C3171 C 0.64738 0.57582 0.28666 0.0
C3172 C 0.63243 0.58122 0.28001 0.0
C3173 C 0.63179 0.58827 0.26405 0.0
C3174 C 0.64336 0.56982 0.3332 0.0
C3175 C 0.65367 0.55647 0.3361 0.0
C3176 C 0.64089 0.57582 0.31712 0.0
C3177 C 0.64868 0.56861 0.30358 0.0
C3178 C 0.65879 0.55511 0.30647 0.0
C3179 C 0.6613 0.54915 0.32253 0.0
H3180 H 0.62426 0.36962 0.52261 0.0
H3181 H 0.66885 0.37855 0.49544 0.0
H3182 H 0.63872 0.37651 0.54855 0.0
H3183 H 0.68367 0.38438 0.52131 0.0
H3184 H 0.70261 0.41242 0.56595 0.0
H3185 H 0.68696 0.40521 0.54094 0.0
H3186 H 0.65765 0.36959 0.56887 0.0
H3187 H 0.67274 0.37765 0.59405 0.0
C3188 C 0.63727 0.37267 0.52229 0.0
C3189 C 0.64547 0.37372 0.50711 0.0
C3190 C 0.64561 0.37659 0.53715 0.0
C3191 C 0.66238 0.38132 0.5371 0.0
C3192 C 0.67067 0.38138 0.52187 0.0
C3193 C 0.66227 0.37783 0.50703 0.0
C3194 C 0.69267 0.40321 0.56674 0.0
C3195 C 0.68886 0.39564 0.58192 0.0
C3196 C 0.6838 0.39889 0.55236 0.0
C3197 C 0.67115 0.38656 0.55271 0.0
C3198 C 0.66714 0.37925 0.56806 0.0
C3199 C 0.67581 0.38386 0.58253 0.0
H3200 H 0.74379 0.87419 0.64146 0.0
H3201 H 0.76182 0.8977 0.5969 0.0
H3202 H 0.7182 0.86649 0.62731 0.0
H3203 H 0.73584 0.89007 0.58255 0.0
H3204 H 0.6939 0.85591 0.55897 0.0
H3205 H 0.72016 0.86392 0.57253 0.0
H3206 H 0.69422 0.87958 0.61596 0.0
H3207 H 0.66836 0.87145 0.60267 0.0
C3208 C 0.74213 0.87795 0.62866 0.0
C3209 C 0.75473 0.88661 0.62029 0.0
C3210 C 0.72746 0.87352 0.62053 0.0
C3211 C 0.72498 0.87757 0.60376 0.0
C3212 C 0.73747 0.88659 0.59542 0.0
C3213 C 0.75221 0.89118 0.60367 0.0
C3214 C 0.69391 0.86077 0.57152 0.0
C3215 C 0.67909 0.86296 0.57978 0.0
C3216 C 0.70889 0.86559 0.57919 0.0
C3217 C 0.70927 0.87249 0.5953 0.0
C3218 C 0.69442 0.87423 0.60361 0.0
C3219 C 0.67956 0.86957 0.59597 0.0
H3220 H 0.2119 0.59323 0.39838 0.0
H3221 H 0.23772 0.6177 0.4392 0.0
H3222 H 0.18596 0.59787 0.41186 0.0
H3223 H 0.21173 0.62197 0.45302 0.0
H3224 H 0.16073 0.64552 0.45901 0.0
H3225 H 0.18791 0.63913 0.44868 0.0
H3226 H 0.17002 0.58968 0.43543 0.0
H3227 H 0.14307 0.59619 0.4451 0.0
C3228 C 0.212 0.59929 0.41042 0.0
C3229 C 0.22668 0.60515 0.41778 0.0
C3230 C 0.19718 0.60193 0.41816 0.0
C3231 C 0.19684 0.61035 0.43348 0.0
C3232 C 0.21163 0.61567 0.44112 0.0
C3233 C 0.22647 0.61309 0.43331 0.0
C3234 C 0.16272 0.63332 0.45392 0.0
C3235 C 0.14979 0.6215 0.45248 0.0
C3236 C 0.17824 0.6296 0.44813 0.0
C3237 C 0.18099 0.61396 0.44106 0.0
C3238 C 0.16817 0.60196 0.44041 0.0
C3239 C 0.15273 0.60572 0.44596 0.0
H3240 H 0.60595 0.94232 0.72475 0.0
H3241 H 0.61711 0.92202 0.6767 0.0
H3242 H 0.60901 0.9704 0.71349 0.0
H3243 H 0.61962 0.94985 0.66529 0.0
H3244 H 0.6428 0.99968 0.65412 0.0
H3245 H 0.6391 0.97257 0.66718 0.0
H3246 H 0.59828 0.99054 0.69488 0.0
H3247 H 0.60246 0.01776 0.68234 0.0
C3248 C 0.60853 0.94388 0.71168 0.0
C3249 C 0.61133 0.93009 0.70159 0.0
C3250 C 0.6104 0.95993 0.70523 0.0
C3251 C 0.61493 0.96237 0.68857 0.0
C3252 C 0.61665 0.94844 0.6783 0.0
C3253 C 0.61498 0.93249 0.68476 0.0
C3254 C 0.63325 0.99788 0.66322 0.0
C3255 C 0.62288 0.01075 0.66717 0.0
C3256 C 0.63097 0.98231 0.67056 0.0
C3257 C 0.61818 0.97929 0.68186 0.0
C3258 C 0.60826 0.99243 0.68629 0.0
C3259 C 0.61063 0.00801 0.67906 0.0
H3260 H 0.24121 0.40112 0.91111 0.0
H3261 H 0.25907 0.36581 0.87589 0.0
H3262 H 0.26826 0.40263 0.92484 0.0
H3263 H 0.28616 0.36773 0.88921 0.0
H3264 H 0.33537 0.39149 0.91296 0.0
H3265 H 0.30962 0.39314 0.89732 0.0
H3266 H 0.28308 0.37446 0.93973 0.0
H3267 H 0.30894 0.37235 0.95534 0.0
C3268 C 0.25112 0.39424 0.90595 0.0
C3269 C 0.24829 0.38344 0.89247 0.0
C3270 C 0.26643 0.39494 0.91388 0.0
C3271 C 0.27907 0.38516 0.90809 0.0
C3272 C 0.27653 0.37534 0.89384 0.0
C3273 C 0.26115 0.37432 0.88621 0.0
C3274 C 0.32403 0.38759 0.91888 0.0
C3275 C 0.32403 0.38171 0.93529 0.0
C3276 C 0.30939 0.38861 0.90997 0.0
C3277 C 0.29452 0.38418 0.9175 0.0
C3278 C 0.29448 0.37815 0.93384 0.0
C3279 C 0.3092 0.37674 0.94264 0.0
H3280 H 0.36104 0.5221 0.62327 0.0
H3281 H 0.36292 0.50378 0.67346 0.0
H3282 H 0.37021 0.54957 0.63304 0.0
H3283 H 0.37109 0.53141 0.68356 0.0
H3284 H 0.39927 0.57834 0.69692 0.0
H3285 H 0.39316 0.55079 0.68498 0.0
H3286 H 0.36301 0.57294 0.64716 0.0
H3287 H 0.36994 0.60006 0.65828 0.0
C3288 C 0.36284 0.52416 0.63648 0.0
C3289 C 0.36107 0.51099 0.64769 0.0
C3290 C 0.36821 0.53988 0.64213 0.0
C3291 C 0.37161 0.54278 0.65914 0.0
C3292 C 0.36908 0.52962 0.67036 0.0
C3293 C 0.36405 0.51387 0.66465 0.0
C3294 C 0.39175 0.57726 0.68578 0.0
C3295 C 0.38494 0.59134 0.6787 0.0
C3296 C 0.38799 0.56147 0.67908 0.0
C3297 C 0.37728 0.55952 0.66525 0.0
C3298 C 0.37135 0.5738 0.65769 0.0
C3299 C 0.37525 0.58944 0.66422 0.0
H3300 H 0.83224 0.15644 0.0302 0.0
H3301 H 0.85389 0.13935 0.07602 0.0
H3302 H 0.80496 0.15257 0.04216 0.0
H3303 H 0.82683 0.13526 0.08774 0.0
H3304 H 0.77752 0.14307 0.10916 0.0
H3305 H 0.8034 0.1513 0.09657 0.0
H3306 H 0.7878 0.12726 0.05072 0.0
H3307 H 0.76152 0.11926 0.06334 0.0
C3308 C 0.83117 0.15214 0.04288 0.0
C3309 C 0.84509 0.14811 0.05219 0.0
C3310 C 0.81561 0.14977 0.04962 0.0
C3311 C 0.81386 0.14354 0.06579 0.0
C3312 C 0.82786 0.1402 0.07528 0.0
C3313 C 0.84333 0.14246 0.06854 0.0
C3314 C 0.77959 0.13956 0.09638 0.0
C3315 C 0.76769 0.13041 0.08721 0.0
C3316 C 0.79438 0.14428 0.08919 0.0
C3317 C 0.79756 0.13986 0.07272 0.0
C3318 C 0.78552 0.13096 0.0634 0.0
C3319 C 0.77063 0.12624 0.07063 0.0
H3320 H 0.64838 0.10899 0.81398 0.0
H3321 H 0.59712 0.09421 0.80938 0.0
H3322 H 0.65453 0.08201 0.82455 0.0
H3323 H 0.6035 0.06654 0.81998 0.0
H3324 H 0.6223 0.0313 0.86265 0.0
H3325 H 0.61335 0.05566 0.84761 0.0
H3326 H 0.65536 0.05299 0.81572 0.0
H3327 H 0.66448 0.02882 0.83103 0.0
C3328 C 0.63836 0.09993 0.8152 0.0
C3329 C 0.62218 0.1038 0.81109 0.0
C3330 C 0.64198 0.08434 0.82106 0.0
C3331 C 0.62953 0.07216 0.82297 0.0
C3332 C 0.61331 0.07581 0.81863 0.0
C3333 C 0.60967 0.09155 0.81257 0.0
C3334 C 0.62957 0.03593 0.85239 0.0
C3335 C 0.64421 0.02845 0.84811 0.0
C3336 C 0.62433 0.0497 0.84366 0.0
C3337 C 0.63366 0.05618 0.83053 0.0
C3338 C 0.64802 0.04831 0.82592 0.0
C3339 C 0.65328 0.03457 0.83468 0.0
H3340 H 0.83998 0.93985 0.31599 0.0
H3341 H 0.89267 0.94558 0.31321 0.0
H3342 H 0.83885 0.96662 0.32987 0.0
H3343 H 0.89146 0.97252 0.32724 0.0
H3344 H 0.8824 0.00874 0.37071 0.0
H3345 H 0.88326 0.98211 0.35633 0.0
H3346 H 0.84484 0.9971 0.32294 0.0
H3347 H 0.84416 0.02396 0.3372 0.0
C3348 C 0.85134 0.94681 0.31836 0.0
C3349 C 0.86645 0.94056 0.31359 0.0
C3350 C 0.85064 0.9622 0.3262 0.0
C3351 C 0.86504 0.97159 0.32962 0.0
C3352 C 0.88018 0.96542 0.32483 0.0
C3353 C 0.88087 0.95007 0.31675 0.0
C3354 C 0.87409 0.00632 0.36033 0.0
C3355 C 0.8632 0.01837 0.35504 0.0
C3356 C 0.87468 0.99115 0.35206 0.0
C3357 C 0.86425 0.98765 0.33845 0.0
C3358 C 0.853 0.99951 0.33344 0.0
C3359 C 0.85255 0.01481 0.34162 0.0
H3360 H 0.43425 0.31771 0.16356 0.0
H3361 H 0.4203 0.33707 0.11561 0.0
H3362 H 0.41246 0.29623 0.16082 0.0
H3363 H 0.39849 0.31625 0.11323 0.0
H3364 H 0.37242 0.26462 0.10706 0.0
H3365 H 0.39295 0.28743 0.10875 0.0
H3366 H 0.38326 0.29298 0.16111 0.0
H3367 H 0.3633 0.26992 0.1594 0.0
C3368 C 0.42659 0.31743 0.1525 0.0
C3369 C 0.42913 0.32915 0.13987 0.0
C3370 C 0.414 0.30522 0.15095 0.0
C3371 C 0.40363 0.30456 0.1368 0.0
C3372 C 0.40631 0.3162 0.12417 0.0
C3373 C 0.41887 0.32826 0.12565 0.0
C3374 C 0.37433 0.27112 0.11874 0.0
C3375 C 0.36625 0.26566 0.13306 0.0
C3376 C 0.38619 0.28409 0.1198 0.0
C3377 C 0.39003 0.29183 0.13519 0.0
C3378 C 0.381 0.28702 0.1492 0.0
C3379 C 0.36935 0.27401 0.14815 0.0
H3380 H 0.48851 0.64538 0.89661 0.0
H3381 H 0.50848 0.67459 0.85634 0.0
H3382 H 0.46382 0.66139 0.89594 0.0
H3383 H 0.48357 0.69077 0.85564 0.0
H3384 H 0.4285 0.704 0.85028 0.0
H3385 H 0.4533 0.68798 0.84952 0.0
H3386 H 0.45663 0.69005 0.90302 0.0
H3387 H 0.43186 0.70595 0.90386 0.0
C3388 C 0.4876 0.65524 0.88757 0.0
C3389 C 0.50048 0.65883 0.8766 0.0
C3390 C 0.47347 0.66447 0.88725 0.0
C3391 C 0.47179 0.67749 0.87588 0.0
C3392 C 0.48448 0.68079 0.86453 0.0
C3393 C 0.49874 0.67157 0.86493 0.0
C3394 C 0.4345 0.70104 0.8619 0.0
C3395 C 0.42808 0.70623 0.87715 0.0
C3396 C 0.44879 0.69195 0.86143 0.0
C3397 C 0.45692 0.68768 0.8762 0.0
C3398 C 0.45056 0.69295 0.89142 0.0
C3399 C 0.43637 0.70215 0.89189 0.0
H3400 H 0.06144 0.64105 0.63089 0.0
H3401 H 0.02094 0.67399 0.63375 0.0
H3402 H 0.08064 0.66516 0.63266 0.0
H3403 H 0.03991 0.69767 0.63546 0.0
H3404 H 0.07633 0.73828 0.62212 0.0
H3405 H 0.05989 0.71271 0.61728 0.0
H3406 H 0.08898 0.68745 0.65375 0.0
H3407 H 0.10545 0.71296 0.65848 0.0
C3408 C 0.05664 0.65335 0.63194 0.0
C3409 C 0.03965 0.65554 0.6322 0.0
C3410 C 0.06761 0.66713 0.63294 0.0
C3411 C 0.06175 0.68332 0.63397 0.0
C3412 C 0.04481 0.68541 0.63433 0.0
C3413 C 0.03393 0.67174 0.63352 0.0
C3414 C 0.0793 0.7272 0.62894 0.0
C3415 C 0.09196 0.72762 0.64084 0.0
C3416 C 0.06988 0.7126 0.62623 0.0
C3417 C 0.07305 0.69812 0.63527 0.0
C3418 C 0.08628 0.69836 0.64656 0.0
C3419 C 0.09561 0.713 0.64935 0.0
H3420 H 0.11404 0.29543 0.41826 0.0
H3421 H 0.11125 0.29087 0.36486 0.0
H3422 H 0.08824 0.30999 0.41805 0.0
H3423 H 0.08529 0.30475 0.36464 0.0
H3424 H 0.06128 0.35472 0.36862 0.0
H3425 H 0.0826 0.33449 0.36995 0.0
H3426 H 0.05836 0.31038 0.41128 0.0
H3427 H 0.03709 0.33099 0.41013 0.0
C3428 C 0.10756 0.29704 0.40659 0.0
C3429 C 0.11459 0.29248 0.39155 0.0
C3430 C 0.09285 0.3053 0.40646 0.0
C3431 C 0.08509 0.30881 0.39127 0.0
C3432 C 0.09132 0.30258 0.37644 0.0
C3433 C 0.10608 0.29462 0.37657 0.0
C3434 C 0.06054 0.34511 0.37798 0.0
C3435 C 0.04768 0.34431 0.38927 0.0
C3436 C 0.0726 0.33343 0.37864 0.0
C3437 C 0.07191 0.32073 0.39055 0.0
C3438 C 0.0591 0.32005 0.40198 0.0
C3439 C 0.04701 0.33179 0.40132 0.0
H3440 H 0.45514 0.64119 0.32985 0.0
H3441 H 0.44778 0.64262 0.38296 0.0
H3442 H 0.44288 0.66849 0.32738 0.0
H3443 H 0.43575 0.66945 0.38044 0.0
H3444 H 0.42759 0.72224 0.37522 0.0
H3445 H 0.44516 0.69864 0.3722 0.0
H3446 H 0.41327 0.67861 0.33337 0.0
H3447 H 0.39576 0.70244 0.3362 0.0
C3448 C 0.45099 0.64734 0.34093 0.0
C3449 C 0.45225 0.63979 0.35656 0.0
C3450 C 0.44404 0.66287 0.33951 0.0
C3451 C 0.43863 0.67102 0.35375 0.0
C3452 C 0.44012 0.66351 0.36932 0.0
C3453 C 0.44682 0.64805 0.37072 0.0
C3454 C 0.42451 0.71293 0.36586 0.0
C3455 C 0.41023 0.71383 0.35618 0.0
C3456 C 0.43456 0.69953 0.36409 0.0
C3457 C 0.43039 0.68684 0.35268 0.0
C3458 C 0.41674 0.68834 0.34216 0.0
C3459 C 0.40667 0.70182 0.34391 0.0
H3460 H 0.0052 0.68179 0.13306 0.0
H3461 H 0.02417 0.64237 0.10327 0.0
H3462 H 0.03278 0.69437 0.13573 0.0
H3463 H 0.05182 0.65498 0.10599 0.0
H3464 H 0.10083 0.68174 0.12957 0.0
H3465 H 0.07506 0.66492 0.12897 0.0
H3466 H 0.0494 0.70711 0.11067 0.0
H3467 H 0.07471 0.72363 0.11089 0.0
C3468 C 0.01532 0.67565 0.12739 0.0
C3469 C 0.0126 0.66125 0.11782 0.0
C3470 C 0.03105 0.68285 0.12886 0.0
C3471 C 0.04433 0.67568 0.12092 0.0
C3472 C 0.04178 0.66069 0.11225 0.0
C3473 C 0.02599 0.65358 0.11062 0.0
C3474 C 0.08973 0.68726 0.12513 0.0
C3475 C 0.08979 0.70406 0.12047 0.0
C3476 C 0.07502 0.6777 0.12489 0.0
C3477 C 0.06026 0.68492 0.12018 0.0
C3478 C 0.06055 0.7014 0.11476 0.0
C3479 C 0.07512 0.71081 0.11481 0.0
H3480 H 0.09375 0.23735 0.90621 0.0
H3481 H 0.10504 0.246 0.85468 0.0
H3482 H 0.07773 0.26262 0.90646 0.0
H3483 H 0.0897 0.27112 0.85496 0.0
H3484 H 0.04727 0.30486 0.85379 0.0
H3485 H 0.06204 0.27916 0.85542 0.0
H3486 H 0.07946 0.29259 0.90469 0.0
H3487 H 0.06435 0.31795 0.90328 0.0
C3488 C 0.09301 0.24478 0.89507 0.0
C3489 C 0.1005 0.2397 0.88042 0.0
C3490 C 0.08384 0.25921 0.89516 0.0
C3491 C 0.08215 0.26877 0.8806 0.0
C3492 C 0.09026 0.26387 0.86623 0.0
C3493 C 0.09921 0.24952 0.86613 0.0
C3494 C 0.05419 0.30231 0.86498 0.0
C3495 C 0.05465 0.31356 0.87832 0.0
C3496 C 0.06274 0.2876 0.86592 0.0
C3497 C 0.07209 0.28384 0.88016 0.0
C3498 C 0.07228 0.29495 0.89361 0.0
C3499 C 0.06366 0.30959 0.89272 0.0
H3500 H 0.43026 0.32398 0.59045 0.0
H3501 H 0.4057 0.34772 0.6309 0.0
H3502 H 0.45467 0.34159 0.59611 0.0
H3503 H 0.43005 0.36467 0.63689 0.0
H3504 H 0.47299 0.40345 0.63363 0.0
H3505 H 0.44759 0.38699 0.62838 0.0
H3506 H 0.47603 0.34453 0.61607 0.0
H3507 H 0.50107 0.36113 0.62069 0.0
C3508 C 0.43003 0.33293 0.60049 0.0
C3509 C 0.416 0.3343 0.61021 0.0
C3510 C 0.44408 0.34295 0.60388 0.0
C3511 C 0.44446 0.3545 0.61713 0.0
C3512 C 0.43025 0.35611 0.62652 0.0
C3513 C 0.41625 0.34622 0.62309 0.0
C3514 C 0.47368 0.39049 0.6302 0.0
C3515 C 0.4889 0.3835 0.6276 0.0
C3516 C 0.45917 0.38106 0.62706 0.0
C3517 C 0.45971 0.36446 0.62143 0.0
C3518 C 0.47506 0.35736 0.61984 0.0
C3519 C 0.48943 0.3668 0.62276 0.0
H3520 H 0.16798 0.3879 0.26419 0.0
H3521 H 0.12238 0.41255 0.25752 0.0
H3522 H 0.17291 0.40268 0.29034 0.0
H3523 H 0.12732 0.4275 0.28385 0.0
H3524 H 0.15573 0.4664 0.31721 0.0
H3525 H 0.14918 0.44972 0.29261 0.0
H3526 H 0.16107 0.40537 0.31935 0.0
H3527 H 0.16756 0.42203 0.34417 0.0
C3528 C 0.15889 0.39634 0.26849 0.0
C3529 C 0.14476 0.39908 0.25896 0.0
C3530 C 0.16169 0.40473 0.28347 0.0
C3531 C 0.15054 0.41626 0.28907 0.0
C3532 C 0.13616 0.41872 0.27973 0.0
C3533 C 0.13323 0.41008 0.26481 0.0
C3534 C 0.15714 0.45312 0.31786 0.0
C3535 C 0.16227 0.44555 0.33266 0.0
C3536 C 0.15316 0.44356 0.3038 0.0
C3537 C 0.15442 0.42626 0.30416 0.0
C3538 C 0.15997 0.4187 0.31878 0.0
C3539 C 0.16374 0.42824 0.33294 0.0
H3540 H 0.36646 0.38314 0.01335 0.0
H3541 H 0.32285 0.40718 0.99686 0.0
H3542 H 0.35778 0.38567 0.04212 0.0
H3543 H 0.31373 0.4091 0.02547 0.0
H3544 H 0.3102 0.4271 0.07834 0.0
H3545 H 0.32005 0.42435 0.05003 0.0
H3546 H 0.33872 0.3763 0.06209 0.0
H3547 H 0.32955 0.37936 0.09041 0.0
C3548 C 0.35484 0.38862 0.01589 0.0
C3549 C 0.34532 0.39503 0.00297 0.0
C3550 C 0.34984 0.3901 0.03236 0.0
C3551 C 0.33513 0.39781 0.03617 0.0
C3552 C 0.32533 0.40351 0.02307 0.0
C3553 C 0.33043 0.40223 0.00667 0.0
C3554 C 0.31657 0.41605 0.07497 0.0
C3555 C 0.31906 0.40348 0.08663 0.0
C3556 C 0.32208 0.41438 0.0587 0.0
C3557 C 0.33004 0.4 0.05369 0.0
C3558 C 0.33283 0.38762 0.06551 0.0
C3559 C 0.32749 0.38937 0.08178 0.0
H3560 H 0.358 0.60513 0.82993 0.0
H3561 H 0.34413 0.55729 0.80914 0.0
H3562 H 0.36319 0.61598 0.80224 0.0
H3563 H 0.3502 0.56771 0.78135 0.0
H3564 H 0.34904 0.59519 0.73237 0.0
H3565 H 0.34279 0.58443 0.75962 0.0
H3566 H 0.382 0.61551 0.78074 0.0
H3567 H 0.38755 0.62712 0.75323 0.0
C3568 C 0.35587 0.59701 0.81931 0.0
C3569 C 0.35044 0.58047 0.82157 0.0
C3570 C 0.35914 0.60312 0.80345 0.0
C3571 C 0.35742 0.59272 0.78943 0.0
C3572 C 0.3515 0.57622 0.79174 0.0
C3573 C 0.34791 0.57021 0.80764 0.0
C3574 C 0.3564 0.59973 0.74281 0.0
C3575 C 0.36871 0.61214 0.74067 0.0
C3576 C 0.35287 0.59342 0.75851 0.0
C3577 C 0.36176 0.59909 0.77256 0.0
C3578 C 0.37458 0.61109 0.77032 0.0
C3579 C 0.37794 0.61763 0.75453 0.0
H3580 H 0.15666 0.61084 0.58978 0.0
H3581 H 0.19974 0.6112 0.5591 0.0
H3582 H 0.1394 0.61221 0.56498 0.0
H3583 H 0.1824 0.61268 0.53431 0.0
H3584 H 0.14451 0.59387 0.49485 0.0
H3585 H 0.16234 0.59435 0.51934 0.0
H3586 H 0.13264 0.63137 0.54182 0.0
H3587 H 0.11466 0.63079 0.51718 0.0
C3588 C 0.16248 0.61121 0.57776 0.0
C3589 C 0.17963 0.61082 0.57647 0.0
C3590 C 0.15256 0.61215 0.56355 0.0
C3591 C 0.15952 0.61259 0.54768 0.0
C3592 C 0.17665 0.61222 0.54636 0.0
C3593 C 0.18659 0.6114 0.56059 0.0
C3594 C 0.14182 0.60215 0.50501 0.0
C3595 C 0.12817 0.61222 0.5042 0.0
C3596 C 0.1521 0.60251 0.51899 0.0
C3597 C 0.14891 0.61287 0.53254 0.0
C3598 C 0.13532 0.62312 0.53164 0.0
C3599 C 0.12509 0.62286 0.51754 0.0
H3600 H 0.14303 0.55702 0.20271 0.0
H3601 H 0.1424 0.59968 0.17055 0.0
H3602 H 0.13946 0.57522 0.22695 0.0
H3603 H 0.1394 0.61784 0.1947 0.0
H3604 H 0.1567 0.63992 0.2481 0.0
H3605 H 0.15955 0.62248 0.22349 0.0
H3606 H 0.11303 0.59788 0.23367 0.0
H3607 H 0.10986 0.61586 0.25816 0.0
C3608 C 0.14259 0.57031 0.20094 0.0
C3609 C 0.14324 0.57708 0.18493 0.0
C3610 C 0.1403 0.58063 0.21468 0.0
C3611 C 0.13898 0.59782 0.21253 0.0
C3612 C 0.1403 0.60461 0.19658 0.0
C3613 C 0.14217 0.59428 0.18285 0.0
C3614 C 0.14694 0.63098 0.2449 0.0
C3615 C 0.13302 0.62923 0.25487 0.0
C3616 C 0.14862 0.62101 0.23091 0.0
C3617 C 0.13661 0.6088 0.22691 0.0
C3618 C 0.12249 0.60718 0.23668 0.0
C3619 C 0.1206 0.61753 0.25051 0.0
H3620 H 0.17554 0.36686 0.92916 0.0
H3621 H 0.20152 0.41278 0.94232 0.0
H3622 H 0.16518 0.36447 0.95694 0.0
H3623 H 0.1913 0.41008 0.97073 0.0
H3624 H 0.15188 0.41003 0.01135 0.0
H3625 H 0.16603 0.41206 0.98511 0.0
H3626 H 0.17174 0.35895 0.98517 0.0
H3627 H 0.15694 0.35695 0.01145 0.0
C3628 C 0.17926 0.37642 0.93804 0.0
C3629 C 0.18941 0.39009 0.93341 0.0
C3630 C 0.17337 0.37491 0.95413 0.0
C3631 C 0.17748 0.38697 0.96618 0.0
C3632 C 0.18778 0.40061 0.96169 0.0
C3633 C 0.19366 0.40218 0.94543 0.0
C3634 C 0.15621 0.39876 0.0058 0.0
C3635 C 0.15319 0.38328 0.01333 0.0
C3636 C 0.1645 0.39997 0.99081 0.0
C3637 C 0.17007 0.38571 0.98297 0.0
C3638 C 0.16741 0.37019 0.99076 0.0
C3639 C 0.15899 0.36899 0.0058 0.0
H3640 H 0.35249 0.42529 0.66397 0.0
H3641 H 0.33755 0.47219 0.68349 0.0
H3642 H 0.35653 0.41501 0.69205 0.0
H3643 H 0.34252 0.46243 0.71168 0.0
H3644 H 0.33845 0.43446 0.76034 0.0
H3645 H 0.33384 0.44508 0.73272 0.0
H3646 H 0.37446 0.41734 0.71476 0.0
H3647 H 0.37833 0.40579 0.74252 0.0
C3648 C 0.34993 0.43332 0.67437 0.0
C3649 C 0.34453 0.44942 0.67168 0.0
C3650 C 0.35252 0.42756 0.69046 0.0
C3651 C 0.35015 0.43794 0.70423 0.0
C3652 C 0.3443 0.45396 0.70145 0.0
C3653 C 0.34136 0.45958 0.68532 0.0
C3654 C 0.34649 0.43068 0.75052 0.0
C3655 C 0.35865 0.41915 0.75352 0.0
C3656 C 0.3439 0.43689 0.73463 0.0
C3657 C 0.35364 0.432 0.72136 0.0
C3658 C 0.36641 0.42107 0.72457 0.0
C3659 C 0.36882 0.4146 0.7405 0.0
H3660 H 0.37873 0.64071 0.4791 0.0
H3661 H 0.33753 0.6196 0.50577 0.0
H3662 H 0.36283 0.63801 0.45298 0.0
H3663 H 0.32213 0.61632 0.48022 0.0
H3664 H 0.29215 0.62069 0.43524 0.0
H3665 H 0.30835 0.62996 0.45913 0.0
H3666 H 0.3525 0.61599 0.43438 0.0
H3667 H 0.33615 0.60752 0.4099 0.0
C3668 C 0.36624 0.63575 0.47938 0.0
C3669 C 0.35935 0.63026 0.49436 0.0
C3670 C 0.35721 0.63402 0.46447 0.0
C3671 C 0.34118 0.6269 0.46446 0.0
C3672 C 0.33427 0.62212 0.47967 0.0
C3673 C 0.34318 0.62387 0.49437 0.0
C3674 C 0.30531 0.61953 0.4349 0.0
C3675 C 0.31286 0.61301 0.42087 0.0
C3676 C 0.31463 0.62489 0.44859 0.0
C3677 C 0.33174 0.62349 0.44883 0.0
C3678 C 0.33938 0.61738 0.43459 0.0
C3679 C 0.33001 0.61232 0.42066 0.0
H3680 H 0.25911 0.10794 0.37694 0.0
H3681 H 0.24172 0.1154 0.42671 0.0
H3682 H 0.28694 0.1158 0.38618 0.0
H3683 H 0.26948 0.1228 0.4361 0.0
H3684 H 0.3161 0.1536 0.44432 0.0
H3685 H 0.28886 0.14585 0.43333 0.0
H3686 H 0.30979 0.10795 0.40294 0.0
H3687 H 0.33684 0.11599 0.41341 0.0
C3688 C 0.26134 0.11075 0.38996 0.0
C3689 C 0.24832 0.111 0.40116 0.0
C3690 C 0.27726 0.11538 0.39525 0.0
C3691 C 0.28041 0.12026 0.41184 0.0
C3692 C 0.26744 0.11958 0.42316 0.0
C3693 C 0.25159 0.11506 0.41786 0.0
C3694 C 0.3149 0.14384 0.43507 0.0
C3695 C 0.32865 0.13538 0.42987 0.0
C3696 C 0.29927 0.13923 0.42892 0.0
C3697 C 0.29709 0.12607 0.41743 0.0
C3698 C 0.31097 0.11816 0.4117 0.0
C3699 C 0.32652 0.12275 0.41782 0.0
H3700 H 0.85862 0.40579 0.55618 0.0
H3701 H 0.84159 0.3557 0.54458 0.0
H3702 H 0.8316 0.41244 0.56548 0.0
H3703 H 0.81427 0.36226 0.55457 0.0
H3704 H 0.76412 0.384 0.56337 0.0
H3705 H 0.79007 0.37897 0.54973 0.0
H3706 H 0.81599 0.40518 0.58952 0.0
H3707 H 0.79012 0.41054 0.60279 0.0
C3708 C 0.84907 0.39612 0.55575 0.0
C3709 C 0.85223 0.38009 0.55002 0.0
C3710 C 0.83358 0.39996 0.56109 0.0
C3711 C 0.8209 0.38781 0.56106 0.0
C3712 C 0.82383 0.3719 0.55468 0.0
C3713 C 0.83942 0.36809 0.54908 0.0
C3714 C 0.77539 0.3889 0.56899 0.0
C3715 C 0.77522 0.39768 0.58407 0.0
C3716 C 0.79021 0.38588 0.56129 0.0
C3717 C 0.80505 0.39161 0.56858 0.0
C3718 C 0.80475 0.40079 0.58346 0.0
C3719 C 0.78996 0.40385 0.5911 0.0
H3720 H 0.396 0.06628 0.28596 0.0
H3721 H 0.38037 0.08657 0.33264 0.0
H3722 H 0.39184 0.03833 0.29681 0.0
H3723 H 0.3768 0.05865 0.34375 0.0
H3724 H 0.35711 0.00647 0.3543 0.0
H3725 H 0.35973 0.03415 0.34202 0.0
H3726 H 0.40264 0.0193 0.31562 0.0
H3727 H 0.39954 0.99169 0.32728 0.0
C3728 C 0.39196 0.06478 0.29864 0.0
C3729 C 0.38855 0.07864 0.30844 0.0
C3730 C 0.38956 0.04873 0.30489 0.0
C3731 C 0.38389 0.04616 0.32117 0.0
C3732 C 0.38083 0.06009 0.33106 0.0
C3733 C 0.38306 0.07613 0.32475 0.0
C3734 C 0.36692 0.00913 0.34568 0.0
C3735 C 0.37813 0.99697 0.34176 0.0
C3736 C 0.36856 0.02502 0.33877 0.0
C3737 C 0.38149 0.02905 0.32789 0.0
C3738 C 0.39241 0.01666 0.32374 0.0
C3739 C 0.39069 1.00081 0.33052 0.0
H3740 H 0.67894 0.58823 0.06831 0.0
H3741 H 0.68838 0.63915 0.05354 0.0
H3742 H 0.7063 0.58759 0.08073 0.0
H3743 H 0.71544 0.63858 0.06622 0.0
H3744 H 0.768 0.62915 0.07432 0.0
H3745 H 0.74117 0.62608 0.06116 0.0
H3746 H 0.72313 0.59915 0.10391 0.0
H3747 H 0.75044 0.60189 0.11696 0.0
C3748 C 0.68681 0.5993 0.06772 0.0
C3749 C 0.68148 0.61372 0.0598 0.0
C3750 C 0.70246 0.59893 0.07493 0.0
C3751 C 0.71311 0.61296 0.07435 0.0
C3752 C 0.70768 0.62742 0.06659 0.0
C3753 C 0.69209 0.62778 0.05938 0.0
C3754 C 0.75835 0.62238 0.08082 0.0
C3755 C 0.76117 0.61593 0.09671 0.0
C3756 C 0.74295 0.62073 0.07334 0.0
C3757 C 0.7299 0.61274 0.08165 0.0
C3758 C 0.73294 0.6054 0.0972 0.0
C3759 C 0.74852 0.60696 0.10468 0.0
H3760 H 0.62035 0.48443 0.38876 0.0
H3761 H 0.64765 0.50028 0.34571 0.0
H3762 H 0.61206 0.45868 0.37467 0.0
H3763 H 0.63939 0.47422 0.33148 0.0
H3764 H 0.6068 0.43298 0.30614 0.0
H3765 H 0.613 0.4597 0.32013 0.0
H3766 H 0.62556 0.43359 0.365 0.0
H3767 H 0.6194 0.40723 0.35111 0.0
C3768 C 0.62471 0.48228 0.3763 0.0
C3769 C 0.63464 0.49426 0.36829 0.0
C3770 C 0.61994 0.46756 0.36823 0.0
C3771 C 0.62493 0.46452 0.35192 0.0
C3772 C 0.63515 0.47639 0.34396 0.0
C3773 C 0.64007 0.49114 0.35215 0.0
C3774 C 0.61039 0.43309 0.31913 0.0
C3775 C 0.61246 0.41817 0.32766 0.0
C3776 C 0.61421 0.44829 0.32703 0.0
C3777 C 0.61991 0.44869 0.3436 0.0
C3778 C 0.62112 0.43371 0.35228 0.0
C3779 C 0.61753 0.41862 0.34436 0.0
H3780 H 0.22732 0.86518 0.90533 0.0
H3781 H 0.24477 0.89952 0.9434 0.0
H3782 H 0.20351 0.85783 0.92204 0.0
H3783 H 0.2208 0.89213 0.96022 0.0
H3784 H 0.16342 0.89208 0.96655 0.0
H3785 H 0.19077 0.89694 0.95567 0.0
H3786 H 0.1957 0.84411 0.9495 0.0
H3787 H 0.16805 0.83922 0.96054 0.0
C3788 C 0.22603 0.87115 0.91729 0.0
C3789 C 0.23771 0.88302 0.92307 0.0
C3790 C 0.21255 0.86676 0.92694 0.0
C3791 C 0.21047 0.87427 0.94247 0.0
C3792 C 0.2222 0.88615 0.94828 0.0
C3793 C 0.2358 0.89044 0.93866 0.0
C3794 C 0.17045 0.88148 0.96311 0.0
C3795 C 0.16364 0.8653 0.96408 0.0
C3796 C 0.18615 0.88426 0.95705 0.0
C3797 C 0.19524 0.87091 0.95166 0.0
C3798 C 0.1888 0.8546 0.95349 0.0
C3799 C 0.1731 0.8518 0.95984 0.0
H3800 H 0.33901 0.9613 0.16106 0.0
H3801 H 0.37856 0.99041 0.18398 0.0
H3802 H 0.35043 0.93608 0.17226 0.0
H3803 H 0.39013 0.96507 0.19506 0.0
H3804 H 0.39252 0.91271 0.22317 0.0
H3805 H 0.38417 0.9404 0.21455 0.0
H3806 H 0.37634 0.9222 0.16446 0.0
H3807 H 0.38439 0.89475 0.17309 0.0
C3808 C 0.34999 0.9623 0.16872 0.0
C3809 C 0.35802 0.97768 0.17156 0.0
C3810 C 0.35661 0.9479 0.17499 0.0
C3811 C 0.37135 0.94868 0.18417 0.0
C3812 C 0.37881 0.96418 0.18794 0.0
C3813 C 0.37218 0.97862 0.18163 0.0
C3814 C 0.38956 0.9149 0.21023 0.0
C3815 C 0.38891 0.90175 0.19877 0.0
C3816 C 0.38467 0.93062 0.20534 0.0
C3817 C 0.37916 0.93319 0.18898 0.0
C3818 C 0.38008 0.92037 0.17726 0.0
C3819 C 0.38484 0.90475 0.18213 0.0
H3820 H 0.10802 0.05614 0.6959 0.0
H3821 H 0.15326 0.07126 0.67207 0.0
H3822 H 0.11126 0.02786 0.68603 0.0
H3823 H 0.15674 0.04295 0.66271 0.0
H3824 H 0.14949 0.99122 0.63768 0.0
H3825 H 0.14659 0.02049 0.64491 0.0
H3826 H 0.12935 0.00608 0.69353 0.0
H3827 H 0.13179 0.97702 0.68608 0.0
C3828 C 0.11855 0.05348 0.68842 0.0
C3829 C 0.13043 0.06591 0.6849 0.0
C3830 C 0.12051 0.03725 0.68291 0.0
C3831 C 0.13445 0.03311 0.67388 0.0
C3832 C 0.14587 0.04573 0.66961 0.0
C3833 C 0.14386 0.06197 0.67503 0.0
C3834 C 0.14538 0.99441 0.64999 0.0
C3835 C 0.14075 0.98198 0.66133 0.0
C3836 C 0.14364 0.01112 0.65412 0.0
C3837 C 0.13737 0.01557 0.66966 0.0
C3838 C 0.13372 0.00306 0.68127 0.0
C3839 C 0.13532 0.98644 0.67711 0.0
H3840 H 0.00306 0.16809 0.30629 0.0
H3841 H 0.01898 0.11986 0.29155 0.0
H3842 H 0.98148 0.16643 0.28483 0.0
H3843 H 0.99743 0.11811 0.27028 0.0
H3844 H 0.94431 0.1125 0.249 0.0
H3845 H 0.96708 0.1149 0.26905 0.0
H3846 H 0.97651 0.16565 0.25414 0.0
H3847 H 0.95385 0.16317 0.23403 0.0
C3848 C 0.00214 0.15726 0.29831 0.0
C3849 C 0.01287 0.14417 0.30061 0.0
C3850 C 0.98973 0.15627 0.286 0.0
C3851 C 0.98755 0.14205 0.27582 0.0
C3852 C 0.99853 0.12914 0.27797 0.0
C3853 C 0.01103 0.13023 0.29009 0.0
C3854 C 0.95131 0.12413 0.24992 0.0
C3855 C 0.94726 0.13761 0.23983 0.0
C3856 C 0.96443 0.12551 0.2614 0.0
C3857 C 0.97373 0.1405 0.2633 0.0
C3858 C 0.9696 0.15397 0.25319 0.0
C3859 C 0.95665 0.15251 0.24155 0.0
H3860 H 0.08755 0.69619 0.49499 0.0
H3861 H 0.13344 0.68036 0.51556 0.0
H3862 H 0.08711 0.71856 0.51554 0.0
H3863 H 0.13301 0.70269 0.5361 0.0
H3864 H 0.13346 0.75146 0.56352 0.0
H3865 H 0.13415 0.73371 0.53893 0.0
H3866 H 0.08358 0.71856 0.54657 0.0
H3867 H 0.08289 0.73639 0.57118 0.0
C3868 C 0.09765 0.69766 0.50376 0.0
C3869 C 0.11051 0.68658 0.50378 0.0
C3870 C 0.09735 0.71039 0.51554 0.0
C3871 C 0.10999 0.71232 0.52742 0.0
C3872 C 0.12319 0.7016 0.52698 0.0
C3873 C 0.12341 0.68879 0.51529 0.0
C3874 C 0.12242 0.74454 0.55977 0.0
C3875 C 0.10814 0.74517 0.56924 0.0
C3876 C 0.12285 0.73434 0.54577 0.0
C3877 C 0.10897 0.72468 0.54094 0.0
C3878 C 0.09442 0.72598 0.54995 0.0
C3879 C 0.09403 0.73612 0.56403 0.0
H3880 H 0.53605 0.88976 0.85265 0.0
H3881 H 0.49524 0.87432 0.82119 0.0
H3882 H 0.55395 0.89036 0.8288 0.0
H3883 H 0.51334 0.87399 0.79721 0.0
H3884 H 0.54739 0.8899 0.75412 0.0
H3885 H 0.52847 0.88924 0.7776 0.0
H3886 H 0.56807 0.87529 0.81017 0.0
H3887 H 0.58678 0.87692 0.78711 0.0
C3888 C 0.53095 0.88616 0.84064 0.0
C3889 C 0.5142 0.88192 0.8389 0.0
C3890 C 0.54128 0.88641 0.82684 0.0
C3891 C 0.5353 0.88213 0.81081 0.0
C3892 C 0.51851 0.87763 0.80916 0.0
C3893 C 0.50811 0.87762 0.82298 0.0
C3894 C 0.55197 0.88678 0.76635 0.0
C3895 C 0.56863 0.88363 0.76874 0.0
C3896 C 0.5411 0.88626 0.77986 0.0
C3897 C 0.5466 0.88236 0.79607 0.0
C3898 C 0.56326 0.87884 0.79817 0.0
C3899 C 0.57406 0.87963 0.78481 0.0
H3900 H 0.34172 0.28558 0.07302 0.0
H3901 H 0.35773 0.24605 0.04153 0.0
H3902 H 0.34346 0.30478 0.04985 0.0
H3903 H 0.35935 0.26538 0.01803 0.0
H3904 H 0.37846 0.31201 0.98755 0.0
H3905 H 0.37542 0.29018 0.00848 0.0
H3906 H 0.32973 0.31049 0.02373 0.0
H3907 H 0.33295 0.33237 0.00306 0.0
C3908 C 0.34556 0.28097 0.06108 0.0
C3909 C 0.34956 0.2643 0.05908 0.0
C3910 C 0.34644 0.29197 0.04773 0.0
C3911 C 0.35139 0.28663 0.03199 0.0
C3912 C 0.35554 0.26993 0.02999 0.0
C3913 C 0.35457 0.25884 0.04341 0.0
C3914 C 0.36765 0.31162 0.99522 0.0
C3915 C 0.35599 0.32394 0.99374 0.0
C3916 C 0.36588 0.29909 0.00719 0.0
C3917 C 0.35243 0.29868 0.01796 0.0
C3918 C 0.34041 0.31061 0.01589 0.0
C3919 C 0.34218 0.32308 0.00395 0.0
H3920 H 0.99601 0.93022 0.20854 0.0
H3921 H 0.98459 0.87851 0.19841 0.0
H3922 H 0.97591 0.92989 0.23076 0.0
H3923 H 0.96435 0.87815 0.22061 0.0
H3924 H 0.93827 0.87962 0.27036 0.0
H3925 H 0.96102 0.88034 0.25089 0.0
H3926 H 0.94599 0.92793 0.23297 0.0
H3927 H 0.92331 0.92721 0.25253 0.0
C3928 C 0.98929 0.91873 0.21117 0.0
C3929 C 0.99188 0.90438 0.20173 0.0
C3930 C 0.97769 0.91857 0.22384 0.0
C3931 C 0.96842 0.90403 0.22746 0.0
C3932 C 0.97136 0.88953 0.21829 0.0
C3933 C 0.98293 0.88973 0.20553 0.0
C3934 C 0.93999 0.89036 0.26244 0.0
C3935 C 0.92902 0.90339 0.263 0.0
C3936 C 0.95294 0.8907 0.25117 0.0
C3937 C 0.95531 0.90414 0.24026 0.0
C3938 C 0.94465 0.91745 0.24127 0.0
C3939 C 0.93163 0.91705 0.25247 0.0
H3940 H 0.35384 0.76104 0.43313 0.0
H3941 H 0.38936 0.73505 0.40469 0.0
H3942 H 0.35771 0.74233 0.45633 0.0
H3943 H 0.39348 0.71619 0.42834 0.0
H3944 H 0.4079 0.70089 0.48362 0.0
H3945 H 0.40459 0.71838 0.45899 0.0
H3946 H 0.3521 0.712 0.46254 0.0
H3947 H 0.35542 0.69443 0.48695 0.0
C3948 C 0.36249 0.75126 0.43181 0.0
C3949 C 0.37129 0.74952 0.41704 0.0
C3950 C 0.36466 0.74049 0.44513 0.0
C3951 C 0.37587 0.72775 0.44422 0.0
C3952 C 0.38479 0.72596 0.42945 0.0
C3953 C 0.3824 0.73666 0.4159 0.0
C3954 C 0.39566 0.70333 0.47918 0.0
C3955 C 0.3819 0.69644 0.48734 0.0
C3956 C 0.39378 0.71318 0.46497 0.0
C3957 C 0.37808 0.71656 0.45877 0.0
C3958 C 0.36435 0.70973 0.46704 0.0
C3959 C 0.36624 0.6997 0.48106 0.0
H3960 H 0.54859 0.16867 0.76929 0.0
H3961 H 0.55868 0.11918 0.75265 0.0
H3962 H 0.52666 0.17023 0.74862 0.0
H3963 H 0.53655 0.1207 0.7319 0.0
H3964 H 0.4866 0.12529 0.70514 0.0
H3965 H 0.50587 0.12306 0.72846 0.0
H3966 H 0.52596 0.17201 0.71761 0.0
H3967 H 0.50677 0.17416 0.69423 0.0
C3968 C 0.54595 0.15799 0.76137 0.0
C3969 C 0.55538 0.14379 0.76261 0.0
C3970 C 0.53345 0.15895 0.74943 0.0
C3971 C 0.52992 0.14566 0.73849 0.0
C3972 C 0.53888 0.13113 0.7402 0.0
C3973 C 0.55156 0.13024 0.75208 0.0
C3974 C 0.49498 0.13567 0.70789 0.0
C3975 C 0.49512 0.14995 0.6979 0.0
C3976 C 0.50612 0.13432 0.72116 0.0
C3977 C 0.51751 0.14731 0.72489 0.0
C3978 C 0.51726 0.16182 0.71519 0.0
C3979 C 0.50627 0.16307 0.70178 0.0
H3980 H 0.15721 0.30635 0.00365 0.0
H3981 H 0.10999 0.29485 0.02486 0.0
H3982 H 0.15297 0.28338 0.98386 0.0
H3983 H 0.1057 0.27192 0.00515 0.0
H3984 H 0.0967 0.24383 0.95476 0.0
H3985 H 0.10058 0.26604 0.97555 0.0
H3986 H 0.15107 0.25319 0.98195 0.0
H3987 H 0.14716 0.23116 0.96131 0.0
C3988 C 0.14598 0.29884 0.00419 0.0
C3989 C 0.13401 0.30244 0.01595 0.0
C3990 C 0.14353 0.2856 0.99285 0.0
C3991 C 0.12893 0.27566 0.99278 0.0
C3992 C 0.117 0.27931 0.00461 0.0
C3993 C 0.11954 0.29242 0.01604 0.0
C3994 C 0.10855 0.24562 0.96078 0.0
C3995 C 0.12157 0.23559 0.95637 0.0
C3996 C 0.11081 0.25838 0.97273 0.0
C3997 C 0.12621 0.26161 0.98047 0.0
C3998 C 0.13911 0.25136 0.97617 0.0
C3999 C 0.13681 0.23856 0.96439 0.0
H4000 H 0.31839 0.98885 0.12944 0.0
H4001 H 0.28104 0.02495 0.12485 0.0
H4002 H 0.29729 0.9666 0.13135 0.0
H4003 H 0.25982 0.00272 0.12713 0.0
H4004 H 0.22921 0.95908 0.15239 0.0
H4005 H 0.25028 0.98125 0.14997 0.0
H4006 H 0.2738 0.95345 0.11175 0.0
H4007 H 0.25231 0.93145 0.11383 0.0
C4008 C 0.30569 0.9921 0.12919 0.0
C4009 C 0.30144 0.00876 0.12737 0.0
C4010 C 0.29355 0.97929 0.13005 0.0
C4011 C 0.2768 0.98282 0.12944 0.0
C4012 C 0.27258 0.99953 0.12777 0.0
C4013 C 0.28473 0.01228 0.12647 0.0
C4014 C 0.23881 0.9577 0.14339 0.0
C4015 C 0.23897 0.94345 0.13324 0.0
C4016 C 0.25089 0.97046 0.14198 0.0
C4017 C 0.26379 0.9692 0.13067 0.0
C4018 C 0.2641 0.95484 0.12064 0.0
C4019 C 0.25173 0.94224 0.12176 0.0
H4020 H 0.29096 0.9715 0.37694 0.0
H4021 H 0.30894 1.00208 0.33676 0.0
H4022 H 0.26769 0.98933 0.3801 0.0
H4023 H 0.28545 0.01995 0.33983 0.0
H4024 H 0.23347 0.04044 0.34197 0.0
H4025 H 0.25453 0.02018 0.33727 0.0
H4026 H 0.26434 0.01858 0.39001 0.0
H4027 H 0.24336 0.039 0.39467 0.0
C4028 C 0.2898 0.9819 0.36858 0.0
C4029 C 0.3018 0.98536 0.35657 0.0
C4030 C 0.27651 0.9922 0.3705 0.0
C4031 C 0.27474 0.00616 0.36033 0.0
C4032 C 0.28639 0.00924 0.34782 0.0
C4033 C 0.29984 0.99901 0.34603 0.0
C4034 C 0.23996 0.03558 0.35259 0.0
C4035 C 0.23669 0.04127 0.36872 0.0
C4036 C 0.25213 0.02408 0.34987 0.0
C4037 C 0.2612 0.01779 0.36323 0.0
C4038 C 0.25752 0.02306 0.37943 0.0
C4039 C 0.24549 0.03476 0.38213 0.0
H4040 H 0.19389 0.99799 0.64987 0.0
H4041 H 0.22379 0.96428 0.62309 0.0
H4042 H 0.2135 0.02048 0.64478 0.0
H4043 H 0.24439 0.98666 0.6189 0.0
H4044 H 0.27206 0.03459 0.60119 0.0
H4045 H 0.25318 0.01069 0.60567 0.0
H4046 H 0.23737 0.03326 0.65132 0.0
H4047 H 0.25504 0.05725 0.64601 0.0
C4048 C 0.20494 0.99529 0.64322 0.0
C4049 C 0.2073 0.97925 0.63706 0.0
C4050 C 0.2164 0.00827 0.64035 0.0
C4051 C 0.23096 0.00566 0.63157 0.0
C4052 C 0.23339 0.98945 0.62554 0.0
C4053 C 0.22164 0.97648 0.62811 0.0
C4054 C 0.26447 0.03433 0.61212 0.0
C4055 C 0.26491 0.04792 0.62312 0.0
C4056 C 0.25365 0.02056 0.61481 0.0
C4057 C 0.24327 0.01987 0.62878 0.0
C4058 C 0.24446 0.03329 0.64006 0.0
C4059 C 0.25484 0.04712 0.63713 0.0
H4060 H 0.26634 0.92941 0.90393 0.0
H4061 H 0.27733 0.94165 0.85308 0.0
H4062 H 0.24537 0.95057 0.90407 0.0
H4063 H 0.25692 0.96277 0.85325 0.0
H4064 H 0.22053 1.00173 0.90271 0.0
H4065 H 0.24108 0.98032 0.90356 0.0
H4066 H 0.22834 0.9665 0.85306 0.0
H4067 H 0.20817 0.98806 0.8522 0.0
C4068 C 0.26431 0.9366 0.89281 0.0
C4069 C 0.27354 0.93379 0.8785 0.0
C4070 C 0.25235 0.94883 0.89289 0.0
C4071 C 0.24929 0.95848 0.87863 0.0
C4072 C 0.25859 0.95552 0.86439 0.0
C4073 C 0.27045 0.9434 0.86433 0.0
C4074 C 0.22225 0.9942 0.89175 0.0
C4075 C 0.21281 0.99676 0.87732 0.0
C4076 C 0.23394 0.98177 0.89229 0.0
C4077 C 0.23653 0.97156 0.87838 0.0
C4078 C 0.227 0.9742 0.86396 0.0
C4079 C 0.21535 0.98659 0.86345 0.0
H4080 H 0.63113 0.19361 0.00839 0.0
H4081 H 0.58055 0.20079 0.99517 0.0
H4082 H 0.63034 0.21656 0.02814 0.0
H4083 H 0.57974 0.22388 0.01489 0.0
H4084 H 0.58132 0.2426 0.07068 0.0
H4085 H 0.5806 0.22529 0.04571 0.0
H4086 H 0.62737 0.24682 0.0311 0.0
H4087 H 0.62814 0.26399 0.05614 0.0
C4088 C 0.61994 0.20031 0.00951 0.0
C4089 C 0.60589 0.19542 1.00034 0.0
C4090 C 0.6195 0.21352 0.02074 0.0
C4091 C 0.60495 0.22202 0.02309 0.0
C4092 C 0.59107 0.21748 0.01344 0.0
C4093 C 0.59155 0.20433 1.00212 0.0
C4094 C 0.59122 0.24392 0.0619 0.0
C4095 C 0.60485 0.25449 0.06538 0.0
C4096 C 0.59081 0.23404 0.04759 0.0
C4097 C 0.60404 0.23455 0.03656 0.0
C4098 C 0.61713 0.24598 0.03951 0.0
C4099 C 0.61751 0.25588 0.05378 0.0
H4100 H 0.05672 0.36573 0.26072 0.0
H4101 H 0.08147 0.4116 0.27564 0.0
H4102 H 0.03909 0.36716 0.2851 0.0
H4103 H 0.06433 0.41286 0.3001 0.0
H4104 H 0.0204 0.42054 0.33235 0.0
H4105 H 0.0373 0.41804 0.30799 0.0
H4106 H 0.03837 0.36502 0.31523 0.0
H4107 H 0.02083 0.36758 0.33965 0.0
C4108 C 0.05834 0.37615 0.26918 0.0
C4109 C 0.07036 0.38865 0.26614 0.0
C4110 C 0.04836 0.37689 0.28326 0.0
C4111 C 0.05017 0.39016 0.29465 0.0
C4112 C 0.06228 0.4026 0.29153 0.0
C4113 C 0.07218 0.40188 0.27748 0.0
C4114 C 0.02421 0.40831 0.32879 0.0
C4115 C 0.01922 0.39425 0.33796 0.0
C4116 C 0.03405 0.40688 0.31481 0.0
C4117 C 0.03938 0.39134 0.30956 0.0
C4118 C 0.0344 0.37719 0.31875 0.0
C4119 C 0.02444 0.37864 0.33282 0.0
H4120 H 0.87817 0.8145 0.48911 0.0
H4121 H 0.83317 0.83451 0.50652 0.0
H4122 H 0.87479 0.7912 0.5083 0.0
H4123 H 0.82981 0.81132 0.52578 0.0
H4124 H 0.8215 0.76023 0.54886 0.0
H4125 H 0.82443 0.78122 0.52716 0.0
H4126 H 0.8761 0.7868 0.53857 0.0
H4127 H 0.87314 0.7657 0.5602 0.0
C4128 C 0.86746 0.81381 0.49692 0.0
C4129 C 0.85591 0.8263 0.4963 0.0
C4130 C 0.86559 0.80054 0.50801 0.0
C4131 C 0.85206 0.79939 0.51866 0.0
C4132 C 0.84029 0.81169 0.51766 0.0
C4133 C 0.84222 0.82501 0.50666 0.0
C4134 C 0.83351 0.76584 0.54661 0.0
C4135 C 0.8471 0.76133 0.55621 0.0
C4136 C 0.83517 0.77794 0.53425 0.0
C4137 C 0.85048 0.78578 0.53114 0.0
C4138 C 0.86416 0.78092 0.5405 0.0
C4139 C 0.86247 0.76887 0.55293 0.0
H4140 H 0.05302 0.62538 0.24833 0.0
H4141 H 0.05665 0.67855 0.25478 0.0
H4142 H 0.03127 0.62865 0.22737 0.0
H4143 H 0.03535 0.68179 0.23356 0.0
H4144 H 0.01792 0.67472 0.17656 0.0
H4145 H 0.03631 0.67318 0.20067 0.0
H4146 H 1.00038 0.64236 0.22597 0.0
H4147 H 0.98165 0.64437 0.20198 0.0
C4148 C 0.04909 0.63771 0.24535 0.0
C4149 C 0.0565 0.6517 0.25316 0.0
C4150 C 0.03663 0.63958 0.23345 0.0
C4151 C 0.03166 0.65547 0.22891 0.0
C4152 C 0.03896 0.66942 0.23686 0.0
C4153 C 0.05112 0.66754 0.249 0.0
C4154 C 0.0138 0.66795 0.18743 0.0
C4155 C 0.99834 0.65978 0.1875 0.0
C4156 C 0.02432 0.66704 0.20118 0.0
C4157 C 0.01976 0.65758 0.2151 0.0
C4158 C 0.00416 0.64968 0.21534 0.0
C4159 C 0.99343 0.65096 0.20172 0.0
H4160 H 0.48622 0.37729 0.69806 0.0
H4161 H 0.50076 0.428 0.70972 0.0
H4162 H 0.4663 0.37744 0.72057 0.0
H4163 H 0.48088 0.4282 0.73213 0.0
H4164 H 0.42764 0.42718 0.75348 0.0
H4165 H 0.45026 0.42741 0.73377 0.0
H4166 H 0.46434 0.37947 0.75157 0.0
H4167 H 0.44182 0.37929 0.77126 0.0
C4168 C 0.48532 0.38837 0.70558 0.0
C4169 C 0.49505 0.40261 0.70215 0.0
C4170 C 0.47394 0.38847 0.71849 0.0
C4171 C 0.47194 0.40288 0.7281 0.0
C4172 C 0.48198 0.41698 0.72485 0.0
C4173 C 0.49345 0.41681 0.71209 0.0
C4174 C 0.43576 0.41685 0.75338 0.0
C4175 C 0.43298 0.40324 0.76392 0.0
C4176 C 0.44872 0.41697 0.7421 0.0
C4177 C 0.45903 0.40338 0.74101 0.0
C4178 C 0.4565 0.39001 0.75194 0.0
C4179 C 0.44368 0.38999 0.76332 0.0
H4180 H 0.97868 0.85892 0.72148 0.0
H4181 H 0.01677 0.85638 0.68503 0.0
H4182 H 0.99966 0.86149 0.74362 0.0
H4183 H 0.0374 0.85975 0.70655 0.0
H4184 H 0.07295 0.85113 0.74726 0.0
H4185 H 0.05058 0.84673 0.72768 0.0
H4186 H 0.02064 0.87876 0.75675 0.0
H4187 H 0.04319 0.88239 0.77713 0.0
C4188 C 0.99149 0.85877 0.71821 0.0
C4189 C 0.996 0.85722 0.70147 0.0
C4190 C 0.00356 0.86046 0.73087 0.0
C4191 C 0.02042 0.86073 0.72708 0.0
C4192 C 0.02471 0.85916 0.71026 0.0
C4193 C 0.01277 0.85731 0.69777 0.0
C4194 C 0.06163 0.8573 0.74954 0.0
C4195 C 0.05999 0.86729 0.7637 0.0
C4196 C 0.04871 0.85485 0.73816 0.0
C4197 C 0.03368 0.86261 0.74025 0.0
C4198 C 0.03191 0.87247 0.75464 0.0
C4199 C 0.04489 0.8747 0.76628 0.0
H4200 H 0.87464 0.24435 0.44682 0.0
H4201 H 0.92267 0.26387 0.43383 0.0
H4202 H 0.87435 0.26312 0.47065 0.0
H4203 H 0.9224 0.28264 0.45776 0.0
H4204 H 0.91961 0.30811 0.5084 0.0
H4205 H 0.92105 0.28461 0.48924 0.0
H4206 H 0.87252 0.29442 0.47081 0.0
H4207 H 0.87113 0.31796 0.4899 0.0
C4208 C 0.88531 0.25237 0.44931 0.0
C4209 C 0.89864 0.25278 0.43845 0.0
C4210 C 0.88508 0.26317 0.46287 0.0
C4211 C 0.89825 0.27447 0.4659 0.0
C4212 C 0.91211 0.27401 0.45574 0.0
C4213 C 0.91228 0.26328 0.44206 0.0
C4214 C 0.90918 0.3051 0.50038 0.0
C4215 C 0.89526 0.31482 0.50055 0.0
C4216 C 0.91005 0.29171 0.4894 0.0
C4217 C 0.89691 0.28769 0.47858 0.0
C4218 C 0.88276 0.29711 0.47917 0.0
C4219 C 0.88198 0.31062 0.49001 0.0
H4220 H 0.45046 0.1021 0.24968 0.0
H4221 H 0.42342 0.14003 0.2251 0.0
H4222 H 0.46855 0.10062 0.22586 0.0
H4223 H 0.44197 0.13942 0.20169 0.0
H4224 H 0.46842 0.12312 0.15467 0.0
H4225 H 0.45005 0.12542 0.17827 0.0
H4226 H 0.48968 0.11305 0.21157 0.0
H4227 H 0.50748 0.1099 0.18791 0.0
C4228 C 0.44855 0.11028 0.23925 0.0
C4229 C 0.43554 0.12116 0.23926 0.0
C4230 C 0.459 0.10957 0.22557 0.0
C4231 C 0.45692 0.11996 0.21165 0.0
C4232 C 0.44392 0.13097 0.21188 0.0
C4233 C 0.43332 0.13145 0.22542 0.0
C4234 C 0.47318 0.12116 0.16708 0.0
C4235 C 0.48938 0.11643 0.16947 0.0
C4236 C 0.46266 0.12245 0.18069 0.0
C4237 C 0.4682 0.11928 0.19705 0.0
C4238 C 0.48467 0.11514 0.19929 0.0
C4239 C 0.495 0.11353 0.1857 0.0
H4240 H 0.65381 0.69173 0.02507 0.0
H4241 H 0.63617 0.66099 0.9842 0.0
H4242 H 0.65765 0.71525 0.00584 0.0
H4243 H 0.63954 0.68414 0.96539 0.0
H4244 H 0.66443 0.72047 0.932 0.0
H4245 H 0.66208 0.69926 0.95318 0.0
H4246 H 0.64252 0.73482 0.98721 0.0
H4247 H 0.64537 0.75646 0.96581 0.0
C4248 C 0.65074 0.69002 0.01204 0.0
C4249 C 0.64485 0.67449 0.0061 0.0
C4250 C 0.65282 0.70347 1.00107 0.0
C4251 C 0.6491 0.70154 0.98401 0.0
C4252 C 0.64291 0.68603 0.97832 0.0
C4253 C 0.64089 0.67273 0.98917 0.0
C4254 C 0.65966 0.72384 0.944 0.0
C4255 C 0.6549 0.74008 0.94719 0.0
C4256 C 0.65825 0.71164 0.95615 0.0
C4257 C 0.65187 0.71524 0.97185 0.0
C4258 C 0.64753 0.73165 0.97527 0.0
C4259 C 0.64904 0.74399 0.96302 0.0
H4260 H 0.01514 0.12379 0.80301 0.0
H4261 H 0.00471 0.07174 0.79362 0.0
H4262 H 0.03522 0.12431 0.78075 0.0
H4263 H 0.02472 0.07224 0.77125 0.0
H4264 H 0.07754 0.0769 0.74944 0.0
H4265 H 0.05481 0.07527 0.76892 0.0
H4266 H 0.03757 0.12179 0.75035 0.0
H4267 H 0.06036 0.12345 0.731 0.0
C4268 C 0.01704 0.11251 0.79606 0.0
C4269 C 0.0084 0.09773 0.80003 0.0
C4270 C 0.02847 0.11281 0.78325 0.0
C4271 C 0.03157 0.09831 0.77421 0.0
C4272 C 0.02272 0.08358 0.77807 0.0
C4273 C 0.01122 0.08331 0.79081 0.0
C4274 C 0.06872 0.08661 0.74934 0.0
C4275 C 0.07072 0.10031 0.73875 0.0
C4276 C 0.05569 0.08568 0.76047 0.0
C4277 C 0.04445 0.09848 0.76128 0.0
C4278 C 0.04614 0.11186 0.75021 0.0
C4279 C 0.05912 0.11274 0.73904 0.0
H4280 H 0.60724 0.2569 0.59527 0.0
H4281 H 0.65673 0.2513 0.57862 0.0
H4282 H 0.6022 0.27568 0.57191 0.0
H4283 H 0.6517 0.26951 0.55531 0.0
H4284 H 0.59583 0.29526 0.5175 0.0
H4285 H 0.59934 0.27664 0.54127 0.0
H4286 H 0.64783 0.29822 0.54994 0.0
H4287 H 0.64443 0.31635 0.52619 0.0
C4288 C 0.61701 0.25968 0.58663 0.0
C4289 C 0.6324 0.25269 0.58882 0.0
C4290 C 0.6141 0.27032 0.57318 0.0
C4291 C 0.62656 0.27422 0.56171 0.0
C4292 C 0.64188 0.26708 0.56399 0.0
C4293 C 0.64475 0.25652 0.57734 0.0
C4294 C 0.60724 0.2959 0.52447 0.0
C4295 C 0.61992 0.30713 0.51986 0.0
C4296 C 0.60921 0.28535 0.53818 0.0
C4297 C 0.62392 0.28581 0.54751 0.0
C4298 C 0.63646 0.29723 0.54291 0.0
C4299 C 0.63449 0.3077 0.52929 0.0
H4300 H 0.45816 0.87562 0.23917 0.0
H4301 H 0.43648 0.83263 0.26326 0.0
H4302 H 0.4815 0.8751 0.25855 0.0
H4303 H 0.45895 0.83256 0.28301 0.0
H4304 H 0.50456 0.82773 0.31205 0.0
H4305 H 0.48596 0.8271 0.28814 0.0
H4306 H 0.48915 0.88073 0.28603 0.0
H4307 H 0.50854 0.88111 0.30918 0.0
C4308 C 0.45839 0.86611 0.24862 0.0
C4309 C 0.44555 0.85417 0.2497 0.0
C4310 C 0.4717 0.86582 0.2598 0.0
C4311 C 0.47227 0.85373 0.27242 0.0
C4312 C 0.45933 0.8418 0.2733 0.0
C4313 C 0.44626 0.84195 0.26203 0.0
C4314 C 0.5015 0.83932 0.30621 0.0
C4315 C 0.5079 0.85445 0.31249 0.0
C4316 C 0.49069 0.83902 0.2926 0.0
C4317 C 0.48569 0.8539 0.28523 0.0
C4318 C 0.49274 0.86899 0.29116 0.0
C4319 C 0.50382 0.86924 0.30453 0.0
H4320 H 0.84655 0.76946 0.04358 0.0
H4321 H 0.89861 0.76243 0.04467 0.0
H4322 H 0.84318 0.74856 0.02167 0.0
H4323 H 0.89527 0.74145 0.02262 0.0
H4324 H 0.88487 0.71604 0.97205 0.0
H4325 H 0.88775 0.73816 0.99282 0.0
H4326 H 0.84507 0.71824 0.01794 0.0
H4327 H 0.84224 0.69604 0.99712 0.0
C4328 C 0.85732 0.76352 0.03905 0.0
C4329 C 0.87287 0.76768 0.04586 0.0
C4330 C 0.85536 0.75143 0.02654 0.0
C4331 C 0.86892 0.74321 0.02033 0.0
C4332 C 0.88455 0.7476 0.02696 0.0
C4333 C 0.88648 0.7596 0.03963 0.0
C4334 C 0.87597 0.71649 0.98189 0.0
C4335 C 0.86325 0.7043 0.98285 0.0
C4336 C 0.87773 0.7291 0.99391 0.0
C4337 C 0.86672 0.73002 0.00718 0.0
C4338 C 0.85372 0.71806 0.00786 0.0
C4339 C 0.85207 0.70531 0.99591 0.0
H4340 H 0.78096 0.0446 0.89348 0.0
H4341 H 0.74328 0.07726 0.87744 0.0
H4342 H 0.76048 0.0216 0.89501 0.0
H4343 H 0.72297 0.0544 0.87875 0.0
H4344 H 0.71464 0.99043 0.91321 0.0
H4345 H 0.73566 0.01269 0.91142 0.0
H4346 H 0.71545 0.02755 0.86427 0.0
H4347 H 0.69454 0.00503 0.86597 0.0
C4348 C 0.76833 0.04689 0.89031 0.0
C4349 C 0.76383 0.06283 0.88535 0.0
C4350 C 0.75655 0.03372 0.89121 0.0
C4351 C 0.74 0.03604 0.8869 0.0
C4352 C 0.73557 0.05201 0.88195 0.0
C4353 C 0.74726 0.06519 0.88131 0.0
C4354 C 0.71471 0.99838 0.9024 0.0
C4355 C 0.70284 0.9959 0.88973 0.0
C4356 C 0.72685 0.01113 0.90134 0.0
C4357 C 0.72734 0.02201 0.88771 0.0
C4358 C 0.71542 0.01954 0.87503 0.0
C4359 C 0.70343 0.00658 0.87596 0.0
H4360 H 0.7146 0.03611 0.6433 0.0
H4361 H 0.68372 0.99601 0.66181 0.0
H4362 H 0.73723 0.01727 0.64074 0.0
H4363 H 0.70565 0.97696 0.65823 0.0
H4364 H 0.74919 0.94596 0.66067 0.0
H4365 H 0.72975 0.96703 0.66676 0.0
H4366 H 0.74788 0.99607 0.62532 0.0
H4367 H 0.76838 0.97524 0.62018 0.0
C4368 C 0.71273 0.02328 0.64698 0.0
C4369 C 0.69745 0.01758 0.65294 0.0
C4370 C 0.72564 0.01237 0.64528 0.0
C4371 C 0.72348 0.99539 0.64918 0.0
C4372 C 0.70816 0.9899 0.65544 0.0
C4373 C 0.69544 1.00086 0.65746 0.0
C4374 C 0.7491 0.95693 0.65293 0.0
C4375 C 0.76021 0.95891 0.63986 0.0
C4376 C 0.73778 0.96902 0.65631 0.0
C4377 C 0.73679 0.9833 0.64638 0.0
C4378 C 0.74823 0.98542 0.63343 0.0
C4379 C 0.75995 0.97343 0.63034 0.0
H4380 H 0.73188 0.96771 0.40748 0.0
H4381 H 0.74432 0.94682 0.36014 0.0
H4382 H 0.75041 0.99174 0.40211 0.0
H4383 H 0.76168 0.97088 0.3542 0.0
H4384 H 0.806 0.00516 0.35392 0.0
H4385 H 0.78657 0.98268 0.35991 0.0
H4386 H 0.75747 0.01635 0.38809 0.0
H4387 H 0.77781 0.03874 0.38282 0.0
C4388 C 0.73838 0.96838 0.39585 0.0
C4389 C 0.7368 0.95526 0.38435 0.0
C4390 C 0.74898 0.9822 0.39267 0.0
C4391 C 0.75797 0.98334 0.37777 0.0
C4392 C 0.75563 0.97042 0.36608 0.0
C4393 C 0.74546 0.95657 0.36942 0.0
C4394 C 0.79536 0.00783 0.36125 0.0
C4395 C 0.79339 0.02381 0.36772 0.0
C4396 C 0.78405 0.99488 0.36467 0.0
C4397 C 0.77009 0.99749 0.37439 0.0
C4398 C 0.76804 0.01363 0.38072 0.0
C4399 C 0.77961 0.02658 0.37753 0.0
H4400 H 0.75171 0.08818 0.11676 0.0
H4401 H 0.71335 0.05137 0.12567 0.0
H4402 H 0.77198 0.06626 0.117 0.0
H4403 H 0.73334 0.02951 0.12538 0.0
H4404 H 0.77398 0.99381 0.10815 0.0
H4405 H 0.75392 0.01566 0.1057 0.0
H4406 H 0.78236 0.04608 0.14032 0.0
H4407 H 0.80216 0.02407 0.14311 0.0
C4408 C 0.74756 0.07538 0.11825 0.0
C4409 C 0.7309 0.07146 0.12092 0.0
C4410 C 0.75916 0.06283 0.1186 0.0
C4411 C 0.7543 0.04608 0.12125 0.0
C4412 C 0.73753 0.0422 0.12319 0.0
C4413 C 0.72606 0.05473 0.12329 0.0
C4414 C 0.77583 0.00507 0.11541 0.0
C4415 C 0.78958 0.00708 0.12598 0.0
C4416 C 0.76438 0.01763 0.11395 0.0
C4417 C 0.76659 0.03272 0.12269 0.0
C4418 C 0.78036 0.03472 0.13326 0.0
C4419 C 0.79161 0.02201 0.13501 0.0
H4420 H 0.41923 0.80749 0.01377 0.0
H4421 H 0.36994 0.81745 0.99782 0.0
H4422 H 0.41966 0.78401 0.99448 0.0
H4423 H 0.37035 0.79403 0.97854 0.0
H4424 H 0.37104 0.74477 0.95319 0.0
H4425 H 0.37178 0.76318 0.97733 0.0
H4426 H 0.41985 0.78185 0.9634 0.0
H4427 H 0.41913 0.76335 0.93928 0.0
C4428 C 0.40842 0.80451 0.00629 0.0
C4429 C 0.39455 0.81425 0.00721 0.0
C4430 C 0.4087 0.79113 0.99522 0.0
C4431 C 0.39505 0.78719 0.98502 0.0
C4432 C 0.38098 0.79663 0.9864 0.0
C4433 C 0.38076 0.81008 0.99736 0.0
C4434 C 0.38192 0.75253 0.95552 0.0
C4435 C 0.39498 0.75276 0.94435 0.0
C4436 C 0.38229 0.76314 0.96926 0.0
C4437 C 0.39577 0.7741 0.97211 0.0
C4438 C 0.40933 0.77348 0.96156 0.0
C4439 C 0.40892 0.76291 0.94775 0.0
H4440 H 0.98712 0.58352 0.67252 0.0
H4441 H 0.98462 0.63611 0.66367 0.0
H4442 H 0.97055 0.58613 0.69713 0.0
H4443 H 0.96739 0.63876 0.68824 0.0
H4444 H 0.94982 0.63985 0.7423 0.0
H4445 H 0.96746 0.63765 0.71813 0.0
H4446 H 0.94349 0.59058 0.7055 0.0
H4447 H 0.92629 0.59264 0.7299 0.0
C4448 C 0.98295 0.59568 0.67582 0.0
C4449 C 0.98723 0.60963 0.66617 0.0
C4450 C 0.97329 0.59716 0.6899 0.0
C4451 C 0.96749 0.61264 0.69474 0.0
C4452 C 0.97178 0.62666 0.68505 0.0
C4453 C 0.98157 0.62516 0.67091 0.0
C4454 C 0.9485 0.62895 0.73445 0.0
C4455 C 0.93679 0.61634 0.73808 0.0
C4456 C 0.95848 0.62777 0.72047 0.0
C4457 C 0.95694 0.61396 0.70974 0.0
C4458 C 0.94527 0.60129 0.71355 0.0
C4459 C 0.93536 0.60245 0.72756 0.0
H4460 H 0.17023 0.22001 0.43151 0.0
H4461 H 0.14637 0.2547 0.46327 0.0
H4462 H 0.16803 0.19895 0.45284 0.0
H4463 H 0.14357 0.23317 0.48474 0.0
H4464 H 0.15344 0.19195 0.52417 0.0
H4465 H 0.15785 0.21517 0.50478 0.0
H4466 H 0.14634 0.18208 0.46363 0.0
H4467 H 0.14249 0.15919 0.48272 0.0
C4468 C 0.16443 0.22311 0.44309 0.0
C4469 C 0.15829 0.23894 0.44566 0.0
C4470 C 0.16309 0.21098 0.45533 0.0
C4471 C 0.15535 0.21422 0.47044 0.0
C4472 C 0.14964 0.23027 0.47327 0.0
C4473 C 0.15114 0.24256 0.46097 0.0
C4474 C 0.15202 0.18972 0.51096 0.0
C4475 C 0.14778 0.17375 0.50494 0.0
C4476 C 0.1544 0.20301 0.49987 0.0
C4477 C 0.15261 0.20049 0.4826 0.0
C4478 C 0.14821 0.18447 0.47677 0.0
C4479 C 0.14591 0.17131 0.48776 0.0
H4480 H 0.94386 0.38184 0.75747 0.0
H4481 H 0.95182 0.3315 0.742 0.0
H4482 H 0.96638 0.38021 0.77763 0.0
H4483 H 0.97434 0.32985 0.76207 0.0
H4484 H 0.9965 0.32825 0.81606 0.0
H4485 H 0.97695 0.32917 0.79288 0.0
H4486 H 0.99662 0.37763 0.77942 0.0
H4487 H 0.0161 0.37671 0.80261 0.0
C4488 C 0.95054 0.37051 0.75827 0.0
C4489 C 0.94611 0.35681 0.74821 0.0
C4490 C 0.96348 0.36958 0.76974 0.0
C4491 C 0.97214 0.35488 0.77145 0.0
C4492 C 0.96782 0.34128 0.76116 0.0
C4493 C 0.95499 0.34226 0.74961 0.0
C4494 C 0.99686 0.33892 0.80792 0.0
C4495 C 0.0078 0.3524 0.81112 0.0
C4496 C 0.98567 0.33947 0.79465 0.0
C4497 C 0.98514 0.35356 0.78441 0.0
C4498 C 0.99657 0.36672 0.78723 0.0
C4499 C 0.00782 0.36612 0.80041 0.0
H4500 H 0.50962 0.62234 0.30362 0.0
H4501 H 0.50118 0.56965 0.29651 0.0
H4502 H 0.52997 0.62262 0.28166 0.0
H4503 H 0.52143 0.5699 0.27438 0.0
H4504 H 0.57487 0.57498 0.25431 0.0
H4505 H 0.55139 0.57357 0.2729 0.0
H4506 H 0.53394 0.61897 0.25186 0.0
H4507 H 0.55748 0.62044 0.23348 0.0
C4508 C 0.51191 0.61088 0.29713 0.0
C4509 C 0.50384 0.59599 0.30177 0.0
C4510 C 0.52354 0.61102 0.28452 0.0
C4511 C 0.5274 0.59625 0.2763 0.0
C4512 C 0.5189 0.58145 0.2806 0.0
C4513 C 0.50721 0.58133 0.29317 0.0
C4514 C 0.56587 0.5845 0.25352 0.0
C4515 C 0.56801 0.59784 0.24251 0.0
C4516 C 0.55239 0.58369 0.26412 0.0
C4517 C 0.54083 0.59623 0.26395 0.0
C4518 C 0.54273 0.60924 0.25248 0.0
C4519 C 0.55616 0.61003 0.24188 0.0
H4520 H 0.44038 0.66318 0.74461 0.0
H4521 H 0.44968 0.61142 0.73749 0.0
H4522 H 0.46144 0.66525 0.76594 0.0
H4523 H 0.47198 0.61359 0.7579 0.0
H4524 H 0.50165 0.61696 0.80576 0.0
H4525 H 0.48088 0.61484 0.78411 0.0
H4526 H 0.48713 0.6676 0.77517 0.0
H4527 H 0.50694 0.66968 0.79804 0.0
C4528 C 0.44723 0.65225 0.74741 0.0
C4529 C 0.44332 0.63713 0.73932 0.0
C4530 C 0.45956 0.65345 0.75966 0.0
C4531 C 0.46884 0.63965 0.76399 0.0
C4532 C 0.46508 0.62454 0.75549 0.0
C4533 C 0.45234 0.62324 0.74355 0.0
C4534 C 0.49857 0.62811 0.79913 0.0
C4535 C 0.50598 0.6435 0.80364 0.0
C4536 C 0.48665 0.6269 0.78647 0.0
C4537 C 0.48198 0.64099 0.77746 0.0
C4538 C 0.4898 0.65639 0.78184 0.0
C4539 C 0.5014 0.65765 0.79491 0.0
H4540 H 0.9058 0.20893 0.98503 0.0
H4541 H 0.85655 0.1888 0.9784 0.0
H4542 H 0.90195 0.22713 0.96103 0.0
H4543 H 0.85277 0.20657 0.95439 0.0
H4544 H 0.84434 0.25311 0.92465 0.0
H4545 H 0.84943 0.23517 0.94816 0.0
H4546 H 0.89833 0.22745 0.93058 0.0
H4547 H 0.89321 0.24591 0.90697 0.0
C4548 C 0.89416 0.20843 0.97847 0.0
C4549 C 0.88142 0.19757 0.98371 0.0
C4550 C 0.89199 0.21874 0.96462 0.0
C4551 C 0.87701 0.21843 0.95575 0.0
C4552 C 0.86437 0.20742 0.96103 0.0
C4553 C 0.86654 0.19717 0.97481 0.0
C4554 C 0.85619 0.24759 0.92575 0.0
C4555 C 0.86837 0.25094 0.91394 0.0
C4556 C 0.85909 0.23719 0.93922 0.0
C4557 C 0.87427 0.22972 0.94131 0.0
C4558 C 0.88654 0.23309 0.92948 0.0
C4559 C 0.8836 0.24357 0.91589 0.0
H4560 H 0.6249 0.78252 0.53455 0.0
H4561 H 0.6479 0.81429 0.49812 0.0
H4562 H 0.62178 0.76028 0.51393 0.0
H4563 H 0.64369 0.79292 0.47716 0.0
H4564 H 0.64587 0.74987 0.44289 0.0
H4565 H 0.65068 0.76956 0.46521 0.0
H4566 H 0.60935 0.74784 0.49152 0.0
H4567 H 0.60561 0.72701 0.46939 0.0
C4568 C 0.62929 0.78474 0.52208 0.0
C4569 C 0.63689 0.80012 0.51807 0.0
C4570 C 0.62732 0.77201 0.51009 0.0
C4571 C 0.63252 0.77439 0.49355 0.0
C4572 C 0.63994 0.79 0.48968 0.0
C4573 C 0.6423 0.80249 0.50175 0.0
C4574 C 0.63787 0.7492 0.45353 0.0
C4575 C 0.62533 0.73687 0.4543 0.0
C4576 C 0.64048 0.76076 0.46639 0.0
C4577 C 0.63022 0.76093 0.48036 0.0
C4578 C 0.61772 0.7483 0.48123 0.0
C4579 C 0.61545 0.7363 0.46846 0.0
H4580 H 0.7902 0.50962 0.59637 0.0
H4581 H 0.80733 0.50162 0.64642 0.0
H4582 H 0.77017 0.48671 0.59913 0.0
H4583 H 0.7876 0.47824 0.64913 0.0
H4584 H 0.73852 0.44923 0.65489 0.0
H4585 H 0.75944 0.47128 0.65208 0.0
H4586 H 0.76559 0.45761 0.60066 0.0
H4587 H 0.74414 0.43583 0.60347 0.0
C4588 C 0.78976 0.50288 0.60797 0.0
C4589 C 0.80039 0.50754 0.62118 0.0
C4590 C 0.77831 0.48957 0.60952 0.0
C4591 C 0.7771 0.4804 0.62436 0.0
C4592 C 0.78788 0.48503 0.63756 0.0
C4593 C 0.79933 0.49841 0.636 0.0
C4594 C 0.74434 0.45091 0.64297 0.0
C4595 C 0.73959 0.44071 0.62941 0.0
C4596 C 0.75651 0.46354 0.64137 0.0
C4597 C 0.76441 0.46642 0.62613 0.0
C4598 C 0.75973 0.45606 0.61257 0.0
C4599 C 0.74749 0.44342 0.61418 0.0
H4600 H 0.73382 0.54418 0.83981 0.0
H4601 H 0.74507 0.54283 0.89226 0.0
H4602 H 0.75396 0.52314 0.83469 0.0
H4603 H 0.76524 0.52168 0.88715 0.0
H4604 H 0.78954 0.47343 0.87388 0.0
H4605 H 0.76716 0.49229 0.8776 0.0
H4606 H 0.78452 0.52143 0.83609 0.0
H4607 H 0.80704 0.50251 0.83241 0.0
C4608 C 0.74048 0.53925 0.85028 0.0
C4609 C 0.73783 0.54512 0.86646 0.0
C4610 C 0.75211 0.52728 0.84731 0.0
C4611 C 0.76126 0.52074 0.86048 0.0
C4612 C 0.7583 0.52634 0.87674 0.0
C4613 C 0.74677 0.53847 0.87969 0.0
C4614 C 0.78844 0.48371 0.86536 0.0
C4615 C 0.80004 0.48647 0.85282 0.0
C4616 C 0.77569 0.4946 0.86761 0.0
C4617 C 0.77412 0.50847 0.85727 0.0
C4618 C 0.78532 0.51082 0.84423 0.0
C4619 C 0.7982 0.49997 0.84208 0.0
H4620 H 0.74773 0.56041 0.10612 0.0
H4621 H 0.78574 0.53164 0.12803 0.0
H4622 H 0.72779 0.53819 0.11141 0.0
H4623 H 0.76592 0.5086 0.13246 0.0
H4624 H 0.72265 0.47543 0.15211 0.0
H4625 H 0.74405 0.497 0.14719 0.0
H4626 H 0.71705 0.5132 0.10404 0.0
H4627 H 0.6956 0.49273 0.10972 0.0
C4628 C 0.75192 0.54909 0.1117 0.0
C4629 C 0.7684 0.54779 0.11646 0.0
C4630 C 0.74042 0.53615 0.11471 0.0
C4631 C 0.74501 0.52119 0.12227 0.0
C4632 C 0.76166 0.51984 0.12682 0.0
C4633 C 0.77315 0.533 0.12408 0.0
C4634 C 0.72139 0.48368 0.14163 0.0
C4635 C 0.7073 0.48247 0.13146 0.0
C4636 C 0.73371 0.49606 0.13869 0.0
C4637 C 0.7324 0.50732 0.1253 0.0
C4638 C 0.7185 0.50543 0.11485 0.0
C4639 C 0.70614 0.49345 0.11801 0.0
H4640 H 0.72618 0.50956 0.39489 0.0
H4641 H 0.69623 0.47698 0.36361 0.0
H4642 H 0.7466 0.48823 0.39729 0.0
H4643 H 0.7167 0.45555 0.366 0.0
H4644 H 0.7516 0.41553 0.38679 0.0
H4645 H 0.72988 0.43601 0.38638 0.0
H4646 H 0.76637 0.47526 0.37916 0.0
H4647 H 0.78771 0.45504 0.37948 0.0
C4648 C 0.724 0.49786 0.38844 0.0
C4649 C 0.70965 0.49507 0.37892 0.0
C4650 C 0.73571 0.4856 0.38983 0.0
C4651 C 0.73335 0.47009 0.38186 0.0
C4652 C 0.71888 0.46723 0.37246 0.0
C4653 C 0.70723 0.4796 0.37093 0.0
C4654 C 0.75492 0.42855 0.38533 0.0
C4655 C 0.7714 0.43365 0.38322 0.0
C4656 C 0.74249 0.44029 0.38494 0.0
C4657 C 0.74633 0.45736 0.38275 0.0
C4658 C 0.76288 0.46233 0.38108 0.0
C4659 C 0.77516 0.45067 0.38121 0.0
H4660 H 0.51731 0.36002 0.18808 0.0
H4661 H 0.47655 0.36202 0.22152 0.0
H4662 H 0.53635 0.36417 0.21128 0.0
H4663 H 0.49585 0.36606 0.24505 0.0
H4664 H 0.54026 0.35613 0.28279 0.0
H4665 H 0.51885 0.35189 0.26136 0.0
H4666 H 0.54387 0.38786 0.23024 0.0
H4667 H 0.56507 0.39213 0.25159 0.0
C4668 C 0.51238 0.36115 0.20045 0.0
C4669 C 0.49535 0.36071 0.2029 0.0
C4670 C 0.52335 0.36369 0.21377 0.0
C4671 C 0.51769 0.36572 0.23005 0.0
C4672 C 0.50065 0.36456 0.23268 0.0
C4673 C 0.48958 0.3622 0.21921 0.0
C4674 C 0.54101 0.36333 0.27148 0.0
C4675 C 0.55439 0.37447 0.26891 0.0
C4676 C 0.52874 0.3609 0.25919 0.0
C4677 C 0.5297 0.36937 0.24395 0.0
C4678 C 0.54283 0.38092 0.24169 0.0
C4679 C 0.55494 0.38348 0.25401 0.0
H4680 H 0.14853 0.81791 0.02587 0.0
H4681 H 0.10268 0.79229 0.01385 0.0
H4682 H 0.1519 0.80017 0.05001 0.0
H4683 H 0.10617 0.77415 0.03788 0.0
H4684 H 0.10962 0.75686 0.09261 0.0
H4685 H 0.10582 0.77419 0.06799 0.0
H4686 H 0.15761 0.77267 0.05816 0.0
H4687 H 0.16136 0.75587 0.08286 0.0
C4688 C 0.13928 0.80828 0.02825 0.0
C4689 C 0.1254 0.80643 0.01788 0.0
C4690 C 0.14122 0.79805 0.04211 0.0
C4691 C 0.12932 0.78564 0.046 0.0
C4692 C 0.1155 0.78368 0.03545 0.0
C4693 C 0.11356 0.79395 0.02156 0.0
C4694 C 0.12016 0.76032 0.08519 0.0
C4695 C 0.13579 0.75503 0.08971 0.0
C4696 C 0.11799 0.77013 0.07099 0.0
C4697 C 0.13141 0.77491 0.061 0.0
C4698 C 0.14701 0.76951 0.06561 0.0
C4699 C 0.14916 0.75976 0.07976 0.0
H4700 H 0.35282 0.27214 0.54199 0.0
H4701 H 0.40268 0.2583 0.55059 0.0
H4702 H 0.34947 0.25056 0.52071 0.0
H4703 H 0.3994 0.23672 0.5291 0.0
H4704 H 0.39223 0.21113 0.4781 0.0
H4705 H 0.39516 0.23359 0.49841 0.0
H4706 H 0.34807 0.21943 0.51865 0.0
H4707 H 0.34521 0.19671 0.49829 0.0
C4708 C 0.36315 0.26459 0.53921 0.0
C4709 C 0.37807 0.26704 0.54795 0.0
C4710 C 0.36117 0.2521 0.52709 0.0
C4711 C 0.37412 0.24181 0.52316 0.0
C4712 C 0.38918 0.24448 0.53168 0.0
C4713 C 0.39109 0.25685 0.54401 0.0
C4714 C 0.38239 0.21288 0.48677 0.0
C4715 C 0.36843 0.20213 0.48649 0.0
C4716 C 0.38416 0.2257 0.49854 0.0
C4717 C 0.37193 0.22833 0.5103 0.0
C4718 C 0.35772 0.21786 0.50974 0.0
C4719 C 0.35604 0.20484 0.49806 0.0
H4720 H 0.19416 0.50308 0.3572 0.0
H4721 H 0.2113 0.49433 0.40712 0.0
H4722 H 0.21422 0.5262 0.35466 0.0
H4723 H 0.23158 0.51707 0.40454 0.0
H4724 H 0.25802 0.56793 0.40035 0.0
H4725 H 0.23635 0.54634 0.4031 0.0
H4726 H 0.24263 0.53245 0.35178 0.0
H4727 H 0.26382 0.55425 0.34902 0.0
C4728 C 0.20225 0.50606 0.36762 0.0
C4729 C 0.20113 0.49677 0.38233 0.0
C4730 C 0.21386 0.5193 0.36616 0.0
C4731 C 0.22472 0.52366 0.37938 0.0
C4732 C 0.2234 0.51439 0.39414 0.0
C4733 C 0.21181 0.50118 0.39558 0.0
C4734 C 0.25467 0.56032 0.38965 0.0
C4735 C 0.26268 0.56288 0.37446 0.0
C4736 C 0.2423 0.5478 0.39123 0.0
C4737 C 0.23758 0.53746 0.37767 0.0
C4738 C 0.2456 0.5402 0.36247 0.0
C4739 C 0.25792 0.55267 0.36091 0.0
H4740 H 0.19665 0.50712 0.16876 0.0
H4741 H 0.20899 0.53004 0.122 0.0
H4742 H 0.21947 0.48843 0.16569 0.0
H4743 H 0.23169 0.51147 0.11891 0.0
H4744 H 0.25488 0.46052 0.10938 0.0
H4745 H 0.23437 0.4815 0.11341 0.0
H4746 H 0.24992 0.48736 0.16457 0.0
H4747 H 0.27043 0.46638 0.1605 0.0
C4748 C 0.2044 0.50835 0.15798 0.0
C4749 C 0.20103 0.52006 0.14564 0.0
C4750 C 0.21748 0.49766 0.15621 0.0
C4751 C 0.22736 0.49834 0.14197 0.0
C4752 C 0.22422 0.51042 0.1299 0.0
C4753 C 0.21127 0.52116 0.13175 0.0
C4754 C 0.25405 0.46646 0.12142 0.0
C4755 C 0.26431 0.46185 0.13459 0.0
C4756 C 0.24232 0.4785 0.12374 0.0
C4757 C 0.24044 0.48612 0.13935 0.0
C4758 C 0.25091 0.48165 0.15245 0.0
C4759 C 0.26275 0.46973 0.15007 0.0
H4760 H 0.24761 0.45316 0.90639 0.0
H4761 H 0.22505 0.46223 0.85877 0.0
H4762 H 0.2664 0.47718 0.90231 0.0
H4763 H 0.24386 0.48607 0.8546 0.0
H4764 H 0.29401 0.51455 0.84557 0.0
H4765 H 0.27368 0.49183 0.84964 0.0
H4766 H 0.26687 0.50811 0.90011 0.0
H4767 H 0.287 0.53083 0.89597 0.0
C4768 C 0.24656 0.46036 0.89513 0.0
C4769 C 0.23475 0.45578 0.88297 0.0
C4770 C 0.25732 0.47416 0.89277 0.0
C4771 C 0.25675 0.48362 0.87807 0.0
C4772 C 0.24483 0.47905 0.86599 0.0
C4773 C 0.23393 0.46542 0.86845 0.0
C4774 C 0.28798 0.51342 0.85744 0.0
C4775 C 0.29209 0.52461 0.87039 0.0
C4776 C 0.27632 0.50037 0.8598 0.0
C4777 C 0.26863 0.498 0.87526 0.0
C4778 C 0.27263 0.50937 0.88811 0.0
C4779 C 0.28409 0.52252 0.88567 0.0
H4780 H 0.22739 0.56295 0.65189 0.0
H4781 H 0.23783 0.57556 0.601 0.0
H4782 H 0.24755 0.54172 0.65132 0.0
H4783 H 0.25864 0.55415 0.60046 0.0
H4784 H 0.28193 0.50192 0.60152 0.0
H4785 H 0.26208 0.524 0.6009 0.0
H4786 H 0.27611 0.53773 0.65109 0.0
H4787 H 0.29562 0.51552 0.65173 0.0
C4788 C 0.2341 0.56126 0.64053 0.0
C4789 C 0.23089 0.57099 0.62646 0.0
C4790 C 0.24584 0.54907 0.64025 0.0
C4791 C 0.25491 0.54611 0.62589 0.0
C4792 C 0.25181 0.55592 0.61173 0.0
C4793 C 0.23997 0.56828 0.61203 0.0
C4794 C 0.28063 0.50956 0.61247 0.0
C4795 C 0.29023 0.50679 0.62676 0.0
C4796 C 0.26937 0.52238 0.61205 0.0
C4797 C 0.26736 0.53276 0.62593 0.0
C4798 C 0.27704 0.52991 0.64021 0.0
C4799 C 0.28827 0.51713 0.64061 0.0
H4800 H 0.07511 0.10471 0.42546 0.0
H4801 H 0.03857 0.13849 0.44133 0.0
H4802 H 0.08286 0.10002 0.45449 0.0
H4803 H 0.04597 0.13357 0.47026 0.0
H4804 H 0.09015 0.08862 0.50834 0.0
H4805 H 0.07514 0.0889 0.48183 0.0
H4806 H 0.06928 0.14167 0.48729 0.0
H4807 H 0.08407 0.14125 0.51363 0.0
C4808 C 0.06858 0.11093 0.43517 0.0
C4809 C 0.05637 0.1221 0.43114 0.0
C4810 C 0.0729 0.10814 0.45182 0.0
C4811 C 0.06507 0.11646 0.46477 0.0
C4812 C 0.05241 0.12712 0.46065 0.0
C4813 C 0.04815 0.12993 0.44405 0.0
C4814 C 0.08492 0.10008 0.50423 0.0
C4815 C 0.0881 0.11489 0.51312 0.0
C4816 C 0.07662 0.10032 0.48888 0.0
C4817 C 0.07119 0.11535 0.48227 0.0
C4818 C 0.07313 0.12984 0.49198 0.0
C4819 C 0.08155 0.12961 0.50716 0.0
H4820 H 0.14654 0.82738 0.77803 0.0
H4821 H 0.09669 0.80938 0.78387 0.0
H4822 H 0.14826 0.81219 0.75209 0.0
H4823 H 0.09874 0.79275 0.75873 0.0
H4824 H 0.0958 0.79243 0.7027 0.0
H4825 H 0.09697 0.80056 0.73162 0.0
H4826 H 0.14865 0.7905 0.73337 0.0
H4827 H 0.14748 0.7834 0.70376 0.0
C4828 C 0.13627 0.81933 0.77425 0.0
C4829 C 0.12144 0.81959 0.78285 0.0
C4830 C 0.1372 0.81062 0.75925 0.0
C4831 C 0.12342 0.80166 0.75284 0.0
C4832 C 0.10937 0.80011 0.76281 0.0
C4833 C 0.10827 0.80929 0.77746 0.0
C4834 C 0.10742 0.79201 0.70927 0.0
C4835 C 0.12156 0.78741 0.70103 0.0
C4836 C 0.10808 0.79641 0.72601 0.0
C4837 C 0.12286 0.79593 0.73515 0.0
C4838 C 0.13706 0.79117 0.72682 0.0
C4839 C 0.13644 0.7871 0.70986 0.0
H4840 H 0.43645 0.85574 0.99608 0.0
H4841 H 0.44633 0.90675 0.01081 0.0
H4842 H 0.45104 0.86066 0.97034 0.0
H4843 H 0.46137 0.91149 0.98492 0.0
H4844 H 0.45942 0.88067 0.91788 0.0
H4845 H 0.44497 0.87894 0.94438 0.0
H4846 H 0.48745 0.90051 0.96966 0.0
H4847 H 0.50197 0.90201 0.94324 0.0
C4848 C 0.44194 0.86797 0.99401 0.0
C4849 C 0.44009 0.88086 0.00562 0.0
C4850 C 0.45018 0.8708 0.97911 0.0
C4851 C 0.45706 0.88653 0.97544 0.0
C4852 C 0.4561 0.89924 0.98738 0.0
C4853 C 0.44759 0.89648 1.00228 0.0
C4854 C 0.46554 0.88534 0.92903 0.0
C4855 C 0.48184 0.89143 0.92849 0.0
C4856 C 0.45734 0.88423 0.94422 0.0
C4857 C 0.46515 0.88944 0.95914 0.0
C4858 C 0.4811 0.89644 0.95841 0.0
C4859 C 0.48939 0.89729 0.94328 0.0
H4860 H 0.35079 0.16953 0.26735 0.0
H4861 H 0.39771 0.16619 0.24347 0.0
H4862 H 0.33954 0.18179 0.24215 0.0
H4863 H 0.38637 0.17825 0.21843 0.0
H4864 H 0.33329 0.21609 0.19443 0.0
H4865 H 0.3426 0.20667 0.22172 0.0
H4866 H 0.36479 0.1648 0.19854 0.0
H4867 H 0.35543 0.17414 0.17132 0.0
C4868 C 0.35885 0.17189 0.25697 0.0
C4869 C 0.3751 0.16665 0.25736 0.0
C4870 C 0.35235 0.17878 0.24251 0.0
C4871 C 0.36198 0.18046 0.22825 0.0
C4872 C 0.37858 0.17664 0.22914 0.0
C4873 C 0.3851 0.1699 0.24357 0.0
C4874 C 0.33984 0.20467 0.19525 0.0
C4875 C 0.34373 0.19585 0.18082 0.0
C4876 C 0.3452 0.19934 0.21083 0.0
C4877 C 0.35469 0.18523 0.21214 0.0
C4878 C 0.35776 0.17592 0.19779 0.0
C4879 C 0.35226 0.18114 0.18226 0.0
H4880 H 0.02399 0.91387 0.0638 0.0
H4881 H 0.07132 0.90011 0.08254 0.0
H4882 H 0.03017 0.9016 0.03673 0.0
H4883 H 0.0773 0.88765 0.05568 0.0
H4884 H 0.06595 0.89145 0.98847 0.0
H4885 H 0.05422 0.90505 0.01253 0.0
H4886 H 0.06083 0.86094 0.04161 0.0
H4887 H 0.07225 0.84716 0.01768 0.0
C4888 C 0.03584 0.90856 0.062 0.0
C4889 C 0.04719 0.90787 0.07522 0.0
C4890 C 0.03929 0.90149 0.04659 0.0
C4891 C 0.05401 0.89341 0.04436 0.0
C4892 C 0.06573 0.89358 0.05727 0.0
C4893 C 0.06239 0.90086 0.07255 0.0
C4894 C 0.06427 0.88437 0.99976 0.0
C4895 C 0.07043 0.86834 1.00126 0.0
C4896 C 0.05766 0.89224 0.01355 0.0
C4897 C 0.05717 0.88417 0.02894 0.0
C4898 C 0.06147 0.86751 0.02991 0.0
C4899 C 0.06788 0.8596 0.01614 0.0
H4900 H 0.39981 0.81097 0.25449 0.0
H4901 H 0.34819 0.81243 0.24267 0.0
H4902 H 0.3935 0.79819 0.28103 0.0
H4903 H 0.34191 0.79903 0.2694 0.0
H4904 H 0.34658 0.75849 0.31443 0.0
H4905 H 0.34836 0.77088 0.28669 0.0
H4906 H 0.37862 0.81119 0.30679 0.0
H4907 H 0.37661 0.799 0.33453 0.0
C4908 C 0.38708 0.8082 0.25736 0.0
C4909 C 0.3745 0.81286 0.24643 0.0
C4910 C 0.38349 0.80101 0.27268 0.0
C4911 C 0.36722 0.79801 0.27747 0.0
C4912 C 0.35457 0.80137 0.26606 0.0
C4913 C 0.35818 0.80885 0.25068 0.0
C4914 C 0.35325 0.77023 0.31298 0.0
C4915 C 0.36151 0.77775 0.32664 0.0
C4916 C 0.35426 0.7773 0.2971 0.0
C4917 C 0.3638 0.79186 0.29455 0.0
C4918 C 0.37131 0.79985 0.30838 0.0
C4919 C 0.37006 0.79295 0.32429 0.0
H4920 H 0.43424 0.12028 0.5696 0.0
H4921 H 0.46942 0.15921 0.55676 0.0
H4922 H 0.42526 0.11837 0.54051 0.0
H4923 H 0.46059 0.15723 0.52776 0.0
H4924 H 0.4184 0.1665 0.48897 0.0
H4925 H 0.43459 0.16518 0.51443 0.0
H4926 H 0.4334 0.11168 0.51108 0.0
H4927 H 0.41711 0.11305 0.48538 0.0
C4928 C 0.44019 0.12824 0.56051 0.0
C4929 C 0.45236 0.14002 0.56541 0.0
C4930 C 0.43518 0.12706 0.54386 0.0
C4931 C 0.44222 0.13768 0.53186 0.0
C4932 C 0.45486 0.14898 0.53673 0.0
C4933 C 0.45989 0.15011 0.55333 0.0
C4934 C 0.42207 0.15448 0.49337 0.0
C4935 C 0.41653 0.13989 0.48525 0.0
C4936 C 0.43135 0.15371 0.50796 0.0
C4937 C 0.43512 0.13831 0.51485 0.0
C4938 C 0.43052 0.12371 0.50611 0.0
C4939 C 0.4214 0.1245 0.49132 0.0
H4940 H 0.16279 0.14083 0.75266 0.0
H4941 H 0.116 0.16202 0.74278 0.0
H4942 H 0.16268 0.15199 0.78088 0.0
H4943 H 0.1162 0.17403 0.77058 0.0
H4944 H 0.15867 0.17992 0.83081 0.0
H4945 H 0.16272 0.17375 0.80132 0.0
H4946 H 0.11112 0.16076 0.79611 0.0
H4947 H 0.10712 0.16753 0.82512 0.0
C4948 C 0.15291 0.14864 0.75627 0.0
C4949 C 0.1394 0.15061 0.74562 0.0
C4950 C 0.15277 0.15494 0.77249 0.0
C4951 C 0.13918 0.16348 0.7782 0.0
C4952 C 0.12659 0.16701 0.76681 0.0
C4953 C 0.12658 0.16042 0.75077 0.0
C4954 C 0.14829 0.17559 0.8233 0.0
C4955 C 0.13258 0.17423 0.83016 0.0
C4956 C 0.15058 0.17212 0.80642 0.0
C4957 C 0.13719 0.16713 0.79619 0.0
C4958 C 0.12163 0.16515 0.80339 0.0
C4959 C 0.11935 0.16878 0.82011 0.0
H4960 H 0.47566 0.06344 0.13127 0.0
H4961 H 0.45326 0.10173 0.10246 0.0
H4962 H 0.44922 0.04786 0.13176 0.0
H4963 H 0.42716 0.08638 0.10292 0.0
H4964 H 0.37981 0.0668 0.12829 0.0
H4965 H 0.40678 0.08048 0.12452 0.0
H4966 H 0.42758 0.03298 0.11479 0.0
H4967 H 0.40074 0.0194 0.11852 0.0
C4968 C 0.46526 0.06828 0.12466 0.0
C4969 C 0.46654 0.08384 0.11692 0.0
C4970 C 0.45008 0.05945 0.12502 0.0
C4971 C 0.43596 0.06607 0.11767 0.0
C4972 C 0.43762 0.08111 0.10907 0.0
C4973 C 0.45266 0.08983 0.10869 0.0
C4974 C 0.39011 0.05935 0.12517 0.0
C4975 C 0.38815 0.04205 0.12379 0.0
C4976 C 0.40558 0.06714 0.12299 0.0
C4977 C 0.41941 0.05779 0.11945 0.0
C4978 C 0.41729 0.04052 0.11775 0.0
C4979 C 0.40186 0.03277 0.11979 0.0
H4980 H 0.19944 0.25645 0.35486 0.0
H4981 H 0.21792 0.25422 0.40516 0.0
H4982 H 0.2045 0.22738 0.35106 0.0
H4983 H 0.22424 0.22524 0.40102 0.0
H4984 H 0.19629 0.17533 0.40251 0.0
H4985 H 0.20306 0.20486 0.40212 0.0
H4986 H 0.21601 0.20128 0.35029 0.0
H4987 H 0.2083 0.17171 0.35062 0.0
C4988 C 0.20573 0.25006 0.36474 0.0
C4989 C 0.20761 0.25733 0.38056 0.0
C4990 C 0.20851 0.23322 0.3626 0.0
C4991 C 0.21383 0.22372 0.37611 0.0
C4992 C 0.21926 0.23204 0.39066 0.0
C4993 C 0.21603 0.24876 0.39294 0.0
C4994 C 0.20037 0.18095 0.391 0.0
C4995 C 0.20154 0.1714 0.37656 0.0
C4996 C 0.20465 0.19781 0.39083 0.0
C4997 C 0.21054 0.20547 0.37626 0.0
C4998 C 0.21155 0.19584 0.36172 0.0
C4999 C 0.20697 0.17896 0.36185 0.0
H5000 H 0.07927 0.91406 0.66548 0.0
H5001 H 0.07915 0.9272 0.61363 0.0
H5002 H 0.04966 0.91056 0.66474 0.0
H5003 H 0.04928 0.92501 0.61299 0.0
H5004 H 0.99772 0.89945 0.61439 0.0
H5005 H 0.02651 0.90759 0.61299 0.0
H5006 H 0.02546 0.92387 0.66424 0.0
H5007 H 0.99694 0.91424 0.66586 0.0
C5008 C 0.0728 0.91622 0.65391 0.0
C5009 C 0.0814 0.92071 0.63959 0.0
C5010 C 0.05577 0.91455 0.65351 0.0
C5011 C 0.04685 0.91784 0.63888 0.0
C5012 C 0.05561 0.92221 0.62446 0.0
C5013 C 0.07274 0.92343 0.62478 0.0
C5014 C 0.00352 0.90535 0.62516 0.0
C5015 C 0.99518 0.90623 0.64024 0.0
C5016 C 0.02014 0.90996 0.62441 0.0
C5017 C 0.02861 0.91595 0.63866 0.0
C5018 C 0.0196 0.91865 0.65319 0.0
C5019 C 0.00314 0.91352 0.65407 0.0
H5020 H 0.35046 0.77632 0.85115 0.0
H5021 H 0.34621 0.77051 0.90418 0.0
H5022 H 0.3356 0.80237 0.85283 0.0
H5023 H 0.3316 0.79616 0.90585 0.0
H5024 H 0.29076 0.83154 0.90179 0.0
H5025 H 0.30467 0.80603 0.89674 0.0
H5026 H 0.33966 0.8324 0.86592 0.0
H5027 H 0.32537 0.85845 0.87098 0.0
C5028 C 0.34607 0.7804 0.86308 0.0
C5029 C 0.34932 0.77122 0.87751 0.0
C5030 C 0.3378 0.79544 0.86407 0.0
C5031 C 0.33242 0.80139 0.87948 0.0
C5032 C 0.33542 0.79193 0.89376 0.0
C5033 C 0.34378 0.77716 0.8928 0.0
C5034 C 0.30141 0.83203 0.8939 0.0
C5035 C 0.30705 0.84711 0.88693 0.0
C5036 C 0.30941 0.81733 0.89102 0.0
C5037 C 0.32337 0.81713 0.88104 0.0
C5038 C 0.32888 0.83212 0.87362 0.0
C5039 C 0.32081 0.84704 0.8766 0.0
H5040 H 0.4187 0.9175 0.39762 0.0
H5041 H 0.44049 0.95996 0.37264 0.0
H5042 H 0.44584 0.90584 0.40092 0.0
H5043 H 0.46751 0.94837 0.37594 0.0
H5044 H 0.49892 0.89303 0.41108 0.0
H5045 H 0.47472 0.91 0.41368 0.0
H5046 H 0.47843 0.92324 0.36191 0.0
H5047 H 0.50233 0.90627 0.35932 0.0
C5048 C 0.42932 0.92446 0.39314 0.0
C5049 C 0.42752 0.93952 0.38473 0.0
C5050 C 0.44485 0.91786 0.39511 0.0
C5051 C 0.45877 0.92617 0.3886 0.0
C5052 C 0.45699 0.94163 0.38095 0.0
C5053 C 0.44153 0.94826 0.37908 0.0
C5054 C 0.49481 0.89997 0.40042 0.0
C5055 C 0.50246 0.89837 0.38499 0.0
C5056 C 0.4809 0.90953 0.40187 0.0
C5057 C 0.47467 0.91787 0.38799 0.0
C5058 C 0.48302 0.91708 0.37287 0.0
C5059 C 0.49668 0.90734 0.37136 0.0
H5060 H 0.33136 0.18008 0.63776 0.0
H5061 H 0.2957 0.18401 0.59814 0.0
H5062 H 0.33723 0.21005 0.63633 0.0
H5063 H 0.30134 0.21386 0.59685 0.0
H5064 H 0.33635 0.26598 0.63796 0.0
H5065 H 0.32505 0.23764 0.64113 0.0
H5066 H 0.3245 0.23151 0.58782 0.0
H5067 H 0.33562 0.25969 0.5847 0.0
C5068 C 0.32476 0.18737 0.62881 0.0
C5069 C 0.3132 0.17975 0.61797 0.0
C5070 C 0.32797 0.20453 0.6281 0.0
C5071 C 0.31969 0.21433 0.61651 0.0
C5072 C 0.308 0.20665 0.60582 0.0
C5073 C 0.30478 0.18955 0.60656 0.0
C5074 C 0.33322 0.25876 0.62693 0.0
C5075 C 0.3368 0.26503 0.61108 0.0
C5076 C 0.32701 0.24246 0.62875 0.0
C5077 C 0.32409 0.23227 0.61474 0.0
C5078 C 0.32653 0.23904 0.59886 0.0
C5079 C 0.33288 0.2552 0.59707 0.0
H5080 H 0.08262 0.01869 0.88068 0.0
H5081 H 0.08912 0.07143 0.88939 0.0
H5082 H 0.05302 0.02144 0.8792 0.0
H5083 H 0.05923 0.07406 0.8883 0.0
H5084 H 0.00375 0.06856 0.89714 0.0
H5085 H 0.03156 0.06075 0.90448 0.0
H5086 H 0.03704 0.03972 0.85562 0.0
H5087 H 0.00945 0.04802 0.84802 0.0
C5088 C 0.07769 0.03084 0.88259 0.0
C5089 C 0.08811 0.04491 0.88503 0.0
C5090 C 0.06078 0.03235 0.88175 0.0
C5091 C 0.05397 0.0479 0.88369 0.0
C5092 C 0.0643 0.0619 0.88694 0.0
C5093 C 0.08131 0.06043 0.88748 0.0
C5094 C 0.01064 0.06167 0.88819 0.0
C5095 C 0.00448 0.05883 0.87201 0.0
C5096 C 0.02659 0.05743 0.89234 0.0
C5097 C 0.03636 0.04985 0.88053 0.0
C5098 C 0.02965 0.04556 0.86491 0.0
C5099 C 0.01388 0.05019 0.86061 0.0
H5100 H 0.21034 0.84312 0.10403 0.0
H5101 H 0.1963 0.86172 0.15184 0.0
H5102 H 0.19855 0.81598 0.11057 0.0
H5103 H 0.18498 0.83407 0.15895 0.0
H5104 H 0.14952 0.78798 0.15631 0.0
H5105 H 0.1639 0.81459 0.154 0.0
H5106 H 0.20155 0.79162 0.12551 0.0
H5107 H 0.18638 0.76489 0.12714 0.0
C5108 C 0.20463 0.84136 0.116 0.0
C5109 C 0.20407 0.85459 0.12735 0.0
C5110 C 0.1981 0.82564 0.1199 0.0
C5111 C 0.19102 0.8225 0.13545 0.0
C5112 C 0.19022 0.83591 0.14679 0.0
C5113 C 0.19659 0.85183 0.14273 0.0
C5114 C 0.16109 0.78851 0.14986 0.0
C5115 C 0.16674 0.77432 0.14178 0.0
C5116 C 0.16942 0.80387 0.14857 0.0
C5117 C 0.18378 0.80555 0.13924 0.0
C5118 C 0.19025 0.79099 0.1324 0.0
C5119 C 0.18178 0.77554 0.1336 0.0
H5120 H 0.10062 0.43359 0.06258 0.0
H5121 H 0.13513 0.42156 0.10132 0.0
H5122 H 0.10257 0.46283 0.07096 0.0
H5123 H 0.13714 0.45075 0.10961 0.0
H5124 H 0.1551 0.50381 0.10319 0.0
H5125 H 0.14959 0.47558 0.09345 0.0
H5126 H 0.09764 0.48291 0.09598 0.0
H5127 H 0.10311 0.51133 0.10603 0.0
C5128 C 0.10834 0.43715 0.07311 0.0
C5129 C 0.1178 0.42536 0.08127 0.0
C5130 C 0.10946 0.45387 0.07786 0.0
C5131 C 0.12024 0.45907 0.0907 0.0
C5132 C 0.12896 0.4471 0.09946 0.0
C5133 C 0.12769 0.43038 0.09484 0.0
C5134 C 0.14248 0.49959 0.10136 0.0
C5135 C 0.12955 0.50978 0.10559 0.0
C5136 C 0.13934 0.48334 0.09594 0.0
C5137 C 0.12321 0.47694 0.09444 0.0
C5138 C 0.11021 0.48753 0.09721 0.0
C5139 C 0.11335 0.50384 0.1028 0.0
H5140 H 0.66511 0.02099 0.92079 0.0
H5141 H 0.62537 0.98477 0.92576 0.0
H5142 H 0.64743 0.04273 0.93021 0.0
H5143 H 0.6075 0.00669 0.93524 0.0
H5144 H 0.58806 0.05558 0.96313 0.0
H5145 H 0.6031 0.03046 0.95728 0.0
H5146 H 0.62327 0.05371 0.91349 0.0
H5147 H 0.60832 0.07867 0.91927 0.0
C5148 C 0.65276 0.01758 0.92459 0.0
C5149 C 0.64662 1.00121 0.9226 0.0
C5150 C 0.64256 0.03006 0.9297 0.0
C5151 C 0.62596 0.02646 0.93294 0.0
C5152 C 0.62022 0.00981 0.93268 0.0
C5153 C 0.6305 0.99723 0.9275 0.0
C5154 C 0.5953 0.0551 0.95197 0.0
C5155 C 0.59711 0.06913 0.9417 0.0
C5156 C 0.60398 0.04077 0.9487 0.0
C5157 C 0.6147 0.04034 0.93521 0.0
C5158 C 0.61541 0.05386 0.92423 0.0
C5159 C 0.60668 0.06808 0.92741 0.0
H5160 H 0.25415 0.41685 0.17282 0.0
H5161 H 0.26953 0.36613 0.17166 0.0
H5162 H 0.22667 0.40721 0.18031 0.0
H5163 H 0.24191 0.35651 0.17905 0.0
H5164 H 0.19107 0.35046 0.20627 0.0
H5165 H 0.21983 0.35694 0.20037 0.0
H5166 H 0.20526 0.39207 0.16312 0.0
H5167 H 0.17651 0.38574 0.16917 0.0
C5168 C 0.2518 0.40368 0.17465 0.0
C5169 C 0.26398 0.39226 0.1715 0.0
C5170 C 0.23599 0.39814 0.17866 0.0
C5171 C 0.23205 0.38109 0.17968 0.0
C5172 C 0.24459 0.36972 0.17817 0.0
C5173 C 0.26046 0.37527 0.17413 0.0
C5174 C 0.19403 0.35923 0.1965 0.0
C5175 C 0.18161 0.36773 0.18826 0.0
C5176 C 0.21049 0.36299 0.19319 0.0
C5177 C 0.21476 0.37534 0.18164 0.0
C5178 C 0.20229 0.38282 0.17244 0.0
C5179 C 0.18584 0.37902 0.1757 0.0
H5180 H 0.87067 0.94689 0.41892 0.0
H5181 H 0.88165 0.96619 0.46803 0.0
H5182 H 0.86502 0.97492 0.40938 0.0
H5183 H 0.87634 0.99435 0.4583 0.0
H5184 H 0.88081 0.04175 0.41927 0.0
H5185 H 0.88807 0.01597 0.43312 0.0
H5186 H 0.84041 0.99442 0.42092 0.0
H5187 H 0.83287 0.02007 0.40753 0.0
C5188 C 0.87225 0.95717 0.42756 0.0
C5189 C 0.87655 0.95441 0.4442 0.0
C5190 C 0.86891 0.97316 0.42214 0.0
C5191 C 0.87008 0.98668 0.4332 0.0
C5192 C 0.87533 0.98409 0.4496 0.0
C5193 C 0.87838 0.96803 0.45511 0.0
C5194 C 0.87166 0.03175 0.42005 0.0
C5195 C 0.85632 0.03295 0.41205 0.0
C5196 C 0.87589 0.01697 0.42787 0.0
C5197 C 0.86492 0.00318 0.42766 0.0
C5198 C 0.84917 0.00483 0.42094 0.0
C5199 C 0.84485 0.01961 0.41339 0.0
H5200 H 0.81393 0.15351 0.20435 0.0
H5201 H 0.82572 0.12872 0.15866 0.0
H5202 H 0.78474 0.14669 0.19948 0.0
H5203 H 0.79667 0.12168 0.15397 0.0
H5204 H 0.7341 0.14463 0.16554 0.0
H5205 H 0.76139 0.15258 0.17662 0.0
H5206 H 0.77627 0.10216 0.17041 0.0
H5207 H 0.74908 0.09429 0.15959 0.0
C5208 C 0.81025 0.14682 0.19315 0.0
C5209 C 0.82208 0.14166 0.18185 0.0
C5210 C 0.79358 0.14288 0.19042 0.0
C5211 C 0.78849 0.13339 0.17653 0.0
C5212 C 0.80029 0.12875 0.16495 0.0
C5213 C 0.81689 0.13294 0.16753 0.0
C5214 C 0.74288 0.13508 0.16759 0.0
C5215 C 0.7394 0.11879 0.16202 0.0
C5216 C 0.75859 0.13967 0.17364 0.0
C5217 C 0.77103 0.12805 0.17397 0.0
C5218 C 0.76699 0.11142 0.17004 0.0
C5219 C 0.75131 0.10683 0.16419 0.0
H5220 H 0.37997 0.56675 0.52731 0.0
H5221 H 0.39099 0.57989 0.57839 0.0
H5222 H 0.37298 0.5383 0.53569 0.0
H5223 H 0.38443 0.5511 0.58664 0.0
H5224 H 0.38503 0.49203 0.58707 0.0
H5225 H 0.39589 0.51742 0.57405 0.0
H5226 H 0.34683 0.53125 0.56147 0.0
H5227 H 0.33581 0.50619 0.57504 0.0
C5228 C 0.38125 0.56346 0.54028 0.0
C5229 C 0.38596 0.57549 0.55226 0.0
C5230 C 0.37725 0.54722 0.54501 0.0
C5231 C 0.37828 0.54267 0.56171 0.0
C5232 C 0.38373 0.55443 0.57364 0.0
C5233 C 0.38743 0.57082 0.56896 0.0
C5234 C 0.37657 0.50017 0.58101 0.0
C5235 C 0.35955 0.49716 0.58203 0.0
C5236 C 0.38281 0.51474 0.57375 0.0
C5237 C 0.37213 0.52619 0.56698 0.0
C5238 C 0.35523 0.5225 0.56666 0.0
C5239 C 0.34896 0.50816 0.57429 0.0
H5240 H 0.16944 0.63439 0.34089 0.0
H5241 H 0.18882 0.67097 0.30667 0.0
H5242 H 0.19679 0.62394 0.34506 0.0
H5243 H 0.21635 0.66043 0.31082 0.0
H5244 H 0.26425 0.64332 0.34119 0.0
H5245 H 0.23899 0.6565 0.33245 0.0
H5246 H 0.21513 0.60817 0.32667 0.0
H5247 H 0.24023 0.59517 0.33558 0.0
C5248 C 0.1796 0.64043 0.33453 0.0
C5249 C 0.17696 0.65347 0.32343 0.0
C5250 C 0.19526 0.63429 0.33671 0.0
C5251 C 0.20867 0.64106 0.3279 0.0
C5252 C 0.20624 0.65486 0.31766 0.0
C5253 C 0.1905 0.66096 0.31539 0.0
C5254 C 0.25388 0.63554 0.33709 0.0
C5255 C 0.25422 0.61822 0.3388 0.0
C5256 C 0.23933 0.64309 0.33236 0.0
C5257 C 0.22494 0.63338 0.32936 0.0
C5258 C 0.2259 0.616 0.32931 0.0
C5259 C 0.24037 0.60852 0.33404 0.0
H5260 H 0.29571 0.39206 0.78267 0.0
H5261 H 0.30815 0.36655 0.82792 0.0
H5262 H 0.26692 0.39105 0.79037 0.0
H5263 H 0.27917 0.3654 0.83556 0.0
H5264 H 0.22987 0.41147 0.83123 0.0
H5265 H 0.25448 0.40671 0.81527 0.0
H5266 H 0.2498 0.35431 0.82576 0.0
H5267 H 0.22496 0.35899 0.84144 0.0
C5268 C 0.29223 0.38596 0.79413 0.0
C5269 C 0.30412 0.37953 0.80483 0.0
C5270 C 0.27577 0.38537 0.79847 0.0
C5271 C 0.27089 0.37815 0.8135 0.0
C5272 C 0.28265 0.37085 0.82378 0.0
C5273 C 0.29919 0.3716 0.8195 0.0
C5274 C 0.23369 0.39885 0.82947 0.0
C5275 C 0.22555 0.38562 0.83753 0.0
C5276 C 0.24778 0.39612 0.82041 0.0
C5277 C 0.25409 0.38017 0.81953 0.0
C5278 C 0.24519 0.36672 0.82639 0.0
C5279 C 0.23088 0.36941 0.83517 0.0
H5280 H 0.90402 0.91474 0.50307 0.0
H5281 H 0.92309 0.86796 0.48807 0.0
H5282 H 0.91786 0.91269 0.52979 0.0
H5283 H 0.93816 0.86634 0.51427 0.0
H5284 H 0.9376 0.85373 0.56921 0.0
H5285 H 0.93015 0.85906 0.5405 0.0
H5286 H 0.93907 0.91171 0.54872 0.0
H5287 H 0.94542 0.90623 0.57784 0.0
C5288 C 0.91204 0.90451 0.50515 0.0
C5289 C 0.91261 0.89156 0.49354 0.0
C5290 C 0.91993 0.90322 0.52057 0.0
C5291 C 0.92881 0.88907 0.52453 0.0
C5292 C 0.93093 0.87711 0.512 0.0
C5293 C 0.92264 0.87819 0.49679 0.0
C5294 C 0.93789 0.86643 0.56485 0.0
C5295 C 0.94191 0.87957 0.57573 0.0
C5296 C 0.93387 0.86953 0.54827 0.0
C5297 C 0.93415 0.88586 0.54203 0.0
C5298 C 0.93847 0.899 0.553 0.0
C5299 C 0.94214 0.89589 0.56971 0.0
H5300 H 0.85874 0.20218 0.30986 0.0
H5301 H 0.89223 0.24232 0.29616 0.0
H5302 H 0.85818 0.19229 0.28109 0.0
H5303 H 0.89171 0.23243 0.26748 0.0
H5304 H 0.90838 0.18737 0.23392 0.0
H5305 H 0.90389 0.2057 0.25739 0.0
H5306 H 0.85161 0.19895 0.25051 0.0
H5307 H 0.85608 0.18066 0.22683 0.0
C5308 C 0.86564 0.20909 0.30062 0.0
C5309 C 0.87569 0.22284 0.3052 0.0
C5310 C 0.86526 0.20352 0.28416 0.0
C5311 C 0.87499 0.21157 0.27212 0.0
C5312 C 0.88419 0.22596 0.27655 0.0
C5313 C 0.88448 0.23158 0.29295 0.0
C5314 C 0.89594 0.19022 0.23707 0.0
C5315 C 0.88259 0.18251 0.22865 0.0
C5316 C 0.89336 0.20076 0.25047 0.0
C5317 C 0.87739 0.20358 0.25583 0.0
C5318 C 0.86402 0.19685 0.24666 0.0
C5319 C 0.86661 0.18651 0.23305 0.0
H5320 H 0.56998 0.15075 0.01629 0.0
H5321 H 0.55063 0.10454 0.99542 0.0
H5322 H 0.55465 0.14564 0.04144 0.0
H5323 H 0.53483 0.09965 0.02088 0.0
H5324 H 0.49646 0.11178 0.06401 0.0
H5325 H 0.51143 0.11308 0.03782 0.0
H5326 H 0.55625 0.12445 0.065 0.0
H5327 H 0.54132 0.12292 0.09119 0.0
C5328 C 0.56231 0.13954 0.01691 0.0
C5329 C 0.56168 0.12802 0.00367 0.0
C5330 C 0.55361 0.13657 0.0315 0.0
C5331 C 0.54376 0.1221 0.03333 0.0
C5332 C 0.54241 0.11089 0.01987 0.0
C5333 C 0.55139 0.11374 0.00525 0.0
C5334 C 0.50957 0.11422 0.0644 0.0
C5335 C 0.51769 0.11731 0.07967 0.0
C5336 C 0.51814 0.11494 0.04939 0.0
C5337 C 0.53499 0.11905 0.04929 0.0
C5338 C 0.54323 0.12143 0.06464 0.0
C5339 C 0.53471 0.12044 0.07966 0.0
H5340 H 0.67473 0.79231 0.81549 0.0
H5341 H 0.65259 0.83488 0.83743 0.0
H5342 H 0.66744 0.80229 0.7877 0.0
H5343 H 0.64504 0.84459 0.80973 0.0
H5344 H 0.61269 0.83931 0.76328 0.0
H5345 H 0.62373 0.82657 0.78811 0.0
H5346 H 0.67257 0.83232 0.76881 0.0
H5347 H 0.66168 0.84554 0.74388 0.0
C5348 C 0.66862 0.80396 0.81433 0.0
C5349 C 0.66415 0.81283 0.82854 0.0
C5350 C 0.66444 0.8096 0.79849 0.0
C5351 C 0.65551 0.82401 0.79674 0.0
C5352 C 0.65181 0.83333 0.81089 0.0
C5353 C 0.65622 0.82786 0.82668 0.0
C5354 C 0.62575 0.83753 0.76402 0.0
C5355 C 0.63632 0.84378 0.75169 0.0
C5356 C 0.63204 0.83033 0.77832 0.0
C5357 C 0.64897 0.82891 0.78042 0.0
C5358 C 0.65946 0.83348 0.76743 0.0
C5359 C 0.65319 0.84094 0.75315 0.0
H5360 H 0.96938 0.08504 0.93425 0.0
H5361 H 0.92288 0.1007 0.91503 0.0
H5362 H 0.963 0.09655 0.9615 0.0
H5363 H 0.91661 0.11231 0.9422 0.0
H5364 H 0.92369 0.15273 0.98088 0.0
H5365 H 0.9322 0.13795 0.95628 0.0
H5366 H 0.94108 0.0946 0.98585 0.0
H5367 H 0.93229 0.10927 0.01067 0.0
C5368 C 0.95761 0.09052 0.936 0.0
C5369 C 0.94664 0.09211 0.92257 0.0
C5370 C 0.95402 0.09714 0.95154 0.0
C5371 C 0.93952 0.1056 0.95375 0.0
C5372 C 0.92802 0.10608 0.94065 0.0
C5373 C 0.93151 0.09928 0.92519 0.0
C5374 C 0.9278 0.14018 0.9823 0.0
C5375 C 0.92703 0.13211 0.99772 0.0
C5376 C 0.9325 0.13168 0.96815 0.0
C5377 C 0.93676 0.11502 0.96917 0.0
C5378 C 0.93762 0.1074 0.98478 0.0
C5379 C 0.93273 0.11588 0.99899 0.0
H5380 H 0.59995 0.18212 0.74449 0.0
H5381 H 0.64471 0.20276 0.76653 0.0
H5382 H 0.60656 0.19554 0.71842 0.0
H5383 H 0.65095 0.21687 0.74014 0.0
H5384 H 0.63538 0.25311 0.69343 0.0
H5385 H 0.63507 0.23972 0.72066 0.0
H5386 H 0.63146 0.19177 0.69675 0.0
H5387 H 0.63231 0.20523 0.66938 0.0
C5388 C 0.61112 0.18973 0.74393 0.0
C5389 C 0.62183 0.19124 0.75775 0.0
C5390 C 0.61496 0.19728 0.72884 0.0
C5391 C 0.62944 0.20691 0.72713 0.0
C5392 C 0.63979 0.20931 0.7411 0.0
C5393 C 0.63612 0.20138 0.75624 0.0
C5394 C 0.63513 0.23968 0.69401 0.0
C5395 C 0.63397 0.23018 0.67933 0.0
C5396 C 0.63494 0.23204 0.70959 0.0
C5397 C 0.63314 0.21474 0.71082 0.0
C5398 C 0.63286 0.20516 0.69613 0.0
C5399 C 0.63347 0.21282 0.68049 0.0
H5400 H 0.59784 0.88737 0.51879 0.0
H5401 H 0.58241 0.83626 0.52613 0.0
H5402 H 0.58207 0.88807 0.49316 0.0
H5403 H 0.56526 0.83722 0.50125 0.0
H5404 H 0.55796 0.83495 0.44559 0.0
H5405 H 0.56894 0.8358 0.4736 0.0
H5406 H 0.55951 0.88826 0.4765 0.0
H5407 H 0.5498 0.88744 0.44769 0.0
C5408 C 0.59044 0.87648 0.51525 0.0
C5409 C 0.59138 0.86173 0.52435 0.0
C5410 C 0.58132 0.87685 0.50048 0.0
C5411 C 0.57256 0.86258 0.4947 0.0
C5412 C 0.57233 0.84829 0.5048 0.0
C5413 C 0.58192 0.84777 0.51925 0.0
C5414 C 0.55827 0.84666 0.45226 0.0
C5415 C 0.55317 0.86115 0.44451 0.0
C5416 C 0.56436 0.84714 0.46849 0.0
C5417 C 0.56506 0.86208 0.47765 0.0
C5418 C 0.55951 0.87656 0.4699 0.0
C5419 C 0.55385 0.87613 0.4534 0.0
H5420 H 0.88502 0.84561 0.17127 0.0
H5421 H 0.83782 0.81997 0.17296 0.0
H5422 H 0.88349 0.85174 0.20077 0.0
H5423 H 0.83638 0.8258 0.20284 0.0
H5424 H 0.83585 0.85851 0.25216 0.0
H5425 H 0.83428 0.84813 0.22362 0.0
H5426 H 0.8854 0.8364 0.22636 0.0
H5427 H 0.88703 0.84725 0.25462 0.0
C5428 C 0.87424 0.8414 0.17797 0.0
C5429 C 0.86156 0.8323 0.16986 0.0
C5430 C 0.87344 0.8447 0.19494 0.0
C5431 C 0.86 0.83888 0.20429 0.0
C5432 C 0.84694 0.83039 0.19602 0.0
C5433 C 0.84772 0.82712 0.17892 0.0
C5434 C 0.84656 0.85308 0.24688 0.0
C5435 C 0.86159 0.85374 0.25556 0.0
C5436 C 0.8457 0.84726 0.23046 0.0
C5437 C 0.85985 0.84191 0.22254 0.0
C5438 C 0.87441 0.84094 0.23192 0.0
C5439 C 0.8753 0.8469 0.2482 0.0
H5440 H 0.54551 0.91064 0.90995 0.0
H5441 H 0.52896 0.93818 0.86755 0.0
H5442 H 0.57233 0.92446 0.90843 0.0
H5443 H 0.55592 0.95253 0.86615 0.0
H5444 H 0.6107 0.95312 0.85311 0.0
H5445 H 0.58242 0.94386 0.85757 0.0
H5446 H 0.59002 0.94852 0.9106 0.0
H5447 H 0.61857 0.95748 0.90603 0.0
C5448 C 0.54747 0.92017 0.90066 0.0
C5449 C 0.53514 0.92339 0.88891 0.0
C5450 C 0.5629 0.92811 0.89977 0.0
C5451 C 0.56648 0.93946 0.88701 0.0
C5452 C 0.55371 0.94361 0.87596 0.0
C5453 C 0.53815 0.93565 0.87692 0.0
C5454 C 0.60635 0.95207 0.86574 0.0
C5455 C 0.61688 0.95596 0.87922 0.0
C5456 C 0.59004 0.94698 0.86829 0.0
C5457 C 0.58375 0.94566 0.88444 0.0
C5458 C 0.5944 0.94933 0.89798 0.0
C5459 C 0.61079 0.9544 0.8954 0.0
H5460 H 0.80641 0.83509 0.66399 0.0
H5461 H 0.81819 0.8342 0.61191 0.0
H5462 H 0.79845 0.80552 0.66272 0.0
H5463 H 0.81092 0.80476 0.61067 0.0
H5464 H 0.78842 0.75825 0.60381 0.0
H5465 H 0.78638 0.78743 0.61106 0.0
H5466 H 0.80881 0.77811 0.65882 0.0
H5467 H 0.80979 0.74886 0.65193 0.0
C5468 C 0.8078 0.82841 0.65243 0.0
C5469 C 0.81295 0.83678 0.63804 0.0
C5470 C 0.80303 0.81158 0.65164 0.0
C5471 C 0.80345 0.80295 0.63646 0.0
C5472 C 0.80972 0.81119 0.6224 0.0
C5473 C 0.81429 0.82795 0.62316 0.0
C5474 C 0.79179 0.76226 0.61629 0.0
C5475 C 0.79961 0.75149 0.62715 0.0
C5476 C 0.79102 0.77903 0.62032 0.0
C5477 C 0.79834 0.78516 0.63511 0.0
C5478 C 0.80334 0.77383 0.64719 0.0
C5479 C 0.80372 0.75697 0.6433 0.0
H5480 H 0.91931 0.09795 0.39159 0.0
H5481 H 0.92325 0.06248 0.35166 0.0
H5482 H 0.94915 0.10291 0.39127 0.0
H5483 H 0.95272 0.06688 0.35173 0.0
H5484 H 0.99923 0.09838 0.34039 0.0
H5485 H 0.97095 0.08882 0.3431 0.0
H5486 H 0.97596 0.09053 0.39657 0.0
H5487 H 0.00439 0.10055 0.39382 0.0
C5488 C 0.92656 0.09119 0.38284 0.0
C5489 C 0.919 0.08005 0.37149 0.0
C5490 C 0.94361 0.09385 0.38277 0.0
C5491 C 0.95329 0.0853 0.37141 0.0
C5492 C 0.94563 0.07386 0.36043 0.0
C5493 C 0.92872 0.07135 0.3604 0.0
C5494 C 0.99446 0.09629 0.35274 0.0
C5495 C 0.00401 0.10028 0.36687 0.0
C5496 C 0.97821 0.0908 0.35431 0.0
C5497 C 0.97112 0.08912 0.37007 0.0
C5498 C 0.98101 0.09199 0.38426 0.0
C5499 C 0.99736 0.09746 0.38268 0.0
H5500 H 0.63575 0.21943 0.11252 0.0
H5501 H 0.66563 0.23975 0.15278 0.0
H5502 H 0.65077 0.19402 0.11336 0.0
H5503 H 0.68105 0.21407 0.15334 0.0
H5504 H 0.71635 0.17587 0.12734 0.0
H5505 H 0.70023 0.20015 0.13276 0.0
H5506 H 0.65611 0.16911 0.13215 0.0
H5507 H 0.67248 0.14456 0.12702 0.0
C5508 C 0.6456 0.21855 0.12155 0.0
C5509 C 0.64957 0.23183 0.13249 0.0
C5510 C 0.65409 0.20381 0.12214 0.0
C5511 C 0.66703 0.2019 0.13349 0.0
C5512 C 0.6711 0.21514 0.14446 0.0
C5513 C 0.66232 0.22987 0.14411 0.0
C5514 C 0.70323 0.17416 0.12874 0.0
C5515 C 0.69566 0.15833 0.12675 0.0
C5516 C 0.69401 0.18808 0.13192 0.0
C5517 C 0.67688 0.18663 0.13283 0.0
C5518 C 0.6693 0.17065 0.13146 0.0
C5519 C 0.67864 0.15658 0.12863 0.0
H5520 H 0.49964 0.10953 0.60013 0.0
H5521 H 0.50084 0.09953 0.65278 0.0
H5522 H 0.52372 0.09272 0.59644 0.0
H5523 H 0.52468 0.08262 0.64905 0.0
H5524 H 0.58104 0.08636 0.60833 0.0
H5525 H 0.55375 0.09805 0.60693 0.0
H5526 H 0.53408 0.05637 0.63473 0.0
H5527 H 0.56118 0.0447 0.63604 0.0
C5528 C 0.50474 0.10334 0.61082 0.0
C5529 C 0.49838 0.10582 0.62676 0.0
C5530 C 0.5186 0.09388 0.60872 0.0
C5531 C 0.52608 0.08646 0.62246 0.0
C5532 C 0.51908 0.0881 0.63821 0.0
C5533 C 0.50545 0.09779 0.64036 0.0
C5534 C 0.5708 0.07956 0.61381 0.0
C5535 C 0.57321 0.06473 0.62241 0.0
C5536 C 0.5552 0.08619 0.61296 0.0
C5537 C 0.54186 0.07814 0.62084 0.0
C5538 C 0.54418 0.06289 0.62868 0.0
C5539 C 0.55968 0.05622 0.6294 0.0
H5540 H 0.66044 0.82706 0.39577 0.0
H5541 H 0.70158 0.81926 0.36387 0.0
H5542 H 0.65512 0.797 0.39709 0.0
H5543 H 0.69605 0.78921 0.36495 0.0
H5544 H 0.66247 0.7382 0.36045 0.0
H5545 H 0.67138 0.76728 0.35687 0.0
H5546 H 0.67372 0.77364 0.41005 0.0
H5547 H 0.66528 0.74471 0.41377 0.0
C5548 C 0.66813 0.81893 0.38881 0.0
C5549 C 0.68142 0.82541 0.37977 0.0
C5550 C 0.66519 0.80177 0.38967 0.0
C5551 C 0.67533 0.79086 0.38127 0.0
C5552 C 0.68811 0.79739 0.37155 0.0
C5553 C 0.69124 0.81453 0.37094 0.0
C5554 C 0.66545 0.74561 0.37138 0.0
C5555 C 0.6629 0.73914 0.3874 0.0
C5556 C 0.67041 0.76229 0.36931 0.0
C5557 C 0.67275 0.77272 0.3832 0.0
C5558 C 0.67161 0.76591 0.39915 0.0
C5559 C 0.66691 0.74927 0.40124 0.0
H5560 H 0.92137 0.99192 0.12201 0.0
H5561 H 0.91582 0.94039 0.10745 0.0
H5562 H 0.95106 0.98954 0.12327 0.0
H5563 H 0.94568 0.93816 0.10835 0.0
H5564 H 1.00031 0.94181 0.10344 0.0
H5565 H 0.97381 0.95244 0.09502 0.0
H5566 H 0.96607 0.96914 0.14519 0.0
H5567 H 0.99226 0.95802 0.15375 0.0
C5568 C 0.92654 0.98018 0.11874 0.0
C5569 C 0.91638 0.96625 0.11481 0.0
C5570 C 0.94348 0.97889 0.1194 0.0
C5571 C 0.95053 0.96374 0.11581 0.0
C5572 C 0.94045 0.95005 0.11094 0.0
C5573 C 0.92343 0.95126 0.11056 0.0
C5574 C 0.9933 0.94847 0.11248 0.0
C5575 C 0.99822 0.94914 0.12924 0.0
C5576 C 0.9781 0.95436 0.10768 0.0
C5577 C 0.96797 0.9614 0.11952 0.0
C5578 C 0.97376 0.9638 0.13585 0.0
C5579 C 0.98874 0.95753 0.14074 0.0
H5580 H 0.81503 0.24142 0.88634 0.0
H5581 H 0.84289 0.22239 0.8458 0.0
H5582 H 0.80032 0.21436 0.88858 0.0
H5583 H 0.82865 0.19544 0.84826 0.0
H5584 H 0.81726 0.14528 0.87649 0.0
H5585 H 0.82952 0.17322 0.87172 0.0
H5586 H 0.78147 0.19369 0.87171 0.0
H5587 H 0.7693 0.16618 0.87599 0.0
C5588 C 0.81747 0.23173 0.87746 0.0
C5589 C 0.82988 0.23409 0.86572 0.0
C5590 C 0.80931 0.21615 0.87891 0.0
C5591 C 0.81364 0.20267 0.86883 0.0
C5592 C 0.82528 0.20545 0.85641 0.0
C5593 C 0.83319 0.22098 0.85481 0.0
C5594 C 0.80937 0.15575 0.87536 0.0
C5595 C 0.79234 0.15346 0.87669 0.0
C5596 C 0.81634 0.17172 0.87263 0.0
C5597 C 0.80641 0.18567 0.87145 0.0
C5598 C 0.78943 0.18328 0.87274 0.0
C5599 C 0.7825 0.16742 0.87514 0.0
H5600 H 0.88914 0.56811 0.95216 0.0
H5601 H 0.87485 0.58381 0.90303 0.0
H5602 H 0.88575 0.53899 0.94343 0.0
H5603 H 0.8712 0.55478 0.89446 0.0
H5604 H 0.84223 0.50562 0.89515 0.0
H5605 H 0.84869 0.53285 0.90701 0.0
H5606 H 0.89746 0.51784 0.91937 0.0
H5607 H 0.89121 0.49043 0.90711 0.0
C5608 C 0.88559 0.56531 0.93942 0.0
C5609 C 0.88217 0.57813 0.92825 0.0
C5610 C 0.88365 0.54871 0.93448 0.0
C5611 C 0.87799 0.54477 0.91841 0.0
C5612 C 0.8754 0.55759 0.907 0.0
C5613 C 0.87759 0.57415 0.91185 0.0
C5614 C 0.85425 0.50791 0.90067 0.0
C5615 C 0.8663 0.49592 0.8999 0.0
C5616 C 0.85795 0.52356 0.90736 0.0
C5617 C 0.87367 0.52746 0.91367 0.0
C5618 C 0.88529 0.51508 0.91439 0.0
C5619 C 0.88166 0.49939 0.90748 0.0
H5620 H 0.40061 0.93037 0.08966 0.0
H5621 H 0.40967 0.95212 0.04156 0.0
H5622 H 0.38551 0.95465 0.09765 0.0
H5623 H 0.3946 0.97658 0.0497 0.0
H5624 H 0.37491 0.02156 0.08542 0.0
H5625 H 0.3932 1.00118 0.07358 0.0
H5626 H 0.35714 0.96214 0.08323 0.0
H5627 H 0.33893 0.98234 0.09482 0.0
C5628 C 0.39988 0.94058 0.08101 0.0
C5629 C 0.40617 0.93929 0.06494 0.0
C5630 C 0.39109 0.95439 0.08551 0.0
C5631 C 0.38859 0.96724 0.0741 0.0
C5632 C 0.39628 0.96676 0.05864 0.0
C5633 C 0.40496 0.95282 0.05405 0.0
C5634 C 0.37061 0.00875 0.08424 0.0
C5635 C 0.35552 0.00349 0.09103 0.0
C5636 C 0.38116 0.99708 0.0777 0.0
C5637 C 0.37671 0.98009 0.07798 0.0
C5638 C 0.36098 0.97514 0.08325 0.0
C5639 C 0.35048 0.98672 0.08966 0.0
H5640 H 0.75216 0.59243 0.8372 0.0
H5641 H 0.73792 0.64359 0.83685 0.0
H5642 H 0.77947 0.60108 0.82842 0.0
H5643 H 0.76545 0.65222 0.82813 0.0
H5644 H 0.81391 0.65469 0.79627 0.0
H5645 H 0.78564 0.64976 0.80503 0.0
H5646 H 0.80226 0.6166 0.84321 0.0
H5647 H 0.83047 0.62133 0.83428 0.0
C5648 C 0.75477 0.6055 0.83498 0.0
C5649 C 0.74292 0.61733 0.83789 0.0
C5650 C 0.77047 0.61046 0.83015 0.0
C5651 C 0.77467 0.62735 0.8281 0.0
C5652 C 0.76253 0.63912 0.82978 0.0
C5653 C 0.74676 0.63415 0.83465 0.0
C5654 C 0.81153 0.64669 0.80681 0.0
C5655 C 0.82426 0.63821 0.8145 0.0
C5656 C 0.79537 0.64385 0.81179 0.0
C5657 C 0.79178 0.63248 0.82449 0.0
C5658 C 0.8047 0.6251 0.83308 0.0
C5659 C 0.82083 0.62794 0.82811 0.0
H5660 H 0.10148 0.04635 0.56568 0.0
H5661 H 0.15418 0.04907 0.5635 0.0
H5662 H 0.1024 0.0174 0.5746 0.0
H5663 H 0.15539 0.02092 0.57355 0.0
H5664 H 0.15724 0.96819 0.5834 0.0
H5665 H 0.15215 0.99341 0.56789 0.0
H5666 H 0.10812 1.00006 0.59618 0.0
H5667 H 0.11258 0.97417 0.61044 0.0
C5668 C 0.11325 0.04078 0.56738 0.0
C5669 C 0.12775 0.04983 0.56394 0.0
C5670 C 0.11384 0.0242 0.57251 0.0
C5671 C 0.12899 0.01654 0.57467 0.0
C5672 C 0.14344 0.02596 0.5715 0.0
C5673 C 0.1428 0.04227 0.56598 0.0
C5674 C 0.14617 0.97476 0.58576 0.0
C5675 C 0.1353 0.96924 0.59804 0.0
C5676 C 0.14336 0.98942 0.57713 0.0
C5677 C 0.12999 0.99924 0.58112 0.0
C5678 C 0.1185 0.99296 0.5926 0.0
C5679 C 0.12104 0.97802 0.60081 0.0
H5680 H 0.26737 0.90047 0.83047 0.0
H5681 H 0.26358 0.85559 0.85917 0.0
H5682 H 0.24054 0.894 0.81793 0.0
H5683 H 0.23645 0.84962 0.8479 0.0
H5684 H 0.18581 0.84186 0.82656 0.0
H5685 H 0.21559 0.84335 0.82972 0.0
H5686 H 0.21472 0.89698 0.82794 0.0
H5687 H 0.1853 0.8952 0.82358 0.0
C5688 C 0.26111 0.88881 0.83346 0.0
C5689 C 0.26756 0.87841 0.84558 0.0
C5690 C 0.24549 0.88529 0.82669 0.0
C5691 C 0.23588 0.87159 0.83236 0.0
C5692 C 0.24327 0.86026 0.84311 0.0
C5693 C 0.25898 0.8636 0.84952 0.0
C5694 C 0.19209 0.85392 0.82695 0.0
C5695 C 0.18332 0.86843 0.82502 0.0
C5696 C 0.20919 0.85483 0.82871 0.0
C5697 C 0.21782 0.8703 0.82896 0.0
C5698 C 0.20879 0.88478 0.82728 0.0
C5699 C 0.19182 0.88382 0.82512 0.0
H5700 H 0.6066 0.43463 0.46901 0.0
H5701 H 0.62746 0.41666 0.42362 0.0
H5702 H 0.61553 0.46301 0.46193 0.0
H5703 H 0.6365 0.44503 0.41662 0.0
H5704 H 0.66941 0.49086 0.42151 0.0
H5705 H 0.65846 0.46431 0.43144 0.0
H5706 H 0.61145 0.48566 0.43897 0.0
H5707 H 0.62227 0.51234 0.42875 0.0
C5708 C 0.61281 0.43682 0.45736 0.0
C5709 C 0.61641 0.42351 0.44686 0.0
C5710 C 0.61793 0.45303 0.45336 0.0
C5711 C 0.62695 0.45611 0.43892 0.0
C5712 C 0.62981 0.44289 0.428 0.0
C5713 C 0.62449 0.42672 0.43189 0.0
C5714 C 0.65685 0.49009 0.42569 0.0
C5715 C 0.64666 0.5037 0.4241 0.0
C5716 C 0.65055 0.47481 0.43118 0.0
C5717 C 0.63401 0.47287 0.43546 0.0
C5718 C 0.62422 0.48684 0.43555 0.0
C5719 C 0.63049 0.50215 0.42987 0.0
H5720 H 0.76544 0.40721 0.66209 0.0
H5721 H 0.73658 0.36159 0.66589 0.0
H5722 H 0.78945 0.39323 0.6724 0.0
H5723 H 0.76079 0.3475 0.67652 0.0
H5724 H 0.81206 0.33867 0.70763 0.0
H5725 H 0.78497 0.34922 0.70096 0.0
H5726 H 0.80381 0.36946 0.6552 0.0
H5727 H 0.83074 0.35875 0.66169 0.0
C5728 C 0.76408 0.39436 0.66588 0.0
C5729 C 0.74915 0.38551 0.66333 0.0
C5730 C 0.77787 0.3863 0.67152 0.0
C5731 C 0.77703 0.36922 0.67482 0.0
C5732 C 0.76174 0.36068 0.67395 0.0
C5733 C 0.74785 0.36878 0.66814 0.0
C5734 C 0.81026 0.34494 0.69591 0.0
C5735 C 0.82351 0.34794 0.68518 0.0
C5736 C 0.79479 0.35101 0.69216 0.0
C5737 C 0.79243 0.36041 0.67776 0.0
C5738 C 0.80541 0.36245 0.66653 0.0
C5739 C 0.82077 0.35618 0.67015 0.0
H5740 H 0.77527 0.64111 0.16053 0.0
H5741 H 0.77409 0.58872 0.17155 0.0
H5742 H 0.7487 0.64366 0.17322 0.0
H5743 H 0.74791 0.59143 0.18527 0.0
H5744 H 0.69367 0.59368 0.17592 0.0
H5745 H 0.72283 0.59402 0.17077 0.0
H5746 H 0.72828 0.64231 0.19418 0.0
H5747 H 0.69862 0.64215 0.19865 0.0
C5748 C 0.76975 0.63031 0.1665 0.0
C5749 C 0.7765 0.61461 0.16473 0.0
C5750 C 0.75443 0.63177 0.17374 0.0
C5751 C 0.74588 0.6176 0.1796 0.0
C5752 C 0.75391 0.60245 0.18019 0.0
C5753 C 0.76901 0.60091 0.17259 0.0
C5754 C 0.70109 0.60448 0.17972 0.0
C5755 C 0.69402 0.61792 0.18756 0.0
C5756 C 0.71786 0.60455 0.17709 0.0
C5757 C 0.72802 0.61795 0.18258 0.0
C5758 C 0.72081 0.63175 0.18992 0.0
C5759 C 0.70387 0.63176 0.19232 0.0
H5760 H 0.58381 0.63967 0.01537 0.0
H5761 H 0.59135 0.58766 0.00719 0.0
H5762 H 0.57019 0.64146 0.98863 0.0
H5763 H 0.57707 0.58917 0.98037 0.0
H5764 H 0.57652 0.60562 0.92486 0.0
H5765 H 0.58388 0.60011 0.95384 0.0
H5766 H 0.5491 0.63587 0.96987 0.0
H5767 H 0.54257 0.64191 0.94106 0.0
C5768 C 0.58177 0.62838 0.00817 0.0
C5769 C 0.58856 0.61352 0.01345 0.0
C5770 C 0.574 0.6294 0.99269 0.0
C5771 C 0.57272 0.61552 0.98203 0.0
C5772 C 0.57813 0.60021 0.98804 0.0
C5773 C 0.58597 0.59922 0.00361 0.0
C5774 C 0.57051 0.61227 0.93464 0.0
C5775 C 0.55919 0.62439 0.9307 0.0
C5776 C 0.57456 0.60899 0.95128 0.0
C5777 C 0.56717 0.61758 0.96436 0.0
C5778 C 0.55537 0.62924 0.96026 0.0
C5779 C 0.55157 0.6327 0.94369 0.0
H5780 H 0.59598 0.32287 0.26992 0.0
H5781 H 0.64821 0.33152 0.27532 0.0
H5782 H 0.60036 0.30433 0.24661 0.0
H5783 H 0.65263 0.31291 0.25182 0.0
H5784 H 0.64555 0.30557 0.19318 0.0
H5785 H 0.646 0.31712 0.22132 0.0
H5786 H 0.61227 0.27796 0.23698 0.0
H5787 H 0.61178 0.26649 0.20888 0.0
C5788 C 0.60842 0.32043 0.2664 0.0
C5789 C 0.62174 0.32868 0.27438 0.0
C5790 C 0.61095 0.30976 0.25307 0.0
C5791 C 0.62685 0.30727 0.24731 0.0
C5792 C 0.64025 0.31472 0.25594 0.0
C5793 C 0.63772 0.32523 0.26947 0.0
C5794 C 0.63855 0.29924 0.20274 0.0
C5795 C 0.62849 0.28527 0.19885 0.0
C5796 C 0.63886 0.30579 0.21887 0.0
C5797 C 0.62906 0.2985 0.23131 0.0
C5798 C 0.61981 0.28392 0.2276 0.0
C5799 C 0.61956 0.27735 0.21153 0.0
H5800 H 0.98923 0.40698 0.42976 0.0
H5801 H 0.96748 0.35807 0.42183 0.0
H5802 H 0.97768 0.40746 0.45781 0.0
H5803 H 0.95543 0.3587 0.44919 0.0
H5804 H 0.94777 0.35397 0.50269 0.0
H5805 H 0.96298 0.35613 0.47696 0.0
H5806 H 0.95398 0.40858 0.47487 0.0
H5807 H 0.93946 0.40646 0.50121 0.0
C5808 C 0.9817 0.3965 0.4339 0.0
C5809 C 0.97932 0.38244 0.42368 0.0
C5810 C 0.97511 0.39672 0.44999 0.0
C5811 C 0.96592 0.38293 0.45608 0.0
C5812 C 0.96293 0.36931 0.44534 0.0
C5813 C 0.96965 0.36902 0.4295 0.0
C5814 C 0.94949 0.36606 0.497 0.0
C5815 C 0.94244 0.38003 0.50402 0.0
C5816 C 0.95798 0.36729 0.48205 0.0
C5817 C 0.9593 0.38245 0.4734 0.0
C5818 C 0.95324 0.39669 0.48106 0.0
C5819 C 0.94498 0.3955 0.49625 0.0
H5820 H 0.83067 0.71931 0.69233 0.0
H5821 H 0.84478 0.67319 0.67016 0.0
H5822 H 0.84188 0.71051 0.71916 0.0
H5823 H 0.85608 0.66455 0.69682 0.0
H5824 H 0.89545 0.66649 0.73615 0.0
H5825 H 0.88178 0.67867 0.71238 0.0
H5826 H 0.83874 0.68562 0.74175 0.0
H5827 H 0.85232 0.67314 0.76569 0.0
C5828 C 0.83579 0.70714 0.6933 0.0
C5829 C 0.83697 0.69695 0.67919 0.0
C5830 C 0.84224 0.70217 0.7086 0.0
C5831 C 0.85012 0.68705 0.70988 0.0
C5832 C 0.85031 0.67642 0.69603 0.0
C5833 C 0.8437 0.68128 0.68083 0.0
C5834 C 0.88324 0.67101 0.73773 0.0
C5835 C 0.87489 0.66861 0.75274 0.0
C5836 C 0.87538 0.67784 0.72407 0.0
C5837 C 0.85909 0.6826 0.72518 0.0
C5838 C 0.85127 0.68186 0.74061 0.0
C5839 C 0.85912 0.67486 0.75432 0.0
H5840 H 0.52597 0.4186 0.56293 0.0
H5841 H 0.57369 0.40891 0.58356 0.0
H5842 H 0.53439 0.40749 0.53603 0.0
H5843 H 0.58189 0.39758 0.55688 0.0
H5844 H 0.57732 0.35444 0.51975 0.0
H5845 H 0.56567 0.36913 0.54297 0.0
H5846 H 0.56114 0.41278 0.51273 0.0
H5847 H 0.57317 0.39826 0.48931 0.0
C5848 C 0.53837 0.41453 0.56158 0.0
C5849 C 0.54917 0.4145 0.5753 0.0
C5850 C 0.54313 0.40815 0.54625 0.0
C5851 C 0.55864 0.40148 0.54461 0.0
C5852 C 0.56979 0.40252 0.55799 0.0
C5853 C 0.56514 0.4091 0.57319 0.0
C5854 C 0.5735 0.36702 0.5178 0.0
C5855 C 0.57646 0.37524 0.5027 0.0
C5856 C 0.56693 0.37544 0.53116 0.0
C5857 C 0.56291 0.39212 0.52962 0.0
C5858 C 0.56432 0.39992 0.51416 0.0
C5859 C 0.57112 0.39156 0.50077 0.0
H5860 H 0.86915 0.30148 0.83383 0.0
H5861 H 0.86298 0.25382 0.80968 0.0
H5862 H 0.86932 0.31505 0.80648 0.0
H5863 H 0.86256 0.26737 0.78252 0.0
H5864 H 0.85284 0.30929 0.73857 0.0
H5865 H 0.84587 0.29536 0.7649 0.0
H5866 H 0.89497 0.30546 0.78317 0.0
H5867 H 0.90223 0.31857 0.7571 0.0
C5868 C 0.86709 0.29401 0.82275 0.0
C5869 C 0.866 0.27665 0.82381 0.0
C5870 C 0.86726 0.30172 0.80714 0.0
C5871 C 0.8659 0.2922 0.79245 0.0
C5872 C 0.86345 0.27497 0.79364 0.0
C5873 C 0.8637 0.26726 0.80917 0.0
C5874 C 0.86224 0.30818 0.74804 0.0
C5875 C 0.87809 0.31514 0.74561 0.0
C5876 C 0.85818 0.30041 0.76316 0.0
C5877 C 0.86979 0.2998 0.77615 0.0
C5878 C 0.88571 0.30612 0.77348 0.0
C5879 C 0.88986 0.3135 0.7584 0.0
H5880 H 0.91611 0.67001 0.98157 0.0
H5881 H 0.91492 0.61662 0.97722 0.0
H5882 H 0.93236 0.66838 0.0069 0.0
H5883 H 0.93148 0.61492 1.00266 0.0
H5884 H 0.93283 0.62117 0.06096 0.0
H5885 H 0.92389 0.62015 0.03184 0.0
H5886 H 0.95743 0.66117 0.02082 0.0
H5887 H 0.96598 0.66242 0.04989 0.0
C5888 C 0.91989 0.65795 0.98572 0.0
C5889 C 0.91423 0.64345 0.9775 0.0
C5890 C 0.92921 0.65699 1.00026 0.0
C5891 C 0.933 0.64149 0.00694 0.0
C5892 C 0.92852 0.62702 0.99793 0.0
C5893 C 0.91927 0.628 0.98324 0.0
C5894 C 0.93832 0.62987 0.05224 0.0
C5895 C 0.94989 0.64202 0.05766 0.0
C5896 C 0.93337 0.62918 0.03555 0.0
C5897 C 0.93995 0.6406 0.02401 0.0
C5898 C 0.95199 0.65232 0.02942 0.0
C5899 C 0.95687 0.65305 0.04607 0.0
H5900 H 0.61252 0.65999 0.24246 0.0
H5901 H 0.66056 0.64116 0.25106 0.0
H5902 H 0.61418 0.67466 0.26896 0.0
H5903 H 0.66191 0.65482 0.27817 0.0
H5904 H 0.66061 0.68524 0.32641 0.0
H5905 H 0.66279 0.67765 0.29697 0.0
H5906 H 0.61101 0.66447 0.29571 0.0
H5907 H 0.60886 0.67273 0.32447 0.0
C5908 C 0.62363 0.65942 0.24988 0.0
C5909 C 0.63646 0.64962 0.24476 0.0
C5910 C 0.62451 0.66755 0.2652 0.0
C5911 C 0.63796 0.6655 0.27603 0.0
C5912 C 0.65138 0.65675 0.27023 0.0
C5913 C 0.65066 0.64897 0.25465 0.0
C5914 C 0.64977 0.68071 0.31971 0.0
C5915 C 0.63456 0.67961 0.32763 0.0
C5916 C 0.65098 0.67637 0.30288 0.0
C5917 C 0.63702 0.67073 0.29377 0.0
C5918 C 0.62195 0.66931 0.30201 0.0
C5919 C 0.62072 0.67383 0.31863 0.0
H5920 H 0.87929 0.56546 0.62578 0.0
H5921 H 0.89789 0.51954 0.60742 0.0
H5922 H 0.90683 0.57829 0.62447 0.0
H5923 H 0.92545 0.53225 0.60631 0.0
H5924 H 0.97098 0.56819 0.59497 0.0
H5925 H 0.94386 0.55385 0.59334 0.0
H5926 H 0.93176 0.5745 0.64102 0.0
H5927 H 0.95846 0.5887 0.64249 0.0
C5928 C 0.88921 0.5582 0.62124 0.0
C5929 C 0.88649 0.54147 0.61688 0.0
C5930 C 0.90502 0.56546 0.62062 0.0
C5931 C 0.91843 0.55618 0.61558 0.0
C5932 C 0.91546 0.53974 0.61026 0.0
C5933 C 0.89967 0.53246 0.61096 0.0
C5934 C 0.96264 0.56919 0.60525 0.0
C5935 C 0.96678 0.57947 0.61887 0.0
C5936 C 0.94708 0.56115 0.60428 0.0
C5937 C 0.93547 0.5634 0.61686 0.0
C5938 C 0.94015 0.57289 0.63088 0.0
C5939 C 0.95556 0.58083 0.63184 0.0
H5940 H 0.69978 0.67292 0.83772 0.0
H5941 H 0.67412 0.67384 0.8843 0.0
H5942 H 0.70707 0.70255 0.84087 0.0
H5943 H 0.68138 0.70324 0.8874 0.0
H5944 H 0.70934 0.74638 0.90162 0.0
H5945 H 0.71007 0.71757 0.89261 0.0
H5946 H 0.69318 0.73143 0.84381 0.0
H5947 H 0.69265 0.76028 0.85272 0.0
C5948 C 0.6953 0.67955 0.84837 0.0
C5949 C 0.68649 0.6711 0.86086 0.0
C5950 C 0.69966 0.69641 0.85024 0.0
C5951 C 0.69535 0.70492 0.86468 0.0
C5952 C 0.68538 0.69677 0.87644 0.0
C5953 C 0.68096 0.68003 0.87452 0.0
C5954 C 0.70679 0.74346 0.88868 0.0
C5955 C 0.70037 0.75543 0.87807 0.0
C5956 C 0.70692 0.72693 0.8836 0.0
C5957 C 0.7009 0.7223 0.86779 0.0
C5958 C 0.69757 0.73469 0.85618 0.0
C5959 C 0.69749 0.75128 0.86127 0.0
H5960 H 0.58172 0.41939 0.15861 0.0
H5961 H 0.57736 0.43115 0.10664 0.0
H5962 H 0.55221 0.41562 0.16038 0.0
H5963 H 0.54761 0.42907 0.10851 0.0
H5964 H 0.49661 0.40411 0.11345 0.0
H5965 H 0.52506 0.4124 0.11016 0.0
H5966 H 0.52765 0.42729 0.16189 0.0
H5967 H 0.49947 0.41719 0.16538 0.0
C5968 C 0.57431 0.42122 0.14757 0.0
C5969 C 0.58167 0.42527 0.13245 0.0
C5970 C 0.55732 0.41942 0.1486 0.0
C5971 C 0.54723 0.4223 0.13466 0.0
C5972 C 0.5548 0.42645 0.11949 0.0
C5973 C 0.57186 0.42765 0.11835 0.0
C5974 C 0.50313 0.40965 0.12398 0.0
C5975 C 0.49591 0.40996 0.13969 0.0
C5976 C 0.51959 0.41441 0.12213 0.0
C5977 C 0.52904 0.42011 0.13587 0.0
C5978 C 0.5211 0.42226 0.15115 0.0
C5979 C 0.50481 0.41687 0.15313 0.0
H5980 H 0.79143 0.3347 0.35937 0.0
H5981 H 0.83098 0.3586 0.38735 0.0
H5982 H 0.80702 0.30956 0.35715 0.0
H5983 H 0.84676 0.33339 0.38504 0.0
H5984 H 0.85857 0.27976 0.39814 0.0
H5985 H 0.84424 0.30558 0.39721 0.0
H5986 H 0.83118 0.29629 0.34585 0.0
H5987 H 0.84566 0.27017 0.34674 0.0
C5988 C 0.80363 0.33467 0.36478 0.0
C5989 C 0.80995 0.3486 0.37361 0.0
C5990 C 0.81259 0.32024 0.36347 0.0
C5991 C 0.82809 0.3193 0.37108 0.0
C5992 C 0.83474 0.33356 0.37925 0.0
C5993 C 0.8258 0.34809 0.38045 0.0
C5994 C 0.85259 0.28307 0.38661 0.0
C5995 C 0.85332 0.27276 0.3725 0.0
C5996 C 0.8445 0.29806 0.38605 0.0
C5997 C 0.83676 0.30324 0.37139 0.0
C5998 C 0.83702 0.29272 0.35737 0.0
C5999 C 0.84526 0.27769 0.35789 0.0
H6000 H 0.93862 0.46017 0.86101 0.0
H6001 H 0.91893 0.42214 0.8935 0.0
H6002 H 0.96579 0.44887 0.86392 0.0
H6003 H 0.94626 0.4108 0.89645 0.0
H6004 H 1.00022 0.4004 0.9054 0.0
H6005 H 0.97592 0.41732 0.90666 0.0
H6006 H 0.97592 0.42157 0.85322 0.0
H6007 H 0.99998 0.4046 0.85196 0.0
C6008 C 0.94017 0.44953 0.86898 0.0
C6009 C 0.92668 0.44191 0.87692 0.0
C6010 C 0.95571 0.44307 0.87061 0.0
C6011 C 0.95811 0.42893 0.88034 0.0
C6012 C 0.94477 0.42181 0.88899 0.0
C6013 C 0.92914 0.42821 0.88724 0.0
C6014 C 0.99529 0.40537 0.89399 0.0
C6015 C 0.00197 0.40125 0.87858 0.0
C6016 C 0.98131 0.41488 0.8947 0.0
C6017 C 0.97401 0.42067 0.88004 0.0
C6018 C 0.98135 0.41739 0.86474 0.0
C6019 C 0.99511 0.40767 0.86401 0.0
H6020 H 0.83926 0.67779 0.13731 0.0
H6021 H 0.79187 0.68683 0.11558 0.0
H6022 H 0.84625 0.70766 0.13614 0.0
H6023 H 0.79897 0.71644 0.11413 0.0
H6024 H 0.83302 0.75941 0.09076 0.0
H6025 H 0.82201 0.73139 0.09613 0.0
H6026 H 0.83543 0.73669 0.14791 0.0
H6027 H 0.84612 0.76497 0.14263 0.0
C6028 C 0.83032 0.68617 0.13248 0.0
C6029 C 0.81508 0.68004 0.12648 0.0
C6030 C 0.83426 0.70321 0.13188 0.0
C6031 C 0.82312 0.71427 0.12502 0.0
C6032 C 0.80776 0.70815 0.11942 0.0
C6033 C 0.80373 0.69122 0.12028 0.0
C6034 C 0.83319 0.75476 0.10336 0.0
C6035 C 0.84027 0.76438 0.1163 0.0
C6036 C 0.82694 0.73874 0.10643 0.0
C6037 C 0.828 0.73191 0.12241 0.0
C6038 C 0.83455 0.74171 0.13548 0.0
C6039 C 0.84047 0.75791 0.13249 0.0
H6040 H 0.59104 0.56862 0.3642 0.0
H6041 H 0.58945 0.55191 0.41502 0.0
H6042 H 0.5613 0.56715 0.36265 0.0
H6043 H 0.55941 0.55 0.4134 0.0
H6044 H 0.50515 0.5687 0.40279 0.0
H6045 H 0.53409 0.56603 0.4095 0.0
H6046 H 0.54143 0.54371 0.36145 0.0
H6047 H 0.51263 0.54699 0.35453 0.0
C6048 C 0.58425 0.56496 0.37515 0.0
C6049 C 0.59244 0.56038 0.3897 0.0
C6050 C 0.56725 0.56381 0.37419 0.0
C6051 C 0.55807 0.55783 0.3877 0.0
C6052 C 0.5662 0.55443 0.40273 0.0
C6053 C 0.58334 0.55571 0.40372 0.0
C6054 C 0.51277 0.56245 0.394 0.0
C6055 C 0.50674 0.55821 0.37805 0.0
C6056 C 0.52941 0.56109 0.39779 0.0
C6057 C 0.5401 0.55527 0.38574 0.0
C6058 C 0.53353 0.5488 0.37075 0.0
C6059 C 0.517 0.55036 0.36689 0.0
H6060 H 0.68665 0.36116 0.62843 0.0
H6061 H 0.73375 0.33876 0.627 0.0
H6062 H 0.67347 0.33356 0.63225 0.0
H6063 H 0.72068 0.31133 0.63122 0.0
H6064 H 0.68481 0.26662 0.65238 0.0
H6065 H 0.70072 0.29331 0.65254 0.0
H6066 H 0.67341 0.30909 0.60962 0.0
H6067 H 0.65816 0.28266 0.6091 0.0
C6068 C 0.6942 0.35043 0.62945 0.0
C6069 C 0.71118 0.35206 0.62736 0.0
C6070 C 0.68669 0.33463 0.63154 0.0
C6071 C 0.69608 0.32028 0.63195 0.0
C6072 C 0.71316 0.32212 0.63104 0.0
C6073 C 0.72061 0.33783 0.62857 0.0
C6074 C 0.68269 0.27558 0.64268 0.0
C6075 C 0.67028 0.27253 0.63071 0.0
C6076 C 0.69157 0.29093 0.6429 0.0
C6077 C 0.68792 0.30345 0.63137 0.0
C6078 C 0.6762 0.29989 0.61891 0.0
C6079 C 0.66763 0.28465 0.61852 0.0
H6080 H 0.60892 0.01227 0.59589 0.0
H6081 H 0.65901 1.0003 0.60705 0.0
H6082 H 0.60372 0.984 0.58529 0.0
H6083 H 0.65363 0.97222 0.59686 0.0
H6084 H 0.63143 0.91972 0.60236 0.0
H6085 H 0.63426 0.94909 0.60999 0.0
H6086 H 0.61424 0.96267 0.56233 0.0
H6087 H 0.61164 0.93325 0.55456 0.0
C6088 C 0.61893 0.00382 0.59569 0.0
C6089 C 0.63434 0.00854 0.60252 0.0
C6090 C 0.61589 0.9876 0.58974 0.0
C6091 C 0.62816 0.97585 0.59071 0.0
C6092 C 0.64385 0.98094 0.59636 0.0
C6093 C 0.64694 0.9971 0.60206 0.0
C6094 C 0.62735 0.92895 0.59364 0.0
C6095 C 0.62137 0.92425 0.57787 0.0
C6096 C 0.62909 0.94574 0.59794 0.0
C6097 C 0.62467 0.95812 0.58664 0.0
C6098 C 0.61776 0.95337 0.57124 0.0
C6099 C 0.61626 0.93657 0.56683 0.0
H6100 H 0.12784 0.48231 0.4235 0.0
H6101 H 0.16345 0.52186 0.41407 0.0
H6102 H 0.10895 0.50263 0.43439 0.0
H6103 H 0.1447 0.54199 0.4248 0.0
H6104 H 0.10169 0.5736 0.41733 0.0
H6105 H 0.11721 0.54943 0.40993 0.0
H6106 H 0.10577 0.527 0.45715 0.0
H6107 H 0.0902 0.5513 0.46466 0.0
C6108 C 0.13192 0.4952 0.42448 0.0
C6109 C 0.14707 0.50056 0.41792 0.0
C6110 C 0.12103 0.50683 0.43048 0.0
C6111 C 0.12522 0.52388 0.42989 0.0
C6112 C 0.14103 0.52895 0.42495 0.0
C6113 C 0.15185 0.51741 0.41907 0.0
C6114 C 0.10198 0.56329 0.42591 0.0
C6115 C 0.09491 0.56441 0.44164 0.0
C6116 C 0.11103 0.54955 0.42176 0.0
C6117 C 0.11305 0.53662 0.4332 0.0
C6118 C 0.10452 0.53689 0.44821 0.0
C6119 C 0.09554 0.55074 0.45243 0.0
H6120 H 0.7681 0.86956 0.67397 0.0
H6121 H 0.76758 0.92145 0.68719 0.0
H6122 H 0.74043 0.86555 0.68407 0.0
H6123 H 0.74021 0.91728 0.69841 0.0
H6124 H 0.68567 0.91245 0.68944 0.0
H6125 H 0.71498 0.91438 0.68485 0.0
H6126 H 0.71947 0.86447 0.70354 0.0
H6127 H 0.68981 0.86236 0.70719 0.0
C6128 C 0.76241 0.87993 0.67989 0.0
C6129 C 0.76993 0.89587 0.67963 0.0
C6130 C 0.74641 0.87765 0.68562 0.0
C6131 C 0.73779 0.89121 0.69155 0.0
C6132 C 0.74621 0.90668 0.69328 0.0
C6133 C 0.76204 0.90904 0.68719 0.0
C6134 C 0.69293 0.90183 0.69234 0.0
C6135 C 0.68553 0.88723 0.69853 0.0
C6136 C 0.7098 0.90301 0.69001 0.0
C6137 C 0.71977 0.88972 0.69419 0.0
C6138 C 0.71224 0.87494 0.70012 0.0
C6139 C 0.69525 0.87368 0.70216 0.0
H6140 H 0.33779 0.53296 0.92502 0.0
H6141 H 0.38592 0.53239 0.90376 0.0
H6142 H 0.34318 0.50751 0.94003 0.0
H6143 H 0.39092 0.50619 0.91745 0.0
H6144 H 0.39666 0.45807 0.94623 0.0
H6145 H 0.39505 0.48751 0.93886 0.0
H6146 H 0.3427 0.48055 0.93146 0.0
H6147 H 0.34434 0.45196 0.93978 0.0
C6148 C 0.34969 0.52756 0.92392 0.0
C6149 C 0.36146 0.53462 0.91335 0.0
C6150 C 0.35271 0.51278 0.93223 0.0
C6151 C 0.36727 0.50432 0.92949 0.0
C6152 C 0.37958 0.51221 0.91996 0.0
C6153 C 0.37674 0.52731 0.91211 0.0
C6154 C 0.38489 0.463 0.94302 0.0
C6155 C 0.37063 0.45284 0.94361 0.0
C6156 C 0.38391 0.47985 0.93881 0.0
C6157 C 0.36868 0.48667 0.93484 0.0
C6158 C 0.35458 0.47615 0.93506 0.0
C6159 C 0.35553 0.45958 0.93958 0.0
H6160 H 0.30991 0.65321 0.70737 0.0
H6161 H 0.3206 0.6294 0.66083 0.0
H6162 H 0.28055 0.64697 0.7028 0.0
H6163 H 0.29139 0.62288 0.6565 0.0
H6164 H 0.24442 0.59484 0.6642 0.0
H6165 H 0.27124 0.6029 0.67585 0.0
H6166 H 0.25742 0.654 0.67732 0.0
H6167 H 0.23053 0.64588 0.66536 0.0
C6168 C 0.30594 0.64687 0.69606 0.0
C6169 C 0.31747 0.64178 0.68441 0.0
C6170 C 0.28921 0.64327 0.69352 0.0
C6171 C 0.28384 0.63421 0.67948 0.0
C6172 C 0.29532 0.62967 0.66756 0.0
C6173 C 0.31198 0.63354 0.66994 0.0
C6174 C 0.24675 0.60763 0.66798 0.0
C6175 C 0.23539 0.61972 0.66412 0.0
C6176 C 0.26218 0.61228 0.67435 0.0
C6177 C 0.26642 0.62908 0.67712 0.0
C6178 C 0.25438 0.64096 0.67525 0.0
C6179 C 0.23892 0.6363 0.66869 0.0
H6180 H 0.90947 0.07264 0.04649 0.0
H6181 H 0.87935 0.09314 0.0846 0.0
H6182 H 0.89862 0.04483 0.05288 0.0
H6183 H 0.86875 0.06531 0.09126 0.0
H6184 H 0.88359 0.99603 0.081 0.0
H6185 H 0.89656 0.02252 0.07335 0.0
H6186 H 0.84992 0.04581 0.07654 0.0
H6187 H 0.83696 0.01942 0.08443 0.0
C6188 C 0.90091 0.07113 0.05658 0.0
C6189 C 0.89516 0.08504 0.06498 0.0
C6190 C 0.89463 0.05521 0.06019 0.0
C6191 C 0.8825 0.05292 0.07226 0.0
C6192 C 0.87772 0.06673 0.08153 0.0
C6193 C 0.88399 0.08264 0.07792 0.0
C6194 C 0.87598 0.00667 0.07958 0.0
C6195 C 0.85923 0.00561 0.08352 0.0
C6196 C 0.88347 0.02191 0.07532 0.0
C6197 C 0.87437 0.03636 0.07485 0.0
C6198 C 0.85738 0.03499 0.07735 0.0
C6199 C 0.84989 0.01979 0.0816 0.0
H6200 H 0.67595 0.15406 0.83846 0.0
H6201 H 0.69443 0.16148 0.78893 0.0
H6202 H 0.70172 0.1418 0.84669 0.0
H6203 H 0.7204 0.1494 0.79732 0.0
H6204 H 0.76811 0.13841 0.83488 0.0
H6205 H 0.74567 0.15341 0.82176 0.0
H6206 H 0.71203 0.11277 0.83329 0.0
H6207 H 0.73428 0.09782 0.84607 0.0
C6208 C 0.68571 0.1536 0.8295 0.0
C6209 C 0.68317 0.15866 0.81306 0.0
C6210 C 0.70039 0.14644 0.83415 0.0
C6211 C 0.71288 0.14443 0.82253 0.0
C6212 C 0.71092 0.15077 0.80647 0.0
C6213 C 0.6961 0.15772 0.80173 0.0
C6214 C 0.7561 0.13235 0.83376 0.0
C6215 C 0.7529 0.11692 0.84135 0.0
C6216 C 0.74324 0.14103 0.82651 0.0
C6217 C 0.72711 0.13438 0.82696 0.0
C6218 C 0.72431 0.11828 0.83309 0.0
C6219 C 0.73708 0.10962 0.84015 0.0
H6220 H 0.79067 0.89602 0.28344 0.0
H6221 H 0.80425 0.86778 0.3266 0.0
H6222 H 0.76214 0.89477 0.29207 0.0
H6223 H 0.77558 0.86647 0.33524 0.0
H6224 H 0.72615 0.91336 0.33418 0.0
H6225 H 0.74998 0.90892 0.31704 0.0
H6226 H 0.74616 0.85641 0.32726 0.0
H6227 H 0.72209 0.86083 0.34427 0.0
C6228 C 0.78749 0.88931 0.29464 0.0
C6229 C 0.79965 0.88215 0.30449 0.0
C6230 C 0.77117 0.88859 0.29954 0.0
C6231 C 0.76666 0.88055 0.3143 0.0
C6232 C 0.7787 0.87258 0.32368 0.0
C6233 C 0.7951 0.87343 0.31884 0.0
C6234 C 0.72995 0.90078 0.33214 0.0
C6235 C 0.72233 0.88747 0.34057 0.0
C6236 C 0.74362 0.89823 0.32238 0.0
C6237 C 0.75005 0.88235 0.32107 0.0
C6238 C 0.74152 0.86879 0.32823 0.0
C6239 C 0.72763 0.87131 0.33777 0.0
H6240 H 0.39868 0.41406 0.00478 0.0
H6241 H 0.42193 0.36981 0.98852 0.0
H6242 H 0.41308 0.41277 0.03133 0.0
H6243 H 0.43742 0.36906 0.01453 0.0
H6244 H 0.44011 0.35611 0.06927 0.0
H6245 H 0.43085 0.36083 0.04099 0.0
H6246 H 0.4354 0.41388 0.04926 0.0
H6247 H 0.44368 0.40891 0.078 0.0
C6248 C 0.40759 0.40457 0.0066 0.0
C6249 C 0.40932 0.39209 0.99465 0.0
C6250 C 0.41583 0.40374 0.02188 0.0
C6251 C 0.42619 0.39055 0.02537 0.0
C6252 C 0.42912 0.37906 0.01261 0.0
C6253 C 0.42053 0.37965 0.99754 0.0
C6254 C 0.43909 0.36876 0.065 0.0
C6255 C 0.44248 0.38213 0.07579 0.0
C6256 C 0.43399 0.37153 0.04868 0.0
C6257 C 0.4325 0.38779 0.0426 0.0
C6258 C 0.43617 0.40119 0.05345 0.0
C6259 C 0.44096 0.39837 0.06993 0.0
H6260 H 0.35304 0.66906 0.73666 0.0
H6261 H 0.39917 0.69449 0.72695 0.0
H6262 H 0.35043 0.68491 0.76225 0.0
H6263 H 0.3961 0.71142 0.75181 0.0
H6264 H 0.40208 0.71271 0.80762 0.0
H6265 H 0.40037 0.70359 0.77909 0.0
H6266 H 0.3478 0.70843 0.77949 0.0
H6267 H 0.34962 0.7169 0.80881 0.0
C6268 C 0.36217 0.67873 0.73961 0.0
C6269 C 0.37629 0.68068 0.72999 0.0
C6270 C 0.36071 0.68782 0.75429 0.0
C6271 C 0.37328 0.69915 0.75939 0.0
C6272 C 0.38646 0.70238 0.74859 0.0
C6273 C 0.38814 0.69294 0.7342 0.0
C6274 C 0.39014 0.71187 0.80163 0.0
C6275 C 0.37597 0.71545 0.81038 0.0
C6276 C 0.38916 0.70687 0.78512 0.0
C6277 C 0.37397 0.70559 0.77675 0.0
C6278 C 0.35971 0.70925 0.78553 0.0
C6279 C 0.3607 0.71407 0.80229 0.0
H6280 H 0.03198 0.59928 0.5814 0.0
H6281 H 0.00697 0.64366 0.56819 0.0
H6282 H 0.0438 0.59852 0.55343 0.0
H6283 H 0.01792 0.64254 0.54044 0.0
H6284 H 0.05941 0.65096 0.50386 0.0
H6285 H 0.04356 0.64865 0.52897 0.0
H6286 H 0.04043 0.59532 0.52334 0.0
H6287 H 0.05693 0.59767 0.49816 0.0
C6288 C 0.02878 0.60865 0.57245 0.0
C6289 C 0.01879 0.62167 0.57709 0.0
C6290 C 0.03546 0.6082 0.5564 0.0
C6291 C 0.03207 0.62066 0.54467 0.0
C6292 C 0.02125 0.63301 0.54918 0.0
C6293 C 0.01488 0.63361 0.56515 0.0
C6294 C 0.05506 0.63873 0.50771 0.0
C6295 C 0.05945 0.62452 0.4989 0.0
C6296 C 0.04589 0.63738 0.52219 0.0
C6297 C 0.04068 0.62177 0.52835 0.0
C6298 C 0.04438 0.60754 0.51912 0.0
C6299 C 0.05361 0.6089 0.50451 0.0
H6300 H 0.15743 0.33208 0.33526 0.0
H6301 H 0.17112 0.28643 0.31183 0.0
H6302 H 0.14665 0.34175 0.30874 0.0
H6303 H 0.16028 0.29611 0.28526 0.0
H6304 H 0.15179 0.3319 0.23903 0.0
H6305 H 0.16399 0.31912 0.26343 0.0
H6306 H 0.12164 0.33095 0.29213 0.0
H6307 H 0.10938 0.34367 0.26788 0.0
C6308 C 0.15848 0.3243 0.32435 0.0
C6309 C 0.16498 0.3085 0.32554 0.0
C6310 C 0.15214 0.32972 0.30926 0.0
C6311 C 0.15231 0.31946 0.29511 0.0
C6312 C 0.15992 0.30417 0.29603 0.0
C6313 C 0.16616 0.29869 0.31118 0.0
C6314 C 0.14483 0.33131 0.25038 0.0
C6315 C 0.12974 0.33907 0.2516 0.0
C6316 C 0.15189 0.32409 0.26437 0.0
C6317 C 0.14395 0.32458 0.27971 0.0
C6318 C 0.1282 0.33089 0.28052 0.0
C6319 C 0.12112 0.33801 0.26658 0.0
H6320 H 0.42404 0.60272 0.51415 0.0
H6321 H 0.43609 0.65141 0.49453 0.0
H6322 H 0.43838 0.59005 0.49116 0.0
H6323 H 0.45087 0.63865 0.47185 0.0
H6324 H 0.48337 0.60881 0.43814 0.0
H6325 H 0.47562 0.61702 0.4661 0.0
H6326 H 0.42775 0.59378 0.4584 0.0
H6327 H 0.43533 0.58589 0.43012 0.0
C6328 C 0.43034 0.61074 0.50534 0.0
C6329 C 0.42893 0.62806 0.50604 0.0
C6330 C 0.43841 0.60345 0.49216 0.0
C6331 C 0.44554 0.61342 0.4798 0.0
C6332 C 0.44547 0.63076 0.48134 0.0
C6333 C 0.43706 0.63804 0.49429 0.0
C6334 C 0.47128 0.60517 0.44252 0.0
C6335 C 0.45984 0.59687 0.43199 0.0
C6336 C 0.46692 0.60986 0.45849 0.0
C6337 C 0.45116 0.60599 0.46427 0.0
C6338 C 0.44005 0.59673 0.45416 0.0
C6339 C 0.44432 0.59229 0.43803 0.0
H6340 H 0.15025 0.72817 0.18046 0.0
H6341 H 0.09971 0.71086 0.17851 0.0
H6342 H 0.15194 0.71983 0.2098 0.0
H6343 H 0.1014 0.70227 0.2073 0.0
H6344 H 0.10022 0.70232 0.26117 0.0
H6345 H 0.10274 0.71526 0.234 0.0
H6346 H 0.15115 0.69609 0.2292 0.0
H6347 H 0.14876 0.68368 0.25686 0.0
C6348 C 0.13961 0.72235 0.18622 0.0
C6349 C 0.1248 0.72029 0.17726 0.0
C6350 C 0.14054 0.71763 0.20302 0.0
C6351 C 0.12667 0.71079 0.21111 0.0
C6352 C 0.11217 0.70804 0.20175 0.0
C6353 C 0.11125 0.71278 0.18514 0.0
C6354 C 0.11169 0.70154 0.25463 0.0
C6355 C 0.12436 0.69218 0.2612 0.0
C6356 C 0.11304 0.70867 0.2389 0.0
C6357 C 0.12695 0.70629 0.22913 0.0
C6358 C 0.14025 0.69817 0.23632 0.0
C6359 C 0.13897 0.6912 0.25226 0.0
H6360 H 0.08653 0.39016 0.02494 0.0
H6361 H 0.0904 0.33768 0.01553 0.0
H6362 H 0.0686 0.39237 1.00053 0.0
H6363 H 0.07267 0.33987 0.99129 0.0
H6364 H 0.06464 0.38918 0.94137 0.0
H6365 H 0.07519 0.38968 0.97 0.0
H6366 H 0.04505 0.34612 0.98111 0.0
H6367 H 0.03484 0.34545 0.95262 0.0
C6368 C 0.08313 0.37903 0.01797 0.0
C6369 C 0.08987 0.36376 0.02202 0.0
C6370 C 0.07303 0.38034 0.00394 0.0
C6371 C 0.06937 0.36633 0.99397 0.0
C6372 C 0.07516 0.35086 0.99881 0.0
C6373 C 0.08536 0.3496 0.01265 0.0
C6374 C 0.06016 0.37989 0.95004 0.0
C6375 C 0.04919 0.36712 0.9448 0.0
C6376 C 0.06605 0.38025 0.96643 0.0
C6377 C 0.06099 0.36785 0.97771 0.0
C6378 C 0.0493 0.35568 0.97262 0.0
C6379 C 0.0435 0.3553 0.95631 0.0
H6380 H 0.34092 0.35983 0.75212 0.0
H6381 H 0.39092 0.34502 0.75679 0.0
H6382 H 0.33926 0.34807 0.72422 0.0
H6383 H 0.38905 0.33212 0.72942 0.0
H6384 H 0.39087 0.33489 0.6739 0.0
H6385 H 0.38989 0.3428 0.70292 0.0
H6386 H 0.33881 0.3268 0.70437 0.0
H6387 H 0.33973 0.31983 0.67476 0.0
C6388 C 0.3513 0.35331 0.74745 0.0
C6389 C 0.36606 0.3533 0.75653 0.0
C6390 C 0.35039 0.34662 0.73139 0.0
C6391 C 0.36417 0.33953 0.72427 0.0
C6392 C 0.37838 0.33805 0.73417 0.0
C6393 C 0.3794 0.34514 0.75 0.0
C6394 C 0.37939 0.33323 0.68041 0.0
C6395 C 0.36537 0.32681 0.67215 0.0
C6396 C 0.37886 0.3375 0.69716 0.0
C6397 C 0.36436 0.33508 0.70625 0.0
C6398 C 0.35018 0.32891 0.69783 0.0
C6399 C 0.35067 0.32493 0.68087 0.0
H6400 H 0.11981 0.45727 0.40305 0.0
H6401 H 0.10749 0.45449 0.35085 0.0
H6402 H 0.09151 0.44912 0.40985 0.0
H6403 H 0.07946 0.44604 0.35752 0.0
H6404 H 0.02728 0.4419 0.37125 0.0
H6405 H 0.05429 0.45578 0.36868 0.0
H6406 H 0.07275 0.4256 0.40847 0.0
H6407 H 0.04582 0.41218 0.41119 0.0
C6408 C 0.11111 0.45471 0.39304 0.0
C6409 C 0.11588 0.45649 0.37642 0.0
C6410 C 0.09486 0.45012 0.39692 0.0
C6411 C 0.08304 0.44717 0.38425 0.0
C6412 C 0.08802 0.44865 0.36764 0.0
C6413 C 0.10418 0.45325 0.36379 0.0
C6414 C 0.03692 0.43884 0.37994 0.0
C6415 C 0.03443 0.42601 0.39145 0.0
C6416 C 0.05251 0.44653 0.37827 0.0
C6417 C 0.06586 0.44155 0.38811 0.0
C6418 C 0.06286 0.42982 0.40068 0.0
C6419 C 0.04736 0.42214 0.40229 0.0
H6420 H 0.30512 0.33375 0.16255 0.0
H6421 H 0.31677 0.3324 0.11045 0.0
H6422 H 0.29828 0.30393 0.16182 0.0
H6423 H 0.31059 0.30272 0.10975 0.0
H6424 H 0.29089 0.25431 0.10446 0.0
H6425 H 0.28759 0.28361 0.11044 0.0
H6426 H 0.30974 0.27717 0.15886 0.0
H6427 H 0.31209 0.24785 0.15322 0.0
C6428 C 0.30664 0.32696 0.15107 0.0
C6429 C 0.31155 0.33528 0.13656 0.0
C6430 C 0.30254 0.30994 0.1506 0.0
C6431 C 0.30336 0.301 0.13561 0.0
C6432 C 0.30914 0.3093 0.12136 0.0
C6433 C 0.31306 0.32624 0.12181 0.0
C6434 C 0.294 0.25894 0.11679 0.0
C6435 C 0.30221 0.24894 0.12815 0.0
C6436 C 0.29251 0.27583 0.12009 0.0
C6437 C 0.29932 0.28288 0.13473 0.0
C6438 C 0.30466 0.27224 0.14731 0.0
C6439 C 0.30582 0.25528 0.14412 0.0
H6440 H 0.41733 0.60329 0.86768 0.0
H6441 H 0.42702 0.55375 0.88451 0.0
H6442 H 0.44679 0.60929 0.86555 0.0
H6443 H 0.45656 0.55992 0.88265 0.0
H6444 H 0.50705 0.59496 0.89233 0.0
H6445 H 0.47903 0.58382 0.89624 0.0
H6446 H 0.46783 0.59358 0.8448 0.0
H6447 H 0.49567 0.60432 0.8407 0.0
C6448 C 0.42577 0.59381 0.87119 0.0
C6449 C 0.42 0.57805 0.87614 0.0
C6450 C 0.44255 0.59719 0.86989 0.0
C6451 C 0.45378 0.58495 0.87377 0.0
C6452 C 0.44806 0.56948 0.87957 0.0
C6453 C 0.43124 0.56599 0.88061 0.0
C6454 C 0.4988 0.59411 0.88172 0.0
C6455 C 0.50345 0.60073 0.86627 0.0
C6456 C 0.48278 0.58787 0.884 0.0
C6457 C 0.47134 0.5883 0.87089 0.0
C6458 C 0.47644 0.59345 0.85513 0.0
C6459 C 0.49238 0.5995 0.8528 0.0
H6460 H 0.21395 0.67495 0.62214 0.0
H6461 H 0.17188 0.64244 0.63074 0.0
H6462 H 0.19799 0.69898 0.62876 0.0
H6463 H 0.15564 0.66674 0.63725 0.0
H6464 H 0.13009 0.71518 0.62007 0.0
H6465 H 0.14564 0.6901 0.61966 0.0
H6466 H 0.18269 0.71378 0.65114 0.0
H6467 H 0.16686 0.7392 0.65169 0.0
C6468 C 0.20128 0.67294 0.62565 0.0
C6469 C 0.19413 0.65681 0.62582 0.0
C6470 C 0.19216 0.68674 0.62957 0.0
C6471 C 0.17552 0.68485 0.63353 0.0
C6472 C 0.16843 0.66863 0.63418 0.0
C6473 C 0.1777 0.65472 0.63052 0.0
C6474 C 0.14156 0.71513 0.62696 0.0
C6475 C 0.14737 0.72937 0.6357 0.0
C6476 C 0.15037 0.7006 0.62688 0.0
C6477 C 0.16541 0.69985 0.63537 0.0
C6478 C 0.17115 0.71397 0.64441 0.0
C6479 C 0.16211 0.72853 0.64474 0.0
H6480 H 0.99112 0.59513 0.14833 0.0
H6481 H 0.00468 0.6132 0.09996 0.0
H6482 H 0.01538 0.57845 0.14926 0.0
H6483 H 0.02975 0.5979 0.10133 0.0
H6484 H 0.07375 0.56573 0.10579 0.0
H6485 H 0.04594 0.57533 0.1017 0.0
H6486 H 0.04233 0.58328 0.15472 0.0
H6487 H 0.06937 0.57255 0.15864 0.0
C6488 C 0.99918 0.5952 0.13774 0.0
C6489 C 0.99599 0.60524 0.12401 0.0
C6490 C 0.01332 0.58594 0.13837 0.0
C6491 C 0.025 0.58713 0.12561 0.0
C6492 C 0.02116 0.59644 0.11139 0.0
C6493 C 0.00671 0.60524 0.11054 0.0
C6494 C 0.06686 0.56946 0.11649 0.0
C6495 C 0.07365 0.5684 0.13251 0.0
C6496 C 0.05092 0.57504 0.1142 0.0
C6497 C 0.04159 0.58005 0.12787 0.0
C6498 C 0.04868 0.57908 0.14386 0.0
C6499 C 0.06436 0.57313 0.14615 0.0
H6500 H 0.16341 0.24162 0.91335 0.0
H6501 H 0.15516 0.23694 0.8605 0.0
H6502 H 0.17472 0.26952 0.90963 0.0
H6503 H 0.16692 0.26508 0.8566 0.0
H6504 H 0.20298 0.31591 0.8993 0.0
H6505 H 0.1966 0.28632 0.89914 0.0
H6506 H 0.15816 0.29343 0.86282 0.0
H6507 H 0.16512 0.32333 0.86253 0.0
C6508 C 0.16457 0.2464 0.90084 0.0
C6509 C 0.15852 0.23708 0.88722 0.0
C6510 C 0.17105 0.26244 0.89868 0.0
C6511 C 0.17164 0.26964 0.88281 0.0
C6512 C 0.16645 0.25996 0.86901 0.0
C6513 C 0.16001 0.24376 0.87119 0.0
C6514 C 0.19318 0.31119 0.89122 0.0
C6515 C 0.18437 0.32194 0.8811 0.0
C6516 C 0.18952 0.29419 0.89114 0.0
C6517 C 0.17676 0.28746 0.88111 0.0
C6518 C 0.16818 0.29818 0.87059 0.0
C6519 C 0.17201 0.3153 0.87054 0.0
H6520 H 0.50232 0.45078 0.60845 0.0
H6521 H 0.49275 0.45521 0.66089 0.0
H6522 H 0.47444 0.45907 0.60215 0.0
H6523 H 0.46492 0.46325 0.65453 0.0
H6524 H 0.41558 0.43826 0.6356 0.0
H6525 H 0.44533 0.43873 0.6395 0.0
H6526 H 0.45007 0.48215 0.60852 0.0
H6527 H 0.4202 0.48191 0.60483 0.0
C6528 C 0.49462 0.45444 0.61859 0.0
C6529 C 0.49953 0.45204 0.63517 0.0
C6530 C 0.47861 0.45899 0.61497 0.0
C6531 C 0.46755 0.46123 0.62791 0.0
C6532 C 0.47324 0.46125 0.64439 0.0
C6533 C 0.48919 0.45683 0.648 0.0
C6534 C 0.42299 0.44774 0.62944 0.0
C6535 C 0.41569 0.46006 0.61998 0.0
C6536 C 0.43993 0.44813 0.6318 0.0
C6537 C 0.4498 0.4607 0.62456 0.0
C6538 C 0.44261 0.47249 0.61433 0.0
C6539 C 0.42562 0.47226 0.61219 0.0
H6540 H 0.26748 0.66482 0.37414 0.0
H6541 H 0.31536 0.64431 0.37834 0.0
H6542 H 0.2799 0.69283 0.37244 0.0
H6543 H 0.32785 0.67247 0.37703 0.0
H6544 H 0.34023 0.72328 0.40047 0.0
H6545 H 0.32532 0.69659 0.39913 0.0
H6546 H 0.30073 0.71186 0.35434 0.0
H6547 H 0.31615 0.7387 0.35547 0.0
C6548 C 0.28071 0.66631 0.37432 0.0
C6549 C 0.2905 0.65242 0.37632 0.0
C6550 C 0.28779 0.68234 0.37336 0.0
C6551 C 0.30481 0.68487 0.37481 0.0
C6552 C 0.31466 0.67089 0.37602 0.0
C6553 C 0.30757 0.65477 0.3766 0.0
C6554 C 0.3312 0.72119 0.39064 0.0
C6555 C 0.32919 0.73317 0.3782 0.0
C6556 C 0.32291 0.70578 0.38971 0.0
C6557 C 0.31221 0.70197 0.3764 0.0
C6558 C 0.30904 0.71444 0.36467 0.0
C6559 C 0.3176 0.7299 0.36547 0.0
H6560 H 0.39113 0.98612 0.41484 0.0
H6561 H 0.34328 0.00335 0.40124 0.0
H6562 H 0.39788 0.01307 0.42781 0.0
H6563 H 0.35026 0.03015 0.41387 0.0
H6564 H 0.37967 0.07959 0.40947 0.0
H6565 H 0.37473 0.05058 0.4015 0.0
H6566 H 0.38586 0.03527 0.45154 0.0
H6567 H 0.39055 0.06445 0.45968 0.0
C6568 C 0.38188 0.99541 0.41504 0.0
C6569 C 0.36677 0.99269 0.40672 0.0
C6570 C 0.38581 0.01083 0.42239 0.0
C6571 C 0.37471 0.02368 0.42139 0.0
C6572 C 0.3591 0.02046 0.41447 0.0
C6573 C 0.35511 0.00508 0.40733 0.0
C6574 C 0.38138 0.07003 0.41869 0.0
C6575 C 0.38538 0.0742 0.43519 0.0
C6576 C 0.37843 0.05349 0.41418 0.0
C6577 C 0.37968 0.04084 0.42602 0.0
C6578 C 0.38477 0.04487 0.44226 0.0
C6579 C 0.38748 0.0615 0.44686 0.0
H6580 H 0.91186 0.45159 0.53994 0.0
H6581 H 0.89711 0.42851 0.58597 0.0
H6582 H 0.89629 0.47604 0.54696 0.0
H6583 H 0.88157 0.45281 0.59287 0.0
H6584 H 0.83671 0.48234 0.58736 0.0
H6585 H 0.85522 0.46168 0.57717 0.0
H6586 H 0.89261 0.49998 0.56976 0.0
H6587 H 0.87397 0.5208 0.58009 0.0
C6588 C 0.90576 0.45197 0.5518 0.0
C6589 C 0.90558 0.43809 0.56235 0.0
C6590 C 0.89678 0.46592 0.55574 0.0
C6591 C 0.88739 0.46608 0.57021 0.0
C6592 C 0.88842 0.45282 0.58143 0.0
C6593 C 0.8975 0.43899 0.57759 0.0
C6594 C 0.84864 0.48646 0.58293 0.0
C6595 C 0.8539 0.50315 0.58451 0.0
C6596 C 0.85933 0.47461 0.57736 0.0
C6597 C 0.87549 0.4792 0.57319 0.0
C6598 C 0.88025 0.49613 0.57305 0.0
C6599 C 0.8695 0.50806 0.57872 0.0
H6600 H 0.32595 0.10111 0.32583 0.0
H6601 H 0.32295 0.15347 0.31591 0.0
H6602 H 0.29691 0.09947 0.33198 0.0
H6603 H 0.29349 0.15179 0.32139 0.0
H6604 H 0.24455 0.14185 0.35056 0.0
H6605 H 0.27271 0.14725 0.34197 0.0
H6606 H 0.27197 0.09989 0.3166 0.0
H6607 H 0.24411 0.09419 0.32596 0.0
C6608 C 0.31903 0.11232 0.32515 0.0
C6609 C 0.32659 0.1274 0.32043 0.0
C6610 C 0.30234 0.11135 0.32838 0.0
C6611 C 0.29275 0.12539 0.32665 0.0
C6612 C 0.30051 0.14072 0.32275 0.0
C6613 C 0.31736 0.14173 0.31972 0.0
C6614 C 0.25022 0.13288 0.34262 0.0
C6615 C 0.24224 0.11754 0.339 0.0
C6616 C 0.26641 0.13593 0.33779 0.0
C6617 C 0.27477 0.12377 0.32906 0.0
C6618 C 0.26608 0.10925 0.32386 0.0
C6619 C 0.25003 0.10608 0.32894 0.0
H6620 H 0.67019 0.47292 0.08307 0.0
H6621 H 0.61829 0.46237 0.08783 0.0
H6622 H 0.66454 0.49868 0.06887 0.0
H6623 H 0.6126 0.48821 0.07349 0.0
H6624 H 0.65023 0.54168 0.03789 0.0
H6625 H 0.65279 0.5126 0.045 0.0
H6626 H 0.6166 0.51755 0.08322 0.0
H6627 H 0.6138 0.54682 0.07579 0.0
C6628 C 0.65756 0.47577 0.08045 0.0
C6629 C 0.64471 0.46563 0.08661 0.0
C6630 C 0.6543 0.4906 0.07237 0.0
C6631 C 0.6381 0.49564 0.07035 0.0
C6632 C 0.6252 0.48477 0.07515 0.0
C6633 C 0.62848 0.46982 0.08309 0.0
C6634 C 0.64272 0.53655 0.04775 0.0
C6635 C 0.63193 0.54653 0.05643 0.0
C6636 C 0.6442 0.51988 0.0518 0.0
C6637 C 0.63495 0.51276 0.06469 0.0
C6638 C 0.62375 0.52262 0.07307 0.0
C6639 C 0.62224 0.53939 0.06896 0.0
H6640 H 0.68248 0.35801 0.33804 0.0
H6641 H 0.68837 0.38691 0.29332 0.0
H6642 H 0.71207 0.36103 0.34344 0.0
H6643 H 0.71772 0.3901 0.29883 0.0
H6644 H 0.75958 0.41226 0.33658 0.0
H6645 H 0.73324 0.40586 0.32286 0.0
H6646 H 0.74015 0.35358 0.33028 0.0
H6647 H 0.76667 0.36006 0.34364 0.0
C6648 C 0.69011 0.36484 0.32932 0.0
C6649 C 0.68317 0.37228 0.31534 0.0
C6650 C 0.70701 0.36648 0.33232 0.0
C6651 C 0.71714 0.37576 0.32148 0.0
C6652 C 0.71019 0.3829 0.30735 0.0
C6653 C 0.6934 0.38106 0.30424 0.0
C6654 C 0.75593 0.3994 0.33427 0.0
C6655 C 0.76525 0.38663 0.34073 0.0
C6656 C 0.74076 0.39572 0.32666 0.0
C6657 C 0.7346 0.37923 0.32578 0.0
C6658 C 0.7446 0.36639 0.33094 0.0
C6659 C 0.75988 0.37007 0.33827 0.0
H6660 H 0.10271 0.93789 0.96992 0.0
H6661 H 0.11729 0.91486 0.92417 0.0
H6662 H 0.11296 0.96486 0.95979 0.0
H6663 H 0.12757 0.94175 0.91411 0.0
H6664 H 0.12099 0.01143 0.92416 0.0
H6665 H 0.10888 0.9863 0.93649 0.0
H6666 H 0.15213 0.95975 0.9244 0.0
H6667 H 0.16432 0.98471 0.91214 0.0
C6668 C 0.10773 0.93868 0.95755 0.0
C6669 C 0.1093 0.92433 0.94783 0.0
C6670 C 0.11365 0.95408 0.95181 0.0
C6671 C 0.12137 0.95527 0.93636 0.0
C6672 C 0.12198 0.94107 0.92624 0.0
C6673 C 0.11592 0.92574 0.9319 0.0
C6674 C 0.12811 1.00036 0.9245 0.0
C6675 C 0.14356 1.00006 0.91697 0.0
C6676 C 0.12112 0.98596 0.9315 0.0
C6677 C 0.12941 0.97103 0.93097 0.0
C6678 C 0.14532 0.97104 0.92458 0.0
C6679 C 0.15237 0.98542 0.91774 0.0
H6680 H 0.23674 0.86089 0.15779 0.0
H6681 H 0.25245 0.90806 0.17885 0.0
H6682 H 0.26202 0.84866 0.16766 0.0
H6683 H 0.27736 0.89581 0.18942 0.0
H6684 H 0.3279 0.88115 0.1766 0.0
H6685 H 0.29985 0.8888 0.17164 0.0
H6686 H 0.28255 0.84087 0.18937 0.0
H6687 H 0.31112 0.83305 0.19404 0.0
C6688 C 0.24516 0.86834 0.16547 0.0
C6689 C 0.24267 0.88534 0.16777 0.0
C6690 C 0.25971 0.86139 0.17097 0.0
C6691 C 0.2719 0.8714 0.17886 0.0
C6692 C 0.26838 0.88789 0.18295 0.0
C6693 C 0.25399 0.89486 0.17723 0.0
C6694 C 0.31813 0.8721 0.17911 0.0
C6695 C 0.32162 0.85653 0.18566 0.0
C6696 C 0.30203 0.87658 0.17657 0.0
C6697 C 0.28893 0.86568 0.1807 0.0
C6698 C 0.29239 0.84961 0.18626 0.0
C6699 C 0.30869 0.84505 0.18875 0.0
H6700 H 0.20211 0.14392 0.70054 0.0
H6701 H 0.19976 0.09195 0.68754 0.0
H6702 H 0.2318 0.14471 0.69615 0.0
H6703 H 0.22874 0.09277 0.68215 0.0
H6704 H 0.27962 0.09085 0.67703 0.0
H6705 H 0.25479 0.09381 0.69306 0.0
H6706 H 0.25143 0.14427 0.67557 0.0
H6707 H 0.27698 0.14169 0.66104 0.0
C6708 C 0.20796 0.13277 0.6965 0.0
C6709 C 0.19878 0.1179 0.6943 0.0
C6710 C 0.22493 0.13316 0.69406 0.0
C6711 C 0.23287 0.11872 0.6891 0.0
C6712 C 0.22337 0.104 0.68662 0.0
C6713 C 0.20663 0.10357 0.68939 0.0
C6714 C 0.274 0.10282 0.67743 0.0
C6715 C 0.28003 0.11594 0.66767 0.0
C6716 C 0.25959 0.10447 0.68631 0.0
C6717 C 0.25058 0.119 0.68489 0.0
C6718 C 0.25784 0.13283 0.67689 0.0
C6719 C 0.27259 0.13136 0.66854 0.0
H6720 H 0.07991 0.10005 0.33017 0.0
H6721 H 0.08517 0.1236 0.37819 0.0
H6722 H 0.10911 0.09456 0.33033 0.0
H6723 H 0.11418 0.11761 0.37873 0.0
H6724 H 0.16799 0.12281 0.36791 0.0
H6725 H 0.13869 0.12702 0.3665 0.0
H6726 H 0.13142 0.07982 0.34141 0.0
H6727 H 0.16102 0.07596 0.34239 0.0
C6728 C 0.08724 0.10375 0.34093 0.0
C6729 C 0.08018 0.11234 0.35414 0.0
C6730 C 0.10404 0.10058 0.34105 0.0
C6731 C 0.11425 0.10585 0.35442 0.0
C6732 C 0.10693 0.11374 0.36797 0.0
C6733 C 0.09019 0.117 0.3678 0.0
C6734 C 0.16015 0.11344 0.36187 0.0
C6735 C 0.16686 0.09907 0.35524 0.0
C6736 C 0.14326 0.11573 0.36125 0.0
C6737 C 0.13245 0.10363 0.35413 0.0
C6738 C 0.13925 0.08948 0.34695 0.0
C6739 C 0.15626 0.08725 0.34746 0.0
H6740 H 0.17481 0.89319 0.60967 0.0
H6741 H 0.132 0.89867 0.63979 0.0
H6742 H 0.17014 0.86289 0.61004 0.0
H6743 H 0.12761 0.86871 0.64049 0.0
H6744 H 0.13114 0.81378 0.6512 0.0
H6745 H 0.14045 0.84315 0.6521 0.0
H6746 H 0.14907 0.84184 0.59933 0.0
H6747 H 0.13967 0.81281 0.59849 0.0
C6748 C 0.16438 0.88797 0.61626 0.0
C6749 C 0.15384 0.89839 0.62475 0.0
C6750 C 0.16176 0.87061 0.61659 0.0
C6751 C 0.14867 0.86331 0.62559 0.0
C6752 C 0.13804 0.87382 0.63381 0.0
C6753 C 0.14051 0.89106 0.63327 0.0
C6754 C 0.13553 0.81967 0.63995 0.0
C6755 C 0.13481 0.81099 0.62482 0.0
C6756 C 0.14067 0.83653 0.64038 0.0
C6757 C 0.14541 0.84492 0.62573 0.0
C6758 C 0.14565 0.83582 0.61085 0.0
C6759 C 0.14025 0.81916 0.61038 0.0
H6760 H 0.43925 0.92928 0.89292 0.0
H6761 H 0.44397 0.91697 0.84103 0.0
H6762 H 0.40951 0.92925 0.8895 0.0
H6763 H 0.41422 0.91685 0.83762 0.0
H6764 H 0.36271 0.89087 0.84921 0.0
H6765 H 0.3923 0.89695 0.84833 0.0
H6766 H 0.38586 0.94244 0.87556 0.0
H6767 H 0.35645 0.93638 0.87641 0.0
C6768 C 0.43396 0.92711 0.88067 0.0
C6769 C 0.44393 0.9231 0.86727 0.0
C6770 C 0.41692 0.92702 0.87871 0.0
C6771 C 0.40951 0.9228 0.86333 0.0
C6772 C 0.41956 0.91989 0.84967 0.0
C6773 C 0.43661 0.92016 0.85159 0.0
C6774 C 0.36762 0.9023 0.8547 0.0
C6775 C 0.35731 0.9131 0.86293 0.0
C6776 C 0.38453 0.90583 0.85417 0.0
C6777 C 0.39142 0.92015 0.86198 0.0
C6778 C 0.38096 0.93124 0.8696 0.0
C6779 C 0.3641 0.92778 0.87001 0.0
H6780 H 0.30653 0.09606 0.11122 0.0
H6781 H 0.3578 0.09783 0.09895 0.0
H6782 H 0.30591 0.12635 0.10868 0.0
H6783 H 0.35725 0.12808 0.09671 0.0
H6784 H 0.31169 0.18139 0.08753 0.0
H6785 H 0.31049 0.15081 0.08705 0.0
H6786 H 0.35297 0.15035 0.11931 0.0
H6787 H 0.35398 0.18056 0.12007 0.0
C6788 C 0.3176 0.1029 0.10773 0.0
C6789 C 0.33221 0.09456 0.10527 0.0
C6790 C 0.31723 0.12024 0.10625 0.0
C6791 C 0.33155 0.12963 0.10261 0.0
C6792 C 0.34604 0.12121 0.09966 0.0
C6793 C 0.34634 0.10387 0.10084 0.0
C6794 C 0.32067 0.17471 0.09459 0.0
C6795 C 0.33289 0.18341 0.10385 0.0
C6796 C 0.31999 0.15723 0.09432 0.0
C6797 C 0.33176 0.14816 0.103 0.0
C6798 C 0.34387 0.15694 0.11231 0.0
C6799 C 0.34435 0.17429 0.11284 0.0
H6800 H 0.15339 0.93736 0.13261 0.0
H6801 H 0.15034 0.89878 0.16954 0.0
H6802 H 0.12419 0.94175 0.13528 0.0
H6803 H 0.12087 0.90324 0.17229 0.0
H6804 H 0.07 0.92565 0.18136 0.0
H6805 H 0.09999 0.92432 0.18116 0.0
H6806 H 0.09896 0.92534 0.12757 0.0
H6807 H 0.06916 0.92661 0.12787 0.0
C6808 C 0.1465 0.9299 0.14145 0.0
C6809 C 0.15421 0.91768 0.15083 0.0
C6810 C 0.12971 0.93238 0.14291 0.0
C6811 C 0.12011 0.92281 0.15392 0.0
C6812 C 0.12791 0.91093 0.16377 0.0
C6813 C 0.14478 0.90832 0.16217 0.0
C6814 C 0.07625 0.92598 0.16957 0.0
C6815 C 0.06723 0.92638 0.15459 0.0
C6816 C 0.09341 0.92499 0.16945 0.0
C6817 C 0.10193 0.92465 0.15435 0.0
C6818 C 0.09287 0.9257 0.13943 0.0
C6819 C 0.07577 0.92643 0.13957 0.0
H6820 H 0.37535 0.91388 0.37905 0.0
H6821 H 0.32366 0.91695 0.38851 0.0
H6822 H 0.37288 0.88363 0.38078 0.0
H6823 H 0.32112 0.88653 0.38959 0.0
H6824 H 0.32982 0.83119 0.36351 0.0
H6825 H 0.32875 0.86172 0.36467 0.0
H6826 H 0.36219 0.86268 0.40649 0.0
H6827 H 0.36294 0.83256 0.40572 0.0
C6828 C 0.36353 0.90811 0.38175 0.0
C6829 C 0.34978 0.91781 0.3839 0.0
C6830 C 0.36209 0.89082 0.38259 0.0
C6831 C 0.34679 0.88282 0.38518 0.0
C6832 C 0.33302 0.89245 0.38747 0.0
C6833 C 0.33453 0.90982 0.38703 0.0
C6834 C 0.33661 0.83794 0.37315 0.0
C6835 C 0.34649 0.82949 0.38447 0.0
C6836 C 0.33601 0.85534 0.37381 0.0
C6837 C 0.34549 0.86446 0.38562 0.0
C6838 C 0.35485 0.85593 0.39724 0.0
C6839 C 0.35522 0.83867 0.39678 0.0
H6840 H 0.42088 0.14776 0.62661 0.0
H6841 H 0.42883 0.10167 0.65189 0.0
H6842 H 0.3918 0.14123 0.62511 0.0
H6843 H 0.39967 0.09421 0.6492 0.0
H6844 H 0.34419 0.09127 0.65552 0.0
H6845 H 0.37353 0.098 0.65813 0.0
H6846 H 0.37111 0.12669 0.61287 0.0
H6847 H 0.34189 0.12106 0.61126 0.0
C6848 C 0.41641 0.13601 0.63154 0.0
C6849 C 0.42715 0.12525 0.63938 0.0
C6850 C 0.39962 0.13212 0.63057 0.0
C6851 C 0.39307 0.11706 0.63695 0.0
C6852 C 0.404 0.10607 0.64442 0.0
C6853 C 0.4208 0.11022 0.64579 0.0
C6854 C 0.35002 0.09918 0.64631 0.0
C6855 C 0.34074 0.10576 0.63331 0.0
C6856 C 0.36691 0.10291 0.64765 0.0
C6857 C 0.37499 0.11299 0.63574 0.0
C6858 C 0.36553 0.11932 0.62262 0.0
C6859 C 0.34866 0.11597 0.62158 0.0
H6860 H 0.12367 0.15447 0.88622 0.0
H6861 H 0.16379 0.16295 0.92083 0.0
H6862 H 0.13121 0.12556 0.883 0.0
H6863 H 0.17173 0.13401 0.9171 0.0
H6864 H 0.18851 0.08598 0.88697 0.0
H6865 H 0.1817 0.11503 0.89151 0.0
H6866 H 0.13231 0.09947 0.90375 0.0
H6867 H 0.13937 0.07036 0.90003 0.0
C6868 C 0.13421 0.15023 0.89304 0.0
C6869 C 0.14311 0.16108 0.90383 0.0
C6870 C 0.13847 0.1336 0.89125 0.0
C6871 C 0.15202 0.12742 0.89984 0.0
C6872 C 0.16123 0.13838 0.91029 0.0
C6873 C 0.15669 0.15495 0.91242 0.0
C6874 C 0.17623 0.08873 0.89078 0.0
C6875 C 0.16441 0.0758 0.89293 0.0
C6876 C 0.17234 0.10539 0.8934 0.0
C6877 C 0.15643 0.10961 0.89788 0.0
C6878 C 0.14464 0.09667 0.90014 0.0
C6879 C 0.14865 0.07998 0.89794 0.0
H6880 H 0.10178 0.36626 0.08923 0.0
H6881 H 0.14591 0.34206 0.10349 0.0
H6882 H 0.09612 0.3719 0.11835 0.0
H6883 H 0.14118 0.34874 0.13244 0.0
H6884 H 0.12245 0.34823 0.1848 0.0
H6885 H 0.12726 0.34256 0.15565 0.0
H6886 H 0.10093 0.38631 0.14226 0.0
H6887 H 0.09513 0.39103 0.17151 0.0
C6888 C 0.11038 0.36233 0.09864 0.0
C6889 C 0.12417 0.35354 0.09411 0.0
C6890 C 0.10725 0.36569 0.11542 0.0
C6891 C 0.11807 0.36072 0.12813 0.0
C6892 C 0.13217 0.35237 0.12334 0.0
C6893 C 0.13503 0.34864 0.10663 0.0
C6894 C 0.11759 0.35653 0.17557 0.0
C6895 C 0.1083 0.36997 0.18043 0.0
C6896 C 0.12052 0.35343 0.15874 0.0
C6897 C 0.11464 0.36398 0.14622 0.0
C6898 C 0.10544 0.3776 0.15126 0.0
C6899 C 0.10217 0.38043 0.16811 0.0
H6900 H 0.62662 0.14873 0.84051 0.0
H6901 H 0.58039 0.17279 0.83785 0.0
H6902 H 0.62247 0.14335 0.87002 0.0
H6903 H 0.57598 0.16709 0.86724 0.0
H6904 H 0.58211 0.16974 0.92449 0.0
H6905 H 0.58389 0.17391 0.89462 0.0
H6906 H 0.60761 0.12715 0.88978 0.0
H6907 H 0.60617 0.12338 0.91992 0.0
C6908 C 0.61561 0.15302 0.84624 0.0
C6909 C 0.60391 0.16131 0.83669 0.0
C6910 C 0.61308 0.1497 0.86321 0.0
C6911 C 0.59875 0.15455 0.87125 0.0
C6912 C 0.58724 0.16321 0.86172 0.0
C6913 C 0.58978 0.16654 0.84477 0.0
C6914 C 0.58711 0.16002 0.91695 0.0
C6915 C 0.59342 0.14591 0.92461 0.0
C6916 C 0.58827 0.16247 0.89973 0.0
C6917 C 0.59602 0.15097 0.8895 0.0
C6918 C 0.60174 0.13646 0.89711 0.0
C6919 C 0.60052 0.13401 0.91442 0.0
H6920 H 0.90192 0.8646 0.41955 0.0
H6921 H 0.85556 0.88845 0.42008 0.0
H6922 H 0.90134 0.86481 0.38911 0.0
H6923 H 0.85414 0.88748 0.39019 0.0
H6924 H 0.86111 0.89944 0.33665 0.0
H6925 H 0.86277 0.89884 0.36651 0.0
H6926 H 0.89124 0.85466 0.36411 0.0
H6927 H 0.89063 0.85627 0.33375 0.0
C6928 C 0.8916 0.86984 0.41314 0.0
C6929 C 0.87895 0.87677 0.42224 0.0
C6930 C 0.89111 0.86979 0.39565 0.0
C6931 C 0.87774 0.8763 0.38684 0.0
C6932 C 0.86497 0.88286 0.39617 0.0
C6933 C 0.86571 0.88334 0.41351 0.0
C6934 C 0.86764 0.88949 0.34243 0.0
C6935 C 0.87569 0.87786 0.33274 0.0
C6936 C 0.86851 0.88904 0.35976 0.0
C6937 C 0.87703 0.87659 0.36812 0.0
C6938 C 0.88477 0.86464 0.35835 0.0
C6939 C 0.88425 0.86539 0.34088 0.0
H6940 H 0.88635 0.18296 0.07638 0.0
H6941 H 0.91304 0.13836 0.06937 0.0
H6942 H 0.8867 0.17862 0.10637 0.0
H6943 H 0.91279 0.13349 0.09928 0.0
H6944 H 0.92589 0.13858 0.15387 0.0
H6945 H 0.92467 0.1432 0.12419 0.0
H6946 H 0.87632 0.16257 0.12907 0.0
H6947 H 0.8779 0.15837 0.15926 0.0
C6948 C 0.89227 0.17217 0.08126 0.0
C6949 C 0.89969 0.161 0.07047 0.0
C6950 C 0.8923 0.16956 0.0985 0.0
C6951 C 0.89976 0.15569 0.10547 0.0
C6952 C 0.90714 0.14448 0.09456 0.0
C6953 C 0.90718 0.14717 0.07733 0.0
C6954 C 0.91497 0.14387 0.14867 0.0
C6955 C 0.902 0.14814 0.159 0.0
C6956 C 0.9142 0.14638 0.13151 0.0
C6957 C 0.90034 0.15314 0.12398 0.0
C6958 C 0.8873 0.15749 0.13434 0.0
C6959 C 0.88813 0.15504 0.15167 0.0
H6960 H 0.39616 0.62693 0.65739 0.0
H6961 H 0.4028 0.68009 0.66062 0.0
H6962 H 0.39946 0.62804 0.62763 0.0
H6963 H 0.40502 0.68153 0.63022 0.0
H6964 H 0.4186 0.67756 0.57471 0.0
H6965 H 0.41913 0.67699 0.60525 0.0
H6966 H 0.38582 0.6341 0.60406 0.0
H6967 H 0.38635 0.63409 0.57426 0.0
C6968 C 0.39802 0.63896 0.65164 0.0
C6969 C 0.39891 0.65346 0.66135 0.0
C6970 C 0.39984 0.63965 0.63442 0.0
C6971 C 0.40215 0.65493 0.62615 0.0
C6972 C 0.40335 0.66949 0.63598 0.0
C6973 C 0.40191 0.66873 0.6534 0.0
C6974 C 0.41169 0.66786 0.58109 0.0
C6975 C 0.40252 0.6558 0.57195 0.0
C6976 C 0.4118 0.66762 0.59863 0.0
C6977 C 0.4026 0.65541 0.60743 0.0
C6978 C 0.3935 0.64345 0.59807 0.0
C6979 C 0.39366 0.64352 0.58075 0.0
H6980 H 0.12396 0.66377 0.3381 0.0
H6981 H 0.07492 0.64217 0.33713 0.0
H6982 H 0.12527 0.65932 0.36825 0.0
H6983 H 0.07588 0.63833 0.36687 0.0
H6984 H 0.08555 0.62157 0.42021 0.0
H6985 H 0.08592 0.62351 0.38971 0.0
H6986 H 0.11532 0.66899 0.39348 0.0
H6987 H 0.11539 0.66672 0.42331 0.0
C6988 C 0.11347 0.65817 0.34428 0.0
C6989 C 0.09939 0.65336 0.3351 0.0
C6990 C 0.11412 0.65565 0.36163 0.0
C6991 C 0.10065 0.64836 0.37024 0.0
C6992 C 0.08664 0.64363 0.3609 0.0
C6993 C 0.08605 0.64605 0.34371 0.0
C6994 C 0.09204 0.63193 0.41446 0.0
C6995 C 0.10037 0.64396 0.42432 0.0
C6996 C 0.09227 0.63313 0.39694 0.0
C6997 C 0.10078 0.64642 0.38889 0.0
C6998 C 0.10896 0.65837 0.39893 0.0
C6999 C 0.10881 0.65713 0.41623 0.0
H7000 H 0.4051 0.36283 0.83338 0.0
H7001 H 0.35802 0.38518 0.83631 0.0
H7002 H 0.40679 0.36204 0.86374 0.0
H7003 H 0.35948 0.38408 0.8665 0.0
H7004 H 0.39574 0.35093 0.91959 0.0
H7005 H 0.39561 0.35016 0.8892 0.0
H7006 H 0.37477 0.39864 0.88811 0.0
H7007 H 0.37467 0.39923 0.91835 0.0
C7008 C 0.39496 0.36724 0.8405 0.0
C7009 C 0.38146 0.37415 0.83244 0.0
C7010 C 0.39593 0.36682 0.85791 0.0
C7011 C 0.38343 0.3733 0.86763 0.0
C7012 C 0.36956 0.37939 0.85947 0.0
C7013 C 0.36861 0.37983 0.84213 0.0
C7014 C 0.3914 0.36153 0.91283 0.0
C7015 C 0.38508 0.37509 0.92137 0.0
C7016 C 0.39129 0.36108 0.8954 0.0
C7017 C 0.38487 0.37419 0.88615 0.0
C7018 C 0.37939 0.38811 0.89478 0.0
C7019 C 0.37949 0.38855 0.91214 0.0
H7020 H 0.8366 0.8949 0.66548 0.0
H7021 H 0.84872 0.93089 0.62766 0.0
H7022 H 0.86574 0.8887 0.66845 0.0
H7023 H 0.87767 0.92436 0.63027 0.0
H7024 H 0.92282 0.88885 0.6268 0.0
H7025 H 0.89437 0.89725 0.6246 0.0
H7026 H 0.89357 0.90541 0.67753 0.0
H7027 H 0.92225 0.89756 0.67966 0.0
C7028 C 0.84548 0.90149 0.65784 0.0
C7029 C 0.84037 0.91345 0.64642 0.0
C7030 C 0.86215 0.89799 0.65957 0.0
C7031 C 0.87402 0.90607 0.64961 0.0
C7032 C 0.86884 0.91791 0.6381 0.0
C7033 C 0.85227 0.92169 0.63666 0.0
C7034 C 0.9167 0.89279 0.63791 0.0
C7035 C 0.9249 0.89272 0.65336 0.0
C7036 C 0.90037 0.89753 0.63666 0.0
C7037 C 0.89167 0.9019 0.65091 0.0
C7038 C 0.8999 0.902 0.66635 0.0
C7039 C 0.91638 0.89765 0.66754 0.0
H7040 H 0.85663 0.19077 0.40448 0.0
H7041 H 0.87345 0.18992 0.3539 0.0
H7042 H 0.84999 0.16093 0.4029 0.0
H7043 H 0.86625 0.16014 0.35217 0.0
H7044 H 0.83092 0.11224 0.35289 0.0
H7045 H 0.83855 0.1418 0.35427 0.0
H7046 H 0.86739 0.13338 0.39842 0.0
H7047 H 0.86012 0.1035 0.39674 0.0
C7048 C 0.8587 0.18428 0.39294 0.0
C7049 C 0.86547 0.19278 0.37926 0.0
C7050 C 0.85503 0.16714 0.39211 0.0
C7051 C 0.85768 0.15815 0.37745 0.0
C7052 C 0.86406 0.16673 0.36363 0.0
C7053 C 0.86811 0.18379 0.36459 0.0
C7054 C 0.83894 0.11666 0.36288 0.0
C7055 C 0.84485 0.10553 0.37476 0.0
C7056 C 0.84336 0.1336 0.36361 0.0
C7057 C 0.85351 0.13996 0.37648 0.0
C7058 C 0.85945 0.12885 0.38841 0.0
C7059 C 0.85535 0.11176 0.38743 0.0
H7060 H 0.56636 0.081 0.10706 0.0
H7061 H 0.56168 0.08256 0.16038 0.0
H7062 H 0.59618 0.07989 0.1103 0.0
H7063 H 0.5913 0.08156 0.1636 0.0
H7064 H 0.64264 0.10924 0.15784 0.0
H7065 H 0.61299 0.10361 0.15673 0.0
H7066 H 0.61977 0.06358 0.12201 0.0
H7067 H 0.6493 0.06909 0.12323 0.0
C7068 C 0.57165 0.08053 0.11943 0.0
C7069 C 0.56175 0.08195 0.13345 0.0
C7070 C 0.5887 0.07999 0.12132 0.0
C7071 C 0.59605 0.08095 0.13722 0.0
C7072 C 0.586 0.08111 0.15121 0.0
C7073 C 0.56904 0.08153 0.14934 0.0
C7074 C 0.63779 0.09903 0.15027 0.0
C7075 C 0.64824 0.08962 0.14065 0.0
C7076 C 0.62085 0.09579 0.14962 0.0
C7077 C 0.61408 0.08319 0.1392 0.0
C7078 C 0.62462 0.07345 0.13002 0.0
C7079 C 0.64153 0.07655 0.13083 0.0
H7080 H 0.65466 0.90619 0.92399 0.0
H7081 H 0.69765 0.90957 0.89342 0.0
H7082 H 0.65744 0.87599 0.92588 0.0
H7083 H 0.70029 0.87958 0.89513 0.0
H7084 H 0.6818 0.82535 0.88182 0.0
H7085 H 0.68271 0.85567 0.88332 0.0
H7086 H 0.67678 0.85321 0.93645 0.0
H7087 H 0.67603 0.82273 0.93487 0.0
C7088 C 0.66482 0.90053 0.91791 0.0
C7089 C 0.67591 0.91026 0.90854 0.0
C7090 C 0.66644 0.88325 0.91901 0.0
C7091 C 0.67903 0.87536 0.91055 0.0
C7092 C 0.69038 0.88523 0.90165 0.0
C7093 C 0.6889 0.90244 0.90074 0.0
C7094 C 0.68098 0.8313 0.89383 0.0
C7095 C 0.67896 0.82171 0.90821 0.0
C7096 C 0.68152 0.84866 0.89472 0.0
C7097 C 0.67974 0.85688 0.91001 0.0
C7098 C 0.67809 0.84726 0.92449 0.0
C7099 C 0.67787 0.82983 0.92361 0.0
H7100 H 0.84218 0.0682 0.8618 0.0
H7101 H 0.84767 0.11896 0.84551 0.0
H7102 H 0.87162 0.06477 0.85875 0.0
H7103 H 0.87716 0.11555 0.84239 0.0
H7104 H 0.92533 0.09767 0.82131 0.0
H7105 H 0.89613 0.10051 0.82483 0.0
H7106 H 0.89865 0.07436 0.87141 0.0
H7107 H 0.92833 0.07149 0.86782 0.0
C7108 C 0.84965 0.07859 0.85736 0.0
C7109 C 0.84251 0.09382 0.85371 0.0
C7110 C 0.86659 0.07667 0.85582 0.0
C7111 C 0.87686 0.08988 0.8504 0.0
C7112 C 0.86964 0.10504 0.84648 0.0
C7113 C 0.85272 0.10701 0.8482 0.0
C7114 C 0.91974 0.09242 0.83232 0.0
C7115 C 0.92927 0.08432 0.84429 0.0
C7116 C 0.90293 0.0942 0.8344 0.0
C7117 C 0.89494 0.08779 0.84844 0.0
C7118 C 0.90437 0.0794 0.86037 0.0
C7119 C 0.92138 0.07779 0.85837 0.0
H7120 H 0.62673 0.08992 0.61893 0.0
H7121 H 0.67927 0.08649 0.62105 0.0
H7122 H 0.62976 0.1202 0.61777 0.0
H7123 H 0.68227 0.11687 0.62046 0.0
H7124 H 0.67092 0.1713 0.64486 0.0
H7125 H 0.67157 0.14082 0.64272 0.0
H7126 H 0.64419 0.1423 0.59669 0.0
H7127 H 0.64391 0.17242 0.5985 0.0
C7128 C 0.63891 0.09562 0.61882 0.0
C7129 C 0.65273 0.08582 0.61981 0.0
C7130 C 0.64066 0.11294 0.61827 0.0
C7131 C 0.65625 0.12084 0.61915 0.0
C7132 C 0.67012 0.11107 0.61985 0.0
C7133 C 0.66838 0.0937 0.61998 0.0
C7134 C 0.66539 0.1651 0.63413 0.0
C7135 C 0.65735 0.17425 0.62189 0.0
C7136 C 0.66575 0.14771 0.6329 0.0
C7137 C 0.65782 0.13925 0.61958 0.0
C7138 C 0.6503 0.14849 0.60712 0.0
C7139 C 0.65021 0.16576 0.60817 0.0
H7140 H 0.65724 0.91116 0.34969 0.0
H7141 H 0.65774 0.8933 0.4001 0.0
H7142 H 0.62756 0.90511 0.34802 0.0
H7143 H 0.62847 0.88817 0.39893 0.0
H7144 H 0.58064 0.86149 0.38676 0.0
H7145 H 0.60954 0.86928 0.38791 0.0
H7146 H 0.60077 0.91154 0.35651 0.0
H7147 H 0.57176 0.90304 0.35468 0.0
C7148 C 0.65096 0.90615 0.36044 0.0
C7149 C 0.65981 0.90243 0.3749 0.0
C7150 C 0.63397 0.90275 0.35957 0.0
C7151 C 0.62552 0.89585 0.37327 0.0
C7152 C 0.63447 0.89291 0.38791 0.0
C7153 C 0.65133 0.89596 0.38863 0.0
C7154 C 0.58484 0.87251 0.3802 0.0
C7155 C 0.57392 0.88165 0.37064 0.0
C7156 C 0.60147 0.87709 0.38091 0.0
C7157 C 0.60765 0.89116 0.37237 0.0
C7158 C 0.59659 0.90052 0.36306 0.0
C7159 C 0.57993 0.89576 0.36216 0.0
H7160 H 0.81482 0.92377 0.10267 0.0
H7161 H 0.8667 0.93508 0.10293 0.0
H7162 H 0.82017 0.89402 0.09972 0.0
H7163 H 0.87211 0.90566 0.09988 0.0
H7164 H 0.87427 0.85464 0.07469 0.0
H7165 H 0.86756 0.8836 0.07793 0.0
H7166 H 0.83394 0.87027 0.11699 0.0
H7167 H 0.84093 0.84088 0.11386 0.0
C7168 C 0.82735 0.91994 0.10183 0.0
C7169 C 0.84037 0.93182 0.10291 0.0
C7170 C 0.83043 0.90289 0.10037 0.0
C7171 C 0.84659 0.89739 0.09963 0.0
C7172 C 0.85952 0.90938 0.10035 0.0
C7173 C 0.85644 0.92629 0.1021 0.0
C7174 C 0.86544 0.8578 0.08402 0.0
C7175 C 0.85814 0.84538 0.09401 0.0
C7176 C 0.86163 0.87448 0.0859 0.0
C7177 C 0.85019 0.87935 0.09769 0.0
C7178 C 0.84272 0.86694 0.10768 0.0
C7179 C 0.84678 0.85013 0.10598 0.0
H7180 H 0.89038 0.6165 0.82605 0.0
H7181 H 0.90786 0.66717 0.82016 0.0
H7182 H 0.88825 0.62062 0.8557 0.0
H7183 H 0.90458 0.6719 0.85009 0.0
H7184 H 0.90605 0.672 0.90764 0.0
H7185 H 0.91208 0.66799 0.8781 0.0
H7186 H 0.87155 0.63213 0.87439 0.0
H7187 H 0.86644 0.63538 0.90364 0.0
C7188 C 0.89367 0.62863 0.83117 0.0
C7189 C 0.89919 0.64155 0.82078 0.0
C7190 C 0.89226 0.6311 0.84824 0.0
C7191 C 0.89579 0.64676 0.85551 0.0
C7192 C 0.90179 0.65963 0.84511 0.0
C7193 C 0.90362 0.65699 0.82792 0.0
C7194 C 0.89861 0.66316 0.90043 0.0
C7195 C 0.88591 0.65387 0.90803 0.0
C7196 C 0.90196 0.66093 0.88345 0.0
C7197 C 0.89249 0.64953 0.87366 0.0
C7198 C 0.87958 0.64059 0.8814 0.0
C7199 C 0.8765 0.64256 0.89829 0.0
H7200 H 0.40041 0.88425 0.08967 0.0
H7201 H 0.41607 0.83432 0.08258 0.0
H7202 H 0.39935 0.87958 0.11978 0.0
H7203 H 0.41494 0.82951 0.1124 0.0
H7204 H 0.42147 0.82943 0.16917 0.0
H7205 H 0.42578 0.83551 0.13978 0.0
H7206 H 0.38176 0.86356 0.13872 0.0
H7207 H 0.37752 0.8575 0.16808 0.0
C7208 C 0.40427 0.87252 0.09459 0.0
C7209 C 0.40874 0.85981 0.08376 0.0
C7210 C 0.40333 0.86968 0.11184 0.0
C7211 C 0.4069 0.85406 0.11866 0.0
C7212 C 0.41224 0.84172 0.10779 0.0
C7213 C 0.413 0.84452 0.09064 0.0
C7214 C 0.41257 0.83668 0.16261 0.0
C7215 C 0.39912 0.84291 0.17107 0.0
C7216 C 0.41508 0.84026 0.14572 0.0
C7217 C 0.40426 0.85026 0.13677 0.0
C7218 C 0.39059 0.85614 0.14518 0.0
C7219 C 0.38802 0.85247 0.16203 0.0
H7220 H 0.12396 0.10406 0.58437 0.0
H7221 H 0.10795 0.15445 0.58246 0.0
H7222 H 0.12426 0.10519 0.61458 0.0
H7223 H 0.10837 0.15566 0.61293 0.0
H7224 H 0.09844 0.14295 0.66953 0.0
H7225 H 0.0961 0.14409 0.63916 0.0
H7226 H 0.14209 0.11973 0.63507 0.0
H7227 H 0.14435 0.11853 0.66522 0.0
C7228 C 0.12024 0.11531 0.59043 0.0
C7229 C 0.11601 0.12918 0.58101 0.0
C7230 C 0.1206 0.11603 0.60777 0.0
C7231 C 0.11671 0.13065 0.61621 0.0
C7232 C 0.1115 0.14424 0.60682 0.0
C7233 C 0.11119 0.14352 0.58937 0.0
C7234 C 0.10818 0.13813 0.66211 0.0
C7235 C 0.12151 0.13049 0.66978 0.0
C7236 C 0.10682 0.13875 0.64471 0.0
C7237 C 0.11872 0.13167 0.63466 0.0
C7238 C 0.13248 0.12491 0.64241 0.0
C7239 C 0.13386 0.12436 0.65972 0.0
H7240 H 0.12842 0.85956 0.84824 0.0
H7241 H 0.07871 0.83983 0.84593 0.0
H7242 H 0.12867 0.85632 0.87829 0.0
H7243 H 0.07866 0.8371 0.87622 0.0
H7244 H 0.08904 0.82343 0.93137 0.0
H7245 H 0.08861 0.82364 0.90086 0.0
H7246 H 0.11778 0.8694 0.90152 0.0
H7247 H 0.1188 0.86865 0.93156 0.0
C7248 C 0.11755 0.85444 0.85418 0.0
C7249 C 0.10353 0.85003 0.8447 0.0
C7250 C 0.1176 0.85273 0.87149 0.0
C7251 C 0.10357 0.84673 0.87989 0.0
C7252 C 0.08973 0.8417 0.87028 0.0
C7253 C 0.08973 0.8433 0.85289 0.0
C7254 C 0.09527 0.83354 0.92493 0.0
C7255 C 0.1038 0.84613 0.93395 0.0
C7256 C 0.09501 0.83371 0.90742 0.0
C7257 C 0.1033 0.84646 0.89856 0.0
C7258 C 0.11153 0.85915 0.90774 0.0
C7259 C 0.11186 0.85891 0.92509 0.0
H7260 H 0.62144 0.37501 0.34997 0.0
H7261 H 0.58919 0.33197 0.34294 0.0
H7262 H 0.62053 0.37114 0.38 0.0
H7263 H 0.5887 0.3278 0.37316 0.0
H7264 H 0.60956 0.31822 0.42752 0.0
H7265 H 0.60942 0.3212 0.39725 0.0
H7266 H 0.59773 0.37268 0.40252 0.0
H7267 H 0.59721 0.36949 0.4328 0.0
C7268 C 0.61427 0.36461 0.3548 0.0
C7269 C 0.60532 0.35383 0.344 0.0
C7270 C 0.61368 0.36246 0.37206 0.0
C7271 C 0.60444 0.34925 0.37901 0.0
C7272 C 0.59594 0.3381 0.3682 0.0
C7273 C 0.59623 0.34047 0.3509 0.0
C7274 C 0.60679 0.33014 0.42222 0.0
C7275 C 0.6036 0.3437 0.4326 0.0
C7276 C 0.6067 0.33183 0.40487 0.0
C7277 C 0.6037 0.34721 0.39746 0.0
C7278 C 0.6003 0.36072 0.40784 0.0
C7279 C 0.60003 0.35892 0.42519 0.0
H7280 H 0.88688 0.33589 0.57971 0.0
H7281 H 0.91727 0.38069 0.5829 0.0
H7282 H 0.88688 0.33359 0.60954 0.0
H7283 H 0.91686 0.37869 0.6134 0.0
H7284 H 0.92778 0.35965 0.66575 0.0
H7285 H 0.92692 0.36322 0.63597 0.0
H7286 H 0.87701 0.34365 0.63477 0.0
H7287 H 0.87819 0.33947 0.66496 0.0
C7288 C 0.89356 0.3454 0.58681 0.0
C7289 C 0.90219 0.35847 0.57877 0.0
C7290 C 0.89337 0.34413 0.60409 0.0
C7291 C 0.90173 0.35596 0.61414 0.0
C7292 C 0.91038 0.36918 0.60614 0.0
C7293 C 0.91063 0.37041 0.58864 0.0
C7294 C 0.91656 0.35599 0.6592 0.0
C7295 C 0.90299 0.34927 0.66787 0.0
C7296 C 0.91604 0.35828 0.64201 0.0
C7297 C 0.90188 0.35396 0.63274 0.0
C7298 C 0.88825 0.34705 0.64138 0.0
C7299 C 0.88883 0.34467 0.65873 0.0
H7300 H 0.64604 0.62358 0.08539 0.0
H7301 H 0.59399 0.63037 0.08347 0.0
H7302 H 0.6458 0.62508 0.11538 0.0
H7303 H 0.59332 0.6306 0.11394 0.0
H7304 H 0.59849 0.64127 0.16969 0.0
H7305 H 0.59905 0.64352 0.13935 0.0
H7306 H 0.63964 0.61052 0.13837 0.0
H7307 H 0.63978 0.60947 0.16828 0.0
C7308 C 0.63443 0.62507 0.09148 0.0
C7309 C 0.61998 0.6266 0.0821 0.0
C7310 C 0.63423 0.62582 0.1088 0.0
C7311 C 0.61948 0.62764 0.11742 0.0
C7312 C 0.60498 0.62934 0.10793 0.0
C7313 C 0.60528 0.62903 0.09045 0.0
C7314 C 0.60771 0.63482 0.1629 0.0
C7315 C 0.61911 0.62525 0.17142 0.0
C7316 C 0.60792 0.6359 0.14546 0.0
C7317 C 0.61938 0.62721 0.13611 0.0
C7318 C 0.63084 0.61779 0.14485 0.0
C7319 C 0.63085 0.61704 0.16217 0.0
H7320 H 0.57569 0.60888 0.87496 0.0
H7321 H 0.58923 0.63516 0.83031 0.0
H7322 H 0.60405 0.60008 0.87818 0.0
H7323 H 0.61695 0.62601 0.83305 0.0
H7324 H 0.66928 0.62148 0.8494 0.0
H7325 H 0.64114 0.63053 0.84863 0.0
H7326 H 0.62433 0.58251 0.86661 0.0
H7327 H 0.65265 0.57382 0.86803 0.0
C7328 C 0.58467 0.61273 0.86586 0.0
C7329 C 0.58021 0.6228 0.85247 0.0
C7330 C 0.6009 0.60762 0.8676 0.0
C7331 C 0.61295 0.61246 0.85595 0.0
C7332 C 0.60826 0.62234 0.84251 0.0
C7333 C 0.59221 0.62747 0.84085 0.0
C7334 C 0.65958 0.61291 0.85323 0.0
C7335 C 0.66319 0.59696 0.85873 0.0
C7336 C 0.64338 0.61802 0.85271 0.0
C7337 C 0.63031 0.60723 0.85747 0.0
C7338 C 0.634 0.59125 0.86304 0.0
C7339 C 0.65024 0.5862 0.86368 0.0
H7340 H 0.65654 0.31053 0.10322 0.0
H7341 H 0.62566 0.31879 0.14533 0.0
H7342 H 0.6631 0.34026 0.10169 0.0
H7343 H 0.63255 0.34847 0.14415 0.0
H7344 H 0.63165 0.40166 0.12661 0.0
H7345 H 0.62655 0.37177 0.12757 0.0
H7346 H 0.67668 0.36425 0.11374 0.0
H7347 H 0.68158 0.39438 0.11237 0.0
C7348 C 0.65138 0.31867 0.11236 0.0
C7349 C 0.64049 0.31225 0.12435 0.0
C7350 C 0.65517 0.33577 0.1115 0.0
C7351 C 0.6482 0.34697 0.12263 0.0
C7352 C 0.63787 0.34038 0.13508 0.0
C7353 C 0.63405 0.32329 0.1359 0.0
C7354 C 0.64153 0.39363 0.12353 0.0
C7355 C 0.65701 0.40044 0.11936 0.0
C7356 C 0.63867 0.37642 0.12431 0.0
C7357 C 0.65125 0.36541 0.12102 0.0
C7358 C 0.66663 0.37224 0.11629 0.0
C7359 C 0.66947 0.38954 0.11547 0.0
H7360 H 0.93635 0.42608 0.39204 0.0
H7361 H 0.94176 0.41289 0.34044 0.0
H7362 H 0.90668 0.42667 0.38799 0.0
H7363 H 0.91214 0.41344 0.33638 0.0
H7364 H 0.85925 0.39017 0.34695 0.0
H7365 H 0.88905 0.39487 0.34651 0.0
H7366 H 0.88427 0.44094 0.37324 0.0
H7367 H 0.85468 0.43623 0.37371 0.0
C7368 C 0.93122 0.42373 0.37975 0.0
C7369 C 0.94132 0.41942 0.36658 0.0
C7370 C 0.91425 0.42404 0.37741 0.0
C7371 C 0.90707 0.41993 0.36188 0.0
C7372 C 0.91729 0.41644 0.34852 0.0
C7373 C 0.93425 0.41627 0.35083 0.0
C7374 C 0.86458 0.40146 0.35236 0.0
C7375 C 0.85471 0.41277 0.36045 0.0
C7376 C 0.88161 0.40418 0.35212 0.0
C7377 C 0.88899 0.4182 0.36003 0.0
C7378 C 0.87896 0.42991 0.36728 0.0
C7379 C 0.86201 0.42724 0.36745 0.0
H7380 H 0.8215 0.67961 0.6259 0.0
H7381 H 0.82559 0.68081 0.57262 0.0
H7382 H 0.82094 0.6493 0.62525 0.0
H7383 H 0.82504 0.65035 0.57187 0.0
H7384 H 0.84648 0.59738 0.58381 0.0
H7385 H 0.84408 0.62759 0.58167 0.0
H7386 H 0.80324 0.62521 0.61517 0.0
H7387 H 0.80555 0.59521 0.61719 0.0
C7388 C 0.82216 0.67336 0.61404 0.0
C7389 C 0.82361 0.68258 0.59936 0.0
C7390 C 0.82175 0.65599 0.61363 0.0
C7391 C 0.82301 0.64736 0.5985 0.0
C7392 C 0.82416 0.6566 0.58373 0.0
C7393 C 0.8243 0.67403 0.58415 0.0
C7394 C 0.83684 0.60331 0.59047 0.0
C7395 C 0.82623 0.59391 0.60068 0.0
C7396 C 0.83543 0.62059 0.58924 0.0
C7397 C 0.82353 0.62884 0.59836 0.0
C7398 C 0.81265 0.6193 0.60814 0.0
C7399 C 0.81392 0.60208 0.60921 0.0
H7400 H 0.65265 0.39119 0.66622 0.0
H7401 H 0.65594 0.43347 0.63357 0.0
H7402 H 0.62314 0.39533 0.66929 0.0
H7403 H 0.62677 0.43753 0.63655 0.0
H7404 H 0.57186 0.42454 0.62765 0.0
H7405 H 0.60153 0.42213 0.62708 0.0
H7406 H 0.60234 0.4156 0.68026 0.0
H7407 H 0.57248 0.41796 0.68071 0.0
C7408 C 0.64714 0.40145 0.65987 0.0
C7409 C 0.65665 0.41196 0.64962 0.0
C7410 C 0.63025 0.40386 0.66164 0.0
C7411 C 0.62252 0.41669 0.65304 0.0
C7412 C 0.63221 0.42739 0.64316 0.0
C7413 C 0.649 0.4251 0.64154 0.0
C7414 C 0.57836 0.42269 0.6392 0.0
C7415 C 0.5698 0.42146 0.65417 0.0
C7416 C 0.59541 0.42139 0.63893 0.0
C7417 C 0.60438 0.4186 0.65363 0.0
C7418 C 0.59583 0.41759 0.66869 0.0
C7419 C 0.57874 0.41915 0.66897 0.0
H7420 H 0.82867 0.33332 0.86079 0.0
H7421 H 0.86149 0.33387 0.90322 0.0
H7422 H 0.82825 0.36385 0.86195 0.0
H7423 H 0.86144 0.3641 0.90396 0.0
H7424 H 0.87468 0.41568 0.87592 0.0
H7425 H 0.87236 0.38543 0.87828 0.0
H7426 H 0.82057 0.3883 0.88692 0.0
H7427 H 0.82296 0.41867 0.88524 0.0
C7428 C 0.83556 0.33991 0.87047 0.0
C7429 C 0.84508 0.33122 0.88191 0.0
C7430 C 0.83533 0.35732 0.87113 0.0
C7431 C 0.84488 0.36624 0.88301 0.0
C7432 C 0.85402 0.3575 0.89468 0.0
C7433 C 0.85397 0.34019 0.89425 0.0
C7434 C 0.8629 0.4099 0.87874 0.0
C7435 C 0.84908 0.41957 0.88061 0.0
C7436 C 0.86154 0.39261 0.87997 0.0
C7437 C 0.84626 0.38461 0.88265 0.0
C7438 C 0.83246 0.39422 0.88476 0.0
C7439 C 0.83389 0.41158 0.88396 0.0
H7440 H 0.84903 0.5824 0.14602 0.0
H7441 H 0.84265 0.6288 0.12069 0.0
H7442 H 0.87871 0.58799 0.14684 0.0
H7443 H 0.87188 0.6348 0.12217 0.0
H7444 H 0.92522 0.63518 0.11096 0.0
H7445 H 0.89628 0.62684 0.10995 0.0
H7446 H 0.90076 0.60455 0.15846 0.0
H7447 H 0.92992 0.61231 0.15904 0.0
C7448 C 0.85393 0.59393 0.14091 0.0
C7449 C 0.84345 0.6052 0.13337 0.0
C7450 C 0.87095 0.59716 0.14138 0.0
C7451 C 0.87784 0.61178 0.13437 0.0
C7452 C 0.86719 0.62322 0.12732 0.0
C7453 C 0.85031 0.61992 0.12673 0.0
C7454 C 0.92007 0.62826 0.12127 0.0
C7455 C 0.92984 0.62446 0.13509 0.0
C7456 C 0.9034 0.62363 0.12082 0.0
C7457 C 0.89598 0.61526 0.13428 0.0
C7458 C 0.90596 0.61089 0.14782 0.0
C7459 C 0.9227 0.61539 0.14819 0.0
H7460 H 0.65221 0.57398 0.41415 0.0
H7461 H 0.68348 0.58594 0.37279 0.0
H7462 H 0.64748 0.60365 0.41826 0.0
H7463 H 0.67842 0.61547 0.3766 0.0
H7464 H 0.64528 0.66247 0.37717 0.0
H7465 H 0.65253 0.63348 0.3739 0.0
H7466 H 0.66472 0.63123 0.42607 0.0
H7467 H 0.65793 0.66052 0.42924 0.0
C7468 C 0.6581 0.58294 0.40597 0.0
C7469 C 0.66829 0.57761 0.3932 0.0
C7470 C 0.65545 0.59993 0.40836 0.0
C7471 C 0.66261 0.61195 0.39778 0.0
C7472 C 0.6727 0.60656 0.38495 0.0
C7473 C 0.67564 0.58964 0.3828 0.0
C7474 C 0.64985 0.65592 0.38787 0.0
C7475 C 0.65121 0.6639 0.40341 0.0
C7476 C 0.65395 0.63927 0.38601 0.0
C7477 C 0.65915 0.62998 0.39973 0.0
C7478 C 0.66067 0.638 0.41527 0.0
C7479 C 0.65692 0.65482 0.41706 0.0
H7480 H 0.63582 0.87359 0.68366 0.0
H7481 H 0.58685 0.85196 0.6813 0.0
H7482 H 0.63944 0.86755 0.65425 0.0
H7483 H 0.59028 0.84644 0.6514 0.0
H7484 H 0.60198 0.8626 0.59403 0.0
H7485 H 0.59674 0.86693 0.62381 0.0
H7486 H 0.63931 0.83923 0.63627 0.0
H7487 H 0.64423 0.83449 0.60678 0.0
C7488 C 0.62588 0.86736 0.67689 0.0
C7489 C 0.61116 0.86302 0.68492 0.0
C7490 C 0.62792 0.86399 0.65999 0.0
C7491 C 0.61514 0.85658 0.65047 0.0
C7492 C 0.60032 0.85224 0.65841 0.0
C7493 C 0.59842 0.85525 0.67554 0.0
C7494 C 0.61014 0.85739 0.60316 0.0
C7495 C 0.62349 0.84816 0.59805 0.0
C7496 C 0.60708 0.85977 0.62018 0.0
C7497 C 0.61757 0.85332 0.63239 0.0
C7498 C 0.631 0.8443 0.6272 0.0
C7499 C 0.6338 0.84159 0.61029 0.0
H7500 H 0.42209 0.39899 0.17892 0.0
H7501 H 0.42366 0.38995 0.12616 0.0
H7502 H 0.39302 0.40545 0.17636 0.0
H7503 H 0.39486 0.3969 0.12353 0.0
H7504 H 0.34855 0.42904 0.125 0.0
H7505 H 0.37751 0.42316 0.12835 0.0
H7506 H 0.36555 0.38823 0.16718 0.0
H7507 H 0.33629 0.39384 0.16351 0.0
C7508 C 0.41634 0.3987 0.16673 0.0
C7509 C 0.42527 0.39414 0.15269 0.0
C7510 C 0.39965 0.40223 0.1653 0.0
C7511 C 0.39161 0.40163 0.14975 0.0
C7512 C 0.40069 0.39755 0.13567 0.0
C7513 C 0.41723 0.39366 0.13716 0.0
C7514 C 0.35206 0.4201 0.13428 0.0
C7515 C 0.34011 0.41193 0.14403 0.0
C7516 C 0.36866 0.41671 0.13615 0.0
C7517 C 0.37386 0.40528 0.14806 0.0
C7518 C 0.36194 0.3972 0.15799 0.0
C7519 C 0.34521 0.40035 0.15585 0.0
H7520 H 0.36802 0.60421 0.87013 0.0
H7521 H 0.32251 0.60903 0.89586 0.0
H7522 H 0.37274 0.63401 0.87082 0.0
H7523 H 0.32665 0.63927 0.89579 0.0
H7524 H 0.34744 0.69209 0.90735 0.0
H7525 H 0.34108 0.66239 0.9066 0.0
H7526 H 0.36547 0.65898 0.85942 0.0
H7527 H 0.37252 0.68864 0.86071 0.0
C7528 C 0.35904 0.61165 0.87608 0.0
C7529 C 0.34502 0.60411 0.88317 0.0
C7530 C 0.36158 0.62892 0.87619 0.0
C7531 C 0.35003 0.63937 0.88318 0.0
C7532 C 0.33599 0.63179 0.89043 0.0
C7533 C 0.33355 0.61439 0.89046 0.0
C7534 C 0.35132 0.68503 0.89672 0.0
C7535 C 0.36061 0.69277 0.88414 0.0
C7536 C 0.34759 0.6679 0.89625 0.0
C7537 C 0.35289 0.65796 0.88306 0.0
C7538 C 0.36152 0.66595 0.87005 0.0
C7539 C 0.36541 0.68307 0.87065 0.0
H7540 H 0.06651 0.57911 0.60614 0.0
H7541 H 0.05948 0.58184 0.65914 0.0
H7542 H 0.09609 0.57765 0.61077 0.0
H7543 H 0.08895 0.58057 0.66373 0.0
H7544 H 0.14075 0.6086 0.65774 0.0
H7545 H 0.11114 0.60269 0.65653 0.0
H7546 H 0.11868 0.56077 0.62435 0.0
H7547 H 0.14817 0.56654 0.6257 0.0
C7548 C 0.07124 0.5789 0.61876 0.0
C7549 C 0.06077 0.5807 0.63227 0.0
C7550 C 0.08814 0.5781 0.62142 0.0
C7551 C 0.09477 0.57924 0.63762 0.0
C7552 C 0.08416 0.5799 0.65114 0.0
C7553 C 0.0673 0.58051 0.64849 0.0
C7554 C 0.13607 0.59791 0.65076 0.0
C7555 C 0.14668 0.58808 0.64177 0.0
C7556 C 0.11917 0.5945 0.65007 0.0
C7557 C 0.11267 0.58133 0.64023 0.0
C7558 C 0.12338 0.57107 0.63188 0.0
C7559 C 0.14024 0.57435 0.63274 0.0
H7560 H 0.19885 0.41076 0.40264 0.0
H7561 H 0.1463 0.40491 0.40584 0.0
H7562 H 0.2012 0.38053 0.40472 0.0
H7563 H 0.14863 0.37487 0.40774 0.0
H7564 H 0.19484 0.32392 0.42299 0.0
H7565 H 0.19484 0.35451 0.42422 0.0
H7566 H 0.15775 0.35443 0.38567 0.0
H7567 H 0.15784 0.3244 0.38432 0.0
C7568 C 0.18784 0.40305 0.40408 0.0
C7569 C 0.17238 0.4102 0.40401 0.0
C7570 C 0.1892 0.38576 0.4053 0.0
C7571 C 0.1751 0.3753 0.40623 0.0
C7572 C 0.15972 0.38257 0.40685 0.0
C7573 C 0.15838 0.3998 0.40584 0.0
C7574 C 0.18685 0.33051 0.41468 0.0
C7575 C 0.17637 0.32169 0.40354 0.0
C7576 C 0.18684 0.34799 0.41539 0.0
C7577 C 0.17612 0.35687 0.40519 0.0
C7578 C 0.16596 0.34799 0.39387 0.0
C7579 C 0.16615 0.33071 0.393 0.0
H7580 H 0.43034 0.581 0.38062 0.0
H7581 H 0.42913 0.57342 0.3276 0.0
H7582 H 0.40063 0.58347 0.38055 0.0
H7583 H 0.39928 0.57617 0.32743 0.0
H7584 H 0.34995 0.6058 0.33597 0.0
H7585 H 0.37932 0.60022 0.33381 0.0
H7586 H 0.37503 0.56568 0.37446 0.0
H7587 H 0.34602 0.57103 0.37648 0.0
C7588 C 0.42366 0.57952 0.369 0.0
C7589 C 0.43206 0.57676 0.35419 0.0
C7590 C 0.40664 0.58101 0.36892 0.0
C7591 C 0.39758 0.5801 0.35396 0.0
C7592 C 0.40593 0.57704 0.33914 0.0
C7593 C 0.42298 0.57523 0.33927 0.0
C7594 C 0.35529 0.59689 0.34428 0.0
C7595 C 0.34566 0.58891 0.35642 0.0
C7596 C 0.37207 0.59365 0.34302 0.0
C7597 C 0.37953 0.58257 0.35405 0.0
C7598 C 0.36974 0.57439 0.3659 0.0
C7599 C 0.35306 0.57744 0.36699 0.0
H7600 H 0.17178 0.58863 0.10799 0.0
H7601 H 0.12786 0.59269 0.13678 0.0
H7602 H 0.1755 0.61896 0.10819 0.0
H7603 H 0.13173 0.62279 0.13721 0.0
H7604 H 0.16386 0.67606 0.10114 0.0
H7605 H 0.1621 0.64574 0.09869 0.0
H7606 H 0.15288 0.64204 0.15124 0.0
H7607 H 0.15476 0.67226 0.15369 0.0
C7608 C 0.16276 0.59599 0.11408 0.0
C7609 C 0.14962 0.58824 0.12252 0.0
C7610 C 0.16495 0.61334 0.11427 0.0
C7611 C 0.15412 0.62324 0.12305 0.0
C7612 C 0.1405 0.61549 0.13068 0.0
C7613 C 0.13821 0.59824 0.13031 0.0
C7614 C 0.16186 0.66873 0.11222 0.0
C7615 C 0.15946 0.67653 0.12761 0.0
C7616 C 0.16079 0.65138 0.11081 0.0
C7617 C 0.15707 0.64152 0.12471 0.0
C7618 C 0.15548 0.64932 0.14024 0.0
C7619 C 0.15674 0.66663 0.14169 0.0
H7620 H 0.07201 0.40354 0.8594 0.0
H7621 H 0.07914 0.35642 0.88302 0.0
H7622 H 0.10132 0.41006 0.86142 0.0
H7623 H 0.1085 0.36209 0.88387 0.0
H7624 H 0.16008 0.38055 0.89494 0.0
H7625 H 0.13069 0.37546 0.89494 0.0
H7626 H 0.12633 0.40538 0.85066 0.0
H7627 H 0.15577 0.41152 0.85169 0.0
C7628 C 0.07991 0.3946 0.86507 0.0
C7629 C 0.07331 0.37957 0.87117 0.0
C7630 C 0.0968 0.39818 0.86601 0.0
C7631 C 0.1076 0.38658 0.87265 0.0
C7632 C 0.10079 0.37159 0.87897 0.0
C7633 C 0.08387 0.36825 0.87844 0.0
C7634 C 0.15282 0.386 0.88518 0.0
C7635 C 0.16021 0.39643 0.87329 0.0
C7636 C 0.13587 0.38299 0.88508 0.0
C7637 C 0.12581 0.38995 0.87279 0.0
C7638 C 0.1334 0.40008 0.86062 0.0
C7639 C 0.15036 0.40346 0.86102 0.0
H7640 H 0.34033 0.33795 0.61339 0.0
H7641 H 0.37685 0.35401 0.57808 0.0
H7642 H 0.33241 0.367 0.61692 0.0
H7643 H 0.36918 0.38265 0.58172 0.0
H7644 H 0.3657 0.43251 0.6093 0.0
H7645 H 0.37158 0.40332 0.60539 0.0
H7646 H 0.31994 0.39155 0.59936 0.0
H7647 H 0.3141 0.4211 0.60318 0.0
C7648 C 0.34663 0.34763 0.6064 0.0
C7649 C 0.35921 0.34364 0.59545 0.0
C7650 C 0.34205 0.36424 0.60834 0.0
C7651 C 0.35018 0.37718 0.59961 0.0
C7652 C 0.36273 0.37306 0.58872 0.0
C7653 C 0.36709 0.35658 0.58661 0.0
C7654 C 0.35561 0.42374 0.60703 0.0
C7655 C 0.33948 0.42915 0.60646 0.0
C7656 C 0.35897 0.40698 0.60477 0.0
C7657 C 0.34624 0.39503 0.60211 0.0
C7658 C 0.33002 0.40041 0.60151 0.0
C7659 C 0.32668 0.41734 0.60349 0.0
H7660 H 0.38959 0.17762 0.40805 0.0
H7661 H 0.39883 0.12594 0.41564 0.0
H7662 H 0.39424 0.17425 0.3782 0.0
H7663 H 0.4033 0.1224 0.38589 0.0
H7664 H 0.42453 0.12553 0.33347 0.0
H7665 H 0.42231 0.13063 0.36331 0.0
H7666 H 0.37978 0.15971 0.3543 0.0
H7667 H 0.38205 0.15458 0.32442 0.0
C7668 C 0.39282 0.16558 0.40336 0.0
C7669 C 0.39371 0.15197 0.41415 0.0
C7670 C 0.39532 0.1636 0.38624 0.0
C7671 C 0.39902 0.14802 0.37957 0.0
C7672 C 0.40052 0.13459 0.39054 0.0
C7673 C 0.39781 0.13655 0.40759 0.0
C7674 C 0.41477 0.1331 0.33786 0.0
C7675 C 0.40345 0.13963 0.32659 0.0
C7676 C 0.41344 0.13595 0.35497 0.0
C7677 C 0.40086 0.14558 0.36126 0.0
C7678 C 0.38972 0.15238 0.34991 0.0
C7679 C 0.39095 0.14936 0.33279 0.0
loop_
_geom_bond_atom_site_label_1
_geom_bond_atom_site_label_2
_geom_bond_distance
_geom_bond_site_symmetry_2
_ccdc_geom_bond_type
Tb0 O3 2.453 . S
Tb0 O4 2.596 . S
Tb0 O5 2.374 . S
Tb0 O13 2.343 . S
Tb0 O15 2.353 . S
Tb0 O17 2.427 . S
Tb0 O18 2.513 . S
C1 O5 1.251 . S
C1 O7 1.263 . S
Tb2 O4 2.343 . S
Tb2 O7 2.353 . S
Tb2 O10 2.427 . S
Tb2 O11 2.513 . S
Tb2 O12 2.453 . S
Tb2 O13 2.596 . S
Tb2 O14 2.374 . S
O3 Tb0 2.453 . S
O3 C19 1.245 . S
O4 Tb0 2.596 . S
O4 Tb2 2.343 . S
O4 C19 1.259 . S
O5 Tb0 2.374 . S
O5 C1 1.251 . S
C6 O10 1.275 . S
C6 O11 1.246 . S
O7 C1 1.263 . S
O7 Tb2 2.353 . S
C8 O12 1.245 . S
C8 O13 1.259 . S
C9 O14 1.250 . S
C9 O15 1.263 . S
O10 Tb2 2.427 . S
O10 C6 1.275 . S
O11 Tb2 2.513 . S
O11 C6 1.246 . S
O12 Tb2 2.453 . S
O12 C8 1.245 . S
O13 Tb0 2.343 . S
O13 Tb2 2.596 . S
O13 C8 1.259 . S
O14 Tb2 2.374 . S
O14 C9 1.250 . S
O15 Tb0 2.353 . S
O15 C9 1.263 . S
C16 O17 1.275 . S
C16 O18 1.246 . S
O17 Tb0 2.427 . S
O17 C16 1.275 . S
O18 Tb0 2.513 . S
O18 C16 1.246 . S
C19 O3 1.245 . S
C19 O4 1.259 . S
Tb20 O23 2.453 . S
Tb20 O24 2.596 . S
Tb20 O25 2.374 . S
Tb20 O33 2.343 . S
Tb20 O35 2.353 . S
Tb20 O37 2.427 . S
Tb20 O38 2.513 . S
C21 O25 1.251 . S
C21 O27 1.263 . S
Tb22 O24 2.343 . S
Tb22 O27 2.353 . S
Tb22 O30 2.427 . S
Tb22 O31 2.513 . S
Tb22 O32 2.453 . S
Tb22 O33 2.596 . S
Tb22 O34 2.374 . S
O23 Tb20 2.453 . S
O23 C39 1.245 . S
O24 Tb20 2.596 . S
O24 Tb22 2.343 . S
O24 C39 1.259 . S
O25 Tb20 2.374 . S
O25 C21 1.251 . S
C26 O30 1.275 . S
C26 O31 1.246 . S
O27 C21 1.263 . S
O27 Tb22 2.353 . S
C28 O32 1.245 . S
C28 O33 1.259 . S
C29 O34 1.250 . S
C29 O35 1.263 . S
O30 Tb22 2.427 . S
O30 C26 1.275 . S
O31 Tb22 2.513 . S
O31 C26 1.246 . S
O32 Tb22 2.453 . S
O32 C28 1.245 . S
O33 Tb20 2.343 . S
O33 Tb22 2.596 . S
O33 C28 1.259 . S
O34 Tb22 2.374 . S
O34 C29 1.250 . S
O35 Tb20 2.353 . S
O35 C29 1.263 . S
C36 O37 1.275 . S
C36 O38 1.246 . S
O37 Tb20 2.427 . S
O37 C36 1.275 . S
O38 Tb20 2.513 . S
O38 C36 1.246 . S
C39 O23 1.245 . S
C39 O24 1.259 . S
Tb40 O43 2.453 . S
Tb40 O44 2.596 . S
Tb40 O45 2.374 . S
Tb40 O53 2.343 . S
Tb40 O55 2.353 . S
Tb40 O57 2.427 . S
Tb40 O58 2.513 . S
C41 O45 1.251 . S
C41 O47 1.263 . S
Tb42 O44 2.343 . S
Tb42 O47 2.353 . S
Tb42 O50 2.427 . S
Tb42 O51 2.513 . S
Tb42 O52 2.453 . S
Tb42 O53 2.596 . S
Tb42 O54 2.374 . S
O43 Tb40 2.453 . S
O43 C59 1.245 . S
O44 Tb40 2.596 . S
O44 Tb42 2.343 . S
O44 C59 1.259 . S
O45 Tb40 2.374 . S
O45 C41 1.251 . S
C46 O50 1.275 . S
C46 O51 1.246 . S
O47 C41 1.263 . S
O47 Tb42 2.353 . S
C48 O52 1.245 . S
C48 O53 1.259 . S
C49 O54 1.250 . S
C49 O55 1.263 . S
O50 Tb42 2.427 . S
O50 C46 1.275 . S
O51 Tb42 2.513 . S
O51 C46 1.246 . S
O52 Tb42 2.453 . S
O52 C48 1.245 . S
O53 Tb40 2.343 . S
O53 Tb42 2.596 . S
O53 C48 1.259 . S
O54 Tb42 2.374 . S
O54 C49 1.250 . S
O55 Tb40 2.353 . S
O55 C49 1.263 . S
C56 O57 1.275 . S
C56 O58 1.246 . S
O57 Tb40 2.427 . S
O57 C56 1.275 . S
O58 Tb40 2.513 . S
O58 C56 1.246 . S
C59 O43 1.245 . S
C59 O44 1.259 . S
Tb60 O63 2.453 . S
Tb60 O64 2.596 . S
Tb60 O65 2.374 . S
Tb60 O73 2.343 . S
Tb60 O75 2.353 . S
Tb60 O77 2.427 . S
Tb60 O78 2.513 . S
C61 O65 1.251 . S
C61 O67 1.263 . S
Tb62 O64 2.343 . S
Tb62 O67 2.353 . S
Tb62 O70 2.427 . S
Tb62 O71 2.513 . S
Tb62 O72 2.453 . S
Tb62 O73 2.596 . S
Tb62 O74 2.374 . S
O63 Tb60 2.453 . S
O63 C79 1.245 . S
O64 Tb60 2.596 . S
O64 Tb62 2.343 . S
O64 C79 1.259 . S
O65 Tb60 2.374 . S
O65 C61 1.251 . S
C66 O70 1.275 . S
C66 O71 1.246 . S
O67 C61 1.263 . S
O67 Tb62 2.353 . S
C68 O72 1.245 . S
C68 O73 1.259 . S
C69 O74 1.250 . S
C69 O75 1.263 . S
O70 Tb62 2.427 . S
O70 C66 1.275 . S
O71 Tb62 2.513 . S
O71 C66 1.246 . S
O72 Tb62 2.453 . S
O72 C68 1.245 . S
O73 Tb60 2.343 . S
O73 Tb62 2.596 . S
O73 C68 1.259 . S
O74 Tb62 2.374 . S
O74 C69 1.250 . S
O75 Tb60 2.353 . S
O75 C69 1.263 . S
C76 O77 1.275 . S
C76 O78 1.246 . S
O77 Tb60 2.427 . S
O77 C76 1.275 . S
O78 Tb60 2.513 . S
O78 C76 1.246 . S
C79 O63 1.245 . S
C79 O64 1.259 . S
Tb80 O83 2.453 1_455 S
Tb80 O84 2.596 . S
Tb80 O85 2.374 . S
Tb80 O93 2.343 . S
Tb80 O95 2.353 . S
Tb80 O97 2.427 . S
Tb80 O98 2.513 . S
C81 O85 1.251 . S
C81 O87 1.263 . S
Tb82 O84 2.343 . S
Tb82 O87 2.353 . S
Tb82 O90 2.490 . S
Tb82 O91 2.513 . S
Tb82 O92 2.453 . S
Tb82 O93 2.596 . S
Tb82 O94 2.374 . S
O83 Tb80 2.453 1_655 S
O83 C99 1.245 . S
O84 Tb80 2.596 . S
O84 Tb82 2.343 . S
O84 C99 1.259 1_455 S
O85 Tb80 2.374 . S
O85 C81 1.251 . S
C86 O90 1.274 . S
C86 O91 1.244 . S
O87 C81 1.263 . S
O87 Tb82 2.353 . S
C88 O92 1.245 . S
C88 O93 1.259 . S
C89 O94 1.250 . S
C89 O95 1.263 . S
O90 Tb82 2.490 . S
O90 C86 1.274 . S
O91 Tb82 2.513 . S
O91 C86 1.244 . S
O92 Tb82 2.453 . S
O92 C88 1.245 . S
O93 Tb80 2.343 . S
O93 Tb82 2.596 . S
O93 C88 1.259 . S
O94 Tb82 2.374 . S
O94 C89 1.250 . S
O95 Tb80 2.353 . S
O95 C89 1.263 . S
C96 O97 1.275 . S
C96 O98 1.246 . S
O97 Tb80 2.427 . S
O97 C96 1.275 . S
O98 Tb80 2.513 . S
O98 C96 1.246 . S
C99 O83 1.245 . S
C99 O84 1.259 1_655 S
Tb100 O103 2.453 . S
Tb100 O104 2.596 . S
Tb100 O105 2.374 . S
Tb100 O113 2.343 . S
Tb100 O115 2.353 . S
Tb100 O117 2.427 . S
Tb100 O118 2.513 . S
C101 O105 1.251 . S
C101 O107 1.263 . S
Tb102 O104 2.343 . S
Tb102 O107 2.353 . S
Tb102 O110 2.427 . S
Tb102 O111 2.513 . S
Tb102 O112 2.453 . S
Tb102 O113 2.596 . S
Tb102 O114 2.374 . S
O103 Tb100 2.453 . S
O103 C119 1.245 . S
O104 Tb100 2.596 . S
O104 Tb102 2.343 . S
O104 C119 1.259 . S
O105 Tb100 2.374 . S
O105 C101 1.251 . S
C106 O110 1.275 . S
C106 O111 1.246 . S
O107 C101 1.263 . S
O107 Tb102 2.353 . S
C108 O112 1.245 . S
C108 O113 1.259 . S
C109 O114 1.250 . S
C109 O115 1.263 . S
O110 Tb102 2.427 . S
O110 C106 1.275 . S
O111 Tb102 2.513 . S
O111 C106 1.246 . S
O112 Tb102 2.453 . S
O112 C108 1.245 . S
O113 Tb100 2.343 . S
O113 Tb102 2.596 . S
O113 C108 1.259 . S
O114 Tb102 2.374 . S
O114 C109 1.250 . S
O115 Tb100 2.353 . S
O115 C109 1.263 . S
C116 O117 1.275 . S
C116 O118 1.246 . S
O117 Tb100 2.427 . S
O117 C116 1.275 . S
O118 Tb100 2.513 . S
O118 C116 1.246 . S
C119 O103 1.245 . S
C119 O104 1.259 . S
Tb120 O123 2.453 . S
Tb120 O124 2.596 . S
Tb120 O125 2.374 . S
Tb120 O133 2.343 . S
Tb120 O135 2.353 . S
Tb120 O137 2.427 . S
Tb120 O138 2.513 . S
C121 O125 1.251 . S
C121 O127 1.263 . S
Tb122 O124 2.343 . S
Tb122 O127 2.353 . S
Tb122 O130 2.427 . S
Tb122 O131 2.513 . S
Tb122 O132 2.453 . S
Tb122 O133 2.596 . S
Tb122 O134 2.374 . S
O123 Tb120 2.453 . S
O123 C139 1.245 . S
O124 Tb120 2.596 . S
O124 Tb122 2.343 . S
O124 C139 1.259 . S
O125 Tb120 2.374 . S
O125 C121 1.251 . S
C126 O130 1.275 . S
C126 O131 1.246 . S
O127 C121 1.263 . S
O127 Tb122 2.353 . S
C128 O132 1.245 . S
C128 O133 1.259 . S
C129 O134 1.250 . S
C129 O135 1.263 . S
O130 Tb122 2.427 . S
O130 C126 1.275 . S
O131 Tb122 2.513 . S
O131 C126 1.246 . S
O132 Tb122 2.453 . S
O132 C128 1.245 . S
O133 Tb120 2.343 . S
O133 Tb122 2.596 . S
O133 C128 1.259 . S
O134 Tb122 2.374 . S
O134 C129 1.250 . S
O135 Tb120 2.353 . S
O135 C129 1.263 . S
C136 O137 1.275 . S
C136 O138 1.246 . S
O137 Tb120 2.427 . S
O137 C136 1.275 . S
O138 Tb120 2.513 . S
O138 C136 1.246 . S
C139 O123 1.245 . S
C139 O124 1.259 . S
Tb140 O143 2.453 . S
Tb140 O144 2.596 . S
Tb140 O145 2.374 . S
Tb140 O153 2.343 . S
Tb140 O155 2.353 . S
Tb140 O157 2.427 . S
Tb140 O158 2.513 . S
C141 O145 1.251 . S
C141 O147 1.263 . S
Tb142 O144 2.343 . S
Tb142 O147 2.353 . S
Tb142 O150 2.427 . S
Tb142 O151 2.513 . S
Tb142 O152 2.453 . S
Tb142 O153 2.596 . S
Tb142 O154 2.374 . S
O143 Tb140 2.453 . S
O143 C159 1.245 . S
O144 Tb140 2.596 . S
O144 Tb142 2.343 . S
O144 C159 1.259 . S
O145 Tb140 2.374 . S
O145 C141 1.251 . S
C146 O150 1.275 . S
C146 O151 1.246 . S
O147 C141 1.263 . S
O147 Tb142 2.353 . S
C148 O152 1.245 . S
C148 O153 1.259 . S
C149 O154 1.250 . S
C149 O155 1.263 . S
O150 Tb142 2.427 . S
O150 C146 1.275 . S
O151 Tb142 2.513 . S
O151 C146 1.246 . S
O152 Tb142 2.453 . S
O152 C148 1.245 . S
O153 Tb140 2.343 . S
O153 Tb142 2.596 . S
O153 C148 1.259 . S
O154 Tb142 2.374 . S
O154 C149 1.250 . S
O155 Tb140 2.353 . S
O155 C149 1.263 . S
C156 O157 1.275 . S
C156 O158 1.246 . S
O157 Tb140 2.427 . S
O157 C156 1.275 . S
O158 Tb140 2.513 . S
O158 C156 1.246 . S
C159 O143 1.245 . S
C159 O144 1.259 . S
Tb160 O163 2.453 . S
Tb160 O164 2.596 . S
Tb160 O165 2.374 . S
Tb160 O173 2.343 . S
Tb160 O175 2.353 . S
Tb160 O177 2.427 1_545 S
Tb160 O178 2.513 1_545 S
C161 O165 1.251 . S
C161 O167 1.263 . S
Tb162 O164 2.343 . S
Tb162 O167 2.353 . S
Tb162 O170 2.427 . S
Tb162 O171 2.513 . S
Tb162 O172 2.453 . S
Tb162 O173 2.596 . S
Tb162 O174 2.374 . S
O163 Tb160 2.453 . S
O163 C179 1.245 . S
O164 Tb160 2.596 . S
O164 Tb162 2.343 . S
O164 C179 1.259 . S
O165 Tb160 2.374 . S
O165 C161 1.251 . S
C166 O170 1.275 . S
C166 O171 1.246 . S
O167 C161 1.263 . S
O167 Tb162 2.353 . S
C168 O172 1.245 . S
C168 O173 1.259 . S
C169 O174 1.250 . S
C169 O175 1.263 . S
O170 Tb162 2.427 . S
O170 C166 1.275 . S
O171 Tb162 2.513 . S
O171 C166 1.246 . S
O172 Tb162 2.453 . S
O172 C168 1.245 . S
O173 Tb160 2.343 . S
O173 Tb162 2.596 . S
O173 C168 1.259 . S
O174 Tb162 2.374 . S
O174 C169 1.250 . S
O175 Tb160 2.353 . S
O175 C169 1.263 . S
C176 O177 1.275 . S
C176 O178 1.246 . S
O177 Tb160 2.427 1_565 S
O177 C176 1.275 . S
O178 Tb160 2.513 1_565 S
O178 C176 1.246 . S
C179 O163 1.245 . S
C179 O164 1.259 . S
Tb180 O183 2.453 . S
Tb180 O184 2.596 . S
Tb180 O185 2.374 . S
Tb180 O193 2.343 . S
Tb180 O195 2.353 . S
Tb180 O197 2.427 . S
Tb180 O198 2.513 . S
C181 O185 1.251 . S
C181 O187 1.263 . S
Tb182 O184 2.343 . S
Tb182 O187 2.353 . S
Tb182 O190 2.427 . S
Tb182 O191 2.513 . S
Tb182 O192 2.453 . S
Tb182 O193 2.596 . S
Tb182 O194 2.374 . S
O183 Tb180 2.453 . S
O183 C199 1.245 . S
O184 Tb180 2.596 . S
O184 Tb182 2.343 . S
O184 C199 1.259 . S
O185 Tb180 2.374 . S
O185 C181 1.251 . S
C186 O190 1.275 . S
C186 O191 1.246 . S
O187 C181 1.263 . S
O187 Tb182 2.353 . S
C188 O192 1.245 . S
C188 O193 1.259 . S
C189 O194 1.250 . S
C189 O195 1.263 . S
O190 Tb182 2.427 . S
O190 C186 1.275 . S
O191 Tb182 2.513 . S
O191 C186 1.246 . S
O192 Tb182 2.453 . S
O192 C188 1.245 . S
O193 Tb180 2.343 . S
O193 Tb182 2.596 . S
O193 C188 1.259 . S
O194 Tb182 2.374 . S
O194 C189 1.250 . S
O195 Tb180 2.353 . S
O195 C189 1.263 . S
C196 O197 1.275 . S
C196 O198 1.246 . S
O197 Tb180 2.427 . S
O197 C196 1.275 . S
O198 Tb180 2.513 . S
O198 C196 1.246 . S
C199 O183 1.245 . S
C199 O184 1.259 . S
Tb200 O203 2.453 . S
Tb200 O204 2.596 . S
Tb200 O205 2.374 . S
Tb200 O213 2.343 . S
Tb200 O215 2.353 . S
Tb200 O217 2.427 . S
Tb200 O218 2.513 . S
C201 O205 1.251 . S
C201 O207 1.263 . S
Tb202 O204 2.343 . S
Tb202 O207 2.353 . S
Tb202 O210 2.427 . S
Tb202 O211 2.513 . S
Tb202 O212 2.453 . S
Tb202 O213 2.596 . S
Tb202 O214 2.374 . S
O203 Tb200 2.453 . S
O203 C219 1.245 . S
O204 Tb200 2.596 . S
O204 Tb202 2.343 . S
O204 C219 1.259 . S
O205 Tb200 2.374 . S
O205 C201 1.251 . S
C206 O210 1.275 . S
C206 O211 1.246 . S
O207 C201 1.263 . S
O207 Tb202 2.353 . S
C208 O212 1.245 . S
C208 O213 1.259 . S
C209 O214 1.250 . S
C209 O215 1.263 . S
O210 Tb202 2.427 . S
O210 C206 1.275 . S
O211 Tb202 2.513 . S
O211 C206 1.246 . S
O212 Tb202 2.453 . S
O212 C208 1.245 . S
O213 Tb200 2.343 . S
O213 Tb202 2.596 . S
O213 C208 1.259 . S
O214 Tb202 2.374 . S
O214 C209 1.250 . S
O215 Tb200 2.353 . S
O215 C209 1.263 . S
C216 O217 1.275 . S
C216 O218 1.246 . S
O217 Tb200 2.427 . S
O217 C216 1.275 . S
O218 Tb200 2.513 . S
O218 C216 1.246 . S
C219 O203 1.245 . S
C219 O204 1.259 . S
Tb220 O223 2.453 . S
Tb220 O224 2.596 . S
Tb220 O225 2.374 . S
Tb220 O233 2.343 . S
Tb220 O235 2.353 . S
Tb220 O237 2.427 . S
Tb220 O238 2.513 . S
C221 O225 1.251 . S
C221 O227 1.263 . S
Tb222 O224 2.343 . S
Tb222 O227 2.353 . S
Tb222 O230 2.427 . S
Tb222 O231 2.513 . S
Tb222 O232 2.453 . S
Tb222 O233 2.596 . S
Tb222 O234 2.374 . S
O223 Tb220 2.453 . S
O223 C239 1.245 . S
O224 Tb220 2.596 . S
O224 Tb222 2.343 . S
O224 C239 1.259 . S
O225 Tb220 2.374 . S
O225 C221 1.251 . S
C226 O230 1.275 . S
C226 O231 1.246 . S
O227 C221 1.263 . S
O227 Tb222 2.353 . S
C228 O232 1.245 . S
C228 O233 1.259 . S
C229 O234 1.250 . S
C229 O235 1.263 . S
O230 Tb222 2.427 . S
O230 C226 1.275 . S
O231 Tb222 2.513 . S
O231 C226 1.246 . S
O232 Tb222 2.453 . S
O232 C228 1.245 . S
O233 Tb220 2.343 . S
O233 Tb222 2.596 . S
O233 C228 1.259 . S
O234 Tb222 2.374 . S
O234 C229 1.250 . S
O235 Tb220 2.353 . S
O235 C229 1.263 . S
C236 O237 1.275 . S
C236 O238 1.246 . S
O237 Tb220 2.427 . S
O237 C236 1.275 . S
O238 Tb220 2.513 . S
O238 C236 1.246 . S
C239 O223 1.245 . S
C239 O224 1.259 . S
Tb240 O243 2.453 . S
Tb240 O244 2.596 . S
Tb240 O245 2.374 . S
Tb240 O253 2.343 . S
Tb240 O255 2.353 . S
Tb240 O257 2.427 . S
Tb240 O258 2.513 . S
C241 O245 1.251 . S
C241 O247 1.263 . S
Tb242 O244 2.343 . S
Tb242 O247 2.353 . S
Tb242 O250 2.427 . S
Tb242 O251 2.513 . S
Tb242 O252 2.453 . S
Tb242 O253 2.596 . S
Tb242 O254 2.374 . S
O243 Tb240 2.453 . S
O243 C259 1.245 . S
O244 Tb240 2.596 . S
O244 Tb242 2.343 . S
O244 C259 1.259 . S
O245 Tb240 2.374 . S
O245 C241 1.251 . S
C246 O250 1.275 . S
C246 O251 1.246 . S
O247 C241 1.263 . S
O247 Tb242 2.353 . S
C248 O252 1.245 . S
C248 O253 1.259 . S
C249 O254 1.250 . S
C249 O255 1.263 . S
O250 Tb242 2.427 . S
O250 C246 1.275 . S
O251 Tb242 2.513 . S
O251 C246 1.246 . S
O252 Tb242 2.453 . S
O252 C248 1.245 . S
O253 Tb240 2.343 . S
O253 Tb242 2.596 . S
O253 C248 1.259 . S
O254 Tb242 2.374 . S
O254 C249 1.250 . S
O255 Tb240 2.353 . S
O255 C249 1.263 . S
C256 O257 1.275 . S
C256 O258 1.246 . S
O257 Tb240 2.427 . S
O257 C256 1.275 . S
O258 Tb240 2.513 . S
O258 C256 1.246 . S
C259 O243 1.245 . S
C259 O244 1.259 . S
Tb260 O263 2.453 . S
Tb260 O264 2.596 . S
Tb260 O265 2.374 . S
Tb260 O273 2.343 . S
Tb260 O275 2.353 . S
Tb260 O277 2.427 . S
Tb260 O278 2.513 . S
C261 O265 1.251 . S
C261 O267 1.263 . S
Tb262 O264 2.343 . S
Tb262 O267 2.353 . S
Tb262 O270 2.427 . S
Tb262 O271 2.513 . S
Tb262 O272 2.453 . S
Tb262 O273 2.596 . S
Tb262 O274 2.374 . S
O263 Tb260 2.453 . S
O263 C279 1.245 . S
O264 Tb260 2.596 . S
O264 Tb262 2.343 . S
O264 C279 1.259 . S
O265 Tb260 2.374 . S
O265 C261 1.251 . S
C266 O270 1.275 . S
C266 O271 1.246 . S
O267 C261 1.263 . S
O267 Tb262 2.353 . S
C268 O272 1.245 . S
C268 O273 1.259 . S
C269 O274 1.250 . S
C269 O275 1.263 . S
O270 Tb262 2.427 . S
O270 C266 1.275 . S
O271 Tb262 2.513 . S
O271 C266 1.246 . S
O272 Tb262 2.453 . S
O272 C268 1.245 . S
O273 Tb260 2.343 . S
O273 Tb262 2.596 . S
O273 C268 1.259 . S
O274 Tb262 2.374 . S
O274 C269 1.250 . S
O275 Tb260 2.353 . S
O275 C269 1.263 . S
C276 O277 1.275 . S
C276 O278 1.246 . S
O277 Tb260 2.427 . S
O277 C276 1.275 . S
O278 Tb260 2.513 . S
O278 C276 1.246 . S
C279 O263 1.245 . S
C279 O264 1.259 . S
Tb280 O283 2.453 1_545 S
Tb280 O284 2.596 . S
Tb280 O285 2.374 . S
Tb280 O293 2.343 . S
Tb280 O295 2.353 . S
Tb280 O297 2.427 . S
Tb280 O298 2.513 . S
C281 O285 1.251 . S
C281 O287 1.263 . S
Tb282 O284 2.343 . S
Tb282 O287 2.353 . S
Tb282 O290 2.427 . S
Tb282 O291 2.513 . S
Tb282 O292 2.453 . S
Tb282 O293 2.596 . S
Tb282 O294 2.374 . S
O283 Tb280 2.453 1_565 S
O283 C299 1.245 . S
O284 Tb280 2.596 . S
O284 Tb282 2.343 . S
O284 C299 1.259 1_545 S
O285 Tb280 2.374 . S
O285 C281 1.251 . S
C286 O290 1.275 . S
C286 O291 1.246 . S
O287 C281 1.263 . S
O287 Tb282 2.353 . S
C288 O292 1.245 . S
C288 O293 1.259 . S
C289 O294 1.250 . S
C289 O295 1.263 . S
O290 Tb282 2.427 . S
O290 C286 1.275 . S
O291 Tb282 2.513 . S
O291 C286 1.246 . S
O292 Tb282 2.453 . S
O292 C288 1.245 . S
O293 Tb280 2.343 . S
O293 Tb282 2.596 . S
O293 C288 1.259 . S
O294 Tb282 2.374 . S
O294 C289 1.250 . S
O295 Tb280 2.353 . S
O295 C289 1.263 . S
C296 O297 1.275 . S
C296 O298 1.246 . S
O297 Tb280 2.427 . S
O297 C296 1.275 . S
O298 Tb280 2.513 . S
O298 C296 1.246 . S
C299 O283 1.245 . S
C299 O284 1.259 1_565 S
Tb300 O303 2.453 . S
Tb300 O304 2.596 . S
Tb300 O305 2.374 . S
Tb300 O313 2.343 . S
Tb300 O315 2.353 . S
Tb300 O317 2.427 . S
Tb300 O318 2.513 . S
C301 O305 1.251 . S
C301 O307 1.263 . S
Tb302 O304 2.343 . S
Tb302 O307 2.353 . S
Tb302 O310 2.427 . S
Tb302 O311 2.513 . S
Tb302 O312 2.453 . S
Tb302 O313 2.596 . S
Tb302 O314 2.374 . S
O303 Tb300 2.453 . S
O303 C319 1.245 . S
O304 Tb300 2.596 . S
O304 Tb302 2.343 . S
O304 C319 1.259 . S
O305 Tb300 2.374 . S
O305 C301 1.251 . S
C306 O310 1.275 . S
C306 O311 1.246 . S
O307 C301 1.263 . S
O307 Tb302 2.353 . S
C308 O312 1.245 . S
C308 O313 1.259 . S
C309 O314 1.250 . S
C309 O315 1.263 . S
O310 Tb302 2.427 . S
O310 C306 1.275 . S
O311 Tb302 2.513 . S
O311 C306 1.246 . S
O312 Tb302 2.453 . S
O312 C308 1.245 . S
O313 Tb300 2.343 . S
O313 Tb302 2.596 . S
O313 C308 1.259 . S
O314 Tb302 2.374 . S
O314 C309 1.250 . S
O315 Tb300 2.353 . S
O315 C309 1.263 . S
C316 O317 1.275 . S
C316 O318 1.246 . S
O317 Tb300 2.427 . S
O317 C316 1.275 . S
O318 Tb300 2.513 . S
O318 C316 1.246 . S
C319 O303 1.245 . S
C319 O304 1.259 . S
Tb320 O323 2.453 . S
Tb320 O324 2.596 . S
Tb320 O325 2.374 . S
Tb320 O333 2.343 . S
Tb320 O335 2.353 . S
Tb320 O337 2.427 . S
Tb320 O338 2.513 . S
C321 O325 1.251 . S
C321 O327 1.263 . S
Tb322 O324 2.343 . S
Tb322 O327 2.353 . S
Tb322 O330 2.427 . S
Tb322 O331 2.513 . S
Tb322 O332 2.453 . S
Tb322 O333 2.596 . S
Tb322 O334 2.374 . S
O323 Tb320 2.453 . S
O323 C339 1.245 . S
O324 Tb320 2.596 . S
O324 Tb322 2.343 . S
O324 C339 1.259 . S
O325 Tb320 2.374 . S
O325 C321 1.251 . S
C326 O330 1.275 . S
C326 O331 1.246 . S
O327 C321 1.263 . S
O327 Tb322 2.353 . S
C328 O332 1.245 . S
C328 O333 1.259 . S
C329 O334 1.250 . S
C329 O335 1.263 . S
O330 Tb322 2.427 . S
O330 C326 1.275 . S
O331 Tb322 2.513 . S
O331 C326 1.246 . S
O332 Tb322 2.453 . S
O332 C328 1.245 . S
O333 Tb320 2.343 . S
O333 Tb322 2.596 . S
O333 C328 1.259 . S
O334 Tb322 2.374 . S
O334 C329 1.250 . S
O335 Tb320 2.353 . S
O335 C329 1.263 . S
C336 O337 1.275 . S
C336 O338 1.246 . S
O337 Tb320 2.427 . S
O337 C336 1.275 . S
O338 Tb320 2.513 . S
O338 C336 1.246 . S
C339 O323 1.245 . S
C339 O324 1.259 . S
Tb340 O343 2.453 1_556 S
Tb340 O344 2.596 . S
Tb340 O345 2.374 . S
Tb340 O353 2.343 . S
Tb340 O355 2.353 . S
Tb340 O357 2.427 . S
Tb340 O358 2.513 . S
C341 O345 1.251 . S
C341 O347 1.263 . S
Tb342 O344 2.343 . S
Tb342 O347 2.353 . S
Tb342 O350 2.400 1_556 S
Tb342 O351 2.513 . S
Tb342 O352 2.453 . S
Tb342 O353 2.596 . S
Tb342 O354 2.374 . S
O343 Tb340 2.453 1_554 S
O343 C359 1.245 . S
O344 Tb340 2.596 . S
O344 Tb342 2.343 . S
O344 C359 1.259 1_556 S
O345 Tb340 2.374 . S
O345 C341 1.251 . S
C346 O350 1.278 . S
C346 O351 1.246 1_554 S
O347 C341 1.263 . S
O347 Tb342 2.353 . S
C348 O352 1.245 . S
C348 O353 1.259 . S
C349 O354 1.250 . S
C349 O355 1.263 . S
O350 Tb342 2.400 1_554 S
O350 C346 1.278 . S
O351 Tb342 2.513 . S
O351 C346 1.246 1_556 S
O352 Tb342 2.453 . S
O352 C348 1.245 . S
O353 Tb340 2.343 . S
O353 Tb342 2.596 . S
O353 C348 1.259 . S
O354 Tb342 2.374 . S
O354 C349 1.250 . S
O355 Tb340 2.353 . S
O355 C349 1.263 . S
C356 O357 1.275 . S
C356 O358 1.246 . S
O357 Tb340 2.427 . S
O357 C356 1.275 . S
O358 Tb340 2.513 . S
O358 C356 1.246 . S
C359 O343 1.245 . S
C359 O344 1.259 1_554 S
Tb360 O363 2.453 . S
Tb360 O364 2.596 . S
Tb360 O365 2.374 . S
Tb360 O373 2.343 . S
Tb360 O375 2.353 . S
Tb360 O377 2.427 . S
Tb360 O378 2.513 . S
C361 O365 1.251 . S
C361 O367 1.263 . S
Tb362 O364 2.343 . S
Tb362 O367 2.353 . S
Tb362 O370 2.427 . S
Tb362 O371 2.513 . S
Tb362 O372 2.453 . S
Tb362 O373 2.596 . S
Tb362 O374 2.374 . S
O363 Tb360 2.453 . S
O363 C379 1.245 . S
O364 Tb360 2.596 . S
O364 Tb362 2.343 . S
O364 C379 1.259 . S
O365 Tb360 2.374 . S
O365 C361 1.251 . S
C366 O370 1.275 . S
C366 O371 1.246 . S
O367 C361 1.263 . S
O367 Tb362 2.353 . S
C368 O372 1.245 . S
C368 O373 1.259 . S
C369 O374 1.250 . S
C369 O375 1.263 . S
O370 Tb362 2.427 . S
O370 C366 1.275 . S
O371 Tb362 2.513 . S
O371 C366 1.246 . S
O372 Tb362 2.453 . S
O372 C368 1.245 . S
O373 Tb360 2.343 . S
O373 Tb362 2.596 . S
O373 C368 1.259 . S
O374 Tb362 2.374 . S
O374 C369 1.250 . S
O375 Tb360 2.353 . S
O375 C369 1.263 . S
C376 O377 1.275 . S
C376 O378 1.246 . S
O377 Tb360 2.427 . S
O377 C376 1.275 . S
O378 Tb360 2.513 . S
O378 C376 1.246 . S
C379 O363 1.245 . S
C379 O364 1.259 . S
Tb380 O383 2.453 . S
Tb380 O384 2.596 . S
Tb380 O385 2.374 . S
Tb380 O393 2.343 . S
Tb380 O395 2.353 . S
Tb380 O397 2.427 . S
Tb380 O398 2.513 . S
C381 O385 1.251 . S
C381 O387 1.263 . S
Tb382 O384 2.343 . S
Tb382 O387 2.353 . S
Tb382 O390 2.427 . S
Tb382 O391 2.513 . S
Tb382 O392 2.453 . S
Tb382 O393 2.596 . S
Tb382 O394 2.374 . S
O383 Tb380 2.453 . S
O383 C399 1.245 . S
O384 Tb380 2.596 . S
O384 Tb382 2.343 . S
O384 C399 1.259 . S
O385 Tb380 2.374 . S
O385 C381 1.251 . S
C386 O390 1.275 . S
C386 O391 1.246 . S
O387 C381 1.263 . S
O387 Tb382 2.353 . S
C388 O392 1.245 . S
C388 O393 1.259 . S
C389 O394 1.250 . S
C389 O395 1.263 . S
O390 Tb382 2.427 . S
O390 C386 1.275 . S
O391 Tb382 2.513 . S
O391 C386 1.246 . S
O392 Tb382 2.453 . S
O392 C388 1.245 . S
O393 Tb380 2.343 . S
O393 Tb382 2.596 . S
O393 C388 1.259 . S
O394 Tb382 2.374 . S
O394 C389 1.250 . S
O395 Tb380 2.353 . S
O395 C389 1.263 . S
C396 O397 1.275 . S
C396 O398 1.246 . S
O397 Tb380 2.427 . S
O397 C396 1.275 . S
O398 Tb380 2.513 . S
O398 C396 1.246 . S
C399 O383 1.245 . S
C399 O384 1.259 . S
Tb400 O403 2.453 . S
Tb400 O404 2.596 . S
Tb400 O405 2.374 . S
Tb400 O413 2.343 . S
Tb400 O415 2.353 . S
Tb400 O417 2.427 . S
Tb400 O418 2.513 . S
C401 O405 1.251 . S
C401 O407 1.263 . S
Tb402 O404 2.343 . S
Tb402 O407 2.353 . S
Tb402 O410 2.427 . S
Tb402 O411 2.513 . S
Tb402 O412 2.453 . S
Tb402 O413 2.596 . S
Tb402 O414 2.374 . S
O403 Tb400 2.453 . S
O403 C419 1.245 . S
O404 Tb400 2.596 . S
O404 Tb402 2.343 . S
O404 C419 1.259 . S
O405 Tb400 2.374 . S
O405 C401 1.251 . S
C406 O410 1.275 . S
C406 O411 1.246 . S
O407 C401 1.263 . S
O407 Tb402 2.353 . S
C408 O412 1.245 . S
C408 O413 1.259 . S
C409 O414 1.250 . S
C409 O415 1.263 . S
O410 Tb402 2.427 . S
O410 C406 1.275 . S
O411 Tb402 2.513 . S
O411 C406 1.246 . S
O412 Tb402 2.453 . S
O412 C408 1.245 . S
O413 Tb400 2.343 . S
O413 Tb402 2.596 . S
O413 C408 1.259 . S
O414 Tb402 2.374 . S
O414 C409 1.250 . S
O415 Tb400 2.353 . S
O415 C409 1.263 . S
C416 O417 1.275 . S
C416 O418 1.246 . S
O417 Tb400 2.427 . S
O417 C416 1.275 . S
O418 Tb400 2.513 . S
O418 C416 1.246 . S
C419 O403 1.245 . S
C419 O404 1.259 . S
Tb420 O423 2.453 . S
Tb420 O424 2.596 . S
Tb420 O425 2.374 . S
Tb420 O433 2.343 . S
Tb420 O435 2.353 . S
Tb420 O437 2.427 . S
Tb420 O438 2.513 . S
C421 O425 1.251 . S
C421 O427 1.263 . S
Tb422 O424 2.343 . S
Tb422 O427 2.353 . S
Tb422 O430 2.427 . S
Tb422 O431 2.513 . S
Tb422 O432 2.453 . S
Tb422 O433 2.596 . S
Tb422 O434 2.374 . S
O423 Tb420 2.453 . S
O423 C439 1.245 . S
O424 Tb420 2.596 . S
O424 Tb422 2.343 . S
O424 C439 1.259 . S
O425 Tb420 2.374 . S
O425 C421 1.251 . S
C426 O430 1.275 . S
C426 O431 1.246 . S
O427 C421 1.263 . S
O427 Tb422 2.353 . S
C428 O432 1.245 . S
C428 O433 1.259 . S
C429 O434 1.250 . S
C429 O435 1.263 . S
O430 Tb422 2.427 . S
O430 C426 1.275 . S
O431 Tb422 2.513 . S
O431 C426 1.246 . S
O432 Tb422 2.453 . S
O432 C428 1.245 . S
O433 Tb420 2.343 . S
O433 Tb422 2.596 . S
O433 C428 1.259 . S
O434 Tb422 2.374 . S
O434 C429 1.250 . S
O435 Tb420 2.353 . S
O435 C429 1.263 . S
C436 O437 1.275 . S
C436 O438 1.246 . S
O437 Tb420 2.427 . S
O437 C436 1.275 . S
O438 Tb420 2.513 . S
O438 C436 1.246 . S
C439 O423 1.245 . S
C439 O424 1.259 . S
Tb440 O443 2.453 . S
Tb440 O444 2.596 . S
Tb440 O445 2.374 . S
Tb440 O453 2.343 . S
Tb440 O455 2.353 . S
Tb440 O457 2.427 . S
Tb440 O458 2.513 . S
C441 O445 1.251 . S
C441 O447 1.263 . S
Tb442 O444 2.343 . S
Tb442 O447 2.353 . S
Tb442 O450 2.427 . S
Tb442 O451 2.513 . S
Tb442 O452 2.453 . S
Tb442 O453 2.596 . S
Tb442 O454 2.374 . S
O443 Tb440 2.453 . S
O443 C459 1.245 . S
O444 Tb440 2.596 . S
O444 Tb442 2.343 . S
O444 C459 1.259 . S
O445 Tb440 2.374 . S
O445 C441 1.251 . S
C446 O450 1.275 . S
C446 O451 1.246 . S
O447 C441 1.263 . S
O447 Tb442 2.353 . S
C448 O452 1.245 . S
C448 O453 1.259 . S
C449 O454 1.250 . S
C449 O455 1.263 . S
O450 Tb442 2.427 . S
O450 C446 1.275 . S
O451 Tb442 2.513 . S
O451 C446 1.246 . S
O452 Tb442 2.453 . S
O452 C448 1.245 . S
O453 Tb440 2.343 . S
O453 Tb442 2.596 . S
O453 C448 1.259 . S
O454 Tb442 2.374 . S
O454 C449 1.250 . S
O455 Tb440 2.353 . S
O455 C449 1.263 . S
C456 O457 1.275 . S
C456 O458 1.246 . S
O457 Tb440 2.427 . S
O457 C456 1.275 . S
O458 Tb440 2.513 . S
O458 C456 1.246 . S
C459 O443 1.245 . S
C459 O444 1.259 . S
Tb460 O463 2.453 . S
Tb460 O464 2.596 . S
Tb460 O465 2.374 . S
Tb460 O473 2.343 . S
Tb460 O475 2.353 . S
Tb460 O477 2.427 . S
Tb460 O478 2.513 . S
C461 O465 1.251 . S
C461 O467 1.263 . S
Tb462 O464 2.343 . S
Tb462 O467 2.353 . S
Tb462 O470 2.427 . S
Tb462 O471 2.513 . S
Tb462 O472 2.453 . S
Tb462 O473 2.596 . S
Tb462 O474 2.374 . S
O463 Tb460 2.453 . S
O463 C479 1.245 . S
O464 Tb460 2.596 . S
O464 Tb462 2.343 . S
O464 C479 1.259 . S
O465 Tb460 2.374 . S
O465 C461 1.251 . S
C466 O470 1.275 . S
C466 O471 1.246 . S
O467 C461 1.263 . S
O467 Tb462 2.353 . S
C468 O472 1.245 . S
C468 O473 1.259 . S
C469 O474 1.250 . S
C469 O475 1.263 . S
O470 Tb462 2.427 . S
O470 C466 1.275 . S
O471 Tb462 2.513 . S
O471 C466 1.246 . S
O472 Tb462 2.453 . S
O472 C468 1.245 . S
O473 Tb460 2.343 . S
O473 Tb462 2.596 . S
O473 C468 1.259 . S
O474 Tb462 2.374 . S
O474 C469 1.250 . S
O475 Tb460 2.353 . S
O475 C469 1.263 . S
C476 O477 1.275 . S
C476 O478 1.246 . S
O477 Tb460 2.427 . S
O477 C476 1.275 . S
O478 Tb460 2.513 . S
O478 C476 1.246 . S
C479 O463 1.245 . S
C479 O464 1.259 . S
Tb480 O483 2.453 . S
Tb480 O484 2.596 . S
Tb480 O485 2.374 . S
Tb480 O493 2.343 . S
Tb480 O495 2.353 . S
Tb480 O497 2.427 . S
Tb480 O498 2.513 . S
C481 O485 1.251 . S
C481 O487 1.263 . S
Tb482 O484 2.343 . S
Tb482 O487 2.353 . S
Tb482 O490 2.427 . S
Tb482 O491 2.513 . S
Tb482 O492 2.453 . S
Tb482 O493 2.596 . S
Tb482 O494 2.374 . S
O483 Tb480 2.453 . S
O483 C499 1.245 . S
O484 Tb480 2.596 . S
O484 Tb482 2.343 . S
O484 C499 1.259 . S
O485 Tb480 2.374 . S
O485 C481 1.251 . S
C486 O490 1.275 . S
C486 O491 1.246 . S
O487 C481 1.263 . S
O487 Tb482 2.353 . S
C488 O492 1.245 . S
C488 O493 1.259 . S
C489 O494 1.250 . S
C489 O495 1.263 . S
O490 Tb482 2.427 . S
O490 C486 1.275 . S
O491 Tb482 2.513 . S
O491 C486 1.246 . S
O492 Tb482 2.453 . S
O492 C488 1.245 . S
O493 Tb480 2.343 . S
O493 Tb482 2.596 . S
O493 C488 1.259 . S
O494 Tb482 2.374 . S
O494 C489 1.250 . S
O495 Tb480 2.353 . S
O495 C489 1.263 . S
C496 O497 1.275 . S
C496 O498 1.246 . S
O497 Tb480 2.427 . S
O497 C496 1.275 . S
O498 Tb480 2.513 . S
O498 C496 1.246 . S
C499 O483 1.245 . S
C499 O484 1.259 . S
Tb500 O503 2.453 . S
Tb500 O504 2.596 . S
Tb500 O505 2.374 . S
Tb500 O513 2.343 . S
Tb500 O515 2.353 . S
Tb500 O517 2.427 . S
Tb500 O518 2.513 . S
C501 O505 1.251 . S
C501 O507 1.263 . S
Tb502 O504 2.343 . S
Tb502 O507 2.353 . S
Tb502 O510 2.427 . S
Tb502 O511 2.513 . S
Tb502 O512 2.453 . S
Tb502 O513 2.596 . S
Tb502 O514 2.374 . S
O503 Tb500 2.453 . S
O503 C519 1.245 . S
O504 Tb500 2.596 . S
O504 Tb502 2.343 . S
O504 C519 1.259 . S
O505 Tb500 2.374 . S
O505 C501 1.251 . S
C506 O510 1.275 . S
C506 O511 1.246 . S
O507 C501 1.263 . S
O507 Tb502 2.353 . S
C508 O512 1.245 . S
C508 O513 1.259 . S
C509 O514 1.250 . S
C509 O515 1.263 . S
O510 Tb502 2.427 . S
O510 C506 1.275 . S
O511 Tb502 2.513 . S
O511 C506 1.246 . S
O512 Tb502 2.453 . S
O512 C508 1.245 . S
O513 Tb500 2.343 . S
O513 Tb502 2.596 . S
O513 C508 1.259 . S
O514 Tb502 2.374 . S
O514 C509 1.250 . S
O515 Tb500 2.353 . S
O515 C509 1.263 . S
C516 O517 1.275 . S
C516 O518 1.246 . S
O517 Tb500 2.427 . S
O517 C516 1.275 . S
O518 Tb500 2.513 . S
O518 C516 1.246 . S
C519 O503 1.245 . S
C519 O504 1.259 . S
Tb520 O523 2.453 . S
Tb520 O524 2.596 . S
Tb520 O525 2.374 . S
Tb520 O533 2.343 . S
Tb520 O535 2.353 . S
Tb520 O537 2.427 . S
Tb520 O538 2.513 . S
C521 O525 1.251 . S
C521 O527 1.263 . S
Tb522 O524 2.343 . S
Tb522 O527 2.353 . S
Tb522 O530 2.427 . S
Tb522 O531 2.513 . S
Tb522 O532 2.453 . S
Tb522 O533 2.596 . S
Tb522 O534 2.374 . S
O523 Tb520 2.453 . S
O523 C539 1.245 . S
O524 Tb520 2.596 . S
O524 Tb522 2.343 . S
O524 C539 1.259 . S
O525 Tb520 2.374 . S
O525 C521 1.251 . S
C526 O530 1.275 . S
C526 O531 1.246 . S
O527 C521 1.263 . S
O527 Tb522 2.353 . S
C528 O532 1.245 . S
C528 O533 1.259 . S
C529 O534 1.250 . S
C529 O535 1.263 . S
O530 Tb522 2.427 . S
O530 C526 1.275 . S
O531 Tb522 2.513 . S
O531 C526 1.246 . S
O532 Tb522 2.453 . S
O532 C528 1.245 . S
O533 Tb520 2.343 . S
O533 Tb522 2.596 . S
O533 C528 1.259 . S
O534 Tb522 2.374 . S
O534 C529 1.250 . S
O535 Tb520 2.353 . S
O535 C529 1.263 . S
C536 O537 1.275 . S
C536 O538 1.246 . S
O537 Tb520 2.427 . S
O537 C536 1.275 . S
O538 Tb520 2.513 . S
O538 C536 1.246 . S
C539 O523 1.245 . S
C539 O524 1.259 . S
Tb540 O543 2.453 . S
Tb540 O544 2.596 . S
Tb540 O545 2.374 . S
Tb540 O553 2.343 . S
Tb540 O555 2.353 . S
Tb540 O557 2.427 . S
Tb540 O558 2.513 . S
C541 O545 1.251 . S
C541 O547 1.263 . S
Tb542 O544 2.343 . S
Tb542 O547 2.353 . S
Tb542 O550 2.427 . S
Tb542 O551 2.513 . S
Tb542 O552 2.453 . S
Tb542 O553 2.596 . S
Tb542 O554 2.374 . S
O543 Tb540 2.453 . S
O543 C559 1.245 . S
O544 Tb540 2.596 . S
O544 Tb542 2.343 . S
O544 C559 1.259 . S
O545 Tb540 2.374 . S
O545 C541 1.251 . S
C546 O550 1.275 . S
C546 O551 1.246 . S
O547 C541 1.263 . S
O547 Tb542 2.353 . S
C548 O552 1.245 . S
C548 O553 1.259 . S
C549 O554 1.250 . S
C549 O555 1.263 . S
O550 Tb542 2.427 . S
O550 C546 1.275 . S
O551 Tb542 2.513 . S
O551 C546 1.246 . S
O552 Tb542 2.453 . S
O552 C548 1.245 . S
O553 Tb540 2.343 . S
O553 Tb542 2.596 . S
O553 C548 1.259 . S
O554 Tb542 2.374 . S
O554 C549 1.250 . S
O555 Tb540 2.353 . S
O555 C549 1.263 . S
C556 O557 1.275 . S
C556 O558 1.246 . S
O557 Tb540 2.427 . S
O557 C556 1.275 . S
O558 Tb540 2.513 . S
O558 C556 1.246 . S
C559 O543 1.245 . S
C559 O544 1.259 . S
Tb560 O563 2.453 . S
Tb560 O564 2.596 . S
Tb560 O565 2.374 . S
Tb560 O573 2.343 . S
Tb560 O575 2.353 . S
Tb560 O577 2.490 . S
Tb560 O578 2.513 . S
C561 O565 1.251 . S
C561 O567 1.263 . S
Tb562 O564 2.343 . S
Tb562 O567 2.353 . S
Tb562 O570 2.427 . S
Tb562 O571 2.513 . S
Tb562 O572 2.453 1_655 S
Tb562 O573 2.596 . S
Tb562 O574 2.374 . S
O563 Tb560 2.453 . S
O563 C579 1.245 . S
O564 Tb560 2.596 . S
O564 Tb562 2.343 . S
O564 C579 1.259 . S
O565 Tb560 2.374 . S
O565 C561 1.251 . S
C566 O570 1.275 . S
C566 O571 1.246 . S
O567 C561 1.263 . S
O567 Tb562 2.353 . S
C568 O572 1.245 . S
C568 O573 1.259 1_455 S
C569 O574 1.250 . S
C569 O575 1.263 . S
O570 Tb562 2.427 . S
O570 C566 1.275 . S
O571 Tb562 2.513 . S
O571 C566 1.246 . S
O572 Tb562 2.453 1_455 S
O572 C568 1.245 . S
O573 Tb560 2.343 . S
O573 Tb562 2.596 . S
O573 C568 1.259 1_655 S
O574 Tb562 2.374 . S
O574 C569 1.250 . S
O575 Tb560 2.353 . S
O575 C569 1.263 . S
C576 O577 1.274 . S
C576 O578 1.244 . S
O577 Tb560 2.490 . S
O577 C576 1.274 . S
O578 Tb560 2.513 . S
O578 C576 1.244 . S
C579 O563 1.245 . S
C579 O564 1.259 . S
Tb580 O583 2.453 . S
Tb580 O584 2.596 . S
Tb580 O585 2.374 . S
Tb580 O593 2.343 . S
Tb580 O595 2.353 . S
Tb580 O597 2.427 . S
Tb580 O598 2.513 . S
C581 O585 1.251 . S
C581 O587 1.263 . S
Tb582 O584 2.343 . S
Tb582 O587 2.353 . S
Tb582 O590 2.427 . S
Tb582 O591 2.513 . S
Tb582 O592 2.453 . S
Tb582 O593 2.596 . S
Tb582 O594 2.374 . S
O583 Tb580 2.453 . S
O583 C599 1.245 . S
O584 Tb580 2.596 . S
O584 Tb582 2.343 . S
O584 C599 1.259 . S
O585 Tb580 2.374 . S
O585 C581 1.251 . S
C586 O590 1.275 . S
C586 O591 1.246 . S
O587 C581 1.263 . S
O587 Tb582 2.353 . S
C588 O592 1.245 . S
C588 O593 1.259 . S
C589 O594 1.250 . S
C589 O595 1.263 . S
O590 Tb582 2.427 . S
O590 C586 1.275 . S
O591 Tb582 2.513 . S
O591 C586 1.246 . S
O592 Tb582 2.453 . S
O592 C588 1.245 . S
O593 Tb580 2.343 . S
O593 Tb582 2.596 . S
O593 C588 1.259 . S
O594 Tb582 2.374 . S
O594 C589 1.250 . S
O595 Tb580 2.353 . S
O595 C589 1.263 . S
C596 O597 1.275 . S
C596 O598 1.246 . S
O597 Tb580 2.427 . S
O597 C596 1.275 . S
O598 Tb580 2.513 . S
O598 C596 1.246 . S
C599 O583 1.245 . S
C599 O584 1.259 . S
Tb600 O603 2.453 . S
Tb600 O604 2.596 . S
Tb600 O605 2.374 . S
Tb600 O613 2.343 . S
Tb600 O615 2.353 . S
Tb600 O617 2.427 . S
Tb600 O618 2.513 . S
C601 O605 1.251 . S
C601 O607 1.263 . S
Tb602 O604 2.343 . S
Tb602 O607 2.353 . S
Tb602 O610 2.427 . S
Tb602 O611 2.513 . S
Tb602 O612 2.453 . S
Tb602 O613 2.596 . S
Tb602 O614 2.374 . S
O603 Tb600 2.453 . S
O603 C619 1.245 . S
O604 Tb600 2.596 . S
O604 Tb602 2.343 . S
O604 C619 1.259 . S
O605 Tb600 2.374 . S
O605 C601 1.251 . S
C606 O610 1.275 . S
C606 O611 1.246 . S
O607 C601 1.263 . S
O607 Tb602 2.353 . S
C608 O612 1.245 . S
C608 O613 1.259 . S
C609 O614 1.250 . S
C609 O615 1.263 . S
O610 Tb602 2.427 . S
O610 C606 1.275 . S
O611 Tb602 2.513 . S
O611 C606 1.246 . S
O612 Tb602 2.453 . S
O612 C608 1.245 . S
O613 Tb600 2.343 . S
O613 Tb602 2.596 . S
O613 C608 1.259 . S
O614 Tb602 2.374 . S
O614 C609 1.250 . S
O615 Tb600 2.353 . S
O615 C609 1.263 . S
C616 O617 1.275 . S
C616 O618 1.246 . S
O617 Tb600 2.427 . S
O617 C616 1.275 . S
O618 Tb600 2.513 . S
O618 C616 1.246 . S
C619 O603 1.245 . S
C619 O604 1.259 . S
Tb620 O623 2.453 . S
Tb620 O624 2.596 . S
Tb620 O625 2.374 . S
Tb620 O633 2.343 . S
Tb620 O635 2.353 . S
Tb620 O637 2.427 . S
Tb620 O638 2.513 . S
C621 O625 1.251 . S
C621 O627 1.263 . S
Tb622 O624 2.343 . S
Tb622 O627 2.353 . S
Tb622 O630 2.427 . S
Tb622 O631 2.513 . S
Tb622 O632 2.453 . S
Tb622 O633 2.596 . S
Tb622 O634 2.374 . S
O623 Tb620 2.453 . S
O623 C639 1.245 . S
O624 Tb620 2.596 . S
O624 Tb622 2.343 . S
O624 C639 1.259 . S
O625 Tb620 2.374 . S
O625 C621 1.251 . S
C626 O630 1.275 . S
C626 O631 1.246 . S
O627 C621 1.263 . S
O627 Tb622 2.353 . S
C628 O632 1.245 . S
C628 O633 1.259 . S
C629 O634 1.250 . S
C629 O635 1.263 . S
O630 Tb622 2.427 . S
O630 C626 1.275 . S
O631 Tb622 2.513 . S
O631 C626 1.246 . S
O632 Tb622 2.453 . S
O632 C628 1.245 . S
O633 Tb620 2.343 . S
O633 Tb622 2.596 . S
O633 C628 1.259 . S
O634 Tb622 2.374 . S
O634 C629 1.250 . S
O635 Tb620 2.353 . S
O635 C629 1.263 . S
C636 O637 1.275 . S
C636 O638 1.246 . S
O637 Tb620 2.427 . S
O637 C636 1.275 . S
O638 Tb620 2.513 . S
O638 C636 1.246 . S
C639 O623 1.245 . S
C639 O624 1.259 . S
Tb640 O643 2.453 . S
Tb640 O644 2.596 . S
Tb640 O645 2.374 . S
Tb640 O653 2.343 . S
Tb640 O655 2.353 . S
Tb640 O657 2.427 . S
Tb640 O658 2.513 . S
C641 O645 1.251 . S
C641 O647 1.263 . S
Tb642 O644 2.343 . S
Tb642 O647 2.353 . S
Tb642 O650 2.427 1_565 S
Tb642 O651 2.513 1_565 S
Tb642 O652 2.453 . S
Tb642 O653 2.596 . S
Tb642 O654 2.374 . S
O643 Tb640 2.453 . S
O643 C659 1.245 . S
O644 Tb640 2.596 . S
O644 Tb642 2.343 . S
O644 C659 1.259 . S
O645 Tb640 2.374 . S
O645 C641 1.251 . S
C646 O650 1.275 . S
C646 O651 1.246 . S
O647 C641 1.263 . S
O647 Tb642 2.353 . S
C648 O652 1.245 . S
C648 O653 1.259 . S
C649 O654 1.250 . S
C649 O655 1.263 . S
O650 Tb642 2.427 1_545 S
O650 C646 1.275 . S
O651 Tb642 2.513 1_545 S
O651 C646 1.246 . S
O652 Tb642 2.453 . S
O652 C648 1.245 . S
O653 Tb640 2.343 . S
O653 Tb642 2.596 . S
O653 C648 1.259 . S
O654 Tb642 2.374 . S
O654 C649 1.250 . S
O655 Tb640 2.353 . S
O655 C649 1.263 . S
C656 O657 1.275 . S
C656 O658 1.246 . S
O657 Tb640 2.427 . S
O657 C656 1.275 . S
O658 Tb640 2.513 . S
O658 C656 1.246 . S
C659 O643 1.245 . S
C659 O644 1.259 . S
Tb660 O663 2.453 . S
Tb660 O664 2.596 . S
Tb660 O665 2.374 . S
Tb660 O673 2.343 . S
Tb660 O675 2.353 . S
Tb660 O677 2.427 . S
Tb660 O678 2.513 . S
C661 O665 1.251 . S
C661 O667 1.263 . S
Tb662 O664 2.343 . S
Tb662 O667 2.353 . S
Tb662 O670 2.427 . S
Tb662 O671 2.513 . S
Tb662 O672 2.453 . S
Tb662 O673 2.596 . S
Tb662 O674 2.374 . S
O663 Tb660 2.453 . S
O663 C679 1.245 . S
O664 Tb660 2.596 . S
O664 Tb662 2.343 . S
O664 C679 1.259 . S
O665 Tb660 2.374 . S
O665 C661 1.251 . S
C666 O670 1.275 . S
C666 O671 1.246 . S
O667 C661 1.263 . S
O667 Tb662 2.353 . S
C668 O672 1.245 . S
C668 O673 1.259 . S
C669 O674 1.250 . S
C669 O675 1.263 . S
O670 Tb662 2.427 . S
O670 C666 1.275 . S
O671 Tb662 2.513 . S
O671 C666 1.246 . S
O672 Tb662 2.453 . S
O672 C668 1.245 . S
O673 Tb660 2.343 . S
O673 Tb662 2.596 . S
O673 C668 1.259 . S
O674 Tb662 2.374 . S
O674 C669 1.250 . S
O675 Tb660 2.353 . S
O675 C669 1.263 . S
C676 O677 1.275 . S
C676 O678 1.246 . S
O677 Tb660 2.427 . S
O677 C676 1.275 . S
O678 Tb660 2.513 . S
O678 C676 1.246 . S
C679 O663 1.245 . S
C679 O664 1.259 . S
Tb680 O683 2.453 . S
Tb680 O684 2.596 . S
Tb680 O685 2.374 . S
Tb680 O693 2.343 . S
Tb680 O695 2.353 . S
Tb680 O697 2.427 . S
Tb680 O698 2.513 . S
C681 O685 1.251 . S
C681 O687 1.263 . S
Tb682 O684 2.343 . S
Tb682 O687 2.353 . S
Tb682 O690 2.427 . S
Tb682 O691 2.513 . S
Tb682 O692 2.453 . S
Tb682 O693 2.596 . S
Tb682 O694 2.374 . S
O683 Tb680 2.453 . S
O683 C699 1.245 . S
O684 Tb680 2.596 . S
O684 Tb682 2.343 . S
O684 C699 1.259 . S
O685 Tb680 2.374 . S
O685 C681 1.251 . S
C686 O690 1.275 . S
C686 O691 1.246 . S
O687 C681 1.263 . S
O687 Tb682 2.353 . S
C688 O692 1.245 . S
C688 O693 1.259 . S
C689 O694 1.250 . S
C689 O695 1.263 . S
O690 Tb682 2.427 . S
O690 C686 1.275 . S
O691 Tb682 2.513 . S
O691 C686 1.246 . S
O692 Tb682 2.453 . S
O692 C688 1.245 . S
O693 Tb680 2.343 . S
O693 Tb682 2.596 . S
O693 C688 1.259 . S
O694 Tb682 2.374 . S
O694 C689 1.250 . S
O695 Tb680 2.353 . S
O695 C689 1.263 . S
C696 O697 1.275 . S
C696 O698 1.246 . S
O697 Tb680 2.427 . S
O697 C696 1.275 . S
O698 Tb680 2.513 . S
O698 C696 1.246 . S
C699 O683 1.245 . S
C699 O684 1.259 . S
Tb700 O703 2.453 . S
Tb700 O704 2.596 . S
Tb700 O705 2.374 . S
Tb700 O713 2.343 . S
Tb700 O715 2.353 . S
Tb700 O717 2.427 . S
Tb700 O718 2.513 . S
C701 O705 1.251 . S
C701 O707 1.263 . S
Tb702 O704 2.343 . S
Tb702 O707 2.353 . S
Tb702 O710 2.427 . S
Tb702 O711 2.513 . S
Tb702 O712 2.453 . S
Tb702 O713 2.596 . S
Tb702 O714 2.374 . S
O703 Tb700 2.453 . S
O703 C719 1.245 . S
O704 Tb700 2.596 . S
O704 Tb702 2.343 . S
O704 C719 1.259 . S
O705 Tb700 2.374 . S
O705 C701 1.251 . S
C706 O710 1.275 . S
C706 O711 1.246 . S
O707 C701 1.263 . S
O707 Tb702 2.353 . S
C708 O712 1.245 . S
C708 O713 1.259 . S
C709 O714 1.250 . S
C709 O715 1.263 . S
O710 Tb702 2.427 . S
O710 C706 1.275 . S
O711 Tb702 2.513 . S
O711 C706 1.246 . S
O712 Tb702 2.453 . S
O712 C708 1.245 . S
O713 Tb700 2.343 . S
O713 Tb702 2.596 . S
O713 C708 1.259 . S
O714 Tb702 2.374 . S
O714 C709 1.250 . S
O715 Tb700 2.353 . S
O715 C709 1.263 . S
C716 O717 1.275 . S
C716 O718 1.246 . S
O717 Tb700 2.427 . S
O717 C716 1.275 . S
O718 Tb700 2.513 . S
O718 C716 1.246 . S
C719 O703 1.245 . S
C719 O704 1.259 . S
Tb720 O723 2.453 . S
Tb720 O724 2.596 . S
Tb720 O725 2.374 . S
Tb720 O733 2.343 . S
Tb720 O735 2.353 . S
Tb720 O737 2.427 . S
Tb720 O738 2.513 . S
C721 O725 1.251 . S
C721 O727 1.263 . S
Tb722 O724 2.343 . S
Tb722 O727 2.353 . S
Tb722 O730 2.427 . S
Tb722 O731 2.513 . S
Tb722 O732 2.453 . S
Tb722 O733 2.596 . S
Tb722 O734 2.374 . S
O723 Tb720 2.453 . S
O723 C739 1.245 . S
O724 Tb720 2.596 . S
O724 Tb722 2.343 . S
O724 C739 1.259 . S
O725 Tb720 2.374 . S
O725 C721 1.251 . S
C726 O730 1.275 . S
C726 O731 1.246 . S
O727 C721 1.263 . S
O727 Tb722 2.353 . S
C728 O732 1.245 . S
C728 O733 1.259 . S
C729 O734 1.250 . S
C729 O735 1.263 . S
O730 Tb722 2.427 . S
O730 C726 1.275 . S
O731 Tb722 2.513 . S
O731 C726 1.246 . S
O732 Tb722 2.453 . S
O732 C728 1.245 . S
O733 Tb720 2.343 . S
O733 Tb722 2.596 . S
O733 C728 1.259 . S
O734 Tb722 2.374 . S
O734 C729 1.250 . S
O735 Tb720 2.353 . S
O735 C729 1.263 . S
C736 O737 1.275 . S
C736 O738 1.246 . S
O737 Tb720 2.427 . S
O737 C736 1.275 . S
O738 Tb720 2.513 . S
O738 C736 1.246 . S
C739 O723 1.245 . S
C739 O724 1.259 . S
Tb740 O743 2.453 . S
Tb740 O744 2.596 . S
Tb740 O745 2.374 . S
Tb740 O753 2.343 . S
Tb740 O755 2.353 . S
Tb740 O757 2.427 . S
Tb740 O758 2.513 . S
C741 O745 1.251 . S
C741 O747 1.263 . S
Tb742 O744 2.343 . S
Tb742 O747 2.353 . S
Tb742 O750 2.427 . S
Tb742 O751 2.513 . S
Tb742 O752 2.453 . S
Tb742 O753 2.596 . S
Tb742 O754 2.374 . S
O743 Tb740 2.453 . S
O743 C759 1.245 . S
O744 Tb740 2.596 . S
O744 Tb742 2.343 . S
O744 C759 1.259 . S
O745 Tb740 2.374 . S
O745 C741 1.251 . S
C746 O750 1.275 . S
C746 O751 1.246 . S
O747 C741 1.263 . S
O747 Tb742 2.353 . S
C748 O752 1.245 . S
C748 O753 1.259 . S
C749 O754 1.250 . S
C749 O755 1.263 . S
O750 Tb742 2.427 . S
O750 C746 1.275 . S
O751 Tb742 2.513 . S
O751 C746 1.246 . S
O752 Tb742 2.453 . S
O752 C748 1.245 . S
O753 Tb740 2.343 . S
O753 Tb742 2.596 . S
O753 C748 1.259 . S
O754 Tb742 2.374 . S
O754 C749 1.250 . S
O755 Tb740 2.353 . S
O755 C749 1.263 . S
C756 O757 1.275 . S
C756 O758 1.246 . S
O757 Tb740 2.427 . S
O757 C756 1.275 . S
O758 Tb740 2.513 . S
O758 C756 1.246 . S
C759 O743 1.245 . S
C759 O744 1.259 . S
Tb760 O763 2.453 . S
Tb760 O764 2.596 . S
Tb760 O765 2.374 . S
Tb760 O773 2.343 . S
Tb760 O775 2.353 . S
Tb760 O777 2.427 . S
Tb760 O778 2.513 . S
C761 O765 1.251 . S
C761 O767 1.263 . S
Tb762 O764 2.343 . S
Tb762 O767 2.353 . S
Tb762 O770 2.427 . S
Tb762 O771 2.513 . S
Tb762 O772 2.453 1_565 S
Tb762 O773 2.596 . S
Tb762 O774 2.374 . S
O763 Tb760 2.453 . S
O763 C779 1.245 . S
O764 Tb760 2.596 . S
O764 Tb762 2.343 . S
O764 C779 1.259 . S
O765 Tb760 2.374 . S
O765 C761 1.251 . S
C766 O770 1.275 . S
C766 O771 1.246 . S
O767 C761 1.263 . S
O767 Tb762 2.353 . S
C768 O772 1.245 . S
C768 O773 1.259 1_545 S
C769 O774 1.250 . S
C769 O775 1.263 . S
O770 Tb762 2.427 . S
O770 C766 1.275 . S
O771 Tb762 2.513 . S
O771 C766 1.246 . S
O772 Tb762 2.453 1_545 S
O772 C768 1.245 . S
O773 Tb760 2.343 . S
O773 Tb762 2.596 . S
O773 C768 1.259 1_565 S
O774 Tb762 2.374 . S
O774 C769 1.250 . S
O775 Tb760 2.353 . S
O775 C769 1.263 . S
C776 O777 1.275 . S
C776 O778 1.246 . S
O777 Tb760 2.427 . S
O777 C776 1.275 . S
O778 Tb760 2.513 . S
O778 C776 1.246 . S
C779 O763 1.245 . S
C779 O764 1.259 . S
Tb780 O783 2.453 . S
Tb780 O784 2.596 . S
Tb780 O785 2.374 . S
Tb780 O793 2.343 . S
Tb780 O795 2.353 . S
Tb780 O797 2.427 . S
Tb780 O798 2.513 . S
C781 O785 1.251 . S
C781 O787 1.263 . S
Tb782 O784 2.343 . S
Tb782 O787 2.353 . S
Tb782 O790 2.427 . S
Tb782 O791 2.513 . S
Tb782 O792 2.453 . S
Tb782 O793 2.596 . S
Tb782 O794 2.374 . S
O783 Tb780 2.453 . S
O783 C799 1.245 . S
O784 Tb780 2.596 . S
O784 Tb782 2.343 . S
O784 C799 1.259 . S
O785 Tb780 2.374 . S
O785 C781 1.251 . S
C786 O790 1.275 . S
C786 O791 1.246 . S
O787 C781 1.263 . S
O787 Tb782 2.353 . S
C788 O792 1.245 . S
C788 O793 1.259 . S
C789 O794 1.250 . S
C789 O795 1.263 . S
O790 Tb782 2.427 . S
O790 C786 1.275 . S
O791 Tb782 2.513 . S
O791 C786 1.246 . S
O792 Tb782 2.453 . S
O792 C788 1.245 . S
O793 Tb780 2.343 . S
O793 Tb782 2.596 . S
O793 C788 1.259 . S
O794 Tb782 2.374 . S
O794 C789 1.250 . S
O795 Tb780 2.353 . S
O795 C789 1.263 . S
C796 O797 1.275 . S
C796 O798 1.246 . S
O797 Tb780 2.427 . S
O797 C796 1.275 . S
O798 Tb780 2.513 . S
O798 C796 1.246 . S
C799 O783 1.245 . S
C799 O784 1.259 . S
Tb800 O803 2.453 . S
Tb800 O804 2.596 . S
Tb800 O805 2.374 . S
Tb800 O813 2.343 . S
Tb800 O815 2.353 . S
Tb800 O817 2.427 . S
Tb800 O818 2.513 . S
C801 O805 1.251 . S
C801 O807 1.263 . S
Tb802 O804 2.343 . S
Tb802 O807 2.353 . S
Tb802 O810 2.427 . S
Tb802 O811 2.513 . S
Tb802 O812 2.453 . S
Tb802 O813 2.596 . S
Tb802 O814 2.374 . S
O803 Tb800 2.453 . S
O803 C819 1.245 . S
O804 Tb800 2.596 . S
O804 Tb802 2.343 . S
O804 C819 1.259 . S
O805 Tb800 2.374 . S
O805 C801 1.251 . S
C806 O810 1.275 . S
C806 O811 1.246 . S
O807 C801 1.263 . S
O807 Tb802 2.353 . S
C808 O812 1.245 . S
C808 O813 1.259 . S
C809 O814 1.250 . S
C809 O815 1.263 . S
O810 Tb802 2.427 . S
O810 C806 1.275 . S
O811 Tb802 2.513 . S
O811 C806 1.246 . S
O812 Tb802 2.453 . S
O812 C808 1.245 . S
O813 Tb800 2.343 . S
O813 Tb802 2.596 . S
O813 C808 1.259 . S
O814 Tb802 2.374 . S
O814 C809 1.250 . S
O815 Tb800 2.353 . S
O815 C809 1.263 . S
C816 O817 1.275 . S
C816 O818 1.246 . S
O817 Tb800 2.427 . S
O817 C816 1.275 . S
O818 Tb800 2.513 . S
O818 C816 1.246 . S
C819 O803 1.245 . S
C819 O804 1.259 . S
Tb820 O823 2.453 . S
Tb820 O824 2.596 . S
Tb820 O825 2.374 . S
Tb820 O833 2.343 . S
Tb820 O835 2.353 . S
Tb820 O837 2.400 1_554 S
Tb820 O838 2.513 . S
C821 O825 1.251 . S
C821 O827 1.263 . S
Tb822 O824 2.343 . S
Tb822 O827 2.353 . S
Tb822 O830 2.427 . S
Tb822 O831 2.513 . S
Tb822 O832 2.453 1_554 S
Tb822 O833 2.596 . S
Tb822 O834 2.374 . S
O823 Tb820 2.453 . S
O823 C839 1.245 . S
O824 Tb820 2.596 . S
O824 Tb822 2.343 . S
O824 C839 1.259 . S
O825 Tb820 2.374 . S
O825 C821 1.251 . S
C826 O830 1.275 . S
C826 O831 1.246 . S
O827 C821 1.263 . S
O827 Tb822 2.353 . S
C828 O832 1.245 . S
C828 O833 1.259 1_556 S
C829 O834 1.250 . S
C829 O835 1.263 . S
O830 Tb822 2.427 . S
O830 C826 1.275 . S
O831 Tb822 2.513 . S
O831 C826 1.246 . S
O832 Tb822 2.453 1_556 S
O832 C828 1.245 . S
O833 Tb820 2.343 . S
O833 Tb822 2.596 . S
O833 C828 1.259 1_554 S
O834 Tb822 2.374 . S
O834 C829 1.250 . S
O835 Tb820 2.353 . S
O835 C829 1.263 . S
C836 O837 1.278 . S
C836 O838 1.246 1_556 S
O837 Tb820 2.400 1_556 S
O837 C836 1.278 . S
O838 Tb820 2.513 . S
O838 C836 1.246 1_554 S
C839 O823 1.245 . S
C839 O824 1.259 . S
Tb840 O843 2.453 . S
Tb840 O844 2.596 . S
Tb840 O845 2.374 . S
Tb840 O853 2.343 . S
Tb840 O855 2.353 . S
Tb840 O857 2.427 . S
Tb840 O858 2.513 . S
C841 O845 1.251 . S
C841 O847 1.263 . S
Tb842 O844 2.343 . S
Tb842 O847 2.353 . S
Tb842 O850 2.427 . S
Tb842 O851 2.513 . S
Tb842 O852 2.453 . S
Tb842 O853 2.596 . S
Tb842 O854 2.374 . S
O843 Tb840 2.453 . S
O843 C859 1.245 . S
O844 Tb840 2.596 . S
O844 Tb842 2.343 . S
O844 C859 1.259 . S
O845 Tb840 2.374 . S
O845 C841 1.251 . S
C846 O850 1.275 . S
C846 O851 1.246 . S
O847 C841 1.263 . S
O847 Tb842 2.353 . S
C848 O852 1.245 . S
C848 O853 1.259 . S
C849 O854 1.250 . S
C849 O855 1.263 . S
O850 Tb842 2.427 . S
O850 C846 1.275 . S
O851 Tb842 2.513 . S
O851 C846 1.246 . S
O852 Tb842 2.453 . S
O852 C848 1.245 . S
O853 Tb840 2.343 . S
O853 Tb842 2.596 . S
O853 C848 1.259 . S
O854 Tb842 2.374 . S
O854 C849 1.250 . S
O855 Tb840 2.353 . S
O855 C849 1.263 . S
C856 O857 1.275 . S
C856 O858 1.246 . S
O857 Tb840 2.427 . S
O857 C856 1.275 . S
O858 Tb840 2.513 . S
O858 C856 1.246 . S
C859 O843 1.245 . S
C859 O844 1.259 . S
Tb860 O863 2.453 . S
Tb860 O864 2.596 . S
Tb860 O865 2.374 . S
Tb860 O873 2.343 . S
Tb860 O875 2.353 . S
Tb860 O877 2.427 . S
Tb860 O878 2.513 . S
C861 O865 1.251 . S
C861 O867 1.263 . S
Tb862 O864 2.343 . S
Tb862 O867 2.353 . S
Tb862 O870 2.427 . S
Tb862 O871 2.513 . S
Tb862 O872 2.453 . S
Tb862 O873 2.596 . S
Tb862 O874 2.374 . S
O863 Tb860 2.453 . S
O863 C879 1.245 . S
O864 Tb860 2.596 . S
O864 Tb862 2.343 . S
O864 C879 1.259 . S
O865 Tb860 2.374 . S
O865 C861 1.251 . S
C866 O870 1.275 . S
C866 O871 1.246 . S
O867 C861 1.263 . S
O867 Tb862 2.353 . S
C868 O872 1.245 . S
C868 O873 1.259 . S
C869 O874 1.250 . S
C869 O875 1.263 . S
O870 Tb862 2.427 . S
O870 C866 1.275 . S
O871 Tb862 2.513 . S
O871 C866 1.246 . S
O872 Tb862 2.453 . S
O872 C868 1.245 . S
O873 Tb860 2.343 . S
O873 Tb862 2.596 . S
O873 C868 1.259 . S
O874 Tb862 2.374 . S
O874 C869 1.250 . S
O875 Tb860 2.353 . S
O875 C869 1.263 . S
C876 O877 1.275 . S
C876 O878 1.246 . S
O877 Tb860 2.427 . S
O877 C876 1.275 . S
O878 Tb860 2.513 . S
O878 C876 1.246 . S
C879 O863 1.245 . S
C879 O864 1.259 . S
Tb880 O883 2.453 . S
Tb880 O884 2.596 . S
Tb880 O885 2.374 . S
Tb880 O893 2.343 . S
Tb880 O895 2.353 . S
Tb880 O897 2.427 . S
Tb880 O898 2.513 . S
C881 O885 1.251 . S
C881 O887 1.263 . S
Tb882 O884 2.343 . S
Tb882 O887 2.353 . S
Tb882 O890 2.427 . S
Tb882 O891 2.513 . S
Tb882 O892 2.453 . S
Tb882 O893 2.596 . S
Tb882 O894 2.374 . S
O883 Tb880 2.453 . S
O883 C899 1.245 . S
O884 Tb880 2.596 . S
O884 Tb882 2.343 . S
O884 C899 1.259 . S
O885 Tb880 2.374 . S
O885 C881 1.251 . S
C886 O890 1.275 . S
C886 O891 1.246 . S
O887 C881 1.263 . S
O887 Tb882 2.353 . S
C888 O892 1.245 . S
C888 O893 1.259 . S
C889 O894 1.250 . S
C889 O895 1.263 . S
O890 Tb882 2.427 . S
O890 C886 1.275 . S
O891 Tb882 2.513 . S
O891 C886 1.246 . S
O892 Tb882 2.453 . S
O892 C888 1.245 . S
O893 Tb880 2.343 . S
O893 Tb882 2.596 . S
O893 C888 1.259 . S
O894 Tb882 2.374 . S
O894 C889 1.250 . S
O895 Tb880 2.353 . S
O895 C889 1.263 . S
C896 O897 1.275 . S
C896 O898 1.246 . S
O897 Tb880 2.427 . S
O897 C896 1.275 . S
O898 Tb880 2.513 . S
O898 C896 1.246 . S
C899 O883 1.245 . S
C899 O884 1.259 . S
Tb900 O903 2.453 . S
Tb900 O904 2.596 . S
Tb900 O905 2.374 . S
Tb900 O913 2.343 . S
Tb900 O915 2.353 . S
Tb900 O917 2.427 . S
Tb900 O918 2.513 . S
C901 O905 1.251 . S
C901 O907 1.263 . S
Tb902 O904 2.343 . S
Tb902 O907 2.353 . S
Tb902 O910 2.427 . S
Tb902 O911 2.513 . S
Tb902 O912 2.453 . S
Tb902 O913 2.596 . S
Tb902 O914 2.374 . S
O903 Tb900 2.453 . S
O903 C919 1.245 . S
O904 Tb900 2.596 . S
O904 Tb902 2.343 . S
O904 C919 1.259 . S
O905 Tb900 2.374 . S
O905 C901 1.251 . S
C906 O910 1.275 . S
C906 O911 1.246 . S
O907 C901 1.263 . S
O907 Tb902 2.353 . S
C908 O912 1.245 . S
C908 O913 1.259 . S
C909 O914 1.250 . S
C909 O915 1.263 . S
O910 Tb902 2.427 . S
O910 C906 1.275 . S
O911 Tb902 2.513 . S
O911 C906 1.246 . S
O912 Tb902 2.453 . S
O912 C908 1.245 . S
O913 Tb900 2.343 . S
O913 Tb902 2.596 . S
O913 C908 1.259 . S
O914 Tb902 2.374 . S
O914 C909 1.250 . S
O915 Tb900 2.353 . S
O915 C909 1.263 . S
C916 O917 1.275 . S
C916 O918 1.246 . S
O917 Tb900 2.427 . S
O917 C916 1.275 . S
O918 Tb900 2.513 . S
O918 C916 1.246 . S
C919 O903 1.245 . S
C919 O904 1.259 . S
Tb920 O923 2.453 . S
Tb920 O924 2.596 . S
Tb920 O925 2.374 . S
Tb920 O933 2.343 . S
Tb920 O935 2.353 . S
Tb920 O937 2.427 . S
Tb920 O938 2.513 . S
C921 O925 1.251 . S
C921 O927 1.263 . S
Tb922 O924 2.343 . S
Tb922 O927 2.353 . S
Tb922 O930 2.427 . S
Tb922 O931 2.513 . S
Tb922 O932 2.453 . S
Tb922 O933 2.596 . S
Tb922 O934 2.374 . S
O923 Tb920 2.453 . S
O923 C939 1.245 . S
O924 Tb920 2.596 . S
O924 Tb922 2.343 . S
O924 C939 1.259 . S
O925 Tb920 2.374 . S
O925 C921 1.251 . S
C926 O930 1.275 . S
C926 O931 1.246 . S
O927 C921 1.263 . S
O927 Tb922 2.353 . S
C928 O932 1.245 . S
C928 O933 1.259 . S
C929 O934 1.250 . S
C929 O935 1.263 . S
O930 Tb922 2.427 . S
O930 C926 1.275 . S
O931 Tb922 2.513 . S
O931 C926 1.246 . S
O932 Tb922 2.453 . S
O932 C928 1.245 . S
O933 Tb920 2.343 . S
O933 Tb922 2.596 . S
O933 C928 1.259 . S
O934 Tb922 2.374 . S
O934 C929 1.250 . S
O935 Tb920 2.353 . S
O935 C929 1.263 . S
C936 O937 1.275 . S
C936 O938 1.246 . S
O937 Tb920 2.427 . S
O937 C936 1.275 . S
O938 Tb920 2.513 . S
O938 C936 1.246 . S
C939 O923 1.245 . S
C939 O924 1.259 . S
Tb940 O943 2.453 . S
Tb940 O944 2.596 . S
Tb940 O945 2.374 . S
Tb940 O953 2.343 . S
Tb940 O955 2.353 . S
Tb940 O957 2.427 . S
Tb940 O958 2.513 . S
C941 O945 1.251 . S
C941 O947 1.263 . S
Tb942 O944 2.343 . S
Tb942 O947 2.353 . S
Tb942 O950 2.427 . S
Tb942 O951 2.513 . S
Tb942 O952 2.453 . S
Tb942 O953 2.596 . S
Tb942 O954 2.374 . S
O943 Tb940 2.453 . S
O943 C959 1.245 . S
O944 Tb940 2.596 . S
O944 Tb942 2.343 . S
O944 C959 1.259 . S
O945 Tb940 2.374 . S
O945 C941 1.251 . S
C946 O950 1.275 . S
C946 O951 1.246 . S
O947 C941 1.263 . S
O947 Tb942 2.353 . S
C948 O952 1.245 . S
C948 O953 1.259 . S
C949 O954 1.250 . S
C949 O955 1.263 . S
O950 Tb942 2.427 . S
O950 C946 1.275 . S
O951 Tb942 2.513 . S
O951 C946 1.246 . S
O952 Tb942 2.453 . S
O952 C948 1.245 . S
O953 Tb940 2.343 . S
O953 Tb942 2.596 . S
O953 C948 1.259 . S
O954 Tb942 2.374 . S
O954 C949 1.250 . S
O955 Tb940 2.353 . S
O955 C949 1.263 . S
C956 O957 1.275 . S
C956 O958 1.246 . S
O957 Tb940 2.427 . S
O957 C956 1.275 . S
O958 Tb940 2.513 . S
O958 C956 1.246 . S
C959 O943 1.245 . S
C959 O944 1.259 . S
Tb960 O963 2.453 . S
Tb960 O964 2.596 . S
Tb960 O965 2.374 . S
Tb960 O973 2.343 . S
Tb960 O975 2.353 . S
Tb960 O977 2.427 . S
Tb960 O978 2.513 . S
C961 O965 1.251 . S
C961 O967 1.263 . S
Tb962 O964 2.343 . S
Tb962 O967 2.353 . S
Tb962 O970 2.427 . S
Tb962 O971 2.513 . S
Tb962 O972 2.453 . S
Tb962 O973 2.596 . S
Tb962 O974 2.374 . S
O963 Tb960 2.453 . S
O963 C979 1.245 . S
O964 Tb960 2.596 . S
O964 Tb962 2.343 . S
O964 C979 1.259 . S
O965 Tb960 2.374 . S
O965 C961 1.251 . S
C966 O970 1.275 . S
C966 O971 1.246 . S
O967 C961 1.263 . S
O967 Tb962 2.353 . S
C968 O972 1.245 . S
C968 O973 1.259 . S
C969 O974 1.250 . S
C969 O975 1.263 . S
O970 Tb962 2.427 . S
O970 C966 1.275 . S
O971 Tb962 2.513 . S
O971 C966 1.246 . S
O972 Tb962 2.453 . S
O972 C968 1.245 . S
O973 Tb960 2.343 . S
O973 Tb962 2.596 . S
O973 C968 1.259 . S
O974 Tb962 2.374 . S
O974 C969 1.250 . S
O975 Tb960 2.353 . S
O975 C969 1.263 . S
C976 O977 1.275 . S
C976 O978 1.246 . S
O977 Tb960 2.427 . S
O977 C976 1.275 . S
O978 Tb960 2.513 . S
O978 C976 1.246 . S
C979 O963 1.245 . S
C979 O964 1.259 . S
Tb980 O983 2.453 . S
Tb980 O984 2.596 . S
Tb980 O985 2.374 . S
Tb980 O993 2.343 . S
Tb980 O995 2.353 . S
Tb980 O997 2.427 . S
Tb980 O998 2.513 . S
C981 O985 1.251 . S
C981 O987 1.263 . S
Tb982 O984 2.343 . S
Tb982 O987 2.353 . S
Tb982 O990 2.427 . S
Tb982 O991 2.513 . S
Tb982 O992 2.453 . S
Tb982 O993 2.596 . S
Tb982 O994 2.374 . S
O983 Tb980 2.453 . S
O983 C999 1.245 . S
O984 Tb980 2.596 . S
O984 Tb982 2.343 . S
O984 C999 1.259 . S
O985 Tb980 2.374 . S
O985 C981 1.251 . S
C986 O990 1.275 . S
C986 O991 1.246 . S
O987 C981 1.263 . S
O987 Tb982 2.353 . S
C988 O992 1.245 . S
C988 O993 1.259 . S
C989 O994 1.250 . S
C989 O995 1.263 . S
O990 Tb982 2.427 . S
O990 C986 1.275 . S
O991 Tb982 2.513 . S
O991 C986 1.246 . S
O992 Tb982 2.453 . S
O992 C988 1.245 . S
O993 Tb980 2.343 . S
O993 Tb982 2.596 . S
O993 C988 1.259 . S
O994 Tb982 2.374 . S
O994 C989 1.250 . S
O995 Tb980 2.353 . S
O995 C989 1.263 . S
C996 O997 1.275 . S
C996 O998 1.246 . S
O997 Tb980 2.427 . S
O997 C996 1.275 . S
O998 Tb980 2.513 . S
O998 C996 1.246 . S
C999 O983 1.245 . S
C999 O984 1.259 . S
Tb1000 O1003 2.477 . S
Tb1000 O1004 2.629 . S
Tb1000 O1005 2.398 . S
Tb1000 O1013 2.347 . S
Tb1000 O1015 2.348 1_655 S
Tb1000 O1017 2.391 1_655 S
Tb1000 O1018 2.493 1_655 S
C1001 O1005 1.251 . S
C1001 O1007 1.263 . S
Tb1002 O1004 2.343 . S
Tb1002 O1007 2.353 . S
Tb1002 O1010 2.427 . S
Tb1002 O1011 2.513 . S
Tb1002 O1012 2.453 . S
Tb1002 O1013 2.596 . S
Tb1002 O1014 2.374 . S
O1003 Tb1000 2.477 . S
O1003 C1019 1.245 . S
O1004 Tb1000 2.629 . S
O1004 Tb1002 2.343 . S
O1004 C1019 1.259 . S
O1005 Tb1000 2.398 . S
O1005 C1001 1.251 . S
C1006 O1010 1.275 . S
C1006 O1011 1.246 . S
O1007 C1001 1.263 . S
O1007 Tb1002 2.353 . S
C1008 O1012 1.285 . S
C1008 O1013 1.270 . S
C1009 O1014 1.250 1_455 S
C1009 O1015 1.263 . S
O1010 Tb1002 2.427 . S
O1010 C1006 1.275 . S
O1011 Tb1002 2.513 . S
O1011 C1006 1.246 . S
O1012 Tb1002 2.453 . S
O1012 C1008 1.285 . S
O1013 Tb1000 2.347 . S
O1013 Tb1002 2.596 . S
O1013 C1008 1.270 . S
O1014 Tb1002 2.374 . S
O1014 C1009 1.250 1_655 S
O1015 Tb1000 2.348 1_455 S
O1015 C1009 1.263 . S
C1016 O1017 1.275 . S
C1016 O1018 1.246 . S
O1017 Tb1000 2.391 1_455 S
O1017 C1016 1.275 . S
O1018 Tb1000 2.493 1_455 S
O1018 C1016 1.246 . S
C1019 O1003 1.245 . S
C1019 O1004 1.259 . S
Tb1020 O1023 2.453 . S
Tb1020 O1024 2.596 . S
Tb1020 O1025 2.374 . S
Tb1020 O1033 2.343 . S
Tb1020 O1035 2.353 . S
Tb1020 O1037 2.427 . S
Tb1020 O1038 2.513 . S
C1021 O1025 1.251 . S
C1021 O1027 1.263 . S
Tb1022 O1024 2.343 . S
Tb1022 O1027 2.353 . S
Tb1022 O1030 2.427 . S
Tb1022 O1031 2.513 . S
Tb1022 O1032 2.453 . S
Tb1022 O1033 2.596 . S
Tb1022 O1034 2.374 . S
O1023 Tb1020 2.453 . S
O1023 C1039 1.245 . S
O1024 Tb1020 2.596 . S
O1024 Tb1022 2.343 . S
O1024 C1039 1.259 . S
O1025 Tb1020 2.374 . S
O1025 C1021 1.251 . S
C1026 O1030 1.275 . S
C1026 O1031 1.246 . S
O1027 C1021 1.263 . S
O1027 Tb1022 2.353 . S
C1028 O1032 1.245 . S
C1028 O1033 1.259 . S
C1029 O1034 1.250 . S
C1029 O1035 1.263 . S
O1030 Tb1022 2.427 . S
O1030 C1026 1.275 . S
O1031 Tb1022 2.513 . S
O1031 C1026 1.246 . S
O1032 Tb1022 2.453 . S
O1032 C1028 1.245 . S
O1033 Tb1020 2.343 . S
O1033 Tb1022 2.596 . S
O1033 C1028 1.259 . S
O1034 Tb1022 2.374 . S
O1034 C1029 1.250 . S
O1035 Tb1020 2.353 . S
O1035 C1029 1.263 . S
C1036 O1037 1.275 . S
C1036 O1038 1.246 . S
O1037 Tb1020 2.427 . S
O1037 C1036 1.275 . S
O1038 Tb1020 2.513 . S
O1038 C1036 1.246 . S
C1039 O1023 1.245 . S
C1039 O1024 1.259 . S
Tb1040 O1043 2.453 . S
Tb1040 O1044 2.596 . S
Tb1040 O1045 2.374 . S
Tb1040 O1053 2.343 . S
Tb1040 O1055 2.353 . S
Tb1040 O1057 2.427 . S
Tb1040 O1058 2.513 . S
C1041 O1045 1.251 . S
C1041 O1047 1.263 . S
Tb1042 O1044 2.343 . S
Tb1042 O1047 2.353 . S
Tb1042 O1050 2.427 . S
Tb1042 O1051 2.513 . S
Tb1042 O1052 2.453 . S
Tb1042 O1053 2.596 . S
Tb1042 O1054 2.374 . S
O1043 Tb1040 2.453 . S
O1043 C1059 1.245 . S
O1044 Tb1040 2.596 . S
O1044 Tb1042 2.343 . S
O1044 C1059 1.259 . S
O1045 Tb1040 2.374 . S
O1045 C1041 1.251 . S
C1046 O1050 1.275 . S
C1046 O1051 1.246 . S
O1047 C1041 1.263 . S
O1047 Tb1042 2.353 . S
C1048 O1052 1.245 . S
C1048 O1053 1.259 . S
C1049 O1054 1.250 . S
C1049 O1055 1.263 . S
O1050 Tb1042 2.427 . S
O1050 C1046 1.275 . S
O1051 Tb1042 2.513 . S
O1051 C1046 1.246 . S
O1052 Tb1042 2.453 . S
O1052 C1048 1.245 . S
O1053 Tb1040 2.343 . S
O1053 Tb1042 2.596 . S
O1053 C1048 1.259 . S
O1054 Tb1042 2.374 . S
O1054 C1049 1.250 . S
O1055 Tb1040 2.353 . S
O1055 C1049 1.263 . S
C1056 O1057 1.275 . S
C1056 O1058 1.246 . S
O1057 Tb1040 2.427 . S
O1057 C1056 1.275 . S
O1058 Tb1040 2.513 . S
O1058 C1056 1.246 . S
C1059 O1043 1.245 . S
C1059 O1044 1.259 . S
Tb1060 O1063 2.453 . S
Tb1060 O1064 2.596 . S
Tb1060 O1065 2.374 . S
Tb1060 O1073 2.343 . S
Tb1060 O1075 2.353 . S
Tb1060 O1077 2.427 . S
Tb1060 O1078 2.513 . S
C1061 O1065 1.251 . S
C1061 O1067 1.263 . S
Tb1062 O1064 2.343 . S
Tb1062 O1067 2.353 . S
Tb1062 O1070 2.427 . S
Tb1062 O1071 2.513 . S
Tb1062 O1072 2.453 . S
Tb1062 O1073 2.596 . S
Tb1062 O1074 2.374 . S
O1063 Tb1060 2.453 . S
O1063 C1079 1.245 . S
O1064 Tb1060 2.596 . S
O1064 Tb1062 2.343 . S
O1064 C1079 1.259 . S
O1065 Tb1060 2.374 . S
O1065 C1061 1.251 . S
C1066 O1070 1.275 . S
C1066 O1071 1.246 . S
O1067 C1061 1.263 . S
O1067 Tb1062 2.353 . S
C1068 O1072 1.245 . S
C1068 O1073 1.259 . S
C1069 O1074 1.250 . S
C1069 O1075 1.263 . S
O1070 Tb1062 2.427 . S
O1070 C1066 1.275 . S
O1071 Tb1062 2.513 . S
O1071 C1066 1.246 . S
O1072 Tb1062 2.453 . S
O1072 C1068 1.245 . S
O1073 Tb1060 2.343 . S
O1073 Tb1062 2.596 . S
O1073 C1068 1.259 . S
O1074 Tb1062 2.374 . S
O1074 C1069 1.250 . S
O1075 Tb1060 2.353 . S
O1075 C1069 1.263 . S
C1076 O1077 1.275 . S
C1076 O1078 1.246 . S
O1077 Tb1060 2.427 . S
O1077 C1076 1.275 . S
O1078 Tb1060 2.513 . S
O1078 C1076 1.246 . S
C1079 O1063 1.245 . S
C1079 O1064 1.259 . S
Tb1080 O1083 2.453 . S
Tb1080 O1084 2.596 . S
Tb1080 O1085 2.374 . S
Tb1080 O1093 2.343 . S
Tb1080 O1095 2.353 . S
Tb1080 O1097 2.427 . S
Tb1080 O1098 2.513 . S
C1081 O1085 1.251 . S
C1081 O1087 1.263 . S
Tb1082 O1084 2.343 . S
Tb1082 O1087 2.353 . S
Tb1082 O1090 2.427 . S
Tb1082 O1091 2.513 . S
Tb1082 O1092 2.453 . S
Tb1082 O1093 2.596 . S
Tb1082 O1094 2.374 . S
O1083 Tb1080 2.453 . S
O1083 C1099 1.245 . S
O1084 Tb1080 2.596 . S
O1084 Tb1082 2.343 . S
O1084 C1099 1.259 . S
O1085 Tb1080 2.374 . S
O1085 C1081 1.251 . S
C1086 O1090 1.275 . S
C1086 O1091 1.246 . S
O1087 C1081 1.263 . S
O1087 Tb1082 2.353 . S
C1088 O1092 1.245 . S
C1088 O1093 1.259 . S
C1089 O1094 1.250 . S
C1089 O1095 1.263 . S
O1090 Tb1082 2.427 . S
O1090 C1086 1.275 . S
O1091 Tb1082 2.513 . S
O1091 C1086 1.246 . S
O1092 Tb1082 2.453 . S
O1092 C1088 1.245 . S
O1093 Tb1080 2.343 . S
O1093 Tb1082 2.596 . S
O1093 C1088 1.259 . S
O1094 Tb1082 2.374 . S
O1094 C1089 1.250 . S
O1095 Tb1080 2.353 . S
O1095 C1089 1.263 . S
C1096 O1097 1.275 . S
C1096 O1098 1.246 . S
O1097 Tb1080 2.427 . S
O1097 C1096 1.275 . S
O1098 Tb1080 2.513 . S
O1098 C1096 1.246 . S
C1099 O1083 1.245 . S
C1099 O1084 1.259 . S
Tb1100 O1103 2.453 . S
Tb1100 O1104 2.596 . S
Tb1100 O1105 2.374 . S
Tb1100 O1113 2.343 . S
Tb1100 O1115 2.353 . S
Tb1100 O1117 2.427 . S
Tb1100 O1118 2.513 . S
C1101 O1105 1.251 . S
C1101 O1107 1.263 . S
Tb1102 O1104 2.343 . S
Tb1102 O1107 2.353 . S
Tb1102 O1110 2.427 . S
Tb1102 O1111 2.513 . S
Tb1102 O1112 2.453 . S
Tb1102 O1113 2.596 . S
Tb1102 O1114 2.374 . S
O1103 Tb1100 2.453 . S
O1103 C1119 1.245 . S
O1104 Tb1100 2.596 . S
O1104 Tb1102 2.343 . S
O1104 C1119 1.259 . S
O1105 Tb1100 2.374 . S
O1105 C1101 1.251 . S
C1106 O1110 1.275 . S
C1106 O1111 1.246 . S
O1107 C1101 1.263 . S
O1107 Tb1102 2.353 . S
C1108 O1112 1.245 . S
C1108 O1113 1.259 . S
C1109 O1114 1.250 . S
C1109 O1115 1.263 . S
O1110 Tb1102 2.427 . S
O1110 C1106 1.275 . S
O1111 Tb1102 2.513 . S
O1111 C1106 1.246 . S
O1112 Tb1102 2.453 . S
O1112 C1108 1.245 . S
O1113 Tb1100 2.343 . S
O1113 Tb1102 2.596 . S
O1113 C1108 1.259 . S
O1114 Tb1102 2.374 . S
O1114 C1109 1.250 . S
O1115 Tb1100 2.353 . S
O1115 C1109 1.263 . S
C1116 O1117 1.275 . S
C1116 O1118 1.246 . S
O1117 Tb1100 2.427 . S
O1117 C1116 1.275 . S
O1118 Tb1100 2.513 . S
O1118 C1116 1.246 . S
C1119 O1103 1.245 . S
C1119 O1104 1.259 . S
Tb1120 O1123 2.453 . S
Tb1120 O1124 2.596 . S
Tb1120 O1125 2.374 . S
Tb1120 O1133 2.343 . S
Tb1120 O1135 2.353 . S
Tb1120 O1137 2.427 . S
Tb1120 O1138 2.513 . S
C1121 O1125 1.251 . S
C1121 O1127 1.263 . S
Tb1122 O1124 2.343 . S
Tb1122 O1127 2.353 . S
Tb1122 O1130 2.427 . S
Tb1122 O1131 2.513 . S
Tb1122 O1132 2.453 . S
Tb1122 O1133 2.596 . S
Tb1122 O1134 2.374 . S
O1123 Tb1120 2.453 . S
O1123 C1139 1.245 . S
O1124 Tb1120 2.596 . S
O1124 Tb1122 2.343 . S
O1124 C1139 1.259 . S
O1125 Tb1120 2.374 . S
O1125 C1121 1.251 . S
C1126 O1130 1.275 . S
C1126 O1131 1.246 . S
O1127 C1121 1.263 . S
O1127 Tb1122 2.353 . S
C1128 O1132 1.245 . S
C1128 O1133 1.259 . S
C1129 O1134 1.250 . S
C1129 O1135 1.263 . S
O1130 Tb1122 2.427 . S
O1130 C1126 1.275 . S
O1131 Tb1122 2.513 . S
O1131 C1126 1.246 . S
O1132 Tb1122 2.453 . S
O1132 C1128 1.245 . S
O1133 Tb1120 2.343 . S
O1133 Tb1122 2.596 . S
O1133 C1128 1.259 . S
O1134 Tb1122 2.374 . S
O1134 C1129 1.250 . S
O1135 Tb1120 2.353 . S
O1135 C1129 1.263 . S
C1136 O1137 1.275 . S
C1136 O1138 1.246 . S
O1137 Tb1120 2.427 . S
O1137 C1136 1.275 . S
O1138 Tb1120 2.513 . S
O1138 C1136 1.246 . S
C1139 O1123 1.245 . S
C1139 O1124 1.259 . S
Tb1140 O1143 2.453 . S
Tb1140 O1144 2.596 . S
Tb1140 O1145 2.374 . S
Tb1140 O1153 2.343 . S
Tb1140 O1155 2.353 . S
Tb1140 O1157 2.427 . S
Tb1140 O1158 2.513 . S
C1141 O1145 1.251 . S
C1141 O1147 1.263 . S
Tb1142 O1144 2.343 . S
Tb1142 O1147 2.353 . S
Tb1142 O1150 2.427 . S
Tb1142 O1151 2.513 . S
Tb1142 O1152 2.453 . S
Tb1142 O1153 2.596 . S
Tb1142 O1154 2.374 . S
O1143 Tb1140 2.453 . S
O1143 C1159 1.245 . S
O1144 Tb1140 2.596 . S
O1144 Tb1142 2.343 . S
O1144 C1159 1.259 . S
O1145 Tb1140 2.374 . S
O1145 C1141 1.251 . S
C1146 O1150 1.275 . S
C1146 O1151 1.246 . S
O1147 C1141 1.263 . S
O1147 Tb1142 2.353 . S
C1148 O1152 1.245 . S
C1148 O1153 1.259 . S
C1149 O1154 1.250 . S
C1149 O1155 1.263 . S
O1150 Tb1142 2.427 . S
O1150 C1146 1.275 . S
O1151 Tb1142 2.513 . S
O1151 C1146 1.246 . S
O1152 Tb1142 2.453 . S
O1152 C1148 1.245 . S
O1153 Tb1140 2.343 . S
O1153 Tb1142 2.596 . S
O1153 C1148 1.259 . S
O1154 Tb1142 2.374 . S
O1154 C1149 1.250 . S
O1155 Tb1140 2.353 . S
O1155 C1149 1.263 . S
C1156 O1157 1.275 . S
C1156 O1158 1.246 . S
O1157 Tb1140 2.427 . S
O1157 C1156 1.275 . S
O1158 Tb1140 2.513 . S
O1158 C1156 1.246 . S
C1159 O1143 1.245 . S
C1159 O1144 1.259 . S
Tb1160 O1163 2.453 . S
Tb1160 O1164 2.596 . S
Tb1160 O1165 2.374 . S
Tb1160 O1173 2.343 . S
Tb1160 O1175 2.353 . S
Tb1160 O1177 2.427 . S
Tb1160 O1178 2.513 . S
C1161 O1165 1.251 . S
C1161 O1167 1.263 . S
Tb1162 O1164 2.343 . S
Tb1162 O1167 2.353 . S
Tb1162 O1170 2.427 . S
Tb1162 O1171 2.513 . S
Tb1162 O1172 2.453 . S
Tb1162 O1173 2.596 . S
Tb1162 O1174 2.374 . S
O1163 Tb1160 2.453 . S
O1163 C1179 1.245 . S
O1164 Tb1160 2.596 . S
O1164 Tb1162 2.343 . S
O1164 C1179 1.259 . S
O1165 Tb1160 2.374 . S
O1165 C1161 1.251 . S
C1166 O1170 1.275 . S
C1166 O1171 1.246 . S
O1167 C1161 1.263 . S
O1167 Tb1162 2.353 . S
C1168 O1172 1.245 . S
C1168 O1173 1.259 . S
C1169 O1174 1.250 . S
C1169 O1175 1.263 . S
O1170 Tb1162 2.427 . S
O1170 C1166 1.275 . S
O1171 Tb1162 2.513 . S
O1171 C1166 1.246 . S
O1172 Tb1162 2.453 . S
O1172 C1168 1.245 . S
O1173 Tb1160 2.343 . S
O1173 Tb1162 2.596 . S
O1173 C1168 1.259 . S
O1174 Tb1162 2.374 . S
O1174 C1169 1.250 . S
O1175 Tb1160 2.353 . S
O1175 C1169 1.263 . S
C1176 O1177 1.275 . S
C1176 O1178 1.246 . S
O1177 Tb1160 2.427 . S
O1177 C1176 1.275 . S
O1178 Tb1160 2.513 . S
O1178 C1176 1.246 . S
C1179 O1163 1.245 . S
C1179 O1164 1.259 . S
Tb1180 O1183 2.453 . S
Tb1180 O1184 2.596 . S
Tb1180 O1185 2.374 . S
Tb1180 O1193 2.343 . S
Tb1180 O1195 2.353 . S
Tb1180 O1197 2.427 . S
Tb1180 O1198 2.513 . S
C1181 O1185 1.251 . S
C1181 O1187 1.263 . S
Tb1182 O1184 2.343 . S
Tb1182 O1187 2.353 . S
Tb1182 O1190 2.427 . S
Tb1182 O1191 2.513 . S
Tb1182 O1192 2.453 . S
Tb1182 O1193 2.596 . S
Tb1182 O1194 2.374 . S
O1183 Tb1180 2.453 . S
O1183 C1199 1.245 . S
O1184 Tb1180 2.596 . S
O1184 Tb1182 2.343 . S
O1184 C1199 1.259 . S
O1185 Tb1180 2.374 . S
O1185 C1181 1.251 . S
C1186 O1190 1.275 . S
C1186 O1191 1.246 . S
O1187 C1181 1.263 . S
O1187 Tb1182 2.353 . S
C1188 O1192 1.245 . S
C1188 O1193 1.259 . S
C1189 O1194 1.250 . S
C1189 O1195 1.263 . S
O1190 Tb1182 2.427 . S
O1190 C1186 1.275 . S
O1191 Tb1182 2.513 . S
O1191 C1186 1.246 . S
O1192 Tb1182 2.453 . S
O1192 C1188 1.245 . S
O1193 Tb1180 2.343 . S
O1193 Tb1182 2.596 . S
O1193 C1188 1.259 . S
O1194 Tb1182 2.374 . S
O1194 C1189 1.250 . S
O1195 Tb1180 2.353 . S
O1195 C1189 1.263 . S
C1196 O1197 1.275 . S
C1196 O1198 1.246 . S
O1197 Tb1180 2.427 . S
O1197 C1196 1.275 . S
O1198 Tb1180 2.513 . S
O1198 C1196 1.246 . S
C1199 O1183 1.245 . S
C1199 O1184 1.259 . S
Tb1200 O1203 2.453 . S
Tb1200 O1204 2.596 . S
Tb1200 O1205 2.374 . S
Tb1200 O1213 2.343 . S
Tb1200 O1215 2.353 . S
Tb1200 O1217 2.427 . S
Tb1200 O1218 2.513 . S
C1201 O1205 1.251 . S
C1201 O1207 1.263 . S
Tb1202 O1204 2.343 . S
Tb1202 O1207 2.353 . S
Tb1202 O1210 2.427 . S
Tb1202 O1211 2.513 . S
Tb1202 O1212 2.453 . S
Tb1202 O1213 2.596 . S
Tb1202 O1214 2.374 . S
O1203 Tb1200 2.453 . S
O1203 C1219 1.245 . S
O1204 Tb1200 2.596 . S
O1204 Tb1202 2.343 . S
O1204 C1219 1.259 . S
O1205 Tb1200 2.374 . S
O1205 C1201 1.251 . S
C1206 O1210 1.275 . S
C1206 O1211 1.246 . S
O1207 C1201 1.263 . S
O1207 Tb1202 2.353 . S
C1208 O1212 1.245 . S
C1208 O1213 1.259 . S
C1209 O1214 1.250 . S
C1209 O1215 1.263 . S
O1210 Tb1202 2.427 . S
O1210 C1206 1.275 . S
O1211 Tb1202 2.513 . S
O1211 C1206 1.246 . S
O1212 Tb1202 2.453 . S
O1212 C1208 1.245 . S
O1213 Tb1200 2.343 . S
O1213 Tb1202 2.596 . S
O1213 C1208 1.259 . S
O1214 Tb1202 2.374 . S
O1214 C1209 1.250 . S
O1215 Tb1200 2.353 . S
O1215 C1209 1.263 . S
C1216 O1217 1.275 . S
C1216 O1218 1.246 . S
O1217 Tb1200 2.427 . S
O1217 C1216 1.275 . S
O1218 Tb1200 2.513 . S
O1218 C1216 1.246 . S
C1219 O1203 1.245 . S
C1219 O1204 1.259 . S
Tb1220 O1223 2.453 . S
Tb1220 O1224 2.596 . S
Tb1220 O1225 2.374 . S
Tb1220 O1233 2.343 . S
Tb1220 O1235 2.353 . S
Tb1220 O1237 2.427 . S
Tb1220 O1238 2.513 . S
C1221 O1225 1.251 . S
C1221 O1227 1.263 . S
Tb1222 O1224 2.343 . S
Tb1222 O1227 2.353 . S
Tb1222 O1230 2.427 . S
Tb1222 O1231 2.513 . S
Tb1222 O1232 2.453 . S
Tb1222 O1233 2.596 . S
Tb1222 O1234 2.374 . S
O1223 Tb1220 2.453 . S
O1223 C1239 1.245 . S
O1224 Tb1220 2.596 . S
O1224 Tb1222 2.343 . S
O1224 C1239 1.259 . S
O1225 Tb1220 2.374 . S
O1225 C1221 1.251 . S
C1226 O1230 1.275 . S
C1226 O1231 1.246 . S
O1227 C1221 1.263 . S
O1227 Tb1222 2.353 . S
C1228 O1232 1.245 . S
C1228 O1233 1.259 . S
C1229 O1234 1.250 . S
C1229 O1235 1.263 . S
O1230 Tb1222 2.427 . S
O1230 C1226 1.275 . S
O1231 Tb1222 2.513 . S
O1231 C1226 1.246 . S
O1232 Tb1222 2.453 . S
O1232 C1228 1.245 . S
O1233 Tb1220 2.343 . S
O1233 Tb1222 2.596 . S
O1233 C1228 1.259 . S
O1234 Tb1222 2.374 . S
O1234 C1229 1.250 . S
O1235 Tb1220 2.353 . S
O1235 C1229 1.263 . S
C1236 O1237 1.275 . S
C1236 O1238 1.246 . S
O1237 Tb1220 2.427 . S
O1237 C1236 1.275 . S
O1238 Tb1220 2.513 . S
O1238 C1236 1.246 . S
C1239 O1223 1.245 . S
C1239 O1224 1.259 . S
Tb1240 O1243 2.453 . S
Tb1240 O1244 2.596 . S
Tb1240 O1245 2.374 . S
Tb1240 O1253 2.343 . S
Tb1240 O1255 2.353 . S
Tb1240 O1257 2.427 . S
Tb1240 O1258 2.513 . S
C1241 O1245 1.251 . S
C1241 O1247 1.263 . S
Tb1242 O1244 2.343 . S
Tb1242 O1247 2.353 . S
Tb1242 O1250 2.427 . S
Tb1242 O1251 2.513 . S
Tb1242 O1252 2.453 . S
Tb1242 O1253 2.596 . S
Tb1242 O1254 2.374 . S
O1243 Tb1240 2.453 . S
O1243 C1259 1.245 . S
O1244 Tb1240 2.596 . S
O1244 Tb1242 2.343 . S
O1244 C1259 1.259 . S
O1245 Tb1240 2.374 . S
O1245 C1241 1.251 . S
C1246 O1250 1.275 . S
C1246 O1251 1.246 . S
O1247 C1241 1.263 . S
O1247 Tb1242 2.353 . S
C1248 O1252 1.245 . S
C1248 O1253 1.259 . S
C1249 O1254 1.250 . S
C1249 O1255 1.263 . S
O1250 Tb1242 2.427 . S
O1250 C1246 1.275 . S
O1251 Tb1242 2.513 . S
O1251 C1246 1.246 . S
O1252 Tb1242 2.453 . S
O1252 C1248 1.245 . S
O1253 Tb1240 2.343 . S
O1253 Tb1242 2.596 . S
O1253 C1248 1.259 . S
O1254 Tb1242 2.374 . S
O1254 C1249 1.250 . S
O1255 Tb1240 2.353 . S
O1255 C1249 1.263 . S
C1256 O1257 1.275 . S
C1256 O1258 1.246 . S
O1257 Tb1240 2.427 . S
O1257 C1256 1.275 . S
O1258 Tb1240 2.513 . S
O1258 C1256 1.246 . S
C1259 O1243 1.245 . S
C1259 O1244 1.259 . S
Tb1260 O1263 2.453 . S
Tb1260 O1264 2.596 . S
Tb1260 O1265 2.374 . S
Tb1260 O1273 2.343 . S
Tb1260 O1275 2.353 . S
Tb1260 O1277 2.427 . S
Tb1260 O1278 2.513 . S
C1261 O1265 1.251 . S
C1261 O1267 1.263 . S
Tb1262 O1264 2.343 . S
Tb1262 O1267 2.353 . S
Tb1262 O1270 2.427 . S
Tb1262 O1271 2.513 . S
Tb1262 O1272 2.453 . S
Tb1262 O1273 2.596 . S
Tb1262 O1274 2.374 . S
O1263 Tb1260 2.453 . S
O1263 C1279 1.245 . S
O1264 Tb1260 2.596 . S
O1264 Tb1262 2.343 . S
O1264 C1279 1.259 . S
O1265 Tb1260 2.374 . S
O1265 C1261 1.251 . S
C1266 O1270 1.275 . S
C1266 O1271 1.246 . S
O1267 C1261 1.263 . S
O1267 Tb1262 2.353 . S
C1268 O1272 1.245 . S
C1268 O1273 1.259 . S
C1269 O1274 1.250 . S
C1269 O1275 1.263 . S
O1270 Tb1262 2.427 . S
O1270 C1266 1.275 . S
O1271 Tb1262 2.513 . S
O1271 C1266 1.246 . S
O1272 Tb1262 2.453 . S
O1272 C1268 1.245 . S
O1273 Tb1260 2.343 . S
O1273 Tb1262 2.596 . S
O1273 C1268 1.259 . S
O1274 Tb1262 2.374 . S
O1274 C1269 1.250 . S
O1275 Tb1260 2.353 . S
O1275 C1269 1.263 . S
C1276 O1277 1.275 . S
C1276 O1278 1.246 . S
O1277 Tb1260 2.427 . S
O1277 C1276 1.275 . S
O1278 Tb1260 2.513 . S
O1278 C1276 1.246 . S
C1279 O1263 1.245 . S
C1279 O1264 1.259 . S
Tb1280 O1283 2.453 . S
Tb1280 O1284 2.596 . S
Tb1280 O1285 2.374 . S
Tb1280 O1293 2.343 . S
Tb1280 O1295 2.353 . S
Tb1280 O1297 2.427 . S
Tb1280 O1298 2.513 . S
C1281 O1285 1.251 . S
C1281 O1287 1.263 . S
Tb1282 O1284 2.343 . S
Tb1282 O1287 2.353 . S
Tb1282 O1290 2.427 . S
Tb1282 O1291 2.513 . S
Tb1282 O1292 2.453 . S
Tb1282 O1293 2.596 . S
Tb1282 O1294 2.374 . S
O1283 Tb1280 2.453 . S
O1283 C1299 1.245 . S
O1284 Tb1280 2.596 . S
O1284 Tb1282 2.343 . S
O1284 C1299 1.259 . S
O1285 Tb1280 2.374 . S
O1285 C1281 1.251 . S
C1286 O1290 1.275 . S
C1286 O1291 1.246 . S
O1287 C1281 1.263 . S
O1287 Tb1282 2.353 . S
C1288 O1292 1.245 . S
C1288 O1293 1.259 . S
C1289 O1294 1.250 . S
C1289 O1295 1.263 . S
O1290 Tb1282 2.427 . S
O1290 C1286 1.275 . S
O1291 Tb1282 2.513 . S
O1291 C1286 1.246 . S
O1292 Tb1282 2.453 . S
O1292 C1288 1.245 . S
O1293 Tb1280 2.343 . S
O1293 Tb1282 2.596 . S
O1293 C1288 1.259 . S
O1294 Tb1282 2.374 . S
O1294 C1289 1.250 . S
O1295 Tb1280 2.353 . S
O1295 C1289 1.263 . S
C1296 O1297 1.275 . S
C1296 O1298 1.246 . S
O1297 Tb1280 2.427 . S
O1297 C1296 1.275 . S
O1298 Tb1280 2.513 . S
O1298 C1296 1.246 . S
C1299 O1283 1.245 . S
C1299 O1284 1.259 . S
Tb1300 O1303 2.453 . S
Tb1300 O1304 2.596 . S
Tb1300 O1305 2.374 . S
Tb1300 O1313 2.343 . S
Tb1300 O1315 2.353 . S
Tb1300 O1317 2.427 . S
Tb1300 O1318 2.513 . S
C1301 O1305 1.251 . S
C1301 O1307 1.263 . S
Tb1302 O1304 2.343 . S
Tb1302 O1307 2.353 . S
Tb1302 O1310 2.427 . S
Tb1302 O1311 2.513 . S
Tb1302 O1312 2.453 . S
Tb1302 O1313 2.596 . S
Tb1302 O1314 2.374 . S
O1303 Tb1300 2.453 . S
O1303 C1319 1.245 . S
O1304 Tb1300 2.596 . S
O1304 Tb1302 2.343 . S
O1304 C1319 1.259 . S
O1305 Tb1300 2.374 . S
O1305 C1301 1.251 . S
C1306 O1310 1.275 . S
C1306 O1311 1.246 . S
O1307 C1301 1.263 . S
O1307 Tb1302 2.353 . S
C1308 O1312 1.245 . S
C1308 O1313 1.259 . S
C1309 O1314 1.250 . S
C1309 O1315 1.263 . S
O1310 Tb1302 2.427 . S
O1310 C1306 1.275 . S
O1311 Tb1302 2.513 . S
O1311 C1306 1.246 . S
O1312 Tb1302 2.453 . S
O1312 C1308 1.245 . S
O1313 Tb1300 2.343 . S
O1313 Tb1302 2.596 . S
O1313 C1308 1.259 . S
O1314 Tb1302 2.374 . S
O1314 C1309 1.250 . S
O1315 Tb1300 2.353 . S
O1315 C1309 1.263 . S
C1316 O1317 1.275 . S
C1316 O1318 1.246 . S
O1317 Tb1300 2.427 . S
O1317 C1316 1.275 . S
O1318 Tb1300 2.513 . S
O1318 C1316 1.246 . S
C1319 O1303 1.245 . S
C1319 O1304 1.259 . S
Tb1320 O1323 2.453 . S
Tb1320 O1324 2.596 . S
Tb1320 O1325 2.374 . S
Tb1320 O1333 2.343 . S
Tb1320 O1335 2.353 . S
Tb1320 O1337 2.427 . S
Tb1320 O1338 2.513 . S
C1321 O1325 1.251 . S
C1321 O1327 1.263 . S
Tb1322 O1324 2.343 . S
Tb1322 O1327 2.353 . S
Tb1322 O1330 2.427 . S
Tb1322 O1331 2.513 . S
Tb1322 O1332 2.453 . S
Tb1322 O1333 2.596 . S
Tb1322 O1334 2.374 . S
O1323 Tb1320 2.453 . S
O1323 C1339 1.245 . S
O1324 Tb1320 2.596 . S
O1324 Tb1322 2.343 . S
O1324 C1339 1.259 . S
O1325 Tb1320 2.374 . S
O1325 C1321 1.251 . S
C1326 O1330 1.275 . S
C1326 O1331 1.246 . S
O1327 C1321 1.263 . S
O1327 Tb1322 2.353 . S
C1328 O1332 1.245 . S
C1328 O1333 1.259 . S
C1329 O1334 1.250 . S
C1329 O1335 1.263 . S
O1330 Tb1322 2.427 . S
O1330 C1326 1.275 . S
O1331 Tb1322 2.513 . S
O1331 C1326 1.246 . S
O1332 Tb1322 2.453 . S
O1332 C1328 1.245 . S
O1333 Tb1320 2.343 . S
O1333 Tb1322 2.596 . S
O1333 C1328 1.259 . S
O1334 Tb1322 2.374 . S
O1334 C1329 1.250 . S
O1335 Tb1320 2.353 . S
O1335 C1329 1.263 . S
C1336 O1337 1.275 . S
C1336 O1338 1.246 . S
O1337 Tb1320 2.427 . S
O1337 C1336 1.275 . S
O1338 Tb1320 2.513 . S
O1338 C1336 1.246 . S
C1339 O1323 1.245 . S
C1339 O1324 1.259 . S
Tb1340 O1343 2.453 . S
Tb1340 O1344 2.596 . S
Tb1340 O1345 2.374 . S
Tb1340 O1353 2.343 . S
Tb1340 O1355 2.353 . S
Tb1340 O1357 2.427 . S
Tb1340 O1358 2.513 . S
C1341 O1345 1.251 . S
C1341 O1347 1.263 . S
Tb1342 O1344 2.343 . S
Tb1342 O1347 2.353 . S
Tb1342 O1350 2.427 . S
Tb1342 O1351 2.513 . S
Tb1342 O1352 2.453 . S
Tb1342 O1353 2.596 . S
Tb1342 O1354 2.374 . S
O1343 Tb1340 2.453 . S
O1343 C1359 1.245 . S
O1344 Tb1340 2.596 . S
O1344 Tb1342 2.343 . S
O1344 C1359 1.259 . S
O1345 Tb1340 2.374 . S
O1345 C1341 1.251 . S
C1346 O1350 1.275 . S
C1346 O1351 1.246 . S
O1347 C1341 1.263 . S
O1347 Tb1342 2.353 . S
C1348 O1352 1.245 . S
C1348 O1353 1.259 . S
C1349 O1354 1.250 . S
C1349 O1355 1.263 . S
O1350 Tb1342 2.427 . S
O1350 C1346 1.275 . S
O1351 Tb1342 2.513 . S
O1351 C1346 1.246 . S
O1352 Tb1342 2.453 . S
O1352 C1348 1.245 . S
O1353 Tb1340 2.343 . S
O1353 Tb1342 2.596 . S
O1353 C1348 1.259 . S
O1354 Tb1342 2.374 . S
O1354 C1349 1.250 . S
O1355 Tb1340 2.353 . S
O1355 C1349 1.263 . S
C1356 O1357 1.275 . S
C1356 O1358 1.246 . S
O1357 Tb1340 2.427 . S
O1357 C1356 1.275 . S
O1358 Tb1340 2.513 . S
O1358 C1356 1.246 . S
C1359 O1343 1.245 . S
C1359 O1344 1.259 . S
Tb1360 O1363 2.453 . S
Tb1360 O1364 2.596 . S
Tb1360 O1365 2.374 . S
Tb1360 O1373 2.343 . S
Tb1360 O1375 2.353 . S
Tb1360 O1377 2.427 . S
Tb1360 O1378 2.513 . S
C1361 O1365 1.251 . S
C1361 O1367 1.263 . S
Tb1362 O1364 2.343 . S
Tb1362 O1367 2.353 . S
Tb1362 O1370 2.427 . S
Tb1362 O1371 2.513 . S
Tb1362 O1372 2.453 . S
Tb1362 O1373 2.596 . S
Tb1362 O1374 2.374 . S
O1363 Tb1360 2.453 . S
O1363 C1379 1.245 . S
O1364 Tb1360 2.596 . S
O1364 Tb1362 2.343 . S
O1364 C1379 1.259 . S
O1365 Tb1360 2.374 . S
O1365 C1361 1.251 . S
C1366 O1370 1.275 . S
C1366 O1371 1.246 . S
O1367 C1361 1.263 . S
O1367 Tb1362 2.353 . S
C1368 O1372 1.245 . S
C1368 O1373 1.259 . S
C1369 O1374 1.250 . S
C1369 O1375 1.263 . S
O1370 Tb1362 2.427 . S
O1370 C1366 1.275 . S
O1371 Tb1362 2.513 . S
O1371 C1366 1.246 . S
O1372 Tb1362 2.453 . S
O1372 C1368 1.245 . S
O1373 Tb1360 2.343 . S
O1373 Tb1362 2.596 . S
O1373 C1368 1.259 . S
O1374 Tb1362 2.374 . S
O1374 C1369 1.250 . S
O1375 Tb1360 2.353 . S
O1375 C1369 1.263 . S
C1376 O1377 1.275 . S
C1376 O1378 1.246 . S
O1377 Tb1360 2.427 . S
O1377 C1376 1.275 . S
O1378 Tb1360 2.513 . S
O1378 C1376 1.246 . S
C1379 O1363 1.245 . S
C1379 O1364 1.259 . S
Tb1380 O1383 2.404 1_554 S
Tb1380 O1384 2.596 . S
Tb1380 O1385 2.374 . S
Tb1380 O1393 2.343 . S
Tb1380 O1395 2.353 . S
Tb1380 O1397 2.427 . S
Tb1380 O1398 2.513 . S
C1381 O1385 1.251 . S
C1381 O1387 1.263 . S
Tb1382 O1384 2.343 . S
Tb1382 O1387 2.353 . S
Tb1382 O1390 2.399 1_554 S
Tb1382 O1391 2.513 . S
Tb1382 O1392 2.453 . S
Tb1382 O1393 2.596 . S
Tb1382 O1394 2.374 . S
O1383 Tb1380 2.404 1_556 S
O1383 C1399 1.254 . S
O1384 Tb1380 2.596 . S
O1384 Tb1382 2.343 . S
O1384 C1399 1.259 1_554 S
O1385 Tb1380 2.374 . S
O1385 C1381 1.251 . S
C1386 O1390 1.277 . S
C1386 O1391 1.246 1_556 S
O1387 C1381 1.263 . S
O1387 Tb1382 2.353 . S
C1388 O1392 1.245 . S
C1388 O1393 1.259 . S
C1389 O1394 1.250 . S
C1389 O1395 1.263 . S
O1390 Tb1382 2.399 1_556 S
O1390 C1386 1.277 . S
O1391 Tb1382 2.513 . S
O1391 C1386 1.246 1_554 S
O1392 Tb1382 2.453 . S
O1392 C1388 1.245 . S
O1393 Tb1380 2.343 . S
O1393 Tb1382 2.596 . S
O1393 C1388 1.259 . S
O1394 Tb1382 2.374 . S
O1394 C1389 1.250 . S
O1395 Tb1380 2.353 . S
O1395 C1389 1.263 . S
C1396 O1397 1.275 . S
C1396 O1398 1.246 . S
O1397 Tb1380 2.427 . S
O1397 C1396 1.275 . S
O1398 Tb1380 2.513 . S
O1398 C1396 1.246 . S
C1399 O1383 1.254 . S
C1399 O1384 1.259 1_556 S
Tb1400 O1403 2.453 . S
Tb1400 O1404 2.596 . S
Tb1400 O1405 2.374 . S
Tb1400 O1413 2.343 . S
Tb1400 O1415 2.353 . S
Tb1400 O1417 2.427 . S
Tb1400 O1418 2.513 . S
C1401 O1405 1.251 . S
C1401 O1407 1.263 . S
Tb1402 O1404 2.343 . S
Tb1402 O1407 2.353 . S
Tb1402 O1410 2.427 . S
Tb1402 O1411 2.513 . S
Tb1402 O1412 2.453 . S
Tb1402 O1413 2.596 . S
Tb1402 O1414 2.374 . S
O1403 Tb1400 2.453 . S
O1403 C1419 1.245 . S
O1404 Tb1400 2.596 . S
O1404 Tb1402 2.343 . S
O1404 C1419 1.259 . S
O1405 Tb1400 2.374 . S
O1405 C1401 1.251 . S
C1406 O1410 1.275 . S
C1406 O1411 1.246 . S
O1407 C1401 1.263 . S
O1407 Tb1402 2.353 . S
C1408 O1412 1.245 . S
C1408 O1413 1.259 . S
C1409 O1414 1.250 . S
C1409 O1415 1.263 . S
O1410 Tb1402 2.427 . S
O1410 C1406 1.275 . S
O1411 Tb1402 2.513 . S
O1411 C1406 1.246 . S
O1412 Tb1402 2.453 . S
O1412 C1408 1.245 . S
O1413 Tb1400 2.343 . S
O1413 Tb1402 2.596 . S
O1413 C1408 1.259 . S
O1414 Tb1402 2.374 . S
O1414 C1409 1.250 . S
O1415 Tb1400 2.353 . S
O1415 C1409 1.263 . S
C1416 O1417 1.275 . S
C1416 O1418 1.246 . S
O1417 Tb1400 2.427 . S
O1417 C1416 1.275 . S
O1418 Tb1400 2.513 . S
O1418 C1416 1.246 . S
C1419 O1403 1.245 . S
C1419 O1404 1.259 . S
Tb1420 O1423 2.453 . S
Tb1420 O1424 2.596 . S
Tb1420 O1425 2.374 . S
Tb1420 O1433 2.343 . S
Tb1420 O1435 2.353 . S
Tb1420 O1437 2.427 . S
Tb1420 O1438 2.513 . S
C1421 O1425 1.251 . S
C1421 O1427 1.263 . S
Tb1422 O1424 2.343 . S
Tb1422 O1427 2.353 . S
Tb1422 O1430 2.427 . S
Tb1422 O1431 2.513 . S
Tb1422 O1432 2.453 . S
Tb1422 O1433 2.596 . S
Tb1422 O1434 2.374 . S
O1423 Tb1420 2.453 . S
O1423 C1439 1.245 . S
O1424 Tb1420 2.596 . S
O1424 Tb1422 2.343 . S
O1424 C1439 1.259 . S
O1425 Tb1420 2.374 . S
O1425 C1421 1.251 . S
C1426 O1430 1.275 . S
C1426 O1431 1.246 . S
O1427 C1421 1.263 . S
O1427 Tb1422 2.353 . S
C1428 O1432 1.245 . S
C1428 O1433 1.259 . S
C1429 O1434 1.250 . S
C1429 O1435 1.263 . S
O1430 Tb1422 2.427 . S
O1430 C1426 1.275 . S
O1431 Tb1422 2.513 . S
O1431 C1426 1.246 . S
O1432 Tb1422 2.453 . S
O1432 C1428 1.245 . S
O1433 Tb1420 2.343 . S
O1433 Tb1422 2.596 . S
O1433 C1428 1.259 . S
O1434 Tb1422 2.374 . S
O1434 C1429 1.250 . S
O1435 Tb1420 2.353 . S
O1435 C1429 1.263 . S
C1436 O1437 1.275 . S
C1436 O1438 1.246 . S
O1437 Tb1420 2.427 . S
O1437 C1436 1.275 . S
O1438 Tb1420 2.513 . S
O1438 C1436 1.246 . S
C1439 O1423 1.245 . S
C1439 O1424 1.259 . S
Tb1440 O1443 2.453 . S
Tb1440 O1444 2.596 . S
Tb1440 O1445 2.374 . S
Tb1440 O1453 2.343 . S
Tb1440 O1455 2.353 . S
Tb1440 O1457 2.427 . S
Tb1440 O1458 2.513 . S
C1441 O1445 1.251 . S
C1441 O1447 1.263 . S
Tb1442 O1444 2.343 . S
Tb1442 O1447 2.353 . S
Tb1442 O1450 2.427 . S
Tb1442 O1451 2.513 . S
Tb1442 O1452 2.453 . S
Tb1442 O1453 2.596 . S
Tb1442 O1454 2.374 . S
O1443 Tb1440 2.453 . S
O1443 C1459 1.245 . S
O1444 Tb1440 2.596 . S
O1444 Tb1442 2.343 . S
O1444 C1459 1.259 . S
O1445 Tb1440 2.374 . S
O1445 C1441 1.251 . S
C1446 O1450 1.275 . S
C1446 O1451 1.246 . S
O1447 C1441 1.263 . S
O1447 Tb1442 2.353 . S
C1448 O1452 1.245 . S
C1448 O1453 1.259 . S
C1449 O1454 1.250 . S
C1449 O1455 1.263 . S
O1450 Tb1442 2.427 . S
O1450 C1446 1.275 . S
O1451 Tb1442 2.513 . S
O1451 C1446 1.246 . S
O1452 Tb1442 2.453 . S
O1452 C1448 1.245 . S
O1453 Tb1440 2.343 . S
O1453 Tb1442 2.596 . S
O1453 C1448 1.259 . S
O1454 Tb1442 2.374 . S
O1454 C1449 1.250 . S
O1455 Tb1440 2.353 . S
O1455 C1449 1.263 . S
C1456 O1457 1.275 . S
C1456 O1458 1.246 . S
O1457 Tb1440 2.427 . S
O1457 C1456 1.275 . S
O1458 Tb1440 2.513 . S
O1458 C1456 1.246 . S
C1459 O1443 1.245 . S
C1459 O1444 1.259 . S
Tb1460 O1463 2.453 . S
Tb1460 O1464 2.596 . S
Tb1460 O1465 2.374 . S
Tb1460 O1473 2.343 . S
Tb1460 O1475 2.353 . S
Tb1460 O1477 2.427 . S
Tb1460 O1478 2.513 . S
C1461 O1465 1.251 . S
C1461 O1467 1.263 . S
Tb1462 O1464 2.343 . S
Tb1462 O1467 2.353 . S
Tb1462 O1470 2.427 . S
Tb1462 O1471 2.513 . S
Tb1462 O1472 2.453 . S
Tb1462 O1473 2.596 . S
Tb1462 O1474 2.374 . S
O1463 Tb1460 2.453 . S
O1463 C1479 1.245 . S
O1464 Tb1460 2.596 . S
O1464 Tb1462 2.343 . S
O1464 C1479 1.259 . S
O1465 Tb1460 2.374 . S
O1465 C1461 1.251 . S
C1466 O1470 1.275 . S
C1466 O1471 1.246 . S
O1467 C1461 1.263 . S
O1467 Tb1462 2.353 . S
C1468 O1472 1.245 . S
C1468 O1473 1.259 . S
C1469 O1474 1.250 . S
C1469 O1475 1.263 . S
O1470 Tb1462 2.427 . S
O1470 C1466 1.275 . S
O1471 Tb1462 2.513 . S
O1471 C1466 1.246 . S
O1472 Tb1462 2.453 . S
O1472 C1468 1.245 . S
O1473 Tb1460 2.343 . S
O1473 Tb1462 2.596 . S
O1473 C1468 1.259 . S
O1474 Tb1462 2.374 . S
O1474 C1469 1.250 . S
O1475 Tb1460 2.353 . S
O1475 C1469 1.263 . S
C1476 O1477 1.275 . S
C1476 O1478 1.246 . S
O1477 Tb1460 2.427 . S
O1477 C1476 1.275 . S
O1478 Tb1460 2.513 . S
O1478 C1476 1.246 . S
C1479 O1463 1.245 . S
C1479 O1464 1.259 . S
Tb1480 O1483 2.453 . S
Tb1480 O1484 2.596 . S
Tb1480 O1485 2.374 . S
Tb1480 O1493 2.343 . S
Tb1480 O1495 2.353 . S
Tb1480 O1497 2.427 . S
Tb1480 O1498 2.513 . S
C1481 O1485 1.251 1_655 S
C1481 O1487 1.263 . S
Tb1482 O1484 2.347 . S
Tb1482 O1487 2.348 1_455 S
Tb1482 O1490 2.391 1_455 S
Tb1482 O1491 2.493 1_455 S
Tb1482 O1492 2.477 . S
Tb1482 O1493 2.629 . S
Tb1482 O1494 2.398 . S
O1483 Tb1480 2.453 . S
O1483 C1499 1.285 . S
O1484 Tb1480 2.596 . S
O1484 Tb1482 2.347 . S
O1484 C1499 1.270 . S
O1485 Tb1480 2.374 . S
O1485 C1481 1.251 1_455 S
C1486 O1490 1.275 . S
C1486 O1491 1.246 . S
O1487 C1481 1.263 . S
O1487 Tb1482 2.348 1_655 S
C1488 O1492 1.245 . S
C1488 O1493 1.259 . S
C1489 O1494 1.250 . S
C1489 O1495 1.263 . S
O1490 Tb1482 2.391 1_655 S
O1490 C1486 1.275 . S
O1491 Tb1482 2.493 1_655 S
O1491 C1486 1.246 . S
O1492 Tb1482 2.477 . S
O1492 C1488 1.245 . S
O1493 Tb1480 2.343 . S
O1493 Tb1482 2.629 . S
O1493 C1488 1.259 . S
O1494 Tb1482 2.398 . S
O1494 C1489 1.250 . S
O1495 Tb1480 2.353 . S
O1495 C1489 1.263 . S
C1496 O1497 1.275 . S
C1496 O1498 1.246 . S
O1497 Tb1480 2.427 . S
O1497 C1496 1.275 . S
O1498 Tb1480 2.513 . S
O1498 C1496 1.246 . S
C1499 O1483 1.285 . S
C1499 O1484 1.270 . S
Tb1500 O1503 2.453 . S
Tb1500 O1504 2.596 . S
Tb1500 O1505 2.374 . S
Tb1500 O1513 2.343 . S
Tb1500 O1515 2.353 . S
Tb1500 O1517 2.427 . S
Tb1500 O1518 2.513 . S
C1501 O1505 1.251 . S
C1501 O1507 1.263 . S
Tb1502 O1504 2.343 . S
Tb1502 O1507 2.353 . S
Tb1502 O1510 2.427 . S
Tb1502 O1511 2.513 . S
Tb1502 O1512 2.453 . S
Tb1502 O1513 2.596 . S
Tb1502 O1514 2.374 . S
O1503 Tb1500 2.453 . S
O1503 C1519 1.245 . S
O1504 Tb1500 2.596 . S
O1504 Tb1502 2.343 . S
O1504 C1519 1.259 . S
O1505 Tb1500 2.374 . S
O1505 C1501 1.251 . S
C1506 O1510 1.275 . S
C1506 O1511 1.246 . S
O1507 C1501 1.263 . S
O1507 Tb1502 2.353 . S
C1508 O1512 1.245 . S
C1508 O1513 1.259 . S
C1509 O1514 1.250 . S
C1509 O1515 1.263 . S
O1510 Tb1502 2.427 . S
O1510 C1506 1.275 . S
O1511 Tb1502 2.513 . S
O1511 C1506 1.246 . S
O1512 Tb1502 2.453 . S
O1512 C1508 1.245 . S
O1513 Tb1500 2.343 . S
O1513 Tb1502 2.596 . S
O1513 C1508 1.259 . S
O1514 Tb1502 2.374 . S
O1514 C1509 1.250 . S
O1515 Tb1500 2.353 . S
O1515 C1509 1.263 . S
C1516 O1517 1.275 . S
C1516 O1518 1.246 . S
O1517 Tb1500 2.427 . S
O1517 C1516 1.275 . S
O1518 Tb1500 2.513 . S
O1518 C1516 1.246 . S
C1519 O1503 1.245 . S
C1519 O1504 1.259 . S
Tb1520 O1523 2.453 . S
Tb1520 O1524 2.596 . S
Tb1520 O1525 2.374 . S
Tb1520 O1533 2.343 . S
Tb1520 O1535 2.353 . S
Tb1520 O1537 2.427 . S
Tb1520 O1538 2.513 . S
C1521 O1525 1.251 . S
C1521 O1527 1.263 . S
Tb1522 O1524 2.343 . S
Tb1522 O1527 2.353 . S
Tb1522 O1530 2.427 . S
Tb1522 O1531 2.513 . S
Tb1522 O1532 2.453 . S
Tb1522 O1533 2.596 . S
Tb1522 O1534 2.374 . S
O1523 Tb1520 2.453 . S
O1523 C1539 1.245 . S
O1524 Tb1520 2.596 . S
O1524 Tb1522 2.343 . S
O1524 C1539 1.259 . S
O1525 Tb1520 2.374 . S
O1525 C1521 1.251 . S
C1526 O1530 1.275 . S
C1526 O1531 1.246 . S
O1527 C1521 1.263 . S
O1527 Tb1522 2.353 . S
C1528 O1532 1.245 . S
C1528 O1533 1.259 . S
C1529 O1534 1.250 . S
C1529 O1535 1.263 . S
O1530 Tb1522 2.427 . S
O1530 C1526 1.275 . S
O1531 Tb1522 2.513 . S
O1531 C1526 1.246 . S
O1532 Tb1522 2.453 . S
O1532 C1528 1.245 . S
O1533 Tb1520 2.343 . S
O1533 Tb1522 2.596 . S
O1533 C1528 1.259 . S
O1534 Tb1522 2.374 . S
O1534 C1529 1.250 . S
O1535 Tb1520 2.353 . S
O1535 C1529 1.263 . S
C1536 O1537 1.275 . S
C1536 O1538 1.246 . S
O1537 Tb1520 2.427 . S
O1537 C1536 1.275 . S
O1538 Tb1520 2.513 . S
O1538 C1536 1.246 . S
C1539 O1523 1.245 . S
C1539 O1524 1.259 . S
Tb1540 O1543 2.453 . S
Tb1540 O1544 2.596 . S
Tb1540 O1545 2.374 . S
Tb1540 O1553 2.343 . S
Tb1540 O1555 2.353 . S
Tb1540 O1557 2.427 . S
Tb1540 O1558 2.513 . S
C1541 O1545 1.251 . S
C1541 O1547 1.263 . S
Tb1542 O1544 2.343 . S
Tb1542 O1547 2.353 . S
Tb1542 O1550 2.427 . S
Tb1542 O1551 2.513 . S
Tb1542 O1552 2.453 . S
Tb1542 O1553 2.596 . S
Tb1542 O1554 2.374 . S
O1543 Tb1540 2.453 . S
O1543 C1559 1.245 . S
O1544 Tb1540 2.596 . S
O1544 Tb1542 2.343 . S
O1544 C1559 1.259 . S
O1545 Tb1540 2.374 . S
O1545 C1541 1.251 . S
C1546 O1550 1.275 . S
C1546 O1551 1.246 . S
O1547 C1541 1.263 . S
O1547 Tb1542 2.353 . S
C1548 O1552 1.245 . S
C1548 O1553 1.259 . S
C1549 O1554 1.250 . S
C1549 O1555 1.263 . S
O1550 Tb1542 2.427 . S
O1550 C1546 1.275 . S
O1551 Tb1542 2.513 . S
O1551 C1546 1.246 . S
O1552 Tb1542 2.453 . S
O1552 C1548 1.245 . S
O1553 Tb1540 2.343 . S
O1553 Tb1542 2.596 . S
O1553 C1548 1.259 . S
O1554 Tb1542 2.374 . S
O1554 C1549 1.250 . S
O1555 Tb1540 2.353 . S
O1555 C1549 1.263 . S
C1556 O1557 1.275 . S
C1556 O1558 1.246 . S
O1557 Tb1540 2.427 . S
O1557 C1556 1.275 . S
O1558 Tb1540 2.513 . S
O1558 C1556 1.246 . S
C1559 O1543 1.245 . S
C1559 O1544 1.259 . S
Tb1560 O1563 2.453 . S
Tb1560 O1564 2.596 . S
Tb1560 O1565 2.374 . S
Tb1560 O1573 2.343 . S
Tb1560 O1575 2.353 . S
Tb1560 O1577 2.427 . S
Tb1560 O1578 2.513 . S
C1561 O1565 1.251 . S
C1561 O1567 1.263 . S
Tb1562 O1564 2.343 . S
Tb1562 O1567 2.353 . S
Tb1562 O1570 2.427 . S
Tb1562 O1571 2.513 . S
Tb1562 O1572 2.453 . S
Tb1562 O1573 2.596 . S
Tb1562 O1574 2.374 . S
O1563 Tb1560 2.453 . S
O1563 C1579 1.245 . S
O1564 Tb1560 2.596 . S
O1564 Tb1562 2.343 . S
O1564 C1579 1.259 . S
O1565 Tb1560 2.374 . S
O1565 C1561 1.251 . S
C1566 O1570 1.275 . S
C1566 O1571 1.246 . S
O1567 C1561 1.263 . S
O1567 Tb1562 2.353 . S
C1568 O1572 1.245 . S
C1568 O1573 1.259 . S
C1569 O1574 1.250 . S
C1569 O1575 1.263 . S
O1570 Tb1562 2.427 . S
O1570 C1566 1.275 . S
O1571 Tb1562 2.513 . S
O1571 C1566 1.246 . S
O1572 Tb1562 2.453 . S
O1572 C1568 1.245 . S
O1573 Tb1560 2.343 . S
O1573 Tb1562 2.596 . S
O1573 C1568 1.259 . S
O1574 Tb1562 2.374 . S
O1574 C1569 1.250 . S
O1575 Tb1560 2.353 . S
O1575 C1569 1.263 . S
C1576 O1577 1.275 . S
C1576 O1578 1.246 . S
O1577 Tb1560 2.427 . S
O1577 C1576 1.275 . S
O1578 Tb1560 2.513 . S
O1578 C1576 1.246 . S
C1579 O1563 1.245 . S
C1579 O1564 1.259 . S
Tb1580 O1583 2.453 . S
Tb1580 O1584 2.596 . S
Tb1580 O1585 2.374 . S
Tb1580 O1593 2.343 . S
Tb1580 O1595 2.353 . S
Tb1580 O1597 2.427 . S
Tb1580 O1598 2.513 . S
C1581 O1585 1.251 . S
C1581 O1587 1.263 . S
Tb1582 O1584 2.343 . S
Tb1582 O1587 2.353 . S
Tb1582 O1590 2.427 . S
Tb1582 O1591 2.513 . S
Tb1582 O1592 2.453 . S
Tb1582 O1593 2.596 . S
Tb1582 O1594 2.374 . S
O1583 Tb1580 2.453 . S
O1583 C1599 1.245 . S
O1584 Tb1580 2.596 . S
O1584 Tb1582 2.343 . S
O1584 C1599 1.259 . S
O1585 Tb1580 2.374 . S
O1585 C1581 1.251 . S
C1586 O1590 1.275 . S
C1586 O1591 1.246 . S
O1587 C1581 1.263 . S
O1587 Tb1582 2.353 . S
C1588 O1592 1.245 . S
C1588 O1593 1.259 . S
C1589 O1594 1.250 . S
C1589 O1595 1.263 . S
O1590 Tb1582 2.427 . S
O1590 C1586 1.275 . S
O1591 Tb1582 2.513 . S
O1591 C1586 1.246 . S
O1592 Tb1582 2.453 . S
O1592 C1588 1.245 . S
O1593 Tb1580 2.343 . S
O1593 Tb1582 2.596 . S
O1593 C1588 1.259 . S
O1594 Tb1582 2.374 . S
O1594 C1589 1.250 . S
O1595 Tb1580 2.353 . S
O1595 C1589 1.263 . S
C1596 O1597 1.275 . S
C1596 O1598 1.246 . S
O1597 Tb1580 2.427 . S
O1597 C1596 1.275 . S
O1598 Tb1580 2.513 . S
O1598 C1596 1.246 . S
C1599 O1583 1.245 . S
C1599 O1584 1.259 . S
Tb1600 O1603 2.453 . S
Tb1600 O1604 2.596 . S
Tb1600 O1605 2.374 . S
Tb1600 O1613 2.343 . S
Tb1600 O1615 2.353 . S
Tb1600 O1617 2.427 . S
Tb1600 O1618 2.513 . S
C1601 O1605 1.251 . S
C1601 O1607 1.263 . S
Tb1602 O1604 2.343 . S
Tb1602 O1607 2.353 . S
Tb1602 O1610 2.427 . S
Tb1602 O1611 2.513 . S
Tb1602 O1612 2.453 . S
Tb1602 O1613 2.596 . S
Tb1602 O1614 2.374 . S
O1603 Tb1600 2.453 . S
O1603 C1619 1.245 . S
O1604 Tb1600 2.596 . S
O1604 Tb1602 2.343 . S
O1604 C1619 1.259 . S
O1605 Tb1600 2.374 . S
O1605 C1601 1.251 . S
C1606 O1610 1.275 . S
C1606 O1611 1.246 . S
O1607 C1601 1.263 . S
O1607 Tb1602 2.353 . S
C1608 O1612 1.245 . S
C1608 O1613 1.259 . S
C1609 O1614 1.250 . S
C1609 O1615 1.263 . S
O1610 Tb1602 2.427 . S
O1610 C1606 1.275 . S
O1611 Tb1602 2.513 . S
O1611 C1606 1.246 . S
O1612 Tb1602 2.453 . S
O1612 C1608 1.245 . S
O1613 Tb1600 2.343 . S
O1613 Tb1602 2.596 . S
O1613 C1608 1.259 . S
O1614 Tb1602 2.374 . S
O1614 C1609 1.250 . S
O1615 Tb1600 2.353 . S
O1615 C1609 1.263 . S
C1616 O1617 1.275 . S
C1616 O1618 1.246 . S
O1617 Tb1600 2.427 . S
O1617 C1616 1.275 . S
O1618 Tb1600 2.513 . S
O1618 C1616 1.246 . S
C1619 O1603 1.245 . S
C1619 O1604 1.259 . S
Tb1620 O1623 2.453 . S
Tb1620 O1624 2.596 . S
Tb1620 O1625 2.374 . S
Tb1620 O1633 2.343 . S
Tb1620 O1635 2.353 . S
Tb1620 O1637 2.427 . S
Tb1620 O1638 2.513 . S
C1621 O1625 1.251 . S
C1621 O1627 1.263 . S
Tb1622 O1624 2.343 . S
Tb1622 O1627 2.353 . S
Tb1622 O1630 2.427 . S
Tb1622 O1631 2.513 . S
Tb1622 O1632 2.453 . S
Tb1622 O1633 2.596 . S
Tb1622 O1634 2.374 . S
O1623 Tb1620 2.453 . S
O1623 C1639 1.245 . S
O1624 Tb1620 2.596 . S
O1624 Tb1622 2.343 . S
O1624 C1639 1.259 . S
O1625 Tb1620 2.374 . S
O1625 C1621 1.251 . S
C1626 O1630 1.275 . S
C1626 O1631 1.246 . S
O1627 C1621 1.263 . S
O1627 Tb1622 2.353 . S
C1628 O1632 1.245 . S
C1628 O1633 1.259 . S
C1629 O1634 1.250 . S
C1629 O1635 1.263 . S
O1630 Tb1622 2.427 . S
O1630 C1626 1.275 . S
O1631 Tb1622 2.513 . S
O1631 C1626 1.246 . S
O1632 Tb1622 2.453 . S
O1632 C1628 1.245 . S
O1633 Tb1620 2.343 . S
O1633 Tb1622 2.596 . S
O1633 C1628 1.259 . S
O1634 Tb1622 2.374 . S
O1634 C1629 1.250 . S
O1635 Tb1620 2.353 . S
O1635 C1629 1.263 . S
C1636 O1637 1.275 . S
C1636 O1638 1.246 . S
O1637 Tb1620 2.427 . S
O1637 C1636 1.275 . S
O1638 Tb1620 2.513 . S
O1638 C1636 1.246 . S
C1639 O1623 1.245 . S
C1639 O1624 1.259 . S
Tb1640 O1643 2.453 . S
Tb1640 O1644 2.596 . S
Tb1640 O1645 2.374 . S
Tb1640 O1653 2.343 . S
Tb1640 O1655 2.353 . S
Tb1640 O1657 2.427 . S
Tb1640 O1658 2.513 . S
C1641 O1645 1.251 . S
C1641 O1647 1.263 . S
Tb1642 O1644 2.343 . S
Tb1642 O1647 2.353 . S
Tb1642 O1650 2.427 . S
Tb1642 O1651 2.513 . S
Tb1642 O1652 2.453 . S
Tb1642 O1653 2.596 . S
Tb1642 O1654 2.374 . S
O1643 Tb1640 2.453 . S
O1643 C1659 1.245 . S
O1644 Tb1640 2.596 . S
O1644 Tb1642 2.343 . S
O1644 C1659 1.259 . S
O1645 Tb1640 2.374 . S
O1645 C1641 1.251 . S
C1646 O1650 1.275 . S
C1646 O1651 1.246 . S
O1647 C1641 1.263 . S
O1647 Tb1642 2.353 . S
C1648 O1652 1.245 . S
C1648 O1653 1.259 . S
C1649 O1654 1.250 . S
C1649 O1655 1.263 . S
O1650 Tb1642 2.427 . S
O1650 C1646 1.275 . S
O1651 Tb1642 2.513 . S
O1651 C1646 1.246 . S
O1652 Tb1642 2.453 . S
O1652 C1648 1.245 . S
O1653 Tb1640 2.343 . S
O1653 Tb1642 2.596 . S
O1653 C1648 1.259 . S
O1654 Tb1642 2.374 . S
O1654 C1649 1.250 . S
O1655 Tb1640 2.353 . S
O1655 C1649 1.263 . S
C1656 O1657 1.275 . S
C1656 O1658 1.246 . S
O1657 Tb1640 2.427 . S
O1657 C1656 1.275 . S
O1658 Tb1640 2.513 . S
O1658 C1656 1.246 . S
C1659 O1643 1.245 . S
C1659 O1644 1.259 . S
Tb1660 O1663 2.453 . S
Tb1660 O1664 2.596 . S
Tb1660 O1665 2.374 . S
Tb1660 O1673 2.343 . S
Tb1660 O1675 2.353 . S
Tb1660 O1677 2.427 . S
Tb1660 O1678 2.513 . S
C1661 O1665 1.251 . S
C1661 O1667 1.263 . S
Tb1662 O1664 2.343 . S
Tb1662 O1667 2.353 . S
Tb1662 O1670 2.427 . S
Tb1662 O1671 2.513 . S
Tb1662 O1672 2.453 . S
Tb1662 O1673 2.596 . S
Tb1662 O1674 2.374 . S
O1663 Tb1660 2.453 . S
O1663 C1679 1.245 . S
O1664 Tb1660 2.596 . S
O1664 Tb1662 2.343 . S
O1664 C1679 1.259 . S
O1665 Tb1660 2.374 . S
O1665 C1661 1.251 . S
C1666 O1670 1.275 . S
C1666 O1671 1.246 . S
O1667 C1661 1.263 . S
O1667 Tb1662 2.353 . S
C1668 O1672 1.245 . S
C1668 O1673 1.259 . S
C1669 O1674 1.250 . S
C1669 O1675 1.263 . S
O1670 Tb1662 2.427 . S
O1670 C1666 1.275 . S
O1671 Tb1662 2.513 . S
O1671 C1666 1.246 . S
O1672 Tb1662 2.453 . S
O1672 C1668 1.245 . S
O1673 Tb1660 2.343 . S
O1673 Tb1662 2.596 . S
O1673 C1668 1.259 . S
O1674 Tb1662 2.374 . S
O1674 C1669 1.250 . S
O1675 Tb1660 2.353 . S
O1675 C1669 1.263 . S
C1676 O1677 1.275 . S
C1676 O1678 1.246 . S
O1677 Tb1660 2.427 . S
O1677 C1676 1.275 . S
O1678 Tb1660 2.513 . S
O1678 C1676 1.246 . S
C1679 O1663 1.245 . S
C1679 O1664 1.259 . S
Tb1680 O1683 2.453 . S
Tb1680 O1684 2.596 . S
Tb1680 O1685 2.374 . S
Tb1680 O1693 2.343 . S
Tb1680 O1695 2.353 . S
Tb1680 O1697 2.427 . S
Tb1680 O1698 2.513 . S
C1681 O1685 1.251 . S
C1681 O1687 1.263 . S
Tb1682 O1684 2.343 . S
Tb1682 O1687 2.353 . S
Tb1682 O1690 2.427 . S
Tb1682 O1691 2.513 . S
Tb1682 O1692 2.453 . S
Tb1682 O1693 2.596 . S
Tb1682 O1694 2.374 . S
O1683 Tb1680 2.453 . S
O1683 C1699 1.245 . S
O1684 Tb1680 2.596 . S
O1684 Tb1682 2.343 . S
O1684 C1699 1.259 . S
O1685 Tb1680 2.374 . S
O1685 C1681 1.251 . S
C1686 O1690 1.275 . S
C1686 O1691 1.246 . S
O1687 C1681 1.263 . S
O1687 Tb1682 2.353 . S
C1688 O1692 1.245 . S
C1688 O1693 1.259 . S
C1689 O1694 1.250 . S
C1689 O1695 1.263 . S
O1690 Tb1682 2.427 . S
O1690 C1686 1.275 . S
O1691 Tb1682 2.513 . S
O1691 C1686 1.246 . S
O1692 Tb1682 2.453 . S
O1692 C1688 1.245 . S
O1693 Tb1680 2.343 . S
O1693 Tb1682 2.596 . S
O1693 C1688 1.259 . S
O1694 Tb1682 2.374 . S
O1694 C1689 1.250 . S
O1695 Tb1680 2.353 . S
O1695 C1689 1.263 . S
C1696 O1697 1.275 . S
C1696 O1698 1.246 . S
O1697 Tb1680 2.427 . S
O1697 C1696 1.275 . S
O1698 Tb1680 2.513 . S
O1698 C1696 1.246 . S
C1699 O1683 1.245 . S
C1699 O1684 1.259 . S
Tb1700 O1703 2.453 . S
Tb1700 O1704 2.596 . S
Tb1700 O1705 2.374 . S
Tb1700 O1713 2.343 . S
Tb1700 O1715 2.353 . S
Tb1700 O1717 2.427 . S
Tb1700 O1718 2.513 . S
C1701 O1705 1.251 . S
C1701 O1707 1.263 . S
Tb1702 O1704 2.343 . S
Tb1702 O1707 2.353 . S
Tb1702 O1710 2.427 . S
Tb1702 O1711 2.513 . S
Tb1702 O1712 2.453 . S
Tb1702 O1713 2.596 . S
Tb1702 O1714 2.374 . S
O1703 Tb1700 2.453 . S
O1703 C1719 1.245 . S
O1704 Tb1700 2.596 . S
O1704 Tb1702 2.343 . S
O1704 C1719 1.259 . S
O1705 Tb1700 2.374 . S
O1705 C1701 1.251 . S
C1706 O1710 1.275 . S
C1706 O1711 1.246 . S
O1707 C1701 1.263 . S
O1707 Tb1702 2.353 . S
C1708 O1712 1.245 . S
C1708 O1713 1.259 . S
C1709 O1714 1.250 . S
C1709 O1715 1.263 . S
O1710 Tb1702 2.427 . S
O1710 C1706 1.275 . S
O1711 Tb1702 2.513 . S
O1711 C1706 1.246 . S
O1712 Tb1702 2.453 . S
O1712 C1708 1.245 . S
O1713 Tb1700 2.343 . S
O1713 Tb1702 2.596 . S
O1713 C1708 1.259 . S
O1714 Tb1702 2.374 . S
O1714 C1709 1.250 . S
O1715 Tb1700 2.353 . S
O1715 C1709 1.263 . S
C1716 O1717 1.275 . S
C1716 O1718 1.246 . S
O1717 Tb1700 2.427 . S
O1717 C1716 1.275 . S
O1718 Tb1700 2.513 . S
O1718 C1716 1.246 . S
C1719 O1703 1.245 . S
C1719 O1704 1.259 . S
Tb1720 O1723 2.453 . S
Tb1720 O1724 2.596 . S
Tb1720 O1725 2.374 . S
Tb1720 O1733 2.343 . S
Tb1720 O1735 2.353 . S
Tb1720 O1737 2.427 . S
Tb1720 O1738 2.513 . S
C1721 O1725 1.251 . S
C1721 O1727 1.263 . S
Tb1722 O1724 2.343 . S
Tb1722 O1727 2.353 . S
Tb1722 O1730 2.427 . S
Tb1722 O1731 2.513 . S
Tb1722 O1732 2.453 . S
Tb1722 O1733 2.596 . S
Tb1722 O1734 2.374 . S
O1723 Tb1720 2.453 . S
O1723 C1739 1.245 . S
O1724 Tb1720 2.596 . S
O1724 Tb1722 2.343 . S
O1724 C1739 1.259 . S
O1725 Tb1720 2.374 . S
O1725 C1721 1.251 . S
C1726 O1730 1.275 . S
C1726 O1731 1.246 . S
O1727 C1721 1.263 . S
O1727 Tb1722 2.353 . S
C1728 O1732 1.245 . S
C1728 O1733 1.259 . S
C1729 O1734 1.250 . S
C1729 O1735 1.263 . S
O1730 Tb1722 2.427 . S
O1730 C1726 1.275 . S
O1731 Tb1722 2.513 . S
O1731 C1726 1.246 . S
O1732 Tb1722 2.453 . S
O1732 C1728 1.245 . S
O1733 Tb1720 2.343 . S
O1733 Tb1722 2.596 . S
O1733 C1728 1.259 . S
O1734 Tb1722 2.374 . S
O1734 C1729 1.250 . S
O1735 Tb1720 2.353 . S
O1735 C1729 1.263 . S
C1736 O1737 1.275 . S
C1736 O1738 1.246 . S
O1737 Tb1720 2.427 . S
O1737 C1736 1.275 . S
O1738 Tb1720 2.513 . S
O1738 C1736 1.246 . S
C1739 O1723 1.245 . S
C1739 O1724 1.259 . S
Tb1740 O1743 2.453 . S
Tb1740 O1744 2.596 . S
Tb1740 O1745 2.374 . S
Tb1740 O1753 2.343 . S
Tb1740 O1755 2.353 . S
Tb1740 O1757 2.427 . S
Tb1740 O1758 2.513 . S
C1741 O1745 1.251 . S
C1741 O1747 1.263 . S
Tb1742 O1744 2.343 . S
Tb1742 O1747 2.353 . S
Tb1742 O1750 2.427 . S
Tb1742 O1751 2.513 . S
Tb1742 O1752 2.453 . S
Tb1742 O1753 2.596 . S
Tb1742 O1754 2.374 . S
O1743 Tb1740 2.453 . S
O1743 C1759 1.245 . S
O1744 Tb1740 2.596 . S
O1744 Tb1742 2.343 . S
O1744 C1759 1.259 . S
O1745 Tb1740 2.374 . S
O1745 C1741 1.251 . S
C1746 O1750 1.275 . S
C1746 O1751 1.246 . S
O1747 C1741 1.263 . S
O1747 Tb1742 2.353 . S
C1748 O1752 1.245 . S
C1748 O1753 1.259 . S
C1749 O1754 1.250 . S
C1749 O1755 1.263 . S
O1750 Tb1742 2.427 . S
O1750 C1746 1.275 . S
O1751 Tb1742 2.513 . S
O1751 C1746 1.246 . S
O1752 Tb1742 2.453 . S
O1752 C1748 1.245 . S
O1753 Tb1740 2.343 . S
O1753 Tb1742 2.596 . S
O1753 C1748 1.259 . S
O1754 Tb1742 2.374 . S
O1754 C1749 1.250 . S
O1755 Tb1740 2.353 . S
O1755 C1749 1.263 . S
C1756 O1757 1.275 . S
C1756 O1758 1.246 . S
O1757 Tb1740 2.427 . S
O1757 C1756 1.275 . S
O1758 Tb1740 2.513 . S
O1758 C1756 1.246 . S
C1759 O1743 1.245 . S
C1759 O1744 1.259 . S
Tb1760 O1763 2.453 . S
Tb1760 O1764 2.596 . S
Tb1760 O1765 2.374 . S
Tb1760 O1773 2.343 . S
Tb1760 O1775 2.353 . S
Tb1760 O1777 2.427 . S
Tb1760 O1778 2.513 . S
C1761 O1765 1.251 . S
C1761 O1767 1.263 . S
Tb1762 O1764 2.343 . S
Tb1762 O1767 2.353 . S
Tb1762 O1770 2.427 . S
Tb1762 O1771 2.513 . S
Tb1762 O1772 2.453 . S
Tb1762 O1773 2.596 . S
Tb1762 O1774 2.374 . S
O1763 Tb1760 2.453 . S
O1763 C1779 1.245 . S
O1764 Tb1760 2.596 . S
O1764 Tb1762 2.343 . S
O1764 C1779 1.259 . S
O1765 Tb1760 2.374 . S
O1765 C1761 1.251 . S
C1766 O1770 1.275 . S
C1766 O1771 1.246 . S
O1767 C1761 1.263 . S
O1767 Tb1762 2.353 . S
C1768 O1772 1.245 . S
C1768 O1773 1.259 . S
C1769 O1774 1.250 . S
C1769 O1775 1.263 . S
O1770 Tb1762 2.427 . S
O1770 C1766 1.275 . S
O1771 Tb1762 2.513 . S
O1771 C1766 1.246 . S
O1772 Tb1762 2.453 . S
O1772 C1768 1.245 . S
O1773 Tb1760 2.343 . S
O1773 Tb1762 2.596 . S
O1773 C1768 1.259 . S
O1774 Tb1762 2.374 . S
O1774 C1769 1.250 . S
O1775 Tb1760 2.353 . S
O1775 C1769 1.263 . S
C1776 O1777 1.275 . S
C1776 O1778 1.246 . S
O1777 Tb1760 2.427 . S
O1777 C1776 1.275 . S
O1778 Tb1760 2.513 . S
O1778 C1776 1.246 . S
C1779 O1763 1.245 . S
C1779 O1764 1.259 . S
Tb1780 O1783 2.453 . S
Tb1780 O1784 2.596 . S
Tb1780 O1785 2.374 . S
Tb1780 O1793 2.343 . S
Tb1780 O1795 2.353 . S
Tb1780 O1797 2.427 . S
Tb1780 O1798 2.513 . S
C1781 O1785 1.251 . S
C1781 O1787 1.263 . S
Tb1782 O1784 2.343 . S
Tb1782 O1787 2.353 . S
Tb1782 O1790 2.427 . S
Tb1782 O1791 2.513 . S
Tb1782 O1792 2.453 . S
Tb1782 O1793 2.596 . S
Tb1782 O1794 2.374 . S
O1783 Tb1780 2.453 . S
O1783 C1799 1.245 . S
O1784 Tb1780 2.596 . S
O1784 Tb1782 2.343 . S
O1784 C1799 1.259 . S
O1785 Tb1780 2.374 . S
O1785 C1781 1.251 . S
C1786 O1790 1.275 . S
C1786 O1791 1.246 . S
O1787 C1781 1.263 . S
O1787 Tb1782 2.353 . S
C1788 O1792 1.245 . S
C1788 O1793 1.259 . S
C1789 O1794 1.250 . S
C1789 O1795 1.263 . S
O1790 Tb1782 2.427 . S
O1790 C1786 1.275 . S
O1791 Tb1782 2.513 . S
O1791 C1786 1.246 . S
O1792 Tb1782 2.453 . S
O1792 C1788 1.245 . S
O1793 Tb1780 2.343 . S
O1793 Tb1782 2.596 . S
O1793 C1788 1.259 . S
O1794 Tb1782 2.374 . S
O1794 C1789 1.250 . S
O1795 Tb1780 2.353 . S
O1795 C1789 1.263 . S
C1796 O1797 1.275 . S
C1796 O1798 1.246 . S
O1797 Tb1780 2.427 . S
O1797 C1796 1.275 . S
O1798 Tb1780 2.513 . S
O1798 C1796 1.246 . S
C1799 O1783 1.245 . S
C1799 O1784 1.259 . S
Tb1800 O1803 2.453 . S
Tb1800 O1804 2.596 . S
Tb1800 O1805 2.374 . S
Tb1800 O1813 2.343 . S
Tb1800 O1815 2.353 . S
Tb1800 O1817 2.427 . S
Tb1800 O1818 2.513 . S
C1801 O1805 1.251 . S
C1801 O1807 1.263 . S
Tb1802 O1804 2.343 . S
Tb1802 O1807 2.353 . S
Tb1802 O1810 2.427 . S
Tb1802 O1811 2.513 . S
Tb1802 O1812 2.453 . S
Tb1802 O1813 2.596 . S
Tb1802 O1814 2.374 . S
O1803 Tb1800 2.453 . S
O1803 C1819 1.245 . S
O1804 Tb1800 2.596 . S
O1804 Tb1802 2.343 . S
O1804 C1819 1.259 . S
O1805 Tb1800 2.374 . S
O1805 C1801 1.251 . S
C1806 O1810 1.275 . S
C1806 O1811 1.246 . S
O1807 C1801 1.263 . S
O1807 Tb1802 2.353 . S
C1808 O1812 1.245 . S
C1808 O1813 1.259 . S
C1809 O1814 1.250 . S
C1809 O1815 1.263 . S
O1810 Tb1802 2.427 . S
O1810 C1806 1.275 . S
O1811 Tb1802 2.513 . S
O1811 C1806 1.246 . S
O1812 Tb1802 2.453 . S
O1812 C1808 1.245 . S
O1813 Tb1800 2.343 . S
O1813 Tb1802 2.596 . S
O1813 C1808 1.259 . S
O1814 Tb1802 2.374 . S
O1814 C1809 1.250 . S
O1815 Tb1800 2.353 . S
O1815 C1809 1.263 . S
C1816 O1817 1.275 . S
C1816 O1818 1.246 . S
O1817 Tb1800 2.427 . S
O1817 C1816 1.275 . S
O1818 Tb1800 2.513 . S
O1818 C1816 1.246 . S
C1819 O1803 1.245 . S
C1819 O1804 1.259 . S
Tb1820 O1823 2.453 . S
Tb1820 O1824 2.596 . S
Tb1820 O1825 2.374 . S
Tb1820 O1833 2.343 . S
Tb1820 O1835 2.353 . S
Tb1820 O1837 2.427 . S
Tb1820 O1838 2.513 . S
C1821 O1825 1.251 . S
C1821 O1827 1.263 . S
Tb1822 O1824 2.343 . S
Tb1822 O1827 2.353 . S
Tb1822 O1830 2.427 . S
Tb1822 O1831 2.513 . S
Tb1822 O1832 2.453 . S
Tb1822 O1833 2.596 . S
Tb1822 O1834 2.374 . S
O1823 Tb1820 2.453 . S
O1823 C1839 1.245 . S
O1824 Tb1820 2.596 . S
O1824 Tb1822 2.343 . S
O1824 C1839 1.259 . S
O1825 Tb1820 2.374 . S
O1825 C1821 1.251 . S
C1826 O1830 1.275 . S
C1826 O1831 1.246 . S
O1827 C1821 1.263 . S
O1827 Tb1822 2.353 . S
C1828 O1832 1.245 . S
C1828 O1833 1.259 . S
C1829 O1834 1.250 . S
C1829 O1835 1.263 . S
O1830 Tb1822 2.427 . S
O1830 C1826 1.275 . S
O1831 Tb1822 2.513 . S
O1831 C1826 1.246 . S
O1832 Tb1822 2.453 . S
O1832 C1828 1.245 . S
O1833 Tb1820 2.343 . S
O1833 Tb1822 2.596 . S
O1833 C1828 1.259 . S
O1834 Tb1822 2.374 . S
O1834 C1829 1.250 . S
O1835 Tb1820 2.353 . S
O1835 C1829 1.263 . S
C1836 O1837 1.275 . S
C1836 O1838 1.246 . S
O1837 Tb1820 2.427 . S
O1837 C1836 1.275 . S
O1838 Tb1820 2.513 . S
O1838 C1836 1.246 . S
C1839 O1823 1.245 . S
C1839 O1824 1.259 . S
Tb1840 O1843 2.453 . S
Tb1840 O1844 2.596 . S
Tb1840 O1845 2.374 . S
Tb1840 O1853 2.343 . S
Tb1840 O1855 2.353 . S
Tb1840 O1857 2.427 . S
Tb1840 O1858 2.513 . S
C1841 O1845 1.251 . S
C1841 O1847 1.263 . S
Tb1842 O1844 2.343 . S
Tb1842 O1847 2.353 . S
Tb1842 O1850 2.427 . S
Tb1842 O1851 2.513 . S
Tb1842 O1852 2.453 . S
Tb1842 O1853 2.596 . S
Tb1842 O1854 2.374 . S
O1843 Tb1840 2.453 . S
O1843 C1859 1.245 . S
O1844 Tb1840 2.596 . S
O1844 Tb1842 2.343 . S
O1844 C1859 1.259 . S
O1845 Tb1840 2.374 . S
O1845 C1841 1.251 . S
C1846 O1850 1.275 . S
C1846 O1851 1.246 . S
O1847 C1841 1.263 . S
O1847 Tb1842 2.353 . S
C1848 O1852 1.245 . S
C1848 O1853 1.259 . S
C1849 O1854 1.250 . S
C1849 O1855 1.263 . S
O1850 Tb1842 2.427 . S
O1850 C1846 1.275 . S
O1851 Tb1842 2.513 . S
O1851 C1846 1.246 . S
O1852 Tb1842 2.453 . S
O1852 C1848 1.245 . S
O1853 Tb1840 2.343 . S
O1853 Tb1842 2.596 . S
O1853 C1848 1.259 . S
O1854 Tb1842 2.374 . S
O1854 C1849 1.250 . S
O1855 Tb1840 2.353 . S
O1855 C1849 1.263 . S
C1856 O1857 1.275 . S
C1856 O1858 1.246 . S
O1857 Tb1840 2.427 . S
O1857 C1856 1.275 . S
O1858 Tb1840 2.513 . S
O1858 C1856 1.246 . S
C1859 O1843 1.245 . S
C1859 O1844 1.259 . S
Tb1860 O1863 2.453 . S
Tb1860 O1864 2.596 . S
Tb1860 O1865 2.374 . S
Tb1860 O1873 2.343 . S
Tb1860 O1875 2.353 . S
Tb1860 O1877 2.399 1_556 S
Tb1860 O1878 2.513 . S
C1861 O1865 1.251 . S
C1861 O1867 1.263 . S
Tb1862 O1864 2.343 . S
Tb1862 O1867 2.353 . S
Tb1862 O1870 2.427 . S
Tb1862 O1871 2.513 . S
Tb1862 O1872 2.404 1_556 S
Tb1862 O1873 2.596 . S
Tb1862 O1874 2.374 . S
O1863 Tb1860 2.453 . S
O1863 C1879 1.245 . S
O1864 Tb1860 2.596 . S
O1864 Tb1862 2.343 . S
O1864 C1879 1.259 . S
O1865 Tb1860 2.374 . S
O1865 C1861 1.251 . S
C1866 O1870 1.275 . S
C1866 O1871 1.246 . S
O1867 C1861 1.263 . S
O1867 Tb1862 2.353 . S
C1868 O1872 1.254 . S
C1868 O1873 1.259 1_554 S
C1869 O1874 1.250 . S
C1869 O1875 1.263 . S
O1870 Tb1862 2.427 . S
O1870 C1866 1.275 . S
O1871 Tb1862 2.513 . S
O1871 C1866 1.246 . S
O1872 Tb1862 2.404 1_554 S
O1872 C1868 1.254 . S
O1873 Tb1860 2.343 . S
O1873 Tb1862 2.596 . S
O1873 C1868 1.259 1_556 S
O1874 Tb1862 2.374 . S
O1874 C1869 1.250 . S
O1875 Tb1860 2.353 . S
O1875 C1869 1.263 . S
C1876 O1877 1.277 . S
C1876 O1878 1.246 1_554 S
O1877 Tb1860 2.399 1_554 S
O1877 C1876 1.277 . S
O1878 Tb1860 2.513 . S
O1878 C1876 1.246 1_556 S
C1879 O1863 1.245 . S
C1879 O1864 1.259 . S
Tb1880 O1883 2.453 . S
Tb1880 O1884 2.596 . S
Tb1880 O1885 2.374 . S
Tb1880 O1893 2.343 . S
Tb1880 O1895 2.353 . S
Tb1880 O1897 2.427 . S
Tb1880 O1898 2.513 . S
C1881 O1885 1.251 . S
C1881 O1887 1.263 . S
Tb1882 O1884 2.343 . S
Tb1882 O1887 2.353 . S
Tb1882 O1890 2.427 . S
Tb1882 O1891 2.513 . S
Tb1882 O1892 2.453 . S
Tb1882 O1893 2.596 . S
Tb1882 O1894 2.374 . S
O1883 Tb1880 2.453 . S
O1883 C1899 1.245 . S
O1884 Tb1880 2.596 . S
O1884 Tb1882 2.343 . S
O1884 C1899 1.259 . S
O1885 Tb1880 2.374 . S
O1885 C1881 1.251 . S
C1886 O1890 1.275 . S
C1886 O1891 1.246 . S
O1887 C1881 1.263 . S
O1887 Tb1882 2.353 . S
C1888 O1892 1.245 . S
C1888 O1893 1.259 . S
C1889 O1894 1.250 . S
C1889 O1895 1.263 . S
O1890 Tb1882 2.427 . S
O1890 C1886 1.275 . S
O1891 Tb1882 2.513 . S
O1891 C1886 1.246 . S
O1892 Tb1882 2.453 . S
O1892 C1888 1.245 . S
O1893 Tb1880 2.343 . S
O1893 Tb1882 2.596 . S
O1893 C1888 1.259 . S
O1894 Tb1882 2.374 . S
O1894 C1889 1.250 . S
O1895 Tb1880 2.353 . S
O1895 C1889 1.263 . S
C1896 O1897 1.275 . S
C1896 O1898 1.246 . S
O1897 Tb1880 2.427 . S
O1897 C1896 1.275 . S
O1898 Tb1880 2.513 . S
O1898 C1896 1.246 . S
C1899 O1883 1.245 . S
C1899 O1884 1.259 . S
Tb1900 O1903 2.453 . S
Tb1900 O1904 2.596 . S
Tb1900 O1905 2.374 . S
Tb1900 O1913 2.343 . S
Tb1900 O1915 2.353 . S
Tb1900 O1917 2.427 . S
Tb1900 O1918 2.513 . S
C1901 O1905 1.251 . S
C1901 O1907 1.263 . S
Tb1902 O1904 2.343 . S
Tb1902 O1907 2.353 . S
Tb1902 O1910 2.427 . S
Tb1902 O1911 2.513 . S
Tb1902 O1912 2.453 . S
Tb1902 O1913 2.596 . S
Tb1902 O1914 2.374 . S
O1903 Tb1900 2.453 . S
O1903 C1919 1.245 . S
O1904 Tb1900 2.596 . S
O1904 Tb1902 2.343 . S
O1904 C1919 1.259 . S
O1905 Tb1900 2.374 . S
O1905 C1901 1.251 . S
C1906 O1910 1.275 . S
C1906 O1911 1.246 . S
O1907 C1901 1.263 . S
O1907 Tb1902 2.353 . S
C1908 O1912 1.245 . S
C1908 O1913 1.259 . S
C1909 O1914 1.250 . S
C1909 O1915 1.263 . S
O1910 Tb1902 2.427 . S
O1910 C1906 1.275 . S
O1911 Tb1902 2.513 . S
O1911 C1906 1.246 . S
O1912 Tb1902 2.453 . S
O1912 C1908 1.245 . S
O1913 Tb1900 2.343 . S
O1913 Tb1902 2.596 . S
O1913 C1908 1.259 . S
O1914 Tb1902 2.374 . S
O1914 C1909 1.250 . S
O1915 Tb1900 2.353 . S
O1915 C1909 1.263 . S
C1916 O1917 1.275 . S
C1916 O1918 1.246 . S
O1917 Tb1900 2.427 . S
O1917 C1916 1.275 . S
O1918 Tb1900 2.513 . S
O1918 C1916 1.246 . S
C1919 O1903 1.245 . S
C1919 O1904 1.259 . S
H1920 C1928 0.950 . S
H1921 C1933 0.950 . S
H1922 C1930 0.950 . S
H1923 C1932 0.950 . S
H1924 C1934 0.950 . S
H1925 C1936 0.950 . S
H1926 C1938 0.950 . S
H1927 C1939 0.950 . S
C1928 H1920 0.950 . S
C1928 C1929 1.386 . S
C1928 C1930 1.391 . S
C1929 C1928 1.386 . S
C1929 C1933 1.393 . S
C1930 H1922 0.950 . S
C1930 C1928 1.391 . S
C1930 C1931 1.400 . S
C1931 C1930 1.400 . S
C1931 C1932 1.398 . S
C1931 C1937 1.491 . S
C1932 H1923 0.950 . S
C1932 C1931 1.398 . S
C1932 C1933 1.391 . S
C1933 H1921 0.950 . S
C1933 C1929 1.393 . S
C1933 C1932 1.391 . S
C1934 H1924 0.950 . S
C1934 C1935 1.386 . S
C1934 C1936 1.391 . S
C1935 C1934 1.386 . S
C1935 C1939 1.393 . S
C1936 H1925 0.950 . S
C1936 C1934 1.391 . S
C1936 C1937 1.400 . S
C1937 C1931 1.491 . S
C1937 C1936 1.400 . S
C1937 C1938 1.398 . S
C1938 H1926 0.950 . S
C1938 C1937 1.398 . S
C1938 C1939 1.391 . S
C1939 H1927 0.950 . S
C1939 C1935 1.393 . S
C1939 C1938 1.391 . S
H1940 C1948 0.950 . S
H1941 C1953 0.950 1_655 S
H1942 C1950 0.950 . S
H1943 C1952 0.950 . S
H1944 C1954 0.950 . S
H1945 C1956 0.950 . S
H1946 C1958 0.950 . S
H1947 C1959 0.950 . S
C1948 H1940 0.950 . S
C1948 C1949 1.386 . S
C1948 C1950 1.391 . S
C1949 C1948 1.386 . S
C1949 C1953 1.393 . S
C1950 H1942 0.950 . S
C1950 C1948 1.391 . S
C1950 C1951 1.400 . S
C1951 C1950 1.400 . S
C1951 C1952 1.398 . S
C1951 C1957 1.491 . S
C1952 H1943 0.950 . S
C1952 C1951 1.398 . S
C1952 C1953 1.391 . S
C1953 H1941 0.950 1_455 S
C1953 C1949 1.393 . S
C1953 C1952 1.391 . S
C1954 H1944 0.950 . S
C1954 C1955 1.386 . S
C1954 C1956 1.391 . S
C1955 C1954 1.386 . S
C1955 C1959 1.393 . S
C1956 H1945 0.950 . S
C1956 C1954 1.391 . S
C1956 C1957 1.400 . S
C1957 C1951 1.491 . S
C1957 C1956 1.400 . S
C1957 C1958 1.398 . S
C1958 H1946 0.950 . S
C1958 C1957 1.398 . S
C1958 C1959 1.391 . S
C1959 H1947 0.950 . S
C1959 C1955 1.393 . S
C1959 C1958 1.391 . S
H1960 C1968 0.950 . S
H1961 C1973 0.950 . S
H1962 C1970 0.950 . S
H1963 C1972 0.950 . S
H1964 C1974 0.950 . S
H1965 C1976 0.950 . S
H1966 C1978 0.950 . S
H1967 C1979 0.950 . S
C1968 H1960 0.950 . S
C1968 C1969 1.386 . S
C1968 C1970 1.391 . S
C1969 C1968 1.386 . S
C1969 C1973 1.393 . S
C1970 H1962 0.950 . S
C1970 C1968 1.391 . S
C1970 C1971 1.400 . S
C1971 C1970 1.400 . S
C1971 C1972 1.398 . S
C1971 C1977 1.491 . S
C1972 H1963 0.950 . S
C1972 C1971 1.398 . S
C1972 C1973 1.391 . S
C1973 H1961 0.950 . S
C1973 C1969 1.393 . S
C1973 C1972 1.391 . S
C1974 H1964 0.950 . S
C1974 C1975 1.386 . S
C1974 C1976 1.391 . S
C1975 C1974 1.386 . S
C1975 C1979 1.393 . S
C1976 H1965 0.950 . S
C1976 C1974 1.391 . S
C1976 C1977 1.400 . S
C1977 C1971 1.491 . S
C1977 C1976 1.400 . S
C1977 C1978 1.398 . S
C1978 H1966 0.950 . S
C1978 C1977 1.398 . S
C1978 C1979 1.391 . S
C1979 H1967 0.950 . S
C1979 C1975 1.393 . S
C1979 C1978 1.391 . S
H1980 C1988 0.950 . S
H1981 C1993 0.950 . S
H1982 C1990 0.950 . S
H1983 C1992 0.950 . S
H1984 C1994 0.950 . S
H1985 C1996 0.950 . S
H1986 C1998 0.950 . S
H1987 C1999 0.950 . S
C1988 H1980 0.950 . S
C1988 C1989 1.386 . S
C1988 C1990 1.391 . S
C1989 C1988 1.386 . S
C1989 C1993 1.393 . S
C1990 H1982 0.950 . S
C1990 C1988 1.391 . S
C1990 C1991 1.400 . S
C1991 C1990 1.400 . S
C1991 C1992 1.398 . S
C1991 C1997 1.491 . S
C1992 H1983 0.950 . S
C1992 C1991 1.398 . S
C1992 C1993 1.391 . S
C1993 H1981 0.950 . S
C1993 C1989 1.393 . S
C1993 C1992 1.391 . S
C1994 H1984 0.950 . S
C1994 C1995 1.386 . S
C1994 C1996 1.391 . S
C1995 C1994 1.386 . S
C1995 C1999 1.393 . S
C1996 H1985 0.950 . S
C1996 C1994 1.391 . S
C1996 C1997 1.400 . S
C1997 C1991 1.491 . S
C1997 C1996 1.400 . S
C1997 C1998 1.398 . S
C1998 H1986 0.950 . S
C1998 C1997 1.398 . S
C1998 C1999 1.391 . S
C1999 H1987 0.950 . S
C1999 C1995 1.393 . S
C1999 C1998 1.391 . S
H2000 C2008 0.950 . S
H2001 C2013 0.950 . S
H2002 C2010 0.950 . S
H2003 C2012 0.950 . S
H2004 C2014 0.950 . S
H2005 C2016 0.950 . S
H2006 C2018 0.950 . S
H2007 C2019 0.950 . S
C2008 H2000 0.950 . S
C2008 C2009 1.386 . S
C2008 C2010 1.391 . S
C2009 C2008 1.386 . S
C2009 C2013 1.393 . S
C2010 H2002 0.950 . S
C2010 C2008 1.391 . S
C2010 C2011 1.400 . S
C2011 C2010 1.400 . S
C2011 C2012 1.398 . S
C2011 C2017 1.491 . S
C2012 H2003 0.950 . S
C2012 C2011 1.398 . S
C2012 C2013 1.391 . S
C2013 H2001 0.950 . S
C2013 C2009 1.393 . S
C2013 C2012 1.391 . S
C2014 H2004 0.950 . S
C2014 C2015 1.386 . S
C2014 C2016 1.391 . S
C2015 C2014 1.386 . S
C2015 C2019 1.393 . S
C2016 H2005 0.950 . S
C2016 C2014 1.391 . S
C2016 C2017 1.400 . S
C2017 C2011 1.491 . S
C2017 C2016 1.400 . S
C2017 C2018 1.398 . S
C2018 H2006 0.950 . S
C2018 C2017 1.398 . S
C2018 C2019 1.391 . S
C2019 H2007 0.950 . S
C2019 C2015 1.393 . S
C2019 C2018 1.391 . S
H2020 C2028 0.950 . S
H2021 C2033 0.950 . S
H2022 C2030 0.950 . S
H2023 C2032 0.950 . S
H2024 C2034 0.950 . S
H2025 C2036 0.950 . S
H2026 C2038 0.950 . S
H2027 C2039 0.950 . S
C2028 H2020 0.950 . S
C2028 C2029 1.386 . S
C2028 C2030 1.391 . S
C2029 C2028 1.386 . S
C2029 C2033 1.393 . S
C2030 H2022 0.950 . S
C2030 C2028 1.391 . S
C2030 C2031 1.400 . S
C2031 C2030 1.400 . S
C2031 C2032 1.398 . S
C2031 C2037 1.491 . S
C2032 H2023 0.950 . S
C2032 C2031 1.398 . S
C2032 C2033 1.391 . S
C2033 H2021 0.950 . S
C2033 C2029 1.393 . S
C2033 C2032 1.391 . S
C2034 H2024 0.950 . S
C2034 C2035 1.386 . S
C2034 C2036 1.391 . S
C2035 C2034 1.386 . S
C2035 C2039 1.393 . S
C2036 H2025 0.950 . S
C2036 C2034 1.391 . S
C2036 C2037 1.400 . S
C2037 C2031 1.491 . S
C2037 C2036 1.400 . S
C2037 C2038 1.398 . S
C2038 H2026 0.950 . S
C2038 C2037 1.398 . S
C2038 C2039 1.391 . S
C2039 H2027 0.950 . S
C2039 C2035 1.393 . S
C2039 C2038 1.391 . S
H2040 C2048 0.950 . S
H2041 C2053 0.950 . S
H2042 C2050 0.950 . S
H2043 C2052 0.950 . S
H2044 C2054 0.950 . S
H2045 C2056 0.950 . S
H2046 C2058 0.950 . S
H2047 C2059 0.950 . S
C2048 H2040 0.950 . S
C2048 C2049 1.386 . S
C2048 C2050 1.391 . S
C2049 C2048 1.386 . S
C2049 C2053 1.393 . S
C2050 H2042 0.950 . S
C2050 C2048 1.391 . S
C2050 C2051 1.400 . S
C2051 C2050 1.400 . S
C2051 C2052 1.398 . S
C2051 C2057 1.491 . S
C2052 H2043 0.950 . S
C2052 C2051 1.398 . S
C2052 C2053 1.391 . S
C2053 H2041 0.950 . S
C2053 C2049 1.393 . S
C2053 C2052 1.391 . S
C2054 H2044 0.950 . S
C2054 C2055 1.386 . S
C2054 C2056 1.391 . S
C2055 C2054 1.386 . S
C2055 C2059 1.393 . S
C2056 H2045 0.950 . S
C2056 C2054 1.391 . S
C2056 C2057 1.400 . S
C2057 C2051 1.491 . S
C2057 C2056 1.400 . S
C2057 C2058 1.398 . S
C2058 H2046 0.950 . S
C2058 C2057 1.398 . S
C2058 C2059 1.391 . S
C2059 H2047 0.950 . S
C2059 C2055 1.393 . S
C2059 C2058 1.391 . S
H2060 C2068 0.950 . S
H2061 C2073 0.950 . S
H2062 C2070 0.950 . S
H2063 C2072 0.950 . S
H2064 C2074 0.950 . S
H2065 C2076 0.950 . S
H2066 C2078 0.950 . S
H2067 C2079 0.950 . S
C2068 H2060 0.950 . S
C2068 C2069 1.386 . S
C2068 C2070 1.391 . S
C2069 C2068 1.386 . S
C2069 C2073 1.393 . S
C2070 H2062 0.950 . S
C2070 C2068 1.391 . S
C2070 C2071 1.400 . S
C2071 C2070 1.400 . S
C2071 C2072 1.398 . S
C2071 C2077 1.491 . S
C2072 H2063 0.950 . S
C2072 C2071 1.398 . S
C2072 C2073 1.391 . S
C2073 H2061 0.950 . S
C2073 C2069 1.393 . S
C2073 C2072 1.391 . S
C2074 H2064 0.950 . S
C2074 C2075 1.386 . S
C2074 C2076 1.391 . S
C2075 C2074 1.386 . S
C2075 C2079 1.393 . S
C2076 H2065 0.950 . S
C2076 C2074 1.391 . S
C2076 C2077 1.400 . S
C2077 C2071 1.491 . S
C2077 C2076 1.400 . S
C2077 C2078 1.398 . S
C2078 H2066 0.950 . S
C2078 C2077 1.398 . S
C2078 C2079 1.391 . S
C2079 H2067 0.950 . S
C2079 C2075 1.393 . S
C2079 C2078 1.391 . S
H2080 C2088 0.950 . S
H2081 C2093 0.950 . S
H2082 C2090 0.950 . S
H2083 C2092 0.950 . S
H2084 C2094 0.950 . S
H2085 C2096 0.950 . S
H2086 C2098 0.950 . S
H2087 C2099 0.950 . S
C2088 H2080 0.950 . S
C2088 C2089 1.386 . S
C2088 C2090 1.391 . S
C2089 C2088 1.386 . S
C2089 C2093 1.393 . S
C2090 H2082 0.950 . S
C2090 C2088 1.391 . S
C2090 C2091 1.400 . S
C2091 C2090 1.400 . S
C2091 C2092 1.398 . S
C2091 C2097 1.491 . S
C2092 H2083 0.950 . S
C2092 C2091 1.398 . S
C2092 C2093 1.391 . S
C2093 H2081 0.950 . S
C2093 C2089 1.393 . S
C2093 C2092 1.391 . S
C2094 H2084 0.950 . S
C2094 C2095 1.386 . S
C2094 C2096 1.391 . S
C2095 C2094 1.386 . S
C2095 C2099 1.393 . S
C2096 H2085 0.950 . S
C2096 C2094 1.391 . S
C2096 C2097 1.400 . S
C2097 C2091 1.491 . S
C2097 C2096 1.400 . S
C2097 C2098 1.398 . S
C2098 H2086 0.950 . S
C2098 C2097 1.398 . S
C2098 C2099 1.391 . S
C2099 H2087 0.950 . S
C2099 C2095 1.393 . S
C2099 C2098 1.391 . S
H2100 C2108 0.950 . S
H2101 C2113 0.950 . S
H2102 C2110 0.950 . S
H2103 C2112 0.950 . S
H2104 C2114 0.950 . S
H2105 C2116 0.950 . S
H2106 C2118 0.950 . S
H2107 C2119 0.950 . S
C2108 H2100 0.950 . S
C2108 C2109 1.386 . S
C2108 C2110 1.391 . S
C2109 C2108 1.386 . S
C2109 C2113 1.393 . S
C2110 H2102 0.950 . S
C2110 C2108 1.391 . S
C2110 C2111 1.400 . S
C2111 C2110 1.400 . S
C2111 C2112 1.398 . S
C2111 C2117 1.491 . S
C2112 H2103 0.950 . S
C2112 C2111 1.398 . S
C2112 C2113 1.391 . S
C2113 H2101 0.950 . S
C2113 C2109 1.393 . S
C2113 C2112 1.391 . S
C2114 H2104 0.950 . S
C2114 C2115 1.386 . S
C2114 C2116 1.391 . S
C2115 C2114 1.386 . S
C2115 C2119 1.393 . S
C2116 H2105 0.950 . S
C2116 C2114 1.391 . S
C2116 C2117 1.400 . S
C2117 C2111 1.491 . S
C2117 C2116 1.400 . S
C2117 C2118 1.398 . S
C2118 H2106 0.950 . S
C2118 C2117 1.398 . S
C2118 C2119 1.391 . S
C2119 H2107 0.950 . S
C2119 C2115 1.393 . S
C2119 C2118 1.391 . S
H2120 C2128 0.950 . S
H2121 C2133 0.950 . S
H2122 C2130 0.950 . S
H2123 C2132 0.950 . S
H2124 C2134 0.950 . S
H2125 C2136 0.950 . S
H2126 C2138 0.950 . S
H2127 C2139 0.950 . S
C2128 H2120 0.950 . S
C2128 C2129 1.386 . S
C2128 C2130 1.391 . S
C2129 C2128 1.386 . S
C2129 C2133 1.393 . S
C2130 H2122 0.950 . S
C2130 C2128 1.391 . S
C2130 C2131 1.400 . S
C2131 C2130 1.400 . S
C2131 C2132 1.398 . S
C2131 C2137 1.491 . S
C2132 H2123 0.950 . S
C2132 C2131 1.398 . S
C2132 C2133 1.391 . S
C2133 H2121 0.950 . S
C2133 C2129 1.393 . S
C2133 C2132 1.391 . S
C2134 H2124 0.950 . S
C2134 C2135 1.386 . S
C2134 C2136 1.391 . S
C2135 C2134 1.386 . S
C2135 C2139 1.393 . S
C2136 H2125 0.950 . S
C2136 C2134 1.391 . S
C2136 C2137 1.400 . S
C2137 C2131 1.491 . S
C2137 C2136 1.400 . S
C2137 C2138 1.398 . S
C2138 H2126 0.950 . S
C2138 C2137 1.398 . S
C2138 C2139 1.391 . S
C2139 H2127 0.950 . S
C2139 C2135 1.393 . S
C2139 C2138 1.391 . S
H2140 C2148 0.950 . S
H2141 C2153 0.950 . S
H2142 C2150 0.950 . S
H2143 C2152 0.950 . S
H2144 C2154 0.950 . S
H2145 C2156 0.950 . S
H2146 C2158 0.950 . S
H2147 C2159 0.950 . S
C2148 H2140 0.950 . S
C2148 C2149 1.386 . S
C2148 C2150 1.391 . S
C2149 C2148 1.386 . S
C2149 C2153 1.393 . S
C2150 H2142 0.950 . S
C2150 C2148 1.391 . S
C2150 C2151 1.400 . S
C2151 C2150 1.400 . S
C2151 C2152 1.398 . S
C2151 C2157 1.491 . S
C2152 H2143 0.950 . S
C2152 C2151 1.398 . S
C2152 C2153 1.391 . S
C2153 H2141 0.950 . S
C2153 C2149 1.393 . S
C2153 C2152 1.391 . S
C2154 H2144 0.950 . S
C2154 C2155 1.386 . S
C2154 C2156 1.391 . S
C2155 C2154 1.386 . S
C2155 C2159 1.393 . S
C2156 H2145 0.950 . S
C2156 C2154 1.391 . S
C2156 C2157 1.400 . S
C2157 C2151 1.491 . S
C2157 C2156 1.400 . S
C2157 C2158 1.398 . S
C2158 H2146 0.950 . S
C2158 C2157 1.398 . S
C2158 C2159 1.391 . S
C2159 H2147 0.950 . S
C2159 C2155 1.393 . S
C2159 C2158 1.391 . S
H2160 C2168 0.950 . S
H2161 C2173 0.950 . S
H2162 C2170 0.950 . S
H2163 C2172 0.950 . S
H2164 C2174 0.950 . S
H2165 C2176 0.950 . S
H2166 C2178 0.950 . S
H2167 C2179 0.950 . S
C2168 H2160 0.950 . S
C2168 C2169 1.386 . S
C2168 C2170 1.391 . S
C2169 C2168 1.386 . S
C2169 C2173 1.393 . S
C2170 H2162 0.950 . S
C2170 C2168 1.391 . S
C2170 C2171 1.400 . S
C2171 C2170 1.400 . S
C2171 C2172 1.398 . S
C2171 C2177 1.491 . S
C2172 H2163 0.950 . S
C2172 C2171 1.398 . S
C2172 C2173 1.391 . S
C2173 H2161 0.950 . S
C2173 C2169 1.393 . S
C2173 C2172 1.391 . S
C2174 H2164 0.950 . S
C2174 C2175 1.386 . S
C2174 C2176 1.391 . S
C2175 C2174 1.386 . S
C2175 C2179 1.393 . S
C2176 H2165 0.950 . S
C2176 C2174 1.391 . S
C2176 C2177 1.400 . S
C2177 C2171 1.491 . S
C2177 C2176 1.400 . S
C2177 C2178 1.398 . S
C2178 H2166 0.950 . S
C2178 C2177 1.398 . S
C2178 C2179 1.391 . S
C2179 H2167 0.950 . S
C2179 C2175 1.393 . S
C2179 C2178 1.391 . S
H2180 C2188 0.950 . S
H2181 C2193 0.950 . S
H2182 C2190 0.950 . S
H2183 C2192 0.950 . S
H2184 C2194 0.950 . S
H2185 C2196 0.950 . S
H2186 C2198 0.950 . S
H2187 C2199 0.950 . S
C2188 H2180 0.950 . S
C2188 C2189 1.386 . S
C2188 C2190 1.391 . S
C2189 C2188 1.386 . S
C2189 C2193 1.393 . S
C2190 H2182 0.950 . S
C2190 C2188 1.391 . S
C2190 C2191 1.400 . S
C2191 C2190 1.400 . S
C2191 C2192 1.398 . S
C2191 C2197 1.491 . S
C2192 H2183 0.950 . S
C2192 C2191 1.398 . S
C2192 C2193 1.391 . S
C2193 H2181 0.950 . S
C2193 C2189 1.393 . S
C2193 C2192 1.391 . S
C2194 H2184 0.950 . S
C2194 C2195 1.386 . S
C2194 C2196 1.391 . S
C2195 C2194 1.386 . S
C2195 C2199 1.393 . S
C2196 H2185 0.950 . S
C2196 C2194 1.391 . S
C2196 C2197 1.400 . S
C2197 C2191 1.491 . S
C2197 C2196 1.400 . S
C2197 C2198 1.398 . S
C2198 H2186 0.950 . S
C2198 C2197 1.398 . S
C2198 C2199 1.391 . S
C2199 H2187 0.950 . S
C2199 C2195 1.393 . S
C2199 C2198 1.391 . S
H2200 C2208 0.950 . S
H2201 C2213 0.950 . S
H2202 C2210 0.950 . S
H2203 C2212 0.950 . S
H2204 C2214 0.950 . S
H2205 C2216 0.950 . S
H2206 C2218 0.950 . S
H2207 C2219 0.950 . S
C2208 H2200 0.950 . S
C2208 C2209 1.386 . S
C2208 C2210 1.391 . S
C2209 C2208 1.386 . S
C2209 C2213 1.393 . S
C2210 H2202 0.950 . S
C2210 C2208 1.391 . S
C2210 C2211 1.400 . S
C2211 C2210 1.400 . S
C2211 C2212 1.398 . S
C2211 C2217 1.491 . S
C2212 H2203 0.950 . S
C2212 C2211 1.398 . S
C2212 C2213 1.391 . S
C2213 H2201 0.950 . S
C2213 C2209 1.393 . S
C2213 C2212 1.391 . S
C2214 H2204 0.950 . S
C2214 C2215 1.386 . S
C2214 C2216 1.391 . S
C2215 C2214 1.386 . S
C2215 C2219 1.393 . S
C2216 H2205 0.950 . S
C2216 C2214 1.391 . S
C2216 C2217 1.400 . S
C2217 C2211 1.491 . S
C2217 C2216 1.400 . S
C2217 C2218 1.398 . S
C2218 H2206 0.950 . S
C2218 C2217 1.398 . S
C2218 C2219 1.391 . S
C2219 H2207 0.950 . S
C2219 C2215 1.393 . S
C2219 C2218 1.391 . S
H2220 C2228 0.950 . S
H2221 C2233 0.950 . S
H2222 C2230 0.950 . S
H2223 C2232 0.950 . S
H2224 C2234 0.950 . S
H2225 C2236 0.950 . S
H2226 C2238 0.950 . S
H2227 C2239 0.950 . S
C2228 H2220 0.950 . S
C2228 C2229 1.386 . S
C2228 C2230 1.391 . S
C2229 C2228 1.386 . S
C2229 C2233 1.393 . S
C2230 H2222 0.950 . S
C2230 C2228 1.391 . S
C2230 C2231 1.400 . S
C2231 C2230 1.400 . S
C2231 C2232 1.398 . S
C2231 C2237 1.491 . S
C2232 H2223 0.950 . S
C2232 C2231 1.398 . S
C2232 C2233 1.391 . S
C2233 H2221 0.950 . S
C2233 C2229 1.393 . S
C2233 C2232 1.391 . S
C2234 H2224 0.950 . S
C2234 C2235 1.386 . S
C2234 C2236 1.391 . S
C2235 C2234 1.386 . S
C2235 C2239 1.393 . S
C2236 H2225 0.950 . S
C2236 C2234 1.391 . S
C2236 C2237 1.400 . S
C2237 C2231 1.491 . S
C2237 C2236 1.400 . S
C2237 C2238 1.398 . S
C2238 H2226 0.950 . S
C2238 C2237 1.398 . S
C2238 C2239 1.391 . S
C2239 H2227 0.950 . S
C2239 C2235 1.393 . S
C2239 C2238 1.391 . S
H2240 C2248 0.950 . S
H2241 C2253 0.950 . S
H2242 C2250 0.950 . S
H2243 C2252 0.950 . S
H2244 C2254 0.950 . S
H2245 C2256 0.950 . S
H2246 C2258 0.950 . S
H2247 C2259 0.950 . S
C2248 H2240 0.950 . S
C2248 C2249 1.386 . S
C2248 C2250 1.391 . S
C2249 C2248 1.386 . S
C2249 C2253 1.393 . S
C2250 H2242 0.950 . S
C2250 C2248 1.391 . S
C2250 C2251 1.400 . S
C2251 C2250 1.400 . S
C2251 C2252 1.398 . S
C2251 C2257 1.491 . S
C2252 H2243 0.950 . S
C2252 C2251 1.398 . S
C2252 C2253 1.391 . S
C2253 H2241 0.950 . S
C2253 C2249 1.393 . S
C2253 C2252 1.391 . S
C2254 H2244 0.950 . S
C2254 C2255 1.386 . S
C2254 C2256 1.391 . S
C2255 C2254 1.386 . S
C2255 C2259 1.393 . S
C2256 H2245 0.950 . S
C2256 C2254 1.391 . S
C2256 C2257 1.400 . S
C2257 C2251 1.491 . S
C2257 C2256 1.400 . S
C2257 C2258 1.398 . S
C2258 H2246 0.950 . S
C2258 C2257 1.398 . S
C2258 C2259 1.391 . S
C2259 H2247 0.950 . S
C2259 C2255 1.393 . S
C2259 C2258 1.391 . S
H2260 C2268 0.950 . S
H2261 C2273 0.950 . S
H2262 C2270 0.950 . S
H2263 C2272 0.950 . S
H2264 C2274 0.950 . S
H2265 C2276 0.950 . S
H2266 C2278 0.950 . S
H2267 C2279 0.950 . S
C2268 H2260 0.950 . S
C2268 C2269 1.386 . S
C2268 C2270 1.391 . S
C2269 C2268 1.386 . S
C2269 C2273 1.393 . S
C2270 H2262 0.950 . S
C2270 C2268 1.391 . S
C2270 C2271 1.400 . S
C2271 C2270 1.400 . S
C2271 C2272 1.398 . S
C2271 C2277 1.491 . S
C2272 H2263 0.950 . S
C2272 C2271 1.398 . S
C2272 C2273 1.391 . S
C2273 H2261 0.950 . S
C2273 C2269 1.393 . S
C2273 C2272 1.391 . S
C2274 H2264 0.950 . S
C2274 C2275 1.386 . S
C2274 C2276 1.391 . S
C2275 C2274 1.386 . S
C2275 C2279 1.393 . S
C2276 H2265 0.950 . S
C2276 C2274 1.391 . S
C2276 C2277 1.400 . S
C2277 C2271 1.491 . S
C2277 C2276 1.400 . S
C2277 C2278 1.398 . S
C2278 H2266 0.950 . S
C2278 C2277 1.398 . S
C2278 C2279 1.391 . S
C2279 H2267 0.950 . S
C2279 C2275 1.393 . S
C2279 C2278 1.391 . S
H2280 C2288 0.950 . S
H2281 C2293 0.950 . S
H2282 C2290 0.950 . S
H2283 C2292 0.950 . S
H2284 C2294 0.950 . S
H2285 C2296 0.950 . S
H2286 C2298 0.950 . S
H2287 C2299 0.950 . S
C2288 H2280 0.950 . S
C2288 C2289 1.386 . S
C2288 C2290 1.391 . S
C2289 C2288 1.386 . S
C2289 C2293 1.393 . S
C2290 H2282 0.950 . S
C2290 C2288 1.391 . S
C2290 C2291 1.400 . S
C2291 C2290 1.400 . S
C2291 C2292 1.398 . S
C2291 C2297 1.491 . S
C2292 H2283 0.950 . S
C2292 C2291 1.398 . S
C2292 C2293 1.391 . S
C2293 H2281 0.950 . S
C2293 C2289 1.393 . S
C2293 C2292 1.391 . S
C2294 H2284 0.950 . S
C2294 C2295 1.386 . S
C2294 C2296 1.391 . S
C2295 C2294 1.386 . S
C2295 C2299 1.393 . S
C2296 H2285 0.950 . S
C2296 C2294 1.391 . S
C2296 C2297 1.400 . S
C2297 C2291 1.491 . S
C2297 C2296 1.400 . S
C2297 C2298 1.398 . S
C2298 H2286 0.950 . S
C2298 C2297 1.398 . S
C2298 C2299 1.391 . S
C2299 H2287 0.950 . S
C2299 C2295 1.393 . S
C2299 C2298 1.391 . S
H2300 C2308 0.950 . S
H2301 C2313 0.950 . S
H2302 C2310 0.950 . S
H2303 C2312 0.950 . S
H2304 C2314 0.950 . S
H2305 C2316 0.950 . S
H2306 C2318 0.950 . S
H2307 C2319 0.950 . S
C2308 H2300 0.950 . S
C2308 C2309 1.386 . S
C2308 C2310 1.391 . S
C2309 C2308 1.386 . S
C2309 C2313 1.393 . S
C2310 H2302 0.950 . S
C2310 C2308 1.391 . S
C2310 C2311 1.400 . S
C2311 C2310 1.400 . S
C2311 C2312 1.398 . S
C2311 C2317 1.491 . S
C2312 H2303 0.950 . S
C2312 C2311 1.398 . S
C2312 C2313 1.391 . S
C2313 H2301 0.950 . S
C2313 C2309 1.393 . S
C2313 C2312 1.391 . S
C2314 H2304 0.950 . S
C2314 C2315 1.386 . S
C2314 C2316 1.391 . S
C2315 C2314 1.386 . S
C2315 C2319 1.393 . S
C2316 H2305 0.950 . S
C2316 C2314 1.391 . S
C2316 C2317 1.400 . S
C2317 C2311 1.491 . S
C2317 C2316 1.400 . S
C2317 C2318 1.398 . S
C2318 H2306 0.950 . S
C2318 C2317 1.398 . S
C2318 C2319 1.391 . S
C2319 H2307 0.950 . S
C2319 C2315 1.393 . S
C2319 C2318 1.391 . S
H2320 C2328 0.950 . S
H2321 C2333 0.950 . S
H2322 C2330 0.950 . S
H2323 C2332 0.950 . S
H2324 C2334 0.950 . S
H2325 C2336 0.950 . S
H2326 C2338 0.950 . S
H2327 C2339 0.950 . S
C2328 H2320 0.950 . S
C2328 C2329 1.386 . S
C2328 C2330 1.391 . S
C2329 C2328 1.386 . S
C2329 C2333 1.393 . S
C2330 H2322 0.950 . S
C2330 C2328 1.391 . S
C2330 C2331 1.400 . S
C2331 C2330 1.400 . S
C2331 C2332 1.398 . S
C2331 C2337 1.491 . S
C2332 H2323 0.950 . S
C2332 C2331 1.398 . S
C2332 C2333 1.391 . S
C2333 H2321 0.950 . S
C2333 C2329 1.393 . S
C2333 C2332 1.391 . S
C2334 H2324 0.950 . S
C2334 C2335 1.386 . S
C2334 C2336 1.391 . S
C2335 C2334 1.386 . S
C2335 C2339 1.393 . S
C2336 H2325 0.950 . S
C2336 C2334 1.391 . S
C2336 C2337 1.400 . S
C2337 C2331 1.491 . S
C2337 C2336 1.400 . S
C2337 C2338 1.398 . S
C2338 H2326 0.950 . S
C2338 C2337 1.398 . S
C2338 C2339 1.391 . S
C2339 H2327 0.950 . S
C2339 C2335 1.393 . S
C2339 C2338 1.391 . S
H2340 C2348 0.950 . S
H2341 C2353 0.950 . S
H2342 C2350 0.950 . S
H2343 C2352 0.950 . S
H2344 C2354 0.950 . S
H2345 C2356 0.950 . S
H2346 C2358 0.950 . S
H2347 C2359 0.950 . S
C2348 H2340 0.950 . S
C2348 C2349 1.386 . S
C2348 C2350 1.391 . S
C2349 C2348 1.386 . S
C2349 C2353 1.393 . S
C2350 H2342 0.950 . S
C2350 C2348 1.391 . S
C2350 C2351 1.400 . S
C2351 C2350 1.400 . S
C2351 C2352 1.398 . S
C2351 C2357 1.491 . S
C2352 H2343 0.950 . S
C2352 C2351 1.398 . S
C2352 C2353 1.391 . S
C2353 H2341 0.950 . S
C2353 C2349 1.393 . S
C2353 C2352 1.391 . S
C2354 H2344 0.950 . S
C2354 C2355 1.386 . S
C2354 C2356 1.391 . S
C2355 C2354 1.386 . S
C2355 C2359 1.393 . S
C2356 H2345 0.950 . S
C2356 C2354 1.391 . S
C2356 C2357 1.400 . S
C2357 C2351 1.491 . S
C2357 C2356 1.400 . S
C2357 C2358 1.398 . S
C2358 H2346 0.950 . S
C2358 C2357 1.398 . S
C2358 C2359 1.391 . S
C2359 H2347 0.950 . S
C2359 C2355 1.393 . S
C2359 C2358 1.391 . S
H2360 C2368 0.950 . S
H2361 C2373 0.950 . S
H2362 C2370 0.950 . S
H2363 C2372 0.950 . S
H2364 C2374 0.950 . S
H2365 C2376 0.950 . S
H2366 C2378 0.950 . S
H2367 C2379 0.950 . S
C2368 H2360 0.950 . S
C2368 C2369 1.386 . S
C2368 C2370 1.391 . S
C2369 C2368 1.386 . S
C2369 C2373 1.393 . S
C2370 H2362 0.950 . S
C2370 C2368 1.391 . S
C2370 C2371 1.400 . S
C2371 C2370 1.400 . S
C2371 C2372 1.398 . S
C2371 C2377 1.491 . S
C2372 H2363 0.950 . S
C2372 C2371 1.398 . S
C2372 C2373 1.391 . S
C2373 H2361 0.950 . S
C2373 C2369 1.393 . S
C2373 C2372 1.391 . S
C2374 H2364 0.950 . S
C2374 C2375 1.386 . S
C2374 C2376 1.391 . S
C2375 C2374 1.386 . S
C2375 C2379 1.393 . S
C2376 H2365 0.950 . S
C2376 C2374 1.391 . S
C2376 C2377 1.400 . S
C2377 C2371 1.491 . S
C2377 C2376 1.400 . S
C2377 C2378 1.398 . S
C2378 H2366 0.950 . S
C2378 C2377 1.398 . S
C2378 C2379 1.391 . S
C2379 H2367 0.950 . S
C2379 C2375 1.393 . S
C2379 C2378 1.391 . S
H2380 C2388 0.950 . S
H2381 C2393 0.950 . S
H2382 C2390 0.950 . S
H2383 C2392 0.950 . S
H2384 C2394 0.950 . S
H2385 C2396 0.950 . S
H2386 C2398 0.950 . S
H2387 C2399 0.950 . S
C2388 H2380 0.950 . S
C2388 C2389 1.386 . S
C2388 C2390 1.391 . S
C2389 C2388 1.386 . S
C2389 C2393 1.393 . S
C2390 H2382 0.950 . S
C2390 C2388 1.391 . S
C2390 C2391 1.400 . S
C2391 C2390 1.400 . S
C2391 C2392 1.398 . S
C2391 C2397 1.491 . S
C2392 H2383 0.950 . S
C2392 C2391 1.398 . S
C2392 C2393 1.391 . S
C2393 H2381 0.950 . S
C2393 C2389 1.393 . S
C2393 C2392 1.391 . S
C2394 H2384 0.950 . S
C2394 C2395 1.386 . S
C2394 C2396 1.391 . S
C2395 C2394 1.386 . S
C2395 C2399 1.393 . S
C2396 H2385 0.950 . S
C2396 C2394 1.391 . S
C2396 C2397 1.400 . S
C2397 C2391 1.491 . S
C2397 C2396 1.400 . S
C2397 C2398 1.398 . S
C2398 H2386 0.950 . S
C2398 C2397 1.398 . S
C2398 C2399 1.391 . S
C2399 H2387 0.950 . S
C2399 C2395 1.393 . S
C2399 C2398 1.391 . S
H2400 C2408 0.950 . S
H2401 C2413 0.950 . S
H2402 C2410 0.950 . S
H2403 C2412 0.950 . S
H2404 C2414 0.950 . S
H2405 C2416 0.950 . S
H2406 C2418 0.950 . S
H2407 C2419 0.950 . S
C2408 H2400 0.950 . S
C2408 C2409 1.386 . S
C2408 C2410 1.391 . S
C2409 C2408 1.386 . S
C2409 C2413 1.393 . S
C2410 H2402 0.950 . S
C2410 C2408 1.391 . S
C2410 C2411 1.400 . S
C2411 C2410 1.400 . S
C2411 C2412 1.398 . S
C2411 C2417 1.491 . S
C2412 H2403 0.950 . S
C2412 C2411 1.398 . S
C2412 C2413 1.391 . S
C2413 H2401 0.950 . S
C2413 C2409 1.393 . S
C2413 C2412 1.391 . S
C2414 H2404 0.950 . S
C2414 C2415 1.386 . S
C2414 C2416 1.391 . S
C2415 C2414 1.386 . S
C2415 C2419 1.393 . S
C2416 H2405 0.950 . S
C2416 C2414 1.391 . S
C2416 C2417 1.400 . S
C2417 C2411 1.491 . S
C2417 C2416 1.400 . S
C2417 C2418 1.398 . S
C2418 H2406 0.950 . S
C2418 C2417 1.398 . S
C2418 C2419 1.391 . S
C2419 H2407 0.950 . S
C2419 C2415 1.393 . S
C2419 C2418 1.391 . S
H2420 C2428 0.950 . S
H2421 C2433 0.950 . S
H2422 C2430 0.950 . S
H2423 C2432 0.950 . S
H2424 C2434 0.950 1_455 S
H2425 C2436 0.950 . S
H2426 C2438 0.950 . S
H2427 C2439 0.950 . S
C2428 H2420 0.950 . S
C2428 C2429 1.386 . S
C2428 C2430 1.391 . S
C2429 C2428 1.386 . S
C2429 C2433 1.393 . S
C2430 H2422 0.950 . S
C2430 C2428 1.391 . S
C2430 C2431 1.400 . S
C2431 C2430 1.400 . S
C2431 C2432 1.398 . S
C2431 C2437 1.491 . S
C2432 H2423 0.950 . S
C2432 C2431 1.398 . S
C2432 C2433 1.391 . S
C2433 H2421 0.950 . S
C2433 C2429 1.393 . S
C2433 C2432 1.391 . S
C2434 H2424 0.950 1_655 S
C2434 C2435 1.386 . S
C2434 C2436 1.391 . S
C2435 C2434 1.386 . S
C2435 C2439 1.393 . S
C2436 H2425 0.950 . S
C2436 C2434 1.391 . S
C2436 C2437 1.400 . S
C2437 C2431 1.491 . S
C2437 C2436 1.400 . S
C2437 C2438 1.398 . S
C2438 H2426 0.950 . S
C2438 C2437 1.398 . S
C2438 C2439 1.391 . S
C2439 H2427 0.950 . S
C2439 C2435 1.393 . S
C2439 C2438 1.391 . S
H2440 C2448 0.950 . S
H2441 C2453 0.950 . S
H2442 C2450 0.950 . S
H2443 C2452 0.950 . S
H2444 C2454 0.950 . S
H2445 C2456 0.950 . S
H2446 C2458 0.950 . S
H2447 C2459 0.950 . S
C2448 H2440 0.950 . S
C2448 C2449 1.386 . S
C2448 C2450 1.391 . S
C2449 C2448 1.386 . S
C2449 C2453 1.393 . S
C2450 H2442 0.950 . S
C2450 C2448 1.391 . S
C2450 C2451 1.400 . S
C2451 C2450 1.400 . S
C2451 C2452 1.398 . S
C2451 C2457 1.491 . S
C2452 H2443 0.950 . S
C2452 C2451 1.398 . S
C2452 C2453 1.391 . S
C2453 H2441 0.950 . S
C2453 C2449 1.393 . S
C2453 C2452 1.391 . S
C2454 H2444 0.950 . S
C2454 C2455 1.386 . S
C2454 C2456 1.391 . S
C2455 C2454 1.386 . S
C2455 C2459 1.393 . S
C2456 H2445 0.950 . S
C2456 C2454 1.391 . S
C2456 C2457 1.400 . S
C2457 C2451 1.491 . S
C2457 C2456 1.400 . S
C2457 C2458 1.398 . S
C2458 H2446 0.950 . S
C2458 C2457 1.398 . S
C2458 C2459 1.391 . S
C2459 H2447 0.950 . S
C2459 C2455 1.393 . S
C2459 C2458 1.391 . S
H2460 C2468 0.950 . S
H2461 C2473 0.950 . S
H2462 C2470 0.950 . S
H2463 C2472 0.950 . S
H2464 C2474 0.950 . S
H2465 C2476 0.950 . S
H2466 C2478 0.950 . S
H2467 C2479 0.950 . S
C2468 H2460 0.950 . S
C2468 C2469 1.386 . S
C2468 C2470 1.391 . S
C2469 C2468 1.386 . S
C2469 C2473 1.393 . S
C2470 H2462 0.950 . S
C2470 C2468 1.391 . S
C2470 C2471 1.400 . S
C2471 C2470 1.400 . S
C2471 C2472 1.398 . S
C2471 C2477 1.491 . S
C2472 H2463 0.950 . S
C2472 C2471 1.398 . S
C2472 C2473 1.391 . S
C2473 H2461 0.950 . S
C2473 C2469 1.393 . S
C2473 C2472 1.391 . S
C2474 H2464 0.950 . S
C2474 C2475 1.386 . S
C2474 C2476 1.391 . S
C2475 C2474 1.386 . S
C2475 C2479 1.393 . S
C2476 H2465 0.950 . S
C2476 C2474 1.391 . S
C2476 C2477 1.400 . S
C2477 C2471 1.491 . S
C2477 C2476 1.400 . S
C2477 C2478 1.398 . S
C2478 H2466 0.950 . S
C2478 C2477 1.398 . S
C2478 C2479 1.391 . S
C2479 H2467 0.950 . S
C2479 C2475 1.393 . S
C2479 C2478 1.391 . S
H2480 C2488 0.950 . S
H2481 C2493 0.950 . S
H2482 C2490 0.950 . S
H2483 C2492 0.950 . S
H2484 C2494 0.950 . S
H2485 C2496 0.950 . S
H2486 C2498 0.950 . S
H2487 C2499 0.950 . S
C2488 H2480 0.950 . S
C2488 C2489 1.386 . S
C2488 C2490 1.391 . S
C2489 C2488 1.386 . S
C2489 C2493 1.393 . S
C2490 H2482 0.950 . S
C2490 C2488 1.391 . S
C2490 C2491 1.400 . S
C2491 C2490 1.400 . S
C2491 C2492 1.398 . S
C2491 C2497 1.491 . S
C2492 H2483 0.950 . S
C2492 C2491 1.398 . S
C2492 C2493 1.391 . S
C2493 H2481 0.950 . S
C2493 C2489 1.393 . S
C2493 C2492 1.391 . S
C2494 H2484 0.950 . S
C2494 C2495 1.386 . S
C2494 C2496 1.391 . S
C2495 C2494 1.386 . S
C2495 C2499 1.393 . S
C2496 H2485 0.950 . S
C2496 C2494 1.391 . S
C2496 C2497 1.400 . S
C2497 C2491 1.491 . S
C2497 C2496 1.400 . S
C2497 C2498 1.398 . S
C2498 H2486 0.950 . S
C2498 C2497 1.398 . S
C2498 C2499 1.391 . S
C2499 H2487 0.950 . S
C2499 C2495 1.393 . S
C2499 C2498 1.391 . S
H2500 C2508 0.950 . S
H2501 C2513 0.950 . S
H2502 C2510 0.950 . S
H2503 C2512 0.950 . S
H2504 C2514 0.950 . S
H2505 C2516 0.950 . S
H2506 C2518 0.950 . S
H2507 C2519 0.950 . S
C2508 H2500 0.950 . S
C2508 C2509 1.386 . S
C2508 C2510 1.391 . S
C2509 C2508 1.386 . S
C2509 C2513 1.393 . S
C2510 H2502 0.950 . S
C2510 C2508 1.391 . S
C2510 C2511 1.400 . S
C2511 C2510 1.400 . S
C2511 C2512 1.398 . S
C2511 C2517 1.491 . S
C2512 H2503 0.950 . S
C2512 C2511 1.398 . S
C2512 C2513 1.391 . S
C2513 H2501 0.950 . S
C2513 C2509 1.393 . S
C2513 C2512 1.391 . S
C2514 H2504 0.950 . S
C2514 C2515 1.386 . S
C2514 C2516 1.391 . S
C2515 C2514 1.386 . S
C2515 C2519 1.393 . S
C2516 H2505 0.950 . S
C2516 C2514 1.391 . S
C2516 C2517 1.400 . S
C2517 C2511 1.491 . S
C2517 C2516 1.400 . S
C2517 C2518 1.398 . S
C2518 H2506 0.950 . S
C2518 C2517 1.398 . S
C2518 C2519 1.391 . S
C2519 H2507 0.950 . S
C2519 C2515 1.393 . S
C2519 C2518 1.391 . S
H2520 C2528 0.950 . S
H2521 C2533 0.950 . S
H2522 C2530 0.950 . S
H2523 C2532 0.950 . S
H2524 C2534 0.950 . S
H2525 C2536 0.950 . S
H2526 C2538 0.950 . S
H2527 C2539 0.950 . S
C2528 H2520 0.950 . S
C2528 C2529 1.386 . S
C2528 C2530 1.391 . S
C2529 C2528 1.386 . S
C2529 C2533 1.393 . S
C2530 H2522 0.950 . S
C2530 C2528 1.391 . S
C2530 C2531 1.400 . S
C2531 C2530 1.400 . S
C2531 C2532 1.398 . S
C2531 C2537 1.491 . S
C2532 H2523 0.950 . S
C2532 C2531 1.398 . S
C2532 C2533 1.391 . S
C2533 H2521 0.950 . S
C2533 C2529 1.393 . S
C2533 C2532 1.391 . S
C2534 H2524 0.950 . S
C2534 C2535 1.386 . S
C2534 C2536 1.391 . S
C2535 C2534 1.386 . S
C2535 C2539 1.393 . S
C2536 H2525 0.950 . S
C2536 C2534 1.391 . S
C2536 C2537 1.400 . S
C2537 C2531 1.491 . S
C2537 C2536 1.400 . S
C2537 C2538 1.398 . S
C2538 H2526 0.950 . S
C2538 C2537 1.398 . S
C2538 C2539 1.391 . S
C2539 H2527 0.950 . S
C2539 C2535 1.393 . S
C2539 C2538 1.391 . S
H2540 C2548 0.950 . S
H2541 C2553 0.950 . S
H2542 C2550 0.950 . S
H2543 C2552 0.950 . S
H2544 C2554 0.950 . S
H2545 C2556 0.950 . S
H2546 C2558 0.950 . S
H2547 C2559 0.950 . S
C2548 H2540 0.950 . S
C2548 C2549 1.386 . S
C2548 C2550 1.391 . S
C2549 C2548 1.386 . S
C2549 C2553 1.393 . S
C2550 H2542 0.950 . S
C2550 C2548 1.391 . S
C2550 C2551 1.400 . S
C2551 C2550 1.400 . S
C2551 C2552 1.398 . S
C2551 C2557 1.491 . S
C2552 H2543 0.950 . S
C2552 C2551 1.398 . S
C2552 C2553 1.391 . S
C2553 H2541 0.950 . S
C2553 C2549 1.393 . S
C2553 C2552 1.391 . S
C2554 H2544 0.950 . S
C2554 C2555 1.386 . S
C2554 C2556 1.391 . S
C2555 C2554 1.386 . S
C2555 C2559 1.393 . S
C2556 H2545 0.950 . S
C2556 C2554 1.391 . S
C2556 C2557 1.400 . S
C2557 C2551 1.491 . S
C2557 C2556 1.400 . S
C2557 C2558 1.398 . S
C2558 H2546 0.950 . S
C2558 C2557 1.398 . S
C2558 C2559 1.391 . S
C2559 H2547 0.950 . S
C2559 C2555 1.393 . S
C2559 C2558 1.391 . S
H2560 C2568 0.950 . S
H2561 C2573 0.950 . S
H2562 C2570 0.950 . S
H2563 C2572 0.950 . S
H2564 C2574 0.950 . S
H2565 C2576 0.950 . S
H2566 C2578 0.950 . S
H2567 C2579 0.950 . S
C2568 H2560 0.950 . S
C2568 C2569 1.386 . S
C2568 C2570 1.391 . S
C2569 C2568 1.386 . S
C2569 C2573 1.393 . S
C2570 H2562 0.950 . S
C2570 C2568 1.391 . S
C2570 C2571 1.400 . S
C2571 C2570 1.400 . S
C2571 C2572 1.398 . S
C2571 C2577 1.491 . S
C2572 H2563 0.950 . S
C2572 C2571 1.398 . S
C2572 C2573 1.391 . S
C2573 H2561 0.950 . S
C2573 C2569 1.393 . S
C2573 C2572 1.391 . S
C2574 H2564 0.950 . S
C2574 C2575 1.386 . S
C2574 C2576 1.391 . S
C2575 C2574 1.386 . S
C2575 C2579 1.393 . S
C2576 H2565 0.950 . S
C2576 C2574 1.391 . S
C2576 C2577 1.400 . S
C2577 C2571 1.491 . S
C2577 C2576 1.400 . S
C2577 C2578 1.398 . S
C2578 H2566 0.950 . S
C2578 C2577 1.398 . S
C2578 C2579 1.391 . S
C2579 H2567 0.950 . S
C2579 C2575 1.393 . S
C2579 C2578 1.391 . S
H2580 C2588 0.950 . S
H2581 C2593 0.950 . S
H2582 C2590 0.950 . S
H2583 C2592 0.950 . S
H2584 C2594 0.950 . S
H2585 C2596 0.950 . S
H2586 C2598 0.950 . S
H2587 C2599 0.950 . S
C2588 H2580 0.950 . S
C2588 C2589 1.386 . S
C2588 C2590 1.391 . S
C2589 C2588 1.386 . S
C2589 C2593 1.393 . S
C2590 H2582 0.950 . S
C2590 C2588 1.391 . S
C2590 C2591 1.400 . S
C2591 C2590 1.400 . S
C2591 C2592 1.398 . S
C2591 C2597 1.491 . S
C2592 H2583 0.950 . S
C2592 C2591 1.398 . S
C2592 C2593 1.391 . S
C2593 H2581 0.950 . S
C2593 C2589 1.393 . S
C2593 C2592 1.391 . S
C2594 H2584 0.950 . S
C2594 C2595 1.386 . S
C2594 C2596 1.391 . S
C2595 C2594 1.386 . S
C2595 C2599 1.393 . S
C2596 H2585 0.950 . S
C2596 C2594 1.391 . S
C2596 C2597 1.400 . S
C2597 C2591 1.491 . S
C2597 C2596 1.400 . S
C2597 C2598 1.398 . S
C2598 H2586 0.950 . S
C2598 C2597 1.398 . S
C2598 C2599 1.391 . S
C2599 H2587 0.950 . S
C2599 C2595 1.393 . S
C2599 C2598 1.391 . S
H2600 C2608 0.950 . S
H2601 C2613 0.950 . S
H2602 C2610 0.950 . S
H2603 C2612 0.950 . S
H2604 C2614 0.950 . S
H2605 C2616 0.950 . S
H2606 C2618 0.950 . S
H2607 C2619 0.950 . S
C2608 H2600 0.950 . S
C2608 C2609 1.386 . S
C2608 C2610 1.391 . S
C2609 C2608 1.386 . S
C2609 C2613 1.393 . S
C2610 H2602 0.950 . S
C2610 C2608 1.391 . S
C2610 C2611 1.400 . S
C2611 C2610 1.400 . S
C2611 C2612 1.398 . S
C2611 C2617 1.491 . S
C2612 H2603 0.950 . S
C2612 C2611 1.398 . S
C2612 C2613 1.391 . S
C2613 H2601 0.950 . S
C2613 C2609 1.393 . S
C2613 C2612 1.391 . S
C2614 H2604 0.950 . S
C2614 C2615 1.386 . S
C2614 C2616 1.391 . S
C2615 C2614 1.386 . S
C2615 C2619 1.393 . S
C2616 H2605 0.950 . S
C2616 C2614 1.391 . S
C2616 C2617 1.400 . S
C2617 C2611 1.491 . S
C2617 C2616 1.400 . S
C2617 C2618 1.398 . S
C2618 H2606 0.950 . S
C2618 C2617 1.398 . S
C2618 C2619 1.391 . S
C2619 H2607 0.950 . S
C2619 C2615 1.393 . S
C2619 C2618 1.391 . S
H2620 C2628 0.950 . S
H2621 C2633 0.950 . S
H2622 C2630 0.950 . S
H2623 C2632 0.950 . S
H2624 C2634 0.950 . S
H2625 C2636 0.950 . S
H2626 C2638 0.950 . S
H2627 C2639 0.950 . S
C2628 H2620 0.950 . S
C2628 C2629 1.386 . S
C2628 C2630 1.391 . S
C2629 C2628 1.386 . S
C2629 C2633 1.393 . S
C2630 H2622 0.950 . S
C2630 C2628 1.391 . S
C2630 C2631 1.400 . S
C2631 C2630 1.400 . S
C2631 C2632 1.398 . S
C2631 C2637 1.491 . S
C2632 H2623 0.950 . S
C2632 C2631 1.398 . S
C2632 C2633 1.391 . S
C2633 H2621 0.950 . S
C2633 C2629 1.393 . S
C2633 C2632 1.391 . S
C2634 H2624 0.950 . S
C2634 C2635 1.386 . S
C2634 C2636 1.391 . S
C2635 C2634 1.386 . S
C2635 C2639 1.393 . S
C2636 H2625 0.950 . S
C2636 C2634 1.391 . S
C2636 C2637 1.400 . S
C2637 C2631 1.491 . S
C2637 C2636 1.400 . S
C2637 C2638 1.398 . S
C2638 H2626 0.950 . S
C2638 C2637 1.398 . S
C2638 C2639 1.391 . S
C2639 H2627 0.950 . S
C2639 C2635 1.393 . S
C2639 C2638 1.391 . S
H2640 C2648 0.950 . S
H2641 C2653 0.950 . S
H2642 C2650 0.950 . S
H2643 C2652 0.950 . S
H2644 C2654 0.950 . S
H2645 C2656 0.950 . S
H2646 C2658 0.950 . S
H2647 C2659 0.950 . S
C2648 H2640 0.950 . S
C2648 C2649 1.386 . S
C2648 C2650 1.391 . S
C2649 C2648 1.386 . S
C2649 C2653 1.393 . S
C2650 H2642 0.950 . S
C2650 C2648 1.391 . S
C2650 C2651 1.400 . S
C2651 C2650 1.400 . S
C2651 C2652 1.398 . S
C2651 C2657 1.491 . S
C2652 H2643 0.950 . S
C2652 C2651 1.398 . S
C2652 C2653 1.391 . S
C2653 H2641 0.950 . S
C2653 C2649 1.393 . S
C2653 C2652 1.391 . S
C2654 H2644 0.950 . S
C2654 C2655 1.386 . S
C2654 C2656 1.391 . S
C2655 C2654 1.386 . S
C2655 C2659 1.393 . S
C2656 H2645 0.950 . S
C2656 C2654 1.391 . S
C2656 C2657 1.400 . S
C2657 C2651 1.491 . S
C2657 C2656 1.400 . S
C2657 C2658 1.398 . S
C2658 H2646 0.950 . S
C2658 C2657 1.398 . S
C2658 C2659 1.391 . S
C2659 H2647 0.950 . S
C2659 C2655 1.393 . S
C2659 C2658 1.391 . S
H2660 C2668 0.950 . S
H2661 C2673 0.950 . S
H2662 C2670 0.950 . S
H2663 C2672 0.950 . S
H2664 C2674 0.950 . S
H2665 C2676 0.950 . S
H2666 C2678 0.950 . S
H2667 C2679 0.950 . S
C2668 H2660 0.950 . S
C2668 C2669 1.386 . S
C2668 C2670 1.391 . S
C2669 C2668 1.386 . S
C2669 C2673 1.393 . S
C2670 H2662 0.950 . S
C2670 C2668 1.391 . S
C2670 C2671 1.400 . S
C2671 C2670 1.400 . S
C2671 C2672 1.398 . S
C2671 C2677 1.491 . S
C2672 H2663 0.950 . S
C2672 C2671 1.398 . S
C2672 C2673 1.391 . S
C2673 H2661 0.950 . S
C2673 C2669 1.393 . S
C2673 C2672 1.391 . S
C2674 H2664 0.950 . S
C2674 C2675 1.386 . S
C2674 C2676 1.391 . S
C2675 C2674 1.386 . S
C2675 C2679 1.393 . S
C2676 H2665 0.950 . S
C2676 C2674 1.391 . S
C2676 C2677 1.400 . S
C2677 C2671 1.491 . S
C2677 C2676 1.400 . S
C2677 C2678 1.398 . S
C2678 H2666 0.950 . S
C2678 C2677 1.398 . S
C2678 C2679 1.391 . S
C2679 H2667 0.950 . S
C2679 C2675 1.393 . S
C2679 C2678 1.391 . S
H2680 C2688 0.950 . S
H2681 C2693 0.950 . S
H2682 C2690 0.950 . S
H2683 C2692 0.950 . S
H2684 C2694 0.950 . S
H2685 C2696 0.950 . S
H2686 C2698 0.950 . S
H2687 C2699 0.950 . S
C2688 H2680 0.950 . S
C2688 C2689 1.386 . S
C2688 C2690 1.391 . S
C2689 C2688 1.386 . S
C2689 C2693 1.393 . S
C2690 H2682 0.950 . S
C2690 C2688 1.391 . S
C2690 C2691 1.400 . S
C2691 C2690 1.400 . S
C2691 C2692 1.398 . S
C2691 C2697 1.491 . S
C2692 H2683 0.950 . S
C2692 C2691 1.398 . S
C2692 C2693 1.391 . S
C2693 H2681 0.950 . S
C2693 C2689 1.393 . S
C2693 C2692 1.391 . S
C2694 H2684 0.950 . S
C2694 C2695 1.386 . S
C2694 C2696 1.391 . S
C2695 C2694 1.386 . S
C2695 C2699 1.393 . S
C2696 H2685 0.950 . S
C2696 C2694 1.391 . S
C2696 C2697 1.400 . S
C2697 C2691 1.491 . S
C2697 C2696 1.400 . S
C2697 C2698 1.398 . S
C2698 H2686 0.950 . S
C2698 C2697 1.398 . S
C2698 C2699 1.391 . S
C2699 H2687 0.950 . S
C2699 C2695 1.393 . S
C2699 C2698 1.391 . S
H2700 C2708 0.950 . S
H2701 C2713 0.950 . S
H2702 C2710 0.950 . S
H2703 C2712 0.950 . S
H2704 C2714 0.950 . S
H2705 C2716 0.950 . S
H2706 C2718 0.950 . S
H2707 C2719 0.950 . S
C2708 H2700 0.950 . S
C2708 C2709 1.386 . S
C2708 C2710 1.391 . S
C2709 C2708 1.386 . S
C2709 C2713 1.393 . S
C2710 H2702 0.950 . S
C2710 C2708 1.391 . S
C2710 C2711 1.400 . S
C2711 C2710 1.400 . S
C2711 C2712 1.398 . S
C2711 C2717 1.491 . S
C2712 H2703 0.950 . S
C2712 C2711 1.398 . S
C2712 C2713 1.391 . S
C2713 H2701 0.950 . S
C2713 C2709 1.393 . S
C2713 C2712 1.391 . S
C2714 H2704 0.950 . S
C2714 C2715 1.386 . S
C2714 C2716 1.391 . S
C2715 C2714 1.386 . S
C2715 C2719 1.393 . S
C2716 H2705 0.950 . S
C2716 C2714 1.391 . S
C2716 C2717 1.400 . S
C2717 C2711 1.491 . S
C2717 C2716 1.400 . S
C2717 C2718 1.398 . S
C2718 H2706 0.950 . S
C2718 C2717 1.398 . S
C2718 C2719 1.391 . S
C2719 H2707 0.950 . S
C2719 C2715 1.393 . S
C2719 C2718 1.391 . S
H2720 C2728 0.950 . S
H2721 C2733 0.950 . S
H2722 C2730 0.950 . S
H2723 C2732 0.950 . S
H2724 C2734 0.950 . S
H2725 C2736 0.950 . S
H2726 C2738 0.950 . S
H2727 C2739 0.950 . S
C2728 H2720 0.950 . S
C2728 C2729 1.386 . S
C2728 C2730 1.391 . S
C2729 C2728 1.386 . S
C2729 C2733 1.393 . S
C2730 H2722 0.950 . S
C2730 C2728 1.391 . S
C2730 C2731 1.400 . S
C2731 C2730 1.400 . S
C2731 C2732 1.398 . S
C2731 C2737 1.491 . S
C2732 H2723 0.950 . S
C2732 C2731 1.398 . S
C2732 C2733 1.391 . S
C2733 H2721 0.950 . S
C2733 C2729 1.393 . S
C2733 C2732 1.391 . S
C2734 H2724 0.950 . S
C2734 C2735 1.386 . S
C2734 C2736 1.391 . S
C2735 C2734 1.386 . S
C2735 C2739 1.393 . S
C2736 H2725 0.950 . S
C2736 C2734 1.391 . S
C2736 C2737 1.400 . S
C2737 C2731 1.491 . S
C2737 C2736 1.400 . S
C2737 C2738 1.398 . S
C2738 H2726 0.950 . S
C2738 C2737 1.398 . S
C2738 C2739 1.391 . S
C2739 H2727 0.950 . S
C2739 C2735 1.393 . S
C2739 C2738 1.391 . S
H2740 C2748 0.950 . S
H2741 C2753 0.950 . S
H2742 C2750 0.950 . S
H2743 C2752 0.950 . S
H2744 C2754 0.950 . S
H2745 C2756 0.950 . S
H2746 C2758 0.950 . S
H2747 C2759 0.950 . S
C2748 H2740 0.950 . S
C2748 C2749 1.386 . S
C2748 C2750 1.391 . S
C2749 C2748 1.386 . S
C2749 C2753 1.393 . S
C2750 H2742 0.950 . S
C2750 C2748 1.391 . S
C2750 C2751 1.400 . S
C2751 C2750 1.400 . S
C2751 C2752 1.398 . S
C2751 C2757 1.491 . S
C2752 H2743 0.950 . S
C2752 C2751 1.398 . S
C2752 C2753 1.391 . S
C2753 H2741 0.950 . S
C2753 C2749 1.393 . S
C2753 C2752 1.391 . S
C2754 H2744 0.950 . S
C2754 C2755 1.386 . S
C2754 C2756 1.391 . S
C2755 C2754 1.386 . S
C2755 C2759 1.393 . S
C2756 H2745 0.950 . S
C2756 C2754 1.391 . S
C2756 C2757 1.400 . S
C2757 C2751 1.491 . S
C2757 C2756 1.400 . S
C2757 C2758 1.398 . S
C2758 H2746 0.950 . S
C2758 C2757 1.398 . S
C2758 C2759 1.391 . S
C2759 H2747 0.950 . S
C2759 C2755 1.393 . S
C2759 C2758 1.391 . S
H2760 C2768 0.950 . S
H2761 C2773 0.950 . S
H2762 C2770 0.950 . S
H2763 C2772 0.950 . S
H2764 C2774 0.950 . S
H2765 C2776 0.950 . S
H2766 C2778 0.950 . S
H2767 C2779 0.950 . S
C2768 H2760 0.950 . S
C2768 C2769 1.386 . S
C2768 C2770 1.391 . S
C2769 C2768 1.386 . S
C2769 C2773 1.393 . S
C2770 H2762 0.950 . S
C2770 C2768 1.391 . S
C2770 C2771 1.400 . S
C2771 C2770 1.400 . S
C2771 C2772 1.398 . S
C2771 C2777 1.491 . S
C2772 H2763 0.950 . S
C2772 C2771 1.398 . S
C2772 C2773 1.391 . S
C2773 H2761 0.950 . S
C2773 C2769 1.393 . S
C2773 C2772 1.391 . S
C2774 H2764 0.950 . S
C2774 C2775 1.386 . S
C2774 C2776 1.391 . S
C2775 C2774 1.386 . S
C2775 C2779 1.393 . S
C2776 H2765 0.950 . S
C2776 C2774 1.391 . S
C2776 C2777 1.400 . S
C2777 C2771 1.491 . S
C2777 C2776 1.400 . S
C2777 C2778 1.398 . S
C2778 H2766 0.950 . S
C2778 C2777 1.398 . S
C2778 C2779 1.391 . S
C2779 H2767 0.950 . S
C2779 C2775 1.393 . S
C2779 C2778 1.391 . S
H2780 C2788 0.950 . S
H2781 C2793 0.950 . S
H2782 C2790 0.950 . S
H2783 C2792 0.950 . S
H2784 C2794 0.950 . S
H2785 C2796 0.950 . S
H2786 C2798 0.950 . S
H2787 C2799 0.950 . S
C2788 H2780 0.950 . S
C2788 C2789 1.386 . S
C2788 C2790 1.391 . S
C2789 C2788 1.386 . S
C2789 C2793 1.393 . S
C2790 H2782 0.950 . S
C2790 C2788 1.391 . S
C2790 C2791 1.400 . S
C2791 C2790 1.400 . S
C2791 C2792 1.398 . S
C2791 C2797 1.491 . S
C2792 H2783 0.950 . S
C2792 C2791 1.398 . S
C2792 C2793 1.391 . S
C2793 H2781 0.950 . S
C2793 C2789 1.393 . S
C2793 C2792 1.391 . S
C2794 H2784 0.950 . S
C2794 C2795 1.386 . S
C2794 C2796 1.391 . S
C2795 C2794 1.386 . S
C2795 C2799 1.393 . S
C2796 H2785 0.950 . S
C2796 C2794 1.391 . S
C2796 C2797 1.400 . S
C2797 C2791 1.491 . S
C2797 C2796 1.400 . S
C2797 C2798 1.398 . S
C2798 H2786 0.950 . S
C2798 C2797 1.398 . S
C2798 C2799 1.391 . S
C2799 H2787 0.950 . S
C2799 C2795 1.393 . S
C2799 C2798 1.391 . S
H2800 C2808 0.950 . S
H2801 C2813 0.950 . S
H2802 C2810 0.950 . S
H2803 C2812 0.950 . S
H2804 C2814 0.950 . S
H2805 C2816 0.950 . S
H2806 C2818 0.950 . S
H2807 C2819 0.950 . S
C2808 H2800 0.950 . S
C2808 C2809 1.386 . S
C2808 C2810 1.391 . S
C2809 C2808 1.386 . S
C2809 C2813 1.393 . S
C2810 H2802 0.950 . S
C2810 C2808 1.391 . S
C2810 C2811 1.400 . S
C2811 C2810 1.400 . S
C2811 C2812 1.398 . S
C2811 C2817 1.491 . S
C2812 H2803 0.950 . S
C2812 C2811 1.398 . S
C2812 C2813 1.391 . S
C2813 H2801 0.950 . S
C2813 C2809 1.393 . S
C2813 C2812 1.391 . S
C2814 H2804 0.950 . S
C2814 C2815 1.386 . S
C2814 C2816 1.391 . S
C2815 C2814 1.386 . S
C2815 C2819 1.393 . S
C2816 H2805 0.950 . S
C2816 C2814 1.391 . S
C2816 C2817 1.400 . S
C2817 C2811 1.491 . S
C2817 C2816 1.400 . S
C2817 C2818 1.398 . S
C2818 H2806 0.950 . S
C2818 C2817 1.398 . S
C2818 C2819 1.391 . S
C2819 H2807 0.950 . S
C2819 C2815 1.393 . S
C2819 C2818 1.391 . S
H2820 C2828 0.950 . S
H2821 C2833 0.950 . S
H2822 C2830 0.950 . S
H2823 C2832 0.950 . S
H2824 C2834 0.950 . S
H2825 C2836 0.950 . S
H2826 C2838 0.950 . S
H2827 C2839 0.950 . S
C2828 H2820 0.950 . S
C2828 C2829 1.386 . S
C2828 C2830 1.391 . S
C2829 C2828 1.386 . S
C2829 C2833 1.393 . S
C2830 H2822 0.950 . S
C2830 C2828 1.391 . S
C2830 C2831 1.400 . S
C2831 C2830 1.400 . S
C2831 C2832 1.398 . S
C2831 C2837 1.491 . S
C2832 H2823 0.950 . S
C2832 C2831 1.398 . S
C2832 C2833 1.391 . S
C2833 H2821 0.950 . S
C2833 C2829 1.393 . S
C2833 C2832 1.391 . S
C2834 H2824 0.950 . S
C2834 C2835 1.386 . S
C2834 C2836 1.391 . S
C2835 C2834 1.386 . S
C2835 C2839 1.393 . S
C2836 H2825 0.950 . S
C2836 C2834 1.391 . S
C2836 C2837 1.400 . S
C2837 C2831 1.491 . S
C2837 C2836 1.400 . S
C2837 C2838 1.398 . S
C2838 H2826 0.950 . S
C2838 C2837 1.398 . S
C2838 C2839 1.391 . S
C2839 H2827 0.950 . S
C2839 C2835 1.393 . S
C2839 C2838 1.391 . S
H2840 C2848 0.950 . S
H2841 C2853 0.950 . S
H2842 C2850 0.950 . S
H2843 C2852 0.950 . S
H2844 C2854 0.950 . S
H2845 C2856 0.950 . S
H2846 C2858 0.950 . S
H2847 C2859 0.950 . S
C2848 H2840 0.950 . S
C2848 C2849 1.386 . S
C2848 C2850 1.391 . S
C2849 C2848 1.386 . S
C2849 C2853 1.393 . S
C2850 H2842 0.950 . S
C2850 C2848 1.391 . S
C2850 C2851 1.400 . S
C2851 C2850 1.400 . S
C2851 C2852 1.398 . S
C2851 C2857 1.491 . S
C2852 H2843 0.950 . S
C2852 C2851 1.398 . S
C2852 C2853 1.391 . S
C2853 H2841 0.950 . S
C2853 C2849 1.393 . S
C2853 C2852 1.391 . S
C2854 H2844 0.950 . S
C2854 C2855 1.386 . S
C2854 C2856 1.391 . S
C2855 C2854 1.386 . S
C2855 C2859 1.393 . S
C2856 H2845 0.950 . S
C2856 C2854 1.391 . S
C2856 C2857 1.400 . S
C2857 C2851 1.491 . S
C2857 C2856 1.400 . S
C2857 C2858 1.398 . S
C2858 H2846 0.950 . S
C2858 C2857 1.398 . S
C2858 C2859 1.391 . S
C2859 H2847 0.950 . S
C2859 C2855 1.393 . S
C2859 C2858 1.391 . S
H2860 C2868 0.950 . S
H2861 C2873 0.950 . S
H2862 C2870 0.950 . S
H2863 C2872 0.950 . S
H2864 C2874 0.950 . S
H2865 C2876 0.950 . S
H2866 C2878 0.950 . S
H2867 C2879 0.950 . S
C2868 H2860 0.950 . S
C2868 C2869 1.386 . S
C2868 C2870 1.391 . S
C2869 C2868 1.386 . S
C2869 C2873 1.393 . S
C2870 H2862 0.950 . S
C2870 C2868 1.391 . S
C2870 C2871 1.400 . S
C2871 C2870 1.400 . S
C2871 C2872 1.398 . S
C2871 C2877 1.491 . S
C2872 H2863 0.950 . S
C2872 C2871 1.398 . S
C2872 C2873 1.391 . S
C2873 H2861 0.950 . S
C2873 C2869 1.393 . S
C2873 C2872 1.391 . S
C2874 H2864 0.950 . S
C2874 C2875 1.386 . S
C2874 C2876 1.391 . S
C2875 C2874 1.386 . S
C2875 C2879 1.393 . S
C2876 H2865 0.950 . S
C2876 C2874 1.391 . S
C2876 C2877 1.400 . S
C2877 C2871 1.491 . S
C2877 C2876 1.400 . S
C2877 C2878 1.398 . S
C2878 H2866 0.950 . S
C2878 C2877 1.398 . S
C2878 C2879 1.391 . S
C2879 H2867 0.950 . S
C2879 C2875 1.393 . S
C2879 C2878 1.391 . S
H2880 C2888 0.950 . S
H2881 C2893 0.950 . S
H2882 C2890 0.950 . S
H2883 C2892 0.950 . S
H2884 C2894 0.950 . S
H2885 C2896 0.950 . S
H2886 C2898 0.950 . S
H2887 C2899 0.950 . S
C2888 H2880 0.950 . S
C2888 C2889 1.386 . S
C2888 C2890 1.391 . S
C2889 C2888 1.386 . S
C2889 C2893 1.393 . S
C2890 H2882 0.950 . S
C2890 C2888 1.391 . S
C2890 C2891 1.400 . S
C2891 C2890 1.400 . S
C2891 C2892 1.398 . S
C2891 C2897 1.491 . S
C2892 H2883 0.950 . S
C2892 C2891 1.398 . S
C2892 C2893 1.391 . S
C2893 H2881 0.950 . S
C2893 C2889 1.393 . S
C2893 C2892 1.391 . S
C2894 H2884 0.950 . S
C2894 C2895 1.386 . S
C2894 C2896 1.391 . S
C2895 C2894 1.386 . S
C2895 C2899 1.393 . S
C2896 H2885 0.950 . S
C2896 C2894 1.391 . S
C2896 C2897 1.400 . S
C2897 C2891 1.491 . S
C2897 C2896 1.400 . S
C2897 C2898 1.398 . S
C2898 H2886 0.950 . S
C2898 C2897 1.398 . S
C2898 C2899 1.391 . S
C2899 H2887 0.950 . S
C2899 C2895 1.393 . S
C2899 C2898 1.391 . S
H2900 C2908 0.950 . S
H2901 C2913 0.950 . S
H2902 C2910 0.950 . S
H2903 C2912 0.950 . S
H2904 C2914 0.950 . S
H2905 C2916 0.950 . S
H2906 C2918 0.950 . S
H2907 C2919 0.950 . S
C2908 H2900 0.950 . S
C2908 C2909 1.386 . S
C2908 C2910 1.391 . S
C2909 C2908 1.386 . S
C2909 C2913 1.393 . S
C2910 H2902 0.950 . S
C2910 C2908 1.391 . S
C2910 C2911 1.400 . S
C2911 C2910 1.400 . S
C2911 C2912 1.398 . S
C2911 C2917 1.491 . S
C2912 H2903 0.950 . S
C2912 C2911 1.398 . S
C2912 C2913 1.391 . S
C2913 H2901 0.950 . S
C2913 C2909 1.393 . S
C2913 C2912 1.391 . S
C2914 H2904 0.950 . S
C2914 C2915 1.386 . S
C2914 C2916 1.391 . S
C2915 C2914 1.386 . S
C2915 C2919 1.393 . S
C2916 H2905 0.950 . S
C2916 C2914 1.391 . S
C2916 C2917 1.400 . S
C2917 C2911 1.491 . S
C2917 C2916 1.400 . S
C2917 C2918 1.398 . S
C2918 H2906 0.950 . S
C2918 C2917 1.398 . S
C2918 C2919 1.391 . S
C2919 H2907 0.950 . S
C2919 C2915 1.393 . S
C2919 C2918 1.391 . S
H2920 C2928 0.950 . S
H2921 C2933 0.950 . S
H2922 C2930 0.950 . S
H2923 C2932 0.950 . S
H2924 C2934 0.950 . S
H2925 C2936 0.950 . S
H2926 C2938 0.950 . S
H2927 C2939 0.950 . S
C2928 H2920 0.950 . S
C2928 C2929 1.386 . S
C2928 C2930 1.391 . S
C2929 C2928 1.386 . S
C2929 C2933 1.393 . S
C2930 H2922 0.950 . S
C2930 C2928 1.391 . S
C2930 C2931 1.400 . S
C2931 C2930 1.400 . S
C2931 C2932 1.398 . S
C2931 C2937 1.491 . S
C2932 H2923 0.950 . S
C2932 C2931 1.398 . S
C2932 C2933 1.391 . S
C2933 H2921 0.950 . S
C2933 C2929 1.393 . S
C2933 C2932 1.391 . S
C2934 H2924 0.950 . S
C2934 C2935 1.386 . S
C2934 C2936 1.391 . S
C2935 C2934 1.386 . S
C2935 C2939 1.393 . S
C2936 H2925 0.950 . S
C2936 C2934 1.391 . S
C2936 C2937 1.400 . S
C2937 C2931 1.491 . S
C2937 C2936 1.400 . S
C2937 C2938 1.398 . S
C2938 H2926 0.950 . S
C2938 C2937 1.398 . S
C2938 C2939 1.391 . S
C2939 H2927 0.950 . S
C2939 C2935 1.393 . S
C2939 C2938 1.391 . S
H2940 C2948 0.950 . S
H2941 C2953 0.950 . S
H2942 C2950 0.950 . S
H2943 C2952 0.950 . S
H2944 C2954 0.950 . S
H2945 C2956 0.950 . S
H2946 C2958 0.950 . S
H2947 C2959 0.950 . S
C2948 H2940 0.950 . S
C2948 C2949 1.386 . S
C2948 C2950 1.391 . S
C2949 C2948 1.386 . S
C2949 C2953 1.393 . S
C2950 H2942 0.950 . S
C2950 C2948 1.391 . S
C2950 C2951 1.400 . S
C2951 C2950 1.400 . S
C2951 C2952 1.398 . S
C2951 C2957 1.491 . S
C2952 H2943 0.950 . S
C2952 C2951 1.398 . S
C2952 C2953 1.391 . S
C2953 H2941 0.950 . S
C2953 C2949 1.393 . S
C2953 C2952 1.391 . S
C2954 H2944 0.950 . S
C2954 C2955 1.386 . S
C2954 C2956 1.391 . S
C2955 C2954 1.386 . S
C2955 C2959 1.393 . S
C2956 H2945 0.950 . S
C2956 C2954 1.391 . S
C2956 C2957 1.400 . S
C2957 C2951 1.491 . S
C2957 C2956 1.400 . S
C2957 C2958 1.398 . S
C2958 H2946 0.950 . S
C2958 C2957 1.398 . S
C2958 C2959 1.391 . S
C2959 H2947 0.950 . S
C2959 C2955 1.393 . S
C2959 C2958 1.391 . S
H2960 C2968 0.950 . S
H2961 C2973 0.950 . S
H2962 C2970 0.950 . S
H2963 C2972 0.950 . S
H2964 C2974 0.950 . S
H2965 C2976 0.950 . S
H2966 C2978 0.950 . S
H2967 C2979 0.950 . S
C2968 H2960 0.950 . S
C2968 C2969 1.386 . S
C2968 C2970 1.391 . S
C2969 C2968 1.386 . S
C2969 C2973 1.393 . S
C2970 H2962 0.950 . S
C2970 C2968 1.391 . S
C2970 C2971 1.400 . S
C2971 C2970 1.400 . S
C2971 C2972 1.398 . S
C2971 C2977 1.491 . S
C2972 H2963 0.950 . S
C2972 C2971 1.398 . S
C2972 C2973 1.391 . S
C2973 H2961 0.950 . S
C2973 C2969 1.393 . S
C2973 C2972 1.391 . S
C2974 H2964 0.950 . S
C2974 C2975 1.386 . S
C2974 C2976 1.391 . S
C2975 C2974 1.386 . S
C2975 C2979 1.393 . S
C2976 H2965 0.950 . S
C2976 C2974 1.391 . S
C2976 C2977 1.400 . S
C2977 C2971 1.491 . S
C2977 C2976 1.400 . S
C2977 C2978 1.398 . S
C2978 H2966 0.950 . S
C2978 C2977 1.398 . S
C2978 C2979 1.391 . S
C2979 H2967 0.950 . S
C2979 C2975 1.393 . S
C2979 C2978 1.391 . S
H2980 C2988 0.950 . S
H2981 C2993 0.950 . S
H2982 C2990 0.950 . S
H2983 C2992 0.950 . S
H2984 C2994 0.950 . S
H2985 C2996 0.950 . S
H2986 C2998 0.950 . S
H2987 C2999 0.950 . S
C2988 H2980 0.950 . S
C2988 C2989 1.386 . S
C2988 C2990 1.391 . S
C2989 C2988 1.386 . S
C2989 C2993 1.393 . S
C2990 H2982 0.950 . S
C2990 C2988 1.391 . S
C2990 C2991 1.400 . S
C2991 C2990 1.400 . S
C2991 C2992 1.398 . S
C2991 C2997 1.491 . S
C2992 H2983 0.950 . S
C2992 C2991 1.398 . S
C2992 C2993 1.391 . S
C2993 H2981 0.950 . S
C2993 C2989 1.393 . S
C2993 C2992 1.391 . S
C2994 H2984 0.950 . S
C2994 C2995 1.386 . S
C2994 C2996 1.391 . S
C2995 C2994 1.386 . S
C2995 C2999 1.393 . S
C2996 H2985 0.950 . S
C2996 C2994 1.391 . S
C2996 C2997 1.400 . S
C2997 C2991 1.491 . S
C2997 C2996 1.400 . S
C2997 C2998 1.398 . S
C2998 H2986 0.950 . S
C2998 C2997 1.398 . S
C2998 C2999 1.391 . S
C2999 H2987 0.950 . S
C2999 C2995 1.393 . S
C2999 C2998 1.391 . S
H3000 C3008 0.950 . S
H3001 C3013 0.950 . S
H3002 C3010 0.950 . S
H3003 C3012 0.950 . S
H3004 C3014 0.950 . S
H3005 C3016 0.950 . S
H3006 C3018 0.950 . S
H3007 C3019 0.950 . S
C3008 H3000 0.950 . S
C3008 C3009 1.386 . S
C3008 C3010 1.391 . S
C3009 C3008 1.386 . S
C3009 C3013 1.393 . S
C3010 H3002 0.950 . S
C3010 C3008 1.391 . S
C3010 C3011 1.400 . S
C3011 C3010 1.400 . S
C3011 C3012 1.398 . S
C3011 C3017 1.491 . S
C3012 H3003 0.950 . S
C3012 C3011 1.398 . S
C3012 C3013 1.391 . S
C3013 H3001 0.950 . S
C3013 C3009 1.393 . S
C3013 C3012 1.391 . S
C3014 H3004 0.950 . S
C3014 C3015 1.386 . S
C3014 C3016 1.391 . S
C3015 C3014 1.386 . S
C3015 C3019 1.393 . S
C3016 H3005 0.950 . S
C3016 C3014 1.391 . S
C3016 C3017 1.400 . S
C3017 C3011 1.491 . S
C3017 C3016 1.400 . S
C3017 C3018 1.398 . S
C3018 H3006 0.950 . S
C3018 C3017 1.398 . S
C3018 C3019 1.391 . S
C3019 H3007 0.950 . S
C3019 C3015 1.393 . S
C3019 C3018 1.391 . S
H3020 C3028 0.950 . S
H3021 C3033 0.950 . S
H3022 C3030 0.950 . S
H3023 C3032 0.950 . S
H3024 C3034 0.950 . S
H3025 C3036 0.950 . S
H3026 C3038 0.950 . S
H3027 C3039 0.950 . S
C3028 H3020 0.950 . S
C3028 C3029 1.386 . S
C3028 C3030 1.391 . S
C3029 C3028 1.386 . S
C3029 C3033 1.393 . S
C3030 H3022 0.950 . S
C3030 C3028 1.391 . S
C3030 C3031 1.400 . S
C3031 C3030 1.400 . S
C3031 C3032 1.398 . S
C3031 C3037 1.491 . S
C3032 H3023 0.950 . S
C3032 C3031 1.398 . S
C3032 C3033 1.391 . S
C3033 H3021 0.950 . S
C3033 C3029 1.393 . S
C3033 C3032 1.391 . S
C3034 H3024 0.950 . S
C3034 C3035 1.386 . S
C3034 C3036 1.391 . S
C3035 C3034 1.386 . S
C3035 C3039 1.393 . S
C3036 H3025 0.950 . S
C3036 C3034 1.391 . S
C3036 C3037 1.400 . S
C3037 C3031 1.491 . S
C3037 C3036 1.400 . S
C3037 C3038 1.398 . S
C3038 H3026 0.950 . S
C3038 C3037 1.398 . S
C3038 C3039 1.391 . S
C3039 H3027 0.950 . S
C3039 C3035 1.393 . S
C3039 C3038 1.391 . S
H3040 C3048 0.950 . S
H3041 C3053 0.950 . S
H3042 C3050 0.950 . S
H3043 C3052 0.950 . S
H3044 C3054 0.950 . S
H3045 C3056 0.950 . S
H3046 C3058 0.950 . S
H3047 C3059 0.950 . S
C3048 H3040 0.950 . S
C3048 C3049 1.386 . S
C3048 C3050 1.391 . S
C3049 C3048 1.386 . S
C3049 C3053 1.393 . S
C3050 H3042 0.950 . S
C3050 C3048 1.391 . S
C3050 C3051 1.400 . S
C3051 C3050 1.400 . S
C3051 C3052 1.398 . S
C3051 C3057 1.491 . S
C3052 H3043 0.950 . S
C3052 C3051 1.398 . S
C3052 C3053 1.391 . S
C3053 H3041 0.950 . S
C3053 C3049 1.393 . S
C3053 C3052 1.391 . S
C3054 H3044 0.950 . S
C3054 C3055 1.386 . S
C3054 C3056 1.391 . S
C3055 C3054 1.386 . S
C3055 C3059 1.393 . S
C3056 H3045 0.950 . S
C3056 C3054 1.391 . S
C3056 C3057 1.400 . S
C3057 C3051 1.491 . S
C3057 C3056 1.400 . S
C3057 C3058 1.398 . S
C3058 H3046 0.950 . S
C3058 C3057 1.398 . S
C3058 C3059 1.391 . S
C3059 H3047 0.950 . S
C3059 C3055 1.393 . S
C3059 C3058 1.391 . S
H3060 C3068 0.950 . S
H3061 C3073 0.950 . S
H3062 C3070 0.950 . S
H3063 C3072 0.950 . S
H3064 C3074 0.950 . S
H3065 C3076 0.950 . S
H3066 C3078 0.950 . S
H3067 C3079 0.950 . S
C3068 H3060 0.950 . S
C3068 C3069 1.386 . S
C3068 C3070 1.391 . S
C3069 C3068 1.386 . S
C3069 C3073 1.393 . S
C3070 H3062 0.950 . S
C3070 C3068 1.391 . S
C3070 C3071 1.400 . S
C3071 C3070 1.400 . S
C3071 C3072 1.398 . S
C3071 C3077 1.491 . S
C3072 H3063 0.950 . S
C3072 C3071 1.398 . S
C3072 C3073 1.391 . S
C3073 H3061 0.950 . S
C3073 C3069 1.393 . S
C3073 C3072 1.391 . S
C3074 H3064 0.950 . S
C3074 C3075 1.386 . S
C3074 C3076 1.391 . S
C3075 C3074 1.386 . S
C3075 C3079 1.393 . S
C3076 H3065 0.950 . S
C3076 C3074 1.391 . S
C3076 C3077 1.400 . S
C3077 C3071 1.491 . S
C3077 C3076 1.400 . S
C3077 C3078 1.398 . S
C3078 H3066 0.950 . S
C3078 C3077 1.398 . S
C3078 C3079 1.391 . S
C3079 H3067 0.950 . S
C3079 C3075 1.393 . S
C3079 C3078 1.391 . S
H3080 C3088 0.950 . S
H3081 C3093 0.950 . S
H3082 C3090 0.950 . S
H3083 C3092 0.950 . S
H3084 C3094 0.950 . S
H3085 C3096 0.950 . S
H3086 C3098 0.950 . S
H3087 C3099 0.950 . S
C3088 H3080 0.950 . S
C3088 C3089 1.386 . S
C3088 C3090 1.391 . S
C3089 C3088 1.386 . S
C3089 C3093 1.393 . S
C3090 H3082 0.950 . S
C3090 C3088 1.391 . S
C3090 C3091 1.400 . S
C3091 C3090 1.400 . S
C3091 C3092 1.398 . S
C3091 C3097 1.491 . S
C3092 H3083 0.950 . S
C3092 C3091 1.398 . S
C3092 C3093 1.391 . S
C3093 H3081 0.950 . S
C3093 C3089 1.393 . S
C3093 C3092 1.391 . S
C3094 H3084 0.950 . S
C3094 C3095 1.386 . S
C3094 C3096 1.391 . S
C3095 C3094 1.386 . S
C3095 C3099 1.393 . S
C3096 H3085 0.950 . S
C3096 C3094 1.391 . S
C3096 C3097 1.400 . S
C3097 C3091 1.491 . S
C3097 C3096 1.400 . S
C3097 C3098 1.398 . S
C3098 H3086 0.950 . S
C3098 C3097 1.398 . S
C3098 C3099 1.391 . S
C3099 H3087 0.950 . S
C3099 C3095 1.393 . S
C3099 C3098 1.391 . S
H3100 C3108 0.950 . S
H3101 C3113 0.950 . S
H3102 C3110 0.950 . S
H3103 C3112 0.950 . S
H3104 C3114 0.950 . S
H3105 C3116 0.950 . S
H3106 C3118 0.950 . S
H3107 C3119 0.950 . S
C3108 H3100 0.950 . S
C3108 C3109 1.386 . S
C3108 C3110 1.391 . S
C3109 C3108 1.386 . S
C3109 C3113 1.393 . S
C3110 H3102 0.950 . S
C3110 C3108 1.391 . S
C3110 C3111 1.400 . S
C3111 C3110 1.400 . S
C3111 C3112 1.398 . S
C3111 C3117 1.491 . S
C3112 H3103 0.950 . S
C3112 C3111 1.398 . S
C3112 C3113 1.391 . S
C3113 H3101 0.950 . S
C3113 C3109 1.393 . S
C3113 C3112 1.391 . S
C3114 H3104 0.950 . S
C3114 C3115 1.386 . S
C3114 C3116 1.391 . S
C3115 C3114 1.386 . S
C3115 C3119 1.393 . S
C3116 H3105 0.950 . S
C3116 C3114 1.391 . S
C3116 C3117 1.400 . S
C3117 C3111 1.491 . S
C3117 C3116 1.400 . S
C3117 C3118 1.398 . S
C3118 H3106 0.950 . S
C3118 C3117 1.398 . S
C3118 C3119 1.391 . S
C3119 H3107 0.950 . S
C3119 C3115 1.393 . S
C3119 C3118 1.391 . S
H3120 C3128 0.950 . S
H3121 C3133 0.950 . S
H3122 C3130 0.950 . S
H3123 C3132 0.950 . S
H3124 C3134 0.950 . S
H3125 C3136 0.950 . S
H3126 C3138 0.950 . S
H3127 C3139 0.950 . S
C3128 H3120 0.950 . S
C3128 C3129 1.386 . S
C3128 C3130 1.391 . S
C3129 C3128 1.386 . S
C3129 C3133 1.393 . S
C3130 H3122 0.950 . S
C3130 C3128 1.391 . S
C3130 C3131 1.400 . S
C3131 C3130 1.400 . S
C3131 C3132 1.398 . S
C3131 C3137 1.491 . S
C3132 H3123 0.950 . S
C3132 C3131 1.398 . S
C3132 C3133 1.391 . S
C3133 H3121 0.950 . S
C3133 C3129 1.393 . S
C3133 C3132 1.391 . S
C3134 H3124 0.950 . S
C3134 C3135 1.386 . S
C3134 C3136 1.391 . S
C3135 C3134 1.386 . S
C3135 C3139 1.393 . S
C3136 H3125 0.950 . S
C3136 C3134 1.391 . S
C3136 C3137 1.400 . S
C3137 C3131 1.491 . S
C3137 C3136 1.400 . S
C3137 C3138 1.398 . S
C3138 H3126 0.950 . S
C3138 C3137 1.398 . S
C3138 C3139 1.391 . S
C3139 H3127 0.950 . S
C3139 C3135 1.393 . S
C3139 C3138 1.391 . S
H3140 C3148 0.950 . S
H3141 C3153 0.950 . S
H3142 C3150 0.950 . S
H3143 C3152 0.950 . S
H3144 C3154 0.950 . S
H3145 C3156 0.950 . S
H3146 C3158 0.950 . S
H3147 C3159 0.950 . S
C3148 H3140 0.950 . S
C3148 C3149 1.386 . S
C3148 C3150 1.391 . S
C3149 C3148 1.386 . S
C3149 C3153 1.393 . S
C3150 H3142 0.950 . S
C3150 C3148 1.391 . S
C3150 C3151 1.400 . S
C3151 C3150 1.400 . S
C3151 C3152 1.398 . S
C3151 C3157 1.491 . S
C3152 H3143 0.950 . S
C3152 C3151 1.398 . S
C3152 C3153 1.391 . S
C3153 H3141 0.950 . S
C3153 C3149 1.393 . S
C3153 C3152 1.391 . S
C3154 H3144 0.950 . S
C3154 C3155 1.386 . S
C3154 C3156 1.391 . S
C3155 C3154 1.386 . S
C3155 C3159 1.393 . S
C3156 H3145 0.950 . S
C3156 C3154 1.391 . S
C3156 C3157 1.400 . S
C3157 C3151 1.491 . S
C3157 C3156 1.400 . S
C3157 C3158 1.398 . S
C3158 H3146 0.950 . S
C3158 C3157 1.398 . S
C3158 C3159 1.391 . S
C3159 H3147 0.950 . S
C3159 C3155 1.393 . S
C3159 C3158 1.391 . S
H3160 C3168 0.950 . S
H3161 C3173 0.950 . S
H3162 C3170 0.950 . S
H3163 C3172 0.950 . S
H3164 C3174 0.950 . S
H3165 C3176 0.950 . S
H3166 C3178 0.950 . S
H3167 C3179 0.950 . S
C3168 H3160 0.950 . S
C3168 C3169 1.386 . S
C3168 C3170 1.391 . S
C3169 C3168 1.386 . S
C3169 C3173 1.393 . S
C3170 H3162 0.950 . S
C3170 C3168 1.391 . S
C3170 C3171 1.400 . S
C3171 C3170 1.400 . S
C3171 C3172 1.398 . S
C3171 C3177 1.491 . S
C3172 H3163 0.950 . S
C3172 C3171 1.398 . S
C3172 C3173 1.391 . S
C3173 H3161 0.950 . S
C3173 C3169 1.393 . S
C3173 C3172 1.391 . S
C3174 H3164 0.950 . S
C3174 C3175 1.386 . S
C3174 C3176 1.391 . S
C3175 C3174 1.386 . S
C3175 C3179 1.393 . S
C3176 H3165 0.950 . S
C3176 C3174 1.391 . S
C3176 C3177 1.400 . S
C3177 C3171 1.491 . S
C3177 C3176 1.400 . S
C3177 C3178 1.398 . S
C3178 H3166 0.950 . S
C3178 C3177 1.398 . S
C3178 C3179 1.391 . S
C3179 H3167 0.950 . S
C3179 C3175 1.393 . S
C3179 C3178 1.391 . S
H3180 C3188 0.950 . S
H3181 C3193 0.950 . S
H3182 C3190 0.950 . S
H3183 C3192 0.950 . S
H3184 C3194 0.950 . S
H3185 C3196 0.950 . S
H3186 C3198 0.950 . S
H3187 C3199 0.950 . S
C3188 H3180 0.950 . S
C3188 C3189 1.386 . S
C3188 C3190 1.391 . S
C3189 C3188 1.386 . S
C3189 C3193 1.393 . S
C3190 H3182 0.950 . S
C3190 C3188 1.391 . S
C3190 C3191 1.400 . S
C3191 C3190 1.400 . S
C3191 C3192 1.398 . S
C3191 C3197 1.491 . S
C3192 H3183 0.950 . S
C3192 C3191 1.398 . S
C3192 C3193 1.391 . S
C3193 H3181 0.950 . S
C3193 C3189 1.393 . S
C3193 C3192 1.391 . S
C3194 H3184 0.950 . S
C3194 C3195 1.386 . S
C3194 C3196 1.391 . S
C3195 C3194 1.386 . S
C3195 C3199 1.393 . S
C3196 H3185 0.950 . S
C3196 C3194 1.391 . S
C3196 C3197 1.400 . S
C3197 C3191 1.491 . S
C3197 C3196 1.400 . S
C3197 C3198 1.398 . S
C3198 H3186 0.950 . S
C3198 C3197 1.398 . S
C3198 C3199 1.391 . S
C3199 H3187 0.950 . S
C3199 C3195 1.393 . S
C3199 C3198 1.391 . S
H3200 C3208 0.950 . S
H3201 C3213 0.950 . S
H3202 C3210 0.950 . S
H3203 C3212 0.950 . S
H3204 C3214 0.950 . S
H3205 C3216 0.950 . S
H3206 C3218 0.950 . S
H3207 C3219 0.950 . S
C3208 H3200 0.950 . S
C3208 C3209 1.386 . S
C3208 C3210 1.391 . S
C3209 C3208 1.386 . S
C3209 C3213 1.393 . S
C3210 H3202 0.950 . S
C3210 C3208 1.391 . S
C3210 C3211 1.400 . S
C3211 C3210 1.400 . S
C3211 C3212 1.398 . S
C3211 C3217 1.491 . S
C3212 H3203 0.950 . S
C3212 C3211 1.398 . S
C3212 C3213 1.391 . S
C3213 H3201 0.950 . S
C3213 C3209 1.393 . S
C3213 C3212 1.391 . S
C3214 H3204 0.950 . S
C3214 C3215 1.386 . S
C3214 C3216 1.391 . S
C3215 C3214 1.386 . S
C3215 C3219 1.393 . S
C3216 H3205 0.950 . S
C3216 C3214 1.391 . S
C3216 C3217 1.400 . S
C3217 C3211 1.491 . S
C3217 C3216 1.400 . S
C3217 C3218 1.398 . S
C3218 H3206 0.950 . S
C3218 C3217 1.398 . S
C3218 C3219 1.391 . S
C3219 H3207 0.950 . S
C3219 C3215 1.393 . S
C3219 C3218 1.391 . S
H3220 C3228 0.950 . S
H3221 C3233 0.950 . S
H3222 C3230 0.950 . S
H3223 C3232 0.950 . S
H3224 C3234 0.950 . S
H3225 C3236 0.950 . S
H3226 C3238 0.950 . S
H3227 C3239 0.950 . S
C3228 H3220 0.950 . S
C3228 C3229 1.386 . S
C3228 C3230 1.391 . S
C3229 C3228 1.386 . S
C3229 C3233 1.393 . S
C3230 H3222 0.950 . S
C3230 C3228 1.391 . S
C3230 C3231 1.400 . S
C3231 C3230 1.400 . S
C3231 C3232 1.398 . S
C3231 C3237 1.491 . S
C3232 H3223 0.950 . S
C3232 C3231 1.398 . S
C3232 C3233 1.391 . S
C3233 H3221 0.950 . S
C3233 C3229 1.393 . S
C3233 C3232 1.391 . S
C3234 H3224 0.950 . S
C3234 C3235 1.386 . S
C3234 C3236 1.391 . S
C3235 C3234 1.386 . S
C3235 C3239 1.393 . S
C3236 H3225 0.950 . S
C3236 C3234 1.391 . S
C3236 C3237 1.400 . S
C3237 C3231 1.491 . S
C3237 C3236 1.400 . S
C3237 C3238 1.398 . S
C3238 H3226 0.950 . S
C3238 C3237 1.398 . S
C3238 C3239 1.391 . S
C3239 H3227 0.950 . S
C3239 C3235 1.393 . S
C3239 C3238 1.391 . S
H3240 C3248 0.950 . S
H3241 C3253 0.950 . S
H3242 C3250 0.950 . S
H3243 C3252 0.950 . S
H3244 C3254 0.950 . S
H3245 C3256 0.950 . S
H3246 C3258 0.950 . S
H3247 C3259 0.950 . S
C3248 H3240 0.950 . S
C3248 C3249 1.386 . S
C3248 C3250 1.391 . S
C3249 C3248 1.386 . S
C3249 C3253 1.393 . S
C3250 H3242 0.950 . S
C3250 C3248 1.391 . S
C3250 C3251 1.400 . S
C3251 C3250 1.400 . S
C3251 C3252 1.398 . S
C3251 C3257 1.491 . S
C3252 H3243 0.950 . S
C3252 C3251 1.398 . S
C3252 C3253 1.391 . S
C3253 H3241 0.950 . S
C3253 C3249 1.393 . S
C3253 C3252 1.391 . S
C3254 H3244 0.950 . S
C3254 C3255 1.386 . S
C3254 C3256 1.391 . S
C3255 C3254 1.386 . S
C3255 C3259 1.393 . S
C3256 H3245 0.950 . S
C3256 C3254 1.391 . S
C3256 C3257 1.400 . S
C3257 C3251 1.491 . S
C3257 C3256 1.400 . S
C3257 C3258 1.398 . S
C3258 H3246 0.950 . S
C3258 C3257 1.398 . S
C3258 C3259 1.391 . S
C3259 H3247 0.950 . S
C3259 C3255 1.393 . S
C3259 C3258 1.391 . S
H3260 C3268 0.950 . S
H3261 C3273 0.950 . S
H3262 C3270 0.950 . S
H3263 C3272 0.950 . S
H3264 C3274 0.950 . S
H3265 C3276 0.950 . S
H3266 C3278 0.950 . S
H3267 C3279 0.950 . S
C3268 H3260 0.950 . S
C3268 C3269 1.386 . S
C3268 C3270 1.391 . S
C3269 C3268 1.386 . S
C3269 C3273 1.393 . S
C3270 H3262 0.950 . S
C3270 C3268 1.391 . S
C3270 C3271 1.400 . S
C3271 C3270 1.400 . S
C3271 C3272 1.398 . S
C3271 C3277 1.491 . S
C3272 H3263 0.950 . S
C3272 C3271 1.398 . S
C3272 C3273 1.391 . S
C3273 H3261 0.950 . S
C3273 C3269 1.393 . S
C3273 C3272 1.391 . S
C3274 H3264 0.950 . S
C3274 C3275 1.386 . S
C3274 C3276 1.391 . S
C3275 C3274 1.386 . S
C3275 C3279 1.393 . S
C3276 H3265 0.950 . S
C3276 C3274 1.391 . S
C3276 C3277 1.400 . S
C3277 C3271 1.491 . S
C3277 C3276 1.400 . S
C3277 C3278 1.398 . S
C3278 H3266 0.950 . S
C3278 C3277 1.398 . S
C3278 C3279 1.391 . S
C3279 H3267 0.950 . S
C3279 C3275 1.393 . S
C3279 C3278 1.391 . S
H3280 C3288 0.950 . S
H3281 C3293 0.950 . S
H3282 C3290 0.950 . S
H3283 C3292 0.950 . S
H3284 C3294 0.950 . S
H3285 C3296 0.950 . S
H3286 C3298 0.950 . S
H3287 C3299 0.950 . S
C3288 H3280 0.950 . S
C3288 C3289 1.386 . S
C3288 C3290 1.391 . S
C3289 C3288 1.386 . S
C3289 C3293 1.393 . S
C3290 H3282 0.950 . S
C3290 C3288 1.391 . S
C3290 C3291 1.400 . S
C3291 C3290 1.400 . S
C3291 C3292 1.398 . S
C3291 C3297 1.491 . S
C3292 H3283 0.950 . S
C3292 C3291 1.398 . S
C3292 C3293 1.391 . S
C3293 H3281 0.950 . S
C3293 C3289 1.393 . S
C3293 C3292 1.391 . S
C3294 H3284 0.950 . S
C3294 C3295 1.386 . S
C3294 C3296 1.391 . S
C3295 C3294 1.386 . S
C3295 C3299 1.393 . S
C3296 H3285 0.950 . S
C3296 C3294 1.391 . S
C3296 C3297 1.400 . S
C3297 C3291 1.491 . S
C3297 C3296 1.400 . S
C3297 C3298 1.398 . S
C3298 H3286 0.950 . S
C3298 C3297 1.398 . S
C3298 C3299 1.391 . S
C3299 H3287 0.950 . S
C3299 C3295 1.393 . S
C3299 C3298 1.391 . S
H3300 C3308 0.950 . S
H3301 C3313 0.950 . S
H3302 C3310 0.950 . S
H3303 C3312 0.950 . S
H3304 C3314 0.950 . S
H3305 C3316 0.950 . S
H3306 C3318 0.950 . S
H3307 C3319 0.950 . S
C3308 H3300 0.950 . S
C3308 C3309 1.386 . S
C3308 C3310 1.391 . S
C3309 C3308 1.386 . S
C3309 C3313 1.393 . S
C3310 H3302 0.950 . S
C3310 C3308 1.391 . S
C3310 C3311 1.400 . S
C3311 C3310 1.400 . S
C3311 C3312 1.398 . S
C3311 C3317 1.491 . S
C3312 H3303 0.950 . S
C3312 C3311 1.398 . S
C3312 C3313 1.391 . S
C3313 H3301 0.950 . S
C3313 C3309 1.393 . S
C3313 C3312 1.391 . S
C3314 H3304 0.950 . S
C3314 C3315 1.386 . S
C3314 C3316 1.391 . S
C3315 C3314 1.386 . S
C3315 C3319 1.393 . S
C3316 H3305 0.950 . S
C3316 C3314 1.391 . S
C3316 C3317 1.400 . S
C3317 C3311 1.491 . S
C3317 C3316 1.400 . S
C3317 C3318 1.398 . S
C3318 H3306 0.950 . S
C3318 C3317 1.398 . S
C3318 C3319 1.391 . S
C3319 H3307 0.950 . S
C3319 C3315 1.393 . S
C3319 C3318 1.391 . S
H3320 C3328 0.950 . S
H3321 C3333 0.950 . S
H3322 C3330 0.950 . S
H3323 C3332 0.950 . S
H3324 C3334 0.950 . S
H3325 C3336 0.950 . S
H3326 C3338 0.950 . S
H3327 C3339 0.950 . S
C3328 H3320 0.950 . S
C3328 C3329 1.386 . S
C3328 C3330 1.391 . S
C3329 C3328 1.386 . S
C3329 C3333 1.393 . S
C3330 H3322 0.950 . S
C3330 C3328 1.391 . S
C3330 C3331 1.400 . S
C3331 C3330 1.400 . S
C3331 C3332 1.398 . S
C3331 C3337 1.491 . S
C3332 H3323 0.950 . S
C3332 C3331 1.398 . S
C3332 C3333 1.391 . S
C3333 H3321 0.950 . S
C3333 C3329 1.393 . S
C3333 C3332 1.391 . S
C3334 H3324 0.950 . S
C3334 C3335 1.386 . S
C3334 C3336 1.391 . S
C3335 C3334 1.386 . S
C3335 C3339 1.393 . S
C3336 H3325 0.950 . S
C3336 C3334 1.391 . S
C3336 C3337 1.400 . S
C3337 C3331 1.491 . S
C3337 C3336 1.400 . S
C3337 C3338 1.398 . S
C3338 H3326 0.950 . S
C3338 C3337 1.398 . S
C3338 C3339 1.391 . S
C3339 H3327 0.950 . S
C3339 C3335 1.393 . S
C3339 C3338 1.391 . S
H3340 C3348 0.950 . S
H3341 C3353 0.950 . S
H3342 C3350 0.950 . S
H3343 C3352 0.950 . S
H3344 C3354 0.950 . S
H3345 C3356 0.950 . S
H3346 C3358 0.950 . S
H3347 C3359 0.950 . S
C3348 H3340 0.950 . S
C3348 C3349 1.386 . S
C3348 C3350 1.391 . S
C3349 C3348 1.386 . S
C3349 C3353 1.393 . S
C3350 H3342 0.950 . S
C3350 C3348 1.391 . S
C3350 C3351 1.400 . S
C3351 C3350 1.400 . S
C3351 C3352 1.398 . S
C3351 C3357 1.491 . S
C3352 H3343 0.950 . S
C3352 C3351 1.398 . S
C3352 C3353 1.391 . S
C3353 H3341 0.950 . S
C3353 C3349 1.393 . S
C3353 C3352 1.391 . S
C3354 H3344 0.950 . S
C3354 C3355 1.386 . S
C3354 C3356 1.391 . S
C3355 C3354 1.386 . S
C3355 C3359 1.393 . S
C3356 H3345 0.950 . S
C3356 C3354 1.391 . S
C3356 C3357 1.400 . S
C3357 C3351 1.491 . S
C3357 C3356 1.400 . S
C3357 C3358 1.398 . S
C3358 H3346 0.950 . S
C3358 C3357 1.398 . S
C3358 C3359 1.391 . S
C3359 H3347 0.950 . S
C3359 C3355 1.393 . S
C3359 C3358 1.391 . S
H3360 C3368 0.950 . S
H3361 C3373 0.950 . S
H3362 C3370 0.950 . S
H3363 C3372 0.950 . S
H3364 C3374 0.950 . S
H3365 C3376 0.950 . S
H3366 C3378 0.950 . S
H3367 C3379 0.950 . S
C3368 H3360 0.950 . S
C3368 C3369 1.386 . S
C3368 C3370 1.391 . S
C3369 C3368 1.386 . S
C3369 C3373 1.393 . S
C3370 H3362 0.950 . S
C3370 C3368 1.391 . S
C3370 C3371 1.400 . S
C3371 C3370 1.400 . S
C3371 C3372 1.398 . S
C3371 C3377 1.491 . S
C3372 H3363 0.950 . S
C3372 C3371 1.398 . S
C3372 C3373 1.391 . S
C3373 H3361 0.950 . S
C3373 C3369 1.393 . S
C3373 C3372 1.391 . S
C3374 H3364 0.950 . S
C3374 C3375 1.386 . S
C3374 C3376 1.391 . S
C3375 C3374 1.386 . S
C3375 C3379 1.393 . S
C3376 H3365 0.950 . S
C3376 C3374 1.391 . S
C3376 C3377 1.400 . S
C3377 C3371 1.491 . S
C3377 C3376 1.400 . S
C3377 C3378 1.398 . S
C3378 H3366 0.950 . S
C3378 C3377 1.398 . S
C3378 C3379 1.391 . S
C3379 H3367 0.950 . S
C3379 C3375 1.393 . S
C3379 C3378 1.391 . S
H3380 C3388 0.950 . S
H3381 C3393 0.950 . S
H3382 C3390 0.950 . S
H3383 C3392 0.950 . S
H3384 C3394 0.950 . S
H3385 C3396 0.950 . S
H3386 C3398 0.950 . S
H3387 C3399 0.950 . S
C3388 H3380 0.950 . S
C3388 C3389 1.386 . S
C3388 C3390 1.391 . S
C3389 C3388 1.386 . S
C3389 C3393 1.393 . S
C3390 H3382 0.950 . S
C3390 C3388 1.391 . S
C3390 C3391 1.400 . S
C3391 C3390 1.400 . S
C3391 C3392 1.398 . S
C3391 C3397 1.491 . S
C3392 H3383 0.950 . S
C3392 C3391 1.398 . S
C3392 C3393 1.391 . S
C3393 H3381 0.950 . S
C3393 C3389 1.393 . S
C3393 C3392 1.391 . S
C3394 H3384 0.950 . S
C3394 C3395 1.386 . S
C3394 C3396 1.391 . S
C3395 C3394 1.386 . S
C3395 C3399 1.393 . S
C3396 H3385 0.950 . S
C3396 C3394 1.391 . S
C3396 C3397 1.400 . S
C3397 C3391 1.491 . S
C3397 C3396 1.400 . S
C3397 C3398 1.398 . S
C3398 H3386 0.950 . S
C3398 C3397 1.398 . S
C3398 C3399 1.391 . S
C3399 H3387 0.950 . S
C3399 C3395 1.393 . S
C3399 C3398 1.391 . S
H3400 C3408 0.950 . S
H3401 C3413 0.950 . S
H3402 C3410 0.950 . S
H3403 C3412 0.950 . S
H3404 C3414 0.950 . S
H3405 C3416 0.950 . S
H3406 C3418 0.950 . S
H3407 C3419 0.950 . S
C3408 H3400 0.950 . S
C3408 C3409 1.386 . S
C3408 C3410 1.391 . S
C3409 C3408 1.386 . S
C3409 C3413 1.393 . S
C3410 H3402 0.950 . S
C3410 C3408 1.391 . S
C3410 C3411 1.400 . S
C3411 C3410 1.400 . S
C3411 C3412 1.398 . S
C3411 C3417 1.491 . S
C3412 H3403 0.950 . S
C3412 C3411 1.398 . S
C3412 C3413 1.391 . S
C3413 H3401 0.950 . S
C3413 C3409 1.393 . S
C3413 C3412 1.391 . S
C3414 H3404 0.950 . S
C3414 C3415 1.386 . S
C3414 C3416 1.391 . S
C3415 C3414 1.386 . S
C3415 C3419 1.393 . S
C3416 H3405 0.950 . S
C3416 C3414 1.391 . S
C3416 C3417 1.400 . S
C3417 C3411 1.491 . S
C3417 C3416 1.400 . S
C3417 C3418 1.398 . S
C3418 H3406 0.950 . S
C3418 C3417 1.398 . S
C3418 C3419 1.391 . S
C3419 H3407 0.950 . S
C3419 C3415 1.393 . S
C3419 C3418 1.391 . S
H3420 C3428 0.950 . S
H3421 C3433 0.950 . S
H3422 C3430 0.950 . S
H3423 C3432 0.950 . S
H3424 C3434 0.950 . S
H3425 C3436 0.950 . S
H3426 C3438 0.950 . S
H3427 C3439 0.950 . S
C3428 H3420 0.950 . S
C3428 C3429 1.386 . S
C3428 C3430 1.391 . S
C3429 C3428 1.386 . S
C3429 C3433 1.393 . S
C3430 H3422 0.950 . S
C3430 C3428 1.391 . S
C3430 C3431 1.400 . S
C3431 C3430 1.400 . S
C3431 C3432 1.398 . S
C3431 C3437 1.491 . S
C3432 H3423 0.950 . S
C3432 C3431 1.398 . S
C3432 C3433 1.391 . S
C3433 H3421 0.950 . S
C3433 C3429 1.393 . S
C3433 C3432 1.391 . S
C3434 H3424 0.950 . S
C3434 C3435 1.386 . S
C3434 C3436 1.391 . S
C3435 C3434 1.386 . S
C3435 C3439 1.393 . S
C3436 H3425 0.950 . S
C3436 C3434 1.391 . S
C3436 C3437 1.400 . S
C3437 C3431 1.491 . S
C3437 C3436 1.400 . S
C3437 C3438 1.398 . S
C3438 H3426 0.950 . S
C3438 C3437 1.398 . S
C3438 C3439 1.391 . S
C3439 H3427 0.950 . S
C3439 C3435 1.393 . S
C3439 C3438 1.391 . S
H3440 C3448 0.950 . S
H3441 C3453 0.950 . S
H3442 C3450 0.950 . S
H3443 C3452 0.950 . S
H3444 C3454 0.950 . S
H3445 C3456 0.950 . S
H3446 C3458 0.950 . S
H3447 C3459 0.950 . S
C3448 H3440 0.950 . S
C3448 C3449 1.386 . S
C3448 C3450 1.391 . S
C3449 C3448 1.386 . S
C3449 C3453 1.393 . S
C3450 H3442 0.950 . S
C3450 C3448 1.391 . S
C3450 C3451 1.400 . S
C3451 C3450 1.400 . S
C3451 C3452 1.398 . S
C3451 C3457 1.491 . S
C3452 H3443 0.950 . S
C3452 C3451 1.398 . S
C3452 C3453 1.391 . S
C3453 H3441 0.950 . S
C3453 C3449 1.393 . S
C3453 C3452 1.391 . S
C3454 H3444 0.950 . S
C3454 C3455 1.386 . S
C3454 C3456 1.391 . S
C3455 C3454 1.386 . S
C3455 C3459 1.393 . S
C3456 H3445 0.950 . S
C3456 C3454 1.391 . S
C3456 C3457 1.400 . S
C3457 C3451 1.491 . S
C3457 C3456 1.400 . S
C3457 C3458 1.398 . S
C3458 H3446 0.950 . S
C3458 C3457 1.398 . S
C3458 C3459 1.391 . S
C3459 H3447 0.950 . S
C3459 C3455 1.393 . S
C3459 C3458 1.391 . S
H3460 C3468 0.980 . S
H3461 C3473 0.950 . S
H3462 C3470 0.950 . S
H3463 C3472 0.950 . S
H3464 C3474 0.950 . S
H3465 C3476 0.950 . S
H3466 C3478 0.950 . S
H3467 C3479 0.950 . S
C3468 H3460 0.980 . S
C3468 C3469 1.386 . S
C3468 C3470 1.391 . S
C3469 C3468 1.386 . S
C3469 C3473 1.393 . S
C3470 H3462 0.950 . S
C3470 C3468 1.391 . S
C3470 C3471 1.400 . S
C3471 C3470 1.400 . S
C3471 C3472 1.398 . S
C3471 C3477 1.491 . S
C3472 H3463 0.950 . S
C3472 C3471 1.398 . S
C3472 C3473 1.391 . S
C3473 H3461 0.950 . S
C3473 C3469 1.393 . S
C3473 C3472 1.391 . S
C3474 H3464 0.950 . S
C3474 C3475 1.386 . S
C3474 C3476 1.391 . S
C3475 C3474 1.386 . S
C3475 C3479 1.393 . S
C3476 H3465 0.950 . S
C3476 C3474 1.391 . S
C3476 C3477 1.400 . S
C3477 C3471 1.491 . S
C3477 C3476 1.400 . S
C3477 C3478 1.398 . S
C3478 H3466 0.950 . S
C3478 C3477 1.398 . S
C3478 C3479 1.391 . S
C3479 H3467 0.950 . S
C3479 C3475 1.393 . S
C3479 C3478 1.391 . S
H3480 C3488 0.950 . S
H3481 C3493 0.950 . S
H3482 C3490 0.950 . S
H3483 C3492 0.950 . S
H3484 C3494 0.950 . S
H3485 C3496 0.950 . S
H3486 C3498 0.950 . S
H3487 C3499 0.950 . S
C3488 H3480 0.950 . S
C3488 C3489 1.386 . S
C3488 C3490 1.391 . S
C3489 C3488 1.386 . S
C3489 C3493 1.393 . S
C3490 H3482 0.950 . S
C3490 C3488 1.391 . S
C3490 C3491 1.400 . S
C3491 C3490 1.400 . S
C3491 C3492 1.398 . S
C3491 C3497 1.491 . S
C3492 H3483 0.950 . S
C3492 C3491 1.398 . S
C3492 C3493 1.391 . S
C3493 H3481 0.950 . S
C3493 C3489 1.393 . S
C3493 C3492 1.391 . S
C3494 H3484 0.950 . S
C3494 C3495 1.386 . S
C3494 C3496 1.391 . S
C3495 C3494 1.386 . S
C3495 C3499 1.393 . S
C3496 H3485 0.950 . S
C3496 C3494 1.391 . S
C3496 C3497 1.400 . S
C3497 C3491 1.491 . S
C3497 C3496 1.400 . S
C3497 C3498 1.398 . S
C3498 H3486 0.950 . S
C3498 C3497 1.398 . S
C3498 C3499 1.391 . S
C3499 H3487 0.950 . S
C3499 C3495 1.393 . S
C3499 C3498 1.391 . S
H3500 C3508 0.950 . S
H3501 C3513 0.950 . S
H3502 C3510 0.950 . S
H3503 C3512 0.950 . S
H3504 C3514 0.950 . S
H3505 C3516 0.950 . S
H3506 C3518 0.950 . S
H3507 C3519 0.950 . S
C3508 H3500 0.950 . S
C3508 C3509 1.386 . S
C3508 C3510 1.391 . S
C3509 C3508 1.386 . S
C3509 C3513 1.393 . S
C3510 H3502 0.950 . S
C3510 C3508 1.391 . S
C3510 C3511 1.400 . S
C3511 C3510 1.400 . S
C3511 C3512 1.398 . S
C3511 C3517 1.491 . S
C3512 H3503 0.950 . S
C3512 C3511 1.398 . S
C3512 C3513 1.391 . S
C3513 H3501 0.950 . S
C3513 C3509 1.393 . S
C3513 C3512 1.391 . S
C3514 H3504 0.950 . S
C3514 C3515 1.386 . S
C3514 C3516 1.391 . S
C3515 C3514 1.386 . S
C3515 C3519 1.393 . S
C3516 H3505 0.950 . S
C3516 C3514 1.391 . S
C3516 C3517 1.400 . S
C3517 C3511 1.491 . S
C3517 C3516 1.400 . S
C3517 C3518 1.398 . S
C3518 H3506 0.950 . S
C3518 C3517 1.398 . S
C3518 C3519 1.391 . S
C3519 H3507 0.950 . S
C3519 C3515 1.393 . S
C3519 C3518 1.391 . S
H3520 C3528 0.950 . S
H3521 C3533 0.950 . S
H3522 C3530 0.950 . S
H3523 C3532 0.950 . S
H3524 C3534 0.950 . S
H3525 C3536 0.950 . S
H3526 C3538 0.950 . S
H3527 C3539 0.950 . S
C3528 H3520 0.950 . S
C3528 C3529 1.386 . S
C3528 C3530 1.391 . S
C3529 C3528 1.386 . S
C3529 C3533 1.393 . S
C3530 H3522 0.950 . S
C3530 C3528 1.391 . S
C3530 C3531 1.400 . S
C3531 C3530 1.400 . S
C3531 C3532 1.398 . S
C3531 C3537 1.491 . S
C3532 H3523 0.950 . S
C3532 C3531 1.398 . S
C3532 C3533 1.391 . S
C3533 H3521 0.950 . S
C3533 C3529 1.393 . S
C3533 C3532 1.391 . S
C3534 H3524 0.950 . S
C3534 C3535 1.386 . S
C3534 C3536 1.391 . S
C3535 C3534 1.386 . S
C3535 C3539 1.393 . S
C3536 H3525 0.950 . S
C3536 C3534 1.391 . S
C3536 C3537 1.400 . S
C3537 C3531 1.491 . S
C3537 C3536 1.400 . S
C3537 C3538 1.398 . S
C3538 H3526 0.950 . S
C3538 C3537 1.398 . S
C3538 C3539 1.391 . S
C3539 H3527 0.950 . S
C3539 C3535 1.393 . S
C3539 C3538 1.391 . S
H3540 C3548 0.950 . S
H3541 C3553 0.950 . S
H3542 C3550 0.950 . S
H3543 C3552 0.950 . S
H3544 C3554 0.950 . S
H3545 C3556 0.950 . S
H3546 C3558 0.950 . S
H3547 C3559 0.950 . S
C3548 H3540 0.950 . S
C3548 C3549 1.386 . S
C3548 C3550 1.391 . S
C3549 C3548 1.386 . S
C3549 C3553 1.393 . S
C3550 H3542 0.950 . S
C3550 C3548 1.391 . S
C3550 C3551 1.400 . S
C3551 C3550 1.400 . S
C3551 C3552 1.398 . S
C3551 C3557 1.491 . S
C3552 H3543 0.950 . S
C3552 C3551 1.398 . S
C3552 C3553 1.391 . S
C3553 H3541 0.950 . S
C3553 C3549 1.393 . S
C3553 C3552 1.391 . S
C3554 H3544 0.950 . S
C3554 C3555 1.386 . S
C3554 C3556 1.391 . S
C3555 C3554 1.386 . S
C3555 C3559 1.393 . S
C3556 H3545 0.950 . S
C3556 C3554 1.391 . S
C3556 C3557 1.400 . S
C3557 C3551 1.491 . S
C3557 C3556 1.400 . S
C3557 C3558 1.398 . S
C3558 H3546 0.950 . S
C3558 C3557 1.398 . S
C3558 C3559 1.391 . S
C3559 H3547 0.950 . S
C3559 C3555 1.393 . S
C3559 C3558 1.391 . S
H3560 C3568 0.950 . S
H3561 C3573 0.950 . S
H3562 C3570 0.950 . S
H3563 C3572 0.950 . S
H3564 C3574 0.950 . S
H3565 C3576 0.950 . S
H3566 C3578 0.950 . S
H3567 C3579 0.950 . S
C3568 H3560 0.950 . S
C3568 C3569 1.386 . S
C3568 C3570 1.391 . S
C3569 C3568 1.386 . S
C3569 C3573 1.393 . S
C3570 H3562 0.950 . S
C3570 C3568 1.391 . S
C3570 C3571 1.400 . S
C3571 C3570 1.400 . S
C3571 C3572 1.398 . S
C3571 C3577 1.491 . S
C3572 H3563 0.950 . S
C3572 C3571 1.398 . S
C3572 C3573 1.391 . S
C3573 H3561 0.950 . S
C3573 C3569 1.393 . S
C3573 C3572 1.391 . S
C3574 H3564 0.950 . S
C3574 C3575 1.386 . S
C3574 C3576 1.391 . S
C3575 C3574 1.386 . S
C3575 C3579 1.393 . S
C3576 H3565 0.950 . S
C3576 C3574 1.391 . S
C3576 C3577 1.400 . S
C3577 C3571 1.491 . S
C3577 C3576 1.400 . S
C3577 C3578 1.398 . S
C3578 H3566 0.950 . S
C3578 C3577 1.398 . S
C3578 C3579 1.391 . S
C3579 H3567 0.950 . S
C3579 C3575 1.393 . S
C3579 C3578 1.391 . S
H3580 C3588 0.950 . S
H3581 C3593 0.950 . S
H3582 C3590 0.950 . S
H3583 C3592 0.950 . S
H3584 C3594 0.950 . S
H3585 C3596 0.950 . S
H3586 C3598 0.950 . S
H3587 C3599 0.950 . S
C3588 H3580 0.950 . S
C3588 C3589 1.386 . S
C3588 C3590 1.391 . S
C3589 C3588 1.386 . S
C3589 C3593 1.393 . S
C3590 H3582 0.950 . S
C3590 C3588 1.391 . S
C3590 C3591 1.400 . S
C3591 C3590 1.400 . S
C3591 C3592 1.398 . S
C3591 C3597 1.491 . S
C3592 H3583 0.950 . S
C3592 C3591 1.398 . S
C3592 C3593 1.391 . S
C3593 H3581 0.950 . S
C3593 C3589 1.393 . S
C3593 C3592 1.391 . S
C3594 H3584 0.950 . S
C3594 C3595 1.386 . S
C3594 C3596 1.391 . S
C3595 C3594 1.386 . S
C3595 C3599 1.393 . S
C3596 H3585 0.950 . S
C3596 C3594 1.391 . S
C3596 C3597 1.400 . S
C3597 C3591 1.491 . S
C3597 C3596 1.400 . S
C3597 C3598 1.398 . S
C3598 H3586 0.950 . S
C3598 C3597 1.398 . S
C3598 C3599 1.391 . S
C3599 H3587 0.950 . S
C3599 C3595 1.393 . S
C3599 C3598 1.391 . S
H3600 C3608 0.950 . S
H3601 C3613 0.950 . S
H3602 C3610 0.950 . S
H3603 C3612 0.950 . S
H3604 C3614 0.950 . S
H3605 C3616 0.950 . S
H3606 C3618 0.950 . S
H3607 C3619 0.950 . S
C3608 H3600 0.950 . S
C3608 C3609 1.386 . S
C3608 C3610 1.391 . S
C3609 C3608 1.386 . S
C3609 C3613 1.393 . S
C3610 H3602 0.950 . S
C3610 C3608 1.391 . S
C3610 C3611 1.400 . S
C3611 C3610 1.400 . S
C3611 C3612 1.398 . S
C3611 C3617 1.491 . S
C3612 H3603 0.950 . S
C3612 C3611 1.398 . S
C3612 C3613 1.391 . S
C3613 H3601 0.950 . S
C3613 C3609 1.393 . S
C3613 C3612 1.391 . S
C3614 H3604 0.950 . S
C3614 C3615 1.386 . S
C3614 C3616 1.391 . S
C3615 C3614 1.386 . S
C3615 C3619 1.393 . S
C3616 H3605 0.950 . S
C3616 C3614 1.391 . S
C3616 C3617 1.400 . S
C3617 C3611 1.491 . S
C3617 C3616 1.400 . S
C3617 C3618 1.398 . S
C3618 H3606 0.950 . S
C3618 C3617 1.398 . S
C3618 C3619 1.391 . S
C3619 H3607 0.950 . S
C3619 C3615 1.393 . S
C3619 C3618 1.391 . S
H3620 C3628 0.950 . S
H3621 C3633 0.950 . S
H3622 C3630 0.950 . S
H3623 C3632 0.950 . S
H3624 C3634 0.950 . S
H3625 C3636 0.950 . S
H3626 C3638 0.950 . S
H3627 C3639 0.950 . S
C3628 H3620 0.950 . S
C3628 C3629 1.386 . S
C3628 C3630 1.391 . S
C3629 C3628 1.386 . S
C3629 C3633 1.393 . S
C3630 H3622 0.950 . S
C3630 C3628 1.391 . S
C3630 C3631 1.400 . S
C3631 C3630 1.400 . S
C3631 C3632 1.398 . S
C3631 C3637 1.491 . S
C3632 H3623 0.950 . S
C3632 C3631 1.398 . S
C3632 C3633 1.391 . S
C3633 H3621 0.950 . S
C3633 C3629 1.393 . S
C3633 C3632 1.391 . S
C3634 H3624 0.950 . S
C3634 C3635 1.386 . S
C3634 C3636 1.391 . S
C3635 C3634 1.386 . S
C3635 C3639 1.393 . S
C3636 H3625 0.950 . S
C3636 C3634 1.391 . S
C3636 C3637 1.400 . S
C3637 C3631 1.491 . S
C3637 C3636 1.400 . S
C3637 C3638 1.398 . S
C3638 H3626 0.950 . S
C3638 C3637 1.398 . S
C3638 C3639 1.391 . S
C3639 H3627 0.950 . S
C3639 C3635 1.393 . S
C3639 C3638 1.391 . S
H3640 C3648 0.950 . S
H3641 C3653 0.950 . S
H3642 C3650 0.950 . S
H3643 C3652 0.950 . S
H3644 C3654 0.950 . S
H3645 C3656 0.950 . S
H3646 C3658 0.950 . S
H3647 C3659 0.950 . S
C3648 H3640 0.950 . S
C3648 C3649 1.386 . S
C3648 C3650 1.391 . S
C3649 C3648 1.386 . S
C3649 C3653 1.393 . S
C3650 H3642 0.950 . S
C3650 C3648 1.391 . S
C3650 C3651 1.400 . S
C3651 C3650 1.400 . S
C3651 C3652 1.398 . S
C3651 C3657 1.491 . S
C3652 H3643 0.950 . S
C3652 C3651 1.398 . S
C3652 C3653 1.391 . S
C3653 H3641 0.950 . S
C3653 C3649 1.393 . S
C3653 C3652 1.391 . S
C3654 H3644 0.950 . S
C3654 C3655 1.386 . S
C3654 C3656 1.391 . S
C3655 C3654 1.386 . S
C3655 C3659 1.393 . S
C3656 H3645 0.950 . S
C3656 C3654 1.391 . S
C3656 C3657 1.400 . S
C3657 C3651 1.491 . S
C3657 C3656 1.400 . S
C3657 C3658 1.398 . S
C3658 H3646 0.950 . S
C3658 C3657 1.398 . S
C3658 C3659 1.391 . S
C3659 H3647 0.950 . S
C3659 C3655 1.393 . S
C3659 C3658 1.391 . S
H3660 C3668 0.950 . S
H3661 C3673 0.950 . S
H3662 C3670 0.950 . S
H3663 C3672 0.950 . S
H3664 C3674 0.950 . S
H3665 C3676 0.950 . S
H3666 C3678 0.950 . S
H3667 C3679 0.950 . S
C3668 H3660 0.950 . S
C3668 C3669 1.386 . S
C3668 C3670 1.391 . S
C3669 C3668 1.386 . S
C3669 C3673 1.393 . S
C3670 H3662 0.950 . S
C3670 C3668 1.391 . S
C3670 C3671 1.400 . S
C3671 C3670 1.400 . S
C3671 C3672 1.398 . S
C3671 C3677 1.491 . S
C3672 H3663 0.950 . S
C3672 C3671 1.398 . S
C3672 C3673 1.391 . S
C3673 H3661 0.950 . S
C3673 C3669 1.393 . S
C3673 C3672 1.391 . S
C3674 H3664 0.950 . S
C3674 C3675 1.386 . S
C3674 C3676 1.391 . S
C3675 C3674 1.386 . S
C3675 C3679 1.393 . S
C3676 H3665 0.950 . S
C3676 C3674 1.391 . S
C3676 C3677 1.400 . S
C3677 C3671 1.491 . S
C3677 C3676 1.400 . S
C3677 C3678 1.398 . S
C3678 H3666 0.950 . S
C3678 C3677 1.398 . S
C3678 C3679 1.391 . S
C3679 H3667 0.950 . S
C3679 C3675 1.393 . S
C3679 C3678 1.391 . S
H3680 C3688 0.950 . S
H3681 C3693 0.950 . S
H3682 C3690 0.950 . S
H3683 C3692 0.950 . S
H3684 C3694 0.950 . S
H3685 C3696 0.950 . S
H3686 C3698 0.950 . S
H3687 C3699 0.950 . S
C3688 H3680 0.950 . S
C3688 C3689 1.386 . S
C3688 C3690 1.391 . S
C3689 C3688 1.386 . S
C3689 C3693 1.393 . S
C3690 H3682 0.950 . S
C3690 C3688 1.391 . S
C3690 C3691 1.400 . S
C3691 C3690 1.400 . S
C3691 C3692 1.398 . S
C3691 C3697 1.491 . S
C3692 H3683 0.950 . S
C3692 C3691 1.398 . S
C3692 C3693 1.391 . S
C3693 H3681 0.950 . S
C3693 C3689 1.393 . S
C3693 C3692 1.391 . S
C3694 H3684 0.950 . S
C3694 C3695 1.386 . S
C3694 C3696 1.391 . S
C3695 C3694 1.386 . S
C3695 C3699 1.393 . S
C3696 H3685 0.950 . S
C3696 C3694 1.391 . S
C3696 C3697 1.400 . S
C3697 C3691 1.491 . S
C3697 C3696 1.400 . S
C3697 C3698 1.398 . S
C3698 H3686 0.950 . S
C3698 C3697 1.398 . S
C3698 C3699 1.391 . S
C3699 H3687 0.950 . S
C3699 C3695 1.393 . S
C3699 C3698 1.391 . S
H3700 C3708 0.950 . S
H3701 C3713 0.950 . S
H3702 C3710 0.950 . S
H3703 C3712 0.950 . S
H3704 C3714 0.950 . S
H3705 C3716 0.950 . S
H3706 C3718 0.950 . S
H3707 C3719 0.950 . S
C3708 H3700 0.950 . S
C3708 C3709 1.386 . S
C3708 C3710 1.391 . S
C3709 C3708 1.386 . S
C3709 C3713 1.393 . S
C3710 H3702 0.950 . S
C3710 C3708 1.391 . S
C3710 C3711 1.400 . S
C3711 C3710 1.400 . S
C3711 C3712 1.398 . S
C3711 C3717 1.491 . S
C3712 H3703 0.950 . S
C3712 C3711 1.398 . S
C3712 C3713 1.391 . S
C3713 H3701 0.950 . S
C3713 C3709 1.393 . S
C3713 C3712 1.391 . S
C3714 H3704 0.950 . S
C3714 C3715 1.386 . S
C3714 C3716 1.391 . S
C3715 C3714 1.386 . S
C3715 C3719 1.393 . S
C3716 H3705 0.950 . S
C3716 C3714 1.391 . S
C3716 C3717 1.400 . S
C3717 C3711 1.491 . S
C3717 C3716 1.400 . S
C3717 C3718 1.398 . S
C3718 H3706 0.950 . S
C3718 C3717 1.398 . S
C3718 C3719 1.391 . S
C3719 H3707 0.950 . S
C3719 C3715 1.393 . S
C3719 C3718 1.391 . S
H3720 C3728 0.950 . S
H3721 C3733 0.950 . S
H3722 C3730 0.950 . S
H3723 C3732 0.950 . S
H3724 C3734 0.950 . S
H3725 C3736 0.950 . S
H3726 C3738 0.950 . S
H3727 C3739 0.950 . S
C3728 H3720 0.950 . S
C3728 C3729 1.386 . S
C3728 C3730 1.391 . S
C3729 C3728 1.386 . S
C3729 C3733 1.393 . S
C3730 H3722 0.950 . S
C3730 C3728 1.391 . S
C3730 C3731 1.400 . S
C3731 C3730 1.400 . S
C3731 C3732 1.398 . S
C3731 C3737 1.491 . S
C3732 H3723 0.950 . S
C3732 C3731 1.398 . S
C3732 C3733 1.391 . S
C3733 H3721 0.950 . S
C3733 C3729 1.393 . S
C3733 C3732 1.391 . S
C3734 H3724 0.950 . S
C3734 C3735 1.386 . S
C3734 C3736 1.391 . S
C3735 C3734 1.386 . S
C3735 C3739 1.393 . S
C3736 H3725 0.950 . S
C3736 C3734 1.391 . S
C3736 C3737 1.400 . S
C3737 C3731 1.491 . S
C3737 C3736 1.400 . S
C3737 C3738 1.398 . S
C3738 H3726 0.950 . S
C3738 C3737 1.398 . S
C3738 C3739 1.391 . S
C3739 H3727 0.950 . S
C3739 C3735 1.393 . S
C3739 C3738 1.391 . S
H3740 C3748 0.950 . S
H3741 C3753 0.950 . S
H3742 C3750 0.950 . S
H3743 C3752 0.950 . S
H3744 C3754 0.950 . S
H3745 C3756 0.950 . S
H3746 C3758 0.950 . S
H3747 C3759 0.950 . S
C3748 H3740 0.950 . S
C3748 C3749 1.386 . S
C3748 C3750 1.391 . S
C3749 C3748 1.386 . S
C3749 C3753 1.393 . S
C3750 H3742 0.950 . S
C3750 C3748 1.391 . S
C3750 C3751 1.400 . S
C3751 C3750 1.400 . S
C3751 C3752 1.398 . S
C3751 C3757 1.491 . S
C3752 H3743 0.950 . S
C3752 C3751 1.398 . S
C3752 C3753 1.391 . S
C3753 H3741 0.950 . S
C3753 C3749 1.393 . S
C3753 C3752 1.391 . S
C3754 H3744 0.950 . S
C3754 C3755 1.386 . S
C3754 C3756 1.391 . S
C3755 C3754 1.386 . S
C3755 C3759 1.393 . S
C3756 H3745 0.950 . S
C3756 C3754 1.391 . S
C3756 C3757 1.400 . S
C3757 C3751 1.491 . S
C3757 C3756 1.400 . S
C3757 C3758 1.398 . S
C3758 H3746 0.950 . S
C3758 C3757 1.398 . S
C3758 C3759 1.391 . S
C3759 H3747 0.950 . S
C3759 C3755 1.393 . S
C3759 C3758 1.391 . S
H3760 C3768 0.950 . S
H3761 C3773 0.950 . S
H3762 C3770 0.950 . S
H3763 C3772 0.950 . S
H3764 C3774 0.950 . S
H3765 C3776 0.950 . S
H3766 C3778 0.950 . S
H3767 C3779 0.950 . S
C3768 H3760 0.950 . S
C3768 C3769 1.386 . S
C3768 C3770 1.391 . S
C3769 C3768 1.386 . S
C3769 C3773 1.393 . S
C3770 H3762 0.950 . S
C3770 C3768 1.391 . S
C3770 C3771 1.400 . S
C3771 C3770 1.400 . S
C3771 C3772 1.398 . S
C3771 C3777 1.491 . S
C3772 H3763 0.950 . S
C3772 C3771 1.398 . S
C3772 C3773 1.391 . S
C3773 H3761 0.950 . S
C3773 C3769 1.393 . S
C3773 C3772 1.391 . S
C3774 H3764 0.950 . S
C3774 C3775 1.386 . S
C3774 C3776 1.391 . S
C3775 C3774 1.386 . S
C3775 C3779 1.393 . S
C3776 H3765 0.950 . S
C3776 C3774 1.391 . S
C3776 C3777 1.400 . S
C3777 C3771 1.491 . S
C3777 C3776 1.400 . S
C3777 C3778 1.398 . S
C3778 H3766 0.950 . S
C3778 C3777 1.398 . S
C3778 C3779 1.391 . S
C3779 H3767 0.950 . S
C3779 C3775 1.393 . S
C3779 C3778 1.391 . S
H3780 C3788 0.950 . S
H3781 C3793 0.950 . S
H3782 C3790 0.950 . S
H3783 C3792 0.950 . S
H3784 C3794 0.950 . S
H3785 C3796 0.950 . S
H3786 C3798 0.950 . S
H3787 C3799 0.950 . S
C3788 H3780 0.950 . S
C3788 C3789 1.386 . S
C3788 C3790 1.391 . S
C3789 C3788 1.386 . S
C3789 C3793 1.393 . S
C3790 H3782 0.950 . S
C3790 C3788 1.391 . S
C3790 C3791 1.400 . S
C3791 C3790 1.400 . S
C3791 C3792 1.398 . S
C3791 C3797 1.491 . S
C3792 H3783 0.950 . S
C3792 C3791 1.398 . S
C3792 C3793 1.391 . S
C3793 H3781 0.950 . S
C3793 C3789 1.393 . S
C3793 C3792 1.391 . S
C3794 H3784 0.950 . S
C3794 C3795 1.386 . S
C3794 C3796 1.391 . S
C3795 C3794 1.386 . S
C3795 C3799 1.393 . S
C3796 H3785 0.950 . S
C3796 C3794 1.391 . S
C3796 C3797 1.400 . S
C3797 C3791 1.491 . S
C3797 C3796 1.400 . S
C3797 C3798 1.398 . S
C3798 H3786 0.950 . S
C3798 C3797 1.398 . S
C3798 C3799 1.391 . S
C3799 H3787 0.950 . S
C3799 C3795 1.393 . S
C3799 C3798 1.391 . S
H3800 C3808 0.950 . S
H3801 C3813 0.950 . S
H3802 C3810 0.950 . S
H3803 C3812 0.950 . S
H3804 C3814 0.950 . S
H3805 C3816 0.950 . S
H3806 C3818 0.950 . S
H3807 C3819 0.950 . S
C3808 H3800 0.950 . S
C3808 C3809 1.386 . S
C3808 C3810 1.391 . S
C3809 C3808 1.386 . S
C3809 C3813 1.393 . S
C3810 H3802 0.950 . S
C3810 C3808 1.391 . S
C3810 C3811 1.400 . S
C3811 C3810 1.400 . S
C3811 C3812 1.398 . S
C3811 C3817 1.491 . S
C3812 H3803 0.950 . S
C3812 C3811 1.398 . S
C3812 C3813 1.391 . S
C3813 H3801 0.950 . S
C3813 C3809 1.393 . S
C3813 C3812 1.391 . S
C3814 H3804 0.950 . S
C3814 C3815 1.386 . S
C3814 C3816 1.391 . S
C3815 C3814 1.386 . S
C3815 C3819 1.393 . S
C3816 H3805 0.950 . S
C3816 C3814 1.391 . S
C3816 C3817 1.400 . S
C3817 C3811 1.491 . S
C3817 C3816 1.400 . S
C3817 C3818 1.398 . S
C3818 H3806 0.950 . S
C3818 C3817 1.398 . S
C3818 C3819 1.391 . S
C3819 H3807 0.950 . S
C3819 C3815 1.393 . S
C3819 C3818 1.391 . S
H3820 C3828 0.950 . S
H3821 C3833 0.950 . S
H3822 C3830 0.950 . S
H3823 C3832 0.950 . S
H3824 C3834 0.950 . S
H3825 C3836 0.950 . S
H3826 C3838 0.950 . S
H3827 C3839 0.950 1_565 S
C3828 H3820 0.950 . S
C3828 C3829 1.386 . S
C3828 C3830 1.391 . S
C3829 C3828 1.386 . S
C3829 C3833 1.393 . S
C3830 H3822 0.950 . S
C3830 C3828 1.391 . S
C3830 C3831 1.400 . S
C3831 C3830 1.400 . S
C3831 C3832 1.398 . S
C3831 C3837 1.491 . S
C3832 H3823 0.950 . S
C3832 C3831 1.398 . S
C3832 C3833 1.391 . S
C3833 H3821 0.950 . S
C3833 C3829 1.393 . S
C3833 C3832 1.391 . S
C3834 H3824 0.950 . S
C3834 C3835 1.386 . S
C3834 C3836 1.391 . S
C3835 C3834 1.386 . S
C3835 C3839 1.393 . S
C3836 H3825 0.950 . S
C3836 C3834 1.391 . S
C3836 C3837 1.400 . S
C3837 C3831 1.491 . S
C3837 C3836 1.400 . S
C3837 C3838 1.398 . S
C3838 H3826 0.950 . S
C3838 C3837 1.398 . S
C3838 C3839 1.391 . S
C3839 H3827 0.950 1_545 S
C3839 C3835 1.393 . S
C3839 C3838 1.391 . S
H3840 C3848 0.950 . S
H3841 C3853 0.953 . S
H3842 C3850 0.950 . S
H3843 C3852 0.950 . S
H3844 C3854 0.950 . S
H3845 C3856 0.950 . S
H3846 C3858 0.950 . S
H3847 C3859 0.950 . S
C3848 H3840 0.950 . S
C3848 C3849 1.386 . S
C3848 C3850 1.391 . S
C3849 C3848 1.386 . S
C3849 C3853 1.393 . S
C3850 H3842 0.950 . S
C3850 C3848 1.391 . S
C3850 C3851 1.400 . S
C3851 C3850 1.400 . S
C3851 C3852 1.398 . S
C3851 C3857 1.491 . S
C3852 H3843 0.950 . S
C3852 C3851 1.398 . S
C3852 C3853 1.391 . S
C3853 H3841 0.953 . S
C3853 C3849 1.393 . S
C3853 C3852 1.391 . S
C3854 H3844 0.950 . S
C3854 C3855 1.386 . S
C3854 C3856 1.391 . S
C3855 C3854 1.386 . S
C3855 C3859 1.393 . S
C3856 H3845 0.950 . S
C3856 C3854 1.391 . S
C3856 C3857 1.400 . S
C3857 C3851 1.491 . S
C3857 C3856 1.400 . S
C3857 C3858 1.398 . S
C3858 H3846 0.950 . S
C3858 C3857 1.398 . S
C3858 C3859 1.391 . S
C3859 H3847 0.950 . S
C3859 C3855 1.393 . S
C3859 C3858 1.391 . S
H3860 C3868 0.950 . S
H3861 C3873 0.950 . S
H3862 C3870 0.950 . S
H3863 C3872 0.950 . S
H3864 C3874 0.950 . S
H3865 C3876 0.950 . S
H3866 C3878 0.950 . S
H3867 C3879 0.950 . S
C3868 H3860 0.950 . S
C3868 C3869 1.386 . S
C3868 C3870 1.391 . S
C3869 C3868 1.386 . S
C3869 C3873 1.393 . S
C3870 H3862 0.950 . S
C3870 C3868 1.391 . S
C3870 C3871 1.400 . S
C3871 C3870 1.400 . S
C3871 C3872 1.398 . S
C3871 C3877 1.491 . S
C3872 H3863 0.950 . S
C3872 C3871 1.398 . S
C3872 C3873 1.391 . S
C3873 H3861 0.950 . S
C3873 C3869 1.393 . S
C3873 C3872 1.391 . S
C3874 H3864 0.950 . S
C3874 C3875 1.386 . S
C3874 C3876 1.391 . S
C3875 C3874 1.386 . S
C3875 C3879 1.393 . S
C3876 H3865 0.950 . S
C3876 C3874 1.391 . S
C3876 C3877 1.400 . S
C3877 C3871 1.491 . S
C3877 C3876 1.400 . S
C3877 C3878 1.398 . S
C3878 H3866 0.950 . S
C3878 C3877 1.398 . S
C3878 C3879 1.391 . S
C3879 H3867 0.950 . S
C3879 C3875 1.393 . S
C3879 C3878 1.391 . S
H3880 C3888 0.950 . S
H3881 C3893 0.950 . S
H3882 C3890 0.950 . S
H3883 C3892 0.950 . S
H3884 C3894 0.950 . S
H3885 C3896 0.950 . S
H3886 C3898 0.950 . S
H3887 C3899 0.950 . S
C3888 H3880 0.950 . S
C3888 C3889 1.386 . S
C3888 C3890 1.391 . S
C3889 C3888 1.386 . S
C3889 C3893 1.393 . S
C3890 H3882 0.950 . S
C3890 C3888 1.391 . S
C3890 C3891 1.400 . S
C3891 C3890 1.400 . S
C3891 C3892 1.398 . S
C3891 C3897 1.491 . S
C3892 H3883 0.950 . S
C3892 C3891 1.398 . S
C3892 C3893 1.391 . S
C3893 H3881 0.950 . S
C3893 C3889 1.393 . S
C3893 C3892 1.391 . S
C3894 H3884 0.950 . S
C3894 C3895 1.386 . S
C3894 C3896 1.391 . S
C3895 C3894 1.386 . S
C3895 C3899 1.393 . S
C3896 H3885 0.950 . S
C3896 C3894 1.391 . S
C3896 C3897 1.400 . S
C3897 C3891 1.491 . S
C3897 C3896 1.400 . S
C3897 C3898 1.398 . S
C3898 H3886 0.950 . S
C3898 C3897 1.398 . S
C3898 C3899 1.391 . S
C3899 H3887 0.950 . S
C3899 C3895 1.393 . S
C3899 C3898 1.391 . S
H3900 C3908 0.950 . S
H3901 C3913 0.950 . S
H3902 C3910 0.950 . S
H3903 C3912 0.950 . S
H3904 C3914 0.950 . S
H3905 C3916 0.950 . S
H3906 C3918 0.950 . S
H3907 C3919 0.950 . S
C3908 H3900 0.950 . S
C3908 C3909 1.386 . S
C3908 C3910 1.391 . S
C3909 C3908 1.386 . S
C3909 C3913 1.393 . S
C3910 H3902 0.950 . S
C3910 C3908 1.391 . S
C3910 C3911 1.400 . S
C3911 C3910 1.400 . S
C3911 C3912 1.398 . S
C3911 C3917 1.491 . S
C3912 H3903 0.950 . S
C3912 C3911 1.398 . S
C3912 C3913 1.391 . S
C3913 H3901 0.950 . S
C3913 C3909 1.393 . S
C3913 C3912 1.391 . S
C3914 H3904 0.950 . S
C3914 C3915 1.386 . S
C3914 C3916 1.391 . S
C3915 C3914 1.386 . S
C3915 C3919 1.393 . S
C3916 H3905 0.950 . S
C3916 C3914 1.391 . S
C3916 C3917 1.400 . S
C3917 C3911 1.491 . S
C3917 C3916 1.400 . S
C3917 C3918 1.398 . S
C3918 H3906 0.950 . S
C3918 C3917 1.398 . S
C3918 C3919 1.391 . S
C3919 H3907 0.950 . S
C3919 C3915 1.393 . S
C3919 C3918 1.391 . S
H3920 C3928 0.950 . S
H3921 C3933 0.950 . S
H3922 C3930 0.950 . S
H3923 C3932 0.950 . S
H3924 C3934 0.950 . S
H3925 C3936 0.950 . S
H3926 C3938 0.950 . S
H3927 C3939 0.950 . S
C3928 H3920 0.950 . S
C3928 C3929 1.386 . S
C3928 C3930 1.391 . S
C3929 C3928 1.386 . S
C3929 C3933 1.393 . S
C3930 H3922 0.950 . S
C3930 C3928 1.391 . S
C3930 C3931 1.400 . S
C3931 C3930 1.400 . S
C3931 C3932 1.398 . S
C3931 C3937 1.491 . S
C3932 H3923 0.950 . S
C3932 C3931 1.398 . S
C3932 C3933 1.391 . S
C3933 H3921 0.950 . S
C3933 C3929 1.393 . S
C3933 C3932 1.391 . S
C3934 H3924 0.950 . S
C3934 C3935 1.386 . S
C3934 C3936 1.391 . S
C3935 C3934 1.386 . S
C3935 C3939 1.393 . S
C3936 H3925 0.950 . S
C3936 C3934 1.391 . S
C3936 C3937 1.400 . S
C3937 C3931 1.491 . S
C3937 C3936 1.400 . S
C3937 C3938 1.398 . S
C3938 H3926 0.950 . S
C3938 C3937 1.398 . S
C3938 C3939 1.391 . S
C3939 H3927 0.950 . S
C3939 C3935 1.393 . S
C3939 C3938 1.391 . S
H3940 C3948 0.950 . S
H3941 C3953 0.950 . S
H3942 C3950 0.950 . S
H3943 C3952 0.950 . S
H3944 C3954 0.950 . S
H3945 C3956 0.950 . S
H3946 C3958 0.950 . S
H3947 C3959 0.950 . S
C3948 H3940 0.950 . S
C3948 C3949 1.386 . S
C3948 C3950 1.391 . S
C3949 C3948 1.386 . S
C3949 C3953 1.393 . S
C3950 H3942 0.950 . S
C3950 C3948 1.391 . S
C3950 C3951 1.400 . S
C3951 C3950 1.400 . S
C3951 C3952 1.398 . S
C3951 C3957 1.491 . S
C3952 H3943 0.950 . S
C3952 C3951 1.398 . S
C3952 C3953 1.391 . S
C3953 H3941 0.950 . S
C3953 C3949 1.393 . S
C3953 C3952 1.391 . S
C3954 H3944 0.950 . S
C3954 C3955 1.386 . S
C3954 C3956 1.391 . S
C3955 C3954 1.386 . S
C3955 C3959 1.393 . S
C3956 H3945 0.950 . S
C3956 C3954 1.391 . S
C3956 C3957 1.400 . S
C3957 C3951 1.491 . S
C3957 C3956 1.400 . S
C3957 C3958 1.398 . S
C3958 H3946 0.950 . S
C3958 C3957 1.398 . S
C3958 C3959 1.391 . S
C3959 H3947 0.950 . S
C3959 C3955 1.393 . S
C3959 C3958 1.391 . S
H3960 C3968 0.950 . S
H3961 C3973 0.950 . S
H3962 C3970 0.950 . S
H3963 C3972 0.950 . S
H3964 C3974 0.950 . S
H3965 C3976 0.950 . S
H3966 C3978 0.950 . S
H3967 C3979 0.950 . S
C3968 H3960 0.950 . S
C3968 C3969 1.386 . S
C3968 C3970 1.391 . S
C3969 C3968 1.386 . S
C3969 C3973 1.393 . S
C3970 H3962 0.950 . S
C3970 C3968 1.391 . S
C3970 C3971 1.400 . S
C3971 C3970 1.400 . S
C3971 C3972 1.398 . S
C3971 C3977 1.491 . S
C3972 H3963 0.950 . S
C3972 C3971 1.398 . S
C3972 C3973 1.391 . S
C3973 H3961 0.950 . S
C3973 C3969 1.393 . S
C3973 C3972 1.391 . S
C3974 H3964 0.950 . S
C3974 C3975 1.386 . S
C3974 C3976 1.391 . S
C3975 C3974 1.386 . S
C3975 C3979 1.393 . S
C3976 H3965 0.950 . S
C3976 C3974 1.391 . S
C3976 C3977 1.400 . S
C3977 C3971 1.491 . S
C3977 C3976 1.400 . S
C3977 C3978 1.398 . S
C3978 H3966 0.950 . S
C3978 C3977 1.398 . S
C3978 C3979 1.391 . S
C3979 H3967 0.950 . S
C3979 C3975 1.393 . S
C3979 C3978 1.391 . S
H3980 C3988 0.950 . S
H3981 C3993 0.950 . S
H3982 C3990 0.950 . S
H3983 C3992 0.950 . S
H3984 C3994 0.950 . S
H3985 C3996 0.950 . S
H3986 C3998 0.950 . S
H3987 C3999 0.950 . S
C3988 H3980 0.950 . S
C3988 C3989 1.386 . S
C3988 C3990 1.391 . S
C3989 C3988 1.386 . S
C3989 C3993 1.393 . S
C3990 H3982 0.950 . S
C3990 C3988 1.391 . S
C3990 C3991 1.400 . S
C3991 C3990 1.400 . S
C3991 C3992 1.398 . S
C3991 C3997 1.491 . S
C3992 H3983 0.950 . S
C3992 C3991 1.398 . S
C3992 C3993 1.391 . S
C3993 H3981 0.950 . S
C3993 C3989 1.393 . S
C3993 C3992 1.391 . S
C3994 H3984 0.950 . S
C3994 C3995 1.386 . S
C3994 C3996 1.391 . S
C3995 C3994 1.386 . S
C3995 C3999 1.393 . S
C3996 H3985 0.950 . S
C3996 C3994 1.391 . S
C3996 C3997 1.400 . S
C3997 C3991 1.491 . S
C3997 C3996 1.400 . S
C3997 C3998 1.398 . S
C3998 H3986 0.950 . S
C3998 C3997 1.398 . S
C3998 C3999 1.391 . S
C3999 H3987 0.950 . S
C3999 C3995 1.393 . S
C3999 C3998 1.391 . S
H4000 C4008 0.950 . S
H4001 C4013 0.990 . S
H4002 C4010 0.950 . S
H4003 C4012 0.950 . S
H4004 C4014 0.950 . S
H4005 C4016 0.950 . S
H4006 C4018 0.950 . S
H4007 C4019 0.950 . S
C4008 H4000 0.950 . S
C4008 C4009 1.386 . S
C4008 C4010 1.391 . S
C4009 C4008 1.386 . S
C4009 C4013 1.393 . S
C4010 H4002 0.950 . S
C4010 C4008 1.391 . S
C4010 C4011 1.400 . S
C4011 C4010 1.400 . S
C4011 C4012 1.398 . S
C4011 C4017 1.491 . S
C4012 H4003 0.950 . S
C4012 C4011 1.398 . S
C4012 C4013 1.391 . S
C4013 H4001 0.990 . S
C4013 C4009 1.393 . S
C4013 C4012 1.391 . S
C4014 H4004 0.950 . S
C4014 C4015 1.386 . S
C4014 C4016 1.391 . S
C4015 C4014 1.386 . S
C4015 C4019 1.393 . S
C4016 H4005 0.950 . S
C4016 C4014 1.391 . S
C4016 C4017 1.400 . S
C4017 C4011 1.491 . S
C4017 C4016 1.400 . S
C4017 C4018 1.398 . S
C4018 H4006 0.950 . S
C4018 C4017 1.398 . S
C4018 C4019 1.391 . S
C4019 H4007 0.950 . S
C4019 C4015 1.393 . S
C4019 C4018 1.391 . S
H4020 C4028 0.950 . S
H4021 C4033 0.950 . S
H4022 C4030 0.950 . S
H4023 C4032 0.950 . S
H4024 C4034 0.950 . S
H4025 C4036 0.950 . S
H4026 C4038 0.950 . S
H4027 C4039 0.950 . S
C4028 H4020 0.950 . S
C4028 C4029 1.386 . S
C4028 C4030 1.391 . S
C4029 C4028 1.386 . S
C4029 C4033 1.393 . S
C4030 H4022 0.950 . S
C4030 C4028 1.391 . S
C4030 C4031 1.400 . S
C4031 C4030 1.400 . S
C4031 C4032 1.398 . S
C4031 C4037 1.491 . S
C4032 H4023 0.950 . S
C4032 C4031 1.398 . S
C4032 C4033 1.391 . S
C4033 H4021 0.950 . S
C4033 C4029 1.393 . S
C4033 C4032 1.391 . S
C4034 H4024 0.950 . S
C4034 C4035 1.386 . S
C4034 C4036 1.391 . S
C4035 C4034 1.386 . S
C4035 C4039 1.393 . S
C4036 H4025 0.950 . S
C4036 C4034 1.391 . S
C4036 C4037 1.400 . S
C4037 C4031 1.491 . S
C4037 C4036 1.400 . S
C4037 C4038 1.398 . S
C4038 H4026 0.950 . S
C4038 C4037 1.398 . S
C4038 C4039 1.391 . S
C4039 H4027 0.950 . S
C4039 C4035 1.393 . S
C4039 C4038 1.391 . S
H4040 C4048 0.950 . S
H4041 C4053 0.950 . S
H4042 C4050 0.950 . S
H4043 C4052 0.950 . S
H4044 C4054 0.950 . S
H4045 C4056 0.950 . S
H4046 C4058 0.950 . S
H4047 C4059 0.950 . S
C4048 H4040 0.950 . S
C4048 C4049 1.420 . S
C4048 C4050 1.391 . S
C4049 C4048 1.420 . S
C4049 C4053 1.385 1_545 S
C4050 H4042 0.950 . S
C4050 C4048 1.391 . S
C4050 C4051 1.400 . S
C4051 C4050 1.400 . S
C4051 C4052 1.398 . S
C4051 C4057 1.491 . S
C4052 H4043 0.950 . S
C4052 C4051 1.398 . S
C4052 C4053 1.391 1_545 S
C4053 H4041 0.950 . S
C4053 C4049 1.385 1_565 S
C4053 C4052 1.391 1_565 S
C4054 H4044 0.950 . S
C4054 C4055 1.386 . S
C4054 C4056 1.391 . S
C4055 C4054 1.386 . S
C4055 C4059 1.393 . S
C4056 H4045 0.950 . S
C4056 C4054 1.391 . S
C4056 C4057 1.400 . S
C4057 C4051 1.491 . S
C4057 C4056 1.400 . S
C4057 C4058 1.398 . S
C4058 H4046 0.950 . S
C4058 C4057 1.398 . S
C4058 C4059 1.391 . S
C4059 H4047 0.950 . S
C4059 C4055 1.393 . S
C4059 C4058 1.391 . S
H4060 C4068 0.950 . S
H4061 C4073 0.950 . S
H4062 C4070 0.950 . S
H4063 C4072 0.950 . S
H4064 C4074 0.950 . S
H4065 C4076 0.950 . S
H4066 C4078 0.950 . S
H4067 C4079 0.950 . S
C4068 H4060 0.950 . S
C4068 C4069 1.386 . S
C4068 C4070 1.391 . S
C4069 C4068 1.386 . S
C4069 C4073 1.393 . S
C4070 H4062 0.950 . S
C4070 C4068 1.391 . S
C4070 C4071 1.400 . S
C4071 C4070 1.400 . S
C4071 C4072 1.398 . S
C4071 C4077 1.491 . S
C4072 H4063 0.950 . S
C4072 C4071 1.398 . S
C4072 C4073 1.391 . S
C4073 H4061 0.950 . S
C4073 C4069 1.393 . S
C4073 C4072 1.391 . S
C4074 H4064 0.950 . S
C4074 C4075 1.386 . S
C4074 C4076 1.391 . S
C4075 C4074 1.386 . S
C4075 C4079 1.393 . S
C4076 H4065 0.950 . S
C4076 C4074 1.391 . S
C4076 C4077 1.400 . S
C4077 C4071 1.491 . S
C4077 C4076 1.400 . S
C4077 C4078 1.398 . S
C4078 H4066 0.950 . S
C4078 C4077 1.398 . S
C4078 C4079 1.391 . S
C4079 H4067 0.950 . S
C4079 C4075 1.393 . S
C4079 C4078 1.391 . S
H4080 C4088 0.950 . S
H4081 C4093 0.950 1_556 S
H4082 C4090 0.950 . S
H4083 C4092 0.950 . S
H4084 C4094 0.950 . S
H4085 C4096 0.950 . S
H4086 C4098 0.950 . S
H4087 C4099 0.950 . S
C4088 H4080 0.950 . S
C4088 C4089 1.386 . S
C4088 C4090 1.391 . S
C4089 C4088 1.386 . S
C4089 C4093 1.393 . S
C4090 H4082 0.950 . S
C4090 C4088 1.391 . S
C4090 C4091 1.400 . S
C4091 C4090 1.400 . S
C4091 C4092 1.398 . S
C4091 C4097 1.491 . S
C4092 H4083 0.950 . S
C4092 C4091 1.398 . S
C4092 C4093 1.391 . S
C4093 H4081 0.950 1_554 S
C4093 C4089 1.393 . S
C4093 C4092 1.391 . S
C4094 H4084 0.950 . S
C4094 C4095 1.386 . S
C4094 C4096 1.391 . S
C4095 C4094 1.386 . S
C4095 C4099 1.393 . S
C4096 H4085 0.950 . S
C4096 C4094 1.391 . S
C4096 C4097 1.400 . S
C4097 C4091 1.491 . S
C4097 C4096 1.400 . S
C4097 C4098 1.398 . S
C4098 H4086 0.950 . S
C4098 C4097 1.398 . S
C4098 C4099 1.391 . S
C4099 H4087 0.950 . S
C4099 C4095 1.393 . S
C4099 C4098 1.391 . S
H4100 C4108 0.950 . S
H4101 C4113 0.950 . S
H4102 C4110 0.950 . S
H4103 C4112 0.950 . S
H4104 C4114 0.950 . S
H4105 C4116 0.950 . S
H4106 C4118 0.950 . S
H4107 C4119 0.950 . S
C4108 H4100 0.950 . S
C4108 C4109 1.386 . S
C4108 C4110 1.391 . S
C4109 C4108 1.386 . S
C4109 C4113 1.393 . S
C4110 H4102 0.950 . S
C4110 C4108 1.391 . S
C4110 C4111 1.400 . S
C4111 C4110 1.400 . S
C4111 C4112 1.398 . S
C4111 C4117 1.491 . S
C4112 H4103 0.950 . S
C4112 C4111 1.398 . S
C4112 C4113 1.391 . S
C4113 H4101 0.950 . S
C4113 C4109 1.393 . S
C4113 C4112 1.391 . S
C4114 H4104 0.950 . S
C4114 C4115 1.386 . S
C4114 C4116 1.391 . S
C4115 C4114 1.386 . S
C4115 C4119 1.393 . S
C4116 H4105 0.950 . S
C4116 C4114 1.391 . S
C4116 C4117 1.400 . S
C4117 C4111 1.491 . S
C4117 C4116 1.400 . S
C4117 C4118 1.398 . S
C4118 H4106 0.950 . S
C4118 C4117 1.398 . S
C4118 C4119 1.391 . S
C4119 H4107 0.950 . S
C4119 C4115 1.393 . S
C4119 C4118 1.391 . S
H4120 C4128 0.950 . S
H4121 C4133 0.950 . S
H4122 C4130 0.950 . S
H4123 C4132 0.950 . S
H4124 C4134 0.950 . S
H4125 C4136 0.950 . S
H4126 C4138 0.950 . S
H4127 C4139 0.950 . S
C4128 H4120 0.950 . S
C4128 C4129 1.386 . S
C4128 C4130 1.391 . S
C4129 C4128 1.386 . S
C4129 C4133 1.393 . S
C4130 H4122 0.950 . S
C4130 C4128 1.391 . S
C4130 C4131 1.400 . S
C4131 C4130 1.400 . S
C4131 C4132 1.398 . S
C4131 C4137 1.491 . S
C4132 H4123 0.950 . S
C4132 C4131 1.398 . S
C4132 C4133 1.391 . S
C4133 H4121 0.950 . S
C4133 C4129 1.393 . S
C4133 C4132 1.391 . S
C4134 H4124 0.950 . S
C4134 C4135 1.386 . S
C4134 C4136 1.391 . S
C4135 C4134 1.386 . S
C4135 C4139 1.393 . S
C4136 H4125 0.950 . S
C4136 C4134 1.391 . S
C4136 C4137 1.400 . S
C4137 C4131 1.491 . S
C4137 C4136 1.400 . S
C4137 C4138 1.398 . S
C4138 H4126 0.950 . S
C4138 C4137 1.398 . S
C4138 C4139 1.391 . S
C4139 H4127 0.950 . S
C4139 C4135 1.393 . S
C4139 C4138 1.391 . S
H4140 C4148 0.950 . S
H4141 C4153 0.950 . S
H4142 C4150 0.950 . S
H4143 C4152 0.950 . S
H4144 C4154 0.950 . S
H4145 C4156 0.950 . S
H4146 C4158 0.950 . S
H4147 C4159 0.950 1_655 S
C4148 H4140 0.950 . S
C4148 C4149 1.386 . S
C4148 C4150 1.391 . S
C4149 C4148 1.386 . S
C4149 C4153 1.393 . S
C4150 H4142 0.950 . S
C4150 C4148 1.391 . S
C4150 C4151 1.400 . S
C4151 C4150 1.400 . S
C4151 C4152 1.398 . S
C4151 C4157 1.491 . S
C4152 H4143 0.950 . S
C4152 C4151 1.398 . S
C4152 C4153 1.391 . S
C4153 H4141 0.950 . S
C4153 C4149 1.393 . S
C4153 C4152 1.391 . S
C4154 H4144 0.950 . S
C4154 C4155 1.386 . S
C4154 C4156 1.391 . S
C4155 C4154 1.386 . S
C4155 C4159 1.393 . S
C4156 H4145 0.950 . S
C4156 C4154 1.391 . S
C4156 C4157 1.400 . S
C4157 C4151 1.491 . S
C4157 C4156 1.400 . S
C4157 C4158 1.398 . S
C4158 H4146 0.950 . S
C4158 C4157 1.398 . S
C4158 C4159 1.391 . S
C4159 H4147 0.950 1_455 S
C4159 C4155 1.393 . S
C4159 C4158 1.391 . S
H4160 C4168 0.950 . S
H4161 C4173 0.950 . S
H4162 C4170 0.950 . S
H4163 C4172 0.950 . S
H4164 C4174 0.950 . S
H4165 C4176 0.950 . S
H4166 C4178 0.950 . S
H4167 C4179 0.950 . S
C4168 H4160 0.950 . S
C4168 C4169 1.386 . S
C4168 C4170 1.391 . S
C4169 C4168 1.386 . S
C4169 C4173 1.393 . S
C4170 H4162 0.950 . S
C4170 C4168 1.391 . S
C4170 C4171 1.400 . S
C4171 C4170 1.400 . S
C4171 C4172 1.398 . S
C4171 C4177 1.491 . S
C4172 H4163 0.950 . S
C4172 C4171 1.398 . S
C4172 C4173 1.391 . S
C4173 H4161 0.950 . S
C4173 C4169 1.393 . S
C4173 C4172 1.391 . S
C4174 H4164 0.950 . S
C4174 C4175 1.386 . S
C4174 C4176 1.391 . S
C4175 C4174 1.386 . S
C4175 C4179 1.393 . S
C4176 H4165 0.950 . S
C4176 C4174 1.391 . S
C4176 C4177 1.400 . S
C4177 C4171 1.491 . S
C4177 C4176 1.400 . S
C4177 C4178 1.398 . S
C4178 H4166 0.950 . S
C4178 C4177 1.398 . S
C4178 C4179 1.391 . S
C4179 H4167 0.950 . S
C4179 C4175 1.393 . S
C4179 C4178 1.391 . S
H4180 C4188 0.950 1_655 S
H4181 C4193 0.950 . S
H4182 C4190 0.950 . S
H4183 C4192 0.950 . S
H4184 C4194 0.950 . S
H4185 C4196 0.950 . S
H4186 C4198 0.950 . S
H4187 C4199 0.950 . S
C4188 H4180 0.950 1_455 S
C4188 C4189 1.386 . S
C4188 C4190 1.391 . S
C4189 C4188 1.386 . S
C4189 C4193 1.393 . S
C4190 H4182 0.950 . S
C4190 C4188 1.391 . S
C4190 C4191 1.400 . S
C4191 C4190 1.400 . S
C4191 C4192 1.398 . S
C4191 C4197 1.491 . S
C4192 H4183 0.950 . S
C4192 C4191 1.398 . S
C4192 C4193 1.391 . S
C4193 H4181 0.950 . S
C4193 C4189 1.393 . S
C4193 C4192 1.391 . S
C4194 H4184 0.950 . S
C4194 C4195 1.386 . S
C4194 C4196 1.391 . S
C4195 C4194 1.386 . S
C4195 C4199 1.393 . S
C4196 H4185 0.950 . S
C4196 C4194 1.391 . S
C4196 C4197 1.400 . S
C4197 C4191 1.491 . S
C4197 C4196 1.400 . S
C4197 C4198 1.398 . S
C4198 H4186 0.950 . S
C4198 C4197 1.398 . S
C4198 C4199 1.391 . S
C4199 H4187 0.950 . S
C4199 C4195 1.393 . S
C4199 C4198 1.391 . S
H4200 C4208 0.950 . S
H4201 C4213 0.950 . S
H4202 C4210 0.950 . S
H4203 C4212 0.950 . S
H4204 C4214 0.950 . S
H4205 C4216 0.950 . S
H4206 C4218 0.950 . S
H4207 C4219 0.950 . S
C4208 H4200 0.950 . S
C4208 C4209 1.386 . S
C4208 C4210 1.391 . S
C4209 C4208 1.386 . S
C4209 C4213 1.393 . S
C4210 H4202 0.950 . S
C4210 C4208 1.391 . S
C4210 C4211 1.400 . S
C4211 C4210 1.400 . S
C4211 C4212 1.398 . S
C4211 C4217 1.491 . S
C4212 H4203 0.950 . S
C4212 C4211 1.398 . S
C4212 C4213 1.391 . S
C4213 H4201 0.950 . S
C4213 C4209 1.393 . S
C4213 C4212 1.391 . S
C4214 H4204 0.950 . S
C4214 C4215 1.386 . S
C4214 C4216 1.391 . S
C4215 C4214 1.386 . S
C4215 C4219 1.393 . S
C4216 H4205 0.950 . S
C4216 C4214 1.391 . S
C4216 C4217 1.400 . S
C4217 C4211 1.491 . S
C4217 C4216 1.400 . S
C4217 C4218 1.398 . S
C4218 H4206 0.950 . S
C4218 C4217 1.398 . S
C4218 C4219 1.391 . S
C4219 H4207 0.950 . S
C4219 C4215 1.393 . S
C4219 C4218 1.391 . S
H4220 C4228 0.950 . S
H4221 C4233 0.950 . S
H4222 C4230 0.950 . S
H4223 C4232 0.950 . S
H4224 C4234 0.950 . S
H4225 C4236 0.950 . S
H4226 C4238 0.950 . S
H4227 C4239 0.950 . S
C4228 H4220 0.950 . S
C4228 C4229 1.386 . S
C4228 C4230 1.391 . S
C4229 C4228 1.386 . S
C4229 C4233 1.393 . S
C4230 H4222 0.950 . S
C4230 C4228 1.391 . S
C4230 C4231 1.400 . S
C4231 C4230 1.400 . S
C4231 C4232 1.398 . S
C4231 C4237 1.491 . S
C4232 H4223 0.950 . S
C4232 C4231 1.398 . S
C4232 C4233 1.391 . S
C4233 H4221 0.950 . S
C4233 C4229 1.393 . S
C4233 C4232 1.391 . S
C4234 H4224 0.950 . S
C4234 C4235 1.386 . S
C4234 C4236 1.391 . S
C4235 C4234 1.386 . S
C4235 C4239 1.393 . S
C4236 H4225 0.950 . S
C4236 C4234 1.391 . S
C4236 C4237 1.400 . S
C4237 C4231 1.491 . S
C4237 C4236 1.400 . S
C4237 C4238 1.398 . S
C4238 H4226 0.950 . S
C4238 C4237 1.398 . S
C4238 C4239 1.391 . S
C4239 H4227 0.950 . S
C4239 C4235 1.393 . S
C4239 C4238 1.391 . S
H4240 C4248 0.950 1_554 S
H4241 C4253 0.950 . S
H4242 C4250 0.950 . S
H4243 C4252 0.950 . S
H4244 C4254 0.950 . S
H4245 C4256 0.950 . S
H4246 C4258 0.950 . S
H4247 C4259 0.950 . S
C4248 H4240 0.950 1_556 S
C4248 C4249 1.386 . S
C4248 C4250 1.391 . S
C4249 C4248 1.386 . S
C4249 C4253 1.393 . S
C4250 H4242 0.950 . S
C4250 C4248 1.391 . S
C4250 C4251 1.400 . S
C4251 C4250 1.400 . S
C4251 C4252 1.398 . S
C4251 C4257 1.491 . S
C4252 H4243 0.950 . S
C4252 C4251 1.398 . S
C4252 C4253 1.391 . S
C4253 H4241 0.950 . S
C4253 C4249 1.393 . S
C4253 C4252 1.391 . S
C4254 H4244 0.950 . S
C4254 C4255 1.386 . S
C4254 C4256 1.391 . S
C4255 C4254 1.386 . S
C4255 C4259 1.393 . S
C4256 H4245 0.950 . S
C4256 C4254 1.391 . S
C4256 C4257 1.400 . S
C4257 C4251 1.491 . S
C4257 C4256 1.400 . S
C4257 C4258 1.398 . S
C4258 H4246 0.950 . S
C4258 C4257 1.398 . S
C4258 C4259 1.391 . S
C4259 H4247 0.950 . S
C4259 C4255 1.393 . S
C4259 C4258 1.391 . S
H4260 C4268 0.950 . S
H4261 C4273 0.950 . S
H4262 C4270 0.950 . S
H4263 C4272 0.950 . S
H4264 C4274 0.950 . S
H4265 C4276 0.950 . S
H4266 C4278 0.950 . S
H4267 C4279 0.950 . S
C4268 H4260 0.950 . S
C4268 C4269 1.386 . S
C4268 C4270 1.391 . S
C4269 C4268 1.386 . S
C4269 C4273 1.393 . S
C4270 H4262 0.950 . S
C4270 C4268 1.391 . S
C4270 C4271 1.400 . S
C4271 C4270 1.400 . S
C4271 C4272 1.398 . S
C4271 C4277 1.491 . S
C4272 H4263 0.950 . S
C4272 C4271 1.398 . S
C4272 C4273 1.391 . S
C4273 H4261 0.950 . S
C4273 C4269 1.393 . S
C4273 C4272 1.391 . S
C4274 H4264 0.950 . S
C4274 C4275 1.386 . S
C4274 C4276 1.391 . S
C4275 C4274 1.386 . S
C4275 C4279 1.393 . S
C4276 H4265 0.950 . S
C4276 C4274 1.391 . S
C4276 C4277 1.400 . S
C4277 C4271 1.491 . S
C4277 C4276 1.400 . S
C4277 C4278 1.398 . S
C4278 H4266 0.950 . S
C4278 C4277 1.398 . S
C4278 C4279 1.391 . S
C4279 H4267 0.950 . S
C4279 C4275 1.393 . S
C4279 C4278 1.391 . S
H4280 C4288 0.950 . S
H4281 C4293 0.950 . S
H4282 C4290 0.950 . S
H4283 C4292 0.950 . S
H4284 C4294 0.950 . S
H4285 C4296 0.950 . S
H4286 C4298 0.950 . S
H4287 C4299 0.950 . S
C4288 H4280 0.950 . S
C4288 C4289 1.386 . S
C4288 C4290 1.391 . S
C4289 C4288 1.386 . S
C4289 C4293 1.393 . S
C4290 H4282 0.950 . S
C4290 C4288 1.391 . S
C4290 C4291 1.400 . S
C4291 C4290 1.400 . S
C4291 C4292 1.398 . S
C4291 C4297 1.491 . S
C4292 H4283 0.950 . S
C4292 C4291 1.398 . S
C4292 C4293 1.391 . S
C4293 H4281 0.950 . S
C4293 C4289 1.393 . S
C4293 C4292 1.391 . S
C4294 H4284 0.950 . S
C4294 C4295 1.386 . S
C4294 C4296 1.391 . S
C4295 C4294 1.386 . S
C4295 C4299 1.393 . S
C4296 H4285 0.950 . S
C4296 C4294 1.391 . S
C4296 C4297 1.400 . S
C4297 C4291 1.491 . S
C4297 C4296 1.400 . S
C4297 C4298 1.398 . S
C4298 H4286 0.950 . S
C4298 C4297 1.398 . S
C4298 C4299 1.391 . S
C4299 H4287 0.950 . S
C4299 C4295 1.393 . S
C4299 C4298 1.391 . S
H4300 C4308 0.950 . S
H4301 C4313 0.950 . S
H4302 C4310 0.950 . S
H4303 C4312 0.950 . S
H4304 C4314 0.950 . S
H4305 C4316 0.950 . S
H4306 C4318 0.950 . S
H4307 C4319 0.950 . S
C4308 H4300 0.950 . S
C4308 C4309 1.386 . S
C4308 C4310 1.391 . S
C4309 C4308 1.386 . S
C4309 C4313 1.393 . S
C4310 H4302 0.950 . S
C4310 C4308 1.391 . S
C4310 C4311 1.400 . S
C4311 C4310 1.400 . S
C4311 C4312 1.398 . S
C4311 C4317 1.491 . S
C4312 H4303 0.950 . S
C4312 C4311 1.398 . S
C4312 C4313 1.391 . S
C4313 H4301 0.950 . S
C4313 C4309 1.393 . S
C4313 C4312 1.391 . S
C4314 H4304 0.950 . S
C4314 C4315 1.386 . S
C4314 C4316 1.391 . S
C4315 C4314 1.386 . S
C4315 C4319 1.393 . S
C4316 H4305 0.950 . S
C4316 C4314 1.391 . S
C4316 C4317 1.400 . S
C4317 C4311 1.491 . S
C4317 C4316 1.400 . S
C4317 C4318 1.398 . S
C4318 H4306 0.950 . S
C4318 C4317 1.398 . S
C4318 C4319 1.391 . S
C4319 H4307 0.950 . S
C4319 C4315 1.393 . S
C4319 C4318 1.391 . S
H4320 C4328 0.950 . S
H4321 C4333 0.950 . S
H4322 C4330 0.950 . S
H4323 C4332 0.950 . S
H4324 C4334 0.950 . S
H4325 C4336 0.950 . S
H4326 C4338 0.950 . S
H4327 C4339 0.950 . S
C4328 H4320 0.950 . S
C4328 C4329 1.386 . S
C4328 C4330 1.391 . S
C4329 C4328 1.386 . S
C4329 C4333 1.393 . S
C4330 H4322 0.950 . S
C4330 C4328 1.391 . S
C4330 C4331 1.400 . S
C4331 C4330 1.400 . S
C4331 C4332 1.398 . S
C4331 C4337 1.491 . S
C4332 H4323 0.950 . S
C4332 C4331 1.398 . S
C4332 C4333 1.391 . S
C4333 H4321 0.950 . S
C4333 C4329 1.393 . S
C4333 C4332 1.391 . S
C4334 H4324 0.950 . S
C4334 C4335 1.386 . S
C4334 C4336 1.391 . S
C4335 C4334 1.386 . S
C4335 C4339 1.393 . S
C4336 H4325 0.950 . S
C4336 C4334 1.391 . S
C4336 C4337 1.400 . S
C4337 C4331 1.491 . S
C4337 C4336 1.400 . S
C4337 C4338 1.398 . S
C4338 H4326 0.950 . S
C4338 C4337 1.398 . S
C4338 C4339 1.391 . S
C4339 H4327 0.950 . S
C4339 C4335 1.393 . S
C4339 C4338 1.391 . S
H4340 C4348 0.950 . S
H4341 C4353 0.950 . S
H4342 C4350 0.950 . S
H4343 C4352 0.950 . S
H4344 C4354 0.950 . S
H4345 C4356 0.950 . S
H4346 C4358 0.950 . S
H4347 C4359 0.950 . S
C4348 H4340 0.950 . S
C4348 C4349 1.386 . S
C4348 C4350 1.391 . S
C4349 C4348 1.386 . S
C4349 C4353 1.393 . S
C4350 H4342 0.950 . S
C4350 C4348 1.391 . S
C4350 C4351 1.400 . S
C4351 C4350 1.400 . S
C4351 C4352 1.398 . S
C4351 C4357 1.491 . S
C4352 H4343 0.950 . S
C4352 C4351 1.398 . S
C4352 C4353 1.391 . S
C4353 H4341 0.950 . S
C4353 C4349 1.393 . S
C4353 C4352 1.391 . S
C4354 H4344 0.950 . S
C4354 C4355 1.386 . S
C4354 C4356 1.391 . S
C4355 C4354 1.386 . S
C4355 C4359 1.393 . S
C4356 H4345 0.950 . S
C4356 C4354 1.391 . S
C4356 C4357 1.400 . S
C4357 C4351 1.491 . S
C4357 C4356 1.400 . S
C4357 C4358 1.398 . S
C4358 H4346 0.950 . S
C4358 C4357 1.398 . S
C4358 C4359 1.391 . S
C4359 H4347 0.950 . S
C4359 C4355 1.393 . S
C4359 C4358 1.391 . S
H4360 C4368 0.950 . S
H4361 C4373 0.950 . S
H4362 C4370 0.950 . S
H4363 C4372 0.950 . S
H4364 C4374 0.950 . S
H4365 C4376 0.950 . S
H4366 C4378 0.950 . S
H4367 C4379 0.950 . S
C4368 H4360 0.950 . S
C4368 C4369 1.386 1_545 S
C4368 C4370 1.391 1_545 S
C4369 C4368 1.386 1_565 S
C4369 C4373 1.393 . S
C4370 H4362 0.950 . S
C4370 C4368 1.391 1_565 S
C4370 C4371 1.400 . S
C4371 C4370 1.400 . S
C4371 C4372 1.398 . S
C4371 C4377 1.491 . S
C4372 H4363 0.950 . S
C4372 C4371 1.398 . S
C4372 C4373 1.391 . S
C4373 H4361 0.950 . S
C4373 C4369 1.393 . S
C4373 C4372 1.391 . S
C4374 H4364 0.950 . S
C4374 C4375 1.386 . S
C4374 C4376 1.391 . S
C4375 C4374 1.386 . S
C4375 C4379 1.393 . S
C4376 H4365 0.950 . S
C4376 C4374 1.391 . S
C4376 C4377 1.400 . S
C4377 C4371 1.491 . S
C4377 C4376 1.400 . S
C4377 C4378 1.398 . S
C4378 H4366 0.950 . S
C4378 C4377 1.398 . S
C4378 C4379 1.391 . S
C4379 H4367 0.950 . S
C4379 C4375 1.393 . S
C4379 C4378 1.391 . S
H4380 C4388 0.950 . S
H4381 C4393 0.950 . S
H4382 C4390 0.950 . S
H4383 C4392 0.950 . S
H4384 C4394 0.950 . S
H4385 C4396 0.950 . S
H4386 C4398 0.950 . S
H4387 C4399 0.950 . S
C4388 H4380 0.950 . S
C4388 C4389 1.386 . S
C4388 C4390 1.391 . S
C4389 C4388 1.386 . S
C4389 C4393 1.393 . S
C4390 H4382 0.950 . S
C4390 C4388 1.391 . S
C4390 C4391 1.400 . S
C4391 C4390 1.400 . S
C4391 C4392 1.398 . S
C4391 C4397 1.491 . S
C4392 H4383 0.950 . S
C4392 C4391 1.398 . S
C4392 C4393 1.391 . S
C4393 H4381 0.950 . S
C4393 C4389 1.393 . S
C4393 C4392 1.391 . S
C4394 H4384 0.950 . S
C4394 C4395 1.427 . S
C4394 C4396 1.391 . S
C4395 C4394 1.427 . S
C4395 C4399 1.382 1_565 S
C4396 H4385 0.950 . S
C4396 C4394 1.391 . S
C4396 C4397 1.400 . S
C4397 C4391 1.491 . S
C4397 C4396 1.400 . S
C4397 C4398 1.398 . S
C4398 H4386 0.950 . S
C4398 C4397 1.398 . S
C4398 C4399 1.391 1_565 S
C4399 H4387 0.950 . S
C4399 C4395 1.382 1_545 S
C4399 C4398 1.391 1_545 S
H4400 C4408 0.950 . S
H4401 C4413 0.950 . S
H4402 C4410 0.950 . S
H4403 C4412 0.950 . S
H4404 C4414 0.950 . S
H4405 C4416 0.950 . S
H4406 C4418 0.950 . S
H4407 C4419 0.950 . S
C4408 H4400 0.950 . S
C4408 C4409 1.386 . S
C4408 C4410 1.391 . S
C4409 C4408 1.386 . S
C4409 C4413 1.393 . S
C4410 H4402 0.950 . S
C4410 C4408 1.391 . S
C4410 C4411 1.400 . S
C4411 C4410 1.400 . S
C4411 C4412 1.398 . S
C4411 C4417 1.491 . S
C4412 H4403 0.950 . S
C4412 C4411 1.398 . S
C4412 C4413 1.391 . S
C4413 H4401 0.950 . S
C4413 C4409 1.393 . S
C4413 C4412 1.391 . S
C4414 H4404 0.950 . S
C4414 C4415 1.386 . S
C4414 C4416 1.391 . S
C4415 C4414 1.386 . S
C4415 C4419 1.393 . S
C4416 H4405 0.950 . S
C4416 C4414 1.391 . S
C4416 C4417 1.400 . S
C4417 C4411 1.491 . S
C4417 C4416 1.400 . S
C4417 C4418 1.398 . S
C4418 H4406 0.950 . S
C4418 C4417 1.398 . S
C4418 C4419 1.391 . S
C4419 H4407 0.950 . S
C4419 C4415 1.393 . S
C4419 C4418 1.391 . S
H4420 C4428 0.950 . S
H4421 C4433 0.950 . S
H4422 C4430 0.950 . S
H4423 C4432 0.950 . S
H4424 C4434 0.950 . S
H4425 C4436 0.950 . S
H4426 C4438 0.950 . S
H4427 C4439 0.950 . S
C4428 H4420 0.950 . S
C4428 C4429 1.386 . S
C4428 C4430 1.391 . S
C4429 C4428 1.386 . S
C4429 C4433 1.393 . S
C4430 H4422 0.950 . S
C4430 C4428 1.391 . S
C4430 C4431 1.400 . S
C4431 C4430 1.400 . S
C4431 C4432 1.398 . S
C4431 C4437 1.491 . S
C4432 H4423 0.950 . S
C4432 C4431 1.398 . S
C4432 C4433 1.391 . S
C4433 H4421 0.950 . S
C4433 C4429 1.393 . S
C4433 C4432 1.391 . S
C4434 H4424 0.950 . S
C4434 C4435 1.386 . S
C4434 C4436 1.391 . S
C4435 C4434 1.386 . S
C4435 C4439 1.393 . S
C4436 H4425 0.950 . S
C4436 C4434 1.391 . S
C4436 C4437 1.400 . S
C4437 C4431 1.491 . S
C4437 C4436 1.400 . S
C4437 C4438 1.398 . S
C4438 H4426 0.950 . S
C4438 C4437 1.398 . S
C4438 C4439 1.391 . S
C4439 H4427 0.950 . S
C4439 C4435 1.393 . S
C4439 C4438 1.391 . S
H4440 C4448 0.950 1_455 S
H4441 C4453 0.950 . S
H4442 C4450 0.950 . S
H4443 C4452 0.950 . S
H4444 C4454 0.950 . S
H4445 C4456 0.950 . S
H4446 C4458 0.950 . S
H4447 C4459 0.950 . S
C4448 H4440 0.950 1_655 S
C4448 C4449 1.386 . S
C4448 C4450 1.391 . S
C4449 C4448 1.386 . S
C4449 C4453 1.393 . S
C4450 H4442 0.950 . S
C4450 C4448 1.391 . S
C4450 C4451 1.400 . S
C4451 C4450 1.400 . S
C4451 C4452 1.398 . S
C4451 C4457 1.491 . S
C4452 H4443 0.950 . S
C4452 C4451 1.398 . S
C4452 C4453 1.391 . S
C4453 H4441 0.950 . S
C4453 C4449 1.393 . S
C4453 C4452 1.391 . S
C4454 H4444 0.950 . S
C4454 C4455 1.386 . S
C4454 C4456 1.391 . S
C4455 C4454 1.386 . S
C4455 C4459 1.393 . S
C4456 H4445 0.950 . S
C4456 C4454 1.391 . S
C4456 C4457 1.400 . S
C4457 C4451 1.491 . S
C4457 C4456 1.400 . S
C4457 C4458 1.398 . S
C4458 H4446 0.950 . S
C4458 C4457 1.398 . S
C4458 C4459 1.391 . S
C4459 H4447 0.950 . S
C4459 C4455 1.393 . S
C4459 C4458 1.391 . S
H4460 C4468 0.950 . S
H4461 C4473 0.950 . S
H4462 C4470 0.950 . S
H4463 C4472 0.950 . S
H4464 C4474 0.950 . S
H4465 C4476 0.950 . S
H4466 C4478 0.950 . S
H4467 C4479 0.950 . S
C4468 H4460 0.950 . S
C4468 C4469 1.386 . S
C4468 C4470 1.391 . S
C4469 C4468 1.386 . S
C4469 C4473 1.393 . S
C4470 H4462 0.950 . S
C4470 C4468 1.391 . S
C4470 C4471 1.400 . S
C4471 C4470 1.400 . S
C4471 C4472 1.398 . S
C4471 C4477 1.491 . S
C4472 H4463 0.950 . S
C4472 C4471 1.398 . S
C4472 C4473 1.391 . S
C4473 H4461 0.950 . S
C4473 C4469 1.393 . S
C4473 C4472 1.391 . S
C4474 H4464 0.950 . S
C4474 C4475 1.386 . S
C4474 C4476 1.391 . S
C4475 C4474 1.386 . S
C4475 C4479 1.393 . S
C4476 H4465 0.950 . S
C4476 C4474 1.391 . S
C4476 C4477 1.400 . S
C4477 C4471 1.491 . S
C4477 C4476 1.400 . S
C4477 C4478 1.398 . S
C4478 H4466 0.950 . S
C4478 C4477 1.398 . S
C4478 C4479 1.391 . S
C4479 H4467 0.950 . S
C4479 C4475 1.393 . S
C4479 C4478 1.391 . S
H4480 C4488 0.950 . S
H4481 C4493 0.950 . S
H4482 C4490 0.950 . S
H4483 C4492 0.950 . S
H4484 C4494 0.950 . S
H4485 C4496 0.950 . S
H4486 C4498 0.950 . S
H4487 C4499 0.950 1_455 S
C4488 H4480 0.950 . S
C4488 C4489 1.386 . S
C4488 C4490 1.391 . S
C4489 C4488 1.386 . S
C4489 C4493 1.393 . S
C4490 H4482 0.950 . S
C4490 C4488 1.391 . S
C4490 C4491 1.400 . S
C4491 C4490 1.400 . S
C4491 C4492 1.398 . S
C4491 C4497 1.491 . S
C4492 H4483 0.950 . S
C4492 C4491 1.398 . S
C4492 C4493 1.391 . S
C4493 H4481 0.950 . S
C4493 C4489 1.393 . S
C4493 C4492 1.391 . S
C4494 H4484 0.950 . S
C4494 C4495 1.386 . S
C4494 C4496 1.391 . S
C4495 C4494 1.386 . S
C4495 C4499 1.393 . S
C4496 H4485 0.950 . S
C4496 C4494 1.391 . S
C4496 C4497 1.400 . S
C4497 C4491 1.491 . S
C4497 C4496 1.400 . S
C4497 C4498 1.398 . S
C4498 H4486 0.950 . S
C4498 C4497 1.398 . S
C4498 C4499 1.391 . S
C4499 H4487 0.950 1_655 S
C4499 C4495 1.393 . S
C4499 C4498 1.391 . S
H4500 C4508 0.950 . S
H4501 C4513 0.950 . S
H4502 C4510 0.950 . S
H4503 C4512 0.950 . S
H4504 C4514 0.950 . S
H4505 C4516 0.950 . S
H4506 C4518 0.950 . S
H4507 C4519 0.950 . S
C4508 H4500 0.950 . S
C4508 C4509 1.386 . S
C4508 C4510 1.391 . S
C4509 C4508 1.386 . S
C4509 C4513 1.393 . S
C4510 H4502 0.950 . S
C4510 C4508 1.391 . S
C4510 C4511 1.400 . S
C4511 C4510 1.400 . S
C4511 C4512 1.398 . S
C4511 C4517 1.491 . S
C4512 H4503 0.950 . S
C4512 C4511 1.398 . S
C4512 C4513 1.391 . S
C4513 H4501 0.950 . S
C4513 C4509 1.393 . S
C4513 C4512 1.391 . S
C4514 H4504 0.950 . S
C4514 C4515 1.386 . S
C4514 C4516 1.391 . S
C4515 C4514 1.386 . S
C4515 C4519 1.393 . S
C4516 H4505 0.950 . S
C4516 C4514 1.391 . S
C4516 C4517 1.400 . S
C4517 C4511 1.491 . S
C4517 C4516 1.400 . S
C4517 C4518 1.398 . S
C4518 H4506 0.950 . S
C4518 C4517 1.398 . S
C4518 C4519 1.391 . S
C4519 H4507 0.950 . S
C4519 C4515 1.393 . S
C4519 C4518 1.391 . S
H4520 C4528 0.950 . S
H4521 C4533 0.950 . S
H4522 C4530 0.950 . S
H4523 C4532 0.950 . S
H4524 C4534 0.950 . S
H4525 C4536 0.950 . S
H4526 C4538 0.950 . S
H4527 C4539 0.950 . S
C4528 H4520 0.950 . S
C4528 C4529 1.386 . S
C4528 C4530 1.391 . S
C4529 C4528 1.386 . S
C4529 C4533 1.393 . S
C4530 H4522 0.950 . S
C4530 C4528 1.391 . S
C4530 C4531 1.400 . S
C4531 C4530 1.400 . S
C4531 C4532 1.398 . S
C4531 C4537 1.491 . S
C4532 H4523 0.950 . S
C4532 C4531 1.398 . S
C4532 C4533 1.391 . S
C4533 H4521 0.950 . S
C4533 C4529 1.393 . S
C4533 C4532 1.391 . S
C4534 H4524 0.950 . S
C4534 C4535 1.386 . S
C4534 C4536 1.391 . S
C4535 C4534 1.386 . S
C4535 C4539 1.393 . S
C4536 H4525 0.950 . S
C4536 C4534 1.391 . S
C4536 C4537 1.400 . S
C4537 C4531 1.491 . S
C4537 C4536 1.400 . S
C4537 C4538 1.398 . S
C4538 H4526 0.950 . S
C4538 C4537 1.398 . S
C4538 C4539 1.391 . S
C4539 H4527 0.950 . S
C4539 C4535 1.393 . S
C4539 C4538 1.391 . S
H4540 C4548 0.950 . S
H4541 C4553 0.950 . S
H4542 C4550 0.950 . S
H4543 C4552 0.950 . S
H4544 C4554 0.950 . S
H4545 C4556 0.950 . S
H4546 C4558 0.950 . S
H4547 C4559 0.950 . S
C4548 H4540 0.950 . S
C4548 C4549 1.386 . S
C4548 C4550 1.391 . S
C4549 C4548 1.386 . S
C4549 C4553 1.393 . S
C4550 H4542 0.950 . S
C4550 C4548 1.391 . S
C4550 C4551 1.400 . S
C4551 C4550 1.400 . S
C4551 C4552 1.398 . S
C4551 C4557 1.491 . S
C4552 H4543 0.950 . S
C4552 C4551 1.398 . S
C4552 C4553 1.391 . S
C4553 H4541 0.950 . S
C4553 C4549 1.393 . S
C4553 C4552 1.391 . S
C4554 H4544 0.950 . S
C4554 C4555 1.386 . S
C4554 C4556 1.391 . S
C4555 C4554 1.386 . S
C4555 C4559 1.393 . S
C4556 H4545 0.950 . S
C4556 C4554 1.391 . S
C4556 C4557 1.400 . S
C4557 C4551 1.491 . S
C4557 C4556 1.400 . S
C4557 C4558 1.398 . S
C4558 H4546 0.950 . S
C4558 C4557 1.398 . S
C4558 C4559 1.391 . S
C4559 H4547 0.950 . S
C4559 C4555 1.393 . S
C4559 C4558 1.391 . S
H4560 C4568 0.950 . S
H4561 C4573 0.950 . S
H4562 C4570 0.950 . S
H4563 C4572 0.950 . S
H4564 C4574 0.950 . S
H4565 C4576 0.950 . S
H4566 C4578 0.950 . S
H4567 C4579 0.950 . S
C4568 H4560 0.950 . S
C4568 C4569 1.386 . S
C4568 C4570 1.391 . S
C4569 C4568 1.386 . S
C4569 C4573 1.393 . S
C4570 H4562 0.950 . S
C4570 C4568 1.391 . S
C4570 C4571 1.400 . S
C4571 C4570 1.400 . S
C4571 C4572 1.398 . S
C4571 C4577 1.491 . S
C4572 H4563 0.950 . S
C4572 C4571 1.398 . S
C4572 C4573 1.391 . S
C4573 H4561 0.950 . S
C4573 C4569 1.393 . S
C4573 C4572 1.391 . S
C4574 H4564 0.950 . S
C4574 C4575 1.386 . S
C4574 C4576 1.391 . S
C4575 C4574 1.386 . S
C4575 C4579 1.393 . S
C4576 H4565 0.950 . S
C4576 C4574 1.391 . S
C4576 C4577 1.400 . S
C4577 C4571 1.491 . S
C4577 C4576 1.400 . S
C4577 C4578 1.398 . S
C4578 H4566 0.950 . S
C4578 C4577 1.398 . S
C4578 C4579 1.391 . S
C4579 H4567 0.950 . S
C4579 C4575 1.393 . S
C4579 C4578 1.391 . S
H4580 C4588 0.950 . S
H4581 C4593 0.950 . S
H4582 C4590 0.950 . S
H4583 C4592 0.950 . S
H4584 C4594 0.950 . S
H4585 C4596 0.950 . S
H4586 C4598 0.950 . S
H4587 C4599 0.950 . S
C4588 H4580 0.950 . S
C4588 C4589 1.386 . S
C4588 C4590 1.391 . S
C4589 C4588 1.386 . S
C4589 C4593 1.393 . S
C4590 H4582 0.950 . S
C4590 C4588 1.391 . S
C4590 C4591 1.400 . S
C4591 C4590 1.400 . S
C4591 C4592 1.398 . S
C4591 C4597 1.491 . S
C4592 H4583 0.950 . S
C4592 C4591 1.398 . S
C4592 C4593 1.391 . S
C4593 H4581 0.950 . S
C4593 C4589 1.393 . S
C4593 C4592 1.391 . S
C4594 H4584 0.950 . S
C4594 C4595 1.386 . S
C4594 C4596 1.391 . S
C4595 C4594 1.386 . S
C4595 C4599 1.393 . S
C4596 H4585 0.950 . S
C4596 C4594 1.391 . S
C4596 C4597 1.400 . S
C4597 C4591 1.491 . S
C4597 C4596 1.400 . S
C4597 C4598 1.398 . S
C4598 H4586 0.950 . S
C4598 C4597 1.398 . S
C4598 C4599 1.391 . S
C4599 H4587 0.950 . S
C4599 C4595 1.393 . S
C4599 C4598 1.391 . S
H4600 C4608 0.950 . S
H4601 C4613 0.950 . S
H4602 C4610 0.950 . S
H4603 C4612 0.950 . S
H4604 C4614 0.950 . S
H4605 C4616 0.950 . S
H4606 C4618 0.950 . S
H4607 C4619 0.950 . S
C4608 H4600 0.950 . S
C4608 C4609 1.386 . S
C4608 C4610 1.391 . S
C4609 C4608 1.386 . S
C4609 C4613 1.393 . S
C4610 H4602 0.950 . S
C4610 C4608 1.391 . S
C4610 C4611 1.400 . S
C4611 C4610 1.400 . S
C4611 C4612 1.398 . S
C4611 C4617 1.491 . S
C4612 H4603 0.950 . S
C4612 C4611 1.398 . S
C4612 C4613 1.391 . S
C4613 H4601 0.950 . S
C4613 C4609 1.393 . S
C4613 C4612 1.391 . S
C4614 H4604 0.950 . S
C4614 C4615 1.386 . S
C4614 C4616 1.391 . S
C4615 C4614 1.386 . S
C4615 C4619 1.393 . S
C4616 H4605 0.950 . S
C4616 C4614 1.391 . S
C4616 C4617 1.400 . S
C4617 C4611 1.491 . S
C4617 C4616 1.400 . S
C4617 C4618 1.398 . S
C4618 H4606 0.950 . S
C4618 C4617 1.398 . S
C4618 C4619 1.391 . S
C4619 H4607 0.950 . S
C4619 C4615 1.393 . S
C4619 C4618 1.391 . S
H4620 C4628 0.950 . S
H4621 C4633 0.950 . S
H4622 C4630 0.950 . S
H4623 C4632 0.950 . S
H4624 C4634 0.950 . S
H4625 C4636 0.950 . S
H4626 C4638 0.950 . S
H4627 C4639 0.950 . S
C4628 H4620 0.950 . S
C4628 C4629 1.386 . S
C4628 C4630 1.391 . S
C4629 C4628 1.386 . S
C4629 C4633 1.393 . S
C4630 H4622 0.950 . S
C4630 C4628 1.391 . S
C4630 C4631 1.400 . S
C4631 C4630 1.400 . S
C4631 C4632 1.398 . S
C4631 C4637 1.491 . S
C4632 H4623 0.950 . S
C4632 C4631 1.398 . S
C4632 C4633 1.391 . S
C4633 H4621 0.950 . S
C4633 C4629 1.393 . S
C4633 C4632 1.391 . S
C4634 H4624 0.950 . S
C4634 C4635 1.386 . S
C4634 C4636 1.391 . S
C4635 C4634 1.386 . S
C4635 C4639 1.393 . S
C4636 H4625 0.950 . S
C4636 C4634 1.391 . S
C4636 C4637 1.400 . S
C4637 C4631 1.491 . S
C4637 C4636 1.400 . S
C4637 C4638 1.398 . S
C4638 H4626 0.950 . S
C4638 C4637 1.398 . S
C4638 C4639 1.391 . S
C4639 H4627 0.950 . S
C4639 C4635 1.393 . S
C4639 C4638 1.391 . S
H4640 C4648 0.950 . S
H4641 C4653 0.950 . S
H4642 C4650 0.950 . S
H4643 C4652 0.950 . S
H4644 C4654 0.950 . S
H4645 C4656 0.950 . S
H4646 C4658 0.950 . S
H4647 C4659 0.950 . S
C4648 H4640 0.950 . S
C4648 C4649 1.386 . S
C4648 C4650 1.391 . S
C4649 C4648 1.386 . S
C4649 C4653 1.393 . S
C4650 H4642 0.950 . S
C4650 C4648 1.391 . S
C4650 C4651 1.400 . S
C4651 C4650 1.400 . S
C4651 C4652 1.398 . S
C4651 C4657 1.491 . S
C4652 H4643 0.950 . S
C4652 C4651 1.398 . S
C4652 C4653 1.391 . S
C4653 H4641 0.950 . S
C4653 C4649 1.393 . S
C4653 C4652 1.391 . S
C4654 H4644 0.950 . S
C4654 C4655 1.386 . S
C4654 C4656 1.391 . S
C4655 C4654 1.386 . S
C4655 C4659 1.393 . S
C4656 H4645 0.950 . S
C4656 C4654 1.391 . S
C4656 C4657 1.400 . S
C4657 C4651 1.491 . S
C4657 C4656 1.400 . S
C4657 C4658 1.398 . S
C4658 H4646 0.950 . S
C4658 C4657 1.398 . S
C4658 C4659 1.391 . S
C4659 H4647 0.950 . S
C4659 C4655 1.393 . S
C4659 C4658 1.391 . S
H4660 C4668 0.950 . S
H4661 C4673 0.950 . S
H4662 C4670 0.950 . S
H4663 C4672 0.950 . S
H4664 C4674 0.950 . S
H4665 C4676 0.950 . S
H4666 C4678 0.950 . S
H4667 C4679 0.950 . S
C4668 H4660 0.950 . S
C4668 C4669 1.386 . S
C4668 C4670 1.391 . S
C4669 C4668 1.386 . S
C4669 C4673 1.393 . S
C4670 H4662 0.950 . S
C4670 C4668 1.391 . S
C4670 C4671 1.400 . S
C4671 C4670 1.400 . S
C4671 C4672 1.398 . S
C4671 C4677 1.491 . S
C4672 H4663 0.950 . S
C4672 C4671 1.398 . S
C4672 C4673 1.391 . S
C4673 H4661 0.950 . S
C4673 C4669 1.393 . S
C4673 C4672 1.391 . S
C4674 H4664 0.950 . S
C4674 C4675 1.386 . S
C4674 C4676 1.391 . S
C4675 C4674 1.386 . S
C4675 C4679 1.393 . S
C4676 H4665 0.950 . S
C4676 C4674 1.391 . S
C4676 C4677 1.400 . S
C4677 C4671 1.491 . S
C4677 C4676 1.400 . S
C4677 C4678 1.398 . S
C4678 H4666 0.950 . S
C4678 C4677 1.398 . S
C4678 C4679 1.391 . S
C4679 H4667 0.950 . S
C4679 C4675 1.393 . S
C4679 C4678 1.391 . S
H4680 C4688 0.950 . S
H4681 C4693 0.950 . S
H4682 C4690 0.950 . S
H4683 C4692 0.950 . S
H4684 C4694 0.950 . S
H4685 C4696 0.950 . S
H4686 C4698 0.950 . S
H4687 C4699 0.950 . S
C4688 H4680 0.950 . S
C4688 C4689 1.386 . S
C4688 C4690 1.391 . S
C4689 C4688 1.386 . S
C4689 C4693 1.393 . S
C4690 H4682 0.950 . S
C4690 C4688 1.391 . S
C4690 C4691 1.400 . S
C4691 C4690 1.400 . S
C4691 C4692 1.398 . S
C4691 C4697 1.491 . S
C4692 H4683 0.950 . S
C4692 C4691 1.398 . S
C4692 C4693 1.391 . S
C4693 H4681 0.950 . S
C4693 C4689 1.393 . S
C4693 C4692 1.391 . S
C4694 H4684 0.950 . S
C4694 C4695 1.386 . S
C4694 C4696 1.391 . S
C4695 C4694 1.386 . S
C4695 C4699 1.393 . S
C4696 H4685 0.950 . S
C4696 C4694 1.391 . S
C4696 C4697 1.400 . S
C4697 C4691 1.491 . S
C4697 C4696 1.400 . S
C4697 C4698 1.398 . S
C4698 H4686 0.950 . S
C4698 C4697 1.398 . S
C4698 C4699 1.391 . S
C4699 H4687 0.950 . S
C4699 C4695 1.393 . S
C4699 C4698 1.391 . S
H4700 C4708 0.950 . S
H4701 C4713 0.950 . S
H4702 C4710 0.950 . S
H4703 C4712 0.950 . S
H4704 C4714 0.950 . S
H4705 C4716 0.950 . S
H4706 C4718 0.950 . S
H4707 C4719 0.950 . S
C4708 H4700 0.950 . S
C4708 C4709 1.386 . S
C4708 C4710 1.391 . S
C4709 C4708 1.386 . S
C4709 C4713 1.393 . S
C4710 H4702 0.950 . S
C4710 C4708 1.391 . S
C4710 C4711 1.400 . S
C4711 C4710 1.400 . S
C4711 C4712 1.398 . S
C4711 C4717 1.491 . S
C4712 H4703 0.950 . S
C4712 C4711 1.398 . S
C4712 C4713 1.391 . S
C4713 H4701 0.950 . S
C4713 C4709 1.393 . S
C4713 C4712 1.391 . S
C4714 H4704 0.950 . S
C4714 C4715 1.386 . S
C4714 C4716 1.391 . S
C4715 C4714 1.386 . S
C4715 C4719 1.393 . S
C4716 H4705 0.950 . S
C4716 C4714 1.391 . S
C4716 C4717 1.400 . S
C4717 C4711 1.491 . S
C4717 C4716 1.400 . S
C4717 C4718 1.398 . S
C4718 H4706 0.950 . S
C4718 C4717 1.398 . S
C4718 C4719 1.391 . S
C4719 H4707 0.950 . S
C4719 C4715 1.393 . S
C4719 C4718 1.391 . S
H4720 C4728 0.950 . S
H4721 C4733 0.950 . S
H4722 C4730 0.950 . S
H4723 C4732 0.950 . S
H4724 C4734 0.950 . S
H4725 C4736 0.950 . S
H4726 C4738 0.950 . S
H4727 C4739 0.950 . S
C4728 H4720 0.950 . S
C4728 C4729 1.386 . S
C4728 C4730 1.391 . S
C4729 C4728 1.386 . S
C4729 C4733 1.393 . S
C4730 H4722 0.950 . S
C4730 C4728 1.391 . S
C4730 C4731 1.400 . S
C4731 C4730 1.400 . S
C4731 C4732 1.398 . S
C4731 C4737 1.491 . S
C4732 H4723 0.950 . S
C4732 C4731 1.398 . S
C4732 C4733 1.391 . S
C4733 H4721 0.950 . S
C4733 C4729 1.393 . S
C4733 C4732 1.391 . S
C4734 H4724 0.950 . S
C4734 C4735 1.386 . S
C4734 C4736 1.391 . S
C4735 C4734 1.386 . S
C4735 C4739 1.393 . S
C4736 H4725 0.950 . S
C4736 C4734 1.391 . S
C4736 C4737 1.400 . S
C4737 C4731 1.491 . S
C4737 C4736 1.400 . S
C4737 C4738 1.398 . S
C4738 H4726 0.950 . S
C4738 C4737 1.398 . S
C4738 C4739 1.391 . S
C4739 H4727 0.950 . S
C4739 C4735 1.393 . S
C4739 C4738 1.391 . S
H4740 C4748 0.950 . S
H4741 C4753 0.950 . S
H4742 C4750 0.950 . S
H4743 C4752 0.950 . S
H4744 C4754 0.950 . S
H4745 C4756 0.950 . S
H4746 C4758 0.950 . S
H4747 C4759 0.950 . S
C4748 H4740 0.950 . S
C4748 C4749 1.386 . S
C4748 C4750 1.391 . S
C4749 C4748 1.386 . S
C4749 C4753 1.393 . S
C4750 H4742 0.950 . S
C4750 C4748 1.391 . S
C4750 C4751 1.400 . S
C4751 C4750 1.400 . S
C4751 C4752 1.398 . S
C4751 C4757 1.491 . S
C4752 H4743 0.950 . S
C4752 C4751 1.398 . S
C4752 C4753 1.391 . S
C4753 H4741 0.950 . S
C4753 C4749 1.393 . S
C4753 C4752 1.391 . S
C4754 H4744 0.950 . S
C4754 C4755 1.386 . S
C4754 C4756 1.391 . S
C4755 C4754 1.386 . S
C4755 C4759 1.393 . S
C4756 H4745 0.950 . S
C4756 C4754 1.391 . S
C4756 C4757 1.400 . S
C4757 C4751 1.491 . S
C4757 C4756 1.400 . S
C4757 C4758 1.398 . S
C4758 H4746 0.950 . S
C4758 C4757 1.398 . S
C4758 C4759 1.391 . S
C4759 H4747 0.950 . S
C4759 C4755 1.393 . S
C4759 C4758 1.391 . S
H4760 C4768 0.950 . S
H4761 C4773 0.950 . S
H4762 C4770 0.950 . S
H4763 C4772 0.950 . S
H4764 C4774 0.950 . S
H4765 C4776 0.950 . S
H4766 C4778 0.950 . S
H4767 C4779 0.950 . S
C4768 H4760 0.950 . S
C4768 C4769 1.386 . S
C4768 C4770 1.391 . S
C4769 C4768 1.386 . S
C4769 C4773 1.393 . S
C4770 H4762 0.950 . S
C4770 C4768 1.391 . S
C4770 C4771 1.400 . S
C4771 C4770 1.400 . S
C4771 C4772 1.398 . S
C4771 C4777 1.491 . S
C4772 H4763 0.950 . S
C4772 C4771 1.398 . S
C4772 C4773 1.391 . S
C4773 H4761 0.950 . S
C4773 C4769 1.393 . S
C4773 C4772 1.391 . S
C4774 H4764 0.950 . S
C4774 C4775 1.386 . S
C4774 C4776 1.391 . S
C4775 C4774 1.386 . S
C4775 C4779 1.393 . S
C4776 H4765 0.950 . S
C4776 C4774 1.391 . S
C4776 C4777 1.400 . S
C4777 C4771 1.491 . S
C4777 C4776 1.400 . S
C4777 C4778 1.398 . S
C4778 H4766 0.950 . S
C4778 C4777 1.398 . S
C4778 C4779 1.391 . S
C4779 H4767 0.950 . S
C4779 C4775 1.393 . S
C4779 C4778 1.391 . S
H4780 C4788 0.950 . S
H4781 C4793 0.950 . S
H4782 C4790 0.950 . S
H4783 C4792 0.950 . S
H4784 C4794 0.950 . S
H4785 C4796 0.950 . S
H4786 C4798 0.950 . S
H4787 C4799 0.950 . S
C4788 H4780 0.950 . S
C4788 C4789 1.386 . S
C4788 C4790 1.391 . S
C4789 C4788 1.386 . S
C4789 C4793 1.393 . S
C4790 H4782 0.950 . S
C4790 C4788 1.391 . S
C4790 C4791 1.400 . S
C4791 C4790 1.400 . S
C4791 C4792 1.398 . S
C4791 C4797 1.491 . S
C4792 H4783 0.950 . S
C4792 C4791 1.398 . S
C4792 C4793 1.391 . S
C4793 H4781 0.950 . S
C4793 C4789 1.393 . S
C4793 C4792 1.391 . S
C4794 H4784 0.950 . S
C4794 C4795 1.386 . S
C4794 C4796 1.391 . S
C4795 C4794 1.386 . S
C4795 C4799 1.393 . S
C4796 H4785 0.950 . S
C4796 C4794 1.391 . S
C4796 C4797 1.400 . S
C4797 C4791 1.491 . S
C4797 C4796 1.400 . S
C4797 C4798 1.398 . S
C4798 H4786 0.950 . S
C4798 C4797 1.398 . S
C4798 C4799 1.391 . S
C4799 H4787 0.950 . S
C4799 C4795 1.393 . S
C4799 C4798 1.391 . S
H4800 C4808 0.950 . S
H4801 C4813 0.950 . S
H4802 C4810 0.950 . S
H4803 C4812 0.950 . S
H4804 C4814 0.950 . S
H4805 C4816 0.950 . S
H4806 C4818 0.950 . S
H4807 C4819 0.950 . S
C4808 H4800 0.950 . S
C4808 C4809 1.386 . S
C4808 C4810 1.391 . S
C4809 C4808 1.386 . S
C4809 C4813 1.393 . S
C4810 H4802 0.950 . S
C4810 C4808 1.391 . S
C4810 C4811 1.400 . S
C4811 C4810 1.400 . S
C4811 C4812 1.398 . S
C4811 C4817 1.491 . S
C4812 H4803 0.950 . S
C4812 C4811 1.398 . S
C4812 C4813 1.391 . S
C4813 H4801 0.950 . S
C4813 C4809 1.393 . S
C4813 C4812 1.391 . S
C4814 H4804 0.950 . S
C4814 C4815 1.386 . S
C4814 C4816 1.391 . S
C4815 C4814 1.386 . S
C4815 C4819 1.393 . S
C4816 H4805 0.950 . S
C4816 C4814 1.391 . S
C4816 C4817 1.400 . S
C4817 C4811 1.491 . S
C4817 C4816 1.400 . S
C4817 C4818 1.398 . S
C4818 H4806 0.950 . S
C4818 C4817 1.398 . S
C4818 C4819 1.391 . S
C4819 H4807 0.950 . S
C4819 C4815 1.393 . S
C4819 C4818 1.391 . S
H4820 C4828 0.950 . S
H4821 C4833 0.950 . S
H4822 C4830 0.950 . S
H4823 C4832 0.950 . S
H4824 C4834 0.950 . S
H4825 C4836 0.950 . S
H4826 C4838 0.950 . S
H4827 C4839 0.950 . S
C4828 H4820 0.950 . S
C4828 C4829 1.386 . S
C4828 C4830 1.391 . S
C4829 C4828 1.386 . S
C4829 C4833 1.393 . S
C4830 H4822 0.950 . S
C4830 C4828 1.391 . S
C4830 C4831 1.400 . S
C4831 C4830 1.400 . S
C4831 C4832 1.398 . S
C4831 C4837 1.491 . S
C4832 H4823 0.950 . S
C4832 C4831 1.398 . S
C4832 C4833 1.391 . S
C4833 H4821 0.950 . S
C4833 C4829 1.393 . S
C4833 C4832 1.391 . S
C4834 H4824 0.950 . S
C4834 C4835 1.386 . S
C4834 C4836 1.391 . S
C4835 C4834 1.386 . S
C4835 C4839 1.393 . S
C4836 H4825 0.950 . S
C4836 C4834 1.391 . S
C4836 C4837 1.400 . S
C4837 C4831 1.491 . S
C4837 C4836 1.400 . S
C4837 C4838 1.398 . S
C4838 H4826 0.950 . S
C4838 C4837 1.398 . S
C4838 C4839 1.391 . S
C4839 H4827 0.950 . S
C4839 C4835 1.393 . S
C4839 C4838 1.391 . S
H4840 C4848 0.900 1_554 S
H4841 C4853 0.950 . S
H4842 C4850 0.950 . S
H4843 C4852 0.950 . S
H4844 C4854 0.950 . S
H4845 C4856 0.950 . S
H4846 C4858 0.950 . S
H4847 C4859 0.950 . S
C4848 H4840 0.900 1_556 S
C4848 C4849 1.386 . S
C4848 C4850 1.391 . S
C4849 C4848 1.386 . S
C4849 C4853 1.393 . S
C4850 H4842 0.950 . S
C4850 C4848 1.391 . S
C4850 C4851 1.400 . S
C4851 C4850 1.400 . S
C4851 C4852 1.398 . S
C4851 C4857 1.491 . S
C4852 H4843 0.950 . S
C4852 C4851 1.398 . S
C4852 C4853 1.391 . S
C4853 H4841 0.950 . S
C4853 C4849 1.393 . S
C4853 C4852 1.391 . S
C4854 H4844 0.950 . S
C4854 C4855 1.386 . S
C4854 C4856 1.391 . S
C4855 C4854 1.386 . S
C4855 C4859 1.393 . S
C4856 H4845 0.950 . S
C4856 C4854 1.391 . S
C4856 C4857 1.400 . S
C4857 C4851 1.491 . S
C4857 C4856 1.400 . S
C4857 C4858 1.398 . S
C4858 H4846 0.950 . S
C4858 C4857 1.398 . S
C4858 C4859 1.391 . S
C4859 H4847 0.950 . S
C4859 C4855 1.393 . S
C4859 C4858 1.391 . S
H4860 C4868 0.950 . S
H4861 C4873 0.950 . S
H4862 C4870 0.950 . S
H4863 C4872 0.950 . S
H4864 C4874 0.950 . S
H4865 C4876 0.950 . S
H4866 C4878 0.950 . S
H4867 C4879 0.950 . S
C4868 H4860 0.950 . S
C4868 C4869 1.386 . S
C4868 C4870 1.391 . S
C4869 C4868 1.386 . S
C4869 C4873 1.393 . S
C4870 H4862 0.950 . S
C4870 C4868 1.391 . S
C4870 C4871 1.400 . S
C4871 C4870 1.400 . S
C4871 C4872 1.398 . S
C4871 C4877 1.491 . S
C4872 H4863 0.950 . S
C4872 C4871 1.398 . S
C4872 C4873 1.391 . S
C4873 H4861 0.950 . S
C4873 C4869 1.393 . S
C4873 C4872 1.391 . S
C4874 H4864 0.950 . S
C4874 C4875 1.386 . S
C4874 C4876 1.391 . S
C4875 C4874 1.386 . S
C4875 C4879 1.393 . S
C4876 H4865 0.950 . S
C4876 C4874 1.391 . S
C4876 C4877 1.400 . S
C4877 C4871 1.491 . S
C4877 C4876 1.400 . S
C4877 C4878 1.398 . S
C4878 H4866 0.950 . S
C4878 C4877 1.398 . S
C4878 C4879 1.391 . S
C4879 H4867 0.950 . S
C4879 C4875 1.393 . S
C4879 C4878 1.391 . S
H4880 C4888 0.950 . S
H4881 C4893 0.950 . S
H4882 C4890 0.950 . S
H4883 C4892 0.950 . S
H4884 C4894 0.950 . S
H4885 C4896 0.950 . S
H4886 C4898 0.950 . S
H4887 C4899 0.930 1_556 S
C4888 H4880 0.950 . S
C4888 C4889 1.386 . S
C4888 C4890 1.391 . S
C4889 C4888 1.386 . S
C4889 C4893 1.393 . S
C4890 H4882 0.950 . S
C4890 C4888 1.391 . S
C4890 C4891 1.400 . S
C4891 C4890 1.400 . S
C4891 C4892 1.398 . S
C4891 C4897 1.491 . S
C4892 H4883 0.950 . S
C4892 C4891 1.398 . S
C4892 C4893 1.391 . S
C4893 H4881 0.950 . S
C4893 C4889 1.393 . S
C4893 C4892 1.391 . S
C4894 H4884 0.950 . S
C4894 C4895 1.414 . S
C4894 C4896 1.391 . S
C4895 C4894 1.414 . S
C4895 C4899 1.409 . S
C4896 H4885 0.950 . S
C4896 C4894 1.391 . S
C4896 C4897 1.400 . S
C4897 C4891 1.491 . S
C4897 C4896 1.400 . S
C4897 C4898 1.398 . S
C4898 H4886 0.950 . S
C4898 C4897 1.398 . S
C4898 C4899 1.391 . S
C4899 H4887 0.930 1_554 S
C4899 C4895 1.409 . S
C4899 C4898 1.391 . S
H4900 C4908 0.950 . S
H4901 C4913 0.950 . S
H4902 C4910 0.950 . S
H4903 C4912 0.950 . S
H4904 C4914 0.950 . S
H4905 C4916 0.950 . S
H4906 C4918 0.950 . S
H4907 C4919 0.950 . S
C4908 H4900 0.950 . S
C4908 C4909 1.386 . S
C4908 C4910 1.391 . S
C4909 C4908 1.386 . S
C4909 C4913 1.393 . S
C4910 H4902 0.950 . S
C4910 C4908 1.391 . S
C4910 C4911 1.400 . S
C4911 C4910 1.400 . S
C4911 C4912 1.398 . S
C4911 C4917 1.491 . S
C4912 H4903 0.950 . S
C4912 C4911 1.398 . S
C4912 C4913 1.391 . S
C4913 H4901 0.950 . S
C4913 C4909 1.393 . S
C4913 C4912 1.391 . S
C4914 H4904 0.950 . S
C4914 C4915 1.386 . S
C4914 C4916 1.391 . S
C4915 C4914 1.386 . S
C4915 C4919 1.393 . S
C4916 H4905 0.950 . S
C4916 C4914 1.391 . S
C4916 C4917 1.400 . S
C4917 C4911 1.491 . S
C4917 C4916 1.400 . S
C4917 C4918 1.398 . S
C4918 H4906 0.950 . S
C4918 C4917 1.398 . S
C4918 C4919 1.391 . S
C4919 H4907 0.950 . S
C4919 C4915 1.393 . S
C4919 C4918 1.391 . S
H4920 C4928 0.950 . S
H4921 C4933 0.950 . S
H4922 C4930 0.950 . S
H4923 C4932 0.950 . S
H4924 C4934 0.950 . S
H4925 C4936 0.950 . S
H4926 C4938 0.950 . S
H4927 C4939 0.950 . S
C4928 H4920 0.950 . S
C4928 C4929 1.386 . S
C4928 C4930 1.391 . S
C4929 C4928 1.386 . S
C4929 C4933 1.393 . S
C4930 H4922 0.950 . S
C4930 C4928 1.391 . S
C4930 C4931 1.400 . S
C4931 C4930 1.400 . S
C4931 C4932 1.398 . S
C4931 C4937 1.491 . S
C4932 H4923 0.950 . S
C4932 C4931 1.398 . S
C4932 C4933 1.391 . S
C4933 H4921 0.950 . S
C4933 C4929 1.393 . S
C4933 C4932 1.391 . S
C4934 H4924 0.950 . S
C4934 C4935 1.386 . S
C4934 C4936 1.391 . S
C4935 C4934 1.386 . S
C4935 C4939 1.393 . S
C4936 H4925 0.950 . S
C4936 C4934 1.391 . S
C4936 C4937 1.400 . S
C4937 C4931 1.491 . S
C4937 C4936 1.400 . S
C4937 C4938 1.398 . S
C4938 H4926 0.950 . S
C4938 C4937 1.398 . S
C4938 C4939 1.391 . S
C4939 H4927 0.950 . S
C4939 C4935 1.393 . S
C4939 C4938 1.391 . S
H4940 C4948 0.950 . S
H4941 C4953 0.950 . S
H4942 C4950 0.950 . S
H4943 C4952 0.950 . S
H4944 C4954 0.950 . S
H4945 C4956 0.950 . S
H4946 C4958 0.950 . S
H4947 C4959 0.950 . S
C4948 H4940 0.950 . S
C4948 C4949 1.386 . S
C4948 C4950 1.391 . S
C4949 C4948 1.386 . S
C4949 C4953 1.393 . S
C4950 H4942 0.950 . S
C4950 C4948 1.391 . S
C4950 C4951 1.400 . S
C4951 C4950 1.400 . S
C4951 C4952 1.398 . S
C4951 C4957 1.491 . S
C4952 H4943 0.950 . S
C4952 C4951 1.398 . S
C4952 C4953 1.391 . S
C4953 H4941 0.950 . S
C4953 C4949 1.393 . S
C4953 C4952 1.391 . S
C4954 H4944 0.950 . S
C4954 C4955 1.386 . S
C4954 C4956 1.391 . S
C4955 C4954 1.386 . S
C4955 C4959 1.393 . S
C4956 H4945 0.950 . S
C4956 C4954 1.391 . S
C4956 C4957 1.400 . S
C4957 C4951 1.491 . S
C4957 C4956 1.400 . S
C4957 C4958 1.398 . S
C4958 H4946 0.950 . S
C4958 C4957 1.398 . S
C4958 C4959 1.391 . S
C4959 H4947 0.950 . S
C4959 C4955 1.393 . S
C4959 C4958 1.391 . S
H4960 C4968 0.950 . S
H4961 C4973 0.950 . S
H4962 C4970 0.950 . S
H4963 C4972 0.950 . S
H4964 C4974 0.950 . S
H4965 C4976 0.950 . S
H4966 C4978 0.950 . S
H4967 C4979 0.950 . S
C4968 H4960 0.950 . S
C4968 C4969 1.386 . S
C4968 C4970 1.391 . S
C4969 C4968 1.386 . S
C4969 C4973 1.393 . S
C4970 H4962 0.950 . S
C4970 C4968 1.391 . S
C4970 C4971 1.400 . S
C4971 C4970 1.400 . S
C4971 C4972 1.398 . S
C4971 C4977 1.491 . S
C4972 H4963 0.950 . S
C4972 C4971 1.398 . S
C4972 C4973 1.391 . S
C4973 H4961 0.950 . S
C4973 C4969 1.393 . S
C4973 C4972 1.391 . S
C4974 H4964 0.950 . S
C4974 C4975 1.386 . S
C4974 C4976 1.391 . S
C4975 C4974 1.386 . S
C4975 C4979 1.393 . S
C4976 H4965 0.950 . S
C4976 C4974 1.391 . S
C4976 C4977 1.400 . S
C4977 C4971 1.491 . S
C4977 C4976 1.400 . S
C4977 C4978 1.398 . S
C4978 H4966 0.950 . S
C4978 C4977 1.398 . S
C4978 C4979 1.391 . S
C4979 H4967 0.950 . S
C4979 C4975 1.393 . S
C4979 C4978 1.391 . S
H4980 C4988 0.950 . S
H4981 C4993 0.950 . S
H4982 C4990 0.950 . S
H4983 C4992 0.950 . S
H4984 C4994 0.950 . S
H4985 C4996 0.950 . S
H4986 C4998 0.950 . S
H4987 C4999 0.950 . S
C4988 H4980 0.950 . S
C4988 C4989 1.386 . S
C4988 C4990 1.391 . S
C4989 C4988 1.386 . S
C4989 C4993 1.393 . S
C4990 H4982 0.950 . S
C4990 C4988 1.391 . S
C4990 C4991 1.400 . S
C4991 C4990 1.400 . S
C4991 C4992 1.398 . S
C4991 C4997 1.491 . S
C4992 H4983 0.950 . S
C4992 C4991 1.398 . S
C4992 C4993 1.391 . S
C4993 H4981 0.950 . S
C4993 C4989 1.393 . S
C4993 C4992 1.391 . S
C4994 H4984 0.950 . S
C4994 C4995 1.386 . S
C4994 C4996 1.391 . S
C4995 C4994 1.386 . S
C4995 C4999 1.393 . S
C4996 H4985 0.950 . S
C4996 C4994 1.391 . S
C4996 C4997 1.400 . S
C4997 C4991 1.491 . S
C4997 C4996 1.400 . S
C4997 C4998 1.398 . S
C4998 H4986 0.950 . S
C4998 C4997 1.398 . S
C4998 C4999 1.391 . S
C4999 H4987 0.950 . S
C4999 C4995 1.393 . S
C4999 C4998 1.391 . S
H5000 C5008 0.950 . S
H5001 C5013 0.950 . S
H5002 C5010 0.950 . S
H5003 C5012 0.950 . S
H5004 C5014 0.950 1_655 S
H5005 C5016 0.950 . S
H5006 C5018 0.950 . S
H5007 C5019 0.950 1_655 S
C5008 H5000 0.950 . S
C5008 C5009 1.386 . S
C5008 C5010 1.391 . S
C5009 C5008 1.386 . S
C5009 C5013 1.393 . S
C5010 H5002 0.950 . S
C5010 C5008 1.391 . S
C5010 C5011 1.400 . S
C5011 C5010 1.400 . S
C5011 C5012 1.398 . S
C5011 C5017 1.491 . S
C5012 H5003 0.950 . S
C5012 C5011 1.398 . S
C5012 C5013 1.391 . S
C5013 H5001 0.950 . S
C5013 C5009 1.393 . S
C5013 C5012 1.391 . S
C5014 H5004 0.950 1_455 S
C5014 C5015 1.386 1_455 S
C5014 C5016 1.391 . S
C5015 C5014 1.386 1_655 S
C5015 C5019 1.393 1_655 S
C5016 H5005 0.950 . S
C5016 C5014 1.391 . S
C5016 C5017 1.400 . S
C5017 C5011 1.491 . S
C5017 C5016 1.400 . S
C5017 C5018 1.398 . S
C5018 H5006 0.950 . S
C5018 C5017 1.398 . S
C5018 C5019 1.391 . S
C5019 H5007 0.950 1_455 S
C5019 C5015 1.393 1_455 S
C5019 C5018 1.391 . S
H5020 C5028 0.950 . S
H5021 C5033 0.950 . S
H5022 C5030 0.950 . S
H5023 C5032 0.950 . S
H5024 C5034 0.950 . S
H5025 C5036 0.950 . S
H5026 C5038 0.950 . S
H5027 C5039 0.950 . S
C5028 H5020 0.950 . S
C5028 C5029 1.386 . S
C5028 C5030 1.391 . S
C5029 C5028 1.386 . S
C5029 C5033 1.393 . S
C5030 H5022 0.950 . S
C5030 C5028 1.391 . S
C5030 C5031 1.400 . S
C5031 C5030 1.400 . S
C5031 C5032 1.398 . S
C5031 C5037 1.491 . S
C5032 H5023 0.950 . S
C5032 C5031 1.398 . S
C5032 C5033 1.391 . S
C5033 H5021 0.950 . S
C5033 C5029 1.393 . S
C5033 C5032 1.391 . S
C5034 H5024 0.950 . S
C5034 C5035 1.386 . S
C5034 C5036 1.391 . S
C5035 C5034 1.386 . S
C5035 C5039 1.393 . S
C5036 H5025 0.950 . S
C5036 C5034 1.391 . S
C5036 C5037 1.400 . S
C5037 C5031 1.491 . S
C5037 C5036 1.400 . S
C5037 C5038 1.398 . S
C5038 H5026 0.950 . S
C5038 C5037 1.398 . S
C5038 C5039 1.391 . S
C5039 H5027 0.950 . S
C5039 C5035 1.393 . S
C5039 C5038 1.391 . S
H5040 C5048 0.950 . S
H5041 C5053 0.950 . S
H5042 C5050 0.950 . S
H5043 C5052 0.950 . S
H5044 C5054 0.950 . S
H5045 C5056 0.950 . S
H5046 C5058 0.950 . S
H5047 C5059 0.950 . S
C5048 H5040 0.950 . S
C5048 C5049 1.386 . S
C5048 C5050 1.391 . S
C5049 C5048 1.386 . S
C5049 C5053 1.393 . S
C5050 H5042 0.950 . S
C5050 C5048 1.391 . S
C5050 C5051 1.400 . S
C5051 C5050 1.400 . S
C5051 C5052 1.398 . S
C5051 C5057 1.491 . S
C5052 H5043 0.950 . S
C5052 C5051 1.398 . S
C5052 C5053 1.391 . S
C5053 H5041 0.950 . S
C5053 C5049 1.393 . S
C5053 C5052 1.391 . S
C5054 H5044 0.950 . S
C5054 C5055 1.386 . S
C5054 C5056 1.391 . S
C5055 C5054 1.386 . S
C5055 C5059 1.393 . S
C5056 H5045 0.950 . S
C5056 C5054 1.391 . S
C5056 C5057 1.400 . S
C5057 C5051 1.491 . S
C5057 C5056 1.400 . S
C5057 C5058 1.398 . S
C5058 H5046 0.950 . S
C5058 C5057 1.398 . S
C5058 C5059 1.391 . S
C5059 H5047 0.950 . S
C5059 C5055 1.393 . S
C5059 C5058 1.391 . S
H5060 C5068 0.950 . S
H5061 C5073 0.950 . S
H5062 C5070 0.950 . S
H5063 C5072 0.950 . S
H5064 C5074 0.950 . S
H5065 C5076 0.950 . S
H5066 C5078 0.950 . S
H5067 C5079 0.950 . S
C5068 H5060 0.950 . S
C5068 C5069 1.386 . S
C5068 C5070 1.391 . S
C5069 C5068 1.386 . S
C5069 C5073 1.393 . S
C5070 H5062 0.950 . S
C5070 C5068 1.391 . S
C5070 C5071 1.400 . S
C5071 C5070 1.400 . S
C5071 C5072 1.398 . S
C5071 C5077 1.491 . S
C5072 H5063 0.950 . S
C5072 C5071 1.398 . S
C5072 C5073 1.391 . S
C5073 H5061 0.950 . S
C5073 C5069 1.393 . S
C5073 C5072 1.391 . S
C5074 H5064 0.950 . S
C5074 C5075 1.386 . S
C5074 C5076 1.391 . S
C5075 C5074 1.386 . S
C5075 C5079 1.393 . S
C5076 H5065 0.950 . S
C5076 C5074 1.391 . S
C5076 C5077 1.400 . S
C5077 C5071 1.491 . S
C5077 C5076 1.400 . S
C5077 C5078 1.398 . S
C5078 H5066 0.950 . S
C5078 C5077 1.398 . S
C5078 C5079 1.391 . S
C5079 H5067 0.950 . S
C5079 C5075 1.393 . S
C5079 C5078 1.391 . S
H5080 C5088 0.950 . S
H5081 C5093 0.950 . S
H5082 C5090 0.950 . S
H5083 C5092 0.950 . S
H5084 C5094 0.950 . S
H5085 C5096 0.950 . S
H5086 C5098 0.950 . S
H5087 C5099 0.950 1_655 S
C5088 H5080 0.950 . S
C5088 C5089 1.386 . S
C5088 C5090 1.391 . S
C5089 C5088 1.386 . S
C5089 C5093 1.393 . S
C5090 H5082 0.950 . S
C5090 C5088 1.391 . S
C5090 C5091 1.400 . S
C5091 C5090 1.400 . S
C5091 C5092 1.398 . S
C5091 C5097 1.491 . S
C5092 H5083 0.950 . S
C5092 C5091 1.398 . S
C5092 C5093 1.391 . S
C5093 H5081 0.950 . S
C5093 C5089 1.393 . S
C5093 C5092 1.391 . S
C5094 H5084 0.950 . S
C5094 C5095 1.341 1_455 S
C5094 C5096 1.391 . S
C5095 C5094 1.341 1_655 S
C5095 C5099 1.372 1_655 S
C5096 H5085 0.950 . S
C5096 C5094 1.391 . S
C5096 C5097 1.400 . S
C5097 C5091 1.491 . S
C5097 C5096 1.400 . S
C5097 C5098 1.398 . S
C5098 H5086 0.950 . S
C5098 C5097 1.398 . S
C5098 C5099 1.391 . S
C5099 H5087 0.950 1_455 S
C5099 C5095 1.372 1_455 S
C5099 C5098 1.391 . S
H5100 C5108 0.950 . S
H5101 C5113 0.950 . S
H5102 C5110 0.950 . S
H5103 C5112 0.950 . S
H5104 C5114 0.950 . S
H5105 C5116 0.950 . S
H5106 C5118 0.950 . S
H5107 C5119 0.950 . S
C5108 H5100 0.950 . S
C5108 C5109 1.386 . S
C5108 C5110 1.391 . S
C5109 C5108 1.386 . S
C5109 C5113 1.393 . S
C5110 H5102 0.950 . S
C5110 C5108 1.391 . S
C5110 C5111 1.400 . S
C5111 C5110 1.400 . S
C5111 C5112 1.398 . S
C5111 C5117 1.491 . S
C5112 H5103 0.950 . S
C5112 C5111 1.398 . S
C5112 C5113 1.391 . S
C5113 H5101 0.950 . S
C5113 C5109 1.393 . S
C5113 C5112 1.391 . S
C5114 H5104 0.950 . S
C5114 C5115 1.386 . S
C5114 C5116 1.391 . S
C5115 C5114 1.386 . S
C5115 C5119 1.393 . S
C5116 H5105 0.950 . S
C5116 C5114 1.391 . S
C5116 C5117 1.400 . S
C5117 C5111 1.491 . S
C5117 C5116 1.400 . S
C5117 C5118 1.398 . S
C5118 H5106 0.950 . S
C5118 C5117 1.398 . S
C5118 C5119 1.391 . S
C5119 H5107 0.950 . S
C5119 C5115 1.393 . S
C5119 C5118 1.391 . S
H5120 C5128 0.950 . S
H5121 C5133 0.950 . S
H5122 C5130 0.950 . S
H5123 C5132 0.950 . S
H5124 C5134 0.950 . S
H5125 C5136 0.950 . S
H5126 C5138 0.950 . S
H5127 C5139 0.950 . S
C5128 H5120 0.950 . S
C5128 C5129 1.386 . S
C5128 C5130 1.391 . S
C5129 C5128 1.386 . S
C5129 C5133 1.393 . S
C5130 H5122 0.950 . S
C5130 C5128 1.391 . S
C5130 C5131 1.400 . S
C5131 C5130 1.400 . S
C5131 C5132 1.398 . S
C5131 C5137 1.491 . S
C5132 H5123 0.950 . S
C5132 C5131 1.398 . S
C5132 C5133 1.391 . S
C5133 H5121 0.950 . S
C5133 C5129 1.393 . S
C5133 C5132 1.391 . S
C5134 H5124 0.950 . S
C5134 C5135 1.386 . S
C5134 C5136 1.391 . S
C5135 C5134 1.386 . S
C5135 C5139 1.393 . S
C5136 H5125 0.950 . S
C5136 C5134 1.391 . S
C5136 C5137 1.400 . S
C5137 C5131 1.491 . S
C5137 C5136 1.400 . S
C5137 C5138 1.398 . S
C5138 H5126 0.950 . S
C5138 C5137 1.398 . S
C5138 C5139 1.391 . S
C5139 H5127 0.950 . S
C5139 C5135 1.393 . S
C5139 C5138 1.391 . S
H5140 C5148 0.950 . S
H5141 C5153 0.950 1_565 S
H5142 C5150 0.950 . S
H5143 C5152 0.950 . S
H5144 C5154 0.950 . S
H5145 C5156 0.950 . S
H5146 C5158 0.950 . S
H5147 C5159 0.950 . S
C5148 H5140 0.950 . S
C5148 C5149 1.386 1_545 S
C5148 C5150 1.391 . S
C5149 C5148 1.386 1_565 S
C5149 C5153 1.393 1_565 S
C5150 H5142 0.950 . S
C5150 C5148 1.391 . S
C5150 C5151 1.400 . S
C5151 C5150 1.400 . S
C5151 C5152 1.398 . S
C5151 C5157 1.491 . S
C5152 H5143 0.950 . S
C5152 C5151 1.398 . S
C5152 C5153 1.391 . S
C5153 H5141 0.950 1_545 S
C5153 C5149 1.393 1_545 S
C5153 C5152 1.391 . S
C5154 H5144 0.950 . S
C5154 C5155 1.386 . S
C5154 C5156 1.391 . S
C5155 C5154 1.386 . S
C5155 C5159 1.393 . S
C5156 H5145 0.950 . S
C5156 C5154 1.391 . S
C5156 C5157 1.400 . S
C5157 C5151 1.491 . S
C5157 C5156 1.400 . S
C5157 C5158 1.398 . S
C5158 H5146 0.950 . S
C5158 C5157 1.398 . S
C5158 C5159 1.391 . S
C5159 H5147 0.950 . S
C5159 C5155 1.393 . S
C5159 C5158 1.391 . S
H5160 C5168 0.950 . S
H5161 C5173 0.950 . S
H5162 C5170 0.950 . S
H5163 C5172 0.950 . S
H5164 C5174 0.950 . S
H5165 C5176 0.950 . S
H5166 C5178 0.950 . S
H5167 C5179 0.950 . S
C5168 H5160 0.950 . S
C5168 C5169 1.386 . S
C5168 C5170 1.391 . S
C5169 C5168 1.386 . S
C5169 C5173 1.393 . S
C5170 H5162 0.950 . S
C5170 C5168 1.391 . S
C5170 C5171 1.400 . S
C5171 C5170 1.400 . S
C5171 C5172 1.398 . S
C5171 C5177 1.491 . S
C5172 H5163 0.950 . S
C5172 C5171 1.398 . S
C5172 C5173 1.391 . S
C5173 H5161 0.950 . S
C5173 C5169 1.393 . S
C5173 C5172 1.391 . S
C5174 H5164 0.950 . S
C5174 C5175 1.386 . S
C5174 C5176 1.391 . S
C5175 C5174 1.386 . S
C5175 C5179 1.393 . S
C5176 H5165 0.950 . S
C5176 C5174 1.391 . S
C5176 C5177 1.400 . S
C5177 C5171 1.491 . S
C5177 C5176 1.400 . S
C5177 C5178 1.398 . S
C5178 H5166 0.950 . S
C5178 C5177 1.398 . S
C5178 C5179 1.391 . S
C5179 H5167 0.950 . S
C5179 C5175 1.393 . S
C5179 C5178 1.391 . S
H5180 C5188 0.950 . S
H5181 C5193 0.950 . S
H5182 C5190 0.950 . S
H5183 C5192 0.950 . S
H5184 C5194 0.950 . S
H5185 C5196 0.950 . S
H5186 C5198 0.950 . S
H5187 C5199 0.950 . S
C5188 H5180 0.950 . S
C5188 C5189 1.386 . S
C5188 C5190 1.391 . S
C5189 C5188 1.386 . S
C5189 C5193 1.393 . S
C5190 H5182 0.950 . S
C5190 C5188 1.391 . S
C5190 C5191 1.400 . S
C5191 C5190 1.400 . S
C5191 C5192 1.398 . S
C5191 C5197 1.491 . S
C5192 H5183 0.950 . S
C5192 C5191 1.398 . S
C5192 C5193 1.391 . S
C5193 H5181 0.950 . S
C5193 C5189 1.393 . S
C5193 C5192 1.391 . S
C5194 H5184 0.950 . S
C5194 C5195 1.386 . S
C5194 C5196 1.391 1_545 S
C5195 C5194 1.386 . S
C5195 C5199 1.393 . S
C5196 H5185 0.950 . S
C5196 C5194 1.391 1_565 S
C5196 C5197 1.400 . S
C5197 C5191 1.491 . S
C5197 C5196 1.400 . S
C5197 C5198 1.398 . S
C5198 H5186 0.950 . S
C5198 C5197 1.398 . S
C5198 C5199 1.391 1_565 S
C5199 H5187 0.950 . S
C5199 C5195 1.393 . S
C5199 C5198 1.391 1_545 S
H5200 C5208 0.950 . S
H5201 C5213 0.950 . S
H5202 C5210 0.950 . S
H5203 C5212 0.950 . S
H5204 C5214 0.950 . S
H5205 C5216 0.950 . S
H5206 C5218 0.950 . S
H5207 C5219 0.950 . S
C5208 H5200 0.950 . S
C5208 C5209 1.386 . S
C5208 C5210 1.391 . S
C5209 C5208 1.386 . S
C5209 C5213 1.393 . S
C5210 H5202 0.950 . S
C5210 C5208 1.391 . S
C5210 C5211 1.400 . S
C5211 C5210 1.400 . S
C5211 C5212 1.398 . S
C5211 C5217 1.491 . S
C5212 H5203 0.950 . S
C5212 C5211 1.398 . S
C5212 C5213 1.391 . S
C5213 H5201 0.950 . S
C5213 C5209 1.393 . S
C5213 C5212 1.391 . S
C5214 H5204 0.950 . S
C5214 C5215 1.386 . S
C5214 C5216 1.391 . S
C5215 C5214 1.386 . S
C5215 C5219 1.393 . S
C5216 H5205 0.950 . S
C5216 C5214 1.391 . S
C5216 C5217 1.400 . S
C5217 C5211 1.491 . S
C5217 C5216 1.400 . S
C5217 C5218 1.398 . S
C5218 H5206 0.950 . S
C5218 C5217 1.398 . S
C5218 C5219 1.391 . S
C5219 H5207 0.950 . S
C5219 C5215 1.393 . S
C5219 C5218 1.391 . S
H5220 C5228 0.950 . S
H5221 C5233 0.950 . S
H5222 C5230 0.950 . S
H5223 C5232 0.950 . S
H5224 C5234 0.950 . S
H5225 C5236 0.950 . S
H5226 C5238 0.950 . S
H5227 C5239 0.950 . S
C5228 H5220 0.950 . S
C5228 C5229 1.386 . S
C5228 C5230 1.391 . S
C5229 C5228 1.386 . S
C5229 C5233 1.393 . S
C5230 H5222 0.950 . S
C5230 C5228 1.391 . S
C5230 C5231 1.400 . S
C5231 C5230 1.400 . S
C5231 C5232 1.398 . S
C5231 C5237 1.491 . S
C5232 H5223 0.950 . S
C5232 C5231 1.398 . S
C5232 C5233 1.391 . S
C5233 H5221 0.950 . S
C5233 C5229 1.393 . S
C5233 C5232 1.391 . S
C5234 H5224 0.950 . S
C5234 C5235 1.386 . S
C5234 C5236 1.391 . S
C5235 C5234 1.386 . S
C5235 C5239 1.393 . S
C5236 H5225 0.950 . S
C5236 C5234 1.391 . S
C5236 C5237 1.400 . S
C5237 C5231 1.491 . S
C5237 C5236 1.400 . S
C5237 C5238 1.398 . S
C5238 H5226 0.950 . S
C5238 C5237 1.398 . S
C5238 C5239 1.391 . S
C5239 H5227 0.950 . S
C5239 C5235 1.393 . S
C5239 C5238 1.391 . S
H5240 C5248 0.950 . S
H5241 C5253 0.950 . S
H5242 C5250 0.950 . S
H5243 C5252 0.950 . S
H5244 C5254 0.950 . S
H5245 C5256 0.950 . S
H5246 C5258 0.950 . S
H5247 C5259 0.950 . S
C5248 H5240 0.950 . S
C5248 C5249 1.386 . S
C5248 C5250 1.391 . S
C5249 C5248 1.386 . S
C5249 C5253 1.393 . S
C5250 H5242 0.950 . S
C5250 C5248 1.391 . S
C5250 C5251 1.400 . S
C5251 C5250 1.400 . S
C5251 C5252 1.398 . S
C5251 C5257 1.491 . S
C5252 H5243 0.950 . S
C5252 C5251 1.398 . S
C5252 C5253 1.391 . S
C5253 H5241 0.950 . S
C5253 C5249 1.393 . S
C5253 C5252 1.391 . S
C5254 H5244 0.950 . S
C5254 C5255 1.386 . S
C5254 C5256 1.391 . S
C5255 C5254 1.386 . S
C5255 C5259 1.393 . S
C5256 H5245 0.950 . S
C5256 C5254 1.391 . S
C5256 C5257 1.400 . S
C5257 C5251 1.491 . S
C5257 C5256 1.400 . S
C5257 C5258 1.398 . S
C5258 H5246 0.950 . S
C5258 C5257 1.398 . S
C5258 C5259 1.391 . S
C5259 H5247 0.950 . S
C5259 C5255 1.393 . S
C5259 C5258 1.391 . S
H5260 C5268 0.950 . S
H5261 C5273 0.950 . S
H5262 C5270 0.950 . S
H5263 C5272 0.950 . S
H5264 C5274 0.950 . S
H5265 C5276 0.950 . S
H5266 C5278 0.950 . S
H5267 C5279 0.950 . S
C5268 H5260 0.950 . S
C5268 C5269 1.386 . S
C5268 C5270 1.391 . S
C5269 C5268 1.386 . S
C5269 C5273 1.393 . S
C5270 H5262 0.950 . S
C5270 C5268 1.391 . S
C5270 C5271 1.400 . S
C5271 C5270 1.400 . S
C5271 C5272 1.398 . S
C5271 C5277 1.491 . S
C5272 H5263 0.950 . S
C5272 C5271 1.398 . S
C5272 C5273 1.391 . S
C5273 H5261 0.950 . S
C5273 C5269 1.393 . S
C5273 C5272 1.391 . S
C5274 H5264 0.950 . S
C5274 C5275 1.386 . S
C5274 C5276 1.391 . S
C5275 C5274 1.386 . S
C5275 C5279 1.393 . S
C5276 H5265 0.950 . S
C5276 C5274 1.391 . S
C5276 C5277 1.400 . S
C5277 C5271 1.491 . S
C5277 C5276 1.400 . S
C5277 C5278 1.398 . S
C5278 H5266 0.950 . S
C5278 C5277 1.398 . S
C5278 C5279 1.391 . S
C5279 H5267 0.950 . S
C5279 C5275 1.393 . S
C5279 C5278 1.391 . S
H5280 C5288 0.950 . S
H5281 C5293 0.950 . S
H5282 C5290 0.950 . S
H5283 C5292 0.950 . S
H5284 C5294 0.950 . S
H5285 C5296 0.950 . S
H5286 C5298 0.950 . S
H5287 C5299 0.950 . S
C5288 H5280 0.950 . S
C5288 C5289 1.386 . S
C5288 C5290 1.391 . S
C5289 C5288 1.386 . S
C5289 C5293 1.393 . S
C5290 H5282 0.950 . S
C5290 C5288 1.391 . S
C5290 C5291 1.400 . S
C5291 C5290 1.400 . S
C5291 C5292 1.398 . S
C5291 C5297 1.491 . S
C5292 H5283 0.950 . S
C5292 C5291 1.398 . S
C5292 C5293 1.391 . S
C5293 H5281 0.950 . S
C5293 C5289 1.393 . S
C5293 C5292 1.391 . S
C5294 H5284 0.950 . S
C5294 C5295 1.386 . S
C5294 C5296 1.391 . S
C5295 C5294 1.386 . S
C5295 C5299 1.393 . S
C5296 H5285 0.950 . S
C5296 C5294 1.391 . S
C5296 C5297 1.400 . S
C5297 C5291 1.491 . S
C5297 C5296 1.400 . S
C5297 C5298 1.398 . S
C5298 H5286 0.950 . S
C5298 C5297 1.398 . S
C5298 C5299 1.391 . S
C5299 H5287 0.950 . S
C5299 C5295 1.393 . S
C5299 C5298 1.391 . S
H5300 C5308 0.950 . S
H5301 C5313 0.950 . S
H5302 C5310 0.950 . S
H5303 C5312 0.950 . S
H5304 C5314 0.950 . S
H5305 C5316 0.950 . S
H5306 C5318 0.950 . S
H5307 C5319 0.950 . S
C5308 H5300 0.950 . S
C5308 C5309 1.386 . S
C5308 C5310 1.391 . S
C5309 C5308 1.386 . S
C5309 C5313 1.393 . S
C5310 H5302 0.950 . S
C5310 C5308 1.391 . S
C5310 C5311 1.400 . S
C5311 C5310 1.400 . S
C5311 C5312 1.398 . S
C5311 C5317 1.491 . S
C5312 H5303 0.950 . S
C5312 C5311 1.398 . S
C5312 C5313 1.391 . S
C5313 H5301 0.950 . S
C5313 C5309 1.393 . S
C5313 C5312 1.391 . S
C5314 H5304 0.950 . S
C5314 C5315 1.386 . S
C5314 C5316 1.391 . S
C5315 C5314 1.386 . S
C5315 C5319 1.393 . S
C5316 H5305 0.950 . S
C5316 C5314 1.391 . S
C5316 C5317 1.400 . S
C5317 C5311 1.491 . S
C5317 C5316 1.400 . S
C5317 C5318 1.398 . S
C5318 H5306 0.950 . S
C5318 C5317 1.398 . S
C5318 C5319 1.391 . S
C5319 H5307 0.950 . S
C5319 C5315 1.393 . S
C5319 C5318 1.391 . S
H5320 C5328 0.950 . S
H5321 C5333 0.950 . S
H5322 C5330 0.950 . S
H5323 C5332 0.950 . S
H5324 C5334 0.950 . S
H5325 C5336 0.950 . S
H5326 C5338 0.950 . S
H5327 C5339 0.950 . S
C5328 H5320 0.950 . S
C5328 C5329 1.386 . S
C5328 C5330 1.391 . S
C5329 C5328 1.386 . S
C5329 C5333 1.393 . S
C5330 H5322 0.950 . S
C5330 C5328 1.391 . S
C5330 C5331 1.400 . S
C5331 C5330 1.400 . S
C5331 C5332 1.398 . S
C5331 C5337 1.491 . S
C5332 H5323 0.950 . S
C5332 C5331 1.398 . S
C5332 C5333 1.391 . S
C5333 H5321 0.950 . S
C5333 C5329 1.393 . S
C5333 C5332 1.391 . S
C5334 H5324 0.950 . S
C5334 C5335 1.386 . S
C5334 C5336 1.391 . S
C5335 C5334 1.386 . S
C5335 C5339 1.393 . S
C5336 H5325 0.950 . S
C5336 C5334 1.391 . S
C5336 C5337 1.400 . S
C5337 C5331 1.491 . S
C5337 C5336 1.400 . S
C5337 C5338 1.398 . S
C5338 H5326 0.950 . S
C5338 C5337 1.398 . S
C5338 C5339 1.391 . S
C5339 H5327 0.950 . S
C5339 C5335 1.393 . S
C5339 C5338 1.391 . S
H5340 C5348 0.950 . S
H5341 C5353 0.950 . S
H5342 C5350 0.950 . S
H5343 C5352 0.950 . S
H5344 C5354 0.950 . S
H5345 C5356 0.950 . S
H5346 C5358 0.950 . S
H5347 C5359 0.950 . S
C5348 H5340 0.950 . S
C5348 C5349 1.386 . S
C5348 C5350 1.391 . S
C5349 C5348 1.386 . S
C5349 C5353 1.393 . S
C5350 H5342 0.950 . S
C5350 C5348 1.391 . S
C5350 C5351 1.400 . S
C5351 C5350 1.400 . S
C5351 C5352 1.398 . S
C5351 C5357 1.491 . S
C5352 H5343 0.950 . S
C5352 C5351 1.398 . S
C5352 C5353 1.391 . S
C5353 H5341 0.950 . S
C5353 C5349 1.393 . S
C5353 C5352 1.391 . S
C5354 H5344 0.950 . S
C5354 C5355 1.386 . S
C5354 C5356 1.391 . S
C5355 C5354 1.386 . S
C5355 C5359 1.393 . S
C5356 H5345 0.950 . S
C5356 C5354 1.391 . S
C5356 C5357 1.400 . S
C5357 C5351 1.491 . S
C5357 C5356 1.400 . S
C5357 C5358 1.398 . S
C5358 H5346 0.950 . S
C5358 C5357 1.398 . S
C5358 C5359 1.391 . S
C5359 H5347 0.950 . S
C5359 C5355 1.393 . S
C5359 C5358 1.391 . S
H5360 C5368 0.950 . S
H5361 C5373 0.950 . S
H5362 C5370 0.950 . S
H5363 C5372 0.950 . S
H5364 C5374 0.950 . S
H5365 C5376 0.950 . S
H5366 C5378 0.950 . S
H5367 C5379 0.971 . S
C5368 H5360 0.950 . S
C5368 C5369 1.386 . S
C5368 C5370 1.391 . S
C5369 C5368 1.386 . S
C5369 C5373 1.393 . S
C5370 H5362 0.950 . S
C5370 C5368 1.391 . S
C5370 C5371 1.400 . S
C5371 C5370 1.400 . S
C5371 C5372 1.398 . S
C5371 C5377 1.491 . S
C5372 H5363 0.950 . S
C5372 C5371 1.398 . S
C5372 C5373 1.391 . S
C5373 H5361 0.950 . S
C5373 C5369 1.393 . S
C5373 C5372 1.391 . S
C5374 H5364 0.950 . S
C5374 C5375 1.413 . S
C5374 C5376 1.391 . S
C5375 C5374 1.413 . S
C5375 C5379 1.411 . S
C5376 H5365 0.950 . S
C5376 C5374 1.391 . S
C5376 C5377 1.400 . S
C5377 C5371 1.491 . S
C5377 C5376 1.400 . S
C5377 C5378 1.398 . S
C5378 H5366 0.950 . S
C5378 C5377 1.398 . S
C5378 C5379 1.391 . S
C5379 H5367 0.971 . S
C5379 C5375 1.411 . S
C5379 C5378 1.391 . S
H5380 C5388 0.950 . S
H5381 C5393 0.950 . S
H5382 C5390 0.950 . S
H5383 C5392 0.950 . S
H5384 C5394 0.950 . S
H5385 C5396 0.950 . S
H5386 C5398 0.950 . S
H5387 C5399 0.950 . S
C5388 H5380 0.950 . S
C5388 C5389 1.386 . S
C5388 C5390 1.391 . S
C5389 C5388 1.386 . S
C5389 C5393 1.393 . S
C5390 H5382 0.950 . S
C5390 C5388 1.391 . S
C5390 C5391 1.400 . S
C5391 C5390 1.400 . S
C5391 C5392 1.398 . S
C5391 C5397 1.491 . S
C5392 H5383 0.950 . S
C5392 C5391 1.398 . S
C5392 C5393 1.391 . S
C5393 H5381 0.950 . S
C5393 C5389 1.393 . S
C5393 C5392 1.391 . S
C5394 H5384 0.950 . S
C5394 C5395 1.386 . S
C5394 C5396 1.391 . S
C5395 C5394 1.386 . S
C5395 C5399 1.393 . S
C5396 H5385 0.950 . S
C5396 C5394 1.391 . S
C5396 C5397 1.400 . S
C5397 C5391 1.491 . S
C5397 C5396 1.400 . S
C5397 C5398 1.398 . S
C5398 H5386 0.950 . S
C5398 C5397 1.398 . S
C5398 C5399 1.391 . S
C5399 H5387 0.950 . S
C5399 C5395 1.393 . S
C5399 C5398 1.391 . S
H5400 C5408 0.950 . S
H5401 C5413 0.950 . S
H5402 C5410 0.950 . S
H5403 C5412 0.950 . S
H5404 C5414 0.950 . S
H5405 C5416 0.950 . S
H5406 C5418 0.950 . S
H5407 C5419 0.950 . S
C5408 H5400 0.950 . S
C5408 C5409 1.386 . S
C5408 C5410 1.391 . S
C5409 C5408 1.386 . S
C5409 C5413 1.393 . S
C5410 H5402 0.950 . S
C5410 C5408 1.391 . S
C5410 C5411 1.400 . S
C5411 C5410 1.400 . S
C5411 C5412 1.398 . S
C5411 C5417 1.491 . S
C5412 H5403 0.950 . S
C5412 C5411 1.398 . S
C5412 C5413 1.391 . S
C5413 H5401 0.950 . S
C5413 C5409 1.393 . S
C5413 C5412 1.391 . S
C5414 H5404 0.950 . S
C5414 C5415 1.386 . S
C5414 C5416 1.391 . S
C5415 C5414 1.386 . S
C5415 C5419 1.393 . S
C5416 H5405 0.950 . S
C5416 C5414 1.391 . S
C5416 C5417 1.400 . S
C5417 C5411 1.491 . S
C5417 C5416 1.400 . S
C5417 C5418 1.398 . S
C5418 H5406 0.950 . S
C5418 C5417 1.398 . S
C5418 C5419 1.391 . S
C5419 H5407 0.950 . S
C5419 C5415 1.393 . S
C5419 C5418 1.391 . S
H5420 C5428 0.950 . S
H5421 C5433 0.950 . S
H5422 C5430 0.950 . S
H5423 C5432 0.950 . S
H5424 C5434 0.950 . S
H5425 C5436 0.950 . S
H5426 C5438 0.950 . S
H5427 C5439 0.950 . S
C5428 H5420 0.950 . S
C5428 C5429 1.386 . S
C5428 C5430 1.391 . S
C5429 C5428 1.386 . S
C5429 C5433 1.393 . S
C5430 H5422 0.950 . S
C5430 C5428 1.391 . S
C5430 C5431 1.400 . S
C5431 C5430 1.400 . S
C5431 C5432 1.398 . S
C5431 C5437 1.491 . S
C5432 H5423 0.950 . S
C5432 C5431 1.398 . S
C5432 C5433 1.391 . S
C5433 H5421 0.950 . S
C5433 C5429 1.393 . S
C5433 C5432 1.391 . S
C5434 H5424 0.950 . S
C5434 C5435 1.386 . S
C5434 C5436 1.391 . S
C5435 C5434 1.386 . S
C5435 C5439 1.393 . S
C5436 H5425 0.950 . S
C5436 C5434 1.391 . S
C5436 C5437 1.400 . S
C5437 C5431 1.491 . S
C5437 C5436 1.400 . S
C5437 C5438 1.398 . S
C5438 H5426 0.950 . S
C5438 C5437 1.398 . S
C5438 C5439 1.391 . S
C5439 H5427 0.950 . S
C5439 C5435 1.393 . S
C5439 C5438 1.391 . S
H5440 C5448 0.950 . S
H5441 C5453 0.950 . S
H5442 C5450 0.950 . S
H5443 C5452 0.950 . S
H5444 C5454 0.950 . S
H5445 C5456 0.950 . S
H5446 C5458 0.950 . S
H5447 C5459 0.950 . S
C5448 H5440 0.950 . S
C5448 C5449 1.386 . S
C5448 C5450 1.391 . S
C5449 C5448 1.386 . S
C5449 C5453 1.393 . S
C5450 H5442 0.950 . S
C5450 C5448 1.391 . S
C5450 C5451 1.400 . S
C5451 C5450 1.400 . S
C5451 C5452 1.398 . S
C5451 C5457 1.491 . S
C5452 H5443 0.950 . S
C5452 C5451 1.398 . S
C5452 C5453 1.391 . S
C5453 H5441 0.950 . S
C5453 C5449 1.393 . S
C5453 C5452 1.391 . S
C5454 H5444 0.950 . S
C5454 C5455 1.386 . S
C5454 C5456 1.391 . S
C5455 C5454 1.386 . S
C5455 C5459 1.393 . S
C5456 H5445 0.950 . S
C5456 C5454 1.391 . S
C5456 C5457 1.400 . S
C5457 C5451 1.491 . S
C5457 C5456 1.400 . S
C5457 C5458 1.398 . S
C5458 H5446 0.950 . S
C5458 C5457 1.398 . S
C5458 C5459 1.391 . S
C5459 H5447 0.950 . S
C5459 C5455 1.393 . S
C5459 C5458 1.391 . S
H5460 C5468 0.950 . S
H5461 C5473 0.950 . S
H5462 C5470 0.950 . S
H5463 C5472 0.950 . S
H5464 C5474 0.950 . S
H5465 C5476 0.950 . S
H5466 C5478 0.950 . S
H5467 C5479 0.950 . S
C5468 H5460 0.950 . S
C5468 C5469 1.386 . S
C5468 C5470 1.391 . S
C5469 C5468 1.386 . S
C5469 C5473 1.393 . S
C5470 H5462 0.950 . S
C5470 C5468 1.391 . S
C5470 C5471 1.400 . S
C5471 C5470 1.400 . S
C5471 C5472 1.398 . S
C5471 C5477 1.491 . S
C5472 H5463 0.950 . S
C5472 C5471 1.398 . S
C5472 C5473 1.391 . S
C5473 H5461 0.950 . S
C5473 C5469 1.393 . S
C5473 C5472 1.391 . S
C5474 H5464 0.950 . S
C5474 C5475 1.386 . S
C5474 C5476 1.391 . S
C5475 C5474 1.386 . S
C5475 C5479 1.393 . S
C5476 H5465 0.950 . S
C5476 C5474 1.391 . S
C5476 C5477 1.400 . S
C5477 C5471 1.491 . S
C5477 C5476 1.400 . S
C5477 C5478 1.398 . S
C5478 H5466 0.950 . S
C5478 C5477 1.398 . S
C5478 C5479 1.391 . S
C5479 H5467 0.950 . S
C5479 C5475 1.393 . S
C5479 C5478 1.391 . S
H5480 C5488 0.950 . S
H5481 C5493 0.950 . S
H5482 C5490 0.950 . S
H5483 C5492 0.950 . S
H5484 C5494 0.977 . S
H5485 C5496 0.950 . S
H5486 C5498 0.950 . S
H5487 C5499 0.949 1_455 S
C5488 H5480 0.950 . S
C5488 C5489 1.386 . S
C5488 C5490 1.391 . S
C5489 C5488 1.386 . S
C5489 C5493 1.393 . S
C5490 H5482 0.950 . S
C5490 C5488 1.391 . S
C5490 C5491 1.400 . S
C5491 C5490 1.400 . S
C5491 C5492 1.398 . S
C5491 C5497 1.491 . S
C5492 H5483 0.950 . S
C5492 C5491 1.398 . S
C5492 C5493 1.391 . S
C5493 H5481 0.950 . S
C5493 C5489 1.393 . S
C5493 C5492 1.391 . S
C5494 H5484 0.977 . S
C5494 C5495 1.400 . S
C5494 C5496 1.350 1_455 S
C5495 C5494 1.400 . S
C5495 C5499 1.393 1_455 S
C5496 H5485 0.950 . S
C5496 C5494 1.350 1_655 S
C5496 C5497 1.400 . S
C5497 C5491 1.491 . S
C5497 C5496 1.400 . S
C5497 C5498 1.398 . S
C5498 H5486 0.950 . S
C5498 C5497 1.398 . S
C5498 C5499 1.391 . S
C5499 H5487 0.949 1_655 S
C5499 C5495 1.393 1_655 S
C5499 C5498 1.391 . S
H5500 C5508 0.950 . S
H5501 C5513 0.950 . S
H5502 C5510 0.950 . S
H5503 C5512 0.950 . S
H5504 C5514 0.950 . S
H5505 C5516 0.950 . S
H5506 C5518 0.950 . S
H5507 C5519 0.950 . S
C5508 H5500 0.950 . S
C5508 C5509 1.386 . S
C5508 C5510 1.391 . S
C5509 C5508 1.386 . S
C5509 C5513 1.393 . S
C5510 H5502 0.950 . S
C5510 C5508 1.391 . S
C5510 C5511 1.400 . S
C5511 C5510 1.400 . S
C5511 C5512 1.398 . S
C5511 C5517 1.491 . S
C5512 H5503 0.950 . S
C5512 C5511 1.398 . S
C5512 C5513 1.391 . S
C5513 H5501 0.950 . S
C5513 C5509 1.393 . S
C5513 C5512 1.391 . S
C5514 H5504 0.950 . S
C5514 C5515 1.386 . S
C5514 C5516 1.391 . S
C5515 C5514 1.386 . S
C5515 C5519 1.393 . S
C5516 H5505 0.950 . S
C5516 C5514 1.391 . S
C5516 C5517 1.400 . S
C5517 C5511 1.491 . S
C5517 C5516 1.400 . S
C5517 C5518 1.398 . S
C5518 H5506 0.950 . S
C5518 C5517 1.398 . S
C5518 C5519 1.391 . S
C5519 H5507 0.950 . S
C5519 C5515 1.393 . S
C5519 C5518 1.391 . S
H5520 C5528 0.950 . S
H5521 C5533 0.950 . S
H5522 C5530 0.950 . S
H5523 C5532 0.950 . S
H5524 C5534 0.950 . S
H5525 C5536 0.950 . S
H5526 C5538 0.950 . S
H5527 C5539 0.950 . S
C5528 H5520 0.950 . S
C5528 C5529 1.386 . S
C5528 C5530 1.391 . S
C5529 C5528 1.386 . S
C5529 C5533 1.393 . S
C5530 H5522 0.950 . S
C5530 C5528 1.391 . S
C5530 C5531 1.400 . S
C5531 C5530 1.400 . S
C5531 C5532 1.398 . S
C5531 C5537 1.491 . S
C5532 H5523 0.950 . S
C5532 C5531 1.398 . S
C5532 C5533 1.391 . S
C5533 H5521 0.950 . S
C5533 C5529 1.393 . S
C5533 C5532 1.391 . S
C5534 H5524 0.950 . S
C5534 C5535 1.386 . S
C5534 C5536 1.391 . S
C5535 C5534 1.386 . S
C5535 C5539 1.393 . S
C5536 H5525 0.950 . S
C5536 C5534 1.391 . S
C5536 C5537 1.400 . S
C5537 C5531 1.491 . S
C5537 C5536 1.400 . S
C5537 C5538 1.398 . S
C5538 H5526 0.950 . S
C5538 C5537 1.398 . S
C5538 C5539 1.391 . S
C5539 H5527 0.950 . S
C5539 C5535 1.393 . S
C5539 C5538 1.391 . S
H5540 C5548 0.950 . S
H5541 C5553 0.950 . S
H5542 C5550 0.950 . S
H5543 C5552 0.950 . S
H5544 C5554 0.950 . S
H5545 C5556 0.950 . S
H5546 C5558 0.950 . S
H5547 C5559 0.950 . S
C5548 H5540 0.950 . S
C5548 C5549 1.386 . S
C5548 C5550 1.391 . S
C5549 C5548 1.386 . S
C5549 C5553 1.393 . S
C5550 H5542 0.950 . S
C5550 C5548 1.391 . S
C5550 C5551 1.400 . S
C5551 C5550 1.400 . S
C5551 C5552 1.398 . S
C5551 C5557 1.491 . S
C5552 H5543 0.950 . S
C5552 C5551 1.398 . S
C5552 C5553 1.391 . S
C5553 H5541 0.950 . S
C5553 C5549 1.393 . S
C5553 C5552 1.391 . S
C5554 H5544 0.950 . S
C5554 C5555 1.386 . S
C5554 C5556 1.391 . S
C5555 C5554 1.386 . S
C5555 C5559 1.393 . S
C5556 H5545 0.950 . S
C5556 C5554 1.391 . S
C5556 C5557 1.400 . S
C5557 C5551 1.491 . S
C5557 C5556 1.400 . S
C5557 C5558 1.398 . S
C5558 H5546 0.950 . S
C5558 C5557 1.398 . S
C5558 C5559 1.391 . S
C5559 H5547 0.950 . S
C5559 C5555 1.393 . S
C5559 C5558 1.391 . S
H5560 C5568 0.950 . S
H5561 C5573 0.950 . S
H5562 C5570 0.950 . S
H5563 C5572 0.950 . S
H5564 C5574 0.950 . S
H5565 C5576 0.950 . S
H5566 C5578 0.950 . S
H5567 C5579 0.950 1_455 S
C5568 H5560 0.950 . S
C5568 C5569 1.386 . S
C5568 C5570 1.391 . S
C5569 C5568 1.386 . S
C5569 C5573 1.393 . S
C5570 H5562 0.950 . S
C5570 C5568 1.391 . S
C5570 C5571 1.400 . S
C5571 C5570 1.400 . S
C5571 C5572 1.398 . S
C5571 C5577 1.491 . S
C5572 H5563 0.950 . S
C5572 C5571 1.398 . S
C5572 C5573 1.391 . S
C5573 H5561 0.950 . S
C5573 C5569 1.393 . S
C5573 C5572 1.391 . S
C5574 H5564 0.950 . S
C5574 C5575 1.386 1_655 S
C5574 C5576 1.391 . S
C5575 C5574 1.386 1_455 S
C5575 C5579 1.393 1_455 S
C5576 H5565 0.950 . S
C5576 C5574 1.391 . S
C5576 C5577 1.400 . S
C5577 C5571 1.491 . S
C5577 C5576 1.400 . S
C5577 C5578 1.398 . S
C5578 H5566 0.950 . S
C5578 C5577 1.398 . S
C5578 C5579 1.391 . S
C5579 H5567 0.950 1_655 S
C5579 C5575 1.393 1_655 S
C5579 C5578 1.391 . S
H5580 C5588 0.950 . S
H5581 C5593 0.950 . S
H5582 C5590 0.950 . S
H5583 C5592 0.950 . S
H5584 C5594 0.950 . S
H5585 C5596 0.950 . S
H5586 C5598 0.950 . S
H5587 C5599 0.950 . S
C5588 H5580 0.950 . S
C5588 C5589 1.386 . S
C5588 C5590 1.391 . S
C5589 C5588 1.386 . S
C5589 C5593 1.393 . S
C5590 H5582 0.950 . S
C5590 C5588 1.391 . S
C5590 C5591 1.400 . S
C5591 C5590 1.400 . S
C5591 C5592 1.398 . S
C5591 C5597 1.491 . S
C5592 H5583 0.950 . S
C5592 C5591 1.398 . S
C5592 C5593 1.391 . S
C5593 H5581 0.950 . S
C5593 C5589 1.393 . S
C5593 C5592 1.391 . S
C5594 H5584 0.950 . S
C5594 C5595 1.386 . S
C5594 C5596 1.391 . S
C5595 C5594 1.386 . S
C5595 C5599 1.393 . S
C5596 H5585 0.950 . S
C5596 C5594 1.391 . S
C5596 C5597 1.400 . S
C5597 C5591 1.491 . S
C5597 C5596 1.400 . S
C5597 C5598 1.398 . S
C5598 H5586 0.950 . S
C5598 C5597 1.398 . S
C5598 C5599 1.391 . S
C5599 H5587 0.950 . S
C5599 C5595 1.393 . S
C5599 C5598 1.391 . S
H5600 C5608 0.950 . S
H5601 C5613 0.950 . S
H5602 C5610 0.950 . S
H5603 C5612 0.950 . S
H5604 C5614 0.950 . S
H5605 C5616 0.950 . S
H5606 C5618 0.950 . S
H5607 C5619 0.950 . S
C5608 H5600 0.950 . S
C5608 C5609 1.386 . S
C5608 C5610 1.391 . S
C5609 C5608 1.386 . S
C5609 C5613 1.393 . S
C5610 H5602 0.950 . S
C5610 C5608 1.391 . S
C5610 C5611 1.400 . S
C5611 C5610 1.400 . S
C5611 C5612 1.398 . S
C5611 C5617 1.491 . S
C5612 H5603 0.950 . S
C5612 C5611 1.398 . S
C5612 C5613 1.391 . S
C5613 H5601 0.950 . S
C5613 C5609 1.393 . S
C5613 C5612 1.391 . S
C5614 H5604 0.950 . S
C5614 C5615 1.386 . S
C5614 C5616 1.391 . S
C5615 C5614 1.386 . S
C5615 C5619 1.393 . S
C5616 H5605 0.950 . S
C5616 C5614 1.391 . S
C5616 C5617 1.400 . S
C5617 C5611 1.491 . S
C5617 C5616 1.400 . S
C5617 C5618 1.398 . S
C5618 H5606 0.950 . S
C5618 C5617 1.398 . S
C5618 C5619 1.391 . S
C5619 H5607 0.950 . S
C5619 C5615 1.393 . S
C5619 C5618 1.391 . S
H5620 C5628 0.950 . S
H5621 C5633 0.950 . S
H5622 C5630 0.950 . S
H5623 C5632 0.950 . S
H5624 C5634 0.950 1_545 S
H5625 C5636 0.950 . S
H5626 C5638 0.950 . S
H5627 C5639 0.950 . S
C5628 H5620 0.950 . S
C5628 C5629 1.386 . S
C5628 C5630 1.391 . S
C5629 C5628 1.386 . S
C5629 C5633 1.393 . S
C5630 H5622 0.950 . S
C5630 C5628 1.391 . S
C5630 C5631 1.400 . S
C5631 C5630 1.400 . S
C5631 C5632 1.398 . S
C5631 C5637 1.491 . S
C5632 H5623 0.950 . S
C5632 C5631 1.398 . S
C5632 C5633 1.391 . S
C5633 H5621 0.950 . S
C5633 C5629 1.393 . S
C5633 C5632 1.391 . S
C5634 H5624 0.950 1_565 S
C5634 C5635 1.386 1_565 S
C5634 C5636 1.391 . S
C5635 C5634 1.386 1_545 S
C5635 C5639 1.393 1_545 S
C5636 H5625 0.950 . S
C5636 C5634 1.391 . S
C5636 C5637 1.400 . S
C5637 C5631 1.491 . S
C5637 C5636 1.400 . S
C5637 C5638 1.398 . S
C5638 H5626 0.950 . S
C5638 C5637 1.398 . S
C5638 C5639 1.391 . S
C5639 H5627 0.950 . S
C5639 C5635 1.393 1_565 S
C5639 C5638 1.391 . S
H5640 C5648 0.950 . S
H5641 C5653 0.950 . S
H5642 C5650 0.950 . S
H5643 C5652 0.950 . S
H5644 C5654 0.950 . S
H5645 C5656 0.950 . S
H5646 C5658 0.950 . S
H5647 C5659 0.950 . S
C5648 H5640 0.950 . S
C5648 C5649 1.386 . S
C5648 C5650 1.391 . S
C5649 C5648 1.386 . S
C5649 C5653 1.393 . S
C5650 H5642 0.950 . S
C5650 C5648 1.391 . S
C5650 C5651 1.400 . S
C5651 C5650 1.400 . S
C5651 C5652 1.398 . S
C5651 C5657 1.491 . S
C5652 H5643 0.950 . S
C5652 C5651 1.398 . S
C5652 C5653 1.391 . S
C5653 H5641 0.950 . S
C5653 C5649 1.393 . S
C5653 C5652 1.391 . S
C5654 H5644 0.950 . S
C5654 C5655 1.386 . S
C5654 C5656 1.391 . S
C5655 C5654 1.386 . S
C5655 C5659 1.393 . S
C5656 H5645 0.950 . S
C5656 C5654 1.391 . S
C5656 C5657 1.400 . S
C5657 C5651 1.491 . S
C5657 C5656 1.400 . S
C5657 C5658 1.398 . S
C5658 H5646 0.950 . S
C5658 C5657 1.398 . S
C5658 C5659 1.391 . S
C5659 H5647 0.950 . S
C5659 C5655 1.393 . S
C5659 C5658 1.391 . S
H5660 C5668 0.950 . S
H5661 C5673 0.950 . S
H5662 C5670 0.950 . S
H5663 C5672 0.950 . S
H5664 C5674 0.950 . S
H5665 C5676 0.950 . S
H5666 C5678 0.950 . S
H5667 C5679 0.950 . S
C5668 H5660 0.950 . S
C5668 C5669 1.386 . S
C5668 C5670 1.391 . S
C5669 C5668 1.386 . S
C5669 C5673 1.393 . S
C5670 H5662 0.950 . S
C5670 C5668 1.391 . S
C5670 C5671 1.400 . S
C5671 C5670 1.400 . S
C5671 C5672 1.398 . S
C5671 C5677 1.491 . S
C5672 H5663 0.950 . S
C5672 C5671 1.398 . S
C5672 C5673 1.391 . S
C5673 H5661 0.950 . S
C5673 C5669 1.393 . S
C5673 C5672 1.391 . S
C5674 H5664 0.950 . S
C5674 C5675 1.386 . S
C5674 C5676 1.391 1_565 S
C5675 C5674 1.386 . S
C5675 C5679 1.393 . S
C5676 H5665 0.950 . S
C5676 C5674 1.391 1_545 S
C5676 C5677 1.400 . S
C5677 C5671 1.491 . S
C5677 C5676 1.400 . S
C5677 C5678 1.398 . S
C5678 H5666 0.950 . S
C5678 C5677 1.398 . S
C5678 C5679 1.391 1_545 S
C5679 H5667 0.950 . S
C5679 C5675 1.393 . S
C5679 C5678 1.391 1_565 S
H5680 C5688 0.950 . S
H5681 C5693 0.950 . S
H5682 C5690 0.950 . S
H5683 C5692 0.950 . S
H5684 C5694 0.950 . S
H5685 C5696 0.950 . S
H5686 C5698 0.950 . S
H5687 C5699 0.950 . S
C5688 H5680 0.950 . S
C5688 C5689 1.386 . S
C5688 C5690 1.391 . S
C5689 C5688 1.386 . S
C5689 C5693 1.393 . S
C5690 H5682 0.950 . S
C5690 C5688 1.391 . S
C5690 C5691 1.400 . S
C5691 C5690 1.400 . S
C5691 C5692 1.398 . S
C5691 C5697 1.491 . S
C5692 H5683 0.950 . S
C5692 C5691 1.398 . S
C5692 C5693 1.391 . S
C5693 H5681 0.950 . S
C5693 C5689 1.393 . S
C5693 C5692 1.391 . S
C5694 H5684 0.950 . S
C5694 C5695 1.386 . S
C5694 C5696 1.391 . S
C5695 C5694 1.386 . S
C5695 C5699 1.393 . S
C5696 H5685 0.950 . S
C5696 C5694 1.391 . S
C5696 C5697 1.400 . S
C5697 C5691 1.491 . S
C5697 C5696 1.400 . S
C5697 C5698 1.398 . S
C5698 H5686 0.950 . S
C5698 C5697 1.398 . S
C5698 C5699 1.391 . S
C5699 H5687 0.950 . S
C5699 C5695 1.393 . S
C5699 C5698 1.391 . S
H5700 C5708 0.950 . S
H5701 C5713 0.950 . S
H5702 C5710 0.950 . S
H5703 C5712 0.950 . S
H5704 C5714 0.950 . S
H5705 C5716 0.950 . S
H5706 C5718 0.950 . S
H5707 C5719 0.950 . S
C5708 H5700 0.950 . S
C5708 C5709 1.386 . S
C5708 C5710 1.391 . S
C5709 C5708 1.386 . S
C5709 C5713 1.393 . S
C5710 H5702 0.950 . S
C5710 C5708 1.391 . S
C5710 C5711 1.400 . S
C5711 C5710 1.400 . S
C5711 C5712 1.398 . S
C5711 C5717 1.491 . S
C5712 H5703 0.950 . S
C5712 C5711 1.398 . S
C5712 C5713 1.391 . S
C5713 H5701 0.950 . S
C5713 C5709 1.393 . S
C5713 C5712 1.391 . S
C5714 H5704 0.950 . S
C5714 C5715 1.386 . S
C5714 C5716 1.391 . S
C5715 C5714 1.386 . S
C5715 C5719 1.393 . S
C5716 H5705 0.950 . S
C5716 C5714 1.391 . S
C5716 C5717 1.400 . S
C5717 C5711 1.491 . S
C5717 C5716 1.400 . S
C5717 C5718 1.398 . S
C5718 H5706 0.950 . S
C5718 C5717 1.398 . S
C5718 C5719 1.391 . S
C5719 H5707 0.950 . S
C5719 C5715 1.393 . S
C5719 C5718 1.391 . S
H5720 C5728 0.950 . S
H5721 C5733 0.950 . S
H5722 C5730 0.950 . S
H5723 C5732 0.950 . S
H5724 C5734 0.950 . S
H5725 C5736 0.950 . S
H5726 C5738 0.950 . S
H5727 C5739 0.950 . S
C5728 H5720 0.950 . S
C5728 C5729 1.386 . S
C5728 C5730 1.391 . S
C5729 C5728 1.386 . S
C5729 C5733 1.393 . S
C5730 H5722 0.950 . S
C5730 C5728 1.391 . S
C5730 C5731 1.400 . S
C5731 C5730 1.400 . S
C5731 C5732 1.398 . S
C5731 C5737 1.491 . S
C5732 H5723 0.950 . S
C5732 C5731 1.398 . S
C5732 C5733 1.391 . S
C5733 H5721 0.950 . S
C5733 C5729 1.393 . S
C5733 C5732 1.391 . S
C5734 H5724 0.950 . S
C5734 C5735 1.386 . S
C5734 C5736 1.391 . S
C5735 C5734 1.386 . S
C5735 C5739 1.393 . S
C5736 H5725 0.950 . S
C5736 C5734 1.391 . S
C5736 C5737 1.400 . S
C5737 C5731 1.491 . S
C5737 C5736 1.400 . S
C5737 C5738 1.398 . S
C5738 H5726 0.950 . S
C5738 C5737 1.398 . S
C5738 C5739 1.391 . S
C5739 H5727 0.950 . S
C5739 C5735 1.393 . S
C5739 C5738 1.391 . S
H5740 C5748 0.950 . S
H5741 C5753 0.950 . S
H5742 C5750 0.950 . S
H5743 C5752 0.950 . S
H5744 C5754 0.950 . S
H5745 C5756 0.950 . S
H5746 C5758 0.950 . S
H5747 C5759 0.950 . S
C5748 H5740 0.950 . S
C5748 C5749 1.386 . S
C5748 C5750 1.391 . S
C5749 C5748 1.386 . S
C5749 C5753 1.393 . S
C5750 H5742 0.950 . S
C5750 C5748 1.391 . S
C5750 C5751 1.400 . S
C5751 C5750 1.400 . S
C5751 C5752 1.398 . S
C5751 C5757 1.491 . S
C5752 H5743 0.950 . S
C5752 C5751 1.398 . S
C5752 C5753 1.391 . S
C5753 H5741 0.950 . S
C5753 C5749 1.393 . S
C5753 C5752 1.391 . S
C5754 H5744 0.950 . S
C5754 C5755 1.386 . S
C5754 C5756 1.391 . S
C5755 C5754 1.386 . S
C5755 C5759 1.393 . S
C5756 H5745 0.950 . S
C5756 C5754 1.391 . S
C5756 C5757 1.400 . S
C5757 C5751 1.491 . S
C5757 C5756 1.400 . S
C5757 C5758 1.398 . S
C5758 H5746 0.950 . S
C5758 C5757 1.398 . S
C5758 C5759 1.391 . S
C5759 H5747 0.950 . S
C5759 C5755 1.393 . S
C5759 C5758 1.391 . S
H5760 C5768 0.950 . S
H5761 C5773 0.950 . S
H5762 C5770 0.950 . S
H5763 C5772 0.950 . S
H5764 C5774 0.950 . S
H5765 C5776 0.950 . S
H5766 C5778 0.950 . S
H5767 C5779 0.950 . S
C5768 H5760 0.950 . S
C5768 C5769 1.386 . S
C5768 C5770 1.391 1_554 S
C5769 C5768 1.386 . S
C5769 C5773 1.393 1_554 S
C5770 H5762 0.950 . S
C5770 C5768 1.391 1_556 S
C5770 C5771 1.400 . S
C5771 C5770 1.400 . S
C5771 C5772 1.398 . S
C5771 C5777 1.491 . S
C5772 H5763 0.950 . S
C5772 C5771 1.398 . S
C5772 C5773 1.391 . S
C5773 H5761 0.950 . S
C5773 C5769 1.393 1_556 S
C5773 C5772 1.391 . S
C5774 H5764 0.950 . S
C5774 C5775 1.386 . S
C5774 C5776 1.391 . S
C5775 C5774 1.386 . S
C5775 C5779 1.393 . S
C5776 H5765 0.950 . S
C5776 C5774 1.391 . S
C5776 C5777 1.400 . S
C5777 C5771 1.491 . S
C5777 C5776 1.400 . S
C5777 C5778 1.398 . S
C5778 H5766 0.950 . S
C5778 C5777 1.398 . S
C5778 C5779 1.391 . S
C5779 H5767 0.950 . S
C5779 C5775 1.393 . S
C5779 C5778 1.391 . S
H5780 C5788 0.950 . S
H5781 C5793 0.950 . S
H5782 C5790 0.950 . S
H5783 C5792 0.950 . S
H5784 C5794 0.950 . S
H5785 C5796 0.950 . S
H5786 C5798 0.950 . S
H5787 C5799 0.950 . S
C5788 H5780 0.950 . S
C5788 C5789 1.386 . S
C5788 C5790 1.391 . S
C5789 C5788 1.386 . S
C5789 C5793 1.393 . S
C5790 H5782 0.950 . S
C5790 C5788 1.391 . S
C5790 C5791 1.400 . S
C5791 C5790 1.400 . S
C5791 C5792 1.398 . S
C5791 C5797 1.491 . S
C5792 H5783 0.950 . S
C5792 C5791 1.398 . S
C5792 C5793 1.391 . S
C5793 H5781 0.950 . S
C5793 C5789 1.393 . S
C5793 C5792 1.391 . S
C5794 H5784 0.950 . S
C5794 C5795 1.386 . S
C5794 C5796 1.391 . S
C5795 C5794 1.386 . S
C5795 C5799 1.393 . S
C5796 H5785 0.950 . S
C5796 C5794 1.391 . S
C5796 C5797 1.400 . S
C5797 C5791 1.491 . S
C5797 C5796 1.400 . S
C5797 C5798 1.398 . S
C5798 H5786 0.950 . S
C5798 C5797 1.398 . S
C5798 C5799 1.391 . S
C5799 H5787 0.950 . S
C5799 C5795 1.393 . S
C5799 C5798 1.391 . S
H5800 C5808 0.950 . S
H5801 C5813 0.950 . S
H5802 C5810 0.950 . S
H5803 C5812 0.950 . S
H5804 C5814 0.950 . S
H5805 C5816 0.950 . S
H5806 C5818 0.950 . S
H5807 C5819 0.950 . S
C5808 H5800 0.950 . S
C5808 C5809 1.386 . S
C5808 C5810 1.391 . S
C5809 C5808 1.386 . S
C5809 C5813 1.393 . S
C5810 H5802 0.950 . S
C5810 C5808 1.391 . S
C5810 C5811 1.400 . S
C5811 C5810 1.400 . S
C5811 C5812 1.398 . S
C5811 C5817 1.491 . S
C5812 H5803 0.950 . S
C5812 C5811 1.398 . S
C5812 C5813 1.391 . S
C5813 H5801 0.950 . S
C5813 C5809 1.393 . S
C5813 C5812 1.391 . S
C5814 H5804 0.950 . S
C5814 C5815 1.386 . S
C5814 C5816 1.391 . S
C5815 C5814 1.386 . S
C5815 C5819 1.393 . S
C5816 H5805 0.950 . S
C5816 C5814 1.391 . S
C5816 C5817 1.400 . S
C5817 C5811 1.491 . S
C5817 C5816 1.400 . S
C5817 C5818 1.398 . S
C5818 H5806 0.950 . S
C5818 C5817 1.398 . S
C5818 C5819 1.391 . S
C5819 H5807 0.950 . S
C5819 C5815 1.393 . S
C5819 C5818 1.391 . S
H5820 C5828 0.950 . S
H5821 C5833 0.950 . S
H5822 C5830 0.950 . S
H5823 C5832 0.950 . S
H5824 C5834 0.950 . S
H5825 C5836 0.950 . S
H5826 C5838 0.950 . S
H5827 C5839 0.950 . S
C5828 H5820 0.950 . S
C5828 C5829 1.386 . S
C5828 C5830 1.391 . S
C5829 C5828 1.386 . S
C5829 C5833 1.393 . S
C5830 H5822 0.950 . S
C5830 C5828 1.391 . S
C5830 C5831 1.400 . S
C5831 C5830 1.400 . S
C5831 C5832 1.398 . S
C5831 C5837 1.491 . S
C5832 H5823 0.950 . S
C5832 C5831 1.398 . S
C5832 C5833 1.391 . S
C5833 H5821 0.950 . S
C5833 C5829 1.393 . S
C5833 C5832 1.391 . S
C5834 H5824 0.950 . S
C5834 C5835 1.386 . S
C5834 C5836 1.391 . S
C5835 C5834 1.386 . S
C5835 C5839 1.393 . S
C5836 H5825 0.950 . S
C5836 C5834 1.391 . S
C5836 C5837 1.400 . S
C5837 C5831 1.491 . S
C5837 C5836 1.400 . S
C5837 C5838 1.398 . S
C5838 H5826 0.950 . S
C5838 C5837 1.398 . S
C5838 C5839 1.391 . S
C5839 H5827 0.950 . S
C5839 C5835 1.393 . S
C5839 C5838 1.391 . S
H5840 C5848 0.950 . S
H5841 C5853 0.950 . S
H5842 C5850 0.950 . S
H5843 C5852 0.950 . S
H5844 C5854 0.950 . S
H5845 C5856 0.950 . S
H5846 C5858 0.950 . S
H5847 C5859 0.950 . S
C5848 H5840 0.950 . S
C5848 C5849 1.386 . S
C5848 C5850 1.391 . S
C5849 C5848 1.386 . S
C5849 C5853 1.393 . S
C5850 H5842 0.950 . S
C5850 C5848 1.391 . S
C5850 C5851 1.400 . S
C5851 C5850 1.400 . S
C5851 C5852 1.398 . S
C5851 C5857 1.491 . S
C5852 H5843 0.950 . S
C5852 C5851 1.398 . S
C5852 C5853 1.391 . S
C5853 H5841 0.950 . S
C5853 C5849 1.393 . S
C5853 C5852 1.391 . S
C5854 H5844 0.950 . S
C5854 C5855 1.386 . S
C5854 C5856 1.391 . S
C5855 C5854 1.386 . S
C5855 C5859 1.393 . S
C5856 H5845 0.950 . S
C5856 C5854 1.391 . S
C5856 C5857 1.400 . S
C5857 C5851 1.491 . S
C5857 C5856 1.400 . S
C5857 C5858 1.398 . S
C5858 H5846 0.950 . S
C5858 C5857 1.398 . S
C5858 C5859 1.391 . S
C5859 H5847 0.950 . S
C5859 C5855 1.393 . S
C5859 C5858 1.391 . S
H5860 C5868 0.950 . S
H5861 C5873 0.950 . S
H5862 C5870 0.950 . S
H5863 C5872 0.950 . S
H5864 C5874 0.950 . S
H5865 C5876 0.950 . S
H5866 C5878 0.950 . S
H5867 C5879 0.950 . S
C5868 H5860 0.950 . S
C5868 C5869 1.386 . S
C5868 C5870 1.391 . S
C5869 C5868 1.386 . S
C5869 C5873 1.393 . S
C5870 H5862 0.950 . S
C5870 C5868 1.391 . S
C5870 C5871 1.400 . S
C5871 C5870 1.400 . S
C5871 C5872 1.398 . S
C5871 C5877 1.491 . S
C5872 H5863 0.950 . S
C5872 C5871 1.398 . S
C5872 C5873 1.391 . S
C5873 H5861 0.950 . S
C5873 C5869 1.393 . S
C5873 C5872 1.391 . S
C5874 H5864 0.950 . S
C5874 C5875 1.386 . S
C5874 C5876 1.391 . S
C5875 C5874 1.386 . S
C5875 C5879 1.393 . S
C5876 H5865 0.950 . S
C5876 C5874 1.391 . S
C5876 C5877 1.400 . S
C5877 C5871 1.491 . S
C5877 C5876 1.400 . S
C5877 C5878 1.398 . S
C5878 H5866 0.950 . S
C5878 C5877 1.398 . S
C5878 C5879 1.391 . S
C5879 H5867 0.950 . S
C5879 C5875 1.393 . S
C5879 C5878 1.391 . S
H5880 C5888 0.950 . S
H5881 C5893 0.950 1_556 S
H5882 C5890 0.950 . S
H5883 C5892 0.950 . S
H5884 C5894 0.950 . S
H5885 C5896 0.950 . S
H5886 C5898 0.950 . S
H5887 C5899 0.950 . S
C5888 H5880 0.950 . S
C5888 C5889 1.386 . S
C5888 C5890 1.391 1_556 S
C5889 C5888 1.386 . S
C5889 C5893 1.393 1_556 S
C5890 H5882 0.950 . S
C5890 C5888 1.391 1_554 S
C5890 C5891 1.400 . S
C5891 C5890 1.400 . S
C5891 C5892 1.398 . S
C5891 C5897 1.491 . S
C5892 H5883 0.950 . S
C5892 C5891 1.398 . S
C5892 C5893 1.391 . S
C5893 H5881 0.950 1_554 S
C5893 C5889 1.393 1_554 S
C5893 C5892 1.391 . S
C5894 H5884 0.950 . S
C5894 C5895 1.386 . S
C5894 C5896 1.391 . S
C5895 C5894 1.386 . S
C5895 C5899 1.393 . S
C5896 H5885 0.950 . S
C5896 C5894 1.391 . S
C5896 C5897 1.400 . S
C5897 C5891 1.491 . S
C5897 C5896 1.400 . S
C5897 C5898 1.398 . S
C5898 H5886 0.950 . S
C5898 C5897 1.398 . S
C5898 C5899 1.391 . S
C5899 H5887 0.950 . S
C5899 C5895 1.393 . S
C5899 C5898 1.391 . S
H5900 C5908 0.950 . S
H5901 C5913 0.950 . S
H5902 C5910 0.950 . S
H5903 C5912 0.950 . S
H5904 C5914 0.950 . S
H5905 C5916 0.950 . S
H5906 C5918 0.950 . S
H5907 C5919 0.950 . S
C5908 H5900 0.950 . S
C5908 C5909 1.386 . S
C5908 C5910 1.391 . S
C5909 C5908 1.386 . S
C5909 C5913 1.393 . S
C5910 H5902 0.950 . S
C5910 C5908 1.391 . S
C5910 C5911 1.400 . S
C5911 C5910 1.400 . S
C5911 C5912 1.398 . S
C5911 C5917 1.491 . S
C5912 H5903 0.950 . S
C5912 C5911 1.398 . S
C5912 C5913 1.391 . S
C5913 H5901 0.950 . S
C5913 C5909 1.393 . S
C5913 C5912 1.391 . S
C5914 H5904 0.950 . S
C5914 C5915 1.386 . S
C5914 C5916 1.391 . S
C5915 C5914 1.386 . S
C5915 C5919 1.393 . S
C5916 H5905 0.950 . S
C5916 C5914 1.391 . S
C5916 C5917 1.400 . S
C5917 C5911 1.491 . S
C5917 C5916 1.400 . S
C5917 C5918 1.398 . S
C5918 H5906 0.950 . S
C5918 C5917 1.398 . S
C5918 C5919 1.391 . S
C5919 H5907 0.950 . S
C5919 C5915 1.393 . S
C5919 C5918 1.391 . S
H5920 C5928 0.950 . S
H5921 C5933 0.950 . S
H5922 C5930 0.950 . S
H5923 C5932 0.950 . S
H5924 C5934 0.950 . S
H5925 C5936 0.950 . S
H5926 C5938 0.950 . S
H5927 C5939 0.950 . S
C5928 H5920 0.950 . S
C5928 C5929 1.386 . S
C5928 C5930 1.391 . S
C5929 C5928 1.386 . S
C5929 C5933 1.393 . S
C5930 H5922 0.950 . S
C5930 C5928 1.391 . S
C5930 C5931 1.400 . S
C5931 C5930 1.400 . S
C5931 C5932 1.398 . S
C5931 C5937 1.491 . S
C5932 H5923 0.950 . S
C5932 C5931 1.398 . S
C5932 C5933 1.391 . S
C5933 H5921 0.950 . S
C5933 C5929 1.393 . S
C5933 C5932 1.391 . S
C5934 H5924 0.950 . S
C5934 C5935 1.386 . S
C5934 C5936 1.391 . S
C5935 C5934 1.386 . S
C5935 C5939 1.393 . S
C5936 H5925 0.950 . S
C5936 C5934 1.391 . S
C5936 C5937 1.400 . S
C5937 C5931 1.491 . S
C5937 C5936 1.400 . S
C5937 C5938 1.398 . S
C5938 H5926 0.950 . S
C5938 C5937 1.398 . S
C5938 C5939 1.391 . S
C5939 H5927 0.950 . S
C5939 C5935 1.393 . S
C5939 C5938 1.391 . S
H5940 C5948 0.950 . S
H5941 C5953 0.950 . S
H5942 C5950 0.950 . S
H5943 C5952 0.950 . S
H5944 C5954 0.950 . S
H5945 C5956 0.950 . S
H5946 C5958 0.950 . S
H5947 C5959 0.950 . S
C5948 H5940 0.950 . S
C5948 C5949 1.386 . S
C5948 C5950 1.391 . S
C5949 C5948 1.386 . S
C5949 C5953 1.393 . S
C5950 H5942 0.950 . S
C5950 C5948 1.391 . S
C5950 C5951 1.400 . S
C5951 C5950 1.400 . S
C5951 C5952 1.398 . S
C5951 C5957 1.491 . S
C5952 H5943 0.950 . S
C5952 C5951 1.398 . S
C5952 C5953 1.391 . S
C5953 H5941 0.950 . S
C5953 C5949 1.393 . S
C5953 C5952 1.391 . S
C5954 H5944 0.950 . S
C5954 C5955 1.386 . S
C5954 C5956 1.391 . S
C5955 C5954 1.386 . S
C5955 C5959 1.393 . S
C5956 H5945 0.950 . S
C5956 C5954 1.391 . S
C5956 C5957 1.400 . S
C5957 C5951 1.491 . S
C5957 C5956 1.400 . S
C5957 C5958 1.398 . S
C5958 H5946 0.950 . S
C5958 C5957 1.398 . S
C5958 C5959 1.391 . S
C5959 H5947 0.950 . S
C5959 C5955 1.393 . S
C5959 C5958 1.391 . S
H5960 C5968 0.950 . S
H5961 C5973 0.950 . S
H5962 C5970 0.950 . S
H5963 C5972 0.950 . S
H5964 C5974 0.950 . S
H5965 C5976 0.950 . S
H5966 C5978 0.950 . S
H5967 C5979 0.950 . S
C5968 H5960 0.950 . S
C5968 C5969 1.386 . S
C5968 C5970 1.391 . S
C5969 C5968 1.386 . S
C5969 C5973 1.393 . S
C5970 H5962 0.950 . S
C5970 C5968 1.391 . S
C5970 C5971 1.400 . S
C5971 C5970 1.400 . S
C5971 C5972 1.398 . S
C5971 C5977 1.491 . S
C5972 H5963 0.950 . S
C5972 C5971 1.398 . S
C5972 C5973 1.391 . S
C5973 H5961 0.950 . S
C5973 C5969 1.393 . S
C5973 C5972 1.391 . S
C5974 H5964 0.950 . S
C5974 C5975 1.386 . S
C5974 C5976 1.391 . S
C5975 C5974 1.386 . S
C5975 C5979 1.393 . S
C5976 H5965 0.950 . S
C5976 C5974 1.391 . S
C5976 C5977 1.400 . S
C5977 C5971 1.491 . S
C5977 C5976 1.400 . S
C5977 C5978 1.398 . S
C5978 H5966 0.950 . S
C5978 C5977 1.398 . S
C5978 C5979 1.391 . S
C5979 H5967 0.950 . S
C5979 C5975 1.393 . S
C5979 C5978 1.391 . S
H5980 C5988 0.950 . S
H5981 C5993 0.950 . S
H5982 C5990 0.950 . S
H5983 C5992 0.950 . S
H5984 C5994 0.950 . S
H5985 C5996 0.950 . S
H5986 C5998 0.950 . S
H5987 C5999 0.950 . S
C5988 H5980 0.950 . S
C5988 C5989 1.386 . S
C5988 C5990 1.391 . S
C5989 C5988 1.386 . S
C5989 C5993 1.393 . S
C5990 H5982 0.950 . S
C5990 C5988 1.391 . S
C5990 C5991 1.400 . S
C5991 C5990 1.400 . S
C5991 C5992 1.398 . S
C5991 C5997 1.491 . S
C5992 H5983 0.950 . S
C5992 C5991 1.398 . S
C5992 C5993 1.391 . S
C5993 H5981 0.950 . S
C5993 C5989 1.393 . S
C5993 C5992 1.391 . S
C5994 H5984 0.950 . S
C5994 C5995 1.386 . S
C5994 C5996 1.391 . S
C5995 C5994 1.386 . S
C5995 C5999 1.393 . S
C5996 H5985 0.950 . S
C5996 C5994 1.391 . S
C5996 C5997 1.400 . S
C5997 C5991 1.491 . S
C5997 C5996 1.400 . S
C5997 C5998 1.398 . S
C5998 H5986 0.950 . S
C5998 C5997 1.398 . S
C5998 C5999 1.391 . S
C5999 H5987 0.950 . S
C5999 C5995 1.393 . S
C5999 C5998 1.391 . S
H6000 C6008 0.950 . S
H6001 C6013 0.950 . S
H6002 C6010 0.950 . S
H6003 C6012 0.950 . S
H6004 C6014 0.950 . S
H6005 C6016 0.950 . S
H6006 C6018 0.950 . S
H6007 C6019 0.950 1_455 S
C6008 H6000 0.950 . S
C6008 C6009 1.386 . S
C6008 C6010 1.391 . S
C6009 C6008 1.386 . S
C6009 C6013 1.393 . S
C6010 H6002 0.950 . S
C6010 C6008 1.391 . S
C6010 C6011 1.400 . S
C6011 C6010 1.400 . S
C6011 C6012 1.398 . S
C6011 C6017 1.491 . S
C6012 H6003 0.950 . S
C6012 C6011 1.398 . S
C6012 C6013 1.391 . S
C6013 H6001 0.950 . S
C6013 C6009 1.393 . S
C6013 C6012 1.391 . S
C6014 H6004 0.950 . S
C6014 C6015 1.386 1_655 S
C6014 C6016 1.391 . S
C6015 C6014 1.386 1_455 S
C6015 C6019 1.393 1_455 S
C6016 H6005 0.950 . S
C6016 C6014 1.391 . S
C6016 C6017 1.400 . S
C6017 C6011 1.491 . S
C6017 C6016 1.400 . S
C6017 C6018 1.398 . S
C6018 H6006 0.950 . S
C6018 C6017 1.398 . S
C6018 C6019 1.391 . S
C6019 H6007 0.950 1_655 S
C6019 C6015 1.393 1_655 S
C6019 C6018 1.391 . S
H6020 C6028 0.950 . S
H6021 C6033 0.950 . S
H6022 C6030 0.950 . S
H6023 C6032 0.950 . S
H6024 C6034 0.950 . S
H6025 C6036 0.950 . S
H6026 C6038 0.950 . S
H6027 C6039 0.950 . S
C6028 H6020 0.950 . S
C6028 C6029 1.386 . S
C6028 C6030 1.391 . S
C6029 C6028 1.386 . S
C6029 C6033 1.393 . S
C6030 H6022 0.950 . S
C6030 C6028 1.391 . S
C6030 C6031 1.400 . S
C6031 C6030 1.400 . S
C6031 C6032 1.398 . S
C6031 C6037 1.491 . S
C6032 H6023 0.950 . S
C6032 C6031 1.398 . S
C6032 C6033 1.391 . S
C6033 H6021 0.950 . S
C6033 C6029 1.393 . S
C6033 C6032 1.391 . S
C6034 H6024 0.950 . S
C6034 C6035 1.386 . S
C6034 C6036 1.391 . S
C6035 C6034 1.386 . S
C6035 C6039 1.393 . S
C6036 H6025 0.950 . S
C6036 C6034 1.391 . S
C6036 C6037 1.400 . S
C6037 C6031 1.491 . S
C6037 C6036 1.400 . S
C6037 C6038 1.398 . S
C6038 H6026 0.950 . S
C6038 C6037 1.398 . S
C6038 C6039 1.391 . S
C6039 H6027 0.950 . S
C6039 C6035 1.393 . S
C6039 C6038 1.391 . S
H6040 C6048 0.950 . S
H6041 C6053 0.950 . S
H6042 C6050 0.950 . S
H6043 C6052 0.950 . S
H6044 C6054 0.950 . S
H6045 C6056 0.950 . S
H6046 C6058 0.950 . S
H6047 C6059 0.950 . S
C6048 H6040 0.950 . S
C6048 C6049 1.386 . S
C6048 C6050 1.391 . S
C6049 C6048 1.386 . S
C6049 C6053 1.393 . S
C6050 H6042 0.950 . S
C6050 C6048 1.391 . S
C6050 C6051 1.400 . S
C6051 C6050 1.400 . S
C6051 C6052 1.398 . S
C6051 C6057 1.491 . S
C6052 H6043 0.950 . S
C6052 C6051 1.398 . S
C6052 C6053 1.391 . S
C6053 H6041 0.950 . S
C6053 C6049 1.393 . S
C6053 C6052 1.391 . S
C6054 H6044 0.950 . S
C6054 C6055 1.386 . S
C6054 C6056 1.391 . S
C6055 C6054 1.386 . S
C6055 C6059 1.393 . S
C6056 H6045 0.950 . S
C6056 C6054 1.391 . S
C6056 C6057 1.400 . S
C6057 C6051 1.491 . S
C6057 C6056 1.400 . S
C6057 C6058 1.398 . S
C6058 H6046 0.950 . S
C6058 C6057 1.398 . S
C6058 C6059 1.391 . S
C6059 H6047 0.950 . S
C6059 C6055 1.393 . S
C6059 C6058 1.391 . S
H6060 C6068 0.950 . S
H6061 C6073 0.950 . S
H6062 C6070 0.950 . S
H6063 C6072 0.950 . S
H6064 C6074 0.950 . S
H6065 C6076 0.950 . S
H6066 C6078 0.950 . S
H6067 C6079 0.950 . S
C6068 H6060 0.950 . S
C6068 C6069 1.386 . S
C6068 C6070 1.391 . S
C6069 C6068 1.386 . S
C6069 C6073 1.393 . S
C6070 H6062 0.950 . S
C6070 C6068 1.391 . S
C6070 C6071 1.400 . S
C6071 C6070 1.400 . S
C6071 C6072 1.398 . S
C6071 C6077 1.491 . S
C6072 H6063 0.950 . S
C6072 C6071 1.398 . S
C6072 C6073 1.391 . S
C6073 H6061 0.950 . S
C6073 C6069 1.393 . S
C6073 C6072 1.391 . S
C6074 H6064 0.950 . S
C6074 C6075 1.386 . S
C6074 C6076 1.391 . S
C6075 C6074 1.386 . S
C6075 C6079 1.393 . S
C6076 H6065 0.950 . S
C6076 C6074 1.391 . S
C6076 C6077 1.400 . S
C6077 C6071 1.491 . S
C6077 C6076 1.400 . S
C6077 C6078 1.398 . S
C6078 H6066 0.950 . S
C6078 C6077 1.398 . S
C6078 C6079 1.391 . S
C6079 H6067 0.950 . S
C6079 C6075 1.393 . S
C6079 C6078 1.391 . S
H6080 C6088 0.962 . S
H6081 C6093 0.950 . S
H6082 C6090 0.950 . S
H6083 C6092 0.950 . S
H6084 C6094 0.950 . S
H6085 C6096 0.950 . S
H6086 C6098 0.950 . S
H6087 C6099 0.950 . S
C6088 H6080 0.962 . S
C6088 C6089 1.399 . S
C6088 C6090 1.366 1_545 S
C6089 C6088 1.399 . S
C6089 C6093 1.393 . S
C6090 H6082 0.950 . S
C6090 C6088 1.366 1_565 S
C6090 C6091 1.400 . S
C6091 C6090 1.400 . S
C6091 C6092 1.398 . S
C6091 C6097 1.491 . S
C6092 H6083 0.950 . S
C6092 C6091 1.398 . S
C6092 C6093 1.391 1_565 S
C6093 H6081 0.950 . S
C6093 C6089 1.393 . S
C6093 C6092 1.391 1_545 S
C6094 H6084 0.950 . S
C6094 C6095 1.386 . S
C6094 C6096 1.391 . S
C6095 C6094 1.386 . S
C6095 C6099 1.393 . S
C6096 H6085 0.950 . S
C6096 C6094 1.391 . S
C6096 C6097 1.400 . S
C6097 C6091 1.491 . S
C6097 C6096 1.400 . S
C6097 C6098 1.398 . S
C6098 H6086 0.950 . S
C6098 C6097 1.398 . S
C6098 C6099 1.391 . S
C6099 H6087 0.950 . S
C6099 C6095 1.393 . S
C6099 C6098 1.391 . S
H6100 C6108 0.950 . S
H6101 C6113 0.950 . S
H6102 C6110 0.950 . S
H6103 C6112 0.950 . S
H6104 C6114 0.950 . S
H6105 C6116 0.950 . S
H6106 C6118 0.950 . S
H6107 C6119 0.950 . S
C6108 H6100 0.950 . S
C6108 C6109 1.386 . S
C6108 C6110 1.391 . S
C6109 C6108 1.386 . S
C6109 C6113 1.393 . S
C6110 H6102 0.950 . S
C6110 C6108 1.391 . S
C6110 C6111 1.400 . S
C6111 C6110 1.400 . S
C6111 C6112 1.398 . S
C6111 C6117 1.491 . S
C6112 H6103 0.950 . S
C6112 C6111 1.398 . S
C6112 C6113 1.391 . S
C6113 H6101 0.950 . S
C6113 C6109 1.393 . S
C6113 C6112 1.391 . S
C6114 H6104 0.950 . S
C6114 C6115 1.386 . S
C6114 C6116 1.391 . S
C6115 C6114 1.386 . S
C6115 C6119 1.393 . S
C6116 H6105 0.950 . S
C6116 C6114 1.391 . S
C6116 C6117 1.400 . S
C6117 C6111 1.491 . S
C6117 C6116 1.400 . S
C6117 C6118 1.398 . S
C6118 H6106 0.950 . S
C6118 C6117 1.398 . S
C6118 C6119 1.391 . S
C6119 H6107 0.950 . S
C6119 C6115 1.393 . S
C6119 C6118 1.391 . S
H6120 C6128 0.950 . S
H6121 C6133 0.950 . S
H6122 C6130 0.950 . S
H6123 C6132 0.950 . S
H6124 C6134 0.950 . S
H6125 C6136 0.950 . S
H6126 C6138 0.950 . S
H6127 C6139 0.950 . S
C6128 H6120 0.950 . S
C6128 C6129 1.386 . S
C6128 C6130 1.391 . S
C6129 C6128 1.386 . S
C6129 C6133 1.393 . S
C6130 H6122 0.950 . S
C6130 C6128 1.391 . S
C6130 C6131 1.400 . S
C6131 C6130 1.400 . S
C6131 C6132 1.398 . S
C6131 C6137 1.491 . S
C6132 H6123 0.950 . S
C6132 C6131 1.398 . S
C6132 C6133 1.391 . S
C6133 H6121 0.950 . S
C6133 C6129 1.393 . S
C6133 C6132 1.391 . S
C6134 H6124 0.950 . S
C6134 C6135 1.386 . S
C6134 C6136 1.391 . S
C6135 C6134 1.386 . S
C6135 C6139 1.393 . S
C6136 H6125 0.950 . S
C6136 C6134 1.391 . S
C6136 C6137 1.400 . S
C6137 C6131 1.491 . S
C6137 C6136 1.400 . S
C6137 C6138 1.398 . S
C6138 H6126 0.950 . S
C6138 C6137 1.398 . S
C6138 C6139 1.391 . S
C6139 H6127 0.950 . S
C6139 C6135 1.393 . S
C6139 C6138 1.391 . S
H6140 C6148 0.950 . S
H6141 C6153 0.950 . S
H6142 C6150 0.950 . S
H6143 C6152 0.950 . S
H6144 C6154 0.950 . S
H6145 C6156 0.950 . S
H6146 C6158 0.950 . S
H6147 C6159 0.950 . S
C6148 H6140 0.950 . S
C6148 C6149 1.386 . S
C6148 C6150 1.391 . S
C6149 C6148 1.386 . S
C6149 C6153 1.393 . S
C6150 H6142 0.950 . S
C6150 C6148 1.391 . S
C6150 C6151 1.400 . S
C6151 C6150 1.400 . S
C6151 C6152 1.398 . S
C6151 C6157 1.491 . S
C6152 H6143 0.950 . S
C6152 C6151 1.398 . S
C6152 C6153 1.391 . S
C6153 H6141 0.950 . S
C6153 C6149 1.393 . S
C6153 C6152 1.391 . S
C6154 H6144 0.950 . S
C6154 C6155 1.386 . S
C6154 C6156 1.391 . S
C6155 C6154 1.386 . S
C6155 C6159 1.393 . S
C6156 H6145 0.950 . S
C6156 C6154 1.391 . S
C6156 C6157 1.400 . S
C6157 C6151 1.491 . S
C6157 C6156 1.400 . S
C6157 C6158 1.398 . S
C6158 H6146 0.950 . S
C6158 C6157 1.398 . S
C6158 C6159 1.391 . S
C6159 H6147 0.950 . S
C6159 C6155 1.393 . S
C6159 C6158 1.391 . S
H6160 C6168 0.950 . S
H6161 C6173 0.950 . S
H6162 C6170 0.950 . S
H6163 C6172 0.950 . S
H6164 C6174 0.950 . S
H6165 C6176 0.950 . S
H6166 C6178 0.950 . S
H6167 C6179 0.950 . S
C6168 H6160 0.950 . S
C6168 C6169 1.386 . S
C6168 C6170 1.391 . S
C6169 C6168 1.386 . S
C6169 C6173 1.393 . S
C6170 H6162 0.950 . S
C6170 C6168 1.391 . S
C6170 C6171 1.400 . S
C6171 C6170 1.400 . S
C6171 C6172 1.398 . S
C6171 C6177 1.491 . S
C6172 H6163 0.950 . S
C6172 C6171 1.398 . S
C6172 C6173 1.391 . S
C6173 H6161 0.950 . S
C6173 C6169 1.393 . S
C6173 C6172 1.391 . S
C6174 H6164 0.950 . S
C6174 C6175 1.386 . S
C6174 C6176 1.391 . S
C6175 C6174 1.386 . S
C6175 C6179 1.393 . S
C6176 H6165 0.950 . S
C6176 C6174 1.391 . S
C6176 C6177 1.400 . S
C6177 C6171 1.491 . S
C6177 C6176 1.400 . S
C6177 C6178 1.398 . S
C6178 H6166 0.950 . S
C6178 C6177 1.398 . S
C6178 C6179 1.391 . S
C6179 H6167 0.950 . S
C6179 C6175 1.393 . S
C6179 C6178 1.391 . S
H6180 C6188 0.950 . S
H6181 C6193 0.950 . S
H6182 C6190 0.950 . S
H6183 C6192 0.950 . S
H6184 C6194 0.950 . S
H6185 C6196 0.950 . S
H6186 C6198 0.950 . S
H6187 C6199 0.950 1_565 S
C6188 H6180 0.950 . S
C6188 C6189 1.386 . S
C6188 C6190 1.391 . S
C6189 C6188 1.386 . S
C6189 C6193 1.393 . S
C6190 H6182 0.950 . S
C6190 C6188 1.391 . S
C6190 C6191 1.400 . S
C6191 C6190 1.400 . S
C6191 C6192 1.398 . S
C6191 C6197 1.491 . S
C6192 H6183 0.950 . S
C6192 C6191 1.398 . S
C6192 C6193 1.391 . S
C6193 H6181 0.950 . S
C6193 C6189 1.393 . S
C6193 C6192 1.391 . S
C6194 H6184 0.950 . S
C6194 C6195 1.386 1_545 S
C6194 C6196 1.391 . S
C6195 C6194 1.386 1_565 S
C6195 C6199 1.393 1_565 S
C6196 H6185 0.950 . S
C6196 C6194 1.391 . S
C6196 C6197 1.400 . S
C6197 C6191 1.491 . S
C6197 C6196 1.400 . S
C6197 C6198 1.398 . S
C6198 H6186 0.950 . S
C6198 C6197 1.398 . S
C6198 C6199 1.391 . S
C6199 H6187 0.950 1_545 S
C6199 C6195 1.393 1_545 S
C6199 C6198 1.391 . S
H6200 C6208 0.950 . S
H6201 C6213 0.950 . S
H6202 C6210 0.950 . S
H6203 C6212 0.950 . S
H6204 C6214 0.950 . S
H6205 C6216 0.950 . S
H6206 C6218 0.950 . S
H6207 C6219 0.950 . S
C6208 H6200 0.950 . S
C6208 C6209 1.386 . S
C6208 C6210 1.391 . S
C6209 C6208 1.386 . S
C6209 C6213 1.393 . S
C6210 H6202 0.950 . S
C6210 C6208 1.391 . S
C6210 C6211 1.400 . S
C6211 C6210 1.400 . S
C6211 C6212 1.398 . S
C6211 C6217 1.491 . S
C6212 H6203 0.950 . S
C6212 C6211 1.398 . S
C6212 C6213 1.391 . S
C6213 H6201 0.950 . S
C6213 C6209 1.393 . S
C6213 C6212 1.391 . S
C6214 H6204 0.950 . S
C6214 C6215 1.386 . S
C6214 C6216 1.391 . S
C6215 C6214 1.386 . S
C6215 C6219 1.393 . S
C6216 H6205 0.950 . S
C6216 C6214 1.391 . S
C6216 C6217 1.400 . S
C6217 C6211 1.491 . S
C6217 C6216 1.400 . S
C6217 C6218 1.398 . S
C6218 H6206 0.950 . S
C6218 C6217 1.398 . S
C6218 C6219 1.391 . S
C6219 H6207 0.950 . S
C6219 C6215 1.393 . S
C6219 C6218 1.391 . S
H6220 C6228 0.950 . S
H6221 C6233 0.950 . S
H6222 C6230 0.950 . S
H6223 C6232 0.950 . S
H6224 C6234 0.950 . S
H6225 C6236 0.950 . S
H6226 C6238 0.950 . S
H6227 C6239 0.950 . S
C6228 H6220 0.950 . S
C6228 C6229 1.386 . S
C6228 C6230 1.391 . S
C6229 C6228 1.386 . S
C6229 C6233 1.393 . S
C6230 H6222 0.950 . S
C6230 C6228 1.391 . S
C6230 C6231 1.400 . S
C6231 C6230 1.400 . S
C6231 C6232 1.398 . S
C6231 C6237 1.491 . S
C6232 H6223 0.950 . S
C6232 C6231 1.398 . S
C6232 C6233 1.391 . S
C6233 H6221 0.950 . S
C6233 C6229 1.393 . S
C6233 C6232 1.391 . S
C6234 H6224 0.950 . S
C6234 C6235 1.386 . S
C6234 C6236 1.391 . S
C6235 C6234 1.386 . S
C6235 C6239 1.393 . S
C6236 H6225 0.950 . S
C6236 C6234 1.391 . S
C6236 C6237 1.400 . S
C6237 C6231 1.491 . S
C6237 C6236 1.400 . S
C6237 C6238 1.398 . S
C6238 H6226 0.950 . S
C6238 C6237 1.398 . S
C6238 C6239 1.391 . S
C6239 H6227 0.950 . S
C6239 C6235 1.393 . S
C6239 C6238 1.391 . S
H6240 C6248 0.950 . S
H6241 C6253 0.950 . S
H6242 C6250 0.950 . S
H6243 C6252 0.950 . S
H6244 C6254 0.950 . S
H6245 C6256 0.950 . S
H6246 C6258 0.950 . S
H6247 C6259 0.950 . S
C6248 H6240 0.950 . S
C6248 C6249 1.386 1_554 S
C6248 C6250 1.391 . S
C6249 C6248 1.386 1_556 S
C6249 C6253 1.393 . S
C6250 H6242 0.950 . S
C6250 C6248 1.391 . S
C6250 C6251 1.400 . S
C6251 C6250 1.400 . S
C6251 C6252 1.398 . S
C6251 C6257 1.491 . S
C6252 H6243 0.950 . S
C6252 C6251 1.398 . S
C6252 C6253 1.391 1_554 S
C6253 H6241 0.950 . S
C6253 C6249 1.393 . S
C6253 C6252 1.391 1_556 S
C6254 H6244 0.950 . S
C6254 C6255 1.386 . S
C6254 C6256 1.391 . S
C6255 C6254 1.386 . S
C6255 C6259 1.393 . S
C6256 H6245 0.950 . S
C6256 C6254 1.391 . S
C6256 C6257 1.400 . S
C6257 C6251 1.491 . S
C6257 C6256 1.400 . S
C6257 C6258 1.398 . S
C6258 H6246 0.950 . S
C6258 C6257 1.398 . S
C6258 C6259 1.391 . S
C6259 H6247 0.950 . S
C6259 C6255 1.393 . S
C6259 C6258 1.391 . S
H6260 C6268 0.950 . S
H6261 C6273 0.950 . S
H6262 C6270 0.950 . S
H6263 C6272 0.950 . S
H6264 C6274 0.950 . S
H6265 C6276 0.950 . S
H6266 C6278 0.950 . S
H6267 C6279 0.950 . S
C6268 H6260 0.950 . S
C6268 C6269 1.386 . S
C6268 C6270 1.391 . S
C6269 C6268 1.386 . S
C6269 C6273 1.393 . S
C6270 H6262 0.950 . S
C6270 C6268 1.391 . S
C6270 C6271 1.400 . S
C6271 C6270 1.400 . S
C6271 C6272 1.398 . S
C6271 C6277 1.491 . S
C6272 H6263 0.950 . S
C6272 C6271 1.398 . S
C6272 C6273 1.391 . S
C6273 H6261 0.950 . S
C6273 C6269 1.393 . S
C6273 C6272 1.391 . S
C6274 H6264 0.950 . S
C6274 C6275 1.386 . S
C6274 C6276 1.391 . S
C6275 C6274 1.386 . S
C6275 C6279 1.393 . S
C6276 H6265 0.950 . S
C6276 C6274 1.391 . S
C6276 C6277 1.400 . S
C6277 C6271 1.491 . S
C6277 C6276 1.400 . S
C6277 C6278 1.398 . S
C6278 H6266 0.950 . S
C6278 C6277 1.398 . S
C6278 C6279 1.391 . S
C6279 H6267 0.950 . S
C6279 C6275 1.393 . S
C6279 C6278 1.391 . S
H6280 C6288 0.950 . S
H6281 C6293 0.950 . S
H6282 C6290 0.950 . S
H6283 C6292 0.950 . S
H6284 C6294 0.950 . S
H6285 C6296 0.950 . S
H6286 C6298 0.950 . S
H6287 C6299 0.950 . S
C6288 H6280 0.950 . S
C6288 C6289 1.386 . S
C6288 C6290 1.391 . S
C6289 C6288 1.386 . S
C6289 C6293 1.393 . S
C6290 H6282 0.950 . S
C6290 C6288 1.391 . S
C6290 C6291 1.400 . S
C6291 C6290 1.400 . S
C6291 C6292 1.398 . S
C6291 C6297 1.491 . S
C6292 H6283 0.950 . S
C6292 C6291 1.398 . S
C6292 C6293 1.391 . S
C6293 H6281 0.950 . S
C6293 C6289 1.393 . S
C6293 C6292 1.391 . S
C6294 H6284 0.950 . S
C6294 C6295 1.386 . S
C6294 C6296 1.391 . S
C6295 C6294 1.386 . S
C6295 C6299 1.393 . S
C6296 H6285 0.950 . S
C6296 C6294 1.391 . S
C6296 C6297 1.400 . S
C6297 C6291 1.491 . S
C6297 C6296 1.400 . S
C6297 C6298 1.398 . S
C6298 H6286 0.950 . S
C6298 C6297 1.398 . S
C6298 C6299 1.391 . S
C6299 H6287 0.950 . S
C6299 C6295 1.393 . S
C6299 C6298 1.391 . S
H6300 C6308 0.950 . S
H6301 C6313 0.950 . S
H6302 C6310 0.950 . S
H6303 C6312 0.950 . S
H6304 C6314 0.950 . S
H6305 C6316 0.950 . S
H6306 C6318 0.950 . S
H6307 C6319 0.950 . S
C6308 H6300 0.950 . S
C6308 C6309 1.386 . S
C6308 C6310 1.391 . S
C6309 C6308 1.386 . S
C6309 C6313 1.393 . S
C6310 H6302 0.950 . S
C6310 C6308 1.391 . S
C6310 C6311 1.400 . S
C6311 C6310 1.400 . S
C6311 C6312 1.398 . S
C6311 C6317 1.491 . S
C6312 H6303 0.950 . S
C6312 C6311 1.398 . S
C6312 C6313 1.391 . S
C6313 H6301 0.950 . S
C6313 C6309 1.393 . S
C6313 C6312 1.391 . S
C6314 H6304 0.950 . S
C6314 C6315 1.386 . S
C6314 C6316 1.391 . S
C6315 C6314 1.386 . S
C6315 C6319 1.393 . S
C6316 H6305 0.950 . S
C6316 C6314 1.391 . S
C6316 C6317 1.400 . S
C6317 C6311 1.491 . S
C6317 C6316 1.400 . S
C6317 C6318 1.398 . S
C6318 H6306 0.950 . S
C6318 C6317 1.398 . S
C6318 C6319 1.391 . S
C6319 H6307 0.950 . S
C6319 C6315 1.393 . S
C6319 C6318 1.391 . S
H6320 C6328 0.950 . S
H6321 C6333 0.950 . S
H6322 C6330 0.950 . S
H6323 C6332 0.950 . S
H6324 C6334 0.950 . S
H6325 C6336 0.950 . S
H6326 C6338 0.950 . S
H6327 C6339 0.950 . S
C6328 H6320 0.950 . S
C6328 C6329 1.386 . S
C6328 C6330 1.391 . S
C6329 C6328 1.386 . S
C6329 C6333 1.393 . S
C6330 H6322 0.950 . S
C6330 C6328 1.391 . S
C6330 C6331 1.400 . S
C6331 C6330 1.400 . S
C6331 C6332 1.398 . S
C6331 C6337 1.491 . S
C6332 H6323 0.950 . S
C6332 C6331 1.398 . S
C6332 C6333 1.391 . S
C6333 H6321 0.950 . S
C6333 C6329 1.393 . S
C6333 C6332 1.391 . S
C6334 H6324 0.950 . S
C6334 C6335 1.386 . S
C6334 C6336 1.391 . S
C6335 C6334 1.386 . S
C6335 C6339 1.393 . S
C6336 H6325 0.950 . S
C6336 C6334 1.391 . S
C6336 C6337 1.400 . S
C6337 C6331 1.491 . S
C6337 C6336 1.400 . S
C6337 C6338 1.398 . S
C6338 H6326 0.950 . S
C6338 C6337 1.398 . S
C6338 C6339 1.391 . S
C6339 H6327 0.950 . S
C6339 C6335 1.393 . S
C6339 C6338 1.391 . S
H6340 C6348 0.950 . S
H6341 C6353 0.950 . S
H6342 C6350 0.950 . S
H6343 C6352 0.950 . S
H6344 C6354 0.950 . S
H6345 C6356 0.950 . S
H6346 C6358 0.950 . S
H6347 C6359 0.950 . S
C6348 H6340 0.950 . S
C6348 C6349 1.386 . S
C6348 C6350 1.391 . S
C6349 C6348 1.386 . S
C6349 C6353 1.393 . S
C6350 H6342 0.950 . S
C6350 C6348 1.391 . S
C6350 C6351 1.400 . S
C6351 C6350 1.400 . S
C6351 C6352 1.398 . S
C6351 C6357 1.491 . S
C6352 H6343 0.950 . S
C6352 C6351 1.398 . S
C6352 C6353 1.391 . S
C6353 H6341 0.950 . S
C6353 C6349 1.393 . S
C6353 C6352 1.391 . S
C6354 H6344 0.950 . S
C6354 C6355 1.386 . S
C6354 C6356 1.391 . S
C6355 C6354 1.386 . S
C6355 C6359 1.393 . S
C6356 H6345 0.950 . S
C6356 C6354 1.391 . S
C6356 C6357 1.400 . S
C6357 C6351 1.491 . S
C6357 C6356 1.400 . S
C6357 C6358 1.398 . S
C6358 H6346 0.950 . S
C6358 C6357 1.398 . S
C6358 C6359 1.391 . S
C6359 H6347 0.950 . S
C6359 C6355 1.393 . S
C6359 C6358 1.391 . S
H6360 C6368 0.950 . S
H6361 C6373 0.944 1_554 S
H6362 C6370 0.950 . S
H6363 C6372 0.950 . S
H6364 C6374 0.950 . S
H6365 C6376 0.950 . S
H6366 C6378 0.950 . S
H6367 C6379 0.950 . S
C6368 H6360 0.950 . S
C6368 C6369 1.386 . S
C6368 C6370 1.391 1_554 S
C6369 C6368 1.386 . S
C6369 C6373 1.393 1_554 S
C6370 H6362 0.950 . S
C6370 C6368 1.391 1_556 S
C6370 C6371 1.400 . S
C6371 C6370 1.400 . S
C6371 C6372 1.398 . S
C6371 C6377 1.491 . S
C6372 H6363 0.950 . S
C6372 C6371 1.398 . S
C6372 C6373 1.391 . S
C6373 H6361 0.944 1_556 S
C6373 C6369 1.393 1_556 S
C6373 C6372 1.391 . S
C6374 H6364 0.950 . S
C6374 C6375 1.386 . S
C6374 C6376 1.391 . S
C6375 C6374 1.386 . S
C6375 C6379 1.393 . S
C6376 H6365 0.950 . S
C6376 C6374 1.391 . S
C6376 C6377 1.400 . S
C6377 C6371 1.491 . S
C6377 C6376 1.400 . S
C6377 C6378 1.398 . S
C6378 H6366 0.950 . S
C6378 C6377 1.398 . S
C6378 C6379 1.391 . S
C6379 H6367 0.950 . S
C6379 C6375 1.393 . S
C6379 C6378 1.391 . S
H6380 C6388 0.950 . S
H6381 C6393 0.950 . S
H6382 C6390 0.950 . S
H6383 C6392 0.950 . S
H6384 C6394 0.950 . S
H6385 C6396 0.950 . S
H6386 C6398 0.950 . S
H6387 C6399 0.950 . S
C6388 H6380 0.950 . S
C6388 C6389 1.386 . S
C6388 C6390 1.391 . S
C6389 C6388 1.386 . S
C6389 C6393 1.393 . S
C6390 H6382 0.950 . S
C6390 C6388 1.391 . S
C6390 C6391 1.400 . S
C6391 C6390 1.400 . S
C6391 C6392 1.398 . S
C6391 C6397 1.491 . S
C6392 H6383 0.950 . S
C6392 C6391 1.398 . S
C6392 C6393 1.391 . S
C6393 H6381 0.950 . S
C6393 C6389 1.393 . S
C6393 C6392 1.391 . S
C6394 H6384 0.950 . S
C6394 C6395 1.386 . S
C6394 C6396 1.391 . S
C6395 C6394 1.386 . S
C6395 C6399 1.393 . S
C6396 H6385 0.950 . S
C6396 C6394 1.391 . S
C6396 C6397 1.400 . S
C6397 C6391 1.491 . S
C6397 C6396 1.400 . S
C6397 C6398 1.398 . S
C6398 H6386 0.950 . S
C6398 C6397 1.398 . S
C6398 C6399 1.391 . S
C6399 H6387 0.950 . S
C6399 C6395 1.393 . S
C6399 C6398 1.391 . S
H6400 C6408 0.950 . S
H6401 C6413 0.950 . S
H6402 C6410 0.950 . S
H6403 C6412 0.950 . S
H6404 C6414 0.950 . S
H6405 C6416 0.950 . S
H6406 C6418 0.950 . S
H6407 C6419 0.950 . S
C6408 H6400 0.950 . S
C6408 C6409 1.386 . S
C6408 C6410 1.391 . S
C6409 C6408 1.386 . S
C6409 C6413 1.393 . S
C6410 H6402 0.950 . S
C6410 C6408 1.391 . S
C6410 C6411 1.400 . S
C6411 C6410 1.400 . S
C6411 C6412 1.398 . S
C6411 C6417 1.491 . S
C6412 H6403 0.950 . S
C6412 C6411 1.398 . S
C6412 C6413 1.391 . S
C6413 H6401 0.950 . S
C6413 C6409 1.393 . S
C6413 C6412 1.391 . S
C6414 H6404 0.950 . S
C6414 C6415 1.386 . S
C6414 C6416 1.391 . S
C6415 C6414 1.386 . S
C6415 C6419 1.393 . S
C6416 H6405 0.950 . S
C6416 C6414 1.391 . S
C6416 C6417 1.400 . S
C6417 C6411 1.491 . S
C6417 C6416 1.400 . S
C6417 C6418 1.398 . S
C6418 H6406 0.950 . S
C6418 C6417 1.398 . S
C6418 C6419 1.391 . S
C6419 H6407 0.950 . S
C6419 C6415 1.393 . S
C6419 C6418 1.391 . S
H6420 C6428 0.950 . S
H6421 C6433 0.950 . S
H6422 C6430 0.950 . S
H6423 C6432 0.950 . S
H6424 C6434 0.950 . S
H6425 C6436 0.950 . S
H6426 C6438 0.950 . S
H6427 C6439 0.950 . S
C6428 H6420 0.950 . S
C6428 C6429 1.386 . S
C6428 C6430 1.391 . S
C6429 C6428 1.386 . S
C6429 C6433 1.393 . S
C6430 H6422 0.950 . S
C6430 C6428 1.391 . S
C6430 C6431 1.400 . S
C6431 C6430 1.400 . S
C6431 C6432 1.398 . S
C6431 C6437 1.491 . S
C6432 H6423 0.950 . S
C6432 C6431 1.398 . S
C6432 C6433 1.391 . S
C6433 H6421 0.950 . S
C6433 C6429 1.393 . S
C6433 C6432 1.391 . S
C6434 H6424 0.950 . S
C6434 C6435 1.386 . S
C6434 C6436 1.391 . S
C6435 C6434 1.386 . S
C6435 C6439 1.393 . S
C6436 H6425 0.950 . S
C6436 C6434 1.391 . S
C6436 C6437 1.400 . S
C6437 C6431 1.491 . S
C6437 C6436 1.400 . S
C6437 C6438 1.398 . S
C6438 H6426 0.950 . S
C6438 C6437 1.398 . S
C6438 C6439 1.391 . S
C6439 H6427 0.950 . S
C6439 C6435 1.393 . S
C6439 C6438 1.391 . S
H6440 C6448 0.950 . S
H6441 C6453 0.950 . S
H6442 C6450 0.950 . S
H6443 C6452 0.950 . S
H6444 C6454 0.950 . S
H6445 C6456 0.950 . S
H6446 C6458 0.950 . S
H6447 C6459 0.950 . S
C6448 H6440 0.950 . S
C6448 C6449 1.386 . S
C6448 C6450 1.391 . S
C6449 C6448 1.386 . S
C6449 C6453 1.393 . S
C6450 H6442 0.950 . S
C6450 C6448 1.391 . S
C6450 C6451 1.400 . S
C6451 C6450 1.400 . S
C6451 C6452 1.398 . S
C6451 C6457 1.491 . S
C6452 H6443 0.950 . S
C6452 C6451 1.398 . S
C6452 C6453 1.391 . S
C6453 H6441 0.950 . S
C6453 C6449 1.393 . S
C6453 C6452 1.391 . S
C6454 H6444 0.950 . S
C6454 C6455 1.386 . S
C6454 C6456 1.391 . S
C6455 C6454 1.386 . S
C6455 C6459 1.393 . S
C6456 H6445 0.950 . S
C6456 C6454 1.391 . S
C6456 C6457 1.400 . S
C6457 C6451 1.491 . S
C6457 C6456 1.400 . S
C6457 C6458 1.398 . S
C6458 H6446 0.950 . S
C6458 C6457 1.398 . S
C6458 C6459 1.391 . S
C6459 H6447 0.950 . S
C6459 C6455 1.393 . S
C6459 C6458 1.391 . S
H6460 C6468 0.950 . S
H6461 C6473 0.950 . S
H6462 C6470 0.950 . S
H6463 C6472 0.950 . S
H6464 C6474 0.950 . S
H6465 C6476 0.950 . S
H6466 C6478 0.950 . S
H6467 C6479 0.950 . S
C6468 H6460 0.950 . S
C6468 C6469 1.386 . S
C6468 C6470 1.391 . S
C6469 C6468 1.386 . S
C6469 C6473 1.393 . S
C6470 H6462 0.950 . S
C6470 C6468 1.391 . S
C6470 C6471 1.400 . S
C6471 C6470 1.400 . S
C6471 C6472 1.398 . S
C6471 C6477 1.491 . S
C6472 H6463 0.950 . S
C6472 C6471 1.398 . S
C6472 C6473 1.391 . S
C6473 H6461 0.950 . S
C6473 C6469 1.393 . S
C6473 C6472 1.391 . S
C6474 H6464 0.950 . S
C6474 C6475 1.386 . S
C6474 C6476 1.391 . S
C6475 C6474 1.386 . S
C6475 C6479 1.393 . S
C6476 H6465 0.950 . S
C6476 C6474 1.391 . S
C6476 C6477 1.400 . S
C6477 C6471 1.491 . S
C6477 C6476 1.400 . S
C6477 C6478 1.398 . S
C6478 H6466 0.950 . S
C6478 C6477 1.398 . S
C6478 C6479 1.391 . S
C6479 H6467 0.950 . S
C6479 C6475 1.393 . S
C6479 C6478 1.391 . S
H6480 C6488 0.950 1_655 S
H6481 C6493 0.950 1_655 S
H6482 C6490 0.950 . S
H6483 C6492 0.950 . S
H6484 C6494 0.950 . S
H6485 C6496 0.950 . S
H6486 C6498 0.950 . S
H6487 C6499 0.950 . S
C6488 H6480 0.950 1_455 S
C6488 C6489 1.386 1_455 S
C6488 C6490 1.391 . S
C6489 C6488 1.386 1_655 S
C6489 C6493 1.393 1_655 S
C6490 H6482 0.950 . S
C6490 C6488 1.391 . S
C6490 C6491 1.400 . S
C6491 C6490 1.400 . S
C6491 C6492 1.398 . S
C6491 C6497 1.491 . S
C6492 H6483 0.950 . S
C6492 C6491 1.398 . S
C6492 C6493 1.391 . S
C6493 H6481 0.950 1_455 S
C6493 C6489 1.393 1_455 S
C6493 C6492 1.391 . S
C6494 H6484 0.950 . S
C6494 C6495 1.386 . S
C6494 C6496 1.391 . S
C6495 C6494 1.386 . S
C6495 C6499 1.393 . S
C6496 H6485 0.950 . S
C6496 C6494 1.391 . S
C6496 C6497 1.400 . S
C6497 C6491 1.491 . S
C6497 C6496 1.400 . S
C6497 C6498 1.398 . S
C6498 H6486 0.950 . S
C6498 C6497 1.398 . S
C6498 C6499 1.391 . S
C6499 H6487 0.950 . S
C6499 C6495 1.393 . S
C6499 C6498 1.391 . S
H6500 C6508 0.950 . S
H6501 C6513 0.950 . S
H6502 C6510 0.950 . S
H6503 C6512 0.950 . S
H6504 C6514 0.950 . S
H6505 C6516 0.950 . S
H6506 C6518 0.950 . S
H6507 C6519 0.950 . S
C6508 H6500 0.950 . S
C6508 C6509 1.386 . S
C6508 C6510 1.391 . S
C6509 C6508 1.386 . S
C6509 C6513 1.393 . S
C6510 H6502 0.950 . S
C6510 C6508 1.391 . S
C6510 C6511 1.400 . S
C6511 C6510 1.400 . S
C6511 C6512 1.398 . S
C6511 C6517 1.491 . S
C6512 H6503 0.950 . S
C6512 C6511 1.398 . S
C6512 C6513 1.391 . S
C6513 H6501 0.950 . S
C6513 C6509 1.393 . S
C6513 C6512 1.391 . S
C6514 H6504 0.950 . S
C6514 C6515 1.386 . S
C6514 C6516 1.391 . S
C6515 C6514 1.386 . S
C6515 C6519 1.393 . S
C6516 H6505 0.950 . S
C6516 C6514 1.391 . S
C6516 C6517 1.400 . S
C6517 C6511 1.491 . S
C6517 C6516 1.400 . S
C6517 C6518 1.398 . S
C6518 H6506 0.950 . S
C6518 C6517 1.398 . S
C6518 C6519 1.391 . S
C6519 H6507 0.950 . S
C6519 C6515 1.393 . S
C6519 C6518 1.391 . S
H6520 C6528 0.950 . S
H6521 C6533 0.950 . S
H6522 C6530 0.950 . S
H6523 C6532 0.950 . S
H6524 C6534 0.950 . S
H6525 C6536 0.950 . S
H6526 C6538 0.950 . S
H6527 C6539 0.950 . S
C6528 H6520 0.950 . S
C6528 C6529 1.386 . S
C6528 C6530 1.391 . S
C6529 C6528 1.386 . S
C6529 C6533 1.393 . S
C6530 H6522 0.950 . S
C6530 C6528 1.391 . S
C6530 C6531 1.400 . S
C6531 C6530 1.400 . S
C6531 C6532 1.398 . S
C6531 C6537 1.491 . S
C6532 H6523 0.950 . S
C6532 C6531 1.398 . S
C6532 C6533 1.391 . S
C6533 H6521 0.950 . S
C6533 C6529 1.393 . S
C6533 C6532 1.391 . S
C6534 H6524 0.950 . S
C6534 C6535 1.386 . S
C6534 C6536 1.391 . S
C6535 C6534 1.386 . S
C6535 C6539 1.393 . S
C6536 H6525 0.950 . S
C6536 C6534 1.391 . S
C6536 C6537 1.400 . S
C6537 C6531 1.491 . S
C6537 C6536 1.400 . S
C6537 C6538 1.398 . S
C6538 H6526 0.950 . S
C6538 C6537 1.398 . S
C6538 C6539 1.391 . S
C6539 H6527 0.950 . S
C6539 C6535 1.393 . S
C6539 C6538 1.391 . S
H6540 C6548 0.950 . S
H6541 C6553 0.950 . S
H6542 C6550 0.950 . S
H6543 C6552 0.950 . S
H6544 C6554 0.950 . S
H6545 C6556 0.950 . S
H6546 C6558 0.950 . S
H6547 C6559 0.950 . S
C6548 H6540 0.950 . S
C6548 C6549 1.386 . S
C6548 C6550 1.391 . S
C6549 C6548 1.386 . S
C6549 C6553 1.393 . S
C6550 H6542 0.950 . S
C6550 C6548 1.391 . S
C6550 C6551 1.400 . S
C6551 C6550 1.400 . S
C6551 C6552 1.398 . S
C6551 C6557 1.491 . S
C6552 H6543 0.950 . S
C6552 C6551 1.398 . S
C6552 C6553 1.391 . S
C6553 H6541 0.950 . S
C6553 C6549 1.393 . S
C6553 C6552 1.391 . S
C6554 H6544 0.950 . S
C6554 C6555 1.386 . S
C6554 C6556 1.391 . S
C6555 C6554 1.386 . S
C6555 C6559 1.393 . S
C6556 H6545 0.950 . S
C6556 C6554 1.391 . S
C6556 C6557 1.400 . S
C6557 C6551 1.491 . S
C6557 C6556 1.400 . S
C6557 C6558 1.398 . S
C6558 H6546 0.950 . S
C6558 C6557 1.398 . S
C6558 C6559 1.391 . S
C6559 H6547 0.950 . S
C6559 C6555 1.393 . S
C6559 C6558 1.391 . S
H6560 C6568 0.950 . S
H6561 C6573 0.951 . S
H6562 C6570 0.950 . S
H6563 C6572 0.950 . S
H6564 C6574 0.950 . S
H6565 C6576 0.950 . S
H6566 C6578 0.950 . S
H6567 C6579 0.950 . S
C6568 H6560 0.950 . S
C6568 C6569 1.386 . S
C6568 C6570 1.391 1_565 S
C6569 C6568 1.386 . S
C6569 C6573 1.395 . S
C6570 H6562 0.950 . S
C6570 C6568 1.391 1_545 S
C6570 C6571 1.400 . S
C6571 C6570 1.400 . S
C6571 C6572 1.398 . S
C6571 C6577 1.491 . S
C6572 H6563 0.950 . S
C6572 C6571 1.398 . S
C6572 C6573 1.388 1_545 S
C6573 H6561 0.951 . S
C6573 C6569 1.395 . S
C6573 C6572 1.388 1_565 S
C6574 H6564 0.950 . S
C6574 C6575 1.386 . S
C6574 C6576 1.391 . S
C6575 C6574 1.386 . S
C6575 C6579 1.393 . S
C6576 H6565 0.950 . S
C6576 C6574 1.391 . S
C6576 C6577 1.400 . S
C6577 C6571 1.491 . S
C6577 C6576 1.400 . S
C6577 C6578 1.398 . S
C6578 H6566 0.950 . S
C6578 C6577 1.398 . S
C6578 C6579 1.391 . S
C6579 H6567 0.950 . S
C6579 C6575 1.393 . S
C6579 C6578 1.391 . S
H6580 C6588 0.950 . S
H6581 C6593 0.950 . S
H6582 C6590 0.950 . S
H6583 C6592 0.950 . S
H6584 C6594 0.950 . S
H6585 C6596 0.950 . S
H6586 C6598 0.950 . S
H6587 C6599 0.950 . S
C6588 H6580 0.950 . S
C6588 C6589 1.386 . S
C6588 C6590 1.391 . S
C6589 C6588 1.386 . S
C6589 C6593 1.393 . S
C6590 H6582 0.950 . S
C6590 C6588 1.391 . S
C6590 C6591 1.400 . S
C6591 C6590 1.400 . S
C6591 C6592 1.398 . S
C6591 C6597 1.491 . S
C6592 H6583 0.950 . S
C6592 C6591 1.398 . S
C6592 C6593 1.391 . S
C6593 H6581 0.950 . S
C6593 C6589 1.393 . S
C6593 C6592 1.391 . S
C6594 H6584 0.950 . S
C6594 C6595 1.386 . S
C6594 C6596 1.391 . S
C6595 C6594 1.386 . S
C6595 C6599 1.393 . S
C6596 H6585 0.950 . S
C6596 C6594 1.391 . S
C6596 C6597 1.400 . S
C6597 C6591 1.491 . S
C6597 C6596 1.400 . S
C6597 C6598 1.398 . S
C6598 H6586 0.950 . S
C6598 C6597 1.398 . S
C6598 C6599 1.391 . S
C6599 H6587 0.950 . S
C6599 C6595 1.393 . S
C6599 C6598 1.391 . S
H6600 C6608 0.950 . S
H6601 C6613 0.950 . S
H6602 C6610 0.950 . S
H6603 C6612 0.950 . S
H6604 C6614 0.950 . S
H6605 C6616 0.950 . S
H6606 C6618 0.950 . S
H6607 C6619 0.950 . S
C6608 H6600 0.950 . S
C6608 C6609 1.386 . S
C6608 C6610 1.391 . S
C6609 C6608 1.386 . S
C6609 C6613 1.393 . S
C6610 H6602 0.950 . S
C6610 C6608 1.391 . S
C6610 C6611 1.400 . S
C6611 C6610 1.400 . S
C6611 C6612 1.398 . S
C6611 C6617 1.491 . S
C6612 H6603 0.950 . S
C6612 C6611 1.398 . S
C6612 C6613 1.391 . S
C6613 H6601 0.950 . S
C6613 C6609 1.393 . S
C6613 C6612 1.391 . S
C6614 H6604 0.950 . S
C6614 C6615 1.386 . S
C6614 C6616 1.391 . S
C6615 C6614 1.386 . S
C6615 C6619 1.393 . S
C6616 H6605 0.950 . S
C6616 C6614 1.391 . S
C6616 C6617 1.400 . S
C6617 C6611 1.491 . S
C6617 C6616 1.400 . S
C6617 C6618 1.398 . S
C6618 H6606 0.950 . S
C6618 C6617 1.398 . S
C6618 C6619 1.391 . S
C6619 H6607 0.950 . S
C6619 C6615 1.393 . S
C6619 C6618 1.391 . S
H6620 C6628 0.950 . S
H6621 C6633 0.950 . S
H6622 C6630 0.950 . S
H6623 C6632 0.950 . S
H6624 C6634 0.950 . S
H6625 C6636 0.950 . S
H6626 C6638 0.950 . S
H6627 C6639 0.950 . S
C6628 H6620 0.950 . S
C6628 C6629 1.386 . S
C6628 C6630 1.391 . S
C6629 C6628 1.386 . S
C6629 C6633 1.393 . S
C6630 H6622 0.950 . S
C6630 C6628 1.391 . S
C6630 C6631 1.400 . S
C6631 C6630 1.400 . S
C6631 C6632 1.398 . S
C6631 C6637 1.491 . S
C6632 H6623 0.950 . S
C6632 C6631 1.398 . S
C6632 C6633 1.391 . S
C6633 H6621 0.950 . S
C6633 C6629 1.393 . S
C6633 C6632 1.391 . S
C6634 H6624 0.950 . S
C6634 C6635 1.386 . S
C6634 C6636 1.391 . S
C6635 C6634 1.386 . S
C6635 C6639 1.393 . S
C6636 H6625 0.950 . S
C6636 C6634 1.391 . S
C6636 C6637 1.400 . S
C6637 C6631 1.491 . S
C6637 C6636 1.400 . S
C6637 C6638 1.398 . S
C6638 H6626 0.950 . S
C6638 C6637 1.398 . S
C6638 C6639 1.391 . S
C6639 H6627 0.950 . S
C6639 C6635 1.393 . S
C6639 C6638 1.391 . S
H6640 C6648 0.950 . S
H6641 C6653 0.950 . S
H6642 C6650 0.950 . S
H6643 C6652 0.950 . S
H6644 C6654 0.950 . S
H6645 C6656 0.950 . S
H6646 C6658 0.950 . S
H6647 C6659 0.950 . S
C6648 H6640 0.950 . S
C6648 C6649 1.386 . S
C6648 C6650 1.391 . S
C6649 C6648 1.386 . S
C6649 C6653 1.393 . S
C6650 H6642 0.950 . S
C6650 C6648 1.391 . S
C6650 C6651 1.400 . S
C6651 C6650 1.400 . S
C6651 C6652 1.398 . S
C6651 C6657 1.491 . S
C6652 H6643 0.950 . S
C6652 C6651 1.398 . S
C6652 C6653 1.391 . S
C6653 H6641 0.950 . S
C6653 C6649 1.393 . S
C6653 C6652 1.391 . S
C6654 H6644 0.950 . S
C6654 C6655 1.386 . S
C6654 C6656 1.391 . S
C6655 C6654 1.386 . S
C6655 C6659 1.393 . S
C6656 H6645 0.950 . S
C6656 C6654 1.391 . S
C6656 C6657 1.400 . S
C6657 C6651 1.491 . S
C6657 C6656 1.400 . S
C6657 C6658 1.398 . S
C6658 H6646 0.950 . S
C6658 C6657 1.398 . S
C6658 C6659 1.391 . S
C6659 H6647 0.950 . S
C6659 C6655 1.393 . S
C6659 C6658 1.391 . S
H6660 C6668 0.950 . S
H6661 C6673 0.950 . S
H6662 C6670 0.950 . S
H6663 C6672 0.950 . S
H6664 C6674 0.950 . S
H6665 C6676 0.950 . S
H6666 C6678 0.950 . S
H6667 C6679 0.950 1_545 S
C6668 H6660 0.950 . S
C6668 C6669 1.386 . S
C6668 C6670 1.391 . S
C6669 C6668 1.386 . S
C6669 C6673 1.393 . S
C6670 H6662 0.950 . S
C6670 C6668 1.391 . S
C6670 C6671 1.400 . S
C6671 C6670 1.400 . S
C6671 C6672 1.398 . S
C6671 C6677 1.491 . S
C6672 H6663 0.950 . S
C6672 C6671 1.398 . S
C6672 C6673 1.391 . S
C6673 H6661 0.950 . S
C6673 C6669 1.393 . S
C6673 C6672 1.391 . S
C6674 H6664 0.950 . S
C6674 C6675 1.386 1_565 S
C6674 C6676 1.391 . S
C6675 C6674 1.386 1_545 S
C6675 C6679 1.393 1_545 S
C6676 H6665 0.950 . S
C6676 C6674 1.391 . S
C6676 C6677 1.400 . S
C6677 C6671 1.491 . S
C6677 C6676 1.400 . S
C6677 C6678 1.398 . S
C6678 H6666 0.950 . S
C6678 C6677 1.398 . S
C6678 C6679 1.391 . S
C6679 H6667 0.950 1_565 S
C6679 C6675 1.393 1_565 S
C6679 C6678 1.391 . S
H6680 C6688 0.950 . S
H6681 C6693 0.950 . S
H6682 C6690 0.950 . S
H6683 C6692 0.950 . S
H6684 C6694 0.950 . S
H6685 C6696 0.950 . S
H6686 C6698 0.950 . S
H6687 C6699 0.950 . S
C6688 H6680 0.950 . S
C6688 C6689 1.386 . S
C6688 C6690 1.391 . S
C6689 C6688 1.386 . S
C6689 C6693 1.393 . S
C6690 H6682 0.950 . S
C6690 C6688 1.391 . S
C6690 C6691 1.400 . S
C6691 C6690 1.400 . S
C6691 C6692 1.398 . S
C6691 C6697 1.491 . S
C6692 H6683 0.950 . S
C6692 C6691 1.398 . S
C6692 C6693 1.391 . S
C6693 H6681 0.950 . S
C6693 C6689 1.393 . S
C6693 C6692 1.391 . S
C6694 H6684 0.950 . S
C6694 C6695 1.386 . S
C6694 C6696 1.391 . S
C6695 C6694 1.386 . S
C6695 C6699 1.393 . S
C6696 H6685 0.950 . S
C6696 C6694 1.391 . S
C6696 C6697 1.400 . S
C6697 C6691 1.491 . S
C6697 C6696 1.400 . S
C6697 C6698 1.398 . S
C6698 H6686 0.950 . S
C6698 C6697 1.398 . S
C6698 C6699 1.391 . S
C6699 H6687 0.950 . S
C6699 C6695 1.393 . S
C6699 C6698 1.391 . S
H6700 C6708 0.950 . S
H6701 C6713 0.950 . S
H6702 C6710 0.950 . S
H6703 C6712 0.950 . S
H6704 C6714 0.950 . S
H6705 C6716 0.950 . S
H6706 C6718 0.950 . S
H6707 C6719 0.950 . S
C6708 H6700 0.950 . S
C6708 C6709 1.386 . S
C6708 C6710 1.391 . S
C6709 C6708 1.386 . S
C6709 C6713 1.393 . S
C6710 H6702 0.950 . S
C6710 C6708 1.391 . S
C6710 C6711 1.400 . S
C6711 C6710 1.400 . S
C6711 C6712 1.398 . S
C6711 C6717 1.491 . S
C6712 H6703 0.950 . S
C6712 C6711 1.398 . S
C6712 C6713 1.391 . S
C6713 H6701 0.950 . S
C6713 C6709 1.393 . S
C6713 C6712 1.391 . S
C6714 H6704 0.950 . S
C6714 C6715 1.386 . S
C6714 C6716 1.391 . S
C6715 C6714 1.386 . S
C6715 C6719 1.393 . S
C6716 H6705 0.950 . S
C6716 C6714 1.391 . S
C6716 C6717 1.400 . S
C6717 C6711 1.491 . S
C6717 C6716 1.400 . S
C6717 C6718 1.398 . S
C6718 H6706 0.950 . S
C6718 C6717 1.398 . S
C6718 C6719 1.391 . S
C6719 H6707 0.950 . S
C6719 C6715 1.393 . S
C6719 C6718 1.391 . S
H6720 C6728 0.950 . S
H6721 C6733 0.950 . S
H6722 C6730 0.950 . S
H6723 C6732 0.950 . S
H6724 C6734 0.950 . S
H6725 C6736 0.950 . S
H6726 C6738 0.950 . S
H6727 C6739 0.950 . S
C6728 H6720 0.950 . S
C6728 C6729 1.386 . S
C6728 C6730 1.391 . S
C6729 C6728 1.386 . S
C6729 C6733 1.393 . S
C6730 H6722 0.950 . S
C6730 C6728 1.391 . S
C6730 C6731 1.400 . S
C6731 C6730 1.400 . S
C6731 C6732 1.398 . S
C6731 C6737 1.491 . S
C6732 H6723 0.950 . S
C6732 C6731 1.398 . S
C6732 C6733 1.391 . S
C6733 H6721 0.950 . S
C6733 C6729 1.393 . S
C6733 C6732 1.391 . S
C6734 H6724 0.950 . S
C6734 C6735 1.386 . S
C6734 C6736 1.391 . S
C6735 C6734 1.386 . S
C6735 C6739 1.393 . S
C6736 H6725 0.950 . S
C6736 C6734 1.391 . S
C6736 C6737 1.400 . S
C6737 C6731 1.491 . S
C6737 C6736 1.400 . S
C6737 C6738 1.398 . S
C6738 H6726 0.950 . S
C6738 C6737 1.398 . S
C6738 C6739 1.391 . S
C6739 H6727 0.950 . S
C6739 C6735 1.393 . S
C6739 C6738 1.391 . S
H6740 C6748 0.950 . S
H6741 C6753 0.950 . S
H6742 C6750 0.950 . S
H6743 C6752 0.950 . S
H6744 C6754 0.950 . S
H6745 C6756 0.950 . S
H6746 C6758 0.950 . S
H6747 C6759 0.950 . S
C6748 H6740 0.950 . S
C6748 C6749 1.386 . S
C6748 C6750 1.391 . S
C6749 C6748 1.386 . S
C6749 C6753 1.393 . S
C6750 H6742 0.950 . S
C6750 C6748 1.391 . S
C6750 C6751 1.400 . S
C6751 C6750 1.400 . S
C6751 C6752 1.398 . S
C6751 C6757 1.491 . S
C6752 H6743 0.950 . S
C6752 C6751 1.398 . S
C6752 C6753 1.391 . S
C6753 H6741 0.950 . S
C6753 C6749 1.393 . S
C6753 C6752 1.391 . S
C6754 H6744 0.950 . S
C6754 C6755 1.386 . S
C6754 C6756 1.391 . S
C6755 C6754 1.386 . S
C6755 C6759 1.393 . S
C6756 H6745 0.950 . S
C6756 C6754 1.391 . S
C6756 C6757 1.400 . S
C6757 C6751 1.491 . S
C6757 C6756 1.400 . S
C6757 C6758 1.398 . S
C6758 H6746 0.950 . S
C6758 C6757 1.398 . S
C6758 C6759 1.391 . S
C6759 H6747 0.950 . S
C6759 C6755 1.393 . S
C6759 C6758 1.391 . S
H6760 C6768 0.950 . S
H6761 C6773 0.950 . S
H6762 C6770 0.950 . S
H6763 C6772 0.950 . S
H6764 C6774 0.950 . S
H6765 C6776 0.950 . S
H6766 C6778 0.950 . S
H6767 C6779 0.950 . S
C6768 H6760 0.950 . S
C6768 C6769 1.386 . S
C6768 C6770 1.391 . S
C6769 C6768 1.386 . S
C6769 C6773 1.393 . S
C6770 H6762 0.950 . S
C6770 C6768 1.391 . S
C6770 C6771 1.400 . S
C6771 C6770 1.400 . S
C6771 C6772 1.398 . S
C6771 C6777 1.491 . S
C6772 H6763 0.950 . S
C6772 C6771 1.398 . S
C6772 C6773 1.391 . S
C6773 H6761 0.950 . S
C6773 C6769 1.393 . S
C6773 C6772 1.391 . S
C6774 H6764 0.950 . S
C6774 C6775 1.386 . S
C6774 C6776 1.391 . S
C6775 C6774 1.386 . S
C6775 C6779 1.393 . S
C6776 H6765 0.950 . S
C6776 C6774 1.391 . S
C6776 C6777 1.400 . S
C6777 C6771 1.491 . S
C6777 C6776 1.400 . S
C6777 C6778 1.398 . S
C6778 H6766 0.950 . S
C6778 C6777 1.398 . S
C6778 C6779 1.391 . S
C6779 H6767 0.950 . S
C6779 C6775 1.393 . S
C6779 C6778 1.391 . S
H6780 C6788 0.950 . S
H6781 C6793 0.950 . S
H6782 C6790 0.950 . S
H6783 C6792 0.950 . S
H6784 C6794 0.950 . S
H6785 C6796 0.950 . S
H6786 C6798 0.950 . S
H6787 C6799 0.950 . S
C6788 H6780 0.950 . S
C6788 C6789 1.386 . S
C6788 C6790 1.391 . S
C6789 C6788 1.386 . S
C6789 C6793 1.393 . S
C6790 H6782 0.950 . S
C6790 C6788 1.391 . S
C6790 C6791 1.400 . S
C6791 C6790 1.400 . S
C6791 C6792 1.398 . S
C6791 C6797 1.491 . S
C6792 H6783 0.950 . S
C6792 C6791 1.398 . S
C6792 C6793 1.391 . S
C6793 H6781 0.950 . S
C6793 C6789 1.393 . S
C6793 C6792 1.391 . S
C6794 H6784 0.950 . S
C6794 C6795 1.386 . S
C6794 C6796 1.391 . S
C6795 C6794 1.386 . S
C6795 C6799 1.393 . S
C6796 H6785 0.950 . S
C6796 C6794 1.391 . S
C6796 C6797 1.400 . S
C6797 C6791 1.491 . S
C6797 C6796 1.400 . S
C6797 C6798 1.398 . S
C6798 H6786 0.950 . S
C6798 C6797 1.398 . S
C6798 C6799 1.391 . S
C6799 H6787 0.950 . S
C6799 C6795 1.393 . S
C6799 C6798 1.391 . S
H6800 C6808 0.950 . S
H6801 C6813 0.950 . S
H6802 C6810 0.950 . S
H6803 C6812 0.950 . S
H6804 C6814 0.950 . S
H6805 C6816 0.950 . S
H6806 C6818 0.950 . S
H6807 C6819 0.950 . S
C6808 H6800 0.950 . S
C6808 C6809 1.386 . S
C6808 C6810 1.391 . S
C6809 C6808 1.386 . S
C6809 C6813 1.393 . S
C6810 H6802 0.950 . S
C6810 C6808 1.391 . S
C6810 C6811 1.400 . S
C6811 C6810 1.400 . S
C6811 C6812 1.398 . S
C6811 C6817 1.491 . S
C6812 H6803 0.950 . S
C6812 C6811 1.398 . S
C6812 C6813 1.391 . S
C6813 H6801 0.950 . S
C6813 C6809 1.393 . S
C6813 C6812 1.391 . S
C6814 H6804 0.950 . S
C6814 C6815 1.386 . S
C6814 C6816 1.391 . S
C6815 C6814 1.386 . S
C6815 C6819 1.393 . S
C6816 H6805 0.950 . S
C6816 C6814 1.391 . S
C6816 C6817 1.400 . S
C6817 C6811 1.491 . S
C6817 C6816 1.400 . S
C6817 C6818 1.398 . S
C6818 H6806 0.950 . S
C6818 C6817 1.398 . S
C6818 C6819 1.391 . S
C6819 H6807 0.950 . S
C6819 C6815 1.393 . S
C6819 C6818 1.391 . S
H6820 C6828 0.950 . S
H6821 C6833 0.950 . S
H6822 C6830 0.950 . S
H6823 C6832 0.950 . S
H6824 C6834 0.950 . S
H6825 C6836 0.950 . S
H6826 C6838 0.950 . S
H6827 C6839 0.950 . S
C6828 H6820 0.950 . S
C6828 C6829 1.386 . S
C6828 C6830 1.391 . S
C6829 C6828 1.386 . S
C6829 C6833 1.393 . S
C6830 H6822 0.950 . S
C6830 C6828 1.391 . S
C6830 C6831 1.400 . S
C6831 C6830 1.400 . S
C6831 C6832 1.398 . S
C6831 C6837 1.491 . S
C6832 H6823 0.950 . S
C6832 C6831 1.398 . S
C6832 C6833 1.391 . S
C6833 H6821 0.950 . S
C6833 C6829 1.393 . S
C6833 C6832 1.391 . S
C6834 H6824 0.950 . S
C6834 C6835 1.386 . S
C6834 C6836 1.391 . S
C6835 C6834 1.386 . S
C6835 C6839 1.393 . S
C6836 H6825 0.950 . S
C6836 C6834 1.391 . S
C6836 C6837 1.400 . S
C6837 C6831 1.491 . S
C6837 C6836 1.400 . S
C6837 C6838 1.398 . S
C6838 H6826 0.950 . S
C6838 C6837 1.398 . S
C6838 C6839 1.391 . S
C6839 H6827 0.950 . S
C6839 C6835 1.393 . S
C6839 C6838 1.391 . S
H6840 C6848 0.950 . S
H6841 C6853 0.950 . S
H6842 C6850 0.950 . S
H6843 C6852 0.950 . S
H6844 C6854 0.950 . S
H6845 C6856 0.950 . S
H6846 C6858 0.950 . S
H6847 C6859 0.950 . S
C6848 H6840 0.950 . S
C6848 C6849 1.386 . S
C6848 C6850 1.391 . S
C6849 C6848 1.386 . S
C6849 C6853 1.393 . S
C6850 H6842 0.950 . S
C6850 C6848 1.391 . S
C6850 C6851 1.400 . S
C6851 C6850 1.400 . S
C6851 C6852 1.398 . S
C6851 C6857 1.491 . S
C6852 H6843 0.950 . S
C6852 C6851 1.398 . S
C6852 C6853 1.391 . S
C6853 H6841 0.950 . S
C6853 C6849 1.393 . S
C6853 C6852 1.391 . S
C6854 H6844 0.950 . S
C6854 C6855 1.386 . S
C6854 C6856 1.391 . S
C6855 C6854 1.386 . S
C6855 C6859 1.393 . S
C6856 H6845 0.950 . S
C6856 C6854 1.391 . S
C6856 C6857 1.400 . S
C6857 C6851 1.491 . S
C6857 C6856 1.400 . S
C6857 C6858 1.398 . S
C6858 H6846 0.950 . S
C6858 C6857 1.398 . S
C6858 C6859 1.391 . S
C6859 H6847 0.950 . S
C6859 C6855 1.393 . S
C6859 C6858 1.391 . S
H6860 C6868 0.950 . S
H6861 C6873 0.950 . S
H6862 C6870 0.950 . S
H6863 C6872 0.950 . S
H6864 C6874 0.950 . S
H6865 C6876 0.950 . S
H6866 C6878 0.950 . S
H6867 C6879 0.950 . S
C6868 H6860 0.950 . S
C6868 C6869 1.386 . S
C6868 C6870 1.391 . S
C6869 C6868 1.386 . S
C6869 C6873 1.393 . S
C6870 H6862 0.950 . S
C6870 C6868 1.391 . S
C6870 C6871 1.400 . S
C6871 C6870 1.400 . S
C6871 C6872 1.398 . S
C6871 C6877 1.491 . S
C6872 H6863 0.950 . S
C6872 C6871 1.398 . S
C6872 C6873 1.391 . S
C6873 H6861 0.950 . S
C6873 C6869 1.393 . S
C6873 C6872 1.391 . S
C6874 H6864 0.950 . S
C6874 C6875 1.386 . S
C6874 C6876 1.391 . S
C6875 C6874 1.386 . S
C6875 C6879 1.393 . S
C6876 H6865 0.950 . S
C6876 C6874 1.391 . S
C6876 C6877 1.400 . S
C6877 C6871 1.491 . S
C6877 C6876 1.400 . S
C6877 C6878 1.398 . S
C6878 H6866 0.950 . S
C6878 C6877 1.398 . S
C6878 C6879 1.391 . S
C6879 H6867 0.950 . S
C6879 C6875 1.393 . S
C6879 C6878 1.391 . S
H6880 C6888 0.950 . S
H6881 C6893 0.950 . S
H6882 C6890 0.950 . S
H6883 C6892 0.950 . S
H6884 C6894 0.950 . S
H6885 C6896 0.950 . S
H6886 C6898 0.950 . S
H6887 C6899 0.950 . S
C6888 H6880 0.950 . S
C6888 C6889 1.386 . S
C6888 C6890 1.391 . S
C6889 C6888 1.386 . S
C6889 C6893 1.393 . S
C6890 H6882 0.950 . S
C6890 C6888 1.391 . S
C6890 C6891 1.400 . S
C6891 C6890 1.400 . S
C6891 C6892 1.398 . S
C6891 C6897 1.491 . S
C6892 H6883 0.950 . S
C6892 C6891 1.398 . S
C6892 C6893 1.391 . S
C6893 H6881 0.950 . S
C6893 C6889 1.393 . S
C6893 C6892 1.391 . S
C6894 H6884 0.950 . S
C6894 C6895 1.386 . S
C6894 C6896 1.391 . S
C6895 C6894 1.386 . S
C6895 C6899 1.393 . S
C6896 H6885 0.950 . S
C6896 C6894 1.391 . S
C6896 C6897 1.400 . S
C6897 C6891 1.491 . S
C6897 C6896 1.400 . S
C6897 C6898 1.398 . S
C6898 H6886 0.950 . S
C6898 C6897 1.398 . S
C6898 C6899 1.391 . S
C6899 H6887 0.950 . S
C6899 C6895 1.393 . S
C6899 C6898 1.391 . S
H6900 C6908 0.950 . S
H6901 C6913 0.950 . S
H6902 C6910 0.950 . S
H6903 C6912 0.950 . S
H6904 C6914 0.950 . S
H6905 C6916 0.950 . S
H6906 C6918 0.950 . S
H6907 C6919 0.950 . S
C6908 H6900 0.950 . S
C6908 C6909 1.386 . S
C6908 C6910 1.391 . S
C6909 C6908 1.386 . S
C6909 C6913 1.393 . S
C6910 H6902 0.950 . S
C6910 C6908 1.391 . S
C6910 C6911 1.400 . S
C6911 C6910 1.400 . S
C6911 C6912 1.398 . S
C6911 C6917 1.491 . S
C6912 H6903 0.950 . S
C6912 C6911 1.398 . S
C6912 C6913 1.391 . S
C6913 H6901 0.950 . S
C6913 C6909 1.393 . S
C6913 C6912 1.391 . S
C6914 H6904 0.950 . S
C6914 C6915 1.386 . S
C6914 C6916 1.391 . S
C6915 C6914 1.386 . S
C6915 C6919 1.393 . S
C6916 H6905 0.950 . S
C6916 C6914 1.391 . S
C6916 C6917 1.400 . S
C6917 C6911 1.491 . S
C6917 C6916 1.400 . S
C6917 C6918 1.398 . S
C6918 H6906 0.950 . S
C6918 C6917 1.398 . S
C6918 C6919 1.391 . S
C6919 H6907 0.950 . S
C6919 C6915 1.393 . S
C6919 C6918 1.391 . S
H6920 C6928 0.950 . S
H6921 C6933 0.950 . S
H6922 C6930 0.950 . S
H6923 C6932 0.950 . S
H6924 C6934 0.950 . S
H6925 C6936 0.950 . S
H6926 C6938 0.950 . S
H6927 C6939 0.950 . S
C6928 H6920 0.950 . S
C6928 C6929 1.386 . S
C6928 C6930 1.391 . S
C6929 C6928 1.386 . S
C6929 C6933 1.393 . S
C6930 H6922 0.950 . S
C6930 C6928 1.391 . S
C6930 C6931 1.400 . S
C6931 C6930 1.400 . S
C6931 C6932 1.398 . S
C6931 C6937 1.491 . S
C6932 H6923 0.950 . S
C6932 C6931 1.398 . S
C6932 C6933 1.391 . S
C6933 H6921 0.950 . S
C6933 C6929 1.393 . S
C6933 C6932 1.391 . S
C6934 H6924 0.950 . S
C6934 C6935 1.386 . S
C6934 C6936 1.391 . S
C6935 C6934 1.386 . S
C6935 C6939 1.393 . S
C6936 H6925 0.950 . S
C6936 C6934 1.391 . S
C6936 C6937 1.400 . S
C6937 C6931 1.491 . S
C6937 C6936 1.400 . S
C6937 C6938 1.398 . S
C6938 H6926 0.950 . S
C6938 C6937 1.398 . S
C6938 C6939 1.391 . S
C6939 H6927 0.950 . S
C6939 C6935 1.393 . S
C6939 C6938 1.391 . S
H6940 C6948 0.950 . S
H6941 C6953 0.950 . S
H6942 C6950 0.950 . S
H6943 C6952 0.950 . S
H6944 C6954 0.950 . S
H6945 C6956 0.950 . S
H6946 C6958 0.950 . S
H6947 C6959 0.950 . S
C6948 H6940 0.950 . S
C6948 C6949 1.386 . S
C6948 C6950 1.391 . S
C6949 C6948 1.386 . S
C6949 C6953 1.393 . S
C6950 H6942 0.950 . S
C6950 C6948 1.391 . S
C6950 C6951 1.400 . S
C6951 C6950 1.400 . S
C6951 C6952 1.398 . S
C6951 C6957 1.491 . S
C6952 H6943 0.950 . S
C6952 C6951 1.398 . S
C6952 C6953 1.391 . S
C6953 H6941 0.950 . S
C6953 C6949 1.393 . S
C6953 C6952 1.391 . S
C6954 H6944 0.950 . S
C6954 C6955 1.386 . S
C6954 C6956 1.391 . S
C6955 C6954 1.386 . S
C6955 C6959 1.393 . S
C6956 H6945 0.950 . S
C6956 C6954 1.391 . S
C6956 C6957 1.400 . S
C6957 C6951 1.491 . S
C6957 C6956 1.400 . S
C6957 C6958 1.398 . S
C6958 H6946 0.950 . S
C6958 C6957 1.398 . S
C6958 C6959 1.391 . S
C6959 H6947 0.950 . S
C6959 C6955 1.393 . S
C6959 C6958 1.391 . S
H6960 C6968 0.950 . S
H6961 C6973 0.950 . S
H6962 C6970 0.950 . S
H6963 C6972 0.950 . S
H6964 C6974 0.950 . S
H6965 C6976 0.950 . S
H6966 C6978 0.950 . S
H6967 C6979 0.950 . S
C6968 H6960 0.950 . S
C6968 C6969 1.386 . S
C6968 C6970 1.391 . S
C6969 C6968 1.386 . S
C6969 C6973 1.393 . S
C6970 H6962 0.950 . S
C6970 C6968 1.391 . S
C6970 C6971 1.400 . S
C6971 C6970 1.400 . S
C6971 C6972 1.398 . S
C6971 C6977 1.491 . S
C6972 H6963 0.950 . S
C6972 C6971 1.398 . S
C6972 C6973 1.391 . S
C6973 H6961 0.950 . S
C6973 C6969 1.393 . S
C6973 C6972 1.391 . S
C6974 H6964 0.950 . S
C6974 C6975 1.386 . S
C6974 C6976 1.391 . S
C6975 C6974 1.386 . S
C6975 C6979 1.393 . S
C6976 H6965 0.950 . S
C6976 C6974 1.391 . S
C6976 C6977 1.400 . S
C6977 C6971 1.491 . S
C6977 C6976 1.400 . S
C6977 C6978 1.398 . S
C6978 H6966 0.950 . S
C6978 C6977 1.398 . S
C6978 C6979 1.391 . S
C6979 H6967 0.950 . S
C6979 C6975 1.393 . S
C6979 C6978 1.391 . S
H6980 C6988 0.950 . S
H6981 C6993 0.950 . S
H6982 C6990 0.950 . S
H6983 C6992 0.950 . S
H6984 C6994 0.950 . S
H6985 C6996 0.950 . S
H6986 C6998 0.950 . S
H6987 C6999 0.950 . S
C6988 H6980 0.950 . S
C6988 C6989 1.386 . S
C6988 C6990 1.391 . S
C6989 C6988 1.386 . S
C6989 C6993 1.393 . S
C6990 H6982 0.950 . S
C6990 C6988 1.391 . S
C6990 C6991 1.400 . S
C6991 C6990 1.400 . S
C6991 C6992 1.398 . S
C6991 C6997 1.491 . S
C6992 H6983 0.950 . S
C6992 C6991 1.398 . S
C6992 C6993 1.391 . S
C6993 H6981 0.950 . S
C6993 C6989 1.393 . S
C6993 C6992 1.391 . S
C6994 H6984 0.950 . S
C6994 C6995 1.386 . S
C6994 C6996 1.391 . S
C6995 C6994 1.386 . S
C6995 C6999 1.393 . S
C6996 H6985 0.950 . S
C6996 C6994 1.391 . S
C6996 C6997 1.400 . S
C6997 C6991 1.491 . S
C6997 C6996 1.400 . S
C6997 C6998 1.398 . S
C6998 H6986 0.950 . S
C6998 C6997 1.398 . S
C6998 C6999 1.391 . S
C6999 H6987 0.950 . S
C6999 C6995 1.393 . S
C6999 C6998 1.391 . S
H7000 C7008 0.950 . S
H7001 C7013 0.950 . S
H7002 C7010 0.950 . S
H7003 C7012 0.950 . S
H7004 C7014 0.950 . S
H7005 C7016 0.950 . S
H7006 C7018 0.950 . S
H7007 C7019 0.950 . S
C7008 H7000 0.950 . S
C7008 C7009 1.386 . S
C7008 C7010 1.391 . S
C7009 C7008 1.386 . S
C7009 C7013 1.393 . S
C7010 H7002 0.950 . S
C7010 C7008 1.391 . S
C7010 C7011 1.400 . S
C7011 C7010 1.400 . S
C7011 C7012 1.398 . S
C7011 C7017 1.491 . S
C7012 H7003 0.950 . S
C7012 C7011 1.398 . S
C7012 C7013 1.391 . S
C7013 H7001 0.950 . S
C7013 C7009 1.393 . S
C7013 C7012 1.391 . S
C7014 H7004 0.950 . S
C7014 C7015 1.386 . S
C7014 C7016 1.391 . S
C7015 C7014 1.386 . S
C7015 C7019 1.393 . S
C7016 H7005 0.950 . S
C7016 C7014 1.391 . S
C7016 C7017 1.400 . S
C7017 C7011 1.491 . S
C7017 C7016 1.400 . S
C7017 C7018 1.398 . S
C7018 H7006 0.950 . S
C7018 C7017 1.398 . S
C7018 C7019 1.391 . S
C7019 H7007 0.950 . S
C7019 C7015 1.393 . S
C7019 C7018 1.391 . S
H7020 C7028 0.950 . S
H7021 C7033 0.950 . S
H7022 C7030 0.950 . S
H7023 C7032 0.950 . S
H7024 C7034 0.950 . S
H7025 C7036 0.950 . S
H7026 C7038 0.950 . S
H7027 C7039 0.950 . S
C7028 H7020 0.950 . S
C7028 C7029 1.386 . S
C7028 C7030 1.391 . S
C7029 C7028 1.386 . S
C7029 C7033 1.393 . S
C7030 H7022 0.950 . S
C7030 C7028 1.391 . S
C7030 C7031 1.400 . S
C7031 C7030 1.400 . S
C7031 C7032 1.398 . S
C7031 C7037 1.491 . S
C7032 H7023 0.950 . S
C7032 C7031 1.398 . S
C7032 C7033 1.391 . S
C7033 H7021 0.950 . S
C7033 C7029 1.393 . S
C7033 C7032 1.391 . S
C7034 H7024 0.950 . S
C7034 C7035 1.386 . S
C7034 C7036 1.391 . S
C7035 C7034 1.386 . S
C7035 C7039 1.393 . S
C7036 H7025 0.950 . S
C7036 C7034 1.391 . S
C7036 C7037 1.400 . S
C7037 C7031 1.491 . S
C7037 C7036 1.400 . S
C7037 C7038 1.398 . S
C7038 H7026 0.950 . S
C7038 C7037 1.398 . S
C7038 C7039 1.391 . S
C7039 H7027 0.950 . S
C7039 C7035 1.393 . S
C7039 C7038 1.391 . S
H7040 C7048 0.950 . S
H7041 C7053 0.950 . S
H7042 C7050 0.950 . S
H7043 C7052 0.950 . S
H7044 C7054 0.950 . S
H7045 C7056 0.950 . S
H7046 C7058 0.950 . S
H7047 C7059 0.950 . S
C7048 H7040 0.950 . S
C7048 C7049 1.386 . S
C7048 C7050 1.391 . S
C7049 C7048 1.386 . S
C7049 C7053 1.393 . S
C7050 H7042 0.950 . S
C7050 C7048 1.391 . S
C7050 C7051 1.400 . S
C7051 C7050 1.400 . S
C7051 C7052 1.398 . S
C7051 C7057 1.491 . S
C7052 H7043 0.950 . S
C7052 C7051 1.398 . S
C7052 C7053 1.391 . S
C7053 H7041 0.950 . S
C7053 C7049 1.393 . S
C7053 C7052 1.391 . S
C7054 H7044 0.950 . S
C7054 C7055 1.386 . S
C7054 C7056 1.391 . S
C7055 C7054 1.386 . S
C7055 C7059 1.393 . S
C7056 H7045 0.950 . S
C7056 C7054 1.391 . S
C7056 C7057 1.400 . S
C7057 C7051 1.491 . S
C7057 C7056 1.400 . S
C7057 C7058 1.398 . S
C7058 H7046 0.950 . S
C7058 C7057 1.398 . S
C7058 C7059 1.391 . S
C7059 H7047 0.950 . S
C7059 C7055 1.393 . S
C7059 C7058 1.391 . S
H7060 C7068 0.950 . S
H7061 C7073 0.950 . S
H7062 C7070 0.950 . S
H7063 C7072 0.950 . S
H7064 C7074 0.950 . S
H7065 C7076 0.950 . S
H7066 C7078 0.950 . S
H7067 C7079 0.950 . S
C7068 H7060 0.950 . S
C7068 C7069 1.386 . S
C7068 C7070 1.391 . S
C7069 C7068 1.386 . S
C7069 C7073 1.393 . S
C7070 H7062 0.950 . S
C7070 C7068 1.391 . S
C7070 C7071 1.400 . S
C7071 C7070 1.400 . S
C7071 C7072 1.398 . S
C7071 C7077 1.491 . S
C7072 H7063 0.950 . S
C7072 C7071 1.398 . S
C7072 C7073 1.391 . S
C7073 H7061 0.950 . S
C7073 C7069 1.393 . S
C7073 C7072 1.391 . S
C7074 H7064 0.950 . S
C7074 C7075 1.386 . S
C7074 C7076 1.391 . S
C7075 C7074 1.386 . S
C7075 C7079 1.393 . S
C7076 H7065 0.950 . S
C7076 C7074 1.391 . S
C7076 C7077 1.400 . S
C7077 C7071 1.491 . S
C7077 C7076 1.400 . S
C7077 C7078 1.398 . S
C7078 H7066 0.950 . S
C7078 C7077 1.398 . S
C7078 C7079 1.391 . S
C7079 H7067 0.950 . S
C7079 C7075 1.393 . S
C7079 C7078 1.391 . S
H7080 C7088 0.950 . S
H7081 C7093 0.950 . S
H7082 C7090 0.950 . S
H7083 C7092 0.950 . S
H7084 C7094 0.950 . S
H7085 C7096 0.950 . S
H7086 C7098 0.950 . S
H7087 C7099 0.950 . S
C7088 H7080 0.950 . S
C7088 C7089 1.386 . S
C7088 C7090 1.391 . S
C7089 C7088 1.386 . S
C7089 C7093 1.393 . S
C7090 H7082 0.950 . S
C7090 C7088 1.391 . S
C7090 C7091 1.400 . S
C7091 C7090 1.400 . S
C7091 C7092 1.398 . S
C7091 C7097 1.491 . S
C7092 H7083 0.950 . S
C7092 C7091 1.398 . S
C7092 C7093 1.391 . S
C7093 H7081 0.950 . S
C7093 C7089 1.393 . S
C7093 C7092 1.391 . S
C7094 H7084 0.950 . S
C7094 C7095 1.386 . S
C7094 C7096 1.391 . S
C7095 C7094 1.386 . S
C7095 C7099 1.393 . S
C7096 H7085 0.950 . S
C7096 C7094 1.391 . S
C7096 C7097 1.400 . S
C7097 C7091 1.491 . S
C7097 C7096 1.400 . S
C7097 C7098 1.398 . S
C7098 H7086 0.950 . S
C7098 C7097 1.398 . S
C7098 C7099 1.391 . S
C7099 H7087 0.950 . S
C7099 C7095 1.393 . S
C7099 C7098 1.391 . S
H7100 C7108 0.950 . S
H7101 C7113 0.950 . S
H7102 C7110 0.950 . S
H7103 C7112 0.950 . S
H7104 C7114 0.950 . S
H7105 C7116 0.950 . S
H7106 C7118 0.950 . S
H7107 C7119 0.950 . S
C7108 H7100 0.950 . S
C7108 C7109 1.386 . S
C7108 C7110 1.391 . S
C7109 C7108 1.386 . S
C7109 C7113 1.393 . S
C7110 H7102 0.950 . S
C7110 C7108 1.391 . S
C7110 C7111 1.400 . S
C7111 C7110 1.400 . S
C7111 C7112 1.398 . S
C7111 C7117 1.491 . S
C7112 H7103 0.950 . S
C7112 C7111 1.398 . S
C7112 C7113 1.391 . S
C7113 H7101 0.950 . S
C7113 C7109 1.393 . S
C7113 C7112 1.391 . S
C7114 H7104 0.950 . S
C7114 C7115 1.386 . S
C7114 C7116 1.391 . S
C7115 C7114 1.386 . S
C7115 C7119 1.393 . S
C7116 H7105 0.950 . S
C7116 C7114 1.391 . S
C7116 C7117 1.400 . S
C7117 C7111 1.491 . S
C7117 C7116 1.400 . S
C7117 C7118 1.398 . S
C7118 H7106 0.950 . S
C7118 C7117 1.398 . S
C7118 C7119 1.391 . S
C7119 H7107 0.950 . S
C7119 C7115 1.393 . S
C7119 C7118 1.391 . S
H7120 C7128 0.950 . S
H7121 C7133 0.950 . S
H7122 C7130 0.950 . S
H7123 C7132 0.950 . S
H7124 C7134 0.950 . S
H7125 C7136 0.950 . S
H7126 C7138 0.950 . S
H7127 C7139 0.950 . S
C7128 H7120 0.950 . S
C7128 C7129 1.386 . S
C7128 C7130 1.391 . S
C7129 C7128 1.386 . S
C7129 C7133 1.393 . S
C7130 H7122 0.950 . S
C7130 C7128 1.391 . S
C7130 C7131 1.400 . S
C7131 C7130 1.400 . S
C7131 C7132 1.398 . S
C7131 C7137 1.491 . S
C7132 H7123 0.950 . S
C7132 C7131 1.398 . S
C7132 C7133 1.391 . S
C7133 H7121 0.950 . S
C7133 C7129 1.393 . S
C7133 C7132 1.391 . S
C7134 H7124 0.950 . S
C7134 C7135 1.386 . S
C7134 C7136 1.391 . S
C7135 C7134 1.386 . S
C7135 C7139 1.393 . S
C7136 H7125 0.950 . S
C7136 C7134 1.391 . S
C7136 C7137 1.400 . S
C7137 C7131 1.491 . S
C7137 C7136 1.400 . S
C7137 C7138 1.398 . S
C7138 H7126 0.950 . S
C7138 C7137 1.398 . S
C7138 C7139 1.391 . S
C7139 H7127 0.950 . S
C7139 C7135 1.393 . S
C7139 C7138 1.391 . S
H7140 C7148 0.950 . S
H7141 C7153 0.950 . S
H7142 C7150 0.950 . S
H7143 C7152 0.950 . S
H7144 C7154 0.950 . S
H7145 C7156 0.950 . S
H7146 C7158 0.950 . S
H7147 C7159 0.950 . S
C7148 H7140 0.950 . S
C7148 C7149 1.386 . S
C7148 C7150 1.391 . S
C7149 C7148 1.386 . S
C7149 C7153 1.393 . S
C7150 H7142 0.950 . S
C7150 C7148 1.391 . S
C7150 C7151 1.400 . S
C7151 C7150 1.400 . S
C7151 C7152 1.398 . S
C7151 C7157 1.491 . S
C7152 H7143 0.950 . S
C7152 C7151 1.398 . S
C7152 C7153 1.391 . S
C7153 H7141 0.950 . S
C7153 C7149 1.393 . S
C7153 C7152 1.391 . S
C7154 H7144 0.950 . S
C7154 C7155 1.386 . S
C7154 C7156 1.391 . S
C7155 C7154 1.386 . S
C7155 C7159 1.393 . S
C7156 H7145 0.950 . S
C7156 C7154 1.391 . S
C7156 C7157 1.400 . S
C7157 C7151 1.491 . S
C7157 C7156 1.400 . S
C7157 C7158 1.398 . S
C7158 H7146 0.950 . S
C7158 C7157 1.398 . S
C7158 C7159 1.391 . S
C7159 H7147 0.950 . S
C7159 C7155 1.393 . S
C7159 C7158 1.391 . S
H7160 C7168 0.950 . S
H7161 C7173 0.950 . S
H7162 C7170 0.950 . S
H7163 C7172 0.950 . S
H7164 C7174 0.950 . S
H7165 C7176 0.950 . S
H7166 C7178 0.950 . S
H7167 C7179 0.950 . S
C7168 H7160 0.950 . S
C7168 C7169 1.386 . S
C7168 C7170 1.391 . S
C7169 C7168 1.386 . S
C7169 C7173 1.393 . S
C7170 H7162 0.950 . S
C7170 C7168 1.391 . S
C7170 C7171 1.400 . S
C7171 C7170 1.400 . S
C7171 C7172 1.398 . S
C7171 C7177 1.491 . S
C7172 H7163 0.950 . S
C7172 C7171 1.398 . S
C7172 C7173 1.391 . S
C7173 H7161 0.950 . S
C7173 C7169 1.393 . S
C7173 C7172 1.391 . S
C7174 H7164 0.950 . S
C7174 C7175 1.386 . S
C7174 C7176 1.391 . S
C7175 C7174 1.386 . S
C7175 C7179 1.393 . S
C7176 H7165 0.950 . S
C7176 C7174 1.391 . S
C7176 C7177 1.400 . S
C7177 C7171 1.491 . S
C7177 C7176 1.400 . S
C7177 C7178 1.398 . S
C7178 H7166 0.950 . S
C7178 C7177 1.398 . S
C7178 C7179 1.391 . S
C7179 H7167 0.950 . S
C7179 C7175 1.393 . S
C7179 C7178 1.391 . S
H7180 C7188 0.950 . S
H7181 C7193 0.950 . S
H7182 C7190 0.950 . S
H7183 C7192 0.950 . S
H7184 C7194 0.950 . S
H7185 C7196 0.950 . S
H7186 C7198 0.950 . S
H7187 C7199 0.950 . S
C7188 H7180 0.950 . S
C7188 C7189 1.386 . S
C7188 C7190 1.391 . S
C7189 C7188 1.386 . S
C7189 C7193 1.393 . S
C7190 H7182 0.950 . S
C7190 C7188 1.391 . S
C7190 C7191 1.400 . S
C7191 C7190 1.400 . S
C7191 C7192 1.398 . S
C7191 C7197 1.491 . S
C7192 H7183 0.950 . S
C7192 C7191 1.398 . S
C7192 C7193 1.391 . S
C7193 H7181 0.950 . S
C7193 C7189 1.393 . S
C7193 C7192 1.391 . S
C7194 H7184 0.950 . S
C7194 C7195 1.386 . S
C7194 C7196 1.391 . S
C7195 C7194 1.386 . S
C7195 C7199 1.393 . S
C7196 H7185 0.950 . S
C7196 C7194 1.391 . S
C7196 C7197 1.400 . S
C7197 C7191 1.491 . S
C7197 C7196 1.400 . S
C7197 C7198 1.398 . S
C7198 H7186 0.950 . S
C7198 C7197 1.398 . S
C7198 C7199 1.391 . S
C7199 H7187 0.950 . S
C7199 C7195 1.393 . S
C7199 C7198 1.391 . S
H7200 C7208 0.950 . S
H7201 C7213 0.950 . S
H7202 C7210 0.950 . S
H7203 C7212 0.950 . S
H7204 C7214 0.950 . S
H7205 C7216 0.950 . S
H7206 C7218 0.950 . S
H7207 C7219 0.950 . S
C7208 H7200 0.950 . S
C7208 C7209 1.386 . S
C7208 C7210 1.391 . S
C7209 C7208 1.386 . S
C7209 C7213 1.393 . S
C7210 H7202 0.950 . S
C7210 C7208 1.391 . S
C7210 C7211 1.400 . S
C7211 C7210 1.400 . S
C7211 C7212 1.398 . S
C7211 C7217 1.491 . S
C7212 H7203 0.950 . S
C7212 C7211 1.398 . S
C7212 C7213 1.391 . S
C7213 H7201 0.950 . S
C7213 C7209 1.393 . S
C7213 C7212 1.391 . S
C7214 H7204 0.950 . S
C7214 C7215 1.386 . S
C7214 C7216 1.391 . S
C7215 C7214 1.386 . S
C7215 C7219 1.393 . S
C7216 H7205 0.950 . S
C7216 C7214 1.391 . S
C7216 C7217 1.400 . S
C7217 C7211 1.491 . S
C7217 C7216 1.400 . S
C7217 C7218 1.398 . S
C7218 H7206 0.950 . S
C7218 C7217 1.398 . S
C7218 C7219 1.391 . S
C7219 H7207 0.950 . S
C7219 C7215 1.393 . S
C7219 C7218 1.391 . S
H7220 C7228 0.950 . S
H7221 C7233 0.950 . S
H7222 C7230 0.950 . S
H7223 C7232 0.950 . S
H7224 C7234 0.950 . S
H7225 C7236 0.950 . S
H7226 C7238 0.950 . S
H7227 C7239 0.950 . S
C7228 H7220 0.950 . S
C7228 C7229 1.386 . S
C7228 C7230 1.391 . S
C7229 C7228 1.386 . S
C7229 C7233 1.393 . S
C7230 H7222 0.950 . S
C7230 C7228 1.391 . S
C7230 C7231 1.400 . S
C7231 C7230 1.400 . S
C7231 C7232 1.398 . S
C7231 C7237 1.491 . S
C7232 H7223 0.950 . S
C7232 C7231 1.398 . S
C7232 C7233 1.391 . S
C7233 H7221 0.950 . S
C7233 C7229 1.393 . S
C7233 C7232 1.391 . S
C7234 H7224 0.950 . S
C7234 C7235 1.386 . S
C7234 C7236 1.391 . S
C7235 C7234 1.386 . S
C7235 C7239 1.393 . S
C7236 H7225 0.950 . S
C7236 C7234 1.391 . S
C7236 C7237 1.400 . S
C7237 C7231 1.491 . S
C7237 C7236 1.400 . S
C7237 C7238 1.398 . S
C7238 H7226 0.950 . S
C7238 C7237 1.398 . S
C7238 C7239 1.391 . S
C7239 H7227 0.950 . S
C7239 C7235 1.393 . S
C7239 C7238 1.391 . S
H7240 C7248 0.950 . S
H7241 C7253 0.950 . S
H7242 C7250 0.950 . S
H7243 C7252 0.950 . S
H7244 C7254 0.950 . S
H7245 C7256 0.950 . S
H7246 C7258 0.950 . S
H7247 C7259 0.950 . S
C7248 H7240 0.950 . S
C7248 C7249 1.386 . S
C7248 C7250 1.391 . S
C7249 C7248 1.386 . S
C7249 C7253 1.393 . S
C7250 H7242 0.950 . S
C7250 C7248 1.391 . S
C7250 C7251 1.400 . S
C7251 C7250 1.400 . S
C7251 C7252 1.398 . S
C7251 C7257 1.491 . S
C7252 H7243 0.950 . S
C7252 C7251 1.398 . S
C7252 C7253 1.391 . S
C7253 H7241 0.950 . S
C7253 C7249 1.393 . S
C7253 C7252 1.391 . S
C7254 H7244 0.950 . S
C7254 C7255 1.386 . S
C7254 C7256 1.391 . S
C7255 C7254 1.386 . S
C7255 C7259 1.393 . S
C7256 H7245 0.950 . S
C7256 C7254 1.391 . S
C7256 C7257 1.400 . S
C7257 C7251 1.491 . S
C7257 C7256 1.400 . S
C7257 C7258 1.398 . S
C7258 H7246 0.950 . S
C7258 C7257 1.398 . S
C7258 C7259 1.391 . S
C7259 H7247 0.950 . S
C7259 C7255 1.393 . S
C7259 C7258 1.391 . S
H7260 C7268 0.950 . S
H7261 C7273 0.950 . S
H7262 C7270 0.950 . S
H7263 C7272 0.950 . S
H7264 C7274 0.950 . S
H7265 C7276 0.950 . S
H7266 C7278 0.950 . S
H7267 C7279 0.950 . S
C7268 H7260 0.950 . S
C7268 C7269 1.386 . S
C7268 C7270 1.391 . S
C7269 C7268 1.386 . S
C7269 C7273 1.393 . S
C7270 H7262 0.950 . S
C7270 C7268 1.391 . S
C7270 C7271 1.400 . S
C7271 C7270 1.400 . S
C7271 C7272 1.398 . S
C7271 C7277 1.491 . S
C7272 H7263 0.950 . S
C7272 C7271 1.398 . S
C7272 C7273 1.391 . S
C7273 H7261 0.950 . S
C7273 C7269 1.393 . S
C7273 C7272 1.391 . S
C7274 H7264 0.950 . S
C7274 C7275 1.386 . S
C7274 C7276 1.391 . S
C7275 C7274 1.386 . S
C7275 C7279 1.393 . S
C7276 H7265 0.950 . S
C7276 C7274 1.391 . S
C7276 C7277 1.400 . S
C7277 C7271 1.491 . S
C7277 C7276 1.400 . S
C7277 C7278 1.398 . S
C7278 H7266 0.950 . S
C7278 C7277 1.398 . S
C7278 C7279 1.391 . S
C7279 H7267 0.950 . S
C7279 C7275 1.393 . S
C7279 C7278 1.391 . S
H7280 C7288 0.950 . S
H7281 C7293 0.950 . S
H7282 C7290 0.950 . S
H7283 C7292 0.950 . S
H7284 C7294 0.950 . S
H7285 C7296 0.950 . S
H7286 C7298 0.950 . S
H7287 C7299 0.950 . S
C7288 H7280 0.950 . S
C7288 C7289 1.386 . S
C7288 C7290 1.391 . S
C7289 C7288 1.386 . S
C7289 C7293 1.393 . S
C7290 H7282 0.950 . S
C7290 C7288 1.391 . S
C7290 C7291 1.400 . S
C7291 C7290 1.400 . S
C7291 C7292 1.398 . S
C7291 C7297 1.491 . S
C7292 H7283 0.950 . S
C7292 C7291 1.398 . S
C7292 C7293 1.391 . S
C7293 H7281 0.950 . S
C7293 C7289 1.393 . S
C7293 C7292 1.391 . S
C7294 H7284 0.950 . S
C7294 C7295 1.386 . S
C7294 C7296 1.391 . S
C7295 C7294 1.386 . S
C7295 C7299 1.393 . S
C7296 H7285 0.950 . S
C7296 C7294 1.391 . S
C7296 C7297 1.400 . S
C7297 C7291 1.491 . S
C7297 C7296 1.400 . S
C7297 C7298 1.398 . S
C7298 H7286 0.950 . S
C7298 C7297 1.398 . S
C7298 C7299 1.391 . S
C7299 H7287 0.950 . S
C7299 C7295 1.393 . S
C7299 C7298 1.391 . S
H7300 C7308 0.950 . S
H7301 C7313 0.950 . S
H7302 C7310 0.950 . S
H7303 C7312 0.950 . S
H7304 C7314 0.950 . S
H7305 C7316 0.950 . S
H7306 C7318 0.950 . S
H7307 C7319 0.950 . S
C7308 H7300 0.950 . S
C7308 C7309 1.386 . S
C7308 C7310 1.391 . S
C7309 C7308 1.386 . S
C7309 C7313 1.393 . S
C7310 H7302 0.950 . S
C7310 C7308 1.391 . S
C7310 C7311 1.400 . S
C7311 C7310 1.400 . S
C7311 C7312 1.398 . S
C7311 C7317 1.491 . S
C7312 H7303 0.950 . S
C7312 C7311 1.398 . S
C7312 C7313 1.391 . S
C7313 H7301 0.950 . S
C7313 C7309 1.393 . S
C7313 C7312 1.391 . S
C7314 H7304 0.950 . S
C7314 C7315 1.386 . S
C7314 C7316 1.391 . S
C7315 C7314 1.386 . S
C7315 C7319 1.393 . S
C7316 H7305 0.950 . S
C7316 C7314 1.391 . S
C7316 C7317 1.400 . S
C7317 C7311 1.491 . S
C7317 C7316 1.400 . S
C7317 C7318 1.398 . S
C7318 H7306 0.950 . S
C7318 C7317 1.398 . S
C7318 C7319 1.391 . S
C7319 H7307 0.950 . S
C7319 C7315 1.393 . S
C7319 C7318 1.391 . S
H7320 C7328 0.950 . S
H7321 C7333 0.950 . S
H7322 C7330 0.950 . S
H7323 C7332 0.950 . S
H7324 C7334 0.950 . S
H7325 C7336 0.950 . S
H7326 C7338 0.950 . S
H7327 C7339 0.950 . S
C7328 H7320 0.950 . S
C7328 C7329 1.386 . S
C7328 C7330 1.391 . S
C7329 C7328 1.386 . S
C7329 C7333 1.393 . S
C7330 H7322 0.950 . S
C7330 C7328 1.391 . S
C7330 C7331 1.400 . S
C7331 C7330 1.400 . S
C7331 C7332 1.398 . S
C7331 C7337 1.491 . S
C7332 H7323 0.950 . S
C7332 C7331 1.398 . S
C7332 C7333 1.391 . S
C7333 H7321 0.950 . S
C7333 C7329 1.393 . S
C7333 C7332 1.391 . S
C7334 H7324 0.950 . S
C7334 C7335 1.386 . S
C7334 C7336 1.391 . S
C7335 C7334 1.386 . S
C7335 C7339 1.393 . S
C7336 H7325 0.950 . S
C7336 C7334 1.391 . S
C7336 C7337 1.400 . S
C7337 C7331 1.491 . S
C7337 C7336 1.400 . S
C7337 C7338 1.398 . S
C7338 H7326 0.950 . S
C7338 C7337 1.398 . S
C7338 C7339 1.391 . S
C7339 H7327 0.950 . S
C7339 C7335 1.393 . S
C7339 C7338 1.391 . S
H7340 C7348 0.950 . S
H7341 C7353 0.950 . S
H7342 C7350 0.950 . S
H7343 C7352 0.950 . S
H7344 C7354 0.950 . S
H7345 C7356 0.950 . S
H7346 C7358 0.950 . S
H7347 C7359 0.950 . S
C7348 H7340 0.950 . S
C7348 C7349 1.386 . S
C7348 C7350 1.391 . S
C7349 C7348 1.386 . S
C7349 C7353 1.393 . S
C7350 H7342 0.950 . S
C7350 C7348 1.391 . S
C7350 C7351 1.400 . S
C7351 C7350 1.400 . S
C7351 C7352 1.398 . S
C7351 C7357 1.491 . S
C7352 H7343 0.950 . S
C7352 C7351 1.398 . S
C7352 C7353 1.391 . S
C7353 H7341 0.950 . S
C7353 C7349 1.393 . S
C7353 C7352 1.391 . S
C7354 H7344 0.950 . S
C7354 C7355 1.386 . S
C7354 C7356 1.391 . S
C7355 C7354 1.386 . S
C7355 C7359 1.393 . S
C7356 H7345 0.950 . S
C7356 C7354 1.391 . S
C7356 C7357 1.400 . S
C7357 C7351 1.491 . S
C7357 C7356 1.400 . S
C7357 C7358 1.398 . S
C7358 H7346 0.950 . S
C7358 C7357 1.398 . S
C7358 C7359 1.391 . S
C7359 H7347 0.950 . S
C7359 C7355 1.393 . S
C7359 C7358 1.391 . S
H7360 C7368 0.950 . S
H7361 C7373 0.950 . S
H7362 C7370 0.950 . S
H7363 C7372 0.950 . S
H7364 C7374 0.950 . S
H7365 C7376 0.950 . S
H7366 C7378 0.950 . S
H7367 C7379 0.950 . S
C7368 H7360 0.950 . S
C7368 C7369 1.386 . S
C7368 C7370 1.391 . S
C7369 C7368 1.386 . S
C7369 C7373 1.393 . S
C7370 H7362 0.950 . S
C7370 C7368 1.391 . S
C7370 C7371 1.400 . S
C7371 C7370 1.400 . S
C7371 C7372 1.398 . S
C7371 C7377 1.491 . S
C7372 H7363 0.950 . S
C7372 C7371 1.398 . S
C7372 C7373 1.391 . S
C7373 H7361 0.950 . S
C7373 C7369 1.393 . S
C7373 C7372 1.391 . S
C7374 H7364 0.950 . S
C7374 C7375 1.386 . S
C7374 C7376 1.391 . S
C7375 C7374 1.386 . S
C7375 C7379 1.393 . S
C7376 H7365 0.950 . S
C7376 C7374 1.391 . S
C7376 C7377 1.400 . S
C7377 C7371 1.491 . S
C7377 C7376 1.400 . S
C7377 C7378 1.398 . S
C7378 H7366 0.950 . S
C7378 C7377 1.398 . S
C7378 C7379 1.391 . S
C7379 H7367 0.950 . S
C7379 C7375 1.393 . S
C7379 C7378 1.391 . S
H7380 C7388 0.950 . S
H7381 C7393 0.950 . S
H7382 C7390 0.950 . S
H7383 C7392 0.950 . S
H7384 C7394 0.950 . S
H7385 C7396 0.950 . S
H7386 C7398 0.950 . S
H7387 C7399 0.950 . S
C7388 H7380 0.950 . S
C7388 C7389 1.386 . S
C7388 C7390 1.391 . S
C7389 C7388 1.386 . S
C7389 C7393 1.393 . S
C7390 H7382 0.950 . S
C7390 C7388 1.391 . S
C7390 C7391 1.400 . S
C7391 C7390 1.400 . S
C7391 C7392 1.398 . S
C7391 C7397 1.491 . S
C7392 H7383 0.950 . S
C7392 C7391 1.398 . S
C7392 C7393 1.391 . S
C7393 H7381 0.950 . S
C7393 C7389 1.393 . S
C7393 C7392 1.391 . S
C7394 H7384 0.950 . S
C7394 C7395 1.386 . S
C7394 C7396 1.391 . S
C7395 C7394 1.386 . S
C7395 C7399 1.393 . S
C7396 H7385 0.950 . S
C7396 C7394 1.391 . S
C7396 C7397 1.400 . S
C7397 C7391 1.491 . S
C7397 C7396 1.400 . S
C7397 C7398 1.398 . S
C7398 H7386 0.950 . S
C7398 C7397 1.398 . S
C7398 C7399 1.391 . S
C7399 H7387 0.950 . S
C7399 C7395 1.393 . S
C7399 C7398 1.391 . S
H7400 C7408 0.950 . S
H7401 C7413 0.950 . S
H7402 C7410 0.950 . S
H7403 C7412 0.950 . S
H7404 C7414 0.950 . S
H7405 C7416 0.950 . S
H7406 C7418 0.950 . S
H7407 C7419 0.950 . S
C7408 H7400 0.950 . S
C7408 C7409 1.386 . S
C7408 C7410 1.391 . S
C7409 C7408 1.386 . S
C7409 C7413 1.393 . S
C7410 H7402 0.950 . S
C7410 C7408 1.391 . S
C7410 C7411 1.400 . S
C7411 C7410 1.400 . S
C7411 C7412 1.398 . S
C7411 C7417 1.491 . S
C7412 H7403 0.950 . S
C7412 C7411 1.398 . S
C7412 C7413 1.391 . S
C7413 H7401 0.950 . S
C7413 C7409 1.393 . S
C7413 C7412 1.391 . S
C7414 H7404 0.950 . S
C7414 C7415 1.386 . S
C7414 C7416 1.391 . S
C7415 C7414 1.386 . S
C7415 C7419 1.393 . S
C7416 H7405 0.950 . S
C7416 C7414 1.391 . S
C7416 C7417 1.400 . S
C7417 C7411 1.491 . S
C7417 C7416 1.400 . S
C7417 C7418 1.398 . S
C7418 H7406 0.950 . S
C7418 C7417 1.398 . S
C7418 C7419 1.391 . S
C7419 H7407 0.950 . S
C7419 C7415 1.393 . S
C7419 C7418 1.391 . S
H7420 C7428 0.950 . S
H7421 C7433 0.950 . S
H7422 C7430 0.950 . S
H7423 C7432 0.950 . S
H7424 C7434 0.950 . S
H7425 C7436 0.950 . S
H7426 C7438 0.950 . S
H7427 C7439 0.950 . S
C7428 H7420 0.950 . S
C7428 C7429 1.386 . S
C7428 C7430 1.391 . S
C7429 C7428 1.386 . S
C7429 C7433 1.393 . S
C7430 H7422 0.950 . S
C7430 C7428 1.391 . S
C7430 C7431 1.400 . S
C7431 C7430 1.400 . S
C7431 C7432 1.398 . S
C7431 C7437 1.491 . S
C7432 H7423 0.950 . S
C7432 C7431 1.398 . S
C7432 C7433 1.391 . S
C7433 H7421 0.950 . S
C7433 C7429 1.393 . S
C7433 C7432 1.391 . S
C7434 H7424 0.950 . S
C7434 C7435 1.386 . S
C7434 C7436 1.391 . S
C7435 C7434 1.386 . S
C7435 C7439 1.393 . S
C7436 H7425 0.950 . S
C7436 C7434 1.391 . S
C7436 C7437 1.400 . S
C7437 C7431 1.491 . S
C7437 C7436 1.400 . S
C7437 C7438 1.398 . S
C7438 H7426 0.950 . S
C7438 C7437 1.398 . S
C7438 C7439 1.391 . S
C7439 H7427 0.950 . S
C7439 C7435 1.393 . S
C7439 C7438 1.391 . S
H7440 C7448 0.950 . S
H7441 C7453 0.950 . S
H7442 C7450 0.950 . S
H7443 C7452 0.950 . S
H7444 C7454 0.950 . S
H7445 C7456 0.950 . S
H7446 C7458 0.950 . S
H7447 C7459 0.950 . S
C7448 H7440 0.950 . S
C7448 C7449 1.386 . S
C7448 C7450 1.391 . S
C7449 C7448 1.386 . S
C7449 C7453 1.393 . S
C7450 H7442 0.950 . S
C7450 C7448 1.391 . S
C7450 C7451 1.400 . S
C7451 C7450 1.400 . S
C7451 C7452 1.398 . S
C7451 C7457 1.491 . S
C7452 H7443 0.950 . S
C7452 C7451 1.398 . S
C7452 C7453 1.391 . S
C7453 H7441 0.950 . S
C7453 C7449 1.393 . S
C7453 C7452 1.391 . S
C7454 H7444 0.950 . S
C7454 C7455 1.386 . S
C7454 C7456 1.391 . S
C7455 C7454 1.386 . S
C7455 C7459 1.393 . S
C7456 H7445 0.950 . S
C7456 C7454 1.391 . S
C7456 C7457 1.400 . S
C7457 C7451 1.491 . S
C7457 C7456 1.400 . S
C7457 C7458 1.398 . S
C7458 H7446 0.950 . S
C7458 C7457 1.398 . S
C7458 C7459 1.391 . S
C7459 H7447 0.950 . S
C7459 C7455 1.393 . S
C7459 C7458 1.391 . S
H7460 C7468 0.950 . S
H7461 C7473 0.950 . S
H7462 C7470 0.950 . S
H7463 C7472 0.950 . S
H7464 C7474 0.950 . S
H7465 C7476 0.950 . S
H7466 C7478 0.950 . S
H7467 C7479 0.950 . S
C7468 H7460 0.950 . S
C7468 C7469 1.386 . S
C7468 C7470 1.391 . S
C7469 C7468 1.386 . S
C7469 C7473 1.393 . S
C7470 H7462 0.950 . S
C7470 C7468 1.391 . S
C7470 C7471 1.400 . S
C7471 C7470 1.400 . S
C7471 C7472 1.398 . S
C7471 C7477 1.491 . S
C7472 H7463 0.950 . S
C7472 C7471 1.398 . S
C7472 C7473 1.391 . S
C7473 H7461 0.950 . S
C7473 C7469 1.393 . S
C7473 C7472 1.391 . S
C7474 H7464 0.950 . S
C7474 C7475 1.386 . S
C7474 C7476 1.391 . S
C7475 C7474 1.386 . S
C7475 C7479 1.393 . S
C7476 H7465 0.950 . S
C7476 C7474 1.391 . S
C7476 C7477 1.400 . S
C7477 C7471 1.491 . S
C7477 C7476 1.400 . S
C7477 C7478 1.398 . S
C7478 H7466 0.950 . S
C7478 C7477 1.398 . S
C7478 C7479 1.391 . S
C7479 H7467 0.950 . S
C7479 C7475 1.393 . S
C7479 C7478 1.391 . S
H7480 C7488 0.950 . S
H7481 C7493 0.950 . S
H7482 C7490 0.950 . S
H7483 C7492 0.950 . S
H7484 C7494 0.950 . S
H7485 C7496 0.950 . S
H7486 C7498 0.950 . S
H7487 C7499 0.950 . S
C7488 H7480 0.950 . S
C7488 C7489 1.386 . S
C7488 C7490 1.391 . S
C7489 C7488 1.386 . S
C7489 C7493 1.393 . S
C7490 H7482 0.950 . S
C7490 C7488 1.391 . S
C7490 C7491 1.400 . S
C7491 C7490 1.400 . S
C7491 C7492 1.398 . S
C7491 C7497 1.491 . S
C7492 H7483 0.950 . S
C7492 C7491 1.398 . S
C7492 C7493 1.391 . S
C7493 H7481 0.950 . S
C7493 C7489 1.393 . S
C7493 C7492 1.391 . S
C7494 H7484 0.950 . S
C7494 C7495 1.386 . S
C7494 C7496 1.391 . S
C7495 C7494 1.386 . S
C7495 C7499 1.393 . S
C7496 H7485 0.950 . S
C7496 C7494 1.391 . S
C7496 C7497 1.400 . S
C7497 C7491 1.491 . S
C7497 C7496 1.400 . S
C7497 C7498 1.398 . S
C7498 H7486 0.950 . S
C7498 C7497 1.398 . S
C7498 C7499 1.391 . S
C7499 H7487 0.950 . S
C7499 C7495 1.393 . S
C7499 C7498 1.391 . S
H7500 C7508 0.950 . S
H7501 C7513 0.950 . S
H7502 C7510 0.950 . S
H7503 C7512 0.950 . S
H7504 C7514 0.950 . S
H7505 C7516 0.950 . S
H7506 C7518 0.950 . S
H7507 C7519 0.950 . S
C7508 H7500 0.950 . S
C7508 C7509 1.386 . S
C7508 C7510 1.391 . S
C7509 C7508 1.386 . S
C7509 C7513 1.393 . S
C7510 H7502 0.950 . S
C7510 C7508 1.391 . S
C7510 C7511 1.400 . S
C7511 C7510 1.400 . S
C7511 C7512 1.398 . S
C7511 C7517 1.491 . S
C7512 H7503 0.950 . S
C7512 C7511 1.398 . S
C7512 C7513 1.391 . S
C7513 H7501 0.950 . S
C7513 C7509 1.393 . S
C7513 C7512 1.391 . S
C7514 H7504 0.950 . S
C7514 C7515 1.386 . S
C7514 C7516 1.391 . S
C7515 C7514 1.386 . S
C7515 C7519 1.393 . S
C7516 H7505 0.950 . S
C7516 C7514 1.391 . S
C7516 C7517 1.400 . S
C7517 C7511 1.491 . S
C7517 C7516 1.400 . S
C7517 C7518 1.398 . S
C7518 H7506 0.950 . S
C7518 C7517 1.398 . S
C7518 C7519 1.391 . S
C7519 H7507 0.950 . S
C7519 C7515 1.393 . S
C7519 C7518 1.391 . S
H7520 C7528 0.950 . S
H7521 C7533 0.950 . S
H7522 C7530 0.950 . S
H7523 C7532 0.950 . S
H7524 C7534 0.950 . S
H7525 C7536 0.950 . S
H7526 C7538 0.950 . S
H7527 C7539 0.950 . S
C7528 H7520 0.950 . S
C7528 C7529 1.386 . S
C7528 C7530 1.391 . S
C7529 C7528 1.386 . S
C7529 C7533 1.393 . S
C7530 H7522 0.950 . S
C7530 C7528 1.391 . S
C7530 C7531 1.400 . S
C7531 C7530 1.400 . S
C7531 C7532 1.398 . S
C7531 C7537 1.491 . S
C7532 H7523 0.950 . S
C7532 C7531 1.398 . S
C7532 C7533 1.391 . S
C7533 H7521 0.950 . S
C7533 C7529 1.393 . S
C7533 C7532 1.391 . S
C7534 H7524 0.950 . S
C7534 C7535 1.386 . S
C7534 C7536 1.391 . S
C7535 C7534 1.386 . S
C7535 C7539 1.393 . S
C7536 H7525 0.950 . S
C7536 C7534 1.391 . S
C7536 C7537 1.400 . S
C7537 C7531 1.491 . S
C7537 C7536 1.400 . S
C7537 C7538 1.398 . S
C7538 H7526 0.950 . S
C7538 C7537 1.398 . S
C7538 C7539 1.391 . S
C7539 H7527 0.950 . S
C7539 C7535 1.393 . S
C7539 C7538 1.391 . S
H7540 C7548 0.950 . S
H7541 C7553 0.950 . S
H7542 C7550 0.950 . S
H7543 C7552 0.950 . S
H7544 C7554 0.950 . S
H7545 C7556 0.950 . S
H7546 C7558 0.950 . S
H7547 C7559 0.950 . S
C7548 H7540 0.950 . S
C7548 C7549 1.386 . S
C7548 C7550 1.391 . S
C7549 C7548 1.386 . S
C7549 C7553 1.393 . S
C7550 H7542 0.950 . S
C7550 C7548 1.391 . S
C7550 C7551 1.400 . S
C7551 C7550 1.400 . S
C7551 C7552 1.398 . S
C7551 C7557 1.491 . S
C7552 H7543 0.950 . S
C7552 C7551 1.398 . S
C7552 C7553 1.391 . S
C7553 H7541 0.950 . S
C7553 C7549 1.393 . S
C7553 C7552 1.391 . S
C7554 H7544 0.950 . S
C7554 C7555 1.386 . S
C7554 C7556 1.391 . S
C7555 C7554 1.386 . S
C7555 C7559 1.393 . S
C7556 H7545 0.950 . S
C7556 C7554 1.391 . S
C7556 C7557 1.400 . S
C7557 C7551 1.491 . S
C7557 C7556 1.400 . S
C7557 C7558 1.398 . S
C7558 H7546 0.950 . S
C7558 C7557 1.398 . S
C7558 C7559 1.391 . S
C7559 H7547 0.950 . S
C7559 C7555 1.393 . S
C7559 C7558 1.391 . S
H7560 C7568 0.950 . S
H7561 C7573 0.950 . S
H7562 C7570 0.950 . S
H7563 C7572 0.950 . S
H7564 C7574 0.950 . S
H7565 C7576 0.950 . S
H7566 C7578 0.950 . S
H7567 C7579 0.950 . S
C7568 H7560 0.950 . S
C7568 C7569 1.386 . S
C7568 C7570 1.391 . S
C7569 C7568 1.386 . S
C7569 C7573 1.393 . S
C7570 H7562 0.950 . S
C7570 C7568 1.391 . S
C7570 C7571 1.400 . S
C7571 C7570 1.400 . S
C7571 C7572 1.398 . S
C7571 C7577 1.491 . S
C7572 H7563 0.950 . S
C7572 C7571 1.398 . S
C7572 C7573 1.391 . S
C7573 H7561 0.950 . S
C7573 C7569 1.393 . S
C7573 C7572 1.391 . S
C7574 H7564 0.950 . S
C7574 C7575 1.386 . S
C7574 C7576 1.391 . S
C7575 C7574 1.386 . S
C7575 C7579 1.393 . S
C7576 H7565 0.950 . S
C7576 C7574 1.391 . S
C7576 C7577 1.400 . S
C7577 C7571 1.491 . S
C7577 C7576 1.400 . S
C7577 C7578 1.398 . S
C7578 H7566 0.950 . S
C7578 C7577 1.398 . S
C7578 C7579 1.391 . S
C7579 H7567 0.950 . S
C7579 C7575 1.393 . S
C7579 C7578 1.391 . S
H7580 C7588 0.950 . S
H7581 C7593 0.950 . S
H7582 C7590 0.950 . S
H7583 C7592 0.950 . S
H7584 C7594 0.950 . S
H7585 C7596 0.950 . S
H7586 C7598 0.950 . S
H7587 C7599 0.950 . S
C7588 H7580 0.950 . S
C7588 C7589 1.386 . S
C7588 C7590 1.391 . S
C7589 C7588 1.386 . S
C7589 C7593 1.393 . S
C7590 H7582 0.950 . S
C7590 C7588 1.391 . S
C7590 C7591 1.400 . S
C7591 C7590 1.400 . S
C7591 C7592 1.398 . S
C7591 C7597 1.491 . S
C7592 H7583 0.950 . S
C7592 C7591 1.398 . S
C7592 C7593 1.391 . S
C7593 H7581 0.950 . S
C7593 C7589 1.393 . S
C7593 C7592 1.391 . S
C7594 H7584 0.950 . S
C7594 C7595 1.386 . S
C7594 C7596 1.391 . S
C7595 C7594 1.386 . S
C7595 C7599 1.393 . S
C7596 H7585 0.950 . S
C7596 C7594 1.391 . S
C7596 C7597 1.400 . S
C7597 C7591 1.491 . S
C7597 C7596 1.400 . S
C7597 C7598 1.398 . S
C7598 H7586 0.950 . S
C7598 C7597 1.398 . S
C7598 C7599 1.391 . S
C7599 H7587 0.950 . S
C7599 C7595 1.393 . S
C7599 C7598 1.391 . S
H7600 C7608 0.950 . S
H7601 C7613 0.950 . S
H7602 C7610 0.950 . S
H7603 C7612 0.950 . S
H7604 C7614 0.950 . S
H7605 C7616 0.950 . S
H7606 C7618 0.950 . S
H7607 C7619 0.950 . S
C7608 H7600 0.950 . S
C7608 C7609 1.386 . S
C7608 C7610 1.391 . S
C7609 C7608 1.386 . S
C7609 C7613 1.393 . S
C7610 H7602 0.950 . S
C7610 C7608 1.391 . S
C7610 C7611 1.400 . S
C7611 C7610 1.400 . S
C7611 C7612 1.398 . S
C7611 C7617 1.491 . S
C7612 H7603 0.950 . S
C7612 C7611 1.398 . S
C7612 C7613 1.391 . S
C7613 H7601 0.950 . S
C7613 C7609 1.393 . S
C7613 C7612 1.391 . S
C7614 H7604 0.950 . S
C7614 C7615 1.386 . S
C7614 C7616 1.391 . S
C7615 C7614 1.386 . S
C7615 C7619 1.393 . S
C7616 H7605 0.950 . S
C7616 C7614 1.391 . S
C7616 C7617 1.400 . S
C7617 C7611 1.491 . S
C7617 C7616 1.400 . S
C7617 C7618 1.398 . S
C7618 H7606 0.950 . S
C7618 C7617 1.398 . S
C7618 C7619 1.391 . S
C7619 H7607 0.950 . S
C7619 C7615 1.393 . S
C7619 C7618 1.391 . S
H7620 C7628 0.950 . S
H7621 C7633 0.950 . S
H7622 C7630 0.950 . S
H7623 C7632 0.950 . S
H7624 C7634 0.950 . S
H7625 C7636 0.950 . S
H7626 C7638 0.950 . S
H7627 C7639 0.950 . S
C7628 H7620 0.950 . S
C7628 C7629 1.386 . S
C7628 C7630 1.391 . S
C7629 C7628 1.386 . S
C7629 C7633 1.393 . S
C7630 H7622 0.950 . S
C7630 C7628 1.391 . S
C7630 C7631 1.400 . S
C7631 C7630 1.400 . S
C7631 C7632 1.398 . S
C7631 C7637 1.491 . S
C7632 H7623 0.950 . S
C7632 C7631 1.398 . S
C7632 C7633 1.391 . S
C7633 H7621 0.950 . S
C7633 C7629 1.393 . S
C7633 C7632 1.391 . S
C7634 H7624 0.950 . S
C7634 C7635 1.386 . S
C7634 C7636 1.391 . S
C7635 C7634 1.386 . S
C7635 C7639 1.393 . S
C7636 H7625 0.950 . S
C7636 C7634 1.391 . S
C7636 C7637 1.400 . S
C7637 C7631 1.491 . S
C7637 C7636 1.400 . S
C7637 C7638 1.398 . S
C7638 H7626 0.950 . S
C7638 C7637 1.398 . S
C7638 C7639 1.391 . S
C7639 H7627 0.950 . S
C7639 C7635 1.393 . S
C7639 C7638 1.391 . S
H7640 C7648 0.950 . S
H7641 C7653 0.950 . S
H7642 C7650 0.950 . S
H7643 C7652 0.950 . S
H7644 C7654 0.950 . S
H7645 C7656 0.950 . S
H7646 C7658 0.950 . S
H7647 C7659 0.950 . S
C7648 H7640 0.950 . S
C7648 C7649 1.386 . S
C7648 C7650 1.391 . S
C7649 C7648 1.386 . S
C7649 C7653 1.393 . S
C7650 H7642 0.950 . S
C7650 C7648 1.391 . S
C7650 C7651 1.400 . S
C7651 C7650 1.400 . S
C7651 C7652 1.398 . S
C7651 C7657 1.491 . S
C7652 H7643 0.950 . S
C7652 C7651 1.398 . S
C7652 C7653 1.391 . S
C7653 H7641 0.950 . S
C7653 C7649 1.393 . S
C7653 C7652 1.391 . S
C7654 H7644 0.950 . S
C7654 C7655 1.386 . S
C7654 C7656 1.391 . S
C7655 C7654 1.386 . S
C7655 C7659 1.393 . S
C7656 H7645 0.950 . S
C7656 C7654 1.391 . S
C7656 C7657 1.400 . S
C7657 C7651 1.491 . S
C7657 C7656 1.400 . S
C7657 C7658 1.398 . S
C7658 H7646 0.950 . S
C7658 C7657 1.398 . S
C7658 C7659 1.391 . S
C7659 H7647 0.950 . S
C7659 C7655 1.393 . S
C7659 C7658 1.391 . S
H7660 C7668 0.950 . S
H7661 C7673 0.950 . S
H7662 C7670 0.950 . S
H7663 C7672 0.950 . S
H7664 C7674 0.950 . S
H7665 C7676 0.950 . S
H7666 C7678 0.950 . S
H7667 C7679 0.950 . S
C7668 H7660 0.950 . S
C7668 C7669 1.386 . S
C7668 C7670 1.391 . S
C7669 C7668 1.386 . S
C7669 C7673 1.393 . S
C7670 H7662 0.950 . S
C7670 C7668 1.391 . S
C7670 C7671 1.400 . S
C7671 C7670 1.400 . S
C7671 C7672 1.398 . S
C7671 C7677 1.491 . S
C7672 H7663 0.950 . S
C7672 C7671 1.398 . S
C7672 C7673 1.391 . S
C7673 H7661 0.950 . S
C7673 C7669 1.393 . S
C7673 C7672 1.391 . S
C7674 H7664 0.950 . S
C7674 C7675 1.386 . S
C7674 C7676 1.391 . S
C7675 C7674 1.386 . S
C7675 C7679 1.393 . S
C7676 H7665 0.950 . S
C7676 C7674 1.391 . S
C7676 C7677 1.400 . S
C7677 C7671 1.491 . S
C7677 C7676 1.400 . S
C7677 C7678 1.398 . S
C7678 H7666 0.950 . S
C7678 C7677 1.398 . S
C7678 C7679 1.391 . S
C7679 H7667 0.950 . S
C7679 C7675 1.393 . S
C7679 C7678 1.391 . S
C1929 C1508 1.309 . S
C1935 C9 1.386 . S
C1949 C488 1.449 1_455 S
C1955 C29 1.517 . S
C1969 C41 1.436 . S
C1975 C1468 1.344 . S
C1989 C69 0.796 . S
C1995 C526 0.818 . S
C2009 C89 0.833 . S
C2015 C1546 0.848 . S
C2029 C608 1.334 . S
C2035 C101 1.408 . S
C2049 C129 1.486 . S
C2055 C1588 1.422 . S
C2069 C149 1.405 . S
C2075 C568 1.332 . S
C2089 C161 1.170 . S
C2095 C1808 1.111 . S
C2109 C868 1.335 . S
C2115 C189 1.396 . S
C2129 C888 1.335 . S
C2135 C209 1.395 . S
C2149 C828 1.304 . S
C2155 C221 1.395 . S
C2169 C249 1.402 . S
C2175 C1888 1.319 . S
C2189 C269 1.394 . S
C2195 C1768 1.343 . S
C2209 C1908 1.343 . S
C2215 C289 1.396 . S
C2229 C301 1.191 . S
C2235 C1868 1.080 . S
C2249 C329 1.405 . S
C2255 C1628 1.340 . S
C2269 C786 0.763 . S
C2275 C349 0.749 . S
C2289 C1688 1.349 . S
C2295 C369 1.407 . S
C2309 C389 1.369 . S
C2315 C748 1.315 . S
C2329 C409 1.160 . S
C2335 C768 1.104 . S
C2349 C429 0.852 . S
C2355 C1666 0.827 . S
C2369 C449 0.640 . S
C2375 C1606 0.668 . S
C2389 C1648 1.289 . S
C2395 C469 1.352 . S
C2409 C481 1.397 . S
C2415 C1039 1.282 . S
C2429 C501 1.510 . S
C2435 C19 1.424 1_655 S
C2449 C529 1.435 . S
C2455 C999 1.345 . S
C2469 C56 0.803 . S
C2475 C541 0.788 . S
C2489 C1076 0.860 . S
C2495 C561 0.844 . S
C2509 C589 1.407 . S
C2515 C139 1.337 . S
C2529 C1119 1.418 . S
C2535 C601 1.477 . S
C2549 C621 1.417 . S
C2555 C99 1.337 . S
C2569 C649 1.172 . S
C2575 C1339 1.098 . S
C2589 C661 1.399 . S
C2595 C399 1.328 . S
C2609 C681 1.392 . S
C2615 C419 1.338 . S
C2629 C359 1.312 . S
C2635 C709 1.393 . S
C2649 C1419 1.304 . S
C2655 C721 1.403 . S
C2669 C741 1.407 . S
C2675 C1299 1.311 . S
C2689 C761 1.411 . S
C2695 C1439 1.322 . S
C2709 C1399 1.081 . S
C2715 C789 1.191 . S
C2729 C801 1.395 . S
C2735 C1159 1.315 . S
C2749 C821 0.752 . S
C2755 C316 0.775 . S
C2769 C1219 1.323 . S
C2775 C841 1.422 . S
C2789 C861 1.383 . S
C2795 C279 1.285 . S
C2809 C881 1.162 . S
C2815 C299 1.120 . S
C2829 C1196 0.864 . S
C2835 C901 0.862 . S
C2849 C1136 0.668 . S
C2855 C921 0.680 . S
C2869 C1179 1.307 . S
C2875 C941 1.360 . S
C2889 C969 1.389 . S
C2895 C548 1.291 . S
C2909 C1448 1.420 . S
C2915 C989 1.516 . S
C2929 C508 1.338 . S
C2935 C1001 1.439 . S
C2949 C1486 0.796 . S
C2955 C1029 0.818 . S
C2969 C1049 0.856 . S
C2975 C586 0.857 . S
C2989 C1061 1.402 . S
C2995 C1568 1.352 1_655 S
C3009 C628 1.396 . S
C3015 C1089 1.492 . S
C3029 C1528 1.334 . S
C3035 C1109 1.419 . S
C3049 C848 1.112 . S
C3055 C1121 1.170 . S
C3069 C1149 1.394 . S
C3075 C1828 1.304 1_556 S
C3089 C1169 1.400 . S
C3095 C1848 1.320 . S
C3109 C1788 1.280 . S
C3115 C1181 1.399 . S
C3129 C928 1.324 . S
C3135 C1209 1.416 . S
C3149 C808 1.321 1_554 S
C3155 C1229 1.410 . S
C3169 C948 1.345 . S
C3175 C1249 1.400 . S
C3189 C908 1.115 . S
C3195 C1261 1.187 . S
C3209 C668 1.341 . S
C3215 C1289 1.403 . S
C3229 C1746 0.771 . S
C3235 C1309 0.783 . S
C3249 C1329 1.406 . S
C3255 C728 1.346 1_565 S
C3269 C1708 1.287 . S
C3275 C1349 1.376 . S
C3289 C1728 1.115 . S
C3295 C1369 1.179 . S
C3309 C1389 0.851 . S
C3315 C706 0.826 . S
C3329 C1409 0.677 . S
C3335 C646 0.656 . S
C3349 C1429 1.371 . S
C3355 C688 1.281 1_565 S
C3369 C1441 1.402 . S
C3375 C79 1.286 . S
C3389 C979 1.421 . S
C3395 C1461 1.518 . S
C3409 C1489 1.440 . S
C3415 C39 1.333 . S
C3429 C1501 0.799 . S
C3435 C1016 0.775 . S
C3449 C1521 0.846 . S
C3455 C116 0.818 . S
C3469 C1099 1.349 1_455 S
C3475 C1549 1.403 . S
C3489 C159 1.419 . S
C3495 C1561 1.477 . S
C3509 C1581 1.423 . S
C3515 C1059 1.316 . S
C3529 C379 1.091 . S
C3535 C1609 1.174 . S
C3549 C1359 1.340 1_554 S
C3555 C1621 1.386 . S
C3569 C1641 1.384 . S
C3575 C1379 1.309 . S
C3589 C1669 1.395 . S
C3595 C1319 1.305 . S
C3609 C1681 1.413 . S
C3615 C459 1.329 . S
C3629 C1701 1.391 . S
C3635 C339 1.332 1_556 S
C3649 C1721 1.394 . S
C3655 C479 1.339 . S
C3669 C439 1.113 . S
C3675 C1749 1.187 . S
C3689 C199 1.311 . S
C3695 C1761 1.396 . S
C3709 C1781 0.768 . S
C3715 C1276 0.745 . S
C3729 C1801 1.420 . S
C3735 C259 1.317 1_545 S
C3749 C1821 1.370 . S
C3755 C1239 1.301 . S
C3769 C1259 1.080 . S
C3775 C1841 1.173 . S
C3789 C236 0.846 . S
C3795 C1861 0.866 . S
C3809 C176 0.668 . S
C3815 C1881 0.640 . S
C3829 C1901 1.371 . S
C3835 C219 1.284 1_545 S
C3849 C6 1.543 1_655 S
C3855 C406 1.553 . S
C3869 C1306 1.131 . S
C3875 C26 1.121 . S
C3889 C48 1.713 . S
C3895 C1326 1.769 . S
C3909 C66 1.407 . S
C3915 C1346 1.397 1_554 S
C3929 C86 1.386 1_655 S
C3935 C1426 1.371 . S
C3949 C108 1.671 . S
C3955 C426 1.714 . S
C3969 C1406 1.316 . S
C3975 C126 1.320 . S
C3989 C326 1.575 1_556 S
C3995 C146 1.578 . S
C4009 C168 2.308 1_565 S
C4015 C308 2.316 . S
C4029 C246 1.467 1_545 S
C4035 C186 1.464 . S
C4049 C206 1.491 1_545 S
C4055 C266 1.520 . S
C4069 C228 1.898 . S
C4075 C286 1.937 1_565 S
C4089 C346 1.130 . S
C4095 C986 1.131 . S
C4109 C366 1.765 . S
C4115 C1008 1.664 1_455 S
C4129 C386 1.395 . S
C4135 C1026 1.394 . S
C4149 C446 1.295 . S
C4155 C1086 1.300 1_455 S
C4169 C1046 1.371 . S
C4175 C466 1.367 . S
C4189 C496 1.554 1_455 S
C4195 C896 1.557 . S
C4209 C516 1.103 . S
C4215 C1796 1.109 . S
C4229 C1816 1.769 . S
C4235 C539 1.714 . S
C4249 C1836 1.406 1_556 S
C4255 C556 1.410 . S
C4269 C576 1.389 1_455 S
C4275 C1916 1.376 . S
C4289 C599 1.661 . S
C4295 C916 1.716 . S
C4309 C1896 1.310 . S
C4315 C616 1.305 . S
C4329 C636 1.579 . S
C4335 C816 1.587 1_554 S
C4349 C799 2.306 . S
C4355 C659 2.316 1_545 S
C4369 C736 1.470 1_565 S
C4375 C676 1.474 . S
C4389 C756 1.520 . S
C4395 C696 1.488 1_565 S
C4409 C719 1.887 . S
C4415 C776 1.928 1_545 S
C4429 C836 1.119 . S
C4435 C1476 1.126 . S
C4449 C1499 1.677 1_655 S
C4455 C856 1.769 . S
C4469 C1516 1.394 . S
C4475 C876 1.390 . S
C4489 C936 1.317 . S
C4495 C1576 1.316 1_655 S
C4509 C1536 1.387 . S
C4515 C956 1.375 . S
C4529 C1366 1.550 . S
C4535 C966 1.540 . S
C4549 C1386 1.723 . S
C4555 C1068 1.661 . S
C4569 C1286 1.574 . S
C4575 C1106 1.568 . S
C4589 C1128 2.316 . S
C4595 C1268 2.306 . S
C4609 C1146 1.465 . S
C4615 C1206 1.456 . S
C4629 C1226 1.519 . S
C4635 C1166 1.520 . S
C4649 C1246 1.931 . S
C4655 C1188 1.884 . S
C4669 C1456 1.535 . S
C4675 C1856 1.543 . S
C4689 C1876 1.726 . S
C4695 C1559 1.666 . S
C4709 C1596 1.574 . S
C4715 C1776 1.583 . S
C4729 C1619 2.316 . S
C4735 C1759 2.306 . S
C4749 C1696 1.469 . S
C4755 C1636 1.466 . S
C4769 C1716 1.513 . S
C4775 C1656 1.509 . S
C4789 C1679 1.896 . S
C4795 C1736 1.938 . S
C4809 C16 0.740 . S
C4815 C869 0.760 . S
C4829 C889 0.746 . S
C4835 C36 0.759 . S
C4849 C829 1.488 1_556 S
C4855 C59 1.390 . S
C4869 C1809 0.878 . S
C4875 C76 0.846 . S
C4889 C96 0.831 . S
C4895 C1869 0.804 1_554 S
C4909 C1889 1.222 . S
C4915 C119 1.129 . S
C4929 C136 0.762 . S
C4935 C1769 0.778 . S
C4949 C1909 0.804 . S
C4955 C156 0.777 . S
C4969 C521 1.086 . S
C4975 C179 1.008 . S
C4989 C1509 0.750 . S
C4995 C196 0.753 . S
C5009 C216 0.771 . S
C5015 C489 0.784 . S
C5029 C1469 1.489 . S
C5035 C239 1.383 . S
C5049 C256 0.913 . S
C5055 C609 0.944 . S
C5069 C276 0.776 . S
C5075 C1589 0.804 . S
C5089 C296 0.800 . S
C5095 C569 0.850 . S
C5109 C319 1.031 . S
C5115 C1541 1.115 . S
C5129 C336 0.836 . S
C5135 C1689 0.846 . S
C5149 C641 0.668 . S
C5155 C356 0.671 . S
C5169 C1629 0.747 . S
C5175 C376 0.729 . S
C5189 C396 0.741 . S
C5195 C689 0.761 . S
C5209 C416 0.771 . S
C5215 C701 0.772 . S
C5229 C436 0.707 . S
C5235 C1729 0.679 . S
C5249 C456 0.723 . S
C5255 C1741 0.731 . S
C5269 C476 0.753 . S
C5275 C1709 0.747 . S
C5289 C381 0.754 . S
C5295 C486 0.751 . S
C5309 C506 0.758 . S
C5315 C401 0.737 . S
C5329 C341 1.499 1_554 S
C5335 C528 1.407 . S
C5349 C546 0.838 . S
C5355 C1321 0.868 . S
C5369 C566 0.808 . S
C5375 C1381 0.794 1_556 S
C5389 C1401 1.235 . S
C5395 C588 1.161 . S
C5409 C1281 0.753 . S
C5415 C606 0.744 . S
C5429 C626 0.822 . S
C5435 C1421 0.829 . S
C5449 C49 1.086 . S
C5455 C648 1.016 . S
C5469 C666 0.715 . S
C5475 C1021 0.711 . S
C5489 C686 0.787 . S
C5495 C1 0.790 . S
C5509 C981 1.492 . S
C5515 C708 1.398 . S
C5529 C121 0.944 . S
C5535 C726 0.907 . S
C5549 C746 0.833 . S
C5555 C1101 0.829 . S
C5569 C766 0.780 . S
C5575 C81 0.800 . S
C5589 C1069 1.134 . S
C5595 C788 1.072 . S
C5609 C806 0.787 . S
C5615 C1201 0.817 . S
C5629 C826 0.706 . S
C5635 C169 0.696 . S
C5649 C1141 0.775 . S
C5655 C846 0.790 . S
C5669 C866 0.741 . S
C5675 C201 0.760 . S
C5689 C229 0.800 . S
C5695 C886 0.802 . S
C5709 C906 0.659 . S
C5715 C1241 0.663 . S
C5729 C1269 0.782 . S
C5735 C926 0.788 . S
C5749 C1221 0.719 . S
C5755 C946 0.705 . S
C5769 C1829 0.761 . S
C5775 C976 0.770 . S
C5789 C1849 0.715 . S
C5795 C996 0.725 . S
C5809 C1019 1.405 . S
C5815 C1789 1.495 . S
C5829 C1036 0.872 . S
C5835 C849 0.889 . S
C5849 C1056 0.857 . S
C5855 C909 0.857 . S
C5869 C1079 1.137 . S
C5875 C929 1.232 . S
C5889 C809 0.758 . S
C5895 C1096 0.761 . S
C5909 C949 0.795 . S
C5915 C1116 0.780 . S
C5929 C1139 1.029 . S
C5935 C1481 1.094 . S
C5949 C1156 0.758 . S
C5955 C549 0.752 . S
C5969 C1176 0.761 . S
C5975 C1449 0.782 . S
C5989 C1199 1.391 . S
C5995 C509 1.486 . S
C6009 C1216 0.924 . S
C6015 C1569 0.947 . S
C6029 C1236 0.775 . S
C6035 C629 0.803 . S
C6049 C1256 0.755 . S
C6055 C1529 0.775 . S
C6069 C1279 1.035 . S
C6075 C581 1.114 . S
C6089 C729 0.846 . S
C6095 C1296 0.837 . S
C6109 C1601 0.710 . S
C6115 C1316 0.724 . S
C6129 C669 0.782 . S
C6135 C1336 0.786 . S
C6149 C1649 0.758 . S
C6155 C1356 0.743 . S
C6169 C1376 0.802 . S
C6175 C1661 0.800 . S
C6189 C1396 0.686 . S
C6195 C769 0.668 . S
C6209 C1416 0.735 . S
C6215 C781 0.740 . S
C6229 C1436 0.754 . S
C6235 C749 0.734 . S
C6249 C1341 0.772 . S
C6255 C1446 0.787 . S
C6269 C1361 0.712 . S
C6275 C1466 0.716 . S
C6289 C1488 1.387 . S
C6295 C1301 1.493 . S
C6309 C1506 0.875 . S
C6315 C361 0.889 . S
C6329 C421 0.856 . S
C6335 C1526 0.856 . S
C6349 C1548 1.123 . S
C6355 C441 1.223 . S
C6369 C321 0.764 . S
C6375 C1566 0.743 . S
C6389 C461 0.796 . S
C6395 C1586 0.774 . S
C6409 C1608 1.020 . S
C6415 C1009 1.088 . S
C6429 C1626 0.706 . S
C6435 C61 0.708 . S
C6449 C1646 0.810 . S
C6455 C961 0.804 . S
C6469 C1668 1.366 . S
C6475 C21 1.483 . S
C6489 C1081 0.968 . S
C6495 C1686 0.947 . S
C6509 C141 0.822 . S
C6515 C1706 0.825 . S
C6529 C1041 0.777 . S
C6535 C1726 0.755 . S
C6549 C1748 1.035 . S
C6555 C109 1.115 . S
C6569 C241 0.810 . S
C6575 C1766 0.790 . S
C6589 C1786 0.672 . S
C6595 C1129 0.669 . S
C6609 C1806 0.784 . S
C6615 C181 0.781 . S
C6629 C1161 0.789 . S
C6635 C1826 0.801 . S
C6649 C1846 0.760 . S
C6655 C1189 0.763 . S
C6669 C1866 0.697 . S
C6675 C281 0.688 . S
C6689 C309 0.732 . S
C6695 C1886 0.724 . S
C6709 C1906 0.714 . S
C6715 C261 0.711 . S
C6729 C8 1.702 . S
C6735 C188 1.724 . S
C6749 C208 1.741 . S
C6755 C28 1.720 . S
C6769 C46 1.302 . S
C6775 C226 1.298 . S
C6789 C166 1.639 . S
C6795 C68 1.656 . S
C6809 C306 1.709 . S
C6815 C88 1.730 . S
C6829 C248 1.500 . S
C6835 C106 1.496 . S
C6849 C128 1.630 . S
C6855 C268 1.641 . S
C6869 C148 1.737 . S
C6875 C288 1.733 . S
C6889 C328 1.675 . S
C6895 C368 1.680 . S
C6909 C1408 2.237 . S
C6915 C348 2.232 . S
C6929 C388 1.625 . S
C6935 C1428 1.630 . S
C6949 C1388 1.868 . S
C6955 C408 1.852 . S
C6969 C1368 1.874 . S
C6975 C428 1.878 . S
C6989 C448 2.232 . S
C6995 C1308 2.242 . S
C7009 C468 1.642 . S
C7015 C1348 1.631 . S
C7029 C679 1.738 . S
C7035 C499 1.716 . S
C7049 C519 1.741 . S
C7055 C699 1.756 . S
C7069 C536 1.317 . S
C7075 C716 1.315 . S
C7089 C656 1.624 . S
C7095 C559 1.634 . S
C7109 C796 1.706 . S
C7115 C579 1.733 . S
C7129 C739 1.483 . S
C7135 C596 1.468 . S
C7149 C759 1.641 . S
C7155 C619 1.632 . S
C7169 C779 1.721 . S
C7175 C639 1.719 . S
C7189 C859 1.673 . S
C7195 C819 1.685 . S
C7209 C839 2.226 . S
C7215 C1899 2.219 . S
C7229 C879 1.628 . S
C7235 C1919 1.638 . S
C7249 C899 1.857 . S
C7255 C1879 1.881 . S
C7269 C1859 1.854 . S
C7275 C919 1.866 . S
C7289 C1799 2.232 . S
C7295 C939 2.237 . S
C7309 C1839 1.626 . S
C7315 C959 1.635 . S
C7329 C968 1.717 . S
C7335 C1148 1.738 . S
C7349 C988 1.723 . S
C7355 C1168 1.747 . S
C7369 C1006 1.289 . S
C7375 C1186 1.287 . S
C7389 C1028 1.634 . S
C7395 C1126 1.623 . S
C7409 C1266 1.707 . S
C7415 C1048 1.735 . S
C7429 C1066 1.466 . S
C7435 C1208 1.481 . S
C7449 C1228 1.618 . S
C7455 C1088 1.625 . S
C7469 C1248 1.732 . S
C7475 C1108 1.736 . S
C7489 C1328 1.693 . S
C7495 C1288 1.699 . S
C7509 C1459 1.723 . S
C7515 C1639 1.739 . S
C7529 C1659 1.732 . S
C7535 C1479 1.729 . S
C7549 C1496 1.292 . S
C7555 C1676 1.290 . S
C7569 C1616 1.610 . S
C7575 C1519 1.629 . S
C7589 C1539 1.752 . S
C7595 C1756 1.725 . S
C7609 C1699 1.506 . S
C7615 C1556 1.498 . S
C7629 C1579 1.634 . S
C7635 C1719 1.640 . S
C7649 C1599 1.736 . S
C7655 C1739 1.731 . S
C7669 C1779 1.685 . S
C7675 C1819 1.695 . S
