# Generated by pormake.
# Topology upa, (4)-cn, num edge types: 1
# Building blocks:
#     Node 0, Type 0, BuildingBlock: GALJAG_clean_sbu_0, # of connection points: 4
#     Node 1, Type 0, BuildingBlock: GALJAG_clean_sbu_0, # of connection points: 4
#     Node 2, Type 0, BuildingBlock: GALJAG_clean_sbu_0, # of connection points: 4
#     Node 3, Type 0, BuildingBlock: GALJAG_clean_sbu_0, # of connection points: 4
#     Node 4, Type 0, BuildingBlock: GALJAG_clean_sbu_0, # of connection points: 4
#     Node 5, Type 0, BuildingBlock: GALJAG_clean_sbu_0, # of connection points: 4
#     Node 6, Type 0, BuildingBlock: GALJAG_clean_sbu_0, # of connection points: 4
#     Node 7, Type 0, BuildingBlock: GALJAG_clean_sbu_0, # of connection points: 4
#     Edge 8, Type (0, 0), BuildingBlock: AJUNOK_clean_linker_0, # of connection points: 2
#     Edge 9, Type (0, 0), BuildingBlock: AJUNOK_clean_linker_0, # of connection points: 2
#     Edge 10, Type (0, 0), BuildingBlock: AJUNOK_clean_linker_0, # of connection points: 2
#     Edge 11, Type (0, 0), BuildingBlock: AJUNOK_clean_linker_0, # of connection points: 2
#     Edge 12, Type (0, 0), BuildingBlock: AJUNOK_clean_linker_0, # of connection points: 2
#     Edge 13, Type (0, 0), BuildingBlock: AJUNOK_clean_linker_0, # of connection points: 2
#     Edge 14, Type (0, 0), BuildingBlock: AJUNOK_clean_linker_0, # of connection points: 2
#     Edge 15, Type (0, 0), BuildingBlock: AJUNOK_clean_linker_0, # of connection points: 2
#     Edge 16, Type (0, 0), BuildingBlock: AJUNOK_clean_linker_0, # of connection points: 2
#     Edge 17, Type (0, 0), BuildingBlock: AJUNOK_clean_linker_0, # of connection points: 2
#     Edge 18, Type (0, 0), BuildingBlock: AJUNOK_clean_linker_0, # of connection points: 2
#     Edge 19, Type (0, 0), BuildingBlock: AJUNOK_clean_linker_0, # of connection points: 2
#     Edge 20, Type (0, 0), BuildingBlock: AJUNOK_clean_linker_0, # of connection points: 2
#     Edge 21, Type (0, 0), BuildingBlock: AJUNOK_clean_linker_0, # of connection points: 2
#     Edge 22, Type (0, 0), BuildingBlock: AJUNOK_clean_linker_0, # of connection points: 2
#     Edge 23, Type (0, 0), BuildingBlock: AJUNOK_clean_linker_0, # of connection points: 2
# Relax obj value: 0.230
# Max RMSD: 0.125
# Mean RMSD: 0.125
data_MOF--net-upa--node1-GALJAG_clean_sbu_0--edge1-AJUNOK_clean_linker_0
_symmetry_space_group_name_H-M    P1
_symmetry_Int_Tables_number       1
_symmetry_cell_setting            triclinic
loop_
_symmetry_equiv_pos_as_xyz
'x, y, z'
_cell_length_a     19.612686
_cell_length_b     19.566251
_cell_length_c     31.3011
_cell_angle_alpha  89.99062
_cell_angle_beta   90.050456
_cell_angle_gamma 90.028317
loop_
_atom_site_label
_atom_site_type_symbol
_atom_site_fract_x
_atom_site_fract_y
_atom_site_fract_z
_atom_type_partial_charge
In0 In 0.20252 0.21051 0.33055 0.0
O1 O 0.20831 0.27951 0.38937 0.0
O2 O 0.24668 0.17801 0.39435 0.0
C3 C 0.10924 0.26913 0.27878 0.0
C4 C 0.32703 0.21425 0.2932 0.0
C5 C 0.11208 0.11053 0.34408 0.0
O6 O 0.12912 0.2977 0.31288 0.0
O7 O 0.14302 0.21673 0.26855 0.0
O8 O 0.16894 0.09849 0.32637 0.0
O9 O 0.10397 0.17082 0.35715 0.0
C10 C 0.235 0.23412 0.41285 0.0
O11 O 0.29215 0.16001 0.29539 0.0
O12 O 0.29786 0.26664 0.30817 0.0
In13 In 0.30005 0.69783 0.83331 0.0
O14 O 0.34612 0.79297 0.80171 0.0
O15 O 0.23833 0.78828 0.80882 0.0
C16 C 0.40283 0.61104 0.84692 0.0
C17 C 0.2757 0.73019 0.91539 0.0
C18 C 0.25034 0.60215 0.77991 0.0
O19 O 0.41264 0.66789 0.82843 0.0
O20 O 0.34336 0.60137 0.8608 0.0
O21 O 0.21917 0.61843 0.81388 0.0
O22 O 0.29954 0.64096 0.77052 0.0
C23 C 0.28948 0.82301 0.79714 0.0
O24 O 0.23164 0.69985 0.89261 0.0
O25 O 0.33058 0.74463 0.89641 0.0
In26 In 0.80848 0.80658 0.3311 0.0
O27 O 0.71658 0.85236 0.29583 0.0
O28 O 0.71522 0.74599 0.31022 0.0
C29 C 0.89382 0.91132 0.34435 0.0
C30 C 0.77569 0.78388 0.41329 0.0
C31 C 0.90324 0.75206 0.27909 0.0
O32 O 0.83743 0.91952 0.3252 0.0
O33 O 0.90419 0.85201 0.35857 0.0
O34 O 0.88633 0.72306 0.31366 0.0
O35 O 0.86574 0.80168 0.2686 0.0
C36 C 0.68367 0.79681 0.29498 0.0
O37 O 0.80588 0.73932 0.39086 0.0
O38 O 0.7616 0.83869 0.39392 0.0
In39 In 0.71498 0.31653 0.83487 0.0
O40 O 0.6706 0.21926 0.80498 0.0
O41 O 0.77842 0.22795 0.80922 0.0
C42 C 0.60764 0.39833 0.84781 0.0
C43 C 0.74279 0.28894 0.91731 0.0
C44 C 0.76312 0.41337 0.78172 0.0
O45 O 0.60153 0.34186 0.82834 0.0
O46 O 0.66616 0.41039 0.86258 0.0
O47 O 0.79515 0.39649 0.81525 0.0
O48 O 0.71341 0.37507 0.77263 0.0
C49 C 0.72787 0.19137 0.7988 0.0
O50 O 0.78466 0.3201 0.89348 0.0
O51 O 0.68858 0.27011 0.89903 0.0
In52 In 0.70274 0.30576 0.18418 0.0
O53 O 0.79817 0.35468 0.21357 0.0
O54 O 0.79597 0.24654 0.20769 0.0
C55 C 0.61923 0.41412 0.17926 0.0
C56 C 0.73629 0.28672 0.10183 0.0
C57 C 0.60436 0.23986 0.22867 0.0
O58 O 0.65925 0.40553 0.21046 0.0
O59 O 0.62589 0.37171 0.14933 0.0
O60 O 0.6199 0.2226 0.19098 0.0
O61 O 0.64396 0.28344 0.24495 0.0
C62 C 0.82966 0.29894 0.21842 0.0
O63 O 0.7073 0.24049 0.12368 0.0
O64 O 0.74853 0.34144 0.12187 0.0
In65 In 0.21716 0.19773 0.67929 0.0
O66 O 0.17136 0.293 0.71079 0.0
O67 O 0.27916 0.28793 0.70398 0.0
C68 C 0.11401 0.11103 0.66612 0.0
C69 C 0.24148 0.22999 0.59716 0.0
C70 C 0.26721 0.10225 0.73271 0.0
O71 O 0.10446 0.16801 0.68446 0.0
O72 O 0.17338 0.10115 0.65216 0.0
O73 O 0.29811 0.1184 0.69861 0.0
O74 O 0.21807 0.14105 0.74215 0.0
C75 C 0.2281 0.32281 0.71558 0.0
O76 O 0.28525 0.19904 0.61981 0.0
O77 O 0.18691 0.24508 0.61627 0.0
In78 In 0.30788 0.70769 0.18224 0.0
O79 O 0.20804 0.66339 0.20872 0.0
O80 O 0.21959 0.77129 0.20781 0.0
C81 C 0.3864 0.59554 0.17714 0.0
C82 C 0.27876 0.73343 0.09984 0.0
C83 C 0.40761 0.76766 0.22883 0.0
O84 O 0.34444 0.60417 0.20728 0.0
O85 O 0.38386 0.6401 0.14818 0.0
O86 O 0.39403 0.78667 0.19116 0.0
O87 O 0.36581 0.72516 0.24397 0.0
C88 C 0.18137 0.72096 0.21605 0.0
O89 O 0.3093 0.77643 0.12333 0.0
O90 O 0.26181 0.67864 0.11841 0.0
In91 In 0.80177 0.8164 0.67976 0.0
O92 O 0.84639 0.71927 0.7097 0.0
O93 O 0.73855 0.72797 0.70584 0.0
C94 C 0.90904 0.89822 0.66637 0.0
C95 C 0.77336 0.78709 0.59762 0.0
C96 C 0.75381 0.91369 0.73262 0.0
O97 O 0.91512 0.84208 0.68622 0.0
O98 O 0.85055 0.90992 0.65143 0.0
O99 O 0.72201 0.89694 0.69897 0.0
O100 O 0.8032 0.87515 0.74193 0.0
C101 C 0.78914 0.69139 0.71607 0.0
O102 O 0.73117 0.81765 0.62151 0.0
O103 O 0.82834 0.77007 0.61567 0.0
C104 C 0.06944 0.99088 0.35022 0.0
C105 C 0.0559 0.06076 0.34549 0.0
C106 C 0.01614 0.94327 0.35102 0.0
C107 C 0.94768 0.96383 0.34604 0.0
H108 H 0.12143 0.97294 0.35357 0.0
H109 H 0.02892 0.88969 0.35454 0.0
S110 S 0.8861 0.141 0.32997 0.0
N111 N 0.96963 0.14853 0.33462 0.0
N112 N 0.86965 0.05858 0.3349 0.0
C113 C 0.93364 0.03354 0.3406 0.0
C114 C 0.98776 0.08216 0.34068 0.0
C115 C 0.52346 0.57203 0.8524 0.0
C116 C 0.4541 0.55628 0.84826 0.0
C117 C 0.57246 0.52005 0.85335 0.0
C118 C 0.55381 0.45078 0.84905 0.0
H119 H 0.5399 0.62471 0.85526 0.0
H120 H 0.62557 0.53447 0.8565 0.0
S121 S 0.37874 0.38353 0.83441 0.0
N122 N 0.36887 0.46706 0.83861 0.0
N123 N 0.4615 0.36959 0.83886 0.0
C124 C 0.48467 0.43454 0.84399 0.0
C125 C 0.43463 0.4873 0.84403 0.0
C126 C 0.53552 0.48769 0.14128 0.0
C127 C 0.56183 0.46255 0.17995 0.0
C128 C 0.47724 0.52893 0.1406 0.0
C129 C 0.44211 0.54495 0.17846 0.0
H130 H 0.5604 0.47569 0.11131 0.0
H131 H 0.45977 0.54871 0.11017 0.0
S132 S 0.48792 0.48775 0.2878 0.0
N133 N 0.54742 0.4544 0.2569 0.0
N134 N 0.43678 0.53075 0.25562 0.0
C135 C 0.46697 0.51871 0.21728 0.0
C136 C 0.52725 0.47793 0.21805 0.0
C137 C 0.9934 0.07186 0.66029 0.0
C138 C 0.06267 0.05628 0.66515 0.0
C139 C 0.94439 0.01982 0.65958 0.0
C140 C 0.96292 0.95069 0.66484 0.0
H141 H 0.97708 0.12444 0.65667 0.0
H142 H 0.89135 0.03411 0.65585 0.0
S143 S 0.13768 0.88405 0.68166 0.0
N144 N 0.14766 0.96745 0.67654 0.0
N145 N 0.05502 0.86991 0.67671 0.0
C146 C 0.03196 0.93467 0.67062 0.0
C147 C 0.08202 0.98746 0.67035 0.0
C148 C 0.28683 0.19575 0.48172 0.0
C149 C 0.24522 0.24238 0.45944 0.0
C150 C 0.28919 0.19518 0.52651 0.0
C151 C 0.24903 0.2404 0.55061 0.0
H152 H 0.31601 0.15773 0.46447 0.0
H153 H 0.31959 0.15644 0.54229 0.0
S154 S 0.1372 0.37725 0.50788 0.0
N155 N 0.16785 0.33907 0.46496 0.0
N156 N 0.1712 0.33704 0.5491 0.0
C157 C 0.21017 0.28973 0.52878 0.0
C158 C 0.20859 0.29102 0.48318 0.0
C159 C 0.22515 0.69738 0.98568 0.0
C160 C 0.26795 0.74066 0.96194 0.0
C161 C 0.22659 0.69777 0.03048 0.0
C162 C 0.27004 0.74222 0.05315 0.0
H163 H 0.19315 0.66023 0.96964 0.0
H164 H 0.19516 0.6612 0.04744 0.0
S165 S 0.38541 0.87196 1.0057 0.0
N166 N 0.35031 0.83353 0.96419 0.0
N167 N 0.35214 0.83511 0.04833 0.0
C168 C 0.30951 0.78908 0.02975 0.0
C169 C 0.30873 0.78802 0.98414 0.0
C170 C 0.80682 0.73376 0.52834 0.0
C171 C 0.76369 0.77836 0.55103 0.0
C172 C 0.80711 0.73245 0.48356 0.0
C173 C 0.76508 0.77654 0.45984 0.0
H174 H 0.84253 0.70131 0.54526 0.0
H175 H 0.84329 0.69945 0.46752 0.0
S176 S 0.63723 0.89733 0.50372 0.0
N177 N 0.67318 0.86294 0.54632 0.0
N178 N 0.67456 0.86135 0.46216 0.0
C179 C 0.71889 0.81848 0.48207 0.0
C180 C 0.71791 0.81912 0.52768 0.0
C181 C 0.71259 0.23331 0.98649 0.0
C182 C 0.75169 0.28178 0.96404 0.0
C183 C 0.71121 0.23244 0.03128 0.0
C184 C 0.74792 0.28084 0.05524 0.0
H185 H 0.68095 0.19714 0.96932 0.0
H186 H 0.67834 0.19585 0.0471 0.0
S187 S 0.8628 0.41481 0.01187 0.0
N188 N 0.83206 0.37604 0.96915 0.0
N189 N 0.82867 0.37526 0.05327 0.0
C190 C 0.78992 0.32739 0.03321 0.0
C191 C 0.79207 0.32761 0.98761 0.0
C192 C 0.51 0.27211 0.2779 0.0
C193 C 0.53659 0.22542 0.24798 0.0
C194 C 0.4423 0.26805 0.29188 0.0
C195 C 0.39845 0.21611 0.27741 0.0
H196 H 0.54088 0.31412 0.28949 0.0
H197 H 0.42421 0.30618 0.31426 0.0
S198 S 0.4437 0.07815 0.20118 0.0
N199 N 0.51408 0.12417 0.20527 0.0
N200 N 0.38729 0.11475 0.233 0.0
C201 C 0.42488 0.16732 0.2488 0.0
C202 C 0.49374 0.17242 0.23372 0.0
C203 C 0.3398 0.9277 0.76236 0.0
C204 C 0.28383 0.89486 0.78181 0.0
C205 C 0.33528 0.99569 0.74781 0.0
C206 C 0.27522 0.03405 0.75319 0.0
H207 H 0.38716 0.90029 0.75761 0.0
H208 H 0.37884 0.01808 0.73179 0.0
S209 S 0.11391 0.97194 0.8021 0.0
N210 N 0.16627 0.90618 0.80536 0.0
N211 N 0.15824 0.03356 0.77925 0.0
C212 C 0.21935 1.00212 0.77337 0.0
C213 C 0.2235 0.9327 0.7873 0.0
C214 C 0.58725 0.83585 0.24782 0.0
C215 C 0.61199 0.79225 0.28007 0.0
C216 C 0.51995 0.82991 0.23251 0.0
C217 C 0.47446 0.78141 0.24973 0.0
H218 H 0.62074 0.87334 0.23338 0.0
H219 H 0.50398 0.86247 0.20636 0.0
S220 S 0.51269 0.66046 0.3382 0.0
N221 N 0.58473 0.7023 0.33069 0.0
N222 N 0.45841 0.69226 0.30315 0.0
C223 C 0.49794 0.73995 0.28354 0.0
C224 C 0.56664 0.74501 0.29834 0.0
C225 C 0.67773 0.08434 0.76691 0.0
C226 C 0.73495 0.12013 0.78265 0.0
C227 C 0.68334 0.01681 0.75174 0.0
C228 C 0.74599 0.98195 0.7528 0.0
H229 H 0.62831 0.10896 0.76572 0.0
H230 H 0.63845 0.99189 0.73889 0.0
S231 S 0.91175 0.053 0.78964 0.0
N232 N 0.85671 0.11558 0.79726 0.0
N233 N 0.86692 0.98906 0.76981 0.0
C234 C 0.80343 0.01697 0.76879 0.0
C235 C 0.79801 0.0859 0.78341 0.0
C236 C 0.0083 0.23012 0.23686 0.0
C237 C 0.04142 0.28303 0.25932 0.0
C238 C 0.93997 0.2358 0.22422 0.0
C239 C 0.90191 0.29511 0.23272 0.0
H240 H 0.03439 0.18242 0.23047 0.0
H241 H 0.91677 0.19302 0.20772 0.0
S242 S 0.96538 0.45019 0.28843 0.0
N243 N 0.03127 0.39761 0.28853 0.0
N244 N 0.90328 0.40929 0.2635 0.0
C245 C 0.93487 0.34947 0.25387 0.0
C246 C 1.00441 0.34318 0.26747 0.0
C247 C 0.17737 0.42811 0.74933 0.0
C248 C 0.23394 0.39457 0.73109 0.0
C249 C 0.18193 0.49611 0.76386 0.0
C250 C 0.24268 0.53376 0.75966 0.0
H251 H 0.12941 0.4013 0.75306 0.0
H252 H 0.13779 0.5191 0.77886 0.0
S253 S 0.40599 0.46948 0.71471 0.0
N254 N 0.35299 0.40435 0.71031 0.0
N255 N 0.36112 0.53174 0.73638 0.0
C256 C 0.29929 0.50107 0.74086 0.0
C257 C 0.29506 0.43164 0.72695 0.0
C258 C 0.0726 0.67215 0.24624 0.0
C259 C 0.10987 0.72895 0.23117 0.0
C260 C 1.00497 0.67904 0.26076 0.0
C261 C 0.97154 0.74258 0.25954 0.0
H262 H 0.09619 0.62215 0.24753 0.0
H263 H 0.97885 0.63451 0.27322 0.0
S264 S 0.04672 0.90753 0.22409 0.0
N265 N 0.1082 0.85116 0.21694 0.0
N266 N 0.98153 0.86375 0.24304 0.0
C267 C 0.00804 0.79953 0.24412 0.0
C268 C 0.07703 0.79283 0.23025 0.0
C269 C 0.83365 0.51661 0.76278 0.0
C270 C 0.77102 0.48165 0.76155 0.0
C271 C 0.83928 0.58425 0.74779 0.0
C272 C 0.78209 0.62005 0.73206 0.0
H273 H 0.8785 0.4917 0.77566 0.0
H274 H 0.88867 0.60895 0.74911 0.0
S275 S 0.6054 0.55261 0.72448 0.0
N276 N 0.65017 0.48863 0.74426 0.0
N277 N 0.66042 0.61535 0.71715 0.0
C278 C 0.71907 0.58569 0.73107 0.0
C279 C 0.71363 0.51666 0.74551 0.0
loop_
_geom_bond_atom_site_label_1
_geom_bond_atom_site_label_2
_geom_bond_distance
_geom_bond_site_symmetry_2
_ccdc_geom_bond_type
In0 O1 2.294 . S
In0 O2 2.326 . S
In0 O6 2.266 . S
In0 O7 2.326 . S
In0 O8 2.266 . S
In0 O9 2.326 . S
In0 O11 2.294 . S
In0 O12 2.326 . S
O1 In0 2.294 . S
O1 C10 1.240 . S
O2 In0 2.326 . S
O2 C10 1.252 . S
C3 O6 1.252 . S
C3 O7 1.260 . S
C4 O11 1.240 . S
C4 O12 1.252 . S
C5 O8 1.252 . S
C5 O9 1.260 . S
O6 In0 2.266 . S
O6 C3 1.252 . S
O7 In0 2.326 . S
O7 C3 1.260 . S
O8 In0 2.266 . S
O8 C5 1.252 . S
O9 In0 2.326 . S
O9 C5 1.260 . S
C10 O1 1.240 . S
C10 O2 1.252 . S
O11 In0 2.294 . S
O11 C4 1.240 . S
O12 In0 2.326 . S
O12 C4 1.252 . S
In13 O14 2.294 . S
In13 O15 2.326 . S
In13 O19 2.266 . S
In13 O20 2.326 . S
In13 O21 2.266 . S
In13 O22 2.326 . S
In13 O24 2.294 . S
In13 O25 2.326 . S
O14 In13 2.294 . S
O14 C23 1.240 . S
O15 In13 2.326 . S
O15 C23 1.252 . S
C16 O19 1.252 . S
C16 O20 1.260 . S
C17 O24 1.240 . S
C17 O25 1.252 . S
C18 O21 1.252 . S
C18 O22 1.260 . S
O19 In13 2.266 . S
O19 C16 1.252 . S
O20 In13 2.326 . S
O20 C16 1.260 . S
O21 In13 2.266 . S
O21 C18 1.252 . S
O22 In13 2.326 . S
O22 C18 1.260 . S
C23 O14 1.240 . S
C23 O15 1.252 . S
O24 In13 2.294 . S
O24 C17 1.240 . S
O25 In13 2.326 . S
O25 C17 1.252 . S
In26 O27 2.294 . S
In26 O28 2.326 . S
In26 O32 2.266 . S
In26 O33 2.326 . S
In26 O34 2.266 . S
In26 O35 2.326 . S
In26 O37 2.294 . S
In26 O38 2.326 . S
O27 In26 2.294 . S
O27 C36 1.240 . S
O28 In26 2.326 . S
O28 C36 1.252 . S
C29 O32 1.252 . S
C29 O33 1.260 . S
C30 O37 1.240 . S
C30 O38 1.252 . S
C31 O34 1.252 . S
C31 O35 1.260 . S
O32 In26 2.266 . S
O32 C29 1.252 . S
O33 In26 2.326 . S
O33 C29 1.260 . S
O34 In26 2.266 . S
O34 C31 1.252 . S
O35 In26 2.326 . S
O35 C31 1.260 . S
C36 O27 1.240 . S
C36 O28 1.252 . S
O37 In26 2.294 . S
O37 C30 1.240 . S
O38 In26 2.326 . S
O38 C30 1.252 . S
In39 O40 2.294 . S
In39 O41 2.326 . S
In39 O45 2.266 . S
In39 O46 2.326 . S
In39 O47 2.266 . S
In39 O48 2.326 . S
In39 O50 2.294 . S
In39 O51 2.326 . S
O40 In39 2.294 . S
O40 C49 1.240 . S
O41 In39 2.326 . S
O41 C49 1.252 . S
C42 O45 1.252 . S
C42 O46 1.260 . S
C43 O50 1.240 . S
C43 O51 1.252 . S
C44 O47 1.252 . S
C44 O48 1.260 . S
O45 In39 2.266 . S
O45 C42 1.252 . S
O46 In39 2.326 . S
O46 C42 1.260 . S
O47 In39 2.266 . S
O47 C44 1.252 . S
O48 In39 2.326 . S
O48 C44 1.260 . S
C49 O40 1.240 . S
C49 O41 1.252 . S
O50 In39 2.294 . S
O50 C43 1.240 . S
O51 In39 2.326 . S
O51 C43 1.252 . S
In52 O53 2.294 . S
In52 O54 2.326 . S
In52 O58 2.266 . S
In52 O59 2.326 . S
In52 O60 2.266 . S
In52 O61 2.326 . S
In52 O63 2.294 . S
In52 O64 2.326 . S
O53 In52 2.294 . S
O53 C62 1.240 . S
O54 In52 2.326 . S
O54 C62 1.252 . S
C55 O58 1.252 . S
C55 O59 1.260 . S
C56 O63 1.240 . S
C56 O64 1.252 . S
C57 O60 1.252 . S
C57 O61 1.260 . S
O58 In52 2.266 . S
O58 C55 1.252 . S
O59 In52 2.326 . S
O59 C55 1.260 . S
O60 In52 2.266 . S
O60 C57 1.252 . S
O61 In52 2.326 . S
O61 C57 1.260 . S
C62 O53 1.240 . S
C62 O54 1.252 . S
O63 In52 2.294 . S
O63 C56 1.240 . S
O64 In52 2.326 . S
O64 C56 1.252 . S
In65 O66 2.294 . S
In65 O67 2.326 . S
In65 O71 2.266 . S
In65 O72 2.326 . S
In65 O73 2.266 . S
In65 O74 2.326 . S
In65 O76 2.294 . S
In65 O77 2.326 . S
O66 In65 2.294 . S
O66 C75 1.240 . S
O67 In65 2.326 . S
O67 C75 1.252 . S
C68 O71 1.252 . S
C68 O72 1.260 . S
C69 O76 1.240 . S
C69 O77 1.252 . S
C70 O73 1.252 . S
C70 O74 1.260 . S
O71 In65 2.266 . S
O71 C68 1.252 . S
O72 In65 2.326 . S
O72 C68 1.260 . S
O73 In65 2.266 . S
O73 C70 1.252 . S
O74 In65 2.326 . S
O74 C70 1.260 . S
C75 O66 1.240 . S
C75 O67 1.252 . S
O76 In65 2.294 . S
O76 C69 1.240 . S
O77 In65 2.326 . S
O77 C69 1.252 . S
In78 O79 2.294 . S
In78 O80 2.326 . S
In78 O84 2.266 . S
In78 O85 2.326 . S
In78 O86 2.266 . S
In78 O87 2.326 . S
In78 O89 2.294 . S
In78 O90 2.326 . S
O79 In78 2.294 . S
O79 C88 1.240 . S
O80 In78 2.326 . S
O80 C88 1.252 . S
C81 O84 1.252 . S
C81 O85 1.260 . S
C82 O89 1.240 . S
C82 O90 1.252 . S
C83 O86 1.252 . S
C83 O87 1.260 . S
O84 In78 2.266 . S
O84 C81 1.252 . S
O85 In78 2.326 . S
O85 C81 1.260 . S
O86 In78 2.266 . S
O86 C83 1.252 . S
O87 In78 2.326 . S
O87 C83 1.260 . S
C88 O79 1.240 . S
C88 O80 1.252 . S
O89 In78 2.294 . S
O89 C82 1.240 . S
O90 In78 2.326 . S
O90 C82 1.252 . S
In91 O92 2.294 . S
In91 O93 2.326 . S
In91 O97 2.266 . S
In91 O98 2.326 . S
In91 O99 2.266 . S
In91 O100 2.326 . S
In91 O102 2.294 . S
In91 O103 2.326 . S
O92 In91 2.294 . S
O92 C101 1.240 . S
O93 In91 2.326 . S
O93 C101 1.252 . S
C94 O97 1.252 . S
C94 O98 1.260 . S
C95 O102 1.240 . S
C95 O103 1.252 . S
C96 O99 1.252 . S
C96 O100 1.260 . S
O97 In91 2.266 . S
O97 C94 1.252 . S
O98 In91 2.326 . S
O98 C94 1.260 . S
O99 In91 2.266 . S
O99 C96 1.252 . S
O100 In91 2.326 . S
O100 C96 1.260 . S
C101 O92 1.240 . S
C101 O93 1.252 . S
O102 In91 2.294 . S
O102 C95 1.240 . S
O103 In91 2.326 . S
O103 C95 1.252 . S
C104 C105 1.369 . S
C104 C106 1.419 1_545 S
C104 H108 0.930 . S
C105 C104 1.369 . S
C105 C114 1.429 1_455 S
C106 C104 1.419 1_565 S
C106 C107 1.363 1_455 S
C106 H109 0.929 . S
C107 C106 1.363 1_655 S
C107 C113 1.429 . S
H108 C104 0.930 . S
H109 C106 0.929 . S
S110 N111 1.613 . S
S110 N112 1.610 . S
N111 S110 1.613 . S
N111 C114 1.350 . S
N112 S110 1.610 . S
N112 C113 1.351 1_545 S
C113 C107 1.429 . S
C113 N112 1.351 1_565 S
C113 C114 1.433 1_565 S
C114 C105 1.429 1_655 S
C114 N111 1.350 . S
C114 C113 1.433 1_545 S
C115 C116 1.369 . S
C115 C117 1.419 . S
C115 H119 0.930 . S
C116 C115 1.369 . S
C116 C125 1.429 . S
C117 C115 1.419 . S
C117 C118 1.363 . S
C117 H120 0.929 . S
C118 C117 1.363 . S
C118 C124 1.428 . S
H119 C115 0.930 . S
H120 C117 0.929 . S
S121 N122 1.613 . S
S121 N123 1.610 . S
N122 S121 1.613 . S
N122 C125 1.350 . S
N123 S121 1.610 . S
N123 C124 1.351 . S
C124 C118 1.428 . S
C124 N123 1.351 . S
C124 C125 1.434 . S
C125 C116 1.429 . S
C125 N122 1.350 . S
C125 C124 1.434 . S
C126 C127 1.369 . S
C126 C128 1.419 . S
C126 H130 0.930 . S
C127 C126 1.369 . S
C127 C136 1.429 . S
C128 C126 1.419 . S
C128 C129 1.363 . S
C128 H131 0.929 . S
C129 C128 1.363 . S
C129 C135 1.428 . S
H130 C126 0.930 . S
H131 C128 0.929 . S
S132 N133 1.613 . S
S132 N134 1.610 . S
N133 S132 1.613 . S
N133 C136 1.350 . S
N134 S132 1.610 . S
N134 C135 1.351 . S
C135 C129 1.428 . S
C135 N134 1.351 . S
C135 C136 1.434 . S
C136 C127 1.429 . S
C136 N133 1.350 . S
C136 C135 1.434 . S
C137 C138 1.369 . S
C137 C139 1.419 1_455 S
C137 H141 0.930 . S
C138 C137 1.369 . S
C138 C147 1.429 1_545 S
C139 C137 1.419 1_655 S
C139 C140 1.363 1_545 S
C139 H142 0.929 . S
C140 C139 1.363 1_565 S
C140 C146 1.428 . S
H141 C137 0.930 . S
H142 C139 0.929 . S
S143 N144 1.613 . S
S143 N145 1.610 1_455 S
N144 S143 1.613 . S
N144 C147 1.350 . S
N145 S143 1.610 1_655 S
N145 C146 1.351 . S
C146 C140 1.428 . S
C146 N145 1.351 . S
C146 C147 1.434 1_655 S
C147 C138 1.429 1_565 S
C147 N144 1.350 . S
C147 C146 1.434 1_455 S
C148 C149 1.369 . S
C148 C150 1.419 . S
C148 H152 0.930 . S
C149 C148 1.369 . S
C149 C158 1.429 . S
C150 C148 1.419 . S
C150 C151 1.363 . S
C150 H153 0.929 . S
C151 C150 1.363 . S
C151 C157 1.428 . S
H152 C148 0.930 . S
H153 C150 0.929 . S
S154 N155 1.613 . S
S154 N156 1.610 . S
N155 S154 1.613 . S
N155 C158 1.350 . S
N156 S154 1.610 . S
N156 C157 1.351 . S
C157 C151 1.428 . S
C157 N156 1.351 . S
C157 C158 1.434 . S
C158 C149 1.429 . S
C158 N155 1.350 . S
C158 C157 1.434 . S
C159 C160 1.369 . S
C159 C161 1.419 1_556 S
C159 H163 0.930 . S
C160 C159 1.369 . S
C160 C169 1.429 . S
C161 C159 1.419 1_554 S
C161 C162 1.363 . S
C161 H164 0.929 . S
C162 C161 1.363 . S
C162 C168 1.428 . S
H163 C159 0.930 . S
H164 C161 0.929 . S
S165 N166 1.613 . S
S165 N167 1.610 1_556 S
N166 S165 1.613 . S
N166 C169 1.350 . S
N167 S165 1.610 1_554 S
N167 C168 1.351 . S
C168 C162 1.428 . S
C168 N167 1.351 . S
C168 C169 1.434 1_554 S
C169 C160 1.429 . S
C169 N166 1.350 . S
C169 C168 1.434 1_556 S
C170 C171 1.369 . S
C170 C172 1.419 . S
C170 H174 0.930 . S
C171 C170 1.369 . S
C171 C180 1.429 . S
C172 C170 1.419 . S
C172 C173 1.363 . S
C172 H175 0.929 . S
C173 C172 1.363 . S
C173 C179 1.428 . S
H174 C170 0.930 . S
H175 C172 0.929 . S
S176 N177 1.613 . S
S176 N178 1.610 . S
N177 S176 1.613 . S
N177 C180 1.350 . S
N178 S176 1.610 . S
N178 C179 1.351 . S
C179 C173 1.428 . S
C179 N178 1.351 . S
C179 C180 1.434 . S
C180 C171 1.429 . S
C180 N177 1.350 . S
C180 C179 1.434 . S
C181 C182 1.369 . S
C181 C183 1.419 1_556 S
C181 H185 0.930 . S
C182 C181 1.369 . S
C182 C191 1.429 . S
C183 C181 1.419 1_554 S
C183 C184 1.363 . S
C183 H186 0.929 . S
C184 C183 1.363 . S
C184 C190 1.428 . S
H185 C181 0.930 . S
H186 C183 0.929 . S
S187 N188 1.613 1_554 S
S187 N189 1.610 . S
N188 S187 1.613 1_556 S
N188 C191 1.350 . S
N189 S187 1.610 . S
N189 C190 1.351 . S
C190 C184 1.428 . S
C190 N189 1.351 . S
C190 C191 1.434 1_554 S
C191 C182 1.429 . S
C191 N188 1.350 . S
C191 C190 1.434 1_556 S
C192 C193 1.369 . S
C192 C194 1.419 . S
C192 H196 0.930 . S
C193 C192 1.369 . S
C193 C202 1.429 . S
C194 C192 1.419 . S
C194 C195 1.363 . S
C194 H197 0.929 . S
C195 C194 1.363 . S
C195 C201 1.428 . S
H196 C192 0.930 . S
H197 C194 0.929 . S
S198 N199 1.613 . S
S198 N200 1.610 . S
N199 S198 1.613 . S
N199 C202 1.350 . S
N200 S198 1.610 . S
N200 C201 1.351 . S
C201 C195 1.428 . S
C201 N200 1.351 . S
C201 C202 1.434 . S
C202 C193 1.429 . S
C202 N199 1.350 . S
C202 C201 1.434 . S
C203 C204 1.369 . S
C203 C205 1.419 . S
C203 H207 0.930 . S
C204 C203 1.369 . S
C204 C213 1.429 . S
C205 C203 1.419 . S
C205 C206 1.363 . S
C205 H208 0.929 . S
C206 C205 1.363 . S
C206 C212 1.428 . S
H207 C203 0.930 . S
H208 C205 0.929 . S
S209 N210 1.613 . S
S209 N211 1.610 1_565 S
N210 S209 1.613 . S
N210 C213 1.350 . S
N211 S209 1.610 1_545 S
N211 C212 1.351 1_545 S
C212 C206 1.428 . S
C212 N211 1.351 1_565 S
C212 C213 1.434 . S
C213 C204 1.429 . S
C213 N210 1.350 . S
C213 C212 1.434 . S
C214 C215 1.369 . S
C214 C216 1.419 . S
C214 H218 0.930 . S
C215 C214 1.369 . S
C215 C224 1.429 . S
C216 C214 1.419 . S
C216 C217 1.363 . S
C216 H219 0.929 . S
C217 C216 1.363 . S
C217 C223 1.428 . S
H218 C214 0.930 . S
H219 C216 0.929 . S
S220 N221 1.613 . S
S220 N222 1.610 . S
N221 S220 1.613 . S
N221 C224 1.350 . S
N222 S220 1.610 . S
N222 C223 1.351 . S
C223 C217 1.428 . S
C223 N222 1.351 . S
C223 C224 1.434 . S
C224 C215 1.429 . S
C224 N221 1.350 . S
C224 C223 1.434 . S
C225 C226 1.369 . S
C225 C227 1.419 . S
C225 H229 0.930 . S
C226 C225 1.369 . S
C226 C235 1.429 . S
C227 C225 1.419 . S
C227 C228 1.363 . S
C227 H230 0.929 . S
C228 C227 1.363 . S
C228 C234 1.428 . S
H229 C225 0.930 . S
H230 C227 0.929 . S
S231 N232 1.613 . S
S231 N233 1.610 . S
N232 S231 1.613 . S
N232 C235 1.350 . S
N233 S231 1.610 . S
N233 C234 1.351 . S
C234 C228 1.428 . S
C234 N233 1.351 . S
C234 C235 1.434 . S
C235 C226 1.429 . S
C235 N232 1.350 . S
C235 C234 1.434 . S
C236 C237 1.369 . S
C236 C238 1.419 . S
C236 H240 0.930 . S
C237 C236 1.369 . S
C237 C246 1.429 . S
C238 C236 1.419 . S
C238 C239 1.363 . S
C238 H241 0.929 . S
C239 C238 1.363 . S
C239 C245 1.428 . S
H240 C236 0.930 . S
H241 C238 0.929 . S
S242 N243 1.613 . S
S242 N244 1.610 . S
N243 S242 1.613 . S
N243 C246 1.350 . S
N244 S242 1.610 . S
N244 C245 1.351 . S
C245 C239 1.428 . S
C245 N244 1.351 . S
C245 C246 1.434 . S
C246 C237 1.429 . S
C246 N243 1.350 . S
C246 C245 1.434 . S
C247 C248 1.369 . S
C247 C249 1.419 . S
C247 H251 0.930 . S
C248 C247 1.369 . S
C248 C257 1.429 . S
C249 C247 1.419 . S
C249 C250 1.363 . S
C249 H252 0.929 . S
C250 C249 1.363 . S
C250 C256 1.428 . S
H251 C247 0.930 . S
H252 C249 0.929 . S
S253 N254 1.613 . S
S253 N255 1.610 . S
N254 S253 1.613 . S
N254 C257 1.350 . S
N255 S253 1.610 . S
N255 C256 1.351 . S
C256 C250 1.428 . S
C256 N255 1.351 . S
C256 C257 1.434 . S
C257 C248 1.429 . S
C257 N254 1.350 . S
C257 C256 1.434 . S
C258 C259 1.369 . S
C258 C260 1.419 . S
C258 H262 0.930 . S
C259 C258 1.369 . S
C259 C268 1.429 . S
C260 C258 1.419 . S
C260 C261 1.363 . S
C260 H263 0.929 . S
C261 C260 1.363 . S
C261 C267 1.428 . S
H262 C258 0.930 . S
H263 C260 0.929 . S
S264 N265 1.613 . S
S264 N266 1.610 . S
N265 S264 1.613 . S
N265 C268 1.350 . S
N266 S264 1.610 . S
N266 C267 1.351 . S
C267 C261 1.428 . S
C267 N266 1.351 . S
C267 C268 1.434 . S
C268 C259 1.429 . S
C268 N265 1.350 . S
C268 C267 1.434 . S
C269 C270 1.369 . S
C269 C271 1.419 . S
C269 H273 0.930 . S
C270 C269 1.369 . S
C270 C279 1.429 . S
C271 C269 1.419 . S
C271 C272 1.363 . S
C271 H274 0.929 . S
C272 C271 1.363 . S
C272 C278 1.428 . S
H273 C269 0.930 . S
H274 C271 0.929 . S
S275 N276 1.613 . S
S275 N277 1.610 . S
N276 S275 1.613 . S
N276 C279 1.350 . S
N277 S275 1.610 . S
N277 C278 1.351 . S
C278 C272 1.428 . S
C278 N277 1.351 . S
C278 C279 1.434 . S
C279 C270 1.429 . S
C279 N276 1.350 . S
C279 C278 1.434 . S
C105 C5 1.007 . S
C107 C29 1.008 . S
C116 C16 1.007 . S
C118 C42 1.008 . S
C127 C55 1.008 . S
C129 C81 1.008 . S
C138 C68 1.007 . S
C140 C94 1.008 . S
C149 C10 1.553 . S
C151 C69 1.552 . S
C160 C17 1.548 . S
C162 C82 1.550 . S
C171 C95 1.549 . S
C173 C30 1.548 . S
C182 C43 1.549 . S
C184 C56 1.548 . S
C193 C57 1.732 . S
C195 C4 1.767 . S
C204 C23 1.772 . S
C206 C70 1.727 1_565 S
C215 C36 1.773 . S
C217 C83 1.725 . S
C226 C49 1.773 . S
C228 C96 1.725 1_545 S
C237 C3 1.734 1_655 S
C239 C62 1.766 . S
C248 C75 1.773 . S
C250 C18 1.725 . S
C259 C88 1.772 . S
C261 C31 1.725 1_455 S
C270 C44 1.726 . S
C272 C101 1.772 . S
