# Generated by pormake.
# Topology hcp, (12)-cn, num edge types: 1
# Building blocks:
#     Node 0, Type 0, BuildingBlock: QEWDON_clean_sbu_0, # of connection points: 12
#     Node 1, Type 0, BuildingBlock: QEWDON_clean_sbu_0, # of connection points: 12
#     Edge 2, Type (0, 0), BuildingBlock: UVAHIK_clean_linker_0, # of connection points: 2
#     Edge 3, Type (0, 0), BuildingBlock: UVAHIK_clean_linker_0, # of connection points: 2
#     Edge 4, Type (0, 0), BuildingBlock: UVAHIK_clean_linker_0, # of connection points: 2
#     Edge 5, Type (0, 0), BuildingBlock: UVAHIK_clean_linker_0, # of connection points: 2
#     Edge 6, Type (0, 0), BuildingBlock: UVAHIK_clean_linker_0, # of connection points: 2
#     Edge 7, Type (0, 0), BuildingBlock: UVAHIK_clean_linker_0, # of connection points: 2
#     Edge 8, Type (0, 0), BuildingBlock: UVAHIK_clean_linker_0, # of connection points: 2
#     Edge 9, Type (0, 0), BuildingBlock: UVAHIK_clean_linker_0, # of connection points: 2
#     Edge 10, Type (0, 0), BuildingBlock: UVAHIK_clean_linker_0, # of connection points: 2
#     Edge 11, Type (0, 0), BuildingBlock: UVAHIK_clean_linker_0, # of connection points: 2
#     Edge 12, Type (0, 0), BuildingBlock: UVAHIK_clean_linker_0, # of connection points: 2
#     Edge 13, Type (0, 0), BuildingBlock: UVAHIK_clean_linker_0, # of connection points: 2
# Relax obj value: 0.189
# Max RMSD: 0.273
# Mean RMSD: 0.272
data_MOF--net-hcp--node1-QEWDON_clean_sbu_0--edge1-UVAHIK_clean_linker_0
_symmetry_space_group_name_H-M    P1
_symmetry_Int_Tables_number       1
_symmetry_cell_setting            triclinic
loop_
_symmetry_equiv_pos_as_xyz
'x, y, z'
_cell_length_a     23.876761
_cell_length_b     22.774479
_cell_length_c     39.091793
_cell_angle_alpha  93.785537
_cell_angle_beta   87.928178
_cell_angle_gamma 121.28897
loop_
_atom_site_label
_atom_site_type_symbol
_atom_site_fract_x
_atom_site_fract_y
_atom_site_fract_z
_atom_type_partial_charge
Zn0 Zn 0.71471 0.24254 0.26754 0.0
Zn1 Zn 0.79165 0.36231 0.21341 0.0
O2 O 0.73007 0.33385 0.25415 0.0
H3 H 0.71159 0.35791 0.26649 0.0
C4 C 0.57405 0.1232 0.24434 0.0
O5 O 0.51443 0.10798 0.25288 0.0
Zn6 Zn 0.57929 0.46628 0.22097 0.0
Zn7 Zn 0.5043 0.33902 0.26655 0.0
O8 O 0.54263 0.36527 0.21848 0.0
H9 H 0.52299 0.3368 0.19785 0.0
Zn10 Zn 0.56954 0.23201 0.21354 0.0
O11 O 0.62973 0.33295 0.20248 0.0
Zn12 Zn 0.61303 0.33855 0.15359 0.0
H13 H 0.66413 0.37037 0.21613 0.0
Zn14 Zn 0.62423 0.38848 0.33284 0.0
O15 O 0.65663 0.42524 0.28686 0.0
H16 H 0.63277 0.39937 0.26649 0.0
Zn17 Zn 0.75016 0.50313 0.28965 0.0
C18 C 0.50298 0.25975 0.3526 0.0
O19 O 0.46245 0.19279 0.35173 0.0
O20 O 0.78593 0.22532 0.24883 0.0
O21 O 0.83234 0.30284 0.20895 0.0
O22 O 0.46554 0.39824 0.28225 0.0
O23 O 0.51016 0.47949 0.24446 0.0
O24 O 0.50542 0.17239 0.1748 0.0
O25 O 0.5394 0.24797 0.13442 0.0
C26 C 0.85557 0.50246 0.24026 0.0
O27 O 0.69944 0.42981 0.36758 0.0
O28 O 0.78402 0.50892 0.33785 0.0
O29 O 0.43787 0.2347 0.27383 0.0
C30 C 0.8277 0.25323 0.22495 0.0
O31 O 0.66195 0.19437 0.31122 0.0
C32 C 0.58618 0.46495 0.14553 0.0
O33 O 0.61094 0.17789 0.22889 0.0
C34 C 0.46942 0.44942 0.2685 0.0
O35 O 0.55186 0.2847 0.33239 0.0
C36 C 0.74239 0.36268 0.13976 0.0
O37 O 0.86423 0.46147 0.22034 0.0
O38 O 0.80083 0.4781 0.25572 0.0
C39 C 0.50203 0.18733 0.14448 0.0
O40 O 0.58597 0.49689 0.17343 0.0
O41 O 0.59555 0.41474 0.1453 0.0
C42 C 0.70438 0.577 0.25788 0.0
O43 O 0.69215 0.35605 0.12574 0.0
O44 O 0.74088 0.35643 0.17192 0.0
C45 C 0.75967 0.47697 0.36535 0.0
O46 O 0.7517 0.58883 0.27689 0.0
O47 O 0.66518 0.5155 0.24675 0.0
C48 C 0.41076 0.19345 0.24794 0.0
O49 O 0.42762 0.21681 0.21712 0.0
C50 C 0.65448 0.22586 0.3374 0.0
O51 O 0.68133 0.29293 0.33767 0.0
Zn52 Zn 0.37897 0.5713 0.76617 0.0
Zn53 Zn 0.44054 0.66823 0.70083 0.0
O54 O 0.37462 0.64159 0.73928 0.0
H55 H 0.3605 0.67002 0.75131 0.0
C56 C 0.27359 0.46803 0.7235 0.0
O57 O 0.22936 0.47128 0.74314 0.0
Zn58 Zn 0.25108 0.79442 0.69503 0.0
Zn59 Zn 0.16389 0.65223 0.7271 0.0
O60 O 0.21457 0.69382 0.68261 0.0
H61 H 0.18935 0.66624 0.7014 0.0
Zn62 Zn 0.26705 0.57594 0.68923 0.0
O63 O 0.32668 0.68191 0.69205 0.0
Zn64 Zn 0.33421 0.70329 0.64338 0.0
H65 H 0.32566 0.71207 0.71028 0.0
Zn66 Zn 0.3234 0.6927 0.82399 0.0
O67 O 0.31724 0.74221 0.78415 0.0
H68 H 0.27852 0.7275 0.7707 0.0
Zn69 Zn 0.40838 0.82245 0.77713 0.0
C70 C 0.1932 0.60089 0.85841 0.0
O71 O 0.17869 0.5599 0.83065 0.0
O72 O 0.45183 0.55347 0.75008 0.0
O73 O 0.49605 0.62774 0.70897 0.0
O74 O 0.14202 0.71923 0.75367 0.0
O75 O 0.1789 0.80385 0.71791 0.0
O76 O 0.19947 0.53955 0.65005 0.0
O77 O 0.25645 0.62803 0.61721 0.0
C78 C 0.50182 0.81489 0.72145 0.0
O79 O 0.41137 0.75074 0.8491 0.0
O80 O 0.45851 0.8476 0.8215 0.0
O81 O 0.0816 0.5507 0.72749 0.0
C82 C 0.49584 0.58363 0.72751 0.0
O83 O 0.38048 0.58694 0.81866 0.0
C84 C 0.32407 0.83907 0.63292 0.0
O85 O 0.30013 0.50974 0.69968 0.0
C86 C 0.14365 0.77212 0.74347 0.0
O87 O 0.24824 0.65694 0.8603 0.0
C88 C 0.42385 0.66033 0.6269 0.0
O89 O 0.50577 0.77154 0.70086 0.0
O90 O 0.45071 0.79267 0.74006 0.0
C91 C 0.20704 0.56864 0.62217 0.0
O92 O 0.29022 0.85297 0.65404 0.0
O93 O 0.32794 0.78644 0.63702 0.0
C94 C 0.35665 0.88843 0.74223 0.0
O95 O 0.41295 0.70769 0.62088 0.0
O96 O 0.40012 0.62728 0.65391 0.0
C97 C 0.45622 0.8136 0.84676 0.0
O98 O 0.40042 0.90185 0.76397 0.0
O99 O 0.32341 0.82765 0.72883 0.0
C100 C 0.08237 0.49548 0.72181 0.0
O101 O 0.13813 0.49954 0.71408 0.0
C102 C 0.33971 0.54027 0.83769 0.0
O103 O 0.29187 0.48281 0.82339 0.0
C104 C 0.52235 0.92352 0.88123 0.0
C105 C 0.49304 0.8516 0.87823 0.0
C106 C 0.5293 0.95668 0.91343 0.0
C107 C 0.51564 0.94614 0.00632 0.0
H108 H 0.39914 0.01573 -0.0024 0.0
C109 C 0.45382 0.0647 0.12364 0.0
C110 C 0.46723 0.13122 0.11807 0.0
C111 C 0.44527 0.01906 0.09582 0.0
C112 C 0.43193 0.99686 0.0005 0.0
H113 H 0.46153 0.76067 0.90671 0.0
H114 H 0.4747 0.81912 0.96286 0.0
H115 H 0.42877 0.96955 0.94697 0.0
H116 H 0.47195 0.19807 0.07964 0.0
H117 H 0.45737 0.1193 0.03142 0.0
H118 H 0.52092 0.97587 0.0597 0.0
C119 C 0.49026 0.84925 0.94035 0.0
C120 C 0.44921 0.97088 0.97152 0.0
C121 C 0.48278 0.81587 0.90811 0.0
C122 C 0.46265 0.14753 0.0847 0.0
C123 C 0.45414 0.10207 0.05697 0.0
C124 C 0.49919 0.97331 0.03539 0.0
C125 C 0.50841 0.91857 0.94289 0.0
C126 C 0.49217 0.94663 0.97409 0.0
C127 C 0.44941 0.03911 0.06214 0.0
C128 C 0.45806 1.00013 0.03265 0.0
H129 H 0.53227 0.95297 0.85878 0.0
H130 H 0.54485 0.01075 0.91505 0.0
H131 H 0.54802 0.92661 0.00883 0.0
H132 H 0.45631 0.05023 0.14914 0.0
H133 H 0.4398 0.97003 0.1006 0.0
C134 C 0.43499 0.56365 0.601 0.0
C135 C 0.44159 0.62809 0.59778 0.0
C136 C 0.4435 0.52865 0.57263 0.0
C137 C 0.51653 0.5456 0.48754 0.0
H138 H 0.37707 0.35491 0.47323 0.0
C139 C 0.51135 0.37151 0.37093 0.0
C140 C 0.494 0.30453 0.37828 0.0
C141 C 0.50386 0.41404 0.39576 0.0
C142 C 0.41672 0.40786 0.47701 0.0
H143 H 0.46679 0.70835 0.56269 0.0
H144 H 0.48264 0.64702 0.51304 0.0
H145 H 0.36989 0.42537 0.52079 0.0
H146 H 0.45396 0.22878 0.41683 0.0
H147 H 0.44152 0.30293 0.46032 0.0
H148 H 0.56419 0.52753 0.44418 0.0
C149 C 0.46994 0.62358 0.53755 0.0
C150 C 0.41251 0.4482 0.5042 0.0
C151 C 0.46071 0.65849 0.56593 0.0
C152 C 0.46765 0.28022 0.41053 0.0
C153 C 0.46032 0.32266 0.43535 0.0
C154 C 0.52102 0.50498 0.46038 0.0
C155 C 0.45963 0.55753 0.5405 0.0
C156 C 0.46288 0.51703 0.51011 0.0
C157 C 0.47853 0.39016 0.42833 0.0
C158 C 0.47166 0.43525 0.45523 0.0
H159 H 0.42107 0.53898 0.62519 0.0
H160 H 0.43651 0.47832 0.57572 0.0
H161 H 0.55602 0.59857 0.49161 0.0
H162 H 0.52954 0.39065 0.34582 0.0
H163 H 0.51714 0.46525 0.38932 0.0
C164 C 0.85972 0.44267 0.1238 0.0
C165 C 0.80016 0.38035 0.11806 0.0
C166 C 0.90705 0.46859 0.09761 0.0
C167 C 0.91304 0.45567 0.00292 0.0
H168 H 0.10147 0.55092 0.01375 0.0
C169 C 0.08768 0.5178 0.88711 0.0
C170 C 0.14786 0.58059 0.88823 0.0
C171 C 0.04665 0.49722 0.9159 0.0
C172 C 0.04893 0.52518 0.01037 0.0
H173 H 0.74488 0.29407 0.08189 0.0
H174 H 0.82791 0.33723 0.03704 0.0
H175 H 0.03032 0.50615 0.06387 0.0
H176 H 0.21128 0.67185 0.92037 0.0
H177 H 0.13946 0.63614 0.97038 0.0
H178 H 0.93118 0.47441 0.9496 0.0
C179 C 0.83781 0.3674 0.06108 0.0
C180 C 0.00821 0.49942 0.03911 0.0
C181 C 0.79064 0.34209 0.08694 0.0
C182 C 0.16541 0.62293 0.91862 0.0
C183 C 0.12444 0.6023 0.94742 0.0
C184 C 0.95358 0.48132 0.97431 0.0
C185 C 0.89528 0.43234 0.06545 0.0
C186 C 0.93968 0.4632 0.0356 0.0
C187 C 0.06478 0.5389 0.94654 0.0
C188 C 0.02202 0.51548 0.97752 0.0
H189 H 0.86747 0.47376 0.14735 0.0
H190 H 0.95081 0.51879 0.10182 0.0
H191 H 0.86052 0.42988 -0.00061 0.0
H192 H 0.07259 0.48393 0.86416 0.0
H193 H 0.00137 0.44774 0.91437 0.0
C194 C 0.35912 0.94367 0.59973 0.0
C195 C 0.35432 0.87995 0.60242 0.0
C196 C 0.3881 0.982 0.57085 0.0
C197 C 0.42766 0.96584 0.48022 0.0
H198 H 0.56143 0.15904 0.49252 0.0
C199 C 0.59446 0.11689 0.36861 0.0
C200 C 0.61637 0.18713 0.36734 0.0
C201 C 0.55946 0.08032 0.39698 0.0
C202 C 0.52337 0.1055 0.48846 0.0
H203 H 0.37563 0.80624 0.57673 0.0
H204 H 0.42547 0.87278 0.52636 0.0
H205 H 0.50493 0.09377 0.54241 0.0
H206 H 0.61768 0.27381 0.39475 0.0
H207 H 0.55441 0.20949 0.44359 0.0
H208 H 0.44498 0.97725 0.42637 0.0
C209 C 0.4068 0.89305 0.54653 0.0
C210 C 0.49116 0.06806 0.51715 0.0
C211 C 0.37861 0.85517 0.57551 0.0
C212 C 0.60177 0.21979 0.39496 0.0
C213 C 0.56583 0.18291 0.42314 0.0
C214 C 0.45922 1.00341 0.4515 0.0
C215 C 0.41209 0.95698 0.54391 0.0
C216 C 0.44357 0.99765 0.51336 0.0
C217 C 0.54455 0.11271 0.42467 0.0
C218 C 0.50821 0.0736 0.45521 0.0
H219 H 0.34093 0.96419 0.62004 0.0
H220 H 0.39118 0.03094 0.56941 0.0
H221 H 0.39051 0.91183 0.47648 0.0
H222 H 0.60509 0.09014 0.34786 0.0
H223 H 0.54523 0.02683 0.39737 0.0
C224 C 0.52754 0.42897 0.0897 0.0
C225 C 0.56829 0.48199 0.11358 0.0
C226 C 0.50175 0.44306 0.06205 0.0
C227 C 0.52736 0.56815 0.00348 0.0
H228 H 0.33798 0.47652 -0.00198 0.0
C229 C 0.40792 0.6057 0.88922 0.0
C230 C 0.35448 0.5453 0.87453 0.0
C231 C 0.43 0.60655 0.92193 0.0
C232 C 0.39088 0.50211 -0.00104 0.0
H233 H 0.61644 0.59145 0.12666 0.0
H234 H 0.57387 0.61664 0.07694 0.0
H235 H 0.38837 0.45902 0.04656 0.0
H236 H 0.27928 0.43996 0.88364 0.0
H237 H 0.3188 0.44046 0.94004 0.0
H238 H 0.53058 0.60812 0.95512 0.0
C239 C 0.56091 0.56417 0.08024 0.0
C240 C 0.41957 0.49225 0.02681 0.0
C241 C 0.58526 0.54981 0.10849 0.0
C242 C 0.32076 0.48725 0.89416 0.0
C243 C 0.34335 0.48775 0.9267 0.0
C244 C 0.49873 0.57703 0.97528 0.0
C245 C 0.51773 0.5106 0.05735 0.0
C246 C 0.48792 0.52451 0.02901 0.0
C247 C 0.39969 0.54667 0.94051 0.0
C248 C 0.43001 0.54334 0.97239 0.0
H249 H 0.51303 0.37612 0.09331 0.0
H250 H 0.46874 0.40113 0.04451 0.0
H251 H 0.58024 0.59325 0.00471 0.0
H252 H 0.43471 0.65147 0.8748 0.0
H253 H 0.47237 0.65345 0.9321 0.0
C254 C 0.87128 0.5202 0.38897 0.0
C255 C 0.80339 0.48915 0.3942 0.0
C256 C 0.9112 0.5219 0.41472 0.0
C257 C 0.92087 0.50784 0.50714 0.0
H258 H 0.04615 0.45396 0.47907 0.0
C259 C 0.08933 0.4973 0.60491 0.0
C260 C 0.15576 0.53672 0.59578 0.0
C261 C 0.04074 0.47874 0.58045 0.0
C262 C 0.01132 0.46899 0.48726 0.0
H263 H 0.7247 0.43921 0.43118 0.0
H264 H 0.79472 0.44314 0.47624 0.0
H265 H -0.02602 0.4542 0.43648 0.0
H266 H 0.22381 0.58275 0.5538 0.0
H267 H 0.13939 0.54973 0.51116 0.0
H268 H 0.95931 0.52421 0.55779 0.0
C269 C 0.81687 0.46556 0.45216 0.0
C270 C 0.97038 0.46958 0.4629 0.0
C271 C 0.77682 0.46322 0.42632 0.0
C272 C 0.17285 0.55277 0.56148 0.0
C273 C 0.12448 0.53348 0.53704 0.0
C274 C 0.96194 0.50737 0.53152 0.0
C275 C 0.88413 0.49327 0.44628 0.0
C276 C 0.92559 0.49019 0.47249 0.0
C277 C 0.05805 0.49839 0.5465 0.0
C278 C 0.00835 0.48911 0.5217 0.0
H279 H 0.89324 0.54054 0.36451 0.0
H280 H 0.96317 0.54467 0.40976 0.0
H281 H 0.88695 0.5242 0.5152 0.0
H282 H 0.07502 0.48446 0.63126 0.0
H283 H -0.01021 0.45109 0.5883 0.0
C284 C 0.6496 0.07905 0.23112 0.0
C285 C 0.59473 0.07317 0.24878 0.0
C286 C 0.66519 0.02798 0.23254 0.0
C287 C 0.63115 0.87788 0.28107 0.0
H288 H 0.68338 0.82047 0.19635 0.0
C289 C 0.63406 0.6269 0.26717 0.0
C290 C 0.6909 0.63175 0.25297 0.0
C291 C 0.62323 0.68123 0.26547 0.0
C292 C 0.66934 0.83637 0.22022 0.0
H293 H 0.51435 0.01018 0.28262 0.0
H294 H 0.5407 0.92059 0.28467 0.0
H295 H 0.66507 0.91661 0.19717 0.0
H296 H 0.78131 0.69614 0.22597 0.0
H297 H 0.76219 0.7917 0.22249 0.0
H298 H 0.63421 0.79674 0.3039 0.0
C299 C 0.57231 0.965 0.27003 0.0
C300 C 0.65913 0.89161 0.22078 0.0
C301 C 0.55689 0.01616 0.26868 0.0
C302 C 0.73673 0.69134 0.2367 0.0
C303 C 0.72566 0.74563 0.23466 0.0
C304 C 0.64085 0.82241 0.28042 0.0
C305 C 0.62605 0.96971 0.25154 0.0
C306 C 0.63962 0.91285 0.25121 0.0
C307 C 0.66927 0.7415 0.24955 0.0
C308 C 0.65971 0.80086 0.24998 0.0
H309 H 0.67937 0.12203 0.21527 0.0
H310 H 0.70753 0.03384 0.21844 0.0
H311 H 0.61733 0.89357 0.30507 0.0
H312 H 0.59939 0.58229 0.28088 0.0
H313 H 0.57924 0.6765 0.27704 0.0
C314 C 0.06725 0.81254 0.73363 0.0
C315 C 0.09052 0.78338 0.75548 0.0
C316 C 0.00209 0.79532 0.73589 0.0
C317 C 0.84544 0.70519 0.7817 0.0
H318 H 0.77858 0.61499 0.69211 0.0
C319 C 0.57024 0.55503 0.75569 0.0
C320 C 0.55447 0.57775 0.727 0.0
C321 C 0.634 0.56927 0.76 0.0
C322 C 0.79641 0.64006 0.7172 0.0
H323 H 0.06885 0.72602 0.80124 0.0
H324 H 0.95522 0.69673 0.80529 0.0
H325 H 0.89622 0.68046 0.70227 0.0
H326 H 0.59007 0.62436 0.67818 0.0
H327 H 0.70073 0.64936 0.68567 0.0
H328 H 0.74558 0.66636 0.79639 0.0
C329 C -0.01348 0.73096 0.78588 0.0
C330 C 0.86367 0.67798 0.72293 0.0
C331 C 0.0516 0.74778 0.7835 0.0
C332 C 0.6011 0.60722 0.70082 0.0
C333 C 0.6646 0.62127 0.70508 0.0
C334 C 0.77789 0.66786 0.77584 0.0
C335 C 0.96019 0.74999 0.76038 0.0
C336 C 0.88878 0.71194 0.75498 0.0
C337 C 0.68257 0.60584 0.73555 0.0
C338 C 0.75281 0.63591 0.74331 0.0
H339 H 0.09641 0.8413 0.71218 0.0
H340 H -0.01717 0.8119 0.71646 0.0
H341 H 0.86387 0.73013 0.80676 0.0
H342 H 0.53507 0.53145 0.77616 0.0
H343 H 0.64617 0.55523 0.78333 0.0
C344 C 0.3218 0.1016 0.28301 0.0
C345 C 0.35729 0.12143 0.25213 0.0
C346 C 0.26778 0.03472 0.2857 0.0
C347 C 0.19551 0.85847 0.24797 0.0
H348 H 0.02806 0.83158 0.27916 0.0
C349 C 0.95908 0.60227 0.21976 0.0
C350 C 0.90913 0.57549 0.24457 0.0
C351 C 0.01272 0.66909 0.22386 0.0
C352 C 0.07463 0.83801 0.27093 0.0
H353 H 0.36525 0.08623 0.20028 0.0
H354 H 0.27222 0.96947 0.20526 0.0
H355 H 0.12569 0.94751 0.28141 0.0
H356 H 0.87571 0.59883 0.29291 0.0
H357 H 0.97074 0.71623 0.30053 0.0
H358 H 0.14553 0.74971 0.23762 0.0
C359 C 0.28572 1.00563 0.22728 0.0
C360 C 0.1305 0.90443 0.27217 0.0
C361 C 0.33887 0.0726 0.22439 0.0
C362 C 0.91331 0.61804 0.27332 0.0
C363 C 0.96775 0.68529 0.27763 0.0
C364 C 0.14011 0.79229 0.24706 0.0
C365 C 0.24912 0.98612 0.25781 0.0
C366 C 0.19118 0.91542 0.25995 0.0
C367 C 0.01871 0.71118 0.25314 0.0
C368 C 0.0785 0.78124 0.25766 0.0
H369 H 0.33469 0.13822 0.30478 0.0
H370 H 0.24069 0.02093 0.30959 0.0
H371 H 0.24185 0.86521 0.23897 0.0
H372 H 0.95699 0.57135 0.19699 0.0
H373 H 0.04969 0.6877 0.2039 0.0
C374 C 0.25119 0.36089 0.75032 0.0
C375 C 0.28744 0.41228 0.72706 0.0
C376 C 0.25943 0.3046 0.75157 0.0
C377 C 0.31896 0.20614 0.69898 0.0
H378 H 0.30757 0.12483 0.78493 0.0
C379 C 0.38102 0.99346 0.71307 0.0
C380 C 0.34165 0.9415 0.73536 0.0
C381 C 0.37205 0.04909 0.71029 0.0
C382 C 0.31005 0.14636 0.76064 0.0
H383 H 0.36301 0.44628 0.68791 0.0
H384 H 0.37841 0.34875 0.69059 0.0
H385 H 0.30058 0.22776 0.78494 0.0
H386 H 0.26208 0.90569 0.77198 0.0
H387 H 0.24553 1.0022 0.76694 0.0
H388 H 0.32909 0.12483 0.67479 0.0
C389 C 0.34233 0.35105 0.70728 0.0
C390 C 0.30612 0.20555 0.76064 0.0
C391 C 0.33387 0.4073 0.70593 0.0
C392 C 0.29235 0.94493 0.75428 0.0
C393 C 0.2835 1.00054 0.75166 0.0
C394 C 0.32319 0.14705 0.699 0.0
C395 C 0.30443 0.29834 0.72973 0.0
C396 C 0.31039 0.23623 0.72981 0.0
C397 C 0.3241 0.05406 0.73016 0.0
C398 C 0.31861 0.11631 0.72983 0.0
H399 H 0.21495 0.36299 0.76697 0.0
H400 H 0.22891 0.26488 0.76896 0.0
H401 H 0.32125 0.2275 0.67467 0.0
H402 H 0.41984 0.99198 0.69856 0.0
H403 H 0.40444 0.08958 0.69367 0.0
C404 C 0.36806 0.42657 0.2995 0.0
C405 C 0.41253 0.45803 0.27261 0.0
C406 C 0.30202 0.40433 0.2955 0.0
C407 C 0.18932 0.33614 0.22412 0.0
H408 H 0.06075 0.32738 0.29025 0.0
C409 C 0.92899 0.2701 0.19569 0.0
C410 C 0.88146 0.23934 0.22138 0.0
C411 C -0.00867 0.28048 0.19967 0.0
C412 C 0.09611 0.32816 0.27183 0.0
H413 H 0.42534 0.50213 0.22323 0.0
H414 H 0.31033 0.46375 0.21652 0.0
H415 H 0.17699 0.39578 0.30476 0.0
H416 H 0.85797 0.18444 0.2682 0.0
H417 H 0.96716 0.20367 0.27524 0.0
H418 H 0.10836 0.26957 0.19094 0.0
C419 C 0.32608 0.45432 0.24013 0.0
C420 C 0.16249 0.36792 0.28001 0.0
C421 C 0.39216 0.47719 0.24427 0.0
C422 C 0.89399 0.20962 0.24827 0.0
C423 C 0.95655 0.2208 0.25246 0.0
C424 C 0.12292 0.29649 0.21591 0.0
C425 C 0.28003 0.41358 0.26463 0.0
C426 C 0.20968 0.3731 0.25603 0.0
C427 C 0.00671 0.26049 0.22944 0.0
C428 C 0.07585 0.29279 0.23957 0.0
H429 H 0.38272 0.41211 0.32185 0.0
H430 H 0.26752 0.37391 0.31504 0.0
H431 H 0.22478 0.33769 0.20554 0.0
H432 H 0.92024 0.29225 0.17432 0.0
H433 H 0.02914 0.31066 0.18136 0.0
C434 C 0.96577 0.42065 0.74173 0.0
C435 C 0.02132 0.42714 0.72451 0.0
C436 C 0.90884 0.35582 0.7448 0.0
C437 C 0.84858 0.16706 0.73533 0.0
H438 H 0.67759 0.14741 0.73095 0.0
C439 C 0.61416 0.90664 0.70376 0.0
C440 C 0.55801 0.88753 0.72416 0.0
C441 C 0.66924 0.97301 0.70695 0.0
C442 C 0.72499 0.1522 0.73261 0.0
H443 H 0.06007 0.37052 0.69656 0.0
H444 H 0.96069 0.2584 0.70063 0.0
H445 H 0.77631 0.26177 0.73004 0.0
H446 H 0.51699 0.92447 0.76419 0.0
H447 H 0.6127 0.04171 0.76889 0.0
H448 H 0.79703 0.05717 0.73656 0.0
C449 C 0.96128 0.30277 0.71285 0.0
C450 C 0.78181 0.21787 0.73218 0.0
C451 C 0.01838 0.36738 0.71022 0.0
C452 C 0.55849 0.93739 0.74763 0.0
C453 C 0.61355 1.00454 0.75045 0.0
C454 C 0.79193 0.10155 0.7353 0.0
C455 C 0.90561 0.29577 0.73034 0.0
C456 C 0.8446 0.22626 0.73299 0.0
C457 C 0.66984 0.02281 0.73036 0.0
C458 C 0.72947 0.09318 0.73342 0.0
H459 H 0.96658 0.46562 0.75332 0.0
H460 H 0.86769 0.35285 0.75892 0.0
H461 H 0.8956 0.17106 0.73706 0.0
H462 H 0.61612 0.86994 0.68543 0.0
H463 H 0.71144 0.98555 0.69081 0.0
loop_
_geom_bond_atom_site_label_1
_geom_bond_atom_site_label_2
_geom_bond_distance
_geom_bond_site_symmetry_2
_ccdc_geom_bond_type
Zn0 O2 1.933 . S
Zn0 O20 1.985 . S
Zn0 O31 1.955 . S
Zn1 O2 1.911 . S
Zn1 O21 1.970 . S
Zn1 O37 1.945 . S
Zn1 O44 1.981 . S
O2 Zn0 1.933 . S
O2 Zn1 1.911 . S
O2 H3 0.841 . S
H3 O2 0.841 . S
C4 O5 1.246 . S
C4 O33 1.276 . S
O5 C4 1.246 . S
Zn6 O8 1.911 . S
Zn6 O23 1.970 . S
Zn6 O40 1.945 . S
Zn6 O47 1.981 . S
Zn7 O8 1.933 . S
Zn7 O22 1.985 . S
Zn7 O29 1.955 . S
O8 Zn6 1.911 . S
O8 Zn7 1.933 . S
O8 H9 0.841 . S
H9 O8 0.841 . S
Zn10 O11 1.933 . S
Zn10 O24 1.985 . S
Zn10 O33 1.955 . S
O11 Zn10 1.933 . S
O11 Zn12 1.911 . S
O11 H13 0.841 . S
Zn12 O11 1.911 . S
Zn12 O25 1.970 . S
Zn12 O41 1.981 . S
Zn12 O43 1.945 . S
H13 O11 0.841 . S
Zn14 O15 1.933 . S
Zn14 O27 1.985 . S
Zn14 O35 1.955 . S
O15 Zn14 1.933 . S
O15 H16 0.841 . S
O15 Zn17 1.911 . S
H16 O15 0.841 . S
Zn17 O15 1.911 . S
Zn17 O28 1.970 . S
Zn17 O38 1.981 . S
Zn17 O46 1.945 . S
C18 O19 1.246 . S
C18 O35 1.276 . S
O19 C18 1.246 . S
O20 Zn0 1.985 . S
O20 C30 1.245 . S
O21 Zn1 1.970 . S
O21 C30 1.263 . S
O22 Zn7 1.985 . S
O22 C34 1.245 . S
O23 Zn6 1.970 . S
O23 C34 1.263 . S
O24 Zn10 1.985 . S
O24 C39 1.245 . S
O25 Zn12 1.970 . S
O25 C39 1.263 . S
C26 O37 1.262 . S
C26 O38 1.245 . S
O27 Zn14 1.985 . S
O27 C45 1.245 . S
O28 Zn17 1.970 . S
O28 C45 1.263 . S
O29 Zn7 1.955 . S
O29 C48 1.276 . S
C30 O20 1.245 . S
C30 O21 1.263 . S
O31 Zn0 1.955 . S
O31 C50 1.276 . S
C32 O40 1.262 . S
C32 O41 1.245 . S
O33 C4 1.276 . S
O33 Zn10 1.955 . S
C34 O22 1.245 . S
C34 O23 1.263 . S
O35 Zn14 1.955 . S
O35 C18 1.276 . S
C36 O43 1.262 . S
C36 O44 1.245 . S
O37 Zn1 1.945 . S
O37 C26 1.262 . S
O38 Zn17 1.981 . S
O38 C26 1.245 . S
C39 O24 1.245 . S
C39 O25 1.263 . S
O40 Zn6 1.945 . S
O40 C32 1.262 . S
O41 Zn12 1.981 . S
O41 C32 1.245 . S
C42 O46 1.262 . S
C42 O47 1.245 . S
O43 Zn12 1.945 . S
O43 C36 1.262 . S
O44 Zn1 1.981 . S
O44 C36 1.245 . S
C45 O27 1.245 . S
C45 O28 1.263 . S
O46 Zn17 1.945 . S
O46 C42 1.262 . S
O47 Zn6 1.981 . S
O47 C42 1.245 . S
C48 O29 1.276 . S
C48 O49 1.246 . S
O49 C48 1.246 . S
C50 O31 1.276 . S
C50 O51 1.246 . S
O51 C50 1.246 . S
Zn52 O54 1.933 . S
Zn52 O72 1.985 . S
Zn52 O83 1.955 . S
Zn53 O54 1.911 . S
Zn53 O73 1.970 . S
Zn53 O89 1.945 . S
Zn53 O96 1.981 . S
O54 Zn52 1.933 . S
O54 Zn53 1.911 . S
O54 H55 0.841 . S
H55 O54 0.841 . S
C56 O57 1.246 . S
C56 O85 1.276 . S
O57 C56 1.246 . S
Zn58 O60 1.911 . S
Zn58 O75 1.970 . S
Zn58 O92 1.945 . S
Zn58 O99 1.981 . S
Zn59 O60 1.933 . S
Zn59 O74 1.985 . S
Zn59 O81 1.955 . S
O60 Zn58 1.911 . S
O60 Zn59 1.933 . S
O60 H61 0.841 . S
H61 O60 0.841 . S
Zn62 O63 1.933 . S
Zn62 O76 1.985 . S
Zn62 O85 1.955 . S
O63 Zn62 1.933 . S
O63 Zn64 1.911 . S
O63 H65 0.841 . S
Zn64 O63 1.911 . S
Zn64 O77 1.970 . S
Zn64 O93 1.981 . S
Zn64 O95 1.945 . S
H65 O63 0.841 . S
Zn66 O67 1.933 . S
Zn66 O79 1.985 . S
Zn66 O87 1.955 . S
O67 Zn66 1.933 . S
O67 H68 0.841 . S
O67 Zn69 1.911 . S
H68 O67 0.841 . S
Zn69 O67 1.911 . S
Zn69 O80 1.970 . S
Zn69 O90 1.981 . S
Zn69 O98 1.945 . S
C70 O71 1.246 . S
C70 O87 1.276 . S
O71 C70 1.246 . S
O72 Zn52 1.985 . S
O72 C82 1.245 . S
O73 Zn53 1.970 . S
O73 C82 1.263 . S
O74 Zn59 1.985 . S
O74 C86 1.245 . S
O75 Zn58 1.970 . S
O75 C86 1.263 . S
O76 Zn62 1.985 . S
O76 C91 1.245 . S
O77 Zn64 1.970 . S
O77 C91 1.263 . S
C78 O89 1.262 . S
C78 O90 1.245 . S
O79 Zn66 1.985 . S
O79 C97 1.245 . S
O80 Zn69 1.970 . S
O80 C97 1.263 . S
O81 Zn59 1.955 . S
O81 C100 1.276 . S
C82 O72 1.245 . S
C82 O73 1.263 . S
O83 Zn52 1.955 . S
O83 C102 1.276 . S
C84 O92 1.262 . S
C84 O93 1.245 . S
O85 C56 1.276 . S
O85 Zn62 1.955 . S
C86 O74 1.245 . S
C86 O75 1.263 . S
O87 Zn66 1.955 . S
O87 C70 1.276 . S
C88 O95 1.262 . S
C88 O96 1.245 . S
O89 Zn53 1.945 . S
O89 C78 1.262 . S
O90 Zn69 1.981 . S
O90 C78 1.245 . S
C91 O76 1.245 . S
C91 O77 1.263 . S
O92 Zn58 1.945 . S
O92 C84 1.262 . S
O93 Zn64 1.981 . S
O93 C84 1.245 . S
C94 O98 1.262 . S
C94 O99 1.245 . S
O95 Zn64 1.945 . S
O95 C88 1.262 . S
O96 Zn53 1.981 . S
O96 C88 1.245 . S
C97 O79 1.245 . S
C97 O80 1.263 . S
O98 Zn69 1.945 . S
O98 C94 1.262 . S
O99 Zn58 1.981 . S
O99 C94 1.245 . S
C100 O81 1.276 . S
C100 O101 1.246 . S
O101 C100 1.246 . S
C102 O83 1.276 . S
C102 O103 1.246 . S
O103 C102 1.246 . S
C104 C105 1.349 . S
C104 C106 1.327 . S
C104 H129 0.950 . S
C105 C104 1.349 . S
C105 C121 1.349 . S
C106 C104 1.327 . S
C106 C125 1.429 . S
C106 H130 0.950 . S
C107 C124 1.574 1_556 S
C107 C126 1.368 . S
C107 H131 0.949 . S
H108 C112 0.949 . S
C109 C110 1.349 . S
C109 C111 1.327 . S
C109 H132 0.950 . S
C110 C109 1.349 . S
C110 C122 1.349 . S
C111 C109 1.327 . S
C111 C127 1.429 . S
C111 H133 0.950 . S
C112 H108 0.949 . S
C112 C120 1.546 1_554 S
C112 C128 1.396 . S
H113 C121 0.950 . S
H114 C119 0.950 . S
H115 C120 0.949 . S
H116 C122 0.950 . S
H117 C123 0.950 . S
H118 C124 0.949 . S
C119 H114 0.950 . S
C119 C121 1.327 . S
C119 C125 1.429 . S
C120 C112 1.546 1_556 S
C120 H115 0.949 . S
C120 C126 1.368 1_545 S
C121 C105 1.349 . S
C121 H113 0.950 . S
C121 C119 1.327 . S
C122 C110 1.349 . S
C122 H116 0.950 . S
C122 C123 1.327 . S
C123 H117 0.950 . S
C123 C122 1.327 . S
C123 C127 1.429 . S
C124 C107 1.574 1_554 S
C124 H118 0.949 . S
C124 C128 1.368 1_565 S
C125 C106 1.429 . S
C125 C119 1.429 . S
C125 C126 1.523 . S
C126 C107 1.368 . S
C126 C120 1.368 1_565 S
C126 C125 1.523 . S
C127 C111 1.429 . S
C127 C123 1.429 . S
C127 C128 1.523 . S
C128 C112 1.396 . S
C128 C124 1.368 1_545 S
C128 C127 1.523 . S
H129 C104 0.950 . S
H130 C106 0.950 . S
H131 C107 0.949 . S
H132 C109 0.950 . S
H133 C111 0.950 . S
C134 C135 1.349 . S
C134 C136 1.327 . S
C134 H159 0.950 . S
C135 C134 1.349 . S
C135 C151 1.349 . S
C136 C134 1.327 . S
C136 C155 1.429 . S
C136 H160 0.950 . S
C137 C154 1.574 . S
C137 C156 1.368 . S
C137 H161 0.949 . S
H138 C142 0.949 . S
C139 C140 1.349 . S
C139 C141 1.327 . S
C139 H162 0.950 . S
C140 C139 1.349 . S
C140 C152 1.349 . S
C141 C139 1.327 . S
C141 C157 1.429 . S
C141 H163 0.950 . S
C142 H138 0.949 . S
C142 C150 1.574 . S
C142 C158 1.368 . S
H143 C151 0.950 . S
H144 C149 0.950 . S
H145 C150 0.949 . S
H146 C152 0.950 . S
H147 C153 0.950 . S
H148 C154 0.949 . S
C149 H144 0.950 . S
C149 C151 1.327 . S
C149 C155 1.429 . S
C150 C142 1.574 . S
C150 H145 0.949 . S
C150 C156 1.368 . S
C151 C135 1.349 . S
C151 H143 0.950 . S
C151 C149 1.327 . S
C152 C140 1.349 . S
C152 H146 0.950 . S
C152 C153 1.327 . S
C153 H147 0.950 . S
C153 C152 1.327 . S
C153 C157 1.429 . S
C154 C137 1.574 . S
C154 H148 0.949 . S
C154 C158 1.368 . S
C155 C136 1.429 . S
C155 C149 1.429 . S
C155 C156 1.523 . S
C156 C137 1.368 . S
C156 C150 1.368 . S
C156 C155 1.523 . S
C157 C141 1.429 . S
C157 C153 1.429 . S
C157 C158 1.523 . S
C158 C142 1.368 . S
C158 C154 1.368 . S
C158 C157 1.523 . S
H159 C134 0.950 . S
H160 C136 0.950 . S
H161 C137 0.949 . S
H162 C139 0.950 . S
H163 C141 0.950 . S
C164 C165 1.349 . S
C164 C166 1.327 . S
C164 H189 0.950 . S
C165 C164 1.349 . S
C165 C181 1.349 . S
C166 C164 1.327 . S
C166 C185 1.429 . S
C166 H190 0.953 . S
C167 C184 1.574 . S
C167 C186 1.368 1_556 S
C167 H191 0.949 . S
H168 C172 0.949 . S
C169 C170 1.349 . S
C169 C171 1.327 . S
C169 H192 0.950 . S
C170 C169 1.349 . S
C170 C182 1.349 . S
C171 C169 1.327 . S
C171 C187 1.429 . S
C171 H193 0.950 1_455 S
C172 H168 0.949 . S
C172 C180 1.574 1_556 S
C172 C188 1.368 . S
H173 C181 0.950 . S
H174 C179 0.950 . S
H175 C180 0.949 . S
H176 C182 0.950 . S
H177 C183 0.950 . S
H178 C184 0.949 . S
C179 H174 0.950 . S
C179 C181 1.327 . S
C179 C185 1.429 . S
C180 C172 1.574 1_554 S
C180 H175 0.949 . S
C180 C186 1.368 1_455 S
C181 C165 1.349 . S
C181 H173 0.950 . S
C181 C179 1.327 . S
C182 C170 1.349 . S
C182 H176 0.950 . S
C182 C183 1.327 . S
C183 H177 0.950 . S
C183 C182 1.327 . S
C183 C187 1.429 . S
C184 C167 1.574 . S
C184 H178 0.949 . S
C184 C188 1.368 1_655 S
C185 C166 1.429 . S
C185 C179 1.429 . S
C185 C186 1.523 . S
C186 C167 1.368 1_554 S
C186 C180 1.368 1_655 S
C186 C185 1.523 . S
C187 C171 1.429 . S
C187 C183 1.429 . S
C187 C188 1.523 . S
C188 C172 1.368 . S
C188 C184 1.368 1_455 S
C188 C187 1.523 . S
H189 C164 0.950 . S
H190 C166 0.953 . S
H191 C167 0.949 . S
H192 C169 0.950 . S
H193 C171 0.950 1_655 S
C194 C195 1.349 . S
C194 C196 1.327 . S
C194 H219 0.950 . S
C195 C194 1.349 . S
C195 C211 1.349 . S
C196 C194 1.327 . S
C196 C215 1.429 . S
C196 H220 0.950 . S
C197 C214 1.574 . S
C197 C216 1.368 . S
C197 H221 0.949 . S
H198 C202 0.949 . S
C199 C200 1.349 . S
C199 C201 1.327 . S
C199 H222 0.950 . S
C200 C199 1.349 . S
C200 C212 1.349 . S
C201 C199 1.327 . S
C201 C217 1.429 . S
C201 H223 0.950 . S
C202 H198 0.949 . S
C202 C210 1.574 . S
C202 C218 1.368 . S
H203 C211 0.950 . S
H204 C209 0.950 . S
H205 C210 0.949 . S
H206 C212 0.950 . S
H207 C213 0.950 . S
H208 C214 0.949 . S
C209 H204 0.950 . S
C209 C211 1.327 . S
C209 C215 1.429 . S
C210 C202 1.574 . S
C210 H205 0.949 . S
C210 C216 1.368 1_545 S
C211 C195 1.349 . S
C211 H203 0.950 . S
C211 C209 1.327 . S
C212 C200 1.349 . S
C212 H206 0.950 . S
C212 C213 1.327 . S
C213 H207 0.950 . S
C213 C212 1.327 . S
C213 C217 1.429 . S
C214 C197 1.574 . S
C214 H208 0.949 . S
C214 C218 1.368 1_565 S
C215 C196 1.429 . S
C215 C209 1.429 . S
C215 C216 1.523 . S
C216 C197 1.368 . S
C216 C210 1.368 1_565 S
C216 C215 1.523 . S
C217 C201 1.429 . S
C217 C213 1.429 . S
C217 C218 1.523 . S
C218 C202 1.368 . S
C218 C214 1.368 1_545 S
C218 C217 1.523 . S
H219 C194 0.950 . S
H220 C196 0.950 . S
H221 C197 0.949 . S
H222 C199 0.950 . S
H223 C201 0.950 . S
C224 C225 1.349 . S
C224 C226 1.327 . S
C224 H249 0.950 . S
C225 C224 1.349 . S
C225 C241 1.349 . S
C226 C224 1.327 . S
C226 C245 1.429 . S
C226 H250 0.950 . S
C227 C244 1.574 1_554 S
C227 C246 1.368 . S
C227 H251 0.949 . S
H228 C232 0.949 . S
C229 C230 1.349 . S
C229 C231 1.327 . S
C229 H252 0.950 . S
C230 C229 1.349 . S
C230 C242 1.349 . S
C231 C229 1.327 . S
C231 C247 1.429 . S
C231 H253 0.950 . S
C232 H228 0.949 . S
C232 C240 1.574 1_556 S
C232 C248 1.368 . S
H233 C241 0.950 . S
H234 C239 0.950 . S
H235 C240 0.949 . S
H236 C242 0.950 . S
H237 C243 0.950 . S
H238 C244 0.949 . S
C239 H234 0.950 . S
C239 C241 1.327 . S
C239 C245 1.429 . S
C240 C232 1.574 1_554 S
C240 H235 0.949 . S
C240 C246 1.368 . S
C241 C225 1.349 . S
C241 H233 0.950 . S
C241 C239 1.327 . S
C242 C230 1.349 . S
C242 H236 0.950 . S
C242 C243 1.327 . S
C243 H237 0.950 . S
C243 C242 1.327 . S
C243 C247 1.429 . S
C244 C227 1.574 1_556 S
C244 H238 0.949 . S
C244 C248 1.368 . S
C245 C226 1.429 . S
C245 C239 1.429 . S
C245 C246 1.523 . S
C246 C227 1.368 . S
C246 C240 1.368 . S
C246 C245 1.523 . S
C247 C231 1.429 . S
C247 C243 1.429 . S
C247 C248 1.523 . S
C248 C232 1.368 . S
C248 C244 1.368 . S
C248 C247 1.523 . S
H249 C224 0.950 . S
H250 C226 0.950 . S
H251 C227 0.949 . S
H252 C229 0.950 . S
H253 C231 0.950 . S
C254 C255 1.349 . S
C254 C256 1.327 . S
C254 H279 0.950 . S
C255 C254 1.349 . S
C255 C271 1.349 . S
C256 C254 1.327 . S
C256 C275 1.429 . S
C256 H280 0.950 . S
C257 C274 1.574 1_655 S
C257 C276 1.368 . S
C257 H281 0.949 . S
H258 C262 0.949 . S
C259 C260 1.349 . S
C259 C261 1.327 . S
C259 H282 0.950 . S
C260 C259 1.349 . S
C260 C272 1.349 . S
C261 C259 1.327 . S
C261 C277 1.429 . S
C261 H283 0.950 . S
C262 H258 0.949 . S
C262 C270 1.574 1_455 S
C262 C278 1.368 . S
H263 C271 0.950 . S
H264 C269 0.950 . S
H265 C270 0.949 . S
H266 C272 0.950 . S
H267 C273 0.950 . S
H268 C274 0.949 . S
C269 H264 0.950 . S
C269 C271 1.327 . S
C269 C275 1.429 . S
C270 C262 1.574 1_655 S
C270 H265 0.949 . S
C270 C276 1.368 . S
C271 C255 1.349 . S
C271 H263 0.950 . S
C271 C269 1.327 . S
C272 C260 1.349 . S
C272 H266 0.950 . S
C272 C273 1.327 . S
C273 H267 0.950 . S
C273 C272 1.327 . S
C273 C277 1.429 . S
C274 C257 1.574 1_455 S
C274 H268 0.949 . S
C274 C278 1.368 . S
C275 C256 1.429 . S
C275 C269 1.429 . S
C275 C276 1.523 . S
C276 C257 1.368 . S
C276 C270 1.368 . S
C276 C275 1.523 . S
C277 C261 1.429 . S
C277 C273 1.429 . S
C277 C278 1.523 . S
C278 C262 1.368 . S
C278 C274 1.368 . S
C278 C277 1.523 . S
H279 C254 0.950 . S
H280 C256 0.950 . S
H281 C257 0.949 . S
H282 C259 0.950 . S
H283 C261 0.950 . S
C284 C285 1.349 . S
C284 C286 1.327 . S
C284 H309 0.950 . S
C285 C284 1.349 . S
C285 C301 1.349 . S
C286 C284 1.327 . S
C286 C305 1.429 1_545 S
C286 H310 0.950 . S
C287 C304 1.574 . S
C287 C306 1.368 . S
C287 H311 0.949 . S
H288 C292 0.949 . S
C289 C290 1.349 . S
C289 C291 1.327 . S
C289 H312 0.950 . S
C290 C289 1.349 . S
C290 C302 1.349 . S
C291 C289 1.327 . S
C291 C307 1.429 . S
C291 H313 0.950 . S
C292 H288 0.949 . S
C292 C300 1.574 . S
C292 C308 1.368 . S
H293 C301 0.950 . S
H294 C299 0.950 . S
H295 C300 0.949 . S
H296 C302 0.950 . S
H297 C303 0.950 . S
H298 C304 0.949 . S
C299 H294 0.950 . S
C299 C301 1.327 1_565 S
C299 C305 1.429 . S
C300 C292 1.574 . S
C300 H295 0.949 . S
C300 C306 1.368 . S
C301 C285 1.349 . S
C301 H293 0.950 . S
C301 C299 1.327 1_545 S
C302 C290 1.349 . S
C302 H296 0.950 . S
C302 C303 1.327 . S
C303 H297 0.950 . S
C303 C302 1.327 . S
C303 C307 1.429 . S
C304 C287 1.574 . S
C304 H298 0.949 . S
C304 C308 1.368 . S
C305 C286 1.429 1_565 S
C305 C299 1.429 . S
C305 C306 1.523 . S
C306 C287 1.368 . S
C306 C300 1.368 . S
C306 C305 1.523 . S
C307 C291 1.429 . S
C307 C303 1.429 . S
C307 C308 1.523 . S
C308 C292 1.368 . S
C308 C304 1.368 . S
C308 C307 1.523 . S
H309 C284 0.950 . S
H310 C286 0.950 . S
H311 C287 0.949 . S
H312 C289 0.950 . S
H313 C291 0.950 . S
C314 C315 1.349 . S
C314 C316 1.327 . S
C314 H339 0.950 . S
C315 C314 1.349 . S
C315 C331 1.349 . S
C316 C314 1.327 . S
C316 C335 1.429 1_455 S
C316 H340 0.950 1_455 S
C317 C334 1.574 . S
C317 C336 1.368 . S
C317 H341 0.949 . S
H318 C322 0.949 . S
C319 C320 1.349 . S
C319 C321 1.327 . S
C319 H342 0.950 . S
C320 C319 1.349 . S
C320 C332 1.349 . S
C321 C319 1.327 . S
C321 C337 1.429 . S
C321 H343 0.950 . S
C322 H318 0.949 . S
C322 C330 1.574 . S
C322 C338 1.368 . S
H323 C331 0.950 . S
H324 C329 0.950 1_655 S
H325 C330 0.949 . S
H326 C332 0.950 . S
H327 C333 0.950 . S
H328 C334 0.949 . S
C329 H324 0.950 1_455 S
C329 C331 1.327 . S
C329 C335 1.429 1_455 S
C330 C322 1.574 . S
C330 H325 0.949 . S
C330 C336 1.368 . S
C331 C315 1.349 . S
C331 H323 0.950 . S
C331 C329 1.327 . S
C332 C320 1.349 . S
C332 H326 0.950 . S
C332 C333 1.327 . S
C333 H327 0.950 . S
C333 C332 1.327 . S
C333 C337 1.429 . S
C334 C317 1.574 . S
C334 H328 0.949 . S
C334 C338 1.368 . S
C335 C316 1.429 1_655 S
C335 C329 1.429 1_655 S
C335 C336 1.523 . S
C336 C317 1.368 . S
C336 C330 1.368 . S
C336 C335 1.523 . S
C337 C321 1.429 . S
C337 C333 1.429 . S
C337 C338 1.523 . S
C338 C322 1.368 . S
C338 C334 1.368 . S
C338 C337 1.523 . S
H339 C314 0.950 . S
H340 C316 0.950 1_655 S
H341 C317 0.949 . S
H342 C319 0.950 . S
H343 C321 0.950 . S
C344 C345 1.349 . S
C344 C346 1.327 . S
C344 H369 0.950 . S
C345 C344 1.349 . S
C345 C361 1.349 . S
C346 C344 1.327 . S
C346 C365 1.429 1_545 S
C346 H370 0.950 1_545 S
C347 C364 1.574 . S
C347 C366 1.368 . S
C347 H371 0.949 . S
H348 C352 0.949 . S
C349 C350 1.349 . S
C349 C351 1.327 1_655 S
C349 H372 0.950 . S
C350 C349 1.349 . S
C350 C362 1.349 . S
C351 C349 1.327 1_455 S
C351 C367 1.429 . S
C351 H373 0.950 . S
C352 H348 0.949 . S
C352 C360 1.574 . S
C352 C368 1.368 . S
H353 C361 0.950 . S
H354 C359 0.950 . S
H355 C360 0.949 . S
H356 C362 0.950 . S
H357 C363 0.950 . S
H358 C364 0.949 . S
C359 H354 0.950 . S
C359 C361 1.327 1_565 S
C359 C365 1.429 . S
C360 C352 1.574 . S
C360 H355 0.949 . S
C360 C366 1.368 . S
C361 C345 1.349 . S
C361 H353 0.950 . S
C361 C359 1.327 1_545 S
C362 C350 1.349 . S
C362 H356 0.950 . S
C362 C363 1.327 1_655 S
C363 H357 0.950 . S
C363 C362 1.327 1_455 S
C363 C367 1.429 . S
C364 C347 1.574 . S
C364 H358 0.949 . S
C364 C368 1.368 . S
C365 C346 1.429 1_565 S
C365 C359 1.429 . S
C365 C366 1.523 . S
C366 C347 1.368 . S
C366 C360 1.368 . S
C366 C365 1.523 . S
C367 C351 1.429 . S
C367 C363 1.429 . S
C367 C368 1.523 . S
C368 C352 1.368 . S
C368 C364 1.368 . S
C368 C367 1.523 . S
H369 C344 0.950 . S
H370 C346 0.950 1_565 S
H371 C347 0.949 . S
H372 C349 0.950 . S
H373 C351 0.950 . S
C374 C375 1.349 . S
C374 C376 1.327 . S
C374 H399 0.950 . S
C375 C374 1.349 . S
C375 C391 1.349 . S
C376 C374 1.327 . S
C376 C395 1.429 . S
C376 H400 0.950 . S
C377 C394 1.574 . S
C377 C396 1.368 . S
C377 H401 0.949 . S
H378 C382 0.949 . S
C379 C380 1.349 . S
C379 C381 1.327 1_565 S
C379 H402 0.950 . S
C380 C379 1.349 . S
C380 C392 1.349 . S
C381 C379 1.327 1_545 S
C381 C397 1.429 . S
C381 H403 0.950 . S
C382 H378 0.949 . S
C382 C390 1.574 . S
C382 C398 1.368 . S
H383 C391 0.950 . S
H384 C389 0.950 . S
H385 C390 0.949 . S
H386 C392 0.950 . S
H387 C393 0.950 1_545 S
H388 C394 0.949 . S
C389 H384 0.950 . S
C389 C391 1.327 . S
C389 C395 1.429 . S
C390 C382 1.574 . S
C390 H385 0.949 . S
C390 C396 1.368 . S
C391 C375 1.349 . S
C391 H383 0.950 . S
C391 C389 1.327 . S
C392 C380 1.349 . S
C392 H386 0.950 . S
C392 C393 1.327 . S
C393 H387 0.950 1_565 S
C393 C392 1.327 . S
C393 C397 1.429 1_565 S
C394 C377 1.574 . S
C394 H388 0.949 . S
C394 C398 1.368 . S
C395 C376 1.429 . S
C395 C389 1.429 . S
C395 C396 1.523 . S
C396 C377 1.368 . S
C396 C390 1.368 . S
C396 C395 1.523 . S
C397 C381 1.429 . S
C397 C393 1.429 1_545 S
C397 C398 1.523 . S
C398 C382 1.368 . S
C398 C394 1.368 . S
C398 C397 1.523 . S
H399 C374 0.950 . S
H400 C376 0.950 . S
H401 C377 0.949 . S
H402 C379 0.950 . S
H403 C381 0.950 . S
C404 C405 1.349 . S
C404 C406 1.327 . S
C404 H429 0.950 . S
C405 C404 1.349 . S
C405 C421 1.349 . S
C406 C404 1.327 . S
C406 C425 1.429 . S
C406 H430 0.950 . S
C407 C424 1.574 . S
C407 C426 1.368 . S
C407 H431 0.949 . S
H408 C412 0.949 . S
C409 C410 1.349 . S
C409 C411 1.327 . S
C409 H432 0.950 . S
C410 C409 1.349 . S
C410 C422 1.349 . S
C411 C409 1.327 . S
C411 C427 1.429 1_655 S
C411 H433 0.950 . S
C412 H408 0.949 . S
C412 C420 1.574 . S
C412 C428 1.368 . S
H413 C421 0.950 . S
H414 C419 0.950 . S
H415 C420 0.949 . S
H416 C422 0.950 . S
H417 C423 0.950 . S
H418 C424 0.949 . S
C419 H414 0.950 . S
C419 C421 1.327 . S
C419 C425 1.429 . S
C420 C412 1.574 . S
C420 H415 0.949 . S
C420 C426 1.368 . S
C421 C405 1.349 . S
C421 H413 0.950 . S
C421 C419 1.327 . S
C422 C410 1.349 . S
C422 H416 0.950 . S
C422 C423 1.327 1_655 S
C423 H417 0.950 . S
C423 C422 1.327 1_455 S
C423 C427 1.429 . S
C424 C407 1.574 . S
C424 H418 0.949 . S
C424 C428 1.368 . S
C425 C406 1.429 . S
C425 C419 1.429 . S
C425 C426 1.523 . S
C426 C407 1.368 . S
C426 C420 1.368 . S
C426 C425 1.523 . S
C427 C411 1.429 1_455 S
C427 C423 1.429 . S
C427 C428 1.523 . S
C428 C412 1.368 . S
C428 C424 1.368 . S
C428 C427 1.523 . S
H429 C404 0.950 . S
H430 C406 0.950 . S
H431 C407 0.949 . S
H432 C409 0.950 . S
H433 C411 0.950 . S
C434 C435 1.349 . S
C434 C436 1.327 1_455 S
C434 H459 0.950 . S
C435 C434 1.349 . S
C435 C451 1.349 . S
C436 C434 1.327 1_655 S
C436 C455 1.429 . S
C436 H460 0.950 . S
C437 C454 1.574 . S
C437 C456 1.368 . S
C437 H461 0.949 . S
H438 C442 0.949 . S
C439 C440 1.349 . S
C439 C441 1.327 . S
C439 H462 0.950 . S
C440 C439 1.349 . S
C440 C452 1.349 . S
C441 C439 1.327 . S
C441 C457 1.429 1_565 S
C441 H463 0.950 . S
C442 H438 0.949 . S
C442 C450 1.574 . S
C442 C458 1.368 . S
H443 C451 0.950 . S
H444 C449 0.950 . S
H445 C450 0.949 . S
H446 C452 0.950 . S
H447 C453 0.950 . S
H448 C454 0.949 . S
C449 H444 0.950 . S
C449 C451 1.327 . S
C449 C455 1.429 1_455 S
C450 C442 1.574 . S
C450 H445 0.949 . S
C450 C456 1.368 . S
C451 C435 1.349 . S
C451 H443 0.950 . S
C451 C449 1.327 . S
C452 C440 1.349 . S
C452 H446 0.950 . S
C452 C453 1.327 1_565 S
C453 H447 0.950 . S
C453 C452 1.327 1_545 S
C453 C457 1.429 . S
C454 C437 1.574 . S
C454 H448 0.949 . S
C454 C458 1.368 . S
C455 C436 1.429 . S
C455 C449 1.429 1_655 S
C455 C456 1.523 . S
C456 C437 1.368 . S
C456 C450 1.368 . S
C456 C455 1.523 . S
C457 C441 1.429 1_545 S
C457 C453 1.429 . S
C457 C458 1.523 . S
C458 C442 1.368 . S
C458 C454 1.368 . S
C458 C457 1.523 . S
H459 C434 0.950 . S
H460 C436 0.950 . S
H461 C437 0.949 . S
H462 C439 0.950 . S
H463 C441 0.950 . S
C105 C97 0.515 . S
C110 C39 0.515 . S
C135 C88 2.238 . S
C140 C18 2.210 . S
C165 C36 1.837 . S
C170 C70 1.824 . S
C195 C84 2.836 . S
C200 C50 2.837 . S
C225 C32 1.794 . S
C230 C102 1.780 . S
C255 C45 1.553 . S
C260 C91 1.554 . S
C285 C4 1.256 . S
C290 C42 1.265 . S
C315 C86 0.597 . S
C320 C82 0.597 . S
C345 C48 1.340 . S
C350 C26 1.348 . S
C375 C56 1.256 . S
C380 C94 1.265 . S
C405 C34 0.596 . S
C410 C30 0.596 . S
C435 C100 1.340 . S
C440 C78 1.348 . S
