# Generated by pormake.
# Topology uku, (4)-cn, num edge types: 1
# Building blocks:
#     Node 0, Type 0, BuildingBlock: QUQFOY_clean_sbu_1, # of connection points: 4
#     Node 1, Type 0, BuildingBlock: QUQFOY_clean_sbu_1, # of connection points: 4
#     Node 2, Type 0, BuildingBlock: QUQFOY_clean_sbu_1, # of connection points: 4
#     Node 3, Type 0, BuildingBlock: QUQFOY_clean_sbu_1, # of connection points: 4
#     Node 4, Type 0, BuildingBlock: QUQFOY_clean_sbu_1, # of connection points: 4
#     Node 5, Type 0, BuildingBlock: QUQFOY_clean_sbu_1, # of connection points: 4
#     Node 6, Type 0, BuildingBlock: QUQFOY_clean_sbu_1, # of connection points: 4
#     Node 7, Type 0, BuildingBlock: QUQFOY_clean_sbu_1, # of connection points: 4
#     Node 8, Type 0, BuildingBlock: QUQFOY_clean_sbu_1, # of connection points: 4
#     Node 9, Type 0, BuildingBlock: QUQFOY_clean_sbu_1, # of connection points: 4
#     Node 10, Type 0, BuildingBlock: QUQFOY_clean_sbu_1, # of connection points: 4
#     Node 11, Type 0, BuildingBlock: QUQFOY_clean_sbu_1, # of connection points: 4
#     Edge 12, Type (0, 0), BuildingBlock: KIFKEQ_clean_linker_1, # of connection points: 2
#     Edge 13, Type (0, 0), BuildingBlock: KIFKEQ_clean_linker_1, # of connection points: 2
#     Edge 14, Type (0, 0), BuildingBlock: KIFKEQ_clean_linker_1, # of connection points: 2
#     Edge 15, Type (0, 0), BuildingBlock: KIFKEQ_clean_linker_1, # of connection points: 2
#     Edge 16, Type (0, 0), BuildingBlock: KIFKEQ_clean_linker_1, # of connection points: 2
#     Edge 17, Type (0, 0), BuildingBlock: KIFKEQ_clean_linker_1, # of connection points: 2
#     Edge 18, Type (0, 0), BuildingBlock: KIFKEQ_clean_linker_1, # of connection points: 2
#     Edge 19, Type (0, 0), BuildingBlock: KIFKEQ_clean_linker_1, # of connection points: 2
#     Edge 20, Type (0, 0), BuildingBlock: KIFKEQ_clean_linker_1, # of connection points: 2
#     Edge 21, Type (0, 0), BuildingBlock: KIFKEQ_clean_linker_1, # of connection points: 2
#     Edge 22, Type (0, 0), BuildingBlock: KIFKEQ_clean_linker_1, # of connection points: 2
#     Edge 23, Type (0, 0), BuildingBlock: KIFKEQ_clean_linker_1, # of connection points: 2
#     Edge 24, Type (0, 0), BuildingBlock: KIFKEQ_clean_linker_1, # of connection points: 2
#     Edge 25, Type (0, 0), BuildingBlock: KIFKEQ_clean_linker_1, # of connection points: 2
#     Edge 26, Type (0, 0), BuildingBlock: KIFKEQ_clean_linker_1, # of connection points: 2
#     Edge 27, Type (0, 0), BuildingBlock: KIFKEQ_clean_linker_1, # of connection points: 2
#     Edge 28, Type (0, 0), BuildingBlock: KIFKEQ_clean_linker_1, # of connection points: 2
#     Edge 29, Type (0, 0), BuildingBlock: KIFKEQ_clean_linker_1, # of connection points: 2
#     Edge 30, Type (0, 0), BuildingBlock: KIFKEQ_clean_linker_1, # of connection points: 2
#     Edge 31, Type (0, 0), BuildingBlock: KIFKEQ_clean_linker_1, # of connection points: 2
#     Edge 32, Type (0, 0), BuildingBlock: KIFKEQ_clean_linker_1, # of connection points: 2
#     Edge 33, Type (0, 0), BuildingBlock: KIFKEQ_clean_linker_1, # of connection points: 2
#     Edge 34, Type (0, 0), BuildingBlock: KIFKEQ_clean_linker_1, # of connection points: 2
#     Edge 35, Type (0, 0), BuildingBlock: KIFKEQ_clean_linker_1, # of connection points: 2
# Relax obj value: 0.261
# Max RMSD: 0.220
# Mean RMSD: 0.220
data_MOF--net-uku--node1-QUQFOY_clean_sbu_1--edge1-KIFKEQ_clean_linker_1
_symmetry_space_group_name_H-M    P1
_symmetry_Int_Tables_number       1
_symmetry_cell_setting            triclinic
loop_
_symmetry_equiv_pos_as_xyz
'x, y, z'
_cell_length_a     44.113736
_cell_length_b     44.145123
_cell_length_c     44.111468
_cell_angle_alpha  89.996851
_cell_angle_beta   89.998781
_cell_angle_gamma 89.953356
loop_
_atom_site_label
_atom_site_type_symbol
_atom_site_fract_x
_atom_site_fract_y
_atom_site_fract_z
_atom_type_partial_charge
O0 O 0.08025 0.10046 0.61852 0.0
Cd1 Cd 0.10425 0.13998 0.61258 0.0
Cd2 Cd 0.08895 0.1471 0.6679 0.0
O3 O 0.05449 0.11728 0.65781 0.0
O4 O 0.0996 0.15087 0.56897 0.0
O5 O 0.07731 0.17596 0.6064 0.0
C6 C 0.08025 0.17113 0.57762 0.0
C7 C 0.08335 0.19126 0.69652 0.0
C8 C 0.05863 0.09743 0.63733 0.0
C9 C 0.15277 0.12882 0.65496 0.0
O10 O 0.13059 0.12701 0.67318 0.0
O11 O 0.14884 0.13911 0.62829 0.0
O12 O 0.07994 0.16478 0.70839 0.0
O13 O 0.08803 0.19284 0.66767 0.0
O14 O 0.91923 0.89908 0.61938 0.0
Cd15 Cd 0.89612 0.85934 0.61316 0.0
Cd16 Cd 0.91873 0.84637 0.66617 0.0
O17 O 0.94931 0.88003 0.65454 0.0
O18 O 0.90028 0.84642 0.56983 0.0
O19 O 0.92527 0.82533 0.60812 0.0
C20 C 0.92136 0.82829 0.57924 0.0
C21 C 0.93012 0.80191 0.69274 0.0
C22 C 0.94246 0.90133 0.63628 0.0
C23 C 0.85236 0.86251 0.66216 0.0
O24 O 0.87649 0.86154 0.67783 0.0
O25 O 0.85354 0.85786 0.63368 0.0
O26 O 0.93348 0.82825 0.70487 0.0
O27 O 0.92287 0.80077 0.66443 0.0
O28 O 0.08634 0.90376 0.38345 0.0
Cd29 Cd 0.10857 0.86355 0.39032 0.0
Cd30 Cd 0.08429 0.85023 0.33841 0.0
O31 O 0.05356 0.8833 0.35175 0.0
O32 O 0.10443 0.85049 0.43373 0.0
O33 O 0.07885 0.83011 0.3955 0.0
C34 C 0.08311 0.83267 0.42435 0.0
C35 C 0.07293 0.80553 0.31222 0.0
C36 C 0.06188 0.90546 0.3683 0.0
C37 C 0.15074 0.86614 0.3404 0.0
O38 O 0.12605 0.86597 0.32559 0.0
O39 O 0.15048 0.86078 0.36878 0.0
O40 O 0.06862 0.8318 0.30019 0.0
O41 O 0.08109 0.80457 0.34029 0.0
O42 O 0.91748 0.10094 0.38445 0.0
Cd43 Cd 0.89363 0.14015 0.39168 0.0
Cd44 Cd 0.9185 0.15487 0.34085 0.0
O45 O 0.95025 0.12258 0.35363 0.0
O46 O 0.89588 0.15029 0.43581 0.0
O47 O 0.92059 0.17542 0.39997 0.0
C48 C 0.91595 0.17039 0.42847 0.0
C49 C 0.92913 0.20007 0.31524 0.0
C50 C 0.9422 0.09999 0.3697 0.0
C51 C 0.85239 0.13663 0.34139 0.0
O52 O 0.87735 0.13802 0.32708 0.0
O53 O 0.8519 0.14154 0.36984 0.0
O54 O 0.93414 0.17402 0.30302 0.0
O55 O 0.92057 0.20059 0.34321 0.0
O56 O 0.62284 0.08638 0.0981 0.0
Cd57 Cd 0.61428 0.10888 0.13779 0.0
Cd58 Cd 0.66535 0.08481 0.15296 0.0
O59 O 0.65382 0.05367 0.11964 0.0
O60 O 0.57007 0.10532 0.1471 0.0
O61 O 0.60609 0.0807 0.17215 0.0
C62 C 0.57757 0.08484 0.16675 0.0
C63 C 0.69066 0.07366 0.19823 0.0
C64 C 0.63811 0.062 0.09688 0.0
C65 C 0.66354 0.15127 0.13623 0.0
O66 O 0.6784 0.12662 0.13733 0.0
O67 O 0.635 0.15102 0.14059 0.0
O68 O 0.70328 0.06952 0.1722 0.0
O69 O 0.6625 0.08159 0.19862 0.0
O70 O 0.38082 0.91868 0.09879 0.0
Cd71 Cd 0.3903 0.89603 0.1382 0.0
Cd72 Cd 0.33921 0.91938 0.15438 0.0
O73 O 0.34973 0.95081 0.12101 0.0
O74 O 0.43457 0.90002 0.14687 0.0
O75 O 0.39867 0.92402 0.17269 0.0
C76 C 0.42715 0.92023 0.16683 0.0
C77 C 0.31379 0.93013 0.19968 0.0
C78 C 0.36515 0.94281 0.09794 0.0
C79 C 0.34167 0.85301 0.13714 0.0
O80 O 0.32653 0.87745 0.13877 0.0
O81 O 0.37028 0.85358 0.14091 0.0
O82 O 0.3011 0.93406 0.17367 0.0
O83 O 0.34207 0.92265 0.20007 0.0
O84 O 0.62095 0.91934 0.9008 0.0
Cd85 Cd 0.61218 0.89624 0.86152 0.0
Cd86 Cd 0.66333 0.9196 0.846 0.0
O87 O 0.6522 0.95142 0.87882 0.0
O88 O 0.56794 0.89977 0.85253 0.0
O89 O 0.60375 0.92384 0.82672 0.0
C90 C 0.57528 0.91989 0.83247 0.0
C91 C 0.68896 0.92967 0.80065 0.0
C92 C 0.63644 0.94357 0.9017 0.0
C93 C 0.66103 0.85346 0.86403 0.0
O94 O 0.67605 0.87796 0.86243 0.0
O95 O 0.63251 0.85385 0.8596 0.0
O96 O 0.70149 0.93407 0.82667 0.0
O97 O 0.6607 0.92213 0.80025 0.0
O98 O 0.3789 0.08518 0.90172 0.0
Cd99 Cd 0.38778 0.10807 0.86237 0.0
Cd100 Cd 0.33577 0.0859 0.84735 0.0
O101 O 0.34621 0.05406 0.88043 0.0
O102 O 0.432 0.10408 0.85344 0.0
O103 O 0.39599 0.08045 0.82752 0.0
C104 C 0.42449 0.08412 0.83329 0.0
C105 C 0.31061 0.07565 0.80176 0.0
C106 C 0.36262 0.0615 0.90298 0.0
C107 C 0.33993 0.15206 0.86517 0.0
O108 O 0.32423 0.128 0.86342 0.0
O109 O 0.36844 0.15091 0.86075 0.0
O110 O 0.29743 0.07226 0.82762 0.0
O111 O 0.33904 0.08251 0.80176 0.0
O112 O 0.10171 0.62086 0.08277 0.0
Cd113 Cd 0.14076 0.6145 0.10702 0.0
Cd114 Cd 0.15457 0.66665 0.08347 0.0
O115 O 0.12091 0.65581 0.05263 0.0
O116 O 0.15126 0.57053 0.10468 0.0
O117 O 0.17623 0.60661 0.08015 0.0
C118 C 0.17127 0.57808 0.08458 0.0
C119 C 0.19975 0.69198 0.07223 0.0
C120 C 0.09955 0.63765 0.05947 0.0
C121 C 0.13729 0.66413 0.14979 0.0
O122 O 0.13918 0.67928 0.12539 0.0
O123 O 0.1413 0.63555 0.14929 0.0
O124 O 0.17372 0.7047 0.06853 0.0
O125 O 0.20017 0.66373 0.07974 0.0
O126 O 0.1029 0.38167 0.92014 0.0
Cd127 Cd 0.14281 0.3897 0.89779 0.0
Cd128 Cd 0.15807 0.33939 0.9237 0.0
O129 O 0.12423 0.35175 0.95398 0.0
O130 O 0.15257 0.43389 0.90068 0.0
O131 O 0.17683 0.39809 0.9263 0.0
C132 C 0.17187 0.42655 0.92155 0.0
C133 C 0.20341 0.31478 0.93581 0.0
C134 C 0.10151 0.36715 0.94498 0.0
C135 C 0.14289 0.33896 0.85688 0.0
O136 O 0.1435 0.32488 0.882 0.0
O137 O 0.14662 0.36756 0.85637 0.0
O138 O 0.17746 0.30212 0.94027 0.0
O139 O 0.20362 0.34274 0.9273 0.0
O140 O 0.89927 0.62038 0.92376 0.0
Cd141 Cd 0.86033 0.61376 0.89943 0.0
Cd142 Cd 0.84654 0.6662 0.92212 0.0
O143 O 0.87987 0.65562 0.95344 0.0
O144 O 0.85023 0.56978 0.90208 0.0
O145 O 0.82481 0.60584 0.92623 0.0
C146 C 0.8301 0.57732 0.92207 0.0
C147 C 0.80138 0.69196 0.93249 0.0
C148 C 0.90127 0.63737 0.94692 0.0
C149 C 0.86426 0.66268 0.85599 0.0
O150 O 0.86239 0.67816 0.88018 0.0
O151 O 0.86002 0.63415 0.85685 0.0
O152 O 0.82744 0.70456 0.93633 0.0
O153 O 0.80089 0.66362 0.92538 0.0
O154 O 0.90396 0.38357 0.08643 0.0
Cd155 Cd 0.86433 0.39111 0.10948 0.0
Cd156 Cd 0.84996 0.33996 0.08507 0.0
O157 O 0.8829 0.3522 0.05382 0.0
O158 O 0.85382 0.43509 0.10632 0.0
O159 O 0.82947 0.39866 0.08173 0.0
C160 C 0.83412 0.42725 0.08602 0.0
C161 C 0.80494 0.31428 0.07388 0.0
C162 C 0.90535 0.36839 0.062 0.0
C163 C 0.86704 0.34138 0.15148 0.0
O164 O 0.866 0.32674 0.12671 0.0
O165 O 0.86226 0.36984 0.15148 0.0
O166 O 0.83109 0.30197 0.06957 0.0
O167 O 0.80426 0.34234 0.08203 0.0
H168 H 0.91304 0.16396 0.49016 0.0
H169 H 0.96656 0.20497 0.41918 0.0
H170 H 0.95343 0.1741 0.52644 0.0
H171 H 0.00693 0.21519 0.45557 0.0
H172 H 0.08313 0.16936 0.51575 0.0
H173 H 0.04184 0.17893 0.4804 0.0
H174 H 0.98588 0.21086 0.5541 0.0
H175 H 0.02729 0.20121 0.58961 0.0
C176 C 0.93302 0.17595 0.48245 0.0
C177 C 0.93664 0.18332 0.45166 0.0
C178 C 0.9562 0.18186 0.50331 0.0
C179 C 0.98361 0.19511 0.49383 0.0
C180 C 0.98627 0.20457 0.46351 0.0
C181 C 0.963 0.19888 0.44269 0.0
C182 C 0.06236 0.17927 0.52433 0.0
C183 C 0.05847 0.18426 0.55556 0.0
C184 C 0.03865 0.18485 0.50402 0.0
C185 C 0.01038 0.19533 0.51447 0.0
C186 C 0.00724 0.20243 0.54539 0.0
C187 C 0.03109 0.19713 0.5657 0.0
H188 H 0.09202 0.81105 0.48208 0.0
H189 H 0.0229 0.82787 0.41515 0.0
H190 H 0.05316 0.79868 0.51923 0.0
H191 H 0.984 0.8192 0.45239 0.0
H192 H 0.9133 0.80728 0.52122 0.0
H193 H 0.95267 0.7972 0.48391 0.0
H194 H 0.02088 0.81816 0.55154 0.0
H195 H 0.98159 0.8245 0.58886 0.0
C196 C 0.06841 0.81193 0.47536 0.0
C197 C 0.06048 0.82035 0.44578 0.0
C198 C 0.04587 0.80536 0.49681 0.0
C199 C 0.01476 0.80859 0.48965 0.0
C200 C 0.00722 0.81578 0.45939 0.0
C201 C 0.02972 0.82103 0.43774 0.0
C202 C 0.93684 0.80868 0.52808 0.0
C203 C 0.94439 0.8166 0.55789 0.0
C204 C 0.95966 0.80348 0.50654 0.0
C205 C 0.99061 0.80769 0.51387 0.0
C206 C 0.99782 0.81414 0.54437 0.0
C207 C 0.97508 0.818 0.56608 0.0
H208 H 0.41716 0.97259 0.19846 0.0
H209 H 0.48888 0.91743 0.16098 0.0
H210 H 0.45331 0.01347 0.20739 0.0
H211 H 0.52494 0.95828 0.16996 0.0
H212 H 0.58756 0.03244 0.19831 0.0
H213 H 0.55139 0.99159 0.20726 0.0
H214 H 0.47971 0.04696 0.17017 0.0
H215 H 0.5158 0.08779 0.16118 0.0
C216 C 0.44077 0.96882 0.19288 0.0
C217 C 0.45007 0.94177 0.17876 0.0
C218 C 0.46144 0.99238 0.19781 0.0
C219 C 0.49193 0.98929 0.18909 0.0
C220 C 0.50166 0.96137 0.17713 0.0
C221 C 0.48095 0.93793 0.1719 0.0
C222 C 0.56394 0.03625 0.19281 0.0
C223 C 0.55464 0.06335 0.17877 0.0
C224 C 0.54326 0.01271 0.19775 0.0
C225 C 0.51275 0.01586 0.18912 0.0
C226 C 0.50301 0.04383 0.17726 0.0
C227 C 0.52374 0.06725 0.17203 0.0
H228 H 0.51355 0.91682 0.83823 0.0
H229 H 0.58499 0.97216 0.80062 0.0
H230 H 0.47731 0.95757 0.82929 0.0
H231 H 0.54865 0.01294 0.79172 0.0
H232 H 0.48625 0.087 0.8386 0.0
H233 H 0.52236 0.04623 0.82922 0.0
H234 H 0.45059 0.99104 0.7922 0.0
H235 H 0.41439 0.03187 0.80153 0.0
C236 C 0.52138 0.93733 0.82727 0.0
C237 C 0.55224 0.94126 0.82039 0.0
C238 C 0.50056 0.96072 0.82206 0.0
C239 C 0.51016 0.98866 0.8101 0.0
C240 C 0.54062 0.99182 0.8013 0.0
C241 C 0.56139 0.96832 0.80621 0.0
C242 C 0.47829 0.06652 0.82767 0.0
C243 C 0.44737 0.06266 0.82106 0.0
C244 C 0.49903 0.04313 0.82222 0.0
C245 C 0.48928 0.01523 0.81027 0.0
C246 C 0.45874 0.01212 0.80177 0.0
C247 C 0.43804 0.03565 0.80692 0.0
H248 H 0.20386 0.41705 0.9738 0.0
H249 H 0.16619 0.48826 0.91815 0.0
H250 H 0.2131 0.45353 0.01431 0.0
H251 H 0.17544 0.52467 0.95866 0.0
H252 H 0.16668 0.51635 0.08826 0.0
H253 H 0.17604 0.48002 0.04772 0.0
H254 H 0.21261 0.55145 0.9918 0.0
H255 H 0.20326 0.58788 0.03238 0.0
C256 C 0.19829 0.44062 0.96984 0.0
C257 C 0.18401 0.44967 0.94277 0.0
C258 C 0.20341 0.46148 0.99319 0.0
C259 C 0.1947 0.49193 0.98988 0.0
C260 C 0.18261 0.50142 0.96192 0.0
C261 C 0.17723 0.48051 0.93867 0.0
C262 C 0.17754 0.52418 0.06769 0.0
C263 C 0.18395 0.55509 0.06352 0.0
C264 C 0.18298 0.50332 0.04441 0.0
C265 C 0.19473 0.51291 0.01635 0.0
C266 C 0.20317 0.54343 0.013 0.0
C267 C 0.19802 0.56425 0.03639 0.0
H268 H 0.79852 0.58722 0.97453 0.0
H269 H 0.8351 0.5156 0.91869 0.0
H270 H 0.79009 0.55101 0.01549 0.0
H271 H 0.82667 0.4795 0.9596 0.0
H272 H 0.80128 0.41681 0.03448 0.0
H273 H 0.79066 0.45282 0.99386 0.0
H274 H 0.82808 0.52498 0.04825 0.0
H275 H 0.83869 0.48906 0.08887 0.0
C276 C 0.80394 0.56361 0.97061 0.0
C277 C 0.81777 0.55438 0.94337 0.0
C278 C 0.79932 0.54291 0.99422 0.0
C279 C 0.80806 0.51245 0.99099 0.0
C280 C 0.81951 0.50275 0.96283 0.0
C281 C 0.82442 0.52349 0.93934 0.0
C282 C 0.80649 0.4405 0.03815 0.0
C283 C 0.82112 0.44999 0.06487 0.0
C284 C 0.80058 0.46109 0.01474 0.0
C285 C 0.80883 0.4917 0.01764 0.0
C286 C 0.82124 0.50161 0.04531 0.0
C287 C 0.82742 0.48097 0.06862 0.0
H288 H 0.16401 0.07125 0.67086 0.0
H289 H 0.2063 0.15891 0.66356 0.0
H290 H 0.20712 0.05249 0.69993 0.0
H291 H 0.24928 0.14062 0.69377 0.0
H292 H 0.32657 0.09778 0.74586 0.0
H293 H 0.29283 0.10662 0.70264 0.0
H294 H 0.21966 0.06372 0.75157 0.0
H295 H 0.2532 0.05463 0.79415 0.0
C296 C 0.18306 0.08623 0.67484 0.0
C297 C 0.18204 0.11642 0.66501 0.0
C298 C 0.2076 0.07561 0.69172 0.0
C299 C 0.2314 0.09519 0.69974 0.0
C300 C 0.23144 0.12486 0.68786 0.0
C301 C 0.2069 0.13539 0.67055 0.0
C302 C 0.30348 0.08953 0.74697 0.0
C303 C 0.2925 0.0756 0.77348 0.0
C304 C 0.28409 0.09486 0.72233 0.0
C305 C 0.25348 0.08604 0.72363 0.0
C306 C 0.24316 0.0705 0.7495 0.0
C307 C 0.26239 0.06539 0.77408 0.0
H308 H 0.67608 0.90196 0.74644 0.0
H309 H 0.74539 0.95307 0.79294 0.0
H310 H 0.71316 0.88709 0.70775 0.0
H311 H 0.78204 0.93846 0.75435 0.0
H312 H 0.79845 0.88382 0.63772 0.0
H313 H 0.75524 0.90518 0.66615 0.0
H314 H 0.79987 0.88263 0.75023 0.0
H315 H 0.84213 0.86136 0.72254 0.0
C316 C 0.69887 0.91095 0.74781 0.0
C317 C 0.70798 0.92826 0.77303 0.0
C318 C 0.72007 0.90238 0.72566 0.0
C319 C 0.75055 0.9111 0.72849 0.0
C320 C 0.75877 0.93098 0.75196 0.0
C321 C 0.73774 0.93943 0.77401 0.0
C322 C 0.79866 0.88303 0.66226 0.0
C323 C 0.82392 0.87126 0.67784 0.0
C324 C 0.77408 0.89537 0.67846 0.0
C325 C 0.77469 0.89628 0.71035 0.0
C326 C 0.79918 0.88303 0.72567 0.0
C327 C 0.82335 0.87065 0.70971 0.0
H328 H 0.32635 0.90206 0.25375 0.0
H329 H 0.25801 0.95497 0.20773 0.0
H330 H 0.28918 0.88808 0.29264 0.0
H331 H 0.22129 0.9414 0.2466 0.0
H332 H 0.15865 0.86736 0.27966 0.0
H333 H 0.20077 0.88781 0.25124 0.0
H334 H 0.24913 0.90542 0.33444 0.0
H335 H 0.20614 0.88476 0.36359 0.0
C336 C 0.30376 0.91163 0.25254 0.0
C337 C 0.29491 0.9292 0.2274 0.0
C338 C 0.28251 0.90357 0.2748 0.0
C339 C 0.25222 0.91307 0.27219 0.0
C340 C 0.24435 0.93322 0.24879 0.0
C341 C 0.26542 0.94112 0.2266 0.0
C342 C 0.1782 0.87543 0.29213 0.0
C343 C 0.17879 0.87477 0.32399 0.0
C344 C 0.2023 0.88737 0.27576 0.0
C345 C 0.22787 0.89898 0.29065 0.0
C346 C 0.22949 0.8969 0.32245 0.0
C347 C 0.205 0.88497 0.33906 0.0
H348 H 0.67824 0.10153 0.25238 0.0
H349 H 0.74621 0.04821 0.2063 0.0
H350 H 0.7153 0.11475 0.29157 0.0
H351 H 0.78283 0.06093 0.24555 0.0
H352 H 0.84652 0.13327 0.28043 0.0
H353 H 0.80495 0.11287 0.25127 0.0
H354 H 0.75388 0.09792 0.33338 0.0
H355 H 0.79627 0.11861 0.36329 0.0
C356 C 0.70072 0.09172 0.25121 0.0
C357 C 0.7095 0.07425 0.22598 0.0
C358 C 0.72193 0.09934 0.27365 0.0
C359 C 0.75212 0.08948 0.27118 0.0
C360 C 0.75988 0.06944 0.24764 0.0
C361 C 0.73886 0.06201 0.22524 0.0
C362 C 0.82652 0.12574 0.29252 0.0
C363 C 0.82495 0.12729 0.32432 0.0
C364 C 0.80272 0.11379 0.27571 0.0
C365 C 0.77647 0.10304 0.29007 0.0
C366 C 0.77403 0.10578 0.32178 0.0
C367 C 0.79819 0.11771 0.33883 0.0
H368 H 0.64068 0.20644 0.11665 0.0
H369 H 0.72431 0.15912 0.13605 0.0
H370 H 0.67016 0.24926 0.09623 0.0
H371 H 0.75306 0.20109 0.11582 0.0
H372 H 0.75027 0.3266 0.10086 0.0
H373 H 0.71133 0.28934 0.11423 0.0
H374 H 0.75888 0.22146 0.06227 0.0
H375 H 0.79781 0.25828 0.04928 0.0
C376 C 0.6652 0.2053 0.11691 0.0
C377 C 0.68011 0.1792 0.12763 0.0
C378 C 0.68201 0.22969 0.10512 0.0
C379 C 0.71384 0.22808 0.10369 0.0
C380 C 0.72854 0.20261 0.11576 0.0
C381 C 0.71197 0.17859 0.12758 0.0
C382 C 0.75184 0.30398 0.09146 0.0
C383 C 0.77739 0.29519 0.07446 0.0
C384 C 0.72954 0.28268 0.09916 0.0
C385 C 0.73252 0.25239 0.08988 0.0
C386 C 0.75639 0.24453 0.07028 0.0
C387 C 0.77862 0.26566 0.06272 0.0
H388 H 0.20723 0.74846 0.04893 0.0
H389 H 0.25457 0.67842 0.09834 0.0
H390 H 0.24649 0.78464 0.06273 0.0
H391 H 0.2939 0.71502 0.11244 0.0
H392 H 0.2811 0.84407 0.139 0.0
H393 H 0.25233 0.80244 0.11803 0.0
H394 H 0.33525 0.75631 0.09417 0.0
H395 H 0.36475 0.79882 0.11525 0.0
C396 C 0.22646 0.74056 0.06201 0.0
C397 C 0.22753 0.71073 0.07297 0.0
C398 C 0.24889 0.76131 0.07001 0.0
C399 C 0.2728 0.75275 0.08924 0.0
C400 C 0.27564 0.7222 0.09767 0.0
C401 C 0.25313 0.70128 0.08955 0.0
C402 C 0.29344 0.82509 0.12947 0.0
C403 C 0.32529 0.82501 0.12844 0.0
C404 C 0.27686 0.80129 0.11725 0.0
C405 C 0.29155 0.77657 0.10373 0.0
C406 C 0.32342 0.77534 0.10419 0.0
C407 C 0.34024 0.79953 0.11637 0.0
H408 H 0.74708 0.67882 0.9052 0.0
H409 H 0.79372 0.7485 0.95564 0.0
H410 H 0.70827 0.7157 0.89026 0.0
H411 H 0.75494 0.78496 0.94107 0.0
H412 H 0.72176 0.84512 0.8648 0.0
H413 H 0.7501 0.80357 0.88654 0.0
H414 H 0.66678 0.75659 0.90683 0.0
H415 H 0.6377 0.799 0.88491 0.0
C416 C 0.74845 0.70167 0.91403 0.0
C417 C 0.77374 0.71093 0.93116 0.0
C418 C 0.72624 0.72276 0.90542 0.0
C419 C 0.72905 0.75329 0.91392 0.0
C420 C 0.7526 0.76167 0.93368 0.0
C421 C 0.77473 0.74075 0.94214 0.0
C422 C 0.70924 0.82599 0.87372 0.0
C423 C 0.67737 0.82562 0.87345 0.0
C424 C 0.72557 0.80222 0.88641 0.0
C425 C 0.71063 0.77724 0.89912 0.0
C426 C 0.6788 0.7758 0.89745 0.0
C427 C 0.66223 0.79995 0.8848 0.0
H428 H 0.27944 0.16187 0.86706 0.0
H429 H 0.36497 0.20574 0.88605 0.0
H430 H 0.25255 0.20381 0.88988 0.0
H431 H 0.33734 0.2486 0.90896 0.0
H432 H 0.25742 0.32762 0.90788 0.0
H433 H 0.29575 0.29041 0.89266 0.0
H434 H 0.24992 0.22202 0.94535 0.0
H435 H 0.21159 0.25883 0.96028 0.0
C436 C 0.29259 0.1806 0.87594 0.0
C437 C 0.32445 0.18021 0.87504 0.0
C438 C 0.27709 0.20457 0.88924 0.0
C439 C 0.29289 0.22903 0.90193 0.0
C440 C 0.32469 0.22976 0.89963 0.0
C441 C 0.34042 0.20538 0.88639 0.0
C442 C 0.25618 0.30493 0.91713 0.0
C443 C 0.23117 0.29597 0.93483 0.0
C444 C 0.27812 0.28365 0.90836 0.0
C445 C 0.27532 0.25325 0.91726 0.0
C446 C 0.25224 0.24523 0.93769 0.0
C447 C 0.23036 0.26634 0.94635 0.0
H448 H 0.09843 0.75025 0.3249 0.0
H449 H 0.04997 0.79927 0.25533 0.0
H450 H 0.11211 0.71127 0.28778 0.0
H451 H 0.06331 0.7603 0.21862 0.0
H452 H 0.13865 0.7247 0.15855 0.0
H453 H 0.1177 0.75351 0.20017 0.0
H454 H 0.09419 0.67073 0.24657 0.0
H455 H 0.1153 0.64117 0.20405 0.0
C456 C 0.08978 0.75217 0.302 0.0
C457 C 0.07358 0.77813 0.29288 0.0
C458 C 0.09765 0.72984 0.28078 0.0
C459 C 0.08936 0.73318 0.25023 0.0
C460 C 0.07053 0.75751 0.24194 0.0
C461 C 0.06277 0.77977 0.263 0.0
C462 C 0.12917 0.71239 0.17756 0.0
C463 C 0.12831 0.68055 0.17773 0.0
C464 C 0.11694 0.72901 0.20137 0.0
C465 C 0.10356 0.71438 0.22621 0.0
C466 C 0.1041 0.68252 0.22746 0.0
C467 C 0.11629 0.66567 0.20326 0.0
H468 H 0.06511 0.19615 0.75512 0.0
H469 H 0.10729 0.2471 0.68295 0.0
H470 H 0.07853 0.23572 0.79102 0.0
H471 H 0.12114 0.28683 0.71933 0.0
H472 H 0.12029 0.35881 0.80174 0.0
H473 H 0.10203 0.32666 0.75984 0.0
H474 H 0.13175 0.24716 0.80848 0.0
H475 H 0.14971 0.27861 0.84964 0.0
C476 C 0.07675 0.21608 0.74679 0.0
C477 C 0.08554 0.21827 0.71629 0.0
C478 C 0.08456 0.2387 0.7674 0.0
C479 C 0.1015 0.264 0.75808 0.0
C480 C 0.10816 0.26752 0.72713 0.0
C481 C 0.10021 0.24479 0.70634 0.0
C482 C 0.12331 0.3345 0.80311 0.0
C483 C 0.13603 0.32123 0.82919 0.0
C484 C 0.11277 0.31615 0.77926 0.0
C485 C 0.11474 0.28439 0.78134 0.0
C486 C 0.12908 0.27149 0.80662 0.0
C487 C 0.13955 0.28961 0.83016 0.0
H488 H 0.86318 0.72311 0.84636 0.0
H489 H 0.88654 0.63882 0.80222 0.0
H490 H 0.88459 0.75122 0.80451 0.0
H491 H 0.90811 0.66767 0.75946 0.0
H492 H 0.90459 0.74667 0.68021 0.0
H493 H 0.89057 0.70802 0.71755 0.0
H494 H 0.93937 0.75718 0.78656 0.0
H495 H 0.95302 0.79582 0.74963 0.0
C496 C 0.87276 0.71048 0.8276 0.0
C497 C 0.87349 0.67865 0.82789 0.0
C498 C 0.88524 0.72669 0.80366 0.0
C499 C 0.89877 0.71164 0.77915 0.0
C500 C 0.8981 0.67978 0.77832 0.0
C501 C 0.88564 0.66333 0.80265 0.0
C502 C 0.91319 0.74865 0.70312 0.0
C503 C 0.92945 0.77457 0.71215 0.0
C504 C 0.90512 0.72652 0.72446 0.0
C505 C 0.91329 0.73003 0.75503 0.0
C506 C 0.93225 0.75427 0.76323 0.0
C507 C 0.94018 0.77633 0.74205 0.0
H508 H 0.95474 0.20774 0.25971 0.0
H509 H 0.90078 0.25415 0.32697 0.0
H510 H 0.94196 0.24656 0.22266 0.0
H511 H 0.88758 0.29295 0.28947 0.0
H512 H 0.86951 0.28055 0.15841 0.0
H513 H 0.88953 0.25184 0.20053 0.0
H514 H 0.90515 0.33452 0.25035 0.0
H515 H 0.8849 0.36397 0.20738 0.0
C516 C 0.94079 0.22666 0.26682 0.0
C517 C 0.92838 0.22761 0.29611 0.0
C518 C 0.93334 0.24883 0.24556 0.0
C519 C 0.91316 0.27234 0.253 0.0
C520 C 0.90311 0.27503 0.2831 0.0
C521 C 0.91071 0.25281 0.30455 0.0
C522 C 0.87709 0.29286 0.17825 0.0
C523 C 0.87591 0.32467 0.1793 0.0
C524 C 0.88881 0.27631 0.20237 0.0
C525 C 0.89967 0.29096 0.2284 0.0
C526 C 0.89721 0.3227 0.23036 0.0
C527 C 0.88552 0.33949 0.20588 0.0
H528 H 0.02244 0.0745 0.68213 0.0
H529 H 0.05275 0.05769 0.59047 0.0
H530 H 0.99467 0.02654 0.6816 0.0
H531 H 0.02489 0.00997 0.59 0.0
H532 H 0.9425 0.94476 0.59239 0.0
H533 H 0.96973 0.99283 0.59247 0.0
H534 H 0.0099 0.97011 0.67878 0.0
H535 H 0.98276 0.92179 0.67873 0.0
C536 C 0.02292 0.06074 0.6618 0.0
C537 C 0.03978 0.06982 0.63635 0.0
C538 C 0.00726 0.03322 0.66161 0.0
C539 C 0.00783 0.01456 0.63583 0.0
C540 C 0.02401 0.02402 0.61012 0.0
C541 C 0.03999 0.05128 0.61044 0.0
C542 C 0.95726 0.94992 0.61132 0.0
C543 C 0.96051 0.92949 0.63556 0.0
C544 C 0.97287 0.97739 0.6113 0.0
C545 C 0.99173 0.98518 0.6357 0.0
C546 C 0.99521 0.96472 0.65985 0.0
C547 C 0.97991 0.93701 0.65968 0.0
H548 H 1.00052 0.09171 0.34971 0.0
H549 H 0.9249 0.04453 0.39036 0.0
H550 H 0.02957 0.0444 0.34929 0.0
H551 H 0.95381 0.99752 0.38967 0.0
H552 H 0.00375 0.91462 0.34843 0.0
H553 H 0.97514 0.96213 0.34869 0.0
H554 H 0.0514 0.00792 0.38935 0.0
H555 H 0.07996 0.9606 0.38935 0.0
C556 C 0.99014 0.07133 0.35858 0.0
C557 C 0.96046 0.07189 0.37012 0.0
C558 C 0.00676 0.04432 0.3584 0.0
C559 C 0.99382 0.01735 0.36933 0.0
C560 C 0.96419 0.01793 0.38083 0.0
C561 C 0.94776 0.04493 0.38141 0.0
C562 C 0.01437 0.93481 0.35748 0.0
C563 C 0.04406 0.93383 0.36896 0.0
C564 C 0.99798 0.96193 0.35769 0.0
C565 C 0.01115 0.98864 0.36896 0.0
C566 C 0.04085 0.98771 0.38028 0.0
C567 C 0.05706 0.96055 0.38048 0.0
H568 H 0.65796 1.00125 0.91017 0.0
H569 H 0.61669 0.92605 0.95744 0.0
H570 H 0.65948 0.02991 0.95771 0.0
H571 H 0.61844 0.95456 0.00464 0.0
H572 H 0.65857 0.004 0.08798 0.0
H573 H 0.65923 0.97554 0.04033 0.0
H574 H 0.61959 0.052 0.9939 0.0
H575 H 0.61868 0.08035 0.04126 0.0
C576 C 0.64924 0.99087 0.93063 0.0
C577 C 0.6371 0.96146 0.93001 0.0
C578 C 0.65006 0.00725 0.95777 0.0
C579 C 0.63919 0.99433 0.9848 0.0
C580 C 0.62727 0.96491 0.98419 0.0
C581 C 0.62605 0.94872 0.95708 0.0
C582 C 0.64999 0.01469 0.0676 0.0
C583 C 0.63845 0.04434 0.06842 0.0
C584 C 0.65032 0.99841 0.0404 0.0
C585 C 0.63954 0.01167 0.01349 0.0
C586 C 0.6283 0.04138 0.01426 0.0
C587 C 0.62758 0.05748 0.04146 0.0
H588 H 0.34397 1.00065 0.08969 0.0
H589 H 0.38327 0.92472 0.0418 0.0
H590 H 0.34187 0.02921 0.04213 0.0
H591 H 0.3809 0.95316 0.99453 0.0
H592 H 0.34063 0.00402 0.91181 0.0
H593 H 0.33986 0.97528 0.95934 0.0
H594 H 0.38201 0.0504 0.00564 0.0
H595 H 0.38306 0.07897 0.95845 0.0
C596 C 0.3521 0.99007 0.06907 0.0
C597 C 0.36394 0.96052 0.06953 0.0
C598 C 0.35094 0.0064 0.04193 0.0
C599 C 0.36113 0.99328 0.01472 0.0
C600 C 0.37262 0.96366 0.01514 0.0
C601 C 0.37419 0.94752 0.04227 0.0
C602 C 0.34972 0.01435 0.93214 0.0
C603 C 0.36203 0.04368 0.93134 0.0
C604 C 0.34933 0.99792 0.95927 0.0
C605 C 0.36078 0.01074 0.9861 0.0
C606 C 0.37276 0.04013 0.98534 0.0
C607 C 0.37356 0.05635 0.95824 0.0
H608 H 0.94317 0.59225 0.94933 0.0
H609 H 0.92312 0.68127 0.9849 0.0
H610 H 0.99158 0.5924 0.976 0.0
H611 H 0.97191 0.6814 0.01148 0.0
H612 H 0.07764 0.68115 0.02101 0.0
H613 H 0.02876 0.68115 0.99463 0.0
H614 H 0.0089 0.59277 0.03148 0.0
H615 H 0.05742 0.59276 0.05796 0.0
C616 C 0.94905 0.61179 0.96298 0.0
C617 C 0.92937 0.63675 0.96507 0.0
C618 C 0.97671 0.61181 0.97826 0.0
C619 C 0.98546 0.63697 0.9956 0.0
C620 C 0.96574 0.66186 0.99798 0.0
C621 C 0.93777 0.66165 0.98304 0.0
C622 C 0.06293 0.66164 0.02324 0.0
C623 C 0.07133 0.63695 0.04152 0.0
C624 C 0.03491 0.66178 0.00841 0.0
C625 C 0.01511 0.63703 0.01122 0.0
C626 C 0.02383 0.61208 0.0289 0.0
C627 C 0.05156 0.61213 0.04406 0.0
H628 H 0.04603 0.38632 0.92583 0.0
H629 H 0.09219 0.34812 0.0034 0.0
H630 H 0.99844 0.38594 0.95385 0.0
H631 H 0.04433 0.34797 0.03151 0.0
H632 H 0.96049 0.38964 0.07976 0.0
H633 H 0.00796 0.38857 0.05159 0.0
H634 H 0.96243 0.34615 0.9761 0.0
H635 H 0.91467 0.34699 0.00437 0.0
C636 C 0.04606 0.37793 0.94891 0.0
C637 C 0.07292 0.36733 0.96246 0.0
C638 C 0.01874 0.37751 0.96482 0.0
C639 C 0.01774 0.36687 0.99476 0.0
C640 C 0.04457 0.35645 0.00846 0.0
C641 C 0.0719 0.35646 0.99237 0.0
C642 C 0.96049 0.38015 0.05711 0.0
C643 C 0.93377 0.36846 0.04424 0.0
C644 C 0.98776 0.37934 0.04112 0.0
C645 C 0.98884 0.36718 0.01178 0.0
C646 C 0.96213 0.35578 0.99869 0.0
C647 C 0.93486 0.35621 0.01487 0.0
loop_
_geom_bond_atom_site_label_1
_geom_bond_atom_site_label_2
_geom_bond_distance
_geom_bond_site_symmetry_2
_ccdc_geom_bond_type
O0 Cd1 2.223 . S
O0 C8 1.315 . S
Cd1 O0 2.223 . S
Cd1 O4 2.297 . S
Cd1 O5 2.439 . S
Cd1 O11 2.240 . S
Cd2 O3 2.240 . S
Cd2 O10 2.223 . S
Cd2 O12 2.297 . S
Cd2 O13 2.439 . S
O3 Cd2 2.240 . S
O3 C8 1.279 . S
O4 Cd1 2.297 . S
O4 C6 1.247 . S
O5 Cd1 2.439 . S
O5 C6 1.208 . S
C6 O4 1.247 . S
C6 O5 1.208 . S
C7 O12 1.247 . S
C7 O13 1.208 . S
C8 O0 1.315 . S
C8 O3 1.279 . S
C9 O10 1.315 . S
C9 O11 1.279 . S
O10 Cd2 2.223 . S
O10 C9 1.315 . S
O11 Cd1 2.240 . S
O11 C9 1.279 . S
O12 Cd2 2.297 . S
O12 C7 1.247 . S
O13 Cd2 2.439 . S
O13 C7 1.208 . S
O14 Cd15 2.223 . S
O14 C22 1.315 . S
Cd15 O14 2.223 . S
Cd15 O18 2.297 . S
Cd15 O19 2.439 . S
Cd15 O25 2.240 . S
Cd16 O17 2.240 . S
Cd16 O24 2.223 . S
Cd16 O26 2.297 . S
Cd16 O27 2.439 . S
O17 Cd16 2.240 . S
O17 C22 1.279 . S
O18 Cd15 2.297 . S
O18 C20 1.247 . S
O19 Cd15 2.439 . S
O19 C20 1.208 . S
C20 O18 1.247 . S
C20 O19 1.208 . S
C21 O26 1.247 . S
C21 O27 1.208 . S
C22 O14 1.315 . S
C22 O17 1.279 . S
C23 O24 1.315 . S
C23 O25 1.279 . S
O24 Cd16 2.223 . S
O24 C23 1.315 . S
O25 Cd15 2.240 . S
O25 C23 1.279 . S
O26 Cd16 2.297 . S
O26 C21 1.247 . S
O27 Cd16 2.439 . S
O27 C21 1.208 . S
O28 Cd29 2.223 . S
O28 C36 1.315 . S
Cd29 O28 2.223 . S
Cd29 O32 2.297 . S
Cd29 O33 2.439 . S
Cd29 O39 2.240 . S
Cd30 O31 2.240 . S
Cd30 O38 2.223 . S
Cd30 O40 2.297 . S
Cd30 O41 2.439 . S
O31 Cd30 2.240 . S
O31 C36 1.279 . S
O32 Cd29 2.297 . S
O32 C34 1.247 . S
O33 Cd29 2.439 . S
O33 C34 1.208 . S
C34 O32 1.247 . S
C34 O33 1.208 . S
C35 O40 1.247 . S
C35 O41 1.208 . S
C36 O28 1.315 . S
C36 O31 1.279 . S
C37 O38 1.315 . S
C37 O39 1.279 . S
O38 Cd30 2.223 . S
O38 C37 1.315 . S
O39 Cd29 2.240 . S
O39 C37 1.279 . S
O40 Cd30 2.297 . S
O40 C35 1.247 . S
O41 Cd30 2.439 . S
O41 C35 1.208 . S
O42 Cd43 2.223 . S
O42 C50 1.315 . S
Cd43 O42 2.223 . S
Cd43 O46 2.297 . S
Cd43 O47 2.439 . S
Cd43 O53 2.240 . S
Cd44 O45 2.240 . S
Cd44 O52 2.223 . S
Cd44 O54 2.297 . S
Cd44 O55 2.439 . S
O45 Cd44 2.240 . S
O45 C50 1.279 . S
O46 Cd43 2.297 . S
O46 C48 1.247 . S
O47 Cd43 2.439 . S
O47 C48 1.208 . S
C48 O46 1.247 . S
C48 O47 1.208 . S
C49 O54 1.247 . S
C49 O55 1.208 . S
C50 O42 1.315 . S
C50 O45 1.279 . S
C51 O52 1.315 . S
C51 O53 1.279 . S
O52 Cd44 2.223 . S
O52 C51 1.315 . S
O53 Cd43 2.240 . S
O53 C51 1.279 . S
O54 Cd44 2.297 . S
O54 C49 1.247 . S
O55 Cd44 2.439 . S
O55 C49 1.208 . S
O56 Cd57 2.223 . S
O56 C64 1.315 . S
Cd57 O56 2.223 . S
Cd57 O60 2.297 . S
Cd57 O61 2.439 . S
Cd57 O67 2.240 . S
Cd58 O59 2.240 . S
Cd58 O66 2.223 . S
Cd58 O68 2.297 . S
Cd58 O69 2.439 . S
O59 Cd58 2.240 . S
O59 C64 1.279 . S
O60 Cd57 2.297 . S
O60 C62 1.247 . S
O61 Cd57 2.439 . S
O61 C62 1.208 . S
C62 O60 1.247 . S
C62 O61 1.208 . S
C63 O68 1.247 . S
C63 O69 1.208 . S
C64 O56 1.315 . S
C64 O59 1.279 . S
C65 O66 1.315 . S
C65 O67 1.279 . S
O66 Cd58 2.223 . S
O66 C65 1.315 . S
O67 Cd57 2.240 . S
O67 C65 1.279 . S
O68 Cd58 2.297 . S
O68 C63 1.247 . S
O69 Cd58 2.439 . S
O69 C63 1.208 . S
O70 Cd71 2.223 . S
O70 C78 1.315 . S
Cd71 O70 2.223 . S
Cd71 O74 2.297 . S
Cd71 O75 2.439 . S
Cd71 O81 2.240 . S
Cd72 O73 2.240 . S
Cd72 O80 2.223 . S
Cd72 O82 2.297 . S
Cd72 O83 2.439 . S
O73 Cd72 2.240 . S
O73 C78 1.279 . S
O74 Cd71 2.297 . S
O74 C76 1.247 . S
O75 Cd71 2.439 . S
O75 C76 1.208 . S
C76 O74 1.247 . S
C76 O75 1.208 . S
C77 O82 1.247 . S
C77 O83 1.208 . S
C78 O70 1.315 . S
C78 O73 1.279 . S
C79 O80 1.315 . S
C79 O81 1.279 . S
O80 Cd72 2.223 . S
O80 C79 1.315 . S
O81 Cd71 2.240 . S
O81 C79 1.279 . S
O82 Cd72 2.297 . S
O82 C77 1.247 . S
O83 Cd72 2.439 . S
O83 C77 1.208 . S
O84 Cd85 2.223 . S
O84 C92 1.315 . S
Cd85 O84 2.223 . S
Cd85 O88 2.297 . S
Cd85 O89 2.439 . S
Cd85 O95 2.240 . S
Cd86 O87 2.240 . S
Cd86 O94 2.223 . S
Cd86 O96 2.297 . S
Cd86 O97 2.439 . S
O87 Cd86 2.240 . S
O87 C92 1.279 . S
O88 Cd85 2.297 . S
O88 C90 1.247 . S
O89 Cd85 2.439 . S
O89 C90 1.208 . S
C90 O88 1.247 . S
C90 O89 1.208 . S
C91 O96 1.247 . S
C91 O97 1.208 . S
C92 O84 1.315 . S
C92 O87 1.279 . S
C93 O94 1.315 . S
C93 O95 1.279 . S
O94 Cd86 2.223 . S
O94 C93 1.315 . S
O95 Cd85 2.240 . S
O95 C93 1.279 . S
O96 Cd86 2.297 . S
O96 C91 1.247 . S
O97 Cd86 2.439 . S
O97 C91 1.208 . S
O98 Cd99 2.223 . S
O98 C106 1.315 . S
Cd99 O98 2.223 . S
Cd99 O102 2.297 . S
Cd99 O103 2.439 . S
Cd99 O109 2.240 . S
Cd100 O101 2.240 . S
Cd100 O108 2.223 . S
Cd100 O110 2.297 . S
Cd100 O111 2.439 . S
O101 Cd100 2.240 . S
O101 C106 1.279 . S
O102 Cd99 2.297 . S
O102 C104 1.247 . S
O103 Cd99 2.439 . S
O103 C104 1.208 . S
C104 O102 1.247 . S
C104 O103 1.208 . S
C105 O110 1.247 . S
C105 O111 1.208 . S
C106 O98 1.315 . S
C106 O101 1.279 . S
C107 O108 1.315 . S
C107 O109 1.279 . S
O108 Cd100 2.223 . S
O108 C107 1.315 . S
O109 Cd99 2.240 . S
O109 C107 1.279 . S
O110 Cd100 2.297 . S
O110 C105 1.247 . S
O111 Cd100 2.439 . S
O111 C105 1.208 . S
O112 Cd113 2.223 . S
O112 C120 1.315 . S
Cd113 O112 2.223 . S
Cd113 O116 2.297 . S
Cd113 O117 2.439 . S
Cd113 O123 2.240 . S
Cd114 O115 2.240 . S
Cd114 O122 2.223 . S
Cd114 O124 2.297 . S
Cd114 O125 2.439 . S
O115 Cd114 2.240 . S
O115 C120 1.279 . S
O116 Cd113 2.297 . S
O116 C118 1.247 . S
O117 Cd113 2.439 . S
O117 C118 1.208 . S
C118 O116 1.247 . S
C118 O117 1.208 . S
C119 O124 1.247 . S
C119 O125 1.208 . S
C120 O112 1.315 . S
C120 O115 1.279 . S
C121 O122 1.315 . S
C121 O123 1.279 . S
O122 Cd114 2.223 . S
O122 C121 1.315 . S
O123 Cd113 2.240 . S
O123 C121 1.279 . S
O124 Cd114 2.297 . S
O124 C119 1.247 . S
O125 Cd114 2.439 . S
O125 C119 1.208 . S
O126 Cd127 2.223 . S
O126 C134 1.315 . S
Cd127 O126 2.223 . S
Cd127 O130 2.297 . S
Cd127 O131 2.439 . S
Cd127 O137 2.240 . S
Cd128 O129 2.240 . S
Cd128 O136 2.223 . S
Cd128 O138 2.297 . S
Cd128 O139 2.439 . S
O129 Cd128 2.240 . S
O129 C134 1.279 . S
O130 Cd127 2.297 . S
O130 C132 1.247 . S
O131 Cd127 2.439 . S
O131 C132 1.208 . S
C132 O130 1.247 . S
C132 O131 1.208 . S
C133 O138 1.247 . S
C133 O139 1.208 . S
C134 O126 1.315 . S
C134 O129 1.279 . S
C135 O136 1.315 . S
C135 O137 1.279 . S
O136 Cd128 2.223 . S
O136 C135 1.315 . S
O137 Cd127 2.240 . S
O137 C135 1.279 . S
O138 Cd128 2.297 . S
O138 C133 1.247 . S
O139 Cd128 2.439 . S
O139 C133 1.208 . S
O140 Cd141 2.223 . S
O140 C148 1.315 . S
Cd141 O140 2.223 . S
Cd141 O144 2.297 . S
Cd141 O145 2.439 . S
Cd141 O151 2.240 . S
Cd142 O143 2.240 . S
Cd142 O150 2.223 . S
Cd142 O152 2.297 . S
Cd142 O153 2.439 . S
O143 Cd142 2.240 . S
O143 C148 1.279 . S
O144 Cd141 2.297 . S
O144 C146 1.247 . S
O145 Cd141 2.439 . S
O145 C146 1.208 . S
C146 O144 1.247 . S
C146 O145 1.208 . S
C147 O152 1.247 . S
C147 O153 1.208 . S
C148 O140 1.315 . S
C148 O143 1.279 . S
C149 O150 1.315 . S
C149 O151 1.279 . S
O150 Cd142 2.223 . S
O150 C149 1.315 . S
O151 Cd141 2.240 . S
O151 C149 1.279 . S
O152 Cd142 2.297 . S
O152 C147 1.247 . S
O153 Cd142 2.439 . S
O153 C147 1.208 . S
O154 Cd155 2.223 . S
O154 C162 1.315 . S
Cd155 O154 2.223 . S
Cd155 O158 2.297 . S
Cd155 O159 2.439 . S
Cd155 O165 2.240 . S
Cd156 O157 2.240 . S
Cd156 O164 2.223 . S
Cd156 O166 2.297 . S
Cd156 O167 2.439 . S
O157 Cd156 2.240 . S
O157 C162 1.279 . S
O158 Cd155 2.297 . S
O158 C160 1.247 . S
O159 Cd155 2.439 . S
O159 C160 1.208 . S
C160 O158 1.247 . S
C160 O159 1.208 . S
C161 O166 1.247 . S
C161 O167 1.208 . S
C162 O154 1.315 . S
C162 O157 1.279 . S
C163 O164 1.315 . S
C163 O165 1.279 . S
O164 Cd156 2.223 . S
O164 C163 1.315 . S
O165 Cd155 2.240 . S
O165 C163 1.279 . S
O166 Cd156 2.297 . S
O166 C161 1.247 . S
O167 Cd156 2.439 . S
O167 C161 1.208 . S
H168 C176 0.950 . S
H169 C181 0.944 1_455 S
H170 C178 0.950 . S
H171 C180 0.950 . S
H172 C182 0.950 . S
H173 C184 0.950 . S
H174 C186 0.950 . S
H175 C187 0.944 1_655 S
C176 H168 0.950 . S
C176 C177 1.386 . S
C176 C178 1.391 . S
C177 C176 1.386 . S
C177 C181 1.393 . S
C178 H170 0.950 . S
C178 C176 1.391 . S
C178 C179 1.400 . S
C179 C178 1.400 . S
C179 C180 1.398 1_655 S
C179 C185 1.491 1_655 S
C180 H171 0.950 . S
C180 C179 1.398 1_455 S
C180 C181 1.391 1_455 S
C181 H169 0.944 1_655 S
C181 C177 1.393 . S
C181 C180 1.391 1_655 S
C182 H172 0.950 . S
C182 C183 1.386 . S
C182 C184 1.391 . S
C183 C182 1.386 . S
C183 C187 1.393 . S
C184 H173 0.950 . S
C184 C182 1.391 . S
C184 C185 1.400 . S
C185 C179 1.491 1_455 S
C185 C184 1.400 . S
C185 C186 1.398 1_455 S
C186 H174 0.950 . S
C186 C185 1.398 1_655 S
C186 C187 1.391 1_655 S
C187 H175 0.944 1_455 S
C187 C183 1.393 . S
C187 C186 1.391 1_455 S
H188 C196 0.950 . S
H189 C201 0.960 . S
H190 C198 0.950 . S
H191 C200 0.950 . S
H192 C202 0.950 . S
H193 C204 0.950 . S
H194 C206 0.950 . S
H195 C207 0.960 . S
C196 H188 0.950 . S
C196 C197 1.386 . S
C196 C198 1.391 . S
C197 C196 1.386 . S
C197 C201 1.375 1_455 S
C198 H190 0.950 . S
C198 C196 1.391 . S
C198 C199 1.400 . S
C199 C198 1.400 . S
C199 C200 1.398 1_455 S
C199 C205 1.491 1_455 S
C200 H191 0.950 . S
C200 C199 1.398 1_655 S
C200 C201 1.398 . S
C201 H189 0.960 . S
C201 C197 1.375 1_655 S
C201 C200 1.398 . S
C202 H192 0.950 . S
C202 C203 1.386 . S
C202 C204 1.391 . S
C203 C202 1.386 . S
C203 C207 1.375 1_655 S
C204 H193 0.950 . S
C204 C202 1.391 . S
C204 C205 1.400 . S
C205 C199 1.491 1_655 S
C205 C204 1.400 . S
C205 C206 1.398 1_655 S
C206 H194 0.950 . S
C206 C205 1.398 1_455 S
C206 C207 1.398 . S
C207 H195 0.960 . S
C207 C203 1.375 1_455 S
C207 C206 1.398 . S
H208 C216 0.950 . S
H209 C221 0.950 . S
H210 C218 0.950 . S
H211 C220 0.950 . S
H212 C222 0.950 . S
H213 C224 0.950 . S
H214 C226 0.950 . S
H215 C227 0.950 . S
C216 H208 0.950 . S
C216 C217 1.386 . S
C216 C218 1.391 . S
C217 C216 1.386 . S
C217 C221 1.393 . S
C218 H210 0.950 . S
C218 C216 1.391 . S
C218 C219 1.400 . S
C219 C218 1.400 . S
C219 C220 1.398 . S
C219 C225 1.491 1_565 S
C220 H211 0.950 . S
C220 C219 1.398 . S
C220 C221 1.391 . S
C221 H209 0.950 . S
C221 C217 1.393 . S
C221 C220 1.391 . S
C222 H212 0.950 . S
C222 C223 1.386 . S
C222 C224 1.391 . S
C223 C222 1.386 . S
C223 C227 1.393 . S
C224 H213 0.950 . S
C224 C222 1.391 . S
C224 C225 1.400 . S
C225 C219 1.491 1_545 S
C225 C224 1.400 . S
C225 C226 1.398 . S
C226 H214 0.950 . S
C226 C225 1.398 . S
C226 C227 1.391 . S
C227 H215 0.950 . S
C227 C223 1.393 . S
C227 C226 1.391 . S
H228 C236 0.950 . S
H229 C241 0.956 . S
H230 C238 0.950 . S
H231 C240 0.950 . S
H232 C242 0.950 . S
H233 C244 0.950 . S
H234 C246 0.950 . S
H235 C247 0.956 . S
C236 H228 0.950 . S
C236 C237 1.386 . S
C236 C238 1.391 . S
C237 C236 1.386 . S
C237 C241 1.393 . S
C238 H230 0.950 . S
C238 C236 1.391 . S
C238 C239 1.400 . S
C239 C238 1.400 . S
C239 C240 1.398 1_565 S
C239 C245 1.491 1_565 S
C240 H231 0.950 . S
C240 C239 1.398 1_545 S
C240 C241 1.391 1_545 S
C241 H229 0.956 . S
C241 C237 1.393 . S
C241 C240 1.391 1_565 S
C242 H232 0.950 . S
C242 C243 1.386 . S
C242 C244 1.391 . S
C243 C242 1.386 . S
C243 C247 1.393 . S
C244 H233 0.950 . S
C244 C242 1.391 . S
C244 C245 1.400 . S
C245 C239 1.491 1_545 S
C245 C244 1.400 . S
C245 C246 1.398 1_545 S
C246 H234 0.950 . S
C246 C245 1.398 1_565 S
C246 C247 1.391 1_565 S
C247 H235 0.956 . S
C247 C243 1.393 . S
C247 C246 1.391 1_545 S
H248 C256 0.948 . S
H249 C261 0.950 . S
H250 C258 0.950 . S
H251 C260 0.950 . S
H252 C262 0.948 . S
H253 C264 0.950 . S
H254 C266 0.950 . S
H255 C267 0.950 . S
C256 H248 0.948 . S
C256 C257 1.386 . S
C256 C258 1.391 1_556 S
C257 C256 1.386 . S
C257 C261 1.393 . S
C258 H250 0.950 . S
C258 C256 1.391 1_554 S
C258 C259 1.400 1_554 S
C259 C258 1.400 1_556 S
C259 C260 1.398 . S
C259 C265 1.491 1_556 S
C260 H251 0.950 . S
C260 C259 1.398 . S
C260 C261 1.391 . S
C261 H249 0.950 . S
C261 C257 1.393 . S
C261 C260 1.391 . S
C262 H252 0.948 . S
C262 C263 1.386 . S
C262 C264 1.391 1_554 S
C263 C262 1.386 . S
C263 C267 1.393 . S
C264 H253 0.950 . S
C264 C262 1.391 1_556 S
C264 C265 1.400 1_556 S
C265 C259 1.491 1_554 S
C265 C264 1.400 1_554 S
C265 C266 1.398 . S
C266 H254 0.950 . S
C266 C265 1.398 . S
C266 C267 1.391 . S
C267 H255 0.950 . S
C267 C263 1.393 . S
C267 C266 1.391 . S
H268 C276 0.950 . S
H269 C281 0.950 . S
H270 C278 0.950 . S
H271 C280 0.950 . S
H272 C282 0.950 . S
H273 C284 0.950 . S
H274 C286 0.950 . S
H275 C287 0.950 . S
C276 H268 0.950 . S
C276 C277 1.386 . S
C276 C278 1.391 . S
C277 C276 1.386 . S
C277 C281 1.393 . S
C278 H270 0.950 . S
C278 C276 1.391 . S
C278 C279 1.400 . S
C279 C278 1.400 . S
C279 C280 1.398 . S
C279 C285 1.491 1_556 S
C280 H271 0.950 . S
C280 C279 1.398 . S
C280 C281 1.391 . S
C281 H269 0.950 . S
C281 C277 1.393 . S
C281 C280 1.391 . S
C282 H272 0.950 . S
C282 C283 1.386 . S
C282 C284 1.391 . S
C283 C282 1.386 . S
C283 C287 1.393 . S
C284 H273 0.950 . S
C284 C282 1.391 . S
C284 C285 1.400 . S
C285 C279 1.491 1_554 S
C285 C284 1.400 . S
C285 C286 1.398 . S
C286 H274 0.950 . S
C286 C285 1.398 . S
C286 C287 1.391 . S
C287 H275 0.950 . S
C287 C283 1.393 . S
C287 C286 1.391 . S
H288 C296 0.950 . S
H289 C301 0.950 . S
H290 C298 0.950 . S
H291 C300 0.950 . S
H292 C302 0.950 . S
H293 C304 0.950 . S
H294 C306 0.950 . S
H295 C307 0.950 . S
C296 H288 0.950 . S
C296 C297 1.386 . S
C296 C298 1.391 . S
C297 C296 1.386 . S
C297 C301 1.393 . S
C298 H290 0.950 . S
C298 C296 1.391 . S
C298 C299 1.400 . S
C299 C298 1.400 . S
C299 C300 1.398 . S
C299 C305 1.491 . S
C300 H291 0.950 . S
C300 C299 1.398 . S
C300 C301 1.391 . S
C301 H289 0.950 . S
C301 C297 1.393 . S
C301 C300 1.391 . S
C302 H292 0.950 . S
C302 C303 1.386 . S
C302 C304 1.391 . S
C303 C302 1.386 . S
C303 C307 1.393 . S
C304 H293 0.950 . S
C304 C302 1.391 . S
C304 C305 1.400 . S
C305 C299 1.491 . S
C305 C304 1.400 . S
C305 C306 1.398 . S
C306 H294 0.950 . S
C306 C305 1.398 . S
C306 C307 1.391 . S
C307 H295 0.950 . S
C307 C303 1.393 . S
C307 C306 1.391 . S
H308 C316 0.950 . S
H309 C321 0.950 . S
H310 C318 0.950 . S
H311 C320 0.950 . S
H312 C322 0.950 . S
H313 C324 0.950 . S
H314 C326 0.950 . S
H315 C327 0.950 . S
C316 H308 0.950 . S
C316 C317 1.386 . S
C316 C318 1.391 . S
C317 C316 1.386 . S
C317 C321 1.393 . S
C318 H310 0.950 . S
C318 C316 1.391 . S
C318 C319 1.400 . S
C319 C318 1.400 . S
C319 C320 1.398 . S
C319 C325 1.491 . S
C320 H311 0.950 . S
C320 C319 1.398 . S
C320 C321 1.391 . S
C321 H309 0.950 . S
C321 C317 1.393 . S
C321 C320 1.391 . S
C322 H312 0.950 . S
C322 C323 1.386 . S
C322 C324 1.391 . S
C323 C322 1.386 . S
C323 C327 1.393 . S
C324 H313 0.950 . S
C324 C322 1.391 . S
C324 C325 1.400 . S
C325 C319 1.491 . S
C325 C324 1.400 . S
C325 C326 1.398 . S
C326 H314 0.950 . S
C326 C325 1.398 . S
C326 C327 1.391 . S
C327 H315 0.950 . S
C327 C323 1.393 . S
C327 C326 1.391 . S
H328 C336 0.950 . S
H329 C341 0.950 . S
H330 C338 0.950 . S
H331 C340 0.950 . S
H332 C342 0.950 . S
H333 C344 0.950 . S
H334 C346 0.950 . S
H335 C347 0.950 . S
C336 H328 0.950 . S
C336 C337 1.386 . S
C336 C338 1.391 . S
C337 C336 1.386 . S
C337 C341 1.393 . S
C338 H330 0.950 . S
C338 C336 1.391 . S
C338 C339 1.400 . S
C339 C338 1.400 . S
C339 C340 1.398 . S
C339 C345 1.491 . S
C340 H331 0.950 . S
C340 C339 1.398 . S
C340 C341 1.391 . S
C341 H329 0.950 . S
C341 C337 1.393 . S
C341 C340 1.391 . S
C342 H332 0.950 . S
C342 C343 1.386 . S
C342 C344 1.391 . S
C343 C342 1.386 . S
C343 C347 1.393 . S
C344 H333 0.950 . S
C344 C342 1.391 . S
C344 C345 1.400 . S
C345 C339 1.491 . S
C345 C344 1.400 . S
C345 C346 1.398 . S
C346 H334 0.950 . S
C346 C345 1.398 . S
C346 C347 1.391 . S
C347 H335 0.950 . S
C347 C343 1.393 . S
C347 C346 1.391 . S
H348 C356 0.950 . S
H349 C361 0.950 . S
H350 C358 0.950 . S
H351 C360 0.950 . S
H352 C362 0.950 . S
H353 C364 0.950 . S
H354 C366 0.950 . S
H355 C367 0.950 . S
C356 H348 0.950 . S
C356 C357 1.386 . S
C356 C358 1.391 . S
C357 C356 1.386 . S
C357 C361 1.393 . S
C358 H350 0.950 . S
C358 C356 1.391 . S
C358 C359 1.400 . S
C359 C358 1.400 . S
C359 C360 1.398 . S
C359 C365 1.491 . S
C360 H351 0.950 . S
C360 C359 1.398 . S
C360 C361 1.391 . S
C361 H349 0.950 . S
C361 C357 1.393 . S
C361 C360 1.391 . S
C362 H352 0.950 . S
C362 C363 1.386 . S
C362 C364 1.391 . S
C363 C362 1.386 . S
C363 C367 1.393 . S
C364 H353 0.950 . S
C364 C362 1.391 . S
C364 C365 1.400 . S
C365 C359 1.491 . S
C365 C364 1.400 . S
C365 C366 1.398 . S
C366 H354 0.950 . S
C366 C365 1.398 . S
C366 C367 1.391 . S
C367 H355 0.950 . S
C367 C363 1.393 . S
C367 C366 1.391 . S
H368 C376 0.950 . S
H369 C381 0.950 . S
H370 C378 0.950 . S
H371 C380 0.950 . S
H372 C382 0.950 . S
H373 C384 0.950 . S
H374 C386 0.950 . S
H375 C387 0.950 . S
C376 H368 0.950 . S
C376 C377 1.386 . S
C376 C378 1.391 . S
C377 C376 1.386 . S
C377 C381 1.393 . S
C378 H370 0.950 . S
C378 C376 1.391 . S
C378 C379 1.400 . S
C379 C378 1.400 . S
C379 C380 1.398 . S
C379 C385 1.491 . S
C380 H371 0.950 . S
C380 C379 1.398 . S
C380 C381 1.391 . S
C381 H369 0.950 . S
C381 C377 1.393 . S
C381 C380 1.391 . S
C382 H372 0.950 . S
C382 C383 1.386 . S
C382 C384 1.391 . S
C383 C382 1.386 . S
C383 C387 1.393 . S
C384 H373 0.950 . S
C384 C382 1.391 . S
C384 C385 1.400 . S
C385 C379 1.491 . S
C385 C384 1.400 . S
C385 C386 1.398 . S
C386 H374 0.950 . S
C386 C385 1.398 . S
C386 C387 1.391 . S
C387 H375 0.950 . S
C387 C383 1.393 . S
C387 C386 1.391 . S
H388 C396 0.950 . S
H389 C401 0.950 . S
H390 C398 0.950 . S
H391 C400 0.950 . S
H392 C402 0.950 . S
H393 C404 0.950 . S
H394 C406 0.950 . S
H395 C407 0.950 . S
C396 H388 0.950 . S
C396 C397 1.386 . S
C396 C398 1.391 . S
C397 C396 1.386 . S
C397 C401 1.393 . S
C398 H390 0.950 . S
C398 C396 1.391 . S
C398 C399 1.400 . S
C399 C398 1.400 . S
C399 C400 1.398 . S
C399 C405 1.491 . S
C400 H391 0.950 . S
C400 C399 1.398 . S
C400 C401 1.391 . S
C401 H389 0.950 . S
C401 C397 1.393 . S
C401 C400 1.391 . S
C402 H392 0.950 . S
C402 C403 1.386 . S
C402 C404 1.391 . S
C403 C402 1.386 . S
C403 C407 1.393 . S
C404 H393 0.950 . S
C404 C402 1.391 . S
C404 C405 1.400 . S
C405 C399 1.491 . S
C405 C404 1.400 . S
C405 C406 1.398 . S
C406 H394 0.950 . S
C406 C405 1.398 . S
C406 C407 1.391 . S
C407 H395 0.950 . S
C407 C403 1.393 . S
C407 C406 1.391 . S
H408 C416 0.950 . S
H409 C421 0.950 . S
H410 C418 0.950 . S
H411 C420 0.950 . S
H412 C422 0.950 . S
H413 C424 0.950 . S
H414 C426 0.950 . S
H415 C427 0.950 . S
C416 H408 0.950 . S
C416 C417 1.386 . S
C416 C418 1.391 . S
C417 C416 1.386 . S
C417 C421 1.393 . S
C418 H410 0.950 . S
C418 C416 1.391 . S
C418 C419 1.400 . S
C419 C418 1.400 . S
C419 C420 1.398 . S
C419 C425 1.491 . S
C420 H411 0.950 . S
C420 C419 1.398 . S
C420 C421 1.391 . S
C421 H409 0.950 . S
C421 C417 1.393 . S
C421 C420 1.391 . S
C422 H412 0.950 . S
C422 C423 1.386 . S
C422 C424 1.391 . S
C423 C422 1.386 . S
C423 C427 1.393 . S
C424 H413 0.950 . S
C424 C422 1.391 . S
C424 C425 1.400 . S
C425 C419 1.491 . S
C425 C424 1.400 . S
C425 C426 1.398 . S
C426 H414 0.950 . S
C426 C425 1.398 . S
C426 C427 1.391 . S
C427 H415 0.950 . S
C427 C423 1.393 . S
C427 C426 1.391 . S
H428 C436 0.950 . S
H429 C441 0.950 . S
H430 C438 0.950 . S
H431 C440 0.950 . S
H432 C442 0.950 . S
H433 C444 0.950 . S
H434 C446 0.950 . S
H435 C447 0.950 . S
C436 H428 0.950 . S
C436 C437 1.386 . S
C436 C438 1.391 . S
C437 C436 1.386 . S
C437 C441 1.393 . S
C438 H430 0.950 . S
C438 C436 1.391 . S
C438 C439 1.400 . S
C439 C438 1.400 . S
C439 C440 1.398 . S
C439 C445 1.491 . S
C440 H431 0.950 . S
C440 C439 1.398 . S
C440 C441 1.391 . S
C441 H429 0.950 . S
C441 C437 1.393 . S
C441 C440 1.391 . S
C442 H432 0.950 . S
C442 C443 1.386 . S
C442 C444 1.391 . S
C443 C442 1.386 . S
C443 C447 1.393 . S
C444 H433 0.950 . S
C444 C442 1.391 . S
C444 C445 1.400 . S
C445 C439 1.491 . S
C445 C444 1.400 . S
C445 C446 1.398 . S
C446 H434 0.950 . S
C446 C445 1.398 . S
C446 C447 1.391 . S
C447 H435 0.950 . S
C447 C443 1.393 . S
C447 C446 1.391 . S
H448 C456 0.950 . S
H449 C461 0.950 . S
H450 C458 0.950 . S
H451 C460 0.950 . S
H452 C462 0.950 . S
H453 C464 0.950 . S
H454 C466 0.950 . S
H455 C467 0.950 . S
C456 H448 0.950 . S
C456 C457 1.386 . S
C456 C458 1.391 . S
C457 C456 1.386 . S
C457 C461 1.393 . S
C458 H450 0.950 . S
C458 C456 1.391 . S
C458 C459 1.400 . S
C459 C458 1.400 . S
C459 C460 1.398 . S
C459 C465 1.491 . S
C460 H451 0.950 . S
C460 C459 1.398 . S
C460 C461 1.391 . S
C461 H449 0.950 . S
C461 C457 1.393 . S
C461 C460 1.391 . S
C462 H452 0.950 . S
C462 C463 1.386 . S
C462 C464 1.391 . S
C463 C462 1.386 . S
C463 C467 1.393 . S
C464 H453 0.950 . S
C464 C462 1.391 . S
C464 C465 1.400 . S
C465 C459 1.491 . S
C465 C464 1.400 . S
C465 C466 1.398 . S
C466 H454 0.950 . S
C466 C465 1.398 . S
C466 C467 1.391 . S
C467 H455 0.950 . S
C467 C463 1.393 . S
C467 C466 1.391 . S
H468 C476 0.950 . S
H469 C481 0.950 . S
H470 C478 0.950 . S
H471 C480 0.950 . S
H472 C482 0.950 . S
H473 C484 0.950 . S
H474 C486 0.950 . S
H475 C487 0.950 . S
C476 H468 0.950 . S
C476 C477 1.386 . S
C476 C478 1.391 . S
C477 C476 1.386 . S
C477 C481 1.393 . S
C478 H470 0.950 . S
C478 C476 1.391 . S
C478 C479 1.400 . S
C479 C478 1.400 . S
C479 C480 1.398 . S
C479 C485 1.491 . S
C480 H471 0.950 . S
C480 C479 1.398 . S
C480 C481 1.391 . S
C481 H469 0.950 . S
C481 C477 1.393 . S
C481 C480 1.391 . S
C482 H472 0.950 . S
C482 C483 1.386 . S
C482 C484 1.391 . S
C483 C482 1.386 . S
C483 C487 1.393 . S
C484 H473 0.950 . S
C484 C482 1.391 . S
C484 C485 1.400 . S
C485 C479 1.491 . S
C485 C484 1.400 . S
C485 C486 1.398 . S
C486 H474 0.950 . S
C486 C485 1.398 . S
C486 C487 1.391 . S
C487 H475 0.950 . S
C487 C483 1.393 . S
C487 C486 1.391 . S
H488 C496 0.950 . S
H489 C501 0.950 . S
H490 C498 0.950 . S
H491 C500 0.950 . S
H492 C502 0.950 . S
H493 C504 0.950 . S
H494 C506 0.950 . S
H495 C507 0.950 . S
C496 H488 0.950 . S
C496 C497 1.386 . S
C496 C498 1.391 . S
C497 C496 1.386 . S
C497 C501 1.393 . S
C498 H490 0.950 . S
C498 C496 1.391 . S
C498 C499 1.400 . S
C499 C498 1.400 . S
C499 C500 1.398 . S
C499 C505 1.491 . S
C500 H491 0.950 . S
C500 C499 1.398 . S
C500 C501 1.391 . S
C501 H489 0.950 . S
C501 C497 1.393 . S
C501 C500 1.391 . S
C502 H492 0.950 . S
C502 C503 1.386 . S
C502 C504 1.391 . S
C503 C502 1.386 . S
C503 C507 1.393 . S
C504 H493 0.950 . S
C504 C502 1.391 . S
C504 C505 1.400 . S
C505 C499 1.491 . S
C505 C504 1.400 . S
C505 C506 1.398 . S
C506 H494 0.950 . S
C506 C505 1.398 . S
C506 C507 1.391 . S
C507 H495 0.950 . S
C507 C503 1.393 . S
C507 C506 1.391 . S
H508 C516 0.950 . S
H509 C521 0.950 . S
H510 C518 0.950 . S
H511 C520 0.950 . S
H512 C522 0.950 . S
H513 C524 0.950 . S
H514 C526 0.950 . S
H515 C527 0.950 . S
C516 H508 0.950 . S
C516 C517 1.386 . S
C516 C518 1.391 . S
C517 C516 1.386 . S
C517 C521 1.393 . S
C518 H510 0.950 . S
C518 C516 1.391 . S
C518 C519 1.400 . S
C519 C518 1.400 . S
C519 C520 1.398 . S
C519 C525 1.491 . S
C520 H511 0.950 . S
C520 C519 1.398 . S
C520 C521 1.391 . S
C521 H509 0.950 . S
C521 C517 1.393 . S
C521 C520 1.391 . S
C522 H512 0.950 . S
C522 C523 1.386 . S
C522 C524 1.391 . S
C523 C522 1.386 . S
C523 C527 1.393 . S
C524 H513 0.950 . S
C524 C522 1.391 . S
C524 C525 1.400 . S
C525 C519 1.491 . S
C525 C524 1.400 . S
C525 C526 1.398 . S
C526 H514 0.950 . S
C526 C525 1.398 . S
C526 C527 1.391 . S
C527 H515 0.950 . S
C527 C523 1.393 . S
C527 C526 1.391 . S
H528 C536 0.950 . S
H529 C541 0.950 . S
H530 C538 0.955 . S
H531 C540 0.950 . S
H532 C542 0.950 . S
H533 C544 0.955 . S
H534 C546 0.950 . S
H535 C547 0.950 . S
C536 H528 0.950 . S
C536 C537 1.386 . S
C536 C538 1.391 . S
C537 C536 1.386 . S
C537 C541 1.393 . S
C538 H530 0.955 . S
C538 C536 1.391 . S
C538 C539 1.400 . S
C539 C538 1.400 . S
C539 C540 1.398 . S
C539 C545 1.491 1_445 S
C540 H531 0.950 . S
C540 C539 1.398 . S
C540 C541 1.391 . S
C541 H529 0.950 . S
C541 C537 1.393 . S
C541 C540 1.391 . S
C542 H532 0.950 . S
C542 C543 1.386 . S
C542 C544 1.391 . S
C543 C542 1.386 . S
C543 C547 1.393 . S
C544 H533 0.955 . S
C544 C542 1.391 . S
C544 C545 1.400 . S
C545 C539 1.491 1_665 S
C545 C544 1.400 . S
C545 C546 1.398 . S
C546 H534 0.950 . S
C546 C545 1.398 . S
C546 C547 1.391 . S
C547 H535 0.950 . S
C547 C543 1.393 . S
C547 C546 1.391 . S
H548 C556 0.946 1_455 S
H549 C561 0.950 . S
H550 C558 0.950 . S
H551 C560 0.950 . S
H552 C562 0.946 1_655 S
H553 C564 0.950 . S
H554 C566 0.950 . S
H555 C567 0.950 . S
C556 H548 0.946 1_655 S
C556 C557 1.392 . S
C556 C558 1.389 1_655 S
C557 C556 1.392 . S
C557 C561 1.393 . S
C558 H550 0.950 . S
C558 C556 1.389 1_455 S
C558 C559 1.400 1_455 S
C559 C558 1.400 1_655 S
C559 C560 1.398 . S
C559 C565 1.491 1_645 S
C560 H551 0.950 . S
C560 C559 1.398 . S
C560 C561 1.391 . S
C561 H549 0.950 . S
C561 C557 1.393 . S
C561 C560 1.391 . S
C562 H552 0.946 1_455 S
C562 C563 1.392 . S
C562 C564 1.389 1_455 S
C563 C562 1.392 . S
C563 C567 1.393 . S
C564 H553 0.950 . S
C564 C562 1.389 1_655 S
C564 C565 1.400 1_655 S
C565 C559 1.491 1_465 S
C565 C564 1.400 1_455 S
C565 C566 1.398 . S
C566 H554 0.950 . S
C566 C565 1.398 . S
C566 C567 1.391 . S
C567 H555 0.950 . S
C567 C563 1.393 . S
C567 C566 1.391 . S
H568 C576 0.949 1_545 S
H569 C581 0.950 . S
H570 C578 0.950 . S
H571 C580 0.950 . S
H572 C582 0.949 1_565 S
H573 C584 0.950 . S
H574 C586 0.950 . S
H575 C587 0.950 . S
C576 H568 0.949 1_565 S
C576 C577 1.387 . S
C576 C578 1.391 1_565 S
C577 C576 1.387 . S
C577 C581 1.393 . S
C578 H570 0.950 . S
C578 C576 1.391 1_545 S
C578 C579 1.400 1_545 S
C579 C578 1.400 1_565 S
C579 C580 1.398 . S
C579 C585 1.491 1_566 S
C580 H571 0.950 . S
C580 C579 1.398 . S
C580 C581 1.391 . S
C581 H569 0.950 . S
C581 C577 1.393 . S
C581 C580 1.391 . S
C582 H572 0.949 1_545 S
C582 C583 1.387 . S
C582 C584 1.391 1_545 S
C583 C582 1.387 . S
C583 C587 1.393 . S
C584 H573 0.950 . S
C584 C582 1.391 1_565 S
C584 C585 1.400 1_565 S
C585 C579 1.491 1_544 S
C585 C584 1.400 1_545 S
C585 C586 1.398 . S
C586 H574 0.950 . S
C586 C585 1.398 . S
C586 C587 1.391 . S
C587 H575 0.950 . S
C587 C583 1.393 . S
C587 C586 1.391 . S
H588 C596 0.972 . S
H589 C601 0.950 . S
H590 C598 0.950 . S
H591 C600 0.950 . S
H592 C602 0.972 . S
H593 C604 0.950 . S
H594 C606 0.950 . S
H595 C607 0.950 . S
C596 H588 0.972 . S
C596 C597 1.350 1_545 S
C596 C598 1.405 . S
C597 C596 1.350 1_565 S
C597 C601 1.393 . S
C598 H590 0.950 . S
C598 C596 1.405 . S
C598 C599 1.400 1_545 S
C599 C598 1.400 1_565 S
C599 C600 1.398 . S
C599 C605 1.491 1_564 S
C600 H591 0.950 . S
C600 C599 1.398 . S
C600 C601 1.391 . S
C601 H589 0.950 . S
C601 C597 1.393 . S
C601 C600 1.391 . S
C602 H592 0.972 . S
C602 C603 1.350 1_565 S
C602 C604 1.405 . S
C603 C602 1.350 1_545 S
C603 C607 1.393 . S
C604 H593 0.950 . S
C604 C602 1.405 . S
C604 C605 1.400 1_565 S
C605 C599 1.491 1_546 S
C605 C604 1.400 1_545 S
C605 C606 1.398 . S
C606 H594 0.950 . S
C606 C605 1.398 . S
C606 C607 1.391 . S
C607 H595 0.950 . S
C607 C603 1.393 . S
C607 C606 1.391 . S
H608 C616 0.950 . S
H609 C621 0.950 . S
H610 C618 0.950 1_554 S
H611 C620 0.950 . S
H612 C622 0.950 . S
H613 C624 0.950 1_556 S
H614 C626 0.950 . S
H615 C627 0.950 . S
C616 H608 0.950 . S
C616 C617 1.386 . S
C616 C618 1.391 . S
C617 C616 1.386 . S
C617 C621 1.393 . S
C618 H610 0.950 1_556 S
C618 C616 1.391 . S
C618 C619 1.400 . S
C619 C618 1.400 . S
C619 C620 1.398 . S
C619 C625 1.491 1_656 S
C620 H611 0.950 . S
C620 C619 1.398 . S
C620 C621 1.391 . S
C621 H609 0.950 . S
C621 C617 1.393 . S
C621 C620 1.391 . S
C622 H612 0.950 . S
C622 C623 1.386 . S
C622 C624 1.391 . S
C623 C622 1.386 . S
C623 C627 1.393 . S
C624 H613 0.950 1_554 S
C624 C622 1.391 . S
C624 C625 1.400 . S
C625 C619 1.491 1_454 S
C625 C624 1.400 . S
C625 C626 1.398 . S
C626 H614 0.950 . S
C626 C625 1.398 . S
C626 C627 1.391 . S
C627 H615 0.950 . S
C627 C623 1.393 . S
C627 C626 1.391 . S
H628 C636 0.950 . S
H629 C641 0.950 1_554 S
H630 C638 0.950 . S
H631 C640 0.950 . S
H632 C642 0.950 . S
H633 C644 0.950 . S
H634 C646 0.950 . S
H635 C647 0.950 1_556 S
C636 H628 0.950 . S
C636 C637 1.386 . S
C636 C638 1.391 . S
C637 C636 1.386 . S
C637 C641 1.393 . S
C638 H630 0.950 . S
C638 C636 1.391 . S
C638 C639 1.400 . S
C639 C638 1.400 . S
C639 C640 1.398 1_556 S
C639 C645 1.491 1_456 S
C640 H631 0.950 . S
C640 C639 1.398 1_554 S
C640 C641 1.391 1_554 S
C641 H629 0.950 1_556 S
C641 C637 1.393 . S
C641 C640 1.391 1_556 S
C642 H632 0.950 . S
C642 C643 1.386 . S
C642 C644 1.391 . S
C643 C642 1.386 . S
C643 C647 1.393 . S
C644 H633 0.950 . S
C644 C642 1.391 . S
C644 C645 1.400 . S
C645 C639 1.491 1_654 S
C645 C644 1.400 . S
C645 C646 1.398 1_554 S
C646 H634 0.950 . S
C646 C645 1.398 1_556 S
C646 C647 1.391 1_556 S
C647 H635 0.950 1_554 S
C647 C643 1.393 . S
C647 C646 1.391 1_554 S
C177 C48 1.058 . S
C183 C6 1.073 . S
C197 C34 1.051 . S
C203 C20 1.075 . S
C217 C76 1.070 . S
C223 C62 1.064 . S
C237 C90 1.059 . S
C243 C104 1.073 . S
C257 C132 1.057 . S
C263 C118 1.040 . S
C277 C146 1.045 . S
C283 C160 1.048 . S
C297 C9 1.109 . S
C303 C105 1.003 . S
C317 C91 1.044 . S
C323 C23 1.093 . S
C337 C77 1.033 . S
C343 C37 1.094 . S
C357 C63 1.051 . S
C363 C51 1.086 . S
C377 C65 1.103 . S
C383 C161 1.013 . S
C397 C119 1.013 . S
C403 C79 1.103 . S
C417 C147 1.055 . S
C423 C93 1.086 . S
C437 C107 1.108 . S
C443 C133 1.011 . S
C457 C35 1.028 . S
C463 C121 1.096 . S
C477 C7 1.015 . S
C483 C135 1.107 . S
C497 C149 1.110 . S
C503 C21 1.006 . S
C517 C49 1.013 . S
C523 C163 1.103 . S
C537 C8 1.456 . S
C543 C22 1.461 . S
C557 C50 1.446 . S
C563 C36 1.461 . S
C577 C92 1.448 . S
C583 C64 1.465 . S
C597 C78 1.446 . S
C603 C106 1.462 . S
C617 C148 1.450 . S
C623 C120 1.452 . S
C637 C134 1.463 . S
C643 C162 1.454 . S
