# Generated by pormake.
# Topology zfo, (5)-cn, num edge types: 1
# Building blocks:
#     Node 0, Type 0, BuildingBlock: XOMCOT_clean_sbu_0, # of connection points: 5
#     Node 1, Type 0, BuildingBlock: XOMCOT_clean_sbu_0, # of connection points: 5
#     Node 2, Type 0, BuildingBlock: XOMCOT_clean_sbu_0, # of connection points: 5
#     Node 3, Type 0, BuildingBlock: XOMCOT_clean_sbu_0, # of connection points: 5
#     Node 4, Type 0, BuildingBlock: XOMCOT_clean_sbu_0, # of connection points: 5
#     Node 5, Type 0, BuildingBlock: XOMCOT_clean_sbu_0, # of connection points: 5
#     Node 6, Type 0, BuildingBlock: XOMCOT_clean_sbu_0, # of connection points: 5
#     Node 7, Type 0, BuildingBlock: XOMCOT_clean_sbu_0, # of connection points: 5
#     Node 8, Type 0, BuildingBlock: XOMCOT_clean_sbu_0, # of connection points: 5
#     Node 9, Type 0, BuildingBlock: XOMCOT_clean_sbu_0, # of connection points: 5
#     Node 10, Type 0, BuildingBlock: XOMCOT_clean_sbu_0, # of connection points: 5
#     Node 11, Type 0, BuildingBlock: XOMCOT_clean_sbu_0, # of connection points: 5
#     Node 12, Type 0, BuildingBlock: XOMCOT_clean_sbu_0, # of connection points: 5
#     Node 13, Type 0, BuildingBlock: XOMCOT_clean_sbu_0, # of connection points: 5
#     Node 14, Type 0, BuildingBlock: XOMCOT_clean_sbu_0, # of connection points: 5
#     Node 15, Type 0, BuildingBlock: XOMCOT_clean_sbu_0, # of connection points: 5
#     Edge 16, Type (0, 0), BuildingBlock: XIVTED_clean_linker_0, # of connection points: 2
#     Edge 17, Type (0, 0), BuildingBlock: XIVTED_clean_linker_0, # of connection points: 2
#     Edge 18, Type (0, 0), BuildingBlock: XIVTED_clean_linker_0, # of connection points: 2
#     Edge 19, Type (0, 0), BuildingBlock: XIVTED_clean_linker_0, # of connection points: 2
#     Edge 20, Type (0, 0), BuildingBlock: XIVTED_clean_linker_0, # of connection points: 2
#     Edge 21, Type (0, 0), BuildingBlock: XIVTED_clean_linker_0, # of connection points: 2
#     Edge 22, Type (0, 0), BuildingBlock: XIVTED_clean_linker_0, # of connection points: 2
#     Edge 23, Type (0, 0), BuildingBlock: XIVTED_clean_linker_0, # of connection points: 2
#     Edge 24, Type (0, 0), BuildingBlock: XIVTED_clean_linker_0, # of connection points: 2
#     Edge 25, Type (0, 0), BuildingBlock: XIVTED_clean_linker_0, # of connection points: 2
#     Edge 26, Type (0, 0), BuildingBlock: XIVTED_clean_linker_0, # of connection points: 2
#     Edge 27, Type (0, 0), BuildingBlock: XIVTED_clean_linker_0, # of connection points: 2
#     Edge 28, Type (0, 0), BuildingBlock: XIVTED_clean_linker_0, # of connection points: 2
#     Edge 29, Type (0, 0), BuildingBlock: XIVTED_clean_linker_0, # of connection points: 2
#     Edge 30, Type (0, 0), BuildingBlock: XIVTED_clean_linker_0, # of connection points: 2
#     Edge 31, Type (0, 0), BuildingBlock: XIVTED_clean_linker_0, # of connection points: 2
#     Edge 32, Type (0, 0), BuildingBlock: XIVTED_clean_linker_0, # of connection points: 2
#     Edge 33, Type (0, 0), BuildingBlock: XIVTED_clean_linker_0, # of connection points: 2
#     Edge 34, Type (0, 0), BuildingBlock: XIVTED_clean_linker_0, # of connection points: 2
#     Edge 35, Type (0, 0), BuildingBlock: XIVTED_clean_linker_0, # of connection points: 2
#     Edge 36, Type (0, 0), BuildingBlock: XIVTED_clean_linker_0, # of connection points: 2
#     Edge 37, Type (0, 0), BuildingBlock: XIVTED_clean_linker_0, # of connection points: 2
#     Edge 38, Type (0, 0), BuildingBlock: XIVTED_clean_linker_0, # of connection points: 2
#     Edge 39, Type (0, 0), BuildingBlock: XIVTED_clean_linker_0, # of connection points: 2
#     Edge 40, Type (0, 0), BuildingBlock: XIVTED_clean_linker_0, # of connection points: 2
#     Edge 41, Type (0, 0), BuildingBlock: XIVTED_clean_linker_0, # of connection points: 2
#     Edge 42, Type (0, 0), BuildingBlock: XIVTED_clean_linker_0, # of connection points: 2
#     Edge 43, Type (0, 0), BuildingBlock: XIVTED_clean_linker_0, # of connection points: 2
#     Edge 44, Type (0, 0), BuildingBlock: XIVTED_clean_linker_0, # of connection points: 2
#     Edge 45, Type (0, 0), BuildingBlock: XIVTED_clean_linker_0, # of connection points: 2
#     Edge 46, Type (0, 0), BuildingBlock: XIVTED_clean_linker_0, # of connection points: 2
#     Edge 47, Type (0, 0), BuildingBlock: XIVTED_clean_linker_0, # of connection points: 2
#     Edge 48, Type (0, 0), BuildingBlock: XIVTED_clean_linker_0, # of connection points: 2
#     Edge 49, Type (0, 0), BuildingBlock: XIVTED_clean_linker_0, # of connection points: 2
#     Edge 50, Type (0, 0), BuildingBlock: XIVTED_clean_linker_0, # of connection points: 2
#     Edge 51, Type (0, 0), BuildingBlock: XIVTED_clean_linker_0, # of connection points: 2
#     Edge 52, Type (0, 0), BuildingBlock: XIVTED_clean_linker_0, # of connection points: 2
#     Edge 53, Type (0, 0), BuildingBlock: XIVTED_clean_linker_0, # of connection points: 2
#     Edge 54, Type (0, 0), BuildingBlock: XIVTED_clean_linker_0, # of connection points: 2
#     Edge 55, Type (0, 0), BuildingBlock: XIVTED_clean_linker_0, # of connection points: 2
# Relax obj value: 0.183
# Max RMSD: 0.186
# Mean RMSD: 0.186
data_MOF--net-zfo--node1-XOMCOT_clean_sbu_0--edge1-XIVTED_clean_linker_0
_symmetry_space_group_name_H-M    P1
_symmetry_Int_Tables_number       1
_symmetry_cell_setting            triclinic
loop_
_symmetry_equiv_pos_as_xyz
'x, y, z'
_cell_length_a     34.41035
_cell_length_b     34.396427
_cell_length_c     58.680244
_cell_angle_alpha  90.029479
_cell_angle_beta   89.949671
_cell_angle_gamma 90.005673
loop_
_atom_site_label
_atom_site_type_symbol
_atom_site_fract_x
_atom_site_fract_y
_atom_site_fract_z
_atom_type_partial_charge
Co0 Co 0.08636 0.21993 0.16421 0.0
C1 C 0.16962 0.20524 0.16748 0.0
C2 C 0.13767 0.16181 0.18589 0.0
C3 C 0.1769 0.15602 0.18957 0.0
N4 N 0.13338 0.19267 0.17201 0.0
N5 N 0.1968 0.1837 0.17815 0.0
H6 H 0.17584 0.23051 0.15712 0.0
H7 H 0.11404 0.14586 0.19366 0.0
C8 C 0.02863 0.15807 0.15282 0.0
O9 O 0.01717 0.18053 0.136 0.0
N10 N 0.03925 0.24877 0.15693 0.0
C11 C 0.03653 0.2816 0.14442 0.0
C12 C 0.99976 0.29654 0.14645 0.0
C13 C 0.00401 0.24505 0.167 0.0
N14 N 0.97931 0.27362 0.16064 0.0
C15 C 0.11043 0.24227 0.11895 0.0
C16 C 0.10843 0.16875 0.10012 0.0
C17 C 0.11571 0.20058 0.08584 0.0
C18 C 0.11793 0.23763 0.09571 0.0
C19 C 0.10119 0.17481 0.12327 0.0
N20 N 0.09897 0.21158 0.13207 0.0
H21 H 0.11452 0.2706 0.12637 0.0
H22 H 0.09772 0.14968 0.13406 0.0
H23 H 0.05982 0.29569 0.13545 0.0
H24 H 0.99708 0.22277 0.17938 0.0
O25 O 0.11307 0.26861 0.16902 0.0
O26 O 0.08102 0.23607 0.19565 0.0
O27 O 0.05614 0.16929 0.16593 0.0
C28 C 0.10229 0.26599 0.1902 0.0
H29 H 0.18964 0.13442 0.2007 0.0
H30 H 0.9891 0.32275 0.13839 0.0
H31 H 0.10869 0.13934 0.09352 0.0
H32 H 0.12483 0.26301 0.08558 0.0
Co33 Co 0.79039 0.09323 0.66961 0.0
C34 C 0.79221 0.17929 0.67414 0.0
C35 C 0.83853 0.15254 0.69264 0.0
C36 C 0.83912 0.19188 0.69707 0.0
N37 N 0.80994 0.14471 0.67754 0.0
N38 N 0.80973 0.2085 0.68551 0.0
H39 H 0.76565 0.18305 0.66473 0.0
H40 H 0.85664 0.13093 0.70077 0.0
C41 C 0.87512 0.08816 0.66201 0.0
O42 O 0.87021 0.12088 0.6508 0.0
N43 N 0.76913 0.0427 0.66251 0.0
C44 C 0.73976 0.03735 0.64764 0.0
C45 C 0.72704 0.99976 0.64918 0.0
C46 C 0.77392 0.0081 0.67307 0.0
N47 N 0.74833 0.98146 0.66514 0.0
C48 C 0.7738 0.13022 0.6262 0.0
C49 C 0.81626 0.07827 0.60028 0.0
C50 C 0.79523 0.10749 0.5892 0.0
C51 C 0.77398 0.13389 0.60245 0.0
C52 C 0.81532 0.07571 0.62394 0.0
N53 N 0.79536 0.10224 0.63681 0.0
H54 H 0.75421 0.14825 0.63573 0.0
H55 H 0.8295 0.05119 0.63184 0.0
H56 H 0.72719 0.05988 0.63713 0.0
H57 H 0.79388 0.00321 0.68702 0.0
O58 O 0.73815 0.11207 0.67408 0.0
O59 O 0.7754 0.08707 0.70119 0.0
O60 O 0.84553 0.07136 0.67104 0.0
C61 C 0.74251 0.10312 0.69545 0.0
H62 H 0.85837 0.20676 0.70875 0.0
H63 H 0.70311 0.98703 0.63981 0.0
H64 H 0.83265 0.05687 0.59073 0.0
H65 H 0.756 0.15588 0.59451 0.0
Co66 Co 0.9198 0.79927 0.15723 0.0
C67 C 0.83423 0.80001 0.16226 0.0
C68 C 0.85988 0.84875 0.17904 0.0
C69 C 0.82083 0.84793 0.18422 0.0
N70 N 0.86821 0.81937 0.16457 0.0
N71 N 0.80472 0.81702 0.17369 0.0
H72 H 0.83183 0.77174 0.1545 0.0
H73 H 0.88105 0.86805 0.1866 0.0
C74 C 0.92679 0.8839 0.1497 0.0
O75 O 0.89482 0.87949 0.13773 0.0
N76 N 0.9702 0.77703 0.15068 0.0
C77 C 0.97546 0.7486 0.13515 0.0
C78 C 0.01203 0.73359 0.13755 0.0
C79 C 0.0038 0.77875 0.16259 0.0
N80 N 0.02975 0.75226 0.15482 0.0
C81 C 0.88205 0.78684 0.1134 0.0
C82 C 0.93821 0.82509 0.0882 0.0
C83 C 0.90724 0.80738 0.07681 0.0
C84 C 0.87869 0.78837 0.08965 0.0
C85 C 0.9402 0.82331 0.11187 0.0
N86 N 0.91197 0.80503 0.12436 0.0
H87 H 0.86169 0.76928 0.12264 0.0
H88 H 0.9654 0.83558 0.12015 0.0
H89 H 0.95337 0.73801 0.12362 0.0
H90 H 0.00822 0.79701 0.17739 0.0
O91 O 0.90016 0.74715 0.16138 0.0
O92 O 0.92458 0.78422 0.1888 0.0
O93 O 0.94243 0.85406 0.15913 0.0
C94 C 0.90815 0.7516 0.18291 0.0
H95 H 0.80606 0.86767 0.19565 0.0
H96 H 0.02431 0.70981 0.12781 0.0
H97 H 0.96117 0.83961 0.07886 0.0
H98 H 0.85503 0.77316 0.08136 0.0
Co99 Co 0.20761 0.91856 0.66711 0.0
C100 C 0.18968 0.83582 0.66565 0.0
C101 C 0.15525 0.86444 0.69113 0.0
C102 C 0.14976 0.82476 0.69305 0.0
N103 N 0.18035 0.87109 0.67395 0.0
N104 N 0.17152 0.80698 0.67698 0.0
H105 H 0.21162 0.83123 0.65269 0.0
H106 H 0.14364 0.88661 0.7023 0.0
C107 C 0.14537 0.97677 0.657 0.0
O108 O 0.1674 0.98954 0.6403 0.0
N109 N 0.23658 0.96606 0.66075 0.0
C110 C 0.27 0.96892 0.64878 0.0
C111 C 0.28496 0.00559 0.65126 0.0
C112 C 0.23248 1.00116 0.67097 0.0
N113 N 0.26144 0.02588 0.66519 0.0
C114 C 0.23118 0.89634 0.62187 0.0
C115 C 0.15861 0.89966 0.60197 0.0
C116 C 0.19096 0.89182 0.58818 0.0
C117 C 0.22749 0.88916 0.59858 0.0
C118 C 0.16369 0.90649 0.62527 0.0
N119 N 0.20005 0.90773 0.63467 0.0
H120 H 0.25913 0.89174 0.62962 0.0
H121 H 0.13813 0.91011 0.6357 0.0
H122 H 0.28446 0.94573 0.63992 0.0
H123 H 0.20965 0.008 0.68302 0.0
O124 O 0.25611 0.89146 0.67175 0.0
O125 O 0.22319 0.92246 0.69868 0.0
O126 O 0.15692 0.94838 0.66933 0.0
C127 C 0.25317 0.90143 0.69305 0.0
H128 H 0.1322 0.8101 0.70572 0.0
H129 H 0.31156 0.01632 0.64367 0.0
H130 H 0.12955 0.89994 0.5949 0.0
H131 H 0.25323 0.882 0.58881 0.0
Co132 Co 0.59411 0.29598 0.83843 0.0
C133 C 0.6793 0.29514 0.829 0.0
C134 C 0.64945 0.3376 0.80895 0.0
C135 C 0.68769 0.33655 0.80206 0.0
N136 N 0.64432 0.3125 0.82639 0.0
N137 N 0.70629 0.3096 0.81461 0.0
H138 H 0.68478 0.27103 0.8402 0.0
H139 H 0.62652 0.35428 0.80101 0.0
C140 C 0.59331 0.3818 0.84207 0.0
O141 O 0.62828 0.37751 0.85073 0.0
N142 N 0.5443 0.27801 0.84953 0.0
C143 C 0.53924 0.25506 0.86792 0.0
C144 C 0.50064 0.2458 0.8698 0.0
C145 C 0.5087 0.28148 0.84001 0.0
N146 N 0.48147 0.26223 0.85228 0.0
C147 C 0.63746 0.28073 0.87963 0.0
C148 C 0.59651 0.33161 0.90709 0.0
C149 C 0.62525 0.30829 0.91691 0.0
C150 C 0.64589 0.28259 0.90289 0.0
C151 C 0.58865 0.32844 0.88386 0.0
N152 N 0.60994 0.30428 0.87012 0.0
H153 H 0.65119 0.25829 0.86975 0.0
H154 H 0.56386 0.34398 0.87726 0.0
H155 H 0.56221 0.24473 0.87891 0.0
H156 H 0.50299 0.29711 0.82436 0.0
O157 O 0.61023 0.24267 0.83495 0.0
O158 O 0.58165 0.27777 0.80809 0.0
O159 O 0.57392 0.35159 0.83605 0.0
C160 C 0.5981 0.24517 0.81403 0.0
H161 H 0.70034 0.3529 0.78815 0.0
H162 H 0.48784 0.227 0.88256 0.0
H163 H 0.57862 0.3505 0.91751 0.0
H164 H 0.66747 0.26313 0.90998 0.0
Co165 Co 0.71556 0.59108 0.32814 0.0
C166 C 0.70184 0.67432 0.32739 0.0
C167 C 0.65741 0.64496 0.30837 0.0
C168 C 0.65262 0.68467 0.30577 0.0
N169 N 0.68833 0.63881 0.32195 0.0
N170 N 0.68101 0.70284 0.31754 0.0
H171 H 0.72749 0.67911 0.33767 0.0
H172 H 0.64087 0.62236 0.3 0.0
C173 C 0.65408 0.53257 0.33898 0.0
O174 O 0.67698 0.52035 0.3554 0.0
N175 N 0.74467 0.54357 0.33392 0.0
C176 C 0.77887 0.54085 0.34509 0.0
C177 C 0.79367 0.50418 0.34235 0.0
C178 C 0.73992 0.50843 0.32387 0.0
N179 N 0.7692 0.48382 0.32907 0.0
C180 C 0.7397 0.61175 0.3737 0.0
C181 C 0.66699 0.60719 0.39346 0.0
C182 C 0.69935 0.61336 0.40744 0.0
C183 C 0.73591 0.6172 0.3972 0.0
C184 C 0.67211 0.6026 0.37002 0.0
N185 N 0.70852 0.60134 0.36067 0.0
H186 H 0.76771 0.61655 0.36604 0.0
H187 H 0.64657 0.60006 0.35949 0.0
H188 H 0.79388 0.5642 0.35349 0.0
H189 H 0.71638 0.50145 0.31235 0.0
O190 O 0.76414 0.61801 0.32329 0.0
O191 O 0.7305 0.5879 0.29637 0.0
O192 O 0.66477 0.56098 0.32635 0.0
C193 C 0.76076 0.60859 0.30193 0.0
H194 H 0.63138 0.69893 0.29505 0.0
H195 H 0.82079 0.49347 0.34927 0.0
H196 H 0.63795 0.60613 0.40058 0.0
H197 H 0.76148 0.62353 0.4073 0.0
Co198 Co 0.42139 0.71258 0.83654 0.0
C199 C 0.33838 0.69646 0.83368 0.0
C200 C 0.37111 0.65426 0.81475 0.0
C201 C 0.3321 0.64865 0.81042 0.0
N202 N 0.3748 0.68426 0.82932 0.0
N203 N 0.31165 0.67558 0.82215 0.0
H204 H 0.33186 0.72146 0.8442 0.0
H205 H 0.39505 0.63929 0.80664 0.0
C206 C 0.48066 0.6514 0.84737 0.0
O207 O 0.49334 0.67385 0.86389 0.0
N208 N 0.46809 0.74237 0.84321 0.0
C209 C 0.47047 0.77551 0.85549 0.0
C210 C 0.50699 0.79092 0.85323 0.0
C211 C 0.50324 0.73891 0.83304 0.0
N212 N 0.52759 0.76795 0.83913 0.0
C213 C 0.3975 0.73688 0.88124 0.0
C214 C 0.4054 0.66576 0.90252 0.0
C215 C 0.39836 0.69884 0.91585 0.0
C216 C 0.39267 0.73443 0.90477 0.0
C217 C 0.41008 0.66966 0.87893 0.0
N218 N 0.4097 0.70555 0.86889 0.0
H219 H 0.39146 0.76421 0.87304 0.0
H220 H 0.4143 0.64371 0.86892 0.0
H221 H 0.44708 0.78938 0.86451 0.0
H222 H 0.51039 0.71641 0.82084 0.0
O223 O 0.39388 0.76065 0.83129 0.0
O224 O 0.42591 0.7276 0.80486 0.0
O225 O 0.45211 0.66239 0.83501 0.0
C226 C 0.40429 0.75738 0.81009 0.0
H227 H 0.32003 0.62808 0.7984 0.0
H228 H 0.51742 0.81739 0.86111 0.0
H229 H 0.40843 0.63734 0.91026 0.0
H230 H 0.38476 0.7603 0.91424 0.0
Co231 Co 0.29821 0.41519 0.33528 0.0
C232 C 0.30265 0.32925 0.33012 0.0
C233 C 0.34466 0.35835 0.30934 0.0
C234 C 0.34584 0.31923 0.30435 0.0
N235 N 0.31835 0.36461 0.32604 0.0
N236 N 0.31914 0.30109 0.31734 0.0
H237 H 0.27822 0.32416 0.34115 0.0
H238 H 0.36057 0.38094 0.30055 0.0
C239 C 0.3836 0.42135 0.34043 0.0
O240 O 0.38056 0.38767 0.35085 0.0
N241 N 0.27633 0.46492 0.34375 0.0
C242 C 0.24885 0.46919 0.35995 0.0
C243 C 0.23392 0.50601 0.35874 0.0
C244 C 0.27765 0.4994 0.33271 0.0
N245 N 0.25177 0.52491 0.34159 0.0
C246 C 0.28191 0.37679 0.37813 0.0
C247 C 0.32956 0.42327 0.40442 0.0
C248 C 0.30718 0.39469 0.41529 0.0
C249 C 0.28302 0.37131 0.40174 0.0
C250 C 0.32696 0.42825 0.38091 0.0
N251 N 0.30476 0.40403 0.36777 0.0
H252 H 0.26055 0.36092 0.36854 0.0
H253 H 0.34186 0.45274 0.37346 0.0
H254 H 0.23866 0.44635 0.3711 0.0
H255 H 0.29514 0.50483 0.3177 0.0
O256 O 0.24616 0.39553 0.33109 0.0
O257 O 0.28196 0.42294 0.30408 0.0
O258 O 0.35276 0.4383 0.33314 0.0
C259 C 0.2497 0.40571 0.30984 0.0
H260 H 0.36343 0.30555 0.29131 0.0
H261 H 0.21071 0.51769 0.36918 0.0
H262 H 0.34847 0.44242 0.41397 0.0
H263 H 0.26365 0.35016 0.40935 0.0
Co264 Co 0.92046 0.77896 0.82643 0.0
C265 C 0.83734 0.79579 0.82772 0.0
C266 C 0.86756 0.83831 0.80766 0.0
C267 C 0.82813 0.8449 0.80578 0.0
N268 N 0.87309 0.80756 0.82147 0.0
N269 N 0.80927 0.81778 0.81821 0.0
H270 H 0.83203 0.77055 0.83828 0.0
H271 H 0.89034 0.8534 0.79855 0.0
C272 C 0.97765 0.84304 0.83681 0.0
O273 O 0.99232 0.82194 0.85336 0.0
N274 N 0.96784 0.74859 0.83078 0.0
C275 C 0.96897 0.71108 0.83765 0.0
C276 C 0.00584 0.69691 0.83522 0.0
C277 C 0.00438 0.75596 0.82325 0.0
N278 N 0.02814 0.72501 0.82617 0.0
C279 C 0.90918 0.75332 0.87266 0.0
C280 C 0.90455 0.82638 0.89206 0.0
C281 C 0.90464 0.79364 0.90624 0.0
C282 C 0.90597 0.75676 0.89624 0.0
C283 C 0.90836 0.82155 0.86849 0.0
N284 N 0.91313 0.78537 0.85918 0.0
H285 H 0.90767 0.72479 0.86535 0.0
H286 H 0.90761 0.84703 0.85775 0.0
H287 H 0.94436 0.69359 0.84251 0.0
H288 H 0.01305 0.78248 0.81477 0.0
O289 O 0.89178 0.73134 0.82203 0.0
O290 O 0.92092 0.76468 0.79455 0.0
O291 O 0.9504 0.8295 0.82431 0.0
C292 C 0.89971 0.73495 0.80046 0.0
H293 H 0.8144 0.8664 0.795 0.0
H294 H 0.01532 0.66774 0.83934 0.0
H295 H 0.90246 0.8554 0.89913 0.0
H296 H 0.90414 0.73072 0.90657 0.0
Co297 Co 0.21087 0.91385 0.33857 0.0
C298 C 0.19944 0.83013 0.33648 0.0
C299 C 0.15497 0.85935 0.31745 0.0
C300 C 0.15184 0.81978 0.31365 0.0
N301 N 0.18489 0.86557 0.33177 0.0
N302 N 0.18027 0.80168 0.3254 0.0
H303 H 0.22494 0.82548 0.34691 0.0
H304 H 0.1383 0.88196 0.30919 0.0
C305 C 0.14813 0.97123 0.34854 0.0
O306 O 0.17037 0.98404 0.36513 0.0
N307 N 0.23867 0.96204 0.34484 0.0
C308 C 0.27142 0.96597 0.35731 0.0
C309 C 0.28629 0.00254 0.35422 0.0
C310 C 0.2348 0.99644 0.33382 0.0
N311 N 0.26335 0.02166 0.33947 0.0
C312 C 0.23373 0.89265 0.38415 0.0
C313 C 0.16044 0.89518 0.40326 0.0
C314 C 0.19248 0.88892 0.41752 0.0
C315 C 0.22941 0.88643 0.40753 0.0
C316 C 0.16617 0.90111 0.37995 0.0
N317 N 0.20281 0.90309 0.37095 0.0
H318 H 0.26201 0.88841 0.37671 0.0
H319 H 0.1409 0.90373 0.3692 0.0
H320 H 0.28564 0.94348 0.36687 0.0
H321 H 0.21267 0.00226 0.32117 0.0
O322 O 0.26017 0.88802 0.33431 0.0
O323 O 0.22687 0.91753 0.30703 0.0
O324 O 0.15961 0.94283 0.33616 0.0
C325 C 0.25717 0.89719 0.3129 0.0
H326 H 0.13193 0.80573 0.30198 0.0
H327 H 0.31264 0.01391 0.36179 0.0
H328 H 0.13113 0.89509 0.41 0.0
H329 H 0.25497 0.88032 0.41767 0.0
Co330 Co 0.0922 0.19754 0.83586 0.0
C331 C 0.17685 0.1943 0.83674 0.0
C332 C 0.15419 0.15239 0.81314 0.0
C333 C 0.19424 0.15308 0.81121 0.0
N334 N 0.14355 0.17829 0.82919 0.0
N335 N 0.2083 0.17955 0.82608 0.0
H336 H 0.1778 0.21819 0.84872 0.0
H337 H 0.13422 0.13567 0.80282 0.0
C338 C 0.04114 0.12723 0.8427 0.0
O339 O 0.01958 0.14728 0.85694 0.0
N340 N 0.04081 0.21863 0.84224 0.0
C341 C 0.03166 0.24542 0.85822 0.0
C342 C 0.99453 0.25835 0.85461 0.0
C343 C 0.00878 0.2161 0.82889 0.0
N344 N 0.98023 0.23999 0.83623 0.0
C345 C 0.11442 0.224 0.88048 0.0
C346 C 0.11172 0.15283 0.90209 0.0
C347 C 0.11863 0.18624 0.91517 0.0
C348 C 0.12111 0.22205 0.9039 0.0
C349 C 0.10523 0.15615 0.87867 0.0
N350 N 0.10378 0.19179 0.86836 0.0
H351 H 0.11676 0.25192 0.87223 0.0
H352 H 0.10212 0.12973 0.86903 0.0
H353 H 0.05071 0.25698 0.87101 0.0
H354 H 0.00707 0.19855 0.8136 0.0
O355 O 0.11094 0.24996 0.831 0.0
O356 O 0.08616 0.21198 0.80422 0.0
O357 O 0.07108 0.14265 0.83343 0.0
C358 C 0.10188 0.24509 0.80968 0.0
H359 H 0.21152 0.13616 0.7994 0.0
H360 H 0.97946 0.28044 0.86436 0.0
H361 H 0.1116 0.12427 0.90986 0.0
H362 H 0.12706 0.24865 0.91313 0.0
Co363 Co 0.79242 0.0889 0.33809 0.0
C364 C 0.79921 0.17451 0.33149 0.0
C365 C 0.84292 0.1432 0.31318 0.0
C366 C 0.84542 0.18179 0.30725 0.0
N367 N 0.81475 0.13864 0.32901 0.0
N368 N 0.81771 0.20138 0.31869 0.0
H369 H 0.77335 0.18071 0.34114 0.0
H370 H 0.85909 0.11973 0.30539 0.0
C371 C 0.87678 0.08006 0.34533 0.0
O372 O 0.87334 0.11345 0.35607 0.0
N373 N 0.76858 0.03992 0.34608 0.0
C374 C 0.73994 0.0362 0.36162 0.0
C375 C 0.72458 0.99954 0.36008 0.0
C376 C 0.77015 0.00542 0.33511 0.0
N377 N 0.74332 0.9803 0.34336 0.0
C378 C 0.77842 0.12917 0.38075 0.0
C379 C 0.81786 0.07632 0.40759 0.0
C380 C 0.79819 0.10705 0.41817 0.0
C381 C 0.77855 0.13393 0.40443 0.0
C382 C 0.81692 0.07261 0.38398 0.0
N383 N 0.79835 0.09944 0.37066 0.0
H384 H 0.76005 0.14788 0.37085 0.0
H385 H 0.82986 0.04701 0.3765 0.0
H386 H 0.7296 0.05925 0.37259 0.0
H387 H 0.78872 0.99968 0.32059 0.0
O388 O 0.74127 0.11036 0.33371 0.0
O389 O 0.7765 0.08203 0.30672 0.0
O390 O 0.84636 0.06409 0.33673 0.0
C391 C 0.74471 0.10023 0.31245 0.0
H392 H 0.86456 0.19404 0.29449 0.0
H393 H 0.70071 0.9882 0.37011 0.0
H394 H 0.83311 0.05459 0.41751 0.0
H395 H 0.76167 0.15722 0.41195 0.0
Co396 Co 0.41651 0.70332 0.16727 0.0
C397 C 0.33254 0.69301 0.16665 0.0
C398 C 0.35969 0.64696 0.18547 0.0
C399 C 0.31988 0.6441 0.18813 0.0
N400 N 0.36736 0.67769 0.17199 0.0
N401 N 0.30303 0.67349 0.17652 0.0
H402 H 0.32908 0.71921 0.15666 0.0
H403 H 0.38143 0.6295 0.19396 0.0
C404 C 0.46906 0.63709 0.15463 0.0
O405 O 0.48216 0.65839 0.13769 0.0
N406 N 0.4657 0.7308 0.16318 0.0
C407 C 0.4691 0.76873 0.15736 0.0
C408 C 0.50654 0.78074 0.16071 0.0
C409 C 0.50157 0.72076 0.17072 0.0
N410 N 0.52687 0.75068 0.16906 0.0
C411 C 0.40586 0.73241 0.12175 0.0
C412 C 0.39774 0.6611 0.10061 0.0
C413 C 0.39958 0.69472 0.08713 0.0
C414 C 0.40221 0.73079 0.09813 0.0
C415 C 0.4012 0.66417 0.12431 0.0
N416 N 0.40822 0.69931 0.13444 0.0
H417 H 0.40604 0.76046 0.12976 0.0
H418 H 0.39897 0.63807 0.13447 0.0
H419 H 0.44561 0.78794 0.15285 0.0
H420 H 0.50855 0.69322 0.1786 0.0
O421 O 0.39105 0.75243 0.17269 0.0
O422 O 0.41826 0.71595 0.19942 0.0
O423 O 0.44375 0.65104 0.16837 0.0
C424 C 0.39901 0.74729 0.19413 0.0
H425 H 0.30476 0.62363 0.19898 0.0
H426 H 0.51776 0.80981 0.15805 0.0
H427 H 0.39458 0.63262 0.09297 0.0
H428 H 0.40125 0.75772 0.08859 0.0
Co429 Co 0.27542 0.41759 0.66392 0.0
C430 C 0.29039 0.33472 0.66912 0.0
C431 C 0.33273 0.36785 0.68766 0.0
C432 C 0.33842 0.32881 0.69219 0.0
N433 N 0.30262 0.37126 0.67317 0.0
N434 N 0.3114 0.3082 0.68067 0.0
H435 H 0.26571 0.32786 0.65844 0.0
H436 H 0.34822 0.39197 0.69523 0.0
C437 C 0.33682 0.47584 0.6523 0.0
O438 O 0.31489 0.4863 0.63504 0.0
N439 N 0.24662 0.46393 0.65501 0.0
C440 C 0.21781 0.46652 0.63948 0.0
C441 C 0.20428 0.50397 0.63888 0.0
C442 C 0.24884 0.49986 0.66441 0.0
N443 N 0.22386 0.52498 0.65444 0.0
C444 C 0.25509 0.3884 0.61934 0.0
C445 C 0.3281 0.39553 0.60029 0.0
C446 C 0.29666 0.38643 0.58613 0.0
C447 C 0.26008 0.38098 0.5961 0.0
C448 C 0.32176 0.40218 0.62346 0.0
N449 N 0.28493 0.40259 0.63223 0.0
H450 H 0.22692 0.3833 0.62684 0.0
H451 H 0.34668 0.40724 0.63417 0.0
H452 H 0.20598 0.44308 0.62959 0.0
H453 H 0.26887 0.50759 0.67788 0.0
O454 O 0.22676 0.39096 0.66896 0.0
O455 O 0.25843 0.42517 0.69501 0.0
O456 O 0.32572 0.44839 0.66552 0.0
C457 C 0.22898 0.40305 0.68992 0.0
H458 H 0.35948 0.31674 0.70391 0.0
H459 H 0.18111 0.51478 0.62814 0.0
H460 H 0.35729 0.39774 0.59349 0.0
H461 H 0.23523 0.37245 0.58594 0.0
Co462 Co 0.58627 0.28754 0.16606 0.0
C463 C 0.66984 0.30061 0.16992 0.0
C464 C 0.63828 0.34535 0.18749 0.0
C465 C 0.67755 0.35103 0.19104 0.0
N466 N 0.63372 0.31378 0.17419 0.0
N467 N 0.69722 0.32259 0.18013 0.0
H468 H 0.67584 0.2749 0.15988 0.0
H469 H 0.6148 0.36218 0.19477 0.0
C470 C 0.53067 0.3515 0.15377 0.0
O471 O 0.51809 0.32956 0.13699 0.0
N472 N 0.53879 0.25991 0.15827 0.0
C473 C 0.53575 0.22805 0.14493 0.0
C474 C 0.49885 0.21336 0.1466 0.0
C475 C 0.50351 0.26354 0.16828 0.0
N476 N 0.4786 0.23555 0.16129 0.0
C477 C 0.61444 0.262 0.12253 0.0
C478 C 0.6092 0.33232 0.10016 0.0
C479 C 0.61875 0.29896 0.08755 0.0
C480 C 0.62309 0.26384 0.09936 0.0
C481 C 0.60156 0.32919 0.12352 0.0
N482 N 0.60063 0.29368 0.13398 0.0
H483 H 0.61897 0.23476 0.13117 0.0
H484 H 0.59654 0.35554 0.133 0.0
H485 H 0.55888 0.21456 0.13549 0.0
H486 H 0.49673 0.28521 0.18106 0.0
O487 O 0.61119 0.23836 0.17187 0.0
O488 O 0.57921 0.27268 0.19771 0.0
O489 O 0.55759 0.33907 0.16691 0.0
C490 C 0.59976 0.24196 0.19284 0.0
H491 H 0.69049 0.37336 0.2016 0.0
H492 H 0.48793 0.1878 0.13794 0.0
H493 H 0.60688 0.36053 0.09213 0.0
H494 H 0.63307 0.23775 0.09084 0.0
Co495 Co 0.69252 0.59118 0.6585 0.0
C496 C 0.69111 0.67718 0.6645 0.0
C497 C 0.64723 0.64869 0.68421 0.0
C498 C 0.64768 0.68738 0.6901 0.0
N499 N 0.67371 0.64231 0.66763 0.0
N500 N 0.67551 0.7052 0.6778 0.0
H501 H 0.7163 0.68173 0.65395 0.0
H502 H 0.63041 0.62628 0.69256 0.0
C503 C 0.60713 0.58678 0.65316 0.0
O504 O 0.61089 0.62024 0.64255 0.0
N505 N 0.71274 0.54067 0.65042 0.0
C506 C 0.73962 0.53447 0.63409 0.0
C507 C 0.75351 0.49729 0.63612 0.0
C508 C 0.71073 0.50712 0.66232 0.0
N509 N 0.73558 0.48022 0.65392 0.0
C510 C 0.709 0.6291 0.61559 0.0
C511 C 0.66212 0.58178 0.58932 0.0
C512 C 0.68504 0.60984 0.57836 0.0
C513 C 0.70866 0.63376 0.59191 0.0
C514 C 0.66397 0.57758 0.61291 0.0
N515 N 0.68606 0.60198 0.62598 0.0
H516 H 0.72982 0.64553 0.62525 0.0
H517 H 0.64869 0.55343 0.62049 0.0
H518 H 0.7502 0.55624 0.62234 0.0
H519 H 0.6937 0.50345 0.67769 0.0
O520 O 0.74509 0.6094 0.66228 0.0
O521 O 0.70896 0.58358 0.6897 0.0
O522 O 0.63751 0.5695 0.66079 0.0
C523 C 0.74163 0.59971 0.6836 0.0
H524 H 0.63056 0.70078 0.70345 0.0
H525 H 0.7762 0.48424 0.62587 0.0
H526 H 0.64344 0.56237 0.57979 0.0
H527 H 0.72825 0.65468 0.58429 0.0
H528 H 0.96424 0.12923 0.13189 0.0
H529 H 0.99241 0.90857 0.17326 0.0
H530 H 0.05657 0.0957 0.17756 0.0
H531 H 0.89842 0.95035 0.13117 0.0
H532 H 0.01724 0.97573 0.17584 0.0
H533 H 0.94013 0.06288 0.13241 0.0
C534 C 0.97942 0.1079 0.14214 0.0
C535 C 0.01257 0.11814 0.15464 0.0
C536 C 0.99114 0.96999 0.16611 0.0
C537 C 0.98511 0.04133 0.15522 0.0
C538 C 0.97702 0.9317 0.1646 0.0
C539 C 0.9433 0.92365 0.15194 0.0
C540 C 0.97137 1.00023 0.15484 0.0
C541 C 0.92453 0.95483 0.1411 0.0
C542 C 0.96561 0.06984 0.14244 0.0
C543 C 0.03083 0.08911 0.1677 0.0
N544 N 0.9388 0.99144 0.14279 0.0
N545 N 0.017 0.05192 0.16755 0.0
H546 H 0.08484 0.94841 0.68305 0.0
H547 H 0.94125 0.11932 0.64461 0.0
H548 H 0.11527 0.04204 0.63746 0.0
H549 H 0.90013 0.01905 0.68173 0.0
H550 H 0.00627 0.09267 0.64496 0.0
H551 H 0.01861 0.97493 0.68575 0.0
C552 C 0.07772 0.97464 0.67373 0.0
C553 C 0.10571 0.99299 0.65995 0.0
C554 C 0.9832 0.0763 0.65306 0.0
C555 C 0.03013 0.02334 0.66299 0.0
C556 C 0.9458 0.09157 0.6529 0.0
C557 C 0.91487 0.07136 0.66308 0.0
C558 C 0.9903 0.04033 0.6635 0.0
C559 C 0.92305 0.0356 0.67363 0.0
C560 C 0.03988 0.98962 0.67523 0.0
C561 C 0.09476 0.02675 0.64821 0.0
N562 N 0.96004 0.02114 0.67354 0.0
N563 N 0.058 0.04073 0.65001 0.0
H564 H 0.45128 0.5899 0.8227 0.0
H565 H 0.62721 0.44907 0.85606 0.0
H566 H 0.54736 0.62247 0.86592 0.0
H567 H 0.52131 0.40551 0.82598 0.0
H568 H 0.60016 0.51411 0.85593 0.0
H569 H 0.47814 0.52389 0.82006 0.0
C570 C 0.47812 0.58329 0.83151 0.0
C571 C 0.49708 0.61181 0.84459 0.0
C572 C 0.58269 0.49046 0.84933 0.0
C573 C 0.52787 0.53645 0.8416 0.0
C574 C 0.59818 0.4531 0.84934 0.0
C575 C 0.57647 0.42151 0.84109 0.0
C576 C 0.54509 0.49677 0.84093 0.0
C577 C 0.53905 0.42895 0.83256 0.0
C578 C 0.49329 0.54556 0.83007 0.0
C579 C 0.53162 0.60149 0.85572 0.0
N580 N 0.52448 0.46587 0.83271 0.0
N581 N 0.54585 0.56478 0.85393 0.0
H582 H 0.62789 0.46499 0.35745 0.0
H583 H 0.40489 0.4919 0.321 0.0
H584 H 0.59011 0.56149 0.31607 0.0
H585 H 0.45216 0.39106 0.35488 0.0
H586 H 0.47105 0.51929 0.31879 0.0
H587 H 0.56243 0.43867 0.35642 0.0
C588 C 0.60579 0.48065 0.34805 0.0
C589 C 0.61459 0.51558 0.33689 0.0
C590 C 0.46674 0.49113 0.32662 0.0
C591 C 0.53879 0.48553 0.33572 0.0
C592 C 0.42903 0.47552 0.32792 0.0
C593 C 0.4228 0.43916 0.33823 0.0
C594 C 0.49825 0.47022 0.33577 0.0
C595 C 0.45523 0.41922 0.34685 0.0
C596 C 0.56826 0.46554 0.34744 0.0
C597 C 0.58463 0.53438 0.32487 0.0
N598 N 0.49125 0.435 0.34548 0.0
N599 N 0.54795 0.51926 0.32471 0.0
H600 H 0.09289 0.06879 0.83324 0.0
H601 H 0.93326 0.90277 0.82069 0.0
H602 H 0.97099 0.09037 0.84485 0.0
H603 H 0.04645 0.87801 0.8487 0.0
H604 H 0.94942 0.97211 0.82038 0.0
H605 H 0.07879 0.99887 0.83007 0.0
C606 C 0.06314 0.05885 0.83488 0.0
C607 C 0.03303 0.08534 0.83938 0.0
C608 C 0.97078 0.95142 0.82642 0.0
C609 C 0.0168 0.00582 0.83544 0.0
C610 C 0.96174 0.91184 0.82646 0.0
C611 C 0.98859 0.88456 0.83474 0.0
C612 C 0.00724 0.96382 0.83427 0.0
C613 C 0.02489 0.8981 0.84226 0.0
C614 C 0.05521 0.01904 0.8332 0.0
C615 C 0.99506 0.07089 0.84151 0.0
N616 N 0.03327 0.93682 0.84175 0.0
N617 N 0.98797 0.03215 0.83937 0.0
H618 H 0.11984 0.03777 0.36723 0.0
H619 H 0.89962 0.01034 0.32521 0.0
H620 H 0.08583 0.9418 0.32425 0.0
H621 H 0.94394 0.10931 0.3623 0.0
H622 H 0.96605 0.9832 0.32427 0.0
H623 H 0.05415 0.06313 0.36517 0.0
C624 C 0.09852 0.02202 0.35727 0.0
C625 C 0.10845 0.98753 0.34595 0.0
C626 C 0.961 0.0109 0.33253 0.0
C627 C 0.03234 0.0165 0.34357 0.0
C628 C 0.92314 0.02634 0.3331 0.0
C629 C 0.91601 0.06213 0.34391 0.0
C630 C 0.99169 0.03142 0.3429 0.0
C631 C 0.94766 0.08162 0.35381 0.0
C632 C 0.06083 0.03657 0.35607 0.0
C633 C 0.07945 0.96858 0.3332 0.0
N634 N 0.98378 0.06603 0.35309 0.0
N635 N 0.04258 0.98319 0.33244 0.0
H636 H 0.50009 0.39584 0.1196 0.0
H637 H 0.46594 0.58833 0.19171 0.0
H638 H 0.53549 0.40197 0.19004 0.0
H639 H 0.495 0.59047 0.12018 0.0
H640 H 0.48029 0.51821 0.1924 0.0
H641 H 0.48566 0.46546 0.12048 0.0
C642 C 0.5044 0.4117 0.13535 0.0
C643 C 0.51903 0.393 0.15479 0.0
C644 C 0.48367 0.53421 0.17664 0.0
C645 C 0.50234 0.47276 0.15588 0.0
C646 C 0.47547 0.57411 0.1762 0.0
C647 C 0.47952 0.59532 0.15588 0.0
C648 C 0.49492 0.51528 0.15647 0.0
C649 C 0.49184 0.5754 0.13627 0.0
C650 C 0.49643 0.4515 0.13576 0.0
C651 C 0.52434 0.41525 0.17466 0.0
N652 N 0.49869 0.53649 0.137 0.0
N653 N 0.51579 0.45396 0.17475 0.0
H654 H 0.36401 0.54171 0.63223 0.0
H655 H 0.58473 0.51731 0.67327 0.0
H656 H 0.39932 0.44918 0.67732 0.0
H657 H 0.53936 0.61695 0.63734 0.0
H658 H 0.51846 0.49024 0.67488 0.0
H659 H 0.42941 0.56825 0.63382 0.0
C660 C 0.38553 0.527 0.64256 0.0
C661 C 0.3761 0.49312 0.65462 0.0
C662 C 0.52319 0.51809 0.66674 0.0
C663 C 0.45171 0.52337 0.65644 0.0
C664 C 0.56096 0.5335 0.66579 0.0
C665 C 0.56775 0.56941 0.65508 0.0
C666 C 0.49219 0.5387 0.65682 0.0
C667 C 0.53581 0.58914 0.64571 0.0
C668 C 0.423 0.54223 0.6435 0.0
C669 C 0.4053 0.47547 0.66781 0.0
N670 N 0.49969 0.57351 0.64674 0.0
N671 N 0.44193 0.49066 0.66826 0.0
H672 H 0.16711 0.23707 0.05692 0.0
H673 H 0.07652 0.14102 0.94461 0.0
H674 H 0.07482 0.15205 0.05768 0.0
H675 H 0.16823 0.22665 0.94334 0.0
H676 H 0.07908 0.14108 0.98615 0.0
H677 H 0.1709 0.23075 0.01548 0.0
C678 C 0.14764 0.21706 0.04839 0.0
C679 C 0.12043 0.19524 0.06084 0.0
C680 C 0.09881 0.15972 0.9768 0.0
C681 C 0.12484 0.18764 0.01336 0.0
C682 C 0.09757 0.15949 0.95304 0.0
C683 C 0.12207 0.18401 0.9404 0.0
C684 C 0.12471 0.1847 0.98811 0.0
C685 C 0.14832 0.20775 0.95235 0.0
C686 C 0.14997 0.21332 0.02473 0.0
C687 C 0.09649 0.16922 0.04886 0.0
N688 N 0.14881 0.20763 0.97552 0.0
N689 N 0.0991 0.16633 0.02582 0.0
H690 H 0.80335 0.17151 0.44585 0.0
H691 H 0.78621 0.04603 0.56032 0.0
H692 H 0.78698 0.04714 0.44795 0.0
H693 H 0.79942 0.1708 0.56065 0.0
H694 H 0.78538 0.04692 0.51889 0.0
H695 H 0.80043 0.17305 0.48764 0.0
C696 C 0.79902 0.14459 0.45508 0.0
C697 C 0.79588 0.10909 0.4434 0.0
C698 C 0.78845 0.07419 0.52794 0.0
C699 C 0.79263 0.11061 0.49105 0.0
C700 C 0.78918 0.07366 0.55164 0.0
C701 C 0.7934 0.10836 0.56396 0.0
C702 C 0.792 0.10969 0.51632 0.0
C703 C 0.79609 0.1434 0.55178 0.0
C704 C 0.79749 0.14547 0.4789 0.0
C705 C 0.79044 0.07507 0.45621 0.0
N706 N 0.79557 0.14317 0.52859 0.0
N707 N 0.78908 0.0767 0.47927 0.0
H708 H 0.85582 0.83775 0.93282 0.0
H709 H 0.96642 0.78733 0.04839 0.0
H710 H 0.95255 0.7583 0.93658 0.0
H711 H 0.84678 0.82472 0.04806 0.0
H712 H 0.96563 0.78544 0.00678 0.0
H713 H 0.85568 0.84209 0.97469 0.0
C714 C 0.87707 0.82141 0.94247 0.0
C715 C 0.90414 0.7975 0.93134 0.0
C716 C 0.93953 0.79406 0.01579 0.0
C717 C 0.90434 0.80252 0.97885 0.0
C718 C 0.94003 0.79536 0.0395 0.0
C719 C 0.90663 0.80629 0.0516 0.0
C720 C 0.90552 0.80421 0.00404 0.0
C721 C 0.87305 0.81596 0.03929 0.0
C722 C 0.87684 0.8237 0.96627 0.0
C723 C 0.93097 0.77674 0.94456 0.0
N724 N 0.87337 0.81492 0.0161 0.0
N725 N 0.93052 0.77988 0.9676 0.0
H726 H 0.14431 0.93111 0.44528 0.0
H727 H 0.22766 0.83884 0.56048 0.0
H728 H 0.22959 0.83913 0.44703 0.0
H729 H 0.14512 0.93327 0.55876 0.0
H730 H 0.22473 0.83494 0.51896 0.0
H731 H 0.13977 0.92831 0.48678 0.0
C732 C 0.16175 0.90999 0.45435 0.0
C733 C 0.18756 0.88549 0.44261 0.0
C734 C 0.20708 0.85637 0.52766 0.0
C735 C 0.18288 0.88248 0.49023 0.0
C736 C 0.20887 0.85875 0.55138 0.0
C737 C 0.18689 0.8867 0.56314 0.0
C738 C 0.18319 0.88219 0.51554 0.0
C739 C 0.16241 0.91113 0.55045 0.0
C740 C 0.15933 0.90858 0.47808 0.0
C741 C 0.20981 0.85906 0.45535 0.0
N742 N 0.16144 0.9085 0.52734 0.0
N743 N 0.20707 0.85839 0.47846 0.0
H744 H 0.59961 0.24245 0.05659 0.0
H745 H 0.6318 0.37041 0.94597 0.0
H746 H 0.64766 0.35838 0.06052 0.0
H747 H 0.62911 0.24504 0.94484 0.0
H748 H 0.63375 0.3685 0.98779 0.0
H749 H 0.60619 0.24452 0.01541 0.0
C750 C 0.61206 0.26822 0.04891 0.0
C751 C 0.62339 0.30018 0.06229 0.0
C752 C 0.6332 0.34146 0.97834 0.0
C753 C 0.62987 0.30304 0.01474 0.0
C754 C 0.63197 0.34253 0.95454 0.0
C755 C 0.63037 0.30782 0.94198 0.0
C756 C 0.63206 0.30545 0.98958 0.0
C757 C 0.63076 0.27245 0.95386 0.0
C758 C 0.61557 0.26941 0.0253 0.0
C759 C 0.63807 0.33318 0.05103 0.0
N760 N 0.63114 0.27219 0.97699 0.0
N761 N 0.64068 0.33384 0.02789 0.0
H762 H 0.69545 0.67466 0.55121 0.0
H763 H 0.65998 0.56248 0.43439 0.0
H764 H 0.67778 0.5504 0.54722 0.0
H765 H 0.72918 0.66691 0.43746 0.0
H766 H 0.65527 0.56283 0.47599 0.0
H767 H 0.69839 0.67703 0.50953 0.0
C768 C 0.69225 0.64788 0.54171 0.0
C769 C 0.68611 0.61229 0.55297 0.0
C770 C 0.6714 0.58572 0.46755 0.0
C771 C 0.68851 0.61516 0.50525 0.0
C772 C 0.67386 0.58569 0.44385 0.0
C773 C 0.69502 0.61469 0.43253 0.0
C774 C 0.68973 0.61529 0.48004 0.0
C775 C 0.71283 0.64389 0.4456 0.0
C776 C 0.69376 0.64936 0.51791 0.0
C777 C 0.68155 0.57872 0.53952 0.0
N778 N 0.70966 0.64357 0.46872 0.0
N779 N 0.68264 0.58104 0.51644 0.0
H780 H 0.35723 0.64601 0.05905 0.0
H781 H 0.43255 0.74946 0.94525 0.0
H782 H 0.44191 0.73862 0.05736 0.0
H783 H 0.36481 0.6439 0.94397 0.0
H784 H 0.433 0.7471 0.98667 0.0
H785 H 0.3572 0.64514 0.01724 0.0
C786 C 0.37595 0.66599 0.04994 0.0
C787 C 0.39932 0.69271 0.0618 0.0
C788 C 0.41801 0.72437 0.97741 0.0
C789 C 0.39908 0.6921 0.01404 0.0
C790 C 0.41749 0.72588 0.95373 0.0
C791 C 0.39835 0.69701 0.94112 0.0
C792 C 0.3991 0.69382 0.98877 0.0
C793 C 0.38004 0.66667 0.95304 0.0
C794 C 0.37578 0.66557 0.02608 0.0
C795 C 0.42273 0.71811 0.04904 0.0
N796 N 0.38069 0.66596 0.97625 0.0
N797 N 0.42187 0.71725 0.02594 0.0
H798 H 0.33519 0.43812 0.55933 0.0
H799 H 0.29842 0.32865 0.44161 0.0
H800 H 0.26893 0.33179 0.55592 0.0
H801 H 0.31523 0.45285 0.44714 0.0
H802 H 0.29731 0.32452 0.48329 0.0
H803 H 0.33965 0.43847 0.51778 0.0
C804 C 0.32201 0.41456 0.54982 0.0
C805 C 0.30165 0.38488 0.56106 0.0
C806 C 0.30137 0.35256 0.47524 0.0
C807 C 0.30647 0.38523 0.51352 0.0
C808 C 0.30183 0.35505 0.45146 0.0
C809 C 0.30717 0.39116 0.44063 0.0
C810 C 0.30685 0.38628 0.48831 0.0
C811 C 0.31203 0.42419 0.45448 0.0
C812 C 0.32428 0.41496 0.52613 0.0
C813 C 0.28464 0.35535 0.54787 0.0
N814 N 0.31193 0.4209 0.47751 0.0
N815 N 0.2875 0.35619 0.52474 0.0
H816 H 0.14953 0.32873 0.18349 0.0
H817 H 0.1833 0.36369 0.31666 0.0
H818 H 0.08869 0.26592 0.23624 0.0
H819 H 0.25082 0.41906 0.26384 0.0
H820 H 0.14134 0.33537 0.28748 0.0
H821 H 0.17973 0.36939 0.21263 0.0
C822 C 0.14214 0.32379 0.20121 0.0
C823 C 0.11679 0.29367 0.20747 0.0
C824 C 0.16504 0.35409 0.28227 0.0
C825 C 0.15153 0.33999 0.24096 0.0
C826 C 0.18894 0.37041 0.29893 0.0
C827 C 0.2208 0.39353 0.29265 0.0
C828 C 0.17309 0.36087 0.25914 0.0
C829 C 0.2267 0.40124 0.26943 0.0
C830 C 0.15948 0.34699 0.21784 0.0
C831 C 0.10823 0.28869 0.23067 0.0
N832 N 0.2033 0.38464 0.25351 0.0
N833 N 0.12583 0.31139 0.24659 0.0
H834 H 0.6751 0.1432 0.68837 0.0
H835 H 0.63876 0.17815 0.82125 0.0
H836 H 0.74381 0.09073 0.7416 0.0
H837 H 0.58329 0.24471 0.76811 0.0
H838 H 0.6675 0.13604 0.7923 0.0
H839 H 0.63203 0.17064 0.7173 0.0
C840 C 0.68081 0.13694 0.70614 0.0
C841 C 0.71333 0.11493 0.71261 0.0
C842 C 0.64859 0.15949 0.78697 0.0
C843 C 0.6642 0.1465 0.74582 0.0
C844 C 0.63196 0.18346 0.8035 0.0
C845 C 0.60888 0.21526 0.79707 0.0
C846 C 0.64212 0.16735 0.76381 0.0
C847 C 0.60109 0.22067 0.77383 0.0
C848 C 0.65624 0.15273 0.72265 0.0
C849 C 0.71922 0.10774 0.73587 0.0
N850 N 0.61804 0.19723 0.75801 0.0
N851 N 0.6951 0.12378 0.75166 0.0
H852 H 0.82386 0.65517 0.30891 0.0
H853 H 0.86443 0.6863 0.17592 0.0
H854 H 0.76044 0.59608 0.25575 0.0
H855 H 0.91896 0.75363 0.2291 0.0
H856 H 0.83327 0.64604 0.20498 0.0
H857 H 0.86561 0.68459 0.28002 0.0
C858 C 0.81895 0.64805 0.29116 0.0
C859 C 0.78844 0.62333 0.28471 0.0
C860 C 0.8524 0.66933 0.2103 0.0
C861 C 0.83608 0.65713 0.2515 0.0
C862 C 0.87037 0.69223 0.19371 0.0
C863 C 0.89415 0.72353 0.20011 0.0
C864 C 0.85823 0.6778 0.23346 0.0
C865 C 0.90071 0.7299 0.22341 0.0
C866 C 0.84279 0.66494 0.27466 0.0
C867 C 0.78351 0.61512 0.26147 0.0
N868 N 0.8826 0.70744 0.23924 0.0
N869 N 0.80692 0.6322 0.24568 0.0
H870 H 0.41685 0.75575 0.76396 0.0
H871 H 0.25353 0.91549 0.73897 0.0
H872 H 0.35626 0.81955 0.81643 0.0
H873 H 0.31548 0.85358 0.68626 0.0
H874 H 0.29557 0.88536 0.76749 0.0
H875 H 0.38487 0.79594 0.73514 0.0
C876 C 0.3972 0.77852 0.76942 0.0
C877 C 0.389 0.78416 0.7926 0.0
C878 C 0.30023 0.87863 0.74967 0.0
C879 C 0.35205 0.83 0.75977 0.0
C880 C 0.27625 0.89588 0.73338 0.0
C881 C 0.28085 0.8868 0.71024 0.0
C882 C 0.32888 0.85196 0.74277 0.0
C883 C 0.3108 0.86125 0.70395 0.0
C884 C 0.37888 0.80141 0.75297 0.0
C885 C 0.3633 0.81408 0.79874 0.0
N886 N 0.33347 0.84447 0.72014 0.0
N887 N 0.3455 0.83564 0.78242 0.0
H888 H 0.8507 0.67396 0.80818 0.0
H889 H 0.80946 0.63863 0.67576 0.0
H890 H 0.90956 0.73542 0.75412 0.0
H891 H 0.74103 0.58793 0.72979 0.0
H892 H 0.85337 0.66598 0.70421 0.0
H893 H 0.81731 0.6344 0.77972 0.0
C894 C 0.85694 0.67885 0.79031 0.0
C895 C 0.88272 0.70824 0.78348 0.0
C896 C 0.82901 0.64852 0.70985 0.0
C897 C 0.84443 0.66315 0.75081 0.0
C898 C 0.80398 0.63274 0.69361 0.0
C899 C 0.77135 0.61122 0.70044 0.0
C900 C 0.82134 0.64279 0.73311 0.0
C901 C 0.76574 0.60451 0.72378 0.0
C902 C 0.83779 0.65629 0.77407 0.0
C903 C 0.88974 0.71322 0.76012 0.0
N904 N 0.7903 0.62055 0.7393 0.0
N905 N 0.87047 0.69108 0.74461 0.0
H906 H 0.31828 0.84817 0.32023 0.0
H907 H 0.35609 0.81291 0.18738 0.0
H908 H 0.25782 0.90945 0.26678 0.0
H909 H 0.40793 0.74348 0.24052 0.0
H910 H 0.32663 0.85438 0.21636 0.0
H911 H 0.35807 0.81576 0.29146 0.0
C912 C 0.31373 0.85522 0.30245 0.0
C913 C 0.28454 0.8814 0.29587 0.0
C914 C 0.34469 0.83028 0.22171 0.0
C915 C 0.3298 0.84412 0.26284 0.0
C916 C 0.3616 0.80659 0.20517 0.0
C917 C 0.3843 0.77452 0.21156 0.0
C918 C 0.35045 0.82185 0.24487 0.0
C919 C 0.3905 0.76781 0.23485 0.0
C920 C 0.33638 0.83657 0.28603 0.0
C921 C 0.2799 0.88936 0.27259 0.0
N922 N 0.37343 0.79113 0.25068 0.0
N923 N 0.30211 0.87057 0.2569 0.0
H924 H 0.08571 0.24323 0.76408 0.0
H925 H 0.22885 0.41931 0.73563 0.0
H926 H 0.14214 0.31296 0.81548 0.0
H927 H 0.16919 0.35165 0.68453 0.0
H928 H 0.19123 0.38613 0.76518 0.0
H929 H 0.10988 0.28766 0.73485 0.0
C930 C 0.10282 0.26816 0.76924 0.0
C931 C 0.11222 0.27423 0.79221 0.0
C932 C 0.18599 0.3789 0.74749 0.0
C933 C 0.14031 0.32506 0.75883 0.0
C934 C 0.20739 0.39793 0.7306 0.0
C935 C 0.20237 0.388 0.70761 0.0
C936 C 0.15956 0.34957 0.74132 0.0
C937 C 0.17415 0.36009 0.70206 0.0
C938 C 0.11665 0.29353 0.75254 0.0
C939 C 0.13435 0.30708 0.79794 0.0
N940 N 0.15414 0.34156 0.71881 0.0
N941 N 0.14799 0.33104 0.78134 0.0
H942 H 0.67984 0.14429 0.31954 0.0
H943 H 0.64242 0.17611 0.18653 0.0
H944 H 0.74477 0.08658 0.26643 0.0
H945 H 0.58814 0.24508 0.23913 0.0
H946 H 0.67176 0.1353 0.21578 0.0
H947 H 0.63801 0.17336 0.29059 0.0
C948 C 0.68495 0.13724 0.30179 0.0
C949 C 0.71605 0.1132 0.29536 0.0
C950 C 0.65313 0.1591 0.22096 0.0
C951 C 0.6684 0.14666 0.26213 0.0
C952 C 0.63626 0.1824 0.20426 0.0
C953 C 0.61308 0.2143 0.21042 0.0
C954 C 0.6469 0.16774 0.24405 0.0
C955 C 0.60598 0.2209 0.23364 0.0
C956 C 0.66111 0.15399 0.28528 0.0
C957 C 0.72126 0.1051 0.27214 0.0
N958 N 0.62314 0.19803 0.24964 0.0
N959 N 0.69788 0.12206 0.25635 0.0
H960 H 0.42405 0.29007 0.17106 0.0
H961 H 0.25469 0.131 0.18352 0.0
H962 H 0.44273 0.16636 0.16695 0.0
H963 H 0.23305 0.25355 0.17454 0.0
H964 H 0.32463 0.14416 0.18317 0.0
H965 H 0.3547 0.27799 0.1783 0.0
C966 C 0.4136 0.26042 0.172 0.0
C967 C 0.43893 0.22919 0.16812 0.0
C968 C 0.30455 0.16819 0.18132 0.0
C969 C 0.36004 0.21508 0.17625 0.0
C970 C 0.26466 0.16067 0.18161 0.0
C971 C 0.23801 0.19111 0.17874 0.0
C972 C 0.31792 0.20648 0.17832 0.0
C973 C 0.25254 0.22907 0.17627 0.0
C974 C 0.37408 0.25351 0.17596 0.0
C975 C 0.42399 0.19127 0.16941 0.0
N976 N 0.29148 0.23567 0.17606 0.0
N977 N 0.38556 0.18529 0.17326 0.0
H978 H 0.857 0.27095 0.68956 0.0
H979 H 0.68601 0.42608 0.6708 0.0
H980 H 0.73678 0.23814 0.68175 0.0
H981 H 0.80715 0.44935 0.65819 0.0
H982 H 0.70332 0.35962 0.68278 0.0
H983 H 0.83819 0.33933 0.68623 0.0
C984 C 0.82661 0.27819 0.68742 0.0
C985 C 0.79852 0.24884 0.68558 0.0
C986 C 0.72608 0.37946 0.67756 0.0
C987 C 0.77674 0.3269 0.68169 0.0
C988 C 0.71622 0.41727 0.67087 0.0
C989 C 0.74517 0.4428 0.66324 0.0
C990 C 0.76519 0.3676 0.67692 0.0
C991 C 0.78394 0.43021 0.66357 0.0
C992 C 0.81589 0.31716 0.68539 0.0
C993 C 0.75949 0.25982 0.68272 0.0
N994 N 0.79281 0.39351 0.67021 0.0
N995 N 0.74974 0.29799 0.68076 0.0
H996 H 0.55977 0.80309 0.1969 0.0
H997 H 0.76856 0.76369 0.14655 0.0
H998 H 0.58485 0.70352 0.155 0.0
H999 H 0.74981 0.83719 0.20531 0.0
H1000 H 0.70208 0.74052 0.14979 0.0
H1001 H 0.62952 0.81482 0.20134 0.0
C1002 C 0.58024 0.78323 0.18908 0.0
C1003 C 0.56694 0.75235 0.17561 0.0
C1004 C 0.71269 0.76141 0.16212 0.0
C1005 C 0.64651 0.7661 0.17992 0.0
C1006 C 0.75085 0.77474 0.16033 0.0
C1007 C 0.76532 0.80267 0.17568 0.0
C1008 C 0.68834 0.77646 0.17913 0.0
C1009 C 0.74018 0.8162 0.19284 0.0
C1010 C 0.61995 0.78993 0.19153 0.0
C1011 C 0.59426 0.72743 0.16565 0.0
N1012 N 0.7029 0.80323 0.19396 0.0
N1013 N 0.6329 0.73524 0.16765 0.0
H1014 H 0.22846 0.5633 0.69495 0.0
H1015 H 0.18638 0.77001 0.63739 0.0
H1016 H 0.20814 0.58001 0.62316 0.0
H1017 H 0.17243 0.75061 0.70951 0.0
H1018 H 0.2014 0.70119 0.63234 0.0
H1019 H 0.21558 0.63299 0.70124 0.0
C1020 C 0.22162 0.58172 0.68055 0.0
C1021 C 0.21903 0.56596 0.65854 0.0
C1022 C 0.19492 0.71186 0.64929 0.0
C1023 C 0.20436 0.64512 0.6655 0.0
C1024 C 0.18645 0.75116 0.65216 0.0
C1025 C 0.17806 0.76597 0.67387 0.0
C1026 C 0.19545 0.68707 0.6683 0.0
C1027 C 0.17827 0.74021 0.69244 0.0
C1028 C 0.21399 0.62128 0.68413 0.0
C1029 C 0.20984 0.5909 0.64043 0.0
N1030 N 0.18706 0.70198 0.68927 0.0
N1031 N 0.20292 0.62915 0.6443 0.0
H1032 H 0.92515 0.18726 0.8249 0.0
H1033 H 0.7674 0.35434 0.80215 0.0
H1034 H 0.95034 0.3098 0.82586 0.0
H1035 H 0.73664 0.23778 0.82235 0.0
H1036 H 0.83587 0.33525 0.80168 0.0
H1037 H 0.85718 0.20229 0.81482 0.0
C1038 C 0.91645 0.21721 0.8224 0.0
C1039 C 0.94292 0.24742 0.82626 0.0
C1040 C 0.81409 0.31377 0.80606 0.0
C1041 C 0.86604 0.26487 0.81496 0.0
C1042 C 0.77503 0.32462 0.80623 0.0
C1043 C 0.74634 0.2978 0.81264 0.0
C1044 C 0.82461 0.27571 0.81218 0.0
C1045 C 0.7579 0.25963 0.81785 0.0
C1046 C 0.8778 0.22582 0.81687 0.0
C1047 C 0.93049 0.28584 0.82314 0.0
N1048 N 0.79618 0.24976 0.81762 0.0
N1049 N 0.89292 0.2935 0.81778 0.0
H1050 H 0.75274 0.73514 0.31891 0.0
H1051 H 0.67176 0.94859 0.34015 0.0
H1052 H 0.63082 0.7636 0.31622 0.0
H1053 H 0.79303 0.92462 0.32835 0.0
H1054 H 0.65616 0.88135 0.33053 0.0
H1055 H 0.76822 0.80425 0.32166 0.0
C1056 C 0.72919 0.75601 0.31896 0.0
C1057 C 0.69035 0.74365 0.31771 0.0
C1058 C 0.68617 0.89075 0.32982 0.0
C1059 C 0.70791 0.82291 0.32068 0.0
C1060 C 0.69511 0.92908 0.33543 0.0
C1061 C 0.73381 0.94194 0.33531 0.0
C1062 C 0.7162 0.86482 0.32431 0.0
C1063 C 0.76287 0.91575 0.32864 0.0
C1064 C 0.73809 0.79549 0.32032 0.0
C1065 C 0.66108 0.77196 0.31721 0.0
N1066 N 0.75353 0.87821 0.32369 0.0
N1067 N 0.67044 0.81029 0.31896 0.0
H1068 H 0.08383 0.78066 0.82942 0.0
H1069 H 0.25422 0.62495 0.81107 0.0
H1070 H 0.06517 0.66072 0.81113 0.0
H1071 H 0.27511 0.74495 0.8288 0.0
H1072 H 0.18492 0.63915 0.80819 0.0
H1073 H 0.15426 0.77029 0.82588 0.0
C1074 C 0.09458 0.75238 0.82429 0.0
C1075 C 0.06881 0.72136 0.82088 0.0
C1076 C 0.20467 0.66242 0.81268 0.0
C1077 C 0.14889 0.70906 0.8171 0.0
C1078 C 0.2443 0.6543 0.81428 0.0
C1079 C 0.27061 0.68361 0.82043 0.0
C1080 C 0.1911 0.70018 0.81727 0.0
C1081 C 0.25593 0.72115 0.82453 0.0
C1082 C 0.13469 0.74635 0.82245 0.0
C1083 C 0.08412 0.68519 0.81439 0.0
N1084 N 0.21718 0.72831 0.82295 0.0
N1085 N 0.12309 0.67997 0.81289 0.0
H1086 H 0.24819 0.26905 0.32555 0.0
H1087 H 0.33219 0.0536 0.32818 0.0
H1088 H 0.36643 0.24023 0.30791 0.0
H1089 H 0.20964 0.07809 0.33235 0.0
H1090 H 0.34458 0.12177 0.31923 0.0
H1091 H 0.23264 0.1997 0.32709 0.0
C1092 C 0.27091 0.24814 0.32203 0.0
C1093 C 0.30885 0.26045 0.31689 0.0
C1094 C 0.31488 0.11233 0.32184 0.0
C1095 C 0.29114 0.18101 0.31843 0.0
C1096 C 0.30785 0.07345 0.32701 0.0
C1097 C 0.2699 0.06045 0.33119 0.0
C1098 C 0.28377 0.13871 0.3212 0.0
C1099 C 0.23929 0.08711 0.32917 0.0
C1100 C 0.26191 0.20855 0.3227 0.0
C1101 C 0.33684 0.23205 0.31191 0.0
N1102 N 0.24692 0.1252 0.32464 0.0
N1103 N 0.32753 0.1937 0.31303 0.0
H1104 H 0.58207 0.71303 0.83016 0.0
H1105 H 0.75151 0.87097 0.8144 0.0
H1106 H 0.56358 0.83692 0.83257 0.0
H1107 H 0.77277 0.74832 0.82334 0.0
H1108 H 0.68157 0.85836 0.81623 0.0
H1109 H 0.65125 0.72466 0.82248 0.0
C1110 C 0.59252 0.74262 0.82877 0.0
C1111 C 0.56726 0.77405 0.83225 0.0
C1112 C 0.70156 0.8342 0.81778 0.0
C1113 C 0.64606 0.78765 0.82367 0.0
C1114 C 0.74145 0.8414 0.81667 0.0
C1115 C 0.76802 0.81077 0.81901 0.0
C1116 C 0.68811 0.79602 0.8211 0.0
C1117 C 0.75339 0.77295 0.82197 0.0
C1118 C 0.63197 0.74929 0.82456 0.0
C1119 C 0.58225 0.81188 0.83042 0.0
N1120 N 0.71445 0.76666 0.82296 0.0
N1121 N 0.62065 0.81762 0.82635 0.0
H1122 H 0.17964 0.55361 0.33627 0.0
H1123 H 0.25329 0.77213 0.32741 0.0
H1124 H 0.30067 0.58329 0.32954 0.0
H1125 H 0.13304 0.73925 0.32001 0.0
H1126 H 0.27156 0.7035 0.32709 0.0
H1127 H 0.16217 0.62116 0.32864 0.0
C1128 C 0.20251 0.57448 0.33293 0.0
C1129 C 0.24163 0.56315 0.33372 0.0
C1130 C 0.2412 0.71124 0.32539 0.0
C1131 C 0.22199 0.64068 0.32527 0.0
C1132 C 0.23068 0.75042 0.32581 0.0
C1133 C 0.19144 0.76136 0.32413 0.0
C1134 C 0.21227 0.68267 0.32349 0.0
C1135 C 0.16354 0.73204 0.32142 0.0
C1136 C 0.19256 0.613 0.32854 0.0
C1137 C 0.2702 0.59104 0.32903 0.0
N1138 N 0.17445 0.69402 0.32144 0.0
N1139 N 0.25985 0.62875 0.32533 0.0
H1140 H 0.42315 0.26122 0.88275 0.0
H1141 H 0.26623 0.17977 0.79433 0.0
H1142 H 0.44754 0.2496 0.81107 0.0
H1143 H 0.2409 0.20916 0.86425 0.0
H1144 H 0.33268 0.20414 0.79958 0.0
H1145 H 0.35581 0.24277 0.87571 0.0
C1146 C 0.41406 0.25509 0.86545 0.0
C1147 C 0.44084 0.25678 0.84748 0.0
C1148 C 0.31249 0.20534 0.81372 0.0
C1149 C 0.36378 0.235 0.8392 0.0
C1150 C 0.27468 0.19109 0.8108 0.0
C1151 C 0.24792 0.1924 0.82889 0.0
C1152 C 0.32366 0.22067 0.83494 0.0
C1153 C 0.26034 0.20794 0.84977 0.0
C1154 C 0.37563 0.24452 0.86141 0.0
C1155 C 0.42762 0.24886 0.82534 0.0
N1156 N 0.29721 0.2213 0.85221 0.0
N1157 N 0.39002 0.23785 0.82183 0.0
H1158 H 0.74701 0.23583 0.32431 0.0
H1159 H 0.83649 0.44923 0.31725 0.0
H1160 H 0.86693 0.26006 0.30813 0.0
H1161 H 0.71395 0.42791 0.32562 0.0
H1162 H 0.84697 0.37988 0.31113 0.0
H1163 H 0.73308 0.30549 0.32279 0.0
C1164 C 0.77045 0.25576 0.32049 0.0
C1165 C 0.80838 0.24208 0.31663 0.0
C1166 C 0.81767 0.39022 0.31406 0.0
C1167 C 0.79248 0.32184 0.3146 0.0
C1168 C 0.81174 0.4298 0.31759 0.0
C1169 C 0.77439 0.44407 0.32217 0.0
C1170 C 0.78607 0.3645 0.31544 0.0
C1171 C 0.74316 0.41789 0.32209 0.0
C1172 C 0.76238 0.29552 0.31941 0.0
C1173 C 0.83731 0.26925 0.31116 0.0
N1174 N 0.74975 0.37918 0.31912 0.0
N1175 N 0.82884 0.30778 0.3105 0.0
H1176 H 0.08731 0.80148 0.16767 0.0
H1177 H 0.24016 0.62656 0.18082 0.0
H1178 H 0.05773 0.68024 0.16177 0.0
H1179 H 0.27385 0.74674 0.17373 0.0
H1180 H 0.17187 0.64652 0.18031 0.0
H1181 H 0.1547 0.78281 0.17674 0.0
C1182 C 0.09494 0.77099 0.16875 0.0
C1183 C 0.06733 0.74232 0.16375 0.0
C1184 C 0.19423 0.66854 0.17892 0.0
C1185 C 0.14371 0.72071 0.17386 0.0
C1186 C 0.23318 0.65712 0.17927 0.0
C1187 C 0.26272 0.68489 0.17693 0.0
C1188 C 0.18473 0.70808 0.17637 0.0
C1189 C 0.25203 0.72421 0.17498 0.0
C1190 C 0.1333 0.76031 0.17371 0.0
C1191 C 0.07846 0.70317 0.16519 0.0
N1192 N 0.21393 0.73461 0.17466 0.0
N1193 N 0.11579 0.69351 0.16997 0.0
H1194 H 0.36384 0.25064 0.68803 0.0
H1195 H 0.20615 0.08057 0.67296 0.0
H1196 H 0.24189 0.27156 0.67633 0.0
H1197 H 0.32998 0.06179 0.67313 0.0
H1198 H 0.21753 0.15005 0.68011 0.0
H1199 H 0.35088 0.18062 0.68826 0.0
C1200 C 0.33434 0.24051 0.68566 0.0
C1201 C 0.30405 0.26697 0.68182 0.0
C1202 C 0.24219 0.13063 0.67876 0.0
C1203 C 0.2889 0.18695 0.68205 0.0
C1204 C 0.23565 0.09101 0.67486 0.0
C1205 C 0.26717 0.06559 0.67219 0.0
C1206 C 0.28052 0.14471 0.68017 0.0
C1207 C 0.3049 0.08057 0.67465 0.0
C1208 C 0.32693 0.20056 0.6857 0.0
C1209 C 0.2663 0.25221 0.6788 0.0
N1210 N 0.31052 0.11912 0.67838 0.0
N1211 N 0.25982 0.21324 0.6789 0.0
H1212 H 0.75483 0.37595 0.18447 0.0
H1213 H 0.92519 0.21852 0.1701 0.0
H1214 H 0.73407 0.25302 0.17645 0.0
H1215 H 0.94282 0.34248 0.16677 0.0
H1216 H 0.85594 0.22988 0.17787 0.0
H1217 H 0.82481 0.36352 0.18324 0.0
C1218 C 0.76498 0.34634 0.1826 0.0
C1219 C 0.73853 0.31558 0.18028 0.0
C1220 C 0.87506 0.25458 0.17557 0.0
C1221 C 0.81857 0.30105 0.17879 0.0
C1222 C 0.91455 0.24808 0.17131 0.0
C1223 C 0.93959 0.27959 0.16753 0.0
C1224 C 0.86071 0.29287 0.17624 0.0
C1225 C 0.92435 0.31735 0.16914 0.0
C1226 C 0.80493 0.33925 0.1818 0.0
C1227 C 0.75337 0.27773 0.1778 0.0
N1228 N 0.88593 0.32293 0.17327 0.0
N1229 N 0.79236 0.27155 0.17706 0.0
H1230 H 0.80079 0.92343 0.67068 0.0
H1231 H 0.63142 0.76675 0.6903 0.0
H1232 H 0.67928 0.95126 0.67678 0.0
H1233 H 0.74776 0.7351 0.67004 0.0
H1234 H 0.65163 0.83462 0.6923 0.0
H1235 H 0.78509 0.85437 0.67747 0.0
C1236 C 0.771 0.91498 0.67398 0.0
C1237 C 0.74118 0.94264 0.67307 0.0
C1238 C 0.67283 0.81283 0.68749 0.0
C1239 C 0.72294 0.86453 0.6806 0.0
C1240 C 0.6613 0.77402 0.68644 0.0
C1241 C 0.68775 0.74518 0.67973 0.0
C1242 C 0.71117 0.82307 0.68184 0.0
C1243 C 0.72613 0.75643 0.67478 0.0
C1244 C 0.76197 0.87573 0.67764 0.0
C1245 C 0.70294 0.93054 0.67718 0.0
N1246 N 0.73667 0.79453 0.67584 0.0
N1247 N 0.69488 0.89241 0.68064 0.0
loop_
_geom_bond_atom_site_label_1
_geom_bond_atom_site_label_2
_geom_bond_distance
_geom_bond_site_symmetry_2
_ccdc_geom_bond_type
Co0 N4 2.148 . S
Co0 N10 2.128 . S
Co0 N20 2.194 . S
Co0 O25 2.351 . S
Co0 O26 2.155 . S
Co0 O27 2.096 . S
C1 N4 1.301 . S
C1 N5 1.328 . S
C1 H6 0.930 . S
C2 C3 1.333 . S
C2 N4 1.317 . S
C2 H7 0.930 . S
C3 C2 1.333 . S
C3 N5 1.350 . S
C3 H29 0.931 . S
N4 Co0 2.148 . S
N4 C1 1.301 . S
N4 C2 1.317 . S
N5 C1 1.328 . S
N5 C3 1.350 . S
H6 C1 0.930 . S
H7 C2 0.930 . S
C8 O9 1.224 . S
C8 O27 1.247 . S
O9 C8 1.224 . S
N10 Co0 2.128 . S
N10 C11 1.355 1_455 S
N10 C13 1.311 1_455 S
C11 N10 1.355 1_655 S
C11 C12 1.363 . S
C11 H23 0.929 1_655 S
C12 C11 1.363 . S
C12 N14 1.375 . S
C12 H30 0.931 . S
C13 N10 1.311 1_655 S
C13 N14 1.347 . S
C13 H24 0.929 . S
N14 C12 1.375 . S
N14 C13 1.347 . S
C15 C18 1.365 . S
C15 N20 1.328 . S
C15 H21 0.929 . S
C16 C17 1.362 . S
C16 C19 1.378 . S
C16 H31 0.929 . S
C17 C16 1.362 . S
C17 C18 1.366 . S
C18 C15 1.365 . S
C18 C17 1.366 . S
C18 H32 0.930 . S
C19 C16 1.378 . S
C19 N20 1.315 . S
C19 H22 0.930 . S
N20 Co0 2.194 . S
N20 C15 1.328 . S
N20 C19 1.315 . S
H21 C15 0.929 . S
H22 C19 0.930 . S
H23 C11 0.929 1_455 S
H24 C13 0.929 . S
O25 Co0 2.351 . S
O25 C28 1.244 . S
O26 Co0 2.155 . S
O26 C28 1.240 . S
O27 Co0 2.096 . S
O27 C8 1.247 . S
C28 O25 1.244 . S
C28 O26 1.240 . S
H29 C3 0.931 . S
H30 C12 0.931 . S
H31 C16 0.929 . S
H32 C18 0.930 . S
Co33 N37 2.148 . S
Co33 N43 2.128 . S
Co33 N53 2.194 . S
Co33 O58 2.351 . S
Co33 O59 2.155 . S
Co33 O60 2.096 . S
C34 N37 1.301 . S
C34 N38 1.328 . S
C34 H39 0.930 . S
C35 C36 1.333 . S
C35 N37 1.317 . S
C35 H40 0.930 . S
C36 C35 1.333 . S
C36 N38 1.350 . S
C36 H62 0.931 . S
N37 Co33 2.148 . S
N37 C34 1.301 . S
N37 C35 1.317 . S
N38 C34 1.328 . S
N38 C36 1.350 . S
H39 C34 0.930 . S
H40 C35 0.930 . S
C41 O42 1.224 . S
C41 O60 1.247 . S
O42 C41 1.224 . S
N43 Co33 2.128 . S
N43 C44 1.355 1_545 S
N43 C46 1.311 1_545 S
C44 N43 1.355 1_565 S
C44 C45 1.363 . S
C44 H56 0.929 1_565 S
C45 C44 1.363 . S
C45 N47 1.375 . S
C45 H63 0.931 . S
C46 N43 1.311 1_565 S
C46 N47 1.347 . S
C46 H57 0.929 . S
N47 C45 1.375 . S
N47 C46 1.347 . S
C48 C51 1.365 . S
C48 N53 1.328 . S
C48 H54 0.929 . S
C49 C50 1.362 . S
C49 C52 1.378 . S
C49 H64 0.929 . S
C50 C49 1.362 . S
C50 C51 1.366 . S
C51 C48 1.365 . S
C51 C50 1.366 . S
C51 H65 0.930 . S
C52 C49 1.378 . S
C52 N53 1.315 . S
C52 H55 0.930 . S
N53 Co33 2.194 . S
N53 C48 1.328 . S
N53 C52 1.315 . S
H54 C48 0.929 . S
H55 C52 0.930 . S
H56 C44 0.929 1_545 S
H57 C46 0.929 . S
O58 Co33 2.351 . S
O58 C61 1.244 . S
O59 Co33 2.155 . S
O59 C61 1.240 . S
O60 Co33 2.096 . S
O60 C41 1.247 . S
C61 O58 1.244 . S
C61 O59 1.240 . S
H62 C36 0.931 . S
H63 C45 0.931 . S
H64 C49 0.929 . S
H65 C51 0.930 . S
Co66 N70 2.148 . S
Co66 N76 2.128 . S
Co66 N86 2.194 . S
Co66 O91 2.351 . S
Co66 O92 2.155 . S
Co66 O93 2.096 . S
C67 N70 1.301 . S
C67 N71 1.328 . S
C67 H72 0.930 . S
C68 C69 1.333 . S
C68 N70 1.317 . S
C68 H73 0.930 . S
C69 C68 1.333 . S
C69 N71 1.350 . S
C69 H95 0.931 . S
N70 Co66 2.148 . S
N70 C67 1.301 . S
N70 C68 1.317 . S
N71 C67 1.328 . S
N71 C69 1.350 . S
H72 C67 0.930 . S
H73 C68 0.930 . S
C74 O75 1.224 . S
C74 O93 1.247 . S
O75 C74 1.224 . S
N76 Co66 2.128 . S
N76 C77 1.355 1_655 S
N76 C79 1.311 1_655 S
C77 N76 1.355 1_455 S
C77 C78 1.363 . S
C77 H89 0.929 1_455 S
C78 C77 1.363 . S
C78 N80 1.375 . S
C78 H96 0.931 . S
C79 N76 1.311 1_455 S
C79 N80 1.347 . S
C79 H90 0.929 . S
N80 C78 1.375 . S
N80 C79 1.347 . S
C81 C84 1.365 . S
C81 N86 1.328 . S
C81 H87 0.929 . S
C82 C83 1.362 . S
C82 C85 1.378 . S
C82 H97 0.929 . S
C83 C82 1.362 . S
C83 C84 1.366 . S
C84 C81 1.365 . S
C84 C83 1.366 . S
C84 H98 0.930 . S
C85 C82 1.378 . S
C85 N86 1.315 . S
C85 H88 0.930 . S
N86 Co66 2.194 . S
N86 C81 1.328 . S
N86 C85 1.315 . S
H87 C81 0.929 . S
H88 C85 0.930 . S
H89 C77 0.929 1_655 S
H90 C79 0.929 . S
O91 Co66 2.351 . S
O91 C94 1.244 . S
O92 Co66 2.155 . S
O92 C94 1.240 . S
O93 Co66 2.096 . S
O93 C74 1.247 . S
C94 O91 1.244 . S
C94 O92 1.240 . S
H95 C69 0.931 . S
H96 C78 0.931 . S
H97 C82 0.929 . S
H98 C84 0.930 . S
Co99 N103 2.148 . S
Co99 N109 2.128 . S
Co99 N119 2.194 . S
Co99 O124 2.351 . S
Co99 O125 2.155 . S
Co99 O126 2.096 . S
C100 N103 1.301 . S
C100 N104 1.328 . S
C100 H105 0.930 . S
C101 C102 1.333 . S
C101 N103 1.317 . S
C101 H106 0.930 . S
C102 C101 1.333 . S
C102 N104 1.350 . S
C102 H128 0.931 . S
N103 Co99 2.148 . S
N103 C100 1.301 . S
N103 C101 1.317 . S
N104 C100 1.328 . S
N104 C102 1.350 . S
H105 C100 0.930 . S
H106 C101 0.930 . S
C107 O108 1.224 . S
C107 O126 1.247 . S
O108 C107 1.224 . S
N109 Co99 2.128 . S
N109 C110 1.355 1_565 S
N109 C112 1.311 1_565 S
C110 N109 1.355 1_545 S
C110 C111 1.363 . S
C110 H122 0.929 1_545 S
C111 C110 1.363 . S
C111 N113 1.375 . S
C111 H129 0.931 . S
C112 N109 1.311 1_545 S
C112 N113 1.347 . S
C112 H123 0.929 . S
N113 C111 1.375 . S
N113 C112 1.347 . S
C114 C117 1.365 . S
C114 N119 1.328 . S
C114 H120 0.929 . S
C115 C116 1.362 . S
C115 C118 1.378 . S
C115 H130 0.929 . S
C116 C115 1.362 . S
C116 C117 1.366 . S
C117 C114 1.365 . S
C117 C116 1.366 . S
C117 H131 0.930 . S
C118 C115 1.378 . S
C118 N119 1.315 . S
C118 H121 0.930 . S
N119 Co99 2.194 . S
N119 C114 1.328 . S
N119 C118 1.315 . S
H120 C114 0.929 . S
H121 C118 0.930 . S
H122 C110 0.929 1_565 S
H123 C112 0.929 . S
O124 Co99 2.351 . S
O124 C127 1.244 . S
O125 Co99 2.155 . S
O125 C127 1.240 . S
O126 Co99 2.096 . S
O126 C107 1.247 . S
C127 O124 1.244 . S
C127 O125 1.240 . S
H128 C102 0.931 . S
H129 C111 0.931 . S
H130 C115 0.929 . S
H131 C117 0.930 . S
Co132 N136 2.148 . S
Co132 N142 2.128 . S
Co132 N152 2.194 . S
Co132 O157 2.351 . S
Co132 O158 2.155 . S
Co132 O159 2.096 . S
C133 N136 1.301 . S
C133 N137 1.328 . S
C133 H138 0.930 . S
C134 C135 1.333 . S
C134 N136 1.317 . S
C134 H139 0.930 . S
C135 C134 1.333 . S
C135 N137 1.350 . S
C135 H161 0.931 . S
N136 Co132 2.148 . S
N136 C133 1.301 . S
N136 C134 1.317 . S
N137 C133 1.328 . S
N137 C135 1.350 . S
H138 C133 0.930 . S
H139 C134 0.930 . S
C140 O141 1.224 . S
C140 O159 1.247 . S
O141 C140 1.224 . S
N142 Co132 2.128 . S
N142 C143 1.355 . S
N142 C145 1.311 . S
C143 N142 1.355 . S
C143 C144 1.363 . S
C143 H155 0.929 . S
C144 C143 1.363 . S
C144 N146 1.375 . S
C144 H162 0.931 . S
C145 N142 1.311 . S
C145 N146 1.347 . S
C145 H156 0.929 . S
N146 C144 1.375 . S
N146 C145 1.347 . S
C147 C150 1.365 . S
C147 N152 1.328 . S
C147 H153 0.929 . S
C148 C149 1.362 . S
C148 C151 1.378 . S
C148 H163 0.929 . S
C149 C148 1.362 . S
C149 C150 1.366 . S
C150 C147 1.365 . S
C150 C149 1.366 . S
C150 H164 0.930 . S
C151 C148 1.378 . S
C151 N152 1.315 . S
C151 H154 0.930 . S
N152 Co132 2.194 . S
N152 C147 1.328 . S
N152 C151 1.315 . S
H153 C147 0.929 . S
H154 C151 0.930 . S
H155 C143 0.929 . S
H156 C145 0.929 . S
O157 Co132 2.351 . S
O157 C160 1.244 . S
O158 Co132 2.155 . S
O158 C160 1.240 . S
O159 Co132 2.096 . S
O159 C140 1.247 . S
C160 O157 1.244 . S
C160 O158 1.240 . S
H161 C135 0.931 . S
H162 C144 0.931 . S
H163 C148 0.929 . S
H164 C150 0.930 . S
Co165 N169 2.148 . S
Co165 N175 2.128 . S
Co165 N185 2.194 . S
Co165 O190 2.351 . S
Co165 O191 2.155 . S
Co165 O192 2.096 . S
C166 N169 1.301 . S
C166 N170 1.328 . S
C166 H171 0.930 . S
C167 C168 1.333 . S
C167 N169 1.317 . S
C167 H172 0.930 . S
C168 C167 1.333 . S
C168 N170 1.350 . S
C168 H194 0.931 . S
N169 Co165 2.148 . S
N169 C166 1.301 . S
N169 C167 1.317 . S
N170 C166 1.328 . S
N170 C168 1.350 . S
H171 C166 0.930 . S
H172 C167 0.930 . S
C173 O174 1.224 . S
C173 O192 1.247 . S
O174 C173 1.224 . S
N175 Co165 2.128 . S
N175 C176 1.355 . S
N175 C178 1.311 . S
C176 N175 1.355 . S
C176 C177 1.363 . S
C176 H188 0.929 . S
C177 C176 1.363 . S
C177 N179 1.375 . S
C177 H195 0.931 . S
C178 N175 1.311 . S
C178 N179 1.347 . S
C178 H189 0.929 . S
N179 C177 1.375 . S
N179 C178 1.347 . S
C180 C183 1.365 . S
C180 N185 1.328 . S
C180 H186 0.929 . S
C181 C182 1.362 . S
C181 C184 1.378 . S
C181 H196 0.929 . S
C182 C181 1.362 . S
C182 C183 1.366 . S
C183 C180 1.365 . S
C183 C182 1.366 . S
C183 H197 0.930 . S
C184 C181 1.378 . S
C184 N185 1.315 . S
C184 H187 0.930 . S
N185 Co165 2.194 . S
N185 C180 1.328 . S
N185 C184 1.315 . S
H186 C180 0.929 . S
H187 C184 0.930 . S
H188 C176 0.929 . S
H189 C178 0.929 . S
O190 Co165 2.351 . S
O190 C193 1.244 . S
O191 Co165 2.155 . S
O191 C193 1.240 . S
O192 Co165 2.096 . S
O192 C173 1.247 . S
C193 O190 1.244 . S
C193 O191 1.240 . S
H194 C168 0.931 . S
H195 C177 0.931 . S
H196 C181 0.929 . S
H197 C183 0.930 . S
Co198 N202 2.148 . S
Co198 N208 2.128 . S
Co198 N218 2.194 . S
Co198 O223 2.351 . S
Co198 O224 2.155 . S
Co198 O225 2.096 . S
C199 N202 1.301 . S
C199 N203 1.328 . S
C199 H204 0.930 . S
C200 C201 1.333 . S
C200 N202 1.317 . S
C200 H205 0.930 . S
C201 C200 1.333 . S
C201 N203 1.350 . S
C201 H227 0.931 . S
N202 Co198 2.148 . S
N202 C199 1.301 . S
N202 C200 1.317 . S
N203 C199 1.328 . S
N203 C201 1.350 . S
H204 C199 0.930 . S
H205 C200 0.930 . S
C206 O207 1.224 . S
C206 O225 1.247 . S
O207 C206 1.224 . S
N208 Co198 2.128 . S
N208 C209 1.355 . S
N208 C211 1.311 . S
C209 N208 1.355 . S
C209 C210 1.363 . S
C209 H221 0.929 . S
C210 C209 1.363 . S
C210 N212 1.375 . S
C210 H228 0.931 . S
C211 N208 1.311 . S
C211 N212 1.347 . S
C211 H222 0.929 . S
N212 C210 1.375 . S
N212 C211 1.347 . S
C213 C216 1.365 . S
C213 N218 1.328 . S
C213 H219 0.929 . S
C214 C215 1.362 . S
C214 C217 1.378 . S
C214 H229 0.929 . S
C215 C214 1.362 . S
C215 C216 1.366 . S
C216 C213 1.365 . S
C216 C215 1.366 . S
C216 H230 0.930 . S
C217 C214 1.378 . S
C217 N218 1.315 . S
C217 H220 0.930 . S
N218 Co198 2.194 . S
N218 C213 1.328 . S
N218 C217 1.315 . S
H219 C213 0.929 . S
H220 C217 0.930 . S
H221 C209 0.929 . S
H222 C211 0.929 . S
O223 Co198 2.351 . S
O223 C226 1.244 . S
O224 Co198 2.155 . S
O224 C226 1.240 . S
O225 Co198 2.096 . S
O225 C206 1.247 . S
C226 O223 1.244 . S
C226 O224 1.240 . S
H227 C201 0.931 . S
H228 C210 0.931 . S
H229 C214 0.929 . S
H230 C216 0.930 . S
Co231 N235 2.148 . S
Co231 N241 2.128 . S
Co231 N251 2.194 . S
Co231 O256 2.351 . S
Co231 O257 2.155 . S
Co231 O258 2.096 . S
C232 N235 1.301 . S
C232 N236 1.328 . S
C232 H237 0.930 . S
C233 C234 1.333 . S
C233 N235 1.317 . S
C233 H238 0.930 . S
C234 C233 1.333 . S
C234 N236 1.350 . S
C234 H260 0.931 . S
N235 Co231 2.148 . S
N235 C232 1.301 . S
N235 C233 1.317 . S
N236 C232 1.328 . S
N236 C234 1.350 . S
H237 C232 0.930 . S
H238 C233 0.930 . S
C239 O240 1.224 . S
C239 O258 1.247 . S
O240 C239 1.224 . S
N241 Co231 2.128 . S
N241 C242 1.355 . S
N241 C244 1.311 . S
C242 N241 1.355 . S
C242 C243 1.363 . S
C242 H254 0.929 . S
C243 C242 1.363 . S
C243 N245 1.375 . S
C243 H261 0.931 . S
C244 N241 1.311 . S
C244 N245 1.347 . S
C244 H255 0.929 . S
N245 C243 1.375 . S
N245 C244 1.347 . S
C246 C249 1.365 . S
C246 N251 1.328 . S
C246 H252 0.929 . S
C247 C248 1.362 . S
C247 C250 1.378 . S
C247 H262 0.929 . S
C248 C247 1.362 . S
C248 C249 1.366 . S
C249 C246 1.365 . S
C249 C248 1.366 . S
C249 H263 0.930 . S
C250 C247 1.378 . S
C250 N251 1.315 . S
C250 H253 0.930 . S
N251 Co231 2.194 . S
N251 C246 1.328 . S
N251 C250 1.315 . S
H252 C246 0.929 . S
H253 C250 0.930 . S
H254 C242 0.929 . S
H255 C244 0.929 . S
O256 Co231 2.351 . S
O256 C259 1.244 . S
O257 Co231 2.155 . S
O257 C259 1.240 . S
O258 Co231 2.096 . S
O258 C239 1.247 . S
C259 O256 1.244 . S
C259 O257 1.240 . S
H260 C234 0.931 . S
H261 C243 0.931 . S
H262 C247 0.929 . S
H263 C249 0.930 . S
Co264 N268 2.148 . S
Co264 N274 2.128 . S
Co264 N284 2.194 . S
Co264 O289 2.351 . S
Co264 O290 2.155 . S
Co264 O291 2.096 . S
C265 N268 1.301 . S
C265 N269 1.328 . S
C265 H270 0.930 . S
C266 C267 1.333 . S
C266 N268 1.317 . S
C266 H271 0.930 . S
C267 C266 1.333 . S
C267 N269 1.350 . S
C267 H293 0.931 . S
N268 Co264 2.148 . S
N268 C265 1.301 . S
N268 C266 1.317 . S
N269 C265 1.328 . S
N269 C267 1.350 . S
H270 C265 0.930 . S
H271 C266 0.930 . S
C272 O273 1.224 . S
C272 O291 1.247 . S
O273 C272 1.224 . S
N274 Co264 2.128 . S
N274 C275 1.355 1_655 S
N274 C277 1.311 1_655 S
C275 N274 1.355 1_455 S
C275 C276 1.363 . S
C275 H287 0.929 1_455 S
C276 C275 1.363 . S
C276 N278 1.375 . S
C276 H294 0.931 . S
C277 N274 1.311 1_455 S
C277 N278 1.347 . S
C277 H288 0.929 . S
N278 C276 1.375 . S
N278 C277 1.347 . S
C279 C282 1.365 . S
C279 N284 1.328 . S
C279 H285 0.929 . S
C280 C281 1.362 . S
C280 C283 1.378 . S
C280 H295 0.929 . S
C281 C280 1.362 . S
C281 C282 1.366 . S
C282 C279 1.365 . S
C282 C281 1.366 . S
C282 H296 0.930 . S
C283 C280 1.378 . S
C283 N284 1.315 . S
C283 H286 0.930 . S
N284 Co264 2.194 . S
N284 C279 1.328 . S
N284 C283 1.315 . S
H285 C279 0.929 . S
H286 C283 0.930 . S
H287 C275 0.929 1_655 S
H288 C277 0.929 . S
O289 Co264 2.351 . S
O289 C292 1.244 . S
O290 Co264 2.155 . S
O290 C292 1.240 . S
O291 Co264 2.096 . S
O291 C272 1.247 . S
C292 O289 1.244 . S
C292 O290 1.240 . S
H293 C267 0.931 . S
H294 C276 0.931 . S
H295 C280 0.929 . S
H296 C282 0.930 . S
Co297 N301 2.148 . S
Co297 N307 2.128 . S
Co297 N317 2.194 . S
Co297 O322 2.351 . S
Co297 O323 2.155 . S
Co297 O324 2.096 . S
C298 N301 1.301 . S
C298 N302 1.328 . S
C298 H303 0.930 . S
C299 C300 1.333 . S
C299 N301 1.317 . S
C299 H304 0.930 . S
C300 C299 1.333 . S
C300 N302 1.350 . S
C300 H326 0.931 . S
N301 Co297 2.148 . S
N301 C298 1.301 . S
N301 C299 1.317 . S
N302 C298 1.328 . S
N302 C300 1.350 . S
H303 C298 0.930 . S
H304 C299 0.930 . S
C305 O306 1.224 . S
C305 O324 1.247 . S
O306 C305 1.224 . S
N307 Co297 2.128 . S
N307 C308 1.355 1_565 S
N307 C310 1.311 1_565 S
C308 N307 1.355 1_545 S
C308 C309 1.363 . S
C308 H320 0.929 1_545 S
C309 C308 1.363 . S
C309 N311 1.375 . S
C309 H327 0.931 . S
C310 N307 1.311 1_545 S
C310 N311 1.347 . S
C310 H321 0.929 . S
N311 C309 1.375 . S
N311 C310 1.347 . S
C312 C315 1.365 . S
C312 N317 1.328 . S
C312 H318 0.929 . S
C313 C314 1.362 . S
C313 C316 1.378 . S
C313 H328 0.929 . S
C314 C313 1.362 . S
C314 C315 1.366 . S
C315 C312 1.365 . S
C315 C314 1.366 . S
C315 H329 0.930 . S
C316 C313 1.378 . S
C316 N317 1.315 . S
C316 H319 0.930 . S
N317 Co297 2.194 . S
N317 C312 1.328 . S
N317 C316 1.315 . S
H318 C312 0.929 . S
H319 C316 0.930 . S
H320 C308 0.929 1_565 S
H321 C310 0.929 . S
O322 Co297 2.351 . S
O322 C325 1.244 . S
O323 Co297 2.155 . S
O323 C325 1.240 . S
O324 Co297 2.096 . S
O324 C305 1.247 . S
C325 O322 1.244 . S
C325 O323 1.240 . S
H326 C300 0.931 . S
H327 C309 0.931 . S
H328 C313 0.929 . S
H329 C315 0.930 . S
Co330 N334 2.148 . S
Co330 N340 2.128 . S
Co330 N350 2.194 . S
Co330 O355 2.351 . S
Co330 O356 2.155 . S
Co330 O357 2.096 . S
C331 N334 1.301 . S
C331 N335 1.328 . S
C331 H336 0.930 . S
C332 C333 1.333 . S
C332 N334 1.317 . S
C332 H337 0.930 . S
C333 C332 1.333 . S
C333 N335 1.350 . S
C333 H359 0.931 . S
N334 Co330 2.148 . S
N334 C331 1.301 . S
N334 C332 1.317 . S
N335 C331 1.328 . S
N335 C333 1.350 . S
H336 C331 0.930 . S
H337 C332 0.930 . S
C338 O339 1.224 . S
C338 O357 1.247 . S
O339 C338 1.224 . S
N340 Co330 2.128 . S
N340 C341 1.355 1_455 S
N340 C343 1.311 1_455 S
C341 N340 1.355 1_655 S
C341 C342 1.363 . S
C341 H353 0.929 1_655 S
C342 C341 1.363 . S
C342 N344 1.375 . S
C342 H360 0.931 . S
C343 N340 1.311 1_655 S
C343 N344 1.347 . S
C343 H354 0.929 . S
N344 C342 1.375 . S
N344 C343 1.347 . S
C345 C348 1.365 . S
C345 N350 1.328 . S
C345 H351 0.929 . S
C346 C347 1.362 . S
C346 C349 1.378 . S
C346 H361 0.929 . S
C347 C346 1.362 . S
C347 C348 1.366 . S
C348 C345 1.365 . S
C348 C347 1.366 . S
C348 H362 0.930 . S
C349 C346 1.378 . S
C349 N350 1.315 . S
C349 H352 0.930 . S
N350 Co330 2.194 . S
N350 C345 1.328 . S
N350 C349 1.315 . S
H351 C345 0.929 . S
H352 C349 0.930 . S
H353 C341 0.929 1_455 S
H354 C343 0.929 . S
O355 Co330 2.351 . S
O355 C358 1.244 . S
O356 Co330 2.155 . S
O356 C358 1.240 . S
O357 Co330 2.096 . S
O357 C338 1.247 . S
C358 O355 1.244 . S
C358 O356 1.240 . S
H359 C333 0.931 . S
H360 C342 0.931 . S
H361 C346 0.929 . S
H362 C348 0.930 . S
Co363 N367 2.148 . S
Co363 N373 2.128 . S
Co363 N383 2.194 . S
Co363 O388 2.351 . S
Co363 O389 2.155 . S
Co363 O390 2.096 . S
C364 N367 1.301 . S
C364 N368 1.328 . S
C364 H369 0.930 . S
C365 C366 1.333 . S
C365 N367 1.317 . S
C365 H370 0.930 . S
C366 C365 1.333 . S
C366 N368 1.350 . S
C366 H392 0.931 . S
N367 Co363 2.148 . S
N367 C364 1.301 . S
N367 C365 1.317 . S
N368 C364 1.328 . S
N368 C366 1.350 . S
H369 C364 0.930 . S
H370 C365 0.930 . S
C371 O372 1.224 . S
C371 O390 1.247 . S
O372 C371 1.224 . S
N373 Co363 2.128 . S
N373 C374 1.355 1_545 S
N373 C376 1.311 1_545 S
C374 N373 1.355 1_565 S
C374 C375 1.363 . S
C374 H386 0.929 1_565 S
C375 C374 1.363 . S
C375 N377 1.375 . S
C375 H393 0.931 . S
C376 N373 1.311 1_565 S
C376 N377 1.347 . S
C376 H387 0.929 . S
N377 C375 1.375 . S
N377 C376 1.347 . S
C378 C381 1.365 . S
C378 N383 1.328 . S
C378 H384 0.929 . S
C379 C380 1.362 . S
C379 C382 1.378 . S
C379 H394 0.929 . S
C380 C379 1.362 . S
C380 C381 1.366 . S
C381 C378 1.365 . S
C381 C380 1.366 . S
C381 H395 0.930 . S
C382 C379 1.378 . S
C382 N383 1.315 . S
C382 H385 0.930 . S
N383 Co363 2.194 . S
N383 C378 1.328 . S
N383 C382 1.315 . S
H384 C378 0.929 . S
H385 C382 0.930 . S
H386 C374 0.929 1_545 S
H387 C376 0.929 . S
O388 Co363 2.351 . S
O388 C391 1.244 . S
O389 Co363 2.155 . S
O389 C391 1.240 . S
O390 Co363 2.096 . S
O390 C371 1.247 . S
C391 O388 1.244 . S
C391 O389 1.240 . S
H392 C366 0.931 . S
H393 C375 0.931 . S
H394 C379 0.929 . S
H395 C381 0.930 . S
Co396 N400 2.148 . S
Co396 N406 2.128 . S
Co396 N416 2.194 . S
Co396 O421 2.351 . S
Co396 O422 2.155 . S
Co396 O423 2.096 . S
C397 N400 1.301 . S
C397 N401 1.328 . S
C397 H402 0.930 . S
C398 C399 1.333 . S
C398 N400 1.317 . S
C398 H403 0.930 . S
C399 C398 1.333 . S
C399 N401 1.350 . S
C399 H425 0.931 . S
N400 Co396 2.148 . S
N400 C397 1.301 . S
N400 C398 1.317 . S
N401 C397 1.328 . S
N401 C399 1.350 . S
H402 C397 0.930 . S
H403 C398 0.930 . S
C404 O405 1.224 . S
C404 O423 1.247 . S
O405 C404 1.224 . S
N406 Co396 2.128 . S
N406 C407 1.355 . S
N406 C409 1.311 . S
C407 N406 1.355 . S
C407 C408 1.363 . S
C407 H419 0.929 . S
C408 C407 1.363 . S
C408 N410 1.375 . S
C408 H426 0.931 . S
C409 N406 1.311 . S
C409 N410 1.347 . S
C409 H420 0.929 . S
N410 C408 1.375 . S
N410 C409 1.347 . S
C411 C414 1.365 . S
C411 N416 1.328 . S
C411 H417 0.929 . S
C412 C413 1.362 . S
C412 C415 1.378 . S
C412 H427 0.929 . S
C413 C412 1.362 . S
C413 C414 1.366 . S
C414 C411 1.365 . S
C414 C413 1.366 . S
C414 H428 0.930 . S
C415 C412 1.378 . S
C415 N416 1.315 . S
C415 H418 0.930 . S
N416 Co396 2.194 . S
N416 C411 1.328 . S
N416 C415 1.315 . S
H417 C411 0.929 . S
H418 C415 0.930 . S
H419 C407 0.929 . S
H420 C409 0.929 . S
O421 Co396 2.351 . S
O421 C424 1.244 . S
O422 Co396 2.155 . S
O422 C424 1.240 . S
O423 Co396 2.096 . S
O423 C404 1.247 . S
C424 O421 1.244 . S
C424 O422 1.240 . S
H425 C399 0.931 . S
H426 C408 0.931 . S
H427 C412 0.929 . S
H428 C414 0.930 . S
Co429 N433 2.148 . S
Co429 N439 2.128 . S
Co429 N449 2.194 . S
Co429 O454 2.351 . S
Co429 O455 2.155 . S
Co429 O456 2.096 . S
C430 N433 1.301 . S
C430 N434 1.328 . S
C430 H435 0.930 . S
C431 C432 1.333 . S
C431 N433 1.317 . S
C431 H436 0.930 . S
C432 C431 1.333 . S
C432 N434 1.350 . S
C432 H458 0.931 . S
N433 Co429 2.148 . S
N433 C430 1.301 . S
N433 C431 1.317 . S
N434 C430 1.328 . S
N434 C432 1.350 . S
H435 C430 0.930 . S
H436 C431 0.930 . S
C437 O438 1.224 . S
C437 O456 1.247 . S
O438 C437 1.224 . S
N439 Co429 2.128 . S
N439 C440 1.355 . S
N439 C442 1.311 . S
C440 N439 1.355 . S
C440 C441 1.363 . S
C440 H452 0.929 . S
C441 C440 1.363 . S
C441 N443 1.375 . S
C441 H459 0.931 . S
C442 N439 1.311 . S
C442 N443 1.347 . S
C442 H453 0.929 . S
N443 C441 1.375 . S
N443 C442 1.347 . S
C444 C447 1.365 . S
C444 N449 1.328 . S
C444 H450 0.929 . S
C445 C446 1.362 . S
C445 C448 1.378 . S
C445 H460 0.929 . S
C446 C445 1.362 . S
C446 C447 1.366 . S
C447 C444 1.365 . S
C447 C446 1.366 . S
C447 H461 0.930 . S
C448 C445 1.378 . S
C448 N449 1.315 . S
C448 H451 0.930 . S
N449 Co429 2.194 . S
N449 C444 1.328 . S
N449 C448 1.315 . S
H450 C444 0.929 . S
H451 C448 0.930 . S
H452 C440 0.929 . S
H453 C442 0.929 . S
O454 Co429 2.351 . S
O454 C457 1.244 . S
O455 Co429 2.155 . S
O455 C457 1.240 . S
O456 Co429 2.096 . S
O456 C437 1.247 . S
C457 O454 1.244 . S
C457 O455 1.240 . S
H458 C432 0.931 . S
H459 C441 0.931 . S
H460 C445 0.929 . S
H461 C447 0.930 . S
Co462 N466 2.148 . S
Co462 N472 2.128 . S
Co462 N482 2.194 . S
Co462 O487 2.351 . S
Co462 O488 2.155 . S
Co462 O489 2.096 . S
C463 N466 1.301 . S
C463 N467 1.328 . S
C463 H468 0.930 . S
C464 C465 1.333 . S
C464 N466 1.317 . S
C464 H469 0.930 . S
C465 C464 1.333 . S
C465 N467 1.350 . S
C465 H491 0.931 . S
N466 Co462 2.148 . S
N466 C463 1.301 . S
N466 C464 1.317 . S
N467 C463 1.328 . S
N467 C465 1.350 . S
H468 C463 0.930 . S
H469 C464 0.930 . S
C470 O471 1.224 . S
C470 O489 1.247 . S
O471 C470 1.224 . S
N472 Co462 2.128 . S
N472 C473 1.355 . S
N472 C475 1.311 . S
C473 N472 1.355 . S
C473 C474 1.363 . S
C473 H485 0.929 . S
C474 C473 1.363 . S
C474 N476 1.375 . S
C474 H492 0.931 . S
C475 N472 1.311 . S
C475 N476 1.347 . S
C475 H486 0.929 . S
N476 C474 1.375 . S
N476 C475 1.347 . S
C477 C480 1.365 . S
C477 N482 1.328 . S
C477 H483 0.929 . S
C478 C479 1.362 . S
C478 C481 1.378 . S
C478 H493 0.929 . S
C479 C478 1.362 . S
C479 C480 1.366 . S
C480 C477 1.365 . S
C480 C479 1.366 . S
C480 H494 0.930 . S
C481 C478 1.378 . S
C481 N482 1.315 . S
C481 H484 0.930 . S
N482 Co462 2.194 . S
N482 C477 1.328 . S
N482 C481 1.315 . S
H483 C477 0.929 . S
H484 C481 0.930 . S
H485 C473 0.929 . S
H486 C475 0.929 . S
O487 Co462 2.351 . S
O487 C490 1.244 . S
O488 Co462 2.155 . S
O488 C490 1.240 . S
O489 Co462 2.096 . S
O489 C470 1.247 . S
C490 O487 1.244 . S
C490 O488 1.240 . S
H491 C465 0.931 . S
H492 C474 0.931 . S
H493 C478 0.929 . S
H494 C480 0.930 . S
Co495 N499 2.148 . S
Co495 N505 2.128 . S
Co495 N515 2.194 . S
Co495 O520 2.351 . S
Co495 O521 2.155 . S
Co495 O522 2.096 . S
C496 N499 1.301 . S
C496 N500 1.328 . S
C496 H501 0.930 . S
C497 C498 1.333 . S
C497 N499 1.317 . S
C497 H502 0.930 . S
C498 C497 1.333 . S
C498 N500 1.350 . S
C498 H524 0.931 . S
N499 Co495 2.148 . S
N499 C496 1.301 . S
N499 C497 1.317 . S
N500 C496 1.328 . S
N500 C498 1.350 . S
H501 C496 0.930 . S
H502 C497 0.930 . S
C503 O504 1.224 . S
C503 O522 1.247 . S
O504 C503 1.224 . S
N505 Co495 2.128 . S
N505 C506 1.355 . S
N505 C508 1.311 . S
C506 N505 1.355 . S
C506 C507 1.363 . S
C506 H518 0.929 . S
C507 C506 1.363 . S
C507 N509 1.375 . S
C507 H525 0.931 . S
C508 N505 1.311 . S
C508 N509 1.347 . S
C508 H519 0.929 . S
N509 C507 1.375 . S
N509 C508 1.347 . S
C510 C513 1.365 . S
C510 N515 1.328 . S
C510 H516 0.929 . S
C511 C512 1.362 . S
C511 C514 1.378 . S
C511 H526 0.929 . S
C512 C511 1.362 . S
C512 C513 1.366 . S
C513 C510 1.365 . S
C513 C512 1.366 . S
C513 H527 0.930 . S
C514 C511 1.378 . S
C514 N515 1.315 . S
C514 H517 0.930 . S
N515 Co495 2.194 . S
N515 C510 1.328 . S
N515 C514 1.315 . S
H516 C510 0.929 . S
H517 C514 0.930 . S
H518 C506 0.929 . S
H519 C508 0.929 . S
O520 Co495 2.351 . S
O520 C523 1.244 . S
O521 Co495 2.155 . S
O521 C523 1.240 . S
O522 Co495 2.096 . S
O522 C503 1.247 . S
C523 O520 1.244 . S
C523 O521 1.240 . S
H524 C498 0.931 . S
H525 C507 0.931 . S
H526 C511 0.929 . S
H527 C513 0.930 . S
H528 C534 0.930 . S
H529 C538 0.930 . S
H530 C543 0.929 . S
H531 C541 0.929 . S
H532 C536 0.929 . S
H533 C542 0.929 . S
C534 H528 0.930 . S
C534 C535 1.367 1_655 S
C534 C542 1.378 . S
C535 C534 1.367 1_455 S
C535 C543 1.433 . S
C536 H532 0.929 . S
C536 C538 1.378 . S
C536 C540 1.350 1_455 S
C537 C540 1.463 1_445 S
C537 C542 1.350 1_455 S
C537 N545 1.427 . S
C538 H529 0.930 . S
C538 C536 1.378 . S
C538 C539 1.367 1_455 S
C539 C538 1.367 1_655 S
C539 C541 1.433 . S
C540 C536 1.350 1_655 S
C540 C537 1.463 1_665 S
C540 N544 1.427 . S
C541 H531 0.929 . S
C541 C539 1.433 . S
C541 N544 1.384 . S
C542 H533 0.929 . S
C542 C534 1.378 . S
C542 C537 1.350 1_655 S
C543 H530 0.929 . S
C543 C535 1.433 . S
C543 N545 1.384 . S
N544 C540 1.427 . S
N544 C541 1.384 . S
N545 C537 1.427 . S
N545 C543 1.384 . S
H546 C552 0.930 . S
H547 C556 0.930 . S
H548 C561 0.929 . S
H549 C559 0.929 . S
H550 C554 0.929 . S
H551 C560 0.929 . S
C552 H546 0.930 . S
C552 C553 1.367 . S
C552 C560 1.378 . S
C553 C552 1.367 . S
C553 C561 1.433 1_565 S
C554 H550 0.929 . S
C554 C556 1.378 . S
C554 C558 1.350 . S
C555 C558 1.463 1_465 S
C555 C560 1.350 . S
C555 N563 1.427 1_565 S
C556 H547 0.930 . S
C556 C554 1.378 . S
C556 C557 1.367 . S
C557 C556 1.367 . S
C557 C559 1.433 1_545 S
C558 C554 1.350 . S
C558 C555 1.463 1_645 S
C558 N562 1.427 1_545 S
C559 H549 0.929 . S
C559 C557 1.433 1_565 S
C559 N562 1.384 . S
C560 H551 0.929 . S
C560 C552 1.378 . S
C560 C555 1.350 . S
C561 H548 0.929 . S
C561 C553 1.433 1_545 S
C561 N563 1.384 . S
N562 C558 1.427 1_565 S
N562 C559 1.384 . S
N563 C555 1.427 1_545 S
N563 C561 1.384 . S
H564 C570 0.930 . S
H565 C574 0.930 . S
H566 C579 0.929 . S
H567 C577 0.929 . S
H568 C572 0.929 . S
H569 C578 0.929 . S
C570 H564 0.930 . S
C570 C571 1.367 . S
C570 C578 1.378 . S
C571 C570 1.367 . S
C571 C579 1.433 . S
C572 H568 0.929 . S
C572 C574 1.378 . S
C572 C576 1.350 . S
C573 C576 1.463 . S
C573 C578 1.350 . S
C573 N581 1.427 . S
C574 H565 0.930 . S
C574 C572 1.378 . S
C574 C575 1.367 . S
C575 C574 1.367 . S
C575 C577 1.433 . S
C576 C572 1.350 . S
C576 C573 1.463 . S
C576 N580 1.427 . S
C577 H567 0.929 . S
C577 C575 1.433 . S
C577 N580 1.384 . S
C578 H569 0.929 . S
C578 C570 1.378 . S
C578 C573 1.350 . S
C579 H566 0.929 . S
C579 C571 1.433 . S
C579 N581 1.384 . S
N580 C576 1.427 . S
N580 C577 1.384 . S
N581 C573 1.427 . S
N581 C579 1.384 . S
H582 C588 0.930 . S
H583 C592 0.930 . S
H584 C597 0.929 . S
H585 C595 0.929 . S
H586 C590 0.929 . S
H587 C596 0.929 . S
C588 H582 0.930 . S
C588 C589 1.367 . S
C588 C596 1.378 . S
C589 C588 1.367 . S
C589 C597 1.433 . S
C590 H586 0.929 . S
C590 C592 1.378 . S
C590 C594 1.350 . S
C591 C594 1.463 . S
C591 C596 1.350 . S
C591 N599 1.427 . S
C592 H583 0.930 . S
C592 C590 1.378 . S
C592 C593 1.367 . S
C593 C592 1.367 . S
C593 C595 1.433 . S
C594 C590 1.350 . S
C594 C591 1.463 . S
C594 N598 1.427 . S
C595 H585 0.929 . S
C595 C593 1.433 . S
C595 N598 1.384 . S
C596 H587 0.929 . S
C596 C588 1.378 . S
C596 C591 1.350 . S
C597 H584 0.929 . S
C597 C589 1.433 . S
C597 N599 1.384 . S
N598 C594 1.427 . S
N598 C595 1.384 . S
N599 C591 1.427 . S
N599 C597 1.384 . S
H600 C606 0.930 . S
H601 C610 0.930 . S
H602 C615 0.929 . S
H603 C613 0.929 . S
H604 C608 0.929 . S
H605 C614 0.929 . S
C606 H600 0.930 . S
C606 C607 1.367 . S
C606 C614 1.378 . S
C607 C606 1.367 . S
C607 C615 1.433 1_455 S
C608 H604 0.929 . S
C608 C610 1.378 . S
C608 C612 1.350 . S
C609 C612 1.463 1_445 S
C609 C614 1.350 . S
C609 N617 1.427 1_455 S
C610 H601 0.930 . S
C610 C608 1.378 . S
C610 C611 1.367 . S
C611 C610 1.367 . S
C611 C613 1.433 1_655 S
C612 C608 1.350 . S
C612 C609 1.463 1_665 S
C612 N616 1.427 1_655 S
C613 H603 0.929 . S
C613 C611 1.433 1_455 S
C613 N616 1.384 . S
C614 H605 0.929 . S
C614 C606 1.378 . S
C614 C609 1.350 . S
C615 H602 0.929 . S
C615 C607 1.433 1_655 S
C615 N617 1.384 . S
N616 C612 1.427 1_455 S
N616 C613 1.384 . S
N617 C609 1.427 1_655 S
N617 C615 1.384 . S
H618 C624 0.930 . S
H619 C628 0.930 . S
H620 C633 0.929 . S
H621 C631 0.929 . S
H622 C626 0.929 . S
H623 C632 0.929 . S
C624 H618 0.930 . S
C624 C625 1.367 1_545 S
C624 C632 1.378 . S
C625 C624 1.367 1_565 S
C625 C633 1.433 . S
C626 H622 0.929 . S
C626 C628 1.378 . S
C626 C630 1.350 1_565 S
C627 C630 1.463 1_465 S
C627 C632 1.350 1_565 S
C627 N635 1.427 . S
C628 H619 0.930 . S
C628 C626 1.378 . S
C628 C629 1.367 1_565 S
C629 C628 1.367 1_545 S
C629 C631 1.433 . S
C630 C626 1.350 1_545 S
C630 C627 1.463 1_645 S
C630 N634 1.427 . S
C631 H621 0.929 . S
C631 C629 1.433 . S
C631 N634 1.384 . S
C632 H623 0.929 . S
C632 C624 1.378 . S
C632 C627 1.350 1_545 S
C633 H620 0.929 . S
C633 C625 1.433 . S
C633 N635 1.384 . S
N634 C630 1.427 . S
N634 C631 1.384 . S
N635 C627 1.427 . S
N635 C633 1.384 . S
H636 C642 0.930 . S
H637 C646 0.930 . S
H638 C651 0.929 . S
H639 C649 0.929 . S
H640 C644 0.929 . S
H641 C650 0.929 . S
C642 H636 0.930 . S
C642 C643 1.367 . S
C642 C650 1.378 . S
C643 C642 1.367 . S
C643 C651 1.433 . S
C644 H640 0.929 . S
C644 C646 1.378 . S
C644 C648 1.350 . S
C645 C648 1.463 . S
C645 C650 1.350 . S
C645 N653 1.427 . S
C646 H637 0.930 . S
C646 C644 1.378 . S
C646 C647 1.367 . S
C647 C646 1.367 . S
C647 C649 1.433 . S
C648 C644 1.350 . S
C648 C645 1.463 . S
C648 N652 1.427 . S
C649 H639 0.929 . S
C649 C647 1.433 . S
C649 N652 1.384 . S
C650 H641 0.929 . S
C650 C642 1.378 . S
C650 C645 1.350 . S
C651 H638 0.929 . S
C651 C643 1.433 . S
C651 N653 1.384 . S
N652 C648 1.427 . S
N652 C649 1.384 . S
N653 C645 1.427 . S
N653 C651 1.384 . S
H654 C660 0.930 . S
H655 C664 0.930 . S
H656 C669 0.929 . S
H657 C667 0.929 . S
H658 C662 0.929 . S
H659 C668 0.929 . S
C660 H654 0.930 . S
C660 C661 1.367 . S
C660 C668 1.378 . S
C661 C660 1.367 . S
C661 C669 1.433 . S
C662 H658 0.929 . S
C662 C664 1.378 . S
C662 C666 1.350 . S
C663 C666 1.463 . S
C663 C668 1.350 . S
C663 N671 1.427 . S
C664 H655 0.930 . S
C664 C662 1.378 . S
C664 C665 1.367 . S
C665 C664 1.367 . S
C665 C667 1.433 . S
C666 C662 1.350 . S
C666 C663 1.463 . S
C666 N670 1.427 . S
C667 H657 0.929 . S
C667 C665 1.433 . S
C667 N670 1.384 . S
C668 H659 0.929 . S
C668 C660 1.378 . S
C668 C663 1.350 . S
C669 H656 0.929 . S
C669 C661 1.433 . S
C669 N671 1.384 . S
N670 C666 1.427 . S
N670 C667 1.384 . S
N671 C663 1.427 . S
N671 C669 1.384 . S
H672 C678 0.930 . S
H673 C682 0.930 . S
H674 C687 0.929 . S
H675 C685 0.929 . S
H676 C680 0.929 . S
H677 C686 0.929 . S
C678 H672 0.930 . S
C678 C679 1.367 . S
C678 C686 1.378 . S
C679 C678 1.367 . S
C679 C687 1.433 . S
C680 H676 0.929 . S
C680 C682 1.378 . S
C680 C684 1.350 . S
C681 C684 1.463 1_554 S
C681 C686 1.350 . S
C681 N689 1.427 . S
C682 H673 0.930 . S
C682 C680 1.378 . S
C682 C683 1.367 . S
C683 C682 1.367 . S
C683 C685 1.433 . S
C684 C680 1.350 . S
C684 C681 1.463 1_556 S
C684 N688 1.427 . S
C685 H675 0.929 . S
C685 C683 1.433 . S
C685 N688 1.384 . S
C686 H677 0.929 . S
C686 C678 1.378 . S
C686 C681 1.350 . S
C687 H674 0.929 . S
C687 C679 1.433 . S
C687 N689 1.384 . S
N688 C684 1.427 . S
N688 C685 1.384 . S
N689 C681 1.427 . S
N689 C687 1.384 . S
H690 C696 0.930 . S
H691 C700 0.930 . S
H692 C705 0.929 . S
H693 C703 0.929 . S
H694 C698 0.929 . S
H695 C704 0.929 . S
C696 H690 0.930 . S
C696 C697 1.367 . S
C696 C704 1.378 . S
C697 C696 1.367 . S
C697 C705 1.433 . S
C698 H694 0.929 . S
C698 C700 1.378 . S
C698 C702 1.350 . S
C699 C702 1.463 . S
C699 C704 1.350 . S
C699 N707 1.427 . S
C700 H691 0.930 . S
C700 C698 1.378 . S
C700 C701 1.367 . S
C701 C700 1.367 . S
C701 C703 1.433 . S
C702 C698 1.350 . S
C702 C699 1.463 . S
C702 N706 1.427 . S
C703 H693 0.929 . S
C703 C701 1.433 . S
C703 N706 1.384 . S
C704 H695 0.929 . S
C704 C696 1.378 . S
C704 C699 1.350 . S
C705 H692 0.929 . S
C705 C697 1.433 . S
C705 N707 1.384 . S
N706 C702 1.427 . S
N706 C703 1.384 . S
N707 C699 1.427 . S
N707 C705 1.384 . S
H708 C714 0.930 . S
H709 C718 0.930 . S
H710 C723 0.929 . S
H711 C721 0.929 . S
H712 C716 0.929 . S
H713 C722 0.929 . S
C714 H708 0.930 . S
C714 C715 1.367 . S
C714 C722 1.378 . S
C715 C714 1.367 . S
C715 C723 1.433 . S
C716 H712 0.929 . S
C716 C718 1.378 . S
C716 C720 1.350 . S
C717 C720 1.463 1_556 S
C717 C722 1.350 . S
C717 N725 1.427 . S
C718 H709 0.930 . S
C718 C716 1.378 . S
C718 C719 1.367 . S
C719 C718 1.367 . S
C719 C721 1.433 . S
C720 C716 1.350 . S
C720 C717 1.463 1_554 S
C720 N724 1.427 . S
C721 H711 0.929 . S
C721 C719 1.433 . S
C721 N724 1.384 . S
C722 H713 0.929 . S
C722 C714 1.378 . S
C722 C717 1.350 . S
C723 H710 0.929 . S
C723 C715 1.433 . S
C723 N725 1.384 . S
N724 C720 1.427 . S
N724 C721 1.384 . S
N725 C717 1.427 . S
N725 C723 1.384 . S
H726 C732 0.930 . S
H727 C736 0.930 . S
H728 C741 0.929 . S
H729 C739 0.929 . S
H730 C734 0.929 . S
H731 C740 0.929 . S
C732 H726 0.930 . S
C732 C733 1.367 . S
C732 C740 1.378 . S
C733 C732 1.367 . S
C733 C741 1.433 . S
C734 H730 0.929 . S
C734 C736 1.378 . S
C734 C738 1.350 . S
C735 C738 1.463 . S
C735 C740 1.350 . S
C735 N743 1.427 . S
C736 H727 0.930 . S
C736 C734 1.378 . S
C736 C737 1.367 . S
C737 C736 1.367 . S
C737 C739 1.433 . S
C738 C734 1.350 . S
C738 C735 1.463 . S
C738 N742 1.427 . S
C739 H729 0.929 . S
C739 C737 1.433 . S
C739 N742 1.384 . S
C740 H731 0.929 . S
C740 C732 1.378 . S
C740 C735 1.350 . S
C741 H728 0.929 . S
C741 C733 1.433 . S
C741 N743 1.384 . S
N742 C738 1.427 . S
N742 C739 1.384 . S
N743 C735 1.427 . S
N743 C741 1.384 . S
H744 C750 0.930 . S
H745 C754 0.930 . S
H746 C759 0.929 . S
H747 C757 0.929 . S
H748 C752 0.929 . S
H749 C758 0.929 . S
C750 H744 0.930 . S
C750 C751 1.367 . S
C750 C758 1.378 . S
C751 C750 1.367 . S
C751 C759 1.433 . S
C752 H748 0.929 . S
C752 C754 1.378 . S
C752 C756 1.350 . S
C753 C756 1.463 1_554 S
C753 C758 1.350 . S
C753 N761 1.427 . S
C754 H745 0.930 . S
C754 C752 1.378 . S
C754 C755 1.367 . S
C755 C754 1.367 . S
C755 C757 1.433 . S
C756 C752 1.350 . S
C756 C753 1.463 1_556 S
C756 N760 1.427 . S
C757 H747 0.929 . S
C757 C755 1.433 . S
C757 N760 1.384 . S
C758 H749 0.929 . S
C758 C750 1.378 . S
C758 C753 1.350 . S
C759 H746 0.929 . S
C759 C751 1.433 . S
C759 N761 1.384 . S
N760 C756 1.427 . S
N760 C757 1.384 . S
N761 C753 1.427 . S
N761 C759 1.384 . S
H762 C768 0.930 . S
H763 C772 0.930 . S
H764 C777 0.929 . S
H765 C775 0.929 . S
H766 C770 0.929 . S
H767 C776 0.929 . S
C768 H762 0.930 . S
C768 C769 1.367 . S
C768 C776 1.378 . S
C769 C768 1.367 . S
C769 C777 1.433 . S
C770 H766 0.929 . S
C770 C772 1.378 . S
C770 C774 1.350 . S
C771 C774 1.463 . S
C771 C776 1.350 . S
C771 N779 1.427 . S
C772 H763 0.930 . S
C772 C770 1.378 . S
C772 C773 1.367 . S
C773 C772 1.367 . S
C773 C775 1.433 . S
C774 C770 1.350 . S
C774 C771 1.463 . S
C774 N778 1.427 . S
C775 H765 0.929 . S
C775 C773 1.433 . S
C775 N778 1.384 . S
C776 H767 0.929 . S
C776 C768 1.378 . S
C776 C771 1.350 . S
C777 H764 0.929 . S
C777 C769 1.433 . S
C777 N779 1.384 . S
N778 C774 1.427 . S
N778 C775 1.384 . S
N779 C771 1.427 . S
N779 C777 1.384 . S
H780 C786 0.930 . S
H781 C790 0.930 . S
H782 C795 0.929 . S
H783 C793 0.929 . S
H784 C788 0.929 . S
H785 C794 0.929 . S
C786 H780 0.930 . S
C786 C787 1.367 . S
C786 C794 1.378 . S
C787 C786 1.367 . S
C787 C795 1.433 . S
C788 H784 0.929 . S
C788 C790 1.378 . S
C788 C792 1.350 . S
C789 C792 1.463 1_554 S
C789 C794 1.350 . S
C789 N797 1.427 . S
C790 H781 0.930 . S
C790 C788 1.378 . S
C790 C791 1.367 . S
C791 C790 1.367 . S
C791 C793 1.433 . S
C792 C788 1.350 . S
C792 C789 1.463 1_556 S
C792 N796 1.427 . S
C793 H783 0.929 . S
C793 C791 1.433 . S
C793 N796 1.384 . S
C794 H785 0.929 . S
C794 C786 1.378 . S
C794 C789 1.350 . S
C795 H782 0.929 . S
C795 C787 1.433 . S
C795 N797 1.384 . S
N796 C792 1.427 . S
N796 C793 1.384 . S
N797 C789 1.427 . S
N797 C795 1.384 . S
H798 C804 0.930 . S
H799 C808 0.930 . S
H800 C813 0.929 . S
H801 C811 0.929 . S
H802 C806 0.929 . S
H803 C812 0.929 . S
C804 H798 0.930 . S
C804 C805 1.367 . S
C804 C812 1.378 . S
C805 C804 1.367 . S
C805 C813 1.433 . S
C806 H802 0.929 . S
C806 C808 1.378 . S
C806 C810 1.350 . S
C807 C810 1.463 . S
C807 C812 1.350 . S
C807 N815 1.427 . S
C808 H799 0.930 . S
C808 C806 1.378 . S
C808 C809 1.367 . S
C809 C808 1.367 . S
C809 C811 1.433 . S
C810 C806 1.350 . S
C810 C807 1.463 . S
C810 N814 1.427 . S
C811 H801 0.929 . S
C811 C809 1.433 . S
C811 N814 1.384 . S
C812 H803 0.929 . S
C812 C804 1.378 . S
C812 C807 1.350 . S
C813 H800 0.929 . S
C813 C805 1.433 . S
C813 N815 1.384 . S
N814 C810 1.427 . S
N814 C811 1.384 . S
N815 C807 1.427 . S
N815 C813 1.384 . S
H816 C822 0.930 . S
H817 C826 0.930 . S
H818 C831 0.929 . S
H819 C829 0.929 . S
H820 C824 0.929 . S
H821 C830 0.929 . S
C822 H816 0.930 . S
C822 C823 1.367 . S
C822 C830 1.378 . S
C823 C822 1.367 . S
C823 C831 1.433 . S
C824 H820 0.929 . S
C824 C826 1.378 . S
C824 C828 1.350 . S
C825 C828 1.463 . S
C825 C830 1.350 . S
C825 N833 1.427 . S
C826 H817 0.930 . S
C826 C824 1.378 . S
C826 C827 1.367 . S
C827 C826 1.367 . S
C827 C829 1.433 . S
C828 C824 1.350 . S
C828 C825 1.463 . S
C828 N832 1.427 . S
C829 H819 0.929 . S
C829 C827 1.433 . S
C829 N832 1.384 . S
C830 H821 0.929 . S
C830 C822 1.378 . S
C830 C825 1.350 . S
C831 H818 0.929 . S
C831 C823 1.433 . S
C831 N833 1.384 . S
N832 C828 1.427 . S
N832 C829 1.384 . S
N833 C825 1.427 . S
N833 C831 1.384 . S
H834 C840 0.930 . S
H835 C844 0.930 . S
H836 C849 0.929 . S
H837 C847 0.929 . S
H838 C842 0.929 . S
H839 C848 0.929 . S
C840 H834 0.930 . S
C840 C841 1.367 . S
C840 C848 1.378 . S
C841 C840 1.367 . S
C841 C849 1.433 . S
C842 H838 0.929 . S
C842 C844 1.378 . S
C842 C846 1.350 . S
C843 C846 1.463 . S
C843 C848 1.350 . S
C843 N851 1.427 . S
C844 H835 0.930 . S
C844 C842 1.378 . S
C844 C845 1.367 . S
C845 C844 1.367 . S
C845 C847 1.433 . S
C846 C842 1.350 . S
C846 C843 1.463 . S
C846 N850 1.427 . S
C847 H837 0.929 . S
C847 C845 1.433 . S
C847 N850 1.384 . S
C848 H839 0.929 . S
C848 C840 1.378 . S
C848 C843 1.350 . S
C849 H836 0.929 . S
C849 C841 1.433 . S
C849 N851 1.384 . S
N850 C846 1.427 . S
N850 C847 1.384 . S
N851 C843 1.427 . S
N851 C849 1.384 . S
H852 C858 0.930 . S
H853 C862 0.930 . S
H854 C867 0.929 . S
H855 C865 0.929 . S
H856 C860 0.929 . S
H857 C866 0.929 . S
C858 H852 0.930 . S
C858 C859 1.367 . S
C858 C866 1.378 . S
C859 C858 1.367 . S
C859 C867 1.433 . S
C860 H856 0.929 . S
C860 C862 1.378 . S
C860 C864 1.350 . S
C861 C864 1.463 . S
C861 C866 1.350 . S
C861 N869 1.427 . S
C862 H853 0.930 . S
C862 C860 1.378 . S
C862 C863 1.367 . S
C863 C862 1.367 . S
C863 C865 1.433 . S
C864 C860 1.350 . S
C864 C861 1.463 . S
C864 N868 1.427 . S
C865 H855 0.929 . S
C865 C863 1.433 . S
C865 N868 1.384 . S
C866 H857 0.929 . S
C866 C858 1.378 . S
C866 C861 1.350 . S
C867 H854 0.929 . S
C867 C859 1.433 . S
C867 N869 1.384 . S
N868 C864 1.427 . S
N868 C865 1.384 . S
N869 C861 1.427 . S
N869 C867 1.384 . S
H870 C876 0.930 . S
H871 C880 0.930 . S
H872 C885 0.929 . S
H873 C883 0.929 . S
H874 C878 0.929 . S
H875 C884 0.929 . S
C876 H870 0.930 . S
C876 C877 1.367 . S
C876 C884 1.378 . S
C877 C876 1.367 . S
C877 C885 1.433 . S
C878 H874 0.929 . S
C878 C880 1.378 . S
C878 C882 1.350 . S
C879 C882 1.463 . S
C879 C884 1.350 . S
C879 N887 1.427 . S
C880 H871 0.930 . S
C880 C878 1.378 . S
C880 C881 1.367 . S
C881 C880 1.367 . S
C881 C883 1.433 . S
C882 C878 1.350 . S
C882 C879 1.463 . S
C882 N886 1.427 . S
C883 H873 0.929 . S
C883 C881 1.433 . S
C883 N886 1.384 . S
C884 H875 0.929 . S
C884 C876 1.378 . S
C884 C879 1.350 . S
C885 H872 0.929 . S
C885 C877 1.433 . S
C885 N887 1.384 . S
N886 C882 1.427 . S
N886 C883 1.384 . S
N887 C879 1.427 . S
N887 C885 1.384 . S
H888 C894 0.930 . S
H889 C898 0.930 . S
H890 C903 0.929 . S
H891 C901 0.929 . S
H892 C896 0.929 . S
H893 C902 0.929 . S
C894 H888 0.930 . S
C894 C895 1.367 . S
C894 C902 1.378 . S
C895 C894 1.367 . S
C895 C903 1.433 . S
C896 H892 0.929 . S
C896 C898 1.378 . S
C896 C900 1.350 . S
C897 C900 1.463 . S
C897 C902 1.350 . S
C897 N905 1.427 . S
C898 H889 0.930 . S
C898 C896 1.378 . S
C898 C899 1.367 . S
C899 C898 1.367 . S
C899 C901 1.433 . S
C900 C896 1.350 . S
C900 C897 1.463 . S
C900 N904 1.427 . S
C901 H891 0.929 . S
C901 C899 1.433 . S
C901 N904 1.384 . S
C902 H893 0.929 . S
C902 C894 1.378 . S
C902 C897 1.350 . S
C903 H890 0.929 . S
C903 C895 1.433 . S
C903 N905 1.384 . S
N904 C900 1.427 . S
N904 C901 1.384 . S
N905 C897 1.427 . S
N905 C903 1.384 . S
H906 C912 0.930 . S
H907 C916 0.930 . S
H908 C921 0.929 . S
H909 C919 0.929 . S
H910 C914 0.929 . S
H911 C920 0.929 . S
C912 H906 0.930 . S
C912 C913 1.367 . S
C912 C920 1.378 . S
C913 C912 1.367 . S
C913 C921 1.433 . S
C914 H910 0.929 . S
C914 C916 1.378 . S
C914 C918 1.350 . S
C915 C918 1.463 . S
C915 C920 1.350 . S
C915 N923 1.427 . S
C916 H907 0.930 . S
C916 C914 1.378 . S
C916 C917 1.367 . S
C917 C916 1.367 . S
C917 C919 1.433 . S
C918 C914 1.350 . S
C918 C915 1.463 . S
C918 N922 1.427 . S
C919 H909 0.929 . S
C919 C917 1.433 . S
C919 N922 1.384 . S
C920 H911 0.929 . S
C920 C912 1.378 . S
C920 C915 1.350 . S
C921 H908 0.929 . S
C921 C913 1.433 . S
C921 N923 1.384 . S
N922 C918 1.427 . S
N922 C919 1.384 . S
N923 C915 1.427 . S
N923 C921 1.384 . S
H924 C930 0.930 . S
H925 C934 0.930 . S
H926 C939 0.929 . S
H927 C937 0.929 . S
H928 C932 0.929 . S
H929 C938 0.929 . S
C930 H924 0.930 . S
C930 C931 1.367 . S
C930 C938 1.378 . S
C931 C930 1.367 . S
C931 C939 1.433 . S
C932 H928 0.929 . S
C932 C934 1.378 . S
C932 C936 1.350 . S
C933 C936 1.463 . S
C933 C938 1.350 . S
C933 N941 1.427 . S
C934 H925 0.930 . S
C934 C932 1.378 . S
C934 C935 1.367 . S
C935 C934 1.367 . S
C935 C937 1.433 . S
C936 C932 1.350 . S
C936 C933 1.463 . S
C936 N940 1.427 . S
C937 H927 0.929 . S
C937 C935 1.433 . S
C937 N940 1.384 . S
C938 H929 0.929 . S
C938 C930 1.378 . S
C938 C933 1.350 . S
C939 H926 0.929 . S
C939 C931 1.433 . S
C939 N941 1.384 . S
N940 C936 1.427 . S
N940 C937 1.384 . S
N941 C933 1.427 . S
N941 C939 1.384 . S
H942 C948 0.930 . S
H943 C952 0.930 . S
H944 C957 0.929 . S
H945 C955 0.929 . S
H946 C950 0.929 . S
H947 C956 0.929 . S
C948 H942 0.930 . S
C948 C949 1.367 . S
C948 C956 1.378 . S
C949 C948 1.367 . S
C949 C957 1.433 . S
C950 H946 0.929 . S
C950 C952 1.378 . S
C950 C954 1.350 . S
C951 C954 1.463 . S
C951 C956 1.350 . S
C951 N959 1.427 . S
C952 H943 0.930 . S
C952 C950 1.378 . S
C952 C953 1.367 . S
C953 C952 1.367 . S
C953 C955 1.433 . S
C954 C950 1.350 . S
C954 C951 1.463 . S
C954 N958 1.427 . S
C955 H945 0.929 . S
C955 C953 1.433 . S
C955 N958 1.384 . S
C956 H947 0.929 . S
C956 C948 1.378 . S
C956 C951 1.350 . S
C957 H944 0.929 . S
C957 C949 1.433 . S
C957 N959 1.384 . S
N958 C954 1.427 . S
N958 C955 1.384 . S
N959 C951 1.427 . S
N959 C957 1.384 . S
H960 C966 0.930 . S
H961 C970 0.930 . S
H962 C975 0.929 . S
H963 C973 0.929 . S
H964 C968 0.929 . S
H965 C974 0.929 . S
C966 H960 0.930 . S
C966 C967 1.367 . S
C966 C974 1.378 . S
C967 C966 1.367 . S
C967 C975 1.433 . S
C968 H964 0.929 . S
C968 C970 1.378 . S
C968 C972 1.350 . S
C969 C972 1.463 . S
C969 C974 1.350 . S
C969 N977 1.427 . S
C970 H961 0.930 . S
C970 C968 1.378 . S
C970 C971 1.367 . S
C971 C970 1.367 . S
C971 C973 1.433 . S
C972 C968 1.350 . S
C972 C969 1.463 . S
C972 N976 1.427 . S
C973 H963 0.929 . S
C973 C971 1.433 . S
C973 N976 1.384 . S
C974 H965 0.929 . S
C974 C966 1.378 . S
C974 C969 1.350 . S
C975 H962 0.929 . S
C975 C967 1.433 . S
C975 N977 1.384 . S
N976 C972 1.427 . S
N976 C973 1.384 . S
N977 C969 1.427 . S
N977 C975 1.384 . S
H978 C984 0.930 . S
H979 C988 0.930 . S
H980 C993 0.929 . S
H981 C991 0.929 . S
H982 C986 0.929 . S
H983 C992 0.929 . S
C984 H978 0.930 . S
C984 C985 1.367 . S
C984 C992 1.378 . S
C985 C984 1.367 . S
C985 C993 1.433 . S
C986 H982 0.929 . S
C986 C988 1.378 . S
C986 C990 1.350 . S
C987 C990 1.463 . S
C987 C992 1.350 . S
C987 N995 1.427 . S
C988 H979 0.930 . S
C988 C986 1.378 . S
C988 C989 1.367 . S
C989 C988 1.367 . S
C989 C991 1.433 . S
C990 C986 1.350 . S
C990 C987 1.463 . S
C990 N994 1.427 . S
C991 H981 0.929 . S
C991 C989 1.433 . S
C991 N994 1.384 . S
C992 H983 0.929 . S
C992 C984 1.378 . S
C992 C987 1.350 . S
C993 H980 0.929 . S
C993 C985 1.433 . S
C993 N995 1.384 . S
N994 C990 1.427 . S
N994 C991 1.384 . S
N995 C987 1.427 . S
N995 C993 1.384 . S
H996 C1002 0.930 . S
H997 C1006 0.930 . S
H998 C1011 0.929 . S
H999 C1009 0.929 . S
H1000 C1004 0.929 . S
H1001 C1010 0.929 . S
C1002 H996 0.930 . S
C1002 C1003 1.367 . S
C1002 C1010 1.378 . S
C1003 C1002 1.367 . S
C1003 C1011 1.433 . S
C1004 H1000 0.929 . S
C1004 C1006 1.378 . S
C1004 C1008 1.350 . S
C1005 C1008 1.463 . S
C1005 C1010 1.350 . S
C1005 N1013 1.427 . S
C1006 H997 0.930 . S
C1006 C1004 1.378 . S
C1006 C1007 1.367 . S
C1007 C1006 1.367 . S
C1007 C1009 1.433 . S
C1008 C1004 1.350 . S
C1008 C1005 1.463 . S
C1008 N1012 1.427 . S
C1009 H999 0.929 . S
C1009 C1007 1.433 . S
C1009 N1012 1.384 . S
C1010 H1001 0.929 . S
C1010 C1002 1.378 . S
C1010 C1005 1.350 . S
C1011 H998 0.929 . S
C1011 C1003 1.433 . S
C1011 N1013 1.384 . S
N1012 C1008 1.427 . S
N1012 C1009 1.384 . S
N1013 C1005 1.427 . S
N1013 C1011 1.384 . S
H1014 C1020 0.930 . S
H1015 C1024 0.930 . S
H1016 C1029 0.929 . S
H1017 C1027 0.929 . S
H1018 C1022 0.929 . S
H1019 C1028 0.929 . S
C1020 H1014 0.930 . S
C1020 C1021 1.367 . S
C1020 C1028 1.378 . S
C1021 C1020 1.367 . S
C1021 C1029 1.433 . S
C1022 H1018 0.929 . S
C1022 C1024 1.378 . S
C1022 C1026 1.350 . S
C1023 C1026 1.463 . S
C1023 C1028 1.350 . S
C1023 N1031 1.427 . S
C1024 H1015 0.930 . S
C1024 C1022 1.378 . S
C1024 C1025 1.367 . S
C1025 C1024 1.367 . S
C1025 C1027 1.433 . S
C1026 C1022 1.350 . S
C1026 C1023 1.463 . S
C1026 N1030 1.427 . S
C1027 H1017 0.929 . S
C1027 C1025 1.433 . S
C1027 N1030 1.384 . S
C1028 H1019 0.929 . S
C1028 C1020 1.378 . S
C1028 C1023 1.350 . S
C1029 H1016 0.929 . S
C1029 C1021 1.433 . S
C1029 N1031 1.384 . S
N1030 C1026 1.427 . S
N1030 C1027 1.384 . S
N1031 C1023 1.427 . S
N1031 C1029 1.384 . S
H1032 C1038 0.930 . S
H1033 C1042 0.930 . S
H1034 C1047 0.929 . S
H1035 C1045 0.929 . S
H1036 C1040 0.929 . S
H1037 C1046 0.929 . S
C1038 H1032 0.930 . S
C1038 C1039 1.367 . S
C1038 C1046 1.378 . S
C1039 C1038 1.367 . S
C1039 C1047 1.433 . S
C1040 H1036 0.929 . S
C1040 C1042 1.378 . S
C1040 C1044 1.350 . S
C1041 C1044 1.463 . S
C1041 C1046 1.350 . S
C1041 N1049 1.427 . S
C1042 H1033 0.930 . S
C1042 C1040 1.378 . S
C1042 C1043 1.367 . S
C1043 C1042 1.367 . S
C1043 C1045 1.433 . S
C1044 C1040 1.350 . S
C1044 C1041 1.463 . S
C1044 N1048 1.427 . S
C1045 H1035 0.929 . S
C1045 C1043 1.433 . S
C1045 N1048 1.384 . S
C1046 H1037 0.929 . S
C1046 C1038 1.378 . S
C1046 C1041 1.350 . S
C1047 H1034 0.929 . S
C1047 C1039 1.433 . S
C1047 N1049 1.384 . S
N1048 C1044 1.427 . S
N1048 C1045 1.384 . S
N1049 C1041 1.427 . S
N1049 C1047 1.384 . S
H1050 C1056 0.930 . S
H1051 C1060 0.930 . S
H1052 C1065 0.929 . S
H1053 C1063 0.929 . S
H1054 C1058 0.929 . S
H1055 C1064 0.929 . S
C1056 H1050 0.930 . S
C1056 C1057 1.367 . S
C1056 C1064 1.378 . S
C1057 C1056 1.367 . S
C1057 C1065 1.433 . S
C1058 H1054 0.929 . S
C1058 C1060 1.378 . S
C1058 C1062 1.350 . S
C1059 C1062 1.463 . S
C1059 C1064 1.350 . S
C1059 N1067 1.427 . S
C1060 H1051 0.930 . S
C1060 C1058 1.378 . S
C1060 C1061 1.367 . S
C1061 C1060 1.367 . S
C1061 C1063 1.433 . S
C1062 C1058 1.350 . S
C1062 C1059 1.463 . S
C1062 N1066 1.427 . S
C1063 H1053 0.929 . S
C1063 C1061 1.433 . S
C1063 N1066 1.384 . S
C1064 H1055 0.929 . S
C1064 C1056 1.378 . S
C1064 C1059 1.350 . S
C1065 H1052 0.929 . S
C1065 C1057 1.433 . S
C1065 N1067 1.384 . S
N1066 C1062 1.427 . S
N1066 C1063 1.384 . S
N1067 C1059 1.427 . S
N1067 C1065 1.384 . S
H1068 C1074 0.930 . S
H1069 C1078 0.930 . S
H1070 C1083 0.929 . S
H1071 C1081 0.929 . S
H1072 C1076 0.929 . S
H1073 C1082 0.929 . S
C1074 H1068 0.930 . S
C1074 C1075 1.367 . S
C1074 C1082 1.378 . S
C1075 C1074 1.367 . S
C1075 C1083 1.433 . S
C1076 H1072 0.929 . S
C1076 C1078 1.378 . S
C1076 C1080 1.350 . S
C1077 C1080 1.463 . S
C1077 C1082 1.350 . S
C1077 N1085 1.427 . S
C1078 H1069 0.930 . S
C1078 C1076 1.378 . S
C1078 C1079 1.367 . S
C1079 C1078 1.367 . S
C1079 C1081 1.433 . S
C1080 C1076 1.350 . S
C1080 C1077 1.463 . S
C1080 N1084 1.427 . S
C1081 H1071 0.929 . S
C1081 C1079 1.433 . S
C1081 N1084 1.384 . S
C1082 H1073 0.929 . S
C1082 C1074 1.378 . S
C1082 C1077 1.350 . S
C1083 H1070 0.929 . S
C1083 C1075 1.433 . S
C1083 N1085 1.384 . S
N1084 C1080 1.427 . S
N1084 C1081 1.384 . S
N1085 C1077 1.427 . S
N1085 C1083 1.384 . S
H1086 C1092 0.930 . S
H1087 C1096 0.930 . S
H1088 C1101 0.929 . S
H1089 C1099 0.929 . S
H1090 C1094 0.929 . S
H1091 C1100 0.929 . S
C1092 H1086 0.930 . S
C1092 C1093 1.367 . S
C1092 C1100 1.378 . S
C1093 C1092 1.367 . S
C1093 C1101 1.433 . S
C1094 H1090 0.929 . S
C1094 C1096 1.378 . S
C1094 C1098 1.350 . S
C1095 C1098 1.463 . S
C1095 C1100 1.350 . S
C1095 N1103 1.427 . S
C1096 H1087 0.930 . S
C1096 C1094 1.378 . S
C1096 C1097 1.367 . S
C1097 C1096 1.367 . S
C1097 C1099 1.433 . S
C1098 C1094 1.350 . S
C1098 C1095 1.463 . S
C1098 N1102 1.427 . S
C1099 H1089 0.929 . S
C1099 C1097 1.433 . S
C1099 N1102 1.384 . S
C1100 H1091 0.929 . S
C1100 C1092 1.378 . S
C1100 C1095 1.350 . S
C1101 H1088 0.929 . S
C1101 C1093 1.433 . S
C1101 N1103 1.384 . S
N1102 C1098 1.427 . S
N1102 C1099 1.384 . S
N1103 C1095 1.427 . S
N1103 C1101 1.384 . S
H1104 C1110 0.930 . S
H1105 C1114 0.930 . S
H1106 C1119 0.929 . S
H1107 C1117 0.929 . S
H1108 C1112 0.929 . S
H1109 C1118 0.929 . S
C1110 H1104 0.930 . S
C1110 C1111 1.367 . S
C1110 C1118 1.378 . S
C1111 C1110 1.367 . S
C1111 C1119 1.433 . S
C1112 H1108 0.929 . S
C1112 C1114 1.378 . S
C1112 C1116 1.350 . S
C1113 C1116 1.463 . S
C1113 C1118 1.350 . S
C1113 N1121 1.427 . S
C1114 H1105 0.930 . S
C1114 C1112 1.378 . S
C1114 C1115 1.367 . S
C1115 C1114 1.367 . S
C1115 C1117 1.433 . S
C1116 C1112 1.350 . S
C1116 C1113 1.463 . S
C1116 N1120 1.427 . S
C1117 H1107 0.929 . S
C1117 C1115 1.433 . S
C1117 N1120 1.384 . S
C1118 H1109 0.929 . S
C1118 C1110 1.378 . S
C1118 C1113 1.350 . S
C1119 H1106 0.929 . S
C1119 C1111 1.433 . S
C1119 N1121 1.384 . S
N1120 C1116 1.427 . S
N1120 C1117 1.384 . S
N1121 C1113 1.427 . S
N1121 C1119 1.384 . S
H1122 C1128 0.930 . S
H1123 C1132 0.930 . S
H1124 C1137 0.929 . S
H1125 C1135 0.929 . S
H1126 C1130 0.929 . S
H1127 C1136 0.929 . S
C1128 H1122 0.930 . S
C1128 C1129 1.367 . S
C1128 C1136 1.378 . S
C1129 C1128 1.367 . S
C1129 C1137 1.433 . S
C1130 H1126 0.929 . S
C1130 C1132 1.378 . S
C1130 C1134 1.350 . S
C1131 C1134 1.463 . S
C1131 C1136 1.350 . S
C1131 N1139 1.427 . S
C1132 H1123 0.930 . S
C1132 C1130 1.378 . S
C1132 C1133 1.367 . S
C1133 C1132 1.367 . S
C1133 C1135 1.433 . S
C1134 C1130 1.350 . S
C1134 C1131 1.463 . S
C1134 N1138 1.427 . S
C1135 H1125 0.929 . S
C1135 C1133 1.433 . S
C1135 N1138 1.384 . S
C1136 H1127 0.929 . S
C1136 C1128 1.378 . S
C1136 C1131 1.350 . S
C1137 H1124 0.929 . S
C1137 C1129 1.433 . S
C1137 N1139 1.384 . S
N1138 C1134 1.427 . S
N1138 C1135 1.384 . S
N1139 C1131 1.427 . S
N1139 C1137 1.384 . S
H1140 C1146 0.930 . S
H1141 C1150 0.930 . S
H1142 C1155 0.929 . S
H1143 C1153 0.929 . S
H1144 C1148 0.929 . S
H1145 C1154 0.929 . S
C1146 H1140 0.930 . S
C1146 C1147 1.367 . S
C1146 C1154 1.378 . S
C1147 C1146 1.367 . S
C1147 C1155 1.433 . S
C1148 H1144 0.929 . S
C1148 C1150 1.378 . S
C1148 C1152 1.350 . S
C1149 C1152 1.463 . S
C1149 C1154 1.350 . S
C1149 N1157 1.427 . S
C1150 H1141 0.930 . S
C1150 C1148 1.378 . S
C1150 C1151 1.367 . S
C1151 C1150 1.367 . S
C1151 C1153 1.433 . S
C1152 C1148 1.350 . S
C1152 C1149 1.463 . S
C1152 N1156 1.427 . S
C1153 H1143 0.929 . S
C1153 C1151 1.433 . S
C1153 N1156 1.384 . S
C1154 H1145 0.929 . S
C1154 C1146 1.378 . S
C1154 C1149 1.350 . S
C1155 H1142 0.929 . S
C1155 C1147 1.433 . S
C1155 N1157 1.384 . S
N1156 C1152 1.427 . S
N1156 C1153 1.384 . S
N1157 C1149 1.427 . S
N1157 C1155 1.384 . S
H1158 C1164 0.930 . S
H1159 C1168 0.930 . S
H1160 C1173 0.929 . S
H1161 C1171 0.929 . S
H1162 C1166 0.929 . S
H1163 C1172 0.929 . S
C1164 H1158 0.930 . S
C1164 C1165 1.367 . S
C1164 C1172 1.378 . S
C1165 C1164 1.367 . S
C1165 C1173 1.433 . S
C1166 H1162 0.929 . S
C1166 C1168 1.378 . S
C1166 C1170 1.350 . S
C1167 C1170 1.463 . S
C1167 C1172 1.350 . S
C1167 N1175 1.427 . S
C1168 H1159 0.930 . S
C1168 C1166 1.378 . S
C1168 C1169 1.367 . S
C1169 C1168 1.367 . S
C1169 C1171 1.433 . S
C1170 C1166 1.350 . S
C1170 C1167 1.463 . S
C1170 N1174 1.427 . S
C1171 H1161 0.929 . S
C1171 C1169 1.433 . S
C1171 N1174 1.384 . S
C1172 H1163 0.929 . S
C1172 C1164 1.378 . S
C1172 C1167 1.350 . S
C1173 H1160 0.929 . S
C1173 C1165 1.433 . S
C1173 N1175 1.384 . S
N1174 C1170 1.427 . S
N1174 C1171 1.384 . S
N1175 C1167 1.427 . S
N1175 C1173 1.384 . S
H1176 C1182 0.930 . S
H1177 C1186 0.930 . S
H1178 C1191 0.929 . S
H1179 C1189 0.929 . S
H1180 C1184 0.929 . S
H1181 C1190 0.929 . S
C1182 H1176 0.930 . S
C1182 C1183 1.367 . S
C1182 C1190 1.378 . S
C1183 C1182 1.367 . S
C1183 C1191 1.433 . S
C1184 H1180 0.929 . S
C1184 C1186 1.378 . S
C1184 C1188 1.350 . S
C1185 C1188 1.463 . S
C1185 C1190 1.350 . S
C1185 N1193 1.427 . S
C1186 H1177 0.930 . S
C1186 C1184 1.378 . S
C1186 C1187 1.367 . S
C1187 C1186 1.367 . S
C1187 C1189 1.433 . S
C1188 C1184 1.350 . S
C1188 C1185 1.463 . S
C1188 N1192 1.427 . S
C1189 H1179 0.929 . S
C1189 C1187 1.433 . S
C1189 N1192 1.384 . S
C1190 H1181 0.929 . S
C1190 C1182 1.378 . S
C1190 C1185 1.350 . S
C1191 H1178 0.929 . S
C1191 C1183 1.433 . S
C1191 N1193 1.384 . S
N1192 C1188 1.427 . S
N1192 C1189 1.384 . S
N1193 C1185 1.427 . S
N1193 C1191 1.384 . S
H1194 C1200 0.930 . S
H1195 C1204 0.930 . S
H1196 C1209 0.929 . S
H1197 C1207 0.929 . S
H1198 C1202 0.929 . S
H1199 C1208 0.929 . S
C1200 H1194 0.930 . S
C1200 C1201 1.367 . S
C1200 C1208 1.378 . S
C1201 C1200 1.367 . S
C1201 C1209 1.433 . S
C1202 H1198 0.929 . S
C1202 C1204 1.378 . S
C1202 C1206 1.350 . S
C1203 C1206 1.463 . S
C1203 C1208 1.350 . S
C1203 N1211 1.427 . S
C1204 H1195 0.930 . S
C1204 C1202 1.378 . S
C1204 C1205 1.367 . S
C1205 C1204 1.367 . S
C1205 C1207 1.433 . S
C1206 C1202 1.350 . S
C1206 C1203 1.463 . S
C1206 N1210 1.427 . S
C1207 H1197 0.929 . S
C1207 C1205 1.433 . S
C1207 N1210 1.384 . S
C1208 H1199 0.929 . S
C1208 C1200 1.378 . S
C1208 C1203 1.350 . S
C1209 H1196 0.929 . S
C1209 C1201 1.433 . S
C1209 N1211 1.384 . S
N1210 C1206 1.427 . S
N1210 C1207 1.384 . S
N1211 C1203 1.427 . S
N1211 C1209 1.384 . S
H1212 C1218 0.930 . S
H1213 C1222 0.930 . S
H1214 C1227 0.929 . S
H1215 C1225 0.929 . S
H1216 C1220 0.929 . S
H1217 C1226 0.929 . S
C1218 H1212 0.930 . S
C1218 C1219 1.367 . S
C1218 C1226 1.378 . S
C1219 C1218 1.367 . S
C1219 C1227 1.433 . S
C1220 H1216 0.929 . S
C1220 C1222 1.378 . S
C1220 C1224 1.350 . S
C1221 C1224 1.463 . S
C1221 C1226 1.350 . S
C1221 N1229 1.427 . S
C1222 H1213 0.930 . S
C1222 C1220 1.378 . S
C1222 C1223 1.367 . S
C1223 C1222 1.367 . S
C1223 C1225 1.433 . S
C1224 C1220 1.350 . S
C1224 C1221 1.463 . S
C1224 N1228 1.427 . S
C1225 H1215 0.929 . S
C1225 C1223 1.433 . S
C1225 N1228 1.384 . S
C1226 H1217 0.929 . S
C1226 C1218 1.378 . S
C1226 C1221 1.350 . S
C1227 H1214 0.929 . S
C1227 C1219 1.433 . S
C1227 N1229 1.384 . S
N1228 C1224 1.427 . S
N1228 C1225 1.384 . S
N1229 C1221 1.427 . S
N1229 C1227 1.384 . S
H1230 C1236 0.930 . S
H1231 C1240 0.930 . S
H1232 C1245 0.929 . S
H1233 C1243 0.929 . S
H1234 C1238 0.929 . S
H1235 C1244 0.929 . S
C1236 H1230 0.930 . S
C1236 C1237 1.367 . S
C1236 C1244 1.378 . S
C1237 C1236 1.367 . S
C1237 C1245 1.433 . S
C1238 H1234 0.929 . S
C1238 C1240 1.378 . S
C1238 C1242 1.350 . S
C1239 C1242 1.463 . S
C1239 C1244 1.350 . S
C1239 N1247 1.427 . S
C1240 H1231 0.930 . S
C1240 C1238 1.378 . S
C1240 C1241 1.367 . S
C1241 C1240 1.367 . S
C1241 C1243 1.433 . S
C1242 C1238 1.350 . S
C1242 C1239 1.463 . S
C1242 N1246 1.427 . S
C1243 H1233 0.929 . S
C1243 C1241 1.433 . S
C1243 N1246 1.384 . S
C1244 H1235 0.929 . S
C1244 C1236 1.378 . S
C1244 C1239 1.350 . S
C1245 H1232 0.929 . S
C1245 C1237 1.433 . S
C1245 N1247 1.384 . S
N1246 C1242 1.427 . S
N1246 C1243 1.384 . S
N1247 C1239 1.427 . S
N1247 C1245 1.384 . S
C535 C8 2.279 . S
C539 C74 2.275 . S
C553 C107 2.277 . S
C557 C41 2.277 . S
C571 C206 2.279 . S
C575 C140 2.275 . S
C589 C173 2.278 . S
C593 C239 2.276 . S
C607 C338 2.276 . S
C611 C272 2.278 . S
C625 C305 2.279 . S
C629 C371 2.276 . S
C643 C470 2.275 . S
C647 C404 2.280 . S
C661 C437 2.279 . S
C665 C503 2.276 . S
C679 C17 1.522 . S
C683 C347 1.517 . S
C697 C380 1.519 . S
C701 C50 1.520 . S
C715 C281 1.515 . S
C719 C83 1.523 . S
C733 C314 1.519 . S
C737 C116 1.520 . S
C751 C479 1.523 . S
C755 C149 1.515 . S
C769 C512 1.521 . S
C773 C182 1.518 . S
C787 C413 1.515 . S
C791 C215 1.523 . S
C805 C446 1.517 . S
C809 C248 1.521 . S
C823 C28 1.043 . S
C827 C259 1.053 . S
C841 C61 1.052 . S
C845 C160 1.045 . S
C859 C193 1.048 . S
C863 C94 1.050 . S
C877 C226 1.044 . S
C881 C127 1.051 . S
C895 C292 1.052 . S
C899 C523 1.045 . S
C913 C325 1.044 . S
C917 C424 1.053 . S
C931 C358 1.050 . S
C935 C457 1.045 . S
C949 C391 1.044 . S
C953 C490 1.053 . S
C967 N476 1.000 . S
C971 N5 1.026 . S
C985 N38 1.025 . S
C989 N509 1.016 . S
C1003 N410 1.007 . S
C1007 N71 1.033 . S
C1021 N443 1.010 . S
C1025 N104 1.032 . S
C1039 N344 1.001 . S
C1043 N137 1.026 . S
C1057 N170 1.028 . S
C1061 N377 0.997 . S
C1075 N278 1.016 . S
C1079 N203 1.026 . S
C1093 N236 1.032 . S
C1097 N311 0.996 . S
C1111 N212 1.002 . S
C1115 N269 1.026 . S
C1129 N245 0.998 . S
C1133 N302 1.033 . S
C1147 N146 1.002 . S
C1151 N335 1.026 . S
C1165 N368 1.032 . S
C1169 N179 1.010 . S
C1183 N80 1.011 . S
C1187 N401 1.024 . S
C1201 N434 1.024 . S
C1205 N113 1.011 . S
C1219 N467 1.025 . S
C1223 N14 1.016 . S
C1237 N47 1.009 . S
C1241 N500 1.024 . S
