# Generated by pormake.
# Topology thp-x, (12)-cn, num edge types: 1
# Building blocks:
#     Node 0, Type 0, BuildingBlock: ENOWUB_clean_sbu_0, # of connection points: 12
#     Node 1, Type 0, BuildingBlock: ENOWUB_clean_sbu_0, # of connection points: 12
#     Node 2, Type 0, BuildingBlock: ENOWUB_clean_sbu_0, # of connection points: 12
#     Node 3, Type 0, BuildingBlock: ENOWUB_clean_sbu_0, # of connection points: 12
#     Node 4, Type 0, BuildingBlock: ENOWUB_clean_sbu_0, # of connection points: 12
#     Node 5, Type 0, BuildingBlock: ENOWUB_clean_sbu_0, # of connection points: 12
#     Node 6, Type 0, BuildingBlock: ENOWUB_clean_sbu_0, # of connection points: 12
#     Node 7, Type 0, BuildingBlock: ENOWUB_clean_sbu_0, # of connection points: 12
#     Node 8, Type 0, BuildingBlock: ENOWUB_clean_sbu_0, # of connection points: 12
#     Node 9, Type 0, BuildingBlock: ENOWUB_clean_sbu_0, # of connection points: 12
#     Node 10, Type 0, BuildingBlock: ENOWUB_clean_sbu_0, # of connection points: 12
#     Node 11, Type 0, BuildingBlock: ENOWUB_clean_sbu_0, # of connection points: 12
#     Edge 12, Type (0, 0), BuildingBlock: UVAHIK_clean_linker_0, # of connection points: 2
#     Edge 13, Type (0, 0), BuildingBlock: UVAHIK_clean_linker_0, # of connection points: 2
#     Edge 14, Type (0, 0), BuildingBlock: UVAHIK_clean_linker_0, # of connection points: 2
#     Edge 15, Type (0, 0), BuildingBlock: UVAHIK_clean_linker_0, # of connection points: 2
#     Edge 16, Type (0, 0), BuildingBlock: UVAHIK_clean_linker_0, # of connection points: 2
#     Edge 17, Type (0, 0), BuildingBlock: UVAHIK_clean_linker_0, # of connection points: 2
#     Edge 18, Type (0, 0), BuildingBlock: UVAHIK_clean_linker_0, # of connection points: 2
#     Edge 19, Type (0, 0), BuildingBlock: UVAHIK_clean_linker_0, # of connection points: 2
#     Edge 20, Type (0, 0), BuildingBlock: UVAHIK_clean_linker_0, # of connection points: 2
#     Edge 21, Type (0, 0), BuildingBlock: UVAHIK_clean_linker_0, # of connection points: 2
#     Edge 22, Type (0, 0), BuildingBlock: UVAHIK_clean_linker_0, # of connection points: 2
#     Edge 23, Type (0, 0), BuildingBlock: UVAHIK_clean_linker_0, # of connection points: 2
#     Edge 24, Type (0, 0), BuildingBlock: UVAHIK_clean_linker_0, # of connection points: 2
#     Edge 25, Type (0, 0), BuildingBlock: UVAHIK_clean_linker_0, # of connection points: 2
#     Edge 26, Type (0, 0), BuildingBlock: UVAHIK_clean_linker_0, # of connection points: 2
#     Edge 27, Type (0, 0), BuildingBlock: UVAHIK_clean_linker_0, # of connection points: 2
#     Edge 28, Type (0, 0), BuildingBlock: UVAHIK_clean_linker_0, # of connection points: 2
#     Edge 29, Type (0, 0), BuildingBlock: UVAHIK_clean_linker_0, # of connection points: 2
#     Edge 30, Type (0, 0), BuildingBlock: UVAHIK_clean_linker_0, # of connection points: 2
#     Edge 31, Type (0, 0), BuildingBlock: UVAHIK_clean_linker_0, # of connection points: 2
#     Edge 32, Type (0, 0), BuildingBlock: UVAHIK_clean_linker_0, # of connection points: 2
#     Edge 33, Type (0, 0), BuildingBlock: UVAHIK_clean_linker_0, # of connection points: 2
#     Edge 34, Type (0, 0), BuildingBlock: UVAHIK_clean_linker_0, # of connection points: 2
#     Edge 35, Type (0, 0), BuildingBlock: UVAHIK_clean_linker_0, # of connection points: 2
#     Edge 36, Type (0, 0), BuildingBlock: UVAHIK_clean_linker_0, # of connection points: 2
#     Edge 37, Type (0, 0), BuildingBlock: UVAHIK_clean_linker_0, # of connection points: 2
#     Edge 38, Type (0, 0), BuildingBlock: UVAHIK_clean_linker_0, # of connection points: 2
#     Edge 39, Type (0, 0), BuildingBlock: UVAHIK_clean_linker_0, # of connection points: 2
#     Edge 40, Type (0, 0), BuildingBlock: UVAHIK_clean_linker_0, # of connection points: 2
#     Edge 41, Type (0, 0), BuildingBlock: UVAHIK_clean_linker_0, # of connection points: 2
#     Edge 42, Type (0, 0), BuildingBlock: UVAHIK_clean_linker_0, # of connection points: 2
#     Edge 43, Type (0, 0), BuildingBlock: UVAHIK_clean_linker_0, # of connection points: 2
#     Edge 44, Type (0, 0), BuildingBlock: UVAHIK_clean_linker_0, # of connection points: 2
#     Edge 45, Type (0, 0), BuildingBlock: UVAHIK_clean_linker_0, # of connection points: 2
#     Edge 46, Type (0, 0), BuildingBlock: UVAHIK_clean_linker_0, # of connection points: 2
#     Edge 47, Type (0, 0), BuildingBlock: UVAHIK_clean_linker_0, # of connection points: 2
#     Edge 48, Type (0, 0), BuildingBlock: UVAHIK_clean_linker_0, # of connection points: 2
#     Edge 49, Type (0, 0), BuildingBlock: UVAHIK_clean_linker_0, # of connection points: 2
#     Edge 50, Type (0, 0), BuildingBlock: UVAHIK_clean_linker_0, # of connection points: 2
#     Edge 51, Type (0, 0), BuildingBlock: UVAHIK_clean_linker_0, # of connection points: 2
#     Edge 52, Type (0, 0), BuildingBlock: UVAHIK_clean_linker_0, # of connection points: 2
#     Edge 53, Type (0, 0), BuildingBlock: UVAHIK_clean_linker_0, # of connection points: 2
#     Edge 54, Type (0, 0), BuildingBlock: UVAHIK_clean_linker_0, # of connection points: 2
#     Edge 55, Type (0, 0), BuildingBlock: UVAHIK_clean_linker_0, # of connection points: 2
#     Edge 56, Type (0, 0), BuildingBlock: UVAHIK_clean_linker_0, # of connection points: 2
#     Edge 57, Type (0, 0), BuildingBlock: UVAHIK_clean_linker_0, # of connection points: 2
#     Edge 58, Type (0, 0), BuildingBlock: UVAHIK_clean_linker_0, # of connection points: 2
#     Edge 59, Type (0, 0), BuildingBlock: UVAHIK_clean_linker_0, # of connection points: 2
#     Edge 60, Type (0, 0), BuildingBlock: UVAHIK_clean_linker_0, # of connection points: 2
#     Edge 61, Type (0, 0), BuildingBlock: UVAHIK_clean_linker_0, # of connection points: 2
#     Edge 62, Type (0, 0), BuildingBlock: UVAHIK_clean_linker_0, # of connection points: 2
#     Edge 63, Type (0, 0), BuildingBlock: UVAHIK_clean_linker_0, # of connection points: 2
#     Edge 64, Type (0, 0), BuildingBlock: UVAHIK_clean_linker_0, # of connection points: 2
#     Edge 65, Type (0, 0), BuildingBlock: UVAHIK_clean_linker_0, # of connection points: 2
#     Edge 66, Type (0, 0), BuildingBlock: UVAHIK_clean_linker_0, # of connection points: 2
#     Edge 67, Type (0, 0), BuildingBlock: UVAHIK_clean_linker_0, # of connection points: 2
#     Edge 68, Type (0, 0), BuildingBlock: UVAHIK_clean_linker_0, # of connection points: 2
#     Edge 69, Type (0, 0), BuildingBlock: UVAHIK_clean_linker_0, # of connection points: 2
#     Edge 70, Type (0, 0), BuildingBlock: UVAHIK_clean_linker_0, # of connection points: 2
#     Edge 71, Type (0, 0), BuildingBlock: UVAHIK_clean_linker_0, # of connection points: 2
#     Edge 72, Type (0, 0), BuildingBlock: UVAHIK_clean_linker_0, # of connection points: 2
#     Edge 73, Type (0, 0), BuildingBlock: UVAHIK_clean_linker_0, # of connection points: 2
#     Edge 74, Type (0, 0), BuildingBlock: UVAHIK_clean_linker_0, # of connection points: 2
#     Edge 75, Type (0, 0), BuildingBlock: UVAHIK_clean_linker_0, # of connection points: 2
#     Edge 76, Type (0, 0), BuildingBlock: UVAHIK_clean_linker_0, # of connection points: 2
#     Edge 77, Type (0, 0), BuildingBlock: UVAHIK_clean_linker_0, # of connection points: 2
#     Edge 78, Type (0, 0), BuildingBlock: UVAHIK_clean_linker_0, # of connection points: 2
#     Edge 79, Type (0, 0), BuildingBlock: UVAHIK_clean_linker_0, # of connection points: 2
#     Edge 80, Type (0, 0), BuildingBlock: UVAHIK_clean_linker_0, # of connection points: 2
#     Edge 81, Type (0, 0), BuildingBlock: UVAHIK_clean_linker_0, # of connection points: 2
#     Edge 82, Type (0, 0), BuildingBlock: UVAHIK_clean_linker_0, # of connection points: 2
#     Edge 83, Type (0, 0), BuildingBlock: UVAHIK_clean_linker_0, # of connection points: 2
# Relax obj value: 0.246
# Max RMSD: 0.289
# Mean RMSD: 0.289
data_MOF--net-thp-x--node1-ENOWUB_clean_sbu_0--edge1-UVAHIK_clean_linker_0
_symmetry_space_group_name_H-M    P1
_symmetry_Int_Tables_number       1
_symmetry_cell_setting            triclinic
loop_
_symmetry_equiv_pos_as_xyz
'x, y, z'
_cell_length_a     42.954538
_cell_length_b     42.951609
_cell_length_c     42.926112
_cell_angle_alpha  89.938795
_cell_angle_beta   90.1871
_cell_angle_gamma 89.942773
loop_
_atom_site_label
_atom_site_type_symbol
_atom_site_fract_x
_atom_site_fract_y
_atom_site_fract_z
_atom_type_partial_charge
O0 O 0.90969 0.30682 0.32858 0.0
O1 O 0.9739 0.32334 0.34839 0.0
O2 O 0.95744 0.265 0.41306 0.0
O3 O 0.95783 0.2627 0.34897 0.0
O4 O 0.97284 0.32482 0.4121 0.0
Zr5 Zr 0.93498 0.30157 0.37964 0.0
Zr6 Zr 1.01227 0.34591 0.38063 0.0
Zr7 Zr 0.99635 0.28517 0.31663 0.0
O8 O 0.03351 0.30794 0.41301 0.0
O9 O 0.0166 0.24746 0.35067 0.0
O10 O 0.03475 0.30756 0.34867 0.0
Zr11 Zr 0.99496 0.28769 0.44584 0.0
Zr12 Zr 0.97938 0.22575 0.38341 0.0
Zr13 Zr 0.05489 0.26886 0.38168 0.0
O14 O 0.01762 0.24787 0.41559 0.0
O15 O 0.08572 0.27125 0.42843 0.0
O16 O 0.07444 0.24863 0.33225 0.0
O17 O 0.90443 0.30457 0.42634 0.0
O18 O 0.98161 0.23992 0.47185 0.0
O19 O 1.00615 0.34069 0.29315 0.0
O20 O 0.98992 0.22866 0.29594 0.0
O21 O 1.00546 0.33784 0.4685 0.0
O22 O 0.06813 0.3538 0.37514 0.0
O23 O 0.92438 0.21475 0.38094 0.0
O24 O 0.02005 0.18679 0.3868 0.0
O25 O 0.97152 0.38385 0.37079 0.0
O26 O 0.05155 0.28353 0.46776 0.0
O27 O 0.94703 0.29464 0.29223 0.0
O28 O 0.04334 0.26665 0.29266 0.0
O29 O 0.93848 0.2947 0.46676 0.0
O30 O 0.93416 0.3564 0.39317 0.0
O31 O 0.06537 0.21441 0.39091 0.0
O32 O 0.09437 0.30741 0.37304 0.0
O33 O 0.89676 0.2602 0.38437 0.0
C34 C 0.9193 0.30248 0.30036 0.0
O35 O 0.01781 0.37324 0.4302 0.0
O36 O 0.01861 0.37403 0.33307 0.0
C37 C 0.07992 0.27792 0.45698 0.0
C38 C 0.06667 0.25093 0.30321 0.0
C39 C 0.91025 0.30024 0.45543 0.0
C40 C 0.97201 0.21284 0.46318 0.0
C41 C 1.014 0.36855 0.30405 0.0
C42 C 0.98393 0.20063 0.30734 0.0
C43 C 1.01415 0.3649 0.45886 0.0
C44 C 0.09306 0.33725 0.37193 0.0
C45 C 0.89884 0.23032 0.38306 0.0
C46 C 0.04969 0.18886 0.39061 0.0
C47 C 0.94251 0.37805 0.37464 0.0
O48 O 0.97837 0.19522 0.33626 0.0
O49 O 0.96985 0.20305 0.4348 0.0
O50 O 0.40315 0.80118 0.83889 0.0
O51 O 0.46944 0.82188 0.8526 0.0
O52 O 0.45539 0.76471 0.9197 0.0
O53 O 0.45264 0.76172 0.85599 0.0
O54 O 0.47133 0.82502 0.9182 0.0
Zr55 Zr 0.43274 0.80196 0.8869 0.0
Zr56 Zr 0.50888 0.8438 0.88329 0.0
Zr57 Zr 0.48873 0.78208 0.82025 0.0
O58 O 0.53122 0.80616 0.91468 0.0
O59 O 0.51145 0.74546 0.85393 0.0
O60 O 0.52913 0.80555 0.8497 0.0
Zr61 Zr 0.49481 0.78677 0.95025 0.0
Zr62 Zr 0.47584 0.72493 0.88924 0.0
Zr63 Zr 0.55141 0.76778 0.88231 0.0
O64 O 0.51605 0.74705 0.91864 0.0
O65 O 0.58292 0.76592 0.92858 0.0
O66 O 0.57299 0.75524 0.83131 0.0
O67 O 0.40464 0.80741 0.93473 0.0
O68 O 0.48272 0.73909 0.97701 0.0
O69 O 0.49539 0.83736 0.79595 0.0
O70 O 0.48325 0.72429 0.80159 0.0
O71 O 0.51028 0.83608 0.97208 0.0
O72 O 0.56422 0.85388 0.88093 0.0
O73 O 0.42041 0.71561 0.88684 0.0
O74 O 0.51651 0.68563 0.88724 0.0
O75 O 0.46942 0.88359 0.88263 0.0
O76 O 0.55178 0.7793 0.96997 0.0
O77 O 0.43607 0.78577 0.79983 0.0
O78 O 0.53547 0.76541 0.79431 0.0
O79 O 0.43912 0.79352 0.97342 0.0
O80 O 0.42307 0.85756 0.88152 0.0
O81 O 0.56222 0.7129 0.88638 0.0
O82 O 0.5908 0.80778 0.88085 0.0
O83 O 0.39351 0.76155 0.88989 0.0
C84 C 0.40886 0.79257 0.81074 0.0
O85 O 0.52147 0.87011 0.93219 0.0
O86 O 0.51088 0.8711 0.83459 0.0
C87 C 0.57907 0.77203 0.95761 0.0
C88 C 0.5625 0.75561 0.80309 0.0
C89 C 0.41087 0.8009 0.96325 0.0
C90 C 0.47311 0.71183 0.96901 0.0
C91 C 0.50371 0.86531 0.8061 0.0
C92 C 0.47703 0.69681 0.81432 0.0
C93 C 0.52024 0.86222 0.96119 0.0
C94 C 0.58952 0.83769 0.88132 0.0
C95 C 0.3951 0.7317 0.8879 0.0
C96 C 0.54642 0.68749 0.88698 0.0
C97 C 0.43959 0.88265 0.88039 0.0
O98 O 0.47171 0.69308 0.84352 0.0
O99 O 0.46955 0.70184 0.94086 0.0
O100 O 1.01274 0.73889 0.04296 0.0
O101 O 0.03172 0.76443 0.10084 0.0
O102 O 0.95612 0.80806 0.09905 0.0
O103 O 0.97103 0.74735 0.09774 0.0
O104 O 0.01663 0.82318 0.10119 0.0
Zr105 Zr 0.99463 0.7863 0.06706 0.0
Zr106 Zr 0.05343 0.80063 0.13504 0.0
Zr107 Zr 1.00897 0.72599 0.13086 0.0
O108 O 1.01445 0.82352 0.16528 0.0
O109 O 0.97075 0.74784 0.16273 0.0
O110 O 0.02899 0.76284 0.16533 0.0
Zr111 Zr 0.97754 0.84581 0.13165 0.0
Zr112 Zr 0.93347 0.76985 0.1306 0.0
Zr113 Zr 0.99044 0.78573 0.19679 0.0
O114 O 0.95308 0.80874 0.16375 0.0
O115 O 0.98393 0.84173 0.21882 0.0
O116 O 0.9984 0.72936 0.21826 0.0
O117 O 0.98916 0.83723 0.04398 0.0
O118 O 0.92204 0.85639 0.12614 0.0
O119 O 0.06351 0.71521 0.13972 0.0
O120 O 0.96903 0.68706 0.12633 0.0
O121 O 0.01926 0.88381 0.13483 0.0
O122 O 0.07613 0.78919 0.18637 0.0
O123 O 0.9052 0.7671 0.08262 0.0
O124 O 0.90721 0.75752 0.1794 0.0
O125 O 0.08427 0.80332 0.08809 0.0
O126 O 0.97207 0.87543 0.17886 0.0
O127 O 0.02608 0.70416 0.08147 0.0
O128 O 1.00967 0.69576 0.178 0.0
O129 O 0.97997 0.87339 0.08222 0.0
O130 O 0.0513 0.79251 0.04711 0.0
O131 O 0.94065 0.7722 0.2187 0.0
O132 O 0.03849 0.79937 0.2217 0.0
O133 O 0.93926 0.77903 0.04316 0.0
C134 C 0.02519 0.71333 0.05284 0.0
O135 O 0.06464 0.85564 0.13715 0.0
O136 O 0.09231 0.75979 0.13534 0.0
C137 C 0.97749 0.86982 0.20777 0.0
C138 C 1.00463 0.70128 0.20695 0.0
C139 C 0.98481 0.86532 0.0537 0.0
C140 C 0.89655 0.8404 0.12598 0.0
C141 C 0.0894 0.73027 0.13945 0.0
C142 C 0.93919 0.68889 0.12561 0.0
C143 C 0.04911 0.88133 0.136 0.0
C144 C 0.06537 0.78888 0.21443 0.0
C145 C 0.91111 0.77231 0.0538 0.0
C146 C 0.9148 0.76093 0.20829 0.0
C147 C 0.07918 0.79838 0.05896 0.0
O148 O 0.92332 0.71441 0.12655 0.0
O149 O 0.89493 0.81066 0.1292 0.0
O150 O 0.30108 1.01271 0.21367 0.0
O151 O 0.35495 0.04119 0.23413 0.0
O152 O 0.35352 0.99173 0.30805 0.0
O153 O 0.35426 0.97986 0.24556 0.0
O154 O 0.35358 0.0531 0.29688 0.0
Zr155 Zr 0.322 0.01666 0.27051 0.0
Zr156 Zr 0.38618 0.0769 0.26032 0.0
Zr157 Zr 0.38846 1.00489 0.21098 0.0
O158 O 0.41813 0.0521 0.29695 0.0
O159 O 0.41859 0.97986 0.24837 0.0
O160 O 0.41968 0.04096 0.23681 0.0
Zr161 Zr 0.38619 0.0278 0.33303 0.0
Zr162 Zr 0.38512 0.95523 0.2833 0.0
Zr163 Zr 0.4514 0.01554 0.27359 0.0
O164 O 0.41773 0.99083 0.30876 0.0
O165 O 0.47436 0.02446 0.32395 0.0
O166 O 0.47642 1.0057 0.22442 0.0
O167 O 0.29895 0.02049 0.32651 0.0
O168 O 0.39421 0.98473 0.36832 0.0
O169 O 0.4001 0.04833 0.1771 0.0
O170 O 0.39009 0.95097 0.19556 0.0
O171 O 0.38854 0.08215 0.34765 0.0
O172 O 0.43365 0.10626 0.26057 0.0
O173 O 0.33484 0.92901 0.28523 0.0
O174 O 0.43208 0.92524 0.2873 0.0
O175 O 0.33632 0.10316 0.25356 0.0
O176 O 0.43597 0.03261 0.36022 0.0
O177 O 0.34182 1.00515 0.17975 0.0
O178 O 0.43923 0.99821 0.18653 0.0
O179 O 0.33847 0.02775 0.36212 0.0
O180 O 0.29807 0.06658 0.2613 0.0
O181 O 0.47292 0.95908 0.28008 0.0
O182 O 0.47378 0.07166 0.26893 0.0
O183 O 0.29757 0.96673 0.27742 0.0
C184 C 0.31268 1.00887 0.18534 0.0
O185 O 0.38859 0.11226 0.30379 0.0
O186 O 0.39759 0.09208 0.20716 0.0
C187 C 0.46468 0.0307 0.35163 0.0
C188 C 0.46764 0.99941 0.19637 0.0
C189 C 0.30957 0.02412 0.35533 0.0
C190 C 0.39592 0.95523 0.36387 0.0
C191 C 0.40306 0.07783 0.18134 0.0
C192 C 0.39427 0.92477 0.20958 0.0
C193 C 0.39031 0.10857 0.33347 0.0
C194 C 0.46266 0.10013 0.26457 0.0
C195 C 0.30643 0.93854 0.2828 0.0
C196 C 0.46131 0.93085 0.28463 0.0
C197 C 0.30766 0.09431 0.25501 0.0
O198 O 0.39368 0.92079 0.23931 0.0
O199 O 0.39223 0.94112 0.33762 0.0
O200 O 0.22558 0.2943 1.00202 0.0
O201 O 0.25321 0.34431 0.04595 0.0
O202 O 0.30862 0.35828 0.97955 0.0
O203 O 0.24437 0.3532 0.98465 0.0
O204 O 0.31249 0.34996 0.03912 0.0
Zr205 Zr 0.28104 0.31898 1.00645 0.0
Zr206 Zr 0.28492 0.37301 0.07963 0.0
Zr207 Zr 0.21623 0.37764 0.02495 0.0
O208 O 0.31022 0.41309 0.05247 0.0
O209 O 0.24182 0.41573 0.99607 0.0
O210 O 0.24758 0.40715 0.05847 0.0
Zr211 Zr 0.33958 0.38879 1.01339 0.0
Zr212 Zr 0.27171 0.39134 0.95764 0.0
Zr213 Zr 0.27271 0.44633 0.02906 0.0
O214 O 0.30256 0.42139 0.99082 0.0
O215 O 0.32106 0.47436 0.03133 0.0
O216 O 0.22002 0.46494 0.03455 0.0
O217 O 0.33835 0.30027 1.00601 0.0
O218 O 0.36103 0.40353 0.96341 0.0
O219 O 0.20128 0.34903 0.07206 0.0
O220 O 0.18627 0.39012 0.97892 0.0
O221 O 0.3702 0.37532 0.05912 0.0
O222 O 0.28264 0.4162 0.11612 0.0
O223 O 0.27657 0.34737 0.92219 0.0
O224 O 0.26595 0.44149 0.9349 0.0
O225 O 0.3039 0.32046 0.09142 0.0
O226 O 0.36137 0.44086 0.02054 0.0
O227 O 0.1882 0.33118 1.01303 0.0
O228 O 0.18702 0.42335 0.04148 0.0
O229 O 0.37116 0.34269 1.0059 0.0
O230 O 0.27584 0.29416 0.05644 0.0
O231 O 0.2689 0.47622 0.97565 0.0
O232 O 0.27276 0.46059 0.08772 0.0
O233 O 0.28482 0.30409 0.95253 0.0
C234 C 0.19623 0.30344 1.00551 0.0
O235 O 0.33692 0.36737 0.09978 0.0
O236 O 0.24078 0.35366 0.10755 0.0
C237 C 0.35006 0.46796 0.02708 0.0
C238 C 0.1932 0.45274 0.04017 0.0
C239 C 0.36632 0.31309 1.00559 0.0
C240 C 0.34777 0.41135 0.93764 0.0
C241 C 0.2145 0.34268 0.09841 0.0
C242 C 0.192 0.39638 0.95015 0.0
C243 C 0.36414 0.36735 0.08742 0.0
C244 C 0.27725 0.44573 0.11437 0.0
C245 C 0.28262 0.3182 0.92608 0.0
C246 C 0.26655 0.4693 0.9455 0.0
C247 C 0.2977 0.29516 0.07655 0.0
O248 O 0.21923 0.3961 0.93765 0.0
O249 O 0.31852 0.40857 0.93161 0.0
O250 O 0.59272 0.42601 0.26281 0.0
O251 O 0.60703 0.47996 0.29884 0.0
O252 O 0.6677 0.49502 0.23673 0.0
O253 O 0.60336 0.4917 0.23908 0.0
O254 O 0.67214 0.48115 0.29746 0.0
Zr255 Zr 0.63892 0.457 0.26161 0.0
Zr256 Zr 0.63928 0.50436 0.33442 0.0
Zr257 Zr 0.57129 0.51542 0.27713 0.0
O258 O 0.66917 0.54177 0.309 0.0
O259 O 0.60242 0.55228 0.25131 0.0
O260 O 0.60451 0.54088 0.313 0.0
Zr261 Zr 0.70181 0.51934 0.27162 0.0
Zr262 Zr 0.63326 0.52946 0.21297 0.0
Zr263 Zr 0.63546 0.57742 0.28625 0.0
O264 O 0.66722 0.55526 0.24773 0.0
O265 O 0.68447 0.60515 0.29206 0.0
O266 O 0.5878 0.60587 0.29114 0.0
O267 O 0.68806 0.43592 0.2442 0.0
O268 O 0.72155 0.52552 0.21482 0.0
O269 O 0.5495 0.49912 0.32625 0.0
O270 O 0.55228 0.53326 0.22692 0.0
O271 O 0.72609 0.51233 0.32699 0.0
O272 O 0.63887 0.54711 0.37117 0.0
O273 O 0.63931 0.48593 0.17773 0.0
O274 O 0.62749 0.58353 0.19904 0.0
O275 O 0.65118 0.4507 0.34721 0.0
O276 O 0.7237 0.56985 0.28315 0.0
O277 O 0.551 0.45849 0.27114 0.0
O278 O 0.54778 0.57081 0.28488 0.0
O279 O 0.72648 0.47178 0.25402 0.0
O280 O 0.6488 0.42041 0.30348 0.0
O281 O 0.62919 0.61349 0.24309 0.0
O282 O 0.63631 0.59086 0.34087 0.0
O283 O 0.63404 0.44218 0.20757 0.0
C284 C 0.56348 0.4306 0.26669 0.0
O285 O 0.68724 0.5045 0.36301 0.0
O286 O 0.59092 0.48677 0.35789 0.0
C287 C 0.71334 0.59702 0.29077 0.0
C288 C 0.55874 0.59941 0.28884 0.0
C289 C 0.71642 0.44553 0.24328 0.0
C290 C 0.70911 0.53043 0.18699 0.0
C291 C 0.56163 0.4869 0.35097 0.0
C292 C 0.55697 0.51895 0.20129 0.0
C293 C 0.71601 0.50798 0.35586 0.0
C294 C 0.6382 0.57685 0.36738 0.0
C295 C 0.63737 0.45625 0.1813 0.0
C296 C 0.62661 0.60983 0.21341 0.0
C297 C 0.65342 0.42448 0.33281 0.0
O298 O 0.58329 0.52123 0.18726 0.0
O299 O 0.67979 0.53426 0.18224 0.0
O300 O 0.75986 0.08705 0.91704 0.0
O301 O 0.80157 0.10204 0.96851 0.0
O302 O 0.74289 0.16631 0.98397 0.0
O303 O 0.74137 0.10139 0.98343 0.0
O304 O 0.8035 0.16647 0.96659 0.0
Zr305 Zr 0.7641 0.13445 0.94613 0.0
Zr306 Zr 0.84054 0.13301 0.98969 0.0
Zr307 Zr 0.77997 0.06952 1.00651 0.0
O308 O 0.81875 0.16614 0.02687 0.0
O309 O 0.75893 0.1031 0.04385 0.0
O310 O 0.81879 0.10154 0.02873 0.0
Zr311 Zr 0.78115 0.1992 1.00465 0.0
Zr312 Zr 0.72088 0.13435 0.02183 0.0
Zr313 Zr 0.79654 0.13548 0.06552 0.0
O314 O 0.75833 0.16778 0.04358 0.0
O315 O 0.80382 0.18603 0.09018 0.0
O316 O 0.79832 0.08854 0.09606 0.0
O317 O 0.75396 0.18391 0.92045 0.0
O318 O 0.72494 0.2214 1.01065 0.0
O319 O 0.82902 0.0452 0.99416 0.0
O320 O 0.73181 0.04593 0.02304 0.0
O321 O 0.83751 0.22027 0.99885 0.0
O322 O 0.87948 0.13151 0.03087 0.0
O323 O 0.68164 0.13432 0.98149 0.0
O324 O 0.71019 0.13864 0.07678 0.0
O325 O 0.85033 0.13391 0.93409 0.0
O326 O 0.79304 0.22384 0.05371 0.0
O327 O 0.77197 0.04705 0.95062 0.0
O328 O 0.78645 0.04829 0.06277 0.0
O329 O 0.76784 0.22247 0.95499 0.0
O330 O 0.80436 0.13261 0.90708 0.0
O331 O 0.75568 0.13522 0.1044 0.0
O332 O 0.85154 0.13143 0.07616 0.0
O333 O 0.70871 0.13317 0.93572 0.0
C334 C 0.76505 0.05814 0.92259 0.0
O335 O 0.87087 0.18002 0.9871 0.0
O336 O 0.86436 0.0825 0.97904 0.0
C337 C 0.8014 0.21459 0.08109 0.0
C338 C 0.79264 0.05968 0.09074 0.0
C339 C 0.7573 0.21256 0.9286 0.0
C340 C 0.69689 0.21047 0.01742 0.0
C341 C 0.85546 0.05412 0.98315 0.0
C342 C 0.70554 0.05601 0.03349 0.0
C343 C 0.8655 0.2089 0.99275 0.0
C344 C 0.87722 0.13055 0.06077 0.0
C345 C 0.68331 0.13389 0.9516 0.0
C346 C 0.72586 0.13742 0.10237 0.0
C347 C 0.83426 0.13258 0.90867 0.0
O348 O 0.69664 0.08469 0.03432 0.0
O349 O 0.69141 0.18176 0.02367 0.0
O350 O 0.28018 0.57691 0.43429 0.0
O351 O 0.31055 0.59582 0.49908 0.0
O352 O 0.25791 0.66554 0.47885 0.0
O353 O 0.25007 0.60237 0.48874 0.0
O354 O 0.3202 0.65865 0.48916 0.0
Zr355 Zr 0.28946 0.62565 0.45891 0.0
Zr356 Zr 0.34284 0.62832 0.52885 0.0
Zr357 Zr 0.27126 0.571 0.52809 0.0
O358 O 0.31257 0.66873 0.54933 0.0
O359 O 0.24257 0.61212 0.55018 0.0
O360 O 0.30252 0.60531 0.55766 0.0
Zr361 Zr 0.2889 0.69895 0.50961 0.0
Zr362 Zr 0.22038 0.6415 0.51051 0.0
Zr363 Zr 0.27417 0.64554 0.57978 0.0
O364 O 0.25069 0.67535 0.54068 0.0
O365 O 0.2893 0.69684 0.59871 0.0
O366 O 0.26449 0.60324 0.61518 0.0
O367 O 0.31063 0.6688 0.42907 0.0
O368 O 0.23398 0.7263 0.50657 0.0
O369 O 0.32388 0.55283 0.52075 0.0
O370 O 0.2176 0.55486 0.52969 0.0
O371 O 0.34713 0.71504 0.50941 0.0
O372 O 0.36326 0.62841 0.58107 0.0
O373 O 0.20157 0.63034 0.45829 0.0
O374 O 0.1906 0.65621 0.55578 0.0
O375 O 0.37239 0.6148 0.48344 0.0
O376 O 0.29737 0.72874 0.55649 0.0
O377 O 0.26721 0.54296 0.47389 0.0
O378 O 0.26794 0.55749 0.58771 0.0
O379 O 0.29905 0.7135 0.45606 0.0
O380 O 0.33697 0.59572 0.44946 0.0
O381 O 0.22244 0.65858 0.59854 0.0
O382 O 0.31941 0.63138 0.61103 0.0
O383 O 0.24366 0.62569 0.42614 0.0
C384 C 0.27174 0.55001 0.44402 0.0
O385 O 0.37691 0.67329 0.52519 0.0
O386 O 0.35854 0.57739 0.54937 0.0
C387 C 0.29743 0.72285 0.58596 0.0
C388 C 0.26529 0.57331 0.61417 0.0
C389 C 0.30995 0.69867 0.43229 0.0
C390 C 0.20438 0.71793 0.50238 0.0
C391 C 0.34286 0.55264 0.54348 0.0
C392 C 0.19092 0.56813 0.52578 0.0
C393 C 0.37414 0.70193 0.51653 0.0
C394 C 0.34878 0.62657 0.60709 0.0
C395 C 0.21418 0.62563 0.43148 0.0
C396 C 0.19575 0.66118 0.58492 0.0
C397 C 0.36406 0.59539 0.46243 0.0
O398 O 0.1866 0.59695 0.51853 0.0
O399 O 0.1955 0.68967 0.49972 0.0
O400 O 0.79912 0.50178 0.71562 0.0
O401 O 0.85308 0.52662 0.73436 0.0
O402 O 0.85217 0.48397 0.81061 0.0
O403 O 0.85155 0.46633 0.75107 0.0
O404 O 0.85183 0.54423 0.7954 0.0
Zr405 Zr 0.81984 0.50598 0.7724 0.0
Zr406 Zr 0.88449 0.56452 0.75681 0.0
Zr407 Zr 0.88567 0.48786 0.71431 0.0
O408 O 0.91619 0.54182 0.79467 0.0
O409 O 0.91694 0.4657 0.75281 0.0
O410 O 0.91717 0.52594 0.73663 0.0
Zr411 Zr 0.88459 0.52116 0.83282 0.0
Zr412 Zr 0.88331 0.44471 0.79028 0.0
Zr413 Zr 0.94975 0.50382 0.77483 0.0
O414 O 0.91702 0.48167 0.81325 0.0
O415 O 0.97269 0.52221 0.82312 0.0
O416 O 0.97387 0.4976 0.72462 0.0
O417 O 0.79711 0.51428 0.82793 0.0
O418 O 0.88256 0.48133 0.87234 0.0
O419 O 0.89044 0.52696 0.67457 0.0
O420 O 0.88373 0.4327 0.70414 0.0
O421 O 0.88534 0.57619 0.84407 0.0
O422 O 0.93223 0.59306 0.75242 0.0
O423 O 0.83225 0.42094 0.79835 0.0
O424 O 0.93033 0.41435 0.79437 0.0
O425 O 0.83463 0.59152 0.75118 0.0
O426 O 0.93361 0.53336 0.85788 0.0
O427 O 0.8391 0.48794 0.68292 0.0
O428 O 0.93606 0.4864 0.68843 0.0
O429 O 0.83712 0.52624 0.86148 0.0
O430 O 0.79629 0.55561 0.76129 0.0
O431 O 0.97072 0.44718 0.78168 0.0
O432 O 0.97205 0.55989 0.76624 0.0
O433 O 0.79502 0.45752 0.78569 0.0
C434 C 0.81052 0.49526 0.68775 0.0
O435 O 0.89233 0.60208 0.79813 0.0
O436 O 0.89171 0.57302 0.70133 0.0
C437 C 0.96225 0.5329 0.84921 0.0
C438 C 0.96448 0.49188 0.69663 0.0
C439 C 0.80818 0.52134 0.85588 0.0
C440 C 0.88109 0.45147 0.8712 0.0
C441 C 0.89354 0.5566 0.67623 0.0
C442 C 0.88313 0.40716 0.71988 0.0
C443 C 0.89154 0.60077 0.82808 0.0
C444 C 0.96112 0.58769 0.75813 0.0
C445 C 0.80386 0.43053 0.79553 0.0
C446 C 0.95924 0.41934 0.78856 0.0
C447 C 0.8059 0.58299 0.75373 0.0
O448 O 0.88345 0.40519 0.74981 0.0
O449 O 0.88198 0.43505 0.84604 0.0
O450 O 0.73144 0.80155 0.49923 0.0
O451 O 0.75049 0.8564 0.52769 0.0
O452 O 0.82338 0.85893 0.48115 0.0
O453 O 0.76208 0.85662 0.46703 0.0
O454 O 0.81124 0.8571 0.54087 0.0
Zr455 Zr 0.78757 0.82448 0.50381 0.0
Zr456 Zr 0.77348 0.88746 0.56537 0.0
Zr457 Zr 0.72553 0.88884 0.4921 0.0
O458 O 0.80964 0.92169 0.54321 0.0
O459 O 0.76183 0.92124 0.46867 0.0
O460 O 0.74798 0.92077 0.53023 0.0
Zr461 Zr 0.84696 0.89142 0.51802 0.0
Zr462 Zr 0.79885 0.88977 0.44406 0.0
Zr463 Zr 0.78464 0.9538 0.5063 0.0
O464 O 0.82242 0.92309 0.4808 0.0
O465 O 0.83351 0.97907 0.51644 0.0
O466 O 0.73444 0.97734 0.4979 0.0
O467 O 0.84468 0.80389 0.50894 0.0
O468 O 0.88308 0.89003 0.47498 0.0
O469 O 0.68974 0.88196 0.53493 0.0
O470 O 0.71182 0.88767 0.4376 0.0
O471 O 0.86056 0.87968 0.57172 0.0
O472 O 0.77254 0.9337 0.59677 0.0
O473 O 0.80605 0.83986 0.41767 0.0
O474 O 0.80023 0.9379 0.41557 0.0
O475 O 0.76568 0.83733 0.58997 0.0
O476 O 0.87144 0.94233 0.52567 0.0
O477 O 0.69669 0.84102 0.4888 0.0
O478 O 0.69827 0.93873 0.48986 0.0
O479 O 0.87805 0.84478 0.51824 0.0
O480 O 0.77687 0.80004 0.55326 0.0
O481 O 0.78855 0.97683 0.45049 0.0
O482 O 0.77913 0.97469 0.56289 0.0
O483 O 0.79872 0.80132 0.45411 0.0
C484 C 0.70291 0.81217 0.4938 0.0
O485 O 0.81602 0.87632 0.60044 0.0
O486 O 0.71913 0.88472 0.5793 0.0
C487 C 0.86139 0.97065 0.52378 0.0
C488 C 0.70667 0.96751 0.49212 0.0
C489 C 0.87286 0.81566 0.51377 0.0
C490 C 0.87991 0.88925 0.44518 0.0
C491 C 0.69311 0.88123 0.56471 0.0
C492 C 0.72591 0.88863 0.41119 0.0
C493 C 0.84564 0.87387 0.5971 0.0
C494 C 0.77541 0.96291 0.59118 0.0
C495 C 0.80552 0.81114 0.42659 0.0
C496 C 0.79435 0.96648 0.42205 0.0
C497 C 0.76826 0.80898 0.5806 0.0
O498 O 0.7556 0.89022 0.40746 0.0
O499 O 0.85367 0.89006 0.43045 0.0
O500 O 0.09355 0.9147 0.76326 0.0
O501 O 0.1066 0.96981 0.80079 0.0
O502 O 0.16559 0.98589 0.73693 0.0
O503 O 0.10145 0.97873 0.74057 0.0
O504 O 0.17126 0.97532 0.7979 0.0
Zr505 Zr 0.13944 0.94702 0.76374 0.0
Zr506 Zr 0.13787 0.99781 0.83474 0.0
Zr507 Zr 0.06875 1.00282 0.7782 0.0
O508 O 0.16508 0.03632 0.80751 0.0
O509 O 0.09733 0.03987 0.74993 0.0
O510 O 0.10109 0.03128 0.8121 0.0
Zr511 Zr 0.19822 1.01434 0.77024 0.0
Zr512 Zr 0.12869 0.01685 0.71193 0.0
Zr513 Zr 0.12895 0.06861 0.78321 0.0
O514 O 0.16108 0.04644 0.74516 0.0
O515 O 0.17597 0.09985 0.78567 0.0
O516 O 0.08015 0.09473 0.7887 0.0
O517 O 0.19071 0.92718 0.74963 0.0
O518 O 0.21691 0.02173 0.71299 0.0
O519 O 0.04987 0.98849 0.82916 0.0
O520 O 0.05422 0.02338 0.72788 0.0
O521 O 0.2237 1.01152 0.82545 0.0
O522 O 0.13497 0.04209 0.86936 0.0
O523 O 0.14039 0.97326 0.67875 0.0
O524 O 0.11807 0.06939 0.6956 0.0
O525 O 0.15296 0.94542 0.8494 0.0
O526 O 0.2172 0.06656 0.77856 0.0
O527 O 0.05033 0.94566 0.77029 0.0
O528 O 0.04208 0.05713 0.78554 0.0
O529 O 0.2256 0.96726 0.75654 0.0
O530 O 0.15123 0.91296 0.80723 0.0
O531 O 0.11877 0.10159 0.73808 0.0
O532 O 0.12861 0.0842 0.8373 0.0
O533 O 0.13954 0.93019 0.70995 0.0
C534 C 0.06393 0.91829 0.76593 0.0
O535 O 0.18608 1.00234 0.8624 0.0
O536 O 0.0912 0.9825 0.86289 0.0
C537 C 0.20527 0.09355 0.78421 0.0
C538 C 0.0515 0.08651 0.78814 0.0
C539 C 0.21817 0.93925 0.74865 0.0
C540 C 0.20394 0.02555 0.68517 0.0
C541 C 0.06212 0.98069 0.85555 0.0
C542 C 0.0536 1.00574 0.70424 0.0
C543 C 0.21438 1.00753 0.85463 0.0
C544 C 0.13138 0.07141 0.86435 0.0
C545 C 0.14283 0.9438 0.68339 0.0
C546 C 0.11565 0.09624 0.70867 0.0
C547 C 0.15639 0.91872 0.83618 0.0
O548 O 0.07874 1.00239 0.68856 0.0
O549 O 0.17432 0.02625 0.68061 0.0
O550 O 0.51296 0.24426 0.54044 0.0
O551 O 0.53224 0.26382 0.59916 0.0
O552 O 0.45985 0.31339 0.60145 0.0
O553 O 0.47152 0.251 0.59669 0.0
O554 O 0.52275 0.32398 0.60226 0.0
Zr555 Zr 0.49627 0.29041 0.56762 0.0
Zr556 Zr 0.55822 0.29631 0.63379 0.0
Zr557 Zr 0.50841 0.2249 0.62767 0.0
O558 O 0.52192 0.31913 0.6667 0.0
O559 O 0.47242 0.24699 0.66185 0.0
O560 O 0.53357 0.25774 0.66343 0.0
Zr561 Zr 0.48635 0.3465 0.63571 0.0
Zr562 Zr 0.43648 0.27411 0.63149 0.0
Zr563 Zr 0.49702 0.28105 0.69711 0.0
O564 O 0.46181 0.30814 0.66539 0.0
O565 O 0.49108 0.33597 0.72265 0.0
O566 O 0.5011 0.22359 0.71572 0.0
O567 O 0.49113 0.34269 0.54798 0.0
O568 O 0.43283 0.3604 0.64658 0.0
O569 O 0.56202 0.20907 0.63232 0.0
O570 O 0.46555 0.18938 0.62076 0.0
O571 O 0.53097 0.38033 0.64347 0.0
O572 O 0.58383 0.29824 0.68453 0.0
O573 O 0.40556 0.27775 0.58492 0.0
O574 O 0.4103 0.26403 0.68048 0.0
O575 O 0.58737 0.30025 0.586 0.0
O576 O 0.48422 0.37326 0.68467 0.0
O577 O 0.52381 0.20597 0.57644 0.0
O578 O 0.50871 0.19197 0.67318 0.0
O579 O 0.48432 0.37718 0.58817 0.0
O580 O 0.55219 0.29605 0.54562 0.0
O581 O 0.44612 0.27259 0.7193 0.0
O582 O 0.54672 0.28935 0.72197 0.0
O583 O 0.44007 0.28601 0.54488 0.0
C584 C 0.52392 0.21749 0.54866 0.0
O585 O 0.57418 0.34995 0.63728 0.0
O586 O 0.59335 0.25208 0.63136 0.0
C587 C 0.48697 0.36518 0.71333 0.0
C588 C 0.50507 0.19597 0.70263 0.0
C589 C 0.48722 0.37032 0.55908 0.0
C590 C 0.40694 0.34588 0.65091 0.0
C591 C 0.5888 0.22247 0.63226 0.0
C592 C 0.43593 0.19365 0.62046 0.0
C593 C 0.56065 0.3762 0.64243 0.0
C594 C 0.57464 0.29572 0.71302 0.0
C595 C 0.41154 0.28206 0.55595 0.0
C596 C 0.41839 0.26639 0.70935 0.0
C597 C 0.58082 0.29883 0.55679 0.0
O598 O 0.42215 0.2201 0.62399 0.0
O599 O 0.40251 0.31668 0.64585 0.0
C600 C 0.22646 0.29606 0.13018 0.0
C601 C 0.20389 0.31483 0.11542 0.0
C602 C 0.21844 0.26774 0.14346 0.0
C603 C 0.15247 0.21252 0.15541 0.0
H604 H 0.18273 0.21577 0.2404 0.0
C605 C 0.07487 0.23271 0.24885 0.0
C606 C 0.08452 0.23275 0.28017 0.0
C607 C 0.09269 0.21805 0.22631 0.0
C608 C 0.17451 0.21315 0.21669 0.0
H609 H 0.15543 0.31778 0.10174 0.0
H610 H 0.14058 0.26921 0.12764 0.0
H611 H 0.21074 0.24244 0.2005 0.0
H612 H 0.11773 0.21305 0.31309 0.0
H613 H 0.14927 0.18784 0.27305 0.0
H614 H 0.11466 0.18524 0.17266 0.0
C615 C 0.16484 0.27602 0.12783 0.0
C616 C 0.19068 0.22886 0.19351 0.0
C617 C 0.1731 0.3042 0.11367 0.0
C618 C 0.11041 0.21467 0.28885 0.0
C619 C 0.12828 0.19981 0.26612 0.0
C620 C 0.13641 0.19652 0.17868 0.0
C621 C 0.18745 0.25772 0.14327 0.0
C622 C 0.17799 0.23134 0.16337 0.0
C623 C 0.12075 0.20318 0.23435 0.0
C624 C 0.14512 0.20037 0.2101 0.0
H625 H 0.25073 0.30282 0.13092 0.0
H626 H 0.23653 0.25401 0.15454 0.0
H627 H 0.14307 0.21273 0.13198 0.0
H628 H 0.05439 0.24523 0.24136 0.0
H629 H 0.08576 0.2213 0.20221 0.0
C630 C 0.62228 0.63637 0.16277 0.0
C631 C 0.6152 0.63598 0.19465 0.0
C632 C 0.60076 0.64819 0.14159 0.0
C633 C 0.53694 0.6338 0.11501 0.0
H634 H 0.49796 0.71253 0.09468 0.0
C635 C 0.45249 0.70045 0.02114 0.0
C636 C 0.46882 0.69017 0.99483 0.0
C637 C 0.45961 0.68831 0.05039 0.0
C638 C 0.50783 0.69011 0.10075 0.0
H639 H 0.58362 0.65305 0.23002 0.0
H640 H 0.54593 0.67414 0.19268 0.0
H641 H 0.5367 0.71025 0.13636 0.0
H642 H 0.50142 0.65623 0.9771 0.0
H643 H 0.51442 0.63527 0.02806 0.0
H644 H 0.50883 0.61357 0.0792 0.0
C645 C 0.56769 0.66467 0.18418 0.0
C646 C 0.53027 0.68905 0.12431 0.0
C647 C 0.58936 0.65285 0.20547 0.0
C648 C 0.48857 0.66437 0.99721 0.0
C649 C 0.49602 0.65246 0.02653 0.0
C650 C 0.51431 0.63474 0.09176 0.0
C651 C 0.57229 0.66001 0.15222 0.0
C652 C 0.54584 0.66115 0.13054 0.0
C653 C 0.48351 0.66621 0.05354 0.0
C654 C 0.50048 0.66316 0.08344 0.0
H655 H 0.64232 0.62382 0.154 0.0
H656 H 0.60487 0.64505 0.1169 0.0
H657 H 0.54831 0.61184 0.12018 0.0
H658 H 0.43689 0.72025 0.01954 0.0
H659 H 0.44892 0.69864 0.07075 0.0
C660 C 0.90518 0.31361 0.24638 0.0
C661 C 0.89683 0.3 0.27491 0.0
C662 C 0.89964 0.29785 0.21863 0.0
C663 C 0.87323 0.22173 0.18615 0.0
H664 H 0.95644 0.22212 0.15077 0.0
C665 C 0.90517 0.12371 0.11 0.0
C666 C 0.90504 0.1362 0.07975 0.0
C667 C 0.91241 0.14291 0.13513 0.0
C668 C 0.93325 0.22175 0.16061 0.0
H669 H 0.87095 0.26277 0.29661 0.0
H670 H 0.86223 0.23453 0.24846 0.0
H671 H 0.9414 0.26254 0.18761 0.0
H672 H 0.92176 0.17393 0.05096 0.0
H673 H 0.93496 0.20741 0.09473 0.0
H674 H 0.86553 0.1804 0.15959 0.0
C675 C 0.87287 0.25733 0.24713 0.0
C676 C 0.92429 0.24516 0.18121 0.0
C677 C 0.87757 0.2737 0.27485 0.0
C678 C 0.92075 0.16429 0.07426 0.0
C679 C 0.92801 0.18361 0.09939 0.0
C680 C 0.88234 0.19814 0.16585 0.0
C681 C 0.88665 0.26788 0.21934 0.0
C682 C 0.89419 0.24538 0.19431 0.0
C683 C 0.92048 0.17409 0.12974 0.0
C684 C 0.91252 0.19778 0.15319 0.0
H685 H 0.92009 0.33393 0.24589 0.0
H686 H 0.90928 0.30719 0.19729 0.0
H687 H 0.84989 0.22133 0.19563 0.0
H688 H 0.89392 0.10161 0.11464 0.0
H689 H 0.90743 0.13482 0.1585 0.0
C690 C 0.40463 0.90161 0.15822 0.0
C691 C 0.40967 0.90092 0.19053 0.0
C692 C 0.4293 0.89593 0.13809 0.0
C693 C 0.50269 0.86851 0.11837 0.0
H694 H 0.51457 0.9516 0.08447 0.0
C695 C 0.55599 0.87401 1.00411 0.0
C696 C 0.53158 0.88393 0.98474 0.0
C697 C 0.55794 0.88467 0.03469 0.0
C698 C 0.51221 0.92844 0.0942 0.0
H699 H 0.44172 0.8866 0.22694 0.0
H700 H 0.48488 0.87605 0.19136 0.0
H701 H 0.47985 0.94377 0.12877 0.0
H702 H 0.49326 0.9161 0.97965 0.0
H703 H 0.49602 0.93451 0.03306 0.0
H704 H 0.53243 0.85247 0.08221 0.0
C705 C 0.4623 0.88224 0.18189 0.0
C706 C 0.49232 0.92395 0.11939 0.0
C707 C 0.43748 0.88787 0.20211 0.0
C708 C 0.51231 0.9083 0.99432 0.0
C709 C 0.51404 0.91882 0.02503 0.0
C710 C 0.52253 0.87293 0.09308 0.0
C711 C 0.45883 0.88877 0.15013 0.0
C712 C 0.48607 0.89375 0.13025 0.0
C713 C 0.53487 0.90468 0.04623 0.0
C714 C 0.52572 0.90267 0.07939 0.0
H715 H 0.38323 0.91111 0.14871 0.0
H716 H 0.42617 0.90033 0.11341 0.0
H717 H 0.4982 0.84512 0.12669 0.0
H718 H 0.57121 0.85532 0.99679 0.0
H719 H 0.57475 0.87404 0.05029 0.0
C720 C 0.20449 0.62445 0.37412 0.0
C721 C 0.19322 0.62111 0.40463 0.0
C722 C 0.18377 0.62688 0.34922 0.0
C723 C 0.11187 0.66611 0.3441 0.0
H724 H 0.12556 0.65913 0.25516 0.0
C725 C 0.0608 0.75662 0.26212 0.0
C726 C 0.07894 0.76632 0.23664 0.0
C727 C 0.06872 0.73026 0.27899 0.0
C728 C 0.12159 0.66136 0.27996 0.0
H729 H 0.15205 0.61176 0.43234 0.0
H730 H 0.11588 0.6162 0.38875 0.0
H731 H 0.14877 0.62072 0.29054 0.0
H732 H 0.12053 0.75633 0.20989 0.0
H733 H 0.13626 0.71181 0.24171 0.0
H734 H 0.08761 0.70799 0.33462 0.0
C735 C 0.14063 0.61777 0.38424 0.0
C736 C 0.13444 0.63913 0.30008 0.0
C737 C 0.16132 0.61566 0.40922 0.0
C738 C 0.10627 0.74978 0.2296 0.0
C739 C 0.11482 0.72379 0.24734 0.0
C740 C 0.0996 0.68843 0.32423 0.0
C741 C 0.15155 0.6259 0.35451 0.0
C742 C 0.1307 0.64211 0.33245 0.0
C743 C 0.09587 0.71356 0.27202 0.0
C744 C 0.10524 0.68703 0.29204 0.0
H745 H 0.22907 0.62782 0.36968 0.0
H746 H 0.19293 0.63302 0.32655 0.0
H747 H 0.10902 0.66953 0.36893 0.0
H748 H 0.03926 0.76825 0.26814 0.0
H749 H 0.05313 0.72276 0.29729 0.0
C750 C 0.04925 0.70697 1.00099 0.0
C751 C 0.03948 0.69342 0.02899 0.0
C752 C 0.05436 0.68854 0.97499 0.0
C753 C 1.01118 0.61908 0.95267 0.0
H754 H 0.01715 0.66608 0.87593 0.0
C755 C 0.90451 0.62692 0.87766 0.0
C756 C 0.90855 0.62494 0.84532 0.0
C757 C 0.92993 0.63342 0.89678 0.0
C758 C 0.01518 0.6523 0.89694 0.0
H759 H 0.03538 0.64994 0.05431 0.0
H760 H 0.04508 0.61737 1.00886 0.0
H761 H 0.05919 0.66831 0.91338 0.0
H762 H 0.93995 0.63544 0.80736 0.0
H763 H 0.98435 0.64574 0.8406 0.0
H764 H 0.96832 0.60127 0.93535 0.0
C765 C 0.04663 0.64238 1.00623 0.0
C766 C 0.03937 0.65373 0.91868 0.0
C767 C 0.04112 0.66098 0.03237 0.0
C768 C 0.93646 0.63581 0.8323 0.0
C769 C 0.96214 0.64141 0.85142 0.0
C770 C 0.98766 0.61666 0.9305 0.0
C771 C 0.04917 0.65616 0.97646 0.0
C772 C 0.0357 0.64042 0.94848 0.0
C773 C 0.95972 0.63762 0.88379 0.0
C774 C 0.98793 0.63559 0.9038 0.0
H775 H 0.05024 0.73205 0.99833 0.0
H776 H 0.05799 0.7006 0.95321 0.0
H777 H 1.00778 0.60679 0.97437 0.0
H778 H 0.8829 0.6195 0.8883 0.0
H779 H 0.92666 0.63259 0.92177 0.0
C780 C 0.87463 0.77043 0.24716 0.0
C781 C 0.89425 0.74901 0.23247 0.0
C782 C 0.87269 0.77048 0.2796 0.0
C783 C 0.88658 0.76797 0.35169 0.0
H784 H 0.96744 0.8076 0.34241 0.0
C785 C 0.92511 0.85429 0.43955 0.0
C786 C 0.90674 0.8784 0.42693 0.0
C787 C 0.93682 0.83118 0.41999 0.0
C788 C 0.9455 0.79568 0.34588 0.0
H789 H 0.9208 0.70669 0.23838 0.0
H790 H 0.91874 0.70763 0.29502 0.0
H791 H 0.94956 0.76991 0.30352 0.0
H792 H 0.89317 0.90182 0.3843 0.0
H793 H 0.91454 0.86193 0.35026 0.0
H794 H 0.88175 0.79552 0.39291 0.0
C795 C 0.90473 0.72413 0.28198 0.0
C796 C 0.93525 0.77412 0.32384 0.0
C797 C 0.90578 0.72356 0.24953 0.0
C798 C 0.9067 0.8831 0.39457 0.0
C799 C 0.91897 0.86029 0.37508 0.0
C800 C 0.89725 0.78877 0.37424 0.0
C801 C 0.8909 0.74951 0.29701 0.0
C802 C 0.90506 0.76147 0.32577 0.0
C803 C 0.93108 0.83278 0.38796 0.0
C804 C 0.92601 0.80392 0.37052 0.0
H805 H 0.86545 0.79018 0.23435 0.0
H806 H 0.86166 0.79017 0.29087 0.0
H807 H 0.86305 0.75907 0.35308 0.0
H808 H 0.92606 0.85037 0.46447 0.0
H809 H 0.94654 0.81023 0.43008 0.0
C810 C 0.14034 0.86877 0.85882 0.0
C811 C 0.16238 0.89269 0.85739 0.0
C812 C 0.13335 0.85546 0.8876 0.0
C813 C 0.12634 0.90066 0.95576 0.0
H814 H 0.06444 0.838 0.97434 0.0
C815 C 0.99329 0.88316 1.00028 0.0
C816 C 0.99621 0.88926 0.03227 0.0
C817 C 0.0194 0.88565 0.98131 0.0
C818 C 0.08166 0.85569 0.96925 0.0
H819 H 0.20026 0.91533 0.88173 0.0
H820 H 0.18868 0.89142 0.93178 0.0
H821 H 0.1095 0.8241 0.94272 0.0
H822 H 0.0246 0.91214 0.06728 0.0
H823 H 0.06988 0.91733 0.0339 0.0
H824 H 0.09773 0.93246 0.98139 0.0
C825 C 0.17581 0.88381 0.91142 0.0
C826 C 0.10764 0.84759 0.95167 0.0
C827 C 0.18249 0.89749 0.88277 0.0
C828 C 0.0221 0.90634 0.04283 0.0
C829 C 0.04832 0.90881 0.02389 0.0
C830 C 0.10048 0.90865 0.97357 0.0
C831 C 0.14839 0.86636 0.91471 0.0
C832 C 0.12923 0.87049 0.94303 0.0
C833 C 0.04785 0.8955 0.9941 0.0
C834 C 0.07714 0.88667 0.97881 0.0
H835 H 0.12496 0.86428 0.83927 0.0
H836 H 0.11264 0.84118 0.88905 0.0
H837 H 0.14234 0.91909 0.94952 0.0
H838 H 0.97309 0.87088 0.99143 0.0
H839 H 0.01832 0.87647 0.95782 0.0
C840 C 0.0646 0.14298 0.36042 0.0
C841 C 0.06852 0.16069 0.3876 0.0
C842 C 0.09065 0.13043 0.34573 0.0
C843 C 0.16659 0.16216 0.33744 0.0
H844 H 0.18313 0.09314 0.28205 0.0
C845 C 0.28299 0.13934 0.2794 0.0
C846 C 0.28335 0.11799 0.2548 0.0
C847 C 0.2546 0.14982 0.29098 0.0
C848 C 0.1784 0.11301 0.29679 0.0
H849 H 0.10029 0.17265 0.42492 0.0
H850 H 0.14558 0.14954 0.39999 0.0
H851 H 0.13904 0.09042 0.31747 0.0
H852 H 0.25594 0.09579 0.2188 0.0
H853 H 0.20636 0.11597 0.23754 0.0
H854 H 0.2053 0.18517 0.31654 0.0
C855 C 0.12294 0.14665 0.38917 0.0
C856 C 0.1535 0.11108 0.31745 0.0
C857 C 0.097 0.15948 0.40364 0.0
C858 C 0.25592 0.11207 0.23808 0.0
C859 C 0.22758 0.12316 0.24917 0.0
C860 C 0.19126 0.16425 0.31663 0.0
C861 C 0.12033 0.13502 0.35874 0.0
C862 C 0.14773 0.13543 0.33826 0.0
C863 C 0.22653 0.13944 0.27752 0.0
C864 C 0.19766 0.13959 0.29624 0.0
H865 H 0.04268 0.14333 0.34788 0.0
H866 H 0.08801 0.12111 0.32242 0.0
H867 H 0.16186 0.18183 0.35249 0.0
H868 H 0.304 0.14409 0.29261 0.0
H869 H 0.25477 0.16267 0.31266 0.0
C870 C 0.35033 0.71814 0.92046 0.0
C871 C 0.36683 0.71345 0.89274 0.0
C872 C 0.33798 0.69252 0.93615 0.0
C873 C 0.33637 0.60549 0.93468 0.0
H874 H 0.38524 0.61505 1.0104 0.0
C875 C 0.38366 0.49884 0.99316 0.0
C876 C 0.36968 0.49537 0.02243 0.0
C877 C 0.38536 0.52829 0.9796 0.0
C878 C 0.37152 0.61214 0.98937 0.0
H879 H 0.37647 0.68103 0.85548 0.0
H880 H 0.35474 0.63657 0.88227 0.0
H881 H 0.36962 0.66101 0.98093 0.0
H882 H 0.35295 0.51967 0.06324 0.0
H883 H 0.35699 0.57125 0.04002 0.0
H884 H 0.33944 0.55646 0.94267 0.0
C885 C 0.35191 0.6593 0.8928 0.0
C886 C 0.36199 0.6384 0.97277 0.0
C887 C 0.36434 0.68484 0.87727 0.0
C888 C 0.36361 0.52193 0.0405 0.0
C889 C 0.3656 0.55141 0.02708 0.0
C890 C 0.34614 0.57926 0.95114 0.0
C891 C 0.34192 0.66246 0.92379 0.0
C892 C 0.34487 0.63534 0.94486 0.0
C893 C 0.37381 0.55433 0.99562 0.0
C894 C 0.36442 0.58237 0.97819 0.0
H895 H 0.35143 0.7403 0.93241 0.0
H896 H 0.3293 0.6957 0.9596 0.0
H897 H 0.32311 0.6024 0.9134 0.0
H898 H 0.38859 0.47868 0.97881 0.0
H899 H 0.39253 0.53025 0.9555 0.0
C900 C 0.76584 0.43829 0.21469 0.0
C901 C 0.73918 0.42527 0.22799 0.0
C902 C 0.79039 0.41927 0.20583 0.0
C903 C 0.81686 0.34951 0.24612 0.0
H904 H 0.88921 0.40174 0.23495 0.0
C905 C 0.88946 0.37866 0.35152 0.0
C906 C 0.92136 0.38466 0.34842 0.0
C907 C 0.87068 0.376 0.32518 0.0
C908 C 0.86951 0.38651 0.23851 0.0
H909 H 0.71398 0.38226 0.23575 0.0
H910 H 0.75704 0.34892 0.221 0.0
H911 H 0.85085 0.39828 0.19399 0.0
H912 H 0.95769 0.39655 0.3158 0.0
H913 H 0.92565 0.38995 0.26981 0.0
H914 H 0.8363 0.33599 0.28972 0.0
C915 C 0.75992 0.37379 0.21854 0.0
C916 C 0.84728 0.38458 0.21485 0.0
C917 C 0.73517 0.3929 0.22723 0.0
C918 C 0.93342 0.39099 0.31877 0.0
C919 C 0.9149 0.38736 0.29234 0.0
C920 C 0.8395 0.3504 0.26927 0.0
C921 C 0.78913 0.38687 0.21135 0.0
C922 C 0.81834 0.3705 0.22092 0.0
C923 C 0.88359 0.37848 0.29514 0.0
C924 C 0.86429 0.3716 0.26722 0.0
H925 H 0.76865 0.46331 0.21309 0.0
H926 H 0.81152 0.43088 0.19875 0.0
H927 H 0.79641 0.33569 0.25082 0.0
H928 H 0.87935 0.37433 0.37421 0.0
H929 H 0.84623 0.37097 0.3285 0.0
C930 C 0.61733 0.88709 0.89025 0.0
C931 C 0.61744 0.85444 0.89195 0.0
C932 C 0.63007 0.90434 0.91453 0.0
C933 C 0.67398 0.90835 0.98571 0.0
H934 H 0.59946 0.94959 0.01611 0.0
C935 C 0.69465 1.00656 0.06057 0.0
C936 C 0.68359 0.032 0.04325 0.0
C937 C 0.67946 0.978 0.05867 0.0
C938 C 0.62039 0.93791 1.00828 0.0
H939 H 0.63815 0.81456 0.91546 0.0
H940 H 0.66164 0.84519 0.95707 0.0
H941 H 0.59636 0.91559 0.97082 0.0
H942 H 0.64529 0.05003 0.01588 0.0
H943 H 0.61944 1.00027 1.01126 0.0
H944 H 0.69885 0.93296 0.02072 0.0
C945 C 0.65005 0.8571 0.93808 0.0
C946 C 0.61863 0.91863 0.98232 0.0
C947 C 0.63696 0.83972 0.91393 0.0
C948 C 0.65439 0.03038 0.02892 0.0
C949 C 0.63951 1.00168 0.0265 0.0
C950 C 0.67594 0.92828 1.01126 0.0
C951 C 0.64385 0.88902 0.93993 0.0
C952 C 0.64568 0.90512 0.96998 0.0
C953 C 0.65395 0.97463 0.03842 0.0
C954 C 0.64947 0.9449 0.0215 0.0
H955 H 0.60324 0.89907 0.87299 0.0
H956 H 0.62607 0.92925 0.91518 0.0
H957 H 0.69492 0.89749 0.97683 0.0
H958 H 0.71686 1.00781 0.07257 0.0
H959 H 0.6903 0.95781 0.0693 0.0
C960 C 0.06469 0.9241 0.17001 0.0
C961 C 0.06766 0.90928 0.14111 0.0
C962 C 0.09135 0.93458 0.1854 0.0
C963 C 0.16362 0.89637 0.18915 0.0
H964 H 0.18683 0.95561 0.25295 0.0
C965 C 0.28019 0.8984 0.25269 0.0
C966 C 0.28158 0.91563 0.28033 0.0
C967 C 0.25141 0.89286 0.23866 0.0
C968 C 0.18016 0.93848 0.2357 0.0
H969 H 0.09809 0.90098 0.10196 0.0
H970 H 0.14449 0.92024 0.12831 0.0
H971 H 0.14396 0.96788 0.21751 0.0
H972 H 0.25494 0.93439 0.31862 0.0
H973 H 0.20452 0.92289 0.2952 0.0
H974 H 0.19899 0.86653 0.20761 0.0
C975 C 0.12217 0.92265 0.13975 0.0
C976 C 0.15608 0.94588 0.21509 0.0
C977 C 0.09561 0.91193 0.12456 0.0
C978 C 0.25419 0.92124 0.2971 0.0
C979 C 0.22541 0.91527 0.28336 0.0
C980 C 0.18738 0.8888 0.20992 0.0
C981 C 0.12059 0.93061 0.17141 0.0
C982 C 0.14792 0.92504 0.19143 0.0
C983 C 0.224 0.90395 0.2527 0.0
C984 C 0.19607 0.90983 0.23331 0.0
H985 H 0.0431 0.9226 0.18288 0.0
H986 H 0.08951 0.94117 0.20968 0.0
H987 H 0.15698 0.87938 0.17172 0.0
H988 H 0.30114 0.89393 0.2394 0.0
H989 H 0.25116 0.88367 0.21518 0.0
C990 C 0.16459 0.50072 0.02851 0.0
C991 C 0.16903 0.4751 0.04825 0.0
C992 C 0.15341 0.52862 0.04047 0.0
C993 C 0.16086 0.5688 0.11448 0.0
H994 H 0.11862 0.63528 0.07022 0.0
C995 C 0.11848 0.68628 0.16143 0.0
C996 C 0.11715 0.71073 0.13976 0.0
C997 C 0.13282 0.65836 0.1534 0.0
C998 C 0.13104 0.61701 0.0825 0.0
H999 H 0.1617 0.45661 0.09452 0.0
H1000 H 0.14118 0.5054 0.11552 0.0
H1001 H 0.11649 0.58253 0.04973 0.0
H1002 H 0.13416 0.72786 0.09559 0.0
H1003 H 0.15933 0.67891 0.08142 0.0
H1004 H 0.17457 0.60346 0.14774 0.0
C1005 C 0.14702 0.50421 0.09102 0.0
C1006 C 0.12946 0.58678 0.07099 0.0
C1007 C 0.1582 0.4762 0.07896 0.0
C1008 C 0.13497 0.70916 0.11255 0.0
C1009 C 0.14903 0.6811 0.10433 0.0
C1010 C 0.16213 0.59905 0.1262 0.0
C1011 C 0.14664 0.53117 0.07238 0.0
C1012 C 0.14457 0.56238 0.08669 0.0
C1013 C 0.14561 0.65484 0.12358 0.0
C1014 C 0.14754 0.62343 0.11008 0.0
H1015 H 0.17297 0.50017 1.00472 0.0
H1016 H 0.15332 0.54887 0.02542 0.0
H1017 H 0.17337 0.55061 0.12676 0.0
H1018 H 0.10483 0.68724 0.18261 0.0
H1019 H 0.1301 0.63849 0.16873 0.0
C1020 C 0.73544 0.64699 0.27408 0.0
C1021 C 0.73711 0.62114 0.29392 0.0
C1022 C 0.76286 0.65921 0.26187 0.0
C1023 C 0.84623 0.6491 0.25028 0.0
H1024 H 0.81975 0.61048 0.17269 0.0
C1025 C 0.9328 0.64052 0.15549 0.0
C1026 C 0.92164 0.66039 0.13192 0.0
C1027 C 0.91175 0.62603 0.17541 0.0
C1028 C 0.82751 0.62109 0.19424 0.0
H1029 H 0.76733 0.59344 0.32341 0.0
H1030 H 0.81516 0.6148 0.30209 0.0
H1031 H 0.78191 0.62001 0.21368 0.0
H1032 H 0.88105 0.67419 0.1053 0.0
H1033 H 0.8444 0.64866 0.13947 0.0
H1034 H 0.89172 0.6511 0.23044 0.0
C1035 C 0.79318 0.62523 0.29529 0.0
C1036 C 0.80586 0.62705 0.21743 0.0
C1037 C 0.7658 0.6129 0.30738 0.0
C1038 C 0.89001 0.65956 0.12388 0.0
C1039 C 0.86901 0.64493 0.14362 0.0
C1040 C 0.86795 0.64348 0.22682 0.0
C1041 C 0.79152 0.64549 0.26977 0.0
C1042 C 0.81491 0.64177 0.24525 0.0
C1043 C 0.8797 0.63101 0.17133 0.0
C1044 C 0.85861 0.62997 0.19833 0.0
H1045 H 0.71343 0.65406 0.26387 0.0
H1046 H 0.76132 0.6754 0.24254 0.0
H1047 H 0.85369 0.6597 0.27194 0.0
H1048 H 0.95725 0.64024 0.16179 0.0
H1049 H 0.92049 0.61442 0.19608 0.0
C1050 C 0.89467 1.0138 0.99306 0.0
C1051 C 0.87494 0.02876 0.97184 0.0
C1052 C 0.89724 0.98142 0.9923 0.0
C1053 C 0.88364 0.91076 0.99276 0.0
H1054 H 0.80174 0.92295 0.02915 0.0
C1055 C 0.84877 0.83894 0.09355 0.0
C1056 C 0.86876 0.85608 0.11318 0.0
C1057 C 0.83486 0.85349 0.06798 0.0
C1058 C 0.82392 0.91836 0.01811 0.0
H1059 H 0.84841 0.02368 0.9295 0.0
H1060 H 0.85113 0.96694 0.92919 0.0
H1061 H 0.8192 0.95696 0.98714 0.0
H1062 H 0.88281 0.90259 0.12672 0.0
H1063 H 0.85823 0.92781 0.08228 0.0
H1064 H 0.88927 0.87389 0.02575 0.0
C1065 C 0.86498 0.97972 0.94599 0.0
C1066 C 0.83399 0.93767 0.99402 0.0
C1067 C 0.86324 1.01211 0.94628 0.0
C1068 C 0.86833 0.88871 0.11139 0.0
C1069 C 0.8541 0.90319 0.08601 0.0
C1070 C 0.87316 0.89081 0.01612 0.0
C1071 C 0.87911 0.96423 0.97104 0.0
C1072 C 0.8648 0.93553 0.983 0.0
C1073 C 0.84045 0.88504 0.0625 0.0
C1074 C 0.84419 0.89607 0.03041 0.0
H1075 H 0.90387 0.0263 1.01297 0.0
H1076 H 0.90856 0.96989 1.01176 0.0
H1077 H 0.90754 0.90901 0.98495 0.0
H1078 H 0.84781 0.81376 0.0948 0.0
H1079 H 0.82332 0.8395 0.05054 0.0
C1080 C 0.34898 0.27217 0.09264 0.0
C1081 C 0.32251 0.27155 0.07348 0.0
C1082 C 0.374 0.25229 0.08673 0.0
C1083 C 0.3885 0.17694 0.04902 0.0
H1084 H 0.4655 0.18958 0.09424 0.0
C1085 C 0.42083 0.08327 0.12587 0.0
C1086 C 0.41549 0.09654 0.15533 0.0
C1087 C 0.43046 0.10187 0.10099 0.0
C1088 C 0.4447 0.18566 0.08044 0.0
H1089 H 0.30177 0.24959 0.03273 0.0
H1090 H 0.34576 0.2169 0.02132 0.0
H1091 H 0.43629 0.23447 0.07552 0.0
H1092 H 0.4199 0.13888 0.1826 0.0
H1093 H 0.43554 0.17113 0.13968 0.0
H1094 H 0.39539 0.12855 0.05597 0.0
C1095 C 0.34705 0.23173 0.04165 0.0
C1096 C 0.42763 0.21142 0.07019 0.0
C1097 C 0.32161 0.25054 0.04835 0.0
C1098 C 0.42293 0.12799 0.1601 0.0
C1099 C 0.4327 0.14643 0.13541 0.0
C1100 C 0.40572 0.15136 0.05892 0.0
C1101 C 0.37341 0.23179 0.06105 0.0
C1102 C 0.39754 0.20717 0.05784 0.0
C1103 C 0.4348 0.13404 0.10517 0.0
C1104 C 0.4315 0.15577 0.07858 0.0
H1105 H 0.35029 0.2879 0.11225 0.0
H1106 H 0.39336 0.2525 0.10292 0.0
H1107 H 0.36602 0.17231 0.03861 0.0
H1108 H 0.41623 0.05883 0.12162 0.0
H1109 H 0.43212 0.09163 0.07801 0.0
C1110 C 0.32162 0.74828 0.40604 0.0
C1111 C 0.32996 0.71729 0.412 0.0
C1112 C 0.34468 0.77058 0.40189 0.0
C1113 C 0.41615 0.80012 0.38718 0.0
H1114 H 0.40614 0.84167 0.4669 0.0
C1115 C 0.43753 0.92445 0.38784 0.0
C1116 C 0.40698 0.93586 0.38939 0.0
C1117 C 0.44523 0.89661 0.40265 0.0
C1118 C 0.41026 0.82986 0.44501 0.0
H1119 H 0.36824 0.6843 0.41349 0.0
H1120 H 0.40867 0.7237 0.40618 0.0
H1121 H 0.38402 0.79008 0.45898 0.0
H1122 H 0.3619 0.93081 0.41086 0.0
H1123 H 0.37508 0.88226 0.43699 0.0
H1124 H 0.43819 0.84167 0.37171 0.0
C1125 C 0.38442 0.73055 0.40485 0.0
C1126 C 0.39765 0.80038 0.44045 0.0
C1127 C 0.36124 0.70808 0.4087 0.0
C1128 C 0.38559 0.92219 0.4096 0.0
C1129 C 0.39333 0.89447 0.42464 0.0
C1130 C 0.42856 0.82976 0.39166 0.0
C1131 C 0.37615 0.76202 0.40369 0.0
C1132 C 0.39887 0.78633 0.41095 0.0
C1133 C 0.42224 0.88006 0.41882 0.0
C1134 C 0.42354 0.84577 0.41985 0.0
H1135 H 0.29767 0.75584 0.40849 0.0
H1136 H 0.33805 0.79491 0.40068 0.0
H1137 H 0.41707 0.78963 0.36425 0.0
H1138 H 0.45429 0.935 0.37223 0.0
H1139 H 0.46769 0.88609 0.39805 0.0
C1140 C 0.98821 0.53565 0.9008 0.0
C1141 C 0.98523 0.54648 0.87024 0.0
C1142 C 0.016 0.54073 0.91687 0.0
C1143 C 0.08847 0.53205 0.88141 0.0
H1144 H 0.10861 0.50304 0.96443 0.0
C1145 C 0.17504 0.43167 0.9074 0.0
C1146 C 0.16717 0.41292 0.93308 0.0
C1147 C 0.1572 0.45785 0.90025 0.0
C1148 C 0.10324 0.51107 0.94108 0.0
H1149 H 1.0045 0.57671 0.83508 0.0
H1150 H 0.05274 0.58649 0.86345 0.0
H1151 H 0.0707 0.54493 0.95773 0.0
H1152 H 0.13097 0.40291 0.96687 0.0
H1153 H 0.09945 0.44791 0.95365 0.0
H1154 H 0.11853 0.49645 0.8645 0.0
C1155 C 0.03454 0.57319 0.8747 0.0
C1156 C 0.08207 0.53542 0.93734 0.0
C1157 C 1.0072 0.56735 0.85829 0.0
C1158 C 0.13831 0.41756 0.94769 0.0
C1159 C 0.12058 0.44372 0.94059 0.0
C1160 C 0.10934 0.50761 0.88513 0.0
C1161 C 0.04074 0.55644 0.90212 0.0
C1162 C 0.07251 0.54426 0.90733 0.0
C1163 C 0.13114 0.46527 0.91842 0.0
C1164 C 0.11509 0.49545 0.91485 0.0
H1165 H 0.97091 0.52022 0.91069 0.0
H1166 H 0.0196 0.52816 0.93847 0.0
H1167 H 0.08194 0.53829 0.85782 0.0
H1168 H 0.19676 0.42834 0.89507 0.0
H1169 H 0.16528 0.4735 0.88223 0.0
C1170 C 0.67573 0.58665 0.40942 0.0
C1171 C 0.64905 0.5966 0.39312 0.0
C1172 C 0.69945 0.60795 0.4158 0.0
C1173 C 0.72847 0.66896 0.36944 0.0
H1174 H 0.78386 0.693 0.43641 0.0
C1175 C 0.78704 0.78362 0.38002 0.0
C1176 C 0.80948 0.78651 0.40352 0.0
C1177 C 0.77813 0.75401 0.37008 0.0
C1178 C 0.76933 0.68573 0.4171 0.0
H1179 H 0.62196 0.63694 0.37945 0.0
H1180 H 0.66321 0.67406 0.39079 0.0
H1181 H 0.74181 0.65652 0.44682 0.0
H1182 H 0.84526 0.76247 0.4298 0.0
H1183 H 0.8308 0.71092 0.41132 0.0
H1184 H 0.75541 0.69843 0.33971 0.0
C1185 C 0.66658 0.64984 0.39708 0.0
C1186 C 0.74496 0.66526 0.42335 0.0
C1187 C 0.64283 0.62866 0.39107 0.0
C1188 C 0.82746 0.76052 0.41195 0.0
C1189 C 0.81899 0.73101 0.40158 0.0
C1190 C 0.75304 0.68911 0.36305 0.0
C1191 C 0.69595 0.63902 0.40649 0.0
C1192 C 0.72356 0.65802 0.39991 0.0
C1193 C 0.79191 0.7274 0.38357 0.0
C1194 C 0.77284 0.69892 0.38716 0.0
H1195 H 0.68074 0.56207 0.41215 0.0
H1196 H 0.72175 0.59948 0.42404 0.0
H1197 H 0.71269 0.66262 0.35074 0.0
H1198 H 0.773 0.80348 0.37315 0.0
H1199 H 0.75747 0.75214 0.35569 0.0
C1200 C 0.39905 0.55705 0.48789 0.0
C1201 C 0.38157 0.56586 0.46155 0.0
C1202 C 0.41115 0.5272 0.4906 0.0
C1203 C 0.42056 0.45224 0.4458 0.0
H1204 H 0.50531 0.46564 0.47321 0.0
C1205 C 0.50929 0.46537 0.36361 0.0
C1206 C 0.54055 0.46996 0.37204 0.0
C1207 C 0.4887 0.45163 0.38439 0.0
C1208 C 0.48173 0.46036 0.466 0.0
H1209 H 0.36316 0.55008 0.41731 0.0
H1210 H 0.38826 0.49931 0.41973 0.0
H1211 H 0.46498 0.49639 0.49476 0.0
H1212 H 0.57576 0.45933 0.40699 0.0
H1213 H 0.53953 0.43654 0.44357 0.0
H1214 H 0.43883 0.41815 0.41451 0.0
C1215 C 0.39067 0.51465 0.43956 0.0
C1216 C 0.45809 0.47846 0.4785 0.0
C1217 C 0.37702 0.54416 0.43761 0.0
C1218 C 0.55149 0.45731 0.40023 0.0
C1219 C 0.53082 0.44358 0.42106 0.0
C1220 C 0.44444 0.43415 0.43319 0.0
C1221 C 0.4082 0.50583 0.46607 0.0
C1222 C 0.42798 0.47735 0.46549 0.0
C1223 C 0.49879 0.44245 0.41427 0.0
C1224 C 0.47561 0.44174 0.43982 0.0
H1225 H 0.40258 0.57286 0.50719 0.0
H1226 H 0.42348 0.52127 0.51182 0.0
H1227 H 0.3971 0.44908 0.43707 0.0
H1228 H 0.50028 0.47363 0.34154 0.0
H1229 H 0.46431 0.45128 0.37794 0.0
C1230 C 0.16098 0.89322 0.66317 0.0
C1231 C 0.15941 0.92566 0.65964 0.0
C1232 C 0.18793 0.87747 0.65474 0.0
C1233 C 0.26031 0.8759 0.61399 0.0
H1234 H 0.28825 0.83448 0.68955 0.0
C1235 C 0.32626 0.77207 0.5952 0.0
C1236 C 0.3064 0.74865 0.60639 0.0
C1237 C 0.32726 0.80091 0.60994 0.0
C1238 C 0.28124 0.84637 0.66839 0.0
H1239 H 0.18138 0.96581 0.63796 0.0
H1240 H 0.22812 0.9377 0.62239 0.0
H1241 H 0.24354 0.86921 0.69122 0.0
H1242 H 0.27716 0.73435 0.6448 0.0
H1243 H 0.27748 0.78467 0.66966 0.0
H1244 H 0.29494 0.85008 0.59012 0.0
C1245 C 0.20917 0.92499 0.63305 0.0
C1246 C 0.25562 0.86612 0.66934 0.0
C1247 C 0.18219 0.94086 0.64162 0.0
C1248 C 0.2919 0.75244 0.63526 0.0
C1249 C 0.2925 0.7814 0.64973 0.0
C1250 C 0.28538 0.85534 0.61281 0.0
C1251 C 0.21305 0.89392 0.64201 0.0
C1252 C 0.24391 0.87937 0.64179 0.0
C1253 C 0.30757 0.80676 0.6353 0.0
C1254 C 0.29422 0.83826 0.63956 0.0
H1255 H 0.14337 0.88079 0.67625 0.0
H1256 H 0.19022 0.85305 0.66069 0.0
H1257 H 0.25189 0.88652 0.59265 0.0
H1258 H 0.33886 0.76905 0.57357 0.0
H1259 H 0.34017 0.81964 0.59909 0.0
C1260 C 0.0185 0.50011 0.67912 0.0
C1261 C 0.98656 0.50083 0.67215 0.0
C1262 C 0.03816 0.52259 0.66664 0.0
C1263 C 0.04972 0.58555 0.6117 0.0
H1264 H 0.08492 0.62754 0.6838 0.0
C1265 C 0.14005 0.67543 0.59042 0.0
C1266 C 0.16781 0.66479 0.60425 0.0
C1267 C 0.11141 0.66637 0.60256 0.0
C1268 C 0.07502 0.61629 0.66348 0.0
H1269 H 0.95133 0.52129 0.64202 0.0
H1270 H 0.98604 0.56018 0.61972 0.0
H1271 H 0.05056 0.58291 0.6911 0.0
H1272 H 0.18764 0.64175 0.64464 0.0
H1273 H 0.13797 0.62564 0.6656 0.0
H1274 H 0.07546 0.61759 0.58394 0.0
C1275 C 0.99558 0.5429 0.63549 0.0
C1276 C 0.05565 0.59065 0.66762 0.0
C1277 C 0.97583 0.52035 0.64802 0.0
C1278 C 0.16658 0.64991 0.6333 0.0
C1279 C 0.13794 0.64067 0.64533 0.0
C1280 C 0.06936 0.61106 0.60751 0.0
C1281 C 0.02614 0.54557 0.64669 0.0
C1282 C 0.04393 0.57439 0.64174 0.0
C1283 C 0.11035 0.64649 0.62851 0.0
C1284 C 0.08318 0.62592 0.63336 0.0
H1285 H 0.0274 0.48497 0.69729 0.0
H1286 H 0.06202 0.5238 0.67481 0.0
H1287 H 0.04052 0.57353 0.5915 0.0
H1288 H 0.14046 0.68771 0.56836 0.0
H1289 H 0.09039 0.67206 0.58974 0.0
C1290 C 1.00718 0.98097 0.72789 0.0
C1291 C 0.03092 0.97998 0.70539 0.0
C1292 C 0.98858 0.95515 0.73344 0.0
C1293 C 0.97682 0.8717 0.70956 0.0
H1294 H 0.8907 0.89592 0.71925 0.0
C1295 C 0.89539 0.85515 0.62038 0.0
C1296 C 0.86384 0.86266 0.62404 0.0
C1297 C 0.91382 0.84886 0.64626 0.0
C1298 C 0.91455 0.88788 0.71777 0.0
H1299 H 0.05268 0.95145 0.67 0.0
H1300 H 0.01789 0.90738 0.67721 0.0
H1301 H 0.93052 0.93187 0.73293 0.0
H1302 H 0.82561 0.86405 0.65706 0.0
H1303 H 0.85823 0.854 0.70254 0.0
H1304 H 0.95994 0.8286 0.69136 0.0
C1305 C 0.01507 0.92739 0.69223 0.0
C1306 C 0.93782 0.90897 0.72546 0.0
C1307 C 0.03458 0.95298 0.68744 0.0
C1308 C 0.8502 0.85963 0.65363 0.0
C1309 C 0.86875 0.85336 0.67966 0.0
C1310 C 0.95341 0.85051 0.70199 0.0
C1311 C 0.99195 0.92805 0.71553 0.0
C1312 C 0.9691 0.90223 0.71852 0.0
C1313 C 0.9012 0.85052 0.67644 0.0
C1314 C 0.92216 0.86021 0.7021 0.0
H1315 H 1.00372 1.00133 0.74236 0.0
H1316 H 0.97168 0.95658 0.75202 0.0
H1317 H 1.00066 0.86511 0.70518 0.0
H1318 H 0.90642 0.85603 0.59776 0.0
H1319 H 0.93864 0.84649 0.64254 0.0
C1320 C 0.66897 0.87095 0.61585 0.0
C1321 C 0.66762 0.8681 0.5833 0.0
C1322 C 0.6557 0.8482 0.63458 0.0
C1323 C 0.60297 0.786 0.64521 0.0
H1324 H 0.67043 0.75153 0.69502 0.0
C1325 C 0.57011 0.72726 0.75374 0.0
C1326 C 0.58288 0.74497 0.77807 0.0
C1327 C 0.58513 0.72578 0.72511 0.0
C1328 C 0.65142 0.76043 0.68093 0.0
H1329 H 0.64651 0.84261 0.54494 0.0
H1330 H 0.62208 0.80345 0.57829 0.0
H1331 H 0.68197 0.78791 0.65286 0.0
H1332 H 0.6231 0.77084 0.79377 0.0
H1333 H 0.64889 0.76957 0.7435 0.0
H1334 H 0.57211 0.76105 0.67473 0.0
C1335 C 0.63464 0.82255 0.5889 0.0
C1336 C 0.65799 0.78127 0.65699 0.0
C1337 C 0.64823 0.84523 0.56999 0.0
C1338 C 0.61282 0.75733 0.77509 0.0
C1339 C 0.62763 0.75634 0.74624 0.0
C1340 C 0.59633 0.76537 0.66936 0.0
C1341 C 0.64038 0.8228 0.621 0.0
C1342 C 0.63365 0.7955 0.64032 0.0
C1343 C 0.61257 0.7428 0.72035 0.0
C1344 C 0.6204 0.75398 0.68873 0.0
H1345 H 0.68323 0.88871 0.62673 0.0
H1346 H 0.65942 0.84918 0.65955 0.0
H1347 H 0.584 0.79658 0.63227 0.0
H1348 H 0.54719 0.71701 0.75596 0.0
H1349 H 0.57348 0.7144 0.70582 0.0
C1350 C 0.94876 0.20213 0.51447 0.0
C1351 C 0.96535 0.1912 0.48858 0.0
C1352 C 0.95297 0.18822 0.54349 0.0
C1353 C 0.99972 0.1278 0.58524 0.0
H1354 H 0.02834 0.19916 0.63299 0.0
C1355 C 0.10802 0.11895 0.65643 0.0
C1356 C 0.1028 0.12084 0.68863 0.0
C1357 C 0.08623 0.13103 0.63571 0.0
C1358 C 0.02005 0.17908 0.62017 0.0
H1359 H 0.99516 0.15469 0.47105 0.0
H1360 H 1.00322 0.13063 0.52169 0.0
H1361 H 0.99123 0.20669 0.59052 0.0
H1362 H 0.07434 0.14181 0.7245 0.0
H1363 H 0.03601 0.1634 0.68784 0.0
H1364 H 0.03049 0.10067 0.61362 0.0
C1365 C 0.9868 0.14972 0.51997 0.0
C1366 C 0.99854 0.18319 0.59607 0.0
C1367 C 0.98225 0.16345 0.49085 0.0
C1368 C 0.07845 0.13962 0.69974 0.0
C1369 C 0.05648 0.15176 0.67888 0.0
C1370 C 0.02142 0.12379 0.60907 0.0
C1371 C 0.97426 0.16363 0.54689 0.0
C1372 C 0.98922 0.15776 0.57746 0.0
C1373 C 0.05923 0.14544 0.64696 0.0
C1374 C 0.03268 0.14959 0.62572 0.0
H1375 H 0.93516 0.22336 0.51291 0.0
H1376 H 0.94226 0.1988 0.5637 0.0
H1377 H 0.99262 0.10776 0.57168 0.0
H1378 H 0.12702 0.10509 0.64731 0.0
H1379 H 0.08912 0.12677 0.611 0.0
C1380 C 0.38655 0.77349 0.76141 0.0
C1381 C 0.38244 0.77956 0.79322 0.0
C1382 C 0.37645 0.74522 0.74924 0.0
C1383 C 0.34007 0.67308 0.75023 0.0
H1384 H 0.4249 0.64349 0.73958 0.0
C1385 C 0.35459 0.59642 0.65563 0.0
C1386 C 0.3666 0.61863 0.63498 0.0
C1387 C 0.3627 0.59746 0.68704 0.0
C1388 C 0.40104 0.65058 0.74365 0.0
H1389 H 0.35664 0.76583 0.83453 0.0
H1390 H 0.33974 0.71619 0.81327 0.0
H1391 H 0.41505 0.69099 0.76907 0.0
H1392 H 0.40153 0.65415 0.6283 0.0
H1393 H 0.41594 0.65626 0.68292 0.0
H1394 H 0.32614 0.63479 0.72205 0.0
C1395 C 0.35157 0.73257 0.79819 0.0
C1396 C 0.39543 0.67788 0.76011 0.0
C1397 C 0.36116 0.76119 0.81017 0.0
C1398 C 0.39148 0.63738 0.64424 0.0
C1399 C 0.39986 0.63826 0.67559 0.0
C1400 C 0.34566 0.64563 0.73383 0.0
C1401 C 0.36183 0.72346 0.76873 0.0
C1402 C 0.36525 0.69041 0.76125 0.0
C1403 C 0.38272 0.62096 0.69761 0.0
C1404 C 0.3765 0.63599 0.72782 0.0
H1405 H 0.4021 0.78773 0.7476 0.0
H1406 H 0.38386 0.73862 0.72604 0.0
H1407 H 0.31664 0.68234 0.75135 0.0
H1408 H 0.33653 0.58062 0.64808 0.0
H1409 H 0.34989 0.58322 0.70343 0.0
C1410 C 0.03842 0.38133 0.50756 0.0
C1411 C 0.01722 0.38797 0.48352 0.0
C1412 C 0.03029 0.38733 0.53839 0.0
C1413 C 0.96438 0.41414 0.58818 0.0
H1414 H 0.97183 0.33085 0.62304 0.0
C1415 C 0.87537 0.37775 0.67191 0.0
C1416 C 0.8895 0.37929 0.70139 0.0
C1417 C 0.89356 0.37124 0.64593 0.0
C1418 C 0.9697 0.35413 0.61352 0.0
H1419 H 0.97436 0.41146 0.47153 0.0
H1420 H 0.96003 0.42213 0.525 0.0
H1421 H 1.00486 0.34626 0.57943 0.0
H1422 H 0.92982 0.36583 0.72837 0.0
H1423 H 0.96184 0.35426 0.68297 0.0
H1424 H 0.92818 0.42135 0.62143 0.0
C1425 C 0.98272 0.41205 0.52066 0.0
C1426 C 0.9889 0.36327 0.58897 0.0
C1427 C 0.99103 0.40625 0.48983 0.0
C1428 C 0.91895 0.36573 0.7056 0.0
C1429 C 0.93736 0.35939 0.67959 0.0
C1430 C 0.94499 0.40486 0.6124 0.0
C1431 C 1.00086 0.39985 0.54519 0.0
C1432 C 0.98587 0.39313 0.57549 0.0
C1433 C 0.92551 0.36545 0.6497 0.0
C1434 C 0.94688 0.37451 0.62457 0.0
H1435 H 0.05888 0.36728 0.503 0.0
H1436 H 0.04521 0.37866 0.55686 0.0
H1437 H 0.96175 0.43735 0.57864 0.0
H1438 H 0.85232 0.38743 0.66829 0.0
H1439 H 0.88381 0.37516 0.62294 0.0
C1440 C 0.65308 0.13203 0.90281 0.0
C1441 C 0.65527 0.14184 0.93385 0.0
C1442 C 0.63769 0.15052 0.88107 0.0
C1443 C 0.63145 0.23371 0.87195 0.0
H1444 H 0.60067 0.21083 0.7902 0.0
C1445 C 0.59041 0.30823 0.76678 0.0
C1446 C 0.59808 0.29529 0.73777 0.0
C1447 C 0.60263 0.29532 0.79398 0.0
C1448 C 0.60964 0.21735 0.8129 0.0
H1449 H 0.63825 0.17494 0.96794 0.0
H1450 H 0.61086 0.20709 0.92991 0.0
H1451 H 0.59847 0.17303 0.83246 0.0
H1452 H 0.62862 0.26339 0.71359 0.0
H1453 H 0.64978 0.24056 0.76123 0.0
H1454 H 0.64205 0.27838 0.85205 0.0
C1455 C 0.62182 0.18573 0.92217 0.0
C1456 C 0.60801 0.19591 0.8371 0.0
C1457 C 0.63711 0.16707 0.94399 0.0
C1458 C 0.62232 0.27355 0.7358 0.0
C1459 C 0.63426 0.26038 0.76301 0.0
C1460 C 0.63263 0.2554 0.84772 0.0
C1461 C 0.62432 0.17894 0.89027 0.0
C1462 C 0.6196 0.20355 0.86668 0.0
C1463 C 0.62229 0.26938 0.79205 0.0
C1464 C 0.62253 0.24697 0.81788 0.0
H1465 H 0.66668 0.11241 0.89464 0.0
H1466 H 0.6398 0.14442 0.85669 0.0
H1467 H 0.64114 0.24013 0.89437 0.0
H1468 H 0.57193 0.32533 0.7686 0.0
H1469 H 0.59334 0.30273 0.81621 0.0
C1470 C 0.5586 0.21517 0.50307 0.0
C1471 C 0.53878 0.19965 0.52387 0.0
C1472 C 0.56439 0.20259 0.4738 0.0
C1473 C 0.53109 0.14229 0.42057 0.0
H1474 H 0.48626 0.21486 0.39005 0.0
C1475 C 0.40958 0.12962 0.38346 0.0
C1476 C 0.40409 0.13429 0.35152 0.0
C1477 C 0.43622 0.14187 0.39711 0.0
C1478 C 0.49923 0.19456 0.39764 0.0
H1479 H 0.51459 0.15668 0.53362 0.0
H1480 H 0.52316 0.13519 0.48211 0.0
H1481 H 0.5291 0.22158 0.4263 0.0
H1482 H 0.41711 0.16236 0.31134 0.0
H1483 H 0.46246 0.18565 0.33651 0.0
H1484 H 0.4986 0.11531 0.39417 0.0
C1485 C 0.53468 0.15684 0.48795 0.0
C1486 C 0.52411 0.19824 0.4182 0.0
C1487 C 0.52933 0.16922 0.51747 0.0
C1488 C 0.42132 0.15734 0.33573 0.0
C1489 C 0.44768 0.17021 0.34977 0.0
C1490 C 0.50613 0.13864 0.40015 0.0
C1491 C 0.54924 0.1751 0.46482 0.0
C1492 C 0.53802 0.17195 0.43236 0.0
C1493 C 0.45674 0.15992 0.37933 0.0
C1494 C 0.48852 0.16465 0.39089 0.0
H1495 H 0.56696 0.2384 0.50821 0.0
H1496 H 0.57663 0.21662 0.4568 0.0
H1497 H 0.54199 0.12172 0.43036 0.0
H1498 H 0.396 0.11299 0.39667 0.0
H1499 H 0.44222 0.135 0.42069 0.0
C1500 C 0.39508 0.40672 0.90501 0.0
C1501 C 0.36712 0.42199 0.91168 0.0
C1502 C 0.40592 0.40635 0.87442 0.0
C1503 C 0.41194 0.39053 0.80729 0.0
H1504 H 0.32922 0.3592 0.78793 0.0
C1505 C 0.36885 0.29092 0.72294 0.0
C1506 C 0.39352 0.27141 0.73222 0.0
C1507 C 0.36048 0.3159 0.74192 0.0
C1508 C 0.35234 0.36807 0.79275 0.0
H1509 H 0.33289 0.45469 0.8944 0.0
H1510 H 0.35229 0.4549 0.84141 0.0
H1511 H 0.33487 0.40499 0.82051 0.0
H1512 H 0.41989 0.25487 0.772 0.0
H1513 H 0.40484 0.29799 0.80539 0.0
H1514 H 0.42913 0.35182 0.78122 0.0
C1515 C 0.36533 0.44238 0.8591 0.0
C1516 C 0.35577 0.39467 0.81096 0.0
C1517 C 0.35412 0.44221 0.88945 0.0
C1518 C 0.40203 0.27078 0.76382 0.0
C1519 C 0.39391 0.29576 0.78271 0.0
C1520 C 0.40846 0.36383 0.78929 0.0
C1521 C 0.38852 0.42103 0.85065 0.0
C1522 C 0.38566 0.4046 0.82053 0.0
C1523 C 0.37592 0.32011 0.77034 0.0
C1524 C 0.3787 0.35131 0.7839 0.0
H1525 H 0.40594 0.39153 0.92205 0.0
H1526 H 0.42457 0.39031 0.86891 0.0
H1527 H 0.43516 0.39812 0.8136 0.0
H1528 H 0.36049 0.29072 0.69912 0.0
H1529 H 0.34529 0.33384 0.73278 0.0
C1530 C 0.63254 0.37557 0.35344 0.0
C1531 C 0.6569 0.39718 0.35288 0.0
C1532 C 0.62423 0.36184 0.38165 0.0
C1533 C 0.62167 0.40241 0.45304 0.0
H1534 H 0.55756 0.34172 0.47075 0.0
C1535 C 0.52358 0.41119 0.5462 0.0
C1536 C 0.49639 0.39513 0.53761 0.0
C1537 C 0.54862 0.41204 0.52557 0.0
C1538 C 0.5754 0.35887 0.46594 0.0
H1539 H 0.69662 0.4152 0.37808 0.0
H1540 H 0.68272 0.3905 0.42717 0.0
H1541 H 0.59978 0.32811 0.43529 0.0
H1542 H 0.46941 0.37842 0.49846 0.0
H1543 H 0.51261 0.38076 0.46202 0.0
H1544 H 0.59645 0.43359 0.48257 0.0
C1545 C 0.6692 0.38504 0.40653 0.0
C1546 C 0.59976 0.35089 0.44611 0.0
C1547 C 0.67723 0.39912 0.37844 0.0
C1548 C 0.49085 0.38948 0.50588 0.0
C1549 C 0.51584 0.38986 0.48534 0.0
C1550 C 0.59741 0.41029 0.47298 0.0
C1551 C 0.6404 0.36983 0.40911 0.0
C1552 C 0.62221 0.37316 0.43812 0.0
C1553 C 0.54555 0.39834 0.49608 0.0
C1554 C 0.57329 0.38913 0.47824 0.0
H1555 H 0.6168 0.37344 0.33377 0.0
H1556 H 0.60225 0.34955 0.38262 0.0
H1557 H 0.63831 0.42039 0.44717 0.0
H1558 H 0.52797 0.41701 0.57039 0.0
H1559 H 0.57112 0.41976 0.53401 0.0
C1560 C 0.75393 0.59962 0.73642 0.0
C1561 C 0.78144 0.60661 0.75272 0.0
C1562 C 0.72542 0.61066 0.74725 0.0
C1563 C 0.69609 0.61599 0.82315 0.0
H1564 H 0.61918 0.64813 0.7884 0.0
C1565 C 0.59391 0.65679 0.89521 0.0
C1566 C 0.56468 0.65944 0.88088 0.0
C1567 C 0.61832 0.64246 0.87955 0.0
C1568 C 0.64029 0.63828 0.79815 0.0
H1569 H 0.80179 0.6343 0.78956 0.0
H1570 H 0.75186 0.6536 0.80863 0.0
H1571 H 0.66657 0.64881 0.75698 0.0
H1572 H 0.5362 0.64469 0.8419 0.0
H1573 H 0.57876 0.61873 0.81473 0.0
H1574 H 0.67013 0.60476 0.86399 0.0
C1575 C 0.75227 0.63951 0.78771 0.0
C1576 C 0.66743 0.63928 0.78035 0.0
C1577 C 0.78082 0.62881 0.77659 0.0
C1578 C 0.55865 0.64289 0.85336 0.0
C1579 C 0.58316 0.62858 0.83755 0.0
C1580 C 0.66897 0.6145 0.84073 0.0
C1581 C 0.7244 0.62847 0.77456 0.0
C1582 C 0.69564 0.62885 0.79307 0.0
C1583 C 0.61367 0.63052 0.8494 0.0
C1584 C 0.64088 0.62626 0.82874 0.0
H1585 H 0.75404 0.58239 0.71798 0.0
H1586 H 0.70418 0.602 0.7367 0.0
H1587 H 0.71748 0.6068 0.833 0.0
H1588 H 0.59895 0.66945 0.91648 0.0
H1589 H 0.64143 0.64425 0.88954 0.0
C1590 C 0.8692 0.1817 0.3796 0.0
C1591 C 0.87192 0.21163 0.3923 0.0
C1592 C 0.86084 0.15688 0.39868 0.0
C1593 C 0.87947 0.1405 0.47892 0.0
H1594 H 0.85319 0.05741 0.45577 0.0
C1595 C 0.87511 0.02153 0.54514 0.0
C1596 C 0.88339 0.99646 0.52585 0.0
C1597 C 0.87918 0.05202 0.53468 0.0
C1598 C 0.86083 0.08055 0.46232 0.0
H1599 H 0.86054 0.24068 0.43173 0.0
H1600 H 0.84561 0.19733 0.46526 0.0
H1601 H 0.83486 0.10186 0.42549 0.0
H1602 H 0.90835 0.98301 0.48435 0.0
H1603 H 0.91562 0.03625 0.46608 0.0
H1604 H 0.90532 0.11869 0.51601 0.0
C1605 C 0.8512 0.1927 0.44111 0.0
C1606 C 0.85007 0.10594 0.44525 0.0
C1607 C 0.85925 0.21757 0.42178 0.0
C1608 C 0.9018 1.00204 0.49956 0.0
C1609 C 0.90562 0.0325 0.48892 0.0
C1610 C 0.88991 0.11498 0.49633 0.0
C1611 C 0.85487 0.16198 0.43048 0.0
C1612 C 0.85994 0.13613 0.45277 0.0
C1613 C 0.89167 0.05727 0.50504 0.0
C1614 C 0.88139 0.08482 0.48745 0.0
H1615 H 0.87848 0.17672 0.35668 0.0
H1616 H 0.86343 0.13354 0.38952 0.0
H1617 H 0.88802 0.16343 0.48499 0.0
H1618 H 0.86086 0.01761 0.56557 0.0
H1619 H 0.86843 0.07087 0.54751 0.0
C1620 C 0.25945 0.93377 0.71014 0.0
C1621 C 0.24366 0.92102 0.73567 0.0
C1622 C 0.29131 0.92887 0.70678 0.0
C1623 C 0.36078 0.89929 0.74795 0.0
H1624 H 0.36201 0.98214 0.78435 0.0
C1625 C 0.39156 0.91134 0.86605 0.0
C1626 C 0.4242 0.91045 0.86732 0.0
C1627 C 0.37684 0.92523 0.84065 0.0
C1628 C 0.36286 0.95949 0.77329 0.0
H1629 H 0.24631 0.8883 0.7738 0.0
H1630 H 0.30189 0.87903 0.76779 0.0
H1631 H 0.32418 0.96975 0.74384 0.0
H1632 H 0.46651 0.93023 0.84776 0.0
H1633 H 0.44026 0.95452 0.80362 0.0
H1634 H 0.39776 0.88846 0.77962 0.0
C1635 C 0.29009 0.89307 0.7504 0.0
C1636 C 0.34136 0.95228 0.75 0.0
C1637 C 0.25824 0.89839 0.75402 0.0
C1638 C 0.4413 0.92968 0.84696 0.0
C1639 C 0.42648 0.94337 0.82142 0.0
C1640 C 0.38288 0.90679 0.77058 0.0
C1641 C 0.30727 0.9112 0.72915 0.0
C1642 C 0.33842 0.92141 0.73923 0.0
C1643 C 0.39472 0.93836 0.81671 0.0
C1644 C 0.38226 0.93616 0.78501 0.0
H1645 H 0.24809 0.95092 0.69561 0.0
H1646 H 0.304 0.94274 0.68998 0.0
H1647 H 0.35882 0.87539 0.74015 0.0
H1648 H 0.37773 0.89745 0.88191 0.0
H1649 H 0.35205 0.92162 0.83748 0.0
C1650 C 0.14458 0.5507 0.49718 0.0
C1651 C 0.16444 0.54688 0.52292 0.0
C1652 C 0.13415 0.52446 0.48128 0.0
C1653 C 0.14057 0.43889 0.47608 0.0
H1654 H 0.18026 0.45874 0.39725 0.0
C1655 C 0.14546 0.34487 0.39387 0.0
C1656 C 0.12247 0.35428 0.37254 0.0
C1657 C 0.16398 0.36732 0.40817 0.0
C1658 C 0.16964 0.45286 0.41935 0.0
H1659 H 0.18102 0.51434 0.55782 0.0
H1660 H 0.16279 0.46861 0.53021 0.0
H1661 H 0.17021 0.50001 0.43486 0.0
H1662 H 0.10621 0.39186 0.34308 0.0
H1663 H 0.13845 0.43094 0.36774 0.0
H1664 H 0.13937 0.39189 0.46042 0.0
C1665 C 0.15624 0.49134 0.52138 0.0
C1666 C 0.16315 0.47647 0.44052 0.0
C1667 C 0.16663 0.51756 0.53727 0.0
C1668 C 0.12327 0.38447 0.36022 0.0
C1669 C 0.14195 0.40682 0.3743 0.0
C1670 C 0.14705 0.41527 0.45491 0.0
C1671 C 0.14328 0.49477 0.49156 0.0
C1672 C 0.14785 0.46976 0.4687 0.0
C1673 C 0.15923 0.39888 0.401 0.0
C1674 C 0.16102 0.42216 0.42605 0.0
H1675 H 0.14175 0.57325 0.48616 0.0
H1676 H 0.12303 0.52747 0.45878 0.0
H1677 H 0.1293 0.43315 0.49788 0.0
H1678 H 0.14565 0.32142 0.40325 0.0
H1679 H 0.17798 0.36065 0.42814 0.0
C1680 C 0.61304 0.39781 0.65115 0.0
C1681 C 0.58084 0.40016 0.65626 0.0
C1682 C 0.63361 0.40338 0.6756 0.0
C1683 C 0.65134 0.43059 0.75153 0.0
H1684 H 0.68171 0.34626 0.7647 0.0
C1685 C 0.75535 0.41958 0.82328 0.0
C1686 C 0.77845 0.40924 0.80271 0.0
C1687 C 0.72463 0.41007 0.81918 0.0
C1688 C 0.67305 0.36978 0.76173 0.0
H1689 H 0.54555 0.41856 0.68722 0.0
H1690 H 0.58198 0.42924 0.72982 0.0
H1691 H 0.64237 0.35646 0.72471 0.0
H1692 H 0.78939 0.37706 0.76572 0.0
H1693 H 0.73583 0.36093 0.75779 0.0
H1694 H 0.6835 0.44458 0.78663 0.0
C1695 C 0.59092 0.42136 0.70762 0.0
C1696 C 0.65081 0.37565 0.73877 0.0
C1697 C 0.57023 0.41557 0.68312 0.0
C1698 C 0.77177 0.38525 0.78177 0.0
C1699 C 0.74094 0.37607 0.7773 0.0
C1700 C 0.6738 0.42481 0.77436 0.0
C1701 C 0.62212 0.41241 0.70475 0.0
C1702 C 0.64109 0.40628 0.73255 0.0
C1703 C 0.71685 0.39097 0.79382 0.0
C1704 C 0.68612 0.39457 0.77851 0.0
H1705 H 0.62189 0.38685 0.63024 0.0
H1706 H 0.65793 0.39727 0.6728 0.0
H1707 H 0.64371 0.45426 0.74722 0.0
H1708 H 0.76033 0.43794 0.83987 0.0
H1709 H 0.70661 0.4211 0.83292 0.0
C1710 C 0.61386 0.17155 0.64032 0.0
C1711 C 0.61524 0.20154 0.62747 0.0
C1712 C 0.62861 0.14689 0.62547 0.0
C1713 C 0.6426 0.1279 0.54477 0.0
H1714 H 0.66861 0.04857 0.5792 0.0
C1715 C 0.68899 0.0206 0.47948 0.0
C1716 C 0.6826 0.99156 0.49304 0.0
C1717 C 0.6756 0.04748 0.49166 0.0
C1718 C 0.66081 0.0705 0.56941 0.0
H1719 H 0.63746 0.23063 0.59287 0.0
H1720 H 0.66368 0.18742 0.56687 0.0
H1721 H 0.66671 0.09418 0.61278 0.0
H1722 H 0.65379 0.96684 0.52611 0.0
H1723 H 0.63029 1.01398 0.54751 0.0
H1724 H 0.63726 0.10404 0.5012 0.0
C1725 C 0.65043 0.18278 0.5878 0.0
C1726 C 0.66016 0.09665 0.58851 0.0
C1727 C 0.63579 0.20754 0.60288 0.0
C1728 C 0.65899 0.98907 0.51535 0.0
C1729 C 0.64585 0.01601 0.5278 0.0
C1730 C 0.64358 0.10174 0.52555 0.0
C1731 C 0.64494 0.15204 0.59764 0.0
C1732 C 0.65069 0.12554 0.57651 0.0
C1733 C 0.65599 0.04539 0.51762 0.0
C1734 C 0.65224 0.07277 0.53787 0.0
H1735 H 0.59833 0.16655 0.65954 0.0
H1736 H 0.62411 0.12354 0.63384 0.0
H1737 H 0.63447 0.14971 0.53499 0.0
H1738 H 0.7071 0.02286 0.46209 0.0
H1739 H 0.68359 0.06989 0.48328 0.0
C1740 C 0.22216 0.14349 0.76224 0.0
C1741 C 0.22732 0.11941 0.7837 0.0
C1742 C 0.24751 0.15676 0.74704 0.0
C1743 C 0.3326 0.15118 0.73532 0.0
H1744 H 0.30748 0.12195 0.65335 0.0
C1745 C 0.42375 0.14377 0.6455 0.0
C1746 C 0.41587 0.16631 0.62312 0.0
C1747 C 0.40022 0.12943 0.66255 0.0
C1748 C 0.31481 0.12999 0.67613 0.0
H1749 H 0.26174 0.09611 0.81236 0.0
H1750 H 0.30594 0.11936 0.78609 0.0
H1751 H 0.26851 0.12882 0.69381 0.0
H1752 H 0.37851 0.18566 0.59523 0.0
H1753 H 0.33754 0.16056 0.62454 0.0
H1754 H 0.37888 0.15269 0.71754 0.0
C1755 C 0.28279 0.1275 0.78012 0.0
C1756 C 0.29251 0.13456 0.6991 0.0
C1757 C 0.25748 0.11417 0.7952 0.0
C1758 C 0.38492 0.16882 0.61296 0.0
C1759 C 0.36143 0.15443 0.62988 0.0
C1760 C 0.35492 0.14677 0.71227 0.0
C1761 C 0.27772 0.14602 0.75366 0.0
C1762 C 0.30117 0.14549 0.72878 0.0
C1763 C 0.36901 0.13746 0.65686 0.0
C1764 C 0.34619 0.1363 0.68239 0.0
H1765 H 0.19896 0.14828 0.75346 0.0
H1766 H 0.24326 0.17183 0.72721 0.0
H1767 H 0.33982 0.15911 0.75818 0.0
H1768 H 0.4476 0.14105 0.65338 0.0
H1769 H 0.40653 0.11553 0.68268 0.0
C1770 C 0.3502 0.53333 0.59835 0.0
C1771 C 0.33553 0.53109 0.56925 0.0
C1772 C 0.33958 0.51556 0.6235 0.0
C1773 C 0.28743 0.44692 0.64014 0.0
H1774 H 0.32684 0.45842 0.7202 0.0
C1775 C 0.3512 0.35175 0.66755 0.0
C1776 C 0.38156 0.36366 0.66561 0.0
C1777 C 0.32732 0.36986 0.68019 0.0
C1778 C 0.31485 0.45505 0.69822 0.0
H1779 H 0.29855 0.50784 0.54357 0.0
H1780 H 0.27837 0.48014 0.58695 0.0
H1781 H 0.32283 0.50219 0.68462 0.0
H1782 H 0.41143 0.40206 0.67916 0.0
H1783 H 0.37072 0.43353 0.69988 0.0
H1784 H 0.28019 0.4001 0.65331 0.0
C1785 C 0.29905 0.49383 0.59094 0.0
C1786 C 0.31351 0.47998 0.67729 0.0
C1787 C 0.31062 0.51022 0.56565 0.0
C1788 C 0.38812 0.3925 0.67937 0.0
C1789 C 0.36447 0.41045 0.69199 0.0
C1790 C 0.28881 0.4224 0.66123 0.0
C1791 C 0.31339 0.49584 0.62038 0.0
C1792 C 0.30345 0.4749 0.6464 0.0
C1793 C 0.33323 0.40059 0.69007 0.0
C1794 C 0.3085 0.42484 0.68728 0.0
H1795 H 0.36965 0.54899 0.60181 0.0
H1796 H 0.35236 0.51726 0.64516 0.0
H1797 H 0.27713 0.44181 0.61778 0.0
H1798 H 0.34556 0.32906 0.65814 0.0
H1799 H 0.30382 0.36079 0.67959 0.0
C1800 C 0.78881 0.78327 0.62689 0.0
C1801 C 0.76595 0.78431 0.60363 0.0
C1802 C 0.80025 0.75455 0.63665 0.0
C1803 C 0.81272 0.68421 0.59281 0.0
H1804 H 0.86244 0.66053 0.66434 0.0
C1805 C 0.87047 0.57024 0.62577 0.0
C1806 C 0.89484 0.57408 0.64719 0.0
C1807 C 0.85983 0.59598 0.60908 0.0
C1808 C 0.84914 0.6674 0.64396 0.0
H1809 H 0.73184 0.7578 0.57769 0.0
H1810 H 0.75068 0.70746 0.59603 0.0
H1811 H 0.82398 0.7017 0.66965 0.0
H1812 H 0.93259 0.60393 0.66211 0.0
H1813 H 0.91434 0.64877 0.6325 0.0
H1814 H 0.83745 0.64899 0.56749 0.0
C1815 C 0.76098 0.72844 0.60551 0.0
C1816 C 0.8268 0.69055 0.64721 0.0
C1817 C 0.74991 0.75715 0.59537 0.0
C1818 C 0.91317 0.60102 0.64619 0.0
C1819 C 0.90279 0.62658 0.62919 0.0
C1820 C 0.83486 0.66071 0.58967 0.0
C1821 C 0.78834 0.72705 0.62342 0.0
C1822 C 0.80849 0.69934 0.62165 0.0
C1823 C 0.87384 0.62508 0.61404 0.0
C1824 C 0.85348 0.65246 0.61514 0.0
H1825 H 0.80129 0.80417 0.63358 0.0
H1826 H 0.82109 0.75424 0.65091 0.0
H1827 H 0.79952 0.69107 0.57238 0.0
H1828 H 0.85642 0.54929 0.6259 0.0
H1829 H 0.83774 0.59421 0.59694 0.0
C1830 C 0.72051 0.25411 0.91589 0.0
C1831 C 0.74675 0.23677 0.90727 0.0
C1832 C 0.71861 0.28556 0.90816 0.0
C1833 C 0.7645 0.35053 0.87499 0.0
H1834 H 0.78294 0.36825 0.96197 0.0
C1835 C 0.87361 0.40327 0.90151 0.0
C1836 C 0.86879 0.43545 0.89875 0.0
C1837 C 0.84963 0.38446 0.91245 0.0
C1838 C 0.77713 0.36413 0.93775 0.0
H1839 H 0.78829 0.23597 0.87911 0.0
H1840 H 0.78483 0.2906 0.86475 0.0
H1841 H 0.74697 0.32628 0.94865 0.0
H1842 H 0.83895 0.47392 0.91239 0.0
H1843 H 0.79685 0.44068 0.93066 0.0
H1844 H 0.79737 0.38629 0.86435 0.0
C1845 C 0.76576 0.28047 0.87774 0.0
C1846 C 0.75632 0.34042 0.92998 0.0
C1847 C 0.76787 0.24913 0.88592 0.0
C1848 C 0.84299 0.44904 0.91368 0.0
C1849 C 0.81874 0.43014 0.92406 0.0
C1850 C 0.78511 0.37426 0.8828 0.0
C1851 C 0.74302 0.29952 0.89168 0.0
C1852 C 0.75167 0.33199 0.89853 0.0
C1853 C 0.821 0.39789 0.92057 0.0
C1854 C 0.79286 0.37983 0.9141 0.0
H1855 H 0.70392 0.24451 0.93213 0.0
H1856 H 0.70065 0.2997 0.91879 0.0
H1857 H 0.76136 0.34446 0.85068 0.0
H1858 H 0.89356 0.39233 0.89065 0.0
H1859 H 0.85174 0.35944 0.90995 0.0
C1860 C 0.49093 1.00349 0.39395 0.0
C1861 C 0.4891 0.03022 0.3753 0.0
C1862 C 0.51996 0.9903 0.40022 0.0
C1863 C 0.60473 0.99585 0.38882 0.0
H1864 H 0.59323 0.91706 0.34595 0.0
C1865 C 0.70975 0.9223 0.36786 0.0
C1866 C 0.70549 0.89451 0.38447 0.0
C1867 C 0.68379 0.93899 0.3575 0.0
C1868 C 0.59683 0.93901 0.35783 0.0
H1869 H 0.51514 0.06813 0.35488 0.0
H1870 H 0.56588 0.04578 0.36684 0.0
H1871 H 0.54806 0.9485 0.35955 0.0
H1872 H 0.67254 0.85851 0.39667 0.0
H1873 H 0.62748 0.88689 0.37811 0.0
H1874 H 0.65345 0.986 0.38797 0.0
C1875 C 0.54527 0.03435 0.37575 0.0
C1876 C 0.571 0.95677 0.36605 0.0
C1877 C 0.51623 0.04734 0.36919 0.0
C1878 C 0.67616 0.88022 0.38428 0.0
C1879 C 0.65028 0.8967 0.37378 0.0
C1880 C 0.63063 0.97789 0.38091 0.0
C1881 C 0.54705 1.00431 0.38846 0.0
C1882 C 0.57471 0.98506 0.38208 0.0
C1883 C 0.65369 0.9275 0.36323 0.0
C1884 C 0.62691 0.94905 0.3657 0.0
H1885 H 0.47022 0.99004 0.39899 0.0
H1886 H 0.52096 0.96737 0.41074 0.0
H1887 H 0.6081 0.01784 0.40071 0.0
H1888 H 0.73236 0.93338 0.36721 0.0
H1889 H 0.6871 0.96228 0.34838 0.0
C1890 C 0.1272 0.12341 0.88746 0.0
C1891 C 0.13904 0.09301 0.88959 0.0
C1892 C 0.1469 0.1485 0.89296 0.0
C1893 C 0.22594 0.17347 0.91418 0.0
H1894 H 0.22123 0.21509 0.83382 0.0
C1895 C 0.30307 0.27216 0.89904 0.0
C1896 C 0.28272 0.29774 0.89891 0.0
C1897 C 0.29341 0.24397 0.88632 0.0
C1898 C 0.22306 0.20337 0.85612 0.0
H1899 H 0.17659 0.06467 0.90796 0.0
H1900 H 0.21098 0.1085 0.91783 0.0
H1901 H 0.18346 0.17477 0.8469 0.0
H1902 H 0.24027 0.3167 0.87937 0.0
H1903 H 0.22311 0.2676 0.85753 0.0
H1904 H 0.2648 0.20264 0.92396 0.0
C1905 C 0.18725 0.11312 0.91055 0.0
C1906 C 0.20119 0.18077 0.86388 0.0
C1907 C 0.16738 0.088 0.90522 0.0
C1908 C 0.25608 0.29702 0.88006 0.0
C1909 C 0.24625 0.26873 0.86757 0.0
C1910 C 0.24778 0.19612 0.90647 0.0
C1911 C 0.17808 0.14308 0.90122 0.0
C1912 C 0.20182 0.16647 0.8934 0.0
C1913 C 0.26325 0.24141 0.87393 0.0
C1914 C 0.24596 0.21199 0.87773 0.0
H1915 H 0.10494 0.12773 0.87629 0.0
H1916 H 0.13901 0.17171 0.88688 0.0
H1917 H 0.22716 0.16233 0.93682 0.0
H1918 H 0.32415 0.2726 0.91299 0.0
H1919 H 0.30738 0.22336 0.89051 0.0
C1920 C 0.88351 0.12712 0.8803 0.0
C1921 C 0.8514 0.12124 0.88141 0.0
C1922 C 0.9038 0.10287 0.87323 0.0
C1923 C 0.91729 0.0223 0.85475 0.0
H1924 H 0.94716 0.01847 0.94024 0.0
C1925 C 0.0168 0.95002 0.87154 0.0
C1926 C 0.03988 0.97172 0.87951 0.0
C1927 C 0.98655 0.95411 0.88244 0.0
C1928 C 0.93887 0.01896 0.91639 0.0
H1929 H 0.81496 0.08954 0.86652 0.0
H1930 H 0.85061 0.04737 0.85389 0.0
H1931 H 0.91314 0.06085 0.92392 0.0
H1932 H 0.05228 1.00923 0.91058 0.0
H1933 H 0.99992 0.01712 0.92895 0.0
H1934 H 0.94517 0.98237 0.84605 0.0
C1935 C 0.86006 0.06994 0.85986 0.0
C1936 C 0.91967 0.04333 0.907 0.0
C1937 C 0.83973 0.0943 0.86685 0.0
C1938 C 0.03449 0.99267 0.90376 0.0
C1939 C 1.00416 0.99713 0.91424 0.0
C1940 C 0.93734 0.99835 0.86387 0.0
C1941 C 0.8918 0.07326 0.86647 0.0
C1942 C 0.90988 0.04583 0.87586 0.0
C1943 C 0.97943 0.98061 0.90021 0.0
C1944 C 0.94976 0.99742 0.89443 0.0
H1945 H 0.893 0.14814 0.89053 0.0
H1946 H 0.92847 0.10596 0.87761 0.0
H1947 H 0.90927 0.02356 0.83083 0.0
H1948 H 0.02092 0.93309 0.8533 0.0
H1949 H 0.96817 0.93987 0.87265 0.0
C1950 C 0.6741 0.44503 0.13883 0.0
C1951 C 0.64738 0.43631 0.15551 0.0
C1952 C 0.69422 0.42216 0.1276 0.0
C1953 C 0.71727 0.34833 0.15816 0.0
H1954 H 0.76955 0.33962 0.0855 0.0
C1955 C 0.78169 0.23802 0.12909 0.0
C1956 C 0.80301 0.23907 0.10457 0.0
C1957 C 0.77017 0.26569 0.14139 0.0
C1958 C 0.75589 0.34231 0.10647 0.0
H1959 H 0.61711 0.39791 0.16767 0.0
H1960 H 0.65179 0.358 0.14717 0.0
H1961 H 0.72925 0.37946 0.08613 0.0
H1962 H 0.83431 0.26841 0.07828 0.0
H1963 H 0.81602 0.31681 0.10152 0.0
H1964 H 0.74388 0.31187 0.17895 0.0
C1965 C 0.65789 0.38227 0.14398 0.0
C1966 C 0.73243 0.36479 0.10645 0.0
C1967 C 0.63791 0.40506 0.15534 0.0
C1968 C 0.81736 0.26735 0.09689 0.0
C1969 C 0.80646 0.29501 0.10982 0.0
C1970 C 0.74104 0.32632 0.15847 0.0
C1971 C 0.6873 0.39064 0.13256 0.0
C1972 C 0.71239 0.3673 0.13195 0.0
C1973 C 0.78049 0.29455 0.12966 0.0
C1974 C 0.76013 0.32236 0.13232 0.0
H1975 H 0.6818 0.46904 0.13846 0.0
H1976 H 0.71666 0.42914 0.11849 0.0
H1977 H 0.70267 0.35057 0.17858 0.0
H1978 H 0.77046 0.21632 0.13538 0.0
H1979 H 0.75048 0.26413 0.15697 0.0
C1980 C 0.67756 0.14521 0.13188 0.0
C1981 C 0.70717 0.13157 0.13021 0.0
C1982 C 0.65319 0.12902 0.14566 0.0
C1983 C 0.6338 0.04718 0.14831 0.0
H1984 H 0.55419 0.07894 0.17621 0.0
C1985 C 0.52021 0.98249 0.18144 0.0
C1986 C 0.4928 0.99855 0.1736 0.0
C1987 C 0.54888 0.99356 0.17116 0.0
C1988 C 0.57628 0.06995 0.16801 0.0
H1989 H 0.73636 0.09405 0.14709 0.0
H1990 H 0.69377 0.06577 0.17174 0.0
H1991 H 0.60042 0.11135 0.18126 0.0
H1992 H 0.47279 0.03475 0.14471 0.0
H1993 H 0.52298 0.0543 0.12685 0.0
H1994 H 0.60931 1.00544 0.13566 0.0
C1995 C 0.68906 0.08832 0.16142 0.0
C1996 C 0.60274 0.08832 0.17126 0.0
C1997 C 0.71352 0.10471 0.14774 0.0
C1998 C 0.49372 0.02208 0.151 0.0
C1999 C 0.52241 0.03343 0.14105 0.0
C2000 C 0.60729 0.02857 0.14552 0.0
C2001 C 0.65831 0.09911 0.15803 0.0
C2002 C 0.63169 0.07746 0.1608 0.0
C2003 C 0.55008 0.02084 0.15327 0.0
C2004 C 0.57826 0.0402 0.15462 0.0
H2005 H 0.6723 0.16614 0.11874 0.0
H2006 H 0.62987 0.13825 0.14292 0.0
H2007 H 0.65565 0.03832 0.13942 0.0
H2008 H 0.51979 0.96412 0.19878 0.0
H2009 H 0.56998 0.98338 0.18062 0.0
C2010 C 0.51576 0.48174 0.21746 0.0
C2011 C 0.53903 0.49013 0.1962 0.0
C2012 C 0.50357 0.45179 0.21754 0.0
C2013 C 0.51172 0.37392 0.1766 0.0
H2014 H 0.42582 0.36864 0.20235 0.0
C2015 C 0.42095 0.35945 0.0971 0.0
C2016 C 0.39005 0.3559 0.10687 0.0
C2017 C 0.44532 0.35167 0.11705 0.0
C2018 C 0.45015 0.36874 0.19582 0.0
H2019 H 0.56542 0.47461 0.15611 0.0
H2020 H 0.5416 0.42381 0.15369 0.0
H2021 H 0.45637 0.41085 0.21999 0.0
H2022 H 0.36047 0.33653 0.14306 0.0
H2023 H 0.40313 0.32358 0.17806 0.0
H2024 H 0.50321 0.33322 0.14918 0.0
C2025 C 0.53463 0.43912 0.17238 0.0
C2026 C 0.46802 0.3937 0.20584 0.0
C2027 C 0.54781 0.46876 0.17315 0.0
C2028 C 0.38407 0.3408 0.13534 0.0
C2029 C 0.4085 0.3327 0.15516 0.0
C2030 C 0.49345 0.34925 0.16601 0.0
C2031 C 0.51291 0.42978 0.19515 0.0
C2032 C 0.49806 0.39839 0.19369 0.0
C2033 C 0.43918 0.34069 0.14735 0.0
C2034 C 0.46142 0.3491 0.17228 0.0
H2035 H 0.50833 0.49763 0.23557 0.0
H2036 H 0.48761 0.44602 0.23605 0.0
H2037 H 0.5357 0.37497 0.16907 0.0
H2038 H 0.42638 0.36996 0.07483 0.0
H2039 H 0.46867 0.35792 0.10995 0.0
C2040 C 0.03437 0.6547 0.22863 0.0
C2041 C 1.00601 0.67138 0.22649 0.0
C2042 C 0.03557 0.62241 0.23615 0.0
C2043 C 0.98365 0.54847 0.24375 0.0
H2044 H 0.06158 0.5111 0.26898 0.0
C2045 C 0.99485 0.41002 0.26328 0.0
C2046 C 0.01736 0.39871 0.28466 0.0
C2047 C 0.9936 0.44227 0.25434 0.0
C2048 C 0.03919 0.52052 0.26237 0.0
H2049 H 0.95629 0.66473 0.22985 0.0
H2050 H 0.95811 0.60984 0.24483 0.0
H2051 H 0.05848 0.56653 0.26141 0.0
H2052 H 0.05736 0.41409 0.31137 0.0
H2053 H 0.0555 0.46801 0.2964 0.0
H2054 H 0.96421 0.50215 0.24602 0.0
C2055 C 0.97996 0.62151 0.24054 0.0
C2056 C 0.03751 0.55326 0.25734 0.0
C2057 C 0.97883 0.65387 0.23279 0.0
C2058 C 0.03961 0.42096 0.29473 0.0
C2059 C 0.03845 0.45274 0.28595 0.0
C2060 C 0.98526 0.5156 0.24912 0.0
C2061 C 1.00836 0.60442 0.24175 0.0
C2062 C 1.00973 0.56851 0.24781 0.0
C2063 C 0.01502 0.46486 0.26607 0.0
C2064 C 1.0131 0.50049 0.25877 0.0
H2065 H 0.05589 0.66633 0.22254 0.0
H2066 H 0.05821 0.61144 0.23594 0.0
H2067 H 0.96161 0.55795 0.23605 0.0
H2068 H 0.97714 0.39434 0.2547 0.0
H2069 H 0.97531 0.44946 0.23851 0.0
C2070 C 0.6235 0.7953 0.99179 0.0
C2071 C 0.60988 0.76991 0.97578 0.0
C2072 C 0.6559 0.79564 0.99993 0.0
C2073 C 0.72963 0.74346 1.0013 0.0
H2074 H 0.77425 0.82135 1.00851 0.0
C2075 C 0.86126 0.74443 0.03983 0.0
C2076 C 0.88157 0.76965 0.03381 0.0
C2077 C 0.82942 0.74479 0.03125 0.0
C2078 C 0.76255 0.79916 1.00626 0.0
H2079 H 0.62141 0.72501 0.95612 0.0
H2080 H 0.67607 0.72551 0.96956 0.0
H2081 H 0.71798 0.82152 0.99908 0.0
H2082 H 0.88238 0.81541 1.01279 0.0
H2083 H 0.82751 0.8153 0.99568 0.0
H2084 H 0.7738 0.72097 1.00723 0.0
C2085 C 0.66221 0.74515 0.97697 0.0
C2086 C 0.7296 0.79926 1.00124 0.0
C2087 C 0.63014 0.74476 0.96918 0.0
C2088 C 0.86841 0.79491 0.01713 0.0
C2089 C 0.83628 0.79509 1.00795 0.0
C2090 C 0.76236 0.74337 1.00606 0.0
C2091 C 0.67641 0.77079 0.99208 0.0
C2092 C 0.71209 0.77133 0.99857 0.0
C2093 C 0.81556 0.7704 0.01572 0.0
C2094 C 0.77996 0.77114 1.0089 0.0
H2095 H 0.60963 0.81575 0.99652 0.0
H2096 H 0.66493 0.81595 1.01177 0.0
H2097 H 0.71813 0.72112 1.0001 0.0
H2098 H 0.86965 0.72478 0.05334 0.0
H2099 H 0.81539 0.72522 0.03851 0.0
C2100 C 1.01224 0.15325 0.28484 0.0
C2101 C 0.9845 0.17078 0.28785 0.0
C2102 C 1.01202 0.12102 0.27667 0.0
C2103 C 0.95652 0.05012 0.27058 0.0
H2104 H 0.02909 1.00842 0.23742 0.0
C2105 C 0.95081 0.91919 0.22689 0.0
C2106 C 0.97731 0.89957 0.22752 0.0
C2107 C 0.95204 0.95103 0.23586 0.0
C2108 C 1.00851 0.01927 0.24702 0.0
H2109 H 0.93451 0.1663 0.28476 0.0
H2110 H 0.9339 0.11181 0.26874 0.0
H2111 H 0.03051 0.06435 0.24724 0.0
H2112 H 0.02662 0.90023 0.23777 0.0
H2113 H 0.02888 0.95513 0.25385 0.0
H2114 H 0.93445 1.0051 0.27008 0.0
C2115 C 0.95629 0.12244 0.27313 0.0
C2116 C 1.0093 0.05202 0.25277 0.0
C2117 C 0.95658 0.1545 0.28161 0.0
C2118 C 1.00523 0.9136 0.23806 0.0
C2119 C 1.00663 0.94573 0.24667 0.0
C2120 C 0.95567 0.0175 0.26465 0.0
C2121 C 0.98393 0.10433 0.27121 0.0
C2122 C 0.98327 0.0686 0.26466 0.0
C2123 C 0.98012 0.96557 0.24532 0.0
C2124 C 0.98159 1.00101 0.25262 0.0
H2125 H 0.03428 0.164 0.29076 0.0
H2126 H 0.03411 0.10896 0.27618 0.0
H2127 H 0.9359 0.06062 0.28042 0.0
H2128 H 0.92906 0.91021 0.21776 0.0
H2129 H 0.93094 0.96466 0.23371 0.0
C2130 C 0.363 0.828 0.98519 0.0
C2131 C 0.38142 0.80072 0.98337 0.0
C2132 C 0.33092 0.82733 0.99333 0.0
C2133 C 0.26416 0.77399 0.02203 0.0
H2134 H 0.21225 0.84075 0.99048 0.0
C2135 C 0.12609 0.76996 0.03567 0.0
C2136 C 0.10922 0.79797 0.03978 0.0
C2137 C 0.15831 0.76975 0.02758 0.0
C2138 C 0.22604 0.82188 0.99997 0.0
H2139 H 0.37826 0.75074 0.9883 0.0
H2140 H 0.3231 0.7493 1.0027 0.0
H2141 H 0.26798 0.84138 0.98097 0.0
H2142 H 0.11495 0.84795 0.0389 0.0
H2143 H 0.1698 0.84783 0.02374 0.0
H2144 H 0.22192 0.75441 0.04076 0.0
C2145 C 0.33361 0.77182 0.99873 0.0
C2146 C 0.25877 0.82226 0.9945 0.0
C2147 C 0.36593 0.7726 0.9908 0.0
C2148 C 0.12618 0.82575 0.03475 0.0
C2149 C 0.15826 0.8256 0.02628 0.0
C2150 C 0.23136 0.77356 0.02741 0.0
C2151 C 0.31483 0.79915 0.99947 0.0
C2152 C 0.27902 0.79844 1.00549 0.0
C2153 C 0.1756 0.7976 0.02323 0.0
C2154 C 0.21124 0.79757 0.01667 0.0
H2155 H 0.37314 0.85013 0.9786 0.0
H2156 H 0.31862 0.84929 0.99403 0.0
H2157 H 0.27792 0.7551 0.03151 0.0
H2158 H 0.11476 0.74796 0.04046 0.0
H2159 H 0.16977 0.74743 0.02533 0.0
C2160 C 0.29357 0.99595 0.40481 0.0
C2161 C 0.28939 0.02176 0.38465 0.0
C2162 C 0.28445 0.99653 0.43665 0.0
C2163 C 0.23821 0.0424 0.49786 0.0
H2164 H 0.28872 0.99603 0.55663 0.0
C2165 C 0.21347 0.05277 0.63325 0.0
C2166 C 0.22232 0.02918 0.65461 0.0
C2167 C 0.22275 0.05256 0.60148 0.0
C2168 C 0.27378 1.00899 0.54098 0.0
H2169 H 0.27266 0.06923 0.38439 0.0
H2170 H 0.25567 0.07004 0.43902 0.0
H2171 H 0.30036 0.99386 0.50122 0.0
H2172 H 0.2486 0.98639 0.65708 0.0
H2173 H 0.26457 0.98555 0.60249 0.0
H2174 H 0.21123 0.05713 0.53721 0.0
C2175 C 0.26562 0.04873 0.43003 0.0
C2176 C 0.28062 1.00772 0.50849 0.0
C2177 C 0.27503 0.04818 0.3981 0.0
C2178 C 0.24179 1.00562 0.64239 0.0
C2179 C 0.25083 1.00511 0.61032 0.0
C2180 C 0.23117 0.04346 0.5303 0.0
C2181 C 0.2708 0.02316 0.45051 0.0
C2182 C 0.26309 0.02442 0.48588 0.0
C2183 C 0.24098 0.02825 0.58858 0.0
C2184 C 0.24879 0.02692 0.55307 0.0
H2185 H 0.30567 0.97552 0.3963 0.0
H2186 H 0.28881 0.97598 0.4506 0.0
H2187 H 0.22348 0.05543 0.48202 0.0
H2188 H 0.19804 0.07118 0.64093 0.0
H2189 H 0.2149 0.07162 0.587 0.0
C2190 C 0.29168 0.50308 0.90329 0.0
C2191 C 0.26445 0.49281 0.91865 0.0
C2192 C 0.2917 0.51175 0.87109 0.0
C2193 C 0.24185 0.5053 0.79555 0.0
H2194 H 0.30714 0.55627 0.76074 0.0
C2195 C 0.2526 0.53024 0.65691 0.0
C2196 C 0.26579 0.55898 0.64747 0.0
C2197 C 0.25195 0.52092 0.68921 0.0
C2198 C 0.28828 0.54217 0.76958 0.0
H2199 H 0.21554 0.48541 0.9106 0.0
H2200 H 0.21481 0.50165 0.85601 0.0
H2201 H 0.30621 0.5461 0.81627 0.0
H2202 H 0.28735 0.60034 0.66723 0.0
H2203 H 0.28691 0.58441 0.72063 0.0
H2204 H 0.2237 0.502 0.74855 0.0
C2205 C 0.23681 0.50232 0.86832 0.0
C2206 C 0.288 0.53585 0.80219 0.0
C2207 C 0.23696 0.49361 0.90038 0.0
C2208 C 0.27771 0.57759 0.67216 0.0
C2209 C 0.27758 0.56824 0.70372 0.0
C2210 C 0.24213 0.51165 0.7628 0.0
C2211 C 0.26438 0.51065 0.85222 0.0
C2212 C 0.26467 0.5174 0.81642 0.0
C2213 C 0.26487 0.53963 0.71355 0.0
C2214 C 0.26517 0.53064 0.74879 0.0
H2215 H 0.31371 0.50214 0.91559 0.0
H2216 H 0.31383 0.51768 0.86073 0.0
H2217 H 0.22355 0.49046 0.80435 0.0
H2218 H 0.24232 0.51513 0.63955 0.0
H2219 H 0.2417 0.49865 0.69494 0.0
C2220 C 0.78669 0.4708 0.63906 0.0
C2221 C 0.79178 0.49768 0.65742 0.0
C2222 C 0.77885 0.47253 0.60685 0.0
C2223 C 0.78134 0.52741 0.53599 0.0
H2224 H 0.7341 0.4618 0.4963 0.0
C2225 C 0.74461 0.53403 0.40141 0.0
C2226 C 0.73692 0.50665 0.38478 0.0
C2227 C 0.75278 0.53344 0.43372 0.0
C2228 C 0.74786 0.48031 0.50639 0.0
H2229 H 0.79374 0.54786 0.65405 0.0
H2230 H 0.77939 0.55112 0.59875 0.0
H2231 H 0.74326 0.46021 0.55212 0.0
H2232 H 0.7322 0.45699 0.39091 0.0
H2233 H 0.74775 0.45545 0.44553 0.0
H2234 H 0.78598 0.54747 0.49015 0.0
C2235 C 0.781 0.52829 0.60931 0.0
C2236 C 0.75314 0.4794 0.53916 0.0
C2237 C 0.78856 0.5265 0.64169 0.0
C2238 C 0.73886 0.47861 0.40199 0.0
C2239 C 0.74711 0.4779 0.43412 0.0
C2240 C 0.77615 0.52827 0.50311 0.0
C2241 C 0.77639 0.5013 0.59074 0.0
C2242 C 0.7701 0.50286 0.55505 0.0
C2243 C 0.75339 0.50538 0.45135 0.0
C2244 C 0.75933 0.50466 0.48719 0.0
H2245 H 0.79041 0.44805 0.64933 0.0
H2246 H 0.77629 0.45088 0.59424 0.0
H2247 H 0.7949 0.54595 0.54632 0.0
H2248 H 0.74224 0.55635 0.3899 0.0
H2249 H 0.75703 0.55545 0.44515 0.0
C2250 C 0.7893 0.02302 0.88001 0.0
C2251 C 0.76326 0.03862 0.89268 0.0
C2252 C 0.79069 1.01453 0.84783 0.0
C2253 C 0.74149 1.00795 0.77274 0.0
H2254 H 0.82101 1.01273 0.73103 0.0
C2255 C 0.74891 0.99358 0.6351 0.0
C2256 C 0.77642 0.98214 0.62115 0.0
C2257 C 0.74762 1.00162 0.66735 0.0
C2258 C 0.79841 1.01076 0.74188 0.0
H2259 H 0.71798 0.05671 0.8797 0.0
H2260 H 0.71986 0.04152 0.82515 0.0
H2261 H 0.818 0.02121 0.78705 0.0
H2262 H 0.82384 0.96932 0.63219 0.0
H2263 H 0.82201 0.98328 0.68712 0.0
H2264 H 0.72184 0.9972 0.72787 0.0
C2265 C 0.73946 0.03537 0.83982 0.0
C2266 C 0.79671 0.01572 0.77468 0.0
C2267 C 0.73823 0.04398 0.87172 0.0
C2268 C 0.80257 0.97946 0.64112 0.0
C2269 C 0.80131 0.9873 0.67329 0.0
C2270 C 0.74321 1.0028 0.74 0.0
C2271 C 0.76606 0.02117 0.82661 0.0
C2272 C 0.76818 1.01457 0.79112 0.0
C2273 C 0.77361 0.998 0.6877 0.0
C2274 C 0.77171 1.00412 0.72341 0.0
H2275 H 0.80954 0.01907 0.89441 0.0
H2276 H 0.8116 1.00327 0.83947 0.0
H2277 H 0.71892 1.0062 0.7837 0.0
H2278 H 0.72772 0.99478 0.62141 0.0
H2279 H 0.7257 1.01005 0.67636 0.0
C2280 C 0.28695 0.03711 0.13928 0.0
C2281 C 0.29309 1.00902 0.15546 0.0
C2282 C 0.27872 0.03756 0.10702 0.0
C2283 C 0.25558 0.98489 0.03774 0.0
H2284 H 0.28028 0.05568 0.98779 0.0
C2285 C 0.24131 0.98129 0.90047 0.0
C2286 C 0.23568 1.00883 0.88323 0.0
C2287 C 0.24971 0.98175 0.93258 0.0
C2288 C 0.27275 0.03564 1.00103 0.0
H2289 H 0.2961 0.95932 0.14832 0.0
H2290 H 0.28112 0.95978 0.0934 0.0
H2291 H 0.28967 0.05578 0.04386 0.0
H2292 H 0.23426 0.05883 0.88835 0.0
H2293 H 0.24926 0.05999 0.94344 0.0
H2294 H 0.23851 0.96476 0.99512 0.0
C2295 C 0.28178 0.98181 0.10556 0.0
C2296 C 0.27819 0.03572 0.03386 0.0
C2297 C 0.29015 0.98144 0.13769 0.0
C2298 C 0.2397 0.03701 0.89981 0.0
C2299 C 0.24802 0.03757 0.93205 0.0
C2300 C 0.2501 0.98482 1.00498 0.0
C2301 C 0.2765 1.00993 0.08896 0.0
C2302 C 0.26986 1.01029 0.05328 0.0
C2303 C 0.25243 1.00988 0.94971 0.0
C2304 C 0.25862 1.01012 0.98548 0.0
H2305 H 0.29025 0.05909 0.15118 0.0
H2306 H 0.27474 0.05994 0.09612 0.0
H2307 H 0.24798 0.96484 0.05096 0.0
H2308 H 0.2374 0.95896 0.88947 0.0
H2309 H 0.25327 0.95963 0.9441 0.0
C2310 C 0.29214 0.51226 0.40296 0.0
C2311 C 0.26658 0.52795 0.41652 0.0
C2312 C 0.2922 0.50285 0.37107 0.0
C2313 C 0.2412 0.49848 0.29605 0.0
H2314 H 0.32121 0.49081 0.2557 0.0
C2315 C 0.2526 0.48073 0.15762 0.0
C2316 C 0.27727 0.46197 0.14639 0.0
C2317 C 0.25067 0.48965 0.18976 0.0
C2318 C 0.29841 0.49244 0.26622 0.0
H2319 H 0.22122 0.54652 0.40485 0.0
H2320 H 0.2208 0.52997 0.35054 0.0
H2321 H 0.3187 0.50195 0.31103 0.0
H2322 H 0.3192 0.4385 0.1618 0.0
H2323 H 0.31637 0.45418 0.21608 0.0
H2324 H 0.22107 0.48937 0.25072 0.0
C2325 C 0.24085 0.52381 0.36454 0.0
C2326 C 0.29692 0.49886 0.29874 0.0
C2327 C 0.24081 0.53305 0.39645 0.0
C2328 C 0.30006 0.45338 0.16874 0.0
C2329 C 0.29837 0.46251 0.20046 0.0
C2330 C 0.24271 0.49221 0.26338 0.0
C2331 C 0.26693 0.50919 0.35049 0.0
C2332 C 0.26829 0.50191 0.31489 0.0
C2333 C 0.27344 0.48052 0.21222 0.0
C2334 C 0.27139 0.48877 0.24747 0.0
H2335 H 0.3132 0.50903 0.41654 0.0
H2336 H 0.31282 0.49129 0.36247 0.0
H2337 H 0.2184 0.50009 0.30652 0.0
H2338 H 0.23398 0.48739 0.14191 0.0
H2339 H 0.23101 0.50363 0.19701 0.0
C2340 C 0.72242 0.55676 0.13589 0.0
C2341 C 0.72772 0.53167 0.1566 0.0
C2342 C 0.73059 0.5555 0.10393 0.0
C2343 C 0.75424 0.49907 0.03794 0.0
H2344 H 0.76211 0.57612 0.99202 0.0
C2345 C 0.77265 0.49929 0.89943 0.0
C2346 C 0.78851 0.52455 0.88547 0.0
C2347 C 0.76369 0.49982 0.93157 0.0
C2348 C 0.76047 0.55401 1.00394 0.0
H2349 H 0.74575 0.48466 0.15785 0.0
H2350 H 0.76144 0.48276 0.10283 0.0
H2351 H 0.75402 0.57746 0.04745 0.0
H2352 H 0.80709 0.57011 0.89607 0.0
H2353 H 0.79218 0.57115 0.95026 0.0
H2354 H 0.76212 0.47573 0.99412 0.0
C2355 C 0.75069 0.50387 0.11131 0.0
C2356 C 0.75509 0.55481 0.03657 0.0
C2357 C 0.74236 0.50519 0.14356 0.0
C2358 C 0.79407 0.55047 0.90504 0.0
C2359 C 0.78546 0.55095 0.93687 0.0
C2360 C 0.75995 0.49826 1.00514 0.0
C2361 C 0.74455 0.52888 0.09032 0.0
C2362 C 0.7516 0.52744 0.05474 0.0
C2363 C 0.77054 0.52545 0.95151 0.0
C2364 C 0.76329 0.52578 0.98705 0.0
H2365 H 0.71013 0.57718 0.14415 0.0
H2366 H 0.72433 0.57531 0.08969 0.0
H2367 H 0.75154 0.47711 0.04998 0.0
H2368 H 0.76882 0.47826 0.88609 0.0
H2369 H 0.75198 0.47958 0.94087 0.0
C2370 C 0.81992 0.0386 0.13894 0.0
C2371 C 0.79253 0.04032 0.12063 0.0
C2372 C 0.81936 0.03055 0.17105 0.0
C2373 C 0.76549 0.02722 0.24191 0.0
H2374 H 0.83621 0.98702 0.28093 0.0
C2375 C 0.76507 0.99193 0.37669 0.0
C2376 C 0.79339 0.98677 0.39281 0.0
C2377 C 0.76425 0.99969 0.34435 0.0
C2378 C 0.81625 0.99883 0.27104 0.0
H2379 H 0.74254 0.03556 0.12378 0.0
H2380 H 0.7414 0.02089 0.17913 0.0
H2381 H 0.83591 0.99576 0.22509 0.0
H2382 H 0.84317 0.98607 0.38592 0.0
H2383 H 0.84216 1.00147 0.33127 0.0
H2384 H 0.7459 0.03045 0.28797 0.0
C2385 C 0.76375 0.02546 0.16853 0.0
C2386 C 0.81605 1.00382 0.23828 0.0
C2387 C 0.76442 0.03318 0.13617 0.0
C2388 C 0.82082 0.99086 0.37518 0.0
C2389 C 0.8201 0.99893 0.34306 0.0
C2390 C 0.76575 0.02237 0.27481 0.0
C2391 C 0.79121 0.02446 0.18706 0.0
C2392 C 0.79074 0.01824 0.22267 0.0
C2393 C 0.79179 1.00259 0.32629 0.0
C2394 C 0.79123 1.00814 0.29047 0.0
H2395 H 0.84196 0.04527 0.12872 0.0
H2396 H 0.8412 0.0308 0.18369 0.0
H2397 H 0.74552 0.03876 0.23168 0.0
H2398 H 0.74326 0.98776 0.38858 0.0
H2399 H 0.7417 1.00175 0.33328 0.0
C2400 C 0.64672 0.22668 0.04387 0.0
C2401 C 0.66698 0.23004 0.01815 0.0
C2402 C 0.61482 0.23528 0.04261 0.0
C2403 C 0.54848 0.25737 0.98531 0.0
H2404 H 0.50269 0.26779 0.06198 0.0
C2405 C 0.41087 0.27907 0.9833 0.0
C2406 C 0.39651 0.29434 1.00862 0.0
C2407 C 0.44286 0.26974 0.98441 0.0
C2408 C 0.51458 0.26547 0.03996 0.0
H2409 H 0.66727 0.24525 0.9702 0.0
H2410 H 0.61274 0.26182 0.96816 0.0
H2411 H 0.55798 0.25886 0.06377 0.0
H2412 H 0.40589 0.3115 0.05486 0.0
H2413 H 0.46018 0.29643 0.05692 0.0
H2414 H 0.50496 0.2655 0.96154 0.0
C2415 C 0.62141 0.25215 0.98978 0.0
C2416 C 0.54715 0.25959 0.04103 0.0
C2417 C 0.65352 0.24332 0.9911 0.0
C2418 C 0.41548 0.29925 0.03509 0.0
C2419 C 0.44726 0.29038 0.03616 0.0
C2420 C 0.51583 0.26367 0.98422 0.0
C2421 C 0.60082 0.24779 0.01536 0.0
C2422 C 0.56529 0.25519 1.01379 0.0
C2423 C 0.46231 0.27576 1.01069 0.0
C2424 C 0.49776 0.26797 1.01155 0.0
H2425 H 0.65523 0.2155 0.06488 0.0
H2426 H 0.60096 0.23045 0.063 0.0
H2427 H 0.56038 0.25389 0.96343 0.0
H2428 H 0.39782 0.27559 0.96197 0.0
H2429 H 0.45236 0.2583 0.96413 0.0
C2430 C 0.65125 0.79647 0.46925 0.0
C2431 C 0.67332 0.79197 0.49347 0.0
C2432 C 0.61984 0.78635 0.47149 0.0
C2433 C 0.55767 0.76081 0.53051 0.0
H2434 H 0.50863 0.74479 0.45638 0.0
C2435 C 0.42764 0.7147 0.5394 0.0
C2436 C 0.40555 0.71925 0.51523 0.0
C2437 C 0.45917 0.72438 0.53688 0.0
C2438 C 0.52144 0.74953 0.47759 0.0
H2439 H 0.67747 0.77287 0.53993 0.0
H2440 H 0.62346 0.75403 0.5435 0.0
H2441 H 0.56377 0.75705 0.45189 0.0
H2442 H 0.40142 0.73737 0.4686 0.0
H2443 H 0.4557 0.75531 0.4642 0.0
H2444 H 0.51535 0.75336 0.55621 0.0
C2445 C 0.6305 0.76575 0.52235 0.0
C2446 C 0.55379 0.75667 0.47499 0.0
C2447 C 0.66219 0.77594 0.52004 0.0
C2448 C 0.41684 0.7344 0.48829 0.0
C2449 C 0.44864 0.74409 0.48561 0.0
C2450 C 0.52532 0.75367 0.53311 0.0
C2451 C 0.60813 0.77127 0.49836 0.0
C2452 C 0.57302 0.76256 0.50136 0.0
C2453 C 0.47097 0.73898 0.50976 0.0
C2454 C 0.50609 0.74771 0.50674 0.0
H2455 H 0.65795 0.80953 0.44873 0.0
H2456 H 0.60436 0.7919 0.45235 0.0
H2457 H 0.5705 0.76559 0.5517 0.0
H2458 H 0.4207 0.70246 0.56034 0.0
H2459 H 0.4746 0.71907 0.55612 0.0
C2460 C 0.97937 0.37092 0.8166 0.0
C2461 C 0.97838 0.38909 0.7891 0.0
C2462 C 0.98701 0.33865 0.81647 0.0
C2463 C 1.01174 0.26966 0.76268 0.0
H2464 H 0.98791 0.22063 0.83443 0.0
C2465 C 0.02082 0.13069 0.76216 0.0
C2466 C 0.03011 0.11508 0.78976 0.0
C2467 C 1.0131 0.16309 0.76174 0.0
C2468 C 0.9951 0.23362 0.81407 0.0
H2469 H 0.98448 0.38532 0.73932 0.0
H2470 H 0.99731 0.32986 0.73866 0.0
H2471 H 0.97927 0.27637 0.8343 0.0
H2472 H 0.0386 0.12356 0.83869 0.0
H2473 H 0.02374 0.1785 0.8385 0.0
H2474 H 0.02684 0.22618 0.74234 0.0
C2475 C 0.99321 0.34053 0.76105 0.0
C2476 C 0.99021 0.26647 0.81398 0.0
C2477 C 0.98609 0.3731 0.76135 0.0
C2478 C 0.03013 0.13357 0.81709 0.0
C2479 C 0.022 0.16577 0.81683 0.0
C2480 C 0.01627 0.23666 0.76265 0.0
C2481 C 0.99319 0.32193 0.78859 0.0
C2482 C 0.99856 0.28582 0.78839 0.0
C2483 C 1.01414 0.18182 0.78899 0.0
C2484 C 1.00825 0.21761 0.78843 0.0
H2485 H 0.97268 0.38148 0.83849 0.0
H2486 H 0.98723 0.32684 0.83869 0.0
H2487 H 0.01916 0.28241 0.7423 0.0
H2488 H 0.02167 0.11832 0.74021 0.0
H2489 H 1.00699 0.17363 0.73965 0.0
C2490 C 0.5256 0.64305 0.26406 0.0
C2491 C 0.53876 0.6289 0.29085 0.0
C2492 C 0.51754 0.6754 0.26331 0.0
C2493 C 0.51147 0.74873 0.3159 0.0
H2494 H 0.50915 0.79335 0.23758 0.0
C2495 C 0.47388 0.88069 0.31293 0.0
C2496 C 0.48074 0.90099 0.28791 0.0
C2497 C 0.48246 0.84883 0.31297 0.0
C2498 C 0.50998 0.78171 0.25993 0.0
H2499 H 0.55409 0.63963 0.3376 0.0
H2500 H 0.54016 0.69427 0.33677 0.0
H2501 H 0.51897 0.73733 0.23816 0.0
H2502 H 0.50279 0.90166 0.24273 0.0
H2503 H 0.51883 0.84654 0.24303 0.0
H2504 H 0.50391 0.79278 0.33791 0.0
C2505 C 0.53484 0.68077 0.31621 0.0
C2506 C 0.51524 0.74882 0.26025 0.0
C2507 C 0.54273 0.64867 0.3169 0.0
C2508 C 0.49778 0.88765 0.26309 0.0
C2509 C 0.50639 0.85537 0.26303 0.0
C2510 C 0.50654 0.78145 0.31561 0.0
C2511 C 0.52256 0.69548 0.28923 0.0
C2512 C 0.51613 0.73121 0.28831 0.0
C2513 C 0.49838 0.83477 0.28781 0.0
C2514 C 0.50536 0.79913 0.28766 0.0
H2515 H 0.5234 0.6296 0.24284 0.0
H2516 H 0.50801 0.68471 0.24189 0.0
H2517 H 0.51124 0.73725 0.33832 0.0
H2518 H 0.45989 0.88911 0.33209 0.0
H2519 H 0.47493 0.83492 0.33246 0.0
C2520 C 0.9237 0.8 0.54027 0.0
C2521 C 0.90316 0.79646 0.51459 0.0
C2522 C 0.95572 0.79156 0.53899 0.0
C2523 C 0.02234 0.77596 0.4817 0.0
H2524 H 0.06776 0.75197 0.55594 0.0
C2525 C 0.15665 0.74063 0.47538 0.0
C2526 C 0.17607 0.73983 0.50214 0.0
C2527 C 0.12447 0.74875 0.47668 0.0
C2528 C 0.05609 0.75912 0.53476 0.0
H2529 H 0.90245 0.78095 0.46669 0.0
H2530 H 0.95758 0.76508 0.46469 0.0
H2531 H 1.01192 0.76104 0.55847 0.0
H2532 H 0.17425 0.7466 0.55197 0.0
H2533 H 0.11956 0.76241 0.55429 0.0
H2534 H 0.0664 0.77455 0.45801 0.0
C2535 C 0.94879 0.77472 0.48621 0.0
C2536 C 0.02327 0.76431 0.53624 0.0
C2537 C 0.9165 0.78314 0.48757 0.0
C2538 C 0.16132 0.74838 0.53034 0.0
C2539 C 0.12904 0.75662 0.53173 0.0
C2540 C 0.05522 0.77101 0.48025 0.0
C2541 C 0.96959 0.77941 0.51168 0.0
C2542 C 1.00528 0.77288 0.50977 0.0
C2543 C 0.10925 0.75626 0.50503 0.0
C2544 C 0.07332 0.76238 0.50673 0.0
H2545 H 0.91524 0.81102 0.56128 0.0
H2546 H 0.96996 0.79615 0.55931 0.0
H2547 H 1.01039 0.78295 0.46058 0.0
H2548 H 0.16591 0.73263 0.45334 0.0
H2549 H 0.11125 0.7473 0.45527 0.0
C2550 C 0.0566 0.86624 0.73905 0.0
C2551 C 0.04647 0.88722 0.76238 0.0
C2552 C 0.04776 0.83446 0.73852 0.0
C2553 C 0.01657 0.76792 0.78838 0.0
H2554 H 1.00961 0.72603 0.70885 0.0
C2555 C 1.00056 0.6292 0.7789 0.0
C2556 C 0.98071 0.61766 0.75521 0.0
C2557 C 1.00976 0.66129 0.78002 0.0
C2558 C 1.01124 0.73692 0.73151 0.0
H2559 H 0.01863 0.88908 0.80423 0.0
H2560 H 1.00242 0.83383 0.80302 0.0
H2561 H 0.01949 0.78172 0.71063 0.0
H2562 H 0.95703 0.63232 0.71302 0.0
H2563 H 0.9733 0.68631 0.71435 0.0
H2564 H 1.00798 0.7228 0.80916 0.0
C2565 C 0.0175 0.84233 0.78475 0.0
C2566 C 0.01734 0.76946 0.73255 0.0
C2567 C 0.02633 0.87455 0.78516 0.0
C2568 C 0.9725 0.63943 0.73169 0.0
C2569 C 0.98186 0.67108 0.73256 0.0
C2570 C 1.0107 0.73514 0.78735 0.0
C2571 C 0.02828 0.82129 0.76151 0.0
C2572 C 0.02026 0.78602 0.76096 0.0
C2573 C 1.0 0.68334 0.75719 0.0
C2574 C 1.00776 0.71866 0.75883 0.0
H2575 H 0.07263 0.87429 0.72135 0.0
H2576 H 0.0573 0.81992 0.72033 0.0
H2577 H 0.01875 0.77897 0.81093 0.0
H2578 H 1.00745 0.61403 0.79774 0.0
H2579 H 0.02414 0.66891 0.7993 0.0
C2580 C 0.53215 0.14511 0.71586 0.0
C2581 C 0.50649 0.16517 0.72074 0.0
C2582 C 0.53158 0.1131 0.72405 0.0
C2583 C 0.47663 0.04558 0.74713 0.0
H2584 H 0.5548 1.002 0.7573 0.0
C2585 C 0.48082 0.90729 0.7684 0.0
C2586 C 0.50591 0.89479 0.78587 0.0
C2587 C 0.48067 0.93913 0.75818 0.0
C2588 C 0.5324 1.01326 0.755 0.0
H2589 H 0.45919 0.16513 0.73781 0.0
H2590 H 0.45844 0.11001 0.75349 0.0
H2591 H 0.55471 0.05735 0.74842 0.0
H2592 H 0.55057 0.90759 0.8055 0.0
H2593 H 0.55006 0.96128 0.78913 0.0
H2594 H 0.45444 1.00113 0.75513 0.0
C2595 C 0.47948 0.11906 0.7431 0.0
C2596 C 0.53236 0.04584 0.74917 0.0
C2597 C 0.48009 0.15136 0.73475 0.0
C2598 C 0.53097 0.91545 0.7916 0.0
C2599 C 0.53061 0.94699 0.78202 0.0
C2600 C 0.47666 1.01282 0.75327 0.0
C2601 C 0.50513 0.09876 0.73757 0.0
C2602 C 0.50455 0.06319 0.7449 0.0
C2603 C 0.50523 0.96023 0.76559 0.0
C2604 C 0.50461 0.9956 0.7575 0.0
H2605 H 0.55255 0.15396 0.70402 0.0
H2606 H 0.55185 0.0994 0.71823 0.0
H2607 H 0.45439 0.05695 0.74382 0.0
H2608 H 0.46044 0.89309 0.76415 0.0
H2609 H 0.46057 0.9474 0.74536 0.0
C2610 C 0.12695 0.30847 0.47728 0.0
C2611 C 0.10975 0.28035 0.47654 0.0
C2612 C 0.15921 0.30934 0.48542 0.0
C2613 C 0.23132 0.256 0.49384 0.0
H2614 H 0.271 0.33026 0.52582 0.0
C2615 C 0.36353 0.25429 0.53502 0.0
C2616 C 0.38186 0.28166 0.53594 0.0
C2617 C 0.33153 0.25456 0.52631 0.0
C2618 C 0.2608 0.30921 0.51651 0.0
H2619 H 0.1152 0.23077 0.48306 0.0
H2620 H 0.16995 0.23215 0.49867 0.0
H2621 H 0.21507 0.33003 0.51582 0.0
H2622 H 0.37857 0.3314 0.52902 0.0
H2623 H 0.32371 0.33198 0.5127 0.0
H2624 H 0.27691 0.23519 0.49438 0.0
C2625 C 0.15878 0.25399 0.49288 0.0
C2626 C 0.22802 0.30905 0.5107 0.0
C2627 C 0.12661 0.25319 0.48464 0.0
C2628 C 0.3663 0.30945 0.52734 0.0
C2629 C 0.33411 0.30981 0.51865 0.0
C2630 C 0.26402 0.25616 0.49964 0.0
C2631 C 0.17639 0.28199 0.49282 0.0
C2632 C 0.21214 0.28237 0.4993 0.0
C2633 C 0.31551 0.2824 0.51845 0.0
C2634 C 0.27989 0.28271 0.51128 0.0
H2635 H 0.11588 0.32983 0.4696 0.0
H2636 H 0.17096 0.33157 0.4843 0.0
H2637 H 0.22125 0.23494 0.48442 0.0
H2638 H 0.37362 0.23251 0.54289 0.0
H2639 H 0.31902 0.23275 0.52738 0.0
C2640 C 0.50022 0.6535 0.77823 0.0
C2641 C 0.47569 0.66556 0.79663 0.0
C2642 C 0.5016 0.6212 0.76963 0.0
C2643 C 0.45336 0.54427 0.77241 0.0
H2644 H 0.53182 0.50494 0.7528 0.0
C2645 C 0.45703 0.41082 0.73616 0.0
C2646 C 0.48499 0.39346 0.73508 0.0
C2647 C 0.45616 0.44282 0.74474 0.0
C2648 C 0.50948 0.51494 0.75856 0.0
H2649 H 0.43365 0.65106 0.82022 0.0
H2650 H 0.43581 0.59685 0.80585 0.0
H2651 H 0.52996 0.56059 0.76356 0.0
H2652 H 0.53432 0.39798 0.74349 0.0
H2653 H 0.53306 0.45263 0.75992 0.0
H2654 H 0.43289 0.49894 0.76873 0.0
C2655 C 0.45396 0.61177 0.79695 0.0
C2656 C 0.50834 0.54775 0.7644 0.0
C2657 C 0.45263 0.64366 0.80539 0.0
C2658 C 0.51203 0.40969 0.74462 0.0
C2659 C 0.51128 0.44183 0.75341 0.0
C2660 C 0.45453 0.51158 0.76692 0.0
C2661 C 0.47863 0.59916 0.77913 0.0
C2662 C 0.48021 0.56355 0.77163 0.0
C2663 C 0.48339 0.45982 0.75285 0.0
C2664 C 0.48258 0.49564 0.75971 0.0
H2665 H 0.5193 0.6686 0.77181 0.0
H2666 H 0.52118 0.61353 0.75585 0.0
H2667 H 0.43076 0.55429 0.77705 0.0
H2668 H 0.43563 0.39995 0.72853 0.0
H2669 H 0.43385 0.45436 0.74334 0.0
C2670 C 0.62785 0.27063 0.53454 0.0
C2671 C 0.61003 0.29827 0.5365 0.0
C2672 C 0.65984 0.27073 0.52593 0.0
C2673 C 0.73029 0.32598 0.51655 0.0
H2674 H 0.77174 0.2514 0.48762 0.0
C2675 C 0.86124 0.3282 0.47309 0.0
C2676 C 0.88067 0.30163 0.47526 0.0
C2677 C 0.82944 0.32774 0.48208 0.0
C2678 C 0.76096 0.27255 0.49605 0.0
H2679 H 0.61374 0.34811 0.53079 0.0
H2680 H 0.66809 0.34841 0.51389 0.0
H2681 H 0.71585 0.25083 0.49712 0.0
H2682 H 0.87985 0.2531 0.48864 0.0
H2683 H 0.82492 0.2522 0.50475 0.0
H2684 H 0.77543 0.34774 0.51508 0.0
C2685 C 0.65773 0.3262 0.51956 0.0
C2686 C 0.72823 0.27227 0.50162 0.0
C2687 C 0.62577 0.32605 0.52855 0.0
C2688 C 0.86658 0.27454 0.48759 0.0
C2689 C 0.83445 0.27389 0.49622 0.0
C2690 C 0.76294 0.32631 0.51077 0.0
C2691 C 0.67611 0.29862 0.51886 0.0
C2692 C 0.71175 0.29899 0.51207 0.0
C2693 C 0.81477 0.3004 0.49318 0.0
C2694 C 0.77933 0.29962 0.50034 0.0
H2695 H 0.61746 0.24879 0.54162 0.0
H2696 H 0.67207 0.24873 0.52645 0.0
H2697 H 0.7198 0.34718 0.52515 0.0
H2698 H 0.87032 0.34929 0.46267 0.0
H2699 H 0.81593 0.34875 0.47864 0.0
C2700 C 0.15094 0.28153 0.97355 0.0
C2701 C 0.16774 0.28241 1.00196 0.0
C2702 C 0.11879 0.27322 0.97222 0.0
C2703 C 0.04586 0.26847 0.02348 0.0
H2704 H 1.00857 0.22971 0.95123 0.0
C2705 C 0.91108 0.23439 0.02176 0.0
C2706 C 0.89542 0.22823 0.9934 0.0
C2707 C 0.94344 0.24195 0.02283 0.0
C2708 C 0.01793 0.2411 0.97164 0.0
H2709 H 0.16183 0.27559 0.05147 0.0
H2710 H 0.107 0.26042 0.04931 0.0
H2711 H 0.06436 0.23895 0.95272 0.0
H2712 H 0.90328 0.22531 0.94381 0.0
H2713 H 0.95789 0.24046 0.94512 0.0
H2714 H 0.99957 0.27117 0.0423 0.0
C2715 C 0.11856 0.26598 0.02765 0.0
C2716 C 0.05069 0.24635 0.97251 0.0
C2717 C 0.1507 0.274 0.02886 0.0
C2718 C 0.91364 0.23092 0.96615 0.0
C2719 C 0.94578 0.23889 0.96709 0.0
C2720 C 1.01305 0.2635 0.02251 0.0
C2721 C 0.10137 0.26611 0.99939 0.0
C2722 C 0.06572 0.26012 0.99849 0.0
C2723 C 0.96207 0.24376 0.99551 0.0
C2724 C 0.99791 0.24962 0.99655 0.0
H2725 H 0.16215 0.28937 0.95239 0.0
H2726 H 0.10717 0.27419 0.94984 0.0
H2727 H 0.05556 0.27962 0.04391 0.0
H2728 H 0.89878 0.23123 0.04353 0.0
H2729 H 0.954 0.24484 0.04553 0.0
C2730 C 0.49671 0.14327 0.28936 0.0
C2731 C 0.48258 0.12964 0.26286 0.0
C2732 C 0.50567 0.17539 0.28984 0.0
C2733 C 0.5125 0.24851 0.23729 0.0
H2734 H 0.51379 0.29361 0.31531 0.0
C2735 C 0.5548 0.37838 0.24114 0.0
C2736 C 0.54524 0.39993 0.26417 0.0
C2737 C 0.54584 0.34673 0.24145 0.0
C2738 C 0.51329 0.28174 0.29309 0.0
H2739 H 0.46702 0.14072 0.21625 0.0
H2740 H 0.48166 0.19512 0.21698 0.0
H2741 H 0.50336 0.23753 0.31497 0.0
H2742 H 0.5183 0.40288 0.30654 0.0
H2743 H 0.50154 0.34778 0.30666 0.0
H2744 H 0.52126 0.29246 0.21521 0.0
C2745 C 0.4871 0.18141 0.23741 0.0
C2746 C 0.50767 0.24892 0.29291 0.0
C2747 C 0.47865 0.14952 0.23685 0.0
C2748 C 0.52545 0.38791 0.28758 0.0
C2749 C 0.51635 0.35575 0.28795 0.0
C2750 C 0.51792 0.28112 0.23746 0.0
C2751 C 0.50023 0.19568 0.26413 0.0
C2752 C 0.50716 0.23124 0.26494 0.0
C2753 C 0.52668 0.33413 0.26499 0.0
C2754 C 0.51879 0.29882 0.26533 0.0
H2755 H 0.49918 0.12966 0.31048 0.0
H2756 H 0.51605 0.18444 0.31096 0.0
H2757 H 0.51293 0.23687 0.21498 0.0
H2758 H 0.57061 0.38588 0.223 0.0
H2759 H 0.55528 0.33187 0.22348 0.0
loop_
_geom_bond_atom_site_label_1
_geom_bond_atom_site_label_2
_geom_bond_distance
_geom_bond_site_symmetry_2
_ccdc_geom_bond_type
O0 Zr5 2.207 . S
O0 C34 1.295 . S
O1 Zr5 2.133 . S
O1 Zr6 2.133 . S
O1 Zr7 2.133 1_655 S
O2 Zr5 2.133 . S
O2 Zr11 2.133 1_655 S
O2 Zr12 2.133 1_655 S
O3 Zr5 2.133 . S
O3 Zr7 2.133 1_655 S
O3 Zr12 2.133 1_655 S
O4 Zr5 2.133 . S
O4 Zr6 2.133 . S
O4 Zr11 2.133 1_655 S
Zr5 O0 2.207 . S
Zr5 O1 2.133 . S
Zr5 O2 2.133 . S
Zr5 O3 2.133 . S
Zr5 O4 2.133 . S
Zr5 O17 2.207 . S
Zr5 O30 2.207 . S
Zr5 O33 2.207 . S
Zr6 O1 2.133 . S
Zr6 O4 2.133 . S
Zr6 O8 2.133 1_655 S
Zr6 O10 2.133 1_655 S
Zr6 O22 2.207 1_655 S
Zr6 O25 2.207 . S
Zr6 O35 2.207 . S
Zr6 O36 2.207 . S
Zr7 O1 2.133 1_455 S
Zr7 O3 2.133 1_455 S
Zr7 O9 2.133 . S
Zr7 O10 2.133 . S
Zr7 O19 2.207 1_455 S
Zr7 O20 2.207 . S
Zr7 O27 2.207 1_455 S
Zr7 O28 2.207 . S
O8 Zr6 2.133 1_455 S
O8 Zr11 2.133 . S
O8 Zr13 2.133 . S
O9 Zr7 2.133 . S
O9 Zr12 2.133 . S
O9 Zr13 2.133 . S
O10 Zr6 2.133 1_455 S
O10 Zr7 2.133 . S
O10 Zr13 2.133 . S
Zr11 O2 2.133 1_455 S
Zr11 O4 2.133 1_455 S
Zr11 O8 2.133 . S
Zr11 O14 2.133 . S
Zr11 O18 2.207 . S
Zr11 O21 2.207 1_455 S
Zr11 O26 2.207 . S
Zr11 O29 2.207 1_455 S
Zr12 O2 2.133 1_455 S
Zr12 O3 2.133 1_455 S
Zr12 O9 2.133 . S
Zr12 O14 2.133 . S
Zr12 O23 2.207 1_455 S
Zr12 O24 2.207 . S
Zr12 O48 2.207 . S
Zr12 O49 2.207 . S
Zr13 O8 2.133 . S
Zr13 O9 2.133 . S
Zr13 O10 2.133 . S
Zr13 O14 2.133 . S
Zr13 O15 2.207 . S
Zr13 O16 2.207 . S
Zr13 O31 2.207 . S
Zr13 O32 2.207 . S
O14 Zr11 2.133 . S
O14 Zr12 2.133 . S
O14 Zr13 2.133 . S
O15 Zr13 2.207 . S
O15 C37 1.295 . S
O16 Zr13 2.207 . S
O16 C38 1.295 . S
O17 Zr5 2.207 . S
O17 C39 1.295 . S
O18 Zr11 2.207 . S
O18 C40 1.295 . S
O19 Zr7 2.207 1_655 S
O19 C41 1.295 . S
O20 Zr7 2.207 . S
O20 C42 1.295 . S
O21 Zr11 2.207 1_655 S
O21 C43 1.295 . S
O22 Zr6 2.207 1_455 S
O22 C44 1.295 . S
O23 Zr12 2.207 1_655 S
O23 C45 1.295 . S
O24 Zr12 2.207 . S
O24 C46 1.295 . S
O25 Zr6 2.207 . S
O25 C47 1.295 . S
O26 Zr11 2.207 . S
O26 C37 1.295 . S
O27 Zr7 2.207 1_655 S
O27 C34 1.295 . S
O28 Zr7 2.207 . S
O28 C38 1.295 . S
O29 Zr11 2.207 1_655 S
O29 C39 1.295 . S
O30 Zr5 2.207 . S
O30 C47 1.295 . S
O31 Zr13 2.207 . S
O31 C46 1.295 . S
O32 Zr13 2.207 . S
O32 C44 1.295 . S
O33 Zr5 2.207 . S
O33 C45 1.295 . S
C34 O0 1.295 . S
C34 O27 1.295 . S
O35 Zr6 2.207 . S
O35 C43 1.295 . S
O36 Zr6 2.207 . S
O36 C41 1.295 . S
C37 O15 1.295 . S
C37 O26 1.295 . S
C38 O16 1.295 . S
C38 O28 1.295 . S
C39 O17 1.295 . S
C39 O29 1.295 . S
C40 O18 1.295 . S
C40 O49 1.295 . S
C41 O19 1.295 . S
C41 O36 1.295 . S
C42 O20 1.295 . S
C42 O48 1.295 . S
C43 O21 1.295 . S
C43 O35 1.295 . S
C44 O22 1.295 . S
C44 O32 1.295 . S
C45 O23 1.295 . S
C45 O33 1.295 . S
C46 O24 1.295 . S
C46 O31 1.295 . S
C47 O25 1.295 . S
C47 O30 1.295 . S
O48 Zr12 2.207 . S
O48 C42 1.295 . S
O49 Zr12 2.207 . S
O49 C40 1.295 . S
O50 Zr55 2.207 . S
O50 C84 1.295 . S
O51 Zr55 2.133 . S
O51 Zr56 2.133 . S
O51 Zr57 2.133 . S
O52 Zr55 2.133 . S
O52 Zr61 2.133 . S
O52 Zr62 2.133 . S
O53 Zr55 2.133 . S
O53 Zr57 2.133 . S
O53 Zr62 2.133 . S
O54 Zr55 2.133 . S
O54 Zr56 2.133 . S
O54 Zr61 2.133 . S
Zr55 O50 2.207 . S
Zr55 O51 2.133 . S
Zr55 O52 2.133 . S
Zr55 O53 2.133 . S
Zr55 O54 2.133 . S
Zr55 O67 2.207 . S
Zr55 O80 2.207 . S
Zr55 O83 2.207 . S
Zr56 O51 2.133 . S
Zr56 O54 2.133 . S
Zr56 O58 2.133 . S
Zr56 O60 2.133 . S
Zr56 O72 2.207 . S
Zr56 O75 2.207 . S
Zr56 O85 2.207 . S
Zr56 O86 2.207 . S
Zr57 O51 2.133 . S
Zr57 O53 2.133 . S
Zr57 O59 2.133 . S
Zr57 O60 2.133 . S
Zr57 O69 2.207 . S
Zr57 O70 2.207 . S
Zr57 O77 2.207 . S
Zr57 O78 2.207 . S
O58 Zr56 2.133 . S
O58 Zr61 2.133 . S
O58 Zr63 2.133 . S
O59 Zr57 2.133 . S
O59 Zr62 2.133 . S
O59 Zr63 2.133 . S
O60 Zr56 2.133 . S
O60 Zr57 2.133 . S
O60 Zr63 2.133 . S
Zr61 O52 2.133 . S
Zr61 O54 2.133 . S
Zr61 O58 2.133 . S
Zr61 O64 2.133 . S
Zr61 O68 2.207 . S
Zr61 O71 2.207 . S
Zr61 O76 2.207 . S
Zr61 O79 2.207 . S
Zr62 O52 2.133 . S
Zr62 O53 2.133 . S
Zr62 O59 2.133 . S
Zr62 O64 2.133 . S
Zr62 O73 2.207 . S
Zr62 O74 2.207 . S
Zr62 O98 2.207 . S
Zr62 O99 2.207 . S
Zr63 O58 2.133 . S
Zr63 O59 2.133 . S
Zr63 O60 2.133 . S
Zr63 O64 2.133 . S
Zr63 O65 2.207 . S
Zr63 O66 2.207 . S
Zr63 O81 2.207 . S
Zr63 O82 2.207 . S
O64 Zr61 2.133 . S
O64 Zr62 2.133 . S
O64 Zr63 2.133 . S
O65 Zr63 2.207 . S
O65 C87 1.295 . S
O66 Zr63 2.207 . S
O66 C88 1.295 . S
O67 Zr55 2.207 . S
O67 C89 1.295 . S
O68 Zr61 2.207 . S
O68 C90 1.295 . S
O69 Zr57 2.207 . S
O69 C91 1.295 . S
O70 Zr57 2.207 . S
O70 C92 1.295 . S
O71 Zr61 2.207 . S
O71 C93 1.295 . S
O72 Zr56 2.207 . S
O72 C94 1.295 . S
O73 Zr62 2.207 . S
O73 C95 1.295 . S
O74 Zr62 2.207 . S
O74 C96 1.295 . S
O75 Zr56 2.207 . S
O75 C97 1.295 . S
O76 Zr61 2.207 . S
O76 C87 1.295 . S
O77 Zr57 2.207 . S
O77 C84 1.295 . S
O78 Zr57 2.207 . S
O78 C88 1.295 . S
O79 Zr61 2.207 . S
O79 C89 1.295 . S
O80 Zr55 2.207 . S
O80 C97 1.295 . S
O81 Zr63 2.207 . S
O81 C96 1.295 . S
O82 Zr63 2.207 . S
O82 C94 1.295 . S
O83 Zr55 2.207 . S
O83 C95 1.295 . S
C84 O50 1.295 . S
C84 O77 1.295 . S
O85 Zr56 2.207 . S
O85 C93 1.295 . S
O86 Zr56 2.207 . S
O86 C91 1.295 . S
C87 O65 1.295 . S
C87 O76 1.295 . S
C88 O66 1.295 . S
C88 O78 1.295 . S
C89 O67 1.295 . S
C89 O79 1.295 . S
C90 O68 1.295 . S
C90 O99 1.295 . S
C91 O69 1.295 . S
C91 O86 1.295 . S
C92 O70 1.295 . S
C92 O98 1.295 . S
C93 O71 1.295 . S
C93 O85 1.295 . S
C94 O72 1.295 . S
C94 O82 1.295 . S
C95 O73 1.295 . S
C95 O83 1.295 . S
C96 O74 1.295 . S
C96 O81 1.295 . S
C97 O75 1.295 . S
C97 O80 1.295 . S
O98 Zr62 2.207 . S
O98 C92 1.295 . S
O99 Zr62 2.207 . S
O99 C90 1.295 . S
O100 Zr105 2.207 1_655 S
O100 C134 1.295 . S
O101 Zr105 2.133 . S
O101 Zr106 2.133 . S
O101 Zr107 2.133 1_455 S
O102 Zr105 2.133 1_655 S
O102 Zr111 2.133 1_655 S
O102 Zr112 2.133 . S
O103 Zr105 2.133 1_655 S
O103 Zr107 2.133 . S
O103 Zr112 2.133 . S
O104 Zr105 2.133 . S
O104 Zr106 2.133 . S
O104 Zr111 2.133 . S
Zr105 O100 2.207 1_455 S
Zr105 O101 2.133 . S
Zr105 O102 2.133 1_455 S
Zr105 O103 2.133 1_455 S
Zr105 O104 2.133 . S
Zr105 O117 2.207 . S
Zr105 O130 2.207 . S
Zr105 O133 2.207 1_455 S
Zr106 O101 2.133 . S
Zr106 O104 2.133 . S
Zr106 O108 2.133 . S
Zr106 O110 2.133 . S
Zr106 O122 2.207 . S
Zr106 O125 2.207 . S
Zr106 O135 2.207 . S
Zr106 O136 2.207 . S
Zr107 O101 2.133 1_655 S
Zr107 O103 2.133 . S
Zr107 O109 2.133 . S
Zr107 O110 2.133 1_655 S
Zr107 O119 2.207 1_655 S
Zr107 O120 2.207 . S
Zr107 O127 2.207 . S
Zr107 O128 2.207 . S
O108 Zr106 2.133 . S
O108 Zr111 2.133 . S
O108 Zr113 2.133 . S
O109 Zr107 2.133 . S
O109 Zr112 2.133 . S
O109 Zr113 2.133 1_655 S
O110 Zr106 2.133 . S
O110 Zr107 2.133 1_455 S
O110 Zr113 2.133 . S
Zr111 O102 2.133 1_455 S
Zr111 O104 2.133 . S
Zr111 O108 2.133 . S
Zr111 O114 2.133 1_455 S
Zr111 O118 2.207 1_455 S
Zr111 O121 2.207 . S
Zr111 O126 2.207 . S
Zr111 O129 2.207 . S
Zr112 O102 2.133 . S
Zr112 O103 2.133 . S
Zr112 O109 2.133 . S
Zr112 O114 2.133 . S
Zr112 O123 2.207 . S
Zr112 O124 2.207 . S
Zr112 O148 2.207 . S
Zr112 O149 2.207 . S
Zr113 O108 2.133 . S
Zr113 O109 2.133 1_455 S
Zr113 O110 2.133 . S
Zr113 O114 2.133 1_455 S
Zr113 O115 2.207 . S
Zr113 O116 2.207 1_455 S
Zr113 O131 2.207 1_455 S
Zr113 O132 2.207 . S
O114 Zr111 2.133 1_655 S
O114 Zr112 2.133 . S
O114 Zr113 2.133 1_655 S
O115 Zr113 2.207 . S
O115 C137 1.295 . S
O116 Zr113 2.207 1_655 S
O116 C138 1.295 . S
O117 Zr105 2.207 . S
O117 C139 1.295 . S
O118 Zr111 2.207 1_655 S
O118 C140 1.295 . S
O119 Zr107 2.207 1_455 S
O119 C141 1.295 . S
O120 Zr107 2.207 . S
O120 C142 1.295 . S
O121 Zr111 2.207 . S
O121 C143 1.295 . S
O122 Zr106 2.207 . S
O122 C144 1.295 . S
O123 Zr112 2.207 . S
O123 C145 1.295 . S
O124 Zr112 2.207 . S
O124 C146 1.295 . S
O125 Zr106 2.207 . S
O125 C147 1.295 . S
O126 Zr111 2.207 . S
O126 C137 1.295 . S
O127 Zr107 2.207 . S
O127 C134 1.295 . S
O128 Zr107 2.207 . S
O128 C138 1.295 . S
O129 Zr111 2.207 . S
O129 C139 1.295 . S
O130 Zr105 2.207 . S
O130 C147 1.295 . S
O131 Zr113 2.207 1_655 S
O131 C146 1.295 . S
O132 Zr113 2.207 . S
O132 C144 1.295 . S
O133 Zr105 2.207 1_655 S
O133 C145 1.295 . S
C134 O100 1.295 . S
C134 O127 1.295 . S
O135 Zr106 2.207 . S
O135 C143 1.295 . S
O136 Zr106 2.207 . S
O136 C141 1.295 . S
C137 O115 1.295 . S
C137 O126 1.295 . S
C138 O116 1.295 . S
C138 O128 1.295 . S
C139 O117 1.295 . S
C139 O129 1.295 . S
C140 O118 1.295 . S
C140 O149 1.295 . S
C141 O119 1.295 . S
C141 O136 1.295 . S
C142 O120 1.295 . S
C142 O148 1.295 . S
C143 O121 1.295 . S
C143 O135 1.295 . S
C144 O122 1.295 . S
C144 O132 1.295 . S
C145 O123 1.295 . S
C145 O133 1.295 . S
C146 O124 1.295 . S
C146 O131 1.295 . S
C147 O125 1.295 . S
C147 O130 1.295 . S
O148 Zr112 2.207 . S
O148 C142 1.295 . S
O149 Zr112 2.207 . S
O149 C140 1.295 . S
O150 Zr155 2.207 . S
O150 C184 1.295 . S
O151 Zr155 2.133 . S
O151 Zr156 2.133 . S
O151 Zr157 2.133 . S
O152 Zr155 2.133 1_565 S
O152 Zr161 2.133 . S
O152 Zr162 2.133 . S
O153 Zr155 2.133 1_565 S
O153 Zr157 2.133 1_565 S
O153 Zr162 2.133 . S
O154 Zr155 2.133 . S
O154 Zr156 2.133 . S
O154 Zr161 2.133 1_545 S
Zr155 O150 2.207 . S
Zr155 O151 2.133 . S
Zr155 O152 2.133 1_545 S
Zr155 O153 2.133 1_545 S
Zr155 O154 2.133 . S
Zr155 O167 2.207 1_545 S
Zr155 O180 2.207 . S
Zr155 O183 2.207 1_545 S
Zr156 O151 2.133 . S
Zr156 O154 2.133 . S
Zr156 O158 2.133 . S
Zr156 O160 2.133 . S
Zr156 O172 2.207 . S
Zr156 O175 2.207 . S
Zr156 O185 2.207 . S
Zr156 O186 2.207 . S
Zr157 O151 2.133 . S
Zr157 O153 2.133 1_545 S
Zr157 O159 2.133 1_545 S
Zr157 O160 2.133 . S
Zr157 O169 2.207 . S
Zr157 O170 2.207 1_545 S
Zr157 O177 2.207 . S
Zr157 O178 2.207 . S
O158 Zr156 2.133 . S
O158 Zr161 2.133 1_545 S
O158 Zr163 2.133 . S
O159 Zr157 2.133 1_565 S
O159 Zr162 2.133 . S
O159 Zr163 2.133 1_565 S
O160 Zr156 2.133 . S
O160 Zr157 2.133 . S
O160 Zr163 2.133 . S
Zr161 O152 2.133 . S
Zr161 O154 2.133 1_565 S
Zr161 O158 2.133 1_565 S
Zr161 O164 2.133 . S
Zr161 O168 2.207 . S
Zr161 O171 2.207 1_565 S
Zr161 O176 2.207 . S
Zr161 O179 2.207 . S
Zr162 O152 2.133 . S
Zr162 O153 2.133 . S
Zr162 O159 2.133 . S
Zr162 O164 2.133 . S
Zr162 O173 2.207 . S
Zr162 O174 2.207 . S
Zr162 O198 2.207 . S
Zr162 O199 2.207 . S
Zr163 O158 2.133 . S
Zr163 O159 2.133 1_545 S
Zr163 O160 2.133 . S
Zr163 O164 2.133 1_545 S
Zr163 O165 2.207 1_545 S
Zr163 O166 2.207 . S
Zr163 O181 2.207 1_545 S
Zr163 O182 2.207 . S
O164 Zr161 2.133 . S
O164 Zr162 2.133 . S
O164 Zr163 2.133 1_565 S
O165 Zr163 2.207 1_565 S
O165 C187 1.295 . S
O166 Zr163 2.207 . S
O166 C188 1.295 . S
O167 Zr155 2.207 1_565 S
O167 C189 1.295 . S
O168 Zr161 2.207 . S
O168 C190 1.295 . S
O169 Zr157 2.207 . S
O169 C191 1.295 . S
O170 Zr157 2.207 1_565 S
O170 C192 1.295 . S
O171 Zr161 2.207 1_545 S
O171 C193 1.295 . S
O172 Zr156 2.207 . S
O172 C194 1.295 . S
O173 Zr162 2.207 . S
O173 C195 1.295 . S
O174 Zr162 2.207 . S
O174 C196 1.295 . S
O175 Zr156 2.207 . S
O175 C197 1.295 . S
O176 Zr161 2.207 . S
O176 C187 1.295 . S
O177 Zr157 2.207 . S
O177 C184 1.295 . S
O178 Zr157 2.207 . S
O178 C188 1.295 . S
O179 Zr161 2.207 . S
O179 C189 1.295 . S
O180 Zr155 2.207 . S
O180 C197 1.295 . S
O181 Zr163 2.207 1_565 S
O181 C196 1.295 . S
O182 Zr163 2.207 . S
O182 C194 1.295 . S
O183 Zr155 2.207 1_565 S
O183 C195 1.295 . S
C184 O150 1.295 . S
C184 O177 1.295 . S
O185 Zr156 2.207 . S
O185 C193 1.295 . S
O186 Zr156 2.207 . S
O186 C191 1.295 . S
C187 O165 1.295 . S
C187 O176 1.295 . S
C188 O166 1.295 . S
C188 O178 1.295 . S
C189 O167 1.295 . S
C189 O179 1.295 . S
C190 O168 1.295 . S
C190 O199 1.295 . S
C191 O169 1.295 . S
C191 O186 1.295 . S
C192 O170 1.295 . S
C192 O198 1.295 . S
C193 O171 1.295 . S
C193 O185 1.295 . S
C194 O172 1.295 . S
C194 O182 1.295 . S
C195 O173 1.295 . S
C195 O183 1.295 . S
C196 O174 1.295 . S
C196 O181 1.295 . S
C197 O175 1.295 . S
C197 O180 1.295 . S
O198 Zr162 2.207 . S
O198 C192 1.295 . S
O199 Zr162 2.207 . S
O199 C190 1.295 . S
O200 Zr205 2.207 . S
O200 C234 1.295 . S
O201 Zr205 2.133 . S
O201 Zr206 2.133 . S
O201 Zr207 2.133 . S
O202 Zr205 2.133 1_556 S
O202 Zr211 2.133 . S
O202 Zr212 2.133 . S
O203 Zr205 2.133 1_556 S
O203 Zr207 2.133 1_556 S
O203 Zr212 2.133 . S
O204 Zr205 2.133 . S
O204 Zr206 2.133 . S
O204 Zr211 2.133 1_554 S
Zr205 O200 2.207 . S
Zr205 O201 2.133 . S
Zr205 O202 2.133 1_554 S
Zr205 O203 2.133 1_554 S
Zr205 O204 2.133 . S
Zr205 O217 2.207 1_554 S
Zr205 O230 2.207 . S
Zr205 O233 2.207 1_554 S
Zr206 O201 2.133 . S
Zr206 O204 2.133 . S
Zr206 O208 2.133 . S
Zr206 O210 2.133 . S
Zr206 O222 2.207 . S
Zr206 O225 2.207 . S
Zr206 O235 2.207 . S
Zr206 O236 2.207 . S
Zr207 O201 2.133 . S
Zr207 O203 2.133 1_554 S
Zr207 O209 2.133 1_554 S
Zr207 O210 2.133 . S
Zr207 O219 2.207 . S
Zr207 O220 2.207 1_554 S
Zr207 O227 2.207 . S
Zr207 O228 2.207 . S
O208 Zr206 2.133 . S
O208 Zr211 2.133 1_554 S
O208 Zr213 2.133 . S
O209 Zr207 2.133 1_556 S
O209 Zr212 2.133 . S
O209 Zr213 2.133 1_556 S
O210 Zr206 2.133 . S
O210 Zr207 2.133 . S
O210 Zr213 2.133 . S
Zr211 O202 2.133 . S
Zr211 O204 2.133 1_556 S
Zr211 O208 2.133 1_556 S
Zr211 O214 2.133 . S
Zr211 O218 2.207 . S
Zr211 O221 2.207 1_556 S
Zr211 O226 2.207 . S
Zr211 O229 2.207 . S
Zr212 O202 2.133 . S
Zr212 O203 2.133 . S
Zr212 O209 2.133 . S
Zr212 O214 2.133 . S
Zr212 O223 2.207 . S
Zr212 O224 2.207 . S
Zr212 O248 2.207 . S
Zr212 O249 2.207 . S
Zr213 O208 2.133 . S
Zr213 O209 2.133 1_554 S
Zr213 O210 2.133 . S
Zr213 O214 2.133 1_554 S
Zr213 O215 2.207 1_554 S
Zr213 O216 2.207 . S
Zr213 O231 2.207 1_554 S
Zr213 O232 2.207 . S
O214 Zr211 2.133 . S
O214 Zr212 2.133 . S
O214 Zr213 2.133 1_556 S
O215 Zr213 2.207 1_556 S
O215 C237 1.295 . S
O216 Zr213 2.207 . S
O216 C238 1.295 . S
O217 Zr205 2.207 1_556 S
O217 C239 1.295 . S
O218 Zr211 2.207 . S
O218 C240 1.295 . S
O219 Zr207 2.207 . S
O219 C241 1.295 . S
O220 Zr207 2.207 1_556 S
O220 C242 1.295 . S
O221 Zr211 2.207 1_554 S
O221 C243 1.295 . S
O222 Zr206 2.207 . S
O222 C244 1.295 . S
O223 Zr212 2.207 . S
O223 C245 1.295 . S
O224 Zr212 2.207 . S
O224 C246 1.295 . S
O225 Zr206 2.207 . S
O225 C247 1.295 . S
O226 Zr211 2.207 . S
O226 C237 1.295 . S
O227 Zr207 2.207 . S
O227 C234 1.295 . S
O228 Zr207 2.207 . S
O228 C238 1.295 . S
O229 Zr211 2.207 . S
O229 C239 1.295 . S
O230 Zr205 2.207 . S
O230 C247 1.295 . S
O231 Zr213 2.207 1_556 S
O231 C246 1.295 . S
O232 Zr213 2.207 . S
O232 C244 1.295 . S
O233 Zr205 2.207 1_556 S
O233 C245 1.295 . S
C234 O200 1.295 . S
C234 O227 1.295 . S
O235 Zr206 2.207 . S
O235 C243 1.295 . S
O236 Zr206 2.207 . S
O236 C241 1.295 . S
C237 O215 1.295 . S
C237 O226 1.295 . S
C238 O216 1.295 . S
C238 O228 1.295 . S
C239 O217 1.295 . S
C239 O229 1.295 . S
C240 O218 1.295 . S
C240 O249 1.295 . S
C241 O219 1.295 . S
C241 O236 1.295 . S
C242 O220 1.295 . S
C242 O248 1.295 . S
C243 O221 1.295 . S
C243 O235 1.295 . S
C244 O222 1.295 . S
C244 O232 1.295 . S
C245 O223 1.295 . S
C245 O233 1.295 . S
C246 O224 1.295 . S
C246 O231 1.295 . S
C247 O225 1.295 . S
C247 O230 1.295 . S
O248 Zr212 2.207 . S
O248 C242 1.295 . S
O249 Zr212 2.207 . S
O249 C240 1.295 . S
O250 Zr255 2.207 . S
O250 C284 1.295 . S
O251 Zr255 2.133 . S
O251 Zr256 2.133 . S
O251 Zr257 2.133 . S
O252 Zr255 2.133 . S
O252 Zr261 2.133 . S
O252 Zr262 2.133 . S
O253 Zr255 2.133 . S
O253 Zr257 2.133 . S
O253 Zr262 2.133 . S
O254 Zr255 2.133 . S
O254 Zr256 2.133 . S
O254 Zr261 2.133 . S
Zr255 O250 2.207 . S
Zr255 O251 2.133 . S
Zr255 O252 2.133 . S
Zr255 O253 2.133 . S
Zr255 O254 2.133 . S
Zr255 O267 2.207 . S
Zr255 O280 2.207 . S
Zr255 O283 2.207 . S
Zr256 O251 2.133 . S
Zr256 O254 2.133 . S
Zr256 O258 2.133 . S
Zr256 O260 2.133 . S
Zr256 O272 2.207 . S
Zr256 O275 2.207 . S
Zr256 O285 2.207 . S
Zr256 O286 2.207 . S
Zr257 O251 2.133 . S
Zr257 O253 2.133 . S
Zr257 O259 2.133 . S
Zr257 O260 2.133 . S
Zr257 O269 2.207 . S
Zr257 O270 2.207 . S
Zr257 O277 2.207 . S
Zr257 O278 2.207 . S
O258 Zr256 2.133 . S
O258 Zr261 2.133 . S
O258 Zr263 2.133 . S
O259 Zr257 2.133 . S
O259 Zr262 2.133 . S
O259 Zr263 2.133 . S
O260 Zr256 2.133 . S
O260 Zr257 2.133 . S
O260 Zr263 2.133 . S
Zr261 O252 2.133 . S
Zr261 O254 2.133 . S
Zr261 O258 2.133 . S
Zr261 O264 2.133 . S
Zr261 O268 2.207 . S
Zr261 O271 2.207 . S
Zr261 O276 2.207 . S
Zr261 O279 2.207 . S
Zr262 O252 2.133 . S
Zr262 O253 2.133 . S
Zr262 O259 2.133 . S
Zr262 O264 2.133 . S
Zr262 O273 2.207 . S
Zr262 O274 2.207 . S
Zr262 O298 2.207 . S
Zr262 O299 2.207 . S
Zr263 O258 2.133 . S
Zr263 O259 2.133 . S
Zr263 O260 2.133 . S
Zr263 O264 2.133 . S
Zr263 O265 2.207 . S
Zr263 O266 2.207 . S
Zr263 O281 2.207 . S
Zr263 O282 2.207 . S
O264 Zr261 2.133 . S
O264 Zr262 2.133 . S
O264 Zr263 2.133 . S
O265 Zr263 2.207 . S
O265 C287 1.295 . S
O266 Zr263 2.207 . S
O266 C288 1.295 . S
O267 Zr255 2.207 . S
O267 C289 1.295 . S
O268 Zr261 2.207 . S
O268 C290 1.295 . S
O269 Zr257 2.207 . S
O269 C291 1.295 . S
O270 Zr257 2.207 . S
O270 C292 1.295 . S
O271 Zr261 2.207 . S
O271 C293 1.295 . S
O272 Zr256 2.207 . S
O272 C294 1.295 . S
O273 Zr262 2.207 . S
O273 C295 1.295 . S
O274 Zr262 2.207 . S
O274 C296 1.295 . S
O275 Zr256 2.207 . S
O275 C297 1.295 . S
O276 Zr261 2.207 . S
O276 C287 1.295 . S
O277 Zr257 2.207 . S
O277 C284 1.295 . S
O278 Zr257 2.207 . S
O278 C288 1.295 . S
O279 Zr261 2.207 . S
O279 C289 1.295 . S
O280 Zr255 2.207 . S
O280 C297 1.295 . S
O281 Zr263 2.207 . S
O281 C296 1.295 . S
O282 Zr263 2.207 . S
O282 C294 1.295 . S
O283 Zr255 2.207 . S
O283 C295 1.295 . S
C284 O250 1.295 . S
C284 O277 1.295 . S
O285 Zr256 2.207 . S
O285 C293 1.295 . S
O286 Zr256 2.207 . S
O286 C291 1.295 . S
C287 O265 1.295 . S
C287 O276 1.295 . S
C288 O266 1.295 . S
C288 O278 1.295 . S
C289 O267 1.295 . S
C289 O279 1.295 . S
C290 O268 1.295 . S
C290 O299 1.295 . S
C291 O269 1.295 . S
C291 O286 1.295 . S
C292 O270 1.295 . S
C292 O298 1.295 . S
C293 O271 1.295 . S
C293 O285 1.295 . S
C294 O272 1.295 . S
C294 O282 1.295 . S
C295 O273 1.295 . S
C295 O283 1.295 . S
C296 O274 1.295 . S
C296 O281 1.295 . S
C297 O275 1.295 . S
C297 O280 1.295 . S
O298 Zr262 2.207 . S
O298 C292 1.295 . S
O299 Zr262 2.207 . S
O299 C290 1.295 . S
O300 Zr305 2.207 . S
O300 C334 1.295 . S
O301 Zr305 2.133 . S
O301 Zr306 2.133 1_556 S
O301 Zr307 2.133 1_556 S
O302 Zr305 2.133 . S
O302 Zr311 2.133 1_556 S
O302 Zr312 2.133 . S
O303 Zr305 2.133 . S
O303 Zr307 2.133 1_556 S
O303 Zr312 2.133 . S
O304 Zr305 2.133 . S
O304 Zr306 2.133 1_556 S
O304 Zr311 2.133 1_556 S
Zr305 O300 2.207 . S
Zr305 O301 2.133 . S
Zr305 O302 2.133 . S
Zr305 O303 2.133 . S
Zr305 O304 2.133 . S
Zr305 O317 2.207 . S
Zr305 O330 2.207 . S
Zr305 O333 2.207 . S
Zr306 O301 2.133 1_554 S
Zr306 O304 2.133 1_554 S
Zr306 O308 2.133 . S
Zr306 O310 2.133 . S
Zr306 O322 2.207 . S
Zr306 O325 2.207 1_554 S
Zr306 O335 2.207 . S
Zr306 O336 2.207 . S
Zr307 O301 2.133 1_554 S
Zr307 O303 2.133 1_554 S
Zr307 O309 2.133 . S
Zr307 O310 2.133 . S
Zr307 O319 2.207 . S
Zr307 O320 2.207 1_554 S
Zr307 O327 2.207 1_554 S
Zr307 O328 2.207 . S
O308 Zr306 2.133 . S
O308 Zr311 2.133 . S
O308 Zr313 2.133 . S
O309 Zr307 2.133 . S
O309 Zr312 2.133 1_554 S
O309 Zr313 2.133 . S
O310 Zr306 2.133 . S
O310 Zr307 2.133 . S
O310 Zr313 2.133 . S
Zr311 O302 2.133 1_554 S
Zr311 O304 2.133 1_554 S
Zr311 O308 2.133 . S
Zr311 O314 2.133 . S
Zr311 O318 2.207 1_554 S
Zr311 O321 2.207 . S
Zr311 O326 2.207 . S
Zr311 O329 2.207 1_554 S
Zr312 O302 2.133 . S
Zr312 O303 2.133 . S
Zr312 O309 2.133 1_556 S
Zr312 O314 2.133 1_556 S
Zr312 O323 2.207 . S
Zr312 O324 2.207 1_556 S
Zr312 O348 2.207 . S
Zr312 O349 2.207 . S
Zr313 O308 2.133 . S
Zr313 O309 2.133 . S
Zr313 O310 2.133 . S
Zr313 O314 2.133 . S
Zr313 O315 2.207 . S
Zr313 O316 2.207 . S
Zr313 O331 2.207 . S
Zr313 O332 2.207 . S
O314 Zr311 2.133 . S
O314 Zr312 2.133 1_554 S
O314 Zr313 2.133 . S
O315 Zr313 2.207 . S
O315 C337 1.295 . S
O316 Zr313 2.207 . S
O316 C338 1.295 . S
O317 Zr305 2.207 . S
O317 C339 1.295 . S
O318 Zr311 2.207 1_556 S
O318 C340 1.295 . S
O319 Zr307 2.207 . S
O319 C341 1.295 . S
O320 Zr307 2.207 1_556 S
O320 C342 1.295 . S
O321 Zr311 2.207 . S
O321 C343 1.295 . S
O322 Zr306 2.207 . S
O322 C344 1.295 . S
O323 Zr312 2.207 . S
O323 C345 1.295 . S
O324 Zr312 2.207 1_554 S
O324 C346 1.295 . S
O325 Zr306 2.207 1_556 S
O325 C347 1.295 . S
O326 Zr311 2.207 . S
O326 C337 1.295 . S
O327 Zr307 2.207 1_556 S
O327 C334 1.295 . S
O328 Zr307 2.207 . S
O328 C338 1.295 . S
O329 Zr311 2.207 1_556 S
O329 C339 1.295 . S
O330 Zr305 2.207 . S
O330 C347 1.295 . S
O331 Zr313 2.207 . S
O331 C346 1.295 . S
O332 Zr313 2.207 . S
O332 C344 1.295 . S
O333 Zr305 2.207 . S
O333 C345 1.295 . S
C334 O300 1.295 . S
C334 O327 1.295 . S
O335 Zr306 2.207 . S
O335 C343 1.295 . S
O336 Zr306 2.207 . S
O336 C341 1.295 . S
C337 O315 1.295 . S
C337 O326 1.295 . S
C338 O316 1.295 . S
C338 O328 1.295 . S
C339 O317 1.295 . S
C339 O329 1.295 . S
C340 O318 1.295 . S
C340 O349 1.295 . S
C341 O319 1.295 . S
C341 O336 1.295 . S
C342 O320 1.295 . S
C342 O348 1.295 . S
C343 O321 1.295 . S
C343 O335 1.295 . S
C344 O322 1.295 . S
C344 O332 1.295 . S
C345 O323 1.295 . S
C345 O333 1.295 . S
C346 O324 1.295 . S
C346 O331 1.295 . S
C347 O325 1.295 . S
C347 O330 1.295 . S
O348 Zr312 2.207 . S
O348 C342 1.295 . S
O349 Zr312 2.207 . S
O349 C340 1.295 . S
O350 Zr355 2.207 . S
O350 C384 1.295 . S
O351 Zr355 2.133 . S
O351 Zr356 2.133 . S
O351 Zr357 2.133 . S
O352 Zr355 2.133 . S
O352 Zr361 2.133 . S
O352 Zr362 2.133 . S
O353 Zr355 2.133 . S
O353 Zr357 2.133 . S
O353 Zr362 2.133 . S
O354 Zr355 2.133 . S
O354 Zr356 2.133 . S
O354 Zr361 2.133 . S
Zr355 O350 2.207 . S
Zr355 O351 2.133 . S
Zr355 O352 2.133 . S
Zr355 O353 2.133 . S
Zr355 O354 2.133 . S
Zr355 O367 2.207 . S
Zr355 O380 2.207 . S
Zr355 O383 2.207 . S
Zr356 O351 2.133 . S
Zr356 O354 2.133 . S
Zr356 O358 2.133 . S
Zr356 O360 2.133 . S
Zr356 O372 2.207 . S
Zr356 O375 2.207 . S
Zr356 O385 2.207 . S
Zr356 O386 2.207 . S
Zr357 O351 2.133 . S
Zr357 O353 2.133 . S
Zr357 O359 2.133 . S
Zr357 O360 2.133 . S
Zr357 O369 2.207 . S
Zr357 O370 2.207 . S
Zr357 O377 2.207 . S
Zr357 O378 2.207 . S
O358 Zr356 2.133 . S
O358 Zr361 2.133 . S
O358 Zr363 2.133 . S
O359 Zr357 2.133 . S
O359 Zr362 2.133 . S
O359 Zr363 2.133 . S
O360 Zr356 2.133 . S
O360 Zr357 2.133 . S
O360 Zr363 2.133 . S
Zr361 O352 2.133 . S
Zr361 O354 2.133 . S
Zr361 O358 2.133 . S
Zr361 O364 2.133 . S
Zr361 O368 2.207 . S
Zr361 O371 2.207 . S
Zr361 O376 2.207 . S
Zr361 O379 2.207 . S
Zr362 O352 2.133 . S
Zr362 O353 2.133 . S
Zr362 O359 2.133 . S
Zr362 O364 2.133 . S
Zr362 O373 2.207 . S
Zr362 O374 2.207 . S
Zr362 O398 2.207 . S
Zr362 O399 2.207 . S
Zr363 O358 2.133 . S
Zr363 O359 2.133 . S
Zr363 O360 2.133 . S
Zr363 O364 2.133 . S
Zr363 O365 2.207 . S
Zr363 O366 2.207 . S
Zr363 O381 2.207 . S
Zr363 O382 2.207 . S
O364 Zr361 2.133 . S
O364 Zr362 2.133 . S
O364 Zr363 2.133 . S
O365 Zr363 2.207 . S
O365 C387 1.295 . S
O366 Zr363 2.207 . S
O366 C388 1.295 . S
O367 Zr355 2.207 . S
O367 C389 1.295 . S
O368 Zr361 2.207 . S
O368 C390 1.295 . S
O369 Zr357 2.207 . S
O369 C391 1.295 . S
O370 Zr357 2.207 . S
O370 C392 1.295 . S
O371 Zr361 2.207 . S
O371 C393 1.295 . S
O372 Zr356 2.207 . S
O372 C394 1.295 . S
O373 Zr362 2.207 . S
O373 C395 1.295 . S
O374 Zr362 2.207 . S
O374 C396 1.295 . S
O375 Zr356 2.207 . S
O375 C397 1.295 . S
O376 Zr361 2.207 . S
O376 C387 1.295 . S
O377 Zr357 2.207 . S
O377 C384 1.295 . S
O378 Zr357 2.207 . S
O378 C388 1.295 . S
O379 Zr361 2.207 . S
O379 C389 1.295 . S
O380 Zr355 2.207 . S
O380 C397 1.295 . S
O381 Zr363 2.207 . S
O381 C396 1.295 . S
O382 Zr363 2.207 . S
O382 C394 1.295 . S
O383 Zr355 2.207 . S
O383 C395 1.295 . S
C384 O350 1.295 . S
C384 O377 1.295 . S
O385 Zr356 2.207 . S
O385 C393 1.295 . S
O386 Zr356 2.207 . S
O386 C391 1.295 . S
C387 O365 1.295 . S
C387 O376 1.295 . S
C388 O366 1.295 . S
C388 O378 1.295 . S
C389 O367 1.295 . S
C389 O379 1.295 . S
C390 O368 1.295 . S
C390 O399 1.295 . S
C391 O369 1.295 . S
C391 O386 1.295 . S
C392 O370 1.295 . S
C392 O398 1.295 . S
C393 O371 1.295 . S
C393 O385 1.295 . S
C394 O372 1.295 . S
C394 O382 1.295 . S
C395 O373 1.295 . S
C395 O383 1.295 . S
C396 O374 1.295 . S
C396 O381 1.295 . S
C397 O375 1.295 . S
C397 O380 1.295 . S
O398 Zr362 2.207 . S
O398 C392 1.295 . S
O399 Zr362 2.207 . S
O399 C390 1.295 . S
O400 Zr405 2.207 . S
O400 C434 1.295 . S
O401 Zr405 2.133 . S
O401 Zr406 2.133 . S
O401 Zr407 2.133 . S
O402 Zr405 2.133 . S
O402 Zr411 2.133 . S
O402 Zr412 2.133 . S
O403 Zr405 2.133 . S
O403 Zr407 2.133 . S
O403 Zr412 2.133 . S
O404 Zr405 2.133 . S
O404 Zr406 2.133 . S
O404 Zr411 2.133 . S
Zr405 O400 2.207 . S
Zr405 O401 2.133 . S
Zr405 O402 2.133 . S
Zr405 O403 2.133 . S
Zr405 O404 2.133 . S
Zr405 O417 2.207 . S
Zr405 O430 2.207 . S
Zr405 O433 2.207 . S
Zr406 O401 2.133 . S
Zr406 O404 2.133 . S
Zr406 O408 2.133 . S
Zr406 O410 2.133 . S
Zr406 O422 2.207 . S
Zr406 O425 2.207 . S
Zr406 O435 2.207 . S
Zr406 O436 2.207 . S
Zr407 O401 2.133 . S
Zr407 O403 2.133 . S
Zr407 O409 2.133 . S
Zr407 O410 2.133 . S
Zr407 O419 2.207 . S
Zr407 O420 2.207 . S
Zr407 O427 2.207 . S
Zr407 O428 2.207 . S
O408 Zr406 2.133 . S
O408 Zr411 2.133 . S
O408 Zr413 2.133 . S
O409 Zr407 2.133 . S
O409 Zr412 2.133 . S
O409 Zr413 2.133 . S
O410 Zr406 2.133 . S
O410 Zr407 2.133 . S
O410 Zr413 2.133 . S
Zr411 O402 2.133 . S
Zr411 O404 2.133 . S
Zr411 O408 2.133 . S
Zr411 O414 2.133 . S
Zr411 O418 2.207 . S
Zr411 O421 2.207 . S
Zr411 O426 2.207 . S
Zr411 O429 2.207 . S
Zr412 O402 2.133 . S
Zr412 O403 2.133 . S
Zr412 O409 2.133 . S
Zr412 O414 2.133 . S
Zr412 O423 2.207 . S
Zr412 O424 2.207 . S
Zr412 O448 2.207 . S
Zr412 O449 2.207 . S
Zr413 O408 2.133 . S
Zr413 O409 2.133 . S
Zr413 O410 2.133 . S
Zr413 O414 2.133 . S
Zr413 O415 2.207 . S
Zr413 O416 2.207 . S
Zr413 O431 2.207 . S
Zr413 O432 2.207 . S
O414 Zr411 2.133 . S
O414 Zr412 2.133 . S
O414 Zr413 2.133 . S
O415 Zr413 2.207 . S
O415 C437 1.295 . S
O416 Zr413 2.207 . S
O416 C438 1.295 . S
O417 Zr405 2.207 . S
O417 C439 1.295 . S
O418 Zr411 2.207 . S
O418 C440 1.295 . S
O419 Zr407 2.207 . S
O419 C441 1.295 . S
O420 Zr407 2.207 . S
O420 C442 1.295 . S
O421 Zr411 2.207 . S
O421 C443 1.295 . S
O422 Zr406 2.207 . S
O422 C444 1.295 . S
O423 Zr412 2.207 . S
O423 C445 1.295 . S
O424 Zr412 2.207 . S
O424 C446 1.295 . S
O425 Zr406 2.207 . S
O425 C447 1.295 . S
O426 Zr411 2.207 . S
O426 C437 1.295 . S
O427 Zr407 2.207 . S
O427 C434 1.295 . S
O428 Zr407 2.207 . S
O428 C438 1.295 . S
O429 Zr411 2.207 . S
O429 C439 1.295 . S
O430 Zr405 2.207 . S
O430 C447 1.295 . S
O431 Zr413 2.207 . S
O431 C446 1.295 . S
O432 Zr413 2.207 . S
O432 C444 1.295 . S
O433 Zr405 2.207 . S
O433 C445 1.295 . S
C434 O400 1.295 . S
C434 O427 1.295 . S
O435 Zr406 2.207 . S
O435 C443 1.295 . S
O436 Zr406 2.207 . S
O436 C441 1.295 . S
C437 O415 1.295 . S
C437 O426 1.295 . S
C438 O416 1.295 . S
C438 O428 1.295 . S
C439 O417 1.295 . S
C439 O429 1.295 . S
C440 O418 1.295 . S
C440 O449 1.295 . S
C441 O419 1.295 . S
C441 O436 1.295 . S
C442 O420 1.295 . S
C442 O448 1.295 . S
C443 O421 1.295 . S
C443 O435 1.295 . S
C444 O422 1.295 . S
C444 O432 1.295 . S
C445 O423 1.295 . S
C445 O433 1.295 . S
C446 O424 1.295 . S
C446 O431 1.295 . S
C447 O425 1.295 . S
C447 O430 1.295 . S
O448 Zr412 2.207 . S
O448 C442 1.295 . S
O449 Zr412 2.207 . S
O449 C440 1.295 . S
O450 Zr455 2.207 . S
O450 C484 1.295 . S
O451 Zr455 2.133 . S
O451 Zr456 2.133 . S
O451 Zr457 2.133 . S
O452 Zr455 2.133 . S
O452 Zr461 2.133 . S
O452 Zr462 2.133 . S
O453 Zr455 2.133 . S
O453 Zr457 2.133 . S
O453 Zr462 2.133 . S
O454 Zr455 2.133 . S
O454 Zr456 2.133 . S
O454 Zr461 2.133 . S
Zr455 O450 2.207 . S
Zr455 O451 2.133 . S
Zr455 O452 2.133 . S
Zr455 O453 2.133 . S
Zr455 O454 2.133 . S
Zr455 O467 2.207 . S
Zr455 O480 2.207 . S
Zr455 O483 2.207 . S
Zr456 O451 2.133 . S
Zr456 O454 2.133 . S
Zr456 O458 2.133 . S
Zr456 O460 2.133 . S
Zr456 O472 2.207 . S
Zr456 O475 2.207 . S
Zr456 O485 2.207 . S
Zr456 O486 2.207 . S
Zr457 O451 2.133 . S
Zr457 O453 2.133 . S
Zr457 O459 2.133 . S
Zr457 O460 2.133 . S
Zr457 O469 2.207 . S
Zr457 O470 2.207 . S
Zr457 O477 2.207 . S
Zr457 O478 2.207 . S
O458 Zr456 2.133 . S
O458 Zr461 2.133 . S
O458 Zr463 2.133 . S
O459 Zr457 2.133 . S
O459 Zr462 2.133 . S
O459 Zr463 2.133 . S
O460 Zr456 2.133 . S
O460 Zr457 2.133 . S
O460 Zr463 2.133 . S
Zr461 O452 2.133 . S
Zr461 O454 2.133 . S
Zr461 O458 2.133 . S
Zr461 O464 2.133 . S
Zr461 O468 2.207 . S
Zr461 O471 2.207 . S
Zr461 O476 2.207 . S
Zr461 O479 2.207 . S
Zr462 O452 2.133 . S
Zr462 O453 2.133 . S
Zr462 O459 2.133 . S
Zr462 O464 2.133 . S
Zr462 O473 2.207 . S
Zr462 O474 2.207 . S
Zr462 O498 2.207 . S
Zr462 O499 2.207 . S
Zr463 O458 2.133 . S
Zr463 O459 2.133 . S
Zr463 O460 2.133 . S
Zr463 O464 2.133 . S
Zr463 O465 2.207 . S
Zr463 O466 2.207 . S
Zr463 O481 2.207 . S
Zr463 O482 2.207 . S
O464 Zr461 2.133 . S
O464 Zr462 2.133 . S
O464 Zr463 2.133 . S
O465 Zr463 2.207 . S
O465 C487 1.295 . S
O466 Zr463 2.207 . S
O466 C488 1.295 . S
O467 Zr455 2.207 . S
O467 C489 1.295 . S
O468 Zr461 2.207 . S
O468 C490 1.295 . S
O469 Zr457 2.207 . S
O469 C491 1.295 . S
O470 Zr457 2.207 . S
O470 C492 1.295 . S
O471 Zr461 2.207 . S
O471 C493 1.295 . S
O472 Zr456 2.207 . S
O472 C494 1.295 . S
O473 Zr462 2.207 . S
O473 C495 1.295 . S
O474 Zr462 2.207 . S
O474 C496 1.295 . S
O475 Zr456 2.207 . S
O475 C497 1.295 . S
O476 Zr461 2.207 . S
O476 C487 1.295 . S
O477 Zr457 2.207 . S
O477 C484 1.295 . S
O478 Zr457 2.207 . S
O478 C488 1.295 . S
O479 Zr461 2.207 . S
O479 C489 1.295 . S
O480 Zr455 2.207 . S
O480 C497 1.295 . S
O481 Zr463 2.207 . S
O481 C496 1.295 . S
O482 Zr463 2.207 . S
O482 C494 1.295 . S
O483 Zr455 2.207 . S
O483 C495 1.295 . S
C484 O450 1.295 . S
C484 O477 1.295 . S
O485 Zr456 2.207 . S
O485 C493 1.295 . S
O486 Zr456 2.207 . S
O486 C491 1.295 . S
C487 O465 1.295 . S
C487 O476 1.295 . S
C488 O466 1.295 . S
C488 O478 1.295 . S
C489 O467 1.295 . S
C489 O479 1.295 . S
C490 O468 1.295 . S
C490 O499 1.295 . S
C491 O469 1.295 . S
C491 O486 1.295 . S
C492 O470 1.295 . S
C492 O498 1.295 . S
C493 O471 1.295 . S
C493 O485 1.295 . S
C494 O472 1.295 . S
C494 O482 1.295 . S
C495 O473 1.295 . S
C495 O483 1.295 . S
C496 O474 1.295 . S
C496 O481 1.295 . S
C497 O475 1.295 . S
C497 O480 1.295 . S
O498 Zr462 2.207 . S
O498 C492 1.295 . S
O499 Zr462 2.207 . S
O499 C490 1.295 . S
O500 Zr505 2.207 . S
O500 C534 1.295 . S
O501 Zr505 2.133 . S
O501 Zr506 2.133 1_565 S
O501 Zr507 2.133 1_565 S
O502 Zr505 2.133 . S
O502 Zr511 2.133 1_565 S
O502 Zr512 2.133 . S
O503 Zr505 2.133 . S
O503 Zr507 2.133 1_565 S
O503 Zr512 2.133 . S
O504 Zr505 2.133 . S
O504 Zr506 2.133 1_565 S
O504 Zr511 2.133 1_565 S
Zr505 O500 2.207 . S
Zr505 O501 2.133 . S
Zr505 O502 2.133 . S
Zr505 O503 2.133 . S
Zr505 O504 2.133 . S
Zr505 O517 2.207 . S
Zr505 O530 2.207 . S
Zr505 O533 2.207 . S
Zr506 O501 2.133 1_545 S
Zr506 O504 2.133 1_545 S
Zr506 O508 2.133 . S
Zr506 O510 2.133 . S
Zr506 O522 2.207 . S
Zr506 O525 2.207 1_545 S
Zr506 O535 2.207 . S
Zr506 O536 2.207 . S
Zr507 O501 2.133 1_545 S
Zr507 O503 2.133 1_545 S
Zr507 O509 2.133 . S
Zr507 O510 2.133 . S
Zr507 O519 2.207 . S
Zr507 O520 2.207 1_545 S
Zr507 O527 2.207 1_545 S
Zr507 O528 2.207 . S
O508 Zr506 2.133 . S
O508 Zr511 2.133 . S
O508 Zr513 2.133 . S
O509 Zr507 2.133 . S
O509 Zr512 2.133 1_545 S
O509 Zr513 2.133 . S
O510 Zr506 2.133 . S
O510 Zr507 2.133 . S
O510 Zr513 2.133 . S
Zr511 O502 2.133 1_545 S
Zr511 O504 2.133 1_545 S
Zr511 O508 2.133 . S
Zr511 O514 2.133 . S
Zr511 O518 2.207 1_545 S
Zr511 O521 2.207 . S
Zr511 O526 2.207 . S
Zr511 O529 2.207 1_545 S
Zr512 O502 2.133 . S
Zr512 O503 2.133 . S
Zr512 O509 2.133 1_565 S
Zr512 O514 2.133 1_565 S
Zr512 O523 2.207 . S
Zr512 O524 2.207 1_565 S
Zr512 O548 2.207 . S
Zr512 O549 2.207 . S
Zr513 O508 2.133 . S
Zr513 O509 2.133 . S
Zr513 O510 2.133 . S
Zr513 O514 2.133 . S
Zr513 O515 2.207 . S
Zr513 O516 2.207 . S
Zr513 O531 2.207 . S
Zr513 O532 2.207 . S
O514 Zr511 2.133 . S
O514 Zr512 2.133 1_545 S
O514 Zr513 2.133 . S
O515 Zr513 2.207 . S
O515 C537 1.295 . S
O516 Zr513 2.207 . S
O516 C538 1.295 . S
O517 Zr505 2.207 . S
O517 C539 1.295 . S
O518 Zr511 2.207 1_565 S
O518 C540 1.295 . S
O519 Zr507 2.207 . S
O519 C541 1.295 . S
O520 Zr507 2.207 1_565 S
O520 C542 1.295 . S
O521 Zr511 2.207 . S
O521 C543 1.295 . S
O522 Zr506 2.207 . S
O522 C544 1.295 . S
O523 Zr512 2.207 . S
O523 C545 1.295 . S
O524 Zr512 2.207 1_545 S
O524 C546 1.295 . S
O525 Zr506 2.207 1_565 S
O525 C547 1.295 . S
O526 Zr511 2.207 . S
O526 C537 1.295 . S
O527 Zr507 2.207 1_565 S
O527 C534 1.295 . S
O528 Zr507 2.207 . S
O528 C538 1.295 . S
O529 Zr511 2.207 1_565 S
O529 C539 1.295 . S
O530 Zr505 2.207 . S
O530 C547 1.295 . S
O531 Zr513 2.207 . S
O531 C546 1.295 . S
O532 Zr513 2.207 . S
O532 C544 1.295 . S
O533 Zr505 2.207 . S
O533 C545 1.295 . S
C534 O500 1.295 . S
C534 O527 1.295 . S
O535 Zr506 2.207 . S
O535 C543 1.295 . S
O536 Zr506 2.207 . S
O536 C541 1.295 . S
C537 O515 1.295 . S
C537 O526 1.295 . S
C538 O516 1.295 . S
C538 O528 1.295 . S
C539 O517 1.295 . S
C539 O529 1.295 . S
C540 O518 1.295 . S
C540 O549 1.295 . S
C541 O519 1.295 . S
C541 O536 1.295 . S
C542 O520 1.295 . S
C542 O548 1.295 . S
C543 O521 1.295 . S
C543 O535 1.295 . S
C544 O522 1.295 . S
C544 O532 1.295 . S
C545 O523 1.295 . S
C545 O533 1.295 . S
C546 O524 1.295 . S
C546 O531 1.295 . S
C547 O525 1.295 . S
C547 O530 1.295 . S
O548 Zr512 2.207 . S
O548 C542 1.295 . S
O549 Zr512 2.207 . S
O549 C540 1.295 . S
O550 Zr555 2.207 . S
O550 C584 1.295 . S
O551 Zr555 2.133 . S
O551 Zr556 2.133 . S
O551 Zr557 2.133 . S
O552 Zr555 2.133 . S
O552 Zr561 2.133 . S
O552 Zr562 2.133 . S
O553 Zr555 2.133 . S
O553 Zr557 2.133 . S
O553 Zr562 2.133 . S
O554 Zr555 2.133 . S
O554 Zr556 2.133 . S
O554 Zr561 2.133 . S
Zr555 O550 2.207 . S
Zr555 O551 2.133 . S
Zr555 O552 2.133 . S
Zr555 O553 2.133 . S
Zr555 O554 2.133 . S
Zr555 O567 2.207 . S
Zr555 O580 2.207 . S
Zr555 O583 2.207 . S
Zr556 O551 2.133 . S
Zr556 O554 2.133 . S
Zr556 O558 2.133 . S
Zr556 O560 2.133 . S
Zr556 O572 2.207 . S
Zr556 O575 2.207 . S
Zr556 O585 2.207 . S
Zr556 O586 2.207 . S
Zr557 O551 2.133 . S
Zr557 O553 2.133 . S
Zr557 O559 2.133 . S
Zr557 O560 2.133 . S
Zr557 O569 2.207 . S
Zr557 O570 2.207 . S
Zr557 O577 2.207 . S
Zr557 O578 2.207 . S
O558 Zr556 2.133 . S
O558 Zr561 2.133 . S
O558 Zr563 2.133 . S
O559 Zr557 2.133 . S
O559 Zr562 2.133 . S
O559 Zr563 2.133 . S
O560 Zr556 2.133 . S
O560 Zr557 2.133 . S
O560 Zr563 2.133 . S
Zr561 O552 2.133 . S
Zr561 O554 2.133 . S
Zr561 O558 2.133 . S
Zr561 O564 2.133 . S
Zr561 O568 2.207 . S
Zr561 O571 2.207 . S
Zr561 O576 2.207 . S
Zr561 O579 2.207 . S
Zr562 O552 2.133 . S
Zr562 O553 2.133 . S
Zr562 O559 2.133 . S
Zr562 O564 2.133 . S
Zr562 O573 2.207 . S
Zr562 O574 2.207 . S
Zr562 O598 2.207 . S
Zr562 O599 2.207 . S
Zr563 O558 2.133 . S
Zr563 O559 2.133 . S
Zr563 O560 2.133 . S
Zr563 O564 2.133 . S
Zr563 O565 2.207 . S
Zr563 O566 2.207 . S
Zr563 O581 2.207 . S
Zr563 O582 2.207 . S
O564 Zr561 2.133 . S
O564 Zr562 2.133 . S
O564 Zr563 2.133 . S
O565 Zr563 2.207 . S
O565 C587 1.295 . S
O566 Zr563 2.207 . S
O566 C588 1.295 . S
O567 Zr555 2.207 . S
O567 C589 1.295 . S
O568 Zr561 2.207 . S
O568 C590 1.295 . S
O569 Zr557 2.207 . S
O569 C591 1.295 . S
O570 Zr557 2.207 . S
O570 C592 1.295 . S
O571 Zr561 2.207 . S
O571 C593 1.295 . S
O572 Zr556 2.207 . S
O572 C594 1.295 . S
O573 Zr562 2.207 . S
O573 C595 1.295 . S
O574 Zr562 2.207 . S
O574 C596 1.295 . S
O575 Zr556 2.207 . S
O575 C597 1.295 . S
O576 Zr561 2.207 . S
O576 C587 1.295 . S
O577 Zr557 2.207 . S
O577 C584 1.295 . S
O578 Zr557 2.207 . S
O578 C588 1.295 . S
O579 Zr561 2.207 . S
O579 C589 1.295 . S
O580 Zr555 2.207 . S
O580 C597 1.295 . S
O581 Zr563 2.207 . S
O581 C596 1.295 . S
O582 Zr563 2.207 . S
O582 C594 1.295 . S
O583 Zr555 2.207 . S
O583 C595 1.295 . S
C584 O550 1.295 . S
C584 O577 1.295 . S
O585 Zr556 2.207 . S
O585 C593 1.295 . S
O586 Zr556 2.207 . S
O586 C591 1.295 . S
C587 O565 1.295 . S
C587 O576 1.295 . S
C588 O566 1.295 . S
C588 O578 1.295 . S
C589 O567 1.295 . S
C589 O579 1.295 . S
C590 O568 1.295 . S
C590 O599 1.295 . S
C591 O569 1.295 . S
C591 O586 1.295 . S
C592 O570 1.295 . S
C592 O598 1.295 . S
C593 O571 1.295 . S
C593 O585 1.295 . S
C594 O572 1.295 . S
C594 O582 1.295 . S
C595 O573 1.295 . S
C595 O583 1.295 . S
C596 O574 1.295 . S
C596 O581 1.295 . S
C597 O575 1.295 . S
C597 O580 1.295 . S
O598 Zr562 2.207 . S
O598 C592 1.295 . S
O599 Zr562 2.207 . S
O599 C590 1.295 . S
C600 C601 1.349 . S
C600 C602 1.327 . S
C600 H625 0.950 . S
C601 C600 1.349 . S
C601 C617 1.349 . S
C602 C600 1.327 . S
C602 C621 1.429 . S
C602 H626 0.950 . S
C603 C620 1.574 . S
C603 C622 1.368 . S
C603 H627 0.949 . S
H604 C608 0.949 . S
C605 C606 1.349 . S
C605 C607 1.327 . S
C605 H628 0.950 . S
C606 C605 1.349 . S
C606 C618 1.349 . S
C607 C605 1.327 . S
C607 C623 1.429 . S
C607 H629 0.950 . S
C608 H604 0.949 . S
C608 C616 1.574 . S
C608 C624 1.368 . S
H609 C617 0.950 . S
H610 C615 0.950 . S
H611 C616 0.949 . S
H612 C618 0.950 . S
H613 C619 0.950 . S
H614 C620 0.949 . S
C615 H610 0.950 . S
C615 C617 1.327 . S
C615 C621 1.429 . S
C616 C608 1.574 . S
C616 H611 0.949 . S
C616 C622 1.368 . S
C617 C601 1.349 . S
C617 H609 0.950 . S
C617 C615 1.327 . S
C618 C606 1.349 . S
C618 H612 0.950 . S
C618 C619 1.327 . S
C619 H613 0.950 . S
C619 C618 1.327 . S
C619 C623 1.429 . S
C620 C603 1.574 . S
C620 H614 0.949 . S
C620 C624 1.368 . S
C621 C602 1.429 . S
C621 C615 1.429 . S
C621 C622 1.523 . S
C622 C603 1.368 . S
C622 C616 1.368 . S
C622 C621 1.523 . S
C623 C607 1.429 . S
C623 C619 1.429 . S
C623 C624 1.523 . S
C624 C608 1.368 . S
C624 C620 1.368 . S
C624 C623 1.523 . S
H625 C600 0.950 . S
H626 C602 0.950 . S
H627 C603 0.949 . S
H628 C605 0.950 . S
H629 C607 0.950 . S
C630 C631 1.349 . S
C630 C632 1.327 . S
C630 H655 0.950 . S
C631 C630 1.349 . S
C631 C647 1.349 . S
C632 C630 1.327 . S
C632 C651 1.429 . S
C632 H656 0.950 . S
C633 C650 1.574 . S
C633 C652 1.368 . S
C633 H657 0.949 . S
H634 C638 0.949 . S
C635 C636 1.349 . S
C635 C637 1.327 . S
C635 H658 0.950 . S
C636 C635 1.349 . S
C636 C648 1.349 . S
C637 C635 1.327 . S
C637 C653 1.429 1_556 S
C637 H659 0.950 1_556 S
C638 H634 0.949 . S
C638 C646 1.574 . S
C638 C654 1.368 . S
H639 C647 0.950 . S
H640 C645 0.950 . S
H641 C646 0.949 . S
H642 C648 0.950 . S
H643 C649 0.950 . S
H644 C650 0.949 . S
C645 H640 0.950 . S
C645 C647 1.327 . S
C645 C651 1.429 . S
C646 C638 1.574 . S
C646 H641 0.949 . S
C646 C652 1.368 . S
C647 C631 1.349 . S
C647 H639 0.950 . S
C647 C645 1.327 . S
C648 C636 1.349 . S
C648 H642 0.950 . S
C648 C649 1.327 . S
C649 H643 0.950 . S
C649 C648 1.327 . S
C649 C653 1.429 1_556 S
C650 C633 1.574 . S
C650 H644 0.949 . S
C650 C654 1.368 . S
C651 C632 1.429 . S
C651 C645 1.429 . S
C651 C652 1.523 . S
C652 C633 1.368 . S
C652 C646 1.368 . S
C652 C651 1.523 . S
C653 C637 1.429 1_554 S
C653 C649 1.429 1_554 S
C653 C654 1.523 . S
C654 C638 1.368 . S
C654 C650 1.368 . S
C654 C653 1.523 . S
H655 C630 0.950 . S
H656 C632 0.950 . S
H657 C633 0.949 . S
H658 C635 0.950 . S
H659 C637 0.950 1_554 S
C660 C661 1.349 . S
C660 C662 1.327 . S
C660 H685 0.950 . S
C661 C660 1.349 . S
C661 C677 1.349 . S
C662 C660 1.327 . S
C662 C681 1.429 . S
C662 H686 0.950 . S
C663 C680 1.574 . S
C663 C682 1.368 . S
C663 H687 0.949 . S
H664 C668 0.949 . S
C665 C666 1.349 . S
C665 C667 1.327 . S
C665 H688 0.950 . S
C666 C665 1.349 . S
C666 C678 1.349 . S
C667 C665 1.327 . S
C667 C683 1.429 . S
C667 H689 0.950 . S
C668 H664 0.949 . S
C668 C676 1.574 . S
C668 C684 1.368 . S
H669 C677 0.950 . S
H670 C675 0.950 . S
H671 C676 0.949 . S
H672 C678 0.950 . S
H673 C679 0.950 . S
H674 C680 0.949 . S
C675 H670 0.950 . S
C675 C677 1.327 . S
C675 C681 1.429 . S
C676 C668 1.574 . S
C676 H671 0.949 . S
C676 C682 1.368 . S
C677 C661 1.349 . S
C677 H669 0.950 . S
C677 C675 1.327 . S
C678 C666 1.349 . S
C678 H672 0.950 . S
C678 C679 1.327 . S
C679 H673 0.950 . S
C679 C678 1.327 . S
C679 C683 1.429 . S
C680 C663 1.574 . S
C680 H674 0.949 . S
C680 C684 1.368 . S
C681 C662 1.429 . S
C681 C675 1.429 . S
C681 C682 1.523 . S
C682 C663 1.368 . S
C682 C676 1.368 . S
C682 C681 1.523 . S
C683 C667 1.429 . S
C683 C679 1.429 . S
C683 C684 1.523 . S
C684 C668 1.368 . S
C684 C680 1.368 . S
C684 C683 1.523 . S
H685 C660 0.950 . S
H686 C662 0.950 . S
H687 C663 0.949 . S
H688 C665 0.950 . S
H689 C667 0.950 . S
C690 C691 1.349 . S
C690 C692 1.327 . S
C690 H715 0.950 . S
C691 C690 1.349 . S
C691 C707 1.349 . S
C692 C690 1.327 . S
C692 C711 1.429 . S
C692 H716 0.950 . S
C693 C710 1.574 . S
C693 C712 1.368 . S
C693 H717 0.949 . S
H694 C698 0.949 . S
C695 C696 1.349 . S
C695 C697 1.327 1_556 S
C695 H718 0.950 . S
C696 C695 1.349 . S
C696 C708 1.349 . S
C697 C695 1.327 1_554 S
C697 C713 1.429 . S
C697 H719 0.950 . S
C698 H694 0.949 . S
C698 C706 1.574 . S
C698 C714 1.368 . S
H699 C707 0.950 . S
H700 C705 0.950 . S
H701 C706 0.949 . S
H702 C708 0.950 . S
H703 C709 0.950 . S
H704 C710 0.949 . S
C705 H700 0.950 . S
C705 C707 1.327 . S
C705 C711 1.429 . S
C706 C698 1.574 . S
C706 H701 0.949 . S
C706 C712 1.368 . S
C707 C691 1.349 . S
C707 H699 0.950 . S
C707 C705 1.327 . S
C708 C696 1.349 . S
C708 H702 0.950 . S
C708 C709 1.327 . S
C709 H703 0.950 . S
C709 C708 1.327 . S
C709 C713 1.429 1_556 S
C710 C693 1.574 . S
C710 H704 0.949 . S
C710 C714 1.368 . S
C711 C692 1.429 . S
C711 C705 1.429 . S
C711 C712 1.523 . S
C712 C693 1.368 . S
C712 C706 1.368 . S
C712 C711 1.523 . S
C713 C697 1.429 . S
C713 C709 1.429 1_554 S
C713 C714 1.523 . S
C714 C698 1.368 . S
C714 C710 1.368 . S
C714 C713 1.523 . S
H715 C690 0.950 . S
H716 C692 0.950 . S
H717 C693 0.949 . S
H718 C695 0.950 . S
H719 C697 0.950 . S
C720 C721 1.349 . S
C720 C722 1.327 . S
C720 H745 0.950 . S
C721 C720 1.349 . S
C721 C737 1.349 . S
C722 C720 1.327 . S
C722 C741 1.429 . S
C722 H746 0.950 . S
C723 C740 1.574 . S
C723 C742 1.368 . S
C723 H747 0.949 . S
H724 C728 0.949 . S
C725 C726 1.349 . S
C725 C727 1.327 . S
C725 H748 0.950 . S
C726 C725 1.349 . S
C726 C738 1.349 . S
C727 C725 1.327 . S
C727 C743 1.429 . S
C727 H749 0.950 . S
C728 H724 0.949 . S
C728 C736 1.574 . S
C728 C744 1.368 . S
H729 C737 0.950 . S
H730 C735 0.950 . S
H731 C736 0.949 . S
H732 C738 0.950 . S
H733 C739 0.950 . S
H734 C740 0.949 . S
C735 H730 0.950 . S
C735 C737 1.327 . S
C735 C741 1.429 . S
C736 C728 1.574 . S
C736 H731 0.949 . S
C736 C742 1.368 . S
C737 C721 1.349 . S
C737 H729 0.950 . S
C737 C735 1.327 . S
C738 C726 1.349 . S
C738 H732 0.950 . S
C738 C739 1.327 . S
C739 H733 0.950 . S
C739 C738 1.327 . S
C739 C743 1.429 . S
C740 C723 1.574 . S
C740 H734 0.949 . S
C740 C744 1.368 . S
C741 C722 1.429 . S
C741 C735 1.429 . S
C741 C742 1.523 . S
C742 C723 1.368 . S
C742 C736 1.368 . S
C742 C741 1.523 . S
C743 C727 1.429 . S
C743 C739 1.429 . S
C743 C744 1.523 . S
C744 C728 1.368 . S
C744 C740 1.368 . S
C744 C743 1.523 . S
H745 C720 0.950 . S
H746 C722 0.950 . S
H747 C723 0.949 . S
H748 C725 0.950 . S
H749 C727 0.950 . S
C750 C751 1.349 1_455 S
C750 C752 1.327 1_454 S
C750 H775 0.950 . S
C751 C750 1.349 1_655 S
C751 C767 1.349 . S
C752 C750 1.327 1_656 S
C752 C771 1.429 . S
C752 H776 0.934 1_655 S
C753 C770 1.574 . S
C753 C772 1.368 . S
C753 H777 0.949 . S
H754 C758 0.949 . S
C755 C756 1.349 . S
C755 C757 1.327 . S
C755 H778 0.950 . S
C756 C755 1.349 . S
C756 C768 1.349 . S
C757 C755 1.327 . S
C757 C773 1.429 . S
C757 H779 0.950 . S
C758 H754 0.949 . S
C758 C766 1.574 . S
C758 C774 1.368 . S
H759 C767 0.950 . S
H760 C765 0.950 . S
H761 C766 0.949 . S
H762 C768 0.950 . S
H763 C769 0.950 . S
H764 C770 0.949 . S
C765 H760 0.950 . S
C765 C767 1.327 . S
C765 C771 1.429 1_554 S
C766 C758 1.574 . S
C766 H761 0.949 . S
C766 C772 1.368 . S
C767 C751 1.349 . S
C767 H759 0.950 . S
C767 C765 1.327 . S
C768 C756 1.349 . S
C768 H762 0.950 . S
C768 C769 1.327 . S
C769 H763 0.950 . S
C769 C768 1.327 . S
C769 C773 1.429 . S
C770 C753 1.574 . S
C770 H764 0.949 . S
C770 C774 1.368 . S
C771 C752 1.429 . S
C771 C765 1.429 1_556 S
C771 C772 1.523 . S
C772 C753 1.368 . S
C772 C766 1.368 . S
C772 C771 1.523 . S
C773 C757 1.429 . S
C773 C769 1.429 . S
C773 C774 1.523 . S
C774 C758 1.368 . S
C774 C770 1.368 . S
C774 C773 1.523 . S
H775 C750 0.950 . S
H776 C752 0.934 1_455 S
H777 C753 0.949 . S
H778 C755 0.950 . S
H779 C757 0.950 . S
C780 C781 1.349 . S
C780 C782 1.327 . S
C780 H805 0.950 . S
C781 C780 1.349 . S
C781 C797 1.349 . S
C782 C780 1.327 . S
C782 C801 1.429 . S
C782 H806 0.950 . S
C783 C800 1.574 . S
C783 C802 1.368 . S
C783 H807 0.949 . S
H784 C788 0.949 . S
C785 C786 1.349 . S
C785 C787 1.327 . S
C785 H808 0.950 . S
C786 C785 1.349 . S
C786 C798 1.349 . S
C787 C785 1.327 . S
C787 C803 1.429 . S
C787 H809 0.950 . S
C788 H784 0.949 . S
C788 C796 1.574 . S
C788 C804 1.368 . S
H789 C797 0.950 . S
H790 C795 0.950 . S
H791 C796 0.949 . S
H792 C798 0.950 . S
H793 C799 0.950 . S
H794 C800 0.949 . S
C795 H790 0.950 . S
C795 C797 1.327 . S
C795 C801 1.429 . S
C796 C788 1.574 . S
C796 H791 0.949 . S
C796 C802 1.368 . S
C797 C781 1.349 . S
C797 H789 0.950 . S
C797 C795 1.327 . S
C798 C786 1.349 . S
C798 H792 0.950 . S
C798 C799 1.327 . S
C799 H793 0.950 . S
C799 C798 1.327 . S
C799 C803 1.429 . S
C800 C783 1.574 . S
C800 H794 0.949 . S
C800 C804 1.368 . S
C801 C782 1.429 . S
C801 C795 1.429 . S
C801 C802 1.523 . S
C802 C783 1.368 . S
C802 C796 1.368 . S
C802 C801 1.523 . S
C803 C787 1.429 . S
C803 C799 1.429 . S
C803 C804 1.523 . S
C804 C788 1.368 . S
C804 C800 1.368 . S
C804 C803 1.523 . S
H805 C780 0.950 . S
H806 C782 0.950 . S
H807 C783 0.949 . S
H808 C785 0.950 . S
H809 C787 0.950 . S
C810 C811 1.349 . S
C810 C812 1.327 . S
C810 H835 0.950 . S
C811 C810 1.349 . S
C811 C827 1.349 . S
C812 C810 1.327 . S
C812 C831 1.429 . S
C812 H836 0.950 . S
C813 C830 1.574 . S
C813 C832 1.368 . S
C813 H837 0.949 . S
H814 C818 0.949 . S
C815 C816 1.349 . S
C815 C817 1.327 . S
C815 H838 0.950 1_455 S
C816 C815 1.349 . S
C816 C828 1.349 . S
C817 C815 1.327 . S
C817 C833 1.429 1_554 S
C817 H839 0.950 . S
C818 H814 0.949 . S
C818 C826 1.574 . S
C818 C834 1.368 . S
H819 C827 0.950 . S
H820 C825 0.950 . S
H821 C826 0.949 . S
H822 C828 0.950 . S
H823 C829 0.950 1_556 S
H824 C830 0.949 . S
C825 H820 0.950 . S
C825 C827 1.327 . S
C825 C831 1.429 . S
C826 C818 1.574 . S
C826 H821 0.949 . S
C826 C832 1.368 . S
C827 C811 1.349 . S
C827 H819 0.950 . S
C827 C825 1.327 . S
C828 C816 1.349 . S
C828 H822 0.950 . S
C828 C829 1.327 . S
C829 H823 0.950 1_554 S
C829 C828 1.327 . S
C829 C833 1.429 1_554 S
C830 C813 1.574 . S
C830 H824 0.949 . S
C830 C834 1.368 . S
C831 C812 1.429 . S
C831 C825 1.429 . S
C831 C832 1.523 . S
C832 C813 1.368 . S
C832 C826 1.368 . S
C832 C831 1.523 . S
C833 C817 1.429 1_556 S
C833 C829 1.429 1_556 S
C833 C834 1.523 . S
C834 C818 1.368 . S
C834 C830 1.368 . S
C834 C833 1.523 . S
H835 C810 0.950 . S
H836 C812 0.950 . S
H837 C813 0.949 . S
H838 C815 0.950 1_655 S
H839 C817 0.950 . S
C840 C841 1.349 . S
C840 C842 1.327 . S
C840 H865 0.950 . S
C841 C840 1.349 . S
C841 C857 1.349 . S
C842 C840 1.327 . S
C842 C861 1.429 . S
C842 H866 0.950 . S
C843 C860 1.574 . S
C843 C862 1.368 . S
C843 H867 0.949 . S
H844 C848 0.949 . S
C845 C846 1.349 . S
C845 C847 1.327 . S
C845 H868 0.950 . S
C846 C845 1.349 . S
C846 C858 1.349 . S
C847 C845 1.327 . S
C847 C863 1.429 . S
C847 H869 0.950 . S
C848 H844 0.949 . S
C848 C856 1.574 . S
C848 C864 1.368 . S
H849 C857 0.950 . S
H850 C855 0.950 . S
H851 C856 0.949 . S
H852 C858 0.950 . S
H853 C859 0.950 . S
H854 C860 0.949 . S
C855 H850 0.950 . S
C855 C857 1.327 . S
C855 C861 1.429 . S
C856 C848 1.574 . S
C856 H851 0.949 . S
C856 C862 1.368 . S
C857 C841 1.349 . S
C857 H849 0.950 . S
C857 C855 1.327 . S
C858 C846 1.349 . S
C858 H852 0.950 . S
C858 C859 1.327 . S
C859 H853 0.950 . S
C859 C858 1.327 . S
C859 C863 1.429 . S
C860 C843 1.574 . S
C860 H854 0.949 . S
C860 C864 1.368 . S
C861 C842 1.429 . S
C861 C855 1.429 . S
C861 C862 1.523 . S
C862 C843 1.368 . S
C862 C856 1.368 . S
C862 C861 1.523 . S
C863 C847 1.429 . S
C863 C859 1.429 . S
C863 C864 1.523 . S
C864 C848 1.368 . S
C864 C860 1.368 . S
C864 C863 1.523 . S
H865 C840 0.950 . S
H866 C842 0.950 . S
H867 C843 0.949 . S
H868 C845 0.950 . S
H869 C847 0.950 . S
C870 C871 1.349 . S
C870 C872 1.327 . S
C870 H895 0.950 . S
C871 C870 1.349 . S
C871 C887 1.349 . S
C872 C870 1.327 . S
C872 C891 1.429 . S
C872 H896 0.950 . S
C873 C890 1.574 . S
C873 C892 1.368 . S
C873 H897 0.949 . S
H874 C878 0.949 . S
C875 C876 1.349 . S
C875 C877 1.327 . S
C875 H898 0.950 . S
C876 C875 1.349 . S
C876 C888 1.349 1_556 S
C877 C875 1.327 . S
C877 C893 1.429 . S
C877 H899 0.950 . S
C878 H874 0.949 . S
C878 C886 1.574 . S
C878 C894 1.368 . S
H879 C887 0.950 . S
H880 C885 0.950 . S
H881 C886 0.949 . S
H882 C888 0.950 . S
H883 C889 0.950 1_554 S
H884 C890 0.949 . S
C885 H880 0.950 . S
C885 C887 1.327 . S
C885 C891 1.429 . S
C886 C878 1.574 . S
C886 H881 0.949 . S
C886 C892 1.368 . S
C887 C871 1.349 . S
C887 H879 0.950 . S
C887 C885 1.327 . S
C888 C876 1.349 1_554 S
C888 H882 0.950 . S
C888 C889 1.327 1_554 S
C889 H883 0.950 1_556 S
C889 C888 1.327 1_556 S
C889 C893 1.429 . S
C890 C873 1.574 . S
C890 H884 0.949 . S
C890 C894 1.368 . S
C891 C872 1.429 . S
C891 C885 1.429 . S
C891 C892 1.523 . S
C892 C873 1.368 . S
C892 C886 1.368 . S
C892 C891 1.523 . S
C893 C877 1.429 . S
C893 C889 1.429 . S
C893 C894 1.523 . S
C894 C878 1.368 . S
C894 C890 1.368 . S
C894 C893 1.523 . S
H895 C870 0.950 . S
H896 C872 0.950 . S
H897 C873 0.949 . S
H898 C875 0.950 . S
H899 C877 0.950 . S
C900 C901 1.349 . S
C900 C902 1.327 . S
C900 H925 0.950 . S
C901 C900 1.349 . S
C901 C917 1.349 . S
C902 C900 1.327 . S
C902 C921 1.429 . S
C902 H926 0.950 . S
C903 C920 1.574 . S
C903 C922 1.368 . S
C903 H927 0.949 . S
H904 C908 0.949 . S
C905 C906 1.349 . S
C905 C907 1.327 . S
C905 H928 0.950 . S
C906 C905 1.349 . S
C906 C918 1.349 . S
C907 C905 1.327 . S
C907 C923 1.429 . S
C907 H929 0.950 . S
C908 H904 0.949 . S
C908 C916 1.574 . S
C908 C924 1.368 . S
H909 C917 0.950 . S
H910 C915 0.950 . S
H911 C916 0.949 . S
H912 C918 0.950 . S
H913 C919 0.950 . S
H914 C920 0.949 . S
C915 H910 0.950 . S
C915 C917 1.327 . S
C915 C921 1.429 . S
C916 C908 1.574 . S
C916 H911 0.949 . S
C916 C922 1.368 . S
C917 C901 1.349 . S
C917 H909 0.950 . S
C917 C915 1.327 . S
C918 C906 1.349 . S
C918 H912 0.950 . S
C918 C919 1.327 . S
C919 H913 0.950 . S
C919 C918 1.327 . S
C919 C923 1.429 . S
C920 C903 1.574 . S
C920 H914 0.949 . S
C920 C924 1.368 . S
C921 C902 1.429 . S
C921 C915 1.429 . S
C921 C922 1.523 . S
C922 C903 1.368 . S
C922 C916 1.368 . S
C922 C921 1.523 . S
C923 C907 1.429 . S
C923 C919 1.429 . S
C923 C924 1.523 . S
C924 C908 1.368 . S
C924 C920 1.368 . S
C924 C923 1.523 . S
H925 C900 0.950 . S
H926 C902 0.950 . S
H927 C903 0.949 . S
H928 C905 0.950 . S
H929 C907 0.950 . S
C930 C931 1.349 . S
C930 C932 1.327 . S
C930 H955 0.950 . S
C931 C930 1.349 . S
C931 C947 1.349 . S
C932 C930 1.327 . S
C932 C951 1.429 . S
C932 H956 0.950 . S
C933 C950 1.574 . S
C933 C952 1.368 . S
C933 H957 0.949 . S
H934 C938 0.949 . S
C935 C936 1.349 . S
C935 C937 1.327 1_545 S
C935 H958 0.950 1_556 S
C936 C935 1.349 . S
C936 C948 1.349 . S
C937 C935 1.327 1_565 S
C937 C953 1.429 . S
C937 H959 0.950 . S
C938 H934 0.949 . S
C938 C946 1.574 . S
C938 C954 1.368 . S
H939 C947 0.950 . S
H940 C945 0.950 . S
H941 C946 0.949 . S
H942 C948 0.950 . S
H943 C949 0.950 . S
H944 C950 0.949 . S
C945 H940 0.950 . S
C945 C947 1.327 . S
C945 C951 1.429 . S
C946 C938 1.574 . S
C946 H941 0.949 . S
C946 C952 1.368 . S
C947 C931 1.349 . S
C947 H939 0.950 . S
C947 C945 1.327 . S
C948 C936 1.349 . S
C948 H942 0.950 . S
C948 C949 1.327 . S
C949 H943 0.950 . S
C949 C948 1.327 . S
C949 C953 1.429 1_545 S
C950 C933 1.574 . S
C950 H944 0.949 . S
C950 C954 1.368 . S
C951 C932 1.429 . S
C951 C945 1.429 . S
C951 C952 1.523 . S
C952 C933 1.368 . S
C952 C946 1.368 . S
C952 C951 1.523 . S
C953 C937 1.429 . S
C953 C949 1.429 1_565 S
C953 C954 1.523 . S
C954 C938 1.368 . S
C954 C950 1.368 . S
C954 C953 1.523 . S
H955 C930 0.950 . S
H956 C932 0.950 . S
H957 C933 0.949 . S
H958 C935 0.950 1_554 S
H959 C937 0.950 . S
C960 C961 1.349 . S
C960 C962 1.327 . S
C960 H985 0.950 . S
C961 C960 1.349 . S
C961 C977 1.349 . S
C962 C960 1.327 . S
C962 C981 1.429 . S
C962 H986 0.950 . S
C963 C980 1.574 . S
C963 C982 1.368 . S
C963 H987 0.949 . S
H964 C968 0.949 . S
C965 C966 1.349 . S
C965 C967 1.327 . S
C965 H988 0.950 . S
C966 C965 1.349 . S
C966 C978 1.349 . S
C967 C965 1.327 . S
C967 C983 1.429 . S
C967 H989 0.950 . S
C968 H964 0.949 . S
C968 C976 1.574 . S
C968 C984 1.368 . S
H969 C977 0.950 . S
H970 C975 0.950 . S
H971 C976 0.949 . S
H972 C978 0.950 . S
H973 C979 0.950 . S
H974 C980 0.949 . S
C975 H970 0.950 . S
C975 C977 1.327 . S
C975 C981 1.429 . S
C976 C968 1.574 . S
C976 H971 0.949 . S
C976 C982 1.368 . S
C977 C961 1.349 . S
C977 H969 0.950 . S
C977 C975 1.327 . S
C978 C966 1.349 . S
C978 H972 0.950 . S
C978 C979 1.327 . S
C979 H973 0.950 . S
C979 C978 1.327 . S
C979 C983 1.429 . S
C980 C963 1.574 . S
C980 H974 0.949 . S
C980 C984 1.368 . S
C981 C962 1.429 . S
C981 C975 1.429 . S
C981 C982 1.523 . S
C982 C963 1.368 . S
C982 C976 1.368 . S
C982 C981 1.523 . S
C983 C967 1.429 . S
C983 C979 1.429 . S
C983 C984 1.523 . S
C984 C968 1.368 . S
C984 C980 1.368 . S
C984 C983 1.523 . S
H985 C960 0.950 . S
H986 C962 0.950 . S
H987 C963 0.949 . S
H988 C965 0.950 . S
H989 C967 0.950 . S
C990 C991 1.335 1_556 S
C990 C992 1.315 1_556 S
C990 H1015 0.977 . S
C991 C990 1.335 1_554 S
C991 C1007 1.349 . S
C992 C990 1.315 1_554 S
C992 C1011 1.429 . S
C992 H1016 0.968 . S
C993 C1010 1.574 . S
C993 C1012 1.368 . S
C993 H1017 0.949 . S
H994 C998 0.949 . S
C995 C996 1.349 . S
C995 C997 1.327 . S
C995 H1018 0.950 . S
C996 C995 1.349 . S
C996 C1008 1.349 . S
C997 C995 1.327 . S
C997 C1013 1.429 . S
C997 H1019 0.950 . S
C998 H994 0.949 . S
C998 C1006 1.574 . S
C998 C1014 1.368 . S
H999 C1007 0.950 . S
H1000 C1005 0.950 . S
H1001 C1006 0.949 . S
H1002 C1008 0.950 . S
H1003 C1009 0.950 . S
H1004 C1010 0.949 . S
C1005 H1000 0.950 . S
C1005 C1007 1.327 . S
C1005 C1011 1.429 . S
C1006 C998 1.574 . S
C1006 H1001 0.949 . S
C1006 C1012 1.368 . S
C1007 C991 1.349 . S
C1007 H999 0.950 . S
C1007 C1005 1.327 . S
C1008 C996 1.349 . S
C1008 H1002 0.950 . S
C1008 C1009 1.327 . S
C1009 H1003 0.950 . S
C1009 C1008 1.327 . S
C1009 C1013 1.429 . S
C1010 C993 1.574 . S
C1010 H1004 0.949 . S
C1010 C1014 1.368 . S
C1011 C992 1.429 . S
C1011 C1005 1.429 . S
C1011 C1012 1.523 . S
C1012 C993 1.368 . S
C1012 C1006 1.368 . S
C1012 C1011 1.523 . S
C1013 C997 1.429 . S
C1013 C1009 1.429 . S
C1013 C1014 1.523 . S
C1014 C998 1.368 . S
C1014 C1010 1.368 . S
C1014 C1013 1.523 . S
H1015 C990 0.977 . S
H1016 C992 0.968 . S
H1017 C993 0.949 . S
H1018 C995 0.950 . S
H1019 C997 0.950 . S
C1020 C1021 1.349 . S
C1020 C1022 1.327 . S
C1020 H1045 0.950 . S
C1021 C1020 1.349 . S
C1021 C1037 1.349 . S
C1022 C1020 1.327 . S
C1022 C1041 1.429 . S
C1022 H1046 0.950 . S
C1023 C1040 1.574 . S
C1023 C1042 1.368 . S
C1023 H1047 0.949 . S
H1024 C1028 0.949 . S
C1025 C1026 1.349 . S
C1025 C1027 1.327 . S
C1025 H1048 0.950 . S
C1026 C1025 1.349 . S
C1026 C1038 1.349 . S
C1027 C1025 1.327 . S
C1027 C1043 1.429 . S
C1027 H1049 0.950 . S
C1028 H1024 0.949 . S
C1028 C1036 1.574 . S
C1028 C1044 1.368 . S
H1029 C1037 0.950 . S
H1030 C1035 0.950 . S
H1031 C1036 0.949 . S
H1032 C1038 0.950 . S
H1033 C1039 0.950 . S
H1034 C1040 0.949 . S
C1035 H1030 0.950 . S
C1035 C1037 1.327 . S
C1035 C1041 1.429 . S
C1036 C1028 1.574 . S
C1036 H1031 0.949 . S
C1036 C1042 1.368 . S
C1037 C1021 1.349 . S
C1037 H1029 0.950 . S
C1037 C1035 1.327 . S
C1038 C1026 1.349 . S
C1038 H1032 0.950 . S
C1038 C1039 1.327 . S
C1039 H1033 0.950 . S
C1039 C1038 1.327 . S
C1039 C1043 1.429 . S
C1040 C1023 1.574 . S
C1040 H1034 0.949 . S
C1040 C1044 1.368 . S
C1041 C1022 1.429 . S
C1041 C1035 1.429 . S
C1041 C1042 1.523 . S
C1042 C1023 1.368 . S
C1042 C1036 1.368 . S
C1042 C1041 1.523 . S
C1043 C1027 1.429 . S
C1043 C1039 1.429 . S
C1043 C1044 1.523 . S
C1044 C1028 1.368 . S
C1044 C1040 1.368 . S
C1044 C1043 1.523 . S
H1045 C1020 0.950 . S
H1046 C1022 0.950 . S
H1047 C1023 0.949 . S
H1048 C1025 0.950 . S
H1049 C1027 0.950 . S
C1050 C1051 1.349 . S
C1050 C1052 1.327 . S
C1050 H1075 0.950 . S
C1051 C1050 1.349 . S
C1051 C1067 1.349 1_554 S
C1052 C1050 1.327 . S
C1052 C1071 1.429 1_545 S
C1052 H1076 0.950 . S
C1053 C1070 1.574 . S
C1053 C1072 1.368 . S
C1053 H1077 0.949 . S
H1054 C1058 0.949 . S
C1055 C1056 1.349 . S
C1055 C1057 1.327 . S
C1055 H1078 0.950 . S
C1056 C1055 1.349 . S
C1056 C1068 1.349 . S
C1057 C1055 1.327 . S
C1057 C1073 1.429 . S
C1057 H1079 0.950 . S
C1058 H1054 0.949 . S
C1058 C1066 1.574 . S
C1058 C1074 1.368 . S
H1059 C1067 0.950 . S
H1060 C1065 0.948 1_566 S
H1061 C1066 0.949 . S
H1062 C1068 0.950 . S
H1063 C1069 0.950 . S
H1064 C1070 0.949 . S
C1065 H1060 0.948 1_544 S
C1065 C1067 1.327 1_554 S
C1065 C1071 1.429 1_545 S
C1066 C1058 1.574 . S
C1066 H1061 0.949 . S
C1066 C1072 1.368 . S
C1067 C1051 1.349 1_556 S
C1067 H1059 0.950 . S
C1067 C1065 1.327 1_556 S
C1068 C1056 1.349 . S
C1068 H1062 0.950 . S
C1068 C1069 1.327 . S
C1069 H1063 0.950 . S
C1069 C1068 1.327 . S
C1069 C1073 1.429 . S
C1070 C1053 1.574 . S
C1070 H1064 0.949 . S
C1070 C1074 1.368 . S
C1071 C1052 1.429 1_565 S
C1071 C1065 1.429 1_565 S
C1071 C1072 1.523 . S
C1072 C1053 1.368 . S
C1072 C1066 1.368 . S
C1072 C1071 1.523 . S
C1073 C1057 1.429 . S
C1073 C1069 1.429 . S
C1073 C1074 1.523 . S
C1074 C1058 1.368 . S
C1074 C1070 1.368 . S
C1074 C1073 1.523 . S
H1075 C1050 0.950 . S
H1076 C1052 0.950 . S
H1077 C1053 0.949 . S
H1078 C1055 0.950 . S
H1079 C1057 0.950 . S
C1080 C1081 1.349 . S
C1080 C1082 1.327 . S
C1080 H1105 0.950 . S
C1081 C1080 1.349 . S
C1081 C1097 1.349 . S
C1082 C1080 1.327 . S
C1082 C1101 1.429 . S
C1082 H1106 0.950 . S
C1083 C1100 1.574 . S
C1083 C1102 1.368 . S
C1083 H1107 0.949 . S
H1084 C1088 0.949 . S
C1085 C1086 1.349 . S
C1085 C1087 1.327 . S
C1085 H1108 0.950 . S
C1086 C1085 1.349 . S
C1086 C1098 1.349 . S
C1087 C1085 1.327 . S
C1087 C1103 1.429 . S
C1087 H1109 0.950 . S
C1088 H1084 0.949 . S
C1088 C1096 1.574 . S
C1088 C1104 1.368 . S
H1089 C1097 0.950 . S
H1090 C1095 0.950 . S
H1091 C1096 0.949 . S
H1092 C1098 0.950 . S
H1093 C1099 0.950 . S
H1094 C1100 0.949 . S
C1095 H1090 0.950 . S
C1095 C1097 1.327 . S
C1095 C1101 1.429 . S
C1096 C1088 1.574 . S
C1096 H1091 0.949 . S
C1096 C1102 1.368 . S
C1097 C1081 1.349 . S
C1097 H1089 0.950 . S
C1097 C1095 1.327 . S
C1098 C1086 1.349 . S
C1098 H1092 0.950 . S
C1098 C1099 1.327 . S
C1099 H1093 0.950 . S
C1099 C1098 1.327 . S
C1099 C1103 1.429 . S
C1100 C1083 1.574 . S
C1100 H1094 0.949 . S
C1100 C1104 1.368 . S
C1101 C1082 1.429 . S
C1101 C1095 1.429 . S
C1101 C1102 1.523 . S
C1102 C1083 1.368 . S
C1102 C1096 1.368 . S
C1102 C1101 1.523 . S
C1103 C1087 1.429 . S
C1103 C1099 1.429 . S
C1103 C1104 1.523 . S
C1104 C1088 1.368 . S
C1104 C1100 1.368 . S
C1104 C1103 1.523 . S
H1105 C1080 0.950 . S
H1106 C1082 0.950 . S
H1107 C1083 0.949 . S
H1108 C1085 0.950 . S
H1109 C1087 0.950 . S
C1110 C1111 1.349 . S
C1110 C1112 1.327 . S
C1110 H1135 0.950 . S
C1111 C1110 1.349 . S
C1111 C1127 1.349 . S
C1112 C1110 1.327 . S
C1112 C1131 1.429 . S
C1112 H1136 0.950 . S
C1113 C1130 1.574 . S
C1113 C1132 1.368 . S
C1113 H1137 0.949 . S
H1114 C1118 0.949 . S
C1115 C1116 1.349 . S
C1115 C1117 1.327 . S
C1115 H1138 0.950 . S
C1116 C1115 1.349 . S
C1116 C1128 1.349 . S
C1117 C1115 1.327 . S
C1117 C1133 1.429 . S
C1117 H1139 0.950 . S
C1118 H1114 0.949 . S
C1118 C1126 1.574 . S
C1118 C1134 1.368 . S
H1119 C1127 0.950 . S
H1120 C1125 0.950 . S
H1121 C1126 0.949 . S
H1122 C1128 0.950 . S
H1123 C1129 0.950 . S
H1124 C1130 0.949 . S
C1125 H1120 0.950 . S
C1125 C1127 1.327 . S
C1125 C1131 1.429 . S
C1126 C1118 1.574 . S
C1126 H1121 0.949 . S
C1126 C1132 1.368 . S
C1127 C1111 1.349 . S
C1127 H1119 0.950 . S
C1127 C1125 1.327 . S
C1128 C1116 1.349 . S
C1128 H1122 0.950 . S
C1128 C1129 1.327 . S
C1129 H1123 0.950 . S
C1129 C1128 1.327 . S
C1129 C1133 1.429 . S
C1130 C1113 1.574 . S
C1130 H1124 0.949 . S
C1130 C1134 1.368 . S
C1131 C1112 1.429 . S
C1131 C1125 1.429 . S
C1131 C1132 1.523 . S
C1132 C1113 1.368 . S
C1132 C1126 1.368 . S
C1132 C1131 1.523 . S
C1133 C1117 1.429 . S
C1133 C1129 1.429 . S
C1133 C1134 1.523 . S
C1134 C1118 1.368 . S
C1134 C1130 1.368 . S
C1134 C1133 1.523 . S
H1135 C1110 0.950 . S
H1136 C1112 0.950 . S
H1137 C1113 0.949 . S
H1138 C1115 0.950 . S
H1139 C1117 0.950 . S
C1140 C1141 1.349 . S
C1140 C1142 1.327 . S
C1140 H1165 0.950 . S
C1141 C1140 1.349 . S
C1141 C1157 1.349 . S
C1142 C1140 1.327 . S
C1142 C1161 1.429 1_655 S
C1142 H1166 0.950 . S
C1143 C1160 1.574 . S
C1143 C1162 1.368 . S
C1143 H1167 0.949 . S
H1144 C1148 0.949 . S
C1145 C1146 1.349 . S
C1145 C1147 1.327 . S
C1145 H1168 0.950 . S
C1146 C1145 1.349 . S
C1146 C1158 1.349 . S
C1147 C1145 1.327 . S
C1147 C1163 1.429 . S
C1147 H1169 0.950 . S
C1148 H1144 0.949 . S
C1148 C1156 1.574 . S
C1148 C1164 1.368 . S
H1149 C1157 0.950 . S
H1150 C1155 0.950 . S
H1151 C1156 0.949 . S
H1152 C1158 0.950 . S
H1153 C1159 0.950 . S
H1154 C1160 0.949 . S
C1155 H1150 0.950 . S
C1155 C1157 1.327 1_455 S
C1155 C1161 1.429 . S
C1156 C1148 1.574 . S
C1156 H1151 0.949 . S
C1156 C1162 1.368 . S
C1157 C1141 1.349 . S
C1157 H1149 0.950 . S
C1157 C1155 1.327 1_655 S
C1158 C1146 1.349 . S
C1158 H1152 0.950 . S
C1158 C1159 1.327 . S
C1159 H1153 0.950 . S
C1159 C1158 1.327 . S
C1159 C1163 1.429 . S
C1160 C1143 1.574 . S
C1160 H1154 0.949 . S
C1160 C1164 1.368 . S
C1161 C1142 1.429 1_455 S
C1161 C1155 1.429 . S
C1161 C1162 1.523 . S
C1162 C1143 1.368 . S
C1162 C1156 1.368 . S
C1162 C1161 1.523 . S
C1163 C1147 1.429 . S
C1163 C1159 1.429 . S
C1163 C1164 1.523 . S
C1164 C1148 1.368 . S
C1164 C1160 1.368 . S
C1164 C1163 1.523 . S
H1165 C1140 0.950 . S
H1166 C1142 0.950 . S
H1167 C1143 0.949 . S
H1168 C1145 0.950 . S
H1169 C1147 0.950 . S
C1170 C1171 1.349 . S
C1170 C1172 1.327 . S
C1170 H1195 0.950 . S
C1171 C1170 1.349 . S
C1171 C1187 1.349 . S
C1172 C1170 1.327 . S
C1172 C1191 1.429 . S
C1172 H1196 0.950 . S
C1173 C1190 1.574 . S
C1173 C1192 1.368 . S
C1173 H1197 0.949 . S
H1174 C1178 0.949 . S
C1175 C1176 1.349 . S
C1175 C1177 1.327 . S
C1175 H1198 0.950 . S
C1176 C1175 1.349 . S
C1176 C1188 1.349 . S
C1177 C1175 1.327 . S
C1177 C1193 1.429 . S
C1177 H1199 0.950 . S
C1178 H1174 0.949 . S
C1178 C1186 1.574 . S
C1178 C1194 1.368 . S
H1179 C1187 0.950 . S
H1180 C1185 0.950 . S
H1181 C1186 0.949 . S
H1182 C1188 0.950 . S
H1183 C1189 0.950 . S
H1184 C1190 0.949 . S
C1185 H1180 0.950 . S
C1185 C1187 1.327 . S
C1185 C1191 1.429 . S
C1186 C1178 1.574 . S
C1186 H1181 0.949 . S
C1186 C1192 1.368 . S
C1187 C1171 1.349 . S
C1187 H1179 0.950 . S
C1187 C1185 1.327 . S
C1188 C1176 1.349 . S
C1188 H1182 0.950 . S
C1188 C1189 1.327 . S
C1189 H1183 0.950 . S
C1189 C1188 1.327 . S
C1189 C1193 1.429 . S
C1190 C1173 1.574 . S
C1190 H1184 0.949 . S
C1190 C1194 1.368 . S
C1191 C1172 1.429 . S
C1191 C1185 1.429 . S
C1191 C1192 1.523 . S
C1192 C1173 1.368 . S
C1192 C1186 1.368 . S
C1192 C1191 1.523 . S
C1193 C1177 1.429 . S
C1193 C1189 1.429 . S
C1193 C1194 1.523 . S
C1194 C1178 1.368 . S
C1194 C1190 1.368 . S
C1194 C1193 1.523 . S
H1195 C1170 0.950 . S
H1196 C1172 0.950 . S
H1197 C1173 0.949 . S
H1198 C1175 0.950 . S
H1199 C1177 0.950 . S
C1200 C1201 1.349 . S
C1200 C1202 1.327 . S
C1200 H1225 0.950 . S
C1201 C1200 1.349 . S
C1201 C1217 1.349 . S
C1202 C1200 1.327 . S
C1202 C1221 1.429 . S
C1202 H1226 0.950 . S
C1203 C1220 1.574 . S
C1203 C1222 1.368 . S
C1203 H1227 0.949 . S
H1204 C1208 0.949 . S
C1205 C1206 1.349 . S
C1205 C1207 1.327 . S
C1205 H1228 0.950 . S
C1206 C1205 1.349 . S
C1206 C1218 1.349 . S
C1207 C1205 1.327 . S
C1207 C1223 1.429 . S
C1207 H1229 0.950 . S
C1208 H1204 0.949 . S
C1208 C1216 1.574 . S
C1208 C1224 1.368 . S
H1209 C1217 0.950 . S
H1210 C1215 0.950 . S
H1211 C1216 0.949 . S
H1212 C1218 0.950 . S
H1213 C1219 0.950 . S
H1214 C1220 0.949 . S
C1215 H1210 0.950 . S
C1215 C1217 1.327 . S
C1215 C1221 1.429 . S
C1216 C1208 1.574 . S
C1216 H1211 0.949 . S
C1216 C1222 1.368 . S
C1217 C1201 1.349 . S
C1217 H1209 0.950 . S
C1217 C1215 1.327 . S
C1218 C1206 1.349 . S
C1218 H1212 0.950 . S
C1218 C1219 1.327 . S
C1219 H1213 0.950 . S
C1219 C1218 1.327 . S
C1219 C1223 1.429 . S
C1220 C1203 1.574 . S
C1220 H1214 0.949 . S
C1220 C1224 1.368 . S
C1221 C1202 1.429 . S
C1221 C1215 1.429 . S
C1221 C1222 1.523 . S
C1222 C1203 1.368 . S
C1222 C1216 1.368 . S
C1222 C1221 1.523 . S
C1223 C1207 1.429 . S
C1223 C1219 1.429 . S
C1223 C1224 1.523 . S
C1224 C1208 1.368 . S
C1224 C1220 1.368 . S
C1224 C1223 1.523 . S
H1225 C1200 0.950 . S
H1226 C1202 0.950 . S
H1227 C1203 0.949 . S
H1228 C1205 0.950 . S
H1229 C1207 0.950 . S
C1230 C1231 1.349 . S
C1230 C1232 1.327 . S
C1230 H1255 0.950 . S
C1231 C1230 1.349 . S
C1231 C1247 1.349 . S
C1232 C1230 1.327 . S
C1232 C1251 1.429 . S
C1232 H1256 0.950 . S
C1233 C1250 1.574 . S
C1233 C1252 1.368 . S
C1233 H1257 0.949 . S
H1234 C1238 0.949 . S
C1235 C1236 1.349 . S
C1235 C1237 1.327 . S
C1235 H1258 0.950 . S
C1236 C1235 1.349 . S
C1236 C1248 1.349 . S
C1237 C1235 1.327 . S
C1237 C1253 1.429 . S
C1237 H1259 0.950 . S
C1238 H1234 0.949 . S
C1238 C1246 1.574 . S
C1238 C1254 1.368 . S
H1239 C1247 0.950 . S
H1240 C1245 0.950 . S
H1241 C1246 0.949 . S
H1242 C1248 0.950 . S
H1243 C1249 0.950 . S
H1244 C1250 0.949 . S
C1245 H1240 0.950 . S
C1245 C1247 1.327 . S
C1245 C1251 1.429 . S
C1246 C1238 1.574 . S
C1246 H1241 0.949 . S
C1246 C1252 1.368 . S
C1247 C1231 1.349 . S
C1247 H1239 0.950 . S
C1247 C1245 1.327 . S
C1248 C1236 1.349 . S
C1248 H1242 0.950 . S
C1248 C1249 1.327 . S
C1249 H1243 0.950 . S
C1249 C1248 1.327 . S
C1249 C1253 1.429 . S
C1250 C1233 1.574 . S
C1250 H1244 0.949 . S
C1250 C1254 1.368 . S
C1251 C1232 1.429 . S
C1251 C1245 1.429 . S
C1251 C1252 1.523 . S
C1252 C1233 1.368 . S
C1252 C1246 1.368 . S
C1252 C1251 1.523 . S
C1253 C1237 1.429 . S
C1253 C1249 1.429 . S
C1253 C1254 1.523 . S
C1254 C1238 1.368 . S
C1254 C1250 1.368 . S
C1254 C1253 1.523 . S
H1255 C1230 0.950 . S
H1256 C1232 0.950 . S
H1257 C1233 0.949 . S
H1258 C1235 0.950 . S
H1259 C1237 0.950 . S
C1260 C1261 1.349 . S
C1260 C1262 1.327 . S
C1260 H1285 0.950 . S
C1261 C1260 1.349 . S
C1261 C1277 1.349 . S
C1262 C1260 1.327 . S
C1262 C1281 1.429 1_655 S
C1262 H1286 0.950 1_655 S
C1263 C1280 1.574 . S
C1263 C1282 1.368 . S
C1263 H1287 0.949 . S
H1264 C1268 0.949 . S
C1265 C1266 1.349 . S
C1265 C1267 1.327 . S
C1265 H1288 0.950 . S
C1266 C1265 1.349 . S
C1266 C1278 1.349 . S
C1267 C1265 1.327 . S
C1267 C1283 1.429 . S
C1267 H1289 0.950 . S
C1268 H1264 0.949 . S
C1268 C1276 1.574 . S
C1268 C1284 1.368 . S
H1269 C1277 0.950 . S
H1270 C1275 0.950 . S
H1271 C1276 0.949 . S
H1272 C1278 0.950 . S
H1273 C1279 0.950 . S
H1274 C1280 0.949 . S
C1275 H1270 0.950 . S
C1275 C1277 1.327 . S
C1275 C1281 1.429 1_655 S
C1276 C1268 1.574 . S
C1276 H1271 0.949 . S
C1276 C1282 1.368 . S
C1277 C1261 1.349 . S
C1277 H1269 0.950 . S
C1277 C1275 1.327 . S
C1278 C1266 1.349 . S
C1278 H1272 0.950 . S
C1278 C1279 1.327 . S
C1279 H1273 0.950 . S
C1279 C1278 1.327 . S
C1279 C1283 1.429 . S
C1280 C1263 1.574 . S
C1280 H1274 0.949 . S
C1280 C1284 1.368 . S
C1281 C1262 1.429 1_455 S
C1281 C1275 1.429 1_455 S
C1281 C1282 1.523 . S
C1282 C1263 1.368 . S
C1282 C1276 1.368 . S
C1282 C1281 1.523 . S
C1283 C1267 1.429 . S
C1283 C1279 1.429 . S
C1283 C1284 1.523 . S
C1284 C1268 1.368 . S
C1284 C1280 1.368 . S
C1284 C1283 1.523 . S
H1285 C1260 0.950 . S
H1286 C1262 0.950 1_455 S
H1287 C1263 0.949 . S
H1288 C1265 0.950 . S
H1289 C1267 0.950 . S
C1290 C1291 1.349 . S
C1290 C1292 1.327 1_455 S
C1290 H1315 0.950 . S
C1291 C1290 1.349 . S
C1291 C1307 1.349 . S
C1292 C1290 1.327 1_655 S
C1292 C1311 1.429 . S
C1292 H1316 0.950 . S
C1293 C1310 1.574 . S
C1293 C1312 1.368 . S
C1293 H1317 0.949 . S
H1294 C1298 0.949 . S
C1295 C1296 1.349 . S
C1295 C1297 1.327 . S
C1295 H1318 0.950 . S
C1296 C1295 1.349 . S
C1296 C1308 1.349 . S
C1297 C1295 1.327 . S
C1297 C1313 1.429 . S
C1297 H1319 0.950 . S
C1298 H1294 0.949 . S
C1298 C1306 1.574 . S
C1298 C1314 1.368 . S
H1299 C1307 0.950 . S
H1300 C1305 0.950 . S
H1301 C1306 0.949 . S
H1302 C1308 0.950 . S
H1303 C1309 0.950 . S
H1304 C1310 0.949 . S
C1305 H1300 0.950 . S
C1305 C1307 1.327 . S
C1305 C1311 1.429 1_455 S
C1306 C1298 1.574 . S
C1306 H1301 0.949 . S
C1306 C1312 1.368 . S
C1307 C1291 1.349 . S
C1307 H1299 0.950 . S
C1307 C1305 1.327 . S
C1308 C1296 1.349 . S
C1308 H1302 0.950 . S
C1308 C1309 1.327 . S
C1309 H1303 0.950 . S
C1309 C1308 1.327 . S
C1309 C1313 1.429 . S
C1310 C1293 1.574 . S
C1310 H1304 0.949 . S
C1310 C1314 1.368 . S
C1311 C1292 1.429 . S
C1311 C1305 1.429 1_655 S
C1311 C1312 1.523 . S
C1312 C1293 1.368 . S
C1312 C1306 1.368 . S
C1312 C1311 1.523 . S
C1313 C1297 1.429 . S
C1313 C1309 1.429 . S
C1313 C1314 1.523 . S
C1314 C1298 1.368 . S
C1314 C1310 1.368 . S
C1314 C1313 1.523 . S
H1315 C1290 0.950 . S
H1316 C1292 0.950 . S
H1317 C1293 0.949 . S
H1318 C1295 0.950 . S
H1319 C1297 0.950 . S
C1320 C1321 1.349 . S
C1320 C1322 1.327 . S
C1320 H1345 0.950 . S
C1321 C1320 1.349 . S
C1321 C1337 1.349 . S
C1322 C1320 1.327 . S
C1322 C1341 1.429 . S
C1322 H1346 0.950 . S
C1323 C1340 1.574 . S
C1323 C1342 1.368 . S
C1323 H1347 0.949 . S
H1324 C1328 0.949 . S
C1325 C1326 1.349 . S
C1325 C1327 1.327 . S
C1325 H1348 0.950 . S
C1326 C1325 1.349 . S
C1326 C1338 1.349 . S
C1327 C1325 1.327 . S
C1327 C1343 1.429 . S
C1327 H1349 0.950 . S
C1328 H1324 0.949 . S
C1328 C1336 1.574 . S
C1328 C1344 1.368 . S
H1329 C1337 0.950 . S
H1330 C1335 0.950 . S
H1331 C1336 0.949 . S
H1332 C1338 0.950 . S
H1333 C1339 0.950 . S
H1334 C1340 0.949 . S
C1335 H1330 0.950 . S
C1335 C1337 1.327 . S
C1335 C1341 1.429 . S
C1336 C1328 1.574 . S
C1336 H1331 0.949 . S
C1336 C1342 1.368 . S
C1337 C1321 1.349 . S
C1337 H1329 0.950 . S
C1337 C1335 1.327 . S
C1338 C1326 1.349 . S
C1338 H1332 0.950 . S
C1338 C1339 1.327 . S
C1339 H1333 0.950 . S
C1339 C1338 1.327 . S
C1339 C1343 1.429 . S
C1340 C1323 1.574 . S
C1340 H1334 0.949 . S
C1340 C1344 1.368 . S
C1341 C1322 1.429 . S
C1341 C1335 1.429 . S
C1341 C1342 1.523 . S
C1342 C1323 1.368 . S
C1342 C1336 1.368 . S
C1342 C1341 1.523 . S
C1343 C1327 1.429 . S
C1343 C1339 1.429 . S
C1343 C1344 1.523 . S
C1344 C1328 1.368 . S
C1344 C1340 1.368 . S
C1344 C1343 1.523 . S
H1345 C1320 0.950 . S
H1346 C1322 0.950 . S
H1347 C1323 0.949 . S
H1348 C1325 0.950 . S
H1349 C1327 0.950 . S
C1350 C1351 1.349 . S
C1350 C1352 1.327 . S
C1350 H1375 0.950 . S
C1351 C1350 1.349 . S
C1351 C1367 1.349 . S
C1352 C1350 1.327 . S
C1352 C1371 1.429 . S
C1352 H1376 0.950 . S
C1353 C1370 1.574 . S
C1353 C1372 1.368 . S
C1353 H1377 0.949 . S
H1354 C1358 0.949 . S
C1355 C1356 1.349 . S
C1355 C1357 1.327 . S
C1355 H1378 0.950 . S
C1356 C1355 1.349 . S
C1356 C1368 1.349 . S
C1357 C1355 1.327 . S
C1357 C1373 1.429 . S
C1357 H1379 0.950 . S
C1358 H1354 0.949 . S
C1358 C1366 1.574 . S
C1358 C1374 1.368 . S
H1359 C1367 0.950 1_655 S
H1360 C1365 0.950 . S
H1361 C1366 0.949 . S
H1362 C1368 0.950 . S
H1363 C1369 0.950 . S
H1364 C1370 0.949 . S
C1365 H1360 0.950 . S
C1365 C1367 1.327 . S
C1365 C1371 1.429 . S
C1366 C1358 1.574 . S
C1366 H1361 0.949 . S
C1366 C1372 1.368 . S
C1367 C1351 1.349 . S
C1367 H1359 0.950 1_455 S
C1367 C1365 1.327 . S
C1368 C1356 1.349 . S
C1368 H1362 0.950 . S
C1368 C1369 1.327 . S
C1369 H1363 0.950 . S
C1369 C1368 1.327 . S
C1369 C1373 1.429 . S
C1370 C1353 1.574 . S
C1370 H1364 0.949 . S
C1370 C1374 1.368 . S
C1371 C1352 1.429 . S
C1371 C1365 1.429 . S
C1371 C1372 1.523 . S
C1372 C1353 1.368 . S
C1372 C1366 1.368 . S
C1372 C1371 1.523 . S
C1373 C1357 1.429 . S
C1373 C1369 1.429 . S
C1373 C1374 1.523 . S
C1374 C1358 1.368 . S
C1374 C1370 1.368 . S
C1374 C1373 1.523 . S
H1375 C1350 0.950 . S
H1376 C1352 0.950 . S
H1377 C1353 0.949 . S
H1378 C1355 0.950 . S
H1379 C1357 0.950 . S
C1380 C1381 1.349 . S
C1380 C1382 1.327 . S
C1380 H1405 0.950 . S
C1381 C1380 1.349 . S
C1381 C1397 1.349 . S
C1382 C1380 1.327 . S
C1382 C1401 1.429 . S
C1382 H1406 0.950 . S
C1383 C1400 1.574 . S
C1383 C1402 1.368 . S
C1383 H1407 0.949 . S
H1384 C1388 0.949 . S
C1385 C1386 1.349 . S
C1385 C1387 1.327 . S
C1385 H1408 0.950 . S
C1386 C1385 1.349 . S
C1386 C1398 1.349 . S
C1387 C1385 1.327 . S
C1387 C1403 1.429 . S
C1387 H1409 0.950 . S
C1388 H1384 0.949 . S
C1388 C1396 1.574 . S
C1388 C1404 1.368 . S
H1389 C1397 0.950 . S
H1390 C1395 0.950 . S
H1391 C1396 0.949 . S
H1392 C1398 0.950 . S
H1393 C1399 0.950 . S
H1394 C1400 0.949 . S
C1395 H1390 0.950 . S
C1395 C1397 1.327 . S
C1395 C1401 1.429 . S
C1396 C1388 1.574 . S
C1396 H1391 0.949 . S
C1396 C1402 1.368 . S
C1397 C1381 1.349 . S
C1397 H1389 0.950 . S
C1397 C1395 1.327 . S
C1398 C1386 1.349 . S
C1398 H1392 0.950 . S
C1398 C1399 1.327 . S
C1399 H1393 0.950 . S
C1399 C1398 1.327 . S
C1399 C1403 1.429 . S
C1400 C1383 1.574 . S
C1400 H1394 0.949 . S
C1400 C1404 1.368 . S
C1401 C1382 1.429 . S
C1401 C1395 1.429 . S
C1401 C1402 1.523 . S
C1402 C1383 1.368 . S
C1402 C1396 1.368 . S
C1402 C1401 1.523 . S
C1403 C1387 1.429 . S
C1403 C1399 1.429 . S
C1403 C1404 1.523 . S
C1404 C1388 1.368 . S
C1404 C1400 1.368 . S
C1404 C1403 1.523 . S
H1405 C1380 0.950 . S
H1406 C1382 0.950 . S
H1407 C1383 0.949 . S
H1408 C1385 0.950 . S
H1409 C1387 0.950 . S
C1410 C1411 1.349 . S
C1410 C1412 1.327 . S
C1410 H1435 0.950 1_655 S
C1411 C1410 1.349 . S
C1411 C1427 1.349 . S
C1412 C1410 1.327 . S
C1412 C1431 1.429 . S
C1412 H1436 0.950 . S
C1413 C1430 1.574 . S
C1413 C1432 1.368 . S
C1413 H1437 0.949 . S
H1414 C1418 0.949 . S
C1415 C1416 1.349 . S
C1415 C1417 1.327 . S
C1415 H1438 0.950 . S
C1416 C1415 1.349 . S
C1416 C1428 1.349 . S
C1417 C1415 1.327 . S
C1417 C1433 1.429 . S
C1417 H1439 0.950 . S
C1418 H1414 0.949 . S
C1418 C1426 1.574 . S
C1418 C1434 1.368 . S
H1419 C1427 0.950 . S
H1420 C1425 0.950 . S
H1421 C1426 0.949 . S
H1422 C1428 0.950 . S
H1423 C1429 0.950 . S
H1424 C1430 0.949 . S
C1425 H1420 0.950 . S
C1425 C1427 1.327 . S
C1425 C1431 1.429 . S
C1426 C1418 1.574 . S
C1426 H1421 0.949 . S
C1426 C1432 1.368 . S
C1427 C1411 1.349 . S
C1427 H1419 0.950 . S
C1427 C1425 1.327 . S
C1428 C1416 1.349 . S
C1428 H1422 0.950 . S
C1428 C1429 1.327 . S
C1429 H1423 0.950 . S
C1429 C1428 1.327 . S
C1429 C1433 1.429 . S
C1430 C1413 1.574 . S
C1430 H1424 0.949 . S
C1430 C1434 1.368 . S
C1431 C1412 1.429 . S
C1431 C1425 1.429 . S
C1431 C1432 1.523 . S
C1432 C1413 1.368 . S
C1432 C1426 1.368 . S
C1432 C1431 1.523 . S
C1433 C1417 1.429 . S
C1433 C1429 1.429 . S
C1433 C1434 1.523 . S
C1434 C1418 1.368 . S
C1434 C1430 1.368 . S
C1434 C1433 1.523 . S
H1435 C1410 0.950 1_455 S
H1436 C1412 0.950 . S
H1437 C1413 0.949 . S
H1438 C1415 0.950 . S
H1439 C1417 0.950 . S
C1440 C1441 1.349 . S
C1440 C1442 1.327 . S
C1440 H1465 0.950 . S
C1441 C1440 1.349 . S
C1441 C1457 1.349 . S
C1442 C1440 1.327 . S
C1442 C1461 1.429 . S
C1442 H1466 0.950 . S
C1443 C1460 1.574 . S
C1443 C1462 1.368 . S
C1443 H1467 0.949 . S
H1444 C1448 0.949 . S
C1445 C1446 1.349 . S
C1445 C1447 1.327 . S
C1445 H1468 0.950 . S
C1446 C1445 1.349 . S
C1446 C1458 1.349 . S
C1447 C1445 1.327 . S
C1447 C1463 1.429 . S
C1447 H1469 0.950 . S
C1448 H1444 0.949 . S
C1448 C1456 1.574 . S
C1448 C1464 1.368 . S
H1449 C1457 0.950 . S
H1450 C1455 0.950 . S
H1451 C1456 0.949 . S
H1452 C1458 0.950 . S
H1453 C1459 0.950 . S
H1454 C1460 0.949 . S
C1455 H1450 0.950 . S
C1455 C1457 1.327 . S
C1455 C1461 1.429 . S
C1456 C1448 1.574 . S
C1456 H1451 0.949 . S
C1456 C1462 1.368 . S
C1457 C1441 1.349 . S
C1457 H1449 0.950 . S
C1457 C1455 1.327 . S
C1458 C1446 1.349 . S
C1458 H1452 0.950 . S
C1458 C1459 1.327 . S
C1459 H1453 0.950 . S
C1459 C1458 1.327 . S
C1459 C1463 1.429 . S
C1460 C1443 1.574 . S
C1460 H1454 0.949 . S
C1460 C1464 1.368 . S
C1461 C1442 1.429 . S
C1461 C1455 1.429 . S
C1461 C1462 1.523 . S
C1462 C1443 1.368 . S
C1462 C1456 1.368 . S
C1462 C1461 1.523 . S
C1463 C1447 1.429 . S
C1463 C1459 1.429 . S
C1463 C1464 1.523 . S
C1464 C1448 1.368 . S
C1464 C1460 1.368 . S
C1464 C1463 1.523 . S
H1465 C1440 0.950 . S
H1466 C1442 0.950 . S
H1467 C1443 0.949 . S
H1468 C1445 0.950 . S
H1469 C1447 0.950 . S
C1470 C1471 1.349 . S
C1470 C1472 1.327 . S
C1470 H1495 0.950 . S
C1471 C1470 1.349 . S
C1471 C1487 1.349 . S
C1472 C1470 1.327 . S
C1472 C1491 1.429 . S
C1472 H1496 0.950 . S
C1473 C1490 1.574 . S
C1473 C1492 1.368 . S
C1473 H1497 0.949 . S
H1474 C1478 0.949 . S
C1475 C1476 1.349 . S
C1475 C1477 1.327 . S
C1475 H1498 0.950 . S
C1476 C1475 1.349 . S
C1476 C1488 1.349 . S
C1477 C1475 1.327 . S
C1477 C1493 1.429 . S
C1477 H1499 0.950 . S
C1478 H1474 0.949 . S
C1478 C1486 1.574 . S
C1478 C1494 1.368 . S
H1479 C1487 0.950 . S
H1480 C1485 0.950 . S
H1481 C1486 0.949 . S
H1482 C1488 0.950 . S
H1483 C1489 0.950 . S
H1484 C1490 0.949 . S
C1485 H1480 0.950 . S
C1485 C1487 1.327 . S
C1485 C1491 1.429 . S
C1486 C1478 1.574 . S
C1486 H1481 0.949 . S
C1486 C1492 1.368 . S
C1487 C1471 1.349 . S
C1487 H1479 0.950 . S
C1487 C1485 1.327 . S
C1488 C1476 1.349 . S
C1488 H1482 0.950 . S
C1488 C1489 1.327 . S
C1489 H1483 0.950 . S
C1489 C1488 1.327 . S
C1489 C1493 1.429 . S
C1490 C1473 1.574 . S
C1490 H1484 0.949 . S
C1490 C1494 1.368 . S
C1491 C1472 1.429 . S
C1491 C1485 1.429 . S
C1491 C1492 1.523 . S
C1492 C1473 1.368 . S
C1492 C1486 1.368 . S
C1492 C1491 1.523 . S
C1493 C1477 1.429 . S
C1493 C1489 1.429 . S
C1493 C1494 1.523 . S
C1494 C1478 1.368 . S
C1494 C1490 1.368 . S
C1494 C1493 1.523 . S
H1495 C1470 0.950 . S
H1496 C1472 0.950 . S
H1497 C1473 0.949 . S
H1498 C1475 0.950 . S
H1499 C1477 0.950 . S
C1500 C1501 1.349 . S
C1500 C1502 1.327 . S
C1500 H1525 0.950 . S
C1501 C1500 1.349 . S
C1501 C1517 1.349 . S
C1502 C1500 1.327 . S
C1502 C1521 1.429 . S
C1502 H1526 0.950 . S
C1503 C1520 1.574 . S
C1503 C1522 1.368 . S
C1503 H1527 0.949 . S
H1504 C1508 0.949 . S
C1505 C1506 1.349 . S
C1505 C1507 1.327 . S
C1505 H1528 0.950 . S
C1506 C1505 1.349 . S
C1506 C1518 1.349 . S
C1507 C1505 1.327 . S
C1507 C1523 1.429 . S
C1507 H1529 0.950 . S
C1508 H1504 0.949 . S
C1508 C1516 1.574 . S
C1508 C1524 1.368 . S
H1509 C1517 0.950 . S
H1510 C1515 0.950 . S
H1511 C1516 0.949 . S
H1512 C1518 0.950 . S
H1513 C1519 0.950 . S
H1514 C1520 0.949 . S
C1515 H1510 0.950 . S
C1515 C1517 1.327 . S
C1515 C1521 1.429 . S
C1516 C1508 1.574 . S
C1516 H1511 0.949 . S
C1516 C1522 1.368 . S
C1517 C1501 1.349 . S
C1517 H1509 0.950 . S
C1517 C1515 1.327 . S
C1518 C1506 1.349 . S
C1518 H1512 0.950 . S
C1518 C1519 1.327 . S
C1519 H1513 0.950 . S
C1519 C1518 1.327 . S
C1519 C1523 1.429 . S
C1520 C1503 1.574 . S
C1520 H1514 0.949 . S
C1520 C1524 1.368 . S
C1521 C1502 1.429 . S
C1521 C1515 1.429 . S
C1521 C1522 1.523 . S
C1522 C1503 1.368 . S
C1522 C1516 1.368 . S
C1522 C1521 1.523 . S
C1523 C1507 1.429 . S
C1523 C1519 1.429 . S
C1523 C1524 1.523 . S
C1524 C1508 1.368 . S
C1524 C1520 1.368 . S
C1524 C1523 1.523 . S
H1525 C1500 0.950 . S
H1526 C1502 0.950 . S
H1527 C1503 0.949 . S
H1528 C1505 0.950 . S
H1529 C1507 0.950 . S
C1530 C1531 1.349 . S
C1530 C1532 1.327 . S
C1530 H1555 0.950 . S
C1531 C1530 1.349 . S
C1531 C1547 1.349 . S
C1532 C1530 1.327 . S
C1532 C1551 1.429 . S
C1532 H1556 0.950 . S
C1533 C1550 1.574 . S
C1533 C1552 1.368 . S
C1533 H1557 0.949 . S
H1534 C1538 0.949 . S
C1535 C1536 1.349 . S
C1535 C1537 1.327 . S
C1535 H1558 0.950 . S
C1536 C1535 1.349 . S
C1536 C1548 1.349 . S
C1537 C1535 1.327 . S
C1537 C1553 1.429 . S
C1537 H1559 0.950 . S
C1538 H1534 0.949 . S
C1538 C1546 1.574 . S
C1538 C1554 1.368 . S
H1539 C1547 0.950 . S
H1540 C1545 0.950 . S
H1541 C1546 0.949 . S
H1542 C1548 0.950 . S
H1543 C1549 0.950 . S
H1544 C1550 0.949 . S
C1545 H1540 0.950 . S
C1545 C1547 1.327 . S
C1545 C1551 1.429 . S
C1546 C1538 1.574 . S
C1546 H1541 0.949 . S
C1546 C1552 1.368 . S
C1547 C1531 1.349 . S
C1547 H1539 0.950 . S
C1547 C1545 1.327 . S
C1548 C1536 1.349 . S
C1548 H1542 0.950 . S
C1548 C1549 1.327 . S
C1549 H1543 0.950 . S
C1549 C1548 1.327 . S
C1549 C1553 1.429 . S
C1550 C1533 1.574 . S
C1550 H1544 0.949 . S
C1550 C1554 1.368 . S
C1551 C1532 1.429 . S
C1551 C1545 1.429 . S
C1551 C1552 1.523 . S
C1552 C1533 1.368 . S
C1552 C1546 1.368 . S
C1552 C1551 1.523 . S
C1553 C1537 1.429 . S
C1553 C1549 1.429 . S
C1553 C1554 1.523 . S
C1554 C1538 1.368 . S
C1554 C1550 1.368 . S
C1554 C1553 1.523 . S
H1555 C1530 0.950 . S
H1556 C1532 0.950 . S
H1557 C1533 0.949 . S
H1558 C1535 0.950 . S
H1559 C1537 0.950 . S
C1560 C1561 1.349 . S
C1560 C1562 1.327 . S
C1560 H1585 0.950 . S
C1561 C1560 1.349 . S
C1561 C1577 1.349 . S
C1562 C1560 1.327 . S
C1562 C1581 1.429 . S
C1562 H1586 0.950 . S
C1563 C1580 1.574 . S
C1563 C1582 1.368 . S
C1563 H1587 0.949 . S
H1564 C1568 0.949 . S
C1565 C1566 1.349 . S
C1565 C1567 1.327 . S
C1565 H1588 0.950 . S
C1566 C1565 1.349 . S
C1566 C1578 1.349 . S
C1567 C1565 1.327 . S
C1567 C1583 1.429 . S
C1567 H1589 0.950 . S
C1568 H1564 0.949 . S
C1568 C1576 1.574 . S
C1568 C1584 1.368 . S
H1569 C1577 0.950 . S
H1570 C1575 0.950 . S
H1571 C1576 0.949 . S
H1572 C1578 0.950 . S
H1573 C1579 0.950 . S
H1574 C1580 0.949 . S
C1575 H1570 0.950 . S
C1575 C1577 1.327 . S
C1575 C1581 1.429 . S
C1576 C1568 1.574 . S
C1576 H1571 0.949 . S
C1576 C1582 1.368 . S
C1577 C1561 1.349 . S
C1577 H1569 0.950 . S
C1577 C1575 1.327 . S
C1578 C1566 1.349 . S
C1578 H1572 0.950 . S
C1578 C1579 1.327 . S
C1579 H1573 0.950 . S
C1579 C1578 1.327 . S
C1579 C1583 1.429 . S
C1580 C1563 1.574 . S
C1580 H1574 0.949 . S
C1580 C1584 1.368 . S
C1581 C1562 1.429 . S
C1581 C1575 1.429 . S
C1581 C1582 1.523 . S
C1582 C1563 1.368 . S
C1582 C1576 1.368 . S
C1582 C1581 1.523 . S
C1583 C1567 1.429 . S
C1583 C1579 1.429 . S
C1583 C1584 1.523 . S
C1584 C1568 1.368 . S
C1584 C1580 1.368 . S
C1584 C1583 1.523 . S
H1585 C1560 0.950 . S
H1586 C1562 0.950 . S
H1587 C1563 0.949 . S
H1588 C1565 0.950 . S
H1589 C1567 0.950 . S
C1590 C1591 1.349 . S
C1590 C1592 1.327 . S
C1590 H1615 0.950 . S
C1591 C1590 1.349 . S
C1591 C1607 1.349 . S
C1592 C1590 1.327 . S
C1592 C1611 1.429 . S
C1592 H1616 0.950 . S
C1593 C1610 1.574 . S
C1593 C1612 1.368 . S
C1593 H1617 0.949 . S
H1594 C1598 0.949 . S
C1595 C1596 1.349 . S
C1595 C1597 1.327 1_565 S
C1595 H1618 0.950 . S
C1596 C1595 1.349 . S
C1596 C1608 1.349 . S
C1597 C1595 1.327 1_545 S
C1597 C1613 1.429 . S
C1597 H1619 0.950 . S
C1598 H1594 0.949 . S
C1598 C1606 1.574 . S
C1598 C1614 1.368 . S
H1599 C1607 0.950 . S
H1600 C1605 0.950 . S
H1601 C1606 0.949 . S
H1602 C1608 0.950 . S
H1603 C1609 0.950 . S
H1604 C1610 0.949 . S
C1605 H1600 0.950 . S
C1605 C1607 1.327 . S
C1605 C1611 1.429 . S
C1606 C1598 1.574 . S
C1606 H1601 0.949 . S
C1606 C1612 1.368 . S
C1607 C1591 1.349 . S
C1607 H1599 0.950 . S
C1607 C1605 1.327 . S
C1608 C1596 1.349 . S
C1608 H1602 0.950 . S
C1608 C1609 1.327 . S
C1609 H1603 0.950 . S
C1609 C1608 1.327 . S
C1609 C1613 1.429 1_565 S
C1610 C1593 1.574 . S
C1610 H1604 0.949 . S
C1610 C1614 1.368 . S
C1611 C1592 1.429 . S
C1611 C1605 1.429 . S
C1611 C1612 1.523 . S
C1612 C1593 1.368 . S
C1612 C1606 1.368 . S
C1612 C1611 1.523 . S
C1613 C1597 1.429 . S
C1613 C1609 1.429 1_545 S
C1613 C1614 1.523 . S
C1614 C1598 1.368 . S
C1614 C1610 1.368 . S
C1614 C1613 1.523 . S
H1615 C1590 0.950 . S
H1616 C1592 0.950 . S
H1617 C1593 0.949 . S
H1618 C1595 0.950 . S
H1619 C1597 0.950 . S
C1620 C1621 1.349 . S
C1620 C1622 1.327 . S
C1620 H1645 0.950 . S
C1621 C1620 1.349 . S
C1621 C1637 1.349 . S
C1622 C1620 1.327 . S
C1622 C1641 1.429 . S
C1622 H1646 0.950 . S
C1623 C1640 1.574 . S
C1623 C1642 1.368 . S
C1623 H1647 0.949 . S
H1624 C1628 0.949 . S
C1625 C1626 1.349 . S
C1625 C1627 1.327 . S
C1625 H1648 0.950 . S
C1626 C1625 1.349 . S
C1626 C1638 1.349 . S
C1627 C1625 1.327 . S
C1627 C1643 1.429 . S
C1627 H1649 0.950 . S
C1628 H1624 0.949 . S
C1628 C1636 1.574 . S
C1628 C1644 1.368 . S
H1629 C1637 0.950 . S
H1630 C1635 0.950 . S
H1631 C1636 0.949 . S
H1632 C1638 0.950 . S
H1633 C1639 0.950 . S
H1634 C1640 0.949 . S
C1635 H1630 0.950 . S
C1635 C1637 1.327 . S
C1635 C1641 1.429 . S
C1636 C1628 1.574 . S
C1636 H1631 0.949 . S
C1636 C1642 1.368 . S
C1637 C1621 1.349 . S
C1637 H1629 0.950 . S
C1637 C1635 1.327 . S
C1638 C1626 1.349 . S
C1638 H1632 0.950 . S
C1638 C1639 1.327 . S
C1639 H1633 0.950 . S
C1639 C1638 1.327 . S
C1639 C1643 1.429 . S
C1640 C1623 1.574 . S
C1640 H1634 0.949 . S
C1640 C1644 1.368 . S
C1641 C1622 1.429 . S
C1641 C1635 1.429 . S
C1641 C1642 1.523 . S
C1642 C1623 1.368 . S
C1642 C1636 1.368 . S
C1642 C1641 1.523 . S
C1643 C1627 1.429 . S
C1643 C1639 1.429 . S
C1643 C1644 1.523 . S
C1644 C1628 1.368 . S
C1644 C1640 1.368 . S
C1644 C1643 1.523 . S
H1645 C1620 0.950 . S
H1646 C1622 0.950 . S
H1647 C1623 0.949 . S
H1648 C1625 0.950 . S
H1649 C1627 0.950 . S
C1650 C1651 1.349 . S
C1650 C1652 1.327 . S
C1650 H1675 0.950 . S
C1651 C1650 1.349 . S
C1651 C1667 1.349 . S
C1652 C1650 1.327 . S
C1652 C1671 1.429 . S
C1652 H1676 0.950 . S
C1653 C1670 1.574 . S
C1653 C1672 1.368 . S
C1653 H1677 0.949 . S
H1654 C1658 0.949 . S
C1655 C1656 1.349 . S
C1655 C1657 1.327 . S
C1655 H1678 0.950 . S
C1656 C1655 1.349 . S
C1656 C1668 1.349 . S
C1657 C1655 1.327 . S
C1657 C1673 1.429 . S
C1657 H1679 0.950 . S
C1658 H1654 0.949 . S
C1658 C1666 1.574 . S
C1658 C1674 1.368 . S
H1659 C1667 0.950 . S
H1660 C1665 0.950 . S
H1661 C1666 0.949 . S
H1662 C1668 0.950 . S
H1663 C1669 0.950 . S
H1664 C1670 0.949 . S
C1665 H1660 0.950 . S
C1665 C1667 1.327 . S
C1665 C1671 1.429 . S
C1666 C1658 1.574 . S
C1666 H1661 0.949 . S
C1666 C1672 1.368 . S
C1667 C1651 1.349 . S
C1667 H1659 0.950 . S
C1667 C1665 1.327 . S
C1668 C1656 1.349 . S
C1668 H1662 0.950 . S
C1668 C1669 1.327 . S
C1669 H1663 0.950 . S
C1669 C1668 1.327 . S
C1669 C1673 1.429 . S
C1670 C1653 1.574 . S
C1670 H1664 0.949 . S
C1670 C1674 1.368 . S
C1671 C1652 1.429 . S
C1671 C1665 1.429 . S
C1671 C1672 1.523 . S
C1672 C1653 1.368 . S
C1672 C1666 1.368 . S
C1672 C1671 1.523 . S
C1673 C1657 1.429 . S
C1673 C1669 1.429 . S
C1673 C1674 1.523 . S
C1674 C1658 1.368 . S
C1674 C1670 1.368 . S
C1674 C1673 1.523 . S
H1675 C1650 0.950 . S
H1676 C1652 0.950 . S
H1677 C1653 0.949 . S
H1678 C1655 0.950 . S
H1679 C1657 0.950 . S
C1680 C1681 1.349 . S
C1680 C1682 1.327 . S
C1680 H1705 0.950 . S
C1681 C1680 1.349 . S
C1681 C1697 1.349 . S
C1682 C1680 1.327 . S
C1682 C1701 1.429 . S
C1682 H1706 0.950 . S
C1683 C1700 1.574 . S
C1683 C1702 1.368 . S
C1683 H1707 0.949 . S
H1684 C1688 0.949 . S
C1685 C1686 1.349 . S
C1685 C1687 1.327 . S
C1685 H1708 0.950 . S
C1686 C1685 1.349 . S
C1686 C1698 1.349 . S
C1687 C1685 1.327 . S
C1687 C1703 1.429 . S
C1687 H1709 0.950 . S
C1688 H1684 0.949 . S
C1688 C1696 1.574 . S
C1688 C1704 1.368 . S
H1689 C1697 0.950 . S
H1690 C1695 0.950 . S
H1691 C1696 0.949 . S
H1692 C1698 0.950 . S
H1693 C1699 0.950 . S
H1694 C1700 0.949 . S
C1695 H1690 0.950 . S
C1695 C1697 1.327 . S
C1695 C1701 1.429 . S
C1696 C1688 1.574 . S
C1696 H1691 0.949 . S
C1696 C1702 1.368 . S
C1697 C1681 1.349 . S
C1697 H1689 0.950 . S
C1697 C1695 1.327 . S
C1698 C1686 1.349 . S
C1698 H1692 0.950 . S
C1698 C1699 1.327 . S
C1699 H1693 0.950 . S
C1699 C1698 1.327 . S
C1699 C1703 1.429 . S
C1700 C1683 1.574 . S
C1700 H1694 0.949 . S
C1700 C1704 1.368 . S
C1701 C1682 1.429 . S
C1701 C1695 1.429 . S
C1701 C1702 1.523 . S
C1702 C1683 1.368 . S
C1702 C1696 1.368 . S
C1702 C1701 1.523 . S
C1703 C1687 1.429 . S
C1703 C1699 1.429 . S
C1703 C1704 1.523 . S
C1704 C1688 1.368 . S
C1704 C1700 1.368 . S
C1704 C1703 1.523 . S
H1705 C1680 0.950 . S
H1706 C1682 0.950 . S
H1707 C1683 0.949 . S
H1708 C1685 0.950 . S
H1709 C1687 0.950 . S
C1710 C1711 1.349 . S
C1710 C1712 1.327 . S
C1710 H1735 0.950 . S
C1711 C1710 1.349 . S
C1711 C1727 1.349 . S
C1712 C1710 1.327 . S
C1712 C1731 1.429 . S
C1712 H1736 0.950 . S
C1713 C1730 1.574 . S
C1713 C1732 1.368 . S
C1713 H1737 0.949 . S
H1714 C1718 0.949 . S
C1715 C1716 1.349 . S
C1715 C1717 1.327 1_565 S
C1715 H1738 0.950 . S
C1716 C1715 1.349 . S
C1716 C1728 1.349 . S
C1717 C1715 1.327 1_545 S
C1717 C1733 1.429 . S
C1717 H1739 0.950 . S
C1718 H1714 0.949 . S
C1718 C1726 1.574 . S
C1718 C1734 1.368 . S
H1719 C1727 0.950 . S
H1720 C1725 0.950 . S
H1721 C1726 0.949 . S
H1722 C1728 0.950 . S
H1723 C1729 0.950 . S
H1724 C1730 0.949 . S
C1725 H1720 0.950 . S
C1725 C1727 1.327 . S
C1725 C1731 1.429 . S
C1726 C1718 1.574 . S
C1726 H1721 0.949 . S
C1726 C1732 1.368 . S
C1727 C1711 1.349 . S
C1727 H1719 0.950 . S
C1727 C1725 1.327 . S
C1728 C1716 1.349 . S
C1728 H1722 0.950 . S
C1728 C1729 1.327 . S
C1729 H1723 0.950 . S
C1729 C1728 1.327 . S
C1729 C1733 1.429 1_565 S
C1730 C1713 1.574 . S
C1730 H1724 0.949 . S
C1730 C1734 1.368 . S
C1731 C1712 1.429 . S
C1731 C1725 1.429 . S
C1731 C1732 1.523 . S
C1732 C1713 1.368 . S
C1732 C1726 1.368 . S
C1732 C1731 1.523 . S
C1733 C1717 1.429 . S
C1733 C1729 1.429 1_545 S
C1733 C1734 1.523 . S
C1734 C1718 1.368 . S
C1734 C1730 1.368 . S
C1734 C1733 1.523 . S
H1735 C1710 0.950 . S
H1736 C1712 0.950 . S
H1737 C1713 0.949 . S
H1738 C1715 0.950 . S
H1739 C1717 0.950 . S
C1740 C1741 1.349 . S
C1740 C1742 1.327 . S
C1740 H1765 0.950 . S
C1741 C1740 1.349 . S
C1741 C1757 1.349 . S
C1742 C1740 1.327 . S
C1742 C1761 1.429 . S
C1742 H1766 0.950 . S
C1743 C1760 1.574 . S
C1743 C1762 1.368 . S
C1743 H1767 0.949 . S
H1744 C1748 0.949 . S
C1745 C1746 1.349 . S
C1745 C1747 1.327 . S
C1745 H1768 0.950 . S
C1746 C1745 1.349 . S
C1746 C1758 1.349 . S
C1747 C1745 1.327 . S
C1747 C1763 1.429 . S
C1747 H1769 0.950 . S
C1748 H1744 0.949 . S
C1748 C1756 1.574 . S
C1748 C1764 1.368 . S
H1749 C1757 0.950 . S
H1750 C1755 0.950 . S
H1751 C1756 0.949 . S
H1752 C1758 0.950 . S
H1753 C1759 0.950 . S
H1754 C1760 0.949 . S
C1755 H1750 0.950 . S
C1755 C1757 1.327 . S
C1755 C1761 1.429 . S
C1756 C1748 1.574 . S
C1756 H1751 0.949 . S
C1756 C1762 1.368 . S
C1757 C1741 1.349 . S
C1757 H1749 0.950 . S
C1757 C1755 1.327 . S
C1758 C1746 1.349 . S
C1758 H1752 0.950 . S
C1758 C1759 1.327 . S
C1759 H1753 0.950 . S
C1759 C1758 1.327 . S
C1759 C1763 1.429 . S
C1760 C1743 1.574 . S
C1760 H1754 0.949 . S
C1760 C1764 1.368 . S
C1761 C1742 1.429 . S
C1761 C1755 1.429 . S
C1761 C1762 1.523 . S
C1762 C1743 1.368 . S
C1762 C1756 1.368 . S
C1762 C1761 1.523 . S
C1763 C1747 1.429 . S
C1763 C1759 1.429 . S
C1763 C1764 1.523 . S
C1764 C1748 1.368 . S
C1764 C1760 1.368 . S
C1764 C1763 1.523 . S
H1765 C1740 0.950 . S
H1766 C1742 0.950 . S
H1767 C1743 0.949 . S
H1768 C1745 0.950 . S
H1769 C1747 0.950 . S
C1770 C1771 1.349 . S
C1770 C1772 1.327 . S
C1770 H1795 0.950 . S
C1771 C1770 1.349 . S
C1771 C1787 1.349 . S
C1772 C1770 1.327 . S
C1772 C1791 1.429 . S
C1772 H1796 0.950 . S
C1773 C1790 1.574 . S
C1773 C1792 1.368 . S
C1773 H1797 0.949 . S
H1774 C1778 0.949 . S
C1775 C1776 1.349 . S
C1775 C1777 1.327 . S
C1775 H1798 0.950 . S
C1776 C1775 1.349 . S
C1776 C1788 1.349 . S
C1777 C1775 1.327 . S
C1777 C1793 1.429 . S
C1777 H1799 0.950 . S
C1778 H1774 0.949 . S
C1778 C1786 1.574 . S
C1778 C1794 1.368 . S
H1779 C1787 0.950 . S
H1780 C1785 0.950 . S
H1781 C1786 0.949 . S
H1782 C1788 0.950 . S
H1783 C1789 0.950 . S
H1784 C1790 0.949 . S
C1785 H1780 0.950 . S
C1785 C1787 1.327 . S
C1785 C1791 1.429 . S
C1786 C1778 1.574 . S
C1786 H1781 0.949 . S
C1786 C1792 1.368 . S
C1787 C1771 1.349 . S
C1787 H1779 0.950 . S
C1787 C1785 1.327 . S
C1788 C1776 1.349 . S
C1788 H1782 0.950 . S
C1788 C1789 1.327 . S
C1789 H1783 0.950 . S
C1789 C1788 1.327 . S
C1789 C1793 1.429 . S
C1790 C1773 1.574 . S
C1790 H1784 0.949 . S
C1790 C1794 1.368 . S
C1791 C1772 1.429 . S
C1791 C1785 1.429 . S
C1791 C1792 1.523 . S
C1792 C1773 1.368 . S
C1792 C1786 1.368 . S
C1792 C1791 1.523 . S
C1793 C1777 1.429 . S
C1793 C1789 1.429 . S
C1793 C1794 1.523 . S
C1794 C1778 1.368 . S
C1794 C1790 1.368 . S
C1794 C1793 1.523 . S
H1795 C1770 0.950 . S
H1796 C1772 0.950 . S
H1797 C1773 0.949 . S
H1798 C1775 0.950 . S
H1799 C1777 0.950 . S
C1800 C1801 1.349 . S
C1800 C1802 1.327 . S
C1800 H1825 0.950 . S
C1801 C1800 1.349 . S
C1801 C1817 1.349 . S
C1802 C1800 1.327 . S
C1802 C1821 1.429 . S
C1802 H1826 0.950 . S
C1803 C1820 1.574 . S
C1803 C1822 1.368 . S
C1803 H1827 0.949 . S
H1804 C1808 0.949 . S
C1805 C1806 1.349 . S
C1805 C1807 1.327 . S
C1805 H1828 0.950 . S
C1806 C1805 1.349 . S
C1806 C1818 1.349 . S
C1807 C1805 1.327 . S
C1807 C1823 1.429 . S
C1807 H1829 0.950 . S
C1808 H1804 0.949 . S
C1808 C1816 1.574 . S
C1808 C1824 1.368 . S
H1809 C1817 0.950 . S
H1810 C1815 0.950 . S
H1811 C1816 0.949 . S
H1812 C1818 0.950 . S
H1813 C1819 0.950 . S
H1814 C1820 0.949 . S
C1815 H1810 0.950 . S
C1815 C1817 1.327 . S
C1815 C1821 1.429 . S
C1816 C1808 1.574 . S
C1816 H1811 0.949 . S
C1816 C1822 1.368 . S
C1817 C1801 1.349 . S
C1817 H1809 0.950 . S
C1817 C1815 1.327 . S
C1818 C1806 1.349 . S
C1818 H1812 0.950 . S
C1818 C1819 1.327 . S
C1819 H1813 0.950 . S
C1819 C1818 1.327 . S
C1819 C1823 1.429 . S
C1820 C1803 1.574 . S
C1820 H1814 0.949 . S
C1820 C1824 1.368 . S
C1821 C1802 1.429 . S
C1821 C1815 1.429 . S
C1821 C1822 1.523 . S
C1822 C1803 1.368 . S
C1822 C1816 1.368 . S
C1822 C1821 1.523 . S
C1823 C1807 1.429 . S
C1823 C1819 1.429 . S
C1823 C1824 1.523 . S
C1824 C1808 1.368 . S
C1824 C1820 1.368 . S
C1824 C1823 1.523 . S
H1825 C1800 0.950 . S
H1826 C1802 0.950 . S
H1827 C1803 0.949 . S
H1828 C1805 0.950 . S
H1829 C1807 0.950 . S
C1830 C1831 1.349 . S
C1830 C1832 1.327 . S
C1830 H1855 0.950 . S
C1831 C1830 1.349 . S
C1831 C1847 1.349 . S
C1832 C1830 1.327 . S
C1832 C1851 1.429 . S
C1832 H1856 0.950 . S
C1833 C1850 1.574 . S
C1833 C1852 1.368 . S
C1833 H1857 0.949 . S
H1834 C1838 0.949 . S
C1835 C1836 1.349 . S
C1835 C1837 1.327 . S
C1835 H1858 0.950 . S
C1836 C1835 1.349 . S
C1836 C1848 1.349 . S
C1837 C1835 1.327 . S
C1837 C1853 1.429 . S
C1837 H1859 0.950 . S
C1838 H1834 0.949 . S
C1838 C1846 1.574 . S
C1838 C1854 1.368 . S
H1839 C1847 0.950 . S
H1840 C1845 0.950 . S
H1841 C1846 0.949 . S
H1842 C1848 0.950 . S
H1843 C1849 0.950 . S
H1844 C1850 0.949 . S
C1845 H1840 0.950 . S
C1845 C1847 1.327 . S
C1845 C1851 1.429 . S
C1846 C1838 1.574 . S
C1846 H1841 0.949 . S
C1846 C1852 1.368 . S
C1847 C1831 1.349 . S
C1847 H1839 0.950 . S
C1847 C1845 1.327 . S
C1848 C1836 1.349 . S
C1848 H1842 0.950 . S
C1848 C1849 1.327 . S
C1849 H1843 0.950 . S
C1849 C1848 1.327 . S
C1849 C1853 1.429 . S
C1850 C1833 1.574 . S
C1850 H1844 0.949 . S
C1850 C1854 1.368 . S
C1851 C1832 1.429 . S
C1851 C1845 1.429 . S
C1851 C1852 1.523 . S
C1852 C1833 1.368 . S
C1852 C1846 1.368 . S
C1852 C1851 1.523 . S
C1853 C1837 1.429 . S
C1853 C1849 1.429 . S
C1853 C1854 1.523 . S
C1854 C1838 1.368 . S
C1854 C1850 1.368 . S
C1854 C1853 1.523 . S
H1855 C1830 0.950 . S
H1856 C1832 0.950 . S
H1857 C1833 0.949 . S
H1858 C1835 0.950 . S
H1859 C1837 0.950 . S
C1860 C1861 1.349 . S
C1860 C1862 1.327 . S
C1860 H1885 0.950 . S
C1861 C1860 1.349 . S
C1861 C1877 1.349 . S
C1862 C1860 1.327 . S
C1862 C1881 1.429 . S
C1862 H1886 0.950 . S
C1863 C1880 1.574 . S
C1863 C1882 1.368 . S
C1863 H1887 0.949 . S
H1864 C1868 0.949 . S
C1865 C1866 1.349 . S
C1865 C1867 1.327 . S
C1865 H1888 0.950 . S
C1866 C1865 1.349 . S
C1866 C1878 1.349 . S
C1867 C1865 1.327 . S
C1867 C1883 1.429 . S
C1867 H1889 0.950 . S
C1868 H1864 0.949 . S
C1868 C1876 1.574 . S
C1868 C1884 1.368 . S
H1869 C1877 0.950 . S
H1870 C1875 0.950 . S
H1871 C1876 0.949 . S
H1872 C1878 0.950 . S
H1873 C1879 0.950 . S
H1874 C1880 0.949 . S
C1875 H1870 0.950 . S
C1875 C1877 1.327 . S
C1875 C1881 1.429 . S
C1876 C1868 1.574 . S
C1876 H1871 0.949 . S
C1876 C1882 1.368 . S
C1877 C1861 1.349 . S
C1877 H1869 0.950 . S
C1877 C1875 1.327 . S
C1878 C1866 1.349 . S
C1878 H1872 0.950 . S
C1878 C1879 1.327 . S
C1879 H1873 0.950 . S
C1879 C1878 1.327 . S
C1879 C1883 1.429 . S
C1880 C1863 1.574 . S
C1880 H1874 0.949 . S
C1880 C1884 1.368 . S
C1881 C1862 1.429 . S
C1881 C1875 1.429 . S
C1881 C1882 1.523 . S
C1882 C1863 1.368 . S
C1882 C1876 1.368 . S
C1882 C1881 1.523 . S
C1883 C1867 1.429 . S
C1883 C1879 1.429 . S
C1883 C1884 1.523 . S
C1884 C1868 1.368 . S
C1884 C1880 1.368 . S
C1884 C1883 1.523 . S
H1885 C1860 0.950 . S
H1886 C1862 0.950 . S
H1887 C1863 0.949 . S
H1888 C1865 0.950 . S
H1889 C1867 0.950 . S
C1890 C1891 1.349 . S
C1890 C1892 1.327 . S
C1890 H1915 0.950 . S
C1891 C1890 1.349 . S
C1891 C1907 1.349 . S
C1892 C1890 1.327 . S
C1892 C1911 1.429 . S
C1892 H1916 0.950 . S
C1893 C1910 1.574 . S
C1893 C1912 1.368 . S
C1893 H1917 0.949 . S
H1894 C1898 0.949 . S
C1895 C1896 1.349 . S
C1895 C1897 1.327 . S
C1895 H1918 0.950 . S
C1896 C1895 1.349 . S
C1896 C1908 1.349 . S
C1897 C1895 1.327 . S
C1897 C1913 1.429 . S
C1897 H1919 0.950 . S
C1898 H1894 0.949 . S
C1898 C1906 1.574 . S
C1898 C1914 1.368 . S
H1899 C1907 0.950 . S
H1900 C1905 0.950 . S
H1901 C1906 0.949 . S
H1902 C1908 0.950 . S
H1903 C1909 0.950 . S
H1904 C1910 0.949 . S
C1905 H1900 0.950 . S
C1905 C1907 1.327 . S
C1905 C1911 1.429 . S
C1906 C1898 1.574 . S
C1906 H1901 0.949 . S
C1906 C1912 1.368 . S
C1907 C1891 1.349 . S
C1907 H1899 0.950 . S
C1907 C1905 1.327 . S
C1908 C1896 1.349 . S
C1908 H1902 0.950 . S
C1908 C1909 1.327 . S
C1909 H1903 0.950 . S
C1909 C1908 1.327 . S
C1909 C1913 1.429 . S
C1910 C1893 1.574 . S
C1910 H1904 0.949 . S
C1910 C1914 1.368 . S
C1911 C1892 1.429 . S
C1911 C1905 1.429 . S
C1911 C1912 1.523 . S
C1912 C1893 1.368 . S
C1912 C1906 1.368 . S
C1912 C1911 1.523 . S
C1913 C1897 1.429 . S
C1913 C1909 1.429 . S
C1913 C1914 1.523 . S
C1914 C1898 1.368 . S
C1914 C1910 1.368 . S
C1914 C1913 1.523 . S
H1915 C1890 0.950 . S
H1916 C1892 0.950 . S
H1917 C1893 0.949 . S
H1918 C1895 0.950 . S
H1919 C1897 0.950 . S
C1920 C1921 1.349 . S
C1920 C1922 1.327 . S
C1920 H1945 0.950 . S
C1921 C1920 1.349 . S
C1921 C1937 1.349 . S
C1922 C1920 1.327 . S
C1922 C1941 1.429 . S
C1922 H1946 0.950 . S
C1923 C1940 1.574 . S
C1923 C1942 1.368 . S
C1923 H1947 0.949 . S
H1924 C1928 0.949 . S
C1925 C1926 1.349 . S
C1925 C1927 1.327 1_455 S
C1925 H1948 0.950 1_545 S
C1926 C1925 1.349 . S
C1926 C1938 1.349 . S
C1927 C1925 1.327 1_655 S
C1927 C1943 1.429 . S
C1927 H1949 0.950 . S
C1928 H1924 0.949 . S
C1928 C1936 1.574 . S
C1928 C1944 1.368 . S
H1929 C1937 0.950 . S
H1930 C1935 0.950 . S
H1931 C1936 0.949 . S
H1932 C1938 0.950 . S
H1933 C1939 0.950 . S
H1934 C1940 0.949 . S
C1935 H1930 0.950 . S
C1935 C1937 1.327 . S
C1935 C1941 1.429 . S
C1936 C1928 1.574 . S
C1936 H1931 0.949 . S
C1936 C1942 1.368 . S
C1937 C1921 1.349 . S
C1937 H1929 0.950 . S
C1937 C1935 1.327 . S
C1938 C1926 1.349 . S
C1938 H1932 0.950 . S
C1938 C1939 1.327 . S
C1939 H1933 0.950 . S
C1939 C1938 1.327 . S
C1939 C1943 1.429 1_455 S
C1940 C1923 1.574 . S
C1940 H1934 0.949 . S
C1940 C1944 1.368 . S
C1941 C1922 1.429 . S
C1941 C1935 1.429 . S
C1941 C1942 1.523 . S
C1942 C1923 1.368 . S
C1942 C1936 1.368 . S
C1942 C1941 1.523 . S
C1943 C1927 1.429 . S
C1943 C1939 1.429 1_655 S
C1943 C1944 1.523 . S
C1944 C1928 1.368 . S
C1944 C1940 1.368 . S
C1944 C1943 1.523 . S
H1945 C1920 0.950 . S
H1946 C1922 0.950 . S
H1947 C1923 0.949 . S
H1948 C1925 0.950 1_565 S
H1949 C1927 0.950 . S
C1950 C1951 1.349 . S
C1950 C1952 1.327 . S
C1950 H1975 0.950 . S
C1951 C1950 1.349 . S
C1951 C1967 1.349 . S
C1952 C1950 1.327 . S
C1952 C1971 1.429 . S
C1952 H1976 0.950 . S
C1953 C1970 1.574 . S
C1953 C1972 1.368 . S
C1953 H1977 0.949 . S
H1954 C1958 0.949 . S
C1955 C1956 1.349 . S
C1955 C1957 1.327 . S
C1955 H1978 0.950 . S
C1956 C1955 1.349 . S
C1956 C1968 1.349 . S
C1957 C1955 1.327 . S
C1957 C1973 1.429 . S
C1957 H1979 0.950 . S
C1958 H1954 0.949 . S
C1958 C1966 1.574 . S
C1958 C1974 1.368 . S
H1959 C1967 0.950 . S
H1960 C1965 0.950 . S
H1961 C1966 0.949 . S
H1962 C1968 0.950 . S
H1963 C1969 0.950 . S
H1964 C1970 0.949 . S
C1965 H1960 0.950 . S
C1965 C1967 1.327 . S
C1965 C1971 1.429 . S
C1966 C1958 1.574 . S
C1966 H1961 0.949 . S
C1966 C1972 1.368 . S
C1967 C1951 1.349 . S
C1967 H1959 0.950 . S
C1967 C1965 1.327 . S
C1968 C1956 1.349 . S
C1968 H1962 0.950 . S
C1968 C1969 1.327 . S
C1969 H1963 0.950 . S
C1969 C1968 1.327 . S
C1969 C1973 1.429 . S
C1970 C1953 1.574 . S
C1970 H1964 0.949 . S
C1970 C1974 1.368 . S
C1971 C1952 1.429 . S
C1971 C1965 1.429 . S
C1971 C1972 1.523 . S
C1972 C1953 1.368 . S
C1972 C1966 1.368 . S
C1972 C1971 1.523 . S
C1973 C1957 1.429 . S
C1973 C1969 1.429 . S
C1973 C1974 1.523 . S
C1974 C1958 1.368 . S
C1974 C1970 1.368 . S
C1974 C1973 1.523 . S
H1975 C1950 0.950 . S
H1976 C1952 0.950 . S
H1977 C1953 0.949 . S
H1978 C1955 0.950 . S
H1979 C1957 0.950 . S
C1980 C1981 1.349 . S
C1980 C1982 1.327 . S
C1980 H2005 0.950 . S
C1981 C1980 1.349 . S
C1981 C1997 1.349 . S
C1982 C1980 1.327 . S
C1982 C2001 1.429 . S
C1982 H2006 0.950 . S
C1983 C2000 1.574 . S
C1983 C2002 1.368 . S
C1983 H2007 0.949 . S
H1984 C1988 0.949 . S
C1985 C1986 1.349 1_565 S
C1985 C1987 1.327 1_565 S
C1985 H2008 0.950 . S
C1986 C1985 1.349 1_545 S
C1986 C1998 1.349 . S
C1987 C1985 1.327 1_545 S
C1987 C2003 1.429 . S
C1987 H2009 0.950 1_545 S
C1988 H1984 0.949 . S
C1988 C1996 1.574 . S
C1988 C2004 1.368 . S
H1989 C1997 0.950 . S
H1990 C1995 0.950 . S
H1991 C1996 0.949 . S
H1992 C1998 0.950 . S
H1993 C1999 0.950 . S
H1994 C2000 0.949 . S
C1995 H1990 0.950 . S
C1995 C1997 1.327 . S
C1995 C2001 1.429 . S
C1996 C1988 1.574 . S
C1996 H1991 0.949 . S
C1996 C2002 1.368 . S
C1997 C1981 1.349 . S
C1997 H1989 0.950 . S
C1997 C1995 1.327 . S
C1998 C1986 1.349 . S
C1998 H1992 0.950 . S
C1998 C1999 1.327 . S
C1999 H1993 0.950 . S
C1999 C1998 1.327 . S
C1999 C2003 1.429 . S
C2000 C1983 1.574 . S
C2000 H1994 0.949 . S
C2000 C2004 1.368 . S
C2001 C1982 1.429 . S
C2001 C1995 1.429 . S
C2001 C2002 1.523 . S
C2002 C1983 1.368 . S
C2002 C1996 1.368 . S
C2002 C2001 1.523 . S
C2003 C1987 1.429 . S
C2003 C1999 1.429 . S
C2003 C2004 1.523 . S
C2004 C1988 1.368 . S
C2004 C2000 1.368 . S
C2004 C2003 1.523 . S
H2005 C1980 0.950 . S
H2006 C1982 0.950 . S
H2007 C1983 0.949 . S
H2008 C1985 0.950 . S
H2009 C1987 0.950 1_565 S
C2010 C2011 1.349 . S
C2010 C2012 1.327 . S
C2010 H2035 0.950 . S
C2011 C2010 1.349 . S
C2011 C2027 1.349 . S
C2012 C2010 1.327 . S
C2012 C2031 1.429 . S
C2012 H2036 0.950 . S
C2013 C2030 1.574 . S
C2013 C2032 1.368 . S
C2013 H2037 0.949 . S
H2014 C2018 0.949 . S
C2015 C2016 1.349 . S
C2015 C2017 1.327 . S
C2015 H2038 0.950 . S
C2016 C2015 1.349 . S
C2016 C2028 1.349 . S
C2017 C2015 1.327 . S
C2017 C2033 1.429 . S
C2017 H2039 0.950 . S
C2018 H2014 0.949 . S
C2018 C2026 1.574 . S
C2018 C2034 1.368 . S
H2019 C2027 0.950 . S
H2020 C2025 0.950 . S
H2021 C2026 0.949 . S
H2022 C2028 0.950 . S
H2023 C2029 0.950 . S
H2024 C2030 0.949 . S
C2025 H2020 0.950 . S
C2025 C2027 1.327 . S
C2025 C2031 1.429 . S
C2026 C2018 1.574 . S
C2026 H2021 0.949 . S
C2026 C2032 1.368 . S
C2027 C2011 1.349 . S
C2027 H2019 0.950 . S
C2027 C2025 1.327 . S
C2028 C2016 1.349 . S
C2028 H2022 0.950 . S
C2028 C2029 1.327 . S
C2029 H2023 0.950 . S
C2029 C2028 1.327 . S
C2029 C2033 1.429 . S
C2030 C2013 1.574 . S
C2030 H2024 0.949 . S
C2030 C2034 1.368 . S
C2031 C2012 1.429 . S
C2031 C2025 1.429 . S
C2031 C2032 1.523 . S
C2032 C2013 1.368 . S
C2032 C2026 1.368 . S
C2032 C2031 1.523 . S
C2033 C2017 1.429 . S
C2033 C2029 1.429 . S
C2033 C2034 1.523 . S
C2034 C2018 1.368 . S
C2034 C2030 1.368 . S
C2034 C2033 1.523 . S
H2035 C2010 0.950 . S
H2036 C2012 0.950 . S
H2037 C2013 0.949 . S
H2038 C2015 0.950 . S
H2039 C2017 0.950 . S
C2040 C2041 1.349 . S
C2040 C2042 1.327 . S
C2040 H2065 0.950 1_655 S
C2041 C2040 1.349 . S
C2041 C2057 1.349 . S
C2042 C2040 1.327 . S
C2042 C2061 1.429 . S
C2042 H2066 0.950 1_655 S
C2043 C2060 1.574 . S
C2043 C2062 1.368 . S
C2043 H2067 0.949 . S
H2044 C2048 0.949 1_455 S
C2045 C2046 1.349 . S
C2045 C2047 1.327 . S
C2045 H2068 0.950 . S
C2046 C2045 1.349 . S
C2046 C2058 1.349 . S
C2047 C2045 1.327 . S
C2047 C2063 1.429 . S
C2047 H2069 0.950 . S
C2048 H2044 0.949 1_655 S
C2048 C2056 1.574 . S
C2048 C2064 1.368 . S
H2049 C2057 0.950 . S
H2050 C2055 0.950 . S
H2051 C2056 0.949 1_455 S
H2052 C2058 0.950 1_455 S
H2053 C2059 0.950 1_455 S
H2054 C2060 0.949 . S
C2055 H2050 0.950 . S
C2055 C2057 1.327 . S
C2055 C2061 1.429 . S
C2056 C2048 1.574 . S
C2056 H2051 0.949 1_655 S
C2056 C2062 1.368 . S
C2057 C2041 1.349 . S
C2057 H2049 0.950 . S
C2057 C2055 1.327 . S
C2058 C2046 1.349 . S
C2058 H2052 0.950 1_655 S
C2058 C2059 1.327 . S
C2059 H2053 0.950 1_655 S
C2059 C2058 1.327 . S
C2059 C2063 1.429 . S
C2060 C2043 1.574 . S
C2060 H2054 0.949 . S
C2060 C2064 1.368 . S
C2061 C2042 1.429 . S
C2061 C2055 1.429 . S
C2061 C2062 1.523 . S
C2062 C2043 1.368 . S
C2062 C2056 1.368 . S
C2062 C2061 1.523 . S
C2063 C2047 1.429 . S
C2063 C2059 1.429 . S
C2063 C2064 1.523 . S
C2064 C2048 1.368 . S
C2064 C2060 1.368 . S
C2064 C2063 1.523 . S
H2065 C2040 0.950 1_455 S
H2066 C2042 0.950 1_455 S
H2067 C2043 0.949 . S
H2068 C2045 0.950 . S
H2069 C2047 0.950 . S
C2070 C2071 1.349 . S
C2070 C2072 1.327 . S
C2070 H2095 0.950 . S
C2071 C2070 1.349 . S
C2071 C2087 1.349 . S
C2072 C2070 1.327 . S
C2072 C2091 1.429 . S
C2072 H2096 0.950 1_556 S
C2073 C2090 1.574 . S
C2073 C2092 1.368 . S
C2073 H2097 0.949 . S
H2074 C2078 0.949 . S
C2075 C2076 1.349 . S
C2075 C2077 1.327 . S
C2075 H2098 0.950 . S
C2076 C2075 1.349 . S
C2076 C2088 1.349 . S
C2077 C2075 1.327 . S
C2077 C2093 1.429 . S
C2077 H2099 0.950 1_554 S
C2078 H2074 0.949 . S
C2078 C2086 1.574 . S
C2078 C2094 1.368 . S
H2079 C2087 0.950 . S
H2080 C2085 0.950 . S
H2081 C2086 0.949 . S
H2082 C2088 0.950 . S
H2083 C2089 0.950 . S
H2084 C2090 0.949 . S
C2085 H2080 0.950 . S
C2085 C2087 1.327 . S
C2085 C2091 1.429 . S
C2086 C2078 1.574 . S
C2086 H2081 0.949 . S
C2086 C2092 1.368 1_554 S
C2087 C2071 1.349 . S
C2087 H2079 0.950 . S
C2087 C2085 1.327 . S
C2088 C2076 1.349 . S
C2088 H2082 0.950 . S
C2088 C2089 1.327 . S
C2089 H2083 0.950 . S
C2089 C2088 1.327 . S
C2089 C2093 1.429 . S
C2090 C2073 1.574 . S
C2090 H2084 0.949 . S
C2090 C2094 1.368 1_556 S
C2091 C2072 1.429 . S
C2091 C2085 1.429 . S
C2091 C2092 1.523 . S
C2092 C2073 1.368 . S
C2092 C2086 1.368 1_556 S
C2092 C2091 1.523 . S
C2093 C2077 1.429 . S
C2093 C2089 1.429 . S
C2093 C2094 1.523 . S
C2094 C2078 1.368 . S
C2094 C2090 1.368 1_554 S
C2094 C2093 1.523 . S
H2095 C2070 0.950 . S
H2096 C2072 0.950 1_554 S
H2097 C2073 0.949 . S
H2098 C2075 0.950 . S
H2099 C2077 0.950 1_556 S
C2100 C2101 1.349 . S
C2100 C2102 1.327 . S
C2100 H2125 0.950 . S
C2101 C2100 1.349 . S
C2101 C2117 1.349 . S
C2102 C2100 1.327 . S
C2102 C2121 1.429 . S
C2102 H2126 0.950 . S
C2103 C2120 1.574 1_545 S
C2103 C2122 1.368 1_655 S
C2103 H2127 0.949 . S
H2104 C2108 0.949 . S
C2105 C2106 1.349 . S
C2105 C2107 1.327 1_455 S
C2105 H2128 0.949 1_455 S
C2106 C2105 1.349 . S
C2106 C2118 1.349 . S
C2107 C2105 1.327 1_655 S
C2107 C2123 1.424 1_655 S
C2107 H2129 0.954 . S
C2108 H2104 0.949 . S
C2108 C2116 1.574 1_565 S
C2108 C2124 1.368 . S
H2109 C2117 0.949 1_655 S
H2110 C2115 0.954 . S
H2111 C2116 0.949 . S
H2112 C2118 0.950 . S
H2113 C2119 0.950 . S
H2114 C2120 0.949 . S
C2115 H2110 0.954 . S
C2115 C2117 1.327 1_655 S
C2115 C2121 1.424 1_655 S
C2116 C2108 1.574 1_545 S
C2116 H2111 0.949 . S
C2116 C2122 1.368 . S
C2117 C2101 1.349 . S
C2117 H2109 0.949 1_455 S
C2117 C2115 1.327 1_455 S
C2118 C2106 1.349 . S
C2118 H2112 0.950 . S
C2118 C2119 1.327 . S
C2119 H2113 0.950 . S
C2119 C2118 1.327 . S
C2119 C2123 1.429 . S
C2120 C2103 1.574 1_565 S
C2120 H2114 0.949 . S
C2120 C2124 1.368 1_655 S
C2121 C2102 1.429 . S
C2121 C2115 1.424 1_455 S
C2121 C2122 1.523 . S
C2122 C2103 1.368 1_455 S
C2122 C2116 1.368 . S
C2122 C2121 1.523 . S
C2123 C2107 1.424 1_455 S
C2123 C2119 1.429 . S
C2123 C2124 1.523 . S
C2124 C2108 1.368 . S
C2124 C2120 1.368 1_455 S
C2124 C2123 1.523 . S
H2125 C2100 0.950 . S
H2126 C2102 0.950 . S
H2127 C2103 0.949 . S
H2128 C2105 0.949 1_655 S
H2129 C2107 0.954 . S
C2130 C2131 1.349 . S
C2130 C2132 1.327 . S
C2130 H2155 0.950 . S
C2131 C2130 1.349 . S
C2131 C2147 1.349 . S
C2132 C2130 1.327 . S
C2132 C2151 1.429 . S
C2132 H2156 0.950 . S
C2133 C2150 1.574 . S
C2133 C2152 1.368 1_554 S
C2133 H2157 0.949 . S
H2134 C2138 0.949 . S
C2135 C2136 1.349 . S
C2135 C2137 1.327 . S
C2135 H2158 0.950 . S
C2136 C2135 1.349 . S
C2136 C2148 1.349 . S
C2137 C2135 1.327 . S
C2137 C2153 1.429 . S
C2137 H2159 0.950 . S
C2138 H2134 0.949 . S
C2138 C2146 1.574 . S
C2138 C2154 1.368 1_556 S
H2139 C2147 0.950 . S
H2140 C2145 0.950 1_554 S
H2141 C2146 0.949 . S
H2142 C2148 0.950 . S
H2143 C2149 0.950 1_556 S
H2144 C2150 0.949 . S
C2145 H2140 0.950 1_556 S
C2145 C2147 1.327 . S
C2145 C2151 1.429 . S
C2146 C2138 1.574 . S
C2146 H2141 0.949 . S
C2146 C2152 1.368 . S
C2147 C2131 1.349 . S
C2147 H2139 0.950 . S
C2147 C2145 1.327 . S
C2148 C2136 1.349 . S
C2148 H2142 0.950 . S
C2148 C2149 1.327 . S
C2149 H2143 0.950 1_554 S
C2149 C2148 1.327 . S
C2149 C2153 1.429 . S
C2150 C2133 1.574 . S
C2150 H2144 0.949 . S
C2150 C2154 1.368 . S
C2151 C2132 1.429 . S
C2151 C2145 1.429 . S
C2151 C2152 1.523 . S
C2152 C2133 1.368 1_556 S
C2152 C2146 1.368 . S
C2152 C2151 1.523 . S
C2153 C2137 1.429 . S
C2153 C2149 1.429 . S
C2153 C2154 1.523 . S
C2154 C2138 1.368 1_554 S
C2154 C2150 1.368 . S
C2154 C2153 1.523 . S
H2155 C2130 0.950 . S
H2156 C2132 0.950 . S
H2157 C2133 0.949 . S
H2158 C2135 0.950 . S
H2159 C2137 0.950 . S
C2160 C2161 1.349 . S
C2160 C2162 1.327 . S
C2160 H2185 0.950 . S
C2161 C2160 1.349 . S
C2161 C2177 1.349 1_565 S
C2162 C2160 1.327 . S
C2162 C2181 1.429 . S
C2162 H2186 0.950 . S
C2163 C2180 1.574 . S
C2163 C2182 1.368 1_545 S
C2163 H2187 0.949 . S
H2164 C2168 0.949 . S
C2165 C2166 1.349 1_545 S
C2165 C2167 1.327 . S
C2165 H2188 0.950 . S
C2166 C2165 1.349 1_565 S
C2166 C2178 1.349 . S
C2167 C2165 1.327 . S
C2167 C2183 1.429 1_545 S
C2167 H2189 0.950 . S
C2168 H2164 0.949 . S
C2168 C2176 1.574 . S
C2168 C2184 1.368 . S
H2169 C2177 0.950 . S
H2170 C2175 0.950 . S
H2171 C2176 0.949 . S
H2172 C2178 0.950 . S
H2173 C2179 0.950 . S
H2174 C2180 0.949 . S
C2175 H2170 0.950 . S
C2175 C2177 1.327 . S
C2175 C2181 1.429 1_545 S
C2176 C2168 1.574 . S
C2176 H2171 0.949 . S
C2176 C2182 1.368 . S
C2177 C2161 1.349 1_545 S
C2177 H2169 0.950 . S
C2177 C2175 1.327 . S
C2178 C2166 1.349 . S
C2178 H2172 0.950 . S
C2178 C2179 1.327 . S
C2179 H2173 0.950 . S
C2179 C2178 1.327 . S
C2179 C2183 1.429 . S
C2180 C2163 1.574 . S
C2180 H2174 0.949 . S
C2180 C2184 1.368 1_545 S
C2181 C2162 1.429 . S
C2181 C2175 1.429 1_565 S
C2181 C2182 1.523 . S
C2182 C2163 1.368 1_565 S
C2182 C2176 1.368 . S
C2182 C2181 1.523 . S
C2183 C2167 1.429 1_565 S
C2183 C2179 1.429 . S
C2183 C2184 1.523 . S
C2184 C2168 1.368 . S
C2184 C2180 1.368 1_565 S
C2184 C2183 1.523 . S
H2185 C2160 0.950 . S
H2186 C2162 0.950 . S
H2187 C2163 0.949 . S
H2188 C2165 0.950 . S
H2189 C2167 0.950 . S
C2190 C2191 1.349 . S
C2190 C2192 1.327 . S
C2190 H2215 0.950 . S
C2191 C2190 1.349 . S
C2191 C2207 1.349 . S
C2192 C2190 1.327 . S
C2192 C2211 1.429 . S
C2192 H2216 0.950 . S
C2193 C2210 1.574 . S
C2193 C2212 1.368 . S
C2193 H2217 0.949 . S
H2194 C2198 0.949 . S
C2195 C2196 1.349 . S
C2195 C2197 1.327 . S
C2195 H2218 0.950 . S
C2196 C2195 1.349 . S
C2196 C2208 1.349 . S
C2197 C2195 1.327 . S
C2197 C2213 1.429 . S
C2197 H2219 0.950 . S
C2198 H2194 0.949 . S
C2198 C2206 1.574 . S
C2198 C2214 1.368 . S
H2199 C2207 0.950 . S
H2200 C2205 0.950 . S
H2201 C2206 0.949 . S
H2202 C2208 0.950 . S
H2203 C2209 0.950 . S
H2204 C2210 0.949 . S
C2205 H2200 0.950 . S
C2205 C2207 1.327 . S
C2205 C2211 1.429 . S
C2206 C2198 1.574 . S
C2206 H2201 0.949 . S
C2206 C2212 1.368 . S
C2207 C2191 1.349 . S
C2207 H2199 0.950 . S
C2207 C2205 1.327 . S
C2208 C2196 1.349 . S
C2208 H2202 0.950 . S
C2208 C2209 1.327 . S
C2209 H2203 0.950 . S
C2209 C2208 1.327 . S
C2209 C2213 1.429 . S
C2210 C2193 1.574 . S
C2210 H2204 0.949 . S
C2210 C2214 1.368 . S
C2211 C2192 1.429 . S
C2211 C2205 1.429 . S
C2211 C2212 1.523 . S
C2212 C2193 1.368 . S
C2212 C2206 1.368 . S
C2212 C2211 1.523 . S
C2213 C2197 1.429 . S
C2213 C2209 1.429 . S
C2213 C2214 1.523 . S
C2214 C2198 1.368 . S
C2214 C2210 1.368 . S
C2214 C2213 1.523 . S
H2215 C2190 0.950 . S
H2216 C2192 0.950 . S
H2217 C2193 0.949 . S
H2218 C2195 0.950 . S
H2219 C2197 0.950 . S
C2220 C2221 1.349 . S
C2220 C2222 1.327 . S
C2220 H2245 0.950 . S
C2221 C2220 1.349 . S
C2221 C2237 1.349 . S
C2222 C2220 1.327 . S
C2222 C2241 1.429 . S
C2222 H2246 0.950 . S
C2223 C2240 1.574 . S
C2223 C2242 1.368 . S
C2223 H2247 0.949 . S
H2224 C2228 0.949 . S
C2225 C2226 1.349 . S
C2225 C2227 1.327 . S
C2225 H2248 0.950 . S
C2226 C2225 1.349 . S
C2226 C2238 1.349 . S
C2227 C2225 1.327 . S
C2227 C2243 1.429 . S
C2227 H2249 0.950 . S
C2228 H2224 0.949 . S
C2228 C2236 1.574 . S
C2228 C2244 1.368 . S
H2229 C2237 0.950 . S
H2230 C2235 0.950 . S
H2231 C2236 0.949 . S
H2232 C2238 0.950 . S
H2233 C2239 0.950 . S
H2234 C2240 0.949 . S
C2235 H2230 0.950 . S
C2235 C2237 1.327 . S
C2235 C2241 1.429 . S
C2236 C2228 1.574 . S
C2236 H2231 0.949 . S
C2236 C2242 1.368 . S
C2237 C2221 1.349 . S
C2237 H2229 0.950 . S
C2237 C2235 1.327 . S
C2238 C2226 1.349 . S
C2238 H2232 0.950 . S
C2238 C2239 1.327 . S
C2239 H2233 0.950 . S
C2239 C2238 1.327 . S
C2239 C2243 1.429 . S
C2240 C2223 1.574 . S
C2240 H2234 0.949 . S
C2240 C2244 1.368 . S
C2241 C2222 1.429 . S
C2241 C2235 1.429 . S
C2241 C2242 1.523 . S
C2242 C2223 1.368 . S
C2242 C2236 1.368 . S
C2242 C2241 1.523 . S
C2243 C2227 1.429 . S
C2243 C2239 1.429 . S
C2243 C2244 1.523 . S
C2244 C2228 1.368 . S
C2244 C2240 1.368 . S
C2244 C2243 1.523 . S
H2245 C2220 0.950 . S
H2246 C2222 0.950 . S
H2247 C2223 0.949 . S
H2248 C2225 0.950 . S
H2249 C2227 0.950 . S
C2250 C2251 1.349 . S
C2250 C2252 1.327 . S
C2250 H2275 0.950 . S
C2251 C2250 1.349 . S
C2251 C2267 1.349 . S
C2252 C2250 1.327 . S
C2252 C2271 1.429 . S
C2252 H2276 0.950 . S
C2253 C2270 1.574 . S
C2253 C2272 1.368 1_565 S
C2253 H2277 0.949 . S
H2254 C2258 0.949 . S
C2255 C2256 1.349 . S
C2255 C2257 1.327 . S
C2255 H2278 0.950 . S
C2256 C2255 1.349 . S
C2256 C2268 1.349 . S
C2257 C2255 1.327 . S
C2257 C2273 1.429 . S
C2257 H2279 0.950 . S
C2258 H2254 0.949 . S
C2258 C2266 1.574 . S
C2258 C2274 1.368 1_545 S
H2259 C2267 0.950 1_565 S
H2260 C2265 0.950 . S
H2261 C2266 0.949 . S
H2262 C2268 0.950 1_545 S
H2263 C2269 0.950 . S
H2264 C2270 0.949 . S
C2265 H2260 0.950 . S
C2265 C2267 1.327 1_565 S
C2265 C2271 1.429 1_565 S
C2266 C2258 1.574 . S
C2266 H2261 0.949 . S
C2266 C2272 1.368 . S
C2267 C2251 1.349 . S
C2267 H2259 0.950 1_545 S
C2267 C2265 1.327 1_545 S
C2268 C2256 1.349 . S
C2268 H2262 0.950 1_565 S
C2268 C2269 1.327 1_565 S
C2269 H2263 0.950 . S
C2269 C2268 1.327 1_545 S
C2269 C2273 1.429 1_545 S
C2270 C2253 1.574 . S
C2270 H2264 0.949 . S
C2270 C2274 1.368 . S
C2271 C2252 1.429 . S
C2271 C2265 1.429 1_545 S
C2271 C2272 1.523 . S
C2272 C2253 1.368 1_545 S
C2272 C2266 1.368 . S
C2272 C2271 1.523 . S
C2273 C2257 1.429 . S
C2273 C2269 1.429 1_565 S
C2273 C2274 1.523 . S
C2274 C2258 1.368 1_565 S
C2274 C2270 1.368 . S
C2274 C2273 1.523 . S
H2275 C2250 0.950 . S
H2276 C2252 0.950 . S
H2277 C2253 0.949 . S
H2278 C2255 0.950 . S
H2279 C2257 0.950 . S
C2280 C2281 1.349 . S
C2280 C2282 1.327 . S
C2280 H2305 0.950 . S
C2281 C2280 1.349 . S
C2281 C2297 1.349 1_545 S
C2282 C2280 1.327 . S
C2282 C2301 1.429 . S
C2282 H2306 0.950 . S
C2283 C2300 1.574 1_554 S
C2283 C2302 1.368 1_565 S
C2283 H2307 0.949 . S
H2284 C2288 0.949 . S
C2285 C2286 1.349 1_565 S
C2285 C2287 1.327 . S
C2285 H2308 0.950 . S
C2286 C2285 1.349 1_545 S
C2286 C2298 1.349 . S
C2287 C2285 1.327 . S
C2287 C2303 1.429 1_565 S
C2287 H2309 0.950 . S
C2288 H2284 0.949 . S
C2288 C2296 1.574 1_556 S
C2288 C2304 1.368 . S
H2289 C2297 0.950 . S
H2290 C2295 0.950 . S
H2291 C2296 0.949 . S
H2292 C2298 0.950 . S
H2293 C2299 0.950 . S
H2294 C2300 0.949 . S
C2295 H2290 0.950 . S
C2295 C2297 1.327 . S
C2295 C2301 1.429 1_565 S
C2296 C2288 1.574 1_554 S
C2296 H2291 0.949 . S
C2296 C2302 1.368 . S
C2297 C2281 1.349 1_565 S
C2297 H2289 0.950 . S
C2297 C2295 1.327 . S
C2298 C2286 1.349 . S
C2298 H2292 0.950 . S
C2298 C2299 1.327 . S
C2299 H2293 0.950 . S
C2299 C2298 1.327 . S
C2299 C2303 1.429 . S
C2300 C2283 1.574 1_556 S
C2300 H2294 0.949 . S
C2300 C2304 1.368 1_565 S
C2301 C2282 1.429 . S
C2301 C2295 1.429 1_545 S
C2301 C2302 1.523 . S
C2302 C2283 1.368 1_545 S
C2302 C2296 1.368 . S
C2302 C2301 1.523 . S
C2303 C2287 1.429 1_545 S
C2303 C2299 1.429 . S
C2303 C2304 1.523 . S
C2304 C2288 1.368 . S
C2304 C2300 1.368 1_545 S
C2304 C2303 1.523 . S
H2305 C2280 0.950 . S
H2306 C2282 0.950 . S
H2307 C2283 0.949 . S
H2308 C2285 0.950 . S
H2309 C2287 0.950 . S
C2310 C2311 1.349 . S
C2310 C2312 1.327 . S
C2310 H2335 0.950 . S
C2311 C2310 1.349 . S
C2311 C2327 1.349 . S
C2312 C2310 1.327 . S
C2312 C2331 1.429 . S
C2312 H2336 0.950 . S
C2313 C2330 1.574 . S
C2313 C2332 1.368 . S
C2313 H2337 0.949 . S
H2314 C2318 0.949 . S
C2315 C2316 1.349 . S
C2315 C2317 1.327 . S
C2315 H2338 0.950 . S
C2316 C2315 1.349 . S
C2316 C2328 1.349 . S
C2317 C2315 1.327 . S
C2317 C2333 1.429 . S
C2317 H2339 0.950 . S
C2318 H2314 0.949 . S
C2318 C2326 1.574 . S
C2318 C2334 1.368 . S
H2319 C2327 0.950 . S
H2320 C2325 0.950 . S
H2321 C2326 0.949 . S
H2322 C2328 0.950 . S
H2323 C2329 0.950 . S
H2324 C2330 0.949 . S
C2325 H2320 0.950 . S
C2325 C2327 1.327 . S
C2325 C2331 1.429 . S
C2326 C2318 1.574 . S
C2326 H2321 0.949 . S
C2326 C2332 1.368 . S
C2327 C2311 1.349 . S
C2327 H2319 0.950 . S
C2327 C2325 1.327 . S
C2328 C2316 1.349 . S
C2328 H2322 0.950 . S
C2328 C2329 1.327 . S
C2329 H2323 0.950 . S
C2329 C2328 1.327 . S
C2329 C2333 1.429 . S
C2330 C2313 1.574 . S
C2330 H2324 0.949 . S
C2330 C2334 1.368 . S
C2331 C2312 1.429 . S
C2331 C2325 1.429 . S
C2331 C2332 1.523 . S
C2332 C2313 1.368 . S
C2332 C2326 1.368 . S
C2332 C2331 1.523 . S
C2333 C2317 1.429 . S
C2333 C2329 1.429 . S
C2333 C2334 1.523 . S
C2334 C2318 1.368 . S
C2334 C2330 1.368 . S
C2334 C2333 1.523 . S
H2335 C2310 0.950 . S
H2336 C2312 0.950 . S
H2337 C2313 0.949 . S
H2338 C2315 0.950 . S
H2339 C2317 0.950 . S
C2340 C2341 1.349 . S
C2340 C2342 1.327 . S
C2340 H2365 0.950 . S
C2341 C2340 1.349 . S
C2341 C2357 1.349 . S
C2342 C2340 1.327 . S
C2342 C2361 1.429 . S
C2342 H2366 0.950 . S
C2343 C2360 1.574 1_554 S
C2343 C2362 1.368 . S
C2343 H2367 0.949 . S
H2344 C2348 0.949 . S
C2345 C2346 1.349 . S
C2345 C2347 1.327 . S
C2345 H2368 0.950 . S
C2346 C2345 1.349 . S
C2346 C2358 1.349 . S
C2347 C2345 1.327 . S
C2347 C2363 1.429 . S
C2347 H2369 0.950 . S
C2348 H2344 0.949 . S
C2348 C2356 1.574 1_556 S
C2348 C2364 1.368 . S
H2349 C2357 0.950 . S
H2350 C2355 0.950 . S
H2351 C2356 0.949 . S
H2352 C2358 0.950 . S
H2353 C2359 0.950 . S
H2354 C2360 0.949 . S
C2355 H2350 0.950 . S
C2355 C2357 1.327 . S
C2355 C2361 1.429 . S
C2356 C2348 1.574 1_554 S
C2356 H2351 0.949 . S
C2356 C2362 1.368 . S
C2357 C2341 1.349 . S
C2357 H2349 0.950 . S
C2357 C2355 1.327 . S
C2358 C2346 1.349 . S
C2358 H2352 0.950 . S
C2358 C2359 1.327 . S
C2359 H2353 0.950 . S
C2359 C2358 1.327 . S
C2359 C2363 1.429 . S
C2360 C2343 1.574 1_556 S
C2360 H2354 0.949 . S
C2360 C2364 1.368 . S
C2361 C2342 1.429 . S
C2361 C2355 1.429 . S
C2361 C2362 1.523 . S
C2362 C2343 1.368 . S
C2362 C2356 1.368 . S
C2362 C2361 1.523 . S
C2363 C2347 1.429 . S
C2363 C2359 1.429 . S
C2363 C2364 1.523 . S
C2364 C2348 1.368 . S
C2364 C2360 1.368 . S
C2364 C2363 1.523 . S
H2365 C2340 0.950 . S
H2366 C2342 0.950 . S
H2367 C2343 0.949 . S
H2368 C2345 0.950 . S
H2369 C2347 0.950 . S
C2370 C2371 1.349 . S
C2370 C2372 1.327 . S
C2370 H2395 0.960 . S
C2371 C2370 1.349 . S
C2371 C2387 1.349 . S
C2372 C2370 1.327 . S
C2372 C2391 1.429 . S
C2372 H2396 0.950 1_545 S
C2373 C2390 1.574 . S
C2373 C2392 1.368 . S
C2373 H2397 0.949 . S
H2374 C2378 0.949 . S
C2375 C2376 1.349 . S
C2375 C2377 1.327 . S
C2375 H2398 0.960 . S
C2376 C2375 1.349 . S
C2376 C2388 1.349 . S
C2377 C2375 1.327 . S
C2377 C2393 1.429 . S
C2377 H2399 0.950 1_565 S
C2378 H2374 0.949 . S
C2378 C2386 1.574 . S
C2378 C2394 1.368 . S
H2379 C2387 0.950 . S
H2380 C2385 0.950 . S
H2381 C2386 0.949 . S
H2382 C2388 0.950 . S
H2383 C2389 0.950 . S
H2384 C2390 0.949 . S
C2385 H2380 0.950 . S
C2385 C2387 1.327 . S
C2385 C2391 1.429 . S
C2386 C2378 1.574 . S
C2386 H2381 0.949 . S
C2386 C2392 1.368 1_565 S
C2387 C2371 1.349 . S
C2387 H2379 0.950 . S
C2387 C2385 1.327 . S
C2388 C2376 1.349 . S
C2388 H2382 0.950 . S
C2388 C2389 1.327 . S
C2389 H2383 0.950 . S
C2389 C2388 1.327 . S
C2389 C2393 1.429 . S
C2390 C2373 1.574 . S
C2390 H2384 0.949 . S
C2390 C2394 1.368 1_545 S
C2391 C2372 1.429 . S
C2391 C2385 1.429 . S
C2391 C2392 1.523 . S
C2392 C2373 1.368 . S
C2392 C2386 1.368 1_545 S
C2392 C2391 1.523 . S
C2393 C2377 1.429 . S
C2393 C2389 1.429 . S
C2393 C2394 1.523 . S
C2394 C2378 1.368 . S
C2394 C2390 1.368 1_565 S
C2394 C2393 1.523 . S
H2395 C2370 0.960 . S
H2396 C2372 0.950 1_565 S
H2397 C2373 0.949 . S
H2398 C2375 0.960 . S
H2399 C2377 0.950 1_545 S
C2400 C2401 1.349 1_554 S
C2400 C2402 1.327 . S
C2400 H2425 0.950 . S
C2401 C2400 1.349 1_556 S
C2401 C2417 1.349 . S
C2402 C2400 1.327 . S
C2402 C2421 1.429 1_554 S
C2402 H2426 0.950 . S
C2403 C2420 1.574 . S
C2403 C2422 1.368 . S
C2403 H2427 0.949 . S
H2404 C2408 0.949 . S
C2405 C2406 1.349 . S
C2405 C2407 1.327 . S
C2405 H2428 0.950 . S
C2406 C2405 1.349 . S
C2406 C2418 1.349 1_556 S
C2407 C2405 1.327 . S
C2407 C2423 1.429 . S
C2407 H2429 0.950 . S
C2408 H2404 0.949 . S
C2408 C2416 1.574 . S
C2408 C2424 1.368 1_554 S
H2409 C2417 0.950 . S
H2410 C2415 0.950 . S
H2411 C2416 0.949 . S
H2412 C2418 0.950 . S
H2413 C2419 0.950 . S
H2414 C2420 0.949 . S
C2415 H2410 0.950 . S
C2415 C2417 1.327 . S
C2415 C2421 1.429 . S
C2416 C2408 1.574 . S
C2416 H2411 0.949 . S
C2416 C2422 1.368 1_554 S
C2417 C2401 1.349 . S
C2417 H2409 0.950 . S
C2417 C2415 1.327 . S
C2418 C2406 1.349 1_554 S
C2418 H2412 0.950 . S
C2418 C2419 1.327 . S
C2419 H2413 0.950 . S
C2419 C2418 1.327 . S
C2419 C2423 1.429 1_554 S
C2420 C2403 1.574 . S
C2420 H2414 0.949 . S
C2420 C2424 1.368 . S
C2421 C2402 1.429 1_556 S
C2421 C2415 1.429 . S
C2421 C2422 1.523 . S
C2422 C2403 1.368 . S
C2422 C2416 1.368 1_556 S
C2422 C2421 1.523 . S
C2423 C2407 1.429 . S
C2423 C2419 1.429 1_556 S
C2423 C2424 1.523 . S
C2424 C2408 1.368 1_556 S
C2424 C2420 1.368 . S
C2424 C2423 1.523 . S
H2425 C2400 0.950 . S
H2426 C2402 0.950 . S
H2427 C2403 0.949 . S
H2428 C2405 0.950 . S
H2429 C2407 0.950 . S
C2430 C2431 1.349 . S
C2430 C2432 1.327 . S
C2430 H2455 0.950 . S
C2431 C2430 1.349 . S
C2431 C2447 1.349 . S
C2432 C2430 1.327 . S
C2432 C2451 1.429 . S
C2432 H2456 0.950 . S
C2433 C2450 1.574 . S
C2433 C2452 1.368 . S
C2433 H2457 0.949 . S
H2434 C2438 0.949 . S
C2435 C2436 1.349 . S
C2435 C2437 1.327 . S
C2435 H2458 0.950 . S
C2436 C2435 1.349 . S
C2436 C2448 1.349 . S
C2437 C2435 1.327 . S
C2437 C2453 1.429 . S
C2437 H2459 0.950 . S
C2438 H2434 0.949 . S
C2438 C2446 1.574 . S
C2438 C2454 1.368 . S
H2439 C2447 0.950 . S
H2440 C2445 0.950 . S
H2441 C2446 0.949 . S
H2442 C2448 0.950 . S
H2443 C2449 0.950 . S
H2444 C2450 0.949 . S
C2445 H2440 0.950 . S
C2445 C2447 1.327 . S
C2445 C2451 1.429 . S
C2446 C2438 1.574 . S
C2446 H2441 0.949 . S
C2446 C2452 1.368 . S
C2447 C2431 1.349 . S
C2447 H2439 0.950 . S
C2447 C2445 1.327 . S
C2448 C2436 1.349 . S
C2448 H2442 0.950 . S
C2448 C2449 1.327 . S
C2449 H2443 0.950 . S
C2449 C2448 1.327 . S
C2449 C2453 1.429 . S
C2450 C2433 1.574 . S
C2450 H2444 0.949 . S
C2450 C2454 1.368 . S
C2451 C2432 1.429 . S
C2451 C2445 1.429 . S
C2451 C2452 1.523 . S
C2452 C2433 1.368 . S
C2452 C2446 1.368 . S
C2452 C2451 1.523 . S
C2453 C2437 1.429 . S
C2453 C2449 1.429 . S
C2453 C2454 1.523 . S
C2454 C2438 1.368 . S
C2454 C2450 1.368 . S
C2454 C2453 1.523 . S
H2455 C2430 0.950 . S
H2456 C2432 0.950 . S
H2457 C2433 0.949 . S
H2458 C2435 0.950 . S
H2459 C2437 0.950 . S
C2460 C2461 1.349 . S
C2460 C2462 1.327 . S
C2460 H2485 0.950 . S
C2461 C2460 1.349 . S
C2461 C2477 1.349 . S
C2462 C2460 1.327 . S
C2462 C2481 1.429 . S
C2462 H2486 0.950 . S
C2463 C2480 1.574 . S
C2463 C2482 1.368 1_455 S
C2463 H2487 0.949 . S
H2464 C2468 0.949 . S
C2465 C2466 1.349 . S
C2465 C2467 1.327 . S
C2465 H2488 0.950 . S
C2466 C2465 1.349 . S
C2466 C2478 1.349 . S
C2467 C2465 1.327 . S
C2467 C2483 1.429 . S
C2467 H2489 0.950 . S
C2468 H2464 0.949 . S
C2468 C2476 1.574 . S
C2468 C2484 1.368 1_655 S
H2469 C2477 0.950 . S
H2470 C2475 0.950 1_455 S
H2471 C2476 0.949 . S
H2472 C2478 0.950 . S
H2473 C2479 0.950 1_655 S
H2474 C2480 0.949 . S
C2475 H2470 0.950 1_655 S
C2475 C2477 1.327 . S
C2475 C2481 1.429 . S
C2476 C2468 1.574 . S
C2476 H2471 0.949 . S
C2476 C2482 1.368 . S
C2477 C2461 1.349 . S
C2477 H2469 0.950 . S
C2477 C2475 1.327 . S
C2478 C2466 1.349 . S
C2478 H2472 0.950 . S
C2478 C2479 1.327 . S
C2479 H2473 0.950 1_455 S
C2479 C2478 1.327 . S
C2479 C2483 1.429 . S
C2480 C2463 1.574 . S
C2480 H2474 0.949 . S
C2480 C2484 1.368 . S
C2481 C2462 1.429 . S
C2481 C2475 1.429 . S
C2481 C2482 1.523 . S
C2482 C2463 1.368 1_655 S
C2482 C2476 1.368 . S
C2482 C2481 1.523 . S
C2483 C2467 1.429 . S
C2483 C2479 1.429 . S
C2483 C2484 1.523 . S
C2484 C2468 1.368 1_455 S
C2484 C2480 1.368 . S
C2484 C2483 1.523 . S
H2485 C2460 0.950 . S
H2486 C2462 0.950 . S
H2487 C2463 0.949 . S
H2488 C2465 0.950 . S
H2489 C2467 0.950 . S
C2490 C2491 1.349 . S
C2490 C2492 1.327 . S
C2490 H2515 0.950 . S
C2491 C2490 1.349 . S
C2491 C2507 1.349 . S
C2492 C2490 1.327 . S
C2492 C2511 1.429 . S
C2492 H2516 0.950 . S
C2493 C2510 1.574 . S
C2493 C2512 1.368 . S
C2493 H2517 0.949 . S
H2494 C2498 0.949 . S
C2495 C2496 1.349 . S
C2495 C2497 1.327 . S
C2495 H2518 0.950 . S
C2496 C2495 1.349 . S
C2496 C2508 1.349 . S
C2497 C2495 1.327 . S
C2497 C2513 1.429 . S
C2497 H2519 0.950 . S
C2498 H2494 0.949 . S
C2498 C2506 1.574 . S
C2498 C2514 1.368 . S
H2499 C2507 0.950 . S
H2500 C2505 0.950 . S
H2501 C2506 0.949 . S
H2502 C2508 0.950 . S
H2503 C2509 0.950 . S
H2504 C2510 0.949 . S
C2505 H2500 0.950 . S
C2505 C2507 1.327 . S
C2505 C2511 1.429 . S
C2506 C2498 1.574 . S
C2506 H2501 0.949 . S
C2506 C2512 1.368 . S
C2507 C2491 1.349 . S
C2507 H2499 0.950 . S
C2507 C2505 1.327 . S
C2508 C2496 1.349 . S
C2508 H2502 0.950 . S
C2508 C2509 1.327 . S
C2509 H2503 0.950 . S
C2509 C2508 1.327 . S
C2509 C2513 1.429 . S
C2510 C2493 1.574 . S
C2510 H2504 0.949 . S
C2510 C2514 1.368 . S
C2511 C2492 1.429 . S
C2511 C2505 1.429 . S
C2511 C2512 1.523 . S
C2512 C2493 1.368 . S
C2512 C2506 1.368 . S
C2512 C2511 1.523 . S
C2513 C2497 1.429 . S
C2513 C2509 1.429 . S
C2513 C2514 1.523 . S
C2514 C2498 1.368 . S
C2514 C2510 1.368 . S
C2514 C2513 1.523 . S
H2515 C2490 0.950 . S
H2516 C2492 0.950 . S
H2517 C2493 0.949 . S
H2518 C2495 0.950 . S
H2519 C2497 0.950 . S
C2520 C2521 1.349 . S
C2520 C2522 1.327 . S
C2520 H2545 0.950 . S
C2521 C2520 1.349 . S
C2521 C2537 1.349 . S
C2522 C2520 1.327 . S
C2522 C2541 1.429 . S
C2522 H2546 0.950 . S
C2523 C2540 1.574 1_655 S
C2523 C2542 1.368 . S
C2523 H2547 0.949 . S
H2524 C2528 0.949 . S
C2525 C2526 1.349 . S
C2525 C2527 1.327 . S
C2525 H2548 0.950 . S
C2526 C2525 1.349 . S
C2526 C2538 1.349 . S
C2527 C2525 1.327 . S
C2527 C2543 1.429 . S
C2527 H2549 0.950 . S
C2528 H2524 0.949 . S
C2528 C2536 1.574 1_455 S
C2528 C2544 1.368 . S
H2529 C2537 0.950 . S
H2530 C2535 0.950 . S
H2531 C2536 0.949 . S
H2532 C2538 0.950 . S
H2533 C2539 0.950 . S
H2534 C2540 0.949 . S
C2535 H2530 0.950 . S
C2535 C2537 1.327 . S
C2535 C2541 1.429 . S
C2536 C2528 1.574 1_655 S
C2536 H2531 0.949 . S
C2536 C2542 1.368 . S
C2537 C2521 1.349 . S
C2537 H2529 0.950 . S
C2537 C2535 1.327 . S
C2538 C2526 1.349 . S
C2538 H2532 0.950 . S
C2538 C2539 1.327 . S
C2539 H2533 0.950 . S
C2539 C2538 1.327 . S
C2539 C2543 1.429 . S
C2540 C2523 1.574 1_455 S
C2540 H2534 0.949 . S
C2540 C2544 1.368 . S
C2541 C2522 1.429 . S
C2541 C2535 1.429 . S
C2541 C2542 1.523 . S
C2542 C2523 1.368 . S
C2542 C2536 1.368 . S
C2542 C2541 1.523 . S
C2543 C2527 1.429 . S
C2543 C2539 1.429 . S
C2543 C2544 1.523 . S
C2544 C2528 1.368 . S
C2544 C2540 1.368 . S
C2544 C2543 1.523 . S
H2545 C2520 0.950 . S
H2546 C2522 0.950 . S
H2547 C2523 0.949 . S
H2548 C2525 0.950 . S
H2549 C2527 0.950 . S
C2550 C2551 1.349 . S
C2550 C2552 1.327 . S
C2550 H2575 0.950 . S
C2551 C2550 1.349 . S
C2551 C2567 1.349 . S
C2552 C2550 1.327 . S
C2552 C2571 1.429 . S
C2552 H2576 0.950 . S
C2553 C2570 1.574 . S
C2553 C2572 1.368 1_655 S
C2553 H2577 0.949 . S
H2554 C2558 0.949 . S
C2555 C2556 1.349 . S
C2555 C2557 1.327 . S
C2555 H2578 0.950 . S
C2556 C2555 1.349 . S
C2556 C2568 1.349 . S
C2557 C2555 1.327 . S
C2557 C2573 1.429 . S
C2557 H2579 0.950 . S
C2558 H2554 0.949 . S
C2558 C2566 1.574 . S
C2558 C2574 1.368 1_455 S
H2559 C2567 0.950 . S
H2560 C2565 0.950 1_655 S
H2561 C2566 0.949 . S
H2562 C2568 0.950 . S
H2563 C2569 0.950 1_455 S
H2564 C2570 0.949 . S
C2565 H2560 0.950 1_455 S
C2565 C2567 1.327 . S
C2565 C2571 1.429 . S
C2566 C2558 1.574 . S
C2566 H2561 0.949 . S
C2566 C2572 1.368 . S
C2567 C2551 1.349 . S
C2567 H2559 0.950 . S
C2567 C2565 1.327 . S
C2568 C2556 1.349 . S
C2568 H2562 0.950 . S
C2568 C2569 1.327 . S
C2569 H2563 0.950 1_655 S
C2569 C2568 1.327 . S
C2569 C2573 1.429 . S
C2570 C2553 1.574 . S
C2570 H2564 0.949 . S
C2570 C2574 1.368 . S
C2571 C2552 1.429 . S
C2571 C2565 1.429 . S
C2571 C2572 1.523 . S
C2572 C2553 1.368 1_455 S
C2572 C2566 1.368 . S
C2572 C2571 1.523 . S
C2573 C2557 1.429 . S
C2573 C2569 1.429 . S
C2573 C2574 1.523 . S
C2574 C2558 1.368 1_655 S
C2574 C2570 1.368 . S
C2574 C2573 1.523 . S
H2575 C2550 0.950 . S
H2576 C2552 0.950 . S
H2577 C2553 0.949 . S
H2578 C2555 0.950 . S
H2579 C2557 0.950 . S
C2580 C2581 1.349 . S
C2580 C2582 1.327 . S
C2580 H2605 0.950 . S
C2581 C2580 1.349 . S
C2581 C2597 1.349 . S
C2582 C2580 1.327 . S
C2582 C2601 1.429 . S
C2582 H2606 0.950 . S
C2583 C2600 1.574 1_545 S
C2583 C2602 1.368 . S
C2583 H2607 0.949 . S
H2584 C2588 0.949 . S
C2585 C2586 1.349 . S
C2585 C2587 1.327 . S
C2585 H2608 0.950 . S
C2586 C2585 1.349 . S
C2586 C2598 1.349 . S
C2587 C2585 1.327 . S
C2587 C2603 1.429 . S
C2587 H2609 0.950 . S
C2588 H2584 0.949 . S
C2588 C2596 1.574 1_565 S
C2588 C2604 1.368 . S
H2589 C2597 0.950 . S
H2590 C2595 0.950 . S
H2591 C2596 0.949 . S
H2592 C2598 0.950 . S
H2593 C2599 0.950 . S
H2594 C2600 0.949 . S
C2595 H2590 0.950 . S
C2595 C2597 1.327 . S
C2595 C2601 1.429 . S
C2596 C2588 1.574 1_545 S
C2596 H2591 0.949 . S
C2596 C2602 1.368 . S
C2597 C2581 1.349 . S
C2597 H2589 0.950 . S
C2597 C2595 1.327 . S
C2598 C2586 1.349 . S
C2598 H2592 0.950 . S
C2598 C2599 1.327 . S
C2599 H2593 0.950 . S
C2599 C2598 1.327 . S
C2599 C2603 1.429 . S
C2600 C2583 1.574 1_565 S
C2600 H2594 0.949 . S
C2600 C2604 1.368 . S
C2601 C2582 1.429 . S
C2601 C2595 1.429 . S
C2601 C2602 1.523 . S
C2602 C2583 1.368 . S
C2602 C2596 1.368 . S
C2602 C2601 1.523 . S
C2603 C2587 1.429 . S
C2603 C2599 1.429 . S
C2603 C2604 1.523 . S
C2604 C2588 1.368 . S
C2604 C2600 1.368 . S
C2604 C2603 1.523 . S
H2605 C2580 0.950 . S
H2606 C2582 0.950 . S
H2607 C2583 0.949 . S
H2608 C2585 0.950 . S
H2609 C2587 0.950 . S
C2610 C2611 1.349 . S
C2610 C2612 1.327 . S
C2610 H2635 0.950 . S
C2611 C2610 1.349 . S
C2611 C2627 1.349 . S
C2612 C2610 1.327 . S
C2612 C2631 1.429 . S
C2612 H2636 0.950 . S
C2613 C2630 1.574 . S
C2613 C2632 1.368 . S
C2613 H2637 0.949 . S
H2614 C2618 0.949 . S
C2615 C2616 1.349 . S
C2615 C2617 1.327 . S
C2615 H2638 0.950 . S
C2616 C2615 1.349 . S
C2616 C2628 1.349 . S
C2617 C2615 1.327 . S
C2617 C2633 1.429 . S
C2617 H2639 0.950 . S
C2618 H2614 0.949 . S
C2618 C2626 1.574 . S
C2618 C2634 1.368 . S
H2619 C2627 0.950 . S
H2620 C2625 0.950 . S
H2621 C2626 0.949 . S
H2622 C2628 0.950 . S
H2623 C2629 0.950 . S
H2624 C2630 0.949 . S
C2625 H2620 0.950 . S
C2625 C2627 1.327 . S
C2625 C2631 1.429 . S
C2626 C2618 1.574 . S
C2626 H2621 0.949 . S
C2626 C2632 1.368 . S
C2627 C2611 1.349 . S
C2627 H2619 0.950 . S
C2627 C2625 1.327 . S
C2628 C2616 1.349 . S
C2628 H2622 0.950 . S
C2628 C2629 1.327 . S
C2629 H2623 0.950 . S
C2629 C2628 1.327 . S
C2629 C2633 1.429 . S
C2630 C2613 1.574 . S
C2630 H2624 0.949 . S
C2630 C2634 1.368 . S
C2631 C2612 1.429 . S
C2631 C2625 1.429 . S
C2631 C2632 1.523 . S
C2632 C2613 1.368 . S
C2632 C2626 1.368 . S
C2632 C2631 1.523 . S
C2633 C2617 1.429 . S
C2633 C2629 1.429 . S
C2633 C2634 1.523 . S
C2634 C2618 1.368 . S
C2634 C2630 1.368 . S
C2634 C2633 1.523 . S
H2635 C2610 0.950 . S
H2636 C2612 0.950 . S
H2637 C2613 0.949 . S
H2638 C2615 0.950 . S
H2639 C2617 0.950 . S
C2640 C2641 1.349 . S
C2640 C2642 1.327 . S
C2640 H2665 0.950 . S
C2641 C2640 1.349 . S
C2641 C2657 1.349 . S
C2642 C2640 1.327 . S
C2642 C2661 1.429 . S
C2642 H2666 0.950 . S
C2643 C2660 1.574 . S
C2643 C2662 1.368 . S
C2643 H2667 0.949 . S
H2644 C2648 0.949 . S
C2645 C2646 1.349 . S
C2645 C2647 1.327 . S
C2645 H2668 0.950 . S
C2646 C2645 1.349 . S
C2646 C2658 1.349 . S
C2647 C2645 1.327 . S
C2647 C2663 1.429 . S
C2647 H2669 0.950 . S
C2648 H2644 0.949 . S
C2648 C2656 1.574 . S
C2648 C2664 1.368 . S
H2649 C2657 0.950 . S
H2650 C2655 0.950 . S
H2651 C2656 0.949 . S
H2652 C2658 0.950 . S
H2653 C2659 0.950 . S
H2654 C2660 0.949 . S
C2655 H2650 0.950 . S
C2655 C2657 1.327 . S
C2655 C2661 1.429 . S
C2656 C2648 1.574 . S
C2656 H2651 0.949 . S
C2656 C2662 1.368 . S
C2657 C2641 1.349 . S
C2657 H2649 0.950 . S
C2657 C2655 1.327 . S
C2658 C2646 1.349 . S
C2658 H2652 0.950 . S
C2658 C2659 1.327 . S
C2659 H2653 0.950 . S
C2659 C2658 1.327 . S
C2659 C2663 1.429 . S
C2660 C2643 1.574 . S
C2660 H2654 0.949 . S
C2660 C2664 1.368 . S
C2661 C2642 1.429 . S
C2661 C2655 1.429 . S
C2661 C2662 1.523 . S
C2662 C2643 1.368 . S
C2662 C2656 1.368 . S
C2662 C2661 1.523 . S
C2663 C2647 1.429 . S
C2663 C2659 1.429 . S
C2663 C2664 1.523 . S
C2664 C2648 1.368 . S
C2664 C2660 1.368 . S
C2664 C2663 1.523 . S
H2665 C2640 0.950 . S
H2666 C2642 0.950 . S
H2667 C2643 0.949 . S
H2668 C2645 0.950 . S
H2669 C2647 0.950 . S
C2670 C2671 1.349 . S
C2670 C2672 1.327 . S
C2670 H2695 0.950 . S
C2671 C2670 1.349 . S
C2671 C2687 1.349 . S
C2672 C2670 1.327 . S
C2672 C2691 1.429 . S
C2672 H2696 0.950 . S
C2673 C2690 1.574 . S
C2673 C2692 1.368 . S
C2673 H2697 0.949 . S
H2674 C2678 0.949 . S
C2675 C2676 1.349 . S
C2675 C2677 1.327 . S
C2675 H2698 0.950 . S
C2676 C2675 1.349 . S
C2676 C2688 1.349 . S
C2677 C2675 1.327 . S
C2677 C2693 1.429 . S
C2677 H2699 0.950 . S
C2678 H2674 0.949 . S
C2678 C2686 1.574 . S
C2678 C2694 1.368 . S
H2679 C2687 0.950 . S
H2680 C2685 0.950 . S
H2681 C2686 0.949 . S
H2682 C2688 0.950 . S
H2683 C2689 0.950 . S
H2684 C2690 0.949 . S
C2685 H2680 0.950 . S
C2685 C2687 1.327 . S
C2685 C2691 1.429 . S
C2686 C2678 1.574 . S
C2686 H2681 0.949 . S
C2686 C2692 1.368 . S
C2687 C2671 1.349 . S
C2687 H2679 0.950 . S
C2687 C2685 1.327 . S
C2688 C2676 1.349 . S
C2688 H2682 0.950 . S
C2688 C2689 1.327 . S
C2689 H2683 0.950 . S
C2689 C2688 1.327 . S
C2689 C2693 1.429 . S
C2690 C2673 1.574 . S
C2690 H2684 0.949 . S
C2690 C2694 1.368 . S
C2691 C2672 1.429 . S
C2691 C2685 1.429 . S
C2691 C2692 1.523 . S
C2692 C2673 1.368 . S
C2692 C2686 1.368 . S
C2692 C2691 1.523 . S
C2693 C2677 1.429 . S
C2693 C2689 1.429 . S
C2693 C2694 1.523 . S
C2694 C2678 1.368 . S
C2694 C2690 1.368 . S
C2694 C2693 1.523 . S
H2695 C2670 0.950 . S
H2696 C2672 0.950 . S
H2697 C2673 0.949 . S
H2698 C2675 0.950 . S
H2699 C2677 0.950 . S
C2700 C2701 1.349 1_556 S
C2700 C2702 1.327 . S
C2700 H2725 0.950 . S
C2701 C2700 1.349 1_554 S
C2701 C2717 1.349 . S
C2702 C2700 1.327 . S
C2702 C2721 1.429 1_556 S
C2702 H2726 0.950 . S
C2703 C2720 1.574 1_455 S
C2703 C2722 1.368 . S
C2703 H2727 0.949 . S
H2704 C2708 0.949 . S
C2705 C2706 1.349 . S
C2705 C2707 1.327 . S
C2705 H2728 0.950 . S
C2706 C2705 1.349 . S
C2706 C2718 1.349 1_554 S
C2707 C2705 1.327 . S
C2707 C2723 1.429 . S
C2707 H2729 0.950 . S
C2708 H2704 0.949 . S
C2708 C2716 1.574 1_655 S
C2708 C2724 1.368 1_556 S
H2709 C2717 0.950 . S
H2710 C2715 0.950 . S
H2711 C2716 0.949 . S
H2712 C2718 0.950 . S
H2713 C2719 0.950 . S
H2714 C2720 0.949 . S
C2715 H2710 0.950 . S
C2715 C2717 1.327 . S
C2715 C2721 1.429 . S
C2716 C2708 1.574 1_455 S
C2716 H2711 0.949 . S
C2716 C2722 1.368 1_556 S
C2717 C2701 1.349 . S
C2717 H2709 0.950 . S
C2717 C2715 1.327 . S
C2718 C2706 1.349 1_556 S
C2718 H2712 0.950 . S
C2718 C2719 1.327 . S
C2719 H2713 0.950 . S
C2719 C2718 1.327 . S
C2719 C2723 1.429 1_556 S
C2720 C2703 1.574 1_655 S
C2720 H2714 0.949 . S
C2720 C2724 1.368 . S
C2721 C2702 1.429 1_554 S
C2721 C2715 1.429 . S
C2721 C2722 1.523 . S
C2722 C2703 1.368 . S
C2722 C2716 1.368 1_554 S
C2722 C2721 1.523 . S
C2723 C2707 1.429 . S
C2723 C2719 1.429 1_554 S
C2723 C2724 1.523 . S
C2724 C2708 1.368 1_554 S
C2724 C2720 1.368 . S
C2724 C2723 1.523 . S
H2725 C2700 0.950 . S
H2726 C2702 0.950 . S
H2727 C2703 0.949 . S
H2728 C2705 0.950 . S
H2729 C2707 0.950 . S
C2730 C2731 1.349 . S
C2730 C2732 1.327 . S
C2730 H2755 0.950 . S
C2731 C2730 1.349 . S
C2731 C2747 1.349 . S
C2732 C2730 1.327 . S
C2732 C2751 1.429 . S
C2732 H2756 0.950 . S
C2733 C2750 1.574 . S
C2733 C2752 1.368 . S
C2733 H2757 0.949 . S
H2734 C2738 0.949 . S
C2735 C2736 1.349 . S
C2735 C2737 1.327 . S
C2735 H2758 0.950 . S
C2736 C2735 1.349 . S
C2736 C2748 1.349 . S
C2737 C2735 1.327 . S
C2737 C2753 1.429 . S
C2737 H2759 0.950 . S
C2738 H2734 0.949 . S
C2738 C2746 1.574 . S
C2738 C2754 1.368 . S
H2739 C2747 0.950 . S
H2740 C2745 0.950 . S
H2741 C2746 0.949 . S
H2742 C2748 0.950 . S
H2743 C2749 0.950 . S
H2744 C2750 0.949 . S
C2745 H2740 0.950 . S
C2745 C2747 1.327 . S
C2745 C2751 1.429 . S
C2746 C2738 1.574 . S
C2746 H2741 0.949 . S
C2746 C2752 1.368 . S
C2747 C2731 1.349 . S
C2747 H2739 0.950 . S
C2747 C2745 1.327 . S
C2748 C2736 1.349 . S
C2748 H2742 0.950 . S
C2748 C2749 1.327 . S
C2749 H2743 0.950 . S
C2749 C2748 1.327 . S
C2749 C2753 1.429 . S
C2750 C2733 1.574 . S
C2750 H2744 0.949 . S
C2750 C2754 1.368 . S
C2751 C2732 1.429 . S
C2751 C2745 1.429 . S
C2751 C2752 1.523 . S
C2752 C2733 1.368 . S
C2752 C2746 1.368 . S
C2752 C2751 1.523 . S
C2753 C2737 1.429 . S
C2753 C2749 1.429 . S
C2753 C2754 1.523 . S
C2754 C2738 1.368 . S
C2754 C2750 1.368 . S
C2754 C2753 1.523 . S
H2755 C2730 0.950 . S
H2756 C2732 0.950 . S
H2757 C2733 0.949 . S
H2758 C2735 0.950 . S
H2759 C2737 0.950 . S
C601 C241 0.607 . S
C606 C38 0.597 . S
C631 C296 0.607 . S
C636 C90 0.603 . S
C661 C34 0.603 . S
C666 C344 0.606 . S
C691 C192 0.607 . S
C696 C93 0.606 . S
C721 C395 0.607 . S
C726 C144 0.600 . S
C751 C134 0.603 . S
C756 C443 0.606 . S
C781 C146 0.603 . S
C786 C490 0.610 . S
C811 C547 0.607 . S
C816 C139 0.606 . S
C841 C46 0.607 . S
C846 C197 0.597 . S
C871 C95 0.607 . S
C876 C237 0.603 . S
C901 C289 0.603 . S
C906 C47 0.611 . S
C931 C94 0.607 . S
C936 C342 0.603 . S
C961 C143 0.607 . S
C966 C195 0.603 . S
C991 C238 0.603 . S
C996 C141 0.605 . S
C1021 C287 0.603 . S
C1026 C142 0.611 . S
C1051 C341 0.603 . S
C1056 C140 0.610 . S
C1081 C247 0.603 . S
C1086 C191 0.601 . S
C1111 C389 0.603 . S
C1116 C190 0.611 . S
C1141 C437 0.603 . S
C1146 C242 0.610 . S
C1171 C294 0.607 . S
C1176 C495 0.603 . S
C1201 C397 0.607 . S
C1206 C291 0.603 . S
C1231 C545 0.607 . S
C1236 C387 0.606 . S
C1261 C438 0.603 . S
C1266 C396 0.607 . S
C1291 C542 0.603 . S
C1296 C493 0.606 . S
C1321 C491 0.607 . S
C1326 C88 0.603 . S
C1351 C40 0.603 . S
C1356 C546 0.605 . S
C1381 C84 0.603 . S
C1386 C394 0.607 . S
C1411 C43 0.603 . S
C1416 C442 0.606 . S
C1441 C345 0.607 . S
C1446 C594 0.606 . S
C1471 C584 0.603 . S
C1476 C193 0.604 . S
C1501 C240 0.607 . S
C1506 C596 0.606 . S
C1531 C297 0.607 . S
C1536 C589 0.603 . S
C1561 C447 0.603 . S
C1566 C96 0.607 . S
C1591 C45 0.607 . S
C1596 C487 0.606 . S
C1621 C539 0.603 . S
C1626 C97 0.610 . S
C1651 C392 0.603 . S
C1656 C44 0.604 . S
C1681 C593 0.607 . S
C1686 C445 0.603 . S
C1711 C591 0.607 . S
C1716 C488 0.603 . S
C1741 C537 0.603 . S
C1746 C592 0.604 . S
C1771 C391 0.603 . S
C1776 C590 0.607 . S
C1801 C497 0.603 . S
C1806 C441 0.607 . S
C1831 C339 0.603 . S
C1836 C440 0.610 . S
C1861 C187 0.603 . S
C1866 C492 0.606 . S
C1891 C544 0.607 . S
C1896 C245 0.603 . S
C1921 C347 0.607 . S
C1926 C541 0.606 . S
C1951 C295 0.607 . S
C1956 C337 0.600 . S
C1981 C346 0.607 . S
C1986 C188 0.599 . S
C2011 C292 0.603 . S
C2016 C243 0.604 . S
C2041 C138 2.742 . S
C2046 C41 2.742 . S
C2071 C87 2.742 . S
C2076 C145 2.746 . S
C2101 C42 2.742 . S
C2106 C137 2.742 . S
C2131 C89 2.742 . S
C2136 C147 2.738 . S
C2161 C189 2.742 . S
C2166 C540 2.742 . S
C2191 C246 2.742 . S
C2196 C388 2.746 . S
C2221 C434 2.742 . S
C2226 C293 2.742 . S
C2251 C334 2.742 . S
C2256 C494 2.746 . S
C2281 C184 2.742 . S
C2286 C543 2.742 . S
C2311 C384 2.742 . S
C2316 C244 2.738 . S
C2341 C290 2.742 . S
C2346 C439 2.742 . S
C2371 C338 2.742 . S
C2376 C496 2.738 . S
C2401 C340 2.742 . S
C2406 C239 2.742 . S
C2431 C484 2.742 . S
C2436 C393 2.742 . S
C2461 C446 2.742 . S
C2466 C538 2.738 . S
C2491 C288 2.742 . S
C2496 C196 2.746 . S
C2521 C489 2.742 . S
C2526 C390 2.742 . S
C2551 C534 2.742 . S
C2556 C444 2.746 . S
C2581 C588 2.742 . S
C2586 C91 2.742 . S
C2611 C37 2.742 . S
C2616 C595 2.738 . S
C2641 C92 2.742 . S
C2646 C587 2.742 . S
C2671 C597 2.742 . S
C2676 C39 2.746 . S
C2701 C234 2.742 . S
C2706 C343 2.742 . S
C2731 C194 2.742 . S
C2736 C284 2.738 . S
