# Generated by pormake.
# Topology ecn, (8)-cn, num edge types: 1
# Building blocks:
#     Node 0, Type 0, BuildingBlock: TAGTUT_clean_sbu_1, # of connection points: 8
#     Node 1, Type 0, BuildingBlock: TAGTUT_clean_sbu_1, # of connection points: 8
#     Node 2, Type 0, BuildingBlock: TAGTUT_clean_sbu_1, # of connection points: 8
#     Node 3, Type 0, BuildingBlock: TAGTUT_clean_sbu_1, # of connection points: 8
#     Node 4, Type 0, BuildingBlock: TAGTUT_clean_sbu_1, # of connection points: 8
#     Node 5, Type 0, BuildingBlock: TAGTUT_clean_sbu_1, # of connection points: 8
#     Node 6, Type 0, BuildingBlock: TAGTUT_clean_sbu_1, # of connection points: 8
#     Node 7, Type 0, BuildingBlock: TAGTUT_clean_sbu_1, # of connection points: 8
#     Node 8, Type 0, BuildingBlock: TAGTUT_clean_sbu_1, # of connection points: 8
#     Edge 9, Type (0, 0), BuildingBlock: AJUNOK_clean_linker_0, # of connection points: 2
#     Edge 10, Type (0, 0), BuildingBlock: AJUNOK_clean_linker_0, # of connection points: 2
#     Edge 11, Type (0, 0), BuildingBlock: AJUNOK_clean_linker_0, # of connection points: 2
#     Edge 12, Type (0, 0), BuildingBlock: AJUNOK_clean_linker_0, # of connection points: 2
#     Edge 13, Type (0, 0), BuildingBlock: AJUNOK_clean_linker_0, # of connection points: 2
#     Edge 14, Type (0, 0), BuildingBlock: AJUNOK_clean_linker_0, # of connection points: 2
#     Edge 15, Type (0, 0), BuildingBlock: AJUNOK_clean_linker_0, # of connection points: 2
#     Edge 16, Type (0, 0), BuildingBlock: AJUNOK_clean_linker_0, # of connection points: 2
#     Edge 17, Type (0, 0), BuildingBlock: AJUNOK_clean_linker_0, # of connection points: 2
#     Edge 18, Type (0, 0), BuildingBlock: AJUNOK_clean_linker_0, # of connection points: 2
#     Edge 19, Type (0, 0), BuildingBlock: AJUNOK_clean_linker_0, # of connection points: 2
#     Edge 20, Type (0, 0), BuildingBlock: AJUNOK_clean_linker_0, # of connection points: 2
#     Edge 21, Type (0, 0), BuildingBlock: AJUNOK_clean_linker_0, # of connection points: 2
#     Edge 22, Type (0, 0), BuildingBlock: AJUNOK_clean_linker_0, # of connection points: 2
#     Edge 23, Type (0, 0), BuildingBlock: AJUNOK_clean_linker_0, # of connection points: 2
#     Edge 24, Type (0, 0), BuildingBlock: AJUNOK_clean_linker_0, # of connection points: 2
#     Edge 25, Type (0, 0), BuildingBlock: AJUNOK_clean_linker_0, # of connection points: 2
#     Edge 26, Type (0, 0), BuildingBlock: AJUNOK_clean_linker_0, # of connection points: 2
#     Edge 27, Type (0, 0), BuildingBlock: AJUNOK_clean_linker_0, # of connection points: 2
#     Edge 28, Type (0, 0), BuildingBlock: AJUNOK_clean_linker_0, # of connection points: 2
#     Edge 29, Type (0, 0), BuildingBlock: AJUNOK_clean_linker_0, # of connection points: 2
#     Edge 30, Type (0, 0), BuildingBlock: AJUNOK_clean_linker_0, # of connection points: 2
#     Edge 31, Type (0, 0), BuildingBlock: AJUNOK_clean_linker_0, # of connection points: 2
#     Edge 32, Type (0, 0), BuildingBlock: AJUNOK_clean_linker_0, # of connection points: 2
#     Edge 33, Type (0, 0), BuildingBlock: AJUNOK_clean_linker_0, # of connection points: 2
#     Edge 34, Type (0, 0), BuildingBlock: AJUNOK_clean_linker_0, # of connection points: 2
#     Edge 35, Type (0, 0), BuildingBlock: AJUNOK_clean_linker_0, # of connection points: 2
#     Edge 36, Type (0, 0), BuildingBlock: AJUNOK_clean_linker_0, # of connection points: 2
#     Edge 37, Type (0, 0), BuildingBlock: AJUNOK_clean_linker_0, # of connection points: 2
#     Edge 38, Type (0, 0), BuildingBlock: AJUNOK_clean_linker_0, # of connection points: 2
#     Edge 39, Type (0, 0), BuildingBlock: AJUNOK_clean_linker_0, # of connection points: 2
#     Edge 40, Type (0, 0), BuildingBlock: AJUNOK_clean_linker_0, # of connection points: 2
#     Edge 41, Type (0, 0), BuildingBlock: AJUNOK_clean_linker_0, # of connection points: 2
#     Edge 42, Type (0, 0), BuildingBlock: AJUNOK_clean_linker_0, # of connection points: 2
#     Edge 43, Type (0, 0), BuildingBlock: AJUNOK_clean_linker_0, # of connection points: 2
#     Edge 44, Type (0, 0), BuildingBlock: AJUNOK_clean_linker_0, # of connection points: 2
# Relax obj value: 0.098
# Max RMSD: 0.217
# Mean RMSD: 0.206
data_MOF--net-ecn--node1-TAGTUT_clean_sbu_1--edge1-AJUNOK_clean_linker_0
_symmetry_space_group_name_H-M    P1
_symmetry_Int_Tables_number       1
_symmetry_cell_setting            triclinic
loop_
_symmetry_equiv_pos_as_xyz
'x, y, z'
_cell_length_a     40.258016
_cell_length_b     39.232968
_cell_length_c     11.424453
_cell_angle_alpha  88.909562
_cell_angle_beta   92.183809
_cell_angle_gamma 116.80478
loop_
_atom_site_label
_atom_site_type_symbol
_atom_site_fract_x
_atom_site_fract_y
_atom_site_fract_z
_atom_type_partial_charge
C0 C 0.98292 0.1944 0.03267 0.0
C1 C 0.01698 0.11485 0.18107 0.0
C2 C 0.14151 0.24355 0.31477 0.0
Mg3 Mg 0.03354 0.159 0.94904 0.0
O4 O 0.06959 0.20146 0.02492 0.0
Mg5 Mg 0.06102 0.21302 0.18701 0.0
Mg6 Mg 0.12241 0.21083 0.04984 0.0
O7 O 0.17517 0.22225 0.08049 0.0
Mg8 Mg 0.20479 0.27193 0.13612 0.0
Mg9 Mg 0.18807 0.21026 0.92697 0.0
C10 C 0.10297 0.18547 0.779 0.0
C11 C 0.12747 0.13106 0.04303 0.0
O12 O 0.00549 0.20768 0.12061 0.0
O13 O 0.98822 0.17591 0.94979 0.0
O14 O 0.02814 0.14697 0.23457 0.0
O15 O 0.02388 0.11372 0.0733 0.0
O16 O 0.06779 0.16796 0.79719 0.0
O17 O 0.12735 0.20117 0.86211 0.0
C18 C 0.11593 0.29008 0.04323 0.0
O19 O 0.13435 0.2727 0.01082 0.0
O20 O 0.08976 0.27488 0.11662 0.0
O21 O 0.2456 0.22046 0.03073 0.0
O22 O 0.25301 0.26443 0.16648 0.0
O23 O 0.21442 0.27318 0.85974 0.0
C24 C 0.26378 0.24212 0.11879 0.0
O25 O 0.21309 0.31184 -0.00251 0.0
O26 O 0.17446 0.26842 0.29037 0.0
C27 C 0.21906 0.30604 0.89278 0.0
O28 O 0.11918 0.21986 0.23919 0.0
O29 O 0.10835 0.14772 0.07539 0.0
O30 O 0.15827 0.14874 -0.00943 0.0
C31 C 0.76888 0.74522 0.11714 0.0
C32 C 0.69911 0.78485 0.89052 0.0
C33 C 0.79645 0.90899 0.81618 0.0
Mg34 Mg 0.7282 0.79535 0.14588 0.0
O35 O 0.77556 0.83135 0.09957 0.0
Mg36 Mg 0.79247 0.82449 0.94553 0.0
Mg37 Mg 0.7836 0.88481 0.08767 0.0
O38 O 0.7883 0.93814 0.07913 0.0
Mg39 Mg 0.82477 0.97804 0.00096 0.0
Mg40 Mg 0.77933 0.9417 0.24595 0.0
C41 C 0.749 0.85643 0.34468 0.0
C42 C 0.70519 0.88791 0.07971 0.0
O43 O 0.78795 0.76616 0.03167 0.0
O44 O 0.74338 0.75054 0.1646 0.0
O45 O 0.73277 0.79477 0.86343 0.0
O46 O 0.69048 0.78598 -0.00357 0.0
O47 O 0.72829 0.82181 0.31269 0.0
O48 O 0.77178 0.88145 0.27576 0.0
C49 C 0.86413 0.88484 0.0993 0.0
O50 O 0.84513 0.90145 0.13237 0.0
O51 O 0.85043 0.85606 0.03044 0.0
O52 O 0.78473 1.00008 0.21608 0.0
O53 O 0.81255 0.02627 0.04963 0.0
O54 O 0.84581 0.97479 0.28418 0.0
C55 C 0.79802 0.02825 0.14606 0.0
O56 O 0.86939 0.97759 0.10759 0.0
O57 O 0.80721 0.94468 0.83735 0.0
C58 C 0.87398 0.98468 0.21739 0.0
O59 O 0.79657 0.88581 0.89701 0.0
O60 O 0.72333 0.8707 0.04289 0.0
O61 O 0.71853 0.91285 0.16302 0.0
C62 C 0.24212 0.01562 -0.02162 0.0
C63 C 0.2034 0.90024 0.82786 0.0
C64 C 0.0795 0.89177 0.70451 0.0
Mg65 Mg 0.19406 0.93282 0.05923 0.0
O66 O 0.15722 0.94303 -0.01279 0.0
Mg67 Mg 0.16296 0.95983 0.8209 0.0
Mg68 Mg 0.10568 0.90108 -0.022 0.0
O69 O 0.05449 0.85716 -0.02826 0.0
Mg70 Mg 0.01361 0.8543 0.88514 0.0
Mg71 Mg 0.05149 0.84234 0.13864 0.0
C72 C 0.1338 0.89698 0.24741 0.0
C73 C 0.10811 0.82032 -0.00313 0.0
O74 O 0.22084 0.01075 0.88636 0.0
O75 O 0.23657 0.98936 0.05386 0.0
O76 O 0.19218 0.92213 0.77251 0.0
O77 O 0.20386 0.89811 0.93935 0.0
O78 O 0.16845 0.9116 0.22519 0.0
O79 O 0.10874 0.89321 0.16955 0.0
C80 C 0.10532 0.98279 0.95342 0.0
O81 O 0.08957 0.94958 0.00084 0.0
O82 O 0.1321 0.99238 0.88255 0.0
O83 O 0.99611 0.79083 0.09765 0.0
O84 O 0.9728 0.79517 0.91942 0.0
O85 O 0.01811 0.87708 0.17033 0.0
C86 C 0.97139 0.77714 0.01531 0.0
O87 O 1.00186 0.89142 -0.00809 0.0
O88 O 0.04473 0.87089 0.72321 0.0
C89 C 1.00302 0.89354 0.10389 0.0
O90 O 0.10331 0.90934 0.7867 0.0
O91 O 0.12207 0.85374 0.95164 0.0
O92 O 0.08339 0.81011 0.0757 0.0
C93 C 0.64301 0.52077 0.34056 0.0
C94 C 0.67921 0.44913 0.53312 0.0
C95 C 0.79976 0.57199 0.64974 0.0
Mg96 Mg 0.6955 0.48475 0.28646 0.0
O97 O 0.7299 0.53117 0.3502 0.0
Mg98 Mg 0.72049 0.54547 0.50882 0.0
Mg99 Mg 0.78246 0.54044 0.3806 0.0
O100 O 0.83458 0.55084 0.41669 0.0
Mg101 Mg 0.86475 0.5999 0.47703 0.0
Mg102 Mg 0.84857 0.53896 0.2645 0.0
C103 C 0.7648 0.51062 0.11431 0.0
C104 C 0.78572 0.4593 0.37151 0.0
O105 O 0.66489 0.53823 0.42744 0.0
O106 O 0.6489 0.4988 0.27158 0.0
O107 O 0.68932 0.48277 0.57283 0.0
O108 O 0.68371 0.44333 0.42633 0.0
O109 O 0.73 0.4906 0.13572 0.0
O110 O 0.78888 0.53109 0.19308 0.0
C111 C 0.77862 0.62122 0.3686 0.0
O112 O 0.79657 0.60294 0.34032 0.0
O113 O 0.75057 0.6063 0.43483 0.0
O114 O 0.90433 0.54698 0.37518 0.0
O115 O 0.91114 0.58957 0.51502 0.0
O116 O 0.87663 0.60251 0.20034 0.0
C117 C 0.92112 0.56643 0.4685 0.0
O118 O 0.87568 0.64091 0.33987 0.0
O119 O 0.83309 0.5966 0.62824 0.0
C120 C 0.88205 0.6355 0.23517 0.0
O121 O 0.77752 0.55014 0.57026 0.0
O122 O 0.76699 0.47635 0.40476 0.0
O123 O 0.81707 0.47705 0.32225 0.0
C124 C 0.43468 0.08073 0.46038 0.0
C125 C 0.36545 0.12239 0.23998 0.0
C126 C 0.47376 0.24783 0.16007 0.0
Mg127 Mg 0.39685 0.13345 0.49417 0.0
O128 O 0.44379 0.16826 0.44195 0.0
Mg129 Mg 0.45921 0.15998 0.28736 0.0
Mg130 Mg 0.45473 0.22271 0.43043 0.0
O131 O 0.46392 0.27738 0.42338 0.0
Mg132 Mg 0.50267 0.31669 0.34837 0.0
Mg133 Mg 0.45383 0.28125 0.58971 0.0
C134 C 0.42216 0.19601 0.69045 0.0
C135 C 0.37916 0.23166 0.42166 0.0
O136 O 0.45289 0.10075 0.37222 0.0
O137 O 0.41079 0.08768 0.5119 0.0
O138 O 0.39877 0.1321 0.20938 0.0
O139 O 0.35806 0.12387 0.34723 0.0
O140 O 0.40032 0.16134 0.66158 0.0
O141 O 0.44366 0.22027 0.6178 0.0
C142 C 0.53283 0.21858 0.43484 0.0
O143 O 0.51548 0.23654 0.47092 0.0
O144 O 0.51757 0.18972 0.36675 0.0
O145 O 0.46264 0.34067 0.55486 0.0
O146 O 0.49092 0.36524 0.38705 0.0
O147 O 0.5186 0.30928 0.63795 0.0
C148 C 0.47595 0.36798 0.48154 0.0
O149 O 0.54777 0.32206 0.46627 0.0
O150 O 0.48721 0.28388 0.18198 0.0
C151 C 0.5485 0.32165 0.57855 0.0
O152 O 0.46707 0.22286 0.24163 0.0
O153 O 0.39481 0.21183 0.38551 0.0
O154 O 0.3941 0.25628 0.50485 0.0
C155 C 0.90891 0.3542 0.29235 0.0
C156 C 0.87321 0.2378 0.15887 0.0
C157 C 0.74848 0.22662 0.02261 0.0
Mg158 Mg 0.86215 0.27262 0.38295 0.0
O159 O 0.82454 0.27964 0.30441 0.0
Mg160 Mg 0.83036 0.2946 0.13699 0.0
Mg161 Mg 0.77446 0.23486 0.29398 0.0
O162 O 0.72474 0.18834 0.28685 0.0
Mg163 Mg 0.68344 0.18347 0.19853 0.0
Mg164 Mg 0.7216 0.17638 0.45652 0.0
C165 C 0.80117 0.23797 0.56479 0.0
C166 C 0.78189 0.15664 0.32712 0.0
O167 O 0.88749 0.3479 0.19976 0.0
O168 O 0.9037 0.32907 0.37132 0.0
O169 O 0.86196 0.25846 0.09692 0.0
O170 O 0.87308 0.23759 0.27036 0.0
O171 O 0.83619 0.25344 0.5485 0.0
O172 O 0.77699 0.22963 0.4816 0.0
C173 C 0.76907 0.31424 0.26184 0.0
O174 O 0.75463 0.28101 0.30957 0.0
O175 O 0.79648 0.32519 0.1926 0.0
O176 O 0.66715 0.1229 0.41834 0.0
O177 O 0.64382 0.12439 0.23739 0.0
O178 O 0.68593 0.20913 0.47823 0.0
C179 C 0.64264 0.10775 0.33596 0.0
O180 O 0.66947 0.2199 0.29617 0.0
O181 O 0.71383 0.20421 0.03765 0.0
C182 C 0.67042 0.22389 0.40709 0.0
O183 O 0.77243 0.2413 0.10607 0.0
O184 O 0.7943 0.1893 0.27664 0.0
O185 O 0.75654 0.14612 0.40404 0.0
C186 C 0.30748 0.85401 0.67973 0.0
C187 C 0.34358 0.78172 0.86387 0.0
C188 C 0.46557 0.90533 -0.02003 0.0
Mg189 Mg 0.35951 0.81814 0.61711 0.0
O190 O 0.39468 0.86364 0.68314 0.0
Mg191 Mg 0.38592 0.87817 0.84222 0.0
Mg192 Mg 0.44756 0.87329 0.71126 0.0
O193 O 0.50002 0.88456 0.74523 0.0
Mg194 Mg 0.53043 0.93351 0.80569 0.0
Mg195 Mg 0.51371 0.87201 0.59387 0.0
C196 C 0.42911 0.8439 0.44433 0.0
C197 C 0.45258 0.79312 0.708 0.0
O198 O 0.33011 0.87098 0.76544 0.0
O199 O 0.31282 0.83244 0.60753 0.0
O200 O 0.35455 0.81521 0.90624 0.0
O201 O 0.34757 0.77646 0.75607 0.0
O202 O 0.39416 0.82455 0.4654 0.0
O203 O 0.45344 0.86341 0.52392 0.0
C204 C 0.44318 0.95365 0.69841 0.0
O205 O 0.46112 0.93553 0.66872 0.0
O206 O 0.41563 0.93874 0.76665 0.0
O207 O 0.56952 0.88015 0.70364 0.0
O208 O 0.57635 0.92245 0.8444 0.0
O209 O 0.54182 0.93502 0.52809 0.0
C210 C 0.58618 0.89925 0.79754 0.0
O211 O 0.54226 0.97441 0.66673 0.0
O212 O 0.49892 0.9299 0.9582 0.0
C213 C 0.5483 0.96839 0.56213 0.0
O214 O 0.44327 0.8834 0.9008 0.0
O215 O 0.43292 0.8094 0.7393 0.0
O216 O 0.48344 0.81124 0.65665 0.0
C217 C 0.10054 0.41202 0.78659 0.0
C218 C 0.03222 0.45406 0.56154 0.0
C219 C 0.13408 0.57841 0.48759 0.0
Mg220 Mg 0.06231 0.46448 0.81706 0.0
O221 O 0.11004 0.49937 0.76915 0.0
Mg222 Mg 0.12554 0.49172 0.61381 0.0
Mg223 Mg 0.11995 0.55346 0.75816 0.0
O224 O 0.12711 0.60757 0.75198 0.0
Mg225 Mg 0.16257 0.64903 0.67356 0.0
Mg226 Mg 0.11566 0.61056 0.91656 0.0
C227 C 0.08519 0.52591 0.01621 0.0
C228 C 0.04187 0.5577 0.74883 0.0
O229 O 0.11942 0.43243 0.69979 0.0
O230 O 0.07623 0.41877 0.83626 0.0
O231 O 0.06572 0.46369 0.53374 0.0
O232 O 0.02402 0.45531 0.66801 0.0
O233 O 0.06365 0.49144 -0.01539 0.0
O234 O 0.10819 0.55044 0.94681 0.0
C235 C 0.19888 0.55099 0.76119 0.0
O236 O 0.18135 0.56873 0.7981 0.0
O237 O 0.18367 0.52211 0.69321 0.0
O238 O 0.12081 0.6684 0.88351 0.0
O239 O 0.14717 0.69537 0.71624 0.0
O240 O 0.18107 0.64162 0.96299 0.0
C241 C 0.13198 0.69629 0.8124 0.0
O242 O 0.20913 0.65739 0.78895 0.0
O243 O 0.14595 0.61431 0.50997 0.0
C244 C 0.21062 0.65591 0.90118 0.0
O245 O 0.13213 0.55426 0.56789 0.0
O246 O 0.05996 0.54042 0.71283 0.0
O247 O 0.05521 0.58263 0.83191 0.0
C248 C 0.57898 0.6837 0.61009 0.0
C249 C 0.53842 0.56933 0.4593 0.0
C250 C 0.41637 0.56013 0.33828 0.0
Mg251 Mg 0.53002 0.60123 0.69123 0.0
O252 O 0.49321 0.61269 0.62473 0.0
Mg253 Mg 0.49846 0.62915 0.45879 0.0
Mg254 Mg 0.44225 0.56949 0.61407 0.0
O255 O 0.39244 0.52374 0.60725 0.0
Mg256 Mg 0.35136 0.51765 0.51617 0.0
Mg257 Mg 0.38931 0.5106 0.77564 0.0
C258 C 0.47074 0.56661 0.88147 0.0
C259 C 0.44887 0.49122 0.64297 0.0
O260 O 0.55623 0.67991 0.52296 0.0
O261 O 0.57407 0.65692 0.68294 0.0
O262 O 0.52817 0.59233 0.40636 0.0
O263 O 0.53794 0.56568 0.57036 0.0
O264 O 0.50525 0.58049 0.85795 0.0
O265 O 0.44543 0.56273 0.80471 0.0
C266 C 0.43931 0.64988 0.59389 0.0
O267 O 0.42335 0.61593 0.63583 0.0
O268 O 0.46692 0.66081 0.52556 0.0
O269 O 0.33476 0.45781 0.73529 0.0
O270 O 0.31177 0.45867 0.5536 0.0
O271 O 0.35393 0.54393 0.79826 0.0
C272 C 0.31042 0.44239 0.65275 0.0
O273 O 0.33679 0.55339 0.61521 0.0
O274 O 0.38212 0.53669 0.3554 0.0
C275 C 0.33757 0.55764 0.72618 0.0
O276 O 0.4396 0.57753 0.42214 0.0
O277 O 0.46091 0.52387 0.59299 0.0
O278 O 0.42387 0.48032 0.72108 0.0
C279 C 0.29758 0.20492 0.19811 0.0
C280 C 0.29627 0.23994 0.17988 0.0
C281 C 0.32381 0.20193 0.27839 0.0
C282 C 0.349 0.23353 0.34553 0.0
H283 H 0.2774 0.17944 0.15363 0.0
H284 H 0.32404 0.17458 0.28935 0.0
S285 S 0.36031 0.33274 0.31824 0.0
N286 N 0.32541 0.30771 0.22644 0.0
N287 N 0.37317 0.3018 0.37814 0.0
C288 C 0.3487 0.26887 0.32448 0.0
C289 C 0.32283 0.27211 0.24152 0.0
C290 C 0.79406 0.12355 0.16028 0.0
C291 C 0.79258 0.12802 0.28216 0.0
C292 C 0.79756 0.09219 0.1148 0.0
C293 C 0.79982 0.06453 0.1901 0.0
H294 H 0.79053 0.14329 0.09947 0.0
H295 H 0.79672 0.08869 0.02077 0.0
S296 S 0.80564 0.06846 0.51644 0.0
N297 N 0.79882 0.1055 0.4764 0.0
N298 N 0.80694 0.04776 0.39349 0.0
C299 C 0.80165 0.07086 0.31241 0.0
C300 C 0.7975 0.10221 0.35785 0.0
C301 C 0.91499 0.73648 0.12209 0.0
C302 C 0.94054 0.73937 0.03753 0.0
C303 C 0.89412 0.70189 0.17978 0.0
C304 C 0.89835 0.669 0.1557 0.0
H305 H 0.91323 0.76183 0.15027 0.0
H306 H 0.87616 0.70155 0.24854 0.0
S307 S 0.95959 0.66138 0.93329 0.0
N308 N 0.96709 0.70636 0.92555 0.0
N309 N 0.92802 0.6411 0.03372 0.0
C310 C 0.9218 0.67093 0.06463 0.0
C311 C 0.94298 0.70627 0.00579 0.0
C312 C 0.78677 0.6908 0.12231 0.0
C313 C 0.77962 0.71796 0.18033 0.0
C314 C 0.78988 0.661 0.18557 0.0
C315 C 0.78582 0.65756 0.30826 0.0
H316 H 0.78765 0.69115 0.02765 0.0
H317 H 0.79282 0.63908 0.13724 0.0
S318 S 0.77489 0.72595 0.50276 0.0
N319 N 0.77506 0.74303 0.36952 0.0
N320 N 0.77971 0.68674 0.48578 0.0
C321 C 0.78193 0.68637 0.36738 0.0
C322 C 0.7792 0.71667 0.30403 0.0
C323 C 0.26684 0.06921 0.11615 0.0
C324 C 0.27159 0.0535 0.01224 0.0
C325 C 0.29746 0.09424 0.18466 0.0
C326 C 0.33414 0.10461 0.15171 0.0
H327 H 0.23928 0.05905 0.15084 0.0
H328 H 0.29218 0.10305 0.26831 0.0
S329 S 0.36082 0.07742 0.87311 0.0
N330 N 0.3149 0.0542 0.87008 0.0
N331 N 0.37296 0.1022 -0.00389 0.0
C332 C 0.33904 0.09264 0.04039 0.0
C333 C 0.30761 0.06679 -0.02873 0.0
C334 C 0.93757 0.21894 -0.03316 0.0
C335 C 0.94734 0.19588 0.04188 0.0
C336 C 0.91008 0.22964 -0.00166 0.0
C337 C 0.89163 0.21709 0.1048 0.0
H338 H 0.95342 0.23146 0.8895 0.0
H339 H 0.90569 0.25035 0.9444 0.0
S340 S 0.90296 0.15049 0.31949 0.0
N341 N 0.93451 0.15841 0.22105 0.0
N342 N 0.88046 0.17462 0.27298 0.0
C343 C 0.89819 0.19018 0.17213 0.0
C344 C 0.92693 0.18081 0.14301 0.0
C345 C 0.95537 0.5686 0.65797 0.0
C346 C 0.95033 0.56003 0.53674 0.0
C347 C 0.98363 0.56582 0.7268 0.0
C348 C 0.00828 0.55405 0.67859 0.0
H349 H 0.93755 0.57818 0.70084 0.0
H350 H 0.9867 0.57391 0.81823 0.0
S351 S 0.00718 0.52757 0.36625 0.0
N352 N 0.97199 0.53821 0.3724 0.0
N353 N 0.02557 0.53329 0.50056 0.0
C354 C 1.00295 0.54411 0.55807 0.0
C355 C 0.9739 0.54695 0.48775 0.0
C356 C 0.46712 0.43937 0.67767 0.0
C357 C 0.4608 0.46366 0.59895 0.0
C358 C 0.47438 0.41017 0.63724 0.0
C359 C 0.47481 0.40352 0.51629 0.0
H360 H 0.46576 0.4425 0.77118 0.0
H361 H 0.4785 0.39177 0.70203 0.0
S362 S 0.46175 0.46087 0.27423 0.0
N363 N 0.45716 0.48091 0.39447 0.0
N364 N 0.47036 0.42518 0.31843 0.0
C365 C 0.47012 0.42867 0.4364 0.0
C366 C 0.46297 0.45881 0.47781 0.0
C367 C 0.56396 0.0356 0.50509 0.0
C368 C 0.56616 0.00156 0.48225 0.0
C369 C 0.58632 0.0696 0.44678 0.0
C370 C 0.61136 0.0707 0.36274 0.0
H371 H 0.54632 0.03653 0.57305 0.0
H372 H 0.58588 0.09576 0.47339 0.0
S373 S 0.62559 0.98931 0.2622 0.0
N374 N 0.59368 0.97079 0.36247 0.0
N375 N 0.63543 0.03494 0.25291 0.0
C376 C 0.61195 0.03657 0.33251 0.0
C377 C 0.58929 0.00185 0.39207 0.0
C378 C 0.45112 0.02525 0.45821 0.0
C379 C 0.4444 0.05211 0.5199 0.0
C380 C 0.45404 0.99473 0.51779 0.0
C381 C 0.45033 0.99031 0.64042 0.0
H382 H 0.45193 0.0265 0.36352 0.0
H383 H 0.45668 0.97312 0.4668 0.0
S384 S 0.4405 0.05699 0.8438 0.0
N385 N 0.44042 0.07541 0.71276 0.0
N386 N 0.44501 0.01794 0.82167 0.0
C387 C 0.44685 0.01868 0.70303 0.0
C388 C 0.44415 0.0496 0.64355 0.0
C389 C 0.96584 0.43265 0.49334 0.0
C390 C 1.00193 0.43807 0.46946 0.0
C391 C 0.93527 0.41024 0.41984 0.0
C392 C 0.93949 0.39203 0.32054 0.0
H393 H 0.96073 0.44365 0.57336 0.0
H394 H 0.90761 0.40351 0.44844 0.0
S395 S 0.0285 0.40329 0.20513 0.0
N396 N 0.04071 0.42874 0.3268 0.0
N397 N 0.98273 0.38553 0.19208 0.0
C398 C 0.97566 0.4008 0.28812 0.0
C399 C 0.00703 0.42403 0.36198 0.0
C400 C 0.55587 0.51656 0.44622 0.0
C401 C 0.55587 0.54954 0.39541 0.0
C402 C 0.58131 0.50366 0.41377 0.0
C403 C 0.60809 0.52374 0.33102 0.0
H404 H 0.53859 0.50269 0.51968 0.0
H405 H 0.58268 0.48041 0.4631 0.0
S406 S 0.61667 0.60809 0.15929 0.0
N407 N 0.58159 0.59872 0.24582 0.0
N408 N 0.63076 0.57516 0.1885 0.0
C409 C 0.60619 0.55434 0.27092 0.0
C410 C 0.57961 0.56709 0.30218 0.0
C411 C 0.61954 0.90015 -0.01221 0.0
C412 C 0.61488 0.89214 0.86625 0.0
C413 C 0.64729 0.8966 0.05715 0.0
C414 C 0.67182 0.88464 0.00905 0.0
H415 H 0.60181 0.9099 0.03054 0.0
H416 H 0.65014 0.90434 0.14884 0.0
S417 S 0.6712 0.85893 0.69618 0.0
N418 N 0.63643 0.87023 0.7019 0.0
N419 N 0.68924 0.8641 0.83083 0.0
C420 C 0.6668 0.8752 0.88817 0.0
C421 C 0.6382 0.87872 0.81739 0.0
C422 C 0.12299 0.73258 -0.0261 0.0
C423 C 0.12862 0.73036 0.85319 0.0
C424 C 0.1173 0.76216 0.01949 0.0
C425 C 0.11742 0.79132 0.94724 0.0
H426 H 0.12269 0.71102 0.03509 0.0
H427 H 0.11258 0.76203 0.11232 0.0
S428 S 0.1316 0.8003 0.62613 0.0
N429 N 0.13471 0.76084 0.66273 0.0
N430 N 0.12377 0.81686 0.74854 0.0
C431 C 0.12363 0.79024 0.82659 0.0
C432 C 0.12945 0.75978 0.77974 0.0
C433 C 0.25674 0.3382 0.71812 0.0
C434 C 0.23501 0.33892 0.81117 0.0
C435 C 0.27854 0.37154 0.65536 0.0
C436 C 0.27846 0.40626 0.68197 0.0
H437 H 0.25933 0.31254 0.69969 0.0
H438 H 0.2977 0.3708 0.59253 0.0
S439 S 0.22158 0.42217 0.90135 0.0
N440 N 0.21159 0.37666 0.91605 0.0
N441 N 0.25164 0.43872 0.79534 0.0
C442 C 0.2542 0.40655 0.76625 0.0
C443 C 0.23264 0.373 0.83163 0.0
C444 C 0.10942 0.3503 0.03372 0.0
C445 C 0.11955 0.3249 -0.0212 0.0
C446 C 0.1049 0.37884 -0.02978 0.0
C447 C 0.10997 0.38338 0.84805 0.0
H448 H 0.10362 0.3473 0.12622 0.0
H449 H 0.09643 0.39709 0.01786 0.0
S450 S 0.13922 0.32587 0.66273 0.0
N451 N 0.13639 0.30712 0.79496 0.0
N452 N 0.12838 0.36152 0.6761 0.0
C453 C 0.12211 0.35957 0.79254 0.0
C454 C 0.12662 0.3301 0.85762 0.0
C455 C 0.67563 0.75158 0.69794 0.0
C456 C 0.66925 0.76805 0.79807 0.0
C457 C 0.64607 0.72793 0.62281 0.0
C458 C 0.6094 0.72101 0.64301 0.0
H459 H 0.70307 0.75411 0.68296 0.0
H460 H 0.65146 0.7121 0.55557 0.0
S461 S 0.57885 0.76395 0.87593 0.0
N462 N 0.62408 0.78029 0.9021 0.0
N463 N 0.56898 0.73699 0.75795 0.0
C464 C 0.60337 0.74103 0.73367 0.0
C465 C 0.63316 0.76421 0.81224 0.0
C466 C 0.26678 0.88444 0.62381 0.0
C467 C 0.27155 0.85491 0.68136 0.0
C468 C 0.24107 0.89639 0.66354 0.0
C469 C 0.22067 0.88005 0.76455 0.0
H470 H 0.28531 0.90061 0.55511 0.0
H471 H 0.24009 0.92104 0.6224 0.0
S472 S 0.22083 0.79878 0.93632 0.0
N473 N 0.25068 0.80632 0.83226 0.0
N474 N 0.20468 0.83031 0.91315 0.0
C475 C 0.22317 0.84835 0.81593 0.0
C476 C 0.24808 0.83539 0.77255 0.0
C477 C 0.08125 0.03085 0.93322 0.0
C478 C 0.09963 0.01401 0.00133 0.0
C479 C 0.08679 0.06799 0.95752 0.0
C480 C 0.11159 0.0894 0.04845 0.0
H481 H 0.06493 0.01647 0.85572 0.0
H482 H 0.07452 0.08133 0.89795 0.0
S483 S 0.16376 0.05669 0.25707 0.0
N484 N 0.14058 0.01982 0.16951 0.0
N485 N 0.15219 0.09029 0.2118 0.0
C486 C 0.12792 0.07184 0.12195 0.0
C487 C 0.12159 0.03383 0.0991 0.0
C488 C 0.97653 0.05205 0.28706 0.0
C489 C 0.98078 0.08344 0.21558 0.0
C490 C 0.94092 0.02021 0.29906 0.0
C491 C 0.90881 0.01998 0.24372 0.0
H492 H 1.00084 0.05108 0.3276 0.0
H493 H 0.93885 0.99509 0.34574 0.0
S494 S 0.90651 0.09227 0.03503 0.0
N495 N 0.95057 0.10888 0.07762 0.0
N496 N 0.88468 0.05334 0.11316 0.0
C497 C 0.91323 0.05213 0.17735 0.0
C498 C 0.94892 0.08261 0.15941 0.0
C499 C 0.91137 0.87302 0.21241 0.0
C500 C 0.90277 0.89792 0.14221 0.0
C501 C 0.94764 0.87666 0.21947 0.0
C502 C 0.97588 0.90447 0.15281 0.0
H503 H 0.88928 0.84838 0.25259 0.0
H504 H 0.95201 0.85415 0.26301 0.0
S505 S 0.96932 0.98228 -0.01949 0.0
N506 N 0.92661 0.95589 0.02535 0.0
N507 N 0.99477 0.96218 0.03585 0.0
C508 C 0.96873 0.93281 0.09673 0.0
C509 C 0.93192 0.92945 0.09111 0.0
C510 C 0.77609 0.36057 0.41568 0.0
C511 C 0.76023 0.34396 0.30654 0.0
C512 C 0.78064 0.39711 0.44436 0.0
C513 C 0.76841 0.4174 0.36608 0.0
H514 H 0.7885 0.34702 0.47385 0.0
H515 H 0.79655 0.41078 0.52321 0.0
S516 S 0.71986 0.38362 0.07824 0.0
N517 N 0.72894 0.34857 0.12595 0.0
N518 N 0.73573 0.4164 0.18213 0.0
C519 C 0.74891 0.39923 0.26272 0.0
C520 C 0.74525 0.3626 0.23217 0.0
C521 C 0.62095 0.41831 0.6432 0.0
C522 C 0.65223 0.41622 0.59969 0.0
C523 C 0.58759 0.38507 0.66004 0.0
C524 C 0.58448 0.34887 0.63295 0.0
H525 H 0.62063 0.44567 0.65002 0.0
H526 H 0.56285 0.38827 0.67735 0.0
S527 S 0.66324 0.32846 0.56914 0.0
N528 N 0.68155 0.37549 0.5663 0.0
N529 N 0.61878 0.31278 0.59838 0.0
C530 C 0.61742 0.34643 0.61032 0.0
C531 C 0.65136 0.38026 0.59315 0.0
C532 C 0.58445 0.21329 0.54365 0.0
C533 C 0.57251 0.23285 0.46165 0.0
C534 C 0.62025 0.21585 0.53935 0.0
C535 C 0.64429 0.23708 0.45036 0.0
H536 H 0.56491 0.19311 0.60367 0.0
H537 H 0.62702 0.19717 0.59566 0.0
S538 S 0.6286 0.30052 0.23432 0.0
N539 N 0.58926 0.27956 0.30475 0.0
N540 N 0.65643 0.28402 0.29471 0.0
C541 C 0.63413 0.26053 0.37811 0.0
C542 C 0.598 0.25824 0.38361 0.0
C543 C 0.46307 0.73813 0.76636 0.0
C544 C 0.43875 0.7516 0.71688 0.0
C545 C 0.46038 0.70283 0.7335 0.0
C546 C 0.43346 0.68003 0.64965 0.0
H547 H 0.48656 0.75659 0.82189 0.0
H548 H 0.48149 0.69481 0.76651 0.0
S549 S 0.35958 0.69956 0.50859 0.0
N550 N 0.3839 0.73734 0.59183 0.0
N551 N 0.37911 0.6707 0.52915 0.0
C552 C 0.40664 0.69122 0.60841 0.0
C553 C 0.40917 0.72718 0.6428 0.0
C554 C 0.25195 0.71785 -0.00838 0.0
C555 C 0.24731 0.68183 0.95528 0.0
C556 C 0.28611 0.75068 -0.02087 0.0
C557 C 0.31649 0.74838 0.92921 0.0
H558 H 0.22788 0.72156 0.01431 0.0
H559 H 0.28716 0.77829 -0.00527 0.0
S560 S 0.32332 0.65984 0.86915 0.0
N561 N 0.27931 0.64494 0.90275 0.0
N562 N 0.34327 0.70679 0.8782 0.0
C563 C 0.31407 0.71211 0.91291 0.0
C564 C 0.27947 0.67873 0.92615 0.0
C565 C 0.29781 0.58966 0.68648 0.0
C566 C 0.31083 0.57054 0.76774 0.0
C567 C 0.26222 0.58704 0.69349 0.0
C568 C 0.23889 0.56606 0.78339 0.0
H569 H 0.31361 0.60336 0.60995 0.0
H570 H 0.25172 0.59861 0.62249 0.0
S571 S 0.26255 0.51886 0.03337 0.0
N572 N 0.29993 0.53595 0.95293 0.0
N573 N 0.23272 0.5314 -0.03429 0.0
C574 C 0.2531 0.55118 0.87353 0.0
C575 C 0.28946 0.55371 0.86648 0.0
C576 C 0.08688 0.20074 0.58092 0.0
C577 C 0.11352 0.19761 0.65835 0.0
C578 C 0.09676 0.21819 0.47216 0.0
C579 C 0.13358 0.23329 0.43717 0.0
H580 H 0.05819 0.19053 0.60509 0.0
H581 H 0.07533 0.21936 0.41433 0.0
S582 S 0.21304 0.229 0.60127 0.0
N583 N 0.17759 0.20857 0.68873 0.0
N584 N 0.19657 0.24211 0.48363 0.0
C585 C 0.16055 0.23015 0.51267 0.0
C586 C 0.15035 0.21195 0.62328 0.0
C587 C 0.76536 0.84543 0.5476 0.0
C588 C 0.75329 0.86594 0.46938 0.0
C589 C 0.77932 0.85943 0.66005 0.0
C590 C 0.78164 0.8944 0.6975 0.0
H591 H 0.76607 0.81955 0.51937 0.0
H592 H 0.78945 0.84338 0.71632 0.0
S593 S 0.74666 0.95481 0.53135 0.0
N594 N 0.73968 0.91974 0.44092 0.0
N595 N 0.76583 0.9465 0.65182 0.0
C596 C 0.76739 0.91387 0.62188 0.0
C597 C 0.75317 0.89948 0.50785 0.0
C598 C 0.12513 0.92424 0.55092 0.0
C599 C 0.09313 0.89234 0.58766 0.0
C600 C 0.13991 0.9243 0.44259 0.0
C601 C 0.12318 0.89241 0.36874 0.0
H602 H 0.13834 0.94956 0.60497 0.0
H603 H 0.16347 0.9501 0.41408 0.0
S604 S 0.04301 0.79968 0.43259 0.0
N605 N 0.04769 0.82651 0.54769 0.0
N606 N 0.07612 0.82686 0.34367 0.0
C607 C 0.09247 0.8597 0.40663 0.0
C608 C 0.0772 0.85962 0.51645 0.0
C609 C 0.75516 0.54173 0.80736 0.0
C610 C 0.79195 0.55853 0.77078 0.0
C611 C 0.74619 0.52363 0.91599 0.0
C612 C 0.77374 0.52153 -0.00834 0.0
H613 H 0.73316 0.54261 0.75162 0.0
H614 H 0.71761 0.51257 0.94237 0.0
S615 S 0.87304 0.55511 0.92773 0.0
N616 N 0.8555 0.56807 0.81228 0.0
N617 N 0.83828 0.53398 0.0173 0.0
C618 C 0.81032 0.53672 0.95396 0.0
C619 C 0.81957 0.55535 0.84348 0.0
C620 C 0.44681 0.25398 -0.03362 0.0
C621 C 0.46171 0.2346 0.03938 0.0
C622 C 0.43172 0.24005 0.85493 0.0
C623 C 0.43053 0.20603 0.81418 0.0
H624 H 0.4464 0.27986 -0.00403 0.0
H625 H 0.42142 0.25621 0.79966 0.0
S626 S 0.47032 0.14766 -0.03491 0.0
N627 N 0.47725 0.18177 0.05913 0.0
N628 N 0.44848 0.15523 0.84981 0.0
C629 C 0.44574 0.18669 0.8855 0.0
C630 C 0.46143 0.20108 -0.00173 0.0
C631 C 0.80313 0.22255 0.77355 0.0
C632 C 0.78817 0.23578 0.68155 0.0
C633 C 0.79022 0.22034 0.88577 0.0
C634 C 0.76236 0.23144 0.90698 0.0
H635 H 0.82424 0.21332 0.75828 0.0
H636 H 0.80138 0.20907 0.9558 0.0
S637 S 0.71894 0.27363 0.69866 0.0
N638 N 0.74771 0.26459 0.62034 0.0
N639 N 0.72249 0.25885 0.83275 0.0
C640 C 0.74807 0.2458 0.81696 0.0
C641 C 0.7614 0.2485 0.7032 0.0
C642 C 0.41137 0.85837 0.24651 0.0
C643 C 0.43839 0.85514 0.32193 0.0
C644 C 0.42077 0.87647 0.13795 0.0
C645 C 0.45752 0.8922 0.10122 0.0
H646 H 0.38288 0.84811 0.27291 0.0
H647 H 0.39913 0.87811 0.08225 0.0
S648 S 0.53719 0.8857 0.25738 0.0
N649 N 0.50234 0.8655 0.34713 0.0
N650 N 0.52035 0.89959 0.14227 0.0
C651 C 0.4846 0.888 0.17376 0.0
C652 C 0.47491 0.86936 0.28418 0.0
C653 C 0.11692 0.52928 0.33031 0.0
C654 C 0.11969 0.56441 0.3681 0.0
C655 C 0.10254 0.51525 0.2182 0.0
C656 C 0.09019 0.53572 0.14083 0.0
H657 H 0.12688 0.51301 0.38627 0.0
H658 H 0.10299 0.48929 0.18961 0.0
S659 S 0.08517 0.62542 0.20355 0.0
N660 N 0.10462 0.617 0.32323 0.0
N661 N 0.07732 0.59004 0.11328 0.0
C662 C 0.09073 0.56958 0.1795 0.0
C663 C 0.10558 0.5841 0.29304 0.0
C664 C 0.41515 0.53043 0.14913 0.0
C665 C 0.43025 0.56308 0.22074 0.0
C666 C 0.42995 0.53083 0.04068 0.0
C667 C 0.46062 0.5636 0.00249 0.0
H668 H 0.39202 0.50426 0.17748 0.0
H669 H 0.4171 0.50566 -0.0142 0.0
S670 S 0.5081 0.65724 0.15159 0.0
N671 N 0.47548 0.62976 0.24149 0.0
N672 N 0.50463 0.62987 0.03918 0.0
C673 C 0.4761 0.59633 0.07284 0.0
C674 C 0.4605 0.59624 0.1819 0.0
loop_
_geom_bond_atom_site_label_1
_geom_bond_atom_site_label_2
_geom_bond_distance
_geom_bond_site_symmetry_2
_ccdc_geom_bond_type
C0 O12 1.241 1_655 S
C0 O13 1.266 1_654 S
C1 O14 1.277 . S
C1 O15 1.245 . S
C2 O26 1.247 . S
C2 O28 1.289 . S
Mg3 O4 1.926 1_556 S
Mg3 O13 2.011 . S
Mg3 O15 1.988 1_556 S
Mg3 O16 2.061 . S
O4 Mg3 1.926 1_554 S
O4 Mg5 1.986 . S
O4 Mg6 1.917 . S
Mg5 O4 1.986 . S
Mg5 O12 2.042 . S
Mg5 O14 2.041 . S
Mg5 O20 2.038 . S
Mg5 O28 2.238 . S
Mg6 O4 1.917 . S
Mg6 O7 1.917 . S
Mg6 O17 2.106 1_554 S
Mg6 O19 2.079 . S
Mg6 O28 2.106 . S
Mg6 O29 2.079 . S
O7 Mg6 1.917 . S
O7 Mg8 1.926 . S
O7 Mg9 1.986 1_554 S
Mg8 O7 1.926 . S
Mg8 O22 1.984 . S
Mg8 O25 1.988 . S
Mg8 O26 2.061 . S
Mg9 O7 1.986 1_556 S
Mg9 O17 2.238 . S
Mg9 O21 2.042 1_556 S
Mg9 O23 2.041 . S
Mg9 O30 2.038 . S
C10 O16 1.247 . S
C10 O17 1.289 . S
C11 O29 1.245 . S
C11 O30 1.274 1_554 S
O12 C0 1.241 1_455 S
O12 Mg5 2.042 . S
O13 C0 1.266 1_456 S
O13 Mg3 2.011 . S
O14 C1 1.277 . S
O14 Mg5 2.041 . S
O15 C1 1.245 . S
O15 Mg3 1.988 1_554 S
O16 Mg3 2.061 . S
O16 C10 1.247 . S
O17 Mg6 2.106 1_556 S
O17 Mg9 2.238 . S
O17 C10 1.289 . S
C18 O19 1.245 . S
C18 O20 1.274 . S
O19 Mg6 2.079 . S
O19 C18 1.245 . S
O20 Mg5 2.038 . S
O20 C18 1.274 . S
O21 Mg9 2.042 1_554 S
O21 C24 1.241 . S
O22 Mg8 1.984 . S
O22 C24 1.280 . S
O23 Mg9 2.041 . S
O23 C27 1.277 . S
C24 O21 1.241 . S
C24 O22 1.280 . S
O25 Mg8 1.988 . S
O25 C27 1.245 1_554 S
O26 C2 1.247 . S
O26 Mg8 2.061 . S
C27 O23 1.277 . S
C27 O25 1.245 1_556 S
O28 C2 1.289 . S
O28 Mg5 2.238 . S
O28 Mg6 2.106 . S
O29 Mg6 2.079 . S
O29 C11 1.245 . S
O30 Mg9 2.038 . S
O30 C11 1.274 1_556 S
C31 O43 1.241 . S
C31 O44 1.280 . S
C32 O45 1.277 1_554 S
C32 O46 1.245 . S
C33 O57 1.247 . S
C33 O59 1.289 . S
Mg34 O35 1.926 . S
Mg34 O44 1.984 . S
Mg34 O46 1.988 . S
Mg34 O47 2.061 . S
O35 Mg34 1.926 . S
O35 Mg36 1.986 . S
O35 Mg37 1.917 . S
Mg36 O35 1.986 . S
Mg36 O43 2.042 . S
Mg36 O45 2.041 1_554 S
Mg36 O51 2.038 . S
Mg36 O59 2.238 1_554 S
Mg37 O35 1.917 . S
Mg37 O38 1.917 . S
Mg37 O48 2.106 . S
Mg37 O50 2.079 . S
Mg37 O59 2.106 1_554 S
Mg37 O60 2.079 . S
O38 Mg37 1.917 . S
O38 Mg39 1.926 . S
O38 Mg40 1.986 . S
Mg39 O38 1.926 . S
Mg39 O53 1.984 1_564 S
Mg39 O56 1.988 . S
Mg39 O57 2.061 1_554 S
Mg40 O38 1.986 . S
Mg40 O48 2.238 . S
Mg40 O52 2.042 1_565 S
Mg40 O54 2.041 . S
Mg40 O61 2.038 . S
C41 O47 1.247 . S
C41 O48 1.289 . S
C42 O60 1.245 . S
C42 O61 1.274 . S
O43 C31 1.241 . S
O43 Mg36 2.042 . S
O44 C31 1.280 . S
O44 Mg34 1.984 . S
O45 C32 1.277 1_556 S
O45 Mg36 2.041 1_556 S
O46 C32 1.245 . S
O46 Mg34 1.988 . S
O47 Mg34 2.061 . S
O47 C41 1.247 . S
O48 Mg37 2.106 . S
O48 Mg40 2.238 . S
O48 C41 1.289 . S
C49 O50 1.245 . S
C49 O51 1.274 . S
O50 Mg37 2.079 . S
O50 C49 1.245 . S
O51 Mg36 2.038 . S
O51 C49 1.274 . S
O52 Mg40 2.042 1_545 S
O52 C55 1.241 . S
O53 Mg39 1.984 1_546 S
O53 C55 1.280 1_556 S
O54 Mg40 2.041 . S
O54 C58 1.277 . S
C55 O52 1.241 . S
C55 O53 1.280 1_554 S
O56 Mg39 1.988 . S
O56 C58 1.245 . S
O57 C33 1.247 . S
O57 Mg39 2.061 1_556 S
C58 O54 1.277 . S
C58 O56 1.245 . S
O59 C33 1.289 . S
O59 Mg36 2.238 1_556 S
O59 Mg37 2.106 1_556 S
O60 Mg37 2.079 . S
O60 C42 1.245 . S
O61 Mg40 2.038 . S
O61 C42 1.274 . S
C62 O74 1.241 1_554 S
C62 O75 1.280 1_545 S
C63 O76 1.277 . S
C63 O77 1.245 1_556 S
C64 O88 1.247 . S
C64 O90 1.289 . S
Mg65 O66 1.926 . S
Mg65 O75 1.984 . S
Mg65 O77 1.988 . S
Mg65 O78 2.061 . S
O66 Mg65 1.926 . S
O66 Mg67 1.986 1_554 S
O66 Mg68 1.917 . S
Mg67 O66 1.986 1_556 S
Mg67 O74 2.042 1_565 S
Mg67 O76 2.041 . S
Mg67 O82 2.038 . S
Mg67 O90 2.238 . S
Mg68 O66 1.917 . S
Mg68 O69 1.917 1_554 S
Mg68 O79 2.106 . S
Mg68 O81 2.079 . S
Mg68 O90 2.106 1_554 S
Mg68 O91 2.079 1_554 S
O69 Mg68 1.917 1_556 S
O69 Mg70 1.926 . S
O69 Mg71 1.986 1_556 S
Mg70 O69 1.926 . S
Mg70 O84 1.984 1_455 S
Mg70 O87 1.988 . S
Mg70 O88 2.061 . S
Mg71 O69 1.986 1_554 S
Mg71 O79 2.238 . S
Mg71 O83 2.042 1_455 S
Mg71 O85 2.041 . S
Mg71 O92 2.038 . S
C72 O78 1.247 . S
C72 O79 1.289 . S
C73 O91 1.245 1_554 S
C73 O92 1.274 . S
O74 C62 1.241 1_556 S
O74 Mg67 2.042 1_545 S
O75 C62 1.280 1_565 S
O75 Mg65 1.984 . S
O76 C63 1.277 . S
O76 Mg67 2.041 . S
O77 C63 1.245 1_554 S
O77 Mg65 1.988 . S
O78 Mg65 2.061 . S
O78 C72 1.247 . S
O79 Mg68 2.106 . S
O79 Mg71 2.238 . S
O79 C72 1.289 . S
C80 O81 1.245 1_556 S
C80 O82 1.274 . S
O81 Mg68 2.079 . S
O81 C80 1.245 1_554 S
O82 Mg67 2.038 . S
O82 C80 1.274 . S
O83 Mg71 2.042 1_655 S
O83 C86 1.241 1_554 S
O84 Mg70 1.984 1_655 S
O84 C86 1.280 . S
O85 Mg71 2.041 . S
O85 C89 1.277 1_455 S
C86 O83 1.241 1_556 S
C86 O84 1.280 . S
O87 Mg70 1.988 . S
O87 C89 1.245 1_456 S
O88 C64 1.247 . S
O88 Mg70 2.061 . S
C89 O85 1.277 1_655 S
C89 O87 1.245 1_654 S
O90 C64 1.289 . S
O90 Mg67 2.238 . S
O90 Mg68 2.106 1_556 S
O91 Mg68 2.079 1_556 S
O91 C73 1.245 1_556 S
O92 Mg71 2.038 . S
O92 C73 1.274 . S
C93 O105 1.241 . S
C93 O106 1.280 . S
C94 O107 1.277 . S
C94 O108 1.245 . S
C95 O119 1.247 . S
C95 O121 1.289 . S
Mg96 O97 1.926 . S
Mg96 O106 1.984 . S
Mg96 O108 1.988 . S
Mg96 O109 2.061 . S
O97 Mg96 1.926 . S
O97 Mg98 1.986 . S
O97 Mg99 1.917 . S
Mg98 O97 1.986 . S
Mg98 O105 2.042 . S
Mg98 O107 2.041 . S
Mg98 O113 2.038 . S
Mg98 O121 2.238 . S
Mg99 O97 1.917 . S
Mg99 O100 1.917 . S
Mg99 O110 2.106 . S
Mg99 O112 2.079 . S
Mg99 O121 2.106 . S
Mg99 O122 2.079 . S
O100 Mg99 1.917 . S
O100 Mg101 1.926 . S
O100 Mg102 1.986 . S
Mg101 O100 1.926 . S
Mg101 O115 1.984 . S
Mg101 O118 1.988 . S
Mg101 O119 2.061 . S
Mg102 O100 1.986 . S
Mg102 O110 2.238 . S
Mg102 O114 2.042 . S
Mg102 O116 2.041 . S
Mg102 O123 2.038 . S
C103 O109 1.247 . S
C103 O110 1.289 . S
C104 O122 1.245 . S
C104 O123 1.274 . S
O105 C93 1.241 . S
O105 Mg98 2.042 . S
O106 C93 1.280 . S
O106 Mg96 1.984 . S
O107 C94 1.277 . S
O107 Mg98 2.041 . S
O108 C94 1.245 . S
O108 Mg96 1.988 . S
O109 Mg96 2.061 . S
O109 C103 1.247 . S
O110 Mg99 2.106 . S
O110 Mg102 2.238 . S
O110 C103 1.289 . S
C111 O112 1.245 . S
C111 O113 1.274 . S
O112 Mg99 2.079 . S
O112 C111 1.245 . S
O113 Mg98 2.038 . S
O113 C111 1.274 . S
O114 Mg102 2.042 . S
O114 C117 1.241 . S
O115 Mg101 1.984 . S
O115 C117 1.280 . S
O116 Mg102 2.041 . S
O116 C120 1.277 . S
C117 O114 1.241 . S
C117 O115 1.280 . S
O118 Mg101 1.988 . S
O118 C120 1.245 . S
O119 C95 1.247 . S
O119 Mg101 2.061 . S
C120 O116 1.277 . S
C120 O118 1.245 . S
O121 C95 1.289 . S
O121 Mg98 2.238 . S
O121 Mg99 2.106 . S
O122 Mg99 2.079 . S
O122 C104 1.245 . S
O123 Mg102 2.038 . S
O123 C104 1.274 . S
C124 O136 1.241 . S
C124 O137 1.280 . S
C125 O138 1.277 . S
C125 O139 1.245 . S
C126 O150 1.247 . S
C126 O152 1.289 . S
Mg127 O128 1.926 . S
Mg127 O137 1.984 . S
Mg127 O139 1.988 . S
Mg127 O140 2.061 . S
O128 Mg127 1.926 . S
O128 Mg129 1.986 . S
O128 Mg130 1.917 . S
Mg129 O128 1.986 . S
Mg129 O136 2.042 . S
Mg129 O138 2.041 . S
Mg129 O144 2.038 . S
Mg129 O152 2.238 . S
Mg130 O128 1.917 . S
Mg130 O131 1.917 . S
Mg130 O141 2.106 . S
Mg130 O143 2.079 . S
Mg130 O152 2.106 . S
Mg130 O153 2.079 . S
O131 Mg130 1.917 . S
O131 Mg132 1.926 . S
O131 Mg133 1.986 . S
Mg132 O131 1.926 . S
Mg132 O146 1.984 . S
Mg132 O149 1.988 . S
Mg132 O150 2.061 . S
Mg133 O131 1.986 . S
Mg133 O141 2.238 . S
Mg133 O145 2.042 . S
Mg133 O147 2.041 . S
Mg133 O154 2.038 . S
C134 O140 1.247 . S
C134 O141 1.289 . S
C135 O153 1.245 . S
C135 O154 1.274 . S
O136 C124 1.241 . S
O136 Mg129 2.042 . S
O137 C124 1.280 . S
O137 Mg127 1.984 . S
O138 C125 1.277 . S
O138 Mg129 2.041 . S
O139 C125 1.245 . S
O139 Mg127 1.988 . S
O140 Mg127 2.061 . S
O140 C134 1.247 . S
O141 Mg130 2.106 . S
O141 Mg133 2.238 . S
O141 C134 1.289 . S
C142 O143 1.245 . S
C142 O144 1.274 . S
O143 Mg130 2.079 . S
O143 C142 1.245 . S
O144 Mg129 2.038 . S
O144 C142 1.274 . S
O145 Mg133 2.042 . S
O145 C148 1.241 . S
O146 Mg132 1.984 . S
O146 C148 1.280 . S
O147 Mg133 2.041 . S
O147 C151 1.277 . S
C148 O145 1.241 . S
C148 O146 1.280 . S
O149 Mg132 1.988 . S
O149 C151 1.245 . S
O150 C126 1.247 . S
O150 Mg132 2.061 . S
C151 O147 1.277 . S
C151 O149 1.245 . S
O152 C126 1.289 . S
O152 Mg129 2.238 . S
O152 Mg130 2.106 . S
O153 Mg130 2.079 . S
O153 C135 1.245 . S
O154 Mg133 2.038 . S
O154 C135 1.274 . S
C155 O167 1.241 . S
C155 O168 1.280 . S
C156 O169 1.277 . S
C156 O170 1.245 . S
C157 O181 1.247 . S
C157 O183 1.289 . S
Mg158 O159 1.926 . S
Mg158 O168 1.984 . S
Mg158 O170 1.988 . S
Mg158 O171 2.061 . S
O159 Mg158 1.926 . S
O159 Mg160 1.986 . S
O159 Mg161 1.917 . S
Mg160 O159 1.986 . S
Mg160 O167 2.042 . S
Mg160 O169 2.041 . S
Mg160 O175 2.038 . S
Mg160 O183 2.238 . S
Mg161 O159 1.917 . S
Mg161 O162 1.917 . S
Mg161 O172 2.106 . S
Mg161 O174 2.079 . S
Mg161 O183 2.106 . S
Mg161 O184 2.079 . S
O162 Mg161 1.917 . S
O162 Mg163 1.926 . S
O162 Mg164 1.986 . S
Mg163 O162 1.926 . S
Mg163 O177 1.984 . S
Mg163 O180 1.988 . S
Mg163 O181 2.061 . S
Mg164 O162 1.986 . S
Mg164 O172 2.238 . S
Mg164 O176 2.042 . S
Mg164 O178 2.041 . S
Mg164 O185 2.038 . S
C165 O171 1.247 . S
C165 O172 1.289 . S
C166 O184 1.245 . S
C166 O185 1.274 . S
O167 C155 1.241 . S
O167 Mg160 2.042 . S
O168 C155 1.280 . S
O168 Mg158 1.984 . S
O169 C156 1.277 . S
O169 Mg160 2.041 . S
O170 C156 1.245 . S
O170 Mg158 1.988 . S
O171 Mg158 2.061 . S
O171 C165 1.247 . S
O172 Mg161 2.106 . S
O172 Mg164 2.238 . S
O172 C165 1.289 . S
C173 O174 1.245 . S
C173 O175 1.274 . S
O174 Mg161 2.079 . S
O174 C173 1.245 . S
O175 Mg160 2.038 . S
O175 C173 1.274 . S
O176 Mg164 2.042 . S
O176 C179 1.241 . S
O177 Mg163 1.984 . S
O177 C179 1.280 . S
O178 Mg164 2.041 . S
O178 C182 1.277 . S
C179 O176 1.241 . S
C179 O177 1.280 . S
O180 Mg163 1.988 . S
O180 C182 1.245 . S
O181 C157 1.247 . S
O181 Mg163 2.061 . S
C182 O178 1.277 . S
C182 O180 1.245 . S
O183 C157 1.289 . S
O183 Mg160 2.238 . S
O183 Mg161 2.106 . S
O184 Mg161 2.079 . S
O184 C166 1.245 . S
O185 Mg164 2.038 . S
O185 C166 1.274 . S
C186 O198 1.241 . S
C186 O199 1.280 . S
C187 O200 1.277 . S
C187 O201 1.245 . S
C188 O212 1.247 . S
C188 O214 1.289 1_554 S
Mg189 O190 1.926 . S
Mg189 O199 1.984 . S
Mg189 O201 1.988 . S
Mg189 O202 2.061 . S
O190 Mg189 1.926 . S
O190 Mg191 1.986 . S
O190 Mg192 1.917 . S
Mg191 O190 1.986 . S
Mg191 O198 2.042 . S
Mg191 O200 2.041 . S
Mg191 O206 2.038 . S
Mg191 O214 2.238 . S
Mg192 O190 1.917 . S
Mg192 O193 1.917 . S
Mg192 O203 2.106 . S
Mg192 O205 2.079 . S
Mg192 O214 2.106 . S
Mg192 O215 2.079 . S
O193 Mg192 1.917 . S
O193 Mg194 1.926 . S
O193 Mg195 1.986 . S
Mg194 O193 1.926 . S
Mg194 O208 1.984 . S
Mg194 O211 1.988 . S
Mg194 O212 2.061 1_556 S
Mg195 O193 1.986 . S
Mg195 O203 2.238 . S
Mg195 O207 2.042 . S
Mg195 O209 2.041 . S
Mg195 O216 2.038 . S
C196 O202 1.247 . S
C196 O203 1.289 . S
C197 O215 1.245 . S
C197 O216 1.274 . S
O198 C186 1.241 . S
O198 Mg191 2.042 . S
O199 C186 1.280 . S
O199 Mg189 1.984 . S
O200 C187 1.277 . S
O200 Mg191 2.041 . S
O201 C187 1.245 . S
O201 Mg189 1.988 . S
O202 Mg189 2.061 . S
O202 C196 1.247 . S
O203 Mg192 2.106 . S
O203 Mg195 2.238 . S
O203 C196 1.289 . S
C204 O205 1.245 . S
C204 O206 1.274 . S
O205 Mg192 2.079 . S
O205 C204 1.245 . S
O206 Mg191 2.038 . S
O206 C204 1.274 . S
O207 Mg195 2.042 . S
O207 C210 1.241 . S
O208 Mg194 1.984 . S
O208 C210 1.280 . S
O209 Mg195 2.041 . S
O209 C213 1.277 . S
C210 O207 1.241 . S
C210 O208 1.280 . S
O211 Mg194 1.988 . S
O211 C213 1.245 . S
O212 C188 1.247 . S
O212 Mg194 2.061 1_554 S
C213 O209 1.277 . S
C213 O211 1.245 . S
O214 C188 1.289 1_556 S
O214 Mg191 2.238 . S
O214 Mg192 2.106 . S
O215 Mg192 2.079 . S
O215 C197 1.245 . S
O216 Mg195 2.038 . S
O216 C197 1.274 . S
C217 O229 1.241 . S
C217 O230 1.280 . S
C218 O231 1.277 . S
C218 O232 1.245 . S
C219 O243 1.247 . S
C219 O245 1.289 . S
Mg220 O221 1.926 . S
Mg220 O230 1.984 . S
Mg220 O232 1.988 . S
Mg220 O233 2.061 1_556 S
O221 Mg220 1.926 . S
O221 Mg222 1.986 . S
O221 Mg223 1.917 . S
Mg222 O221 1.986 . S
Mg222 O229 2.042 . S
Mg222 O231 2.041 . S
Mg222 O237 2.038 . S
Mg222 O245 2.238 . S
Mg223 O221 1.917 . S
Mg223 O224 1.917 . S
Mg223 O234 2.106 1_556 S
Mg223 O236 2.079 . S
Mg223 O245 2.106 . S
Mg223 O246 2.079 . S
O224 Mg223 1.917 . S
O224 Mg225 1.926 . S
O224 Mg226 1.986 . S
Mg225 O224 1.926 . S
Mg225 O239 1.984 . S
Mg225 O242 1.988 . S
Mg225 O243 2.061 . S
Mg226 O224 1.986 . S
Mg226 O234 2.238 1_556 S
Mg226 O238 2.042 . S
Mg226 O240 2.041 . S
Mg226 O247 2.038 . S
C227 O233 1.247 . S
C227 O234 1.289 . S
C228 O246 1.245 . S
C228 O247 1.274 . S
O229 C217 1.241 . S
O229 Mg222 2.042 . S
O230 C217 1.280 . S
O230 Mg220 1.984 . S
O231 C218 1.277 . S
O231 Mg222 2.041 . S
O232 C218 1.245 . S
O232 Mg220 1.988 . S
O233 Mg220 2.061 1_554 S
O233 C227 1.247 . S
O234 Mg223 2.106 1_554 S
O234 Mg226 2.238 1_554 S
O234 C227 1.289 . S
C235 O236 1.245 . S
C235 O237 1.274 . S
O236 Mg223 2.079 . S
O236 C235 1.245 . S
O237 Mg222 2.038 . S
O237 C235 1.274 . S
O238 Mg226 2.042 . S
O238 C241 1.241 . S
O239 Mg225 1.984 . S
O239 C241 1.280 . S
O240 Mg226 2.041 . S
O240 C244 1.277 . S
C241 O238 1.241 . S
C241 O239 1.280 . S
O242 Mg225 1.988 . S
O242 C244 1.245 . S
O243 C219 1.247 . S
O243 Mg225 2.061 . S
C244 O240 1.277 . S
C244 O242 1.245 . S
O245 C219 1.289 . S
O245 Mg222 2.238 . S
O245 Mg223 2.106 . S
O246 Mg223 2.079 . S
O246 C228 1.245 . S
O247 Mg226 2.038 . S
O247 C228 1.274 . S
C248 O260 1.241 . S
C248 O261 1.280 . S
C249 O262 1.277 . S
C249 O263 1.245 . S
C250 O274 1.247 . S
C250 O276 1.289 . S
Mg251 O252 1.926 . S
Mg251 O261 1.984 . S
Mg251 O263 1.988 . S
Mg251 O264 2.061 . S
O252 Mg251 1.926 . S
O252 Mg253 1.986 . S
O252 Mg254 1.917 . S
Mg253 O252 1.986 . S
Mg253 O260 2.042 . S
Mg253 O262 2.041 . S
Mg253 O268 2.038 . S
Mg253 O276 2.238 . S
Mg254 O252 1.917 . S
Mg254 O255 1.917 . S
Mg254 O265 2.106 . S
Mg254 O267 2.079 . S
Mg254 O276 2.106 . S
Mg254 O277 2.079 . S
O255 Mg254 1.917 . S
O255 Mg256 1.926 . S
O255 Mg257 1.986 . S
Mg256 O255 1.926 . S
Mg256 O270 1.984 . S
Mg256 O273 1.988 . S
Mg256 O274 2.061 . S
Mg257 O255 1.986 . S
Mg257 O265 2.238 . S
Mg257 O269 2.042 . S
Mg257 O271 2.041 . S
Mg257 O278 2.038 . S
C258 O264 1.247 . S
C258 O265 1.289 . S
C259 O277 1.245 . S
C259 O278 1.274 . S
O260 C248 1.241 . S
O260 Mg253 2.042 . S
O261 C248 1.280 . S
O261 Mg251 1.984 . S
O262 C249 1.277 . S
O262 Mg253 2.041 . S
O263 C249 1.245 . S
O263 Mg251 1.988 . S
O264 Mg251 2.061 . S
O264 C258 1.247 . S
O265 Mg254 2.106 . S
O265 Mg257 2.238 . S
O265 C258 1.289 . S
C266 O267 1.245 . S
C266 O268 1.274 . S
O267 Mg254 2.079 . S
O267 C266 1.245 . S
O268 Mg253 2.038 . S
O268 C266 1.274 . S
O269 Mg257 2.042 . S
O269 C272 1.241 . S
O270 Mg256 1.984 . S
O270 C272 1.280 . S
O271 Mg257 2.041 . S
O271 C275 1.277 . S
C272 O269 1.241 . S
C272 O270 1.280 . S
O273 Mg256 1.988 . S
O273 C275 1.245 . S
O274 C250 1.247 . S
O274 Mg256 2.061 . S
C275 O271 1.277 . S
C275 O273 1.245 . S
O276 C250 1.289 . S
O276 Mg253 2.238 . S
O276 Mg254 2.106 . S
O277 Mg254 2.079 . S
O277 C259 1.245 . S
O278 Mg257 2.038 . S
O278 C259 1.274 . S
C279 C280 1.369 . S
C279 C281 1.419 . S
C279 H283 0.930 . S
C280 C279 1.369 . S
C280 C289 1.429 . S
C281 C279 1.419 . S
C281 C282 1.363 . S
C281 H284 0.929 . S
C282 C281 1.363 . S
C282 C288 1.428 . S
H283 C279 0.930 . S
H284 C281 0.929 . S
S285 N286 1.613 . S
S285 N287 1.610 . S
N286 S285 1.613 . S
N286 C289 1.350 . S
N287 S285 1.610 . S
N287 C288 1.351 . S
C288 C282 1.428 . S
C288 N287 1.351 . S
C288 C289 1.434 . S
C289 C280 1.429 . S
C289 N286 1.350 . S
C289 C288 1.434 . S
C290 C291 1.369 . S
C290 C292 1.419 . S
C290 H294 0.930 . S
C291 C290 1.369 . S
C291 C300 1.429 . S
C292 C290 1.419 . S
C292 C293 1.363 . S
C292 H295 0.929 . S
C293 C292 1.363 . S
C293 C299 1.428 . S
H294 C290 0.930 . S
H295 C292 0.929 . S
S296 N297 1.613 . S
S296 N298 1.610 . S
N297 S296 1.613 . S
N297 C300 1.350 . S
N298 S296 1.610 . S
N298 C299 1.351 . S
C299 C293 1.428 . S
C299 N298 1.351 . S
C299 C300 1.434 . S
C300 C291 1.429 . S
C300 N297 1.350 . S
C300 C299 1.434 . S
C301 C302 1.369 1_554 S
C301 C303 1.419 . S
C301 H305 0.930 . S
C302 C301 1.369 1_556 S
C302 C311 1.429 . S
C303 C301 1.419 . S
C303 C304 1.363 . S
C303 H306 0.929 . S
C304 C303 1.363 . S
C304 C310 1.428 . S
H305 C301 0.930 . S
H306 C303 0.929 . S
S307 N308 1.613 . S
S307 N309 1.610 1_556 S
N308 S307 1.613 . S
N308 C311 1.350 . S
N309 S307 1.610 1_554 S
N309 C310 1.351 . S
C310 C304 1.428 . S
C310 N309 1.351 . S
C310 C311 1.434 1_554 S
C311 C302 1.429 . S
C311 N308 1.350 . S
C311 C310 1.434 1_556 S
C312 C313 1.369 . S
C312 C314 1.419 . S
C312 H316 0.930 . S
C313 C312 1.369 . S
C313 C322 1.429 . S
C314 C312 1.419 . S
C314 C315 1.363 . S
C314 H317 0.929 . S
C315 C314 1.363 . S
C315 C321 1.428 . S
H316 C312 0.930 . S
H317 C314 0.929 . S
S318 N319 1.613 . S
S318 N320 1.610 . S
N319 S318 1.613 . S
N319 C322 1.350 . S
N320 S318 1.610 . S
N320 C321 1.351 . S
C321 C315 1.428 . S
C321 N320 1.351 . S
C321 C322 1.434 . S
C322 C313 1.429 . S
C322 N319 1.350 . S
C322 C321 1.434 . S
C323 C324 1.369 . S
C323 C325 1.419 . S
C323 H327 0.930 . S
C324 C323 1.369 . S
C324 C333 1.429 . S
C325 C323 1.419 . S
C325 C326 1.363 . S
C325 H328 0.929 . S
C326 C325 1.363 . S
C326 C332 1.428 . S
H327 C323 0.930 . S
H328 C325 0.929 . S
S329 N330 1.613 . S
S329 N331 1.610 1_556 S
N330 S329 1.613 . S
N330 C333 1.350 1_556 S
N331 S329 1.610 1_554 S
N331 C332 1.351 . S
C332 C326 1.428 . S
C332 N331 1.351 . S
C332 C333 1.434 . S
C333 C324 1.429 . S
C333 N330 1.350 1_554 S
C333 C332 1.434 . S
C334 C335 1.369 1_556 S
C334 C336 1.419 1_556 S
C334 H338 0.930 . S
C335 C334 1.369 1_554 S
C335 C344 1.429 . S
C336 C334 1.419 1_554 S
C336 C337 1.363 . S
C336 H339 0.929 . S
C337 C336 1.363 . S
C337 C343 1.428 . S
H338 C334 0.930 . S
H339 C336 0.929 . S
S340 N341 1.613 . S
S340 N342 1.610 . S
N341 S340 1.613 . S
N341 C344 1.350 . S
N342 S340 1.610 . S
N342 C343 1.351 . S
C343 C337 1.428 . S
C343 N342 1.351 . S
C343 C344 1.434 . S
C344 C335 1.429 . S
C344 N341 1.350 . S
C344 C343 1.434 . S
C345 C346 1.369 . S
C345 C347 1.419 . S
C345 H349 0.930 . S
C346 C345 1.369 . S
C346 C355 1.429 . S
C347 C345 1.419 . S
C347 C348 1.363 . S
C347 H350 0.929 . S
C348 C347 1.363 . S
C348 C354 1.428 . S
H349 C345 0.930 . S
H350 C347 0.929 . S
S351 N352 1.613 . S
S351 N353 1.610 . S
N352 S351 1.613 . S
N352 C355 1.350 . S
N353 S351 1.610 . S
N353 C354 1.351 . S
C354 C348 1.428 . S
C354 N353 1.351 . S
C354 C355 1.434 . S
C355 C346 1.429 . S
C355 N352 1.350 . S
C355 C354 1.434 . S
C356 C357 1.369 . S
C356 C358 1.419 . S
C356 H360 0.930 . S
C357 C356 1.369 . S
C357 C366 1.429 . S
C358 C356 1.419 . S
C358 C359 1.363 . S
C358 H361 0.929 . S
C359 C358 1.363 . S
C359 C365 1.428 . S
H360 C356 0.930 . S
H361 C358 0.929 . S
S362 N363 1.613 . S
S362 N364 1.610 . S
N363 S362 1.613 . S
N363 C366 1.350 . S
N364 S362 1.610 . S
N364 C365 1.351 . S
C365 C359 1.428 . S
C365 N364 1.351 . S
C365 C366 1.434 . S
C366 C357 1.429 . S
C366 N363 1.350 . S
C366 C365 1.434 . S
C367 C368 1.369 . S
C367 C369 1.419 . S
C367 H371 0.930 . S
C368 C367 1.369 . S
C368 C377 1.429 . S
C369 C367 1.419 . S
C369 C370 1.363 . S
C369 H372 0.929 . S
C370 C369 1.363 . S
C370 C376 1.428 . S
H371 C367 0.930 . S
H372 C369 0.929 . S
S373 N374 1.613 . S
S373 N375 1.610 1_565 S
N374 S373 1.613 . S
N374 C377 1.350 1_565 S
N375 S373 1.610 1_545 S
N375 C376 1.351 . S
C376 C370 1.428 . S
C376 N375 1.351 . S
C376 C377 1.434 . S
C377 C368 1.429 . S
C377 N374 1.350 1_545 S
C377 C376 1.434 . S
C378 C379 1.369 . S
C378 C380 1.419 1_545 S
C378 H382 0.930 . S
C379 C378 1.369 . S
C379 C388 1.429 . S
C380 C378 1.419 1_565 S
C380 C381 1.363 . S
C380 H383 0.929 . S
C381 C380 1.363 . S
C381 C387 1.428 1_565 S
H382 C378 0.930 . S
H383 C380 0.929 . S
S384 N385 1.613 . S
S384 N386 1.610 . S
N385 S384 1.613 . S
N385 C388 1.350 . S
N386 S384 1.610 . S
N386 C387 1.351 . S
C387 C381 1.428 1_545 S
C387 N386 1.351 . S
C387 C388 1.434 . S
C388 C379 1.429 . S
C388 N385 1.350 . S
C388 C387 1.434 . S
C389 C390 1.369 . S
C389 C391 1.419 . S
C389 H393 0.930 . S
C390 C389 1.369 . S
C390 C399 1.429 . S
C391 C389 1.419 . S
C391 C392 1.363 . S
C391 H394 0.929 . S
C392 C391 1.363 . S
C392 C398 1.428 . S
H393 C389 0.930 . S
H394 C391 0.929 . S
S395 N396 1.613 1_655 S
S395 N397 1.610 . S
N396 S395 1.613 1_455 S
N396 C399 1.350 1_455 S
N397 S395 1.610 . S
N397 C398 1.351 . S
C398 C392 1.428 . S
C398 N397 1.351 . S
C398 C399 1.434 . S
C399 C390 1.429 . S
C399 N396 1.350 1_655 S
C399 C398 1.434 . S
C400 C401 1.369 . S
C400 C402 1.419 . S
C400 H404 0.930 . S
C401 C400 1.369 . S
C401 C410 1.429 . S
C402 C400 1.419 . S
C402 C403 1.363 . S
C402 H405 0.929 . S
C403 C402 1.363 . S
C403 C409 1.428 . S
H404 C400 0.930 . S
H405 C402 0.929 . S
S406 N407 1.613 . S
S406 N408 1.610 . S
N407 S406 1.613 . S
N407 C410 1.350 . S
N408 S406 1.610 . S
N408 C409 1.351 . S
C409 C403 1.428 . S
C409 N408 1.351 . S
C409 C410 1.434 . S
C410 C401 1.429 . S
C410 N407 1.350 . S
C410 C409 1.434 . S
C411 C412 1.369 1_554 S
C411 C413 1.419 . S
C411 H415 0.930 . S
C412 C411 1.369 1_556 S
C412 C421 1.429 . S
C413 C411 1.419 . S
C413 C414 1.363 . S
C413 H416 0.929 . S
C414 C413 1.363 . S
C414 C420 1.428 1_554 S
H415 C411 0.930 . S
H416 C413 0.929 . S
S417 N418 1.613 . S
S417 N419 1.610 . S
N418 S417 1.613 . S
N418 C421 1.350 . S
N419 S417 1.610 . S
N419 C420 1.351 . S
C420 C414 1.428 1_556 S
C420 N419 1.351 . S
C420 C421 1.434 . S
C421 C412 1.429 . S
C421 N418 1.350 . S
C421 C420 1.434 . S
C422 C423 1.369 . S
C422 C424 1.419 . S
C422 H426 0.930 . S
C423 C422 1.369 . S
C423 C432 1.429 . S
C424 C422 1.419 . S
C424 C425 1.363 . S
C424 H427 0.929 . S
C425 C424 1.363 . S
C425 C431 1.428 . S
H426 C422 0.930 . S
H427 C424 0.929 . S
S428 N429 1.613 . S
S428 N430 1.610 . S
N429 S428 1.613 . S
N429 C432 1.350 . S
N430 S428 1.610 . S
N430 C431 1.351 . S
C431 C425 1.428 . S
C431 N430 1.351 . S
C431 C432 1.434 . S
C432 C423 1.429 . S
C432 N429 1.350 . S
C432 C431 1.434 . S
C433 C434 1.369 . S
C433 C435 1.419 . S
C433 H437 0.930 . S
C434 C433 1.369 . S
C434 C443 1.429 . S
C435 C433 1.419 . S
C435 C436 1.363 . S
C435 H438 0.929 . S
C436 C435 1.363 . S
C436 C442 1.428 . S
H437 C433 0.930 . S
H438 C435 0.929 . S
S439 N440 1.613 . S
S439 N441 1.610 . S
N440 S439 1.613 . S
N440 C443 1.350 . S
N441 S439 1.610 . S
N441 C442 1.351 . S
C442 C436 1.428 . S
C442 N441 1.351 . S
C442 C443 1.434 . S
C443 C434 1.429 . S
C443 N440 1.350 . S
C443 C442 1.434 . S
C444 C445 1.369 . S
C444 C446 1.419 . S
C444 H448 0.930 . S
C445 C444 1.369 . S
C445 C454 1.429 1_554 S
C446 C444 1.419 . S
C446 C447 1.363 1_554 S
C446 H449 0.929 . S
C447 C446 1.363 1_556 S
C447 C453 1.428 . S
H448 C444 0.930 . S
H449 C446 0.929 . S
S450 N451 1.613 . S
S450 N452 1.610 . S
N451 S450 1.613 . S
N451 C454 1.350 . S
N452 S450 1.610 . S
N452 C453 1.351 . S
C453 C447 1.428 . S
C453 N452 1.351 . S
C453 C454 1.434 . S
C454 C445 1.429 1_556 S
C454 N451 1.350 . S
C454 C453 1.434 . S
C455 C456 1.369 . S
C455 C457 1.419 . S
C455 H459 0.930 . S
C456 C455 1.369 . S
C456 C465 1.429 . S
C457 C455 1.419 . S
C457 C458 1.363 . S
C457 H460 0.929 . S
C458 C457 1.363 . S
C458 C464 1.428 . S
H459 C455 0.930 . S
H460 C457 0.929 . S
S461 N462 1.613 . S
S461 N463 1.610 1_554 S
N462 S461 1.613 . S
N462 C465 1.350 1_554 S
N463 S461 1.610 1_556 S
N463 C464 1.351 . S
C464 C458 1.428 . S
C464 N463 1.351 . S
C464 C465 1.434 . S
C465 C456 1.429 . S
C465 N462 1.350 1_556 S
C465 C464 1.434 . S
C466 C467 1.369 . S
C466 C468 1.419 . S
C466 H470 0.930 . S
C467 C466 1.369 . S
C467 C476 1.429 . S
C468 C466 1.419 . S
C468 C469 1.363 . S
C468 H471 0.929 . S
C469 C468 1.363 . S
C469 C475 1.428 . S
H470 C466 0.930 . S
H471 C468 0.929 . S
S472 N473 1.613 1_554 S
S472 N474 1.610 1_554 S
N473 S472 1.613 1_556 S
N473 C476 1.350 . S
N474 S472 1.610 1_556 S
N474 C475 1.351 . S
C475 C469 1.428 . S
C475 N474 1.351 . S
C475 C476 1.434 . S
C476 C467 1.429 . S
C476 N473 1.350 . S
C476 C475 1.434 . S
C477 C478 1.369 . S
C477 C479 1.419 . S
C477 H481 0.930 1_554 S
C478 C477 1.369 . S
C478 C487 1.429 . S
C479 C477 1.419 . S
C479 C480 1.363 . S
C479 H482 0.929 . S
C480 C479 1.363 . S
C480 C486 1.428 . S
H481 C477 0.930 1_556 S
H482 C479 0.929 . S
S483 N484 1.613 . S
S483 N485 1.610 . S
N484 S483 1.613 . S
N484 C487 1.350 . S
N485 S483 1.610 . S
N485 C486 1.351 . S
C486 C480 1.428 . S
C486 N485 1.351 . S
C486 C487 1.434 . S
C487 C478 1.429 . S
C487 N484 1.350 . S
C487 C486 1.434 . S
C488 C489 1.369 . S
C488 C490 1.419 . S
C488 H492 0.930 . S
C489 C488 1.369 . S
C489 C498 1.429 . S
C490 C488 1.419 . S
C490 C491 1.363 . S
C490 H493 0.929 . S
C491 C490 1.363 . S
C491 C497 1.428 . S
H492 C488 0.930 . S
H493 C490 0.929 . S
S494 N495 1.613 1_556 S
S494 N496 1.610 1_556 S
N495 S494 1.613 1_554 S
N495 C498 1.350 . S
N496 S494 1.610 1_554 S
N496 C497 1.351 . S
C497 C491 1.428 . S
C497 N496 1.351 . S
C497 C498 1.434 . S
C498 C489 1.429 . S
C498 N495 1.350 . S
C498 C497 1.434 . S
C499 C500 1.369 . S
C499 C501 1.419 . S
C499 H503 0.930 . S
C500 C499 1.369 . S
C500 C509 1.429 . S
C501 C499 1.419 . S
C501 C502 1.363 . S
C501 H504 0.929 . S
C502 C501 1.363 . S
C502 C508 1.428 . S
H503 C499 0.930 . S
H504 C501 0.929 . S
S505 N506 1.613 . S
S505 N507 1.610 . S
N506 S505 1.613 . S
N506 C509 1.350 1_556 S
N507 S505 1.610 . S
N507 C508 1.351 1_556 S
C508 C502 1.428 . S
C508 N507 1.351 1_554 S
C508 C509 1.434 . S
C509 C500 1.429 . S
C509 N506 1.350 1_554 S
C509 C508 1.434 . S
C510 C511 1.369 . S
C510 C512 1.419 . S
C510 H514 0.930 . S
C511 C510 1.369 . S
C511 C520 1.429 . S
C512 C510 1.419 . S
C512 C513 1.363 . S
C512 H515 0.929 . S
C513 C512 1.363 . S
C513 C519 1.428 . S
H514 C510 0.930 . S
H515 C512 0.929 . S
S516 N517 1.613 . S
S516 N518 1.610 . S
N517 S516 1.613 . S
N517 C520 1.350 . S
N518 S516 1.610 . S
N518 C519 1.351 . S
C519 C513 1.428 . S
C519 N518 1.351 . S
C519 C520 1.434 . S
C520 C511 1.429 . S
C520 N517 1.350 . S
C520 C519 1.434 . S
C521 C522 1.369 . S
C521 C523 1.419 . S
C521 H525 0.930 . S
C522 C521 1.369 . S
C522 C531 1.429 . S
C523 C521 1.419 . S
C523 C524 1.363 . S
C523 H526 0.929 . S
C524 C523 1.363 . S
C524 C530 1.428 . S
H525 C521 0.930 . S
H526 C523 0.929 . S
S527 N528 1.613 . S
S527 N529 1.610 . S
N528 S527 1.613 . S
N528 C531 1.350 . S
N529 S527 1.610 . S
N529 C530 1.351 . S
C530 C524 1.428 . S
C530 N529 1.351 . S
C530 C531 1.434 . S
C531 C522 1.429 . S
C531 N528 1.350 . S
C531 C530 1.434 . S
C532 C533 1.369 . S
C532 C534 1.419 . S
C532 H536 0.930 . S
C533 C532 1.369 . S
C533 C542 1.429 . S
C534 C532 1.419 . S
C534 C535 1.363 . S
C534 H537 0.929 . S
C535 C534 1.363 . S
C535 C541 1.428 . S
H536 C532 0.930 . S
H537 C534 0.929 . S
S538 N539 1.613 . S
S538 N540 1.610 . S
N539 S538 1.613 . S
N539 C542 1.350 . S
N540 S538 1.610 . S
N540 C541 1.351 . S
C541 C535 1.428 . S
C541 N540 1.351 . S
C541 C542 1.434 . S
C542 C533 1.429 . S
C542 N539 1.350 . S
C542 C541 1.434 . S
C543 C544 1.369 . S
C543 C545 1.419 . S
C543 H547 0.930 . S
C544 C543 1.369 . S
C544 C553 1.429 . S
C545 C543 1.419 . S
C545 C546 1.363 . S
C545 H548 0.929 . S
C546 C545 1.363 . S
C546 C552 1.428 . S
H547 C543 0.930 . S
H548 C545 0.929 . S
S549 N550 1.613 . S
S549 N551 1.610 . S
N550 S549 1.613 . S
N550 C553 1.350 . S
N551 S549 1.610 . S
N551 C552 1.351 . S
C552 C546 1.428 . S
C552 N551 1.351 . S
C552 C553 1.434 . S
C553 C544 1.429 . S
C553 N550 1.350 . S
C553 C552 1.434 . S
C554 C555 1.369 . S
C554 C556 1.419 . S
C554 H558 0.930 . S
C555 C554 1.369 . S
C555 C564 1.429 1_556 S
C556 C554 1.419 . S
C556 C557 1.363 . S
C556 H559 0.929 . S
C557 C556 1.363 . S
C557 C563 1.428 1_556 S
H558 C554 0.930 . S
H559 C556 0.929 . S
S560 N561 1.613 . S
S560 N562 1.610 . S
N561 S560 1.613 . S
N561 C564 1.350 . S
N562 S560 1.610 . S
N562 C563 1.351 . S
C563 C557 1.428 1_554 S
C563 N562 1.351 . S
C563 C564 1.434 . S
C564 C555 1.429 1_554 S
C564 N561 1.350 . S
C564 C563 1.434 . S
C565 C566 1.369 . S
C565 C567 1.419 . S
C565 H569 0.930 . S
C566 C565 1.369 . S
C566 C575 1.429 . S
C567 C565 1.419 . S
C567 C568 1.363 . S
C567 H570 0.929 . S
C568 C567 1.363 . S
C568 C574 1.428 . S
H569 C565 0.930 . S
H570 C567 0.929 . S
S571 N572 1.613 . S
S571 N573 1.610 . S
N572 S571 1.613 . S
N572 C575 1.350 . S
N573 S571 1.610 . S
N573 C574 1.351 . S
C574 C568 1.428 . S
C574 N573 1.351 . S
C574 C575 1.434 . S
C575 C566 1.429 . S
C575 N572 1.350 . S
C575 C574 1.434 . S
C576 C577 1.369 . S
C576 C578 1.419 . S
C576 H580 0.930 . S
C577 C576 1.369 . S
C577 C586 1.429 . S
C578 C576 1.419 . S
C578 C579 1.363 . S
C578 H581 0.929 . S
C579 C578 1.363 . S
C579 C585 1.428 . S
H580 C576 0.930 . S
H581 C578 0.929 . S
S582 N583 1.613 . S
S582 N584 1.610 . S
N583 S582 1.613 . S
N583 C586 1.350 . S
N584 S582 1.610 . S
N584 C585 1.351 . S
C585 C579 1.428 . S
C585 N584 1.351 . S
C585 C586 1.434 . S
C586 C577 1.429 . S
C586 N583 1.350 . S
C586 C585 1.434 . S
C587 C588 1.369 . S
C587 C589 1.419 . S
C587 H591 0.930 . S
C588 C587 1.369 . S
C588 C597 1.429 . S
C589 C587 1.419 . S
C589 C590 1.363 . S
C589 H592 0.929 . S
C590 C589 1.363 . S
C590 C596 1.428 . S
H591 C587 0.930 . S
H592 C589 0.929 . S
S593 N594 1.613 . S
S593 N595 1.610 . S
N594 S593 1.613 . S
N594 C597 1.350 . S
N595 S593 1.610 . S
N595 C596 1.351 . S
C596 C590 1.428 . S
C596 N595 1.351 . S
C596 C597 1.434 . S
C597 C588 1.429 . S
C597 N594 1.350 . S
C597 C596 1.434 . S
C598 C599 1.369 . S
C598 C600 1.419 . S
C598 H602 0.930 . S
C599 C598 1.369 . S
C599 C608 1.429 . S
C600 C598 1.419 . S
C600 C601 1.363 . S
C600 H603 0.929 . S
C601 C600 1.363 . S
C601 C607 1.428 . S
H602 C598 0.930 . S
H603 C600 0.929 . S
S604 N605 1.613 . S
S604 N606 1.610 . S
N605 S604 1.613 . S
N605 C608 1.350 . S
N606 S604 1.610 . S
N606 C607 1.351 . S
C607 C601 1.428 . S
C607 N606 1.351 . S
C607 C608 1.434 . S
C608 C599 1.429 . S
C608 N605 1.350 . S
C608 C607 1.434 . S
C609 C610 1.369 . S
C609 C611 1.419 . S
C609 H613 0.930 . S
C610 C609 1.369 . S
C610 C619 1.429 . S
C611 C609 1.419 . S
C611 C612 1.363 1_556 S
C611 H614 0.929 1_556 S
C612 C611 1.363 1_554 S
C612 C618 1.428 1_554 S
H613 C609 0.930 . S
H614 C611 0.929 1_554 S
S615 N616 1.613 . S
S615 N617 1.610 1_556 S
N616 S615 1.613 . S
N616 C619 1.350 . S
N617 S615 1.610 1_554 S
N617 C618 1.351 1_554 S
C618 C612 1.428 1_556 S
C618 N617 1.351 1_556 S
C618 C619 1.434 . S
C619 C610 1.429 . S
C619 N616 1.350 . S
C619 C618 1.434 . S
C620 C621 1.369 . S
C620 C622 1.419 1_554 S
C620 H624 0.930 . S
C621 C620 1.369 . S
C621 C630 1.429 . S
C622 C620 1.419 1_556 S
C622 C623 1.363 . S
C622 H625 0.929 . S
C623 C622 1.363 . S
C623 C629 1.428 . S
H624 C620 0.930 . S
H625 C622 0.929 . S
S626 N627 1.613 1_556 S
S626 N628 1.610 . S
N627 S626 1.613 1_554 S
N627 C630 1.350 . S
N628 S626 1.610 . S
N628 C629 1.351 . S
C629 C623 1.428 . S
C629 N628 1.351 . S
C629 C630 1.434 1_556 S
C630 C621 1.429 . S
C630 N627 1.350 . S
C630 C629 1.434 1_554 S
C631 C632 1.369 . S
C631 C633 1.419 . S
C631 H635 0.930 . S
C632 C631 1.369 . S
C632 C641 1.429 . S
C633 C631 1.419 . S
C633 C634 1.363 . S
C633 H636 0.929 . S
C634 C633 1.363 . S
C634 C640 1.428 . S
H635 C631 0.930 . S
H636 C633 0.929 . S
S637 N638 1.613 . S
S637 N639 1.610 . S
N638 S637 1.613 . S
N638 C641 1.350 . S
N639 S637 1.610 . S
N639 C640 1.351 . S
C640 C634 1.428 . S
C640 N639 1.351 . S
C640 C641 1.434 . S
C641 C632 1.429 . S
C641 N638 1.350 . S
C641 C640 1.434 . S
C642 C643 1.369 . S
C642 C644 1.419 . S
C642 H646 0.930 . S
C643 C642 1.369 . S
C643 C652 1.429 . S
C644 C642 1.419 . S
C644 C645 1.363 . S
C644 H647 0.929 . S
C645 C644 1.363 . S
C645 C651 1.428 . S
H646 C642 0.930 . S
H647 C644 0.929 . S
S648 N649 1.613 . S
S648 N650 1.610 . S
N649 S648 1.613 . S
N649 C652 1.350 . S
N650 S648 1.610 . S
N650 C651 1.351 . S
C651 C645 1.428 . S
C651 N650 1.351 . S
C651 C652 1.434 . S
C652 C643 1.429 . S
C652 N649 1.350 . S
C652 C651 1.434 . S
C653 C654 1.369 . S
C653 C655 1.419 . S
C653 H657 0.930 . S
C654 C653 1.369 . S
C654 C663 1.429 . S
C655 C653 1.419 . S
C655 C656 1.363 . S
C655 H658 0.929 . S
C656 C655 1.363 . S
C656 C662 1.428 . S
H657 C653 0.930 . S
H658 C655 0.929 . S
S659 N660 1.613 . S
S659 N661 1.610 . S
N660 S659 1.613 . S
N660 C663 1.350 . S
N661 S659 1.610 . S
N661 C662 1.351 . S
C662 C656 1.428 . S
C662 N661 1.351 . S
C662 C663 1.434 . S
C663 C654 1.429 . S
C663 N660 1.350 . S
C663 C662 1.434 . S
C664 C665 1.369 . S
C664 C666 1.419 . S
C664 H668 0.930 . S
C665 C664 1.369 . S
C665 C674 1.429 . S
C666 C664 1.419 . S
C666 C667 1.363 . S
C666 H669 0.929 . S
C667 C666 1.363 . S
C667 C673 1.428 . S
H668 C664 0.930 . S
H669 C666 0.929 . S
S670 N671 1.613 . S
S670 N672 1.610 . S
N671 S670 1.613 . S
N671 C674 1.350 . S
N672 S670 1.610 . S
N672 C673 1.351 . S
C673 C667 1.428 . S
C673 N672 1.351 . S
C673 C674 1.434 . S
C674 C665 1.429 . S
C674 N671 1.350 . S
C674 C673 1.434 . S
C280 C24 1.886 . S
C282 C135 1.938 . S
C291 C166 1.932 . S
C293 C55 1.694 . S
C302 C86 1.744 . S
C304 C120 2.041 . S
C313 C31 1.591 . S
C315 C111 1.619 . S
C324 C62 1.529 . S
C326 C125 1.604 . S
C335 C0 1.421 . S
C337 C156 1.600 . S
C346 C117 1.892 . S
C348 C228 1.941 1_655 S
C357 C259 1.928 . S
C359 C148 1.701 . S
C368 C213 2.042 1_545 S
C370 C179 1.740 . S
C379 C124 1.595 . S
C381 C204 1.621 . S
C390 C218 1.603 1_655 S
C392 C155 1.524 . S
C401 C249 1.599 . S
C403 C93 1.433 . S
C412 C210 1.892 . S
C414 C42 1.939 . S
C423 C241 1.703 . S
C425 C73 1.929 1_556 S
C434 C27 2.044 . S
C436 C272 1.732 . S
C445 C18 1.617 . S
C447 C217 1.590 . S
C456 C32 1.605 1_556 S
C458 C248 1.529 . S
C467 C186 1.420 . S
C469 C63 1.600 . S
C478 C80 1.841 1_544 S
C480 C11 1.838 . S
C489 C1 1.556 1_655 S
C491 C58 1.529 1_545 S
C500 C49 1.719 . S
C502 C89 1.601 . S
C511 C173 1.844 . S
C513 C104 1.836 . S
C522 C94 1.557 . S
C524 C151 1.530 . S
C533 C142 1.719 . S
C535 C182 1.601 . S
C544 C197 1.835 . S
C546 C266 1.842 . S
C555 C244 1.539 . S
C557 C187 1.564 . S
C566 C275 1.601 . S
C568 C235 1.720 . S
C577 C10 0.957 . S
C579 C2 0.944 . S
C588 C41 0.957 . S
C590 C33 0.948 . S
C599 C64 0.951 . S
C601 C72 0.948 . S
C610 C95 0.951 . S
C612 C103 0.949 . S
C621 C126 0.955 . S
C623 C134 0.949 . S
C632 C165 0.955 . S
C634 C157 0.944 1_556 S
C643 C196 0.954 . S
C645 C188 0.947 . S
C654 C219 0.959 . S
C656 C227 0.946 . S
C665 C250 0.948 . S
C667 C258 0.949 1_554 S
