# Generated by pormake.
# Topology smn, (6)-cn, num edge types: 1
# Building blocks:
#     Node 0, Type 0, BuildingBlock: OJICUG_clean_sbu_0, # of connection points: 6
#     Node 1, Type 0, BuildingBlock: OJICUG_clean_sbu_0, # of connection points: 6
#     Node 2, Type 0, BuildingBlock: OJICUG_clean_sbu_0, # of connection points: 6
#     Node 3, Type 0, BuildingBlock: OJICUG_clean_sbu_0, # of connection points: 6
#     Node 4, Type 0, BuildingBlock: OJICUG_clean_sbu_0, # of connection points: 6
#     Node 5, Type 0, BuildingBlock: OJICUG_clean_sbu_0, # of connection points: 6
#     Node 6, Type 0, BuildingBlock: OJICUG_clean_sbu_0, # of connection points: 6
#     Node 7, Type 0, BuildingBlock: OJICUG_clean_sbu_0, # of connection points: 6
#     Node 8, Type 0, BuildingBlock: OJICUG_clean_sbu_0, # of connection points: 6
#     Node 9, Type 0, BuildingBlock: OJICUG_clean_sbu_0, # of connection points: 6
#     Node 10, Type 0, BuildingBlock: OJICUG_clean_sbu_0, # of connection points: 6
#     Node 11, Type 0, BuildingBlock: OJICUG_clean_sbu_0, # of connection points: 6
#     Node 12, Type 0, BuildingBlock: OJICUG_clean_sbu_0, # of connection points: 6
#     Node 13, Type 0, BuildingBlock: OJICUG_clean_sbu_0, # of connection points: 6
#     Node 14, Type 0, BuildingBlock: OJICUG_clean_sbu_0, # of connection points: 6
#     Node 15, Type 0, BuildingBlock: OJICUG_clean_sbu_0, # of connection points: 6
#     Node 16, Type 0, BuildingBlock: OJICUG_clean_sbu_0, # of connection points: 6
#     Node 17, Type 0, BuildingBlock: OJICUG_clean_sbu_0, # of connection points: 6
#     Edge 18, Type (0, 0), BuildingBlock: XUDNAN_clean_linker_2, # of connection points: 2
#     Edge 19, Type (0, 0), BuildingBlock: XUDNAN_clean_linker_2, # of connection points: 2
#     Edge 20, Type (0, 0), BuildingBlock: XUDNAN_clean_linker_2, # of connection points: 2
#     Edge 21, Type (0, 0), BuildingBlock: XUDNAN_clean_linker_2, # of connection points: 2
#     Edge 22, Type (0, 0), BuildingBlock: XUDNAN_clean_linker_2, # of connection points: 2
#     Edge 23, Type (0, 0), BuildingBlock: XUDNAN_clean_linker_2, # of connection points: 2
#     Edge 24, Type (0, 0), BuildingBlock: XUDNAN_clean_linker_2, # of connection points: 2
#     Edge 25, Type (0, 0), BuildingBlock: XUDNAN_clean_linker_2, # of connection points: 2
#     Edge 26, Type (0, 0), BuildingBlock: XUDNAN_clean_linker_2, # of connection points: 2
#     Edge 27, Type (0, 0), BuildingBlock: XUDNAN_clean_linker_2, # of connection points: 2
#     Edge 28, Type (0, 0), BuildingBlock: XUDNAN_clean_linker_2, # of connection points: 2
#     Edge 29, Type (0, 0), BuildingBlock: XUDNAN_clean_linker_2, # of connection points: 2
#     Edge 30, Type (0, 0), BuildingBlock: XUDNAN_clean_linker_2, # of connection points: 2
#     Edge 31, Type (0, 0), BuildingBlock: XUDNAN_clean_linker_2, # of connection points: 2
#     Edge 32, Type (0, 0), BuildingBlock: XUDNAN_clean_linker_2, # of connection points: 2
#     Edge 33, Type (0, 0), BuildingBlock: XUDNAN_clean_linker_2, # of connection points: 2
#     Edge 34, Type (0, 0), BuildingBlock: XUDNAN_clean_linker_2, # of connection points: 2
#     Edge 35, Type (0, 0), BuildingBlock: XUDNAN_clean_linker_2, # of connection points: 2
#     Edge 36, Type (0, 0), BuildingBlock: XUDNAN_clean_linker_2, # of connection points: 2
#     Edge 37, Type (0, 0), BuildingBlock: XUDNAN_clean_linker_2, # of connection points: 2
#     Edge 38, Type (0, 0), BuildingBlock: XUDNAN_clean_linker_2, # of connection points: 2
#     Edge 39, Type (0, 0), BuildingBlock: XUDNAN_clean_linker_2, # of connection points: 2
#     Edge 40, Type (0, 0), BuildingBlock: XUDNAN_clean_linker_2, # of connection points: 2
#     Edge 41, Type (0, 0), BuildingBlock: XUDNAN_clean_linker_2, # of connection points: 2
#     Edge 42, Type (0, 0), BuildingBlock: XUDNAN_clean_linker_2, # of connection points: 2
#     Edge 43, Type (0, 0), BuildingBlock: XUDNAN_clean_linker_2, # of connection points: 2
#     Edge 44, Type (0, 0), BuildingBlock: XUDNAN_clean_linker_2, # of connection points: 2
#     Edge 45, Type (0, 0), BuildingBlock: XUDNAN_clean_linker_2, # of connection points: 2
#     Edge 46, Type (0, 0), BuildingBlock: XUDNAN_clean_linker_2, # of connection points: 2
#     Edge 47, Type (0, 0), BuildingBlock: XUDNAN_clean_linker_2, # of connection points: 2
#     Edge 48, Type (0, 0), BuildingBlock: XUDNAN_clean_linker_2, # of connection points: 2
#     Edge 49, Type (0, 0), BuildingBlock: XUDNAN_clean_linker_2, # of connection points: 2
#     Edge 50, Type (0, 0), BuildingBlock: XUDNAN_clean_linker_2, # of connection points: 2
#     Edge 51, Type (0, 0), BuildingBlock: XUDNAN_clean_linker_2, # of connection points: 2
#     Edge 52, Type (0, 0), BuildingBlock: XUDNAN_clean_linker_2, # of connection points: 2
#     Edge 53, Type (0, 0), BuildingBlock: XUDNAN_clean_linker_2, # of connection points: 2
#     Edge 54, Type (0, 0), BuildingBlock: XUDNAN_clean_linker_2, # of connection points: 2
#     Edge 55, Type (0, 0), BuildingBlock: XUDNAN_clean_linker_2, # of connection points: 2
#     Edge 56, Type (0, 0), BuildingBlock: XUDNAN_clean_linker_2, # of connection points: 2
#     Edge 57, Type (0, 0), BuildingBlock: XUDNAN_clean_linker_2, # of connection points: 2
#     Edge 58, Type (0, 0), BuildingBlock: XUDNAN_clean_linker_2, # of connection points: 2
#     Edge 59, Type (0, 0), BuildingBlock: XUDNAN_clean_linker_2, # of connection points: 2
#     Edge 60, Type (0, 0), BuildingBlock: XUDNAN_clean_linker_2, # of connection points: 2
#     Edge 61, Type (0, 0), BuildingBlock: XUDNAN_clean_linker_2, # of connection points: 2
#     Edge 62, Type (0, 0), BuildingBlock: XUDNAN_clean_linker_2, # of connection points: 2
#     Edge 63, Type (0, 0), BuildingBlock: XUDNAN_clean_linker_2, # of connection points: 2
#     Edge 64, Type (0, 0), BuildingBlock: XUDNAN_clean_linker_2, # of connection points: 2
#     Edge 65, Type (0, 0), BuildingBlock: XUDNAN_clean_linker_2, # of connection points: 2
#     Edge 66, Type (0, 0), BuildingBlock: XUDNAN_clean_linker_2, # of connection points: 2
#     Edge 67, Type (0, 0), BuildingBlock: XUDNAN_clean_linker_2, # of connection points: 2
#     Edge 68, Type (0, 0), BuildingBlock: XUDNAN_clean_linker_2, # of connection points: 2
#     Edge 69, Type (0, 0), BuildingBlock: XUDNAN_clean_linker_2, # of connection points: 2
#     Edge 70, Type (0, 0), BuildingBlock: XUDNAN_clean_linker_2, # of connection points: 2
#     Edge 71, Type (0, 0), BuildingBlock: XUDNAN_clean_linker_2, # of connection points: 2
# Relax obj value: 0.148
# Max RMSD: 0.236
# Mean RMSD: 0.236
data_MOF--net-smn--node1-OJICUG_clean_sbu_0--edge1-XUDNAN_clean_linker_2
_symmetry_space_group_name_H-M    P1
_symmetry_Int_Tables_number       1
_symmetry_cell_setting            triclinic
loop_
_symmetry_equiv_pos_as_xyz
'x, y, z'
_cell_length_a     65.784253
_cell_length_b     65.752419
_cell_length_c     18.201926
_cell_angle_alpha  89.924729
_cell_angle_beta   89.954138
_cell_angle_gamma 120.02247
loop_
_atom_site_label
_atom_site_type_symbol
_atom_site_fract_x
_atom_site_fract_y
_atom_site_fract_z
_atom_type_partial_charge
Sc0 Sc 0.00743 0.17386 0.73818 0.0
Sc1 Sc 0.02035 0.22585 0.8315 0.0
Sc2 Sc 0.99307 0.21307 0.65661 0.0
O3 O 0.00695 0.20436 0.74236 0.0
C4 C 0.0242 0.1942 0.57934 0.0
C5 C 0.05581 0.20641 0.8211 0.0
C6 C 0.03944 0.26144 0.69576 0.0
C7 C 0.9886 0.17414 0.89864 0.0
C8 C 0.95834 0.1585 0.6601 0.0
C9 C 0.97578 0.23118 0.79334 0.0
O10 O 0.02564 0.1837 0.6359 0.0
O11 O 0.05114 0.22219 0.83994 0.0
O12 O 0.02316 0.24761 0.6528 0.0
O13 O 0.98924 0.16344 0.84118 0.0
O14 O 0.96164 0.17911 0.65214 0.0
O15 O 0.9917 0.23276 0.83633 0.0
O16 O 0.97396 0.15443 0.6849 0.0
O17 O 1.00017 0.19646 0.9058 0.0
O18 O 0.97397 0.22422 0.72718 0.0
O19 O 0.04127 0.1879 0.78788 0.0
O20 O 0.01122 0.20347 0.57568 0.0
O21 O 0.04094 0.25664 0.7628 0.0
Sc22 Sc 0.78481 0.79836 0.84617 0.0
Sc23 Sc 0.79828 0.78477 0.671 0.0
Sc24 Sc 0.83794 0.83711 0.76104 0.0
O25 O 0.8069 0.80665 0.75912 0.0
C26 C 0.80507 0.85297 0.84226 0.0
C27 C 0.74871 0.77984 0.71186 0.0
C28 C 0.81748 0.83631 0.60264 0.0
C29 C 0.78262 0.74979 0.80836 0.0
C30 C 0.83529 0.81659 0.91889 0.0
C31 C 0.85318 0.80447 0.67589 0.0
O32 O 0.78767 0.83245 0.85075 0.0
O33 O 0.76275 0.77771 0.66902 0.0
O34 O 0.82928 0.84724 0.65919 0.0
O35 O 0.78003 0.76373 0.85042 0.0
O36 O 0.84688 0.82715 0.86179 0.0
O37 O 0.8326 0.7885 0.65927 0.0
O38 O 0.81313 0.8078 0.92482 0.0
O39 O 0.78884 0.75432 0.7411 0.0
O40 O 0.85739 0.82308 0.70884 0.0
O41 O 0.75417 0.78734 0.77742 0.0
O42 O 0.82457 0.85681 0.81643 0.0
O43 O 0.80678 0.81394 0.59609 0.0
Sc44 Sc 0.1752 0.00683 0.75887 0.0
Sc45 Sc 0.21683 0.99308 0.82961 0.0
Sc46 Sc 0.22616 0.021 0.65806 0.0
O47 O 0.20598 0.0069 0.74888 0.0
C48 C 0.17431 0.98861 0.59553 0.0
C49 C 0.16141 0.95869 0.83967 0.0
C50 C 0.23099 0.97542 0.68844 0.0
C51 C 0.19994 0.02486 0.91425 0.0
C52 C 0.20512 0.0551 0.67285 0.0
C53 C 0.26469 0.039 0.78175 0.0
O54 O 0.16389 0.99026 0.65252 0.0
O55 O 0.18232 0.96322 0.85077 0.0
O56 O 0.2347 0.99347 0.6521 0.0
O57 O 0.18534 0.02299 0.86501 0.0
O58 O 0.22006 0.05014 0.6475 0.0
O59 O 0.25286 0.02064 0.82033 0.0
O60 O 0.18835 0.04132 0.7141 0.0
O61 O 0.21233 0.0149 0.91011 0.0
O62 O 0.25693 0.04334 0.72327 0.0
O63 O 0.15651 0.97275 0.80754 0.0
O64 O 0.1966 0.99914 0.58896 0.0
O65 O 0.22288 0.97129 0.75366 0.0
Sc66 Sc 0.0043 0.83559 0.25947 0.0
Sc67 Sc 0.9926 0.78475 0.1632 0.0
Sc68 Sc 0.01806 0.79526 0.34022 0.0
O69 O 0.00502 0.80514 0.25438 0.0
C70 C 0.05196 0.85039 0.34524 0.0
C71 C 0.02429 0.83695 0.09965 0.0
C72 C 0.03824 0.78136 0.20195 0.0
C73 C 0.95655 0.80324 0.17367 0.0
C74 C 0.98507 0.81243 0.41508 0.0
C75 C 0.97355 0.74643 0.29156 0.0
O76 O 0.0371 0.85468 0.31571 0.0
O77 O 0.01281 0.81468 0.0924 0.0
O78 O 0.03943 0.78675 0.26961 0.0
O79 O 0.9709 0.8217 0.20746 0.0
O80 O 0.99729 0.8023 0.41873 0.0
O81 O 0.97217 0.753 0.22677 0.0
O82 O 0.98534 0.82462 0.36048 0.0
O83 O 0.96137 0.78758 0.15463 0.0
O84 O 0.98936 0.75967 0.33686 0.0
O85 O 0.02327 0.84743 0.1572 0.0
O86 O 0.04851 0.82974 0.35398 0.0
O87 O 0.02224 0.77967 0.15923 0.0
Sc88 Sc 0.2292 0.21573 0.15658 0.0
Sc89 Sc 0.21029 0.22497 0.32926 0.0
Sc90 Sc 0.17402 0.17439 0.22731 0.0
O91 O 0.20458 0.20512 0.23774 0.0
C92 C 0.1804 0.19824 0.07205 0.0
C93 C 0.23124 0.26371 0.20167 0.0
C94 C 0.15585 0.20528 0.30958 0.0
C95 C 0.26049 0.22959 0.30162 0.0
C96 C 0.20955 0.16088 0.15173 0.0
C97 C 0.18937 0.17257 0.39076 0.0
O98 O 0.2028 0.20855 0.07231 0.0
O99 O 0.22229 0.25697 0.26547 0.0
O100 O 0.15275 0.18713 0.27574 0.0
O101 O 0.25779 0.22466 0.23337 0.0
O102 O 0.18957 0.15611 0.17585 0.0
O103 O 0.1992 0.1947 0.40073 0.0
O104 O 0.22646 0.18177 0.1452 0.0
O105 O 0.24509 0.23063 0.34089 0.0
O106 O 0.17991 0.16254 0.33045 0.0
O107 O 0.23503 0.2508 0.15855 0.0
O108 O 0.16758 0.18566 0.12469 0.0
O109 O 0.17591 0.22133 0.33044 0.0
Sc110 Sc 0.83742 0.0058 0.25169 0.0
Sc111 Sc 0.79895 0.02053 0.16581 0.0
Sc112 Sc 0.78403 0.99196 0.33506 0.0
O113 O 0.80693 0.00607 0.25078 0.0
C114 C 0.80483 0.95719 0.3292 0.0
C115 C 0.81719 0.9895 0.0889 0.0
C116 C 0.74962 0.97457 0.20276 0.0
C117 C 0.85455 0.05469 0.17437 0.0
C118 C 0.83306 0.02265 0.41334 0.0
C119 C 0.78097 0.03776 0.2958 0.0
O120 O 0.82121 0.96975 0.28485 0.0
O121 O 0.80334 0.99777 0.09102 0.0
O122 O 0.75634 0.96912 0.26144 0.0
O123 O 0.85797 0.0418 0.21848 0.0
O124 O 0.81103 0.01487 0.41005 0.0
O125 O 0.79402 0.04356 0.23906 0.0
O126 O 0.84441 0.01862 0.36392 0.0
O127 O 0.8346 0.04856 0.14659 0.0
O128 O 0.7732 0.01803 0.32788 0.0
O129 O 0.83203 0.99297 0.13954 0.0
O130 O 0.7913 0.96376 0.35666 0.0
O131 O 0.76201 0.99419 0.17021 0.0
Sc132 Sc 0.67325 0.50689 0.07383 0.0
Sc133 Sc 0.68808 0.55848 0.17223 0.0
Sc134 Sc 0.66015 0.54865 0.00021 0.0
O135 O 0.67382 0.538 0.08205 0.0
C136 C 0.69085 0.53022 0.91638 0.0
C137 C 0.72215 0.53744 0.15608 0.0
C138 C 0.7065 0.59665 0.04441 0.0
C139 C 0.65582 0.50666 0.23762 0.0
C140 C 0.62477 0.49348 0.99608 0.0
C141 C 0.64279 0.56361 0.14189 0.0
O142 O 0.68945 0.51632 0.96748 0.0
O143 O 0.71772 0.55298 0.17958 0.0
O144 O 0.68883 0.58409 0.00415 0.0
O145 O 0.6567 0.49598 0.18031 0.0
O146 O 0.62946 0.51444 0.98471 0.0
O147 O 0.6601 0.56617 0.17982 0.0
O148 O 0.63904 0.48846 0.02615 0.0
O149 O 0.66695 0.52898 0.24352 0.0
O150 O 0.63942 0.55659 0.0755 0.0
O151 O 0.70771 0.52002 0.11831 0.0
O152 O 0.68068 0.54242 0.91909 0.0
O153 O 0.70965 0.58967 0.10656 0.0
Sc154 Sc 0.50348 0.17051 0.09153 0.0
Sc155 Sc 0.44971 0.12935 0.16988 0.0
Sc156 Sc 0.4659 0.11856 0.99673 0.0
O157 O 0.4731 0.13951 0.08607 0.0
C158 C 0.48444 0.16932 0.92897 0.0
C159 C 0.46904 0.18458 0.16786 0.0
C160 C 0.41565 0.11275 0.03478 0.0
C161 C 0.49874 0.148 0.25079 0.0
C162 C 0.52146 0.14017 0.00899 0.0
C163 C 0.44821 0.08142 0.12435 0.0
O164 O 0.49812 0.17979 0.98271 0.0
O165 O 0.45484 0.16402 0.19106 0.0
O166 O 0.42907 0.1077 0.99855 0.0
O167 O 0.51043 0.16319 0.20139 0.0
O168 O 0.50165 0.12629 0.98047 0.0
O169 O 0.44146 0.09328 0.16191 0.0
O170 O 0.52454 0.15616 0.05384 0.0
O171 O 0.47663 0.13418 0.24716 0.0
O172 O 0.45963 0.08893 0.0644 0.0
O173 O 0.48682 0.18933 0.12901 0.0
O174 O 0.47129 0.14709 0.92518 0.0
O175 O 0.42145 0.12342 0.09617 0.0
Sc176 Sc 0.84174 0.3397 0.08102 0.0
Sc177 Sc 0.88088 0.32489 0.16446 0.0
Sc178 Sc 0.89515 0.35435 0.99383 0.0
O179 O 0.87263 0.33965 0.07978 0.0
C180 C 0.84436 0.32397 0.91851 0.0
C181 C 0.82608 0.29003 0.15656 0.0
C182 C 0.89872 0.30843 0.02587 0.0
C183 C 0.86061 0.35498 0.24304 0.0
C184 C 0.8753 0.38932 0.00462 0.0
C185 C 0.92997 0.37109 0.13086 0.0
O186 O 0.83264 0.32334 0.97502 0.0
O187 O 0.84668 0.29371 0.16792 0.0
O188 O 0.9008 0.32509 0.98543 0.0
O189 O 0.8495 0.35596 0.18718 0.0
O190 O 0.89199 0.38545 0.99112 0.0
O191 O 0.91569 0.35434 0.17168 0.0
O192 O 0.856 0.374 0.03278 0.0
O193 O 0.87136 0.34332 0.24425 0.0
O194 O 0.92556 0.37367 0.06447 0.0
O195 O 0.82202 0.30545 0.12975 0.0
O196 O 0.86677 0.33558 0.91581 0.0
O197 O 0.89197 0.30579 0.09256 0.0
Sc198 Sc 0.66004 0.11811 0.49741 0.0
Sc199 Sc 0.68769 0.13466 0.67 0.0
Sc200 Sc 0.67359 0.17247 0.57377 0.0
O201 O 0.67383 0.14175 0.58037 0.0
C202 C 0.69209 0.16786 0.41735 0.0
C203 C 0.7053 0.11462 0.54177 0.0
C204 C 0.72187 0.18971 0.65941 0.0
C205 C 0.64201 0.08459 0.63675 0.0
C206 C 0.62542 0.13859 0.49226 0.0
C207 C 0.65517 0.15402 0.73477 0.0
O208 O 0.68091 0.14542 0.41802 0.0
O209 O 0.70881 0.12473 0.60385 0.0
O210 O 0.70695 0.19327 0.62667 0.0
O211 O 0.63911 0.08944 0.57123 0.0
O212 O 0.64018 0.15799 0.5206 0.0
O213 O 0.66724 0.14384 0.74301 0.0
O214 O 0.62954 0.12189 0.48308 0.0
O215 O 0.65922 0.09874 0.67651 0.0
O216 O 0.65532 0.1648 0.67641 0.0
O217 O 0.68799 0.11026 0.5008 0.0
O218 O 0.69145 0.18034 0.46987 0.0
O219 O 0.71811 0.16934 0.67536 0.0
Sc220 Sc 0.89166 0.54072 0.49529 0.0
Sc221 Sc 0.88126 0.56061 0.6633 0.0
Sc222 Sc 0.84004 0.50511 0.59411 0.0
O223 O 0.87108 0.53554 0.58442 0.0
C224 C 0.83974 0.52087 0.43072 0.0
C225 C 0.89564 0.59104 0.51687 0.0
C226 C 0.82626 0.54035 0.66963 0.0
C227 C 0.92988 0.56345 0.62214 0.0
C228 C 0.87078 0.48625 0.51434 0.0
C229 C 0.86348 0.51175 0.75029 0.0
O230 O 0.86182 0.52956 0.42147 0.0
O231 O 0.88959 0.58847 0.58429 0.0
O232 O 0.82164 0.52043 0.64581 0.0
O233 O 0.92322 0.55273 0.56098 0.0
O234 O 0.85195 0.48334 0.54302 0.0
O235 O 0.87449 0.53422 0.74722 0.0
O236 O 0.888 0.50636 0.49945 0.0
O237 O 0.91685 0.568 0.66209 0.0
O238 O 0.85054 0.49855 0.69864 0.0
O239 O 0.89768 0.5757 0.48032 0.0
O240 O 0.8292 0.51194 0.49098 0.0
O241 O 0.84709 0.55739 0.67516 0.0
Sc242 Sc 0.46293 0.35193 0.4959 0.0
Sc243 Sc 0.44935 0.32631 0.67269 0.0
Sc244 Sc 0.50179 0.33795 0.5853 0.0
O245 O 0.47135 0.33877 0.58465 0.0
C246 C 0.48073 0.31869 0.42745 0.0
C247 C 0.41345 0.30688 0.5394 0.0
C248 C 0.46867 0.29064 0.67231 0.0
C249 C 0.44575 0.37154 0.62723 0.0
C250 C 0.51825 0.38573 0.49729 0.0
C251 C 0.50034 0.35827 0.74275 0.0
O252 O 0.4703 0.33056 0.42132 0.0
O253 O 0.41922 0.30464 0.60448 0.0
O254 O 0.48695 0.30425 0.63637 0.0
O255 O 0.45424 0.37381 0.56282 0.0
O256 O 0.52208 0.37113 0.53097 0.0
O257 O 0.47799 0.3479 0.74572 0.0
O258 O 0.49776 0.38201 0.48345 0.0
O259 O 0.44216 0.35471 0.66957 0.0
O260 O 0.51164 0.3562 0.68901 0.0
O261 O 0.42705 0.32359 0.4969 0.0
O262 O 0.49268 0.31951 0.48337 0.0
O263 O 0.4533 0.29596 0.69029 0.0
Sc264 Sc 0.33995 0.84099 0.41946 0.0
Sc265 Sc 0.35292 0.89496 0.49949 0.0
Sc266 Sc 0.32615 0.87901 0.32461 0.0
O267 O 0.33962 0.87167 0.41471 0.0
C268 C 0.35782 0.85914 0.25814 0.0
C269 C 0.38829 0.87524 0.49941 0.0
C270 C 0.3723 0.92825 0.35914 0.0
C271 C 0.32141 0.8449 0.57744 0.0
C272 C 0.29118 0.82422 0.33709 0.0
C273 C 0.30809 0.89895 0.45341 0.0
O274 O 0.35752 0.84825 0.31616 0.0
O275 O 0.38327 0.89096 0.51575 0.0
O276 O 0.35564 0.91391 0.31825 0.0
O277 O 0.32284 0.83287 0.52491 0.0
O278 O 0.29525 0.84468 0.32055 0.0
O279 O 0.32459 0.90224 0.49657 0.0
O280 O 0.30602 0.8204 0.36936 0.0
O281 O 0.33185 0.8673 0.5772 0.0
O282 O 0.30586 0.89021 0.38951 0.0
O283 O 0.37417 0.8564 0.46692 0.0
O284 O 0.34582 0.86934 0.2503 0.0
O285 O 0.37423 0.92431 0.42666 0.0
Sc286 Sc 0.11788 0.46419 0.50518 0.0
Sc287 Sc 0.13261 0.45129 0.33159 0.0
Sc288 Sc 0.17156 0.50397 0.42145 0.0
O289 O 0.14065 0.47314 0.41938 0.0
C290 C 0.13804 0.51931 0.501 0.0
C291 C 0.08276 0.44651 0.3696 0.0
C292 C 0.15192 0.50223 0.26009 0.0
C293 C 0.11523 0.41532 0.46535 0.0
C294 C 0.16793 0.48339 0.58162 0.0
C295 C 0.18782 0.47151 0.3408 0.0
O296 O 0.12159 0.49862 0.51473 0.0
O297 O 0.09663 0.4433 0.32909 0.0
O298 O 0.16453 0.51359 0.31498 0.0
O299 O 0.11126 0.42862 0.50633 0.0
O300 O 0.17977 0.49536 0.52652 0.0
O301 O 0.16748 0.45603 0.3199 0.0
O302 O 0.14558 0.47226 0.58418 0.0
O303 O 0.12385 0.42125 0.40094 0.0
O304 O 0.19161 0.4896 0.37619 0.0
O305 O 0.08819 0.4549 0.43419 0.0
O306 O 0.15706 0.52363 0.47011 0.0
O307 O 0.14015 0.47986 0.25732 0.0
Sc308 Sc 0.50823 0.67242 0.41284 0.0
Sc309 Sc 0.54579 0.65792 0.50681 0.0
Sc310 Sc 0.56243 0.68558 0.33379 0.0
O311 O 0.53887 0.67198 0.4177 0.0
C312 C 0.51224 0.65413 0.2557 0.0
C313 C 0.49106 0.62385 0.49709 0.0
C314 C 0.5656 0.64006 0.3769 0.0
C315 C 0.52607 0.68997 0.57401 0.0
C316 C 0.54234 0.72043 0.32978 0.0
C317 C 0.59555 0.70366 0.47441 0.0
O318 O 0.49999 0.65434 0.30966 0.0
O319 O 0.51139 0.627 0.50972 0.0
O320 O 0.56883 0.65664 0.33393 0.0
O321 O 0.51576 0.69068 0.51568 0.0
O322 O 0.55929 0.71659 0.32192 0.0
O323 O 0.58075 0.68717 0.51503 0.0
O324 O 0.52286 0.70557 0.35769 0.0
O325 O 0.53591 0.67752 0.58039 0.0
O326 O 0.59195 0.70585 0.40683 0.0
O327 O 0.48763 0.6393 0.46741 0.0
O328 O 0.53469 0.66555 0.25482 0.0
O329 O 0.55714 0.63785 0.44131 0.0
Sc330 Sc 0.33904 0.50569 0.92151 0.0
Sc331 Sc 0.32425 0.45259 0.83312 0.0
Sc332 Sc 0.35364 0.46639 0.00423 0.0
O333 O 0.33903 0.47486 0.91947 0.0
C334 C 0.3886 0.52119 0.99707 0.0
C335 C 0.35523 0.50346 0.75892 0.0
C336 C 0.37002 0.44875 0.86511 0.0
C337 C 0.28957 0.47276 0.84499 0.0
C338 C 0.32267 0.48549 0.08177 0.0
C339 C 0.30698 0.41769 0.97032 0.0
O340 O 0.37329 0.52536 0.97012 0.0
O341 O 0.34373 0.48105 0.75605 0.0
O342 O 0.37298 0.45579 0.93147 0.0
O343 O 0.30466 0.49151 0.87585 0.0
O344 O 0.33498 0.47546 0.08513 0.0
O345 O 0.30422 0.42231 0.90427 0.0
O346 O 0.32211 0.49683 0.02601 0.0
O347 O 0.29363 0.45648 0.82724 0.0
O348 O 0.32414 0.43159 0.01028 0.0
O349 O 0.35549 0.51509 0.81524 0.0
O350 O 0.38478 0.50054 0.00861 0.0
O351 O 0.35305 0.44628 0.82572 0.0
Sc352 Sc 0.56155 0.88121 0.82655 0.0
Sc353 Sc 0.54949 0.89502 0.00344 0.0
Sc354 Sc 0.50874 0.84257 0.91623 0.0
O355 O 0.54001 0.87299 0.91548 0.0
C356 C 0.51052 0.86308 0.75771 0.0
C357 C 0.56575 0.9305 0.86805 0.0
C358 C 0.49472 0.87626 0.00057 0.0
C359 C 0.59792 0.89797 0.95925 0.0
C360 C 0.54056 0.82616 0.83097 0.0
C361 C 0.52967 0.84383 0.07445 0.0
O362 O 0.53276 0.87285 0.75089 0.0
O363 O 0.55936 0.92566 0.93491 0.0
O364 O 0.49006 0.85754 0.9674 0.0
O365 O 0.59247 0.89101 0.89324 0.0
O366 O 0.52173 0.82237 0.86199 0.0
O367 O 0.54121 0.8662 0.07791 0.0
O368 O 0.55756 0.84665 0.81816 0.0
O369 O 0.58443 0.90062 0.00299 0.0
O370 O 0.51702 0.83255 0.0196 0.0
O371 O 0.56769 0.91644 0.82468 0.0
O372 O 0.49939 0.8518 0.81463 0.0
O373 O 0.51544 0.89195 0.01726 0.0
Sc374 Sc 0.1312 0.68636 0.83068 0.0
Sc375 Sc 0.11763 0.65844 0.00267 0.0
Sc376 Sc 0.17109 0.67283 0.91588 0.0
O377 O 0.14001 0.67255 0.91645 0.0
C378 C 0.14983 0.65438 0.75679 0.0
C379 C 0.08203 0.64066 0.86975 0.0
C380 C 0.13896 0.62447 0.99962 0.0
C381 C 0.11377 0.70416 0.96484 0.0
C382 C 0.18645 0.72106 0.83244 0.0
C383 C 0.16833 0.69069 0.07588 0.0
O384 O 0.13821 0.66518 0.75503 0.0
O385 O 0.08798 0.63678 0.9324 0.0
O386 O 0.15759 0.63913 0.96692 0.0
O387 O 0.12301 0.70763 0.90125 0.0
O388 O 0.19079 0.70667 0.86511 0.0
O389 O 0.14591 0.67961 0.07816 0.0
O390 O 0.16577 0.71658 0.81808 0.0
O391 O 0.10951 0.68643 0.00406 0.0
O392 O 0.1801 0.68999 0.02119 0.0
O393 O 0.09517 0.65853 0.83079 0.0
O394 O 0.16279 0.65558 0.81064 0.0
O395 O 0.12241 0.62845 0.01399 0.0
H396 H 0.07091 0.21523 0.59376 0.0
H397 H 0.01516 0.1825 0.43328 0.0
H398 H 0.04425 0.18599 0.33934 0.0
H399 H 0.11692 0.25665 0.46297 0.0
H400 H 0.13954 0.25402 0.51039 0.0
H401 H 0.11469 0.25136 0.56063 0.0
H402 H 0.10595 0.21082 0.61006 0.0
H403 H 0.13052 0.21314 0.5597 0.0
H404 H 0.10166 0.1881 0.54604 0.0
H405 H 0.07856 0.18742 0.27099 0.0
H406 H 0.11534 0.18911 0.23086 0.0
H407 H 0.14885 0.22367 0.43451 0.0
C408 C 0.06497 0.20927 0.53827 0.0
C409 C 0.041 0.19855 0.52006 0.0
C410 C 0.03359 0.19087 0.4475 0.0
C411 C 0.04996 0.19281 0.39417 0.0
C412 C 0.07356 0.20301 0.41443 0.0
C413 C 0.08106 0.21153 0.48451 0.0
C414 C 0.10702 0.2206 0.49412 0.0
C415 C 0.12033 0.24724 0.50781 0.0
C416 C 0.11153 0.20736 0.5561 0.0
C417 C 0.11288 0.21481 0.41958 0.0
C418 C 0.09342 0.2048 0.37409 0.0
C419 C 0.09402 0.19577 0.30539 0.0
C420 C 0.11492 0.19672 0.28319 0.0
C421 C 0.13494 0.20684 0.32925 0.0
C422 C 0.13399 0.21644 0.39746 0.0
H423 H 0.79817 0.94037 0.469 0.0
H424 H 0.80888 0.92493 0.24567 0.0
H425 H 0.81028 0.88996 0.28967 0.0
H426 H 0.8394 0.92814 0.54643 0.0
H427 H 0.82345 0.91595 0.63072 0.0
H428 H 0.81955 0.93735 0.58063 0.0
H429 H 0.77467 0.90851 0.57473 0.0
H430 H 0.77846 0.8871 0.62549 0.0
H431 H 0.76386 0.87947 0.53771 0.0
H432 H 0.81195 0.85726 0.36025 0.0
H433 H 0.81705 0.83205 0.45187 0.0
H434 H 0.80922 0.87197 0.62789 0.0
C435 C 0.8001 0.92919 0.42927 0.0
C436 C 0.8029 0.93493 0.35392 0.0
C437 C 0.80638 0.92054 0.30361 0.0
C438 C 0.80716 0.90067 0.32807 0.0
C439 C 0.80484 0.89572 0.40313 0.0
C440 C 0.80155 0.90972 0.45299 0.0
C441 C 0.8021 0.90224 0.53121 0.0
C442 C 0.82233 0.9221 0.57476 0.0
C443 C 0.77835 0.89382 0.56952 0.0
C444 C 0.80648 0.88207 0.51771 0.0
C445 C 0.80752 0.87817 0.44361 0.0
C446 C 0.81124 0.86021 0.41844 0.0
C447 C 0.81412 0.84602 0.47056 0.0
C448 C 0.8139 0.85039 0.54651 0.0
C449 C 0.80988 0.86854 0.56997 0.0
H450 H 0.12674 0.96775 0.5725 0.0
H451 H 0.18952 0.96886 0.49282 0.0
H452 H 0.16512 0.93389 0.41741 0.0
H453 H 0.09142 0.90764 0.5893 0.0
H454 H 0.06481 0.90608 0.55672 0.0
H455 H 0.08714 0.93251 0.59953 0.0
H456 H 0.08927 0.95683 0.48461 0.0
H457 H 0.06657 0.93052 0.44188 0.0
H458 H 0.09423 0.94814 0.39552 0.0
H459 H 0.13353 0.89526 0.36578 0.0
H460 H 0.09706 0.85982 0.32422 0.0
H461 H 0.05549 0.88605 0.42856 0.0
C462 C 0.13541 0.961 0.53784 0.0
C463 C 0.16004 0.97095 0.53923 0.0
C464 C 0.17068 0.96155 0.49296 0.0
C465 C 0.15696 0.94161 0.45002 0.0
C466 C 0.13267 0.93164 0.45242 0.0
C467 C 0.12202 0.94141 0.49343 0.0
C468 C 0.09557 0.92713 0.48715 0.0
C469 C 0.08407 0.91779 0.56266 0.0
C470 C 0.08584 0.94151 0.45006 0.0
C471 C 0.09302 0.90745 0.43807 0.0
C472 C 0.11459 0.91019 0.41912 0.0
C473 C 0.11654 0.89318 0.37881 0.0
C474 C 0.09584 0.87308 0.35604 0.0
C475 C 0.0737 0.87052 0.37274 0.0
C476 C 0.07232 0.88789 0.4142 0.0
H477 H 0.1694 0.03664 0.97482 0.0
H478 H 0.24201 0.05331 0.98129 0.0
H479 H 0.25225 0.08885 0.05432 0.0
H480 H 0.1797 0.09164 0.94462 0.0
H481 H 0.15638 0.08988 0.00126 0.0
H482 H 0.15382 0.06363 0.96211 0.0
H483 H 0.14749 0.04478 0.09136 0.0
H484 H 0.14947 0.07082 0.13107 0.0
H485 H 0.16849 0.0603 0.16311 0.0
H486 H 0.25558 0.12628 0.10524 0.0
H487 H 0.25075 0.15974 0.14405 0.0
H488 H 0.17568 0.11738 0.10798 0.0
C489 C 0.18728 0.0473 0.99403 0.0
C490 C 0.20488 0.04218 0.97298 0.0
C491 C 0.22818 0.0567 0.99802 0.0
C492 C 0.23418 0.07702 0.03907 0.0
C493 C 0.21657 0.0822 0.05581 0.0
C494 C 0.19346 0.06739 0.03567 0.0
C495 C 0.17811 0.07765 0.05542 0.0
C496 C 0.16633 0.08089 0.98677 0.0
C497 C 0.15981 0.06249 0.11373 0.0
C498 C 0.19632 0.10102 0.0868 0.0
C499 C 0.2184 0.10337 0.08689 0.0
C500 C 0.23827 0.12439 0.10715 0.0
C501 C 0.2354 0.14335 0.12846 0.0
C502 C 0.21283 0.14107 0.12965 0.0
C503 C 0.19312 0.11953 0.10902 0.0
H504 H 0.86485 0.07137 0.03468 0.0
H505 H 0.89138 0.08639 0.25753 0.0
H506 H 0.92816 0.1208 0.21287 0.0
H507 H 0.91781 0.08225 0.95608 0.0
H508 H 0.91426 0.09463 0.87196 0.0
H509 H 0.88883 0.07362 0.92253 0.0
H510 H 0.8737 0.1032 0.92905 0.0
H511 H 0.89902 0.12422 0.87775 0.0
H512 H 0.89249 0.13217 0.96575 0.0
H513 H 0.96277 0.1531 0.14157 0.0
H514 H 0.99297 0.17808 0.04931 0.0
H515 H 0.94458 0.1386 0.87428 0.0
C516 C 0.87814 0.08234 0.07419 0.0
C517 C 0.8752 0.07667 0.14956 0.0
C518 C 0.8933 0.09076 0.19958 0.0
C519 C 0.91418 0.1103 0.17474 0.0
C520 C 0.91678 0.11517 0.09962 0.0
C521 C 0.89928 0.10145 0.05009 0.0
C522 C 0.90723 0.10876 0.97172 0.0
C523 C 0.90702 0.08862 0.92805 0.0
C524 C 0.89222 0.11762 0.93386 0.0
C525 C 0.93199 0.12856 0.98473 0.0
C526 C 0.93711 0.13241 0.05873 0.0
C527 C 0.95896 0.15016 0.08347 0.0
C528 C 0.97599 0.16421 0.03098 0.0
C529 C 0.97116 0.15991 0.95512 0.0
C530 C 0.94886 0.14193 0.93211 0.0
H531 H 0.86271 0.79785 0.89506 0.0
H532 H 0.83634 0.82361 0.0683 0.0
H533 H 0.86149 0.81795 0.1585 0.0
H534 H 0.86738 0.75321 0.01007 0.0
H535 H 0.89345 0.75815 0.96209 0.0
H536 H 0.87134 0.76163 0.91455 0.0
H537 H 0.90275 0.80385 0.87742 0.0
H538 H 0.92495 0.80078 0.9251 0.0
H539 H 0.92003 0.82467 0.94766 0.0
H540 H 0.89425 0.81567 0.2231 0.0
H541 H 0.92996 0.81466 0.2593 0.0
H542 H 0.93243 0.78733 0.0451 0.0
C543 C 0.86197 0.80191 0.95235 0.0
C544 C 0.84791 0.81134 0.97531 0.0
C545 C 0.84709 0.81635 0.05028 0.0
C546 C 0.86124 0.81314 0.10154 0.0
C547 C 0.87541 0.80428 0.07667 0.0
C548 C 0.87548 0.79832 0.00396 0.0
C549 C 0.89306 0.79032 0.98991 0.0
C550 C 0.88055 0.76428 0.96788 0.0
C551 C 0.91127 0.80585 0.93164 0.0
C552 C 0.90394 0.79397 0.06524 0.0
C553 C 0.89339 0.80183 0.11477 0.0
C554 C 0.9022 0.80893 0.18543 0.0
C555 C 0.92248 0.80837 0.20541 0.0
C556 C 0.93357 0.80056 0.1552 0.0
C557 C 0.92383 0.79271 0.08503 0.0
H558 H 0.86064 0.78875 0.54581 0.0
H559 H 0.89163 0.81557 0.759 0.0
H560 H 0.9276 0.81528 0.72089 0.0
H561 H 0.88899 0.75276 0.50825 0.0
H562 H 0.8934 0.76116 0.41271 0.0
H563 H 0.86857 0.75903 0.46165 0.0
H564 H 0.88147 0.80202 0.42535 0.0
H565 H 0.90614 0.80407 0.37639 0.0
H566 H 0.91078 0.82507 0.44728 0.0
H567 H 0.96155 0.81532 0.65524 0.0
H568 H 0.99148 0.81905 0.56423 0.0
H569 H 0.93907 0.7956 0.39233 0.0
C570 C 0.87474 0.79382 0.58501 0.0
C571 C 0.87336 0.80177 0.6556 0.0
C572 C 0.89241 0.80919 0.70485 0.0
C573 C 0.91282 0.80898 0.6838 0.0
C574 C 0.91395 0.80159 0.61295 0.0
C575 C 0.89544 0.79429 0.56415 0.0
C576 C 0.90214 0.79023 0.48839 0.0
C577 C 0.8874 0.76425 0.46649 0.0
C578 C 0.90002 0.80632 0.43104 0.0
C579 C 0.92747 0.7971 0.50158 0.0
C580 C 0.93385 0.80296 0.57413 0.0
C581 C 0.95671 0.81058 0.5984 0.0
C582 C 0.97355 0.81264 0.54671 0.0
C583 C 0.96741 0.80768 0.47192 0.0
C584 C 0.94407 0.7995 0.44953 0.0
H585 H 0.21377 0.07291 0.53454 0.0
H586 H 0.19609 0.08469 0.75377 0.0
H587 H 0.19238 0.11815 0.70737 0.0
H588 H 0.24544 0.13444 0.4713 0.0
H589 H 0.23306 0.12659 0.38043 0.0
H590 H 0.23776 0.10615 0.43346 0.0
H591 H 0.19386 0.0747 0.41753 0.0
H592 H 0.18901 0.09513 0.36534 0.0
H593 H 0.17156 0.08133 0.44602 0.0
H594 H 0.18947 0.14977 0.63457 0.0
H595 H 0.18479 0.17459 0.54051 0.0
H596 H 0.20025 0.13856 0.36925 0.0
C597 C 0.20981 0.08301 0.57306 0.0
C598 C 0.20571 0.07668 0.64783 0.0
C599 C 0.1996 0.08959 0.69635 0.0
C600 C 0.19748 0.10858 0.67052 0.0
C601 C 0.20112 0.11407 0.59589 0.0
C602 C 0.207 0.10152 0.54784 0.0
C603 C 0.20761 0.10924 0.46924 0.0
C604 C 0.23245 0.11973 0.43672 0.0
C605 C 0.18942 0.08889 0.42178 0.0
C606 C 0.20088 0.12788 0.48035 0.0
C607 C 0.19768 0.13084 0.55375 0.0
C608 C 0.19182 0.14751 0.5769 0.0
C609 C 0.18915 0.16146 0.5234 0.0
C610 C 0.19171 0.15806 0.44801 0.0
C611 C 0.19768 0.14111 0.42659 0.0
H612 H 0.8784 0.03781 0.45621 0.0
H613 H 0.81891 0.04764 0.49828 0.0
H614 H 0.84393 0.08209 0.57496 0.0
H615 H 0.90616 0.05768 0.64155 0.0
H616 H 0.93526 0.07163 0.60251 0.0
H617 H 0.9118 0.04584 0.55976 0.0
H618 H 0.92022 0.06866 0.43687 0.0
H619 H 0.94337 0.0946 0.47932 0.0
H620 H 0.91959 0.09574 0.43415 0.0
H621 H 0.8769 0.11933 0.62861 0.0
H622 H 0.91447 0.15354 0.66897 0.0
H623 H 0.95166 0.11809 0.59789 0.0
C624 C 0.87045 0.04676 0.48333 0.0
C625 C 0.84667 0.03995 0.47126 0.0
C626 C 0.83701 0.05232 0.50724 0.0
C627 C 0.85111 0.07202 0.55069 0.0
C628 C 0.87473 0.07885 0.55886 0.0
C629 C 0.88419 0.06626 0.52762 0.0
C630 C 0.91033 0.078 0.54135 0.0
C631 C 0.91623 0.06235 0.58916 0.0
C632 C 0.92418 0.08464 0.4686 0.0
C633 C 0.91423 0.09957 0.58283 0.0
C634 C 0.89352 0.09982 0.59235 0.0
C635 C 0.89315 0.11907 0.62314 0.0
C636 C 0.91452 0.13846 0.64533 0.0
C637 C 0.9358 0.13824 0.63728 0.0
C638 C 0.93553 0.11846 0.60614 0.0
H639 H 0.84699 0.9737 0.04743 0.0
H640 H 0.77839 0.96527 0.00222 0.0
H641 H 0.76869 0.93077 0.92543 0.0
H642 H 0.85514 0.95371 0.86221 0.0
H643 H 0.86972 0.9393 0.90189 0.0
H644 H 0.87238 0.96525 0.94452 0.0
H645 H 0.85725 0.94237 0.06706 0.0
H646 H 0.85411 0.91627 0.02471 0.0
H647 H 0.82925 0.91557 0.06904 0.0
H648 H 0.76388 0.89327 0.87237 0.0
H649 H 0.76666 0.85869 0.83242 0.0
H650 H 0.83901 0.89296 0.90571 0.0
C651 C 0.83021 0.96504 0.01958 0.0
C652 C 0.81351 0.97225 0.03084 0.0
C653 C 0.79162 0.96028 0.99391 0.0
C654 C 0.78587 0.94056 0.95038 0.0
C655 C 0.80236 0.93331 0.94306 0.0
C656 C 0.82431 0.94554 0.97512 0.0
C657 C 0.83839 0.93342 0.962 0.0
C658 C 0.8602 0.94884 0.91483 0.0
C659 C 0.84513 0.9265 0.03504 0.0
C660 C 0.82062 0.91202 0.92006 0.0
C661 C 0.7999 0.91221 0.90973 0.0
C662 C 0.78021 0.89319 0.87845 0.0
C663 C 0.78185 0.87359 0.85652 0.0
C664 C 0.80311 0.87338 0.86529 0.0
C665 C 0.82271 0.89292 0.89697 0.0
H666 H 0.12529 0.955 0.92083 0.0
H667 H 0.15335 0.91371 0.82602 0.0
H668 H 0.11867 0.87724 0.87219 0.0
H669 H 0.10503 0.92136 0.08633 0.0
H670 H 0.07965 0.92486 0.09461 0.0
H671 H 0.10561 0.94705 0.04895 0.0
H672 H 0.08083 0.94294 0.93334 0.0
H673 H 0.05482 0.92048 0.97837 0.0
H674 H 0.06367 0.91455 0.89096 0.0
H675 H 0.08042 0.84551 0.92726 0.0
H676 H 0.04544 0.82138 0.0036 0.0
H677 H 0.0445 0.8842 0.07109 0.0
C678 C 0.124 0.93822 0.90946 0.0
C679 C 0.14167 0.93693 0.86933 0.0
C680 C 0.13985 0.91487 0.85668 0.0
C681 C 0.12019 0.89416 0.88215 0.0
C682 C 0.10288 0.89602 0.92111 0.0
C683 C 0.10489 0.91755 0.936 0.0
C684 C 0.08501 0.91504 0.98425 0.0
C685 C 0.09439 0.92783 0.05789 0.0
C686 C 0.07021 0.92377 0.94432 0.0
C687 C 0.07141 0.88868 0.99443 0.0
C688 C 0.08171 0.87798 0.9563 0.0
C689 C 0.07228 0.85372 0.95748 0.0
C690 C 0.05228 0.84015 0.0007 0.0
C691 C 0.04223 0.85091 0.0435 0.0
C692 C 0.05173 0.87546 0.03895 0.0
H693 H 0.08147 0.22448 0.94637 0.0
H694 H 0.08155 0.19346 0.73653 0.0
H695 H 0.11804 0.19374 0.77085 0.0
H696 H 0.14673 0.26039 0.97089 0.0
H697 H 0.14443 0.25406 0.0679 0.0
H698 H 0.12113 0.25573 0.02131 0.0
H699 H 0.09115 0.21384 0.0675 0.0
H700 H 0.11435 0.21227 0.11428 0.0
H701 H 0.0964 0.18993 0.04869 0.0
H702 H 0.15199 0.19319 0.83385 0.0
H703 H 0.17841 0.18939 0.92364 0.0
H704 H 0.15447 0.21867 0.09315 0.0
C705 C 0.08963 0.21846 0.90692 0.0
C706 C 0.07896 0.20921 0.83864 0.0
C707 C 0.08961 0.20071 0.78913 0.0
C708 C 0.11039 0.20094 0.80794 0.0
C709 C 0.1202 0.20957 0.87668 0.0
C710 C 0.11011 0.21813 0.92549 0.0
C711 C 0.12226 0.22358 0.99926 0.0
C712 C 0.13436 0.25001 0.01578 0.0
C713 C 0.10501 0.20902 0.061 0.0
C714 C 0.14009 0.2159 0.98524 0.0
C715 C 0.13914 0.20845 0.91374 0.0
C716 C 0.15315 0.1993 0.88968 0.0
C717 C 0.1681 0.19724 0.94064 0.0
C718 C 0.1684 0.20388 0.01451 0.0
C719 C 0.15461 0.21372 0.03645 0.0
H720 H 0.78411 0.50651 0.72275 0.0
H721 H 0.82372 0.58087 0.67131 0.0
H722 H 0.79008 0.58514 0.71224 0.0
H723 H 0.72553 0.49603 0.67411 0.0
H724 H 0.71179 0.47634 0.75051 0.0
H725 H 0.73771 0.47867 0.70853 0.0
H726 H 0.75874 0.48886 0.8349 0.0
H727 H 0.73283 0.48623 0.87717 0.0
H728 H 0.76058 0.51299 0.88721 0.0
H729 H 0.75259 0.58136 0.76537 0.0
H730 H 0.71752 0.57127 0.84096 0.0
H731 H 0.70384 0.49979 0.86194 0.0
C732 C 0.78558 0.52364 0.71883 0.0
C733 C 0.80639 0.54332 0.69315 0.0
C734 C 0.80788 0.56556 0.69074 0.0
C735 C 0.7888 0.56809 0.71322 0.0
C736 C 0.7685 0.54825 0.73841 0.0
C737 C 0.76695 0.52651 0.7421 0.0
C738 C 0.74438 0.50845 0.77854 0.0
C739 C 0.72894 0.48871 0.72469 0.0
C740 C 0.74944 0.49857 0.8486 0.0
C741 C 0.73362 0.52348 0.7964 0.0
C742 C 0.74746 0.54625 0.7713 0.0
C743 C 0.74153 0.56353 0.78462 0.0
C744 C 0.72146 0.55759 0.82712 0.0
C745 C 0.70791 0.5347 0.8569 0.0
C746 C 0.71375 0.51735 0.8393 0.0
H747 H 0.4804 0.20717 0.95995 0.0
H748 H 0.47942 0.16399 0.77881 0.0
H749 H 0.47241 0.18908 0.69197 0.0
H750 H 0.43315 0.21533 0.88969 0.0
H751 H 0.44601 0.2448 0.92517 0.0
H752 H 0.4509 0.2234 0.97149 0.0
H753 H 0.49588 0.25127 0.96124 0.0
H754 H 0.49111 0.27273 0.91512 0.0
H755 H 0.50887 0.26228 0.87227 0.0
H756 H 0.46905 0.22135 0.62548 0.0
H757 H 0.46733 0.2565 0.58533 0.0
H758 H 0.4663 0.27549 0.81243 0.0
C759 C 0.47889 0.20311 0.90187 0.0
C760 C 0.48094 0.18407 0.87542 0.0
C761 C 0.47817 0.17876 0.79959 0.0
C762 C 0.47411 0.19282 0.75024 0.0
C763 C 0.47217 0.21155 0.77834 0.0
C764 C 0.47415 0.21644 0.85262 0.0
C765 C 0.471 0.23721 0.86958 0.0
C766 C 0.44895 0.22973 0.91677 0.0
C767 C 0.49303 0.25704 0.9067 0.0
C768 C 0.4678 0.24391 0.79282 0.0
C769 C 0.46853 0.22893 0.74082 0.0
C770 C 0.46792 0.23284 0.66576 0.0
C771 C 0.46691 0.25275 0.64346 0.0
C772 C 0.46608 0.26814 0.69607 0.0
C773 C 0.46612 0.26345 0.77148 0.0
H774 H 0.79885 0.30809 0.87774 0.0
H775 H 0.86007 0.30233 0.8249 0.0
H776 H 0.8358 0.26857 0.74414 0.0
H777 H 0.75912 0.24965 0.89119 0.0
H778 H 0.73483 0.25053 0.84873 0.0
H779 H 0.75744 0.27618 0.89403 0.0
H780 H 0.76508 0.30071 0.77514 0.0
H781 H 0.74214 0.27521 0.72961 0.0
H782 H 0.77122 0.29059 0.69049 0.0
H783 H 0.80333 0.231 0.68915 0.0
H784 H 0.76626 0.1964 0.64727 0.0
H785 H 0.72712 0.22887 0.72656 0.0
C786 C 0.80729 0.3002 0.8473 0.0
C787 C 0.83132 0.30778 0.85765 0.0
C788 C 0.84173 0.29692 0.81736 0.0
C789 C 0.82805 0.27765 0.77161 0.0
C790 C 0.80416 0.26994 0.7652 0.0
C791 C 0.79402 0.28133 0.80023 0.0
C792 C 0.76781 0.26901 0.78682 0.0
C793 C 0.754 0.26087 0.85951 0.0
C794 C 0.76118 0.28482 0.74288 0.0
C795 C 0.76462 0.24837 0.7414 0.0
C796 C 0.78574 0.2491 0.72975 0.0
C797 C 0.78678 0.23059 0.69599 0.0
C798 C 0.76571 0.21098 0.67293 0.0
C799 C 0.74405 0.2103 0.68273 0.0
C800 C 0.74358 0.22931 0.71681 0.0
H801 H 0.83675 0.44707 0.44758 0.0
H802 H 0.90806 0.47901 0.52886 0.0
H803 H 0.91076 0.44481 0.48438 0.0
H804 H 0.81924 0.38456 0.47712 0.0
H805 H 0.80334 0.37564 0.39167 0.0
H806 H 0.80556 0.40038 0.44133 0.0
H807 H 0.82307 0.42666 0.32585 0.0
H808 H 0.82077 0.40203 0.27594 0.0
H809 H 0.84872 0.42873 0.28266 0.0
H810 H 0.90641 0.40836 0.42367 0.0
H811 H 0.89777 0.37602 0.3375 0.0
H812 H 0.83054 0.36998 0.28701 0.0
C813 C 0.85267 0.44649 0.45776 0.0
C814 C 0.87205 0.46532 0.49281 0.0
C815 C 0.89297 0.46455 0.50271 0.0
C816 C 0.89458 0.44516 0.4781 0.0
C817 C 0.87521 0.42693 0.4428 0.0
C818 C 0.85476 0.42761 0.4318 0.0
C819 C 0.83771 0.40756 0.3836 0.0
C820 C 0.81513 0.39106 0.42598 0.0
C821 C 0.83227 0.4168 0.31284 0.0
C822 C 0.85195 0.39577 0.36767 0.0
C823 C 0.87324 0.40677 0.40399 0.0
C824 C 0.88972 0.39951 0.39543 0.0
C825 C 0.88461 0.38105 0.3466 0.0
C826 C 0.86349 0.37051 0.30564 0.0
C827 C 0.84677 0.37763 0.3179 0.0
H828 H 0.55384 0.3887 0.41442 0.0
H829 H 0.52834 0.43106 0.51737 0.0
H830 H 0.56373 0.46726 0.47343 0.0
H831 H 0.61631 0.42756 0.44276 0.0
H832 H 0.62425 0.4219 0.35345 0.0
H833 H 0.5982 0.39961 0.39881 0.0
H834 H 0.57305 0.39717 0.28592 0.0
H835 H 0.59905 0.41919 0.23999 0.0
H836 H 0.57429 0.42355 0.25207 0.0
H837 H 0.6021 0.49856 0.41853 0.0
H838 H 0.6366 0.52249 0.34019 0.0
H839 H 0.63489 0.45915 0.26361 0.0
C840 C 0.5559 0.40566 0.42819 0.0
C841 C 0.53871 0.40733 0.46989 0.0
C842 C 0.54149 0.42962 0.48559 0.0
C843 C 0.56156 0.45017 0.46138 0.0
C844 C 0.57833 0.44796 0.42056 0.0
C845 C 0.57544 0.42623 0.40281 0.0
C846 C 0.59478 0.4285 0.35231 0.0
C847 C 0.60924 0.41882 0.38906 0.0
C848 C 0.58468 0.4164 0.27819 0.0
C849 C 0.60901 0.45493 0.34399 0.0
C850 C 0.59956 0.46585 0.38516 0.0
C851 C 0.60959 0.49018 0.38591 0.0
C852 C 0.62928 0.50364 0.34138 0.0
C853 C 0.6384 0.49271 0.29526 0.0
C854 C 0.62838 0.46805 0.29816 0.0
H855 H 0.61741 0.17237 0.43678 0.0
H856 H 0.5824 0.09834 0.49265 0.0
H857 H 0.54443 0.09407 0.45274 0.0
H858 H 0.56991 0.18365 0.48551 0.0
H859 H 0.5755 0.20279 0.40782 0.0
H860 H 0.59924 0.20058 0.44894 0.0
H861 H 0.60912 0.18928 0.32278 0.0
H862 H 0.58566 0.19178 0.2813 0.0
H863 H 0.58638 0.16484 0.27271 0.0
H864 H 0.5107 0.09779 0.40188 0.0
H865 H 0.48519 0.10747 0.32823 0.0
H866 H 0.5431 0.17867 0.29979 0.0
C867 C 0.60167 0.15534 0.44168 0.0
C868 C 0.60269 0.13571 0.46844 0.0
C869 C 0.5819 0.11357 0.47229 0.0
C870 C 0.56028 0.11105 0.45042 0.0
C871 C 0.55989 0.13081 0.42422 0.0
C872 C 0.58013 0.15244 0.41879 0.0
C873 C 0.57554 0.17033 0.38154 0.0
C874 C 0.58033 0.19053 0.43411 0.0
C875 C 0.59002 0.17958 0.31037 0.0
C876 C 0.5496 0.15531 0.36554 0.0
C877 C 0.54075 0.13272 0.39213 0.0
C878 C 0.5174 0.11546 0.38128 0.0
C879 C 0.503 0.1212 0.33977 0.0
C880 C 0.51214 0.14388 0.30842 0.0
C881 C 0.53556 0.16125 0.32345 0.0
H882 H 0.53125 0.13199 0.87072 0.0
H883 H 0.55909 0.14742 0.09209 0.0
H884 H 0.5959 0.14981 0.04814 0.0
H885 H 0.5594 0.09856 0.8092 0.0
H886 H 0.56515 0.11151 0.71879 0.0
H887 H 0.53997 0.10756 0.76999 0.0
H888 H 0.55423 0.15195 0.75548 0.0
H889 H 0.57951 0.15602 0.70491 0.0
H890 H 0.58329 0.17328 0.78598 0.0
H891 H 0.63043 0.15188 0.97755 0.0
H892 H 0.6604 0.15658 0.88526 0.0
H893 H 0.61057 0.14361 0.71077 0.0
C894 C 0.54485 0.13521 0.91019 0.0
C895 C 0.54227 0.13907 0.98487 0.0
C896 C 0.56074 0.14415 0.03468 0.0
C897 C 0.58164 0.14549 0.01026 0.0
C898 C 0.58386 0.14208 0.93576 0.0
C899 C 0.56598 0.1372 0.88644 0.0
C900 C 0.5735 0.13668 0.80833 0.0
C901 C 0.55862 0.11211 0.77462 0.0
C902 C 0.57258 0.15561 0.76094 0.0
C903 C 0.59848 0.14234 0.82118 0.0
C904 C 0.60408 0.14491 0.895 0.0
C905 C 0.62625 0.14998 0.91958 0.0
C906 C 0.64313 0.15263 0.86709 0.0
C907 C 0.63781 0.15083 0.79132 0.0
C908 C 0.61519 0.1455 0.76849 0.0
H909 H 0.84067 0.39735 0.95835 0.0
H910 H 0.91553 0.43245 0.00023 0.0
H911 H 0.91933 0.47011 0.95852 0.0
H912 H 0.84552 0.4253 0.79288 0.0
H913 H 0.81901 0.42669 0.80373 0.0
H914 H 0.82178 0.40388 0.84881 0.0
H915 H 0.81298 0.41662 0.97414 0.0
H916 H 0.81039 0.43968 0.92927 0.0
H917 H 0.83075 0.44661 0.00406 0.0
H918 H 0.91522 0.50319 0.90326 0.0
H919 H 0.90483 0.52714 0.82364 0.0
H920 H 0.83317 0.46935 0.81135 0.0
C921 C 0.85778 0.41309 0.96054 0.0
C922 C 0.87777 0.41214 0.9835 0.0
C923 C 0.89999 0.4329 0.98319 0.0
C924 C 0.90225 0.45436 0.96021 0.0
C925 C 0.88216 0.45465 0.93719 0.0
C926 C 0.86039 0.43444 0.93642 0.0
C927 C 0.8421 0.43858 0.9001 0.0
C928 C 0.8315 0.42268 0.83238 0.0
C929 C 0.82292 0.43517 0.9552 0.0
C930 C 0.85708 0.46411 0.87849 0.0
C931 C 0.87999 0.47331 0.90221 0.0
C932 C 0.89728 0.49625 0.88518 0.0
C933 C 0.89119 0.50979 0.84039 0.0
C934 C 0.86817 0.50009 0.81192 0.0
C935 C 0.85083 0.47724 0.83313 0.0
H936 H 0.61789 0.45296 0.93519 0.0
H937 H 0.58143 0.49007 0.9961 0.0
H938 H 0.54402 0.45653 0.95128 0.0
H939 H 0.58824 0.43165 0.76761 0.0
H940 H 0.58801 0.40415 0.77218 0.0
H941 H 0.6109 0.42968 0.81722 0.0
H942 H 0.60059 0.40671 0.94035 0.0
H943 H 0.57747 0.38114 0.8957 0.0
H944 H 0.57099 0.39322 0.97522 0.0
H945 H 0.51098 0.4192 0.89701 0.0
H946 H 0.48616 0.38428 0.82136 0.0
H947 H 0.54536 0.37341 0.7881 0.0
C948 C 0.60193 0.45384 0.9402 0.0
C949 C 0.60233 0.47383 0.96998 0.0
C950 C 0.58134 0.47477 0.97368 0.0
C951 C 0.56007 0.45578 0.94894 0.0
C952 C 0.56029 0.43624 0.91989 0.0
C953 C 0.58078 0.43536 0.91435 0.0
C954 C 0.57692 0.41361 0.874 0.0
C955 C 0.5919 0.42017 0.80358 0.0
C956 C 0.58178 0.39773 0.92435 0.0
C957 C 0.55107 0.40247 0.85661 0.0
C958 C 0.54164 0.41546 0.88512 0.0
C959 C 0.51816 0.40886 0.87471 0.0
C960 C 0.50416 0.3889 0.83207 0.0
C961 C 0.51386 0.37611 0.79911 0.0
C962 C 0.53748 0.38278 0.81293 0.0
H963 H 0.45966 0.19421 0.30478 0.0
H964 H 0.47317 0.22012 0.08097 0.0
H965 H 0.47334 0.25619 0.12055 0.0
H966 H 0.42431 0.22123 0.3653 0.0
H967 H 0.4381 0.22832 0.45439 0.0
H968 H 0.43438 0.20281 0.40582 0.0
H969 H 0.47907 0.21834 0.41687 0.0
H970 H 0.48289 0.24394 0.46456 0.0
H971 H 0.49955 0.24722 0.38231 0.0
H972 H 0.47495 0.29087 0.18724 0.0
H973 H 0.48081 0.322 0.27641 0.0
H974 H 0.47018 0.27435 0.45612 0.0
C975 C 0.4618 0.20714 0.26395 0.0
C976 C 0.46582 0.2043 0.18972 0.0
C977 C 0.46965 0.22196 0.13795 0.0
C978 C 0.46975 0.24243 0.15993 0.0
C979 C 0.46637 0.24508 0.23412 0.0
C980 C 0.46259 0.22794 0.2854 0.0
C981 C 0.46253 0.23624 0.36274 0.0
C982 C 0.43839 0.22126 0.39918 0.0
C983 C 0.48218 0.23645 0.4093 0.0
C984 C 0.46739 0.26085 0.3471 0.0
C985 C 0.46898 0.26553 0.27268 0.0
C986 C 0.47367 0.28738 0.24568 0.0
C987 C 0.47701 0.30493 0.29637 0.0
C988 C 0.47628 0.30055 0.37262 0.0
C989 C 0.47117 0.27819 0.3979 0.0
H990 H 0.7846 0.28296 0.21079 0.0
H991 H 0.82225 0.24648 0.15704 0.0
H992 H 0.7885 0.20916 0.20164 0.0
H993 H 0.76327 0.2548 0.37799 0.0
H994 H 0.7356 0.25416 0.37236 0.0
H995 H 0.76088 0.27675 0.32529 0.0
H996 H 0.73778 0.26488 0.2026 0.0
H997 H 0.71241 0.24208 0.24941 0.0
H998 H 0.72451 0.23492 0.17133 0.0
H999 H 0.75154 0.17647 0.2594 0.0
H1000 H 0.71746 0.15255 0.34 0.0
H1001 H 0.70574 0.21154 0.36299 0.0
C1002 C 0.7855 0.267 0.20672 0.0
C1003 C 0.80579 0.26743 0.17946 0.0
C1004 C 0.80673 0.2464 0.17735 0.0
C1005 C 0.78761 0.22515 0.202 0.0
C1006 C 0.76787 0.22538 0.22922 0.0
C1007 C 0.76686 0.24585 0.23248 0.0
C1008 C 0.7451 0.24217 0.27248 0.0
C1009 C 0.75161 0.25789 0.34109 0.0
C1010 C 0.729 0.24625 0.22085 0.0
C1011 C 0.73425 0.21652 0.29291 0.0
C1012 C 0.74726 0.20694 0.26578 0.0
C1013 C 0.74112 0.18373 0.28032 0.0
C1014 C 0.72165 0.17024 0.32577 0.0
C1015 C 0.70895 0.18022 0.35734 0.0
C1016 C 0.71505 0.20345 0.3391 0.0
H1017 H 0.80961 0.53674 0.45105 0.0
H1018 H 0.83951 0.51334 0.28163 0.0
H1019 H 0.8147 0.5183 0.18826 0.0
H1020 H 0.752 0.50952 0.38724 0.0
H1021 H 0.74723 0.53343 0.41073 0.0
H1022 H 0.76813 0.52903 0.46167 0.0
H1023 H 0.80054 0.57172 0.43251 0.0
H1024 H 0.77976 0.57628 0.38107 0.0
H1025 H 0.80666 0.58144 0.33829 0.0
H1026 H 0.7829 0.52147 0.11782 0.0
H1027 H 0.74919 0.52515 0.07448 0.0
H1028 H 0.74341 0.55006 0.28949 0.0
C1029 C 0.81096 0.53271 0.39416 0.0
C1030 C 0.82606 0.52429 0.37317 0.0
C1031 C 0.82785 0.51966 0.29837 0.0
C1032 C 0.8139 0.52248 0.24528 0.0
C1033 C 0.79891 0.53059 0.26813 0.0
C1034 C 0.79773 0.536 0.34074 0.0
C1035 C 0.78021 0.54422 0.35193 0.0
C1036 C 0.76074 0.52808 0.40605 0.0
C1037 C 0.79253 0.56995 0.37744 0.0
C1038 C 0.77093 0.54176 0.27464 0.0
C1039 C 0.78189 0.53387 0.22694 0.0
C1040 C 0.77462 0.52817 0.15424 0.0
C1041 C 0.75548 0.53027 0.13017 0.0
C1042 C 0.7441 0.53832 0.1784 0.0
C1043 C 0.75228 0.54457 0.25096 0.0
H1044 H 0.40191 0.8692 0.28766 0.0
H1045 H 0.35514 0.8596 0.10677 0.0
H1046 H 0.387 0.86688 0.01844 0.0
H1047 H 0.45461 0.91664 0.20269 0.0
H1048 H 0.47339 0.9069 0.24239 0.0
H1049 H 0.44716 0.90163 0.29002 0.0
H1050 H 0.43273 0.85708 0.29503 0.0
H1051 H 0.45897 0.86218 0.24835 0.0
H1052 H 0.4306 0.84161 0.21109 0.0
H1053 H 0.4228 0.8707 0.95201 0.0
H1054 H 0.45988 0.87282 0.91272 0.0
H1055 H 0.4839 0.88373 0.13818 0.0
C1056 C 0.39833 0.86854 0.22938 0.0
C1057 C 0.37604 0.86337 0.20356 0.0
C1058 C 0.37212 0.86331 0.12721 0.0
C1059 C 0.39009 0.8675 0.07699 0.0
C1060 C 0.41191 0.87239 0.10457 0.0
C1061 C 0.41611 0.87325 0.17912 0.0
C1062 C 0.44085 0.87865 0.19543 0.0
C1063 C 0.45483 0.90237 0.23495 0.0
C1064 C 0.44076 0.85869 0.24006 0.0
C1065 C 0.44982 0.87985 0.11824 0.0
C1066 C 0.4329 0.87622 0.06645 0.0
C1067 C 0.43634 0.87416 0.99189 0.0
C1068 C 0.45738 0.87539 0.97007 0.0
C1069 C 0.47476 0.87901 0.02244 0.0
C1070 C 0.47116 0.88179 0.09706 0.0
H1071 H 0.1812 0.54802 0.21884 0.0
H1072 H 0.11333 0.48696 0.17262 0.0
H1073 H 0.10338 0.51113 0.09323 0.0
H1074 H 0.16281 0.58838 0.23362 0.0
H1075 H 0.18777 0.61231 0.18873 0.0
H1076 H 0.1909 0.58979 0.2346 0.0
H1077 H 0.20671 0.58136 0.11484 0.0
H1078 H 0.20399 0.60416 0.06871 0.0
H1079 H 0.18978 0.57484 0.03153 0.0
H1080 H 0.09823 0.54329 0.03711 0.0
H1081 H 0.10081 0.58019 0.99243 0.0
H1082 H 0.17302 0.61941 0.06634 0.0
C1083 C 0.16452 0.53961 0.19035 0.0
C1084 C 0.14809 0.51561 0.20174 0.0
C1085 C 0.12634 0.50526 0.16399 0.0
C1086 C 0.12046 0.51887 0.11908 0.0
C1087 C 0.13672 0.54268 0.11115 0.0
C1088 C 0.15855 0.55284 0.14415 0.0
C1089 C 0.17251 0.57896 0.12892 0.0
C1090 C 0.17886 0.59318 0.20074 0.0
C1091 C 0.19455 0.58519 0.08326 0.0
C1092 C 0.15479 0.58204 0.08459 0.0
C1093 C 0.13418 0.56095 0.07522 0.0
C1094 C 0.11448 0.55982 0.04229 0.0
C1095 C 0.11602 0.58079 0.01762 0.0
C1096 C 0.1372 0.6024 0.02506 0.0
C1097 C 0.15681 0.60295 0.05848 0.0
H1098 H 0.39608 0.5626 0.05332 0.0
H1099 H 0.43198 0.52479 0.99431 0.0
H1100 H 0.46956 0.55829 0.03776 0.0
H1101 H 0.4441 0.62273 0.0136 0.0
H1102 H 0.43742 0.63466 0.09308 0.0
H1103 H 0.41432 0.60947 0.04678 0.0
H1104 H 0.40297 0.58599 0.16903 0.0
H1105 H 0.42585 0.6111 0.21562 0.0
H1106 H 0.4251 0.58334 0.21956 0.0
H1107 H 0.50266 0.59505 0.09477 0.0
H1108 H 0.52708 0.6289 0.17531 0.0
H1109 H 0.46845 0.64087 0.20419 0.0
C1110 C 0.41197 0.56162 0.0479 0.0
C1111 C 0.4113 0.54135 0.01946 0.0
C1112 C 0.43224 0.5403 0.01556 0.0
C1113 C 0.45364 0.55928 0.03955 0.0
C1114 C 0.45366 0.579 0.06797 0.0
C1115 C 0.43327 0.58012 0.07305 0.0
C1116 C 0.43727 0.60181 0.11407 0.0
C1117 C 0.43303 0.61813 0.06386 0.0
C1118 C 0.4219 0.59515 0.18368 0.0
C1119 C 0.46299 0.6125 0.13285 0.0
C1120 C 0.47233 0.59948 0.10412 0.0
C1121 C 0.49558 0.60549 0.11695 0.0
C1122 C 0.50936 0.62483 0.16235 0.0
C1123 C 0.49963 0.63752 0.19555 0.0
C1124 C 0.47635 0.63157 0.179 0.0
H1125 H 0.50713 0.78853 0.75724 0.0
H1126 H 0.57735 0.8181 0.84612 0.0
H1127 H 0.57902 0.78309 0.80365 0.0
H1128 H 0.48681 0.7265 0.79127 0.0
H1129 H 0.47152 0.7173 0.70484 0.0
H1130 H 0.4748 0.74314 0.75003 0.0
H1131 H 0.49434 0.76794 0.63312 0.0
H1132 H 0.49086 0.74215 0.58746 0.0
H1133 H 0.51953 0.76796 0.59398 0.0
H1134 H 0.57283 0.74488 0.74966 0.0
H1135 H 0.56258 0.71052 0.67085 0.0
H1136 H 0.49794 0.70831 0.60767 0.0
C1137 C 0.5227 0.78741 0.76865 0.0
C1138 C 0.542 0.80567 0.80575 0.0
C1139 C 0.56239 0.80411 0.81799 0.0
C1140 C 0.56337 0.78426 0.79465 0.0
C1141 C 0.54396 0.76644 0.75821 0.0
C1142 C 0.52419 0.76809 0.74406 0.0
C1143 C 0.5068 0.74798 0.69679 0.0
C1144 C 0.48361 0.73283 0.73824 0.0
C1145 C 0.50266 0.75705 0.62351 0.0
C1146 C 0.51996 0.73484 0.68561 0.0
C1147 C 0.54106 0.74537 0.72309 0.0
C1148 C 0.55636 0.73652 0.72009 0.0
C1149 C 0.55034 0.71692 0.67544 0.0
C1150 C 0.52953 0.70686 0.63288 0.0
C1151 C 0.51393 0.71563 0.63967 0.0
H1152 H 0.30745 0.80072 0.62868 0.0
H1153 H 0.29551 0.85948 0.65513 0.0
H1154 H 0.26086 0.83488 0.73263 0.0
H1155 H 0.25027 0.75774 0.60883 0.0
H1156 H 0.25212 0.73529 0.66031 0.0
H1157 H 0.27786 0.75826 0.61609 0.0
H1158 H 0.30013 0.76948 0.74013 0.0
H1159 H 0.27455 0.74622 0.78474 0.0
H1160 H 0.28745 0.7759 0.81831 0.0
H1161 H 0.22359 0.80182 0.78711 0.0
H1162 H 0.18985 0.76431 0.83066 0.0
H1163 H 0.22782 0.72818 0.77662 0.0
C1164 C 0.29797 0.8086 0.65274 0.0
C1165 C 0.30419 0.83199 0.63622 0.0
C1166 C 0.29124 0.84168 0.66798 0.0
C1167 C 0.27144 0.8278 0.71169 0.0
C1168 C 0.2652 0.80448 0.72446 0.0
C1169 C 0.27847 0.79514 0.69756 0.0
C1170 C 0.26744 0.76932 0.71617 0.0
C1171 C 0.26158 0.75428 0.64619 0.0
C1172 C 0.28334 0.76498 0.76794 0.0
C1173 C 0.24542 0.76534 0.75507 0.0
C1174 C 0.24435 0.78578 0.75916 0.0
C1175 C 0.22452 0.78585 0.7861 0.0
C1176 C 0.2054 0.7645 0.81013 0.0
C1177 C 0.20648 0.74356 0.80789 0.0
C1178 C 0.22682 0.7441 0.78054 0.0
H1179 H 0.19417 0.46307 0.56403 0.0
H1180 H 0.17106 0.49485 0.72778 0.0
H1181 H 0.19684 0.49112 0.82027 0.0
H1182 H 0.19885 0.42111 0.69224 0.0
H1183 H 0.2241 0.42392 0.6442 0.0
H1184 H 0.20193 0.42679 0.59478 0.0
H1185 H 0.23371 0.46747 0.54661 0.0
H1186 H 0.25598 0.465 0.59611 0.0
H1187 H 0.25214 0.48997 0.61117 0.0
H1188 H 0.22971 0.48958 0.88689 0.0
H1189 H 0.26502 0.48812 0.92533 0.0
H1190 H 0.26399 0.45419 0.72036 0.0
C1191 C 0.19425 0.46879 0.61991 0.0
C1192 C 0.18089 0.47928 0.63955 0.0
C1193 C 0.18123 0.48668 0.71252 0.0
C1194 C 0.19574 0.48457 0.76504 0.0
C1195 C 0.20914 0.47449 0.74353 0.0
C1196 C 0.20814 0.46632 0.67294 0.0
C1197 C 0.22502 0.45727 0.66224 0.0
C1198 C 0.21167 0.43069 0.64752 0.0
C1199 C 0.24276 0.47075 0.60043 0.0
C1200 C 0.23667 0.46274 0.73673 0.0
C1201 C 0.22718 0.47252 0.7831 0.0
C1202 C 0.23683 0.48136 0.85186 0.0
C1203 C 0.25687 0.48051 0.87315 0.0
C1204 C 0.26683 0.47064 0.82623 0.0
C1205 C 0.25625 0.46117 0.75803 0.0
H1206 H 0.19632 0.45635 0.21108 0.0
H1207 H 0.22611 0.48308 0.42565 0.0
H1208 H 0.26301 0.48467 0.38799 0.0
H1209 H 0.22748 0.42272 0.17348 0.0
H1210 H 0.23167 0.43135 0.07815 0.0
H1211 H 0.20619 0.42772 0.12689 0.0
H1212 H 0.21703 0.47023 0.09136 0.0
H1213 H 0.24237 0.47378 0.0428 0.0
H1214 H 0.24576 0.49424 0.11408 0.0
H1215 H 0.29818 0.48709 0.3222 0.0
H1216 H 0.32884 0.4925 0.2314 0.0
H1217 H 0.27655 0.46725 0.05889 0.0
C1218 C 0.21035 0.46173 0.25077 0.0
C1219 C 0.20835 0.46922 0.32149 0.0
C1220 C 0.22733 0.47705 0.37133 0.0
C1221 C 0.2483 0.47793 0.35053 0.0
C1222 C 0.25006 0.47114 0.27943 0.0
C1223 C 0.23156 0.46321 0.23027 0.0
C1224 C 0.23884 0.45987 0.15448 0.0
C1225 C 0.22524 0.43387 0.13196 0.0
C1226 C 0.23583 0.47548 0.09739 0.0
C1227 C 0.26445 0.46796 0.168 0.0
C1228 C 0.27054 0.47378 0.24071 0.0
C1229 C 0.29357 0.4824 0.26521 0.0
C1230 C 0.31084 0.48545 0.21363 0.0
C1231 C 0.30492 0.48046 0.1387 0.0
C1232 C 0.28144 0.4713 0.11612 0.0
H1233 H 0.5089 0.726 0.26129 0.0
H1234 H 0.58107 0.76459 0.33597 0.0
H1235 H 0.58404 0.80169 0.29145 0.0
H1236 H 0.51929 0.7575 0.09497 0.0
H1237 H 0.49122 0.75611 0.09471 0.0
H1238 H 0.49434 0.73344 0.13956 0.0
H1239 H 0.47833 0.74108 0.26039 0.0
H1240 H 0.47543 0.76401 0.216 0.0
H1241 H 0.49251 0.77023 0.29886 0.0
H1242 H 0.57892 0.83431 0.23688 0.0
H1243 H 0.56859 0.85888 0.16058 0.0
H1244 H 0.50064 0.79797 0.11431 0.0
C1245 C 0.52523 0.74233 0.26915 0.0
C1246 C 0.54468 0.74263 0.30284 0.0
C1247 C 0.56598 0.76414 0.31042 0.0
C1248 C 0.56773 0.78523 0.28589 0.0
C1249 C 0.54812 0.78433 0.2531 0.0
C1250 C 0.52741 0.76335 0.24359 0.0
C1251 C 0.50966 0.76666 0.20027 0.0
C1252 C 0.50327 0.7526 0.12811 0.0
C1253 C 0.48768 0.76011 0.24668 0.0
C1254 C 0.52365 0.79281 0.18615 0.0
C1255 C 0.54558 0.8028 0.21845 0.0
C1256 C 0.56177 0.82668 0.21156 0.0
C1257 C 0.55567 0.84052 0.16849 0.0
C1258 C 0.53378 0.83032 0.13163 0.0
C1259 C 0.51744 0.80626 0.1421 0.0
H1260 H 0.28494 0.78383 0.2763 0.0
H1261 H 0.24736 0.81927 0.34293 0.0
H1262 H 0.21014 0.78545 0.29857 0.0
H1263 H 0.25547 0.76386 0.10947 0.0
H1264 H 0.25561 0.73651 0.10966 0.0
H1265 H 0.27823 0.76155 0.15731 0.0
H1266 H 0.26795 0.73708 0.27742 0.0
H1267 H 0.24514 0.71195 0.23006 0.0
H1268 H 0.23825 0.72277 0.3118 0.0
H1269 H 0.17756 0.74864 0.24119 0.0
H1270 H 0.15333 0.71496 0.16019 0.0
H1271 H 0.21316 0.70544 0.12214 0.0
C1272 C 0.26874 0.78417 0.28307 0.0
C1273 C 0.26878 0.80383 0.3141 0.0
C1274 C 0.24752 0.80418 0.31978 0.0
C1275 C 0.22635 0.78503 0.29524 0.0
C1276 C 0.22691 0.7659 0.26426 0.0
C1277 C 0.24764 0.76552 0.25716 0.0
C1278 C 0.24412 0.74441 0.21358 0.0
C1279 C 0.25924 0.75205 0.14336 0.0
C1280 C 0.24916 0.72809 0.26107 0.0
C1281 C 0.21826 0.73318 0.19595 0.0
C1282 C 0.20849 0.74546 0.22735 0.0
C1283 C 0.18499 0.73881 0.21676 0.0
C1284 C 0.17132 0.71956 0.17101 0.0
C1285 C 0.18137 0.70756 0.13515 0.0
C1286 C 0.205 0.71421 0.14921 0.0
H1287 H 0.17976 0.63967 0.7084 0.0
H1288 H 0.10968 0.62896 0.67757 0.0
H1289 H 0.09956 0.59444 0.59982 0.0
H1290 H 0.18539 0.62034 0.51924 0.0
H1291 H 0.20157 0.60686 0.55339 0.0
H1292 H 0.20401 0.63236 0.59863 0.0
H1293 H 0.19181 0.60938 0.72167 0.0
H1294 H 0.18896 0.58373 0.67679 0.0
H1295 H 0.16447 0.58194 0.72694 0.0
H1296 H 0.09508 0.5572 0.54449 0.0
H1297 H 0.09855 0.52338 0.50035 0.0
H1298 H 0.17227 0.56018 0.55907 0.0
C1299 C 0.16252 0.63047 0.68342 0.0
C1300 C 0.14555 0.63704 0.69863 0.0
C1301 C 0.12308 0.62445 0.66569 0.0
C1302 C 0.11711 0.60472 0.62182 0.0
C1303 C 0.13399 0.59817 0.61008 0.0
C1304 C 0.15644 0.61105 0.63835 0.0
C1305 C 0.17103 0.59979 0.62026 0.0
C1306 C 0.19172 0.61579 0.56986 0.0
C1307 C 0.17955 0.59333 0.6906 0.0
C1308 C 0.15303 0.57809 0.58 0.0
C1309 C 0.13172 0.57738 0.57485 0.0
C1310 C 0.11184 0.55786 0.54636 0.0
C1311 C 0.1139 0.5387 0.52196 0.0
C1312 C 0.13574 0.53944 0.52532 0.0
C1313 C 0.15551 0.55946 0.55419 0.0
H1314 H 0.37344 0.54979 0.7227 0.0
H1315 H 0.37508 0.48691 0.66103 0.0
H1316 H 0.40904 0.5106 0.58008 0.0
H1317 H 0.39132 0.57881 0.53806 0.0
H1318 H 0.40817 0.60746 0.57909 0.0
H1319 H 0.38233 0.58498 0.62487 0.0
H1320 H 0.40714 0.59031 0.74137 0.0
H1321 H 0.4331 0.61243 0.69571 0.0
H1322 H 0.43268 0.58701 0.73465 0.0
H1323 H 0.44713 0.54227 0.52432 0.0
H1324 H 0.48239 0.57875 0.48142 0.0
H1325 H 0.45358 0.62007 0.57074 0.0
C1326 C 0.3805 0.5409 0.6905 0.0
C1327 C 0.37171 0.51654 0.69848 0.0
C1328 C 0.38148 0.50555 0.65564 0.0
C1329 C 0.40084 0.51887 0.60969 0.0
C1330 C 0.40977 0.54304 0.60569 0.0
C1331 C 0.39947 0.55384 0.64329 0.0
C1332 C 0.41289 0.58016 0.63183 0.0
C1333 C 0.39778 0.58833 0.59101 0.0
C1334 C 0.42199 0.59323 0.70525 0.0
C1335 C 0.43281 0.58259 0.58414 0.0
C1336 C 0.43086 0.56103 0.56996 0.0
C1337 C 0.44851 0.55918 0.53325 0.0
C1338 C 0.4685 0.57991 0.50963 0.0
C1339 C 0.47035 0.602 0.52188 0.0
C1340 C 0.45223 0.60327 0.55919 0.0
H1341 H 0.40848 0.88613 0.63456 0.0
H1342 H 0.4185 0.86938 0.41235 0.0
H1343 H 0.45431 0.86887 0.45105 0.0
H1344 H 0.47162 0.92124 0.68904 0.0
H1345 H 0.46539 0.90861 0.77994 0.0
H1346 H 0.4436 0.91234 0.7314 0.0
H1347 H 0.41372 0.86802 0.74885 0.0
H1348 H 0.43546 0.86412 0.79636 0.0
H1349 H 0.4211 0.84659 0.71658 0.0
H1350 H 0.48737 0.86704 0.51724 0.0
H1351 H 0.51267 0.86127 0.60661 0.0
H1352 H 0.47817 0.87562 0.78548 0.0
C1353 C 0.41876 0.88321 0.59382 0.0
C1354 C 0.41122 0.8783 0.52039 0.0
C1355 C 0.42436 0.8735 0.46874 0.0
C1356 C 0.4447 0.87323 0.4902 0.0
C1357 C 0.45139 0.87747 0.56374 0.0
C1358 C 0.43873 0.88228 0.61481 0.0
C1359 C 0.44765 0.88312 0.69186 0.0
C1360 C 0.45767 0.9078 0.72498 0.0
C1361 C 0.42834 0.86434 0.74126 0.0
C1362 C 0.46687 0.87748 0.67641 0.0
C1363 C 0.46924 0.87484 0.6022 0.0
C1364 C 0.48572 0.86916 0.5755 0.0
C1365 C 0.49996 0.86589 0.62631 0.0
C1366 C 0.49701 0.86768 0.70247 0.0
C1367 C 0.48048 0.87382 0.72737 0.0
H1368 H 0.0528 0.30628 0.73918 0.0
H1369 H 0.06537 0.266 0.57569 0.0
H1370 H 0.09029 0.30226 0.50504 0.0
H1371 H 0.04477 0.34116 0.6164 0.0
H1372 H 0.05873 0.36785 0.66945 0.0
H1373 H 0.04591 0.33986 0.71518 0.0
H1374 H 0.08559 0.35189 0.77858 0.0
H1375 H 0.09851 0.38011 0.73369 0.0
H1376 H 0.11169 0.36196 0.72346 0.0
H1377 H 0.10903 0.34147 0.44385 0.0
H1378 H 0.12099 0.38118 0.39738 0.0
H1379 H 0.09543 0.39603 0.59893 0.0
C1380 C 0.06165 0.30538 0.69013 0.0
C1381 C 0.05769 0.2836 0.6633 0.0
C1382 C 0.0686 0.28271 0.59731 0.0
C1383 C 0.08275 0.30318 0.55694 0.0
C1384 C 0.0857 0.32437 0.58318 0.0
C1385 C 0.07562 0.32569 0.64853 0.0
C1386 C 0.07937 0.35016 0.66001 0.0
C1387 C 0.05579 0.34971 0.66555 0.0
C1388 C 0.09471 0.36171 0.72797 0.0
C1389 C 0.09234 0.36205 0.58987 0.0
C1390 C 0.09613 0.34699 0.54684 0.0
C1391 C 0.10651 0.35357 0.47757 0.0
C1392 C 0.11315 0.37615 0.45147 0.0
C1393 C 0.1092 0.39183 0.49431 0.0
C1394 C 0.09887 0.38462 0.56478 0.0
H1395 H 0.73 0.76046 0.57775 0.0
H1396 H 0.71344 0.78334 0.78171 0.0
H1397 H 0.67353 0.77039 0.73535 0.0
H1398 H 0.69557 0.77626 0.45531 0.0
H1399 H 0.68642 0.75073 0.39835 0.0
H1400 H 0.71437 0.76382 0.44456 0.0
H1401 H 0.70275 0.72383 0.5057 0.0
H1402 H 0.67487 0.71062 0.45952 0.0
H1403 H 0.67593 0.7089 0.55817 0.0
H1404 H 0.6346 0.75167 0.6723 0.0
H1405 H 0.59905 0.72767 0.59814 0.0
H1406 H 0.64089 0.71764 0.43387 0.0
C1407 C 0.71815 0.76309 0.61251 0.0
C1408 C 0.72497 0.773 0.68355 0.0
C1409 C 0.70872 0.77583 0.72721 0.0
C1410 C 0.68603 0.76863 0.70117 0.0
C1411 C 0.6799 0.75878 0.63121 0.0
C1412 C 0.69549 0.75603 0.58743 0.0
C1413 C 0.68406 0.7435 0.51639 0.0
C1414 C 0.69581 0.75954 0.44971 0.0
C1415 C 0.68442 0.72034 0.5096 0.0
C1416 C 0.65936 0.73905 0.52778 0.0
C1417 C 0.65743 0.74823 0.59415 0.0
C1418 C 0.63599 0.74478 0.61975 0.0
C1419 C 0.61592 0.73114 0.57739 0.0
C1420 C 0.61742 0.72122 0.51009 0.0
C1421 C 0.63947 0.72565 0.48412 0.0
H1422 H 0.25827 0.95689 0.73306 0.0
H1423 H 0.21485 0.95701 0.55457 0.0
H1424 H 0.22665 0.93356 0.47866 0.0
H1425 H 0.30526 0.9665 0.62395 0.0
H1426 H 0.31341 0.94818 0.67501 0.0
H1427 H 0.29844 0.9612 0.72049 0.0
H1428 H 0.26581 0.92008 0.76349 0.0
H1429 H 0.28082 0.9069 0.71858 0.0
H1430 H 0.2506 0.89715 0.69666 0.0
H1431 H 0.24641 0.91411 0.4173 0.0
H1432 H 0.27303 0.90022 0.37464 0.0
H1433 H 0.30474 0.9138 0.59144 0.0
C1434 C 0.25067 0.95119 0.679 0.0
C1435 C 0.23537 0.95833 0.64976 0.0
C1436 C 0.2264 0.95143 0.57784 0.0
C1437 C 0.23297 0.93809 0.53447 0.0
C1438 C 0.24867 0.93191 0.5637 0.0
C1439 C 0.25737 0.93812 0.63441 0.0
C1440 C 0.27588 0.93137 0.64953 0.0
C1441 C 0.29964 0.95311 0.66832 0.0
C1442 C 0.26778 0.91276 0.71069 0.0
C1443 C 0.27669 0.92112 0.57575 0.0
C1444 C 0.26061 0.92123 0.5274 0.0
C1445 C 0.2589 0.91365 0.45495 0.0
C1446 C 0.27414 0.90584 0.43112 0.0
C1447 C 0.29105 0.90593 0.47942 0.0
C1448 C 0.29204 0.91345 0.55291 0.0
H1449 H 0.30109 0.03143 0.80141 0.0
H1450 H 0.28013 0.08378 0.82832 0.0
H1451 H 0.31687 0.10907 0.89737 0.0
H1452 H 0.32566 0.03648 0.97404 0.0
H1453 H 0.34984 0.03303 0.94347 0.0
H1454 H 0.32294 0.02005 0.89179 0.0
H1455 H 0.34563 0.04216 0.77447 0.0
H1456 H 0.3727 0.05485 0.82537 0.0
H1457 H 0.36449 0.0736 0.77715 0.0
H1458 H 0.35406 0.12621 0.9761 0.0
H1459 H 0.39118 0.13651 0.04101 0.0
H1460 H 0.38821 0.07368 0.95441 0.0
C1461 C 0.30464 0.04854 0.82015 0.0
C1462 C 0.28817 0.05597 0.80901 0.0
C1463 C 0.29293 0.07815 0.83524 0.0
C1464 C 0.31359 0.09246 0.87498 0.0
C1465 C 0.32931 0.08436 0.88673 0.0
C1466 C 0.32529 0.06314 0.85843 0.0
C1467 C 0.3447 0.05824 0.87883 0.0
C1468 C 0.33521 0.03561 0.92476 0.0
C1469 C 0.35765 0.05716 0.80985 0.0
C1470 C 0.36009 0.07975 0.9244 0.0
C1471 C 0.35089 0.09455 0.92915 0.0
C1472 C 0.36159 0.11492 0.97174 0.0
C1473 C 0.38251 0.12053 0.0089 0.0
C1474 C 0.39256 0.10596 0.00222 0.0
C1475 C 0.38104 0.08528 0.95977 0.0
H1476 H 0.97623 0.25061 0.92769 0.0
H1477 H 0.9374 0.22802 0.72273 0.0
H1478 H 0.91069 0.24144 0.76746 0.0
H1479 H 0.92545 0.23546 0.04819 0.0
H1480 H 0.94181 0.26094 0.10533 0.0
H1481 H 0.9566 0.24753 0.06039 0.0
H1482 H 0.98563 0.28739 0.99977 0.0
H1483 H 0.97101 0.30091 0.04462 0.0
H1484 H 0.9743 0.30259 0.9461 0.0
H1485 H 0.89069 0.26057 0.82841 0.0
H1486 H 0.87902 0.28475 0.90119 0.0
H1487 H 0.92991 0.29434 0.06829 0.0
C1488 C 0.96191 0.24813 0.89248 0.0
C1489 C 0.95895 0.23817 0.82154 0.0
C1490 C 0.9401 0.23555 0.77718 0.0
C1491 C 0.92474 0.24303 0.80226 0.0
C1492 C 0.92833 0.25297 0.87202 0.0
C1493 C 0.94641 0.25549 0.91664 0.0
C1494 C 0.94733 0.26813 0.98737 0.0
C1495 C 0.94251 0.25205 0.05428 0.0
C1496 C 0.97097 0.29111 0.99485 0.0
C1497 C 0.92732 0.2729 0.97469 0.0
C1498 C 0.91648 0.26378 0.908 0.0
C1499 C 0.89874 0.26742 0.88123 0.0
C1500 C 0.89225 0.28117 0.92282 0.0
C1501 C 0.90333 0.29099 0.99058 0.0
C1502 C 0.92074 0.28641 0.01764 0.0
H1503 H 0.75278 0.7043 0.76556 0.0
H1504 H 0.80343 0.7466 0.93185 0.0
H1505 H 0.79255 0.71099 0.00537 0.0
H1506 H 0.70919 0.66893 0.88562 0.0
H1507 H 0.69789 0.64204 0.83404 0.0
H1508 H 0.71271 0.66985 0.7872 0.0
H1509 H 0.74209 0.65895 0.73008 0.0
H1510 H 0.72715 0.6309 0.77615 0.0
H1511 H 0.75824 0.65004 0.78915 0.0
H1512 H 0.77247 0.67183 0.06871 0.0
H1513 H 0.74517 0.63187 0.11539 0.0
H1514 H 0.70699 0.61522 0.90913 0.0
C1515 C 0.76219 0.70581 0.81593 0.0
C1516 C 0.7792 0.72799 0.84267 0.0
C1517 C 0.79054 0.7296 0.91029 0.0
C1518 C 0.78449 0.7095 0.95235 0.0
C1519 C 0.76698 0.6879 0.92614 0.0
C1520 C 0.75612 0.68586 0.85916 0.0
C1521 C 0.73614 0.66101 0.84752 0.0
C1522 C 0.7126 0.66044 0.83808 0.0
C1523 C 0.74122 0.64955 0.78183 0.0
C1524 C 0.73694 0.64973 0.91933 0.0
C1525 C 0.75506 0.66539 0.9635 0.0
C1526 C 0.75842 0.65928 0.03412 0.0
C1527 C 0.74277 0.63657 0.06033 0.0
C1528 C 0.72386 0.62033 0.01625 0.0
C1529 C 0.72123 0.6271 0.94451 0.0
H1530 H 0.92135 0.63665 0.56427 0.0
H1531 H 0.88195 0.59377 0.37881 0.0
H1532 H 0.89427 0.6295 0.30438 0.0
H1533 H 0.9126 0.68774 0.52555 0.0
H1534 H 0.94219 0.70869 0.55262 0.0
H1535 H 0.92712 0.68008 0.59513 0.0
H1536 H 0.96128 0.67324 0.55816 0.0
H1537 H 0.97634 0.70169 0.51514 0.0
H1538 H 0.96987 0.67586 0.46297 0.0
H1539 H 0.91398 0.66926 0.24625 0.0
H1540 H 0.94038 0.71029 0.20775 0.0
H1541 H 0.96824 0.72739 0.42953 0.0
C1542 C 0.91475 0.63493 0.50879 0.0
C1543 C 0.9005 0.61259 0.47733 0.0
C1544 C 0.8928 0.61083 0.40379 0.0
C1545 C 0.89963 0.63099 0.36123 0.0
C1546 C 0.91429 0.6528 0.39291 0.0
C1547 C 0.92175 0.65494 0.46504 0.0
C1548 C 0.9394 0.68026 0.48316 0.0
C1549 C 0.92974 0.68975 0.54264 0.0
C1550 C 0.96312 0.6829 0.50618 0.0
C1551 C 0.94116 0.69182 0.40951 0.0
C1552 C 0.92624 0.67575 0.35857 0.0
C1553 C 0.92555 0.68209 0.28587 0.0
C1554 C 0.94066 0.70545 0.26447 0.0
C1555 C 0.95646 0.72215 0.31541 0.0
C1556 C 0.95639 0.71515 0.38908 0.0
H1557 H 0.30623 0.25848 0.25851 0.0
H1558 H 0.26308 0.21156 0.43232 0.0
H1559 H 0.29843 0.22313 0.50736 0.0
H1560 H 0.3593 0.25206 0.28953 0.0
H1561 H 0.37914 0.28276 0.27143 0.0
H1562 H 0.35106 0.26774 0.22603 0.0
H1563 H 0.34134 0.29886 0.27533 0.0
H1564 H 0.36923 0.31382 0.32137 0.0
H1565 H 0.3425 0.30413 0.37284 0.0
H1566 H 0.33742 0.24301 0.56933 0.0
H1567 H 0.37753 0.26996 0.61401 0.0
H1568 H 0.39545 0.30501 0.40172 0.0
C1569 C 0.30444 0.25009 0.31123 0.0
C1570 C 0.28209 0.23392 0.33945 0.0
C1571 C 0.28016 0.22386 0.40976 0.0
C1572 C 0.30012 0.23027 0.45265 0.0
C1573 C 0.32189 0.24687 0.42458 0.0
C1574 C 0.32424 0.25659 0.35538 0.0
C1575 C 0.34933 0.27586 0.3417 0.0
C1576 C 0.36036 0.2692 0.27842 0.0
C1577 C 0.35066 0.29956 0.32698 0.0
C1578 C 0.36044 0.27591 0.41471 0.0
C1579 C 0.34441 0.25881 0.46129 0.0
C1580 C 0.35025 0.25628 0.53302 0.0
C1581 C 0.37308 0.27173 0.55801 0.0
C1582 C 0.38974 0.28967 0.51161 0.0
C1583 C 0.38325 0.29148 0.43872 0.0
H1584 H 0.73755 0.02763 0.33969 0.0
H1585 H 0.80951 0.0846 0.32458 0.0
H1586 H 0.79865 0.11061 0.39228 0.0
H1587 H 0.71104 0.06399 0.3104 0.0
H1588 H 0.6869 0.04665 0.37173 0.0
H1589 H 0.70083 0.03314 0.32271 0.0
H1590 H 0.70855 0.01854 0.44631 0.0
H1591 H 0.69502 0.03237 0.49581 0.0
H1592 H 0.72457 0.03948 0.5177 0.0
H1593 H 0.77969 0.12926 0.47034 0.0
H1594 H 0.75333 0.14073 0.53304 0.0
H1595 H 0.69378 0.07204 0.48682 0.0
C1596 C 0.75095 0.04567 0.35006 0.0
C1597 C 0.77432 0.05423 0.32727 0.0
C1598 C 0.79144 0.07789 0.34123 0.0
C1599 C 0.78547 0.09266 0.38011 0.0
C1600 C 0.76224 0.0835 0.40321 0.0
C1601 C 0.74519 0.06069 0.38707 0.0
C1602 C 0.72134 0.0552 0.41511 0.0
C1603 C 0.70401 0.04941 0.35118 0.0
C1604 C 0.71182 0.03522 0.47212 0.0
C1605 C 0.72759 0.07839 0.4504 0.0
C1606 C 0.7513 0.09444 0.44423 0.0
C1607 C 0.76108 0.11687 0.47484 0.0
C1608 C 0.74609 0.12318 0.51083 0.0
C1609 C 0.72166 0.10722 0.51447 0.0
C1610 C 0.71244 0.08455 0.48451 0.0
H1611 H 0.642 0.93378 0.92693 0.0
H1612 H 0.60339 0.87257 0.06545 0.0
H1613 H 0.63937 0.88355 0.13695 0.0
H1614 H 0.7001 0.93539 0.93268 0.0
H1615 H 0.71618 0.96702 0.93651 0.0
H1616 H 0.68859 0.95203 0.88831 0.0
H1617 H 0.67292 0.97395 0.96765 0.0
H1618 H 0.70025 0.98871 0.01676 0.0
H1619 H 0.67311 0.97175 0.06637 0.0
H1620 H 0.67795 0.90373 0.20258 0.0
H1621 H 0.71672 0.93113 0.25584 0.0
H1622 H 0.73003 0.97985 0.07621 0.0
C1623 C 0.64151 0.92226 0.97032 0.0
C1624 C 0.62028 0.90205 0.98989 0.0
C1625 C 0.61976 0.88785 0.04908 0.0
C1626 C 0.64006 0.89398 0.08994 0.0
C1627 C 0.66067 0.91444 0.07101 0.0
C1628 C 0.66163 0.92829 0.0122 0.0
C1629 C 0.6853 0.95059 0.00818 0.0
C1630 C 0.69831 0.95129 0.9372 0.0
C1631 C 0.68272 0.97253 0.01519 0.0
C1632 C 0.69715 0.94746 0.07508 0.0
C1633 C 0.68279 0.92637 0.11004 0.0
C1634 C 0.68951 0.92016 0.17511 0.0
C1635 C 0.71153 0.9359 0.20515 0.0
C1636 C 0.7265 0.9577 0.17044 0.0
C1637 C 0.71912 0.96333 0.10423 0.0
H1638 H 0.05115 0.74929 0.24286 0.0
H1639 H 0.06442 0.80337 0.0828 0.0
H1640 H 0.08908 0.79216 0.01063 0.0
H1641 H 0.10981 0.75217 0.22585 0.0
H1642 H 0.09644 0.72073 0.2343 0.0
H1643 H 0.08364 0.73589 0.28053 0.0
H1644 H 0.04396 0.70879 0.21625 0.0
H1645 H 0.05666 0.69378 0.1692 0.0
H1646 H 0.0429 0.70699 0.11736 0.0
H1647 H 0.10763 0.77191 0.94775 0.0
H1648 H 0.1196 0.74444 0.89936 0.0
H1649 H 0.09352 0.70261 0.09848 0.0
C1650 C 0.06009 0.75931 0.19424 0.0
C1651 C 0.05638 0.77745 0.16876 0.0
C1652 C 0.06742 0.78962 0.10333 0.0
C1653 C 0.08144 0.78339 0.06212 0.0
C1654 C 0.08414 0.76485 0.08701 0.0
C1655 C 0.07395 0.75307 0.15183 0.0
C1656 C 0.07752 0.73218 0.16184 0.0
C1657 C 0.09276 0.73545 0.22966 0.0
C1658 C 0.05385 0.70908 0.1664 0.0
C1659 C 0.09052 0.73361 0.09147 0.0
C1660 C 0.09447 0.75278 0.04963 0.0
C1661 C 0.10497 0.75703 0.98051 0.0
C1662 C 0.11161 0.74124 0.95331 0.0
C1663 C 0.10754 0.72131 0.99491 0.0
C1664 C 0.09703 0.7177 0.06525 0.0
H1665 H 0.24854 0.28276 0.06612 0.0
H1666 H 0.22893 0.2989 0.27686 0.0
H1667 H 0.24165 0.33912 0.23284 0.0
H1668 H 0.30001 0.33608 0.04227 0.0
H1669 H 0.29693 0.3376 0.94434 0.0
H1670 H 0.28385 0.30951 0.98953 0.0
H1671 H 0.24327 0.29899 0.93586 0.0
H1672 H 0.25623 0.32716 0.89064 0.0
H1673 H 0.23166 0.31829 0.95192 0.0
H1674 H 0.26043 0.37848 0.17118 0.0
H1675 H 0.28454 0.41428 0.09761 0.0
H1676 H 0.29098 0.37234 0.92571 0.0
C1677 C 0.24658 0.29457 0.10301 0.0
C1678 C 0.23771 0.28758 0.17522 0.0
C1679 C 0.23562 0.30376 0.2214 0.0
C1680 C 0.24271 0.32662 0.19672 0.0
C1681 C 0.2516 0.33293 0.12553 0.0
C1682 C 0.25347 0.31733 0.07926 0.0
C1683 C 0.26511 0.32888 0.00717 0.0
C1684 C 0.28782 0.32797 0.99518 0.0
C1685 C 0.24804 0.31766 0.94258 0.0
C1686 C 0.27029 0.35372 0.02092 0.0
C1687 C 0.26208 0.35559 0.08926 0.0
C1688 C 0.26651 0.37713 0.11711 0.0
C1689 C 0.28019 0.39733 0.07502 0.0
C1690 C 0.28915 0.39585 0.00573 0.0
C1691 C 0.28367 0.37374 0.97752 0.0
H1692 H 0.9751 0.38415 0.09073 0.0
H1693 H 0.93382 0.39609 0.25222 0.0
H1694 H 0.96951 0.42029 0.32558 0.0
H1695 H 0.00931 0.37543 0.21597 0.0
H1696 H 0.03629 0.38966 0.16413 0.0
H1697 H 0.00857 0.37691 0.11715 0.0
H1698 H 0.02086 0.41682 0.05434 0.0
H1699 H 0.0488 0.42967 0.10055 0.0
H1700 H 0.03049 0.44271 0.10995 0.0
H1701 H 0.00829 0.43889 0.38858 0.0
H1702 H 0.04789 0.4513 0.43634 0.0
H1703 H 0.06416 0.42659 0.23563 0.0
C1704 C 0.97388 0.39267 0.14006 0.0
C1705 C 0.95195 0.38876 0.16549 0.0
C1706 C 0.95063 0.39926 0.23175 0.0
C1707 C 0.97077 0.41301 0.27365 0.0
C1708 C 0.9921 0.41598 0.24862 0.0
C1709 C 0.99387 0.40626 0.18315 0.0
C1710 C 0.01844 0.41017 0.17281 0.0
C1711 C 0.01812 0.38664 0.16722 0.0
C1712 C 0.03035 0.42577 0.10541 0.0
C1713 C 0.02989 0.4229 0.24354 0.0
C1714 C 0.01449 0.42635 0.286 0.0
C1715 C 0.02065 0.4366 0.35539 0.0
C1716 C 0.04317 0.4435 0.38221 0.0
C1717 C 0.05924 0.43997 0.33994 0.0
C1718 C 0.05243 0.4297 0.26936 0.0
H1719 H 0.62479 0.59145 0.09742 0.0
H1720 H 0.62336 0.54666 0.27444 0.0
H1721 H 0.59955 0.55815 0.34973 0.0
H1722 H 0.63377 0.63782 0.20831 0.0
H1723 H 0.61586 0.64638 0.1568 0.0
H1724 H 0.6291 0.6316 0.11137 0.0
H1725 H 0.58825 0.59933 0.06582 0.0
H1726 H 0.57486 0.61414 0.11071 0.0
H1727 H 0.56489 0.58375 0.13131 0.0
H1728 H 0.57998 0.57776 0.41109 0.0
H1729 H 0.56609 0.60431 0.45427 0.0
H1730 H 0.58108 0.63738 0.23899 0.0
C1731 C 0.6187 0.58351 0.15099 0.0
C1732 C 0.62554 0.56794 0.18002 0.0
C1733 C 0.61807 0.55848 0.25133 0.0
C1734 C 0.60452 0.56486 0.29436 0.0
C1735 C 0.59864 0.58084 0.26541 0.0
C1736 C 0.60537 0.58999 0.19526 0.0
C1737 C 0.5988 0.60866 0.18049 0.0
C1738 C 0.62069 0.63252 0.16326 0.0
C1739 C 0.58061 0.60101 0.1184 0.0
C1740 C 0.58808 0.60906 0.2539 0.0
C1741 C 0.58781 0.59263 0.3017 0.0
C1742 C 0.57981 0.59051 0.37385 0.0
C1743 C 0.572 0.60572 0.39798 0.0
C1744 C 0.57248 0.623 0.3503 0.0
C1745 C 0.5804 0.62437 0.27704 0.0
H1746 H 0.38796 0.9736 0.40249 0.0
H1747 H 0.39547 0.93152 0.23334 0.0
H1748 H 0.4201 0.96728 0.16021 0.0
H1749 H 0.3793 0.00912 0.28421 0.0
H1750 H 0.39498 0.0359 0.33622 0.0
H1751 H 0.38212 0.008 0.38246 0.0
H1752 H 0.42255 0.01884 0.43808 0.0
H1753 H 0.43555 0.04697 0.39254 0.0
H1754 H 0.44747 0.02787 0.37818 0.0
H1755 H 0.43945 0.00657 0.0985 0.0
H1756 H 0.45193 0.04655 0.05271 0.0
H1757 H 0.43059 0.06287 0.26004 0.0
C1758 C 0.39563 0.97216 0.35146 0.0
C1759 C 0.3903 0.95002 0.32386 0.0
C1760 C 0.39971 0.94849 0.25549 0.0
C1761 C 0.41371 0.96867 0.21372 0.0
C1762 C 0.41802 0.99025 0.24095 0.0
C1763 C 0.40938 0.99218 0.30844 0.0
C1764 C 0.41426 0.01699 0.32095 0.0
C1765 C 0.3913 0.01751 0.33154 0.0
C1766 C 0.43096 0.02834 0.38632 0.0
C1767 C 0.42616 0.02839 0.24906 0.0
C1768 C 0.42857 0.01283 0.2042 0.0
C1769 C 0.43796 0.01905 0.13354 0.0
C1770 C 0.44494 0.04178 0.1079 0.0
C1771 C 0.44219 0.05787 0.1525 0.0
C1772 C 0.43294 0.05103 0.22432 0.0
H1773 H 0.59906 0.97511 0.90806 0.0
H1774 H 0.5431 0.9356 0.75269 0.0
H1775 H 0.55395 0.97202 0.68367 0.0
H1776 H 0.59688 0.03122 0.90056 0.0
H1777 H 0.62841 0.04904 0.90507 0.0
H1778 H 0.61365 0.02076 0.94974 0.0
H1779 H 0.63957 0.0083 0.8773 0.0
H1780 H 0.65421 0.03639 0.83193 0.0
H1781 H 0.64015 0.00981 0.77834 0.0
H1782 H 0.57362 0.01121 0.62324 0.0
H1783 H 0.60071 0.05085 0.57536 0.0
H1784 H 0.64489 0.06521 0.76777 0.0
C1785 C 0.58863 0.97443 0.86114 0.0
C1786 C 0.56998 0.95282 0.83619 0.0
C1787 C 0.55722 0.95218 0.77289 0.0
C1788 C 0.56324 0.97274 0.73349 0.0
C1789 C 0.58219 0.99375 0.75792 0.0
C1790 C 0.59466 0.99483 0.82045 0.0
C1791 C 0.61579 0.01917 0.83003 0.0
C1792 C 0.61354 0.03073 0.90054 0.0
C1793 C 0.63878 0.01835 0.82932 0.0
C1794 C 0.61361 0.03131 0.76209 0.0
C1795 C 0.59393 0.01642 0.72185 0.0
C1796 C 0.58892 0.02317 0.65478 0.0
C1797 C 0.6045 0.04572 0.62785 0.0
C1798 C 0.62496 0.06126 0.66769 0.0
C1799 C 0.62932 0.05391 0.73616 0.0
H1800 H 0.04696 0.6493 0.8373 0.0
H1801 H 0.06596 0.59509 0.83005 0.0
H1802 H 0.02942 0.56926 0.76068 0.0
H1803 H 0.98404 0.60936 0.86396 0.0
H1804 H 0.97616 0.62728 0.80948 0.0
H1805 H 0.00347 0.6407 0.8592 0.0
H1806 H 0.02583 0.65943 0.73799 0.0
H1807 H 0.99865 0.6457 0.68768 0.0
H1808 H 0.02223 0.64082 0.66065 0.0
H1809 H 0.99184 0.55086 0.68279 0.0
H1810 H 0.9539 0.53921 0.62079 0.0
H1811 H 0.95914 0.60487 0.68798 0.0
C1812 C 0.04314 0.63181 0.82215 0.0
C1813 C 0.05894 0.62394 0.83917 0.0
C1814 C 0.05371 0.60113 0.81821 0.0
C1815 C 0.03317 0.5865 0.77834 0.0
C1816 C 0.01804 0.59495 0.76108 0.0
C1817 C 0.02258 0.6169 0.78388 0.0
C1818 C 0.00343 0.62178 0.76011 0.0
C1819 C 0.99104 0.62496 0.82718 0.0
C1820 C 0.01312 0.6432 0.70854 0.0
C1821 C 0.98747 0.59931 0.71952 0.0
C1822 C 0.99626 0.58411 0.71956 0.0
C1823 C 0.98471 0.56254 0.68314 0.0
C1824 C 0.96333 0.55615 0.64757 0.0
C1825 C 0.95369 0.57114 0.64996 0.0
C1826 C 0.9661 0.59303 0.68575 0.0
H1827 H 0.42915 0.37306 0.76422 0.0
H1828 H 0.44746 0.40899 0.55339 0.0
H1829 H 0.43446 0.43605 0.5988 0.0
H1830 H 0.37737 0.37404 0.79091 0.0
H1831 H 0.38078 0.37868 0.88876 0.0
H1832 H 0.39405 0.36403 0.84278 0.0
H1833 H 0.43469 0.39457 0.89487 0.0
H1834 H 0.42153 0.40939 0.94105 0.0
H1835 H 0.44578 0.42542 0.87885 0.0
H1836 H 0.41561 0.45617 0.66175 0.0
H1837 H 0.39175 0.46764 0.73693 0.0
H1838 H 0.38627 0.41929 0.90802 0.0
C1839 C 0.43078 0.38681 0.72765 0.0
C1840 C 0.43937 0.38885 0.65498 0.0
C1841 C 0.44103 0.40706 0.6092 0.0
C1842 C 0.43376 0.42257 0.63465 0.0
C1843 C 0.4251 0.4198 0.7062 0.0
C1844 C 0.42368 0.40243 0.75216 0.0
C1845 C 0.41222 0.40213 0.82483 0.0
C1846 C 0.38978 0.37831 0.8375 0.0
C1847 C 0.4296 0.40825 0.88868 0.0
C1848 C 0.40661 0.42155 0.81169 0.0
C1849 C 0.41448 0.43168 0.74317 0.0
C1850 C 0.40976 0.44867 0.71591 0.0
C1851 C 0.39619 0.45505 0.75887 0.0
C1852 C 0.38754 0.44456 0.82839 0.0
C1853 C 0.39327 0.42801 0.85594 0.0
loop_
_geom_bond_atom_site_label_1
_geom_bond_atom_site_label_2
_geom_bond_distance
_geom_bond_site_symmetry_2
_ccdc_geom_bond_type
Sc0 O3 2.025 . S
Sc0 O10 2.105 . S
Sc0 O13 2.105 1_455 S
Sc0 O16 2.105 1_455 S
Sc0 O19 2.105 . S
Sc1 O3 2.025 . S
Sc1 O11 2.105 . S
Sc1 O15 2.105 1_455 S
Sc1 O17 2.105 1_455 S
Sc1 O21 2.105 . S
Sc2 O3 2.025 . S
Sc2 O12 2.105 . S
Sc2 O14 2.105 1_455 S
Sc2 O18 2.105 1_455 S
Sc2 O20 2.105 . S
O3 Sc0 2.025 . S
O3 Sc1 2.025 . S
O3 Sc2 2.025 . S
C4 O10 1.268 . S
C4 O20 1.268 . S
C5 O11 1.268 . S
C5 O19 1.268 . S
C6 O12 1.268 . S
C6 O21 1.268 . S
C7 O13 1.268 . S
C7 O17 1.268 . S
C8 O14 1.268 . S
C8 O16 1.268 . S
C9 O15 1.268 . S
C9 O18 1.268 . S
O10 Sc0 2.105 . S
O10 C4 1.268 . S
O11 Sc1 2.105 . S
O11 C5 1.268 . S
O12 Sc2 2.105 . S
O12 C6 1.268 . S
O13 Sc0 2.105 1_655 S
O13 C7 1.268 . S
O14 Sc2 2.105 1_655 S
O14 C8 1.268 . S
O15 Sc1 2.105 1_655 S
O15 C9 1.268 . S
O16 Sc0 2.105 1_655 S
O16 C8 1.268 . S
O17 Sc1 2.105 1_655 S
O17 C7 1.268 . S
O18 Sc2 2.105 1_655 S
O18 C9 1.268 . S
O19 Sc0 2.105 . S
O19 C5 1.268 . S
O20 Sc2 2.105 . S
O20 C4 1.268 . S
O21 Sc1 2.105 . S
O21 C6 1.268 . S
Sc22 O25 2.025 . S
Sc22 O32 2.105 . S
Sc22 O35 2.105 . S
Sc22 O38 2.105 . S
Sc22 O41 2.105 . S
Sc23 O25 2.025 . S
Sc23 O33 2.105 . S
Sc23 O37 2.105 . S
Sc23 O39 2.105 . S
Sc23 O43 2.105 . S
Sc24 O25 2.025 . S
Sc24 O34 2.105 . S
Sc24 O36 2.105 . S
Sc24 O40 2.105 . S
Sc24 O42 2.105 . S
O25 Sc22 2.025 . S
O25 Sc23 2.025 . S
O25 Sc24 2.025 . S
C26 O32 1.268 . S
C26 O42 1.268 . S
C27 O33 1.268 . S
C27 O41 1.268 . S
C28 O34 1.268 . S
C28 O43 1.268 . S
C29 O35 1.268 . S
C29 O39 1.268 . S
C30 O36 1.268 . S
C30 O38 1.268 . S
C31 O37 1.268 . S
C31 O40 1.268 . S
O32 Sc22 2.105 . S
O32 C26 1.268 . S
O33 Sc23 2.105 . S
O33 C27 1.268 . S
O34 Sc24 2.105 . S
O34 C28 1.268 . S
O35 Sc22 2.105 . S
O35 C29 1.268 . S
O36 Sc24 2.105 . S
O36 C30 1.268 . S
O37 Sc23 2.105 . S
O37 C31 1.268 . S
O38 Sc22 2.105 . S
O38 C30 1.268 . S
O39 Sc23 2.105 . S
O39 C29 1.268 . S
O40 Sc24 2.105 . S
O40 C31 1.268 . S
O41 Sc22 2.105 . S
O41 C27 1.268 . S
O42 Sc24 2.105 . S
O42 C26 1.268 . S
O43 Sc23 2.105 . S
O43 C28 1.268 . S
Sc44 O47 2.025 . S
Sc44 O54 2.105 1_545 S
Sc44 O57 2.105 . S
Sc44 O60 2.105 . S
Sc44 O63 2.105 1_545 S
Sc45 O47 2.025 . S
Sc45 O55 2.105 1_545 S
Sc45 O59 2.105 . S
Sc45 O61 2.105 . S
Sc45 O65 2.105 1_545 S
Sc46 O47 2.025 . S
Sc46 O56 2.105 1_545 S
Sc46 O58 2.105 . S
Sc46 O62 2.105 . S
Sc46 O64 2.105 1_545 S
O47 Sc44 2.025 . S
O47 Sc45 2.025 . S
O47 Sc46 2.025 . S
C48 O54 1.268 . S
C48 O64 1.268 . S
C49 O55 1.268 . S
C49 O63 1.268 . S
C50 O56 1.268 . S
C50 O65 1.268 . S
C51 O57 1.268 . S
C51 O61 1.268 . S
C52 O58 1.268 . S
C52 O60 1.268 . S
C53 O59 1.268 . S
C53 O62 1.268 . S
O54 Sc44 2.105 1_565 S
O54 C48 1.268 . S
O55 Sc45 2.105 1_565 S
O55 C49 1.268 . S
O56 Sc46 2.105 1_565 S
O56 C50 1.268 . S
O57 Sc44 2.105 . S
O57 C51 1.268 . S
O58 Sc46 2.105 . S
O58 C52 1.268 . S
O59 Sc45 2.105 . S
O59 C53 1.268 . S
O60 Sc44 2.105 . S
O60 C52 1.268 . S
O61 Sc45 2.105 . S
O61 C51 1.268 . S
O62 Sc46 2.105 . S
O62 C53 1.268 . S
O63 Sc44 2.105 1_565 S
O63 C49 1.268 . S
O64 Sc46 2.105 1_565 S
O64 C48 1.268 . S
O65 Sc45 2.105 1_565 S
O65 C50 1.268 . S
Sc66 O69 2.025 . S
Sc66 O76 2.105 . S
Sc66 O79 2.105 1_455 S
Sc66 O82 2.105 1_455 S
Sc66 O85 2.105 . S
Sc67 O69 2.025 . S
Sc67 O77 2.105 . S
Sc67 O81 2.105 1_455 S
Sc67 O83 2.105 1_455 S
Sc67 O87 2.105 . S
Sc68 O69 2.025 . S
Sc68 O78 2.105 . S
Sc68 O80 2.105 1_455 S
Sc68 O84 2.105 1_455 S
Sc68 O86 2.105 . S
O69 Sc66 2.025 . S
O69 Sc67 2.025 . S
O69 Sc68 2.025 . S
C70 O76 1.268 . S
C70 O86 1.268 . S
C71 O77 1.268 . S
C71 O85 1.268 . S
C72 O78 1.268 . S
C72 O87 1.268 . S
C73 O79 1.268 . S
C73 O83 1.268 . S
C74 O80 1.268 . S
C74 O82 1.268 . S
C75 O81 1.268 . S
C75 O84 1.268 . S
O76 Sc66 2.105 . S
O76 C70 1.268 . S
O77 Sc67 2.105 . S
O77 C71 1.268 . S
O78 Sc68 2.105 . S
O78 C72 1.268 . S
O79 Sc66 2.105 1_655 S
O79 C73 1.268 . S
O80 Sc68 2.105 1_655 S
O80 C74 1.268 . S
O81 Sc67 2.105 1_655 S
O81 C75 1.268 . S
O82 Sc66 2.105 1_655 S
O82 C74 1.268 . S
O83 Sc67 2.105 1_655 S
O83 C73 1.268 . S
O84 Sc68 2.105 1_655 S
O84 C75 1.268 . S
O85 Sc66 2.105 . S
O85 C71 1.268 . S
O86 Sc68 2.105 . S
O86 C70 1.268 . S
O87 Sc67 2.105 . S
O87 C72 1.268 . S
Sc88 O91 2.025 . S
Sc88 O98 2.105 . S
Sc88 O101 2.105 . S
Sc88 O104 2.105 . S
Sc88 O107 2.105 . S
Sc89 O91 2.025 . S
Sc89 O99 2.105 . S
Sc89 O103 2.105 . S
Sc89 O105 2.105 . S
Sc89 O109 2.105 . S
Sc90 O91 2.025 . S
Sc90 O100 2.105 . S
Sc90 O102 2.105 . S
Sc90 O106 2.105 . S
Sc90 O108 2.105 . S
O91 Sc88 2.025 . S
O91 Sc89 2.025 . S
O91 Sc90 2.025 . S
C92 O98 1.268 . S
C92 O108 1.268 . S
C93 O99 1.268 . S
C93 O107 1.268 . S
C94 O100 1.268 . S
C94 O109 1.268 . S
C95 O101 1.268 . S
C95 O105 1.268 . S
C96 O102 1.268 . S
C96 O104 1.268 . S
C97 O103 1.268 . S
C97 O106 1.268 . S
O98 Sc88 2.105 . S
O98 C92 1.268 . S
O99 Sc89 2.105 . S
O99 C93 1.268 . S
O100 Sc90 2.105 . S
O100 C94 1.268 . S
O101 Sc88 2.105 . S
O101 C95 1.268 . S
O102 Sc90 2.105 . S
O102 C96 1.268 . S
O103 Sc89 2.105 . S
O103 C97 1.268 . S
O104 Sc88 2.105 . S
O104 C96 1.268 . S
O105 Sc89 2.105 . S
O105 C95 1.268 . S
O106 Sc90 2.105 . S
O106 C97 1.268 . S
O107 Sc88 2.105 . S
O107 C93 1.268 . S
O108 Sc90 2.105 . S
O108 C92 1.268 . S
O109 Sc89 2.105 . S
O109 C94 1.268 . S
Sc110 O113 2.025 . S
Sc110 O120 2.105 1_545 S
Sc110 O123 2.105 . S
Sc110 O126 2.105 . S
Sc110 O129 2.105 1_545 S
Sc111 O113 2.025 . S
Sc111 O121 2.105 1_545 S
Sc111 O125 2.105 . S
Sc111 O127 2.105 . S
Sc111 O131 2.105 1_545 S
Sc112 O113 2.025 . S
Sc112 O122 2.105 1_545 S
Sc112 O124 2.105 . S
Sc112 O128 2.105 . S
Sc112 O130 2.105 1_545 S
O113 Sc110 2.025 . S
O113 Sc111 2.025 . S
O113 Sc112 2.025 . S
C114 O120 1.268 . S
C114 O130 1.268 . S
C115 O121 1.268 . S
C115 O129 1.268 . S
C116 O122 1.268 . S
C116 O131 1.268 . S
C117 O123 1.268 . S
C117 O127 1.268 . S
C118 O124 1.268 . S
C118 O126 1.268 . S
C119 O125 1.268 . S
C119 O128 1.268 . S
O120 Sc110 2.105 1_565 S
O120 C114 1.268 . S
O121 Sc111 2.105 1_565 S
O121 C115 1.268 . S
O122 Sc112 2.105 1_565 S
O122 C116 1.268 . S
O123 Sc110 2.105 . S
O123 C117 1.268 . S
O124 Sc112 2.105 . S
O124 C118 1.268 . S
O125 Sc111 2.105 . S
O125 C119 1.268 . S
O126 Sc110 2.105 . S
O126 C118 1.268 . S
O127 Sc111 2.105 . S
O127 C117 1.268 . S
O128 Sc112 2.105 . S
O128 C119 1.268 . S
O129 Sc110 2.105 1_565 S
O129 C115 1.268 . S
O130 Sc112 2.105 1_565 S
O130 C114 1.268 . S
O131 Sc111 2.105 1_565 S
O131 C116 1.268 . S
Sc132 O135 2.025 . S
Sc132 O142 2.105 1_554 S
Sc132 O145 2.105 . S
Sc132 O148 2.105 . S
Sc132 O151 2.105 . S
Sc133 O135 2.025 . S
Sc133 O143 2.105 . S
Sc133 O147 2.105 . S
Sc133 O149 2.105 . S
Sc133 O153 2.105 . S
Sc134 O135 2.025 1_556 S
Sc134 O144 2.105 1_556 S
Sc134 O146 2.105 . S
Sc134 O150 2.105 1_556 S
Sc134 O152 2.105 . S
O135 Sc132 2.025 . S
O135 Sc133 2.025 . S
O135 Sc134 2.025 1_554 S
C136 O142 1.268 . S
C136 O152 1.268 . S
C137 O143 1.268 . S
C137 O151 1.268 . S
C138 O144 1.268 . S
C138 O153 1.268 . S
C139 O145 1.268 . S
C139 O149 1.268 . S
C140 O146 1.268 . S
C140 O148 1.268 1_556 S
C141 O147 1.268 . S
C141 O150 1.268 . S
O142 Sc132 2.105 1_556 S
O142 C136 1.268 . S
O143 Sc133 2.105 . S
O143 C137 1.268 . S
O144 Sc134 2.105 1_554 S
O144 C138 1.268 . S
O145 Sc132 2.105 . S
O145 C139 1.268 . S
O146 Sc134 2.105 . S
O146 C140 1.268 . S
O147 Sc133 2.105 . S
O147 C141 1.268 . S
O148 Sc132 2.105 . S
O148 C140 1.268 1_554 S
O149 Sc133 2.105 . S
O149 C139 1.268 . S
O150 Sc134 2.105 1_554 S
O150 C141 1.268 . S
O151 Sc132 2.105 . S
O151 C137 1.268 . S
O152 Sc134 2.105 . S
O152 C136 1.268 . S
O153 Sc133 2.105 . S
O153 C138 1.268 . S
Sc154 O157 2.025 . S
Sc154 O164 2.105 1_554 S
Sc154 O167 2.105 . S
Sc154 O170 2.105 . S
Sc154 O173 2.105 . S
Sc155 O157 2.025 . S
Sc155 O165 2.105 . S
Sc155 O169 2.105 . S
Sc155 O171 2.105 . S
Sc155 O175 2.105 . S
Sc156 O157 2.025 1_556 S
Sc156 O166 2.105 1_556 S
Sc156 O168 2.105 . S
Sc156 O172 2.105 1_556 S
Sc156 O174 2.105 . S
O157 Sc154 2.025 . S
O157 Sc155 2.025 . S
O157 Sc156 2.025 1_554 S
C158 O164 1.268 . S
C158 O174 1.268 . S
C159 O165 1.268 . S
C159 O173 1.268 . S
C160 O166 1.268 . S
C160 O175 1.268 . S
C161 O167 1.268 . S
C161 O171 1.268 . S
C162 O168 1.268 . S
C162 O170 1.268 1_556 S
C163 O169 1.268 . S
C163 O172 1.268 . S
O164 Sc154 2.105 1_556 S
O164 C158 1.268 . S
O165 Sc155 2.105 . S
O165 C159 1.268 . S
O166 Sc156 2.105 1_554 S
O166 C160 1.268 . S
O167 Sc154 2.105 . S
O167 C161 1.268 . S
O168 Sc156 2.105 . S
O168 C162 1.268 . S
O169 Sc155 2.105 . S
O169 C163 1.268 . S
O170 Sc154 2.105 . S
O170 C162 1.268 1_554 S
O171 Sc155 2.105 . S
O171 C161 1.268 . S
O172 Sc156 2.105 1_554 S
O172 C163 1.268 . S
O173 Sc154 2.105 . S
O173 C159 1.268 . S
O174 Sc156 2.105 . S
O174 C158 1.268 . S
O175 Sc155 2.105 . S
O175 C160 1.268 . S
Sc176 O179 2.025 . S
Sc176 O186 2.105 1_554 S
Sc176 O189 2.105 . S
Sc176 O192 2.105 . S
Sc176 O195 2.105 . S
Sc177 O179 2.025 . S
Sc177 O187 2.105 . S
Sc177 O191 2.105 . S
Sc177 O193 2.105 . S
Sc177 O197 2.105 . S
Sc178 O179 2.025 1_556 S
Sc178 O188 2.105 1_556 S
Sc178 O190 2.105 . S
Sc178 O194 2.105 1_556 S
Sc178 O196 2.105 . S
O179 Sc176 2.025 . S
O179 Sc177 2.025 . S
O179 Sc178 2.025 1_554 S
C180 O186 1.268 . S
C180 O196 1.268 . S
C181 O187 1.268 . S
C181 O195 1.268 . S
C182 O188 1.268 . S
C182 O197 1.268 . S
C183 O189 1.268 . S
C183 O193 1.268 . S
C184 O190 1.268 . S
C184 O192 1.268 1_556 S
C185 O191 1.268 . S
C185 O194 1.268 . S
O186 Sc176 2.105 1_556 S
O186 C180 1.268 . S
O187 Sc177 2.105 . S
O187 C181 1.268 . S
O188 Sc178 2.105 1_554 S
O188 C182 1.268 . S
O189 Sc176 2.105 . S
O189 C183 1.268 . S
O190 Sc178 2.105 . S
O190 C184 1.268 . S
O191 Sc177 2.105 . S
O191 C185 1.268 . S
O192 Sc176 2.105 . S
O192 C184 1.268 1_554 S
O193 Sc177 2.105 . S
O193 C183 1.268 . S
O194 Sc178 2.105 1_554 S
O194 C185 1.268 . S
O195 Sc176 2.105 . S
O195 C181 1.268 . S
O196 Sc178 2.105 . S
O196 C180 1.268 . S
O197 Sc177 2.105 . S
O197 C182 1.268 . S
Sc198 O201 2.025 . S
Sc198 O208 2.105 . S
Sc198 O211 2.105 . S
Sc198 O214 2.105 . S
Sc198 O217 2.105 . S
Sc199 O201 2.025 . S
Sc199 O209 2.105 . S
Sc199 O213 2.105 . S
Sc199 O215 2.105 . S
Sc199 O219 2.105 . S
Sc200 O201 2.025 . S
Sc200 O210 2.105 . S
Sc200 O212 2.105 . S
Sc200 O216 2.105 . S
Sc200 O218 2.105 . S
O201 Sc198 2.025 . S
O201 Sc199 2.025 . S
O201 Sc200 2.025 . S
C202 O208 1.268 . S
C202 O218 1.268 . S
C203 O209 1.268 . S
C203 O217 1.268 . S
C204 O210 1.268 . S
C204 O219 1.268 . S
C205 O211 1.268 . S
C205 O215 1.268 . S
C206 O212 1.268 . S
C206 O214 1.268 . S
C207 O213 1.268 . S
C207 O216 1.268 . S
O208 Sc198 2.105 . S
O208 C202 1.268 . S
O209 Sc199 2.105 . S
O209 C203 1.268 . S
O210 Sc200 2.105 . S
O210 C204 1.268 . S
O211 Sc198 2.105 . S
O211 C205 1.268 . S
O212 Sc200 2.105 . S
O212 C206 1.268 . S
O213 Sc199 2.105 . S
O213 C207 1.268 . S
O214 Sc198 2.105 . S
O214 C206 1.268 . S
O215 Sc199 2.105 . S
O215 C205 1.268 . S
O216 Sc200 2.105 . S
O216 C207 1.268 . S
O217 Sc198 2.105 . S
O217 C203 1.268 . S
O218 Sc200 2.105 . S
O218 C202 1.268 . S
O219 Sc199 2.105 . S
O219 C204 1.268 . S
Sc220 O223 2.025 . S
Sc220 O230 2.105 . S
Sc220 O233 2.105 . S
Sc220 O236 2.105 . S
Sc220 O239 2.105 . S
Sc221 O223 2.025 . S
Sc221 O231 2.105 . S
Sc221 O235 2.105 . S
Sc221 O237 2.105 . S
Sc221 O241 2.105 . S
Sc222 O223 2.025 . S
Sc222 O232 2.105 . S
Sc222 O234 2.105 . S
Sc222 O238 2.105 . S
Sc222 O240 2.105 . S
O223 Sc220 2.025 . S
O223 Sc221 2.025 . S
O223 Sc222 2.025 . S
C224 O230 1.268 . S
C224 O240 1.268 . S
C225 O231 1.268 . S
C225 O239 1.268 . S
C226 O232 1.268 . S
C226 O241 1.268 . S
C227 O233 1.268 . S
C227 O237 1.268 . S
C228 O234 1.268 . S
C228 O236 1.268 . S
C229 O235 1.268 . S
C229 O238 1.268 . S
O230 Sc220 2.105 . S
O230 C224 1.268 . S
O231 Sc221 2.105 . S
O231 C225 1.268 . S
O232 Sc222 2.105 . S
O232 C226 1.268 . S
O233 Sc220 2.105 . S
O233 C227 1.268 . S
O234 Sc222 2.105 . S
O234 C228 1.268 . S
O235 Sc221 2.105 . S
O235 C229 1.268 . S
O236 Sc220 2.105 . S
O236 C228 1.268 . S
O237 Sc221 2.105 . S
O237 C227 1.268 . S
O238 Sc222 2.105 . S
O238 C229 1.268 . S
O239 Sc220 2.105 . S
O239 C225 1.268 . S
O240 Sc222 2.105 . S
O240 C224 1.268 . S
O241 Sc221 2.105 . S
O241 C226 1.268 . S
Sc242 O245 2.025 . S
Sc242 O252 2.105 . S
Sc242 O255 2.105 . S
Sc242 O258 2.105 . S
Sc242 O261 2.105 . S
Sc243 O245 2.025 . S
Sc243 O253 2.105 . S
Sc243 O257 2.105 . S
Sc243 O259 2.105 . S
Sc243 O263 2.105 . S
Sc244 O245 2.025 . S
Sc244 O254 2.105 . S
Sc244 O256 2.105 . S
Sc244 O260 2.105 . S
Sc244 O262 2.105 . S
O245 Sc242 2.025 . S
O245 Sc243 2.025 . S
O245 Sc244 2.025 . S
C246 O252 1.268 . S
C246 O262 1.268 . S
C247 O253 1.268 . S
C247 O261 1.268 . S
C248 O254 1.268 . S
C248 O263 1.268 . S
C249 O255 1.268 . S
C249 O259 1.268 . S
C250 O256 1.268 . S
C250 O258 1.268 . S
C251 O257 1.268 . S
C251 O260 1.268 . S
O252 Sc242 2.105 . S
O252 C246 1.268 . S
O253 Sc243 2.105 . S
O253 C247 1.268 . S
O254 Sc244 2.105 . S
O254 C248 1.268 . S
O255 Sc242 2.105 . S
O255 C249 1.268 . S
O256 Sc244 2.105 . S
O256 C250 1.268 . S
O257 Sc243 2.105 . S
O257 C251 1.268 . S
O258 Sc242 2.105 . S
O258 C250 1.268 . S
O259 Sc243 2.105 . S
O259 C249 1.268 . S
O260 Sc244 2.105 . S
O260 C251 1.268 . S
O261 Sc242 2.105 . S
O261 C247 1.268 . S
O262 Sc244 2.105 . S
O262 C246 1.268 . S
O263 Sc243 2.105 . S
O263 C248 1.268 . S
Sc264 O267 2.025 . S
Sc264 O274 2.105 . S
Sc264 O277 2.105 . S
Sc264 O280 2.105 . S
Sc264 O283 2.105 . S
Sc265 O267 2.025 . S
Sc265 O275 2.105 . S
Sc265 O279 2.105 . S
Sc265 O281 2.105 . S
Sc265 O285 2.105 . S
Sc266 O267 2.025 . S
Sc266 O276 2.105 . S
Sc266 O278 2.105 . S
Sc266 O282 2.105 . S
Sc266 O284 2.105 . S
O267 Sc264 2.025 . S
O267 Sc265 2.025 . S
O267 Sc266 2.025 . S
C268 O274 1.268 . S
C268 O284 1.268 . S
C269 O275 1.268 . S
C269 O283 1.268 . S
C270 O276 1.268 . S
C270 O285 1.268 . S
C271 O277 1.268 . S
C271 O281 1.268 . S
C272 O278 1.268 . S
C272 O280 1.268 . S
C273 O279 1.268 . S
C273 O282 1.268 . S
O274 Sc264 2.105 . S
O274 C268 1.268 . S
O275 Sc265 2.105 . S
O275 C269 1.268 . S
O276 Sc266 2.105 . S
O276 C270 1.268 . S
O277 Sc264 2.105 . S
O277 C271 1.268 . S
O278 Sc266 2.105 . S
O278 C272 1.268 . S
O279 Sc265 2.105 . S
O279 C273 1.268 . S
O280 Sc264 2.105 . S
O280 C272 1.268 . S
O281 Sc265 2.105 . S
O281 C271 1.268 . S
O282 Sc266 2.105 . S
O282 C273 1.268 . S
O283 Sc264 2.105 . S
O283 C269 1.268 . S
O284 Sc266 2.105 . S
O284 C268 1.268 . S
O285 Sc265 2.105 . S
O285 C270 1.268 . S
Sc286 O289 2.025 . S
Sc286 O296 2.105 . S
Sc286 O299 2.105 . S
Sc286 O302 2.105 . S
Sc286 O305 2.105 . S
Sc287 O289 2.025 . S
Sc287 O297 2.105 . S
Sc287 O301 2.105 . S
Sc287 O303 2.105 . S
Sc287 O307 2.105 . S
Sc288 O289 2.025 . S
Sc288 O298 2.105 . S
Sc288 O300 2.105 . S
Sc288 O304 2.105 . S
Sc288 O306 2.105 . S
O289 Sc286 2.025 . S
O289 Sc287 2.025 . S
O289 Sc288 2.025 . S
C290 O296 1.268 . S
C290 O306 1.268 . S
C291 O297 1.268 . S
C291 O305 1.268 . S
C292 O298 1.268 . S
C292 O307 1.268 . S
C293 O299 1.268 . S
C293 O303 1.268 . S
C294 O300 1.268 . S
C294 O302 1.268 . S
C295 O301 1.268 . S
C295 O304 1.268 . S
O296 Sc286 2.105 . S
O296 C290 1.268 . S
O297 Sc287 2.105 . S
O297 C291 1.268 . S
O298 Sc288 2.105 . S
O298 C292 1.268 . S
O299 Sc286 2.105 . S
O299 C293 1.268 . S
O300 Sc288 2.105 . S
O300 C294 1.268 . S
O301 Sc287 2.105 . S
O301 C295 1.268 . S
O302 Sc286 2.105 . S
O302 C294 1.268 . S
O303 Sc287 2.105 . S
O303 C293 1.268 . S
O304 Sc288 2.105 . S
O304 C295 1.268 . S
O305 Sc286 2.105 . S
O305 C291 1.268 . S
O306 Sc288 2.105 . S
O306 C290 1.268 . S
O307 Sc287 2.105 . S
O307 C292 1.268 . S
Sc308 O311 2.025 . S
Sc308 O318 2.105 . S
Sc308 O321 2.105 . S
Sc308 O324 2.105 . S
Sc308 O327 2.105 . S
Sc309 O311 2.025 . S
Sc309 O319 2.105 . S
Sc309 O323 2.105 . S
Sc309 O325 2.105 . S
Sc309 O329 2.105 . S
Sc310 O311 2.025 . S
Sc310 O320 2.105 . S
Sc310 O322 2.105 . S
Sc310 O326 2.105 . S
Sc310 O328 2.105 . S
O311 Sc308 2.025 . S
O311 Sc309 2.025 . S
O311 Sc310 2.025 . S
C312 O318 1.268 . S
C312 O328 1.268 . S
C313 O319 1.268 . S
C313 O327 1.268 . S
C314 O320 1.268 . S
C314 O329 1.268 . S
C315 O321 1.268 . S
C315 O325 1.268 . S
C316 O322 1.268 . S
C316 O324 1.268 . S
C317 O323 1.268 . S
C317 O326 1.268 . S
O318 Sc308 2.105 . S
O318 C312 1.268 . S
O319 Sc309 2.105 . S
O319 C313 1.268 . S
O320 Sc310 2.105 . S
O320 C314 1.268 . S
O321 Sc308 2.105 . S
O321 C315 1.268 . S
O322 Sc310 2.105 . S
O322 C316 1.268 . S
O323 Sc309 2.105 . S
O323 C317 1.268 . S
O324 Sc308 2.105 . S
O324 C316 1.268 . S
O325 Sc309 2.105 . S
O325 C315 1.268 . S
O326 Sc310 2.105 . S
O326 C317 1.268 . S
O327 Sc308 2.105 . S
O327 C313 1.268 . S
O328 Sc310 2.105 . S
O328 C312 1.268 . S
O329 Sc309 2.105 . S
O329 C314 1.268 . S
Sc330 O333 2.025 . S
Sc330 O340 2.105 . S
Sc330 O343 2.105 . S
Sc330 O346 2.105 1_556 S
Sc330 O349 2.105 . S
Sc331 O333 2.025 . S
Sc331 O341 2.105 . S
Sc331 O345 2.105 . S
Sc331 O347 2.105 . S
Sc331 O351 2.105 . S
Sc332 O333 2.025 1_554 S
Sc332 O342 2.105 1_554 S
Sc332 O344 2.105 . S
Sc332 O348 2.105 1_554 S
Sc332 O350 2.105 . S
O333 Sc330 2.025 . S
O333 Sc331 2.025 . S
O333 Sc332 2.025 1_556 S
C334 O340 1.268 1_554 S
C334 O350 1.268 . S
C335 O341 1.268 . S
C335 O349 1.268 . S
C336 O342 1.268 . S
C336 O351 1.268 . S
C337 O343 1.268 . S
C337 O347 1.268 . S
C338 O344 1.268 . S
C338 O346 1.268 . S
C339 O345 1.268 . S
C339 O348 1.268 . S
O340 Sc330 2.105 . S
O340 C334 1.268 1_556 S
O341 Sc331 2.105 . S
O341 C335 1.268 . S
O342 Sc332 2.105 1_556 S
O342 C336 1.268 . S
O343 Sc330 2.105 . S
O343 C337 1.268 . S
O344 Sc332 2.105 . S
O344 C338 1.268 . S
O345 Sc331 2.105 . S
O345 C339 1.268 . S
O346 Sc330 2.105 1_554 S
O346 C338 1.268 . S
O347 Sc331 2.105 . S
O347 C337 1.268 . S
O348 Sc332 2.105 1_556 S
O348 C339 1.268 . S
O349 Sc330 2.105 . S
O349 C335 1.268 . S
O350 Sc332 2.105 . S
O350 C334 1.268 . S
O351 Sc331 2.105 . S
O351 C336 1.268 . S
Sc352 O355 2.025 . S
Sc352 O362 2.105 . S
Sc352 O365 2.105 . S
Sc352 O368 2.105 . S
Sc352 O371 2.105 . S
Sc353 O355 2.025 1_554 S
Sc353 O363 2.105 1_554 S
Sc353 O367 2.105 . S
Sc353 O369 2.105 1_554 S
Sc353 O373 2.105 . S
Sc354 O355 2.025 . S
Sc354 O364 2.105 . S
Sc354 O366 2.105 . S
Sc354 O370 2.105 1_556 S
Sc354 O372 2.105 . S
O355 Sc352 2.025 . S
O355 Sc353 2.025 1_556 S
O355 Sc354 2.025 . S
C356 O362 1.268 . S
C356 O372 1.268 . S
C357 O363 1.268 . S
C357 O371 1.268 . S
C358 O364 1.268 1_554 S
C358 O373 1.268 . S
C359 O365 1.268 . S
C359 O369 1.268 . S
C360 O366 1.268 . S
C360 O368 1.268 . S
C361 O367 1.268 . S
C361 O370 1.268 . S
O362 Sc352 2.105 . S
O362 C356 1.268 . S
O363 Sc353 2.105 1_556 S
O363 C357 1.268 . S
O364 Sc354 2.105 . S
O364 C358 1.268 1_556 S
O365 Sc352 2.105 . S
O365 C359 1.268 . S
O366 Sc354 2.105 . S
O366 C360 1.268 . S
O367 Sc353 2.105 . S
O367 C361 1.268 . S
O368 Sc352 2.105 . S
O368 C360 1.268 . S
O369 Sc353 2.105 1_556 S
O369 C359 1.268 . S
O370 Sc354 2.105 1_554 S
O370 C361 1.268 . S
O371 Sc352 2.105 . S
O371 C357 1.268 . S
O372 Sc354 2.105 . S
O372 C356 1.268 . S
O373 Sc353 2.105 . S
O373 C358 1.268 . S
Sc374 O377 2.025 . S
Sc374 O384 2.105 . S
Sc374 O387 2.105 . S
Sc374 O390 2.105 . S
Sc374 O393 2.105 . S
Sc375 O377 2.025 1_554 S
Sc375 O385 2.105 1_554 S
Sc375 O389 2.105 . S
Sc375 O391 2.105 1_554 S
Sc375 O395 2.105 . S
Sc376 O377 2.025 . S
Sc376 O386 2.105 . S
Sc376 O388 2.105 . S
Sc376 O392 2.105 1_556 S
Sc376 O394 2.105 . S
O377 Sc374 2.025 . S
O377 Sc375 2.025 1_556 S
O377 Sc376 2.025 . S
C378 O384 1.268 . S
C378 O394 1.268 . S
C379 O385 1.268 . S
C379 O393 1.268 . S
C380 O386 1.268 1_554 S
C380 O395 1.268 . S
C381 O387 1.268 . S
C381 O391 1.268 . S
C382 O388 1.268 . S
C382 O390 1.268 . S
C383 O389 1.268 . S
C383 O392 1.268 . S
O384 Sc374 2.105 . S
O384 C378 1.268 . S
O385 Sc375 2.105 1_556 S
O385 C379 1.268 . S
O386 Sc376 2.105 . S
O386 C380 1.268 1_556 S
O387 Sc374 2.105 . S
O387 C381 1.268 . S
O388 Sc376 2.105 . S
O388 C382 1.268 . S
O389 Sc375 2.105 . S
O389 C383 1.268 . S
O390 Sc374 2.105 . S
O390 C382 1.268 . S
O391 Sc375 2.105 1_556 S
O391 C381 1.268 . S
O392 Sc376 2.105 1_554 S
O392 C383 1.268 . S
O393 Sc374 2.105 . S
O393 C379 1.268 . S
O394 Sc376 2.105 . S
O394 C378 1.268 . S
O395 Sc375 2.105 . S
O395 C380 1.268 . S
H396 C408 0.930 . S
H397 C410 0.930 . S
H398 C411 0.930 . S
H399 C415 0.959 . S
H400 C415 0.959 . S
H401 C415 0.961 . S
H402 C416 0.960 . S
H403 C416 0.961 . S
H404 C416 0.959 . S
H405 C419 0.929 . S
H406 C420 0.931 . S
H407 C422 0.930 . S
C408 H396 0.930 . S
C408 C409 1.399 . S
C408 C413 1.399 . S
C409 C408 1.399 . S
C409 C410 1.376 . S
C410 H397 0.930 . S
C410 C409 1.376 . S
C410 C411 1.388 . S
C411 H398 0.930 . S
C411 C410 1.388 . S
C411 C412 1.390 . S
C412 C411 1.390 . S
C412 C413 1.394 . S
C412 C418 1.465 . S
C413 C408 1.399 . S
C413 C412 1.394 . S
C413 C414 1.516 . S
C414 C413 1.516 . S
C414 C415 1.502 . S
C414 C416 1.561 . S
C414 C417 1.526 . S
C415 H399 0.959 . S
C415 H400 0.959 . S
C415 H401 0.961 . S
C415 C414 1.502 . S
C416 H402 0.960 . S
C416 H403 0.961 . S
C416 H404 0.959 . S
C416 C414 1.561 . S
C417 C414 1.526 . S
C417 C418 1.396 . S
C417 C422 1.390 . S
C418 C412 1.465 . S
C418 C417 1.396 . S
C418 C419 1.399 . S
C419 H405 0.929 . S
C419 C418 1.399 . S
C419 C420 1.385 . S
C420 H406 0.931 . S
C420 C419 1.385 . S
C420 C421 1.389 . S
C421 C420 1.389 . S
C421 C422 1.387 . S
C422 H407 0.930 . S
C422 C417 1.390 . S
C422 C421 1.387 . S
H423 C435 0.930 . S
H424 C437 0.930 . S
H425 C438 0.930 . S
H426 C442 0.959 . S
H427 C442 0.959 . S
H428 C442 0.961 . S
H429 C443 0.960 . S
H430 C443 0.961 . S
H431 C443 0.959 . S
H432 C446 0.929 . S
H433 C447 0.931 . S
H434 C449 0.930 . S
C435 H423 0.930 . S
C435 C436 1.399 . S
C435 C440 1.399 . S
C436 C435 1.399 . S
C436 C437 1.376 . S
C437 H424 0.930 . S
C437 C436 1.376 . S
C437 C438 1.388 . S
C438 H425 0.930 . S
C438 C437 1.388 . S
C438 C439 1.390 . S
C439 C438 1.390 . S
C439 C440 1.394 . S
C439 C445 1.465 . S
C440 C435 1.399 . S
C440 C439 1.394 . S
C440 C441 1.516 . S
C441 C440 1.516 . S
C441 C442 1.502 . S
C441 C443 1.561 . S
C441 C444 1.526 . S
C442 H426 0.959 . S
C442 H427 0.959 . S
C442 H428 0.961 . S
C442 C441 1.502 . S
C443 H429 0.960 . S
C443 H430 0.961 . S
C443 H431 0.959 . S
C443 C441 1.561 . S
C444 C441 1.526 . S
C444 C445 1.396 . S
C444 C449 1.390 . S
C445 C439 1.465 . S
C445 C444 1.396 . S
C445 C446 1.399 . S
C446 H432 0.929 . S
C446 C445 1.399 . S
C446 C447 1.385 . S
C447 H433 0.931 . S
C447 C446 1.385 . S
C447 C448 1.389 . S
C448 C447 1.389 . S
C448 C449 1.387 . S
C449 H434 0.930 . S
C449 C444 1.390 . S
C449 C448 1.387 . S
H450 C462 0.930 . S
H451 C464 0.930 . S
H452 C465 0.930 . S
H453 C469 0.959 . S
H454 C469 0.959 . S
H455 C469 0.961 . S
H456 C470 0.960 . S
H457 C470 0.961 . S
H458 C470 0.959 . S
H459 C473 0.929 . S
H460 C474 0.931 . S
H461 C476 0.930 . S
C462 H450 0.930 . S
C462 C463 1.399 . S
C462 C467 1.399 . S
C463 C462 1.399 . S
C463 C464 1.376 . S
C464 H451 0.930 . S
C464 C463 1.376 . S
C464 C465 1.388 . S
C465 H452 0.930 . S
C465 C464 1.388 . S
C465 C466 1.390 . S
C466 C465 1.390 . S
C466 C467 1.394 . S
C466 C472 1.465 . S
C467 C462 1.399 . S
C467 C466 1.394 . S
C467 C468 1.516 . S
C468 C467 1.516 . S
C468 C469 1.502 . S
C468 C470 1.561 . S
C468 C471 1.526 . S
C469 H453 0.959 . S
C469 H454 0.959 . S
C469 H455 0.961 . S
C469 C468 1.502 . S
C470 H456 0.960 . S
C470 H457 0.961 . S
C470 H458 0.959 . S
C470 C468 1.561 . S
C471 C468 1.526 . S
C471 C472 1.396 . S
C471 C476 1.390 . S
C472 C466 1.465 . S
C472 C471 1.396 . S
C472 C473 1.399 . S
C473 H459 0.929 . S
C473 C472 1.399 . S
C473 C474 1.385 . S
C474 H460 0.931 . S
C474 C473 1.385 . S
C474 C475 1.389 . S
C475 C474 1.389 . S
C475 C476 1.387 . S
C476 H461 0.930 . S
C476 C471 1.390 . S
C476 C475 1.387 . S
H477 C489 0.930 1_554 S
H478 C491 0.930 . S
H479 C492 0.930 . S
H480 C496 0.959 . S
H481 C496 0.959 . S
H482 C496 0.961 . S
H483 C497 0.960 . S
H484 C497 0.961 . S
H485 C497 0.959 . S
H486 C500 0.929 . S
H487 C501 0.931 . S
H488 C503 0.930 . S
C489 H477 0.930 1_556 S
C489 C490 1.399 . S
C489 C494 1.399 1_556 S
C490 C489 1.399 . S
C490 C491 1.376 . S
C491 H478 0.930 . S
C491 C490 1.376 . S
C491 C492 1.388 . S
C492 H479 0.930 . S
C492 C491 1.388 . S
C492 C493 1.390 . S
C493 C492 1.390 . S
C493 C494 1.394 1_556 S
C493 C499 1.465 1_556 S
C494 C489 1.399 1_554 S
C494 C493 1.394 1_554 S
C494 C495 1.516 . S
C495 C494 1.516 . S
C495 C496 1.502 . S
C495 C497 1.561 . S
C495 C498 1.526 . S
C496 H480 0.959 . S
C496 H481 0.959 . S
C496 H482 0.961 . S
C496 C495 1.502 . S
C497 H483 0.960 . S
C497 H484 0.961 . S
C497 H485 0.959 . S
C497 C495 1.561 . S
C498 C495 1.526 . S
C498 C499 1.396 . S
C498 C503 1.390 . S
C499 C493 1.465 1_554 S
C499 C498 1.396 . S
C499 C500 1.399 1_554 S
C500 H486 0.929 . S
C500 C499 1.399 1_556 S
C500 C501 1.385 1_556 S
C501 H487 0.931 . S
C501 C500 1.385 1_554 S
C501 C502 1.389 . S
C502 C501 1.389 . S
C502 C503 1.387 . S
C503 H488 0.930 . S
C503 C498 1.390 . S
C503 C502 1.387 . S
H504 C516 0.930 . S
H505 C518 0.930 . S
H506 C519 0.930 . S
H507 C523 0.959 . S
H508 C523 0.959 . S
H509 C523 0.961 . S
H510 C524 0.960 . S
H511 C524 0.961 . S
H512 C524 0.959 . S
H513 C527 0.929 . S
H514 C528 0.931 . S
H515 C530 0.930 . S
C516 H504 0.930 . S
C516 C517 1.399 . S
C516 C521 1.399 . S
C517 C516 1.399 . S
C517 C518 1.376 . S
C518 H505 0.930 . S
C518 C517 1.376 . S
C518 C519 1.388 . S
C519 H506 0.930 . S
C519 C518 1.388 . S
C519 C520 1.390 . S
C520 C519 1.390 . S
C520 C521 1.394 . S
C520 C526 1.465 . S
C521 C516 1.399 . S
C521 C520 1.394 . S
C521 C522 1.516 1_554 S
C522 C521 1.516 1_556 S
C522 C523 1.502 . S
C522 C524 1.561 . S
C522 C525 1.526 . S
C523 H507 0.959 . S
C523 H508 0.959 . S
C523 H509 0.961 . S
C523 C522 1.502 . S
C524 H510 0.960 . S
C524 H511 0.961 . S
C524 H512 0.959 . S
C524 C522 1.561 . S
C525 C522 1.526 . S
C525 C526 1.396 1_556 S
C525 C530 1.390 . S
C526 C520 1.465 . S
C526 C525 1.396 1_554 S
C526 C527 1.399 . S
C527 H513 0.929 . S
C527 C526 1.399 . S
C527 C528 1.385 . S
C528 H514 0.931 . S
C528 C527 1.385 . S
C528 C529 1.389 1_554 S
C529 C528 1.389 1_556 S
C529 C530 1.387 . S
C530 H515 0.930 . S
C530 C525 1.390 . S
C530 C529 1.387 . S
H531 C543 0.930 . S
H532 C545 0.930 . S
H533 C546 0.930 . S
H534 C550 0.959 . S
H535 C550 0.959 . S
H536 C550 0.961 . S
H537 C551 0.960 . S
H538 C551 0.961 . S
H539 C551 0.959 . S
H540 C554 0.929 . S
H541 C555 0.931 . S
H542 C557 0.930 . S
C543 H531 0.930 . S
C543 C544 1.399 . S
C543 C548 1.399 . S
C544 C543 1.399 . S
C544 C545 1.376 . S
C545 H532 0.930 . S
C545 C544 1.376 . S
C545 C546 1.388 . S
C546 H533 0.930 . S
C546 C545 1.388 . S
C546 C547 1.390 . S
C547 C546 1.390 . S
C547 C548 1.394 . S
C547 C553 1.465 1_556 S
C548 C543 1.399 . S
C548 C547 1.394 . S
C548 C549 1.516 1_556 S
C549 C548 1.516 1_554 S
C549 C550 1.502 . S
C549 C551 1.561 1_554 S
C549 C552 1.526 . S
C550 H534 0.959 . S
C550 H535 0.959 . S
C550 H536 0.961 . S
C550 C549 1.502 . S
C551 H537 0.960 . S
C551 H538 0.961 . S
C551 H539 0.959 . S
C551 C549 1.561 1_556 S
C552 C549 1.526 . S
C552 C553 1.396 . S
C552 C557 1.390 . S
C553 C547 1.465 1_554 S
C553 C552 1.396 . S
C553 C554 1.399 . S
C554 H540 0.929 . S
C554 C553 1.399 . S
C554 C555 1.385 . S
C555 H541 0.931 . S
C555 C554 1.385 . S
C555 C556 1.389 . S
C556 C555 1.389 . S
C556 C557 1.387 . S
C557 H542 0.930 . S
C557 C552 1.390 . S
C557 C556 1.387 . S
H558 C570 0.930 . S
H559 C572 0.930 . S
H560 C573 0.930 . S
H561 C577 0.959 . S
H562 C577 0.959 . S
H563 C577 0.961 . S
H564 C578 0.960 . S
H565 C578 0.961 . S
H566 C578 0.959 . S
H567 C581 0.929 . S
H568 C582 0.931 . S
H569 C584 0.930 . S
C570 H558 0.930 . S
C570 C571 1.399 . S
C570 C575 1.399 . S
C571 C570 1.399 . S
C571 C572 1.376 . S
C572 H559 0.930 . S
C572 C571 1.376 . S
C572 C573 1.388 . S
C573 H560 0.930 . S
C573 C572 1.388 . S
C573 C574 1.390 . S
C574 C573 1.390 . S
C574 C575 1.394 . S
C574 C580 1.465 . S
C575 C570 1.399 . S
C575 C574 1.394 . S
C575 C576 1.516 . S
C576 C575 1.516 . S
C576 C577 1.502 . S
C576 C578 1.561 . S
C576 C579 1.526 . S
C577 H561 0.959 . S
C577 H562 0.959 . S
C577 H563 0.961 . S
C577 C576 1.502 . S
C578 H564 0.960 . S
C578 H565 0.961 . S
C578 H566 0.959 . S
C578 C576 1.561 . S
C579 C576 1.526 . S
C579 C580 1.396 . S
C579 C584 1.390 . S
C580 C574 1.465 . S
C580 C579 1.396 . S
C580 C581 1.399 . S
C581 H567 0.929 . S
C581 C580 1.399 . S
C581 C582 1.385 . S
C582 H568 0.931 . S
C582 C581 1.385 . S
C582 C583 1.389 . S
C583 C582 1.389 . S
C583 C584 1.387 . S
C584 H569 0.930 . S
C584 C579 1.390 . S
C584 C583 1.387 . S
H585 C597 0.930 . S
H586 C599 0.930 . S
H587 C600 0.930 . S
H588 C604 0.959 . S
H589 C604 0.959 . S
H590 C604 0.961 . S
H591 C605 0.960 . S
H592 C605 0.961 . S
H593 C605 0.959 . S
H594 C608 0.929 . S
H595 C609 0.931 . S
H596 C611 0.930 . S
C597 H585 0.930 . S
C597 C598 1.399 . S
C597 C602 1.399 . S
C598 C597 1.399 . S
C598 C599 1.376 . S
C599 H586 0.930 . S
C599 C598 1.376 . S
C599 C600 1.388 . S
C600 H587 0.930 . S
C600 C599 1.388 . S
C600 C601 1.390 . S
C601 C600 1.390 . S
C601 C602 1.394 . S
C601 C607 1.465 . S
C602 C597 1.399 . S
C602 C601 1.394 . S
C602 C603 1.516 . S
C603 C602 1.516 . S
C603 C604 1.502 . S
C603 C605 1.561 . S
C603 C606 1.526 . S
C604 H588 0.959 . S
C604 H589 0.959 . S
C604 H590 0.961 . S
C604 C603 1.502 . S
C605 H591 0.960 . S
C605 H592 0.961 . S
C605 H593 0.959 . S
C605 C603 1.561 . S
C606 C603 1.526 . S
C606 C607 1.396 . S
C606 C611 1.390 . S
C607 C601 1.465 . S
C607 C606 1.396 . S
C607 C608 1.399 . S
C608 H594 0.929 . S
C608 C607 1.399 . S
C608 C609 1.385 . S
C609 H595 0.931 . S
C609 C608 1.385 . S
C609 C610 1.389 . S
C610 C609 1.389 . S
C610 C611 1.387 . S
C611 H596 0.930 . S
C611 C606 1.390 . S
C611 C610 1.387 . S
H612 C624 0.930 . S
H613 C626 0.930 . S
H614 C627 0.930 . S
H615 C631 0.959 . S
H616 C631 0.959 . S
H617 C631 0.961 . S
H618 C632 0.960 . S
H619 C632 0.961 . S
H620 C632 0.959 . S
H621 C635 0.929 . S
H622 C636 0.931 . S
H623 C638 0.930 . S
C624 H612 0.930 . S
C624 C625 1.399 . S
C624 C629 1.399 . S
C625 C624 1.399 . S
C625 C626 1.376 . S
C626 H613 0.930 . S
C626 C625 1.376 . S
C626 C627 1.388 . S
C627 H614 0.930 . S
C627 C626 1.388 . S
C627 C628 1.390 . S
C628 C627 1.390 . S
C628 C629 1.394 . S
C628 C634 1.465 . S
C629 C624 1.399 . S
C629 C628 1.394 . S
C629 C630 1.516 . S
C630 C629 1.516 . S
C630 C631 1.502 . S
C630 C632 1.561 . S
C630 C633 1.526 . S
C631 H615 0.959 . S
C631 H616 0.959 . S
C631 H617 0.961 . S
C631 C630 1.502 . S
C632 H618 0.960 . S
C632 H619 0.961 . S
C632 H620 0.959 . S
C632 C630 1.561 . S
C633 C630 1.526 . S
C633 C634 1.396 . S
C633 C638 1.390 . S
C634 C628 1.465 . S
C634 C633 1.396 . S
C634 C635 1.399 . S
C635 H621 0.929 . S
C635 C634 1.399 . S
C635 C636 1.385 . S
C636 H622 0.931 . S
C636 C635 1.385 . S
C636 C637 1.389 . S
C637 C636 1.389 . S
C637 C638 1.387 . S
C638 H623 0.930 . S
C638 C633 1.390 . S
C638 C637 1.387 . S
H639 C651 0.930 1_556 S
H640 C653 0.930 . S
H641 C654 0.930 . S
H642 C658 0.959 . S
H643 C658 0.959 . S
H644 C658 0.961 . S
H645 C659 0.960 . S
H646 C659 0.961 . S
H647 C659 0.959 . S
H648 C662 0.929 . S
H649 C663 0.931 . S
H650 C665 0.930 . S
C651 H639 0.930 1_554 S
C651 C652 1.399 . S
C651 C656 1.399 1_554 S
C652 C651 1.399 . S
C652 C653 1.376 . S
C653 H640 0.930 . S
C653 C652 1.376 . S
C653 C654 1.388 . S
C654 H641 0.930 . S
C654 C653 1.388 . S
C654 C655 1.390 . S
C655 C654 1.390 . S
C655 C656 1.394 1_554 S
C655 C661 1.465 1_554 S
C656 C651 1.399 1_556 S
C656 C655 1.394 1_556 S
C656 C657 1.516 . S
C657 C656 1.516 . S
C657 C658 1.502 . S
C657 C659 1.561 . S
C657 C660 1.526 . S
C658 H642 0.959 . S
C658 H643 0.959 . S
C658 H644 0.961 . S
C658 C657 1.502 . S
C659 H645 0.960 . S
C659 H646 0.961 . S
C659 H647 0.959 . S
C659 C657 1.561 . S
C660 C657 1.526 . S
C660 C661 1.396 . S
C660 C665 1.390 . S
C661 C655 1.465 1_556 S
C661 C660 1.396 . S
C661 C662 1.399 1_556 S
C662 H648 0.929 . S
C662 C661 1.399 1_554 S
C662 C663 1.385 1_554 S
C663 H649 0.931 . S
C663 C662 1.385 1_556 S
C663 C664 1.389 . S
C664 C663 1.389 . S
C664 C665 1.387 . S
C665 H650 0.930 . S
C665 C660 1.390 . S
C665 C664 1.387 . S
H666 C678 0.930 . S
H667 C680 0.930 . S
H668 C681 0.930 . S
H669 C685 0.959 . S
H670 C685 0.959 . S
H671 C685 0.961 . S
H672 C686 0.960 . S
H673 C686 0.961 . S
H674 C686 0.959 . S
H675 C689 0.929 . S
H676 C690 0.931 . S
H677 C692 0.930 1_556 S
C678 H666 0.930 . S
C678 C679 1.399 . S
C678 C683 1.399 . S
C679 C678 1.399 . S
C679 C680 1.376 . S
C680 H667 0.930 . S
C680 C679 1.376 . S
C680 C681 1.388 1_556 S
C681 H668 0.930 . S
C681 C680 1.388 1_554 S
C681 C682 1.390 1_554 S
C682 C681 1.390 1_556 S
C682 C683 1.394 . S
C682 C688 1.465 1_556 S
C683 C678 1.399 . S
C683 C682 1.394 . S
C683 C684 1.516 . S
C684 C683 1.516 . S
C684 C685 1.502 . S
C684 C686 1.561 . S
C684 C687 1.526 . S
C685 H669 0.959 . S
C685 H670 0.959 . S
C685 H671 0.961 . S
C685 C684 1.502 . S
C686 H672 0.960 . S
C686 H673 0.961 . S
C686 H674 0.959 . S
C686 C684 1.561 . S
C687 C684 1.526 . S
C687 C688 1.396 1_556 S
C687 C692 1.390 1_556 S
C688 C682 1.465 1_554 S
C688 C687 1.396 1_554 S
C688 C689 1.399 . S
C689 H675 0.929 . S
C689 C688 1.399 . S
C689 C690 1.385 . S
C690 H676 0.931 . S
C690 C689 1.385 . S
C690 C691 1.389 . S
C691 C690 1.389 . S
C691 C692 1.387 . S
C692 H677 0.930 1_554 S
C692 C687 1.390 1_554 S
C692 C691 1.387 . S
H693 C705 0.930 . S
H694 C707 0.930 . S
H695 C708 0.930 . S
H696 C712 0.959 . S
H697 C712 0.959 . S
H698 C712 0.961 . S
H699 C713 0.960 . S
H700 C713 0.961 . S
H701 C713 0.959 . S
H702 C716 0.929 . S
H703 C717 0.931 . S
H704 C719 0.930 . S
C705 H693 0.930 . S
C705 C706 1.399 . S
C705 C710 1.399 . S
C706 C705 1.399 . S
C706 C707 1.376 . S
C707 H694 0.930 . S
C707 C706 1.376 . S
C707 C708 1.388 . S
C708 H695 0.930 . S
C708 C707 1.388 . S
C708 C709 1.390 . S
C709 C708 1.390 . S
C709 C710 1.394 . S
C709 C715 1.465 1_556 S
C710 C705 1.399 . S
C710 C709 1.394 . S
C710 C711 1.516 . S
C711 C710 1.516 . S
C711 C712 1.502 . S
C711 C713 1.561 1_556 S
C711 C714 1.526 1_556 S
C712 H696 0.959 . S
C712 H697 0.959 . S
C712 H698 0.961 . S
C712 C711 1.502 . S
C713 H699 0.960 . S
C713 H700 0.961 . S
C713 H701 0.959 . S
C713 C711 1.561 1_554 S
C714 C711 1.526 1_554 S
C714 C715 1.396 . S
C714 C719 1.390 . S
C715 C709 1.465 1_554 S
C715 C714 1.396 . S
C715 C716 1.399 . S
C716 H702 0.929 . S
C716 C715 1.399 . S
C716 C717 1.385 . S
C717 H703 0.931 . S
C717 C716 1.385 . S
C717 C718 1.389 . S
C718 C717 1.389 . S
C718 C719 1.387 . S
C719 H704 0.930 . S
C719 C714 1.390 . S
C719 C718 1.387 . S
H720 C732 0.930 . S
H721 C734 0.930 . S
H722 C735 0.930 . S
H723 C739 0.959 . S
H724 C739 0.959 . S
H725 C739 0.961 . S
H726 C740 0.960 . S
H727 C740 0.961 . S
H728 C740 0.959 . S
H729 C743 0.929 . S
H730 C744 0.931 . S
H731 C746 0.930 . S
C732 H720 0.930 . S
C732 C733 1.399 . S
C732 C737 1.399 . S
C733 C732 1.399 . S
C733 C734 1.376 . S
C734 H721 0.930 . S
C734 C733 1.376 . S
C734 C735 1.388 . S
C735 H722 0.930 . S
C735 C734 1.388 . S
C735 C736 1.390 . S
C736 C735 1.390 . S
C736 C737 1.394 . S
C736 C742 1.465 . S
C737 C732 1.399 . S
C737 C736 1.394 . S
C737 C738 1.516 . S
C738 C737 1.516 . S
C738 C739 1.502 . S
C738 C740 1.561 . S
C738 C741 1.526 . S
C739 H723 0.959 . S
C739 H724 0.959 . S
C739 H725 0.961 . S
C739 C738 1.502 . S
C740 H726 0.960 . S
C740 H727 0.961 . S
C740 H728 0.959 . S
C740 C738 1.561 . S
C741 C738 1.526 . S
C741 C742 1.396 . S
C741 C746 1.390 . S
C742 C736 1.465 . S
C742 C741 1.396 . S
C742 C743 1.399 . S
C743 H729 0.929 . S
C743 C742 1.399 . S
C743 C744 1.385 . S
C744 H730 0.931 . S
C744 C743 1.385 . S
C744 C745 1.389 . S
C745 C744 1.389 . S
C745 C746 1.387 . S
C746 H731 0.930 . S
C746 C741 1.390 . S
C746 C745 1.387 . S
H747 C759 0.930 . S
H748 C761 0.930 . S
H749 C762 0.930 . S
H750 C766 0.959 . S
H751 C766 0.959 . S
H752 C766 0.961 . S
H753 C767 0.960 . S
H754 C767 0.961 . S
H755 C767 0.959 . S
H756 C770 0.929 . S
H757 C771 0.931 . S
H758 C773 0.930 . S
C759 H747 0.930 . S
C759 C760 1.399 . S
C759 C764 1.399 . S
C760 C759 1.399 . S
C760 C761 1.376 . S
C761 H748 0.930 . S
C761 C760 1.376 . S
C761 C762 1.388 . S
C762 H749 0.930 . S
C762 C761 1.388 . S
C762 C763 1.390 . S
C763 C762 1.390 . S
C763 C764 1.394 . S
C763 C769 1.465 . S
C764 C759 1.399 . S
C764 C763 1.394 . S
C764 C765 1.516 . S
C765 C764 1.516 . S
C765 C766 1.502 . S
C765 C767 1.561 . S
C765 C768 1.526 . S
C766 H750 0.959 . S
C766 H751 0.959 . S
C766 H752 0.961 . S
C766 C765 1.502 . S
C767 H753 0.960 . S
C767 H754 0.961 . S
C767 H755 0.959 . S
C767 C765 1.561 . S
C768 C765 1.526 . S
C768 C769 1.396 . S
C768 C773 1.390 . S
C769 C763 1.465 . S
C769 C768 1.396 . S
C769 C770 1.399 . S
C770 H756 0.929 . S
C770 C769 1.399 . S
C770 C771 1.385 . S
C771 H757 0.931 . S
C771 C770 1.385 . S
C771 C772 1.389 . S
C772 C771 1.389 . S
C772 C773 1.387 . S
C773 H758 0.930 . S
C773 C768 1.390 . S
C773 C772 1.387 . S
H774 C786 0.930 . S
H775 C788 0.930 . S
H776 C789 0.930 . S
H777 C793 0.959 . S
H778 C793 0.959 . S
H779 C793 0.961 . S
H780 C794 0.960 . S
H781 C794 0.961 . S
H782 C794 0.959 . S
H783 C797 0.929 . S
H784 C798 0.931 . S
H785 C800 0.930 . S
C786 H774 0.930 . S
C786 C787 1.399 . S
C786 C791 1.399 . S
C787 C786 1.399 . S
C787 C788 1.376 . S
C788 H775 0.930 . S
C788 C787 1.376 . S
C788 C789 1.388 . S
C789 H776 0.930 . S
C789 C788 1.388 . S
C789 C790 1.390 . S
C790 C789 1.390 . S
C790 C791 1.394 . S
C790 C796 1.465 . S
C791 C786 1.399 . S
C791 C790 1.394 . S
C791 C792 1.516 . S
C792 C791 1.516 . S
C792 C793 1.502 . S
C792 C794 1.561 . S
C792 C795 1.526 . S
C793 H777 0.959 . S
C793 H778 0.959 . S
C793 H779 0.961 . S
C793 C792 1.502 . S
C794 H780 0.960 . S
C794 H781 0.961 . S
C794 H782 0.959 . S
C794 C792 1.561 . S
C795 C792 1.526 . S
C795 C796 1.396 . S
C795 C800 1.390 . S
C796 C790 1.465 . S
C796 C795 1.396 . S
C796 C797 1.399 . S
C797 H783 0.929 . S
C797 C796 1.399 . S
C797 C798 1.385 . S
C798 H784 0.931 . S
C798 C797 1.385 . S
C798 C799 1.389 . S
C799 C798 1.389 . S
C799 C800 1.387 . S
C800 H785 0.930 . S
C800 C795 1.390 . S
C800 C799 1.387 . S
H801 C813 0.930 . S
H802 C815 0.930 . S
H803 C816 0.930 . S
H804 C820 0.959 . S
H805 C820 0.959 . S
H806 C820 0.961 . S
H807 C821 0.960 . S
H808 C821 0.961 . S
H809 C821 0.959 . S
H810 C824 0.929 . S
H811 C825 0.931 . S
H812 C827 0.930 . S
C813 H801 0.930 . S
C813 C814 1.399 . S
C813 C818 1.399 . S
C814 C813 1.399 . S
C814 C815 1.376 . S
C815 H802 0.930 . S
C815 C814 1.376 . S
C815 C816 1.388 . S
C816 H803 0.930 . S
C816 C815 1.388 . S
C816 C817 1.390 . S
C817 C816 1.390 . S
C817 C818 1.394 . S
C817 C823 1.465 . S
C818 C813 1.399 . S
C818 C817 1.394 . S
C818 C819 1.516 . S
C819 C818 1.516 . S
C819 C820 1.502 . S
C819 C821 1.561 . S
C819 C822 1.526 . S
C820 H804 0.959 . S
C820 H805 0.959 . S
C820 H806 0.961 . S
C820 C819 1.502 . S
C821 H807 0.960 . S
C821 H808 0.961 . S
C821 H809 0.959 . S
C821 C819 1.561 . S
C822 C819 1.526 . S
C822 C823 1.396 . S
C822 C827 1.390 . S
C823 C817 1.465 . S
C823 C822 1.396 . S
C823 C824 1.399 . S
C824 H810 0.929 . S
C824 C823 1.399 . S
C824 C825 1.385 . S
C825 H811 0.931 . S
C825 C824 1.385 . S
C825 C826 1.389 . S
C826 C825 1.389 . S
C826 C827 1.387 . S
C827 H812 0.930 . S
C827 C822 1.390 . S
C827 C826 1.387 . S
H828 C840 0.930 . S
H829 C842 0.930 . S
H830 C843 0.930 . S
H831 C847 0.959 . S
H832 C847 0.959 . S
H833 C847 0.961 . S
H834 C848 0.960 . S
H835 C848 0.961 . S
H836 C848 0.959 . S
H837 C851 0.929 . S
H838 C852 0.931 . S
H839 C854 0.930 . S
C840 H828 0.930 . S
C840 C841 1.399 . S
C840 C845 1.399 . S
C841 C840 1.399 . S
C841 C842 1.376 . S
C842 H829 0.930 . S
C842 C841 1.376 . S
C842 C843 1.388 . S
C843 H830 0.930 . S
C843 C842 1.388 . S
C843 C844 1.390 . S
C844 C843 1.390 . S
C844 C845 1.394 . S
C844 C850 1.465 . S
C845 C840 1.399 . S
C845 C844 1.394 . S
C845 C846 1.516 . S
C846 C845 1.516 . S
C846 C847 1.502 . S
C846 C848 1.561 . S
C846 C849 1.526 . S
C847 H831 0.959 . S
C847 H832 0.959 . S
C847 H833 0.961 . S
C847 C846 1.502 . S
C848 H834 0.960 . S
C848 H835 0.961 . S
C848 H836 0.959 . S
C848 C846 1.561 . S
C849 C846 1.526 . S
C849 C850 1.396 . S
C849 C854 1.390 . S
C850 C844 1.465 . S
C850 C849 1.396 . S
C850 C851 1.399 . S
C851 H837 0.929 . S
C851 C850 1.399 . S
C851 C852 1.385 . S
C852 H838 0.931 . S
C852 C851 1.385 . S
C852 C853 1.389 . S
C853 C852 1.389 . S
C853 C854 1.387 . S
C854 H839 0.930 . S
C854 C849 1.390 . S
C854 C853 1.387 . S
H855 C867 0.930 . S
H856 C869 0.930 . S
H857 C870 0.930 . S
H858 C874 0.959 . S
H859 C874 0.959 . S
H860 C874 0.961 . S
H861 C875 0.960 . S
H862 C875 0.961 . S
H863 C875 0.959 . S
H864 C878 0.929 . S
H865 C879 0.931 . S
H866 C881 0.930 . S
C867 H855 0.930 . S
C867 C868 1.399 . S
C867 C872 1.399 . S
C868 C867 1.399 . S
C868 C869 1.376 . S
C869 H856 0.930 . S
C869 C868 1.376 . S
C869 C870 1.388 . S
C870 H857 0.930 . S
C870 C869 1.388 . S
C870 C871 1.390 . S
C871 C870 1.390 . S
C871 C872 1.394 . S
C871 C877 1.465 . S
C872 C867 1.399 . S
C872 C871 1.394 . S
C872 C873 1.516 . S
C873 C872 1.516 . S
C873 C874 1.502 . S
C873 C875 1.561 . S
C873 C876 1.526 . S
C874 H858 0.959 . S
C874 H859 0.959 . S
C874 H860 0.961 . S
C874 C873 1.502 . S
C875 H861 0.960 . S
C875 H862 0.961 . S
C875 H863 0.959 . S
C875 C873 1.561 . S
C876 C873 1.526 . S
C876 C877 1.396 . S
C876 C881 1.390 . S
C877 C871 1.465 . S
C877 C876 1.396 . S
C877 C878 1.399 . S
C878 H864 0.929 . S
C878 C877 1.399 . S
C878 C879 1.385 . S
C879 H865 0.931 . S
C879 C878 1.385 . S
C879 C880 1.389 . S
C880 C879 1.389 . S
C880 C881 1.387 . S
C881 H866 0.930 . S
C881 C876 1.390 . S
C881 C880 1.387 . S
H882 C894 0.930 . S
H883 C896 0.930 . S
H884 C897 0.930 . S
H885 C901 0.959 . S
H886 C901 0.959 . S
H887 C901 0.961 . S
H888 C902 0.960 . S
H889 C902 0.961 . S
H890 C902 0.959 . S
H891 C905 0.929 . S
H892 C906 0.931 . S
H893 C908 0.930 . S
C894 H882 0.930 . S
C894 C895 1.399 . S
C894 C899 1.399 . S
C895 C894 1.399 . S
C895 C896 1.376 . S
C896 H883 0.930 . S
C896 C895 1.376 . S
C896 C897 1.388 . S
C897 H884 0.930 . S
C897 C896 1.388 . S
C897 C898 1.390 . S
C898 C897 1.390 . S
C898 C899 1.394 . S
C898 C904 1.465 . S
C899 C894 1.399 . S
C899 C898 1.394 . S
C899 C900 1.516 . S
C900 C899 1.516 . S
C900 C901 1.502 . S
C900 C902 1.561 . S
C900 C903 1.526 . S
C901 H885 0.959 . S
C901 H886 0.959 . S
C901 H887 0.961 . S
C901 C900 1.502 . S
C902 H888 0.960 . S
C902 H889 0.961 . S
C902 H890 0.959 . S
C902 C900 1.561 . S
C903 C900 1.526 . S
C903 C904 1.396 . S
C903 C908 1.390 . S
C904 C898 1.465 . S
C904 C903 1.396 . S
C904 C905 1.399 . S
C905 H891 0.929 . S
C905 C904 1.399 . S
C905 C906 1.385 . S
C906 H892 0.931 . S
C906 C905 1.385 . S
C906 C907 1.389 . S
C907 C906 1.389 . S
C907 C908 1.387 . S
C908 H893 0.930 . S
C908 C903 1.390 . S
C908 C907 1.387 . S
H909 C921 0.930 1_554 S
H910 C923 0.930 . S
H911 C924 0.930 . S
H912 C928 0.959 . S
H913 C928 0.959 . S
H914 C928 0.961 1_554 S
H915 C929 0.960 . S
H916 C929 0.961 . S
H917 C929 0.959 . S
H918 C932 0.929 . S
H919 C933 0.931 . S
H920 C935 0.930 . S
C921 H909 0.930 1_556 S
C921 C922 1.399 . S
C921 C926 1.399 . S
C922 C921 1.399 . S
C922 C923 1.376 . S
C923 H910 0.930 . S
C923 C922 1.376 . S
C923 C924 1.388 . S
C924 H911 0.930 . S
C924 C923 1.388 . S
C924 C925 1.390 . S
C925 C924 1.390 . S
C925 C926 1.394 . S
C925 C931 1.465 . S
C926 C921 1.399 . S
C926 C925 1.394 . S
C926 C927 1.516 . S
C927 C926 1.516 . S
C927 C928 1.502 . S
C927 C929 1.561 . S
C927 C930 1.526 . S
C928 H912 0.959 . S
C928 H913 0.959 . S
C928 H914 0.961 1_556 S
C928 C927 1.502 . S
C929 H915 0.960 . S
C929 H916 0.961 . S
C929 H917 0.959 . S
C929 C927 1.561 . S
C930 C927 1.526 . S
C930 C931 1.396 . S
C930 C935 1.390 . S
C931 C925 1.465 . S
C931 C930 1.396 . S
C931 C932 1.399 . S
C932 H918 0.929 . S
C932 C931 1.399 . S
C932 C933 1.385 . S
C933 H919 0.931 . S
C933 C932 1.385 . S
C933 C934 1.389 . S
C934 C933 1.389 . S
C934 C935 1.387 . S
C935 H920 0.930 . S
C935 C930 1.390 . S
C935 C934 1.387 . S
H936 C948 0.930 1_554 S
H937 C950 0.930 . S
H938 C951 0.930 . S
H939 C955 0.959 . S
H940 C955 0.959 . S
H941 C955 0.961 . S
H942 C956 0.960 1_554 S
H943 C956 0.961 . S
H944 C956 0.959 . S
H945 C959 0.929 . S
H946 C960 0.931 . S
H947 C962 0.930 . S
C948 H936 0.930 1_556 S
C948 C949 1.399 . S
C948 C953 1.399 . S
C949 C948 1.399 . S
C949 C950 1.376 . S
C950 H937 0.930 . S
C950 C949 1.376 . S
C950 C951 1.388 . S
C951 H938 0.930 . S
C951 C950 1.388 . S
C951 C952 1.390 . S
C952 C951 1.390 . S
C952 C953 1.394 . S
C952 C958 1.465 . S
C953 C948 1.399 . S
C953 C952 1.394 . S
C953 C954 1.516 . S
C954 C953 1.516 . S
C954 C955 1.502 . S
C954 C956 1.561 . S
C954 C957 1.526 . S
C955 H939 0.959 . S
C955 H940 0.959 . S
C955 H941 0.961 . S
C955 C954 1.502 . S
C956 H942 0.960 1_556 S
C956 H943 0.961 . S
C956 H944 0.959 . S
C956 C954 1.561 . S
C957 C954 1.526 . S
C957 C958 1.396 . S
C957 C962 1.390 . S
C958 C952 1.465 . S
C958 C957 1.396 . S
C958 C959 1.399 . S
C959 H945 0.929 . S
C959 C958 1.399 . S
C959 C960 1.385 . S
C960 H946 0.931 . S
C960 C959 1.385 . S
C960 C961 1.389 . S
C961 C960 1.389 . S
C961 C962 1.387 . S
C962 H947 0.930 . S
C962 C957 1.390 . S
C962 C961 1.387 . S
H963 C975 0.930 . S
H964 C977 0.930 . S
H965 C978 0.930 . S
H966 C982 0.959 . S
H967 C982 0.959 . S
H968 C982 0.961 . S
H969 C983 0.960 . S
H970 C983 0.961 . S
H971 C983 0.959 . S
H972 C986 0.929 . S
H973 C987 0.931 . S
H974 C989 0.930 . S
C975 H963 0.930 . S
C975 C976 1.399 . S
C975 C980 1.399 . S
C976 C975 1.399 . S
C976 C977 1.376 . S
C977 H964 0.930 . S
C977 C976 1.376 . S
C977 C978 1.388 . S
C978 H965 0.930 . S
C978 C977 1.388 . S
C978 C979 1.390 . S
C979 C978 1.390 . S
C979 C980 1.394 . S
C979 C985 1.465 . S
C980 C975 1.399 . S
C980 C979 1.394 . S
C980 C981 1.516 . S
C981 C980 1.516 . S
C981 C982 1.502 . S
C981 C983 1.561 . S
C981 C984 1.526 . S
C982 H966 0.959 . S
C982 H967 0.959 . S
C982 H968 0.961 . S
C982 C981 1.502 . S
C983 H969 0.960 . S
C983 H970 0.961 . S
C983 H971 0.959 . S
C983 C981 1.561 . S
C984 C981 1.526 . S
C984 C985 1.396 . S
C984 C989 1.390 . S
C985 C979 1.465 . S
C985 C984 1.396 . S
C985 C986 1.399 . S
C986 H972 0.929 . S
C986 C985 1.399 . S
C986 C987 1.385 . S
C987 H973 0.931 . S
C987 C986 1.385 . S
C987 C988 1.389 . S
C988 C987 1.389 . S
C988 C989 1.387 . S
C989 H974 0.930 . S
C989 C984 1.390 . S
C989 C988 1.387 . S
H990 C1002 0.930 . S
H991 C1004 0.930 . S
H992 C1005 0.930 . S
H993 C1009 0.959 . S
H994 C1009 0.959 . S
H995 C1009 0.961 . S
H996 C1010 0.960 . S
H997 C1010 0.961 . S
H998 C1010 0.959 . S
H999 C1013 0.929 . S
H1000 C1014 0.931 . S
H1001 C1016 0.930 . S
C1002 H990 0.930 . S
C1002 C1003 1.399 . S
C1002 C1007 1.399 . S
C1003 C1002 1.399 . S
C1003 C1004 1.376 . S
C1004 H991 0.930 . S
C1004 C1003 1.376 . S
C1004 C1005 1.388 . S
C1005 H992 0.930 . S
C1005 C1004 1.388 . S
C1005 C1006 1.390 . S
C1006 C1005 1.390 . S
C1006 C1007 1.394 . S
C1006 C1012 1.465 . S
C1007 C1002 1.399 . S
C1007 C1006 1.394 . S
C1007 C1008 1.516 . S
C1008 C1007 1.516 . S
C1008 C1009 1.502 . S
C1008 C1010 1.561 . S
C1008 C1011 1.526 . S
C1009 H993 0.959 . S
C1009 H994 0.959 . S
C1009 H995 0.961 . S
C1009 C1008 1.502 . S
C1010 H996 0.960 . S
C1010 H997 0.961 . S
C1010 H998 0.959 . S
C1010 C1008 1.561 . S
C1011 C1008 1.526 . S
C1011 C1012 1.396 . S
C1011 C1016 1.390 . S
C1012 C1006 1.465 . S
C1012 C1011 1.396 . S
C1012 C1013 1.399 . S
C1013 H999 0.929 . S
C1013 C1012 1.399 . S
C1013 C1014 1.385 . S
C1014 H1000 0.931 . S
C1014 C1013 1.385 . S
C1014 C1015 1.389 . S
C1015 C1014 1.389 . S
C1015 C1016 1.387 . S
C1016 H1001 0.930 . S
C1016 C1011 1.390 . S
C1016 C1015 1.387 . S
H1017 C1029 0.930 . S
H1018 C1031 0.930 . S
H1019 C1032 0.930 . S
H1020 C1036 0.959 . S
H1021 C1036 0.959 . S
H1022 C1036 0.961 . S
H1023 C1037 0.960 . S
H1024 C1037 0.961 . S
H1025 C1037 0.959 . S
H1026 C1040 0.929 . S
H1027 C1041 0.931 . S
H1028 C1043 0.930 . S
C1029 H1017 0.930 . S
C1029 C1030 1.399 . S
C1029 C1034 1.399 . S
C1030 C1029 1.399 . S
C1030 C1031 1.376 . S
C1031 H1018 0.930 . S
C1031 C1030 1.376 . S
C1031 C1032 1.388 . S
C1032 H1019 0.930 . S
C1032 C1031 1.388 . S
C1032 C1033 1.390 . S
C1033 C1032 1.390 . S
C1033 C1034 1.394 . S
C1033 C1039 1.465 . S
C1034 C1029 1.399 . S
C1034 C1033 1.394 . S
C1034 C1035 1.516 . S
C1035 C1034 1.516 . S
C1035 C1036 1.502 . S
C1035 C1037 1.561 . S
C1035 C1038 1.526 . S
C1036 H1020 0.959 . S
C1036 H1021 0.959 . S
C1036 H1022 0.961 . S
C1036 C1035 1.502 . S
C1037 H1023 0.960 . S
C1037 H1024 0.961 . S
C1037 H1025 0.959 . S
C1037 C1035 1.561 . S
C1038 C1035 1.526 . S
C1038 C1039 1.396 . S
C1038 C1043 1.390 . S
C1039 C1033 1.465 . S
C1039 C1038 1.396 . S
C1039 C1040 1.399 . S
C1040 H1026 0.929 . S
C1040 C1039 1.399 . S
C1040 C1041 1.385 . S
C1041 H1027 0.931 . S
C1041 C1040 1.385 . S
C1041 C1042 1.389 . S
C1042 C1041 1.389 . S
C1042 C1043 1.387 . S
C1043 H1028 0.930 . S
C1043 C1038 1.390 . S
C1043 C1042 1.387 . S
H1044 C1056 0.930 . S
H1045 C1058 0.930 . S
H1046 C1059 0.930 . S
H1047 C1063 0.959 . S
H1048 C1063 0.959 . S
H1049 C1063 0.961 . S
H1050 C1064 0.960 . S
H1051 C1064 0.961 . S
H1052 C1064 0.959 . S
H1053 C1067 0.929 . S
H1054 C1068 0.931 . S
H1055 C1070 0.930 . S
C1056 H1044 0.930 . S
C1056 C1057 1.399 . S
C1056 C1061 1.399 . S
C1057 C1056 1.399 . S
C1057 C1058 1.376 . S
C1058 H1045 0.930 . S
C1058 C1057 1.376 . S
C1058 C1059 1.388 . S
C1059 H1046 0.930 . S
C1059 C1058 1.388 . S
C1059 C1060 1.390 . S
C1060 C1059 1.390 . S
C1060 C1061 1.394 . S
C1060 C1066 1.465 . S
C1061 C1056 1.399 . S
C1061 C1060 1.394 . S
C1061 C1062 1.516 . S
C1062 C1061 1.516 . S
C1062 C1063 1.502 . S
C1062 C1064 1.561 . S
C1062 C1065 1.526 . S
C1063 H1047 0.959 . S
C1063 H1048 0.959 . S
C1063 H1049 0.961 . S
C1063 C1062 1.502 . S
C1064 H1050 0.960 . S
C1064 H1051 0.961 . S
C1064 H1052 0.959 . S
C1064 C1062 1.561 . S
C1065 C1062 1.526 . S
C1065 C1066 1.396 . S
C1065 C1070 1.390 . S
C1066 C1060 1.465 . S
C1066 C1065 1.396 . S
C1066 C1067 1.399 . S
C1067 H1053 0.929 . S
C1067 C1066 1.399 . S
C1067 C1068 1.385 . S
C1068 H1054 0.931 . S
C1068 C1067 1.385 . S
C1068 C1069 1.389 . S
C1069 C1068 1.389 . S
C1069 C1070 1.387 . S
C1070 H1055 0.930 . S
C1070 C1065 1.390 . S
C1070 C1069 1.387 . S
H1071 C1083 0.930 . S
H1072 C1085 0.930 . S
H1073 C1086 0.930 . S
H1074 C1090 0.959 . S
H1075 C1090 0.959 1_556 S
H1076 C1090 0.961 . S
H1077 C1091 0.960 . S
H1078 C1091 0.961 . S
H1079 C1091 0.959 . S
H1080 C1094 0.929 . S
H1081 C1095 0.931 . S
H1082 C1097 0.930 1_556 S
C1083 H1071 0.930 . S
C1083 C1084 1.399 . S
C1083 C1088 1.399 . S
C1084 C1083 1.399 . S
C1084 C1085 1.376 . S
C1085 H1072 0.930 . S
C1085 C1084 1.376 . S
C1085 C1086 1.388 . S
C1086 H1073 0.930 . S
C1086 C1085 1.388 . S
C1086 C1087 1.390 . S
C1087 C1086 1.390 . S
C1087 C1088 1.394 . S
C1087 C1093 1.465 . S
C1088 C1083 1.399 . S
C1088 C1087 1.394 . S
C1088 C1089 1.516 . S
C1089 C1088 1.516 . S
C1089 C1090 1.502 . S
C1089 C1091 1.561 . S
C1089 C1092 1.526 . S
C1090 H1074 0.959 . S
C1090 H1075 0.959 1_554 S
C1090 H1076 0.961 . S
C1090 C1089 1.502 . S
C1091 H1077 0.960 . S
C1091 H1078 0.961 . S
C1091 H1079 0.959 . S
C1091 C1089 1.561 . S
C1092 C1089 1.526 . S
C1092 C1093 1.396 . S
C1092 C1097 1.390 . S
C1093 C1087 1.465 . S
C1093 C1092 1.396 . S
C1093 C1094 1.399 . S
C1094 H1080 0.929 . S
C1094 C1093 1.399 . S
C1094 C1095 1.385 . S
C1095 H1081 0.931 . S
C1095 C1094 1.385 . S
C1095 C1096 1.389 . S
C1096 C1095 1.389 . S
C1096 C1097 1.387 . S
C1097 H1082 0.930 1_554 S
C1097 C1092 1.390 . S
C1097 C1096 1.387 . S
H1098 C1110 0.930 1_556 S
H1099 C1112 0.930 . S
H1100 C1113 0.930 . S
H1101 C1117 0.959 . S
H1102 C1117 0.959 . S
H1103 C1117 0.961 1_556 S
H1104 C1118 0.960 . S
H1105 C1118 0.961 . S
H1106 C1118 0.959 . S
H1107 C1121 0.929 . S
H1108 C1122 0.931 . S
H1109 C1124 0.930 . S
C1110 H1098 0.930 1_554 S
C1110 C1111 1.399 . S
C1110 C1115 1.399 . S
C1111 C1110 1.399 . S
C1111 C1112 1.376 . S
C1112 H1099 0.930 . S
C1112 C1111 1.376 . S
C1112 C1113 1.388 . S
C1113 H1100 0.930 . S
C1113 C1112 1.388 . S
C1113 C1114 1.390 . S
C1114 C1113 1.390 . S
C1114 C1115 1.394 . S
C1114 C1120 1.465 . S
C1115 C1110 1.399 . S
C1115 C1114 1.394 . S
C1115 C1116 1.516 . S
C1116 C1115 1.516 . S
C1116 C1117 1.502 . S
C1116 C1118 1.561 . S
C1116 C1119 1.526 . S
C1117 H1101 0.959 . S
C1117 H1102 0.959 . S
C1117 H1103 0.961 1_554 S
C1117 C1116 1.502 . S
C1118 H1104 0.960 . S
C1118 H1105 0.961 . S
C1118 H1106 0.959 . S
C1118 C1116 1.561 . S
C1119 C1116 1.526 . S
C1119 C1120 1.396 . S
C1119 C1124 1.390 . S
C1120 C1114 1.465 . S
C1120 C1119 1.396 . S
C1120 C1121 1.399 . S
C1121 H1107 0.929 . S
C1121 C1120 1.399 . S
C1121 C1122 1.385 . S
C1122 H1108 0.931 . S
C1122 C1121 1.385 . S
C1122 C1123 1.389 . S
C1123 C1122 1.389 . S
C1123 C1124 1.387 . S
C1124 H1109 0.930 . S
C1124 C1119 1.390 . S
C1124 C1123 1.387 . S
H1125 C1137 0.930 . S
H1126 C1139 0.930 . S
H1127 C1140 0.930 . S
H1128 C1144 0.959 . S
H1129 C1144 0.959 . S
H1130 C1144 0.961 . S
H1131 C1145 0.960 . S
H1132 C1145 0.961 . S
H1133 C1145 0.959 . S
H1134 C1148 0.929 . S
H1135 C1149 0.931 . S
H1136 C1151 0.930 . S
C1137 H1125 0.930 . S
C1137 C1138 1.399 . S
C1137 C1142 1.399 . S
C1138 C1137 1.399 . S
C1138 C1139 1.376 . S
C1139 H1126 0.930 . S
C1139 C1138 1.376 . S
C1139 C1140 1.388 . S
C1140 H1127 0.930 . S
C1140 C1139 1.388 . S
C1140 C1141 1.390 . S
C1141 C1140 1.390 . S
C1141 C1142 1.394 . S
C1141 C1147 1.465 . S
C1142 C1137 1.399 . S
C1142 C1141 1.394 . S
C1142 C1143 1.516 . S
C1143 C1142 1.516 . S
C1143 C1144 1.502 . S
C1143 C1145 1.561 . S
C1143 C1146 1.526 . S
C1144 H1128 0.959 . S
C1144 H1129 0.959 . S
C1144 H1130 0.961 . S
C1144 C1143 1.502 . S
C1145 H1131 0.960 . S
C1145 H1132 0.961 . S
C1145 H1133 0.959 . S
C1145 C1143 1.561 . S
C1146 C1143 1.526 . S
C1146 C1147 1.396 . S
C1146 C1151 1.390 . S
C1147 C1141 1.465 . S
C1147 C1146 1.396 . S
C1147 C1148 1.399 . S
C1148 H1134 0.929 . S
C1148 C1147 1.399 . S
C1148 C1149 1.385 . S
C1149 H1135 0.931 . S
C1149 C1148 1.385 . S
C1149 C1150 1.389 . S
C1150 C1149 1.389 . S
C1150 C1151 1.387 . S
C1151 H1136 0.930 . S
C1151 C1146 1.390 . S
C1151 C1150 1.387 . S
H1152 C1164 0.930 . S
H1153 C1166 0.930 . S
H1154 C1167 0.930 . S
H1155 C1171 0.959 . S
H1156 C1171 0.959 . S
H1157 C1171 0.961 . S
H1158 C1172 0.960 . S
H1159 C1172 0.961 . S
H1160 C1172 0.959 . S
H1161 C1175 0.929 . S
H1162 C1176 0.931 . S
H1163 C1178 0.930 . S
C1164 H1152 0.930 . S
C1164 C1165 1.399 . S
C1164 C1169 1.399 . S
C1165 C1164 1.399 . S
C1165 C1166 1.376 . S
C1166 H1153 0.930 . S
C1166 C1165 1.376 . S
C1166 C1167 1.388 . S
C1167 H1154 0.930 . S
C1167 C1166 1.388 . S
C1167 C1168 1.390 . S
C1168 C1167 1.390 . S
C1168 C1169 1.394 . S
C1168 C1174 1.465 . S
C1169 C1164 1.399 . S
C1169 C1168 1.394 . S
C1169 C1170 1.516 . S
C1170 C1169 1.516 . S
C1170 C1171 1.502 . S
C1170 C1172 1.561 . S
C1170 C1173 1.526 . S
C1171 H1155 0.959 . S
C1171 H1156 0.959 . S
C1171 H1157 0.961 . S
C1171 C1170 1.502 . S
C1172 H1158 0.960 . S
C1172 H1159 0.961 . S
C1172 H1160 0.959 . S
C1172 C1170 1.561 . S
C1173 C1170 1.526 . S
C1173 C1174 1.396 . S
C1173 C1178 1.390 . S
C1174 C1168 1.465 . S
C1174 C1173 1.396 . S
C1174 C1175 1.399 . S
C1175 H1161 0.929 . S
C1175 C1174 1.399 . S
C1175 C1176 1.385 . S
C1176 H1162 0.931 . S
C1176 C1175 1.385 . S
C1176 C1177 1.389 . S
C1177 C1176 1.389 . S
C1177 C1178 1.387 . S
C1178 H1163 0.930 . S
C1178 C1173 1.390 . S
C1178 C1177 1.387 . S
H1179 C1191 0.930 . S
H1180 C1193 0.930 . S
H1181 C1194 0.930 . S
H1182 C1198 0.959 . S
H1183 C1198 0.959 . S
H1184 C1198 0.961 . S
H1185 C1199 0.960 . S
H1186 C1199 0.961 . S
H1187 C1199 0.959 . S
H1188 C1202 0.929 . S
H1189 C1203 0.931 . S
H1190 C1205 0.930 . S
C1191 H1179 0.930 . S
C1191 C1192 1.399 . S
C1191 C1196 1.399 . S
C1192 C1191 1.399 . S
C1192 C1193 1.376 . S
C1193 H1180 0.930 . S
C1193 C1192 1.376 . S
C1193 C1194 1.388 . S
C1194 H1181 0.930 . S
C1194 C1193 1.388 . S
C1194 C1195 1.390 . S
C1195 C1194 1.390 . S
C1195 C1196 1.394 . S
C1195 C1201 1.465 . S
C1196 C1191 1.399 . S
C1196 C1195 1.394 . S
C1196 C1197 1.516 . S
C1197 C1196 1.516 . S
C1197 C1198 1.502 . S
C1197 C1199 1.561 . S
C1197 C1200 1.526 . S
C1198 H1182 0.959 . S
C1198 H1183 0.959 . S
C1198 H1184 0.961 . S
C1198 C1197 1.502 . S
C1199 H1185 0.960 . S
C1199 H1186 0.961 . S
C1199 H1187 0.959 . S
C1199 C1197 1.561 . S
C1200 C1197 1.526 . S
C1200 C1201 1.396 . S
C1200 C1205 1.390 . S
C1201 C1195 1.465 . S
C1201 C1200 1.396 . S
C1201 C1202 1.399 . S
C1202 H1188 0.929 . S
C1202 C1201 1.399 . S
C1202 C1203 1.385 . S
C1203 H1189 0.931 . S
C1203 C1202 1.385 . S
C1203 C1204 1.389 . S
C1204 C1203 1.389 . S
C1204 C1205 1.387 . S
C1205 H1190 0.930 . S
C1205 C1200 1.390 . S
C1205 C1204 1.387 . S
H1206 C1218 0.930 . S
H1207 C1220 0.930 . S
H1208 C1221 0.930 . S
H1209 C1225 0.959 . S
H1210 C1225 0.959 . S
H1211 C1225 0.961 . S
H1212 C1226 0.960 . S
H1213 C1226 0.961 . S
H1214 C1226 0.959 . S
H1215 C1229 0.929 . S
H1216 C1230 0.931 . S
H1217 C1232 0.930 . S
C1218 H1206 0.930 . S
C1218 C1219 1.399 . S
C1218 C1223 1.399 . S
C1219 C1218 1.399 . S
C1219 C1220 1.376 . S
C1220 H1207 0.930 . S
C1220 C1219 1.376 . S
C1220 C1221 1.388 . S
C1221 H1208 0.930 . S
C1221 C1220 1.388 . S
C1221 C1222 1.390 . S
C1222 C1221 1.390 . S
C1222 C1223 1.394 . S
C1222 C1228 1.465 . S
C1223 C1218 1.399 . S
C1223 C1222 1.394 . S
C1223 C1224 1.516 . S
C1224 C1223 1.516 . S
C1224 C1225 1.502 . S
C1224 C1226 1.561 . S
C1224 C1227 1.526 . S
C1225 H1209 0.959 . S
C1225 H1210 0.959 . S
C1225 H1211 0.961 . S
C1225 C1224 1.502 . S
C1226 H1212 0.960 . S
C1226 H1213 0.961 . S
C1226 H1214 0.959 . S
C1226 C1224 1.561 . S
C1227 C1224 1.526 . S
C1227 C1228 1.396 . S
C1227 C1232 1.390 . S
C1228 C1222 1.465 . S
C1228 C1227 1.396 . S
C1228 C1229 1.399 . S
C1229 H1215 0.929 . S
C1229 C1228 1.399 . S
C1229 C1230 1.385 . S
C1230 H1216 0.931 . S
C1230 C1229 1.385 . S
C1230 C1231 1.389 . S
C1231 C1230 1.389 . S
C1231 C1232 1.387 . S
C1232 H1217 0.930 . S
C1232 C1227 1.390 . S
C1232 C1231 1.387 . S
H1233 C1245 0.930 . S
H1234 C1247 0.930 . S
H1235 C1248 0.930 . S
H1236 C1252 0.959 . S
H1237 C1252 0.959 . S
H1238 C1252 0.961 . S
H1239 C1253 0.960 . S
H1240 C1253 0.961 . S
H1241 C1253 0.959 . S
H1242 C1256 0.929 . S
H1243 C1257 0.931 . S
H1244 C1259 0.930 . S
C1245 H1233 0.930 . S
C1245 C1246 1.399 . S
C1245 C1250 1.399 . S
C1246 C1245 1.399 . S
C1246 C1247 1.376 . S
C1247 H1234 0.930 . S
C1247 C1246 1.376 . S
C1247 C1248 1.388 . S
C1248 H1235 0.930 . S
C1248 C1247 1.388 . S
C1248 C1249 1.390 . S
C1249 C1248 1.390 . S
C1249 C1250 1.394 . S
C1249 C1255 1.465 . S
C1250 C1245 1.399 . S
C1250 C1249 1.394 . S
C1250 C1251 1.516 . S
C1251 C1250 1.516 . S
C1251 C1252 1.502 . S
C1251 C1253 1.561 . S
C1251 C1254 1.526 . S
C1252 H1236 0.959 . S
C1252 H1237 0.959 . S
C1252 H1238 0.961 . S
C1252 C1251 1.502 . S
C1253 H1239 0.960 . S
C1253 H1240 0.961 . S
C1253 H1241 0.959 . S
C1253 C1251 1.561 . S
C1254 C1251 1.526 . S
C1254 C1255 1.396 . S
C1254 C1259 1.390 . S
C1255 C1249 1.465 . S
C1255 C1254 1.396 . S
C1255 C1256 1.399 . S
C1256 H1242 0.929 . S
C1256 C1255 1.399 . S
C1256 C1257 1.385 . S
C1257 H1243 0.931 . S
C1257 C1256 1.385 . S
C1257 C1258 1.389 . S
C1258 C1257 1.389 . S
C1258 C1259 1.387 . S
C1259 H1244 0.930 . S
C1259 C1254 1.390 . S
C1259 C1258 1.387 . S
H1260 C1272 0.930 . S
H1261 C1274 0.930 . S
H1262 C1275 0.930 . S
H1263 C1279 0.959 . S
H1264 C1279 0.959 . S
H1265 C1279 0.961 . S
H1266 C1280 0.960 . S
H1267 C1280 0.961 . S
H1268 C1280 0.959 . S
H1269 C1283 0.929 . S
H1270 C1284 0.931 1_556 S
H1271 C1286 0.930 . S
C1272 H1260 0.930 . S
C1272 C1273 1.399 . S
C1272 C1277 1.399 . S
C1273 C1272 1.399 . S
C1273 C1274 1.376 . S
C1274 H1261 0.930 . S
C1274 C1273 1.376 . S
C1274 C1275 1.388 . S
C1275 H1262 0.930 . S
C1275 C1274 1.388 . S
C1275 C1276 1.390 . S
C1276 C1275 1.390 . S
C1276 C1277 1.394 . S
C1276 C1282 1.465 . S
C1277 C1272 1.399 . S
C1277 C1276 1.394 . S
C1277 C1278 1.516 . S
C1278 C1277 1.516 . S
C1278 C1279 1.502 . S
C1278 C1280 1.561 . S
C1278 C1281 1.526 . S
C1279 H1263 0.959 . S
C1279 H1264 0.959 . S
C1279 H1265 0.961 . S
C1279 C1278 1.502 . S
C1280 H1266 0.960 . S
C1280 H1267 0.961 . S
C1280 H1268 0.959 . S
C1280 C1278 1.561 . S
C1281 C1278 1.526 . S
C1281 C1282 1.396 . S
C1281 C1286 1.390 . S
C1282 C1276 1.465 . S
C1282 C1281 1.396 . S
C1282 C1283 1.399 . S
C1283 H1269 0.929 . S
C1283 C1282 1.399 . S
C1283 C1284 1.385 . S
C1284 H1270 0.931 1_554 S
C1284 C1283 1.385 . S
C1284 C1285 1.389 . S
C1285 C1284 1.389 . S
C1285 C1286 1.387 . S
C1286 H1271 0.930 . S
C1286 C1281 1.390 . S
C1286 C1285 1.387 . S
H1287 C1299 0.930 . S
H1288 C1301 0.930 . S
H1289 C1302 0.930 . S
H1290 C1306 0.959 . S
H1291 C1306 0.959 . S
H1292 C1306 0.961 . S
H1293 C1307 0.960 . S
H1294 C1307 0.961 . S
H1295 C1307 0.959 . S
H1296 C1310 0.929 . S
H1297 C1311 0.931 . S
H1298 C1313 0.930 . S
C1299 H1287 0.930 . S
C1299 C1300 1.399 . S
C1299 C1304 1.399 . S
C1300 C1299 1.399 . S
C1300 C1301 1.376 . S
C1301 H1288 0.930 . S
C1301 C1300 1.376 . S
C1301 C1302 1.388 . S
C1302 H1289 0.930 . S
C1302 C1301 1.388 . S
C1302 C1303 1.390 . S
C1303 C1302 1.390 . S
C1303 C1304 1.394 . S
C1303 C1309 1.465 . S
C1304 C1299 1.399 . S
C1304 C1303 1.394 . S
C1304 C1305 1.516 . S
C1305 C1304 1.516 . S
C1305 C1306 1.502 . S
C1305 C1307 1.561 . S
C1305 C1308 1.526 . S
C1306 H1290 0.959 . S
C1306 H1291 0.959 . S
C1306 H1292 0.961 . S
C1306 C1305 1.502 . S
C1307 H1293 0.960 . S
C1307 H1294 0.961 . S
C1307 H1295 0.959 . S
C1307 C1305 1.561 . S
C1308 C1305 1.526 . S
C1308 C1309 1.396 . S
C1308 C1313 1.390 . S
C1309 C1303 1.465 . S
C1309 C1308 1.396 . S
C1309 C1310 1.399 . S
C1310 H1296 0.929 . S
C1310 C1309 1.399 . S
C1310 C1311 1.385 . S
C1311 H1297 0.931 . S
C1311 C1310 1.385 . S
C1311 C1312 1.389 . S
C1312 C1311 1.389 . S
C1312 C1313 1.387 . S
C1313 H1298 0.930 . S
C1313 C1308 1.390 . S
C1313 C1312 1.387 . S
H1314 C1326 0.930 . S
H1315 C1328 0.930 . S
H1316 C1329 0.930 . S
H1317 C1333 0.959 . S
H1318 C1333 0.959 . S
H1319 C1333 0.961 . S
H1320 C1334 0.960 . S
H1321 C1334 0.961 . S
H1322 C1334 0.959 . S
H1323 C1337 0.929 . S
H1324 C1338 0.931 . S
H1325 C1340 0.930 . S
C1326 H1314 0.930 . S
C1326 C1327 1.399 . S
C1326 C1331 1.399 . S
C1327 C1326 1.399 . S
C1327 C1328 1.376 . S
C1328 H1315 0.930 . S
C1328 C1327 1.376 . S
C1328 C1329 1.388 . S
C1329 H1316 0.930 . S
C1329 C1328 1.388 . S
C1329 C1330 1.390 . S
C1330 C1329 1.390 . S
C1330 C1331 1.394 . S
C1330 C1336 1.465 . S
C1331 C1326 1.399 . S
C1331 C1330 1.394 . S
C1331 C1332 1.516 . S
C1332 C1331 1.516 . S
C1332 C1333 1.502 . S
C1332 C1334 1.561 . S
C1332 C1335 1.526 . S
C1333 H1317 0.959 . S
C1333 H1318 0.959 . S
C1333 H1319 0.961 . S
C1333 C1332 1.502 . S
C1334 H1320 0.960 . S
C1334 H1321 0.961 . S
C1334 H1322 0.959 . S
C1334 C1332 1.561 . S
C1335 C1332 1.526 . S
C1335 C1336 1.396 . S
C1335 C1340 1.390 . S
C1336 C1330 1.465 . S
C1336 C1335 1.396 . S
C1336 C1337 1.399 . S
C1337 H1323 0.929 . S
C1337 C1336 1.399 . S
C1337 C1338 1.385 . S
C1338 H1324 0.931 . S
C1338 C1337 1.385 . S
C1338 C1339 1.389 . S
C1339 C1338 1.389 . S
C1339 C1340 1.387 . S
C1340 H1325 0.930 . S
C1340 C1335 1.390 . S
C1340 C1339 1.387 . S
H1341 C1353 0.930 . S
H1342 C1355 0.930 . S
H1343 C1356 0.930 . S
H1344 C1360 0.959 . S
H1345 C1360 0.959 . S
H1346 C1360 0.961 . S
H1347 C1361 0.960 . S
H1348 C1361 0.961 . S
H1349 C1361 0.959 . S
H1350 C1364 0.929 . S
H1351 C1365 0.931 . S
H1352 C1367 0.930 . S
C1353 H1341 0.930 . S
C1353 C1354 1.399 . S
C1353 C1358 1.399 . S
C1354 C1353 1.399 . S
C1354 C1355 1.376 . S
C1355 H1342 0.930 . S
C1355 C1354 1.376 . S
C1355 C1356 1.388 . S
C1356 H1343 0.930 . S
C1356 C1355 1.388 . S
C1356 C1357 1.390 . S
C1357 C1356 1.390 . S
C1357 C1358 1.394 . S
C1357 C1363 1.465 . S
C1358 C1353 1.399 . S
C1358 C1357 1.394 . S
C1358 C1359 1.516 . S
C1359 C1358 1.516 . S
C1359 C1360 1.502 . S
C1359 C1361 1.561 . S
C1359 C1362 1.526 . S
C1360 H1344 0.959 . S
C1360 H1345 0.959 . S
C1360 H1346 0.961 . S
C1360 C1359 1.502 . S
C1361 H1347 0.960 . S
C1361 H1348 0.961 . S
C1361 H1349 0.959 . S
C1361 C1359 1.561 . S
C1362 C1359 1.526 . S
C1362 C1363 1.396 . S
C1362 C1367 1.390 . S
C1363 C1357 1.465 . S
C1363 C1362 1.396 . S
C1363 C1364 1.399 . S
C1364 H1350 0.929 . S
C1364 C1363 1.399 . S
C1364 C1365 1.385 . S
C1365 H1351 0.931 . S
C1365 C1364 1.385 . S
C1365 C1366 1.389 . S
C1366 C1365 1.389 . S
C1366 C1367 1.387 . S
C1367 H1352 0.930 . S
C1367 C1362 1.390 . S
C1367 C1366 1.387 . S
H1368 C1380 0.930 . S
H1369 C1382 0.930 . S
H1370 C1383 0.930 . S
H1371 C1387 0.959 . S
H1372 C1387 0.959 . S
H1373 C1387 0.961 . S
H1374 C1388 0.960 . S
H1375 C1388 0.961 . S
H1376 C1388 0.959 . S
H1377 C1391 0.929 . S
H1378 C1392 0.931 . S
H1379 C1394 0.930 . S
C1380 H1368 0.930 . S
C1380 C1381 1.399 . S
C1380 C1385 1.399 . S
C1381 C1380 1.399 . S
C1381 C1382 1.376 . S
C1382 H1369 0.930 . S
C1382 C1381 1.376 . S
C1382 C1383 1.388 . S
C1383 H1370 0.930 . S
C1383 C1382 1.388 . S
C1383 C1384 1.390 . S
C1384 C1383 1.390 . S
C1384 C1385 1.394 . S
C1384 C1390 1.465 . S
C1385 C1380 1.399 . S
C1385 C1384 1.394 . S
C1385 C1386 1.516 . S
C1386 C1385 1.516 . S
C1386 C1387 1.502 . S
C1386 C1388 1.561 . S
C1386 C1389 1.526 . S
C1387 H1371 0.959 . S
C1387 H1372 0.959 . S
C1387 H1373 0.961 . S
C1387 C1386 1.502 . S
C1388 H1374 0.960 . S
C1388 H1375 0.961 . S
C1388 H1376 0.959 . S
C1388 C1386 1.561 . S
C1389 C1386 1.526 . S
C1389 C1390 1.396 . S
C1389 C1394 1.390 . S
C1390 C1384 1.465 . S
C1390 C1389 1.396 . S
C1390 C1391 1.399 . S
C1391 H1377 0.929 . S
C1391 C1390 1.399 . S
C1391 C1392 1.385 . S
C1392 H1378 0.931 . S
C1392 C1391 1.385 . S
C1392 C1393 1.389 . S
C1393 C1392 1.389 . S
C1393 C1394 1.387 . S
C1394 H1379 0.930 . S
C1394 C1389 1.390 . S
C1394 C1393 1.387 . S
H1395 C1407 0.930 . S
H1396 C1409 0.930 . S
H1397 C1410 0.930 . S
H1398 C1414 0.959 . S
H1399 C1414 0.959 . S
H1400 C1414 0.961 . S
H1401 C1415 0.960 . S
H1402 C1415 0.961 . S
H1403 C1415 0.959 . S
H1404 C1418 0.929 . S
H1405 C1419 0.931 . S
H1406 C1421 0.930 . S
C1407 H1395 0.930 . S
C1407 C1408 1.399 . S
C1407 C1412 1.399 . S
C1408 C1407 1.399 . S
C1408 C1409 1.376 . S
C1409 H1396 0.930 . S
C1409 C1408 1.376 . S
C1409 C1410 1.388 . S
C1410 H1397 0.930 . S
C1410 C1409 1.388 . S
C1410 C1411 1.390 . S
C1411 C1410 1.390 . S
C1411 C1412 1.394 . S
C1411 C1417 1.465 . S
C1412 C1407 1.399 . S
C1412 C1411 1.394 . S
C1412 C1413 1.516 . S
C1413 C1412 1.516 . S
C1413 C1414 1.502 . S
C1413 C1415 1.561 . S
C1413 C1416 1.526 . S
C1414 H1398 0.959 . S
C1414 H1399 0.959 . S
C1414 H1400 0.961 . S
C1414 C1413 1.502 . S
C1415 H1401 0.960 . S
C1415 H1402 0.961 . S
C1415 H1403 0.959 . S
C1415 C1413 1.561 . S
C1416 C1413 1.526 . S
C1416 C1417 1.396 . S
C1416 C1421 1.390 . S
C1417 C1411 1.465 . S
C1417 C1416 1.396 . S
C1417 C1418 1.399 . S
C1418 H1404 0.929 . S
C1418 C1417 1.399 . S
C1418 C1419 1.385 . S
C1419 H1405 0.931 . S
C1419 C1418 1.385 . S
C1419 C1420 1.389 . S
C1420 C1419 1.389 . S
C1420 C1421 1.387 . S
C1421 H1406 0.930 . S
C1421 C1416 1.390 . S
C1421 C1420 1.387 . S
H1422 C1434 0.930 . S
H1423 C1436 0.930 . S
H1424 C1437 0.930 . S
H1425 C1441 0.959 . S
H1426 C1441 0.959 . S
H1427 C1441 0.961 . S
H1428 C1442 0.960 . S
H1429 C1442 0.961 . S
H1430 C1442 0.959 . S
H1431 C1445 0.929 . S
H1432 C1446 0.931 . S
H1433 C1448 0.930 . S
C1434 H1422 0.930 . S
C1434 C1435 1.399 . S
C1434 C1439 1.399 . S
C1435 C1434 1.399 . S
C1435 C1436 1.376 . S
C1436 H1423 0.930 . S
C1436 C1435 1.376 . S
C1436 C1437 1.388 . S
C1437 H1424 0.930 . S
C1437 C1436 1.388 . S
C1437 C1438 1.390 . S
C1438 C1437 1.390 . S
C1438 C1439 1.394 . S
C1438 C1444 1.465 . S
C1439 C1434 1.399 . S
C1439 C1438 1.394 . S
C1439 C1440 1.516 . S
C1440 C1439 1.516 . S
C1440 C1441 1.502 . S
C1440 C1442 1.561 . S
C1440 C1443 1.526 . S
C1441 H1425 0.959 . S
C1441 H1426 0.959 . S
C1441 H1427 0.961 . S
C1441 C1440 1.502 . S
C1442 H1428 0.960 . S
C1442 H1429 0.961 . S
C1442 H1430 0.959 . S
C1442 C1440 1.561 . S
C1443 C1440 1.526 . S
C1443 C1444 1.396 . S
C1443 C1448 1.390 . S
C1444 C1438 1.465 . S
C1444 C1443 1.396 . S
C1444 C1445 1.399 . S
C1445 H1431 0.929 . S
C1445 C1444 1.399 . S
C1445 C1446 1.385 . S
C1446 H1432 0.931 . S
C1446 C1445 1.385 . S
C1446 C1447 1.389 . S
C1447 C1446 1.389 . S
C1447 C1448 1.387 . S
C1448 H1433 0.930 . S
C1448 C1443 1.390 . S
C1448 C1447 1.387 . S
H1449 C1461 0.930 . S
H1450 C1463 0.930 . S
H1451 C1464 0.930 . S
H1452 C1468 0.959 1_554 S
H1453 C1468 0.966 . S
H1454 C1468 0.961 . S
H1455 C1469 0.960 . S
H1456 C1469 0.961 . S
H1457 C1469 0.959 . S
H1458 C1472 0.929 . S
H1459 C1473 0.934 . S
H1460 C1475 0.930 . S
C1461 H1449 0.930 . S
C1461 C1462 1.399 . S
C1461 C1466 1.399 . S
C1462 C1461 1.399 . S
C1462 C1463 1.376 . S
C1463 H1450 0.930 . S
C1463 C1462 1.376 . S
C1463 C1464 1.388 . S
C1464 H1451 0.930 . S
C1464 C1463 1.388 . S
C1464 C1465 1.390 . S
C1465 C1464 1.390 . S
C1465 C1466 1.394 . S
C1465 C1471 1.465 . S
C1466 C1461 1.399 . S
C1466 C1465 1.394 . S
C1466 C1467 1.516 . S
C1467 C1466 1.516 . S
C1467 C1468 1.502 . S
C1467 C1469 1.561 . S
C1467 C1470 1.526 . S
C1468 H1452 0.959 1_556 S
C1468 H1453 0.966 . S
C1468 H1454 0.961 . S
C1468 C1467 1.502 . S
C1469 H1455 0.960 . S
C1469 H1456 0.961 . S
C1469 H1457 0.959 . S
C1469 C1467 1.561 . S
C1470 C1467 1.526 . S
C1470 C1471 1.396 . S
C1470 C1475 1.390 1_556 S
C1471 C1465 1.465 . S
C1471 C1470 1.396 . S
C1471 C1472 1.399 . S
C1472 H1458 0.929 . S
C1472 C1471 1.399 . S
C1472 C1473 1.379 1_556 S
C1473 H1459 0.934 . S
C1473 C1472 1.379 1_554 S
C1473 C1474 1.393 . S
C1474 C1473 1.393 . S
C1474 C1475 1.387 . S
C1475 H1460 0.930 . S
C1475 C1470 1.390 1_554 S
C1475 C1474 1.387 . S
H1476 C1488 0.930 . S
H1477 C1490 0.930 . S
H1478 C1491 0.930 . S
H1479 C1495 0.953 1_556 S
H1480 C1495 0.969 . S
H1481 C1495 0.960 1_556 S
H1482 C1496 0.960 . S
H1483 C1496 0.961 . S
H1484 C1496 0.959 . S
H1485 C1499 0.929 . S
H1486 C1500 0.931 . S
H1487 C1502 0.930 . S
C1488 H1476 0.930 . S
C1488 C1489 1.399 . S
C1488 C1493 1.399 . S
C1489 C1488 1.399 . S
C1489 C1490 1.376 . S
C1490 H1477 0.930 . S
C1490 C1489 1.376 . S
C1490 C1491 1.388 . S
C1491 H1478 0.930 . S
C1491 C1490 1.388 . S
C1491 C1492 1.390 . S
C1492 C1491 1.390 . S
C1492 C1493 1.394 . S
C1492 C1498 1.465 . S
C1493 C1488 1.399 . S
C1493 C1492 1.394 . S
C1493 C1494 1.516 . S
C1494 C1493 1.516 . S
C1494 C1495 1.500 1_556 S
C1494 C1496 1.561 1_556 S
C1494 C1497 1.526 . S
C1495 H1479 0.953 1_554 S
C1495 H1480 0.969 . S
C1495 H1481 0.960 1_554 S
C1495 C1494 1.500 1_554 S
C1496 H1482 0.960 . S
C1496 H1483 0.961 . S
C1496 H1484 0.959 . S
C1496 C1494 1.561 1_554 S
C1497 C1494 1.526 . S
C1497 C1498 1.396 . S
C1497 C1502 1.390 1_556 S
C1498 C1492 1.465 . S
C1498 C1497 1.396 . S
C1498 C1499 1.399 . S
C1499 H1485 0.929 . S
C1499 C1498 1.399 . S
C1499 C1500 1.385 . S
C1500 H1486 0.931 . S
C1500 C1499 1.385 . S
C1500 C1501 1.389 1_556 S
C1501 C1500 1.389 1_554 S
C1501 C1502 1.387 . S
C1502 H1487 0.930 . S
C1502 C1497 1.390 1_554 S
C1502 C1501 1.387 . S
H1503 C1515 0.930 . S
H1504 C1517 0.930 . S
H1505 C1518 0.930 . S
H1506 C1522 0.959 . S
H1507 C1522 0.959 . S
H1508 C1522 0.961 . S
H1509 C1523 0.960 . S
H1510 C1523 0.961 . S
H1511 C1523 0.959 . S
H1512 C1526 0.929 . S
H1513 C1527 0.931 . S
H1514 C1529 0.930 . S
C1515 H1503 0.930 . S
C1515 C1516 1.399 . S
C1515 C1520 1.399 . S
C1516 C1515 1.399 . S
C1516 C1517 1.376 . S
C1517 H1504 0.930 . S
C1517 C1516 1.376 . S
C1517 C1518 1.388 . S
C1518 H1505 0.930 . S
C1518 C1517 1.388 . S
C1518 C1519 1.390 . S
C1519 C1518 1.390 . S
C1519 C1520 1.394 . S
C1519 C1525 1.465 . S
C1520 C1515 1.399 . S
C1520 C1519 1.394 . S
C1520 C1521 1.516 . S
C1521 C1520 1.516 . S
C1521 C1522 1.502 . S
C1521 C1523 1.561 . S
C1521 C1524 1.526 . S
C1522 H1506 0.959 . S
C1522 H1507 0.959 . S
C1522 H1508 0.961 . S
C1522 C1521 1.502 . S
C1523 H1509 0.960 . S
C1523 H1510 0.961 . S
C1523 H1511 0.959 . S
C1523 C1521 1.561 . S
C1524 C1521 1.526 . S
C1524 C1525 1.396 . S
C1524 C1529 1.390 . S
C1525 C1519 1.465 . S
C1525 C1524 1.396 . S
C1525 C1526 1.399 1_556 S
C1526 H1512 0.929 . S
C1526 C1525 1.399 1_554 S
C1526 C1527 1.385 . S
C1527 H1513 0.931 . S
C1527 C1526 1.385 . S
C1527 C1528 1.389 . S
C1528 C1527 1.389 . S
C1528 C1529 1.387 1_554 S
C1529 H1514 0.930 . S
C1529 C1524 1.390 . S
C1529 C1528 1.387 1_556 S
H1530 C1542 0.930 . S
H1531 C1544 0.930 . S
H1532 C1545 0.930 . S
H1533 C1549 0.959 . S
H1534 C1549 0.959 . S
H1535 C1549 0.961 . S
H1536 C1550 0.960 . S
H1537 C1550 0.961 . S
H1538 C1550 0.959 . S
H1539 C1553 0.929 . S
H1540 C1554 0.931 . S
H1541 C1556 0.930 . S
C1542 H1530 0.930 . S
C1542 C1543 1.399 . S
C1542 C1547 1.399 . S
C1543 C1542 1.399 . S
C1543 C1544 1.376 . S
C1544 H1531 0.930 . S
C1544 C1543 1.376 . S
C1544 C1545 1.388 . S
C1545 H1532 0.930 . S
C1545 C1544 1.388 . S
C1545 C1546 1.390 . S
C1546 C1545 1.390 . S
C1546 C1547 1.394 . S
C1546 C1552 1.465 . S
C1547 C1542 1.399 . S
C1547 C1546 1.394 . S
C1547 C1548 1.516 . S
C1548 C1547 1.516 . S
C1548 C1549 1.502 . S
C1548 C1550 1.561 . S
C1548 C1551 1.526 . S
C1549 H1533 0.959 . S
C1549 H1534 0.959 . S
C1549 H1535 0.961 . S
C1549 C1548 1.502 . S
C1550 H1536 0.960 . S
C1550 H1537 0.961 . S
C1550 H1538 0.959 . S
C1550 C1548 1.561 . S
C1551 C1548 1.526 . S
C1551 C1552 1.396 . S
C1551 C1556 1.390 . S
C1552 C1546 1.465 . S
C1552 C1551 1.396 . S
C1552 C1553 1.399 . S
C1553 H1539 0.929 . S
C1553 C1552 1.399 . S
C1553 C1554 1.385 . S
C1554 H1540 0.931 . S
C1554 C1553 1.385 . S
C1554 C1555 1.389 . S
C1555 C1554 1.389 . S
C1555 C1556 1.387 . S
C1556 H1541 0.930 . S
C1556 C1551 1.390 . S
C1556 C1555 1.387 . S
H1557 C1569 0.930 . S
H1558 C1571 0.930 . S
H1559 C1572 0.930 . S
H1560 C1576 0.959 . S
H1561 C1576 0.959 . S
H1562 C1576 0.961 . S
H1563 C1577 0.960 . S
H1564 C1577 0.961 . S
H1565 C1577 0.959 . S
H1566 C1580 0.929 . S
H1567 C1581 0.931 . S
H1568 C1583 0.930 . S
C1569 H1557 0.930 . S
C1569 C1570 1.399 . S
C1569 C1574 1.399 . S
C1570 C1569 1.399 . S
C1570 C1571 1.376 . S
C1571 H1558 0.930 . S
C1571 C1570 1.376 . S
C1571 C1572 1.388 . S
C1572 H1559 0.930 . S
C1572 C1571 1.388 . S
C1572 C1573 1.390 . S
C1573 C1572 1.390 . S
C1573 C1574 1.394 . S
C1573 C1579 1.465 . S
C1574 C1569 1.399 . S
C1574 C1573 1.394 . S
C1574 C1575 1.516 . S
C1575 C1574 1.516 . S
C1575 C1576 1.502 . S
C1575 C1577 1.561 . S
C1575 C1578 1.526 . S
C1576 H1560 0.959 . S
C1576 H1561 0.959 . S
C1576 H1562 0.961 . S
C1576 C1575 1.502 . S
C1577 H1563 0.960 . S
C1577 H1564 0.961 . S
C1577 H1565 0.959 . S
C1577 C1575 1.561 . S
C1578 C1575 1.526 . S
C1578 C1579 1.396 . S
C1578 C1583 1.390 . S
C1579 C1573 1.465 . S
C1579 C1578 1.396 . S
C1579 C1580 1.399 . S
C1580 H1566 0.929 . S
C1580 C1579 1.399 . S
C1580 C1581 1.385 . S
C1581 H1567 0.931 . S
C1581 C1580 1.385 . S
C1581 C1582 1.389 . S
C1582 C1581 1.389 . S
C1582 C1583 1.387 . S
C1583 H1568 0.930 . S
C1583 C1578 1.390 . S
C1583 C1582 1.387 . S
H1584 C1596 0.930 . S
H1585 C1598 0.930 . S
H1586 C1599 0.930 . S
H1587 C1603 0.959 . S
H1588 C1603 0.959 . S
H1589 C1603 0.961 . S
H1590 C1604 0.960 . S
H1591 C1604 0.961 . S
H1592 C1604 0.959 . S
H1593 C1607 0.929 . S
H1594 C1608 0.931 . S
H1595 C1610 0.930 . S
C1596 H1584 0.930 . S
C1596 C1597 1.399 . S
C1596 C1601 1.399 . S
C1597 C1596 1.399 . S
C1597 C1598 1.376 . S
C1598 H1585 0.930 . S
C1598 C1597 1.376 . S
C1598 C1599 1.388 . S
C1599 H1586 0.930 . S
C1599 C1598 1.388 . S
C1599 C1600 1.390 . S
C1600 C1599 1.390 . S
C1600 C1601 1.394 . S
C1600 C1606 1.465 . S
C1601 C1596 1.399 . S
C1601 C1600 1.394 . S
C1601 C1602 1.516 . S
C1602 C1601 1.516 . S
C1602 C1603 1.502 . S
C1602 C1604 1.561 . S
C1602 C1605 1.526 . S
C1603 H1587 0.959 . S
C1603 H1588 0.959 . S
C1603 H1589 0.961 . S
C1603 C1602 1.502 . S
C1604 H1590 0.960 . S
C1604 H1591 0.961 . S
C1604 H1592 0.959 . S
C1604 C1602 1.561 . S
C1605 C1602 1.526 . S
C1605 C1606 1.396 . S
C1605 C1610 1.390 . S
C1606 C1600 1.465 . S
C1606 C1605 1.396 . S
C1606 C1607 1.399 . S
C1607 H1593 0.929 . S
C1607 C1606 1.399 . S
C1607 C1608 1.385 . S
C1608 H1594 0.931 . S
C1608 C1607 1.385 . S
C1608 C1609 1.389 . S
C1609 C1608 1.389 . S
C1609 C1610 1.387 . S
C1610 H1595 0.930 . S
C1610 C1605 1.390 . S
C1610 C1609 1.387 . S
H1611 C1623 0.930 . S
H1612 C1625 0.930 . S
H1613 C1626 0.930 . S
H1614 C1630 0.959 . S
H1615 C1630 0.959 . S
H1616 C1630 0.961 . S
H1617 C1631 0.960 1_556 S
H1618 C1631 0.961 . S
H1619 C1631 0.959 . S
H1620 C1634 0.929 . S
H1621 C1635 0.931 . S
H1622 C1637 0.930 . S
C1623 H1611 0.930 . S
C1623 C1624 1.399 . S
C1623 C1628 1.399 1_556 S
C1624 C1623 1.399 . S
C1624 C1625 1.376 1_556 S
C1625 H1612 0.930 . S
C1625 C1624 1.376 1_554 S
C1625 C1626 1.388 . S
C1626 H1613 0.930 . S
C1626 C1625 1.388 . S
C1626 C1627 1.390 . S
C1627 C1626 1.390 . S
C1627 C1628 1.394 . S
C1627 C1633 1.465 . S
C1628 C1623 1.399 1_554 S
C1628 C1627 1.394 . S
C1628 C1629 1.516 . S
C1629 C1628 1.516 . S
C1629 C1630 1.502 1_554 S
C1629 C1631 1.561 . S
C1629 C1632 1.526 . S
C1630 H1614 0.959 . S
C1630 H1615 0.959 . S
C1630 H1616 0.961 . S
C1630 C1629 1.502 1_556 S
C1631 H1617 0.960 1_554 S
C1631 H1618 0.961 . S
C1631 H1619 0.959 . S
C1631 C1629 1.561 . S
C1632 C1629 1.526 . S
C1632 C1633 1.396 . S
C1632 C1637 1.390 . S
C1633 C1627 1.465 . S
C1633 C1632 1.396 . S
C1633 C1634 1.399 . S
C1634 H1620 0.929 . S
C1634 C1633 1.399 . S
C1634 C1635 1.385 . S
C1635 H1621 0.931 . S
C1635 C1634 1.385 . S
C1635 C1636 1.389 . S
C1636 C1635 1.389 . S
C1636 C1637 1.387 . S
C1637 H1622 0.930 . S
C1637 C1632 1.390 . S
C1637 C1636 1.387 . S
H1638 C1650 0.930 . S
H1639 C1652 0.930 . S
H1640 C1653 0.930 . S
H1641 C1657 0.959 1_556 S
H1642 C1657 0.959 1_556 S
H1643 C1657 0.961 . S
H1644 C1658 0.960 . S
H1645 C1658 0.961 . S
H1646 C1658 0.959 . S
H1647 C1661 0.929 . S
H1648 C1662 0.928 1_556 S
H1649 C1664 0.930 . S
C1650 H1638 0.930 . S
C1650 C1651 1.399 . S
C1650 C1655 1.399 . S
C1651 C1650 1.399 . S
C1651 C1652 1.376 . S
C1652 H1639 0.930 . S
C1652 C1651 1.376 . S
C1652 C1653 1.388 . S
C1653 H1640 0.930 . S
C1653 C1652 1.388 . S
C1653 C1654 1.390 . S
C1654 C1653 1.390 . S
C1654 C1655 1.394 . S
C1654 C1660 1.465 . S
C1655 C1650 1.399 . S
C1655 C1654 1.394 . S
C1655 C1656 1.516 . S
C1656 C1655 1.516 . S
C1656 C1657 1.502 . S
C1656 C1658 1.561 . S
C1656 C1659 1.526 . S
C1657 H1641 0.959 1_554 S
C1657 H1642 0.959 1_554 S
C1657 H1643 0.961 . S
C1657 C1656 1.502 . S
C1658 H1644 0.960 . S
C1658 H1645 0.961 . S
C1658 H1646 0.959 . S
C1658 C1656 1.561 . S
C1659 C1656 1.526 . S
C1659 C1660 1.396 . S
C1659 C1664 1.390 1_554 S
C1660 C1654 1.465 . S
C1660 C1659 1.396 . S
C1660 C1661 1.399 . S
C1661 H1647 0.929 . S
C1661 C1660 1.399 . S
C1661 C1662 1.392 . S
C1662 H1648 0.928 1_554 S
C1662 C1661 1.392 . S
C1662 C1663 1.386 1_554 S
C1663 C1662 1.386 1_556 S
C1663 C1664 1.387 . S
C1664 H1649 0.930 . S
C1664 C1659 1.390 1_556 S
C1664 C1663 1.387 . S
H1665 C1677 0.930 . S
H1666 C1679 0.930 . S
H1667 C1680 0.930 . S
H1668 C1684 0.956 1_554 S
H1669 C1684 0.959 . S
H1670 C1684 0.961 . S
H1671 C1685 0.960 . S
H1672 C1685 0.961 . S
H1673 C1685 0.959 . S
H1674 C1688 0.929 . S
H1675 C1689 0.931 . S
H1676 C1691 0.930 . S
C1677 H1665 0.930 . S
C1677 C1678 1.399 . S
C1677 C1682 1.399 . S
C1678 C1677 1.399 . S
C1678 C1679 1.376 . S
C1679 H1666 0.930 . S
C1679 C1678 1.376 . S
C1679 C1680 1.388 . S
C1680 H1667 0.930 . S
C1680 C1679 1.388 . S
C1680 C1681 1.390 . S
C1681 C1680 1.390 . S
C1681 C1682 1.394 . S
C1681 C1687 1.465 . S
C1682 C1677 1.399 . S
C1682 C1681 1.394 . S
C1682 C1683 1.516 . S
C1683 C1682 1.516 . S
C1683 C1684 1.502 1_554 S
C1683 C1685 1.561 1_554 S
C1683 C1686 1.526 . S
C1684 H1668 0.956 1_556 S
C1684 H1669 0.959 . S
C1684 H1670 0.961 . S
C1684 C1683 1.502 1_556 S
C1685 H1671 0.960 . S
C1685 H1672 0.961 . S
C1685 H1673 0.959 . S
C1685 C1683 1.561 1_556 S
C1686 C1683 1.526 . S
C1686 C1687 1.396 . S
C1686 C1691 1.390 1_554 S
C1687 C1681 1.465 . S
C1687 C1686 1.396 . S
C1687 C1688 1.399 . S
C1688 H1674 0.929 . S
C1688 C1687 1.399 . S
C1688 C1689 1.385 . S
C1689 H1675 0.931 . S
C1689 C1688 1.385 . S
C1689 C1690 1.389 1_554 S
C1690 C1689 1.389 1_556 S
C1690 C1691 1.387 . S
C1691 H1676 0.930 . S
C1691 C1686 1.390 1_556 S
C1691 C1690 1.387 . S
H1692 C1704 0.930 . S
H1693 C1706 0.930 . S
H1694 C1707 0.930 . S
H1695 C1711 0.959 . S
H1696 C1711 0.959 . S
H1697 C1711 0.961 . S
H1698 C1712 0.960 . S
H1699 C1712 0.961 . S
H1700 C1712 0.959 . S
H1701 C1715 0.929 1_655 S
H1702 C1716 0.931 . S
H1703 C1718 0.930 . S
C1704 H1692 0.930 . S
C1704 C1705 1.399 . S
C1704 C1709 1.399 . S
C1705 C1704 1.399 . S
C1705 C1706 1.376 . S
C1706 H1693 0.930 . S
C1706 C1705 1.376 . S
C1706 C1707 1.388 . S
C1707 H1694 0.930 . S
C1707 C1706 1.388 . S
C1707 C1708 1.390 . S
C1708 C1707 1.390 . S
C1708 C1709 1.394 . S
C1708 C1714 1.465 1_655 S
C1709 C1704 1.399 . S
C1709 C1708 1.394 . S
C1709 C1710 1.516 1_655 S
C1710 C1709 1.516 1_455 S
C1710 C1711 1.502 . S
C1710 C1712 1.561 . S
C1710 C1713 1.526 . S
C1711 H1695 0.959 . S
C1711 H1696 0.959 . S
C1711 H1697 0.961 . S
C1711 C1710 1.502 . S
C1712 H1698 0.960 . S
C1712 H1699 0.961 . S
C1712 H1700 0.959 . S
C1712 C1710 1.561 . S
C1713 C1710 1.526 . S
C1713 C1714 1.396 . S
C1713 C1718 1.390 . S
C1714 C1708 1.465 1_455 S
C1714 C1713 1.396 . S
C1714 C1715 1.399 . S
C1715 H1701 0.929 1_455 S
C1715 C1714 1.399 . S
C1715 C1716 1.385 . S
C1716 H1702 0.931 . S
C1716 C1715 1.385 . S
C1716 C1717 1.389 . S
C1717 C1716 1.389 . S
C1717 C1718 1.387 . S
C1718 H1703 0.930 . S
C1718 C1713 1.390 . S
C1718 C1717 1.387 . S
H1719 C1731 0.930 . S
H1720 C1733 0.930 . S
H1721 C1734 0.930 . S
H1722 C1738 0.959 . S
H1723 C1738 0.959 . S
H1724 C1738 0.961 . S
H1725 C1739 0.960 . S
H1726 C1739 0.961 . S
H1727 C1739 0.959 . S
H1728 C1742 0.929 . S
H1729 C1743 0.931 . S
H1730 C1745 0.930 . S
C1731 H1719 0.930 . S
C1731 C1732 1.399 . S
C1731 C1736 1.399 . S
C1732 C1731 1.399 . S
C1732 C1733 1.376 . S
C1733 H1720 0.930 . S
C1733 C1732 1.376 . S
C1733 C1734 1.388 . S
C1734 H1721 0.930 . S
C1734 C1733 1.388 . S
C1734 C1735 1.390 . S
C1735 C1734 1.390 . S
C1735 C1736 1.394 . S
C1735 C1741 1.465 . S
C1736 C1731 1.399 . S
C1736 C1735 1.394 . S
C1736 C1737 1.516 . S
C1737 C1736 1.516 . S
C1737 C1738 1.502 . S
C1737 C1739 1.561 . S
C1737 C1740 1.526 . S
C1738 H1722 0.959 . S
C1738 H1723 0.959 . S
C1738 H1724 0.961 . S
C1738 C1737 1.502 . S
C1739 H1725 0.960 . S
C1739 H1726 0.961 . S
C1739 H1727 0.959 . S
C1739 C1737 1.561 . S
C1740 C1737 1.526 . S
C1740 C1741 1.396 . S
C1740 C1745 1.390 . S
C1741 C1735 1.465 . S
C1741 C1740 1.396 . S
C1741 C1742 1.399 . S
C1742 H1728 0.929 . S
C1742 C1741 1.399 . S
C1742 C1743 1.385 . S
C1743 H1729 0.931 . S
C1743 C1742 1.385 . S
C1743 C1744 1.389 . S
C1744 C1743 1.389 . S
C1744 C1745 1.387 . S
C1745 H1730 0.930 . S
C1745 C1740 1.390 . S
C1745 C1744 1.387 . S
H1746 C1758 0.930 . S
H1747 C1760 0.930 . S
H1748 C1761 0.930 . S
H1749 C1765 0.959 . S
H1750 C1765 0.959 . S
H1751 C1765 0.961 . S
H1752 C1766 0.960 . S
H1753 C1766 0.961 . S
H1754 C1766 0.959 . S
H1755 C1769 0.890 1_565 S
H1756 C1770 0.931 . S
H1757 C1772 0.930 . S
C1758 H1746 0.930 . S
C1758 C1759 1.399 . S
C1758 C1763 1.399 . S
C1759 C1758 1.399 . S
C1759 C1760 1.376 . S
C1760 H1747 0.930 . S
C1760 C1759 1.376 . S
C1760 C1761 1.388 . S
C1761 H1748 0.930 . S
C1761 C1760 1.388 . S
C1761 C1762 1.390 . S
C1762 C1761 1.390 . S
C1762 C1763 1.394 . S
C1762 C1768 1.465 1_565 S
C1763 C1758 1.399 . S
C1763 C1762 1.394 . S
C1763 C1764 1.516 1_565 S
C1764 C1763 1.516 1_545 S
C1764 C1765 1.502 . S
C1764 C1766 1.561 . S
C1764 C1767 1.526 . S
C1765 H1749 0.959 . S
C1765 H1750 0.959 . S
C1765 H1751 0.961 . S
C1765 C1764 1.502 . S
C1766 H1752 0.960 . S
C1766 H1753 0.961 . S
C1766 H1754 0.959 . S
C1766 C1764 1.561 . S
C1767 C1764 1.526 . S
C1767 C1768 1.396 . S
C1767 C1772 1.390 . S
C1768 C1762 1.465 1_545 S
C1768 C1767 1.396 . S
C1768 C1769 1.399 . S
C1769 H1755 0.890 1_545 S
C1769 C1768 1.399 . S
C1769 C1770 1.385 . S
C1770 H1756 0.931 . S
C1770 C1769 1.385 . S
C1770 C1771 1.389 . S
C1771 C1770 1.389 . S
C1771 C1772 1.387 . S
C1772 H1757 0.930 . S
C1772 C1767 1.390 . S
C1772 C1771 1.387 . S
H1773 C1785 0.930 . S
H1774 C1787 0.930 . S
H1775 C1788 0.930 . S
H1776 C1792 0.959 . S
H1777 C1792 0.959 . S
H1778 C1792 0.961 . S
H1779 C1793 0.960 . S
H1780 C1793 0.961 . S
H1781 C1793 0.959 . S
H1782 C1796 0.929 1_565 S
H1783 C1797 0.931 . S
H1784 C1799 0.930 . S
C1785 H1773 0.930 . S
C1785 C1786 1.399 . S
C1785 C1790 1.399 . S
C1786 C1785 1.399 . S
C1786 C1787 1.376 . S
C1787 H1774 0.930 . S
C1787 C1786 1.376 . S
C1787 C1788 1.388 . S
C1788 H1775 0.930 . S
C1788 C1787 1.388 . S
C1788 C1789 1.390 . S
C1789 C1788 1.390 . S
C1789 C1790 1.394 . S
C1789 C1795 1.465 1_565 S
C1790 C1785 1.399 . S
C1790 C1789 1.394 . S
C1790 C1791 1.516 1_565 S
C1791 C1790 1.516 1_545 S
C1791 C1792 1.502 . S
C1791 C1793 1.561 . S
C1791 C1794 1.526 . S
C1792 H1776 0.959 . S
C1792 H1777 0.959 . S
C1792 H1778 0.961 . S
C1792 C1791 1.502 . S
C1793 H1779 0.960 . S
C1793 H1780 0.961 . S
C1793 H1781 0.959 . S
C1793 C1791 1.561 . S
C1794 C1791 1.526 . S
C1794 C1795 1.396 . S
C1794 C1799 1.390 . S
C1795 C1789 1.465 1_545 S
C1795 C1794 1.396 . S
C1795 C1796 1.399 . S
C1796 H1782 0.929 1_545 S
C1796 C1795 1.399 . S
C1796 C1797 1.385 . S
C1797 H1783 0.931 . S
C1797 C1796 1.385 . S
C1797 C1798 1.389 . S
C1798 C1797 1.389 . S
C1798 C1799 1.387 . S
C1799 H1784 0.930 . S
C1799 C1794 1.390 . S
C1799 C1798 1.387 . S
H1800 C1812 0.930 . S
H1801 C1814 0.930 . S
H1802 C1815 0.930 . S
H1803 C1819 0.939 1_655 S
H1804 C1819 0.920 1_655 S
H1805 C1819 0.984 . S
H1806 C1820 0.960 . S
H1807 C1820 0.961 . S
H1808 C1820 0.959 . S
H1809 C1823 0.929 . S
H1810 C1824 0.931 . S
H1811 C1826 0.930 . S
C1812 H1800 0.930 . S
C1812 C1813 1.399 . S
C1812 C1817 1.399 . S
C1813 C1812 1.399 . S
C1813 C1814 1.376 . S
C1814 H1801 0.930 . S
C1814 C1813 1.376 . S
C1814 C1815 1.388 . S
C1815 H1802 0.930 . S
C1815 C1814 1.388 . S
C1815 C1816 1.390 . S
C1816 C1815 1.390 . S
C1816 C1817 1.394 . S
C1816 C1822 1.465 1_455 S
C1817 C1812 1.399 . S
C1817 C1816 1.394 . S
C1817 C1818 1.516 . S
C1818 C1817 1.516 . S
C1818 C1819 1.542 . S
C1818 C1820 1.561 . S
C1818 C1821 1.526 1_455 S
C1819 H1803 0.939 1_455 S
C1819 H1804 0.920 1_455 S
C1819 H1805 0.984 . S
C1819 C1818 1.542 . S
C1820 H1806 0.960 . S
C1820 H1807 0.961 . S
C1820 H1808 0.959 . S
C1820 C1818 1.561 . S
C1821 C1818 1.526 1_655 S
C1821 C1822 1.396 . S
C1821 C1826 1.390 . S
C1822 C1816 1.465 1_655 S
C1822 C1821 1.396 . S
C1822 C1823 1.399 . S
C1823 H1809 0.929 . S
C1823 C1822 1.399 . S
C1823 C1824 1.385 . S
C1824 H1810 0.931 . S
C1824 C1823 1.385 . S
C1824 C1825 1.389 . S
C1825 C1824 1.389 . S
C1825 C1826 1.387 . S
C1826 H1811 0.930 . S
C1826 C1821 1.390 . S
C1826 C1825 1.387 . S
H1827 C1839 0.930 . S
H1828 C1841 0.930 . S
H1829 C1842 0.930 . S
H1830 C1846 0.959 . S
H1831 C1846 0.959 . S
H1832 C1846 0.961 . S
H1833 C1847 0.960 . S
H1834 C1847 0.961 . S
H1835 C1847 0.959 . S
H1836 C1850 0.929 . S
H1837 C1851 0.931 . S
H1838 C1853 0.930 . S
C1839 H1827 0.930 . S
C1839 C1840 1.399 . S
C1839 C1844 1.399 . S
C1840 C1839 1.399 . S
C1840 C1841 1.376 . S
C1841 H1828 0.930 . S
C1841 C1840 1.376 . S
C1841 C1842 1.388 . S
C1842 H1829 0.930 . S
C1842 C1841 1.388 . S
C1842 C1843 1.390 . S
C1843 C1842 1.390 . S
C1843 C1844 1.394 . S
C1843 C1849 1.465 . S
C1844 C1839 1.399 . S
C1844 C1843 1.394 . S
C1844 C1845 1.516 . S
C1845 C1844 1.516 . S
C1845 C1846 1.502 . S
C1845 C1847 1.561 . S
C1845 C1848 1.526 . S
C1846 H1830 0.959 . S
C1846 H1831 0.959 . S
C1846 H1832 0.961 . S
C1846 C1845 1.502 . S
C1847 H1833 0.960 . S
C1847 H1834 0.961 . S
C1847 H1835 0.959 . S
C1847 C1845 1.561 . S
C1848 C1845 1.526 . S
C1848 C1849 1.396 . S
C1848 C1853 1.390 . S
C1849 C1843 1.465 . S
C1849 C1848 1.396 . S
C1849 C1850 1.399 . S
C1850 H1836 0.929 . S
C1850 C1849 1.399 . S
C1850 C1851 1.385 . S
C1851 H1837 0.931 . S
C1851 C1850 1.385 . S
C1851 C1852 1.389 . S
C1852 C1851 1.389 . S
C1852 C1853 1.387 . S
C1853 H1838 0.930 . S
C1853 C1848 1.390 . S
C1853 C1852 1.387 . S
C409 C4 1.309 . S
C421 C94 1.280 . S
C436 C114 1.294 . S
C448 C28 1.308 . S
C463 C48 1.322 . S
C475 C70 1.300 . S
C490 C51 1.319 . S
C502 C96 1.294 . S
C517 C117 1.331 . S
C529 C7 1.328 . S
C544 C30 1.305 . S
C556 C73 1.280 . S
C571 C31 1.277 . S
C583 C74 1.305 . S
C598 C52 1.304 . S
C610 C97 1.320 . S
C625 C118 1.307 . S
C637 C8 1.286 . S
C652 C115 1.306 . S
C664 C26 1.282 . S
C679 C49 1.300 . S
C691 C71 1.314 . S
C706 C5 1.277 . S
C718 C92 1.305 . S
C733 C226 1.311 . S
C745 C136 1.327 . S
C760 C158 1.319 . S
C772 C248 1.318 . S
C787 C180 1.332 . S
C799 C204 1.329 . S
C814 C228 1.281 . S
C826 C183 1.311 . S
C841 C250 1.280 . S
C853 C139 1.310 . S
C868 C206 1.332 . S
C880 C161 1.331 . S
C895 C162 1.281 . S
C907 C207 1.306 . S
C922 C184 1.299 . S
C934 C229 1.313 . S
C949 C140 1.313 . S
C961 C251 1.320 . S
C976 C159 1.283 . S
C988 C246 1.309 . S
C1003 C181 1.324 . S
C1015 C202 1.329 . S
C1030 C224 1.314 . S
C1042 C137 1.292 . S
C1057 C268 1.306 . S
C1069 C358 1.278 . S
C1084 C292 1.315 . S
C1096 C380 1.288 . S
C1111 C334 1.285 . S
C1123 C312 1.314 . S
C1138 C360 1.277 . S
C1150 C315 1.307 . S
C1165 C271 1.328 . S
C1177 C382 1.313 . S
C1192 C294 1.315 . S
C1204 C337 1.288 . S
C1219 C295 1.277 . S
C1231 C338 1.305 . S
C1246 C316 1.329 . S
C1258 C361 1.331 . S
C1273 C272 1.294 . S
C1285 C383 1.311 . S
C1300 C378 1.306 . S
C1312 C290 1.283 . S
C1327 C335 1.305 . S
C1339 C313 1.279 . S
C1354 C269 1.288 . S
C1366 C356 1.312 . S
C1381 C6 1.799 . S
C1393 C293 1.838 . S
C1408 C27 1.850 . S
C1420 C317 1.826 . S
C1435 C50 1.784 . S
C1447 C273 1.825 . S
C1462 C53 1.849 . S
C1474 C160 1.832 . S
C1489 C9 1.801 . S
C1501 C182 1.773 . S
C1516 C29 1.787 . S
C1528 C138 1.828 . S
C1543 C225 1.771 . S
C1555 C75 1.815 . S
C1570 C95 1.778 . S
C1582 C247 1.837 . S
C1597 C119 1.823 . S
C1609 C203 1.845 . S
C1624 C359 1.780 . S
C1636 C116 1.840 . S
C1651 C72 1.800 . S
C1663 C381 1.775 . S
C1678 C93 1.849 . S
C1690 C339 1.797 . S
C1705 C185 1.794 . S
C1717 C291 1.835 . S
C1732 C141 1.835 . S
C1744 C314 1.849 . S
C1759 C270 1.814 . S
C1771 C163 1.846 . S
C1786 C357 1.771 . S
C1798 C205 1.821 . S
C1813 C379 1.834 . S
C1825 C227 1.838 . S
C1840 C249 1.821 . S
C1852 C336 1.772 . S
