# Generated by pormake.
# Topology lcy-a, (4)-cn, num edge types: 1
# Building blocks:
#     Node 0, Type 0, BuildingBlock: KUFVIS_clean_sbu_0, # of connection points: 4
#     Node 1, Type 0, BuildingBlock: KUFVIS_clean_sbu_0, # of connection points: 4
#     Node 2, Type 0, BuildingBlock: KUFVIS_clean_sbu_0, # of connection points: 4
#     Node 3, Type 0, BuildingBlock: KUFVIS_clean_sbu_0, # of connection points: 4
#     Node 4, Type 0, BuildingBlock: KUFVIS_clean_sbu_0, # of connection points: 4
#     Node 5, Type 0, BuildingBlock: KUFVIS_clean_sbu_0, # of connection points: 4
#     Node 6, Type 0, BuildingBlock: KUFVIS_clean_sbu_0, # of connection points: 4
#     Node 7, Type 0, BuildingBlock: KUFVIS_clean_sbu_0, # of connection points: 4
#     Node 8, Type 0, BuildingBlock: KUFVIS_clean_sbu_0, # of connection points: 4
#     Node 9, Type 0, BuildingBlock: KUFVIS_clean_sbu_0, # of connection points: 4
#     Node 10, Type 0, BuildingBlock: KUFVIS_clean_sbu_0, # of connection points: 4
#     Node 11, Type 0, BuildingBlock: KUFVIS_clean_sbu_0, # of connection points: 4
#     Node 12, Type 0, BuildingBlock: KUFVIS_clean_sbu_0, # of connection points: 4
#     Node 13, Type 0, BuildingBlock: KUFVIS_clean_sbu_0, # of connection points: 4
#     Node 14, Type 0, BuildingBlock: KUFVIS_clean_sbu_0, # of connection points: 4
#     Node 15, Type 0, BuildingBlock: KUFVIS_clean_sbu_0, # of connection points: 4
#     Node 16, Type 0, BuildingBlock: KUFVIS_clean_sbu_0, # of connection points: 4
#     Node 17, Type 0, BuildingBlock: KUFVIS_clean_sbu_0, # of connection points: 4
#     Node 18, Type 0, BuildingBlock: KUFVIS_clean_sbu_0, # of connection points: 4
#     Node 19, Type 0, BuildingBlock: KUFVIS_clean_sbu_0, # of connection points: 4
#     Node 20, Type 0, BuildingBlock: KUFVIS_clean_sbu_0, # of connection points: 4
#     Node 21, Type 0, BuildingBlock: KUFVIS_clean_sbu_0, # of connection points: 4
#     Node 22, Type 0, BuildingBlock: KUFVIS_clean_sbu_0, # of connection points: 4
#     Node 23, Type 0, BuildingBlock: KUFVIS_clean_sbu_0, # of connection points: 4
#     Edge 24, Type (0, 0), BuildingBlock: EZIPEK_clean_linker_0, # of connection points: 2
#     Edge 25, Type (0, 0), BuildingBlock: EZIPEK_clean_linker_0, # of connection points: 2
#     Edge 26, Type (0, 0), BuildingBlock: EZIPEK_clean_linker_0, # of connection points: 2
#     Edge 27, Type (0, 0), BuildingBlock: EZIPEK_clean_linker_0, # of connection points: 2
#     Edge 28, Type (0, 0), BuildingBlock: EZIPEK_clean_linker_0, # of connection points: 2
#     Edge 29, Type (0, 0), BuildingBlock: EZIPEK_clean_linker_0, # of connection points: 2
#     Edge 30, Type (0, 0), BuildingBlock: EZIPEK_clean_linker_0, # of connection points: 2
#     Edge 31, Type (0, 0), BuildingBlock: EZIPEK_clean_linker_0, # of connection points: 2
#     Edge 32, Type (0, 0), BuildingBlock: EZIPEK_clean_linker_0, # of connection points: 2
#     Edge 33, Type (0, 0), BuildingBlock: EZIPEK_clean_linker_0, # of connection points: 2
#     Edge 34, Type (0, 0), BuildingBlock: EZIPEK_clean_linker_0, # of connection points: 2
#     Edge 35, Type (0, 0), BuildingBlock: EZIPEK_clean_linker_0, # of connection points: 2
#     Edge 36, Type (0, 0), BuildingBlock: EZIPEK_clean_linker_0, # of connection points: 2
#     Edge 37, Type (0, 0), BuildingBlock: EZIPEK_clean_linker_0, # of connection points: 2
#     Edge 38, Type (0, 0), BuildingBlock: EZIPEK_clean_linker_0, # of connection points: 2
#     Edge 39, Type (0, 0), BuildingBlock: EZIPEK_clean_linker_0, # of connection points: 2
#     Edge 40, Type (0, 0), BuildingBlock: EZIPEK_clean_linker_0, # of connection points: 2
#     Edge 41, Type (0, 0), BuildingBlock: EZIPEK_clean_linker_0, # of connection points: 2
#     Edge 42, Type (0, 0), BuildingBlock: EZIPEK_clean_linker_0, # of connection points: 2
#     Edge 43, Type (0, 0), BuildingBlock: EZIPEK_clean_linker_0, # of connection points: 2
#     Edge 44, Type (0, 0), BuildingBlock: EZIPEK_clean_linker_0, # of connection points: 2
#     Edge 45, Type (0, 0), BuildingBlock: EZIPEK_clean_linker_0, # of connection points: 2
#     Edge 46, Type (0, 0), BuildingBlock: EZIPEK_clean_linker_0, # of connection points: 2
#     Edge 47, Type (0, 0), BuildingBlock: EZIPEK_clean_linker_0, # of connection points: 2
#     Edge 48, Type (0, 0), BuildingBlock: EZIPEK_clean_linker_0, # of connection points: 2
#     Edge 49, Type (0, 0), BuildingBlock: EZIPEK_clean_linker_0, # of connection points: 2
#     Edge 50, Type (0, 0), BuildingBlock: EZIPEK_clean_linker_0, # of connection points: 2
#     Edge 51, Type (0, 0), BuildingBlock: EZIPEK_clean_linker_0, # of connection points: 2
#     Edge 52, Type (0, 0), BuildingBlock: EZIPEK_clean_linker_0, # of connection points: 2
#     Edge 53, Type (0, 0), BuildingBlock: EZIPEK_clean_linker_0, # of connection points: 2
#     Edge 54, Type (0, 0), BuildingBlock: EZIPEK_clean_linker_0, # of connection points: 2
#     Edge 55, Type (0, 0), BuildingBlock: EZIPEK_clean_linker_0, # of connection points: 2
#     Edge 56, Type (0, 0), BuildingBlock: EZIPEK_clean_linker_0, # of connection points: 2
#     Edge 57, Type (0, 0), BuildingBlock: EZIPEK_clean_linker_0, # of connection points: 2
#     Edge 58, Type (0, 0), BuildingBlock: EZIPEK_clean_linker_0, # of connection points: 2
#     Edge 59, Type (0, 0), BuildingBlock: EZIPEK_clean_linker_0, # of connection points: 2
#     Edge 60, Type (0, 0), BuildingBlock: EZIPEK_clean_linker_0, # of connection points: 2
#     Edge 61, Type (0, 0), BuildingBlock: EZIPEK_clean_linker_0, # of connection points: 2
#     Edge 62, Type (0, 0), BuildingBlock: EZIPEK_clean_linker_0, # of connection points: 2
#     Edge 63, Type (0, 0), BuildingBlock: EZIPEK_clean_linker_0, # of connection points: 2
#     Edge 64, Type (0, 0), BuildingBlock: EZIPEK_clean_linker_0, # of connection points: 2
#     Edge 65, Type (0, 0), BuildingBlock: EZIPEK_clean_linker_0, # of connection points: 2
#     Edge 66, Type (0, 0), BuildingBlock: EZIPEK_clean_linker_0, # of connection points: 2
#     Edge 67, Type (0, 0), BuildingBlock: EZIPEK_clean_linker_0, # of connection points: 2
#     Edge 68, Type (0, 0), BuildingBlock: EZIPEK_clean_linker_0, # of connection points: 2
#     Edge 69, Type (0, 0), BuildingBlock: EZIPEK_clean_linker_0, # of connection points: 2
#     Edge 70, Type (0, 0), BuildingBlock: EZIPEK_clean_linker_0, # of connection points: 2
#     Edge 71, Type (0, 0), BuildingBlock: EZIPEK_clean_linker_0, # of connection points: 2
# Relax obj value: 0.402
# Max RMSD: 0.184
# Mean RMSD: 0.184
data_MOF--net-lcy-a--node1-KUFVIS_clean_sbu_0--edge1-EZIPEK_clean_linker_0
_symmetry_space_group_name_H-M    P1
_symmetry_Int_Tables_number       1
_symmetry_cell_setting            triclinic
loop_
_symmetry_equiv_pos_as_xyz
'x, y, z'
_cell_length_a     41.213855
_cell_length_b     41.255557
_cell_length_c     41.242657
_cell_angle_alpha  90.116312
_cell_angle_beta   89.878119
_cell_angle_gamma 89.895353
loop_
_atom_site_label
_atom_site_type_symbol
_atom_site_fract_x
_atom_site_fract_y
_atom_site_fract_z
_atom_type_partial_charge
Mn0 Mn 0.22066 0.25261 0.39494 0.0
Mn1 Mn 0.25599 0.2205 0.46114 0.0
C2 C 0.24888 0.20345 0.38802 0.0
C3 C 0.2187 0.2852 0.34853 0.0
C4 C 0.18334 0.22252 0.44937 0.0
O5 O 0.22466 0.29132 0.42548 0.0
O6 O 0.25467 0.26835 0.46488 0.0
C7 C 0.32324 0.24574 0.45702 0.0
N8 N 0.30234 0.22053 0.46086 0.0
C9 C 0.34604 0.18441 0.4748 0.0
C10 C 0.36805 0.20996 0.47091 0.0
C11 C 0.35661 0.24065 0.46168 0.0
C12 C 0.31311 0.19084 0.46951 0.0
H13 H 0.31446 0.26954 0.45082 0.0
C14 C 0.24103 0.29279 0.4517 0.0
O15 O 0.19278 0.27681 0.36403 0.0
O16 O 0.24614 0.27578 0.36098 0.0
N17 N 0.25966 0.17439 0.46238 0.0
C18 C 0.2358 0.15164 0.4616 0.0
C19 C 0.24337 0.11917 0.46847 0.0
C20 C 0.27529 0.11054 0.4767 0.0
C21 C 0.29939 0.13445 0.47783 0.0
C22 C 0.29033 0.16644 0.4709 0.0
H23 H 0.21111 0.1583 0.45642 0.0
O24 O 0.22396 0.21181 0.37082 0.0
O25 O 0.25518 0.22345 0.41219 0.0
O26 O 0.18441 0.23362 0.42104 0.0
O27 O 0.2083 0.21823 0.46686 0.0
C28 C 0.33225 0.12765 0.48438 0.0
C29 C 0.35557 0.1526 0.48281 0.0
H30 H 0.39382 0.20619 0.47447 0.0
H31 H 0.37353 0.26029 0.45835 0.0
H32 H 0.22457 0.1009 0.46776 0.0
H33 H 0.28107 0.08544 0.48181 0.0
H34 H 0.33997 0.10316 0.48987 0.0
H35 H 0.38086 0.14693 0.48715 0.0
Mn36 Mn 0.94407 0.94226 0.65101 0.0
Mn37 Mn -0.00338 0.96303 0.70902 0.0
C38 C 0.98873 0.97476 0.63728 0.0
C39 C 0.89512 0.94605 0.62313 0.0
C40 C 0.98453 0.89533 0.68541 0.0
O41 O 0.91942 0.93786 0.69448 0.0
O42 O 0.95228 0.96695 0.72737 0.0
C43 C 0.98569 0.03048 0.72845 0.0
N44 N 0.00459 0.00813 0.71334 0.0
C45 C 0.04709 0.04708 0.70501 0.0
C46 C 0.02736 0.0709 0.71919 0.0
C47 C 0.99645 0.06237 0.73088 0.0
C48 C 0.0347 0.01562 0.7028 0.0
H49 H 0.96288 0.02388 0.73934 0.0
C50 C 0.92431 0.95554 0.71972 0.0
O51 O 0.91005 0.91888 0.62683 0.0
O52 O 0.90905 0.97161 0.63535 0.0
N53 N 0.03979 0.96072 0.69135 0.0
C54 C 0.0573 0.93417 0.68223 0.0
C55 C 0.08916 0.93797 0.67074 0.0
C56 C 0.10307 0.96897 0.66948 0.0
C57 C 0.0851 0.99583 0.68014 0.0
C58 C 0.05331 0.99054 0.69099 0.0
H59 H 0.04738 0.91019 0.68421 0.0
O60 O 0.97401 0.95772 0.61515 0.0
O61 O 0.97705 0.97147 0.66625 0.0
O62 O 0.97196 0.9033 0.65887 0.0
O63 O 0.9911 0.91556 0.70769 0.0
C64 C 0.09764 0.02758 0.68088 0.0
C65 C 0.07866 0.0532 0.69343 0.0
H66 H 0.03594 0.09556 0.72145 0.0
H67 H 0.9806 0.07977 0.74205 0.0
H68 H 0.10308 0.91699 0.6632 0.0
H69 H 0.12772 0.9718 0.66078 0.0
H70 H 0.12202 0.03245 0.67238 0.0
H71 H 0.08873 0.07741 0.69443 0.0
Mn72 Mn 0.26425 0.72098 0.90162 0.0
Mn73 Mn 0.23773 0.76889 0.96325 0.0
C74 C 0.23254 0.76689 0.89094 0.0
C75 C 0.26307 0.67899 0.86293 0.0
C76 C 0.30741 0.76378 0.94227 0.0
O77 O 0.26429 0.69063 0.94141 0.0
O78 O 0.24097 0.7235 0.97918 0.0
C79 C 0.17333 0.74591 0.98271 0.0
N80 N 0.19196 0.76923 0.96883 0.0
C81 C 0.1477 0.80728 0.96955 0.0
C82 C 0.128 0.78355 0.9837 0.0
C83 C 0.14105 0.75276 0.9904 0.0
C84 C 0.18005 0.79924 0.96316 0.0
H85 H 0.18324 0.72253 0.98887 0.0
C86 C 0.25123 0.69572 0.96939 0.0
O87 O 0.28978 0.69023 0.87457 0.0
O88 O 0.23638 0.69046 0.87553 0.0
N89 N 0.23279 0.81276 0.94875 0.0
C90 C 0.25579 0.83374 0.93779 0.0
C91 C 0.24677 0.86534 0.92894 0.0
C92 C 0.2143 0.87526 0.93208 0.0
C93 C 0.19117 0.85346 0.94405 0.0
C94 C 0.2015 0.82207 0.95177 0.0
H95 H 0.28082 0.82649 0.9359 0.0
O96 O 0.25285 0.75581 0.86936 0.0
O97 O 0.23323 0.75215 0.91863 0.0
O98 O 0.30296 0.74609 0.91775 0.0
O99 O 0.2851 0.77192 0.96182 0.0
C100 C 0.15834 0.86172 0.94898 0.0
C101 C 0.13669 0.83876 0.96214 0.0
H102 H 0.10307 0.78903 0.98994 0.0
H103 H 0.12686 0.73428 0.00214 0.0
H104 H 0.26485 0.88209 0.91998 0.0
H105 H 0.20748 0.89976 0.92555 0.0
H106 H 0.14962 0.88582 0.94328 0.0
H107 H 0.11166 0.84557 0.96651 0.0
Mn108 Mn 0.55771 0.02263 0.15356 0.0
Mn109 Mn 0.51275 0.97791 0.20325 0.0
C110 C 0.50994 -0.00049 0.13369 0.0
C111 C 0.59595 0.02707 0.11233 0.0
C112 C 0.51451 0.0508 0.20774 0.0
O113 O 0.59094 0.01029 0.18825 0.0
O114 O 0.55673 0.98472 0.22123 0.0
C115 C 0.5517 0.92009 0.18595 0.0
N116 N 0.52216 0.93418 0.19082 0.0
C117 C 0.49476 0.88713 0.16997 0.0
C118 C 0.52482 0.87178 0.16559 0.0
C119 C 0.55345 0.88861 0.17305 0.0
C120 C 0.49466 0.91901 0.18171 0.0
H121 H 0.5738 0.93312 0.19104 0.0
C122 C 0.58482 0.99574 0.21488 0.0
O123 O 0.58891 0.05203 0.13034 0.0
O124 O 0.58325 -0.00035 0.12042 0.0
N125 N 0.46904 0.96842 0.19125 0.0
C126 C 0.44213 0.98685 0.19691 0.0
C127 C 0.41121 0.9732 0.19268 0.0
C128 C 0.40825 0.94059 0.18326 0.0
C129 C 0.43627 0.92181 0.17852 0.0
C130 C 0.46636 0.93663 0.18361 0.0
H131 H 0.44425 0.01167 0.20493 0.0
O132 O 0.52054 0.0268 0.1226 0.0
O133 O 0.52577 0.98904 0.1589 0.0
O134 O 0.53517 0.05355 0.18485 0.0
O135 O 0.50221 0.02341 0.21541 0.0
C136 C 0.43556 0.88899 0.16888 0.0
C137 C 0.46485 0.87201 0.16352 0.0
H138 H 0.52623 0.84727 0.1562 0.0
H139 H 0.57683 0.87748 0.1686 0.0
H140 H 0.38971 0.98775 0.1968 0.0
H141 H 0.38439 0.93021 0.17979 0.0
H142 H 0.41267 0.87692 0.16445 0.0
H143 H 0.46415 0.8473 0.15473 0.0
Mn144 Mn 0.72787 0.232 0.58889 0.0
Mn145 Mn 0.75359 0.27194 0.52345 0.0
C146 C 0.7609 0.27627 0.59605 0.0
C147 C 0.73361 0.19843 0.63299 0.0
C148 C 0.68316 0.26576 0.54396 0.0
O149 O 0.72645 0.19814 0.55266 0.0
O150 O 0.75322 0.22495 0.51238 0.0
C151 C 0.82117 0.25176 0.50917 0.0
N152 N 0.79984 0.27451 0.52032 0.0
C153 C 0.84298 0.31258 0.52973 0.0
C154 C 0.86552 0.28905 0.51982 0.0
C155 C 0.85453 0.25868 0.50908 0.0
C156 C 0.81005 0.30434 0.52921 0.0
H157 H 0.81279 0.22833 0.501 0.0
C158 C 0.74058 0.19928 0.52481 0.0
O159 O 0.70527 0.2053 0.62145 0.0
O160 O 0.75829 0.20601 0.61496 0.0
N161 N 0.75526 0.31697 0.5347 0.0
C162 C 0.7303 0.33778 0.54091 0.0
C163 C 0.73705 0.36978 0.55033 0.0
C164 C 0.76938 0.38011 0.55314 0.0
C165 C 0.79467 0.3584 0.54616 0.0
C166 C 0.78646 0.32679 0.53692 0.0
H167 H 0.70544 0.33007 0.53861 0.0
O168 O 0.73849 0.26952 0.61719 0.0
O169 O 0.75876 0.26005 0.56915 0.0
O170 O 0.68876 0.25449 0.57166 0.0
O171 O 0.70528 0.27148 0.52313 0.0
C172 C 0.82771 0.36695 0.54779 0.0
C173 C 0.85185 0.34407 0.53951 0.0
H174 H 0.89127 0.29426 0.51971 0.0
H175 H 0.87175 0.24076 0.50065 0.0
H176 H 0.71737 0.38644 0.55545 0.0
H177 H 0.77449 0.40481 0.56042 0.0
H178 H 0.83482 0.39118 0.555 0.0
H179 H 0.87715 0.35108 0.54037 0.0
Mn180 Mn 0.04962 0.47433 0.84132 0.0
Mn181 Mn -0.0011 0.50628 0.7852 0.0
C182 C 0.00631 0.50587 0.85682 0.0
C183 C 0.09294 0.47631 0.87784 0.0
C184 C 0.00061 0.43575 0.80334 0.0
O185 O 0.07665 0.47331 0.79959 0.0
O186 O 0.04241 0.4986 0.76516 0.0
C187 C 0.0256 0.56934 0.7655 0.0
N188 N 0.00276 0.55224 0.78197 0.0
C189 C 0.97034 0.60028 0.79011 0.0
C190 C 0.99402 0.61848 0.77404 0.0
C191 C 0.02105 0.60263 0.76071 0.0
C192 C 0.97524 0.56678 0.79266 0.0
H193 H 0.04637 0.55742 0.75479 0.0
C194 C 0.06969 0.48476 0.77145 0.0
O195 O 0.08124 0.449 0.86772 0.0
O196 O 0.08134 0.50216 0.86406 0.0
N197 N 0.95687 0.51471 0.80342 0.0
C198 C 0.93384 0.49313 0.81314 0.0
C199 C 0.9041 0.50455 0.82532 0.0
C200 C 0.89811 0.53803 0.82694 0.0
C201 C 0.92179 0.55975 0.81593 0.0
C202 C 0.95113 0.54694 0.80438 0.0
H203 H 0.93813 0.46736 0.81181 0.0
O204 O 0.01823 0.48451 0.87658 0.0
O205 O 0.01898 0.50686 0.82807 0.0
O206 O 0.02175 0.43745 0.82547 0.0
O207 O 0.99153 0.45949 0.78605 0.0
C208 C 0.91717 0.59358 0.81538 0.0
C209 C 0.94131 0.61382 0.80215 0.0
H210 H 0.99095 0.6443 0.77041 0.0
H211 H 0.03758 0.61571 0.74558 0.0
H212 H 0.88582 0.48758 0.83344 0.0
H213 H 0.87509 0.54675 0.83623 0.0
H214 H 0.8948 0.6042 0.82429 0.0
H215 H 0.93706 0.63971 0.80082 0.0
Mn216 Mn 0.77315 0.80951 0.07694 0.0
Mn217 Mn 0.70631 0.78203 0.03996 0.0
C218 C 0.73583 0.77964 0.10595 0.0
C219 C 0.79474 0.85196 0.10699 0.0
C220 C 0.77385 0.7523 0.03196 0.0
O221 O 0.77292 0.83377 0.03379 0.0
O222 O 0.72283 0.82088 0.01688 0.0
C223 C 0.6663 0.83877 0.05859 0.0
N224 N 0.67051 0.806 0.0576 0.0
C225 C 0.62309 0.79764 0.09072 0.0
C226 C 0.61794 0.83124 0.09158 0.0
C227 C 0.63984 0.85192 0.07569 0.0
C228 C 0.65043 0.78605 0.07407 0.0
H229 H 0.68327 0.85481 0.04677 0.0
C230 C 0.74898 0.83742 0.01452 0.0
O231 O 0.81402 0.83121 0.09292 0.0
O232 O 0.76423 0.84921 0.10072 0.0
N233 N 0.68672 0.74504 0.05998 0.0
C234 C 0.69473 0.71322 0.05627 0.0
C235 C 0.67547 0.68928 0.07089 0.0
C236 C 0.64748 0.69822 0.08824 0.0
C237 C 0.63872 0.731 0.09031 0.0
C238 C 0.65878 0.75373 0.07498 0.0
H239 H 0.71511 0.70614 0.04147 0.0
O240 O 0.76465 0.78404 0.11742 0.0
O241 O 0.73006 0.79335 0.07841 0.0
O242 O 0.7881 0.76936 0.05346 0.0
O243 O 0.74403 0.75593 0.02317 0.0
C244 C 0.61007 0.74189 0.10561 0.0
C245 C 0.60256 0.77526 0.10631 0.0
H246 H 0.5974 0.84143 0.10451 0.0
H247 H 0.63627 0.8779 0.07651 0.0
H248 H 0.68192 0.66396 0.06839 0.0
H249 H 0.63258 0.67969 0.09934 0.0
H250 H 0.59382 0.72484 0.1172 0.0
H251 H 0.58097 0.78342 0.11897 0.0
Mn252 Mn 0.46938 0.51532 0.32172 0.0
Mn253 Mn 0.51639 0.48073 0.26452 0.0
C254 C 0.51591 0.48729 0.33748 0.0
C255 C 0.42682 0.51779 0.35844 0.0
C256 C 0.50534 0.5524 0.27213 0.0
O257 O 0.43939 0.50763 0.28245 0.0
O258 O 0.46968 0.47167 0.2533 0.0
C259 C 0.50835 0.40923 0.26457 0.0
N260 N 0.52639 0.43586 0.27182 0.0
C261 C 0.57107 0.40236 0.28949 0.0
C262 C 0.55251 0.37477 0.28339 0.0
C263 C 0.52131 0.37818 0.27051 0.0
C264 C 0.55725 0.43265 0.28271 0.0
H265 H 0.48439 0.41189 0.25441 0.0
C266 C 0.44233 0.48521 0.26085 0.0
O267 O 0.43726 0.54341 0.34398 0.0
O268 O 0.44014 0.49026 0.35056 0.0
N269 N 0.56095 0.48833 0.27612 0.0
C270 C 0.57852 0.5162 0.27377 0.0
C271 C 0.6108 0.51686 0.28449 0.0
C272 C 0.62533 0.48843 0.29612 0.0
C273 C 0.60769 0.45946 0.29593 0.0
C274 C 0.57532 0.46049 0.28553 0.0
H275 H 0.56834 0.53774 0.26324 0.0
O276 O 0.50415 0.51029 0.35574 0.0
O277 O 0.50181 0.4843 0.30973 0.0
O278 O 0.49333 0.55081 0.30009 0.0
O279 O 0.51008 0.52757 0.25422 0.0
C280 C 0.62134 0.42944 0.30465 0.0
C281 C 0.60307 0.40084 0.30127 0.0
H282 H 0.56214 0.35077 0.28802 0.0
H283 H 0.50777 0.35658 0.2653 0.0
H284 H 0.62461 0.53911 0.28327 0.0
H285 H 0.65038 0.48889 0.304 0.0
H286 H 0.64618 0.42796 0.31305 0.0
H287 H 0.61409 0.37774 0.30715 0.0
Mn288 Mn 0.39917 0.20752 0.2681 0.0
Mn289 Mn 0.45979 0.24806 0.23305 0.0
C290 C 0.3884 0.23837 0.22219 0.0
C291 C 0.3578 0.2018 0.30614 0.0
C292 C 0.4559 0.17484 0.23739 0.0
O293 O 0.43425 0.21264 0.30354 0.0
O294 O 0.46617 0.25111 0.28045 0.0
C295 C 0.4529 0.31668 0.25252 0.0
N296 N 0.45357 0.2937 0.22882 0.0
C297 C 0.45088 0.33433 0.18714 0.0
C298 C 0.45079 0.35844 0.21111 0.0
C299 C 0.45023 0.34945 0.24393 0.0
C300 C 0.45255 0.30196 0.19715 0.0
H301 H 0.45392 0.31003 0.27776 0.0
C302 C 0.45653 0.23443 0.30489 0.0
O303 O 0.37323 0.17701 0.29458 0.0
O304 O 0.36672 0.23036 0.29637 0.0
N305 N 0.45337 0.2465 0.18697 0.0
C306 C 0.44886 0.22034 0.16728 0.0
C307 C 0.44466 0.22495 0.13383 0.0
C308 C 0.44445 0.25643 0.12101 0.0
C309 C 0.44774 0.28307 0.14188 0.0
C310 C 0.45186 0.27695 0.175 0.0
H311 H 0.4479 0.19615 0.17698 0.0
O312 O 0.36953 0.21434 0.22993 0.0
O313 O 0.41335 0.24216 0.24089 0.0
O314 O 0.4257 0.17415 0.24304 0.0
O315 O 0.47136 0.20143 0.23601 0.0
C316 C 0.44626 0.31546 0.1312 0.0
C317 C 0.44811 0.34109 0.1538 0.0
H318 H 0.44918 0.38384 0.20465 0.0
H319 H 0.44819 0.36774 0.26266 0.0
H320 H 0.44127 0.20427 0.11801 0.0
H321 H 0.44102 0.2599 0.09521 0.0
H322 H 0.44327 0.32093 0.1057 0.0
H323 H 0.44654 0.36589 0.14537 0.0
Mn324 Mn 0.03656 0.13448 0.55336 0.0
Mn325 Mn 0.99047 0.19074 0.51658 0.0
C326 C 0.00481 0.11878 0.50879 0.0
C327 C 0.03977 0.09352 0.59215 0.0
C328 C 0.06385 0.18605 0.50998 0.0
O329 O 0.03402 0.17039 0.58737 0.0
O330 O -0.00222 0.20281 0.56257 0.0
C331 C 0.9291 0.18217 0.55325 0.0
N332 N 0.9454 0.18271 0.5245 0.0
C333 C 0.89584 0.17503 0.49476 0.0
C334 C 0.87866 0.17381 0.52409 0.0
C335 C 0.89539 0.17728 0.55349 0.0
C336 C 0.92959 0.17883 0.49612 0.0
H337 H 0.94165 0.18583 0.57579 0.0
C338 C 0.01528 0.19504 0.5869 0.0
O339 O 0.06615 0.10671 0.58099 0.0
O340 O 0.01271 0.10585 0.58244 0.0
N341 N 0.98053 0.18303 0.47191 0.0
C342 C 0.00019 0.1876 0.44568 0.0
C343 C 0.98687 0.18718 0.41437 0.0
C344 C 0.95331 0.18312 0.41033 0.0
C345 C 0.93334 0.1797 0.43766 0.0
C346 C 0.94804 0.17997 0.46826 0.0
H347 H 0.02581 0.19201 0.44853 0.0
O348 O 0.03105 0.10339 0.51649 0.0
O349 O -0.00056 0.14476 0.52611 0.0
O350 O 0.06789 0.16036 0.52638 0.0
O351 O 0.03653 0.20024 0.50611 0.0
C352 C 0.89934 0.17656 0.43572 0.0
C353 C 0.88066 0.17363 0.46424 0.0
H354 H 0.85258 0.17086 0.52425 0.0
H355 H 0.88229 0.17673 0.57625 0.0
H356 H 0.00238 0.19043 0.39343 0.0
H357 H 0.94308 0.18305 0.38615 0.0
H358 H 0.88734 0.17611 0.41238 0.0
H359 H 0.85458 0.171 0.46245 0.0
Mn360 Mn 0.08667 0.7836 0.79 0.0
Mn361 Mn 0.04434 0.71718 0.76753 0.0
C362 C 0.10874 0.74712 0.75351 0.0
C363 C 0.12356 0.80456 0.82747 0.0
C364 C 0.03194 0.7839 0.7406 0.0
O365 O 0.05033 0.78228 0.82353 0.0
O366 O 0.02613 0.73582 0.80812 0.0
C367 C 0.06444 0.67579 0.82263 0.0
N368 N 0.0636 0.68154 0.79016 0.0
C369 C 0.09479 0.63333 0.77924 0.0
C370 C 0.0965 0.62728 0.81262 0.0
C371 C 0.08122 0.64862 0.83441 0.0
C372 C 0.0783 0.66124 0.769 0.0
H373 H 0.05232 0.69172 0.83939 0.0
C374 C 0.02865 0.76053 0.82677 0.0
O375 O 0.10584 0.82427 0.81033 0.0
O376 O 0.11888 0.77404 0.82327 0.0
N377 N 0.05946 0.69618 0.72895 0.0
C378 C 0.05207 0.70338 0.69761 0.0
C379 C 0.06235 0.68251 0.67268 0.0
C380 C 0.07965 0.65417 0.68026 0.0
C381 C 0.08651 0.64697 0.71273 0.0
C382 C 0.07523 0.66845 0.73655 0.0
H383 H 0.03781 0.72451 0.69174 0.0
O384 O 0.12057 0.77608 0.75598 0.0
O385 O 0.08464 0.74072 0.77265 0.0
O386 O 0.05426 0.79888 0.75616 0.0
O387 O 0.02549 0.75363 0.74302 0.0
C388 C 0.10347 0.61896 0.72245 0.0
C389 C 0.10798 0.61232 0.75567 0.0
H390 H 0.10902 0.60608 0.82175 0.0
H391 H 0.08208 0.64398 0.86021 0.0
H392 H 0.05672 0.68811 0.64769 0.0
H393 H 0.08752 0.6381 0.66098 0.0
H394 H 0.11319 0.60243 0.70454 0.0
H395 H 0.12092 0.5906 0.76279 0.0
Mn396 Mn 0.47622 0.84115 0.02522 0.0
Mn397 Mn 0.50257 0.77197 0.99087 0.0
C398 C 0.51414 0.84317 0.98432 0.0
C399 C 0.48017 0.88337 0.0625 0.0
C400 C 0.4348 0.79865 0.98413 0.0
O401 O 0.46518 0.80593 0.05807 0.0
O402 O 0.49393 0.76367 0.03783 0.0
C403 C 0.56448 0.75238 0.02054 0.0
N404 N 0.54817 0.76519 0.99498 0.0
C405 C 0.59652 0.76479 0.96199 0.0
C406 C 0.61402 0.7527 0.98835 0.0
C407 C 0.59758 0.74532 0.01717 0.0
C408 C 0.56312 0.76966 0.96607 0.0
H409 H 0.552 0.74644 0.04281 0.0
C410 C 0.47654 0.77699 0.06028 0.0
O411 O 0.45305 0.87646 0.04825 0.0
O412 O 0.50409 0.86336 0.05765 0.0
N413 N 0.51157 0.77971 0.94585 0.0
C414 C 0.49035 0.78543 0.92121 0.0
C415 C 0.5022 0.79074 0.88972 0.0
C416 C 0.53572 0.78958 0.88374 0.0
C417 C 0.55702 0.78248 0.9092 0.0
C418 C 0.54378 0.77759 0.94012 0.0
H419 H 0.46456 0.78587 0.92542 0.0
O420 O 0.49589 0.86814 0.99034 0.0
O421 O 0.50841 0.8176 0.00151 0.0
O422 O 0.44015 0.82665 0.99546 0.0
O423 O 0.45555 0.77581 0.98407 0.0
C424 C 0.59083 0.77962 0.90503 0.0
C425 C 0.61057 0.77055 0.93138 0.0
H426 H 0.6397 0.74742 0.98621 0.0
H427 H 0.61007 0.73291 0.03613 0.0
H428 H 0.48551 0.79567 0.87011 0.0
H429 H 0.54479 0.79366 0.85942 0.0
H430 H 0.6018 0.78354 0.88147 0.0
H431 H 0.63641 0.76736 0.92768 0.0
Mn432 Mn 0.89982 0.27474 0.73154 0.0
Mn433 Mn 0.96264 0.24225 0.77277 0.0
C434 C 0.8899 0.23928 0.77488 0.0
C435 C 0.86239 0.2792 0.68909 0.0
C436 C 0.9454 0.31295 0.7726 0.0
O437 O 0.93861 0.27619 0.69965 0.0
O438 O 0.97519 0.24502 0.72645 0.0
C439 C 0.97707 0.17739 0.74804 0.0
N440 N 0.96539 0.19637 0.77236 0.0
C441 C 0.96701 0.15204 0.81008 0.0
C442 C 0.97916 0.13205 0.78539 0.0
C443 C 0.98419 0.14495 0.75423 0.0
C444 C 0.96125 0.18458 0.80264 0.0
H445 H 0.98206 0.18716 0.72432 0.0
C446 C 0.96472 0.25901 0.70075 0.0
O447 O 0.8735 0.30418 0.70416 0.0
O448 O 0.87302 0.251 0.6985 0.0
N449 N 0.9507 0.23785 0.81754 0.0
C450 C 0.94256 0.2612 0.83949 0.0
C451 C 0.93538 0.25244 0.87159 0.0
C452 C 0.9374 0.21981 0.88102 0.0
C453 C 0.94656 0.19627 0.85821 0.0
C454 C 0.95252 0.2064 0.82637 0.0
H455 H 0.94178 0.28632 0.83269 0.0
O456 O 0.86822 0.26067 0.76637 0.0
O457 O 0.91689 0.24065 0.75884 0.0
O458 O 0.91783 0.3102 0.75983 0.0
O459 O 0.96498 0.28955 0.77593 0.0
C460 C 0.95055 0.16325 0.86591 0.0
C461 C 0.96126 0.14121 0.84195 0.0
H462 H 0.98504 0.10698 0.79036 0.0
H463 H 0.99423 0.13061 0.73486 0.0
H464 H 0.92869 0.27084 0.88912 0.0
H465 H 0.9323 0.21318 0.90591 0.0
H466 H 0.94618 0.15468 0.89034 0.0
H467 H 0.96513 0.11604 0.84832 0.0
Mn468 Mn 0.93902 0.65051 0.96403 0.0
Mn469 Mn 0.95689 0.71633 0.00826 0.0
C470 C 0.96761 0.64418 0.01234 0.0
C471 C 0.95045 0.61181 0.92546 0.0
C472 C 0.88884 0.69258 0.99491 0.0
O473 O 0.93993 0.68796 0.93085 0.0
O474 O 0.96207 0.7278 0.96164 0.0
C475 C 0.02512 0.73183 0.99509 0.0
N476 N 0.00201 0.72119 0.016 0.0
C477 C 0.04096 0.71512 0.05882 0.0
C478 C 0.06544 0.72494 0.03736 0.0
C479 C 0.05732 0.73324 0.00531 0.0
C480 C 0.00919 0.71391 0.04707 0.0
H481 H 0.0192 0.73835 0.97048 0.0
C482 C 0.95424 0.71547 0.9341 0.0
O483 O 0.92075 0.61953 0.93216 0.0
O484 O 0.97342 0.62739 0.94012 0.0
N485 N 0.95387 0.70506 0.05327 0.0
C486 C 0.92715 0.69731 0.07111 0.0
C487 C 0.93074 0.68844 0.10376 0.0
C488 C 0.96174 0.68787 0.11783 0.0
C489 C 0.98885 0.69651 0.09918 0.0
C490 C 0.98373 0.70511 0.06677 0.0
H491 H 0.90328 0.69802 0.06059 0.0
O492 O 0.94901 0.62103 0.0017 0.0
O493 O 0.9647 0.67108 -0.00343 0.0
O494 O 0.89661 0.66531 0.9834 0.0
O495 O 0.90933 0.71436 0.00245 0.0
C496 C 0.02074 0.69693 0.11144 0.0
C497 C 0.04679 0.70631 0.09128 0.0
H498 H 0.09043 0.72602 0.04528 0.0
H499 H 0.07545 0.74021 0.98795 0.0
H500 H 0.90965 0.68207 0.11805 0.0
H501 H 0.96443 0.68096 0.14301 0.0
H502 H 0.02549 0.69026 0.13637 0.0
H503 H 0.07119 0.70672 0.10099 0.0
Mn504 Mn 0.58128 0.73267 0.21383 0.0
Mn505 Mn 0.51724 0.75439 0.25902 0.0
C506 C 0.58925 0.7595 0.26186 0.0
C507 C 0.62582 0.74311 0.18175 0.0
C508 C 0.53699 0.68503 0.2467 0.0
O509 O 0.54509 0.73569 0.1805 0.0
O510 O 0.50378 0.7535 0.21228 0.0
C511 C 0.50236 0.82228 0.2406 0.0
N512 N 0.51408 0.8006 0.2625 0.0
C513 C 0.52401 0.84308 0.30142 0.0
C514 C 0.51293 0.86589 0.27894 0.0
C515 C 0.50141 0.85536 0.24875 0.0
C516 C 0.52362 0.81035 0.29236 0.0
H517 H 0.49385 0.81436 0.21716 0.0
C518 C 0.51537 0.74439 0.18463 0.0
O519 O 0.6144 0.71396 0.18427 0.0
O520 O 0.60733 0.76628 0.19235 0.0
N521 N 0.52993 0.75556 0.30366 0.0
C522 C 0.53689 0.73029 0.32372 0.0
C523 C 0.54686 0.73651 0.35566 0.0
C524 C 0.54964 0.76862 0.36662 0.0
C525 C 0.54203 0.79422 0.34564 0.0
C526 C 0.53209 0.78651 0.3141 0.0
H527 H 0.53495 0.70555 0.31543 0.0
O528 O 0.60989 0.73769 0.25222 0.0
O529 O 0.56222 0.75985 0.24594 0.0
O530 O 0.56255 0.69122 0.231 0.0
O531 O 0.51804 0.70656 0.25817 0.0
C532 C 0.54363 0.82706 0.35488 0.0
C533 C 0.53454 0.85148 0.33281 0.0
H534 H 0.51231 0.89147 0.28492 0.0
H535 H 0.4914 0.87278 0.23218 0.0
H536 H 0.55257 0.7166 0.37172 0.0
H537 H 0.55745 0.77334 0.39124 0.0
H538 H 0.55137 0.83377 0.37906 0.0
H539 H 0.5353 0.87663 0.34037 0.0
Mn540 Mn 0.53614 0.34642 0.45806 0.0
Mn541 Mn 0.48283 0.29629 0.49448 0.0
C542 C 0.50745 0.36513 0.50328 0.0
C543 C 0.54849 0.38542 0.41996 0.0
C544 C 0.55585 0.29058 0.50021 0.0
O545 O 0.52684 0.31311 0.42268 0.0
O546 O 0.48863 0.28371 0.44827 0.0
C547 C 0.42418 0.31532 0.4575 0.0
N548 N 0.43939 0.31057 0.48638 0.0
C549 C 0.39039 0.32256 0.51585 0.0
C550 C 0.37421 0.32751 0.48643 0.0
C551 C 0.39133 0.32438 0.45711 0.0
C552 C 0.42352 0.31498 0.51471 0.0
H553 H 0.4369 0.31184 0.43496 0.0
C554 C 0.50555 0.29072 0.42325 0.0
O555 O 0.57117 0.36684 0.43134 0.0
O556 O 0.51911 0.38087 0.43027 0.0
N557 N 0.4733 0.30454 0.53925 0.0
C558 C 0.49183 0.29706 0.56558 0.0
C559 C 0.47813 0.29834 0.59676 0.0
C560 C 0.44514 0.30593 0.60058 0.0
C561 C 0.42611 0.31203 0.57315 0.0
C562 C 0.44124 0.31096 0.54269 0.0
H563 H 0.51668 0.28934 0.5629 0.0
O564 O 0.53612 0.37599 0.49632 0.0
O565 O 0.49798 0.34092 0.48529 0.0
O566 O 0.56258 0.31476 0.48281 0.0
O567 O 0.5271 0.28036 0.50554 0.0
C568 C 0.39256 0.31857 0.57483 0.0
C569 C 0.37482 0.32435 0.54622 0.0
H570 H 0.3486 0.33328 0.48612 0.0
H571 H 0.379 0.32794 0.43425 0.0
H572 H 0.49282 0.29279 0.61775 0.0
H573 H 0.43457 0.30652 0.62465 0.0
H574 H 0.38026 0.31961 0.59805 0.0
H575 H 0.34916 0.32986 0.54783 0.0
Mn576 Mn 0.27515 0.37724 0.19662 0.0
Mn577 Mn 0.25296 0.42251 0.26014 0.0
C578 C 0.23401 0.35722 0.23077 0.0
C579 C 0.31258 0.33843 0.17974 0.0
C580 C 0.23818 0.43887 0.18976 0.0
O581 O 0.31188 0.41033 0.20159 0.0
O582 O 0.30043 0.42802 0.25192 0.0
C583 C 0.28769 0.38546 0.31103 0.0
N584 N 0.26024 0.40009 0.30004 0.0
C585 C 0.23114 0.38566 0.34851 0.0
C586 C 0.25917 0.37075 0.36046 0.0
C587 C 0.28749 0.37015 0.34144 0.0
C588 C 0.23242 0.39897 0.31737 0.0
H589 H 0.30941 0.38552 0.29671 0.0
C590 C 0.31928 0.42602 0.22718 0.0
O591 O 0.29852 0.35672 0.15824 0.0
O592 O 0.30469 0.3431 0.20964 0.0
N593 N 0.20789 0.42063 0.27156 0.0
C594 C 0.18218 0.43423 0.25581 0.0
C595 C 0.15188 0.4362 0.27131 0.0
C596 C 0.14849 0.42541 0.30337 0.0
C597 C 0.17545 0.41265 0.3196 0.0
C598 C 0.20493 0.4108 0.30269 0.0
H599 H 0.18482 0.44436 0.23193 0.0
O600 O 0.23719 0.34673 0.20127 0.0
O601 O 0.25372 0.38068 0.23789 0.0
O602 O 0.24655 0.41184 0.17722 0.0
O603 O 0.24281 0.44654 0.21954 0.0
C604 C 0.17424 0.40174 0.35195 0.0
C605 C 0.20195 0.38767 0.3662 0.0
H606 H 0.25898 0.35977 0.38415 0.0
H607 H 0.30922 0.35851 0.35041 0.0
H608 H 0.13135 0.44669 0.25879 0.0
H609 H 0.12515 0.42726 0.31537 0.0
H610 H 0.15184 0.40303 0.36568 0.0
H611 H 0.20045 0.37816 0.39063 0.0
Mn612 Mn 0.78736 0.09546 0.78559 0.0
Mn613 Mn 0.75846 0.05481 0.72052 0.0
C614 C 0.75742 0.12207 0.74652 0.0
C615 C 0.82865 0.12731 0.80734 0.0
C616 C 0.73049 0.04925 0.78808 0.0
O617 O 0.81467 0.05395 0.78516 0.0
O618 O 0.79721 0.03209 0.73794 0.0
C619 C 0.81381 0.0662 0.67609 0.0
N620 N 0.78162 0.0692 0.68298 0.0
C621 C 0.77246 0.09934 0.63392 0.0
C622 C 0.80556 0.09677 0.6265 0.0
C623 C 0.82635 0.08027 0.64778 0.0
C624 C 0.76147 0.08529 0.66281 0.0
H625 H 0.82976 0.05316 0.69205 0.0
C626 C 0.81602 0.03252 0.76267 0.0
O627 O 0.80841 0.11267 0.82659 0.0
O628 O 0.8256 0.12173 0.77673 0.0
N629 N 0.72139 0.07508 0.70124 0.0
C630 C 0.69008 0.07539 0.71194 0.0
C631 C 0.66596 0.09 0.69288 0.0
C632 C 0.6742 0.10386 0.66291 0.0
C633 C 0.70648 0.10285 0.65219 0.0
C634 C 0.72942 0.08767 0.67208 0.0
H635 H 0.68349 0.06444 0.73475 0.0
O636 O 0.76004 0.13431 0.77537 0.0
O637 O 0.77137 0.09434 0.7422 0.0
O638 O 0.7484 0.07041 0.80176 0.0
O639 O 0.73286 0.0405 0.7584 0.0
C640 C 0.71685 0.11654 0.62269 0.0
C641 C 0.74985 0.11502 0.61371 0.0
H642 H 0.81529 0.10722 0.60451 0.0
H643 H 0.85193 0.07807 0.64218 0.0
H644 H 0.64108 0.09059 0.70129 0.0
H645 H 0.65558 0.11533 0.6484 0.0
H646 H 0.69971 0.12856 0.60686 0.0
H647 H 0.75744 0.12564 0.59104 0.0
Mn648 Mn 0.13157 0.54796 0.04832 0.0
Mn649 Mn 0.20084 0.51498 0.01881 0.0
C650 C 0.12984 0.50652 0.00868 0.0
C651 C 0.08664 0.5835 0.04985 0.0
C652 C 0.18052 0.51231 0.08852 0.0
O653 O 0.16664 0.58436 0.05166 0.0
O654 O 0.2071 0.56242 0.02061 0.0
C655 C 0.20711 0.53903 0.95201 0.0
N656 N 0.20289 0.51388 0.97279 0.0
C657 C 0.20178 0.47535 0.929 0.0
C658 C 0.206 0.50075 0.90718 0.0
C659 C 0.20841 0.53283 0.9187 0.0
C660 C 0.20045 0.483 0.96194 0.0
H661 H 0.20889 0.56364 0.96079 0.0
C662 C 0.19313 0.58651 0.03474 0.0
O663 O 0.09837 0.57096 0.07591 0.0
O664 O 0.10197 0.57692 0.02317 0.0
N665 N 0.19478 0.46883 0.016 0.0
C666 C 0.19181 0.44665 0.04029 0.0
C667 C 0.18816 0.41368 0.03274 0.0
C668 C 0.18838 0.40358 0.00026 0.0
C669 C 0.19265 0.42657 0.9757 0.0
C670 C 0.19595 0.45919 0.98475 0.0
H671 H 0.19283 0.45377 0.06527 0.0
O672 O 0.10579 0.51025 0.02889 0.0
O673 O 0.1545 0.52418 0.01536 0.0
O674 O 0.15145 0.52099 0.08411 0.0
O675 O 0.20207 0.51361 0.06651 0.0
C676 C 0.19377 0.4184 0.94257 0.0
C677 C 0.19834 0.44281 0.91919 0.0
H678 H 0.20668 0.49536 0.88163 0.0
H679 H 0.21046 0.553 0.90224 0.0
H680 H 0.18552 0.39605 0.05196 0.0
H681 H 0.18564 0.37811 0.99448 0.0
H682 H 0.1911 0.39345 0.93481 0.0
H683 H 0.19904 0.43632 0.89374 0.0
Mn684 Mn 0.7293 0.89256 0.27282 0.0
Mn685 Mn 0.76861 0.9589 0.24726 0.0
C686 C 0.76753 0.88814 0.23126 0.0
C687 C 0.68461 0.85785 0.27445 0.0
C688 C 0.77382 0.92961 0.31426 0.0
O689 O 0.70101 0.9314 0.28668 0.0
O690 O 0.72342 0.9715 0.25718 0.0
C691 C 0.7374 0.98219 0.18771 0.0
N692 N 0.76385 0.96938 0.20265 0.0
C693 C 0.79731 0.97884 0.15584 0.0
C694 C 0.77062 0.99275 0.14021 0.0
C695 C 0.74035 0.99388 0.15603 0.0
C696 C 0.79296 0.96796 0.18759 0.0
H697 H 0.71433 0.98393 0.20004 0.0
C698 C 0.70028 0.96009 0.27457 0.0
O699 O 0.70304 0.86243 0.29928 0.0
O700 O 0.69202 0.87371 0.24815 0.0
N701 N 0.81235 0.94747 0.23619 0.0
C702 C 0.83575 0.93387 0.25496 0.0
C703 C 0.86691 0.92868 0.24209 0.0
C704 C 0.87371 0.93767 0.20997 0.0
C705 C 0.84917 0.95151 0.19099 0.0
C706 C 0.8185 0.95563 0.2051 0.0
H707 H 0.83047 0.92667 0.27932 0.0
O708 O 0.7599 0.86278 0.24844 0.0
O709 O 0.75321 0.9147 0.23971 0.0
O710 O 0.76303 0.90198 0.30704 0.0
O711 O 0.77558 0.9527 0.29401 0.0
C712 C 0.8539 0.96142 0.15866 0.0
C713 C 0.82807 0.97548 0.14121 0.0
H714 H 0.77334 0.00243 0.11607 0.0
H715 H 0.71925 0.00395 0.14428 0.0
H716 H 0.8856 0.91774 0.25688 0.0
H717 H 0.89778 0.93376 0.20012 0.0
H718 H 0.87737 0.95863 0.1471 0.0
H719 H 0.83205 0.98342 0.1165 0.0
Mn720 Mn 0.34038 0.46113 0.5085 0.0
Mn721 Mn 0.2751 0.48907 0.46833 0.0
C722 C 0.34654 0.50043 0.46906 0.0
C723 C 0.3865 0.4291 0.51452 0.0
C724 C 0.28736 0.49974 0.53981 0.0
O725 O 0.30716 0.42421 0.51227 0.0
O726 O 0.26922 0.44171 0.47612 0.0
C727 C 0.27597 0.45527 0.40487 0.0
N728 N 0.27883 0.48308 0.42244 0.0
C729 C 0.28849 0.51432 0.37407 0.0
C730 C 0.28619 0.48597 0.35559 0.0
C731 C 0.27994 0.45643 0.37109 0.0
C732 C 0.2843 0.51185 0.40769 0.0
H733 H 0.27126 0.43235 0.41657 0.0
C734 C 0.28234 0.41965 0.49389 0.0
O735 O 0.37235 0.44244 0.53923 0.0
O736 O 0.37189 0.43174 0.48684 0.0
N737 N 0.28122 0.53429 0.45934 0.0
C738 C 0.28088 0.55988 0.4803 0.0
C739 C 0.28669 0.59127 0.46862 0.0
C740 C 0.29238 0.59617 0.43543 0.0
C741 C 0.2917 0.56965 0.41416 0.0
C742 C 0.28577 0.53889 0.42723 0.0
H743 H 0.27597 0.55652 0.50573 0.0
O744 O 0.36685 0.49874 0.49303 0.0
O745 O 0.32161 0.48176 0.47162 0.0
O746 O 0.31614 0.48927 0.53986 0.0
O747 O 0.26861 0.498 0.51529 0.0
C748 C 0.29656 0.57257 0.38048 0.0
C749 C 0.29491 0.54492 0.36044 0.0
H750 H 0.28939 0.48652 0.32952 0.0
H751 H 0.27862 0.43466 0.35694 0.0
H752 H 0.28672 0.61167 0.48517 0.0
H753 H 0.29691 0.62042 0.4265 0.0
H754 H 0.30137 0.59601 0.36972 0.0
H755 H 0.29851 0.54747 0.33454 0.0
Mn756 Mn 0.21647 0.59396 0.7065 0.0
Mn757 Mn 0.25418 0.52996 0.73783 0.0
C758 C 0.25632 0.60188 0.74527 0.0
C759 C 0.18059 0.63696 0.70982 0.0
C760 C 0.25552 0.5478 0.66684 0.0
O761 O 0.18342 0.55678 0.7015 0.0
O762 O 0.20759 0.51871 0.73283 0.0
C763 C 0.22511 0.52763 0.8026 0.0
N764 N 0.25201 0.53037 0.78381 0.0
C765 C 0.28471 0.54562 0.82955 0.0
C766 C 0.25714 0.5438 0.84927 0.0
C767 C 0.22706 0.53559 0.83544 0.0
C768 C 0.28092 0.53917 0.7965 0.0
H769 H 0.2018 0.52201 0.79208 0.0
C770 C 0.18338 0.52906 0.71597 0.0
O771 O 0.19206 0.62783 0.68196 0.0
O772 O 0.18608 0.61798 0.73409 0.0
N773 N 0.29905 0.54076 0.74324 0.0
C774 C 0.32234 0.54501 0.72014 0.0
C775 C 0.35377 0.55417 0.72946 0.0
C776 C 0.36089 0.55902 0.76241 0.0
C777 C 0.3366 0.55421 0.78574 0.0
C778 C 0.30597 0.54427 0.77502 0.0
H779 H 0.31704 0.54137 0.69481 0.0
O780 O 0.2519 0.62325 0.72267 0.0
O781 O 0.24116 0.57498 0.74031 0.0
O782 O 0.24443 0.5762 0.67037 0.0
O783 O 0.25828 0.52768 0.69005 0.0
C784 C 0.34133 0.55962 0.81913 0.0
C785 C 0.31529 0.55564 0.84101 0.0
H786 H 0.25875 0.55013 0.87466 0.0
H787 H 0.20488 0.53706 0.84924 0.0
H788 H 0.37238 0.55775 0.71128 0.0
H789 H 0.38501 0.56662 0.76948 0.0
H790 H 0.36468 0.56756 0.82815 0.0
H791 H 0.31889 0.56089 0.86649 0.0
Mn792 Mn 0.64442 0.95874 0.94238 0.0
Mn793 Mn 0.70179 0.01106 0.96361 0.0
C794 C 0.63344 0.9955 0.98389 0.0
C795 C 0.62089 0.9075 0.94211 0.0
C796 C 0.66946 0.00738 0.8982 0.0
O797 O 0.688 0.93951 0.92719 0.0
O798 O 0.72258 0.96835 0.95795 0.0
C799 C 0.72653 0.98967 0.02711 0.0
N800 N 0.71106 0.01231 0.00883 0.0
C801 C 0.70545 0.04816 0.0545 0.0
C802 C 0.72175 0.02552 0.07364 0.0
C803 C 0.73198 0.99591 0.06005 0.0
C804 C 0.70071 0.04061 0.02184 0.0
H805 H 0.73453 0.96701 0.01666 0.0
C806 C 0.71562 0.94308 0.94112 0.0
O807 O 0.61923 0.92675 0.91757 0.0
O808 O 0.63626 0.91827 0.96754 0.0
N809 N 0.6822 0.0528 0.97017 0.0
C810 C 0.66984 0.0736 0.94776 0.0
C811 C 0.6578 0.10392 0.95762 0.0
C812 C 0.65956 0.11305 0.99036 0.0
C813 C 0.67394 0.09199 0.01276 0.0
C814 C 0.68526 0.06196 0.00146 0.0
H815 H 0.66992 0.06751 0.92248 0.0
O816 O 0.60963 0.98201 0.96817 0.0
O817 O 0.66204 0.98745 0.97395 0.0
O818 O 0.64421 0.99354 0.90826 0.0
O819 O 0.69421 0.012 0.91608 0.0
C820 C 0.67791 0.09982 0.04576 0.0
C821 C 0.69373 0.07792 0.06663 0.0
H822 H 0.72642 0.03098 0.09873 0.0
H823 H 0.744 0.97789 0.07474 0.0
H824 H 0.6476 0.12038 0.93995 0.0
H825 H 0.65041 0.13652 -0.0021 0.0
H826 H 0.6692 0.12275 0.05525 0.0
H827 H 0.69687 0.08424 0.09193 0.0
Mn828 Mn 0.83531 0.02881 0.47668 0.0
Mn829 Mn 0.76252 0.00229 0.50129 0.0
C830 C 0.83241 0.98728 0.51379 0.0
C831 C 0.88153 0.06078 0.4801 0.0
C832 C 0.78842 -0.00347 0.43283 0.0
O833 O 0.80408 0.0664 0.46732 0.0
O834 O 0.75983 0.05007 0.49607 0.0
C835 C 0.74879 0.03112 0.56558 0.0
N836 N 0.7565 0.00477 0.54719 0.0
C837 C 0.75394 0.96969 0.59372 0.0
C838 C 0.74683 -0.00343 0.61327 0.0
C839 C 0.74346 0.0272 0.59896 0.0
C840 C 0.75787 0.97481 0.56039 0.0
H841 H 0.74625 0.05482 0.55477 0.0
C842 C 0.77654 0.07173 0.48111 0.0
O843 O 0.87239 0.04814 0.45287 0.0
O844 O 0.86244 0.05681 0.50485 0.0
N845 N 0.7653 0.95631 0.5076 0.0
C846 C 0.76909 0.9324 0.48503 0.0
C847 C 0.77106 0.89996 0.49507 0.0
C848 C 0.76902 0.89238 0.52818 0.0
C849 C 0.76457 0.9173 0.55092 0.0
C850 C 0.76265 0.94918 0.53946 0.0
H851 H 0.77075 0.93794 0.45954 0.0
O852 O 0.85767 0.99007 0.49514 0.0
O853 O 0.80907 0.00743 0.50811 0.0
O854 O 0.81736 0.00211 0.44074 0.0
O855 O 0.76546 -0.00233 0.45353 0.0
C856 C 0.76184 0.91172 0.5845 0.0
C857 C 0.75641 0.9379 0.60588 0.0
H858 H 0.74297 0.99386 0.63911 0.0
H859 H 0.73605 0.04752 0.61355 0.0
H860 H 0.77431 0.88086 0.47734 0.0
H861 H 0.77071 0.86734 0.53585 0.0
H862 H 0.76346 0.88735 0.59409 0.0
H863 H 0.75376 0.93327 0.6316 0.0
C864 C 0.10476 0.17809 0.46642 0.0
C865 C 0.09207 0.19782 0.49169 0.0
C866 C 0.13578 0.2369 0.4839 0.0
C867 C 0.15115 0.21471 0.46256 0.0
N868 N 0.15019 0.16538 0.43111 0.0
N869 N 0.09508 0.24545 0.52547 0.0
C870 C 0.13549 0.18571 0.4529 0.0
C871 C 0.10729 0.22727 0.50055 0.0
N872 N 0.08685 0.15271 0.45477 0.0
N873 N 0.14761 0.26767 0.48692 0.0
H874 H 0.07344 0.23977 0.53722 0.0
H875 H 0.10727 0.26504 0.53571 0.0
H876 H 0.16737 0.27584 0.47343 0.0
H877 H 0.13596 0.28598 0.49991 0.0
H878 H 0.09307 0.13925 0.43432 0.0
H879 H 0.06409 0.14658 0.46401 0.0
H880 H 0.14227 0.14196 0.42618 0.0
H881 H 0.17139 0.17144 0.4187 0.0
C882 C 0.97146 0.84598 0.71695 0.0
C883 C 0.98975 0.86092 0.69191 0.0
C884 C 0.02701 0.81537 0.69016 0.0
C885 C 0.01235 0.8035 0.71865 0.0
N886 N 0.96557 0.79986 0.75319 0.0
N887 N 0.03063 0.85591 0.64948 0.0
C888 C 0.98259 0.8162 0.72995 0.0
C889 C 0.01552 0.84423 0.67642 0.0
N890 N 0.94427 0.86098 0.72873 0.0
N891 N 0.0527 0.79943 0.67663 0.0
H892 H 0.02386 0.87714 0.63753 0.0
H893 H 0.02386 0.87714 0.63753 0.0
H894 H 0.06059 0.77715 0.68549 0.0
H895 H 0.06481 0.80785 0.65606 0.0
H896 H 0.93129 0.85333 0.74893 0.0
H897 H 0.93457 0.88164 0.71794 0.0
H898 H 0.94296 0.80686 0.76197 0.0
H899 H 0.97334 0.77758 0.76228 0.0
C900 C 0.35746 0.79702 0.93448 0.0
C901 C 0.34079 0.77194 0.95097 0.0
C902 C 0.38418 0.76726 0.99056 0.0
C903 C 0.40194 0.79094 0.9732 0.0
N904 N 0.40788 0.82653 0.9272 0.0
N905 N 0.3413 0.72758 0.98886 0.0
C906 C 0.38923 0.80549 0.94477 0.0
C907 C 0.35503 0.75542 0.97734 0.0
N908 N 0.34274 0.81284 0.90939 0.0
N909 N 0.39453 0.75701 0.02033 0.0
H910 H 0.32047 0.71753 0.9787 0.0
H911 H 0.35237 0.71266 0.00593 0.0
H912 H 0.41552 0.76569 0.03133 0.0
H913 H 0.38067 0.74239 0.03554 0.0
H914 H 0.3518 0.83383 0.89879 0.0
H915 H 0.32043 0.80566 0.8999 0.0
H916 H 0.40152 0.83527 0.90444 0.0
H917 H 0.43088 0.83398 0.93456 0.0
C918 C 0.47551 0.0844 0.24427 0.0
C919 C 0.50347 0.08181 0.22397 0.0
C920 C 0.50237 0.14034 0.21494 0.0
C921 C 0.47383 0.14334 0.2342 0.0
N922 N 0.44433 0.11986 0.27927 0.0
N923 N 0.5525 0.11093 0.21033 0.0
C924 C 0.4634 0.11582 0.25237 0.0
C925 C 0.51983 0.11091 0.21571 0.0
N926 N 0.46098 0.05763 0.25709 0.0
N927 N 0.51287 0.16453 0.19496 0.0
H928 H 0.56679 0.09059 0.21484 0.0
H929 H 0.56564 0.13216 0.20638 0.0
H930 H 0.501 0.18644 0.1917 0.0
H931 H 0.5321 0.16119 0.17879 0.0
H932 H 0.43754 0.05824 0.26666 0.0
H933 H 0.47243 0.03531 0.25948 0.0
H934 H 0.43829 0.10096 0.29487 0.0
H935 H 0.43844 0.14257 0.28873 0.0
C936 C 0.63356 0.24646 0.51523 0.0
C937 C 0.64882 0.26993 0.53535 0.0
C938 C 0.59749 0.2989 0.54197 0.0
C939 C 0.58343 0.27785 0.5186 0.0
N940 N 0.58617 0.23135 0.48368 0.0
N941 N 0.64427 0.31323 0.57456 0.0
C942 C 0.60074 0.2511 0.50594 0.0
C943 C 0.63038 0.29447 0.55096 0.0
N944 N 0.65009 0.21909 0.50633 0.0
N945 N 0.57986 0.32459 0.55361 0.0
H946 H 0.66873 0.31174 0.58081 0.0
H947 H 0.63144 0.32907 0.58948 0.0
H948 H 0.55537 0.32792 0.54826 0.0
H949 H 0.58941 0.34341 0.56739 0.0
H950 H 0.63968 0.19959 0.49419 0.0
H951 H 0.67389 0.21462 0.51342 0.0
H952 H 0.59836 0.2139 0.47006 0.0
H953 H 0.56155 0.23326 0.47813 0.0
C954 C 0.98048 0.35928 0.7584 0.0
C955 C 0.95733 0.34551 0.77972 0.0
C956 C 0.96228 0.39129 0.81686 0.0
C957 C 0.98653 0.4042 0.79613 0.0
N958 N 0.02263 0.3992 0.75029 0.0
N959 N 0.92064 0.35048 0.82499 0.0
C960 C -0.00337 0.38794 0.76764 0.0
C961 C 0.94658 0.36207 0.80785 0.0
N962 N 0.98551 0.34587 0.72846 0.0
N963 N 0.95508 0.40657 0.84545 0.0
H964 H 0.90813 0.32956 0.81833 0.0
H965 H 0.90972 0.36259 0.84428 0.0
H966 H 0.96601 0.4282 0.85253 0.0
H967 H 0.93989 0.39713 0.86322 0.0
H968 H -0.00058 0.3566 0.71035 0.0
H969 H 0.97299 0.32551 0.72044 0.0
H970 H 0.0336 0.38638 0.73146 0.0
H971 H 0.03517 0.42029 0.75637 0.0
C972 C 0.8115 0.7394 0.98674 0.0
C973 C 0.79498 0.72898 0.01502 0.0
C974 C 0.83625 0.68739 0.02472 0.0
C975 C 0.8542 0.70023 -0.00158 0.0
N976 N 0.85496 0.72961 0.94816 0.0
N977 N 0.78662 0.68914 0.05658 0.0
C978 C 0.84034 0.72326 0.97723 0.0
C979 C 0.80559 0.70126 0.03231 0.0
N980 N 0.80106 0.76634 0.97062 0.0
N981 N 0.84937 0.66329 0.04329 0.0
H982 H 0.76455 0.6997 0.06286 0.0
H983 H 0.7914 0.66778 0.06904 0.0
H984 H 0.87127 0.65193 0.03752 0.0
H985 H 0.83933 0.65498 0.06487 0.0
H986 H 0.81422 0.77775 0.95236 0.0
H987 H 0.7797 0.77831 0.97682 0.0
H988 H 0.84474 0.74419 0.9303 0.0
H989 H 0.87602 0.71766 0.94065 0.0
C990 C 0.50551 0.63523 0.2332 0.0
C991 C 0.52954 0.65078 0.25227 0.0
C992 C 0.53983 0.60086 0.28203 0.0
C993 C 0.51663 0.58472 0.26215 0.0
N994 N 0.48034 0.58476 0.21635 0.0
N995 N 0.57381 0.64787 0.29035 0.0
C996 C 0.50056 0.60131 0.23673 0.0
C997 C 0.54809 0.63338 0.27521 0.0
N998 N 0.48698 0.65312 0.21232 0.0
N999 N 0.55311 0.58555 0.30831 0.0
H1000 H 0.57962 0.67231 0.28757 0.0
H1001 H 0.59088 0.63521 0.30397 0.0
H1002 H 0.54945 0.56117 0.31366 0.0
H1003 H 0.56634 0.59749 0.32617 0.0
H1004 H 0.46684 0.64414 0.20011 0.0
H1005 H 0.49045 0.67787 0.20862 0.0
H1006 H 0.47044 0.59459 0.19537 0.0
H1007 H 0.47501 0.56024 0.21912 0.0
C1008 C 0.23259 0.49208 0.16073 0.0
C1009 C 0.21961 0.46135 0.16913 0.0
C1010 C 0.17565 0.46817 0.1299 0.0
C1011 C 0.18994 0.49773 0.11976 0.0
N1012 N 0.22558 0.54241 0.13097 0.0
N1013 N 0.17518 0.42272 0.16524 0.0
C1014 C 0.21645 0.51115 0.137 0.0
C1015 C 0.19002 0.45051 0.15529 0.0
N1016 N 0.26122 0.50216 0.174 0.0
N1017 N 0.14898 0.45579 0.11457 0.0
H1018 H 0.18342 0.40804 0.18408 0.0
H1019 H 0.18342 0.40804 0.18408 0.0
H1020 H 0.13767 0.46679 0.09491 0.0
H1021 H 0.13835 0.43386 0.12133 0.0
H1022 H 0.27415 0.52223 0.1659 0.0
H1023 H 0.27313 0.48948 0.19226 0.0
H1024 H 0.24284 0.55489 0.14447 0.0
H1025 H 0.21356 0.55701 0.11418 0.0
C1026 C 0.66506 0.04383 0.85043 0.0
C1027 C 0.67274 0.01324 0.86334 0.0
C1028 C 0.70883 0.00148 0.81802 0.0
C1029 C 0.7055 0.03428 0.80835 0.0
N1030 N 0.67518 0.08443 0.81013 0.0
N1031 N 0.68854 0.95835 0.8524 0.0
C1032 C 0.68154 0.05451 0.8226 0.0
C1033 C 0.6903 0.99043 0.8447 0.0
N1034 N 0.6421 0.06317 0.86423 0.0
N1035 N 0.73114 0.98176 0.80335 0.0
H1036 H 0.67277 0.95008 0.87034 0.0
H1037 H 0.69918 0.93994 0.83871 0.0
H1038 H 0.74441 0.98868 0.78301 0.0
H1039 H 0.73754 0.95899 0.81212 0.0
H1040 H 0.62791 0.05598 0.88395 0.0
H1041 H 0.62791 0.05598 0.88395 0.0
H1042 H 0.65828 0.10023 0.82054 0.0
H1043 H 0.68621 0.09267 0.78894 0.0
C1044 C 0.75012 0.94584 0.36693 0.0
C1045 C 0.77822 0.93826 0.34849 0.0
C1046 C 0.80988 0.9767 0.37941 0.0
C1047 C 0.78274 0.98272 0.3999 0.0
N1048 N 0.7243 0.98449 0.40287 0.0
N1049 N 0.83609 0.9374 0.34481 0.0
C1050 C 0.7519 0.9703 0.39109 0.0
C1051 C 0.80852 0.95088 0.3572 0.0
N1052 N 0.72194 0.92931 0.36165 0.0
N1053 N 0.8356 -0.00248 0.37876 0.0
H1054 H 0.83517 0.91609 0.33118 0.0
H1055 H 0.85928 0.94447 0.35196 0.0
H1056 H 0.83503 0.01994 0.3905 0.0
H1057 H 0.85491 0.99496 0.36258 0.0
H1058 H 0.70146 0.93162 0.37629 0.0
H1059 H 0.7202 0.91046 0.34494 0.0
H1060 H 0.70102 0.97811 0.39552 0.0
H1061 H 0.72473 0.00608 0.41605 0.0
C1062 C 0.28765 0.55143 0.61532 0.0
C1063 C 0.26257 0.53666 0.6336 0.0
C1064 C 0.25092 0.49971 0.58843 0.0
C1065 C 0.27587 0.51474 0.57018 0.0
N1066 N 0.31664 0.55666 0.56509 0.0
N1067 N 0.21519 0.50225 0.63493 0.0
C1068 C 0.29352 0.54126 0.5832 0.0
C1069 C 0.24271 0.51234 0.61941 0.0
N1070 N 0.30683 0.57517 0.62796 0.0
N1071 N 0.23638 0.47218 0.57708 0.0
H1072 H 0.2082 0.51086 0.6576 0.0
H1073 H 0.19771 0.48757 0.62417 0.0
H1074 H 0.24126 0.46239 0.55431 0.0
H1075 H 0.22125 0.45764 0.5911 0.0
H1076 H 0.30492 0.58406 0.65158 0.0
H1077 H 0.30492 0.58406 0.65158 0.0
H1078 H 0.3302 0.57607 0.57403 0.0
H1079 H 0.32172 0.55067 0.54103 0.0
C1080 C 0.29069 0.36915 0.46138 0.0
C1081 C 0.27312 0.38571 0.48616 0.0
C1082 C 0.23621 0.33946 0.49091 0.0
C1083 C 0.25131 0.32495 0.46353 0.0
N1084 N 0.29306 0.32497 0.42245 0.0
N1085 N 0.22765 0.38831 0.52274 0.0
C1086 C 0.2786 0.33959 0.44865 0.0
C1087 C 0.24541 0.37133 0.50045 0.0
N1088 N 0.31931 0.38163 0.4504 0.0
N1089 N 0.21412 0.32225 0.50856 0.0
H1090 H 0.23467 0.41106 0.53116 0.0
H1091 H 0.20515 0.38075 0.53137 0.0
H1092 H 0.20799 0.29843 0.50289 0.0
H1093 H 0.20434 0.33028 0.53045 0.0
H1094 H 0.33463 0.3706 0.43367 0.0
H1095 H 0.32944 0.40222 0.4604 0.0
H1096 H 0.31152 0.33519 0.40868 0.0
H1097 H 0.28527 0.30303 0.41264 0.0
C1098 C 0.89416 0.00758 0.72593 0.0
C1099 C 0.89616 0.97394 0.73307 0.0
C1100 C 0.8461 0.97904 0.76528 0.0
C1101 C 0.84595 0.01297 0.75928 0.0
N1102 N 0.87347 0.06029 0.73835 0.0
N1103 N 0.87611 0.92801 0.7627 0.0
C1104 C 0.87157 0.02737 0.74181 0.0
C1105 C 0.87269 0.95966 0.75377 0.0
N1106 N 0.91254 0.02155 0.70247 0.0
N1107 N 0.82056 0.96549 0.78136 0.0
H1108 H 0.89503 0.9135 0.75408 0.0
H1109 H 0.8615 0.91673 0.7799 0.0
H1110 H 0.80213 0.97959 0.79159 0.0
H1111 H 0.81715 0.94061 0.78371 0.0
H1112 H 0.92879 0.00879 0.68793 0.0
H1113 H 0.92879 0.00879 0.68793 0.0
H1114 H 0.89219 0.07156 0.72555 0.0
H1115 H 0.85717 0.07631 0.74911 0.0
C1116 C 0.20707 0.65532 0.97704 0.0
C1117 C 0.23762 0.66748 0.98724 0.0
C1118 C 0.23603 0.63026 0.034 0.0
C1119 C 0.20518 0.61881 0.02385 0.0
N1120 N 0.15971 0.62368 0.98739 0.0
N1121 N 0.27811 0.67131 0.02904 0.0
C1122 C 0.19022 0.63271 -0.00376 0.0
C1123 C 0.25121 0.65641 0.01689 0.0
N1124 N 0.19265 0.66525 0.94905 0.0
N1125 N 0.25114 0.61548 0.05944 0.0
H1126 H 0.28981 0.69003 0.01684 0.0
H1127 H 0.28745 0.66672 0.052 0.0
H1128 H 0.23981 0.5976 0.07328 0.0
H1129 H 0.27515 0.61986 0.0659 0.0
H1130 H 0.20273 0.68168 0.93274 0.0
H1131 H 0.20273 0.68168 0.93274 0.0
H1132 H 0.14794 0.63262 0.96686 0.0
H1133 H 0.14564 0.60867 0.0017 0.0
C1134 C 0.61208 0.96563 0.26288 0.0
C1135 C 0.61118 0.99194 0.23994 0.0
C1136 C 0.66593 0.00801 0.25729 0.0
C1137 C 0.66866 0.97825 0.27414 0.0
N1138 N 0.63941 0.94387 0.31047 0.0
N1139 N 0.63054 0.0464 0.23037 0.0
C1140 C 0.63996 0.96204 0.28285 0.0
C1141 C 0.63614 0.01581 0.2417 0.0
N1142 N 0.58785 0.94311 0.26517 0.0
N1143 N 0.69163 0.02881 0.2567 0.0
H1144 H 0.60786 0.05378 0.22213 0.0
H1145 H 0.64684 0.06549 0.23267 0.0
H1146 H 0.71135 0.02599 0.2723 0.0
H1147 H 0.69336 0.04854 0.24111 0.0
H1148 H 0.58906 0.92316 0.28052 0.0
H1149 H 0.56733 0.94188 0.25086 0.0
H1150 H 0.61843 0.9335 0.31998 0.0
H1151 H 0.65925 0.94318 0.32616 0.0
C1152 C 0.7766 0.15131 0.52657 0.0
C1153 C 0.75097 0.16799 0.51088 0.0
C1154 C 0.74347 0.12256 0.47318 0.0
C1155 C 0.76868 0.1057 0.48932 0.0
N1156 N 0.8105 0.10384 0.53009 0.0
N1157 N 0.71466 0.17355 0.46564 0.0
C1158 C 0.78582 0.12028 0.51539 0.0
C1159 C 0.73576 0.15485 0.48299 0.0
N1160 N 0.79134 0.16482 0.55306 0.0
N1161 N 0.72658 0.10734 0.44909 0.0
H1162 H 0.70931 0.19743 0.47202 0.0
H1163 H 0.70445 0.16654 0.44368 0.0
H1164 H 0.73256 0.08414 0.44084 0.0
H1165 H 0.7058 0.1168 0.43838 0.0
H1166 H 0.80832 0.15337 0.56768 0.0
H1167 H 0.78565 0.18771 0.56174 0.0
H1168 H 0.8278 0.1142 0.54518 0.0
H1169 H 0.81415 0.07928 0.52655 0.0
C1170 C 0.1226 0.52008 0.70527 0.0
C1171 C 0.15298 0.50873 0.71685 0.0
C1172 C 0.12524 0.46794 0.74988 0.0
C1173 C 0.09591 0.48556 0.74582 0.0
N1174 N 0.06426 0.51144 0.70397 0.0
N1175 N 0.18022 0.45894 0.73049 0.0
C1176 C 0.09356 0.50672 0.71864 0.0
C1177 C 0.15354 0.47845 0.73319 0.0
N1178 N 0.12149 0.54192 0.68051 0.0
N1179 N 0.12579 0.44081 0.76874 0.0
H1180 H 0.19933 0.46457 0.71484 0.0
H1181 H 0.18167 0.4357 0.74015 0.0
H1182 H 0.10456 0.42916 0.77608 0.0
H1183 H 0.14709 0.42969 0.77651 0.0
H1184 H 0.10058 0.55427 0.67364 0.0
H1185 H 0.14152 0.54659 0.66579 0.0
H1186 H 0.06077 0.52583 0.6836 0.0
H1187 H 0.0441 0.49721 0.70942 0.0
C1188 C 0.72589 0.88259 0.93755 0.0
C1189 C 0.73701 0.91397 0.94568 0.0
C1190 C 0.76523 0.89322 0.99294 0.0
C1191 C 0.75036 0.86233 0.98816 0.0
N1192 N 0.72779 0.82494 0.94875 0.0
N1193 N 0.7832 0.94242 0.96649 0.0
C1194 C 0.73431 0.85607 0.95802 0.0
C1195 C 0.76258 0.91669 0.96814 0.0
N1196 N 0.70726 0.87839 0.91057 0.0
N1197 N 0.77903 0.90186 0.02177 0.0
H1198 H 0.78163 0.95928 0.94767 0.0
H1199 H 0.80358 0.9446 0.98128 0.0
H1200 H 0.77944 0.88733 0.04224 0.0
H1201 H 0.78706 0.92536 0.02645 0.0
H1202 H 0.69411 0.85744 0.90565 0.0
H1203 H 0.70533 0.89638 0.89291 0.0
H1204 H 0.71829 0.81865 0.92625 0.0
H1205 H 0.73465 0.80489 0.96238 0.0
C1206 C 0.3721 0.42544 0.25602 0.0
C1207 C 0.35304 0.4385 0.23089 0.0
C1208 C 0.39575 0.47917 0.22069 0.0
C1209 C 0.41174 0.46924 0.24949 0.0
N1210 N 0.4103 0.4368 0.29809 0.0
N1211 N 0.3464 0.47771 0.18823 0.0
C1212 C 0.39868 0.44328 0.26796 0.0
C1213 C 0.36492 0.4652 0.21259 0.0
N1214 N 0.36515 0.39547 0.26813 0.0
N1215 N 0.41003 0.50176 0.2012 0.0
H1216 H 0.32481 0.46694 0.18078 0.0
H1217 H 0.35169 0.49928 0.17633 0.0
H1218 H 0.43206 0.51273 0.20708 0.0
H1219 H 0.40128 0.50806 0.17841 0.0
H1220 H 0.38001 0.38345 0.28463 0.0
H1221 H 0.34701 0.38091 0.25823 0.0
H1222 H 0.39989 0.42007 0.31387 0.0
H1223 H 0.42714 0.45176 0.3089 0.0
C1224 C 0.50443 0.24393 0.38364 0.0
C1225 C 0.49506 0.276 0.39217 0.0
C1226 C 0.45566 0.27652 0.34787 0.0
C1227 C 0.46751 0.24612 0.33702 0.0
N1228 N 0.50464 0.20144 0.34254 0.0
N1229 N 0.46571 0.32503 0.3791 0.0
C1230 C 0.49227 0.22983 0.35442 0.0
C1231 C 0.47193 0.29298 0.37322 0.0
N1232 N 0.52466 0.22698 0.40361 0.0
N1233 N 0.42798 0.28915 0.33468 0.0
H1234 H 0.47646 0.338 0.39793 0.0
H1235 H 0.45193 0.33949 0.36367 0.0
H1236 H 0.41495 0.27736 0.31651 0.0
H1237 H 0.41621 0.30956 0.34387 0.0
H1238 H 0.5298 0.20243 0.40072 0.0
H1239 H 0.53502 0.23725 0.42426 0.0
H1240 H 0.525 0.18997 0.35209 0.0
H1241 H 0.49542 0.19019 0.32183 0.0
C1242 C 0.01882 0.24139 0.62697 0.0
C1243 C 0.00638 0.21056 0.61801 0.0
C1244 C 0.96459 0.21502 0.6595 0.0
C1245 C 0.9775 0.24521 0.66994 0.0
N1246 N 0.02006 0.2849 0.66696 0.0
N1247 N 0.96983 0.16603 0.62875 0.0
C1248 C 0.00559 0.25785 0.6546 0.0
C1249 C 0.98043 0.19671 0.63553 0.0
N1250 N 0.04291 0.25497 0.60881 0.0
N1251 N 0.93668 0.20278 0.67197 0.0
H1252 H 0.98036 0.15129 0.6111 0.0
H1253 H 0.95082 0.15504 0.64136 0.0
H1254 H 0.92227 0.21498 0.68874 0.0
H1255 H 0.92227 0.21498 0.68874 0.0
H1256 H 0.05074 0.27879 0.61157 0.0
H1257 H 0.05424 0.24243 0.58995 0.0
H1258 H 0.04235 0.29368 0.65902 0.0
H1259 H 0.01047 0.29752 0.68669 0.0
C1260 C 0.95814 0.75399 0.88584 0.0
C1261 C 0.97152 0.72915 0.90547 0.0
C1262 C 0.0248 0.73887 0.8815 0.0
C1263 C 0.01065 0.75849 0.85764 0.0
N1264 N 0.9639 0.78602 0.83652 0.0
N1265 N 0.01535 0.69112 0.9123 0.0
C1266 C 0.97721 0.76663 0.85968 0.0
C1267 C 0.00438 0.71996 0.90095 0.0
N1268 N 0.92763 0.76524 0.8921 0.0
N1269 N 0.05773 0.73654 0.88422 0.0
H1270 H -0.0008 0.67418 0.92115 0.0
H1271 H 0.0386 0.68215 0.9077 0.0
H1272 H 0.07355 0.74935 0.86924 0.0
H1273 H 0.06893 0.72406 0.90313 0.0
H1274 H 0.91747 0.7851 0.88029 0.0
H1275 H 0.91323 0.75559 0.91052 0.0
H1276 H 0.93908 0.7903 0.83447 0.0
H1277 H 0.97821 0.79719 0.81888 0.0
C1278 C 0.46785 0.76684 0.15113 0.0
C1279 C 0.49373 0.74413 0.15521 0.0
C1280 C 0.48953 0.72994 0.09751 0.0
C1281 C 0.47344 0.7598 0.09228 0.0
N1282 N 0.43111 0.79391 0.11354 0.0
N1283 N 0.51934 0.69553 0.13459 0.0
C1284 C 0.45757 0.77468 0.11903 0.0
C1285 C 0.50131 0.72277 0.12905 0.0
N1286 N 0.45248 0.77988 0.17746 0.0
N1287 N 0.49102 0.7076 0.07306 0.0
H1288 H 0.52369 0.68682 0.15791 0.0
H1289 H 0.52985 0.68162 0.11627 0.0
H1290 H 0.47827 0.7107 0.05145 0.0
H1291 H 0.50098 0.68455 0.07546 0.0
H1292 H 0.453 0.76916 0.20024 0.0
H1293 H 0.43683 0.79963 0.1766 0.0
H1294 H 0.41806 0.80609 0.13139 0.0
H1295 H 0.42006 0.79506 0.09083 0.0
C1296 C 0.23964 0.28865 0.29193 0.0
C1297 C 0.21729 0.30004 0.31547 0.0
C1298 C 0.19564 0.33799 0.27465 0.0
C1299 C 0.22416 0.33346 0.25624 0.0
N1300 N 0.26785 0.29699 0.24172 0.0
N1301 N 0.16844 0.33125 0.32647 0.0
C1302 C 0.24459 0.3066 0.26321 0.0
C1303 C 0.1931 0.32303 0.30587 0.0
N1304 N 0.25347 0.2587 0.29531 0.0
N1305 N 0.17095 0.3558 0.26168 0.0
H1306 H 0.1671 0.32378 0.35046 0.0
H1307 H 0.14993 0.34734 0.32064 0.0
H1308 H 0.17271 0.36597 0.23858 0.0
H1309 H 0.14807 0.35815 0.27211 0.0
H1310 H 0.26799 0.24786 0.27772 0.0
H1311 H 0.24682 0.24268 0.31361 0.0
H1312 H 0.28807 0.28331 0.2483 0.0
H1313 H 0.26567 0.30096 0.21696 0.0
C1314 C 0.8359 0.99086 0.57485 0.0
C1315 C 0.83665 0.97174 0.54584 0.0
C1316 C 0.86041 0.92685 0.57655 0.0
C1317 C 0.86582 0.94871 0.60243 0.0
N1318 N 0.8421 0.9916 0.63328 0.0
N1319 N 0.84753 0.92055 0.51954 0.0
C1320 C 0.84785 0.97744 0.6039 0.0
C1321 C 0.84761 0.93909 0.54703 0.0
N1322 N 0.8275 0.02285 0.57445 0.0
N1323 N 0.86581 0.89451 0.58083 0.0
H1324 H 0.83738 0.9285 0.49782 0.0
H1325 H 0.85875 0.89798 0.51781 0.0
H1326 H 0.87133 0.88482 0.60348 0.0
H1327 H 0.86036 0.87698 0.5635 0.0
H1328 H 0.83158 0.03836 0.59392 0.0
H1329 H 0.8185 0.0348 0.55444 0.0
H1330 H 0.82575 0.01063 0.63638 0.0
H1331 H 0.8505 0.98132 0.65483 0.0
C1332 C 0.23653 0.61347 0.80342 0.0
C1333 C 0.26137 0.61492 0.77896 0.0
C1334 C 0.2864 0.65965 0.80908 0.0
C1335 C 0.26356 0.65587 0.83486 0.0
N1336 N 0.22348 0.62167 0.86007 0.0
N1337 N 0.31438 0.6341 0.764 0.0
C1338 C 0.24082 0.63036 0.83318 0.0
C1339 C 0.28796 0.63598 0.78396 0.0
N1340 N 0.2076 0.59834 0.79808 0.0
N1341 N 0.30466 0.68716 0.80663 0.0
H1342 H 0.316 0.61726 0.74515 0.0
H1343 H 0.33573 0.64688 0.76837 0.0
H1344 H 0.30201 0.70703 0.82201 0.0
H1345 H 0.31944 0.69204 0.78669 0.0
H1346 H 0.18763 0.60144 0.81335 0.0
H1347 H 0.2024 0.58401 0.77814 0.0
H1348 H 0.20828 0.60151 0.86058 0.0
H1349 H 0.22709 0.63222 0.88277 0.0
C1350 C 0.63702 0.00404 0.07583 0.0
C1351 C 0.61396 0.02876 0.08118 0.0
C1352 C 0.60975 0.03699 0.02222 0.0
C1353 C 0.62831 0.00844 0.01719 0.0
N1354 N 0.65512 0.96138 0.04016 0.0
N1355 N 0.5781 0.06972 0.05963 0.0
C1356 C 0.64113 0.9912 0.04421 0.0
C1357 C 0.6008 0.04611 0.05444 0.0
N1358 N 0.65431 0.99226 0.10148 0.0
N1359 N 0.60076 0.05535 -0.0038 0.0
H1360 H 0.57217 0.07839 0.08259 0.0
H1361 H 0.56419 0.07996 0.04126 0.0
H1362 H 0.60623 0.04879 0.97236 0.0
H1363 H 0.59027 0.07823 -0.00175 0.0
H1364 H 0.67333 0.97576 0.09906 0.0
H1365 H 0.6517 0.00181 0.12483 0.0
H1366 H 0.66152 0.94641 0.05943 0.0
H1367 H 0.65774 0.95002 0.01777 0.0
C1368 C 0.71198 0.17538 0.68677 0.0
C1369 C 0.73826 0.18489 0.66628 0.0
C1370 C 0.77643 0.15535 0.69987 0.0
C1371 C 0.75034 0.14369 0.71912 0.0
N1372 N 0.69528 0.15079 0.73759 0.0
N1373 N 0.79441 0.20137 0.66937 0.0
C1374 C 0.71866 0.15631 0.71472 0.0
C1375 C 0.77032 0.18014 0.67743 0.0
N1376 N 0.68094 0.18498 0.68043 0.0
N1377 N 0.80719 0.14338 0.70289 0.0
H1378 H 0.78951 0.22345 0.65814 0.0
H1379 H 0.81781 0.19993 0.67884 0.0
H1380 H 0.81368 0.1253 0.71907 0.0
H1381 H 0.82576 0.14948 0.68681 0.0
H1382 H 0.66065 0.1735 0.69016 0.0
H1383 H 0.67533 0.20553 0.66701 0.0
H1384 H 0.67261 0.16193 0.73759 0.0
H1385 H 0.69938 0.13664 0.75805 0.0
C1386 C 0.11648 0.4639 0.96606 0.0
C1387 C 0.12415 0.49649 0.97409 0.0
C1388 C 0.12488 0.51017 0.91588 0.0
C1389 C 0.11259 0.47931 0.90834 0.0
N1390 N 0.1114 0.42305 0.92371 0.0
N1391 N 0.13121 0.55203 0.95555 0.0
C1392 C 0.1125 0.45489 0.9327 0.0
C1393 C 0.12744 0.51991 0.94868 0.0
N1394 N 0.11259 0.44174 0.99033 0.0
N1395 N 0.13545 0.52976 0.89131 0.0
H1396 H 0.13445 0.56095 0.97867 0.0
H1397 H 0.12879 0.57034 0.93837 0.0
H1398 H 0.13689 0.52158 0.86737 0.0
H1399 H 0.14663 0.55209 0.8949 0.0
H1400 H 0.10365 0.41845 0.98673 0.0
H1401 H 0.11674 0.44729 0.01466 0.0
H1402 H 0.11325 0.4038 0.93985 0.0
H1403 H 0.11347 0.41579 0.89959 0.0
C1404 C 0.81195 0.86833 0.19325 0.0
C1405 C 0.78193 0.88472 0.19834 0.0
C1406 C 0.78013 0.89746 0.14074 0.0
C1407 C 0.80364 0.87354 0.13452 0.0
N1408 N 0.8479 0.84149 0.15447 0.0
N1409 N 0.7332 0.90715 0.17388 0.0
C1410 C 0.82198 0.8611 0.16074 0.0
C1411 C 0.76493 0.89772 0.17134 0.0
N1412 N 0.83049 0.8597 0.21923 0.0
N1413 N 0.76912 0.91604 0.11578 0.0
H1414 H 0.71945 0.90446 0.1949 0.0
H1415 H 0.71935 0.91405 0.15393 0.0
H1416 H 0.78034 0.91525 0.09307 0.0
H1417 H 0.75101 0.93347 0.11842 0.0
H1418 H 0.85375 0.85004 0.21718 0.0
H1419 H 0.8234 0.86441 0.24307 0.0
H1420 H 0.86004 0.8282 0.17213 0.0
H1421 H 0.85728 0.8389 0.1311 0.0
C1422 C 0.37725 0.53879 0.43397 0.0
C1423 C 0.35977 0.50941 0.43676 0.0
C1424 C 0.37675 0.49513 0.3817 0.0
C1425 C 0.40049 0.51946 0.38273 0.0
N1426 N 0.42513 0.56425 0.41187 0.0
N1427 N 0.35004 0.45552 0.41381 0.0
C1428 C 0.40093 0.54185 0.40904 0.0
C1429 C 0.36091 0.48654 0.41063 0.0
N1430 N 0.37183 0.56332 0.45559 0.0
N1431 N 0.3699 0.47968 0.35321 0.0
H1432 H 0.33954 0.44642 0.43455 0.0
H1433 H 0.35422 0.43769 0.39631 0.0
H1434 H 0.38005 0.48698 0.33121 0.0
H1435 H 0.35156 0.46245 0.35102 0.0
H1436 H 0.38185 0.58635 0.45298 0.0
H1437 H 0.35473 0.56147 0.4742 0.0
H1438 H 0.42818 0.57856 0.43249 0.0
H1439 H 0.44388 0.56676 0.39516 0.0
C1440 C 0.30709 0.18408 0.38055 0.0
C1441 C 0.27564 0.18758 0.36837 0.0
C1442 C 0.2987 0.18936 0.31347 0.0
C1443 C 0.32936 0.19684 0.32742 0.0
N1444 N 0.36344 0.19801 0.37511 0.0
N1445 N 0.2432 0.17111 0.32296 0.0
C1446 C 0.33376 0.19363 0.36129 0.0
C1447 C 0.2718 0.18311 0.33444 0.0
N1448 N 0.31176 0.16201 0.40424 0.0
N1449 N 0.29525 0.18896 0.28052 0.0
H1450 H 0.22497 0.16323 0.3387 0.0
H1451 H 0.23881 0.16564 0.29873 0.0
H1452 H 0.31452 0.19317 0.26465 0.0
H1453 H 0.27312 0.18623 0.26876 0.0
H1454 H 0.33484 0.15435 0.4113 0.0
H1455 H 0.29235 0.14763 0.41178 0.0
H1456 H 0.36665 0.19678 0.40018 0.0
H1457 H 0.38399 0.20444 0.36177 0.0
C1458 C 0.0373 0.00403 0.61231 0.0
C1459 C 0.0067 0.00485 0.62819 0.0
C1460 C 0.01141 0.06347 0.63397 0.0
C1461 C 0.03807 0.06389 0.61264 0.0
N1462 N 0.07804 0.03399 0.58186 0.0
N1463 N 0.96001 0.03785 0.64067 0.0
C1464 C 0.052 0.03393 0.60232 0.0
C1465 C 0.99258 0.03522 0.63593 0.0
N1466 N 0.05201 0.9749 0.60662 0.0
N1467 N 0.00221 0.09117 0.64966 0.0
H1468 H 0.94457 0.01865 0.63556 0.0
H1469 H 0.94823 0.05998 0.64421 0.0
H1470 H 0.01607 0.11232 0.64834 0.0
H1471 H 0.98302 0.09186 0.66618 0.0
H1472 H 0.07563 0.97264 0.59789 0.0
H1473 H 0.04119 0.95292 0.61283 0.0
H1474 H 0.0867 0.01333 0.57015 0.0
H1475 H 0.0907 0.05503 0.57615 0.0
C1476 C 0.20713 0.81264 0.85854 0.0
C1477 C 0.20366 0.78636 0.88063 0.0
C1478 C 0.1452 0.79619 0.88073 0.0
C1479 C 0.14798 0.81403 0.85198 0.0
N1480 N 0.1818 0.84291 0.81464 0.0
N1481 N 0.16595 0.7475 0.90424 0.0
C1482 C 0.17909 0.8242 0.84169 0.0
C1483 C 0.17177 0.77685 0.89018 0.0
N1484 N 0.23693 0.82603 0.85336 0.0
N1485 N 0.11566 0.79365 0.89538 0.0
H1486 H 0.18358 0.7297 0.90678 0.0
H1487 H 0.14261 0.73914 0.90924 0.0
H1488 H 0.09573 0.80698 0.88715 0.0
H1489 H 0.11194 0.78047 0.91659 0.0
H1490 H 0.24043 0.84667 0.83928 0.0
H1491 H 0.2576 0.81818 0.86565 0.0
H1492 H 0.2039 0.84815 0.80353 0.0
H1493 H 0.16137 0.85222 0.80296 0.0
C1494 C 0.46662 0.96291 0.10992 0.0
C1495 C 0.49834 0.97538 0.10911 0.0
C1496 C 0.51481 0.93283 0.07109 0.0
C1497 C 0.48542 0.91586 0.07778 0.0
N1498 N 0.43114 0.91694 0.1008 0.0
N1499 N 0.54157 0.98448 0.07068 0.0
C1500 C 0.4603 0.93186 0.09579 0.0
C1501 C 0.51976 0.96389 0.08473 0.0
N1502 N 0.44244 0.98195 0.12215 0.0
N1503 N 0.53759 0.92044 0.05031 0.0
H1504 H 0.5414 0.00931 0.07477 0.0
H1505 H 0.55624 0.97833 0.05101 0.0
H1506 H 0.53258 0.9033 0.03249 0.0
H1507 H 0.5617 0.92809 0.05037 0.0
H1508 H 0.41789 0.97641 0.12053 0.0
H1509 H 0.44714 0.0052 0.13103 0.0
H1510 H 0.41196 0.92732 0.11353 0.0
H1511 H 0.42669 0.89284 0.09489 0.0
C1512 C 0.82068 0.2634 0.60898 0.0
C1513 C 0.79311 0.28468 0.61079 0.0
C1514 C 0.81273 0.3046 0.66321 0.0
C1515 C 0.83981 0.28325 0.66131 0.0
N1516 N 0.87588 0.25341 0.62615 0.0
N1517 N 0.77087 0.33348 0.63362 0.0
C1518 C 0.84588 0.26633 0.63215 0.0
C1519 C 0.79232 0.30834 0.63569 0.0
N1520 N 0.82237 0.23858 0.58725 0.0
N1521 N 0.80481 0.31943 0.69181 0.0
H1522 H 0.75557 0.33628 0.61367 0.0
H1523 H 0.77079 0.35293 0.6498 0.0
H1524 H 0.81755 0.31575 0.71328 0.0
H1525 H 0.78352 0.33272 0.69504 0.0
H1526 H 0.83926 0.21983 0.58907 0.0
H1527 H 0.80651 0.23544 0.56832 0.0
H1528 H 0.88237 0.2435 0.60377 0.0
H1529 H 0.89535 0.25609 0.64205 0.0
C1530 C 0.00024 0.56556 0.86638 0.0
C1531 C 0.98809 0.53351 0.87027 0.0
C1532 C 0.94781 0.55336 0.9091 0.0
C1533 C 0.95854 0.58545 0.90298 0.0
N1534 N 0.9875 0.62269 0.86872 0.0
N1535 N 0.94676 0.49762 0.89087 0.0
C1536 C 0.98216 0.59169 0.87905 0.0
C1537 C 0.96055 0.52768 0.89006 0.0
N1538 N 0.03006 0.57121 0.85294 0.0
N1539 N 0.92746 0.54695 0.93451 0.0
H1540 H 0.95586 0.47807 0.87765 0.0
H1541 H 0.9246 0.49288 0.90209 0.0
H1542 H 0.91778 0.56477 0.94959 0.0
H1543 H 0.92219 0.52356 0.94237 0.0
H1544 H 0.04076 0.59404 0.85273 0.0
H1545 H 0.04589 0.55308 0.84533 0.0
H1546 H 0.00299 0.62834 0.84954 0.0
H1547 H 0.97356 0.64223 0.87689 0.0
C1548 C 0.68039 0.72614 0.15638 0.0
C1549 C 0.65903 0.75034 0.16894 0.0
C1550 C 0.69067 0.79286 0.1435 0.0
C1551 C 0.70991 0.76902 0.12787 0.0
N1552 N 0.73073 0.71443 0.12761 0.0
N1553 N 0.66085 0.80396 0.19223 0.0
C1554 C 0.70728 0.73599 0.13696 0.0
C1555 C 0.66904 0.78307 0.16787 0.0
N1556 N 0.67572 0.69419 0.16346 0.0
N1557 N 0.69311 0.82491 0.13566 0.0
H1558 H 0.65067 0.79559 0.21377 0.0
H1559 H 0.66937 0.82771 0.19356 0.0
H1560 H 0.70907 0.8337 0.11826 0.0
H1561 H 0.67707 0.84236 0.14463 0.0
H1562 H 0.68655 0.67532 0.15057 0.0
H1563 H 0.66215 0.68648 0.18327 0.0
H1564 H 0.73187 0.69052 0.13549 0.0
H1565 H 0.75058 0.72117 0.11346 0.0
C1566 C 0.51902 0.4269 0.34997 0.0
C1567 C 0.53197 0.45893 0.35323 0.0
C1568 C 0.56702 0.43869 0.39687 0.0
C1569 C 0.55358 0.40744 0.39246 0.0
N1570 N 0.52611 0.36977 0.35786 0.0
N1571 N 0.57501 0.49248 0.37416 0.0
C1572 C 0.53401 0.40097 0.36561 0.0
C1573 C 0.55843 0.46389 0.37475 0.0
N1574 N 0.49059 0.41998 0.33502 0.0
N1575 N 0.58621 0.44463 0.42309 0.0
H1576 H 0.5694 0.51097 0.35786 0.0
H1577 H 0.596 0.49651 0.38761 0.0
H1578 H 0.59333 0.42619 0.43885 0.0
H1579 H 0.59381 0.46777 0.42973 0.0
H1580 H 0.47505 0.43706 0.32527 0.0
H1581 H 0.47505 0.43706 0.32527 0.0
H1582 H 0.51007 0.36401 0.33915 0.0
H1583 H 0.53726 0.35 0.36905 0.0
C1584 C 0.35767 0.26035 0.17354 0.0
C1585 C 0.3752 0.26585 0.20279 0.0
C1586 C 0.36593 0.3236 0.19594 0.0
C1587 C 0.34108 0.31742 0.17374 0.0
N1588 N 0.31356 0.27969 0.13924 0.0
N1589 N 0.38234 0.30345 0.24768 0.0
C1590 C 0.33745 0.28574 0.16118 0.0
C1591 C 0.37635 0.29783 0.21562 0.0
N1592 N 0.35972 0.2311 0.15823 0.0
N1593 N 0.37416 0.35488 0.20241 0.0
H1594 H 0.38533 0.2851 0.26467 0.0
H1595 H 0.38014 0.32636 0.25814 0.0
H1596 H 0.36594 0.37394 0.18792 0.0
H1597 H 0.38987 0.36132 0.2209 0.0
H1598 H 0.3491 0.22661 0.13577 0.0
H1599 H 0.37446 0.2124 0.1668 0.0
H1600 H 0.30734 0.25642 0.13165 0.0
H1601 H 0.29938 0.29838 0.12972 0.0
C1602 C 0.88116 0.15012 0.79726 0.0
C1603 C 0.85368 0.15115 0.81727 0.0
C1604 C 0.86018 0.21026 0.82064 0.0
C1605 C 0.88012 0.20906 0.79244 0.0
N1606 N 0.89922 0.17495 0.74832 0.0
N1607 N 0.81921 0.18218 0.85267 0.0
C1608 C 0.88867 0.17817 0.77947 0.0
C1609 C 0.84432 0.18122 0.83116 0.0
N1610 N 0.89539 0.121 0.79059 0.0
N1611 N 0.85616 0.23882 0.83688 0.0
H1612 H 0.80875 0.16105 0.86174 0.0
H1613 H 0.80861 0.20366 0.86079 0.0
H1614 H 0.86776 0.2601 0.82968 0.0
H1615 H 0.84381 0.24061 0.85887 0.0
H1616 H 0.91505 0.1185 0.77486 0.0
H1617 H 0.88838 0.09997 0.80281 0.0
H1618 H 0.9037 0.15256 0.73741 0.0
H1619 H 0.89809 0.19402 0.7321 0.0
C1620 C -0.0016 0.61313 0.05514 0.0
C1621 C -0.00098 0.63483 0.02844 0.0
C1622 C 0.05863 0.63208 0.02947 0.0
C1623 C 0.05741 0.60481 0.04967 0.0
N1624 N 0.02499 0.56814 0.08202 0.0
N1625 N 0.03392 0.65951 0.98678 0.0
C1626 C 0.02707 0.59529 0.06328 0.0
C1627 C 0.03 0.64325 0.015 0.0
N1628 N 0.97045 0.60943 0.07254 0.0
N1629 N 0.0877 0.64606 0.02198 0.0
H1630 H 0.01517 0.66699 0.97194 0.0
H1631 H 0.01517 0.66699 0.97194 0.0
H1632 H 0.10907 0.63973 0.03397 0.0
H1633 H 0.08973 0.66554 0.00598 0.0
H1634 H 0.96926 0.59619 0.094 0.0
H1635 H 0.94935 0.6224 0.06724 0.0
H1636 H 0.00296 0.55808 0.08921 0.0
H1637 H 0.04506 0.55439 0.0887 0.0
C1638 C 0.6574 0.80645 0.29462 0.0
C1639 C 0.65604 0.83579 0.27652 0.0
C1640 C 0.60353 0.81944 0.25444 0.0
C1641 C 0.60454 0.79027 0.27328 0.0
N1642 N 0.62679 0.76307 0.31964 0.0
N1643 N 0.62183 0.87478 0.24952 0.0
C1644 C 0.62926 0.78677 0.29675 0.0
C1645 C 0.62705 0.84387 0.26008 0.0
N1646 N 0.68604 0.79542 0.30714 0.0
N1647 N 0.58283 0.82329 0.2289 0.0
H1648 H 0.63763 0.89382 0.25455 0.0
H1649 H 0.59997 0.88218 0.23921 0.0
H1650 H 0.56428 0.80778 0.22245 0.0
H1651 H 0.586 0.84147 0.21176 0.0
H1652 H 0.68838 0.77275 0.31799 0.0
H1653 H 0.70828 0.80664 0.30319 0.0
H1654 H 0.64292 0.76098 0.33896 0.0
H1655 H 0.60672 0.74774 0.32084 0.0
C1656 C 0.4325 0.39904 0.54298 0.0
C1657 C 0.42072 0.41759 0.51622 0.0
C1658 C 0.47459 0.41483 0.49109 0.0
C1659 C 0.4828 0.38974 0.51295 0.0
N1660 N 0.47952 0.37292 0.56796 0.0
N1661 N 0.43352 0.44915 0.46815 0.0
C1662 C 0.46478 0.38644 0.54169 0.0
C1663 C 0.44265 0.42728 0.49129 0.0
N1664 N 0.41267 0.39211 0.56861 0.0
N1665 N 0.49812 0.42954 0.47292 0.0
H1666 H 0.41415 0.46509 0.47097 0.0
H1667 H 0.4455 0.45163 0.44601 0.0
H1668 H 0.52274 0.42504 0.47583 0.0
H1669 H 0.4941 0.44969 0.45831 0.0
H1670 H 0.41999 0.37914 0.58889 0.0
H1671 H 0.38805 0.39762 0.56916 0.0
H1672 H 0.46943 0.37233 0.59108 0.0
H1673 H 0.50362 0.3651 0.56689 0.0
C1674 C 0.14983 0.68929 0.69418 0.0
C1675 C 0.16738 0.66987 0.71662 0.0
C1676 C 0.14787 0.70227 0.76168 0.0
C1677 C 0.12937 0.72132 0.74005 0.0
N1678 N 0.12306 0.74111 0.68544 0.0
N1679 N 0.19835 0.67412 0.76614 0.0
C1680 C 0.13384 0.71767 0.70606 0.0
C1681 C 0.17119 0.68135 0.74873 0.0
N1682 N 0.14723 0.68058 0.66235 0.0
N1683 N 0.1437 0.70383 0.7945 0.0
H1684 H 0.21821 0.66272 0.75546 0.0
H1685 H 0.20294 0.68386 0.78904 0.0
H1686 H 0.12655 0.71843 0.80581 0.0
H1687 H 0.15531 0.68784 0.81027 0.0
H1688 H 0.13206 0.6925 0.64609 0.0
H1689 H 0.15831 0.66026 0.65237 0.0
H1690 H 0.1278 0.74097 0.66062 0.0
H1691 H 0.11234 0.76241 0.69384 0.0
C1692 C 0.54483 0.86172 0.93563 0.0
C1693 C 0.54522 0.84832 0.96731 0.0
C1694 C 0.6039 0.85704 0.97001 0.0
C1695 C 0.60119 0.87743 0.94309 0.0
N1696 N 0.57691 0.88159 0.89042 0.0
N1697 N 0.57616 0.83307 0.01523 0.0
C1698 C 0.57407 0.87416 0.9225 0.0
C1699 C 0.57521 0.84478 0.9843 0.0
N1700 N 0.51632 0.86416 0.91896 0.0
N1701 N 0.63396 0.84945 0.98146 0.0
H1702 H 0.55599 0.826 0.02854 0.0
H1703 H 0.59732 0.83229 0.02876 0.0
H1704 H 0.65496 0.85847 0.97048 0.0
H1705 H 0.63795 0.83116 -0.00166 0.0
H1706 H 0.51389 0.87706 0.89743 0.0
H1707 H 0.49461 0.85435 0.9275 0.0
H1708 H 0.55859 0.87762 0.87353 0.0
H1709 H 0.59926 0.88758 0.88012 0.0
C1710 C 0.93309 0.06089 0.51147 0.0
C1711 C 0.91515 0.07273 0.48461 0.0
C1712 C 0.96347 0.10251 0.46653 0.0
C1713 C 0.977 0.09848 0.49759 0.0
N1714 N 0.98077 0.06358 0.54443 0.0
N1715 N 0.91475 0.10178 0.43367 0.0
C1716 C 0.96351 0.07481 0.51869 0.0
C1717 C 0.93092 0.0923 0.46093 0.0
N1718 N 0.92282 0.03397 0.52797 0.0
N1719 N 0.98253 0.11409 0.44215 0.0
H1720 H 0.89014 0.09751 0.43 0.0
H1721 H 0.92509 0.1159 0.41554 0.0
H1722 H 0.00686 0.11994 0.446 0.0
H1723 H 0.9755 0.11445 0.41793 0.0
H1724 H 0.93589 0.02258 0.54626 0.0
H1725 H 0.9029 0.02021 0.52115 0.0
H1726 H 0.97012 0.05357 0.56503 0.0
H1727 H 0.00592 0.06193 0.5438 0.0
loop_
_geom_bond_atom_site_label_1
_geom_bond_atom_site_label_2
_geom_bond_distance
_geom_bond_site_symmetry_2
_ccdc_geom_bond_type
Mn0 O5 2.095 . S
Mn0 O15 2.162 . S
Mn0 O16 2.297 . S
Mn0 O24 2.385 . S
Mn0 O25 2.209 . S
Mn0 O26 2.094 . S
Mn1 O6 2.121 . S
Mn1 N8 2.257 . S
Mn1 N17 2.282 . S
Mn1 O25 2.215 . S
Mn1 O27 2.117 . S
C2 O24 1.234 . S
C2 O25 1.283 . S
C3 O15 1.281 . S
C3 O16 1.236 . S
C4 O26 1.240 . S
C4 O27 1.264 . S
O5 Mn0 2.095 . S
O5 C14 1.250 . S
O6 Mn1 2.121 . S
O6 C14 1.258 . S
C7 N8 1.326 . S
C7 C11 1.460 . S
C7 H13 0.929 . S
N8 Mn1 2.257 . S
N8 C7 1.326 . S
N8 C12 1.362 . S
C9 C10 1.258 . S
C9 C12 1.431 . S
C9 C29 1.449 . S
C10 C9 1.258 . S
C10 C11 1.477 . S
C10 H30 0.931 . S
C11 C7 1.460 . S
C11 C10 1.477 . S
C11 H31 0.930 . S
C12 N8 1.362 . S
C12 C9 1.431 . S
C12 C22 1.476 . S
H13 C7 0.929 . S
C14 O5 1.250 . S
C14 O6 1.258 . S
O15 Mn0 2.162 . S
O15 C3 1.281 . S
O16 Mn0 2.297 . S
O16 C3 1.236 . S
N17 Mn1 2.282 . S
N17 C18 1.328 . S
N17 C22 1.318 . S
C18 N17 1.328 . S
C18 C19 1.457 . S
C18 H23 0.929 . S
C19 C18 1.457 . S
C19 C20 1.291 . S
C19 H32 0.931 . S
C20 C19 1.291 . S
C20 C21 1.373 . S
C20 H33 0.929 . S
C21 C20 1.373 . S
C21 C22 1.396 . S
C21 C28 1.403 . S
C22 C12 1.476 . S
C22 N17 1.318 . S
C22 C21 1.396 . S
H23 C18 0.929 . S
O24 Mn0 2.385 . S
O24 C2 1.234 . S
O25 Mn0 2.209 . S
O25 Mn1 2.215 . S
O25 C2 1.283 . S
O26 Mn0 2.094 . S
O26 C4 1.240 . S
O27 Mn1 2.117 . S
O27 C4 1.264 . S
C28 C21 1.403 . S
C28 C29 1.399 . S
C28 H34 0.929 . S
C29 C9 1.449 . S
C29 C28 1.399 . S
C29 H35 0.930 . S
H30 C10 0.931 . S
H31 C11 0.930 . S
H32 C19 0.931 . S
H33 C20 0.929 . S
H34 C28 0.929 . S
H35 C29 0.930 . S
Mn36 O41 2.095 . S
Mn36 O51 2.162 . S
Mn36 O52 2.297 . S
Mn36 O60 2.385 . S
Mn36 O61 2.209 . S
Mn36 O62 2.094 . S
Mn37 O42 2.121 . S
Mn37 N44 2.257 1_565 S
Mn37 N53 2.282 1_655 S
Mn37 O61 2.215 . S
Mn37 O63 2.117 . S
C38 O60 1.234 . S
C38 O61 1.283 . S
C39 O51 1.281 . S
C39 O52 1.236 . S
C40 O62 1.240 . S
C40 O63 1.264 . S
O41 Mn36 2.095 . S
O41 C50 1.250 . S
O42 Mn37 2.121 . S
O42 C50 1.258 . S
C43 N44 1.326 . S
C43 C47 1.460 . S
C43 H49 0.929 . S
N44 Mn37 2.257 1_545 S
N44 C43 1.326 . S
N44 C48 1.362 1_655 S
C45 C46 1.258 . S
C45 C48 1.431 . S
C45 C65 1.449 . S
C46 C45 1.258 . S
C46 C47 1.477 1_455 S
C46 H66 0.931 . S
C47 C43 1.460 . S
C47 C46 1.477 1_655 S
C47 H67 0.930 . S
C48 N44 1.362 1_455 S
C48 C45 1.431 . S
C48 C58 1.476 . S
H49 C43 0.929 . S
C50 O41 1.250 . S
C50 O42 1.258 . S
O51 Mn36 2.162 . S
O51 C39 1.281 . S
O52 Mn36 2.297 . S
O52 C39 1.236 . S
N53 Mn37 2.282 1_455 S
N53 C54 1.328 . S
N53 C58 1.318 1_565 S
C54 N53 1.328 . S
C54 C55 1.457 . S
C54 H59 0.929 . S
C55 C54 1.457 . S
C55 C56 1.291 . S
C55 H68 0.931 . S
C56 C55 1.291 . S
C56 C57 1.373 1_565 S
C56 H69 0.924 1_565 S
C57 C56 1.373 1_545 S
C57 C58 1.396 . S
C57 C64 1.403 . S
C58 C48 1.476 . S
C58 N53 1.318 1_545 S
C58 C57 1.396 . S
H59 C54 0.929 . S
O60 Mn36 2.385 . S
O60 C38 1.234 . S
O61 Mn36 2.209 . S
O61 Mn37 2.215 . S
O61 C38 1.283 . S
O62 Mn36 2.094 . S
O62 C40 1.240 . S
O63 Mn37 2.117 . S
O63 C40 1.264 . S
C64 C57 1.403 . S
C64 C65 1.399 . S
C64 H70 0.929 . S
C65 C45 1.449 . S
C65 C64 1.399 . S
C65 H71 0.930 . S
H66 C46 0.931 . S
H67 C47 0.930 . S
H68 C55 0.931 . S
H69 C56 0.924 1_545 S
H70 C64 0.929 . S
H71 C65 0.930 . S
Mn72 O77 2.095 . S
Mn72 O87 2.162 . S
Mn72 O88 2.297 . S
Mn72 O96 2.385 . S
Mn72 O97 2.209 . S
Mn72 O98 2.094 . S
Mn73 O78 2.121 . S
Mn73 N80 2.257 . S
Mn73 N89 2.282 . S
Mn73 O97 2.215 . S
Mn73 O99 2.117 . S
C74 O96 1.234 . S
C74 O97 1.283 . S
C75 O87 1.281 . S
C75 O88 1.236 . S
C76 O98 1.240 . S
C76 O99 1.264 . S
O77 Mn72 2.095 . S
O77 C86 1.250 . S
O78 Mn73 2.121 . S
O78 C86 1.258 . S
C79 N80 1.326 . S
C79 C83 1.460 . S
C79 H85 0.929 . S
N80 Mn73 2.257 . S
N80 C79 1.326 . S
N80 C84 1.362 . S
C81 C82 1.258 . S
C81 C84 1.431 . S
C81 C101 1.449 . S
C82 C81 1.258 . S
C82 C83 1.477 . S
C82 H102 0.931 . S
C83 C79 1.460 . S
C83 C82 1.477 . S
C83 H103 0.930 . S
C84 N80 1.362 . S
C84 C81 1.431 . S
C84 C94 1.476 . S
H85 C79 0.929 . S
C86 O77 1.250 . S
C86 O78 1.258 . S
O87 Mn72 2.162 . S
O87 C75 1.281 . S
O88 Mn72 2.297 . S
O88 C75 1.236 . S
N89 Mn73 2.282 . S
N89 C90 1.328 . S
N89 C94 1.318 . S
C90 N89 1.328 . S
C90 C91 1.457 . S
C90 H95 0.929 . S
C91 C90 1.457 . S
C91 C92 1.291 . S
C91 H104 0.931 . S
C92 C91 1.291 . S
C92 C93 1.373 . S
C92 H105 0.929 . S
C93 C92 1.373 . S
C93 C94 1.396 . S
C93 C100 1.403 . S
C94 C84 1.476 . S
C94 N89 1.318 . S
C94 C93 1.396 . S
H95 C90 0.929 . S
O96 Mn72 2.385 . S
O96 C74 1.234 . S
O97 Mn72 2.209 . S
O97 Mn73 2.215 . S
O97 C74 1.283 . S
O98 Mn72 2.094 . S
O98 C76 1.240 . S
O99 Mn73 2.117 . S
O99 C76 1.264 . S
C100 C93 1.403 . S
C100 C101 1.399 . S
C100 H106 0.929 . S
C101 C81 1.449 . S
C101 C100 1.399 . S
C101 H107 0.930 . S
H102 C82 0.931 . S
H103 C83 0.930 . S
H104 C91 0.931 . S
H105 C92 0.929 . S
H106 C100 0.929 . S
H107 C101 0.930 . S
Mn108 O113 2.095 . S
Mn108 O123 2.162 . S
Mn108 O124 2.297 . S
Mn108 O132 2.385 . S
Mn108 O133 2.209 . S
Mn108 O134 2.094 . S
Mn109 O114 2.121 . S
Mn109 N116 2.257 1_545 S
Mn109 N125 2.282 . S
Mn109 O133 2.215 . S
Mn109 O135 2.117 . S
C110 O132 1.234 . S
C110 O133 1.283 . S
C111 O123 1.281 . S
C111 O124 1.236 . S
C112 O134 1.240 . S
C112 O135 1.264 . S
O113 Mn108 2.095 . S
O113 C122 1.250 . S
O114 Mn109 2.121 . S
O114 C122 1.258 . S
C115 N116 1.326 . S
C115 C119 1.460 . S
C115 H121 0.929 . S
N116 Mn109 2.257 1_565 S
N116 C115 1.326 . S
N116 C120 1.362 . S
C117 C118 1.258 . S
C117 C120 1.431 . S
C117 C137 1.449 . S
C118 C117 1.258 . S
C118 C119 1.477 . S
C118 H138 0.931 . S
C119 C115 1.460 . S
C119 C118 1.477 . S
C119 H139 0.930 . S
C120 N116 1.362 . S
C120 C117 1.431 . S
C120 C130 1.476 . S
H121 C115 0.929 . S
C122 O113 1.250 . S
C122 O114 1.258 . S
O123 Mn108 2.162 . S
O123 C111 1.281 . S
O124 Mn108 2.297 . S
O124 C111 1.236 . S
N125 Mn109 2.282 . S
N125 C126 1.328 . S
N125 C130 1.318 1_545 S
C126 N125 1.328 . S
C126 C127 1.457 . S
C126 H131 0.929 . S
C127 C126 1.457 . S
C127 C128 1.291 . S
C127 H140 0.931 . S
C128 C127 1.291 . S
C128 C129 1.373 1_545 S
C128 H141 0.924 1_545 S
C129 C128 1.373 1_565 S
C129 C130 1.396 . S
C129 C136 1.403 . S
C130 C120 1.476 . S
C130 N125 1.318 1_565 S
C130 C129 1.396 . S
H131 C126 0.929 . S
O132 Mn108 2.385 . S
O132 C110 1.234 . S
O133 Mn108 2.209 . S
O133 Mn109 2.215 . S
O133 C110 1.283 . S
O134 Mn108 2.094 . S
O134 C112 1.240 . S
O135 Mn109 2.117 . S
O135 C112 1.264 . S
C136 C129 1.403 . S
C136 C137 1.399 . S
C136 H142 0.929 . S
C137 C117 1.449 . S
C137 C136 1.399 . S
C137 H143 0.930 . S
H138 C118 0.931 . S
H139 C119 0.930 . S
H140 C127 0.931 . S
H141 C128 0.924 1_565 S
H142 C136 0.929 . S
H143 C137 0.930 . S
Mn144 O149 2.095 . S
Mn144 O159 2.162 . S
Mn144 O160 2.297 . S
Mn144 O168 2.385 . S
Mn144 O169 2.209 . S
Mn144 O170 2.094 . S
Mn145 O150 2.121 . S
Mn145 N152 2.257 . S
Mn145 N161 2.282 . S
Mn145 O169 2.215 . S
Mn145 O171 2.117 . S
C146 O168 1.234 . S
C146 O169 1.283 . S
C147 O159 1.281 . S
C147 O160 1.236 . S
C148 O170 1.240 . S
C148 O171 1.264 . S
O149 Mn144 2.095 . S
O149 C158 1.250 . S
O150 Mn145 2.121 . S
O150 C158 1.258 . S
C151 N152 1.326 . S
C151 C155 1.460 . S
C151 H157 0.929 . S
N152 Mn145 2.257 . S
N152 C151 1.326 . S
N152 C156 1.362 . S
C153 C154 1.258 . S
C153 C156 1.431 . S
C153 C173 1.449 . S
C154 C153 1.258 . S
C154 C155 1.477 . S
C154 H174 0.931 . S
C155 C151 1.460 . S
C155 C154 1.477 . S
C155 H175 0.930 . S
C156 N152 1.362 . S
C156 C153 1.431 . S
C156 C166 1.476 . S
H157 C151 0.929 . S
C158 O149 1.250 . S
C158 O150 1.258 . S
O159 Mn144 2.162 . S
O159 C147 1.281 . S
O160 Mn144 2.297 . S
O160 C147 1.236 . S
N161 Mn145 2.282 . S
N161 C162 1.328 . S
N161 C166 1.318 . S
C162 N161 1.328 . S
C162 C163 1.457 . S
C162 H167 0.929 . S
C163 C162 1.457 . S
C163 C164 1.291 . S
C163 H176 0.931 . S
C164 C163 1.291 . S
C164 C165 1.373 . S
C164 H177 0.929 . S
C165 C164 1.373 . S
C165 C166 1.396 . S
C165 C172 1.403 . S
C166 C156 1.476 . S
C166 N161 1.318 . S
C166 C165 1.396 . S
H167 C162 0.929 . S
O168 Mn144 2.385 . S
O168 C146 1.234 . S
O169 Mn144 2.209 . S
O169 Mn145 2.215 . S
O169 C146 1.283 . S
O170 Mn144 2.094 . S
O170 C148 1.240 . S
O171 Mn145 2.117 . S
O171 C148 1.264 . S
C172 C165 1.403 . S
C172 C173 1.399 . S
C172 H178 0.929 . S
C173 C153 1.449 . S
C173 C172 1.399 . S
C173 H179 0.930 . S
H174 C154 0.931 . S
H175 C155 0.930 . S
H176 C163 0.931 . S
H177 C164 0.929 . S
H178 C172 0.929 . S
H179 C173 0.930 . S
Mn180 O185 2.095 . S
Mn180 O195 2.162 . S
Mn180 O196 2.297 . S
Mn180 O204 2.385 . S
Mn180 O205 2.209 . S
Mn180 O206 2.094 . S
Mn181 O186 2.121 . S
Mn181 N188 2.257 . S
Mn181 N197 2.282 1_455 S
Mn181 O205 2.215 . S
Mn181 O207 2.117 . S
C182 O204 1.234 . S
C182 O205 1.283 . S
C183 O195 1.281 . S
C183 O196 1.236 . S
C184 O206 1.240 . S
C184 O207 1.264 . S
O185 Mn180 2.095 . S
O185 C194 1.250 . S
O186 Mn181 2.121 . S
O186 C194 1.258 . S
C187 N188 1.326 . S
C187 C191 1.460 . S
C187 H193 0.929 . S
N188 Mn181 2.257 . S
N188 C187 1.326 . S
N188 C192 1.362 1_455 S
C189 C190 1.258 . S
C189 C192 1.431 . S
C189 C209 1.449 . S
C190 C189 1.258 . S
C190 C191 1.477 1_655 S
C190 H210 0.931 . S
C191 C187 1.460 . S
C191 C190 1.477 1_455 S
C191 H211 0.930 . S
C192 N188 1.362 1_655 S
C192 C189 1.431 . S
C192 C202 1.476 . S
H193 C187 0.929 . S
C194 O185 1.250 . S
C194 O186 1.258 . S
O195 Mn180 2.162 . S
O195 C183 1.281 . S
O196 Mn180 2.297 . S
O196 C183 1.236 . S
N197 Mn181 2.282 1_655 S
N197 C198 1.328 . S
N197 C202 1.318 . S
C198 N197 1.328 . S
C198 C199 1.457 . S
C198 H203 0.929 . S
C199 C198 1.457 . S
C199 C200 1.291 . S
C199 H212 0.931 . S
C200 C199 1.291 . S
C200 C201 1.373 . S
C200 H213 0.929 . S
C201 C200 1.373 . S
C201 C202 1.396 . S
C201 C208 1.403 . S
C202 C192 1.476 . S
C202 N197 1.318 . S
C202 C201 1.396 . S
H203 C198 0.929 . S
O204 Mn180 2.385 . S
O204 C182 1.234 . S
O205 Mn180 2.209 . S
O205 Mn181 2.215 . S
O205 C182 1.283 . S
O206 Mn180 2.094 . S
O206 C184 1.240 . S
O207 Mn181 2.117 . S
O207 C184 1.264 . S
C208 C201 1.403 . S
C208 C209 1.399 . S
C208 H214 0.929 . S
C209 C189 1.449 . S
C209 C208 1.399 . S
C209 H215 0.930 . S
H210 C190 0.931 . S
H211 C191 0.930 . S
H212 C199 0.931 . S
H213 C200 0.929 . S
H214 C208 0.929 . S
H215 C209 0.930 . S
Mn216 O221 2.095 . S
Mn216 O231 2.162 . S
Mn216 O232 2.297 . S
Mn216 O240 2.385 . S
Mn216 O241 2.209 . S
Mn216 O242 2.094 . S
Mn217 O222 2.121 . S
Mn217 N224 2.257 . S
Mn217 N233 2.282 . S
Mn217 O241 2.215 . S
Mn217 O243 2.117 . S
C218 O240 1.234 . S
C218 O241 1.283 . S
C219 O231 1.281 . S
C219 O232 1.236 . S
C220 O242 1.240 . S
C220 O243 1.264 . S
O221 Mn216 2.095 . S
O221 C230 1.250 . S
O222 Mn217 2.121 . S
O222 C230 1.258 . S
C223 N224 1.326 . S
C223 C227 1.460 . S
C223 H229 0.929 . S
N224 Mn217 2.257 . S
N224 C223 1.326 . S
N224 C228 1.362 . S
C225 C226 1.258 . S
C225 C228 1.431 . S
C225 C245 1.449 . S
C226 C225 1.258 . S
C226 C227 1.477 . S
C226 H246 0.931 . S
C227 C223 1.460 . S
C227 C226 1.477 . S
C227 H247 0.930 . S
C228 N224 1.362 . S
C228 C225 1.431 . S
C228 C238 1.476 . S
H229 C223 0.929 . S
C230 O221 1.250 . S
C230 O222 1.258 . S
O231 Mn216 2.162 . S
O231 C219 1.281 . S
O232 Mn216 2.297 . S
O232 C219 1.236 . S
N233 Mn217 2.282 . S
N233 C234 1.328 . S
N233 C238 1.318 . S
C234 N233 1.328 . S
C234 C235 1.457 . S
C234 H239 0.929 . S
C235 C234 1.457 . S
C235 C236 1.291 . S
C235 H248 0.931 . S
C236 C235 1.291 . S
C236 C237 1.373 . S
C236 H249 0.929 . S
C237 C236 1.373 . S
C237 C238 1.396 . S
C237 C244 1.403 . S
C238 C228 1.476 . S
C238 N233 1.318 . S
C238 C237 1.396 . S
H239 C234 0.929 . S
O240 Mn216 2.385 . S
O240 C218 1.234 . S
O241 Mn216 2.209 . S
O241 Mn217 2.215 . S
O241 C218 1.283 . S
O242 Mn216 2.094 . S
O242 C220 1.240 . S
O243 Mn217 2.117 . S
O243 C220 1.264 . S
C244 C237 1.403 . S
C244 C245 1.399 . S
C244 H250 0.929 . S
C245 C225 1.449 . S
C245 C244 1.399 . S
C245 H251 0.930 . S
H246 C226 0.931 . S
H247 C227 0.930 . S
H248 C235 0.931 . S
H249 C236 0.929 . S
H250 C244 0.929 . S
H251 C245 0.930 . S
Mn252 O257 2.095 . S
Mn252 O267 2.162 . S
Mn252 O268 2.297 . S
Mn252 O276 2.385 . S
Mn252 O277 2.209 . S
Mn252 O278 2.094 . S
Mn253 O258 2.121 . S
Mn253 N260 2.257 . S
Mn253 N269 2.282 . S
Mn253 O277 2.215 . S
Mn253 O279 2.117 . S
C254 O276 1.234 . S
C254 O277 1.283 . S
C255 O267 1.281 . S
C255 O268 1.236 . S
C256 O278 1.240 . S
C256 O279 1.264 . S
O257 Mn252 2.095 . S
O257 C266 1.250 . S
O258 Mn253 2.121 . S
O258 C266 1.258 . S
C259 N260 1.326 . S
C259 C263 1.460 . S
C259 H265 0.929 . S
N260 Mn253 2.257 . S
N260 C259 1.326 . S
N260 C264 1.362 . S
C261 C262 1.258 . S
C261 C264 1.431 . S
C261 C281 1.449 . S
C262 C261 1.258 . S
C262 C263 1.477 . S
C262 H282 0.931 . S
C263 C259 1.460 . S
C263 C262 1.477 . S
C263 H283 0.930 . S
C264 N260 1.362 . S
C264 C261 1.431 . S
C264 C274 1.476 . S
H265 C259 0.929 . S
C266 O257 1.250 . S
C266 O258 1.258 . S
O267 Mn252 2.162 . S
O267 C255 1.281 . S
O268 Mn252 2.297 . S
O268 C255 1.236 . S
N269 Mn253 2.282 . S
N269 C270 1.328 . S
N269 C274 1.318 . S
C270 N269 1.328 . S
C270 C271 1.457 . S
C270 H275 0.929 . S
C271 C270 1.457 . S
C271 C272 1.291 . S
C271 H284 0.931 . S
C272 C271 1.291 . S
C272 C273 1.373 . S
C272 H285 0.929 . S
C273 C272 1.373 . S
C273 C274 1.396 . S
C273 C280 1.403 . S
C274 C264 1.476 . S
C274 N269 1.318 . S
C274 C273 1.396 . S
H275 C270 0.929 . S
O276 Mn252 2.385 . S
O276 C254 1.234 . S
O277 Mn252 2.209 . S
O277 Mn253 2.215 . S
O277 C254 1.283 . S
O278 Mn252 2.094 . S
O278 C256 1.240 . S
O279 Mn253 2.117 . S
O279 C256 1.264 . S
C280 C273 1.403 . S
C280 C281 1.399 . S
C280 H286 0.929 . S
C281 C261 1.449 . S
C281 C280 1.399 . S
C281 H287 0.930 . S
H282 C262 0.931 . S
H283 C263 0.930 . S
H284 C271 0.931 . S
H285 C272 0.929 . S
H286 C280 0.929 . S
H287 C281 0.930 . S
Mn288 O293 2.095 . S
Mn288 O303 2.162 . S
Mn288 O304 2.297 . S
Mn288 O312 2.385 . S
Mn288 O313 2.209 . S
Mn288 O314 2.094 . S
Mn289 O294 2.121 . S
Mn289 N296 2.257 . S
Mn289 N305 2.282 . S
Mn289 O313 2.215 . S
Mn289 O315 2.117 . S
C290 O312 1.234 . S
C290 O313 1.283 . S
C291 O303 1.281 . S
C291 O304 1.236 . S
C292 O314 1.240 . S
C292 O315 1.264 . S
O293 Mn288 2.095 . S
O293 C302 1.250 . S
O294 Mn289 2.121 . S
O294 C302 1.258 . S
C295 N296 1.326 . S
C295 C299 1.460 . S
C295 H301 0.929 . S
N296 Mn289 2.257 . S
N296 C295 1.326 . S
N296 C300 1.362 . S
C297 C298 1.258 . S
C297 C300 1.431 . S
C297 C317 1.449 . S
C298 C297 1.258 . S
C298 C299 1.477 . S
C298 H318 0.931 . S
C299 C295 1.460 . S
C299 C298 1.477 . S
C299 H319 0.930 . S
C300 N296 1.362 . S
C300 C297 1.431 . S
C300 C310 1.476 . S
H301 C295 0.929 . S
C302 O293 1.250 . S
C302 O294 1.258 . S
O303 Mn288 2.162 . S
O303 C291 1.281 . S
O304 Mn288 2.297 . S
O304 C291 1.236 . S
N305 Mn289 2.282 . S
N305 C306 1.328 . S
N305 C310 1.318 . S
C306 N305 1.328 . S
C306 C307 1.457 . S
C306 H311 0.929 . S
C307 C306 1.457 . S
C307 C308 1.291 . S
C307 H320 0.931 . S
C308 C307 1.291 . S
C308 C309 1.373 . S
C308 H321 0.929 . S
C309 C308 1.373 . S
C309 C310 1.396 . S
C309 C316 1.403 . S
C310 C300 1.476 . S
C310 N305 1.318 . S
C310 C309 1.396 . S
H311 C306 0.929 . S
O312 Mn288 2.385 . S
O312 C290 1.234 . S
O313 Mn288 2.209 . S
O313 Mn289 2.215 . S
O313 C290 1.283 . S
O314 Mn288 2.094 . S
O314 C292 1.240 . S
O315 Mn289 2.117 . S
O315 C292 1.264 . S
C316 C309 1.403 . S
C316 C317 1.399 . S
C316 H322 0.929 . S
C317 C297 1.449 . S
C317 C316 1.399 . S
C317 H323 0.930 . S
H318 C298 0.931 . S
H319 C299 0.930 . S
H320 C307 0.931 . S
H321 C308 0.929 . S
H322 C316 0.929 . S
H323 C317 0.930 . S
Mn324 O329 2.095 . S
Mn324 O339 2.162 . S
Mn324 O340 2.297 . S
Mn324 O348 2.385 . S
Mn324 O349 2.209 . S
Mn324 O350 2.094 . S
Mn325 O330 2.121 . S
Mn325 N332 2.257 1_455 S
Mn325 N341 2.282 . S
Mn325 O349 2.215 . S
Mn325 O351 2.117 . S
C326 O348 1.234 . S
C326 O349 1.283 . S
C327 O339 1.281 . S
C327 O340 1.236 . S
C328 O350 1.240 . S
C328 O351 1.264 . S
O329 Mn324 2.095 . S
O329 C338 1.250 . S
O330 Mn325 2.121 . S
O330 C338 1.258 . S
C331 N332 1.326 . S
C331 C335 1.460 . S
C331 H337 0.929 . S
N332 Mn325 2.257 1_655 S
N332 C331 1.326 . S
N332 C336 1.362 . S
C333 C334 1.258 . S
C333 C336 1.431 . S
C333 C353 1.449 . S
C334 C333 1.258 . S
C334 C335 1.477 . S
C334 H354 0.931 . S
C335 C331 1.460 . S
C335 C334 1.477 . S
C335 H355 0.930 . S
C336 N332 1.362 . S
C336 C333 1.431 . S
C336 C346 1.476 . S
H337 C331 0.929 . S
C338 O329 1.250 . S
C338 O330 1.258 . S
O339 Mn324 2.162 . S
O339 C327 1.281 . S
O340 Mn324 2.297 . S
O340 C327 1.236 . S
N341 Mn325 2.282 . S
N341 C342 1.328 . S
N341 C346 1.318 1_455 S
C342 N341 1.328 . S
C342 C343 1.457 . S
C342 H347 0.929 . S
C343 C342 1.457 . S
C343 C344 1.291 . S
C343 H356 0.931 . S
C344 C343 1.291 . S
C344 C345 1.373 1_455 S
C344 H357 0.924 1_455 S
C345 C344 1.373 1_655 S
C345 C346 1.396 . S
C345 C352 1.403 . S
C346 C336 1.476 . S
C346 N341 1.318 1_655 S
C346 C345 1.396 . S
H347 C342 0.929 . S
O348 Mn324 2.385 . S
O348 C326 1.234 . S
O349 Mn324 2.209 . S
O349 Mn325 2.215 . S
O349 C326 1.283 . S
O350 Mn324 2.094 . S
O350 C328 1.240 . S
O351 Mn325 2.117 . S
O351 C328 1.264 . S
C352 C345 1.403 . S
C352 C353 1.399 . S
C352 H358 0.929 . S
C353 C333 1.449 . S
C353 C352 1.399 . S
C353 H359 0.930 . S
H354 C334 0.931 . S
H355 C335 0.930 . S
H356 C343 0.931 . S
H357 C344 0.924 1_655 S
H358 C352 0.929 . S
H359 C353 0.930 . S
Mn360 O365 2.095 . S
Mn360 O375 2.162 . S
Mn360 O376 2.297 . S
Mn360 O384 2.385 . S
Mn360 O385 2.209 . S
Mn360 O386 2.094 . S
Mn361 O366 2.121 . S
Mn361 N368 2.257 . S
Mn361 N377 2.282 . S
Mn361 O385 2.215 . S
Mn361 O387 2.117 . S
C362 O384 1.234 . S
C362 O385 1.283 . S
C363 O375 1.281 . S
C363 O376 1.236 . S
C364 O386 1.240 . S
C364 O387 1.264 . S
O365 Mn360 2.095 . S
O365 C374 1.250 . S
O366 Mn361 2.121 . S
O366 C374 1.258 . S
C367 N368 1.326 . S
C367 C371 1.460 . S
C367 H373 0.929 . S
N368 Mn361 2.257 . S
N368 C367 1.326 . S
N368 C372 1.362 . S
C369 C370 1.258 . S
C369 C372 1.431 . S
C369 C389 1.449 . S
C370 C369 1.258 . S
C370 C371 1.477 . S
C370 H390 0.931 . S
C371 C367 1.460 . S
C371 C370 1.477 . S
C371 H391 0.930 . S
C372 N368 1.362 . S
C372 C369 1.431 . S
C372 C382 1.476 . S
H373 C367 0.929 . S
C374 O365 1.250 . S
C374 O366 1.258 . S
O375 Mn360 2.162 . S
O375 C363 1.281 . S
O376 Mn360 2.297 . S
O376 C363 1.236 . S
N377 Mn361 2.282 . S
N377 C378 1.328 . S
N377 C382 1.318 . S
C378 N377 1.328 . S
C378 C379 1.457 . S
C378 H383 0.929 . S
C379 C378 1.457 . S
C379 C380 1.291 . S
C379 H392 0.931 . S
C380 C379 1.291 . S
C380 C381 1.373 . S
C380 H393 0.929 . S
C381 C380 1.373 . S
C381 C382 1.396 . S
C381 C388 1.403 . S
C382 C372 1.476 . S
C382 N377 1.318 . S
C382 C381 1.396 . S
H383 C378 0.929 . S
O384 Mn360 2.385 . S
O384 C362 1.234 . S
O385 Mn360 2.209 . S
O385 Mn361 2.215 . S
O385 C362 1.283 . S
O386 Mn360 2.094 . S
O386 C364 1.240 . S
O387 Mn361 2.117 . S
O387 C364 1.264 . S
C388 C381 1.403 . S
C388 C389 1.399 . S
C388 H394 0.929 . S
C389 C369 1.449 . S
C389 C388 1.399 . S
C389 H395 0.930 . S
H390 C370 0.931 . S
H391 C371 0.930 . S
H392 C379 0.931 . S
H393 C380 0.929 . S
H394 C388 0.929 . S
H395 C389 0.930 . S
Mn396 O401 2.095 . S
Mn396 O411 2.162 . S
Mn396 O412 2.297 . S
Mn396 O420 2.385 . S
Mn396 O421 2.209 . S
Mn396 O422 2.094 . S
Mn397 O402 2.121 . S
Mn397 N404 2.257 . S
Mn397 N413 2.282 1_554 S
Mn397 O421 2.215 . S
Mn397 O423 2.117 . S
C398 O420 1.234 . S
C398 O421 1.283 . S
C399 O411 1.281 . S
C399 O412 1.236 . S
C400 O422 1.240 . S
C400 O423 1.264 . S
O401 Mn396 2.095 . S
O401 C410 1.250 . S
O402 Mn397 2.121 . S
O402 C410 1.258 . S
C403 N404 1.326 . S
C403 C407 1.460 . S
C403 H409 0.929 . S
N404 Mn397 2.257 . S
N404 C403 1.326 . S
N404 C408 1.362 1_554 S
C405 C406 1.258 . S
C405 C408 1.431 . S
C405 C425 1.449 . S
C406 C405 1.258 . S
C406 C407 1.477 1_556 S
C406 H426 0.931 . S
C407 C403 1.460 . S
C407 C406 1.477 1_554 S
C407 H427 0.930 . S
C408 N404 1.362 1_556 S
C408 C405 1.431 . S
C408 C418 1.476 . S
H409 C403 0.929 . S
C410 O401 1.250 . S
C410 O402 1.258 . S
O411 Mn396 2.162 . S
O411 C399 1.281 . S
O412 Mn396 2.297 . S
O412 C399 1.236 . S
N413 Mn397 2.282 1_556 S
N413 C414 1.328 . S
N413 C418 1.318 . S
C414 N413 1.328 . S
C414 C415 1.457 . S
C414 H419 0.929 . S
C415 C414 1.457 . S
C415 C416 1.291 . S
C415 H428 0.931 . S
C416 C415 1.291 . S
C416 C417 1.373 . S
C416 H429 0.929 . S
C417 C416 1.373 . S
C417 C418 1.396 . S
C417 C424 1.403 . S
C418 C408 1.476 . S
C418 N413 1.318 . S
C418 C417 1.396 . S
H419 C414 0.929 . S
O420 Mn396 2.385 . S
O420 C398 1.234 . S
O421 Mn396 2.209 . S
O421 Mn397 2.215 . S
O421 C398 1.283 . S
O422 Mn396 2.094 . S
O422 C400 1.240 . S
O423 Mn397 2.117 . S
O423 C400 1.264 . S
C424 C417 1.403 . S
C424 C425 1.399 . S
C424 H430 0.929 . S
C425 C405 1.449 . S
C425 C424 1.399 . S
C425 H431 0.930 . S
H426 C406 0.931 . S
H427 C407 0.930 . S
H428 C415 0.931 . S
H429 C416 0.929 . S
H430 C424 0.929 . S
H431 C425 0.930 . S
Mn432 O437 2.095 . S
Mn432 O447 2.162 . S
Mn432 O448 2.297 . S
Mn432 O456 2.385 . S
Mn432 O457 2.209 . S
Mn432 O458 2.094 . S
Mn433 O438 2.121 . S
Mn433 N440 2.257 . S
Mn433 N449 2.282 . S
Mn433 O457 2.215 . S
Mn433 O459 2.117 . S
C434 O456 1.234 . S
C434 O457 1.283 . S
C435 O447 1.281 . S
C435 O448 1.236 . S
C436 O458 1.240 . S
C436 O459 1.264 . S
O437 Mn432 2.095 . S
O437 C446 1.250 . S
O438 Mn433 2.121 . S
O438 C446 1.258 . S
C439 N440 1.326 . S
C439 C443 1.460 . S
C439 H445 0.929 . S
N440 Mn433 2.257 . S
N440 C439 1.326 . S
N440 C444 1.362 . S
C441 C442 1.258 . S
C441 C444 1.431 . S
C441 C461 1.449 . S
C442 C441 1.258 . S
C442 C443 1.477 . S
C442 H462 0.931 . S
C443 C439 1.460 . S
C443 C442 1.477 . S
C443 H463 0.930 . S
C444 N440 1.362 . S
C444 C441 1.431 . S
C444 C454 1.476 . S
H445 C439 0.929 . S
C446 O437 1.250 . S
C446 O438 1.258 . S
O447 Mn432 2.162 . S
O447 C435 1.281 . S
O448 Mn432 2.297 . S
O448 C435 1.236 . S
N449 Mn433 2.282 . S
N449 C450 1.328 . S
N449 C454 1.318 . S
C450 N449 1.328 . S
C450 C451 1.457 . S
C450 H455 0.929 . S
C451 C450 1.457 . S
C451 C452 1.291 . S
C451 H464 0.931 . S
C452 C451 1.291 . S
C452 C453 1.373 . S
C452 H465 0.929 . S
C453 C452 1.373 . S
C453 C454 1.396 . S
C453 C460 1.403 . S
C454 C444 1.476 . S
C454 N449 1.318 . S
C454 C453 1.396 . S
H455 C450 0.929 . S
O456 Mn432 2.385 . S
O456 C434 1.234 . S
O457 Mn432 2.209 . S
O457 Mn433 2.215 . S
O457 C434 1.283 . S
O458 Mn432 2.094 . S
O458 C436 1.240 . S
O459 Mn433 2.117 . S
O459 C436 1.264 . S
C460 C453 1.403 . S
C460 C461 1.399 . S
C460 H466 0.929 . S
C461 C441 1.449 . S
C461 C460 1.399 . S
C461 H467 0.930 . S
H462 C442 0.931 . S
H463 C443 0.930 . S
H464 C451 0.931 . S
H465 C452 0.929 . S
H466 C460 0.929 . S
H467 C461 0.930 . S
Mn468 O473 2.095 . S
Mn468 O483 2.162 . S
Mn468 O484 2.297 . S
Mn468 O492 2.385 . S
Mn468 O493 2.209 . S
Mn468 O494 2.094 . S
Mn469 O474 2.121 . S
Mn469 N476 2.257 1_655 S
Mn469 N485 2.282 1_556 S
Mn469 O493 2.215 . S
Mn469 O495 2.117 . S
C470 O492 1.234 . S
C470 O493 1.283 . S
C471 O483 1.281 . S
C471 O484 1.236 . S
C472 O494 1.240 . S
C472 O495 1.264 . S
O473 Mn468 2.095 . S
O473 C482 1.250 . S
O474 Mn469 2.121 . S
O474 C482 1.258 . S
C475 N476 1.326 . S
C475 C479 1.460 . S
C475 H481 0.929 . S
N476 Mn469 2.257 1_455 S
N476 C475 1.326 . S
N476 C480 1.362 1_556 S
C477 C478 1.258 . S
C477 C480 1.431 . S
C477 C497 1.449 . S
C478 C477 1.258 . S
C478 C479 1.477 1_554 S
C478 H498 0.931 . S
C479 C475 1.460 . S
C479 C478 1.477 1_556 S
C479 H499 0.930 . S
C480 N476 1.362 1_554 S
C480 C477 1.431 . S
C480 C490 1.476 . S
H481 C475 0.929 . S
C482 O473 1.250 . S
C482 O474 1.258 . S
O483 Mn468 2.162 . S
O483 C471 1.281 . S
O484 Mn468 2.297 . S
O484 C471 1.236 . S
N485 Mn469 2.282 1_554 S
N485 C486 1.328 . S
N485 C490 1.318 1_655 S
C486 N485 1.328 . S
C486 C487 1.457 . S
C486 H491 0.929 . S
C487 C486 1.457 . S
C487 C488 1.291 . S
C487 H500 0.931 . S
C488 C487 1.291 . S
C488 C489 1.373 1_655 S
C488 H501 0.924 1_655 S
C489 C488 1.373 1_455 S
C489 C490 1.396 . S
C489 C496 1.403 . S
C490 C480 1.476 . S
C490 N485 1.318 1_455 S
C490 C489 1.396 . S
H491 C486 0.929 . S
O492 Mn468 2.385 . S
O492 C470 1.234 . S
O493 Mn468 2.209 . S
O493 Mn469 2.215 . S
O493 C470 1.283 . S
O494 Mn468 2.094 . S
O494 C472 1.240 . S
O495 Mn469 2.117 . S
O495 C472 1.264 . S
C496 C489 1.403 . S
C496 C497 1.399 . S
C496 H502 0.929 . S
C497 C477 1.449 . S
C497 C496 1.399 . S
C497 H503 0.930 . S
H498 C478 0.931 . S
H499 C479 0.930 . S
H500 C487 0.931 . S
H501 C488 0.924 1_455 S
H502 C496 0.929 . S
H503 C497 0.930 . S
Mn504 O509 2.095 . S
Mn504 O519 2.162 . S
Mn504 O520 2.297 . S
Mn504 O528 2.385 . S
Mn504 O529 2.209 . S
Mn504 O530 2.094 . S
Mn505 O510 2.121 . S
Mn505 N512 2.257 . S
Mn505 N521 2.282 . S
Mn505 O529 2.215 . S
Mn505 O531 2.117 . S
C506 O528 1.234 . S
C506 O529 1.283 . S
C507 O519 1.281 . S
C507 O520 1.236 . S
C508 O530 1.240 . S
C508 O531 1.264 . S
O509 Mn504 2.095 . S
O509 C518 1.250 . S
O510 Mn505 2.121 . S
O510 C518 1.258 . S
C511 N512 1.326 . S
C511 C515 1.460 . S
C511 H517 0.929 . S
N512 Mn505 2.257 . S
N512 C511 1.326 . S
N512 C516 1.362 . S
C513 C514 1.258 . S
C513 C516 1.431 . S
C513 C533 1.449 . S
C514 C513 1.258 . S
C514 C515 1.477 . S
C514 H534 0.931 . S
C515 C511 1.460 . S
C515 C514 1.477 . S
C515 H535 0.930 . S
C516 N512 1.362 . S
C516 C513 1.431 . S
C516 C526 1.476 . S
H517 C511 0.929 . S
C518 O509 1.250 . S
C518 O510 1.258 . S
O519 Mn504 2.162 . S
O519 C507 1.281 . S
O520 Mn504 2.297 . S
O520 C507 1.236 . S
N521 Mn505 2.282 . S
N521 C522 1.328 . S
N521 C526 1.318 . S
C522 N521 1.328 . S
C522 C523 1.457 . S
C522 H527 0.929 . S
C523 C522 1.457 . S
C523 C524 1.291 . S
C523 H536 0.931 . S
C524 C523 1.291 . S
C524 C525 1.373 . S
C524 H537 0.929 . S
C525 C524 1.373 . S
C525 C526 1.396 . S
C525 C532 1.403 . S
C526 C516 1.476 . S
C526 N521 1.318 . S
C526 C525 1.396 . S
H527 C522 0.929 . S
O528 Mn504 2.385 . S
O528 C506 1.234 . S
O529 Mn504 2.209 . S
O529 Mn505 2.215 . S
O529 C506 1.283 . S
O530 Mn504 2.094 . S
O530 C508 1.240 . S
O531 Mn505 2.117 . S
O531 C508 1.264 . S
C532 C525 1.403 . S
C532 C533 1.399 . S
C532 H538 0.929 . S
C533 C513 1.449 . S
C533 C532 1.399 . S
C533 H539 0.930 . S
H534 C514 0.931 . S
H535 C515 0.930 . S
H536 C523 0.931 . S
H537 C524 0.929 . S
H538 C532 0.929 . S
H539 C533 0.930 . S
Mn540 O545 2.095 . S
Mn540 O555 2.162 . S
Mn540 O556 2.297 . S
Mn540 O564 2.385 . S
Mn540 O565 2.209 . S
Mn540 O566 2.094 . S
Mn541 O546 2.121 . S
Mn541 N548 2.257 . S
Mn541 N557 2.282 . S
Mn541 O565 2.215 . S
Mn541 O567 2.117 . S
C542 O564 1.234 . S
C542 O565 1.283 . S
C543 O555 1.281 . S
C543 O556 1.236 . S
C544 O566 1.240 . S
C544 O567 1.264 . S
O545 Mn540 2.095 . S
O545 C554 1.250 . S
O546 Mn541 2.121 . S
O546 C554 1.258 . S
C547 N548 1.326 . S
C547 C551 1.460 . S
C547 H553 0.929 . S
N548 Mn541 2.257 . S
N548 C547 1.326 . S
N548 C552 1.362 . S
C549 C550 1.258 . S
C549 C552 1.431 . S
C549 C569 1.449 . S
C550 C549 1.258 . S
C550 C551 1.477 . S
C550 H570 0.931 . S
C551 C547 1.460 . S
C551 C550 1.477 . S
C551 H571 0.930 . S
C552 N548 1.362 . S
C552 C549 1.431 . S
C552 C562 1.476 . S
H553 C547 0.929 . S
C554 O545 1.250 . S
C554 O546 1.258 . S
O555 Mn540 2.162 . S
O555 C543 1.281 . S
O556 Mn540 2.297 . S
O556 C543 1.236 . S
N557 Mn541 2.282 . S
N557 C558 1.328 . S
N557 C562 1.318 . S
C558 N557 1.328 . S
C558 C559 1.457 . S
C558 H563 0.929 . S
C559 C558 1.457 . S
C559 C560 1.291 . S
C559 H572 0.931 . S
C560 C559 1.291 . S
C560 C561 1.373 . S
C560 H573 0.929 . S
C561 C560 1.373 . S
C561 C562 1.396 . S
C561 C568 1.403 . S
C562 C552 1.476 . S
C562 N557 1.318 . S
C562 C561 1.396 . S
H563 C558 0.929 . S
O564 Mn540 2.385 . S
O564 C542 1.234 . S
O565 Mn540 2.209 . S
O565 Mn541 2.215 . S
O565 C542 1.283 . S
O566 Mn540 2.094 . S
O566 C544 1.240 . S
O567 Mn541 2.117 . S
O567 C544 1.264 . S
C568 C561 1.403 . S
C568 C569 1.399 . S
C568 H574 0.929 . S
C569 C549 1.449 . S
C569 C568 1.399 . S
C569 H575 0.930 . S
H570 C550 0.931 . S
H571 C551 0.930 . S
H572 C559 0.931 . S
H573 C560 0.929 . S
H574 C568 0.929 . S
H575 C569 0.930 . S
Mn576 O581 2.095 . S
Mn576 O591 2.162 . S
Mn576 O592 2.297 . S
Mn576 O600 2.385 . S
Mn576 O601 2.209 . S
Mn576 O602 2.094 . S
Mn577 O582 2.121 . S
Mn577 N584 2.257 . S
Mn577 N593 2.282 . S
Mn577 O601 2.215 . S
Mn577 O603 2.117 . S
C578 O600 1.234 . S
C578 O601 1.283 . S
C579 O591 1.281 . S
C579 O592 1.236 . S
C580 O602 1.240 . S
C580 O603 1.264 . S
O581 Mn576 2.095 . S
O581 C590 1.250 . S
O582 Mn577 2.121 . S
O582 C590 1.258 . S
C583 N584 1.326 . S
C583 C587 1.460 . S
C583 H589 0.929 . S
N584 Mn577 2.257 . S
N584 C583 1.326 . S
N584 C588 1.362 . S
C585 C586 1.258 . S
C585 C588 1.431 . S
C585 C605 1.449 . S
C586 C585 1.258 . S
C586 C587 1.477 . S
C586 H606 0.931 . S
C587 C583 1.460 . S
C587 C586 1.477 . S
C587 H607 0.930 . S
C588 N584 1.362 . S
C588 C585 1.431 . S
C588 C598 1.476 . S
H589 C583 0.929 . S
C590 O581 1.250 . S
C590 O582 1.258 . S
O591 Mn576 2.162 . S
O591 C579 1.281 . S
O592 Mn576 2.297 . S
O592 C579 1.236 . S
N593 Mn577 2.282 . S
N593 C594 1.328 . S
N593 C598 1.318 . S
C594 N593 1.328 . S
C594 C595 1.457 . S
C594 H599 0.929 . S
C595 C594 1.457 . S
C595 C596 1.291 . S
C595 H608 0.931 . S
C596 C595 1.291 . S
C596 C597 1.373 . S
C596 H609 0.929 . S
C597 C596 1.373 . S
C597 C598 1.396 . S
C597 C604 1.403 . S
C598 C588 1.476 . S
C598 N593 1.318 . S
C598 C597 1.396 . S
H599 C594 0.929 . S
O600 Mn576 2.385 . S
O600 C578 1.234 . S
O601 Mn576 2.209 . S
O601 Mn577 2.215 . S
O601 C578 1.283 . S
O602 Mn576 2.094 . S
O602 C580 1.240 . S
O603 Mn577 2.117 . S
O603 C580 1.264 . S
C604 C597 1.403 . S
C604 C605 1.399 . S
C604 H610 0.929 . S
C605 C585 1.449 . S
C605 C604 1.399 . S
C605 H611 0.930 . S
H606 C586 0.931 . S
H607 C587 0.930 . S
H608 C595 0.931 . S
H609 C596 0.929 . S
H610 C604 0.929 . S
H611 C605 0.930 . S
Mn612 O617 2.095 . S
Mn612 O627 2.162 . S
Mn612 O628 2.297 . S
Mn612 O636 2.385 . S
Mn612 O637 2.209 . S
Mn612 O638 2.094 . S
Mn613 O618 2.121 . S
Mn613 N620 2.257 . S
Mn613 N629 2.282 . S
Mn613 O637 2.215 . S
Mn613 O639 2.117 . S
C614 O636 1.234 . S
C614 O637 1.283 . S
C615 O627 1.281 . S
C615 O628 1.236 . S
C616 O638 1.240 . S
C616 O639 1.264 . S
O617 Mn612 2.095 . S
O617 C626 1.250 . S
O618 Mn613 2.121 . S
O618 C626 1.258 . S
C619 N620 1.326 . S
C619 C623 1.460 . S
C619 H625 0.929 . S
N620 Mn613 2.257 . S
N620 C619 1.326 . S
N620 C624 1.362 . S
C621 C622 1.258 . S
C621 C624 1.431 . S
C621 C641 1.449 . S
C622 C621 1.258 . S
C622 C623 1.477 . S
C622 H642 0.931 . S
C623 C619 1.460 . S
C623 C622 1.477 . S
C623 H643 0.930 . S
C624 N620 1.362 . S
C624 C621 1.431 . S
C624 C634 1.476 . S
H625 C619 0.929 . S
C626 O617 1.250 . S
C626 O618 1.258 . S
O627 Mn612 2.162 . S
O627 C615 1.281 . S
O628 Mn612 2.297 . S
O628 C615 1.236 . S
N629 Mn613 2.282 . S
N629 C630 1.328 . S
N629 C634 1.318 . S
C630 N629 1.328 . S
C630 C631 1.457 . S
C630 H635 0.929 . S
C631 C630 1.457 . S
C631 C632 1.291 . S
C631 H644 0.931 . S
C632 C631 1.291 . S
C632 C633 1.373 . S
C632 H645 0.929 . S
C633 C632 1.373 . S
C633 C634 1.396 . S
C633 C640 1.403 . S
C634 C624 1.476 . S
C634 N629 1.318 . S
C634 C633 1.396 . S
H635 C630 0.929 . S
O636 Mn612 2.385 . S
O636 C614 1.234 . S
O637 Mn612 2.209 . S
O637 Mn613 2.215 . S
O637 C614 1.283 . S
O638 Mn612 2.094 . S
O638 C616 1.240 . S
O639 Mn613 2.117 . S
O639 C616 1.264 . S
C640 C633 1.403 . S
C640 C641 1.399 . S
C640 H646 0.929 . S
C641 C621 1.449 . S
C641 C640 1.399 . S
C641 H647 0.930 . S
H642 C622 0.931 . S
H643 C623 0.930 . S
H644 C631 0.931 . S
H645 C632 0.929 . S
H646 C640 0.929 . S
H647 C641 0.930 . S
Mn648 O653 2.095 . S
Mn648 O663 2.162 . S
Mn648 O664 2.297 . S
Mn648 O672 2.385 . S
Mn648 O673 2.209 . S
Mn648 O674 2.094 . S
Mn649 O654 2.121 . S
Mn649 N656 2.257 1_554 S
Mn649 N665 2.282 . S
Mn649 O673 2.215 . S
Mn649 O675 2.117 . S
C650 O672 1.234 . S
C650 O673 1.283 . S
C651 O663 1.281 . S
C651 O664 1.236 . S
C652 O674 1.240 . S
C652 O675 1.264 . S
O653 Mn648 2.095 . S
O653 C662 1.250 . S
O654 Mn649 2.121 . S
O654 C662 1.258 . S
C655 N656 1.326 . S
C655 C659 1.460 . S
C655 H661 0.929 . S
N656 Mn649 2.257 1_556 S
N656 C655 1.326 . S
N656 C660 1.362 . S
C657 C658 1.258 . S
C657 C660 1.431 . S
C657 C677 1.449 . S
C658 C657 1.258 . S
C658 C659 1.477 . S
C658 H678 0.931 . S
C659 C655 1.460 . S
C659 C658 1.477 . S
C659 H679 0.930 . S
C660 N656 1.362 . S
C660 C657 1.431 . S
C660 C670 1.476 . S
H661 C655 0.929 . S
C662 O653 1.250 . S
C662 O654 1.258 . S
O663 Mn648 2.162 . S
O663 C651 1.281 . S
O664 Mn648 2.297 . S
O664 C651 1.236 . S
N665 Mn649 2.282 . S
N665 C666 1.328 . S
N665 C670 1.318 1_554 S
C666 N665 1.328 . S
C666 C667 1.457 . S
C666 H671 0.929 . S
C667 C666 1.457 . S
C667 C668 1.291 . S
C667 H680 0.931 . S
C668 C667 1.291 . S
C668 C669 1.373 1_554 S
C668 H681 0.924 1_554 S
C669 C668 1.373 1_556 S
C669 C670 1.396 . S
C669 C676 1.403 . S
C670 C660 1.476 . S
C670 N665 1.318 1_556 S
C670 C669 1.396 . S
H671 C666 0.929 . S
O672 Mn648 2.385 . S
O672 C650 1.234 . S
O673 Mn648 2.209 . S
O673 Mn649 2.215 . S
O673 C650 1.283 . S
O674 Mn648 2.094 . S
O674 C652 1.240 . S
O675 Mn649 2.117 . S
O675 C652 1.264 . S
C676 C669 1.403 . S
C676 C677 1.399 . S
C676 H682 0.929 . S
C677 C657 1.449 . S
C677 C676 1.399 . S
C677 H683 0.930 . S
H678 C658 0.931 . S
H679 C659 0.930 . S
H680 C667 0.931 . S
H681 C668 0.924 1_556 S
H682 C676 0.929 . S
H683 C677 0.930 . S
Mn684 O689 2.095 . S
Mn684 O699 2.162 . S
Mn684 O700 2.297 . S
Mn684 O708 2.385 . S
Mn684 O709 2.209 . S
Mn684 O710 2.094 . S
Mn685 O690 2.121 . S
Mn685 N692 2.257 . S
Mn685 N701 2.282 . S
Mn685 O709 2.215 . S
Mn685 O711 2.117 . S
C686 O708 1.234 . S
C686 O709 1.283 . S
C687 O699 1.281 . S
C687 O700 1.236 . S
C688 O710 1.240 . S
C688 O711 1.264 . S
O689 Mn684 2.095 . S
O689 C698 1.250 . S
O690 Mn685 2.121 . S
O690 C698 1.258 . S
C691 N692 1.326 . S
C691 C695 1.460 . S
C691 H697 0.929 . S
N692 Mn685 2.257 . S
N692 C691 1.326 . S
N692 C696 1.362 . S
C693 C694 1.258 . S
C693 C696 1.431 . S
C693 C713 1.449 . S
C694 C693 1.258 . S
C694 C695 1.477 . S
C694 H714 0.931 . S
C695 C691 1.460 . S
C695 C694 1.477 . S
C695 H715 0.930 . S
C696 N692 1.362 . S
C696 C693 1.431 . S
C696 C706 1.476 . S
H697 C691 0.929 . S
C698 O689 1.250 . S
C698 O690 1.258 . S
O699 Mn684 2.162 . S
O699 C687 1.281 . S
O700 Mn684 2.297 . S
O700 C687 1.236 . S
N701 Mn685 2.282 . S
N701 C702 1.328 . S
N701 C706 1.318 . S
C702 N701 1.328 . S
C702 C703 1.457 . S
C702 H707 0.929 . S
C703 C702 1.457 . S
C703 C704 1.291 . S
C703 H716 0.931 . S
C704 C703 1.291 . S
C704 C705 1.373 . S
C704 H717 0.929 . S
C705 C704 1.373 . S
C705 C706 1.396 . S
C705 C712 1.403 . S
C706 C696 1.476 . S
C706 N701 1.318 . S
C706 C705 1.396 . S
H707 C702 0.929 . S
O708 Mn684 2.385 . S
O708 C686 1.234 . S
O709 Mn684 2.209 . S
O709 Mn685 2.215 . S
O709 C686 1.283 . S
O710 Mn684 2.094 . S
O710 C688 1.240 . S
O711 Mn685 2.117 . S
O711 C688 1.264 . S
C712 C705 1.403 . S
C712 C713 1.399 . S
C712 H718 0.929 . S
C713 C693 1.449 . S
C713 C712 1.399 . S
C713 H719 0.930 . S
H714 C694 0.931 . S
H715 C695 0.930 . S
H716 C703 0.931 . S
H717 C704 0.929 . S
H718 C712 0.929 . S
H719 C713 0.930 . S
Mn720 O725 2.095 . S
Mn720 O735 2.162 . S
Mn720 O736 2.297 . S
Mn720 O744 2.385 . S
Mn720 O745 2.209 . S
Mn720 O746 2.094 . S
Mn721 O726 2.121 . S
Mn721 N728 2.257 . S
Mn721 N737 2.282 . S
Mn721 O745 2.215 . S
Mn721 O747 2.117 . S
C722 O744 1.234 . S
C722 O745 1.283 . S
C723 O735 1.281 . S
C723 O736 1.236 . S
C724 O746 1.240 . S
C724 O747 1.264 . S
O725 Mn720 2.095 . S
O725 C734 1.250 . S
O726 Mn721 2.121 . S
O726 C734 1.258 . S
C727 N728 1.326 . S
C727 C731 1.460 . S
C727 H733 0.929 . S
N728 Mn721 2.257 . S
N728 C727 1.326 . S
N728 C732 1.362 . S
C729 C730 1.258 . S
C729 C732 1.431 . S
C729 C749 1.449 . S
C730 C729 1.258 . S
C730 C731 1.477 . S
C730 H750 0.931 . S
C731 C727 1.460 . S
C731 C730 1.477 . S
C731 H751 0.930 . S
C732 N728 1.362 . S
C732 C729 1.431 . S
C732 C742 1.476 . S
H733 C727 0.929 . S
C734 O725 1.250 . S
C734 O726 1.258 . S
O735 Mn720 2.162 . S
O735 C723 1.281 . S
O736 Mn720 2.297 . S
O736 C723 1.236 . S
N737 Mn721 2.282 . S
N737 C738 1.328 . S
N737 C742 1.318 . S
C738 N737 1.328 . S
C738 C739 1.457 . S
C738 H743 0.929 . S
C739 C738 1.457 . S
C739 C740 1.291 . S
C739 H752 0.931 . S
C740 C739 1.291 . S
C740 C741 1.373 . S
C740 H753 0.929 . S
C741 C740 1.373 . S
C741 C742 1.396 . S
C741 C748 1.403 . S
C742 C732 1.476 . S
C742 N737 1.318 . S
C742 C741 1.396 . S
H743 C738 0.929 . S
O744 Mn720 2.385 . S
O744 C722 1.234 . S
O745 Mn720 2.209 . S
O745 Mn721 2.215 . S
O745 C722 1.283 . S
O746 Mn720 2.094 . S
O746 C724 1.240 . S
O747 Mn721 2.117 . S
O747 C724 1.264 . S
C748 C741 1.403 . S
C748 C749 1.399 . S
C748 H754 0.929 . S
C749 C729 1.449 . S
C749 C748 1.399 . S
C749 H755 0.930 . S
H750 C730 0.931 . S
H751 C731 0.930 . S
H752 C739 0.931 . S
H753 C740 0.929 . S
H754 C748 0.929 . S
H755 C749 0.930 . S
Mn756 O761 2.095 . S
Mn756 O771 2.162 . S
Mn756 O772 2.297 . S
Mn756 O780 2.385 . S
Mn756 O781 2.209 . S
Mn756 O782 2.094 . S
Mn757 O762 2.121 . S
Mn757 N764 2.257 . S
Mn757 N773 2.282 . S
Mn757 O781 2.215 . S
Mn757 O783 2.117 . S
C758 O780 1.234 . S
C758 O781 1.283 . S
C759 O771 1.281 . S
C759 O772 1.236 . S
C760 O782 1.240 . S
C760 O783 1.264 . S
O761 Mn756 2.095 . S
O761 C770 1.250 . S
O762 Mn757 2.121 . S
O762 C770 1.258 . S
C763 N764 1.326 . S
C763 C767 1.460 . S
C763 H769 0.929 . S
N764 Mn757 2.257 . S
N764 C763 1.326 . S
N764 C768 1.362 . S
C765 C766 1.258 . S
C765 C768 1.431 . S
C765 C785 1.449 . S
C766 C765 1.258 . S
C766 C767 1.477 . S
C766 H786 0.931 . S
C767 C763 1.460 . S
C767 C766 1.477 . S
C767 H787 0.930 . S
C768 N764 1.362 . S
C768 C765 1.431 . S
C768 C778 1.476 . S
H769 C763 0.929 . S
C770 O761 1.250 . S
C770 O762 1.258 . S
O771 Mn756 2.162 . S
O771 C759 1.281 . S
O772 Mn756 2.297 . S
O772 C759 1.236 . S
N773 Mn757 2.282 . S
N773 C774 1.328 . S
N773 C778 1.318 . S
C774 N773 1.328 . S
C774 C775 1.457 . S
C774 H779 0.929 . S
C775 C774 1.457 . S
C775 C776 1.291 . S
C775 H788 0.931 . S
C776 C775 1.291 . S
C776 C777 1.373 . S
C776 H789 0.929 . S
C777 C776 1.373 . S
C777 C778 1.396 . S
C777 C784 1.403 . S
C778 C768 1.476 . S
C778 N773 1.318 . S
C778 C777 1.396 . S
H779 C774 0.929 . S
O780 Mn756 2.385 . S
O780 C758 1.234 . S
O781 Mn756 2.209 . S
O781 Mn757 2.215 . S
O781 C758 1.283 . S
O782 Mn756 2.094 . S
O782 C760 1.240 . S
O783 Mn757 2.117 . S
O783 C760 1.264 . S
C784 C777 1.403 . S
C784 C785 1.399 . S
C784 H790 0.929 . S
C785 C765 1.449 . S
C785 C784 1.399 . S
C785 H791 0.930 . S
H786 C766 0.931 . S
H787 C767 0.930 . S
H788 C775 0.931 . S
H789 C776 0.929 . S
H790 C784 0.929 . S
H791 C785 0.930 . S
Mn792 O797 2.095 . S
Mn792 O807 2.162 . S
Mn792 O808 2.297 . S
Mn792 O816 2.385 . S
Mn792 O817 2.209 . S
Mn792 O818 2.094 . S
Mn793 O798 2.121 . S
Mn793 N800 2.257 1_556 S
Mn793 N809 2.282 1_565 S
Mn793 O817 2.215 . S
Mn793 O819 2.117 . S
C794 O816 1.234 . S
C794 O817 1.283 . S
C795 O807 1.281 . S
C795 O808 1.236 . S
C796 O818 1.240 . S
C796 O819 1.264 . S
O797 Mn792 2.095 . S
O797 C806 1.250 . S
O798 Mn793 2.121 . S
O798 C806 1.258 . S
C799 N800 1.326 . S
C799 C803 1.460 . S
C799 H805 0.929 . S
N800 Mn793 2.257 1_554 S
N800 C799 1.326 . S
N800 C804 1.362 1_565 S
C801 C802 1.258 . S
C801 C804 1.431 . S
C801 C821 1.449 . S
C802 C801 1.258 . S
C802 C803 1.477 1_545 S
C802 H822 0.931 . S
C803 C799 1.460 . S
C803 C802 1.477 1_565 S
C803 H823 0.930 . S
C804 N800 1.362 1_545 S
C804 C801 1.431 . S
C804 C814 1.476 . S
H805 C799 0.929 . S
C806 O797 1.250 . S
C806 O798 1.258 . S
O807 Mn792 2.162 . S
O807 C795 1.281 . S
O808 Mn792 2.297 . S
O808 C795 1.236 . S
N809 Mn793 2.282 1_545 S
N809 C810 1.328 . S
N809 C814 1.318 1_556 S
C810 N809 1.328 . S
C810 C811 1.457 . S
C810 H815 0.929 . S
C811 C810 1.457 . S
C811 C812 1.291 . S
C811 H824 0.931 . S
C812 C811 1.291 . S
C812 C813 1.373 1_556 S
C812 H825 0.924 1_556 S
C813 C812 1.373 1_554 S
C813 C814 1.396 . S
C813 C820 1.403 . S
C814 C804 1.476 . S
C814 N809 1.318 1_554 S
C814 C813 1.396 . S
H815 C810 0.929 . S
O816 Mn792 2.385 . S
O816 C794 1.234 . S
O817 Mn792 2.209 . S
O817 Mn793 2.215 . S
O817 C794 1.283 . S
O818 Mn792 2.094 . S
O818 C796 1.240 . S
O819 Mn793 2.117 . S
O819 C796 1.264 . S
C820 C813 1.403 . S
C820 C821 1.399 . S
C820 H826 0.929 . S
C821 C801 1.449 . S
C821 C820 1.399 . S
C821 H827 0.930 . S
H822 C802 0.931 . S
H823 C803 0.930 . S
H824 C811 0.931 . S
H825 C812 0.924 1_554 S
H826 C820 0.929 . S
H827 C821 0.930 . S
Mn828 O833 2.095 . S
Mn828 O843 2.162 . S
Mn828 O844 2.297 . S
Mn828 O852 2.385 . S
Mn828 O853 2.209 . S
Mn828 O854 2.094 . S
Mn829 O834 2.121 . S
Mn829 N836 2.257 . S
Mn829 N845 2.282 1_545 S
Mn829 O853 2.215 . S
Mn829 O855 2.117 . S
C830 O852 1.234 . S
C830 O853 1.283 . S
C831 O843 1.281 . S
C831 O844 1.236 . S
C832 O854 1.240 . S
C832 O855 1.264 . S
O833 Mn828 2.095 . S
O833 C842 1.250 . S
O834 Mn829 2.121 . S
O834 C842 1.258 . S
C835 N836 1.326 . S
C835 C839 1.460 . S
C835 H841 0.929 . S
N836 Mn829 2.257 . S
N836 C835 1.326 . S
N836 C840 1.362 1_545 S
C837 C838 1.258 . S
C837 C840 1.431 . S
C837 C857 1.449 . S
C838 C837 1.258 . S
C838 C839 1.477 1_565 S
C838 H858 0.931 . S
C839 C835 1.460 . S
C839 C838 1.477 1_545 S
C839 H859 0.930 . S
C840 N836 1.362 1_565 S
C840 C837 1.431 . S
C840 C850 1.476 . S
H841 C835 0.929 . S
C842 O833 1.250 . S
C842 O834 1.258 . S
O843 Mn828 2.162 . S
O843 C831 1.281 . S
O844 Mn828 2.297 . S
O844 C831 1.236 . S
N845 Mn829 2.282 1_565 S
N845 C846 1.328 . S
N845 C850 1.318 . S
C846 N845 1.328 . S
C846 C847 1.457 . S
C846 H851 0.929 . S
C847 C846 1.457 . S
C847 C848 1.291 . S
C847 H860 0.931 . S
C848 C847 1.291 . S
C848 C849 1.373 . S
C848 H861 0.929 . S
C849 C848 1.373 . S
C849 C850 1.396 . S
C849 C856 1.403 . S
C850 C840 1.476 . S
C850 N845 1.318 . S
C850 C849 1.396 . S
H851 C846 0.929 . S
O852 Mn828 2.385 . S
O852 C830 1.234 . S
O853 Mn828 2.209 . S
O853 Mn829 2.215 . S
O853 C830 1.283 . S
O854 Mn828 2.094 . S
O854 C832 1.240 . S
O855 Mn829 2.117 . S
O855 C832 1.264 . S
C856 C849 1.403 . S
C856 C857 1.399 . S
C856 H862 0.929 . S
C857 C837 1.449 . S
C857 C856 1.399 . S
C857 H863 0.930 . S
H858 C838 0.931 . S
H859 C839 0.930 . S
H860 C847 0.931 . S
H861 C848 0.929 . S
H862 C856 0.929 . S
H863 C857 0.930 . S
C864 C865 1.363 . S
C864 C870 1.379 . S
C864 N872 1.356 . S
C865 C864 1.363 . S
C865 C871 1.363 . S
C866 C867 1.363 . S
C866 C871 1.379 . S
C866 N873 1.356 . S
C867 C866 1.363 . S
C867 C870 1.363 . S
N868 C870 1.356 . S
N868 H880 0.984 . S
N868 H881 0.985 . S
N869 C871 1.356 . S
N869 H874 0.984 . S
N869 H875 0.985 . S
C870 C864 1.379 . S
C870 C867 1.363 . S
C870 N868 1.356 . S
C871 C865 1.363 . S
C871 C866 1.379 . S
C871 N869 1.356 . S
N872 C864 1.356 . S
N872 H878 0.984 . S
N872 H879 0.984 . S
N873 C866 1.356 . S
N873 H876 0.984 . S
N873 H877 0.985 . S
H874 N869 0.984 . S
H875 N869 0.985 . S
H876 N873 0.984 . S
H877 N873 0.985 . S
H878 N872 0.984 . S
H879 N872 0.984 . S
H880 N868 0.984 . S
H881 N868 0.985 . S
C882 C883 1.363 . S
C882 C888 1.379 . S
C882 N890 1.356 1_455 S
C883 C882 1.363 . S
C883 C889 1.363 . S
C884 C885 1.363 . S
C884 C889 1.379 . S
C884 N891 1.356 . S
C885 C884 1.363 . S
C885 C888 1.363 . S
N886 C888 1.356 . S
N886 H898 0.984 . S
N886 H899 0.985 . S
N887 C889 1.356 . S
N887 H892 0.984 . S
N887 H893 0.985 . S
C888 C882 1.379 . S
C888 C885 1.363 . S
C888 N886 1.356 . S
C889 C883 1.363 . S
C889 C884 1.379 . S
C889 N887 1.356 . S
N890 C882 1.356 1_655 S
N890 H896 0.984 . S
N890 H897 0.984 . S
N891 C884 1.356 . S
N891 H894 0.984 . S
N891 H895 0.985 . S
H892 N887 0.984 . S
H893 N887 0.985 . S
H894 N891 0.984 . S
H895 N891 0.985 . S
H896 N890 0.984 . S
H897 N890 0.984 . S
H898 N886 0.984 . S
H899 N886 0.985 . S
C900 C901 1.363 . S
C900 C906 1.379 . S
C900 N908 1.356 . S
C901 C900 1.363 . S
C901 C907 1.363 . S
C902 C903 1.363 1_554 S
C902 C907 1.379 1_554 S
C902 N909 1.356 . S
C903 C902 1.363 1_556 S
C903 C906 1.363 . S
N904 C906 1.356 . S
N904 H916 0.984 . S
N904 H917 0.985 . S
N905 C907 1.356 . S
N905 H910 0.984 . S
N905 H911 0.985 . S
C906 C900 1.379 . S
C906 C903 1.363 . S
C906 N904 1.356 . S
C907 C901 1.363 . S
C907 C902 1.379 1_556 S
C907 N905 1.356 . S
N908 C900 1.356 . S
N908 H914 0.984 . S
N908 H915 0.984 . S
N909 C902 1.356 . S
N909 H912 0.984 . S
N909 H913 0.985 . S
H910 N905 0.984 . S
H911 N905 0.985 . S
H912 N909 0.984 . S
H913 N909 0.985 . S
H914 N908 0.984 . S
H915 N908 0.984 . S
H916 N904 0.984 . S
H917 N904 0.985 . S
C918 C919 1.363 . S
C918 C924 1.379 . S
C918 N926 1.356 . S
C919 C918 1.363 . S
C919 C925 1.363 . S
C920 C921 1.363 . S
C920 C925 1.379 . S
C920 N927 1.356 . S
C921 C920 1.363 . S
C921 C924 1.363 . S
N922 C924 1.356 . S
N922 H934 0.984 . S
N922 H935 0.985 . S
N923 C925 1.356 . S
N923 H928 0.984 . S
N923 H929 0.985 . S
C924 C918 1.379 . S
C924 C921 1.363 . S
C924 N922 1.356 . S
C925 C919 1.363 . S
C925 C920 1.379 . S
C925 N923 1.356 . S
N926 C918 1.356 . S
N926 H932 0.984 . S
N926 H933 0.984 . S
N927 C920 1.356 . S
N927 H930 0.984 . S
N927 H931 0.985 . S
H928 N923 0.984 . S
H929 N923 0.985 . S
H930 N927 0.984 . S
H931 N927 0.985 . S
H932 N926 0.984 . S
H933 N926 0.984 . S
H934 N922 0.984 . S
H935 N922 0.985 . S
C936 C937 1.363 . S
C936 C942 1.379 . S
C936 N944 1.356 . S
C937 C936 1.363 . S
C937 C943 1.363 . S
C938 C939 1.363 . S
C938 C943 1.379 . S
C938 N945 1.356 . S
C939 C938 1.363 . S
C939 C942 1.363 . S
N940 C942 1.356 . S
N940 H952 0.984 . S
N940 H953 0.985 . S
N941 C943 1.356 . S
N941 H946 0.984 . S
N941 H947 0.985 . S
C942 C936 1.379 . S
C942 C939 1.363 . S
C942 N940 1.356 . S
C943 C937 1.363 . S
C943 C938 1.379 . S
C943 N941 1.356 . S
N944 C936 1.356 . S
N944 H950 0.984 . S
N944 H951 0.984 . S
N945 C938 1.356 . S
N945 H948 0.984 . S
N945 H949 0.985 . S
H946 N941 0.984 . S
H947 N941 0.985 . S
H948 N945 0.984 . S
H949 N945 0.985 . S
H950 N944 0.984 . S
H951 N944 0.984 . S
H952 N940 0.984 . S
H953 N940 0.985 . S
C954 C955 1.363 . S
C954 C960 1.379 . S
C954 N962 1.356 . S
C955 C954 1.363 . S
C955 C961 1.363 . S
C956 C957 1.363 . S
C956 C961 1.379 . S
C956 N963 1.356 . S
C957 C956 1.363 . S
C957 C960 1.363 . S
N958 C960 1.356 1_455 S
N958 H970 0.984 . S
N958 H971 0.985 . S
N959 C961 1.356 . S
N959 H964 0.984 . S
N959 H965 0.985 . S
C960 C954 1.379 . S
C960 C957 1.363 . S
C960 N958 1.356 1_655 S
C961 C955 1.363 . S
C961 C956 1.379 . S
C961 N959 1.356 . S
N962 C954 1.356 . S
N962 H968 0.984 . S
N962 H969 0.984 . S
N963 C956 1.356 . S
N963 H966 0.984 . S
N963 H967 0.985 . S
H964 N959 0.984 . S
H965 N959 0.985 . S
H966 N963 0.984 . S
H967 N963 0.985 . S
H968 N962 0.984 . S
H969 N962 0.984 . S
H970 N958 0.984 . S
H971 N958 0.985 . S
C972 C973 1.363 . S
C972 C978 1.379 1_554 S
C972 N980 1.356 . S
C973 C972 1.363 . S
C973 C979 1.363 . S
C974 C975 1.363 . S
C974 C979 1.379 . S
C974 N981 1.356 . S
C975 C974 1.363 . S
C975 C978 1.363 1_554 S
N976 C978 1.356 . S
N976 H988 0.984 . S
N976 H989 0.985 . S
N977 C979 1.356 . S
N977 H982 0.984 . S
N977 H983 0.985 . S
C978 C972 1.379 1_556 S
C978 C975 1.363 1_556 S
C978 N976 1.356 . S
C979 C973 1.363 . S
C979 C974 1.379 . S
C979 N977 1.356 . S
N980 C972 1.356 . S
N980 H986 0.984 . S
N980 H987 0.984 . S
N981 C974 1.356 . S
N981 H984 0.984 . S
N981 H985 0.985 . S
H982 N977 0.984 . S
H983 N977 0.985 . S
H984 N981 0.984 . S
H985 N981 0.985 . S
H986 N980 0.984 . S
H987 N980 0.984 . S
H988 N976 0.984 . S
H989 N976 0.985 . S
C990 C991 1.363 . S
C990 C996 1.379 . S
C990 N998 1.356 . S
C991 C990 1.363 . S
C991 C997 1.363 . S
C992 C993 1.363 . S
C992 C997 1.379 . S
C992 N999 1.356 . S
C993 C992 1.363 . S
C993 C996 1.363 . S
N994 C996 1.356 . S
N994 H1006 0.984 . S
N994 H1007 0.985 . S
N995 C997 1.356 . S
N995 H1000 0.984 . S
N995 H1001 0.985 . S
C996 C990 1.379 . S
C996 C993 1.363 . S
C996 N994 1.356 . S
C997 C991 1.363 . S
C997 C992 1.379 . S
C997 N995 1.356 . S
N998 C990 1.356 . S
N998 H1004 0.984 . S
N998 H1005 0.984 . S
N999 C992 1.356 . S
N999 H1002 0.984 . S
N999 H1003 0.985 . S
H1000 N995 0.984 . S
H1001 N995 0.985 . S
H1002 N999 0.984 . S
H1003 N999 0.985 . S
H1004 N998 0.984 . S
H1005 N998 0.984 . S
H1006 N994 0.984 . S
H1007 N994 0.985 . S
C1008 C1009 1.363 . S
C1008 C1014 1.379 . S
C1008 N1016 1.356 . S
C1009 C1008 1.363 . S
C1009 C1015 1.363 . S
C1010 C1011 1.363 . S
C1010 C1015 1.379 . S
C1010 N1017 1.356 . S
C1011 C1010 1.363 . S
C1011 C1014 1.363 . S
N1012 C1014 1.356 . S
N1012 H1024 0.984 . S
N1012 H1025 0.985 . S
N1013 C1015 1.356 . S
N1013 H1018 0.984 . S
N1013 H1019 0.985 . S
C1014 C1008 1.379 . S
C1014 C1011 1.363 . S
C1014 N1012 1.356 . S
C1015 C1009 1.363 . S
C1015 C1010 1.379 . S
C1015 N1013 1.356 . S
N1016 C1008 1.356 . S
N1016 H1022 0.984 . S
N1016 H1023 0.984 . S
N1017 C1010 1.356 . S
N1017 H1020 0.984 . S
N1017 H1021 0.985 . S
H1018 N1013 0.984 . S
H1019 N1013 0.985 . S
H1020 N1017 0.984 . S
H1021 N1017 0.985 . S
H1022 N1016 0.984 . S
H1023 N1016 0.984 . S
H1024 N1012 0.984 . S
H1025 N1012 0.985 . S
C1026 C1027 1.363 . S
C1026 C1032 1.379 . S
C1026 N1034 1.356 . S
C1027 C1026 1.363 . S
C1027 C1033 1.363 . S
C1028 C1029 1.363 . S
C1028 C1033 1.379 . S
C1028 N1035 1.356 . S
C1029 C1028 1.363 . S
C1029 C1032 1.363 . S
N1030 C1032 1.356 . S
N1030 H1042 0.984 . S
N1030 H1043 0.985 . S
N1031 C1033 1.356 1_565 S
N1031 H1036 0.984 . S
N1031 H1037 0.985 . S
C1032 C1026 1.379 . S
C1032 C1029 1.363 . S
C1032 N1030 1.356 . S
C1033 C1027 1.363 . S
C1033 C1028 1.379 . S
C1033 N1031 1.356 1_545 S
N1034 C1026 1.356 . S
N1034 H1040 0.984 . S
N1034 H1041 0.984 . S
N1035 C1028 1.356 . S
N1035 H1038 0.984 . S
N1035 H1039 0.985 . S
H1036 N1031 0.984 . S
H1037 N1031 0.985 . S
H1038 N1035 0.984 . S
H1039 N1035 0.985 . S
H1040 N1034 0.984 . S
H1041 N1034 0.984 . S
H1042 N1030 0.984 . S
H1043 N1030 0.985 . S
C1044 C1045 1.363 . S
C1044 C1050 1.379 . S
C1044 N1052 1.356 . S
C1045 C1044 1.363 . S
C1045 C1051 1.363 . S
C1046 C1047 1.363 . S
C1046 C1051 1.379 . S
C1046 N1053 1.356 . S
C1047 C1046 1.363 . S
C1047 C1050 1.363 . S
N1048 C1050 1.356 1_545 S
N1048 H1060 0.984 . S
N1048 H1061 0.985 . S
N1049 C1051 1.356 . S
N1049 H1054 0.984 . S
N1049 H1055 0.985 . S
C1050 C1044 1.379 . S
C1050 C1047 1.363 . S
C1050 N1048 1.356 1_565 S
C1051 C1045 1.363 . S
C1051 C1046 1.379 . S
C1051 N1049 1.356 . S
N1052 C1044 1.356 . S
N1052 H1058 0.984 . S
N1052 H1059 0.984 . S
N1053 C1046 1.356 . S
N1053 H1056 0.984 1_565 S
N1053 H1057 0.985 . S
H1054 N1049 0.984 . S
H1055 N1049 0.985 . S
H1056 N1053 0.984 1_545 S
H1057 N1053 0.985 . S
H1058 N1052 0.984 . S
H1059 N1052 0.984 . S
H1060 N1048 0.984 . S
H1061 N1048 0.985 . S
C1062 C1063 1.363 . S
C1062 C1068 1.379 . S
C1062 N1070 1.356 . S
C1063 C1062 1.363 . S
C1063 C1069 1.363 . S
C1064 C1065 1.363 . S
C1064 C1069 1.379 . S
C1064 N1071 1.356 . S
C1065 C1064 1.363 . S
C1065 C1068 1.363 . S
N1066 C1068 1.356 . S
N1066 H1078 0.984 . S
N1066 H1079 0.985 . S
N1067 C1069 1.356 . S
N1067 H1072 0.984 . S
N1067 H1073 0.985 . S
C1068 C1062 1.379 . S
C1068 C1065 1.363 . S
C1068 N1066 1.356 . S
C1069 C1063 1.363 . S
C1069 C1064 1.379 . S
C1069 N1067 1.356 . S
N1070 C1062 1.356 . S
N1070 H1076 0.984 . S
N1070 H1077 0.984 . S
N1071 C1064 1.356 . S
N1071 H1074 0.984 . S
N1071 H1075 0.985 . S
H1072 N1067 0.984 . S
H1073 N1067 0.985 . S
H1074 N1071 0.984 . S
H1075 N1071 0.985 . S
H1076 N1070 0.984 . S
H1077 N1070 0.984 . S
H1078 N1066 0.984 . S
H1079 N1066 0.985 . S
C1080 C1081 1.363 . S
C1080 C1086 1.379 . S
C1080 N1088 1.356 . S
C1081 C1080 1.363 . S
C1081 C1087 1.363 . S
C1082 C1083 1.363 . S
C1082 C1087 1.379 . S
C1082 N1089 1.356 . S
C1083 C1082 1.363 . S
C1083 C1086 1.363 . S
N1084 C1086 1.356 . S
N1084 H1096 0.984 . S
N1084 H1097 0.985 . S
N1085 C1087 1.356 . S
N1085 H1090 0.984 . S
N1085 H1091 0.985 . S
C1086 C1080 1.379 . S
C1086 C1083 1.363 . S
C1086 N1084 1.356 . S
C1087 C1081 1.363 . S
C1087 C1082 1.379 . S
C1087 N1085 1.356 . S
N1088 C1080 1.356 . S
N1088 H1094 0.984 . S
N1088 H1095 0.984 . S
N1089 C1082 1.356 . S
N1089 H1092 0.984 . S
N1089 H1093 0.985 . S
H1090 N1085 0.984 . S
H1091 N1085 0.985 . S
H1092 N1089 0.984 . S
H1093 N1089 0.985 . S
H1094 N1088 0.984 . S
H1095 N1088 0.984 . S
H1096 N1084 0.984 . S
H1097 N1084 0.985 . S
C1098 C1099 1.363 1_545 S
C1098 C1104 1.379 . S
C1098 N1106 1.356 . S
C1099 C1098 1.363 1_565 S
C1099 C1105 1.363 . S
C1100 C1101 1.363 . S
C1100 C1105 1.379 1_545 S
C1100 N1107 1.356 . S
C1101 C1100 1.363 . S
C1101 C1104 1.363 . S
N1102 C1104 1.356 . S
N1102 H1114 0.984 . S
N1102 H1115 0.985 . S
N1103 C1105 1.356 . S
N1103 H1108 0.984 . S
N1103 H1109 0.985 . S
C1104 C1098 1.379 . S
C1104 C1101 1.363 . S
C1104 N1102 1.356 . S
C1105 C1099 1.363 . S
C1105 C1100 1.379 1_565 S
C1105 N1103 1.356 . S
N1106 C1098 1.356 . S
N1106 H1112 0.984 . S
N1106 H1113 0.984 1_545 S
N1107 C1100 1.356 . S
N1107 H1110 0.984 . S
N1107 H1111 0.985 1_545 S
H1108 N1103 0.984 . S
H1109 N1103 0.985 . S
H1110 N1107 0.984 . S
H1111 N1107 0.985 1_565 S
H1112 N1106 0.984 . S
H1113 N1106 0.984 1_565 S
H1114 N1102 0.984 . S
H1115 N1102 0.985 . S
C1116 C1117 1.363 . S
C1116 C1122 1.379 . S
C1116 N1124 1.356 . S
C1117 C1116 1.363 . S
C1117 C1123 1.363 . S
C1118 C1119 1.363 . S
C1118 C1123 1.379 1_554 S
C1118 N1125 1.356 . S
C1119 C1118 1.363 . S
C1119 C1122 1.363 1_554 S
N1120 C1122 1.356 1_554 S
N1120 H1132 0.984 1_554 S
N1120 H1133 0.985 . S
N1121 C1123 1.356 . S
N1121 H1126 0.984 . S
N1121 H1127 0.985 . S
C1122 C1116 1.379 . S
C1122 C1119 1.363 1_556 S
C1122 N1120 1.356 1_556 S
C1123 C1117 1.363 . S
C1123 C1118 1.379 1_556 S
C1123 N1121 1.356 . S
N1124 C1116 1.356 . S
N1124 H1130 0.984 . S
N1124 H1131 0.984 . S
N1125 C1118 1.356 . S
N1125 H1128 0.984 . S
N1125 H1129 0.985 . S
H1126 N1121 0.984 . S
H1127 N1121 0.985 . S
H1128 N1125 0.984 . S
H1129 N1125 0.985 . S
H1130 N1124 0.984 . S
H1131 N1124 0.984 . S
H1132 N1120 0.984 1_556 S
H1133 N1120 0.985 . S
C1134 C1135 1.363 1_565 S
C1134 C1140 1.379 . S
C1134 N1142 1.356 . S
C1135 C1134 1.363 1_545 S
C1135 C1141 1.363 . S
C1136 C1137 1.363 . S
C1136 C1141 1.379 1_565 S
C1136 N1143 1.356 . S
C1137 C1136 1.363 . S
C1137 C1140 1.363 . S
N1138 C1140 1.356 . S
N1138 H1150 0.984 . S
N1138 H1151 0.985 . S
N1139 C1141 1.356 . S
N1139 H1144 0.984 . S
N1139 H1145 0.985 . S
C1140 C1134 1.379 . S
C1140 C1137 1.363 . S
C1140 N1138 1.356 . S
C1141 C1135 1.363 . S
C1141 C1136 1.379 1_545 S
C1141 N1139 1.356 . S
N1142 C1134 1.356 . S
N1142 H1148 0.984 . S
N1142 H1149 0.984 1_565 S
N1143 C1136 1.356 . S
N1143 H1146 0.984 . S
N1143 H1147 1.003 . S
H1144 N1139 0.984 . S
H1145 N1139 0.985 . S
H1146 N1143 0.984 . S
H1147 N1143 1.003 . S
H1148 N1142 0.984 . S
H1149 N1142 0.984 1_545 S
H1150 N1138 0.984 . S
H1151 N1138 0.985 . S
C1152 C1153 1.363 . S
C1152 C1158 1.379 . S
C1152 N1160 1.356 . S
C1153 C1152 1.363 . S
C1153 C1159 1.363 . S
C1154 C1155 1.363 . S
C1154 C1159 1.379 . S
C1154 N1161 1.356 . S
C1155 C1154 1.363 . S
C1155 C1158 1.363 . S
N1156 C1158 1.356 . S
N1156 H1168 0.984 . S
N1156 H1169 0.985 . S
N1157 C1159 1.356 . S
N1157 H1162 0.984 . S
N1157 H1163 0.985 . S
C1158 C1152 1.379 . S
C1158 C1155 1.363 . S
C1158 N1156 1.356 . S
C1159 C1153 1.363 . S
C1159 C1154 1.379 . S
C1159 N1157 1.356 . S
N1160 C1152 1.356 . S
N1160 H1166 0.984 . S
N1160 H1167 0.984 . S
N1161 C1154 1.356 . S
N1161 H1164 0.984 . S
N1161 H1165 0.985 . S
H1162 N1157 0.984 . S
H1163 N1157 0.985 . S
H1164 N1161 0.984 . S
H1165 N1161 0.985 . S
H1166 N1160 0.984 . S
H1167 N1160 0.984 . S
H1168 N1156 0.984 . S
H1169 N1156 0.985 . S
C1170 C1171 1.363 . S
C1170 C1176 1.379 . S
C1170 N1178 1.356 . S
C1171 C1170 1.363 . S
C1171 C1177 1.363 . S
C1172 C1173 1.363 . S
C1172 C1177 1.379 . S
C1172 N1179 1.356 . S
C1173 C1172 1.363 . S
C1173 C1176 1.363 . S
N1174 C1176 1.356 . S
N1174 H1186 0.984 . S
N1174 H1187 0.985 . S
N1175 C1177 1.356 . S
N1175 H1180 0.984 . S
N1175 H1181 0.985 . S
C1176 C1170 1.379 . S
C1176 C1173 1.363 . S
C1176 N1174 1.356 . S
C1177 C1171 1.363 . S
C1177 C1172 1.379 . S
C1177 N1175 1.356 . S
N1178 C1170 1.356 . S
N1178 H1184 0.984 . S
N1178 H1185 0.984 . S
N1179 C1172 1.356 . S
N1179 H1182 0.984 . S
N1179 H1183 0.985 . S
H1180 N1175 0.984 . S
H1181 N1175 0.985 . S
H1182 N1179 0.984 . S
H1183 N1179 0.985 . S
H1184 N1178 0.984 . S
H1185 N1178 0.984 . S
H1186 N1174 0.984 . S
H1187 N1174 0.985 . S
C1188 C1189 1.363 . S
C1188 C1194 1.379 1_556 S
C1188 N1196 1.356 . S
C1189 C1188 1.363 . S
C1189 C1195 1.350 1_556 S
C1190 C1191 1.363 . S
C1190 C1195 1.399 . S
C1190 N1197 1.356 . S
C1191 C1190 1.363 . S
C1191 C1194 1.363 . S
N1192 C1194 1.356 . S
N1192 H1204 0.984 . S
N1192 H1205 0.985 . S
N1193 C1195 1.344 1_556 S
N1193 H1198 0.984 . S
N1193 H1199 0.985 . S
C1194 C1188 1.379 1_554 S
C1194 C1191 1.363 . S
C1194 N1192 1.356 . S
C1195 C1189 1.350 1_554 S
C1195 C1190 1.399 . S
C1195 N1193 1.344 1_554 S
N1196 C1188 1.356 . S
N1196 H1202 0.984 . S
N1196 H1203 0.984 . S
N1197 C1190 1.356 . S
N1197 H1200 0.984 . S
N1197 H1201 0.985 . S
H1198 N1193 0.984 . S
H1199 N1193 0.985 . S
H1200 N1197 0.984 . S
H1201 N1197 0.985 . S
H1202 N1196 0.984 . S
H1203 N1196 0.984 . S
H1204 N1192 0.984 . S
H1205 N1192 0.985 . S
C1206 C1207 1.363 . S
C1206 C1212 1.379 . S
C1206 N1214 1.356 . S
C1207 C1206 1.363 . S
C1207 C1213 1.363 . S
C1208 C1209 1.363 . S
C1208 C1213 1.379 . S
C1208 N1215 1.356 . S
C1209 C1208 1.363 . S
C1209 C1212 1.363 . S
N1210 C1212 1.356 . S
N1210 H1222 0.984 . S
N1210 H1223 0.985 . S
N1211 C1213 1.356 . S
N1211 H1216 0.984 . S
N1211 H1217 0.985 . S
C1212 C1206 1.379 . S
C1212 C1209 1.363 . S
C1212 N1210 1.356 . S
C1213 C1207 1.363 . S
C1213 C1208 1.379 . S
C1213 N1211 1.356 . S
N1214 C1206 1.356 . S
N1214 H1220 0.984 . S
N1214 H1221 0.984 . S
N1215 C1208 1.356 . S
N1215 H1218 0.984 . S
N1215 H1219 0.985 . S
H1216 N1211 0.984 . S
H1217 N1211 0.985 . S
H1218 N1215 0.984 . S
H1219 N1215 0.985 . S
H1220 N1214 0.984 . S
H1221 N1214 0.984 . S
H1222 N1210 0.984 . S
H1223 N1210 0.985 . S
C1224 C1225 1.363 . S
C1224 C1230 1.379 . S
C1224 N1232 1.356 . S
C1225 C1224 1.363 . S
C1225 C1231 1.363 . S
C1226 C1227 1.363 . S
C1226 C1231 1.379 . S
C1226 N1233 1.356 . S
C1227 C1226 1.363 . S
C1227 C1230 1.363 . S
N1228 C1230 1.356 . S
N1228 H1240 0.984 . S
N1228 H1241 0.985 . S
N1229 C1231 1.356 . S
N1229 H1234 0.984 . S
N1229 H1235 0.985 . S
C1230 C1224 1.379 . S
C1230 C1227 1.363 . S
C1230 N1228 1.356 . S
C1231 C1225 1.363 . S
C1231 C1226 1.379 . S
C1231 N1229 1.356 . S
N1232 C1224 1.356 . S
N1232 H1238 0.984 . S
N1232 H1239 0.984 . S
N1233 C1226 1.356 . S
N1233 H1236 0.984 . S
N1233 H1237 0.985 . S
H1234 N1229 0.984 . S
H1235 N1229 0.985 . S
H1236 N1233 0.984 . S
H1237 N1233 0.985 . S
H1238 N1232 0.984 . S
H1239 N1232 0.984 . S
H1240 N1228 0.984 . S
H1241 N1228 0.985 . S
C1242 C1243 1.363 . S
C1242 C1248 1.379 1_455 S
C1242 N1250 1.356 . S
C1243 C1242 1.363 . S
C1243 C1249 1.367 . S
C1244 C1245 1.363 . S
C1244 C1249 1.373 1_655 S
C1244 N1251 1.356 . S
C1245 C1244 1.363 . S
C1245 C1248 1.363 . S
N1246 C1248 1.356 . S
N1246 H1258 0.984 . S
N1246 H1259 0.985 . S
N1247 C1249 1.360 . S
N1247 H1252 0.984 . S
N1247 H1253 0.985 . S
C1248 C1242 1.379 1_655 S
C1248 C1245 1.363 . S
C1248 N1246 1.356 . S
C1249 C1243 1.367 . S
C1249 C1244 1.373 1_455 S
C1249 N1247 1.360 . S
N1250 C1242 1.356 . S
N1250 H1256 0.984 . S
N1250 H1257 0.984 . S
N1251 C1244 1.356 . S
N1251 H1254 0.984 . S
N1251 H1255 0.985 . S
H1252 N1247 0.984 . S
H1253 N1247 0.985 . S
H1254 N1251 0.984 . S
H1255 N1251 0.985 . S
H1256 N1250 0.984 . S
H1257 N1250 0.984 . S
H1258 N1246 0.984 . S
H1259 N1246 0.985 . S
C1260 C1261 1.363 . S
C1260 C1266 1.379 1_655 S
C1260 N1268 1.356 . S
C1261 C1260 1.363 . S
C1261 C1267 1.363 1_655 S
C1262 C1263 1.363 . S
C1262 C1267 1.379 . S
C1262 N1269 1.356 . S
C1263 C1262 1.363 . S
C1263 C1266 1.363 . S
N1264 C1266 1.356 . S
N1264 H1276 0.984 1_455 S
N1264 H1277 0.985 . S
N1265 C1267 1.356 . S
N1265 H1270 0.984 1_455 S
N1265 H1271 0.985 . S
C1266 C1260 1.379 1_455 S
C1266 C1263 1.363 . S
C1266 N1264 1.356 . S
C1267 C1261 1.363 1_455 S
C1267 C1262 1.379 . S
C1267 N1265 1.356 . S
N1268 C1260 1.356 . S
N1268 H1274 0.984 . S
N1268 H1275 0.984 . S
N1269 C1262 1.356 . S
N1269 H1272 0.984 . S
N1269 H1273 0.985 . S
H1270 N1265 0.984 1_655 S
H1271 N1265 0.985 . S
H1272 N1269 0.984 . S
H1273 N1269 0.985 . S
H1274 N1268 0.984 . S
H1275 N1268 0.984 . S
H1276 N1264 0.984 1_655 S
H1277 N1264 0.985 . S
C1278 C1279 1.363 . S
C1278 C1284 1.379 . S
C1278 N1286 1.356 . S
C1279 C1278 1.363 . S
C1279 C1285 1.363 . S
C1280 C1281 1.363 . S
C1280 C1285 1.379 . S
C1280 N1287 1.356 . S
C1281 C1280 1.363 . S
C1281 C1284 1.363 . S
N1282 C1284 1.356 . S
N1282 H1294 0.984 . S
N1282 H1295 0.985 . S
N1283 C1285 1.356 . S
N1283 H1288 0.984 . S
N1283 H1289 0.985 . S
C1284 C1278 1.379 . S
C1284 C1281 1.363 . S
C1284 N1282 1.356 . S
C1285 C1279 1.363 . S
C1285 C1280 1.379 . S
C1285 N1283 1.356 . S
N1286 C1278 1.356 . S
N1286 H1292 0.984 . S
N1286 H1293 0.984 . S
N1287 C1280 1.356 . S
N1287 H1290 0.984 . S
N1287 H1291 0.985 . S
H1288 N1283 0.984 . S
H1289 N1283 0.985 . S
H1290 N1287 0.984 . S
H1291 N1287 0.985 . S
H1292 N1286 0.984 . S
H1293 N1286 0.984 . S
H1294 N1282 0.984 . S
H1295 N1282 0.985 . S
C1296 C1297 1.363 . S
C1296 C1302 1.379 . S
C1296 N1304 1.356 . S
C1297 C1296 1.363 . S
C1297 C1303 1.363 . S
C1298 C1299 1.363 . S
C1298 C1303 1.379 . S
C1298 N1305 1.356 . S
C1299 C1298 1.363 . S
C1299 C1302 1.363 . S
N1300 C1302 1.356 . S
N1300 H1312 0.984 . S
N1300 H1313 0.985 . S
N1301 C1303 1.356 . S
N1301 H1306 0.984 . S
N1301 H1307 0.985 . S
C1302 C1296 1.379 . S
C1302 C1299 1.363 . S
C1302 N1300 1.356 . S
C1303 C1297 1.363 . S
C1303 C1298 1.379 . S
C1303 N1301 1.356 . S
N1304 C1296 1.356 . S
N1304 H1310 0.984 . S
N1304 H1311 0.984 . S
N1305 C1298 1.356 . S
N1305 H1308 0.984 . S
N1305 H1309 0.985 . S
H1306 N1301 0.984 . S
H1307 N1301 0.985 . S
H1308 N1305 0.984 . S
H1309 N1305 0.985 . S
H1310 N1304 0.984 . S
H1311 N1304 0.984 . S
H1312 N1300 0.984 . S
H1313 N1300 0.985 . S
C1314 C1315 1.351 1_545 S
C1314 C1320 1.360 1_545 S
C1314 N1322 1.388 . S
C1315 C1314 1.351 1_565 S
C1315 C1321 1.363 . S
C1316 C1317 1.363 . S
C1316 C1321 1.379 . S
C1316 N1323 1.356 . S
C1317 C1316 1.363 . S
C1317 C1320 1.363 . S
N1318 C1320 1.356 . S
N1318 H1330 0.984 1_565 S
N1318 H1331 0.985 . S
N1319 C1321 1.356 . S
N1319 H1324 0.984 . S
N1319 H1325 0.985 . S
C1320 C1314 1.360 1_565 S
C1320 C1317 1.363 . S
C1320 N1318 1.356 . S
C1321 C1315 1.363 . S
C1321 C1316 1.379 . S
C1321 N1319 1.356 . S
N1322 C1314 1.388 . S
N1322 H1328 0.984 . S
N1322 H1329 0.984 . S
N1323 C1316 1.356 . S
N1323 H1326 0.984 . S
N1323 H1327 0.985 . S
H1324 N1319 0.984 . S
H1325 N1319 0.985 . S
H1326 N1323 0.984 . S
H1327 N1323 0.985 . S
H1328 N1322 0.984 . S
H1329 N1322 0.984 . S
H1330 N1318 0.984 1_545 S
H1331 N1318 0.985 . S
C1332 C1333 1.363 . S
C1332 C1338 1.379 . S
C1332 N1340 1.356 . S
C1333 C1332 1.363 . S
C1333 C1339 1.363 . S
C1334 C1335 1.363 . S
C1334 C1339 1.379 . S
C1334 N1341 1.356 . S
C1335 C1334 1.363 . S
C1335 C1338 1.363 . S
N1336 C1338 1.356 . S
N1336 H1348 0.984 . S
N1336 H1349 0.985 . S
N1337 C1339 1.356 . S
N1337 H1342 0.984 . S
N1337 H1343 0.985 . S
C1338 C1332 1.379 . S
C1338 C1335 1.363 . S
C1338 N1336 1.356 . S
C1339 C1333 1.363 . S
C1339 C1334 1.379 . S
C1339 N1337 1.356 . S
N1340 C1332 1.356 . S
N1340 H1346 0.984 . S
N1340 H1347 0.984 . S
N1341 C1334 1.356 . S
N1341 H1344 0.984 . S
N1341 H1345 0.985 . S
H1342 N1337 0.984 . S
H1343 N1337 0.985 . S
H1344 N1341 0.984 . S
H1345 N1341 0.985 . S
H1346 N1340 0.984 . S
H1347 N1340 0.984 . S
H1348 N1336 0.984 . S
H1349 N1336 0.985 . S
C1350 C1351 1.363 . S
C1350 C1356 1.379 1_545 S
C1350 N1358 1.356 . S
C1351 C1350 1.363 . S
C1351 C1357 1.363 . S
C1352 C1353 1.365 . S
C1352 C1357 1.407 . S
C1352 N1359 1.322 1_554 S
C1353 C1352 1.365 . S
C1353 C1356 1.363 1_545 S
N1354 C1356 1.356 . S
N1354 H1366 0.984 . S
N1354 H1367 0.985 . S
N1355 C1357 1.356 . S
N1355 H1360 0.984 . S
N1355 H1361 0.985 . S
C1356 C1350 1.379 1_565 S
C1356 C1353 1.363 1_565 S
C1356 N1354 1.356 . S
C1357 C1351 1.363 . S
C1357 C1352 1.407 . S
C1357 N1355 1.356 . S
N1358 C1350 1.356 . S
N1358 H1364 0.984 1_545 S
N1358 H1365 0.984 . S
N1359 C1352 1.322 1_556 S
N1359 H1362 0.984 . S
N1359 H1363 0.985 . S
H1360 N1355 0.984 . S
H1361 N1355 0.985 . S
H1362 N1359 0.984 . S
H1363 N1359 0.985 . S
H1364 N1358 0.984 1_565 S
H1365 N1358 0.984 . S
H1366 N1354 0.984 . S
H1367 N1354 0.985 . S
C1368 C1369 1.363 . S
C1368 C1374 1.379 . S
C1368 N1376 1.356 . S
C1369 C1368 1.363 . S
C1369 C1375 1.363 . S
C1370 C1371 1.363 . S
C1370 C1375 1.379 . S
C1370 N1377 1.356 . S
C1371 C1370 1.363 . S
C1371 C1374 1.363 . S
N1372 C1374 1.356 . S
N1372 H1384 0.984 . S
N1372 H1385 0.985 . S
N1373 C1375 1.356 . S
N1373 H1378 0.984 . S
N1373 H1379 0.985 . S
C1374 C1368 1.379 . S
C1374 C1371 1.363 . S
C1374 N1372 1.356 . S
C1375 C1369 1.363 . S
C1375 C1370 1.379 . S
C1375 N1373 1.356 . S
N1376 C1368 1.356 . S
N1376 H1382 0.984 . S
N1376 H1383 0.984 . S
N1377 C1370 1.356 . S
N1377 H1380 0.984 . S
N1377 H1381 0.985 . S
H1378 N1373 0.984 . S
H1379 N1373 0.985 . S
H1380 N1377 0.984 . S
H1381 N1377 0.985 . S
H1382 N1376 0.984 . S
H1383 N1376 0.984 . S
H1384 N1372 0.984 . S
H1385 N1372 0.985 . S
C1386 C1387 1.362 1_554 S
C1386 C1392 1.372 1_554 S
C1386 N1394 1.365 . S
C1387 C1386 1.362 1_556 S
C1387 C1393 1.363 . S
C1388 C1389 1.363 . S
C1388 C1393 1.379 . S
C1388 N1395 1.356 . S
C1389 C1388 1.363 . S
C1389 C1392 1.363 . S
N1390 C1392 1.356 . S
N1390 H1402 0.984 . S
N1390 H1403 0.985 . S
N1391 C1393 1.356 . S
N1391 H1396 0.984 . S
N1391 H1397 0.985 . S
C1392 C1386 1.372 1_556 S
C1392 C1389 1.363 . S
C1392 N1390 1.356 . S
C1393 C1387 1.363 . S
C1393 C1388 1.379 . S
C1393 N1391 1.356 . S
N1394 C1386 1.365 . S
N1394 H1400 0.984 . S
N1394 H1401 0.984 . S
N1395 C1388 1.356 . S
N1395 H1398 0.984 . S
N1395 H1399 0.985 . S
H1396 N1391 0.984 . S
H1397 N1391 0.985 . S
H1398 N1395 0.984 . S
H1399 N1395 0.985 . S
H1400 N1394 0.984 . S
H1401 N1394 0.984 . S
H1402 N1390 0.984 . S
H1403 N1390 0.985 . S
C1404 C1405 1.363 . S
C1404 C1410 1.379 . S
C1404 N1412 1.356 . S
C1405 C1404 1.363 . S
C1405 C1411 1.363 . S
C1406 C1407 1.363 . S
C1406 C1411 1.379 . S
C1406 N1413 1.356 . S
C1407 C1406 1.363 . S
C1407 C1410 1.363 . S
N1408 C1410 1.356 . S
N1408 H1420 0.984 . S
N1408 H1421 0.985 . S
N1409 C1411 1.356 . S
N1409 H1414 0.984 . S
N1409 H1415 0.985 . S
C1410 C1404 1.379 . S
C1410 C1407 1.363 . S
C1410 N1408 1.356 . S
C1411 C1405 1.363 . S
C1411 C1406 1.379 . S
C1411 N1409 1.356 . S
N1412 C1404 1.356 . S
N1412 H1418 0.984 . S
N1412 H1419 0.984 . S
N1413 C1406 1.356 . S
N1413 H1416 0.984 . S
N1413 H1417 0.985 . S
H1414 N1409 0.984 . S
H1415 N1409 0.985 . S
H1416 N1413 0.984 . S
H1417 N1413 0.985 . S
H1418 N1412 0.984 . S
H1419 N1412 0.984 . S
H1420 N1408 0.984 . S
H1421 N1408 0.985 . S
C1422 C1423 1.363 . S
C1422 C1428 1.379 . S
C1422 N1430 1.356 . S
C1423 C1422 1.363 . S
C1423 C1429 1.363 . S
C1424 C1425 1.363 . S
C1424 C1429 1.379 . S
C1424 N1431 1.356 . S
C1425 C1424 1.363 . S
C1425 C1428 1.363 . S
N1426 C1428 1.356 . S
N1426 H1438 0.984 . S
N1426 H1439 0.985 . S
N1427 C1429 1.356 . S
N1427 H1432 0.984 . S
N1427 H1433 0.985 . S
C1428 C1422 1.379 . S
C1428 C1425 1.363 . S
C1428 N1426 1.356 . S
C1429 C1423 1.363 . S
C1429 C1424 1.379 . S
C1429 N1427 1.356 . S
N1430 C1422 1.356 . S
N1430 H1436 0.984 . S
N1430 H1437 0.984 . S
N1431 C1424 1.356 . S
N1431 H1434 0.984 . S
N1431 H1435 0.985 . S
H1432 N1427 0.984 . S
H1433 N1427 0.985 . S
H1434 N1431 0.984 . S
H1435 N1431 0.985 . S
H1436 N1430 0.984 . S
H1437 N1430 0.984 . S
H1438 N1426 0.984 . S
H1439 N1426 0.985 . S
C1440 C1441 1.363 . S
C1440 C1446 1.379 . S
C1440 N1448 1.356 . S
C1441 C1440 1.363 . S
C1441 C1447 1.363 . S
C1442 C1443 1.363 . S
C1442 C1447 1.379 . S
C1442 N1449 1.356 . S
C1443 C1442 1.363 . S
C1443 C1446 1.363 . S
N1444 C1446 1.356 . S
N1444 H1456 0.984 . S
N1444 H1457 0.985 . S
N1445 C1447 1.356 . S
N1445 H1450 0.984 . S
N1445 H1451 0.985 . S
C1446 C1440 1.379 . S
C1446 C1443 1.363 . S
C1446 N1444 1.356 . S
C1447 C1441 1.363 . S
C1447 C1442 1.379 . S
C1447 N1445 1.356 . S
N1448 C1440 1.356 . S
N1448 H1454 0.984 . S
N1448 H1455 0.984 . S
N1449 C1442 1.356 . S
N1449 H1452 0.984 . S
N1449 H1453 0.985 . S
H1450 N1445 0.984 . S
H1451 N1445 0.985 . S
H1452 N1449 0.984 . S
H1453 N1449 0.985 . S
H1454 N1448 0.984 . S
H1455 N1448 0.984 . S
H1456 N1444 0.984 . S
H1457 N1444 0.985 . S
C1458 C1459 1.363 . S
C1458 C1464 1.379 . S
C1458 N1466 1.356 1_545 S
C1459 C1458 1.363 . S
C1459 C1465 1.363 . S
C1460 C1461 1.363 . S
C1460 C1465 1.379 . S
C1460 N1467 1.356 . S
C1461 C1460 1.363 . S
C1461 C1464 1.363 . S
N1462 C1464 1.356 . S
N1462 H1474 0.984 . S
N1462 H1475 0.985 . S
N1463 C1465 1.356 1_655 S
N1463 H1468 0.984 1_545 S
N1463 H1469 0.985 . S
C1464 C1458 1.379 . S
C1464 C1461 1.363 . S
C1464 N1462 1.356 . S
C1465 C1459 1.363 . S
C1465 C1460 1.379 . S
C1465 N1463 1.356 1_455 S
N1466 C1458 1.356 1_565 S
N1466 H1472 0.984 . S
N1466 H1473 0.984 . S
N1467 C1460 1.356 . S
N1467 H1470 0.984 . S
N1467 H1471 0.985 . S
H1468 N1463 0.984 1_565 S
H1469 N1463 0.985 . S
H1470 N1467 0.984 . S
H1471 N1467 0.985 . S
H1472 N1466 0.984 . S
H1473 N1466 0.984 . S
H1474 N1462 0.984 . S
H1475 N1462 0.985 . S
C1476 C1477 1.363 . S
C1476 C1482 1.379 . S
C1476 N1484 1.356 . S
C1477 C1476 1.363 . S
C1477 C1483 1.363 . S
C1478 C1479 1.363 . S
C1478 C1483 1.379 . S
C1478 N1485 1.356 . S
C1479 C1478 1.363 . S
C1479 C1482 1.363 . S
N1480 C1482 1.356 . S
N1480 H1492 0.984 . S
N1480 H1493 0.985 . S
N1481 C1483 1.356 . S
N1481 H1486 0.984 . S
N1481 H1487 0.985 . S
C1482 C1476 1.379 . S
C1482 C1479 1.363 . S
C1482 N1480 1.356 . S
C1483 C1477 1.363 . S
C1483 C1478 1.379 . S
C1483 N1481 1.356 . S
N1484 C1476 1.356 . S
N1484 H1490 0.984 . S
N1484 H1491 0.984 . S
N1485 C1478 1.356 . S
N1485 H1488 0.984 . S
N1485 H1489 0.985 . S
H1486 N1481 0.984 . S
H1487 N1481 0.985 . S
H1488 N1485 0.984 . S
H1489 N1485 0.985 . S
H1490 N1484 0.984 . S
H1491 N1484 0.984 . S
H1492 N1480 0.984 . S
H1493 N1480 0.985 . S
C1494 C1495 1.363 . S
C1494 C1500 1.379 . S
C1494 N1502 1.356 1_565 S
C1495 C1494 1.363 . S
C1495 C1501 1.363 . S
C1496 C1497 1.363 . S
C1496 C1501 1.379 . S
C1496 N1503 1.356 . S
C1497 C1496 1.363 . S
C1497 C1500 1.363 . S
N1498 C1500 1.356 . S
N1498 H1510 0.984 . S
N1498 H1511 0.985 . S
N1499 C1501 1.356 . S
N1499 H1504 0.984 1_565 S
N1499 H1505 0.985 . S
C1500 C1494 1.379 . S
C1500 C1497 1.363 . S
C1500 N1498 1.356 . S
C1501 C1495 1.363 . S
C1501 C1496 1.379 . S
C1501 N1499 1.356 . S
N1502 C1494 1.356 1_545 S
N1502 H1508 0.984 . S
N1502 H1509 0.984 . S
N1503 C1496 1.356 . S
N1503 H1506 0.984 . S
N1503 H1507 0.985 . S
H1504 N1499 0.984 1_545 S
H1505 N1499 0.985 . S
H1506 N1503 0.984 . S
H1507 N1503 0.985 . S
H1508 N1502 0.984 . S
H1509 N1502 0.984 . S
H1510 N1498 0.984 . S
H1511 N1498 0.985 . S
C1512 C1513 1.363 . S
C1512 C1518 1.379 . S
C1512 N1520 1.356 . S
C1513 C1512 1.363 . S
C1513 C1519 1.363 . S
C1514 C1515 1.363 . S
C1514 C1519 1.379 . S
C1514 N1521 1.356 . S
C1515 C1514 1.363 . S
C1515 C1518 1.363 . S
N1516 C1518 1.356 . S
N1516 H1528 0.984 . S
N1516 H1529 0.985 . S
N1517 C1519 1.356 . S
N1517 H1522 0.984 . S
N1517 H1523 0.985 . S
C1518 C1512 1.379 . S
C1518 C1515 1.363 . S
C1518 N1516 1.356 . S
C1519 C1513 1.363 . S
C1519 C1514 1.379 . S
C1519 N1517 1.356 . S
N1520 C1512 1.356 . S
N1520 H1526 0.984 . S
N1520 H1527 0.984 . S
N1521 C1514 1.356 . S
N1521 H1524 0.984 . S
N1521 H1525 0.985 . S
H1522 N1517 0.984 . S
H1523 N1517 0.985 . S
H1524 N1521 0.984 . S
H1525 N1521 0.985 . S
H1526 N1520 0.984 . S
H1527 N1520 0.984 . S
H1528 N1516 0.984 . S
H1529 N1516 0.985 . S
C1530 C1531 1.363 . S
C1530 C1536 1.379 . S
C1530 N1538 1.356 1_655 S
C1531 C1530 1.363 . S
C1531 C1537 1.363 . S
C1532 C1533 1.363 . S
C1532 C1537 1.379 . S
C1532 N1539 1.356 . S
C1533 C1532 1.363 . S
C1533 C1536 1.363 . S
N1534 C1536 1.356 . S
N1534 H1546 0.984 . S
N1534 H1547 0.985 . S
N1535 C1537 1.356 . S
N1535 H1540 0.984 . S
N1535 H1541 0.985 . S
C1536 C1530 1.379 . S
C1536 C1533 1.363 . S
C1536 N1534 1.356 . S
C1537 C1531 1.363 . S
C1537 C1532 1.379 . S
C1537 N1535 1.356 . S
N1538 C1530 1.356 1_455 S
N1538 H1544 0.984 . S
N1538 H1545 0.984 . S
N1539 C1532 1.356 . S
N1539 H1542 0.984 . S
N1539 H1543 0.985 . S
H1540 N1535 0.984 . S
H1541 N1535 0.985 . S
H1542 N1539 0.984 . S
H1543 N1539 0.985 . S
H1544 N1538 0.984 . S
H1545 N1538 0.984 . S
H1546 N1534 0.984 . S
H1547 N1534 0.985 . S
C1548 C1549 1.363 . S
C1548 C1554 1.379 . S
C1548 N1556 1.356 . S
C1549 C1548 1.363 . S
C1549 C1555 1.363 . S
C1550 C1551 1.363 . S
C1550 C1555 1.379 . S
C1550 N1557 1.356 . S
C1551 C1550 1.363 . S
C1551 C1554 1.363 . S
N1552 C1554 1.356 . S
N1552 H1564 0.984 . S
N1552 H1565 0.985 . S
N1553 C1555 1.356 . S
N1553 H1558 0.984 . S
N1553 H1559 0.985 . S
C1554 C1548 1.379 . S
C1554 C1551 1.363 . S
C1554 N1552 1.356 . S
C1555 C1549 1.363 . S
C1555 C1550 1.379 . S
C1555 N1553 1.356 . S
N1556 C1548 1.356 . S
N1556 H1562 0.984 . S
N1556 H1563 0.984 . S
N1557 C1550 1.356 . S
N1557 H1560 0.984 . S
N1557 H1561 0.985 . S
H1558 N1553 0.984 . S
H1559 N1553 0.985 . S
H1560 N1557 0.984 . S
H1561 N1557 0.985 . S
H1562 N1556 0.984 . S
H1563 N1556 0.984 . S
H1564 N1552 0.984 . S
H1565 N1552 0.985 . S
C1566 C1567 1.363 . S
C1566 C1572 1.379 . S
C1566 N1574 1.356 . S
C1567 C1566 1.363 . S
C1567 C1573 1.363 . S
C1568 C1569 1.363 . S
C1568 C1573 1.379 . S
C1568 N1575 1.356 . S
C1569 C1568 1.363 . S
C1569 C1572 1.363 . S
N1570 C1572 1.356 . S
N1570 H1582 0.984 . S
N1570 H1583 0.985 . S
N1571 C1573 1.356 . S
N1571 H1576 0.984 . S
N1571 H1577 0.985 . S
C1572 C1566 1.379 . S
C1572 C1569 1.363 . S
C1572 N1570 1.356 . S
C1573 C1567 1.363 . S
C1573 C1568 1.379 . S
C1573 N1571 1.356 . S
N1574 C1566 1.356 . S
N1574 H1580 0.984 . S
N1574 H1581 0.984 . S
N1575 C1568 1.356 . S
N1575 H1578 0.984 . S
N1575 H1579 0.985 . S
H1576 N1571 0.984 . S
H1577 N1571 0.985 . S
H1578 N1575 0.984 . S
H1579 N1575 0.985 . S
H1580 N1574 0.984 . S
H1581 N1574 0.984 . S
H1582 N1570 0.984 . S
H1583 N1570 0.985 . S
C1584 C1585 1.363 . S
C1584 C1590 1.379 . S
C1584 N1592 1.356 . S
C1585 C1584 1.363 . S
C1585 C1591 1.363 . S
C1586 C1587 1.363 . S
C1586 C1591 1.379 . S
C1586 N1593 1.356 . S
C1587 C1586 1.363 . S
C1587 C1590 1.363 . S
N1588 C1590 1.356 . S
N1588 H1600 0.984 . S
N1588 H1601 0.985 . S
N1589 C1591 1.356 . S
N1589 H1594 0.984 . S
N1589 H1595 0.985 . S
C1590 C1584 1.379 . S
C1590 C1587 1.363 . S
C1590 N1588 1.356 . S
C1591 C1585 1.363 . S
C1591 C1586 1.379 . S
C1591 N1589 1.356 . S
N1592 C1584 1.356 . S
N1592 H1598 0.984 . S
N1592 H1599 0.984 . S
N1593 C1586 1.356 . S
N1593 H1596 0.984 . S
N1593 H1597 0.985 . S
H1594 N1589 0.984 . S
H1595 N1589 0.985 . S
H1596 N1593 0.984 . S
H1597 N1593 0.985 . S
H1598 N1592 0.984 . S
H1599 N1592 0.984 . S
H1600 N1588 0.984 . S
H1601 N1588 0.985 . S
C1602 C1603 1.363 . S
C1602 C1608 1.379 . S
C1602 N1610 1.356 . S
C1603 C1602 1.363 . S
C1603 C1609 1.363 . S
C1604 C1605 1.363 . S
C1604 C1609 1.379 . S
C1604 N1611 1.356 . S
C1605 C1604 1.363 . S
C1605 C1608 1.363 . S
N1606 C1608 1.356 . S
N1606 H1618 0.984 . S
N1606 H1619 0.985 . S
N1607 C1609 1.356 . S
N1607 H1612 0.984 . S
N1607 H1613 0.985 . S
C1608 C1602 1.379 . S
C1608 C1605 1.363 . S
C1608 N1606 1.356 . S
C1609 C1603 1.363 . S
C1609 C1604 1.379 . S
C1609 N1607 1.356 . S
N1610 C1602 1.356 . S
N1610 H1616 0.984 . S
N1610 H1617 0.984 . S
N1611 C1604 1.356 . S
N1611 H1614 0.984 . S
N1611 H1615 0.985 . S
H1612 N1607 0.984 . S
H1613 N1607 0.985 . S
H1614 N1611 0.984 . S
H1615 N1611 0.985 . S
H1616 N1610 0.984 . S
H1617 N1610 0.984 . S
H1618 N1606 0.984 . S
H1619 N1606 0.985 . S
C1620 C1621 1.363 . S
C1620 C1626 1.379 . S
C1620 N1628 1.356 1_455 S
C1621 C1620 1.363 . S
C1621 C1627 1.363 . S
C1622 C1623 1.363 . S
C1622 C1627 1.379 . S
C1622 N1629 1.356 . S
C1623 C1622 1.363 . S
C1623 C1626 1.363 . S
N1624 C1626 1.356 . S
N1624 H1636 0.984 . S
N1624 H1637 0.985 . S
N1625 C1627 1.356 . S
N1625 H1630 0.984 1_454 S
N1625 H1631 0.985 . S
C1626 C1620 1.379 . S
C1626 C1623 1.363 . S
C1626 N1624 1.356 . S
C1627 C1621 1.363 . S
C1627 C1622 1.379 . S
C1627 N1625 1.356 . S
N1628 C1620 1.356 1_655 S
N1628 H1634 0.984 . S
N1628 H1635 0.984 1_554 S
N1629 C1622 1.356 . S
N1629 H1632 0.984 . S
N1629 H1633 0.985 . S
H1630 N1625 0.984 1_656 S
H1631 N1625 0.985 . S
H1632 N1629 0.984 . S
H1633 N1629 0.985 . S
H1634 N1628 0.984 . S
H1635 N1628 0.984 1_556 S
H1636 N1624 0.984 . S
H1637 N1624 0.985 . S
C1638 C1639 1.363 . S
C1638 C1644 1.379 . S
C1638 N1646 1.356 . S
C1639 C1638 1.363 . S
C1639 C1645 1.363 . S
C1640 C1641 1.363 . S
C1640 C1645 1.379 . S
C1640 N1647 1.356 . S
C1641 C1640 1.363 . S
C1641 C1644 1.363 . S
N1642 C1644 1.356 . S
N1642 H1654 0.984 . S
N1642 H1655 0.985 . S
N1643 C1645 1.356 . S
N1643 H1648 0.984 . S
N1643 H1649 0.985 . S
C1644 C1638 1.379 . S
C1644 C1641 1.363 . S
C1644 N1642 1.356 . S
C1645 C1639 1.363 . S
C1645 C1640 1.379 . S
C1645 N1643 1.356 . S
N1646 C1638 1.356 . S
N1646 H1652 0.984 . S
N1646 H1653 0.984 . S
N1647 C1640 1.356 . S
N1647 H1650 0.984 . S
N1647 H1651 0.985 . S
H1648 N1643 0.984 . S
H1649 N1643 0.985 . S
H1650 N1647 0.984 . S
H1651 N1647 0.985 . S
H1652 N1646 0.984 . S
H1653 N1646 0.984 . S
H1654 N1642 0.984 . S
H1655 N1642 0.985 . S
C1656 C1657 1.363 . S
C1656 C1662 1.379 . S
C1656 N1664 1.356 . S
C1657 C1656 1.363 . S
C1657 C1663 1.363 . S
C1658 C1659 1.363 . S
C1658 C1663 1.379 . S
C1658 N1665 1.356 . S
C1659 C1658 1.363 . S
C1659 C1662 1.363 . S
N1660 C1662 1.356 . S
N1660 H1672 0.984 . S
N1660 H1673 0.985 . S
N1661 C1663 1.356 . S
N1661 H1666 0.984 . S
N1661 H1667 0.985 . S
C1662 C1656 1.379 . S
C1662 C1659 1.363 . S
C1662 N1660 1.356 . S
C1663 C1657 1.363 . S
C1663 C1658 1.379 . S
C1663 N1661 1.356 . S
N1664 C1656 1.356 . S
N1664 H1670 0.984 . S
N1664 H1671 0.984 . S
N1665 C1658 1.356 . S
N1665 H1668 0.984 . S
N1665 H1669 0.985 . S
H1666 N1661 0.984 . S
H1667 N1661 0.985 . S
H1668 N1665 0.984 . S
H1669 N1665 0.985 . S
H1670 N1664 0.984 . S
H1671 N1664 0.984 . S
H1672 N1660 0.984 . S
H1673 N1660 0.985 . S
C1674 C1675 1.363 . S
C1674 C1680 1.379 . S
C1674 N1682 1.356 . S
C1675 C1674 1.363 . S
C1675 C1681 1.363 . S
C1676 C1677 1.363 . S
C1676 C1681 1.379 . S
C1676 N1683 1.356 . S
C1677 C1676 1.363 . S
C1677 C1680 1.363 . S
N1678 C1680 1.356 . S
N1678 H1690 0.984 . S
N1678 H1691 0.985 . S
N1679 C1681 1.356 . S
N1679 H1684 0.984 . S
N1679 H1685 0.985 . S
C1680 C1674 1.379 . S
C1680 C1677 1.363 . S
C1680 N1678 1.356 . S
C1681 C1675 1.363 . S
C1681 C1676 1.379 . S
C1681 N1679 1.356 . S
N1682 C1674 1.356 . S
N1682 H1688 0.984 . S
N1682 H1689 0.984 . S
N1683 C1676 1.356 . S
N1683 H1686 0.984 . S
N1683 H1687 0.985 . S
H1684 N1679 0.984 . S
H1685 N1679 0.985 . S
H1686 N1683 0.984 . S
H1687 N1683 0.985 . S
H1688 N1682 0.984 . S
H1689 N1682 0.984 . S
H1690 N1678 0.984 . S
H1691 N1678 0.985 . S
C1692 C1693 1.363 . S
C1692 C1698 1.379 . S
C1692 N1700 1.356 . S
C1693 C1692 1.363 . S
C1693 C1699 1.363 . S
C1694 C1695 1.363 . S
C1694 C1699 1.379 . S
C1694 N1701 1.356 . S
C1695 C1694 1.363 . S
C1695 C1698 1.363 . S
N1696 C1698 1.356 . S
N1696 H1708 0.984 . S
N1696 H1709 0.985 . S
N1697 C1699 1.356 1_554 S
N1697 H1702 0.984 . S
N1697 H1703 0.985 . S
C1698 C1692 1.379 . S
C1698 C1695 1.363 . S
C1698 N1696 1.356 . S
C1699 C1693 1.363 . S
C1699 C1694 1.379 . S
C1699 N1697 1.356 1_556 S
N1700 C1692 1.356 . S
N1700 H1706 0.984 . S
N1700 H1707 0.984 . S
N1701 C1694 1.356 . S
N1701 H1704 0.984 . S
N1701 H1705 0.985 . S
H1702 N1697 0.984 . S
H1703 N1697 0.985 . S
H1704 N1701 0.984 . S
H1705 N1701 0.985 . S
H1706 N1700 0.984 . S
H1707 N1700 0.984 . S
H1708 N1696 0.984 . S
H1709 N1696 0.985 . S
C1710 C1711 1.363 . S
C1710 C1716 1.379 . S
C1710 N1718 1.356 . S
C1711 C1710 1.363 . S
C1711 C1717 1.363 . S
C1712 C1713 1.363 . S
C1712 C1717 1.379 . S
C1712 N1719 1.356 1_655 S
C1713 C1712 1.363 . S
C1713 C1716 1.363 . S
N1714 C1716 1.356 . S
N1714 H1726 0.984 . S
N1714 H1727 0.985 1_655 S
N1715 C1717 1.356 . S
N1715 H1720 0.984 . S
N1715 H1721 0.985 . S
C1716 C1710 1.379 . S
C1716 C1713 1.363 . S
C1716 N1714 1.356 . S
C1717 C1711 1.363 . S
C1717 C1712 1.379 . S
C1717 N1715 1.356 . S
N1718 C1710 1.356 . S
N1718 H1724 0.984 . S
N1718 H1725 0.984 . S
N1719 C1712 1.356 1_455 S
N1719 H1722 0.984 . S
N1719 H1723 0.985 . S
H1720 N1715 0.984 . S
H1721 N1715 0.985 . S
H1722 N1719 0.984 . S
H1723 N1719 0.985 . S
H1724 N1718 0.984 . S
H1725 N1718 0.984 . S
H1726 N1714 0.984 . S
H1727 N1714 0.985 1_455 S
C865 C328 1.329 . S
C867 C4 1.329 . S
C883 C40 1.329 1_455 S
C885 C364 1.329 . S
C901 C76 1.329 . S
C903 C400 1.329 1_556 S
C919 C112 1.329 . S
C921 C292 1.329 . S
C937 C148 1.329 . S
C939 C544 1.329 . S
C955 C436 1.329 . S
C957 C184 1.329 1_655 S
C973 C220 1.329 . S
C975 C472 1.329 1_554 S
C991 C508 1.329 . S
C993 C256 1.329 . S
C1009 C580 1.329 . S
C1011 C652 1.329 . S
C1027 C796 1.329 1_545 S
C1029 C616 1.329 . S
C1045 C688 1.329 . S
C1047 C832 1.329 1_565 S
C1063 C760 1.329 . S
C1065 C724 1.329 . S
C1081 C734 1.633 . S
C1083 C14 1.633 . S
C1099 C50 1.633 . S
C1101 C626 1.633 . S
C1117 C86 1.633 . S
C1119 C662 1.633 . S
C1135 C122 1.633 . S
C1137 C698 1.633 . S
C1153 C158 1.633 . S
C1155 C842 1.633 . S
C1171 C770 1.633 . S
C1173 C194 1.633 . S
C1189 C806 1.633 . S
C1191 C230 1.633 . S
C1207 C590 1.633 . S
C1209 C266 1.633 . S
C1225 C554 1.633 . S
C1227 C302 1.633 . S
C1243 C338 1.633 . S
C1245 C446 1.633 . S
C1261 C482 1.633 . S
C1263 C374 1.633 . S
C1279 C518 1.633 . S
C1281 C410 1.633 . S
C1297 C3 1.279 . S
C1299 C578 1.369 . S
C1315 C830 1.369 1_565 S
C1317 C39 1.279 . S
C1333 C758 1.369 . S
C1335 C75 1.279 . S
C1351 C111 1.279 . S
C1353 C794 1.369 1_544 S
C1369 C147 1.279 . S
C1371 C614 1.369 . S
C1387 C650 1.369 1_556 S
C1389 C183 1.279 . S
C1405 C686 1.369 . S
C1407 C219 1.279 . S
C1423 C722 1.369 . S
C1425 C255 1.279 . S
C1441 C2 1.369 . S
C1443 C291 1.279 . S
C1459 C38 1.369 1_445 S
C1461 C327 1.279 . S
C1477 C74 1.369 . S
C1479 C363 1.279 . S
C1495 C110 1.369 1_565 S
C1497 C399 1.279 . S
C1513 C146 1.369 . S
C1515 C435 1.279 . S
C1531 C182 1.369 1_655 S
C1533 C471 1.279 . S
C1549 C507 1.279 . S
C1551 C218 1.369 . S
C1567 C254 1.369 . S
C1569 C543 1.279 . S
C1585 C290 1.369 . S
C1587 C579 1.279 . S
C1603 C615 1.279 . S
C1605 C434 1.369 . S
C1621 C470 1.369 1_454 S
C1623 C651 1.279 . S
C1639 C687 1.279 . S
C1641 C506 1.369 . S
C1657 C723 1.279 . S
C1659 C542 1.369 . S
C1675 C759 1.279 . S
C1677 C362 1.369 . S
C1693 C398 1.369 1_556 S
C1695 C795 1.279 . S
C1711 C831 1.279 . S
C1713 C326 1.369 1_655 S
